# Generated by pormake.
# Topology bwt, (3,3)-cn, num edge types: 1
# Building blocks:
#     Node 0, Type 0, BuildingBlock: WUSLED_clean_sbu_0, # of connection points: 3
#     Node 1, Type 0, BuildingBlock: WUSLED_clean_sbu_0, # of connection points: 3
#     Node 2, Type 0, BuildingBlock: WUSLED_clean_sbu_0, # of connection points: 3
#     Node 3, Type 0, BuildingBlock: WUSLED_clean_sbu_0, # of connection points: 3
#     Node 4, Type 0, BuildingBlock: WUSLED_clean_sbu_0, # of connection points: 3
#     Node 5, Type 0, BuildingBlock: WUSLED_clean_sbu_0, # of connection points: 3
#     Node 6, Type 0, BuildingBlock: WUSLED_clean_sbu_0, # of connection points: 3
#     Node 7, Type 0, BuildingBlock: WUSLED_clean_sbu_0, # of connection points: 3
#     Node 8, Type 0, BuildingBlock: WUSLED_clean_sbu_0, # of connection points: 3
#     Node 9, Type 0, BuildingBlock: WUSLED_clean_sbu_0, # of connection points: 3
#     Node 10, Type 0, BuildingBlock: WUSLED_clean_sbu_0, # of connection points: 3
#     Node 11, Type 0, BuildingBlock: WUSLED_clean_sbu_0, # of connection points: 3
#     Node 12, Type 0, BuildingBlock: WUSLED_clean_sbu_0, # of connection points: 3
#     Node 13, Type 0, BuildingBlock: WUSLED_clean_sbu_0, # of connection points: 3
#     Node 14, Type 0, BuildingBlock: WUSLED_clean_sbu_0, # of connection points: 3
#     Node 15, Type 0, BuildingBlock: WUSLED_clean_sbu_0, # of connection points: 3
#     Node 16, Type 0, BuildingBlock: WUSLED_clean_sbu_0, # of connection points: 3
#     Node 17, Type 0, BuildingBlock: WUSLED_clean_sbu_0, # of connection points: 3
#     Node 18, Type 0, BuildingBlock: WUSLED_clean_sbu_0, # of connection points: 3
#     Node 19, Type 0, BuildingBlock: WUSLED_clean_sbu_0, # of connection points: 3
#     Node 20, Type 0, BuildingBlock: WUSLED_clean_sbu_0, # of connection points: 3
#     Node 21, Type 0, BuildingBlock: WUSLED_clean_sbu_0, # of connection points: 3
#     Node 22, Type 0, BuildingBlock: WUSLED_clean_sbu_0, # of connection points: 3
#     Node 23, Type 0, BuildingBlock: WUSLED_clean_sbu_0, # of connection points: 3
#     Node 24, Type 1, BuildingBlock: BETDIP_clean_linker_0, # of connection points: 3
#     Node 25, Type 1, BuildingBlock: BETDIP_clean_linker_0, # of connection points: 3
#     Node 26, Type 1, BuildingBlock: BETDIP_clean_linker_0, # of connection points: 3
#     Node 27, Type 1, BuildingBlock: BETDIP_clean_linker_0, # of connection points: 3
#     Node 28, Type 1, BuildingBlock: BETDIP_clean_linker_0, # of connection points: 3
#     Node 29, Type 1, BuildingBlock: BETDIP_clean_linker_0, # of connection points: 3
#     Node 30, Type 1, BuildingBlock: BETDIP_clean_linker_0, # of connection points: 3
#     Node 31, Type 1, BuildingBlock: BETDIP_clean_linker_0, # of connection points: 3
#     Node 32, Type 1, BuildingBlock: BETDIP_clean_linker_0, # of connection points: 3
#     Node 33, Type 1, BuildingBlock: BETDIP_clean_linker_0, # of connection points: 3
#     Node 34, Type 1, BuildingBlock: BETDIP_clean_linker_0, # of connection points: 3
#     Node 35, Type 1, BuildingBlock: BETDIP_clean_linker_0, # of connection points: 3
#     Node 36, Type 1, BuildingBlock: BETDIP_clean_linker_0, # of connection points: 3
#     Node 37, Type 1, BuildingBlock: BETDIP_clean_linker_0, # of connection points: 3
#     Node 38, Type 1, BuildingBlock: BETDIP_clean_linker_0, # of connection points: 3
#     Node 39, Type 1, BuildingBlock: BETDIP_clean_linker_0, # of connection points: 3
#     Node 40, Type 1, BuildingBlock: BETDIP_clean_linker_0, # of connection points: 3
#     Node 41, Type 1, BuildingBlock: BETDIP_clean_linker_0, # of connection points: 3
#     Node 42, Type 1, BuildingBlock: BETDIP_clean_linker_0, # of connection points: 3
#     Node 43, Type 1, BuildingBlock: BETDIP_clean_linker_0, # of connection points: 3
#     Node 44, Type 1, BuildingBlock: BETDIP_clean_linker_0, # of connection points: 3
#     Node 45, Type 1, BuildingBlock: BETDIP_clean_linker_0, # of connection points: 3
#     Node 46, Type 1, BuildingBlock: BETDIP_clean_linker_0, # of connection points: 3
#     Node 47, Type 1, BuildingBlock: BETDIP_clean_linker_0, # of connection points: 3
#     Edge 48, Type (0, 1), BuildingBlock: UVAHIK_clean_linker_0, # of connection points: 2
#     Edge 49, Type (0, 1), BuildingBlock: UVAHIK_clean_linker_0, # of connection points: 2
#     Edge 50, Type (0, 1), BuildingBlock: UVAHIK_clean_linker_0, # of connection points: 2
#     Edge 51, Type (0, 1), BuildingBlock: UVAHIK_clean_linker_0, # of connection points: 2
#     Edge 52, Type (0, 1), BuildingBlock: UVAHIK_clean_linker_0, # of connection points: 2
#     Edge 53, Type (0, 1), BuildingBlock: UVAHIK_clean_linker_0, # of connection points: 2
#     Edge 54, Type (0, 1), BuildingBlock: UVAHIK_clean_linker_0, # of connection points: 2
#     Edge 55, Type (0, 1), BuildingBlock: UVAHIK_clean_linker_0, # of connection points: 2
#     Edge 56, Type (0, 1), BuildingBlock: UVAHIK_clean_linker_0, # of connection points: 2
#     Edge 57, Type (0, 1), BuildingBlock: UVAHIK_clean_linker_0, # of connection points: 2
#     Edge 58, Type (0, 1), BuildingBlock: UVAHIK_clean_linker_0, # of connection points: 2
#     Edge 59, Type (0, 1), BuildingBlock: UVAHIK_clean_linker_0, # of connection points: 2
#     Edge 60, Type (0, 1), BuildingBlock: UVAHIK_clean_linker_0, # of connection points: 2
#     Edge 61, Type (0, 1), BuildingBlock: UVAHIK_clean_linker_0, # of connection points: 2
#     Edge 62, Type (0, 1), BuildingBlock: UVAHIK_clean_linker_0, # of connection points: 2
#     Edge 63, Type (0, 1), BuildingBlock: UVAHIK_clean_linker_0, # of connection points: 2
#     Edge 64, Type (0, 1), BuildingBlock: UVAHIK_clean_linker_0, # of connection points: 2
#     Edge 65, Type (0, 1), BuildingBlock: UVAHIK_clean_linker_0, # of connection points: 2
#     Edge 66, Type (0, 1), BuildingBlock: UVAHIK_clean_linker_0, # of connection points: 2
#     Edge 67, Type (0, 1), BuildingBlock: UVAHIK_clean_linker_0, # of connection points: 2
#     Edge 68, Type (0, 1), BuildingBlock: UVAHIK_clean_linker_0, # of connection points: 2
#     Edge 69, Type (0, 1), BuildingBlock: UVAHIK_clean_linker_0, # of connection points: 2
#     Edge 70, Type (0, 1), BuildingBlock: UVAHIK_clean_linker_0, # of connection points: 2
#     Edge 71, Type (0, 1), BuildingBlock: UVAHIK_clean_linker_0, # of connection points: 2
#     Edge 72, Type (0, 1), BuildingBlock: UVAHIK_clean_linker_0, # of connection points: 2
#     Edge 73, Type (0, 1), BuildingBlock: UVAHIK_clean_linker_0, # of connection points: 2
#     Edge 74, Type (0, 1), BuildingBlock: UVAHIK_clean_linker_0, # of connection points: 2
#     Edge 75, Type (0, 1), BuildingBlock: UVAHIK_clean_linker_0, # of connection points: 2
#     Edge 76, Type (0, 1), BuildingBlock: UVAHIK_clean_linker_0, # of connection points: 2
#     Edge 77, Type (0, 1), BuildingBlock: UVAHIK_clean_linker_0, # of connection points: 2
#     Edge 78, Type (0, 1), BuildingBlock: UVAHIK_clean_linker_0, # of connection points: 2
#     Edge 79, Type (0, 1), BuildingBlock: UVAHIK_clean_linker_0, # of connection points: 2
#     Edge 80, Type (0, 1), BuildingBlock: UVAHIK_clean_linker_0, # of connection points: 2
#     Edge 81, Type (0, 1), BuildingBlock: UVAHIK_clean_linker_0, # of connection points: 2
#     Edge 82, Type (0, 1), BuildingBlock: UVAHIK_clean_linker_0, # of connection points: 2
#     Edge 83, Type (0, 1), BuildingBlock: UVAHIK_clean_linker_0, # of connection points: 2
#     Edge 84, Type (0, 1), BuildingBlock: UVAHIK_clean_linker_0, # of connection points: 2
#     Edge 85, Type (0, 1), BuildingBlock: UVAHIK_clean_linker_0, # of connection points: 2
#     Edge 86, Type (0, 1), BuildingBlock: UVAHIK_clean_linker_0, # of connection points: 2
#     Edge 87, Type (0, 1), BuildingBlock: UVAHIK_clean_linker_0, # of connection points: 2
#     Edge 88, Type (0, 1), BuildingBlock: UVAHIK_clean_linker_0, # of connection points: 2
#     Edge 89, Type (0, 1), BuildingBlock: UVAHIK_clean_linker_0, # of connection points: 2
#     Edge 90, Type (0, 1), BuildingBlock: UVAHIK_clean_linker_0, # of connection points: 2
#     Edge 91, Type (0, 1), BuildingBlock: UVAHIK_clean_linker_0, # of connection points: 2
#     Edge 92, Type (0, 1), BuildingBlock: UVAHIK_clean_linker_0, # of connection points: 2
#     Edge 93, Type (0, 1), BuildingBlock: UVAHIK_clean_linker_0, # of connection points: 2
#     Edge 94, Type (0, 1), BuildingBlock: UVAHIK_clean_linker_0, # of connection points: 2
#     Edge 95, Type (0, 1), BuildingBlock: UVAHIK_clean_linker_0, # of connection points: 2
#     Edge 96, Type (0, 1), BuildingBlock: UVAHIK_clean_linker_0, # of connection points: 2
#     Edge 97, Type (0, 1), BuildingBlock: UVAHIK_clean_linker_0, # of connection points: 2
#     Edge 98, Type (0, 1), BuildingBlock: UVAHIK_clean_linker_0, # of connection points: 2
#     Edge 99, Type (0, 1), BuildingBlock: UVAHIK_clean_linker_0, # of connection points: 2
#     Edge 100, Type (0, 1), BuildingBlock: UVAHIK_clean_linker_0, # of connection points: 2
#     Edge 101, Type (0, 1), BuildingBlock: UVAHIK_clean_linker_0, # of connection points: 2
#     Edge 102, Type (0, 1), BuildingBlock: UVAHIK_clean_linker_0, # of connection points: 2
#     Edge 103, Type (0, 1), BuildingBlock: UVAHIK_clean_linker_0, # of connection points: 2
#     Edge 104, Type (0, 1), BuildingBlock: UVAHIK_clean_linker_0, # of connection points: 2
#     Edge 105, Type (0, 1), BuildingBlock: UVAHIK_clean_linker_0, # of connection points: 2
#     Edge 106, Type (0, 1), BuildingBlock: UVAHIK_clean_linker_0, # of connection points: 2
#     Edge 107, Type (0, 1), BuildingBlock: UVAHIK_clean_linker_0, # of connection points: 2
#     Edge 108, Type (0, 1), BuildingBlock: UVAHIK_clean_linker_0, # of connection points: 2
#     Edge 109, Type (0, 1), BuildingBlock: UVAHIK_clean_linker_0, # of connection points: 2
#     Edge 110, Type (0, 1), BuildingBlock: UVAHIK_clean_linker_0, # of connection points: 2
#     Edge 111, Type (0, 1), BuildingBlock: UVAHIK_clean_linker_0, # of connection points: 2
#     Edge 112, Type (0, 1), BuildingBlock: UVAHIK_clean_linker_0, # of connection points: 2
#     Edge 113, Type (0, 1), BuildingBlock: UVAHIK_clean_linker_0, # of connection points: 2
#     Edge 114, Type (0, 1), BuildingBlock: UVAHIK_clean_linker_0, # of connection points: 2
#     Edge 115, Type (0, 1), BuildingBlock: UVAHIK_clean_linker_0, # of connection points: 2
#     Edge 116, Type (0, 1), BuildingBlock: UVAHIK_clean_linker_0, # of connection points: 2
#     Edge 117, Type (0, 1), BuildingBlock: UVAHIK_clean_linker_0, # of connection points: 2
#     Edge 118, Type (0, 1), BuildingBlock: UVAHIK_clean_linker_0, # of connection points: 2
#     Edge 119, Type (0, 1), BuildingBlock: UVAHIK_clean_linker_0, # of connection points: 2
# Relax obj value: 0.121
# Max RMSD: 0.173
# Mean RMSD: 0.083
data_MOF--net-bwt--node1-WUSLED_clean_sbu_0--node2-BETDIP_clean_linker_0--edge1-UVAHIK_clean_linker_0
_symmetry_space_group_name_H-M    P1
_symmetry_Int_Tables_number       1
_symmetry_cell_setting            triclinic
loop_
_symmetry_equiv_pos_as_xyz
'x, y, z'
_cell_length_a     84.08668
_cell_length_b     84.120528
_cell_length_c     84.094707
_cell_angle_alpha  95.355577
_cell_angle_beta   95.362934
_cell_angle_gamma 95.345139
loop_
_atom_site_label
_atom_site_type_symbol
_atom_site_fract_x
_atom_site_fract_y
_atom_site_fract_z
_atom_type_partial_charge
C0 C 0.31646 0.63874 0.34384 0.0
C1 C 0.32482 0.62535 0.34635 0.0
C2 C 0.34563 0.63527 0.33045 0.0
C3 C 0.33921 0.62358 0.33965 0.0
C4 C 0.33725 0.64868 0.32797 0.0
C5 C 0.32274 0.65037 0.33457 0.0
U6 U 0.29248 0.63275 0.37883 0.0
O7 O 0.2781 0.64896 0.39221 0.0
O8 O 0.26695 0.62565 0.38041 0.0
C9 C 0.26476 0.63939 0.38829 0.0
C10 C 0.30177 0.64106 0.35163 0.0
C11 C 0.25064 0.64694 0.38224 0.0
C12 C 0.23234 0.65345 0.36022 0.0
C13 C 0.24672 0.64767 0.36574 0.0
C14 C 0.22605 0.65845 0.38767 0.0
C15 C 0.22168 0.65859 0.37112 0.0
C16 C 0.24038 0.65264 0.39315 0.0
C17 C 0.31111 0.61061 0.41263 0.0
C18 C 0.30933 0.6138 0.44143 0.0
C19 C 0.31378 0.58795 0.42832 0.0
C20 C 0.31349 0.59442 0.41358 0.0
C21 C 0.31188 0.59763 0.44242 0.0
C22 C 0.30888 0.62023 0.42668 0.0
C23 C 0.31146 0.61728 0.39701 0.0
O24 O 0.29228 0.62793 0.35266 0.0
O25 O 0.30393 0.65078 0.36499 0.0
O26 O 0.31273 0.63302 0.39737 0.0
O27 O 0.30112 0.61003 0.38529 0.0
H28 H 0.32035 0.61635 0.35371 0.0
H29 H 0.34552 0.61326 0.342 0.0
H30 H 0.34188 0.65784 0.32088 0.0
H31 H 0.31653 0.66085 0.33262 0.0
H32 H 0.22929 0.6533 0.3474 0.0
H33 H 0.25454 0.64333 0.35713 0.0
H34 H 0.21827 0.66259 0.39639 0.0
H35 H 0.24326 0.65225 0.40593 0.0
H36 H 0.30763 0.62149 0.45208 0.0
H37 H 0.31589 0.57548 0.42875 0.0
H38 H 0.31529 0.58679 0.40292 0.0
H39 H 0.3069 0.63273 0.42634 0.0
C40 C 0.20141 0.31981 0.77253 0.0
C41 C 0.19088 0.32568 0.78312 0.0
C42 C 0.16798 0.31571 0.76372 0.0
C43 C 0.17431 0.32358 0.7788 0.0
C44 C 0.17859 0.30946 0.75333 0.0
C45 C 0.19517 0.31151 0.75771 0.0
U46 U 0.23611 0.34559 0.79641 0.0
O47 O 0.25957 0.33986 0.80724 0.0
O48 O 0.25837 0.35723 0.78928 0.0
C49 C 0.26758 0.34912 0.79831 0.0
C50 C 0.21884 0.3235 0.77634 0.0
C51 C 0.28096 0.34247 0.79078 0.0
C52 C 0.29363 0.33417 0.76697 0.0
C53 C 0.27988 0.33772 0.77422 0.0
C54 C 0.30939 0.33899 0.7929 0.0
C55 C 0.30864 0.33527 0.77617 0.0
C56 C 0.29567 0.34258 0.80011 0.0
C57 C 0.22815 0.37966 0.82604 0.0
C58 C 0.24968 0.40038 0.83621 0.0
C59 C 0.22472 0.39891 0.84852 0.0
C60 C 0.21869 0.38563 0.83763 0.0
C61 C 0.24031 0.40643 0.84795 0.0
C62 C 0.24369 0.38707 0.82543 0.0
C63 C 0.22187 0.36572 0.8146 0.0
O64 O 0.22461 0.33737 0.77211 0.0
O65 O 0.22459 0.32087 0.79085 0.0
O66 O 0.22547 0.35174 0.81889 0.0
O67 O 0.22392 0.36747 0.79954 0.0
H68 H 0.19549 0.33222 0.79459 0.0
H69 H 0.16649 0.32834 0.78717 0.0
H70 H 0.17414 0.30353 0.74156 0.0
H71 H 0.20316 0.30705 0.74934 0.0
H72 H 0.29263 0.33115 0.75409 0.0
H73 H 0.2686 0.33746 0.7668 0.0
H74 H 0.32075 0.34013 0.80033 0.0
H75 H 0.29674 0.34625 0.8129 0.0
H76 H 0.26162 0.406 0.83522 0.0
H77 H 0.21726 0.40311 0.85753 0.0
H78 H 0.20669 0.37998 0.83829 0.0
H79 H 0.25119 0.38261 0.81657 0.0
C80 C 0.69526 0.9649 0.65304 0.0
C81 C 0.70875 0.96922 0.64516 0.0
C82 C 0.72646 0.96319 0.66793 0.0
C83 C 0.7242 0.96843 0.65254 0.0
C84 C 0.71286 0.95893 0.67581 0.0
C85 C 0.69738 0.95977 0.6684 0.0
U86 U 0.66958 0.96928 0.61513 0.0
O87 O 0.64687 0.95598 0.60384 0.0
O88 O 0.64846 0.98211 0.60987 0.0
C89 C 0.63916 0.96889 0.60452 0.0
C90 C 0.67906 0.96525 0.64493 0.0
C91 C 0.62319 0.96723 0.61039 0.0
C92 C 0.6049 0.97378 0.63019 0.0
C93 C 0.62051 0.97409 0.62565 0.0
C94 C 0.59458 0.95915 0.60456 0.0
C95 C 0.5917 0.96656 0.61957 0.0
C96 C 0.61016 0.95953 0.60002 0.0
C97 C 0.69042 0.97618 0.57803 0.0
C98 C 0.67467 0.97789 0.55267 0.0
C99 C 0.70373 0.9799 0.55408 0.0
C100 C 0.70453 0.97817 0.5705 0.0
C101 C 0.68878 0.97961 0.54495 0.0
C102 C 0.67549 0.97619 0.56908 0.0
C103 C 0.69129 0.97375 0.5951 0.0
O104 O 0.67594 0.97924 0.64029 0.0
O105 O 0.67446 0.95324 0.63382 0.0
O106 O 0.68542 0.95946 0.59818 0.0
O107 O 0.68671 0.98548 0.60448 0.0
H108 H 0.70732 0.97317 0.63326 0.0
H109 H 0.73437 0.97204 0.64623 0.0
H110 H 0.71417 0.95469 0.68758 0.0
H111 H 0.68707 0.95627 0.67459 0.0
H112 H 0.60314 0.97975 0.64177 0.0
H113 H 0.6304 0.98008 0.63387 0.0
H114 H 0.58475 0.95325 0.59621 0.0
H115 H 0.612 0.95412 0.58821 0.0
H116 H 0.66299 0.97782 0.54602 0.0
H117 H 0.7148 0.98102 0.54845 0.0
H118 H 0.71614 0.97817 0.57727 0.0
H119 H 0.66447 0.97472 0.57477 0.0
C120 C 0.79087 0.02606 0.27862 0.0
C121 C 0.77845 0.02686 0.26644 0.0
C122 C 0.7587 0.02527 0.28572 0.0
C123 C 0.76255 0.02655 0.26996 0.0
C124 C 0.77119 0.02471 0.29797 0.0
C125 C 0.78717 0.02511 0.29444 0.0
U126 U 0.81672 0.01373 0.2471 0.0
O127 O 0.83919 0.02441 0.23934 0.0
O128 O 0.83784 1.00011 0.24712 0.0
C129 C 0.84699 0.01206 0.24261 0.0
C130 C 0.80732 0.02469 0.27443 0.0
C131 C 0.86323 0.0155 0.25123 0.0
C132 C 0.88512 0.03397 0.26539 0.0
C133 C 0.86904 0.0308 0.25891 0.0
C134 C 0.88957 0.00653 0.2571 0.0
C135 C 0.89562 0.02191 0.26436 0.0
C136 C 0.87358 0.00339 0.25061 0.0
C137 C 0.79375 0.9964 0.20691 0.0
C138 C 0.8068 0.98948 0.183 0.0
C139 C 0.77807 0.98307 0.1829 0.0
C140 C 0.77898 0.98977 0.19882 0.0
C141 C 0.79195 0.98291 0.17478 0.0
C142 C 0.8077 0.99614 0.19898 0.0
C143 C 0.79433 0.0035 0.22357 0.0
O144 O 0.81077 0.00985 0.27148 0.0
O145 O 0.81205 0.03411 0.26376 0.0
O146 O 0.80053 0.01854 0.22643 0.0
O147 O 0.79936 0.99443 0.23451 0.0
H148 H 0.781 0.02729 0.25408 0.0
H149 H 0.75321 0.02672 0.2602 0.0
H150 H 0.76858 0.0238 0.31025 0.0
H151 H 0.79658 0.02431 0.30396 0.0
H152 H 0.88939 0.04591 0.271 0.0
H153 H 0.8613 0.04038 0.25958 0.0
H154 H 0.89735 0.99703 0.25581 0.0
H155 H 0.86942 0.99156 0.24463 0.0
H156 H 0.81771 0.98941 0.17711 0.0
H157 H 0.76643 0.97833 0.17684 0.0
H158 H 0.76811 0.98988 0.2048 0.0
H159 H 0.81923 1.00114 0.20513 0.0
C160 C 0.34974 0.30657 0.64541 0.0
C161 C 0.36078 0.32031 0.64636 0.0
C162 C 0.33892 0.33732 0.64501 0.0
C163 C 0.35543 0.33552 0.64625 0.0
C164 C 0.32788 0.32354 0.64417 0.0
C165 C 0.33326 0.30828 0.6444 0.0
U166 U 0.38187 0.28083 0.63445 0.0
O167 O 0.39323 0.2619 0.64622 0.0
O168 O 0.38111 0.25663 0.62173 0.0
C169 C 0.3885 0.25092 0.6341 0.0
C170 C 0.35544 0.29051 0.64441 0.0
C171 C 0.38146 0.23532 0.63816 0.0
C172 C 0.36394 0.21902 0.65311 0.0
C173 C 0.37003 0.23413 0.64926 0.0
C174 C 0.38052 0.20628 0.63467 0.0
C175 C 0.36912 0.20492 0.64582 0.0
C176 C 0.38661 0.22132 0.6309 0.0
C177 C 0.41769 0.30283 0.61767 0.0
C178 C 0.43975 0.28957 0.60762 0.0
C179 C 0.44029 0.31853 0.60886 0.0
C180 C 0.42544 0.31768 0.61509 0.0
C181 C 0.44765 0.3045 0.6051 0.0
C182 C 0.42488 0.28875 0.6139 0.0
C183 C 0.4021 0.30234 0.62424 0.0
O184 O 0.35619 0.28396 0.62972 0.0
O185 O 0.36825 0.28906 0.6542 0.0
O186 O 0.40228 0.29956 0.63937 0.0
O187 O 0.39001 0.29426 0.61499 0.0
H188 H 0.37356 0.31924 0.64689 0.0
H189 H 0.36423 0.34584 0.64664 0.0
H190 H 0.31509 0.32455 0.64328 0.0
H191 H 0.32457 0.29781 0.64353 0.0
H192 H 0.35508 0.21837 0.66164 0.0
H193 H 0.36587 0.24484 0.65497 0.0
H194 H 0.38497 0.1957 0.62903 0.0
H195 H 0.39548 0.22202 0.62236 0.0
H196 H 0.44518 0.27857 0.60499 0.0
H197 H 0.44593 0.33017 0.60685 0.0
H198 H 0.42 0.32865 0.61788 0.0
H199 H 0.41902 0.27717 0.61586 0.0
C200 C 0.27478 0.78421 0.01462 0.0
C201 C 0.26325 0.7714 0.01611 0.0
C202 C 0.28301 0.7524 0.01249 0.0
C203 C 0.26733 0.75568 0.01513 0.0
C204 C 0.2946 0.76528 0.01112 0.0
C205 C 0.2905 0.78109 0.0122 0.0
U206 U 0.2411 0.80893 0.00717 0.0
O207 O 0.23376 0.83076 0.01963 0.0
O208 O 0.23818 0.8302 0.99422 0.0
C209 C 0.23482 0.83887 0.00707 0.0
C210 C 0.26985 0.80051 0.01428 0.0
C211 C 0.24295 0.85529 0.00999 0.0
C212 C 0.26192 0.87592 0.02547 0.0
C213 C 0.25531 0.85986 0.02247 0.0
C214 C 0.24415 0.88278 0.00333 0.0
C215 C 0.25634 0.88757 0.01596 0.0
C216 C 0.23755 0.86683 1.0004 0.0
C217 C 0.20048 0.7846 0.9945 0.0
C218 C 0.17639 0.79677 0.9862 0.0
C219 C 0.17499 0.76818 0.98853 0.0
C220 C 0.19147 0.76961 0.99323 0.0
C221 C 0.16726 0.78174 0.98499 0.0
C222 C 0.19289 0.7982 0.99096 0.0
C223 C 0.21776 0.78577 0.99942 0.0
O224 O 0.2648 0.80406 0.9999 0.0
O225 O 0.26045 0.80472 0.02527 0.0
O226 O 0.22226 0.79187 0.01429 0.0
O227 O 0.22703 0.79136 0.98905 0.0
H228 H 0.25095 0.77352 0.0177 0.0
H229 H 0.25807 0.74603 0.01596 0.0
H230 H 0.3068 0.76311 0.00918 0.0
H231 H 0.29951 0.79082 0.01085 0.0
H232 H 0.27135 0.87921 0.03521 0.0
H233 H 0.25968 0.85111 0.03001 0.0
H234 H 0.23935 0.89146 0.99597 0.0
H235 H 0.22796 0.86356 0.99079 0.0
H236 H 0.17073 0.80745 0.9837 0.0
H237 H 0.16834 0.7564 0.9875 0.0
H238 H 0.19719 0.759 0.99587 0.0
H239 H 0.19973 0.80988 0.99192 0.0
C240 C 0.76343 0.20104 0.32409 0.0
C241 C 0.77154 0.18919 0.33109 0.0
C242 C 0.75042 0.16864 0.3191 0.0
C243 C 0.76511 0.17313 0.3286 0.0
C244 C 0.74259 0.18053 0.3117 0.0
C245 C 0.74905 0.19662 0.3142 0.0
U246 U 0.79242 0.23257 0.349 0.0
O247 O 0.78864 0.25524 0.36251 0.0
O248 O 0.80468 0.2554 0.34335 0.0
C249 C 0.79724 0.26402 0.35363 0.0
C250 C 0.76931 0.21806 0.32811 0.0
C251 C 0.79005 0.27814 0.34787 0.0
C252 C 0.77009 0.29725 0.34947 0.0
C253 C 0.77585 0.28297 0.35352 0.0
C254 C 0.79234 0.30206 0.33364 0.0
C255 C 0.77836 0.30711 0.33965 0.0
C256 C 0.79815 0.28777 0.33777 0.0
C257 C 0.82295 0.21906 0.37972 0.0
C258 C 0.83792 0.23805 0.40053 0.0
C259 C 0.84355 0.21024 0.39809 0.0
C260 C 0.83174 0.20687 0.38504 0.0
C261 C 0.84667 0.22584 0.40606 0.0
C262 C 0.82619 0.2347 0.38744 0.0
C263 C 0.81009 0.21528 0.36649 0.0
O264 O 0.76696 0.22388 0.34265 0.0
O265 O 0.78383 0.22228 0.32431 0.0
O266 O 0.81368 0.21932 0.35243 0.0
O267 O 0.79593 0.2191 0.36996 0.0
H268 H 0.7826 0.19244 0.33889 0.0
H269 H 0.77133 0.16435 0.33467 0.0
H270 H 0.73136 0.17744 0.30417 0.0
H271 H 0.74263 0.20564 0.30874 0.0
H272 H 0.75948 0.30087 0.35459 0.0
H273 H 0.76937 0.27598 0.36149 0.0
H274 H 0.79893 0.30926 0.32593 0.0
H275 H 0.8092 0.28444 0.33336 0.0
H276 H 0.84021 0.25024 0.40627 0.0
H277 H 0.85001 0.20056 0.40215 0.0
H278 H 0.82935 0.19473 0.37922 0.0
H279 H 0.81953 0.24426 0.38342 0.0
C280 C 0.65209 0.69832 0.9741 0.0
C281 C 0.64442 0.71203 0.97811 0.0
C282 C 0.66763 0.72921 0.97227 0.0
C283 C 0.65212 0.72732 0.97726 0.0
C284 C 0.67532 0.7154 0.96834 0.0
C285 C 0.66759 0.70007 0.96924 0.0
U286 U 0.61329 0.6737 0.97717 0.0
O287 O 0.60195 0.65102 0.96396 0.0
O288 O 0.60682 0.65301 0.99022 0.0
C289 C 0.60182 0.64356 0.97701 0.0
C290 C 0.64358 0.6823 0.97443 0.0
C291 C 0.60784 0.6277 0.97597 0.0
C292 C 0.62969 0.61082 0.97811 0.0
C293 C 0.62433 0.62609 0.97824 0.0
C294 C 0.60217 0.59869 0.97302 0.0
C295 C 0.61866 0.59694 0.97567 0.0
C296 C 0.59683 0.61394 0.97319 0.0
C297 C 0.57667 0.69645 0.9815 0.0
C298 C 0.55042 0.68247 0.9833 0.0
C299 C 0.55335 0.7113 0.98232 0.0
C300 C 0.56984 0.711 0.98154 0.0
C301 C 0.54343 0.69702 0.98307 0.0
C302 C 0.56692 0.68219 0.9825 0.0
C303 C 0.59386 0.69623 0.97998 0.0
O304 O 0.63816 0.6796 0.98821 0.0
O305 O 0.63295 0.67766 0.96201 0.0
O306 O 0.59737 0.68977 0.96607 0.0
O307 O 0.60235 0.69155 0.99229 0.0
H308 H 0.6324 0.7109 0.98184 0.0
H309 H 0.64594 0.73766 0.98063 0.0
H310 H 0.68719 0.71643 0.96429 0.0
H311 H 0.67363 0.6896 0.96598 0.0
H312 H 0.64245 0.60992 0.98037 0.0
H313 H 0.63299 0.63662 0.98041 0.0
H314 H 0.59337 0.58827 0.97087 0.0
H315 H 0.58406 0.61499 0.97135 0.0
H316 H 0.54308 0.67126 0.98368 0.0
H317 H 0.54835 0.72272 0.98231 0.0
H318 H 0.57724 0.72211 0.98082 0.0
H319 H 0.57205 0.67083 0.98242 0.0
C320 C 0.6446 0.34223 0.30836 0.0
C321 C 0.63149 0.34464 0.31719 0.0
C322 C 0.64348 0.33103 0.33889 0.0
C323 C 0.6309 0.33901 0.33224 0.0
C324 C 0.65661 0.32863 0.33005 0.0
C325 C 0.65713 0.33415 0.31486 0.0
U326 U 0.63588 0.37563 0.2834 0.0
O327 O 0.64988 0.38871 0.26701 0.0
O328 O 0.62616 0.37612 0.25827 0.0
C329 C 0.6391 0.38443 0.25462 0.0
C330 C 0.64566 0.3491 0.29294 0.0
C331 C 0.64519 0.37872 0.23953 0.0
C332 C 0.65945 0.36022 0.22361 0.0
C333 C 0.65408 0.36542 0.23833 0.0
C334 C 0.64706 0.38156 0.21131 0.0
C335 C 0.65599 0.36825 0.20992 0.0
C336 C 0.64175 0.38673 0.22597 0.0
C337 C 0.61523 0.40947 0.30348 0.0
C338 C 0.60565 0.43095 0.289 0.0
C339 C 0.6059 0.43254 0.31796 0.0
C340 C 0.61212 0.41771 0.31793 0.0
C341 C 0.60264 0.43935 0.3035 0.0
C342 C 0.61196 0.41614 0.289 0.0
C343 C 0.62217 0.39411 0.30376 0.0
O344 O 0.63187 0.34954 0.28428 0.0
O345 O 0.6552 0.36251 0.29372 0.0
O346 O 0.63778 0.39497 0.30319 0.0
O347 O 0.61429 0.38203 0.29432 0.0
H348 H 0.62181 0.35112 0.31258 0.0
H349 H 0.62076 0.3413 0.33887 0.0
H350 H 0.66646 0.32248 0.33486 0.0
H351 H 0.66742 0.33232 0.30831 0.0
H352 H 0.66637 0.34999 0.22299 0.0
H353 H 0.65681 0.35908 0.24872 0.0
H354 H 0.64387 0.38783 0.20099 0.0
H355 H 0.63481 0.39696 0.22667 0.0
H356 H 0.60345 0.43598 0.2777 0.0
H357 H 0.60354 0.43863 0.32929 0.0
H358 H 0.61459 0.4127 0.32921 0.0
H359 H 0.6144 0.40996 0.27773 0.0
C360 C 0.0167 0.27632 0.78319 0.0
C361 C 0.01762 0.26459 0.77036 0.0
C362 C 0.01303 0.28401 0.75119 0.0
C363 C 0.01591 0.26842 0.75455 0.0
C364 C 0.01222 0.29579 0.76404 0.0
C365 C 0.01407 0.29197 0.77994 0.0
U366 U 0.00731 0.24419 0.80941 0.0
O367 O 0.02041 0.23556 0.83022 0.0
O368 O 0.99655 0.24375 0.83226 0.0
C369 C 0.0094 0.23897 0.83978 0.0
C370 C 0.01705 0.27176 0.7997 0.0
C371 C 0.01502 0.24746 0.85583 0.0
C372 C 0.03648 0.25783 0.87675 0.0
C373 C 0.03146 0.25138 0.86093 0.0
C374 C 0.00876 0.25695 0.88253 0.0
C375 C 0.02519 0.26051 0.88778 0.0
C376 C 0.00376 0.25044 0.86677 0.0
C377 C 0.98775 0.20477 0.78554 0.0
C378 C 0.9835 0.17895 0.79604 0.0
C379 C 0.9727 0.18224 0.76893 0.0
C380 C 0.97902 0.19831 0.77103 0.0
C381 C 0.97504 0.17231 0.78133 0.0
C382 C 0.98983 0.19509 0.79814 0.0
C383 C 0.9948 0.22151 0.78699 0.0
O384 O 0.00283 0.26881 0.80471 0.0
O385 O 0.02685 0.26096 0.80314 0.0
O386 O 0.01025 0.22405 0.7917 0.0
O387 O 0.98636 0.2321 0.79382 0.0
H388 H 0.01932 0.25234 0.77254 0.0
H389 H 0.01635 0.25903 0.74491 0.0
H390 H 0.01011 0.30793 0.7618 0.0
H391 H 0.01314 0.30113 0.78966 0.0
H392 H 0.04922 0.26057 0.8804 0.0
H393 H 0.04048 0.24916 0.85284 0.0
H394 H 0.99976 0.25861 0.89077 0.0
H395 H 0.99104 0.24732 0.86326 0.0
H396 H 0.98559 0.17158 0.80577 0.0
H397 H 0.96599 0.17758 0.75757 0.0
H398 H 0.97722 0.20567 0.76123 0.0
H399 H 0.99653 0.19995 0.80945 0.0
C400 C 0.32838 0.7708 0.20073 0.0
C401 C 0.3332 0.78095 0.18936 0.0
C402 C 0.32351 0.7601 0.16767 0.0
C403 C 0.33072 0.77569 0.173 0.0
C404 C 0.31825 0.75013 0.1791 0.0
C405 C 0.3207 0.75544 0.19551 0.0
U406 U 0.35484 0.79721 0.23301 0.0
O407 O 0.35012 0.80954 0.25611 0.0
O408 O 0.36785 0.79196 0.25546 0.0
C409 C 0.35995 0.80142 0.26446 0.0
C410 C 0.33265 0.77568 0.21795 0.0
C411 C 0.35372 0.79435 0.27823 0.0
C412 C 0.33708 0.77391 0.28942 0.0
C413 C 0.34177 0.78133 0.27612 0.0
C414 C 0.35595 0.79278 0.30698 0.0
C415 C 0.34432 0.77939 0.305 0.0
C416 C 0.36059 0.80017 0.29372 0.0
C417 C 0.38711 0.82644 0.21991 0.0
C418 C 0.409 0.83973 0.23877 0.0
C419 C 0.40599 0.84678 0.21142 0.0
C420 C 0.39242 0.83561 0.208 0.0
C421 C 0.4145 0.84887 0.22682 0.0
C422 C 0.39539 0.82864 0.23535 0.0
C423 C 0.37324 0.8143 0.21601 0.0
O424 O 0.34691 0.7722 0.22349 0.0
O425 O 0.32976 0.79032 0.22298 0.0
O426 O 0.3595 0.81864 0.22028 0.0
O427 O 0.37585 0.7998 0.21947 0.0
H428 H 0.33927 0.79282 0.19317 0.0
H429 H 0.33469 0.78376 0.16452 0.0
H430 H 0.31283 0.738 0.17543 0.0
H431 H 0.31705 0.74739 0.20413 0.0
H432 H 0.32798 0.76374 0.28748 0.0
H433 H 0.33635 0.7767 0.26419 0.0
H434 H 0.36199 0.79716 0.31873 0.0
H435 H 0.3699 0.81017 0.29553 0.0
H436 H 0.41516 0.84124 0.25079 0.0
H437 H 0.41 0.85356 0.20195 0.0
H438 H 0.38617 0.83402 0.196 0.0
H439 H 0.39138 0.82169 0.24472 0.0
C440 C 0.95697 0.64773 0.70292 0.0
C441 C 0.9602 0.63972 0.71658 0.0
C442 C 0.95711 0.66386 0.73387 0.0
C443 C 0.96025 0.64769 0.7319 0.0
C444 C 0.95383 0.67182 0.72011 0.0
C445 C 0.95378 0.6638 0.70474 0.0
U446 U 0.96321 0.60996 0.67792 0.0
O447 O 0.94962 0.59713 0.65614 0.0
O448 O 0.97513 0.60551 0.656 0.0
C449 C 0.96183 0.59889 0.64755 0.0
C450 C 0.95699 0.63921 0.68688 0.0
C451 C 0.95839 0.60496 0.63194 0.0
C452 C 0.95053 0.62598 0.61584 0.0
C453 C 0.95293 0.62011 0.63082 0.0
C454 C 0.95878 0.6015 0.60303 0.0
C455 C 0.9536 0.61681 0.60178 0.0
C456 C 0.96114 0.59565 0.61798 0.0
C457 C 0.97521 0.57461 0.69931 0.0
C458 C 0.98111 0.55031 0.68405 0.0
C459 C 0.97923 0.55075 0.71267 0.0
C460 C 0.97602 0.56679 0.7133 0.0
C461 C 0.98168 0.54229 0.69801 0.0
C462 C 0.97787 0.56633 0.68469 0.0
C463 C 0.97111 0.59119 0.69994 0.0
O464 O 0.97118 0.63573 0.68313 0.0
O465 O 0.94576 0.62711 0.68328 0.0
O466 O 0.95615 0.59275 0.69478 0.0
O467 O 0.98155 0.60141 0.6945 0.0
H468 H 0.96264 0.62726 0.71537 0.0
H469 H 0.96257 0.64112 0.74221 0.0
H470 H 0.95153 0.68431 0.72121 0.0
H471 H 0.9513 0.67015 0.6943 0.0
H472 H 0.94638 0.63774 0.61528 0.0
H473 H 0.95074 0.62744 0.64153 0.0
H474 H 0.96154 0.59423 0.59252 0.0
H475 H 0.96543 0.58395 0.61868 0.0
H476 H 0.98314 0.54421 0.67261 0.0
H477 H 0.97934 0.54487 0.7236 0.0
H478 H 0.97392 0.57302 0.72467 0.0
H479 H 0.97727 0.57223 0.67376 0.0
C480 C 0.69029 0.33799 0.64765 0.0
C481 C 0.67965 0.34678 0.63908 0.0
C482 C 0.66064 0.34371 0.65884 0.0
C483 C 0.66501 0.34971 0.64468 0.0
C484 C 0.6711 0.33459 0.66726 0.0
C485 C 0.68591 0.33178 0.66171 0.0
U486 U 0.71712 0.34471 0.61569 0.0
O487 O 0.74226 0.35461 0.61624 0.0
O488 O 0.73449 0.33036 0.60439 0.0
C489 C 0.74659 0.34138 0.60905 0.0
C490 C 0.70606 0.336 0.642 0.0
C491 C 0.7614 0.33576 0.61627 0.0
C492 C 0.77984 0.33247 0.6395 0.0
C493 C 0.76487 0.33621 0.63297 0.0
C494 C 0.78771 0.32715 0.61268 0.0
C495 C 0.79157 0.32823 0.62942 0.0
C496 C 0.77279 0.33091 0.60619 0.0
C497 C 0.6986 0.36529 0.58065 0.0
C498 C 0.71357 0.38026 0.56257 0.0
C499 C 0.68486 0.37345 0.55652 0.0
C500 C 0.68448 0.3657 0.5705 0.0
C501 C 0.69938 0.38098 0.5525 0.0
C502 C 0.7132 0.37243 0.57651 0.0
C503 C 0.69773 0.35803 0.59582 0.0
O504 O 0.70578 0.32607 0.62892 0.0
O505 O 0.71502 0.34958 0.6415 0.0
O506 O 0.70636 0.36601 0.60838 0.0
O507 O 0.69856 0.34246 0.59504 0.0
H508 H 0.68279 0.35159 0.62815 0.0
H509 H 0.65707 0.35669 0.63796 0.0
H510 H 0.66793 0.32995 0.67825 0.0
H511 H 0.69397 0.32493 0.66844 0.0
H512 H 0.78246 0.33352 0.65244 0.0
H513 H 0.7562 0.33992 0.64096 0.0
H514 H 0.79634 0.32365 0.60458 0.0
H515 H 0.77029 0.33043 0.59327 0.0
H516 H 0.72497 0.38574 0.55967 0.0
H517 H 0.67371 0.3739 0.54908 0.0
H518 H 0.67311 0.36026 0.57354 0.0
H519 H 0.72425 0.37213 0.58415 0.0
C520 C 0.81255 0.68343 0.23898 0.0
C521 C 0.82307 0.67854 0.2279 0.0
C522 C 0.84598 0.68669 0.24785 0.0
C523 C 0.83964 0.68024 0.23227 0.0
C524 C 0.83538 0.692 0.25875 0.0
C525 C 0.8188 0.69037 0.25433 0.0
U526 U 0.77817 0.6577 0.21482 0.0
O527 O 0.75607 0.64553 0.22179 0.0
O528 O 0.75459 0.66295 0.20394 0.0
C529 C 0.74669 0.65343 0.21271 0.0
C530 C 0.79509 0.67978 0.23513 0.0
C531 C 0.73334 0.65989 0.22038 0.0
C532 C 0.72275 0.67404 0.24295 0.0
C533 C 0.73587 0.66963 0.23505 0.0
C534 C 0.70456 0.65948 0.22128 0.0
C535 C 0.70693 0.66874 0.23629 0.0
C536 C 0.71765 0.65512 0.21342 0.0
C537 C 0.78778 0.62411 0.18525 0.0
C538 C 0.76712 0.60284 0.17424 0.0
C539 C 0.79354 0.60373 0.16481 0.0
C540 C 0.79847 0.61761 0.17524 0.0
C541 C 0.77786 0.5961 0.16435 0.0
C542 C 0.77203 0.61676 0.18457 0.0
C543 C 0.79321 0.63819 0.19677 0.0
O544 O 0.78932 0.68254 0.22067 0.0
O545 O 0.78935 0.66586 0.23925 0.0
O546 O 0.79092 0.6362 0.21172 0.0
O547 O 0.7891 0.65198 0.19243 0.0
H548 H 0.81846 0.67299 0.21602 0.0
H549 H 0.84745 0.67622 0.22351 0.0
H550 H 0.83979 0.69679 0.27092 0.0
H551 H 0.81084 0.69402 0.26309 0.0
H552 H 0.72499 0.68132 0.2544 0.0
H553 H 0.74795 0.67343 0.24057 0.0
H554 H 0.69261 0.65494 0.2159 0.0
H555 H 0.71549 0.64752 0.20214 0.0
H556 H 0.7549 0.59737 0.17396 0.0
H557 H 0.80209 0.59875 0.15738 0.0
H558 H 0.81068 0.62316 0.17566 0.0
H559 H 0.76358 0.62169 0.19217 0.0
C560 C 0.30472 0.03974 0.36573 0.0
C561 C 0.29202 0.03775 0.3753 0.0
C562 C 0.27286 0.0415 0.35275 0.0
C563 C 0.27624 0.03864 0.36887 0.0
C564 C 0.28568 0.04352 0.34322 0.0
C565 C 0.30149 0.04264 0.34968 0.0
U566 U 0.33308 0.03242 0.40096 0.0
O567 O 0.35451 0.0194 0.40293 0.0
O568 O 0.3564 0.04512 0.41119 0.0
C569 C 0.36409 0.03242 0.40832 0.0
C570 C 0.32128 0.0388 0.37257 0.0
C571 C 0.37866 0.03506 0.40015 0.0
C572 C 0.39226 0.03423 0.3759 0.0
C573 C 0.37813 0.0324 0.38338 0.0
C574 C 0.40749 0.04192 0.40182 0.0
C575 C 0.40715 0.03887 0.38505 0.0
C576 C 0.39337 0.04 0.40929 0.0
C577 C 0.31548 0.02229 0.43923 0.0
C578 C 0.33044 0.01114 0.46094 0.0
C579 C 0.30676 0.02442 0.46596 0.0
C580 C 0.30464 0.02731 0.44985 0.0
C581 C 0.31973 0.01639 0.47168 0.0
C582 C 0.32841 0.01417 0.44485 0.0
C583 C 0.31345 0.02615 0.42253 0.0
O584 O 0.32664 0.04999 0.38431 0.0
O585 O 0.32462 0.02438 0.37569 0.0
O586 O 0.31707 0.01518 0.41164 0.0
O587 O 0.31898 0.04081 0.42027 0.0
H588 H 0.29434 0.03554 0.38775 0.0
H589 H 0.26671 0.03725 0.3766 0.0
H590 H 0.28347 0.04554 0.33071 0.0
H591 H 0.31118 0.04416 0.34215 0.0
H592 H 0.39155 0.03157 0.36299 0.0
H593 H 0.36685 0.02864 0.37611 0.0
H594 H 0.41869 0.04576 0.40921 0.0
H595 H 0.39396 0.04221 0.42225 0.0
H596 H 0.34062 0.00507 0.46508 0.0
H597 H 0.29823 0.02847 0.47395 0.0
H598 H 0.29463 0.03362 0.44572 0.0
H599 H 0.33701 0.01034 0.43685 0.0
C600 C 0.21427 0.99362 0.72322 0.0
C601 C 0.2229 0.0084 0.72929 0.0
C602 C 0.24592 1.00133 0.71571 0.0
C603 C 0.2385 0.01225 0.72549 0.0
C604 C 0.23729 0.98656 0.70955 0.0
C605 C 0.22156 0.98276 0.71324 0.0
U606 U 0.18853 0.99282 0.75698 0.0
O607 O 0.16422 0.9992 0.76001 0.0
O608 O 0.17024 0.97486 0.76375 0.0
C609 C 0.15898 0.98469 0.76305 0.0
C610 C 0.19832 0.98905 0.72839 0.0
C611 C 0.14332 0.97814 0.75462 0.0
C612 C 0.12451 0.97329 0.7305 0.0
C613 C 0.14011 0.97785 0.73791 0.0
C614 C 0.11544 0.96874 0.75637 0.0
C615 C 0.11191 0.96898 0.73971 0.0
C616 C 0.13099 0.97327 0.76372 0.0
C617 C 0.21019 0.01063 0.79783 0.0
C618 C 0.19804 0.02157 0.82103 0.0
C619 C 0.22526 0.01419 0.82417 0.0
C620 C 0.22426 0.00938 0.80775 0.0
C621 C 0.2122 0.02043 0.83098 0.0
C622 C 0.197 0.01662 0.80458 0.0
C623 C 0.20975 0.0059 0.78051 0.0
O624 O 0.1979 0.97756 0.73798 0.0
O625 O 0.19033 1.00107 0.73312 0.0
O626 O 0.20135 0.0143 0.77102 0.0
O627 O 0.20765 0.99039 0.7761 0.0
H628 H 0.21774 0.0169 0.73728 0.0
H629 H 0.24492 0.02362 0.73058 0.0
H630 H 0.24272 0.97797 0.70189 0.0
H631 H 0.2152 0.97124 0.70856 0.0
H632 H 0.12225 0.97344 0.71763 0.0
H633 H 0.14953 0.98157 0.73069 0.0
H634 H 0.10605 0.96577 0.7639 0.0
H635 H 0.13325 0.97351 0.77665 0.0
H636 H 0.18775 0.02619 0.82598 0.0
H637 H 0.23639 0.01336 0.8315 0.0
H638 H 0.23456 0.00481 0.80274 0.0
H639 H 0.18597 0.01757 0.79713 0.0
C640 C 0.65892 0.69474 0.36216 0.0
C641 C 0.65757 0.68739 0.37637 0.0
C642 C 0.67082 0.66483 0.36561 0.0
C643 C 0.66354 0.67264 0.3781 0.0
C644 C 0.67216 0.67221 0.35138 0.0
C645 C 0.66631 0.68708 0.34971 0.0
U646 U 0.62538 0.72083 0.36829 0.0
O647 O 0.62537 0.74655 0.37566 0.0
O648 O 0.61319 0.7362 0.35226 0.0
C649 C 0.61788 0.74933 0.36193 0.0
C650 C 0.6519 0.7099 0.35992 0.0
C651 C 0.62526 0.76295 0.35454 0.0
C652 C 0.64802 0.77649 0.34371 0.0
C653 C 0.64066 0.76283 0.34943 0.0
C654 C 0.62446 0.7903 0.34779 0.0
C655 C 0.64009 0.79048 0.34304 0.0
C656 C 0.61713 0.77666 0.35348 0.0
C657 C 0.59077 0.70378 0.39044 0.0
C658 C 0.5633 0.71075 0.38871 0.0
C659 C 0.57371 0.69753 0.41128 0.0
C660 C 0.58849 0.69735 0.40495 0.0
C661 C 0.56089 0.70404 0.40312 0.0
C662 C 0.57813 0.71069 0.38246 0.0
C663 C 0.60622 0.70272 0.38367 0.0
O664 O 0.63855 0.70845 0.35021 0.0
O665 O 0.65135 0.71954 0.37307 0.0
O666 O 0.61838 0.71248 0.39096 0.0
O667 O 0.6057 0.70167 0.36792 0.0
H668 H 0.65167 0.69291 0.38606 0.0
H669 H 0.66208 0.66713 0.38909 0.0
H670 H 0.67775 0.66649 0.34158 0.0
H671 H 0.66736 0.6925 0.33861 0.0
H672 H 0.65999 0.77616 0.34001 0.0
H673 H 0.64709 0.7523 0.35018 0.0
H674 H 0.61809 0.80091 0.3477 0.0
H675 H 0.60527 0.77697 0.35747 0.0
H676 H 0.55369 0.71604 0.38227 0.0
H677 H 0.57218 0.69217 0.42234 0.0
H678 H 0.59811 0.69197 0.41128 0.0
H679 H 0.57965 0.71588 0.37132 0.0
C680 C 0.71832 0.21396 1.00098 0.0
C681 C 0.72582 0.22362 0.01465 0.0
C682 C 0.71014 0.24544 0.00818 0.0
C683 C 0.72171 0.23913 0.01825 0.0
C684 C 0.70254 0.23573 0.99453 0.0
C685 C 0.70658 0.22009 0.99097 0.0
U686 U 0.75342 0.19055 1.00065 0.0
O687 O 0.75817 0.16659 0.00696 0.0
O688 O 0.76182 0.17323 0.9828 0.0
C689 C 0.76172 0.16183 0.9925 0.0
C690 C 0.72407 0.1983 0.99642 0.0
C691 C 0.75415 0.14592 0.98568 0.0
C692 C 0.73065 0.1265 0.97903 0.0
C693 C 0.73742 0.14224 0.98402 0.0
C694 C 0.75726 0.1182 0.97684 0.0
C695 C 0.74053 0.11423 0.97565 0.0
C696 C 0.76398 0.13389 0.98181 0.0
C697 C 0.79232 0.21597 0.01924 0.0
C698 C 0.81856 0.20618 0.02278 0.0
C699 C 0.81564 0.23431 0.02976 0.0
C700 C 0.79919 0.23142 0.02515 0.0
C701 C 0.82554 0.22176 0.02851 0.0
C702 C 0.80203 0.2033 0.01812 0.0
C703 C 0.77506 0.21352 0.01418 0.0
O704 O 0.73376 0.19843 0.98503 0.0
O705 O 0.7292 0.1906 0.00851 0.0
O706 O 0.7665 0.20398 0.02238 0.0
O707 O 0.77102 0.21109 0.9986 0.0
H708 H 0.73519 0.21934 0.02237 0.0
H709 H 0.72801 0.24637 0.02868 0.0
H710 H 0.69354 0.24026 0.98657 0.0
H711 H 0.70083 0.21292 0.98024 0.0
H712 H 0.71772 0.12389 0.97807 0.0
H713 H 0.72965 0.15143 0.98696 0.0
H714 H 0.76527 0.10906 0.97462 0.0
H715 H 0.77693 0.13652 0.98311 0.0
H716 H 0.82591 0.19631 0.0216 0.0
H717 H 0.82061 0.24638 0.03437 0.0
H718 H 0.79181 0.2413 0.02614 0.0
H719 H 0.79685 0.19128 0.01354 0.0
C720 C 0.23795 0.80142 0.67606 0.0
C721 C 0.22392 0.80912 0.67733 0.0
C722 C 0.23963 0.83527 0.68076 0.0
C723 C 0.22477 0.82584 0.67977 0.0
C724 C 0.2537 0.82748 0.68001 0.0
C725 C 0.25285 0.81072 0.67771 0.0
U726 U 0.21828 0.76521 0.64945 0.0
O727 O 0.228 0.74515 0.63629 0.0
O728 O 0.21112 0.74032 0.6541 0.0
C729 C 0.22079 0.73433 0.64424 0.0
C730 C 0.23704 0.78396 0.67147 0.0
C731 C 0.23086 0.72241 0.65038 0.0
C732 C 0.25634 0.71505 0.66208 0.0
C733 C 0.24655 0.72684 0.65769 0.0
C734 C 0.23463 0.6944 0.65249 0.0
C735 C 0.25056 0.69867 0.6593 0.0
C736 C 0.2249 0.70617 0.64807 0.0
C737 C 0.1845 0.77278 0.61829 0.0
C738 C 0.17196 0.75214 0.59765 0.0
C739 C 0.16233 0.77846 0.5998 0.0
C740 C 0.17388 0.78341 0.61279 0.0
C741 C 0.16124 0.76277 0.59205 0.0
C742 C 0.18349 0.75711 0.61068 0.0
C743 C 0.19672 0.77832 0.63177 0.0
O744 O 0.224 0.77541 0.6746 0.0
O745 O 0.24124 0.77993 0.65708 0.0
O746 O 0.21166 0.77788 0.62851 0.0
O747 O 0.19404 0.77294 0.64556 0.0
H748 H 0.21223 0.80227 0.676 0.0
H749 H 0.21372 0.8314 0.68058 0.0
H750 H 0.26533 0.83432 0.68051 0.0
H751 H 0.2638 0.80503 0.67663 0.0
H752 H 0.2685 0.71873 0.66744 0.0
H753 H 0.25133 0.73936 0.65966 0.0
H754 H 0.22986 0.68192 0.64996 0.0
H755 H 0.21283 0.70254 0.64241 0.0
H756 H 0.17154 0.74003 0.59186 0.0
H757 H 0.15411 0.78686 0.59597 0.0
H758 H 0.1745 0.79555 0.61857 0.0
H759 H 0.19167 0.74877 0.61477 0.0
C760 C 0.37165 0.30574 0.03197 0.0
C761 C 0.3789 0.29347 0.02387 0.0
C762 C 0.35783 0.27367 0.0297 0.0
C763 C 0.37206 0.2776 0.02273 0.0
C764 C 0.35062 0.28603 0.03789 0.0
C765 C 0.35749 0.30197 0.03899 0.0
U766 U 0.40694 0.33378 0.02505 0.0
O767 O 0.4093 0.35744 0.01602 0.0
O768 O 0.4203 0.35443 0.04014 0.0
C769 C 0.41699 0.36449 0.02954 0.0
C770 C 0.37923 0.32232 0.03337 0.0
C771 C 0.41091 0.37941 0.03566 0.0
C772 C 0.38932 0.39393 0.04492 0.0
C773 C 0.39549 0.3794 0.04073 0.0
C774 C 0.41416 0.4085 0.03951 0.0
C775 C 0.39848 0.40866 0.04404 0.0
C776 C 0.4203 0.39399 0.03536 0.0
C777 C 0.44102 0.31571 0.00573 0.0
C778 C 0.46709 0.33076 0.00578 0.0
C779 C 0.46119 0.30474 0.99032 0.0
C780 C 0.44577 0.30346 0.99532 0.0
C781 C 0.47214 0.31828 0.99572 0.0
C782 C 0.45165 0.3295 0.01069 0.0
C783 C 0.42515 0.31386 0.01162 0.0
O784 O 0.39233 0.32511 0.04345 0.0
O785 O 0.38079 0.32828 0.01963 0.0
O786 O 0.41381 0.32035 0.00343 0.0
O787 O 0.42511 0.31677 0.02726 0.0
H788 H 0.38994 0.29617 0.01851 0.0
H789 H 0.37807 0.26836 0.01659 0.0
H790 H 0.3396 0.28339 0.04328 0.0
H791 H 0.35179 0.31132 0.04534 0.0
H792 H 0.37727 0.39363 0.04852 0.0
H793 H 0.3881 0.36819 0.04103 0.0
H794 H 0.42146 0.41958 0.03844 0.0
H795 H 0.43221 0.39418 0.03139 0.0
H796 H 0.47524 0.34125 0.01037 0.0
H797 H 0.46459 0.29503 0.98237 0.0
H798 H 0.43763 0.29279 0.99126 0.0
H799 H 0.44812 0.33913 0.01866 0.0
C800 C 0.33909 0.64295 0.68532 0.0
C801 C 0.34801 0.63455 0.67472 0.0
C802 C 0.34078 0.65152 0.65382 0.0
C803 C 0.34893 0.63884 0.65919 0.0
C804 C 0.33197 0.66003 0.6646 0.0
C805 C 0.33107 0.65572 0.68021 0.0
U806 U 0.35271 0.61613 0.71568 0.0
O807 O 0.36231 0.62067 0.74104 0.0
O808 O 0.34051 0.60403 0.73404 0.0
C809 C 0.35051 0.61158 0.74589 0.0
C810 C 0.33871 0.63851 0.70177 0.0
C811 C 0.34334 0.61824 0.76007 0.0
C812 C 0.33755 0.64084 0.77808 0.0
C813 C 0.3426 0.63481 0.76349 0.0
C814 C 0.33323 0.61378 0.78557 0.0
C815 C 0.33318 0.63041 0.78945 0.0
C816 C 0.33829 0.60779 0.77105 0.0
C817 C 0.37976 0.58467 0.70136 0.0
C818 C 0.39815 0.57142 0.71847 0.0
C819 C 0.38981 0.55999 0.69111 0.0
C820 C 0.3804 0.5726 0.68886 0.0
C821 C 0.39886 0.55925 0.70593 0.0
C822 C 0.38864 0.58397 0.71623 0.0
C823 C 0.36989 0.59791 0.6986 0.0
O824 O 0.33136 0.62422 0.70288 0.0
O825 O 0.35258 0.6413 0.71065 0.0
O826 O 0.37553 0.61203 0.70604 0.0
O827 O 0.35437 0.59459 0.6991 0.0
H828 H 0.3544 0.62472 0.67852 0.0
H829 H 0.3562 0.63227 0.65145 0.0
H830 H 0.32553 0.66983 0.6609 0.0
H831 H 0.32414 0.66235 0.68827 0.0
H832 H 0.33774 0.65371 0.78072 0.0
H833 H 0.34642 0.64311 0.75515 0.0
H834 H 0.32966 0.6054 0.79393 0.0
H835 H 0.33872 0.59496 0.7686 0.0
H836 H 0.40508 0.57137 0.72998 0.0
H837 H 0.3898 0.55069 0.68129 0.0
H838 H 0.37356 0.5729 0.67732 0.0
H839 H 0.38828 0.59315 0.72608 0.0
C840 C 0.96316 0.72961 0.22196 0.0
C841 C 0.97621 0.73779 0.23202 0.0
C842 C 0.96773 0.72438 0.25464 0.0
C843 C 0.97851 0.73515 0.24814 0.0
C844 C 0.9546 0.7162 0.24458 0.0
C845 C 0.95235 0.71879 0.22832 0.0
U846 U 0.97028 0.75976 0.19328 0.0
O847 O 0.97786 0.75887 0.16901 0.0
O848 O 0.95499 0.76824 0.17369 0.0
C849 C 0.96468 0.76428 0.16291 0.0
C850 C 0.96041 0.73344 0.20526 0.0
C851 C 0.95722 0.75606 0.14741 0.0
C852 C 0.95442 0.7334 0.12682 0.0
C853 C 0.95914 0.73995 0.14267 0.0
C854 C 0.94488 0.75863 0.12062 0.0
C855 C 0.94771 0.74284 0.11548 0.0
C856 C 0.94962 0.76516 0.13642 0.0
C857 C 0.99459 0.79876 0.21234 0.0
C858 C 0.00641 0.81935 0.19733 0.0
C859 C 0.00468 0.82494 0.22589 0.0
C860 C 0.99746 0.8094 0.22635 0.0
C861 C 0.00919 0.83011 0.21137 0.0
C862 C 0.99908 0.80379 0.19779 0.0
C863 C 0.98679 0.78256 0.2132 0.0
O864 O 0.95129 0.74512 0.2033 0.0
O865 O 0.97339 0.73482 0.19768 0.0
O866 O 0.99334 0.77075 0.20581 0.0
O867 O 0.97104 0.78101 0.21081 0.0
H868 H 0.98453 0.74644 0.22745 0.0
H869 H 0.98856 0.74184 0.25563 0.0
H870 H 0.94614 0.70778 0.24926 0.0
H871 H 0.9421 0.71252 0.22078 0.0
H872 H 0.95658 0.72114 0.12329 0.0
H873 H 0.9649 0.73265 0.15099 0.0
H874 H 0.93995 0.76633 0.11221 0.0
H875 H 0.94809 0.77763 0.13983 0.0
H876 H 0.00964 0.82306 0.18596 0.0
H877 H 0.00685 0.8329 0.23694 0.0
H878 H 0.99409 0.80568 0.23767 0.0
H879 H 0.99686 0.79572 0.18682 0.0
C880 C 0.67988 0.24179 0.80549 0.0
C881 C 0.66959 0.23229 0.81381 0.0
C882 C 0.68368 0.2442 0.83934 0.0
C883 C 0.67144 0.23349 0.83054 0.0
C884 C 0.69417 0.25353 0.83092 0.0
C885 C 0.69226 0.25234 0.81409 0.0
U886 U 0.65526 0.22269 0.76842 0.0
O887 O 0.64393 0.23223 0.74727 0.0
O888 O 0.66116 0.21436 0.74423 0.0
C889 C 0.65212 0.22419 0.73727 0.0
C890 C 0.67713 0.24087 0.78791 0.0
C891 C 0.65933 0.23347 0.72533 0.0
C892 C 0.6732 0.25789 0.71786 0.0
C893 C 0.66807 0.24853 0.7297 0.0
C894 C 0.6615 0.23689 0.69726 0.0
C895 C 0.66969 0.25229 0.70147 0.0
C896 C 0.65637 0.2276 0.70909 0.0
C897 C 0.62153 0.19115 0.77528 0.0
C898 C 0.60117 0.17926 0.75407 0.0
C899 C 0.60147 0.17024 0.78064 0.0
C900 C 0.61491 0.18115 0.78588 0.0
C901 C 0.59443 0.1692 0.76468 0.0
C902 C 0.61465 0.19014 0.75933 0.0
C903 C 0.63541 0.20276 0.78114 0.0
O904 O 0.67993 0.22717 0.78034 0.0
O905 O 0.66346 0.24582 0.7825 0.0
O906 O 0.63317 0.21786 0.77994 0.0
O907 O 0.6493 0.19901 0.77673 0.0
H908 H 0.65992 0.22412 0.80734 0.0
H909 H 0.66294 0.22635 0.83656 0.0
H910 H 0.70381 0.26178 0.83731 0.0
H911 H 0.70032 0.25975 0.80783 0.0
H912 H 0.67963 0.26961 0.7215 0.0
H913 H 0.6705 0.25323 0.74223 0.0
H914 H 0.65836 0.23229 0.68479 0.0
H915 H 0.64959 0.21602 0.70551 0.0
H916 H 0.59614 0.1786 0.74166 0.0
H917 H 0.59645 0.1628 0.78915 0.0
H918 H 0.62006 0.18184 0.79826 0.0
H919 H 0.61968 0.19779 0.75098 0.0
C920 C 0.0399 0.36197 0.29859 0.0
C921 C 0.03983 0.37117 0.28551 0.0
C922 C 0.04458 0.34786 0.26785 0.0
C923 C 0.04217 0.3642 0.27029 0.0
C924 C 0.04449 0.33864 0.28099 0.0
C925 C 0.0422 0.34567 0.29626 0.0
U926 U 0.03093 0.39845 0.32412 0.0
O927 O 0.01657 0.40173 0.34447 0.0
O928 O 0.04233 0.41 0.34751 0.0
C929 C 0.02909 0.4077 0.35451 0.0
C930 C 0.03775 0.36953 0.3146 0.0
C931 C 0.03081 0.40059 0.36981 0.0
C932 C 0.03033 0.37739 0.38498 0.0
C933 C 0.02929 0.3839 0.37025 0.0
C934 C 0.03485 0.4042 0.39894 0.0
C935 C 0.033 0.38747 0.39952 0.0
C936 C 0.03374 0.41068 0.38421 0.0
C937 C 0.02278 0.43535 0.30289 0.0
C938 C 0.0194 0.46075 0.31777 0.0
C939 C 0.0188 0.45875 0.28876 0.0
C940 C 0.02111 0.4425 0.28852 0.0
C941 C 0.01817 0.46812 0.30341 0.0
C942 C 0.02171 0.44449 0.3175 0.0
C943 C 0.02628 0.41858 0.30252 0.0
O944 O 0.04875 0.38135 0.32022 0.0
O945 O 0.02307 0.37293 0.31658 0.0
O946 O 0.01477 0.40846 0.30641 0.0
O947 O 0.04056 0.41645 0.30925 0.0
H948 H 0.03798 0.38378 0.28709 0.0
H949 H 0.04191 0.37156 0.26039 0.0
H950 H 0.04641 0.32606 0.27951 0.0
H951 H 0.0423 0.33841 0.30625 0.0
H952 H 0.02865 0.36447 0.38496 0.0
H953 H 0.02706 0.37591 0.35922 0.0
H954 H 0.03716 0.41231 0.40987 0.0
H955 H 0.03504 0.4236 0.38407 0.0
H956 H 0.01916 0.46767 0.32925 0.0
H957 H 0.01769 0.46402 0.2775 0.0
H958 H 0.02185 0.43557 0.27714 0.0
H959 H 0.02301 0.43911 0.32871 0.0
H960 H 0.31364 0.53886 0.64509 0.0
H961 H 0.31686 0.51898 0.59651 0.0
H962 H 0.31929 0.57 0.60784 0.0
H963 H 0.29916 0.49897 0.60524 0.0
C964 C 0.30614 0.49758 0.61648 0.0
C965 C 0.31506 0.54053 0.63266 0.0
C966 C 0.31688 0.5561 0.62786 0.0
C967 C 0.31478 0.52706 0.62139 0.0
C968 C 0.3166 0.52926 0.60521 0.0
C969 C 0.31852 0.54476 0.60029 0.0
C970 C 0.31858 0.55803 0.6117 0.0
N971 N 0.31303 0.51146 0.62663 0.0
H972 H 0.33051 0.56022 0.00459 0.0
H973 H 0.30067 0.55576 0.95945 0.0
H974 H 0.32374 0.51548 0.9749 0.0
H975 H 0.33203 0.58609 0.00221 0.0
C976 C 0.32139 0.58869 0.99499 0.0
C977 C 0.32531 0.55331 0.99354 0.0
C978 C 0.32851 0.53728 0.99078 0.0
C979 C 0.3155 0.56015 0.98203 0.0
C980 C 0.30836 0.55055 0.96818 0.0
C981 C 0.31141 0.53444 0.96539 0.0
C982 C 0.32158 0.528 0.97673 0.0
N983 N 0.31244 0.57654 0.98394 0.0
H984 H 0.69162 0.96514 0.3274 0.0
H985 H 0.68933 0.99736 0.36986 0.0
H986 H 0.68863 0.94666 0.37315 0.0
H987 H 0.67308 0.00909 0.34778 0.0
C988 C 0.68389 0.00995 0.34162 0.0
C989 C 0.69085 0.96712 0.34021 0.0
C990 C 0.69014 0.95406 0.34947 0.0
C991 C 0.69046 0.98276 0.34751 0.0
C992 C 0.68947 0.9853 0.36415 0.0
C993 C 0.68875 0.97233 0.37348 0.0
C994 C 0.68915 0.95677 0.36603 0.0
N995 N 0.69166 0.99593 0.33815 0.0
H996 H 0.72019 0.93249 0.96599 0.0
H997 H 0.74509 0.91264 0.0055 0.0
H998 H 0.74025 0.96314 0.00826 0.0
H999 H 0.75094 0.89512 0.98366 0.0
C1000 C 0.73855 0.89241 0.97845 0.0
C1001 C 0.72686 0.93407 0.97779 0.0
C1002 C 0.72966 0.94937 0.98636 0.0
C1003 C 0.73255 0.92075 0.98453 0.0
C1004 C 0.74097 0.92286 1.0 0.0
C1005 C 0.74394 0.93814 0.00856 0.0
C1006 C 0.73822 0.9513 1.00164 0.0
N1007 N 0.729 0.90523 0.97598 0.0
H1008 H 0.64933 0.31291 0.5416 0.0
H1009 H 0.59967 0.31415 0.52404 0.0
H1010 H 0.61373 0.31825 0.5747 0.0
H1011 H 0.60704 0.29934 0.50271 0.0
C1012 C 0.61885 0.30509 0.50123 0.0
C1013 C 0.63699 0.31403 0.54387 0.0
C1014 C 0.633 0.31609 0.55973 0.0
C1015 C 0.62506 0.31312 0.53088 0.0
C1016 C 0.60897 0.31442 0.53388 0.0
C1017 C 0.60484 0.31643 0.54968 0.0
C1018 C 0.61694 0.31735 0.56248 0.0
N1019 N 0.62961 0.31114 0.51498 0.0
H1020 H 0.95138 0.73453 0.93492 0.0
H1021 H 0.99673 0.74479 0.9161 0.0
H1022 H 0.99394 0.75043 0.96697 0.0
H1023 H 0.97841 0.75407 0.89622 0.0
C1024 C 0.97059 0.74287 0.89434 0.0
C1025 C 0.96413 0.7384 0.93686 0.0
C1026 C 0.9716 0.74257 0.95253 0.0
C1027 C 0.97302 0.73977 0.92363 0.0
C1028 C 0.98965 0.74451 0.9262 0.0
C1029 C 0.99734 0.74811 0.94183 0.0
C1030 C 0.98814 0.74739 0.95485 0.0
N1031 N 0.96521 0.73578 0.90784 0.0
H1032 H 1.00112 0.31917 0.55541 0.0
H1033 H 0.96016 0.2838 0.55372 0.0
H1034 H 0.98002 0.29485 0.51031 0.0
H1035 H 0.99858 0.32357 0.58104 0.0
C1036 C 0.99098 0.3139 0.58501 0.0
C1037 C 0.99205 0.31045 0.54884 0.0
C1038 C 0.99188 0.30787 0.53208 0.0
C1039 C 0.98068 0.30157 0.55677 0.0
C1040 C 0.96901 0.29049 0.54768 0.0
C1041 C 0.9688 0.28789 0.53094 0.0
C1042 C 0.98039 0.29649 0.52329 0.0
N1043 N 0.9807 0.30297 0.57377 0.0
H1044 H 0.32446 0.69111 0.96377 0.0
H1045 H 0.36807 0.6962 0.99573 0.0
H1046 H 0.3702 0.689 0.94484 0.0
H1047 H 0.3482 0.68018 0.01009 0.0
C1048 C 0.34072 0.69003 0.00961 0.0
C1049 C 0.33743 0.69148 0.96558 0.0
C1050 C 0.34639 0.68992 0.9523 0.0
C1051 C 0.34518 0.69343 0.98126 0.0
C1052 C 0.36201 0.69412 0.98366 0.0
C1053 C 0.37112 0.69284 0.97056 0.0
C1054 C 0.36321 0.69062 0.95496 0.0
N1055 N 0.33605 0.69545 0.99453 0.0
H1056 H 0.54329 0.64094 0.28942 0.0
H1057 H 0.52603 0.59245 0.29625 0.0
H1058 H 0.57664 0.60619 0.29824 0.0
H1059 H 0.50462 0.5986 0.27971 0.0
C1060 C 0.50308 0.6104 0.28545 0.0
C1061 C 0.54564 0.62888 0.29174 0.0
C1062 C 0.56154 0.62501 0.29403 0.0
C1063 C 0.53273 0.61718 0.29233 0.0
C1064 C 0.53583 0.6015 0.29532 0.0
C1065 C 0.55166 0.59748 0.29758 0.0
C1066 C 0.5644 0.60934 0.29701 0.0
N1067 N 0.51678 0.62159 0.29041 0.0
H1068 H 0.93125 0.96031 0.71841 0.0
H1069 H 0.9088 0.99932 0.74087 0.0
H1070 H 0.95898 0.00547 0.73447 0.0
H1071 H 0.89343 0.97657 0.74891 0.0
C1072 C 0.89062 0.97101 0.73664 0.0
C1073 C 0.93206 0.97249 0.72413 0.0
C1074 C 0.94677 0.98218 0.72593 0.0
C1075 C 0.91831 0.97856 0.72959 0.0
C1076 C 0.91939 0.99445 0.73686 0.0
C1077 C 0.93404 0.00422 0.73877 0.0
C1078 C 0.94763 0.99798 0.73322 0.0
N1079 N 0.90334 0.96887 0.72688 0.0
H1080 H 0.55985 0.01058 0.31105 0.0
H1081 H 0.56108 0.96756 0.27909 0.0
H1082 H 0.51597 0.98432 0.2893 0.0
H1083 H 0.58564 0.01011 0.31597 0.0
C1084 C 0.59024 0.00228 0.3069 0.0
C1085 C 0.55388 1.00046 0.30321 0.0
C1086 C 0.53704 0.99875 0.30091 0.0
C1087 C 0.56267 0.98925 0.29519 0.0
C1088 C 0.55436 0.97625 0.28515 0.0
C1089 C 0.53751 0.97446 0.28282 0.0
C1090 C 0.52899 0.98587 0.29063 0.0
N1091 N 0.57976 0.99069 0.29654 0.0
H1092 H 0.96579 0.32488 0.69371 0.0
H1093 H 0.99908 0.36749 0.69904 0.0
H1094 H 0.94862 0.37114 0.68934 0.0
H1095 H 0.01341 0.34685 0.68433 0.0
C1096 C 0.01221 0.33949 0.6942 0.0
C1097 C 0.96805 0.33778 0.69376 0.0
C1098 C 0.95517 0.34713 0.69129 0.0
C1099 C 0.98391 0.34505 0.69622 0.0
C1100 C 0.98689 0.3618 0.69653 0.0
C1101 C 0.97419 0.3713 0.69435 0.0
C1102 C 0.95841 0.36386 0.69161 0.0
N1103 N 0.99674 0.33554 0.69911 0.0
H1104 H 0.71854 0.47016 0.36572 0.0
H1105 H 0.70262 0.48023 0.41253 0.0
H1106 H 0.71461 0.43306 0.39743 0.0
H1107 H 0.68784 0.49696 0.39875 0.0
C1108 C 0.69655 0.50235 0.39155 0.0
C1109 C 0.71561 0.46622 0.3771 0.0
C1110 C 0.71701 0.45027 0.38018 0.0
C1111 C 0.70986 0.47698 0.38846 0.0
C1112 C 0.70644 0.4719 0.4034 0.0
C1113 C 0.70801 0.45602 0.40666 0.0
C1114 C 0.7131 0.44527 0.3949 0.0
N1115 N 0.70772 0.49281 0.38461 0.0
H1116 H 0.67568 0.4389 0.02072 0.0
H1117 H 0.71057 0.44337 0.06229 0.0
H1118 H 0.69917 0.48518 0.03955 0.0
H1119 H 0.66831 0.41459 0.02933 0.0
C1120 C 0.67939 0.41078 0.03472 0.0
C1121 C 0.68408 0.44616 0.02964 0.0
C1122 C 0.68659 0.46278 0.02875 0.0
C1123 C 0.69286 0.43911 0.04178 0.0
C1124 C 0.70383 0.44884 0.05301 0.0
C1125 C 0.70623 0.46547 0.0523 0.0
C1126 C 0.69766 0.47229 0.04004 0.0
N1127 N 0.69168 0.42227 0.04273 0.0
H1128 H 0.29946 0.03954 0.677 0.0
H1129 H 0.2957 0.99995 0.6402 0.0
H1130 H 0.32954 0.04118 0.6385 0.0
H1131 H 0.26578 0.00411 0.64768 0.0
C1132 C 0.27099 1.00078 0.65906 0.0
C1133 C 0.30354 0.03391 0.66623 0.0
C1134 C 0.31575 0.04196 0.65881 0.0
C1135 C 0.29629 0.01878 0.65956 0.0
C1136 C 0.30123 0.01169 0.6453 0.0
C1137 C 0.31333 0.01963 0.63766 0.0
C1138 C 0.32068 0.03464 0.64466 0.0
N1139 N 0.28439 0.01054 0.66751 0.0
H1140 H 0.29379 0.06896 0.03466 0.0
H1141 H 0.27751 0.09182 0.99327 0.0
H1142 H 0.25792 0.04396 0.99889 0.0
H1143 H 0.30679 0.09925 0.99717 0.0
C1144 C 0.30587 0.10478 0.00923 0.0
C1145 C 0.286 0.06873 0.02361 0.0
C1146 C 0.27537 0.05503 0.01804 0.0
C1147 C 0.28695 0.08196 0.0146 0.0
C1148 C 0.277 0.08153 1.00012 0.0
C1149 C 0.26637 0.06792 0.99442 0.0
C1150 C 0.26556 0.05481 0.00354 0.0
N1151 N 0.29798 0.09563 0.02011 0.0
H1152 H 0.35881 0.70687 0.46329 0.0
H1153 H 0.40508 0.69244 0.47901 0.0
H1154 H 0.39563 0.70607 0.43125 0.0
H1155 H 0.38731 0.67489 0.4917 0.0
C1156 C 0.3803 0.68386 0.49694 0.0
C1157 C 0.37091 0.70468 0.46093 0.0
C1158 C 0.37602 0.70678 0.44581 0.0
C1159 C 0.38117 0.69905 0.47281 0.0
C1160 C 0.39697 0.69638 0.46975 0.0
C1161 C 0.40232 0.69886 0.45474 0.0
C1162 C 0.39166 0.70391 0.44283 0.0
N1163 N 0.37534 0.69619 0.48773 0.0
H1164 H 0.04056 0.28149 0.0691 0.0
H1165 H 0.99799 0.26478 0.08993 0.0
H1166 H 0.99593 0.26906 0.0393 0.0
H1167 H 0.04769 0.29368 0.09449 0.0
C1168 C 0.04165 0.28673 0.10283 0.0
C1169 C 0.02789 0.27736 0.06788 0.0
C1170 C 0.01911 0.27587 0.05265 0.0
C1171 C 0.02016 0.27348 0.08141 0.0
C1172 C 0.00388 0.26764 0.07947 0.0
C1173 C 0.99497 0.26633 0.06439 0.0
C1174 C 0.00269 0.27043 0.05107 0.0
N1175 N 0.02806 0.27562 0.09725 0.0
H1176 H 0.99039 0.686 0.44889 0.0
H1177 H 0.03305 0.71934 0.45184 0.0
H1178 H 0.02065 0.69643 0.49326 0.0
H1179 H 0.99446 0.68277 0.42274 0.0
C1180 C 0.99885 0.69465 0.41999 0.0
C1181 C 1.00113 0.69226 0.45559 0.0
C1182 C 0.00451 0.68984 0.47178 0.0
C1183 C 0.01163 0.70269 0.44823 0.0
C1184 C 0.02513 0.71111 0.45741 0.0
C1185 C 0.02837 0.70903 0.47373 0.0
C1186 C 0.01809 0.69826 0.48072 0.0
N1187 N 0.00877 0.70529 0.43179 0.0
H1188 H 0.67338 0.2909 0.04536 0.0
H1189 H 0.63702 0.2881 0.00556 0.0
H1190 H 0.63876 0.32528 0.04472 0.0
H1191 H 0.6449 0.25659 0.00787 0.0
C1192 C 0.65544 0.26378 0.00497 0.0
C1193 C 0.66322 0.29569 0.03937 0.0
C1194 C 0.65695 0.30903 0.04677 0.0
C1195 C 0.6563 0.28833 0.02438 0.0
C1196 C 0.64263 0.29409 0.01693 0.0
C1197 C 0.63607 0.30735 0.02424 0.0
C1198 C 0.64364 0.31502 0.03895 0.0
N1199 N 0.66372 0.27566 0.01669 0.0
H1200 H 0.47458 0.36715 0.72289 0.0
H1201 H 0.49162 0.41373 0.71016 0.0
H1202 H 0.44789 0.40757 0.73243 0.0
H1203 H 0.50095 0.39662 0.68961 0.0
C1204 C 0.50636 0.38847 0.6973 0.0
C1205 C 0.47314 0.37978 0.72246 0.0
C1206 C 0.45991 0.38623 0.72865 0.0
C1207 C 0.48451 0.38954 0.71558 0.0
C1208 C 0.48271 0.406 0.71507 0.0
C1209 C 0.46967 0.41263 0.72148 0.0
C1210 C 0.45834 0.40262 0.72811 0.0
N1211 N 0.49793 0.38264 0.70979 0.0
H1212 H 0.07689 0.03302 0.27288 0.0
H1213 H 0.09794 0.99219 0.25205 0.0
H1214 H 0.04716 0.99484 0.24378 0.0
H1215 H 0.09984 0.03674 0.28943 0.0
C1216 C 0.10912 0.03131 0.28334 0.0
C1217 C 0.07573 0.02156 0.26566 0.0
C1218 C 0.0605 0.01508 0.25831 0.0
C1219 C 0.08931 0.01328 0.26332 0.0
C1220 C 0.08749 0.99856 0.25371 0.0
C1221 C 0.07234 0.99188 0.24654 0.0
C1222 C 0.05898 1.00027 0.24881 0.0
N1223 N 0.10503 0.01917 0.2703 0.0
H1224 H 0.43563 0.01924 0.67275 0.0
H1225 H 0.44201 0.06355 0.70399 0.0
H1226 H 0.48285 0.03906 0.69297 0.0
H1227 H 0.41116 0.02739 0.66561 0.0
C1228 C 0.40796 0.03363 0.67657 0.0
C1229 C 0.44332 0.02871 0.68008 0.0
C1230 C 0.45995 0.02763 0.68203 0.0
C1231 C 0.43678 0.04171 0.6881 0.0
C1232 C 0.44705 0.05362 0.69778 0.0
C1233 C 0.46366 0.05267 0.6997 0.0
C1234 C 0.46996 0.03963 0.69184 0.0
N1235 N 0.41998 0.04279 0.68757 0.0
H1236 H 0.04949 0.68593 0.32165 0.0
H1237 H 0.01223 0.64701 0.32005 0.0
H1238 H 0.06141 0.63717 0.31971 0.0
H1239 H 0.01145 0.68483 0.32446 0.0
C1240 C 1.00212 0.67602 0.32698 0.0
C1241 C 0.0459 0.67315 0.32093 0.0
C1242 C 0.05754 0.6622 0.32061 0.0
C1243 C 0.02961 0.66776 0.32082 0.0
C1244 C 0.02479 0.65122 0.32002 0.0
C1245 C 0.03624 0.64011 0.31956 0.0
C1246 C 0.05253 0.64572 0.31981 0.0
N1247 N 0.01802 0.67961 0.32225 0.0
C1248 C 0.20366 0.67233 0.35225 0.0
C1249 C 0.20563 0.66313 0.3653 0.0
C1250 C 0.18838 0.67604 0.3466 0.0
C1251 C 0.14685 0.67711 0.35822 0.0
H1252 H 0.1344 0.67191 0.31233 0.0
C1253 C 0.08136 0.68041 0.33402 0.0
C1254 C 0.075 0.66773 0.32243 0.0
C1255 C 0.09798 0.68373 0.33773 0.0
C1256 C 0.13769 0.67344 0.32518 0.0
H1257 H 0.19303 0.65039 0.38242 0.0
H1258 H 0.16656 0.65676 0.3726 0.0
H1259 H 0.1622 0.66983 0.32245 0.0
H1260 H 0.08112 0.64956 0.30465 0.0
H1261 H 0.10996 0.65495 0.31143 0.0
H1262 H 0.12225 0.67976 0.36107 0.0
C1263 C 0.1768 0.66148 0.36695 0.0
C1264 C 0.15367 0.67242 0.33098 0.0
C1265 C 0.19201 0.6578 0.37259 0.0
C1266 C 0.08563 0.65922 0.31385 0.0
C1267 C 0.10222 0.66246 0.31762 0.0
C1268 C 0.13089 0.67806 0.35245 0.0
C1269 C 0.17476 0.67062 0.35387 0.0
C1270 C 0.15834 0.67381 0.34759 0.0
C1271 C 0.1086 0.6744 0.32999 0.0
C1272 C 0.126 0.67583 0.33587 0.0
H1273 H 0.21393 0.67673 0.34646 0.0
H1274 H 0.18723 0.68321 0.33658 0.0
H1275 H 0.15009 0.67854 0.37109 0.0
H1276 H 0.07352 0.6872 0.34087 0.0
H1277 H 0.10248 0.69322 0.3471 0.0
C1278 C 0.32582 0.34306 0.75485 0.0
C1279 C 0.32373 0.33467 0.76832 0.0
C1280 C 0.34088 0.34524 0.74921 0.0
C1281 C 0.38196 0.33298 0.75084 0.0
H1282 H 0.39381 0.37827 0.74815 0.0
C1283 C 0.43983 0.36182 0.72617 0.0
C1284 C 0.44713 0.37605 0.73505 0.0
C1285 C 0.42565 0.35411 0.7306 0.0
C1286 C 0.3907 0.36559 0.7489 0.0
H1287 H 0.33551 0.32083 0.78558 0.0
H1288 H 0.36194 0.32476 0.77572 0.0
H1289 H 0.3667 0.36923 0.75352 0.0
H1290 H 0.44628 0.39245 0.75635 0.0
H1291 H 0.42155 0.37911 0.76398 0.0
H1292 H 0.40619 0.32951 0.74617 0.0
C1293 C 0.35188 0.32964 0.76958 0.0
C1294 C 0.37512 0.36038 0.75179 0.0
C1295 C 0.3368 0.32752 0.77529 0.0
C1296 C 0.44074 0.38167 0.74912 0.0
C1297 C 0.42661 0.37405 0.75348 0.0
C1298 C 0.39759 0.3382 0.74769 0.0
C1299 C 0.35418 0.33905 0.75687 0.0
C1300 C 0.37058 0.34406 0.75287 0.0
C1301 C 0.41859 0.36058 0.74393 0.0
C1302 C 0.40212 0.3546 0.74692 0.0
H1303 H 0.31607 0.34883 0.74927 0.0
H1304 H 0.34228 0.3524 0.73927 0.0
H1305 H 0.37874 0.32033 0.75162 0.0
H1306 H 0.44447 0.35725 0.71525 0.0
H1307 H 0.41967 0.34374 0.72304 0.0
C1308 C 0.56285 0.97076 0.61214 0.0
C1309 C 0.57499 0.96759 0.62377 0.0
C1310 C 0.54746 0.97304 0.61631 0.0
C1311 C 0.52039 0.96835 0.64857 0.0
H1312 H 0.50283 0.00556 0.63272 0.0
C1313 C 0.4786 0.00628 0.68225 0.0
C1314 C 0.46741 0.01445 0.67361 0.0
C1315 C 0.48847 0.99652 0.67422 0.0
C1316 C 0.50731 0.9949 0.63698 0.0
H1317 H 0.58016 0.96361 0.64875 0.0
H1318 H 0.55346 0.96803 0.65612 0.0
H1319 H 0.52673 0.99631 0.62235 0.0
H1320 H 0.45687 0.01793 0.64987 0.0
H1321 H 0.47411 1.0007 0.63571 0.0
H1322 H 0.50127 0.96742 0.66372 0.0
C1323 C 0.55578 0.96856 0.64372 0.0
C1324 C 0.52107 0.98959 0.63105 0.0
C1325 C 0.57117 0.96624 0.63954 0.0
C1326 C 0.46538 0.01171 0.65679 0.0
C1327 C 0.47535 0.00199 0.64872 0.0
C1328 C 0.50662 0.97368 0.65453 0.0
C1329 C 0.54381 0.97227 0.63221 0.0
C1330 C 0.52803 0.97651 0.63706 0.0
C1331 C 0.48741 0.99477 0.65736 0.0
C1332 C 0.50016 0.98728 0.64911 0.0
H1333 H 0.56537 0.97205 0.59991 0.0
H1334 H 0.53849 0.97569 0.6071 0.0
H1335 H 0.52527 0.95804 0.65324 0.0
H1336 H 0.48034 0.00817 0.69525 0.0
H1337 H 0.49768 0.99127 0.68128 0.0
C1338 C 0.9217 0.03954 0.26587 0.0
C1339 C 0.91309 0.02544 0.2696 0.0
C1340 C 0.93851 0.04146 0.26815 0.0
C1341 C 0.97064 0.01621 0.26577 0.0
H1342 H 0.99961 0.05415 0.28177 0.0
C1343 C 0.03399 0.02334 0.24812 0.0
C1344 C 0.04573 0.02289 0.26106 0.0
C1345 C 0.01855 0.02687 0.25085 0.0
C1346 C 0.99159 0.04351 0.27732 0.0
H1347 H 0.91532 0.00307 0.28015 0.0
H1348 H 0.94461 0.00632 0.28381 0.0
H1349 H 0.9707 0.05378 0.28493 0.0
H1350 H 0.05097 0.02727 0.28692 0.0
H1351 H 0.0238 0.03377 0.29168 0.0
H1352 H 0.99123 0.00609 0.2577 0.0
C1353 C 0.93835 0.01577 0.27896 0.0
C1354 C 0.97514 0.04329 0.27909 0.0
C1355 C 0.9216 0.0139 0.27679 0.0
C1356 C 0.04216 0.02758 0.27672 0.0
C1357 C 0.02665 0.03126 0.27945 0.0
C1358 C 0.9869 0.01654 0.26375 0.0
C1359 C 0.94698 0.02929 0.27412 0.0
C1360 C 0.96453 0.02961 0.27331 0.0
C1361 C 0.01458 0.03021 0.26656 0.0
C1362 C 0.9975 0.0302 0.26939 0.0
H1363 H 0.91554 0.04862 0.26023 0.0
H1364 H 0.94488 0.05196 0.26425 0.0
H1365 H 0.96273 0.00559 0.261 0.0
H1366 H 0.03649 0.02002 0.23591 0.0
H1367 H 0.00945 0.02614 0.24073 0.0
C1368 C 0.3611 0.1858 0.66575 0.0
C1369 C 0.36288 0.18877 0.64979 0.0
C1370 C 0.35635 0.17027 0.66946 0.0
C1371 C 0.35591 0.1279 0.65314 0.0
H1372 H 0.32501 0.11906 0.68346 0.0
C1373 C 0.33886 0.06326 0.66553 0.0
C1374 C 0.32227 0.05871 0.66452 0.0
C1375 C 0.34478 0.07948 0.66736 0.0
C1376 C 0.33368 0.12134 0.67498 0.0
H1377 H 0.36018 0.17791 0.62514 0.0
H1378 H 0.35192 0.15097 0.63157 0.0
H1379 H 0.33277 0.14682 0.67858 0.0
H1380 H 0.29897 0.06746 0.66581 0.0
H1381 H 0.30923 0.09579 0.6688 0.0
H1382 H 0.35646 0.10255 0.64901 0.0
C1383 C 0.35457 0.16052 0.64129 0.0
C1384 C 0.33821 0.13725 0.67228 0.0
C1385 C 0.35929 0.17598 0.63759 0.0
C1386 C 0.31183 0.07065 0.66665 0.0
C1387 C 0.31773 0.08689 0.66835 0.0
C1388 C 0.35142 0.11207 0.65585 0.0
C1389 C 0.3533 0.1574 0.65728 0.0
C1390 C 0.34916 0.14068 0.6611 0.0
C1391 C 0.33422 0.0915 0.66807 0.0
C1392 C 0.34009 0.10853 0.66664 0.0
H1393 H 0.36388 0.19536 0.67544 0.0
H1394 H 0.35555 0.16825 0.68191 0.0
H1395 H 0.36458 0.13012 0.64465 0.0
H1396 H 0.34719 0.05426 0.66413 0.0
H1397 H 0.35759 0.08259 0.66752 0.0
C1398 C 0.26489 0.91421 0.00671 0.0
C1399 C 0.26251 0.90481 0.01942 0.0
C1400 C 0.26825 0.93082 0.00964 0.0
C1401 C 0.28194 0.96506 0.0395 0.0
H1402 H 0.25255 0.98695 0.01301 0.0
C1403 C 0.28948 0.03262 0.02847 0.0
C1404 C 0.27532 0.04013 0.02612 0.0
C1405 C 0.28872 0.01655 0.03171 0.0
C1406 C 0.26073 0.98105 0.02066 0.0
H1407 H 0.26287 0.90543 0.04531 0.0
H1408 H 0.26901 0.93462 0.05042 0.0
H1409 H 0.25076 0.95782 0.0099 0.0
H1410 H 0.24958 0.03746 0.02704 0.0
H1411 H 0.24827 0.00953 0.03292 0.0
H1412 H 0.29209 0.98853 0.05001 0.0
C1413 C 0.26818 0.92901 0.0382 0.0
C1414 C 0.25983 0.96436 0.01872 0.0
C1415 C 0.2647 0.91232 0.03526 0.0
C1416 C 0.26064 0.03186 0.02866 0.0
C1417 C 0.25989 0.01588 0.03194 0.0
C1418 C 0.28299 0.98189 0.0413 0.0
C1419 C 0.26944 0.93844 0.02535 0.0
C1420 C 0.27049 0.95619 0.02799 0.0
C1421 C 0.2738 0.00781 0.03266 0.0
C1422 C 0.27237 0.99003 0.03187 0.0
H1423 H 0.26367 0.90875 0.99442 0.0
H1424 H 0.26947 0.9378 0.99955 0.0
H1425 H 0.29029 0.959 0.04679 0.0
H1426 H 0.30093 0.03872 0.02646 0.0
H1427 H 0.29964 0.01063 0.03218 0.0
C1428 C 0.78413 0.33661 0.33707 0.0
C1429 C 0.77293 0.32303 0.33669 0.0
C1430 C 0.779 0.3519 0.3364 0.0
C1431 C 0.74248 0.37366 0.32929 0.0
H1432 H 0.7659 0.4056 0.36136 0.0
C1433 C 0.71394 0.42367 0.36388 0.0
C1434 C 0.72288 0.4386 0.36842 0.0
C1435 C 0.72057 0.41141 0.35524 0.0
C1436 C 0.7594 0.39698 0.35208 0.0
H1437 H 0.7475 0.31484 0.33412 0.0
H1438 H 0.73859 0.34144 0.33363 0.0
H1439 H 0.77683 0.38032 0.35503 0.0
H1440 H 0.74539 0.4528 0.36681 0.0
H1441 H 0.75717 0.4312 0.35176 0.0
H1442 H 0.72457 0.3901 0.32717 0.0
C1443 C 0.75135 0.34034 0.33423 0.0
C1444 C 0.76568 0.38244 0.34842 0.0
C1445 C 0.75647 0.32505 0.33476 0.0
C1446 C 0.73825 0.4414 0.36336 0.0
C1447 C 0.745 0.42903 0.35487 0.0
C1448 C 0.73614 0.38817 0.33308 0.0
C1449 C 0.76255 0.35402 0.33546 0.0
C1450 C 0.75708 0.37038 0.33733 0.0
C1451 C 0.73638 0.41377 0.35112 0.0
C1452 C 0.74432 0.39979 0.34484 0.0
H1453 H 0.79691 0.33556 0.33863 0.0
H1454 H 0.78797 0.36212 0.33709 0.0
H1455 H 0.7357 0.36482 0.32043 0.0
H1456 H 0.70205 0.42126 0.36766 0.0
H1457 H 0.71368 0.39976 0.35268 0.0
C1458 C 0.61582 0.56919 0.98453 0.0
C1459 C 0.62426 0.58074 0.97656 0.0
C1460 C 0.62155 0.55431 0.98624 0.0
C1461 C 0.65927 0.53572 0.98813 0.0
H1462 H 0.63144 0.49604 0.9867 0.0
C1463 C 0.6858 0.47914 0.00562 0.0
C1464 C 0.67751 0.47082 0.01653 0.0
C1465 C 0.67833 0.49016 0.99684 0.0
C1466 C 0.63936 0.50702 0.98718 0.0
H1467 H 0.64498 0.58538 0.96351 0.0
H1468 H 0.65504 0.55943 0.9666 0.0
H1469 H 0.62021 0.52029 0.97883 0.0
H1470 H 0.65478 0.46671 0.0263 0.0
H1471 H 0.64168 0.48622 0.01122 0.0
H1472 H 0.67828 0.52281 0.99703 0.0
C1473 C 0.64409 0.56199 0.9717 0.0
C1474 C 0.63294 0.52091 0.98267 0.0
C1475 C 0.63834 0.57688 0.96997 0.0
C1476 C 0.6613 0.47286 0.01776 0.0
C1477 C 0.65384 0.48405 0.00912 0.0
C1478 C 0.66567 0.5219 0.99268 0.0
C1479 C 0.63588 0.55062 0.98006 0.0
C1480 C 0.64279 0.53547 0.98333 0.0
C1481 C 0.66249 0.49331 0.99905 0.0
C1482 C 0.65578 0.50742 0.99248 0.0
H1483 H 0.60506 0.57184 0.98996 0.0
H1484 H 0.61507 0.54594 0.99297 0.0
H1485 H 0.66715 0.54678 0.98906 0.0
H1486 H 0.69836 0.47775 0.00456 0.0
H1487 H 0.68523 0.49678 0.98891 0.0
C1488 C 0.66013 0.34617 0.18878 0.0
C1489 C 0.66117 0.36264 0.19406 0.0
C1490 C 0.66348 0.34103 0.17324 0.0
C1491 C 0.66224 0.35481 0.13325 0.0
H1492 H 0.68478 0.31775 0.12247 0.0
C1493 C 0.66606 0.33248 0.06727 0.0
C1494 C 0.66312 0.31581 0.06333 0.0
C1495 C 0.6694 0.33892 0.08331 0.0
C1496 C 0.67836 0.32807 0.12526 0.0
H1497 H 0.66758 0.38655 0.18744 0.0
H1498 H 0.67314 0.37758 0.1603 0.0
H1499 H 0.68368 0.3274 0.15063 0.0
H1500 H 0.66204 0.29277 0.07293 0.0
H1501 H 0.66742 0.30392 0.10088 0.0
H1502 H 0.65626 0.35517 0.10808 0.0
C1503 C 0.66953 0.36867 0.16811 0.0
C1504 C 0.67777 0.3336 0.1414 0.0
C1505 C 0.66629 0.37379 0.18365 0.0
C1506 C 0.66441 0.30567 0.07563 0.0
C1507 C 0.66753 0.3121 0.09168 0.0
C1508 C 0.66269 0.3492 0.11716 0.0
C1509 C 0.66785 0.35225 0.16262 0.0
C1510 C 0.66956 0.34693 0.14556 0.0
C1511 C 0.66962 0.32882 0.09578 0.0
C1512 C 0.67059 0.33564 0.11291 0.0
H1513 H 0.65609 0.33725 0.19641 0.0
H1514 H 0.66194 0.3283 0.1693 0.0
H1515 H 0.6556 0.36496 0.13607 0.0
H1516 H 0.66533 0.34055 0.05797 0.0
H1517 H 0.67135 0.35184 0.08596 0.0
C1518 C 0.02205 0.27728 0.91341 0.0
C1519 C 0.03041 0.26611 0.90494 0.0
C1520 C 0.02577 0.28119 0.92994 0.0
C1521 C 0.04219 0.26353 0.96531 0.0
H1522 H 0.03801 0.30546 0.98696 0.0
C1523 C 0.04006 0.27197 0.03367 0.0
C1524 C 0.02673 0.27959 0.03806 0.0
C1525 C 0.0451 0.27294 0.01833 0.0
C1526 C 0.03927 0.29369 0.9811 0.0
H1527 H 0.04966 0.25073 0.90715 0.0
H1528 H 0.05628 0.25772 0.93599 0.0
H1529 H 0.03823 0.30218 0.95782 0.0
H1530 H 0.00905 0.29523 0.03051 0.0
H1531 H 0.01771 0.29692 0.00386 0.0
H1532 H 0.04254 0.25487 0.98844 0.0
C1533 C 0.04674 0.26334 0.92984 0.0
C1534 C 0.03937 0.2918 0.96441 0.0
C1535 C 0.04305 0.25946 0.91328 0.0
C1536 C 0.01931 0.28917 0.02735 0.0
C1537 C 0.02437 0.29021 0.01212 0.0
C1538 C 0.04208 0.26541 0.98199 0.0
C1539 C 0.03792 0.27401 0.93842 0.0
C1540 C 0.04034 0.2766 0.95627 0.0
C1541 C 0.03695 0.28166 0.0072 0.0
C1542 C 0.04012 0.28041 0.99003 0.0
H1543 H 0.01238 0.28276 0.9073 0.0
H1544 H 0.01862 0.28933 0.93617 0.0
H1545 H 0.04279 0.25161 0.95944 0.0
H1546 H 0.04595 0.26448 0.0417 0.0
H1547 H 0.05496 0.26638 0.01497 0.0
C1548 C 0.3393 0.75368 0.31755 0.0
C1549 C 0.34081 0.77056 0.31902 0.0
C1550 C 0.33835 0.74537 0.33111 0.0
C1551 C 0.33305 0.7496 0.3748 0.0
H1552 H 0.36234 0.71668 0.37605 0.0
C1553 C 0.36126 0.72772 0.43339 0.0
C1554 C 0.36533 0.7119 0.43275 0.0
C1555 C 0.35424 0.73352 0.4196 0.0
C1556 C 0.35382 0.72556 0.37585 0.0
H1557 H 0.34122 0.79185 0.33579 0.0
H1558 H 0.34002 0.77737 0.35949 0.0
H1559 H 0.3572 0.72923 0.35159 0.0
H1560 H 0.36431 0.68937 0.41786 0.0
H1561 H 0.35151 0.69923 0.39396 0.0
H1562 H 0.33012 0.74617 0.39937 0.0
C1563 C 0.33947 0.77054 0.34784 0.0
C1564 C 0.35087 0.7328 0.36177 0.0
C1565 C 0.34037 0.77886 0.33426 0.0
C1566 C 0.36126 0.70163 0.41855 0.0
C1567 C 0.35409 0.70734 0.40487 0.0
C1568 C 0.336 0.74231 0.38896 0.0
C1569 C 0.33894 0.75371 0.34649 0.0
C1570 C 0.34063 0.74505 0.3611 0.0
C1571 C 0.35113 0.72354 0.40502 0.0
C1572 C 0.34658 0.73034 0.38971 0.0
H1573 H 0.33968 0.74687 0.30603 0.0
H1574 H 0.33767 0.73238 0.32961 0.0
H1575 H 0.32498 0.7589 0.37464 0.0
H1576 H 0.36448 0.73586 0.44422 0.0
H1577 H 0.35223 0.74608 0.42014 0.0
C1578 C 0.95818 0.63953 0.58489 0.0
C1579 C 0.95244 0.62348 0.586 0.0
C1580 C 0.95881 0.64538 0.56993 0.0
C1581 C 0.9634 0.63114 0.52847 0.0
H1582 H 0.9582 0.67537 0.52153 0.0
C1583 C 1.00075 0.66687 0.48813 0.0
C1584 C 0.99401 0.67869 0.47975 0.0
C1585 C 0.99168 0.65801 0.49793 0.0
C1586 C 0.9594 0.66289 0.52309 0.0
H1587 H 0.94192 0.60127 0.57225 0.0
H1588 H 0.94319 0.61147 0.54609 0.0
H1589 H 0.94879 0.66454 0.54529 0.0
H1590 H 0.97236 0.69004 0.47431 0.0
H1591 H 0.95637 0.67452 0.49164 0.0
H1592 H 0.9745 0.62965 0.50655 0.0
C1593 C 0.94737 0.61945 0.55683 0.0
C1594 C 0.95418 0.65674 0.5368 0.0
C1595 C 0.94669 0.61361 0.57181 0.0
C1596 C 0.97776 0.68092 0.48063 0.0
C1597 C 0.96869 0.67214 0.49061 0.0
C1598 C 0.96866 0.6373 0.51479 0.0
C1599 C 0.95376 0.63531 0.55572 0.0
C1600 C 0.95661 0.64097 0.53991 0.0
C1601 C 0.9757 0.66087 0.49967 0.0
C1602 C 0.96722 0.6534 0.51224 0.0
H1603 H 0.96292 0.64741 0.59554 0.0
H1604 H 0.96404 0.65758 0.56951 0.0
H1605 H 0.96553 0.61896 0.53053 0.0
H1606 H 0.01326 0.66494 0.4876 0.0
H1607 H 0.99751 0.64957 0.50488 0.0
C1608 C 0.82145 0.33248 0.62928 0.0
C1609 C 0.80809 0.32594 0.63624 0.0
C1610 C 0.83703 0.33098 0.63588 0.0
C1611 C 0.8601 0.32461 0.67378 0.0
H1612 H 0.89431 0.32085 0.6462 0.0
C1613 C 0.92591 0.34702 0.69483 0.0
C1614 C 0.93831 0.3397 0.68786 0.0
C1615 C 0.90985 0.3417 0.68983 0.0
C1616 C 0.88492 0.3216 0.65413 0.0
H1617 H 0.80066 0.31243 0.65547 0.0
H1618 H 0.82796 0.30974 0.66702 0.0
H1619 H 0.86655 0.31803 0.63439 0.0
H1620 H 0.94356 0.32034 0.67091 0.0
H1621 H 0.91542 0.31077 0.66238 0.0
H1622 H 0.8785 0.3282 0.69353 0.0
C1623 C 0.82634 0.31619 0.65652 0.0
C1624 C 0.86898 0.32021 0.64733 0.0
C1625 C 0.8107 0.31773 0.64991 0.0
C1626 C 0.93428 0.32623 0.67651 0.0
C1627 C 0.91815 0.32087 0.6715 0.0
C1628 C 0.87605 0.32592 0.6806 0.0
C1629 C 0.83971 0.32287 0.64962 0.0
C1630 C 0.8564 0.32217 0.65702 0.0
C1631 C 0.90574 0.32884 0.67777 0.0
C1632 C 0.8887 0.32489 0.67084 0.0
H1633 H 0.8199 0.33918 0.61895 0.0
H1634 H 0.84699 0.33662 0.63045 0.0
H1635 H 0.85075 0.32623 0.68163 0.0
H1636 H 0.92864 0.35728 0.70378 0.0
H1637 H 0.90069 0.34824 0.69486 0.0
C1638 C 0.69383 0.66985 0.26198 0.0
C1639 C 0.69293 0.67152 0.24544 0.0
C1640 C 0.68005 0.66982 0.27007 0.0
C1641 C 0.63675 0.67708 0.26637 0.0
H1642 H 0.63277 0.64118 0.29195 0.0
C1643 C 0.57611 0.64435 0.27817 0.0
C1644 C 0.57536 0.63676 0.29229 0.0
C1645 C 0.59047 0.65271 0.27504 0.0
C1646 C 0.63372 0.65151 0.28518 0.0
H1647 H 0.67705 0.67585 0.2248 0.0
H1648 H 0.65296 0.6753 0.23878 0.0
H1649 H 0.65815 0.64858 0.28186 0.0
H1650 H 0.58844 0.63316 0.31487 0.0
H1651 H 0.61338 0.64813 0.30968 0.0
H1652 H 0.61199 0.67955 0.26928 0.0
C1653 C 0.66432 0.67412 0.24555 0.0
C1654 C 0.64835 0.65577 0.27936 0.0
C1655 C 0.67812 0.67423 0.23747 0.0
C1656 C 0.58879 0.63876 0.3038 0.0
C1657 C 0.60308 0.64724 0.30076 0.0
C1658 C 0.62205 0.67281 0.27222 0.0
C1659 C 0.66502 0.67138 0.26183 0.0
C1660 C 0.64999 0.6684 0.26962 0.0
C1661 C 0.60431 0.65373 0.28605 0.0
C1662 C 0.62028 0.65976 0.28145 0.0
H1663 H 0.705 0.66768 0.26852 0.0
H1664 H 0.68107 0.66797 0.28269 0.0
H1665 H 0.63766 0.68701 0.25906 0.0
H1666 H 0.56593 0.64288 0.26906 0.0
H1667 H 0.59099 0.65745 0.26354 0.0
C1668 C 0.42278 0.04566 0.36206 0.0
C1669 C 0.42229 0.03983 0.37716 0.0
C1670 C 0.43663 0.04531 0.3541 0.0
C1671 C 0.48013 0.0409 0.35936 0.0
H1672 H 0.47272 0.02092 0.31554 0.0
C1673 C 0.52857 0.01063 0.3267 0.0
C1674 C 0.52747 0.00966 0.30989 0.0
C1675 C 0.51717 0.01808 0.33503 0.0
C1676 C 0.4751 0.02689 0.32762 0.0
H1677 H 0.43618 0.02941 0.39588 0.0
H1678 H 0.46035 0.02899 0.38205 0.0
H1679 H 0.45003 0.02711 0.32994 0.0
H1680 H 0.5146 0.01673 0.28863 0.0
H1681 H 0.49512 0.0304 0.30314 0.0
H1682 H 0.50525 0.04048 0.35709 0.0
C1683 C 0.45006 0.03396 0.37645 0.0
C1684 C 0.46203 0.03038 0.3359 0.0
C1685 C 0.43618 0.03421 0.38437 0.0
C1686 C 0.51558 0.01728 0.30161 0.0
C1687 C 0.50436 0.02495 0.30993 0.0
C1688 C 0.49327 0.03754 0.35101 0.0
C1689 C 0.45032 0.03922 0.3611 0.0
C1690 C 0.46437 0.03716 0.35194 0.0
C1691 C 0.50459 0.02485 0.32668 0.0
C1692 C 0.4909 0.03021 0.33511 0.0
H1693 H 0.41241 0.05037 0.3563 0.0
H1694 H 0.43656 0.04963 0.34235 0.0
H1695 H 0.48229 0.04629 0.37169 0.0
H1696 H 0.53756 0.00468 0.33329 0.0
H1697 H 0.51769 0.01763 0.34789 0.0
C1698 C 0.08406 0.95459 0.73781 0.0
C1699 C 0.09494 0.96611 0.73238 0.0
C1700 C 0.06763 0.95367 0.73283 0.0
C1701 C 0.03807 0.98014 0.71906 0.0
H1702 H 0.00841 0.94143 0.71422 0.0
C1703 C 0.97071 0.98483 0.71063 0.0
C1704 C 0.96158 0.97611 0.72065 0.0
C1705 C 0.98624 0.98126 0.70822 0.0
C1706 C 0.01655 0.95234 0.71557 0.0
H1707 H 0.09709 0.98505 0.71664 0.0
H1708 H 0.06856 0.98313 0.7076 0.0
H1709 H 0.03737 0.93941 0.71683 0.0
H1710 H 0.96103 0.95624 0.73524 0.0
H1711 H 0.98838 0.95013 0.73132 0.0
H1712 H 0.01747 0.99313 0.71837 0.0
C1713 C 0.0727 0.97502 0.716 0.0
C1714 C 0.03313 0.95118 0.71706 0.0
C1715 C 0.08911 0.97598 0.72103 0.0
C1716 C 0.96783 0.96305 0.72736 0.0
C1717 C 0.98348 0.95957 0.72509 0.0
C1718 C 0.02157 0.98129 0.71759 0.0
C1719 C 0.06169 0.96423 0.72225 0.0
C1720 C 0.04409 0.9651 0.71903 0.0
C1721 C 0.99308 0.96904 0.71598 0.0
C1722 C 0.01058 0.96743 0.716 0.0
H1723 H 0.08817 0.9466 0.74635 0.0
H1724 H 0.05952 0.94525 0.73793 0.0
H1725 H 0.04611 0.99113 0.72093 0.0
H1726 H 0.96607 0.99488 0.70522 0.0
H1727 H 0.99314 0.98854 0.7008 0.0
C1728 C 0.66452 0.81034 0.34431 0.0
C1729 C 0.64838 0.80558 0.33854 0.0
C1730 C 0.67176 0.82544 0.34185 0.0
C1731 C 0.66711 0.86111 0.31933 0.0
H1732 H 0.68962 0.88404 0.35828 0.0
C1733 C 0.67639 0.93038 0.3317 0.0
C1734 C 0.68969 0.93734 0.34217 0.0
C1735 C 0.6739 0.9137 0.32801 0.0
C1736 C 0.68372 0.87779 0.34714 0.0
H1737 H 0.62754 0.81257 0.32472 0.0
H1738 H 0.64005 0.83904 0.32075 0.0
H1739 H 0.68057 0.85581 0.35781 0.0
H1740 H 0.71152 0.93272 0.35593 0.0
H1741 H 0.70761 0.9037 0.34901 0.0
H1742 H 0.66993 0.88336 0.30884 0.0
C1743 C 0.64716 0.83107 0.32709 0.0
C1744 C 0.67849 0.86153 0.34689 0.0
C1745 C 0.63992 0.81596 0.32954 0.0
C1746 C 0.70114 0.92756 0.34785 0.0
C1747 C 0.69879 0.91095 0.34401 0.0
C1748 C 0.67241 0.87743 0.31956 0.0
C1749 C 0.66303 0.83615 0.33359 0.0
C1750 C 0.66991 0.85303 0.33308 0.0
C1751 C 0.68476 0.90374 0.33468 0.0
C1752 C 0.68059 0.88603 0.33357 0.0
H1753 H 0.67138 0.80273 0.35137 0.0
H1754 H 0.68408 0.82889 0.34681 0.0
H1755 H 0.66067 0.85485 0.30844 0.0
H1756 H 0.66732 0.93772 0.32733 0.0
H1757 H 0.66293 0.90859 0.32087 0.0
C1758 C 0.74029 0.08661 0.96116 0.0
C1759 C 0.7337 0.09714 0.97216 0.0
C1760 C 0.73555 0.07011 0.95969 0.0
C1761 C 0.71986 0.03973 0.98431 0.0
H1762 H 0.71856 0.01087 0.94534 0.0
C1763 C 0.7129 0.97218 0.98772 0.0
C1764 C 0.7239 0.96369 0.97975 0.0
C1765 C 0.71015 0.9876 0.98408 0.0
C1766 C 0.7189 0.01878 0.95632 0.0
H1767 H 0.71624 0.09859 0.98953 0.0
H1768 H 0.70768 0.06993 0.98665 0.0
H1769 H 0.72088 0.03991 0.9439 0.0
H1770 H 0.74005 0.9641 0.96121 0.0
H1771 H 0.73555 0.99128 0.95498 0.0
H1772 H 0.7185 0.01884 0.99685 0.0
C1773 C 0.71676 0.0744 0.97938 0.0
C1774 C 0.72023 0.03541 0.9555 0.0
C1775 C 0.72153 0.09088 0.98089 0.0
C1776 C 0.73137 0.97041 0.96736 0.0
C1777 C 0.72876 0.98596 0.96382 0.0
C1778 C 0.71856 0.02318 0.98513 0.0
C1779 C 0.72407 0.06375 0.96915 0.0
C1780 C 0.72095 0.04608 0.96954 0.0
C1781 C 0.7186 0.99498 0.97259 0.0
C1782 C 0.71827 0.01247 0.9712 0.0
H1783 H 0.7495 0.09106 0.95404 0.0
H1784 H 0.74149 0.06228 0.95174 0.0
H1785 H 0.72074 0.04755 0.99541 0.0
H1786 H 0.70704 0.96718 0.99735 0.0
H1787 H 0.70196 0.99404 0.99081 0.0
C1788 C 0.25562 0.67177 0.66843 0.0
C1789 C 0.26134 0.68597 0.66229 0.0
C1790 C 0.26505 0.65896 0.66919 0.0
C1791 C 0.29697 0.64208 0.64834 0.0
H1792 H 0.29602 0.61193 0.68052 0.0
C1793 C 0.32648 0.58439 0.63872 0.0
C1794 C 0.31578 0.57058 0.63906 0.0
C1795 C 0.32317 0.59922 0.6458 0.0
C1796 C 0.29644 0.62029 0.67149 0.0
H1797 H 0.28177 0.69806 0.65281 0.0
H1798 H 0.29824 0.67584 0.6543 0.0
H1799 H 0.28386 0.63714 0.68489 0.0
H1800 H 0.29408 0.56118 0.64842 0.0
H1801 H 0.28832 0.58716 0.66094 0.0
H1802 H 0.30919 0.62523 0.63478 0.0
C1803 C 0.28642 0.67454 0.65842 0.0
C1804 C 0.28945 0.63469 0.67396 0.0
C1805 C 0.27702 0.68736 0.65771 0.0
C1806 C 0.30256 0.57162 0.64803 0.0
C1807 C 0.29927 0.58651 0.65518 0.0
C1808 C 0.30403 0.62781 0.64595 0.0
C1809 C 0.2804 0.66003 0.66378 0.0
C1810 C 0.28937 0.64561 0.66225 0.0
C1811 C 0.30913 0.60057 0.65344 0.0
C1812 C 0.30358 0.6166 0.65733 0.0
H1813 H 0.24366 0.6704 0.67225 0.0
H1814 H 0.25997 0.64794 0.67327 0.0
H1815 H 0.29695 0.65006 0.63895 0.0
H1816 H 0.33689 0.58388 0.63207 0.0
H1817 H 0.33112 0.60977 0.64447 0.0
C1818 C 0.4006 0.43811 0.05367 0.0
C1819 C 0.39131 0.42413 0.04631 0.0
C1820 C 0.39461 0.45307 0.05351 0.0
C1821 C 0.3576 0.47305 0.04416 0.0
H1822 H 0.38669 0.5043 0.02734 0.0
C1823 C 0.33491 0.52875 0.01823 0.0
C1824 C 0.33888 0.52977 0.00248 0.0
C1825 C 0.343 0.51904 0.02824 0.0
C1826 C 0.37847 0.49579 0.03221 0.0
H1827 H 0.36813 0.41486 0.0337 0.0
H1828 H 0.35771 0.4408 0.03348 0.0
H1829 H 0.39673 0.4803 0.03693 0.0
H1830 H 0.35495 0.52249 0.98515 0.0
H1831 H 0.36913 0.5057 0.00254 0.0
H1832 H 0.33912 0.48806 0.03842 0.0
C1833 C 0.36956 0.44024 0.03955 0.0
C1834 C 0.38424 0.48209 0.03785 0.0
C1835 C 0.37555 0.42532 0.03967 0.0
C1836 C 0.3517 0.52185 0.99726 0.0
C1837 C 0.35987 0.51233 0.00727 0.0
C1838 C 0.35183 0.48678 0.03855 0.0
C1839 C 0.37918 0.45434 0.04604 0.0
C1840 C 0.37374 0.47026 0.0433 0.0
C1841 C 0.35529 0.51041 0.02269 0.0
C1842 C 0.36208 0.49797 0.03192 0.0
H1843 H 0.41269 0.43757 0.05915 0.0
H1844 H 0.40223 0.46369 0.05882 0.0
H1845 H 0.34926 0.46427 0.04851 0.0
H1846 H 0.32499 0.53471 0.02245 0.0
H1847 H 0.33928 0.51785 0.04009 0.0
C1848 C 0.33607 0.63012 0.81934 0.0
C1849 C 0.32969 0.63681 0.80573 0.0
C1850 C 0.33354 0.6364 0.83474 0.0
C1851 C 0.32417 0.67344 0.85732 0.0
H1852 H 0.32125 0.64549 0.8913 0.0
C1853 C 0.32554 0.67504 0.93144 0.0
C1854 C 0.33854 0.68691 0.93556 0.0
C1855 C 0.32015 0.67021 0.91529 0.0
C1856 C 0.32172 0.65352 0.88198 0.0
H1857 H 0.31535 0.6552 0.79767 0.0
H1858 H 0.31082 0.66618 0.82468 0.0
H1859 H 0.31958 0.63388 0.86357 0.0
H1860 H 0.35512 0.70402 0.92609 0.0
H1861 H 0.3461 0.69541 0.8981 0.0
H1862 H 0.32632 0.69308 0.87577 0.0
C1863 C 0.31796 0.65615 0.82339 0.0
C1864 C 0.32101 0.64683 0.86605 0.0
C1865 C 0.32055 0.64987 0.80792 0.0
C1866 C 0.34524 0.69465 0.92328 0.0
C1867 C 0.33991 0.68982 0.90719 0.0
C1868 C 0.32478 0.68014 0.87327 0.0
C1869 C 0.32451 0.64953 0.837 0.0
C1870 C 0.32278 0.65669 0.85357 0.0
C1871 C 0.32766 0.67717 0.90294 0.0
C1872 C 0.32409 0.67025 0.88586 0.0
H1873 H 0.34347 0.62029 0.81814 0.0
H1874 H 0.33912 0.63123 0.84491 0.0
H1875 H 0.32559 0.68142 0.84805 0.0
H1876 H 0.32012 0.66885 0.94065 0.0
H1877 H 0.31049 0.66062 0.91246 0.0
C1878 C 0.93268 0.74131 0.08792 0.0
C1879 C 0.94562 0.73718 0.09804 0.0
C1880 C 0.9325 0.73877 0.07121 0.0
C1881 C 0.9617 0.73872 0.04221 0.0
H1882 H 0.9255 0.72587 0.01002 0.0
C1883 C 0.96467 0.75488 0.97871 0.0
C1884 C 0.96266 0.74176 0.96684 0.0
C1885 C 0.95963 0.75322 0.99383 0.0
C1886 C 0.93568 0.72943 0.01892 0.0
H1887 H 0.96794 0.7261 0.09848 0.0
H1888 H 0.96748 0.72151 0.06944 0.0
H1889 H 0.92247 0.72313 0.03852 0.0
H1890 H 0.95263 0.71703 0.96096 0.0
H1891 H 0.94361 0.71413 0.98763 0.0
H1892 H 0.97484 0.74531 0.02288 0.0
C1893 C 0.95757 0.72686 0.07443 0.0
C1894 C 0.93395 0.7279 0.03517 0.0
C1895 C 0.95774 0.72936 0.09109 0.0
C1896 C 0.95424 0.72733 0.96991 0.0
C1897 C 0.94914 0.72567 0.98514 0.0
C1898 C 0.96334 0.74043 0.02612 0.0
C1899 C 0.94529 0.73211 0.06433 0.0
C1900 C 0.94697 0.73258 0.04696 0.0
C1901 C 0.95245 0.73842 0.99741 0.0
C1902 C 0.95034 0.73597 0.01433 0.0
H1903 H 0.92305 0.74716 0.09291 0.0
H1904 H 0.92288 0.74295 0.06372 0.0
H1905 H 0.97189 0.74265 0.051 0.0
H1906 H 0.97096 0.76619 0.97655 0.0
H1907 H 0.96207 0.76332 0.00301 0.0
C1908 C 0.67803 0.25651 0.67407 0.0
C1909 C 0.6732 0.26286 0.68872 0.0
C1910 C 0.67876 0.2658 0.66116 0.0
C1911 C 0.65926 0.29915 0.64572 0.0
H1912 H 0.68799 0.29471 0.61247 0.0
C1913 C 0.64557 0.32646 0.58732 0.0
C1914 C 0.64499 0.31536 0.57366 0.0
C1915 C 0.65367 0.32356 0.60187 0.0
C1916 C 0.67991 0.29613 0.62169 0.0
H1917 H 0.66633 0.28434 0.70154 0.0
H1918 H 0.66794 0.30059 0.67918 0.0
H1919 H 0.69369 0.28299 0.63769 0.0
H1920 H 0.65358 0.29332 0.5641 0.0
H1921 H 0.6676 0.28813 0.58952 0.0
H1922 H 0.64528 0.31194 0.62978 0.0
C1923 C 0.67092 0.28835 0.67758 0.0
C1924 C 0.68316 0.28939 0.63612 0.0
C1925 C 0.67016 0.27906 0.69048 0.0
C1926 C 0.65391 0.3021 0.57443 0.0
C1927 C 0.66195 0.29915 0.58903 0.0
C1928 C 0.65612 0.30601 0.63144 0.0
C1929 C 0.67469 0.28167 0.66261 0.0
C1930 C 0.67267 0.29054 0.64817 0.0
C1931 C 0.66125 0.30945 0.60308 0.0
C1932 C 0.6662 0.30429 0.61909 0.0
H1933 H 0.6807 0.24415 0.67239 0.0
H1934 H 0.68164 0.26023 0.6498 0.0
H1935 H 0.65074 0.30001 0.65457 0.0
H1936 H 0.63896 0.33689 0.58697 0.0
H1937 H 0.65319 0.33191 0.61237 0.0
C1938 C 0.04047 0.36637 0.41741 0.0
C1939 C 0.0333 0.38056 0.4152 0.0
C1940 C 0.03981 0.35935 0.43179 0.0
C1941 C 0.03174 0.36678 0.47429 0.0
H1942 H 0.01736 0.32131 0.46934 0.0
C1943 C 1.00171 0.33405 0.52292 0.0
C1944 C 0.0029 0.31756 0.5232 0.0
C1945 C 0.00909 0.34247 0.51154 0.0
C1946 C 0.02176 0.33393 0.47107 0.0
H1947 H 0.02005 0.39863 0.4266 0.0
H1948 H 0.01903 0.38644 0.45169 0.0
H1949 H 0.02338 0.33463 0.44593 0.0
H1950 H 0.01368 0.29716 0.5129 0.0
H1951 H 0.02722 0.31194 0.49353 0.0
H1952 H 0.02986 0.36609 0.49946 0.0
C1953 C 0.02531 0.38084 0.44234 0.0
C1954 C 0.02515 0.34159 0.45758 0.0
C1955 C 0.0259 0.38782 0.42794 0.0
C1956 C 0.0126 0.30989 0.51284 0.0
C1957 C 0.02017 0.31833 0.50165 0.0
C1958 C 0.02845 0.35908 0.48786 0.0
C1959 C 0.03203 0.36639 0.44434 0.0
C1960 C 0.02993 0.35814 0.45898 0.0
C1961 C 0.01791 0.33455 0.50035 0.0
C1962 C 0.02317 0.34258 0.48638 0.0
H1963 H 0.04654 0.36062 0.40798 0.0
H1964 H 0.04529 0.34832 0.43305 0.0
H1965 H 0.03557 0.37953 0.47576 0.0
H1966 H 0.99412 0.34014 0.5307 0.0
H1967 H 0.00697 0.3549 0.51087 0.0
C1968 C 0.32223 0.5997 0.4715 0.0
C1969 C 0.31295 0.59103 0.4582 0.0
C1970 C 0.32328 0.59361 0.4864 0.0
C1971 C 0.31633 0.55613 0.50608 0.0
H1972 H 0.31739 0.58623 0.54409 0.0
C1973 C 0.30958 0.53835 0.57077 0.0
C1974 C 0.31985 0.54741 0.58321 0.0
C1975 C 0.30941 0.54242 0.55498 0.0
C1976 C 0.31726 0.57769 0.53359 0.0
H1977 H 0.29748 0.56917 0.45004 0.0
H1978 H 0.299 0.55864 0.4762 0.0
H1979 H 0.31522 0.59594 0.51773 0.0
H1980 H 0.33882 0.56702 0.58862 0.0
H1981 H 0.33837 0.57419 0.56119 0.0
H1982 H 0.31801 0.53783 0.52217 0.0
C1983 C 0.30574 0.57001 0.47505 0.0
C1984 C 0.31606 0.58325 0.51846 0.0
C1985 C 0.30482 0.57606 0.46008 0.0
C1986 C 0.33052 0.56003 0.57937 0.0
C1987 C 0.33027 0.56414 0.56368 0.0
C1988 C 0.31738 0.55053 0.52127 0.0
C1989 C 0.31495 0.57875 0.48843 0.0
C1990 C 0.31575 0.57259 0.50449 0.0
C1991 C 0.31944 0.55566 0.5514 0.0
C1992 C 0.31803 0.5613 0.53518 0.0
H1993 H 0.32886 0.61113 0.47034 0.0
H1994 H 0.33078 0.60051 0.49631 0.0
H1995 H 0.31629 0.54759 0.4956 0.0
H1996 H 0.30116 0.52862 0.57336 0.0
H1997 H 0.30092 0.5357 0.54574 0.0
C1998 C 0.23723 0.43234 0.86449 0.0
C1999 C 0.24693 0.4204 0.85963 0.0
C2000 C 0.2436 0.44547 0.87541 0.0
C2001 C 0.27793 0.45842 0.9063 0.0
H2002 H 0.26617 0.50128 0.90107 0.0
C2003 C 0.31297 0.5133 0.94278 0.0
C2004 C 0.30387 0.52399 0.95094 0.0
C2005 C 0.30558 0.50171 0.93077 0.0
C2006 C 0.26946 0.48935 0.90271 0.0
H2007 H 0.27093 0.41287 0.86269 0.0
H2008 H 0.28211 0.43591 0.88117 0.0
H2009 H 0.25395 0.47865 0.88206 0.0
H2010 H 0.28003 0.53154 0.95222 0.0
H2011 H 0.26707 0.51127 0.93096 0.0
H2012 H 0.29359 0.4691 0.92675 0.0
C2013 C 0.26951 0.43505 0.87678 0.0
C2014 C 0.26244 0.47638 0.89188 0.0
C2015 C 0.26314 0.42192 0.86596 0.0
C2016 C 0.28735 0.5235 0.9461 0.0
C2017 C 0.27994 0.51189 0.93398 0.0
C2018 C 0.28501 0.47135 0.91699 0.0
C2019 C 0.25982 0.44697 0.88171 0.0
C2020 C 0.26672 0.46077 0.89347 0.0
C2021 C 0.28893 0.50058 0.92656 0.0
C2022 C 0.28098 0.48697 0.91524 0.0
H2023 H 0.22474 0.43164 0.85972 0.0
H2024 H 0.23576 0.45434 0.87906 0.0
H2025 H 0.28121 0.44653 0.90816 0.0
H2026 H 0.32578 0.51361 0.94601 0.0
H2027 H 0.31286 0.49338 0.92501 0.0
C2028 C 0.67647 0.97013 0.517 0.0
C2029 C 0.68788 0.98043 0.52734 0.0
C2030 C 0.67603 0.97029 0.50039 0.0
C2031 C 0.68861 0.99446 0.4685 0.0
H2032 H 0.68437 0.95312 0.44305 0.0
C2033 C 0.6977 0.98686 0.40075 0.0
C2034 C 0.68756 0.97486 0.39099 0.0
C2035 C 0.69725 0.98844 0.41741 0.0
C2036 C 0.68533 0.96478 0.44994 0.0
H2037 H 0.70747 0.9993 0.52836 0.0
H2038 H 0.70681 0.99945 0.49925 0.0
H2039 H 0.68445 0.95426 0.47206 0.0
H2040 H 0.66846 0.95567 0.39085 0.0
H2041 H 0.66753 0.95852 0.41983 0.0
H2042 H 0.68949 0.00496 0.4463 0.0
C2043 C 0.69817 0.99131 0.50405 0.0
C2044 C 0.6854 0.96542 0.46657 0.0
C2045 C 0.69865 0.99112 0.52069 0.0
C2046 C 0.67662 0.96483 0.39812 0.0
C2047 C 0.67612 0.96645 0.41472 0.0
C2048 C 0.68849 0.99382 0.4518 0.0
C2049 C 0.68697 0.98076 0.49372 0.0
C2050 C 0.68698 0.98025 0.47604 0.0
C2051 C 0.68661 0.97808 0.42459 0.0
C2052 C 0.68678 0.97895 0.44233 0.0
H2053 H 0.66811 0.96165 0.52173 0.0
H2054 H 0.66714 0.96215 0.49275 0.0
H2055 H 0.68971 0.00607 0.47549 0.0
H2056 H 0.70633 0.99468 0.39556 0.0
H2057 H 0.70559 0.99743 0.42468 0.0
C2058 C 0.78073 0.96226 0.15205 0.0
C2059 C 0.79073 0.97639 0.15764 0.0
C2060 C 0.77847 0.95688 0.1357 0.0
C2061 C 0.77947 0.97248 0.09659 0.0
H2062 H 0.77493 0.9275 0.08005 0.0
C2063 C 0.76457 0.95334 0.02918 0.0
C2064 C 0.75256 0.94049 0.02494 0.0
C2065 C 0.7716 0.95662 0.04499 0.0
C2066 C 0.77608 0.9401 0.0845 0.0
H2067 H 0.80661 0.99567 0.15049 0.0
H2068 H 0.80281 0.98616 0.12195 0.0
H2069 H 0.78312 0.93526 0.10859 0.0
H2070 H 0.73885 0.92068 0.03376 0.0
H2071 H 0.75095 0.92651 0.06149 0.0
H2072 H 0.77202 0.97737 0.07272 0.0
C2073 C 0.79659 0.97934 0.13022 0.0
C2074 C 0.78079 0.94454 0.10083 0.0
C2075 C 0.79889 0.9847 0.14658 0.0
C2076 C 0.74817 0.93058 0.03669 0.0
C2077 C 0.75514 0.93392 0.05255 0.0
C2078 C 0.77473 0.96805 0.08031 0.0
C2079 C 0.78613 0.96553 0.12457 0.0
C2080 C 0.78237 0.96077 0.10707 0.0
C2081 C 0.7667 0.94718 0.05695 0.0
C2082 C 0.77282 0.9518 0.07408 0.0
H2083 H 0.77444 0.95548 0.16031 0.0
H2084 H 0.77024 0.94626 0.13173 0.0
H2085 H 0.78029 0.98506 0.10106 0.0
H2086 H 0.76837 0.96101 0.02029 0.0
H2087 H 0.78072 0.96671 0.0479 0.0
C2088 C 0.46681 0.2946 0.58605 0.0
C2089 C 0.46359 0.30555 0.59874 0.0
C2090 C 0.48176 0.29585 0.57996 0.0
C2091 C 0.52388 0.31283 0.59087 0.0
H2092 H 0.52682 0.30789 0.54495 0.0
C2093 C 0.58374 0.32764 0.56531 0.0
C2094 C 0.58784 0.31668 0.55309 0.0
C2095 C 0.56819 0.32669 0.56992 0.0
C2096 C 0.52621 0.30916 0.5578 0.0
H2097 H 0.47365 0.32621 0.61516 0.0
H2098 H 0.49958 0.32851 0.60444 0.0
H2099 H 0.50051 0.30493 0.55511 0.0
H2100 H 0.57869 0.29646 0.53573 0.0
H2101 H 0.55147 0.29474 0.54383 0.0
H2102 H 0.54949 0.31697 0.59364 0.0
C2103 C 0.49061 0.3189 0.59923 0.0
C2104 C 0.51114 0.30744 0.56362 0.0
C2105 C 0.47568 0.31769 0.60527 0.0
C2106 C 0.57585 0.30517 0.5451 0.0
C2107 C 0.56026 0.30417 0.54975 0.0
C2108 C 0.5389 0.31452 0.58507 0.0
C2109 C 0.49384 0.30801 0.58651 0.0
C2110 C 0.50981 0.30936 0.58023 0.0
C2111 C 0.55635 0.31471 0.56247 0.0
C2112 C 0.54026 0.31282 0.56847 0.0
H2113 H 0.4577 0.28519 0.58067 0.0
H2114 H 0.48393 0.28718 0.57025 0.0
H2115 H 0.5233 0.31408 0.60373 0.0
H2116 H 0.59267 0.33681 0.57151 0.0
H2117 H 0.56548 0.33523 0.57949 0.0
C2118 C 0.13931 0.77041 0.98832 0.0
C2119 C 0.14969 0.78013 0.98024 0.0
C2120 C 0.12283 0.76849 0.9837 0.0
C2121 C 0.09285 0.77103 0.94956 0.0
H2122 H 0.06333 0.76953 0.98229 0.0
C2123 C 0.02312 0.76299 0.93576 0.0
C2124 C 0.01499 0.75223 0.94481 0.0
C2125 C 0.03962 0.76747 0.9394 0.0
C2126 C 0.07143 0.76983 0.973 0.0
H2127 H 0.15091 0.79549 0.96098 0.0
H2128 H 0.12196 0.79226 0.95298 0.0
H2129 H 0.09198 0.7759 0.99019 0.0
H2130 H 0.01793 0.73705 0.96415 0.0
H2131 H 0.04654 0.7449 0.97051 0.0
H2132 H 0.07218 0.76477 0.93238 0.0
C2133 C 0.12665 0.78605 0.96283 0.0
C2134 C 0.08784 0.77347 0.97753 0.0
C2135 C 0.14319 0.78802 0.96751 0.0
C2136 C 0.02376 0.74568 0.95721 0.0
C2137 C 0.04015 0.75017 0.96087 0.0
C2138 C 0.07637 0.7674 0.94501 0.0
C2139 C 0.1163 0.77624 0.97088 0.0
C2140 C 0.09877 0.7738 0.96589 0.0
C2141 C 0.04823 0.7613 0.95218 0.0
C2142 C 0.06554 0.76644 0.95673 0.0
H2143 H 0.14393 0.76431 0.99829 0.0
H2144 H 0.11522 0.76069 0.99002 0.0
H2145 H 0.10099 0.77109 0.94031 0.0
H2146 H 0.01666 0.76828 0.92617 0.0
H2147 H 0.04554 0.77609 0.93253 0.0
C2148 C 0.85581 0.23908 0.4338 0.0
C2149 C 0.85894 0.22939 0.42013 0.0
C2150 C 0.86751 0.2428 0.44689 0.0
C2151 C 0.91109 0.24677 0.45682 0.0
H2152 H 0.9007 0.24791 0.50087 0.0
C2153 C 0.96002 0.26597 0.50884 0.0
C2154 C 0.95603 0.27697 0.52107 0.0
C2155 C 0.94806 0.25754 0.49778 0.0
C2156 C 0.90378 0.24774 0.48864 0.0
H2157 H 0.87674 0.21588 0.40954 0.0
H2158 H 0.89717 0.22235 0.43244 0.0
H2159 H 0.87992 0.23836 0.47889 0.0
H2160 H 0.93641 0.28726 0.53182 0.0
H2161 H 0.91546 0.27278 0.51234 0.0
H2162 H 0.93473 0.25661 0.46638 0.0
C2163 C 0.88567 0.22711 0.43299 0.0
C2164 C 0.89188 0.24226 0.47606 0.0
C2165 C 0.87394 0.2233 0.41994 0.0
C2166 C 0.93979 0.27874 0.52258 0.0
C2167 C 0.9278 0.27042 0.5114 0.0
C2168 C 0.92293 0.25233 0.46936 0.0
C2169 C 0.88262 0.23699 0.44656 0.0
C2170 C 0.89539 0.24185 0.46001 0.0
C2171 C 0.93184 0.26007 0.49859 0.0
C2172 C 0.91942 0.25301 0.48543 0.0
H2173 H 0.8443 0.24379 0.43438 0.0
H2174 H 0.86485 0.25057 0.45711 0.0
H2175 H 0.9141 0.24685 0.44458 0.0
H2176 H 0.97247 0.26426 0.50755 0.0
H2177 H 0.95158 0.24937 0.48832 0.0
C2178 C 0.51746 0.7065 0.9726 0.0
C2179 C 0.52579 0.69723 0.98298 0.0
C2180 C 0.5008 0.70629 0.97201 0.0
C2181 C 0.46619 0.69677 0.99452 0.0
H2182 H 0.44211 0.6935 0.9525 0.0
C2183 C 0.39671 0.68565 0.98472 0.0
C2184 C 0.3889 0.69394 0.97304 0.0
C2185 C 0.41346 0.68625 0.98656 0.0
C2186 C 0.44865 0.69462 0.96434 0.0
H2187 H 0.52321 0.68076 1.00115 0.0
H2188 H 0.49401 0.68027 0.99999 0.0
H2189 H 0.47124 0.69425 0.95462 0.0
H2190 H 0.39252 0.70987 0.95458 0.0
H2191 H 0.4217 0.71104 0.95785 0.0
H2192 H 0.44354 0.69718 0.00422 0.0
C2193 C 0.50042 0.68776 0.99238 0.0
C2194 C 0.46535 0.69504 0.96554 0.0
C2195 C 0.51711 0.68792 0.99293 0.0
C2196 C 0.39819 0.70311 0.96348 0.0
C2197 C 0.4149 0.70376 0.96534 0.0
C2198 C 0.44945 0.6964 0.99331 0.0
C2199 C 0.49208 0.69682 0.98179 0.0
C2200 C 0.47431 0.69619 0.98064 0.0
C2201 C 0.42274 0.6952 0.97678 0.0
C2202 C 0.4405 0.6954 0.9782 0.0
H2203 H 0.52378 0.71367 0.96467 0.0
H2204 H 0.49474 0.71355 0.96386 0.0
H2205 H 0.47279 0.69781 0.00632 0.0
H2206 H 0.38984 0.67837 0.99217 0.0
H2207 H 0.41912 0.67939 0.99537 0.0
C2208 C 0.58408 0.45814 0.29209 0.0
C2209 C 0.59644 0.45532 0.30362 0.0
C2210 C 0.57841 0.47325 0.29214 0.0
C2211 C 0.59059 0.51583 0.30562 0.0
H2212 H 0.54502 0.52035 0.29914 0.0
C2213 C 0.56726 0.57793 0.31155 0.0
C2214 C 0.55503 0.58081 0.29993 0.0
C2215 C 0.57145 0.56239 0.31282 0.0
C2216 C 0.55779 0.51929 0.30081 0.0
H2217 H 0.6126 0.46617 0.32417 0.0
H2218 H 0.60264 0.49249 0.32433 0.0
H2219 H 0.55411 0.49362 0.29948 0.0
H2220 H 0.53736 0.56964 0.28077 0.0
H2221 H 0.54478 0.54248 0.28286 0.0
H2222 H 0.59437 0.54139 0.3067 0.0
C2223 C 0.59737 0.48304 0.31521 0.0
C2224 C 0.56299 0.50398 0.30101 0.0
C2225 C 0.60297 0.46792 0.31522 0.0
C2226 C 0.54673 0.56775 0.28994 0.0
C2227 C 0.55099 0.55219 0.29116 0.0
C2228 C 0.58541 0.53111 0.30535 0.0
C2229 C 0.58506 0.48589 0.30365 0.0
C2230 C 0.57945 0.5021 0.30345 0.0
C2231 C 0.56358 0.54936 0.30244 0.0
C2232 C 0.56895 0.53304 0.30297 0.0
H2233 H 0.57871 0.44862 0.28308 0.0
H2234 H 0.569 0.47512 0.283 0.0
H2235 H 0.60336 0.51477 0.30725 0.0
H2236 H 0.57369 0.58774 0.31957 0.0
H2237 H 0.58095 0.5606 0.32189 0.0
C2238 C 0.9617 0.14717 0.79047 0.0
C2239 C 0.96906 0.155 0.77859 0.0
C2240 C 0.95588 0.1309 0.78759 0.0
C2241 C 0.94351 0.0988 0.75437 0.0
H2242 H 0.95187 0.06987 0.78675 0.0
C2243 C 0.92346 0.03119 0.74177 0.0
C2244 C 0.93522 0.02111 0.74609 0.0
C2245 C 0.92542 0.04748 0.74748 0.0
C2246 C 0.94943 0.0778 0.77759 0.0
H2247 H 0.97659 0.15175 0.75462 0.0
H2248 H 0.96651 0.12353 0.74964 0.0
H2249 H 0.95986 0.0986 0.79301 0.0
H2250 H 0.95777 0.02001 0.76054 0.0
H2251 H 0.96139 0.04843 0.77017 0.0
H2252 H 0.93375 0.07803 0.73871 0.0
C2253 C 0.96486 0.12999 0.76102 0.0
C2254 C 0.95387 0.09427 0.78123 0.0
C2255 C 0.97066 0.14618 0.76389 0.0
C2256 C 0.94862 0.02752 0.75679 0.0
C2257 C 0.95058 0.04378 0.76248 0.0
C2258 C 0.9391 0.08236 0.75073 0.0
C2259 C 0.95732 0.12218 0.77278 0.0
C2260 C 0.95126 0.10491 0.76954 0.0
C2261 C 0.93917 0.05403 0.75764 0.0
C2262 C 0.94227 0.07163 0.76219 0.0
H2263 H 0.96018 0.15367 0.80187 0.0
H2264 H 0.95004 0.12523 0.79686 0.0
H2265 H 0.9411 0.10671 0.74518 0.0
H2266 H 0.91304 0.02664 0.73349 0.0
H2267 H 0.9163 0.055 0.7437 0.0
C2268 C 0.4428 0.85636 0.23932 0.0
C2269 C 0.42909 0.8605 0.23041 0.0
C2270 C 0.45642 0.86741 0.24302 0.0
C2271 C 0.47579 0.90586 0.23198 0.0
H2272 H 0.49697 0.90921 0.27531 0.0
C2273 C 0.51516 0.96221 0.26234 0.0
C2274 C 0.52851 0.96028 0.27308 0.0
C2275 C 0.50508 0.94887 0.25506 0.0
C2276 C 0.4914 0.90825 0.26307 0.0
H2277 H 0.4189 0.87946 0.21837 0.0
H2278 H 0.44254 0.89884 0.22501 0.0
H2279 H 0.47515 0.88819 0.26684 0.0
H2280 H 0.54226 0.94288 0.28402 0.0
H2281 H 0.52467 0.91948 0.27119 0.0
H2282 H 0.49176 0.92632 0.22845 0.0
C2283 C 0.44294 0.88694 0.22887 0.0
C2284 C 0.47886 0.89619 0.2582 0.0
C2285 C 0.42935 0.87586 0.2251 0.0
C2286 C 0.53209 0.94471 0.27573 0.0
C2287 C 0.52194 0.93134 0.26851 0.0
C2288 C 0.4883 0.91798 0.23688 0.0
C2289 C 0.45661 0.88289 0.23796 0.0
C2290 C 0.47073 0.89499 0.24268 0.0
C2291 C 0.5081 0.93331 0.25843 0.0
C2292 C 0.49608 0.91944 0.25256 0.0
H2293 H 0.44306 0.84452 0.24335 0.0
H2294 H 0.46682 0.8638 0.24981 0.0
H2295 H 0.46999 0.9051 0.21984 0.0
H2296 H 0.51219 0.97409 0.26 0.0
H2297 H 0.49447 0.95082 0.24744 0.0
C2298 C 0.97642 0.51422 0.68437 0.0
C2299 C 0.98412 0.52497 0.69718 0.0
C2300 C 0.97786 0.49779 0.68404 0.0
C2301 C 0.98875 0.4643 0.6826 0.0
H2302 H 0.98275 0.44518 0.72211 0.0
C2303 C 0.98981 0.39618 0.68739 0.0
C2304 C 0.97733 0.38902 0.69517 0.0
C2305 C 0.99252 0.41289 0.68798 0.0
C2306 C 0.98444 0.45035 0.71099 0.0
H2307 H 0.9999 0.52696 0.71936 0.0
H2308 H 0.00231 0.49822 0.71883 0.0
H2309 H 0.98427 0.47426 0.72208 0.0
H2310 H 0.95818 0.3937 0.70997 0.0
H2311 H 0.96276 0.42282 0.71084 0.0
H2312 H 0.98838 0.44033 0.67141 0.0
C2313 C 0.99501 0.50251 0.70915 0.0
C2314 C 0.98549 0.46701 0.71101 0.0
C2315 C 0.9936 0.51896 0.70946 0.0
C2316 C 0.96777 0.39888 0.70371 0.0
C2317 C 0.97052 0.41556 0.70437 0.0
C2318 C 0.98776 0.44763 0.6826 0.0
C2319 C 0.987 0.49173 0.69652 0.0
C2320 C 0.98739 0.47416 0.69676 0.0
C2321 C 0.98287 0.42275 0.69646 0.0
C2322 C 0.98531 0.44047 0.69674 0.0
H2323 H 0.96883 0.5184 0.67485 0.0
H2324 H 0.97134 0.48978 0.67427 0.0
H2325 H 0.99038 0.46948 0.67147 0.0
H2326 H 0.99731 0.38887 0.68063 0.0
H2327 H 1.00219 0.4181 0.68186 0.0
C2328 C 0.70853 0.40493 0.53873 0.0
C2329 C 0.69964 0.38983 0.53803 0.0
C2330 C 0.70856 0.41339 0.52519 0.0
C2331 C 0.68596 0.4156 0.48549 0.0
H2332 H 0.72585 0.43794 0.47594 0.0
C2333 C 0.69587 0.43575 0.4232 0.0
C2334 C 0.70482 0.45057 0.42245 0.0
C2335 C 0.69413 0.42979 0.43795 0.0
C2336 C 0.71456 0.43197 0.47857 0.0
H2337 H 0.68403 0.37166 0.5225 0.0
H2338 H 0.68426 0.38628 0.49882 0.0
H2339 H 0.72527 0.42445 0.50034 0.0
H2340 H 0.71861 0.47099 0.43656 0.0
H2341 H 0.71552 0.46058 0.46245 0.0
H2342 H 0.67537 0.42281 0.46349 0.0
C2343 C 0.69093 0.39178 0.50992 0.0
C2344 C 0.71422 0.42422 0.49256 0.0
C2345 C 0.69083 0.38335 0.52347 0.0
C2346 C 0.71157 0.45957 0.4368 0.0
C2347 C 0.70993 0.45354 0.45159 0.0
C2348 C 0.68633 0.42327 0.47147 0.0
C2349 C 0.69977 0.40692 0.51061 0.0
C2350 C 0.69996 0.41579 0.49611 0.0
C2351 C 0.70138 0.43848 0.45229 0.0
C2352 C 0.70067 0.4314 0.46777 0.0
H2353 H 0.71524 0.41035 0.54984 0.0
H2354 H 0.71531 0.42511 0.52623 0.0
H2355 H 0.67469 0.4095 0.48801 0.0
H2356 H 0.69044 0.42862 0.41232 0.0
H2357 H 0.68758 0.41809 0.43808 0.0
C2358 C 0.77631 0.57954 0.13773 0.0
C2359 C 0.77271 0.58106 0.15374 0.0
C2360 C 0.77089 0.56556 0.12761 0.0
C2361 C 0.73969 0.53108 0.12333 0.0
H2362 H 0.76498 0.51401 0.0907 0.0
C2363 C 0.71613 0.4744 0.08108 0.0
C2364 C 0.71705 0.47599 0.0647 0.0
C2365 C 0.72473 0.48567 0.09278 0.0
C2366 C 0.75778 0.51866 0.09974 0.0
H2367 H 0.76123 0.56891 0.17192 0.0
H2368 H 0.75195 0.54445 0.15437 0.0
H2369 H 0.77651 0.53685 0.10966 0.0
H2370 H 0.72846 0.48998 0.04773 0.0
H2371 H 0.74339 0.50969 0.06814 0.0
H2372 H 0.72091 0.51304 0.11333 0.0
C2373 C 0.75861 0.55418 0.14948 0.0
C2374 C 0.76435 0.53178 0.11057 0.0
C2375 C 0.76393 0.56818 0.15955 0.0
C2376 C 0.72739 0.48857 0.06027 0.0
C2377 C 0.73605 0.49976 0.07196 0.0
C2378 C 0.73316 0.51794 0.11258 0.0
C2379 C 0.76186 0.55276 0.13334 0.0
C2380 C 0.75531 0.53826 0.12237 0.0
C2381 C 0.7345 0.49867 0.08833 0.0
C2382 C 0.74206 0.5117 0.10055 0.0
H2383 H 0.78294 0.58932 0.13289 0.0
H2384 H 0.77341 0.56497 0.11519 0.0
H2385 H 0.73227 0.53592 0.13207 0.0
H2386 H 0.7082 0.46488 0.08484 0.0
H2387 H 0.72344 0.48441 0.10531 0.0
C2388 C 0.32121 0.02673 0.50066 0.0
C2389 C 0.32227 0.01397 0.48891 0.0
C2390 C 0.32331 0.02453 0.51692 0.0
C2391 C 0.31904 0.99407 0.54462 0.0
H2392 H 0.34228 0.02762 0.57512 0.0
C2393 C 0.33307 0.01481 0.61751 0.0
C2394 C 0.3172 0.01319 0.62159 0.0
C2395 C 0.33628 0.01133 0.60162 0.0
C2396 C 0.336 0.01796 0.56679 0.0
H2397 H 0.32645 0.98894 0.48494 0.0
H2398 H 0.33 0.98504 0.51355 0.0
H2399 H 0.34352 0.02902 0.54646 0.0
H2400 H 0.2924 0.00571 0.61236 0.0
H2401 H 0.29801 0.9996 0.58476 0.0
H2402 H 0.31111 0.98328 0.56499 0.0
C2403 C 0.32758 0.99674 0.51009 0.0
C2404 C 0.33657 0.01887 0.55038 0.0
C2405 C 0.32564 0.99899 0.49377 0.0
C2406 C 0.30477 0.00694 0.60967 0.0
C2407 C 0.308 0.00343 0.59381 0.0
C2408 C 0.3184 0.9932 0.56108 0.0
C2409 C 0.32642 0.00951 0.52181 0.0
C2410 C 0.32773 0.0072 0.53912 0.0
C2411 C 0.32371 0.00611 0.58952 0.0
C2412 C 0.32652 0.00537 0.57232 0.0
H2413 H 0.31879 0.03844 0.49726 0.0
H2414 H 0.32214 0.03454 0.52567 0.0
H2415 H 0.31208 0.98492 0.5362 0.0
H2416 H 0.34293 0.0193 0.6265 0.0
H2417 H 0.34855 0.01326 0.59871 0.0
C2418 C 0.22074 0.01681 0.85963 0.0
C2419 C 0.21361 0.026 0.84836 0.0
C2420 C 0.22318 0.02253 0.87587 0.0
C2421 C 0.22934 0.06006 0.90233 0.0
H2422 H 0.22474 0.03154 0.93564 0.0
C2423 C 0.24122 0.05929 0.9759 0.0
C2424 C 0.25706 0.06673 0.97837 0.0
C2425 C 0.23323 0.05624 0.96043 0.0
C2426 C 0.22586 0.03975 0.92654 0.0
H2427 H 0.20311 0.04823 0.8453 0.0
H2428 H 0.20733 0.05824 0.8738 0.0
H2429 H 0.21509 0.02189 0.90789 0.0
H2430 H 0.27669 0.07737 0.96658 0.0
H2431 H 0.26277 0.07209 0.93963 0.0
H2432 H 0.24037 0.07784 0.92098 0.0
C2433 C 0.21109 0.04663 0.87001 0.0
C2434 C 0.22049 0.03416 0.91061 0.0
C2435 C 0.20855 0.04085 0.85374 0.0
C2436 C 0.26443 0.07179 0.96512 0.0
C2437 C 0.25644 0.06876 0.94966 0.0
C2438 C 0.23477 0.06564 0.91827 0.0
C2439 C 0.21859 0.0376 0.88122 0.0
C2440 C 0.22249 0.04413 0.89829 0.0
C2441 C 0.2409 0.0606 0.9471 0.0
C2442 C 0.23339 0.05544 0.93051 0.0
H2443 H 0.22461 0.00524 0.85585 0.0
H2444 H 0.22915 0.01535 0.88418 0.0
H2445 H 0.23114 0.068 0.8931 0.0
H2446 H 0.23512 0.05549 0.98591 0.0
H2447 H 0.22117 0.05017 0.95886 0.0
C2448 C 0.54346 0.70734 0.42569 0.0
C2449 C 0.5449 0.70336 0.40932 0.0
C2450 C 0.52835 0.70651 0.43146 0.0
C2451 C 0.48492 0.70501 0.41748 0.0
H2452 H 0.47894 0.68988 0.45892 0.0
C2453 C 0.42211 0.6897 0.43625 0.0
C2454 C 0.41909 0.69675 0.45135 0.0
C2455 C 0.43777 0.68973 0.43205 0.0
C2456 C 0.48048 0.69422 0.44737 0.0
H2457 H 0.53169 0.69498 0.38623 0.0
H2458 H 0.50543 0.69323 0.39625 0.0
H2459 H 0.5057 0.69178 0.44962 0.0
H2460 H 0.43026 0.70855 0.47423 0.0
H2461 H 0.45778 0.70834 0.46694 0.0
H2462 H 0.4597 0.70719 0.41512 0.0
C2463 C 0.51588 0.69744 0.40463 0.0
C2464 C 0.4958 0.69538 0.44205 0.0
C2465 C 0.53094 0.69841 0.39886 0.0
C2466 C 0.43219 0.70295 0.46254 0.0
C2467 C 0.44793 0.70288 0.45836 0.0
C2468 C 0.46964 0.70371 0.42272 0.0
C2469 C 0.51435 0.70155 0.42099 0.0
C2470 C 0.49819 0.70069 0.42698 0.0
C2471 C 0.45082 0.69668 0.4429 0.0
C2472 C 0.46722 0.6982 0.43766 0.0
H2473 H 0.55401 0.71132 0.43401 0.0
H2474 H 0.52763 0.70998 0.44408 0.0
H2475 H 0.48633 0.70954 0.406 0.0
H2476 H 0.4123 0.6845 0.42748 0.0
H2477 H 0.43966 0.68455 0.42018 0.0
C2478 C 0.85161 0.21496 0.04212 0.0
C2479 C 0.8431 0.22516 0.03296 0.0
C2480 C 0.86804 0.21874 0.04688 0.0
C2481 C 0.89927 0.25331 0.05285 0.0
H2482 H 0.92928 0.22107 0.05027 0.0
C2483 C 0.96698 0.26976 0.05344 0.0
C2484 C 0.97748 0.26123 0.06252 0.0
C2485 C 0.95053 0.26497 0.05136 0.0
C2486 C 0.921 0.23015 0.05127 0.0
H2487 H 0.84526 0.24688 0.02099 0.0
H2488 H 0.8738 0.25341 0.02916 0.0
H2489 H 0.90053 0.21314 0.04349 0.0
H2490 H 0.97903 0.24101 0.07657 0.0
H2491 H 0.95011 0.23256 0.07292 0.0
H2492 H 0.9197 0.27036 0.0603 0.0
C2493 C 0.86776 0.24272 0.03305 0.0
C2494 C 0.90456 0.22562 0.04739 0.0
C2495 C 0.85141 0.23897 0.02833 0.0
C2496 C 0.97118 0.24784 0.06958 0.0
C2497 C 0.95468 0.24295 0.06739 0.0
C2498 C 0.91566 0.25783 0.05667 0.0
C2499 C 0.87624 0.23278 0.04254 0.0
C2500 C 0.89355 0.23721 0.04784 0.0
C2501 C 0.9442 0.25149 0.05827 0.0
C2502 C 0.92673 0.24636 0.05564 0.0
H2503 H 0.8455 0.20429 0.04595 0.0
H2504 H 0.87423 0.21088 0.05425 0.0
H2505 H 0.89107 0.26247 0.05369 0.0
H2506 H 0.97147 0.28023 0.04799 0.0
H2507 H 0.94279 0.27168 0.04412 0.0
C2508 C 0.14496 0.76787 0.56672 0.0
C2509 C 0.14877 0.75748 0.57838 0.0
C2510 C 0.13269 0.76318 0.55433 0.0
C2511 C 0.09591 0.73529 0.5448 0.0
H2512 H 0.09875 0.74605 0.50122 0.0
C2513 C 0.04054 0.72539 0.49892 0.0
C2514 C 0.04247 0.7178 0.48374 0.0
C2515 C 0.05388 0.73157 0.50953 0.0
C2516 C 0.09782 0.7429 0.51332 0.0
H2517 H 0.14278 0.7339 0.58595 0.0
H2518 H 0.12162 0.72559 0.56416 0.0
H2519 H 0.12181 0.75325 0.52143 0.0
H2520 H 0.05979 0.71145 0.46736 0.0
H2521 H 0.0833 0.72218 0.48603 0.0
H2522 H 0.07213 0.72468 0.53675 0.0
C2523 C 0.12799 0.73746 0.56473 0.0
C2524 C 0.11096 0.74714 0.52492 0.0
C2525 C 0.14025 0.74215 0.57712 0.0
C2526 C 0.058 0.71732 0.47899 0.0
C2527 C 0.07143 0.72345 0.48968 0.0
C2528 C 0.08282 0.73109 0.53325 0.0
C2529 C 0.12392 0.74799 0.5533 0.0
C2530 C 0.11015 0.74336 0.5408 0.0
C2531 C 0.0695 0.73022 0.50524 0.0
C2532 C 0.08356 0.73489 0.51739 0.0
H2533 H 0.15144 0.77968 0.56721 0.0
H2534 H 0.12979 0.77161 0.54579 0.0
H2535 H 0.09479 0.73238 0.55695 0.0
H2536 H 0.02866 0.72613 0.50277 0.0
H2537 H 0.05196 0.73709 0.52126 0.0
C2538 C 0.49761 0.3335 0.98937 0.0
C2539 C 0.48911 0.31891 0.99196 0.0
C2540 C 0.51411 0.33443 0.98803 0.0
C2541 C 0.54833 0.31007 0.98295 0.0
H2542 H 0.5721 0.34344 0.01328 0.0
C2543 C 0.60911 0.31698 0.02741 0.0
C2544 C 0.62062 0.31238 0.01726 0.0
C2545 C 0.59412 0.32056 0.02105 0.0
C2546 C 0.56564 0.33417 0.00461 0.0
H2547 H 0.49123 0.29371 0.99442 0.0
H2548 H 0.51985 0.29532 0.99192 0.0
H2549 H 0.54327 0.34387 0.00692 0.0
H2550 H 0.62546 0.30849 0.99235 0.0
H2551 H 0.5989 0.31427 0.98123 0.0
H2552 H 0.57063 0.29991 0.98138 0.0
C2553 C 0.51376 0.30602 0.99078 0.0
C2554 C 0.54916 0.33449 1.00086 0.0
C2555 C 0.49731 0.3051 0.99223 0.0
C2556 C 0.61682 0.31176 1.00053 0.0
C2557 C 0.60166 0.31515 0.99415 0.0
C2558 C 0.56486 0.30982 0.98663 0.0
C2559 C 0.52243 0.32077 0.98912 0.0
C2560 C 0.54023 0.32212 0.99045 0.0
C2561 C 0.59014 0.31945 0.00438 0.0
C2562 C 0.57354 0.32154 0.99797 0.0
H2563 H 0.4916 0.3443 0.98879 0.0
H2564 H 0.52045 0.34593 0.98656 0.0
H2565 H 0.54176 0.30048 0.97475 0.0
H2566 H 0.61139 0.31721 0.04032 0.0
H2567 H 0.58537 0.32351 0.02923 0.0
C2568 C 0.41706 0.5392 0.69596 0.0
C2569 C 0.40873 0.5457 0.70837 0.0
C2570 C 0.42573 0.526 0.69803 0.0
C2571 C 0.42791 0.49206 0.7228 0.0
H2572 H 0.46786 0.48695 0.70419 0.0
C2573 C 0.46277 0.43858 0.73469 0.0
C2574 C 0.46731 0.42985 0.72107 0.0
C2575 C 0.45787 0.45388 0.73377 0.0
C2576 C 0.45668 0.48821 0.70939 0.0
H2577 H 0.40328 0.54347 0.73284 0.0
H2578 H 0.41879 0.52089 0.73662 0.0
H2579 H 0.45484 0.51154 0.70153 0.0
H2580 H 0.47129 0.4307 0.69607 0.0
H2581 H 0.4627 0.4576 0.69443 0.0
H2582 H 0.42966 0.46879 0.73062 0.0
C2583 C 0.41837 0.52579 0.72515 0.0
C2584 C 0.44919 0.50226 0.70784 0.0
C2585 C 0.40963 0.5389 0.72305 0.0
C2586 C 0.4679 0.43719 0.70677 0.0
C2587 C 0.46296 0.45257 0.70584 0.0
C2588 C 0.43542 0.47812 0.72442 0.0
C2589 C 0.42635 0.51902 0.7126 0.0
C2590 C 0.43468 0.50434 0.71451 0.0
C2591 C 0.45739 0.46084 0.7192 0.0
C2592 C 0.44988 0.47601 0.71774 0.0
H2593 H 0.41686 0.54427 0.68458 0.0
H2594 H 0.43161 0.52104 0.68805 0.0
H2595 H 0.41657 0.49304 0.72776 0.0
H2596 H 0.46248 0.43333 0.74596 0.0
H2597 H 0.454 0.4601 0.74438 0.0
C2598 C 0.03017 0.84994 0.20284 0.0
C2599 C 0.01655 0.84677 0.21099 0.0
C2600 C 0.03747 0.86565 0.20321 0.0
C2601 C 0.02986 0.90807 0.21149 0.0
H2602 H 0.07594 0.91608 0.22241 0.0
C2603 C 0.05979 0.97244 0.2234 0.0
C2604 C 0.07 0.97556 0.23778 0.0
C2605 C 0.05528 0.95668 0.21664 0.0
C2606 C 0.06307 0.91403 0.21929 0.0
H2607 H 0.99958 0.85758 0.22544 0.0
H2608 H 0.01232 0.88486 0.22621 0.0
H2609 H 0.0633 0.88846 0.21734 0.0
H2610 H 0.08424 0.96474 0.25586 0.0
H2611 H 0.07624 0.93722 0.2442 0.0
H2612 H 0.02941 0.93349 0.2142 0.0
C2613 C 0.01736 0.87528 0.21947 0.0
C2614 C 0.05585 0.89822 0.21624 0.0
C2615 C 0.01016 0.85963 0.21919 0.0
C2616 C 0.07645 0.96269 0.2447 0.0
C2617 C 0.07187 0.94691 0.23799 0.0
C2618 C 0.03704 0.92382 0.21451 0.0
C2619 C 0.03115 0.87847 0.21159 0.0
C2620 C 0.03912 0.8951 0.21273 0.0
C2621 C 0.0608 0.94371 0.22418 0.0
C2622 C 0.05369 0.927 0.21881 0.0
H2623 H 0.0354 0.84024 0.19649 0.0
H2624 H 0.04803 0.86776 0.19696 0.0
H2625 H 0.01696 0.90604 0.20859 0.0
H2626 H 0.05484 0.98217 0.2177 0.0
H2627 H 0.047 0.95463 0.20581 0.0
C2628 C 0.5793 0.14194 0.76377 0.0
C2629 C 0.58013 0.1576 0.75916 0.0
C2630 C 0.56591 0.13098 0.75855 0.0
C2631 C 0.52327 0.12796 0.74236 0.0
H2632 H 0.53068 0.08462 0.72708 0.0
C2633 C 0.47409 0.0816 0.70697 0.0
C2634 C 0.47474 0.06539 0.70947 0.0
C2635 C 0.48606 0.09328 0.71448 0.0
C2636 C 0.52836 0.09659 0.73155 0.0
H2637 H 0.56744 0.17413 0.74568 0.0
H2638 H 0.54411 0.15488 0.73636 0.0
H2639 H 0.55341 0.10411 0.7371 0.0
H2640 H 0.48763 0.04879 0.72263 0.0
H2641 H 0.50831 0.06916 0.73599 0.0
H2642 H 0.49817 0.12039 0.73669 0.0
C2643 C 0.55378 0.15114 0.74412 0.0
C2644 C 0.54141 0.10777 0.73726 0.0
C2645 C 0.56722 0.1621 0.7493 0.0
C2646 C 0.48701 0.06119 0.72031 0.0
C2647 C 0.49888 0.07284 0.72788 0.0
C2648 C 0.51017 0.11673 0.73667 0.0
C2649 C 0.55302 0.13543 0.74863 0.0
C2650 C 0.53903 0.12358 0.74272 0.0
C2651 C 0.49883 0.08895 0.7247 0.0
C2652 C 0.51258 0.1009 0.7312 0.0
H2653 H 0.58911 0.13806 0.77124 0.0
H2654 H 0.56562 0.11901 0.76235 0.0
H2655 H 0.52106 0.14002 0.74665 0.0
H2656 H 0.46481 0.08512 0.69859 0.0
H2657 H 0.48571 0.10556 0.71169 0.0
C2658 C 0.02666 0.49482 0.29426 0.0
C2659 C 0.01727 0.48571 0.3038 0.0
C2660 C 0.0269 0.51149 0.29547 0.0
C2661 C 0.00572 0.54575 0.30967 0.0
H2662 H 0.04821 0.56888 0.31323 0.0
C2663 C 0.01856 0.61499 0.3085 0.0
C2664 C 0.03148 0.62263 0.31916 0.0
C2665 C 0.01528 0.59825 0.30704 0.0
C2666 C 0.03626 0.56261 0.31235 0.0
H2667 H 1.00024 0.48692 0.32161 0.0
H2668 H 1.0008 0.51618 0.32384 0.0
H2669 H 0.04525 0.53972 0.30927 0.0
H2670 H 0.05027 0.6189 0.3375 0.0
H2671 H 0.04462 0.5898 0.33491 0.0
H2672 H 0.99681 0.56882 0.31292 0.0
C2673 C 0.00792 0.51035 0.31538 0.0
C2674 C 0.03455 0.5459 0.30989 0.0
C2675 C 0.00772 0.49363 0.31422 0.0
C2676 C 0.0405 0.61331 0.32889 0.0
C2677 C 0.03725 0.59666 0.32742 0.0
C2678 C 0.00743 0.56255 0.31203 0.0
C2679 C 0.01775 0.51947 0.30623 0.0
C2680 C 0.01928 0.53727 0.30854 0.0
C2681 C 0.02488 0.58891 0.31621 0.0
C2682 C 0.02275 0.57113 0.31351 0.0
H2683 H 0.03427 0.48912 0.28623 0.0
H2684 H 0.03445 0.51819 0.28812 0.0
H2685 H 0.99379 0.5394 0.3086 0.0
H2686 H 0.01143 0.62187 0.30083 0.0
H2687 H 0.0057 0.59258 0.29826 0.0
C2688 C 0.36457 0.61866 0.31669 0.0
C2689 C 0.36125 0.63357 0.32391 0.0
C2690 C 0.37961 0.61674 0.31144 0.0
C2691 C 0.41708 0.63918 0.30168 0.0
H2692 H 0.43522 0.59961 0.30972 0.0
C2693 C 0.48384 0.62918 0.29572 0.0
C2694 C 0.48673 0.61411 0.2885 0.0
C2695 C 0.46833 0.63206 0.29921 0.0
C2696 C 0.43026 0.61066 0.30723 0.0
H2697 H 0.37104 0.65821 0.3311 0.0
H2698 H 0.39743 0.65483 0.32214 0.0
H2699 H 0.40856 0.60371 0.31725 0.0
H2700 H 0.47576 0.59042 0.27898 0.0
H2701 H 0.44872 0.59542 0.28505 0.0
H2702 H 0.43903 0.64617 0.29189 0.0
C2703 C 0.38831 0.64467 0.32027 0.0
C2704 C 0.41494 0.613 0.31151 0.0
C2705 C 0.3732 0.64662 0.32543 0.0
C2706 C 0.47384 0.60212 0.28459 0.0
C2707 C 0.4584 0.60495 0.28815 0.0
C2708 C 0.43248 0.63686 0.29747 0.0
C2709 C 0.39177 0.62965 0.31339 0.0
C2710 C 0.40811 0.62726 0.30874 0.0
C2711 C 0.45549 0.61989 0.29565 0.0
C2712 C 0.4392 0.62254 0.30014 0.0
H2713 H 0.35551 0.60845 0.31512 0.0
H2714 H 0.38172 0.60509 0.30587 0.0
H2715 H 0.41212 0.65023 0.2992 0.0
H2716 H 0.49355 0.63866 0.29887 0.0
H2717 H 0.46648 0.64366 0.30509 0.0
C2718 C 0.14212 0.32839 0.76185 0.0
C2719 C 0.15051 0.31498 0.75845 0.0
C2720 C 0.12598 0.32822 0.75612 0.0
C2721 C 0.08988 0.32259 0.7486 0.0
H2722 H 0.07797 0.30688 0.70385 0.0
C2723 C 0.02679 0.32792 0.71714 0.0
C2724 C 0.02668 0.33359 0.70196 0.0
C2725 C 0.0408 0.32287 0.72449 0.0
C2726 C 0.0811 0.31129 0.71637 0.0
H2727 H 0.1483 0.29066 0.74677 0.0
H2728 H 0.12004 0.2904 0.73668 0.0
H2729 H 0.10457 0.30341 0.71642 0.0
H2730 H 0.04097 0.33862 0.68258 0.0
H2731 H 0.06553 0.33012 0.69546 0.0
H2732 H 0.0667 0.33114 0.74835 0.0
C2733 C 0.12606 0.30111 0.74366 0.0
C2734 C 0.09629 0.30914 0.72363 0.0
C2735 C 0.14225 0.30127 0.74943 0.0
C2736 C 0.04076 0.33418 0.69426 0.0
C2737 C 0.05476 0.32915 0.70157 0.0
C2738 C 0.0747 0.32473 0.74135 0.0
C2739 C 0.11779 0.31465 0.74682 0.0
C2740 C 0.101 0.31512 0.73972 0.0
C2741 C 0.05499 0.32355 0.71683 0.0
C2742 C 0.07028 0.31945 0.72504 0.0
H2743 H 0.14817 0.33928 0.76848 0.0
H2744 H 0.12008 0.33897 0.75852 0.0
H2745 H 0.09306 0.32712 0.76109 0.0
H2746 H 0.01616 0.32765 0.72348 0.0
H2747 H 0.04055 0.31855 0.73621 0.0
C2748 C 0.74701 0.96712 0.69209 0.0
C2749 C 0.74297 0.96224 0.67564 0.0
C2750 C 0.76268 0.96677 0.69916 0.0
C2751 C 0.80098 0.94943 0.69311 0.0
H2752 H 0.81946 0.98568 0.72312 0.0
C2753 C 0.86915 0.96175 0.7139 0.0
C2754 C 0.87358 0.96762 0.73005 0.0
C2755 C 0.85297 0.95989 0.70767 0.0
C2756 C 0.81442 0.97535 0.71493 0.0
H2757 H 0.75219 0.95265 0.65388 0.0
H2758 H 0.77956 0.95242 0.66611 0.0
H2759 H 0.79169 0.9847 0.71162 0.0
H2760 H 0.86469 0.97569 0.75244 0.0
H2761 H 0.83647 0.97231 0.74165 0.0
H2762 H 0.82387 0.94023 0.6963 0.0
C2763 C 0.77059 0.95639 0.67359 0.0
C2764 C 0.79848 0.97478 0.70834 0.0
C2765 C 0.75493 0.95672 0.66652 0.0
C2766 C 0.86157 0.97118 0.73994 0.0
C2767 C 0.84544 0.96935 0.73372 0.0
C2768 C 0.81697 0.95002 0.69969 0.0
C2769 C 0.77471 0.96153 0.68997 0.0
C2770 C 0.79156 0.96184 0.69731 0.0
C2771 C 0.84095 0.96391 0.71746 0.0
C2772 C 0.82388 0.96301 0.71066 0.0
H2773 H 0.73813 0.97154 0.69945 0.0
H2774 H 0.76538 0.97063 0.71186 0.0
H2775 H 0.79597 0.93917 0.68482 0.0
H2776 H 0.87816 0.95894 0.70597 0.0
H2777 H 0.84993 0.95579 0.69506 0.0
C2778 C 0.7306 0.03306 0.28179 0.0
C2779 C 0.74161 0.02366 0.28904 0.0
C2780 C 0.71429 0.03067 0.28387 0.0
C2781 C 0.68378 1.00057 0.29636 0.0
H2782 H 0.65861 0.03687 0.29951 0.0
C2783 C 0.6176 0.01654 0.31466 0.0
C2784 C 0.60768 0.00407 0.30534 0.0
C2785 C 0.63402 0.01875 0.31295 0.0
C2786 C 0.6655 0.02661 0.29871 0.0
H2787 H 0.74415 0.0045 0.30434 0.0
H2788 H 0.71581 1.00055 0.30829 0.0
H2789 H 0.68703 0.04127 0.29603 0.0
H2790 H 0.6072 0.98395 0.28711 0.0
H2791 H 0.63585 0.98781 0.28415 0.0
H2792 H 0.66224 0.986 0.29945 0.0
C2793 C 0.71968 0.0096 0.30074 0.0
C2794 C 0.68176 0.0291 0.29649 0.0
C2795 C 0.736 0.01204 0.2987 0.0
C2796 C 0.61452 0.99368 0.29446 0.0
C2797 C 0.63095 0.99584 0.29282 0.0
C2798 C 0.66751 0.99809 0.29856 0.0
C2799 C 0.70858 0.01881 0.29327 0.0
C2800 C 0.69115 0.01612 0.29534 0.0
C2801 C 0.64086 0.00847 0.30196 0.0
C2802 C 0.65819 0.01109 0.29979 0.0
H2803 H 0.73458 0.04221 0.27437 0.0
H2804 H 0.70614 0.0379 0.27779 0.0
H2805 H 0.69054 0.99024 0.29531 0.0
H2806 H 0.61262 0.02468 0.32316 0.0
H2807 H 0.64138 0.02848 0.32029 0.0
C2808 C 0.34117 0.36693 0.65371 0.0
C2809 C 0.33336 0.35349 0.64388 0.0
C2810 C 0.33681 0.38232 0.65175 0.0
C2811 C 0.31864 0.40538 0.62115 0.0
H2812 H 0.31616 0.43718 0.65707 0.0
C2813 C 0.29958 0.46799 0.61126 0.0
C2814 C 0.30792 0.48119 0.62094 0.0
C2815 C 0.30158 0.45234 0.61476 0.0
C2816 C 0.31697 0.42849 0.64691 0.0
H2817 H 0.3146 0.34568 0.62451 0.0
H2818 H 0.3069 0.37255 0.62117 0.0
H2819 H 0.32144 0.40992 0.66205 0.0
H2820 H 0.32484 0.48842 0.64202 0.0
H2821 H 0.32863 0.46108 0.64798 0.0
H2822 H 0.31454 0.42391 0.60599 0.0
C2823 C 0.31649 0.37117 0.63032 0.0
C2824 C 0.31995 0.41286 0.64977 0.0
C2825 C 0.32078 0.35576 0.63235 0.0
C2826 C 0.31818 0.47847 0.63437 0.0
C2827 C 0.32028 0.46279 0.63782 0.0
C2828 C 0.31575 0.421 0.61829 0.0
C2829 C 0.3246 0.38465 0.63986 0.0
C2830 C 0.32085 0.40113 0.63692 0.0
C2831 C 0.31211 0.44951 0.62797 0.0
C2832 C 0.3149 0.43279 0.63112 0.0
H2833 H 0.35081 0.36556 0.66281 0.0
H2834 H 0.34337 0.39246 0.65922 0.0
H2835 H 0.31955 0.39671 0.61099 0.0
H2836 H 0.29154 0.46978 0.60088 0.0
H2837 H 0.29486 0.44245 0.60707 0.0
C2838 C 0.29588 0.73015 0.99829 0.0
C2839 C 0.28695 0.73553 0.01067 0.0
C2840 C 0.29882 0.71405 0.99607 0.0
C2841 C 0.29994 0.6777 0.01785 0.0
H2842 H 0.30181 0.65633 0.97527 0.0
C2843 C 0.30427 0.60988 0.98619 0.0
C2844 C 0.31703 0.60536 0.99621 0.0
C2845 C 0.30037 0.62572 0.98756 0.0
C2846 C 0.30124 0.66213 0.98723 0.0
H2847 H 0.27433 0.72831 0.03057 0.0
H2848 H 0.27931 0.70027 0.02666 0.0
H2849 H 0.29462 0.6838 0.97824 0.0
H2850 H 0.33576 0.61375 0.0154 0.0
H2851 H 0.32893 0.64144 0.01785 0.0
H2852 H 0.30651 0.65599 0.0268 0.0
C2853 C 0.28414 0.70844 0.01868 0.0
C2854 C 0.29727 0.67793 0.98896 0.0
C2855 C 0.28116 0.72451 0.02086 0.0
C2856 C 0.32583 0.61694 0.00758 0.0
C2857 C 0.32187 0.63274 0.00902 0.0
C2858 C 0.304 0.66196 0.01612 0.0
C2859 C 0.29302 0.70298 0.00627 0.0
C2860 C 0.29666 0.68596 0.00431 0.0
C2861 C 0.30908 0.63729 0.99905 0.0
C2862 C 0.30472 0.65401 1.0008 0.0
H2863 H 0.30037 0.73832 0.99015 0.0
H2864 H 0.30594 0.71038 0.98656 0.0
H2865 H 0.29984 0.68353 0.02987 0.0
H2866 H 0.29727 0.60123 0.97729 0.0
H2867 H 0.29036 0.62885 0.97981 0.0
C2868 C 0.72628 0.14875 0.31922 0.0
C2869 C 0.7428 0.15183 0.31791 0.0
C2870 C 0.71934 0.13309 0.31979 0.0
C2871 C 0.7256 0.09012 0.31209 0.0
H2872 H 0.69725 0.08507 0.34549 0.0
C2873 C 0.70621 0.02852 0.3337 0.0
C2874 C 0.69029 0.02572 0.33729 0.0
C2875 C 0.71218 0.04366 0.32999 0.0
C2876 C 0.70493 0.08626 0.33594 0.0
H2877 H 0.76483 0.14074 0.31535 0.0
H2878 H 0.75274 0.1134 0.31659 0.0
H2879 H 0.70823 0.1118 0.34084 0.0
H2880 H 0.66819 0.03643 0.34014 0.0
H2881 H 0.67849 0.06286 0.33353 0.0
H2882 H 0.72235 0.06448 0.30732 0.0
C2883 C 0.74515 0.12311 0.31711 0.0
C2884 C 0.71123 0.1016 0.33327 0.0
C2885 C 0.7521 0.13879 0.31656 0.0
C2886 C 0.6805 0.03832 0.33734 0.0
C2887 C 0.68643 0.05344 0.33363 0.0
C2888 C 0.71924 0.07473 0.31474 0.0
C2889 C 0.72875 0.12013 0.31907 0.0
C2890 C 0.72167 0.10374 0.32135 0.0
C2891 C 0.70238 0.05632 0.32998 0.0
C2892 C 0.70887 0.07263 0.32675 0.0
H2893 H 0.71878 0.1585 0.32043 0.0
H2894 H 0.70663 0.13117 0.32108 0.0
H2895 H 0.73349 0.09138 0.30272 0.0
H2896 H 0.71413 0.01909 0.33398 0.0
H2897 H 0.72458 0.04552 0.32748 0.0
C2898 C 0.69208 0.7494 0.97626 0.0
C2899 C 0.67565 0.74556 0.97118 0.0
C2900 C 0.69941 0.76496 0.9758 0.0
C2901 C 0.69413 0.80311 0.95786 0.0
H2902 H 0.72394 0.82164 0.99426 0.0
C2903 C 0.71554 0.87113 0.96961 0.0
C2904 C 0.73171 0.87543 0.97546 0.0
C2905 C 0.70912 0.85502 0.96796 0.0
C2906 C 0.7158 0.81659 0.9839 0.0
H2907 H 0.65418 0.75498 0.96111 0.0
H2908 H 0.66684 0.78214 0.9607 0.0
H2909 H 0.71211 0.79401 0.99347 0.0
H2910 H 0.75395 0.86637 0.98377 0.0
H2911 H 0.74283 0.83826 0.98079 0.0
H2912 H 0.69769 0.82584 0.94845 0.0
C2913 C 0.67412 0.77311 0.96491 0.0
C2914 C 0.70903 0.80072 0.98344 0.0
C2915 C 0.66681 0.75757 0.96535 0.0
C2916 C 0.74143 0.86335 0.97927 0.0
C2917 C 0.73503 0.84729 0.97767 0.0
C2918 C 0.70088 0.81902 0.95836 0.0
C2919 C 0.69048 0.77704 0.97025 0.0
C2920 C 0.69807 0.79379 0.97044 0.0
C2921 C 0.71875 0.84294 0.97219 0.0
C2922 C 0.71177 0.82595 0.97141 0.0
H2923 H 0.69922 0.74048 0.98092 0.0
H2924 H 0.71208 0.76751 0.97981 0.0
H2925 H 0.68591 0.79809 0.94756 0.0
H2926 H 0.70774 0.88019 0.9666 0.0
H2927 H 0.69651 0.85208 0.96383 0.0
C2928 C 0.62872 0.31831 0.3598 0.0
C2929 C 0.64301 0.32578 0.35524 0.0
C2930 C 0.62783 0.31449 0.37553 0.0
C2931 C 0.64593 0.32688 0.41668 0.0
H2932 H 0.6226 0.28747 0.42608 0.0
C2933 C 0.63867 0.3129 0.48192 0.0
C2934 C 0.62341 0.30614 0.48476 0.0
C2935 C 0.64247 0.31414 0.46619 0.0
C2936 C 0.62905 0.2986 0.42367 0.0
H2937 H 0.66766 0.33481 0.36353 0.0
H2938 H 0.66612 0.32806 0.39106 0.0
H2939 H 0.62676 0.29149 0.39836 0.0
H2940 H 0.60024 0.29532 0.47351 0.0
H2941 H 0.60671 0.29772 0.44613 0.0
H2942 H 0.64785 0.33421 0.44191 0.0
C2943 C 0.65559 0.32524 0.38245 0.0
C2944 C 0.63146 0.30087 0.40778 0.0
C2945 C 0.65652 0.32896 0.36666 0.0
C2946 C 0.61211 0.30052 0.47163 0.0
C2947 C 0.61588 0.3018 0.45594 0.0
C2948 C 0.64345 0.32464 0.43257 0.0
C2949 C 0.64117 0.31812 0.3871 0.0
C2950 C 0.63974 0.31513 0.40408 0.0
C2951 C 0.63109 0.30868 0.453 0.0
C2952 C 0.63477 0.31057 0.43625 0.0
H2953 H 0.61815 0.31559 0.35123 0.0
H2954 H 0.6165 0.30913 0.37875 0.0
H2955 H 0.65219 0.33809 0.41421 0.0
H2956 H 0.64766 0.31729 0.49181 0.0
H2957 H 0.65436 0.31933 0.46437 0.0
C2958 C 0.99758 0.29623 0.72926 0.0
C2959 C 0.0104 0.28768 0.73427 0.0
C2960 C 0.99471 0.29908 0.71317 0.0
C2961 C 0.01531 0.30063 0.67601 0.0
H2962 H 0.97208 0.30107 0.65562 0.0
C2963 C 0.00321 0.32182 0.61315 0.0
C2964 C 0.99189 0.31193 0.60238 0.0
C2965 C 0.00482 0.31955 0.62946 0.0
C2966 C 0.98422 0.30096 0.66115 0.0
H2967 H 0.03033 0.27551 0.7264 0.0
H2968 H 0.02534 0.28038 0.6984 0.0
H2969 H 0.97609 0.29476 0.68334 0.0
H2970 H 0.97303 0.29217 0.60029 0.0
H2971 H 0.97586 0.2882 0.62873 0.0
H2972 H 0.02342 0.30658 0.65374 0.0
C2973 C 0.01752 0.28501 0.70684 0.0
C2974 C 0.98654 0.29748 0.6771 0.0
C2975 C 0.02032 0.2821 0.72288 0.0
C2976 C 0.98191 0.29998 0.60828 0.0
C2977 C 0.98345 0.29776 0.6246 0.0
C2978 C 0.01299 0.30419 0.66013 0.0
C2979 C 0.00472 0.29362 0.70175 0.0
C2980 C 1.00213 0.29722 0.68473 0.0
C2981 C 0.99506 0.30739 0.63535 0.0
C2982 C 0.99743 0.30431 0.65248 0.0
H2983 H 0.98962 0.30053 0.73774 0.0
H2984 H 0.98485 0.30589 0.7098 0.0
H2985 H 0.0275 0.30078 0.6815 0.0
H2986 H 0.01101 0.33115 0.6089 0.0
H2987 H 0.01374 0.32729 0.63748 0.0
C2988 C 0.33531 0.75757 0.14137 0.0
C2989 C 0.32241 0.75398 0.15038 0.0
C2990 C 0.33472 0.75139 0.12531 0.0
C2991 C 0.31553 0.71803 0.09652 0.0
H2992 H 0.33472 0.74334 0.06567 0.0
C2993 C 0.33731 0.68956 0.0386 0.0
C2994 C 0.33571 0.69748 0.02469 0.0
C2995 C 0.33312 0.69661 0.05312 0.0
C2996 C 0.32909 0.73615 0.07403 0.0
H2997 H 0.29862 0.7413 0.14943 0.0
H2998 H 0.29762 0.73044 0.1213 0.0
H2999 H 0.33184 0.7559 0.09239 0.0
H3000 H 0.32882 0.71911 0.015 0.0
H3001 H 0.32104 0.73128 0.04025 0.0
H3002 H 0.31282 0.69828 0.07815 0.0
C3003 C 0.30825 0.73794 0.12677 0.0
C3004 C 0.32762 0.74331 0.08943 0.0
C3005 C 0.30883 0.74415 0.14287 0.0
C3006 C 0.32985 0.71259 0.0255 0.0
C3007 C 0.32558 0.71964 0.04 0.0
C3008 C 0.317 0.71087 0.08111 0.0
C3009 C 0.32124 0.74143 0.11783 0.0
C3010 C 0.32115 0.73426 0.10097 0.0
C3011 C 0.32732 0.71179 0.05404 0.0
C3012 C 0.32411 0.71976 0.06979 0.0
H3013 H 0.3461 0.76481 0.14684 0.0
H3014 H 0.34508 0.75405 0.1189 0.0
H3015 H 0.31056 0.71069 0.10513 0.0
H3016 H 0.34189 0.67793 0.03826 0.0
H3017 H 0.33488 0.69035 0.06373 0.0
C3018 C 0.96905 0.66979 0.76254 0.0
C3019 C 0.95731 0.67229 0.75024 0.0
C3020 C 0.96907 0.67738 0.77804 0.0
C3021 C 0.9548 0.71194 0.80068 0.0
H3022 H 0.96425 0.68815 0.83718 0.0
C3023 C 0.97232 0.74257 0.86498 0.0
C3024 C 0.96655 0.73502 0.8778 0.0
C3025 C 0.96959 0.735 0.84933 0.0
C3026 C 0.96141 0.69492 0.82713 0.0
H3027 H 0.93635 0.68474 0.74464 0.0
H3028 H 0.93645 0.69808 0.77173 0.0
H3029 H 0.96252 0.67465 0.81004 0.0
H3030 H 0.9531 0.71375 0.88432 0.0
H3031 H 0.94824 0.70051 0.85691 0.0
H3032 H 0.95365 0.73221 0.81779 0.0
C3033 C 0.94572 0.69033 0.76931 0.0
C3034 C 0.96062 0.68723 0.81157 0.0
C3035 C 0.94568 0.68271 0.75379 0.0
C3036 C 0.95771 0.71986 0.87467 0.0
C3037 C 0.95501 0.71225 0.85899 0.0
C3038 C 0.95564 0.71965 0.81625 0.0
C3039 C 0.95737 0.68768 0.78163 0.0
C3040 C 0.95747 0.69569 0.79816 0.0
C3041 C 0.96106 0.71968 0.84617 0.0
C3042 C 0.95911 0.71126 0.82965 0.0
H3043 H 0.97836 0.66208 0.76016 0.0
H3044 H 0.97841 0.67533 0.78717 0.0
H3045 H 0.95245 0.71883 0.79061 0.0
H3046 H 0.97922 0.75424 0.86711 0.0
H3047 H 0.97459 0.74097 0.83979 0.0
C3048 C 0.64261 0.36357 0.66841 0.0
C3049 C 0.64535 0.34751 0.66486 0.0
C3050 C 0.62775 0.36744 0.67287 0.0
C3051 C 0.58907 0.35004 0.68577 0.0
H3052 H 0.57415 0.38872 0.67063 0.0
C3053 C 0.53086 0.37474 0.70484 0.0
C3054 C 0.52183 0.38265 0.69372 0.0
C3055 C 0.54579 0.36993 0.7015 0.0
C3056 C 0.57797 0.37775 0.67479 0.0
H3057 H 0.63498 0.32284 0.66329 0.0
H3058 H 0.60869 0.32953 0.67049 0.0
H3059 H 0.60009 0.3811 0.66446 0.0
H3060 H 0.52102 0.39139 0.6703 0.0
H3061 H 0.54668 0.38244 0.66411 0.0
H3062 H 0.56651 0.34632 0.69541 0.0
C3063 C 0.6181 0.33919 0.6703 0.0
C3064 C 0.59307 0.37351 0.6715 0.0
C3065 C 0.63312 0.33531 0.66612 0.0
C3066 C 0.52782 0.38539 0.67911 0.0
C3067 C 0.54261 0.38036 0.67565 0.0
C3068 C 0.57383 0.35417 0.68887 0.0
C3069 C 0.61515 0.35534 0.67353 0.0
C3070 C 0.59892 0.35967 0.67703 0.0
C3071 C 0.55192 0.37274 0.68687 0.0
C3072 C 0.56807 0.36812 0.68346 0.0
H3073 H 0.65196 0.37315 0.66763 0.0
H3074 H 0.62616 0.37998 0.6757 0.0
H3075 H 0.59318 0.33937 0.69038 0.0
H3076 H 0.52658 0.37258 0.71628 0.0
H3077 H 0.55267 0.36434 0.71056 0.0
C3078 C 0.87159 0.69962 0.26364 0.0
C3079 C 0.86342 0.68688 0.2531 0.0
C3080 C 0.88753 0.69898 0.26978 0.0
C3081 C 0.92397 0.67824 0.26465 0.0
H3082 H 0.9318 0.68776 0.31086 0.0
C3083 C 0.98675 0.68001 0.30074 0.0
C3084 C 0.98712 0.67495 0.3162 0.0
C3085 C 0.97206 0.68054 0.29159 0.0
C3086 C 0.92984 0.68497 0.29796 0.0
H3087 H 0.86585 0.66367 0.24043 0.0
H3088 H 0.89366 0.66269 0.25101 0.0
H3089 H 0.90598 0.69186 0.29726 0.0
H3090 H 0.97279 0.66541 0.33383 0.0
H3091 H 0.94711 0.66627 0.31792 0.0
H3092 H 0.94784 0.67114 0.26544 0.0
C3093 C 0.88777 0.67322 0.25441 0.0
C3094 C 0.91508 0.68753 0.29014 0.0
C3095 C 0.87181 0.67381 0.24833 0.0
C3096 C 0.97273 0.66952 0.32199 0.0
C3097 C 0.95806 0.67013 0.31292 0.0
C3098 C 0.93884 0.6758 0.27249 0.0
C3099 C 0.89568 0.68564 0.26547 0.0
C3100 C 0.9119 0.68405 0.27343 0.0
C3101 C 0.95752 0.67619 0.29785 0.0
C3102 C 0.94187 0.67892 0.28928 0.0
H3103 H 0.8656 0.71 0.26732 0.0
H3104 H 0.89341 0.70885 0.27811 0.0
H3105 H 0.92188 0.67555 0.25173 0.0
H3106 H 0.99776 0.6841 0.29595 0.0
H3107 H 0.97208 0.6852 0.28002 0.0
C3108 C 0.25224 0.05374 0.33541 0.0
C3109 C 0.25602 0.04225 0.3459 0.0
C3110 C 0.23639 0.05436 0.32897 0.0
C3111 C 0.19425 0.04162 0.33511 0.0
H3112 H 0.18586 0.04655 0.2898 0.0
C3113 C 0.13002 0.04457 0.30479 0.0
C3114 C 0.12609 0.03495 0.29014 0.0
C3115 C 0.14596 0.04727 0.31173 0.0
C3116 C 0.188 0.04516 0.30247 0.0
H3117 H 0.24608 0.02226 0.35766 0.0
H3118 H 0.21848 0.02336 0.34646 0.0
H3119 H 0.21349 0.04746 0.30186 0.0
H3120 H 0.13583 0.02099 0.27099 0.0
H3121 H 0.16348 0.02561 0.28308 0.0
H3122 H 0.16873 0.03881 0.3356 0.0
C3123 C 0.22773 0.03208 0.34343 0.0
C3124 C 0.20384 0.04584 0.30942 0.0
C3125 C 0.24356 0.03144 0.34984 0.0
C3126 C 0.13843 0.02842 0.28233 0.0
C3127 C 0.15433 0.03117 0.28921 0.0
C3128 C 0.1784 0.04099 0.32817 0.0
C3129 C 0.22395 0.04353 0.3329 0.0
C3130 C 0.20715 0.04385 0.32577 0.0
C3131 C 0.15827 0.04049 0.30406 0.0
C3132 C 0.17509 0.04251 0.31172 0.0
H3133 H 0.26151 0.06239 0.33232 0.0
H3134 H 0.23385 0.06345 0.32105 0.0
H3135 H 0.19639 0.04025 0.34778 0.0
H3136 H 0.12073 0.04977 0.31101 0.0
H3137 H 0.14864 0.05464 0.3231 0.0
C3138 C 0.26764 0.0206 0.70786 0.0
C3139 C 0.26273 0.00536 0.71229 0.0
C3140 C 0.2835 0.02455 0.70484 0.0
C3141 C 0.31897 0.00539 0.69299 0.0
H3142 H 0.3406 0.04836 0.70339 0.0
C3143 C 0.37906 0.02387 0.66879 0.0
C3144 C 0.39096 0.03245 0.67997 0.0
C3145 C 0.36312 0.02174 0.67237 0.0
C3146 C 0.33475 0.03628 0.70047 0.0
H3147 H 0.27067 0.98248 0.71756 0.0
H3148 H 0.29845 0.98938 0.71239 0.0
H3149 H 0.31411 0.04191 0.71211 0.0
H3150 H 0.39544 0.04598 0.7035 0.0
H3151 H 0.36781 0.04202 0.70986 0.0
H3152 H 0.3397 0.99966 0.68162 0.0
C3153 C 0.28998 0.99821 0.71099 0.0
C3154 C 0.31951 0.0326 0.70538 0.0
C3155 C 0.27407 0.99423 0.71391 0.0
C3156 C 0.38656 0.03929 0.69461 0.0
C3157 C 0.37067 0.03711 0.69822 0.0
C3158 C 0.33417 0.00907 0.68808 0.0
C3159 C 0.29484 0.01333 0.70614 0.0
C3160 C 0.3114 0.01711 0.70166 0.0
C3161 C 0.35881 0.02808 0.68727 0.0
C3162 C 0.34227 0.02453 0.69179 0.0
H3163 H 0.25914 0.02941 0.70648 0.0
H3164 H 0.28672 0.03627 0.70107 0.0
H3165 H 0.31309 0.99339 0.68975 0.0
H3166 H 0.38212 0.01859 0.65737 0.0
H3167 H 0.35421 0.01499 0.66354 0.0
C3168 C 0.68488 0.64571 0.38173 0.0
C3169 C 0.67642 0.6488 0.36732 0.0
C3170 C 0.689 0.63029 0.3839 0.0
C3171 C 0.69218 0.59011 0.36243 0.0
H3172 H 0.68586 0.57569 0.40406 0.0
C3173 C 0.70651 0.52715 0.37929 0.0
C3174 C 0.69553 0.5192 0.38824 0.0
C3175 C 0.7053 0.54319 0.37654 0.0
C3176 C 0.6876 0.57948 0.39233 0.0
H3177 H 0.66596 0.63822 0.34374 0.0
H3178 H 0.67293 0.61122 0.34759 0.0
H3179 H 0.68187 0.60315 0.39934 0.0
H3180 H 0.67466 0.52162 0.40117 0.0
H3181 H 0.67235 0.54942 0.39618 0.0
H3182 H 0.69732 0.56616 0.35528 0.0
C3183 C 0.67664 0.62077 0.35713 0.0
C3184 C 0.68553 0.59533 0.38968 0.0
C3185 C 0.67261 0.63624 0.35492 0.0
C3186 C 0.68332 0.52751 0.39429 0.0
C3187 C 0.68208 0.54347 0.39152 0.0
C3188 C 0.6942 0.5742 0.36507 0.0
C3189 C 0.68465 0.61754 0.37175 0.0
C3190 C 0.68768 0.60084 0.37467 0.0
C3191 C 0.6931 0.55156 0.38269 0.0
C3192 C 0.69177 0.56865 0.38001 0.0
H3193 H 0.68821 0.65522 0.3914 0.0
H3194 H 0.69548 0.62834 0.39518 0.0
H3195 H 0.6941 0.59399 0.35077 0.0
H3196 H 0.71609 0.52105 0.37452 0.0
H3197 H 0.71408 0.5491 0.36983 0.0
C3198 C 0.70497 0.26838 0.02764 0.0
C3199 C 0.70647 0.26225 0.01179 0.0
C3200 C 0.70199 0.28431 0.03118 0.0
C3201 C 0.68575 0.3181 0.01151 0.0
H3202 H 0.70317 0.3429 0.05149 0.0
C3203 C 0.66866 0.38199 0.02774 0.0
C3204 C 0.68139 0.39344 0.03417 0.0
C3205 C 0.67072 0.36562 0.02651 0.0
C3206 C 0.69825 0.33616 0.04023 0.0
H3207 H 0.70656 0.26822 0.98729 0.0
H3208 H 0.70131 0.29601 0.9934 0.0
H3209 H 0.71001 0.31563 0.04583 0.0
H3210 H 0.70622 0.39674 0.04464 0.0
H3211 H 0.70994 0.36836 0.04212 0.0
H3212 H 0.67449 0.33882 0.00564 0.0
C3213 C 0.70211 0.28843 0.00311 0.0
C3214 C 0.70204 0.32042 0.03704 0.0
C3215 C 0.70511 0.27248 0.99957 0.0
C3216 C 0.69613 0.38822 0.03966 0.0
C3217 C 0.69823 0.37189 0.03833 0.0
C3218 C 0.68201 0.33383 0.01467 0.0
C3219 C 0.7002 0.2945 0.01892 0.0
C3220 C 0.69601 0.31122 0.02252 0.0
C3221 C 0.68562 0.36038 0.03157 0.0
C3222 C 0.6884 0.34315 0.02896 0.0
H3223 H 0.70592 0.26079 0.03734 0.0
H3224 H 0.70074 0.28848 0.04352 0.0
H3225 H 0.68059 0.31139 1.00035 0.0
H3226 H 0.65715 0.38572 0.02352 0.0
H3227 H 0.66068 0.35707 0.02148 0.0
C3228 C 0.25305 0.86299 0.69048 0.0
C3229 C 0.24033 0.85308 0.68145 0.0
C3230 C 0.25428 0.87965 0.69004 0.0
C3231 C 0.24152 0.90989 0.66379 0.0
H3232 H 0.25831 0.94018 0.70045 0.0
C3233 C 0.25002 0.97765 0.65816 0.0
C3234 C 0.26505 0.98537 0.66459 0.0
C3235 C 0.24498 0.9623 0.66205 0.0
C3236 C 0.25362 0.93185 0.69011 0.0
H3237 H 0.21876 0.8531 0.66509 0.0
H3238 H 0.22064 0.88204 0.66475 0.0
H3239 H 0.25327 0.91167 0.7039 0.0
H3240 H 0.28665 0.9831 0.67993 0.0
H3241 H 0.27787 0.95649 0.68697 0.0
H3242 H 0.24213 0.92994 0.64994 0.0
C3243 C 0.22982 0.87693 0.67198 0.0
C3244 C 0.25078 0.91552 0.69207 0.0
C3245 C 0.22862 0.86031 0.67236 0.0
C3246 C 0.27481 0.97766 0.67524 0.0
C3247 C 0.26978 0.96236 0.6792 0.0
C3248 C 0.24431 0.92617 0.66185 0.0
C3249 C 0.24281 0.88679 0.68057 0.0
C3250 C 0.24487 0.90431 0.67888 0.0
C3251 C 0.25494 0.95436 0.67238 0.0
C3252 C 0.25059 0.93732 0.67493 0.0
H3253 H 0.26216 0.85787 0.69777 0.0
H3254 H 0.26452 0.88685 0.69671 0.0
H3255 H 0.23726 0.90159 0.6533 0.0
H3256 H 0.24231 0.98335 0.64985 0.0
H3257 H 0.23341 0.95652 0.65672 0.0
C3258 C 0.3447 0.2501 0.04166 0.0
C3259 C 0.35067 0.25671 0.02838 0.0
C3260 C 0.33871 0.23389 0.04052 0.0
C3261 C 0.32344 0.19924 0.0108 0.0
H3262 H 0.33605 0.1736 0.04498 0.0
C3263 C 0.31748 0.13058 1.0011 0.0
C3264 C 0.31122 0.12205 0.01306 0.0
C3265 C 0.32164 0.14712 0.00386 0.0
C3266 C 0.33227 0.18065 0.03543 0.0
H3267 H 0.35457 0.25162 0.00337 0.0
H3268 H 0.34444 0.22341 1.00145 0.0
H3269 H 0.34401 0.20252 0.04808 0.0
H3270 H 0.30473 0.124 0.03747 0.0
H3271 H 0.3121 0.15306 0.04235 0.0
H3272 H 0.31196 0.17738 0.99803 0.0
C3273 C 0.34424 0.23071 0.01272 0.0
C3274 C 0.3368 0.19721 0.03721 0.0
C3275 C 0.35024 0.24686 0.01387 0.0
C3276 C 0.30955 0.13029 0.02803 0.0
C3277 C 0.31379 0.1469 0.03083 0.0
C3278 C 0.31898 0.18272 0.00901 0.0
C3279 C 0.33849 0.224 0.02604 0.0
C3280 C 0.33265 0.20665 0.02479 0.0
C3281 C 0.31966 0.15551 0.01867 0.0
C3282 C 0.32356 0.1732 0.02118 0.0
H3283 H 0.34499 0.25735 0.05304 0.0
H3284 H 0.33424 0.22911 0.05096 0.0
H3285 H 0.31975 0.2062 1.00115 0.0
H3286 H 0.31893 0.12448 0.98947 0.0
H3287 H 0.3264 0.15335 0.99435 0.0
C3288 C 0.34258 0.67185 0.63362 0.0
C3289 C 0.34164 0.65576 0.63707 0.0
C3290 C 0.3445 0.67577 0.61804 0.0
C3291 C 0.34272 0.65757 0.57539 0.0
H3292 H 0.37158 0.69528 0.57102 0.0
C3293 C 0.375 0.66676 0.51884 0.0
C3294 C 0.37422 0.6816 0.5126 0.0
C3295 C 0.36934 0.66431 0.53361 0.0
C3296 C 0.36336 0.68481 0.57206 0.0
H3297 H 0.34107 0.63114 0.62648 0.0
H3298 H 0.34524 0.63794 0.59975 0.0
H3299 H 0.36454 0.68969 0.59757 0.0
H3300 H 0.36714 0.70563 0.51694 0.0
H3301 H 0.35761 0.70145 0.54309 0.0
H3302 H 0.34228 0.65235 0.5499 0.0
C3303 C 0.34424 0.64761 0.60893 0.0
C3304 C 0.35923 0.68162 0.58727 0.0
C3305 C 0.34213 0.64369 0.62442 0.0
C3306 C 0.3678 0.69403 0.52145 0.0
C3307 C 0.36241 0.69168 0.53641 0.0
C3308 C 0.34707 0.66063 0.56024 0.0
C3309 C 0.34565 0.66371 0.60553 0.0
C3310 C 0.34901 0.66783 0.58919 0.0
C3311 C 0.36307 0.67676 0.54257 0.0
C3312 C 0.35757 0.67417 0.55846 0.0
H3313 H 0.34231 0.68149 0.64304 0.0
H3314 H 0.34522 0.68828 0.61587 0.0
H3315 H 0.33451 0.64706 0.57626 0.0
H3316 H 0.37993 0.65701 0.51225 0.0
H3317 H 0.37013 0.65276 0.53818 0.0
C3318 C 0.98569 0.72052 0.27912 0.0
C3319 C 0.97023 0.72204 0.27193 0.0
C3320 C 0.98835 0.71912 0.29553 0.0
C3321 C 0.96669 0.70877 0.33049 0.0
H3322 H 0.00821 0.72353 0.35375 0.0
C3323 C 0.98674 0.68763 0.39175 0.0
C3324 C 0.99537 0.69897 0.40346 0.0
C3325 C 0.98333 0.69144 0.37606 0.0
C3326 C 0.99649 0.71944 0.34747 0.0
H3327 H 0.94538 0.72333 0.27633 0.0
H3328 H 0.94997 0.72115 0.30504 0.0
H3329 H 0.00262 0.72946 0.32619 0.0
H3330 H 0.0071 0.72327 0.40803 0.0
H3331 H 1.00098 0.73001 0.38068 0.0
H3332 H 0.96051 0.69902 0.35195 0.0
C3333 C 0.96009 0.72076 0.29801 0.0
C3334 C 0.99333 0.72264 0.33154 0.0
C3335 C 0.95741 0.722 0.28151 0.0
C3336 C 1.00049 0.71424 0.39923 0.0
C3337 C 0.99705 0.71807 0.38354 0.0
C3338 C 0.96984 0.70558 0.34642 0.0
C3339 C 0.97561 0.71926 0.30526 0.0
C3340 C 0.97848 0.71708 0.32269 0.0
C3341 C 0.98842 0.70672 0.37177 0.0
C3342 C 0.98485 0.7107 0.35504 0.0
H3343 H 0.99577 0.72023 0.27199 0.0
H3344 H 1.00037 0.71745 0.30043 0.0
H3345 H 0.95514 0.70422 0.3242 0.0
H3346 H 0.9827 0.67576 0.39472 0.0
H3347 H 0.97688 0.68233 0.36723 0.0
C3348 C 0.68164 0.2327 0.86571 0.0
C3349 C 0.68483 0.24607 0.8572 0.0
C3350 C 0.6808 0.23465 0.88228 0.0
C3351 C 0.67291 0.26537 0.91404 0.0
H3352 H 0.68536 0.23397 0.94254 0.0
C3353 C 0.66775 0.27461 0.98188 0.0
C3354 C 0.66079 0.26148 0.98879 0.0
C3355 C 0.67233 0.27269 0.96635 0.0
C3356 C 0.68176 0.24278 0.93468 0.0
H3357 H 0.69041 0.27194 0.85967 0.0
H3358 H 0.68952 0.27528 0.88863 0.0
H3359 H 0.6913 0.23093 0.91457 0.0
H3360 H 0.65276 0.23611 0.98495 0.0
H3361 H 0.66075 0.23264 0.95759 0.0
H3362 H 0.66335 0.27719 0.93411 0.0
C3363 C 0.68726 0.2633 0.88241 0.0
C3364 C 0.68514 0.24105 0.91866 0.0
C3365 C 0.68799 0.26136 0.86581 0.0
C3366 C 0.65829 0.24637 0.97988 0.0
C3367 C 0.66295 0.24439 0.96432 0.0
C3368 C 0.66963 0.26714 0.93004 0.0
C3369 C 0.68325 0.25002 0.8908 0.0
C3370 C 0.68065 0.25227 0.90811 0.0
C3371 C 0.6699 0.25758 0.95735 0.0
C3372 C 0.67392 0.25582 0.94051 0.0
H3373 H 0.67943 0.22071 0.85951 0.0
H3374 H 0.6776 0.22414 0.88829 0.0
H3375 H 0.66894 0.27405 0.90621 0.0
H3376 H 0.66931 0.28645 0.98836 0.0
H3377 H 0.67769 0.28307 0.96136 0.0
C3378 C 0.03923 0.32541 0.24551 0.0
C3379 C 0.04705 0.34055 0.25159 0.0
C3380 C 0.04089 0.31896 0.22988 0.0
C3381 C 0.05104 0.3314 0.19079 0.0
H3382 H 0.05281 0.28582 0.17997 0.0
C3383 C 0.0561 0.30503 0.12583 0.0
C3384 C 0.04543 0.29139 0.12029 0.0
C3385 C 0.05847 0.31047 0.1422 0.0
C3386 C 0.05226 0.29857 0.1828 0.0
H3387 H 0.0633 0.36046 0.24628 0.0
H3388 H 0.06627 0.3492 0.21907 0.0
H3389 H 0.0528 0.29639 0.20801 0.0
H3390 H 0.02941 0.27228 0.12761 0.0
H3391 H 0.03345 0.2818 0.15606 0.0
H3392 H 0.05026 0.33356 0.16559 0.0
C3393 C 0.05858 0.34245 0.22624 0.0
C3394 C 0.05222 0.30463 0.19886 0.0
C3395 C 0.05689 0.3489 0.24184 0.0
C3396 C 0.03767 0.28289 0.13148 0.0
C3397 C 0.04007 0.28829 0.14783 0.0
C3398 C 0.0511 0.32535 0.17475 0.0
C3399 C 0.05045 0.32749 0.21999 0.0
C3400 C 0.05143 0.3211 0.20303 0.0
C3401 C 0.05026 0.30231 0.15336 0.0
C3402 C 0.05153 0.30884 0.17054 0.0
H3403 H 0.03143 0.31875 0.25266 0.0
H3404 H 0.03428 0.30751 0.22538 0.0
H3405 H 0.05016 0.34411 0.19352 0.0
H3406 H 0.06227 0.31175 0.11745 0.0
H3407 H 0.06656 0.32119 0.14611 0.0
loop_
_geom_bond_atom_site_label_1
_geom_bond_atom_site_label_2
_geom_bond_distance
_geom_bond_site_symmetry_2
_ccdc_geom_bond_type
C0 C1 1.264 . S
C0 C5 1.479 . S
C0 C10 1.465 . S
C1 C0 1.264 . S
C1 C3 1.339 . S
C1 H28 0.931 . S
C2 C3 1.395 . S
C2 C4 1.320 . S
C3 C1 1.339 . S
C3 C2 1.395 . S
C3 H29 0.929 . S
C4 C2 1.320 . S
C4 C5 1.405 . S
C4 H30 0.930 . S
C5 C0 1.479 . S
C5 C4 1.405 . S
C5 H31 0.931 . S
U6 O7 2.454 . S
U6 O8 2.458 . S
U6 C9 2.984 . S
U6 C10 2.847 . S
U6 C23 2.882 . S
U6 O24 2.441 . S
U6 O25 2.420 . S
U6 O26 2.455 . S
U6 O27 2.449 . S
O7 U6 2.454 . S
O7 C9 1.353 . S
O8 U6 2.458 . S
O8 C9 1.286 . S
C9 U6 2.984 . S
C9 O7 1.353 . S
C9 O8 1.286 . S
C9 C11 1.363 . S
C10 C0 1.465 . S
C10 U6 2.847 . S
C10 O24 1.249 . S
C10 O25 1.202 . S
C11 C9 1.363 . S
C11 C13 1.408 . S
C11 C16 1.342 . S
C12 C13 1.310 . S
C12 C15 1.461 . S
C12 H32 0.932 . S
C13 C11 1.408 . S
C13 C12 1.310 . S
C13 H33 0.930 . S
C14 C15 1.474 . S
C14 C16 1.285 . S
C14 H34 0.929 . S
C15 C12 1.461 . S
C15 C14 1.474 . S
C16 C11 1.342 . S
C16 C14 1.285 . S
C16 H35 0.930 . S
C17 C20 1.424 . S
C17 C22 1.245 . S
C17 C23 1.428 . S
C18 C21 1.260 . S
C18 C22 1.477 . S
C18 H36 0.932 . S
C19 C20 1.384 . S
C19 C21 1.479 . S
C19 H37 0.929 . S
C20 C17 1.424 . S
C20 C19 1.384 . S
C20 H38 0.928 . S
C21 C18 1.260 . S
C21 C19 1.479 . S
C22 C17 1.245 . S
C22 C18 1.477 . S
C22 H39 0.932 . S
C23 U6 2.882 . S
C23 C17 1.428 . S
C23 O26 1.301 . S
C23 O27 1.282 . S
O24 U6 2.441 . S
O24 C10 1.249 . S
O25 U6 2.420 . S
O25 C10 1.202 . S
O26 U6 2.455 . S
O26 C23 1.301 . S
O27 U6 2.449 . S
O27 C23 1.282 . S
H28 C1 0.931 . S
H29 C3 0.929 . S
H30 C4 0.930 . S
H31 C5 0.931 . S
H32 C12 0.932 . S
H33 C13 0.930 . S
H34 C14 0.929 . S
H35 C16 0.930 . S
H36 C18 0.932 . S
H37 C19 0.929 . S
H38 C20 0.928 . S
H39 C22 0.932 . S
C40 C41 1.264 . S
C40 C45 1.479 . S
C40 C50 1.465 . S
C41 C40 1.264 . S
C41 C43 1.339 . S
C41 H68 0.931 . S
C42 C43 1.395 . S
C42 C44 1.320 . S
C43 C41 1.339 . S
C43 C42 1.395 . S
C43 H69 0.929 . S
C44 C42 1.320 . S
C44 C45 1.405 . S
C44 H70 0.930 . S
C45 C40 1.479 . S
C45 C44 1.405 . S
C45 H71 0.931 . S
U46 O47 2.454 . S
U46 O48 2.458 . S
U46 C49 2.984 . S
U46 C50 2.847 . S
U46 C63 2.882 . S
U46 O64 2.441 . S
U46 O65 2.420 . S
U46 O66 2.455 . S
U46 O67 2.449 . S
O47 U46 2.454 . S
O47 C49 1.353 . S
O48 U46 2.458 . S
O48 C49 1.286 . S
C49 U46 2.984 . S
C49 O47 1.353 . S
C49 O48 1.286 . S
C49 C51 1.363 . S
C50 C40 1.465 . S
C50 U46 2.847 . S
C50 O64 1.249 . S
C50 O65 1.202 . S
C51 C49 1.363 . S
C51 C53 1.408 . S
C51 C56 1.342 . S
C52 C53 1.310 . S
C52 C55 1.461 . S
C52 H72 0.932 . S
C53 C51 1.408 . S
C53 C52 1.310 . S
C53 H73 0.930 . S
C54 C55 1.474 . S
C54 C56 1.285 . S
C54 H74 0.929 . S
C55 C52 1.461 . S
C55 C54 1.474 . S
C56 C51 1.342 . S
C56 C54 1.285 . S
C56 H75 0.930 . S
C57 C60 1.424 . S
C57 C62 1.245 . S
C57 C63 1.428 . S
C58 C61 1.260 . S
C58 C62 1.477 . S
C58 H76 0.932 . S
C59 C60 1.384 . S
C59 C61 1.479 . S
C59 H77 0.929 . S
C60 C57 1.424 . S
C60 C59 1.384 . S
C60 H78 0.928 . S
C61 C58 1.260 . S
C61 C59 1.479 . S
C62 C57 1.245 . S
C62 C58 1.477 . S
C62 H79 0.932 . S
C63 U46 2.882 . S
C63 C57 1.428 . S
C63 O66 1.301 . S
C63 O67 1.282 . S
O64 U46 2.441 . S
O64 C50 1.249 . S
O65 U46 2.420 . S
O65 C50 1.202 . S
O66 U46 2.455 . S
O66 C63 1.301 . S
O67 U46 2.449 . S
O67 C63 1.282 . S
H68 C41 0.931 . S
H69 C43 0.929 . S
H70 C44 0.930 . S
H71 C45 0.931 . S
H72 C52 0.932 . S
H73 C53 0.930 . S
H74 C54 0.929 . S
H75 C56 0.930 . S
H76 C58 0.932 . S
H77 C59 0.929 . S
H78 C60 0.928 . S
H79 C62 0.932 . S
C80 C81 1.264 . S
C80 C85 1.479 . S
C80 C90 1.465 . S
C81 C80 1.264 . S
C81 C83 1.339 . S
C81 H108 0.931 . S
C82 C83 1.395 . S
C82 C84 1.320 . S
C83 C81 1.339 . S
C83 C82 1.395 . S
C83 H109 0.929 . S
C84 C82 1.320 . S
C84 C85 1.405 . S
C84 H110 0.925 1_565 S
C85 C80 1.479 . S
C85 C84 1.405 . S
C85 H111 0.931 . S
U86 O87 2.454 . S
U86 O88 2.458 . S
U86 C89 2.984 . S
U86 C90 2.847 . S
U86 C103 2.882 . S
U86 O104 2.441 . S
U86 O105 2.420 . S
U86 O106 2.455 . S
U86 O107 2.449 . S
O87 U86 2.454 . S
O87 C89 1.353 . S
O88 U86 2.458 . S
O88 C89 1.286 . S
C89 U86 2.984 . S
C89 O87 1.353 . S
C89 O88 1.286 . S
C89 C91 1.363 . S
C90 C80 1.465 . S
C90 U86 2.847 . S
C90 O104 1.249 . S
C90 O105 1.202 . S
C91 C89 1.363 . S
C91 C93 1.408 . S
C91 C96 1.363 . S
C92 C93 1.310 . S
C92 C95 1.461 . S
C92 H112 0.930 . S
C93 C91 1.408 . S
C93 C92 1.310 . S
C93 H113 0.930 . S
C94 C95 1.473 1_545 S
C94 C96 1.277 1_545 S
C94 H114 0.932 . S
C95 C92 1.461 . S
C95 C94 1.473 1_565 S
C96 C91 1.363 . S
C96 C94 1.277 1_565 S
C96 H115 0.926 . S
C97 C100 1.424 . S
C97 C102 1.245 . S
C97 C103 1.428 . S
C98 C101 1.260 . S
C98 C102 1.477 . S
C98 H116 0.932 . S
C99 C100 1.384 . S
C99 C101 1.479 . S
C99 H117 0.929 . S
C100 C97 1.424 . S
C100 C99 1.384 . S
C100 H118 0.928 . S
C101 C98 1.260 . S
C101 C99 1.479 . S
C102 C97 1.245 . S
C102 C98 1.477 . S
C102 H119 0.932 . S
C103 U86 2.882 . S
C103 C97 1.428 . S
C103 O106 1.301 . S
C103 O107 1.282 . S
O104 U86 2.441 . S
O104 C90 1.249 . S
O105 U86 2.420 . S
O105 C90 1.202 . S
O106 U86 2.455 . S
O106 C103 1.301 . S
O107 U86 2.449 . S
O107 C103 1.282 . S
H108 C81 0.931 . S
H109 C83 0.929 . S
H110 C84 0.925 1_545 S
H111 C85 0.931 . S
H112 C92 0.930 . S
H113 C93 0.930 . S
H114 C94 0.932 . S
H115 C96 0.926 . S
H116 C98 0.932 . S
H117 C99 0.929 . S
H118 C100 0.928 . S
H119 C102 0.932 . S
C120 C121 1.264 . S
C120 C125 1.479 . S
C120 C130 1.465 . S
C121 C120 1.264 . S
C121 C123 1.339 . S
C121 H148 0.931 . S
C122 C123 1.395 . S
C122 C124 1.320 . S
C123 C121 1.339 . S
C123 C122 1.395 . S
C123 H149 0.929 . S
C124 C122 1.320 . S
C124 C125 1.405 . S
C124 H150 0.930 . S
C125 C120 1.479 . S
C125 C124 1.405 . S
C125 H151 0.931 . S
U126 O127 2.454 . S
U126 O128 2.458 . S
U126 C129 2.984 . S
U126 C130 2.847 . S
U126 C143 2.882 . S
U126 O144 2.441 . S
U126 O145 2.420 . S
U126 O146 2.455 . S
U126 O147 2.449 . S
O127 U126 2.454 . S
O127 C129 1.353 . S
O128 U126 2.458 . S
O128 C129 1.286 . S
C129 U126 2.984 . S
C129 O127 1.353 . S
C129 O128 1.286 . S
C129 C131 1.363 . S
C130 C120 1.465 . S
C130 U126 2.847 . S
C130 O144 1.249 . S
C130 O145 1.202 . S
C131 C129 1.363 . S
C131 C133 1.408 . S
C131 C136 1.342 . S
C132 C133 1.310 . S
C132 C135 1.461 . S
C132 H152 0.932 . S
C133 C131 1.408 . S
C133 C132 1.310 . S
C133 H153 0.930 . S
C134 C135 1.474 . S
C134 C136 1.285 . S
C134 H154 0.929 . S
C135 C132 1.461 . S
C135 C134 1.474 . S
C136 C131 1.342 . S
C136 C134 1.285 . S
C136 H155 0.930 . S
C137 C140 1.424 . S
C137 C142 1.245 . S
C137 C143 1.428 1_565 S
C138 C141 1.260 . S
C138 C142 1.477 . S
C138 H156 0.932 . S
C139 C140 1.384 . S
C139 C141 1.479 . S
C139 H157 0.929 . S
C140 C137 1.424 . S
C140 C139 1.384 . S
C140 H158 0.928 . S
C141 C138 1.260 . S
C141 C139 1.479 . S
C142 C137 1.245 . S
C142 C138 1.477 . S
C142 H159 0.932 . S
C143 U126 2.882 . S
C143 C137 1.428 1_545 S
C143 O146 1.301 . S
C143 O147 1.282 . S
O144 U126 2.441 . S
O144 C130 1.249 . S
O145 U126 2.420 . S
O145 C130 1.202 . S
O146 U126 2.455 . S
O146 C143 1.301 . S
O147 U126 2.449 . S
O147 C143 1.282 . S
H148 C121 0.931 . S
H149 C123 0.929 . S
H150 C124 0.930 . S
H151 C125 0.931 . S
H152 C132 0.932 . S
H153 C133 0.930 . S
H154 C134 0.929 . S
H155 C136 0.930 . S
H156 C138 0.932 . S
H157 C139 0.929 . S
H158 C140 0.928 . S
H159 C142 0.932 . S
C160 C161 1.264 . S
C160 C165 1.479 . S
C160 C170 1.465 . S
C161 C160 1.264 . S
C161 C163 1.339 . S
C161 H188 0.931 . S
C162 C163 1.395 . S
C162 C164 1.320 . S
C163 C161 1.339 . S
C163 C162 1.395 . S
C163 H189 0.929 . S
C164 C162 1.320 . S
C164 C165 1.405 . S
C164 H190 0.930 . S
C165 C160 1.479 . S
C165 C164 1.405 . S
C165 H191 0.931 . S
U166 O167 2.454 . S
U166 O168 2.458 . S
U166 C169 2.984 . S
U166 C170 2.847 . S
U166 C183 2.882 . S
U166 O184 2.441 . S
U166 O185 2.420 . S
U166 O186 2.455 . S
U166 O187 2.449 . S
O167 U166 2.454 . S
O167 C169 1.353 . S
O168 U166 2.458 . S
O168 C169 1.286 . S
C169 U166 2.984 . S
C169 O167 1.353 . S
C169 O168 1.286 . S
C169 C171 1.363 . S
C170 C160 1.465 . S
C170 U166 2.847 . S
C170 O184 1.249 . S
C170 O185 1.202 . S
C171 C169 1.363 . S
C171 C173 1.408 . S
C171 C176 1.342 . S
C172 C173 1.310 . S
C172 C175 1.461 . S
C172 H192 0.932 . S
C173 C171 1.408 . S
C173 C172 1.310 . S
C173 H193 0.930 . S
C174 C175 1.474 . S
C174 C176 1.285 . S
C174 H194 0.929 . S
C175 C172 1.461 . S
C175 C174 1.474 . S
C176 C171 1.342 . S
C176 C174 1.285 . S
C176 H195 0.930 . S
C177 C180 1.424 . S
C177 C182 1.245 . S
C177 C183 1.428 . S
C178 C181 1.260 . S
C178 C182 1.477 . S
C178 H196 0.932 . S
C179 C180 1.384 . S
C179 C181 1.479 . S
C179 H197 0.929 . S
C180 C177 1.424 . S
C180 C179 1.384 . S
C180 H198 0.928 . S
C181 C178 1.260 . S
C181 C179 1.479 . S
C182 C177 1.245 . S
C182 C178 1.477 . S
C182 H199 0.932 . S
C183 U166 2.882 . S
C183 C177 1.428 . S
C183 O186 1.301 . S
C183 O187 1.282 . S
O184 U166 2.441 . S
O184 C170 1.249 . S
O185 U166 2.420 . S
O185 C170 1.202 . S
O186 U166 2.455 . S
O186 C183 1.301 . S
O187 U166 2.449 . S
O187 C183 1.282 . S
H188 C161 0.931 . S
H189 C163 0.929 . S
H190 C164 0.930 . S
H191 C165 0.931 . S
H192 C172 0.932 . S
H193 C173 0.930 . S
H194 C174 0.929 . S
H195 C176 0.930 . S
H196 C178 0.932 . S
H197 C179 0.929 . S
H198 C180 0.928 . S
H199 C182 0.932 . S
C200 C201 1.264 . S
C200 C205 1.479 . S
C200 C210 1.465 . S
C201 C200 1.264 . S
C201 C203 1.339 . S
C201 H228 0.931 . S
C202 C203 1.395 . S
C202 C204 1.320 . S
C203 C201 1.339 . S
C203 C202 1.395 . S
C203 H229 0.929 . S
C204 C202 1.320 . S
C204 C205 1.405 . S
C204 H230 0.930 . S
C205 C200 1.479 . S
C205 C204 1.405 . S
C205 H231 0.931 . S
U206 O207 2.454 . S
U206 O208 2.458 . S
U206 C209 2.984 . S
U206 C210 2.847 . S
U206 C223 2.882 . S
U206 O224 2.441 . S
U206 O225 2.420 . S
U206 O226 2.455 . S
U206 O227 2.449 . S
O207 U206 2.454 . S
O207 C209 1.353 . S
O208 U206 2.458 . S
O208 C209 1.286 . S
C209 U206 2.984 . S
C209 O207 1.353 . S
C209 O208 1.286 . S
C209 C211 1.363 . S
C210 C200 1.465 . S
C210 U206 2.847 . S
C210 O224 1.249 . S
C210 O225 1.202 . S
C211 C209 1.363 . S
C211 C213 1.408 . S
C211 C216 1.342 . S
C212 C213 1.310 . S
C212 C215 1.461 . S
C212 H232 0.932 . S
C213 C211 1.408 . S
C213 C212 1.310 . S
C213 H233 0.930 . S
C214 C215 1.474 . S
C214 C216 1.285 . S
C214 H234 0.929 . S
C215 C212 1.461 . S
C215 C214 1.474 . S
C216 C211 1.342 . S
C216 C214 1.285 . S
C216 H235 0.930 . S
C217 C220 1.424 . S
C217 C222 1.245 . S
C217 C223 1.428 1_556 S
C218 C221 1.260 . S
C218 C222 1.477 . S
C218 H236 0.932 . S
C219 C220 1.384 . S
C219 C221 1.479 . S
C219 H237 0.929 . S
C220 C217 1.424 . S
C220 C219 1.384 . S
C220 H238 0.928 . S
C221 C218 1.260 . S
C221 C219 1.479 . S
C222 C217 1.245 . S
C222 C218 1.477 . S
C222 H239 0.932 . S
C223 U206 2.882 . S
C223 C217 1.428 1_554 S
C223 O226 1.301 . S
C223 O227 1.282 . S
O224 U206 2.441 . S
O224 C210 1.249 . S
O225 U206 2.420 . S
O225 C210 1.202 . S
O226 U206 2.455 . S
O226 C223 1.301 . S
O227 U206 2.449 . S
O227 C223 1.282 . S
H228 C201 0.931 . S
H229 C203 0.929 . S
H230 C204 0.930 . S
H231 C205 0.931 . S
H232 C212 0.932 . S
H233 C213 0.930 . S
H234 C214 0.929 . S
H235 C216 0.930 . S
H236 C218 0.932 . S
H237 C219 0.929 . S
H238 C220 0.928 . S
H239 C222 0.932 . S
C240 C241 1.264 . S
C240 C245 1.479 . S
C240 C250 1.465 . S
C241 C240 1.264 . S
C241 C243 1.339 . S
C241 H268 0.931 . S
C242 C243 1.395 . S
C242 C244 1.320 . S
C243 C241 1.339 . S
C243 C242 1.395 . S
C243 H269 0.929 . S
C244 C242 1.320 . S
C244 C245 1.405 . S
C244 H270 0.930 . S
C245 C240 1.479 . S
C245 C244 1.405 . S
C245 H271 0.931 . S
U246 O247 2.454 . S
U246 O248 2.458 . S
U246 C249 2.984 . S
U246 C250 2.847 . S
U246 C263 2.882 . S
U246 O264 2.441 . S
U246 O265 2.420 . S
U246 O266 2.455 . S
U246 O267 2.449 . S
O247 U246 2.454 . S
O247 C249 1.353 . S
O248 U246 2.458 . S
O248 C249 1.286 . S
C249 U246 2.984 . S
C249 O247 1.353 . S
C249 O248 1.286 . S
C249 C251 1.363 . S
C250 C240 1.465 . S
C250 U246 2.847 . S
C250 O264 1.249 . S
C250 O265 1.202 . S
C251 C249 1.363 . S
C251 C253 1.408 . S
C251 C256 1.342 . S
C252 C253 1.310 . S
C252 C255 1.461 . S
C252 H272 0.932 . S
C253 C251 1.408 . S
C253 C252 1.310 . S
C253 H273 0.930 . S
C254 C255 1.474 . S
C254 C256 1.285 . S
C254 H274 0.929 . S
C255 C252 1.461 . S
C255 C254 1.474 . S
C256 C251 1.342 . S
C256 C254 1.285 . S
C256 H275 0.930 . S
C257 C260 1.424 . S
C257 C262 1.245 . S
C257 C263 1.428 . S
C258 C261 1.260 . S
C258 C262 1.477 . S
C258 H276 0.932 . S
C259 C260 1.384 . S
C259 C261 1.479 . S
C259 H277 0.929 . S
C260 C257 1.424 . S
C260 C259 1.384 . S
C260 H278 0.928 . S
C261 C258 1.260 . S
C261 C259 1.479 . S
C262 C257 1.245 . S
C262 C258 1.477 . S
C262 H279 0.932 . S
C263 U246 2.882 . S
C263 C257 1.428 . S
C263 O266 1.301 . S
C263 O267 1.282 . S
O264 U246 2.441 . S
O264 C250 1.249 . S
O265 U246 2.420 . S
O265 C250 1.202 . S
O266 U246 2.455 . S
O266 C263 1.301 . S
O267 U246 2.449 . S
O267 C263 1.282 . S
H268 C241 0.931 . S
H269 C243 0.929 . S
H270 C244 0.930 . S
H271 C245 0.931 . S
H272 C252 0.932 . S
H273 C253 0.930 . S
H274 C254 0.929 . S
H275 C256 0.930 . S
H276 C258 0.932 . S
H277 C259 0.929 . S
H278 C260 0.928 . S
H279 C262 0.932 . S
C280 C281 1.264 . S
C280 C285 1.479 . S
C280 C290 1.465 . S
C281 C280 1.264 . S
C281 C283 1.339 . S
C281 H308 0.931 . S
C282 C283 1.395 . S
C282 C284 1.320 . S
C283 C281 1.339 . S
C283 C282 1.395 . S
C283 H309 0.929 . S
C284 C282 1.320 . S
C284 C285 1.405 . S
C284 H310 0.925 1_556 S
C285 C280 1.479 . S
C285 C284 1.405 . S
C285 H311 0.931 . S
U286 O287 2.454 . S
U286 O288 2.458 . S
U286 C289 2.984 . S
U286 C290 2.847 . S
U286 C303 2.882 . S
U286 O304 2.441 . S
U286 O305 2.420 . S
U286 O306 2.455 . S
U286 O307 2.449 . S
O287 U286 2.454 . S
O287 C289 1.353 . S
O288 U286 2.458 . S
O288 C289 1.286 . S
C289 U286 2.984 . S
C289 O287 1.353 . S
C289 O288 1.286 . S
C289 C291 1.363 . S
C290 C280 1.465 . S
C290 U286 2.847 . S
C290 O304 1.249 . S
C290 O305 1.202 . S
C291 C289 1.363 . S
C291 C293 1.408 . S
C291 C296 1.363 . S
C292 C293 1.310 . S
C292 C295 1.461 . S
C292 H312 0.930 . S
C293 C291 1.408 . S
C293 C292 1.310 . S
C293 H313 0.930 . S
C294 C295 1.473 1_554 S
C294 C296 1.277 1_554 S
C294 H314 0.932 . S
C295 C292 1.461 . S
C295 C294 1.473 1_556 S
C296 C291 1.363 . S
C296 C294 1.277 1_556 S
C296 H315 0.926 . S
C297 C300 1.424 . S
C297 C302 1.245 . S
C297 C303 1.428 . S
C298 C301 1.260 . S
C298 C302 1.477 . S
C298 H316 0.932 . S
C299 C300 1.384 . S
C299 C301 1.479 . S
C299 H317 0.929 . S
C300 C297 1.424 . S
C300 C299 1.384 . S
C300 H318 0.928 . S
C301 C298 1.260 . S
C301 C299 1.479 . S
C302 C297 1.245 . S
C302 C298 1.477 . S
C302 H319 0.932 . S
C303 U286 2.882 . S
C303 C297 1.428 . S
C303 O306 1.301 . S
C303 O307 1.282 . S
O304 U286 2.441 . S
O304 C290 1.249 . S
O305 U286 2.420 . S
O305 C290 1.202 . S
O306 U286 2.455 . S
O306 C303 1.301 . S
O307 U286 2.449 . S
O307 C303 1.282 . S
H308 C281 0.931 . S
H309 C283 0.929 . S
H310 C284 0.925 1_554 S
H311 C285 0.931 . S
H312 C292 0.930 . S
H313 C293 0.930 . S
H314 C294 0.932 . S
H315 C296 0.926 . S
H316 C298 0.932 . S
H317 C299 0.929 . S
H318 C300 0.928 . S
H319 C302 0.932 . S
C320 C321 1.264 . S
C320 C325 1.479 . S
C320 C330 1.465 . S
C321 C320 1.264 . S
C321 C323 1.339 . S
C321 H348 0.931 . S
C322 C323 1.395 . S
C322 C324 1.320 . S
C323 C321 1.339 . S
C323 C322 1.395 . S
C323 H349 0.929 . S
C324 C322 1.320 . S
C324 C325 1.405 . S
C324 H350 0.930 . S
C325 C320 1.479 . S
C325 C324 1.405 . S
C325 H351 0.931 . S
U326 O327 2.454 . S
U326 O328 2.458 . S
U326 C329 2.984 . S
U326 C330 2.847 . S
U326 C343 2.882 . S
U326 O344 2.441 . S
U326 O345 2.420 . S
U326 O346 2.455 . S
U326 O347 2.449 . S
O327 U326 2.454 . S
O327 C329 1.353 . S
O328 U326 2.458 . S
O328 C329 1.286 . S
C329 U326 2.984 . S
C329 O327 1.353 . S
C329 O328 1.286 . S
C329 C331 1.363 . S
C330 C320 1.465 . S
C330 U326 2.847 . S
C330 O344 1.249 . S
C330 O345 1.202 . S
C331 C329 1.363 . S
C331 C333 1.408 . S
C331 C336 1.342 . S
C332 C333 1.310 . S
C332 C335 1.461 . S
C332 H352 0.932 . S
C333 C331 1.408 . S
C333 C332 1.310 . S
C333 H353 0.930 . S
C334 C335 1.474 . S
C334 C336 1.285 . S
C334 H354 0.929 . S
C335 C332 1.461 . S
C335 C334 1.474 . S
C336 C331 1.342 . S
C336 C334 1.285 . S
C336 H355 0.930 . S
C337 C340 1.424 . S
C337 C342 1.245 . S
C337 C343 1.428 . S
C338 C341 1.260 . S
C338 C342 1.477 . S
C338 H356 0.932 . S
C339 C340 1.384 . S
C339 C341 1.479 . S
C339 H357 0.929 . S
C340 C337 1.424 . S
C340 C339 1.384 . S
C340 H358 0.928 . S
C341 C338 1.260 . S
C341 C339 1.479 . S
C342 C337 1.245 . S
C342 C338 1.477 . S
C342 H359 0.932 . S
C343 U326 2.882 . S
C343 C337 1.428 . S
C343 O346 1.301 . S
C343 O347 1.282 . S
O344 U326 2.441 . S
O344 C330 1.249 . S
O345 U326 2.420 . S
O345 C330 1.202 . S
O346 U326 2.455 . S
O346 C343 1.301 . S
O347 U326 2.449 . S
O347 C343 1.282 . S
H348 C321 0.931 . S
H349 C323 0.929 . S
H350 C324 0.930 . S
H351 C325 0.931 . S
H352 C332 0.932 . S
H353 C333 0.930 . S
H354 C334 0.929 . S
H355 C336 0.930 . S
H356 C338 0.932 . S
H357 C339 0.929 . S
H358 C340 0.928 . S
H359 C342 0.932 . S
C360 C361 1.264 . S
C360 C365 1.479 . S
C360 C370 1.465 . S
C361 C360 1.264 . S
C361 C363 1.339 . S
C361 H388 0.931 . S
C362 C363 1.395 . S
C362 C364 1.320 . S
C363 C361 1.339 . S
C363 C362 1.395 . S
C363 H389 0.929 . S
C364 C362 1.320 . S
C364 C365 1.405 . S
C364 H390 0.930 . S
C365 C360 1.479 . S
C365 C364 1.405 . S
C365 H391 0.931 . S
U366 O367 2.454 . S
U366 O368 2.458 . S
U366 C369 2.984 . S
U366 C370 2.847 . S
U366 C383 2.882 . S
U366 O384 2.441 . S
U366 O385 2.420 . S
U366 O386 2.455 . S
U366 O387 2.449 . S
O367 U366 2.454 . S
O367 C369 1.353 . S
O368 U366 2.458 . S
O368 C369 1.286 . S
C369 U366 2.984 . S
C369 O367 1.353 . S
C369 O368 1.286 . S
C369 C371 1.363 . S
C370 C360 1.465 . S
C370 U366 2.847 . S
C370 O384 1.249 . S
C370 O385 1.202 . S
C371 C369 1.363 . S
C371 C373 1.408 . S
C371 C376 1.342 . S
C372 C373 1.310 . S
C372 C375 1.461 . S
C372 H392 0.932 . S
C373 C371 1.408 . S
C373 C372 1.310 . S
C373 H393 0.930 . S
C374 C375 1.474 . S
C374 C376 1.285 . S
C374 H394 0.929 . S
C375 C372 1.461 . S
C375 C374 1.474 . S
C376 C371 1.342 . S
C376 C374 1.285 . S
C376 H395 0.930 . S
C377 C380 1.424 . S
C377 C382 1.245 . S
C377 C383 1.428 1_655 S
C378 C381 1.260 . S
C378 C382 1.477 . S
C378 H396 0.932 . S
C379 C380 1.384 . S
C379 C381 1.479 . S
C379 H397 0.929 . S
C380 C377 1.424 . S
C380 C379 1.384 . S
C380 H398 0.928 . S
C381 C378 1.260 . S
C381 C379 1.479 . S
C382 C377 1.245 . S
C382 C378 1.477 . S
C382 H399 0.932 . S
C383 U366 2.882 . S
C383 C377 1.428 1_455 S
C383 O386 1.301 . S
C383 O387 1.282 . S
O384 U366 2.441 . S
O384 C370 1.249 . S
O385 U366 2.420 . S
O385 C370 1.202 . S
O386 U366 2.455 . S
O386 C383 1.301 . S
O387 U366 2.449 . S
O387 C383 1.282 . S
H388 C361 0.931 . S
H389 C363 0.929 . S
H390 C364 0.930 . S
H391 C365 0.931 . S
H392 C372 0.932 . S
H393 C373 0.930 . S
H394 C374 0.929 . S
H395 C376 0.930 . S
H396 C378 0.932 . S
H397 C379 0.929 . S
H398 C380 0.928 . S
H399 C382 0.932 . S
C400 C401 1.264 . S
C400 C405 1.479 . S
C400 C410 1.465 . S
C401 C400 1.264 . S
C401 C403 1.339 . S
C401 H428 0.931 . S
C402 C403 1.395 . S
C402 C404 1.320 . S
C403 C401 1.339 . S
C403 C402 1.395 . S
C403 H429 0.929 . S
C404 C402 1.320 . S
C404 C405 1.405 . S
C404 H430 0.930 . S
C405 C400 1.479 . S
C405 C404 1.405 . S
C405 H431 0.931 . S
U406 O407 2.454 . S
U406 O408 2.458 . S
U406 C409 2.984 . S
U406 C410 2.847 . S
U406 C423 2.882 . S
U406 O424 2.441 . S
U406 O425 2.420 . S
U406 O426 2.455 . S
U406 O427 2.449 . S
O407 U406 2.454 . S
O407 C409 1.353 . S
O408 U406 2.458 . S
O408 C409 1.286 . S
C409 U406 2.984 . S
C409 O407 1.353 . S
C409 O408 1.286 . S
C409 C411 1.363 . S
C410 C400 1.465 . S
C410 U406 2.847 . S
C410 O424 1.249 . S
C410 O425 1.202 . S
C411 C409 1.363 . S
C411 C413 1.408 . S
C411 C416 1.342 . S
C412 C413 1.310 . S
C412 C415 1.461 . S
C412 H432 0.932 . S
C413 C411 1.408 . S
C413 C412 1.310 . S
C413 H433 0.930 . S
C414 C415 1.474 . S
C414 C416 1.285 . S
C414 H434 0.929 . S
C415 C412 1.461 . S
C415 C414 1.474 . S
C416 C411 1.342 . S
C416 C414 1.285 . S
C416 H435 0.930 . S
C417 C420 1.424 . S
C417 C422 1.245 . S
C417 C423 1.428 . S
C418 C421 1.260 . S
C418 C422 1.477 . S
C418 H436 0.932 . S
C419 C420 1.384 . S
C419 C421 1.479 . S
C419 H437 0.929 . S
C420 C417 1.424 . S
C420 C419 1.384 . S
C420 H438 0.928 . S
C421 C418 1.260 . S
C421 C419 1.479 . S
C422 C417 1.245 . S
C422 C418 1.477 . S
C422 H439 0.932 . S
C423 U406 2.882 . S
C423 C417 1.428 . S
C423 O426 1.301 . S
C423 O427 1.282 . S
O424 U406 2.441 . S
O424 C410 1.249 . S
O425 U406 2.420 . S
O425 C410 1.202 . S
O426 U406 2.455 . S
O426 C423 1.301 . S
O427 U406 2.449 . S
O427 C423 1.282 . S
H428 C401 0.931 . S
H429 C403 0.929 . S
H430 C404 0.930 . S
H431 C405 0.931 . S
H432 C412 0.932 . S
H433 C413 0.930 . S
H434 C414 0.929 . S
H435 C416 0.930 . S
H436 C418 0.932 . S
H437 C419 0.929 . S
H438 C420 0.928 . S
H439 C422 0.932 . S
C440 C441 1.264 . S
C440 C445 1.479 . S
C440 C450 1.465 . S
C441 C440 1.264 . S
C441 C443 1.339 . S
C441 H468 0.931 . S
C442 C443 1.395 . S
C442 C444 1.320 . S
C443 C441 1.339 . S
C443 C442 1.395 . S
C443 H469 0.929 . S
C444 C442 1.320 . S
C444 C445 1.405 . S
C444 H470 0.925 1_655 S
C445 C440 1.479 . S
C445 C444 1.405 . S
C445 H471 0.931 . S
U446 O447 2.454 . S
U446 O448 2.458 . S
U446 C449 2.984 . S
U446 C450 2.847 . S
U446 C463 2.882 . S
U446 O464 2.441 . S
U446 O465 2.420 . S
U446 O466 2.455 . S
U446 O467 2.449 . S
O447 U446 2.454 . S
O447 C449 1.353 . S
O448 U446 2.458 . S
O448 C449 1.286 . S
C449 U446 2.984 . S
C449 O447 1.353 . S
C449 O448 1.286 . S
C449 C451 1.363 . S
C450 C440 1.465 . S
C450 U446 2.847 . S
C450 O464 1.249 . S
C450 O465 1.202 . S
C451 C449 1.363 . S
C451 C453 1.408 . S
C451 C456 1.363 . S
C452 C453 1.310 . S
C452 C455 1.461 . S
C452 H472 0.930 . S
C453 C451 1.408 . S
C453 C452 1.310 . S
C453 H473 0.930 . S
C454 C455 1.473 1_455 S
C454 C456 1.277 1_455 S
C454 H474 0.932 . S
C455 C452 1.461 . S
C455 C454 1.473 1_655 S
C456 C451 1.363 . S
C456 C454 1.277 1_655 S
C456 H475 0.926 . S
C457 C460 1.424 . S
C457 C462 1.245 . S
C457 C463 1.428 . S
C458 C461 1.260 . S
C458 C462 1.477 . S
C458 H476 0.932 . S
C459 C460 1.384 . S
C459 C461 1.479 . S
C459 H477 0.929 . S
C460 C457 1.424 . S
C460 C459 1.384 . S
C460 H478 0.928 . S
C461 C458 1.260 . S
C461 C459 1.479 . S
C462 C457 1.245 . S
C462 C458 1.477 . S
C462 H479 0.932 . S
C463 U446 2.882 . S
C463 C457 1.428 . S
C463 O466 1.301 . S
C463 O467 1.282 . S
O464 U446 2.441 . S
O464 C450 1.249 . S
O465 U446 2.420 . S
O465 C450 1.202 . S
O466 U446 2.455 . S
O466 C463 1.301 . S
O467 U446 2.449 . S
O467 C463 1.282 . S
H468 C441 0.931 . S
H469 C443 0.929 . S
H470 C444 0.925 1_455 S
H471 C445 0.931 . S
H472 C452 0.930 . S
H473 C453 0.930 . S
H474 C454 0.932 . S
H475 C456 0.926 . S
H476 C458 0.932 . S
H477 C459 0.929 . S
H478 C460 0.928 . S
H479 C462 0.932 . S
C480 C481 1.264 . S
C480 C485 1.479 . S
C480 C490 1.465 . S
C481 C480 1.264 . S
C481 C483 1.339 . S
C481 H508 0.931 . S
C482 C483 1.395 . S
C482 C484 1.320 . S
C483 C481 1.339 . S
C483 C482 1.395 . S
C483 H509 0.929 . S
C484 C482 1.320 . S
C484 C485 1.405 . S
C484 H510 0.930 . S
C485 C480 1.479 . S
C485 C484 1.405 . S
C485 H511 0.931 . S
U486 O487 2.454 . S
U486 O488 2.458 . S
U486 C489 2.984 . S
U486 C490 2.847 . S
U486 C503 2.882 . S
U486 O504 2.441 . S
U486 O505 2.420 . S
U486 O506 2.455 . S
U486 O507 2.449 . S
O487 U486 2.454 . S
O487 C489 1.353 . S
O488 U486 2.458 . S
O488 C489 1.286 . S
C489 U486 2.984 . S
C489 O487 1.353 . S
C489 O488 1.286 . S
C489 C491 1.363 . S
C490 C480 1.465 . S
C490 U486 2.847 . S
C490 O504 1.249 . S
C490 O505 1.202 . S
C491 C489 1.363 . S
C491 C493 1.408 . S
C491 C496 1.342 . S
C492 C493 1.310 . S
C492 C495 1.461 . S
C492 H512 0.932 . S
C493 C491 1.408 . S
C493 C492 1.310 . S
C493 H513 0.930 . S
C494 C495 1.474 . S
C494 C496 1.285 . S
C494 H514 0.929 . S
C495 C492 1.461 . S
C495 C494 1.474 . S
C496 C491 1.342 . S
C496 C494 1.285 . S
C496 H515 0.930 . S
C497 C500 1.424 . S
C497 C502 1.245 . S
C497 C503 1.428 . S
C498 C501 1.260 . S
C498 C502 1.477 . S
C498 H516 0.932 . S
C499 C500 1.384 . S
C499 C501 1.479 . S
C499 H517 0.929 . S
C500 C497 1.424 . S
C500 C499 1.384 . S
C500 H518 0.928 . S
C501 C498 1.260 . S
C501 C499 1.479 . S
C502 C497 1.245 . S
C502 C498 1.477 . S
C502 H519 0.932 . S
C503 U486 2.882 . S
C503 C497 1.428 . S
C503 O506 1.301 . S
C503 O507 1.282 . S
O504 U486 2.441 . S
O504 C490 1.249 . S
O505 U486 2.420 . S
O505 C490 1.202 . S
O506 U486 2.455 . S
O506 C503 1.301 . S
O507 U486 2.449 . S
O507 C503 1.282 . S
H508 C481 0.931 . S
H509 C483 0.929 . S
H510 C484 0.930 . S
H511 C485 0.931 . S
H512 C492 0.932 . S
H513 C493 0.930 . S
H514 C494 0.929 . S
H515 C496 0.930 . S
H516 C498 0.932 . S
H517 C499 0.929 . S
H518 C500 0.928 . S
H519 C502 0.932 . S
C520 C521 1.264 . S
C520 C525 1.479 . S
C520 C530 1.465 . S
C521 C520 1.264 . S
C521 C523 1.339 . S
C521 H548 0.931 . S
C522 C523 1.395 . S
C522 C524 1.320 . S
C523 C521 1.339 . S
C523 C522 1.395 . S
C523 H549 0.929 . S
C524 C522 1.320 . S
C524 C525 1.405 . S
C524 H550 0.930 . S
C525 C520 1.479 . S
C525 C524 1.405 . S
C525 H551 0.931 . S
U526 O527 2.454 . S
U526 O528 2.458 . S
U526 C529 2.984 . S
U526 C530 2.847 . S
U526 C543 2.882 . S
U526 O544 2.441 . S
U526 O545 2.420 . S
U526 O546 2.455 . S
U526 O547 2.449 . S
O527 U526 2.454 . S
O527 C529 1.353 . S
O528 U526 2.458 . S
O528 C529 1.286 . S
C529 U526 2.984 . S
C529 O527 1.353 . S
C529 O528 1.286 . S
C529 C531 1.363 . S
C530 C520 1.465 . S
C530 U526 2.847 . S
C530 O544 1.249 . S
C530 O545 1.202 . S
C531 C529 1.363 . S
C531 C533 1.408 . S
C531 C536 1.342 . S
C532 C533 1.310 . S
C532 C535 1.461 . S
C532 H552 0.932 . S
C533 C531 1.408 . S
C533 C532 1.310 . S
C533 H553 0.930 . S
C534 C535 1.474 . S
C534 C536 1.285 . S
C534 H554 0.929 . S
C535 C532 1.461 . S
C535 C534 1.474 . S
C536 C531 1.342 . S
C536 C534 1.285 . S
C536 H555 0.930 . S
C537 C540 1.424 . S
C537 C542 1.245 . S
C537 C543 1.428 . S
C538 C541 1.260 . S
C538 C542 1.477 . S
C538 H556 0.932 . S
C539 C540 1.384 . S
C539 C541 1.479 . S
C539 H557 0.929 . S
C540 C537 1.424 . S
C540 C539 1.384 . S
C540 H558 0.928 . S
C541 C538 1.260 . S
C541 C539 1.479 . S
C542 C537 1.245 . S
C542 C538 1.477 . S
C542 H559 0.932 . S
C543 U526 2.882 . S
C543 C537 1.428 . S
C543 O546 1.301 . S
C543 O547 1.282 . S
O544 U526 2.441 . S
O544 C530 1.249 . S
O545 U526 2.420 . S
O545 C530 1.202 . S
O546 U526 2.455 . S
O546 C543 1.301 . S
O547 U526 2.449 . S
O547 C543 1.282 . S
H548 C521 0.931 . S
H549 C523 0.929 . S
H550 C524 0.930 . S
H551 C525 0.931 . S
H552 C532 0.932 . S
H553 C533 0.930 . S
H554 C534 0.929 . S
H555 C536 0.930 . S
H556 C538 0.932 . S
H557 C539 0.929 . S
H558 C540 0.928 . S
H559 C542 0.932 . S
C560 C561 1.264 . S
C560 C565 1.479 . S
C560 C570 1.465 . S
C561 C560 1.264 . S
C561 C563 1.339 . S
C561 H588 0.931 . S
C562 C563 1.395 . S
C562 C564 1.320 . S
C563 C561 1.339 . S
C563 C562 1.395 . S
C563 H589 0.929 . S
C564 C562 1.320 . S
C564 C565 1.405 . S
C564 H590 0.921 1_565 S
C565 C560 1.479 . S
C565 C564 1.405 . S
C565 H591 0.931 . S
U566 O567 2.454 . S
U566 O568 2.458 . S
U566 C569 2.984 . S
U566 C570 2.847 . S
U566 C583 2.882 . S
U566 O584 2.441 . S
U566 O585 2.420 . S
U566 O586 2.455 . S
U566 O587 2.449 . S
O567 U566 2.454 . S
O567 C569 1.353 . S
O568 U566 2.458 . S
O568 C569 1.286 . S
C569 U566 2.984 . S
C569 O567 1.353 . S
C569 O568 1.286 . S
C569 C571 1.363 . S
C570 C560 1.465 . S
C570 U566 2.847 . S
C570 O584 1.249 . S
C570 O585 1.202 . S
C571 C569 1.363 . S
C571 C573 1.408 . S
C571 C576 1.342 . S
C572 C573 1.310 . S
C572 C575 1.460 . S
C572 H592 0.932 . S
C573 C571 1.408 . S
C573 C572 1.310 . S
C573 H593 0.930 . S
C574 C575 1.475 1_545 S
C574 C576 1.286 1_545 S
C574 H594 0.930 . S
C575 C572 1.460 . S
C575 C574 1.475 1_565 S
C576 C571 1.342 . S
C576 C574 1.286 1_565 S
C576 H595 0.929 . S
C577 C580 1.424 . S
C577 C582 1.245 . S
C577 C583 1.428 . S
C578 C581 1.260 . S
C578 C582 1.477 . S
C578 H596 0.932 . S
C579 C580 1.384 . S
C579 C581 1.479 . S
C579 H597 0.929 . S
C580 C577 1.424 . S
C580 C579 1.384 . S
C580 H598 0.928 . S
C581 C578 1.260 . S
C581 C579 1.479 . S
C582 C577 1.245 . S
C582 C578 1.477 . S
C582 H599 0.932 . S
C583 U566 2.882 . S
C583 C577 1.428 . S
C583 O586 1.301 . S
C583 O587 1.282 . S
O584 U566 2.441 . S
O584 C570 1.249 . S
O585 U566 2.420 . S
O585 C570 1.202 . S
O586 U566 2.455 . S
O586 C583 1.301 . S
O587 U566 2.449 . S
O587 C583 1.282 . S
H588 C561 0.931 . S
H589 C563 0.929 . S
H590 C564 0.921 1_545 S
H591 C565 0.931 . S
H592 C572 0.932 . S
H593 C573 0.930 . S
H594 C574 0.930 . S
H595 C576 0.929 . S
H596 C578 0.932 . S
H597 C579 0.929 . S
H598 C580 0.928 . S
H599 C582 0.932 . S
C600 C601 1.264 1_565 S
C600 C605 1.477 . S
C600 C610 1.467 1_565 S
C601 C600 1.264 1_545 S
C601 C603 1.339 1_545 S
C601 H628 0.931 . S
C602 C603 1.395 . S
C602 C604 1.320 . S
C603 C601 1.339 1_565 S
C603 C602 1.395 . S
C603 H629 0.926 1_565 S
C604 C602 1.320 . S
C604 C605 1.405 . S
C604 H630 0.930 . S
C605 C600 1.477 . S
C605 C604 1.405 . S
C605 H631 0.931 . S
U606 O607 2.454 1_545 S
U606 O608 2.458 . S
U606 C609 2.984 1_545 S
U606 C610 2.847 . S
U606 C623 2.882 . S
U606 O624 2.441 . S
U606 O625 2.420 . S
U606 O626 2.455 . S
U606 O627 2.449 . S
O607 U606 2.454 1_565 S
O607 C609 1.354 . S
O608 U606 2.458 . S
O608 C609 1.285 1_545 S
C609 U606 2.984 1_565 S
C609 O607 1.354 . S
C609 O608 1.285 1_565 S
C609 C611 1.363 . S
C610 C600 1.467 1_545 S
C610 U606 2.847 . S
C610 O624 1.249 . S
C610 O625 1.202 . S
C611 C609 1.363 . S
C611 C613 1.408 . S
C611 C616 1.342 . S
C612 C613 1.310 . S
C612 C615 1.461 . S
C612 H632 0.932 . S
C613 C611 1.408 . S
C613 C612 1.310 . S
C613 H633 0.930 . S
C614 C615 1.474 . S
C614 C616 1.285 . S
C614 H634 0.929 . S
C615 C612 1.461 . S
C615 C614 1.474 . S
C616 C611 1.342 . S
C616 C614 1.285 . S
C616 H635 0.934 . S
C617 C620 1.424 . S
C617 C622 1.245 . S
C617 C623 1.428 . S
C618 C621 1.260 . S
C618 C622 1.477 . S
C618 H636 0.932 . S
C619 C620 1.384 . S
C619 C621 1.479 . S
C619 H637 0.929 . S
C620 C617 1.424 . S
C620 C619 1.384 . S
C620 H638 0.928 . S
C621 C618 1.260 . S
C621 C619 1.479 . S
C622 C617 1.245 . S
C622 C618 1.477 . S
C622 H639 0.932 . S
C623 U606 2.882 . S
C623 C617 1.428 . S
C623 O626 1.301 . S
C623 O627 1.282 . S
O624 U606 2.441 . S
O624 C610 1.249 . S
O625 U606 2.420 . S
O625 C610 1.202 . S
O626 U606 2.455 . S
O626 C623 1.301 . S
O627 U606 2.449 . S
O627 C623 1.282 . S
H628 C601 0.931 . S
H629 C603 0.926 1_545 S
H630 C604 0.930 . S
H631 C605 0.931 . S
H632 C612 0.932 . S
H633 C613 0.930 . S
H634 C614 0.929 . S
H635 C616 0.934 . S
H636 C618 0.932 . S
H637 C619 0.929 . S
H638 C620 0.928 . S
H639 C622 0.932 . S
C640 C641 1.264 . S
C640 C645 1.479 . S
C640 C650 1.465 . S
C641 C640 1.264 . S
C641 C643 1.339 . S
C641 H668 0.931 . S
C642 C643 1.395 . S
C642 C644 1.320 . S
C643 C641 1.339 . S
C643 C642 1.395 . S
C643 H669 0.929 . S
C644 C642 1.320 . S
C644 C645 1.405 . S
C644 H670 0.930 . S
C645 C640 1.479 . S
C645 C644 1.405 . S
C645 H671 0.931 . S
U646 O647 2.454 . S
U646 O648 2.458 . S
U646 C649 2.984 . S
U646 C650 2.847 . S
U646 C663 2.882 . S
U646 O664 2.441 . S
U646 O665 2.420 . S
U646 O666 2.455 . S
U646 O667 2.449 . S
O647 U646 2.454 . S
O647 C649 1.353 . S
O648 U646 2.458 . S
O648 C649 1.286 . S
C649 U646 2.984 . S
C649 O647 1.353 . S
C649 O648 1.286 . S
C649 C651 1.363 . S
C650 C640 1.465 . S
C650 U646 2.847 . S
C650 O664 1.249 . S
C650 O665 1.202 . S
C651 C649 1.363 . S
C651 C653 1.408 . S
C651 C656 1.342 . S
C652 C653 1.310 . S
C652 C655 1.461 . S
C652 H672 0.932 . S
C653 C651 1.408 . S
C653 C652 1.310 . S
C653 H673 0.930 . S
C654 C655 1.474 . S
C654 C656 1.285 . S
C654 H674 0.929 . S
C655 C652 1.461 . S
C655 C654 1.474 . S
C656 C651 1.342 . S
C656 C654 1.285 . S
C656 H675 0.930 . S
C657 C660 1.424 . S
C657 C662 1.245 . S
C657 C663 1.428 . S
C658 C661 1.260 . S
C658 C662 1.477 . S
C658 H676 0.932 . S
C659 C660 1.384 . S
C659 C661 1.479 . S
C659 H677 0.929 . S
C660 C657 1.424 . S
C660 C659 1.384 . S
C660 H678 0.928 . S
C661 C658 1.260 . S
C661 C659 1.479 . S
C662 C657 1.245 . S
C662 C658 1.477 . S
C662 H679 0.932 . S
C663 U646 2.882 . S
C663 C657 1.428 . S
C663 O666 1.301 . S
C663 O667 1.282 . S
O664 U646 2.441 . S
O664 C650 1.249 . S
O665 U646 2.420 . S
O665 C650 1.202 . S
O666 U646 2.455 . S
O666 C663 1.301 . S
O667 U646 2.449 . S
O667 C663 1.282 . S
H668 C641 0.931 . S
H669 C643 0.929 . S
H670 C644 0.930 . S
H671 C645 0.931 . S
H672 C652 0.932 . S
H673 C653 0.930 . S
H674 C654 0.929 . S
H675 C656 0.930 . S
H676 C658 0.932 . S
H677 C659 0.929 . S
H678 C660 0.928 . S
H679 C662 0.932 . S
C680 C681 1.264 1_556 S
C680 C685 1.477 . S
C680 C690 1.467 1_556 S
C681 C680 1.264 1_554 S
C681 C683 1.339 1_554 S
C681 H708 0.931 . S
C682 C683 1.395 . S
C682 C684 1.320 . S
C683 C681 1.339 1_556 S
C683 C682 1.395 . S
C683 H709 0.926 1_556 S
C684 C682 1.320 . S
C684 C685 1.405 . S
C684 H710 0.930 . S
C685 C680 1.477 . S
C685 C684 1.405 . S
C685 H711 0.931 . S
U686 O687 2.454 1_554 S
U686 O688 2.458 . S
U686 C689 2.984 1_554 S
U686 C690 2.847 . S
U686 C703 2.882 . S
U686 O704 2.441 . S
U686 O705 2.420 . S
U686 O706 2.455 . S
U686 O707 2.449 . S
O687 U686 2.454 1_556 S
O687 C689 1.354 . S
O688 U686 2.458 . S
O688 C689 1.285 1_554 S
C689 U686 2.984 1_556 S
C689 O687 1.354 . S
C689 O688 1.285 1_556 S
C689 C691 1.363 . S
C690 C680 1.467 1_554 S
C690 U686 2.847 . S
C690 O704 1.249 . S
C690 O705 1.202 . S
C691 C689 1.363 . S
C691 C693 1.408 . S
C691 C696 1.342 . S
C692 C693 1.310 . S
C692 C695 1.461 . S
C692 H712 0.932 . S
C693 C691 1.408 . S
C693 C692 1.310 . S
C693 H713 0.930 . S
C694 C695 1.474 . S
C694 C696 1.285 . S
C694 H714 0.929 . S
C695 C692 1.461 . S
C695 C694 1.474 . S
C696 C691 1.342 . S
C696 C694 1.285 . S
C696 H715 0.934 . S
C697 C700 1.424 . S
C697 C702 1.245 . S
C697 C703 1.428 . S
C698 C701 1.260 . S
C698 C702 1.477 . S
C698 H716 0.932 . S
C699 C700 1.384 . S
C699 C701 1.479 . S
C699 H717 0.929 . S
C700 C697 1.424 . S
C700 C699 1.384 . S
C700 H718 0.928 . S
C701 C698 1.260 . S
C701 C699 1.479 . S
C702 C697 1.245 . S
C702 C698 1.477 . S
C702 H719 0.932 . S
C703 U686 2.882 . S
C703 C697 1.428 . S
C703 O706 1.301 . S
C703 O707 1.282 . S
O704 U686 2.441 . S
O704 C690 1.249 . S
O705 U686 2.420 . S
O705 C690 1.202 . S
O706 U686 2.455 . S
O706 C703 1.301 . S
O707 U686 2.449 . S
O707 C703 1.282 . S
H708 C681 0.931 . S
H709 C683 0.926 1_554 S
H710 C684 0.930 . S
H711 C685 0.931 . S
H712 C692 0.932 . S
H713 C693 0.930 . S
H714 C694 0.929 . S
H715 C696 0.934 . S
H716 C698 0.932 . S
H717 C699 0.929 . S
H718 C700 0.928 . S
H719 C702 0.932 . S
C720 C721 1.264 . S
C720 C725 1.479 . S
C720 C730 1.465 . S
C721 C720 1.264 . S
C721 C723 1.339 . S
C721 H748 0.931 . S
C722 C723 1.395 . S
C722 C724 1.320 . S
C723 C721 1.339 . S
C723 C722 1.395 . S
C723 H749 0.929 . S
C724 C722 1.320 . S
C724 C725 1.405 . S
C724 H750 0.930 . S
C725 C720 1.479 . S
C725 C724 1.405 . S
C725 H751 0.931 . S
U726 O727 2.454 . S
U726 O728 2.458 . S
U726 C729 2.984 . S
U726 C730 2.847 . S
U726 C743 2.882 . S
U726 O744 2.441 . S
U726 O745 2.420 . S
U726 O746 2.455 . S
U726 O747 2.449 . S
O727 U726 2.454 . S
O727 C729 1.353 . S
O728 U726 2.458 . S
O728 C729 1.286 . S
C729 U726 2.984 . S
C729 O727 1.353 . S
C729 O728 1.286 . S
C729 C731 1.363 . S
C730 C720 1.465 . S
C730 U726 2.847 . S
C730 O744 1.249 . S
C730 O745 1.202 . S
C731 C729 1.363 . S
C731 C733 1.408 . S
C731 C736 1.342 . S
C732 C733 1.310 . S
C732 C735 1.461 . S
C732 H752 0.932 . S
C733 C731 1.408 . S
C733 C732 1.310 . S
C733 H753 0.930 . S
C734 C735 1.474 . S
C734 C736 1.285 . S
C734 H754 0.929 . S
C735 C732 1.461 . S
C735 C734 1.474 . S
C736 C731 1.342 . S
C736 C734 1.285 . S
C736 H755 0.930 . S
C737 C740 1.424 . S
C737 C742 1.245 . S
C737 C743 1.428 . S
C738 C741 1.260 . S
C738 C742 1.477 . S
C738 H756 0.932 . S
C739 C740 1.384 . S
C739 C741 1.479 . S
C739 H757 0.929 . S
C740 C737 1.424 . S
C740 C739 1.384 . S
C740 H758 0.928 . S
C741 C738 1.260 . S
C741 C739 1.479 . S
C742 C737 1.245 . S
C742 C738 1.477 . S
C742 H759 0.932 . S
C743 U726 2.882 . S
C743 C737 1.428 . S
C743 O746 1.301 . S
C743 O747 1.282 . S
O744 U726 2.441 . S
O744 C730 1.249 . S
O745 U726 2.420 . S
O745 C730 1.202 . S
O746 U726 2.455 . S
O746 C743 1.301 . S
O747 U726 2.449 . S
O747 C743 1.282 . S
H748 C721 0.931 . S
H749 C723 0.929 . S
H750 C724 0.930 . S
H751 C725 0.931 . S
H752 C732 0.932 . S
H753 C733 0.930 . S
H754 C734 0.929 . S
H755 C736 0.930 . S
H756 C738 0.932 . S
H757 C739 0.929 . S
H758 C740 0.928 . S
H759 C742 0.932 . S
C760 C761 1.264 . S
C760 C765 1.479 . S
C760 C770 1.465 . S
C761 C760 1.264 . S
C761 C763 1.339 . S
C761 H788 0.931 . S
C762 C763 1.395 . S
C762 C764 1.320 . S
C763 C761 1.339 . S
C763 C762 1.395 . S
C763 H789 0.929 . S
C764 C762 1.320 . S
C764 C765 1.405 . S
C764 H790 0.921 1_556 S
C765 C760 1.479 . S
C765 C764 1.405 . S
C765 H791 0.931 . S
U766 O767 2.454 . S
U766 O768 2.458 . S
U766 C769 2.984 . S
U766 C770 2.847 . S
U766 C783 2.882 . S
U766 O784 2.441 . S
U766 O785 2.420 . S
U766 O786 2.455 . S
U766 O787 2.449 . S
O767 U766 2.454 . S
O767 C769 1.353 . S
O768 U766 2.458 . S
O768 C769 1.286 . S
C769 U766 2.984 . S
C769 O767 1.353 . S
C769 O768 1.286 . S
C769 C771 1.363 . S
C770 C760 1.465 . S
C770 U766 2.847 . S
C770 O784 1.249 . S
C770 O785 1.202 . S
C771 C769 1.363 . S
C771 C773 1.408 . S
C771 C776 1.342 . S
C772 C773 1.310 . S
C772 C775 1.460 . S
C772 H792 0.932 . S
C773 C771 1.408 . S
C773 C772 1.310 . S
C773 H793 0.930 . S
C774 C775 1.475 1_554 S
C774 C776 1.286 1_554 S
C774 H794 0.930 . S
C775 C772 1.460 . S
C775 C774 1.475 1_556 S
C776 C771 1.342 . S
C776 C774 1.286 1_556 S
C776 H795 0.929 . S
C777 C780 1.424 . S
C777 C782 1.245 . S
C777 C783 1.428 . S
C778 C781 1.260 . S
C778 C782 1.477 . S
C778 H796 0.932 . S
C779 C780 1.384 . S
C779 C781 1.479 . S
C779 H797 0.929 . S
C780 C777 1.424 . S
C780 C779 1.384 . S
C780 H798 0.928 . S
C781 C778 1.260 . S
C781 C779 1.479 . S
C782 C777 1.245 . S
C782 C778 1.477 . S
C782 H799 0.932 . S
C783 U766 2.882 . S
C783 C777 1.428 . S
C783 O786 1.301 . S
C783 O787 1.282 . S
O784 U766 2.441 . S
O784 C770 1.249 . S
O785 U766 2.420 . S
O785 C770 1.202 . S
O786 U766 2.455 . S
O786 C783 1.301 . S
O787 U766 2.449 . S
O787 C783 1.282 . S
H788 C761 0.931 . S
H789 C763 0.929 . S
H790 C764 0.921 1_554 S
H791 C765 0.931 . S
H792 C772 0.932 . S
H793 C773 0.930 . S
H794 C774 0.930 . S
H795 C776 0.929 . S
H796 C778 0.932 . S
H797 C779 0.929 . S
H798 C780 0.928 . S
H799 C782 0.932 . S
C800 C801 1.264 . S
C800 C805 1.479 . S
C800 C810 1.465 . S
C801 C800 1.264 . S
C801 C803 1.339 . S
C801 H828 0.931 . S
C802 C803 1.395 . S
C802 C804 1.320 . S
C803 C801 1.339 . S
C803 C802 1.395 . S
C803 H829 0.929 . S
C804 C802 1.320 . S
C804 C805 1.405 . S
C804 H830 0.930 . S
C805 C800 1.479 . S
C805 C804 1.405 . S
C805 H831 0.931 . S
U806 O807 2.454 . S
U806 O808 2.458 . S
U806 C809 2.984 . S
U806 C810 2.847 . S
U806 C823 2.882 . S
U806 O824 2.441 . S
U806 O825 2.420 . S
U806 O826 2.455 . S
U806 O827 2.449 . S
O807 U806 2.454 . S
O807 C809 1.353 . S
O808 U806 2.458 . S
O808 C809 1.286 . S
C809 U806 2.984 . S
C809 O807 1.353 . S
C809 O808 1.286 . S
C809 C811 1.363 . S
C810 C800 1.465 . S
C810 U806 2.847 . S
C810 O824 1.249 . S
C810 O825 1.202 . S
C811 C809 1.363 . S
C811 C813 1.408 . S
C811 C816 1.342 . S
C812 C813 1.310 . S
C812 C815 1.461 . S
C812 H832 0.932 . S
C813 C811 1.408 . S
C813 C812 1.310 . S
C813 H833 0.930 . S
C814 C815 1.474 . S
C814 C816 1.285 . S
C814 H834 0.929 . S
C815 C812 1.461 . S
C815 C814 1.474 . S
C816 C811 1.342 . S
C816 C814 1.285 . S
C816 H835 0.930 . S
C817 C820 1.424 . S
C817 C822 1.245 . S
C817 C823 1.428 . S
C818 C821 1.260 . S
C818 C822 1.477 . S
C818 H836 0.932 . S
C819 C820 1.384 . S
C819 C821 1.479 . S
C819 H837 0.929 . S
C820 C817 1.424 . S
C820 C819 1.384 . S
C820 H838 0.928 . S
C821 C818 1.260 . S
C821 C819 1.479 . S
C822 C817 1.245 . S
C822 C818 1.477 . S
C822 H839 0.932 . S
C823 U806 2.882 . S
C823 C817 1.428 . S
C823 O826 1.301 . S
C823 O827 1.282 . S
O824 U806 2.441 . S
O824 C810 1.249 . S
O825 U806 2.420 . S
O825 C810 1.202 . S
O826 U806 2.455 . S
O826 C823 1.301 . S
O827 U806 2.449 . S
O827 C823 1.282 . S
H828 C801 0.931 . S
H829 C803 0.929 . S
H830 C804 0.930 . S
H831 C805 0.931 . S
H832 C812 0.932 . S
H833 C813 0.930 . S
H834 C814 0.929 . S
H835 C816 0.930 . S
H836 C818 0.932 . S
H837 C819 0.929 . S
H838 C820 0.928 . S
H839 C822 0.932 . S
C840 C841 1.264 1_655 S
C840 C845 1.477 . S
C840 C850 1.467 1_655 S
C841 C840 1.264 1_455 S
C841 C843 1.339 1_455 S
C841 H868 0.931 . S
C842 C843 1.395 . S
C842 C844 1.320 . S
C843 C841 1.339 1_655 S
C843 C842 1.395 . S
C843 H869 0.926 1_655 S
C844 C842 1.320 . S
C844 C845 1.405 . S
C844 H870 0.930 . S
C845 C840 1.477 . S
C845 C844 1.405 . S
C845 H871 0.931 . S
U846 O847 2.454 1_455 S
U846 O848 2.458 . S
U846 C849 2.984 1_455 S
U846 C850 2.847 . S
U846 C863 2.882 . S
U846 O864 2.441 . S
U846 O865 2.420 . S
U846 O866 2.455 . S
U846 O867 2.449 . S
O847 U846 2.454 1_655 S
O847 C849 1.354 . S
O848 U846 2.458 . S
O848 C849 1.285 1_455 S
C849 U846 2.984 1_655 S
C849 O847 1.354 . S
C849 O848 1.285 1_655 S
C849 C851 1.363 . S
C850 C840 1.467 1_455 S
C850 U846 2.847 . S
C850 O864 1.249 . S
C850 O865 1.202 . S
C851 C849 1.363 . S
C851 C853 1.408 . S
C851 C856 1.342 . S
C852 C853 1.310 . S
C852 C855 1.461 . S
C852 H872 0.932 . S
C853 C851 1.408 . S
C853 C852 1.310 . S
C853 H873 0.930 . S
C854 C855 1.474 . S
C854 C856 1.285 . S
C854 H874 0.929 . S
C855 C852 1.461 . S
C855 C854 1.474 . S
C856 C851 1.342 . S
C856 C854 1.285 . S
C856 H875 0.934 . S
C857 C860 1.424 . S
C857 C862 1.245 . S
C857 C863 1.428 . S
C858 C861 1.260 . S
C858 C862 1.477 . S
C858 H876 0.932 . S
C859 C860 1.384 . S
C859 C861 1.479 . S
C859 H877 0.929 . S
C860 C857 1.424 . S
C860 C859 1.384 . S
C860 H878 0.928 . S
C861 C858 1.260 . S
C861 C859 1.479 . S
C862 C857 1.245 . S
C862 C858 1.477 . S
C862 H879 0.932 . S
C863 U846 2.882 . S
C863 C857 1.428 . S
C863 O866 1.301 . S
C863 O867 1.282 . S
O864 U846 2.441 . S
O864 C850 1.249 . S
O865 U846 2.420 . S
O865 C850 1.202 . S
O866 U846 2.455 . S
O866 C863 1.301 . S
O867 U846 2.449 . S
O867 C863 1.282 . S
H868 C841 0.931 . S
H869 C843 0.926 1_455 S
H870 C844 0.930 . S
H871 C845 0.931 . S
H872 C852 0.932 . S
H873 C853 0.930 . S
H874 C854 0.929 . S
H875 C856 0.934 . S
H876 C858 0.932 . S
H877 C859 0.929 . S
H878 C860 0.928 . S
H879 C862 0.932 . S
C880 C881 1.264 . S
C880 C885 1.479 . S
C880 C890 1.465 . S
C881 C880 1.264 . S
C881 C883 1.339 . S
C881 H908 0.931 . S
C882 C883 1.395 . S
C882 C884 1.320 . S
C883 C881 1.339 . S
C883 C882 1.395 . S
C883 H909 0.929 . S
C884 C882 1.320 . S
C884 C885 1.405 . S
C884 H910 0.930 . S
C885 C880 1.479 . S
C885 C884 1.405 . S
C885 H911 0.931 . S
U886 O887 2.454 . S
U886 O888 2.458 . S
U886 C889 2.984 . S
U886 C890 2.847 . S
U886 C903 2.882 . S
U886 O904 2.441 . S
U886 O905 2.420 . S
U886 O906 2.455 . S
U886 O907 2.449 . S
O887 U886 2.454 . S
O887 C889 1.353 . S
O888 U886 2.458 . S
O888 C889 1.286 . S
C889 U886 2.984 . S
C889 O887 1.353 . S
C889 O888 1.286 . S
C889 C891 1.363 . S
C890 C880 1.465 . S
C890 U886 2.847 . S
C890 O904 1.249 . S
C890 O905 1.202 . S
C891 C889 1.363 . S
C891 C893 1.408 . S
C891 C896 1.342 . S
C892 C893 1.310 . S
C892 C895 1.461 . S
C892 H912 0.932 . S
C893 C891 1.408 . S
C893 C892 1.310 . S
C893 H913 0.930 . S
C894 C895 1.474 . S
C894 C896 1.285 . S
C894 H914 0.929 . S
C895 C892 1.461 . S
C895 C894 1.474 . S
C896 C891 1.342 . S
C896 C894 1.285 . S
C896 H915 0.930 . S
C897 C900 1.424 . S
C897 C902 1.245 . S
C897 C903 1.428 . S
C898 C901 1.260 . S
C898 C902 1.477 . S
C898 H916 0.932 . S
C899 C900 1.384 . S
C899 C901 1.479 . S
C899 H917 0.929 . S
C900 C897 1.424 . S
C900 C899 1.384 . S
C900 H918 0.928 . S
C901 C898 1.260 . S
C901 C899 1.479 . S
C902 C897 1.245 . S
C902 C898 1.477 . S
C902 H919 0.932 . S
C903 U886 2.882 . S
C903 C897 1.428 . S
C903 O906 1.301 . S
C903 O907 1.282 . S
O904 U886 2.441 . S
O904 C890 1.249 . S
O905 U886 2.420 . S
O905 C890 1.202 . S
O906 U886 2.455 . S
O906 C903 1.301 . S
O907 U886 2.449 . S
O907 C903 1.282 . S
H908 C881 0.931 . S
H909 C883 0.929 . S
H910 C884 0.930 . S
H911 C885 0.931 . S
H912 C892 0.932 . S
H913 C893 0.930 . S
H914 C894 0.929 . S
H915 C896 0.930 . S
H916 C898 0.932 . S
H917 C899 0.929 . S
H918 C900 0.928 . S
H919 C902 0.932 . S
C920 C921 1.264 . S
C920 C925 1.479 . S
C920 C930 1.465 . S
C921 C920 1.264 . S
C921 C923 1.339 . S
C921 H948 0.931 . S
C922 C923 1.395 . S
C922 C924 1.320 . S
C923 C921 1.339 . S
C923 C922 1.395 . S
C923 H949 0.929 . S
C924 C922 1.320 . S
C924 C925 1.405 . S
C924 H950 0.921 1_655 S
C925 C920 1.479 . S
C925 C924 1.405 . S
C925 H951 0.931 . S
U926 O927 2.454 . S
U926 O928 2.458 . S
U926 C929 2.984 . S
U926 C930 2.847 . S
U926 C943 2.882 . S
U926 O944 2.441 . S
U926 O945 2.420 . S
U926 O946 2.455 . S
U926 O947 2.449 . S
O927 U926 2.454 . S
O927 C929 1.353 . S
O928 U926 2.458 . S
O928 C929 1.286 . S
C929 U926 2.984 . S
C929 O927 1.353 . S
C929 O928 1.286 . S
C929 C931 1.363 . S
C930 C920 1.465 . S
C930 U926 2.847 . S
C930 O944 1.249 . S
C930 O945 1.202 . S
C931 C929 1.363 . S
C931 C933 1.408 . S
C931 C936 1.342 . S
C932 C933 1.310 . S
C932 C935 1.460 . S
C932 H952 0.932 . S
C933 C931 1.408 . S
C933 C932 1.310 . S
C933 H953 0.930 . S
C934 C935 1.475 1_455 S
C934 C936 1.286 1_455 S
C934 H954 0.930 . S
C935 C932 1.460 . S
C935 C934 1.475 1_655 S
C936 C931 1.342 . S
C936 C934 1.286 1_655 S
C936 H955 0.929 . S
C937 C940 1.424 . S
C937 C942 1.245 . S
C937 C943 1.428 . S
C938 C941 1.260 . S
C938 C942 1.477 . S
C938 H956 0.932 . S
C939 C940 1.384 . S
C939 C941 1.479 . S
C939 H957 0.929 . S
C940 C937 1.424 . S
C940 C939 1.384 . S
C940 H958 0.928 . S
C941 C938 1.260 . S
C941 C939 1.479 . S
C942 C937 1.245 . S
C942 C938 1.477 . S
C942 H959 0.932 . S
C943 U926 2.882 . S
C943 C937 1.428 . S
C943 O946 1.301 . S
C943 O947 1.282 . S
O944 U926 2.441 . S
O944 C930 1.249 . S
O945 U926 2.420 . S
O945 C930 1.202 . S
O946 U926 2.455 . S
O946 C943 1.301 . S
O947 U926 2.449 . S
O947 C943 1.282 . S
H948 C921 0.931 . S
H949 C923 0.929 . S
H950 C924 0.921 1_455 S
H951 C925 0.931 . S
H952 C932 0.932 . S
H953 C933 0.930 . S
H954 C934 0.930 . S
H955 C936 0.929 . S
H956 C938 0.932 . S
H957 C939 0.929 . S
H958 C940 0.928 . S
H959 C942 0.932 . S
H960 C965 0.930 . S
H961 C968 0.930 . S
H962 C970 0.930 . S
H963 C964 1.016 . S
C964 H963 1.016 . S
C964 N971 1.286 . S
C965 H960 0.930 . S
C965 C966 1.397 . S
C965 C967 1.361 . S
C966 C965 1.397 . S
C966 C970 1.390 . S
C967 C965 1.361 . S
C967 C968 1.393 . S
C967 N971 1.413 . S
C968 H961 0.930 . S
C968 C967 1.393 . S
C968 C969 1.399 . S
C969 C968 1.399 . S
C969 C970 1.381 . S
C970 H962 0.930 . S
C970 C966 1.390 . S
C970 C969 1.381 . S
N971 C964 1.286 . S
N971 C967 1.413 . S
H972 C977 0.930 . S
H973 C980 0.930 . S
H974 C982 0.930 . S
H975 C976 1.016 1_556 S
C976 H975 1.016 1_554 S
C976 N983 1.286 . S
C977 H972 0.930 . S
C977 C978 1.397 . S
C977 C979 1.361 . S
C978 C977 1.397 . S
C978 C982 1.390 1_554 S
C979 C977 1.361 . S
C979 C980 1.393 1_554 S
C979 N983 1.413 . S
C980 H973 0.930 . S
C980 C979 1.393 1_556 S
C980 C981 1.399 . S
C981 C980 1.399 . S
C981 C982 1.381 . S
C982 H974 0.930 . S
C982 C978 1.390 1_556 S
C982 C981 1.381 . S
N983 C976 1.286 . S
N983 C979 1.413 . S
H984 C989 0.930 . S
H985 C992 0.930 . S
H986 C994 0.930 . S
H987 C988 1.016 . S
C988 H987 1.016 . S
C988 N995 1.286 . S
C989 H984 0.930 . S
C989 C990 1.397 . S
C989 C991 1.361 1_565 S
C990 C989 1.397 . S
C990 C994 1.390 . S
C991 C989 1.361 1_545 S
C991 C992 1.393 . S
C991 N995 1.413 . S
C992 H985 0.930 . S
C992 C991 1.393 . S
C992 C993 1.399 1_545 S
C993 C992 1.399 1_565 S
C993 C994 1.381 . S
C994 H986 0.930 . S
C994 C990 1.390 . S
C994 C993 1.381 . S
N995 C988 1.286 . S
N995 C991 1.413 . S
H996 C1001 0.930 . S
H997 C1004 0.930 . S
H998 C1006 0.930 . S
H999 C1000 1.071 . S
C1000 H999 1.071 . S
C1000 N1007 1.286 . S
C1001 H996 0.930 . S
C1001 C1002 1.397 . S
C1001 C1003 1.361 . S
C1002 C1001 1.397 . S
C1002 C1006 1.390 1_556 S
C1003 C1001 1.361 . S
C1003 C1004 1.393 1_556 S
C1003 N1007 1.413 . S
C1004 H997 0.930 . S
C1004 C1003 1.393 1_554 S
C1004 C1005 1.399 . S
C1005 C1004 1.399 . S
C1005 C1006 1.381 . S
C1006 H998 0.930 . S
C1006 C1002 1.390 1_554 S
C1006 C1005 1.381 . S
N1007 C1000 1.286 . S
N1007 C1003 1.413 . S
H1008 C1013 0.930 . S
H1009 C1016 0.930 . S
H1010 C1018 0.930 . S
H1011 C1012 1.016 . S
C1012 H1011 1.016 . S
C1012 N1019 1.286 . S
C1013 H1008 0.930 . S
C1013 C1014 1.397 . S
C1013 C1015 1.361 . S
C1014 C1013 1.397 . S
C1014 C1018 1.390 . S
C1015 C1013 1.361 . S
C1015 C1016 1.393 . S
C1015 N1019 1.413 . S
C1016 H1009 0.930 . S
C1016 C1015 1.393 . S
C1016 C1017 1.399 . S
C1017 C1016 1.399 . S
C1017 C1018 1.381 . S
C1018 H1010 0.930 . S
C1018 C1014 1.390 . S
C1018 C1017 1.381 . S
N1019 C1012 1.286 . S
N1019 C1015 1.413 . S
H1020 C1025 0.930 . S
H1021 C1028 0.930 . S
H1022 C1030 0.930 . S
H1023 C1024 1.071 . S
C1024 H1023 1.071 . S
C1024 N1031 1.286 . S
C1025 H1020 0.930 . S
C1025 C1026 1.397 . S
C1025 C1027 1.361 . S
C1026 C1025 1.397 . S
C1026 C1030 1.390 1_655 S
C1027 C1025 1.361 . S
C1027 C1028 1.393 1_655 S
C1027 N1031 1.413 . S
C1028 H1021 0.930 . S
C1028 C1027 1.393 1_455 S
C1028 C1029 1.399 . S
C1029 C1028 1.399 . S
C1029 C1030 1.381 . S
C1030 H1022 0.930 . S
C1030 C1026 1.390 1_455 S
C1030 C1029 1.381 . S
N1031 C1024 1.286 . S
N1031 C1027 1.413 . S
H1032 C1037 0.930 . S
H1033 C1040 0.930 . S
H1034 C1042 0.930 . S
H1035 C1036 1.016 1_655 S
C1036 H1035 1.016 1_455 S
C1036 N1043 1.286 . S
C1037 H1032 0.930 . S
C1037 C1038 1.397 . S
C1037 C1039 1.361 . S
C1038 C1037 1.397 . S
C1038 C1042 1.390 1_455 S
C1039 C1037 1.361 . S
C1039 C1040 1.393 1_455 S
C1039 N1043 1.413 . S
C1040 H1033 0.930 . S
C1040 C1039 1.393 1_655 S
C1040 C1041 1.399 . S
C1041 C1040 1.399 . S
C1041 C1042 1.381 . S
C1042 H1034 0.930 . S
C1042 C1038 1.390 1_655 S
C1042 C1041 1.381 . S
N1043 C1036 1.286 . S
N1043 C1039 1.413 . S
H1044 C1049 0.930 . S
H1045 C1052 0.930 . S
H1046 C1054 0.930 . S
H1047 C1048 1.016 . S
C1048 H1047 1.016 . S
C1048 N1055 1.286 . S
C1049 H1044 0.930 . S
C1049 C1050 1.397 . S
C1049 C1051 1.361 1_556 S
C1050 C1049 1.397 . S
C1050 C1054 1.390 . S
C1051 C1049 1.361 1_554 S
C1051 C1052 1.393 . S
C1051 N1055 1.413 . S
C1052 H1045 0.930 . S
C1052 C1051 1.393 . S
C1052 C1053 1.399 1_554 S
C1053 C1052 1.399 1_556 S
C1053 C1054 1.381 . S
C1054 H1046 0.930 . S
C1054 C1050 1.390 . S
C1054 C1053 1.381 . S
N1055 C1048 1.286 . S
N1055 C1051 1.413 . S
H1056 C1061 0.930 . S
H1057 C1064 0.930 . S
H1058 C1066 0.930 . S
H1059 C1060 1.016 . S
C1060 H1059 1.016 . S
C1060 N1067 1.286 . S
C1061 H1056 0.930 . S
C1061 C1062 1.397 . S
C1061 C1063 1.361 . S
C1062 C1061 1.397 . S
C1062 C1066 1.390 . S
C1063 C1061 1.361 . S
C1063 C1064 1.393 . S
C1063 N1067 1.413 . S
C1064 H1057 0.930 . S
C1064 C1063 1.393 . S
C1064 C1065 1.399 . S
C1065 C1064 1.399 . S
C1065 C1066 1.381 . S
C1066 H1058 0.930 . S
C1066 C1062 1.390 . S
C1066 C1065 1.381 . S
N1067 C1060 1.286 . S
N1067 C1063 1.413 . S
H1068 C1073 0.930 . S
H1069 C1076 0.930 . S
H1070 C1078 0.930 . S
H1071 C1072 1.071 . S
C1072 H1071 1.071 . S
C1072 N1079 1.286 . S
C1073 H1068 0.930 . S
C1073 C1074 1.397 . S
C1073 C1075 1.361 . S
C1074 C1073 1.397 . S
C1074 C1078 1.390 1_565 S
C1075 C1073 1.361 . S
C1075 C1076 1.393 1_565 S
C1075 N1079 1.413 . S
C1076 H1069 0.930 . S
C1076 C1075 1.393 1_545 S
C1076 C1077 1.399 . S
C1077 C1076 1.399 . S
C1077 C1078 1.381 . S
C1078 H1070 0.930 . S
C1078 C1074 1.390 1_545 S
C1078 C1077 1.381 . S
N1079 C1072 1.286 . S
N1079 C1075 1.413 . S
H1080 C1085 0.930 . S
H1081 C1088 0.930 . S
H1082 C1090 0.930 . S
H1083 C1084 1.016 1_565 S
C1084 H1083 1.016 1_545 S
C1084 N1091 1.286 . S
C1085 H1080 0.930 . S
C1085 C1086 1.397 . S
C1085 C1087 1.361 . S
C1086 C1085 1.397 . S
C1086 C1090 1.390 1_545 S
C1087 C1085 1.361 . S
C1087 C1088 1.393 1_545 S
C1087 N1091 1.413 . S
C1088 H1081 0.930 . S
C1088 C1087 1.393 1_565 S
C1088 C1089 1.399 . S
C1089 C1088 1.399 . S
C1089 C1090 1.381 . S
C1090 H1082 0.930 . S
C1090 C1086 1.390 1_565 S
C1090 C1089 1.381 . S
N1091 C1084 1.286 . S
N1091 C1087 1.413 . S
H1092 C1097 0.930 . S
H1093 C1100 0.930 . S
H1094 C1102 0.930 . S
H1095 C1096 1.016 . S
C1096 H1095 1.016 . S
C1096 N1103 1.286 . S
C1097 H1092 0.930 . S
C1097 C1098 1.397 . S
C1097 C1099 1.361 1_655 S
C1098 C1097 1.397 . S
C1098 C1102 1.390 . S
C1099 C1097 1.361 1_455 S
C1099 C1100 1.393 . S
C1099 N1103 1.413 . S
C1100 H1093 0.930 . S
C1100 C1099 1.393 . S
C1100 C1101 1.399 1_455 S
C1101 C1100 1.399 1_655 S
C1101 C1102 1.381 . S
C1102 H1094 0.930 . S
C1102 C1098 1.390 . S
C1102 C1101 1.381 . S
N1103 C1096 1.286 . S
N1103 C1099 1.413 . S
H1104 C1109 0.930 . S
H1105 C1112 0.930 . S
H1106 C1114 0.930 . S
H1107 C1108 1.016 . S
C1108 H1107 1.016 . S
C1108 N1115 1.286 . S
C1109 H1104 0.930 . S
C1109 C1110 1.397 . S
C1109 C1111 1.361 . S
C1110 C1109 1.397 . S
C1110 C1114 1.390 . S
C1111 C1109 1.361 . S
C1111 C1112 1.393 . S
C1111 N1115 1.413 . S
C1112 H1105 0.930 . S
C1112 C1111 1.393 . S
C1112 C1113 1.399 . S
C1113 C1112 1.399 . S
C1113 C1114 1.381 . S
C1114 H1106 0.930 . S
C1114 C1110 1.390 . S
C1114 C1113 1.381 . S
N1115 C1108 1.286 . S
N1115 C1111 1.413 . S
H1116 C1121 0.930 . S
H1117 C1124 0.930 . S
H1118 C1126 0.930 . S
H1119 C1120 1.016 1_554 S
C1120 H1119 1.016 1_556 S
C1120 N1127 1.286 . S
C1121 H1116 0.930 . S
C1121 C1122 1.397 . S
C1121 C1123 1.361 . S
C1122 C1121 1.397 . S
C1122 C1126 1.390 1_556 S
C1123 C1121 1.361 . S
C1123 C1124 1.393 1_556 S
C1123 N1127 1.413 . S
C1124 H1117 0.930 . S
C1124 C1123 1.393 1_554 S
C1124 C1125 1.399 . S
C1125 C1124 1.399 . S
C1125 C1126 1.381 . S
C1126 H1118 0.930 . S
C1126 C1122 1.390 1_554 S
C1126 C1125 1.381 . S
N1127 C1120 1.286 . S
N1127 C1123 1.413 . S
H1128 C1133 0.930 . S
H1129 C1136 0.930 . S
H1130 C1138 0.930 . S
H1131 C1132 1.016 . S
C1132 H1131 1.016 . S
C1132 N1139 1.286 . S
C1133 H1128 0.930 . S
C1133 C1134 1.397 . S
C1133 C1135 1.361 1_545 S
C1134 C1133 1.397 . S
C1134 C1138 1.390 . S
C1135 C1133 1.361 1_565 S
C1135 C1136 1.393 . S
C1135 N1139 1.413 . S
C1136 H1129 0.930 . S
C1136 C1135 1.393 . S
C1136 C1137 1.399 1_565 S
C1137 C1136 1.399 1_545 S
C1137 C1138 1.381 . S
C1138 H1130 0.930 . S
C1138 C1134 1.390 . S
C1138 C1137 1.381 . S
N1139 C1132 1.286 . S
N1139 C1135 1.413 . S
H1140 C1145 0.930 . S
H1141 C1148 0.930 . S
H1142 C1150 0.930 . S
H1143 C1144 1.016 1_556 S
C1144 H1143 1.016 1_554 S
C1144 N1151 1.286 . S
C1145 H1140 0.930 . S
C1145 C1146 1.397 . S
C1145 C1147 1.361 . S
C1146 C1145 1.397 . S
C1146 C1150 1.390 1_554 S
C1147 C1145 1.361 . S
C1147 C1148 1.393 1_554 S
C1147 N1151 1.413 . S
C1148 H1141 0.930 . S
C1148 C1147 1.393 1_556 S
C1148 C1149 1.399 . S
C1149 C1148 1.399 . S
C1149 C1150 1.381 . S
C1150 H1142 0.930 . S
C1150 C1146 1.390 1_556 S
C1150 C1149 1.381 . S
N1151 C1144 1.286 . S
N1151 C1147 1.413 . S
H1152 C1157 0.930 . S
H1153 C1160 0.930 . S
H1154 C1162 0.930 . S
H1155 C1156 1.016 . S
C1156 H1155 1.016 . S
C1156 N1163 1.286 . S
C1157 H1152 0.930 . S
C1157 C1158 1.397 . S
C1157 C1159 1.361 . S
C1158 C1157 1.397 . S
C1158 C1162 1.390 . S
C1159 C1157 1.361 . S
C1159 C1160 1.393 . S
C1159 N1163 1.413 . S
C1160 H1153 0.930 . S
C1160 C1159 1.393 . S
C1160 C1161 1.399 . S
C1161 C1160 1.399 . S
C1161 C1162 1.381 . S
C1162 H1154 0.930 . S
C1162 C1158 1.390 . S
C1162 C1161 1.381 . S
N1163 C1156 1.286 . S
N1163 C1159 1.413 . S
H1164 C1169 0.930 . S
H1165 C1172 0.930 . S
H1166 C1174 0.930 . S
H1167 C1168 1.016 1_655 S
C1168 H1167 1.016 1_455 S
C1168 N1175 1.286 . S
C1169 H1164 0.930 . S
C1169 C1170 1.397 . S
C1169 C1171 1.361 . S
C1170 C1169 1.397 . S
C1170 C1174 1.390 1_455 S
C1171 C1169 1.361 . S
C1171 C1172 1.393 1_455 S
C1171 N1175 1.413 . S
C1172 H1165 0.930 . S
C1172 C1171 1.393 1_655 S
C1172 C1173 1.399 . S
C1173 C1172 1.399 . S
C1173 C1174 1.381 . S
C1174 H1166 0.930 . S
C1174 C1170 1.390 1_655 S
C1174 C1173 1.381 . S
N1175 C1168 1.286 . S
N1175 C1171 1.413 . S
H1176 C1181 0.930 . S
H1177 C1184 0.930 . S
H1178 C1186 0.930 . S
H1179 C1180 1.016 1_455 S
C1180 H1179 1.016 1_655 S
C1180 N1187 1.286 . S
C1181 H1176 0.930 . S
C1181 C1182 1.397 . S
C1181 C1183 1.361 . S
C1182 C1181 1.397 . S
C1182 C1186 1.390 1_655 S
C1183 C1181 1.361 . S
C1183 C1184 1.393 1_655 S
C1183 N1187 1.413 . S
C1184 H1177 0.930 . S
C1184 C1183 1.393 1_455 S
C1184 C1185 1.399 . S
C1185 C1184 1.399 . S
C1185 C1186 1.381 . S
C1186 H1178 0.930 . S
C1186 C1182 1.390 1_455 S
C1186 C1185 1.381 . S
N1187 C1180 1.286 . S
N1187 C1183 1.413 . S
H1188 C1193 0.930 . S
H1189 C1196 0.930 . S
H1190 C1198 0.930 . S
H1191 C1192 1.016 . S
C1192 H1191 1.016 . S
C1192 N1199 1.286 . S
C1193 H1188 0.930 . S
C1193 C1194 1.397 . S
C1193 C1195 1.361 1_554 S
C1194 C1193 1.397 . S
C1194 C1198 1.390 . S
C1195 C1193 1.361 1_556 S
C1195 C1196 1.393 . S
C1195 N1199 1.413 . S
C1196 H1189 0.930 . S
C1196 C1195 1.393 . S
C1196 C1197 1.399 1_556 S
C1197 C1196 1.399 1_554 S
C1197 C1198 1.381 . S
C1198 H1190 0.930 . S
C1198 C1194 1.390 . S
C1198 C1197 1.381 . S
N1199 C1192 1.286 . S
N1199 C1195 1.413 . S
H1200 C1205 0.930 . S
H1201 C1208 0.930 . S
H1202 C1210 0.930 . S
H1203 C1204 1.016 . S
C1204 H1203 1.016 . S
C1204 N1211 1.286 . S
C1205 H1200 0.930 . S
C1205 C1206 1.397 . S
C1205 C1207 1.361 . S
C1206 C1205 1.397 . S
C1206 C1210 1.390 . S
C1207 C1205 1.361 . S
C1207 C1208 1.393 . S
C1207 N1211 1.413 . S
C1208 H1201 0.930 . S
C1208 C1207 1.393 . S
C1208 C1209 1.399 . S
C1209 C1208 1.399 . S
C1209 C1210 1.381 . S
C1210 H1202 0.930 . S
C1210 C1206 1.390 . S
C1210 C1209 1.381 . S
N1211 C1204 1.286 . S
N1211 C1207 1.413 . S
H1212 C1217 0.930 . S
H1213 C1220 0.930 . S
H1214 C1222 0.930 . S
H1215 C1216 1.016 1_565 S
C1216 H1215 1.016 1_545 S
C1216 N1223 1.286 . S
C1217 H1212 0.930 . S
C1217 C1218 1.397 . S
C1217 C1219 1.361 . S
C1218 C1217 1.397 . S
C1218 C1222 1.390 1_545 S
C1219 C1217 1.361 . S
C1219 C1220 1.393 1_545 S
C1219 N1223 1.413 . S
C1220 H1213 0.930 . S
C1220 C1219 1.393 1_565 S
C1220 C1221 1.399 . S
C1221 C1220 1.399 . S
C1221 C1222 1.381 . S
C1222 H1214 0.930 . S
C1222 C1218 1.390 1_565 S
C1222 C1221 1.381 . S
N1223 C1216 1.286 . S
N1223 C1219 1.413 . S
H1224 C1229 0.930 . S
H1225 C1232 0.930 . S
H1226 C1234 0.930 . S
H1227 C1228 1.016 1_545 S
C1228 H1227 1.016 1_565 S
C1228 N1235 1.286 . S
C1229 H1224 0.930 . S
C1229 C1230 1.397 . S
C1229 C1231 1.361 . S
C1230 C1229 1.397 . S
C1230 C1234 1.390 1_565 S
C1231 C1229 1.361 . S
C1231 C1232 1.393 1_565 S
C1231 N1235 1.413 . S
C1232 H1225 0.930 . S
C1232 C1231 1.393 1_545 S
C1232 C1233 1.399 . S
C1233 C1232 1.399 . S
C1233 C1234 1.381 . S
C1234 H1226 0.930 . S
C1234 C1230 1.390 1_545 S
C1234 C1233 1.381 . S
N1235 C1228 1.286 . S
N1235 C1231 1.413 . S
H1236 C1241 0.930 . S
H1237 C1244 0.930 . S
H1238 C1246 0.930 . S
H1239 C1240 1.016 . S
C1240 H1239 1.016 . S
C1240 N1247 1.286 . S
C1241 H1236 0.930 . S
C1241 C1242 1.397 . S
C1241 C1243 1.361 1_455 S
C1242 C1241 1.397 . S
C1242 C1246 1.390 . S
C1243 C1241 1.361 1_655 S
C1243 C1244 1.393 . S
C1243 N1247 1.413 . S
C1244 H1237 0.930 . S
C1244 C1243 1.393 . S
C1244 C1245 1.399 1_655 S
C1245 C1244 1.399 1_455 S
C1245 C1246 1.381 . S
C1246 H1238 0.930 . S
C1246 C1242 1.390 . S
C1246 C1245 1.381 . S
N1247 C1240 1.286 . S
N1247 C1243 1.413 . S
C1248 C1249 1.349 . S
C1248 C1250 1.327 . S
C1248 H1273 0.950 . S
C1249 C1248 1.349 . S
C1249 C1265 1.349 . S
C1250 C1248 1.327 . S
C1250 C1269 1.429 . S
C1250 H1274 0.950 . S
C1251 C1268 1.574 . S
C1251 C1270 1.368 . S
C1251 H1275 0.949 . S
H1252 C1256 0.949 . S
C1253 C1254 1.349 . S
C1253 C1255 1.327 . S
C1253 H1276 0.950 . S
C1254 C1253 1.349 . S
C1254 C1266 1.349 . S
C1255 C1253 1.327 . S
C1255 C1271 1.429 . S
C1255 H1277 0.950 . S
C1256 H1252 0.949 . S
C1256 C1264 1.574 . S
C1256 C1272 1.368 . S
H1257 C1265 0.950 . S
H1258 C1263 0.950 . S
H1259 C1264 0.949 . S
H1260 C1266 0.950 . S
H1261 C1267 0.950 . S
H1262 C1268 0.949 . S
C1263 H1258 0.950 . S
C1263 C1265 1.327 . S
C1263 C1269 1.429 . S
C1264 C1256 1.574 . S
C1264 H1259 0.949 . S
C1264 C1270 1.368 . S
C1265 C1249 1.349 . S
C1265 H1257 0.950 . S
C1265 C1263 1.327 . S
C1266 C1254 1.349 . S
C1266 H1260 0.950 . S
C1266 C1267 1.327 . S
C1267 H1261 0.950 . S
C1267 C1266 1.327 . S
C1267 C1271 1.429 . S
C1268 C1251 1.574 . S
C1268 H1262 0.949 . S
C1268 C1272 1.368 . S
C1269 C1250 1.429 . S
C1269 C1263 1.429 . S
C1269 C1270 1.523 . S
C1270 C1251 1.368 . S
C1270 C1264 1.368 . S
C1270 C1269 1.523 . S
C1271 C1255 1.429 . S
C1271 C1267 1.429 . S
C1271 C1272 1.523 . S
C1272 C1256 1.368 . S
C1272 C1268 1.368 . S
C1272 C1271 1.523 . S
H1273 C1248 0.950 . S
H1274 C1250 0.950 . S
H1275 C1251 0.949 . S
H1276 C1253 0.950 . S
H1277 C1255 0.950 . S
C1278 C1279 1.349 . S
C1278 C1280 1.327 . S
C1278 H1303 0.950 . S
C1279 C1278 1.349 . S
C1279 C1295 1.349 . S
C1280 C1278 1.327 . S
C1280 C1299 1.429 . S
C1280 H1304 0.950 . S
C1281 C1298 1.574 . S
C1281 C1300 1.368 . S
C1281 H1305 0.949 . S
H1282 C1286 0.949 . S
C1283 C1284 1.349 . S
C1283 C1285 1.327 . S
C1283 H1306 0.950 . S
C1284 C1283 1.349 . S
C1284 C1296 1.349 . S
C1285 C1283 1.327 . S
C1285 C1301 1.429 . S
C1285 H1307 0.950 . S
C1286 H1282 0.949 . S
C1286 C1294 1.574 . S
C1286 C1302 1.368 . S
H1287 C1295 0.950 . S
H1288 C1293 0.950 . S
H1289 C1294 0.949 . S
H1290 C1296 0.950 . S
H1291 C1297 0.950 . S
H1292 C1298 0.949 . S
C1293 H1288 0.950 . S
C1293 C1295 1.327 . S
C1293 C1299 1.429 . S
C1294 C1286 1.574 . S
C1294 H1289 0.949 . S
C1294 C1300 1.368 . S
C1295 C1279 1.349 . S
C1295 H1287 0.950 . S
C1295 C1293 1.327 . S
C1296 C1284 1.349 . S
C1296 H1290 0.950 . S
C1296 C1297 1.327 . S
C1297 H1291 0.950 . S
C1297 C1296 1.327 . S
C1297 C1301 1.429 . S
C1298 C1281 1.574 . S
C1298 H1292 0.949 . S
C1298 C1302 1.368 . S
C1299 C1280 1.429 . S
C1299 C1293 1.429 . S
C1299 C1300 1.523 . S
C1300 C1281 1.368 . S
C1300 C1294 1.368 . S
C1300 C1299 1.523 . S
C1301 C1285 1.429 . S
C1301 C1297 1.429 . S
C1301 C1302 1.523 . S
C1302 C1286 1.368 . S
C1302 C1298 1.368 . S
C1302 C1301 1.523 . S
H1303 C1278 0.950 . S
H1304 C1280 0.950 . S
H1305 C1281 0.949 . S
H1306 C1283 0.950 . S
H1307 C1285 0.950 . S
C1308 C1309 1.363 . S
C1308 C1310 1.327 . S
C1308 H1333 0.950 . S
C1309 C1308 1.363 . S
C1309 C1325 1.334 1_545 S
C1310 C1308 1.327 . S
C1310 C1329 1.429 1_545 S
C1310 H1334 0.950 . S
C1311 C1328 1.574 . S
C1311 C1330 1.368 . S
C1311 H1335 0.949 . S
H1312 C1316 0.949 . S
C1313 C1314 1.349 . S
C1313 C1315 1.327 . S
C1313 H1336 0.950 . S
C1314 C1313 1.349 . S
C1314 C1326 1.291 1_565 S
C1315 C1313 1.327 . S
C1315 C1331 1.429 . S
C1315 H1337 0.950 . S
C1316 H1312 0.949 . S
C1316 C1324 1.574 . S
C1316 C1332 1.368 1_545 S
H1317 C1325 0.950 . S
H1318 C1323 0.950 . S
H1319 C1324 0.949 . S
H1320 C1326 1.005 . S
H1321 C1327 0.950 . S
H1322 C1328 0.949 . S
C1323 H1318 0.950 . S
C1323 C1325 1.327 . S
C1323 C1329 1.429 . S
C1324 C1316 1.574 . S
C1324 H1319 0.949 . S
C1324 C1330 1.368 1_545 S
C1325 C1309 1.334 1_565 S
C1325 H1317 0.950 . S
C1325 C1323 1.327 . S
C1326 C1314 1.291 1_545 S
C1326 H1320 1.005 . S
C1326 C1327 1.333 . S
C1327 H1321 0.950 . S
C1327 C1326 1.333 . S
C1327 C1331 1.429 1_545 S
C1328 C1311 1.574 . S
C1328 H1322 0.949 . S
C1328 C1332 1.368 . S
C1329 C1310 1.429 1_565 S
C1329 C1323 1.429 . S
C1329 C1330 1.523 . S
C1330 C1311 1.368 . S
C1330 C1324 1.368 1_565 S
C1330 C1329 1.523 . S
C1331 C1315 1.429 . S
C1331 C1327 1.429 1_565 S
C1331 C1332 1.523 . S
C1332 C1316 1.368 1_565 S
C1332 C1328 1.368 . S
C1332 C1331 1.523 . S
H1333 C1308 0.950 . S
H1334 C1310 0.950 . S
H1335 C1311 0.949 . S
H1336 C1313 0.950 . S
H1337 C1315 0.950 . S
C1338 C1339 1.349 . S
C1338 C1340 1.327 . S
C1338 H1363 0.950 . S
C1339 C1338 1.349 . S
C1339 C1355 1.349 . S
C1340 C1338 1.327 . S
C1340 C1359 1.429 . S
C1340 H1364 0.950 . S
C1341 C1358 1.574 . S
C1341 C1360 1.368 . S
C1341 H1365 0.949 1_545 S
H1342 C1346 0.949 . S
C1343 C1344 1.349 . S
C1343 C1345 1.327 . S
C1343 H1366 0.950 1_545 S
C1344 C1343 1.349 . S
C1344 C1356 1.349 . S
C1345 C1343 1.327 . S
C1345 C1361 1.429 . S
C1345 H1367 0.950 1_545 S
C1346 H1342 0.949 . S
C1346 C1354 1.574 . S
C1346 C1362 1.368 . S
H1347 C1355 0.950 1_565 S
H1348 C1353 0.950 1_565 S
H1349 C1354 0.949 . S
H1350 C1356 0.950 . S
H1351 C1357 0.950 . S
H1352 C1358 0.949 1_565 S
C1353 H1348 0.950 1_545 S
C1353 C1355 1.327 . S
C1353 C1359 1.429 . S
C1354 C1346 1.574 . S
C1354 H1349 0.949 . S
C1354 C1360 1.368 . S
C1355 C1339 1.349 . S
C1355 H1347 0.950 1_545 S
C1355 C1353 1.327 . S
C1356 C1344 1.349 . S
C1356 H1350 0.950 . S
C1356 C1357 1.327 . S
C1357 H1351 0.950 . S
C1357 C1356 1.327 . S
C1357 C1361 1.429 . S
C1358 C1341 1.574 . S
C1358 H1352 0.949 1_545 S
C1358 C1362 1.368 . S
C1359 C1340 1.429 . S
C1359 C1353 1.429 . S
C1359 C1360 1.523 . S
C1360 C1341 1.368 . S
C1360 C1354 1.368 . S
C1360 C1359 1.523 . S
C1361 C1345 1.429 . S
C1361 C1357 1.429 . S
C1361 C1362 1.523 1_455 S
C1362 C1346 1.368 . S
C1362 C1358 1.368 . S
C1362 C1361 1.523 1_655 S
H1363 C1338 0.950 . S
H1364 C1340 0.950 . S
H1365 C1341 0.949 1_565 S
H1366 C1343 0.950 1_565 S
H1367 C1345 0.950 1_565 S
C1368 C1369 1.349 . S
C1368 C1370 1.327 . S
C1368 H1393 0.950 . S
C1369 C1368 1.349 . S
C1369 C1385 1.349 . S
C1370 C1368 1.327 . S
C1370 C1389 1.429 . S
C1370 H1394 0.950 . S
C1371 C1388 1.574 . S
C1371 C1390 1.368 . S
C1371 H1395 0.949 . S
H1372 C1376 0.949 . S
C1373 C1374 1.349 . S
C1373 C1375 1.327 . S
C1373 H1396 0.950 . S
C1374 C1373 1.349 . S
C1374 C1386 1.349 . S
C1375 C1373 1.327 . S
C1375 C1391 1.429 . S
C1375 H1397 0.950 . S
C1376 H1372 0.949 . S
C1376 C1384 1.574 . S
C1376 C1392 1.368 . S
H1377 C1385 0.950 . S
H1378 C1383 0.950 . S
H1379 C1384 0.949 . S
H1380 C1386 0.950 . S
H1381 C1387 0.950 . S
H1382 C1388 0.949 . S
C1383 H1378 0.950 . S
C1383 C1385 1.327 . S
C1383 C1389 1.429 . S
C1384 C1376 1.574 . S
C1384 H1379 0.949 . S
C1384 C1390 1.368 . S
C1385 C1369 1.349 . S
C1385 H1377 0.950 . S
C1385 C1383 1.327 . S
C1386 C1374 1.349 . S
C1386 H1380 0.950 . S
C1386 C1387 1.327 . S
C1387 H1381 0.950 . S
C1387 C1386 1.327 . S
C1387 C1391 1.429 . S
C1388 C1371 1.574 . S
C1388 H1382 0.949 . S
C1388 C1392 1.368 . S
C1389 C1370 1.429 . S
C1389 C1383 1.429 . S
C1389 C1390 1.523 . S
C1390 C1371 1.368 . S
C1390 C1384 1.368 . S
C1390 C1389 1.523 . S
C1391 C1375 1.429 . S
C1391 C1387 1.429 . S
C1391 C1392 1.523 . S
C1392 C1376 1.368 . S
C1392 C1388 1.368 . S
C1392 C1391 1.523 . S
H1393 C1368 0.950 . S
H1394 C1370 0.950 . S
H1395 C1371 0.949 . S
H1396 C1373 0.950 . S
H1397 C1375 0.950 . S
C1398 C1399 1.321 1_556 S
C1398 C1400 1.324 . S
C1398 H1423 0.974 . S
C1399 C1398 1.321 1_554 S
C1399 C1415 1.349 . S
C1400 C1398 1.324 . S
C1400 C1419 1.389 1_556 S
C1400 H1424 1.001 . S
C1401 C1418 1.574 . S
C1401 C1420 1.368 . S
C1401 H1425 0.949 . S
H1402 C1406 0.949 . S
C1403 C1404 1.349 . S
C1403 C1405 1.327 . S
C1403 H1426 0.950 . S
C1404 C1403 1.349 . S
C1404 C1416 1.306 1_554 S
C1405 C1403 1.327 . S
C1405 C1421 1.429 . S
C1405 H1427 0.950 . S
C1406 H1402 0.949 . S
C1406 C1414 1.574 . S
C1406 C1422 1.368 1_556 S
H1407 C1415 0.950 . S
H1408 C1413 0.950 . S
H1409 C1414 0.949 . S
H1410 C1416 1.001 . S
H1411 C1417 0.950 . S
H1412 C1418 0.949 . S
C1413 H1408 0.950 . S
C1413 C1415 1.327 . S
C1413 C1419 1.429 . S
C1414 C1406 1.574 . S
C1414 H1409 0.949 . S
C1414 C1420 1.368 1_556 S
C1415 C1399 1.349 . S
C1415 H1407 0.950 . S
C1415 C1413 1.327 . S
C1416 C1404 1.306 1_556 S
C1416 H1410 1.001 . S
C1416 C1417 1.323 . S
C1417 H1411 0.950 . S
C1417 C1416 1.323 . S
C1417 C1421 1.429 1_556 S
C1418 C1401 1.574 . S
C1418 H1412 0.949 . S
C1418 C1422 1.368 . S
C1419 C1400 1.389 1_554 S
C1419 C1413 1.429 . S
C1419 C1420 1.523 . S
C1420 C1401 1.368 . S
C1420 C1414 1.368 1_554 S
C1420 C1419 1.523 . S
C1421 C1405 1.429 . S
C1421 C1417 1.429 1_554 S
C1421 C1422 1.523 1_545 S
C1422 C1406 1.368 1_554 S
C1422 C1418 1.368 . S
C1422 C1421 1.523 1_565 S
H1423 C1398 0.974 . S
H1424 C1400 1.001 . S
H1425 C1401 0.949 . S
H1426 C1403 0.950 . S
H1427 C1405 0.950 . S
C1428 C1429 1.349 . S
C1428 C1430 1.327 . S
C1428 H1453 0.950 . S
C1429 C1428 1.349 . S
C1429 C1445 1.349 . S
C1430 C1428 1.327 . S
C1430 C1449 1.429 . S
C1430 H1454 0.950 . S
C1431 C1448 1.574 . S
C1431 C1450 1.368 . S
C1431 H1455 0.949 . S
H1432 C1436 0.949 . S
C1433 C1434 1.349 . S
C1433 C1435 1.327 . S
C1433 H1456 0.950 . S
C1434 C1433 1.349 . S
C1434 C1446 1.349 . S
C1435 C1433 1.327 . S
C1435 C1451 1.429 . S
C1435 H1457 0.950 . S
C1436 H1432 0.949 . S
C1436 C1444 1.574 . S
C1436 C1452 1.368 . S
H1437 C1445 0.950 . S
H1438 C1443 0.950 . S
H1439 C1444 0.949 . S
H1440 C1446 0.950 . S
H1441 C1447 0.950 . S
H1442 C1448 0.949 . S
C1443 H1438 0.950 . S
C1443 C1445 1.327 . S
C1443 C1449 1.429 . S
C1444 C1436 1.574 . S
C1444 H1439 0.949 . S
C1444 C1450 1.368 . S
C1445 C1429 1.349 . S
C1445 H1437 0.950 . S
C1445 C1443 1.327 . S
C1446 C1434 1.349 . S
C1446 H1440 0.950 . S
C1446 C1447 1.327 . S
C1447 H1441 0.950 . S
C1447 C1446 1.327 . S
C1447 C1451 1.429 . S
C1448 C1431 1.574 . S
C1448 H1442 0.949 . S
C1448 C1452 1.368 . S
C1449 C1430 1.429 . S
C1449 C1443 1.429 . S
C1449 C1450 1.523 . S
C1450 C1431 1.368 . S
C1450 C1444 1.368 . S
C1450 C1449 1.523 . S
C1451 C1435 1.429 . S
C1451 C1447 1.429 . S
C1451 C1452 1.523 . S
C1452 C1436 1.368 . S
C1452 C1448 1.368 . S
C1452 C1451 1.523 . S
H1453 C1428 0.950 . S
H1454 C1430 0.950 . S
H1455 C1431 0.949 . S
H1456 C1433 0.950 . S
H1457 C1435 0.950 . S
C1458 C1459 1.361 . S
C1458 C1460 1.327 . S
C1458 H1483 0.950 . S
C1459 C1458 1.361 . S
C1459 C1475 1.336 1_554 S
C1460 C1458 1.327 . S
C1460 C1479 1.429 1_554 S
C1460 H1484 0.950 . S
C1461 C1478 1.574 . S
C1461 C1480 1.368 . S
C1461 H1485 0.949 . S
H1462 C1466 0.949 . S
C1463 C1464 1.349 . S
C1463 C1465 1.327 . S
C1463 H1486 0.950 . S
C1464 C1463 1.349 . S
C1464 C1476 1.349 . S
C1465 C1463 1.327 . S
C1465 C1481 1.429 . S
C1465 H1487 0.950 . S
C1466 H1462 0.949 . S
C1466 C1474 1.574 . S
C1466 C1482 1.368 1_554 S
H1467 C1475 0.950 . S
H1468 C1473 0.950 . S
H1469 C1474 0.949 . S
H1470 C1476 0.950 1_554 S
H1471 C1477 0.946 . S
H1472 C1478 0.949 . S
C1473 H1468 0.950 . S
C1473 C1475 1.327 . S
C1473 C1479 1.429 . S
C1474 C1466 1.574 . S
C1474 H1469 0.949 . S
C1474 C1480 1.368 1_554 S
C1475 C1459 1.336 1_556 S
C1475 H1467 0.950 . S
C1475 C1473 1.327 . S
C1476 C1464 1.349 . S
C1476 H1470 0.950 1_556 S
C1476 C1477 1.327 1_556 S
C1477 H1471 0.946 . S
C1477 C1476 1.327 1_554 S
C1477 C1481 1.432 1_554 S
C1478 C1461 1.574 . S
C1478 H1472 0.949 . S
C1478 C1482 1.368 . S
C1479 C1460 1.429 1_556 S
C1479 C1473 1.429 . S
C1479 C1480 1.523 . S
C1480 C1461 1.368 . S
C1480 C1474 1.368 1_556 S
C1480 C1479 1.523 . S
C1481 C1465 1.429 . S
C1481 C1477 1.432 1_556 S
C1481 C1482 1.523 . S
C1482 C1466 1.368 1_556 S
C1482 C1478 1.368 . S
C1482 C1481 1.523 . S
H1483 C1458 0.950 . S
H1484 C1460 0.950 . S
H1485 C1461 0.949 . S
H1486 C1463 0.950 . S
H1487 C1465 0.950 . S
C1488 C1489 1.349 . S
C1488 C1490 1.327 . S
C1488 H1513 0.950 . S
C1489 C1488 1.349 . S
C1489 C1505 1.349 . S
C1490 C1488 1.327 . S
C1490 C1509 1.429 . S
C1490 H1514 0.950 . S
C1491 C1508 1.574 . S
C1491 C1510 1.368 . S
C1491 H1515 0.949 . S
H1492 C1496 0.949 . S
C1493 C1494 1.349 . S
C1493 C1495 1.327 . S
C1493 H1516 0.950 . S
C1494 C1493 1.349 . S
C1494 C1506 1.349 . S
C1495 C1493 1.327 . S
C1495 C1511 1.429 . S
C1495 H1517 0.950 . S
C1496 H1492 0.949 . S
C1496 C1504 1.574 . S
C1496 C1512 1.368 . S
H1497 C1505 0.950 . S
H1498 C1503 0.950 . S
H1499 C1504 0.949 . S
H1500 C1506 0.950 . S
H1501 C1507 0.950 . S
H1502 C1508 0.949 . S
C1503 H1498 0.950 . S
C1503 C1505 1.327 . S
C1503 C1509 1.429 . S
C1504 C1496 1.574 . S
C1504 H1499 0.949 . S
C1504 C1510 1.368 . S
C1505 C1489 1.349 . S
C1505 H1497 0.950 . S
C1505 C1503 1.327 . S
C1506 C1494 1.349 . S
C1506 H1500 0.950 . S
C1506 C1507 1.327 . S
C1507 H1501 0.950 . S
C1507 C1506 1.327 . S
C1507 C1511 1.429 . S
C1508 C1491 1.574 . S
C1508 H1502 0.949 . S
C1508 C1512 1.368 . S
C1509 C1490 1.429 . S
C1509 C1503 1.429 . S
C1509 C1510 1.523 . S
C1510 C1491 1.368 . S
C1510 C1504 1.368 . S
C1510 C1509 1.523 . S
C1511 C1495 1.429 . S
C1511 C1507 1.429 . S
C1511 C1512 1.523 . S
C1512 C1496 1.368 . S
C1512 C1508 1.368 . S
C1512 C1511 1.523 . S
H1513 C1488 0.950 . S
H1514 C1490 0.950 . S
H1515 C1491 0.949 . S
H1516 C1493 0.950 . S
H1517 C1495 0.950 . S
C1518 C1519 1.349 . S
C1518 C1520 1.327 . S
C1518 H1543 0.950 . S
C1519 C1518 1.349 . S
C1519 C1535 1.349 . S
C1520 C1518 1.327 . S
C1520 C1539 1.429 . S
C1520 H1544 0.980 . S
C1521 C1538 1.574 . S
C1521 C1540 1.368 . S
C1521 H1545 0.949 . S
H1522 C1526 0.968 . S
C1523 C1524 1.349 . S
C1523 C1525 1.327 . S
C1523 H1546 0.950 . S
C1524 C1523 1.349 . S
C1524 C1536 1.349 . S
C1525 C1523 1.327 . S
C1525 C1541 1.429 . S
C1525 H1547 0.950 . S
C1526 H1522 0.968 . S
C1526 C1534 1.574 . S
C1526 C1542 1.368 . S
H1527 C1535 0.950 . S
H1528 C1533 0.950 . S
H1529 C1534 0.967 . S
H1530 C1536 0.977 . S
H1531 C1537 0.966 . S
H1532 C1538 0.949 . S
C1533 H1528 0.950 . S
C1533 C1535 1.327 . S
C1533 C1539 1.429 . S
C1534 C1526 1.574 . S
C1534 H1529 0.967 . S
C1534 C1540 1.368 . S
C1535 C1519 1.349 . S
C1535 H1527 0.950 . S
C1535 C1533 1.327 . S
C1536 C1524 1.349 . S
C1536 H1530 0.977 . S
C1536 C1537 1.327 . S
C1537 H1531 0.966 . S
C1537 C1536 1.327 . S
C1537 C1541 1.429 . S
C1538 C1521 1.574 . S
C1538 H1532 0.949 . S
C1538 C1542 1.368 . S
C1539 C1520 1.429 . S
C1539 C1533 1.429 . S
C1539 C1540 1.523 . S
C1540 C1521 1.368 . S
C1540 C1534 1.368 . S
C1540 C1539 1.523 . S
C1541 C1525 1.429 . S
C1541 C1537 1.429 . S
C1541 C1542 1.523 1_554 S
C1542 C1526 1.368 . S
C1542 C1538 1.368 . S
C1542 C1541 1.523 1_556 S
H1543 C1518 0.950 . S
H1544 C1520 0.980 . S
H1545 C1521 0.949 . S
H1546 C1523 0.950 . S
H1547 C1525 0.950 . S
C1548 C1549 1.349 . S
C1548 C1550 1.327 . S
C1548 H1573 0.950 . S
C1549 C1548 1.349 . S
C1549 C1565 1.349 . S
C1550 C1548 1.327 . S
C1550 C1569 1.429 . S
C1550 H1574 0.950 . S
C1551 C1568 1.574 . S
C1551 C1570 1.368 . S
C1551 H1575 0.949 . S
H1552 C1556 0.949 . S
C1553 C1554 1.349 . S
C1553 C1555 1.327 . S
C1553 H1576 0.950 . S
C1554 C1553 1.349 . S
C1554 C1566 1.349 . S
C1555 C1553 1.327 . S
C1555 C1571 1.429 . S
C1555 H1577 0.950 . S
C1556 H1552 0.949 . S
C1556 C1564 1.574 . S
C1556 C1572 1.368 . S
H1557 C1565 0.950 . S
H1558 C1563 0.950 . S
H1559 C1564 0.949 . S
H1560 C1566 0.950 . S
H1561 C1567 0.950 . S
H1562 C1568 0.949 . S
C1563 H1558 0.950 . S
C1563 C1565 1.327 . S
C1563 C1569 1.429 . S
C1564 C1556 1.574 . S
C1564 H1559 0.949 . S
C1564 C1570 1.368 . S
C1565 C1549 1.349 . S
C1565 H1557 0.950 . S
C1565 C1563 1.327 . S
C1566 C1554 1.349 . S
C1566 H1560 0.950 . S
C1566 C1567 1.327 . S
C1567 H1561 0.950 . S
C1567 C1566 1.327 . S
C1567 C1571 1.429 . S
C1568 C1551 1.574 . S
C1568 H1562 0.949 . S
C1568 C1572 1.368 . S
C1569 C1550 1.429 . S
C1569 C1563 1.429 . S
C1569 C1570 1.523 . S
C1570 C1551 1.368 . S
C1570 C1564 1.368 . S
C1570 C1569 1.523 . S
C1571 C1555 1.429 . S
C1571 C1567 1.429 . S
C1571 C1572 1.523 . S
C1572 C1556 1.368 . S
C1572 C1568 1.368 . S
C1572 C1571 1.523 . S
H1573 C1548 0.950 . S
H1574 C1550 0.950 . S
H1575 C1551 0.949 . S
H1576 C1553 0.950 . S
H1577 C1555 0.950 . S
C1578 C1579 1.356 . S
C1578 C1580 1.327 . S
C1578 H1603 0.950 . S
C1579 C1578 1.356 . S
C1579 C1595 1.342 1_455 S
C1580 C1578 1.327 . S
C1580 C1599 1.429 1_455 S
C1580 H1604 0.950 . S
C1581 C1598 1.574 . S
C1581 C1600 1.368 . S
C1581 H1605 0.949 . S
H1582 C1586 0.949 . S
C1583 C1584 1.349 . S
C1583 C1585 1.327 . S
C1583 H1606 0.950 . S
C1584 C1583 1.349 . S
C1584 C1596 1.349 . S
C1585 C1583 1.327 . S
C1585 C1601 1.429 . S
C1585 H1607 0.950 . S
C1586 H1582 0.949 . S
C1586 C1594 1.574 . S
C1586 C1602 1.368 1_455 S
H1587 C1595 0.950 . S
H1588 C1593 0.950 . S
H1589 C1594 0.949 . S
H1590 C1596 0.927 1_455 S
H1591 C1597 0.950 1_455 S
H1592 C1598 0.949 . S
C1593 H1588 0.950 . S
C1593 C1595 1.327 . S
C1593 C1599 1.429 . S
C1594 C1586 1.574 . S
C1594 H1589 0.949 . S
C1594 C1600 1.368 1_455 S
C1595 C1579 1.342 1_655 S
C1595 H1587 0.950 . S
C1595 C1593 1.327 . S
C1596 C1584 1.349 . S
C1596 H1590 0.927 1_655 S
C1596 C1597 1.327 . S
C1597 H1591 0.950 1_655 S
C1597 C1596 1.327 . S
C1597 C1601 1.429 . S
C1598 C1581 1.574 . S
C1598 H1592 0.949 . S
C1598 C1602 1.368 . S
C1599 C1580 1.429 1_655 S
C1599 C1593 1.429 . S
C1599 C1600 1.523 . S
C1600 C1581 1.368 . S
C1600 C1594 1.368 1_655 S
C1600 C1599 1.523 . S
C1601 C1585 1.429 . S
C1601 C1597 1.429 . S
C1601 C1602 1.523 . S
C1602 C1586 1.368 1_655 S
C1602 C1598 1.368 . S
C1602 C1601 1.523 . S
H1603 C1578 0.950 . S
H1604 C1580 0.950 . S
H1605 C1581 0.949 . S
H1606 C1583 0.950 . S
H1607 C1585 0.950 . S
C1608 C1609 1.349 . S
C1608 C1610 1.327 . S
C1608 H1633 0.950 . S
C1609 C1608 1.349 . S
C1609 C1625 1.349 . S
C1610 C1608 1.327 . S
C1610 C1629 1.429 . S
C1610 H1634 0.950 . S
C1611 C1628 1.574 . S
C1611 C1630 1.368 . S
C1611 H1635 0.949 . S
H1612 C1616 0.949 . S
C1613 C1614 1.349 . S
C1613 C1615 1.327 . S
C1613 H1636 0.950 . S
C1614 C1613 1.349 . S
C1614 C1626 1.349 . S
C1615 C1613 1.327 . S
C1615 C1631 1.429 . S
C1615 H1637 0.950 . S
C1616 H1612 0.949 . S
C1616 C1624 1.574 . S
C1616 C1632 1.368 . S
H1617 C1625 0.950 . S
H1618 C1623 0.950 . S
H1619 C1624 0.949 . S
H1620 C1626 0.950 . S
H1621 C1627 0.950 . S
H1622 C1628 0.949 . S
C1623 H1618 0.950 . S
C1623 C1625 1.327 . S
C1623 C1629 1.429 . S
C1624 C1616 1.574 . S
C1624 H1619 0.949 . S
C1624 C1630 1.368 . S
C1625 C1609 1.349 . S
C1625 H1617 0.950 . S
C1625 C1623 1.327 . S
C1626 C1614 1.349 . S
C1626 H1620 0.950 . S
C1626 C1627 1.327 . S
C1627 H1621 0.950 . S
C1627 C1626 1.327 . S
C1627 C1631 1.429 . S
C1628 C1611 1.574 . S
C1628 H1622 0.949 . S
C1628 C1632 1.368 . S
C1629 C1610 1.429 . S
C1629 C1623 1.429 . S
C1629 C1630 1.523 . S
C1630 C1611 1.368 . S
C1630 C1624 1.368 . S
C1630 C1629 1.523 . S
C1631 C1615 1.429 . S
C1631 C1627 1.429 . S
C1631 C1632 1.523 . S
C1632 C1616 1.368 . S
C1632 C1628 1.368 . S
C1632 C1631 1.523 . S
H1633 C1608 0.950 . S
H1634 C1610 0.950 . S
H1635 C1611 0.949 . S
H1636 C1613 0.950 . S
H1637 C1615 0.950 . S
C1638 C1639 1.349 . S
C1638 C1640 1.327 . S
C1638 H1663 0.950 . S
C1639 C1638 1.349 . S
C1639 C1655 1.349 . S
C1640 C1638 1.327 . S
C1640 C1659 1.429 . S
C1640 H1664 0.950 . S
C1641 C1658 1.574 . S
C1641 C1660 1.368 . S
C1641 H1665 0.949 . S
H1642 C1646 0.949 . S
C1643 C1644 1.349 . S
C1643 C1645 1.327 . S
C1643 H1666 0.950 . S
C1644 C1643 1.349 . S
C1644 C1656 1.349 . S
C1645 C1643 1.327 . S
C1645 C1661 1.429 . S
C1645 H1667 0.950 . S
C1646 H1642 0.949 . S
C1646 C1654 1.574 . S
C1646 C1662 1.368 . S
H1647 C1655 0.950 . S
H1648 C1653 0.950 . S
H1649 C1654 0.949 . S
H1650 C1656 0.950 . S
H1651 C1657 0.950 . S
H1652 C1658 0.949 . S
C1653 H1648 0.950 . S
C1653 C1655 1.327 . S
C1653 C1659 1.429 . S
C1654 C1646 1.574 . S
C1654 H1649 0.949 . S
C1654 C1660 1.368 . S
C1655 C1639 1.349 . S
C1655 H1647 0.950 . S
C1655 C1653 1.327 . S
C1656 C1644 1.349 . S
C1656 H1650 0.950 . S
C1656 C1657 1.327 . S
C1657 H1651 0.950 . S
C1657 C1656 1.327 . S
C1657 C1661 1.429 . S
C1658 C1641 1.574 . S
C1658 H1652 0.949 . S
C1658 C1662 1.368 . S
C1659 C1640 1.429 . S
C1659 C1653 1.429 . S
C1659 C1660 1.523 . S
C1660 C1641 1.368 . S
C1660 C1654 1.368 . S
C1660 C1659 1.523 . S
C1661 C1645 1.429 . S
C1661 C1657 1.429 . S
C1661 C1662 1.523 . S
C1662 C1646 1.368 . S
C1662 C1658 1.368 . S
C1662 C1661 1.523 . S
H1663 C1638 0.950 . S
H1664 C1640 0.950 . S
H1665 C1641 0.949 . S
H1666 C1643 0.950 . S
H1667 C1645 0.950 . S
C1668 C1669 1.342 1_545 S
C1668 C1670 1.327 . S
C1668 H1693 0.950 . S
C1669 C1668 1.342 1_565 S
C1669 C1685 1.355 . S
C1670 C1668 1.327 . S
C1670 C1689 1.429 . S
C1670 H1694 0.950 . S
C1671 C1688 1.577 . S
C1671 C1690 1.389 . S
C1671 H1695 0.930 1_545 S
H1672 C1676 0.949 . S
C1673 C1674 1.349 . S
C1673 C1675 1.327 . S
C1673 H1696 0.950 . S
C1674 C1673 1.349 . S
C1674 C1686 1.349 . S
C1675 C1673 1.327 . S
C1675 C1691 1.429 . S
C1675 H1697 0.950 . S
C1676 H1672 0.949 . S
C1676 C1684 1.574 . S
C1676 C1692 1.368 . S
H1677 C1685 0.950 . S
H1678 C1683 0.950 . S
H1679 C1684 0.949 . S
H1680 C1686 0.950 . S
H1681 C1687 0.950 . S
H1682 C1688 0.953 . S
C1683 H1678 0.950 . S
C1683 C1685 1.327 . S
C1683 C1689 1.429 1_565 S
C1684 C1676 1.574 . S
C1684 H1679 0.949 . S
C1684 C1690 1.368 . S
C1685 C1669 1.355 . S
C1685 H1677 0.950 . S
C1685 C1683 1.327 . S
C1686 C1674 1.349 . S
C1686 H1680 0.950 . S
C1686 C1687 1.327 . S
C1687 H1681 0.950 . S
C1687 C1686 1.327 . S
C1687 C1691 1.429 . S
C1688 C1671 1.577 . S
C1688 H1682 0.953 . S
C1688 C1692 1.368 . S
C1689 C1670 1.429 . S
C1689 C1683 1.429 1_545 S
C1689 C1690 1.523 . S
C1690 C1671 1.389 . S
C1690 C1684 1.368 . S
C1690 C1689 1.523 . S
C1691 C1675 1.429 . S
C1691 C1687 1.429 . S
C1691 C1692 1.523 . S
C1692 C1676 1.368 . S
C1692 C1688 1.368 . S
C1692 C1691 1.523 . S
H1693 C1668 0.950 . S
H1694 C1670 0.950 . S
H1695 C1671 0.930 1_565 S
H1696 C1673 0.950 . S
H1697 C1675 0.950 . S
C1698 C1699 1.349 . S
C1698 C1700 1.327 . S
C1698 H1723 0.950 . S
C1699 C1698 1.349 . S
C1699 C1715 1.349 1_565 S
C1700 C1698 1.327 . S
C1700 C1719 1.429 . S
C1700 H1724 0.950 . S
C1701 C1718 1.574 . S
C1701 C1720 1.368 1_545 S
C1701 H1725 0.949 . S
H1702 C1706 0.949 . S
C1703 C1704 1.349 1_545 S
C1703 C1705 1.327 . S
C1703 H1726 0.950 . S
C1704 C1703 1.349 1_565 S
C1704 C1716 1.349 . S
C1705 C1703 1.327 . S
C1705 C1721 1.429 1_545 S
C1705 H1727 0.950 . S
C1706 H1702 0.949 . S
C1706 C1714 1.574 . S
C1706 C1722 1.368 . S
H1707 C1715 0.950 . S
H1708 C1713 0.950 . S
H1709 C1714 0.949 . S
H1710 C1716 0.950 . S
H1711 C1717 0.950 . S
H1712 C1718 0.949 . S
C1713 H1708 0.950 . S
C1713 C1715 1.327 . S
C1713 C1719 1.429 1_545 S
C1714 C1706 1.574 . S
C1714 H1709 0.949 . S
C1714 C1720 1.368 . S
C1715 C1699 1.349 1_545 S
C1715 H1707 0.950 . S
C1715 C1713 1.327 . S
C1716 C1704 1.349 . S
C1716 H1710 0.950 . S
C1716 C1717 1.327 . S
C1717 H1711 0.950 . S
C1717 C1716 1.327 . S
C1717 C1721 1.429 . S
C1718 C1701 1.574 . S
C1718 H1712 0.949 . S
C1718 C1722 1.368 1_545 S
C1719 C1700 1.429 . S
C1719 C1713 1.429 1_565 S
C1719 C1720 1.523 . S
C1720 C1701 1.368 1_565 S
C1720 C1714 1.368 . S
C1720 C1719 1.523 . S
C1721 C1705 1.429 1_565 S
C1721 C1717 1.429 . S
C1721 C1722 1.523 1_655 S
C1722 C1706 1.368 . S
C1722 C1718 1.368 1_565 S
C1722 C1721 1.523 1_455 S
H1723 C1698 0.950 . S
H1724 C1700 0.950 . S
H1725 C1701 0.949 . S
H1726 C1703 0.950 . S
H1727 C1705 0.950 . S
C1728 C1729 1.349 . S
C1728 C1730 1.327 . S
C1728 H1753 0.950 . S
C1729 C1728 1.349 . S
C1729 C1745 1.349 . S
C1730 C1728 1.327 . S
C1730 C1749 1.429 . S
C1730 H1754 0.950 . S
C1731 C1748 1.574 . S
C1731 C1750 1.368 . S
C1731 H1755 0.949 . S
H1732 C1736 0.949 . S
C1733 C1734 1.349 . S
C1733 C1735 1.327 . S
C1733 H1756 0.950 . S
C1734 C1733 1.349 . S
C1734 C1746 1.349 . S
C1735 C1733 1.327 . S
C1735 C1751 1.429 . S
C1735 H1757 0.950 . S
C1736 H1732 0.949 . S
C1736 C1744 1.574 . S
C1736 C1752 1.368 . S
H1737 C1745 0.950 . S
H1738 C1743 0.950 . S
H1739 C1744 0.949 . S
H1740 C1746 0.950 . S
H1741 C1747 0.950 . S
H1742 C1748 0.949 . S
C1743 H1738 0.950 . S
C1743 C1745 1.327 . S
C1743 C1749 1.429 . S
C1744 C1736 1.574 . S
C1744 H1739 0.949 . S
C1744 C1750 1.368 . S
C1745 C1729 1.349 . S
C1745 H1737 0.950 . S
C1745 C1743 1.327 . S
C1746 C1734 1.349 . S
C1746 H1740 0.950 . S
C1746 C1747 1.327 . S
C1747 H1741 0.950 . S
C1747 C1746 1.327 . S
C1747 C1751 1.429 . S
C1748 C1731 1.574 . S
C1748 H1742 0.949 . S
C1748 C1752 1.368 . S
C1749 C1730 1.429 . S
C1749 C1743 1.429 . S
C1749 C1750 1.523 . S
C1750 C1731 1.368 . S
C1750 C1744 1.368 . S
C1750 C1749 1.523 . S
C1751 C1735 1.429 . S
C1751 C1747 1.429 . S
C1751 C1752 1.523 . S
C1752 C1736 1.368 . S
C1752 C1748 1.368 . S
C1752 C1751 1.523 . S
H1753 C1728 0.950 . S
H1754 C1730 0.950 . S
H1755 C1731 0.949 . S
H1756 C1733 0.950 . S
H1757 C1735 0.950 . S
C1758 C1759 1.349 . S
C1758 C1760 1.327 . S
C1758 H1783 0.950 . S
C1759 C1758 1.349 . S
C1759 C1775 1.364 . S
C1760 C1758 1.327 . S
C1760 C1779 1.429 . S
C1760 H1784 0.950 . S
C1761 C1778 1.573 . S
C1761 C1780 1.330 1_554 S
C1761 H1785 0.981 . S
H1762 C1766 0.949 . S
C1763 C1764 1.352 1_554 S
C1763 C1765 1.329 . S
C1763 H1786 0.946 . S
C1764 C1763 1.352 1_556 S
C1764 C1776 1.349 . S
C1765 C1763 1.329 . S
C1765 C1781 1.418 1_554 S
C1765 H1787 0.959 . S
C1766 H1762 0.949 . S
C1766 C1774 1.574 . S
C1766 C1782 1.368 . S
H1767 C1775 0.936 1_554 S
H1768 C1773 0.955 1_554 S
H1769 C1774 0.949 . S
H1770 C1776 0.950 . S
H1771 C1777 0.950 . S
H1772 C1778 0.989 . S
C1773 H1768 0.955 1_556 S
C1773 C1775 1.324 . S
C1773 C1779 1.424 . S
C1774 C1766 1.574 . S
C1774 H1769 0.949 . S
C1774 C1780 1.368 . S
C1775 C1759 1.364 . S
C1775 H1767 0.936 1_556 S
C1775 C1773 1.324 . S
C1776 C1764 1.349 . S
C1776 H1770 0.950 . S
C1776 C1777 1.327 . S
C1777 H1771 0.950 . S
C1777 C1776 1.327 . S
C1777 C1781 1.429 . S
C1778 C1761 1.573 . S
C1778 H1772 0.989 . S
C1778 C1782 1.330 1_554 S
C1779 C1760 1.429 . S
C1779 C1773 1.424 . S
C1779 C1780 1.523 . S
C1780 C1761 1.330 1_556 S
C1780 C1774 1.368 . S
C1780 C1779 1.523 . S
C1781 C1765 1.418 1_556 S
C1781 C1777 1.429 . S
C1781 C1782 1.523 1_565 S
C1782 C1766 1.368 . S
C1782 C1778 1.330 1_556 S
C1782 C1781 1.523 1_545 S
H1783 C1758 0.950 . S
H1784 C1760 0.950 . S
H1785 C1761 0.981 . S
H1786 C1763 0.946 . S
H1787 C1765 0.959 . S
C1788 C1789 1.349 . S
C1788 C1790 1.327 . S
C1788 H1813 0.950 . S
C1789 C1788 1.349 . S
C1789 C1805 1.349 . S
C1790 C1788 1.327 . S
C1790 C1809 1.429 . S
C1790 H1814 0.950 . S
C1791 C1808 1.574 . S
C1791 C1810 1.368 . S
C1791 H1815 0.949 . S
H1792 C1796 0.949 . S
C1793 C1794 1.349 . S
C1793 C1795 1.327 . S
C1793 H1816 0.950 . S
C1794 C1793 1.349 . S
C1794 C1806 1.349 . S
C1795 C1793 1.327 . S
C1795 C1811 1.429 . S
C1795 H1817 0.950 . S
C1796 H1792 0.949 . S
C1796 C1804 1.574 . S
C1796 C1812 1.368 . S
H1797 C1805 0.950 . S
H1798 C1803 0.950 . S
H1799 C1804 0.949 . S
H1800 C1806 0.950 . S
H1801 C1807 0.950 . S
H1802 C1808 0.949 . S
C1803 H1798 0.950 . S
C1803 C1805 1.327 . S
C1803 C1809 1.429 . S
C1804 C1796 1.574 . S
C1804 H1799 0.949 . S
C1804 C1810 1.368 . S
C1805 C1789 1.349 . S
C1805 H1797 0.950 . S
C1805 C1803 1.327 . S
C1806 C1794 1.349 . S
C1806 H1800 0.950 . S
C1806 C1807 1.327 . S
C1807 H1801 0.950 . S
C1807 C1806 1.327 . S
C1807 C1811 1.429 . S
C1808 C1791 1.574 . S
C1808 H1802 0.949 . S
C1808 C1812 1.368 . S
C1809 C1790 1.429 . S
C1809 C1803 1.429 . S
C1809 C1810 1.523 . S
C1810 C1791 1.368 . S
C1810 C1804 1.368 . S
C1810 C1809 1.523 . S
C1811 C1795 1.429 . S
C1811 C1807 1.429 . S
C1811 C1812 1.523 . S
C1812 C1796 1.368 . S
C1812 C1808 1.368 . S
C1812 C1811 1.523 . S
H1813 C1788 0.950 . S
H1814 C1790 0.950 . S
H1815 C1791 0.949 . S
H1816 C1793 0.950 . S
H1817 C1795 0.950 . S
C1818 C1819 1.339 1_554 S
C1818 C1820 1.327 . S
C1818 H1843 0.950 . S
C1819 C1818 1.339 1_556 S
C1819 C1835 1.358 . S
C1820 C1818 1.327 . S
C1820 C1839 1.429 . S
C1820 H1844 0.950 . S
C1821 C1838 1.574 . S
C1821 C1840 1.368 1_556 S
C1821 H1845 0.949 . S
H1822 C1826 0.949 . S
C1823 C1824 1.349 . S
C1823 C1825 1.327 . S
C1823 H1846 0.950 1_554 S
C1824 C1823 1.349 . S
C1824 C1836 1.349 . S
C1825 C1823 1.327 . S
C1825 C1841 1.428 . S
C1825 H1847 0.950 1_554 S
C1826 H1822 0.949 . S
C1826 C1834 1.574 . S
C1826 C1842 1.368 . S
H1827 C1835 0.950 . S
H1828 C1833 0.950 . S
H1829 C1834 0.949 . S
H1830 C1836 0.950 . S
H1831 C1837 0.950 . S
H1832 C1838 0.949 . S
C1833 H1828 0.950 . S
C1833 C1835 1.327 . S
C1833 C1839 1.429 1_556 S
C1834 C1826 1.574 . S
C1834 H1829 0.949 . S
C1834 C1840 1.368 . S
C1835 C1819 1.358 . S
C1835 H1827 0.950 . S
C1835 C1833 1.327 . S
C1836 C1824 1.349 . S
C1836 H1830 0.950 . S
C1836 C1837 1.327 . S
C1837 H1831 0.950 . S
C1837 C1836 1.327 . S
C1837 C1841 1.429 . S
C1838 C1821 1.574 . S
C1838 H1832 0.949 . S
C1838 C1842 1.368 1_556 S
C1839 C1820 1.429 . S
C1839 C1833 1.429 1_554 S
C1839 C1840 1.523 . S
C1840 C1821 1.368 1_554 S
C1840 C1834 1.368 . S
C1840 C1839 1.523 . S
C1841 C1825 1.428 . S
C1841 C1837 1.429 . S
C1841 C1842 1.523 . S
C1842 C1826 1.368 . S
C1842 C1838 1.368 1_554 S
C1842 C1841 1.523 . S
H1843 C1818 0.950 . S
H1844 C1820 0.950 . S
H1845 C1821 0.949 . S
H1846 C1823 0.950 1_556 S
H1847 C1825 0.950 1_556 S
C1848 C1849 1.349 . S
C1848 C1850 1.327 . S
C1848 H1873 0.950 . S
C1849 C1848 1.349 . S
C1849 C1865 1.349 . S
C1850 C1848 1.327 . S
C1850 C1869 1.429 . S
C1850 H1874 0.950 . S
C1851 C1868 1.574 . S
C1851 C1870 1.368 . S
C1851 H1875 0.949 . S
H1852 C1856 0.949 . S
C1853 C1854 1.349 . S
C1853 C1855 1.327 . S
C1853 H1876 0.950 . S
C1854 C1853 1.349 . S
C1854 C1866 1.349 . S
C1855 C1853 1.327 . S
C1855 C1871 1.429 . S
C1855 H1877 0.950 . S
C1856 H1852 0.949 . S
C1856 C1864 1.574 . S
C1856 C1872 1.368 . S
H1857 C1865 0.950 . S
H1858 C1863 0.950 . S
H1859 C1864 0.949 . S
H1860 C1866 0.950 . S
H1861 C1867 0.950 . S
H1862 C1868 0.949 . S
C1863 H1858 0.950 . S
C1863 C1865 1.327 . S
C1863 C1869 1.429 . S
C1864 C1856 1.574 . S
C1864 H1859 0.949 . S
C1864 C1870 1.368 . S
C1865 C1849 1.349 . S
C1865 H1857 0.950 . S
C1865 C1863 1.327 . S
C1866 C1854 1.349 . S
C1866 H1860 0.950 . S
C1866 C1867 1.327 . S
C1867 H1861 0.950 . S
C1867 C1866 1.327 . S
C1867 C1871 1.429 . S
C1868 C1851 1.574 . S
C1868 H1862 0.949 . S
C1868 C1872 1.368 . S
C1869 C1850 1.429 . S
C1869 C1863 1.429 . S
C1869 C1870 1.523 . S
C1870 C1851 1.368 . S
C1870 C1864 1.368 . S
C1870 C1869 1.523 . S
C1871 C1855 1.429 . S
C1871 C1867 1.429 . S
C1871 C1872 1.523 . S
C1872 C1856 1.368 . S
C1872 C1868 1.368 . S
C1872 C1871 1.523 . S
H1873 C1848 0.950 . S
H1874 C1850 0.950 . S
H1875 C1851 0.949 . S
H1876 C1853 0.950 . S
H1877 C1855 0.950 . S
C1878 C1879 1.349 . S
C1878 C1880 1.327 . S
C1878 H1903 0.950 . S
C1879 C1878 1.349 . S
C1879 C1895 1.349 . S
C1880 C1878 1.327 . S
C1880 C1899 1.429 . S
C1880 H1904 0.950 . S
C1881 C1898 1.574 . S
C1881 C1900 1.368 . S
C1881 H1905 0.949 1_655 S
H1882 C1886 0.949 . S
C1883 C1884 1.349 . S
C1883 C1885 1.327 . S
C1883 H1906 0.950 1_655 S
C1884 C1883 1.349 . S
C1884 C1896 1.349 . S
C1885 C1883 1.327 . S
C1885 C1901 1.429 . S
C1885 H1907 0.950 1_655 S
C1886 H1882 0.949 . S
C1886 C1894 1.574 . S
C1886 C1902 1.368 . S
H1887 C1895 0.950 1_455 S
H1888 C1893 0.950 1_455 S
H1889 C1894 0.949 . S
H1890 C1896 0.950 . S
H1891 C1897 0.950 . S
H1892 C1898 0.949 1_455 S
C1893 H1888 0.950 1_655 S
C1893 C1895 1.327 . S
C1893 C1899 1.429 . S
C1894 C1886 1.574 . S
C1894 H1889 0.949 . S
C1894 C1900 1.368 . S
C1895 C1879 1.349 . S
C1895 H1887 0.950 1_655 S
C1895 C1893 1.327 . S
C1896 C1884 1.349 . S
C1896 H1890 0.950 . S
C1896 C1897 1.327 . S
C1897 H1891 0.950 . S
C1897 C1896 1.327 . S
C1897 C1901 1.429 . S
C1898 C1881 1.574 . S
C1898 H1892 0.949 1_655 S
C1898 C1902 1.368 . S
C1899 C1880 1.429 . S
C1899 C1893 1.429 . S
C1899 C1900 1.523 . S
C1900 C1881 1.368 . S
C1900 C1894 1.368 . S
C1900 C1899 1.523 . S
C1901 C1885 1.429 . S
C1901 C1897 1.429 . S
C1901 C1902 1.523 1_556 S
C1902 C1886 1.368 . S
C1902 C1898 1.368 . S
C1902 C1901 1.523 1_554 S
H1903 C1878 0.950 . S
H1904 C1880 0.950 . S
H1905 C1881 0.949 1_455 S
H1906 C1883 0.950 1_455 S
H1907 C1885 0.950 1_455 S
C1908 C1909 1.349 . S
C1908 C1910 1.327 . S
C1908 H1933 0.950 . S
C1909 C1908 1.349 . S
C1909 C1925 1.349 . S
C1910 C1908 1.327 . S
C1910 C1929 1.429 . S
C1910 H1934 0.950 . S
C1911 C1928 1.574 . S
C1911 C1930 1.368 . S
C1911 H1935 0.949 . S
H1912 C1916 0.949 . S
C1913 C1914 1.349 . S
C1913 C1915 1.327 . S
C1913 H1936 0.950 . S
C1914 C1913 1.349 . S
C1914 C1926 1.349 . S
C1915 C1913 1.327 . S
C1915 C1931 1.429 . S
C1915 H1937 0.950 . S
C1916 H1912 0.949 . S
C1916 C1924 1.574 . S
C1916 C1932 1.368 . S
H1917 C1925 0.950 . S
H1918 C1923 0.950 . S
H1919 C1924 0.949 . S
H1920 C1926 0.950 . S
H1921 C1927 0.950 . S
H1922 C1928 0.949 . S
C1923 H1918 0.950 . S
C1923 C1925 1.327 . S
C1923 C1929 1.429 . S
C1924 C1916 1.574 . S
C1924 H1919 0.949 . S
C1924 C1930 1.368 . S
C1925 C1909 1.349 . S
C1925 H1917 0.950 . S
C1925 C1923 1.327 . S
C1926 C1914 1.349 . S
C1926 H1920 0.950 . S
C1926 C1927 1.327 . S
C1927 H1921 0.950 . S
C1927 C1926 1.327 . S
C1927 C1931 1.429 . S
C1928 C1911 1.574 . S
C1928 H1922 0.949 . S
C1928 C1932 1.368 . S
C1929 C1910 1.429 . S
C1929 C1923 1.429 . S
C1929 C1930 1.523 . S
C1930 C1911 1.368 . S
C1930 C1924 1.368 . S
C1930 C1929 1.523 . S
C1931 C1915 1.429 . S
C1931 C1927 1.429 . S
C1931 C1932 1.523 . S
C1932 C1916 1.368 . S
C1932 C1928 1.368 . S
C1932 C1931 1.523 . S
H1933 C1908 0.950 . S
H1934 C1910 0.950 . S
H1935 C1911 0.949 . S
H1936 C1913 0.950 . S
H1937 C1915 0.950 . S
C1938 C1939 1.338 1_455 S
C1938 C1940 1.327 . S
C1938 H1963 0.950 . S
C1939 C1938 1.338 1_655 S
C1939 C1955 1.359 . S
C1940 C1938 1.327 . S
C1940 C1959 1.429 . S
C1940 H1964 0.950 . S
C1941 C1958 1.574 . S
C1941 C1960 1.368 1_655 S
C1941 H1965 0.949 . S
H1942 C1946 0.949 . S
C1943 C1944 1.349 . S
C1943 C1945 1.327 . S
C1943 H1966 0.950 1_455 S
C1944 C1943 1.349 . S
C1944 C1956 1.349 . S
C1945 C1943 1.327 . S
C1945 C1961 1.429 . S
C1945 H1967 0.950 1_455 S
C1946 H1942 0.949 . S
C1946 C1954 1.574 . S
C1946 C1962 1.368 . S
H1947 C1955 0.950 . S
H1948 C1953 0.950 . S
H1949 C1954 0.949 . S
H1950 C1956 0.950 . S
H1951 C1957 0.950 . S
H1952 C1958 0.949 . S
C1953 H1948 0.950 . S
C1953 C1955 1.327 . S
C1953 C1959 1.429 1_655 S
C1954 C1946 1.574 . S
C1954 H1949 0.949 . S
C1954 C1960 1.368 . S
C1955 C1939 1.359 . S
C1955 H1947 0.950 . S
C1955 C1953 1.327 . S
C1956 C1944 1.349 . S
C1956 H1950 0.950 . S
C1956 C1957 1.327 . S
C1957 H1951 0.950 . S
C1957 C1956 1.327 . S
C1957 C1961 1.429 . S
C1958 C1941 1.574 . S
C1958 H1952 0.949 . S
C1958 C1962 1.368 1_655 S
C1959 C1940 1.429 . S
C1959 C1953 1.429 1_455 S
C1959 C1960 1.523 . S
C1960 C1941 1.368 1_455 S
C1960 C1954 1.368 . S
C1960 C1959 1.523 . S
C1961 C1945 1.429 . S
C1961 C1957 1.429 . S
C1961 C1962 1.523 . S
C1962 C1946 1.368 . S
C1962 C1958 1.368 1_455 S
C1962 C1961 1.523 . S
H1963 C1938 0.950 . S
H1964 C1940 0.950 . S
H1965 C1941 0.949 . S
H1966 C1943 0.950 1_655 S
H1967 C1945 0.950 1_655 S
C1968 C1969 1.349 . S
C1968 C1970 1.327 . S
C1968 H1993 0.950 . S
C1969 C1968 1.349 . S
C1969 C1985 1.349 . S
C1970 C1968 1.327 . S
C1970 C1989 1.429 . S
C1970 H1994 0.950 . S
C1971 C1988 1.574 . S
C1971 C1990 1.368 . S
C1971 H1995 0.949 . S
H1972 C1976 0.949 . S
C1973 C1974 1.349 . S
C1973 C1975 1.327 . S
C1973 H1996 0.950 . S
C1974 C1973 1.349 . S
C1974 C1986 1.349 . S
C1975 C1973 1.327 . S
C1975 C1991 1.429 . S
C1975 H1997 0.950 . S
C1976 H1972 0.949 . S
C1976 C1984 1.574 . S
C1976 C1992 1.368 . S
H1977 C1985 0.950 . S
H1978 C1983 0.950 . S
H1979 C1984 0.949 . S
H1980 C1986 0.950 . S
H1981 C1987 0.950 . S
H1982 C1988 0.949 . S
C1983 H1978 0.950 . S
C1983 C1985 1.327 . S
C1983 C1989 1.429 . S
C1984 C1976 1.574 . S
C1984 H1979 0.949 . S
C1984 C1990 1.368 . S
C1985 C1969 1.349 . S
C1985 H1977 0.950 . S
C1985 C1983 1.327 . S
C1986 C1974 1.349 . S
C1986 H1980 0.950 . S
C1986 C1987 1.327 . S
C1987 H1981 0.950 . S
C1987 C1986 1.327 . S
C1987 C1991 1.429 . S
C1988 C1971 1.574 . S
C1988 H1982 0.949 . S
C1988 C1992 1.368 . S
C1989 C1970 1.429 . S
C1989 C1983 1.429 . S
C1989 C1990 1.523 . S
C1990 C1971 1.368 . S
C1990 C1984 1.368 . S
C1990 C1989 1.523 . S
C1991 C1975 1.429 . S
C1991 C1987 1.429 . S
C1991 C1992 1.523 . S
C1992 C1976 1.368 . S
C1992 C1988 1.368 . S
C1992 C1991 1.523 . S
H1993 C1968 0.950 . S
H1994 C1970 0.950 . S
H1995 C1971 0.949 . S
H1996 C1973 0.950 . S
H1997 C1975 0.950 . S
C1998 C1999 1.349 . S
C1998 C2000 1.327 . S
C1998 H2023 0.950 . S
C1999 C1998 1.349 . S
C1999 C2015 1.349 . S
C2000 C1998 1.327 . S
C2000 C2019 1.429 . S
C2000 H2024 0.950 . S
C2001 C2018 1.574 . S
C2001 C2020 1.368 . S
C2001 H2025 0.949 . S
H2002 C2006 0.949 . S
C2003 C2004 1.349 . S
C2003 C2005 1.327 . S
C2003 H2026 0.950 . S
C2004 C2003 1.349 . S
C2004 C2016 1.349 . S
C2005 C2003 1.327 . S
C2005 C2021 1.429 . S
C2005 H2027 0.950 . S
C2006 H2002 0.949 . S
C2006 C2014 1.574 . S
C2006 C2022 1.368 . S
H2007 C2015 0.950 . S
H2008 C2013 0.950 . S
H2009 C2014 0.949 . S
H2010 C2016 0.950 . S
H2011 C2017 0.950 . S
H2012 C2018 0.949 . S
C2013 H2008 0.950 . S
C2013 C2015 1.327 . S
C2013 C2019 1.429 . S
C2014 C2006 1.574 . S
C2014 H2009 0.949 . S
C2014 C2020 1.368 . S
C2015 C1999 1.349 . S
C2015 H2007 0.950 . S
C2015 C2013 1.327 . S
C2016 C2004 1.349 . S
C2016 H2010 0.950 . S
C2016 C2017 1.327 . S
C2017 H2011 0.950 . S
C2017 C2016 1.327 . S
C2017 C2021 1.429 . S
C2018 C2001 1.574 . S
C2018 H2012 0.949 . S
C2018 C2022 1.368 . S
C2019 C2000 1.429 . S
C2019 C2013 1.429 . S
C2019 C2020 1.523 . S
C2020 C2001 1.368 . S
C2020 C2014 1.368 . S
C2020 C2019 1.523 . S
C2021 C2005 1.429 . S
C2021 C2017 1.429 . S
C2021 C2022 1.523 . S
C2022 C2006 1.368 . S
C2022 C2018 1.368 . S
C2022 C2021 1.523 . S
H2023 C1998 0.950 . S
H2024 C2000 0.950 . S
H2025 C2001 0.949 . S
H2026 C2003 0.950 . S
H2027 C2005 0.950 . S
C2028 C2029 1.348 1_565 S
C2028 C2030 1.327 . S
C2028 H2053 0.950 . S
C2029 C2028 1.348 1_545 S
C2029 C2045 1.350 . S
C2030 C2028 1.327 . S
C2030 C2049 1.446 . S
C2030 H2054 0.950 . S
C2031 C2048 1.574 . S
C2031 C2050 1.333 1_545 S
C2031 H2055 0.949 . S
H2032 C2036 0.949 . S
C2033 C2034 1.349 1_545 S
C2033 C2035 1.327 . S
C2033 H2056 0.950 . S
C2034 C2033 1.349 1_565 S
C2034 C2046 1.349 . S
C2035 C2033 1.327 . S
C2035 C2051 1.429 1_545 S
C2035 H2057 0.950 . S
C2036 H2032 0.949 . S
C2036 C2044 1.574 . S
C2036 C2052 1.368 . S
H2037 C2045 0.950 . S
H2038 C2043 0.950 . S
H2039 C2044 0.949 . S
H2040 C2046 0.950 . S
H2041 C2047 0.950 . S
H2042 C2048 0.949 . S
C2043 H2038 0.950 . S
C2043 C2045 1.327 . S
C2043 C2049 1.413 1_545 S
C2044 C2036 1.574 . S
C2044 H2039 0.949 . S
C2044 C2050 1.402 . S
C2045 C2029 1.350 . S
C2045 H2037 0.950 . S
C2045 C2043 1.327 . S
C2046 C2034 1.349 . S
C2046 H2040 0.950 . S
C2046 C2047 1.327 . S
C2047 H2041 0.950 . S
C2047 C2046 1.327 . S
C2047 C2051 1.429 . S
C2048 C2031 1.574 . S
C2048 H2042 0.949 . S
C2048 C2052 1.368 1_545 S
C2049 C2030 1.446 . S
C2049 C2043 1.413 1_565 S
C2049 C2050 1.525 . S
C2050 C2031 1.333 1_565 S
C2050 C2044 1.402 . S
C2050 C2049 1.525 . S
C2051 C2035 1.429 1_565 S
C2051 C2047 1.429 . S
C2051 C2052 1.523 . S
C2052 C2036 1.368 . S
C2052 C2048 1.368 1_565 S
C2052 C2051 1.523 . S
H2053 C2028 0.950 . S
H2054 C2030 0.950 . S
H2055 C2031 0.949 . S
H2056 C2033 0.950 . S
H2057 C2035 0.950 . S
C2058 C2059 1.349 . S
C2058 C2060 1.327 . S
C2058 H2083 0.950 . S
C2059 C2058 1.349 . S
C2059 C2075 1.349 . S
C2060 C2058 1.327 . S
C2060 C2079 1.429 . S
C2060 H2084 0.950 . S
C2061 C2078 1.574 . S
C2061 C2080 1.368 . S
C2061 H2085 0.949 . S
H2062 C2066 0.949 . S
C2063 C2064 1.349 . S
C2063 C2065 1.327 . S
C2063 H2086 0.950 . S
C2064 C2063 1.349 . S
C2064 C2076 1.349 . S
C2065 C2063 1.327 . S
C2065 C2081 1.429 . S
C2065 H2087 0.950 . S
C2066 H2062 0.949 . S
C2066 C2074 1.574 . S
C2066 C2082 1.368 . S
H2067 C2075 0.950 . S
H2068 C2073 0.950 . S
H2069 C2074 0.949 . S
H2070 C2076 0.950 . S
H2071 C2077 0.950 . S
H2072 C2078 0.949 . S
C2073 H2068 0.950 . S
C2073 C2075 1.327 . S
C2073 C2079 1.429 . S
C2074 C2066 1.574 . S
C2074 H2069 0.949 . S
C2074 C2080 1.368 . S
C2075 C2059 1.349 . S
C2075 H2067 0.950 . S
C2075 C2073 1.327 . S
C2076 C2064 1.349 . S
C2076 H2070 0.950 . S
C2076 C2077 1.327 . S
C2077 H2071 0.950 . S
C2077 C2076 1.327 . S
C2077 C2081 1.429 . S
C2078 C2061 1.574 . S
C2078 H2072 0.949 . S
C2078 C2082 1.368 . S
C2079 C2060 1.429 . S
C2079 C2073 1.429 . S
C2079 C2080 1.523 . S
C2080 C2061 1.368 . S
C2080 C2074 1.368 . S
C2080 C2079 1.523 . S
C2081 C2065 1.429 . S
C2081 C2077 1.429 . S
C2081 C2082 1.523 . S
C2082 C2066 1.368 . S
C2082 C2078 1.368 . S
C2082 C2081 1.523 . S
H2083 C2058 0.950 . S
H2084 C2060 0.950 . S
H2085 C2061 0.949 . S
H2086 C2063 0.950 . S
H2087 C2065 0.950 . S
C2088 C2089 1.349 . S
C2088 C2090 1.327 . S
C2088 H2113 0.950 . S
C2089 C2088 1.349 . S
C2089 C2105 1.349 . S
C2090 C2088 1.327 . S
C2090 C2109 1.429 . S
C2090 H2114 0.950 . S
C2091 C2108 1.574 . S
C2091 C2110 1.368 . S
C2091 H2115 0.949 . S
H2092 C2096 0.949 . S
C2093 C2094 1.349 . S
C2093 C2095 1.327 . S
C2093 H2116 0.950 . S
C2094 C2093 1.349 . S
C2094 C2106 1.349 . S
C2095 C2093 1.327 . S
C2095 C2111 1.429 . S
C2095 H2117 0.950 . S
C2096 H2092 0.949 . S
C2096 C2104 1.574 . S
C2096 C2112 1.368 . S
H2097 C2105 0.950 . S
H2098 C2103 0.950 . S
H2099 C2104 0.949 . S
H2100 C2106 0.950 . S
H2101 C2107 0.950 . S
H2102 C2108 0.949 . S
C2103 H2098 0.950 . S
C2103 C2105 1.327 . S
C2103 C2109 1.429 . S
C2104 C2096 1.574 . S
C2104 H2099 0.949 . S
C2104 C2110 1.368 . S
C2105 C2089 1.349 . S
C2105 H2097 0.950 . S
C2105 C2103 1.327 . S
C2106 C2094 1.349 . S
C2106 H2100 0.950 . S
C2106 C2107 1.327 . S
C2107 H2101 0.950 . S
C2107 C2106 1.327 . S
C2107 C2111 1.429 . S
C2108 C2091 1.574 . S
C2108 H2102 0.949 . S
C2108 C2112 1.368 . S
C2109 C2090 1.429 . S
C2109 C2103 1.429 . S
C2109 C2110 1.523 . S
C2110 C2091 1.368 . S
C2110 C2104 1.368 . S
C2110 C2109 1.523 . S
C2111 C2095 1.429 . S
C2111 C2107 1.429 . S
C2111 C2112 1.523 . S
C2112 C2096 1.368 . S
C2112 C2108 1.368 . S
C2112 C2111 1.523 . S
H2113 C2088 0.950 . S
H2114 C2090 0.950 . S
H2115 C2091 0.949 . S
H2116 C2093 0.950 . S
H2117 C2095 0.950 . S
C2118 C2119 1.349 . S
C2118 C2120 1.327 . S
C2118 H2143 0.950 . S
C2119 C2118 1.349 . S
C2119 C2135 1.349 . S
C2120 C2118 1.327 . S
C2120 C2139 1.429 . S
C2120 H2144 0.950 . S
C2121 C2138 1.574 . S
C2121 C2140 1.368 . S
C2121 H2145 0.949 . S
H2122 C2126 0.949 . S
C2123 C2124 1.349 . S
C2123 C2125 1.327 . S
C2123 H2146 0.950 . S
C2124 C2123 1.349 . S
C2124 C2136 1.349 . S
C2125 C2123 1.327 . S
C2125 C2141 1.429 . S
C2125 H2147 0.950 . S
C2126 H2122 0.949 . S
C2126 C2134 1.574 . S
C2126 C2142 1.368 . S
H2127 C2135 0.950 . S
H2128 C2133 0.950 . S
H2129 C2134 0.949 . S
H2130 C2136 0.950 . S
H2131 C2137 0.950 . S
H2132 C2138 0.949 . S
C2133 H2128 0.950 . S
C2133 C2135 1.327 . S
C2133 C2139 1.429 . S
C2134 C2126 1.574 . S
C2134 H2129 0.949 . S
C2134 C2140 1.368 . S
C2135 C2119 1.349 . S
C2135 H2127 0.950 . S
C2135 C2133 1.327 . S
C2136 C2124 1.349 . S
C2136 H2130 0.950 . S
C2136 C2137 1.327 . S
C2137 H2131 0.950 . S
C2137 C2136 1.327 . S
C2137 C2141 1.429 . S
C2138 C2121 1.574 . S
C2138 H2132 0.949 . S
C2138 C2142 1.368 . S
C2139 C2120 1.429 . S
C2139 C2133 1.429 . S
C2139 C2140 1.523 . S
C2140 C2121 1.368 . S
C2140 C2134 1.368 . S
C2140 C2139 1.523 . S
C2141 C2125 1.429 . S
C2141 C2137 1.429 . S
C2141 C2142 1.523 . S
C2142 C2126 1.368 . S
C2142 C2138 1.368 . S
C2142 C2141 1.523 . S
H2143 C2118 0.950 . S
H2144 C2120 0.950 . S
H2145 C2121 0.949 . S
H2146 C2123 0.950 . S
H2147 C2125 0.950 . S
C2148 C2149 1.349 . S
C2148 C2150 1.327 . S
C2148 H2173 0.950 . S
C2149 C2148 1.349 . S
C2149 C2165 1.349 . S
C2150 C2148 1.327 . S
C2150 C2169 1.429 . S
C2150 H2174 0.950 . S
C2151 C2168 1.574 . S
C2151 C2170 1.368 . S
C2151 H2175 0.949 . S
H2152 C2156 0.949 . S
C2153 C2154 1.349 . S
C2153 C2155 1.327 . S
C2153 H2176 0.950 . S
C2154 C2153 1.349 . S
C2154 C2166 1.349 . S
C2155 C2153 1.327 . S
C2155 C2171 1.429 . S
C2155 H2177 0.950 . S
C2156 H2152 0.949 . S
C2156 C2164 1.574 . S
C2156 C2172 1.368 . S
H2157 C2165 0.950 . S
H2158 C2163 0.950 . S
H2159 C2164 0.949 . S
H2160 C2166 0.950 . S
H2161 C2167 0.950 . S
H2162 C2168 0.949 . S
C2163 H2158 0.950 . S
C2163 C2165 1.327 . S
C2163 C2169 1.429 . S
C2164 C2156 1.574 . S
C2164 H2159 0.949 . S
C2164 C2170 1.368 . S
C2165 C2149 1.349 . S
C2165 H2157 0.950 . S
C2165 C2163 1.327 . S
C2166 C2154 1.349 . S
C2166 H2160 0.950 . S
C2166 C2167 1.327 . S
C2167 H2161 0.950 . S
C2167 C2166 1.327 . S
C2167 C2171 1.429 . S
C2168 C2151 1.574 . S
C2168 H2162 0.949 . S
C2168 C2172 1.368 . S
C2169 C2150 1.429 . S
C2169 C2163 1.429 . S
C2169 C2170 1.523 . S
C2170 C2151 1.368 . S
C2170 C2164 1.368 . S
C2170 C2169 1.523 . S
C2171 C2155 1.429 . S
C2171 C2167 1.429 . S
C2171 C2172 1.523 . S
C2172 C2156 1.368 . S
C2172 C2168 1.368 . S
C2172 C2171 1.523 . S
H2173 C2148 0.950 . S
H2174 C2150 0.950 . S
H2175 C2151 0.949 . S
H2176 C2153 0.950 . S
H2177 C2155 0.950 . S
C2178 C2179 1.348 1_556 S
C2178 C2180 1.327 . S
C2178 H2203 0.950 . S
C2179 C2178 1.348 1_554 S
C2179 C2195 1.350 . S
C2180 C2178 1.327 . S
C2180 C2199 1.450 . S
C2180 H2204 0.950 . S
C2181 C2198 1.574 . S
C2181 C2200 1.323 1_554 S
C2181 H2205 0.949 . S
H2182 C2186 0.949 . S
C2183 C2184 1.349 1_554 S
C2183 C2185 1.327 . S
C2183 H2206 0.950 . S
C2184 C2183 1.349 1_556 S
C2184 C2196 1.349 . S
C2185 C2183 1.327 . S
C2185 C2201 1.429 1_554 S
C2185 H2207 0.950 . S
C2186 H2182 0.949 . S
C2186 C2194 1.574 . S
C2186 C2202 1.368 . S
H2187 C2195 0.950 . S
H2188 C2193 0.950 . S
H2189 C2194 0.949 . S
H2190 C2196 0.950 . S
H2191 C2197 0.950 . S
H2192 C2198 0.949 . S
C2193 H2188 0.950 . S
C2193 C2195 1.327 . S
C2193 C2199 1.409 1_554 S
C2194 C2186 1.574 . S
C2194 H2189 0.949 . S
C2194 C2200 1.411 . S
C2195 C2179 1.350 . S
C2195 H2187 0.950 . S
C2195 C2193 1.327 . S
C2196 C2184 1.349 . S
C2196 H2190 0.950 . S
C2196 C2197 1.327 . S
C2197 H2191 0.950 . S
C2197 C2196 1.327 . S
C2197 C2201 1.429 . S
C2198 C2181 1.574 . S
C2198 H2192 0.949 . S
C2198 C2202 1.368 1_554 S
C2199 C2180 1.450 . S
C2199 C2193 1.409 1_556 S
C2199 C2200 1.525 . S
C2200 C2181 1.323 1_556 S
C2200 C2194 1.411 . S
C2200 C2199 1.525 . S
C2201 C2185 1.429 1_556 S
C2201 C2197 1.429 . S
C2201 C2202 1.523 . S
C2202 C2186 1.368 . S
C2202 C2198 1.368 1_556 S
C2202 C2201 1.523 . S
H2203 C2178 0.950 . S
H2204 C2180 0.950 . S
H2205 C2181 0.949 . S
H2206 C2183 0.950 . S
H2207 C2185 0.950 . S
C2208 C2209 1.349 . S
C2208 C2210 1.327 . S
C2208 H2233 0.950 . S
C2209 C2208 1.349 . S
C2209 C2225 1.349 . S
C2210 C2208 1.327 . S
C2210 C2229 1.429 . S
C2210 H2234 0.950 . S
C2211 C2228 1.574 . S
C2211 C2230 1.368 . S
C2211 H2235 0.949 . S
H2212 C2216 0.949 . S
C2213 C2214 1.349 . S
C2213 C2215 1.327 . S
C2213 H2236 0.950 . S
C2214 C2213 1.349 . S
C2214 C2226 1.349 . S
C2215 C2213 1.327 . S
C2215 C2231 1.429 . S
C2215 H2237 0.950 . S
C2216 H2212 0.949 . S
C2216 C2224 1.574 . S
C2216 C2232 1.368 . S
H2217 C2225 0.950 . S
H2218 C2223 0.950 . S
H2219 C2224 0.949 . S
H2220 C2226 0.950 . S
H2221 C2227 0.950 . S
H2222 C2228 0.949 . S
C2223 H2218 0.950 . S
C2223 C2225 1.327 . S
C2223 C2229 1.429 . S
C2224 C2216 1.574 . S
C2224 H2219 0.949 . S
C2224 C2230 1.368 . S
C2225 C2209 1.349 . S
C2225 H2217 0.950 . S
C2225 C2223 1.327 . S
C2226 C2214 1.349 . S
C2226 H2220 0.950 . S
C2226 C2227 1.327 . S
C2227 H2221 0.950 . S
C2227 C2226 1.327 . S
C2227 C2231 1.429 . S
C2228 C2211 1.574 . S
C2228 H2222 0.949 . S
C2228 C2232 1.368 . S
C2229 C2210 1.429 . S
C2229 C2223 1.429 . S
C2229 C2230 1.523 . S
C2230 C2211 1.368 . S
C2230 C2224 1.368 . S
C2230 C2229 1.523 . S
C2231 C2215 1.429 . S
C2231 C2227 1.429 . S
C2231 C2232 1.523 . S
C2232 C2216 1.368 . S
C2232 C2228 1.368 . S
C2232 C2231 1.523 . S
H2233 C2208 0.950 . S
H2234 C2210 0.950 . S
H2235 C2211 0.949 . S
H2236 C2213 0.950 . S
H2237 C2215 0.950 . S
C2238 C2239 1.349 . S
C2238 C2240 1.327 . S
C2238 H2263 0.950 . S
C2239 C2238 1.349 . S
C2239 C2255 1.349 . S
C2240 C2238 1.327 . S
C2240 C2259 1.429 . S
C2240 H2264 0.950 . S
C2241 C2258 1.574 . S
C2241 C2260 1.368 . S
C2241 H2265 0.949 . S
H2242 C2246 0.949 . S
C2243 C2244 1.349 . S
C2243 C2245 1.327 . S
C2243 H2266 0.950 . S
C2244 C2243 1.349 . S
C2244 C2256 1.349 . S
C2245 C2243 1.327 . S
C2245 C2261 1.429 . S
C2245 H2267 0.950 . S
C2246 H2242 0.949 . S
C2246 C2254 1.574 . S
C2246 C2262 1.368 . S
H2247 C2255 0.950 . S
H2248 C2253 0.950 . S
H2249 C2254 0.949 . S
H2250 C2256 0.950 . S
H2251 C2257 0.950 . S
H2252 C2258 0.949 . S
C2253 H2248 0.950 . S
C2253 C2255 1.327 . S
C2253 C2259 1.429 . S
C2254 C2246 1.574 . S
C2254 H2249 0.949 . S
C2254 C2260 1.368 . S
C2255 C2239 1.349 . S
C2255 H2247 0.950 . S
C2255 C2253 1.327 . S
C2256 C2244 1.349 . S
C2256 H2250 0.950 . S
C2256 C2257 1.327 . S
C2257 H2251 0.950 . S
C2257 C2256 1.327 . S
C2257 C2261 1.429 . S
C2258 C2241 1.574 . S
C2258 H2252 0.949 . S
C2258 C2262 1.368 . S
C2259 C2240 1.429 . S
C2259 C2253 1.429 . S
C2259 C2260 1.523 . S
C2260 C2241 1.368 . S
C2260 C2254 1.368 . S
C2260 C2259 1.523 . S
C2261 C2245 1.429 . S
C2261 C2257 1.429 . S
C2261 C2262 1.523 . S
C2262 C2246 1.368 . S
C2262 C2258 1.368 . S
C2262 C2261 1.523 . S
H2263 C2238 0.950 . S
H2264 C2240 0.950 . S
H2265 C2241 0.949 . S
H2266 C2243 0.950 . S
H2267 C2245 0.950 . S
C2268 C2269 1.349 . S
C2268 C2270 1.327 . S
C2268 H2293 0.950 . S
C2269 C2268 1.349 . S
C2269 C2285 1.349 . S
C2270 C2268 1.327 . S
C2270 C2289 1.429 . S
C2270 H2294 0.950 . S
C2271 C2288 1.574 . S
C2271 C2290 1.368 . S
C2271 H2295 0.949 . S
H2272 C2276 0.949 . S
C2273 C2274 1.349 . S
C2273 C2275 1.327 . S
C2273 H2296 0.950 . S
C2274 C2273 1.349 . S
C2274 C2286 1.349 . S
C2275 C2273 1.327 . S
C2275 C2291 1.429 . S
C2275 H2297 0.950 . S
C2276 H2272 0.949 . S
C2276 C2284 1.574 . S
C2276 C2292 1.368 . S
H2277 C2285 0.950 . S
H2278 C2283 0.950 . S
H2279 C2284 0.949 . S
H2280 C2286 0.950 . S
H2281 C2287 0.950 . S
H2282 C2288 0.949 . S
C2283 H2278 0.950 . S
C2283 C2285 1.327 . S
C2283 C2289 1.429 . S
C2284 C2276 1.574 . S
C2284 H2279 0.949 . S
C2284 C2290 1.368 . S
C2285 C2269 1.349 . S
C2285 H2277 0.950 . S
C2285 C2283 1.327 . S
C2286 C2274 1.349 . S
C2286 H2280 0.950 . S
C2286 C2287 1.327 . S
C2287 H2281 0.950 . S
C2287 C2286 1.327 . S
C2287 C2291 1.429 . S
C2288 C2271 1.574 . S
C2288 H2282 0.949 . S
C2288 C2292 1.368 . S
C2289 C2270 1.429 . S
C2289 C2283 1.429 . S
C2289 C2290 1.523 . S
C2290 C2271 1.368 . S
C2290 C2284 1.368 . S
C2290 C2289 1.523 . S
C2291 C2275 1.429 . S
C2291 C2287 1.429 . S
C2291 C2292 1.523 . S
C2292 C2276 1.368 . S
C2292 C2288 1.368 . S
C2292 C2291 1.523 . S
H2293 C2268 0.950 . S
H2294 C2270 0.950 . S
H2295 C2271 0.949 . S
H2296 C2273 0.950 . S
H2297 C2275 0.950 . S
C2298 C2299 1.348 1_655 S
C2298 C2300 1.327 . S
C2298 H2323 0.950 . S
C2299 C2298 1.348 1_455 S
C2299 C2315 1.350 . S
C2300 C2298 1.327 . S
C2300 C2319 1.447 . S
C2300 H2324 0.950 . S
C2301 C2318 1.574 . S
C2301 C2320 1.329 1_455 S
C2301 H2325 0.949 . S
H2302 C2306 0.949 . S
C2303 C2304 1.349 1_455 S
C2303 C2305 1.327 . S
C2303 H2326 0.950 . S
C2304 C2303 1.349 1_655 S
C2304 C2316 1.349 . S
C2305 C2303 1.327 . S
C2305 C2321 1.429 1_455 S
C2305 H2327 0.950 . S
C2306 H2302 0.949 . S
C2306 C2314 1.574 . S
C2306 C2322 1.368 . S
H2307 C2315 0.950 . S
H2308 C2313 0.950 . S
H2309 C2314 0.949 . S
H2310 C2316 0.950 . S
H2311 C2317 0.950 . S
H2312 C2318 0.949 . S
C2313 H2308 0.950 . S
C2313 C2315 1.327 . S
C2313 C2319 1.412 1_455 S
C2314 C2306 1.574 . S
C2314 H2309 0.949 . S
C2314 C2320 1.406 . S
C2315 C2299 1.350 . S
C2315 H2307 0.950 . S
C2315 C2313 1.327 . S
C2316 C2304 1.349 . S
C2316 H2310 0.950 . S
C2316 C2317 1.327 . S
C2317 H2311 0.950 . S
C2317 C2316 1.327 . S
C2317 C2321 1.429 . S
C2318 C2301 1.574 . S
C2318 H2312 0.949 . S
C2318 C2322 1.368 1_455 S
C2319 C2300 1.447 . S
C2319 C2313 1.412 1_655 S
C2319 C2320 1.525 . S
C2320 C2301 1.329 1_655 S
C2320 C2314 1.406 . S
C2320 C2319 1.525 . S
C2321 C2305 1.429 1_655 S
C2321 C2317 1.429 . S
C2321 C2322 1.523 . S
C2322 C2306 1.368 . S
C2322 C2318 1.368 1_655 S
C2322 C2321 1.523 . S
H2323 C2298 0.950 . S
H2324 C2300 0.950 . S
H2325 C2301 0.949 . S
H2326 C2303 0.950 . S
H2327 C2305 0.950 . S
C2328 C2329 1.349 . S
C2328 C2330 1.327 . S
C2328 H2353 0.950 . S
C2329 C2328 1.349 . S
C2329 C2345 1.349 . S
C2330 C2328 1.327 . S
C2330 C2349 1.429 . S
C2330 H2354 0.950 . S
C2331 C2348 1.574 . S
C2331 C2350 1.368 . S
C2331 H2355 0.949 . S
H2332 C2336 0.949 . S
C2333 C2334 1.349 . S
C2333 C2335 1.327 . S
C2333 H2356 0.950 . S
C2334 C2333 1.349 . S
C2334 C2346 1.349 . S
C2335 C2333 1.327 . S
C2335 C2351 1.429 . S
C2335 H2357 0.950 . S
C2336 H2332 0.949 . S
C2336 C2344 1.574 . S
C2336 C2352 1.368 . S
H2337 C2345 0.950 . S
H2338 C2343 0.950 . S
H2339 C2344 0.949 . S
H2340 C2346 0.950 . S
H2341 C2347 0.950 . S
H2342 C2348 0.949 . S
C2343 H2338 0.950 . S
C2343 C2345 1.327 . S
C2343 C2349 1.429 . S
C2344 C2336 1.574 . S
C2344 H2339 0.949 . S
C2344 C2350 1.368 . S
C2345 C2329 1.349 . S
C2345 H2337 0.950 . S
C2345 C2343 1.327 . S
C2346 C2334 1.349 . S
C2346 H2340 0.950 . S
C2346 C2347 1.327 . S
C2347 H2341 0.950 . S
C2347 C2346 1.327 . S
C2347 C2351 1.429 . S
C2348 C2331 1.574 . S
C2348 H2342 0.949 . S
C2348 C2352 1.368 . S
C2349 C2330 1.429 . S
C2349 C2343 1.429 . S
C2349 C2350 1.523 . S
C2350 C2331 1.368 . S
C2350 C2344 1.368 . S
C2350 C2349 1.523 . S
C2351 C2335 1.429 . S
C2351 C2347 1.429 . S
C2351 C2352 1.523 . S
C2352 C2336 1.368 . S
C2352 C2348 1.368 . S
C2352 C2351 1.523 . S
H2353 C2328 0.950 . S
H2354 C2330 0.950 . S
H2355 C2331 0.949 . S
H2356 C2333 0.950 . S
H2357 C2335 0.950 . S
C2358 C2359 1.349 . S
C2358 C2360 1.327 . S
C2358 H2383 0.950 . S
C2359 C2358 1.349 . S
C2359 C2375 1.349 . S
C2360 C2358 1.327 . S
C2360 C2379 1.429 . S
C2360 H2384 0.950 . S
C2361 C2378 1.574 . S
C2361 C2380 1.368 . S
C2361 H2385 0.949 . S
H2362 C2366 0.949 . S
C2363 C2364 1.349 . S
C2363 C2365 1.327 . S
C2363 H2386 0.950 . S
C2364 C2363 1.349 . S
C2364 C2376 1.349 . S
C2365 C2363 1.327 . S
C2365 C2381 1.429 . S
C2365 H2387 0.950 . S
C2366 H2362 0.949 . S
C2366 C2374 1.574 . S
C2366 C2382 1.368 . S
H2367 C2375 0.950 . S
H2368 C2373 0.950 . S
H2369 C2374 0.949 . S
H2370 C2376 0.950 . S
H2371 C2377 0.950 . S
H2372 C2378 0.949 . S
C2373 H2368 0.950 . S
C2373 C2375 1.327 . S
C2373 C2379 1.429 . S
C2374 C2366 1.574 . S
C2374 H2369 0.949 . S
C2374 C2380 1.368 . S
C2375 C2359 1.349 . S
C2375 H2367 0.950 . S
C2375 C2373 1.327 . S
C2376 C2364 1.349 . S
C2376 H2370 0.950 . S
C2376 C2377 1.327 . S
C2377 H2371 0.950 . S
C2377 C2376 1.327 . S
C2377 C2381 1.429 . S
C2378 C2361 1.574 . S
C2378 H2372 0.949 . S
C2378 C2382 1.368 . S
C2379 C2360 1.429 . S
C2379 C2373 1.429 . S
C2379 C2380 1.523 . S
C2380 C2361 1.368 . S
C2380 C2374 1.368 . S
C2380 C2379 1.523 . S
C2381 C2365 1.429 . S
C2381 C2377 1.429 . S
C2381 C2382 1.523 . S
C2382 C2366 1.368 . S
C2382 C2378 1.368 . S
C2382 C2381 1.523 . S
H2383 C2358 0.950 . S
H2384 C2360 0.950 . S
H2385 C2361 0.949 . S
H2386 C2363 0.950 . S
H2387 C2365 0.950 . S
C2388 C2389 1.348 1_545 S
C2388 C2390 1.327 . S
C2388 H2413 0.950 . S
C2389 C2388 1.348 1_565 S
C2389 C2405 1.350 . S
C2390 C2388 1.327 . S
C2390 C2409 1.447 . S
C2390 H2414 0.950 . S
C2391 C2408 1.574 . S
C2391 C2410 1.330 1_565 S
C2391 H2415 0.949 . S
H2392 C2396 0.949 . S
C2393 C2394 1.349 1_565 S
C2393 C2395 1.327 . S
C2393 H2416 0.950 . S
C2394 C2393 1.349 1_545 S
C2394 C2406 1.349 . S
C2395 C2393 1.327 . S
C2395 C2411 1.429 1_565 S
C2395 H2417 0.950 . S
C2396 H2392 0.949 . S
C2396 C2404 1.574 . S
C2396 C2412 1.368 . S
H2397 C2405 0.950 . S
H2398 C2403 0.950 . S
H2399 C2404 0.949 . S
H2400 C2406 0.950 . S
H2401 C2407 0.950 . S
H2402 C2408 0.949 . S
C2403 H2398 0.950 . S
C2403 C2405 1.327 . S
C2403 C2409 1.412 1_565 S
C2404 C2396 1.574 . S
C2404 H2399 0.949 . S
C2404 C2410 1.405 . S
C2405 C2389 1.350 . S
C2405 H2397 0.950 . S
C2405 C2403 1.327 . S
C2406 C2394 1.349 . S
C2406 H2400 0.950 . S
C2406 C2407 1.327 . S
C2407 H2401 0.950 . S
C2407 C2406 1.327 . S
C2407 C2411 1.429 . S
C2408 C2391 1.574 . S
C2408 H2402 0.949 . S
C2408 C2412 1.368 1_565 S
C2409 C2390 1.447 . S
C2409 C2403 1.412 1_545 S
C2409 C2410 1.525 . S
C2410 C2391 1.330 1_545 S
C2410 C2404 1.405 . S
C2410 C2409 1.525 . S
C2411 C2395 1.429 1_545 S
C2411 C2407 1.429 . S
C2411 C2412 1.523 . S
C2412 C2396 1.368 . S
C2412 C2408 1.368 1_545 S
C2412 C2411 1.523 . S
H2413 C2388 0.950 . S
H2414 C2390 0.950 . S
H2415 C2391 0.949 . S
H2416 C2393 0.950 . S
H2417 C2395 0.950 . S
C2418 C2419 1.349 . S
C2418 C2420 1.327 . S
C2418 H2443 0.950 . S
C2419 C2418 1.349 . S
C2419 C2435 1.349 . S
C2420 C2418 1.327 . S
C2420 C2439 1.429 . S
C2420 H2444 0.950 . S
C2421 C2438 1.574 . S
C2421 C2440 1.368 . S
C2421 H2445 0.949 . S
H2422 C2426 0.949 . S
C2423 C2424 1.349 . S
C2423 C2425 1.327 . S
C2423 H2446 0.950 . S
C2424 C2423 1.349 . S
C2424 C2436 1.349 . S
C2425 C2423 1.327 . S
C2425 C2441 1.429 . S
C2425 H2447 0.950 . S
C2426 H2422 0.949 . S
C2426 C2434 1.574 . S
C2426 C2442 1.368 . S
H2427 C2435 0.950 . S
H2428 C2433 0.950 . S
H2429 C2434 0.949 . S
H2430 C2436 0.950 . S
H2431 C2437 0.950 . S
H2432 C2438 0.949 . S
C2433 H2428 0.950 . S
C2433 C2435 1.327 . S
C2433 C2439 1.429 . S
C2434 C2426 1.574 . S
C2434 H2429 0.949 . S
C2434 C2440 1.368 . S
C2435 C2419 1.349 . S
C2435 H2427 0.950 . S
C2435 C2433 1.327 . S
C2436 C2424 1.349 . S
C2436 H2430 0.950 . S
C2436 C2437 1.327 . S
C2437 H2431 0.950 . S
C2437 C2436 1.327 . S
C2437 C2441 1.429 . S
C2438 C2421 1.574 . S
C2438 H2432 0.949 . S
C2438 C2442 1.368 . S
C2439 C2420 1.429 . S
C2439 C2433 1.429 . S
C2439 C2440 1.523 . S
C2440 C2421 1.368 . S
C2440 C2434 1.368 . S
C2440 C2439 1.523 . S
C2441 C2425 1.429 . S
C2441 C2437 1.429 . S
C2441 C2442 1.523 . S
C2442 C2426 1.368 . S
C2442 C2438 1.368 . S
C2442 C2441 1.523 . S
H2443 C2418 0.950 . S
H2444 C2420 0.950 . S
H2445 C2421 0.949 . S
H2446 C2423 0.950 . S
H2447 C2425 0.950 . S
C2448 C2449 1.349 . S
C2448 C2450 1.327 . S
C2448 H2473 0.950 . S
C2449 C2448 1.349 . S
C2449 C2465 1.349 . S
C2450 C2448 1.327 . S
C2450 C2469 1.429 . S
C2450 H2474 0.950 . S
C2451 C2468 1.574 . S
C2451 C2470 1.368 . S
C2451 H2475 0.949 . S
H2452 C2456 0.949 . S
C2453 C2454 1.349 . S
C2453 C2455 1.327 . S
C2453 H2476 0.950 . S
C2454 C2453 1.349 . S
C2454 C2466 1.349 . S
C2455 C2453 1.327 . S
C2455 C2471 1.429 . S
C2455 H2477 0.950 . S
C2456 H2452 0.949 . S
C2456 C2464 1.574 . S
C2456 C2472 1.368 . S
H2457 C2465 0.950 . S
H2458 C2463 0.950 . S
H2459 C2464 0.949 . S
H2460 C2466 0.950 . S
H2461 C2467 0.950 . S
H2462 C2468 0.949 . S
C2463 H2458 0.950 . S
C2463 C2465 1.327 . S
C2463 C2469 1.429 . S
C2464 C2456 1.574 . S
C2464 H2459 0.949 . S
C2464 C2470 1.368 . S
C2465 C2449 1.349 . S
C2465 H2457 0.950 . S
C2465 C2463 1.327 . S
C2466 C2454 1.349 . S
C2466 H2460 0.950 . S
C2466 C2467 1.327 . S
C2467 H2461 0.950 . S
C2467 C2466 1.327 . S
C2467 C2471 1.429 . S
C2468 C2451 1.574 . S
C2468 H2462 0.949 . S
C2468 C2472 1.368 . S
C2469 C2450 1.429 . S
C2469 C2463 1.429 . S
C2469 C2470 1.523 . S
C2470 C2451 1.368 . S
C2470 C2464 1.368 . S
C2470 C2469 1.523 . S
C2471 C2455 1.429 . S
C2471 C2467 1.429 . S
C2471 C2472 1.523 . S
C2472 C2456 1.368 . S
C2472 C2468 1.368 . S
C2472 C2471 1.523 . S
H2473 C2448 0.950 . S
H2474 C2450 0.950 . S
H2475 C2451 0.949 . S
H2476 C2453 0.950 . S
H2477 C2455 0.950 . S
C2478 C2479 1.349 . S
C2478 C2480 1.327 . S
C2478 H2503 0.950 . S
C2479 C2478 1.349 . S
C2479 C2495 1.349 . S
C2480 C2478 1.327 . S
C2480 C2499 1.429 . S
C2480 H2504 0.950 . S
C2481 C2498 1.574 . S
C2481 C2500 1.368 . S
C2481 H2505 0.949 . S
H2482 C2486 0.949 . S
C2483 C2484 1.349 . S
C2483 C2485 1.327 . S
C2483 H2506 0.950 . S
C2484 C2483 1.349 . S
C2484 C2496 1.349 . S
C2485 C2483 1.327 . S
C2485 C2501 1.429 . S
C2485 H2507 0.950 . S
C2486 H2482 0.949 . S
C2486 C2494 1.574 . S
C2486 C2502 1.368 . S
H2487 C2495 0.950 . S
H2488 C2493 0.950 . S
H2489 C2494 0.949 . S
H2490 C2496 0.950 . S
H2491 C2497 0.950 . S
H2492 C2498 0.949 . S
C2493 H2488 0.950 . S
C2493 C2495 1.327 . S
C2493 C2499 1.429 . S
C2494 C2486 1.574 . S
C2494 H2489 0.949 . S
C2494 C2500 1.368 . S
C2495 C2479 1.349 . S
C2495 H2487 0.950 . S
C2495 C2493 1.327 . S
C2496 C2484 1.349 . S
C2496 H2490 0.950 . S
C2496 C2497 1.327 . S
C2497 H2491 0.950 . S
C2497 C2496 1.327 . S
C2497 C2501 1.429 . S
C2498 C2481 1.574 . S
C2498 H2492 0.949 . S
C2498 C2502 1.368 . S
C2499 C2480 1.429 . S
C2499 C2493 1.429 . S
C2499 C2500 1.523 . S
C2500 C2481 1.368 . S
C2500 C2494 1.368 . S
C2500 C2499 1.523 . S
C2501 C2485 1.429 . S
C2501 C2497 1.429 . S
C2501 C2502 1.523 . S
C2502 C2486 1.368 . S
C2502 C2498 1.368 . S
C2502 C2501 1.523 . S
H2503 C2478 0.950 . S
H2504 C2480 0.950 . S
H2505 C2481 0.949 . S
H2506 C2483 0.950 . S
H2507 C2485 0.950 . S
C2508 C2509 1.349 . S
C2508 C2510 1.327 . S
C2508 H2533 0.950 . S
C2509 C2508 1.349 . S
C2509 C2525 1.349 . S
C2510 C2508 1.327 . S
C2510 C2529 1.429 . S
C2510 H2534 0.950 . S
C2511 C2528 1.574 . S
C2511 C2530 1.368 . S
C2511 H2535 0.949 . S
H2512 C2516 0.949 . S
C2513 C2514 1.349 . S
C2513 C2515 1.327 . S
C2513 H2536 0.950 . S
C2514 C2513 1.349 . S
C2514 C2526 1.349 . S
C2515 C2513 1.327 . S
C2515 C2531 1.429 . S
C2515 H2537 0.950 . S
C2516 H2512 0.949 . S
C2516 C2524 1.574 . S
C2516 C2532 1.368 . S
H2517 C2525 0.950 . S
H2518 C2523 0.950 . S
H2519 C2524 0.949 . S
H2520 C2526 0.950 . S
H2521 C2527 0.950 . S
H2522 C2528 0.949 . S
C2523 H2518 0.950 . S
C2523 C2525 1.327 . S
C2523 C2529 1.429 . S
C2524 C2516 1.574 . S
C2524 H2519 0.949 . S
C2524 C2530 1.368 . S
C2525 C2509 1.349 . S
C2525 H2517 0.950 . S
C2525 C2523 1.327 . S
C2526 C2514 1.349 . S
C2526 H2520 0.950 . S
C2526 C2527 1.327 . S
C2527 H2521 0.950 . S
C2527 C2526 1.327 . S
C2527 C2531 1.429 . S
C2528 C2511 1.574 . S
C2528 H2522 0.949 . S
C2528 C2532 1.368 . S
C2529 C2510 1.429 . S
C2529 C2523 1.429 . S
C2529 C2530 1.523 . S
C2530 C2511 1.368 . S
C2530 C2524 1.368 . S
C2530 C2529 1.523 . S
C2531 C2515 1.429 . S
C2531 C2527 1.429 . S
C2531 C2532 1.523 . S
C2532 C2516 1.368 . S
C2532 C2528 1.368 . S
C2532 C2531 1.523 . S
H2533 C2508 0.950 . S
H2534 C2510 0.950 . S
H2535 C2511 0.949 . S
H2536 C2513 0.950 . S
H2537 C2515 0.950 . S
C2538 C2539 1.350 . S
C2538 C2540 1.327 . S
C2538 H2563 0.950 . S
C2539 C2538 1.350 . S
C2539 C2555 1.348 1_556 S
C2540 C2538 1.327 . S
C2540 C2559 1.417 1_556 S
C2540 H2564 0.950 . S
C2541 C2558 1.574 . S
C2541 C2560 1.394 . S
C2541 H2565 0.949 . S
H2542 C2546 0.949 . S
C2543 C2544 1.349 . S
C2543 C2545 1.327 . S
C2543 H2566 0.950 . S
C2544 C2543 1.349 . S
C2544 C2556 1.349 1_554 S
C2545 C2543 1.327 . S
C2545 C2561 1.429 . S
C2545 H2567 0.950 . S
C2546 H2542 0.949 . S
C2546 C2554 1.574 . S
C2546 C2562 1.368 1_556 S
H2547 C2555 0.950 . S
H2548 C2553 0.950 . S
H2549 C2554 0.949 . S
H2550 C2556 0.950 . S
H2551 C2557 0.950 . S
H2552 C2558 0.949 . S
C2553 H2548 0.950 . S
C2553 C2555 1.327 . S
C2553 C2559 1.442 . S
C2554 C2546 1.574 . S
C2554 H2549 0.949 . S
C2554 C2560 1.341 1_556 S
C2555 C2539 1.348 1_554 S
C2555 H2547 0.950 . S
C2555 C2553 1.327 . S
C2556 C2544 1.349 1_556 S
C2556 H2550 0.950 . S
C2556 C2557 1.327 . S
C2557 H2551 0.950 . S
C2557 C2556 1.327 . S
C2557 C2561 1.429 1_556 S
C2558 C2541 1.574 . S
C2558 H2552 0.949 . S
C2558 C2562 1.368 . S
C2559 C2540 1.417 1_554 S
C2559 C2553 1.442 . S
C2559 C2560 1.525 . S
C2560 C2541 1.394 . S
C2560 C2554 1.341 1_554 S
C2560 C2559 1.525 . S
C2561 C2545 1.429 . S
C2561 C2557 1.429 1_554 S
C2561 C2562 1.523 . S
C2562 C2546 1.368 1_554 S
C2562 C2558 1.368 . S
C2562 C2561 1.523 . S
H2563 C2538 0.950 . S
H2564 C2540 0.950 . S
H2565 C2541 0.949 . S
H2566 C2543 0.950 . S
H2567 C2545 0.950 . S
C2568 C2569 1.349 . S
C2568 C2570 1.327 . S
C2568 H2593 0.950 . S
C2569 C2568 1.349 . S
C2569 C2585 1.349 . S
C2570 C2568 1.327 . S
C2570 C2589 1.429 . S
C2570 H2594 0.950 . S
C2571 C2588 1.574 . S
C2571 C2590 1.368 . S
C2571 H2595 0.949 . S
H2572 C2576 0.949 . S
C2573 C2574 1.349 . S
C2573 C2575 1.327 . S
C2573 H2596 0.950 . S
C2574 C2573 1.349 . S
C2574 C2586 1.349 . S
C2575 C2573 1.327 . S
C2575 C2591 1.429 . S
C2575 H2597 0.950 . S
C2576 H2572 0.949 . S
C2576 C2584 1.574 . S
C2576 C2592 1.368 . S
H2577 C2585 0.950 . S
H2578 C2583 0.950 . S
H2579 C2584 0.949 . S
H2580 C2586 0.950 . S
H2581 C2587 0.950 . S
H2582 C2588 0.949 . S
C2583 H2578 0.950 . S
C2583 C2585 1.327 . S
C2583 C2589 1.429 . S
C2584 C2576 1.574 . S
C2584 H2579 0.949 . S
C2584 C2590 1.368 . S
C2585 C2569 1.349 . S
C2585 H2577 0.950 . S
C2585 C2583 1.327 . S
C2586 C2574 1.349 . S
C2586 H2580 0.950 . S
C2586 C2587 1.327 . S
C2587 H2581 0.950 . S
C2587 C2586 1.327 . S
C2587 C2591 1.429 . S
C2588 C2571 1.574 . S
C2588 H2582 0.949 . S
C2588 C2592 1.368 . S
C2589 C2570 1.429 . S
C2589 C2583 1.429 . S
C2589 C2590 1.523 . S
C2590 C2571 1.368 . S
C2590 C2584 1.368 . S
C2590 C2589 1.523 . S
C2591 C2575 1.429 . S
C2591 C2587 1.429 . S
C2591 C2592 1.523 . S
C2592 C2576 1.368 . S
C2592 C2588 1.368 . S
C2592 C2591 1.523 . S
H2593 C2568 0.950 . S
H2594 C2570 0.950 . S
H2595 C2571 0.949 . S
H2596 C2573 0.950 . S
H2597 C2575 0.950 . S
C2598 C2599 1.349 . S
C2598 C2600 1.327 . S
C2598 H2623 0.950 . S
C2599 C2598 1.349 . S
C2599 C2615 1.349 . S
C2600 C2598 1.327 . S
C2600 C2619 1.429 . S
C2600 H2624 0.950 . S
C2601 C2618 1.574 . S
C2601 C2620 1.368 . S
C2601 H2625 0.949 . S
H2602 C2606 0.949 . S
C2603 C2604 1.349 . S
C2603 C2605 1.327 . S
C2603 H2626 0.950 . S
C2604 C2603 1.349 . S
C2604 C2616 1.349 . S
C2605 C2603 1.327 . S
C2605 C2621 1.429 . S
C2605 H2627 0.950 . S
C2606 H2602 0.949 . S
C2606 C2614 1.574 . S
C2606 C2622 1.368 . S
H2607 C2615 0.950 . S
H2608 C2613 0.950 . S
H2609 C2614 0.949 . S
H2610 C2616 0.950 . S
H2611 C2617 0.950 . S
H2612 C2618 0.949 . S
C2613 H2608 0.950 . S
C2613 C2615 1.327 . S
C2613 C2619 1.429 . S
C2614 C2606 1.574 . S
C2614 H2609 0.949 . S
C2614 C2620 1.368 . S
C2615 C2599 1.349 . S
C2615 H2607 0.950 . S
C2615 C2613 1.327 . S
C2616 C2604 1.349 . S
C2616 H2610 0.950 . S
C2616 C2617 1.327 . S
C2617 H2611 0.950 . S
C2617 C2616 1.327 . S
C2617 C2621 1.429 . S
C2618 C2601 1.574 . S
C2618 H2612 0.949 . S
C2618 C2622 1.368 . S
C2619 C2600 1.429 . S
C2619 C2613 1.429 . S
C2619 C2620 1.523 . S
C2620 C2601 1.368 . S
C2620 C2614 1.368 . S
C2620 C2619 1.523 . S
C2621 C2605 1.429 . S
C2621 C2617 1.429 . S
C2621 C2622 1.523 . S
C2622 C2606 1.368 . S
C2622 C2618 1.368 . S
C2622 C2621 1.523 . S
H2623 C2598 0.950 . S
H2624 C2600 0.950 . S
H2625 C2601 0.949 . S
H2626 C2603 0.950 . S
H2627 C2605 0.950 . S
C2628 C2629 1.349 . S
C2628 C2630 1.327 . S
C2628 H2653 0.950 . S
C2629 C2628 1.349 . S
C2629 C2645 1.349 . S
C2630 C2628 1.327 . S
C2630 C2649 1.429 . S
C2630 H2654 0.950 . S
C2631 C2648 1.574 . S
C2631 C2650 1.368 . S
C2631 H2655 0.949 . S
H2632 C2636 0.949 . S
C2633 C2634 1.349 . S
C2633 C2635 1.327 . S
C2633 H2656 0.950 . S
C2634 C2633 1.349 . S
C2634 C2646 1.349 . S
C2635 C2633 1.327 . S
C2635 C2651 1.429 . S
C2635 H2657 0.950 . S
C2636 H2632 0.949 . S
C2636 C2644 1.574 . S
C2636 C2652 1.368 . S
H2637 C2645 0.950 . S
H2638 C2643 0.950 . S
H2639 C2644 0.949 . S
H2640 C2646 0.950 . S
H2641 C2647 0.950 . S
H2642 C2648 0.949 . S
C2643 H2638 0.950 . S
C2643 C2645 1.327 . S
C2643 C2649 1.429 . S
C2644 C2636 1.574 . S
C2644 H2639 0.949 . S
C2644 C2650 1.368 . S
C2645 C2629 1.349 . S
C2645 H2637 0.950 . S
C2645 C2643 1.327 . S
C2646 C2634 1.349 . S
C2646 H2640 0.950 . S
C2646 C2647 1.327 . S
C2647 H2641 0.950 . S
C2647 C2646 1.327 . S
C2647 C2651 1.429 . S
C2648 C2631 1.574 . S
C2648 H2642 0.949 . S
C2648 C2652 1.368 . S
C2649 C2630 1.429 . S
C2649 C2643 1.429 . S
C2649 C2650 1.523 . S
C2650 C2631 1.368 . S
C2650 C2644 1.368 . S
C2650 C2649 1.523 . S
C2651 C2635 1.429 . S
C2651 C2647 1.429 . S
C2651 C2652 1.523 . S
C2652 C2636 1.368 . S
C2652 C2648 1.368 . S
C2652 C2651 1.523 . S
H2653 C2628 0.950 . S
H2654 C2630 0.950 . S
H2655 C2631 0.949 . S
H2656 C2633 0.950 . S
H2657 C2635 0.950 . S
C2658 C2659 1.348 1_455 S
C2658 C2660 1.327 . S
C2658 H2683 0.950 . S
C2659 C2658 1.348 1_655 S
C2659 C2675 1.350 . S
C2660 C2658 1.327 . S
C2660 C2679 1.440 . S
C2660 H2684 0.950 . S
C2661 C2678 1.574 . S
C2661 C2680 1.344 1_655 S
C2661 H2685 0.949 . S
H2662 C2666 0.949 . S
C2663 C2664 1.349 1_655 S
C2663 C2665 1.327 . S
C2663 H2686 0.950 . S
C2664 C2663 1.349 1_455 S
C2664 C2676 1.349 . S
C2665 C2663 1.327 . S
C2665 C2681 1.429 1_655 S
C2665 H2687 0.950 . S
C2666 H2662 0.949 . S
C2666 C2674 1.574 . S
C2666 C2682 1.368 . S
H2667 C2675 0.950 . S
H2668 C2673 0.950 . S
H2669 C2674 0.949 . S
H2670 C2676 0.950 . S
H2671 C2677 0.950 . S
H2672 C2678 0.949 . S
C2673 H2668 0.950 . S
C2673 C2675 1.327 . S
C2673 C2679 1.419 1_655 S
C2674 C2666 1.574 . S
C2674 H2669 0.949 . S
C2674 C2680 1.391 . S
C2675 C2659 1.350 . S
C2675 H2667 0.950 . S
C2675 C2673 1.327 . S
C2676 C2664 1.349 . S
C2676 H2670 0.950 . S
C2676 C2677 1.327 . S
C2677 H2671 0.950 . S
C2677 C2676 1.327 . S
C2677 C2681 1.429 . S
C2678 C2661 1.574 . S
C2678 H2672 0.949 . S
C2678 C2682 1.368 1_655 S
C2679 C2660 1.440 . S
C2679 C2673 1.419 1_455 S
C2679 C2680 1.525 . S
C2680 C2661 1.344 1_455 S
C2680 C2674 1.391 . S
C2680 C2679 1.525 . S
C2681 C2665 1.429 1_455 S
C2681 C2677 1.429 . S
C2681 C2682 1.523 . S
C2682 C2666 1.368 . S
C2682 C2678 1.368 1_455 S
C2682 C2681 1.523 . S
H2683 C2658 0.950 . S
H2684 C2660 0.950 . S
H2685 C2661 0.949 . S
H2686 C2663 0.950 . S
H2687 C2665 0.950 . S
C2688 C2689 1.349 . S
C2688 C2690 1.327 . S
C2688 H2713 0.950 . S
C2689 C2688 1.349 . S
C2689 C2705 1.349 . S
C2690 C2688 1.327 . S
C2690 C2709 1.429 . S
C2690 H2714 0.950 . S
C2691 C2708 1.574 . S
C2691 C2710 1.368 . S
C2691 H2715 0.949 . S
H2692 C2696 0.949 . S
C2693 C2694 1.349 . S
C2693 C2695 1.327 . S
C2693 H2716 0.950 . S
C2694 C2693 1.349 . S
C2694 C2706 1.349 . S
C2695 C2693 1.327 . S
C2695 C2711 1.429 . S
C2695 H2717 0.950 . S
C2696 H2692 0.949 . S
C2696 C2704 1.574 . S
C2696 C2712 1.368 . S
H2697 C2705 0.950 . S
H2698 C2703 0.950 . S
H2699 C2704 0.949 . S
H2700 C2706 0.950 . S
H2701 C2707 0.950 . S
H2702 C2708 0.949 . S
C2703 H2698 0.950 . S
C2703 C2705 1.327 . S
C2703 C2709 1.429 . S
C2704 C2696 1.574 . S
C2704 H2699 0.949 . S
C2704 C2710 1.368 . S
C2705 C2689 1.349 . S
C2705 H2697 0.950 . S
C2705 C2703 1.327 . S
C2706 C2694 1.349 . S
C2706 H2700 0.950 . S
C2706 C2707 1.327 . S
C2707 H2701 0.950 . S
C2707 C2706 1.327 . S
C2707 C2711 1.429 . S
C2708 C2691 1.574 . S
C2708 H2702 0.949 . S
C2708 C2712 1.368 . S
C2709 C2690 1.429 . S
C2709 C2703 1.429 . S
C2709 C2710 1.523 . S
C2710 C2691 1.368 . S
C2710 C2704 1.368 . S
C2710 C2709 1.523 . S
C2711 C2695 1.429 . S
C2711 C2707 1.429 . S
C2711 C2712 1.523 . S
C2712 C2696 1.368 . S
C2712 C2708 1.368 . S
C2712 C2711 1.523 . S
H2713 C2688 0.950 . S
H2714 C2690 0.950 . S
H2715 C2691 0.949 . S
H2716 C2693 0.950 . S
H2717 C2695 0.950 . S
C2718 C2719 1.349 . S
C2718 C2720 1.327 . S
C2718 H2743 0.950 . S
C2719 C2718 1.349 . S
C2719 C2735 1.349 . S
C2720 C2718 1.327 . S
C2720 C2739 1.429 . S
C2720 H2744 0.950 . S
C2721 C2738 1.574 . S
C2721 C2740 1.368 . S
C2721 H2745 0.949 . S
H2722 C2726 0.949 . S
C2723 C2724 1.349 . S
C2723 C2725 1.327 . S
C2723 H2746 0.950 . S
C2724 C2723 1.349 . S
C2724 C2736 1.349 . S
C2725 C2723 1.327 . S
C2725 C2741 1.429 . S
C2725 H2747 0.950 . S
C2726 H2722 0.949 . S
C2726 C2734 1.574 . S
C2726 C2742 1.368 . S
H2727 C2735 0.950 . S
H2728 C2733 0.950 . S
H2729 C2734 0.949 . S
H2730 C2736 0.950 . S
H2731 C2737 0.950 . S
H2732 C2738 0.949 . S
C2733 H2728 0.950 . S
C2733 C2735 1.327 . S
C2733 C2739 1.429 . S
C2734 C2726 1.574 . S
C2734 H2729 0.949 . S
C2734 C2740 1.368 . S
C2735 C2719 1.349 . S
C2735 H2727 0.950 . S
C2735 C2733 1.327 . S
C2736 C2724 1.349 . S
C2736 H2730 0.950 . S
C2736 C2737 1.327 . S
C2737 H2731 0.950 . S
C2737 C2736 1.327 . S
C2737 C2741 1.429 . S
C2738 C2721 1.574 . S
C2738 H2732 0.949 . S
C2738 C2742 1.368 . S
C2739 C2720 1.429 . S
C2739 C2733 1.429 . S
C2739 C2740 1.523 . S
C2740 C2721 1.368 . S
C2740 C2734 1.368 . S
C2740 C2739 1.523 . S
C2741 C2725 1.429 . S
C2741 C2737 1.429 . S
C2741 C2742 1.523 . S
C2742 C2726 1.368 . S
C2742 C2738 1.368 . S
C2742 C2741 1.523 . S
H2743 C2718 0.950 . S
H2744 C2720 0.950 . S
H2745 C2721 0.949 . S
H2746 C2723 0.950 . S
H2747 C2725 0.950 . S
C2748 C2749 1.326 1_545 S
C2748 C2750 1.327 . S
C2748 H2773 0.950 . S
C2749 C2748 1.326 1_565 S
C2749 C2765 1.386 . S
C2750 C2748 1.327 . S
C2750 C2769 1.429 1_545 S
C2750 H2774 0.950 . S
C2751 C2768 1.574 . S
C2751 C2770 1.368 . S
C2751 H2775 0.949 . S
H2752 C2756 0.949 . S
C2753 C2754 1.349 . S
C2753 C2755 1.327 . S
C2753 H2776 0.950 . S
C2754 C2753 1.349 . S
C2754 C2766 1.349 . S
C2755 C2753 1.327 . S
C2755 C2771 1.429 . S
C2755 H2777 0.950 . S
C2756 H2752 0.949 . S
C2756 C2764 1.574 . S
C2756 C2772 1.368 1_545 S
H2757 C2765 0.950 . S
H2758 C2763 0.950 . S
H2759 C2764 0.949 . S
H2760 C2766 0.950 1_545 S
H2761 C2767 0.950 1_545 S
H2762 C2768 0.949 . S
C2763 H2758 0.950 . S
C2763 C2765 1.327 . S
C2763 C2769 1.429 . S
C2764 C2756 1.574 . S
C2764 H2759 0.949 . S
C2764 C2770 1.368 1_545 S
C2765 C2749 1.386 . S
C2765 H2757 0.950 . S
C2765 C2763 1.327 . S
C2766 C2754 1.349 . S
C2766 H2760 0.950 1_565 S
C2766 C2767 1.327 . S
C2767 H2761 0.950 1_565 S
C2767 C2766 1.327 . S
C2767 C2771 1.429 . S
C2768 C2751 1.574 . S
C2768 H2762 0.949 . S
C2768 C2772 1.368 . S
C2769 C2750 1.429 1_565 S
C2769 C2763 1.429 . S
C2769 C2770 1.523 . S
C2770 C2751 1.368 . S
C2770 C2764 1.368 1_565 S
C2770 C2769 1.523 . S
C2771 C2755 1.429 . S
C2771 C2767 1.429 . S
C2771 C2772 1.523 . S
C2772 C2756 1.368 1_565 S
C2772 C2768 1.368 . S
C2772 C2771 1.523 . S
H2773 C2748 0.950 . S
H2774 C2750 0.950 . S
H2775 C2751 0.949 . S
H2776 C2753 0.950 . S
H2777 C2755 0.950 . S
C2778 C2779 1.349 . S
C2778 C2780 1.327 . S
C2778 H2803 0.950 . S
C2779 C2778 1.349 . S
C2779 C2795 1.393 . S
C2780 C2778 1.327 . S
C2780 C2799 1.429 . S
C2780 H2804 0.950 . S
C2781 C2798 1.574 . S
C2781 C2800 1.368 1_565 S
C2781 H2805 0.949 . S
H2782 C2786 0.949 . S
C2783 C2784 1.349 1_565 S
C2783 C2785 1.327 . S
C2783 H2806 0.950 . S
C2784 C2783 1.349 1_545 S
C2784 C2796 1.349 . S
C2785 C2783 1.327 . S
C2785 C2801 1.429 1_565 S
C2785 H2807 0.950 . S
C2786 H2782 0.949 . S
C2786 C2794 1.574 . S
C2786 C2802 1.368 . S
H2787 C2795 0.905 1_565 S
H2788 C2793 0.948 . S
H2789 C2794 0.949 . S
H2790 C2796 0.950 . S
H2791 C2797 0.950 . S
H2792 C2798 0.949 . S
C2793 H2788 0.948 . S
C2793 C2795 1.329 1_565 S
C2793 C2799 1.430 1_565 S
C2794 C2786 1.574 . S
C2794 H2789 0.949 . S
C2794 C2800 1.368 . S
C2795 C2779 1.393 . S
C2795 H2787 0.905 1_545 S
C2795 C2793 1.329 1_545 S
C2796 C2784 1.349 . S
C2796 H2790 0.950 . S
C2796 C2797 1.327 . S
C2797 H2791 0.950 . S
C2797 C2796 1.327 . S
C2797 C2801 1.429 . S
C2798 C2781 1.574 . S
C2798 H2792 0.949 . S
C2798 C2802 1.368 1_565 S
C2799 C2780 1.429 . S
C2799 C2793 1.430 1_545 S
C2799 C2800 1.523 . S
C2800 C2781 1.368 1_545 S
C2800 C2794 1.368 . S
C2800 C2799 1.523 . S
C2801 C2785 1.429 1_545 S
C2801 C2797 1.429 . S
C2801 C2802 1.523 . S
C2802 C2786 1.368 . S
C2802 C2798 1.368 1_545 S
C2802 C2801 1.523 . S
H2803 C2778 0.950 . S
H2804 C2780 0.950 . S
H2805 C2781 0.949 . S
H2806 C2783 0.950 . S
H2807 C2785 0.950 . S
C2808 C2809 1.349 . S
C2808 C2810 1.327 . S
C2808 H2833 0.950 . S
C2809 C2808 1.349 . S
C2809 C2825 1.349 . S
C2810 C2808 1.327 . S
C2810 C2829 1.429 . S
C2810 H2834 0.950 . S
C2811 C2828 1.574 . S
C2811 C2830 1.368 . S
C2811 H2835 0.949 . S
H2812 C2816 0.949 . S
C2813 C2814 1.349 . S
C2813 C2815 1.327 . S
C2813 H2836 0.950 . S
C2814 C2813 1.349 . S
C2814 C2826 1.349 . S
C2815 C2813 1.327 . S
C2815 C2831 1.429 . S
C2815 H2837 0.950 . S
C2816 H2812 0.949 . S
C2816 C2824 1.574 . S
C2816 C2832 1.368 . S
H2817 C2825 0.950 . S
H2818 C2823 0.950 . S
H2819 C2824 0.949 . S
H2820 C2826 0.950 . S
H2821 C2827 0.950 . S
H2822 C2828 0.949 . S
C2823 H2818 0.950 . S
C2823 C2825 1.327 . S
C2823 C2829 1.429 . S
C2824 C2816 1.574 . S
C2824 H2819 0.949 . S
C2824 C2830 1.368 . S
C2825 C2809 1.349 . S
C2825 H2817 0.950 . S
C2825 C2823 1.327 . S
C2826 C2814 1.349 . S
C2826 H2820 0.950 . S
C2826 C2827 1.327 . S
C2827 H2821 0.950 . S
C2827 C2826 1.327 . S
C2827 C2831 1.429 . S
C2828 C2811 1.574 . S
C2828 H2822 0.949 . S
C2828 C2832 1.368 . S
C2829 C2810 1.429 . S
C2829 C2823 1.429 . S
C2829 C2830 1.523 . S
C2830 C2811 1.368 . S
C2830 C2824 1.368 . S
C2830 C2829 1.523 . S
C2831 C2815 1.429 . S
C2831 C2827 1.429 . S
C2831 C2832 1.523 . S
C2832 C2816 1.368 . S
C2832 C2828 1.368 . S
C2832 C2831 1.523 . S
H2833 C2808 0.950 . S
H2834 C2810 0.950 . S
H2835 C2811 0.949 . S
H2836 C2813 0.950 . S
H2837 C2815 0.950 . S
C2838 C2839 1.393 . S
C2838 C2840 1.329 1_554 S
C2838 H2863 0.906 1_554 S
C2839 C2838 1.393 . S
C2839 C2855 1.349 . S
C2840 C2838 1.329 1_556 S
C2840 C2859 1.430 1_556 S
C2840 H2864 0.948 . S
C2841 C2858 1.574 . S
C2841 C2860 1.368 . S
C2841 H2865 0.949 . S
H2842 C2846 0.949 . S
C2843 C2844 1.349 . S
C2843 C2845 1.327 . S
C2843 H2866 0.950 . S
C2844 C2843 1.349 . S
C2844 C2856 1.349 1_554 S
C2845 C2843 1.327 . S
C2845 C2861 1.429 . S
C2845 H2867 0.950 . S
C2846 H2842 0.949 . S
C2846 C2854 1.574 . S
C2846 C2862 1.368 1_556 S
H2847 C2855 0.950 . S
H2848 C2853 0.950 . S
H2849 C2854 0.949 . S
H2850 C2856 0.950 . S
H2851 C2857 0.950 . S
H2852 C2858 0.949 . S
C2853 H2848 0.950 . S
C2853 C2855 1.327 . S
C2853 C2859 1.429 . S
C2854 C2846 1.574 . S
C2854 H2849 0.949 . S
C2854 C2860 1.368 1_556 S
C2855 C2839 1.349 . S
C2855 H2847 0.950 . S
C2855 C2853 1.327 . S
C2856 C2844 1.349 1_556 S
C2856 H2850 0.950 . S
C2856 C2857 1.327 . S
C2857 H2851 0.950 . S
C2857 C2856 1.327 . S
C2857 C2861 1.429 1_556 S
C2858 C2841 1.574 . S
C2858 H2852 0.949 . S
C2858 C2862 1.368 . S
C2859 C2840 1.430 1_554 S
C2859 C2853 1.429 . S
C2859 C2860 1.523 . S
C2860 C2841 1.368 . S
C2860 C2854 1.368 1_554 S
C2860 C2859 1.523 . S
C2861 C2845 1.429 . S
C2861 C2857 1.429 1_554 S
C2861 C2862 1.523 . S
C2862 C2846 1.368 1_554 S
C2862 C2858 1.368 . S
C2862 C2861 1.523 . S
H2863 C2838 0.906 1_556 S
H2864 C2840 0.948 . S
H2865 C2841 0.949 . S
H2866 C2843 0.950 . S
H2867 C2845 0.950 . S
C2868 C2869 1.349 . S
C2868 C2870 1.327 . S
C2868 H2893 0.950 . S
C2869 C2868 1.349 . S
C2869 C2885 1.349 . S
C2870 C2868 1.327 . S
C2870 C2889 1.429 . S
C2870 H2894 0.950 . S
C2871 C2888 1.574 . S
C2871 C2890 1.368 . S
C2871 H2895 0.949 . S
H2872 C2876 0.949 . S
C2873 C2874 1.349 . S
C2873 C2875 1.327 . S
C2873 H2896 0.950 . S
C2874 C2873 1.349 . S
C2874 C2886 1.349 . S
C2875 C2873 1.327 . S
C2875 C2891 1.429 . S
C2875 H2897 0.950 . S
C2876 H2872 0.949 . S
C2876 C2884 1.574 . S
C2876 C2892 1.368 . S
H2877 C2885 0.950 . S
H2878 C2883 0.950 . S
H2879 C2884 0.949 . S
H2880 C2886 0.950 . S
H2881 C2887 0.950 . S
H2882 C2888 0.949 . S
C2883 H2878 0.950 . S
C2883 C2885 1.327 . S
C2883 C2889 1.429 . S
C2884 C2876 1.574 . S
C2884 H2879 0.949 . S
C2884 C2890 1.368 . S
C2885 C2869 1.349 . S
C2885 H2877 0.950 . S
C2885 C2883 1.327 . S
C2886 C2874 1.349 . S
C2886 H2880 0.950 . S
C2886 C2887 1.327 . S
C2887 H2881 0.950 . S
C2887 C2886 1.327 . S
C2887 C2891 1.429 . S
C2888 C2871 1.574 . S
C2888 H2882 0.949 . S
C2888 C2892 1.368 . S
C2889 C2870 1.429 . S
C2889 C2883 1.429 . S
C2889 C2890 1.523 . S
C2890 C2871 1.368 . S
C2890 C2884 1.368 . S
C2890 C2889 1.523 . S
C2891 C2875 1.429 . S
C2891 C2887 1.429 . S
C2891 C2892 1.523 . S
C2892 C2876 1.368 . S
C2892 C2888 1.368 . S
C2892 C2891 1.523 . S
H2893 C2868 0.950 . S
H2894 C2870 0.950 . S
H2895 C2871 0.949 . S
H2896 C2873 0.950 . S
H2897 C2875 0.950 . S
C2898 C2899 1.321 1_554 S
C2898 C2900 1.327 . S
C2898 H2923 0.950 . S
C2899 C2898 1.321 1_556 S
C2899 C2915 1.391 . S
C2900 C2898 1.327 . S
C2900 C2919 1.429 1_554 S
C2900 H2924 0.950 . S
C2901 C2918 1.574 . S
C2901 C2920 1.368 . S
C2901 H2925 0.949 . S
H2902 C2906 0.949 . S
C2903 C2904 1.349 . S
C2903 C2905 1.327 . S
C2903 H2926 0.950 . S
C2904 C2903 1.349 . S
C2904 C2916 1.349 . S
C2905 C2903 1.327 . S
C2905 C2921 1.429 . S
C2905 H2927 0.950 . S
C2906 H2902 0.949 . S
C2906 C2914 1.574 . S
C2906 C2922 1.368 1_554 S
H2907 C2915 0.950 . S
H2908 C2913 0.950 . S
H2909 C2914 0.949 . S
H2910 C2916 0.950 1_554 S
H2911 C2917 0.944 . S
H2912 C2918 0.949 . S
C2913 H2908 0.950 . S
C2913 C2915 1.327 . S
C2913 C2919 1.429 . S
C2914 C2906 1.574 . S
C2914 H2909 0.949 . S
C2914 C2920 1.368 1_554 S
C2915 C2899 1.391 . S
C2915 H2907 0.950 . S
C2915 C2913 1.327 . S
C2916 C2904 1.349 . S
C2916 H2910 0.950 1_556 S
C2916 C2917 1.329 1_556 S
C2917 H2911 0.944 . S
C2917 C2916 1.329 1_554 S
C2917 C2921 1.432 1_554 S
C2918 C2901 1.574 . S
C2918 H2912 0.949 . S
C2918 C2922 1.368 . S
C2919 C2900 1.429 1_556 S
C2919 C2913 1.429 . S
C2919 C2920 1.523 . S
C2920 C2901 1.368 . S
C2920 C2914 1.368 1_556 S
C2920 C2919 1.523 . S
C2921 C2905 1.429 . S
C2921 C2917 1.432 1_556 S
C2921 C2922 1.523 . S
C2922 C2906 1.368 1_556 S
C2922 C2918 1.368 . S
C2922 C2921 1.523 . S
H2923 C2898 0.950 . S
H2924 C2900 0.950 . S
H2925 C2901 0.949 . S
H2926 C2903 0.950 . S
H2927 C2905 0.950 . S
C2928 C2929 1.349 . S
C2928 C2930 1.327 . S
C2928 H2953 0.950 . S
C2929 C2928 1.349 . S
C2929 C2945 1.349 . S
C2930 C2928 1.327 . S
C2930 C2949 1.429 . S
C2930 H2954 0.950 . S
C2931 C2948 1.574 . S
C2931 C2950 1.368 . S
C2931 H2955 0.949 . S
H2932 C2936 0.949 . S
C2933 C2934 1.349 . S
C2933 C2935 1.327 . S
C2933 H2956 0.950 . S
C2934 C2933 1.349 . S
C2934 C2946 1.349 . S
C2935 C2933 1.327 . S
C2935 C2951 1.429 . S
C2935 H2957 0.950 . S
C2936 H2932 0.949 . S
C2936 C2944 1.574 . S
C2936 C2952 1.368 . S
H2937 C2945 0.950 . S
H2938 C2943 0.950 . S
H2939 C2944 0.949 . S
H2940 C2946 0.950 . S
H2941 C2947 0.950 . S
H2942 C2948 0.949 . S
C2943 H2938 0.950 . S
C2943 C2945 1.327 . S
C2943 C2949 1.429 . S
C2944 C2936 1.574 . S
C2944 H2939 0.949 . S
C2944 C2950 1.368 . S
C2945 C2929 1.349 . S
C2945 H2937 0.950 . S
C2945 C2943 1.327 . S
C2946 C2934 1.349 . S
C2946 H2940 0.950 . S
C2946 C2947 1.327 . S
C2947 H2941 0.950 . S
C2947 C2946 1.327 . S
C2947 C2951 1.429 . S
C2948 C2931 1.574 . S
C2948 H2942 0.949 . S
C2948 C2952 1.368 . S
C2949 C2930 1.429 . S
C2949 C2943 1.429 . S
C2949 C2950 1.523 . S
C2950 C2931 1.368 . S
C2950 C2944 1.368 . S
C2950 C2949 1.523 . S
C2951 C2935 1.429 . S
C2951 C2947 1.429 . S
C2951 C2952 1.523 . S
C2952 C2936 1.368 . S
C2952 C2948 1.368 . S
C2952 C2951 1.523 . S
H2953 C2928 0.950 . S
H2954 C2930 0.950 . S
H2955 C2931 0.949 . S
H2956 C2933 0.950 . S
H2957 C2935 0.950 . S
C2958 C2959 1.349 . S
C2958 C2960 1.327 . S
C2958 H2983 0.950 1_455 S
C2959 C2958 1.349 . S
C2959 C2975 1.349 . S
C2960 C2958 1.327 . S
C2960 C2979 1.429 . S
C2960 H2984 0.950 1_455 S
C2961 C2978 1.574 . S
C2961 C2980 1.368 . S
C2961 H2985 0.949 . S
H2962 C2966 0.949 . S
C2963 C2964 1.349 . S
C2963 C2965 1.327 . S
C2963 H2986 0.950 . S
C2964 C2963 1.349 . S
C2964 C2976 1.349 1_455 S
C2965 C2963 1.327 . S
C2965 C2981 1.429 . S
C2965 H2987 0.950 . S
C2966 H2962 0.949 . S
C2966 C2974 1.573 . S
C2966 C2982 1.368 1_655 S
H2967 C2975 0.950 . S
H2968 C2973 0.950 . S
H2969 C2974 0.971 . S
H2970 C2976 0.950 . S
H2971 C2977 0.950 . S
H2972 C2978 0.949 . S
C2973 H2968 0.950 . S
C2973 C2975 1.327 . S
C2973 C2979 1.429 . S
C2974 C2966 1.573 . S
C2974 H2969 0.971 . S
C2974 C2980 1.347 1_655 S
C2975 C2959 1.349 . S
C2975 H2967 0.950 . S
C2975 C2973 1.327 . S
C2976 C2964 1.349 1_655 S
C2976 H2970 0.950 . S
C2976 C2977 1.327 . S
C2977 H2971 0.950 . S
C2977 C2976 1.327 . S
C2977 C2981 1.429 1_655 S
C2978 C2961 1.574 . S
C2978 H2972 0.949 . S
C2978 C2982 1.368 . S
C2979 C2960 1.429 . S
C2979 C2973 1.429 . S
C2979 C2980 1.523 . S
C2980 C2961 1.368 . S
C2980 C2974 1.347 1_455 S
C2980 C2979 1.523 . S
C2981 C2965 1.429 . S
C2981 C2977 1.429 1_455 S
C2981 C2982 1.523 . S
C2982 C2966 1.368 1_455 S
C2982 C2978 1.368 . S
C2982 C2981 1.523 . S
H2983 C2958 0.950 1_655 S
H2984 C2960 0.950 1_655 S
H2985 C2961 0.949 . S
H2986 C2963 0.950 . S
H2987 C2965 0.950 . S
C2988 C2989 1.349 . S
C2988 C2990 1.327 . S
C2988 H3013 0.950 . S
C2989 C2988 1.349 . S
C2989 C3005 1.349 . S
C2990 C2988 1.327 . S
C2990 C3009 1.429 . S
C2990 H3014 0.950 . S
C2991 C3008 1.574 . S
C2991 C3010 1.368 . S
C2991 H3015 0.949 . S
H2992 C2996 0.949 . S
C2993 C2994 1.349 . S
C2993 C2995 1.327 . S
C2993 H3016 0.950 . S
C2994 C2993 1.349 . S
C2994 C3006 1.349 . S
C2995 C2993 1.327 . S
C2995 C3011 1.429 . S
C2995 H3017 0.950 . S
C2996 H2992 0.949 . S
C2996 C3004 1.574 . S
C2996 C3012 1.368 . S
H2997 C3005 0.950 . S
H2998 C3003 0.950 . S
H2999 C3004 0.949 . S
H3000 C3006 0.950 . S
H3001 C3007 0.950 . S
H3002 C3008 0.949 . S
C3003 H2998 0.950 . S
C3003 C3005 1.327 . S
C3003 C3009 1.429 . S
C3004 C2996 1.574 . S
C3004 H2999 0.949 . S
C3004 C3010 1.368 . S
C3005 C2989 1.349 . S
C3005 H2997 0.950 . S
C3005 C3003 1.327 . S
C3006 C2994 1.349 . S
C3006 H3000 0.950 . S
C3006 C3007 1.327 . S
C3007 H3001 0.950 . S
C3007 C3006 1.327 . S
C3007 C3011 1.429 . S
C3008 C2991 1.574 . S
C3008 H3002 0.949 . S
C3008 C3012 1.368 . S
C3009 C2990 1.429 . S
C3009 C3003 1.429 . S
C3009 C3010 1.523 . S
C3010 C2991 1.368 . S
C3010 C3004 1.368 . S
C3010 C3009 1.523 . S
C3011 C2995 1.429 . S
C3011 C3007 1.429 . S
C3011 C3012 1.523 . S
C3012 C2996 1.368 . S
C3012 C3008 1.368 . S
C3012 C3011 1.523 . S
H3013 C2988 0.950 . S
H3014 C2990 0.950 . S
H3015 C2991 0.949 . S
H3016 C2993 0.950 . S
H3017 C2995 0.950 . S
C3018 C3019 1.331 1_455 S
C3018 C3020 1.327 . S
C3018 H3043 0.950 . S
C3019 C3018 1.331 1_655 S
C3019 C3035 1.382 . S
C3020 C3018 1.327 . S
C3020 C3039 1.429 1_455 S
C3020 H3044 0.950 . S
C3021 C3038 1.574 . S
C3021 C3040 1.368 . S
C3021 H3045 0.949 . S
H3022 C3026 0.942 1_455 S
C3023 C3024 1.349 . S
C3023 C3025 1.327 . S
C3023 H3046 0.950 . S
C3024 C3023 1.349 . S
C3024 C3036 1.349 . S
C3025 C3023 1.327 . S
C3025 C3041 1.429 . S
C3025 H3047 0.950 . S
C3026 H3022 0.942 1_655 S
C3026 C3034 1.569 1_655 S
C3026 C3042 1.382 . S
H3027 C3035 0.950 . S
H3028 C3033 0.950 . S
H3029 C3034 0.949 . S
H3030 C3036 0.950 . S
H3031 C3037 0.950 1_455 S
H3032 C3038 0.949 . S
C3033 H3028 0.950 . S
C3033 C3035 1.327 . S
C3033 C3039 1.429 . S
C3034 C3026 1.569 1_455 S
C3034 H3029 0.949 . S
C3034 C3040 1.368 1_455 S
C3035 C3019 1.382 . S
C3035 H3027 0.950 . S
C3035 C3033 1.327 . S
C3036 C3024 1.349 . S
C3036 H3030 0.950 . S
C3036 C3037 1.327 . S
C3037 H3031 0.950 1_655 S
C3037 C3036 1.327 . S
C3037 C3041 1.429 . S
C3038 C3021 1.574 . S
C3038 H3032 0.949 . S
C3038 C3042 1.368 . S
C3039 C3020 1.429 1_655 S
C3039 C3033 1.429 . S
C3039 C3040 1.523 . S
C3040 C3021 1.368 . S
C3040 C3034 1.368 1_655 S
C3040 C3039 1.523 . S
C3041 C3025 1.429 . S
C3041 C3037 1.429 . S
C3041 C3042 1.523 . S
C3042 C3026 1.382 . S
C3042 C3038 1.368 . S
C3042 C3041 1.523 . S
H3043 C3018 0.950 . S
H3044 C3020 0.950 . S
H3045 C3021 0.949 . S
H3046 C3023 0.950 . S
H3047 C3025 0.950 . S
C3048 C3049 1.349 . S
C3048 C3050 1.327 . S
C3048 H3073 0.950 . S
C3049 C3048 1.349 . S
C3049 C3065 1.349 . S
C3050 C3048 1.327 . S
C3050 C3069 1.429 . S
C3050 H3074 0.950 . S
C3051 C3068 1.574 . S
C3051 C3070 1.368 . S
C3051 H3075 0.949 . S
H3052 C3056 0.949 . S
C3053 C3054 1.349 . S
C3053 C3055 1.327 . S
C3053 H3076 0.950 . S
C3054 C3053 1.349 . S
C3054 C3066 1.349 . S
C3055 C3053 1.327 . S
C3055 C3071 1.429 . S
C3055 H3077 0.950 . S
C3056 H3052 0.949 . S
C3056 C3064 1.574 . S
C3056 C3072 1.368 . S
H3057 C3065 0.950 . S
H3058 C3063 0.950 . S
H3059 C3064 0.949 . S
H3060 C3066 0.950 . S
H3061 C3067 0.950 . S
H3062 C3068 0.949 . S
C3063 H3058 0.950 . S
C3063 C3065 1.327 . S
C3063 C3069 1.429 . S
C3064 C3056 1.574 . S
C3064 H3059 0.949 . S
C3064 C3070 1.368 . S
C3065 C3049 1.349 . S
C3065 H3057 0.950 . S
C3065 C3063 1.327 . S
C3066 C3054 1.349 . S
C3066 H3060 0.950 . S
C3066 C3067 1.327 . S
C3067 H3061 0.950 . S
C3067 C3066 1.327 . S
C3067 C3071 1.429 . S
C3068 C3051 1.574 . S
C3068 H3062 0.949 . S
C3068 C3072 1.368 . S
C3069 C3050 1.429 . S
C3069 C3063 1.429 . S
C3069 C3070 1.523 . S
C3070 C3051 1.368 . S
C3070 C3064 1.368 . S
C3070 C3069 1.523 . S
C3071 C3055 1.429 . S
C3071 C3067 1.429 . S
C3071 C3072 1.523 . S
C3072 C3056 1.368 . S
C3072 C3068 1.368 . S
C3072 C3071 1.523 . S
H3073 C3048 0.950 . S
H3074 C3050 0.950 . S
H3075 C3051 0.949 . S
H3076 C3053 0.950 . S
H3077 C3055 0.950 . S
C3078 C3079 1.349 . S
C3078 C3080 1.327 . S
C3078 H3103 0.950 . S
C3079 C3078 1.349 . S
C3079 C3095 1.349 . S
C3080 C3078 1.327 . S
C3080 C3099 1.429 . S
C3080 H3104 0.950 . S
C3081 C3098 1.574 . S
C3081 C3100 1.368 . S
C3081 H3105 0.949 . S
H3082 C3086 0.949 . S
C3083 C3084 1.349 . S
C3083 C3085 1.327 . S
C3083 H3106 0.950 . S
C3084 C3083 1.349 . S
C3084 C3096 1.349 . S
C3085 C3083 1.327 . S
C3085 C3101 1.429 . S
C3085 H3107 0.950 . S
C3086 H3082 0.949 . S
C3086 C3094 1.574 . S
C3086 C3102 1.368 . S
H3087 C3095 0.950 . S
H3088 C3093 0.950 . S
H3089 C3094 0.949 . S
H3090 C3096 0.950 . S
H3091 C3097 0.950 . S
H3092 C3098 0.949 . S
C3093 H3088 0.950 . S
C3093 C3095 1.327 . S
C3093 C3099 1.429 . S
C3094 C3086 1.574 . S
C3094 H3089 0.949 . S
C3094 C3100 1.368 . S
C3095 C3079 1.349 . S
C3095 H3087 0.950 . S
C3095 C3093 1.327 . S
C3096 C3084 1.349 . S
C3096 H3090 0.950 . S
C3096 C3097 1.327 . S
C3097 H3091 0.950 . S
C3097 C3096 1.327 . S
C3097 C3101 1.429 . S
C3098 C3081 1.574 . S
C3098 H3092 0.949 . S
C3098 C3102 1.368 . S
C3099 C3080 1.429 . S
C3099 C3093 1.429 . S
C3099 C3100 1.523 . S
C3100 C3081 1.368 . S
C3100 C3094 1.368 . S
C3100 C3099 1.523 . S
C3101 C3085 1.429 . S
C3101 C3097 1.429 . S
C3101 C3102 1.523 . S
C3102 C3086 1.368 . S
C3102 C3098 1.368 . S
C3102 C3101 1.523 . S
H3103 C3078 0.950 . S
H3104 C3080 0.950 . S
H3105 C3081 0.949 . S
H3106 C3083 0.950 . S
H3107 C3085 0.950 . S
C3108 C3109 1.367 . S
C3108 C3110 1.327 . S
C3108 H3133 0.950 . S
C3109 C3108 1.367 . S
C3109 C3125 1.346 1_545 S
C3110 C3108 1.327 . S
C3110 C3129 1.429 . S
C3110 H3134 0.950 . S
C3111 C3128 1.574 . S
C3111 C3130 1.368 . S
C3111 H3135 0.949 . S
H3112 C3116 0.949 . S
C3113 C3114 1.349 . S
C3113 C3115 1.327 . S
C3113 H3136 0.950 . S
C3114 C3113 1.349 . S
C3114 C3126 1.349 . S
C3115 C3113 1.327 . S
C3115 C3131 1.429 . S
C3115 H3137 0.950 . S
C3116 H3112 0.949 . S
C3116 C3124 1.574 . S
C3116 C3132 1.368 . S
H3117 C3125 0.950 . S
H3118 C3123 0.946 1_565 S
H3119 C3124 0.949 . S
H3120 C3126 0.950 . S
H3121 C3127 0.950 . S
H3122 C3128 0.949 . S
C3123 H3118 0.946 1_545 S
C3123 C3125 1.322 1_545 S
C3123 C3129 1.436 . S
C3124 C3116 1.574 . S
C3124 H3119 0.949 . S
C3124 C3130 1.368 . S
C3125 C3109 1.346 1_565 S
C3125 H3117 0.950 . S
C3125 C3123 1.322 1_565 S
C3126 C3114 1.349 . S
C3126 H3120 0.950 . S
C3126 C3127 1.327 . S
C3127 H3121 0.950 . S
C3127 C3126 1.327 . S
C3127 C3131 1.429 . S
C3128 C3111 1.574 . S
C3128 H3122 0.949 . S
C3128 C3132 1.368 . S
C3129 C3110 1.429 . S
C3129 C3123 1.436 . S
C3129 C3130 1.523 . S
C3130 C3111 1.368 . S
C3130 C3124 1.368 . S
C3130 C3129 1.523 . S
C3131 C3115 1.429 . S
C3131 C3127 1.429 . S
C3131 C3132 1.523 . S
C3132 C3116 1.368 . S
C3132 C3128 1.368 . S
C3132 C3131 1.523 . S
H3133 C3108 0.950 . S
H3134 C3110 0.950 . S
H3135 C3111 0.949 . S
H3136 C3113 0.950 . S
H3137 C3115 0.950 . S
C3138 C3139 1.344 1_545 S
C3138 C3140 1.327 . S
C3138 H3163 0.955 . S
C3139 C3138 1.344 1_565 S
C3139 C3155 1.349 . S
C3140 C3138 1.327 . S
C3140 C3159 1.429 1_545 S
C3140 H3164 0.950 . S
C3141 C3158 1.574 . S
C3141 C3160 1.368 . S
C3141 H3165 0.949 . S
H3142 C3146 0.949 . S
C3143 C3144 1.349 . S
C3143 C3145 1.327 . S
C3143 H3166 0.950 . S
C3144 C3143 1.349 . S
C3144 C3156 1.349 1_565 S
C3145 C3143 1.327 . S
C3145 C3161 1.429 . S
C3145 H3167 0.950 . S
C3146 H3142 0.949 . S
C3146 C3154 1.574 . S
C3146 C3162 1.368 1_545 S
H3147 C3155 0.950 . S
H3148 C3153 0.950 . S
H3149 C3154 0.949 . S
H3150 C3156 0.950 . S
H3151 C3157 0.950 . S
H3152 C3158 0.949 . S
C3153 H3148 0.950 . S
C3153 C3155 1.327 . S
C3153 C3159 1.429 . S
C3154 C3146 1.574 . S
C3154 H3149 0.949 . S
C3154 C3160 1.368 1_545 S
C3155 C3139 1.349 . S
C3155 H3147 0.950 . S
C3155 C3153 1.327 . S
C3156 C3144 1.349 1_545 S
C3156 H3150 0.950 . S
C3156 C3157 1.327 . S
C3157 H3151 0.950 . S
C3157 C3156 1.327 . S
C3157 C3161 1.429 1_545 S
C3158 C3141 1.574 . S
C3158 H3152 0.949 . S
C3158 C3162 1.368 . S
C3159 C3140 1.429 1_565 S
C3159 C3153 1.429 . S
C3159 C3160 1.523 . S
C3160 C3141 1.368 . S
C3160 C3154 1.368 1_565 S
C3160 C3159 1.523 . S
C3161 C3145 1.429 . S
C3161 C3157 1.429 1_565 S
C3161 C3162 1.523 . S
C3162 C3146 1.368 1_565 S
C3162 C3158 1.368 . S
C3162 C3161 1.523 . S
H3163 C3138 0.955 . S
H3164 C3140 0.950 . S
H3165 C3141 0.949 . S
H3166 C3143 0.950 . S
H3167 C3145 0.950 . S
C3168 C3169 1.349 . S
C3168 C3170 1.327 . S
C3168 H3193 0.950 . S
C3169 C3168 1.349 . S
C3169 C3185 1.349 . S
C3170 C3168 1.327 . S
C3170 C3189 1.429 . S
C3170 H3194 0.950 . S
C3171 C3188 1.574 . S
C3171 C3190 1.368 . S
C3171 H3195 0.949 . S
H3172 C3176 0.949 . S
C3173 C3174 1.349 . S
C3173 C3175 1.327 . S
C3173 H3196 0.950 . S
C3174 C3173 1.349 . S
C3174 C3186 1.349 . S
C3175 C3173 1.327 . S
C3175 C3191 1.429 . S
C3175 H3197 0.950 . S
C3176 H3172 0.949 . S
C3176 C3184 1.574 . S
C3176 C3192 1.368 . S
H3177 C3185 0.950 . S
H3178 C3183 0.950 . S
H3179 C3184 0.949 . S
H3180 C3186 0.950 . S
H3181 C3187 0.950 . S
H3182 C3188 0.949 . S
C3183 H3178 0.950 . S
C3183 C3185 1.327 . S
C3183 C3189 1.429 . S
C3184 C3176 1.574 . S
C3184 H3179 0.949 . S
C3184 C3190 1.368 . S
C3185 C3169 1.349 . S
C3185 H3177 0.950 . S
C3185 C3183 1.327 . S
C3186 C3174 1.349 . S
C3186 H3180 0.950 . S
C3186 C3187 1.327 . S
C3187 H3181 0.950 . S
C3187 C3186 1.327 . S
C3187 C3191 1.429 . S
C3188 C3171 1.574 . S
C3188 H3182 0.949 . S
C3188 C3192 1.368 . S
C3189 C3170 1.429 . S
C3189 C3183 1.429 . S
C3189 C3190 1.523 . S
C3190 C3171 1.368 . S
C3190 C3184 1.368 . S
C3190 C3189 1.523 . S
C3191 C3175 1.429 . S
C3191 C3187 1.429 . S
C3191 C3192 1.523 . S
C3192 C3176 1.368 . S
C3192 C3188 1.368 . S
C3192 C3191 1.523 . S
H3193 C3168 0.950 . S
H3194 C3170 0.950 . S
H3195 C3171 0.949 . S
H3196 C3173 0.950 . S
H3197 C3175 0.950 . S
C3198 C3199 1.344 1_554 S
C3198 C3200 1.327 . S
C3198 H3223 0.955 . S
C3199 C3198 1.344 1_556 S
C3199 C3215 1.349 . S
C3200 C3198 1.327 . S
C3200 C3219 1.429 1_554 S
C3200 H3224 0.950 . S
C3201 C3218 1.574 . S
C3201 C3220 1.368 . S
C3201 H3225 0.949 . S
H3202 C3206 0.949 . S
C3203 C3204 1.349 . S
C3203 C3205 1.327 . S
C3203 H3226 0.950 . S
C3204 C3203 1.349 . S
C3204 C3216 1.349 1_556 S
C3205 C3203 1.327 . S
C3205 C3221 1.429 . S
C3205 H3227 0.950 . S
C3206 H3202 0.949 . S
C3206 C3214 1.574 . S
C3206 C3222 1.368 1_554 S
H3207 C3215 0.950 . S
H3208 C3213 0.950 . S
H3209 C3214 0.949 . S
H3210 C3216 0.950 . S
H3211 C3217 0.950 . S
H3212 C3218 0.949 . S
C3213 H3208 0.950 . S
C3213 C3215 1.327 . S
C3213 C3219 1.429 . S
C3214 C3206 1.574 . S
C3214 H3209 0.949 . S
C3214 C3220 1.368 1_554 S
C3215 C3199 1.349 . S
C3215 H3207 0.950 . S
C3215 C3213 1.327 . S
C3216 C3204 1.349 1_554 S
C3216 H3210 0.950 . S
C3216 C3217 1.327 . S
C3217 H3211 0.950 . S
C3217 C3216 1.327 . S
C3217 C3221 1.429 1_554 S
C3218 C3201 1.574 . S
C3218 H3212 0.949 . S
C3218 C3222 1.368 . S
C3219 C3200 1.429 1_556 S
C3219 C3213 1.429 . S
C3219 C3220 1.523 . S
C3220 C3201 1.368 . S
C3220 C3214 1.368 1_556 S
C3220 C3219 1.523 . S
C3221 C3205 1.429 . S
C3221 C3217 1.429 1_556 S
C3221 C3222 1.523 . S
C3222 C3206 1.368 1_556 S
C3222 C3218 1.368 . S
C3222 C3221 1.523 . S
H3223 C3198 0.955 . S
H3224 C3200 0.950 . S
H3225 C3201 0.949 . S
H3226 C3203 0.950 . S
H3227 C3205 0.950 . S
C3228 C3229 1.349 . S
C3228 C3230 1.327 . S
C3228 H3253 0.950 . S
C3229 C3228 1.349 . S
C3229 C3245 1.349 . S
C3230 C3228 1.327 . S
C3230 C3249 1.429 . S
C3230 H3254 0.950 . S
C3231 C3248 1.574 . S
C3231 C3250 1.368 . S
C3231 H3255 0.949 . S
H3232 C3236 0.949 . S
C3233 C3234 1.349 . S
C3233 C3235 1.327 . S
C3233 H3256 0.950 . S
C3234 C3233 1.349 . S
C3234 C3246 1.349 . S
C3235 C3233 1.327 . S
C3235 C3251 1.429 . S
C3235 H3257 0.950 . S
C3236 H3232 0.949 . S
C3236 C3244 1.574 . S
C3236 C3252 1.368 . S
H3237 C3245 0.950 . S
H3238 C3243 0.950 . S
H3239 C3244 0.949 . S
H3240 C3246 0.950 . S
H3241 C3247 0.950 . S
H3242 C3248 0.949 . S
C3243 H3238 0.950 . S
C3243 C3245 1.327 . S
C3243 C3249 1.429 . S
C3244 C3236 1.574 . S
C3244 H3239 0.949 . S
C3244 C3250 1.368 . S
C3245 C3229 1.349 . S
C3245 H3237 0.950 . S
C3245 C3243 1.327 . S
C3246 C3234 1.349 . S
C3246 H3240 0.950 . S
C3246 C3247 1.327 . S
C3247 H3241 0.950 . S
C3247 C3246 1.327 . S
C3247 C3251 1.429 . S
C3248 C3231 1.574 . S
C3248 H3242 0.949 . S
C3248 C3252 1.368 . S
C3249 C3230 1.429 . S
C3249 C3243 1.429 . S
C3249 C3250 1.523 . S
C3250 C3231 1.368 . S
C3250 C3244 1.368 . S
C3250 C3249 1.523 . S
C3251 C3235 1.429 . S
C3251 C3247 1.429 . S
C3251 C3252 1.523 . S
C3252 C3236 1.368 . S
C3252 C3248 1.368 . S
C3252 C3251 1.523 . S
H3253 C3228 0.950 . S
H3254 C3230 0.950 . S
H3255 C3231 0.949 . S
H3256 C3233 0.950 . S
H3257 C3235 0.950 . S
C3258 C3259 1.396 . S
C3258 C3260 1.327 . S
C3258 H3283 0.950 . S
C3259 C3258 1.396 . S
C3259 C3275 1.315 1_554 S
C3260 C3258 1.327 . S
C3260 C3279 1.429 . S
C3260 H3284 0.950 . S
C3261 C3278 1.574 . S
C3261 C3280 1.368 1_556 S
C3261 H3285 0.949 . S
H3262 C3266 0.949 . S
C3263 C3264 1.405 . S
C3263 C3265 1.301 1_554 S
C3263 H3286 0.911 1_554 S
C3264 C3263 1.405 . S
C3264 C3276 1.349 . S
C3265 C3263 1.301 1_556 S
C3265 C3281 1.392 1_556 S
C3265 H3287 1.005 . S
C3266 H3262 0.949 . S
C3266 C3274 1.574 . S
C3266 C3282 1.368 . S
H3267 C3275 0.950 . S
H3268 C3273 0.950 . S
H3269 C3274 0.949 . S
H3270 C3276 0.950 . S
H3271 C3277 0.950 . S
H3272 C3278 0.949 . S
C3273 H3268 0.950 . S
C3273 C3275 1.327 . S
C3273 C3279 1.429 1_556 S
C3274 C3266 1.574 . S
C3274 H3269 0.949 . S
C3274 C3280 1.368 . S
C3275 C3259 1.315 1_556 S
C3275 H3267 0.950 . S
C3275 C3273 1.327 . S
C3276 C3264 1.349 . S
C3276 H3270 0.950 . S
C3276 C3277 1.327 . S
C3277 H3271 0.950 . S
C3277 C3276 1.327 . S
C3277 C3281 1.429 . S
C3278 C3261 1.574 . S
C3278 H3272 0.949 . S
C3278 C3282 1.368 1_556 S
C3279 C3260 1.429 . S
C3279 C3273 1.429 1_554 S
C3279 C3280 1.523 . S
C3280 C3261 1.368 1_554 S
C3280 C3274 1.368 . S
C3280 C3279 1.523 . S
C3281 C3265 1.392 1_554 S
C3281 C3277 1.429 . S
C3281 C3282 1.523 . S
C3282 C3266 1.368 . S
C3282 C3278 1.368 1_554 S
C3282 C3281 1.523 . S
H3283 C3258 0.950 . S
H3284 C3260 0.950 . S
H3285 C3261 0.949 . S
H3286 C3263 0.911 1_556 S
H3287 C3265 1.005 . S
C3288 C3289 1.349 . S
C3288 C3290 1.327 . S
C3288 H3313 0.950 . S
C3289 C3288 1.349 . S
C3289 C3305 1.349 . S
C3290 C3288 1.327 . S
C3290 C3309 1.429 . S
C3290 H3314 0.950 . S
C3291 C3308 1.574 . S
C3291 C3310 1.368 . S
C3291 H3315 0.949 . S
H3292 C3296 0.949 . S
C3293 C3294 1.349 . S
C3293 C3295 1.327 . S
C3293 H3316 0.950 . S
C3294 C3293 1.349 . S
C3294 C3306 1.349 . S
C3295 C3293 1.327 . S
C3295 C3311 1.429 . S
C3295 H3317 0.950 . S
C3296 H3292 0.949 . S
C3296 C3304 1.574 . S
C3296 C3312 1.368 . S
H3297 C3305 0.950 . S
H3298 C3303 0.950 . S
H3299 C3304 0.949 . S
H3300 C3306 0.950 . S
H3301 C3307 0.950 . S
H3302 C3308 0.949 . S
C3303 H3298 0.950 . S
C3303 C3305 1.327 . S
C3303 C3309 1.429 . S
C3304 C3296 1.574 . S
C3304 H3299 0.949 . S
C3304 C3310 1.368 . S
C3305 C3289 1.349 . S
C3305 H3297 0.950 . S
C3305 C3303 1.327 . S
C3306 C3294 1.349 . S
C3306 H3300 0.950 . S
C3306 C3307 1.327 . S
C3307 H3301 0.950 . S
C3307 C3306 1.327 . S
C3307 C3311 1.429 . S
C3308 C3291 1.574 . S
C3308 H3302 0.949 . S
C3308 C3312 1.368 . S
C3309 C3290 1.429 . S
C3309 C3303 1.429 . S
C3309 C3310 1.523 . S
C3310 C3291 1.368 . S
C3310 C3304 1.368 . S
C3310 C3309 1.523 . S
C3311 C3295 1.429 . S
C3311 C3307 1.429 . S
C3311 C3312 1.523 . S
C3312 C3296 1.368 . S
C3312 C3308 1.368 . S
C3312 C3311 1.523 . S
H3313 C3288 0.950 . S
H3314 C3290 0.950 . S
H3315 C3291 0.949 . S
H3316 C3293 0.950 . S
H3317 C3295 0.950 . S
C3318 C3319 1.382 . S
C3318 C3320 1.330 1_655 S
C3318 H3343 0.917 1_655 S
C3319 C3318 1.382 . S
C3319 C3335 1.349 . S
C3320 C3318 1.330 1_455 S
C3320 C3339 1.426 1_455 S
C3320 H3344 0.952 . S
C3321 C3338 1.574 . S
C3321 C3340 1.368 . S
C3321 H3345 0.949 . S
H3322 C3326 0.949 . S
C3323 C3324 1.349 . S
C3323 C3325 1.327 . S
C3323 H3346 0.950 . S
C3324 C3323 1.349 . S
C3324 C3336 1.349 1_655 S
C3325 C3323 1.327 . S
C3325 C3341 1.429 . S
C3325 H3347 0.950 . S
C3326 H3322 0.949 . S
C3326 C3334 1.574 . S
C3326 C3342 1.368 1_455 S
H3327 C3335 0.950 . S
H3328 C3333 0.950 . S
H3329 C3334 0.949 . S
H3330 C3336 0.950 . S
H3331 C3337 0.950 . S
H3332 C3338 0.949 . S
C3333 H3328 0.950 . S
C3333 C3335 1.327 . S
C3333 C3339 1.429 . S
C3334 C3326 1.574 . S
C3334 H3329 0.949 . S
C3334 C3340 1.368 1_455 S
C3335 C3319 1.349 . S
C3335 H3327 0.950 . S
C3335 C3333 1.327 . S
C3336 C3324 1.349 1_455 S
C3336 H3330 0.950 . S
C3336 C3337 1.327 . S
C3337 H3331 0.950 . S
C3337 C3336 1.327 . S
C3337 C3341 1.429 1_455 S
C3338 C3321 1.574 . S
C3338 H3332 0.949 . S
C3338 C3342 1.368 . S
C3339 C3320 1.426 1_655 S
C3339 C3333 1.429 . S
C3339 C3340 1.523 . S
C3340 C3321 1.368 . S
C3340 C3334 1.368 1_655 S
C3340 C3339 1.523 . S
C3341 C3325 1.429 . S
C3341 C3337 1.429 1_655 S
C3341 C3342 1.523 . S
C3342 C3326 1.368 1_655 S
C3342 C3338 1.368 . S
C3342 C3341 1.523 . S
H3343 C3318 0.917 1_455 S
H3344 C3320 0.952 . S
H3345 C3321 0.949 . S
H3346 C3323 0.950 . S
H3347 C3325 0.950 . S
C3348 C3349 1.349 . S
C3348 C3350 1.327 . S
C3348 H3373 0.950 . S
C3349 C3348 1.349 . S
C3349 C3365 1.349 . S
C3350 C3348 1.327 . S
C3350 C3369 1.429 . S
C3350 H3374 0.950 . S
C3351 C3368 1.574 . S
C3351 C3370 1.368 . S
C3351 H3375 0.949 . S
H3352 C3356 0.949 . S
C3353 C3354 1.349 . S
C3353 C3355 1.327 . S
C3353 H3376 0.950 . S
C3354 C3353 1.349 . S
C3354 C3366 1.349 . S
C3355 C3353 1.327 . S
C3355 C3371 1.429 . S
C3355 H3377 0.950 . S
C3356 H3352 0.949 . S
C3356 C3364 1.574 . S
C3356 C3372 1.368 . S
H3357 C3365 0.950 . S
H3358 C3363 0.950 . S
H3359 C3364 0.949 . S
H3360 C3366 0.950 . S
H3361 C3367 0.950 . S
H3362 C3368 0.949 . S
C3363 H3358 0.950 . S
C3363 C3365 1.327 . S
C3363 C3369 1.429 . S
C3364 C3356 1.574 . S
C3364 H3359 0.949 . S
C3364 C3370 1.368 . S
C3365 C3349 1.349 . S
C3365 H3357 0.950 . S
C3365 C3363 1.327 . S
C3366 C3354 1.349 . S
C3366 H3360 0.950 . S
C3366 C3367 1.327 . S
C3367 H3361 0.950 . S
C3367 C3366 1.327 . S
C3367 C3371 1.429 . S
C3368 C3351 1.574 . S
C3368 H3362 0.949 . S
C3368 C3372 1.368 . S
C3369 C3350 1.429 . S
C3369 C3363 1.429 . S
C3369 C3370 1.523 . S
C3370 C3351 1.368 . S
C3370 C3364 1.368 . S
C3370 C3369 1.523 . S
C3371 C3355 1.429 . S
C3371 C3367 1.429 . S
C3371 C3372 1.523 . S
C3372 C3356 1.368 . S
C3372 C3368 1.368 . S
C3372 C3371 1.523 . S
H3373 C3348 0.950 . S
H3374 C3350 0.950 . S
H3375 C3351 0.949 . S
H3376 C3353 0.950 . S
H3377 C3355 0.950 . S
C3378 C3379 1.363 . S
C3378 C3380 1.327 . S
C3378 H3403 0.950 . S
C3379 C3378 1.363 . S
C3379 C3395 1.350 . S
C3380 C3378 1.327 . S
C3380 C3399 1.429 . S
C3380 H3404 0.950 . S
C3381 C3398 1.574 . S
C3381 C3400 1.368 . S
C3381 H3405 0.949 . S
H3382 C3386 0.949 . S
C3383 C3384 1.349 . S
C3383 C3385 1.327 . S
C3383 H3406 0.950 . S
C3384 C3383 1.349 . S
C3384 C3396 1.349 . S
C3385 C3383 1.327 . S
C3385 C3401 1.429 . S
C3385 H3407 0.950 . S
C3386 H3382 0.949 . S
C3386 C3394 1.574 . S
C3386 C3402 1.368 . S
H3387 C3395 0.947 1_655 S
H3388 C3393 0.950 . S
H3389 C3394 0.949 . S
H3390 C3396 0.950 . S
H3391 C3397 0.950 . S
H3392 C3398 0.949 . S
C3393 H3388 0.950 . S
C3393 C3395 1.330 . S
C3393 C3399 1.429 . S
C3394 C3386 1.574 . S
C3394 H3389 0.949 . S
C3394 C3400 1.368 . S
C3395 C3379 1.350 . S
C3395 H3387 0.947 1_455 S
C3395 C3393 1.330 . S
C3396 C3384 1.349 . S
C3396 H3390 0.950 . S
C3396 C3397 1.327 . S
C3397 H3391 0.950 . S
C3397 C3396 1.327 . S
C3397 C3401 1.429 . S
C3398 C3381 1.574 . S
C3398 H3392 0.949 . S
C3398 C3402 1.368 . S
C3399 C3380 1.429 . S
C3399 C3393 1.429 . S
C3399 C3400 1.523 . S
C3400 C3381 1.368 . S
C3400 C3394 1.368 . S
C3400 C3399 1.523 . S
C3401 C3385 1.429 . S
C3401 C3397 1.429 . S
C3401 C3402 1.523 . S
C3402 C3386 1.368 . S
C3402 C3398 1.368 . S
C3402 C3401 1.523 . S
H3403 C3378 0.950 . S
H3404 C3380 0.950 . S
H3405 C3381 0.949 . S
H3406 C3383 0.950 . S
H3407 C3385 0.950 . S
C1254 C1242 1.789 . S
C1249 C15 1.855 . S
C1284 C1206 1.360 . S
C1279 C55 1.334 . S
C1314 C1230 0.649 . S
C1309 C95 0.585 1_545 S
C1344 C1218 1.413 . S
C1339 C135 1.423 . S
C1374 C1134 1.789 . S
C1369 C175 1.855 . S
C1399 C215 1.423 . S
C1404 C1146 1.413 . S
C1434 C1110 1.360 . S
C1429 C255 1.334 . S
C1459 C295 0.585 1_554 S
C1464 C1122 0.649 . S
C1494 C1194 1.789 . S
C1489 C335 1.855 . S
C1519 C375 1.423 . S
C1524 C1170 1.413 . S
C1549 C415 1.334 . S
C1554 C1158 1.360 . S
C1584 C1182 0.649 . S
C1579 C455 0.585 1_455 S
C1614 C1098 1.780 . S
C1609 C495 1.853 . S
C1639 C535 1.327 . S
C1644 C1062 1.359 . S
C1674 C1086 0.648 . S
C1669 C575 0.586 . S
C1699 C615 1.423 . S
C1704 C1074 1.392 . S
C1734 C990 1.780 . S
C1729 C655 1.853 . S
C1764 C1002 1.392 . S
C1759 C695 1.423 . S
C1789 C735 1.327 . S
C1794 C966 1.359 . S
C1819 C775 0.586 . S
C1824 C978 0.648 . S
C1849 C815 1.845 . S
C1854 C1050 1.788 . S
C1879 C855 1.422 . S
C1884 C1026 1.392 . S
C1914 C1014 1.359 . S
C1909 C895 1.327 . S
C1939 C935 0.586 . S
C1944 C1038 0.648 . S
C1974 C969 1.674 . S
C1969 C21 1.710 . S
C2004 C981 1.612 . S
C1999 C61 1.673 . S
C2029 C101 0.659 1_545 S
C2034 C993 0.657 . S
C2059 C141 0.788 . S
C2064 C1005 0.780 . S
C2094 C1017 1.674 . S
C2089 C181 1.710 . S
C2119 C221 0.788 . S
C2124 C1029 0.780 . S
C2154 C1041 1.612 . S
C2149 C261 1.673 . S
C2184 C1053 0.657 . S
C2179 C301 0.659 1_554 S
C2214 C1065 1.675 . S
C2209 C341 1.710 . S
C2239 C381 0.788 . S
C2244 C1077 0.780 . S
C2269 C421 1.677 . S
C2274 C1089 1.607 . S
C2299 C461 0.659 1_455 S
C2304 C1101 0.657 . S
C2329 C501 1.675 . S
C2334 C1113 1.674 . S
C2359 C541 1.561 . S
C2364 C1125 1.614 . S
C2389 C581 0.659 . S
C2394 C1137 0.657 . S
C2419 C621 0.786 . S
C2424 C1149 0.780 . S
C2449 C661 1.675 . S
C2454 C1161 1.674 . S
C2484 C1173 0.787 . S
C2479 C701 0.779 . S
C2514 C1185 1.618 . S
C2509 C741 1.556 . S
C2544 C1197 0.657 . S
C2539 C781 0.659 . S
C2574 C1209 1.674 . S
C2569 C821 1.675 . S
C2599 C861 0.786 . S
C2604 C1221 0.780 . S
C2629 C901 1.561 . S
C2634 C1233 1.614 . S
C2659 C941 0.659 . S
C2664 C1245 0.657 . S
C2689 C2 1.670 . S
C2694 C1060 1.640 . S
C2724 C1096 1.743 . S
C2719 C42 1.797 . S
C2749 C82 1.513 . S
C2754 C1072 1.466 . S
C2784 C1084 1.474 . S
C2779 C122 1.466 . S
C2809 C162 1.670 . S
C2814 C964 1.640 . S
C2839 C202 1.467 . S
C2844 C976 1.474 . S
C2869 C242 1.805 . S
C2874 C988 1.736 . S
C2899 C282 1.513 . S
C2904 C1000 1.466 . S
C2934 C1012 1.640 . S
C2929 C322 1.670 . S
C2964 C1036 1.474 . S
C2959 C362 1.467 . S
C2989 C402 1.805 . S
C2994 C1048 1.736 . S
C3019 C442 1.513 . S
C3024 C1024 1.466 . S
C3054 C1204 1.643 . S
C3049 C482 1.649 . S
C3084 C1240 1.737 . S
C3079 C522 1.717 . S
C3109 C562 1.517 1_545 S
C3114 C1216 1.457 . S
C3144 C1228 1.478 . S
C3139 C602 1.457 . S
C3169 C642 1.649 . S
C3174 C1108 1.643 . S
C3199 C682 1.457 . S
C3204 C1120 1.478 . S
C3229 C722 1.725 . S
C3234 C1132 1.730 . S
C3264 C1144 1.457 . S
C3259 C762 1.517 1_554 S
C3294 C1156 1.643 . S
C3289 C802 1.649 . S
C3324 C1180 1.478 . S
C3319 C842 1.457 . S
C3349 C882 1.725 . S
C3354 C1192 1.730 . S
C3384 C1168 1.457 . S
C3379 C922 1.517 1_455 S
