# Generated by pormake.
# Topology tsx, (6,3)-cn, num edge types: 1
# Building blocks:
#     Node 0, Type 0, BuildingBlock: VOLQOD_clean_sbu_1, # of connection points: 6
#     Node 1, Type 0, BuildingBlock: VOLQOD_clean_sbu_1, # of connection points: 6
#     Node 2, Type 1, BuildingBlock: QEWDON_clean_linker_0, # of connection points: 3
#     Node 3, Type 1, BuildingBlock: QEWDON_clean_linker_0, # of connection points: 3
#     Node 4, Type 1, BuildingBlock: QEWDON_clean_linker_0, # of connection points: 3
#     Node 5, Type 1, BuildingBlock: QEWDON_clean_linker_0, # of connection points: 3
#     Edge 6, Type (0, 1), BuildingBlock: EZIPEK_clean_linker_0, # of connection points: 2
#     Edge 7, Type (0, 1), BuildingBlock: EZIPEK_clean_linker_0, # of connection points: 2
#     Edge 8, Type (0, 1), BuildingBlock: EZIPEK_clean_linker_0, # of connection points: 2
#     Edge 9, Type (0, 1), BuildingBlock: EZIPEK_clean_linker_0, # of connection points: 2
#     Edge 10, Type (0, 1), BuildingBlock: EZIPEK_clean_linker_0, # of connection points: 2
#     Edge 11, Type (0, 1), BuildingBlock: EZIPEK_clean_linker_0, # of connection points: 2
#     Edge 12, Type (0, 1), BuildingBlock: EZIPEK_clean_linker_0, # of connection points: 2
#     Edge 13, Type (0, 1), BuildingBlock: EZIPEK_clean_linker_0, # of connection points: 2
#     Edge 14, Type (0, 1), BuildingBlock: EZIPEK_clean_linker_0, # of connection points: 2
#     Edge 15, Type (0, 1), BuildingBlock: EZIPEK_clean_linker_0, # of connection points: 2
#     Edge 16, Type (0, 1), BuildingBlock: EZIPEK_clean_linker_0, # of connection points: 2
#     Edge 17, Type (0, 1), BuildingBlock: EZIPEK_clean_linker_0, # of connection points: 2
# Relax obj value: 0.079
# Max RMSD: 0.171
# Mean RMSD: 0.146
data_MOF--net-tsx--node1-VOLQOD_clean_sbu_1--node2-QEWDON_clean_linker_0--edge1-EZIPEK_clean_linker_0
_symmetry_space_group_name_H-M    P1
_symmetry_Int_Tables_number       1
_symmetry_cell_setting            triclinic
loop_
_symmetry_equiv_pos_as_xyz
'x, y, z'
_cell_length_a     17.045385
_cell_length_b     17.342625
_cell_length_c     28.364605
_cell_angle_alpha  91.23835
_cell_angle_beta   103.17193
_cell_angle_gamma 89.780264
loop_
_atom_site_label
_atom_site_type_symbol
_atom_site_fract_x
_atom_site_fract_y
_atom_site_fract_z
_atom_type_partial_charge
O0 O 0.08859 0.9799 0.10435 0.0
Zn1 Zn 0.1096 0.99625 0.03827 0.0
O2 O 0.00988 0.02602 -0.00489 0.0
Zn3 Zn 0.97717 0.94704 0.94707 0.0
Zn4 Zn 0.92536 0.03924 0.02974 0.0
Zn5 Zn 0.02095 0.11872 0.96179 0.0
O6 O 0.9482 0.98856 0.88029 0.0
O7 O 0.02758 0.09231 0.89369 0.0
O8 O 0.15553 0.89795 0.01352 0.0
O9 O 0.06492 0.87593 0.9447 0.0
O10 O 0.89824 0.87765 0.96611 0.0
O11 O 0.85282 0.94748 0.02015 0.0
O12 O 0.85535 0.12937 0.0062 0.0
O13 O 0.18792 0.08531 0.04597 0.0
O14 O 0.92038 0.18314 0.95551 0.0
O15 O 0.12126 0.1748 -0.00303 0.0
C16 C 0.0341 0.00646 0.12445 0.0
C17 C -0.01254 0.04141 0.86519 0.0
C18 C 0.85332 0.88516 -0.00404 0.0
C19 C 0.12989 0.85936 0.9742 0.0
C20 C 0.86001 0.17948 0.97487 0.0
C21 C 0.18277 0.15288 0.02858 0.0
O22 O 0.97207 0.04152 0.10096 0.0
O23 O 0.58556 0.47598 0.59896 0.0
Zn24 Zn 0.60423 0.49791 0.53219 0.0
O25 O 0.50381 0.53252 0.49239 0.0
Zn26 Zn 0.45433 0.45581 0.44503 0.0
Zn27 Zn 0.43311 0.55297 0.53441 0.0
Zn28 Zn 0.51571 0.62528 0.45972 0.0
O29 O 0.44131 0.49496 0.37735 0.0
O30 O 0.52091 0.59874 0.3914 0.0
O31 O 0.64051 0.39978 0.50145 0.0
O32 O 0.52971 0.36906 0.44557 0.0
O33 O 0.35758 0.4064 0.46186 0.0
O34 O 0.36578 0.46043 0.53463 0.0
O35 O 0.35934 0.64124 0.51131 0.0
O36 O 0.6855 0.58617 0.54096 0.0
O37 O 0.4175 0.69237 0.45646 0.0
O38 O 0.61753 0.67839 0.49488 0.0
C39 C 0.5434 0.51483 0.62294 0.0
C40 C 0.48263 0.54689 0.36283 0.0
C41 C 0.33759 0.40951 0.50253 0.0
C42 C 0.60137 0.35492 0.46791 0.0
C43 C 0.3607 0.69049 0.47888 0.0
C44 C 0.67998 0.65491 0.52511 0.0
O45 O 0.4923 0.56462 0.60294 0.0
H46 H 0.94061 0.03612 0.3288 0.0
C47 C 0.98015 0.99184 0.34749 0.0
C48 C 0.02919 0.94929 0.3228 0.0
C49 C -0.01029 0.98349 0.39743 0.0
H50 H 0.12449 0.86525 0.32898 0.0
C51 C 0.08484 0.89622 0.34774 0.0
C52 C 0.0927 0.88605 0.39727 0.0
C53 C 0.04426 0.92871 0.42189 0.0
C54 C 0.96082 0.04369 0.42624 0.0
H55 H 0.05331 0.92306 0.46078 0.0
C56 C 0.86221 0.07332 0.41507 0.0
C57 C 0.82028 0.14207 0.44691 0.0
C58 C 0.03201 0.08285 0.47307 0.0
H59 H 0.09365 0.06145 0.47793 0.0
C60 C 0.96771 0.18627 0.52091 0.0
H61 H 0.82155 0.04557 0.38462 0.0
C62 C 0.8676 0.19564 0.49634 0.0
H63 H 0.8337 0.23738 0.5125 0.0
H64 H -0.00736 0.2223 0.55285 0.0
H65 H 0.0399 0.07738 0.64636 0.0
C66 C 0.01033 0.02308 0.63373 0.0
C67 C 0.98145 0.97713 0.66609 0.0
C68 C -0.00696 0.0031 0.58447 0.0
H69 H 0.91191 0.87668 0.67435 0.0
C70 C 0.93736 0.90994 0.64951 0.0
C71 C 0.92068 0.88896 0.60029 0.0
C72 C 0.95039 0.93463 0.56814 0.0
C73 C 0.00302 0.06052 0.54903 0.0
H74 H 0.93524 0.91941 0.52986 0.0
C75 C 0.0879 0.1168 0.55649 0.0
C76 C 0.10753 0.18741 0.51871 0.0
C77 C 0.92386 0.0707 0.50006 0.0
H78 H 0.87105 0.03403 0.49785 0.0
C79 C 0.95466 0.17745 0.44315 0.0
H80 H 0.13421 0.10762 0.58894 0.0
C81 C 0.04717 0.21696 0.46567 0.0
H82 H 0.06733 0.26283 0.44599 0.0
H83 H 0.91993 0.20016 0.40905 0.0
H84 H 0.44098 0.52639 0.82731 0.0
C85 C 0.47725 0.47804 0.8433 0.0
C86 C 0.5227 0.43604 0.81596 0.0
C87 C 0.48696 0.4636 0.89275 0.0
H88 H 0.61383 0.34904 0.81725 0.0
C89 C 0.57571 0.37847 0.83773 0.0
C90 C 0.58542 0.36404 0.88696 0.0
C91 C 0.53929 0.40483 0.91396 0.0
C92 C 0.46501 0.52283 0.92507 0.0
H93 H 0.55019 0.39587 0.95266 0.0
C94 C 0.36941 0.55899 0.91813 0.0
C95 C 0.33708 0.63087 0.95236 0.0
C96 C 0.54291 0.55729 0.96964 0.0
H97 H 0.60195 0.53101 0.97216 0.0
C98 C 0.49334 0.66579 0.02114 0.0
H99 H 0.32433 0.53459 0.88847 0.0
C100 C 0.39298 0.68174 0.00059 0.0
H101 H 0.36468 0.72631 0.01824 0.0
H102 H 0.52445 0.70099 0.05215 0.0
H103 H 0.55693 0.56516 0.14485 0.0
C104 C 0.52591 0.51094 0.13394 0.0
C105 C 0.49259 0.47087 0.16716 0.0
C106 C 0.51086 0.48563 0.08549 0.0
H107 H 0.41692 0.37589 0.17715 0.0
C108 C 0.44602 0.4045 0.15207 0.0
C109 C 0.43137 0.37881 0.10371 0.0
C110 C 0.46574 0.41824 0.07096 0.0
C111 C 0.52202 0.53861 0.04806 0.0
H112 H 0.45137 0.40005 0.03312 0.0
C113 C 0.61012 0.58826 0.05178 0.0
C114 C 0.63013 0.65664 0.01264 0.0
C115 C 0.43948 0.55331 0.00173 0.0
H116 H 0.38498 0.52031 0.00179 0.0
C117 C 0.47061 0.65679 0.94285 0.0
H118 H 0.65896 0.57501 0.0822 0.0
C119 C 0.56649 0.68995 0.96165 0.0
H120 H 0.58691 0.73359 0.94049 0.0
H121 H 0.43426 0.68134 0.90979 0.0
C122 C 0.22718 0.2803 0.06858 0.0
C123 C 0.24738 0.2095 0.04833 0.0
C124 C 0.39036 0.24577 0.06992 0.0
C125 C 0.36864 0.3196 0.08519 0.0
N126 N 0.26436 0.41342 0.08771 0.0
N127 N 0.34649 0.12971 0.02213 0.0
C128 C 0.28643 0.33875 0.08128 0.0
C129 C 0.32866 0.19329 0.04702 0.0
N130 N 0.15243 0.29076 0.07773 0.0
N131 N 0.46977 0.22541 0.07803 0.0
H132 H 0.30276 0.0909 0.00397 0.0
H133 H 0.40339 0.11919 0.01571 0.0
H134 H 0.51634 0.2628 0.09437 0.0
H135 H 0.48913 0.16971 0.07224 0.0
H136 H 0.13766 0.33841 0.09699 0.0
H137 H 0.10783 0.24834 0.07081 0.0
H138 H 0.20452 0.43156 0.08026 0.0
H139 H 0.30556 0.45874 0.09548 0.0
C140 C 0.20986 0.79219 0.92235 0.0
C141 C 0.17263 0.79045 0.96228 0.0
C142 C 0.20928 0.65472 0.9747 0.0
C143 C 0.25448 0.66033 0.93896 0.0
N144 N 0.27027 0.71818 0.86605 0.0
N145 N 0.11632 0.71554 0.01743 0.0
C146 C 0.24406 0.72354 0.90797 0.0
C147 C 0.16531 0.71994 -0.01446 0.0
N148 N 0.21639 0.8602 0.90009 0.0
N149 N 0.21432 0.58858 0.00043 0.0
H150 H 0.08434 0.76277 0.02666 0.0
H151 H 0.10339 0.66436 0.0326 0.0
H152 H 0.2436 0.53983 -0.00938 0.0
H153 H 0.19149 0.58231 0.03117 0.0
H154 H 0.24896 0.86645 0.8735 0.0
H155 H 0.1944 0.91213 0.91102 0.0
H156 H 0.26017 0.76042 0.83982 0.0
H157 H 0.29513 0.66724 0.8557 0.0
C158 C 0.79097 0.80631 0.05239 0.0
C159 C 0.80581 0.81787 0.0054 0.0
C160 C 0.74576 0.69226 0.98071 0.0
C161 C 0.71012 0.69317 0.02092 0.0
N162 N 0.69784 0.75427 0.09617 0.0
N163 N 0.77779 0.77476 0.921 0.0
C164 C 0.73314 0.75047 0.05759 0.0
C165 C 0.77899 0.7611 0.96843 0.0
N166 N 0.83348 0.84552 0.09228 0.0
N167 N 0.74189 0.62743 0.95235 0.0
H168 H 0.79004 0.82851 0.90861 0.0
H169 H 0.75318 0.73576 0.89309 0.0
H170 H 0.71894 0.57617 0.96215 0.0
H171 H 0.77004 0.62294 0.92337 0.0
H172 H 0.82809 0.83376 0.1273 0.0
H173 H 0.88133 0.88205 0.0915 0.0
H174 H 0.70574 0.80105 0.12052 0.0
H175 H 0.65782 0.71267 0.10244 0.0
C176 C 0.79473 0.30854 0.95748 0.0
C177 C 0.78846 0.22712 0.95527 0.0
C178 C 0.64555 0.23616 0.91435 0.0
C179 C 0.65433 0.31689 0.91197 0.0
N180 N 0.73948 0.4299 0.92461 0.0
N181 N 0.71245 0.11241 0.92329 0.0
C182 C 0.72955 0.3532 0.93178 0.0
C183 C 0.71492 0.19044 0.93175 0.0
N184 N 0.86199 0.34314 0.98529 0.0
N185 N 0.57089 0.20328 0.90021 0.0
H186 H 0.76235 0.07656 0.93371 0.0
H187 H 0.66291 0.08396 0.90176 0.0
H188 H 0.51905 0.23512 0.88622 0.0
H189 H 0.55941 0.14576 0.90609 0.0
H190 H 0.86658 0.40232 -0.00757 0.0
H191 H 0.91066 0.31198 0.00489 0.0
H192 H 0.79527 0.45743 0.93318 0.0
H193 H 0.69292 0.46503 0.90658 0.0
C194 C 0.72194 0.78022 0.56848 0.0
C195 C 0.74375 0.71209 0.54598 0.0
C196 C 0.88456 0.756 0.56376 0.0
C197 C 0.86043 0.8275 0.58122 0.0
N198 N 0.75278 0.91412 0.58946 0.0
N199 N 0.84356 0.63925 0.51581 0.0
C200 C 0.77812 0.84148 0.58051 0.0
C201 C 0.82464 0.70078 0.54202 0.0
N202 N 0.64857 0.78537 0.58024 0.0
N203 N 0.96464 0.74041 0.56875 0.0
H204 H 0.80121 0.59817 0.49906 0.0
H205 H 0.89949 0.63231 0.50731 0.0
H206 H 0.00977 0.77997 0.58397 0.0
H207 H -0.01345 0.68645 0.56133 0.0
H208 H 0.63304 0.83066 0.60107 0.0
H209 H 0.60651 0.74062 0.57384 0.0
H210 H 0.69218 0.92899 0.58435 0.0
H211 H 0.7915 0.96142 0.59703 0.0
C212 C 0.66697 0.28587 0.4086 0.0
C213 C 0.63999 0.28547 0.4525 0.0
C214 C 0.68958 0.15372 0.46661 0.0
C215 C 0.73498 0.16375 0.43143 0.0
N216 N 0.75468 0.22734 0.36112 0.0
N217 N 0.61333 0.21524 0.51967 0.0
C218 C 0.71745 0.22502 0.39886 0.0
C219 C 0.64621 0.21749 0.48005 0.0
N220 N 0.64526 0.34463 0.37693 0.0
N221 N 0.69316 0.08436 0.48876 0.0
H222 H 0.57969 0.26067 0.52959 0.0
H223 H 0.6214 0.16983 0.54367 0.0
H224 H 0.7258 0.03845 0.47836 0.0
H225 H 0.65966 0.07048 0.51382 0.0
H226 H 0.65747 0.34535 0.34265 0.0
H227 H 0.60988 0.39086 0.38365 0.0
H228 H 0.75352 0.27454 0.33895 0.0
H229 H 0.7881 0.1807 0.35258 0.0
C230 C 0.30732 0.27045 0.51308 0.0
C231 C 0.28498 0.34945 0.51477 0.0
C232 C 0.1678 0.31253 0.54504 0.0
C233 C 0.18045 0.23517 0.53301 0.0
N234 N 0.26283 0.13709 0.50791 0.0
N235 N 0.19026 0.44638 0.52915 0.0
C236 C 0.25114 0.21283 0.51839 0.0
C237 C 0.21501 0.37114 0.53098 0.0
N238 N 0.3827 0.25075 0.50792 0.0
N239 N 0.10789 0.32774 0.56844 0.0
H240 H 0.22127 0.49061 0.51689 0.0
H241 H 0.13491 0.46417 0.53515 0.0
H242 H 0.09586 0.38209 0.58155 0.0
H243 H 0.09586 0.38209 0.58155 0.0
H244 H 0.40458 0.1945 0.51069 0.0
H245 H 0.42631 0.29151 0.50542 0.0
H246 H 0.30767 0.11797 0.49094 0.0
H247 H 0.22553 0.0936 0.51526 0.0
C248 C 0.2993 0.82221 0.46791 0.0
C249 C 0.29006 0.74106 0.46292 0.0
C250 C 0.14671 0.75642 0.42472 0.0
C251 C 0.15859 0.83703 0.42403 0.0
N252 N 0.24616 0.94806 0.44173 0.0
N253 N 0.20803 0.62988 0.43122 0.0
C254 C 0.2348 0.8705 0.44506 0.0
C255 C 0.21434 0.70769 0.44037 0.0
N256 N 0.36901 0.85287 0.49549 0.0
N257 N 0.0706 0.72663 0.41066 0.0
H258 H 0.25616 0.59181 0.44117 0.0
H259 H 0.1568 0.6035 0.41009 0.0
H260 H 0.01991 0.7609 0.39834 0.0
H261 H 0.05675 0.66924 0.41522 0.0
H262 H 0.37664 0.91124 0.50467 0.0
H263 H 0.41724 0.81888 0.51281 0.0
H264 H 0.3024 0.97458 0.45111 0.0
H265 H 0.19981 0.98575 0.42666 0.0
C266 C 0.02035 0.91653 0.18938 0.0
C267 C 0.03913 0.99129 0.17585 0.0
C268 C 0.0589 0.03711 0.25982 0.0
C269 C 0.02937 0.96536 0.27185 0.0
N270 N 0.96891 0.84129 0.24656 0.0
N271 N 0.06932 0.12527 0.19639 0.0
C272 C 0.00651 0.9062 0.23619 0.0
C273 C 0.05596 0.05253 0.21052 0.0
N274 N 0.01675 0.85516 0.1579 0.0
N275 N 0.09355 0.08876 0.29557 0.0
H276 H 0.07256 0.13781 0.16107 0.0
H277 H 0.07239 0.17383 0.219 0.0
H278 H 0.09921 0.07884 0.33231 0.0
H279 H 0.12351 0.1383 0.28917 0.0
H280 H 0.01177 0.79824 0.16786 0.0
H281 H 0.02519 0.86015 0.12283 0.0
H282 H 0.94325 0.8 0.22043 0.0
H283 H 0.95638 0.83229 0.28035 0.0
C284 C 0.06227 0.01414 0.80064 0.0
C285 C -0.00937 0.03939 0.81377 0.0
C286 C 0.92036 0.04174 0.7285 0.0
C287 C -0.01234 0.0047 0.71634 0.0
N288 N 0.12143 0.95177 0.73971 0.0
N289 N 0.85128 0.07783 0.79155 0.0
C290 C 0.05877 0.99067 0.752 0.0
C291 C 0.91962 0.05384 0.77801 0.0
N292 N 0.13348 0.01242 0.83456 0.0
N293 N 0.85814 0.0666 0.69261 0.0
H294 H 0.85023 0.09227 0.82732 0.0
H295 H 0.79489 0.08018 0.76787 0.0
H296 H 0.85744 0.05945 0.65592 0.0
H297 H 0.81073 0.10025 0.69891 0.0
H298 H 0.18901 0.00244 0.8261 0.0
H299 H 0.13851 0.02733 0.87088 0.0
H300 H 0.17082 0.93113 0.76496 0.0
H301 H 0.12168 0.93538 0.70414 0.0
C302 C 0.49731 0.42712 0.67971 0.0
C303 C 0.54233 0.49304 0.67271 0.0
C304 C 0.57458 0.52179 0.75986 0.0
C305 C 0.52494 0.45907 0.76638 0.0
N306 N 0.43015 0.35863 0.73313 0.0
N307 N 0.61556 0.60868 0.70395 0.0
C308 C 0.48382 0.41349 0.72642 0.0
C309 C 0.57846 0.54214 0.71219 0.0
N310 N 0.46793 0.37733 0.64174 0.0
N311 N 0.62026 0.55999 0.79932 0.0
H312 H 0.62316 0.62333 0.66977 0.0
H313 H 0.63459 0.65158 0.73027 0.0
H314 H 0.61799 0.548 0.83486 0.0
H315 H 0.66457 0.60007 0.79725 0.0
H316 H 0.44219 0.32413 0.64543 0.0
H317 H 0.47422 0.3863 0.60657 0.0
H318 H 0.39164 0.32879 0.70496 0.0
H319 H 0.41921 0.34712 0.76702 0.0
C320 C 0.5644 0.51879 0.30148 0.0
C321 C 0.49025 0.54285 0.31201 0.0
C322 C 0.42674 0.54123 0.22549 0.0
C323 C 0.49601 0.50398 0.21611 0.0
N324 N 0.63032 0.45444 0.24428 0.0
N325 N 0.35069 0.57848 0.28491 0.0
C326 C 0.5653 0.49302 0.25374 0.0
C327 C 0.42139 0.55497 0.27417 0.0
N328 N 0.63375 0.52004 0.33699 0.0
N329 N 0.36707 0.56481 0.1877 0.0
H330 H 0.34617 0.59418 0.31992 0.0
H331 H 0.29581 0.57915 0.25964 0.0
H332 H 0.37058 0.55742 0.15165 0.0
H333 H 0.31814 0.59816 0.19191 0.0
H334 H 0.69069 0.51138 0.33022 0.0
H335 H 0.63562 0.53502 0.37298 0.0
H336 H 0.67868 0.436 0.27112 0.0
H337 H 0.63373 0.43628 0.2095 0.0
loop_
_geom_bond_atom_site_label_1
_geom_bond_atom_site_label_2
_geom_bond_distance
_geom_bond_site_symmetry_2
_ccdc_geom_bond_type
O0 Zn1 1.953 . S
O0 C16 1.225 1_565 S
Zn1 O0 1.953 . S
Zn1 O2 1.949 1_565 S
Zn1 O8 1.919 . S
Zn1 O13 1.924 1_565 S
O2 Zn1 1.949 1_545 S
O2 Zn3 1.923 1_444 S
O2 Zn4 1.950 1_455 S
O2 Zn5 1.945 1_554 S
Zn3 O2 1.923 1_666 S
Zn3 O6 1.933 . S
Zn3 O9 1.941 1_655 S
Zn3 O10 1.965 . S
Zn4 O2 1.950 1_655 S
Zn4 O11 1.938 1_545 S
Zn4 O12 1.906 . S
Zn4 O22 1.953 . S
Zn5 O2 1.945 1_556 S
Zn5 O7 1.932 . S
Zn5 O14 1.977 1_455 S
Zn5 O15 1.910 . S
O6 Zn3 1.933 . S
O6 C17 1.226 1_565 S
O7 Zn5 1.932 . S
O7 C17 1.307 1_455 S
O8 Zn1 1.919 . S
O8 C19 1.253 . S
O9 Zn3 1.941 1_455 S
O9 C19 1.283 1_556 S
O10 Zn3 1.965 . S
O10 C18 1.303 1_556 S
O11 Zn4 1.938 1_565 S
O11 C18 1.247 . S
O12 Zn4 1.906 . S
O12 C20 1.304 1_554 S
O13 Zn1 1.924 1_545 S
O13 C21 1.311 . S
O14 Zn5 1.977 1_655 S
O14 C20 1.272 . S
O15 Zn5 1.910 . S
O15 C21 1.231 1_556 S
C16 O0 1.225 1_545 S
C16 O22 1.298 1_455 S
C17 O6 1.226 1_545 S
C17 O7 1.307 1_655 S
C18 O10 1.303 1_554 S
C18 O11 1.247 . S
C19 O8 1.253 . S
C19 O9 1.283 1_554 S
C20 O12 1.304 1_556 S
C20 O14 1.272 . S
C21 O13 1.311 . S
C21 O15 1.231 1_554 S
O22 Zn4 1.953 . S
O22 C16 1.298 1_655 S
O23 Zn24 1.953 . S
O23 C39 1.225 . S
Zn24 O23 1.953 . S
Zn24 O25 1.949 . S
Zn24 O31 1.919 . S
Zn24 O36 1.924 . S
O25 Zn24 1.949 . S
O25 Zn26 1.923 . S
O25 Zn27 1.950 . S
O25 Zn28 1.945 . S
Zn26 O25 1.923 . S
Zn26 O29 1.933 . S
Zn26 O32 1.941 . S
Zn26 O33 1.965 . S
Zn27 O25 1.950 . S
Zn27 O34 1.938 . S
Zn27 O35 1.906 . S
Zn27 O45 1.953 . S
Zn28 O25 1.945 . S
Zn28 O30 1.932 . S
Zn28 O37 1.977 . S
Zn28 O38 1.910 . S
O29 Zn26 1.933 . S
O29 C40 1.226 . S
O30 Zn28 1.932 . S
O30 C40 1.307 . S
O31 Zn24 1.919 . S
O31 C42 1.253 . S
O32 Zn26 1.941 . S
O32 C42 1.283 . S
O33 Zn26 1.965 . S
O33 C41 1.303 . S
O34 Zn27 1.938 . S
O34 C41 1.247 . S
O35 Zn27 1.906 . S
O35 C43 1.304 . S
O36 Zn24 1.924 . S
O36 C44 1.311 . S
O37 Zn28 1.977 . S
O37 C43 1.272 . S
O38 Zn28 1.910 . S
O38 C44 1.231 . S
C39 O23 1.225 . S
C39 O45 1.298 . S
C40 O29 1.226 . S
C40 O30 1.307 . S
C41 O33 1.303 . S
C41 O34 1.247 . S
C42 O31 1.253 . S
C42 O32 1.283 . S
C43 O35 1.304 . S
C43 O37 1.272 . S
C44 O36 1.311 . S
C44 O38 1.231 . S
O45 Zn27 1.953 . S
O45 C39 1.298 . S
H46 C47 0.949 1_655 S
C47 H46 0.949 1_455 S
C47 C48 1.395 1_545 S
C47 C49 1.391 . S
C48 C47 1.395 1_565 S
C48 C51 1.390 . S
C49 C47 1.391 . S
C49 C53 1.387 1_545 S
C49 C54 1.491 . S
H50 C51 0.950 . S
C51 C48 1.390 . S
C51 H50 0.950 . S
C51 C52 1.378 . S
C52 C51 1.378 . S
C52 C53 1.409 . S
C53 C49 1.387 1_565 S
C53 C52 1.409 . S
C53 H55 0.951 . S
C54 C49 1.491 . S
C54 C56 1.382 1_455 S
C54 C58 1.404 . S
H55 C53 0.951 . S
C56 C54 1.382 1_655 S
C56 C57 1.390 . S
C56 H61 0.949 . S
C57 C56 1.390 . S
C57 C62 1.399 . S
C58 C54 1.404 . S
C58 H59 0.950 . S
C58 C60 1.375 . S
H59 C58 0.950 . S
C60 C58 1.375 . S
C60 C62 1.382 1_455 S
C60 H64 0.950 . S
H61 C56 0.949 . S
C62 C57 1.399 . S
C62 C60 1.382 1_655 S
C62 H63 0.952 . S
H63 C62 0.952 . S
H64 C60 0.950 . S
H65 C66 0.949 . S
C66 H65 0.949 . S
C66 C67 1.395 1_445 S
C66 C68 1.391 1_455 S
C67 C66 1.395 1_665 S
C67 C70 1.390 . S
C68 C66 1.391 1_655 S
C68 C72 1.387 1_545 S
C68 C73 1.491 1_655 S
H69 C70 0.950 . S
C70 C67 1.390 . S
C70 H69 0.950 . S
C70 C71 1.378 . S
C71 C70 1.378 . S
C71 C72 1.409 . S
C72 C68 1.387 1_565 S
C72 C71 1.409 . S
C72 H74 0.951 . S
C73 C68 1.491 1_455 S
C73 C75 1.382 . S
C73 C77 1.404 1_455 S
H74 C72 0.951 . S
C75 C73 1.382 . S
C75 C76 1.390 . S
C75 H80 0.949 . S
C76 C75 1.390 . S
C76 C81 1.399 . S
C77 C73 1.404 1_655 S
C77 H78 0.950 . S
C77 C79 1.375 . S
H78 C77 0.950 . S
C79 C77 1.375 . S
C79 C81 1.382 1_655 S
C79 H83 0.950 . S
H80 C75 0.949 . S
C81 C76 1.399 . S
C81 C79 1.382 1_455 S
C81 H82 0.952 . S
H82 C81 0.952 . S
H83 C79 0.950 . S
H84 C85 0.949 . S
C85 H84 0.949 . S
C85 C86 1.395 . S
C85 C87 1.391 . S
C86 C85 1.395 . S
C86 C89 1.390 . S
C87 C85 1.391 . S
C87 C91 1.387 . S
C87 C92 1.491 . S
H88 C89 0.950 . S
C89 C86 1.390 . S
C89 H88 0.950 . S
C89 C90 1.378 . S
C90 C89 1.378 . S
C90 C91 1.409 . S
C91 C87 1.387 . S
C91 C90 1.409 . S
C91 H93 0.951 . S
C92 C87 1.491 . S
C92 C94 1.382 . S
C92 C96 1.404 1_556 S
H93 C91 0.951 . S
C94 C92 1.382 . S
C94 C95 1.390 . S
C94 H99 0.949 . S
C95 C94 1.390 . S
C95 C100 1.399 1_556 S
C96 C92 1.404 1_554 S
C96 H97 0.950 . S
C96 C98 1.375 . S
H97 C96 0.950 . S
C98 C96 1.375 . S
C98 C100 1.382 . S
C98 H102 0.950 . S
H99 C94 0.949 . S
C100 C95 1.399 1_554 S
C100 C98 1.382 . S
C100 H101 0.952 . S
H101 C100 0.952 . S
H102 C98 0.950 . S
H103 C104 0.949 . S
C104 H103 0.949 . S
C104 C105 1.395 . S
C104 C106 1.391 . S
C105 C104 1.395 . S
C105 C108 1.390 . S
C106 C104 1.391 . S
C106 C110 1.387 . S
C106 C111 1.491 . S
H107 C108 0.950 . S
C108 C105 1.390 . S
C108 H107 0.950 . S
C108 C109 1.378 . S
C109 C108 1.378 . S
C109 C110 1.409 . S
C110 C106 1.387 . S
C110 C109 1.409 . S
C110 H112 0.951 . S
C111 C106 1.491 . S
C111 C113 1.382 . S
C111 C115 1.416 . S
H112 C110 0.951 . S
C113 C111 1.382 . S
C113 C114 1.390 . S
C113 H118 0.949 . S
C114 C113 1.390 . S
C114 C119 1.399 1_554 S
C115 C111 1.416 . S
C115 H116 0.949 1_554 S
C115 C117 1.364 1_554 S
H116 C115 0.949 1_556 S
C117 C115 1.364 1_556 S
C117 C119 1.382 . S
C117 H121 0.950 . S
H118 C113 0.949 . S
C119 C114 1.399 1_556 S
C119 C117 1.382 . S
C119 H120 0.952 . S
H120 C119 0.952 . S
H121 C117 0.950 . S
C122 C123 1.363 . S
C122 C128 1.379 . S
C122 N130 1.356 . S
C123 C122 1.363 . S
C123 C129 1.363 . S
C124 C125 1.363 . S
C124 C129 1.379 . S
C124 N131 1.356 . S
C125 C124 1.363 . S
C125 C128 1.363 . S
N126 C128 1.356 . S
N126 H138 0.984 . S
N126 H139 0.985 . S
N127 C129 1.356 1_556 S
N127 H132 0.984 . S
N127 H133 0.985 . S
C128 C122 1.379 . S
C128 C125 1.363 . S
C128 N126 1.356 . S
C129 C123 1.363 . S
C129 C124 1.379 . S
C129 N127 1.356 1_554 S
N130 C122 1.356 . S
N130 H136 0.984 . S
N130 H137 0.984 . S
N131 C124 1.356 . S
N131 H134 0.984 . S
N131 H135 0.985 1_554 S
H132 N127 0.984 . S
H133 N127 0.985 . S
H134 N131 0.984 . S
H135 N131 0.985 1_556 S
H136 N130 0.984 . S
H137 N130 0.984 . S
H138 N126 0.984 . S
H139 N126 0.985 . S
C140 C141 1.363 . S
C140 C146 1.379 . S
C140 N148 1.356 . S
C141 C140 1.363 . S
C141 C147 1.363 1_556 S
C142 C143 1.363 1_554 S
C142 C147 1.379 . S
C142 N149 1.356 . S
C143 C142 1.363 1_556 S
C143 C146 1.363 . S
N144 C146 1.356 . S
N144 H156 0.984 . S
N144 H157 0.985 . S
N145 C147 1.356 . S
N145 H150 0.984 . S
N145 H151 0.985 . S
C146 C140 1.379 . S
C146 C143 1.363 . S
C146 N144 1.356 . S
C147 C141 1.363 1_554 S
C147 C142 1.379 . S
C147 N145 1.356 . S
N148 C140 1.356 . S
N148 H154 0.984 . S
N148 H155 0.984 . S
N149 C142 1.356 . S
N149 H152 0.984 . S
N149 H153 0.985 . S
H150 N145 0.984 . S
H151 N145 0.985 . S
H152 N149 0.984 . S
H153 N149 0.985 . S
H154 N148 0.984 . S
H155 N148 0.984 . S
H156 N144 0.984 . S
H157 N144 0.985 . S
C158 C159 1.363 . S
C158 C164 1.379 . S
C158 N166 1.356 . S
C159 C158 1.363 . S
C159 C165 1.363 1_554 S
C160 C161 1.363 1_556 S
C160 C165 1.379 . S
C160 N167 1.356 . S
C161 C160 1.363 1_554 S
C161 C164 1.363 . S
N162 C164 1.356 . S
N162 H174 0.984 . S
N162 H175 0.985 . S
N163 C165 1.356 . S
N163 H168 0.984 . S
N163 H169 0.985 . S
C164 C158 1.379 . S
C164 C161 1.363 . S
C164 N162 1.356 . S
C165 C159 1.363 1_556 S
C165 C160 1.379 . S
C165 N163 1.356 . S
N166 C158 1.356 . S
N166 H172 0.984 . S
N166 H173 0.984 . S
N167 C160 1.356 . S
N167 H170 0.984 . S
N167 H171 0.985 . S
H168 N163 0.984 . S
H169 N163 0.985 . S
H170 N167 0.984 . S
H171 N167 0.985 . S
H172 N166 0.984 . S
H173 N166 0.984 . S
H174 N162 0.984 . S
H175 N162 0.985 . S
C176 C177 1.363 . S
C176 C182 1.379 . S
C176 N184 1.356 . S
C177 C176 1.363 . S
C177 C183 1.363 . S
C178 C179 1.363 . S
C178 C183 1.379 . S
C178 N185 1.356 . S
C179 C178 1.363 . S
C179 C182 1.363 . S
N180 C182 1.356 . S
N180 H192 0.984 . S
N180 H193 0.985 . S
N181 C183 1.356 1_554 S
N181 H186 0.984 . S
N181 H187 0.985 . S
C182 C176 1.379 . S
C182 C179 1.363 . S
C182 N180 1.356 . S
C183 C177 1.363 . S
C183 C178 1.379 . S
C183 N181 1.356 1_556 S
N184 C176 1.356 . S
N184 H190 0.984 . S
N184 H191 0.984 . S
N185 C178 1.356 . S
N185 H188 0.984 . S
N185 H189 0.985 1_556 S
H186 N181 0.984 . S
H187 N181 0.985 . S
H188 N185 0.984 . S
H189 N185 0.985 1_554 S
H190 N184 0.984 . S
H191 N184 0.984 . S
H192 N180 0.984 . S
H193 N180 0.985 . S
C194 C195 1.363 . S
C194 C200 1.379 . S
C194 N202 1.356 . S
C195 C194 1.363 . S
C195 C201 1.363 . S
C196 C197 1.363 . S
C196 C201 1.379 . S
C196 N203 1.356 . S
C197 C196 1.363 . S
C197 C200 1.363 . S
N198 C200 1.356 . S
N198 H210 0.984 . S
N198 H211 0.985 . S
N199 C201 1.356 . S
N199 H204 0.984 . S
N199 H205 0.985 . S
C200 C194 1.379 . S
C200 C197 1.363 . S
C200 N198 1.356 . S
C201 C195 1.363 . S
C201 C196 1.379 . S
C201 N199 1.356 . S
N202 C194 1.356 . S
N202 H208 0.984 . S
N202 H209 0.984 . S
N203 C196 1.356 . S
N203 H206 0.984 . S
N203 H207 0.985 . S
H204 N199 0.984 . S
H205 N199 0.985 . S
H206 N203 0.984 . S
H207 N203 0.985 . S
H208 N202 0.984 . S
H209 N202 0.984 . S
H210 N198 0.984 . S
H211 N198 0.985 . S
C212 C213 1.363 . S
C212 C218 1.379 . S
C212 N220 1.356 . S
C213 C212 1.363 . S
C213 C219 1.363 . S
C214 C215 1.363 . S
C214 C219 1.379 . S
C214 N221 1.356 . S
C215 C214 1.363 . S
C215 C218 1.363 . S
N216 C218 1.356 . S
N216 H228 0.984 . S
N216 H229 0.985 . S
N217 C219 1.356 . S
N217 H222 0.984 . S
N217 H223 0.985 . S
C218 C212 1.379 . S
C218 C215 1.363 . S
C218 N216 1.356 . S
C219 C213 1.363 . S
C219 C214 1.379 . S
C219 N217 1.356 . S
N220 C212 1.356 . S
N220 H226 0.984 . S
N220 H227 0.984 . S
N221 C214 1.356 . S
N221 H224 0.984 . S
N221 H225 0.985 . S
H222 N217 0.984 . S
H223 N217 0.985 . S
H224 N221 0.984 . S
H225 N221 0.985 . S
H226 N220 0.984 . S
H227 N220 0.984 . S
H228 N216 0.984 . S
H229 N216 0.985 . S
C230 C231 1.363 . S
C230 C236 1.379 . S
C230 N238 1.356 . S
C231 C230 1.363 . S
C231 C237 1.363 . S
C232 C233 1.363 . S
C232 C237 1.379 . S
C232 N239 1.356 . S
C233 C232 1.363 . S
C233 C236 1.363 . S
N234 C236 1.356 . S
N234 H246 0.984 . S
N234 H247 0.985 . S
N235 C237 1.356 . S
N235 H240 0.984 . S
N235 H241 0.985 . S
C236 C230 1.379 . S
C236 C233 1.363 . S
C236 N234 1.356 . S
C237 C231 1.363 . S
C237 C232 1.379 . S
C237 N235 1.356 . S
N238 C230 1.356 . S
N238 H244 0.984 . S
N238 H245 0.984 . S
N239 C232 1.356 . S
N239 H242 0.984 . S
N239 H243 0.985 . S
H240 N235 0.984 . S
H241 N235 0.985 . S
H242 N239 0.984 . S
H243 N239 0.985 . S
H244 N238 0.984 . S
H245 N238 0.984 . S
H246 N234 0.984 . S
H247 N234 0.985 . S
C248 C249 1.363 . S
C248 C254 1.379 . S
C248 N256 1.356 . S
C249 C248 1.363 . S
C249 C255 1.363 . S
C250 C251 1.363 . S
C250 C255 1.379 . S
C250 N257 1.356 . S
C251 C250 1.363 . S
C251 C254 1.363 . S
N252 C254 1.356 . S
N252 H264 0.984 . S
N252 H265 0.985 . S
N253 C255 1.356 . S
N253 H258 0.984 . S
N253 H259 0.985 . S
C254 C248 1.379 . S
C254 C251 1.363 . S
C254 N252 1.356 . S
C255 C249 1.363 . S
C255 C250 1.379 . S
C255 N253 1.356 . S
N256 C248 1.356 . S
N256 H262 0.984 . S
N256 H263 0.984 . S
N257 C250 1.356 . S
N257 H260 0.984 . S
N257 H261 0.985 . S
H258 N253 0.984 . S
H259 N253 0.985 . S
H260 N257 0.984 . S
H261 N257 0.985 . S
H262 N256 0.984 . S
H263 N256 0.984 . S
H264 N252 0.984 . S
H265 N252 0.985 . S
C266 C267 1.374 . S
C266 C272 1.379 . S
C266 N274 1.356 1_455 S
C267 C266 1.374 . S
C267 C273 1.354 1_565 S
C268 C269 1.363 1_545 S
C268 C273 1.379 . S
C268 N275 1.356 . S
C269 C268 1.363 1_565 S
C269 C272 1.363 . S
N270 C272 1.356 1_655 S
N270 H282 0.984 . S
N270 H283 0.985 . S
N271 C273 1.356 . S
N271 H276 0.984 . S
N271 H277 0.985 . S
C272 C266 1.379 . S
C272 C269 1.363 . S
C272 N270 1.356 1_455 S
C273 C267 1.354 1_545 S
C273 C268 1.379 . S
C273 N271 1.356 . S
N274 C266 1.356 1_655 S
N274 H280 0.984 . S
N274 H281 0.984 . S
N275 C268 1.356 . S
N275 H278 0.984 . S
N275 H279 0.985 . S
H276 N271 0.984 . S
H277 N271 0.985 . S
H278 N275 0.984 . S
H279 N275 0.985 . S
H280 N274 0.984 . S
H281 N274 0.984 . S
H282 N270 0.984 . S
H283 N270 0.985 . S
C284 C285 1.354 1_465 S
C284 C290 1.379 . S
C284 N292 1.356 . S
C285 C284 1.354 1_645 S
C285 C291 1.371 . S
C286 C287 1.363 1_545 S
C286 C291 1.379 . S
C286 N293 1.356 . S
C287 C286 1.363 1_565 S
C287 C290 1.363 1_655 S
N288 C290 1.356 . S
N288 H300 0.984 . S
N288 H301 0.985 . S
N289 C291 1.356 . S
N289 H294 0.984 . S
N289 H295 0.985 . S
C290 C284 1.379 . S
C290 C287 1.363 1_455 S
C290 N288 1.356 . S
C291 C285 1.371 . S
C291 C286 1.379 . S
C291 N289 1.356 . S
N292 C284 1.356 . S
N292 H298 0.984 . S
N292 H299 0.984 . S
N293 C286 1.356 . S
N293 H296 0.984 . S
N293 H297 0.985 . S
H294 N289 0.984 . S
H295 N289 0.985 . S
H296 N293 0.984 . S
H297 N293 0.985 . S
H298 N292 0.984 . S
H299 N292 0.984 . S
H300 N288 0.984 . S
H301 N288 0.985 . S
C302 C303 1.363 . S
C302 C308 1.379 . S
C302 N310 1.356 . S
C303 C302 1.363 . S
C303 C309 1.363 . S
C304 C305 1.363 . S
C304 C309 1.379 . S
C304 N311 1.356 . S
C305 C304 1.363 . S
C305 C308 1.363 . S
N306 C308 1.356 . S
N306 H318 0.984 . S
N306 H319 0.985 . S
N307 C309 1.356 . S
N307 H312 0.984 . S
N307 H313 0.985 . S
C308 C302 1.379 . S
C308 C305 1.363 . S
C308 N306 1.356 . S
C309 C303 1.363 . S
C309 C304 1.379 . S
C309 N307 1.356 . S
N310 C302 1.356 . S
N310 H316 0.984 . S
N310 H317 0.984 . S
N311 C304 1.356 . S
N311 H314 0.984 . S
N311 H315 0.985 . S
H312 N307 0.984 . S
H313 N307 0.985 . S
H314 N311 0.984 . S
H315 N311 0.985 . S
H316 N310 0.984 . S
H317 N310 0.984 . S
H318 N306 0.984 . S
H319 N306 0.985 . S
C320 C321 1.363 . S
C320 C326 1.379 . S
C320 N328 1.356 . S
C321 C320 1.363 . S
C321 C327 1.363 . S
C322 C323 1.363 . S
C322 C327 1.379 . S
C322 N329 1.356 . S
C323 C322 1.363 . S
C323 C326 1.363 . S
N324 C326 1.356 . S
N324 H336 0.984 . S
N324 H337 0.985 . S
N325 C327 1.356 . S
N325 H330 0.984 . S
N325 H331 0.985 . S
C326 C320 1.379 . S
C326 C323 1.363 . S
C326 N324 1.356 . S
C327 C321 1.363 . S
C327 C322 1.379 . S
C327 N325 1.356 . S
N328 C320 1.356 . S
N328 H334 0.984 . S
N328 H335 0.984 . S
N329 C322 1.356 . S
N329 H332 0.984 . S
N329 H333 0.985 . S
H330 N325 0.984 . S
H331 N325 0.985 . S
H332 N329 0.984 . S
H333 N329 0.985 . S
H334 N328 0.984 . S
H335 N328 0.984 . S
H336 N324 0.984 . S
H337 N324 0.985 . S
C125 C109 1.570 . S
C123 C21 1.561 . S
C141 C19 1.438 1_556 S
C143 C95 1.396 . S
C159 C18 1.404 . S
C161 C114 1.381 . S
C177 C20 1.542 . S
C179 C90 1.562 . S
C195 C44 1.561 . S
C197 C71 1.570 . S
C213 C42 1.438 . S
C215 C57 1.396 . S
C233 C76 1.381 . S
C231 C41 1.404 . S
C251 C52 1.562 . S
C249 C43 1.542 . S
C267 C16 1.562 1_565 S
C269 C48 1.556 . S
C285 C17 1.528 . S
C287 C67 1.521 . S
C305 C86 1.556 . S
C303 C39 1.563 . S
C321 C40 1.528 . S
C323 C105 1.521 . S
