# Generated by pormake.
# Topology pyr, (3,6)-cn, num edge types: 1
# Building blocks:
#     Node 0, Type 0, BuildingBlock: BETDAH_clean_linker_0, # of connection points: 3
#     Node 1, Type 0, BuildingBlock: BETDAH_clean_linker_0, # of connection points: 3
#     Node 2, Type 0, BuildingBlock: BETDAH_clean_linker_0, # of connection points: 3
#     Node 3, Type 0, BuildingBlock: BETDAH_clean_linker_0, # of connection points: 3
#     Node 4, Type 0, BuildingBlock: BETDAH_clean_linker_0, # of connection points: 3
#     Node 5, Type 0, BuildingBlock: BETDAH_clean_linker_0, # of connection points: 3
#     Node 6, Type 0, BuildingBlock: BETDAH_clean_linker_0, # of connection points: 3
#     Node 7, Type 0, BuildingBlock: BETDAH_clean_linker_0, # of connection points: 3
#     Node 8, Type 1, BuildingBlock: GEDQOX_clean_sbu_0, # of connection points: 6
#     Node 9, Type 1, BuildingBlock: GEDQOX_clean_sbu_0, # of connection points: 6
#     Node 10, Type 1, BuildingBlock: GEDQOX_clean_sbu_0, # of connection points: 6
#     Node 11, Type 1, BuildingBlock: GEDQOX_clean_sbu_0, # of connection points: 6
#     Edge 12, Type (0, 1), BuildingBlock: OJICUG_clean_linker_0, # of connection points: 2
#     Edge 13, Type (0, 1), BuildingBlock: OJICUG_clean_linker_0, # of connection points: 2
#     Edge 14, Type (0, 1), BuildingBlock: OJICUG_clean_linker_0, # of connection points: 2
#     Edge 15, Type (0, 1), BuildingBlock: OJICUG_clean_linker_0, # of connection points: 2
#     Edge 16, Type (0, 1), BuildingBlock: OJICUG_clean_linker_0, # of connection points: 2
#     Edge 17, Type (0, 1), BuildingBlock: OJICUG_clean_linker_0, # of connection points: 2
#     Edge 18, Type (0, 1), BuildingBlock: OJICUG_clean_linker_0, # of connection points: 2
#     Edge 19, Type (0, 1), BuildingBlock: OJICUG_clean_linker_0, # of connection points: 2
#     Edge 20, Type (0, 1), BuildingBlock: OJICUG_clean_linker_0, # of connection points: 2
#     Edge 21, Type (0, 1), BuildingBlock: OJICUG_clean_linker_0, # of connection points: 2
#     Edge 22, Type (0, 1), BuildingBlock: OJICUG_clean_linker_0, # of connection points: 2
#     Edge 23, Type (0, 1), BuildingBlock: OJICUG_clean_linker_0, # of connection points: 2
#     Edge 24, Type (0, 1), BuildingBlock: OJICUG_clean_linker_0, # of connection points: 2
#     Edge 25, Type (0, 1), BuildingBlock: OJICUG_clean_linker_0, # of connection points: 2
#     Edge 26, Type (0, 1), BuildingBlock: OJICUG_clean_linker_0, # of connection points: 2
#     Edge 27, Type (0, 1), BuildingBlock: OJICUG_clean_linker_0, # of connection points: 2
#     Edge 28, Type (0, 1), BuildingBlock: OJICUG_clean_linker_0, # of connection points: 2
#     Edge 29, Type (0, 1), BuildingBlock: OJICUG_clean_linker_0, # of connection points: 2
#     Edge 30, Type (0, 1), BuildingBlock: OJICUG_clean_linker_0, # of connection points: 2
#     Edge 31, Type (0, 1), BuildingBlock: OJICUG_clean_linker_0, # of connection points: 2
#     Edge 32, Type (0, 1), BuildingBlock: OJICUG_clean_linker_0, # of connection points: 2
#     Edge 33, Type (0, 1), BuildingBlock: OJICUG_clean_linker_0, # of connection points: 2
#     Edge 34, Type (0, 1), BuildingBlock: OJICUG_clean_linker_0, # of connection points: 2
#     Edge 35, Type (0, 1), BuildingBlock: OJICUG_clean_linker_0, # of connection points: 2
# Relax obj value: 0.272
# Max RMSD: 0.209
# Mean RMSD: 0.155
data_MOF--net-pyr--node1-GEDQOX_clean_sbu_0--node2-BETDAH_clean_linker_0--edge1-OJICUG_clean_linker_0
_symmetry_space_group_name_H-M    P1
_symmetry_Int_Tables_number       1
_symmetry_cell_setting            triclinic
loop_
_symmetry_equiv_pos_as_xyz
'x, y, z'
_cell_length_a     28.826456
_cell_length_b     28.28095
_cell_length_c     26.043061
_cell_angle_alpha  87.46979
_cell_angle_beta   89.641038
_cell_angle_gamma 86.935112
loop_
_atom_site_label
_atom_site_type_symbol
_atom_site_fract_x
_atom_site_fract_y
_atom_site_fract_z
_atom_type_partial_charge
H0 H 0.29333 0.1149 0.28578 0.0
H1 H 0.29056 0.21359 0.15463 0.0
H2 H 0.17782 0.21803 0.26288 0.0
C3 C 0.27666 0.14448 0.26401 0.0
C4 C 0.23279 0.16421 0.28163 0.0
C5 C 0.29887 0.1619 0.21816 0.0
C6 C 0.27552 0.20016 0.1902 0.0
C7 C 0.23272 0.22175 0.20647 0.0
C8 C 0.21186 0.20353 0.25221 0.0
N9 N 0.20752 0.25316 0.16983 0.0
C10 C 0.18657 0.29936 0.1741 0.0
H11 H 0.48303 0.84075 0.85951 0.0
H12 H 0.35776 0.8972 0.93088 0.0
H13 H 0.35049 0.78598 0.82593 0.0
C14 C 0.44571 0.84093 0.86463 0.0
C15 C 0.41964 0.80828 0.83888 0.0
C16 C 0.42344 0.87391 0.89725 0.0
C17 C 0.37522 0.87299 0.90501 0.0
C18 C 0.34897 0.84144 0.8794 0.0
C19 C 0.37119 0.80977 0.84613 0.0
N20 N 0.30017 0.84228 0.88743 0.0
C21 C 0.27003 0.82799 0.8504 0.0
H22 H 0.83444 0.42729 0.96251 0.0
H23 H 0.86936 0.5116 0.82666 0.0
H24 H 0.74359 0.43855 0.83119 0.0
C25 C 0.82674 0.44101 0.92384 0.0
C26 C 0.78571 0.42831 0.89958 0.0
C27 C 0.85673 0.47269 0.89862 0.0
C28 C 0.84607 0.48917 0.84809 0.0
C29 C 0.80497 0.47845 0.8246 0.0
C30 C 0.77481 0.44809 0.85031 0.0
N31 N 0.79497 0.49906 0.77501 0.0
C32 C 0.75004 0.50755 0.75685 0.0
H33 H 0.8681 0.89321 0.41618 0.0
H34 H 0.91263 0.96589 0.27704 0.0
H35 H 0.80626 0.86572 0.27214 0.0
C36 C 0.86633 0.89906 0.37482 0.0
C37 C 0.83433 0.87491 0.34689 0.0
C38 C 0.895 0.9318 0.35024 0.0
C39 C 0.8905 0.94118 0.29687 0.0
C40 C 0.85896 0.91701 0.26838 0.0
C41 C 0.83084 0.8842 0.29376 0.0
N42 N 0.85701 0.92472 0.21411 0.0
C43 C 0.84523 0.88879 0.18265 0.0
H44 H 0.99683 0.84984 0.8436 0.0
H45 H 0.90225 0.86709 0.97193 0.0
H46 H 0.90456 0.97463 0.85081 0.0
C47 C 0.96928 0.86992 0.86253 0.0
C48 C 0.95309 0.91452 0.83952 0.0
C49 C 0.95131 0.85126 0.9102 0.0
C50 C 0.91491 0.87866 0.93448 0.0
C51 C 0.89731 0.92306 0.91297 0.0
C52 C 0.91714 0.94014 0.86606 0.0
N53 N 0.8705 0.95652 0.94352 0.0
C54 C 0.82384 0.95716 0.96177 0.0
H55 H 0.71773 0.20332 0.34961 0.0
H56 H 0.69323 0.33663 0.42104 0.0
H57 H 0.60583 0.30054 0.29782 0.0
C58 C 0.69816 0.23694 0.35146 0.0
C59 C 0.66017 0.24714 0.31844 0.0
C60 C 0.7113 0.26943 0.3875 0.0
C61 C 0.68363 0.31141 0.39338 0.0
C62 C 0.64494 0.32194 0.36148 0.0
C63 C 0.63443 0.29054 0.32347 0.0
N64 N 0.61676 0.36457 0.36478 0.0
C65 C 0.61318 0.39278 0.40733 0.0
H66 H 0.2769 0.72441 0.18836 0.0
H67 H 0.21263 0.65104 0.31657 0.0
H68 H 0.34163 0.71592 0.33728 0.0
C69 C 0.27704 0.71229 0.2284 0.0
C70 C 0.31424 0.72266 0.26025 0.0
C71 C 0.23977 0.68674 0.24832 0.0
C72 C 0.24047 0.67143 0.30057 0.0
C73 C 0.2773 0.68114 0.33252 0.0
C74 C 0.31389 0.70693 0.31222 0.0
N75 N 0.2764 0.66486 0.38496 0.0
C76 C 0.31434 0.66539 0.41772 0.0
H77 H 0.28483 0.17773 0.68727 0.0
H78 H 0.32458 0.22763 0.83276 0.0
H79 H 0.22189 0.12353 0.82676 0.0
C80 C 0.28229 0.17617 0.72886 0.0
C81 C 0.25146 0.14572 0.75356 0.0
C82 C 0.30785 0.20671 0.75699 0.0
C83 C 0.3048 0.20426 0.81069 0.0
C84 C 0.27292 0.17538 0.83602 0.0
C85 C 0.24739 0.14491 0.80747 0.0
N86 N 0.26171 0.18173 0.88856 0.0
C87 C 0.26214 0.22665 0.9084 0.0
Nd88 Nd 0.10397 0.99048 0.54346 0.0
Nd89 Nd 0.054 0.08152 0.55467 0.0
C90 C 0.14164 0.90625 0.5247 0.0
C91 C 0.15247 0.86764 0.56341 0.0
C92 C 0.11928 0.85624 0.6012 0.0
C93 C 0.13323 0.83443 0.64808 0.0
C94 C 0.18054 0.82377 0.65799 0.0
C95 C 0.21284 0.82954 0.61775 0.0
C96 C 0.19886 0.85133 0.57076 0.0
C97 C 0.14067 0.04213 0.61887 0.0
C98 C 0.03608 0.99456 0.64374 0.0
C99 C 1.00325 0.15907 0.57658 0.0
C100 C 0.95979 0.17856 0.55264 0.0
C101 C 0.94289 0.22522 0.56014 0.0
C102 C 0.90217 0.24326 0.53527 0.0
C103 C 0.87845 0.21494 0.50215 0.0
C104 C 0.89518 0.16803 0.49567 0.0
C105 C 0.93523 0.15002 0.52082 0.0
C106 C 1.01682 1.02885 0.48015 0.0
C107 C 0.13182 0.0802 0.46337 0.0
O108 O 0.09758 0.91765 0.51664 0.0
O109 O 0.16619 0.94343 0.5291 0.0
O110 O 0.13704 0.9967 0.62269 0.0
O111 O 0.12719 0.05896 0.57557 0.0
O112 O 0.05575 0.96571 0.61036 0.0
O113 O 0.0365 0.04112 0.63372 0.0
O114 O 0.04016 0.15976 0.54734 0.0
O115 O 1.00011 0.11842 0.60166 0.0
O116 O 1.02109 0.0739 0.47575 0.0
O117 O 1.0302 1.01293 0.52373 0.0
O118 O 0.11089 0.10779 0.49743 0.0
O119 O 0.12879 0.03346 0.46933 0.0
H120 H 0.08312 0.86805 0.59668 0.0
H121 H 0.10747 0.82957 0.67806 0.0
H122 H 0.2496 0.82177 0.62417 0.0
H123 H 0.22506 0.85981 0.54229 0.0
H124 H 0.96134 0.24772 0.5847 0.0
H125 H 0.88992 0.27956 0.54083 0.0
H126 H 0.87721 0.14518 0.47104 0.0
H127 H 0.94711 0.11367 0.51517 0.0
Nd128 Nd 0.56674 1.02812 0.12695 0.0
Nd129 Nd 0.5624 0.09446 0.05562 0.0
C130 C 0.56861 0.94591 0.18011 0.0
C131 C 0.53237 0.91211 0.19137 0.0
C132 C 0.54331 0.86327 0.19067 0.0
C133 C 0.50848 0.83095 0.19777 0.0
C134 C 0.46198 0.84693 0.20586 0.0
C135 C 0.45129 0.89605 0.20652 0.0
C136 C 0.48604 0.92828 0.19901 0.0
C137 C 0.4851 0.08481 0.14587 0.0
C138 C 0.51506 1.0058 1.02158 0.0
C139 C 0.56263 0.17615 1.00042 0.0
C140 C 0.5964 0.21275 0.98903 0.0
C141 C 0.5887 0.24524 0.94743 0.0
C142 C 0.6198 0.28076 0.93666 0.0
C143 C 0.65938 0.28474 0.96741 0.0
C144 C 0.6672 0.25165 1.00891 0.0
C145 C 0.63602 0.21601 1.01959 0.0
C146 C 0.64194 0.03443 1.03727 0.0
C147 C 0.60983 0.11754 0.16293 0.0
O148 O 0.5811 0.95009 0.13207 0.0
O149 O 0.56368 0.9868 0.20131 0.0
O150 O 0.51627 0.0704 0.1792 0.0
O151 O 0.49817 0.07128 0.10151 0.0
O152 O 0.5437 0.98807 0.05715 0.0
O153 O 0.50763 0.05195 1.01761 0.0
O154 O 0.54793 0.17233 1.0477 0.0
O155 O 0.5714 0.13496 0.98109 0.0
O156 O 0.61012 0.04783 1.00432 0.0
O157 O 0.6304 0.05083 0.08078 0.0
O158 O 0.5808 0.13432 0.12739 0.0
O159 O 0.61992 0.07188 0.16574 0.0
H160 H 0.57872 0.85013 0.1839 0.0
H161 H 0.51794 0.79347 0.19624 0.0
H162 H 0.41611 0.90973 0.21345 0.0
H163 H 0.47658 0.96589 0.19889 0.0
H164 H 0.5585 0.24319 0.92322 0.0
H165 H 0.61302 0.30483 0.90375 0.0
H166 H 0.69701 0.2537 1.03364 0.0
H167 H 0.64266 0.19119 0.05193 0.0
Nd168 Nd 0.48185 0.57287 0.63763 0.0
Nd169 Nd 0.55727 0.63728 0.60139 0.0
C170 C 0.40555 0.53014 0.66342 0.0
C171 C 0.39365 0.48059 0.66797 0.0
C172 C 0.34767 0.4694 0.67755 0.0
C173 C 0.33663 0.42217 0.68497 0.0
C174 C 0.37156 0.38555 0.68306 0.0
C175 C 0.41754 0.39696 0.67241 0.0
C176 C 0.42849 0.44423 0.66466 0.0
C177 C 0.56591 0.5518 0.68307 0.0
C178 C 0.49102 0.67408 0.69099 0.0
C179 C 0.63454 0.67939 0.57702 0.0
C180 C 0.65972 0.70133 0.53348 0.0
C181 C 0.70298 0.68123 0.5185 0.0
C182 C 0.73031 0.70501 0.48233 0.0
C183 C 0.71506 0.74963 0.46089 0.0
C184 C 0.67082 0.76868 0.47434 0.0
C185 C 0.64341 0.74477 0.51016 0.0
C186 C 0.47435 0.65194 0.54867 0.0
C187 C 0.5531 0.53066 0.55307 0.0
O188 O 0.43574 0.54249 0.69694 0.0
O189 O 0.4136 0.5469 0.61678 0.0
O190 O 0.53743 0.51986 0.67167 0.0
O191 O 0.54839 0.59314 0.67395 0.0
O192 O 0.46159 0.64457 0.67321 0.0
O193 O 0.53461 0.67248 0.67558 0.0
O194 O 0.63193 0.63328 0.57895 0.0
O195 O 0.59651 0.70182 0.59248 0.0
O196 O 0.50125 0.68582 0.5579 0.0
O197 O 0.49349 0.61293 0.56321 0.0
O198 O 0.57803 0.56785 0.56046 0.0
O199 O 0.51198 0.52624 0.57491 0.0
H200 H 0.32051 0.4972 0.68031 0.0
H201 H 0.30101 0.41437 0.69387 0.0
H202 H 0.44499 0.3694 0.67044 0.0
H203 H 0.46421 0.45251 0.65701 0.0
H204 H 0.71638 0.64785 0.53604 0.0
H205 H 0.76389 0.68899 0.47216 0.0
H206 H 0.65818 0.80321 0.45915 0.0
H207 H 0.61025 0.76134 0.52097 0.0
Nd208 Nd 1.01977 0.57151 0.08774 0.0
Nd209 Nd 0.10603 0.57753 1.01312 0.0
C210 C 0.93161 0.56829 0.11277 0.0
C211 C 0.89678 0.6085 0.11599 0.0
C212 C 0.88405 0.63627 0.0715 0.0
C213 C 0.86243 0.68129 0.07556 0.0
C214 C 0.85272 0.69917 0.12401 0.0
C215 C 0.86057 0.66945 0.16816 0.0
C216 C 0.88248 0.62444 0.16417 0.0
C217 C 0.08566 0.62533 0.13099 0.0
C218 C 1.03114 0.66832 1.00693 0.0
C219 C 0.18835 0.56602 0.96991 0.0
C220 C 0.21432 0.52094 0.95867 0.0
C221 C 0.23735 0.4933 0.99797 0.0
C222 C 0.2522 0.44623 0.99018 0.0
C223 C 0.24447 0.42585 0.94291 0.0
C224 C 0.22456 0.45469 0.90254 0.0
C225 C 0.21002 0.5017 0.91022 0.0
C226 C 1.02889 0.53746 0.97653 0.0
C227 C 0.1002 0.48378 0.09953 0.0
O228 O 0.94734 0.55992 0.06655 0.0
O229 O 0.96468 0.56596 0.14745 0.0
O230 O 0.04671 0.6156 0.15348 0.0
O231 O 0.08721 0.60664 0.08805 0.0
O232 O 1.00339 0.64009 1.03399 0.0
O233 O 0.07563 0.65504 0.99967 0.0
O234 O 0.18298 0.57549 1.01846 0.0
O235 O 0.15025 0.57526 0.94341 0.0
O236 O 0.05375 0.56584 0.9488 0.0
O237 O 0.04568 0.53076 1.02082 0.0
O238 O 0.12348 0.50764 0.06327 0.0
O239 O 0.05812 0.49962 0.11481 0.0
H240 H 0.89388 0.62496 1.03357 0.0
H241 H 0.8561 0.70336 1.04098 0.0
H242 H 0.85344 0.68248 0.20606 0.0
H243 H 0.89147 0.60371 0.19901 0.0
H244 H 0.24178 0.50714 1.03564 0.0
H245 H 0.26838 0.42538 1.02172 0.0
H246 H 0.21769 0.44032 0.86566 0.0
H247 H 0.19273 0.52207 0.87901 0.0
C248 C 0.1803 0.17106 0.36248 0.0
C249 C 0.20783 0.14271 0.32917 0.0
H250 H 0.13609 0.1748 0.42959 0.0
C251 C 0.21012 0.09331 0.34147 0.0
H252 H 0.17738 0.20912 0.3556 0.0
C253 C 0.18587 0.07338 0.38427 0.0
C254 C 0.15843 0.10179 0.41748 0.0
H255 H 0.23002 0.06951 0.31726 0.0
H256 H 0.18868 0.03532 0.39126 0.0
C257 C 0.1565 0.15117 0.40563 0.0
C258 C 0.43336 0.9567 0.9256 0.0
C259 C 0.44977 0.90888 0.92477 0.0
H260 H 0.44123 1.02505 0.95635 0.0
C261 C 0.48912 0.89409 0.95383 0.0
H262 H 0.40318 0.96917 0.9033 0.0
C263 C 0.51045 0.92589 0.98463 0.0
C264 C 0.49335 0.97342 0.98655 0.0
H265 H 0.50232 0.85748 0.95432 0.0
H266 H 0.54012 0.91295 1.00749 0.0
C267 C 0.45512 0.98872 0.95589 0.0
C268 C 0.68828 0.56605 0.72892 0.0
C269 C 0.70361 0.5187 0.73877 0.0
H270 H 0.63201 0.61386 0.70344 0.0
C271 C 0.67368 0.48236 0.73111 0.0
H272 H 0.71119 0.59447 0.73479 0.0
C273 C 0.62861 0.49329 0.71329 0.0
C274 C 0.61302 0.54071 0.70314 0.0
H275 H 0.68516 0.44561 0.73873 0.0
H276 H 0.60606 0.46461 0.70729 0.0
C277 C 0.64316 0.57706 0.71119 0.0
C278 C 0.87096 0.83 0.12077 0.0
C279 C 0.83863 0.84531 0.15757 0.0
H280 H 0.90008 0.7711 0.0805 0.0
C281 C 0.8057 0.8143 0.17686 0.0
H282 H 0.89685 0.85344 0.10578 0.0
C283 C 0.80797 0.76699 0.16324 0.0
C284 C 0.84263 0.75054 0.12934 0.0
H285 H 0.78001 0.82565 0.20484 0.0
H286 H 0.78425 0.74273 0.18113 0.0
C287 C 0.87272 0.78296 0.10637 0.0
C288 C 0.35686 0.13755 0.14557 0.0
C289 C 0.34598 0.1405 0.19877 0.0
H290 H 0.40727 0.11798 0.08695 0.0
C291 C 0.38159 0.12404 0.23315 0.0
H292 H 0.33098 0.14897 0.11709 0.0
C293 C 0.42565 0.10644 0.21554 0.0
C294 C 0.4366 0.10366 0.16257 0.0
H295 H 0.37593 0.12573 0.27417 0.0
H296 H 0.45152 0.09498 0.24406 0.0
C297 C 0.40099 0.11936 0.1279 0.0
C298 C 0.25734 0.78595 0.77126 0.0
C299 C 0.24168 0.81883 0.80708 0.0
H300 H 0.24938 0.76084 0.69547 0.0
C301 C 0.20182 0.84793 0.79676 0.0
H302 H 0.28797 0.76292 0.77874 0.0
C303 C 0.17955 0.84656 0.74949 0.0
C304 C 0.19717 0.81627 0.71165 0.0
H305 H 0.18952 0.87376 0.82395 0.0
H306 H 0.15071 0.87184 0.74124 0.0
C307 C 0.23528 0.78474 0.72371 0.0
C308 C 0.91268 0.53631 0.91166 0.0
C309 C 0.89884 0.48999 0.92375 0.0
H310 H 0.96497 0.58674 0.91768 0.0
C311 C 0.92694 0.46055 0.95729 0.0
H312 H 0.89124 0.56102 0.88796 0.0
C313 C 0.96873 0.4764 0.97606 0.0
C314 C 0.98355 0.52142 0.96062 0.0
H315 H 0.91757 0.4248 0.96762 0.0
H316 H 0.9903 0.45285 1.00097 0.0
C317 C 0.95486 0.55139 0.92895 0.0
C318 C 0.82247 0.8097 0.41331 0.0
C319 C 0.80444 0.84023 0.37341 0.0
H320 H 0.80845 0.75766 0.47243 0.0
C321 C 0.75747 0.83814 0.35994 0.0
H322 H 0.85871 0.80975 0.42401 0.0
C323 C 0.72884 0.80731 0.38689 0.0
C324 C 0.74645 0.77816 0.42817 0.0
H325 H 0.74238 0.86132 0.32957 0.0
H326 H 0.69269 0.80693 0.37593 0.0
C327 C 0.79378 0.77919 0.44052 0.0
C328 C 0.18945 0.37866 0.12733 0.0
C329 C 0.16559 0.34762 0.16057 0.0
H330 H 0.18844 0.44446 0.08282 0.0
C331 C 0.11984 0.36219 0.1748 0.0
H332 H 0.22434 0.36865 0.11468 0.0
C333 C 0.09877 0.40627 0.15614 0.0
C334 C 0.12251 0.43715 0.12207 0.0
H335 H 0.09989 0.33907 0.19956 0.0
H336 H 0.06346 0.41569 0.1677 0.0
C337 C 0.16847 0.42236 0.10859 0.0
C338 C 0.77123 0.34951 0.9444 0.0
C339 C 0.754 0.39385 0.9241 0.0
H340 H 0.75515 0.27998 0.97308 0.0
C341 C 0.70563 0.40322 0.92229 0.0
H342 H 0.80832 0.34109 0.9459 0.0
C343 C 0.67519 0.36844 0.93793 0.0
C344 C 0.6922 0.3231 0.95562 0.0
H345 H 0.69122 0.43728 0.90756 0.0
H346 H 0.63818 0.37698 0.93542 0.0
C347 C 0.74068 0.31447 0.95988 0.0
C348 C 0.93599 1.00446 0.37202 0.0
C349 C 0.92919 0.95597 0.38095 0.0
H350 H 0.96925 0.06542 0.39645 0.0
C351 C 0.95375 0.93107 0.42118 0.0
H352 H 0.91738 1.02476 0.34171 0.0
C353 C 0.98294 0.9545 0.45299 0.0
C354 C 0.98852 1.00318 0.44488 0.0
H355 H 0.95006 0.89345 0.42844 0.0
H356 H 1.00064 0.93467 0.48429 0.0
C357 C 0.96548 1.02779 0.40359 0.0
C358 C 0.42271 0.72785 0.80049 0.0
C359 C 0.44154 0.77264 0.80387 0.0
H360 H 0.42268 0.66264 0.76181 0.0
C361 C 0.47902 0.78357 0.77125 0.0
H362 H 0.39503 0.71708 0.82599 0.0
C363 C 0.49591 0.75124 0.73519 0.0
C364 C 0.47511 0.70776 0.73032 0.0
H365 H 0.49436 0.81762 0.77235 0.0
H366 H 0.52426 0.76091 0.71002 0.0
C367 C 0.43871 0.69631 0.76375 0.0
C368 C 0.97595 0.98468 0.77808 0.0
C369 C 0.97456 0.93512 0.78907 0.0
H370 H 0.99543 0.0418 0.72587 0.0
C371 C 0.99419 0.90578 0.75089 0.0
H372 H 0.96262 1.00944 0.80574 0.0
C373 C 1.01379 0.9248 0.70464 0.0
C374 C 1.01479 0.97424 0.69376 0.0
H375 H 0.99393 0.86763 0.75612 0.0
H376 H 1.02812 0.90035 0.6771 0.0
C377 C 0.99541 1.00366 0.73174 0.0
C378 C 0.60132 0.21079 0.26242 0.0
C379 C 0.64761 0.21275 0.27893 0.0
H380 H 0.55374 0.17979 0.21256 0.0
C381 C 0.68152 0.18144 0.25722 0.0
H382 H 0.57368 0.23279 0.27877 0.0
C383 C 0.66937 0.14929 0.22062 0.0
C384 C 0.62343 0.14882 0.20358 0.0
H385 H 0.71775 0.18212 0.26757 0.0
H386 H 0.6961 0.12591 0.20448 0.0
C387 C 0.58963 0.17989 0.22471 0.0
C388 C 0.37561 0.70402 0.46431 0.0
C389 C 0.35409 0.66287 0.45135 0.0
H390 H 0.43094 0.73296 0.50589 0.0
C391 C 0.37172 0.61864 0.47071 0.0
H392 H 0.3624 0.7385 0.44947 0.0
C393 C 0.41063 0.61539 0.5026 0.0
C394 C 0.43257 0.65639 0.51577 0.0
H395 H 0.35557 0.5865 0.46092 0.0
H396 H 0.4238 0.58063 0.51654 0.0
C397 C 0.41466 0.70083 0.49644 0.0
C398 C 0.24783 0.29203 0.96768 0.0
C399 C 0.26171 0.27624 0.91947 0.0
H400 H 0.23107 0.35205 1.01299 0.0
C401 C 0.27275 0.30933 0.88026 0.0
H402 H 0.23879 0.26694 0.99829 0.0
C403 C 0.26943 0.35771 0.88874 0.0
C404 C 0.25391 0.37418 0.93635 0.0
H405 H 0.28285 0.29817 0.84242 0.0
H406 H 0.27811 0.38227 0.8575 0.0
C407 C 0.24384 0.3407 0.97608 0.0
C408 C 0.73798 0.97835 0.95091 0.0
C409 C 0.77706 0.97172 0.98305 0.0
H410 H 0.66627 1.00234 0.94249 0.0
C411 C 0.77104 0.98476 1.0347 0.0
H412 H 0.74092 0.96961 0.9109 0.0
C413 C 0.72768 1.00412 0.05323 0.0
C414 C 0.68871 1.01151 1.02062 0.0
H415 H 0.8003 0.98098 0.06072 0.0
H416 H 0.725 1.01414 0.09283 0.0
C417 C 0.6949 0.99761 0.96927 0.0
C418 C 0.75797 0.26873 0.4696 0.0
C419 C 0.7551 0.25958 0.41704 0.0
H420 H 0.79963 0.26184 0.53805 0.0
C421 C 0.7945 0.23951 0.39238 0.0
H422 H 0.72827 0.28415 0.48973 0.0
C423 C 0.83479 0.22654 0.41992 0.0
C424 C 0.83706 0.23374 0.47279 0.0
H425 H 0.79408 0.23328 0.35164 0.0
H426 H 0.86415 0.21024 0.39992 0.0
C427 C 0.79873 0.25601 0.49724 0.0
C428 C 0.20709 0.65975 0.16514 0.0
C429 C 0.19998 0.67561 0.21526 0.0
H430 H 0.17637 0.63162 0.09873 0.0
C431 C 0.15441 0.67853 0.23491 0.0
H432 H 0.24173 0.65691 0.14884 0.0
C433 C 0.11733 0.66382 0.20643 0.0
C434 C 0.12467 0.64598 0.15741 0.0
H435 H 0.14742 0.69156 0.27283 0.0
H436 H 0.08292 0.66539 0.22345 0.0
C437 C 0.16973 0.64508 0.13646 0.0
C438 C 0.30481 0.27451 0.69248 0.0
C439 C 0.32972 0.24742 0.73074 0.0
H440 H 0.29894 0.33934 0.64699 0.0
C441 C 0.37163 0.2637 0.74859 0.0
H442 H 0.27202 0.26335 0.67841 0.0
C443 C 0.38676 0.30763 0.73087 0.0
C444 C 0.36005 0.33601 0.69523 0.0
H445 H 0.39159 0.24345 0.77791 0.0
H446 H 0.41787 0.32054 0.74726 0.0
C447 C 0.31983 0.31836 0.67494 0.0
C448 C 1.01927 0.78916 0.92916 0.0
C449 C 0.97194 0.80435 0.93549 0.0
H450 H 0.07466 0.73643 0.94583 0.0
C451 C 0.94487 0.77394 0.96662 0.0
H452 H 0.04232 0.81101 0.90678 0.0
C453 C 0.96391 0.73071 0.98958 0.0
C454 C 1.01106 0.71556 0.98295 0.0
H455 H 0.90837 0.78302 0.97278 0.0
H456 H 0.94131 0.70887 1.01252 0.0
C457 C 0.03828 0.74597 0.95225 0.0
C458 C 0.39869 0.7403 0.2573 0.0
C459 C 0.35288 0.75149 0.24076 0.0
H460 H 0.46849 0.76175 0.26036 0.0
C461 C 0.34396 0.79246 0.20911 0.0
H462 H 0.40697 0.70859 0.28103 0.0
C463 C 0.3796 0.82265 0.19637 0.0
C464 C 0.42495 0.81268 0.21516 0.0
H465 H 0.30908 0.80224 0.19584 0.0
H466 H 0.37139 0.85425 0.17245 0.0
C467 C 0.43418 0.77059 0.24492 0.0
C468 C 0.19768 0.14249 0.67927 0.0
C469 C 0.22008 0.11932 0.7219 0.0
H470 H 0.15492 0.13614 0.61341 0.0
C471 C 0.21353 0.07104 0.73249 0.0
H472 H 0.20121 0.18 0.67089 0.0
C473 C 0.18672 0.04592 0.69954 0.0
C474 C 0.16605 0.06886 0.65576 0.0
H475 H 0.23031 0.05246 0.76518 0.0
H476 H 0.18306 1.00841 0.70768 0.0
C477 C 0.17101 0.1175 0.64649 0.0
C478 C 0.62711 0.46498 0.45437 0.0
C479 C 0.60156 0.42487 0.44785 0.0
H480 H 0.63206 0.52998 0.493 0.0
C481 C 0.56146 0.41852 0.47745 0.0
H482 H 0.65795 0.47071 0.43142 0.0
C483 C 0.54634 0.45238 0.51234 0.0
C484 C 0.57104 0.49343 0.51826 0.0
H485 H 0.54103 0.38796 0.4726 0.0
H486 H 0.51476 0.4467 0.53396 0.0
C487 C 0.6121 0.49892 0.48945 0.0
loop_
_geom_bond_atom_site_label_1
_geom_bond_atom_site_label_2
_geom_bond_distance
_geom_bond_site_symmetry_2
_ccdc_geom_bond_type
H0 C3 0.929 . S
H1 C6 0.929 . S
H2 C8 0.930 . S
C3 H0 0.929 . S
C3 C4 1.398 . S
C3 C5 1.396 . S
C4 C3 1.398 . S
C4 C8 1.407 . S
C5 C3 1.396 . S
C5 C6 1.394 . S
C6 H1 0.929 . S
C6 C5 1.394 . S
C6 C7 1.382 . S
C7 C6 1.382 . S
C7 C8 1.392 . S
C7 N9 1.420 . S
C8 H2 0.930 . S
C8 C4 1.407 . S
C8 C7 1.392 . S
N9 C7 1.420 . S
N9 C10 1.244 . S
C10 N9 1.244 . S
H11 C14 0.929 . S
H12 C17 0.929 . S
H13 C19 0.930 . S
C14 H11 0.929 . S
C14 C15 1.398 . S
C14 C16 1.396 . S
C15 C14 1.398 . S
C15 C19 1.407 . S
C16 C14 1.396 . S
C16 C17 1.394 . S
C17 H12 0.929 . S
C17 C16 1.394 . S
C17 C18 1.382 . S
C18 C17 1.382 . S
C18 C19 1.392 . S
C18 N20 1.420 . S
C19 H13 0.930 . S
C19 C15 1.407 . S
C19 C18 1.392 . S
N20 C18 1.420 . S
N20 C21 1.244 . S
C21 N20 1.244 . S
H22 C25 0.929 . S
H23 C28 0.929 . S
H24 C30 0.930 . S
C25 H22 0.929 . S
C25 C26 1.398 . S
C25 C27 1.396 . S
C26 C25 1.398 . S
C26 C30 1.407 . S
C27 C25 1.396 . S
C27 C28 1.394 . S
C28 H23 0.929 . S
C28 C27 1.394 . S
C28 C29 1.382 . S
C29 C28 1.382 . S
C29 C30 1.392 . S
C29 N31 1.420 . S
C30 H24 0.930 . S
C30 C26 1.407 . S
C30 C29 1.392 . S
N31 C29 1.420 . S
N31 C32 1.244 . S
C32 N31 1.244 . S
H33 C36 0.929 . S
H34 C39 0.929 . S
H35 C41 0.930 . S
C36 H33 0.929 . S
C36 C37 1.398 . S
C36 C38 1.396 . S
C37 C36 1.398 . S
C37 C41 1.407 . S
C38 C36 1.396 . S
C38 C39 1.394 . S
C39 H34 0.929 . S
C39 C38 1.394 . S
C39 C40 1.382 . S
C40 C39 1.382 . S
C40 C41 1.392 . S
C40 N42 1.420 . S
C41 H35 0.930 . S
C41 C37 1.407 . S
C41 C40 1.392 . S
N42 C40 1.420 . S
N42 C43 1.244 . S
C43 N42 1.244 . S
H44 C47 0.929 . S
H45 C50 0.929 . S
H46 C52 0.930 . S
C47 H44 0.929 . S
C47 C48 1.398 . S
C47 C49 1.396 . S
C48 C47 1.398 . S
C48 C52 1.407 . S
C49 C47 1.396 . S
C49 C50 1.394 . S
C50 H45 0.929 . S
C50 C49 1.394 . S
C50 C51 1.382 . S
C51 C50 1.382 . S
C51 C52 1.392 . S
C51 N53 1.420 . S
C52 H46 0.930 . S
C52 C48 1.407 . S
C52 C51 1.392 . S
N53 C51 1.420 . S
N53 C54 1.244 . S
C54 N53 1.244 . S
H55 C58 0.929 . S
H56 C61 0.929 . S
H57 C63 0.930 . S
C58 H55 0.929 . S
C58 C59 1.398 . S
C58 C60 1.396 . S
C59 C58 1.398 . S
C59 C63 1.407 . S
C60 C58 1.396 . S
C60 C61 1.394 . S
C61 H56 0.929 . S
C61 C60 1.394 . S
C61 C62 1.382 . S
C62 C61 1.382 . S
C62 C63 1.392 . S
C62 N64 1.420 . S
C63 H57 0.930 . S
C63 C59 1.407 . S
C63 C62 1.392 . S
N64 C62 1.420 . S
N64 C65 1.244 . S
C65 N64 1.244 . S
H66 C69 0.929 . S
H67 C72 0.929 . S
H68 C74 0.930 . S
C69 H66 0.929 . S
C69 C70 1.398 . S
C69 C71 1.396 . S
C70 C69 1.398 . S
C70 C74 1.407 . S
C71 C69 1.396 . S
C71 C72 1.394 . S
C72 H67 0.929 . S
C72 C71 1.394 . S
C72 C73 1.382 . S
C73 C72 1.382 . S
C73 C74 1.392 . S
C73 N75 1.420 . S
C74 H68 0.930 . S
C74 C70 1.407 . S
C74 C73 1.392 . S
N75 C73 1.420 . S
N75 C76 1.244 . S
C76 N75 1.244 . S
H77 C80 0.929 . S
H78 C83 0.929 . S
H79 C85 0.930 . S
C80 H77 0.929 . S
C80 C81 1.398 . S
C80 C82 1.396 . S
C81 C80 1.398 . S
C81 C85 1.407 . S
C82 C80 1.396 . S
C82 C83 1.394 . S
C83 H78 0.929 . S
C83 C82 1.394 . S
C83 C84 1.382 . S
C84 C83 1.382 . S
C84 C85 1.392 . S
C84 N86 1.420 . S
C85 H79 0.930 . S
C85 C81 1.407 . S
C85 C84 1.392 . S
N86 C84 1.420 . S
N86 C87 1.244 . S
C87 N86 1.244 . S
Nd88 C90 2.836 . S
Nd88 O108 2.500 . S
Nd88 O109 2.492 . S
Nd88 O110 2.487 1_565 S
Nd88 O111 2.682 1_565 S
Nd88 O112 2.410 . S
Nd88 O117 2.414 1_455 S
Nd88 O119 2.424 1_565 S
Nd89 C99 2.836 . S
Nd89 O111 2.414 1_655 S
Nd89 O113 2.424 1_545 S
Nd89 O114 2.500 . S
Nd89 O115 2.492 . S
Nd89 O116 2.487 1_545 S
Nd89 O117 2.682 1_545 S
Nd89 O118 2.410 . S
C90 Nd88 2.836 . S
C90 C91 1.498 . S
C90 O108 1.258 . S
C90 O109 1.239 . S
C91 C90 1.498 . S
C91 C92 1.366 . S
C91 C96 1.407 . S
C92 C91 1.366 . S
C92 C93 1.392 . S
C92 H120 0.930 . S
C93 C92 1.392 . S
C93 C94 1.398 . S
C93 H121 0.929 . S
C94 C93 1.398 . S
C94 C95 1.352 . S
C95 C94 1.352 . S
C95 C96 1.384 . S
C95 H122 0.930 . S
C96 C91 1.407 . S
C96 C95 1.384 . S
C96 H123 0.929 . S
C97 O110 1.241 . S
C97 O111 1.273 . S
C98 O112 1.251 1_655 S
C98 O113 1.268 . S
C99 Nd89 2.836 . S
C99 C100 1.498 . S
C99 O114 1.258 . S
C99 O115 1.239 . S
C100 C99 1.498 . S
C100 C101 1.366 . S
C100 C105 1.407 . S
C101 C100 1.366 . S
C101 C102 1.392 . S
C101 H124 0.930 . S
C102 C101 1.392 . S
C102 C103 1.398 . S
C102 H125 0.929 . S
C103 C102 1.398 . S
C103 C104 1.352 . S
C104 C103 1.352 . S
C104 C105 1.384 . S
C104 H126 0.930 . S
C105 C100 1.407 . S
C105 C104 1.384 . S
C105 H127 0.929 . S
C106 O116 1.241 . S
C106 O117 1.273 . S
C107 O118 1.251 1_455 S
C107 O119 1.268 . S
O108 Nd88 2.500 . S
O108 C90 1.258 . S
O109 Nd88 2.492 . S
O109 C90 1.239 . S
O110 Nd88 2.487 1_545 S
O110 C97 1.241 . S
O111 Nd88 2.682 1_545 S
O111 Nd89 2.414 1_455 S
O111 C97 1.273 . S
O112 Nd88 2.410 . S
O112 C98 1.251 1_455 S
O113 Nd89 2.424 1_565 S
O113 C98 1.268 . S
O114 Nd89 2.500 . S
O114 C99 1.258 . S
O115 Nd89 2.492 . S
O115 C99 1.239 . S
O116 Nd89 2.487 1_565 S
O116 C106 1.241 . S
O117 Nd88 2.414 1_655 S
O117 Nd89 2.682 1_565 S
O117 C106 1.273 . S
O118 Nd89 2.410 . S
O118 C107 1.251 1_655 S
O119 Nd88 2.424 1_545 S
O119 C107 1.268 . S
H120 C92 0.930 . S
H121 C93 0.929 . S
H122 C95 0.930 . S
H123 C96 0.929 . S
H124 C101 0.930 . S
H125 C102 0.929 . S
H126 C104 0.930 . S
H127 C105 0.929 . S
Nd128 C130 2.836 . S
Nd128 O148 2.500 . S
Nd128 O149 2.492 . S
Nd128 O150 2.487 1_565 S
Nd128 O151 2.682 1_565 S
Nd128 O152 2.410 . S
Nd128 O157 2.414 . S
Nd128 O159 2.424 1_565 S
Nd129 C139 2.836 . S
Nd129 O151 2.414 1_556 S
Nd129 O153 2.424 1_545 S
Nd129 O154 2.500 . S
Nd129 O155 2.492 . S
Nd129 O156 2.487 . S
Nd129 O157 2.682 1_546 S
Nd129 O158 2.410 1_556 S
C130 Nd128 2.836 . S
C130 C131 1.498 . S
C130 O148 1.258 . S
C130 O149 1.239 . S
C131 C130 1.498 . S
C131 C132 1.366 . S
C131 C136 1.407 . S
C132 C131 1.366 . S
C132 C133 1.392 . S
C132 H160 0.930 . S
C133 C132 1.392 . S
C133 C134 1.398 . S
C133 H161 0.929 . S
C134 C133 1.398 . S
C134 C135 1.352 . S
C135 C134 1.352 . S
C135 C136 1.384 . S
C135 H162 0.930 . S
C136 C131 1.407 . S
C136 C135 1.384 . S
C136 H163 0.929 . S
C137 O150 1.241 . S
C137 O151 1.273 . S
C138 O152 1.251 1_556 S
C138 O153 1.268 . S
C139 Nd129 2.836 . S
C139 C140 1.498 . S
C139 O154 1.258 . S
C139 O155 1.239 . S
C140 C139 1.498 . S
C140 C141 1.366 . S
C140 C145 1.407 . S
C141 C140 1.366 . S
C141 C142 1.392 . S
C141 H164 0.930 1_556 S
C142 C141 1.392 . S
C142 C143 1.398 . S
C142 H165 0.929 . S
C143 C142 1.398 . S
C143 C144 1.352 . S
C144 C143 1.352 . S
C144 C145 1.384 . S
C144 H166 0.930 . S
C145 C140 1.407 . S
C145 C144 1.384 . S
C145 H167 0.929 . S
C146 O156 1.241 1_564 S
C146 O157 1.273 . S
C147 O158 1.251 . S
C147 O159 1.268 . S
O148 Nd128 2.500 . S
O148 C130 1.258 . S
O149 Nd128 2.492 . S
O149 C130 1.239 . S
O150 Nd128 2.487 1_545 S
O150 C137 1.241 . S
O151 Nd128 2.682 1_545 S
O151 Nd129 2.414 1_554 S
O151 C137 1.273 . S
O152 Nd128 2.410 . S
O152 C138 1.251 1_554 S
O153 Nd129 2.424 1_565 S
O153 C138 1.268 . S
O154 Nd129 2.500 . S
O154 C139 1.258 . S
O155 Nd129 2.492 . S
O155 C139 1.239 . S
O156 Nd129 2.487 . S
O156 C146 1.241 1_546 S
O157 Nd128 2.414 . S
O157 Nd129 2.682 1_564 S
O157 C146 1.273 . S
O158 Nd129 2.410 1_554 S
O158 C147 1.251 . S
O159 Nd128 2.424 1_545 S
O159 C147 1.268 . S
H160 C132 0.930 . S
H161 C133 0.929 . S
H162 C135 0.930 . S
H163 C136 0.929 . S
H164 C141 0.930 1_554 S
H165 C142 0.929 . S
H166 C144 0.930 . S
H167 C145 0.929 . S
Nd168 C170 2.836 . S
Nd168 O188 2.500 . S
Nd168 O189 2.492 . S
Nd168 O190 2.487 . S
Nd168 O191 2.682 . S
Nd168 O192 2.410 . S
Nd168 O197 2.414 . S
Nd168 O199 2.424 . S
Nd169 C179 2.836 . S
Nd169 O191 2.414 . S
Nd169 O193 2.424 . S
Nd169 O194 2.500 . S
Nd169 O195 2.492 . S
Nd169 O196 2.487 . S
Nd169 O197 2.682 . S
Nd169 O198 2.410 . S
C170 Nd168 2.836 . S
C170 C171 1.498 . S
C170 O188 1.258 . S
C170 O189 1.239 . S
C171 C170 1.498 . S
C171 C172 1.366 . S
C171 C176 1.407 . S
C172 C171 1.366 . S
C172 C173 1.392 . S
C172 H200 0.930 . S
C173 C172 1.392 . S
C173 C174 1.398 . S
C173 H201 0.929 . S
C174 C173 1.398 . S
C174 C175 1.352 . S
C175 C174 1.352 . S
C175 C176 1.384 . S
C175 H202 0.930 . S
C176 C171 1.407 . S
C176 C175 1.384 . S
C176 H203 0.929 . S
C177 O190 1.241 . S
C177 O191 1.273 . S
C178 O192 1.251 . S
C178 O193 1.268 . S
C179 Nd169 2.836 . S
C179 C180 1.498 . S
C179 O194 1.258 . S
C179 O195 1.239 . S
C180 C179 1.498 . S
C180 C181 1.366 . S
C180 C185 1.407 . S
C181 C180 1.366 . S
C181 C182 1.392 . S
C181 H204 0.930 . S
C182 C181 1.392 . S
C182 C183 1.398 . S
C182 H205 0.929 . S
C183 C182 1.398 . S
C183 C184 1.352 . S
C184 C183 1.352 . S
C184 C185 1.384 . S
C184 H206 0.930 . S
C185 C180 1.407 . S
C185 C184 1.384 . S
C185 H207 0.929 . S
C186 O196 1.241 . S
C186 O197 1.273 . S
C187 O198 1.251 . S
C187 O199 1.268 . S
O188 Nd168 2.500 . S
O188 C170 1.258 . S
O189 Nd168 2.492 . S
O189 C170 1.239 . S
O190 Nd168 2.487 . S
O190 C177 1.241 . S
O191 Nd168 2.682 . S
O191 Nd169 2.414 . S
O191 C177 1.273 . S
O192 Nd168 2.410 . S
O192 C178 1.251 . S
O193 Nd169 2.424 . S
O193 C178 1.268 . S
O194 Nd169 2.500 . S
O194 C179 1.258 . S
O195 Nd169 2.492 . S
O195 C179 1.239 . S
O196 Nd169 2.487 . S
O196 C186 1.241 . S
O197 Nd168 2.414 . S
O197 Nd169 2.682 . S
O197 C186 1.273 . S
O198 Nd169 2.410 . S
O198 C187 1.251 . S
O199 Nd168 2.424 . S
O199 C187 1.268 . S
H200 C172 0.930 . S
H201 C173 0.929 . S
H202 C175 0.930 . S
H203 C176 0.929 . S
H204 C181 0.930 . S
H205 C182 0.929 . S
H206 C184 0.930 . S
H207 C185 0.929 . S
Nd208 C210 2.836 1_455 S
Nd208 O228 2.500 1_455 S
Nd208 O229 2.492 . S
Nd208 O230 2.487 . S
Nd208 O231 2.682 . S
Nd208 O232 2.410 . S
Nd208 O237 2.414 1_454 S
Nd208 O239 2.424 . S
Nd209 C219 2.836 . S
Nd209 O231 2.414 1_556 S
Nd209 O233 2.424 . S
Nd209 O234 2.500 . S
Nd209 O235 2.492 . S
Nd209 O236 2.487 1_455 S
Nd209 O237 2.682 1_455 S
Nd209 O238 2.410 . S
C210 Nd208 2.836 1_655 S
C210 C211 1.498 . S
C210 O228 1.258 . S
C210 O229 1.239 1_655 S
C211 C210 1.498 . S
C211 C212 1.366 . S
C211 C216 1.407 . S
C212 C211 1.366 . S
C212 C213 1.392 . S
C212 H240 0.930 . S
C213 C212 1.392 . S
C213 C214 1.398 . S
C213 H241 0.929 . S
C214 C213 1.398 . S
C214 C215 1.352 . S
C215 C214 1.352 . S
C215 C216 1.384 . S
C215 H242 0.930 . S
C216 C211 1.407 . S
C216 C215 1.384 . S
C216 H243 0.929 1_655 S
C217 O230 1.241 . S
C217 O231 1.273 . S
C218 O232 1.251 1_556 S
C218 O233 1.268 . S
C219 Nd209 2.836 . S
C219 C220 1.498 . S
C219 O234 1.258 . S
C219 O235 1.239 . S
C220 C219 1.498 . S
C220 C221 1.366 . S
C220 C225 1.407 . S
C221 C220 1.366 . S
C221 C222 1.392 . S
C221 H244 0.930 . S
C222 C221 1.392 . S
C222 C223 1.398 . S
C222 H245 0.929 . S
C223 C222 1.398 . S
C223 C224 1.352 . S
C224 C223 1.352 . S
C224 C225 1.384 . S
C224 H246 0.930 . S
C225 C220 1.407 . S
C225 C224 1.384 . S
C225 H247 0.929 . S
C226 O236 1.241 . S
C226 O237 1.273 . S
C227 O238 1.251 1_554 S
C227 O239 1.268 . S
O228 Nd208 2.500 1_655 S
O228 C210 1.258 . S
O229 Nd208 2.492 . S
O229 C210 1.239 1_455 S
O230 Nd208 2.487 . S
O230 C217 1.241 . S
O231 Nd208 2.682 . S
O231 Nd209 2.414 1_554 S
O231 C217 1.273 . S
O232 Nd208 2.410 . S
O232 C218 1.251 1_554 S
O233 Nd209 2.424 . S
O233 C218 1.268 . S
O234 Nd209 2.500 . S
O234 C219 1.258 . S
O235 Nd209 2.492 . S
O235 C219 1.239 . S
O236 Nd209 2.487 1_655 S
O236 C226 1.241 . S
O237 Nd208 2.414 1_656 S
O237 Nd209 2.682 1_655 S
O237 C226 1.273 . S
O238 Nd209 2.410 . S
O238 C227 1.251 1_556 S
O239 Nd208 2.424 . S
O239 C227 1.268 . S
H240 C212 0.930 . S
H241 C213 0.929 . S
H242 C215 0.930 . S
H243 C216 0.929 1_455 S
H244 C221 0.930 . S
H245 C222 0.929 . S
H246 C224 0.930 . S
H247 C225 0.929 . S
C248 C249 1.387 . S
C248 H252 0.950 . S
C248 C257 1.390 . S
C249 C248 1.387 . S
C249 C251 1.387 . S
H250 C257 0.950 . S
C251 C249 1.387 . S
C251 C253 1.390 . S
C251 H255 0.950 . S
H252 C248 0.950 . S
C253 C251 1.390 . S
C253 C254 1.387 . S
C253 H256 0.950 . S
C254 C253 1.387 . S
C254 C257 1.387 . S
H255 C251 0.950 . S
H256 C253 0.950 . S
C257 C248 1.390 . S
C257 H250 0.950 . S
C257 C254 1.387 . S
C258 C259 1.387 . S
C258 H262 0.950 . S
C258 C267 1.390 . S
C259 C258 1.387 . S
C259 C261 1.387 . S
H260 C267 0.950 . S
C261 C259 1.387 . S
C261 C263 1.390 . S
C261 H265 0.950 . S
H262 C258 0.950 . S
C263 C261 1.390 . S
C263 C264 1.387 . S
C263 H266 0.950 1_556 S
C264 C263 1.387 . S
C264 C267 1.387 . S
H265 C261 0.950 . S
H266 C263 0.950 1_554 S
C267 C258 1.390 . S
C267 H260 0.950 . S
C267 C264 1.387 . S
C268 C269 1.387 . S
C268 H272 0.950 . S
C268 C277 1.390 . S
C269 C268 1.387 . S
C269 C271 1.387 . S
H270 C277 0.950 . S
C271 C269 1.387 . S
C271 C273 1.390 . S
C271 H275 0.950 . S
H272 C268 0.950 . S
C273 C271 1.390 . S
C273 C274 1.387 . S
C273 H276 0.950 . S
C274 C273 1.387 . S
C274 C277 1.387 . S
H275 C271 0.950 . S
H276 C273 0.950 . S
C277 C268 1.390 . S
C277 H270 0.950 . S
C277 C274 1.387 . S
C278 C279 1.387 . S
C278 H282 0.950 . S
C278 C287 1.390 . S
C279 C278 1.387 . S
C279 C281 1.387 . S
H280 C287 0.950 . S
C281 C279 1.387 . S
C281 C283 1.390 . S
C281 H285 0.950 . S
H282 C278 0.950 . S
C283 C281 1.390 . S
C283 C284 1.387 . S
C283 H286 0.950 . S
C284 C283 1.387 . S
C284 C287 1.387 . S
H285 C281 0.950 . S
H286 C283 0.950 . S
C287 C278 1.390 . S
C287 H280 0.950 . S
C287 C284 1.387 . S
C288 C289 1.387 . S
C288 H292 0.950 . S
C288 C297 1.390 . S
C289 C288 1.387 . S
C289 C291 1.387 . S
H290 C297 0.950 . S
C291 C289 1.387 . S
C291 C293 1.390 . S
C291 H295 0.950 . S
H292 C288 0.950 . S
C293 C291 1.390 . S
C293 C294 1.387 . S
C293 H296 0.950 . S
C294 C293 1.387 . S
C294 C297 1.387 . S
H295 C291 0.950 . S
H296 C293 0.950 . S
C297 C288 1.390 . S
C297 H290 0.950 . S
C297 C294 1.387 . S
C298 C299 1.387 . S
C298 H302 0.950 . S
C298 C307 1.390 . S
C299 C298 1.387 . S
C299 C301 1.387 . S
H300 C307 0.950 . S
C301 C299 1.387 . S
C301 C303 1.390 . S
C301 H305 0.950 . S
H302 C298 0.950 . S
C303 C301 1.390 . S
C303 C304 1.387 . S
C303 H306 0.950 . S
C304 C303 1.387 . S
C304 C307 1.387 . S
H305 C301 0.950 . S
H306 C303 0.950 . S
C307 C298 1.390 . S
C307 H300 0.950 . S
C307 C304 1.387 . S
C308 C309 1.387 . S
C308 H312 0.950 . S
C308 C317 1.390 . S
C309 C308 1.387 . S
C309 C311 1.387 . S
H310 C317 0.950 . S
C311 C309 1.387 . S
C311 C313 1.390 . S
C311 H315 0.950 . S
H312 C308 0.950 . S
C313 C311 1.390 . S
C313 C314 1.387 . S
C313 H316 0.950 . S
C314 C313 1.387 . S
C314 C317 1.387 . S
H315 C311 0.950 . S
H316 C313 0.950 . S
C317 C308 1.390 . S
C317 H310 0.950 . S
C317 C314 1.387 . S
C318 C319 1.387 . S
C318 H322 0.950 . S
C318 C327 1.390 . S
C319 C318 1.387 . S
C319 C321 1.387 . S
H320 C327 0.950 . S
C321 C319 1.387 . S
C321 C323 1.390 . S
C321 H325 0.950 . S
H322 C318 0.950 . S
C323 C321 1.390 . S
C323 C324 1.387 . S
C323 H326 0.950 . S
C324 C323 1.387 . S
C324 C327 1.387 . S
H325 C321 0.950 . S
H326 C323 0.950 . S
C327 C318 1.390 . S
C327 H320 0.950 . S
C327 C324 1.387 . S
C328 C329 1.387 . S
C328 H332 0.950 . S
C328 C337 1.390 . S
C329 C328 1.387 . S
C329 C331 1.387 . S
H330 C337 0.950 1_556 S
C331 C329 1.387 . S
C331 C333 1.390 . S
C331 H335 0.950 . S
H332 C328 0.950 . S
C333 C331 1.390 . S
C333 C334 1.387 . S
C333 H336 0.950 . S
C334 C333 1.387 . S
C334 C337 1.387 . S
H335 C331 0.950 . S
H336 C333 0.950 . S
C337 C328 1.390 . S
C337 H330 0.950 1_554 S
C337 C334 1.387 . S
C338 C339 1.387 . S
C338 H342 0.950 . S
C338 C347 1.390 . S
C339 C338 1.387 . S
C339 C341 1.387 . S
H340 C347 0.950 . S
C341 C339 1.387 . S
C341 C343 1.390 . S
C341 H345 0.950 . S
H342 C338 0.950 . S
C343 C341 1.390 . S
C343 C344 1.387 . S
C343 H346 0.950 . S
C344 C343 1.387 . S
C344 C347 1.387 . S
H345 C341 0.950 . S
H346 C343 0.950 . S
C347 C338 1.390 . S
C347 H340 0.950 . S
C347 C344 1.387 . S
C348 C349 1.387 . S
C348 H352 0.950 . S
C348 C357 1.390 . S
C349 C348 1.387 . S
C349 C351 1.387 . S
H350 C357 0.950 . S
C351 C349 1.387 . S
C351 C353 1.390 . S
C351 H355 0.950 . S
H352 C348 0.950 . S
C353 C351 1.390 . S
C353 C354 1.387 . S
C353 H356 0.950 . S
C354 C353 1.387 . S
C354 C357 1.387 . S
H355 C351 0.950 . S
H356 C353 0.950 . S
C357 C348 1.390 . S
C357 H350 0.950 . S
C357 C354 1.387 . S
C358 C359 1.387 . S
C358 H362 0.950 . S
C358 C367 1.390 . S
C359 C358 1.387 . S
C359 C361 1.387 . S
H360 C367 0.950 . S
C361 C359 1.387 . S
C361 C363 1.390 . S
C361 H365 0.950 . S
H362 C358 0.950 . S
C363 C361 1.390 . S
C363 C364 1.387 . S
C363 H366 0.950 . S
C364 C363 1.387 . S
C364 C367 1.387 . S
H365 C361 0.950 . S
H366 C363 0.950 . S
C367 C358 1.390 . S
C367 H360 0.950 . S
C367 C364 1.387 . S
C368 C369 1.387 . S
C368 H372 0.950 . S
C368 C377 1.390 . S
C369 C368 1.387 . S
C369 C371 1.387 . S
H370 C377 0.950 . S
C371 C369 1.387 . S
C371 C373 1.390 . S
C371 H375 0.950 . S
H372 C368 0.950 . S
C373 C371 1.390 . S
C373 C374 1.387 . S
C373 H376 0.950 . S
C374 C373 1.387 . S
C374 C377 1.387 . S
H375 C371 0.950 . S
H376 C373 0.950 . S
C377 C368 1.390 . S
C377 H370 0.950 . S
C377 C374 1.387 . S
C378 C379 1.387 . S
C378 H382 0.950 . S
C378 C387 1.390 . S
C379 C378 1.387 . S
C379 C381 1.387 . S
H380 C387 0.950 . S
C381 C379 1.387 . S
C381 C383 1.390 . S
C381 H385 0.950 . S
H382 C378 0.950 . S
C383 C381 1.390 . S
C383 C384 1.387 . S
C383 H386 0.950 . S
C384 C383 1.387 . S
C384 C387 1.387 . S
H385 C381 0.950 . S
H386 C383 0.950 . S
C387 C378 1.390 . S
C387 H380 0.950 . S
C387 C384 1.387 . S
C388 C389 1.387 . S
C388 H392 0.950 . S
C388 C397 1.390 . S
C389 C388 1.387 . S
C389 C391 1.387 . S
H390 C397 0.950 . S
C391 C389 1.387 . S
C391 C393 1.390 . S
C391 H395 0.950 . S
H392 C388 0.950 . S
C393 C391 1.390 . S
C393 C394 1.387 . S
C393 H396 0.950 . S
C394 C393 1.387 . S
C394 C397 1.387 . S
H395 C391 0.950 . S
H396 C393 0.950 . S
C397 C388 1.390 . S
C397 H390 0.950 . S
C397 C394 1.387 . S
C398 C399 1.387 . S
C398 H402 0.950 . S
C398 C407 1.390 . S
C399 C398 1.387 . S
C399 C401 1.387 . S
H400 C407 0.950 . S
C401 C399 1.387 . S
C401 C403 1.390 . S
C401 H405 0.950 . S
H402 C398 0.950 . S
C403 C401 1.390 . S
C403 C404 1.387 . S
C403 H406 0.950 . S
C404 C403 1.387 . S
C404 C407 1.387 . S
H405 C401 0.950 . S
H406 C403 0.950 . S
C407 C398 1.390 . S
C407 H400 0.950 . S
C407 C404 1.387 . S
C408 C409 1.387 . S
C408 H412 0.950 . S
C408 C417 1.390 . S
C409 C408 1.387 . S
C409 C411 1.387 1_556 S
H410 C417 0.950 . S
C411 C409 1.387 1_554 S
C411 C413 1.390 . S
C411 H415 0.950 . S
H412 C408 0.950 . S
C413 C411 1.390 . S
C413 C414 1.387 1_554 S
C413 H416 0.950 . S
C414 C413 1.387 1_556 S
C414 C417 1.387 . S
H415 C411 0.950 . S
H416 C413 0.950 . S
C417 C408 1.390 . S
C417 H410 0.950 . S
C417 C414 1.387 . S
C418 C419 1.387 . S
C418 H422 0.950 . S
C418 C427 1.390 . S
C419 C418 1.387 . S
C419 C421 1.387 . S
H420 C427 0.950 . S
C421 C419 1.387 . S
C421 C423 1.390 . S
C421 H425 0.950 . S
H422 C418 0.950 . S
C423 C421 1.390 . S
C423 C424 1.387 . S
C423 H426 0.950 . S
C424 C423 1.387 . S
C424 C427 1.387 . S
H425 C421 0.950 . S
H426 C423 0.950 . S
C427 C418 1.390 . S
C427 H420 0.950 . S
C427 C424 1.387 . S
C428 C429 1.387 . S
C428 H432 0.950 . S
C428 C437 1.390 . S
C429 C428 1.387 . S
C429 C431 1.387 . S
H430 C437 0.950 . S
C431 C429 1.387 . S
C431 C433 1.390 . S
C431 H435 0.950 . S
H432 C428 0.950 . S
C433 C431 1.390 . S
C433 C434 1.387 . S
C433 H436 0.950 . S
C434 C433 1.387 . S
C434 C437 1.387 . S
H435 C431 0.950 . S
H436 C433 0.950 . S
C437 C428 1.390 . S
C437 H430 0.950 . S
C437 C434 1.387 . S
C438 C439 1.387 . S
C438 H442 0.950 . S
C438 C447 1.390 . S
C439 C438 1.387 . S
C439 C441 1.387 . S
H440 C447 0.950 . S
C441 C439 1.387 . S
C441 C443 1.390 . S
C441 H445 0.950 . S
H442 C438 0.950 . S
C443 C441 1.390 . S
C443 C444 1.387 . S
C443 H446 0.950 . S
C444 C443 1.387 . S
C444 C447 1.387 . S
H445 C441 0.950 . S
H446 C443 0.950 . S
C447 C438 1.390 . S
C447 H440 0.950 . S
C447 C444 1.387 . S
C448 C449 1.387 . S
C448 H452 0.950 . S
C448 C457 1.390 . S
C449 C448 1.387 . S
C449 C451 1.387 . S
H450 C457 0.950 . S
C451 C449 1.387 . S
C451 C453 1.390 . S
C451 H455 0.946 1_556 S
H452 C448 0.950 . S
C453 C451 1.390 . S
C453 C454 1.387 . S
C453 H456 0.950 1_556 S
C454 C453 1.387 . S
C454 C457 1.387 . S
H455 C451 0.946 1_554 S
H456 C453 0.950 1_554 S
C457 C448 1.390 . S
C457 H450 0.950 . S
C457 C454 1.387 . S
C458 C459 1.387 . S
C458 H462 0.950 . S
C458 C467 1.390 . S
C459 C458 1.387 . S
C459 C461 1.387 . S
H460 C467 0.950 . S
C461 C459 1.387 . S
C461 C463 1.390 . S
C461 H465 0.950 . S
H462 C458 0.950 . S
C463 C461 1.390 . S
C463 C464 1.387 . S
C463 H466 0.950 . S
C464 C463 1.387 . S
C464 C467 1.387 . S
H465 C461 0.950 . S
H466 C463 0.950 . S
C467 C458 1.390 . S
C467 H460 0.950 . S
C467 C464 1.387 . S
C468 C469 1.387 . S
C468 H472 0.950 . S
C468 C477 1.390 . S
C469 C468 1.387 . S
C469 C471 1.387 . S
H470 C477 0.950 . S
C471 C469 1.387 . S
C471 C473 1.390 . S
C471 H475 0.950 . S
H472 C468 0.950 . S
C473 C471 1.390 . S
C473 C474 1.387 . S
C473 H476 0.950 . S
C474 C473 1.387 . S
C474 C477 1.387 . S
H475 C471 0.950 . S
H476 C473 0.950 . S
C477 C468 1.390 . S
C477 H470 0.950 . S
C477 C474 1.387 . S
C478 C479 1.387 . S
C478 H482 0.950 . S
C478 C487 1.390 . S
C479 C478 1.387 . S
C479 C481 1.387 . S
H480 C487 0.950 . S
C481 C479 1.387 . S
C481 C483 1.390 . S
C481 H485 0.950 . S
H482 C478 0.950 . S
C483 C481 1.390 . S
C483 C484 1.387 . S
C483 H486 0.950 . S
C484 C483 1.387 . S
C484 C487 1.387 . S
H485 C481 0.950 . S
H486 C483 0.950 . S
C487 C478 1.390 . S
C487 H480 0.950 . S
C487 C484 1.387 . S
C249 C4 3.065 . S
C254 C107 3.023 . S
C259 C16 2.347 . S
C264 C138 2.448 . S
C274 C177 1.132 . S
C269 C32 1.139 . S
C279 C43 0.712 . S
C284 C214 0.715 . S
C294 C137 3.156 . S
C289 C5 3.249 . S
C304 C94 1.157 . S
C299 C21 1.166 . S
C314 C226 1.384 . S
C309 C27 1.381 . S
C324 C183 1.230 . S
C319 C37 1.222 . S
C329 C10 2.447 . S
C334 C227 2.447 . S
C344 C143 1.445 . S
C339 C26 1.458 . S
C349 C38 0.709 . S
C354 C106 0.942 . S
C359 C15 2.347 . S
C364 C178 2.391 . S
C374 C98 3.011 . S
C369 C48 3.051 . S
C379 C59 2.111 . S
C384 C147 2.213 . S
C389 C76 1.419 . S
C394 C186 1.433 . S
C399 C87 0.797 . S
C404 C223 0.807 . S
C409 C54 2.739 . S
C414 C146 2.622 1_556 S
C424 C103 1.506 . S
C419 C60 1.496 . S
C434 C217 1.423 . S
C429 C71 1.465 . S
C444 C174 1.289 . S
C439 C82 1.321 . S
C449 C49 2.605 . S
C454 C218 2.604 1_655 S
C464 C134 1.344 . S
C459 C70 1.361 . S
C474 C97 0.641 . S
C469 C81 0.581 . S
C479 C65 2.168 . S
C484 C187 2.231 . S
