# Generated by pormake.
# Topology llj, (12,3)-cn, num edge types: 1
# Building blocks:
#     Node 0, Type 0, BuildingBlock: QEWDON_clean_sbu_0, # of connection points: 12
#     Node 1, Type 0, BuildingBlock: QEWDON_clean_sbu_0, # of connection points: 12
#     Node 2, Type 1, BuildingBlock: BETDAH_clean_linker_0, # of connection points: 3
#     Node 3, Type 1, BuildingBlock: BETDAH_clean_linker_0, # of connection points: 3
#     Node 4, Type 1, BuildingBlock: BETDAH_clean_linker_0, # of connection points: 3
#     Node 5, Type 1, BuildingBlock: BETDAH_clean_linker_0, # of connection points: 3
#     Node 6, Type 1, BuildingBlock: BETDAH_clean_linker_0, # of connection points: 3
#     Node 7, Type 1, BuildingBlock: BETDAH_clean_linker_0, # of connection points: 3
#     Node 8, Type 1, BuildingBlock: BETDAH_clean_linker_0, # of connection points: 3
#     Node 9, Type 1, BuildingBlock: BETDAH_clean_linker_0, # of connection points: 3
#     Edge 10, Type (0, 1), BuildingBlock: ZUJKAS_clean_linker_0, # of connection points: 2
#     Edge 11, Type (0, 1), BuildingBlock: ZUJKAS_clean_linker_0, # of connection points: 2
#     Edge 12, Type (0, 1), BuildingBlock: ZUJKAS_clean_linker_0, # of connection points: 2
#     Edge 13, Type (0, 1), BuildingBlock: ZUJKAS_clean_linker_0, # of connection points: 2
#     Edge 14, Type (0, 1), BuildingBlock: ZUJKAS_clean_linker_0, # of connection points: 2
#     Edge 15, Type (0, 1), BuildingBlock: ZUJKAS_clean_linker_0, # of connection points: 2
#     Edge 16, Type (0, 1), BuildingBlock: ZUJKAS_clean_linker_0, # of connection points: 2
#     Edge 17, Type (0, 1), BuildingBlock: ZUJKAS_clean_linker_0, # of connection points: 2
#     Edge 18, Type (0, 1), BuildingBlock: ZUJKAS_clean_linker_0, # of connection points: 2
#     Edge 19, Type (0, 1), BuildingBlock: ZUJKAS_clean_linker_0, # of connection points: 2
#     Edge 20, Type (0, 1), BuildingBlock: ZUJKAS_clean_linker_0, # of connection points: 2
#     Edge 21, Type (0, 1), BuildingBlock: ZUJKAS_clean_linker_0, # of connection points: 2
#     Edge 22, Type (0, 1), BuildingBlock: ZUJKAS_clean_linker_0, # of connection points: 2
#     Edge 23, Type (0, 1), BuildingBlock: ZUJKAS_clean_linker_0, # of connection points: 2
#     Edge 24, Type (0, 1), BuildingBlock: ZUJKAS_clean_linker_0, # of connection points: 2
#     Edge 25, Type (0, 1), BuildingBlock: ZUJKAS_clean_linker_0, # of connection points: 2
#     Edge 26, Type (0, 1), BuildingBlock: ZUJKAS_clean_linker_0, # of connection points: 2
#     Edge 27, Type (0, 1), BuildingBlock: ZUJKAS_clean_linker_0, # of connection points: 2
#     Edge 28, Type (0, 1), BuildingBlock: ZUJKAS_clean_linker_0, # of connection points: 2
#     Edge 29, Type (0, 1), BuildingBlock: ZUJKAS_clean_linker_0, # of connection points: 2
#     Edge 30, Type (0, 1), BuildingBlock: ZUJKAS_clean_linker_0, # of connection points: 2
#     Edge 31, Type (0, 1), BuildingBlock: ZUJKAS_clean_linker_0, # of connection points: 2
#     Edge 32, Type (0, 1), BuildingBlock: ZUJKAS_clean_linker_0, # of connection points: 2
#     Edge 33, Type (0, 1), BuildingBlock: ZUJKAS_clean_linker_0, # of connection points: 2
# Relax obj value: 0.009
# Max RMSD: 0.105
# Mean RMSD: 0.089
data_MOF--net-llj--node1-QEWDON_clean_sbu_0--node2-BETDAH_clean_linker_0--edge1-ZUJKAS_clean_linker_0
_symmetry_space_group_name_H-M    P1
_symmetry_Int_Tables_number       1
_symmetry_cell_setting            triclinic
loop_
_symmetry_equiv_pos_as_xyz
'x, y, z'
_cell_length_a     49.724017
_cell_length_b     49.725892
_cell_length_c     31.267283
_cell_angle_alpha  91.262304
_cell_angle_beta   90.35036
_cell_angle_gamma 90.007418
loop_
_atom_site_label
_atom_site_type_symbol
_atom_site_fract_x
_atom_site_fract_y
_atom_site_fract_z
_atom_type_partial_charge
Zn0 Zn 0.95148 0.05784 0.96219 0.0
Zn1 Zn 0.96197 0.05569 0.06243 0.0
O2 O 0.98107 0.0542 0.00671 0.0
H3 H 0.99813 0.04557 0.00106 0.0
C4 C 0.91597 0.01306 0.91213 0.0
O5 O 0.91076 0.01723 0.95289 0.0
Zn6 Zn 0.0507 0.95202 0.0279 0.0
Zn7 Zn 0.04067 0.94965 0.92585 0.0
O8 O 0.02389 0.96032 0.98223 0.0
H9 H 0.00985 0.97367 0.98479 0.0
Zn10 Zn 0.94235 0.96752 0.94888 0.0
O11 O 0.95626 0.98734 0.00149 0.0
Zn12 Zn 0.95624 0.96025 0.0473 0.0
H13 H 0.96855 0.00227 -0.00014 0.0
Zn14 Zn 0.07173 0.0488 0.95118 0.0
O15 O 0.0506 0.0291 0.99538 0.0
H16 H 0.03683 0.01585 0.98928 0.0
Zn17 Zn 0.05756 0.04772 0.05139 0.0
C18 C 0.09689 0.00348 0.90627 0.0
O19 O 0.10006 0.99541 0.94572 0.0
O20 O 0.91889 0.07863 0.98603 0.0
O21 O 0.92747 0.07743 0.05586 0.0
O22 O 0.0754 0.92757 0.93253 0.0
O23 O 0.08094 0.92878 0.00328 0.0
O24 O 0.92018 0.93374 0.96266 0.0
O25 O 0.93031 0.92983 0.03168 0.0
C26 C 0.01125 0.07269 0.10438 0.0
O27 O 0.09481 0.07992 0.97612 0.0
O28 O 0.08328 0.07915 0.04477 0.0
O29 O 0.01424 0.93711 0.8782 0.0
C30 C 0.91288 0.0849 0.02454 0.0
O31 O 0.96432 0.06777 0.90166 0.0
C32 C 0.00735 0.93598 0.08039 0.0
O33 O 0.92926 0.99227 0.90085 0.0
C34 C 0.08834 0.92092 0.96597 0.0
O35 O 0.08558 0.02597 0.89979 0.0
C36 C 0.94571 0.0033 0.10781 0.0
O37 O 0.9858 0.07421 0.10688 0.0
O38 O 0.02111 0.0591 0.0733 0.0
C39 C 0.91775 0.92172 0.99804 0.0
O40 O 0.03265 0.93357 0.077 0.0
O41 O 0.99456 0.94805 0.05137 0.0
C42 C 0.07208 0.99644 0.0858 0.0
O43 O 0.94465 0.97785 0.10308 0.0
O44 O 0.95492 0.01683 0.0771 0.0
C45 C 0.09663 0.08928 0.01435 0.0
O46 O 0.07337 0.02162 0.09298 0.0
O47 O 0.06306 0.98815 0.04976 0.0
C48 C 0.99227 0.92573 0.88786 0.0
O49 O 0.98641 0.92257 0.92837 0.0
C50 C 0.98609 0.08108 0.90073 0.0
O51 O 0.99837 0.08718 0.93699 0.0
Zn52 Zn 0.45592 0.57304 0.47874 0.0
Zn53 Zn 0.4589 0.55777 0.57808 0.0
O54 O 0.47846 0.55427 0.5228 0.0
H55 H 0.49202 0.54097 0.51596 0.0
C56 C 0.43949 0.50615 0.40471 0.0
O57 O 0.44337 0.52057 0.4399 0.0
Zn58 Zn 0.53946 0.45088 0.57506 0.0
Zn59 Zn 0.54178 0.43342 0.47635 0.0
O60 O 0.51799 0.45145 0.52088 0.0
H61 H 0.50423 0.46447 0.51438 0.0
Zn62 Zn 0.44658 0.46235 0.46427 0.0
O63 O 0.45005 0.48702 0.51625 0.0
Zn64 Zn 0.44296 0.46368 0.56586 0.0
H65 H 0.4623 0.50208 0.51698 0.0
Zn66 Zn 0.5656 0.53808 0.46347 0.0
O67 O 0.54766 0.52125 0.51421 0.0
H68 H 0.53312 0.5084 0.51185 0.0
Zn69 Zn 0.55484 0.54569 0.56449 0.0
C70 C 0.57803 0.48767 0.41814 0.0
O71 O 0.57196 0.47782 0.45551 0.0
O72 O 0.42422 0.5943 0.50475 0.0
O73 O 0.42761 0.58398 0.57352 0.0
O74 O 0.5727 0.4115 0.50199 0.0
O75 O 0.56906 0.42257 0.57099 0.0
O76 O 0.42267 0.42961 0.4756 0.0
O77 O 0.41991 0.43137 0.54652 0.0
C78 C 0.51003 0.56809 0.61928 0.0
O79 O 0.5894 0.57081 0.47886 0.0
O80 O 0.58037 0.57571 0.54814 0.0
O81 O 0.52341 0.41789 0.42168 0.0
C82 C 0.41607 0.59649 0.54328 0.0
O83 O 0.47594 0.58779 0.42619 0.0
C84 C 0.48994 0.44506 0.6216 0.0
O85 O 0.44061 0.48066 0.40631 0.0
C86 C 0.58029 0.40918 0.54071 0.0
O87 O 0.57687 0.51294 0.41315 0.0
C88 C 0.42732 0.51067 0.61375 0.0
O89 O 0.48484 0.57059 0.62432 0.0
O90 O 0.51851 0.55855 0.58382 0.0
C91 C 0.41376 0.42041 0.51043 0.0
O92 O 0.51529 0.44217 0.62439 0.0
O93 O 0.48007 0.45349 0.58679 0.0
C94 C 0.56717 0.49982 0.6137 0.0
O95 O 0.4227 0.48557 0.61056 0.0
O96 O 0.44546 0.52042 0.59014 0.0
C97 C 0.59254 0.5832 0.51465 0.0
O98 O 0.5712 0.52499 0.61263 0.0
O99 O 0.55382 0.48854 0.58355 0.0
C100 C 0.49814 0.41421 0.42196 0.0
O101 O 0.48459 0.42068 0.45661 0.0
C102 C 0.5015 0.58827 0.42714 0.0
O103 O 0.51414 0.57958 0.46117 0.0
H104 H 0.39331 0.33316 0.01565 0.0
H105 H 0.36709 0.25693 0.06292 0.0
H106 H 0.37249 0.26873 0.92755 0.0
C107 C 0.38615 0.31282 0.00972 0.0
C108 C 0.38313 0.30317 0.96749 0.0
C109 C 0.38064 0.29624 0.04436 0.0
C110 C 0.3714 0.26991 0.03642 0.0
C111 C 0.36833 0.26011 0.99419 0.0
C112 C 0.37452 0.27662 0.96001 0.0
N113 N 0.35938 0.23357 0.98532 0.0
C114 C 0.33834 0.22234 0.00767 0.0
H115 H 0.65687 0.38262 0.01953 0.0
H116 H 0.72902 0.34931 0.07356 0.0
H117 H 0.72641 0.36882 0.94062 0.0
C118 C 0.67732 0.37547 0.01568 0.0
C119 C 0.68962 0.37644 0.97542 0.0
C120 C 0.69149 0.36605 0.05136 0.0
C121 C 0.71792 0.35661 0.04623 0.0
C122 C 0.7303 0.35736 0.00604 0.0
C123 C 0.71633 0.36771 0.97117 0.0
N124 N 0.75706 0.34844 5e-05 0.0
C125 C 0.76696 0.32557 0.01922 0.0
H126 H 0.61938 0.66138 0.02854 0.0
H127 H 0.64199 0.72766 0.9499 0.0
H128 H 0.64176 0.73757 0.08637 0.0
C129 C 0.62642 0.68187 0.02549 0.0
C130 C 0.63017 0.69804 0.06246 0.0
C131 C 0.63052 0.69224 0.98457 0.0
C132 C 0.63933 0.71895 0.98106 0.0
C133 C 0.64366 0.73505 0.01774 0.0
C134 C 0.63893 0.7247 0.05827 0.0
N135 N 0.65077 0.76234 0.01366 0.0
C136 C 0.67748 0.77032 0.01488 0.0
H137 H 0.32628 0.60089 -0.00055 0.0
H138 H 0.26052 0.6489 0.95384 0.0
H139 H 0.27158 0.63799 0.0888 0.0
C140 C 0.30859 0.61303 0.00589 0.0
C141 C 0.30094 0.61828 0.04831 0.0
C142 C 0.29401 0.62372 0.97159 0.0
C143 C 0.27194 0.64064 0.98008 0.0
C144 C 0.26389 0.64568 0.0226 0.0
C145 C 0.27822 0.63426 0.05625 0.0
N146 N 0.24096 0.66135 0.03286 0.0
C147 C 0.23104 0.68175 0.00769 0.0
H148 H 0.89867 0.83907 0.48911 0.0
H149 H 0.8505 0.77299 0.53179 0.0
H150 H 0.86942 0.77937 0.39876 0.0
C151 C 0.88684 0.8212 0.48204 0.0
C152 C 0.88517 0.81133 0.4397 0.0
C153 C 0.87443 0.80755 0.51558 0.0
C154 C 0.8601 0.78372 0.50626 0.0
C155 C 0.85863 0.77353 0.464 0.0
C156 C 0.87119 0.78729 0.43122 0.0
N157 N 0.84518 0.74919 0.45321 0.0
C158 C 0.82484 0.73824 0.47743 0.0
H159 H 0.15659 0.88784 0.494 0.0
H160 H 0.22502 0.84715 0.54751 0.0
H161 H 0.21563 0.85113 0.41139 0.0
C162 C 0.17491 0.87631 0.48981 0.0
C163 C 0.18382 0.86985 0.44827 0.0
C164 C 0.18978 0.86848 0.52593 0.0
C165 C 0.2135 0.85348 0.52 0.0
C166 C 0.22268 0.84719 0.47856 0.0
C167 C 0.20799 0.85564 0.44314 0.0
N168 N 0.24696 0.83298 0.47123 0.0
C169 C 0.25874 0.8162 0.50081 0.0
H170 H 0.10478 0.169 0.49267 0.0
H171 H 0.14847 0.23829 0.45075 0.0
H172 H 0.1199 0.23538 0.57997 0.0
C173 C 0.1136 0.18858 0.49947 0.0
C174 C 0.11106 0.20024 0.54049 0.0
C175 C 0.12687 0.20219 0.46681 0.0
C176 C 0.13836 0.22755 0.4758 0.0
C177 C 0.13604 0.23931 0.51695 0.0
C178 C 0.12209 0.22581 0.5487 0.0
N179 N 0.1466 0.26513 0.52709 0.0
C180 C 0.17058 0.27468 0.51079 0.0
H181 H 0.83294 0.10191 0.51692 0.0
H182 H 0.7691 0.15271 0.56391 0.0
H183 H 0.77875 0.13928 0.42855 0.0
C184 C 0.81559 0.11449 0.51082 0.0
C185 C 0.80774 0.11931 0.46855 0.0
C186 C 0.80176 0.12644 0.54535 0.0
C187 C 0.77993 0.14361 0.53734 0.0
C188 C 0.77155 0.14805 0.49499 0.0
C189 C 0.78544 0.13582 0.46103 0.0
N190 N 0.74898 0.16419 0.48509 0.0
C191 C 0.73706 0.18243 0.51332 0.0
H192 H 0.1102 0.11089 0.09306 0.0
H193 H 0.1473 0.14178 0.10977 0.0
H194 H 0.16543 0.14634 0.97538 0.0
H195 H 0.12837 0.11593 0.9583 0.0
H196 H 0.19973 0.13029 0.09262 0.0
H197 H 0.17162 0.22438 0.01362 0.0
H198 H 0.14735 0.19847 0.02484 0.0
H199 H 0.16776 0.19615 0.97746 0.0
C200 C 0.12171 0.11893 0.06696 0.0
C201 C 0.11642 0.11079 0.0243 0.0
C202 C 0.1429 0.13657 0.07662 0.0
C203 C 0.15891 0.14659 0.0438 0.0
C204 C 0.15295 0.13936 0.00115 0.0
H205 H 0.32074 0.17147 0.00094 0.0
H206 H 0.27654 0.15499 0.02239 0.0
C207 C 0.13186 0.12175 0.99146 0.0
C208 C 0.18378 0.16188 0.05372 0.0
H209 H 0.21971 0.21591 0.02088 0.0
C210 C 0.20391 0.14937 0.07787 0.0
C211 C 0.18907 0.18701 0.03525 0.0
C212 C 0.16765 0.2024 0.01176 0.0
C213 C 0.22992 0.16018 0.08083 0.0
C214 C 0.23595 0.1838 0.05844 0.0
C215 C 0.2152 0.19755 0.03752 0.0
C216 C 0.26396 0.19279 0.05176 0.0
C217 C 0.25089 0.14569 0.10667 0.0
C218 C 0.27154 0.21951 0.06101 0.0
C219 C 0.29673 0.22892 0.04846 0.0
C220 C 0.31445 0.21171 0.02649 0.0
C221 C 0.30736 0.18484 0.01849 0.0
C222 C 0.28223 0.17544 0.03096 0.0
H223 H 0.24153 0.13479 0.13342 0.0
H224 H 0.26112 0.13058 0.08581 0.0
H225 H 0.26624 0.15982 0.11998 0.0
H226 H 0.25763 0.23328 0.07658 0.0
H227 H 0.30192 0.24985 0.05437 0.0
H228 H 0.87793 0.10564 0.96602 0.0
H229 H 0.84831 0.14432 0.97652 0.0
H230 H 0.86823 0.14721 0.1109 0.0
H231 H 0.89789 0.10833 0.10099 0.0
H232 H 0.81072 0.15981 0.08608 0.0
H233 H 0.88958 0.21751 0.00238 0.0
H234 H 0.87803 0.18762 0.97456 0.0
H235 H 0.89579 0.18483 0.02446 0.0
C236 C 0.87561 0.11405 0.99805 0.0
C237 C 0.89072 0.10421 0.03252 0.0
C238 C 0.85867 0.13617 0.00393 0.0
C239 C 0.85655 0.1488 0.04429 0.0
C240 C 0.86978 0.13774 0.07947 0.0
H241 H 0.81238 0.31792 0.06484 0.0
H242 H 0.83327 0.27435 0.08013 0.0
C243 C 0.88674 0.11555 0.07368 0.0
C244 C 0.84316 0.17521 0.04847 0.0
H245 H 0.84861 0.24006 0.0165 0.0
C246 C 0.81899 0.17746 0.07117 0.0
C247 C 0.8544 0.19821 0.02971 0.0
C248 C 0.881 0.19713 0.0067 0.0
C249 C 0.80518 0.20209 0.07414 0.0
C250 C 0.8158 0.22478 0.05354 0.0
C251 C 0.84046 0.22263 0.03221 0.0
C252 C 0.80116 0.25064 0.05121 0.0
C253 C 0.77941 0.20361 0.09926 0.0
C254 C 0.77605 0.25169 0.03052 0.0
C255 C 0.76417 0.27647 0.02199 0.0
C256 C 0.77733 0.30041 0.03384 0.0
C257 C 0.8019 0.29952 0.05585 0.0
C258 C 0.81377 0.27473 0.0645 0.0
H259 H 0.7785 0.18763 0.12349 0.0
H260 H 0.7772 0.2235 0.11569 0.0
H261 H 0.76211 0.20069 0.07705 0.0
H262 H 0.76629 0.23343 0.01899 0.0
H263 H 0.7453 0.27692 0.0045 0.0
H264 H 0.88639 0.89963 0.93411 0.0
H265 H 0.84952 0.86763 0.94158 0.0
H266 H 0.86769 0.8611 0.07596 0.0
H267 H 0.90444 0.89337 0.06909 0.0
H268 H 0.84615 0.81407 0.97336 0.0
H269 H 0.78937 0.88868 0.07275 0.0
H270 H 0.81852 0.8978 0.04219 0.0
H271 H 0.82251 0.8805 0.09164 0.0
C272 C 0.88279 0.8912 0.9652 0.0
C273 C 0.8981 0.89944 0.00115 0.0
C274 C 0.86174 0.87285 0.96936 0.0
C275 C 0.8556 0.86244 0.00947 0.0
C276 C 0.87183 0.86932 0.04489 0.0
H277 H 0.70954 0.77753 0.08394 0.0
H278 H 0.75519 0.79663 0.08492 0.0
C279 C 0.89289 0.88769 0.04082 0.0
C280 C 0.83114 0.84588 0.0145 0.0
H281 H 0.76847 0.84708 0.05843 0.0
C282 C 0.82921 0.82115 0.99219 0.0
C283 C 0.80911 0.85522 0.03912 0.0
C284 C 0.80974 0.88208 0.06258 0.0
C285 C 0.80568 0.80557 0.99356 0.0
C286 C 0.78339 0.81529 0.0172 0.0
C287 C 0.78561 0.83967 0.04041 0.0
C288 C 0.757 0.80145 0.01632 0.0
C289 C 0.8049 0.77887 0.96975 0.0
C290 C 0.74293 0.7979 0.9775 0.0
C291 C 0.71701 0.78704 0.977 0.0
C292 C 0.70481 0.77977 0.0153 0.0
C293 C 0.71883 0.78296 0.05407 0.0
C294 C 0.74478 0.79381 0.05461 0.0
H295 H 0.82545 0.77063 0.96482 0.0
H296 H 0.79277 0.76392 0.98713 0.0
H297 H 0.79562 0.78164 0.93779 0.0
H298 H 0.75166 0.80428 0.94775 0.0
H299 H 0.70628 0.78488 0.94685 0.0
H300 H 0.11168 0.90168 0.89229 0.0
H301 H 0.14323 0.86417 0.88508 0.0
H302 H 0.14566 0.85719 0.02232 0.0
H303 H 0.11503 0.89524 0.02994 0.0
H304 H 0.19465 0.84777 0.9864 0.0
H305 H 0.11509 0.78868 0.90068 0.0
H306 H 0.12516 0.8192 0.87566 0.0
H307 H 0.10836 0.82074 0.9264 0.0
C308 C 0.11937 0.89253 0.92098 0.0
C309 C 0.11055 0.90125 0.96168 0.0
C310 C 0.13723 0.87095 0.91676 0.0
C311 C 0.1462 0.85744 0.95309 0.0
C312 C 0.13883 0.86722 0.99381 0.0
H313 H 0.18045 0.69871 0.01676 0.0
H314 H 0.16213 0.74196 0.9946 0.0
C315 C 0.12126 0.88898 0.99811 0.0
C316 C 0.16148 0.83193 0.94923 0.0
H317 H 0.15506 0.76615 0.91704 0.0
C318 C 0.18624 0.82998 0.9707 0.0
C319 C 0.15027 0.80873 0.92896 0.0
C320 C 0.12318 0.80923 0.90688 0.0
C321 C 0.19953 0.80522 0.9742 0.0
C322 C 0.188 0.78192 0.95479 0.0
C323 C 0.1639 0.78412 0.93157 0.0
C324 C 0.19855 0.75467 0.96316 0.0
C325 C 0.22488 0.80393 0.00091 0.0
C326 C 0.22481 0.74712 0.95164 0.0
C327 C 0.23528 0.72242 0.96449 0.0
C328 C 0.21943 0.70502 0.9884 0.0
C329 C 0.19284 0.7119 0.998 0.0
C330 C 0.18243 0.73655 0.9854 0.0
H331 H 0.22833 0.82275 0.01996 0.0
H332 H 0.22401 0.78685 0.02314 0.0
H333 H 0.2424 0.80077 0.97958 0.0
H334 H 0.2374 0.76062 0.93384 0.0
H335 H 0.25594 0.71733 0.95704 0.0
H336 H 0.62359 0.60357 0.45124 0.0
H337 H 0.66014 0.63603 0.45899 0.0
H338 H 0.6428 0.64598 0.59339 0.0
H339 H 0.6064 0.61305 0.58625 0.0
H340 H 0.66245 0.68944 0.48828 0.0
H341 H 0.72158 0.62142 0.59226 0.0
H342 H 0.69229 0.61009 0.56268 0.0
H343 H 0.68849 0.6304 0.61047 0.0
C344 C 0.62733 0.61279 0.48242 0.0
C345 C 0.61232 0.60538 0.51824 0.0
C346 C 0.6482 0.6314 0.48676 0.0
C347 C 0.65444 0.64299 0.5269 0.0
C348 C 0.63861 0.63682 0.56231 0.0
H349 H 0.78567 0.76267 0.52336 0.0
H350 H 0.74316 0.74192 0.54563 0.0
C351 C 0.61774 0.61809 0.55807 0.0
C352 C 0.67848 0.66035 0.53147 0.0
H353 H 0.74254 0.66123 0.57139 0.0
C354 C 0.67985 0.68359 0.50698 0.0
C355 C 0.70113 0.65243 0.55575 0.0
C356 C 0.70105 0.62714 0.5816 0.0
C357 C 0.70371 0.69851 0.50448 0.0
C358 C 0.7266 0.69016 0.5278 0.0
C359 C 0.72485 0.66763 0.55387 0.0
C360 C 0.75336 0.70223 0.52086 0.0
C361 C 0.70469 0.72203 0.47482 0.0
C362 C 0.77353 0.68648 0.50154 0.0
C363 C 0.7977 0.69818 0.48936 0.0
C364 C 0.80201 0.72571 0.49654 0.0
C365 C 0.78256 0.7413 0.51779 0.0
C366 C 0.75833 0.72955 0.53017 0.0
H367 H 0.68666 0.72293 0.45373 0.0
H368 H 0.7057 0.74103 0.49404 0.0
H369 H 0.72287 0.7209 0.45441 0.0
H370 H 0.77007 0.66537 0.49407 0.0
H371 H 0.81253 0.68597 0.47269 0.0
H372 H 0.39642 0.61146 0.62226 0.0
H373 H 0.36201 0.64551 0.63798 0.0
H374 H 0.35105 0.65769 0.50283 0.0
H375 H 0.38491 0.62377 0.48682 0.0
H376 H 0.36578 0.69899 0.61559 0.0
H377 H 0.27392 0.65414 0.5449 0.0
H378 H 0.30313 0.63427 0.55806 0.0
H379 H 0.3013 0.65151 0.50801 0.0
C380 C 0.38633 0.62106 0.59589 0.0
C381 C 0.39353 0.61498 0.55325 0.0
C382 C 0.36669 0.64049 0.60497 0.0
C383 C 0.35374 0.65383 0.57156 0.0
C384 C 0.36035 0.6472 0.52908 0.0
H385 H 0.31126 0.80473 0.50243 0.0
H386 H 0.3322 0.76573 0.53523 0.0
C387 C 0.37994 0.62793 0.51999 0.0
C388 C 0.33545 0.67674 0.58019 0.0
H389 H 0.27662 0.70322 0.54408 0.0
C390 C 0.34592 0.69975 0.60108 0.0
C391 C 0.30933 0.67756 0.56225 0.0
C392 C 0.29617 0.6529 0.54249 0.0
C393 C 0.33207 0.72432 0.6005 0.0
C394 C 0.30746 0.72588 0.57777 0.0
C395 C 0.29573 0.70221 0.56091 0.0
C396 C 0.29566 0.75194 0.56529 0.0
C397 C 0.34452 0.74857 0.62262 0.0
C398 C 0.26814 0.75723 0.57116 0.0
C399 C 0.25616 0.77941 0.55195 0.0
C400 C 0.27158 0.79642 0.52673 0.0
C401 C 0.2992 0.79194 0.52237 0.0
C402 C 0.31116 0.7698 0.5414 0.0
H403 H 0.35615 0.74258 0.65134 0.0
H404 H 0.35876 0.75825 0.6005 0.0
H405 H 0.32906 0.76354 0.63247 0.0
H406 H 0.25576 0.74355 0.58901 0.0
H407 H 0.23469 0.78254 0.55515 0.0
H408 H 0.38145 0.40263 0.57456 0.0
H409 H 0.34376 0.37135 0.56766 0.0
H410 H 0.36301 0.35681 0.43481 0.0
H411 H 0.40035 0.38855 0.4411 0.0
H412 H 0.31147 0.37022 0.44426 0.0
H413 H 0.3363 0.2908 0.55894 0.0
H414 H 0.33806 0.32365 0.5836 0.0
H415 H 0.36093 0.31471 0.54117 0.0
C416 C 0.37805 0.39236 0.5441 0.0
C417 C 0.39383 0.39826 0.50832 0.0
C418 C 0.35655 0.37433 0.54026 0.0
C419 C 0.35068 0.36152 0.50081 0.0
C420 C 0.36718 0.36643 0.46557 0.0
H421 H 0.21539 0.24768 0.48722 0.0
H422 H 0.26049 0.26707 0.47793 0.0
C423 C 0.38854 0.38459 0.46927 0.0
C424 C 0.32577 0.34536 0.49525 0.0
H425 H 0.28956 0.29459 0.53879 0.0
C426 C 0.30687 0.3534 0.46449 0.0
C427 C 0.31988 0.32317 0.52115 0.0
C428 C 0.34001 0.31239 0.55274 0.0
C429 C 0.28177 0.34071 0.46036 0.0
C430 C 0.27515 0.3198 0.48836 0.0
C431 C 0.29453 0.31085 0.51765 0.0
C432 C 0.24771 0.30819 0.48978 0.0
C433 C 0.2625 0.35003 0.42628 0.0
C434 C 0.22563 0.32486 0.49926 0.0
C435 C 0.20004 0.31385 0.50424 0.0
C436 C 0.19622 0.28602 0.50008 0.0
C437 C 0.21804 0.26928 0.48997 0.0
C438 C 0.24369 0.28031 0.48488 0.0
H439 H 0.27338 0.35921 0.39932 0.0
H440 H 0.25 0.33314 0.41349 0.0
H441 H 0.24894 0.36557 0.44026 0.0
H442 H 0.22835 0.34632 0.50428 0.0
H443 H 0.18343 0.32697 0.51277 0.0
H444 H 0.598 0.3935 0.61974 0.0
H445 H 0.63078 0.35814 0.63524 0.0
H446 H 0.64268 0.34448 0.49997 0.0
H447 H 0.61059 0.37985 0.48422 0.0
H448 H 0.6264 0.305 0.61181 0.0
H449 H 0.71933 0.34653 0.54413 0.0
H450 H 0.69027 0.36716 0.55573 0.0
H451 H 0.69228 0.34812 0.50613 0.0
C452 C 0.608 0.38331 0.59333 0.0
C453 C 0.60168 0.38953 0.55072 0.0
C454 C 0.62667 0.36309 0.60227 0.0
C455 C 0.63948 0.34899 0.56879 0.0
C456 C 0.63356 0.35554 0.52635 0.0
H457 H 0.68443 0.193 0.50998 0.0
H458 H 0.66215 0.23361 0.53731 0.0
C459 C 0.61498 0.37566 0.51739 0.0
C460 C 0.65722 0.32577 0.57731 0.0
H461 H 0.71643 0.29766 0.54519 0.0
C462 C 0.64638 0.30358 0.59821 0.0
C463 C 0.68352 0.32409 0.56053 0.0
C464 C 0.69712 0.3479 0.54082 0.0
C465 C 0.66021 0.279 0.59932 0.0
C466 C 0.68521 0.27649 0.57825 0.0
C467 C 0.69707 0.29939 0.56081 0.0
C468 C 0.69772 0.24996 0.5688 0.0
C469 C 0.64747 0.25576 0.62186 0.0
C470 C 0.72515 0.24556 0.57729 0.0
C471 C 0.73792 0.22242 0.5612 0.0
C472 C 0.72336 0.20353 0.53653 0.0
C473 C 0.69581 0.20725 0.52959 0.0
C474 C 0.68308 0.23035 0.54547 0.0
H475 H 0.63514 0.26303 0.64928 0.0
H476 H 0.63386 0.24481 0.59926 0.0
H477 H 0.66282 0.24148 0.63375 0.0
H478 H 0.73689 0.26054 0.59479 0.0
H479 H 0.75934 0.2199 0.56634 0.0
H480 H 0.06604 0.06875 0.11793 0.0
H481 H 0.09288 0.09072 0.17411 0.0
H482 H 0.02159 0.1295 0.22317 0.0
H483 H 0.99467 0.10778 0.16683 0.0
H484 H 0.09855 0.14808 0.19755 0.0
H485 H 0.0535 0.08668 0.32482 0.0
H486 H 0.05119 0.07739 0.26877 0.0
H487 H 0.02937 0.10284 0.29095 0.0
C488 C 0.05608 0.08212 0.1401 0.0
C489 C 0.02818 0.08638 0.13752 0.0
C490 C 0.07148 0.09467 0.17238 0.0
C491 C 0.05915 0.11152 0.20294 0.0
C492 C 0.03143 0.1163 0.2001 0.0
H493 H 0.11061 0.22616 0.39351 0.0
H494 H 0.09972 0.20364 0.32519 0.0
C495 C 0.01609 0.10383 0.16782 0.0
C496 C 0.07491 0.12344 0.23885 0.0
H497 H 0.0791 0.12473 0.34767 0.0
C498 C 0.09456 0.14286 0.23041 0.0
C499 C 0.06994 0.11619 0.2815 0.0
C500 C 0.05004 0.09446 0.2922 0.0
C501 C 0.10863 0.15608 0.26391 0.0
C502 C 0.1026 0.1498 0.30672 0.0
C503 C 0.08367 0.12962 0.31486 0.0
C504 C 0.11442 0.16462 0.344 0.0
C505 C 0.12971 0.17661 0.25317 0.0
C506 C 0.12679 0.15033 0.37698 0.0
C507 C 0.13275 0.16311 0.41609 0.0
C508 C 0.12648 0.19041 0.4229 0.0
C509 C 0.11594 0.20518 0.38888 0.0
C510 C 0.10977 0.19232 0.34979 0.0
H511 H 0.13782 0.173 0.2205 0.0
H512 H 0.12052 0.19694 0.25416 0.0
H513 H 0.14663 0.1764 0.27652 0.0
H514 H 0.13052 0.12895 0.37322 0.0
H515 H 0.141 0.15133 0.44179 0.0
H516 H 0.92911 0.97851 0.18002 0.0
H517 H 0.90781 0.99912 0.2429 0.0
H518 H 0.91727 0.07753 0.18883 0.0
H519 H 0.93836 0.05714 0.12603 0.0
H520 H 0.9272 0.04205 0.30133 0.0
H521 H 0.83488 0.06905 0.21041 0.0
H522 H 0.85887 0.04461 0.19055 0.0
H523 H 0.86622 0.07989 0.18816 0.0
C524 C 0.92683 0.00018 0.18152 0.0
C525 C 0.93522 0.01619 0.14748 0.0
C526 C 0.9147 0.01188 0.21754 0.0
C527 C 0.91063 0.03975 0.22005 0.0
C528 C 0.9199 0.0559 0.18709 0.0
H529 H 0.82427 0.14439 0.3966 0.0
H530 H 0.85024 0.12515 0.33717 0.0
C531 C 0.93209 0.04421 0.15116 0.0
C532 C 0.89588 0.05182 0.25651 0.0
H533 H 0.83729 0.08363 0.28265 0.0
C534 C 0.90753 0.05113 0.29741 0.0
C535 C 0.8703 0.06366 0.25098 0.0
C536 C 0.85664 0.06425 0.20776 0.0
C537 C 0.89436 0.06239 0.33309 0.0
C538 C 0.8686 0.07399 0.32768 0.0
C539 C 0.85703 0.07471 0.28667 0.0
C540 C 0.85323 0.08552 0.36406 0.0
C541 C 0.90839 0.06228 0.37602 0.0
C542 C 0.84599 0.06949 0.39854 0.0
C543 C 0.83121 0.08043 0.43253 0.0
C544 C 0.82311 0.10751 0.43231 0.0
C545 C 0.83004 0.1234 0.39743 0.0
C546 C 0.84496 0.11249 0.3636 0.0
H547 H 0.93049 0.05978 0.37259 0.0
H548 H 0.90444 0.08118 0.39449 0.0
H549 H 0.90078 0.0452 0.3947 0.0
H550 H 0.85155 0.04844 0.39896 0.0
H551 H 0.82579 0.06763 0.45872 0.0
H552 H 0.02291 0.94327 0.163 0.0
H553 H 0.00094 0.92566 0.22669 0.0
H554 H 0.94 0.88827 0.14657 0.0
H555 H 0.96154 0.90648 0.08314 0.0
H556 H 0.91892 0.91118 0.21902 0.0
H557 H 0.00681 0.84742 0.25868 0.0
H558 H 0.01472 0.88253 0.25599 0.0
H559 H 0.00379 0.86447 0.20856 0.0
C560 C 0.00474 0.93139 0.15922 0.0
C561 C 0.99366 0.92628 0.11848 0.0
C562 C 0.99234 0.92126 0.19543 0.0
C563 C 0.96923 0.9052 0.19121 0.0
C564 C 0.95784 0.90063 0.1505 0.0
H565 H 0.91199 0.79 0.37064 0.0
H566 H 0.93124 0.81391 0.31086 0.0
C567 C 0.96998 0.91115 0.11437 0.0
C568 C 0.9574 0.89241 0.22898 0.0
H569 H 0.9715 0.84903 0.30911 0.0
C570 C 0.93037 0.89758 0.23877 0.0
C571 C 0.97232 0.87436 0.25421 0.0
C572 C 0.00092 0.86661 0.24366 0.0
C573 C 0.9178 0.88517 0.27323 0.0
C574 C 0.93296 0.86773 0.2992 0.0
C575 C 0.96 0.86262 0.28939 0.0
C576 C 0.92093 0.85356 0.3356 0.0
C577 C 0.88824 0.89023 0.28057 0.0
C578 C 0.90903 0.86792 0.36965 0.0
C579 C 0.8975 0.85426 0.40354 0.0
C580 C 0.89806 0.82598 0.40432 0.0
C581 C 0.91067 0.81173 0.37065 0.0
C582 C 0.9219 0.82539 0.33662 0.0
H583 H 0.87813 0.89782 0.25142 0.0
H584 H 0.87783 0.87163 0.29043 0.0
H585 H 0.88588 0.90569 0.30641 0.0
H586 H 0.90864 0.8897 0.37004 0.0
H587 H 0.88782 0.86587 0.42879 0.0
H588 H 0.09032 0.94437 0.07971 0.0
H589 H 0.10391 0.91547 0.13866 0.0
H590 H 0.08429 0.97907 0.2292 0.0
H591 H 0.06996 0.00747 0.17086 0.0
H592 H 0.14485 0.92712 0.196 0.0
H593 H 0.04958 0.91502 0.28442 0.0
H594 H 0.05069 0.92417 0.22883 0.0
H595 H 0.05609 0.94919 0.27047 0.0
C596 C 0.0882 0.95181 0.1122 0.0
C597 C 0.07878 0.97799 0.12065 0.0
C598 C 0.09611 0.93539 0.14584 0.0
C599 C 0.09458 0.94493 0.18837 0.0
C600 C 0.08493 0.97099 0.19677 0.0
H601 H 0.15924 0.91837 0.43555 0.0
H602 H 0.13605 0.93321 0.37098 0.0
C603 C 0.07705 0.98732 0.1633 0.0
C604 C 0.10541 0.92897 0.22397 0.0
H605 H 0.09023 0.90726 0.32383 0.0
C606 C 0.13282 0.92226 0.22361 0.0
C607 C 0.08965 0.92272 0.25993 0.0
C608 C 0.05979 0.9279 0.26091 0.0
C609 C 0.14521 0.91079 0.25927 0.0
C610 C 0.12968 0.90572 0.29593 0.0
C611 C 0.10208 0.91143 0.29571 0.0
C612 C 0.14211 0.89585 0.33562 0.0
C613 C 0.17506 0.90532 0.25833 0.0
C614 C 0.15264 0.86976 0.3372 0.0
C615 C 0.1657 0.86114 0.37412 0.0
C616 C 0.16846 0.87849 0.41007 0.0
C617 C 0.15722 0.90441 0.40864 0.0
C618 C 0.14409 0.91297 0.37174 0.0
H619 H 0.18487 0.91419 0.23008 0.0
H620 H 0.1849 0.91354 0.28781 0.0
H621 H 0.17852 0.88327 0.25714 0.0
H622 H 0.15096 0.85618 0.30976 0.0
H623 H 0.17371 0.84089 0.37448 0.0
H624 H 0.08646 0.01041 0.82152 0.0
H625 H 0.10274 0.98333 0.76103 0.0
H626 H 0.14575 0.93209 0.84752 0.0
H627 H 0.12889 0.9587 0.90848 0.0
H628 H 0.15415 0.97572 0.73703 0.0
H629 H 0.10683 0.87749 0.77147 0.0
H630 H 0.09767 0.9082 0.79956 0.0
H631 H 0.12784 0.89054 0.81392 0.0
C632 C 0.09924 0.99328 0.82775 0.0
C633 C 0.1064 0.98671 0.86979 0.0
C634 C 0.10851 0.9778 0.79313 0.0
C635 C 0.1252 0.9555 0.79977 0.0
C636 C 0.13242 0.94886 0.8417 0.0
H637 H 0.22154 0.88745 0.59171 0.0
H638 H 0.20712 0.90598 0.66089 0.0
C639 C 0.12292 0.9642 0.87647 0.0
C640 C 0.13597 0.94021 0.76243 0.0
H641 H 0.13758 0.87811 0.71352 0.0
C642 C 0.15055 0.95437 0.73192 0.0
C643 C 0.13111 0.91238 0.75577 0.0
C644 C 0.1148 0.89628 0.7867 0.0
C645 C 0.16021 0.94158 0.69471 0.0
C646 C 0.15567 0.9137 0.68827 0.0
C647 C 0.14121 0.89944 0.71883 0.0
C648 C 0.16471 0.89944 0.64886 0.0
C649 C 0.17449 0.95822 0.66201 0.0
C650 C 0.14571 0.88852 0.62005 0.0
C651 C 0.15389 0.87758 0.58069 0.0
C652 C 0.18125 0.87733 0.5695 0.0
C653 C 0.20033 0.88716 0.59938 0.0
C654 C 0.19212 0.89801 0.63876 0.0
H655 H 0.17078 0.98009 0.66709 0.0
H656 H 0.19647 0.95473 0.66456 0.0
H657 H 0.16796 0.95241 0.62906 0.0
H658 H 0.12445 0.88927 0.62742 0.0
H659 H 0.13875 0.86973 0.55873 0.0
H660 H 0.03352 0.10708 0.88897 0.0
H661 H 0.05183 0.12351 0.82231 0.0
H662 H 0.98304 0.09187 0.75315 0.0
H663 H 0.96425 0.07554 0.82013 0.0
H664 H 0.065 0.09452 0.74728 0.0
H665 H 0.98564 0.17115 0.71836 0.0
H666 H 0.98981 0.15531 0.76937 0.0
H667 H 0.97429 0.13722 0.72546 0.0
C668 C 0.0222 0.10361 0.85966 0.0
C669 C 0.99734 0.09017 0.85988 0.0
C670 C 0.03275 0.11296 0.82157 0.0
C671 C 0.01864 0.10918 0.78296 0.0
C672 C 0.99402 0.09536 0.78278 0.0
H673 H 0.06357 0.17249 0.53396 0.0
H674 H 0.04055 0.14799 0.59018 0.0
C675 C 0.9834 0.08594 0.821 0.0
C676 C 0.03004 0.11991 0.74322 0.0
H677 H 0.02099 0.1683 0.66871 0.0
C678 C 0.0553 0.11051 0.72987 0.0
C679 C 0.01723 0.14067 0.72055 0.0
C680 C 0.99033 0.1519 0.73416 0.0
C681 C 0.06841 0.12171 0.69492 0.0
C682 C 0.05609 0.14317 0.67328 0.0
C683 C 0.03038 0.15191 0.68558 0.0
C684 C 0.07013 0.15765 0.63914 0.0
C685 C 0.09538 0.11056 0.68157 0.0
C686 C 0.09416 0.17147 0.64831 0.0
C687 C 0.10739 0.18536 0.61632 0.0
C688 C 0.09676 0.18578 0.57458 0.0
C689 C 0.07248 0.17218 0.56564 0.0
C690 C 0.05923 0.15832 0.59772 0.0
H691 H 0.09833 0.08972 0.69287 0.0
H692 H 0.09758 0.11052 0.64625 0.0
H693 H 0.11155 0.12331 0.69585 0.0
H694 H 0.10262 0.17162 0.68032 0.0
H695 H 0.12612 0.1955 0.62414 0.0
H696 H 0.92727 0.01304 0.82678 0.0
H697 H 0.90796 0.04201 0.77257 0.0
H698 H 0.86266 0.08461 0.8698 0.0
H699 H 0.88174 0.05553 0.92436 0.0
H700 H 0.83155 0.06507 0.80137 0.0
H701 H 0.91981 0.12105 0.74266 0.0
H702 H 0.9256 0.08549 0.74528 0.0
H703 H 0.91964 0.10469 0.79371 0.0
C704 C 0.91343 0.02875 0.83675 0.0
C705 C 0.90586 0.03185 0.8798 0.0
C706 C 0.90263 0.04548 0.80578 0.0
C707 C 0.88417 0.06566 0.81729 0.0
C708 C 0.87706 0.06927 0.86037 0.0
H709 H 0.81287 0.16207 0.61113 0.0
H710 H 0.83092 0.15152 0.68236 0.0
C711 C 0.88795 0.0526 0.89145 0.0
C712 C 0.87019 0.08082 0.78361 0.0
H713 H 0.88142 0.11802 0.69503 0.0
C714 C 0.84235 0.07714 0.77864 0.0
C715 C 0.88429 0.09674 0.75425 0.0
C716 C 0.91394 0.10248 0.75941 0.0
C717 C 0.82854 0.08746 0.74341 0.0
C718 C 0.84299 0.10169 0.71245 0.0
C719 C 0.87047 0.10692 0.71881 0.0
C720 C 0.83062 0.10845 0.67102 0.0
C721 C 0.79879 0.08221 0.7386 0.0
C722 C 0.82448 0.0877 0.64151 0.0
C723 C 0.81445 0.09363 0.6011 0.0
C724 C 0.81027 0.12044 0.58953 0.0
C725 C 0.81576 0.14124 0.6195 0.0
C726 C 0.82614 0.13528 0.65994 0.0
H727 H 0.78949 0.07698 0.76955 0.0
H728 H 0.78834 0.10005 0.72568 0.0
H729 H 0.79561 0.06509 0.71575 0.0
H730 H 0.82803 0.06689 0.64946 0.0
H731 H 0.81024 0.07725 0.57863 0.0
H732 H 0.99786 0.93053 0.8017 0.0
H733 H 0.97102 0.90892 0.7452 0.0
H734 H 0.9203 0.87315 0.83988 0.0
H735 H 0.94684 0.89516 0.89689 0.0
H736 H 0.96542 0.85378 0.73492 0.0
H737 H 0.86588 0.90354 0.75401 0.0
H738 H 0.89631 0.91724 0.7776 0.0
H739 H 0.87998 0.88909 0.80135 0.0
C740 C 0.98081 0.91835 0.81061 0.0
C741 C 0.97458 0.91443 0.8538 0.0
C742 C 0.96549 0.906 0.77825 0.0
C743 C 0.94363 0.88954 0.78835 0.0
C744 C 0.93686 0.8861 0.83139 0.0
H745 H 0.88525 0.77832 0.58699 0.0
H746 H 0.89776 0.79574 0.65819 0.0
C747 C 0.95215 0.89857 0.86391 0.0
C748 C 0.92931 0.87469 0.75356 0.0
H749 H 0.8692 0.86929 0.70069 0.0
C750 C 0.94432 0.85699 0.72759 0.0
C751 C 0.90182 0.87903 0.74418 0.0
C752 C 0.88501 0.89839 0.77046 0.0
C753 C 0.93285 0.84409 0.69162 0.0
C754 C 0.90539 0.84853 0.68195 0.0
C755 C 0.89016 0.86574 0.70852 0.0
C756 C 0.89311 0.83758 0.64199 0.0
C757 C 0.95061 0.82684 0.66319 0.0
C758 C 0.88486 0.85528 0.61019 0.0
C759 C 0.87734 0.8454 0.56975 0.0
C760 C 0.87801 0.81761 0.56033 0.0
C761 C 0.8845 0.79982 0.59319 0.0
C762 C 0.89189 0.80974 0.63377 0.0
H763 H 0.97231 0.83004 0.6703 0.0
H764 H 0.94597 0.80532 0.66825 0.0
H765 H 0.94693 0.83113 0.62894 0.0
H766 H 0.88548 0.87683 0.616 0.0
H767 H 0.87189 0.85958 0.54537 0.0
H768 H 0.50008 0.56519 0.7044 0.0
H769 H 0.52821 0.58227 0.76349 0.0
H770 H 0.5893 0.60486 0.67372 0.0
H771 H 0.56051 0.58905 0.61472 0.0
H772 H 0.58083 0.57062 0.79126 0.0
H773 H 0.57132 0.67574 0.73533 0.0
H774 H 0.55077 0.64867 0.71398 0.0
H775 H 0.5851 0.652 0.69729 0.0
C776 C 0.51963 0.57357 0.69734 0.0
C777 C 0.52839 0.57545 0.65487 0.0
C778 C 0.53572 0.58319 0.73109 0.0
C779 C 0.56071 0.59506 0.72292 0.0
C780 C 0.56997 0.59598 0.6807 0.0
H781 H 0.6579 0.68883 0.90855 0.0
H782 H 0.64499 0.66327 0.84363 0.0
C783 C 0.55379 0.58646 0.64696 0.0
C784 C 0.57606 0.60797 0.75848 0.0
H785 H 0.59591 0.66927 0.79862 0.0
C786 C 0.58437 0.59215 0.79274 0.0
C787 C 0.58068 0.63607 0.76019 0.0
C788 C 0.57136 0.65422 0.72496 0.0
C789 C 0.59666 0.60379 0.82918 0.0
C790 C 0.60036 0.63198 0.83152 0.0
C791 C 0.59306 0.64765 0.79658 0.0
C792 C 0.60939 0.64593 0.87133 0.0
C793 C 0.60525 0.58589 0.86511 0.0
C794 C 0.59345 0.64485 0.90807 0.0
C795 C 0.60055 0.65959 0.94487 0.0
C796 C 0.62378 0.67577 0.94572 0.0
C797 C 0.63982 0.6767 0.90885 0.0
C798 C 0.63259 0.66199 0.87188 0.0
H799 H 0.6085 0.56486 0.85358 0.0
H800 H 0.62403 0.59341 0.88062 0.0
H801 H 0.58921 0.58567 0.88963 0.0
H802 H 0.57505 0.63318 0.90789 0.0
H803 H 0.58735 0.65892 0.97225 0.0
H804 H 0.37802 0.49945 0.64662 0.0
H805 H 0.35228 0.52634 0.69843 0.0
H806 H 0.41416 0.5871 0.69955 0.0
H807 H 0.44013 0.55997 0.64885 0.0
H808 H 0.40115 0.57029 0.77928 0.0
H809 H 0.30856 0.59607 0.68979 0.0
H810 H 0.31681 0.56094 0.68595 0.0
H811 H 0.33918 0.58531 0.6637 0.0
C812 C 0.38602 0.51869 0.65753 0.0
C813 C 0.41111 0.52776 0.64315 0.0
C814 C 0.37112 0.53418 0.68674 0.0
C815 C 0.38104 0.55901 0.70211 0.0
C816 C 0.40593 0.5682 0.68756 0.0
H817 H 0.30176 0.65718 0.90401 0.0
H818 H 0.32154 0.64492 0.83419 0.0
C819 C 0.42077 0.55272 0.65835 0.0
C820 C 0.36699 0.57371 0.73704 0.0
H821 H 0.30597 0.59934 0.76679 0.0
C822 C 0.3805 0.57708 0.77629 0.0
C823 C 0.34018 0.58288 0.73292 0.0
C824 C 0.32539 0.5814 0.69068 0.0
C825 C 0.36743 0.58793 0.81222 0.0
C826 C 0.34006 0.59526 0.80893 0.0
C827 C 0.3269 0.59337 0.76918 0.0
C828 C 0.32456 0.60254 0.84759 0.0
C829 C 0.38271 0.59067 0.85395 0.0
C830 C 0.31899 0.5826 0.8772 0.0
C831 C 0.30785 0.58947 0.91669 0.0
C832 C 0.30203 0.61645 0.92729 0.0
C833 C 0.30606 0.63625 0.89655 0.0
C834 C 0.31735 0.62931 0.85684 0.0
H835 H 0.40482 0.59009 0.849 0.0
H836 H 0.37744 0.60976 0.87097 0.0
H837 H 0.37722 0.57378 0.87482 0.0
H838 H 0.32423 0.5618 0.87035 0.0
H839 H 0.30451 0.57376 0.93953 0.0
H840 H 0.43676 0.43087 0.6208 0.0
H841 H 0.41077 0.41308 0.67981 0.0
H842 H 0.47921 0.42394 0.7638 0.0
H843 H 0.50512 0.44212 0.70499 0.0
H844 H 0.42824 0.36631 0.72111 0.0
H845 H 0.41566 0.45125 0.83702 0.0
H846 H 0.42301 0.45608 0.78116 0.0
H847 H 0.44945 0.4474 0.81784 0.0
C848 C 0.44597 0.43031 0.652 0.0
C849 C 0.47291 0.43797 0.65815 0.0
C850 C 0.43115 0.42002 0.6857 0.0
C851 C 0.443 0.41751 0.72621 0.0
C852 C 0.46953 0.42622 0.73296 0.0
H853 H 0.42732 0.33492 0.95857 0.0
H854 H 0.43819 0.36369 0.89867 0.0
C855 C 0.48437 0.43637 0.69922 0.0
C856 C 0.42912 0.40262 0.75989 0.0
H857 H 0.41024 0.40688 0.86445 0.0
C858 C 0.42379 0.37523 0.75225 0.0
C859 C 0.42354 0.41439 0.80037 0.0
C860 C 0.42797 0.44397 0.80957 0.0
C861 C 0.41438 0.35886 0.78486 0.0
C862 C 0.40965 0.37043 0.82585 0.0
C863 C 0.41396 0.39808 0.83298 0.0
C864 C 0.40214 0.35382 0.8625 0.0
C865 C 0.41101 0.3291 0.77577 0.0
C866 C 0.37813 0.33898 0.86208 0.0
C867 C 0.37196 0.32239 0.89615 0.0
C868 C 0.38955 0.32072 0.93135 0.0
C869 C 0.41331 0.33601 0.93199 0.0
C870 C 0.41954 0.35242 0.89785 0.0
H871 H 0.42106 0.3226 0.74563 0.0
H872 H 0.41932 0.31717 0.8024 0.0
H873 H 0.38928 0.32435 0.77252 0.0
H874 H 0.36421 0.3402 0.83542 0.0
H875 H 0.35332 0.31111 0.8952 0.0
H876 H 0.56086 0.51238 0.69772 0.0
H877 H 0.58015 0.48882 0.7589 0.0
H878 H 0.61572 0.43022 0.67253 0.0
H879 H 0.59762 0.45466 0.61149 0.0
H880 H 0.57394 0.43585 0.78559 0.0
H881 H 0.6798 0.45752 0.74222 0.0
H882 H 0.65162 0.4741 0.71751 0.0
H883 H 0.66081 0.44053 0.70075 0.0
C884 C 0.57263 0.49432 0.69203 0.0
C885 C 0.57713 0.48463 0.65019 0.0
C886 C 0.58355 0.48089 0.72683 0.0
C887 C 0.59941 0.45784 0.72016 0.0
C888 C 0.60361 0.44801 0.67831 0.0
H889 H 0.6893 0.35663 0.8931 0.0
H890 H 0.66618 0.37523 0.83107 0.0
C891 C 0.59276 0.46151 0.64354 0.0
C892 C 0.61215 0.44459 0.75696 0.0
H893 H 0.67309 0.42858 0.80031 0.0
C894 C 0.59561 0.43426 0.78889 0.0
C895 C 0.64044 0.44263 0.7611 0.0
C896 C 0.65925 0.45449 0.72881 0.0
C897 C 0.60663 0.42177 0.82478 0.0
C898 C 0.63488 0.41989 0.82889 0.0
C899 C 0.65141 0.43001 0.79684 0.0
C900 C 0.64783 0.40808 0.86675 0.0
C901 C 0.58802 0.41043 0.85777 0.0
C902 C 0.64528 0.42059 0.90714 0.0
C903 C 0.65864 0.41019 0.94253 0.0
C904 C 0.67485 0.38712 0.93807 0.0
C905 C 0.67722 0.37459 0.89749 0.0
C906 C 0.66392 0.38507 0.86211 0.0
H907 H 0.56726 0.40774 0.84505 0.0
H908 H 0.59551 0.39076 0.86903 0.0
H909 H 0.58714 0.42449 0.88578 0.0
H910 H 0.6334 0.43872 0.91112 0.0
H911 H 0.65678 0.42059 0.97317 0.0
H912 H 0.59539 0.50209 0.33932 0.0
H913 H 0.61067 0.47268 0.28105 0.0
H914 H 0.59521 0.40315 0.35728 0.0
H915 H 0.58046 0.43259 0.41645 0.0
H916 H 0.64403 0.40038 0.31853 0.0
H917 H 0.5662 0.42635 0.19972 0.0
H918 H 0.58235 0.45598 0.22113 0.0
H919 H 0.56307 0.435 0.25584 0.0
C920 C 0.59505 0.48055 0.3437 0.0
C921 C 0.58658 0.46968 0.38248 0.0
C922 C 0.60362 0.46374 0.3102 0.0
C923 C 0.60354 0.43571 0.3145 0.0
C924 C 0.59519 0.42473 0.3532 0.0
H925 H 0.64156 0.34955 0.07573 0.0
H926 H 0.61913 0.3598 0.14374 0.0
C927 C 0.58675 0.44158 0.38692 0.0
C928 C 0.61346 0.4182 0.27907 0.0
H929 H 0.60747 0.40789 0.17135 0.0
C930 C 0.63577 0.4016 0.28644 0.0
C931 C 0.60227 0.41925 0.23747 0.0
C932 C 0.57696 0.43488 0.22816 0.0
C933 C 0.64828 0.38743 0.2527 0.0
C934 C 0.63859 0.39055 0.21044 0.0
C935 C 0.6152 0.40574 0.20361 0.0
C936 C 0.65343 0.38027 0.17243 0.0
C937 C 0.67189 0.36956 0.26274 0.0
C938 C 0.68032 0.38785 0.16624 0.0
C939 C 0.69321 0.38171 0.1277 0.0
C940 C 0.67928 0.36836 0.09432 0.0
C941 C 0.65269 0.35994 0.10099 0.0
C942 C 0.63991 0.36577 0.13978 0.0
H943 H 0.67019 0.36131 0.29535 0.0
H944 H 0.67359 0.35255 0.23931 0.0
H945 H 0.69067 0.38159 0.2619 0.0
H946 H 0.69096 0.39977 0.19029 0.0
H947 H 0.71357 0.38883 0.1231 0.0
H948 H 0.48179 0.60784 0.35204 0.0
H949 H 0.50747 0.62554 0.29246 0.0
H950 H 0.58153 0.60953 0.3598 0.0
H951 H 0.55602 0.59228 0.41985 0.0
H952 H 0.58043 0.65998 0.32542 0.0
H953 H 0.55039 0.58261 0.204 0.0
H954 H 0.52228 0.5988 0.22945 0.0
H955 H 0.54481 0.57859 0.26049 0.0
C956 C 0.50354 0.60802 0.35415 0.0
C957 C 0.51688 0.5986 0.39066 0.0
C958 C 0.51819 0.61798 0.31995 0.0
C959 C 0.54641 0.61845 0.32147 0.0
C960 C 0.55977 0.6092 0.35793 0.0
H961 H 0.64233 0.64894 0.09528 0.0
H962 H 0.6251 0.62968 0.16111 0.0
C963 C 0.54515 0.59931 0.39218 0.0
C964 C 0.56196 0.62925 0.28546 0.0
H965 H 0.5721 0.62174 0.17807 0.0
C966 C 0.5788 0.65152 0.29324 0.0
C967 C 0.56013 0.61788 0.24369 0.0
C968 C 0.54364 0.59298 0.23388 0.0
C969 C 0.59322 0.66327 0.26002 0.0
C970 C 0.59032 0.65271 0.21788 0.0
C971 C 0.57413 0.62994 0.21037 0.0
C972 C 0.60312 0.66539 0.18073 0.0
C973 C 0.61149 0.68677 0.2704 0.0
C974 C 0.59673 0.69194 0.17023 0.0
C975 C 0.60657 0.70298 0.13273 0.0
C976 C 0.62274 0.68755 0.10482 0.0
C977 C 0.62974 0.66122 0.11603 0.0
C978 C 0.61997 0.65023 0.15362 0.0
H979 H 0.61775 0.68709 0.30459 0.0
H980 H 0.62978 0.6862 0.2502 0.0
H981 H 0.60058 0.70578 0.26427 0.0
H982 H 0.58325 0.70378 0.19015 0.0
H983 H 0.60046 0.72315 0.12458 0.0
H984 H 0.43045 0.48224 0.32648 0.0
H985 H 0.41086 0.50277 0.26324 0.0
H986 H 0.40836 0.57958 0.32996 0.0
H987 H 0.42831 0.55934 0.39319 0.0
H988 H 0.36062 0.52626 0.26328 0.0
H989 H 0.43807 0.59947 0.21349 0.0
H990 H 0.44542 0.57244 0.24939 0.0
H991 H 0.42891 0.60239 0.26886 0.0
C992 C 0.42618 0.50361 0.32748 0.0
C993 C 0.43079 0.51914 0.36492 0.0
C994 C 0.415 0.51529 0.29132 0.0
C995 C 0.40835 0.5427 0.29185 0.0
C996 C 0.41381 0.55849 0.32862 0.0
H997 H 0.31597 0.64383 0.12302 0.0
H998 H 0.34203 0.6253 0.18221 0.0
C999 C 0.42508 0.54684 0.36481 0.0
C1000 C 0.39335 0.55408 0.2555 0.0
H1001 H 0.39492 0.60286 0.18046 0.0
C1002 C 0.36821 0.54287 0.24494 0.0
C1003 C 0.40323 0.5759 0.232 0.0
C1004 C 0.43049 0.58814 0.24118 0.0
C1005 C 0.35246 0.5531 0.21175 0.0
C1006 C 0.36236 0.57484 0.18811 0.0
C1007 C 0.38746 0.58615 0.19871 0.0
C1008 C 0.34689 0.58602 0.15215 0.0
C1009 C 0.32512 0.54094 0.20287 0.0
C1010 C 0.34123 0.57007 0.11566 0.0
C1011 C 0.3262 0.58049 0.08202 0.0
C1012 C 0.3167 0.60712 0.08421 0.0
C1013 C 0.32267 0.62313 0.1207 0.0
C1014 C 0.33772 0.61267 0.15433 0.0
H1015 H 0.31782 0.52916 0.23026 0.0
H1016 H 0.31011 0.55678 0.19575 0.0
H1017 H 0.3264 0.52715 0.17456 0.0
H1018 H 0.34846 0.54955 0.11321 0.0
H1019 H 0.32178 0.56761 0.05448 0.0
H1020 H 0.44413 0.40839 0.4091 0.0
H1021 H 0.42117 0.38746 0.34778 0.0
H1022 H 0.49775 0.37115 0.28854 0.0
H1023 H 0.52087 0.39261 0.34954 0.0
H1024 H 0.46152 0.39229 0.23328 0.0
H1025 H 0.4153 0.30767 0.31934 0.0
H1026 H 0.40721 0.34022 0.34167 0.0
H1027 H 0.44144 0.32855 0.34275 0.0
C1028 C 0.45609 0.40028 0.38317 0.0
C1029 C 0.48429 0.40198 0.38439 0.0
C1030 C 0.44294 0.38816 0.34823 0.0
C1031 C 0.45778 0.37723 0.31407 0.0
C1032 C 0.48594 0.37927 0.31481 0.0
H1033 H 0.40888 0.27068 0.10641 0.0
H1034 H 0.42534 0.2902 0.17426 0.0
C1035 C 0.4991 0.39155 0.34966 0.0
C1036 C 0.44398 0.36443 0.27686 0.0
H1037 H 0.40125 0.31345 0.24727 0.0
C1038 C 0.44837 0.37504 0.23631 0.0
C1039 C 0.42704 0.34176 0.28095 0.0
C1040 C 0.42262 0.32869 0.32345 0.0
C1041 C 0.4362 0.36367 0.19965 0.0
C1042 C 0.41867 0.34148 0.20386 0.0
C1043 C 0.41441 0.33071 0.24434 0.0
C1044 C 0.4056 0.32855 0.16612 0.0
C1045 C 0.44275 0.37515 0.15662 0.0
C1046 C 0.38814 0.34328 0.14017 0.0
C1047 C 0.37879 0.33223 0.10146 0.0
C1048 C 0.38654 0.30616 0.08838 0.0
C1049 C 0.40249 0.29076 0.11586 0.0
C1050 C 0.41198 0.30191 0.15448 0.0
H1051 H 0.46133 0.38756 0.1579 0.0
H1052 H 0.4454 0.35887 0.13212 0.0
H1053 H 0.42594 0.38819 0.14623 0.0
H1054 H 0.3825 0.36367 0.14916 0.0
H1055 H 0.36619 0.34435 0.08109 0.0
loop_
_geom_bond_atom_site_label_1
_geom_bond_atom_site_label_2
_geom_bond_distance
_geom_bond_site_symmetry_2
_ccdc_geom_bond_type
Zn0 O2 1.933 1_556 S
Zn0 O20 1.985 . S
Zn0 O31 1.970 . S
Zn1 O2 1.911 . S
Zn1 O21 1.970 . S
Zn1 O37 1.945 . S
Zn1 O44 1.981 . S
O2 Zn0 1.933 1_554 S
O2 Zn1 1.911 . S
O2 H3 0.841 1_655 S
H3 O2 0.841 1_455 S
C4 O5 1.246 . S
C4 O33 1.276 1_545 S
O5 C4 1.246 . S
Zn6 O8 1.911 . S
Zn6 O23 1.970 . S
Zn6 O40 1.945 . S
Zn6 O47 1.981 . S
Zn7 O8 1.933 1_556 S
Zn7 O22 1.985 . S
Zn7 O29 1.955 . S
O8 Zn6 1.911 . S
O8 Zn7 1.933 1_554 S
O8 H9 0.841 1_455 S
H9 O8 0.841 1_655 S
Zn10 O11 1.933 1_556 S
Zn10 O24 1.985 . S
Zn10 O33 1.955 . S
O11 Zn10 1.933 1_554 S
O11 Zn12 1.911 . S
O11 H13 0.841 1_565 S
Zn12 O11 1.911 . S
Zn12 O25 1.970 . S
Zn12 O41 1.981 . S
Zn12 O43 1.945 . S
H13 O11 0.841 1_545 S
Zn14 O15 1.933 1_556 S
Zn14 O27 1.985 . S
Zn14 O35 1.955 . S
O15 Zn14 1.933 1_554 S
O15 H16 0.841 1_545 S
O15 Zn17 1.911 . S
H16 O15 0.841 1_565 S
Zn17 O15 1.911 . S
Zn17 O28 1.970 . S
Zn17 O38 1.981 . S
Zn17 O46 1.945 . S
C18 O19 1.246 . S
C18 O35 1.276 1_565 S
O19 C18 1.246 . S
O20 Zn0 1.985 . S
O20 C30 1.245 1_556 S
O21 Zn1 1.970 . S
O21 C30 1.263 . S
O22 Zn7 1.985 . S
O22 C34 1.245 1_556 S
O23 Zn6 1.970 . S
O23 C34 1.263 . S
O24 Zn10 1.985 . S
O24 C39 1.245 1_556 S
O25 Zn12 1.970 . S
O25 C39 1.263 . S
C26 O37 1.262 1_455 S
C26 O38 1.245 . S
O27 Zn14 1.985 . S
O27 C45 1.245 1_556 S
O28 Zn17 1.970 . S
O28 C45 1.263 . S
O29 Zn7 1.955 . S
O29 C48 1.276 1_455 S
C30 O20 1.245 1_554 S
C30 O21 1.263 . S
O31 Zn0 1.970 . S
O31 C50 1.238 1_655 S
C32 O40 1.262 1_655 S
C32 O41 1.245 . S
O33 C4 1.276 1_565 S
O33 Zn10 1.955 . S
C34 O22 1.245 1_554 S
C34 O23 1.263 . S
O35 Zn14 1.955 . S
O35 C18 1.276 1_545 S
C36 O43 1.262 1_545 S
C36 O44 1.245 . S
O37 Zn1 1.945 . S
O37 C26 1.262 1_655 S
O38 Zn17 1.981 . S
O38 C26 1.245 . S
C39 O24 1.245 1_554 S
C39 O25 1.263 . S
O40 Zn6 1.945 . S
O40 C32 1.262 1_455 S
O41 Zn12 1.981 . S
O41 C32 1.245 . S
C42 O46 1.262 1_565 S
C42 O47 1.245 . S
O43 Zn12 1.945 . S
O43 C36 1.262 1_565 S
O44 Zn1 1.981 . S
O44 C36 1.245 . S
C45 O27 1.245 1_554 S
C45 O28 1.263 . S
O46 Zn17 1.945 . S
O46 C42 1.262 1_545 S
O47 Zn6 1.981 . S
O47 C42 1.245 . S
C48 O29 1.276 1_655 S
C48 O49 1.246 . S
O49 C48 1.246 . S
C50 O31 1.238 1_455 S
C50 O51 1.246 . S
O51 C50 1.246 . S
Zn52 O54 1.933 . S
Zn52 O72 1.985 . S
Zn52 O83 1.955 . S
Zn53 O54 1.911 . S
Zn53 O73 1.970 . S
Zn53 O89 1.945 . S
Zn53 O96 1.981 . S
O54 Zn52 1.933 . S
O54 Zn53 1.911 . S
O54 H55 0.841 . S
H55 O54 0.841 . S
C56 O57 1.246 . S
C56 O85 1.276 . S
O57 C56 1.246 . S
Zn58 O60 1.911 . S
Zn58 O75 1.970 . S
Zn58 O92 1.945 . S
Zn58 O99 1.981 . S
Zn59 O60 1.933 . S
Zn59 O74 1.985 . S
Zn59 O81 1.955 . S
O60 Zn58 1.911 . S
O60 Zn59 1.933 . S
O60 H61 0.841 . S
H61 O60 0.841 . S
Zn62 O63 1.933 . S
Zn62 O76 1.985 . S
Zn62 O85 1.955 . S
O63 Zn62 1.933 . S
O63 Zn64 1.911 . S
O63 H65 0.841 . S
Zn64 O63 1.911 . S
Zn64 O77 1.970 . S
Zn64 O93 1.981 . S
Zn64 O95 1.945 . S
H65 O63 0.841 . S
Zn66 O67 1.933 . S
Zn66 O79 1.985 . S
Zn66 O87 1.955 . S
O67 Zn66 1.933 . S
O67 H68 0.841 . S
O67 Zn69 1.911 . S
H68 O67 0.841 . S
Zn69 O67 1.911 . S
Zn69 O80 1.970 . S
Zn69 O90 1.981 . S
Zn69 O98 1.945 . S
C70 O71 1.246 . S
C70 O87 1.276 . S
O71 C70 1.246 . S
O72 Zn52 1.985 . S
O72 C82 1.245 . S
O73 Zn53 1.970 . S
O73 C82 1.263 . S
O74 Zn59 1.985 . S
O74 C86 1.245 . S
O75 Zn58 1.970 . S
O75 C86 1.263 . S
O76 Zn62 1.985 . S
O76 C91 1.245 . S
O77 Zn64 1.970 . S
O77 C91 1.263 . S
C78 O89 1.262 . S
C78 O90 1.245 . S
O79 Zn66 1.985 . S
O79 C97 1.245 . S
O80 Zn69 1.970 . S
O80 C97 1.263 . S
O81 Zn59 1.955 . S
O81 C100 1.276 . S
C82 O72 1.245 . S
C82 O73 1.263 . S
O83 Zn52 1.955 . S
O83 C102 1.276 . S
C84 O92 1.262 . S
C84 O93 1.245 . S
O85 C56 1.276 . S
O85 Zn62 1.955 . S
C86 O74 1.245 . S
C86 O75 1.263 . S
O87 Zn66 1.955 . S
O87 C70 1.276 . S
C88 O95 1.262 . S
C88 O96 1.245 . S
O89 Zn53 1.945 . S
O89 C78 1.262 . S
O90 Zn69 1.981 . S
O90 C78 1.245 . S
C91 O76 1.245 . S
C91 O77 1.263 . S
O92 Zn58 1.945 . S
O92 C84 1.262 . S
O93 Zn64 1.981 . S
O93 C84 1.245 . S
C94 O98 1.262 . S
C94 O99 1.245 . S
O95 Zn64 1.945 . S
O95 C88 1.262 . S
O96 Zn53 1.981 . S
O96 C88 1.245 . S
C97 O79 1.245 . S
C97 O80 1.263 . S
O98 Zn69 1.945 . S
O98 C94 1.262 . S
O99 Zn58 1.981 . S
O99 C94 1.245 . S
C100 O81 1.276 . S
C100 O101 1.246 . S
O101 C100 1.246 . S
C102 O83 1.276 . S
C102 O103 1.246 . S
O103 C102 1.246 . S
H104 C107 0.929 . S
H105 C110 0.929 . S
H106 C112 0.930 . S
C107 H104 0.929 . S
C107 C108 1.398 1_554 S
C107 C109 1.396 . S
C108 C107 1.398 1_556 S
C108 C112 1.407 . S
C109 C107 1.396 . S
C109 C110 1.394 . S
C110 H105 0.929 . S
C110 C109 1.394 . S
C110 C111 1.402 . S
C111 C110 1.402 . S
C111 C112 1.374 1_554 S
C111 N113 1.418 1_554 S
C112 H106 0.930 . S
C112 C108 1.407 . S
C112 C111 1.374 1_556 S
N113 C111 1.418 1_556 S
N113 C114 1.244 1_556 S
C114 N113 1.244 1_554 S
H115 C118 0.929 . S
H116 C121 0.929 . S
H117 C123 0.930 . S
C118 H115 0.929 . S
C118 C119 1.398 1_554 S
C118 C120 1.396 . S
C119 C118 1.398 1_556 S
C119 C123 1.407 . S
C120 C118 1.396 . S
C120 C121 1.394 . S
C121 H116 0.929 . S
C121 C120 1.394 . S
C121 C122 1.382 . S
C122 C121 1.382 . S
C122 C123 1.392 1_554 S
C122 N124 1.420 1_554 S
C123 H117 0.930 . S
C123 C119 1.407 . S
C123 C122 1.392 1_556 S
N124 C122 1.420 1_556 S
N124 C125 1.244 1_556 S
C125 N124 1.244 1_554 S
H126 C129 0.929 . S
H127 C132 0.929 . S
H128 C134 0.930 . S
C129 H126 0.929 . S
C129 C130 1.398 . S
C129 C131 1.396 1_554 S
C130 C129 1.398 . S
C130 C134 1.407 . S
C131 C129 1.396 1_556 S
C131 C132 1.394 . S
C132 H127 0.929 . S
C132 C131 1.394 . S
C132 C133 1.382 1_556 S
C133 C132 1.382 1_554 S
C133 C134 1.392 . S
C133 N135 1.420 . S
C134 H128 0.930 . S
C134 C130 1.407 . S
C134 C133 1.392 . S
N135 C133 1.420 . S
N135 C136 1.244 . S
C136 N135 1.244 . S
H137 C140 0.929 . S
H138 C143 0.929 . S
H139 C145 0.930 . S
C140 H137 0.929 . S
C140 C141 1.398 . S
C140 C142 1.396 1_554 S
C141 C140 1.398 . S
C141 C145 1.407 . S
C142 C140 1.396 1_556 S
C142 C143 1.394 . S
C143 H138 0.929 . S
C143 C142 1.394 . S
C143 C144 1.382 1_556 S
C144 C143 1.382 1_554 S
C144 C145 1.392 . S
C144 N146 1.420 . S
C145 H139 0.930 . S
C145 C141 1.407 . S
C145 C144 1.392 . S
N146 C144 1.420 . S
N146 C147 1.244 . S
C147 N146 1.244 . S
H148 C151 0.929 . S
H149 C154 0.929 . S
H150 C156 0.930 . S
C151 H148 0.929 . S
C151 C152 1.398 . S
C151 C153 1.396 . S
C152 C151 1.398 . S
C152 C156 1.407 . S
C153 C151 1.396 . S
C153 C154 1.394 . S
C154 H149 0.929 . S
C154 C153 1.394 . S
C154 C155 1.382 . S
C155 C154 1.382 . S
C155 C156 1.392 . S
C155 N157 1.420 . S
C156 H150 0.930 . S
C156 C152 1.407 . S
C156 C155 1.392 . S
N157 C155 1.420 . S
N157 C158 1.244 . S
C158 N157 1.244 . S
H159 C162 0.929 . S
H160 C165 0.929 . S
H161 C167 0.930 . S
C162 H159 0.929 . S
C162 C163 1.398 . S
C162 C164 1.396 . S
C163 C162 1.398 . S
C163 C167 1.407 . S
C164 C162 1.396 . S
C164 C165 1.394 . S
C165 H160 0.929 . S
C165 C164 1.394 . S
C165 C166 1.382 . S
C166 C165 1.382 . S
C166 C167 1.392 . S
C166 N168 1.420 . S
C167 H161 0.930 . S
C167 C163 1.407 . S
C167 C166 1.392 . S
N168 C166 1.420 . S
N168 C169 1.244 . S
C169 N168 1.244 . S
H170 C173 0.929 . S
H171 C176 0.929 . S
H172 C178 0.930 . S
C173 H170 0.929 . S
C173 C174 1.398 . S
C173 C175 1.396 . S
C174 C173 1.398 . S
C174 C178 1.407 . S
C175 C173 1.396 . S
C175 C176 1.394 . S
C176 H171 0.929 . S
C176 C175 1.394 . S
C176 C177 1.382 . S
C177 C176 1.382 . S
C177 C178 1.392 . S
C177 N179 1.420 . S
C178 H172 0.930 . S
C178 C174 1.407 . S
C178 C177 1.392 . S
N179 C177 1.420 . S
N179 C180 1.244 . S
C180 N179 1.244 . S
H181 C184 0.929 . S
H182 C187 0.929 . S
H183 C189 0.930 . S
C184 H181 0.929 . S
C184 C185 1.398 . S
C184 C186 1.396 . S
C185 C184 1.398 . S
C185 C189 1.407 . S
C186 C184 1.396 . S
C186 C187 1.394 . S
C187 H182 0.929 . S
C187 C186 1.394 . S
C187 C188 1.382 . S
C188 C187 1.382 . S
C188 C189 1.392 . S
C188 N190 1.420 . S
C189 H183 0.930 . S
C189 C185 1.407 . S
C189 C188 1.392 . S
N190 C188 1.420 . S
N190 C191 1.244 . S
C191 N190 1.244 . S
H192 C200 0.929 . S
H193 C202 0.930 . S
H194 C204 0.930 1_556 S
H195 C207 0.929 1_556 S
H196 C210 0.930 . S
H197 C212 0.960 . S
H198 C212 0.960 . S
H199 C212 0.960 . S
C200 H192 0.929 . S
C200 C201 1.377 . S
C200 C202 1.384 . S
C201 C200 1.377 . S
C201 C207 1.390 . S
C202 H193 0.930 . S
C202 C200 1.384 . S
C202 C203 1.372 . S
C203 C202 1.372 . S
C203 C204 1.400 . S
C203 C208 1.490 . S
C204 H194 0.930 1_554 S
C204 C203 1.400 . S
C204 C207 1.386 . S
H205 C221 0.930 . S
H206 C222 0.931 . S
C207 H195 0.929 1_554 S
C207 C201 1.390 . S
C207 C204 1.386 . S
C208 C203 1.490 . S
C208 C210 1.395 . S
C208 C211 1.403 1_554 S
H209 C215 0.930 . S
C210 H196 0.930 . S
C210 C208 1.395 . S
C210 C213 1.403 . S
C211 C208 1.403 1_556 S
C211 C212 1.524 . S
C211 C215 1.400 . S
C212 H197 0.960 . S
C212 H198 0.960 . S
C212 H199 0.960 . S
C212 C211 1.524 . S
C213 C210 1.403 . S
C213 C214 1.392 . S
C213 C217 1.495 . S
C214 C213 1.392 . S
C214 C215 1.385 1_554 S
C214 C216 1.478 . S
C215 H209 0.930 . S
C215 C211 1.400 . S
C215 C214 1.385 1_556 S
C216 C214 1.478 . S
C216 C218 1.381 . S
C216 C222 1.383 . S
C217 C213 1.495 . S
C217 H223 0.959 . S
C217 H224 0.961 . S
C217 H225 0.960 . S
C218 C216 1.381 . S
C218 C219 1.394 . S
C218 H226 0.930 . S
C219 C218 1.394 . S
C219 C220 1.383 . S
C219 H227 0.929 . S
C220 C219 1.383 . S
C220 C221 1.377 . S
C221 H205 0.930 . S
C221 C220 1.377 . S
C221 C222 1.379 . S
C222 H206 0.931 . S
C222 C216 1.383 . S
C222 C221 1.379 . S
H223 C217 0.959 . S
H224 C217 0.961 . S
H225 C217 0.960 . S
H226 C218 0.930 . S
H227 C219 0.929 . S
H228 C236 0.929 . S
H229 C238 0.930 . S
H230 C240 0.930 . S
H231 C243 0.929 . S
H232 C246 0.930 . S
H233 C248 0.960 . S
H234 C248 0.960 . S
H235 C248 0.960 . S
C236 H228 0.929 . S
C236 C237 1.377 1_556 S
C236 C238 1.384 . S
C237 C236 1.377 1_554 S
C237 C243 1.390 . S
C238 H229 0.930 . S
C238 C236 1.384 . S
C238 C239 1.372 1_556 S
C239 C238 1.372 1_554 S
C239 C240 1.400 . S
C239 C244 1.490 . S
C240 H230 0.930 . S
C240 C239 1.400 . S
C240 C243 1.386 . S
H241 C257 0.930 . S
H242 C258 0.931 . S
C243 H231 0.929 . S
C243 C237 1.390 . S
C243 C240 1.386 . S
C244 C239 1.490 . S
C244 C246 1.395 . S
C244 C247 1.403 1_554 S
H245 C251 0.929 . S
C246 H232 0.930 . S
C246 C244 1.395 . S
C246 C249 1.403 . S
C247 C244 1.403 1_556 S
C247 C248 1.524 . S
C247 C251 1.400 . S
C248 H233 0.960 . S
C248 H234 0.960 . S
C248 H235 0.960 . S
C248 C247 1.524 . S
C249 C246 1.403 . S
C249 C250 1.392 . S
C249 C253 1.495 . S
C250 C249 1.392 . S
C250 C251 1.386 1_554 S
C250 C252 1.478 . S
C251 H245 0.929 . S
C251 C247 1.400 . S
C251 C250 1.386 1_556 S
C252 C250 1.478 . S
C252 C254 1.381 . S
C252 C258 1.383 . S
C253 C249 1.495 . S
C253 H259 0.959 . S
C253 H260 0.961 . S
C253 H261 0.960 . S
C254 C252 1.381 . S
C254 C255 1.394 . S
C254 H262 0.930 1_554 S
C255 C254 1.394 . S
C255 C256 1.383 . S
C255 H263 0.929 1_554 S
C256 C255 1.383 . S
C256 C257 1.377 . S
C257 H241 0.930 . S
C257 C256 1.377 . S
C257 C258 1.379 . S
C258 H242 0.931 . S
C258 C252 1.383 . S
C258 C257 1.379 . S
H259 C253 0.959 . S
H260 C253 0.961 . S
H261 C253 0.960 . S
H262 C254 0.930 1_556 S
H263 C255 0.929 1_556 S
H264 C272 0.929 . S
H265 C274 0.930 . S
H266 C276 0.930 . S
H267 C279 0.929 . S
H268 C282 0.930 . S
H269 C284 0.960 . S
H270 C284 0.960 . S
H271 C284 0.960 . S
C272 H264 0.929 . S
C272 C273 1.377 1_556 S
C272 C274 1.384 . S
C273 C272 1.377 1_554 S
C273 C279 1.390 . S
C274 H265 0.930 . S
C274 C272 1.384 . S
C274 C275 1.372 1_556 S
C275 C274 1.372 1_554 S
C275 C276 1.400 . S
C275 C280 1.490 . S
C276 H266 0.930 . S
C276 C275 1.400 . S
C276 C279 1.386 . S
H277 C293 0.930 . S
H278 C294 0.931 . S
C279 H267 0.929 . S
C279 C273 1.390 . S
C279 C276 1.386 . S
C280 C275 1.490 . S
C280 C282 1.395 1_554 S
C280 C283 1.403 . S
H281 C287 0.930 . S
C282 H268 0.930 . S
C282 C280 1.395 1_556 S
C282 C285 1.403 . S
C283 C280 1.403 . S
C283 C284 1.524 . S
C283 C287 1.400 . S
C284 H269 0.960 . S
C284 H270 0.960 . S
C284 H271 0.960 . S
C284 C283 1.524 . S
C285 C282 1.403 . S
C285 C286 1.392 1_556 S
C285 C289 1.495 . S
C286 C285 1.392 1_554 S
C286 C287 1.385 . S
C286 C288 1.478 . S
C287 H281 0.930 . S
C287 C283 1.400 . S
C287 C286 1.385 . S
C288 C286 1.478 . S
C288 C290 1.381 1_554 S
C288 C294 1.383 . S
C289 C285 1.495 . S
C289 H295 0.959 . S
C289 H296 0.961 . S
C289 H297 0.960 . S
C290 C288 1.381 1_556 S
C290 C291 1.394 . S
C290 H298 0.930 . S
C291 C290 1.394 . S
C291 C292 1.383 1_556 S
C291 H299 0.929 . S
C292 C291 1.383 1_554 S
C292 C293 1.377 . S
C293 H277 0.930 . S
C293 C292 1.377 . S
C293 C294 1.379 . S
C294 H278 0.931 . S
C294 C288 1.383 . S
C294 C293 1.379 . S
H295 C289 0.959 . S
H296 C289 0.961 . S
H297 C289 0.960 . S
H298 C290 0.930 . S
H299 C291 0.929 . S
H300 C308 0.929 1_556 S
H301 C310 0.930 1_556 S
H302 C312 0.930 . S
H303 C315 0.929 . S
H304 C318 0.930 . S
H305 C320 0.960 . S
H306 C320 0.960 . S
H307 C320 0.960 . S
C308 H300 0.929 1_554 S
C308 C309 1.377 . S
C308 C310 1.384 . S
C309 C308 1.377 . S
C309 C315 1.390 . S
C310 H301 0.930 1_554 S
C310 C308 1.384 . S
C310 C311 1.372 . S
C311 C310 1.372 . S
C311 C312 1.400 . S
C311 C316 1.490 . S
C312 H302 0.930 . S
C312 C311 1.400 . S
C312 C315 1.386 . S
H313 C329 0.930 . S
H314 C330 0.931 . S
C315 H303 0.929 . S
C315 C309 1.390 . S
C315 C312 1.386 . S
C316 C311 1.490 . S
C316 C318 1.395 . S
C316 C319 1.403 1_554 S
H317 C323 0.930 . S
C318 H304 0.930 . S
C318 C316 1.395 . S
C318 C321 1.403 . S
C319 C316 1.403 1_556 S
C319 C320 1.524 . S
C319 C323 1.400 . S
C320 H305 0.960 . S
C320 H306 0.960 . S
C320 H307 0.960 . S
C320 C319 1.524 . S
C321 C318 1.403 . S
C321 C322 1.392 . S
C321 C325 1.495 . S
C322 C321 1.392 . S
C322 C323 1.385 1_554 S
C322 C324 1.478 . S
C323 H317 0.930 . S
C323 C319 1.400 . S
C323 C322 1.385 1_556 S
C324 C322 1.478 . S
C324 C326 1.381 . S
C324 C330 1.383 . S
C325 C321 1.495 . S
C325 H331 0.959 . S
C325 H332 0.961 . S
C325 H333 0.960 . S
C326 C324 1.381 . S
C326 C327 1.394 1_554 S
C326 H334 0.930 1_554 S
C327 C326 1.394 1_556 S
C327 C328 1.383 1_556 S
C327 H335 0.929 . S
C328 C327 1.383 1_554 S
C328 C329 1.377 . S
C329 H313 0.930 . S
C329 C328 1.377 . S
C329 C330 1.379 . S
C330 H314 0.931 . S
C330 C324 1.383 . S
C330 C329 1.379 . S
H331 C325 0.959 . S
H332 C325 0.961 . S
H333 C325 0.960 . S
H334 C326 0.930 1_556 S
H335 C327 0.929 . S
H336 C344 0.929 . S
H337 C346 0.930 . S
H338 C348 0.930 . S
H339 C351 0.929 . S
H340 C354 0.930 . S
H341 C356 0.960 . S
H342 C356 0.960 . S
H343 C356 0.960 . S
C344 H336 0.929 . S
C344 C345 1.377 . S
C344 C346 1.384 . S
C345 C344 1.377 . S
C345 C351 1.390 . S
C346 H337 0.930 . S
C346 C344 1.384 . S
C346 C347 1.372 . S
C347 C346 1.372 . S
C347 C348 1.400 . S
C347 C352 1.490 . S
C348 H338 0.930 . S
C348 C347 1.400 . S
C348 C351 1.386 . S
H349 C365 0.930 . S
H350 C366 0.931 . S
C351 H339 0.929 . S
C351 C345 1.390 . S
C351 C348 1.386 . S
C352 C347 1.490 . S
C352 C354 1.395 . S
C352 C355 1.403 . S
H353 C359 0.930 . S
C354 H340 0.930 . S
C354 C352 1.395 . S
C354 C357 1.403 . S
C355 C352 1.403 . S
C355 C356 1.524 . S
C355 C359 1.400 . S
C356 H341 0.960 . S
C356 H342 0.960 . S
C356 H343 0.960 . S
C356 C355 1.524 . S
C357 C354 1.403 . S
C357 C358 1.392 . S
C357 C361 1.495 . S
C358 C357 1.392 . S
C358 C359 1.385 . S
C358 C360 1.478 . S
C359 H353 0.930 . S
C359 C355 1.400 . S
C359 C358 1.385 . S
C360 C358 1.478 . S
C360 C362 1.381 . S
C360 C366 1.383 . S
C361 C357 1.495 . S
C361 H367 0.959 . S
C361 H368 0.961 . S
C361 H369 0.960 . S
C362 C360 1.381 . S
C362 C363 1.394 . S
C362 H370 0.930 . S
C363 C362 1.394 . S
C363 C364 1.383 . S
C363 H371 0.929 . S
C364 C363 1.383 . S
C364 C365 1.377 . S
C365 H349 0.930 . S
C365 C364 1.377 . S
C365 C366 1.379 . S
C366 H350 0.931 . S
C366 C360 1.383 . S
C366 C365 1.379 . S
H367 C361 0.959 . S
H368 C361 0.961 . S
H369 C361 0.960 . S
H370 C362 0.930 . S
H371 C363 0.929 . S
H372 C380 0.929 . S
H373 C382 0.930 . S
H374 C384 0.930 . S
H375 C387 0.929 . S
H376 C390 0.930 . S
H377 C392 0.960 . S
H378 C392 0.960 . S
H379 C392 0.960 . S
C380 H372 0.929 . S
C380 C381 1.377 . S
C380 C382 1.384 . S
C381 C380 1.377 . S
C381 C387 1.390 . S
C382 H373 0.930 . S
C382 C380 1.384 . S
C382 C383 1.372 . S
C383 C382 1.372 . S
C383 C384 1.400 . S
C383 C388 1.490 . S
C384 H374 0.930 . S
C384 C383 1.400 . S
C384 C387 1.386 . S
H385 C401 0.930 . S
H386 C402 0.931 . S
C387 H375 0.929 . S
C387 C381 1.390 . S
C387 C384 1.386 . S
C388 C383 1.490 . S
C388 C390 1.395 . S
C388 C391 1.403 . S
H389 C395 0.930 . S
C390 H376 0.930 . S
C390 C388 1.395 . S
C390 C393 1.403 . S
C391 C388 1.403 . S
C391 C392 1.524 . S
C391 C395 1.400 . S
C392 H377 0.960 . S
C392 H378 0.960 . S
C392 H379 0.960 . S
C392 C391 1.524 . S
C393 C390 1.403 . S
C393 C394 1.392 . S
C393 C397 1.495 . S
C394 C393 1.392 . S
C394 C395 1.385 . S
C394 C396 1.478 . S
C395 H389 0.930 . S
C395 C391 1.400 . S
C395 C394 1.385 . S
C396 C394 1.478 . S
C396 C398 1.381 . S
C396 C402 1.383 . S
C397 C393 1.495 . S
C397 H403 0.959 . S
C397 H404 0.961 . S
C397 H405 0.960 . S
C398 C396 1.381 . S
C398 C399 1.394 . S
C398 H406 0.930 . S
C399 C398 1.394 . S
C399 C400 1.383 . S
C399 H407 0.929 . S
C400 C399 1.383 . S
C400 C401 1.377 . S
C401 H385 0.930 . S
C401 C400 1.377 . S
C401 C402 1.379 . S
C402 H386 0.931 . S
C402 C396 1.383 . S
C402 C401 1.379 . S
H403 C397 0.959 . S
H404 C397 0.961 . S
H405 C397 0.960 . S
H406 C398 0.930 . S
H407 C399 0.929 . S
H408 C416 0.929 . S
H409 C418 0.930 . S
H410 C420 0.930 . S
H411 C423 0.929 . S
H412 C426 0.930 . S
H413 C428 0.960 . S
H414 C428 0.960 . S
H415 C428 0.960 . S
C416 H408 0.929 . S
C416 C417 1.377 . S
C416 C418 1.384 . S
C417 C416 1.377 . S
C417 C423 1.390 . S
C418 H409 0.930 . S
C418 C416 1.384 . S
C418 C419 1.372 . S
C419 C418 1.372 . S
C419 C420 1.400 . S
C419 C424 1.490 . S
C420 H410 0.930 . S
C420 C419 1.400 . S
C420 C423 1.386 . S
H421 C437 0.930 . S
H422 C438 0.931 . S
C423 H411 0.929 . S
C423 C417 1.390 . S
C423 C420 1.386 . S
C424 C419 1.490 . S
C424 C426 1.395 . S
C424 C427 1.403 . S
H425 C431 0.930 . S
C426 H412 0.930 . S
C426 C424 1.395 . S
C426 C429 1.403 . S
C427 C424 1.403 . S
C427 C428 1.524 . S
C427 C431 1.400 . S
C428 H413 0.960 . S
C428 H414 0.960 . S
C428 H415 0.960 . S
C428 C427 1.524 . S
C429 C426 1.403 . S
C429 C430 1.392 . S
C429 C433 1.495 . S
C430 C429 1.392 . S
C430 C431 1.385 . S
C430 C432 1.478 . S
C431 H425 0.930 . S
C431 C427 1.400 . S
C431 C430 1.385 . S
C432 C430 1.478 . S
C432 C434 1.381 . S
C432 C438 1.383 . S
C433 C429 1.495 . S
C433 H439 0.959 . S
C433 H440 0.961 . S
C433 H441 0.960 . S
C434 C432 1.381 . S
C434 C435 1.394 . S
C434 H442 0.930 . S
C435 C434 1.394 . S
C435 C436 1.383 . S
C435 H443 0.929 . S
C436 C435 1.383 . S
C436 C437 1.377 . S
C437 H421 0.930 . S
C437 C436 1.377 . S
C437 C438 1.379 . S
C438 H422 0.931 . S
C438 C432 1.383 . S
C438 C437 1.379 . S
H439 C433 0.959 . S
H440 C433 0.961 . S
H441 C433 0.960 . S
H442 C434 0.930 . S
H443 C435 0.929 . S
H444 C452 0.929 . S
H445 C454 0.930 . S
H446 C456 0.930 . S
H447 C459 0.929 . S
H448 C462 0.930 . S
H449 C464 0.960 . S
H450 C464 0.960 . S
H451 C464 0.960 . S
C452 H444 0.929 . S
C452 C453 1.377 . S
C452 C454 1.384 . S
C453 C452 1.377 . S
C453 C459 1.390 . S
C454 H445 0.930 . S
C454 C452 1.384 . S
C454 C455 1.372 . S
C455 C454 1.372 . S
C455 C456 1.400 . S
C455 C460 1.490 . S
C456 H446 0.930 . S
C456 C455 1.400 . S
C456 C459 1.386 . S
H457 C473 0.930 . S
H458 C474 0.931 . S
C459 H447 0.929 . S
C459 C453 1.390 . S
C459 C456 1.386 . S
C460 C455 1.490 . S
C460 C462 1.395 . S
C460 C463 1.403 . S
H461 C467 0.930 . S
C462 H448 0.930 . S
C462 C460 1.395 . S
C462 C465 1.403 . S
C463 C460 1.403 . S
C463 C464 1.524 . S
C463 C467 1.400 . S
C464 H449 0.960 . S
C464 H450 0.960 . S
C464 H451 0.960 . S
C464 C463 1.524 . S
C465 C462 1.403 . S
C465 C466 1.392 . S
C465 C469 1.495 . S
C466 C465 1.392 . S
C466 C467 1.385 . S
C466 C468 1.478 . S
C467 H461 0.930 . S
C467 C463 1.400 . S
C467 C466 1.385 . S
C468 C466 1.478 . S
C468 C470 1.381 . S
C468 C474 1.383 . S
C469 C465 1.495 . S
C469 H475 0.959 . S
C469 H476 0.961 . S
C469 H477 0.960 . S
C470 C468 1.381 . S
C470 C471 1.394 . S
C470 H478 0.930 . S
C471 C470 1.394 . S
C471 C472 1.383 . S
C471 H479 0.929 . S
C472 C471 1.383 . S
C472 C473 1.377 . S
C473 H457 0.930 . S
C473 C472 1.377 . S
C473 C474 1.379 . S
C474 H458 0.931 . S
C474 C468 1.383 . S
C474 C473 1.379 . S
H475 C469 0.959 . S
H476 C469 0.961 . S
H477 C469 0.960 . S
H478 C470 0.930 . S
H479 C471 0.929 . S
H480 C488 0.929 . S
H481 C490 0.930 . S
H482 C492 0.930 . S
H483 C495 0.929 1_655 S
H484 C498 0.930 . S
H485 C500 0.960 . S
H486 C500 0.960 . S
H487 C500 0.960 . S
C488 H480 0.929 . S
C488 C489 1.377 . S
C488 C490 1.384 . S
C489 C488 1.377 . S
C489 C495 1.390 . S
C490 H481 0.930 . S
C490 C488 1.384 . S
C490 C491 1.372 . S
C491 C490 1.372 . S
C491 C492 1.400 . S
C491 C496 1.490 . S
C492 H482 0.930 . S
C492 C491 1.400 . S
C492 C495 1.386 . S
H493 C509 0.930 . S
H494 C510 0.931 . S
C495 H483 0.929 1_455 S
C495 C489 1.390 . S
C495 C492 1.386 . S
C496 C491 1.490 . S
C496 C498 1.395 . S
C496 C499 1.403 . S
H497 C503 0.930 . S
C498 H484 0.930 . S
C498 C496 1.395 . S
C498 C501 1.403 . S
C499 C496 1.403 . S
C499 C500 1.524 . S
C499 C503 1.400 . S
C500 H485 0.960 . S
C500 H486 0.960 . S
C500 H487 0.960 . S
C500 C499 1.524 . S
C501 C498 1.403 . S
C501 C502 1.392 . S
C501 C505 1.495 . S
C502 C501 1.392 . S
C502 C503 1.385 . S
C502 C504 1.478 . S
C503 H497 0.930 . S
C503 C499 1.400 . S
C503 C502 1.385 . S
C504 C502 1.478 . S
C504 C506 1.381 . S
C504 C510 1.383 . S
C505 C501 1.495 . S
C505 H511 0.959 . S
C505 H512 0.961 . S
C505 H513 0.960 . S
C506 C504 1.381 . S
C506 C507 1.394 . S
C506 H514 0.930 . S
C507 C506 1.394 . S
C507 C508 1.383 . S
C507 H515 0.929 . S
C508 C507 1.383 . S
C508 C509 1.377 . S
C509 H493 0.930 . S
C509 C508 1.377 . S
C509 C510 1.379 . S
C510 H494 0.931 . S
C510 C504 1.383 . S
C510 C509 1.379 . S
H511 C505 0.959 . S
H512 C505 0.961 . S
H513 C505 0.960 . S
H514 C506 0.930 . S
H515 C507 0.929 . S
H516 C524 0.929 1_565 S
H517 C526 0.930 . S
H518 C528 0.930 . S
H519 C531 0.929 . S
H520 C534 0.930 . S
H521 C536 0.960 . S
H522 C536 0.960 . S
H523 C536 0.960 . S
C524 H516 0.929 1_545 S
C524 C525 1.377 . S
C524 C526 1.384 . S
C525 C524 1.377 . S
C525 C531 1.390 . S
C526 H517 0.930 . S
C526 C524 1.384 . S
C526 C527 1.372 . S
C527 C526 1.372 . S
C527 C528 1.400 . S
C527 C532 1.490 . S
C528 H518 0.930 . S
C528 C527 1.400 . S
C528 C531 1.386 . S
H529 C545 0.930 . S
H530 C546 0.931 . S
C531 H519 0.929 . S
C531 C525 1.390 . S
C531 C528 1.386 . S
C532 C527 1.490 . S
C532 C534 1.395 . S
C532 C535 1.403 . S
H533 C539 0.930 . S
C534 H520 0.930 . S
C534 C532 1.395 . S
C534 C537 1.403 . S
C535 C532 1.403 . S
C535 C536 1.524 . S
C535 C539 1.400 . S
C536 H521 0.960 . S
C536 H522 0.960 . S
C536 H523 0.960 . S
C536 C535 1.524 . S
C537 C534 1.403 . S
C537 C538 1.392 . S
C537 C541 1.495 . S
C538 C537 1.392 . S
C538 C539 1.385 . S
C538 C540 1.478 . S
C539 H533 0.930 . S
C539 C535 1.400 . S
C539 C538 1.385 . S
C540 C538 1.478 . S
C540 C542 1.381 . S
C540 C546 1.383 . S
C541 C537 1.495 . S
C541 H547 0.959 . S
C541 H548 0.961 . S
C541 H549 0.960 . S
C542 C540 1.381 . S
C542 C543 1.394 . S
C542 H550 0.930 . S
C543 C542 1.394 . S
C543 C544 1.383 . S
C543 H551 0.929 . S
C544 C543 1.383 . S
C544 C545 1.377 . S
C545 H529 0.930 . S
C545 C544 1.377 . S
C545 C546 1.379 . S
C546 H530 0.931 . S
C546 C540 1.383 . S
C546 C545 1.379 . S
H547 C541 0.959 . S
H548 C541 0.961 . S
H549 C541 0.960 . S
H550 C542 0.930 . S
H551 C543 0.929 . S
H552 C560 0.929 . S
H553 C562 0.930 . S
H554 C564 0.930 . S
H555 C567 0.929 . S
H556 C570 0.930 . S
H557 C572 0.960 . S
H558 C572 0.963 1_455 S
H559 C572 0.960 . S
C560 H552 0.929 . S
C560 C561 1.377 . S
C560 C562 1.384 . S
C561 C560 1.377 . S
C561 C567 1.390 . S
C562 H553 0.930 . S
C562 C560 1.384 . S
C562 C563 1.372 . S
C563 C562 1.372 . S
C563 C564 1.400 . S
C563 C568 1.490 . S
C564 H554 0.930 . S
C564 C563 1.400 . S
C564 C567 1.386 . S
H565 C581 0.930 . S
H566 C582 0.931 . S
C567 H555 0.929 . S
C567 C561 1.390 . S
C567 C564 1.386 . S
C568 C563 1.490 . S
C568 C570 1.395 . S
C568 C571 1.403 . S
H569 C575 0.930 . S
C570 H556 0.930 . S
C570 C568 1.395 . S
C570 C573 1.403 . S
C571 C568 1.403 . S
C571 C572 1.524 . S
C571 C575 1.400 . S
C572 H557 0.960 . S
C572 H558 0.963 1_655 S
C572 H559 0.960 . S
C572 C571 1.524 . S
C573 C570 1.403 . S
C573 C574 1.392 . S
C573 C577 1.495 . S
C574 C573 1.392 . S
C574 C575 1.385 . S
C574 C576 1.478 . S
C575 H569 0.930 . S
C575 C571 1.400 . S
C575 C574 1.385 . S
C576 C574 1.478 . S
C576 C578 1.381 . S
C576 C582 1.383 . S
C577 C573 1.495 . S
C577 H583 0.959 . S
C577 H584 0.961 . S
C577 H585 0.960 . S
C578 C576 1.381 . S
C578 C579 1.394 . S
C578 H586 0.930 . S
C579 C578 1.394 . S
C579 C580 1.383 . S
C579 H587 0.929 . S
C580 C579 1.383 . S
C580 C581 1.377 . S
C581 H565 0.930 . S
C581 C580 1.377 . S
C581 C582 1.379 . S
C582 H566 0.931 . S
C582 C576 1.383 . S
C582 C581 1.379 . S
H583 C577 0.959 . S
H584 C577 0.961 . S
H585 C577 0.960 . S
H586 C578 0.930 . S
H587 C579 0.929 . S
H588 C596 0.929 . S
H589 C598 0.930 . S
H590 C600 0.930 . S
H591 C603 0.929 1_545 S
H592 C606 0.930 . S
H593 C608 0.960 . S
H594 C608 0.960 . S
H595 C608 0.960 . S
C596 H588 0.929 . S
C596 C597 1.377 . S
C596 C598 1.384 . S
C597 C596 1.377 . S
C597 C603 1.390 . S
C598 H589 0.930 . S
C598 C596 1.384 . S
C598 C599 1.372 . S
C599 C598 1.372 . S
C599 C600 1.400 . S
C599 C604 1.490 . S
C600 H590 0.930 . S
C600 C599 1.400 . S
C600 C603 1.386 . S
H601 C617 0.930 . S
H602 C618 0.931 . S
C603 H591 0.929 1_565 S
C603 C597 1.390 . S
C603 C600 1.386 . S
C604 C599 1.490 . S
C604 C606 1.395 . S
C604 C607 1.403 . S
H605 C611 0.930 . S
C606 H592 0.930 . S
C606 C604 1.395 . S
C606 C609 1.403 . S
C607 C604 1.403 . S
C607 C608 1.524 . S
C607 C611 1.400 . S
C608 H593 0.960 . S
C608 H594 0.960 . S
C608 H595 0.960 . S
C608 C607 1.524 . S
C609 C606 1.403 . S
C609 C610 1.392 . S
C609 C613 1.495 . S
C610 C609 1.392 . S
C610 C611 1.385 . S
C610 C612 1.478 . S
C611 H605 0.930 . S
C611 C607 1.400 . S
C611 C610 1.385 . S
C612 C610 1.478 . S
C612 C614 1.381 . S
C612 C618 1.383 . S
C613 C609 1.495 . S
C613 H619 0.959 . S
C613 H620 0.961 . S
C613 H621 0.960 . S
C614 C612 1.381 . S
C614 C615 1.394 . S
C614 H622 0.930 . S
C615 C614 1.394 . S
C615 C616 1.383 . S
C615 H623 0.929 . S
C616 C615 1.383 . S
C616 C617 1.377 . S
C617 H601 0.930 . S
C617 C616 1.377 . S
C617 C618 1.379 . S
C618 H602 0.931 . S
C618 C612 1.383 . S
C618 C617 1.379 . S
H619 C613 0.959 . S
H620 C613 0.961 . S
H621 C613 0.960 . S
H622 C614 0.930 . S
H623 C615 0.929 . S
H624 C632 0.929 . S
H625 C634 0.930 . S
H626 C636 0.930 . S
H627 C639 0.929 . S
H628 C642 0.930 . S
H629 C644 0.960 . S
H630 C644 0.960 . S
H631 C644 0.960 . S
C632 H624 0.929 . S
C632 C633 1.377 . S
C632 C634 1.384 . S
C633 C632 1.377 . S
C633 C639 1.390 . S
C634 H625 0.930 . S
C634 C632 1.384 . S
C634 C635 1.372 . S
C635 C634 1.372 . S
C635 C636 1.400 . S
C635 C640 1.490 . S
C636 H626 0.930 . S
C636 C635 1.400 . S
C636 C639 1.386 . S
H637 C653 0.930 . S
H638 C654 0.931 . S
C639 H627 0.929 . S
C639 C633 1.390 . S
C639 C636 1.386 . S
C640 C635 1.490 . S
C640 C642 1.395 . S
C640 C643 1.403 . S
H641 C647 0.930 . S
C642 H628 0.930 . S
C642 C640 1.395 . S
C642 C645 1.403 . S
C643 C640 1.403 . S
C643 C644 1.524 . S
C643 C647 1.400 . S
C644 H629 0.960 . S
C644 H630 0.960 . S
C644 H631 0.960 . S
C644 C643 1.524 . S
C645 C642 1.403 . S
C645 C646 1.392 . S
C645 C649 1.495 . S
C646 C645 1.392 . S
C646 C647 1.385 . S
C646 C648 1.478 . S
C647 H641 0.930 . S
C647 C643 1.400 . S
C647 C646 1.385 . S
C648 C646 1.478 . S
C648 C650 1.381 . S
C648 C654 1.383 . S
C649 C645 1.495 . S
C649 H655 0.959 1_565 S
C649 H656 0.961 . S
C649 H657 0.960 . S
C650 C648 1.381 . S
C650 C651 1.394 . S
C650 H658 0.930 . S
C651 C650 1.394 . S
C651 C652 1.383 . S
C651 H659 0.929 . S
C652 C651 1.383 . S
C652 C653 1.377 . S
C653 H637 0.930 . S
C653 C652 1.377 . S
C653 C654 1.379 . S
C654 H638 0.931 . S
C654 C648 1.383 . S
C654 C653 1.379 . S
H655 C649 0.959 1_545 S
H656 C649 0.961 . S
H657 C649 0.960 . S
H658 C650 0.930 . S
H659 C651 0.929 . S
H660 C668 0.929 . S
H661 C670 0.930 . S
H662 C672 0.930 . S
H663 C675 0.953 . S
H664 C678 0.930 . S
H665 C680 0.960 . S
H666 C680 0.960 . S
H667 C680 0.960 . S
C668 H660 0.929 . S
C668 C669 1.377 . S
C668 C670 1.384 . S
C669 C668 1.377 . S
C669 C675 1.390 . S
C670 H661 0.930 . S
C670 C668 1.384 . S
C670 C671 1.372 . S
C671 C670 1.372 . S
C671 C672 1.400 . S
C671 C676 1.490 . S
C672 H662 0.930 . S
C672 C671 1.400 . S
C672 C675 1.386 . S
H673 C689 0.930 . S
H674 C690 0.931 . S
C675 H663 0.953 . S
C675 C669 1.390 . S
C675 C672 1.386 . S
C676 C671 1.490 . S
C676 C678 1.395 . S
C676 C679 1.403 . S
H677 C683 0.930 . S
C678 H664 0.930 . S
C678 C676 1.395 . S
C678 C681 1.403 . S
C679 C676 1.403 . S
C679 C680 1.524 . S
C679 C683 1.400 . S
C680 H665 0.960 . S
C680 H666 0.960 . S
C680 H667 0.960 . S
C680 C679 1.524 . S
C681 C678 1.403 . S
C681 C682 1.392 . S
C681 C685 1.495 . S
C682 C681 1.392 . S
C682 C683 1.385 . S
C682 C684 1.478 . S
C683 H677 0.930 . S
C683 C679 1.400 . S
C683 C682 1.385 . S
C684 C682 1.478 . S
C684 C686 1.381 . S
C684 C690 1.383 . S
C685 C681 1.495 . S
C685 H691 0.959 . S
C685 H692 0.961 . S
C685 H693 0.960 . S
C686 C684 1.381 . S
C686 C687 1.394 . S
C686 H694 0.930 . S
C687 C686 1.394 . S
C687 C688 1.383 . S
C687 H695 0.929 . S
C688 C687 1.383 . S
C688 C689 1.377 . S
C689 H673 0.930 . S
C689 C688 1.377 . S
C689 C690 1.379 . S
C690 H674 0.931 . S
C690 C684 1.383 . S
C690 C689 1.379 . S
H691 C685 0.959 . S
H692 C685 0.961 . S
H693 C685 0.960 . S
H694 C686 0.930 . S
H695 C687 0.929 . S
H696 C704 0.929 . S
H697 C706 0.930 . S
H698 C708 0.930 . S
H699 C711 0.929 . S
H700 C714 0.930 . S
H701 C716 0.960 . S
H702 C716 0.960 . S
H703 C716 0.960 . S
C704 H696 0.929 . S
C704 C705 1.377 . S
C704 C706 1.384 . S
C705 C704 1.377 . S
C705 C711 1.390 . S
C706 H697 0.930 . S
C706 C704 1.384 . S
C706 C707 1.372 . S
C707 C706 1.372 . S
C707 C708 1.400 . S
C707 C712 1.490 . S
C708 H698 0.930 . S
C708 C707 1.400 . S
C708 C711 1.386 . S
H709 C725 0.930 . S
H710 C726 0.931 . S
C711 H699 0.929 . S
C711 C705 1.390 . S
C711 C708 1.386 . S
C712 C707 1.490 . S
C712 C714 1.395 . S
C712 C715 1.403 . S
H713 C719 0.930 . S
C714 H700 0.930 . S
C714 C712 1.395 . S
C714 C717 1.403 . S
C715 C712 1.403 . S
C715 C716 1.524 . S
C715 C719 1.400 . S
C716 H701 0.960 . S
C716 H702 0.960 . S
C716 H703 0.960 . S
C716 C715 1.524 . S
C717 C714 1.403 . S
C717 C718 1.392 . S
C717 C721 1.495 . S
C718 C717 1.392 . S
C718 C719 1.385 . S
C718 C720 1.478 . S
C719 H713 0.930 . S
C719 C715 1.400 . S
C719 C718 1.385 . S
C720 C718 1.478 . S
C720 C722 1.381 . S
C720 C726 1.383 . S
C721 C717 1.495 . S
C721 H727 0.959 . S
C721 H728 0.961 . S
C721 H729 0.960 . S
C722 C720 1.381 . S
C722 C723 1.394 . S
C722 H730 0.930 . S
C723 C722 1.394 . S
C723 C724 1.383 . S
C723 H731 0.929 . S
C724 C723 1.383 . S
C724 C725 1.377 . S
C725 H709 0.930 . S
C725 C724 1.377 . S
C725 C726 1.379 . S
C726 H710 0.931 . S
C726 C720 1.383 . S
C726 C725 1.379 . S
H727 C721 0.959 . S
H728 C721 0.961 . S
H729 C721 0.960 . S
H730 C722 0.930 . S
H731 C723 0.929 . S
H732 C740 0.929 . S
H733 C742 0.930 . S
H734 C744 0.930 . S
H735 C747 0.929 . S
H736 C750 0.930 . S
H737 C752 0.960 . S
H738 C752 0.960 . S
H739 C752 0.960 . S
C740 H732 0.929 . S
C740 C741 1.377 . S
C740 C742 1.384 . S
C741 C740 1.377 . S
C741 C747 1.390 . S
C742 H733 0.930 . S
C742 C740 1.384 . S
C742 C743 1.372 . S
C743 C742 1.372 . S
C743 C744 1.400 . S
C743 C748 1.490 . S
C744 H734 0.930 . S
C744 C743 1.400 . S
C744 C747 1.386 . S
H745 C761 0.930 . S
H746 C762 0.931 . S
C747 H735 0.929 . S
C747 C741 1.390 . S
C747 C744 1.386 . S
C748 C743 1.490 . S
C748 C750 1.395 . S
C748 C751 1.403 . S
H749 C755 0.930 . S
C750 H736 0.930 . S
C750 C748 1.395 . S
C750 C753 1.403 . S
C751 C748 1.403 . S
C751 C752 1.524 . S
C751 C755 1.400 . S
C752 H737 0.960 . S
C752 H738 0.960 . S
C752 H739 0.960 . S
C752 C751 1.524 . S
C753 C750 1.403 . S
C753 C754 1.392 . S
C753 C757 1.495 . S
C754 C753 1.392 . S
C754 C755 1.385 . S
C754 C756 1.478 . S
C755 H749 0.930 . S
C755 C751 1.400 . S
C755 C754 1.385 . S
C756 C754 1.478 . S
C756 C758 1.381 . S
C756 C762 1.383 . S
C757 C753 1.495 . S
C757 H763 0.959 . S
C757 H764 0.961 . S
C757 H765 0.960 . S
C758 C756 1.381 . S
C758 C759 1.394 . S
C758 H766 0.930 . S
C759 C758 1.394 . S
C759 C760 1.383 . S
C759 H767 0.929 . S
C760 C759 1.383 . S
C760 C761 1.377 . S
C761 H745 0.930 . S
C761 C760 1.377 . S
C761 C762 1.379 . S
C762 H746 0.931 . S
C762 C756 1.383 . S
C762 C761 1.379 . S
H763 C757 0.959 . S
H764 C757 0.961 . S
H765 C757 0.960 . S
H766 C758 0.930 . S
H767 C759 0.929 . S
H768 C776 0.929 . S
H769 C778 0.930 . S
H770 C780 0.930 . S
H771 C783 0.929 . S
H772 C786 0.930 . S
H773 C788 0.960 . S
H774 C788 0.960 . S
H775 C788 0.960 . S
C776 H768 0.929 . S
C776 C777 1.377 . S
C776 C778 1.384 . S
C777 C776 1.377 . S
C777 C783 1.390 . S
C778 H769 0.930 . S
C778 C776 1.384 . S
C778 C779 1.372 . S
C779 C778 1.372 . S
C779 C780 1.400 . S
C779 C784 1.490 . S
C780 H770 0.930 . S
C780 C779 1.400 . S
C780 C783 1.386 . S
H781 C797 0.930 . S
H782 C798 0.931 . S
C783 H771 0.929 . S
C783 C777 1.390 . S
C783 C780 1.386 . S
C784 C779 1.490 . S
C784 C786 1.395 . S
C784 C787 1.403 . S
H785 C791 0.930 . S
C786 H772 0.930 . S
C786 C784 1.395 . S
C786 C789 1.403 . S
C787 C784 1.403 . S
C787 C788 1.524 . S
C787 C791 1.400 . S
C788 H773 0.960 . S
C788 H774 0.960 . S
C788 H775 0.960 . S
C788 C787 1.524 . S
C789 C786 1.403 . S
C789 C790 1.392 . S
C789 C793 1.495 . S
C790 C789 1.392 . S
C790 C791 1.385 . S
C790 C792 1.478 . S
C791 H785 0.930 . S
C791 C787 1.400 . S
C791 C790 1.385 . S
C792 C790 1.478 . S
C792 C794 1.381 . S
C792 C798 1.383 . S
C793 C789 1.495 . S
C793 H799 0.959 . S
C793 H800 0.961 . S
C793 H801 0.960 . S
C794 C792 1.381 . S
C794 C795 1.394 . S
C794 H802 0.930 . S
C795 C794 1.394 . S
C795 C796 1.383 . S
C795 H803 0.929 . S
C796 C795 1.383 . S
C796 C797 1.377 . S
C797 H781 0.930 . S
C797 C796 1.377 . S
C797 C798 1.379 . S
C798 H782 0.931 . S
C798 C792 1.383 . S
C798 C797 1.379 . S
H799 C793 0.959 . S
H800 C793 0.961 . S
H801 C793 0.960 . S
H802 C794 0.930 . S
H803 C795 0.929 . S
H804 C812 0.929 . S
H805 C814 0.930 . S
H806 C816 0.930 . S
H807 C819 0.929 . S
H808 C822 0.930 . S
H809 C824 0.960 . S
H810 C824 0.960 . S
H811 C824 0.960 . S
C812 H804 0.929 . S
C812 C813 1.377 . S
C812 C814 1.384 . S
C813 C812 1.377 . S
C813 C819 1.390 . S
C814 H805 0.930 . S
C814 C812 1.384 . S
C814 C815 1.372 . S
C815 C814 1.372 . S
C815 C816 1.400 . S
C815 C820 1.490 . S
C816 H806 0.930 . S
C816 C815 1.400 . S
C816 C819 1.386 . S
H817 C833 0.930 . S
H818 C834 0.931 . S
C819 H807 0.929 . S
C819 C813 1.390 . S
C819 C816 1.386 . S
C820 C815 1.490 . S
C820 C822 1.395 . S
C820 C823 1.403 . S
H821 C827 0.930 . S
C822 H808 0.930 . S
C822 C820 1.395 . S
C822 C825 1.403 . S
C823 C820 1.403 . S
C823 C824 1.524 . S
C823 C827 1.400 . S
C824 H809 0.960 . S
C824 H810 0.960 . S
C824 H811 0.960 . S
C824 C823 1.524 . S
C825 C822 1.403 . S
C825 C826 1.392 . S
C825 C829 1.495 . S
C826 C825 1.392 . S
C826 C827 1.385 . S
C826 C828 1.478 . S
C827 H821 0.930 . S
C827 C823 1.400 . S
C827 C826 1.385 . S
C828 C826 1.478 . S
C828 C830 1.381 . S
C828 C834 1.383 . S
C829 C825 1.495 . S
C829 H835 0.959 . S
C829 H836 0.961 . S
C829 H837 0.960 . S
C830 C828 1.381 . S
C830 C831 1.394 . S
C830 H838 0.930 . S
C831 C830 1.394 . S
C831 C832 1.383 . S
C831 H839 0.929 . S
C832 C831 1.383 . S
C832 C833 1.377 . S
C833 H817 0.930 . S
C833 C832 1.377 . S
C833 C834 1.379 . S
C834 H818 0.931 . S
C834 C828 1.383 . S
C834 C833 1.379 . S
H835 C829 0.959 . S
H836 C829 0.961 . S
H837 C829 0.960 . S
H838 C830 0.930 . S
H839 C831 0.929 . S
H840 C848 0.929 . S
H841 C850 0.930 . S
H842 C852 0.930 . S
H843 C855 0.929 . S
H844 C858 0.930 . S
H845 C860 0.960 . S
H846 C860 0.960 . S
H847 C860 0.960 . S
C848 H840 0.929 . S
C848 C849 1.377 . S
C848 C850 1.384 . S
C849 C848 1.377 . S
C849 C855 1.390 . S
C850 H841 0.930 . S
C850 C848 1.384 . S
C850 C851 1.372 . S
C851 C850 1.372 . S
C851 C852 1.400 . S
C851 C856 1.490 . S
C852 H842 0.930 . S
C852 C851 1.400 . S
C852 C855 1.386 . S
H853 C869 0.930 . S
H854 C870 0.931 . S
C855 H843 0.929 . S
C855 C849 1.390 . S
C855 C852 1.386 . S
C856 C851 1.490 . S
C856 C858 1.395 . S
C856 C859 1.403 . S
H857 C863 0.930 . S
C858 H844 0.930 . S
C858 C856 1.395 . S
C858 C861 1.403 . S
C859 C856 1.403 . S
C859 C860 1.524 . S
C859 C863 1.400 . S
C860 H845 0.960 . S
C860 H846 0.960 . S
C860 H847 0.960 . S
C860 C859 1.524 . S
C861 C858 1.403 . S
C861 C862 1.392 . S
C861 C865 1.495 . S
C862 C861 1.392 . S
C862 C863 1.385 . S
C862 C864 1.478 . S
C863 H857 0.930 . S
C863 C859 1.400 . S
C863 C862 1.385 . S
C864 C862 1.478 . S
C864 C866 1.381 . S
C864 C870 1.383 . S
C865 C861 1.495 . S
C865 H871 0.959 . S
C865 H872 0.961 . S
C865 H873 0.960 . S
C866 C864 1.381 . S
C866 C867 1.394 . S
C866 H874 0.930 . S
C867 C866 1.394 . S
C867 C868 1.383 . S
C867 H875 0.929 . S
C868 C867 1.383 . S
C868 C869 1.377 . S
C869 H853 0.930 . S
C869 C868 1.377 . S
C869 C870 1.379 . S
C870 H854 0.931 . S
C870 C864 1.383 . S
C870 C869 1.379 . S
H871 C865 0.959 . S
H872 C865 0.961 . S
H873 C865 0.960 . S
H874 C866 0.930 . S
H875 C867 0.929 . S
H876 C884 0.929 . S
H877 C886 0.930 . S
H878 C888 0.930 . S
H879 C891 0.929 . S
H880 C894 0.930 . S
H881 C896 0.960 . S
H882 C896 0.960 . S
H883 C896 0.960 . S
C884 H876 0.929 . S
C884 C885 1.377 . S
C884 C886 1.384 . S
C885 C884 1.377 . S
C885 C891 1.390 . S
C886 H877 0.930 . S
C886 C884 1.384 . S
C886 C887 1.372 . S
C887 C886 1.372 . S
C887 C888 1.400 . S
C887 C892 1.490 . S
C888 H878 0.930 . S
C888 C887 1.400 . S
C888 C891 1.386 . S
H889 C905 0.930 . S
H890 C906 0.931 . S
C891 H879 0.929 . S
C891 C885 1.390 . S
C891 C888 1.386 . S
C892 C887 1.490 . S
C892 C894 1.395 . S
C892 C895 1.403 . S
H893 C899 0.930 . S
C894 H880 0.930 . S
C894 C892 1.395 . S
C894 C897 1.403 . S
C895 C892 1.403 . S
C895 C896 1.524 . S
C895 C899 1.400 . S
C896 H881 0.960 . S
C896 H882 0.960 . S
C896 H883 0.960 . S
C896 C895 1.524 . S
C897 C894 1.403 . S
C897 C898 1.392 . S
C897 C901 1.495 . S
C898 C897 1.392 . S
C898 C899 1.385 . S
C898 C900 1.478 . S
C899 H893 0.930 . S
C899 C895 1.400 . S
C899 C898 1.385 . S
C900 C898 1.478 . S
C900 C902 1.381 . S
C900 C906 1.383 . S
C901 C897 1.495 . S
C901 H907 0.959 . S
C901 H908 0.961 . S
C901 H909 0.960 . S
C902 C900 1.381 . S
C902 C903 1.394 . S
C902 H910 0.930 . S
C903 C902 1.394 . S
C903 C904 1.383 . S
C903 H911 0.929 . S
C904 C903 1.383 . S
C904 C905 1.377 . S
C905 H889 0.930 . S
C905 C904 1.377 . S
C905 C906 1.379 . S
C906 H890 0.931 . S
C906 C900 1.383 . S
C906 C905 1.379 . S
H907 C901 0.959 . S
H908 C901 0.961 . S
H909 C901 0.960 . S
H910 C902 0.930 . S
H911 C903 0.929 . S
H912 C920 0.929 . S
H913 C922 0.930 . S
H914 C924 0.930 . S
H915 C927 0.929 . S
H916 C930 0.930 . S
H917 C932 0.960 . S
H918 C932 0.960 . S
H919 C932 0.960 . S
C920 H912 0.929 . S
C920 C921 1.377 . S
C920 C922 1.384 . S
C921 C920 1.377 . S
C921 C927 1.390 . S
C922 H913 0.930 . S
C922 C920 1.384 . S
C922 C923 1.372 . S
C923 C922 1.372 . S
C923 C924 1.400 . S
C923 C928 1.490 . S
C924 H914 0.930 . S
C924 C923 1.400 . S
C924 C927 1.386 . S
H925 C941 0.930 . S
H926 C942 0.931 . S
C927 H915 0.929 . S
C927 C921 1.390 . S
C927 C924 1.386 . S
C928 C923 1.490 . S
C928 C930 1.395 . S
C928 C931 1.403 . S
H929 C935 0.930 . S
C930 H916 0.930 . S
C930 C928 1.395 . S
C930 C933 1.403 . S
C931 C928 1.403 . S
C931 C932 1.524 . S
C931 C935 1.400 . S
C932 H917 0.960 . S
C932 H918 0.960 . S
C932 H919 0.960 . S
C932 C931 1.524 . S
C933 C930 1.403 . S
C933 C934 1.392 . S
C933 C937 1.495 . S
C934 C933 1.392 . S
C934 C935 1.385 . S
C934 C936 1.478 . S
C935 H929 0.930 . S
C935 C931 1.400 . S
C935 C934 1.385 . S
C936 C934 1.478 . S
C936 C938 1.381 . S
C936 C942 1.383 . S
C937 C933 1.495 . S
C937 H943 0.959 . S
C937 H944 0.961 . S
C937 H945 0.960 . S
C938 C936 1.381 . S
C938 C939 1.394 . S
C938 H946 0.930 . S
C939 C938 1.394 . S
C939 C940 1.383 . S
C939 H947 0.929 . S
C940 C939 1.383 . S
C940 C941 1.377 . S
C941 H925 0.930 . S
C941 C940 1.377 . S
C941 C942 1.379 . S
C942 H926 0.931 . S
C942 C936 1.383 . S
C942 C941 1.379 . S
H943 C937 0.959 . S
H944 C937 0.961 . S
H945 C937 0.960 . S
H946 C938 0.930 . S
H947 C939 0.929 . S
H948 C956 0.929 . S
H949 C958 0.930 . S
H950 C960 0.930 . S
H951 C963 0.929 . S
H952 C966 0.930 . S
H953 C968 0.960 . S
H954 C968 0.960 . S
H955 C968 0.960 . S
C956 H948 0.929 . S
C956 C957 1.377 . S
C956 C958 1.384 . S
C957 C956 1.377 . S
C957 C963 1.390 . S
C958 H949 0.930 . S
C958 C956 1.384 . S
C958 C959 1.372 . S
C959 C958 1.372 . S
C959 C960 1.400 . S
C959 C964 1.490 . S
C960 H950 0.930 . S
C960 C959 1.400 . S
C960 C963 1.386 . S
H961 C977 0.930 . S
H962 C978 0.931 . S
C963 H951 0.929 . S
C963 C957 1.390 . S
C963 C960 1.386 . S
C964 C959 1.490 . S
C964 C966 1.395 . S
C964 C967 1.403 . S
H965 C971 0.930 . S
C966 H952 0.930 . S
C966 C964 1.395 . S
C966 C969 1.403 . S
C967 C964 1.403 . S
C967 C968 1.524 . S
C967 C971 1.400 . S
C968 H953 0.960 . S
C968 H954 0.960 . S
C968 H955 0.960 . S
C968 C967 1.524 . S
C969 C966 1.403 . S
C969 C970 1.392 . S
C969 C973 1.495 . S
C970 C969 1.392 . S
C970 C971 1.385 . S
C970 C972 1.478 . S
C971 H965 0.930 . S
C971 C967 1.400 . S
C971 C970 1.385 . S
C972 C970 1.478 . S
C972 C974 1.381 . S
C972 C978 1.383 . S
C973 C969 1.495 . S
C973 H979 0.959 . S
C973 H980 0.961 . S
C973 H981 0.960 . S
C974 C972 1.381 . S
C974 C975 1.394 . S
C974 H982 0.930 . S
C975 C974 1.394 . S
C975 C976 1.383 . S
C975 H983 0.929 . S
C976 C975 1.383 . S
C976 C977 1.377 . S
C977 H961 0.930 . S
C977 C976 1.377 . S
C977 C978 1.379 . S
C978 H962 0.931 . S
C978 C972 1.383 . S
C978 C977 1.379 . S
H979 C973 0.959 . S
H980 C973 0.961 . S
H981 C973 0.960 . S
H982 C974 0.930 . S
H983 C975 0.929 . S
H984 C992 0.929 . S
H985 C994 0.930 . S
H986 C996 0.930 . S
H987 C999 0.929 . S
H988 C1002 0.930 . S
H989 C1004 0.960 . S
H990 C1004 0.960 . S
H991 C1004 0.960 . S
C992 H984 0.929 . S
C992 C993 1.377 . S
C992 C994 1.384 . S
C993 C992 1.377 . S
C993 C999 1.390 . S
C994 H985 0.930 . S
C994 C992 1.384 . S
C994 C995 1.372 . S
C995 C994 1.372 . S
C995 C996 1.400 . S
C995 C1000 1.490 . S
C996 H986 0.930 . S
C996 C995 1.400 . S
C996 C999 1.386 . S
H997 C1013 0.930 . S
H998 C1014 0.931 . S
C999 H987 0.929 . S
C999 C993 1.390 . S
C999 C996 1.386 . S
C1000 C995 1.490 . S
C1000 C1002 1.395 . S
C1000 C1003 1.403 . S
H1001 C1007 0.930 . S
C1002 H988 0.930 . S
C1002 C1000 1.395 . S
C1002 C1005 1.403 . S
C1003 C1000 1.403 . S
C1003 C1004 1.524 . S
C1003 C1007 1.400 . S
C1004 H989 0.960 . S
C1004 H990 0.960 . S
C1004 H991 0.960 . S
C1004 C1003 1.524 . S
C1005 C1002 1.403 . S
C1005 C1006 1.392 . S
C1005 C1009 1.495 . S
C1006 C1005 1.392 . S
C1006 C1007 1.385 . S
C1006 C1008 1.478 . S
C1007 H1001 0.930 . S
C1007 C1003 1.400 . S
C1007 C1006 1.385 . S
C1008 C1006 1.478 . S
C1008 C1010 1.381 . S
C1008 C1014 1.383 . S
C1009 C1005 1.495 . S
C1009 H1015 0.959 . S
C1009 H1016 0.961 . S
C1009 H1017 0.960 . S
C1010 C1008 1.381 . S
C1010 C1011 1.394 . S
C1010 H1018 0.930 . S
C1011 C1010 1.394 . S
C1011 C1012 1.383 . S
C1011 H1019 0.929 . S
C1012 C1011 1.383 . S
C1012 C1013 1.377 . S
C1013 H997 0.930 . S
C1013 C1012 1.377 . S
C1013 C1014 1.379 . S
C1014 H998 0.931 . S
C1014 C1008 1.383 . S
C1014 C1013 1.379 . S
H1015 C1009 0.959 . S
H1016 C1009 0.961 . S
H1017 C1009 0.960 . S
H1018 C1010 0.930 . S
H1019 C1011 0.929 . S
H1020 C1028 0.929 . S
H1021 C1030 0.930 . S
H1022 C1032 0.930 . S
H1023 C1035 0.929 . S
H1024 C1038 0.930 . S
H1025 C1040 0.960 . S
H1026 C1040 0.960 . S
H1027 C1040 0.960 . S
C1028 H1020 0.929 . S
C1028 C1029 1.377 . S
C1028 C1030 1.384 . S
C1029 C1028 1.377 . S
C1029 C1035 1.390 . S
C1030 H1021 0.930 . S
C1030 C1028 1.384 . S
C1030 C1031 1.372 . S
C1031 C1030 1.372 . S
C1031 C1032 1.400 . S
C1031 C1036 1.490 . S
C1032 H1022 0.930 . S
C1032 C1031 1.400 . S
C1032 C1035 1.386 . S
H1033 C1049 0.930 . S
H1034 C1050 0.931 . S
C1035 H1023 0.929 . S
C1035 C1029 1.390 . S
C1035 C1032 1.386 . S
C1036 C1031 1.490 . S
C1036 C1038 1.395 . S
C1036 C1039 1.403 . S
H1037 C1043 0.930 . S
C1038 H1024 0.930 . S
C1038 C1036 1.395 . S
C1038 C1041 1.403 . S
C1039 C1036 1.403 . S
C1039 C1040 1.524 . S
C1039 C1043 1.400 . S
C1040 H1025 0.960 . S
C1040 H1026 0.960 . S
C1040 H1027 0.960 . S
C1040 C1039 1.524 . S
C1041 C1038 1.403 . S
C1041 C1042 1.392 . S
C1041 C1045 1.495 . S
C1042 C1041 1.392 . S
C1042 C1043 1.385 . S
C1042 C1044 1.478 . S
C1043 H1037 0.930 . S
C1043 C1039 1.400 . S
C1043 C1042 1.385 . S
C1044 C1042 1.478 . S
C1044 C1046 1.381 . S
C1044 C1050 1.383 . S
C1045 C1041 1.495 . S
C1045 H1051 0.959 . S
C1045 H1052 0.961 . S
C1045 H1053 0.960 . S
C1046 C1044 1.381 . S
C1046 C1047 1.394 . S
C1046 H1054 0.930 . S
C1047 C1046 1.394 . S
C1047 C1048 1.383 . S
C1047 H1055 0.929 . S
C1048 C1047 1.383 . S
C1048 C1049 1.377 . S
C1049 H1033 0.930 . S
C1049 C1048 1.377 . S
C1049 C1050 1.379 . S
C1050 H1034 0.931 . S
C1050 C1044 1.383 . S
C1050 C1049 1.379 . S
H1051 C1045 0.959 . S
H1052 C1045 0.961 . S
H1053 C1045 0.960 . S
H1054 C1046 0.930 . S
H1055 C1047 0.929 . S
C201 C45 1.579 . S
C220 C114 1.574 . S
C237 C30 1.578 . S
C256 C125 1.572 . S
C273 C39 1.574 . S
C292 C136 1.560 . S
C328 C147 1.571 . S
C309 C34 1.578 . S
C345 C97 1.574 . S
C364 C158 1.577 . S
C400 C169 1.582 . S
C381 C82 1.579 . S
C436 C180 1.586 . S
C417 C91 1.578 . S
C472 C191 1.593 . S
C453 C86 1.579 . S
C508 C175 1.570 . S
C489 C26 1.532 . S
C544 C185 1.455 . S
C525 C36 1.419 . S
C580 C152 1.538 . S
C561 C32 1.517 . S
C616 C163 1.522 . S
C597 C42 1.484 . S
C633 C18 1.620 . S
C652 C164 1.660 . S
C688 C174 1.615 . S
C669 C50 1.559 . S
C705 C4 1.666 . S
C724 C186 1.721 . S
C741 C48 1.579 . S
C760 C153 1.624 . S
C796 C131 1.517 . S
C777 C78 1.499 . S
C813 C88 1.519 . S
C832 C142 1.545 . S
C868 C108 1.527 . S
C849 C84 1.490 . S
C904 C119 1.480 . S
C885 C94 1.461 . S
C940 C120 1.688 . S
C921 C70 1.629 . S
C976 C130 1.658 . S
C957 C102 1.587 . S
C993 C56 1.568 . S
C1012 C141 1.633 . S
C1029 C100 1.609 . S
C1048 C109 1.629 . S
