# Generated by pormake.
# Topology wbl, (4,4)-cn, num edge types: 1
# Building blocks:
#     Node 0, Type 0, BuildingBlock: MUDLON_clean_linker_0, # of connection points: 4
#     Node 1, Type 0, BuildingBlock: MUDLON_clean_linker_0, # of connection points: 4
#     Node 2, Type 0, BuildingBlock: MUDLON_clean_linker_0, # of connection points: 4
#     Node 3, Type 0, BuildingBlock: MUDLON_clean_linker_0, # of connection points: 4
#     Node 4, Type 0, BuildingBlock: MUDLON_clean_linker_0, # of connection points: 4
#     Node 5, Type 0, BuildingBlock: MUDLON_clean_linker_0, # of connection points: 4
#     Node 6, Type 0, BuildingBlock: MUDLON_clean_linker_0, # of connection points: 4
#     Node 7, Type 0, BuildingBlock: MUDLON_clean_linker_0, # of connection points: 4
#     Node 8, Type 1, BuildingBlock: TATPOV_clean_sbu_0, # of connection points: 4
#     Node 9, Type 1, BuildingBlock: TATPOV_clean_sbu_0, # of connection points: 4
#     Node 10, Type 1, BuildingBlock: TATPOV_clean_sbu_0, # of connection points: 4
#     Node 11, Type 1, BuildingBlock: TATPOV_clean_sbu_0, # of connection points: 4
#     Node 12, Type 1, BuildingBlock: TATPOV_clean_sbu_0, # of connection points: 4
#     Node 13, Type 1, BuildingBlock: TATPOV_clean_sbu_0, # of connection points: 4
#     Node 14, Type 1, BuildingBlock: TATPOV_clean_sbu_0, # of connection points: 4
#     Node 15, Type 1, BuildingBlock: TATPOV_clean_sbu_0, # of connection points: 4
#     Edge 16, Type (0, 1), BuildingBlock: XIVTED_clean_linker_0, # of connection points: 2
#     Edge 17, Type (0, 1), BuildingBlock: XIVTED_clean_linker_0, # of connection points: 2
#     Edge 18, Type (0, 1), BuildingBlock: XIVTED_clean_linker_0, # of connection points: 2
#     Edge 19, Type (0, 1), BuildingBlock: XIVTED_clean_linker_0, # of connection points: 2
#     Edge 20, Type (0, 1), BuildingBlock: XIVTED_clean_linker_0, # of connection points: 2
#     Edge 21, Type (0, 1), BuildingBlock: XIVTED_clean_linker_0, # of connection points: 2
#     Edge 22, Type (0, 1), BuildingBlock: XIVTED_clean_linker_0, # of connection points: 2
#     Edge 23, Type (0, 1), BuildingBlock: XIVTED_clean_linker_0, # of connection points: 2
#     Edge 24, Type (0, 1), BuildingBlock: XIVTED_clean_linker_0, # of connection points: 2
#     Edge 25, Type (0, 1), BuildingBlock: XIVTED_clean_linker_0, # of connection points: 2
#     Edge 26, Type (0, 1), BuildingBlock: XIVTED_clean_linker_0, # of connection points: 2
#     Edge 27, Type (0, 1), BuildingBlock: XIVTED_clean_linker_0, # of connection points: 2
#     Edge 28, Type (0, 1), BuildingBlock: XIVTED_clean_linker_0, # of connection points: 2
#     Edge 29, Type (0, 1), BuildingBlock: XIVTED_clean_linker_0, # of connection points: 2
#     Edge 30, Type (0, 1), BuildingBlock: XIVTED_clean_linker_0, # of connection points: 2
#     Edge 31, Type (0, 1), BuildingBlock: XIVTED_clean_linker_0, # of connection points: 2
#     Edge 32, Type (0, 1), BuildingBlock: XIVTED_clean_linker_0, # of connection points: 2
#     Edge 33, Type (0, 1), BuildingBlock: XIVTED_clean_linker_0, # of connection points: 2
#     Edge 34, Type (0, 1), BuildingBlock: XIVTED_clean_linker_0, # of connection points: 2
#     Edge 35, Type (0, 1), BuildingBlock: XIVTED_clean_linker_0, # of connection points: 2
#     Edge 36, Type (0, 1), BuildingBlock: XIVTED_clean_linker_0, # of connection points: 2
#     Edge 37, Type (0, 1), BuildingBlock: XIVTED_clean_linker_0, # of connection points: 2
#     Edge 38, Type (0, 1), BuildingBlock: XIVTED_clean_linker_0, # of connection points: 2
#     Edge 39, Type (0, 1), BuildingBlock: XIVTED_clean_linker_0, # of connection points: 2
#     Edge 40, Type (0, 1), BuildingBlock: XIVTED_clean_linker_0, # of connection points: 2
#     Edge 41, Type (0, 1), BuildingBlock: XIVTED_clean_linker_0, # of connection points: 2
#     Edge 42, Type (0, 1), BuildingBlock: XIVTED_clean_linker_0, # of connection points: 2
#     Edge 43, Type (0, 1), BuildingBlock: XIVTED_clean_linker_0, # of connection points: 2
#     Edge 44, Type (0, 1), BuildingBlock: XIVTED_clean_linker_0, # of connection points: 2
#     Edge 45, Type (0, 1), BuildingBlock: XIVTED_clean_linker_0, # of connection points: 2
#     Edge 46, Type (0, 1), BuildingBlock: XIVTED_clean_linker_0, # of connection points: 2
#     Edge 47, Type (0, 1), BuildingBlock: XIVTED_clean_linker_0, # of connection points: 2
# Relax obj value: 0.125
# Max RMSD: 0.127
# Mean RMSD: 0.118
data_MOF--net-wbl--node1-TATPOV_clean_sbu_0--node2-MUDLON_clean_linker_0--edge1-XIVTED_clean_linker_0
_symmetry_space_group_name_H-M    P1
_symmetry_Int_Tables_number       1
_symmetry_cell_setting            triclinic
loop_
_symmetry_equiv_pos_as_xyz
'x, y, z'
_cell_length_a     53.691552
_cell_length_b     53.684064
_cell_length_c     75.306625
_cell_angle_alpha  91.429196
_cell_angle_beta   91.35041
_cell_angle_gamma 90.034629
loop_
_atom_site_label
_atom_site_type_symbol
_atom_site_fract_x
_atom_site_fract_y
_atom_site_fract_z
_atom_type_partial_charge
H0 H 0.17346 0.00434 0.33784 0.0
N1 N 0.13375 0.00451 0.31611 0.0
H2 H 0.18037 0.97865 0.36404 0.0
H3 H 0.09977 0.97319 0.33063 0.0
H4 H 0.10677 0.94721 0.35639 0.0
H5 H 0.1165 0.95921 0.30333 0.0
H6 H 0.13492 0.93448 0.27985 0.0
H7 H 0.16405 0.02101 0.29161 0.0
H8 H 0.18103 0.99727 0.26663 0.0
H9 H 0.13984 0.05271 0.32258 0.0
H10 H 0.0843 0.99766 0.30783 0.0
H11 H 0.10787 0.08493 0.32354 0.0
H12 H 0.05168 0.02934 0.31005 0.0
H13 H 0.00021 0.18039 0.3434 0.0
H14 H 0.97872 0.18846 0.37125 0.0
H15 H 0.96223 0.10987 0.37442 0.0
H16 H 0.98459 0.10196 0.34699 0.0
H17 H 0.96126 0.10919 0.31995 0.0
H18 H 0.92483 0.12102 0.30257 0.0
H19 H 0.96569 0.18324 0.28214 0.0
H20 H 0.00159 0.17218 0.30091 0.0
H21 H 0.0453 0.1313 0.34436 0.0
H22 H 0.07605 0.09838 0.34168 0.0
H23 H 0.03329 0.06514 0.29785 0.0
N24 N 0.00346 0.13735 0.32542 0.0
H25 H 0.00186 0.09713 0.30124 0.0
C26 C 0.13629 0.9906 0.33218 0.0
C27 C 0.15874 0.99214 0.342 0.0
C28 C 0.16261 0.97755 0.35693 0.0
C29 C 0.14413 0.96088 0.36213 0.0
C30 C 0.12138 0.95976 0.35255 0.0
C31 C 0.11738 0.97467 0.33781 0.0
C32 C 0.13974 0.99166 0.29974 0.0
C33 C 0.13052 0.96773 0.29542 0.0
C34 C 0.14092 0.95363 0.28163 0.0
C35 C 0.16019 0.96345 0.27148 0.0
C36 C 0.16707 0.98856 0.27455 0.0
C37 C 0.15718 0.00235 0.2887 0.0
C38 C 0.11436 0.02289 0.31549 0.0
C39 C 0.12061 0.04764 0.31968 0.0
C40 C 0.10223 0.06593 0.32041 0.0
C41 C 0.077 0.05973 0.31729 0.0
C42 C 0.07086 0.03487 0.31253 0.0
C43 C 0.08944 0.01663 0.31147 0.0
C44 C 0.99387 0.14072 0.34309 0.0
C45 C 0.99239 0.16491 0.35036 0.0
C46 C 0.97987 0.16947 0.36614 0.0
C47 C 0.96839 0.14986 0.37493 0.0
C48 C 0.97096 0.12539 0.36808 0.0
C49 C 0.98363 0.12084 0.35233 0.0
C50 C 0.98403 0.14021 0.31204 0.0
C51 C 0.96247 0.12527 0.31166 0.0
C52 C 0.94163 0.13196 0.30145 0.0
C53 C 0.94199 0.15345 0.29111 0.0
C54 C 0.96439 0.16703 0.29034 0.0
C55 C 0.98509 0.16057 0.30084 0.0
C56 C 0.02083 0.11684 0.32336 0.0
C57 C 0.04233 0.11673 0.33432 0.0
C58 C 0.06012 0.098 0.33259 0.0
C59 C 0.05736 0.0791 0.31942 0.0
C60 C 0.03591 0.07915 0.30832 0.0
C61 C 0.01781 0.09772 0.31026 0.0
H62 H 0.96731 0.40026 0.59611 0.0
N63 N 0.96631 0.44329 0.57976 0.0
H64 H 0.94543 0.3892 0.62286 0.0
H65 H 0.93819 0.47484 0.59997 0.0
H66 H 0.91639 0.46419 0.6271 0.0
H67 H 0.9232 0.46586 0.56888 0.0
H68 H 0.8945 0.45014 0.54555 0.0
H69 H 0.97563 0.40807 0.55564 0.0
H70 H 0.94686 0.39146 0.53285 0.0
H71 H 0.01033 0.44365 0.59619 0.0
H72 H 0.96181 0.4889 0.56394 0.0
H73 H 0.04171 0.47639 0.59681 0.0
H74 H 0.99376 0.52102 0.56332 0.0
H75 H 0.14135 0.57036 0.60161 0.0
H76 H 0.15263 0.59064 0.63024 0.0
H77 H 0.07827 0.62066 0.63354 0.0
H78 H 0.06697 0.60005 0.60532 0.0
H79 H 0.07712 0.62016 0.57903 0.0
H80 H 0.0906 0.65169 0.55894 0.0
H81 H 0.14088 0.59854 0.53472 0.0
H82 H 0.12856 0.56761 0.5561 0.0
H83 H 0.10383 0.52547 0.58118 0.0
H84 H 0.07108 0.49401 0.57908 0.0
H85 H 0.0155 0.55241 0.57914 0.0
N86 N 0.09871 0.5743 0.58337 0.0
H87 H 0.04863 0.58357 0.5797 0.0
C88 C 0.9544 0.43825 0.59618 0.0
C89 C 0.95639 0.4143 0.60295 0.0
C90 C 0.94397 0.40812 0.61828 0.0
C91 C 0.92924 0.42586 0.62721 0.0
C92 C 0.92741 0.45004 0.62046 0.0
C93 C 0.93992 0.45621 0.60505 0.0
C94 C 0.95148 0.43793 0.56398 0.0
C95 C 0.92877 0.45014 0.56063 0.0
C96 C 0.91232 0.441 0.54736 0.0
C97 C 0.91811 0.41927 0.53745 0.0
C98 C 0.94175 0.40839 0.53998 0.0
C99 C 0.95824 0.41771 0.5531 0.0
C100 C 0.98387 0.46357 0.57992 0.0
C101 C 0.00658 0.46061 0.58911 0.0
C102 C 0.02461 0.47927 0.58924 0.0
C103 C 0.02058 0.50127 0.57981 0.0
C104 C 0.99753 0.50445 0.57083 0.0
C105 C 0.97922 0.48589 0.57103 0.0
C106 C 0.10351 0.58382 0.60118 0.0
C107 C 0.12739 0.58089 0.60872 0.0
C108 C 0.13374 0.59239 0.62504 0.0
C109 C 0.11632 0.6073 0.63397 0.0
C110 C 0.09207 0.6094 0.62681 0.0
C111 C 0.08562 0.59758 0.61063 0.0
C112 C 0.10242 0.59165 0.5694 0.0
C113 C 0.09096 0.61518 0.5694 0.0
C114 C 0.09855 0.63324 0.55764 0.0
C115 C 0.1173 0.62798 0.54532 0.0
C116 C 0.12705 0.60364 0.54438 0.0
C117 C 0.11982 0.58579 0.55642 0.0
C118 C 0.07869 0.5567 0.58099 0.0
C119 C 0.08455 0.53136 0.58055 0.0
C120 C 0.06574 0.51345 0.57956 0.0
C121 C 0.0405 0.52056 0.57939 0.0
C122 C 0.03466 0.54615 0.57923 0.0
C123 C 0.05361 0.56407 0.57981 0.0
H124 H 0.61032 0.484 0.8618 0.0
N125 N 0.59096 0.46355 0.83214 0.0
H126 H 0.62151 0.4633 0.88949 0.0
H127 H 0.58529 0.41379 0.83874 0.0
H128 H 0.59686 0.39293 0.86607 0.0
H129 H 0.56931 0.42897 0.80902 0.0
H130 H 0.58966 0.4076 0.78436 0.0
H131 H 0.63525 0.47333 0.81933 0.0
H132 H 0.65603 0.45167 0.79497 0.0
H133 H 0.57847 0.50991 0.82476 0.0
H134 H 0.547 0.43854 0.83676 0.0
H135 H 0.53672 0.5282 0.82413 0.0
H136 H 0.50545 0.45672 0.83671 0.0
H137 H 0.43266 0.58666 0.84329 0.0
H138 H 0.41482 0.61019 0.8676 0.0
H139 H 0.37274 0.54558 0.8822 0.0
H140 H 0.39107 0.52156 0.85752 0.0
H141 H 0.37774 0.53515 0.81434 0.0
H142 H 0.36149 0.56504 0.79294 0.0
H143 H 0.43253 0.60272 0.79413 0.0
H144 H 0.44898 0.57242 0.81496 0.0
H145 H 0.46481 0.55829 0.8464 0.0
H146 H 0.50542 0.53898 0.84545 0.0
H147 H 0.4734 0.47475 0.8177 0.0
N148 N 0.4206 0.53861 0.83252 0.0
H149 H 0.43215 0.49408 0.81916 0.0
C150 C 0.59716 0.45055 0.84818 0.0
C151 C 0.60734 0.46413 0.86272 0.0
C152 C 0.6138 0.45224 0.87846 0.0
C153 C 0.61015 0.42643 0.87996 0.0
C154 C 0.59965 0.41287 0.86543 0.0
C155 C 0.5932 0.42478 0.84969 0.0
C156 C 0.60091 0.45274 0.8161 0.0
C157 C 0.58802 0.43444 0.80582 0.0
C158 C 0.59973 0.42214 0.79172 0.0
C159 C 0.62453 0.42781 0.78771 0.0
C160 C 0.63681 0.44705 0.79746 0.0
C161 C 0.62508 0.45934 0.81149 0.0
C162 C 0.56593 0.47305 0.83093 0.0
C163 C 0.56253 0.49823 0.82723 0.0
C164 C 0.53872 0.50863 0.82701 0.0
C165 C 0.5178 0.49396 0.83057 0.0
C166 C 0.52116 0.46849 0.8338 0.0
C167 C 0.54499 0.45809 0.83395 0.0
C168 C 0.4132 0.55207 0.84843 0.0
C169 C 0.41996 0.57717 0.85173 0.0
C170 C 0.40956 0.59081 0.86565 0.0
C171 C 0.39209 0.57985 0.87661 0.0
C172 C 0.38621 0.55449 0.87394 0.0
C173 C 0.39665 0.54077 0.8599 0.0
C174 C 0.41432 0.55173 0.81653 0.0
C175 C 0.39011 0.54918 0.80937 0.0
C176 C 0.3809 0.56621 0.79716 0.0
C177 C 0.39576 0.58624 0.79212 0.0
C178 C 0.42075 0.58743 0.79792 0.0
C179 C 0.43011 0.57009 0.80985 0.0
C180 C 0.44509 0.52751 0.83294 0.0
C181 C 0.46616 0.54001 0.84024 0.0
C182 C 0.48964 0.529 0.83952 0.0
C183 C 0.4927 0.50539 0.8314 0.0
C184 C 0.47164 0.49286 0.82421 0.0
C185 C 0.44811 0.50387 0.82499 0.0
H186 H 0.52073 0.86836 0.11894 0.0
N187 N 0.51859 0.90514 0.09626 0.0
H188 H 0.49823 0.86494 0.1465 0.0
H189 H 0.4936 0.94329 0.11313 0.0
H190 H 0.47188 0.94056 0.14106 0.0
H191 H 0.47235 0.92166 0.08616 0.0
H192 H 0.44202 0.89859 0.06749 0.0
H193 H 0.52704 0.86443 0.07676 0.0
H194 H 0.49695 0.84135 0.05775 0.0
H195 H 0.56772 0.90339 0.09614 0.0
H196 H 0.50551 0.95106 0.08377 0.0
H197 H 0.5965 0.93546 0.08675 0.0
H198 H 0.5341 0.98382 0.07519 0.0
H199 H 0.67969 0.04647 0.08313 0.0
H200 H 0.68931 0.07273 0.10957 0.0
H201 H 0.613 0.09799 0.11 0.0
H202 H 0.60327 0.07089 0.08401 0.0
H203 H 0.59836 0.07137 0.05301 0.0
H204 H 0.60308 0.10404 0.03174 0.0
H205 H 0.67959 0.08118 0.02431 0.0
H206 H 0.67347 0.04695 0.04402 0.0
H207 H 0.64089 0.00698 0.09009 0.0
H208 H 0.61191 0.97424 0.09704 0.0
H209 H 0.56375 0.99595 0.05334 0.0
N210 N 0.63623 0.04171 0.06583 0.0
H211 H 0.59247 0.02917 0.04663 0.0
C212 C 0.50899 0.90598 0.11397 0.0
C213 C 0.51054 0.88436 0.12395 0.0
C214 C 0.49769 0.88251 0.13975 0.0
C215 C 0.48303 0.90244 0.14604 0.0
C216 C 0.48259 0.92467 0.13649 0.0
C217 C 0.4953 0.92638 0.12055 0.0
C218 C 0.50192 0.89457 0.0829 0.0
C219 C 0.47806 0.90448 0.07967 0.0
C220 C 0.46073 0.89127 0.06895 0.0
C221 C 0.46701 0.868 0.06135 0.0
C222 C 0.49144 0.85902 0.06369 0.0
C223 C 0.50869 0.87222 0.07439 0.0
C224 C 0.53462 0.92495 0.09098 0.0
C225 C 0.56034 0.92096 0.0916 0.0
C226 C 0.57671 0.93937 0.08628 0.0
C227 C 0.56766 0.96241 0.08039 0.0
C228 C 0.54173 0.96626 0.07952 0.0
C229 C 0.52533 0.94764 0.08468 0.0
C230 C 0.64096 0.05699 0.08155 0.0
C231 C 0.66507 0.05757 0.08903 0.0
C232 C 0.67047 0.07246 0.10407 0.0
C233 C 0.65187 0.08735 0.11168 0.0
C234 C 0.62765 0.08678 0.10422 0.0
C235 C 0.62213 0.07145 0.08938 0.0
C236 C 0.63555 0.05633 0.04999 0.0
C237 C 0.61571 0.07255 0.04607 0.0
C238 C 0.61872 0.09179 0.03412 0.0
C239 C 0.64206 0.0962 0.02656 0.0
C240 C 0.6612 0.07869 0.02952 0.0
C241 C 0.6578 0.05891 0.04091 0.0
C242 C 0.61875 0.02156 0.06834 0.0
C243 C 0.62401 0.0049 0.08203 0.0
C244 C 0.60748 0.98593 0.08589 0.0
C245 C 0.58533 0.98252 0.07584 0.0
C246 C 0.58035 -0.00152 0.06164 0.0
C247 C 0.59691 0.01773 0.05784 0.0
H248 H 0.13434 0.57361 0.92468 0.0
N249 N 0.08959 0.5736 0.93866 0.0
H250 H 0.14745 0.59488 0.8982 0.0
H251 H 0.05904 0.59866 0.9158 0.0
H252 H 0.07174 0.61967 0.88885 0.0
H253 H 0.06584 0.61732 0.94656 0.0
H254 H 0.0794 0.64813 0.96924 0.0
H255 H 0.12211 0.56639 0.96499 0.0
H256 H 0.13634 0.59709 0.98734 0.0
H257 H 0.0916 0.52837 0.92407 0.0
H258 H 0.04254 0.57823 0.95221 0.0
H259 H 0.05982 0.496 0.92374 0.0
H260 H 0.01127 0.54543 0.95314 0.0
H261 H 0.97064 0.39307 0.92097 0.0
H262 H 0.95194 0.3779 0.89263 0.0
H263 H 0.91722 0.44954 0.88548 0.0
H264 H 0.93637 0.46477 0.91331 0.0
H265 H 0.91669 0.45778 0.94004 0.0
H266 H 0.88421 0.44406 0.9593 0.0
H267 H 0.93693 0.39557 0.98569 0.0
H268 H 0.96891 0.40811 0.96515 0.0
H269 H 0.01192 0.43388 0.94119 0.0
H270 H 0.04203 0.46791 0.94243 0.0
H271 H 0.9817 0.52091 0.93749 0.0
N272 N 0.96308 0.4368 0.93718 0.0
H273 H 0.95177 0.4867 0.93777 0.0
C274 C 0.09583 0.5845 0.92209 0.0
C275 C 0.12059 0.58341 0.91676 0.0
C276 C 0.12797 0.59549 0.90157 0.0
C277 C 0.11064 0.60894 0.89131 0.0
C278 C 0.08561 0.60969 0.89654 0.0
C279 C 0.07826 0.59758 0.91184 0.0
C280 C 0.09322 0.58966 0.95407 0.0
C281 C 0.0807 0.61254 0.95581 0.0
C282 C 0.08856 0.63018 0.96873 0.0
C283 C 0.1092 0.62529 0.97999 0.0
C284 C 0.12022 0.60151 0.9791 0.0
C285 C 0.11225 0.58391 0.96626 0.0
C286 C 0.0697 0.55557 0.9383 0.0
C287 C 0.07398 0.53223 0.93029 0.0
C288 C 0.05585 0.51366 0.93033 0.0
C289 C 0.03305 0.5178 0.93876 0.0
C290 C 0.0285 0.54151 0.94645 0.0
C291 C 0.04655 0.56033 0.94606 0.0
C292 C 0.95475 0.42987 0.91942 0.0
C293 C 0.95946 0.40562 0.91305 0.0
C294 C 0.94885 0.39704 0.89692 0.0
C295 C 0.93304 0.41255 0.88704 0.0
C296 C 0.92921 0.4372 0.89298 0.0
C297 C 0.94018 0.44589 0.90894 0.0
C298 C 0.94516 0.43343 0.95085 0.0
C299 C 0.9214 0.44434 0.95 0.0
C300 C 0.90276 0.43659 0.96127 0.0
C301 C 0.90763 0.41821 0.97392 0.0
C302 C 0.93214 0.40909 0.97575 0.0
C303 C 0.95059 0.41648 0.9642 0.0
C304 C 0.97977 0.45768 0.93904 0.0
C305 C 0.00529 0.4529 0.94058 0.0
C306 C 0.02244 0.47242 0.94105 0.0
C307 C 0.01443 0.49727 0.9396 0.0
C308 C 0.98864 0.50208 0.93864 0.0
C309 C 0.97144 0.48247 0.93856 0.0
H310 H 0.52471 0.36114 0.17107 0.0
N311 N 0.52332 0.40313 0.19044 0.0
H312 H 0.55063 0.35207 0.14525 0.0
H313 H 0.55157 0.4369 0.17287 0.0
H314 H 0.57785 0.42776 0.14755 0.0
H315 H 0.56898 0.42275 0.20036 0.0
H316 H 0.59662 0.40641 0.22291 0.0
H317 H 0.50998 0.375 0.21717 0.0
H318 H 0.53669 0.36037 0.24139 0.0
H319 H 0.47493 0.39606 0.18585 0.0
H320 H 0.52989 0.45314 0.1968 0.0
H321 H 0.44213 0.42744 0.1854 0.0
H322 H 0.49758 0.4851 0.19496 0.0
H323 H 0.34325 0.53527 0.16823 0.0
H324 H 0.33227 0.55314 0.1395 0.0
H325 H 0.41044 0.56352 0.12933 0.0
H326 H 0.42117 0.54602 0.15815 0.0
H327 H 0.41699 0.57402 0.18392 0.0
H328 H 0.40968 0.61169 0.20152 0.0
H329 H 0.35176 0.57381 0.2294 0.0
H330 H 0.35816 0.5366 0.21066 0.0
H331 H 0.39259 0.48836 0.16565 0.0
H332 H 0.42594 0.45802 0.16754 0.0
H333 H 0.46304 0.50367 0.20824 0.0
N334 N 0.38836 0.53171 0.1833 0.0
H335 H 0.43066 0.5347 0.2055 0.0
C336 C 0.53626 0.39954 0.17401 0.0
C337 C 0.53587 0.37587 0.16573 0.0
C338 C 0.55063 0.37075 0.15104 0.0
C339 C 0.56632 0.38921 0.14457 0.0
C340 C 0.56603 0.41319 0.15242 0.0
C341 C 0.55093 0.41842 0.16689 0.0
C342 C 0.53772 0.39911 0.2065 0.0
C343 C 0.56171 0.40916 0.20922 0.0
C344 C 0.57752 0.39998 0.2225 0.0
C345 C 0.56939 0.38118 0.23378 0.0
C346 C 0.54418 0.37385 0.23249 0.0
C347 C 0.52868 0.38243 0.2188 0.0
C348 C 0.50473 0.42232 0.19098 0.0
C349 C 0.47985 0.4155 0.18797 0.0
C350 C 0.46121 0.43354 0.18753 0.0
C351 C 0.46715 0.45899 0.18976 0.0
C352 C 0.49221 0.46574 0.19324 0.0
C353 C 0.51082 0.44753 0.19404 0.0
C354 C 0.3829 0.53936 0.16535 0.0
C355 C 0.35796 0.54104 0.15963 0.0
C356 C 0.35177 0.55116 0.1432 0.0
C357 C 0.37049 0.55988 0.13218 0.0
C358 C 0.39558 0.5573 0.13763 0.0
C359 C 0.40174 0.54717 0.15406 0.0
C360 C 0.38765 0.55262 0.19572 0.0
C361 C 0.40275 0.57378 0.19382 0.0
C362 C 0.39873 0.59531 0.20413 0.0
C363 C 0.37983 0.59605 0.21678 0.0
C364 C 0.366 0.57421 0.21948 0.0
C365 C 0.36979 0.55281 0.20895 0.0
C366 C 0.40896 0.51432 0.18499 0.0
C367 C 0.40808 0.49206 0.17481 0.0
C368 C 0.42709 0.4745 0.17611 0.0
C369 C 0.44727 0.47823 0.18813 0.0
C370 C 0.44809 0.50032 0.19858 0.0
C371 C 0.42926 0.51819 0.19702 0.0
H372 H 0.38246 0.00154 0.41936 0.0
N373 N 0.418 0.99126 0.4432 0.0
H374 H 0.36858 0.9756 0.39365 0.0
H375 H 0.43873 0.94704 0.43194 0.0
H376 H 0.42541 0.92158 0.4063 0.0
H377 H 0.4475 0.95881 0.46176 0.0
H378 H 0.43262 0.93088 0.48452 0.0
H379 H 0.37694 0.99687 0.46144 0.0
H380 H 0.36204 0.96959 0.48425 0.0
H381 H 0.41799 0.03975 0.45027 0.0
H382 H 0.46619 0.97926 0.43476 0.0
H383 H 0.45195 0.06929 0.44652 0.0
H384 H 0.49954 0.00854 0.42969 0.0
H385 H 0.5574 0.15719 0.40736 0.0
H386 H 0.57678 0.16564 0.37905 0.0
H387 H 0.58623 0.08664 0.36934 0.0
H388 H 0.56674 0.07832 0.39776 0.0
H389 H 0.59682 0.08581 0.42331 0.0
H390 H 0.63434 0.09454 0.44111 0.0
H391 H 0.59714 0.1564 0.46701 0.0
H392 H 0.55922 0.14691 0.44944 0.0
H393 H 0.50542 0.11842 0.41799 0.0
H394 H 0.47294 0.08807 0.42369 0.0
H395 H 0.52923 0.03613 0.44153 0.0
N396 N 0.55411 0.1137 0.42287 0.0
H397 H 0.56139 0.06576 0.43465 0.0
C398 C 0.41178 0.97653 0.42745 0.0
C399 C 0.39204 0.98423 0.41642 0.0
C400 C 0.38409 0.96938 0.40186 0.0
C401 C 0.39601 0.94666 0.398 0.0
C402 C 0.41614 0.93918 0.40884 0.0
C403 C 0.42381 0.95384 0.42352 0.0
C404 C 0.41298 0.97951 0.45968 0.0
C405 C 0.42908 0.96161 0.46695 0.0
C406 C 0.42057 0.94571 0.47998 0.0
C407 C 0.39604 0.9478 0.48604 0.0
C408 C 0.38109 0.96753 0.48004 0.0
C409 C 0.3895 0.98313 0.46694 0.0
C410 C 0.4393 0.00742 0.44253 0.0
C411 C 0.43593 0.03288 0.44605 0.0
C412 C 0.45529 0.04973 0.44366 0.0
C413 C 0.47844 0.04145 0.4374 0.0
C414 C 0.48208 0.01569 0.43459 0.0
C415 C 0.4628 -0.00119 0.43732 0.0
C416 C 0.56068 0.11726 0.40467 0.0
C417 C 0.56304 0.1417 0.39889 0.0
C418 C 0.57429 0.14647 0.38283 0.0
C419 C 0.5833 0.12679 0.37217 0.0
C420 C 0.57939 0.10213 0.37732 0.0
C421 C 0.56825 0.09737 0.39353 0.0
C422 C 0.57511 0.11576 0.43511 0.0
C423 C 0.59646 0.10085 0.43312 0.0
C424 C 0.61804 0.10602 0.44321 0.0
C425 C 0.61885 0.12637 0.45532 0.0
C426 C 0.59708 0.14044 0.45793 0.0
C427 C 0.57543 0.13512 0.4479 0.0
C428 C 0.53583 0.09471 0.42602 0.0
C429 C 0.51067 0.10039 0.42301 0.0
C430 C 0.49214 0.08308 0.4265 0.0
C431 C 0.49834 0.05967 0.43336 0.0
C432 C 0.52367 0.05383 0.43612 0.0
C433 C 0.54223 0.07102 0.43231 0.0
H434 H 0.04667 0.88812 0.65906 0.0
N435 N 0.06012 0.91675 0.68688 0.0
H436 H 0.06981 0.8801 0.63184 0.0
H437 H 0.105 0.93759 0.67851 0.0
H438 H 0.12812 0.92974 0.65148 0.0
H439 H 0.08947 0.94892 0.70706 0.0
H440 H 0.11516 0.93794 0.73306 0.0
H441 H 0.06008 0.87421 0.70376 0.0
H442 H 0.08528 0.86315 0.72979 0.0
H443 H 0.01271 0.91348 0.6953 0.0
H444 H 0.06835 0.96567 0.67922 0.0
H445 H 0.98117 0.94629 0.6944 0.0
H446 H 0.03687 0.99828 0.67744 0.0
H447 H 0.89447 0.04585 0.64852 0.0
H448 H 0.89128 0.06805 0.62055 0.0
H449 H 0.96638 0.0954 0.62892 0.0
H450 H 0.96979 0.07236 0.65653 0.0
H451 H 0.95627 0.0916 0.68271 0.0
H452 H 0.93962 0.12578 0.70029 0.0
H453 H 0.87268 0.08324 0.70841 0.0
H454 H 0.89005 0.04837 0.69115 0.0
H455 H 0.92741 7e-05 0.66702 0.0
H456 H 0.95913 0.96832 0.67204 0.0
H457 H 0.00937 0.02501 0.69355 0.0
N458 N 0.93133 0.04861 0.67248 0.0
H459 H 0.978 0.05658 0.68783 0.0
C460 C 0.07411 0.91316 0.6709 0.0
C461 C 0.06441 0.89729 0.65741 0.0
C462 C 0.07757 0.89288 0.64186 0.0
C463 C 0.10083 0.90424 0.63955 0.0
C464 C 0.1104 0.92046 0.65299 0.0
C465 C 0.09713 0.92498 0.66848 0.0
C466 C 0.07322 0.91211 0.70334 0.0
C467 C 0.08831 0.93025 0.71207 0.0
C468 C 0.10287 0.92402 0.72696 0.0
C469 C 0.10218 0.89973 0.73349 0.0
C470 C 0.08594 0.88214 0.72529 0.0
C471 C 0.07171 0.8883 0.71033 0.0
C472 C 0.04265 0.93701 0.68709 0.0
C473 C 0.01804 0.93206 0.69157 0.0
C474 C 8e-05 0.95078 0.69092 0.0
C475 C 0.0064 0.97486 0.68561 0.0
C476 C 0.03137 0.98001 0.68171 0.0
C477 C 0.04939 0.96129 0.68255 0.0
C478 C 0.93209 0.05779 0.65471 0.0
C479 C 0.91048 0.05599 0.64401 0.0
C480 C 0.90874 0.06861 0.62806 0.0
C481 C 0.92855 0.08354 0.62271 0.0
C482 C 0.95083 0.08411 0.63287 0.0
C483 C 0.95272 0.07104 0.64866 0.0
C484 C 0.92444 0.06712 0.68566 0.0
C485 C 0.93844 0.08904 0.68872 0.0
C486 C 0.9287 0.10887 0.69863 0.0
C487 C 0.90465 0.1074 0.70548 0.0
C488 C 0.89133 0.08493 0.70339 0.0
C489 C 0.90119 0.06499 0.69355 0.0
C490 C 0.95009 0.03063 0.67711 0.0
C491 C 0.94521 0.00553 0.67297 0.0
C492 C 0.96333 0.98743 0.67596 0.0
C493 C 0.98681 0.99409 0.68328 0.0
C494 C 0.99159 0.01928 0.68771 0.0
C495 C 0.97346 0.03742 0.68456 0.0
Zn496 Zn 0.29578 0.73872 0.98304 0.0
Zn497 Zn 0.30966 0.70549 0.00844 0.0
O498 O 0.27208 0.70778 0.01119 0.0
O499 O 0.26014 0.73507 0.99139 0.0
O500 O 0.32092 0.68251 0.02763 0.0
O501 O 0.31927 0.7646 0.99445 0.0
O502 O 0.3299 0.73684 0.01426 0.0
C503 C 0.25488 0.72019 0.00357 0.0
C504 C 0.31832 0.69273 0.96945 0.0
O505 O 0.31966 0.68724 0.98578 0.0
O506 O 0.30915 0.71344 0.96484 0.0
C507 C 0.31236 0.66057 0.02884 0.0
O508 O 0.29528 0.65253 0.0173 0.0
C509 C 0.33218 0.75847 0.00794 0.0
Zn510 Zn 0.29835 0.80199 0.27943 0.0
Zn511 Zn 0.33396 0.82151 0.25871 0.0
O512 O 0.3013 0.83714 0.2495 0.0
O513 O 0.27192 0.8194 0.26473 0.0
O514 O 0.36032 0.83513 0.24291 0.0
O515 O 0.30956 0.76725 0.27249 0.0
O516 O 0.33795 0.78357 0.25561 0.0
C517 C 0.27835 0.83442 0.25296 0.0
C518 C 0.33425 0.83404 0.29842 0.0
O519 O 0.34404 0.83537 0.28324 0.0
O520 O 0.31473 0.82116 0.30033 0.0
C521 C 0.35942 0.85725 0.23726 0.0
O522 O 0.34081 0.87176 0.2418 0.0
C523 C 0.32731 0.76455 0.26184 0.0
Zn524 Zn 0.22843 0.80596 0.47153 0.0
Zn525 Zn 0.20573 0.83351 0.49743 0.0
O526 O 0.24287 0.83992 0.50244 0.0
O527 O 0.26188 0.81749 0.482 0.0
O528 O 0.18873 0.85137 0.51766 0.0
O529 O 0.21244 0.77447 0.48013 0.0
O530 O 0.19305 0.79773 0.49993 0.0
C531 C 0.26288 0.83242 0.49531 0.0
C532 C 0.1965 0.84617 0.45867 0.0
O533 O 0.19334 0.85089 0.47512 0.0
O534 O 0.20984 0.82786 0.45378 0.0
C535 C 0.19762 0.84925 0.53335 0.0
O536 O 0.21802 0.83615 0.53581 0.0
C537 C 0.19718 0.77652 0.49264 0.0
Zn538 Zn 0.2389 0.74404 0.73991 0.0
Zn539 Zn 0.21766 0.72169 0.76764 0.0
O540 O 0.20973 0.75866 0.77192 0.0
O541 O 0.23119 0.77745 0.75159 0.0
O542 O 0.20209 0.70414 0.78798 0.0
O543 O 0.27099 0.72566 0.74522 0.0
O544 O 0.25434 0.71157 0.76952 0.0
C545 C 0.21704 0.7786 0.76482 0.0
C546 C 0.19888 0.71065 0.72957 0.0
O547 O 0.1994 0.70595 0.74606 0.0
O548 O 0.21297 0.72726 0.7236 0.0
C549 C 0.18056 0.70969 0.79353 0.0
O550 O 0.16818 0.72803 0.78621 0.0
C551 C 0.27285 0.71347 0.75936 0.0
Zn552 Zn 0.80632 0.23007 0.53261 0.0
Zn553 Zn 0.83025 0.21536 0.50262 0.0
O554 O 0.83332 0.25342 0.50298 0.0
O555 O 0.81192 0.26593 0.52613 0.0
O556 O 0.84882 0.20523 0.4807 0.0
O557 O 0.77581 0.21149 0.52299 0.0
O558 O 0.79514 0.2015 0.49833 0.0
C559 C 0.82479 0.27095 0.51279 0.0
C560 C 0.849 0.19886 0.53926 0.0
O561 O 0.84971 0.19814 0.52239 0.0
O562 O 0.83272 0.21189 0.5471 0.0
C563 C 0.85829 0.18366 0.47877 0.0
O564 O 0.85508 0.16711 0.49107 0.0
C565 C 0.77573 0.201 0.50772 0.0
Zn566 Zn 0.79458 0.29319 0.77631 0.0
Zn567 Zn 0.81741 0.31965 0.75107 0.0
O568 O 0.78063 0.32995 0.74834 0.0
O569 O 0.76152 0.30571 0.76689 0.0
O570 O 0.83533 0.33801 0.7321 0.0
O571 O 0.80928 0.26133 0.76635 0.0
O572 O 0.8258 0.28314 0.74523 0.0
C573 C 0.76066 0.32231 0.75522 0.0
C574 C 0.83048 0.32929 0.79032 0.0
O575 O 0.83427 0.33289 0.77397 0.0
O576 O 0.814 0.31394 0.79488 0.0
C577 C 0.8282 0.35844 0.72548 0.0
O578 O 0.80751 0.36886 0.73091 0.0
C579 C 0.82199 0.2623 0.75244 0.0
Zn580 Zn 0.72938 0.29988 0.04226 0.0
Zn581 Zn 0.70316 0.32188 0.0156 0.0
O582 O 0.69692 0.28478 0.01013 0.0
O583 O 0.7196 0.26642 0.03079 0.0
O584 O 0.68695 0.33946 0.99514 0.0
O585 O 0.76129 0.31664 0.03524 0.0
O586 O 0.73909 0.33493 0.01437 0.0
C587 C 0.705 0.26505 0.01732 0.0
C588 C 0.68753 0.3308 0.05372 0.0
O589 O 0.6841 0.33398 0.03715 0.0
O590 O 0.70563 0.3177 0.05929 0.0
C591 C 0.6656 0.33435 0.98839 0.0
O592 O 0.65236 0.31638 0.99503 0.0
C593 C 0.75985 0.33156 0.0225 0.0
Zn594 Zn 0.73916 0.24095 0.22797 0.0
Zn595 Zn 0.71779 0.20976 0.25156 0.0
O596 O 0.70211 0.24406 0.25605 0.0
O597 O 0.72061 0.27034 0.23868 0.0
O598 O 0.70147 0.18948 0.27026 0.0
O599 O 0.77304 0.23087 0.23801 0.0
O600 O 0.75514 0.2057 0.25658 0.0
C601 C 0.70486 0.26607 0.25049 0.0
C602 C 0.70991 0.1999 0.21192 0.0
O603 O 0.70718 0.19364 0.22793 0.0
O604 O 0.72207 0.21938 0.20842 0.0
C605 C 0.68133 0.17734 0.26754 0.0
O606 O 0.67094 0.17666 0.25157 0.0
C607 C 0.77471 0.215 0.25016 0.0
H608 H 0.14542 0.92094 0.2522 0.0
H609 H 0.28633 0.87986 0.23842 0.0
H610 H 0.21008 0.96705 0.2641 0.0
H611 H 0.2276 0.82916 0.25173 0.0
H612 H 0.25535 0.91289 0.23503 0.0
H613 H 0.17292 0.88887 0.23996 0.0
C614 C 0.16523 0.92463 0.25206 0.0
C615 C 0.17532 0.94665 0.25982 0.0
C616 C 0.24922 0.89433 0.23821 0.0
C617 C 0.20667 0.9103 0.24513 0.0
C618 C 0.26685 0.87542 0.24006 0.0
C619 C 0.25958 0.85188 0.2458 0.0
C620 C 0.22419 0.88954 0.24193 0.0
C621 C 0.23405 0.8472 0.24765 0.0
C622 C 0.18085 0.90634 0.24489 0.0
C623 C 0.20113 0.95058 0.25841 0.0
N624 N 0.21728 0.866 0.24602 0.0
N625 N 0.21587 0.93246 0.25147 0.0
H626 H 0.1658 0.63342 0.53504 0.0
H627 H 0.15378 0.77462 0.51085 0.0
H628 H 0.09389 0.66947 0.53166 0.0
H629 H 0.21099 0.72773 0.48856 0.0
H630 H 0.13297 0.7374 0.52151 0.0
H631 H 0.18407 0.66857 0.52028 0.0
C632 C 0.15366 0.64841 0.53095 0.0
C633 C 0.12812 0.64828 0.53473 0.0
C634 C 0.14999 0.73531 0.51417 0.0
C635 C 0.1494 0.68917 0.51837 0.0
C636 C 0.16195 0.7565 0.5082 0.0
C637 C 0.18417 0.75423 0.49886 0.0
C638 C 0.16063 0.71177 0.51111 0.0
C639 C 0.19387 0.7303 0.49569 0.0
C640 C 0.16425 0.66861 0.52263 0.0
C641 C 0.11372 0.66883 0.52945 0.0
N642 N 0.18218 0.70999 0.50198 0.0
N643 N 0.12462 0.68858 0.52175 0.0
H644 H 0.36766 0.58784 0.76128 0.0
H645 H 0.29354 0.7034 0.79179 0.0
H646 H 0.39563 0.63355 0.80524 0.0
H647 H 0.30332 0.69064 0.7356 0.0
H648 H 0.32866 0.67542 0.79784 0.0
H649 H 0.34161 0.62294 0.75161 0.0
C650 C 0.3687 0.60545 0.7686 0.0
C651 C 0.38381 0.60801 0.78397 0.0
C652 C 0.32332 0.67911 0.7842 0.0
C653 C 0.35377 0.6475 0.77346 0.0
C654 C 0.30331 0.69493 0.78076 0.0
C655 C 0.29567 0.69926 0.7632 0.0
C656 C 0.33512 0.66697 0.76998 0.0
C657 C 0.30884 0.68784 0.74933 0.0
C658 C 0.35393 0.62537 0.76312 0.0
C659 C 0.38439 0.63102 0.7932 0.0
N660 N 0.32767 0.67174 0.75301 0.0
N661 N 0.36914 0.64977 0.78802 0.0
H662 H 0.45965 0.81836 0.06567 0.0
H663 H 0.34188 0.80687 -0.00098 0.0
H664 H 0.42982 0.88123 0.03759 0.0
H665 H 0.36554 0.74952 0.03492 0.0
H666 H 0.37482 0.83411 0.01157 0.0
H667 H 0.42664 0.79228 0.05261 0.0
C668 C 0.44631 0.82662 0.05656 0.0
C669 C 0.44761 0.85198 0.05261 0.0
C670 C 0.37268 0.81559 0.01671 0.0
C671 C 0.40933 0.82224 0.03782 0.0
C672 C 0.35389 0.80004 0.00958 0.0
C673 C 0.35095 0.77584 0.0159 0.0
C674 C 0.3887 0.80678 0.03016 0.0
C675 C 0.36706 0.768 0.0296 0.0
C676 C 0.42728 0.81176 0.04924 0.0
C677 C 0.42942 0.86178 0.04104 0.0
N678 N 0.38526 0.78336 0.03619 0.0
N679 N 0.41102 0.84686 0.034 0.0
H680 H 0.1327 0.62382 0.01293 0.0
H681 H 0.21305 0.74132 0.9888 0.0
H682 H 0.11571 0.67356 0.97012 0.0
H683 H 0.23646 0.68566 0.02608 0.0
H684 H 0.17085 0.72452 0.98906 0.0
H685 H 0.16358 0.65379 0.02471 0.0
C686 C 0.13504 0.64125 0.00622 0.0
C687 C 0.12206 0.64579 0.9902 0.0
C688 C 0.1851 0.71629 0.99746 0.0
C689 C 0.15729 0.68015 0.00363 0.0
C690 C 0.20924 0.7259 0.99734 0.0
C691 C 0.22851 0.71441 0.00702 0.0
C692 C 0.18026 0.69493 0.00722 0.0
C693 C 0.22231 0.69478 0.01809 0.0
C694 C 0.15263 0.65838 0.01298 0.0
C695 C 0.12533 0.66904 0.98241 0.0
N696 N 0.19883 0.68531 0.0176 0.0
N697 N 0.14298 0.68509 0.98898 0.0
H698 H 0.41109 0.63437 0.22823 0.0
H699 H 0.3024 0.72067 0.26559 0.0
H700 H 0.33348 0.61276 0.22613 0.0
H701 H 0.37109 0.75066 0.2464 0.0
H702 H 0.31602 0.67891 0.25652 0.0
H703 H 0.39899 0.67522 0.24024 0.0
C704 C 0.39154 0.63808 0.23031 0.0
C705 C 0.3733 0.61997 0.22598 0.0
C706 C 0.3281 0.69465 0.25434 0.0
C707 C 0.3595 0.66656 0.24009 0.0
C708 C 0.32039 0.71847 0.25954 0.0
C709 C 0.33558 0.7392 0.25664 0.0
C710 C 0.35132 0.69146 0.24643 0.0
C711 C 0.35871 0.73522 0.24874 0.0
C712 C 0.3847 0.66139 0.23722 0.0
C713 C 0.34832 0.62582 0.22945 0.0
N714 N 0.36593 0.71178 0.24394 0.0
N715 N 0.34218 0.64858 0.23626 0.0
H716 H 0.3633 0.95097 0.51359 0.0
H717 H 0.30955 0.81894 0.48473 0.0
H718 H 0.40108 0.89773 0.47988 0.0
H719 H 0.27142 0.87155 0.51879 0.0
H720 H 0.34781 0.84298 0.4893 0.0
H721 H 0.33487 0.91805 0.52223 0.0
C722 C 0.36602 0.93222 0.50837 0.0
C723 C 0.38423 0.92725 0.49567 0.0
C724 C 0.33121 0.84905 0.49605 0.0
C725 C 0.3516 0.88957 0.50529 0.0
C726 C 0.30931 0.83531 0.49343 0.0
C727 C 0.28707 0.84359 0.50101 0.0
C728 C 0.33081 0.87143 0.50613 0.0
C729 C 0.28802 0.8647 0.51241 0.0
C730 C 0.34977 0.91342 0.51328 0.0
C731 C 0.38724 0.90251 0.48962 0.0
N732 N 0.3094 0.87819 0.51432 0.0
N733 N 0.37073 0.88474 0.49416 0.0
H734 H 0.09435 0.87035 0.76214 0.0
H735 H 0.23229 0.82526 0.75608 0.0
H736 H 0.1521 0.90946 0.73532 0.0
H737 H 0.17548 0.78702 0.78453 0.0
H738 H 0.20675 0.86277 0.75658 0.0
H739 H 0.12631 0.84703 0.77829 0.0
C740 C 0.11379 0.87446 0.76 0.0
C741 C 0.1206 0.89135 0.74703 0.0
C742 C 0.20007 0.84638 0.7631 0.0
C743 C 0.15723 0.86453 0.76521 0.0
C744 C 0.21469 0.82493 0.76282 0.0
C745 C 0.20563 0.80276 0.76976 0.0
C746 C 0.17604 0.84548 0.77004 0.0
C747 C 0.18297 0.80357 0.77867 0.0
C748 C 0.13205 0.86117 0.76922 0.0
C749 C 0.146 0.89641 0.74505 0.0
N750 N 0.16863 0.82439 0.77813 0.0
N751 N 0.16341 0.88259 0.7537 0.0
H752 H 0.6596 0.44173 0.76373 0.0
H753 H 0.71386 0.30491 0.76091 0.0
H754 H 0.6223 0.37711 0.78344 0.0
H755 H 0.75298 0.36875 0.74176 0.0
H756 H 0.67575 0.32947 0.76187 0.0
H757 H 0.68918 0.4142 0.74877 0.0
C758 C 0.65735 0.42176 0.76466 0.0
C759 C 0.63875 0.41176 0.7752 0.0
C760 C 0.69253 0.33804 0.75714 0.0
C761 C 0.6725 0.38017 0.75811 0.0
C762 C 0.71431 0.32399 0.75657 0.0
C763 C 0.73673 0.33499 0.75164 0.0
C764 C 0.69327 0.36342 0.75307 0.0
C765 C 0.73614 0.35964 0.74586 0.0
C766 C 0.67419 0.40605 0.75605 0.0
C767 C 0.63634 0.38573 0.77554 0.0
N768 N 0.71487 0.37323 0.74713 0.0
N769 N 0.65329 0.37089 0.76741 0.0
H770 H 0.6777 0.10691 0.00155 0.0
H771 H 0.65776 0.25369 0.00582 0.0
H772 H 0.61952 0.14201 0.03217 0.0
H773 H 0.72967 0.22063 0.01617 0.0
H774 H 0.63971 0.2117 0.0022 0.0
H775 H 0.6926 0.14827 0.99403 0.0
C776 C 0.66777 0.12303 0.00657 0.0
C777 C 0.64763 0.12052 0.01808 0.0
C778 C 0.65955 0.21378 0.00477 0.0
C779 C 0.66393 0.16784 0.0085 0.0
C780 C 0.66986 0.23761 0.00677 0.0
C781 C 0.69516 0.24049 0.01145 0.0
C782 C 0.67484 0.19286 0.00698 0.0
C783 C 0.71003 0.2191 0.01272 0.0
C784 C 0.67622 0.14661 0.00205 0.0
C785 C 0.63501 0.14245 0.02329 0.0
N786 N 0.69962 0.19611 0.01057 0.0
N787 N 0.64349 0.16512 0.01857 0.0
H788 H 0.92758 0.20213 0.28656 0.0
H789 H 0.78622 0.17093 0.26571 0.0
H790 H 0.90229 0.12645 0.27665 0.0
H791 H 0.81959 0.23875 0.24781 0.0
H792 H 0.82775 0.15562 0.27401 0.0
H793 H 0.88744 0.21717 0.27559 0.0
C794 C 0.91388 0.18859 0.28182 0.0
C795 C 0.91854 0.16285 0.28265 0.0
C796 C 0.82592 0.17383 0.26824 0.0
C797 C 0.87207 0.18019 0.27073 0.0
C798 C 0.80226 0.18267 0.26366 0.0
C799 C 0.79949 0.20616 0.2561 0.0
C800 C 0.84686 0.1888 0.26558 0.0
C801 C 0.82093 0.22051 0.25358 0.0
C802 C 0.89084 0.19728 0.27571 0.0
C803 C 0.89953 0.14641 0.27669 0.0
N804 N 0.84374 0.21168 0.25845 0.0
N805 N 0.87704 0.15535 0.2712 0.0
H806 H 0.86863 0.41483 0.54499 0.0
H807 H 0.85935 0.28844 0.48984 0.0
H808 H 0.92257 0.39145 0.50632 0.0
H809 H 0.80683 0.31306 0.5291 0.0
H810 H 0.87667 0.33055 0.48975 0.0
H811 H 0.83989 0.38362 0.53291 0.0
C812 C 0.87427 0.40368 0.5336 0.0
C813 C 0.89846 0.40542 0.52701 0.0
C814 C 0.86103 0.32685 0.49813 0.0
C815 C 0.86571 0.36874 0.51353 0.0
C816 C 0.85112 0.3028 0.49818 0.0
C817 C 0.83205 0.29706 0.50986 0.0
C818 C 0.85185 0.34521 0.50987 0.0
C819 C 0.82192 0.31648 0.52019 0.0
C820 C 0.85783 0.38557 0.52681 0.0
C821 C 0.90447 0.39021 0.51226 0.0
N822 N 0.83222 0.33956 0.52017 0.0
N823 N 0.88845 0.37209 0.5063 0.0
H824 H 0.66484 0.12713 0.44053 0.0
H825 H 0.73118 0.19584 0.52425 0.0
H826 H 0.62746 0.14415 0.4895 0.0
H827 H 0.76842 0.17689 0.47553 0.0
H828 H 0.69355 0.17534 0.51237 0.0
H829 H 0.70355 0.14306 0.4539 0.0
C830 C 0.66483 0.13386 0.45421 0.0
C831 C 0.64281 0.13426 0.46392 0.0
C832 C 0.70998 0.1756 0.5043 0.0
C833 C 0.68711 0.15312 0.4792 0.0
C834 C 0.73148 0.18734 0.51106 0.0
C835 C 0.75298 0.18822 0.50083 0.0
C836 C 0.70993 0.16469 0.48717 0.0
C837 C 0.75228 0.17678 0.48387 0.0
C838 C 0.68694 0.14317 0.46179 0.0
C839 C 0.6439 0.14375 0.48146 0.0
N840 N 0.73107 0.16557 0.47755 0.0
N841 N 0.66566 0.15291 0.48852 0.0
H842 H 0.87487 0.11128 0.7347 0.0
H843 H 0.8511 0.25739 0.72319 0.0
H844 H 0.90668 0.15487 0.69347 0.0
H845 H 0.81894 0.21485 0.76487 0.0
H846 H 0.8712 0.21964 0.712 0.0
H847 H 0.85393 0.14878 0.746 0.0
C848 C 0.87749 0.12872 0.72805 0.0
C849 C 0.8927 0.12997 0.7132 0.0
C850 C 0.85971 0.21853 0.72358 0.0
C851 C 0.86884 0.17286 0.72601 0.0
C852 C 0.84817 0.2401 0.72996 0.0
C853 C 0.83332 0.23932 0.74502 0.0
C854 C 0.85643 0.19597 0.7323 0.0
C855 C 0.83023 0.21634 0.75323 0.0
C856 C 0.86559 0.15011 0.73452 0.0
C857 C 0.89554 0.1531 0.70517 0.0
N858 N 0.84173 0.19559 0.74678 0.0
N859 N 0.88371 0.17357 0.71165 0.0
H860 H 0.86467 0.44077 0.98598 0.0
H861 H 0.80867 0.31904 0.0284 0.0
H862 H 0.9027 0.36979 0.98453 0.0
H863 H 0.76205 0.37497 0.00433 0.0
H864 H 0.84556 0.34132 0.01859 0.0
H865 H 0.82888 0.42046 -0.00102 0.0
C866 C 0.86566 0.42101 0.9884 0.0
C867 C 0.88687 0.40704 0.98392 0.0
C868 C 0.82722 0.3487 0.01554 0.0
C869 C 0.84612 0.38394 -0.00072 0.0
C870 C 0.8062 0.33607 0.02115 0.0
C871 C 0.78228 0.3451 0.01705 0.0
C872 C 0.82429 0.37076 0.0061 0.0
C873 C 0.78016 0.36725 0.00761 0.0
C874 C 0.84522 0.4095 0.9959 0.0
C875 C 0.8871 0.38157 0.98793 0.0
N876 N 0.80092 0.37941 0.00251 0.0
N877 N 0.86706 0.37087 0.99536 0.0
H878 H 0.56713 0.33184 0.24298 0.0
H879 H 0.70881 0.31641 0.24581 0.0
H880 H 0.61451 0.39687 0.24923 0.0
H881 H 0.66061 0.26082 0.26725 0.0
H882 H 0.67553 0.34718 0.24903 0.0
H883 H 0.60067 0.30651 0.25442 0.0
C884 C 0.58423 0.34114 0.24716 0.0
C885 C 0.58785 0.36677 0.2446 0.0
C886 C 0.67248 0.3284 0.25345 0.0
C887 C 0.62707 0.33709 0.25711 0.0
C888 C 0.69143 0.3108 0.25154 0.0
C889 C 0.68731 0.2859 0.25594 0.0
C890 C 0.64913 0.32087 0.2594 0.0
C891 C 0.66452 0.27973 0.26348 0.0
C892 C 0.60359 0.32642 0.25362 0.0
C893 C 0.61095 0.37712 0.25017 0.0
N894 N 0.64606 0.29696 0.26457 0.0
N895 N 0.6299 0.36216 0.25568 0.0
H896 H 0.13732 0.91055 0.36216 0.0
H897 H 0.18082 0.89438 0.46327 0.0
H898 H 0.16235 0.97243 0.3956 0.0
H899 H 0.18778 0.8359 0.42331 0.0
H900 H 0.16587 0.92251 0.4402 0.0
H901 H 0.14765 0.88216 0.38623 0.0
C902 C 0.14475 0.91815 0.37466 0.0
C903 C 0.14906 0.94382 0.37694 0.0
C904 C 0.17057 0.90347 0.43655 0.0
C905 C 0.16079 0.91157 0.40444 0.0
C906 C 0.17895 0.88738 0.44969 0.0
C907 C 0.18566 0.8628 0.44517 0.0
C908 C 0.16846 0.89477 0.41885 0.0
C909 C 0.18298 0.85475 0.42735 0.0
C910 C 0.15076 0.90196 0.38831 0.0
C911 C 0.15894 0.95272 0.39331 0.0
N912 N 0.17453 0.87069 0.41484 0.0
N913 N 0.16441 0.93661 0.40649 0.0
H914 H 0.10957 0.65703 0.63965 0.0
H915 H 0.18037 0.66377 0.73394 0.0
H916 H 0.1412 0.59199 0.66395 0.0
H917 H 0.18091 0.7239 0.69696 0.0
H918 H 0.15672 0.63827 0.71192 0.0
H919 H 0.12628 0.6828 0.66446 0.0
C920 C 0.11968 0.64816 0.65039 0.0
C921 C 0.12412 0.62241 0.6498 0.0
C922 C 0.16189 0.65713 0.70875 0.0
C923 C 0.14319 0.65167 0.67807 0.0
C924 C 0.17524 0.6717 0.72129 0.0
C925 C 0.18275 0.69589 0.71717 0.0
C926 C 0.15562 0.66704 0.69218 0.0
C927 C 0.17569 0.70525 0.70058 0.0
C928 C 0.12932 0.66286 0.66442 0.0
C929 C 0.13757 0.61183 0.66391 0.0
N930 N 0.16248 0.69081 0.68867 0.0
N931 N 0.14667 0.62653 0.67752 0.0
H932 H 0.37203 0.62593 0.87234 0.0
H933 H 0.33711 0.64581 0.97431 0.0
H934 H 0.38277 0.56922 0.91138 0.0
H935 H 0.32093 0.69905 0.93356 0.0
H936 H 0.35344 0.61721 0.95166 0.0
H937 H 0.35279 0.65262 0.89475 0.0
C938 C 0.37038 0.61913 0.88569 0.0
C939 C 0.37927 0.59544 0.89008 0.0
C940 C 0.34623 0.63512 0.94768 0.0
C941 C 0.35707 0.62591 0.91585 0.0
C942 C 0.33694 0.65149 0.9606 0.0
C943 C 0.32772 0.67495 0.95585 0.0
C944 C 0.34641 0.64227 0.92989 0.0
C945 C 0.32789 0.68122 0.93788 0.0
C946 C 0.35927 0.63434 0.89847 0.0
C947 C 0.37615 0.58736 0.90747 0.0
N948 N 0.33718 0.66503 0.92558 0.0
N949 N 0.36545 0.60266 0.91978 0.0
H950 H 0.49277 0.87624 0.17646 0.0
H951 H 0.35817 0.89896 0.21708 0.0
H952 H 0.43584 0.92076 0.15109 0.0
H953 H 0.40469 0.83618 0.23021 0.0
H954 H 0.38962 0.9126 0.1964 0.0
H955 H 0.4637 0.86689 0.19987 0.0
C956 C 0.47424 0.88415 0.1758 0.0
C957 C 0.46676 0.89913 0.16159 0.0
C958 C 0.39296 0.8959 0.20387 0.0
C959 C 0.43353 0.88878 0.18858 0.0
C960 C 0.37506 0.88812 0.2157 0.0
C961 C 0.37873 0.86629 0.22529 0.0
C962 C 0.41483 0.88192 0.20178 0.0
C963 C 0.40099 0.85301 0.22298 0.0
C964 C 0.45769 0.87885 0.18922 0.0
C965 C 0.44265 0.90934 0.1618 0.0
N966 N 0.41821 0.86103 0.21146 0.0
N967 N 0.42689 0.90389 0.17502 0.0
H968 H 0.14477 0.59417 0.86663 0.0
H969 H 0.13764 0.71953 0.81149 0.0
H970 H 0.0959 0.65523 0.8802 0.0
H971 H 0.1976 0.66626 0.80766 0.0
H972 H 0.11913 0.69448 0.83452 0.0
H973 H 0.16113 0.61848 0.84259 0.0
C974 C 0.13746 0.6127 0.86458 0.0
C975 C 0.11907 0.62273 0.87563 0.0
C976 C 0.13634 0.68832 0.82863 0.0
C977 C 0.1376 0.65061 0.84789 0.0
C978 C 0.14691 0.70258 0.81548 0.0
C979 C 0.16925 0.69502 0.80766 0.0
C980 C 0.14805 0.66621 0.83387 0.0
C981 C 0.18043 0.67288 0.81336 0.0
C982 C 0.14679 0.62655 0.8508 0.0
C983 C 0.10992 0.64663 0.87198 0.0
N984 N 0.16969 0.65925 0.82607 0.0
N985 N 0.11934 0.6598 0.85846 0.0
H986 H 0.39155 0.60224 0.11978 0.0
H987 H 0.29623 0.61378 0.03701 0.0
H988 H 0.33389 0.54813 0.10719 0.0
H989 H 0.34969 0.67047 0.05331 0.0
H990 H 0.31158 0.58785 0.0612 0.0
H991 H 0.37863 0.62556 0.09379 0.0
C992 C 0.37637 0.59507 0.11141 0.0
C993 C 0.36378 0.57318 0.11569 0.0
C994 C 0.31997 0.60595 0.05944 0.0
C995 C 0.34857 0.6001 0.08601 0.0
C996 C 0.31122 0.62076 0.04563 0.0
C997 C 0.32161 0.64439 0.04317 0.0
C998 C 0.3393 0.61481 0.07081 0.0
C999 C 0.34103 0.65244 0.05474 0.0
C1000 C 0.36885 0.60853 0.09664 0.0
C1001 C 0.34393 0.56507 0.10451 0.0
N1002 N 0.3492 0.6377 0.06805 0.0
N1003 N 0.33689 0.57856 0.0902 0.0
H1004 H 0.34809 0.93251 0.39024 0.0
H1005 H 0.37983 0.85696 0.30127 0.0
H1006 H 0.42331 0.92323 0.37232 0.0
H1007 H 0.31225 0.84555 0.32997 0.0
H1008 H 0.39531 0.8842 0.32564 0.0
H1009 H 0.33349 0.90404 0.3663 0.0
C1010 C 0.36148 0.9246 0.38115 0.0
C1011 C 0.38691 0.93022 0.38318 0.0
C1012 C 0.37718 0.87558 0.32662 0.0
C1013 C 0.37042 0.89764 0.3559 0.0
C1014 C 0.36832 0.86006 0.31273 0.0
C1015 C 0.3447 0.84897 0.31359 0.0
C1016 C 0.36215 0.88035 0.34133 0.0
C1017 C 0.33059 0.85362 0.32877 0.0
C1018 C 0.35319 0.90822 0.36762 0.0
C1019 C 0.40355 0.91924 0.37123 0.0
N1020 N 0.33945 0.86914 0.34197 0.0
N1021 N 0.395 0.90355 0.35801 0.0
H1022 H 0.08401 0.90104 0.60489 0.0
H1023 H 0.21396 0.85225 0.56798 0.0
H1024 H 0.15072 0.89443 0.63751 0.0
H1025 H 0.15116 0.87052 0.5339 0.0
H1026 H 0.19101 0.86767 0.59359 0.0
H1027 H 0.10807 0.88971 0.5787 0.0
C1028 C 0.10373 0.89721 0.60653 0.0
C1029 C 0.11536 0.8986 0.62342 0.0
C1030 C 0.18228 0.86845 0.58051 0.0
C1031 C 0.14302 0.88569 0.59352 0.0
C1032 C 0.19537 0.85961 0.56587 0.0
C1033 C 0.18443 0.85999 0.54877 0.0
C1034 C 0.15795 0.87755 0.57809 0.0
C1035 C 0.16032 0.86985 0.54684 0.0
C1036 C 0.11748 0.89089 0.59157 0.0
C1037 C 0.14103 0.89379 0.62474 0.0
N1038 N 0.14782 0.87807 0.56134 0.0
N1039 N 0.15395 0.88739 0.61002 0.0
H1040 H 0.65229 0.43421 0.90054 0.0
H1041 H 0.62165 0.32765 0.96941 0.0
H1042 H 0.5855 0.38938 0.89699 0.0
H1043 H 0.68824 0.37287 0.97204 0.0
H1044 H 0.60736 0.35055 0.94337 0.0
H1045 H 0.66495 0.4126 0.92737 0.0
C1046 C 0.64017 0.41995 0.90549 0.0
C1047 C 0.61777 0.41364 0.89649 0.0
C1048 C 0.62507 0.35547 0.94968 0.0
C1049 C 0.63235 0.3885 0.92715 0.0
C1050 C 0.63324 0.34241 0.96455 0.0
C1051 C 0.65621 0.34829 0.9729 0.0
C1052 C 0.63999 0.37453 0.94313 0.0
C1053 C 0.67043 0.36762 0.96603 0.0
C1054 C 0.64749 0.40749 0.92076 0.0
C1055 C 0.60306 0.39466 0.90337 0.0
N1056 N 0.66211 0.37999 0.95156 0.0
N1057 N 0.61061 0.38275 0.91828 0.0
H1058 H 0.67351 0.07421 0.14313 0.0
H1059 H 0.70032 0.21238 0.17738 0.0
H1060 H 0.64444 0.13747 0.11524 0.0
H1061 H 0.69544 0.15123 0.21331 0.0
H1062 H 0.68389 0.18507 0.15329 0.0
H1063 H 0.68583 0.102 0.16815 0.0
C1064 C 0.66966 0.09397 0.14236 0.0
C1065 C 0.65799 0.10368 0.12721 0.0
C1066 C 0.6863 0.17775 0.16649 0.0
C1067 C 0.67226 0.13546 0.15548 0.0
C1068 C 0.69577 0.19324 0.1802 0.0
C1069 C 0.69931 0.18401 0.19734 0.0
C1070 C 0.68083 0.15278 0.1699 0.0
C1071 C 0.69297 0.15911 0.20029 0.0
C1072 C 0.67658 0.10976 0.15661 0.0
C1073 C 0.6533 0.12935 0.12679 0.0
N1074 N 0.68428 0.14427 0.18666 0.0
N1075 N 0.66072 0.14446 0.14067 0.0
H1076 H 0.9362 0.1888 0.37989 0.0
H1077 H 0.88569 0.14146 0.47228 0.0
H1078 H 0.96387 0.12274 0.40528 0.0
H1079 H 0.86667 0.21255 0.45008 0.0
H1080 H 0.9127 0.13299 0.44713 0.0
H1081 H 0.90936 0.19679 0.405 0.0
C1082 C 0.93688 0.1761 0.39084 0.0
C1083 C 0.95252 0.15514 0.39049 0.0
C1084 C 0.9026 0.15043 0.44777 0.0
C1085 C 0.92128 0.16395 0.41921 0.0
C1086 C 0.8871 0.15525 0.46209 0.0
C1087 C 0.87391 0.17777 0.4633 0.0
C1088 C 0.90483 0.16821 0.43453 0.0
C1089 C 0.87651 0.19496 0.44973 0.0
C1090 C 0.92136 0.18059 0.40513 0.0
C1091 C 0.952 0.13901 0.40489 0.0
N1092 N 0.89165 0.18981 0.43592 0.0
N1093 N 0.93662 0.14375 0.41866 0.0
H1094 H 0.9454 0.39652 0.65439 0.0
H1095 H 0.81598 0.39855 0.70508 0.0
H1096 H 0.88156 0.43867 0.63645 0.0
H1097 H 0.87477 0.34538 0.71471 0.0
H1098 H 0.84117 0.41717 0.68215 0.0
H1099 H 0.92126 0.38156 0.67899 0.0
C1100 C 0.92629 0.40265 0.65562 0.0
C1101 C 0.91542 0.41865 0.64318 0.0
C1102 C 0.84853 0.40146 0.68932 0.0
C1103 C 0.88768 0.40173 0.6715 0.0
C1104 C 0.8342 0.39084 0.70242 0.0
C1105 C 0.84323 0.37029 0.71179 0.0
C1106 C 0.87215 0.3916 0.68568 0.0
C1107 C 0.86697 0.3611 0.70778 0.0
C1108 C 0.91253 0.39415 0.66972 0.0
C1109 C 0.89076 0.42645 0.64575 0.0
N1110 N 0.88057 0.37182 0.69505 0.0
N1111 N 0.87766 0.4178 0.65957 0.0
H1112 H 0.62216 0.15905 0.37115 0.0
H1113 H 0.6395 0.14783 0.26661 0.0
H1114 H 0.57974 0.1068 0.33817 0.0
H1115 H 0.69352 0.18211 0.30292 0.0
H1116 H 0.61643 0.13325 0.29206 0.0
H1117 H 0.64731 0.16892 0.34573 0.0
C1118 C 0.61809 0.14974 0.35848 0.0
C1119 C 0.59869 0.13229 0.35668 0.0
C1120 C 0.63346 0.14376 0.29441 0.0
C1121 C 0.62754 0.14339 0.32748 0.0
C1122 C 0.64662 0.15213 0.27991 0.0
C1123 C 0.6684 0.16637 0.28263 0.0
C1124 C 0.64199 0.14996 0.31173 0.0
C1125 C 0.6768 0.17127 0.30015 0.0
C1126 C 0.63258 0.15522 0.34401 0.0
C1127 C 0.59453 0.12039 0.34007 0.0
N1128 N 0.66347 0.16329 0.31401 0.0
N1129 N 0.60871 0.12633 0.32602 0.0
H1130 H 0.93638 0.13355 0.62357 0.0
H1131 H 0.87273 0.15624 0.52855 0.0
H1132 H 0.91045 0.07324 0.58901 0.0
H1133 H 0.8645 0.20629 0.57378 0.0
H1134 H 0.89804 0.12862 0.54714 0.0
H1135 H 0.92199 0.16334 0.60146 0.0
C1136 C 0.92828 0.12659 0.6111 0.0
C1137 C 0.92446 0.10097 0.60807 0.0
C1138 C 0.89091 0.14582 0.55287 0.0
C1139 C 0.90795 0.1348 0.58291 0.0
C1140 C 0.87657 0.1616 0.54231 0.0
C1141 C 0.86632 0.18342 0.54973 0.0
C1142 C 0.8954 0.15224 0.57082 0.0
C1143 C 0.87182 0.18948 0.56761 0.0
C1144 C 0.9199 0.14356 0.59861 0.0
C1145 C 0.91355 0.09289 0.59183 0.0
N1146 N 0.88599 0.17394 0.57758 0.0
N1147 N 0.90552 0.10979 0.57984 0.0
H1148 H 0.95052 0.38746 0.85775 0.0
H1149 H 0.8177 0.34025 0.82445 0.0
H1150 H 0.88294 0.41402 0.88154 0.0
H1151 H 0.87713 0.34918 0.78752 0.0
H1152 H 0.84292 0.36227 0.84734 0.0
H1153 H 0.92543 0.36839 0.83322 0.0
C1154 C 0.93043 0.38936 0.85771 0.0
C1155 C 0.91869 0.40235 0.87155 0.0
C1156 C 0.85036 0.35948 0.83419 0.0
C1157 C 0.89012 0.38037 0.844 0.0
C1158 C 0.83607 0.34683 0.82118 0.0
C1159 C 0.84538 0.34292 0.8041 0.0
C1160 C 0.87433 0.36776 0.83021 0.0
C1161 C 0.86926 0.35193 0.80052 0.0
C1162 C 0.9162 0.37861 0.84376 0.0
C1163 C 0.89265 0.40434 0.87099 0.0
N1164 N 0.88307 0.36374 0.81355 0.0
N1165 N 0.87919 0.3932 0.85754 0.0
H1166 H 0.61639 0.39729 0.14535 0.0
H1167 H 0.63939 0.34515 0.04721 0.0
H1168 H 0.5569 0.36664 0.11209 0.0
H1169 H 0.6952 0.34086 0.08923 0.0
H1170 H 0.60958 0.36104 0.06889 0.0
H1171 H 0.64633 0.38471 0.12274 0.0
C1172 C 0.60965 0.38816 0.13318 0.0
C1173 C 0.58421 0.38296 0.13051 0.0
C1174 C 0.62839 0.35668 0.0733 0.0
C1175 C 0.61819 0.36869 0.10468 0.0
C1176 C 0.64543 0.34776 0.06096 0.0
C1177 C 0.66978 0.34161 0.06647 0.0
C1178 C 0.63591 0.35994 0.09117 0.0
C1179 C 0.67657 0.34523 0.08446 0.0
C1180 C 0.62671 0.38086 0.12038 0.0
C1181 C 0.57641 0.37085 0.11462 0.0
N1182 N 0.65975 0.35428 0.09617 0.0
N1183 N 0.59335 0.3642 0.10223 0.0
loop_
_geom_bond_atom_site_label_1
_geom_bond_atom_site_label_2
_geom_bond_distance
_geom_bond_site_symmetry_2
_ccdc_geom_bond_type
H0 C27 0.929 . S
N1 C26 1.433 . S
N1 C32 1.435 . S
N1 C38 1.423 . S
H2 C28 0.930 . S
H3 C31 0.931 . S
H4 C30 0.929 . S
H5 C33 0.930 . S
H6 C34 0.932 . S
H7 C37 0.929 . S
H8 C36 0.931 . S
H9 C39 0.929 . S
H10 C43 0.932 . S
H11 C40 0.931 . S
H12 C42 0.929 . S
H13 C45 0.929 . S
H14 C46 0.930 . S
H15 C48 0.929 . S
H16 C49 0.931 . S
H17 C51 0.930 . S
H18 C52 0.932 . S
H19 C54 0.931 . S
H20 C55 0.929 . S
H21 C57 0.929 . S
H22 C58 0.931 . S
H23 C60 0.929 . S
N24 C44 1.433 . S
N24 C50 1.435 . S
N24 C56 1.423 . S
H25 C61 0.932 . S
C26 N1 1.433 . S
C26 C27 1.363 . S
C26 C31 1.370 . S
C27 H0 0.929 . S
C27 C26 1.363 . S
C27 C28 1.385 . S
C28 H2 0.930 . S
C28 C27 1.385 . S
C28 C29 1.357 . S
C29 C28 1.357 . S
C29 C30 1.406 . S
C30 H4 0.929 . S
C30 C29 1.406 . S
C30 C31 1.391 . S
C31 H3 0.931 . S
C31 C26 1.370 . S
C31 C30 1.391 . S
C32 N1 1.435 . S
C32 C33 1.358 . S
C32 C37 1.371 . S
C33 H5 0.930 . S
C33 C32 1.358 . S
C33 C34 1.405 . S
C34 H6 0.932 . S
C34 C33 1.405 . S
C34 C35 1.383 . S
C35 C34 1.383 . S
C35 C36 1.393 . S
C36 H8 0.931 . S
C36 C35 1.393 . S
C36 C37 1.382 . S
C37 H7 0.929 . S
C37 C32 1.371 . S
C37 C36 1.382 . S
C38 N1 1.423 . S
C38 C39 1.362 1_565 S
C38 C43 1.388 . S
C39 H9 0.929 . S
C39 C38 1.362 1_545 S
C39 C40 1.376 . S
C40 H11 0.931 . S
C40 C39 1.376 . S
C40 C41 1.396 . S
C41 C40 1.396 . S
C41 C42 1.348 1_545 S
C41 C59 1.472 . S
C42 H12 0.929 . S
C42 C41 1.348 1_565 S
C42 C43 1.443 . S
C43 H10 0.932 . S
C43 C38 1.388 . S
C43 C42 1.443 . S
C44 N24 1.433 . S
C44 C45 1.363 . S
C44 C49 1.370 . S
C45 H13 0.929 . S
C45 C44 1.363 . S
C45 C46 1.385 . S
C46 H14 0.930 . S
C46 C45 1.385 . S
C46 C47 1.357 . S
C47 C46 1.357 . S
C47 C48 1.406 . S
C48 H15 0.929 . S
C48 C47 1.406 . S
C48 C49 1.391 . S
C49 H16 0.931 . S
C49 C44 1.370 . S
C49 C48 1.391 . S
C50 N24 1.435 . S
C50 C51 1.358 . S
C50 C55 1.371 . S
C51 H17 0.930 . S
C51 C50 1.358 . S
C51 C52 1.405 . S
C52 H18 0.932 . S
C52 C51 1.405 . S
C52 C53 1.383 . S
C53 C52 1.383 . S
C53 C54 1.393 . S
C54 H19 0.931 . S
C54 C53 1.393 . S
C54 C55 1.382 . S
C55 H20 0.929 . S
C55 C50 1.371 . S
C55 C54 1.382 . S
C56 N24 1.423 . S
C56 C57 1.362 1_655 S
C56 C61 1.388 . S
C57 H21 0.929 . S
C57 C56 1.362 1_455 S
C57 C58 1.376 . S
C58 H22 0.931 . S
C58 C57 1.376 . S
C58 C59 1.396 . S
C59 C41 1.472 . S
C59 C58 1.396 . S
C59 C60 1.348 . S
C60 H23 0.929 . S
C60 C59 1.348 . S
C60 C61 1.443 1_455 S
C61 H25 0.932 . S
C61 C56 1.388 . S
C61 C60 1.443 1_655 S
H62 C89 0.929 . S
N63 C88 1.433 . S
N63 C94 1.435 . S
N63 C100 1.423 . S
H64 C90 0.930 . S
H65 C93 0.931 . S
H66 C92 0.929 . S
H67 C95 0.930 . S
H68 C96 0.932 . S
H69 C99 0.929 . S
H70 C98 0.931 . S
H71 C101 0.927 1_455 S
H72 C105 0.932 . S
H73 C102 0.931 . S
H74 C104 0.929 . S
H75 C107 0.929 . S
H76 C108 0.930 . S
H77 C110 0.929 . S
H78 C111 0.931 . S
H79 C113 0.930 . S
H80 C114 0.932 . S
H81 C116 0.931 . S
H82 C117 0.929 . S
H83 C119 0.929 . S
H84 C120 0.931 . S
H85 C122 0.929 . S
N86 C106 1.433 . S
N86 C112 1.435 . S
N86 C118 1.423 . S
H87 C123 0.932 . S
C88 N63 1.433 . S
C88 C89 1.363 . S
C88 C93 1.370 . S
C89 H62 0.929 . S
C89 C88 1.363 . S
C89 C90 1.385 . S
C90 H64 0.930 . S
C90 C89 1.385 . S
C90 C91 1.357 . S
C91 C90 1.357 . S
C91 C92 1.406 . S
C92 H66 0.929 . S
C92 C91 1.406 . S
C92 C93 1.391 . S
C93 H65 0.931 . S
C93 C88 1.370 . S
C93 C92 1.391 . S
C94 N63 1.435 . S
C94 C95 1.358 . S
C94 C99 1.371 . S
C95 H67 0.930 . S
C95 C94 1.358 . S
C95 C96 1.405 . S
C96 H68 0.932 . S
C96 C95 1.405 . S
C96 C97 1.383 . S
C97 C96 1.383 . S
C97 C98 1.393 . S
C98 H70 0.931 . S
C98 C97 1.393 . S
C98 C99 1.382 . S
C99 H69 0.929 . S
C99 C94 1.371 . S
C99 C98 1.382 . S
C100 N63 1.423 . S
C100 C101 1.385 . S
C100 C105 1.388 . S
C101 H71 0.927 1_655 S
C101 C100 1.385 . S
C101 C102 1.356 1_655 S
C102 H73 0.931 . S
C102 C101 1.356 1_455 S
C102 C103 1.396 . S
C103 C102 1.396 . S
C103 C104 1.348 1_455 S
C103 C121 1.472 . S
C104 H74 0.929 . S
C104 C103 1.348 1_655 S
C104 C105 1.443 . S
C105 H72 0.932 . S
C105 C100 1.388 . S
C105 C104 1.443 . S
C106 N86 1.433 . S
C106 C107 1.363 . S
C106 C111 1.370 . S
C107 H75 0.929 . S
C107 C106 1.363 . S
C107 C108 1.385 . S
C108 H76 0.930 . S
C108 C107 1.385 . S
C108 C109 1.357 . S
C109 C108 1.357 . S
C109 C110 1.406 . S
C110 H77 0.929 . S
C110 C109 1.406 . S
C110 C111 1.391 . S
C111 H78 0.931 . S
C111 C106 1.370 . S
C111 C110 1.391 . S
C112 N86 1.435 . S
C112 C113 1.358 . S
C112 C117 1.371 . S
C113 H79 0.930 . S
C113 C112 1.358 . S
C113 C114 1.405 . S
C114 H80 0.932 . S
C114 C113 1.405 . S
C114 C115 1.383 . S
C115 C114 1.383 . S
C115 C116 1.393 . S
C116 H81 0.931 . S
C116 C115 1.393 . S
C116 C117 1.382 . S
C117 H82 0.929 . S
C117 C112 1.371 . S
C117 C116 1.382 . S
C118 N86 1.423 . S
C118 C119 1.362 . S
C118 C123 1.388 . S
C119 H83 0.929 . S
C119 C118 1.362 . S
C119 C120 1.376 . S
C120 H84 0.931 . S
C120 C119 1.376 . S
C120 C121 1.396 . S
C121 C103 1.472 . S
C121 C120 1.396 . S
C121 C122 1.348 . S
C122 H85 0.929 . S
C122 C121 1.348 . S
C122 C123 1.443 . S
C123 H87 0.932 . S
C123 C118 1.388 . S
C123 C122 1.443 . S
H124 C151 0.929 . S
N125 C150 1.433 . S
N125 C156 1.435 . S
N125 C162 1.423 . S
H126 C152 0.930 . S
H127 C155 0.931 . S
H128 C154 0.929 . S
H129 C157 0.930 . S
H130 C158 0.932 . S
H131 C161 0.929 . S
H132 C160 0.931 . S
H133 C163 0.929 . S
H134 C167 0.932 . S
H135 C164 0.931 . S
H136 C166 0.929 . S
H137 C169 0.929 . S
H138 C170 0.930 . S
H139 C172 0.929 . S
H140 C173 0.931 . S
H141 C175 0.930 . S
H142 C176 0.932 . S
H143 C178 0.931 . S
H144 C179 0.929 . S
H145 C181 0.929 . S
H146 C182 0.931 . S
H147 C184 0.929 . S
N148 C168 1.433 . S
N148 C174 1.435 . S
N148 C180 1.423 . S
H149 C185 0.932 . S
C150 N125 1.433 . S
C150 C151 1.363 . S
C150 C155 1.370 . S
C151 H124 0.929 . S
C151 C150 1.363 . S
C151 C152 1.385 . S
C152 H126 0.930 . S
C152 C151 1.385 . S
C152 C153 1.357 . S
C153 C152 1.357 . S
C153 C154 1.406 . S
C154 H128 0.929 . S
C154 C153 1.406 . S
C154 C155 1.391 . S
C155 H127 0.931 . S
C155 C150 1.370 . S
C155 C154 1.391 . S
C156 N125 1.435 . S
C156 C157 1.358 . S
C156 C161 1.371 . S
C157 H129 0.930 . S
C157 C156 1.358 . S
C157 C158 1.405 . S
C158 H130 0.932 . S
C158 C157 1.405 . S
C158 C159 1.383 . S
C159 C158 1.383 . S
C159 C160 1.393 . S
C160 H132 0.931 . S
C160 C159 1.393 . S
C160 C161 1.382 . S
C161 H131 0.929 . S
C161 C156 1.371 . S
C161 C160 1.382 . S
C162 N125 1.423 . S
C162 C163 1.362 . S
C162 C167 1.388 . S
C163 H133 0.929 . S
C163 C162 1.362 . S
C163 C164 1.376 . S
C164 H135 0.931 . S
C164 C163 1.376 . S
C164 C165 1.396 . S
C165 C164 1.396 . S
C165 C166 1.348 . S
C165 C183 1.472 . S
C166 H136 0.929 . S
C166 C165 1.348 . S
C166 C167 1.443 . S
C167 H134 0.932 . S
C167 C162 1.388 . S
C167 C166 1.443 . S
C168 N148 1.433 . S
C168 C169 1.363 . S
C168 C173 1.370 . S
C169 H137 0.929 . S
C169 C168 1.363 . S
C169 C170 1.385 . S
C170 H138 0.930 . S
C170 C169 1.385 . S
C170 C171 1.357 . S
C171 C170 1.357 . S
C171 C172 1.406 . S
C172 H139 0.929 . S
C172 C171 1.406 . S
C172 C173 1.391 . S
C173 H140 0.931 . S
C173 C168 1.370 . S
C173 C172 1.391 . S
C174 N148 1.435 . S
C174 C175 1.358 . S
C174 C179 1.371 . S
C175 H141 0.930 . S
C175 C174 1.358 . S
C175 C176 1.405 . S
C176 H142 0.932 . S
C176 C175 1.405 . S
C176 C177 1.383 . S
C177 C176 1.383 . S
C177 C178 1.393 . S
C178 H143 0.931 . S
C178 C177 1.393 . S
C178 C179 1.382 . S
C179 H144 0.929 . S
C179 C174 1.371 . S
C179 C178 1.382 . S
C180 N148 1.423 . S
C180 C181 1.362 . S
C180 C185 1.388 . S
C181 H145 0.929 . S
C181 C180 1.362 . S
C181 C182 1.376 . S
C182 H146 0.931 . S
C182 C181 1.376 . S
C182 C183 1.396 . S
C183 C165 1.472 . S
C183 C182 1.396 . S
C183 C184 1.348 . S
C184 H147 0.929 . S
C184 C183 1.348 . S
C184 C185 1.443 . S
C185 H149 0.932 . S
C185 C180 1.388 . S
C185 C184 1.443 . S
H186 C213 0.929 . S
N187 C212 1.433 . S
N187 C218 1.435 . S
N187 C224 1.423 . S
H188 C214 0.930 . S
H189 C217 0.931 . S
H190 C216 0.929 . S
H191 C219 0.930 . S
H192 C220 0.932 . S
H193 C223 0.929 . S
H194 C222 0.931 . S
H195 C225 0.929 . S
H196 C229 0.932 . S
H197 C226 0.931 . S
H198 C228 0.929 . S
H199 C231 0.929 . S
H200 C232 0.930 . S
H201 C234 0.929 . S
H202 C235 0.931 . S
H203 C237 0.930 . S
H204 C238 0.932 . S
H205 C240 0.931 . S
H206 C241 0.929 . S
H207 C243 0.929 . S
H208 C244 0.901 1_565 S
H209 C246 0.929 . S
N210 C230 1.433 . S
N210 C236 1.435 . S
N210 C242 1.423 . S
H211 C247 0.932 . S
C212 N187 1.433 . S
C212 C213 1.363 . S
C212 C217 1.370 . S
C213 H186 0.929 . S
C213 C212 1.363 . S
C213 C214 1.385 . S
C214 H188 0.930 . S
C214 C213 1.385 . S
C214 C215 1.357 . S
C215 C214 1.357 . S
C215 C216 1.406 . S
C216 H190 0.929 . S
C216 C215 1.406 . S
C216 C217 1.391 . S
C217 H189 0.931 . S
C217 C212 1.370 . S
C217 C216 1.391 . S
C218 N187 1.435 . S
C218 C219 1.358 . S
C218 C223 1.371 . S
C219 H191 0.930 . S
C219 C218 1.358 . S
C219 C220 1.405 . S
C220 H192 0.932 . S
C220 C219 1.405 . S
C220 C221 1.383 . S
C221 C220 1.383 . S
C221 C222 1.393 . S
C222 H194 0.931 . S
C222 C221 1.393 . S
C222 C223 1.382 . S
C223 H193 0.929 . S
C223 C218 1.371 . S
C223 C222 1.382 . S
C224 N187 1.423 . S
C224 C225 1.362 . S
C224 C229 1.388 . S
C225 H195 0.929 . S
C225 C224 1.362 . S
C225 C226 1.376 . S
C226 H197 0.931 . S
C226 C225 1.376 . S
C226 C227 1.396 . S
C227 C226 1.396 . S
C227 C228 1.348 . S
C227 C245 1.472 1_565 S
C228 H198 0.929 . S
C228 C227 1.348 . S
C228 C229 1.443 . S
C229 H196 0.932 . S
C229 C224 1.388 . S
C229 C228 1.443 . S
C230 N210 1.433 . S
C230 C231 1.363 . S
C230 C235 1.370 . S
C231 H199 0.929 . S
C231 C230 1.363 . S
C231 C232 1.385 . S
C232 H200 0.930 . S
C232 C231 1.385 . S
C232 C233 1.357 . S
C233 C232 1.357 . S
C233 C234 1.406 . S
C234 H201 0.929 . S
C234 C233 1.406 . S
C234 C235 1.391 . S
C235 H202 0.931 . S
C235 C230 1.370 . S
C235 C234 1.391 . S
C236 N210 1.435 . S
C236 C237 1.358 . S
C236 C241 1.371 . S
C237 H203 0.930 . S
C237 C236 1.358 . S
C237 C238 1.405 . S
C238 H204 0.932 . S
C238 C237 1.405 . S
C238 C239 1.383 . S
C239 C238 1.383 . S
C239 C240 1.393 . S
C240 H205 0.931 . S
C240 C239 1.393 . S
C240 C241 1.382 . S
C241 H206 0.929 . S
C241 C236 1.371 . S
C241 C240 1.382 . S
C242 N210 1.423 . S
C242 C243 1.362 . S
C242 C247 1.388 . S
C243 H207 0.929 . S
C243 C242 1.362 . S
C243 C244 1.376 . S
C244 H208 0.901 1_545 S
C244 C243 1.376 . S
C244 C245 1.396 . S
C245 C227 1.472 1_545 S
C245 C244 1.396 . S
C245 C246 1.348 . S
C246 H209 0.929 . S
C246 C245 1.348 . S
C246 C247 1.443 . S
C247 H211 0.932 . S
C247 C242 1.388 . S
C247 C246 1.443 . S
H248 C275 0.929 . S
N249 C274 1.433 . S
N249 C280 1.435 . S
N249 C286 1.423 . S
H250 C276 0.930 . S
H251 C279 0.931 . S
H252 C278 0.929 . S
H253 C281 0.930 . S
H254 C282 0.932 . S
H255 C285 0.929 . S
H256 C284 0.931 1_554 S
H257 C287 0.929 . S
H258 C291 0.932 . S
H259 C288 0.931 . S
H260 C290 0.929 . S
H261 C293 0.929 . S
H262 C294 0.930 . S
H263 C296 0.929 . S
H264 C297 0.931 . S
H265 C299 0.930 . S
H266 C300 0.932 . S
H267 C302 0.931 . S
H268 C303 0.929 . S
H269 C305 0.929 . S
H270 C306 0.931 1_455 S
H271 C308 0.929 . S
N272 C292 1.433 . S
N272 C298 1.435 . S
N272 C304 1.423 . S
H273 C309 0.932 . S
C274 N249 1.433 . S
C274 C275 1.363 . S
C274 C279 1.370 . S
C275 H248 0.929 . S
C275 C274 1.363 . S
C275 C276 1.385 . S
C276 H250 0.930 . S
C276 C275 1.385 . S
C276 C277 1.357 . S
C277 C276 1.357 . S
C277 C278 1.406 . S
C278 H252 0.929 . S
C278 C277 1.406 . S
C278 C279 1.391 . S
C279 H251 0.931 . S
C279 C274 1.370 . S
C279 C278 1.391 . S
C280 N249 1.435 . S
C280 C281 1.358 . S
C280 C285 1.371 . S
C281 H253 0.930 . S
C281 C280 1.358 . S
C281 C282 1.405 . S
C282 H254 0.932 . S
C282 C281 1.405 . S
C282 C283 1.383 . S
C283 C282 1.383 . S
C283 C284 1.393 . S
C284 H256 0.931 1_556 S
C284 C283 1.393 . S
C284 C285 1.382 . S
C285 H255 0.929 . S
C285 C280 1.371 . S
C285 C284 1.382 . S
C286 N249 1.423 . S
C286 C287 1.362 . S
C286 C291 1.388 . S
C287 H257 0.929 . S
C287 C286 1.362 . S
C287 C288 1.376 . S
C288 H259 0.931 . S
C288 C287 1.376 . S
C288 C289 1.396 . S
C289 C288 1.396 . S
C289 C290 1.348 . S
C289 C307 1.472 . S
C290 H260 0.929 . S
C290 C289 1.348 . S
C290 C291 1.443 . S
C291 H258 0.932 . S
C291 C286 1.388 . S
C291 C290 1.443 . S
C292 N272 1.433 . S
C292 C293 1.363 . S
C292 C297 1.370 . S
C293 H261 0.929 . S
C293 C292 1.363 . S
C293 C294 1.385 . S
C294 H262 0.930 . S
C294 C293 1.385 . S
C294 C295 1.357 . S
C295 C294 1.357 . S
C295 C296 1.406 . S
C296 H263 0.929 . S
C296 C295 1.406 . S
C296 C297 1.391 . S
C297 H264 0.931 . S
C297 C292 1.370 . S
C297 C296 1.391 . S
C298 N272 1.435 . S
C298 C299 1.358 . S
C298 C303 1.371 . S
C299 H265 0.930 . S
C299 C298 1.358 . S
C299 C300 1.405 . S
C300 H266 0.932 . S
C300 C299 1.405 . S
C300 C301 1.383 . S
C301 C300 1.383 . S
C301 C302 1.393 . S
C302 H267 0.931 . S
C302 C301 1.393 . S
C302 C303 1.382 . S
C303 H268 0.929 . S
C303 C298 1.371 . S
C303 C302 1.382 . S
C304 N272 1.423 . S
C304 C305 1.362 . S
C304 C309 1.388 . S
C305 H269 0.929 . S
C305 C304 1.362 . S
C305 C306 1.376 . S
C306 H270 0.931 1_655 S
C306 C305 1.376 . S
C306 C307 1.396 1_655 S
C307 C289 1.472 . S
C307 C306 1.396 1_455 S
C307 C308 1.348 1_455 S
C308 H271 0.929 . S
C308 C307 1.348 1_655 S
C308 C309 1.443 . S
C309 H273 0.932 . S
C309 C304 1.388 . S
C309 C308 1.443 . S
H310 C337 0.929 . S
N311 C336 1.433 . S
N311 C342 1.435 . S
N311 C348 1.423 . S
H312 C338 0.930 . S
H313 C341 0.931 . S
H314 C340 0.929 . S
H315 C343 0.930 . S
H316 C344 0.932 . S
H317 C347 0.929 . S
H318 C346 0.931 . S
H319 C349 0.929 . S
H320 C353 0.932 . S
H321 C350 0.931 . S
H322 C352 0.929 . S
H323 C355 0.929 . S
H324 C356 0.930 . S
H325 C358 0.929 . S
H326 C359 0.931 . S
H327 C361 0.930 . S
H328 C362 0.932 . S
H329 C364 0.931 . S
H330 C365 0.929 . S
H331 C367 0.929 . S
H332 C368 0.931 . S
H333 C370 0.929 . S
N334 C354 1.433 . S
N334 C360 1.435 . S
N334 C366 1.423 . S
H335 C371 0.932 . S
C336 N311 1.433 . S
C336 C337 1.363 . S
C336 C341 1.370 . S
C337 H310 0.929 . S
C337 C336 1.363 . S
C337 C338 1.385 . S
C338 H312 0.930 . S
C338 C337 1.385 . S
C338 C339 1.357 . S
C339 C338 1.357 . S
C339 C340 1.406 . S
C340 H314 0.929 . S
C340 C339 1.406 . S
C340 C341 1.391 . S
C341 H313 0.931 . S
C341 C336 1.370 . S
C341 C340 1.391 . S
C342 N311 1.435 . S
C342 C343 1.358 . S
C342 C347 1.371 . S
C343 H315 0.930 . S
C343 C342 1.358 . S
C343 C344 1.405 . S
C344 H316 0.932 . S
C344 C343 1.405 . S
C344 C345 1.383 . S
C345 C344 1.383 . S
C345 C346 1.393 . S
C346 H318 0.931 . S
C346 C345 1.393 . S
C346 C347 1.382 . S
C347 H317 0.929 . S
C347 C342 1.371 . S
C347 C346 1.382 . S
C348 N311 1.423 . S
C348 C349 1.362 . S
C348 C353 1.388 . S
C349 H319 0.929 . S
C349 C348 1.362 . S
C349 C350 1.376 . S
C350 H321 0.931 . S
C350 C349 1.376 . S
C350 C351 1.396 . S
C351 C350 1.396 . S
C351 C352 1.348 . S
C351 C369 1.472 . S
C352 H322 0.929 . S
C352 C351 1.348 . S
C352 C353 1.443 . S
C353 H320 0.932 . S
C353 C348 1.388 . S
C353 C352 1.443 . S
C354 N334 1.433 . S
C354 C355 1.363 . S
C354 C359 1.370 . S
C355 H323 0.929 . S
C355 C354 1.363 . S
C355 C356 1.385 . S
C356 H324 0.930 . S
C356 C355 1.385 . S
C356 C357 1.357 . S
C357 C356 1.357 . S
C357 C358 1.406 . S
C358 H325 0.929 . S
C358 C357 1.406 . S
C358 C359 1.391 . S
C359 H326 0.931 . S
C359 C354 1.370 . S
C359 C358 1.391 . S
C360 N334 1.435 . S
C360 C361 1.358 . S
C360 C365 1.371 . S
C361 H327 0.930 . S
C361 C360 1.358 . S
C361 C362 1.405 . S
C362 H328 0.932 . S
C362 C361 1.405 . S
C362 C363 1.383 . S
C363 C362 1.383 . S
C363 C364 1.393 . S
C364 H329 0.931 . S
C364 C363 1.393 . S
C364 C365 1.382 . S
C365 H330 0.929 . S
C365 C360 1.371 . S
C365 C364 1.382 . S
C366 N334 1.423 . S
C366 C367 1.362 . S
C366 C371 1.388 . S
C367 H331 0.929 . S
C367 C366 1.362 . S
C367 C368 1.376 . S
C368 H332 0.931 . S
C368 C367 1.376 . S
C368 C369 1.396 . S
C369 C351 1.472 . S
C369 C368 1.396 . S
C369 C370 1.348 . S
C370 H333 0.929 . S
C370 C369 1.348 . S
C370 C371 1.443 . S
C371 H335 0.932 . S
C371 C366 1.388 . S
C371 C370 1.443 . S
H372 C399 0.929 . S
N373 C398 1.433 . S
N373 C404 1.435 . S
N373 C410 1.423 . S
H374 C400 0.930 . S
H375 C403 0.931 . S
H376 C402 0.929 . S
H377 C405 0.930 . S
H378 C406 0.932 . S
H379 C409 0.929 . S
H380 C408 0.931 . S
H381 C411 0.929 . S
H382 C415 0.932 . S
H383 C412 0.931 . S
H384 C414 0.929 . S
H385 C417 0.929 . S
H386 C418 0.930 . S
H387 C420 0.929 . S
H388 C421 0.931 . S
H389 C423 0.930 . S
H390 C424 0.932 . S
H391 C426 0.931 . S
H392 C427 0.929 . S
H393 C429 0.929 . S
H394 C430 0.931 . S
H395 C432 0.929 . S
N396 C416 1.433 . S
N396 C422 1.435 . S
N396 C428 1.423 . S
H397 C433 0.932 . S
C398 N373 1.433 . S
C398 C399 1.363 . S
C398 C403 1.370 . S
C399 H372 0.929 . S
C399 C398 1.363 . S
C399 C400 1.385 . S
C400 H374 0.930 . S
C400 C399 1.385 . S
C400 C401 1.357 . S
C401 C400 1.357 . S
C401 C402 1.406 . S
C402 H376 0.929 . S
C402 C401 1.406 . S
C402 C403 1.391 . S
C403 H375 0.931 . S
C403 C398 1.370 . S
C403 C402 1.391 . S
C404 N373 1.435 . S
C404 C405 1.358 . S
C404 C409 1.371 . S
C405 H377 0.930 . S
C405 C404 1.358 . S
C405 C406 1.405 . S
C406 H378 0.932 . S
C406 C405 1.405 . S
C406 C407 1.383 . S
C407 C406 1.383 . S
C407 C408 1.393 . S
C408 H380 0.931 . S
C408 C407 1.393 . S
C408 C409 1.382 . S
C409 H379 0.929 . S
C409 C404 1.371 . S
C409 C408 1.382 . S
C410 N373 1.423 . S
C410 C411 1.362 1_565 S
C410 C415 1.388 . S
C411 H381 0.929 . S
C411 C410 1.362 1_545 S
C411 C412 1.376 . S
C412 H383 0.931 . S
C412 C411 1.376 . S
C412 C413 1.396 . S
C413 C412 1.396 . S
C413 C414 1.348 1_545 S
C413 C431 1.472 . S
C414 H384 0.929 . S
C414 C413 1.348 1_565 S
C414 C415 1.443 . S
C415 H382 0.932 . S
C415 C410 1.388 . S
C415 C414 1.443 . S
C416 N396 1.433 . S
C416 C417 1.363 . S
C416 C421 1.370 . S
C417 H385 0.929 . S
C417 C416 1.363 . S
C417 C418 1.385 . S
C418 H386 0.930 . S
C418 C417 1.385 . S
C418 C419 1.357 . S
C419 C418 1.357 . S
C419 C420 1.406 . S
C420 H387 0.929 . S
C420 C419 1.406 . S
C420 C421 1.391 . S
C421 H388 0.931 . S
C421 C416 1.370 . S
C421 C420 1.391 . S
C422 N396 1.435 . S
C422 C423 1.358 . S
C422 C427 1.371 . S
C423 H389 0.930 . S
C423 C422 1.358 . S
C423 C424 1.405 . S
C424 H390 0.932 . S
C424 C423 1.405 . S
C424 C425 1.383 . S
C425 C424 1.383 . S
C425 C426 1.393 . S
C426 H391 0.931 . S
C426 C425 1.393 . S
C426 C427 1.382 . S
C427 H392 0.929 . S
C427 C422 1.371 . S
C427 C426 1.382 . S
C428 N396 1.423 . S
C428 C429 1.362 . S
C428 C433 1.388 . S
C429 H393 0.929 . S
C429 C428 1.362 . S
C429 C430 1.376 . S
C430 H394 0.931 . S
C430 C429 1.376 . S
C430 C431 1.396 . S
C431 C413 1.472 . S
C431 C430 1.396 . S
C431 C432 1.348 . S
C432 H395 0.929 . S
C432 C431 1.348 . S
C432 C433 1.443 . S
C433 H397 0.932 . S
C433 C428 1.388 . S
C433 C432 1.443 . S
H434 C461 0.929 . S
N435 C460 1.433 . S
N435 C466 1.435 . S
N435 C472 1.423 . S
H436 C462 0.930 . S
H437 C465 0.931 . S
H438 C464 0.929 . S
H439 C467 0.930 . S
H440 C468 0.932 . S
H441 C471 0.929 . S
H442 C470 0.931 . S
H443 C473 0.929 . S
H444 C477 0.932 . S
H445 C474 0.932 1_655 S
H446 C476 0.929 . S
H447 C479 0.929 . S
H448 C480 0.930 . S
H449 C482 0.929 . S
H450 C483 0.931 . S
H451 C485 0.930 . S
H452 C486 0.932 . S
H453 C488 0.931 . S
H454 C489 0.929 . S
H455 C491 0.929 . S
H456 C492 0.931 . S
H457 C494 0.954 . S
N458 C478 1.433 . S
N458 C484 1.435 . S
N458 C490 1.423 . S
H459 C495 0.932 . S
C460 N435 1.433 . S
C460 C461 1.363 . S
C460 C465 1.370 . S
C461 H434 0.929 . S
C461 C460 1.363 . S
C461 C462 1.385 . S
C462 H436 0.930 . S
C462 C461 1.385 . S
C462 C463 1.357 . S
C463 C462 1.357 . S
C463 C464 1.406 . S
C464 H438 0.929 . S
C464 C463 1.406 . S
C464 C465 1.391 . S
C465 H437 0.931 . S
C465 C460 1.370 . S
C465 C464 1.391 . S
C466 N435 1.435 . S
C466 C467 1.358 . S
C466 C471 1.371 . S
C467 H439 0.930 . S
C467 C466 1.358 . S
C467 C468 1.405 . S
C468 H440 0.932 . S
C468 C467 1.405 . S
C468 C469 1.383 . S
C469 C468 1.383 . S
C469 C470 1.393 . S
C470 H442 0.931 . S
C470 C469 1.393 . S
C470 C471 1.382 . S
C471 H441 0.929 . S
C471 C466 1.371 . S
C471 C470 1.382 . S
C472 N435 1.423 . S
C472 C473 1.362 . S
C472 C477 1.388 . S
C473 H443 0.929 . S
C473 C472 1.362 . S
C473 C474 1.376 . S
C474 H445 0.932 1_455 S
C474 C473 1.376 . S
C474 C475 1.396 1_565 S
C475 C474 1.396 1_545 S
C475 C476 1.348 . S
C475 C493 1.472 1_455 S
C476 H446 0.929 . S
C476 C475 1.348 . S
C476 C477 1.443 1_545 S
C477 H444 0.932 . S
C477 C472 1.388 . S
C477 C476 1.443 1_565 S
C478 N458 1.433 . S
C478 C479 1.363 . S
C478 C483 1.370 . S
C479 H447 0.929 . S
C479 C478 1.363 . S
C479 C480 1.385 . S
C480 H448 0.930 . S
C480 C479 1.385 . S
C480 C481 1.357 . S
C481 C480 1.357 . S
C481 C482 1.406 . S
C482 H449 0.929 . S
C482 C481 1.406 . S
C482 C483 1.391 . S
C483 H450 0.931 . S
C483 C478 1.370 . S
C483 C482 1.391 . S
C484 N458 1.435 . S
C484 C485 1.358 . S
C484 C489 1.371 . S
C485 H451 0.930 . S
C485 C484 1.358 . S
C485 C486 1.405 . S
C486 H452 0.932 . S
C486 C485 1.405 . S
C486 C487 1.383 . S
C487 C486 1.383 . S
C487 C488 1.393 . S
C488 H453 0.931 . S
C488 C487 1.393 . S
C488 C489 1.382 . S
C489 H454 0.929 . S
C489 C484 1.371 . S
C489 C488 1.382 . S
C490 N458 1.423 . S
C490 C491 1.362 . S
C490 C495 1.388 . S
C491 H455 0.929 . S
C491 C490 1.362 . S
C491 C492 1.376 . S
C492 H456 0.931 . S
C492 C491 1.376 . S
C492 C493 1.396 . S
C493 C475 1.472 1_655 S
C493 C492 1.396 . S
C493 C494 1.345 1_655 S
C494 H457 0.954 . S
C494 C493 1.345 1_455 S
C494 C495 1.423 1_455 S
C495 H459 0.932 . S
C495 C490 1.388 . S
C495 C494 1.423 1_655 S
Zn496 O499 2.031 . S
Zn496 O501 2.049 . S
Zn496 O506 2.067 . S
Zn497 O498 1.962 . S
Zn497 O500 1.986 . S
Zn497 O502 1.996 . S
Zn497 O505 1.994 . S
O498 Zn497 1.962 . S
O498 C503 1.254 . S
O499 Zn496 2.031 . S
O499 C503 1.269 1_556 S
O500 Zn497 1.986 . S
O500 C507 1.262 . S
O501 Zn496 2.049 . S
O501 C509 1.260 1_556 S
O502 Zn497 1.996 . S
O502 C509 1.257 . S
C503 O498 1.254 . S
C503 O499 1.269 1_554 S
C504 O505 1.187 1_556 S
C504 O506 1.270 . S
O505 Zn497 1.994 . S
O505 C504 1.187 1_554 S
O506 Zn496 2.067 . S
O506 C504 1.270 . S
C507 O500 1.262 . S
C507 O508 1.232 . S
O508 C507 1.232 . S
C509 O501 1.260 1_554 S
C509 O502 1.257 . S
Zn510 O513 2.031 . S
Zn510 O515 2.049 . S
Zn510 O520 2.067 . S
Zn511 O512 1.962 . S
Zn511 O514 1.986 . S
Zn511 O516 1.996 . S
Zn511 O519 1.943 . S
O512 Zn511 1.962 . S
O512 C517 1.254 . S
O513 Zn510 2.031 . S
O513 C517 1.269 . S
O514 Zn511 1.986 . S
O514 C521 1.262 . S
O515 Zn510 2.049 . S
O515 C523 1.260 . S
O516 Zn511 1.996 . S
O516 C523 1.257 . S
C517 O512 1.254 . S
C517 O513 1.269 . S
C518 O519 1.249 . S
C518 O520 1.270 . S
O519 Zn511 1.943 . S
O519 C518 1.249 . S
O520 Zn510 2.067 . S
O520 C518 1.270 . S
C521 O514 1.262 . S
C521 O522 1.232 . S
O522 C521 1.232 . S
C523 O515 1.260 . S
C523 O516 1.257 . S
Zn524 O527 2.031 . S
Zn524 O529 2.049 . S
Zn524 O534 2.067 . S
Zn525 O526 1.962 . S
Zn525 O528 1.986 . S
Zn525 O530 1.996 . S
Zn525 O533 1.943 . S
O526 Zn525 1.962 . S
O526 C531 1.254 . S
O527 Zn524 2.031 . S
O527 C531 1.269 . S
O528 Zn525 1.986 . S
O528 C535 1.262 . S
O529 Zn524 2.049 . S
O529 C537 1.260 . S
O530 Zn525 1.996 . S
O530 C537 1.257 . S
C531 O526 1.254 . S
C531 O527 1.269 . S
C532 O533 1.249 . S
C532 O534 1.270 . S
O533 Zn525 1.943 . S
O533 C532 1.249 . S
O534 Zn524 2.067 . S
O534 C532 1.270 . S
C535 O528 1.262 . S
C535 O536 1.232 . S
O536 C535 1.232 . S
C537 O529 1.260 . S
C537 O530 1.257 . S
Zn538 O541 2.031 . S
Zn538 O543 2.049 . S
Zn538 O548 2.067 . S
Zn539 O540 1.962 . S
Zn539 O542 1.986 . S
Zn539 O544 1.996 . S
Zn539 O547 1.943 . S
O540 Zn539 1.962 . S
O540 C545 1.254 . S
O541 Zn538 2.031 . S
O541 C545 1.269 . S
O542 Zn539 1.986 . S
O542 C549 1.262 . S
O543 Zn538 2.049 . S
O543 C551 1.260 . S
O544 Zn539 1.996 . S
O544 C551 1.257 . S
C545 O540 1.254 . S
C545 O541 1.269 . S
C546 O547 1.249 . S
C546 O548 1.270 . S
O547 Zn539 1.943 . S
O547 C546 1.249 . S
O548 Zn538 2.067 . S
O548 C546 1.270 . S
C549 O542 1.262 . S
C549 O550 1.232 . S
O550 C549 1.232 . S
C551 O543 1.260 . S
C551 O544 1.257 . S
Zn552 O555 2.031 . S
Zn552 O557 2.049 . S
Zn552 O562 2.067 . S
Zn553 O554 1.962 . S
Zn553 O556 1.986 . S
Zn553 O558 1.996 . S
Zn553 O561 1.943 . S
O554 Zn553 1.962 . S
O554 C559 1.254 . S
O555 Zn552 2.031 . S
O555 C559 1.269 . S
O556 Zn553 1.986 . S
O556 C563 1.262 . S
O557 Zn552 2.049 . S
O557 C565 1.260 . S
O558 Zn553 1.996 . S
O558 C565 1.257 . S
C559 O554 1.254 . S
C559 O555 1.269 . S
C560 O561 1.249 . S
C560 O562 1.270 . S
O561 Zn553 1.943 . S
O561 C560 1.249 . S
O562 Zn552 2.067 . S
O562 C560 1.270 . S
C563 O556 1.262 . S
C563 O564 1.232 . S
O564 C563 1.232 . S
C565 O557 1.260 . S
C565 O558 1.257 . S
Zn566 O569 2.031 . S
Zn566 O571 2.049 . S
Zn566 O576 2.067 . S
Zn567 O568 1.962 . S
Zn567 O570 1.986 . S
Zn567 O572 1.996 . S
Zn567 O575 1.943 . S
O568 Zn567 1.962 . S
O568 C573 1.254 . S
O569 Zn566 2.031 . S
O569 C573 1.269 . S
O570 Zn567 1.986 . S
O570 C577 1.262 . S
O571 Zn566 2.049 . S
O571 C579 1.260 . S
O572 Zn567 1.996 . S
O572 C579 1.257 . S
C573 O568 1.254 . S
C573 O569 1.269 . S
C574 O575 1.249 . S
C574 O576 1.270 . S
O575 Zn567 1.943 . S
O575 C574 1.249 . S
O576 Zn566 2.067 . S
O576 C574 1.270 . S
C577 O570 1.262 . S
C577 O578 1.232 . S
O578 C577 1.232 . S
C579 O571 1.260 . S
C579 O572 1.257 . S
Zn580 O583 2.031 . S
Zn580 O585 2.049 . S
Zn580 O590 2.067 . S
Zn581 O582 1.962 . S
Zn581 O584 1.986 . S
Zn581 O586 1.996 . S
Zn581 O589 1.943 1_556 S
O582 Zn581 1.962 . S
O582 C587 1.254 1_556 S
O583 Zn580 2.031 . S
O583 C587 1.269 . S
O584 Zn581 1.986 . S
O584 C591 1.262 . S
O585 Zn580 2.049 . S
O585 C593 1.260 . S
O586 Zn581 1.996 . S
O586 C593 1.257 1_556 S
C587 O582 1.254 1_554 S
C587 O583 1.269 . S
C588 O589 1.249 . S
C588 O590 1.270 . S
O589 Zn581 1.943 1_554 S
O589 C588 1.249 . S
O590 Zn580 2.067 . S
O590 C588 1.270 . S
C591 O584 1.262 . S
C591 O592 1.232 . S
O592 C591 1.232 . S
C593 O585 1.260 . S
C593 O586 1.257 1_554 S
Zn594 O597 2.031 . S
Zn594 O599 2.049 . S
Zn594 O604 2.067 . S
Zn595 O596 1.962 . S
Zn595 O598 1.986 . S
Zn595 O600 1.996 . S
Zn595 O603 1.943 . S
O596 Zn595 1.962 . S
O596 C601 1.254 . S
O597 Zn594 2.031 . S
O597 C601 1.269 . S
O598 Zn595 1.986 . S
O598 C605 1.262 . S
O599 Zn594 2.049 . S
O599 C607 1.260 . S
O600 Zn595 1.996 . S
O600 C607 1.257 . S
C601 O596 1.254 . S
C601 O597 1.269 . S
C602 O603 1.249 . S
C602 O604 1.270 . S
O603 Zn595 1.943 . S
O603 C602 1.249 . S
O604 Zn594 2.067 . S
O604 C602 1.270 . S
C605 O598 1.262 . S
C605 O606 1.232 . S
O606 C605 1.232 . S
C607 O599 1.260 . S
C607 O600 1.257 . S
H608 C614 0.930 . S
H609 C618 0.930 . S
H610 C623 0.929 . S
H611 C621 0.929 . S
H612 C616 0.929 . S
H613 C622 0.929 . S
C614 H608 0.930 . S
C614 C615 1.367 . S
C614 C622 1.378 . S
C615 C614 1.367 . S
C615 C623 1.433 . S
C616 H612 0.929 . S
C616 C618 1.378 . S
C616 C620 1.350 . S
C617 C620 1.463 . S
C617 C622 1.350 . S
C617 N625 1.427 . S
C618 H609 0.930 . S
C618 C616 1.378 . S
C618 C619 1.367 . S
C619 C618 1.367 . S
C619 C621 1.433 . S
C620 C616 1.350 . S
C620 C617 1.463 . S
C620 N624 1.427 . S
C621 H611 0.929 . S
C621 C619 1.433 . S
C621 N624 1.384 . S
C622 H613 0.929 . S
C622 C614 1.378 . S
C622 C617 1.350 . S
C623 H610 0.929 . S
C623 C615 1.433 . S
C623 N625 1.384 . S
N624 C620 1.427 . S
N624 C621 1.384 . S
N625 C617 1.427 . S
N625 C623 1.384 . S
H626 C632 0.930 . S
H627 C636 0.930 . S
H628 C641 0.929 . S
H629 C639 0.929 . S
H630 C634 0.929 . S
H631 C640 0.929 . S
C632 H626 0.930 . S
C632 C633 1.367 . S
C632 C640 1.378 . S
C633 C632 1.367 . S
C633 C641 1.433 . S
C634 H630 0.929 . S
C634 C636 1.378 . S
C634 C638 1.350 . S
C635 C638 1.463 . S
C635 C640 1.350 . S
C635 N643 1.427 . S
C636 H627 0.930 . S
C636 C634 1.378 . S
C636 C637 1.367 . S
C637 C636 1.367 . S
C637 C639 1.433 . S
C638 C634 1.350 . S
C638 C635 1.463 . S
C638 N642 1.427 . S
C639 H629 0.929 . S
C639 C637 1.433 . S
C639 N642 1.384 . S
C640 H631 0.929 . S
C640 C632 1.378 . S
C640 C635 1.350 . S
C641 H628 0.929 . S
C641 C633 1.433 . S
C641 N643 1.384 . S
N642 C638 1.427 . S
N642 C639 1.384 . S
N643 C635 1.427 . S
N643 C641 1.384 . S
H644 C650 0.930 . S
H645 C654 0.930 . S
H646 C659 0.929 . S
H647 C657 0.929 . S
H648 C652 0.929 . S
H649 C658 0.929 . S
C650 H644 0.930 . S
C650 C651 1.367 . S
C650 C658 1.378 . S
C651 C650 1.367 . S
C651 C659 1.433 . S
C652 H648 0.929 . S
C652 C654 1.378 . S
C652 C656 1.350 . S
C653 C656 1.463 . S
C653 C658 1.350 . S
C653 N661 1.427 . S
C654 H645 0.930 . S
C654 C652 1.378 . S
C654 C655 1.367 . S
C655 C654 1.367 . S
C655 C657 1.433 . S
C656 C652 1.350 . S
C656 C653 1.463 . S
C656 N660 1.427 . S
C657 H647 0.929 . S
C657 C655 1.433 . S
C657 N660 1.384 . S
C658 H649 0.929 . S
C658 C650 1.378 . S
C658 C653 1.350 . S
C659 H646 0.929 . S
C659 C651 1.433 . S
C659 N661 1.384 . S
N660 C656 1.427 . S
N660 C657 1.384 . S
N661 C653 1.427 . S
N661 C659 1.384 . S
H662 C668 0.930 . S
H663 C672 0.930 . S
H664 C677 0.929 . S
H665 C675 0.929 . S
H666 C670 0.929 . S
H667 C676 0.929 . S
C668 H662 0.930 . S
C668 C669 1.367 . S
C668 C676 1.378 . S
C669 C668 1.367 . S
C669 C677 1.433 . S
C670 H666 0.929 . S
C670 C672 1.378 . S
C670 C674 1.350 . S
C671 C674 1.463 . S
C671 C676 1.350 . S
C671 N679 1.427 . S
C672 H663 0.930 . S
C672 C670 1.378 . S
C672 C673 1.367 . S
C673 C672 1.367 . S
C673 C675 1.433 . S
C674 C670 1.350 . S
C674 C671 1.463 . S
C674 N678 1.427 . S
C675 H665 0.929 . S
C675 C673 1.433 . S
C675 N678 1.384 . S
C676 H667 0.929 . S
C676 C668 1.378 . S
C676 C671 1.350 . S
C677 H664 0.929 . S
C677 C669 1.433 . S
C677 N679 1.384 . S
N678 C674 1.427 . S
N678 C675 1.384 . S
N679 C671 1.427 . S
N679 C677 1.384 . S
H680 C686 0.930 . S
H681 C690 0.930 . S
H682 C695 0.929 . S
H683 C693 0.929 . S
H684 C688 0.929 . S
H685 C694 0.929 . S
C686 H680 0.930 . S
C686 C687 1.367 . S
C686 C694 1.378 . S
C687 C686 1.367 . S
C687 C695 1.433 1_554 S
C688 H684 0.929 . S
C688 C690 1.378 . S
C688 C692 1.350 1_556 S
C689 C692 1.463 . S
C689 C694 1.350 . S
C689 N697 1.427 1_554 S
C690 H681 0.930 . S
C690 C688 1.378 . S
C690 C691 1.367 1_556 S
C691 C690 1.367 1_554 S
C691 C693 1.433 . S
C692 C688 1.350 1_554 S
C692 C689 1.463 . S
C692 N696 1.427 . S
C693 H683 0.929 . S
C693 C691 1.433 . S
C693 N696 1.384 . S
C694 H685 0.929 . S
C694 C686 1.378 . S
C694 C689 1.350 . S
C695 H682 0.929 . S
C695 C687 1.433 1_556 S
C695 N697 1.384 . S
N696 C692 1.427 . S
N696 C693 1.384 . S
N697 C689 1.427 1_556 S
N697 C695 1.384 . S
H698 C704 0.930 . S
H699 C708 0.930 . S
H700 C713 0.929 . S
H701 C711 0.929 . S
H702 C706 0.929 . S
H703 C712 0.929 . S
C704 H698 0.930 . S
C704 C705 1.367 . S
C704 C712 1.378 . S
C705 C704 1.367 . S
C705 C713 1.433 . S
C706 H702 0.929 . S
C706 C708 1.378 . S
C706 C710 1.350 . S
C707 C710 1.463 . S
C707 C712 1.350 . S
C707 N715 1.427 . S
C708 H699 0.930 . S
C708 C706 1.378 . S
C708 C709 1.367 . S
C709 C708 1.367 . S
C709 C711 1.433 . S
C710 C706 1.350 . S
C710 C707 1.463 . S
C710 N714 1.427 . S
C711 H701 0.929 . S
C711 C709 1.433 . S
C711 N714 1.384 . S
C712 H703 0.929 . S
C712 C704 1.378 . S
C712 C707 1.350 . S
C713 H700 0.929 . S
C713 C705 1.433 . S
C713 N715 1.384 . S
N714 C710 1.427 . S
N714 C711 1.384 . S
N715 C707 1.427 . S
N715 C713 1.384 . S
H716 C722 0.930 . S
H717 C726 0.930 . S
H718 C731 0.929 . S
H719 C729 0.929 . S
H720 C724 0.929 . S
H721 C730 0.929 . S
C722 H716 0.930 . S
C722 C723 1.367 . S
C722 C730 1.378 . S
C723 C722 1.367 . S
C723 C731 1.433 . S
C724 H720 0.929 . S
C724 C726 1.378 . S
C724 C728 1.350 . S
C725 C728 1.463 . S
C725 C730 1.350 . S
C725 N733 1.427 . S
C726 H717 0.930 . S
C726 C724 1.378 . S
C726 C727 1.367 . S
C727 C726 1.367 . S
C727 C729 1.433 . S
C728 C724 1.350 . S
C728 C725 1.463 . S
C728 N732 1.427 . S
C729 H719 0.929 . S
C729 C727 1.433 . S
C729 N732 1.384 . S
C730 H721 0.929 . S
C730 C722 1.378 . S
C730 C725 1.350 . S
C731 H718 0.929 . S
C731 C723 1.433 . S
C731 N733 1.384 . S
N732 C728 1.427 . S
N732 C729 1.384 . S
N733 C725 1.427 . S
N733 C731 1.384 . S
H734 C740 0.930 . S
H735 C744 0.930 . S
H736 C749 0.929 . S
H737 C747 0.929 . S
H738 C742 0.929 . S
H739 C748 0.929 . S
C740 H734 0.930 . S
C740 C741 1.367 . S
C740 C748 1.378 . S
C741 C740 1.367 . S
C741 C749 1.433 . S
C742 H738 0.929 . S
C742 C744 1.378 . S
C742 C746 1.350 . S
C743 C746 1.463 . S
C743 C748 1.350 . S
C743 N751 1.427 . S
C744 H735 0.930 . S
C744 C742 1.378 . S
C744 C745 1.367 . S
C745 C744 1.367 . S
C745 C747 1.433 . S
C746 C742 1.350 . S
C746 C743 1.463 . S
C746 N750 1.427 . S
C747 H737 0.929 . S
C747 C745 1.433 . S
C747 N750 1.384 . S
C748 H739 0.929 . S
C748 C740 1.378 . S
C748 C743 1.350 . S
C749 H736 0.929 . S
C749 C741 1.433 . S
C749 N751 1.384 . S
N750 C746 1.427 . S
N750 C747 1.384 . S
N751 C743 1.427 . S
N751 C749 1.384 . S
H752 C758 0.930 . S
H753 C762 0.930 . S
H754 C767 0.929 . S
H755 C765 0.929 . S
H756 C760 0.929 . S
H757 C766 0.929 . S
C758 H752 0.930 . S
C758 C759 1.367 . S
C758 C766 1.378 . S
C759 C758 1.367 . S
C759 C767 1.433 . S
C760 H756 0.929 . S
C760 C762 1.378 . S
C760 C764 1.350 . S
C761 C764 1.463 . S
C761 C766 1.350 . S
C761 N769 1.427 . S
C762 H753 0.930 . S
C762 C760 1.378 . S
C762 C763 1.367 . S
C763 C762 1.367 . S
C763 C765 1.433 . S
C764 C760 1.350 . S
C764 C761 1.463 . S
C764 N768 1.427 . S
C765 H755 0.929 . S
C765 C763 1.433 . S
C765 N768 1.384 . S
C766 H757 0.929 . S
C766 C758 1.378 . S
C766 C761 1.350 . S
C767 H754 0.929 . S
C767 C759 1.433 . S
C767 N769 1.384 . S
N768 C764 1.427 . S
N768 C765 1.384 . S
N769 C761 1.427 . S
N769 C767 1.384 . S
H770 C776 0.921 1_556 S
H771 C780 0.930 . S
H772 C785 0.929 . S
H773 C783 0.929 . S
H774 C778 0.929 . S
H775 C784 0.983 . S
C776 H770 0.921 1_554 S
C776 C777 1.377 . S
C776 C784 1.372 1_554 S
C777 C776 1.377 . S
C777 C785 1.433 . S
C778 H774 0.929 . S
C778 C780 1.378 . S
C778 C782 1.350 . S
C779 C782 1.463 . S
C779 C784 1.304 1_554 S
C779 N787 1.427 . S
C780 H771 0.930 . S
C780 C778 1.378 . S
C780 C781 1.367 . S
C781 C780 1.367 . S
C781 C783 1.433 1_554 S
C782 C778 1.350 . S
C782 C779 1.463 . S
C782 N786 1.427 1_554 S
C783 H773 0.929 . S
C783 C781 1.433 1_556 S
C783 N786 1.384 . S
C784 H775 0.983 . S
C784 C776 1.372 1_556 S
C784 C779 1.304 1_556 S
C785 H772 0.929 . S
C785 C777 1.433 . S
C785 N787 1.384 . S
N786 C782 1.427 1_556 S
N786 C783 1.384 . S
N787 C779 1.427 . S
N787 C785 1.384 . S
H788 C794 0.930 . S
H789 C798 0.930 . S
H790 C803 0.929 . S
H791 C801 0.929 . S
H792 C796 0.929 . S
H793 C802 0.929 . S
C794 H788 0.930 . S
C794 C795 1.367 . S
C794 C802 1.378 . S
C795 C794 1.367 . S
C795 C803 1.433 . S
C796 H792 0.929 . S
C796 C798 1.378 . S
C796 C800 1.350 . S
C797 C800 1.463 . S
C797 C802 1.350 . S
C797 N805 1.427 . S
C798 H789 0.930 . S
C798 C796 1.378 . S
C798 C799 1.367 . S
C799 C798 1.367 . S
C799 C801 1.433 . S
C800 C796 1.350 . S
C800 C797 1.463 . S
C800 N804 1.427 . S
C801 H791 0.929 . S
C801 C799 1.433 . S
C801 N804 1.384 . S
C802 H793 0.929 . S
C802 C794 1.378 . S
C802 C797 1.350 . S
C803 H790 0.929 . S
C803 C795 1.433 . S
C803 N805 1.384 . S
N804 C800 1.427 . S
N804 C801 1.384 . S
N805 C797 1.427 . S
N805 C803 1.384 . S
H806 C812 0.930 . S
H807 C816 0.930 . S
H808 C821 0.929 . S
H809 C819 0.929 . S
H810 C814 0.929 . S
H811 C820 0.929 . S
C812 H806 0.930 . S
C812 C813 1.367 . S
C812 C820 1.378 . S
C813 C812 1.367 . S
C813 C821 1.433 . S
C814 H810 0.929 . S
C814 C816 1.378 . S
C814 C818 1.350 . S
C815 C818 1.463 . S
C815 C820 1.350 . S
C815 N823 1.427 . S
C816 H807 0.930 . S
C816 C814 1.378 . S
C816 C817 1.367 . S
C817 C816 1.367 . S
C817 C819 1.433 . S
C818 C814 1.350 . S
C818 C815 1.463 . S
C818 N822 1.427 . S
C819 H809 0.929 . S
C819 C817 1.433 . S
C819 N822 1.384 . S
C820 H811 0.929 . S
C820 C812 1.378 . S
C820 C815 1.350 . S
C821 H808 0.929 . S
C821 C813 1.433 . S
C821 N823 1.384 . S
N822 C818 1.427 . S
N822 C819 1.384 . S
N823 C815 1.427 . S
N823 C821 1.384 . S
H824 C830 0.930 . S
H825 C834 0.930 . S
H826 C839 0.929 . S
H827 C837 0.929 . S
H828 C832 0.929 . S
H829 C838 0.929 . S
C830 H824 0.930 . S
C830 C831 1.367 . S
C830 C838 1.378 . S
C831 C830 1.367 . S
C831 C839 1.433 . S
C832 H828 0.929 . S
C832 C834 1.378 . S
C832 C836 1.350 . S
C833 C836 1.463 . S
C833 C838 1.350 . S
C833 N841 1.427 . S
C834 H825 0.930 . S
C834 C832 1.378 . S
C834 C835 1.367 . S
C835 C834 1.367 . S
C835 C837 1.433 . S
C836 C832 1.350 . S
C836 C833 1.463 . S
C836 N840 1.427 . S
C837 H827 0.929 . S
C837 C835 1.433 . S
C837 N840 1.384 . S
C838 H829 0.929 . S
C838 C830 1.378 . S
C838 C833 1.350 . S
C839 H826 0.929 . S
C839 C831 1.433 . S
C839 N841 1.384 . S
N840 C836 1.427 . S
N840 C837 1.384 . S
N841 C833 1.427 . S
N841 C839 1.384 . S
H842 C848 0.930 . S
H843 C852 0.930 . S
H844 C857 0.929 . S
H845 C855 0.929 . S
H846 C850 0.929 . S
H847 C856 0.929 . S
C848 H842 0.930 . S
C848 C849 1.367 . S
C848 C856 1.378 . S
C849 C848 1.367 . S
C849 C857 1.433 . S
C850 H846 0.929 . S
C850 C852 1.378 . S
C850 C854 1.350 . S
C851 C854 1.463 . S
C851 C856 1.350 . S
C851 N859 1.427 . S
C852 H843 0.930 . S
C852 C850 1.378 . S
C852 C853 1.367 . S
C853 C852 1.367 . S
C853 C855 1.433 . S
C854 C850 1.350 . S
C854 C851 1.463 . S
C854 N858 1.427 . S
C855 H845 0.929 . S
C855 C853 1.433 . S
C855 N858 1.384 . S
C856 H847 0.929 . S
C856 C848 1.378 . S
C856 C851 1.350 . S
C857 H844 0.929 . S
C857 C849 1.433 . S
C857 N859 1.384 . S
N858 C854 1.427 . S
N858 C855 1.384 . S
N859 C851 1.427 . S
N859 C857 1.384 . S
H860 C866 0.930 . S
H861 C870 0.930 . S
H862 C875 0.929 . S
H863 C873 0.929 . S
H864 C868 0.929 . S
H865 C874 0.929 . S
C866 H860 0.930 . S
C866 C867 1.367 . S
C866 C874 1.378 . S
C867 C866 1.367 . S
C867 C875 1.433 1_556 S
C868 H864 0.929 . S
C868 C870 1.378 . S
C868 C872 1.350 1_554 S
C869 C872 1.463 . S
C869 C874 1.350 . S
C869 N877 1.427 1_556 S
C870 H861 0.930 . S
C870 C868 1.378 . S
C870 C871 1.367 1_554 S
C871 C870 1.367 1_556 S
C871 C873 1.433 . S
C872 C868 1.350 1_556 S
C872 C869 1.463 . S
C872 N876 1.427 . S
C873 H863 0.929 . S
C873 C871 1.433 . S
C873 N876 1.384 . S
C874 H865 0.929 . S
C874 C866 1.378 . S
C874 C869 1.350 . S
C875 H862 0.929 . S
C875 C867 1.433 1_554 S
C875 N877 1.384 . S
N876 C872 1.427 . S
N876 C873 1.384 . S
N877 C869 1.427 1_554 S
N877 C875 1.384 . S
H878 C884 0.930 . S
H879 C888 0.930 . S
H880 C893 0.929 . S
H881 C891 0.929 . S
H882 C886 0.929 . S
H883 C892 0.929 . S
C884 H878 0.930 . S
C884 C885 1.367 . S
C884 C892 1.378 . S
C885 C884 1.367 . S
C885 C893 1.433 . S
C886 H882 0.929 . S
C886 C888 1.378 . S
C886 C890 1.350 . S
C887 C890 1.463 . S
C887 C892 1.350 . S
C887 N895 1.427 . S
C888 H879 0.930 . S
C888 C886 1.378 . S
C888 C889 1.367 . S
C889 C888 1.367 . S
C889 C891 1.433 . S
C890 C886 1.350 . S
C890 C887 1.463 . S
C890 N894 1.427 . S
C891 H881 0.929 . S
C891 C889 1.433 . S
C891 N894 1.384 . S
C892 H883 0.929 . S
C892 C884 1.378 . S
C892 C887 1.350 . S
C893 H880 0.929 . S
C893 C885 1.433 . S
C893 N895 1.384 . S
N894 C890 1.427 . S
N894 C891 1.384 . S
N895 C887 1.427 . S
N895 C893 1.384 . S
H896 C902 0.930 . S
H897 C906 0.930 . S
H898 C911 0.929 . S
H899 C909 0.929 . S
H900 C904 0.929 . S
H901 C910 0.929 . S
C902 H896 0.930 . S
C902 C903 1.367 . S
C902 C910 1.378 . S
C903 C902 1.367 . S
C903 C911 1.433 . S
C904 H900 0.929 . S
C904 C906 1.378 . S
C904 C908 1.350 . S
C905 C908 1.463 . S
C905 C910 1.350 . S
C905 N913 1.427 . S
C906 H897 0.930 . S
C906 C904 1.378 . S
C906 C907 1.367 . S
C907 C906 1.367 . S
C907 C909 1.433 . S
C908 C904 1.350 . S
C908 C905 1.463 . S
C908 N912 1.427 . S
C909 H899 0.929 . S
C909 C907 1.433 . S
C909 N912 1.384 . S
C910 H901 0.929 . S
C910 C902 1.378 . S
C910 C905 1.350 . S
C911 H898 0.929 . S
C911 C903 1.433 . S
C911 N913 1.384 . S
N912 C908 1.427 . S
N912 C909 1.384 . S
N913 C905 1.427 . S
N913 C911 1.384 . S
H914 C920 0.930 . S
H915 C924 0.930 . S
H916 C929 0.929 . S
H917 C927 0.929 . S
H918 C922 0.929 . S
H919 C928 0.929 . S
C920 H914 0.930 . S
C920 C921 1.367 . S
C920 C928 1.378 . S
C921 C920 1.367 . S
C921 C929 1.433 . S
C922 H918 0.929 . S
C922 C924 1.378 . S
C922 C926 1.350 . S
C923 C926 1.463 . S
C923 C928 1.350 . S
C923 N931 1.427 . S
C924 H915 0.930 . S
C924 C922 1.378 . S
C924 C925 1.367 . S
C925 C924 1.367 . S
C925 C927 1.433 . S
C926 C922 1.350 . S
C926 C923 1.463 . S
C926 N930 1.427 . S
C927 H917 0.929 . S
C927 C925 1.433 . S
C927 N930 1.384 . S
C928 H919 0.929 . S
C928 C920 1.378 . S
C928 C923 1.350 . S
C929 H916 0.929 . S
C929 C921 1.433 . S
C929 N931 1.384 . S
N930 C926 1.427 . S
N930 C927 1.384 . S
N931 C923 1.427 . S
N931 C929 1.384 . S
H932 C938 0.930 . S
H933 C942 0.930 . S
H934 C947 0.929 . S
H935 C945 0.929 . S
H936 C940 0.929 . S
H937 C946 0.929 . S
C938 H932 0.930 . S
C938 C939 1.367 . S
C938 C946 1.378 . S
C939 C938 1.367 . S
C939 C947 1.433 . S
C940 H936 0.929 . S
C940 C942 1.378 . S
C940 C944 1.350 . S
C941 C944 1.463 . S
C941 C946 1.350 . S
C941 N949 1.427 . S
C942 H933 0.930 . S
C942 C940 1.378 . S
C942 C943 1.367 . S
C943 C942 1.367 . S
C943 C945 1.433 . S
C944 C940 1.350 . S
C944 C941 1.463 . S
C944 N948 1.427 . S
C945 H935 0.929 . S
C945 C943 1.433 . S
C945 N948 1.384 . S
C946 H937 0.929 . S
C946 C938 1.378 . S
C946 C941 1.350 . S
C947 H934 0.929 . S
C947 C939 1.433 . S
C947 N949 1.384 . S
N948 C944 1.427 . S
N948 C945 1.384 . S
N949 C941 1.427 . S
N949 C947 1.384 . S
H950 C956 0.930 . S
H951 C960 0.930 . S
H952 C965 0.929 . S
H953 C963 0.929 . S
H954 C958 0.929 . S
H955 C964 0.929 . S
C956 H950 0.930 . S
C956 C957 1.367 . S
C956 C964 1.378 . S
C957 C956 1.367 . S
C957 C965 1.433 . S
C958 H954 0.929 . S
C958 C960 1.378 . S
C958 C962 1.350 . S
C959 C962 1.463 . S
C959 C964 1.350 . S
C959 N967 1.427 . S
C960 H951 0.930 . S
C960 C958 1.378 . S
C960 C961 1.367 . S
C961 C960 1.367 . S
C961 C963 1.433 . S
C962 C958 1.350 . S
C962 C959 1.463 . S
C962 N966 1.427 . S
C963 H953 0.929 . S
C963 C961 1.433 . S
C963 N966 1.384 . S
C964 H955 0.929 . S
C964 C956 1.378 . S
C964 C959 1.350 . S
C965 H952 0.929 . S
C965 C957 1.433 . S
C965 N967 1.384 . S
N966 C962 1.427 . S
N966 C963 1.384 . S
N967 C959 1.427 . S
N967 C965 1.384 . S
H968 C974 0.930 . S
H969 C978 0.930 . S
H970 C983 0.929 . S
H971 C981 0.929 . S
H972 C976 0.929 . S
H973 C982 0.929 . S
C974 H968 0.930 . S
C974 C975 1.367 . S
C974 C982 1.378 . S
C975 C974 1.367 . S
C975 C983 1.433 . S
C976 H972 0.929 . S
C976 C978 1.378 . S
C976 C980 1.350 . S
C977 C980 1.463 . S
C977 C982 1.350 . S
C977 N985 1.427 . S
C978 H969 0.930 . S
C978 C976 1.378 . S
C978 C979 1.367 . S
C979 C978 1.367 . S
C979 C981 1.433 . S
C980 C976 1.350 . S
C980 C977 1.463 . S
C980 N984 1.427 . S
C981 H971 0.929 . S
C981 C979 1.433 . S
C981 N984 1.384 . S
C982 H973 0.929 . S
C982 C974 1.378 . S
C982 C977 1.350 . S
C983 H970 0.929 . S
C983 C975 1.433 . S
C983 N985 1.384 . S
N984 C980 1.427 . S
N984 C981 1.384 . S
N985 C977 1.427 . S
N985 C983 1.384 . S
H986 C992 0.930 . S
H987 C996 0.930 . S
H988 C1001 0.929 . S
H989 C999 0.929 . S
H990 C994 0.929 . S
H991 C1000 0.929 . S
C992 H986 0.930 . S
C992 C993 1.367 . S
C992 C1000 1.378 . S
C993 C992 1.367 . S
C993 C1001 1.433 . S
C994 H990 0.929 . S
C994 C996 1.378 . S
C994 C998 1.350 . S
C995 C998 1.463 . S
C995 C1000 1.350 . S
C995 N1003 1.427 . S
C996 H987 0.930 . S
C996 C994 1.378 . S
C996 C997 1.367 . S
C997 C996 1.367 . S
C997 C999 1.433 . S
C998 C994 1.350 . S
C998 C995 1.463 . S
C998 N1002 1.427 . S
C999 H989 0.929 . S
C999 C997 1.433 . S
C999 N1002 1.384 . S
C1000 H991 0.929 . S
C1000 C992 1.378 . S
C1000 C995 1.350 . S
C1001 H988 0.929 . S
C1001 C993 1.433 . S
C1001 N1003 1.384 . S
N1002 C998 1.427 . S
N1002 C999 1.384 . S
N1003 C995 1.427 . S
N1003 C1001 1.384 . S
H1004 C1010 0.930 . S
H1005 C1014 0.930 . S
H1006 C1019 0.929 . S
H1007 C1017 0.929 . S
H1008 C1012 0.929 . S
H1009 C1018 0.929 . S
C1010 H1004 0.930 . S
C1010 C1011 1.367 . S
C1010 C1018 1.378 . S
C1011 C1010 1.367 . S
C1011 C1019 1.433 . S
C1012 H1008 0.929 . S
C1012 C1014 1.378 . S
C1012 C1016 1.350 . S
C1013 C1016 1.463 . S
C1013 C1018 1.350 . S
C1013 N1021 1.427 . S
C1014 H1005 0.930 . S
C1014 C1012 1.378 . S
C1014 C1015 1.367 . S
C1015 C1014 1.367 . S
C1015 C1017 1.433 . S
C1016 C1012 1.350 . S
C1016 C1013 1.463 . S
C1016 N1020 1.427 . S
C1017 H1007 0.929 . S
C1017 C1015 1.433 . S
C1017 N1020 1.384 . S
C1018 H1009 0.929 . S
C1018 C1010 1.378 . S
C1018 C1013 1.350 . S
C1019 H1006 0.929 . S
C1019 C1011 1.433 . S
C1019 N1021 1.384 . S
N1020 C1016 1.427 . S
N1020 C1017 1.384 . S
N1021 C1013 1.427 . S
N1021 C1019 1.384 . S
H1022 C1028 0.930 . S
H1023 C1032 0.930 . S
H1024 C1037 0.929 . S
H1025 C1035 0.929 . S
H1026 C1030 0.929 . S
H1027 C1036 0.929 . S
C1028 H1022 0.930 . S
C1028 C1029 1.367 . S
C1028 C1036 1.378 . S
C1029 C1028 1.367 . S
C1029 C1037 1.433 . S
C1030 H1026 0.929 . S
C1030 C1032 1.378 . S
C1030 C1034 1.350 . S
C1031 C1034 1.463 . S
C1031 C1036 1.350 . S
C1031 N1039 1.427 . S
C1032 H1023 0.930 . S
C1032 C1030 1.378 . S
C1032 C1033 1.367 . S
C1033 C1032 1.367 . S
C1033 C1035 1.433 . S
C1034 C1030 1.350 . S
C1034 C1031 1.463 . S
C1034 N1038 1.427 . S
C1035 H1025 0.929 . S
C1035 C1033 1.433 . S
C1035 N1038 1.384 . S
C1036 H1027 0.929 . S
C1036 C1028 1.378 . S
C1036 C1031 1.350 . S
C1037 H1024 0.929 . S
C1037 C1029 1.433 . S
C1037 N1039 1.384 . S
N1038 C1034 1.427 . S
N1038 C1035 1.384 . S
N1039 C1031 1.427 . S
N1039 C1037 1.384 . S
H1040 C1046 0.930 . S
H1041 C1050 0.930 . S
H1042 C1055 0.929 . S
H1043 C1053 0.929 . S
H1044 C1048 0.929 . S
H1045 C1054 0.929 . S
C1046 H1040 0.930 . S
C1046 C1047 1.367 . S
C1046 C1054 1.378 . S
C1047 C1046 1.367 . S
C1047 C1055 1.433 . S
C1048 H1044 0.929 . S
C1048 C1050 1.378 . S
C1048 C1052 1.350 . S
C1049 C1052 1.463 . S
C1049 C1054 1.350 . S
C1049 N1057 1.427 . S
C1050 H1041 0.930 . S
C1050 C1048 1.378 . S
C1050 C1051 1.367 . S
C1051 C1050 1.367 . S
C1051 C1053 1.433 . S
C1052 C1048 1.350 . S
C1052 C1049 1.463 . S
C1052 N1056 1.427 . S
C1053 H1043 0.929 . S
C1053 C1051 1.433 . S
C1053 N1056 1.384 . S
C1054 H1045 0.929 . S
C1054 C1046 1.378 . S
C1054 C1049 1.350 . S
C1055 H1042 0.929 . S
C1055 C1047 1.433 . S
C1055 N1057 1.384 . S
N1056 C1052 1.427 . S
N1056 C1053 1.384 . S
N1057 C1049 1.427 . S
N1057 C1055 1.384 . S
H1058 C1064 0.930 . S
H1059 C1068 0.930 . S
H1060 C1073 0.929 . S
H1061 C1071 0.929 . S
H1062 C1066 0.929 . S
H1063 C1072 0.929 . S
C1064 H1058 0.930 . S
C1064 C1065 1.367 . S
C1064 C1072 1.378 . S
C1065 C1064 1.367 . S
C1065 C1073 1.433 . S
C1066 H1062 0.929 . S
C1066 C1068 1.378 . S
C1066 C1070 1.350 . S
C1067 C1070 1.463 . S
C1067 C1072 1.350 . S
C1067 N1075 1.427 . S
C1068 H1059 0.930 . S
C1068 C1066 1.378 . S
C1068 C1069 1.367 . S
C1069 C1068 1.367 . S
C1069 C1071 1.433 . S
C1070 C1066 1.350 . S
C1070 C1067 1.463 . S
C1070 N1074 1.427 . S
C1071 H1061 0.929 . S
C1071 C1069 1.433 . S
C1071 N1074 1.384 . S
C1072 H1063 0.929 . S
C1072 C1064 1.378 . S
C1072 C1067 1.350 . S
C1073 H1060 0.929 . S
C1073 C1065 1.433 . S
C1073 N1075 1.384 . S
N1074 C1070 1.427 . S
N1074 C1071 1.384 . S
N1075 C1067 1.427 . S
N1075 C1073 1.384 . S
H1076 C1082 0.930 . S
H1077 C1086 0.930 . S
H1078 C1091 0.929 . S
H1079 C1089 0.929 . S
H1080 C1084 0.929 . S
H1081 C1090 0.929 . S
C1082 H1076 0.930 . S
C1082 C1083 1.367 . S
C1082 C1090 1.378 . S
C1083 C1082 1.367 . S
C1083 C1091 1.433 . S
C1084 H1080 0.929 . S
C1084 C1086 1.378 . S
C1084 C1088 1.350 . S
C1085 C1088 1.463 . S
C1085 C1090 1.350 . S
C1085 N1093 1.427 . S
C1086 H1077 0.930 . S
C1086 C1084 1.378 . S
C1086 C1087 1.367 . S
C1087 C1086 1.367 . S
C1087 C1089 1.433 . S
C1088 C1084 1.350 . S
C1088 C1085 1.463 . S
C1088 N1092 1.427 . S
C1089 H1079 0.929 . S
C1089 C1087 1.433 . S
C1089 N1092 1.384 . S
C1090 H1081 0.929 . S
C1090 C1082 1.378 . S
C1090 C1085 1.350 . S
C1091 H1078 0.929 . S
C1091 C1083 1.433 . S
C1091 N1093 1.384 . S
N1092 C1088 1.427 . S
N1092 C1089 1.384 . S
N1093 C1085 1.427 . S
N1093 C1091 1.384 . S
H1094 C1100 0.930 . S
H1095 C1104 0.930 . S
H1096 C1109 0.929 . S
H1097 C1107 0.929 . S
H1098 C1102 0.929 . S
H1099 C1108 0.929 . S
C1100 H1094 0.930 . S
C1100 C1101 1.367 . S
C1100 C1108 1.378 . S
C1101 C1100 1.367 . S
C1101 C1109 1.433 . S
C1102 H1098 0.929 . S
C1102 C1104 1.378 . S
C1102 C1106 1.350 . S
C1103 C1106 1.463 . S
C1103 C1108 1.350 . S
C1103 N1111 1.427 . S
C1104 H1095 0.930 . S
C1104 C1102 1.378 . S
C1104 C1105 1.367 . S
C1105 C1104 1.367 . S
C1105 C1107 1.433 . S
C1106 C1102 1.350 . S
C1106 C1103 1.463 . S
C1106 N1110 1.427 . S
C1107 H1097 0.929 . S
C1107 C1105 1.433 . S
C1107 N1110 1.384 . S
C1108 H1099 0.929 . S
C1108 C1100 1.378 . S
C1108 C1103 1.350 . S
C1109 H1096 0.929 . S
C1109 C1101 1.433 . S
C1109 N1111 1.384 . S
N1110 C1106 1.427 . S
N1110 C1107 1.384 . S
N1111 C1103 1.427 . S
N1111 C1109 1.384 . S
H1112 C1118 0.930 . S
H1113 C1122 0.930 . S
H1114 C1127 0.929 . S
H1115 C1125 0.929 . S
H1116 C1120 0.929 . S
H1117 C1126 0.929 . S
C1118 H1112 0.930 . S
C1118 C1119 1.367 . S
C1118 C1126 1.378 . S
C1119 C1118 1.367 . S
C1119 C1127 1.433 . S
C1120 H1116 0.929 . S
C1120 C1122 1.378 . S
C1120 C1124 1.350 . S
C1121 C1124 1.463 . S
C1121 C1126 1.350 . S
C1121 N1129 1.427 . S
C1122 H1113 0.930 . S
C1122 C1120 1.378 . S
C1122 C1123 1.367 . S
C1123 C1122 1.367 . S
C1123 C1125 1.433 . S
C1124 C1120 1.350 . S
C1124 C1121 1.463 . S
C1124 N1128 1.427 . S
C1125 H1115 0.929 . S
C1125 C1123 1.433 . S
C1125 N1128 1.384 . S
C1126 H1117 0.929 . S
C1126 C1118 1.378 . S
C1126 C1121 1.350 . S
C1127 H1114 0.929 . S
C1127 C1119 1.433 . S
C1127 N1129 1.384 . S
N1128 C1124 1.427 . S
N1128 C1125 1.384 . S
N1129 C1121 1.427 . S
N1129 C1127 1.384 . S
H1130 C1136 0.930 . S
H1131 C1140 0.930 . S
H1132 C1145 0.929 . S
H1133 C1143 0.929 . S
H1134 C1138 0.929 . S
H1135 C1144 0.929 . S
C1136 H1130 0.930 . S
C1136 C1137 1.367 . S
C1136 C1144 1.378 . S
C1137 C1136 1.367 . S
C1137 C1145 1.433 . S
C1138 H1134 0.929 . S
C1138 C1140 1.378 . S
C1138 C1142 1.350 . S
C1139 C1142 1.463 . S
C1139 C1144 1.350 . S
C1139 N1147 1.427 . S
C1140 H1131 0.930 . S
C1140 C1138 1.378 . S
C1140 C1141 1.367 . S
C1141 C1140 1.367 . S
C1141 C1143 1.433 . S
C1142 C1138 1.350 . S
C1142 C1139 1.463 . S
C1142 N1146 1.427 . S
C1143 H1133 0.929 . S
C1143 C1141 1.433 . S
C1143 N1146 1.384 . S
C1144 H1135 0.929 . S
C1144 C1136 1.378 . S
C1144 C1139 1.350 . S
C1145 H1132 0.929 . S
C1145 C1137 1.433 . S
C1145 N1147 1.384 . S
N1146 C1142 1.427 . S
N1146 C1143 1.384 . S
N1147 C1139 1.427 . S
N1147 C1145 1.384 . S
H1148 C1154 0.930 . S
H1149 C1158 0.930 . S
H1150 C1163 0.929 . S
H1151 C1161 0.929 . S
H1152 C1156 0.929 . S
H1153 C1162 0.929 . S
C1154 H1148 0.930 . S
C1154 C1155 1.367 . S
C1154 C1162 1.378 . S
C1155 C1154 1.367 . S
C1155 C1163 1.433 . S
C1156 H1152 0.929 . S
C1156 C1158 1.378 . S
C1156 C1160 1.350 . S
C1157 C1160 1.463 . S
C1157 C1162 1.350 . S
C1157 N1165 1.427 . S
C1158 H1149 0.930 . S
C1158 C1156 1.378 . S
C1158 C1159 1.367 . S
C1159 C1158 1.367 . S
C1159 C1161 1.433 . S
C1160 C1156 1.350 . S
C1160 C1157 1.463 . S
C1160 N1164 1.427 . S
C1161 H1151 0.929 . S
C1161 C1159 1.433 . S
C1161 N1164 1.384 . S
C1162 H1153 0.929 . S
C1162 C1154 1.378 . S
C1162 C1157 1.350 . S
C1163 H1150 0.929 . S
C1163 C1155 1.433 . S
C1163 N1165 1.384 . S
N1164 C1160 1.427 . S
N1164 C1161 1.384 . S
N1165 C1157 1.427 . S
N1165 C1163 1.384 . S
H1166 C1172 0.930 . S
H1167 C1176 0.930 . S
H1168 C1181 0.929 . S
H1169 C1179 0.929 . S
H1170 C1174 0.929 . S
H1171 C1180 0.929 . S
C1172 H1166 0.930 . S
C1172 C1173 1.367 . S
C1172 C1180 1.378 . S
C1173 C1172 1.367 . S
C1173 C1181 1.433 . S
C1174 H1170 0.929 . S
C1174 C1176 1.378 . S
C1174 C1178 1.350 . S
C1175 C1178 1.463 . S
C1175 C1180 1.350 . S
C1175 N1183 1.427 . S
C1176 H1167 0.930 . S
C1176 C1174 1.378 . S
C1176 C1177 1.367 . S
C1177 C1176 1.367 . S
C1177 C1179 1.433 . S
C1178 C1174 1.350 . S
C1178 C1175 1.463 . S
C1178 N1182 1.427 . S
C1179 H1169 0.929 . S
C1179 C1177 1.433 . S
C1179 N1182 1.384 . S
C1180 H1171 0.929 . S
C1180 C1172 1.378 . S
C1180 C1175 1.350 . S
C1181 H1168 0.929 . S
C1181 C1173 1.433 . S
C1181 N1183 1.384 . S
N1182 C1178 1.427 . S
N1182 C1179 1.384 . S
N1183 C1175 1.427 . S
N1183 C1181 1.384 . S
C619 C517 1.428 . S
C615 C35 1.289 . S
C637 C537 1.363 . S
C633 C115 1.285 . S
C655 C551 1.403 . S
C651 C177 1.333 . S
C669 C221 1.378 . S
C673 C509 1.473 . S
C687 C283 1.458 1_554 S
C691 C503 1.647 . S
C705 C363 1.425 . S
C709 C523 1.512 . S
C727 C531 1.465 . S
C723 C407 1.328 . S
C745 C545 1.590 . S
C741 C469 1.419 . S
C759 C159 1.416 . S
C763 C573 1.590 . S
C781 C587 1.462 . S
C777 C239 1.341 . S
C795 C53 1.424 . S
C799 C607 1.515 . S
C817 C559 1.645 . S
C813 C97 1.435 . S
C831 C425 1.380 . S
C835 C565 1.468 . S
C849 C487 1.332 . S
C853 C579 1.405 . S
C871 C593 1.361 1_556 S
C867 C301 1.287 . S
C885 C345 1.293 . S
C889 C601 1.432 . S
C907 C532 1.884 . S
C903 C29 1.874 . S
C925 C546 1.882 . S
C921 C109 1.826 . S
C939 C171 1.742 . S
C943 C504 1.813 . S
C957 C215 1.593 . S
C961 C521 1.627 . S
C975 C277 1.540 . S
C979 C549 1.563 . S
C997 C507 1.545 . S
C993 C357 1.488 . S
C1015 C518 1.798 . S
C1011 C401 1.786 . S
C1033 C535 1.630 . S
C1029 C463 1.604 . S
C1051 C591 1.628 . S
C1047 C153 1.601 . S
C1069 C602 1.797 . S
C1065 C233 1.754 . S
C1083 C47 1.483 . S
C1087 C563 1.545 . S
C1105 C577 1.562 . S
C1101 C91 1.533 . S
C1123 C605 1.626 . S
C1119 C419 1.554 . S
C1137 C481 1.751 . S
C1141 C560 1.810 . S
C1159 C574 1.883 . S
C1155 C295 1.820 . S
C1177 C588 1.885 . S
C1173 C339 1.871 . S
