# Generated by pormake.
# Topology pth, (4,4)-cn, num edge types: 1
# Building blocks:
#     Node 0, Type 0, BuildingBlock: NAHDIM_clean_sbu_0, # of connection points: 4
#     Node 1, Type 0, BuildingBlock: NAHDIM_clean_sbu_0, # of connection points: 4
#     Node 2, Type 0, BuildingBlock: NAHDIM_clean_sbu_0, # of connection points: 4
#     Node 3, Type 1, BuildingBlock: NAWXER_clean_linker_0, # of connection points: 4
#     Node 4, Type 1, BuildingBlock: NAWXER_clean_linker_0, # of connection points: 4
#     Node 5, Type 1, BuildingBlock: NAWXER_clean_linker_0, # of connection points: 4
#     Edge 6, Type (0, 1), BuildingBlock: ZUJKAS_clean_linker_0, # of connection points: 2
#     Edge 7, Type (0, 1), BuildingBlock: ZUJKAS_clean_linker_0, # of connection points: 2
#     Edge 8, Type (0, 1), BuildingBlock: ZUJKAS_clean_linker_0, # of connection points: 2
#     Edge 9, Type (0, 1), BuildingBlock: ZUJKAS_clean_linker_0, # of connection points: 2
#     Edge 10, Type (0, 1), BuildingBlock: ZUJKAS_clean_linker_0, # of connection points: 2
#     Edge 11, Type (0, 1), BuildingBlock: ZUJKAS_clean_linker_0, # of connection points: 2
#     Edge 12, Type (0, 1), BuildingBlock: ZUJKAS_clean_linker_0, # of connection points: 2
#     Edge 13, Type (0, 1), BuildingBlock: ZUJKAS_clean_linker_0, # of connection points: 2
#     Edge 14, Type (0, 1), BuildingBlock: ZUJKAS_clean_linker_0, # of connection points: 2
#     Edge 15, Type (0, 1), BuildingBlock: ZUJKAS_clean_linker_0, # of connection points: 2
#     Edge 16, Type (0, 1), BuildingBlock: ZUJKAS_clean_linker_0, # of connection points: 2
#     Edge 17, Type (0, 1), BuildingBlock: ZUJKAS_clean_linker_0, # of connection points: 2
# Relax obj value: 0.041
# Max RMSD: 0.165
# Mean RMSD: 0.085
data_MOF--net-pth--node1-NAHDIM_clean_sbu_0--node2-NAWXER_clean_linker_0--edge1-ZUJKAS_clean_linker_0
_symmetry_space_group_name_H-M    P1
_symmetry_Int_Tables_number       1
_symmetry_cell_setting            triclinic
loop_
_symmetry_equiv_pos_as_xyz
'x, y, z'
_cell_length_a     36.116026
_cell_length_b     36.319301
_cell_length_c     80.566142
_cell_angle_alpha  91.845651
_cell_angle_beta   90.036477
_cell_angle_gamma 120.47389
loop_
_atom_site_label
_atom_site_type_symbol
_atom_site_fract_x
_atom_site_fract_y
_atom_site_fract_z
_atom_type_partial_charge
C0 C 0.00713 0.97138 0.07002 0.0
O1 O 0.9708 0.97105 0.06818 0.0
O2 O 0.01834 0.0763 0.06688 0.0
Zn3 Zn 0.02968 0.04071 0.05037 0.0
O4 O 0.97866 0.00647 0.03509 0.0
C5 C 0.07279 0.10798 0.02945 0.0
O6 O 0.03644 0.10712 0.03204 0.0
O7 O 0.04039 -2e-05 0.06298 0.0
C8 C 0.98364 0.9889 0.02207 0.0
O9 O 0.02174 0.99407 0.0191 0.0
C10 C 0.9817 0.07239 0.06908 0.0
O11 O 0.94842 0.04322 0.06031 0.0
O12 O 0.07923 0.08081 0.03648 0.0
C13 C 0.08141 0.12661 0.34832 0.0
O14 O 0.08238 0.09353 0.34178 0.0
O15 O 0.04738 0.02647 0.36481 0.0
Zn16 Zn 0.06274 0.07959 0.37856 0.0
O17 O 0.01324 0.06914 0.3929 0.0
C18 C 0.14284 0.08708 0.38805 0.0
O19 O 0.14209 0.07561 0.37236 0.0
O20 O 0.07531 0.12812 0.36381 0.0
C21 C 0.99289 0.0354 0.40107 0.0
O22 O 0.00435 0.00637 0.40005 0.0
C23 C 0.01105 0.00316 0.35763 0.0
O24 O 0.9813 0.01364 0.35914 0.0
O25 O 0.11292 0.09273 0.39338 0.0
C26 C 0.09509 0.02364 0.69389 0.0
O27 O 0.10867 0.06251 0.69996 0.0
O28 O 0.98626 0.02482 0.69512 0.0
Zn29 Zn 0.01981 0.00974 0.71065 0.0
O30 O 0.05732 0.06012 0.72597 0.0
C31 C 0.94153 0.95742 0.72724 0.0
O32 O 0.93302 0.98533 0.72099 0.0
O33 O 0.05722 0.99408 0.69707 0.0
C34 C 0.04328 0.07925 0.73517 0.0
O35 O 0.00203 0.06602 0.7349 0.0
C36 C 0.00102 0.04759 0.68248 0.0
O37 O 0.04173 0.06397 0.67887 0.0
O38 O 0.97766 0.96061 0.72436 0.0
C39 C 0.96524 0.38972 0.24242 0.0
C40 C 0.00077 0.40584 0.25341 0.0
C41 C 0.95729 0.41756 0.23357 0.0
C42 C 0.98533 0.46197 0.23528 0.0
C43 C 0.02776 0.45031 0.25557 0.0
C44 C 0.02005 0.47807 0.24661 0.0
C45 C 0.97928 0.49219 0.22537 0.0
C46 C 0.00134 0.40906 0.18866 0.0
C47 C 0.96591 0.38463 0.17786 0.0
C48 C 0.00378 0.44263 0.1985 0.0
C49 C 0.97058 0.45199 0.19786 0.0
C50 C 0.93296 0.39445 0.17716 0.0
C51 C 0.93544 0.42798 0.187 0.0
C52 C 0.97284 0.48772 0.20795 0.0
C53 C 0.01567 0.66283 0.19006 0.0
C54 C 0.98671 0.65334 0.17673 0.0
C55 C 0.01103 0.63066 0.20039 0.0
C56 C 0.9771 0.58843 0.19768 0.0
C57 C 0.95282 0.61102 0.17403 0.0
C58 C 0.94827 0.57881 0.18434 0.0
C59 C 0.97373 0.55377 0.20789 0.0
C60 C 0.94668 0.63648 0.24202 0.0
C61 C 0.97563 0.65604 0.25552 0.0
C62 C 0.94722 0.60434 0.23221 0.0
C63 C 0.97723 0.59162 0.23552 0.0
C64 C 0.00501 0.64257 0.25901 0.0
C65 C 0.00572 0.61064 0.24913 0.0
C66 C 0.97773 0.5571 0.2254 0.0
H67 H 0.94346 0.35559 0.24076 0.0
H68 H 0.92945 0.40437 0.22532 0.0
H69 H 0.05551 0.46365 0.26388 0.0
H70 H 0.04192 0.51221 0.24823 0.0
H71 H 0.02762 0.40284 0.18925 0.0
H72 H 0.03175 0.46152 0.20649 0.0
H73 H 0.90508 0.376 0.16908 0.0
H74 H 0.90965 0.43494 0.18625 0.0
H75 H 0.04194 0.69516 0.19253 0.0
H76 H 0.03446 0.63871 0.2103 0.0
H77 H 0.93035 0.60262 0.16372 0.0
H78 H 0.92228 0.54633 0.18187 0.0
H79 H 0.92376 0.64618 0.23892 0.0
H80 H 0.92388 0.58922 0.22213 0.0
H81 H 0.02715 0.6563 0.26952 0.0
H82 H 0.02872 0.60093 0.2521 0.0
N83 N 0.98117 0.52658 0.23342 0.0
N84 N 0.97055 0.51878 0.19989 0.0
C85 C 0.66423 0.03742 0.5155 0.0
C86 C 0.6543 0.00373 0.50392 0.0
C87 C 0.6322 0.03691 0.52536 0.0
C88 C 0.58976 0.00258 0.52388 0.0
C89 C 0.61168 0.96961 0.50237 0.0
C90 C 0.57962 0.96923 0.51218 0.0
C91 C 0.55551 0.0019 0.53408 0.0
C92 C 0.64663 0.98921 0.56782 0.0
C93 C 0.66758 0.02359 0.57948 0.0
C94 C 0.61047 0.9828 0.55894 0.0
C95 C 0.59492 0.01099 0.5614 0.0
C96 C 0.65107 0.05092 0.58226 0.0
C97 C 0.615 0.04455 0.57335 0.0
C98 C 0.558 0.00612 0.55159 0.0
C99 C 0.38 0.96975 0.56845 0.0
C100 C 0.39023 -0.00219 0.58237 0.0
C101 C 0.41246 0.97154 0.55847 0.0
C102 C 0.45579 0.00175 0.5621 0.0
C103 C 0.43367 0.02752 0.58612 0.0
C104 C 0.46608 0.02933 0.57613 0.0
C105 C 0.49064 0.00346 0.55187 0.0
C106 C 0.42176 0.04469 0.51738 0.0
C107 C 0.40331 0.0185 0.503 0.0
C108 C 0.44859 0.03826 0.52787 0.0
C109 C 0.45712 0.00519 0.5243 0.0
C110 C 0.4115 0.98509 0.49956 0.0
C111 C 0.43835 0.97868 0.51007 0.0
C112 C 0.48917 0.0012 0.53431 0.0
H113 H 0.69682 0.06404 0.51701 0.0
H114 H 0.64053 0.06341 0.53408 0.0
H115 H 0.60298 0.94354 0.49338 0.0
H116 H 0.54693 0.94272 0.51074 0.0
H117 H 0.65858 0.96763 0.56536 0.0
H118 H 0.59486 0.95603 0.55007 0.0
H119 H 0.66591 0.07715 0.5914 0.0
H120 H 0.60325 0.06639 0.57558 0.0
H121 H 0.34687 0.94661 0.56518 0.0
H122 H 0.40367 0.949 0.548 0.0
H123 H 0.44271 0.04905 0.59693 0.0
H124 H 0.49928 0.05251 0.57932 0.0
H125 H 0.41679 0.0712 0.52022 0.0
H126 H 0.46387 0.06015 0.53844 0.0
H127 H 0.39741 0.96408 0.48868 0.0
H128 H 0.44486 0.95327 0.50698 0.0
N129 N 0.5213 -0.00023 0.52612 0.0
N130 N 0.52537 0.00652 0.55981 0.0
C131 C 0.37362 0.41306 0.85433 0.0
C132 C 0.35233 0.42282 0.84216 0.0
C133 C 0.40709 0.44565 0.86394 0.0
C134 C 0.41927 0.48855 0.86179 0.0
C135 C 0.36507 0.46581 0.83985 0.0
C136 C 0.39832 0.49837 0.84955 0.0
C137 C 0.45524 0.52354 0.87158 0.0
C138 C 0.35368 0.44315 0.9081 0.0
C139 C 0.36803 0.42535 0.91997 0.0
C140 C 0.38301 0.47548 0.89805 0.0
C141 C 0.42714 0.49012 0.89954 0.0
C142 C 0.41233 0.44087 0.92166 0.0
C143 C 0.44152 0.47296 0.91158 0.0
C144 C 0.45902 0.52406 0.88905 0.0
C145 C 0.60923 0.70054 0.90487 0.0
C146 C 0.62762 0.69077 0.91816 0.0
C147 C 0.57632 0.66783 0.89507 0.0
C148 C 0.56173 0.6248 0.89822 0.0
C149 C 0.61266 0.64769 0.92136 0.0
C150 C 0.57995 0.61508 0.91153 0.0
C151 C 0.52603 0.58961 0.88837 0.0
C152 C 0.63347 0.65468 0.85257 0.0
C153 C 0.62432 0.67166 0.83876 0.0
C154 C 0.60077 0.62804 0.86313 0.0
C155 C 0.55835 0.61846 0.8603 0.0
C156 C 0.58173 0.66168 0.83588 0.0
C157 C 0.54908 0.63523 0.84651 0.0
C158 C 0.52305 0.5883 0.87085 0.0
H159 H 0.36507 0.38027 0.85615 0.0
H160 H 0.42378 0.43734 0.87289 0.0
H161 H 0.34913 0.47426 0.8306 0.0
H162 H 0.40754 0.53128 0.84756 0.0
H163 H 0.31977 0.43186 0.90646 0.0
H164 H 0.37121 0.48901 0.88915 0.0
H165 H 0.42458 0.42858 0.93092 0.0
H166 H 0.47547 0.48416 0.91311 0.0
H167 H 0.61967 0.73344 0.90227 0.0
H168 H 0.56188 0.67619 0.88519 0.0
H169 H 0.62655 0.63915 0.93138 0.0
H170 H 0.56906 0.58214 0.91427 0.0
H171 H 0.66592 0.6619 0.85523 0.0
H172 H 0.60863 0.61436 0.87333 0.0
H173 H 0.57339 0.67354 0.82519 0.0
H174 H 0.51648 0.62767 0.84391 0.0
N175 N 0.48743 0.55566 0.86317 0.0
N176 N 0.49419 0.55715 0.89673 0.0
H177 H 0.90925 0.07588 0.07595 0.0
H178 H 0.9033 0.12696 0.09474 0.0
H179 H 0.03765 0.18553 0.10803 0.0
H180 H 0.04411 0.13513 0.08922 0.0
H181 H 0.92188 0.14449 0.12941 0.0
H182 H 0.02522 0.28545 0.09205 0.0
H183 H 0.00273 0.23121 0.08396 0.0
H184 H 0.04947 0.25469 0.09742 0.0
C185 C 0.93751 0.09958 0.08289 0.0
C186 C 0.97724 0.1017 0.08098 0.0
C187 C 0.93402 0.12866 0.09363 0.0
C188 C 0.9702 0.16035 0.10254 0.0
C189 C 0.00956 0.16178 0.10101 0.0
H190 H 0.98719 0.32492 0.186 0.0
H191 H 0.98598 0.26905 0.16778 0.0
C192 C 0.01311 0.13283 0.09029 0.0
C193 C 0.96706 0.19232 0.11332 0.0
H194 H 0.00664 0.29949 0.11882 0.0
C195 C 0.9402 0.17838 0.12709 0.0
C196 C 0.99063 0.23638 0.11008 0.0
C197 C 0.01835 0.25292 0.095 0.0
C198 C 0.93704 0.20759 0.13798 0.0
C199 C 0.96183 0.25179 0.13506 0.0
C200 C 0.98796 0.26558 0.12109 0.0
C201 C 0.96115 0.28446 0.14629 0.0
C202 C 0.90687 0.1909 0.15237 0.0
C203 C 0.94842 0.31212 0.14014 0.0
C204 C 0.94961 0.34436 0.15043 0.0
C205 C 0.96376 0.34968 0.16707 0.0
C206 C 0.97643 0.32184 0.17321 0.0
C207 C 0.97525 0.28958 0.16289 0.0
H208 H 0.88231 0.15652 0.15039 0.0
H209 H 0.92557 0.19433 0.16383 0.0
H210 H 0.89025 0.20929 0.15438 0.0
H211 H 0.93781 0.30889 0.12731 0.0
H212 H 0.94027 0.36568 0.14525 0.0
H213 H 0.96574 0.09202 0.40768 0.0
H214 H 0.9068 0.08229 0.42536 0.0
H215 H 0.87887 0.95505 0.43579 0.0
H216 H 0.93845 0.96478 0.41835 0.0
H217 H 0.82067 0.02215 0.42218 0.0
H218 H 0.88771 0.00772 0.48212 0.0
H219 H 0.91974 0.02698 0.46378 0.0
H220 H 0.88354 0.97068 0.46588 0.0
C221 C 0.9472 0.06198 0.41377 0.0
C222 C 0.95692 0.02923 0.41168 0.0
C223 C 0.91351 0.05648 0.42386 0.0
C224 C 0.88889 0.0182 0.43206 0.0
C225 C 0.89809 0.98519 0.42985 0.0
H226 H 0.66877 0.93809 0.49657 0.0
H227 H 0.72435 0.93945 0.47869 0.0
C228 C 0.93198 0.99073 0.41981 0.0
C229 C 0.8531 0.01283 0.44264 0.0
H230 H 0.81737 -0.00301 0.48247 0.0
C231 C 0.81993 0.01664 0.43536 0.0
C232 C 0.85223 0.00553 0.45982 0.0
C233 C 0.88785 0.00284 0.46844 0.0
C234 C 0.78593 0.01347 0.44481 0.0
C235 C 0.78538 0.00675 0.462 0.0
C236 C 0.81803 0.00212 0.46926 0.0
C237 C 0.75186 0.00587 0.47277 0.0
C238 C 0.75073 0.01716 0.43635 0.0
C239 C 0.74944 0.04292 0.47546 0.0
C240 C 0.71787 0.04227 0.48564 0.0
C241 C 0.68817 0.0045 0.4933 0.0
C242 C 0.69092 0.96749 0.49067 0.0
C243 C 0.7227 0.96825 0.48055 0.0
H244 H 0.75053 0.01228 0.42266 0.0
H245 H 0.71876 0.9935 0.4411 0.0
H246 H 0.7558 0.04958 0.43901 0.0
H247 H 0.77207 0.07238 0.4697 0.0
H248 H 0.71635 0.07117 0.48734 0.0
H249 H 0.9474 0.8937 0.74231 0.0
H250 H 0.89445 0.83931 0.76032 0.0
H251 H 0.81182 0.89187 0.75453 0.0
H252 H 0.86379 0.94551 0.73641 0.0
H253 H 0.8632 0.85137 0.79013 0.0
H254 H 0.73023 0.76559 0.744 0.0
H255 H 0.78474 0.80229 0.73809 0.0
H256 H 0.75035 0.82205 0.74495 0.0
C257 C 0.91777 0.89339 0.74477 0.0
C258 C 0.90971 0.92378 0.73785 0.0
C259 C 0.88761 0.86236 0.75506 0.0
C260 C 0.84889 0.8611 0.7585 0.0
C261 C 0.84099 0.89156 0.75169 0.0
H262 H 0.63618 0.74323 0.8236 0.0
H263 H 0.69203 0.78687 0.80405 0.0
C264 C 0.87093 0.92242 0.74141 0.0
C265 C 0.81732 0.82933 0.76979 0.0
H266 H 0.71111 0.75391 0.77268 0.0
C267 C 0.83009 0.82957 0.78627 0.0
C268 C 0.77418 0.80088 0.76469 0.0
C269 C 0.75914 0.79731 0.74692 0.0
C270 C 0.80035 0.80343 0.79799 0.0
C271 C 0.75694 0.77632 0.79301 0.0
C272 C 0.74442 0.7751 0.77644 0.0
C273 C 0.72366 0.7499 0.80495 0.0
C274 C 0.81505 0.80605 0.81574 0.0
C275 C 0.72294 0.71455 0.81178 0.0
C276 C 0.69082 0.68925 0.82282 0.0
C277 C 0.65888 0.69892 0.82721 0.0
C278 C 0.6599 0.73452 0.82032 0.0
C279 C 0.69189 0.75964 0.80923 0.0
H280 H 0.84826 0.83318 0.8181 0.0
H281 H 0.79304 0.80959 0.82439 0.0
H282 H 0.81431 0.77598 0.81857 0.0
H283 H 0.74691 0.70625 0.80842 0.0
H284 H 0.69057 0.66165 0.82765 0.0
H285 H 0.94071 0.90607 0.0857 0.0
H286 H 0.94321 0.85498 0.10386 0.0
H287 H 0.07961 0.91343 0.09661 0.0
H288 H 0.07743 0.96482 0.07814 0.0
H289 H 0.03361 0.82255 0.09416 0.0
H290 H 0.99353 0.88297 0.15137 0.0
H291 H 0.95626 0.87102 0.13446 0.0
H292 H 0.01122 0.91322 0.13275 0.0
C293 C 0.97134 0.90821 0.08793 0.0
C294 C 0.00897 0.93975 0.08057 0.0
C295 C 0.97269 0.87907 0.0984 0.0
C296 C 0.01171 0.88101 0.10182 0.0
C297 C 0.04925 0.91173 0.09421 0.0
H298 H 0.06132 0.71609 0.1637 0.0
H299 H 0.0703 0.77268 0.1455 0.0
C300 C 0.04793 0.941 0.08368 0.0
C301 C 0.01276 0.85046 0.11325 0.0
H302 H 0.98743 0.8145 0.15259 0.0
C303 C 0.02406 0.82105 0.107 0.0
C304 C 0.00036 0.84875 0.12999 0.0
C305 C 0.99005 0.88094 0.13761 0.0
C306 C 0.02152 0.78873 0.11689 0.0
C307 C 0.00781 0.78626 0.13347 0.0
C308 C -0.00238 0.81637 0.13983 0.0
C309 C 0.00262 0.75197 0.14432 0.0
C310 C 0.032 0.75656 0.1094 0.0
C311 C 0.9617 0.72214 0.14989 0.0
C312 C 0.95648 0.69 0.16036 0.0
C313 C 0.99221 0.68737 0.16556 0.0
C314 C 0.03323 0.71752 0.16002 0.0
C315 C 0.03838 0.74957 0.1495 0.0
H316 H 0.03386 0.75787 0.09565 0.0
H317 H 0.06357 0.7633 0.1144 0.0
H318 H 0.0075 0.72364 0.11276 0.0
H319 H 0.93376 0.72372 0.1461 0.0
H320 H 0.92457 0.66758 0.16458 0.0
H321 H 0.20747 0.07075 0.38127 0.0
H322 H 0.25432 0.0637 0.40128 0.0
H323 H 0.19731 0.09806 0.44138 0.0
H324 H 0.15009 0.10488 0.42153 0.0
H325 H 0.3141 0.12275 0.42632 0.0
H326 H 0.17692 0.97872 0.45285 0.0
H327 H 0.17295 -0.00072 0.43324 0.0
H328 H 0.1711 0.02497 0.4524 0.0
C329 C 0.20518 0.07725 0.39432 0.0
C330 C 0.17472 0.08791 0.39983 0.0
C331 C 0.23197 0.07321 0.40573 0.0
C332 C 0.22863 0.07961 0.42279 0.0
C333 C 0.19976 0.09225 0.42826 0.0
H334 H 0.34269 0.04027 0.51042 0.0
H335 H 0.30191 0.05745 0.49102 0.0
C336 C 0.17297 0.09631 0.41689 0.0
C337 C 0.25416 0.07142 0.4349 0.0
H338 H 0.24486 0.0054 0.46584 0.0
C339 C 0.29907 0.09711 0.43497 0.0
C340 C 0.23429 0.0379 0.44612 0.0
C341 C 0.18619 0.00833 0.44613 0.0
C342 C 0.32475 0.0905 0.44617 0.0
C343 C 0.30487 0.05678 0.45732 0.0
C344 C 0.25994 0.03125 0.45729 0.0
C345 C 0.33009 0.04698 0.469 0.0
C346 C 0.37282 0.12008 0.44615 0.0
C347 C 0.35889 0.03477 0.463 0.0
C348 C 0.38236 0.02516 0.47403 0.0
C349 C 0.37721 0.02727 0.49128 0.0
C350 C 0.3478 0.03889 0.49723 0.0
C351 C 0.32436 0.04853 0.48617 0.0
H352 H 0.38181 0.15063 0.44021 0.0
H353 H 0.38651 0.12735 0.45899 0.0
H354 H 0.38768 0.1044 0.43903 0.0
H355 H 0.36312 0.03254 0.44977 0.0
H356 H 0.40505 0.01673 0.46905 0.0
H357 H 0.0237 0.12181 0.75902 0.0
H358 H 0.07372 0.18096 0.77767 0.0
H359 H 0.18047 0.17861 0.75478 0.0
H360 H 0.13081 0.11902 0.73635 0.0
H361 H 0.18581 0.18157 0.78857 0.0
H362 H 0.1525 0.30567 0.76686 0.0
H363 H 0.10572 0.25777 0.77326 0.0
H364 H 0.13466 0.25575 0.75544 0.0
C365 C 0.05784 0.13404 0.75789 0.0
C366 C 0.07329 0.11575 0.74619 0.0
C367 C 0.08638 0.168 0.7685 0.0
C368 C 0.13082 0.18455 0.76744 0.0
C369 C 0.14628 0.16638 0.75576 0.0
H370 H 0.34122 0.42112 0.80857 0.0
H371 H 0.2859 0.36291 0.79099 0.0
C372 C 0.11783 0.13233 0.74523 0.0
C373 C 0.16137 0.21983 0.77885 0.0
H374 H 0.19777 0.32388 0.79074 0.0
C375 C 0.18845 0.2127 0.78906 0.0
C376 C 0.165 0.2605 0.77931 0.0
C377 C 0.13823 0.27066 0.76803 0.0
C378 C 0.21914 0.24516 0.79973 0.0
C379 C 0.22211 0.28555 0.80048 0.0
C380 C 0.19508 0.29273 0.79025 0.0
C381 C 0.25426 0.32126 0.81132 0.0
C382 C 0.24888 0.23623 0.80974 0.0
C383 C 0.25428 0.3174 0.82859 0.0
C384 C 0.28595 0.35052 0.83865 0.0
C385 C 0.31778 0.38828 0.83161 0.0
C386 C 0.31691 0.39252 0.81435 0.0
C387 C 0.28542 0.35929 0.8043 0.0
H388 H 0.24986 0.20799 0.80458 0.0
H389 H 0.28207 0.26421 0.81016 0.0
H390 H 0.23731 0.22949 0.82266 0.0
H391 H 0.22989 0.28871 0.83429 0.0
H392 H 0.28544 0.34669 0.85194 0.0
H393 H 0.01914 0.08758 0.6528 0.0
H394 H 0.96892 0.09337 0.63409 0.0
H395 H 0.86664 0.026 0.66849 0.0
H396 H 0.91635 0.02039 0.68727 0.0
H397 H 0.89438 0.02492 0.61947 0.0
H398 H 0.85598 0.12989 0.65796 0.0
H399 H 0.90227 0.12471 0.6621 0.0
H400 H 0.84999 0.08492 0.66888 0.0
C401 C 0.98607 0.07445 0.65646 0.0
C402 C 0.97174 0.05353 0.67152 0.0
C403 C 0.95747 0.07776 0.64576 0.0
C404 C 0.91427 0.06063 0.65003 0.0
C405 C 0.90006 0.04022 0.66513 0.0
H406 H 0.68209 0.96394 0.59317 0.0
H407 H 0.74562 0.97635 0.60884 0.0
C408 C 0.9285 0.0368 0.67579 0.0
C409 C 0.88315 0.06139 0.63832 0.0
H410 H 0.8067 0.08978 0.6355 0.0
C411 C 0.87559 0.0396 0.62286 0.0
C412 C 0.8591 0.08102 0.6427 0.0
C413 C 0.86749 0.10683 0.65875 0.0
C414 C 0.84313 0.03516 0.61198 0.0
C415 C 0.8173 0.05249 0.61682 0.0
C416 C 0.82624 0.07607 0.63192 0.0
C417 C 0.77974 0.04507 0.60673 0.0
C418 C 0.8365 0.01167 0.59546 0.0
C419 C 0.77764 0.07967 0.60061 0.0
C420 C 0.7414 0.07268 0.59163 0.0
C421 C 0.70645 0.03095 0.58874 0.0
C422 C 0.70873 -0.00362 0.59493 0.0
C423 C 0.745 0.00341 0.60388 0.0
H424 H 0.86584 0.01119 0.59167 0.0
H425 H 0.81009 0.97807 0.59647 0.0
H426 H 0.82749 0.02648 0.58558 0.0
H427 H 0.8041 0.11207 0.60275 0.0
H428 H 0.74086 0.09995 0.58685 0.0
H429 H 0.90033 0.96983 0.02506 0.0
H430 H 0.83893 0.92194 0.00695 0.0
H431 H 0.92218 0.89921 0.97535 0.0
H432 H 0.98368 0.94664 0.99342 0.0
H433 H 0.82516 0.92455 0.97211 0.0
H434 H 0.82806 0.77878 0.98882 0.0
H435 H 0.85669 0.82857 0.00079 0.0
H436 H 0.87821 0.82145 0.98165 0.0
C437 C 0.90562 0.95474 0.01423 0.0
C438 C 0.94681 0.96172 0.01075 0.0
C439 C 0.87053 0.9275 0.00389 0.0
C440 C 0.87603 0.90668 0.98998 0.0
C441 C 0.91724 0.91449 0.98621 0.0
H442 H 0.69775 0.76463 0.90829 0.0
H443 H 0.75689 0.81919 0.92579 0.0
C444 C 0.95234 0.9417 0.99652 0.0
C445 C 0.8385 0.87601 0.97961 0.0
H446 H 0.78025 0.77087 0.96704 0.0
C447 C 0.8152 0.89092 0.97099 0.0
C448 C 0.82541 0.83213 0.9784 0.0
C449 C 0.84809 0.81406 0.98801 0.0
C450 C 0.77937 0.86306 0.96094 0.0
C451 C 0.76703 0.81939 0.95938 0.0
C452 C 0.79002 0.80446 0.96819 0.0
C453 C 0.73003 0.78828 0.94885 0.0
C454 C 0.75464 0.88039 0.9523 0.0
C455 C 0.69559 0.75275 0.95602 0.0
C456 C 0.66195 0.72156 0.94607 0.0
C457 C 0.66222 0.72521 0.92875 0.0
C458 C 0.69641 0.76123 0.92162 0.0
C459 C 0.73016 0.79243 0.93159 0.0
H460 H 0.76156 0.91159 0.95797 0.0
H461 H 0.76398 0.88527 0.93908 0.0
H462 H 0.71951 0.85754 0.95269 0.0
H463 H 0.69496 0.74899 0.96932 0.0
H464 H 0.63576 0.69447 0.95195 0.0
H465 H 0.93603 0.94338 0.34188 0.0
H466 H 0.92332 0.88019 0.32524 0.0
H467 H 0.05509 0.91427 0.33358 0.0
H468 H 0.06789 0.97678 0.35039 0.0
H469 H 0.9629 0.8757 0.29657 0.0
H470 H 0.9898 0.79024 0.34656 0.0
H471 H 0.98179 0.83481 0.35077 0.0
H472 H 0.03377 0.84391 0.34488 0.0
C473 C 0.96221 0.93726 0.34024 0.0
C474 C 0.00288 0.96493 0.34755 0.0
C475 C 0.95489 0.90118 0.33074 0.0
C476 C 0.98804 0.89214 0.32845 0.0
C477 C 0.02877 0.92004 0.33554 0.0
H478 H 0.04449 0.72914 0.2688 0.0
H479 H 0.04356 0.78448 0.28657 0.0
C480 C 0.03608 0.95593 0.34507 0.0
C481 C 0.98082 0.85445 0.31819 0.0
H482 H 0.99188 0.76654 0.31861 0.0
C483 C 0.9686 0.85147 0.30143 0.0
C484 C 0.9881 0.82279 0.32461 0.0
C485 C -0.00134 0.82279 0.34273 0.0
C486 C 0.96533 0.81862 0.29073 0.0
C487 C 0.97438 0.78813 0.29702 0.0
C488 C 0.98533 0.79032 0.31386 0.0
C489 C 0.97435 0.75463 0.28616 0.0
C490 C 0.95373 0.81744 0.27266 0.0
C491 C 0.93564 0.71952 0.2802 0.0
C492 C 0.93597 0.68751 0.27021 0.0
C493 C 0.97509 0.6902 0.266 0.0
C494 C 0.0138 0.72569 0.27199 0.0
C495 C 0.01338 0.75748 0.28205 0.0
H496 H 0.95217 0.8461 0.26936 0.0
H497 H 0.97762 0.8152 0.26467 0.0
H498 H 0.92192 0.78859 0.26986 0.0
H499 H 0.90521 0.71669 0.28343 0.0
H500 H 0.90557 0.66032 0.26603 0.0
H501 H 0.0783 0.94725 0.67921 0.0
H502 H 0.12343 0.93543 0.65953 0.0
H503 H 0.21882 0.0696 0.66335 0.0
H504 H 0.1743 0.08179 0.68293 0.0
H505 H 0.18976 0.03064 0.62951 0.0
H506 H 0.24192 0.94273 0.66985 0.0
H507 H 0.18557 0.92548 0.66889 0.0
H508 H 0.22284 0.97661 0.67835 0.0
C509 C 0.10903 0.97416 0.67595 0.0
C510 C 0.12272 0.01546 0.68264 0.0
C511 C 0.13476 0.96732 0.66476 0.0
C512 C 0.17445 0.00165 0.6601 0.0
C513 C 0.18828 0.04273 0.66684 0.0
H514 H 0.38537 0.06498 0.59613 0.0
H515 H 0.33001 0.06235 0.61425 0.0
C516 C 0.16278 0.04958 0.67805 0.0
C517 C 0.2013 0.99548 0.64778 0.0
H518 H 0.26905 0.95645 0.64279 0.0
C519 C 0.2069 0.01417 0.63233 0.0
C520 C 0.2232 0.97366 0.65152 0.0
C521 C 0.21846 0.95355 0.66806 0.0
C522 C 0.23453 0.01228 0.62057 0.0
C523 C 0.25793 0.99206 0.62456 0.0
C524 C 0.2512 0.97209 0.63981 0.0
C525 C 0.29117 0.99328 0.61346 0.0
C526 C 0.2384 0.03197 0.60398 0.0
C527 C 0.2883 0.95528 0.60737 0.0
C528 C 0.32028 0.95666 0.59717 0.0
C529 C 0.35584 0.99612 0.593 0.0
C530 C 0.35862 0.03408 0.59921 0.0
C531 C 0.32672 0.03265 0.60941 0.0
H532 H 0.20943 0.03388 0.60094 0.0
H533 H 0.26648 0.06499 0.60443 0.0
H534 H 0.2432 0.01342 0.59385 0.0
H535 H 0.2613 0.92456 0.6105 0.0
H536 H 0.3175 0.92684 0.59279 0.0
H537 H 0.0707 0.17409 0.01542 0.0
H538 H 0.12279 0.22633 -0.0032 0.0
H539 H 0.19973 0.16676 -0.00023 0.0
H540 H 0.14755 0.114 0.01848 0.0
H541 H 0.21456 0.28343 0.00368 0.0
H542 H 0.1789 0.17251 0.94882 0.0
H543 H 0.14195 0.16015 0.96569 0.0
H544 H 0.18911 0.15617 0.96832 0.0
C545 C 0.09863 0.17195 0.01212 0.0
C546 C 0.10495 0.1398 0.01839 0.0
C547 C 0.12837 0.20189 0.0015 0.0
C548 C 0.16476 0.20006 -0.00318 0.0
C549 C 0.17147 0.16828 0.00311 0.0
H550 H 0.36931 0.35425 0.92937 0.0
H551 H 0.32105 0.30012 0.94839 0.0
C552 C 0.14178 0.13835 0.01384 0.0
C553 C 0.19581 0.23199 0.98551 0.0
H554 H 0.23397 0.24413 0.94613 0.0
C555 C 0.21894 0.27493 0.9911 0.0
C556 C 0.20137 0.22058 0.96917 0.0
C557 C 0.1764 0.17492 0.96251 0.0
C558 C 0.24777 0.30695 0.98075 0.0
C559 C 0.2527 0.29572 0.96426 0.0
C560 C 0.22995 0.25263 0.95875 0.0
C561 C 0.28133 0.32825 0.95253 0.0
C562 C 0.27315 0.35236 0.98767 0.0
C563 C 0.27446 0.36154 0.94831 0.0
C564 C 0.30226 0.39282 0.93759 0.0
C565 C 0.33723 0.39113 0.93077 0.0
C566 C 0.3432 0.35697 0.93466 0.0
C567 C 0.31549 0.32583 0.94543 0.0
H568 H 0.27479 0.35364 0.00147 0.0
H569 H 0.3064 0.36892 0.98292 0.0
H570 H 0.25726 0.37014 0.98381 0.0
H571 H 0.24769 0.36346 0.95337 0.0
H572 H 0.29686 0.41878 0.93492 0.0
H573 H 0.07878 0.12532 0.31437 0.0
H574 H 0.07116 0.17486 0.29676 0.0
H575 H 0.07667 0.25013 0.34019 0.0
H576 H 0.08431 0.20092 0.35791 0.0
H577 H 0.00127 0.19126 0.30013 0.0
H578 H 0.16083 0.33938 0.30741 0.0
H579 H 0.15225 0.28717 0.31184 0.0
H580 H 0.13645 0.31474 0.3265 0.0
C581 C 0.07912 0.15281 0.32017 0.0
C582 C 0.08201 0.15912 0.33755 0.0
C583 C 0.07469 0.181 0.31009 0.0
C584 C 0.07369 0.21624 0.31719 0.0
C585 C 0.07802 0.22344 0.33447 0.0
H586 H 0.02306 0.41114 0.28617 0.0
H587 H 0.04065 0.36388 0.30087 0.0
C588 C 0.08217 0.19516 0.34457 0.0
C589 C 0.06448 0.24345 0.30673 0.0
H590 H 0.10489 0.3461 0.29499 0.0
C591 C 0.02402 0.22503 0.29883 0.0
C592 C 0.09421 0.28746 0.30521 0.0
C593 C 0.13854 0.30842 0.31306 0.0
C594 C 0.01188 0.24982 0.28985 0.0
C595 C 0.04147 0.294 0.28844 0.0
C596 C 0.08225 0.31224 0.29612 0.0
C597 C 0.0304 0.32213 0.27942 0.0
C598 C 0.96696 0.22877 0.28251 0.0
C599 C 0.01903 0.31443 0.26247 0.0
C600 C 0.00871 0.34122 0.25407 0.0
C601 C 0.01018 0.37652 0.26244 0.0
C602 C 0.02192 0.38434 0.27938 0.0
C603 C 0.03192 0.35737 0.28779 0.0
H604 H 0.94506 0.198 0.28836 0.0
H605 H 0.95329 0.25001 0.28397 0.0
H606 H 0.96794 0.22194 0.26905 0.0
H607 H 0.01864 0.28801 0.25568 0.0
H608 H 0.0005 0.33488 0.24095 0.0
loop_
_geom_bond_atom_site_label_1
_geom_bond_atom_site_label_2
_geom_bond_distance
_geom_bond_site_symmetry_2
_ccdc_geom_bond_type
C0 O1 1.160 . S
C0 O7 1.182 1_565 S
O1 C0 1.160 . S
O2 Zn3 1.899 . S
O2 C10 1.284 . S
Zn3 O2 1.899 . S
Zn3 O4 2.032 1_445 S
Zn3 O7 2.095 . S
Zn3 O12 1.977 . S
O4 Zn3 2.032 1_665 S
O4 C8 1.278 . S
C5 O6 1.203 . S
C5 O12 1.267 . S
O6 C5 1.203 . S
O7 C0 1.182 1_545 S
O7 Zn3 2.095 . S
C8 O4 1.278 . S
C8 O9 1.211 1_565 S
O9 C8 1.211 1_545 S
C10 O2 1.284 . S
C10 O11 1.273 1_455 S
O11 C10 1.273 1_655 S
O12 Zn3 1.977 . S
O12 C5 1.267 . S
C13 O14 1.160 . S
C13 O20 1.185 . S
O14 C13 1.160 . S
O15 Zn16 1.899 . S
O15 C23 1.284 1_545 S
Zn16 O15 1.899 . S
Zn16 O17 2.032 1_455 S
Zn16 O20 2.086 . S
Zn16 O25 1.977 . S
O17 Zn16 2.032 1_655 S
O17 C21 1.278 . S
C18 O19 1.203 . S
C18 O25 1.267 . S
O19 C18 1.203 . S
O20 C13 1.185 . S
O20 Zn16 2.086 . S
C21 O17 1.278 . S
C21 O22 1.211 . S
O22 C21 1.211 . S
C23 O15 1.284 1_565 S
C23 O24 1.273 1_455 S
O24 C23 1.273 1_655 S
O25 Zn16 1.977 . S
O25 C18 1.267 . S
C26 O27 1.160 . S
C26 O33 1.185 1_545 S
O27 C26 1.160 . S
O28 Zn29 1.899 1_655 S
O28 C36 1.284 . S
Zn29 O28 1.899 1_455 S
Zn29 O30 2.032 . S
Zn29 O33 2.086 1_545 S
Zn29 O38 1.977 1_445 S
O30 Zn29 2.032 . S
O30 C34 1.278 . S
C31 O32 1.203 . S
C31 O38 1.267 . S
O32 C31 1.203 . S
O33 C26 1.185 1_565 S
O33 Zn29 2.086 1_565 S
C34 O30 1.278 . S
C34 O35 1.211 . S
O35 C34 1.211 . S
C36 O28 1.284 . S
C36 O37 1.273 . S
O37 C36 1.273 . S
O38 Zn29 1.977 1_665 S
O38 C31 1.267 . S
C39 C40 1.384 1_655 S
C39 C41 1.384 . S
C39 H67 0.931 . S
C40 C39 1.384 1_455 S
C40 C43 1.382 . S
C41 C39 1.384 . S
C41 C42 1.381 1_655 S
C41 H68 0.930 . S
C42 C41 1.381 1_455 S
C42 C44 1.381 . S
C42 C45 1.487 . S
C43 C40 1.382 . S
C43 C44 1.387 . S
C43 H69 0.930 . S
C44 C42 1.381 . S
C44 C43 1.387 . S
C44 H70 0.931 . S
C45 C42 1.487 . S
C45 C52 1.399 . S
C45 N83 1.343 . S
C46 C47 1.384 . S
C46 C48 1.384 . S
C46 H71 0.931 . S
C47 C46 1.384 . S
C47 C50 1.382 1_455 S
C48 C46 1.384 . S
C48 C49 1.381 . S
C48 H72 0.930 . S
C49 C48 1.381 . S
C49 C51 1.381 1_455 S
C49 C52 1.487 . S
C50 C47 1.382 1_655 S
C50 C51 1.387 . S
C50 H73 0.930 . S
C51 C49 1.381 1_655 S
C51 C50 1.387 . S
C51 H74 0.931 . S
C52 C45 1.399 . S
C52 C49 1.487 . S
C52 N84 1.343 . S
C53 C54 1.384 . S
C53 C55 1.384 . S
C53 H75 0.931 . S
C54 C53 1.384 . S
C54 C57 1.382 1_455 S
C55 C53 1.384 . S
C55 C56 1.381 . S
C55 H76 0.930 . S
C56 C55 1.381 . S
C56 C58 1.381 1_455 S
C56 C59 1.487 . S
C57 C54 1.382 1_655 S
C57 C58 1.387 . S
C57 H77 0.930 . S
C58 C56 1.381 1_655 S
C58 C57 1.387 . S
C58 H78 0.931 . S
C59 C56 1.487 . S
C59 C66 1.399 . S
C59 N84 1.343 . S
C60 C61 1.384 1_655 S
C60 C62 1.384 . S
C60 H79 0.931 . S
C61 C60 1.384 1_455 S
C61 C64 1.382 . S
C62 C60 1.384 . S
C62 C63 1.381 1_655 S
C62 H80 0.930 . S
C63 C62 1.381 1_455 S
C63 C65 1.381 . S
C63 C66 1.487 . S
C64 C61 1.382 . S
C64 C65 1.387 . S
C64 H81 0.930 . S
C65 C63 1.381 . S
C65 C64 1.387 . S
C65 H82 0.931 . S
C66 C59 1.399 . S
C66 C63 1.487 . S
C66 N83 1.343 . S
H67 C39 0.931 . S
H68 C41 0.930 . S
H69 C43 0.930 . S
H70 C44 0.931 . S
H71 C46 0.931 . S
H72 C48 0.930 . S
H73 C50 0.930 . S
H74 C51 0.931 . S
H75 C53 0.931 . S
H76 C55 0.930 . S
H77 C57 0.930 . S
H78 C58 0.931 . S
H79 C60 0.931 . S
H80 C62 0.930 . S
H81 C64 0.930 . S
H82 C65 0.931 . S
N83 C45 1.343 . S
N83 C66 1.343 . S
N84 C52 1.343 . S
N84 C59 1.343 . S
C85 C86 1.384 . S
C85 C87 1.384 . S
C85 H113 0.931 . S
C86 C85 1.384 . S
C86 C89 1.385 . S
C87 C85 1.384 . S
C87 C88 1.381 . S
C87 H114 0.930 . S
C88 C87 1.381 . S
C88 C90 1.368 1_545 S
C88 C91 1.487 . S
C89 C86 1.385 . S
C89 C90 1.403 1_545 S
C89 H115 0.921 1_545 S
C90 C88 1.368 1_565 S
C90 C89 1.403 1_565 S
C90 H116 0.936 . S
C91 C88 1.487 . S
C91 C98 1.399 . S
C91 N129 1.343 . S
C92 C93 1.384 1_565 S
C92 C94 1.384 . S
C92 H117 0.931 . S
C93 C92 1.384 1_545 S
C93 C96 1.382 . S
C94 C92 1.384 . S
C94 C95 1.381 1_565 S
C94 H118 0.930 . S
C95 C94 1.381 1_545 S
C95 C97 1.381 . S
C95 C98 1.487 . S
C96 C93 1.382 . S
C96 C97 1.387 . S
C96 H119 0.930 . S
C97 C95 1.381 . S
C97 C96 1.387 . S
C97 H120 0.931 . S
C98 C91 1.399 . S
C98 C95 1.487 . S
C98 N130 1.343 . S
C99 C100 1.384 1_565 S
C99 C101 1.384 . S
C99 H121 0.931 . S
C100 C99 1.384 1_545 S
C100 C103 1.382 . S
C101 C99 1.384 . S
C101 C102 1.381 1_565 S
C101 H122 0.930 . S
C102 C101 1.381 1_545 S
C102 C104 1.381 . S
C102 C105 1.487 . S
C103 C100 1.382 . S
C103 C104 1.387 . S
C103 H123 0.930 . S
C104 C102 1.381 . S
C104 C103 1.387 . S
C104 H124 0.931 . S
C105 C102 1.487 . S
C105 C112 1.399 . S
C105 N130 1.343 . S
C106 C107 1.384 . S
C106 C108 1.384 . S
C106 H125 0.931 . S
C107 C106 1.384 . S
C107 C110 1.398 . S
C108 C106 1.384 . S
C108 C109 1.381 . S
C108 H126 0.930 . S
C109 C108 1.381 . S
C109 C111 1.369 1_545 S
C109 C112 1.487 . S
C110 C107 1.398 . S
C110 C111 1.369 1_545 S
C110 H127 0.922 1_545 S
C111 C109 1.369 1_565 S
C111 C110 1.369 1_565 S
C111 H128 0.955 . S
C112 C105 1.399 . S
C112 C109 1.487 . S
C112 N129 1.343 . S
H113 C85 0.931 . S
H114 C87 0.930 . S
H115 C89 0.921 1_565 S
H116 C90 0.936 . S
H117 C92 0.931 . S
H118 C94 0.930 . S
H119 C96 0.930 . S
H120 C97 0.931 . S
H121 C99 0.931 . S
H122 C101 0.930 . S
H123 C103 0.930 . S
H124 C104 0.931 . S
H125 C106 0.931 . S
H126 C108 0.930 . S
H127 C110 0.922 1_565 S
H128 C111 0.955 . S
N129 C91 1.343 . S
N129 C112 1.343 . S
N130 C98 1.343 . S
N130 C105 1.343 . S
C131 C132 1.384 . S
C131 C133 1.384 . S
C131 H159 0.931 . S
C132 C131 1.384 . S
C132 C135 1.382 . S
C133 C131 1.384 . S
C133 C134 1.381 . S
C133 H160 0.930 . S
C134 C133 1.381 . S
C134 C136 1.381 . S
C134 C137 1.487 . S
C135 C132 1.382 . S
C135 C136 1.387 . S
C135 H161 0.930 . S
C136 C134 1.381 . S
C136 C135 1.387 . S
C136 H162 0.931 . S
C137 C134 1.487 . S
C137 C144 1.399 . S
C137 N175 1.343 . S
C138 C139 1.384 . S
C138 C140 1.384 . S
C138 H163 0.931 . S
C139 C138 1.384 . S
C139 C142 1.382 . S
C140 C138 1.384 . S
C140 C141 1.381 . S
C140 H164 0.930 . S
C141 C140 1.381 . S
C141 C143 1.381 . S
C141 C144 1.487 . S
C142 C139 1.382 . S
C142 C143 1.387 . S
C142 H165 0.930 . S
C143 C141 1.381 . S
C143 C142 1.387 . S
C143 H166 0.931 . S
C144 C137 1.399 . S
C144 C141 1.487 . S
C144 N176 1.343 . S
C145 C146 1.384 . S
C145 C147 1.384 . S
C145 H167 0.931 . S
C146 C145 1.384 . S
C146 C149 1.382 . S
C147 C145 1.384 . S
C147 C148 1.381 . S
C147 H168 0.930 . S
C148 C147 1.381 . S
C148 C150 1.381 . S
C148 C151 1.487 . S
C149 C146 1.382 . S
C149 C150 1.387 . S
C149 H169 0.930 . S
C150 C148 1.381 . S
C150 C149 1.387 . S
C150 H170 0.931 . S
C151 C148 1.487 . S
C151 C158 1.399 . S
C151 N176 1.343 . S
C152 C153 1.384 . S
C152 C154 1.384 . S
C152 H171 0.931 . S
C153 C152 1.384 . S
C153 C156 1.382 . S
C154 C152 1.384 . S
C154 C155 1.381 . S
C154 H172 0.930 . S
C155 C154 1.381 . S
C155 C157 1.381 . S
C155 C158 1.487 . S
C156 C153 1.382 . S
C156 C157 1.387 . S
C156 H173 0.930 . S
C157 C155 1.381 . S
C157 C156 1.387 . S
C157 H174 0.931 . S
C158 C151 1.399 . S
C158 C155 1.487 . S
C158 N175 1.343 . S
H159 C131 0.931 . S
H160 C133 0.930 . S
H161 C135 0.930 . S
H162 C136 0.931 . S
H163 C138 0.931 . S
H164 C140 0.930 . S
H165 C142 0.930 . S
H166 C143 0.931 . S
H167 C145 0.931 . S
H168 C147 0.930 . S
H169 C149 0.930 . S
H170 C150 0.931 . S
H171 C152 0.931 . S
H172 C154 0.930 . S
H173 C156 0.930 . S
H174 C157 0.931 . S
N175 C137 1.343 . S
N175 C158 1.343 . S
N176 C144 1.343 . S
N176 C151 1.343 . S
H177 C185 0.929 . S
H178 C187 0.930 . S
H179 C189 0.930 . S
H180 C192 0.929 . S
H181 C195 0.930 . S
H182 C197 0.960 . S
H183 C197 0.960 . S
H184 C197 0.960 . S
C185 H177 0.929 . S
C185 C186 1.377 1_655 S
C185 C187 1.384 . S
C186 C185 1.377 1_455 S
C186 C192 1.390 . S
C187 H178 0.930 . S
C187 C185 1.384 . S
C187 C188 1.372 1_655 S
C188 C187 1.372 1_455 S
C188 C189 1.400 . S
C188 C193 1.490 . S
C189 H179 0.930 . S
C189 C188 1.400 . S
C189 C192 1.386 . S
H190 C206 0.930 . S
H191 C207 0.931 . S
C192 H180 0.929 . S
C192 C186 1.390 . S
C192 C189 1.386 . S
C193 C188 1.490 . S
C193 C195 1.395 1_455 S
C193 C196 1.403 . S
H194 C200 0.930 . S
C195 H181 0.930 . S
C195 C193 1.395 1_655 S
C195 C198 1.403 . S
C196 C193 1.403 . S
C196 C197 1.524 . S
C196 C200 1.400 . S
C197 H182 0.960 . S
C197 H183 0.960 . S
C197 H184 0.960 . S
C197 C196 1.524 . S
C198 C195 1.403 . S
C198 C199 1.392 . S
C198 C202 1.495 . S
C199 C198 1.392 . S
C199 C200 1.385 1_655 S
C199 C201 1.478 . S
C200 H194 0.930 . S
C200 C196 1.400 . S
C200 C199 1.385 1_455 S
C201 C199 1.478 . S
C201 C203 1.381 . S
C201 C207 1.383 1_655 S
C202 C198 1.495 . S
C202 H208 0.959 . S
C202 H209 0.961 . S
C202 H210 0.960 . S
C203 C201 1.381 . S
C203 C204 1.394 . S
C203 H211 0.930 . S
C204 C203 1.394 . S
C204 C205 1.383 1_655 S
C204 H212 0.929 . S
C205 C204 1.383 1_455 S
C205 C206 1.377 . S
C206 H190 0.930 . S
C206 C205 1.377 . S
C206 C207 1.379 . S
C207 H191 0.931 . S
C207 C201 1.383 1_455 S
C207 C206 1.379 . S
H208 C202 0.959 . S
H209 C202 0.961 . S
H210 C202 0.960 . S
H211 C203 0.930 . S
H212 C204 0.929 . S
H213 C221 0.929 . S
H214 C223 0.930 . S
H215 C225 0.930 . S
H216 C228 0.929 . S
H217 C231 0.930 . S
H218 C233 0.960 . S
H219 C233 0.960 1_545 S
H220 C233 0.960 . S
C221 H213 0.929 . S
C221 C222 1.377 . S
C221 C223 1.384 . S
C222 C221 1.377 . S
C222 C228 1.390 1_545 S
C223 H214 0.930 . S
C223 C221 1.384 . S
C223 C224 1.372 . S
C224 C223 1.372 . S
C224 C225 1.400 1_545 S
C224 C229 1.490 . S
C225 H215 0.930 . S
C225 C224 1.400 1_565 S
C225 C228 1.386 . S
H226 C242 0.937 . S
H227 C243 0.931 1_565 S
C228 H216 0.929 . S
C228 C222 1.390 1_565 S
C228 C225 1.386 . S
C229 C224 1.490 . S
C229 C231 1.395 . S
C229 C232 1.403 . S
H230 C236 0.930 1_565 S
C231 H217 0.930 . S
C231 C229 1.395 . S
C231 C234 1.403 . S
C232 C229 1.403 . S
C232 C233 1.524 1_545 S
C232 C236 1.400 . S
C233 H218 0.960 . S
C233 H219 0.960 1_565 S
C233 H220 0.960 . S
C233 C232 1.524 1_565 S
C234 C231 1.403 . S
C234 C235 1.392 . S
C234 C238 1.495 . S
C235 C234 1.392 . S
C235 C236 1.385 . S
C235 C237 1.478 . S
C236 H230 0.930 1_545 S
C236 C232 1.400 . S
C236 C235 1.385 . S
C237 C235 1.478 . S
C237 C239 1.381 . S
C237 C243 1.383 . S
C238 C234 1.495 . S
C238 H244 0.959 . S
C238 H245 0.961 . S
C238 H246 0.960 . S
C239 C237 1.381 . S
C239 C240 1.394 . S
C239 H247 0.930 . S
C240 C239 1.394 . S
C240 C241 1.383 . S
C240 H248 0.929 . S
C241 C240 1.383 . S
C241 C242 1.365 1_545 S
C242 H226 0.937 . S
C242 C241 1.365 1_565 S
C242 C243 1.384 1_565 S
C243 H227 0.931 1_545 S
C243 C237 1.383 . S
C243 C242 1.384 1_545 S
H244 C238 0.959 . S
H245 C238 0.961 . S
H246 C238 0.960 . S
H247 C239 0.930 . S
H248 C240 0.929 . S
H249 C257 0.929 . S
H250 C259 0.930 . S
H251 C261 0.930 . S
H252 C264 0.929 . S
H253 C267 0.930 . S
H254 C269 0.960 . S
H255 C269 0.960 . S
H256 C269 0.960 . S
C257 H249 0.929 . S
C257 C258 1.377 . S
C257 C259 1.384 . S
C258 C257 1.377 . S
C258 C264 1.390 . S
C259 H250 0.930 . S
C259 C257 1.384 . S
C259 C260 1.372 . S
C260 C259 1.372 . S
C260 C261 1.400 . S
C260 C265 1.490 . S
C261 H251 0.930 . S
C261 C260 1.400 . S
C261 C264 1.386 . S
H262 C278 0.930 . S
H263 C279 0.931 . S
C264 H252 0.929 . S
C264 C258 1.390 . S
C264 C261 1.386 . S
C265 C260 1.490 . S
C265 C267 1.395 . S
C265 C268 1.403 . S
H266 C272 0.930 . S
C267 H253 0.930 . S
C267 C265 1.395 . S
C267 C270 1.403 . S
C268 C265 1.403 . S
C268 C269 1.524 . S
C268 C272 1.400 . S
C269 H254 0.960 . S
C269 H255 0.960 . S
C269 H256 0.960 . S
C269 C268 1.524 . S
C270 C267 1.403 . S
C270 C271 1.392 . S
C270 C274 1.495 . S
C271 C270 1.392 . S
C271 C272 1.385 . S
C271 C273 1.478 . S
C272 H266 0.930 . S
C272 C268 1.400 . S
C272 C271 1.385 . S
C273 C271 1.478 . S
C273 C275 1.381 . S
C273 C279 1.383 . S
C274 C270 1.495 . S
C274 H280 0.959 . S
C274 H281 0.961 . S
C274 H282 0.960 . S
C275 C273 1.381 . S
C275 C276 1.394 . S
C275 H283 0.930 . S
C276 C275 1.394 . S
C276 C277 1.383 . S
C276 H284 0.929 . S
C277 C276 1.383 . S
C277 C278 1.377 . S
C278 H262 0.930 . S
C278 C277 1.377 . S
C278 C279 1.379 . S
C279 H263 0.931 . S
C279 C273 1.383 . S
C279 C278 1.379 . S
H280 C274 0.959 . S
H281 C274 0.961 . S
H282 C274 0.960 . S
H283 C275 0.930 . S
H284 C276 0.929 . S
H285 C293 0.929 1_655 S
H286 C295 0.924 1_655 S
H287 C297 0.930 . S
H288 C300 0.929 . S
H289 C303 0.930 . S
H290 C305 0.960 . S
H291 C305 0.960 1_655 S
H292 C305 0.960 . S
C293 H285 0.929 1_455 S
C293 C294 1.377 . S
C293 C295 1.377 . S
C294 C293 1.377 . S
C294 C300 1.390 . S
C295 H286 0.924 1_455 S
C295 C293 1.377 . S
C295 C296 1.385 . S
C296 C295 1.385 . S
C296 C297 1.400 . S
C296 C301 1.490 . S
C297 H287 0.930 . S
C297 C296 1.400 . S
C297 C300 1.386 . S
H298 C314 0.930 . S
H299 C315 0.931 . S
C300 H288 0.929 . S
C300 C294 1.390 . S
C300 C297 1.386 . S
C301 C296 1.490 . S
C301 C303 1.395 . S
C301 C304 1.403 . S
H302 C308 0.930 . S
C303 H289 0.930 . S
C303 C301 1.395 . S
C303 C306 1.403 . S
C304 C301 1.403 . S
C304 C305 1.524 . S
C304 C308 1.400 . S
C305 H290 0.960 . S
C305 H291 0.960 1_455 S
C305 H292 0.960 . S
C305 C304 1.524 . S
C306 C303 1.403 . S
C306 C307 1.392 . S
C306 C310 1.495 . S
C307 C306 1.392 . S
C307 C308 1.385 . S
C307 C309 1.478 . S
C308 H302 0.930 . S
C308 C304 1.400 . S
C308 C307 1.385 . S
C309 C307 1.478 . S
C309 C311 1.381 1_455 S
C309 C315 1.383 . S
C310 C306 1.495 . S
C310 H316 0.959 . S
C310 H317 0.961 . S
C310 H318 0.960 . S
C311 C309 1.381 1_655 S
C311 C312 1.394 . S
C311 H319 0.930 . S
C312 C311 1.394 . S
C312 C313 1.383 1_655 S
C312 H320 0.929 . S
C313 C312 1.383 1_455 S
C313 C314 1.377 . S
C314 H298 0.930 . S
C314 C313 1.377 . S
C314 C315 1.379 . S
C315 H299 0.931 . S
C315 C309 1.383 . S
C315 C314 1.379 . S
H316 C310 0.959 . S
H317 C310 0.961 . S
H318 C310 0.960 . S
H319 C311 0.930 . S
H320 C312 0.929 . S
H321 C329 0.929 . S
H322 C331 0.930 . S
H323 C333 0.930 . S
H324 C336 0.929 . S
H325 C339 0.930 . S
H326 C341 0.960 . S
H327 C341 0.960 . S
H328 C341 0.960 . S
C329 H321 0.929 . S
C329 C330 1.377 . S
C329 C331 1.384 . S
C330 C329 1.377 . S
C330 C336 1.390 . S
C331 H322 0.930 . S
C331 C329 1.384 . S
C331 C332 1.372 . S
C332 C331 1.372 . S
C332 C333 1.400 . S
C332 C337 1.490 . S
C333 H323 0.930 . S
C333 C332 1.400 . S
C333 C336 1.386 . S
H334 C350 0.930 . S
H335 C351 0.931 . S
C336 H324 0.929 . S
C336 C330 1.390 . S
C336 C333 1.386 . S
C337 C332 1.490 . S
C337 C339 1.395 . S
C337 C340 1.403 . S
H338 C344 0.909 1_565 S
C339 H325 0.930 . S
C339 C337 1.395 . S
C339 C342 1.403 . S
C340 C337 1.403 . S
C340 C341 1.524 1_545 S
C340 C344 1.400 . S
C341 H326 0.960 . S
C341 H327 0.960 . S
C341 H328 0.960 . S
C341 C340 1.524 1_565 S
C342 C339 1.403 . S
C342 C343 1.392 . S
C342 C346 1.495 . S
C343 C342 1.392 . S
C343 C344 1.385 . S
C343 C345 1.478 . S
C344 H338 0.909 1_545 S
C344 C340 1.400 . S
C344 C343 1.385 . S
C345 C343 1.478 . S
C345 C347 1.381 . S
C345 C351 1.383 . S
C346 C342 1.495 . S
C346 H352 0.959 . S
C346 H353 0.961 . S
C346 H354 0.960 . S
C347 C345 1.381 . S
C347 C348 1.394 . S
C347 H355 0.930 . S
C348 C347 1.394 . S
C348 C349 1.383 . S
C348 H356 0.929 . S
C349 C348 1.383 . S
C349 C350 1.377 . S
C350 H334 0.930 . S
C350 C349 1.377 . S
C350 C351 1.379 . S
C351 H335 0.931 . S
C351 C345 1.383 . S
C351 C350 1.379 . S
H352 C346 0.959 . S
H353 C346 0.961 . S
H354 C346 0.960 . S
H355 C347 0.930 . S
H356 C348 0.929 . S
H357 C365 0.929 . S
H358 C367 0.930 . S
H359 C369 0.930 . S
H360 C372 0.929 . S
H361 C375 0.930 . S
H362 C377 0.960 . S
H363 C377 0.960 . S
H364 C377 0.960 . S
C365 H357 0.929 . S
C365 C366 1.377 . S
C365 C367 1.384 . S
C366 C365 1.377 . S
C366 C372 1.390 . S
C367 H358 0.930 . S
C367 C365 1.384 . S
C367 C368 1.372 . S
C368 C367 1.372 . S
C368 C369 1.400 . S
C368 C373 1.490 . S
C369 H359 0.930 . S
C369 C368 1.400 . S
C369 C372 1.386 . S
H370 C386 0.930 . S
H371 C387 0.931 . S
C372 H360 0.929 . S
C372 C366 1.390 . S
C372 C369 1.386 . S
C373 C368 1.490 . S
C373 C375 1.395 . S
C373 C376 1.403 . S
H374 C380 0.930 . S
C375 H361 0.930 . S
C375 C373 1.395 . S
C375 C378 1.403 . S
C376 C373 1.403 . S
C376 C377 1.524 . S
C376 C380 1.400 . S
C377 H362 0.960 . S
C377 H363 0.960 . S
C377 H364 0.960 . S
C377 C376 1.524 . S
C378 C375 1.403 . S
C378 C379 1.392 . S
C378 C382 1.495 . S
C379 C378 1.392 . S
C379 C380 1.385 . S
C379 C381 1.478 . S
C380 H374 0.930 . S
C380 C376 1.400 . S
C380 C379 1.385 . S
C381 C379 1.478 . S
C381 C383 1.381 . S
C381 C387 1.383 . S
C382 C378 1.495 . S
C382 H388 0.959 . S
C382 H389 0.961 . S
C382 H390 0.960 . S
C383 C381 1.381 . S
C383 C384 1.394 . S
C383 H391 0.930 . S
C384 C383 1.394 . S
C384 C385 1.383 . S
C384 H392 0.929 . S
C385 C384 1.383 . S
C385 C386 1.377 . S
C386 H370 0.930 . S
C386 C385 1.377 . S
C386 C387 1.379 . S
C387 H371 0.931 . S
C387 C381 1.383 . S
C387 C386 1.379 . S
H388 C382 0.959 . S
H389 C382 0.961 . S
H390 C382 0.960 . S
H391 C383 0.930 . S
H392 C384 0.929 . S
H393 C401 0.929 . S
H394 C403 0.930 . S
H395 C405 0.931 1_565 S
H396 C408 0.930 1_565 S
H397 C411 0.930 . S
H398 C413 0.960 . S
H399 C413 0.960 . S
H400 C413 0.960 . S
C401 H393 0.929 . S
C401 C402 1.377 . S
C401 C403 1.384 . S
C402 C401 1.377 . S
C402 C408 1.390 . S
C403 H394 0.930 . S
C403 C401 1.384 . S
C403 C404 1.372 . S
C404 C403 1.372 . S
C404 C405 1.400 . S
C404 C409 1.490 . S
C405 H395 0.931 1_545 S
C405 C404 1.400 . S
C405 C408 1.386 . S
H406 C422 0.930 . S
H407 C423 0.931 . S
C408 H396 0.930 1_545 S
C408 C402 1.390 . S
C408 C405 1.386 . S
C409 C404 1.490 . S
C409 C411 1.395 . S
C409 C412 1.403 . S
H410 C416 0.930 . S
C411 H397 0.930 . S
C411 C409 1.395 . S
C411 C414 1.403 . S
C412 C409 1.403 . S
C412 C413 1.524 . S
C412 C416 1.400 . S
C413 H398 0.960 . S
C413 H399 0.960 . S
C413 H400 0.960 . S
C413 C412 1.524 . S
C414 C411 1.403 . S
C414 C415 1.392 . S
C414 C418 1.495 1_545 S
C415 C414 1.392 . S
C415 C416 1.385 . S
C415 C417 1.478 . S
C416 H410 0.930 . S
C416 C412 1.400 . S
C416 C415 1.385 . S
C417 C415 1.478 . S
C417 C419 1.381 . S
C417 C423 1.383 1_545 S
C418 C414 1.495 1_565 S
C418 H424 0.959 . S
C418 H425 0.961 . S
C418 H426 0.960 1_565 S
C419 C417 1.381 . S
C419 C420 1.394 . S
C419 H427 0.930 . S
C420 C419 1.394 . S
C420 C421 1.383 . S
C420 H428 0.929 . S
C421 C420 1.383 . S
C421 C422 1.377 1_545 S
C422 H406 0.930 . S
C422 C421 1.377 1_565 S
C422 C423 1.379 . S
C423 H407 0.931 . S
C423 C417 1.383 1_565 S
C423 C422 1.379 . S
H424 C418 0.959 . S
H425 C418 0.961 . S
H426 C418 0.960 1_545 S
H427 C419 0.930 . S
H428 C420 0.929 . S
H429 C437 0.929 . S
H430 C439 0.930 . S
H431 C441 0.930 . S
H432 C444 0.949 . S
H433 C447 0.930 . S
H434 C449 0.960 . S
H435 C449 0.986 . S
H436 C449 0.960 . S
C437 H429 0.929 . S
C437 C438 1.377 . S
C437 C439 1.384 . S
C438 C437 1.377 . S
C438 C444 1.390 . S
C439 H430 0.930 . S
C439 C437 1.384 . S
C439 C440 1.337 1_554 S
C440 C439 1.337 1_556 S
C440 C441 1.412 . S
C440 C445 1.513 . S
C441 H431 0.930 . S
C441 C440 1.412 . S
C441 C444 1.386 1_556 S
H442 C458 0.930 . S
H443 C459 0.931 . S
C444 H432 0.949 . S
C444 C438 1.390 . S
C444 C441 1.386 1_554 S
C445 C440 1.513 . S
C445 C447 1.395 . S
C445 C448 1.403 . S
H446 C452 0.930 . S
C447 H433 0.930 . S
C447 C445 1.395 . S
C447 C450 1.403 . S
C448 C445 1.403 . S
C448 C449 1.524 . S
C448 C452 1.400 . S
C449 H434 0.960 . S
C449 H435 0.986 . S
C449 H436 0.960 . S
C449 C448 1.524 . S
C450 C447 1.403 . S
C450 C451 1.392 . S
C450 C454 1.495 . S
C451 C450 1.392 . S
C451 C452 1.385 . S
C451 C453 1.478 . S
C452 H446 0.930 . S
C452 C448 1.400 . S
C452 C451 1.385 . S
C453 C451 1.478 . S
C453 C455 1.381 . S
C453 C459 1.383 . S
C454 C450 1.495 . S
C454 H460 0.959 . S
C454 H461 0.961 . S
C454 H462 0.960 . S
C455 C453 1.381 . S
C455 C456 1.394 . S
C455 H463 0.930 . S
C456 C455 1.394 . S
C456 C457 1.383 . S
C456 H464 0.929 . S
C457 C456 1.383 . S
C457 C458 1.377 . S
C458 H442 0.930 . S
C458 C457 1.377 . S
C458 C459 1.379 . S
C459 H443 0.931 . S
C459 C453 1.383 . S
C459 C458 1.379 . S
H460 C454 0.959 . S
H461 C454 0.961 . S
H462 C454 0.960 . S
H463 C455 0.930 . S
H464 C456 0.929 . S
H465 C473 0.929 . S
H466 C475 0.930 . S
H467 C477 0.930 . S
H468 C480 0.929 . S
H469 C483 0.930 . S
H470 C485 0.960 . S
H471 C485 0.960 1_655 S
H472 C485 0.960 . S
C473 H465 0.929 . S
C473 C474 1.377 1_655 S
C473 C475 1.384 . S
C474 C473 1.377 1_455 S
C474 C480 1.390 . S
C475 H466 0.930 . S
C475 C473 1.384 . S
C475 C476 1.372 1_655 S
C476 C475 1.372 1_455 S
C476 C477 1.400 . S
C476 C481 1.490 . S
C477 H467 0.930 . S
C477 C476 1.400 . S
C477 C480 1.386 . S
H478 C494 0.930 . S
H479 C495 0.931 . S
C480 H468 0.929 . S
C480 C474 1.390 . S
C480 C477 1.386 . S
C481 C476 1.490 . S
C481 C483 1.395 . S
C481 C484 1.403 . S
H482 C488 0.930 . S
C483 H469 0.930 . S
C483 C481 1.395 . S
C483 C486 1.403 . S
C484 C481 1.403 . S
C484 C485 1.524 . S
C484 C488 1.400 . S
C485 H470 0.960 . S
C485 H471 0.960 1_455 S
C485 H472 0.960 . S
C485 C484 1.524 . S
C486 C483 1.403 . S
C486 C487 1.392 . S
C486 C490 1.495 1_455 S
C487 C486 1.392 . S
C487 C488 1.385 . S
C487 C489 1.478 . S
C488 H482 0.930 . S
C488 C484 1.400 . S
C488 C487 1.385 . S
C489 C487 1.478 . S
C489 C491 1.381 1_455 S
C489 C495 1.383 . S
C490 C486 1.495 1_655 S
C490 H496 0.959 . S
C490 H497 0.961 1_655 S
C490 H498 0.960 . S
C491 C489 1.381 1_655 S
C491 C492 1.394 . S
C491 H499 0.930 . S
C492 C491 1.394 . S
C492 C493 1.383 1_655 S
C492 H500 0.929 . S
C493 C492 1.383 1_455 S
C493 C494 1.377 . S
C494 H478 0.930 . S
C494 C493 1.377 . S
C494 C495 1.379 . S
C495 H479 0.931 . S
C495 C489 1.383 . S
C495 C494 1.379 . S
H496 C490 0.959 . S
H497 C490 0.961 1_455 S
H498 C490 0.960 . S
H499 C491 0.930 . S
H500 C492 0.929 . S
H501 C509 0.929 . S
H502 C511 0.930 . S
H503 C513 0.930 . S
H504 C516 0.929 . S
H505 C519 0.930 . S
H506 C521 0.960 . S
H507 C521 0.960 . S
H508 C521 0.960 1_545 S
C509 H501 0.929 . S
C509 C510 1.377 1_565 S
C509 C511 1.384 . S
C510 C509 1.377 1_545 S
C510 C516 1.390 . S
C511 H502 0.930 . S
C511 C509 1.384 . S
C511 C512 1.372 1_565 S
C512 C511 1.372 1_545 S
C512 C513 1.400 . S
C512 C517 1.490 . S
C513 H503 0.930 . S
C513 C512 1.400 . S
C513 C516 1.386 . S
H514 C530 0.930 . S
H515 C531 0.931 . S
C516 H504 0.929 . S
C516 C510 1.390 . S
C516 C513 1.386 . S
C517 C512 1.490 . S
C517 C519 1.395 . S
C517 C520 1.403 1_545 S
H518 C524 0.930 1_565 S
C519 H505 0.930 . S
C519 C517 1.395 . S
C519 C522 1.403 . S
C520 C517 1.403 1_565 S
C520 C521 1.524 . S
C520 C524 1.400 1_565 S
C521 H506 0.960 . S
C521 H507 0.960 . S
C521 H508 0.960 1_565 S
C521 C520 1.524 . S
C522 C519 1.403 . S
C522 C523 1.392 . S
C522 C526 1.495 . S
C523 C522 1.392 . S
C523 C524 1.385 . S
C523 C525 1.478 . S
C524 H518 0.930 1_545 S
C524 C520 1.400 1_545 S
C524 C523 1.385 . S
C525 C523 1.478 . S
C525 C527 1.381 1_545 S
C525 C531 1.383 . S
C526 C522 1.495 . S
C526 H532 0.959 . S
C526 H533 0.961 . S
C526 H534 0.960 . S
C527 C525 1.381 1_565 S
C527 C528 1.394 . S
C527 H535 0.930 . S
C528 C527 1.394 . S
C528 C529 1.383 1_565 S
C528 H536 0.929 . S
C529 C528 1.383 1_545 S
C529 C530 1.377 . S
C530 H514 0.930 . S
C530 C529 1.377 . S
C530 C531 1.379 . S
C531 H515 0.931 . S
C531 C525 1.383 . S
C531 C530 1.379 . S
H532 C526 0.959 . S
H533 C526 0.961 . S
H534 C526 0.960 . S
H535 C527 0.930 . S
H536 C528 0.929 . S
H537 C545 0.929 . S
H538 C547 0.930 . S
H539 C549 0.930 . S
H540 C552 0.929 . S
H541 C555 0.930 1_554 S
H542 C557 0.960 . S
H543 C557 0.960 . S
H544 C557 0.960 . S
C545 H537 0.929 . S
C545 C546 1.377 . S
C545 C547 1.384 . S
C546 C545 1.377 . S
C546 C552 1.390 . S
C547 H538 0.930 . S
C547 C545 1.384 . S
C547 C548 1.372 1_554 S
C548 C547 1.372 1_556 S
C548 C549 1.400 . S
C548 C553 1.490 . S
C549 H539 0.930 . S
C549 C548 1.400 . S
C549 C552 1.386 1_556 S
H550 C566 0.930 . S
H551 C567 0.931 . S
C552 H540 0.929 . S
C552 C546 1.390 . S
C552 C549 1.386 1_554 S
C553 C548 1.490 . S
C553 C555 1.395 . S
C553 C556 1.403 . S
H554 C560 0.930 . S
C555 H541 0.930 1_556 S
C555 C553 1.395 . S
C555 C558 1.403 . S
C556 C553 1.403 . S
C556 C557 1.524 . S
C556 C560 1.400 . S
C557 H542 0.960 . S
C557 H543 0.960 . S
C557 H544 0.960 . S
C557 C556 1.524 . S
C558 C555 1.403 . S
C558 C559 1.392 . S
C558 C562 1.495 . S
C559 C558 1.392 . S
C559 C560 1.385 . S
C559 C561 1.478 . S
C560 H554 0.930 . S
C560 C556 1.400 . S
C560 C559 1.385 . S
C561 C559 1.478 . S
C561 C563 1.381 . S
C561 C567 1.383 . S
C562 C558 1.495 . S
C562 H568 0.959 1_556 S
C562 H569 0.961 . S
C562 H570 0.960 . S
C563 C561 1.381 . S
C563 C564 1.394 . S
C563 H571 0.930 . S
C564 C563 1.394 . S
C564 C565 1.383 . S
C564 H572 0.929 . S
C565 C564 1.383 . S
C565 C566 1.377 . S
C566 H550 0.930 . S
C566 C565 1.377 . S
C566 C567 1.379 . S
C567 H551 0.931 . S
C567 C561 1.383 . S
C567 C566 1.379 . S
H568 C562 0.959 1_554 S
H569 C562 0.961 . S
H570 C562 0.960 . S
H571 C563 0.930 . S
H572 C564 0.929 . S
H573 C581 0.929 . S
H574 C583 0.930 . S
H575 C585 0.930 . S
H576 C588 0.929 . S
H577 C591 0.930 1_655 S
H578 C593 0.960 . S
H579 C593 0.960 . S
H580 C593 0.960 . S
C581 H573 0.929 . S
C581 C582 1.377 . S
C581 C583 1.384 . S
C582 C581 1.377 . S
C582 C588 1.390 . S
C583 H574 0.930 . S
C583 C581 1.384 . S
C583 C584 1.372 . S
C584 C583 1.372 . S
C584 C585 1.400 . S
C584 C589 1.490 . S
C585 H575 0.930 . S
C585 C584 1.400 . S
C585 C588 1.386 . S
H586 C602 0.930 . S
H587 C603 0.930 1_655 S
C588 H576 0.929 . S
C588 C582 1.390 . S
C588 C585 1.386 . S
C589 C584 1.490 . S
C589 C591 1.395 . S
C589 C592 1.403 . S
H590 C596 0.930 . S
C591 H577 0.930 1_455 S
C591 C589 1.395 . S
C591 C594 1.393 1_455 S
C592 C589 1.403 . S
C592 C593 1.524 . S
C592 C596 1.400 . S
C593 H578 0.960 . S
C593 H579 0.960 . S
C593 H580 0.960 . S
C593 C592 1.524 . S
C594 C591 1.393 1_655 S
C594 C595 1.392 1_655 S
C594 C598 1.506 . S
C595 C594 1.392 1_455 S
C595 C596 1.385 . S
C595 C597 1.478 . S
C596 H590 0.930 . S
C596 C592 1.400 . S
C596 C595 1.385 . S
C597 C595 1.478 . S
C597 C599 1.381 . S
C597 C603 1.386 . S
C598 C594 1.506 . S
C598 H604 0.959 . S
C598 H605 0.961 . S
C598 H606 0.960 . S
C599 C597 1.381 . S
C599 C600 1.394 . S
C599 H607 0.930 . S
C600 C599 1.394 . S
C600 C601 1.383 . S
C600 H608 0.929 . S
C601 C600 1.383 . S
C601 C602 1.377 1_455 S
C602 H586 0.930 . S
C602 C601 1.377 1_655 S
C602 C603 1.377 1_655 S
C603 H587 0.930 1_455 S
C603 C597 1.386 . S
C603 C602 1.377 1_455 S
H604 C598 0.959 . S
H605 C598 0.961 . S
H606 C598 0.960 . S
H607 C599 0.930 . S
H608 C600 0.929 . S
C205 C47 1.368 . S
C186 C10 1.372 . S
C222 C21 1.401 . S
C241 C86 1.435 . S
C258 C31 1.354 . S
C277 C153 1.408 . S
C294 C0 1.343 . S
C313 C54 1.389 . S
C349 C107 1.416 . S
C330 C18 1.351 . S
C366 C34 1.368 . S
C385 C132 1.391 . S
C421 C93 1.353 . S
C402 C36 1.355 . S
C438 C8 1.372 . S
C457 C146 1.397 . S
C493 C61 1.371 . S
C474 C23 1.375 . S
C529 C100 1.327 . S
C510 C26 1.297 . S
C565 C139 1.411 . S
C546 C5 1.347 . S
C582 C13 1.352 . S
C601 C40 1.392 . S
