# Generated by pormake.
# Topology wbl, (4,4)-cn, num edge types: 1
# Building blocks:
#     Node 0, Type 0, BuildingBlock: NAWXER_clean_linker_0, # of connection points: 4
#     Node 1, Type 0, BuildingBlock: NAWXER_clean_linker_0, # of connection points: 4
#     Node 2, Type 0, BuildingBlock: NAWXER_clean_linker_0, # of connection points: 4
#     Node 3, Type 0, BuildingBlock: NAWXER_clean_linker_0, # of connection points: 4
#     Node 4, Type 0, BuildingBlock: NAWXER_clean_linker_0, # of connection points: 4
#     Node 5, Type 0, BuildingBlock: NAWXER_clean_linker_0, # of connection points: 4
#     Node 6, Type 0, BuildingBlock: NAWXER_clean_linker_0, # of connection points: 4
#     Node 7, Type 0, BuildingBlock: NAWXER_clean_linker_0, # of connection points: 4
#     Node 8, Type 1, BuildingBlock: GALJAG_clean_sbu_0, # of connection points: 4
#     Node 9, Type 1, BuildingBlock: GALJAG_clean_sbu_0, # of connection points: 4
#     Node 10, Type 1, BuildingBlock: GALJAG_clean_sbu_0, # of connection points: 4
#     Node 11, Type 1, BuildingBlock: GALJAG_clean_sbu_0, # of connection points: 4
#     Node 12, Type 1, BuildingBlock: GALJAG_clean_sbu_0, # of connection points: 4
#     Node 13, Type 1, BuildingBlock: GALJAG_clean_sbu_0, # of connection points: 4
#     Node 14, Type 1, BuildingBlock: GALJAG_clean_sbu_0, # of connection points: 4
#     Node 15, Type 1, BuildingBlock: GALJAG_clean_sbu_0, # of connection points: 4
#     Edge 16, Type (0, 1), BuildingBlock: MIFKUJ_clean_linker_0, # of connection points: 2
#     Edge 17, Type (0, 1), BuildingBlock: MIFKUJ_clean_linker_0, # of connection points: 2
#     Edge 18, Type (0, 1), BuildingBlock: MIFKUJ_clean_linker_0, # of connection points: 2
#     Edge 19, Type (0, 1), BuildingBlock: MIFKUJ_clean_linker_0, # of connection points: 2
#     Edge 20, Type (0, 1), BuildingBlock: MIFKUJ_clean_linker_0, # of connection points: 2
#     Edge 21, Type (0, 1), BuildingBlock: MIFKUJ_clean_linker_0, # of connection points: 2
#     Edge 22, Type (0, 1), BuildingBlock: MIFKUJ_clean_linker_0, # of connection points: 2
#     Edge 23, Type (0, 1), BuildingBlock: MIFKUJ_clean_linker_0, # of connection points: 2
#     Edge 24, Type (0, 1), BuildingBlock: MIFKUJ_clean_linker_0, # of connection points: 2
#     Edge 25, Type (0, 1), BuildingBlock: MIFKUJ_clean_linker_0, # of connection points: 2
#     Edge 26, Type (0, 1), BuildingBlock: MIFKUJ_clean_linker_0, # of connection points: 2
#     Edge 27, Type (0, 1), BuildingBlock: MIFKUJ_clean_linker_0, # of connection points: 2
#     Edge 28, Type (0, 1), BuildingBlock: MIFKUJ_clean_linker_0, # of connection points: 2
#     Edge 29, Type (0, 1), BuildingBlock: MIFKUJ_clean_linker_0, # of connection points: 2
#     Edge 30, Type (0, 1), BuildingBlock: MIFKUJ_clean_linker_0, # of connection points: 2
#     Edge 31, Type (0, 1), BuildingBlock: MIFKUJ_clean_linker_0, # of connection points: 2
#     Edge 32, Type (0, 1), BuildingBlock: MIFKUJ_clean_linker_0, # of connection points: 2
#     Edge 33, Type (0, 1), BuildingBlock: MIFKUJ_clean_linker_0, # of connection points: 2
#     Edge 34, Type (0, 1), BuildingBlock: MIFKUJ_clean_linker_0, # of connection points: 2
#     Edge 35, Type (0, 1), BuildingBlock: MIFKUJ_clean_linker_0, # of connection points: 2
#     Edge 36, Type (0, 1), BuildingBlock: MIFKUJ_clean_linker_0, # of connection points: 2
#     Edge 37, Type (0, 1), BuildingBlock: MIFKUJ_clean_linker_0, # of connection points: 2
#     Edge 38, Type (0, 1), BuildingBlock: MIFKUJ_clean_linker_0, # of connection points: 2
#     Edge 39, Type (0, 1), BuildingBlock: MIFKUJ_clean_linker_0, # of connection points: 2
#     Edge 40, Type (0, 1), BuildingBlock: MIFKUJ_clean_linker_0, # of connection points: 2
#     Edge 41, Type (0, 1), BuildingBlock: MIFKUJ_clean_linker_0, # of connection points: 2
#     Edge 42, Type (0, 1), BuildingBlock: MIFKUJ_clean_linker_0, # of connection points: 2
#     Edge 43, Type (0, 1), BuildingBlock: MIFKUJ_clean_linker_0, # of connection points: 2
#     Edge 44, Type (0, 1), BuildingBlock: MIFKUJ_clean_linker_0, # of connection points: 2
#     Edge 45, Type (0, 1), BuildingBlock: MIFKUJ_clean_linker_0, # of connection points: 2
#     Edge 46, Type (0, 1), BuildingBlock: MIFKUJ_clean_linker_0, # of connection points: 2
#     Edge 47, Type (0, 1), BuildingBlock: MIFKUJ_clean_linker_0, # of connection points: 2
# Relax obj value: 0.140
# Max RMSD: 0.149
# Mean RMSD: 0.132
data_MOF--net-wbl--node1-GALJAG_clean_sbu_0--node2-NAWXER_clean_linker_0--edge1-MIFKUJ_clean_linker_0
_symmetry_space_group_name_H-M    P1
_symmetry_Int_Tables_number       1
_symmetry_cell_setting            triclinic
loop_
_symmetry_equiv_pos_as_xyz
'x, y, z'
_cell_length_a     54.565465
_cell_length_b     54.723932
_cell_length_c     106.38339
_cell_angle_alpha  90.023292
_cell_angle_beta   90.027409
_cell_angle_gamma 89.984471
loop_
_atom_site_label
_atom_site_type_symbol
_atom_site_fract_x
_atom_site_fract_y
_atom_site_fract_z
_atom_type_partial_charge
C0 C 0.0549 0.93999 0.36512 0.0
C1 C 0.07072 0.95266 0.37328 0.0
C2 C 0.03993 0.95275 0.35671 0.0
C3 C 0.04064 0.97839 0.35626 0.0
C4 C 0.07189 0.97829 0.37251 0.0
C5 C 0.05686 0.99102 0.36415 0.0
C6 C 0.02292 0.99226 0.34854 0.0
C7 C 0.07249 0.95552 0.32084 0.0
C8 C 0.06093 0.93718 0.31375 0.0
C9 C 0.05866 0.97163 0.32811 0.0
C10 C 0.03303 0.96969 0.32842 0.0
C11 C 0.03528 0.93518 0.31409 0.0
C12 C 0.02141 0.95152 0.32127 0.0
C13 C 0.01833 0.98724 0.33576 0.0
C14 C 0.95101 0.06995 0.32103 0.0
C15 C 0.93563 0.05737 0.31261 0.0
C16 C 0.96785 0.05724 0.32844 0.0
C17 C 0.96926 0.03164 0.32783 0.0
C18 C 0.93762 0.0318 0.31175 0.0
C19 C 0.95426 0.01909 0.31928 0.0
C20 C 0.98716 0.01784 0.3355 0.0
C21 C 0.93808 0.05323 0.3647 0.0
C22 C 0.95029 0.069 0.37306 0.0
C23 C 0.95138 0.03873 0.35629 0.0
C24 C 0.97709 0.03998 0.356 0.0
C25 C 0.97597 0.07072 0.37245 0.0
C26 C 0.98922 0.05624 0.36407 0.0
C27 C 0.99165 0.02271 0.34835 0.0
H28 H 0.05325 0.9203 0.36561 0.0
H29 H 0.0271 0.94262 0.35095 0.0
H30 H 0.08414 0.98858 0.37853 0.0
H31 H 0.05763 0.0108 0.36398 0.0
H32 H 0.09226 0.95734 0.3208 0.0
H33 H 0.06797 0.98581 0.33338 0.0
H34 H 0.02595 0.9213 0.30862 0.0
H35 H 0.00162 0.94989 0.32131 0.0
H36 H 0.94991 0.08962 0.322 0.0
H37 H 0.97985 0.06751 0.3346 0.0
H38 H 0.92647 0.02156 0.30518 0.0
H39 H 0.95532 -0.00062 0.31845 0.0
H40 H 0.91834 0.05126 0.36506 0.0
H41 H 0.94163 0.02588 0.35038 0.0
H42 H 0.98588 0.08294 0.37865 0.0
H43 H 0.00904 0.05743 0.36404 0.0
N44 N 0.00946 0.00983 0.35432 0.0
N45 N 0.0006 0.00016 0.32973 0.0
C46 C 0.93761 0.44697 0.61318 0.0
C47 C 0.94906 0.43201 0.62219 0.0
C48 C 0.95165 0.46086 0.60482 0.0
C49 C 0.97736 0.4599 0.60528 0.0
C50 C 0.97479 0.4304 0.62226 0.0
C51 C 0.98877 0.44436 0.61397 0.0
C52 C 0.9925 0.47694 0.59782 0.0
C53 C 0.95926 0.42607 0.56958 0.0
C54 C 0.9428 0.43733 0.56123 0.0
C55 C 0.97422 0.44013 0.57737 0.0
C56 C 0.97296 0.46573 0.57698 0.0
C57 C 0.94148 0.46296 0.56087 0.0
C58 C 0.95664 0.47705 0.56861 0.0
C59 C 0.98952 0.48069 0.5848 0.0
C60 C 0.07455 0.54797 0.57291 0.0
C61 C 0.06342 0.56221 0.56348 0.0
C62 C 0.06081 0.53127 0.57988 0.0
C63 C 0.03544 0.52901 0.57791 0.0
C64 C 0.03821 0.55908 0.56117 0.0
C65 C 0.02439 0.54276 0.56833 0.0
C66 C 0.02041 0.51159 0.58529 0.0
C67 C 0.05162 0.56198 0.6152 0.0
C68 C 0.06653 0.55012 0.62411 0.0
C69 C 0.03804 0.5484 0.6065 0.0
C70 C 0.03937 0.52277 0.60649 0.0
C71 C 0.06827 0.5245 0.62381 0.0
C72 C 0.0547 0.51097 0.61515 0.0
C73 C 0.02318 0.50794 0.59837 0.0
H74 H 0.91786 0.44887 0.61298 0.0
H75 H 0.94242 0.47317 0.5984 0.0
H76 H 0.98417 0.41874 0.62894 0.0
H77 H 0.00858 0.44338 0.6145 0.0
H78 H 0.96053 0.40634 0.5701 0.0
H79 H 0.98706 0.431 0.58356 0.0
H80 H 0.9291 0.47208 0.55444 0.0
H81 H 0.95558 0.4968 0.56809 0.0
H82 H 0.09385 0.54987 0.57504 0.0
H83 H 0.07013 0.5201 0.58679 0.0
H84 H 0.02906 0.56914 0.55376 0.0
H85 H 0.00497 0.54099 0.56642 0.0
H86 H 0.04964 0.58167 0.6153 0.0
H87 H 0.02589 0.55787 0.60009 0.0
H88 H 0.07987 0.51484 0.63042 0.0
H89 H 0.05591 0.49121 0.61533 0.0
N90 N 0.00924 0.49067 0.60407 0.0
N91 N 0.00353 0.49789 0.57904 0.0
C92 C 0.54833 0.43623 0.86628 0.0
C93 C 0.56126 0.44808 0.87595 0.0
C94 C 0.53478 0.4498 0.85756 0.0
C95 C 0.53431 0.47546 0.85825 0.0
C96 C 0.56126 0.47374 0.8764 0.0
C97 C 0.54787 0.48726 0.86767 0.0
C98 C 0.51778 0.49012 0.85019 0.0
C99 C 0.57097 0.45628 0.823 0.0
C100 C 0.56017 0.4394 0.81472 0.0
C101 C 0.55638 0.47135 0.83048 0.0
C102 C 0.53074 0.46983 0.82979 0.0
C103 C 0.53451 0.43773 0.81413 0.0
C104 C 0.51991 0.45303 0.82151 0.0
C105 C 0.51521 0.48669 0.83711 0.0
C106 C 0.45106 0.57203 0.8222 0.0
C107 C 0.43758 0.5607 0.81253 0.0
C108 C 0.46651 0.55832 0.82994 0.0
C109 C 0.46824 0.53286 0.82846 0.0
C110 C 0.44014 0.53534 0.81078 0.0
C111 C 0.45522 0.5216 0.81867 0.0
C112 C 0.4846 0.5179 0.83649 0.0
C113 C 0.43198 0.55207 0.86455 0.0
C114 C 0.44334 0.56583 0.87407 0.0
C115 C 0.44608 0.53804 0.85626 0.0
C116 C 0.47178 0.53795 0.85722 0.0
C117 C 0.46904 0.56614 0.8748 0.0
C118 C 0.48308 0.55229 0.86649 0.0
C119 C 0.48701 0.52114 0.84962 0.0
H120 H 0.54777 0.41647 0.86581 0.0
H121 H 0.52389 0.44017 0.85064 0.0
H122 H 0.5713 0.48336 0.88367 0.0
H123 H 0.54772 0.507 0.86843 0.0
H124 H 0.59072 0.45783 0.82367 0.0
H125 H 0.56512 0.48452 0.83663 0.0
H126 H 0.52577 0.42501 0.80774 0.0
H127 H 0.50014 0.45177 0.82077 0.0
H128 H 0.44951 0.59147 0.82391 0.0
H129 H 0.47715 0.56772 0.83705 0.0
H130 H 0.43061 0.52603 0.80324 0.0
H131 H 0.45663 0.50207 0.81714 0.0
H132 H 0.41218 0.55127 0.86388 0.0
H133 H 0.43687 0.52661 0.84942 0.0
H134 H 0.47829 0.57678 0.88196 0.0
H135 H 0.50286 0.55242 0.86745 0.0
N136 N 0.5036 0.50722 0.85588 0.0
N137 N 0.49871 0.50065 0.83079 0.0
C138 C 0.45851 0.92228 0.07679 0.0
C139 C 0.44458 0.93159 0.06677 0.0
C140 C 0.47409 0.93758 0.08359 0.0
C141 C 0.47537 0.96263 0.08077 0.0
C142 C 0.44668 0.95636 0.06357 0.0
C143 C 0.46193 0.97177 0.07053 0.0
C144 C 0.49119 0.97932 0.08811 0.0
C145 C 0.43687 0.94835 0.11592 0.0
C146 C 0.44738 0.93681 0.12645 0.0
C147 C 0.45133 0.96211 0.1077 0.0
C148 C 0.47675 0.96402 0.10962 0.0
C149 C 0.47277 0.93917 0.12843 0.0
C150 C 0.48724 0.95255 0.12011 0.0
C151 C 0.49242 0.9793 0.1014 0.0
C152 C 0.54779 0.06859 0.11513 0.0
C153 C 0.56418 0.05908 0.12407 0.0
C154 C 0.53492 0.05289 0.10712 0.0
C155 C 0.5381 0.0275 0.10806 0.0
C156 C 0.56775 0.0337 0.12475 0.0
C157 C 0.5546 0.01803 0.11691 0.0
C158 C 0.52284 0.01057 0.10065 0.0
C159 C 0.57598 0.04547 0.07407 0.0
C160 C 0.56546 0.05683 0.0635 0.0
C161 C 0.56197 0.03027 0.08178 0.0
C162 C 0.5369 0.02671 0.07935 0.0
C163 C 0.5406 0.05239 0.0608 0.0
C164 C 0.5265 0.03758 0.06866 0.0
C165 C 0.52158 0.01074 0.0874 0.0
H166 H 0.45752 0.9031 0.07925 0.0
H167 H 0.48506 0.92982 0.09108 0.0
H168 H 0.43616 0.96389 0.05584 0.0
H169 H 0.46291 0.99095 0.06805 0.0
H170 H 0.41743 0.94687 0.11402 0.0
H171 H 0.44257 0.97147 0.09994 0.0
H172 H 0.4815 0.93118 0.1366 0.0
H173 H 0.50672 0.9541 0.12194 0.0
H174 H 0.54473 0.0881 0.11446 0.0
H175 H 0.52197 0.06049 0.10046 0.0
H176 H 0.58003 0.0259 0.13168 0.0
H177 H 0.55709 0.99847 0.11784 0.0
H178 H 0.595 0.04849 0.07651 0.0
H179 H 0.57088 0.02122 0.08958 0.0
H180 H 0.53197 0.06024 0.05258 0.0
H181 H 0.50735 0.03474 0.0664 0.0
N182 N 0.50569 0.99516 0.08168 0.0
N183 N 0.50835 0.99481 0.10709 0.0
C184 C 0.04433 0.56334 0.88711 0.0
C185 C 0.06113 0.55315 0.8786 0.0
C186 C 0.03154 0.54838 0.89547 0.0
C187 C 0.03518 0.52298 0.89535 0.0
C188 C 0.06527 0.52782 0.87873 0.0
C189 C 0.05214 0.51281 0.88695 0.0
C190 C 0.01978 0.50692 0.9032 0.0
C191 C 0.07276 0.54166 0.92997 0.0
C192 C 0.06192 0.55768 0.93867 0.0
C193 C 0.05825 0.52648 0.92251 0.0
C194 C 0.03263 0.52707 0.92362 0.0
C195 C 0.03626 0.55842 0.93968 0.0
C196 C 0.02174 0.54304 0.9323 0.0
C197 C 0.01727 0.51003 0.91629 0.0
C198 C 0.95096 0.42578 0.93049 0.0
C199 C 0.93689 0.43758 0.93976 0.0
C200 C 0.96732 0.43904 0.92304 0.0
C201 C 0.96952 0.46447 0.92451 0.0
C202 C 0.93982 0.4629 0.94149 0.0
C203 C 0.95594 0.47617 0.93395 0.0
C204 C 0.98664 0.47897 0.9167 0.0
C205 C 0.93286 0.4485 0.88839 0.0
C206 C 0.9434 0.43178 0.87994 0.0
C207 C 0.94768 0.46236 0.89639 0.0
C208 C 0.97327 0.45974 0.89603 0.0
C209 C 0.96898 0.42887 0.87979 0.0
C210 C 0.9838 0.44293 0.88768 0.0
C211 C 0.98919 0.47588 0.90358 0.0
H212 H 0.04085 0.58283 0.88715 0.0
H213 H 0.0182 0.55656 0.90173 0.0
H214 H 0.07795 0.51954 0.87216 0.0
H215 H 0.05501 0.49322 0.88665 0.0
H216 H 0.0925 0.54083 0.92895 0.0
H217 H 0.06708 0.51392 0.91608 0.0
H218 H 0.02749 0.57046 0.9464 0.0
H219 H 0.002 0.54359 0.93336 0.0
H220 H 0.94915 0.40634 0.92885 0.0
H221 H 0.97828 0.42934 0.91618 0.0
H222 H 0.92976 0.47251 0.94874 0.0
H223 H 0.95763 0.49569 0.93543 0.0
H224 H 0.91318 0.45107 0.88869 0.0
H225 H 0.93921 0.47557 0.9026 0.0
H226 H 0.97758 0.41635 0.87324 0.0
H227 H 0.00353 0.44087 0.88718 0.0
N228 N 0.00574 0.4899 0.89734 0.0
N229 N 0.00075 0.49602 0.92254 0.0
C230 C 0.43908 0.55384 0.13568 0.0
C231 C 0.45104 0.57034 0.1276 0.0
C232 C 0.45248 0.53985 0.14426 0.0
C233 C 0.47807 0.54208 0.14491 0.0
C234 C 0.47663 0.57299 0.12858 0.0
C235 C 0.49001 0.55881 0.13706 0.0
C236 C 0.4927 0.52558 0.15293 0.0
C237 C 0.45523 0.57647 0.1799 0.0
C238 C 0.43624 0.56502 0.18658 0.0
C239 C 0.47193 0.56259 0.173 0.0
C240 C 0.47005 0.53703 0.17279 0.0
C241 C 0.43421 0.53945 0.18626 0.0
C242 C 0.45123 0.52552 0.17953 0.0
C243 C 0.48822 0.52234 0.16588 0.0
C244 C 0.57685 0.46507 0.18157 0.0
C245 C 0.56665 0.4469 0.18931 0.0
C246 C 0.5618 0.48023 0.1744 0.0
C247 C 0.53623 0.47756 0.17482 0.0
C248 C 0.54096 0.44478 0.18998 0.0
C249 C 0.52589 0.46013 0.18287 0.0
C250 C 0.52038 0.49302 0.16687 0.0
C251 C 0.55476 0.4397 0.14001 0.0
C252 C 0.57092 0.45021 0.13127 0.0
C253 C 0.54014 0.45448 0.14763 0.0
C254 C 0.54144 0.48004 0.14667 0.0
C255 C 0.57258 0.4758 0.13051 0.0
C256 C 0.55778 0.49058 0.13806 0.0
C257 C 0.52433 0.49568 0.15383 0.0
H258 H 0.41948 0.55101 0.13506 0.0
H259 H 0.44294 0.52663 0.15004 0.0
H260 H 0.48641 0.58583 0.12268 0.0
H261 H 0.50976 0.56076 0.13741 0.0
H262 H 0.45707 0.59618 0.17999 0.0
H263 H 0.48653 0.57177 0.16798 0.0
H264 H 0.41978 0.53027 0.19141 0.0
H265 H 0.44962 0.50578 0.17951 0.0
H266 H 0.59651 0.4676 0.18104 0.0
H267 H 0.57013 0.49403 0.16848 0.0
H268 H 0.53248 0.43083 0.19573 0.0
H269 H 0.50619 0.45791 0.18337 0.0
H270 H 0.55316 0.42003 0.1408 0.0
H271 H 0.52726 0.44591 0.154 0.0
H272 H 0.58465 0.48436 0.12374 0.0
H273 H 0.55887 0.51026 0.13709 0.0
N274 N 0.51053 0.51206 0.14738 0.0
N275 N 0.50227 0.50624 0.17241 0.0
C276 C 0.45246 0.92991 0.38828 0.0
C277 C 0.44055 0.94059 0.3779 0.0
C278 C 0.4668 0.94411 0.39636 0.0
C279 C 0.469 0.96944 0.39447 0.0
C280 C 0.44305 0.9659 0.37597 0.0
C281 C 0.45703 0.98012 0.38417 0.0
C282 C 0.48512 0.98477 0.40247 0.0
C283 C 0.42911 0.95501 0.42932 0.0
C284 C 0.43877 0.9389 0.43834 0.0
C285 C 0.44468 0.96898 0.42181 0.0
C286 C 0.47019 0.96702 0.42315 0.0
C287 C 0.46431 0.93691 0.43965 0.0
C288 C 0.4799 0.95106 0.4322 0.0
C289 C 0.48671 0.98262 0.41567 0.0
C290 C 0.55018 0.06826 0.43045 0.0
C291 C 0.56462 0.05688 0.43973 0.0
C292 C 0.53455 0.05445 0.42283 0.0
C293 C 0.53354 0.02892 0.4241 0.0
C294 C 0.56269 0.03143 0.44132 0.0
C295 C 0.54737 0.01764 0.43358 0.0
C296 C 0.51735 0.01376 0.41612 0.0
C297 C 0.56853 0.05237 0.38905 0.0
C298 C 0.55657 0.06561 0.37949 0.0
C299 C 0.55538 0.03635 0.39678 0.0
C300 C 0.52991 0.03376 0.39532 0.0
C301 C 0.53113 0.0626 0.37798 0.0
C302 C 0.51801 0.04696 0.38581 0.0
C303 C 0.51548 0.01623 0.40291 0.0
H304 H 0.45087 0.91052 0.39014 0.0
H305 H 0.47654 0.93512 0.40393 0.0
H306 H 0.43473 0.97476 0.36794 0.0
H307 H 0.4587 -0.00047 0.38235 0.0
H308 H 0.40949 0.95678 0.42806 0.0
H309 H 0.43679 0.98156 0.41507 0.0
H310 H 0.4722 0.92482 0.44662 0.0
H311 H 0.49954 0.94953 0.43347 0.0
H312 H 0.5512 0.08779 0.42892 0.0
H313 H 0.52334 0.06375 0.41593 0.0
H314 H 0.57296 0.02209 0.44858 0.0
H315 H 0.54649 0.99803 0.43494 0.0
H316 H 0.58806 0.05424 0.39054 0.0
H317 H 0.56519 0.0258 0.40376 0.0
H318 H 0.52132 0.07185 0.37052 0.0
H319 H 0.49845 0.04499 0.38434 0.0
N320 N 0.49945 0.00162 0.39667 0.0
N321 N 0.50292 0.99698 0.42194 0.0
C322 C 0.0676 0.94617 0.64258 0.0
C323 C 0.05739 0.93426 0.63208 0.0
C324 C 0.05312 0.96099 0.6503 0.0
C325 C 0.02789 0.9636 0.64795 0.0
C326 C 0.03213 0.93699 0.62976 0.0
C327 C 0.0176 0.95138 0.63762 0.0
C328 C 0.01243 0.9807 0.65533 0.0
C329 C 0.041 0.92731 0.68384 0.0
C330 C 0.05728 0.93776 0.69256 0.0
C331 C 0.02695 0.94213 0.67595 0.0
C332 C 0.029 0.96765 0.67664 0.0
C333 C 0.05917 0.96332 0.69328 0.0
C334 C 0.04495 0.97815 0.68546 0.0
C335 C 0.01389 0.98348 0.66852 0.0
C336 C 0.9296 0.05143 0.67996 0.0
C337 C 0.94086 0.06622 0.68911 0.0
C338 C 0.94341 0.03466 0.67302 0.0
C339 C 0.96882 0.03273 0.67492 0.0
C340 C 0.96616 0.06359 0.69127 0.0
C341 C 0.97996 0.04701 0.68425 0.0
C342 C 0.98388 0.01521 0.66767 0.0
C343 C 0.95324 0.06705 0.63839 0.0
C344 C 0.93975 0.05556 0.6288 0.0
C345 C 0.96673 0.05312 0.64698 0.0
C346 C 0.96654 0.02746 0.64626 0.0
C347 C 0.93938 0.02992 0.62822 0.0
C348 C 0.95269 0.01604 0.63683 0.0
C349 C 0.98225 0.01231 0.6545 0.0
H350 H 0.0869 0.9444 0.64477 0.0
H351 H 0.06189 0.97091 0.65786 0.0
H352 H 0.02359 0.92872 0.62162 0.0
H353 H 0.99829 0.95334 0.63546 0.0
H354 H 0.0393 0.90765 0.68303 0.0
H355 H 0.0144 0.93366 0.66937 0.0
H356 H 0.07139 0.97183 0.70001 0.0
H357 H 0.04658 0.99783 0.68621 0.0
H358 H 0.91018 0.05302 0.67802 0.0
H359 H 0.93419 0.02324 0.66618 0.0
H360 H 0.97533 0.07425 0.69844 0.0
H361 H -0.00055 0.04552 0.68605 0.0
H362 H 0.95411 0.08679 0.63894 0.0
H363 H 0.97785 0.06241 0.65393 0.0
H364 H 0.92896 0.02058 0.621 0.0
H365 H 0.95238 0.9963 0.63605 0.0
N366 N 0.99654 0.99515 0.6489 0.0
N367 N -0.00027 0.00073 0.67414 0.0
In368 In 0.30516 0.69376 0.00107 0.0
O369 O 0.29756 0.72882 0.0119 0.0
O370 O 0.32444 0.73019 0.99753 0.0
C371 C 0.25876 0.6786 0.99732 0.0
C372 C 0.32586 0.67466 0.0219 0.0
C373 C 0.32505 0.67736 0.97945 0.0
O374 O 0.26503 0.70065 0.99603 0.0
O375 O 0.27577 0.66443 0.00065 0.0
O376 O 0.32996 0.66824 0.99004 0.0
O377 O 0.31023 0.69508 0.97972 0.0
C378 C 0.31334 0.74139 0.00618 0.0
O379 O 0.33806 0.68024 0.01225 0.0
O380 O 0.30311 0.67846 0.02101 0.0
In381 In 0.30521 0.80562 0.25181 0.0
O382 O 0.29471 0.7693 0.2426 0.0
O383 O 0.32794 0.77107 0.253 0.0
C384 C 0.25793 0.81588 0.25686 0.0
C385 C 0.32472 0.82501 0.23071 0.0
C386 C 0.32511 0.82369 0.27314 0.0
O387 O 0.26755 0.79572 0.25988 0.0
O388 O 0.27203 0.8304 0.2512 0.0
O389 O 0.3197 0.83696 0.26387 0.0
O390 O 0.32065 0.80128 0.27166 0.0
C391 C 0.31373 0.75833 0.24634 0.0
O392 O 0.33766 0.81795 0.23984 0.0
O393 O 0.30197 0.82247 0.23225 0.0
In394 In 0.19039 0.81348 0.50214 0.0
O395 O 0.15987 0.82612 0.51524 0.0
O396 O 0.19632 0.82731 0.5222 0.0
C397 C 0.17176 0.83162 0.48059 0.0
C398 C 0.17843 0.76625 0.50571 0.0
C399 C 0.23717 0.82653 0.49792 0.0
O400 O 0.16969 0.84241 0.49102 0.0
O401 O 0.18292 0.81145 0.48105 0.0
O402 O 0.23005 0.80464 0.49688 0.0
O403 O 0.22083 0.84147 0.50129 0.0
C404 C 0.1739 0.83097 0.52432 0.0
O405 O 0.199 0.77476 0.50894 0.0
O406 O 0.16442 0.78136 0.50039 0.0
In407 In 0.18952 0.69146 0.7519 0.0
O408 O 0.15759 0.67696 0.76349 0.0
O409 O 0.1908 0.68468 0.77311 0.0
C410 C 0.17489 0.67043 0.73017 0.0
C411 C 0.23653 0.67737 0.75457 0.0
C412 C 0.17641 0.73879 0.74955 0.0
O413 O 0.1712 0.66096 0.74079 0.0
O414 O 0.18627 0.69047 0.73044 0.0
O415 O 0.1978 0.73142 0.7471 0.0
O416 O 0.16202 0.72243 0.7534 0.0
C417 C 0.16906 0.67699 0.77378 0.0
O418 O 0.22967 0.69904 0.75666 0.0
O419 O 0.21979 0.66312 0.75093 0.0
In420 In 0.81189 0.19189 0.50135 0.0
O421 O 0.80294 0.23176 0.50602 0.0
O422 O 0.83937 0.22301 0.50067 0.0
C423 C 0.76594 0.17491 0.49812 0.0
C424 C 0.82692 0.17211 0.52333 0.0
C425 C 0.83267 0.17903 0.4793 0.0
O426 O 0.77108 0.19733 0.49732 0.0
O427 O 0.78382 0.16127 0.50078 0.0
O428 O 0.84214 0.17427 0.48983 0.0
O429 O 0.81275 0.19071 0.47982 0.0
C430 C 0.82448 0.23927 0.50413 0.0
O431 O 0.8334 0.16404 0.51274 0.0
O432 O 0.81245 0.19006 0.5229 0.0
In433 In 0.80539 0.31572 0.75028 0.0
O434 O 0.83198 0.33955 0.73935 0.0
O435 O 0.80268 0.32322 0.7292 0.0
C436 C 0.82322 0.33055 0.77273 0.0
C437 C 0.82211 0.27059 0.7451 0.0
C438 C 0.75745 0.32555 0.7538 0.0
O439 O 0.81884 0.34511 0.76384 0.0
O440 O 0.81866 0.30846 0.77033 0.0
O441 O 0.7666 0.30497 0.75638 0.0
O442 O 0.77232 0.34071 0.7492 0.0
C443 C 0.82163 0.33643 0.72886 0.0
O444 O 0.79946 0.27545 0.74527 0.0
O445 O 0.83597 0.28828 0.74777 0.0
In446 In 0.68705 0.30808 0.0034 0.0
O447 O 0.69752 0.26912 0.0092 0.0
O448 O 0.66192 0.27522 0.00178 0.0
C449 C 0.73255 0.32402 0.99828 0.0
C450 C 0.67291 0.32547 0.02607 0.0
C451 C 0.66592 0.32531 0.98226 0.0
O452 O 0.72728 0.30153 0.99844 0.0
O453 O 0.71501 0.33817 0.00087 0.0
O454 O 0.66221 0.33458 0.99295 0.0
O455 O 0.68005 0.30704 0.98223 0.0
C456 C 0.67695 0.26016 0.00633 0.0
O457 O 0.65795 0.32054 0.01741 0.0
O458 O 0.69504 0.32166 0.02333 0.0
In459 In 0.68818 0.19783 0.25236 0.0
O460 O 0.65585 0.18361 0.26389 0.0
O461 O 0.68859 0.19292 0.27362 0.0
C462 C 0.66883 0.17704 0.23153 0.0
C463 C 0.73267 0.17836 0.25636 0.0
C464 C 0.68497 0.24635 0.24768 0.0
O465 O 0.65574 0.18593 0.24015 0.0
O466 O 0.69155 0.17836 0.23348 0.0
O467 O 0.69845 0.23223 0.24139 0.0
O468 O 0.67387 0.2362 0.25664 0.0
C469 C 0.66702 0.18478 0.27426 0.0
O470 O 0.72926 0.20122 0.256 0.0
O471 O 0.71373 0.16557 0.25455 0.0
H472 H 0.05826 0.88733 0.31255 0.0
H473 H 0.08516 0.85972 0.30066 0.0
H474 H 0.12377 0.92188 0.28553 0.0
H475 H 0.09702 0.94942 0.29733 0.0
H476 H 0.11451 0.88494 0.26763 0.0
H477 H 0.14611 0.8941 0.31039 0.0
H478 H 0.1427 0.89095 0.33345 0.0
H479 H 0.12847 0.81402 0.33029 0.0
H480 H 0.13147 0.81681 0.30718 0.0
H481 H 0.23598 0.85976 0.25314 0.0
H482 H 0.19604 0.87303 0.26061 0.0
H483 H 0.18253 0.80117 0.27582 0.0
H484 H 0.22317 0.78792 0.26865 0.0
H485 H 0.17204 0.83416 0.29259 0.0
H486 H 0.14944 0.82336 0.25005 0.0
H487 H 0.15292 0.82624 0.22699 0.0
H488 H 0.1492 0.90449 0.22921 0.0
H489 H 0.14607 0.90214 0.2523 0.0
C490 C 0.07228 0.89503 0.30654 0.0
C491 C 0.07577 0.92045 0.30592 0.0
C492 C 0.08762 0.87929 0.29979 0.0
C493 C 0.10647 0.88881 0.29228 0.0
C494 C 0.10928 0.91421 0.29126 0.0
C495 C 0.09416 0.92989 0.29808 0.0
C496 C 0.12453 0.87261 0.28613 0.0
C497 C 0.12712 0.87377 0.27303 0.0
C498 C 0.14031 0.8574 0.29319 0.0
C499 C 0.1387 0.85572 0.30707 0.0
C500 C 0.14206 0.87656 0.31461 0.0
C501 C 0.14023 0.87483 0.32769 0.0
C502 C 0.13529 0.85231 0.33333 0.0
C503 C 0.13224 0.83146 0.32591 0.0
C504 C 0.134 0.8331 0.31282 0.0
C505 C 0.2244 0.84664 0.25792 0.0
C506 C 0.2327 0.82281 0.26034 0.0
C507 C 0.20144 0.85421 0.26211 0.0
C508 C 0.18605 0.83799 0.2686 0.0
C509 C 0.19404 0.81395 0.27077 0.0
C510 C 0.21721 0.8064 0.26666 0.0
C511 C 0.16272 0.84709 0.27404 0.0
C512 C 0.15909 0.84466 0.28704 0.0
C513 C 0.14588 0.86099 0.26685 0.0
C514 C 0.1476 0.86255 0.25294 0.0
C515 C 0.1495 0.8412 0.24563 0.0
C516 C 0.1514 0.84274 0.23255 0.0
C517 C 0.1513 0.86553 0.22664 0.0
C518 C 0.14926 0.88684 0.2338 0.0
C519 C 0.14737 0.88541 0.24689 0.0
H520 H 0.15278 0.86668 0.21652 0.0
H521 H 0.13388 0.85101 0.34346 0.0
H522 H 0.04826 0.60684 0.55463 0.0
H523 H 0.07194 0.63666 0.54272 0.0
H524 H 0.13547 0.59006 0.54462 0.0
H525 H 0.1116 0.55919 0.55585 0.0
H526 H 0.1374 0.64608 0.55303 0.0
H527 H 0.11832 0.58956 0.51916 0.0
H528 H 0.09 0.56419 0.50666 0.0
H529 H 0.04792 0.62787 0.49715 0.0
H530 H 0.07578 0.65357 0.50976 0.0
H531 H 0.2054 0.72936 0.51621 0.0
H532 H 0.19006 0.69014 0.52404 0.0
H533 H 0.1174 0.70868 0.51111 0.0
H534 H 0.13276 0.7473 0.50291 0.0
H535 H 0.12428 0.66249 0.50764 0.0
H536 H 0.13605 0.7182 0.54181 0.0
H537 H 0.15894 0.74667 0.5554 0.0
H538 H 0.20826 0.689 0.56587 0.0
H539 H 0.18591 0.66027 0.55213 0.0
C540 C 0.06709 0.60254 0.55231 0.0
C541 C 0.07791 0.58043 0.55621 0.0
C542 C 0.08063 0.61975 0.54559 0.0
C543 C 0.10533 0.61542 0.54282 0.0
C544 C 0.11638 0.59363 0.54673 0.0
C545 C 0.10272 0.57613 0.55324 0.0
C546 C 0.11958 0.63415 0.53607 0.0
C547 C 0.13508 0.64939 0.54304 0.0
C548 C 0.11564 0.63884 0.52318 0.0
C549 C 0.09901 0.62344 0.5155 0.0
C550 C 0.1029 0.59812 0.5145 0.0
C551 C 0.08696 0.58369 0.50737 0.0
C552 C 0.06714 0.5944 0.50114 0.0
C553 C 0.06326 0.61959 0.50199 0.0
C554 C 0.07914 0.6341 0.50912 0.0
C555 C 0.18626 0.72483 0.51486 0.0
C556 C 0.17022 0.74143 0.50905 0.0
C557 C 0.17749 0.7025 0.51939 0.0
C558 C 0.15248 0.69667 0.51837 0.0
C559 C 0.13676 0.71275 0.51201 0.0
C560 C 0.14555 0.73488 0.50736 0.0
C561 C 0.14221 0.67469 0.52459 0.0
C562 C 0.12721 0.65893 0.51756 0.0
C563 C 0.14601 0.66996 0.53755 0.0
C564 C 0.15951 0.68717 0.54582 0.0
C565 C 0.15191 0.71164 0.54693 0.0
C566 C 0.16475 0.72782 0.55467 0.0
C567 C 0.18506 0.71967 0.56149 0.0
C568 C 0.19255 0.6953 0.56057 0.0
C569 C 0.17981 0.67906 0.5528 0.0
H570 H 0.19496 0.73221 0.5675 0.0
H571 H 0.05482 0.5832 0.49562 0.0
H572 H 0.44332 0.60777 0.80383 0.0
H573 H 0.41423 0.6318 0.79142 0.0
H574 H 0.36507 0.57024 0.79001 0.0
H575 H 0.39321 0.54648 0.80292 0.0
H576 H 0.37342 0.59597 0.76608 0.0
H577 H 0.35283 0.61022 0.81024 0.0
H578 H 0.36278 0.62342 0.83181 0.0
H579 H 0.38248 0.69457 0.81813 0.0
H580 H 0.37298 0.68163 0.79643 0.0
H581 H 0.25271 0.63045 0.75432 0.0
H582 H 0.2924 0.61525 0.76117 0.0
H583 H 0.31698 0.6892 0.76759 0.0
H584 H 0.27666 0.70453 0.76116 0.0
H585 H 0.32774 0.66316 0.78688 0.0
H586 H 0.34139 0.65247 0.74341 0.0
H587 H 0.3327 0.64042 0.72153 0.0
H588 H 0.32858 0.56514 0.73268 0.0
H589 H 0.33689 0.57675 0.75467 0.0
C590 C 0.42623 0.59936 0.801 0.0
C591 C 0.42065 0.57513 0.80445 0.0
C592 C 0.40978 0.61307 0.7938 0.0
C593 C 0.38763 0.60269 0.7898 0.0
C594 C 0.38223 0.57843 0.79292 0.0
C595 C 0.39844 0.56485 0.80027 0.0
C596 C 0.3693 0.61734 0.78291 0.0
C597 C 0.36334 0.61067 0.77057 0.0
C598 C 0.35697 0.63708 0.78867 0.0
C599 C 0.36252 0.64487 0.80171 0.0
C600 C 0.35951 0.6286 0.81182 0.0
C601 C 0.36502 0.63605 0.82407 0.0
C602 C 0.37334 0.65979 0.82634 0.0
C603 C 0.37609 0.67616 0.81635 0.0
C604 C 0.37064 0.66879 0.80408 0.0
C605 C 0.26667 0.64353 0.757 0.0
C606 C 0.26158 0.66867 0.75723 0.0
C607 C 0.28948 0.63481 0.76083 0.0
C608 C 0.30789 0.65107 0.76473 0.0
C609 C 0.3031 0.6763 0.76459 0.0
C610 C 0.2801 0.68504 0.76089 0.0
C611 C 0.33111 0.64139 0.77004 0.0
C612 C 0.33808 0.64894 0.78215 0.0
C613 C 0.34461 0.62268 0.76396 0.0
C614 C 0.33966 0.61553 0.75072 0.0
C615 C 0.33847 0.63336 0.74122 0.0
C616 C 0.33364 0.6266 0.72879 0.0
C617 C 0.33006 0.60204 0.72572 0.0
C618 C 0.33136 0.58417 0.73508 0.0
C619 C 0.33618 0.59082 0.74752 0.0
H620 H 0.32631 0.59685 0.71609 0.0
H621 H 0.37758 0.66553 0.83583 0.0
H622 H 0.40896 0.90247 0.07636 0.0
H623 H 0.38242 0.87412 0.06494 0.0
H624 H 0.41657 0.89536 0.03 0.0
H625 H 0.44247 0.92453 0.04142 0.0
H626 H 0.36971 0.88852 0.02618 0.0
H627 H 0.4334 0.84255 0.04583 0.0
H628 H 0.45983 0.82845 0.06318 0.0
H629 H 0.39693 0.80029 0.0826 0.0
H630 H 0.37006 0.81455 0.06545 0.0
H631 H 0.345 0.7731 0.99478 0.0
H632 H 0.3626 0.81028 0.00395 0.0
H633 H 0.3167 0.80159 0.03662 0.0
H634 H 0.29877 0.76472 0.02748 0.0
H635 H 0.36878 0.80261 0.04105 0.0
H636 H 0.30576 0.84779 0.01943 0.0
H637 H 0.28188 0.86064 0.0009 0.0
H638 H 0.3473 0.88818 0.98353 0.0
H639 H 0.37164 0.87516 0.00189 0.0
C640 C 0.41066 0.90111 0.06624 0.0
C641 C 0.42786 0.91538 0.05975 0.0
C642 C 0.39556 0.88493 0.05972 0.0
C643 C 0.39788 0.88221 0.04664 0.0
C644 C 0.41451 0.89709 0.04009 0.0
C645 C 0.42932 0.91365 0.0466 0.0
C646 C 0.38369 0.86313 0.03992 0.0
C647 C 0.36971 0.86969 0.02935 0.0
C648 C 0.38357 0.83855 0.04409 0.0
C649 C 0.39969 0.82984 0.05441 0.0
C650 C 0.42518 0.83351 0.05385 0.0
C651 C 0.44024 0.82547 0.06364 0.0
C652 C 0.43006 0.81354 0.074 0.0
C653 C 0.40479 0.80957 0.07458 0.0
C654 C 0.38963 0.81761 0.06482 0.0
C655 C 0.33823 0.77948 0.00377 0.0
C656 C 0.32066 0.76595 0.01047 0.0
C657 C 0.34825 0.80071 0.00897 0.0
C658 C 0.34095 0.80853 0.02095 0.0
C659 C 0.3225 0.79578 0.02735 0.0
C660 C 0.31227 0.77477 0.0221 0.0
C661 C 0.35459 0.82809 0.02747 0.0
C662 C 0.36867 0.8215 0.03795 0.0
C663 C 0.35518 0.85241 0.02303 0.0
C664 C 0.34056 0.86027 0.01199 0.0
C665 C 0.3151 0.85637 0.01161 0.0
C666 C 0.30147 0.86374 0.00115 0.0
C667 C 0.31307 0.87516 0.99103 0.0
C668 C 0.33833 0.8793 0.99137 0.0
C669 C 0.35205 0.87195 0.00181 0.0
H670 H 0.30249 0.88085 0.98294 0.0
H671 H 0.44175 0.80732 0.08157 0.0
H672 H 0.10176 0.54343 0.95215 0.0
H673 H 0.12877 0.56894 0.96493 0.0
H674 H 0.0843 0.63206 0.95654 0.0
H675 H 0.05716 0.60651 0.94361 0.0
H676 H 0.13408 0.63955 0.95258 0.0
H677 H 0.08259 0.61038 0.9854 0.0
H678 H 0.05981 0.57968 0.99767 0.0
H679 H 0.1272 0.54342 0.007 0.0
H680 H 0.15037 0.57368 0.99462 0.0
H681 H 0.21863 0.70542 0.99041 0.0
H682 H 0.17883 0.68975 0.98339 0.0
H683 H 0.20365 0.61598 0.99003 0.0
H684 H 0.24303 0.6315 0.99734 0.0
H685 H 0.15708 0.62037 0.99662 0.0
H686 H 0.20684 0.64314 0.96066 0.0
H687 H 0.23077 0.67177 0.94763 0.0
H688 H 0.16762 0.71797 0.94363 0.0
H689 H 0.1434 0.68973 0.95677 0.0
C690 C 0.09772 0.56273 0.95305 0.0
C691 C 0.07748 0.57306 0.94686 0.0
C692 C 0.113 0.57723 0.96045 0.0
C693 C 0.10835 0.60231 0.96177 0.0
C694 C 0.08805 0.61269 0.95568 0.0
C695 C 0.07258 0.59811 0.94836 0.0
C696 C 0.1258 0.61772 0.96887 0.0
C697 C 0.1387 0.63583 0.96232 0.0
C698 C 0.13206 0.61247 0.98149 0.0
C699 C 0.11821 0.59426 0.98902 0.0
C700 C 0.09255 0.59576 0.98999 0.0
C701 C 0.07956 0.57845 0.99698 0.0
C702 C 0.09205 0.55959 0.0031 0.0
C703 C 0.11755 0.55804 0.00225 0.0
C704 C 0.13063 0.5753 0.99527 0.0
C705 C 0.21542 0.68589 0.99053 0.0
C706 C 0.23397 0.66964 0.9943 0.0
C707 C 0.19273 0.67697 0.98649 0.0
C708 C 0.18842 0.65168 0.98601 0.0
C709 C 0.20656 0.63555 0.99032 0.0
C710 C 0.22911 0.64445 0.99444 0.0
C711 C 0.16586 0.64166 0.98021 0.0
C712 C 0.15203 0.62455 0.987 0.0
C713 C 0.15891 0.6476 0.96775 0.0
C714 C 0.17342 0.66451 0.95982 0.0
C715 C 0.19812 0.6595 0.95707 0.0
C716 C 0.21172 0.67564 0.94966 0.0
C717 C 0.20074 0.69672 0.94484 0.0
C718 C 0.17611 0.70167 0.94739 0.0
C719 C 0.16244 0.68561 0.95482 0.0
H720 H 0.2113 0.70919 0.9391 0.0
H721 H 0.08196 0.5462 0.0085 0.0
H722 H 0.44748 0.59853 0.20446 0.0
H723 H 0.41918 0.62482 0.21614 0.0
H724 H 0.35791 0.59171 0.19698 0.0
H725 H 0.38627 0.56496 0.18539 0.0
H726 H 0.36027 0.64499 0.19649 0.0
H727 H 0.36169 0.5787 0.22567 0.0
H728 H 0.38095 0.54706 0.23888 0.0
H729 H 0.41866 0.60246 0.25993 0.0
H730 H 0.39992 0.63444 0.24672 0.0
H731 H 0.2868 0.72701 0.23175 0.0
H732 H 0.30021 0.68765 0.22313 0.0
H733 H 0.36889 0.69458 0.24296 0.0
H734 H 0.35539 0.73334 0.25182 0.0
H735 H 0.3549 0.64858 0.24302 0.0
H736 H 0.36162 0.71312 0.21217 0.0
H737 H 0.34585 0.74634 0.19876 0.0
H738 H 0.29705 0.69601 0.18051 0.0
H739 H 0.3122 0.66257 0.19401 0.0
C740 C 0.42795 0.59676 0.20283 0.0
C741 C 0.41896 0.57985 0.19404 0.0
C742 C 0.41184 0.61164 0.20953 0.0
C743 C 0.38651 0.61004 0.20745 0.0
C744 C 0.37742 0.59305 0.19874 0.0
C745 C 0.39355 0.57782 0.19217 0.0
C746 C 0.36993 0.62733 0.21388 0.0
C747 C 0.3585 0.64545 0.20665 0.0
C748 C 0.36825 0.62815 0.22713 0.0
C749 C 0.37948 0.60897 0.23515 0.0
C750 C 0.37423 0.58414 0.23305 0.0
C751 C 0.38503 0.56614 0.24055 0.0
C752 C 0.40105 0.57275 0.25023 0.0
C753 C 0.40625 0.59737 0.25243 0.0
C754 C 0.39551 0.61545 0.24495 0.0
C755 C 0.30457 0.71988 0.23442 0.0
C756 C 0.32017 0.73333 0.24234 0.0
C757 C 0.31223 0.69746 0.22948 0.0
C758 C 0.33572 0.68837 0.23224 0.0
C759 C 0.35071 0.7012 0.24069 0.0
C760 C 0.343 0.72344 0.2457 0.0
C761 C 0.34572 0.66667 0.22566 0.0
C762 C 0.35604 0.64777 0.23285 0.0
C763 C 0.34681 0.66538 0.21237 0.0
C764 C 0.33779 0.68543 0.20421 0.0
C765 C 0.34738 0.70919 0.20537 0.0
C766 C 0.33857 0.72805 0.19774 0.0
C767 C 0.32042 0.72329 0.1888 0.0
C768 C 0.31107 0.69967 0.18746 0.0
C769 C 0.31973 0.68076 0.1951 0.0
H770 H 0.31363 0.7379 0.1829 0.0
H771 H 0.40939 0.55878 0.25602 0.0
H772 H 0.44133 0.89024 0.44409 0.0
H773 H 0.41245 0.86649 0.45687 0.0
H774 H 0.36992 0.93165 0.46363 0.0
H775 H 0.39874 0.95544 0.451 0.0
H776 H 0.37622 0.90305 0.48513 0.0
H777 H 0.35267 0.89342 0.44124 0.0
H778 H 0.3601 0.88169 0.41918 0.0
H779 H 0.37646 0.80829 0.43073 0.0
H780 H 0.36943 0.8197 0.45289 0.0
H781 H 0.25442 0.87304 0.49751 0.0
H782 H 0.29415 0.88712 0.4901 0.0
H783 H 0.3164 0.81251 0.4835 0.0
H784 H 0.2761 0.79827 0.49062 0.0
H785 H 0.32647 0.83942 0.46383 0.0
H786 H 0.34253 0.84727 0.50744 0.0
H787 H 0.33479 0.85887 0.52947 0.0
H788 H 0.33314 0.93463 0.51902 0.0
H789 H 0.34052 0.92349 0.49688 0.0
C790 C 0.42596 0.89949 0.44843 0.0
C791 C 0.42211 0.92461 0.44649 0.0
C792 C 0.40948 0.88593 0.45568 0.0
C793 C 0.38903 0.89734 0.46112 0.0
C794 C 0.38562 0.92254 0.45951 0.0
C795 C 0.40194 0.93604 0.45221 0.0
C796 C 0.37034 0.88303 0.46798 0.0
C797 C 0.36528 0.88913 0.48051 0.0
C798 C 0.35672 0.86433 0.46204 0.0
C799 C 0.36083 0.85748 0.44872 0.0
C800 C 0.35806 0.87483 0.43908 0.0
C801 C 0.36216 0.86824 0.42656 0.0
C802 C 0.36883 0.84429 0.42356 0.0
C803 C 0.37134 0.82686 0.43307 0.0
C804 C 0.3673 0.83337 0.44561 0.0
C805 C 0.26786 0.85957 0.49465 0.0
C806 C 0.26216 0.83455 0.49463 0.0
C807 C 0.29067 0.86765 0.49049 0.0
C808 C 0.30843 0.85086 0.48642 0.0
C809 C 0.303 0.82577 0.48666 0.0
C810 C 0.28003 0.81767 0.49075 0.0
C811 C 0.33173 0.85989 0.48095 0.0
C812 C 0.33772 0.85284 0.46864 0.0
C813 C 0.34627 0.87765 0.48714 0.0
C814 C 0.34198 0.8845 0.50047 0.0
C815 C 0.34037 0.8664 0.50982 0.0
C816 C 0.33606 0.8729 0.52233 0.0
C817 C 0.33345 0.89747 0.52564 0.0
C818 C 0.33518 0.9156 0.51644 0.0
C819 C 0.33947 0.9092 0.50391 0.0
H820 H 0.3301 0.90246 0.53534 0.0
H821 H 0.37199 0.83921 0.41386 0.0
H822 H 0.10623 0.94146 0.69771 0.0
H823 H 0.13123 0.9136 0.71044 0.0
H824 H 0.067 0.87056 0.71869 0.0
H825 H 0.04193 0.89841 0.70611 0.0
H826 H 0.09762 0.87753 0.73962 0.0
H827 H 0.10347 0.85349 0.69558 0.0
H828 H 0.11311 0.86091 0.67326 0.0
H829 H 0.18745 0.8783 0.68306 0.0
H830 H 0.17812 0.8713 0.70547 0.0
H831 H 0.13001 0.75633 0.75143 0.0
H832 H 0.11496 0.79614 0.74481 0.0
H833 H 0.18869 0.81825 0.73549 0.0
H834 H 0.20382 0.77784 0.74175 0.0
H835 H 0.15981 0.82824 0.71693 0.0
H836 H 0.15617 0.84472 0.76057 0.0
H837 H 0.1469 0.83738 0.78293 0.0
H838 H 0.06995 0.83521 0.77457 0.0
H839 H 0.07874 0.84218 0.75212 0.0
C840 C 0.09743 0.92624 0.7024 0.0
C841 C 0.0722 0.92193 0.70085 0.0
C842 C 0.11171 0.91034 0.70961 0.0
C843 C 0.10094 0.88999 0.71543 0.0
C844 C 0.07562 0.8862 0.71428 0.0
C845 C 0.06139 0.90195 0.70701 0.0
C846 C 0.11609 0.87161 0.72202 0.0
C847 C 0.11123 0.86668 0.73471 0.0
C848 C 0.13441 0.85814 0.71567 0.0
C849 C 0.14003 0.86217 0.7022 0.0
C850 C 0.12181 0.85909 0.69298 0.0
C851 C 0.12723 0.86319 0.68031 0.0
C852 C 0.15086 0.87016 0.67675 0.0
C853 C 0.16914 0.87296 0.68584 0.0
C854 C 0.1638 0.86892 0.69852 0.0
C855 C 0.14311 0.76979 0.74817 0.0
C856 C 0.16808 0.76397 0.74707 0.0
C857 C 0.13449 0.79266 0.74447 0.0
C858 C 0.15072 0.81038 0.73981 0.0
C859 C 0.17584 0.8049 0.73911 0.0
C860 C 0.18446 0.78185 0.7427 0.0
C861 C 0.14092 0.83351 0.73454 0.0
C862 C 0.14672 0.83938 0.72204 0.0
C863 C 0.12359 0.84795 0.74111 0.0
C864 C 0.11815 0.84387 0.75463 0.0
C865 C 0.13727 0.84252 0.76348 0.0
C866 C 0.1321 0.83845 0.77618 0.0
C867 C 0.10785 0.8358 0.78016 0.0
C868 C 0.08872 0.83727 0.77146 0.0
C869 C 0.09379 0.84133 0.75875 0.0
H870 H 0.10389 0.83264 0.79 0.0
H871 H 0.15502 0.87332 0.66693 0.0
H872 H 0.55724 0.39007 0.81086 0.0
H873 H 0.58452 0.36469 0.79792 0.0
H874 H 0.62515 0.42897 0.78715 0.0
H875 H 0.59806 0.45431 0.80003 0.0
H876 H 0.61532 0.39627 0.76695 0.0
H877 H 0.64619 0.39554 0.81009 0.0
H878 H 0.64228 0.38757 0.83282 0.0
H879 H 0.62647 0.3121 0.82528 0.0
H880 H 0.62997 0.31974 0.80248 0.0
H881 H 0.73637 0.37024 0.75146 0.0
H882 H 0.69647 0.38315 0.75914 0.0
H883 H 0.68077 0.30929 0.7709 0.0
H884 H 0.72136 0.29638 0.76355 0.0
H885 H 0.67102 0.33896 0.78909 0.0
H886 H 0.64849 0.33751 0.74622 0.0
H887 H 0.6521 0.34483 0.72344 0.0
H888 H 0.65071 0.42231 0.72975 0.0
H889 H 0.64745 0.41549 0.7526 0.0
C890 C 0.57185 0.39874 0.80562 0.0
C891 C 0.57573 0.42408 0.8065 0.0
C892 C 0.58739 0.38427 0.79827 0.0
C893 C 0.60682 0.39501 0.79163 0.0
C894 C 0.61019 0.42038 0.79219 0.0
C895 C 0.59488 0.43478 0.79963 0.0
C896 C 0.62473 0.37989 0.78468 0.0
C897 C 0.62755 0.38371 0.77173 0.0
C898 C 0.63996 0.36285 0.7909 0.0
C899 C 0.63802 0.35827 0.80459 0.0
C900 C 0.64168 0.3773 0.81328 0.0
C901 C 0.63957 0.37284 0.82617 0.0
C902 C 0.63405 0.34936 0.83049 0.0
C903 C 0.63069 0.33029 0.82192 0.0
C904 C 0.63274 0.33467 0.80901 0.0
C905 C 0.72429 0.35663 0.75548 0.0
C906 C 0.732 0.33231 0.75694 0.0
C907 C 0.70134 0.364 0.7598 0.0
C908 C 0.68539 0.34714 0.76545 0.0
C909 C 0.69272 0.32261 0.76652 0.0
C910 C 0.71586 0.31524 0.76231 0.0
C911 C 0.66232 0.35588 0.77132 0.0
C912 C 0.65847 0.35093 0.78413 0.0
C913 C 0.64598 0.3717 0.76492 0.0
C914 C 0.64782 0.37596 0.75116 0.0
C915 C 0.6491 0.35612 0.74277 0.0
C916 C 0.65107 0.36018 0.72984 0.0
C917 C 0.65165 0.38402 0.72515 0.0
C918 C 0.65023 0.40385 0.73339 0.0
C919 C 0.64828 0.3999 0.74634 0.0
H920 H 0.65319 0.38712 0.71514 0.0
H921 H 0.63243 0.34594 0.84047 0.0
H922 H 0.61428 0.05335 0.05711 0.0
H923 H 0.63861 0.08258 0.045 0.0
H924 H 0.57429 0.12682 0.03906 0.0
H925 H 0.55008 0.09864 0.05168 0.0
H926 H 0.60553 0.11791 0.01678 0.0
H927 H 0.60878 0.14403 0.0608 0.0
H928 H 0.61805 0.1373 0.08323 0.0
H929 H 0.69305 0.1216 0.07405 0.0
H930 H 0.6841 0.1279 0.05152 0.0
H931 H 0.63194 0.23964 0.00392 0.0
H932 H 0.61899 0.19932 0.01081 0.0
H933 H 0.69329 0.18232 0.02171 0.0
H934 H 0.70624 0.22332 0.0152 0.0
H935 H 0.66434 0.17075 0.03976 0.0
H936 H 0.66398 0.1526 0.99641 0.0
H937 H 0.65593 0.15832 0.9738 0.0
H938 H 0.57843 0.15672 0.9807 0.0
H939 H 0.58598 0.15135 0.00339 0.0
C940 C 0.60529 0.06939 0.05334 0.0
C941 C 0.58015 0.07362 0.05546 0.0
C942 C 0.61921 0.0859 0.04631 0.0
C943 C 0.60816 0.10672 0.04114 0.0
C944 C 0.58303 0.11067 0.04289 0.0
C945 C 0.56921 0.09443 0.05008 0.0
C946 C 0.62288 0.12534 0.03453 0.0
C947 C 0.61842 0.12954 0.02174 0.0
C948 C 0.64033 0.13974 0.04096 0.0
C949 C 0.64571 0.13611 0.05448 0.0
C950 C 0.62719 0.13891 0.06356 0.0
C951 C 0.63239 0.13522 0.07628 0.0
C952 C 0.6561 0.12894 0.08006 0.0
C953 C 0.67468 0.12641 0.07111 0.0
C954 C 0.66955 0.13004 0.05836 0.0
C955 C 0.64563 0.2272 0.00759 0.0
C956 C 0.67009 0.23464 0.00906 0.0
C957 C 0.63823 0.20402 0.01145 0.0
C958 C 0.65521 0.18756 0.01662 0.0
C959 C 0.67987 0.19467 0.01771 0.0
C960 C 0.68726 0.21805 0.01397 0.0
C961 C 0.64651 0.16406 0.02197 0.0
C962 C 0.65203 0.15886 0.03459 0.0
C963 C 0.63029 0.14853 0.0153 0.0
C964 C 0.62557 0.15167 0.00164 0.0
C965 C 0.64521 0.15362 0.99313 0.0
C966 C 0.64074 0.15678 0.98029 0.0
C967 C 0.61668 0.1579 0.97582 0.0
C968 C 0.59705 0.15583 0.98418 0.0
C969 C 0.60142 0.15268 0.99703 0.0
H970 H 0.61326 0.16036 0.96588 0.0
H971 H 0.6601 0.1261 0.08991 0.0
H972 H 0.94085 0.10204 0.30114 0.0
H973 H 0.90997 0.1247 0.2892 0.0
H974 H 0.85867 0.06562 0.29426 0.0
H975 H 0.88898 0.0432 0.30656 0.0
H976 H 0.86055 0.08437 0.26934 0.0
H977 H 0.85382 0.11282 0.31249 0.0
H978 H 0.87006 0.13088 0.33204 0.0
H979 H 0.89033 0.19586 0.31196 0.0
H980 H 0.87451 0.178 0.29225 0.0
H981 H 0.74214 0.13042 0.26081 0.0
H982 H 0.7806 0.1122 0.26764 0.0
H983 H 0.81584 0.18271 0.2656 0.0
H984 H 0.77693 0.20127 0.25913 0.0
H985 H 0.82707 0.16162 0.28673 0.0
H986 H 0.82892 0.13616 0.24411 0.0
H987 H 0.81329 0.11858 0.22433 0.0
H988 H 0.80361 0.04912 0.24241 0.0
H989 H 0.81885 0.06635 0.26235 0.0
C990 C 0.92294 0.09393 0.29981 0.0
C991 C 0.91739 0.07082 0.30487 0.0
C992 C 0.90542 0.10683 0.29291 0.0
C993 C 0.8821 0.0968 0.29089 0.0
C994 C 0.87666 0.07356 0.29566 0.0
C995 C 0.89406 0.06075 0.30265 0.0
C996 C 0.86291 0.11082 0.28426 0.0
C997 C 0.8531 0.10122 0.27312 0.0
C998 C 0.8539 0.13319 0.28902 0.0
C999 C 0.86327 0.14396 0.30088 0.0
C1000 C 0.86194 0.13087 0.31223 0.0
C1001 C 0.87103 0.14108 0.32334 0.0
C1002 C 0.8813 0.16447 0.32323 0.0
C1003 C 0.88242 0.17772 0.31202 0.0
C1004 C 0.87339 0.16757 0.30088 0.0
C1005 C 0.75813 0.14203 0.26167 0.0
C1006 C 0.75656 0.16727 0.25944 0.0
C1007 C 0.78019 0.13155 0.2655 0.0
C1008 C 0.80126 0.146 0.26695 0.0
C1009 C 0.79984 0.17119 0.2645 0.0
C1010 C 0.77765 0.18176 0.26078 0.0
C1011 C 0.82414 0.13494 0.27187 0.0
C1012 C 0.83472 0.14505 0.28273 0.0
C1013 C 0.834 0.11313 0.26677 0.0
C1014 C 0.82491 0.10261 0.25476 0.0
C1015 C 0.82331 0.11718 0.2439 0.0
C1016 C 0.81454 0.10727 0.23265 0.0
C1017 C 0.80743 0.08276 0.23212 0.0
C1018 C 0.80912 0.0681 0.24283 0.0
C1019 C 0.81787 0.07792 0.25411 0.0
H1020 H 0.80064 0.07513 0.2234 0.0
H1021 H 0.88832 0.17235 0.33185 0.0
H1022 H 0.89365 0.44184 0.55665 0.0
H1023 H 0.86788 0.41481 0.54381 0.0
H1024 H 0.93147 0.37185 0.53418 0.0
H1025 H 0.95724 0.39883 0.54685 0.0
H1026 H 0.90012 0.37961 0.51379 0.0
H1027 H 0.89585 0.35433 0.55777 0.0
H1028 H 0.88684 0.36123 0.58021 0.0
H1029 H 0.81222 0.37881 0.57109 0.0
H1030 H 0.82091 0.37233 0.54856 0.0
H1031 H 0.87053 0.25777 0.50241 0.0
H1032 H 0.88459 0.29801 0.50894 0.0
H1033 H 0.81033 0.31851 0.51812 0.0
H1034 H 0.79617 0.27775 0.51188 0.0
H1035 H 0.83936 0.32916 0.53679 0.0
H1036 H 0.84153 0.34573 0.49319 0.0
H1037 H 0.85032 0.33863 0.47075 0.0
H1038 H 0.92753 0.33814 0.47854 0.0
H1039 H 0.91923 0.34488 0.50105 0.0
C1040 C 0.90213 0.42683 0.55163 0.0
C1041 C 0.92737 0.42223 0.55283 0.0
C1042 C 0.88741 0.41141 0.54435 0.0
C1043 C 0.89779 0.39129 0.53812 0.0
C1044 C 0.92314 0.38731 0.5389 0.0
C1045 C 0.93778 0.40257 0.54623 0.0
C1046 C 0.8823 0.37321 0.53152 0.0
C1047 C 0.88679 0.36854 0.51877 0.0
C1048 C 0.86433 0.35943 0.53795 0.0
C1049 C 0.8591 0.36316 0.55149 0.0
C1050 C 0.87758 0.35986 0.56055 0.0
C1051 C 0.87252 0.36366 0.57328 0.0
C1052 C 0.84899 0.37054 0.57707 0.0
C1053 C 0.83045 0.37355 0.56814 0.0
C1054 C 0.83542 0.36981 0.55539 0.0
C1055 C 0.85711 0.27095 0.50563 0.0
C1056 C 0.83227 0.2646 0.50668 0.0
C1057 C 0.86515 0.29406 0.50928 0.0
C1058 C 0.84848 0.31146 0.51387 0.0
C1059 C 0.8235 0.30542 0.51456 0.0
C1060 C 0.81544 0.28217 0.51098 0.0
C1061 C 0.85772 0.33486 0.51908 0.0
C1062 C 0.85211 0.34057 0.53162 0.0
C1063 C 0.87456 0.34967 0.5124 0.0
C1064 C 0.87972 0.34572 0.49884 0.0
C1065 C 0.86038 0.34396 0.49014 0.0
C1066 C 0.86528 0.34002 0.4774 0.0
C1067 C 0.88946 0.33791 0.47323 0.0
C1068 C 0.90881 0.33979 0.48178 0.0
C1069 C 0.90401 0.34372 0.49453 0.0
H1070 H 0.89322 0.33485 0.46336 0.0
H1071 H 0.84511 0.37347 0.58694 0.0
H1072 H 0.61024 0.04332 0.44784 0.0
H1073 H 0.63878 0.06669 0.4607 0.0
H1074 H 0.58795 0.12697 0.46175 0.0
H1075 H 0.55859 0.10328 0.4493 0.0
H1076 H 0.63753 0.13927 0.45487 0.0
H1077 H 0.5939 0.0976 0.48737 0.0
H1078 H 0.5754 0.06197 0.49789 0.0
H1079 H 0.64614 0.02804 0.50072 0.0
H1080 H 0.66504 0.06331 0.49005 0.0
H1081 H 0.72354 0.20032 0.49389 0.0
H1082 H 0.68411 0.18372 0.4869 0.0
H1083 H 0.71426 0.11081 0.4881 0.0
H1084 H 0.75323 0.12718 0.49549 0.0
H1085 H 0.66904 0.1096 0.49589 0.0
H1086 H 0.71136 0.14561 0.46046 0.0
H1087 H 0.73141 0.17901 0.44878 0.0
H1088 H 0.66505 0.22112 0.45026 0.0
H1089 H 0.6447 0.18806 0.46209 0.0
C1090 C 0.6048 0.06133 0.45099 0.0
C1091 C 0.58196 0.0713 0.44758 0.0
C1092 C 0.62123 0.07471 0.45829 0.0
C1093 C 0.61532 0.09842 0.46225 0.0
C1094 C 0.59275 0.10864 0.45879 0.0
C1095 C 0.5761 0.09512 0.4516 0.0
C1096 C 0.63336 0.11264 0.46959 0.0
C1097 C 0.64407 0.13319 0.46398 0.0
C1098 C 0.64214 0.10427 0.48133 0.0
C1099 C 0.63087 0.08306 0.48783 0.0
C1100 C 0.6055 0.08247 0.49015 0.0
C1101 C 0.59494 0.06234 0.49616 0.0
C1102 C 0.60958 0.04274 0.49996 0.0
C1103 C 0.63482 0.04324 0.49778 0.0
C1104 C 0.64547 0.06331 0.49176 0.0
C1105 C 0.72159 0.18073 0.49282 0.0
C1106 C 0.74147 0.16504 0.49513 0.0
C1107 C 0.69911 0.17128 0.48878 0.0
C1108 C 0.69636 0.14605 0.48676 0.0
C1109 C 0.71593 0.13033 0.48959 0.0
C1110 C 0.73824 0.13972 0.49377 0.0
C1111 C 0.67376 0.13591 0.48101 0.0
C1112 C 0.66219 0.11608 0.48691 0.0
C1113 C 0.66444 0.14469 0.46943 0.0
C1114 C 0.67662 0.16452 0.46229 0.0
C1115 C 0.70111 0.16207 0.45837 0.0
C1116 C 0.71251 0.18092 0.45171 0.0
C1117 C 0.69953 0.20221 0.44882 0.0
C1118 C 0.67509 0.20465 0.45254 0.0
C1119 C 0.66361 0.18586 0.45922 0.0
H1120 H 0.70839 0.21678 0.44366 0.0
H1121 H 0.60137 0.02717 0.5046 0.0
H1122 H 0.89415 0.06187 0.69852 0.0
H1123 H 0.87054 0.09273 0.70999 0.0
H1124 H 0.93151 0.14263 0.70759 0.0
H1125 H 0.95493 0.11233 0.69585 0.0
H1126 H 0.91081 0.14001 0.73163 0.0
H1127 H 0.88489 0.14893 0.68807 0.0
H1128 H 0.86729 0.13385 0.66817 0.0
H1129 H 0.80057 0.11499 0.68723 0.0
H1130 H 0.81793 0.12967 0.70729 0.0
H1131 H 0.86961 0.25912 0.7405 0.0
H1132 H 0.88614 0.22034 0.73322 0.0
H1133 H 0.81377 0.18858 0.73429 0.0
H1134 H 0.79688 0.22794 0.74121 0.0
H1135 H 0.83555 0.17646 0.71334 0.0
H1136 H 0.85863 0.17287 0.7563 0.0
H1137 H 0.87572 0.18753 0.77639 0.0
H1138 H 0.94665 0.19493 0.75936 0.0
H1139 H 0.92994 0.18065 0.73911 0.0
C1140 C 0.90245 0.07949 0.70033 0.0
C1141 C 0.92646 0.0846 0.69626 0.0
C1142 C 0.88899 0.09702 0.70695 0.0
C1143 C 0.89932 0.11991 0.70962 0.0
C1144 C 0.92331 0.12497 0.7057 0.0
C1145 C 0.93669 0.10758 0.69902 0.0
C1146 C 0.88517 0.13898 0.71627 0.0
C1147 C 0.89439 0.14808 0.72764 0.0
C1148 C 0.86326 0.14879 0.71127 0.0
C1149 C 0.85281 0.14011 0.6992 0.0
C1150 C 0.86655 0.14137 0.68804 0.0
C1151 C 0.8566 0.13294 0.67673 0.0
C1152 C 0.83286 0.12339 0.67644 0.0
C1153 C 0.81898 0.12234 0.68747 0.0
C1154 C 0.82886 0.13072 0.69881 0.0
C1155 C 0.85721 0.24384 0.73931 0.0
C1156 C 0.83196 0.24651 0.74147 0.0
C1157 C 0.86672 0.2216 0.73522 0.0
C1158 C 0.85129 0.20137 0.73344 0.0
C1159 C 0.82603 0.20391 0.73567 0.0
C1160 C 0.81643 0.22634 0.73965 0.0
C1161 C 0.86159 0.17812 0.72858 0.0
C1162 C 0.85166 0.16815 0.71753 0.0
C1163 C 0.88275 0.16735 0.73396 0.0
C1164 C 0.89297 0.17579 0.74616 0.0
C1165 C 0.87784 0.17776 0.75681 0.0
C1166 C 0.88747 0.18599 0.76824 0.0
C1167 C 0.91224 0.19218 0.76915 0.0
C1168 C 0.92746 0.19012 0.75864 0.0
C1169 C 0.91793 0.18191 0.74719 0.0
H1170 H 0.91966 0.19856 0.778 0.0
H1171 H 0.82519 0.11687 0.66768 0.0
H1172 H 0.8915 0.45247 0.94753 0.0
H1173 H 0.86193 0.42984 0.96013 0.0
H1174 H 0.91114 0.36827 0.96161 0.0
H1175 H 0.94142 0.39113 0.94936 0.0
H1176 H 0.86219 0.35657 0.95462 0.0
H1177 H 0.90482 0.39907 0.98722 0.0
H1178 H 0.92322 0.43489 0.99764 0.0
H1179 H 0.8527 0.46954 0.99938 0.0
H1180 H 0.83391 0.43409 0.98879 0.0
H1181 H 0.77456 0.29789 0.99403 0.0
H1182 H 0.81406 0.31374 0.98668 0.0
H1183 H 0.78439 0.38688 0.98661 0.0
H1184 H 0.74538 0.37131 0.99431 0.0
H1185 H 0.82928 0.38804 0.99498 0.0
H1186 H 0.7881 0.35064 0.9595 0.0
H1187 H 0.76843 0.31678 0.94798 0.0
H1188 H 0.83465 0.27465 0.95062 0.0
H1189 H 0.8546 0.30819 0.96229 0.0
C1190 C 0.89633 0.4343 0.95071 0.0
C1191 C 0.91895 0.4237 0.94747 0.0
C1192 C 0.87932 0.42136 0.95787 0.0
C1193 C 0.8845 0.39751 0.96188 0.0
C1194 C 0.90689 0.3867 0.9586 0.0
C1195 C 0.92407 0.39975 0.95154 0.0
C1196 C 0.86595 0.38378 0.96912 0.0
C1197 C 0.85533 0.36307 0.96359 0.0
C1198 C 0.85678 0.39264 0.98068 0.0
C1199 C 0.86798 0.41395 0.98713 0.0
C1200 C 0.89325 0.4144 0.98974 0.0
C1201 C 0.90375 0.43463 0.99569 0.0
C1202 C 0.88915 0.45449 0.99915 0.0
C1203 C 0.86399 0.45414 0.99669 0.0
C1204 C 0.8534 0.43397 0.99073 0.0
C1205 C 0.77661 0.31736 0.99255 0.0
C1206 C 0.75689 0.33336 0.99466 0.0
C1207 C 0.79913 0.32638 0.98832 0.0
C1208 C 0.80208 0.35147 0.98593 0.0
C1209 C 0.78258 0.36747 0.98841 0.0
C1210 C 0.76024 0.35853 0.99276 0.0
C1211 C 0.82496 0.3612 0.98031 0.0
C1212 C 0.83643 0.38119 0.98614 0.0
C1213 C 0.83468 0.35189 0.96893 0.0
C1214 C 0.82273 0.33177 0.9619 0.0
C1215 C 0.79839 0.33408 0.9577 0.0
C1216 C 0.78721 0.31497 0.95114 0.0
C1217 C 0.80026 0.29354 0.94861 0.0
C1218 C 0.82454 0.29123 0.95261 0.0
C1219 C 0.8358 0.31028 0.9592 0.0
H1220 H 0.79157 0.27877 0.94352 0.0
H1221 H 0.89731 0.47014 0.00376 0.0
H1222 H 0.60955 0.42617 0.1813 0.0
H1223 H 0.63512 0.39666 0.19236 0.0
H1224 H 0.58537 0.39807 0.22385 0.0
H1225 H 0.56029 0.42866 0.21312 0.0
H1226 H 0.63211 0.39601 0.23177 0.0
H1227 H 0.58221 0.35301 0.20157 0.0
H1228 H 0.56557 0.34444 0.18046 0.0
H1229 H 0.63816 0.33024 0.16671 0.0
H1230 H 0.65527 0.33904 0.18771 0.0
H1231 H 0.65261 0.27833 0.2582 0.0
H1232 H 0.6385 0.31697 0.24931 0.0
H1233 H 0.69127 0.31017 0.21931 0.0
H1234 H 0.70518 0.27123 0.22805 0.0
H1235 H 0.64648 0.3168 0.21032 0.0
H1236 H 0.69588 0.35584 0.24146 0.0
H1237 H 0.71182 0.36394 0.26275 0.0
H1238 H 0.63986 0.38481 0.27505 0.0
H1239 H 0.6234 0.37651 0.25387 0.0
C1240 C 0.60426 0.42063 0.19069 0.0
C1241 C 0.58275 0.42972 0.19629 0.0
C1242 C 0.6188 0.40355 0.19695 0.0
C1243 C 0.61193 0.39488 0.20884 0.0
C1244 C 0.59094 0.40445 0.21465 0.0
C1245 C 0.57647 0.42172 0.20844 0.0
C1246 C 0.62596 0.37497 0.21495 0.0
C1247 C 0.63512 0.3786 0.22715 0.0
C1248 C 0.63033 0.35248 0.20878 0.0
C1249 C 0.62004 0.34694 0.19617 0.0
C1250 C 0.59464 0.34822 0.19402 0.0
C1251 C 0.58512 0.3433 0.18208 0.0
C1252 C 0.6008 0.33687 0.17224 0.0
C1253 C 0.62604 0.33526 0.17433 0.0
C1254 C 0.63565 0.3402 0.18625 0.0
C1255 C 0.66161 0.28535 0.24988 0.0
C1256 C 0.67986 0.27169 0.24376 0.0
C1257 C 0.65359 0.3075 0.24483 0.0
C1258 C 0.66386 0.31648 0.23365 0.0
C1259 C 0.68307 0.30354 0.22793 0.0
C1260 C 0.69104 0.28135 0.23295 0.0
C1261 C 0.65266 0.33773 0.22719 0.0
C1262 C 0.64384 0.3343 0.21492 0.0
C1263 C 0.64854 0.3603 0.23334 0.0
C1264 C 0.65838 0.36537 0.24609 0.0
C1265 C 0.68341 0.36197 0.24872 0.0
C1266 C 0.69255 0.36663 0.26077 0.0
C1267 C 0.67685 0.37483 0.27025 0.0
C1268 C 0.65199 0.37844 0.2677 0.0
C1269 C 0.64276 0.37379 0.25567 0.0
H1270 H 0.68396 0.37843 0.27957 0.0
H1271 H 0.5934 0.33308 0.163 0.0
H1272 H 0.09492 0.90876 0.37134 0.0
H1273 H 0.1155 0.88608 0.38817 0.0
H1274 H 0.09831 0.94385 0.41432 0.0
H1275 H 0.07754 0.96638 0.39769 0.0
H1276 H 0.1451 0.92792 0.41715 0.0
H1277 H 0.06409 0.89238 0.41317 0.0
H1278 H 0.03047 0.87208 0.40172 0.0
H1279 H 0.07758 0.81132 0.39342 0.0
H1280 H 0.11159 0.83144 0.4047 0.0
H1281 H 0.14993 0.8759 0.4773 0.0
H1282 H 0.13624 0.89427 0.45759 0.0
H1283 H 0.1594 0.82997 0.43734 0.0
H1284 H 0.17307 0.81135 0.45711 0.0
H1285 H 0.11414 0.84623 0.4297 0.0
H1286 H 0.19383 0.87965 0.43574 0.0
H1287 H 0.22734 0.89975 0.44735 0.0
H1288 H 0.1833 0.96424 0.45168 0.0
H1289 H 0.14936 0.94439 0.44026 0.0
C1290 C 0.09552 0.9166 0.38068 0.0
C1291 C 0.0846 0.93939 0.38317 0.0
C1292 C 0.10732 0.90366 0.39027 0.0
C1293 C 0.10828 0.91324 0.40251 0.0
C1294 C 0.0979 0.9362 0.40493 0.0
C1295 C 0.08611 0.9491 0.39538 0.0
C1296 C 0.11937 0.89921 0.41297 0.0
C1297 C 0.13826 0.91012 0.41994 0.0
C1298 C 0.11091 0.87567 0.41637 0.0
C1299 C 0.09045 0.86354 0.40964 0.0
C1300 C 0.06733 0.87478 0.40882 0.0
C1301 C 0.04819 0.8633 0.40238 0.0
C1302 C 0.05191 0.84046 0.39681 0.0
C1303 C 0.07474 0.82903 0.39772 0.0
C1304 C 0.09395 0.84046 0.40413 0.0
C1305 C 0.15205 0.86562 0.46867 0.0
C1306 C 0.16264 0.84223 0.46873 0.0
C1307 C 0.14433 0.87619 0.45741 0.0
C1308 C 0.14714 0.8636 0.446 0.0
C1309 C 0.15719 0.84 0.44605 0.0
C1310 C 0.165 0.82943 0.45733 0.0
C1311 C 0.13944 0.87523 0.43407 0.0
C1312 C 0.12124 0.86387 0.42681 0.0
C1313 C 0.14855 0.89835 0.43039 0.0
C1314 C 0.16897 0.91045 0.43722 0.0
C1315 C 0.19121 0.89805 0.43925 0.0
C1316 C 0.2103 0.90941 0.44579 0.0
C1317 C 0.20743 0.93324 0.45027 0.0
C1318 C 0.18548 0.94578 0.44821 0.0
C1319 C 0.16632 0.93449 0.44169 0.0
H1320 H 0.22223 0.94201 0.45533 0.0
H1321 H 0.03707 0.83159 0.39183 0.0
H1322 H 0.09118 0.59375 0.62213 0.0
H1323 H 0.11055 0.61713 0.63913 0.0
H1324 H 0.08954 0.56143 0.66571 0.0
H1325 H 0.06962 0.53846 0.64894 0.0
H1326 H 0.07914 0.60634 0.67437 0.0
H1327 H 0.14826 0.56587 0.65485 0.0
H1328 H 0.17551 0.55538 0.63716 0.0
H1329 H 0.19305 0.63123 0.63212 0.0
H1330 H 0.16562 0.6422 0.64968 0.0
H1331 H 0.15123 0.62698 0.72758 0.0
H1332 H 0.13404 0.60941 0.70842 0.0
H1333 H 0.16019 0.67117 0.6871 0.0
H1334 H 0.17783 0.68876 0.70629 0.0
H1335 H 0.1674 0.62817 0.67457 0.0
H1336 H 0.10094 0.66846 0.69507 0.0
H1337 H 0.07386 0.67917 0.71278 0.0
H1338 H 0.05099 0.60433 0.71581 0.0
H1339 H 0.07821 0.5931 0.69822 0.0
C1340 C 0.09064 0.58657 0.63161 0.0
C1341 C 0.07901 0.56418 0.63418 0.0
C1342 C 0.10185 0.59984 0.64128 0.0
C1343 C 0.10163 0.5909 0.65366 0.0
C1344 C 0.08997 0.56863 0.65622 0.0
C1345 C 0.0788 0.5554 0.6466 0.0
C1346 C 0.11309 0.60476 0.66409 0.0
C1347 C 0.09848 0.61094 0.67446 0.0
C1348 C 0.13814 0.61148 0.664 0.0
C1349 C 0.15468 0.60488 0.65348 0.0
C1350 C 0.15777 0.58033 0.6499 0.0
C1351 C 0.17328 0.57429 0.63991 0.0
C1352 C 0.18595 0.59263 0.6335 0.0
C1353 C 0.18319 0.61705 0.63708 0.0
C1354 C 0.16768 0.62318 0.64705 0.0
C1355 C 0.15345 0.63678 0.71881 0.0
C1356 C 0.16572 0.65932 0.71843 0.0
C1357 C 0.14353 0.62676 0.70787 0.0
C1358 C 0.14548 0.6392 0.69638 0.0
C1359 C 0.15839 0.66135 0.69589 0.0
C1360 C 0.1684 0.67138 0.70685 0.0
C1361 C 0.13357 0.62912 0.68498 0.0
C1362 C 0.14802 0.62377 0.67443 0.0
C1363 C 0.10832 0.6232 0.68486 0.0
C1364 C 0.09176 0.62991 0.69538 0.0
C1365 C 0.09026 0.65426 0.69957 0.0
C1366 C 0.07487 0.66042 0.70958 0.0
C1367 C 0.06074 0.64244 0.71543 0.0
C1368 C 0.06195 0.61825 0.71127 0.0
C1369 C 0.07734 0.61197 0.70127 0.0
H1370 H 0.04884 0.64725 0.72318 0.0
H1371 H 0.19795 0.58792 0.62577 0.0
H1372 H 0.45016 0.5645 0.89935 0.0
H1373 H 0.42598 0.5847 0.91561 0.0
H1374 H 0.37876 0.61554 0.88722 0.0
H1375 H 0.40314 0.59534 0.87077 0.0
H1376 H 0.39423 0.64938 0.90621 0.0
H1377 H 0.35677 0.57073 0.90306 0.0
H1378 H 0.35586 0.52574 0.90192 0.0
H1379 H 0.3886 0.52118 0.93855 0.0
H1380 H 0.39006 0.56616 0.93984 0.0
H1381 H 0.31305 0.68965 0.95527 0.0
H1382 H 0.32947 0.67185 0.93587 0.0
H1383 H 0.37712 0.62544 0.95776 0.0
H1384 H 0.3604 0.64267 0.9771 0.0
H1385 H 0.35578 0.59989 0.93993 0.0
H1386 H 0.39793 0.67743 0.9422 0.0
H1387 H 0.40077 0.72234 0.94348 0.0
H1388 H 0.36085 0.72896 0.90885 0.0
H1389 H 0.35751 0.68407 0.90745 0.0
C1390 C 0.43476 0.57574 0.89654 0.0
C1391 C 0.42858 0.57845 0.8838 0.0
C1392 C 0.42087 0.58712 0.90584 0.0
C1393 C 0.40051 0.60144 0.9026 0.0
C1394 C 0.3944 0.60449 0.88988 0.0
C1395 C 0.40821 0.59288 0.88053 0.0
C1396 C 0.38582 0.61305 0.91265 0.0
C1397 C 0.38534 0.63863 0.91346 0.0
C1398 C 0.37467 0.59893 0.92219 0.0
C1399 C 0.37367 0.57184 0.9215 0.0
C1400 C 0.36395 0.56014 0.91083 0.0
C1401 C 0.36331 0.53464 0.91017 0.0
C1402 C 0.37221 0.52061 0.92015 0.0
C1403 C 0.38172 0.53207 0.93083 0.0
C1404 C 0.38242 0.55757 0.93154 0.0
C1405 C 0.32711 0.67572 0.95591 0.0
C1406 C 0.33548 0.66754 0.96768 0.0
C1407 C 0.33651 0.66562 0.94483 0.0
C1408 C 0.35465 0.64741 0.94536 0.0
C1409 C 0.36308 0.63939 0.95712 0.0
C1410 C 0.35357 0.64932 0.96817 0.0
C1411 C 0.36476 0.63629 0.93374 0.0
C1412 C 0.36432 0.61073 0.93261 0.0
C1413 C 0.37521 0.65045 0.92397 0.0
C1414 C 0.37721 0.67742 0.9248 0.0
C1415 C 0.38958 0.68848 0.93491 0.0
C1416 C 0.39131 0.71392 0.93565 0.0
C1417 C 0.38092 0.7285 0.92628 0.0
C1418 C 0.36884 0.71765 0.91612 0.0
C1419 C 0.36704 0.69221 0.91535 0.0
H1420 H 0.38229 0.7482 0.92686 0.0
H1421 H 0.37169 0.50087 0.91961 0.0
H1422 H 0.40036 0.94717 0.13414 0.0
H1423 H 0.37635 0.92625 0.15014 0.0
H1424 H 0.43595 0.87584 0.15637 0.0
H1425 H 0.45929 0.89534 0.13965 0.0
H1426 H 0.39569 0.8522 0.15835 0.0
H1427 H 0.42502 0.92798 0.1755 0.0
H1428 H 0.43103 0.97261 0.1764 0.0
H1429 H 0.35314 0.98334 0.17812 0.0
H1430 H 0.34666 0.93875 0.17706 0.0
H1431 H 0.37197 0.8215 0.22265 0.0
H1432 H 0.38965 0.83882 0.20344 0.0
H1433 H 0.31942 0.86956 0.19365 0.0
H1434 H 0.30145 0.85182 0.21271 0.0
H1435 H 0.36195 0.90282 0.19297 0.0
H1436 H 0.33443 0.82483 0.17755 0.0
H1437 H 0.33086 0.77995 0.17769 0.0
H1438 H 0.40897 0.77326 0.17419 0.0
H1439 H 0.41304 0.81817 0.17421 0.0
C1440 C 0.40821 0.93128 0.13867 0.0
C1441 C 0.43198 0.92319 0.13565 0.0
C1442 C 0.39454 0.91954 0.14798 0.0
C1443 C 0.40457 0.89985 0.15472 0.0
C1444 C 0.42787 0.89113 0.1514 0.0
C1445 C 0.44135 0.90255 0.14193 0.0
C1446 C 0.39123 0.88882 0.16549 0.0
C1447 C 0.38853 0.8633 0.16595 0.0
C1448 C 0.3815 0.90325 0.17538 0.0
C1449 C 0.38535 0.93006 0.17606 0.0
C1450 C 0.40917 0.93987 0.17598 0.0
C1451 C 0.41267 0.96515 0.17653 0.0
C1452 C 0.39248 0.9808 0.17728 0.0
C1453 C 0.36876 0.97119 0.17752 0.0
C1454 C 0.36517 0.94592 0.17695 0.0
C1455 C 0.3603 0.83189 0.21638 0.0
C1456 C 0.33537 0.83536 0.21915 0.0
C1457 C 0.37038 0.84167 0.20542 0.0
C1458 C 0.35576 0.85534 0.19716 0.0
C1459 C 0.33092 0.859 0.19993 0.0
C1460 C 0.32071 0.84884 0.21078 0.0
C1461 C 0.3667 0.86637 0.18579 0.0
C1462 C 0.36898 0.89184 0.18527 0.0
C1463 C 0.37644 0.85188 0.176 0.0
C1464 C 0.37405 0.82487 0.176 0.0
C1465 C 0.35087 0.8138 0.17693 0.0
C1466 C 0.34875 0.78834 0.17695 0.0
C1467 C 0.36968 0.77375 0.17597 0.0
C1468 C 0.39277 0.78459 0.17496 0.0
C1469 C 0.395 0.81005 0.17494 0.0
H1470 H 0.368 0.75404 0.17596 0.0
H1471 H 0.39522 0.00037 0.17771 0.0
H1472 H 0.10993 0.55642 0.87312 0.0
H1473 H 0.12906 0.58047 0.85624 0.0
H1474 H 0.05804 0.6078 0.84534 0.0
H1475 H 0.03893 0.58428 0.86232 0.0
H1476 H 0.08938 0.58467 0.82553 0.0
H1477 H 0.08994 0.64596 0.85838 0.0
H1478 H 0.09984 0.66154 0.87953 0.0
H1479 H 0.17651 0.65031 0.87252 0.0
H1480 H 0.16703 0.63429 0.85138 0.0
H1481 H 0.12084 0.66865 0.77866 0.0
H1482 H 0.10312 0.65021 0.79748 0.0
H1483 H 0.17524 0.64437 0.81391 0.0
H1484 H 0.19291 0.66382 0.79528 0.0
H1485 H 0.14428 0.65605 0.83142 0.0
H1486 H 0.14625 0.59484 0.79955 0.0
H1487 H 0.1389 0.57666 0.77868 0.0
H1488 H 0.06122 0.58377 0.78399 0.0
H1489 H 0.06812 0.60232 0.80484 0.0
C1490 C 0.09851 0.56777 0.86717 0.0
C1491 C 0.07302 0.56863 0.86899 0.0
C1492 C 0.10941 0.58149 0.8576 0.0
C1493 C 0.09489 0.59587 0.84962 0.0
C1494 C 0.06948 0.59684 0.85146 0.0
C1495 C 0.05864 0.58352 0.86117 0.0
C1496 C 0.10603 0.60899 0.83893 0.0
C1497 C 0.10113 0.60049 0.82676 0.0
C1498 C 0.12204 0.62898 0.84067 0.0
C1499 C 0.12775 0.63866 0.85336 0.0
C1500 C 0.10889 0.64657 0.86139 0.0
C1501 C 0.11443 0.65553 0.87337 0.0
C1502 C 0.13878 0.65684 0.87738 0.0
C1503 C 0.15765 0.64924 0.86941 0.0
C1504 C 0.15221 0.64024 0.85743 0.0
C1505 C 0.13287 0.66362 0.78634 0.0
C1506 C 0.15825 0.66747 0.78549 0.0
C1507 C 0.12276 0.65296 0.79706 0.0
C1508 C 0.13791 0.64535 0.807 0.0
C1509 C 0.16319 0.64998 0.80635 0.0
C1510 C 0.17328 0.66104 0.7957 0.0
C1511 C 0.12742 0.63197 0.81789 0.0
C1512 C 0.13252 0.64028 0.83011 0.0
C1513 C 0.11197 0.6114 0.81623 0.0
C1514 C 0.10772 0.60019 0.80371 0.0
C1515 C 0.12761 0.59269 0.79623 0.0
C1516 C 0.12352 0.5823 0.78441 0.0
C1517 C 0.09961 0.57913 0.77999 0.0
C1518 C 0.07973 0.58628 0.78741 0.0
C1519 C 0.08372 0.59671 0.79924 0.0
H1520 H 0.09649 0.57107 0.77084 0.0
H1521 H 0.14303 0.6638 0.88666 0.0
H1522 H 0.46546 0.57997 0.10348 0.0
H1523 H 0.44244 0.60074 0.08702 0.0
H1524 H 0.38168 0.61064 0.11241 0.0
H1525 H 0.40493 0.59049 0.12917 0.0
H1526 H 0.36823 0.59163 0.08886 0.0
H1527 H 0.41425 0.65867 0.10536 0.0
H1528 H 0.45135 0.68022 0.11257 0.0
H1529 H 0.48296 0.67343 0.07578 0.0
H1530 H 0.44618 0.6515 0.06839 0.0
H1531 H 0.30435 0.66627 0.04467 0.0
H1532 H 0.32391 0.65085 0.0638 0.0
H1533 H 0.39281 0.64521 0.0441 0.0
H1534 H 0.37351 0.6612 0.02507 0.0
H1535 H 0.39976 0.66464 0.06645 0.0
H1536 H 0.35636 0.59462 0.05039 0.0
H1537 H 0.32022 0.57179 0.04291 0.0
H1538 H 0.28472 0.58289 0.07847 0.0
H1539 H 0.32055 0.60608 0.08611 0.0
C1540 C 0.44742 0.58699 0.1057 0.0
C1541 C 0.43715 0.58368 0.11771 0.0
C1542 C 0.43423 0.59874 0.09624 0.0
C1543 C 0.41046 0.60737 0.09854 0.0
C1544 C 0.40003 0.60409 0.11047 0.0
C1545 C 0.41331 0.59248 0.12 0.0
C1546 C 0.3964 0.61914 0.0883 0.0
C1547 C 0.37483 0.60787 0.08409 0.0
C1548 C 0.40539 0.63999 0.08195 0.0
C1549 C 0.42752 0.65327 0.08635 0.0
C1550 C 0.42919 0.6616 0.09883 0.0
C1551 C 0.45015 0.67391 0.10294 0.0
C1552 C 0.46952 0.67815 0.09465 0.0
C1553 C 0.46795 0.67012 0.0822 0.0
C1554 C 0.44703 0.65777 0.07804 0.0
C1555 C 0.32365 0.66168 0.04443 0.0
C1556 C 0.33741 0.66485 0.03338 0.0
C1557 C 0.33479 0.65281 0.05535 0.0
C1558 C 0.35978 0.64663 0.05535 0.0
C1559 C 0.37352 0.64989 0.04432 0.0
C1560 C 0.36245 0.65893 0.03345 0.0
C1561 C 0.37177 0.63688 0.06682 0.0
C1562 C 0.39298 0.64854 0.07128 0.0
C1563 C 0.36254 0.61628 0.07334 0.0
C1564 C 0.34101 0.60232 0.06877 0.0
C1565 C 0.34076 0.59236 0.05658 0.0
C1566 C 0.32035 0.57933 0.05231 0.0
C1567 C 0.30016 0.57596 0.06019 0.0
C1568 C 0.30036 0.58556 0.07237 0.0
C1569 C 0.32072 0.59863 0.07667 0.0
H1570 H 0.28438 0.56585 0.05688 0.0
H1571 H 0.48574 0.68769 0.09785 0.0
H1572 H 0.39858 0.9529 0.36513 0.0
H1573 H 0.37802 0.9298 0.3487 0.0
H1574 H 0.42852 0.87002 0.35414 0.0
H1575 H 0.45052 0.89386 0.36987 0.0
H1576 H 0.42405 0.87681 0.33077 0.0
H1577 H 0.3659 0.86799 0.36353 0.0
H1578 H 0.33848 0.88057 0.38078 0.0
H1579 H 0.29647 0.92423 0.35507 0.0
H1580 H 0.32385 0.9122 0.3377 0.0
H1581 H 0.34958 0.79883 0.29148 0.0
H1582 H 0.36799 0.81572 0.31066 0.0
H1583 H 0.3424 0.88757 0.30045 0.0
H1584 H 0.32452 0.87096 0.28111 0.0
H1585 H 0.33363 0.87024 0.32717 0.0
H1586 H 0.39658 0.87979 0.29496 0.0
H1587 H 0.4239 0.86409 0.27835 0.0
H1588 H 0.45635 0.81405 0.30461 0.0
H1589 H 0.42894 0.82923 0.32134 0.0
C1590 C 0.4055 0.93491 0.3628 0.0
C1591 C 0.4264 0.9254 0.36882 0.0
C1592 C 0.3934 0.9215 0.35352 0.0
C1593 C 0.40145 0.89795 0.35027 0.0
C1594 C 0.42189 0.88811 0.35649 0.0
C1595 C 0.4343 0.9017 0.36562 0.0
C1596 C 0.38948 0.88434 0.33984 0.0
C1597 C 0.40429 0.875 0.33016 0.0
C1598 C 0.36366 0.88205 0.33891 0.0
C1599 C 0.34707 0.88932 0.34932 0.0
C1600 C 0.35093 0.88041 0.36157 0.0
C1601 C 0.33537 0.88742 0.37137 0.0
C1602 C 0.31578 0.90322 0.36903 0.0
C1603 C 0.31167 0.912 0.35687 0.0
C1604 C 0.32718 0.90507 0.34704 0.0
C1605 C 0.34786 0.81821 0.29335 0.0
C1606 C 0.33573 0.83364 0.28481 0.0
C1607 C 0.35834 0.82779 0.30428 0.0
C1608 C 0.35646 0.85283 0.30692 0.0
C1609 C 0.34392 0.86818 0.29855 0.0
C1610 C 0.33386 0.8587 0.2875 0.0
C1611 C 0.36824 0.86325 0.31821 0.0
C1612 C 0.35338 0.87191 0.32798 0.0
C1613 C 0.39398 0.86444 0.31938 0.0
C1614 C 0.41052 0.85543 0.30935 0.0
C1615 C 0.40937 0.86527 0.29715 0.0
C1616 C 0.42491 0.85651 0.28773 0.0
C1617 C 0.4418 0.83803 0.29041 0.0
C1618 C 0.44323 0.82833 0.30254 0.0
C1619 C 0.42771 0.83701 0.31199 0.0
H1620 H 0.45381 0.83127 0.2831 0.0
H1621 H 0.30376 0.90863 0.37662 0.0
H1622 H 0.10508 0.94368 0.62516 0.0
H1623 H 0.12922 0.92315 0.60911 0.0
H1624 H 0.069 0.87412 0.6017 0.0
H1625 H 0.04552 0.89306 0.61854 0.0
H1626 H 0.10877 0.85017 0.59881 0.0
H1627 H 0.08047 0.92823 0.58398 0.0
H1628 H 0.07515 0.97298 0.5844 0.0
H1629 H 0.1532 0.98263 0.58292 0.0
H1630 H 0.15898 0.9379 0.58265 0.0
H1631 H 0.12723 0.82836 0.5332 0.0
H1632 H 0.11182 0.84331 0.55341 0.0
H1633 H 0.1841 0.86914 0.563 0.0
H1634 H 0.19983 0.85368 0.54289 0.0
H1635 H 0.14254 0.9041 0.56557 0.0
H1636 H 0.16846 0.82344 0.57773 0.0
H1637 H 0.17046 0.7786 0.57565 0.0
H1638 H 0.09244 0.77395 0.58029 0.0
H1639 H 0.08992 0.81881 0.58219 0.0
C1640 C 0.09712 0.92809 0.62041 0.0
C1641 C 0.07307 0.92034 0.62309 0.0
C1642 C 0.11089 0.91658 0.61106 0.0
C1643 C 0.10069 0.89755 0.60391 0.0
C1644 C 0.07722 0.88894 0.60698 0.0
C1645 C 0.06365 0.90007 0.61652 0.0
C1646 C 0.11382 0.88748 0.5928 0.0
C1647 C 0.11601 0.862 0.59152 0.0
C1648 C 0.12359 0.90285 0.58331 0.0
C1649 C 0.12016 0.92974 0.58344 0.0
C1650 C 0.0965 0.9399 0.58383 0.0
C1651 C 0.0934 0.96526 0.58403 0.0
C1652 C 0.11383 0.98064 0.58373 0.0
C1653 C 0.1374 0.97069 0.58318 0.0
C1654 C 0.1406 0.94534 0.583 0.0
C1655 C 0.13985 0.83716 0.53964 0.0
C1656 C 0.1647 0.83993 0.5365 0.0
C1657 C 0.13106 0.84557 0.55117 0.0
C1658 C 0.14689 0.85717 0.55967 0.0
C1659 C 0.17168 0.86013 0.55655 0.0
C1660 C 0.1806 0.8513 0.5451 0.0
C1661 C 0.1372 0.86699 0.5716 0.0
C1662 C 0.13558 0.89238 0.57298 0.0
C1663 C 0.12748 0.85155 0.581 0.0
C1664 C 0.12898 0.82453 0.58 0.0
C1665 C 0.1517 0.81288 0.5782 0.0
C1666 C 0.15294 0.78745 0.57707 0.0
C1667 C 0.13159 0.77344 0.57782 0.0
C1668 C 0.10896 0.78483 0.57971 0.0
C1669 C 0.10762 0.81026 0.58083 0.0
H1670 H 0.13258 0.75376 0.57695 0.0
H1671 H 0.11139 0.00027 0.58388 0.0
H1672 H 0.5583 0.45588 0.90113 0.0
H1673 H 0.5782 0.43303 0.91793 0.0
H1674 H 0.61141 0.38517 0.89055 0.0
H1675 H 0.59109 0.40794 0.87359 0.0
H1676 H 0.59445 0.35966 0.91019 0.0
H1677 H 0.64528 0.42972 0.90499 0.0
H1678 H 0.65477 0.47357 0.90282 0.0
H1679 H 0.62564 0.48722 0.93964 0.0
H1680 H 0.61564 0.44351 0.94197 0.0
H1681 H 0.67387 0.3107 0.95801 0.0
H1682 H 0.6579 0.3296 0.9388 0.0
H1683 H 0.61821 0.38217 0.96116 0.0
H1684 H 0.63437 0.36365 0.98033 0.0
H1685 H 0.64286 0.40394 0.94245 0.0
H1686 H 0.58933 0.33383 0.94668 0.0
H1687 H 0.58016 0.28986 0.94862 0.0
H1688 H 0.61571 0.27615 0.91331 0.0
H1689 H 0.62536 0.32002 0.91124 0.0
C1690 C 0.57002 0.44063 0.89866 0.0
C1691 C 0.57342 0.43388 0.88604 0.0
C1692 C 0.58138 0.42758 0.90828 0.0
C1693 C 0.5967 0.4077 0.90549 0.0
C1694 C 0.59976 0.40055 0.89291 0.0
C1695 C 0.58818 0.41353 0.88324 0.0
C1696 C 0.60927 0.39448 0.91582 0.0
C1697 C 0.60541 0.36925 0.91713 0.0
C1698 C 0.62337 0.40704 0.92494 0.0
C1699 C 0.62957 0.43334 0.92362 0.0
C1700 C 0.64076 0.4421 0.9126 0.0
C1701 C 0.64624 0.46693 0.91134 0.0
C1702 C 0.64077 0.48318 0.92108 0.0
C1703 C 0.62986 0.47462 0.93211 0.0
C1704 C 0.62431 0.44981 0.93341 0.0
C1705 C 0.6616 0.32619 0.95881 0.0
C1706 C 0.65535 0.33571 0.97066 0.0
C1707 C 0.65245 0.33692 0.94784 0.0
C1708 C 0.63676 0.35721 0.94855 0.0
C1709 C 0.63034 0.36656 0.96039 0.0
C1710 C 0.63951 0.35591 0.97134 0.0
C1711 C 0.62746 0.36928 0.93702 0.0
C1712 C 0.63207 0.39431 0.93546 0.0
C1713 C 0.61421 0.35649 0.92766 0.0
C1714 C 0.6083 0.33016 0.92888 0.0
C1715 C 0.59536 0.32141 0.93938 0.0
C1716 C 0.59004 0.29651 0.94049 0.0
C1717 C 0.59741 0.28021 0.93111 0.0
C1718 C 0.61005 0.28879 0.92058 0.0
C1719 C 0.61543 0.31367 0.91943 0.0
H1720 H 0.59328 0.26095 0.93199 0.0
H1721 H 0.64502 0.5024 0.92008 0.0
H1722 H 0.54297 0.09358 0.13893 0.0
H1723 H 0.56204 0.1164 0.1561 0.0
H1724 H 0.63197 0.0838 0.14715 0.0
H1725 H 0.61267 0.06032 0.13024 0.0
H1726 H 0.62444 0.08006 0.17088 0.0
H1727 H 0.6182 0.14616 0.14171 0.0
H1728 H 0.59791 0.17381 0.12666 0.0
H1729 H 0.54891 0.19834 0.15561 0.0
H1730 H 0.56869 0.17058 0.17081 0.0
H1731 H 0.69356 0.15413 0.21266 0.0
H1732 H 0.67655 0.13644 0.19343 0.0
H1733 H 0.60394 0.15817 0.20492 0.0
H1734 H 0.62085 0.17597 0.22421 0.0
H1735 H 0.61398 0.16849 0.17963 0.0
H1736 H 0.62027 0.10063 0.2084 0.0
H1737 H 0.64175 0.07339 0.22322 0.0
H1738 H 0.69252 0.0529 0.19424 0.0
H1739 H 0.67153 0.0803 0.17929 0.0
C1740 C 0.5625 0.0917 0.14049 0.0
C1741 C 0.57639 0.07524 0.13329 0.0
C1742 C 0.57341 0.10477 0.15029 0.0
C1743 C 0.59852 0.10201 0.15287 0.0
C1744 C 0.61256 0.0862 0.14536 0.0
C1745 C 0.60157 0.07284 0.1357 0.0
C1746 C 0.60973 0.1141 0.16398 0.0
C1747 C 0.62251 0.0995 0.17264 0.0
C1748 C 0.60672 0.13936 0.16649 0.0
C1749 C 0.5948 0.15611 0.15737 0.0
C1750 C 0.60298 0.15731 0.14485 0.0
C1751 C 0.59159 0.17303 0.1363 0.0
C1752 C 0.5721 0.18778 0.14017 0.0
C1753 C 0.564 0.18689 0.15262 0.0
C1754 C 0.57531 0.17118 0.16121 0.0
C1755 C 0.67397 0.15513 0.2111 0.0
C1756 C 0.6585 0.1663 0.21996 0.0
C1757 C 0.6643 0.14502 0.20012 0.0
C1758 C 0.63899 0.14589 0.19781 0.0
C1759 C 0.62353 0.15735 0.20654 0.0
C1760 C 0.63319 0.16737 0.21757 0.0
C1761 C 0.62864 0.13442 0.18638 0.0
C1762 C 0.61599 0.14911 0.17774 0.0
C1763 C 0.63194 0.1093 0.1838 0.0
C1764 C 0.64447 0.0927 0.19277 0.0
C1765 C 0.63613 0.09046 0.20522 0.0
C1766 C 0.64819 0.07497 0.21364 0.0
C1767 C 0.66852 0.06147 0.20969 0.0
C1768 C 0.67679 0.06339 0.19729 0.0
C1769 C 0.6648 0.07888 0.18884 0.0
H1770 H 0.67784 0.04948 0.21622 0.0
H1771 H 0.56331 0.19995 0.13354 0.0
H1772 H 0.90644 0.09345 0.37102 0.0
H1773 H 0.88342 0.11365 0.3879 0.0
H1774 H 0.94028 0.09459 0.41433 0.0
H1775 H 0.96295 0.07397 0.39768 0.0
H1776 H 0.89511 0.08377 0.42323 0.0
H1777 H 0.93507 0.15236 0.40297 0.0
H1778 H 0.94493 0.17896 0.38496 0.0
H1779 H 0.86862 0.1959 0.38031 0.0
H1780 H 0.85828 0.16913 0.3982 0.0
H1781 H 0.8764 0.15602 0.4762 0.0
H1782 H 0.89336 0.13908 0.45686 0.0
H1783 H 0.83055 0.16509 0.43615 0.0
H1784 H 0.81356 0.18252 0.45555 0.0
H1785 H 0.87321 0.1718 0.42304 0.0
H1786 H 0.83328 0.10621 0.44418 0.0
H1787 H 0.82284 0.07959 0.46208 0.0
H1788 H 0.89783 0.05633 0.46473 0.0
H1789 H 0.9088 0.08311 0.44695 0.0
C1790 C 0.91397 0.09357 0.38044 0.0
C1791 C 0.93658 0.08224 0.383 0.0
C1792 C 0.9009 0.10524 0.39004 0.0
C1793 C 0.91023 0.10573 0.40234 0.0
C1794 C 0.93277 0.09446 0.4049 0.0
C1795 C 0.94582 0.08288 0.39534 0.0
C1796 C 0.89646 0.11739 0.41274 0.0
C1797 C 0.89049 0.10306 0.42323 0.0
C1798 C 0.88965 0.14235 0.41253 0.0
C1799 C 0.89588 0.15853 0.40183 0.0
C1800 C 0.92038 0.1616 0.39804 0.0
C1801 C 0.92606 0.17674 0.38787 0.0
C1802 C 0.90741 0.18905 0.38147 0.0
C1803 C 0.88304 0.18632 0.38526 0.0
C1804 C 0.87727 0.17118 0.39542 0.0
C1805 C 0.86625 0.1583 0.46752 0.0
C1806 C 0.84357 0.17043 0.46739 0.0
C1807 C 0.87592 0.14854 0.45648 0.0
C1808 C 0.86299 0.15044 0.44512 0.0
C1809 C 0.84075 0.16332 0.44485 0.0
C1810 C 0.83107 0.17322 0.45592 0.0
C1811 C 0.87258 0.1383 0.43367 0.0
C1812 C 0.87762 0.15246 0.42298 0.0
C1813 C 0.87843 0.11311 0.43364 0.0
C1814 C 0.87189 0.09682 0.44429 0.0
C1815 C 0.84758 0.09555 0.44863 0.0
C1816 C 0.84157 0.08041 0.45875 0.0
C1817 C 0.85967 0.06631 0.46455 0.0
C1818 C 0.88383 0.06728 0.46023 0.0
C1819 C 0.88995 0.08241 0.45012 0.0
H1820 H 0.85498 0.0546 0.47239 0.0
H1821 H 0.91184 0.20076 0.37359 0.0
H1822 H 0.90502 0.40803 0.61971 0.0
H1823 H 0.88055 0.38916 0.63643 0.0
H1824 H 0.93559 0.40931 0.66364 0.0
H1825 H 0.95988 0.4283 0.64713 0.0
H1826 H 0.92044 0.36294 0.66708 0.0
H1827 H 0.88316 0.44223 0.66035 0.0
H1828 H 0.86298 0.47421 0.64771 0.0
H1829 H 0.804 0.425 0.63914 0.0
H1830 H 0.82401 0.39262 0.65161 0.0
H1831 H 0.8639 0.36213 0.72595 0.0
H1832 H 0.88261 0.37574 0.70632 0.0
H1833 H 0.82157 0.34638 0.68543 0.0
H1834 H 0.80261 0.33267 0.70513 0.0
H1835 H 0.83664 0.39256 0.67694 0.0
H1836 H 0.87197 0.31469 0.68573 0.0
H1837 H 0.89198 0.28324 0.69877 0.0
H1838 H 0.95465 0.32976 0.70355 0.0
H1839 H 0.93485 0.36167 0.6907 0.0
C1840 C 0.91184 0.40846 0.62926 0.0
C1841 C 0.93445 0.41957 0.63207 0.0
C1842 C 0.89788 0.39766 0.63879 0.0
C1843 C 0.90622 0.39794 0.65128 0.0
C1844 C 0.92889 0.40873 0.65406 0.0
C1845 C 0.94281 0.41949 0.64458 0.0
C1846 C 0.8914 0.38741 0.66162 0.0
C1847 C 0.90216 0.3695 0.66927 0.0
C1848 C 0.86728 0.39546 0.66424 0.0
C1849 C 0.85522 0.41493 0.65678 0.0
C1850 C 0.86599 0.43817 0.65568 0.0
C1851 C 0.85457 0.45638 0.64857 0.0
C1852 C 0.83226 0.45161 0.64259 0.0
C1853 C 0.8213 0.42865 0.64375 0.0
C1854 C 0.83267 0.41037 0.65085 0.0
C1855 C 0.85434 0.35872 0.7172 0.0
C1856 C 0.83186 0.34623 0.71706 0.0
C1857 C 0.8651 0.36642 0.70599 0.0
C1858 C 0.85361 0.36174 0.69444 0.0
C1859 C 0.83074 0.35005 0.69427 0.0
C1860 C 0.81998 0.34222 0.70551 0.0
C1861 C 0.86599 0.36864 0.68258 0.0
C1862 C 0.85477 0.38576 0.67464 0.0
C1863 C 0.88972 0.35989 0.67968 0.0
C1864 C 0.90183 0.34065 0.68732 0.0
C1865 C 0.88994 0.31829 0.68963 0.0
C1866 C 0.90126 0.30037 0.69698 0.0
C1867 C 0.92455 0.30452 0.702 0.0
C1868 C 0.9366 0.32658 0.69966 0.0
C1869 C 0.92535 0.34458 0.69233 0.0
H1870 H 0.93329 0.29062 0.70769 0.0
H1871 H 0.82344 0.46574 0.63709 0.0
H1872 H 0.54181 0.10901 0.36897 0.0
H1873 H 0.56211 0.13199 0.35229 0.0
H1874 H 0.62357 0.08265 0.35375 0.0
H1875 H 0.60287 0.05854 0.36991 0.0
H1876 H 0.63061 0.14158 0.35185 0.0
H1877 H 0.59471 0.06761 0.33292 0.0
H1878 H 0.56003 0.03939 0.32968 0.0
H1879 H 0.51602 0.09857 0.31577 0.0
H1880 H 0.55036 0.12721 0.31914 0.0
H1881 H 0.69117 0.16678 0.29455 0.0
H1882 H 0.67343 0.14941 0.31361 0.0
H1883 H 0.60088 0.16691 0.30003 0.0
H1884 H 0.61867 0.18268 0.28053 0.0
H1885 H 0.59868 0.12521 0.30898 0.0
H1886 H 0.63252 0.19895 0.32537 0.0
H1887 H 0.66401 0.23028 0.32944 0.0
H1888 H 0.70803 0.17737 0.34891 0.0
H1889 H 0.67694 0.14563 0.34481 0.0
C1890 C 0.5596 0.10291 0.36575 0.0
C1891 C 0.57047 0.0816 0.37069 0.0
C1892 C 0.57127 0.11626 0.35632 0.0
C1893 C 0.59422 0.1089 0.35183 0.0
C1894 C 0.60587 0.08861 0.3572 0.0
C1895 C 0.59401 0.07493 0.36648 0.0
C1896 C 0.60492 0.12107 0.34075 0.0
C1897 C 0.62395 0.13792 0.34243 0.0
C1898 C 0.59545 0.11683 0.32861 0.0
C1899 C 0.57497 0.09956 0.32642 0.0
C1900 C 0.57756 0.07463 0.32929 0.0
C1901 C 0.55799 0.05855 0.32741 0.0
C1902 C 0.53581 0.06719 0.32256 0.0
C1903 C 0.53319 0.09191 0.31955 0.0
C1904 C 0.5527 0.10806 0.32143 0.0
C1905 C 0.67145 0.16706 0.29571 0.0
C1906 C 0.65624 0.17608 0.28613 0.0
C1907 C 0.66129 0.15731 0.30666 0.0
C1908 C 0.63577 0.15722 0.30844 0.0
C1909 C 0.62061 0.16671 0.29892 0.0
C1910 C 0.63075 0.17579 0.2878 0.0
C1911 C 0.62481 0.14599 0.31988 0.0
C1912 C 0.60555 0.1292 0.31833 0.0
C1913 C 0.63376 0.1508 0.33217 0.0
C1914 C 0.65248 0.16986 0.33469 0.0
C1915 C 0.64899 0.19395 0.33045 0.0
C1916 C 0.66676 0.21179 0.33277 0.0
C1917 C 0.68803 0.2058 0.3394 0.0
C1918 C 0.69155 0.18197 0.34376 0.0
C1919 C 0.67385 0.16406 0.34145 0.0
H1920 H 0.70177 0.21964 0.34119 0.0
H1921 H 0.52067 0.05472 0.32111 0.0
H1922 H 0.91035 0.09582 0.63185 0.0
H1923 H 0.88985 0.1196 0.6153 0.0
H1924 H 0.92065 0.07187 0.58715 0.0
H1925 H 0.94124 0.04832 0.60353 0.0
H1926 H 0.92562 0.12072 0.58122 0.0
H1927 H 0.86243 0.06518 0.59585 0.0
H1928 H 0.83545 0.04697 0.61191 0.0
H1929 H 0.8044 0.1175 0.61965 0.0
H1930 H 0.83145 0.13618 0.60374 0.0
H1931 H 0.85827 0.13388 0.52605 0.0
H1932 H 0.87604 0.11813 0.54547 0.0
H1933 H 0.83541 0.17144 0.56688 0.0
H1934 H 0.81726 0.18724 0.54738 0.0
H1935 H 0.83502 0.12612 0.57808 0.0
H1936 H 0.89456 0.18114 0.56194 0.0
H1937 H 0.92139 0.19984 0.54599 0.0
H1938 H 0.95962 0.13182 0.54148 0.0
H1939 H 0.93277 0.11258 0.55728 0.0
C1940 C 0.91278 0.09052 0.62212 0.0
C1941 C 0.92723 0.07014 0.61897 0.0
C1942 C 0.90099 0.104 0.61271 0.0
C1943 C 0.90366 0.09738 0.60003 0.0
C1944 C 0.91834 0.07725 0.59688 0.0
C1945 C 0.92992 0.06371 0.60626 0.0
C1946 C 0.89128 0.11123 0.58989 0.0
C1947 C 0.90581 0.12181 0.58049 0.0
C1948 C 0.86547 0.11335 0.58921 0.0
C1949 C 0.84916 0.10211 0.59873 0.0
C1950 C 0.85 0.07683 0.60106 0.0
C1951 C 0.83467 0.06642 0.61012 0.0
C1952 C 0.81828 0.08108 0.61683 0.0
C1953 C 0.81714 0.10617 0.61447 0.0
C1954 C 0.83246 0.11668 0.60543 0.0
C1955 C 0.853 0.1422 0.53489 0.0
C1956 C 0.83649 0.16189 0.5352 0.0
C1957 C 0.86325 0.13325 0.54597 0.0
C1958 C 0.85735 0.14389 0.55759 0.0
C1959 C 0.84029 0.16307 0.558 0.0
C1960 C 0.82999 0.17208 0.54687 0.0
C1961 C 0.86938 0.13495 0.5692 0.0
C1962 C 0.85483 0.12537 0.5789 0.0
C1963 C 0.89522 0.13387 0.57022 0.0
C1964 C 0.91152 0.14537 0.56074 0.0
C1965 C 0.90857 0.17011 0.55749 0.0
C1966 C 0.9238 0.18082 0.54848 0.0
C1967 C 0.94217 0.16702 0.5427 0.0
C1968 C 0.94538 0.14248 0.54595 0.0
C1969 C 0.93017 0.13168 0.55495 0.0
H1970 H 0.95394 0.17534 0.53573 0.0
H1971 H 0.80642 0.07299 0.62383 0.0
H1972 H 0.90796 0.45081 0.86484 0.0
H1973 H 0.88489 0.42999 0.84837 0.0
H1974 H 0.92083 0.36209 0.85774 0.0
H1975 H 0.94455 0.38316 0.87404 0.0
H1976 H 0.92145 0.36752 0.83376 0.0
H1977 H 0.85858 0.37315 0.86444 0.0
H1978 H 0.83203 0.39264 0.88029 0.0
H1979 H 0.80272 0.4406 0.85211 0.0
H1980 H 0.82935 0.42164 0.83611 0.0
H1981 H 0.84269 0.30239 0.79142 0.0
H1982 H 0.86072 0.31639 0.81128 0.0
H1983 H 0.844 0.39099 0.80142 0.0
H1984 H 0.82626 0.3772 0.7815 0.0
H1985 H 0.83205 0.37755 0.82692 0.0
H1986 H 0.89915 0.37295 0.79699 0.0
H1987 H 0.92532 0.35177 0.78154 0.0
H1988 H 0.94564 0.29887 0.80947 0.0
H1989 H 0.91929 0.31957 0.82504 0.0
C1990 C 0.91063 0.43136 0.86352 0.0
C1991 C 0.92796 0.41856 0.87073 0.0
C1992 C 0.89738 0.41943 0.85413 0.0
C1993 C 0.90082 0.39435 0.85191 0.0
C1994 C 0.91783 0.38144 0.85927 0.0
C1995 C 0.93135 0.39345 0.86857 0.0
C1996 C 0.88784 0.3821 0.84137 0.0
C1997 C 0.90181 0.3693 0.83245 0.0
C1998 C 0.86224 0.38463 0.83951 0.0
C1999 C 0.84611 0.39607 0.84909 0.0
C2000 C 0.8466 0.38797 0.86164 0.0
C2001 C 0.83152 0.39891 0.87065 0.0
C2002 C 0.81574 0.41787 0.86721 0.0
C2003 C 0.81497 0.42591 0.85476 0.0
C2004 C 0.83003 0.41505 0.84571 0.0
C2005 C 0.84277 0.32176 0.79352 0.0
C2006 C 0.8332 0.33875 0.78491 0.0
C2007 C 0.85306 0.3297 0.80485 0.0
C2008 C 0.85371 0.3547 0.80776 0.0
C2009 C 0.84359 0.37162 0.79933 0.0
C2010 C 0.8336 0.36373 0.78795 0.0
C2011 C 0.86577 0.36343 0.81937 0.0
C2012 C 0.85162 0.37554 0.82843 0.0
C2013 C 0.89111 0.35998 0.82147 0.0
C2014 C 0.90703 0.34763 0.81213 0.0
C2015 C 0.90903 0.35668 0.7998 0.0
C2016 C 0.92393 0.34478 0.79103 0.0
C2017 C 0.93707 0.32394 0.79451 0.0
C2018 C 0.93541 0.31499 0.80678 0.0
C2019 C 0.92051 0.3268 0.81558 0.0
H2020 H 0.9486 0.31476 0.78771 0.0
H2021 H 0.80407 0.42632 0.8742 0.0
H2022 H 0.55333 0.41238 0.11736 0.0
H2023 H 0.57499 0.38851 0.10151 0.0
H2024 H 0.64133 0.4288 0.10921 0.0
H2025 H 0.61941 0.45325 0.12492 0.0
H2026 H 0.63505 0.42624 0.08526 0.0
H2027 H 0.63401 0.36741 0.11792 0.0
H2028 H 0.61657 0.34211 0.13488 0.0
H2029 H 0.56909 0.3067 0.10832 0.0
H2030 H 0.58597 0.33205 0.09123 0.0
H2031 H 0.70155 0.34671 0.04405 0.0
H2032 H 0.68807 0.36533 0.06385 0.0
H2033 H 0.61341 0.3451 0.05554 0.0
H2034 H 0.62667 0.3268 0.03567 0.0
H2035 H 0.62924 0.33607 0.08128 0.0
H2036 H 0.62851 0.39986 0.0494 0.0
H2037 H 0.64754 0.4251 0.03287 0.0
H2038 H 0.70152 0.45047 0.0592 0.0
H2039 H 0.68298 0.42508 0.07585 0.0
C2040 C 0.57264 0.41586 0.11583 0.0
C2041 C 0.58474 0.43458 0.12239 0.0
C2042 C 0.58504 0.40215 0.10679 0.0
C2043 C 0.60993 0.40656 0.10429 0.0
C2044 C 0.62216 0.42502 0.11099 0.0
C2045 C 0.60965 0.43897 0.11994 0.0
C2046 C 0.62256 0.393 0.09408 0.0
C2047 C 0.63422 0.40647 0.08457 0.0
C2048 C 0.6213 0.36721 0.09306 0.0
C2049 C 0.61116 0.35178 0.1033 0.0
C2050 C 0.61973 0.35435 0.1157 0.0
C2051 C 0.60996 0.33998 0.12534 0.0
C2052 C 0.59171 0.32284 0.12268 0.0
C2053 C 0.58323 0.31999 0.11037 0.0
C2054 C 0.59291 0.33434 0.1007 0.0
C2055 C 0.6823 0.34609 0.0465 0.0
C2056 C 0.66512 0.33546 0.03831 0.0
C2057 C 0.67465 0.35671 0.05778 0.0
C2058 C 0.64977 0.35658 0.0611 0.0
C2059 C 0.6327 0.34528 0.05314 0.0
C2060 C 0.64028 0.33497 0.04178 0.0
C2061 C 0.64122 0.36941 0.07252 0.0
C2062 C 0.63034 0.35579 0.08218 0.0
C2063 C 0.64351 0.39501 0.0738 0.0
C2064 C 0.65455 0.41035 0.06382 0.0
C2065 C 0.64457 0.41065 0.05163 0.0
C2066 C 0.65524 0.42502 0.04225 0.0
C2067 C 0.67578 0.43932 0.04497 0.0
C2068 C 0.68564 0.43934 0.0571 0.0
C2069 C 0.67506 0.42498 0.06651 0.0
H2070 H 0.68401 0.45043 0.0377 0.0
H2071 H 0.58416 0.31174 0.13015 0.0
loop_
_geom_bond_atom_site_label_1
_geom_bond_atom_site_label_2
_geom_bond_distance
_geom_bond_site_symmetry_2
_ccdc_geom_bond_type
C0 C1 1.384 . S
C0 C2 1.384 . S
C0 H28 0.931 . S
C1 C0 1.384 . S
C1 C4 1.382 . S
C2 C0 1.384 . S
C2 C3 1.381 . S
C2 H29 0.930 . S
C3 C2 1.381 . S
C3 C5 1.381 . S
C3 C6 1.487 . S
C4 C1 1.382 . S
C4 C5 1.387 . S
C4 H30 0.930 . S
C5 C3 1.381 . S
C5 C4 1.387 . S
C5 H31 0.931 1_565 S
C6 C3 1.487 . S
C6 C13 1.399 . S
C6 N44 1.343 1_565 S
C7 C8 1.384 . S
C7 C9 1.384 . S
C7 H32 0.931 . S
C8 C7 1.384 . S
C8 C11 1.382 . S
C9 C7 1.384 . S
C9 C10 1.381 . S
C9 H33 0.930 . S
C10 C9 1.381 . S
C10 C12 1.381 . S
C10 C13 1.487 . S
C11 C8 1.382 . S
C11 C12 1.387 . S
C11 H34 0.930 . S
C12 C10 1.381 . S
C12 C11 1.387 . S
C12 H35 0.931 . S
C13 C6 1.399 . S
C13 C10 1.487 . S
C13 N45 1.358 1_455 S
C14 C15 1.384 . S
C14 C16 1.384 . S
C14 H36 0.931 . S
C15 C14 1.384 . S
C15 C18 1.382 . S
C16 C14 1.384 . S
C16 C17 1.381 . S
C16 H37 0.930 . S
C17 C16 1.381 . S
C17 C19 1.381 . S
C17 C20 1.487 . S
C18 C15 1.382 . S
C18 C19 1.387 . S
C18 H38 0.930 . S
C19 C17 1.381 . S
C19 C18 1.387 . S
C19 H39 0.931 1_545 S
C20 C17 1.487 . S
C20 C27 1.399 . S
C20 N45 1.326 1_545 S
C21 C22 1.384 . S
C21 C23 1.384 . S
C21 H40 0.931 . S
C22 C21 1.384 . S
C22 C25 1.382 . S
C23 C21 1.384 . S
C23 C24 1.381 . S
C23 H41 0.930 . S
C24 C23 1.381 . S
C24 C26 1.381 . S
C24 C27 1.487 . S
C25 C22 1.382 . S
C25 C26 1.387 . S
C25 H42 0.930 . S
C26 C24 1.381 . S
C26 C25 1.387 . S
C26 H43 0.931 . S
C27 C20 1.399 . S
C27 C24 1.487 . S
C27 N44 1.343 1_655 S
H28 C0 0.931 . S
H29 C2 0.930 . S
H30 C4 0.930 . S
H31 C5 0.931 1_545 S
H32 C7 0.931 . S
H33 C9 0.930 . S
H34 C11 0.930 . S
H35 C12 0.931 . S
H36 C14 0.931 . S
H37 C16 0.930 . S
H38 C18 0.930 . S
H39 C19 0.931 1_565 S
H40 C21 0.931 . S
H41 C23 0.930 . S
H42 C25 0.930 . S
H43 C26 0.931 . S
N44 C6 1.343 1_545 S
N44 C27 1.343 1_455 S
N45 C13 1.358 1_655 S
N45 C20 1.326 1_565 S
C46 C47 1.384 . S
C46 C48 1.384 . S
C46 H74 0.931 . S
C47 C46 1.384 . S
C47 C50 1.382 . S
C48 C46 1.384 . S
C48 C49 1.381 . S
C48 H75 0.930 . S
C49 C48 1.381 . S
C49 C51 1.381 . S
C49 C52 1.487 . S
C50 C47 1.382 . S
C50 C51 1.387 . S
C50 H76 0.930 . S
C51 C49 1.381 . S
C51 C50 1.387 . S
C51 H77 0.931 1_655 S
C52 C49 1.487 . S
C52 C59 1.399 . S
C52 N90 1.343 1_655 S
C53 C54 1.384 . S
C53 C55 1.384 . S
C53 H78 0.931 . S
C54 C53 1.384 . S
C54 C57 1.382 . S
C55 C53 1.384 . S
C55 C56 1.381 . S
C55 H79 0.930 . S
C56 C55 1.381 . S
C56 C58 1.381 . S
C56 C59 1.487 . S
C57 C54 1.382 . S
C57 C58 1.387 . S
C57 H80 0.930 . S
C58 C56 1.381 . S
C58 C57 1.387 . S
C58 H81 0.931 . S
C59 C52 1.399 . S
C59 C56 1.487 . S
C59 N91 1.366 . S
C60 C61 1.384 . S
C60 C62 1.384 . S
C60 H82 0.931 . S
C61 C60 1.384 . S
C61 C64 1.382 . S
C62 C60 1.384 . S
C62 C63 1.381 . S
C62 H83 0.930 . S
C63 C62 1.381 . S
C63 C65 1.381 . S
C63 C66 1.487 . S
C64 C61 1.382 . S
C64 C65 1.387 . S
C64 H84 0.930 . S
C65 C63 1.381 . S
C65 C64 1.387 . S
C65 H85 0.931 1_455 S
C66 C63 1.487 . S
C66 C73 1.399 . S
C66 N91 1.317 1_455 S
C67 C68 1.384 . S
C67 C69 1.384 . S
C67 H86 0.931 . S
C68 C67 1.384 . S
C68 C71 1.382 . S
C69 C67 1.384 . S
C69 C70 1.381 . S
C69 H87 0.930 . S
C70 C69 1.381 . S
C70 C72 1.381 . S
C70 C73 1.487 . S
C71 C68 1.382 . S
C71 C72 1.387 . S
C71 H88 0.930 . S
C72 C70 1.381 . S
C72 C71 1.387 . S
C72 H89 0.931 . S
C73 C66 1.399 . S
C73 C70 1.487 . S
C73 N90 1.343 . S
H74 C46 0.931 . S
H75 C48 0.930 . S
H76 C50 0.930 . S
H77 C51 0.931 1_455 S
H78 C53 0.931 . S
H79 C55 0.930 . S
H80 C57 0.930 . S
H81 C58 0.931 . S
H82 C60 0.931 . S
H83 C62 0.930 . S
H84 C64 0.930 . S
H85 C65 0.931 1_655 S
H86 C67 0.931 . S
H87 C69 0.930 . S
H88 C71 0.930 . S
H89 C72 0.931 . S
N90 C52 1.343 1_455 S
N90 C73 1.343 . S
N91 C59 1.366 . S
N91 C66 1.317 1_655 S
C92 C93 1.384 . S
C92 C94 1.384 . S
C92 H120 0.931 . S
C93 C92 1.384 . S
C93 C96 1.382 . S
C94 C92 1.384 . S
C94 C95 1.381 . S
C94 H121 0.930 . S
C95 C94 1.381 . S
C95 C97 1.381 . S
C95 C98 1.487 . S
C96 C93 1.382 . S
C96 C97 1.387 . S
C96 H122 0.930 . S
C97 C95 1.381 . S
C97 C96 1.387 . S
C97 H123 0.931 . S
C98 C95 1.487 . S
C98 C105 1.399 . S
C98 N136 1.343 . S
C99 C100 1.384 . S
C99 C101 1.384 . S
C99 H124 0.931 . S
C100 C99 1.384 . S
C100 C103 1.382 . S
C101 C99 1.384 . S
C101 C102 1.381 . S
C101 H125 0.930 . S
C102 C101 1.381 . S
C102 C104 1.381 . S
C102 C105 1.487 . S
C103 C100 1.382 . S
C103 C104 1.387 . S
C103 H126 0.930 . S
C104 C102 1.381 . S
C104 C103 1.387 . S
C104 H127 0.931 . S
C105 C98 1.399 . S
C105 C102 1.487 . S
C105 N137 1.343 . S
C106 C107 1.384 . S
C106 C108 1.384 . S
C106 H128 0.931 . S
C107 C106 1.384 . S
C107 C110 1.382 . S
C108 C106 1.384 . S
C108 C109 1.381 . S
C108 H129 0.930 . S
C109 C108 1.381 . S
C109 C111 1.381 . S
C109 C112 1.487 . S
C110 C107 1.382 . S
C110 C111 1.387 . S
C110 H130 0.930 . S
C111 C109 1.381 . S
C111 C110 1.387 . S
C111 H131 0.931 . S
C112 C109 1.487 . S
C112 C119 1.399 . S
C112 N137 1.343 . S
C113 C114 1.384 . S
C113 C115 1.384 . S
C113 H132 0.931 . S
C114 C113 1.384 . S
C114 C117 1.382 . S
C115 C113 1.384 . S
C115 C116 1.381 . S
C115 H133 0.930 . S
C116 C115 1.381 . S
C116 C118 1.381 . S
C116 C119 1.487 . S
C117 C114 1.382 . S
C117 C118 1.387 . S
C117 H134 0.930 . S
C118 C116 1.381 . S
C118 C117 1.387 . S
C118 H135 0.931 . S
C119 C112 1.399 . S
C119 C116 1.487 . S
C119 N136 1.343 . S
H120 C92 0.931 . S
H121 C94 0.930 . S
H122 C96 0.930 . S
H123 C97 0.931 . S
H124 C99 0.931 . S
H125 C101 0.930 . S
H126 C103 0.930 . S
H127 C104 0.931 . S
H128 C106 0.931 . S
H129 C108 0.930 . S
H130 C110 0.930 . S
H131 C111 0.931 . S
H132 C113 0.931 . S
H133 C115 0.930 . S
H134 C117 0.930 . S
H135 C118 0.931 . S
N136 C98 1.343 . S
N136 C119 1.343 . S
N137 C105 1.343 . S
N137 C112 1.343 . S
C138 C139 1.384 . S
C138 C140 1.384 . S
C138 H166 0.931 . S
C139 C138 1.384 . S
C139 C142 1.382 . S
C140 C138 1.384 . S
C140 C141 1.381 . S
C140 H167 0.930 . S
C141 C140 1.381 . S
C141 C143 1.381 . S
C141 C144 1.487 . S
C142 C139 1.382 . S
C142 C143 1.387 . S
C142 H168 0.930 . S
C143 C141 1.381 . S
C143 C142 1.387 . S
C143 H169 0.931 . S
C144 C141 1.487 . S
C144 C151 1.399 . S
C144 N182 1.343 1_565 S
C145 C146 1.384 . S
C145 C147 1.384 . S
C145 H170 0.931 . S
C146 C145 1.384 . S
C146 C149 1.382 . S
C147 C145 1.384 . S
C147 C148 1.381 . S
C147 H171 0.930 . S
C148 C147 1.381 . S
C148 C150 1.381 . S
C148 C151 1.487 . S
C149 C146 1.382 . S
C149 C150 1.387 . S
C149 H172 0.930 . S
C150 C148 1.381 . S
C150 C149 1.387 . S
C150 H173 0.931 . S
C151 C144 1.399 . S
C151 C148 1.487 . S
C151 N183 1.337 1_565 S
C152 C153 1.384 . S
C152 C154 1.384 . S
C152 H174 0.931 . S
C153 C152 1.384 . S
C153 C156 1.382 . S
C154 C152 1.384 . S
C154 C155 1.381 . S
C154 H175 0.930 . S
C155 C154 1.381 . S
C155 C157 1.381 . S
C155 C158 1.487 . S
C156 C153 1.382 . S
C156 C157 1.387 . S
C156 H176 0.930 . S
C157 C155 1.381 . S
C157 C156 1.387 . S
C157 H177 0.931 . S
C158 C155 1.487 . S
C158 C165 1.399 . S
C158 N183 1.350 . S
C159 C160 1.384 . S
C159 C161 1.384 . S
C159 H178 0.931 . S
C160 C159 1.384 . S
C160 C163 1.382 . S
C161 C159 1.384 . S
C161 C162 1.381 . S
C161 H179 0.930 . S
C162 C161 1.381 . S
C162 C164 1.381 . S
C162 C165 1.487 . S
C163 C160 1.382 . S
C163 C164 1.387 . S
C163 H180 0.930 . S
C164 C162 1.381 . S
C164 C163 1.387 . S
C164 H181 0.931 . S
C165 C158 1.399 . S
C165 C162 1.487 . S
C165 N182 1.343 . S
H166 C138 0.931 . S
H167 C140 0.930 . S
H168 C142 0.930 . S
H169 C143 0.931 . S
H170 C145 0.931 . S
H171 C147 0.930 . S
H172 C149 0.930 . S
H173 C150 0.931 . S
H174 C152 0.931 . S
H175 C154 0.930 . S
H176 C156 0.930 . S
H177 C157 0.931 . S
H178 C159 0.931 . S
H179 C161 0.930 . S
H180 C163 0.930 . S
H181 C164 0.931 . S
N182 C144 1.343 1_545 S
N182 C165 1.343 . S
N183 C151 1.337 1_545 S
N183 C158 1.350 . S
C184 C185 1.384 . S
C184 C186 1.384 . S
C184 H212 0.931 . S
C185 C184 1.384 . S
C185 C188 1.382 . S
C186 C184 1.384 . S
C186 C187 1.381 . S
C186 H213 0.930 . S
C187 C186 1.381 . S
C187 C189 1.381 . S
C187 C190 1.487 . S
C188 C185 1.382 . S
C188 C189 1.387 . S
C188 H214 0.930 . S
C189 C187 1.381 . S
C189 C188 1.387 . S
C189 H215 0.931 . S
C190 C187 1.487 . S
C190 C197 1.399 . S
C190 N228 1.343 . S
C191 C192 1.384 . S
C191 C193 1.384 . S
C191 H216 0.931 . S
C192 C191 1.384 . S
C192 C195 1.382 . S
C193 C191 1.384 . S
C193 C194 1.381 . S
C193 H217 0.930 . S
C194 C193 1.381 . S
C194 C196 1.381 . S
C194 C197 1.487 . S
C195 C192 1.382 . S
C195 C196 1.387 . S
C195 H218 0.930 . S
C196 C194 1.381 . S
C196 C195 1.387 . S
C196 H219 0.931 . S
C197 C190 1.399 . S
C197 C194 1.487 . S
C197 N229 1.320 1_455 S
C198 C199 1.384 . S
C198 C200 1.384 . S
C198 H220 0.931 . S
C199 C198 1.384 . S
C199 C202 1.382 . S
C200 C198 1.384 . S
C200 C201 1.381 . S
C200 H221 0.930 . S
C201 C200 1.381 . S
C201 C203 1.381 . S
C201 C204 1.487 . S
C202 C199 1.382 . S
C202 C203 1.387 . S
C202 H222 0.930 . S
C203 C201 1.381 . S
C203 C202 1.387 . S
C203 H223 0.931 . S
C204 C201 1.487 . S
C204 C211 1.399 . S
C204 N229 1.364 . S
C205 C206 1.384 . S
C205 C207 1.384 . S
C205 H224 0.931 . S
C206 C205 1.384 . S
C206 C209 1.382 . S
C207 C205 1.384 . S
C207 C208 1.381 . S
C207 H225 0.930 . S
C208 C207 1.381 . S
C208 C210 1.381 . S
C208 C211 1.487 . S
C209 C206 1.382 . S
C209 C210 1.387 . S
C209 H226 0.930 . S
C210 C208 1.381 . S
C210 C209 1.387 . S
C210 H227 0.931 . S
C211 C204 1.399 . S
C211 C208 1.487 . S
C211 N228 1.343 1_655 S
H212 C184 0.931 . S
H213 C186 0.930 . S
H214 C188 0.930 . S
H215 C189 0.931 . S
H216 C191 0.931 . S
H217 C193 0.930 . S
H218 C195 0.930 . S
H219 C196 0.931 . S
H220 C198 0.931 . S
H221 C200 0.930 . S
H222 C202 0.930 . S
H223 C203 0.931 . S
H224 C205 0.931 . S
H225 C207 0.930 . S
H226 C209 0.930 . S
H227 C210 0.931 . S
N228 C190 1.343 . S
N228 C211 1.343 1_455 S
N229 C197 1.320 1_655 S
N229 C204 1.364 . S
C230 C231 1.384 . S
C230 C232 1.384 . S
C230 H258 0.931 . S
C231 C230 1.384 . S
C231 C234 1.382 . S
C232 C230 1.384 . S
C232 C233 1.381 . S
C232 H259 0.930 . S
C233 C232 1.381 . S
C233 C235 1.381 . S
C233 C236 1.487 . S
C234 C231 1.382 . S
C234 C235 1.387 . S
C234 H260 0.930 . S
C235 C233 1.381 . S
C235 C234 1.387 . S
C235 H261 0.931 . S
C236 C233 1.487 . S
C236 C243 1.399 . S
C236 N274 1.343 . S
C237 C238 1.384 . S
C237 C239 1.384 . S
C237 H262 0.931 . S
C238 C237 1.384 . S
C238 C241 1.382 . S
C239 C237 1.384 . S
C239 C240 1.381 . S
C239 H263 0.930 . S
C240 C239 1.381 . S
C240 C242 1.381 . S
C240 C243 1.487 . S
C241 C238 1.382 . S
C241 C242 1.387 . S
C241 H264 0.930 . S
C242 C240 1.381 . S
C242 C241 1.387 . S
C242 H265 0.931 . S
C243 C236 1.399 . S
C243 C240 1.487 . S
C243 N275 1.343 . S
C244 C245 1.384 . S
C244 C246 1.384 . S
C244 H266 0.931 . S
C245 C244 1.384 . S
C245 C248 1.382 . S
C246 C244 1.384 . S
C246 C247 1.381 . S
C246 H267 0.930 . S
C247 C246 1.381 . S
C247 C249 1.381 . S
C247 C250 1.487 . S
C248 C245 1.382 . S
C248 C249 1.387 . S
C248 H268 0.930 . S
C249 C247 1.381 . S
C249 C248 1.387 . S
C249 H269 0.931 . S
C250 C247 1.487 . S
C250 C257 1.399 . S
C250 N275 1.343 . S
C251 C252 1.384 . S
C251 C253 1.384 . S
C251 H270 0.931 . S
C252 C251 1.384 . S
C252 C255 1.382 . S
C253 C251 1.384 . S
C253 C254 1.381 . S
C253 H271 0.930 . S
C254 C253 1.381 . S
C254 C256 1.381 . S
C254 C257 1.487 . S
C255 C252 1.382 . S
C255 C256 1.387 . S
C255 H272 0.930 . S
C256 C254 1.381 . S
C256 C255 1.387 . S
C256 H273 0.931 . S
C257 C250 1.399 . S
C257 C254 1.487 . S
C257 N274 1.343 . S
H258 C230 0.931 . S
H259 C232 0.930 . S
H260 C234 0.930 . S
H261 C235 0.931 . S
H262 C237 0.931 . S
H263 C239 0.930 . S
H264 C241 0.930 . S
H265 C242 0.931 . S
H266 C244 0.931 . S
H267 C246 0.930 . S
H268 C248 0.930 . S
H269 C249 0.931 . S
H270 C251 0.931 . S
H271 C253 0.930 . S
H272 C255 0.930 . S
H273 C256 0.931 . S
N274 C236 1.343 . S
N274 C257 1.343 . S
N275 C243 1.343 . S
N275 C250 1.343 . S
C276 C277 1.384 . S
C276 C278 1.384 . S
C276 H304 0.931 . S
C277 C276 1.384 . S
C277 C280 1.382 . S
C278 C276 1.384 . S
C278 C279 1.381 . S
C278 H305 0.930 . S
C279 C278 1.381 . S
C279 C281 1.381 . S
C279 C282 1.487 . S
C280 C277 1.382 . S
C280 C281 1.387 . S
C280 H306 0.930 . S
C281 C279 1.381 . S
C281 C280 1.387 . S
C281 H307 0.931 1_565 S
C282 C279 1.487 . S
C282 C289 1.399 . S
C282 N320 1.343 1_565 S
C283 C284 1.384 . S
C283 C285 1.384 . S
C283 H308 0.931 . S
C284 C283 1.384 . S
C284 C287 1.382 . S
C285 C283 1.384 . S
C285 C286 1.381 . S
C285 H309 0.930 . S
C286 C285 1.381 . S
C286 C288 1.381 . S
C286 C289 1.487 . S
C287 C284 1.382 . S
C287 C288 1.387 . S
C287 H310 0.930 . S
C288 C286 1.381 . S
C288 C287 1.387 . S
C288 H311 0.931 . S
C289 C282 1.399 . S
C289 C286 1.487 . S
C289 N321 1.352 . S
C290 C291 1.384 . S
C290 C292 1.384 . S
C290 H312 0.931 . S
C291 C290 1.384 . S
C291 C294 1.382 . S
C292 C290 1.384 . S
C292 C293 1.381 . S
C292 H313 0.930 . S
C293 C292 1.381 . S
C293 C295 1.381 . S
C293 C296 1.487 . S
C294 C291 1.382 . S
C294 C295 1.387 . S
C294 H314 0.930 . S
C295 C293 1.381 . S
C295 C294 1.387 . S
C295 H315 0.931 1_545 S
C296 C293 1.487 . S
C296 C303 1.399 . S
C296 N321 1.333 1_545 S
C297 C298 1.384 . S
C297 C299 1.384 . S
C297 H316 0.931 . S
C298 C297 1.384 . S
C298 C301 1.382 . S
C299 C297 1.384 . S
C299 C300 1.381 . S
C299 H317 0.930 . S
C300 C299 1.381 . S
C300 C302 1.381 . S
C300 C303 1.487 . S
C301 C298 1.382 . S
C301 C302 1.387 . S
C301 H318 0.930 . S
C302 C300 1.381 . S
C302 C301 1.387 . S
C302 H319 0.931 . S
C303 C296 1.399 . S
C303 C300 1.487 . S
C303 N320 1.343 . S
H304 C276 0.931 . S
H305 C278 0.930 . S
H306 C280 0.930 . S
H307 C281 0.931 1_545 S
H308 C283 0.931 . S
H309 C285 0.930 . S
H310 C287 0.930 . S
H311 C288 0.931 . S
H312 C290 0.931 . S
H313 C292 0.930 . S
H314 C294 0.930 . S
H315 C295 0.931 1_565 S
H316 C297 0.931 . S
H317 C299 0.930 . S
H318 C301 0.930 . S
H319 C302 0.931 . S
N320 C282 1.343 1_545 S
N320 C303 1.343 . S
N321 C289 1.352 . S
N321 C296 1.333 1_565 S
C322 C323 1.384 . S
C322 C324 1.384 . S
C322 H350 0.931 . S
C323 C322 1.384 . S
C323 C326 1.382 . S
C324 C322 1.384 . S
C324 C325 1.381 . S
C324 H351 0.930 . S
C325 C324 1.381 . S
C325 C327 1.381 . S
C325 C328 1.487 . S
C326 C323 1.382 . S
C326 C327 1.387 . S
C326 H352 0.930 . S
C327 C325 1.381 . S
C327 C326 1.387 . S
C327 H353 0.931 1_455 S
C328 C325 1.487 . S
C328 C335 1.399 . S
C328 N366 1.368 1_455 S
C329 C330 1.384 . S
C329 C331 1.384 . S
C329 H354 0.931 . S
C330 C329 1.384 . S
C330 C333 1.382 . S
C331 C329 1.384 . S
C331 C332 1.381 . S
C331 H355 0.930 . S
C332 C331 1.381 . S
C332 C334 1.381 . S
C332 C335 1.487 . S
C333 C330 1.382 . S
C333 C334 1.387 . S
C333 H356 0.930 . S
C334 C332 1.381 . S
C334 C333 1.387 . S
C334 H357 0.931 . S
C335 C328 1.399 . S
C335 C332 1.487 . S
C335 N367 1.343 1_565 S
C336 C337 1.384 . S
C336 C338 1.384 . S
C336 H358 0.931 . S
C337 C336 1.384 . S
C337 C340 1.382 . S
C338 C336 1.384 . S
C338 C339 1.381 . S
C338 H359 0.930 . S
C339 C338 1.381 . S
C339 C341 1.381 . S
C339 C342 1.487 . S
C340 C337 1.382 . S
C340 C341 1.387 . S
C340 H360 0.930 . S
C341 C339 1.381 . S
C341 C340 1.387 . S
C341 H361 0.931 1_655 S
C342 C339 1.487 . S
C342 C349 1.399 . S
C342 N367 1.343 1_655 S
C343 C344 1.384 . S
C343 C345 1.384 . S
C343 H362 0.931 . S
C344 C343 1.384 . S
C344 C347 1.382 . S
C345 C343 1.384 . S
C345 C346 1.381 . S
C345 H363 0.930 . S
C346 C345 1.381 . S
C346 C348 1.381 . S
C346 C349 1.487 . S
C347 C344 1.382 . S
C347 C348 1.387 . S
C347 H364 0.930 . S
C348 C346 1.381 . S
C348 C347 1.387 . S
C348 H365 0.931 . S
C349 C342 1.399 . S
C349 C346 1.487 . S
C349 N366 1.315 1_545 S
H350 C322 0.931 . S
H351 C324 0.930 . S
H352 C326 0.930 . S
H353 C327 0.931 1_655 S
H354 C329 0.931 . S
H355 C331 0.930 . S
H356 C333 0.930 . S
H357 C334 0.931 . S
H358 C336 0.931 . S
H359 C338 0.930 . S
H360 C340 0.930 . S
H361 C341 0.931 1_455 S
H362 C343 0.931 . S
H363 C345 0.930 . S
H364 C347 0.930 . S
H365 C348 0.931 . S
N366 C328 1.368 1_655 S
N366 C349 1.315 1_565 S
N367 C335 1.343 1_545 S
N367 C342 1.343 1_455 S
In368 O369 2.294 . S
In368 O370 2.326 . S
In368 O374 2.266 1_554 S
In368 O375 2.326 1_554 S
In368 O376 2.266 1_554 S
In368 O377 2.326 1_554 S
In368 O379 2.294 . S
In368 O380 2.326 . S
O369 In368 2.294 . S
O369 C378 1.240 . S
O370 In368 2.326 . S
O370 C378 1.252 . S
C371 O374 1.252 . S
C371 O375 1.260 . S
C372 O379 1.240 . S
C372 O380 1.252 . S
C373 O376 1.252 . S
C373 O377 1.260 . S
O374 In368 2.266 1_556 S
O374 C371 1.252 . S
O375 In368 2.326 1_556 S
O375 C371 1.260 . S
O376 In368 2.266 1_556 S
O376 C373 1.252 . S
O377 In368 2.326 1_556 S
O377 C373 1.260 . S
C378 O369 1.240 . S
C378 O370 1.252 . S
O379 In368 2.294 . S
O379 C372 1.240 . S
O380 In368 2.326 . S
O380 C372 1.252 . S
In381 O382 2.294 . S
In381 O383 2.326 . S
In381 O387 2.266 . S
In381 O388 2.326 . S
In381 O389 2.266 . S
In381 O390 2.326 . S
In381 O392 2.294 . S
In381 O393 2.326 . S
O382 In381 2.294 . S
O382 C391 1.240 . S
O383 In381 2.326 . S
O383 C391 1.252 . S
C384 O387 1.252 . S
C384 O388 1.260 . S
C385 O392 1.240 . S
C385 O393 1.252 . S
C386 O389 1.252 . S
C386 O390 1.260 . S
O387 In381 2.266 . S
O387 C384 1.252 . S
O388 In381 2.326 . S
O388 C384 1.260 . S
O389 In381 2.266 . S
O389 C386 1.252 . S
O390 In381 2.326 . S
O390 C386 1.260 . S
C391 O382 1.240 . S
C391 O383 1.252 . S
O392 In381 2.294 . S
O392 C385 1.240 . S
O393 In381 2.326 . S
O393 C385 1.252 . S
In394 O395 2.294 . S
In394 O396 2.326 . S
In394 O400 2.266 . S
In394 O401 2.326 . S
In394 O402 2.266 . S
In394 O403 2.326 . S
In394 O405 2.294 . S
In394 O406 2.326 . S
O395 In394 2.294 . S
O395 C404 1.240 . S
O396 In394 2.326 . S
O396 C404 1.252 . S
C397 O400 1.252 . S
C397 O401 1.260 . S
C398 O405 1.240 . S
C398 O406 1.252 . S
C399 O402 1.252 . S
C399 O403 1.260 . S
O400 In394 2.266 . S
O400 C397 1.252 . S
O401 In394 2.326 . S
O401 C397 1.260 . S
O402 In394 2.266 . S
O402 C399 1.252 . S
O403 In394 2.326 . S
O403 C399 1.260 . S
C404 O395 1.240 . S
C404 O396 1.252 . S
O405 In394 2.294 . S
O405 C398 1.240 . S
O406 In394 2.326 . S
O406 C398 1.252 . S
In407 O408 2.294 . S
In407 O409 2.326 . S
In407 O413 2.266 . S
In407 O414 2.326 . S
In407 O415 2.266 . S
In407 O416 2.326 . S
In407 O418 2.294 . S
In407 O419 2.326 . S
O408 In407 2.294 . S
O408 C417 1.240 . S
O409 In407 2.326 . S
O409 C417 1.252 . S
C410 O413 1.252 . S
C410 O414 1.260 . S
C411 O418 1.240 . S
C411 O419 1.252 . S
C412 O415 1.252 . S
C412 O416 1.260 . S
O413 In407 2.266 . S
O413 C410 1.252 . S
O414 In407 2.326 . S
O414 C410 1.260 . S
O415 In407 2.266 . S
O415 C412 1.252 . S
O416 In407 2.326 . S
O416 C412 1.260 . S
C417 O408 1.240 . S
C417 O409 1.252 . S
O418 In407 2.294 . S
O418 C411 1.240 . S
O419 In407 2.326 . S
O419 C411 1.252 . S
In420 O421 2.294 . S
In420 O422 2.326 . S
In420 O426 2.266 . S
In420 O427 2.326 . S
In420 O428 2.266 . S
In420 O429 2.326 . S
In420 O431 2.294 . S
In420 O432 2.326 . S
O421 In420 2.294 . S
O421 C430 1.240 . S
O422 In420 2.326 . S
O422 C430 1.252 . S
C423 O426 1.252 . S
C423 O427 1.260 . S
C424 O431 1.240 . S
C424 O432 1.252 . S
C425 O428 1.252 . S
C425 O429 1.260 . S
O426 In420 2.266 . S
O426 C423 1.252 . S
O427 In420 2.326 . S
O427 C423 1.260 . S
O428 In420 2.266 . S
O428 C425 1.252 . S
O429 In420 2.326 . S
O429 C425 1.260 . S
C430 O421 1.240 . S
C430 O422 1.252 . S
O431 In420 2.294 . S
O431 C424 1.240 . S
O432 In420 2.326 . S
O432 C424 1.252 . S
In433 O434 2.294 . S
In433 O435 2.326 . S
In433 O439 2.266 . S
In433 O440 2.326 . S
In433 O441 2.266 . S
In433 O442 2.326 . S
In433 O444 2.294 . S
In433 O445 2.326 . S
O434 In433 2.294 . S
O434 C443 1.240 . S
O435 In433 2.326 . S
O435 C443 1.252 . S
C436 O439 1.252 . S
C436 O440 1.260 . S
C437 O444 1.240 . S
C437 O445 1.252 . S
C438 O441 1.252 . S
C438 O442 1.260 . S
O439 In433 2.266 . S
O439 C436 1.252 . S
O440 In433 2.326 . S
O440 C436 1.260 . S
O441 In433 2.266 . S
O441 C438 1.252 . S
O442 In433 2.326 . S
O442 C438 1.260 . S
C443 O434 1.240 . S
C443 O435 1.252 . S
O444 In433 2.294 . S
O444 C437 1.240 . S
O445 In433 2.326 . S
O445 C437 1.252 . S
In446 O447 2.294 . S
In446 O448 2.326 . S
In446 O452 2.266 1_554 S
In446 O453 2.326 1_554 S
In446 O454 2.266 1_554 S
In446 O455 2.326 1_554 S
In446 O457 2.294 . S
In446 O458 2.326 . S
O447 In446 2.294 . S
O447 C456 1.240 . S
O448 In446 2.326 . S
O448 C456 1.252 . S
C449 O452 1.252 . S
C449 O453 1.260 . S
C450 O457 1.240 . S
C450 O458 1.252 . S
C451 O454 1.252 . S
C451 O455 1.260 . S
O452 In446 2.266 1_556 S
O452 C449 1.252 . S
O453 In446 2.326 1_556 S
O453 C449 1.260 . S
O454 In446 2.266 1_556 S
O454 C451 1.252 . S
O455 In446 2.326 1_556 S
O455 C451 1.260 . S
C456 O447 1.240 . S
C456 O448 1.252 . S
O457 In446 2.294 . S
O457 C450 1.240 . S
O458 In446 2.326 . S
O458 C450 1.252 . S
In459 O460 2.294 . S
In459 O461 2.326 . S
In459 O465 2.266 . S
In459 O466 2.326 . S
In459 O467 2.266 . S
In459 O468 2.326 . S
In459 O470 2.294 . S
In459 O471 2.326 . S
O460 In459 2.294 . S
O460 C469 1.240 . S
O461 In459 2.326 . S
O461 C469 1.252 . S
C462 O465 1.252 . S
C462 O466 1.260 . S
C463 O470 1.240 . S
C463 O471 1.252 . S
C464 O467 1.252 . S
C464 O468 1.260 . S
O465 In459 2.266 . S
O465 C462 1.252 . S
O466 In459 2.326 . S
O466 C462 1.260 . S
O467 In459 2.266 . S
O467 C464 1.252 . S
O468 In459 2.326 . S
O468 C464 1.260 . S
C469 O460 1.240 . S
C469 O461 1.252 . S
O470 In459 2.294 . S
O470 C463 1.240 . S
O471 In459 2.326 . S
O471 C463 1.252 . S
H472 C490 0.951 . S
H473 C492 0.951 . S
H474 C494 0.950 . S
H475 C495 0.950 . S
H476 C497 0.950 . S
H477 C500 0.950 . S
H478 C501 0.950 . S
H479 C503 0.950 . S
H480 C504 0.950 . S
H481 C505 0.951 . S
H482 C507 0.951 . S
H483 C509 0.950 . S
H484 C510 0.950 . S
H485 C512 0.950 . S
H486 C515 0.950 . S
H487 C516 0.950 . S
H488 C518 0.950 . S
H489 C519 0.950 . S
C490 H472 0.951 . S
C490 C491 1.366 . S
C490 C492 1.388 . S
C491 C490 1.366 . S
C491 C495 1.385 . S
C492 H473 0.951 . S
C492 C490 1.388 . S
C492 C493 1.366 . S
C493 C492 1.366 . S
C493 C494 1.414 . S
C493 C496 1.499 . S
C494 H474 0.950 . S
C494 C493 1.414 . S
C494 C495 1.374 . S
C495 H475 0.950 . S
C495 C491 1.385 . S
C495 C494 1.374 . S
C496 C493 1.499 . S
C496 C497 1.373 . S
C496 C498 1.389 . S
C497 H476 0.950 . S
C497 C496 1.373 . S
C497 C513 1.377 . S
C498 C496 1.389 . S
C498 C499 1.524 . S
C498 C512 1.377 . S
C499 C498 1.524 . S
C499 C500 1.397 . S
C499 C504 1.363 . S
C500 H477 0.950 . S
C500 C499 1.397 . S
C500 C501 1.334 . S
C501 H478 0.950 . S
C501 C500 1.334 . S
C501 C502 1.287 . S
C502 C501 1.287 . S
C502 C503 1.524 . S
C502 H521 0.913 . S
C503 H479 0.950 . S
C503 C502 1.524 . S
C503 C504 1.415 . S
C504 H480 0.950 . S
C504 C499 1.363 . S
C504 C503 1.415 . S
C505 H481 0.951 . S
C505 C506 1.366 . S
C505 C507 1.388 . S
C506 C505 1.366 . S
C506 C510 1.385 . S
C507 H482 0.951 . S
C507 C505 1.388 . S
C507 C508 1.366 . S
C508 C507 1.366 . S
C508 C509 1.414 . S
C508 C511 1.499 . S
C509 H483 0.950 . S
C509 C508 1.414 . S
C509 C510 1.374 . S
C510 H484 0.950 . S
C510 C506 1.385 . S
C510 C509 1.374 . S
C511 C508 1.499 . S
C511 C512 1.373 . S
C511 C513 1.389 . S
C512 H485 0.950 . S
C512 C498 1.377 . S
C512 C511 1.373 . S
C513 C497 1.377 . S
C513 C511 1.389 . S
C513 C514 1.524 . S
C514 C513 1.524 . S
C514 C515 1.397 . S
C514 C519 1.363 . S
C515 H486 0.950 . S
C515 C514 1.397 . S
C515 C516 1.334 . S
C516 H487 0.950 . S
C516 C515 1.334 . S
C516 C517 1.287 . S
C517 C516 1.287 . S
C517 C518 1.524 . S
C517 H520 0.999 . S
C518 H488 0.950 . S
C518 C517 1.524 . S
C518 C519 1.415 . S
C519 H489 0.950 . S
C519 C514 1.363 . S
C519 C518 1.415 . S
H520 C517 0.999 . S
H521 C502 0.913 . S
H522 C540 0.951 . S
H523 C542 0.951 . S
H524 C544 0.950 . S
H525 C545 0.950 . S
H526 C547 0.950 . S
H527 C550 0.950 . S
H528 C551 0.950 . S
H529 C553 0.950 . S
H530 C554 0.950 . S
H531 C555 0.951 . S
H532 C557 0.951 . S
H533 C559 0.950 . S
H534 C560 0.950 . S
H535 C562 0.950 . S
H536 C565 0.950 . S
H537 C566 0.950 . S
H538 C568 0.950 . S
H539 C569 0.950 . S
C540 H522 0.951 . S
C540 C541 1.366 . S
C540 C542 1.388 . S
C541 C540 1.366 . S
C541 C545 1.385 . S
C542 H523 0.951 . S
C542 C540 1.388 . S
C542 C543 1.366 . S
C543 C542 1.366 . S
C543 C544 1.414 . S
C543 C546 1.499 . S
C544 H524 0.950 . S
C544 C543 1.414 . S
C544 C545 1.374 . S
C545 H525 0.950 . S
C545 C541 1.385 . S
C545 C544 1.374 . S
C546 C543 1.499 . S
C546 C547 1.373 . S
C546 C548 1.389 . S
C547 H526 0.950 . S
C547 C546 1.373 . S
C547 C563 1.377 . S
C548 C546 1.389 . S
C548 C549 1.524 . S
C548 C562 1.377 . S
C549 C548 1.524 . S
C549 C550 1.397 . S
C549 C554 1.363 . S
C550 H527 0.950 . S
C550 C549 1.397 . S
C550 C551 1.334 . S
C551 H528 0.950 . S
C551 C550 1.334 . S
C551 C552 1.287 . S
C552 C551 1.287 . S
C552 C553 1.524 . S
C552 H571 0.913 . S
C553 H529 0.950 . S
C553 C552 1.524 . S
C553 C554 1.415 . S
C554 H530 0.950 . S
C554 C549 1.363 . S
C554 C553 1.415 . S
C555 H531 0.951 . S
C555 C556 1.366 . S
C555 C557 1.388 . S
C556 C555 1.366 . S
C556 C560 1.385 . S
C557 H532 0.951 . S
C557 C555 1.388 . S
C557 C558 1.366 . S
C558 C557 1.366 . S
C558 C559 1.414 . S
C558 C561 1.499 . S
C559 H533 0.950 . S
C559 C558 1.414 . S
C559 C560 1.374 . S
C560 H534 0.950 . S
C560 C556 1.385 . S
C560 C559 1.374 . S
C561 C558 1.499 . S
C561 C562 1.373 . S
C561 C563 1.389 . S
C562 H535 0.950 . S
C562 C548 1.377 . S
C562 C561 1.373 . S
C563 C547 1.377 . S
C563 C561 1.389 . S
C563 C564 1.524 . S
C564 C563 1.524 . S
C564 C565 1.397 . S
C564 C569 1.363 . S
C565 H536 0.950 . S
C565 C564 1.397 . S
C565 C566 1.334 . S
C566 H537 0.950 . S
C566 C565 1.334 . S
C566 C567 1.287 . S
C567 C566 1.287 . S
C567 C568 1.524 . S
C567 H570 0.999 . S
C568 H538 0.950 . S
C568 C567 1.524 . S
C568 C569 1.415 . S
C569 H539 0.950 . S
C569 C564 1.363 . S
C569 C568 1.415 . S
H570 C567 0.999 . S
H571 C552 0.913 . S
H572 C590 0.951 . S
H573 C592 0.951 . S
H574 C594 0.950 . S
H575 C595 0.950 . S
H576 C597 0.950 . S
H577 C600 0.950 . S
H578 C601 0.950 . S
H579 C603 0.950 . S
H580 C604 0.950 . S
H581 C605 0.951 . S
H582 C607 0.951 . S
H583 C609 0.950 . S
H584 C610 0.950 . S
H585 C612 0.950 . S
H586 C615 0.950 . S
H587 C616 0.950 . S
H588 C618 0.950 . S
H589 C619 0.950 . S
C590 H572 0.951 . S
C590 C591 1.366 . S
C590 C592 1.388 . S
C591 C590 1.366 . S
C591 C595 1.385 . S
C592 H573 0.951 . S
C592 C590 1.388 . S
C592 C593 1.366 . S
C593 C592 1.366 . S
C593 C594 1.414 . S
C593 C596 1.499 . S
C594 H574 0.950 . S
C594 C593 1.414 . S
C594 C595 1.374 . S
C595 H575 0.950 . S
C595 C591 1.385 . S
C595 C594 1.374 . S
C596 C593 1.499 . S
C596 C597 1.373 . S
C596 C598 1.389 . S
C597 H576 0.950 . S
C597 C596 1.373 . S
C597 C613 1.377 . S
C598 C596 1.389 . S
C598 C599 1.524 . S
C598 C612 1.377 . S
C599 C598 1.524 . S
C599 C600 1.397 . S
C599 C604 1.363 . S
C600 H577 0.950 . S
C600 C599 1.397 . S
C600 C601 1.334 . S
C601 H578 0.950 . S
C601 C600 1.334 . S
C601 C602 1.287 . S
C602 C601 1.287 . S
C602 C603 1.524 . S
C602 H621 0.913 . S
C603 H579 0.950 . S
C603 C602 1.524 . S
C603 C604 1.415 . S
C604 H580 0.950 . S
C604 C599 1.363 . S
C604 C603 1.415 . S
C605 H581 0.951 . S
C605 C606 1.366 . S
C605 C607 1.388 . S
C606 C605 1.366 . S
C606 C610 1.385 . S
C607 H582 0.951 . S
C607 C605 1.388 . S
C607 C608 1.366 . S
C608 C607 1.366 . S
C608 C609 1.414 . S
C608 C611 1.499 . S
C609 H583 0.950 . S
C609 C608 1.414 . S
C609 C610 1.374 . S
C610 H584 0.950 . S
C610 C606 1.385 . S
C610 C609 1.374 . S
C611 C608 1.499 . S
C611 C612 1.373 . S
C611 C613 1.389 . S
C612 H585 0.950 . S
C612 C598 1.377 . S
C612 C611 1.373 . S
C613 C597 1.377 . S
C613 C611 1.389 . S
C613 C614 1.524 . S
C614 C613 1.524 . S
C614 C615 1.397 . S
C614 C619 1.363 . S
C615 H586 0.950 . S
C615 C614 1.397 . S
C615 C616 1.334 . S
C616 H587 0.950 . S
C616 C615 1.334 . S
C616 C617 1.287 . S
C617 C616 1.287 . S
C617 C618 1.524 . S
C617 H620 0.999 . S
C618 H588 0.950 . S
C618 C617 1.524 . S
C618 C619 1.415 . S
C619 H589 0.950 . S
C619 C614 1.363 . S
C619 C618 1.415 . S
H620 C617 0.999 . S
H621 C602 0.913 . S
H622 C640 0.951 . S
H623 C642 0.951 . S
H624 C644 0.950 . S
H625 C645 0.950 . S
H626 C647 0.950 . S
H627 C650 0.950 . S
H628 C651 0.950 . S
H629 C653 0.950 . S
H630 C654 0.950 . S
H631 C655 0.951 1_556 S
H632 C657 0.951 . S
H633 C659 0.950 . S
H634 C660 0.950 . S
H635 C662 0.950 . S
H636 C665 0.950 . S
H637 C666 0.950 . S
H638 C668 0.950 . S
H639 C669 0.950 . S
C640 H622 0.951 . S
C640 C641 1.366 . S
C640 C642 1.388 . S
C641 C640 1.366 . S
C641 C645 1.385 . S
C642 H623 0.951 . S
C642 C640 1.388 . S
C642 C643 1.366 . S
C643 C642 1.366 . S
C643 C644 1.414 . S
C643 C646 1.499 . S
C644 H624 0.950 . S
C644 C643 1.414 . S
C644 C645 1.374 . S
C645 H625 0.950 . S
C645 C641 1.385 . S
C645 C644 1.374 . S
C646 C643 1.499 . S
C646 C647 1.373 . S
C646 C648 1.389 . S
C647 H626 0.950 . S
C647 C646 1.373 . S
C647 C663 1.377 . S
C648 C646 1.389 . S
C648 C649 1.524 . S
C648 C662 1.377 . S
C649 C648 1.524 . S
C649 C650 1.397 . S
C649 C654 1.363 . S
C650 H627 0.950 . S
C650 C649 1.397 . S
C650 C651 1.334 . S
C651 H628 0.950 . S
C651 C650 1.334 . S
C651 C652 1.287 . S
C652 C651 1.287 . S
C652 C653 1.524 . S
C652 H671 0.913 . S
C653 H629 0.950 . S
C653 C652 1.524 . S
C653 C654 1.415 . S
C654 H630 0.950 . S
C654 C649 1.363 . S
C654 C653 1.415 . S
C655 H631 0.951 1_554 S
C655 C656 1.366 . S
C655 C657 1.388 . S
C656 C655 1.366 . S
C656 C660 1.385 . S
C657 H632 0.951 . S
C657 C655 1.388 . S
C657 C658 1.366 . S
C658 C657 1.366 . S
C658 C659 1.414 . S
C658 C661 1.499 . S
C659 H633 0.950 . S
C659 C658 1.414 . S
C659 C660 1.374 . S
C660 H634 0.950 . S
C660 C656 1.385 . S
C660 C659 1.374 . S
C661 C658 1.499 . S
C661 C662 1.373 . S
C661 C663 1.389 . S
C662 H635 0.950 . S
C662 C648 1.377 . S
C662 C661 1.373 . S
C663 C647 1.377 . S
C663 C661 1.389 . S
C663 C664 1.524 . S
C664 C663 1.524 . S
C664 C665 1.397 . S
C664 C669 1.363 . S
C665 H636 0.950 . S
C665 C664 1.397 . S
C665 C666 1.334 . S
C666 H637 0.950 . S
C666 C665 1.334 . S
C666 C667 1.287 1_554 S
C667 C666 1.287 1_556 S
C667 C668 1.524 . S
C667 H670 0.999 . S
C668 H638 0.950 . S
C668 C667 1.524 . S
C668 C669 1.415 1_556 S
C669 H639 0.950 . S
C669 C664 1.363 . S
C669 C668 1.415 1_554 S
H670 C667 0.999 . S
H671 C652 0.913 . S
H672 C690 0.951 . S
H673 C692 0.951 . S
H674 C694 0.950 . S
H675 C695 0.950 . S
H676 C697 0.950 . S
H677 C700 0.950 . S
H678 C701 0.950 . S
H679 C703 0.950 . S
H680 C704 0.950 . S
H681 C705 0.951 . S
H682 C707 0.951 . S
H683 C709 0.950 . S
H684 C710 0.950 . S
H685 C712 0.950 . S
H686 C715 0.950 . S
H687 C716 0.950 . S
H688 C718 0.950 . S
H689 C719 0.950 . S
C690 H672 0.951 . S
C690 C691 1.366 . S
C690 C692 1.388 . S
C691 C690 1.366 . S
C691 C695 1.385 . S
C692 H673 0.951 . S
C692 C690 1.388 . S
C692 C693 1.366 . S
C693 C692 1.366 . S
C693 C694 1.414 . S
C693 C696 1.499 . S
C694 H674 0.950 . S
C694 C693 1.414 . S
C694 C695 1.374 . S
C695 H675 0.950 . S
C695 C691 1.385 . S
C695 C694 1.374 . S
C696 C693 1.499 . S
C696 C697 1.373 . S
C696 C698 1.389 . S
C697 H676 0.950 . S
C697 C696 1.373 . S
C697 C713 1.377 . S
C698 C696 1.389 . S
C698 C699 1.524 . S
C698 C712 1.377 . S
C699 C698 1.524 . S
C699 C700 1.397 . S
C699 C704 1.363 . S
C700 H677 0.950 . S
C700 C699 1.397 . S
C700 C701 1.334 . S
C701 H678 0.950 . S
C701 C700 1.334 . S
C701 C702 1.287 . S
C702 C701 1.287 . S
C702 C703 1.524 . S
C702 H721 0.913 . S
C703 H679 0.950 . S
C703 C702 1.524 . S
C703 C704 1.415 . S
C704 H680 0.950 . S
C704 C699 1.363 . S
C704 C703 1.415 . S
C705 H681 0.951 . S
C705 C706 1.366 . S
C705 C707 1.388 . S
C706 C705 1.366 . S
C706 C710 1.385 . S
C707 H682 0.951 . S
C707 C705 1.388 . S
C707 C708 1.366 . S
C708 C707 1.366 . S
C708 C709 1.414 . S
C708 C711 1.499 . S
C709 H683 0.950 . S
C709 C708 1.414 . S
C709 C710 1.374 . S
C710 H684 0.950 . S
C710 C706 1.385 . S
C710 C709 1.374 . S
C711 C708 1.499 . S
C711 C712 1.373 . S
C711 C713 1.389 . S
C712 H685 0.950 . S
C712 C698 1.377 . S
C712 C711 1.373 . S
C713 C697 1.377 . S
C713 C711 1.389 . S
C713 C714 1.524 . S
C714 C713 1.524 . S
C714 C715 1.397 . S
C714 C719 1.363 . S
C715 H686 0.950 . S
C715 C714 1.397 . S
C715 C716 1.334 . S
C716 H687 0.950 . S
C716 C715 1.334 . S
C716 C717 1.287 . S
C717 C716 1.287 . S
C717 C718 1.524 . S
C717 H720 0.999 . S
C718 H688 0.950 . S
C718 C717 1.524 . S
C718 C719 1.415 . S
C719 H689 0.950 . S
C719 C714 1.363 . S
C719 C718 1.415 . S
H720 C717 0.999 . S
H721 C702 0.913 . S
H722 C740 0.951 . S
H723 C742 0.951 . S
H724 C744 0.950 . S
H725 C745 0.950 . S
H726 C747 0.950 . S
H727 C750 0.950 . S
H728 C751 0.950 . S
H729 C753 0.950 . S
H730 C754 0.950 . S
H731 C755 0.951 . S
H732 C757 0.951 . S
H733 C759 0.950 . S
H734 C760 0.950 . S
H735 C762 0.950 . S
H736 C765 0.950 . S
H737 C766 0.950 . S
H738 C768 0.950 . S
H739 C769 0.950 . S
C740 H722 0.951 . S
C740 C741 1.366 . S
C740 C742 1.388 . S
C741 C740 1.366 . S
C741 C745 1.385 . S
C742 H723 0.951 . S
C742 C740 1.388 . S
C742 C743 1.366 . S
C743 C742 1.366 . S
C743 C744 1.414 . S
C743 C746 1.499 . S
C744 H724 0.950 . S
C744 C743 1.414 . S
C744 C745 1.374 . S
C745 H725 0.950 . S
C745 C741 1.385 . S
C745 C744 1.374 . S
C746 C743 1.499 . S
C746 C747 1.373 . S
C746 C748 1.389 . S
C747 H726 0.950 . S
C747 C746 1.373 . S
C747 C763 1.377 . S
C748 C746 1.389 . S
C748 C749 1.524 . S
C748 C762 1.377 . S
C749 C748 1.524 . S
C749 C750 1.397 . S
C749 C754 1.363 . S
C750 H727 0.950 . S
C750 C749 1.397 . S
C750 C751 1.334 . S
C751 H728 0.950 . S
C751 C750 1.334 . S
C751 C752 1.287 . S
C752 C751 1.287 . S
C752 C753 1.524 . S
C752 H771 0.913 . S
C753 H729 0.950 . S
C753 C752 1.524 . S
C753 C754 1.415 . S
C754 H730 0.950 . S
C754 C749 1.363 . S
C754 C753 1.415 . S
C755 H731 0.951 . S
C755 C756 1.366 . S
C755 C757 1.388 . S
C756 C755 1.366 . S
C756 C760 1.385 . S
C757 H732 0.951 . S
C757 C755 1.388 . S
C757 C758 1.366 . S
C758 C757 1.366 . S
C758 C759 1.414 . S
C758 C761 1.499 . S
C759 H733 0.950 . S
C759 C758 1.414 . S
C759 C760 1.374 . S
C760 H734 0.950 . S
C760 C756 1.385 . S
C760 C759 1.374 . S
C761 C758 1.499 . S
C761 C762 1.373 . S
C761 C763 1.389 . S
C762 H735 0.950 . S
C762 C748 1.377 . S
C762 C761 1.373 . S
C763 C747 1.377 . S
C763 C761 1.389 . S
C763 C764 1.524 . S
C764 C763 1.524 . S
C764 C765 1.397 . S
C764 C769 1.363 . S
C765 H736 0.950 . S
C765 C764 1.397 . S
C765 C766 1.334 . S
C766 H737 0.950 . S
C766 C765 1.334 . S
C766 C767 1.287 . S
C767 C766 1.287 . S
C767 C768 1.524 . S
C767 H770 0.999 . S
C768 H738 0.950 . S
C768 C767 1.524 . S
C768 C769 1.415 . S
C769 H739 0.950 . S
C769 C764 1.363 . S
C769 C768 1.415 . S
H770 C767 0.999 . S
H771 C752 0.913 . S
H772 C790 0.951 . S
H773 C792 0.951 . S
H774 C794 0.950 . S
H775 C795 0.950 . S
H776 C797 0.950 . S
H777 C800 0.950 . S
H778 C801 0.950 . S
H779 C803 0.950 . S
H780 C804 0.950 . S
H781 C805 0.951 . S
H782 C807 0.951 . S
H783 C809 0.950 . S
H784 C810 0.950 . S
H785 C812 0.950 . S
H786 C815 0.950 . S
H787 C816 0.950 . S
H788 C818 0.950 . S
H789 C819 0.950 . S
C790 H772 0.951 . S
C790 C791 1.366 . S
C790 C792 1.388 . S
C791 C790 1.366 . S
C791 C795 1.385 . S
C792 H773 0.951 . S
C792 C790 1.388 . S
C792 C793 1.366 . S
C793 C792 1.366 . S
C793 C794 1.414 . S
C793 C796 1.499 . S
C794 H774 0.950 . S
C794 C793 1.414 . S
C794 C795 1.374 . S
C795 H775 0.950 . S
C795 C791 1.385 . S
C795 C794 1.374 . S
C796 C793 1.499 . S
C796 C797 1.373 . S
C796 C798 1.389 . S
C797 H776 0.950 . S
C797 C796 1.373 . S
C797 C813 1.377 . S
C798 C796 1.389 . S
C798 C799 1.524 . S
C798 C812 1.377 . S
C799 C798 1.524 . S
C799 C800 1.397 . S
C799 C804 1.363 . S
C800 H777 0.950 . S
C800 C799 1.397 . S
C800 C801 1.334 . S
C801 H778 0.950 . S
C801 C800 1.334 . S
C801 C802 1.287 . S
C802 C801 1.287 . S
C802 C803 1.524 . S
C802 H821 0.913 . S
C803 H779 0.950 . S
C803 C802 1.524 . S
C803 C804 1.415 . S
C804 H780 0.950 . S
C804 C799 1.363 . S
C804 C803 1.415 . S
C805 H781 0.951 . S
C805 C806 1.366 . S
C805 C807 1.388 . S
C806 C805 1.366 . S
C806 C810 1.385 . S
C807 H782 0.951 . S
C807 C805 1.388 . S
C807 C808 1.366 . S
C808 C807 1.366 . S
C808 C809 1.414 . S
C808 C811 1.499 . S
C809 H783 0.950 . S
C809 C808 1.414 . S
C809 C810 1.374 . S
C810 H784 0.950 . S
C810 C806 1.385 . S
C810 C809 1.374 . S
C811 C808 1.499 . S
C811 C812 1.373 . S
C811 C813 1.389 . S
C812 H785 0.950 . S
C812 C798 1.377 . S
C812 C811 1.373 . S
C813 C797 1.377 . S
C813 C811 1.389 . S
C813 C814 1.524 . S
C814 C813 1.524 . S
C814 C815 1.397 . S
C814 C819 1.363 . S
C815 H786 0.950 . S
C815 C814 1.397 . S
C815 C816 1.334 . S
C816 H787 0.950 . S
C816 C815 1.334 . S
C816 C817 1.287 . S
C817 C816 1.287 . S
C817 C818 1.524 . S
C817 H820 0.999 . S
C818 H788 0.950 . S
C818 C817 1.524 . S
C818 C819 1.415 . S
C819 H789 0.950 . S
C819 C814 1.363 . S
C819 C818 1.415 . S
H820 C817 0.999 . S
H821 C802 0.913 . S
H822 C840 0.951 . S
H823 C842 0.951 . S
H824 C844 0.950 . S
H825 C845 0.950 . S
H826 C847 0.950 . S
H827 C850 0.950 . S
H828 C851 0.950 . S
H829 C853 0.950 . S
H830 C854 0.950 . S
H831 C855 0.951 . S
H832 C857 0.951 . S
H833 C859 0.950 . S
H834 C860 0.950 . S
H835 C862 0.950 . S
H836 C865 0.950 . S
H837 C866 0.950 . S
H838 C868 0.950 . S
H839 C869 0.950 . S
C840 H822 0.951 . S
C840 C841 1.366 . S
C840 C842 1.388 . S
C841 C840 1.366 . S
C841 C845 1.385 . S
C842 H823 0.951 . S
C842 C840 1.388 . S
C842 C843 1.366 . S
C843 C842 1.366 . S
C843 C844 1.414 . S
C843 C846 1.499 . S
C844 H824 0.950 . S
C844 C843 1.414 . S
C844 C845 1.374 . S
C845 H825 0.950 . S
C845 C841 1.385 . S
C845 C844 1.374 . S
C846 C843 1.499 . S
C846 C847 1.373 . S
C846 C848 1.389 . S
C847 H826 0.950 . S
C847 C846 1.373 . S
C847 C863 1.377 . S
C848 C846 1.389 . S
C848 C849 1.524 . S
C848 C862 1.377 . S
C849 C848 1.524 . S
C849 C850 1.397 . S
C849 C854 1.363 . S
C850 H827 0.950 . S
C850 C849 1.397 . S
C850 C851 1.334 . S
C851 H828 0.950 . S
C851 C850 1.334 . S
C851 C852 1.287 . S
C852 C851 1.287 . S
C852 C853 1.524 . S
C852 H871 0.913 . S
C853 H829 0.950 . S
C853 C852 1.524 . S
C853 C854 1.415 . S
C854 H830 0.950 . S
C854 C849 1.363 . S
C854 C853 1.415 . S
C855 H831 0.951 . S
C855 C856 1.366 . S
C855 C857 1.388 . S
C856 C855 1.366 . S
C856 C860 1.385 . S
C857 H832 0.951 . S
C857 C855 1.388 . S
C857 C858 1.366 . S
C858 C857 1.366 . S
C858 C859 1.414 . S
C858 C861 1.499 . S
C859 H833 0.950 . S
C859 C858 1.414 . S
C859 C860 1.374 . S
C860 H834 0.950 . S
C860 C856 1.385 . S
C860 C859 1.374 . S
C861 C858 1.499 . S
C861 C862 1.373 . S
C861 C863 1.389 . S
C862 H835 0.950 . S
C862 C848 1.377 . S
C862 C861 1.373 . S
C863 C847 1.377 . S
C863 C861 1.389 . S
C863 C864 1.524 . S
C864 C863 1.524 . S
C864 C865 1.397 . S
C864 C869 1.363 . S
C865 H836 0.950 . S
C865 C864 1.397 . S
C865 C866 1.334 . S
C866 H837 0.950 . S
C866 C865 1.334 . S
C866 C867 1.287 . S
C867 C866 1.287 . S
C867 C868 1.524 . S
C867 H870 0.999 . S
C868 H838 0.950 . S
C868 C867 1.524 . S
C868 C869 1.415 . S
C869 H839 0.950 . S
C869 C864 1.363 . S
C869 C868 1.415 . S
H870 C867 0.999 . S
H871 C852 0.913 . S
H872 C890 0.951 . S
H873 C892 0.951 . S
H874 C894 0.950 . S
H875 C895 0.950 . S
H876 C897 0.950 . S
H877 C900 0.950 . S
H878 C901 0.950 . S
H879 C903 0.950 . S
H880 C904 0.950 . S
H881 C905 0.951 . S
H882 C907 0.951 . S
H883 C909 0.950 . S
H884 C910 0.950 . S
H885 C912 0.950 . S
H886 C915 0.950 . S
H887 C916 0.950 . S
H888 C918 0.950 . S
H889 C919 0.950 . S
C890 H872 0.951 . S
C890 C891 1.366 . S
C890 C892 1.388 . S
C891 C890 1.366 . S
C891 C895 1.385 . S
C892 H873 0.951 . S
C892 C890 1.388 . S
C892 C893 1.366 . S
C893 C892 1.366 . S
C893 C894 1.414 . S
C893 C896 1.499 . S
C894 H874 0.950 . S
C894 C893 1.414 . S
C894 C895 1.374 . S
C895 H875 0.950 . S
C895 C891 1.385 . S
C895 C894 1.374 . S
C896 C893 1.499 . S
C896 C897 1.373 . S
C896 C898 1.389 . S
C897 H876 0.950 . S
C897 C896 1.373 . S
C897 C913 1.377 . S
C898 C896 1.389 . S
C898 C899 1.524 . S
C898 C912 1.377 . S
C899 C898 1.524 . S
C899 C900 1.397 . S
C899 C904 1.363 . S
C900 H877 0.950 . S
C900 C899 1.397 . S
C900 C901 1.334 . S
C901 H878 0.950 . S
C901 C900 1.334 . S
C901 C902 1.287 . S
C902 C901 1.287 . S
C902 C903 1.524 . S
C902 H921 0.913 . S
C903 H879 0.950 . S
C903 C902 1.524 . S
C903 C904 1.415 . S
C904 H880 0.950 . S
C904 C899 1.363 . S
C904 C903 1.415 . S
C905 H881 0.951 . S
C905 C906 1.366 . S
C905 C907 1.388 . S
C906 C905 1.366 . S
C906 C910 1.385 . S
C907 H882 0.951 . S
C907 C905 1.388 . S
C907 C908 1.366 . S
C908 C907 1.366 . S
C908 C909 1.414 . S
C908 C911 1.499 . S
C909 H883 0.950 . S
C909 C908 1.414 . S
C909 C910 1.374 . S
C910 H884 0.950 . S
C910 C906 1.385 . S
C910 C909 1.374 . S
C911 C908 1.499 . S
C911 C912 1.373 . S
C911 C913 1.389 . S
C912 H885 0.950 . S
C912 C898 1.377 . S
C912 C911 1.373 . S
C913 C897 1.377 . S
C913 C911 1.389 . S
C913 C914 1.524 . S
C914 C913 1.524 . S
C914 C915 1.397 . S
C914 C919 1.363 . S
C915 H886 0.950 . S
C915 C914 1.397 . S
C915 C916 1.334 . S
C916 H887 0.950 . S
C916 C915 1.334 . S
C916 C917 1.287 . S
C917 C916 1.287 . S
C917 C918 1.524 . S
C917 H920 0.999 . S
C918 H888 0.950 . S
C918 C917 1.524 . S
C918 C919 1.415 . S
C919 H889 0.950 . S
C919 C914 1.363 . S
C919 C918 1.415 . S
H920 C917 0.999 . S
H921 C902 0.913 . S
H922 C940 0.951 . S
H923 C942 0.951 . S
H924 C944 0.950 . S
H925 C945 0.950 . S
H926 C947 0.950 . S
H927 C950 0.950 . S
H928 C951 0.950 . S
H929 C953 0.950 . S
H930 C954 0.950 . S
H931 C955 0.951 . S
H932 C957 0.951 . S
H933 C959 0.950 . S
H934 C960 0.950 . S
H935 C962 0.950 . S
H936 C965 0.941 1_554 S
H937 C966 0.950 . S
H938 C968 0.950 . S
H939 C969 0.950 . S
C940 H922 0.951 . S
C940 C941 1.366 . S
C940 C942 1.388 . S
C941 C940 1.366 . S
C941 C945 1.385 . S
C942 H923 0.951 . S
C942 C940 1.388 . S
C942 C943 1.366 . S
C943 C942 1.366 . S
C943 C944 1.414 . S
C943 C946 1.499 . S
C944 H924 0.950 . S
C944 C943 1.414 . S
C944 C945 1.374 . S
C945 H925 0.950 . S
C945 C941 1.385 . S
C945 C944 1.374 . S
C946 C943 1.499 . S
C946 C947 1.373 . S
C946 C948 1.389 . S
C947 H926 0.950 . S
C947 C946 1.373 . S
C947 C963 1.377 . S
C948 C946 1.389 . S
C948 C949 1.524 . S
C948 C962 1.377 . S
C949 C948 1.524 . S
C949 C950 1.397 . S
C949 C954 1.363 . S
C950 H927 0.950 . S
C950 C949 1.397 . S
C950 C951 1.334 . S
C951 H928 0.950 . S
C951 C950 1.334 . S
C951 C952 1.287 . S
C952 C951 1.287 . S
C952 C953 1.524 . S
C952 H971 0.913 . S
C953 H929 0.950 . S
C953 C952 1.524 . S
C953 C954 1.415 . S
C954 H930 0.950 . S
C954 C949 1.363 . S
C954 C953 1.415 . S
C955 H931 0.951 . S
C955 C956 1.366 . S
C955 C957 1.388 . S
C956 C955 1.366 . S
C956 C960 1.385 . S
C957 H932 0.951 . S
C957 C955 1.388 . S
C957 C958 1.366 . S
C958 C957 1.366 . S
C958 C959 1.414 . S
C958 C961 1.499 . S
C959 H933 0.950 . S
C959 C958 1.414 . S
C959 C960 1.374 . S
C960 H934 0.950 . S
C960 C956 1.385 . S
C960 C959 1.374 . S
C961 C958 1.499 . S
C961 C962 1.373 . S
C961 C963 1.389 . S
C962 H935 0.950 . S
C962 C948 1.377 . S
C962 C961 1.373 . S
C963 C947 1.377 . S
C963 C961 1.389 . S
C963 C964 1.524 . S
C964 C963 1.524 . S
C964 C965 1.379 1_554 S
C964 C969 1.363 . S
C965 H936 0.941 1_556 S
C965 C964 1.379 1_556 S
C965 C966 1.360 . S
C966 H937 0.950 . S
C966 C965 1.360 . S
C966 C967 1.287 . S
C967 C966 1.287 . S
C967 C968 1.524 . S
C967 H970 0.999 . S
C968 H938 0.950 . S
C968 C967 1.524 . S
C968 C969 1.415 1_556 S
C969 H939 0.950 . S
C969 C964 1.363 . S
C969 C968 1.415 1_554 S
H970 C967 0.999 . S
H971 C952 0.913 . S
H972 C990 0.951 . S
H973 C992 0.951 . S
H974 C994 0.950 . S
H975 C995 0.950 . S
H976 C997 0.950 . S
H977 C1000 0.950 . S
H978 C1001 0.950 . S
H979 C1003 0.950 . S
H980 C1004 0.950 . S
H981 C1005 0.951 . S
H982 C1007 0.951 . S
H983 C1009 0.950 . S
H984 C1010 0.950 . S
H985 C1012 0.950 . S
H986 C1015 0.950 . S
H987 C1016 0.950 . S
H988 C1018 0.950 . S
H989 C1019 0.950 . S
C990 H972 0.951 . S
C990 C991 1.366 . S
C990 C992 1.388 . S
C991 C990 1.366 . S
C991 C995 1.385 . S
C992 H973 0.951 . S
C992 C990 1.388 . S
C992 C993 1.366 . S
C993 C992 1.366 . S
C993 C994 1.414 . S
C993 C996 1.499 . S
C994 H974 0.950 . S
C994 C993 1.414 . S
C994 C995 1.374 . S
C995 H975 0.950 . S
C995 C991 1.385 . S
C995 C994 1.374 . S
C996 C993 1.499 . S
C996 C997 1.373 . S
C996 C998 1.389 . S
C997 H976 0.950 . S
C997 C996 1.373 . S
C997 C1013 1.377 . S
C998 C996 1.389 . S
C998 C999 1.524 . S
C998 C1012 1.377 . S
C999 C998 1.524 . S
C999 C1000 1.397 . S
C999 C1004 1.363 . S
C1000 H977 0.950 . S
C1000 C999 1.397 . S
C1000 C1001 1.334 . S
C1001 H978 0.950 . S
C1001 C1000 1.334 . S
C1001 C1002 1.287 . S
C1002 C1001 1.287 . S
C1002 C1003 1.524 . S
C1002 H1021 0.913 . S
C1003 H979 0.950 . S
C1003 C1002 1.524 . S
C1003 C1004 1.415 . S
C1004 H980 0.950 . S
C1004 C999 1.363 . S
C1004 C1003 1.415 . S
C1005 H981 0.951 . S
C1005 C1006 1.366 . S
C1005 C1007 1.388 . S
C1006 C1005 1.366 . S
C1006 C1010 1.385 . S
C1007 H982 0.951 . S
C1007 C1005 1.388 . S
C1007 C1008 1.366 . S
C1008 C1007 1.366 . S
C1008 C1009 1.414 . S
C1008 C1011 1.499 . S
C1009 H983 0.950 . S
C1009 C1008 1.414 . S
C1009 C1010 1.374 . S
C1010 H984 0.950 . S
C1010 C1006 1.385 . S
C1010 C1009 1.374 . S
C1011 C1008 1.499 . S
C1011 C1012 1.373 . S
C1011 C1013 1.389 . S
C1012 H985 0.950 . S
C1012 C998 1.377 . S
C1012 C1011 1.373 . S
C1013 C997 1.377 . S
C1013 C1011 1.389 . S
C1013 C1014 1.524 . S
C1014 C1013 1.524 . S
C1014 C1015 1.397 . S
C1014 C1019 1.363 . S
C1015 H986 0.950 . S
C1015 C1014 1.397 . S
C1015 C1016 1.334 . S
C1016 H987 0.950 . S
C1016 C1015 1.334 . S
C1016 C1017 1.287 . S
C1017 C1016 1.287 . S
C1017 C1018 1.524 . S
C1017 H1020 0.999 . S
C1018 H988 0.950 . S
C1018 C1017 1.524 . S
C1018 C1019 1.415 . S
C1019 H989 0.950 . S
C1019 C1014 1.363 . S
C1019 C1018 1.415 . S
H1020 C1017 0.999 . S
H1021 C1002 0.913 . S
H1022 C1040 0.951 . S
H1023 C1042 0.951 . S
H1024 C1044 0.950 . S
H1025 C1045 0.950 . S
H1026 C1047 0.950 . S
H1027 C1050 0.950 . S
H1028 C1051 0.950 . S
H1029 C1053 0.950 . S
H1030 C1054 0.950 . S
H1031 C1055 0.951 . S
H1032 C1057 0.951 . S
H1033 C1059 0.950 . S
H1034 C1060 0.950 . S
H1035 C1062 0.950 . S
H1036 C1065 0.950 . S
H1037 C1066 0.950 . S
H1038 C1068 0.950 . S
H1039 C1069 0.950 . S
C1040 H1022 0.951 . S
C1040 C1041 1.366 . S
C1040 C1042 1.388 . S
C1041 C1040 1.366 . S
C1041 C1045 1.385 . S
C1042 H1023 0.951 . S
C1042 C1040 1.388 . S
C1042 C1043 1.366 . S
C1043 C1042 1.366 . S
C1043 C1044 1.414 . S
C1043 C1046 1.499 . S
C1044 H1024 0.950 . S
C1044 C1043 1.414 . S
C1044 C1045 1.374 . S
C1045 H1025 0.950 . S
C1045 C1041 1.385 . S
C1045 C1044 1.374 . S
C1046 C1043 1.499 . S
C1046 C1047 1.373 . S
C1046 C1048 1.389 . S
C1047 H1026 0.950 . S
C1047 C1046 1.373 . S
C1047 C1063 1.377 . S
C1048 C1046 1.389 . S
C1048 C1049 1.524 . S
C1048 C1062 1.377 . S
C1049 C1048 1.524 . S
C1049 C1050 1.397 . S
C1049 C1054 1.363 . S
C1050 H1027 0.950 . S
C1050 C1049 1.397 . S
C1050 C1051 1.334 . S
C1051 H1028 0.950 . S
C1051 C1050 1.334 . S
C1051 C1052 1.287 . S
C1052 C1051 1.287 . S
C1052 C1053 1.524 . S
C1052 H1071 0.913 . S
C1053 H1029 0.950 . S
C1053 C1052 1.524 . S
C1053 C1054 1.415 . S
C1054 H1030 0.950 . S
C1054 C1049 1.363 . S
C1054 C1053 1.415 . S
C1055 H1031 0.951 . S
C1055 C1056 1.366 . S
C1055 C1057 1.388 . S
C1056 C1055 1.366 . S
C1056 C1060 1.385 . S
C1057 H1032 0.951 . S
C1057 C1055 1.388 . S
C1057 C1058 1.366 . S
C1058 C1057 1.366 . S
C1058 C1059 1.414 . S
C1058 C1061 1.499 . S
C1059 H1033 0.950 . S
C1059 C1058 1.414 . S
C1059 C1060 1.374 . S
C1060 H1034 0.950 . S
C1060 C1056 1.385 . S
C1060 C1059 1.374 . S
C1061 C1058 1.499 . S
C1061 C1062 1.373 . S
C1061 C1063 1.389 . S
C1062 H1035 0.950 . S
C1062 C1048 1.377 . S
C1062 C1061 1.373 . S
C1063 C1047 1.377 . S
C1063 C1061 1.389 . S
C1063 C1064 1.524 . S
C1064 C1063 1.524 . S
C1064 C1065 1.397 . S
C1064 C1069 1.363 . S
C1065 H1036 0.950 . S
C1065 C1064 1.397 . S
C1065 C1066 1.334 . S
C1066 H1037 0.950 . S
C1066 C1065 1.334 . S
C1066 C1067 1.287 . S
C1067 C1066 1.287 . S
C1067 C1068 1.524 . S
C1067 H1070 0.999 . S
C1068 H1038 0.950 . S
C1068 C1067 1.524 . S
C1068 C1069 1.415 . S
C1069 H1039 0.950 . S
C1069 C1064 1.363 . S
C1069 C1068 1.415 . S
H1070 C1067 0.999 . S
H1071 C1052 0.913 . S
H1072 C1090 0.951 . S
H1073 C1092 0.951 . S
H1074 C1094 0.950 . S
H1075 C1095 0.950 . S
H1076 C1097 0.950 . S
H1077 C1100 0.950 . S
H1078 C1101 0.950 . S
H1079 C1103 0.950 . S
H1080 C1104 0.950 . S
H1081 C1105 0.951 . S
H1082 C1107 0.951 . S
H1083 C1109 0.950 . S
H1084 C1110 0.950 . S
H1085 C1112 0.950 . S
H1086 C1115 0.950 . S
H1087 C1116 0.950 . S
H1088 C1118 0.950 . S
H1089 C1119 0.950 . S
C1090 H1072 0.951 . S
C1090 C1091 1.366 . S
C1090 C1092 1.388 . S
C1091 C1090 1.366 . S
C1091 C1095 1.385 . S
C1092 H1073 0.951 . S
C1092 C1090 1.388 . S
C1092 C1093 1.366 . S
C1093 C1092 1.366 . S
C1093 C1094 1.414 . S
C1093 C1096 1.499 . S
C1094 H1074 0.950 . S
C1094 C1093 1.414 . S
C1094 C1095 1.374 . S
C1095 H1075 0.950 . S
C1095 C1091 1.385 . S
C1095 C1094 1.374 . S
C1096 C1093 1.499 . S
C1096 C1097 1.373 . S
C1096 C1098 1.389 . S
C1097 H1076 0.950 . S
C1097 C1096 1.373 . S
C1097 C1113 1.377 . S
C1098 C1096 1.389 . S
C1098 C1099 1.524 . S
C1098 C1112 1.377 . S
C1099 C1098 1.524 . S
C1099 C1100 1.397 . S
C1099 C1104 1.363 . S
C1100 H1077 0.950 . S
C1100 C1099 1.397 . S
C1100 C1101 1.334 . S
C1101 H1078 0.950 . S
C1101 C1100 1.334 . S
C1101 C1102 1.287 . S
C1102 C1101 1.287 . S
C1102 C1103 1.524 . S
C1102 H1121 0.913 . S
C1103 H1079 0.950 . S
C1103 C1102 1.524 . S
C1103 C1104 1.415 . S
C1104 H1080 0.950 . S
C1104 C1099 1.363 . S
C1104 C1103 1.415 . S
C1105 H1081 0.951 . S
C1105 C1106 1.366 . S
C1105 C1107 1.388 . S
C1106 C1105 1.366 . S
C1106 C1110 1.385 . S
C1107 H1082 0.951 . S
C1107 C1105 1.388 . S
C1107 C1108 1.366 . S
C1108 C1107 1.366 . S
C1108 C1109 1.414 . S
C1108 C1111 1.499 . S
C1109 H1083 0.950 . S
C1109 C1108 1.414 . S
C1109 C1110 1.374 . S
C1110 H1084 0.950 . S
C1110 C1106 1.385 . S
C1110 C1109 1.374 . S
C1111 C1108 1.499 . S
C1111 C1112 1.373 . S
C1111 C1113 1.389 . S
C1112 H1085 0.950 . S
C1112 C1098 1.377 . S
C1112 C1111 1.373 . S
C1113 C1097 1.377 . S
C1113 C1111 1.389 . S
C1113 C1114 1.524 . S
C1114 C1113 1.524 . S
C1114 C1115 1.397 . S
C1114 C1119 1.363 . S
C1115 H1086 0.950 . S
C1115 C1114 1.397 . S
C1115 C1116 1.334 . S
C1116 H1087 0.950 . S
C1116 C1115 1.334 . S
C1116 C1117 1.287 . S
C1117 C1116 1.287 . S
C1117 C1118 1.524 . S
C1117 H1120 0.999 . S
C1118 H1088 0.950 . S
C1118 C1117 1.524 . S
C1118 C1119 1.415 . S
C1119 H1089 0.950 . S
C1119 C1114 1.363 . S
C1119 C1118 1.415 . S
H1120 C1117 0.999 . S
H1121 C1102 0.913 . S
H1122 C1140 0.951 . S
H1123 C1142 0.951 . S
H1124 C1144 0.950 . S
H1125 C1145 0.950 . S
H1126 C1147 0.950 . S
H1127 C1150 0.950 . S
H1128 C1151 0.950 . S
H1129 C1153 0.950 . S
H1130 C1154 0.950 . S
H1131 C1155 0.951 . S
H1132 C1157 0.951 . S
H1133 C1159 0.950 . S
H1134 C1160 0.950 . S
H1135 C1162 0.950 . S
H1136 C1165 0.950 . S
H1137 C1166 0.950 . S
H1138 C1168 0.950 . S
H1139 C1169 0.950 . S
C1140 H1122 0.951 . S
C1140 C1141 1.366 . S
C1140 C1142 1.388 . S
C1141 C1140 1.366 . S
C1141 C1145 1.385 . S
C1142 H1123 0.951 . S
C1142 C1140 1.388 . S
C1142 C1143 1.366 . S
C1143 C1142 1.366 . S
C1143 C1144 1.414 . S
C1143 C1146 1.499 . S
C1144 H1124 0.950 . S
C1144 C1143 1.414 . S
C1144 C1145 1.374 . S
C1145 H1125 0.950 . S
C1145 C1141 1.385 . S
C1145 C1144 1.374 . S
C1146 C1143 1.499 . S
C1146 C1147 1.373 . S
C1146 C1148 1.389 . S
C1147 H1126 0.950 . S
C1147 C1146 1.373 . S
C1147 C1163 1.377 . S
C1148 C1146 1.389 . S
C1148 C1149 1.524 . S
C1148 C1162 1.377 . S
C1149 C1148 1.524 . S
C1149 C1150 1.397 . S
C1149 C1154 1.363 . S
C1150 H1127 0.950 . S
C1150 C1149 1.397 . S
C1150 C1151 1.334 . S
C1151 H1128 0.950 . S
C1151 C1150 1.334 . S
C1151 C1152 1.287 . S
C1152 C1151 1.287 . S
C1152 C1153 1.524 . S
C1152 H1171 0.913 . S
C1153 H1129 0.950 . S
C1153 C1152 1.524 . S
C1153 C1154 1.415 . S
C1154 H1130 0.950 . S
C1154 C1149 1.363 . S
C1154 C1153 1.415 . S
C1155 H1131 0.951 . S
C1155 C1156 1.366 . S
C1155 C1157 1.388 . S
C1156 C1155 1.366 . S
C1156 C1160 1.385 . S
C1157 H1132 0.951 . S
C1157 C1155 1.388 . S
C1157 C1158 1.366 . S
C1158 C1157 1.366 . S
C1158 C1159 1.414 . S
C1158 C1161 1.499 . S
C1159 H1133 0.950 . S
C1159 C1158 1.414 . S
C1159 C1160 1.374 . S
C1160 H1134 0.950 . S
C1160 C1156 1.385 . S
C1160 C1159 1.374 . S
C1161 C1158 1.499 . S
C1161 C1162 1.373 . S
C1161 C1163 1.389 . S
C1162 H1135 0.950 . S
C1162 C1148 1.377 . S
C1162 C1161 1.373 . S
C1163 C1147 1.377 . S
C1163 C1161 1.389 . S
C1163 C1164 1.524 . S
C1164 C1163 1.524 . S
C1164 C1165 1.397 . S
C1164 C1169 1.363 . S
C1165 H1136 0.950 . S
C1165 C1164 1.397 . S
C1165 C1166 1.334 . S
C1166 H1137 0.950 . S
C1166 C1165 1.334 . S
C1166 C1167 1.287 . S
C1167 C1166 1.287 . S
C1167 C1168 1.524 . S
C1167 H1170 0.999 . S
C1168 H1138 0.950 . S
C1168 C1167 1.524 . S
C1168 C1169 1.415 . S
C1169 H1139 0.950 . S
C1169 C1164 1.363 . S
C1169 C1168 1.415 . S
H1170 C1167 0.999 . S
H1171 C1152 0.913 . S
H1172 C1190 0.951 . S
H1173 C1192 0.951 . S
H1174 C1194 0.950 . S
H1175 C1195 0.950 . S
H1176 C1197 0.950 . S
H1177 C1200 0.950 . S
H1178 C1201 0.950 . S
H1179 C1203 0.950 . S
H1180 C1204 0.950 . S
H1181 C1205 0.951 . S
H1182 C1207 0.951 . S
H1183 C1209 0.950 . S
H1184 C1210 0.950 . S
H1185 C1212 0.950 . S
H1186 C1215 0.950 . S
H1187 C1216 0.950 . S
H1188 C1218 0.950 . S
H1189 C1219 0.950 . S
C1190 H1172 0.951 . S
C1190 C1191 1.366 . S
C1190 C1192 1.388 . S
C1191 C1190 1.366 . S
C1191 C1195 1.385 . S
C1192 H1173 0.951 . S
C1192 C1190 1.388 . S
C1192 C1193 1.366 . S
C1193 C1192 1.366 . S
C1193 C1194 1.414 . S
C1193 C1196 1.499 . S
C1194 H1174 0.950 . S
C1194 C1193 1.414 . S
C1194 C1195 1.374 . S
C1195 H1175 0.950 . S
C1195 C1191 1.385 . S
C1195 C1194 1.374 . S
C1196 C1193 1.499 . S
C1196 C1197 1.373 . S
C1196 C1198 1.389 . S
C1197 H1176 0.950 . S
C1197 C1196 1.373 . S
C1197 C1213 1.377 . S
C1198 C1196 1.389 . S
C1198 C1199 1.524 . S
C1198 C1212 1.377 . S
C1199 C1198 1.524 . S
C1199 C1200 1.397 . S
C1199 C1204 1.363 . S
C1200 H1177 0.950 . S
C1200 C1199 1.397 . S
C1200 C1201 1.334 . S
C1201 H1178 0.950 . S
C1201 C1200 1.334 . S
C1201 C1202 1.287 . S
C1202 C1201 1.287 . S
C1202 C1203 1.524 . S
C1202 H1221 0.913 . S
C1203 H1179 0.950 . S
C1203 C1202 1.524 . S
C1203 C1204 1.415 . S
C1204 H1180 0.950 . S
C1204 C1199 1.363 . S
C1204 C1203 1.415 . S
C1205 H1181 0.951 . S
C1205 C1206 1.366 . S
C1205 C1207 1.388 . S
C1206 C1205 1.366 . S
C1206 C1210 1.385 . S
C1207 H1182 0.951 . S
C1207 C1205 1.388 . S
C1207 C1208 1.366 . S
C1208 C1207 1.366 . S
C1208 C1209 1.414 . S
C1208 C1211 1.499 . S
C1209 H1183 0.950 . S
C1209 C1208 1.414 . S
C1209 C1210 1.374 . S
C1210 H1184 0.950 . S
C1210 C1206 1.385 . S
C1210 C1209 1.374 . S
C1211 C1208 1.499 . S
C1211 C1212 1.373 . S
C1211 C1213 1.389 . S
C1212 H1185 0.950 . S
C1212 C1198 1.377 . S
C1212 C1211 1.373 . S
C1213 C1197 1.377 . S
C1213 C1211 1.389 . S
C1213 C1214 1.524 . S
C1214 C1213 1.524 . S
C1214 C1215 1.397 . S
C1214 C1219 1.363 . S
C1215 H1186 0.950 . S
C1215 C1214 1.397 . S
C1215 C1216 1.334 . S
C1216 H1187 0.950 . S
C1216 C1215 1.334 . S
C1216 C1217 1.287 . S
C1217 C1216 1.287 . S
C1217 C1218 1.524 . S
C1217 H1220 0.999 . S
C1218 H1188 0.950 . S
C1218 C1217 1.524 . S
C1218 C1219 1.415 . S
C1219 H1189 0.950 . S
C1219 C1214 1.363 . S
C1219 C1218 1.415 . S
H1220 C1217 0.999 . S
H1221 C1202 0.913 . S
H1222 C1240 0.951 . S
H1223 C1242 0.951 . S
H1224 C1244 0.950 . S
H1225 C1245 0.950 . S
H1226 C1247 0.950 . S
H1227 C1250 0.950 . S
H1228 C1251 0.950 . S
H1229 C1253 0.950 . S
H1230 C1254 0.950 . S
H1231 C1255 0.951 . S
H1232 C1257 0.951 . S
H1233 C1259 0.950 . S
H1234 C1260 0.950 . S
H1235 C1262 0.950 . S
H1236 C1265 0.950 . S
H1237 C1266 0.950 . S
H1238 C1268 0.950 . S
H1239 C1269 0.950 . S
C1240 H1222 0.951 . S
C1240 C1241 1.366 . S
C1240 C1242 1.388 . S
C1241 C1240 1.366 . S
C1241 C1245 1.385 . S
C1242 H1223 0.951 . S
C1242 C1240 1.388 . S
C1242 C1243 1.366 . S
C1243 C1242 1.366 . S
C1243 C1244 1.414 . S
C1243 C1246 1.499 . S
C1244 H1224 0.950 . S
C1244 C1243 1.414 . S
C1244 C1245 1.374 . S
C1245 H1225 0.950 . S
C1245 C1241 1.385 . S
C1245 C1244 1.374 . S
C1246 C1243 1.499 . S
C1246 C1247 1.373 . S
C1246 C1248 1.389 . S
C1247 H1226 0.950 . S
C1247 C1246 1.373 . S
C1247 C1263 1.377 . S
C1248 C1246 1.389 . S
C1248 C1249 1.524 . S
C1248 C1262 1.377 . S
C1249 C1248 1.524 . S
C1249 C1250 1.397 . S
C1249 C1254 1.363 . S
C1250 H1227 0.950 . S
C1250 C1249 1.397 . S
C1250 C1251 1.334 . S
C1251 H1228 0.950 . S
C1251 C1250 1.334 . S
C1251 C1252 1.287 . S
C1252 C1251 1.287 . S
C1252 C1253 1.524 . S
C1252 H1271 0.913 . S
C1253 H1229 0.950 . S
C1253 C1252 1.524 . S
C1253 C1254 1.415 . S
C1254 H1230 0.950 . S
C1254 C1249 1.363 . S
C1254 C1253 1.415 . S
C1255 H1231 0.951 . S
C1255 C1256 1.366 . S
C1255 C1257 1.388 . S
C1256 C1255 1.366 . S
C1256 C1260 1.385 . S
C1257 H1232 0.951 . S
C1257 C1255 1.388 . S
C1257 C1258 1.366 . S
C1258 C1257 1.366 . S
C1258 C1259 1.414 . S
C1258 C1261 1.499 . S
C1259 H1233 0.950 . S
C1259 C1258 1.414 . S
C1259 C1260 1.374 . S
C1260 H1234 0.950 . S
C1260 C1256 1.385 . S
C1260 C1259 1.374 . S
C1261 C1258 1.499 . S
C1261 C1262 1.373 . S
C1261 C1263 1.389 . S
C1262 H1235 0.950 . S
C1262 C1248 1.377 . S
C1262 C1261 1.373 . S
C1263 C1247 1.377 . S
C1263 C1261 1.389 . S
C1263 C1264 1.524 . S
C1264 C1263 1.524 . S
C1264 C1265 1.397 . S
C1264 C1269 1.363 . S
C1265 H1236 0.950 . S
C1265 C1264 1.397 . S
C1265 C1266 1.334 . S
C1266 H1237 0.950 . S
C1266 C1265 1.334 . S
C1266 C1267 1.287 . S
C1267 C1266 1.287 . S
C1267 C1268 1.524 . S
C1267 H1270 0.999 . S
C1268 H1238 0.950 . S
C1268 C1267 1.524 . S
C1268 C1269 1.415 . S
C1269 H1239 0.950 . S
C1269 C1264 1.363 . S
C1269 C1268 1.415 . S
H1270 C1267 0.999 . S
H1271 C1252 0.913 . S
H1272 C1290 0.951 . S
H1273 C1292 0.951 . S
H1274 C1294 0.950 . S
H1275 C1295 0.950 . S
H1276 C1297 0.950 . S
H1277 C1300 0.950 . S
H1278 C1301 0.950 . S
H1279 C1303 0.950 . S
H1280 C1304 0.950 . S
H1281 C1305 0.951 . S
H1282 C1307 0.951 . S
H1283 C1309 0.950 . S
H1284 C1310 0.950 . S
H1285 C1312 0.950 . S
H1286 C1315 0.950 . S
H1287 C1316 0.950 . S
H1288 C1318 0.950 . S
H1289 C1319 0.950 . S
C1290 H1272 0.951 . S
C1290 C1291 1.366 . S
C1290 C1292 1.388 . S
C1291 C1290 1.366 . S
C1291 C1295 1.385 . S
C1292 H1273 0.951 . S
C1292 C1290 1.388 . S
C1292 C1293 1.366 . S
C1293 C1292 1.366 . S
C1293 C1294 1.414 . S
C1293 C1296 1.499 . S
C1294 H1274 0.950 . S
C1294 C1293 1.414 . S
C1294 C1295 1.374 . S
C1295 H1275 0.950 . S
C1295 C1291 1.385 . S
C1295 C1294 1.374 . S
C1296 C1293 1.499 . S
C1296 C1297 1.373 . S
C1296 C1298 1.389 . S
C1297 H1276 0.950 . S
C1297 C1296 1.373 . S
C1297 C1313 1.377 . S
C1298 C1296 1.389 . S
C1298 C1299 1.524 . S
C1298 C1312 1.377 . S
C1299 C1298 1.524 . S
C1299 C1300 1.397 . S
C1299 C1304 1.363 . S
C1300 H1277 0.950 . S
C1300 C1299 1.397 . S
C1300 C1301 1.334 . S
C1301 H1278 0.950 . S
C1301 C1300 1.334 . S
C1301 C1302 1.287 . S
C1302 C1301 1.287 . S
C1302 C1303 1.524 . S
C1302 H1321 0.913 . S
C1303 H1279 0.950 . S
C1303 C1302 1.524 . S
C1303 C1304 1.415 . S
C1304 H1280 0.950 . S
C1304 C1299 1.363 . S
C1304 C1303 1.415 . S
C1305 H1281 0.951 . S
C1305 C1306 1.366 . S
C1305 C1307 1.388 . S
C1306 C1305 1.366 . S
C1306 C1310 1.385 . S
C1307 H1282 0.951 . S
C1307 C1305 1.388 . S
C1307 C1308 1.366 . S
C1308 C1307 1.366 . S
C1308 C1309 1.414 . S
C1308 C1311 1.499 . S
C1309 H1283 0.950 . S
C1309 C1308 1.414 . S
C1309 C1310 1.374 . S
C1310 H1284 0.950 . S
C1310 C1306 1.385 . S
C1310 C1309 1.374 . S
C1311 C1308 1.499 . S
C1311 C1312 1.373 . S
C1311 C1313 1.389 . S
C1312 H1285 0.950 . S
C1312 C1298 1.377 . S
C1312 C1311 1.373 . S
C1313 C1297 1.377 . S
C1313 C1311 1.389 . S
C1313 C1314 1.524 . S
C1314 C1313 1.524 . S
C1314 C1315 1.397 . S
C1314 C1319 1.363 . S
C1315 H1286 0.950 . S
C1315 C1314 1.397 . S
C1315 C1316 1.334 . S
C1316 H1287 0.950 . S
C1316 C1315 1.334 . S
C1316 C1317 1.287 . S
C1317 C1316 1.287 . S
C1317 C1318 1.524 . S
C1317 H1320 0.999 . S
C1318 H1288 0.950 . S
C1318 C1317 1.524 . S
C1318 C1319 1.415 . S
C1319 H1289 0.950 . S
C1319 C1314 1.363 . S
C1319 C1318 1.415 . S
H1320 C1317 0.999 . S
H1321 C1302 0.913 . S
H1322 C1340 0.951 . S
H1323 C1342 0.951 . S
H1324 C1344 0.950 . S
H1325 C1345 0.950 . S
H1326 C1347 0.950 . S
H1327 C1350 0.950 . S
H1328 C1351 0.950 . S
H1329 C1353 0.950 . S
H1330 C1354 0.950 . S
H1331 C1355 0.951 . S
H1332 C1357 0.951 . S
H1333 C1359 0.950 . S
H1334 C1360 0.950 . S
H1335 C1362 0.950 . S
H1336 C1365 0.950 . S
H1337 C1366 0.950 . S
H1338 C1368 0.950 . S
H1339 C1369 0.950 . S
C1340 H1322 0.951 . S
C1340 C1341 1.366 . S
C1340 C1342 1.388 . S
C1341 C1340 1.366 . S
C1341 C1345 1.385 . S
C1342 H1323 0.951 . S
C1342 C1340 1.388 . S
C1342 C1343 1.366 . S
C1343 C1342 1.366 . S
C1343 C1344 1.414 . S
C1343 C1346 1.499 . S
C1344 H1324 0.950 . S
C1344 C1343 1.414 . S
C1344 C1345 1.374 . S
C1345 H1325 0.950 . S
C1345 C1341 1.385 . S
C1345 C1344 1.374 . S
C1346 C1343 1.499 . S
C1346 C1347 1.373 . S
C1346 C1348 1.389 . S
C1347 H1326 0.950 . S
C1347 C1346 1.373 . S
C1347 C1363 1.377 . S
C1348 C1346 1.389 . S
C1348 C1349 1.524 . S
C1348 C1362 1.377 . S
C1349 C1348 1.524 . S
C1349 C1350 1.397 . S
C1349 C1354 1.363 . S
C1350 H1327 0.950 . S
C1350 C1349 1.397 . S
C1350 C1351 1.334 . S
C1351 H1328 0.950 . S
C1351 C1350 1.334 . S
C1351 C1352 1.287 . S
C1352 C1351 1.287 . S
C1352 C1353 1.524 . S
C1352 H1371 0.913 . S
C1353 H1329 0.950 . S
C1353 C1352 1.524 . S
C1353 C1354 1.415 . S
C1354 H1330 0.950 . S
C1354 C1349 1.363 . S
C1354 C1353 1.415 . S
C1355 H1331 0.951 . S
C1355 C1356 1.366 . S
C1355 C1357 1.388 . S
C1356 C1355 1.366 . S
C1356 C1360 1.385 . S
C1357 H1332 0.951 . S
C1357 C1355 1.388 . S
C1357 C1358 1.366 . S
C1358 C1357 1.366 . S
C1358 C1359 1.414 . S
C1358 C1361 1.499 . S
C1359 H1333 0.950 . S
C1359 C1358 1.414 . S
C1359 C1360 1.374 . S
C1360 H1334 0.950 . S
C1360 C1356 1.385 . S
C1360 C1359 1.374 . S
C1361 C1358 1.499 . S
C1361 C1362 1.373 . S
C1361 C1363 1.389 . S
C1362 H1335 0.950 . S
C1362 C1348 1.377 . S
C1362 C1361 1.373 . S
C1363 C1347 1.377 . S
C1363 C1361 1.389 . S
C1363 C1364 1.524 . S
C1364 C1363 1.524 . S
C1364 C1365 1.397 . S
C1364 C1369 1.363 . S
C1365 H1336 0.950 . S
C1365 C1364 1.397 . S
C1365 C1366 1.334 . S
C1366 H1337 0.950 . S
C1366 C1365 1.334 . S
C1366 C1367 1.287 . S
C1367 C1366 1.287 . S
C1367 C1368 1.524 . S
C1367 H1370 0.999 . S
C1368 H1338 0.950 . S
C1368 C1367 1.524 . S
C1368 C1369 1.415 . S
C1369 H1339 0.950 . S
C1369 C1364 1.363 . S
C1369 C1368 1.415 . S
H1370 C1367 0.999 . S
H1371 C1352 0.913 . S
H1372 C1390 0.951 . S
H1373 C1392 0.951 . S
H1374 C1394 0.950 . S
H1375 C1395 0.950 . S
H1376 C1397 0.950 . S
H1377 C1400 0.950 . S
H1378 C1401 0.950 . S
H1379 C1403 0.950 . S
H1380 C1404 0.950 . S
H1381 C1405 0.951 . S
H1382 C1407 0.951 . S
H1383 C1409 0.950 . S
H1384 C1410 0.950 . S
H1385 C1412 0.950 . S
H1386 C1415 0.950 . S
H1387 C1416 0.950 . S
H1388 C1418 0.950 . S
H1389 C1419 0.950 . S
C1390 H1372 0.951 . S
C1390 C1391 1.366 . S
C1390 C1392 1.388 . S
C1391 C1390 1.366 . S
C1391 C1395 1.385 . S
C1392 H1373 0.951 . S
C1392 C1390 1.388 . S
C1392 C1393 1.366 . S
C1393 C1392 1.366 . S
C1393 C1394 1.414 . S
C1393 C1396 1.499 . S
C1394 H1374 0.950 . S
C1394 C1393 1.414 . S
C1394 C1395 1.374 . S
C1395 H1375 0.950 . S
C1395 C1391 1.385 . S
C1395 C1394 1.374 . S
C1396 C1393 1.499 . S
C1396 C1397 1.373 . S
C1396 C1398 1.389 . S
C1397 H1376 0.950 . S
C1397 C1396 1.373 . S
C1397 C1413 1.377 . S
C1398 C1396 1.389 . S
C1398 C1399 1.524 . S
C1398 C1412 1.377 . S
C1399 C1398 1.524 . S
C1399 C1400 1.397 . S
C1399 C1404 1.363 . S
C1400 H1377 0.950 . S
C1400 C1399 1.397 . S
C1400 C1401 1.334 . S
C1401 H1378 0.950 . S
C1401 C1400 1.334 . S
C1401 C1402 1.287 . S
C1402 C1401 1.287 . S
C1402 C1403 1.524 . S
C1402 H1421 0.913 . S
C1403 H1379 0.950 . S
C1403 C1402 1.524 . S
C1403 C1404 1.415 . S
C1404 H1380 0.950 . S
C1404 C1399 1.363 . S
C1404 C1403 1.415 . S
C1405 H1381 0.951 . S
C1405 C1406 1.366 . S
C1405 C1407 1.388 . S
C1406 C1405 1.366 . S
C1406 C1410 1.385 . S
C1407 H1382 0.951 . S
C1407 C1405 1.388 . S
C1407 C1408 1.366 . S
C1408 C1407 1.366 . S
C1408 C1409 1.414 . S
C1408 C1411 1.499 . S
C1409 H1383 0.950 . S
C1409 C1408 1.414 . S
C1409 C1410 1.374 . S
C1410 H1384 0.950 . S
C1410 C1406 1.385 . S
C1410 C1409 1.374 . S
C1411 C1408 1.499 . S
C1411 C1412 1.373 . S
C1411 C1413 1.389 . S
C1412 H1385 0.950 . S
C1412 C1398 1.377 . S
C1412 C1411 1.373 . S
C1413 C1397 1.377 . S
C1413 C1411 1.389 . S
C1413 C1414 1.524 . S
C1414 C1413 1.524 . S
C1414 C1415 1.397 . S
C1414 C1419 1.363 . S
C1415 H1386 0.950 . S
C1415 C1414 1.397 . S
C1415 C1416 1.334 . S
C1416 H1387 0.950 . S
C1416 C1415 1.334 . S
C1416 C1417 1.287 . S
C1417 C1416 1.287 . S
C1417 C1418 1.524 . S
C1417 H1420 0.999 . S
C1418 H1388 0.950 . S
C1418 C1417 1.524 . S
C1418 C1419 1.415 . S
C1419 H1389 0.950 . S
C1419 C1414 1.363 . S
C1419 C1418 1.415 . S
H1420 C1417 0.999 . S
H1421 C1402 0.913 . S
H1422 C1440 0.951 . S
H1423 C1442 0.951 . S
H1424 C1444 0.950 . S
H1425 C1445 0.950 . S
H1426 C1447 0.950 . S
H1427 C1450 0.950 . S
H1428 C1451 0.950 . S
H1429 C1453 0.950 . S
H1430 C1454 0.950 . S
H1431 C1455 0.951 . S
H1432 C1457 0.951 . S
H1433 C1459 0.950 . S
H1434 C1460 0.950 . S
H1435 C1462 0.950 . S
H1436 C1465 0.950 . S
H1437 C1466 0.950 . S
H1438 C1468 0.950 . S
H1439 C1469 0.950 . S
C1440 H1422 0.951 . S
C1440 C1441 1.366 . S
C1440 C1442 1.388 . S
C1441 C1440 1.366 . S
C1441 C1445 1.385 . S
C1442 H1423 0.951 . S
C1442 C1440 1.388 . S
C1442 C1443 1.366 . S
C1443 C1442 1.366 . S
C1443 C1444 1.414 . S
C1443 C1446 1.499 . S
C1444 H1424 0.950 . S
C1444 C1443 1.414 . S
C1444 C1445 1.374 . S
C1445 H1425 0.950 . S
C1445 C1441 1.385 . S
C1445 C1444 1.374 . S
C1446 C1443 1.499 . S
C1446 C1447 1.373 . S
C1446 C1448 1.389 . S
C1447 H1426 0.950 . S
C1447 C1446 1.373 . S
C1447 C1463 1.377 . S
C1448 C1446 1.389 . S
C1448 C1449 1.524 . S
C1448 C1462 1.377 . S
C1449 C1448 1.524 . S
C1449 C1450 1.397 . S
C1449 C1454 1.363 . S
C1450 H1427 0.950 . S
C1450 C1449 1.397 . S
C1450 C1451 1.334 . S
C1451 H1428 0.950 . S
C1451 C1450 1.334 . S
C1451 C1452 1.287 . S
C1452 C1451 1.287 . S
C1452 C1453 1.524 . S
C1452 H1471 0.913 . S
C1453 H1429 0.950 . S
C1453 C1452 1.524 . S
C1453 C1454 1.415 . S
C1454 H1430 0.950 . S
C1454 C1449 1.363 . S
C1454 C1453 1.415 . S
C1455 H1431 0.951 . S
C1455 C1456 1.366 . S
C1455 C1457 1.388 . S
C1456 C1455 1.366 . S
C1456 C1460 1.385 . S
C1457 H1432 0.951 . S
C1457 C1455 1.388 . S
C1457 C1458 1.366 . S
C1458 C1457 1.366 . S
C1458 C1459 1.414 . S
C1458 C1461 1.499 . S
C1459 H1433 0.950 . S
C1459 C1458 1.414 . S
C1459 C1460 1.374 . S
C1460 H1434 0.950 . S
C1460 C1456 1.385 . S
C1460 C1459 1.374 . S
C1461 C1458 1.499 . S
C1461 C1462 1.373 . S
C1461 C1463 1.389 . S
C1462 H1435 0.950 . S
C1462 C1448 1.377 . S
C1462 C1461 1.373 . S
C1463 C1447 1.377 . S
C1463 C1461 1.389 . S
C1463 C1464 1.524 . S
C1464 C1463 1.524 . S
C1464 C1465 1.397 . S
C1464 C1469 1.363 . S
C1465 H1436 0.950 . S
C1465 C1464 1.397 . S
C1465 C1466 1.334 . S
C1466 H1437 0.950 . S
C1466 C1465 1.334 . S
C1466 C1467 1.287 . S
C1467 C1466 1.287 . S
C1467 C1468 1.524 . S
C1467 H1470 0.999 . S
C1468 H1438 0.950 . S
C1468 C1467 1.524 . S
C1468 C1469 1.415 . S
C1469 H1439 0.950 . S
C1469 C1464 1.363 . S
C1469 C1468 1.415 . S
H1470 C1467 0.999 . S
H1471 C1452 0.913 . S
H1472 C1490 0.951 . S
H1473 C1492 0.951 . S
H1474 C1494 0.950 . S
H1475 C1495 0.950 . S
H1476 C1497 0.950 . S
H1477 C1500 0.950 . S
H1478 C1501 0.950 . S
H1479 C1503 0.950 . S
H1480 C1504 0.950 . S
H1481 C1505 0.951 . S
H1482 C1507 0.951 . S
H1483 C1509 0.950 . S
H1484 C1510 0.950 . S
H1485 C1512 0.950 . S
H1486 C1515 0.950 . S
H1487 C1516 0.950 . S
H1488 C1518 0.950 . S
H1489 C1519 0.950 . S
C1490 H1472 0.951 . S
C1490 C1491 1.366 . S
C1490 C1492 1.388 . S
C1491 C1490 1.366 . S
C1491 C1495 1.385 . S
C1492 H1473 0.951 . S
C1492 C1490 1.388 . S
C1492 C1493 1.366 . S
C1493 C1492 1.366 . S
C1493 C1494 1.414 . S
C1493 C1496 1.499 . S
C1494 H1474 0.950 . S
C1494 C1493 1.414 . S
C1494 C1495 1.374 . S
C1495 H1475 0.950 . S
C1495 C1491 1.385 . S
C1495 C1494 1.374 . S
C1496 C1493 1.499 . S
C1496 C1497 1.373 . S
C1496 C1498 1.389 . S
C1497 H1476 0.950 . S
C1497 C1496 1.373 . S
C1497 C1513 1.377 . S
C1498 C1496 1.389 . S
C1498 C1499 1.524 . S
C1498 C1512 1.377 . S
C1499 C1498 1.524 . S
C1499 C1500 1.397 . S
C1499 C1504 1.363 . S
C1500 H1477 0.950 . S
C1500 C1499 1.397 . S
C1500 C1501 1.334 . S
C1501 H1478 0.950 . S
C1501 C1500 1.334 . S
C1501 C1502 1.287 . S
C1502 C1501 1.287 . S
C1502 C1503 1.524 . S
C1502 H1521 0.913 . S
C1503 H1479 0.950 . S
C1503 C1502 1.524 . S
C1503 C1504 1.415 . S
C1504 H1480 0.950 . S
C1504 C1499 1.363 . S
C1504 C1503 1.415 . S
C1505 H1481 0.951 . S
C1505 C1506 1.366 . S
C1505 C1507 1.388 . S
C1506 C1505 1.366 . S
C1506 C1510 1.385 . S
C1507 H1482 0.951 . S
C1507 C1505 1.388 . S
C1507 C1508 1.366 . S
C1508 C1507 1.366 . S
C1508 C1509 1.414 . S
C1508 C1511 1.499 . S
C1509 H1483 0.950 . S
C1509 C1508 1.414 . S
C1509 C1510 1.374 . S
C1510 H1484 0.950 . S
C1510 C1506 1.385 . S
C1510 C1509 1.374 . S
C1511 C1508 1.499 . S
C1511 C1512 1.373 . S
C1511 C1513 1.389 . S
C1512 H1485 0.950 . S
C1512 C1498 1.377 . S
C1512 C1511 1.373 . S
C1513 C1497 1.377 . S
C1513 C1511 1.389 . S
C1513 C1514 1.524 . S
C1514 C1513 1.524 . S
C1514 C1515 1.397 . S
C1514 C1519 1.363 . S
C1515 H1486 0.950 . S
C1515 C1514 1.397 . S
C1515 C1516 1.334 . S
C1516 H1487 0.950 . S
C1516 C1515 1.334 . S
C1516 C1517 1.287 . S
C1517 C1516 1.287 . S
C1517 C1518 1.524 . S
C1517 H1520 0.999 . S
C1518 H1488 0.950 . S
C1518 C1517 1.524 . S
C1518 C1519 1.415 . S
C1519 H1489 0.950 . S
C1519 C1514 1.363 . S
C1519 C1518 1.415 . S
H1520 C1517 0.999 . S
H1521 C1502 0.913 . S
H1522 C1540 0.951 . S
H1523 C1542 0.951 . S
H1524 C1544 0.950 . S
H1525 C1545 0.950 . S
H1526 C1547 0.950 . S
H1527 C1550 0.950 . S
H1528 C1551 0.950 . S
H1529 C1553 0.950 . S
H1530 C1554 0.950 . S
H1531 C1555 0.951 . S
H1532 C1557 0.951 . S
H1533 C1559 0.950 . S
H1534 C1560 0.950 . S
H1535 C1562 0.950 . S
H1536 C1565 0.950 . S
H1537 C1566 0.950 . S
H1538 C1568 0.950 . S
H1539 C1569 0.950 . S
C1540 H1522 0.951 . S
C1540 C1541 1.366 . S
C1540 C1542 1.388 . S
C1541 C1540 1.366 . S
C1541 C1545 1.385 . S
C1542 H1523 0.951 . S
C1542 C1540 1.388 . S
C1542 C1543 1.366 . S
C1543 C1542 1.366 . S
C1543 C1544 1.414 . S
C1543 C1546 1.499 . S
C1544 H1524 0.950 . S
C1544 C1543 1.414 . S
C1544 C1545 1.374 . S
C1545 H1525 0.950 . S
C1545 C1541 1.385 . S
C1545 C1544 1.374 . S
C1546 C1543 1.499 . S
C1546 C1547 1.373 . S
C1546 C1548 1.389 . S
C1547 H1526 0.950 . S
C1547 C1546 1.373 . S
C1547 C1563 1.377 . S
C1548 C1546 1.389 . S
C1548 C1549 1.524 . S
C1548 C1562 1.377 . S
C1549 C1548 1.524 . S
C1549 C1550 1.397 . S
C1549 C1554 1.363 . S
C1550 H1527 0.950 . S
C1550 C1549 1.397 . S
C1550 C1551 1.334 . S
C1551 H1528 0.950 . S
C1551 C1550 1.334 . S
C1551 C1552 1.287 . S
C1552 C1551 1.287 . S
C1552 C1553 1.524 . S
C1552 H1571 0.913 . S
C1553 H1529 0.950 . S
C1553 C1552 1.524 . S
C1553 C1554 1.415 . S
C1554 H1530 0.950 . S
C1554 C1549 1.363 . S
C1554 C1553 1.415 . S
C1555 H1531 0.951 . S
C1555 C1556 1.366 . S
C1555 C1557 1.388 . S
C1556 C1555 1.366 . S
C1556 C1560 1.385 . S
C1557 H1532 0.951 . S
C1557 C1555 1.388 . S
C1557 C1558 1.366 . S
C1558 C1557 1.366 . S
C1558 C1559 1.414 . S
C1558 C1561 1.499 . S
C1559 H1533 0.950 . S
C1559 C1558 1.414 . S
C1559 C1560 1.374 . S
C1560 H1534 0.950 . S
C1560 C1556 1.385 . S
C1560 C1559 1.374 . S
C1561 C1558 1.499 . S
C1561 C1562 1.373 . S
C1561 C1563 1.389 . S
C1562 H1535 0.950 . S
C1562 C1548 1.377 . S
C1562 C1561 1.373 . S
C1563 C1547 1.377 . S
C1563 C1561 1.389 . S
C1563 C1564 1.524 . S
C1564 C1563 1.524 . S
C1564 C1565 1.397 . S
C1564 C1569 1.363 . S
C1565 H1536 0.950 . S
C1565 C1564 1.397 . S
C1565 C1566 1.334 . S
C1566 H1537 0.950 . S
C1566 C1565 1.334 . S
C1566 C1567 1.287 . S
C1567 C1566 1.287 . S
C1567 C1568 1.524 . S
C1567 H1570 0.999 . S
C1568 H1538 0.950 . S
C1568 C1567 1.524 . S
C1568 C1569 1.415 . S
C1569 H1539 0.950 . S
C1569 C1564 1.363 . S
C1569 C1568 1.415 . S
H1570 C1567 0.999 . S
H1571 C1552 0.913 . S
H1572 C1590 0.951 . S
H1573 C1592 0.951 . S
H1574 C1594 0.950 . S
H1575 C1595 0.950 . S
H1576 C1597 0.950 . S
H1577 C1600 0.950 . S
H1578 C1601 0.950 . S
H1579 C1603 0.950 . S
H1580 C1604 0.950 . S
H1581 C1605 0.951 . S
H1582 C1607 0.951 . S
H1583 C1609 0.950 . S
H1584 C1610 0.950 . S
H1585 C1612 0.950 . S
H1586 C1615 0.950 . S
H1587 C1616 0.950 . S
H1588 C1618 0.950 . S
H1589 C1619 0.950 . S
C1590 H1572 0.951 . S
C1590 C1591 1.366 . S
C1590 C1592 1.388 . S
C1591 C1590 1.366 . S
C1591 C1595 1.385 . S
C1592 H1573 0.951 . S
C1592 C1590 1.388 . S
C1592 C1593 1.366 . S
C1593 C1592 1.366 . S
C1593 C1594 1.414 . S
C1593 C1596 1.499 . S
C1594 H1574 0.950 . S
C1594 C1593 1.414 . S
C1594 C1595 1.374 . S
C1595 H1575 0.950 . S
C1595 C1591 1.385 . S
C1595 C1594 1.374 . S
C1596 C1593 1.499 . S
C1596 C1597 1.373 . S
C1596 C1598 1.389 . S
C1597 H1576 0.950 . S
C1597 C1596 1.373 . S
C1597 C1613 1.377 . S
C1598 C1596 1.389 . S
C1598 C1599 1.524 . S
C1598 C1612 1.377 . S
C1599 C1598 1.524 . S
C1599 C1600 1.397 . S
C1599 C1604 1.363 . S
C1600 H1577 0.950 . S
C1600 C1599 1.397 . S
C1600 C1601 1.334 . S
C1601 H1578 0.950 . S
C1601 C1600 1.334 . S
C1601 C1602 1.287 . S
C1602 C1601 1.287 . S
C1602 C1603 1.524 . S
C1602 H1621 0.913 . S
C1603 H1579 0.950 . S
C1603 C1602 1.524 . S
C1603 C1604 1.415 . S
C1604 H1580 0.950 . S
C1604 C1599 1.363 . S
C1604 C1603 1.415 . S
C1605 H1581 0.951 . S
C1605 C1606 1.366 . S
C1605 C1607 1.388 . S
C1606 C1605 1.366 . S
C1606 C1610 1.385 . S
C1607 H1582 0.951 . S
C1607 C1605 1.388 . S
C1607 C1608 1.366 . S
C1608 C1607 1.366 . S
C1608 C1609 1.414 . S
C1608 C1611 1.499 . S
C1609 H1583 0.950 . S
C1609 C1608 1.414 . S
C1609 C1610 1.374 . S
C1610 H1584 0.950 . S
C1610 C1606 1.385 . S
C1610 C1609 1.374 . S
C1611 C1608 1.499 . S
C1611 C1612 1.373 . S
C1611 C1613 1.389 . S
C1612 H1585 0.950 . S
C1612 C1598 1.377 . S
C1612 C1611 1.373 . S
C1613 C1597 1.377 . S
C1613 C1611 1.389 . S
C1613 C1614 1.524 . S
C1614 C1613 1.524 . S
C1614 C1615 1.397 . S
C1614 C1619 1.363 . S
C1615 H1586 0.950 . S
C1615 C1614 1.397 . S
C1615 C1616 1.334 . S
C1616 H1587 0.950 . S
C1616 C1615 1.334 . S
C1616 C1617 1.287 . S
C1617 C1616 1.287 . S
C1617 C1618 1.524 . S
C1617 H1620 0.999 . S
C1618 H1588 0.950 . S
C1618 C1617 1.524 . S
C1618 C1619 1.415 . S
C1619 H1589 0.950 . S
C1619 C1614 1.363 . S
C1619 C1618 1.415 . S
H1620 C1617 0.999 . S
H1621 C1602 0.913 . S
H1622 C1640 0.951 . S
H1623 C1642 0.951 . S
H1624 C1644 0.950 . S
H1625 C1645 0.950 . S
H1626 C1647 0.950 . S
H1627 C1650 0.950 . S
H1628 C1651 0.950 . S
H1629 C1653 0.950 . S
H1630 C1654 0.950 . S
H1631 C1655 0.951 . S
H1632 C1657 0.951 . S
H1633 C1659 0.950 . S
H1634 C1660 0.950 . S
H1635 C1662 0.950 . S
H1636 C1665 0.950 . S
H1637 C1666 0.950 . S
H1638 C1668 0.950 . S
H1639 C1669 0.950 . S
C1640 H1622 0.951 . S
C1640 C1641 1.366 . S
C1640 C1642 1.388 . S
C1641 C1640 1.366 . S
C1641 C1645 1.385 . S
C1642 H1623 0.951 . S
C1642 C1640 1.388 . S
C1642 C1643 1.366 . S
C1643 C1642 1.366 . S
C1643 C1644 1.414 . S
C1643 C1646 1.499 . S
C1644 H1624 0.950 . S
C1644 C1643 1.414 . S
C1644 C1645 1.374 . S
C1645 H1625 0.950 . S
C1645 C1641 1.385 . S
C1645 C1644 1.374 . S
C1646 C1643 1.499 . S
C1646 C1647 1.373 . S
C1646 C1648 1.389 . S
C1647 H1626 0.950 . S
C1647 C1646 1.373 . S
C1647 C1663 1.377 . S
C1648 C1646 1.389 . S
C1648 C1649 1.524 . S
C1648 C1662 1.377 . S
C1649 C1648 1.524 . S
C1649 C1650 1.397 . S
C1649 C1654 1.363 . S
C1650 H1627 0.950 . S
C1650 C1649 1.397 . S
C1650 C1651 1.334 . S
C1651 H1628 0.950 . S
C1651 C1650 1.334 . S
C1651 C1652 1.287 . S
C1652 C1651 1.287 . S
C1652 C1653 1.524 . S
C1652 H1671 0.913 . S
C1653 H1629 0.950 . S
C1653 C1652 1.524 . S
C1653 C1654 1.415 . S
C1654 H1630 0.950 . S
C1654 C1649 1.363 . S
C1654 C1653 1.415 . S
C1655 H1631 0.951 . S
C1655 C1656 1.366 . S
C1655 C1657 1.388 . S
C1656 C1655 1.366 . S
C1656 C1660 1.385 . S
C1657 H1632 0.951 . S
C1657 C1655 1.388 . S
C1657 C1658 1.366 . S
C1658 C1657 1.366 . S
C1658 C1659 1.414 . S
C1658 C1661 1.499 . S
C1659 H1633 0.950 . S
C1659 C1658 1.414 . S
C1659 C1660 1.374 . S
C1660 H1634 0.950 . S
C1660 C1656 1.385 . S
C1660 C1659 1.374 . S
C1661 C1658 1.499 . S
C1661 C1662 1.373 . S
C1661 C1663 1.389 . S
C1662 H1635 0.950 . S
C1662 C1648 1.377 . S
C1662 C1661 1.373 . S
C1663 C1647 1.377 . S
C1663 C1661 1.389 . S
C1663 C1664 1.524 . S
C1664 C1663 1.524 . S
C1664 C1665 1.397 . S
C1664 C1669 1.363 . S
C1665 H1636 0.950 . S
C1665 C1664 1.397 . S
C1665 C1666 1.334 . S
C1666 H1637 0.950 . S
C1666 C1665 1.334 . S
C1666 C1667 1.287 . S
C1667 C1666 1.287 . S
C1667 C1668 1.524 . S
C1667 H1670 0.999 . S
C1668 H1638 0.950 . S
C1668 C1667 1.524 . S
C1668 C1669 1.415 . S
C1669 H1639 0.950 . S
C1669 C1664 1.363 . S
C1669 C1668 1.415 . S
H1670 C1667 0.999 . S
H1671 C1652 0.913 . S
H1672 C1690 0.951 . S
H1673 C1692 0.951 . S
H1674 C1694 0.950 . S
H1675 C1695 0.950 . S
H1676 C1697 0.950 . S
H1677 C1700 0.950 . S
H1678 C1701 0.950 . S
H1679 C1703 0.950 . S
H1680 C1704 0.950 . S
H1681 C1705 0.951 . S
H1682 C1707 0.951 . S
H1683 C1709 0.950 . S
H1684 C1710 0.950 . S
H1685 C1712 0.950 . S
H1686 C1715 0.950 . S
H1687 C1716 0.950 . S
H1688 C1718 0.950 . S
H1689 C1719 0.950 . S
C1690 H1672 0.951 . S
C1690 C1691 1.366 . S
C1690 C1692 1.388 . S
C1691 C1690 1.366 . S
C1691 C1695 1.385 . S
C1692 H1673 0.951 . S
C1692 C1690 1.388 . S
C1692 C1693 1.366 . S
C1693 C1692 1.366 . S
C1693 C1694 1.414 . S
C1693 C1696 1.499 . S
C1694 H1674 0.950 . S
C1694 C1693 1.414 . S
C1694 C1695 1.374 . S
C1695 H1675 0.950 . S
C1695 C1691 1.385 . S
C1695 C1694 1.374 . S
C1696 C1693 1.499 . S
C1696 C1697 1.373 . S
C1696 C1698 1.389 . S
C1697 H1676 0.950 . S
C1697 C1696 1.373 . S
C1697 C1713 1.377 . S
C1698 C1696 1.389 . S
C1698 C1699 1.524 . S
C1698 C1712 1.377 . S
C1699 C1698 1.524 . S
C1699 C1700 1.397 . S
C1699 C1704 1.363 . S
C1700 H1677 0.950 . S
C1700 C1699 1.397 . S
C1700 C1701 1.334 . S
C1701 H1678 0.950 . S
C1701 C1700 1.334 . S
C1701 C1702 1.287 . S
C1702 C1701 1.287 . S
C1702 C1703 1.524 . S
C1702 H1721 0.913 . S
C1703 H1679 0.950 . S
C1703 C1702 1.524 . S
C1703 C1704 1.415 . S
C1704 H1680 0.950 . S
C1704 C1699 1.363 . S
C1704 C1703 1.415 . S
C1705 H1681 0.951 . S
C1705 C1706 1.366 . S
C1705 C1707 1.388 . S
C1706 C1705 1.366 . S
C1706 C1710 1.385 . S
C1707 H1682 0.951 . S
C1707 C1705 1.388 . S
C1707 C1708 1.366 . S
C1708 C1707 1.366 . S
C1708 C1709 1.414 . S
C1708 C1711 1.499 . S
C1709 H1683 0.950 . S
C1709 C1708 1.414 . S
C1709 C1710 1.374 . S
C1710 H1684 0.950 . S
C1710 C1706 1.385 . S
C1710 C1709 1.374 . S
C1711 C1708 1.499 . S
C1711 C1712 1.373 . S
C1711 C1713 1.389 . S
C1712 H1685 0.950 . S
C1712 C1698 1.377 . S
C1712 C1711 1.373 . S
C1713 C1697 1.377 . S
C1713 C1711 1.389 . S
C1713 C1714 1.524 . S
C1714 C1713 1.524 . S
C1714 C1715 1.397 . S
C1714 C1719 1.363 . S
C1715 H1686 0.950 . S
C1715 C1714 1.397 . S
C1715 C1716 1.334 . S
C1716 H1687 0.950 . S
C1716 C1715 1.334 . S
C1716 C1717 1.287 . S
C1717 C1716 1.287 . S
C1717 C1718 1.524 . S
C1717 H1720 0.999 . S
C1718 H1688 0.950 . S
C1718 C1717 1.524 . S
C1718 C1719 1.415 . S
C1719 H1689 0.950 . S
C1719 C1714 1.363 . S
C1719 C1718 1.415 . S
H1720 C1717 0.999 . S
H1721 C1702 0.913 . S
H1722 C1740 0.951 . S
H1723 C1742 0.951 . S
H1724 C1744 0.950 . S
H1725 C1745 0.950 . S
H1726 C1747 0.950 . S
H1727 C1750 0.950 . S
H1728 C1751 0.950 . S
H1729 C1753 0.950 . S
H1730 C1754 0.950 . S
H1731 C1755 0.951 . S
H1732 C1757 0.951 . S
H1733 C1759 0.950 . S
H1734 C1760 0.950 . S
H1735 C1762 0.950 . S
H1736 C1765 0.950 . S
H1737 C1766 0.950 . S
H1738 C1768 0.950 . S
H1739 C1769 0.950 . S
C1740 H1722 0.951 . S
C1740 C1741 1.366 . S
C1740 C1742 1.388 . S
C1741 C1740 1.366 . S
C1741 C1745 1.385 . S
C1742 H1723 0.951 . S
C1742 C1740 1.388 . S
C1742 C1743 1.366 . S
C1743 C1742 1.366 . S
C1743 C1744 1.414 . S
C1743 C1746 1.499 . S
C1744 H1724 0.950 . S
C1744 C1743 1.414 . S
C1744 C1745 1.374 . S
C1745 H1725 0.950 . S
C1745 C1741 1.385 . S
C1745 C1744 1.374 . S
C1746 C1743 1.499 . S
C1746 C1747 1.373 . S
C1746 C1748 1.389 . S
C1747 H1726 0.950 . S
C1747 C1746 1.373 . S
C1747 C1763 1.377 . S
C1748 C1746 1.389 . S
C1748 C1749 1.524 . S
C1748 C1762 1.377 . S
C1749 C1748 1.524 . S
C1749 C1750 1.397 . S
C1749 C1754 1.363 . S
C1750 H1727 0.950 . S
C1750 C1749 1.397 . S
C1750 C1751 1.334 . S
C1751 H1728 0.950 . S
C1751 C1750 1.334 . S
C1751 C1752 1.287 . S
C1752 C1751 1.287 . S
C1752 C1753 1.524 . S
C1752 H1771 0.913 . S
C1753 H1729 0.950 . S
C1753 C1752 1.524 . S
C1753 C1754 1.415 . S
C1754 H1730 0.950 . S
C1754 C1749 1.363 . S
C1754 C1753 1.415 . S
C1755 H1731 0.951 . S
C1755 C1756 1.366 . S
C1755 C1757 1.388 . S
C1756 C1755 1.366 . S
C1756 C1760 1.385 . S
C1757 H1732 0.951 . S
C1757 C1755 1.388 . S
C1757 C1758 1.366 . S
C1758 C1757 1.366 . S
C1758 C1759 1.414 . S
C1758 C1761 1.499 . S
C1759 H1733 0.950 . S
C1759 C1758 1.414 . S
C1759 C1760 1.374 . S
C1760 H1734 0.950 . S
C1760 C1756 1.385 . S
C1760 C1759 1.374 . S
C1761 C1758 1.499 . S
C1761 C1762 1.373 . S
C1761 C1763 1.389 . S
C1762 H1735 0.950 . S
C1762 C1748 1.377 . S
C1762 C1761 1.373 . S
C1763 C1747 1.377 . S
C1763 C1761 1.389 . S
C1763 C1764 1.524 . S
C1764 C1763 1.524 . S
C1764 C1765 1.397 . S
C1764 C1769 1.363 . S
C1765 H1736 0.950 . S
C1765 C1764 1.397 . S
C1765 C1766 1.334 . S
C1766 H1737 0.950 . S
C1766 C1765 1.334 . S
C1766 C1767 1.287 . S
C1767 C1766 1.287 . S
C1767 C1768 1.524 . S
C1767 H1770 0.999 . S
C1768 H1738 0.950 . S
C1768 C1767 1.524 . S
C1768 C1769 1.415 . S
C1769 H1739 0.950 . S
C1769 C1764 1.363 . S
C1769 C1768 1.415 . S
H1770 C1767 0.999 . S
H1771 C1752 0.913 . S
H1772 C1790 0.951 . S
H1773 C1792 0.951 . S
H1774 C1794 0.950 . S
H1775 C1795 0.950 . S
H1776 C1797 0.950 . S
H1777 C1800 0.950 . S
H1778 C1801 0.950 . S
H1779 C1803 0.950 . S
H1780 C1804 0.950 . S
H1781 C1805 0.951 . S
H1782 C1807 0.951 . S
H1783 C1809 0.950 . S
H1784 C1810 0.950 . S
H1785 C1812 0.950 . S
H1786 C1815 0.950 . S
H1787 C1816 0.950 . S
H1788 C1818 0.950 . S
H1789 C1819 0.950 . S
C1790 H1772 0.951 . S
C1790 C1791 1.366 . S
C1790 C1792 1.388 . S
C1791 C1790 1.366 . S
C1791 C1795 1.385 . S
C1792 H1773 0.951 . S
C1792 C1790 1.388 . S
C1792 C1793 1.366 . S
C1793 C1792 1.366 . S
C1793 C1794 1.414 . S
C1793 C1796 1.499 . S
C1794 H1774 0.950 . S
C1794 C1793 1.414 . S
C1794 C1795 1.374 . S
C1795 H1775 0.950 . S
C1795 C1791 1.385 . S
C1795 C1794 1.374 . S
C1796 C1793 1.499 . S
C1796 C1797 1.373 . S
C1796 C1798 1.389 . S
C1797 H1776 0.950 . S
C1797 C1796 1.373 . S
C1797 C1813 1.377 . S
C1798 C1796 1.389 . S
C1798 C1799 1.524 . S
C1798 C1812 1.377 . S
C1799 C1798 1.524 . S
C1799 C1800 1.397 . S
C1799 C1804 1.363 . S
C1800 H1777 0.950 . S
C1800 C1799 1.397 . S
C1800 C1801 1.334 . S
C1801 H1778 0.950 . S
C1801 C1800 1.334 . S
C1801 C1802 1.287 . S
C1802 C1801 1.287 . S
C1802 C1803 1.524 . S
C1802 H1821 0.913 . S
C1803 H1779 0.950 . S
C1803 C1802 1.524 . S
C1803 C1804 1.415 . S
C1804 H1780 0.950 . S
C1804 C1799 1.363 . S
C1804 C1803 1.415 . S
C1805 H1781 0.951 . S
C1805 C1806 1.366 . S
C1805 C1807 1.388 . S
C1806 C1805 1.366 . S
C1806 C1810 1.385 . S
C1807 H1782 0.951 . S
C1807 C1805 1.388 . S
C1807 C1808 1.366 . S
C1808 C1807 1.366 . S
C1808 C1809 1.414 . S
C1808 C1811 1.499 . S
C1809 H1783 0.950 . S
C1809 C1808 1.414 . S
C1809 C1810 1.374 . S
C1810 H1784 0.950 . S
C1810 C1806 1.385 . S
C1810 C1809 1.374 . S
C1811 C1808 1.499 . S
C1811 C1812 1.373 . S
C1811 C1813 1.389 . S
C1812 H1785 0.950 . S
C1812 C1798 1.377 . S
C1812 C1811 1.373 . S
C1813 C1797 1.377 . S
C1813 C1811 1.389 . S
C1813 C1814 1.524 . S
C1814 C1813 1.524 . S
C1814 C1815 1.397 . S
C1814 C1819 1.363 . S
C1815 H1786 0.950 . S
C1815 C1814 1.397 . S
C1815 C1816 1.334 . S
C1816 H1787 0.950 . S
C1816 C1815 1.334 . S
C1816 C1817 1.287 . S
C1817 C1816 1.287 . S
C1817 C1818 1.524 . S
C1817 H1820 0.999 . S
C1818 H1788 0.950 . S
C1818 C1817 1.524 . S
C1818 C1819 1.415 . S
C1819 H1789 0.950 . S
C1819 C1814 1.363 . S
C1819 C1818 1.415 . S
H1820 C1817 0.999 . S
H1821 C1802 0.913 . S
H1822 C1840 0.951 . S
H1823 C1842 0.951 . S
H1824 C1844 0.950 . S
H1825 C1845 0.950 . S
H1826 C1847 0.950 . S
H1827 C1850 0.950 . S
H1828 C1851 0.950 . S
H1829 C1853 0.950 . S
H1830 C1854 0.950 . S
H1831 C1855 0.951 . S
H1832 C1857 0.951 . S
H1833 C1859 0.950 . S
H1834 C1860 0.950 . S
H1835 C1862 0.950 . S
H1836 C1865 0.950 . S
H1837 C1866 0.950 . S
H1838 C1868 0.950 . S
H1839 C1869 0.950 . S
C1840 H1822 0.951 . S
C1840 C1841 1.366 . S
C1840 C1842 1.388 . S
C1841 C1840 1.366 . S
C1841 C1845 1.385 . S
C1842 H1823 0.951 . S
C1842 C1840 1.388 . S
C1842 C1843 1.366 . S
C1843 C1842 1.366 . S
C1843 C1844 1.414 . S
C1843 C1846 1.499 . S
C1844 H1824 0.950 . S
C1844 C1843 1.414 . S
C1844 C1845 1.374 . S
C1845 H1825 0.950 . S
C1845 C1841 1.385 . S
C1845 C1844 1.374 . S
C1846 C1843 1.499 . S
C1846 C1847 1.373 . S
C1846 C1848 1.389 . S
C1847 H1826 0.950 . S
C1847 C1846 1.373 . S
C1847 C1863 1.377 . S
C1848 C1846 1.389 . S
C1848 C1849 1.524 . S
C1848 C1862 1.377 . S
C1849 C1848 1.524 . S
C1849 C1850 1.397 . S
C1849 C1854 1.363 . S
C1850 H1827 0.950 . S
C1850 C1849 1.397 . S
C1850 C1851 1.334 . S
C1851 H1828 0.950 . S
C1851 C1850 1.334 . S
C1851 C1852 1.287 . S
C1852 C1851 1.287 . S
C1852 C1853 1.524 . S
C1852 H1871 0.913 . S
C1853 H1829 0.950 . S
C1853 C1852 1.524 . S
C1853 C1854 1.415 . S
C1854 H1830 0.950 . S
C1854 C1849 1.363 . S
C1854 C1853 1.415 . S
C1855 H1831 0.951 . S
C1855 C1856 1.366 . S
C1855 C1857 1.388 . S
C1856 C1855 1.366 . S
C1856 C1860 1.385 . S
C1857 H1832 0.951 . S
C1857 C1855 1.388 . S
C1857 C1858 1.366 . S
C1858 C1857 1.366 . S
C1858 C1859 1.414 . S
C1858 C1861 1.499 . S
C1859 H1833 0.950 . S
C1859 C1858 1.414 . S
C1859 C1860 1.374 . S
C1860 H1834 0.950 . S
C1860 C1856 1.385 . S
C1860 C1859 1.374 . S
C1861 C1858 1.499 . S
C1861 C1862 1.373 . S
C1861 C1863 1.389 . S
C1862 H1835 0.950 . S
C1862 C1848 1.377 . S
C1862 C1861 1.373 . S
C1863 C1847 1.377 . S
C1863 C1861 1.389 . S
C1863 C1864 1.524 . S
C1864 C1863 1.524 . S
C1864 C1865 1.397 . S
C1864 C1869 1.363 . S
C1865 H1836 0.950 . S
C1865 C1864 1.397 . S
C1865 C1866 1.334 . S
C1866 H1837 0.950 . S
C1866 C1865 1.334 . S
C1866 C1867 1.287 . S
C1867 C1866 1.287 . S
C1867 C1868 1.524 . S
C1867 H1870 0.999 . S
C1868 H1838 0.950 . S
C1868 C1867 1.524 . S
C1868 C1869 1.415 . S
C1869 H1839 0.950 . S
C1869 C1864 1.363 . S
C1869 C1868 1.415 . S
H1870 C1867 0.999 . S
H1871 C1852 0.913 . S
H1872 C1890 0.951 . S
H1873 C1892 0.951 . S
H1874 C1894 0.950 . S
H1875 C1895 0.950 . S
H1876 C1897 0.950 . S
H1877 C1900 0.950 . S
H1878 C1901 0.950 . S
H1879 C1903 0.950 . S
H1880 C1904 0.950 . S
H1881 C1905 0.951 . S
H1882 C1907 0.951 . S
H1883 C1909 0.950 . S
H1884 C1910 0.950 . S
H1885 C1912 0.950 . S
H1886 C1915 0.950 . S
H1887 C1916 0.950 . S
H1888 C1918 0.950 . S
H1889 C1919 0.950 . S
C1890 H1872 0.951 . S
C1890 C1891 1.366 . S
C1890 C1892 1.388 . S
C1891 C1890 1.366 . S
C1891 C1895 1.385 . S
C1892 H1873 0.951 . S
C1892 C1890 1.388 . S
C1892 C1893 1.366 . S
C1893 C1892 1.366 . S
C1893 C1894 1.414 . S
C1893 C1896 1.499 . S
C1894 H1874 0.950 . S
C1894 C1893 1.414 . S
C1894 C1895 1.374 . S
C1895 H1875 0.950 . S
C1895 C1891 1.385 . S
C1895 C1894 1.374 . S
C1896 C1893 1.499 . S
C1896 C1897 1.373 . S
C1896 C1898 1.389 . S
C1897 H1876 0.950 . S
C1897 C1896 1.373 . S
C1897 C1913 1.377 . S
C1898 C1896 1.389 . S
C1898 C1899 1.524 . S
C1898 C1912 1.377 . S
C1899 C1898 1.524 . S
C1899 C1900 1.397 . S
C1899 C1904 1.363 . S
C1900 H1877 0.950 . S
C1900 C1899 1.397 . S
C1900 C1901 1.334 . S
C1901 H1878 0.950 . S
C1901 C1900 1.334 . S
C1901 C1902 1.287 . S
C1902 C1901 1.287 . S
C1902 C1903 1.524 . S
C1902 H1921 0.913 . S
C1903 H1879 0.950 . S
C1903 C1902 1.524 . S
C1903 C1904 1.415 . S
C1904 H1880 0.950 . S
C1904 C1899 1.363 . S
C1904 C1903 1.415 . S
C1905 H1881 0.951 . S
C1905 C1906 1.366 . S
C1905 C1907 1.388 . S
C1906 C1905 1.366 . S
C1906 C1910 1.385 . S
C1907 H1882 0.951 . S
C1907 C1905 1.388 . S
C1907 C1908 1.366 . S
C1908 C1907 1.366 . S
C1908 C1909 1.414 . S
C1908 C1911 1.499 . S
C1909 H1883 0.950 . S
C1909 C1908 1.414 . S
C1909 C1910 1.374 . S
C1910 H1884 0.950 . S
C1910 C1906 1.385 . S
C1910 C1909 1.374 . S
C1911 C1908 1.499 . S
C1911 C1912 1.373 . S
C1911 C1913 1.389 . S
C1912 H1885 0.950 . S
C1912 C1898 1.377 . S
C1912 C1911 1.373 . S
C1913 C1897 1.377 . S
C1913 C1911 1.389 . S
C1913 C1914 1.524 . S
C1914 C1913 1.524 . S
C1914 C1915 1.397 . S
C1914 C1919 1.363 . S
C1915 H1886 0.950 . S
C1915 C1914 1.397 . S
C1915 C1916 1.334 . S
C1916 H1887 0.950 . S
C1916 C1915 1.334 . S
C1916 C1917 1.287 . S
C1917 C1916 1.287 . S
C1917 C1918 1.524 . S
C1917 H1920 0.999 . S
C1918 H1888 0.950 . S
C1918 C1917 1.524 . S
C1918 C1919 1.415 . S
C1919 H1889 0.950 . S
C1919 C1914 1.363 . S
C1919 C1918 1.415 . S
H1920 C1917 0.999 . S
H1921 C1902 0.913 . S
H1922 C1940 0.951 . S
H1923 C1942 0.951 . S
H1924 C1944 0.950 . S
H1925 C1945 0.950 . S
H1926 C1947 0.950 . S
H1927 C1950 0.950 . S
H1928 C1951 0.950 . S
H1929 C1953 0.950 . S
H1930 C1954 0.950 . S
H1931 C1955 0.951 . S
H1932 C1957 0.951 . S
H1933 C1959 0.950 . S
H1934 C1960 0.950 . S
H1935 C1962 0.950 . S
H1936 C1965 0.950 . S
H1937 C1966 0.950 . S
H1938 C1968 0.950 . S
H1939 C1969 0.950 . S
C1940 H1922 0.951 . S
C1940 C1941 1.366 . S
C1940 C1942 1.388 . S
C1941 C1940 1.366 . S
C1941 C1945 1.385 . S
C1942 H1923 0.951 . S
C1942 C1940 1.388 . S
C1942 C1943 1.366 . S
C1943 C1942 1.366 . S
C1943 C1944 1.414 . S
C1943 C1946 1.499 . S
C1944 H1924 0.950 . S
C1944 C1943 1.414 . S
C1944 C1945 1.374 . S
C1945 H1925 0.950 . S
C1945 C1941 1.385 . S
C1945 C1944 1.374 . S
C1946 C1943 1.499 . S
C1946 C1947 1.373 . S
C1946 C1948 1.389 . S
C1947 H1926 0.950 . S
C1947 C1946 1.373 . S
C1947 C1963 1.377 . S
C1948 C1946 1.389 . S
C1948 C1949 1.524 . S
C1948 C1962 1.377 . S
C1949 C1948 1.524 . S
C1949 C1950 1.397 . S
C1949 C1954 1.363 . S
C1950 H1927 0.950 . S
C1950 C1949 1.397 . S
C1950 C1951 1.334 . S
C1951 H1928 0.950 . S
C1951 C1950 1.334 . S
C1951 C1952 1.287 . S
C1952 C1951 1.287 . S
C1952 C1953 1.524 . S
C1952 H1971 0.913 . S
C1953 H1929 0.950 . S
C1953 C1952 1.524 . S
C1953 C1954 1.415 . S
C1954 H1930 0.950 . S
C1954 C1949 1.363 . S
C1954 C1953 1.415 . S
C1955 H1931 0.951 . S
C1955 C1956 1.366 . S
C1955 C1957 1.388 . S
C1956 C1955 1.366 . S
C1956 C1960 1.385 . S
C1957 H1932 0.951 . S
C1957 C1955 1.388 . S
C1957 C1958 1.366 . S
C1958 C1957 1.366 . S
C1958 C1959 1.414 . S
C1958 C1961 1.499 . S
C1959 H1933 0.950 . S
C1959 C1958 1.414 . S
C1959 C1960 1.374 . S
C1960 H1934 0.950 . S
C1960 C1956 1.385 . S
C1960 C1959 1.374 . S
C1961 C1958 1.499 . S
C1961 C1962 1.373 . S
C1961 C1963 1.389 . S
C1962 H1935 0.950 . S
C1962 C1948 1.377 . S
C1962 C1961 1.373 . S
C1963 C1947 1.377 . S
C1963 C1961 1.389 . S
C1963 C1964 1.524 . S
C1964 C1963 1.524 . S
C1964 C1965 1.397 . S
C1964 C1969 1.363 . S
C1965 H1936 0.950 . S
C1965 C1964 1.397 . S
C1965 C1966 1.334 . S
C1966 H1937 0.950 . S
C1966 C1965 1.334 . S
C1966 C1967 1.287 . S
C1967 C1966 1.287 . S
C1967 C1968 1.524 . S
C1967 H1970 0.999 . S
C1968 H1938 0.950 . S
C1968 C1967 1.524 . S
C1968 C1969 1.415 . S
C1969 H1939 0.950 . S
C1969 C1964 1.363 . S
C1969 C1968 1.415 . S
H1970 C1967 0.999 . S
H1971 C1952 0.913 . S
H1972 C1990 0.951 . S
H1973 C1992 0.951 . S
H1974 C1994 0.950 . S
H1975 C1995 0.950 . S
H1976 C1997 0.950 . S
H1977 C2000 0.950 . S
H1978 C2001 0.950 . S
H1979 C2003 0.950 . S
H1980 C2004 0.950 . S
H1981 C2005 0.951 . S
H1982 C2007 0.951 . S
H1983 C2009 0.950 . S
H1984 C2010 0.950 . S
H1985 C2012 0.950 . S
H1986 C2015 0.950 . S
H1987 C2016 0.950 . S
H1988 C2018 0.950 . S
H1989 C2019 0.950 . S
C1990 H1972 0.951 . S
C1990 C1991 1.366 . S
C1990 C1992 1.388 . S
C1991 C1990 1.366 . S
C1991 C1995 1.385 . S
C1992 H1973 0.951 . S
C1992 C1990 1.388 . S
C1992 C1993 1.366 . S
C1993 C1992 1.366 . S
C1993 C1994 1.414 . S
C1993 C1996 1.499 . S
C1994 H1974 0.950 . S
C1994 C1993 1.414 . S
C1994 C1995 1.374 . S
C1995 H1975 0.950 . S
C1995 C1991 1.385 . S
C1995 C1994 1.374 . S
C1996 C1993 1.499 . S
C1996 C1997 1.373 . S
C1996 C1998 1.389 . S
C1997 H1976 0.950 . S
C1997 C1996 1.373 . S
C1997 C2013 1.377 . S
C1998 C1996 1.389 . S
C1998 C1999 1.524 . S
C1998 C2012 1.377 . S
C1999 C1998 1.524 . S
C1999 C2000 1.397 . S
C1999 C2004 1.363 . S
C2000 H1977 0.950 . S
C2000 C1999 1.397 . S
C2000 C2001 1.334 . S
C2001 H1978 0.950 . S
C2001 C2000 1.334 . S
C2001 C2002 1.287 . S
C2002 C2001 1.287 . S
C2002 C2003 1.524 . S
C2002 H2021 0.913 . S
C2003 H1979 0.950 . S
C2003 C2002 1.524 . S
C2003 C2004 1.415 . S
C2004 H1980 0.950 . S
C2004 C1999 1.363 . S
C2004 C2003 1.415 . S
C2005 H1981 0.951 . S
C2005 C2006 1.366 . S
C2005 C2007 1.388 . S
C2006 C2005 1.366 . S
C2006 C2010 1.385 . S
C2007 H1982 0.951 . S
C2007 C2005 1.388 . S
C2007 C2008 1.366 . S
C2008 C2007 1.366 . S
C2008 C2009 1.414 . S
C2008 C2011 1.499 . S
C2009 H1983 0.950 . S
C2009 C2008 1.414 . S
C2009 C2010 1.374 . S
C2010 H1984 0.950 . S
C2010 C2006 1.385 . S
C2010 C2009 1.374 . S
C2011 C2008 1.499 . S
C2011 C2012 1.373 . S
C2011 C2013 1.389 . S
C2012 H1985 0.950 . S
C2012 C1998 1.377 . S
C2012 C2011 1.373 . S
C2013 C1997 1.377 . S
C2013 C2011 1.389 . S
C2013 C2014 1.524 . S
C2014 C2013 1.524 . S
C2014 C2015 1.397 . S
C2014 C2019 1.363 . S
C2015 H1986 0.950 . S
C2015 C2014 1.397 . S
C2015 C2016 1.334 . S
C2016 H1987 0.950 . S
C2016 C2015 1.334 . S
C2016 C2017 1.287 . S
C2017 C2016 1.287 . S
C2017 C2018 1.524 . S
C2017 H2020 0.999 . S
C2018 H1988 0.950 . S
C2018 C2017 1.524 . S
C2018 C2019 1.415 . S
C2019 H1989 0.950 . S
C2019 C2014 1.363 . S
C2019 C2018 1.415 . S
H2020 C2017 0.999 . S
H2021 C2002 0.913 . S
H2022 C2040 0.951 . S
H2023 C2042 0.951 . S
H2024 C2044 0.950 . S
H2025 C2045 0.950 . S
H2026 C2047 0.950 . S
H2027 C2050 0.950 . S
H2028 C2051 0.950 . S
H2029 C2053 0.950 . S
H2030 C2054 0.950 . S
H2031 C2055 0.951 . S
H2032 C2057 0.951 . S
H2033 C2059 0.950 . S
H2034 C2060 0.950 . S
H2035 C2062 0.950 . S
H2036 C2065 0.950 . S
H2037 C2066 0.950 . S
H2038 C2068 0.950 . S
H2039 C2069 0.950 . S
C2040 H2022 0.951 . S
C2040 C2041 1.366 . S
C2040 C2042 1.388 . S
C2041 C2040 1.366 . S
C2041 C2045 1.385 . S
C2042 H2023 0.951 . S
C2042 C2040 1.388 . S
C2042 C2043 1.366 . S
C2043 C2042 1.366 . S
C2043 C2044 1.414 . S
C2043 C2046 1.499 . S
C2044 H2024 0.950 . S
C2044 C2043 1.414 . S
C2044 C2045 1.374 . S
C2045 H2025 0.950 . S
C2045 C2041 1.385 . S
C2045 C2044 1.374 . S
C2046 C2043 1.499 . S
C2046 C2047 1.373 . S
C2046 C2048 1.389 . S
C2047 H2026 0.950 . S
C2047 C2046 1.373 . S
C2047 C2063 1.377 . S
C2048 C2046 1.389 . S
C2048 C2049 1.524 . S
C2048 C2062 1.377 . S
C2049 C2048 1.524 . S
C2049 C2050 1.397 . S
C2049 C2054 1.363 . S
C2050 H2027 0.950 . S
C2050 C2049 1.397 . S
C2050 C2051 1.334 . S
C2051 H2028 0.950 . S
C2051 C2050 1.334 . S
C2051 C2052 1.287 . S
C2052 C2051 1.287 . S
C2052 C2053 1.524 . S
C2052 H2071 0.913 . S
C2053 H2029 0.950 . S
C2053 C2052 1.524 . S
C2053 C2054 1.415 . S
C2054 H2030 0.950 . S
C2054 C2049 1.363 . S
C2054 C2053 1.415 . S
C2055 H2031 0.951 . S
C2055 C2056 1.366 . S
C2055 C2057 1.388 . S
C2056 C2055 1.366 . S
C2056 C2060 1.385 . S
C2057 H2032 0.951 . S
C2057 C2055 1.388 . S
C2057 C2058 1.366 . S
C2058 C2057 1.366 . S
C2058 C2059 1.414 . S
C2058 C2061 1.499 . S
C2059 H2033 0.950 . S
C2059 C2058 1.414 . S
C2059 C2060 1.374 . S
C2060 H2034 0.950 . S
C2060 C2056 1.385 . S
C2060 C2059 1.374 . S
C2061 C2058 1.499 . S
C2061 C2062 1.373 . S
C2061 C2063 1.389 . S
C2062 H2035 0.950 . S
C2062 C2048 1.377 . S
C2062 C2061 1.373 . S
C2063 C2047 1.377 . S
C2063 C2061 1.389 . S
C2063 C2064 1.524 . S
C2064 C2063 1.524 . S
C2064 C2065 1.397 . S
C2064 C2069 1.363 . S
C2065 H2036 0.950 . S
C2065 C2064 1.397 . S
C2065 C2066 1.334 . S
C2066 H2037 0.950 . S
C2066 C2065 1.334 . S
C2066 C2067 1.287 . S
C2067 C2066 1.287 . S
C2067 C2068 1.524 . S
C2067 H2070 0.999 . S
C2068 H2038 0.950 . S
C2068 C2067 1.524 . S
C2068 C2069 1.415 . S
C2069 H2039 0.950 . S
C2069 C2064 1.363 . S
C2069 C2068 1.415 . S
H2070 C2067 0.999 . S
H2071 C2052 0.913 . S
C506 C384 1.251 . S
C491 C8 1.246 . S
C556 C398 1.245 . S
C541 C61 1.236 . S
C606 C411 1.251 . S
C591 C107 1.243 . S
C641 C139 1.248 . S
C656 C378 1.254 . S
C691 C192 1.256 . S
C706 C371 1.263 . S
C741 C238 1.250 . S
C756 C391 1.257 . S
C806 C399 1.253 . S
C791 C284 1.248 . S
C856 C412 1.257 . S
C841 C330 1.250 . S
C891 C100 1.246 . S
C906 C438 1.252 . S
C956 C456 1.245 . S
C941 C160 1.237 . S
C991 C15 1.243 . S
C1006 C463 1.252 . S
C1056 C430 1.254 . S
C1041 C54 1.248 . S
C1091 C291 1.253 . S
C1106 C423 1.263 . S
C1141 C337 1.247 . S
C1156 C437 1.257 . S
C1206 C449 1.253 . S
C1191 C199 1.244 . S
C1241 C245 1.248 . S
C1256 C464 1.256 . S
C1306 C397 1.736 . S
C1291 C1 1.752 . S
C1356 C410 1.740 . S
C1341 C68 1.749 . S
C1391 C114 1.741 . S
C1406 C373 1.732 . S
C1441 C146 1.744 . S
C1456 C385 1.722 . S
C1491 C185 1.737 . S
C1506 C417 1.716 . S
C1556 C372 1.719 . S
C1541 C231 1.740 . S
C1606 C386 1.733 . S
C1591 C277 1.748 . S
C1656 C404 1.723 . S
C1641 C323 1.744 . S
C1706 C451 1.736 . S
C1691 C93 1.752 . S
C1756 C462 1.740 . S
C1741 C153 1.749 . S
C1791 C22 1.742 . S
C1806 C425 1.733 . S
C1856 C443 1.723 . S
C1841 C47 1.744 . S
C1906 C469 1.715 . S
C1891 C298 1.731 . S
C1941 C344 1.734 . S
C1956 C424 1.718 . S
C2006 C436 1.732 . S
C1991 C206 1.741 . S
C2056 C450 1.722 . S
C2041 C252 1.737 . S
