# Generated by pormake.
# Topology anh, (6,3)-cn, num edge types: 1
# Building blocks:
#     Node 0, Type 0, BuildingBlock: NUHQIS_clean_sbu_0, # of connection points: 6
#     Node 1, Type 0, BuildingBlock: NUHQIS_clean_sbu_0, # of connection points: 6
#     Node 2, Type 0, BuildingBlock: NUHQIS_clean_sbu_0, # of connection points: 6
#     Node 3, Type 1, BuildingBlock: VETTIZ_charged_linker_0, # of connection points: 3
#     Node 4, Type 1, BuildingBlock: VETTIZ_charged_linker_0, # of connection points: 3
#     Node 5, Type 1, BuildingBlock: VETTIZ_charged_linker_0, # of connection points: 3
#     Node 6, Type 1, BuildingBlock: VETTIZ_charged_linker_0, # of connection points: 3
#     Node 7, Type 1, BuildingBlock: VETTIZ_charged_linker_0, # of connection points: 3
#     Node 8, Type 1, BuildingBlock: VETTIZ_charged_linker_0, # of connection points: 3
#     Edge 9, Type (0, 1), BuildingBlock: TEMPAE_clean_linker_10, # of connection points: 2
#     Edge 10, Type (0, 1), BuildingBlock: TEMPAE_clean_linker_10, # of connection points: 2
#     Edge 11, Type (0, 1), BuildingBlock: TEMPAE_clean_linker_10, # of connection points: 2
#     Edge 12, Type (0, 1), BuildingBlock: TEMPAE_clean_linker_10, # of connection points: 2
#     Edge 13, Type (0, 1), BuildingBlock: TEMPAE_clean_linker_10, # of connection points: 2
#     Edge 14, Type (0, 1), BuildingBlock: TEMPAE_clean_linker_10, # of connection points: 2
#     Edge 15, Type (0, 1), BuildingBlock: TEMPAE_clean_linker_10, # of connection points: 2
#     Edge 16, Type (0, 1), BuildingBlock: TEMPAE_clean_linker_10, # of connection points: 2
#     Edge 17, Type (0, 1), BuildingBlock: TEMPAE_clean_linker_10, # of connection points: 2
#     Edge 18, Type (0, 1), BuildingBlock: TEMPAE_clean_linker_10, # of connection points: 2
#     Edge 19, Type (0, 1), BuildingBlock: TEMPAE_clean_linker_10, # of connection points: 2
#     Edge 20, Type (0, 1), BuildingBlock: TEMPAE_clean_linker_10, # of connection points: 2
#     Edge 21, Type (0, 1), BuildingBlock: TEMPAE_clean_linker_10, # of connection points: 2
#     Edge 22, Type (0, 1), BuildingBlock: TEMPAE_clean_linker_10, # of connection points: 2
#     Edge 23, Type (0, 1), BuildingBlock: TEMPAE_clean_linker_10, # of connection points: 2
#     Edge 24, Type (0, 1), BuildingBlock: TEMPAE_clean_linker_10, # of connection points: 2
#     Edge 25, Type (0, 1), BuildingBlock: TEMPAE_clean_linker_10, # of connection points: 2
#     Edge 26, Type (0, 1), BuildingBlock: TEMPAE_clean_linker_10, # of connection points: 2
# Relax obj value: 0.240
# Max RMSD: 0.190
# Mean RMSD: 0.158
data_MOF--net-anh--node1-NUHQIS_clean_sbu_0--node2-VETTIZ_charged_linker_0--edge1-TEMPAE_clean_linker_10
_symmetry_space_group_name_H-M    P1
_symmetry_Int_Tables_number       1
_symmetry_cell_setting            triclinic
loop_
_symmetry_equiv_pos_as_xyz
'x, y, z'
_cell_length_a     37.184089
_cell_length_b     37.208034
_cell_length_c     67.338626
_cell_angle_alpha  90.358863
_cell_angle_beta   92.519058
_cell_angle_gamma 120.0542
loop_
_atom_site_label
_atom_site_type_symbol
_atom_site_fract_x
_atom_site_fract_y
_atom_site_fract_z
_atom_type_partial_charge
Tb0 Tb 0.14593 0.56957 0.16141 0.0
Eu1 Eu 0.09467 0.616 0.1567 0.0
C2 C 0.12371 0.6008 0.1987 0.0
C3 C 1.04567 0.51423 0.16039 0.0
C4 C 0.22943 0.5496 0.17738 0.0
C5 C 0.27037 0.54426 0.20515 0.0
C6 C 0.23185 0.53153 0.19527 0.0
C7 C 0.266 0.5819 0.17 0.0
C8 C 0.30442 0.59433 0.17975 0.0
C9 C 0.30723 0.57496 0.19717 0.0
C10 C 0.18871 0.53518 0.16682 0.0
O11 O 0.12193 0.5597 0.13035 0.0
O12 O 0.12523 0.62193 0.12786 0.0
O13 O 0.16187 0.67104 0.16264 0.0
O14 O 0.1969 0.63554 0.15823 0.0
C15 C 0.12524 0.5902 0.11944 0.0
O16 O 1.05205 0.62819 0.13867 0.0
O17 O 1.0709 0.65425 0.16874 0.0
O18 O 0.09123 0.59656 0.18835 0.0
O19 O 0.15445 0.60161 0.18969 0.0
O20 O 0.08166 0.51926 0.16761 0.0
O21 O 1.04517 0.54616 0.15212 0.0
C22 C 0.19749 0.67133 0.16092 0.0
O23 O 0.15868 0.52938 0.17802 0.0
O24 O 0.18841 0.55387 0.15051 0.0
C25 C 0.99963 0.62139 0.15863 0.0
C26 C 0.9147 0.56194 0.16084 0.0
C27 C 0.9275 0.59497 0.14769 0.0
C28 C 0.96969 0.62439 0.14656 0.0
C29 C 0.98668 0.59013 0.17272 0.0
C30 C 0.94461 0.56075 0.17385 0.0
C31 C 1.04361 0.6443 0.15379 0.0
H32 H 0.27143 0.52891 0.2186 0.0
H33 H 0.20398 0.50698 0.20142 0.0
H34 H 0.26523 0.59691 0.15639 0.0
H35 H 0.33209 0.61743 0.17286 0.0
H36 H 0.90527 0.59648 0.13728 0.0
H37 H 0.97909 0.64776 0.13535 0.0
H38 H 1.00926 0.58674 0.18202 0.0
H39 H 0.93569 0.53597 0.18426 0.0
Tb40 Tb 0.66425 0.11162 0.49545 0.0
Eu41 Eu 0.56574 0.0633 0.49061 0.0
C42 C 0.6129 0.08038 0.53228 0.0
C43 C 0.6176 1.01119 0.49386 0.0
C44 C 0.76165 0.20356 0.49308 0.0
C45 C 0.78569 0.2758 0.50191 0.0
C46 C 0.77738 0.2363 0.50734 0.0
C47 C 0.75719 0.21184 0.47302 0.0
C48 C 0.76571 0.25132 0.46759 0.0
C49 C 0.77878 0.28331 0.48207 0.0
C50 C 0.74091 0.16032 0.49968 0.0
O51 O 0.65344 0.11724 0.46378 0.0
O52 O 0.58366 0.07078 0.45889 0.0
O53 O 0.58063 0.1303 0.48566 0.0
O54 O 0.64637 0.16074 0.50015 0.0
C55 C 0.62003 0.09596 0.45196 0.0
O56 O 0.50608 1.02033 0.47545 0.0
O57 O 0.50763 1.04625 0.50448 0.0
O58 O 0.58584 0.08652 0.52221 0.0
O59 O 0.64266 0.07957 0.52308 0.0
O60 O 0.65237 1.04672 0.49103 0.0
O61 O 0.58258 1.01168 0.49611 0.0
C62 C 0.61403 0.16393 0.4932 0.0
O63 O 0.71571 0.15309 0.51394 0.0
O64 O 0.7241 0.13119 0.48572 0.0
C65 C 0.45975 0.97597 0.49799 0.0
C66 C 0.41368 0.89163 0.50687 0.0
C67 C 0.39389 0.91204 0.49815 0.0
C68 C 0.4169 0.95385 0.49354 0.0
C69 C 0.47916 0.95661 0.50791 0.0
C70 C 0.45638 0.91465 0.51221 0.0
C71 C 0.48505 1.01792 0.49084 0.0
H72 H 0.7967 0.30025 0.51329 0.0
H73 H 0.78077 0.23071 0.5229 0.0
H74 H 0.74471 0.18731 0.46162 0.0
H75 H 0.76026 0.25629 0.45218 0.0
H76 H 0.36074 0.89539 0.49437 0.0
H77 H 0.40148 0.96853 0.48603 0.0
H78 H 0.51223 0.97358 0.51172 0.0
H79 H 0.47257 0.89995 0.51889 0.0
Tb80 Tb 0.63875 0.63421 0.82764 0.0
Eu81 Eu 0.59068 0.53574 0.82376 0.0
C82 C 0.61538 0.58147 0.8646 0.0
C83 C 0.69321 0.58712 0.82635 0.0
C84 C 0.65355 0.73429 0.84128 0.0
C85 C 0.64072 0.79155 0.83723 0.0
C86 C 0.66673 0.77479 0.83536 0.0
C87 C 0.61628 0.71247 0.85102 0.0
C88 C 0.59008 0.7289 0.85264 0.0
C89 C 0.60068 0.76744 0.84449 0.0
C90 C 0.67286 0.71144 0.83354 0.0
O91 O 0.64152 0.62057 0.79616 0.0
O92 O 0.58496 0.55512 0.79293 0.0
O93 O 0.53739 0.54996 0.82744 0.0
O94 O 0.57274 0.62059 0.82431 0.0
C95 C 0.61314 0.5891 0.78496 0.0
O96 O 0.57662 0.47566 0.81121 0.0
O97 O 0.54443 0.47884 0.83674 0.0
O98 O 0.62166 0.55583 0.85419 0.0
O99 O 0.60949 0.60894 0.85539 0.0
O100 O 0.69091 0.62027 0.83198 0.0
O101 O 0.65877 0.55284 0.82009 0.0
C102 C 0.53711 0.58533 0.8262 0.0
O103 O 0.67736 0.68697 0.84592 0.0
O104 O 0.65655 0.69282 0.81631 0.0
C105 C 0.56417 0.42778 0.83685 0.0
C106 C 0.58271 0.37288 0.85748 0.0
C107 C 0.60018 0.38864 0.83918 0.0
C108 C 0.59098 0.41572 0.82898 0.0
C109 C 0.5481 0.4135 0.85554 0.0
C110 C 0.55743 0.38644 0.8658 0.0
C111 C 0.55342 0.45557 0.82584 0.0
H112 H 0.65066 0.82211 0.83155 0.0
H113 H 0.69552 0.79216 0.8279 0.0
H114 H 0.60555 0.6811 0.85576 0.0
H115 H 0.55989 0.70945 0.85853 0.0
H116 H 0.61891 0.37802 0.83206 0.0
H117 H 0.60402 0.42625 0.81467 0.0
H118 H 0.52754 0.42251 0.86207 0.0
H119 H 0.54343 0.37472 0.87982 0.0
C120 C 0.73323 0.20232 0.17501 0.0
C121 C 0.76838 0.23708 0.18578 0.0
C122 C 0.76899 0.23496 0.20663 0.0
C123 C 0.70254 0.16966 0.20622 0.0
C124 C 0.70031 0.16866 0.18568 0.0
C125 C 0.65949 0.12835 0.17822 0.0
H126 H 0.47647 0.95173 0.21031 0.0
C127 C 0.66497 0.13277 0.21381 0.0
C128 C 0.63836 0.107 0.19764 0.0
H129 H 0.5046 0.97147 0.14857 0.0
H130 H 0.56989 1.03741 0.15824 0.0
H131 H 0.56296 0.96934 0.22435 0.0
H132 H 0.50165 1.04073 0.22247 0.0
H133 H 0.53047 0.05523 0.24528 0.0
H134 H 0.49107 1.00163 0.24038 0.0
H135 H 0.52629 0.96385 0.24217 0.0
H136 H 0.58134 0.99999 0.24627 0.0
C137 C 0.67058 0.10037 0.16621 0.0
C138 C 0.63145 0.13988 0.16569 0.0
C139 C 0.65444 0.12395 0.28944 0.0
C140 C 0.62492 0.09435 0.30175 0.0
C141 C 0.58954 0.05968 0.29279 0.0
C142 C 0.58358 0.05436 0.27207 0.0
C143 C 0.61354 0.08374 0.25983 0.0
C144 C 0.64822 0.11773 0.2686 0.0
C145 C 0.67705 0.14516 0.25331 0.0
C146 C 0.6538 0.12227 0.23384 0.0
C147 C 0.61668 0.08643 0.2378 0.0
C148 C 0.71886 0.14549 0.25668 0.0
C149 C 0.68019 0.18825 0.25549 0.0
C150 C 0.49615 0.96872 0.19844 0.0
C151 C 0.48396 0.95395 0.17859 0.0
C152 C 0.51186 0.98053 0.16418 0.0
C153 C 0.55008 1.01891 0.16974 0.0
C154 C 0.56163 1.0319 0.19004 0.0
C155 C 0.53383 1.00584 0.20364 0.0
C156 C 0.54861 1.0206 0.22455 0.0
C157 C 0.58959 0.05997 0.22199 0.0
C158 C 0.59905 0.06868 0.20171 0.0
C159 C 0.55493 0.98683 0.23505 0.0
C160 C 0.51637 1.02982 0.23383 0.0
H161 H 0.74124 0.20495 0.23244 0.0
H162 H 0.73105 0.20178 0.15892 0.0
H163 H 0.62422 0.16066 0.17447 0.0
H164 H 0.60167 0.11168 0.16094 0.0
H165 H 0.64711 0.15627 0.15219 0.0
H166 H 0.69144 0.09284 0.17534 0.0
H167 H 0.68682 0.11619 0.15271 0.0
H168 H 0.64224 0.07079 0.16146 0.0
H169 H 0.68213 0.15087 0.29587 0.0
H170 H 0.56606 1.0367 0.30188 0.0
H171 H 0.55565 1.02733 0.2665 0.0
H172 H 0.71424 0.11649 0.2636 0.0
H173 H 0.74123 0.17195 0.26663 0.0
H174 H 0.73358 0.14643 0.2426 0.0
H175 H 0.65053 0.18509 0.26034 0.0
H176 H 0.68541 0.20452 0.24132 0.0
H177 H 0.70515 0.2086 0.26672 0.0
H178 H 0.79479 0.25914 0.21564 0.0
C179 C 0.73723 0.20255 0.2166 0.0
C180 C 0.6183 0.69809 0.50771 0.0
C181 C 0.61551 0.73069 0.51843 0.0
C182 C 0.60762 0.724 0.53871 0.0
C183 C 0.61079 0.65993 0.53837 0.0
C184 C 0.61555 0.66245 0.51812 0.0
C185 C 0.61702 0.62321 0.51076 0.0
H186 H 0.61617 0.44013 0.5431 0.0
C187 C 0.61147 0.62254 0.54601 0.0
C188 C 0.61435 0.59906 0.53006 0.0
H189 H 0.61579 0.46903 0.48131 0.0
H190 H 0.61683 0.53436 0.49099 0.0
H191 H 0.68287 0.52851 0.55755 0.0
H192 H 0.5496 0.46073 0.5551 0.0
H193 H 0.5642 0.48813 0.578 0.0
H194 H 0.5807 0.45105 0.57298 0.0
H195 H 0.65395 0.48969 0.57507 0.0
H196 H 0.66973 0.54367 0.57946 0.0
C197 C 0.65807 0.63649 0.50086 0.0
C198 C 0.57943 0.59692 0.4963 0.0
C199 C 0.61407 0.60986 0.62154 0.0
C200 C 0.61692 0.58139 0.63429 0.0
C201 C 0.61822 0.54745 0.62565 0.0
C202 C 0.61721 0.54224 0.60494 0.0
C203 C 0.61475 0.57117 0.59236 0.0
C204 C 0.61308 0.6041 0.6008 0.0
C205 C 0.61019 0.63156 0.58532 0.0
C206 C 0.61162 0.61045 0.56606 0.0
C207 C 0.61381 0.57488 0.57028 0.0
C208 C 0.64899 0.67553 0.58886 0.0
C209 C 0.5675 0.62928 0.58703 0.0
C210 C 0.61546 0.4593 0.53124 0.0
C211 C 0.61484 0.44722 0.51131 0.0
C212 C 0.61592 0.47607 0.49693 0.0
C213 C 0.61629 0.51404 0.50249 0.0
C214 C 0.6159 0.52451 0.52278 0.0
C215 C 0.61579 0.49648 0.53643 0.0
C216 C 0.61605 0.50994 0.55732 0.0
C217 C 0.61502 0.54979 0.55461 0.0
C218 C 0.61522 0.56041 0.5343 0.0
C219 C 0.65749 0.51816 0.56807 0.0
C220 C 0.57587 0.4758 0.56652 0.0
H221 H 0.60049 0.68934 0.56393 0.0
H222 H 0.62326 0.70066 0.49195 0.0
H223 H 0.54995 0.58804 0.50356 0.0
H224 H 0.57873 0.56805 0.49146 0.0
H225 H 0.58066 0.61468 0.48288 0.0
H226 H 0.68499 0.65604 0.51139 0.0
H227 H 0.66049 0.65476 0.48748 0.0
H228 H 0.66014 0.60893 0.49624 0.0
H229 H 0.61321 0.63648 0.62753 0.0
H230 H 0.6195 0.5244 0.63493 0.0
H231 H 0.61817 0.51556 0.5996 0.0
H232 H 0.67659 0.67352 0.59434 0.0
H233 H 0.6435 0.69391 0.60014 0.0
H234 H 0.65903 0.69341 0.57519 0.0
H235 H 0.54439 0.60007 0.5939 0.0
H236 H 0.55256 0.62862 0.57232 0.0
H237 H 0.57059 0.65556 0.59631 0.0
H238 H 0.6032 0.74581 0.54753 0.0
C239 C 0.60555 0.69006 0.54844 0.0
C240 C 0.2256 0.58534 0.84272 0.0
C241 C 0.26324 0.59193 0.85365 0.0
C242 C 0.26754 0.60536 0.8737 0.0
C243 C 0.19821 0.59746 0.87306 0.0
C244 C 0.19349 0.58898 0.85283 0.0
C245 C 0.15166 0.58577 0.84508 0.0
H246 H 0.96865 0.58142 0.87643 0.0
C247 C 0.15988 0.59536 0.88051 0.0
C248 C 0.13154 0.58963 0.86426 0.0
H249 H 0.99682 0.58706 0.81477 0.0
H250 H 1.0625 0.58778 0.82466 0.0
H251 H 0.99251 0.51379 0.88625 0.0
H252 H 1.05227 0.64608 0.893 0.0
H253 H 1.06563 0.63016 0.91514 0.0
H254 H 1.01163 0.61123 0.90831 0.0
H255 H 0.98204 0.53858 0.90625 0.0
H256 H 1.02241 0.52501 0.90863 0.0
C257 C 0.1235 0.54379 0.83417 0.0
C258 C 0.16139 0.62204 0.83137 0.0
C259 C 0.1481 0.59481 0.95619 0.0
C260 C 0.11511 0.58707 0.96841 0.0
C261 C 1.07666 0.57789 0.95893 0.0
C262 C 1.07163 0.57808 0.93822 0.0
C263 C 0.10492 0.58649 0.92628 0.0
C264 C 0.14202 0.59372 0.9353 0.0
C265 C 0.17298 0.59934 0.92018 0.0
C266 C 0.14834 0.59459 0.90052 0.0
C267 C 0.10894 0.5881 0.90431 0.0
C268 C 0.18279 0.5637 0.92293 0.0
C269 C 0.21116 0.64382 0.92338 0.0
C270 C 0.98767 0.58209 0.86459 0.0
C271 C 0.97539 0.58353 0.84467 0.0
C272 C 1.00411 0.58597 0.8304 0.0
C273 C 1.04247 0.58639 0.83609 0.0
C274 C 1.0535 0.58477 0.8564 0.0
C275 C 1.02524 0.58262 0.8699 0.0
C276 C 1.03889 0.58103 0.89079 0.0
C277 C 0.08112 0.58525 0.88841 0.0
C278 C 0.0912 0.58655 0.86818 0.0
C279 C 1.00738 0.53764 0.89856 0.0
C280 C 1.04211 0.61874 0.90259 0.0
H281 H 0.24274 0.61737 0.89853 0.0
H282 H 0.22103 0.57701 0.82702 0.0
H283 H 0.18224 0.65222 0.83937 0.0
H284 H 0.13264 0.62187 0.82621 0.0
H285 H 0.17716 0.62006 0.81811 0.0
H286 H 0.11728 0.51786 0.84416 0.0
H287 H 0.1385 0.54057 0.82089 0.0
H288 H 0.09325 0.5409 0.82922 0.0
H289 H 0.17825 0.60204 0.96261 0.0
H290 H 1.04986 0.5701 0.96747 0.0
H291 H 1.04175 0.57191 0.93242 0.0
H292 H 0.15389 0.53388 0.92544 0.0
H293 H 0.20474 0.57035 0.936 0.0
H294 H 0.19566 0.55726 0.90984 0.0
H295 H 0.20324 0.66495 0.93143 0.0
H296 H 0.22281 0.65916 0.90913 0.0
H297 H 0.23695 0.6435 0.93219 0.0
H298 H 0.29592 0.61411 0.88255 0.0
C299 C 0.23612 0.6078 0.88319 0.0
C300 C 0.95735 0.59327 0.45726 0.0
C301 C 0.92023 0.56774 0.44594 0.0
C302 C 0.92229 0.56534 0.42509 0.0
C303 C 0.9974 0.59887 0.42886 0.0
C304 C 0.99505 0.60398 0.44901 0.0
C305 C 1.03259 0.60887 0.4608 0.0
H306 H 0.22729 0.6412 0.46367 0.0
C307 C 1.03925 0.60535 0.42562 0.0
C308 C 1.05963 0.6105 0.4443 0.0
H309 H 0.14756 0.61833 0.51267 0.0
H310 H 0.09237 0.60931 0.48986 0.0
H311 H 0.15021 0.56168 0.43392 0.0
H312 H 0.20331 0.69456 0.43946 0.0
H313 H 0.19127 0.68052 0.41407 0.0
H314 H 0.22952 0.67191 0.42726 0.0
H315 H 0.20331 0.59824 0.42908 0.0
H316 H 0.16215 0.58337 0.41024 0.0
C317 C 1.01881 0.56941 0.47332 0.0
C318 C 1.0522 0.65011 0.47316 0.0
C319 C 0.0845 0.60731 0.35551 0.0
C320 C 0.12249 0.61617 0.34787 0.0
C321 C 0.15708 0.62685 0.36104 0.0
C322 C 0.15348 0.6275 0.38168 0.0
C323 C 0.11499 0.61771 0.38914 0.0
C324 C 0.0816 0.60885 0.37609 0.0
C325 C 1.04358 0.6009 0.38661 0.0
C326 C 1.05982 0.60695 0.40813 0.0
C327 C 0.10125 0.61558 0.40956 0.0
C328 C 1.00857 0.55552 0.38168 0.0
C329 C 1.03222 0.63411 0.38044 0.0
C330 C 0.19737 0.6322 0.46952 0.0
C331 C 0.19233 0.63136 0.49021 0.0
C332 C 0.15282 0.6202 0.49693 0.0
C333 C 0.1205 0.61465 0.48357 0.0
C334 C 0.12686 0.61817 0.46311 0.0
C335 C 0.16417 0.62507 0.4563 0.0
C336 C 0.16471 0.62671 0.43394 0.0
C337 C 0.12136 0.61936 0.42855 0.0
C338 C 0.1 0.61554 0.44576 0.0
C339 C 0.17061 0.59084 0.42623 0.0
C340 C 0.1991 0.67051 0.42823 0.0
H341 H 0.96053 0.57674 0.40071 0.0
H342 H 0.95708 0.59717 0.4732 0.0
H343 H 1.05446 0.67564 0.46381 0.0
H344 H 0.08416 0.66035 0.47904 0.0
H345 H 1.0329 0.6473 0.48583 0.0
H346 H 0.9895 0.54236 0.467 0.0
H347 H 1.01356 0.5749 0.48888 0.0
H348 H 1.04123 0.55807 0.47333 0.0
H349 H 1.05764 0.59958 0.34564 0.0
H350 H 0.18666 0.63397 0.35535 0.0
H351 H 0.18072 0.63545 0.39102 0.0
H352 H 1.02146 0.53543 0.37743 0.0
H353 H 0.98745 0.55407 0.36912 0.0
H354 H 0.99 0.54041 0.39465 0.0
H355 H 1.06036 0.66562 0.38144 0.0
H356 H 1.00968 0.63548 0.39008 0.0
H357 H 1.01904 0.62826 0.36485 0.0
H358 H 0.89448 0.54675 0.41566 0.0
C359 C 0.96089 0.58174 0.41644 0.0
C360 C 0.39608 0.86735 0.78556 0.0
C361 C 0.40469 0.836 0.78038 0.0
C362 C 0.41658 0.83461 0.76087 0.0
C363 C 0.42668 0.9033 0.75552 0.0
C364 C 0.41073 0.90228 0.77384 0.0
C365 C 0.42302 0.94489 0.78181 0.0
H366 H 0.55555 0.14916 0.78071 0.0
C367 C 0.44934 0.94707 0.74952 0.0
C368 C 0.44765 0.97147 0.76504 0.0
H369 H 0.47009 0.07916 0.82563 0.0
H370 H 0.43788 1.01834 0.80381 0.0
H371 H 0.57743 0.07988 0.76528 0.0
H372 H 0.48794 0.1144 0.7457 0.0
H373 H 0.49375 0.08968 0.72473 0.0
H374 H 0.53777 0.13692 0.73521 0.0
H375 H 0.58892 0.12925 0.75561 0.0
H376 H 0.57887 0.08676 0.73926 0.0
C377 C 0.45088 0.95334 0.80123 0.0
C378 C 0.38293 0.94694 0.78445 0.0
C379 C 0.52136 0.98654 0.68395 0.0
C380 C 0.54523 1.02518 0.67509 0.0
C381 C 0.55344 0.06172 0.68555 0.0
C382 C 0.53868 0.06003 0.70443 0.0
C383 C 0.51538 1.02146 0.71312 0.0
C384 C 0.50648 0.98541 0.70287 0.0
C385 C 0.48056 0.94728 0.7146 0.0
C386 C 0.47335 0.96655 0.73292 0.0
C387 C 0.49504 1.01006 0.73215 0.0
C388 C 0.5068 0.92636 0.71974 0.0
C389 C 0.4394 0.91876 0.70247 0.0
C390 C 0.5301 0.12053 0.78583 0.0
C391 C 0.51625 0.11828 0.80513 0.0
C392 C 0.48222 0.08105 0.8111 0.0
C393 C 0.46345 1.04593 0.79837 0.0
C394 C 0.47976 1.04765 0.77975 0.0
C395 C 0.51135 0.08487 0.77339 0.0
C396 C 0.52258 0.08118 0.75257 0.0
C397 C 0.4952 1.03467 0.74836 0.0
C398 C 0.47066 1.01536 0.76444 0.0
C399 C 0.56946 0.09509 0.75306 0.0
C400 C 0.51016 0.10695 0.73879 0.0
H401 H 0.43824 0.86654 0.73405 0.0
H402 H 0.38637 0.86884 0.80034 0.0
H403 H 0.35864 0.92804 0.77262 0.0
H404 H 0.38801 0.97873 0.78304 0.0
H405 H 0.36977 0.93477 0.79903 0.0
H406 H 0.46938 0.93743 0.80045 0.0
H407 H 0.43184 0.94212 0.81446 0.0
H408 H 0.47498 0.98606 0.80396 0.0
H409 H 0.51461 0.95788 0.67639 0.0
H410 H 0.57068 0.09179 0.67895 0.0
H411 H 0.54606 0.08889 0.71157 0.0
H412 H 0.54067 0.94811 0.71843 0.0
H413 H 0.49785 0.89909 0.70966 0.0
H414 H 0.50404 0.91646 0.73534 0.0
H415 H 0.42494 0.93696 0.69692 0.0
H416 H 0.41614 0.89382 0.7114 0.0
H417 H 0.445 0.90421 0.68941 0.0
H418 H 0.4228 0.81043 0.75622 0.0
C419 C 0.42682 0.8679 0.74823 0.0
C420 C 0.61153 0.3887 0.1203 0.0
C421 C 0.63446 0.37684 0.10858 0.0
C422 C 0.626 0.3727 0.08776 0.0
C423 C 0.58465 0.40598 0.09074 0.0
C424 C 0.58798 0.40421 0.11118 0.0
C425 C 0.57133 0.4279 0.12179 0.0
H426 H 0.50976 0.56949 0.11966 0.0
C427 C 0.56754 0.43355 0.08623 0.0
C428 C 0.55978 0.44635 0.10442 0.0
H429 H 0.52009 0.50299 0.17008 0.0
H430 H 0.54099 0.46539 0.14886 0.0
H431 H 0.59113 0.58291 0.09845 0.0
H432 H 0.46182 0.48929 0.09095 0.0
H433 H 0.48122 0.5004 0.06708 0.0
H434 H 0.48165 0.54092 0.08214 0.0
H435 H 0.55317 0.59254 0.08609 0.0
H436 H 0.58004 0.57156 0.07284 0.0
C437 C 0.60699 0.46192 0.13562 0.0
C438 C 0.53248 0.39627 0.13262 0.0
C439 C 0.56608 0.48121 0.01571 0.0
C440 C 0.55889 0.5121 0.00792 0.0
C441 C 0.54611 0.53352 0.02043 0.0
C442 C 0.54103 0.52469 0.04061 0.0
C443 C 0.5496 0.49466 0.04842 0.0
C444 C 0.56163 0.47326 0.03603 0.0
C445 C 0.57219 0.44459 0.04725 0.0
C446 C 0.56326 0.4514 0.06832 0.0
C447 C 0.55036 0.48102 0.06887 0.0
C448 C 0.61896 0.45982 0.04497 0.0
C449 C 0.5424 0.39958 0.03939 0.0
C450 C 0.51679 0.54699 0.12614 0.0
C451 C 0.5137 0.53956 0.14665 0.0
C452 C 0.52313 0.51003 0.15445 0.0
C453 C 0.53456 0.48765 0.14202 0.0
C454 C 0.53686 0.49494 0.12154 0.0
C455 C 0.52789 0.52404 0.11389 0.0
C456 C 0.53039 0.52631 0.09165 0.0
C457 C 0.54231 0.49365 0.08728 0.0
C458 C 0.54648 0.4759 0.10487 0.0
C459 C 0.5652 0.5706 0.08682 0.0
C460 C 0.48671 0.51392 0.08232 0.0
H461 H 0.59817 0.38611 0.06281 0.0
H462 H 0.61649 0.39208 0.1363 0.0
H463 H 0.51602 0.36562 0.12449 0.0
H464 H 0.5088 0.40587 0.13341 0.0
H465 H 0.54119 0.39104 0.14787 0.0
H466 H 0.63764 0.47409 0.12891 0.0
H467 H 0.60902 0.44941 0.1503 0.0
H468 H 0.60417 0.4897 0.13809 0.0
H469 H 0.57665 0.4649 0.00637 0.0
H470 H 0.54041 0.55738 0.01456 0.0
H471 H 0.53149 0.54223 0.04942 0.0
H472 H 0.63724 0.49421 0.04391 0.0
H473 H 0.6236 0.44608 0.0313 0.0
H474 H 0.63374 0.45317 0.05787 0.0
H475 H 0.51021 0.39401 0.03685 0.0
H476 H 0.53992 0.37609 0.05004 0.0
H477 H 0.55235 0.39352 0.02503 0.0
H478 H 0.6417 0.36188 0.07831 0.0
C479 C 0.6011 0.38723 0.07876 0.0
C480 C 0.35229 0.54607 0.20767 0.0
C481 C 0.34836 0.58111 0.20422 0.0
C482 C 0.39017 0.54762 0.20513 0.0
C483 C 0.42419 0.58489 0.19882 0.0
C484 C 0.42273 0.62208 0.19967 0.0
C485 C 0.3845 0.6198 0.20242 0.0
C486 C 0.39117 0.50757 0.20551 0.0
C487 C 0.45935 0.66293 0.19434 0.0
C488 C 0.5106 0.57077 0.1793 0.0
C489 C 0.49582 0.55848 0.15945 0.0
C490 C 0.48916 0.5821 0.19231 0.0
C491 C 0.45247 0.58135 0.18514 0.0
C492 C 0.43918 0.57173 0.16476 0.0
C493 C 0.46092 0.56027 0.15224 0.0
C494 C 0.50528 0.59391 0.21369 0.0
C495 C 0.40026 0.57072 0.15631 0.0
H496 H 0.32487 0.51612 0.20962 0.0
H497 H 0.38201 0.64745 0.20075 0.0
H498 H 0.38567 0.49431 0.19012 0.0
H499 H 0.42191 0.51301 0.21135 0.0
H500 H 0.36666 0.48429 0.21476 0.0
H501 H 0.45748 0.68955 0.20068 0.0
H502 H 0.48908 0.66524 0.19971 0.0
H503 H 0.45953 0.66528 0.17791 0.0
H504 H 0.53824 0.57037 0.18479 0.0
H505 H 0.44901 0.55035 0.13702 0.0
H506 H 0.4797 0.57884 0.22401 0.0
H507 H 0.5194 0.62799 0.21596 0.0
H508 H 0.52933 0.58548 0.21775 0.0
H509 H 0.37256 0.54597 0.16334 0.0
H510 H 0.39564 0.56466 0.13996 0.0
H511 H 0.40177 0.60073 0.15951 0.0
C512 C 0.80788 0.34361 0.45983 0.0
C513 C 0.7855 0.32454 0.47648 0.0
C514 C 0.81861 0.3844 0.45553 0.0
C515 C 0.80635 0.40655 0.46817 0.0
C516 C 0.78132 0.38648 0.48427 0.0
C517 C 0.77105 0.34552 0.48818 0.0
C518 C 0.84654 0.405 0.43858 0.0
C519 C 0.767 0.40858 0.49798 0.0
C520 C 0.8936 0.516 0.47269 0.0
C521 C 0.88471 0.53346 0.456 0.0
C522 C 0.866 0.47571 0.47818 0.0
C523 C 0.82792 0.45234 0.46703 0.0
C524 C 0.81556 0.47175 0.45245 0.0
C525 C 0.84439 0.51218 0.44688 0.0
C526 C 0.87999 0.45665 0.49438 0.0
C527 C 0.77334 0.44867 0.44167 0.0
H528 H 0.81913 0.32746 0.45079 0.0
H529 H 0.75276 0.3303 0.50075 0.0
H530 H 0.83318 0.41946 0.42863 0.0
H531 H 0.8774 0.43007 0.44459 0.0
H532 H 0.85129 0.38276 0.42956 0.0
H533 H 0.76265 0.39584 0.51312 0.0
H534 H 0.78896 0.44251 0.49936 0.0
H535 H 0.73679 0.40412 0.49196 0.0
H536 H 0.92398 0.53147 0.48033 0.0
H537 H 0.83629 0.52582 0.43455 0.0
H538 H 0.88405 0.43151 0.48785 0.0
H539 H 0.85613 0.44266 0.50558 0.0
H540 H 0.90987 0.47972 0.50216 0.0
H541 H 0.77381 0.4284 0.42966 0.0
H542 H 0.76443 0.47039 0.43483 0.0
H543 H 0.74932 0.42857 0.45199 0.0
C544 C 0.53424 0.76603 0.8525 0.0
C545 C 0.56769 0.77826 0.84012 0.0
C546 C 0.49918 0.76896 0.84634 0.0
C547 C 0.49851 0.78624 0.82778 0.0
C548 C 0.53312 0.80078 0.81576 0.0
C549 C 0.56677 0.79594 0.82189 0.0
C550 C 0.46261 0.75259 0.85944 0.0
C551 C 0.53433 0.82064 0.79608 0.0
C552 C 0.41097 0.77624 0.79379 0.0
C553 C 0.41608 0.8159 0.79656 0.0
C554 C 0.43376 0.7633 0.80597 0.0
C555 C 0.4629 0.79117 0.82079 0.0
C556 C 0.46422 0.82894 0.8252 0.0
C557 C 0.44044 0.84057 0.81319 0.0
C558 C 0.42947 0.72143 0.80189 0.0
C559 C 0.4953 0.86015 0.84051 0.0
H560 H 0.53476 0.75286 0.86674 0.0
H561 H 0.59165 0.8046 0.81188 0.0
H562 H 0.4614 0.77888 0.86653 0.0
H563 H 0.43295 0.73382 0.85049 0.0
H564 H 0.46471 0.73316 0.87139 0.0
H565 H 0.5648 0.8329 0.78925 0.0
H566 H 0.50975 0.79749 0.7855 0.0
H567 H 0.52812 0.84663 0.79809 0.0
H568 H 0.39142 0.75658 0.78132 0.0
H569 H 0.4449 0.87132 0.81567 0.0
H570 H 0.42305 0.70418 0.81586 0.0
H571 H 0.459 0.72527 0.79659 0.0
H572 H 0.404 0.7026 0.79058 0.0
H573 H 0.49834 0.84478 0.85399 0.0
H574 H 0.48662 0.88348 0.84499 0.0
H575 H 0.52631 0.87685 0.83408 0.0
C576 C 0.86383 0.48546 0.15857 0.0
C577 C 0.87134 0.52645 0.15916 0.0
C578 C 0.824 0.45198 0.15333 0.0
C579 C 0.79131 0.45972 0.14847 0.0
C580 C 0.79779 0.50043 0.15078 0.0
C581 C 0.83783 0.53339 0.15604 0.0
C582 C 0.81736 0.40868 0.15154 0.0
C583 C 0.76302 0.50953 0.14642 0.0
C584 C 0.71053 0.40381 0.10693 0.0
C585 C 0.67434 0.38217 0.1175 0.0
C586 C 0.74968 0.42597 0.11692 0.0
C587 C 0.75256 0.42707 0.13795 0.0
C588 C 0.71724 0.40051 0.14851 0.0
C589 C 0.67861 0.37729 0.13802 0.0
C590 C 0.78724 0.45197 0.10502 0.0
C591 C 0.71873 0.40002 0.17093 0.0
H592 H 0.8895 0.4797 0.16096 0.0
H593 H 0.84325 0.56484 0.15696 0.0
H594 H 0.84438 0.40723 0.15796 0.0
H595 H 0.78935 0.38636 0.15924 0.0
H596 H 0.81229 0.39852 0.13564 0.0
H597 H 0.77158 0.54145 0.15147 0.0
H598 H 0.7553 0.50627 0.13016 0.0
H599 H 0.73458 0.48691 0.15377 0.0
H600 H 0.70831 0.4075 0.09107 0.0
H601 H 0.65112 0.35896 0.14627 0.0
H602 H 0.81408 0.44884 0.11053 0.0
H603 H 0.79636 0.4852 0.10675 0.0
H604 H 0.78095 0.44307 0.08893 0.0
H605 H 0.74984 0.40784 0.17739 0.0
H606 H 0.69518 0.36919 0.17618 0.0
H607 H 0.7113 0.42342 0.17672 0.0
C608 C 0.36094 0.82102 0.49403 0.0
C609 C 0.39014 0.84606 0.5091 0.0
C610 C 0.33543 0.77843 0.49624 0.0
C611 C 0.34007 0.75997 0.51384 0.0
C612 C 0.37206 0.78441 0.52837 0.0
C613 C 0.39646 0.82743 0.52595 0.0
C614 C 0.302 0.75389 0.48008 0.0
C615 C 0.37989 0.7661 0.54684 0.0
C616 C 0.23205 0.67941 0.51897 0.0
C617 C 0.22965 0.65131 0.50421 0.0
C618 C 0.27058 0.71238 0.52594 0.0
C619 C 0.30697 0.71713 0.51773 0.0
C620 C 0.3051 0.68361 0.50685 0.0
C621 C 0.26607 0.65087 0.49995 0.0
C622 C 0.27158 0.74606 0.53896 0.0
C623 C 0.34396 0.68571 0.49979 0.0
H624 H 0.3573 0.83497 0.48057 0.0
H625 H 0.41952 0.8465 0.53756 0.0
H626 H 0.30593 0.72838 0.47403 0.0
H627 H 0.27078 0.73981 0.48624 0.0
H628 H 0.30268 0.7734 0.46752 0.0
H629 H 0.41387 0.77928 0.54986 0.0
H630 H 0.36817 0.77491 0.5598 0.0
H631 H 0.36474 0.73175 0.54572 0.0
H632 H 0.20431 0.6796 0.52307 0.0
H633 H 0.26446 0.62775 0.4895 0.0
H634 H 0.27671 0.77268 0.52972 0.0
H635 H 0.29749 0.75745 0.55045 0.0
H636 H 0.24198 0.73495 0.54648 0.0
H637 H 0.35179 0.70169 0.48543 0.0
H638 H 0.33931 0.65406 0.49736 0.0
H639 H 0.37068 0.70349 0.51067 0.0
C640 C 0.61944 0.33286 0.86326 0.0
C641 C 0.58381 0.33624 0.86514 0.0
C642 C 0.61568 0.29373 0.86055 0.0
C643 C 0.57554 0.25816 0.85957 0.0
C644 C 0.5415 0.26116 0.86612 0.0
C645 C 0.54602 0.30053 0.86882 0.0
C646 C 0.65333 0.29114 0.85535 0.0
C647 C 0.49863 0.22346 0.86659 0.0
C648 C 0.54323 0.19329 0.81203 0.0
C649 C 0.53603 0.15498 0.81882 0.0
C650 C 0.55822 0.22765 0.8251 0.0
C651 C 0.56652 0.22357 0.84551 0.0
C652 C 0.56171 0.18557 0.85223 0.0
C653 C 0.54603 0.15146 0.83879 0.0
C654 C 0.56314 0.26772 0.81713 0.0
C655 C 0.57131 0.17996 0.8736 0.0
H656 H 0.6492 0.36059 0.86137 0.0
H657 H 0.51848 0.30281 0.8709 0.0
H658 H 0.65085 0.26165 0.86037 0.0
H659 H 0.65559 0.29201 0.83896 0.0
H660 H 0.68234 0.31776 0.86213 0.0
H661 H 0.4777 0.22978 0.87539 0.0
H662 H 0.48477 0.21425 0.85116 0.0
H663 H 0.50024 0.19692 0.87301 0.0
H664 H 0.53536 0.19592 0.79662 0.0
H665 H 0.54112 0.12187 0.84396 0.0
H666 H 0.5955 0.29346 0.8202 0.0
H667 H 0.54213 0.27598 0.8246 0.0
H668 H 0.55587 0.26557 0.80084 0.0
H669 H 0.59358 0.20983 0.88142 0.0
H670 H 0.58435 0.15885 0.87446 0.0
H671 H 0.54204 0.16524 0.88157 0.0
C672 C 0.58535 0.93423 0.50394 0.0
C673 C 0.61779 0.96955 0.49527 0.0
C674 C 0.58543 0.89587 0.50598 0.0
C675 C 0.61822 0.89071 0.49879 0.0
C676 C 0.65053 0.92593 0.48956 0.0
C677 C 0.65024 0.96434 0.4882 0.0
C678 C 0.55046 0.86088 0.51638 0.0
C679 C 0.68586 0.92313 0.48101 0.0
C680 C 0.64287 0.80921 0.52295 0.0
C681 C 0.62098 0.77257 0.51066 0.0
C682 C 0.64218 0.84664 0.51926 0.0
C683 C 0.6202 0.85008 0.50222 0.0
C684 C 0.59986 0.81417 0.48902 0.0
C685 C 0.60006 0.77631 0.49342 0.0
C686 C 0.66399 0.88233 0.53428 0.0
C687 C 0.57683 0.81534 0.47031 0.0
H688 H 0.55988 0.93675 0.50964 0.0
H689 H 0.67562 0.99043 0.48132 0.0
H690 H 0.53459 0.8328 0.50641 0.0
H691 H 0.56323 0.85276 0.52971 0.0
H692 H 0.52705 0.86896 0.52109 0.0
H693 H 0.70624 0.95093 0.47249 0.0
H694 H 0.70507 0.91994 0.49317 0.0
H695 H 0.67345 0.89509 0.47106 0.0
H696 H 0.65989 0.80825 0.53622 0.0
H697 H 0.58252 0.74917 0.48363 0.0
H698 H 0.64124 0.89012 0.5402 0.0
H699 H 0.6879 0.91036 0.52708 0.0
H700 H 0.67929 0.87519 0.54695 0.0
H701 H 0.54826 0.81555 0.4742 0.0
H702 H 0.56774 0.78812 0.46017 0.0
H703 H 0.59631 0.84422 0.46229 0.0
C704 C 0.77174 0.62021 0.83741 0.0
C705 C 0.73533 0.58766 0.82762 0.0
C706 C 0.81032 0.62008 0.83922 0.0
C707 C 0.81431 0.58691 0.83086 0.0
C708 C 0.77784 0.55433 0.82068 0.0
C709 C 0.73951 0.55493 0.81934 0.0
C710 C 0.84697 0.65548 0.85054 0.0
C711 C 0.77912 0.51825 0.81114 0.0
C712 C 0.92618 0.60225 0.82342 0.0
C713 C 0.9333 0.58262 0.83987 0.0
C714 C 0.88828 0.60356 0.82019 0.0
C715 C 0.85542 0.58518 0.83365 0.0
C716 C 0.86213 0.56476 0.85 0.0
C717 C 0.89976 0.56331 0.85268 0.0
C718 C 0.88355 0.62515 0.80226 0.0
C719 C 0.82936 0.54446 0.86503 0.0
H720 H 0.77002 0.64586 0.84406 0.0
H721 H 0.7125 0.52932 0.81167 0.0
H722 H 0.85659 0.64342 0.86352 0.0
H723 H 0.87384 0.67043 0.84093 0.0
H724 H 0.83986 0.67941 0.85592 0.0
H725 H 0.7496 0.49672 0.80262 0.0
H726 H 0.80507 0.52979 0.80097 0.0
H727 H 0.78507 0.50056 0.82275 0.0
H728 H 0.95067 0.61751 0.81315 0.0
H729 H 0.90253 0.54644 0.86512 0.0
H730 H 0.88086 0.65221 0.80712 0.0
H731 H 0.8545 0.60377 0.79341 0.0
H732 H 0.91025 0.63614 0.79255 0.0
H733 H 0.82235 0.56762 0.87154 0.0
H734 H 0.83911 0.53082 0.87729 0.0
H735 H 0.80007 0.51951 0.85763 0.0
C736 C 0.27733 0.71551 0.15706 0.0
C737 C 0.23959 0.713 0.16213 0.0
C738 C 0.31651 0.7537 0.15824 0.0
C739 C 0.31976 0.79173 0.16506 0.0
C740 C 0.28178 0.78935 0.17023 0.0
C741 C 0.24289 0.75089 0.16856 0.0
C742 C 0.35478 0.75321 0.15215 0.0
C743 C 0.28225 0.82768 0.17798 0.0
C744 C 0.42678 0.88023 0.18848 0.0
C745 C 0.44286 0.91147 0.17403 0.0
C746 C 0.38774 0.84244 0.1858 0.0
C747 C 0.36264 0.83296 0.16782 0.0
C748 C 0.37906 0.86333 0.15279 0.0
C749 C 0.41809 0.90159 0.15604 0.0
C750 C 0.37307 0.81253 0.20259 0.0
C751 C 0.35505 0.8555 0.13311 0.0
H752 H 0.27637 0.68733 0.152 0.0
H753 H 0.21486 0.75049 0.17268 0.0
H754 H 0.37078 0.77709 0.14094 0.0
H755 H 0.37696 0.76112 0.16521 0.0
H756 H 0.34736 0.72245 0.14583 0.0
H757 H 0.25068 0.82159 0.18123 0.0
H758 H 0.30257 0.83965 0.19181 0.0
H759 H 0.29549 0.85249 0.16697 0.0
H760 H 0.44489 0.88493 0.20225 0.0
H761 H 0.42877 0.92415 0.14445 0.0
H762 H 0.36958 0.78239 0.19769 0.0
H763 H 0.34203 0.80639 0.20684 0.0
H764 H 0.39485 0.82445 0.21596 0.0
H765 H 0.34792 0.8251 0.12648 0.0
H766 H 0.37236 0.88016 0.1224 0.0
H767 H 0.32492 0.85387 0.1354 0.0
C768 C 0.58375 0.21206 0.48475 0.0
C769 C 0.61456 0.20594 0.49469 0.0
C770 C 0.58333 0.25038 0.48625 0.0
C771 C 0.61413 0.28484 0.49822 0.0
C772 C 0.6451 0.2787 0.5084 0.0
C773 C 0.64524 0.24031 0.50638 0.0
C774 C 0.54917 0.25373 0.47507 0.0
C775 C 0.67782 0.31259 0.52206 0.0
C776 C 0.63319 0.39856 0.49081 0.0
C777 C 0.61291 0.40498 0.50662 0.0
C778 C 0.63368 0.36038 0.48783 0.0
C779 C 0.61311 0.32623 0.50072 0.0
C780 C 0.59169 0.33216 0.5163 0.0
C781 C 0.59184 0.37046 0.51898 0.0
C782 C 0.65629 0.3566 0.47063 0.0
C783 C 0.56827 0.29769 0.53041 0.0
H784 H 0.55958 0.18662 0.47563 0.0
H785 H 0.6693 0.23704 0.5144 0.0
H786 H 0.53112 0.26049 0.48565 0.0
H787 H 0.56287 0.27995 0.46481 0.0
H788 H 0.52751 0.22487 0.46631 0.0
H789 H 0.6913 0.34285 0.51472 0.0
H790 H 0.66329 0.31535 0.53558 0.0
H791 H 0.70312 0.30633 0.52675 0.0
H792 H 0.64972 0.42384 0.48089 0.0
H793 H 0.57477 0.37308 0.53098 0.0
H794 H 0.63325 0.3351 0.45904 0.0
H795 H 0.67597 0.34326 0.47546 0.0
H796 H 0.67611 0.38701 0.46385 0.0
H797 H 0.54498 0.26914 0.52195 0.0
H798 H 0.55197 0.30598 0.5414 0.0
H799 H 0.5901 0.29017 0.53859 0.0
C800 C 0.45619 0.54892 0.82468 0.0
C801 C 0.49555 0.58545 0.82758 0.0
C802 C 0.41762 0.54855 0.82644 0.0
C803 C 0.41679 0.58525 0.83205 0.0
C804 C 0.45654 0.62222 0.83485 0.0
C805 C 0.4945 0.62195 0.8323 0.0
C806 C 0.37739 0.50837 0.8222 0.0
C807 C 0.46033 0.66293 0.84105 0.0
C808 C 0.31607 0.59663 0.82721 0.0
C809 C 0.2992 0.58577 0.84615 0.0
C810 C 0.35302 0.59567 0.82222 0.0
C811 C 0.3752 0.58419 0.83637 0.0
C812 C 0.35781 0.57258 0.85525 0.0
C813 C 0.32047 0.5724 0.85955 0.0
C814 C 0.36857 0.6072 0.80166 0.0
C815 C 0.37975 0.56179 0.87149 0.0
H816 H 0.45536 0.52018 0.82083 0.0
H817 H 0.52377 0.65072 0.83454 0.0
H818 H 0.36148 0.49647 0.83622 0.0
H819 H 0.35619 0.51364 0.81208 0.0
H820 H 0.38244 0.48414 0.81534 0.0
H821 H 0.47814 0.6736 0.85561 0.0
H822 H 0.4784 0.6866 0.83007 0.0
H823 H 0.43006 0.66147 0.84242 0.0
H824 H 0.3011 0.60697 0.81636 0.0
H825 H 0.30829 0.56232 0.87405 0.0
H826 H 0.36525 0.57936 0.79374 0.0
H827 H 0.40216 0.63091 0.80252 0.0
H828 H 0.3512 0.6193 0.79284 0.0
H829 H 0.38154 0.53411 0.86686 0.0
H830 H 0.36386 0.55529 0.88571 0.0
H831 H 0.41215 0.58787 0.87415 0.0
C832 C 0.97058 0.45868 0.14813 0.0
C833 C 1.00489 0.47205 0.16196 0.0
C834 C 0.93275 0.41966 0.14935 0.0
C835 C 0.92667 0.39264 0.16552 0.0
C836 C 0.96172 0.40572 0.17928 0.0
C837 C 0.99971 0.44429 0.17728 0.0
C838 C 0.90047 0.40775 0.13247 0.0
C839 C 0.95936 0.37864 0.1963 0.0
C840 C 0.81807 0.31625 0.18659 0.0
C841 C 0.80504 0.27696 0.17733 0.0
C842 C 0.85623 0.35306 0.18286 0.0
C843 C 0.8839 0.3527 0.16893 0.0
C844 C 0.87061 0.31344 0.15901 0.0
C845 C 0.832 0.27667 0.16322 0.0
C846 C 0.86699 0.39193 0.19485 0.0
C847 C 0.89823 0.3098 0.14441 0.0
H848 H 0.97352 0.47848 0.13583 0.0
H849 H 1.02537 0.4531 0.18813 0.0
H850 H 0.91338 0.40388 0.11859 0.0
H851 H 0.8711 0.3785 0.13475 0.0
H852 H 0.89374 0.43334 0.13004 0.0
H853 H 0.99052 0.38846 0.20348 0.0
H854 H 0.93958 0.38036 0.20769 0.0
H855 H 0.9449 0.34569 0.19108 0.0
H856 H 0.79867 0.31814 0.19764 0.0
H857 H 0.82395 0.24723 0.15607 0.0
H858 H 0.89037 0.42078 0.18797 0.0
H859 H 0.87952 0.39027 0.20986 0.0
H860 H 0.83864 0.39409 0.19692 0.0
H861 H 0.90119 0.32914 0.13143 0.0
H862 H 0.88594 0.27725 0.139 0.0
H863 H 0.92993 0.32177 0.15142 0.0
C864 C 0.15259 0.6251 0.08749 0.0
C865 C 0.1276 0.58861 0.09753 0.0
C866 C 0.15396 0.6248 0.06664 0.0
C867 C 0.1284 0.5874 0.05542 0.0
C868 C 0.10329 0.55035 0.06554 0.0
C869 C 0.10379 0.55126 0.08649 0.0
C870 C 0.1823 0.66471 0.05662 0.0
C871 C 1.0745 0.51011 0.05421 0.0
C872 C 0.09638 0.59956 0.00245 0.0
C873 C 0.11996 0.58831 0.99079 0.0
C874 C 0.09823 0.59847 0.02332 0.0
C875 C 0.12582 0.58775 0.03314 0.0
C876 C 0.15094 0.57788 0.02165 0.0
C877 C 0.14724 0.5776 0.00069 0.0
C878 C 1.07024 0.60851 0.03486 0.0
C879 C 0.1818 0.56762 0.03151 0.0
H880 H 0.17134 0.65397 0.09601 0.0
H881 H 0.08419 0.52307 0.0942 0.0
H882 H 0.20138 0.65954 0.046 0.0
H883 H 0.16346 0.67531 0.04797 0.0
H884 H 0.20343 0.68989 0.06748 0.0
H885 H 1.05785 0.48383 0.06424 0.0
H886 H 1.05113 0.51374 0.04496 0.0
H887 H 0.09222 0.50217 0.04397 0.0
H888 H 1.07624 0.60944 0.99533 0.0
H889 H 0.16545 0.5684 0.99213 0.0
H890 H 0.08927 0.63691 0.04435 0.0
H891 H 1.05165 0.58282 0.04485 0.0
H892 H 1.04856 0.61357 0.02498 0.0
H893 H 0.20295 0.59294 0.04229 0.0
H894 H 0.20083 0.56308 0.02059 0.0
H895 H 0.16517 0.53887 0.04 0.0
C896 C 0.66244 0.11654 0.42163 0.0
C897 C 0.62358 0.10019 0.43003 0.0
C898 C 0.66586 0.11849 0.40086 0.0
C899 C 0.62966 0.10444 0.38812 0.0
C900 C 0.59054 0.08913 0.39655 0.0
C901 C 0.58793 0.08685 0.41733 0.0
C902 C 0.70807 0.13442 0.39254 0.0
C903 C 0.55123 0.07447 0.38358 0.0
C904 C 0.63795 0.13547 0.33375 0.0
C905 C 0.63026 0.0988 0.32386 0.0
C906 C 0.63862 0.13813 0.35468 0.0
C907 C 0.63215 0.10354 0.36599 0.0
C908 C 0.62608 0.06708 0.35605 0.0
C909 C 0.62488 0.06506 0.33516 0.0
C910 C 0.64468 0.17737 0.36463 0.0
C911 C 0.61983 1.02974 0.36746 0.0
H912 H 0.69018 0.12682 0.43128 0.0
H913 H 0.55781 0.07452 0.42363 0.0
H914 H 0.70831 0.10915 0.38382 0.0
H915 H 0.71472 0.15993 0.38225 0.0
H916 H 0.73342 0.14601 0.4044 0.0
H917 H 0.52372 0.06606 0.39242 0.0
H918 H 0.55501 0.09904 0.37321 0.0
H919 H 0.54501 1.04687 0.37441 0.0
H920 H 0.6418 0.1615 0.32508 0.0
H921 H 0.61934 1.0368 0.32759 0.0
H922 H 0.67054 0.18915 0.37619 0.0
H923 H 0.61614 0.17056 0.37221 0.0
H924 H 0.65152 0.20223 0.35387 0.0
H925 H 0.64556 1.03902 0.37892 0.0
H926 H 0.61836 1.0049 0.35762 0.0
H927 H 0.59047 1.01673 0.37531 0.0
C928 C 0.58612 0.55583 0.75092 0.0
C929 C 0.61385 0.59089 0.76283 0.0
C930 C 0.587 0.55619 0.73007 0.0
C931 C 0.61617 0.59256 0.72071 0.0
C932 C 0.64384 0.62831 0.73258 0.0
C933 C 0.64243 0.62703 0.75347 0.0
C934 C 0.55705 0.51729 0.71805 0.0
C935 C 0.67523 0.6678 0.72322 0.0
C936 C 0.64395 0.57725 0.66869 0.0
C937 C 0.61832 0.58659 0.65644 0.0
C938 C 0.64418 0.57992 0.68955 0.0
C939 C 0.61836 0.59251 0.69855 0.0
C940 C 0.59322 0.60305 0.68631 0.0
C941 C 0.59344 0.59989 0.66546 0.0
C942 C 0.67149 0.5684 0.70197 0.0
C943 C 0.56531 0.61671 0.69526 0.0
H944 H 0.56387 0.52767 0.75789 0.0
H945 H 0.66391 0.65435 0.76246 0.0
H946 H 0.53816 0.52411 0.70716 0.0
H947 H 0.57463 0.50621 0.70947 0.0
H948 H 0.53566 0.49184 0.72752 0.0
H949 H 0.69351 0.69337 0.73442 0.0
H950 H 0.69705 0.66201 0.71492 0.0
H951 H 0.65922 0.67809 0.71234 0.0
H952 H 0.66396 0.56777 0.66196 0.0
H953 H 0.57321 0.60681 0.65622 0.0
H954 H 0.65189 0.54123 0.711 0.0
H955 H 0.69237 0.59442 0.71247 0.0
H956 H 0.69083 0.56059 0.69274 0.0
H957 H 0.54106 0.59088 0.70354 0.0
H958 H 0.54972 0.62638 0.6838 0.0
H959 H 0.58356 0.64304 0.70606 0.0
C960 C 0.58519 0.08549 0.56446 0.0
C961 C 0.60793 0.0721 0.55368 0.0
C962 C 0.57784 0.07602 0.58449 0.0
C963 C 0.59293 1.05186 0.59389 0.0
C964 C 0.61615 1.0384 0.58312 0.0
C965 C 0.62374 1.04905 0.56314 0.0
C966 C 0.55359 0.09163 0.59556 0.0
C967 C 0.63211 1.01203 0.59257 0.0
C968 C 0.59926 0.06099 0.65011 0.0
C969 C 0.56018 1.02799 0.65472 0.0
C970 C 0.61131 0.06795 0.63043 0.0
C971 C 0.58395 1.04082 0.61499 0.0
C972 C 0.54581 1.00571 0.61967 0.0
C973 C 0.53424 0.99985 0.63948 0.0
C974 C 0.65218 0.10582 0.62606 0.0
C975 C 0.51608 0.9757 0.60363 0.0
H976 H 0.5731 0.10349 0.55721 0.0
H977 H 0.64096 1.03828 0.55475 0.0
H978 H 0.52452 0.06497 0.6006 0.0
H979 H 0.57208 0.11016 0.60901 0.0
H980 H 0.54525 0.1112 0.58625 0.0
H981 H 0.65033 1.00476 0.58229 0.0
H982 H 0.65204 1.02813 0.60613 0.0
H983 H 0.60555 0.98242 0.59728 0.0
H984 H 0.61997 0.08228 0.66187 0.0
H985 H 0.50395 0.97436 0.64284 0.0
H986 H 0.64607 0.12841 0.61809 0.0
H987 H 0.67006 0.09729 0.61622 0.0
H988 H 0.6717 0.12142 0.63982 0.0
H989 H 0.50198 0.99096 0.59474 0.0
H990 H 0.49063 0.94717 0.60989 0.0
H991 H 0.53287 0.96662 0.59333 0.0
C992 C 0.62941 0.55761 0.89689 0.0
C993 C 0.60969 0.57549 0.88605 0.0
C994 C 0.62222 0.549 0.91702 0.0
C995 C 0.59367 0.55739 0.92631 0.0
C996 C 0.57388 0.57577 0.91545 0.0
C997 C 0.58263 0.58518 0.89547 0.0
C998 C 0.64478 0.53048 0.92826 0.0
C999 C 0.54252 0.58423 0.92474 0.0
C1000 C 0.54488 0.49447 0.9716 0.0
C1001 C 0.56698 0.52372 0.98704 0.0
C1002 C 0.55257 0.50533 0.95169 0.0
C1003 C 0.58389 0.54604 0.94728 0.0
C1004 C 0.60652 0.57555 0.9629 0.0
C1005 C 0.59738 0.56414 0.98264 0.0
C1006 C 0.52723 0.4733 0.93539 0.0
C1007 C 0.64088 0.61886 0.95879 0.0
H1008 H 0.65052 0.55033 0.88959 0.0
H1009 H 0.56705 0.59864 0.887 0.0
H1010 H 0.66096 0.54944 0.94198 0.0
H1011 H 0.6221 0.4988 0.93289 0.0
H1012 H 0.66801 0.52846 0.91921 0.0
H1013 H 0.53018 0.59898 0.91431 0.0
H1014 H 0.51609 0.55467 0.92959 0.0
H1015 H 0.55683 0.60483 0.93818 0.0
H1016 H 0.52128 0.46327 0.97515 0.0
H1017 H 0.61463 0.58652 0.99471 0.0
H1018 H 0.54783 0.46649 0.92664 0.0
H1019 H 0.5123 0.4856 0.925 0.0
H1020 H 0.50265 0.44377 0.94132 0.0
H1021 H 0.66522 0.61719 0.95054 0.0
H1022 H 0.65561 0.638 0.97266 0.0
H1023 H 0.6285 0.63483 0.94926 0.0
C1024 C 0.15247 0.59541 0.23201 0.0
C1025 C 0.12566 0.60441 0.22061 0.0
C1026 C 0.15377 0.59746 0.25286 0.0
C1027 C 0.12828 0.60964 0.26247 0.0
C1028 C 0.10177 0.61958 0.251 0.0
C1029 C 0.10045 0.6164 0.23019 0.0
C1030 C 0.18178 0.58581 0.26458 0.0
C1031 C 1.07466 0.63337 0.26073 0.0
C1032 C 0.09768 0.57776 0.3152 0.0
C1033 C 0.12565 0.61399 0.32617 0.0
C1034 C 0.09895 0.57558 0.29448 0.0
C1035 C 0.12833 0.61083 0.28452 0.0
C1036 C 0.15689 0.64744 0.29558 0.0
C1037 C 0.15548 0.64842 0.31636 0.0
C1038 C 1.06859 0.53571 0.28324 0.0
C1039 C 0.18814 0.68585 0.28542 0.0
H1040 H 0.17181 0.58584 0.22464 0.0
H1041 H 0.0799 0.62366 0.22141 0.0
H1042 H 0.20382 0.61201 0.27472 0.0
H1043 H 0.16285 0.55907 0.27398 0.0
H1044 H 0.19992 0.57734 0.25483 0.0
H1045 H 1.05733 0.64189 0.24969 0.0
H1046 H 1.05188 0.60812 0.26982 0.0
H1047 H 0.094 0.66057 0.27093 0.0
H1048 H 1.07483 0.55107 0.32289 0.0
H1049 H 0.17687 0.6765 0.32492 0.0
H1050 H 0.08559 0.52512 0.27391 0.0
H1051 H 1.04757 0.54112 0.2731 0.0
H1052 H 1.0493 0.51046 0.29333 0.0
H1053 H 0.20787 0.67854 0.27626 0.0
H1054 H 0.20863 0.71153 0.2962 0.0
H1055 H 0.17162 0.69677 0.27522 0.0
loop_
_geom_bond_atom_site_label_1
_geom_bond_atom_site_label_2
_geom_bond_distance
_geom_bond_site_symmetry_2
_ccdc_geom_bond_type
Tb0 C10 2.825 . S
Tb0 O11 2.347 . S
Tb0 O14 2.366 . S
Tb0 O19 2.418 . S
Tb0 O20 2.384 1_455 S
Tb0 O23 2.479 . S
Tb0 O24 2.471 . S
Eu1 O12 2.408 1_655 S
Eu1 O13 2.361 1_655 S
Eu1 O16 2.505 . S
Eu1 O17 2.495 . S
Eu1 O18 2.334 1_655 S
Eu1 O21 2.370 . S
Eu1 C31 2.853 . S
C2 O18 1.259 . S
C2 O19 1.265 . S
C3 O20 1.255 . S
C3 O21 1.265 . S
C4 C6 1.380 . S
C4 C7 1.374 . S
C4 C10 1.507 . S
C5 C6 1.384 . S
C5 C9 1.387 . S
C5 H32 0.930 . S
C6 C4 1.380 . S
C6 C5 1.384 . S
C6 H33 0.931 . S
C7 C4 1.374 . S
C7 C8 1.390 . S
C7 H34 0.930 . S
C8 C7 1.390 . S
C8 C9 1.391 . S
C8 H35 0.930 . S
C9 C5 1.387 . S
C9 C8 1.391 . S
C10 Tb0 2.825 . S
C10 C4 1.507 . S
C10 O23 1.238 . S
C10 O24 1.247 . S
O11 Tb0 2.347 . S
O11 C15 1.259 . S
O12 Eu1 2.408 1_455 S
O12 C15 1.281 . S
O13 Eu1 2.361 1_455 S
O13 C22 1.255 . S
O14 Tb0 2.366 . S
O14 C22 1.265 . S
C15 O11 1.259 . S
C15 O12 1.281 . S
O16 Eu1 2.505 . S
O16 C31 1.238 . S
O17 Eu1 2.495 . S
O17 C31 1.247 . S
O18 Eu1 2.334 1_455 S
O18 C2 1.259 . S
O19 Tb0 2.418 . S
O19 C2 1.265 . S
O20 Tb0 2.384 1_655 S
O20 C3 1.255 . S
O21 Eu1 2.370 . S
O21 C3 1.265 . S
C22 O13 1.255 . S
C22 O14 1.265 . S
O23 Tb0 2.479 . S
O23 C10 1.238 . S
O24 Tb0 2.471 . S
O24 C10 1.247 . S
C25 C28 1.380 . S
C25 C29 1.374 . S
C25 C31 1.507 . S
C26 C27 1.387 . S
C26 C30 1.391 . S
C27 C26 1.387 . S
C27 C28 1.384 . S
C27 H36 0.930 . S
C28 C25 1.380 . S
C28 C27 1.384 . S
C28 H37 0.931 . S
C29 C25 1.374 . S
C29 C30 1.390 . S
C29 H38 0.930 . S
C30 C26 1.391 . S
C30 C29 1.390 . S
C30 H39 0.930 . S
C31 Eu1 2.853 . S
C31 O16 1.238 . S
C31 O17 1.247 . S
C31 C25 1.507 . S
H32 C5 0.930 . S
H33 C6 0.931 . S
H34 C7 0.930 . S
H35 C8 0.930 . S
H36 C27 0.930 . S
H37 C28 0.931 . S
H38 C29 0.930 . S
H39 C30 0.930 . S
Tb40 C50 2.825 . S
Tb40 O51 2.347 . S
Tb40 O54 2.366 . S
Tb40 O59 2.418 . S
Tb40 O60 2.384 1_545 S
Tb40 O63 2.479 . S
Tb40 O64 2.471 . S
Eu41 O52 2.418 . S
Eu41 O53 2.384 . S
Eu41 O56 2.479 1_545 S
Eu41 O57 2.471 1_545 S
Eu41 O58 2.347 . S
Eu41 O61 2.366 1_545 S
Eu41 C71 2.825 1_545 S
C42 O58 1.259 . S
C42 O59 1.265 . S
C43 O60 1.255 . S
C43 O61 1.265 . S
C44 C46 1.380 . S
C44 C47 1.374 . S
C44 C50 1.507 . S
C45 C46 1.384 . S
C45 C49 1.387 . S
C45 H72 0.930 . S
C46 C44 1.380 . S
C46 C45 1.384 . S
C46 H73 0.931 . S
C47 C44 1.374 . S
C47 C48 1.390 . S
C47 H74 0.930 . S
C48 C47 1.390 . S
C48 C49 1.391 . S
C48 H75 0.930 . S
C49 C45 1.387 . S
C49 C48 1.391 . S
C50 Tb40 2.825 . S
C50 C44 1.507 . S
C50 O63 1.238 . S
C50 O64 1.247 . S
O51 Tb40 2.347 . S
O51 C55 1.259 . S
O52 Eu41 2.418 . S
O52 C55 1.265 . S
O53 Eu41 2.384 . S
O53 C62 1.255 . S
O54 Tb40 2.366 . S
O54 C62 1.265 . S
C55 O51 1.259 . S
C55 O52 1.265 . S
O56 Eu41 2.479 1_565 S
O56 C71 1.238 . S
O57 Eu41 2.471 1_565 S
O57 C71 1.247 . S
O58 Eu41 2.347 . S
O58 C42 1.259 . S
O59 Tb40 2.418 . S
O59 C42 1.265 . S
O60 Tb40 2.384 1_565 S
O60 C43 1.255 . S
O61 Eu41 2.366 1_565 S
O61 C43 1.265 . S
C62 O53 1.255 . S
C62 O54 1.265 . S
O63 Tb40 2.479 . S
O63 C50 1.238 . S
O64 Tb40 2.471 . S
O64 C50 1.247 . S
C65 C68 1.380 . S
C65 C69 1.374 . S
C65 C71 1.507 . S
C66 C67 1.387 . S
C66 C70 1.391 . S
C67 C66 1.387 . S
C67 C68 1.384 . S
C67 H76 0.930 . S
C68 C65 1.380 . S
C68 C67 1.384 . S
C68 H77 0.931 . S
C69 C65 1.374 . S
C69 C70 1.390 . S
C69 H78 0.930 . S
C70 C66 1.391 . S
C70 C69 1.390 . S
C70 H79 0.930 . S
C71 Eu41 2.825 1_565 S
C71 O56 1.238 . S
C71 O57 1.247 . S
C71 C65 1.507 . S
H72 C45 0.930 . S
H73 C46 0.931 . S
H74 C47 0.930 . S
H75 C48 0.930 . S
H76 C67 0.930 . S
H77 C68 0.931 . S
H78 C69 0.930 . S
H79 C70 0.930 . S
Tb80 C90 2.825 . S
Tb80 O91 2.347 . S
Tb80 O94 2.366 . S
Tb80 O99 2.418 . S
Tb80 O100 2.384 . S
Tb80 O103 2.479 . S
Tb80 O104 2.471 . S
Eu81 O92 2.418 . S
Eu81 O93 2.384 . S
Eu81 O96 2.479 . S
Eu81 O97 2.471 . S
Eu81 O98 2.347 . S
Eu81 O101 2.366 . S
Eu81 C111 2.825 . S
C82 O98 1.259 . S
C82 O99 1.265 . S
C83 O100 1.255 . S
C83 O101 1.265 . S
C84 C86 1.380 . S
C84 C87 1.374 . S
C84 C90 1.507 . S
C85 C86 1.384 . S
C85 C89 1.387 . S
C85 H112 0.930 . S
C86 C84 1.380 . S
C86 C85 1.384 . S
C86 H113 0.931 . S
C87 C84 1.374 . S
C87 C88 1.390 . S
C87 H114 0.930 . S
C88 C87 1.390 . S
C88 C89 1.391 . S
C88 H115 0.930 . S
C89 C85 1.387 . S
C89 C88 1.391 . S
C90 Tb80 2.825 . S
C90 C84 1.507 . S
C90 O103 1.238 . S
C90 O104 1.247 . S
O91 Tb80 2.347 . S
O91 C95 1.259 . S
O92 Eu81 2.418 . S
O92 C95 1.265 . S
O93 Eu81 2.384 . S
O93 C102 1.255 . S
O94 Tb80 2.366 . S
O94 C102 1.265 . S
C95 O91 1.259 . S
C95 O92 1.265 . S
O96 Eu81 2.479 . S
O96 C111 1.238 . S
O97 Eu81 2.471 . S
O97 C111 1.247 . S
O98 Eu81 2.347 . S
O98 C82 1.259 . S
O99 Tb80 2.418 . S
O99 C82 1.265 . S
O100 Tb80 2.384 . S
O100 C83 1.255 . S
O101 Eu81 2.366 . S
O101 C83 1.265 . S
C102 O93 1.255 . S
C102 O94 1.265 . S
O103 Tb80 2.479 . S
O103 C90 1.238 . S
O104 Tb80 2.471 . S
O104 C90 1.247 . S
C105 C108 1.380 . S
C105 C109 1.374 . S
C105 C111 1.507 . S
C106 C107 1.387 . S
C106 C110 1.391 . S
C107 C106 1.387 . S
C107 C108 1.384 . S
C107 H116 0.930 . S
C108 C105 1.380 . S
C108 C107 1.384 . S
C108 H117 0.931 . S
C109 C105 1.374 . S
C109 C110 1.390 . S
C109 H118 0.930 . S
C110 C106 1.391 . S
C110 C109 1.390 . S
C110 H119 0.930 . S
C111 Eu81 2.825 . S
C111 O96 1.238 . S
C111 O97 1.247 . S
C111 C105 1.507 . S
H112 C85 0.930 . S
H113 C86 0.931 . S
H114 C87 0.930 . S
H115 C88 0.930 . S
H116 C107 0.930 . S
H117 C108 0.931 . S
H118 C109 0.930 . S
H119 C110 0.930 . S
C120 C121 1.391 . S
C120 C124 1.391 . S
C120 H162 0.948 . S
C121 C120 1.391 . S
C121 C122 1.391 . S
C122 C121 1.391 . S
C122 H178 0.947 . S
C122 C179 1.392 . S
C123 C124 1.391 . S
C123 C127 1.397 . S
C123 C179 1.419 . S
C124 C120 1.391 . S
C124 C123 1.391 . S
C124 C125 1.399 . S
C125 C124 1.399 . S
C125 C128 1.396 . S
C125 C137 1.453 . S
C125 C138 1.684 . S
H126 C150 0.948 . S
C127 C123 1.397 . S
C127 C128 1.394 . S
C127 C146 1.723 . S
C128 C125 1.396 . S
C128 C127 1.394 . S
C128 C158 1.723 1_545 S
H129 C152 0.947 . S
H130 C153 0.948 . S
H131 C159 0.982 . S
H132 C160 0.979 . S
H133 C160 0.980 . S
H134 C160 0.983 . S
H135 C159 0.979 . S
H136 C159 0.977 . S
C137 C125 1.453 . S
C137 H166 0.982 . S
C137 H167 0.979 . S
C137 H168 0.977 1_545 S
C138 C125 1.684 . S
C138 H163 0.979 . S
C138 H164 0.980 . S
C138 H165 0.983 . S
C139 C140 1.391 . S
C139 C144 1.391 . S
C139 H169 0.948 . S
C140 C139 1.391 . S
C140 C141 1.391 1_545 S
C141 C140 1.391 1_565 S
C141 C142 1.392 . S
C141 H170 0.947 . S
C142 C141 1.392 . S
C142 C143 1.419 1_565 S
C142 H171 0.948 . S
C143 C142 1.419 1_545 S
C143 C144 1.391 . S
C143 C147 1.397 . S
C144 C139 1.391 . S
C144 C143 1.391 . S
C144 C145 1.399 . S
C145 C144 1.399 . S
C145 C146 1.396 . S
C145 C148 1.453 . S
C145 C149 1.684 . S
C146 C127 1.723 . S
C146 C145 1.396 . S
C146 C147 1.394 . S
C147 C143 1.397 . S
C147 C146 1.394 . S
C147 C157 1.723 1_545 S
C148 C145 1.453 . S
C148 H172 0.982 . S
C148 H173 0.979 . S
C148 H174 0.977 . S
C149 C145 1.684 . S
C149 H175 0.979 . S
C149 H176 0.980 . S
C149 H177 0.983 . S
C150 H126 0.948 . S
C150 C151 1.391 . S
C150 C155 1.391 . S
C151 C150 1.391 . S
C151 C152 1.391 . S
C152 H129 0.947 . S
C152 C151 1.391 . S
C152 C153 1.392 . S
C153 H130 0.948 . S
C153 C152 1.392 . S
C153 C154 1.419 . S
C154 C153 1.419 . S
C154 C155 1.391 . S
C154 C158 1.397 . S
C155 C150 1.391 . S
C155 C154 1.391 . S
C155 C156 1.399 . S
C156 C155 1.399 . S
C156 C157 1.396 . S
C156 C159 1.453 . S
C156 C160 1.684 . S
C157 C147 1.723 1_565 S
C157 C156 1.396 . S
C157 C158 1.394 . S
C158 C128 1.723 1_565 S
C158 C154 1.397 . S
C158 C157 1.394 . S
C159 H131 0.982 . S
C159 H135 0.979 . S
C159 H136 0.977 . S
C159 C156 1.453 . S
C160 H132 0.979 . S
C160 H133 0.980 . S
C160 H134 0.983 . S
C160 C156 1.684 . S
H161 C179 0.948 . S
H162 C120 0.948 . S
H163 C138 0.979 . S
H164 C138 0.980 . S
H165 C138 0.983 . S
H166 C137 0.982 . S
H167 C137 0.979 . S
H168 C137 0.977 1_565 S
H169 C139 0.948 . S
H170 C141 0.947 . S
H171 C142 0.948 . S
H172 C148 0.982 . S
H173 C148 0.979 . S
H174 C148 0.977 . S
H175 C149 0.979 . S
H176 C149 0.980 . S
H177 C149 0.983 . S
H178 C122 0.947 . S
C179 C122 1.392 . S
C179 C123 1.419 . S
C179 H161 0.948 . S
C180 C181 1.391 . S
C180 C184 1.391 . S
C180 H222 0.948 . S
C181 C180 1.391 . S
C181 C182 1.391 . S
C182 C181 1.391 . S
C182 H238 0.947 . S
C182 C239 1.392 . S
C183 C184 1.391 . S
C183 C187 1.397 . S
C183 C239 1.419 . S
C184 C180 1.391 . S
C184 C183 1.391 . S
C184 C185 1.399 . S
C185 C184 1.399 . S
C185 C188 1.396 . S
C185 C197 1.453 . S
C185 C198 1.684 . S
H186 C210 0.948 . S
C187 C183 1.397 . S
C187 C188 1.394 . S
C187 C206 1.723 . S
C188 C185 1.396 . S
C188 C187 1.394 . S
C188 C218 1.723 . S
H189 C212 0.947 . S
H190 C213 0.948 . S
H191 C219 0.982 . S
H192 C220 0.979 . S
H193 C220 0.980 . S
H194 C220 0.983 . S
H195 C219 0.979 . S
H196 C219 0.977 . S
C197 C185 1.453 . S
C197 H226 0.982 . S
C197 H227 0.979 . S
C197 H228 0.977 . S
C198 C185 1.684 . S
C198 H223 0.979 . S
C198 H224 0.980 . S
C198 H225 0.983 . S
C199 C200 1.391 . S
C199 C204 1.391 . S
C199 H229 0.948 . S
C200 C199 1.391 . S
C200 C201 1.391 . S
C201 C200 1.391 . S
C201 C202 1.392 . S
C201 H230 0.947 . S
C202 C201 1.392 . S
C202 C203 1.419 . S
C202 H231 0.948 . S
C203 C202 1.419 . S
C203 C204 1.391 . S
C203 C207 1.397 . S
C204 C199 1.391 . S
C204 C203 1.391 . S
C204 C205 1.399 . S
C205 C204 1.399 . S
C205 C206 1.396 . S
C205 C208 1.453 . S
C205 C209 1.684 . S
C206 C187 1.723 . S
C206 C205 1.396 . S
C206 C207 1.394 . S
C207 C203 1.397 . S
C207 C206 1.394 . S
C207 C217 1.723 . S
C208 C205 1.453 . S
C208 H232 0.982 . S
C208 H233 0.979 . S
C208 H234 0.977 . S
C209 C205 1.684 . S
C209 H235 0.979 . S
C209 H236 0.980 . S
C209 H237 0.983 . S
C210 H186 0.948 . S
C210 C211 1.391 . S
C210 C215 1.391 . S
C211 C210 1.391 . S
C211 C212 1.391 . S
C212 H189 0.947 . S
C212 C211 1.391 . S
C212 C213 1.392 . S
C213 H190 0.948 . S
C213 C212 1.392 . S
C213 C214 1.419 . S
C214 C213 1.419 . S
C214 C215 1.391 . S
C214 C218 1.397 . S
C215 C210 1.391 . S
C215 C214 1.391 . S
C215 C216 1.399 . S
C216 C215 1.399 . S
C216 C217 1.396 . S
C216 C219 1.453 . S
C216 C220 1.684 . S
C217 C207 1.723 . S
C217 C216 1.396 . S
C217 C218 1.394 . S
C218 C188 1.723 . S
C218 C214 1.397 . S
C218 C217 1.394 . S
C219 H191 0.982 . S
C219 H195 0.979 . S
C219 H196 0.977 . S
C219 C216 1.453 . S
C220 H192 0.979 . S
C220 H193 0.980 . S
C220 H194 0.983 . S
C220 C216 1.684 . S
H221 C239 0.948 . S
H222 C180 0.948 . S
H223 C198 0.979 . S
H224 C198 0.980 . S
H225 C198 0.983 . S
H226 C197 0.982 . S
H227 C197 0.979 . S
H228 C197 0.977 . S
H229 C199 0.948 . S
H230 C201 0.947 . S
H231 C202 0.948 . S
H232 C208 0.982 . S
H233 C208 0.979 . S
H234 C208 0.977 . S
H235 C209 0.979 . S
H236 C209 0.980 . S
H237 C209 0.983 . S
H238 C182 0.947 . S
C239 C182 1.392 . S
C239 C183 1.419 . S
C239 H221 0.948 . S
C240 C241 1.391 . S
C240 C244 1.391 . S
C240 H282 0.948 . S
C241 C240 1.391 . S
C241 C242 1.391 . S
C242 C241 1.391 . S
C242 H298 0.947 . S
C242 C299 1.392 . S
C243 C244 1.391 . S
C243 C247 1.397 . S
C243 C299 1.419 . S
C244 C240 1.391 . S
C244 C243 1.391 . S
C244 C245 1.399 . S
C245 C244 1.399 . S
C245 C248 1.396 . S
C245 C257 1.453 . S
C245 C258 1.684 . S
H246 C270 0.948 . S
C247 C243 1.397 . S
C247 C248 1.394 . S
C247 C266 1.723 . S
C248 C245 1.396 . S
C248 C247 1.394 . S
C248 C278 1.723 1_455 S
H249 C272 0.947 . S
H250 C273 0.948 . S
H251 C279 0.982 . S
H252 C280 0.979 . S
H253 C280 0.980 . S
H254 C280 0.983 . S
H255 C279 0.979 . S
H256 C279 0.977 . S
C257 C245 1.453 . S
C257 H286 0.982 . S
C257 H287 0.979 . S
C257 H288 0.961 1_455 S
C258 C245 1.684 . S
C258 H283 0.979 . S
C258 H284 0.980 . S
C258 H285 0.983 . S
C259 C260 1.391 . S
C259 C264 1.391 . S
C259 H289 0.948 . S
C260 C259 1.391 . S
C260 C261 1.391 1_455 S
C261 C260 1.391 1_655 S
C261 C262 1.392 . S
C261 H290 0.947 . S
C262 C261 1.392 . S
C262 C263 1.419 1_655 S
C262 H291 0.948 . S
C263 C262 1.419 1_455 S
C263 C264 1.391 . S
C263 C267 1.397 . S
C264 C259 1.391 . S
C264 C263 1.391 . S
C264 C265 1.399 . S
C265 C264 1.399 . S
C265 C266 1.396 . S
C265 C268 1.453 . S
C265 C269 1.684 . S
C266 C247 1.723 . S
C266 C265 1.396 . S
C266 C267 1.394 . S
C267 C263 1.397 . S
C267 C266 1.394 . S
C267 C277 1.723 1_455 S
C268 C265 1.453 . S
C268 H292 0.982 . S
C268 H293 0.979 . S
C268 H294 0.977 . S
C269 C265 1.684 . S
C269 H295 0.979 . S
C269 H296 0.980 . S
C269 H297 0.983 . S
C270 H246 0.948 . S
C270 C271 1.391 . S
C270 C275 1.391 . S
C271 C270 1.391 . S
C271 C272 1.391 . S
C272 H249 0.947 . S
C272 C271 1.391 . S
C272 C273 1.392 . S
C273 H250 0.948 . S
C273 C272 1.392 . S
C273 C274 1.419 . S
C274 C273 1.419 . S
C274 C275 1.391 . S
C274 C278 1.397 . S
C275 C270 1.391 . S
C275 C274 1.391 . S
C275 C276 1.399 . S
C276 C275 1.399 . S
C276 C277 1.396 . S
C276 C279 1.453 . S
C276 C280 1.684 . S
C277 C267 1.723 1_655 S
C277 C276 1.396 . S
C277 C278 1.394 . S
C278 C248 1.723 1_655 S
C278 C274 1.397 . S
C278 C277 1.394 . S
C279 H251 0.982 . S
C279 H255 0.979 . S
C279 H256 0.977 . S
C279 C276 1.453 . S
C280 H252 0.979 . S
C280 H253 0.980 . S
C280 H254 0.983 . S
C280 C276 1.684 . S
H281 C299 0.948 . S
H282 C240 0.948 . S
H283 C258 0.979 . S
H284 C258 0.980 . S
H285 C258 0.983 . S
H286 C257 0.982 . S
H287 C257 0.979 . S
H288 C257 0.961 1_655 S
H289 C259 0.948 . S
H290 C261 0.947 . S
H291 C262 0.948 . S
H292 C268 0.982 . S
H293 C268 0.979 . S
H294 C268 0.977 . S
H295 C269 0.979 . S
H296 C269 0.980 . S
H297 C269 0.983 . S
H298 C242 0.947 . S
C299 C242 1.392 . S
C299 C243 1.419 . S
C299 H281 0.948 . S
C300 C301 1.391 . S
C300 C304 1.391 . S
C300 H342 0.948 . S
C301 C300 1.391 . S
C301 C302 1.391 . S
C302 C301 1.391 . S
C302 H358 0.947 . S
C302 C359 1.392 . S
C303 C304 1.391 . S
C303 C307 1.397 . S
C303 C359 1.419 . S
C304 C300 1.391 . S
C304 C303 1.391 . S
C304 C305 1.399 . S
C305 C304 1.399 . S
C305 C308 1.396 . S
C305 C317 1.453 1_655 S
C305 C318 1.684 . S
H306 C330 0.948 . S
C307 C303 1.397 . S
C307 C308 1.394 . S
C307 C326 1.723 . S
C308 C305 1.396 . S
C308 C307 1.394 . S
C308 C338 1.723 1_655 S
H309 C332 0.947 . S
H310 C333 0.948 . S
H311 C339 0.982 . S
H312 C340 0.979 . S
H313 C340 0.980 . S
H314 C340 0.983 . S
H315 C339 0.979 . S
H316 C339 0.977 . S
C317 C305 1.453 1_455 S
C317 H346 0.982 . S
C317 H347 0.979 1_455 S
C317 H348 0.977 . S
C318 C305 1.684 . S
C318 H343 0.979 . S
C318 H344 0.991 . S
C318 H345 0.983 . S
C319 C320 1.391 1_655 S
C319 C324 1.391 . S
C319 H349 0.948 . S
C320 C319 1.391 1_455 S
C320 C321 1.391 . S
C321 C320 1.391 . S
C321 C322 1.392 . S
C321 H350 0.947 . S
C322 C321 1.392 . S
C322 C323 1.419 . S
C322 H351 0.948 . S
C323 C322 1.419 . S
C323 C324 1.391 1_455 S
C323 C327 1.397 . S
C324 C319 1.391 . S
C324 C323 1.391 1_655 S
C324 C325 1.399 . S
C325 C324 1.399 . S
C325 C326 1.396 . S
C325 C328 1.453 . S
C325 C329 1.684 . S
C326 C307 1.723 . S
C326 C325 1.396 . S
C326 C327 1.394 1_655 S
C327 C323 1.397 . S
C327 C326 1.394 1_455 S
C327 C337 1.723 . S
C328 C325 1.453 . S
C328 H352 0.982 . S
C328 H353 0.979 . S
C328 H354 0.977 . S
C329 C325 1.684 . S
C329 H355 0.979 . S
C329 H356 0.980 . S
C329 H357 0.983 . S
C330 H306 0.948 . S
C330 C331 1.391 . S
C330 C335 1.391 . S
C331 C330 1.391 . S
C331 C332 1.391 . S
C332 H309 0.947 . S
C332 C331 1.391 . S
C332 C333 1.392 . S
C333 H310 0.948 . S
C333 C332 1.392 . S
C333 C334 1.419 . S
C334 C333 1.419 . S
C334 C335 1.391 . S
C334 C338 1.397 . S
C335 C330 1.391 . S
C335 C334 1.391 . S
C335 C336 1.399 . S
C336 C335 1.399 . S
C336 C337 1.396 . S
C336 C339 1.453 . S
C336 C340 1.684 . S
C337 C327 1.723 . S
C337 C336 1.396 . S
C337 C338 1.394 . S
C338 C308 1.723 1_455 S
C338 C334 1.397 . S
C338 C337 1.394 . S
C339 H311 0.982 . S
C339 H315 0.979 . S
C339 H316 0.977 . S
C339 C336 1.453 . S
C340 H312 0.979 . S
C340 H313 0.980 . S
C340 H314 0.983 . S
C340 C336 1.684 . S
H341 C359 0.948 . S
H342 C300 0.948 . S
H343 C318 0.979 . S
H344 C318 0.991 . S
H345 C318 0.983 . S
H346 C317 0.982 . S
H347 C317 0.979 1_655 S
H348 C317 0.977 . S
H349 C319 0.948 . S
H350 C321 0.947 . S
H351 C322 0.948 . S
H352 C328 0.982 . S
H353 C328 0.979 . S
H354 C328 0.977 . S
H355 C329 0.979 . S
H356 C329 0.980 . S
H357 C329 0.983 . S
H358 C302 0.947 . S
C359 C302 1.392 . S
C359 C303 1.419 . S
C359 H341 0.948 . S
C360 C361 1.391 . S
C360 C364 1.391 . S
C360 H402 0.948 . S
C361 C360 1.391 . S
C361 C362 1.391 . S
C362 C361 1.391 . S
C362 H418 0.947 . S
C362 C419 1.392 . S
C363 C364 1.391 . S
C363 C367 1.397 . S
C363 C419 1.419 . S
C364 C360 1.391 . S
C364 C363 1.391 . S
C364 C365 1.399 . S
C365 C364 1.399 . S
C365 C368 1.396 . S
C365 C377 1.453 . S
C365 C378 1.684 . S
H366 C390 0.948 . S
C367 C363 1.397 . S
C367 C368 1.394 . S
C367 C386 1.723 . S
C368 C365 1.396 . S
C368 C367 1.394 . S
C368 C398 1.723 1_565 S
H369 C392 0.947 . S
H370 C393 0.948 . S
H371 C399 0.982 . S
H372 C400 0.979 . S
H373 C400 0.980 . S
H374 C400 0.983 . S
H375 C399 0.979 . S
H376 C399 0.977 . S
C377 C365 1.453 . S
C377 H406 0.982 1_565 S
C377 H407 0.979 . S
C377 H408 0.977 1_565 S
C378 C365 1.684 . S
C378 H403 0.979 . S
C378 H404 0.980 . S
C378 H405 0.983 . S
C379 C380 1.391 1_565 S
C379 C384 1.391 . S
C379 H409 0.948 . S
C380 C379 1.391 1_545 S
C380 C381 1.391 . S
C381 C380 1.391 . S
C381 C382 1.392 . S
C381 H410 0.947 . S
C382 C381 1.392 . S
C382 C383 1.419 . S
C382 H411 0.948 . S
C383 C382 1.419 . S
C383 C384 1.391 1_545 S
C383 C387 1.397 . S
C384 C379 1.391 . S
C384 C383 1.391 1_565 S
C384 C385 1.399 . S
C385 C384 1.399 . S
C385 C386 1.396 . S
C385 C388 1.453 . S
C385 C389 1.684 . S
C386 C367 1.723 . S
C386 C385 1.396 . S
C386 C387 1.394 1_565 S
C387 C383 1.397 . S
C387 C386 1.394 1_545 S
C387 C397 1.723 . S
C388 C385 1.453 . S
C388 H412 0.982 . S
C388 H413 0.979 . S
C388 H414 0.977 . S
C389 C385 1.684 . S
C389 H415 0.979 . S
C389 H416 0.980 . S
C389 H417 0.983 . S
C390 H366 0.948 . S
C390 C391 1.391 . S
C390 C395 1.391 . S
C391 C390 1.391 . S
C391 C392 1.391 . S
C392 H369 0.947 . S
C392 C391 1.391 . S
C392 C393 1.392 . S
C393 H370 0.948 . S
C393 C392 1.392 . S
C393 C394 1.419 . S
C394 C393 1.419 . S
C394 C395 1.391 . S
C394 C398 1.397 . S
C395 C390 1.391 . S
C395 C394 1.391 . S
C395 C396 1.399 . S
C396 C395 1.399 . S
C396 C397 1.396 . S
C396 C399 1.453 . S
C396 C400 1.684 . S
C397 C387 1.723 . S
C397 C396 1.396 . S
C397 C398 1.394 . S
C398 C368 1.723 1_545 S
C398 C394 1.397 . S
C398 C397 1.394 . S
C399 H371 0.982 . S
C399 H375 0.979 . S
C399 H376 0.977 . S
C399 C396 1.453 . S
C400 H372 0.979 . S
C400 H373 0.980 . S
C400 H374 0.983 . S
C400 C396 1.684 . S
H401 C419 0.948 . S
H402 C360 0.948 . S
H403 C378 0.979 . S
H404 C378 0.980 . S
H405 C378 0.983 . S
H406 C377 0.982 1_545 S
H407 C377 0.979 . S
H408 C377 0.977 1_545 S
H409 C379 0.948 . S
H410 C381 0.947 . S
H411 C382 0.948 . S
H412 C388 0.982 . S
H413 C388 0.979 . S
H414 C388 0.977 . S
H415 C389 0.979 . S
H416 C389 0.980 . S
H417 C389 0.983 . S
H418 C362 0.947 . S
C419 C362 1.392 . S
C419 C363 1.419 . S
C419 H401 0.948 . S
C420 C421 1.391 . S
C420 C424 1.391 . S
C420 H462 0.948 . S
C421 C420 1.391 . S
C421 C422 1.391 . S
C422 C421 1.391 . S
C422 H478 0.947 . S
C422 C479 1.392 . S
C423 C424 1.391 . S
C423 C427 1.397 . S
C423 C479 1.419 . S
C424 C420 1.391 . S
C424 C423 1.391 . S
C424 C425 1.399 . S
C425 C424 1.399 . S
C425 C428 1.396 . S
C425 C437 1.453 . S
C425 C438 1.684 . S
H426 C450 0.948 . S
C427 C423 1.397 . S
C427 C428 1.394 . S
C427 C446 1.723 . S
C428 C425 1.396 . S
C428 C427 1.394 . S
C428 C458 1.723 . S
H429 C452 0.947 . S
H430 C453 0.948 . S
H431 C459 0.982 . S
H432 C460 0.979 . S
H433 C460 0.980 . S
H434 C460 0.983 . S
H435 C459 0.979 . S
H436 C459 0.977 . S
C437 C425 1.453 . S
C437 H466 0.982 . S
C437 H467 0.979 . S
C437 H468 0.977 . S
C438 C425 1.684 . S
C438 H463 0.979 . S
C438 H464 0.980 . S
C438 H465 0.983 . S
C439 C440 1.391 . S
C439 C444 1.391 . S
C439 H469 0.948 . S
C440 C439 1.391 . S
C440 C441 1.391 . S
C441 C440 1.391 . S
C441 C442 1.392 . S
C441 H470 0.947 . S
C442 C441 1.392 . S
C442 C443 1.419 . S
C442 H471 0.948 . S
C443 C442 1.419 . S
C443 C444 1.391 . S
C443 C447 1.397 . S
C444 C439 1.391 . S
C444 C443 1.391 . S
C444 C445 1.399 . S
C445 C444 1.399 . S
C445 C446 1.396 . S
C445 C448 1.453 . S
C445 C449 1.684 . S
C446 C427 1.723 . S
C446 C445 1.396 . S
C446 C447 1.394 . S
C447 C443 1.397 . S
C447 C446 1.394 . S
C447 C457 1.723 . S
C448 C445 1.453 . S
C448 H472 0.982 . S
C448 H473 0.979 . S
C448 H474 0.977 . S
C449 C445 1.684 . S
C449 H475 0.979 . S
C449 H476 0.980 . S
C449 H477 0.983 . S
C450 H426 0.948 . S
C450 C451 1.391 . S
C450 C455 1.391 . S
C451 C450 1.391 . S
C451 C452 1.391 . S
C452 H429 0.947 . S
C452 C451 1.391 . S
C452 C453 1.392 . S
C453 H430 0.948 . S
C453 C452 1.392 . S
C453 C454 1.419 . S
C454 C453 1.419 . S
C454 C455 1.391 . S
C454 C458 1.397 . S
C455 C450 1.391 . S
C455 C454 1.391 . S
C455 C456 1.399 . S
C456 C455 1.399 . S
C456 C457 1.396 . S
C456 C459 1.453 . S
C456 C460 1.684 . S
C457 C447 1.723 . S
C457 C456 1.396 . S
C457 C458 1.394 . S
C458 C428 1.723 . S
C458 C454 1.397 . S
C458 C457 1.394 . S
C459 H431 0.982 . S
C459 H435 0.979 . S
C459 H436 0.977 . S
C459 C456 1.453 . S
C460 H432 0.979 . S
C460 H433 0.980 . S
C460 H434 0.983 . S
C460 C456 1.684 . S
H461 C479 0.948 . S
H462 C420 0.948 . S
H463 C438 0.979 . S
H464 C438 0.980 . S
H465 C438 0.983 . S
H466 C437 0.982 . S
H467 C437 0.979 . S
H468 C437 0.977 . S
H469 C439 0.948 . S
H470 C441 0.947 . S
H471 C442 0.948 . S
H472 C448 0.982 . S
H473 C448 0.979 . S
H474 C448 0.977 . S
H475 C449 0.979 . S
H476 C449 0.980 . S
H477 C449 0.983 . S
H478 C422 0.947 . S
C479 C422 1.392 . S
C479 C423 1.419 . S
C479 H461 0.948 . S
C480 C481 1.391 . S
C480 C482 1.394 . S
C480 H496 0.931 . S
C481 C480 1.391 . S
C481 C485 1.376 . S
C482 C480 1.394 . S
C482 C483 1.369 . S
C482 C486 1.531 . S
C483 C482 1.369 . S
C483 C484 1.410 . S
C483 C491 1.503 . S
C484 C483 1.410 . S
C484 C485 1.392 . S
C484 C487 1.511 . S
C485 C481 1.376 . S
C485 C484 1.392 . S
C485 H497 0.929 . S
C486 C482 1.531 . S
C486 H498 0.960 . S
C486 H499 0.962 . S
C486 H500 0.960 . S
C487 C484 1.511 . S
C487 H501 0.961 . S
C487 H502 0.961 . S
C487 H503 0.961 . S
C488 C489 1.370 . S
C488 C490 1.363 . S
C488 H504 0.931 . S
C489 C488 1.370 . S
C489 C493 1.408 . S
C490 C488 1.363 . S
C490 C491 1.370 . S
C490 C494 1.524 . S
C491 C483 1.503 . S
C491 C490 1.370 . S
C491 C492 1.403 . S
C492 C491 1.403 . S
C492 C493 1.404 . S
C492 C495 1.539 . S
C493 C489 1.408 . S
C493 C492 1.404 . S
C493 H505 0.930 . S
C494 C490 1.524 . S
C494 H506 0.956 . S
C494 H507 0.961 . S
C494 H508 0.961 . S
C495 C492 1.539 . S
C495 H509 0.958 . S
C495 H510 0.961 . S
C495 H511 0.960 . S
H496 C480 0.931 . S
H497 C485 0.929 . S
H498 C486 0.960 . S
H499 C486 0.962 . S
H500 C486 0.960 . S
H501 C487 0.961 . S
H502 C487 0.961 . S
H503 C487 0.961 . S
H504 C488 0.931 . S
H505 C493 0.930 . S
H506 C494 0.956 . S
H507 C494 0.961 . S
H508 C494 0.961 . S
H509 C495 0.958 . S
H510 C495 0.961 . S
H511 C495 0.960 . S
C512 C513 1.391 . S
C512 C514 1.394 . S
C512 H528 0.931 . S
C513 C512 1.391 . S
C513 C517 1.376 . S
C514 C512 1.394 . S
C514 C515 1.369 . S
C514 C518 1.531 . S
C515 C514 1.369 . S
C515 C516 1.410 . S
C515 C523 1.503 . S
C516 C515 1.410 . S
C516 C517 1.392 . S
C516 C519 1.511 . S
C517 C513 1.376 . S
C517 C516 1.392 . S
C517 H529 0.929 . S
C518 C514 1.531 . S
C518 H530 0.960 . S
C518 H531 0.962 . S
C518 H532 0.960 . S
C519 C516 1.511 . S
C519 H533 0.961 . S
C519 H534 0.961 . S
C519 H535 0.961 . S
C520 C521 1.370 . S
C520 C522 1.363 . S
C520 H536 0.931 . S
C521 C520 1.370 . S
C521 C525 1.408 . S
C522 C520 1.363 . S
C522 C523 1.370 . S
C522 C526 1.524 . S
C523 C515 1.503 . S
C523 C522 1.370 . S
C523 C524 1.403 . S
C524 C523 1.403 . S
C524 C525 1.404 . S
C524 C527 1.539 . S
C525 C521 1.408 . S
C525 C524 1.404 . S
C525 H537 0.930 . S
C526 C522 1.524 . S
C526 H538 0.956 . S
C526 H539 0.961 . S
C526 H540 0.961 . S
C527 C524 1.539 . S
C527 H541 0.958 . S
C527 H542 0.961 . S
C527 H543 0.960 . S
H528 C512 0.931 . S
H529 C517 0.929 . S
H530 C518 0.960 . S
H531 C518 0.962 . S
H532 C518 0.960 . S
H533 C519 0.961 . S
H534 C519 0.961 . S
H535 C519 0.961 . S
H536 C520 0.931 . S
H537 C525 0.930 . S
H538 C526 0.956 . S
H539 C526 0.961 . S
H540 C526 0.961 . S
H541 C527 0.958 . S
H542 C527 0.961 . S
H543 C527 0.960 . S
C544 C545 1.391 . S
C544 C546 1.394 . S
C544 H560 0.931 . S
C545 C544 1.391 . S
C545 C549 1.376 . S
C546 C544 1.394 . S
C546 C547 1.369 . S
C546 C550 1.531 . S
C547 C546 1.369 . S
C547 C548 1.410 . S
C547 C555 1.503 . S
C548 C547 1.410 . S
C548 C549 1.392 . S
C548 C551 1.511 . S
C549 C545 1.376 . S
C549 C548 1.392 . S
C549 H561 0.929 . S
C550 C546 1.531 . S
C550 H562 0.960 . S
C550 H563 0.962 . S
C550 H564 0.960 . S
C551 C548 1.511 . S
C551 H565 0.961 . S
C551 H566 0.961 . S
C551 H567 0.961 . S
C552 C553 1.370 . S
C552 C554 1.363 . S
C552 H568 0.931 . S
C553 C552 1.370 . S
C553 C557 1.408 . S
C554 C552 1.363 . S
C554 C555 1.370 . S
C554 C558 1.524 . S
C555 C547 1.503 . S
C555 C554 1.370 . S
C555 C556 1.403 . S
C556 C555 1.403 . S
C556 C557 1.404 . S
C556 C559 1.539 . S
C557 C553 1.408 . S
C557 C556 1.404 . S
C557 H569 0.930 . S
C558 C554 1.524 . S
C558 H570 0.956 . S
C558 H571 0.961 . S
C558 H572 0.961 . S
C559 C556 1.539 . S
C559 H573 0.958 . S
C559 H574 0.961 . S
C559 H575 0.960 . S
H560 C544 0.931 . S
H561 C549 0.929 . S
H562 C550 0.960 . S
H563 C550 0.962 . S
H564 C550 0.960 . S
H565 C551 0.961 . S
H566 C551 0.961 . S
H567 C551 0.961 . S
H568 C552 0.931 . S
H569 C557 0.930 . S
H570 C558 0.956 . S
H571 C558 0.961 . S
H572 C558 0.961 . S
H573 C559 0.958 . S
H574 C559 0.961 . S
H575 C559 0.960 . S
C576 C577 1.391 . S
C576 C578 1.394 . S
C576 H592 0.931 . S
C577 C576 1.391 . S
C577 C581 1.376 . S
C578 C576 1.394 . S
C578 C579 1.369 . S
C578 C582 1.531 . S
C579 C578 1.369 . S
C579 C580 1.410 . S
C579 C587 1.503 . S
C580 C579 1.410 . S
C580 C581 1.392 . S
C580 C583 1.511 . S
C581 C577 1.376 . S
C581 C580 1.392 . S
C581 H593 0.929 . S
C582 C578 1.531 . S
C582 H594 0.960 . S
C582 H595 0.962 . S
C582 H596 0.960 . S
C583 C580 1.511 . S
C583 H597 0.961 . S
C583 H598 0.961 . S
C583 H599 0.961 . S
C584 C585 1.370 . S
C584 C586 1.363 . S
C584 H600 0.931 . S
C585 C584 1.370 . S
C585 C589 1.408 . S
C586 C584 1.363 . S
C586 C587 1.370 . S
C586 C590 1.524 . S
C587 C579 1.503 . S
C587 C586 1.370 . S
C587 C588 1.403 . S
C588 C587 1.403 . S
C588 C589 1.404 . S
C588 C591 1.539 . S
C589 C585 1.408 . S
C589 C588 1.404 . S
C589 H601 0.930 . S
C590 C586 1.524 . S
C590 H602 0.956 . S
C590 H603 0.961 . S
C590 H604 0.961 . S
C591 C588 1.539 . S
C591 H605 0.958 . S
C591 H606 0.961 . S
C591 H607 0.960 . S
H592 C576 0.931 . S
H593 C581 0.929 . S
H594 C582 0.960 . S
H595 C582 0.962 . S
H596 C582 0.960 . S
H597 C583 0.961 . S
H598 C583 0.961 . S
H599 C583 0.961 . S
H600 C584 0.931 . S
H601 C589 0.930 . S
H602 C590 0.956 . S
H603 C590 0.961 . S
H604 C590 0.961 . S
H605 C591 0.958 . S
H606 C591 0.961 . S
H607 C591 0.960 . S
C608 C609 1.391 . S
C608 C610 1.394 . S
C608 H624 0.931 . S
C609 C608 1.391 . S
C609 C613 1.376 . S
C610 C608 1.394 . S
C610 C611 1.369 . S
C610 C614 1.531 . S
C611 C610 1.369 . S
C611 C612 1.410 . S
C611 C619 1.503 . S
C612 C611 1.410 . S
C612 C613 1.392 . S
C612 C615 1.511 . S
C613 C609 1.376 . S
C613 C612 1.392 . S
C613 H625 0.929 . S
C614 C610 1.531 . S
C614 H626 0.960 . S
C614 H627 0.962 . S
C614 H628 0.960 . S
C615 C612 1.511 . S
C615 H629 0.961 . S
C615 H630 0.961 . S
C615 H631 0.961 . S
C616 C617 1.370 . S
C616 C618 1.363 . S
C616 H632 0.931 . S
C617 C616 1.370 . S
C617 C621 1.408 . S
C618 C616 1.363 . S
C618 C619 1.370 . S
C618 C622 1.524 . S
C619 C611 1.503 . S
C619 C618 1.370 . S
C619 C620 1.403 . S
C620 C619 1.403 . S
C620 C621 1.404 . S
C620 C623 1.539 . S
C621 C617 1.408 . S
C621 C620 1.404 . S
C621 H633 0.930 . S
C622 C618 1.524 . S
C622 H634 0.956 . S
C622 H635 0.961 . S
C622 H636 0.961 . S
C623 C620 1.539 . S
C623 H637 0.958 . S
C623 H638 0.961 . S
C623 H639 0.960 . S
H624 C608 0.931 . S
H625 C613 0.929 . S
H626 C614 0.960 . S
H627 C614 0.962 . S
H628 C614 0.960 . S
H629 C615 0.961 . S
H630 C615 0.961 . S
H631 C615 0.961 . S
H632 C616 0.931 . S
H633 C621 0.930 . S
H634 C622 0.956 . S
H635 C622 0.961 . S
H636 C622 0.961 . S
H637 C623 0.958 . S
H638 C623 0.961 . S
H639 C623 0.960 . S
C640 C641 1.391 . S
C640 C642 1.394 . S
C640 H656 0.931 . S
C641 C640 1.391 . S
C641 C645 1.376 . S
C642 C640 1.394 . S
C642 C643 1.369 . S
C642 C646 1.531 . S
C643 C642 1.369 . S
C643 C644 1.410 . S
C643 C651 1.503 . S
C644 C643 1.410 . S
C644 C645 1.392 . S
C644 C647 1.511 . S
C645 C641 1.376 . S
C645 C644 1.392 . S
C645 H657 0.929 . S
C646 C642 1.531 . S
C646 H658 0.960 . S
C646 H659 0.962 . S
C646 H660 0.960 . S
C647 C644 1.511 . S
C647 H661 0.961 . S
C647 H662 0.961 . S
C647 H663 0.961 . S
C648 C649 1.370 . S
C648 C650 1.363 . S
C648 H664 0.931 . S
C649 C648 1.370 . S
C649 C653 1.408 . S
C650 C648 1.363 . S
C650 C651 1.370 . S
C650 C654 1.524 . S
C651 C643 1.503 . S
C651 C650 1.370 . S
C651 C652 1.403 . S
C652 C651 1.403 . S
C652 C653 1.404 . S
C652 C655 1.539 . S
C653 C649 1.408 . S
C653 C652 1.404 . S
C653 H665 0.930 . S
C654 C650 1.524 . S
C654 H666 0.956 . S
C654 H667 0.961 . S
C654 H668 0.961 . S
C655 C652 1.539 . S
C655 H669 0.958 . S
C655 H670 0.961 . S
C655 H671 0.960 . S
H656 C640 0.931 . S
H657 C645 0.929 . S
H658 C646 0.960 . S
H659 C646 0.962 . S
H660 C646 0.960 . S
H661 C647 0.961 . S
H662 C647 0.961 . S
H663 C647 0.961 . S
H664 C648 0.931 . S
H665 C653 0.930 . S
H666 C654 0.956 . S
H667 C654 0.961 . S
H668 C654 0.961 . S
H669 C655 0.958 . S
H670 C655 0.961 . S
H671 C655 0.960 . S
C672 C673 1.391 . S
C672 C674 1.394 . S
C672 H688 0.931 . S
C673 C672 1.391 . S
C673 C677 1.376 . S
C674 C672 1.394 . S
C674 C675 1.369 . S
C674 C678 1.531 . S
C675 C674 1.369 . S
C675 C676 1.410 . S
C675 C683 1.503 . S
C676 C675 1.410 . S
C676 C677 1.392 . S
C676 C679 1.511 . S
C677 C673 1.376 . S
C677 C676 1.392 . S
C677 H689 0.929 . S
C678 C674 1.531 . S
C678 H690 0.960 . S
C678 H691 0.962 . S
C678 H692 0.960 . S
C679 C676 1.511 . S
C679 H693 0.961 . S
C679 H694 0.961 . S
C679 H695 0.961 . S
C680 C681 1.370 . S
C680 C682 1.363 . S
C680 H696 0.931 . S
C681 C680 1.370 . S
C681 C685 1.408 . S
C682 C680 1.363 . S
C682 C683 1.370 . S
C682 C686 1.524 . S
C683 C675 1.503 . S
C683 C682 1.370 . S
C683 C684 1.403 . S
C684 C683 1.403 . S
C684 C685 1.404 . S
C684 C687 1.539 . S
C685 C681 1.408 . S
C685 C684 1.404 . S
C685 H697 0.930 . S
C686 C682 1.524 . S
C686 H698 0.956 . S
C686 H699 0.961 . S
C686 H700 0.961 . S
C687 C684 1.539 . S
C687 H701 0.958 . S
C687 H702 0.961 . S
C687 H703 0.960 . S
H688 C672 0.931 . S
H689 C677 0.929 . S
H690 C678 0.960 . S
H691 C678 0.962 . S
H692 C678 0.960 . S
H693 C679 0.961 . S
H694 C679 0.961 . S
H695 C679 0.961 . S
H696 C680 0.931 . S
H697 C685 0.930 . S
H698 C686 0.956 . S
H699 C686 0.961 . S
H700 C686 0.961 . S
H701 C687 0.958 . S
H702 C687 0.961 . S
H703 C687 0.960 . S
C704 C705 1.391 . S
C704 C706 1.394 . S
C704 H720 0.931 . S
C705 C704 1.391 . S
C705 C709 1.376 . S
C706 C704 1.394 . S
C706 C707 1.369 . S
C706 C710 1.531 . S
C707 C706 1.369 . S
C707 C708 1.410 . S
C707 C715 1.503 . S
C708 C707 1.410 . S
C708 C709 1.392 . S
C708 C711 1.511 . S
C709 C705 1.376 . S
C709 C708 1.392 . S
C709 H721 0.929 . S
C710 C706 1.531 . S
C710 H722 0.960 . S
C710 H723 0.962 . S
C710 H724 0.960 . S
C711 C708 1.511 . S
C711 H725 0.961 . S
C711 H726 0.961 . S
C711 H727 0.961 . S
C712 C713 1.370 . S
C712 C714 1.363 . S
C712 H728 0.931 . S
C713 C712 1.370 . S
C713 C717 1.408 . S
C714 C712 1.363 . S
C714 C715 1.370 . S
C714 C718 1.524 . S
C715 C707 1.503 . S
C715 C714 1.370 . S
C715 C716 1.403 . S
C716 C715 1.403 . S
C716 C717 1.404 . S
C716 C719 1.539 . S
C717 C713 1.408 . S
C717 C716 1.404 . S
C717 H729 0.930 . S
C718 C714 1.524 . S
C718 H730 0.956 . S
C718 H731 0.961 . S
C718 H732 0.961 . S
C719 C716 1.539 . S
C719 H733 0.958 . S
C719 H734 0.961 . S
C719 H735 0.960 . S
H720 C704 0.931 . S
H721 C709 0.929 . S
H722 C710 0.960 . S
H723 C710 0.962 . S
H724 C710 0.960 . S
H725 C711 0.961 . S
H726 C711 0.961 . S
H727 C711 0.961 . S
H728 C712 0.931 . S
H729 C717 0.930 . S
H730 C718 0.956 . S
H731 C718 0.961 . S
H732 C718 0.961 . S
H733 C719 0.958 . S
H734 C719 0.961 . S
H735 C719 0.960 . S
C736 C737 1.391 . S
C736 C738 1.394 . S
C736 H752 0.931 . S
C737 C736 1.391 . S
C737 C741 1.376 . S
C738 C736 1.394 . S
C738 C739 1.369 . S
C738 C742 1.531 . S
C739 C738 1.369 . S
C739 C740 1.410 . S
C739 C747 1.503 . S
C740 C739 1.410 . S
C740 C741 1.392 . S
C740 C743 1.511 . S
C741 C737 1.376 . S
C741 C740 1.392 . S
C741 H753 0.929 . S
C742 C738 1.531 . S
C742 H754 0.960 . S
C742 H755 0.962 . S
C742 H756 0.960 . S
C743 C740 1.511 . S
C743 H757 0.961 . S
C743 H758 0.961 . S
C743 H759 0.961 . S
C744 C745 1.370 . S
C744 C746 1.363 . S
C744 H760 0.931 . S
C745 C744 1.370 . S
C745 C749 1.408 . S
C746 C744 1.363 . S
C746 C747 1.370 . S
C746 C750 1.524 . S
C747 C739 1.503 . S
C747 C746 1.370 . S
C747 C748 1.403 . S
C748 C747 1.403 . S
C748 C749 1.404 . S
C748 C751 1.539 . S
C749 C745 1.408 . S
C749 C748 1.404 . S
C749 H761 0.930 . S
C750 C746 1.524 . S
C750 H762 0.956 . S
C750 H763 0.961 . S
C750 H764 0.961 . S
C751 C748 1.539 . S
C751 H765 0.958 . S
C751 H766 0.961 . S
C751 H767 0.960 . S
H752 C736 0.931 . S
H753 C741 0.929 . S
H754 C742 0.960 . S
H755 C742 0.962 . S
H756 C742 0.960 . S
H757 C743 0.961 . S
H758 C743 0.961 . S
H759 C743 0.961 . S
H760 C744 0.931 . S
H761 C749 0.930 . S
H762 C750 0.956 . S
H763 C750 0.961 . S
H764 C750 0.961 . S
H765 C751 0.958 . S
H766 C751 0.961 . S
H767 C751 0.960 . S
C768 C769 1.391 . S
C768 C770 1.394 . S
C768 H784 0.931 . S
C769 C768 1.391 . S
C769 C773 1.376 . S
C770 C768 1.394 . S
C770 C771 1.369 . S
C770 C774 1.531 . S
C771 C770 1.369 . S
C771 C772 1.410 . S
C771 C779 1.503 . S
C772 C771 1.410 . S
C772 C773 1.392 . S
C772 C775 1.511 . S
C773 C769 1.376 . S
C773 C772 1.392 . S
C773 H785 0.929 . S
C774 C770 1.531 . S
C774 H786 0.960 . S
C774 H787 0.962 . S
C774 H788 0.960 . S
C775 C772 1.511 . S
C775 H789 0.961 . S
C775 H790 0.961 . S
C775 H791 0.961 . S
C776 C777 1.370 . S
C776 C778 1.363 . S
C776 H792 0.931 . S
C777 C776 1.370 . S
C777 C781 1.408 . S
C778 C776 1.363 . S
C778 C779 1.370 . S
C778 C782 1.524 . S
C779 C771 1.503 . S
C779 C778 1.370 . S
C779 C780 1.403 . S
C780 C779 1.403 . S
C780 C781 1.404 . S
C780 C783 1.539 . S
C781 C777 1.408 . S
C781 C780 1.404 . S
C781 H793 0.930 . S
C782 C778 1.524 . S
C782 H794 0.956 . S
C782 H795 0.961 . S
C782 H796 0.961 . S
C783 C780 1.539 . S
C783 H797 0.958 . S
C783 H798 0.961 . S
C783 H799 0.960 . S
H784 C768 0.931 . S
H785 C773 0.929 . S
H786 C774 0.960 . S
H787 C774 0.962 . S
H788 C774 0.960 . S
H789 C775 0.961 . S
H790 C775 0.961 . S
H791 C775 0.961 . S
H792 C776 0.931 . S
H793 C781 0.930 . S
H794 C782 0.956 . S
H795 C782 0.961 . S
H796 C782 0.961 . S
H797 C783 0.958 . S
H798 C783 0.961 . S
H799 C783 0.960 . S
C800 C801 1.391 . S
C800 C802 1.394 . S
C800 H816 0.931 . S
C801 C800 1.391 . S
C801 C805 1.376 . S
C802 C800 1.394 . S
C802 C803 1.369 . S
C802 C806 1.531 . S
C803 C802 1.369 . S
C803 C804 1.410 . S
C803 C811 1.503 . S
C804 C803 1.410 . S
C804 C805 1.392 . S
C804 C807 1.511 . S
C805 C801 1.376 . S
C805 C804 1.392 . S
C805 H817 0.929 . S
C806 C802 1.531 . S
C806 H818 0.960 . S
C806 H819 0.962 . S
C806 H820 0.960 . S
C807 C804 1.511 . S
C807 H821 0.961 . S
C807 H822 0.961 . S
C807 H823 0.961 . S
C808 C809 1.370 . S
C808 C810 1.363 . S
C808 H824 0.931 . S
C809 C808 1.370 . S
C809 C813 1.408 . S
C810 C808 1.363 . S
C810 C811 1.370 . S
C810 C814 1.524 . S
C811 C803 1.503 . S
C811 C810 1.370 . S
C811 C812 1.403 . S
C812 C811 1.403 . S
C812 C813 1.404 . S
C812 C815 1.539 . S
C813 C809 1.408 . S
C813 C812 1.404 . S
C813 H825 0.930 . S
C814 C810 1.524 . S
C814 H826 0.956 . S
C814 H827 0.961 . S
C814 H828 0.961 . S
C815 C812 1.539 . S
C815 H829 0.958 . S
C815 H830 0.961 . S
C815 H831 0.960 . S
H816 C800 0.931 . S
H817 C805 0.929 . S
H818 C806 0.960 . S
H819 C806 0.962 . S
H820 C806 0.960 . S
H821 C807 0.961 . S
H822 C807 0.961 . S
H823 C807 0.961 . S
H824 C808 0.931 . S
H825 C813 0.930 . S
H826 C814 0.956 . S
H827 C814 0.961 . S
H828 C814 0.961 . S
H829 C815 0.958 . S
H830 C815 0.961 . S
H831 C815 0.960 . S
C832 C833 1.391 . S
C832 C834 1.394 . S
C832 H848 0.931 . S
C833 C832 1.391 . S
C833 C837 1.376 . S
C834 C832 1.394 . S
C834 C835 1.369 . S
C834 C838 1.531 . S
C835 C834 1.369 . S
C835 C836 1.410 . S
C835 C843 1.503 . S
C836 C835 1.410 . S
C836 C837 1.392 . S
C836 C839 1.511 . S
C837 C833 1.376 . S
C837 C836 1.392 . S
C837 H849 0.929 . S
C838 C834 1.531 . S
C838 H850 0.960 . S
C838 H851 0.962 . S
C838 H852 0.960 . S
C839 C836 1.511 . S
C839 H853 0.961 . S
C839 H854 0.961 . S
C839 H855 0.961 . S
C840 C841 1.370 . S
C840 C842 1.363 . S
C840 H856 0.931 . S
C841 C840 1.370 . S
C841 C845 1.408 . S
C842 C840 1.363 . S
C842 C843 1.370 . S
C842 C846 1.524 . S
C843 C835 1.503 . S
C843 C842 1.370 . S
C843 C844 1.403 . S
C844 C843 1.403 . S
C844 C845 1.404 . S
C844 C847 1.539 . S
C845 C841 1.408 . S
C845 C844 1.404 . S
C845 H857 0.930 . S
C846 C842 1.524 . S
C846 H858 0.956 . S
C846 H859 0.961 . S
C846 H860 0.961 . S
C847 C844 1.539 . S
C847 H861 0.958 . S
C847 H862 0.961 . S
C847 H863 0.960 . S
H848 C832 0.931 . S
H849 C837 0.929 . S
H850 C838 0.960 . S
H851 C838 0.962 . S
H852 C838 0.960 . S
H853 C839 0.961 . S
H854 C839 0.961 . S
H855 C839 0.961 . S
H856 C840 0.931 . S
H857 C845 0.930 . S
H858 C846 0.956 . S
H859 C846 0.961 . S
H860 C846 0.961 . S
H861 C847 0.958 . S
H862 C847 0.961 . S
H863 C847 0.960 . S
C864 C865 1.391 . S
C864 C866 1.394 . S
C864 H880 0.931 . S
C865 C864 1.391 . S
C865 C869 1.376 . S
C866 C864 1.394 . S
C866 C867 1.369 . S
C866 C870 1.531 . S
C867 C866 1.369 . S
C867 C868 1.410 . S
C867 C875 1.503 . S
C868 C867 1.410 . S
C868 C869 1.392 . S
C868 C871 1.511 1_455 S
C869 C865 1.376 . S
C869 C868 1.392 . S
C869 H881 0.928 1_455 S
C870 C866 1.531 . S
C870 H882 0.960 . S
C870 H883 0.962 . S
C870 H884 0.960 . S
C871 C868 1.511 1_655 S
C871 H885 0.961 . S
C871 H886 0.961 . S
C871 H887 0.961 1_655 S
C872 C873 1.388 1_655 S
C872 C874 1.363 1_655 S
C872 H888 0.950 . S
C873 C872 1.388 1_455 S
C873 C877 1.433 . S
C874 C872 1.363 1_455 S
C874 C875 1.370 . S
C874 C878 1.524 1_455 S
C875 C867 1.503 . S
C875 C874 1.370 . S
C875 C876 1.403 . S
C876 C875 1.403 . S
C876 C877 1.404 . S
C876 C879 1.539 . S
C877 C873 1.433 . S
C877 C876 1.404 . S
C877 H889 0.930 . S
C878 C874 1.524 1_655 S
C878 H890 0.956 . S
C878 H891 0.961 . S
C878 H892 0.961 . S
C879 C876 1.539 . S
C879 H893 0.958 . S
C879 H894 0.961 . S
C879 H895 0.960 . S
H880 C864 0.931 . S
H881 C869 0.928 1_655 S
H882 C870 0.960 . S
H883 C870 0.962 . S
H884 C870 0.960 . S
H885 C871 0.961 . S
H886 C871 0.961 . S
H887 C871 0.961 1_455 S
H888 C872 0.950 . S
H889 C877 0.930 . S
H890 C878 0.956 . S
H891 C878 0.961 . S
H892 C878 0.961 . S
H893 C879 0.958 . S
H894 C879 0.961 . S
H895 C879 0.960 . S
C896 C897 1.391 . S
C896 C898 1.394 . S
C896 H912 0.931 . S
C897 C896 1.391 . S
C897 C901 1.376 . S
C898 C896 1.394 . S
C898 C899 1.369 . S
C898 C902 1.531 1_545 S
C899 C898 1.369 . S
C899 C900 1.410 . S
C899 C907 1.503 . S
C900 C899 1.410 . S
C900 C901 1.392 . S
C900 C903 1.511 . S
C901 C897 1.376 . S
C901 C900 1.392 . S
C901 H913 0.929 . S
C902 C898 1.531 1_565 S
C902 H914 0.960 . S
C902 H915 0.962 1_565 S
C902 H916 0.960 . S
C903 C900 1.511 . S
C903 H917 0.961 . S
C903 H918 0.961 . S
C903 H919 0.961 . S
C904 C905 1.370 . S
C904 C906 1.363 . S
C904 H920 0.931 . S
C905 C904 1.370 . S
C905 C909 1.408 1_545 S
C906 C904 1.363 . S
C906 C907 1.370 . S
C906 C910 1.524 . S
C907 C899 1.503 . S
C907 C906 1.370 . S
C907 C908 1.403 1_545 S
C908 C907 1.403 1_565 S
C908 C909 1.404 . S
C908 C911 1.539 . S
C909 C905 1.408 1_565 S
C909 C908 1.404 . S
C909 H921 0.930 . S
C910 C906 1.524 . S
C910 H922 0.956 . S
C910 H923 0.961 . S
C910 H924 0.961 . S
C911 C908 1.539 . S
C911 H925 0.958 . S
C911 H926 0.961 . S
C911 H927 0.960 . S
H912 C896 0.931 . S
H913 C901 0.929 . S
H914 C902 0.960 . S
H915 C902 0.962 1_545 S
H916 C902 0.960 . S
H917 C903 0.961 . S
H918 C903 0.961 . S
H919 C903 0.961 . S
H920 C904 0.931 . S
H921 C909 0.930 . S
H922 C910 0.956 . S
H923 C910 0.961 . S
H924 C910 0.961 . S
H925 C911 0.958 . S
H926 C911 0.961 . S
H927 C911 0.960 . S
C928 C929 1.391 . S
C928 C930 1.394 . S
C928 H944 0.931 . S
C929 C928 1.391 . S
C929 C933 1.376 . S
C930 C928 1.394 . S
C930 C931 1.369 . S
C930 C934 1.531 . S
C931 C930 1.369 . S
C931 C932 1.410 . S
C931 C939 1.503 . S
C932 C931 1.410 . S
C932 C933 1.392 . S
C932 C935 1.511 . S
C933 C929 1.376 . S
C933 C932 1.392 . S
C933 H945 0.929 . S
C934 C930 1.531 . S
C934 H946 0.960 . S
C934 H947 0.962 . S
C934 H948 0.960 . S
C935 C932 1.511 . S
C935 H949 0.961 . S
C935 H950 0.961 . S
C935 H951 0.961 . S
C936 C937 1.370 . S
C936 C938 1.363 . S
C936 H952 0.931 . S
C937 C936 1.370 . S
C937 C941 1.408 . S
C938 C936 1.363 . S
C938 C939 1.370 . S
C938 C942 1.524 . S
C939 C931 1.503 . S
C939 C938 1.370 . S
C939 C940 1.403 . S
C940 C939 1.403 . S
C940 C941 1.404 . S
C940 C943 1.539 . S
C941 C937 1.408 . S
C941 C940 1.404 . S
C941 H953 0.930 . S
C942 C938 1.524 . S
C942 H954 0.956 . S
C942 H955 0.961 . S
C942 H956 0.961 . S
C943 C940 1.539 . S
C943 H957 0.958 . S
C943 H958 0.961 . S
C943 H959 0.960 . S
H944 C928 0.931 . S
H945 C933 0.929 . S
H946 C934 0.960 . S
H947 C934 0.962 . S
H948 C934 0.960 . S
H949 C935 0.961 . S
H950 C935 0.961 . S
H951 C935 0.961 . S
H952 C936 0.931 . S
H953 C941 0.930 . S
H954 C942 0.956 . S
H955 C942 0.961 . S
H956 C942 0.961 . S
H957 C943 0.958 . S
H958 C943 0.961 . S
H959 C943 0.960 . S
C960 C961 1.391 . S
C960 C962 1.394 . S
C960 H976 0.931 . S
C961 C960 1.391 . S
C961 C965 1.376 . S
C962 C960 1.394 . S
C962 C963 1.369 . S
C962 C966 1.531 . S
C963 C962 1.369 . S
C963 C964 1.410 . S
C963 C971 1.503 . S
C964 C963 1.410 . S
C964 C965 1.392 . S
C964 C967 1.511 1_545 S
C965 C961 1.376 . S
C965 C964 1.392 . S
C965 H977 0.929 . S
C966 C962 1.531 . S
C966 H978 0.960 . S
C966 H979 0.962 . S
C966 H980 0.960 . S
C967 C964 1.511 1_565 S
C967 H981 0.961 1_565 S
C967 H982 0.961 1_565 S
C967 H983 0.961 . S
C968 C969 1.370 . S
C968 C970 1.363 . S
C968 H984 0.931 . S
C969 C968 1.370 . S
C969 C973 1.408 1_545 S
C970 C968 1.363 . S
C970 C971 1.370 . S
C970 C974 1.524 . S
C971 C963 1.503 . S
C971 C970 1.370 . S
C971 C972 1.403 1_545 S
C972 C971 1.403 1_565 S
C972 C973 1.404 . S
C972 C975 1.539 . S
C973 C969 1.408 1_565 S
C973 C972 1.404 . S
C973 H985 0.930 . S
C974 C970 1.524 . S
C974 H986 0.956 . S
C974 H987 0.961 . S
C974 H988 0.961 . S
C975 C972 1.539 . S
C975 H989 0.958 . S
C975 H990 0.961 . S
C975 H991 0.960 . S
H976 C960 0.931 . S
H977 C965 0.929 . S
H978 C966 0.960 . S
H979 C966 0.962 . S
H980 C966 0.960 . S
H981 C967 0.961 1_545 S
H982 C967 0.961 1_545 S
H983 C967 0.961 . S
H984 C968 0.931 . S
H985 C973 0.930 . S
H986 C974 0.956 . S
H987 C974 0.961 . S
H988 C974 0.961 . S
H989 C975 0.958 . S
H990 C975 0.961 . S
H991 C975 0.960 . S
C992 C993 1.391 . S
C992 C994 1.394 . S
C992 H1008 0.931 . S
C993 C992 1.391 . S
C993 C997 1.376 . S
C994 C992 1.394 . S
C994 C995 1.369 . S
C994 C998 1.531 . S
C995 C994 1.369 . S
C995 C996 1.410 . S
C995 C1003 1.503 . S
C996 C995 1.410 . S
C996 C997 1.392 . S
C996 C999 1.511 . S
C997 C993 1.376 . S
C997 C996 1.392 . S
C997 H1009 0.929 . S
C998 C994 1.531 . S
C998 H1010 0.960 . S
C998 H1011 0.962 . S
C998 H1012 0.960 . S
C999 C996 1.511 . S
C999 H1013 0.961 . S
C999 H1014 0.961 . S
C999 H1015 0.961 . S
C1000 C1001 1.370 . S
C1000 C1002 1.363 . S
C1000 H1016 0.931 . S
C1001 C1000 1.370 . S
C1001 C1005 1.408 . S
C1002 C1000 1.363 . S
C1002 C1003 1.370 . S
C1002 C1006 1.524 . S
C1003 C995 1.503 . S
C1003 C1002 1.370 . S
C1003 C1004 1.403 . S
C1004 C1003 1.403 . S
C1004 C1005 1.404 . S
C1004 C1007 1.539 . S
C1005 C1001 1.408 . S
C1005 C1004 1.404 . S
C1005 H1017 0.930 . S
C1006 C1002 1.524 . S
C1006 H1018 0.956 . S
C1006 H1019 0.961 . S
C1006 H1020 0.961 . S
C1007 C1004 1.539 . S
C1007 H1021 0.958 . S
C1007 H1022 0.961 . S
C1007 H1023 0.960 . S
H1008 C992 0.931 . S
H1009 C997 0.929 . S
H1010 C998 0.960 . S
H1011 C998 0.962 . S
H1012 C998 0.960 . S
H1013 C999 0.961 . S
H1014 C999 0.961 . S
H1015 C999 0.961 . S
H1016 C1000 0.931 . S
H1017 C1005 0.930 . S
H1018 C1006 0.956 . S
H1019 C1006 0.961 . S
H1020 C1006 0.961 . S
H1021 C1007 0.958 . S
H1022 C1007 0.961 . S
H1023 C1007 0.960 . S
C1024 C1025 1.391 . S
C1024 C1026 1.394 . S
C1024 H1040 0.931 . S
C1025 C1024 1.391 . S
C1025 C1029 1.376 . S
C1026 C1024 1.394 . S
C1026 C1027 1.369 . S
C1026 C1030 1.531 . S
C1027 C1026 1.369 . S
C1027 C1028 1.410 . S
C1027 C1035 1.503 . S
C1028 C1027 1.410 . S
C1028 C1029 1.392 . S
C1028 C1031 1.511 1_455 S
C1029 C1025 1.376 . S
C1029 C1028 1.392 . S
C1029 H1041 0.929 1_455 S
C1030 C1026 1.531 . S
C1030 H1042 0.960 . S
C1030 H1043 0.962 . S
C1030 H1044 0.960 . S
C1031 C1028 1.511 1_655 S
C1031 H1045 0.961 . S
C1031 H1046 0.961 . S
C1031 H1047 0.961 1_655 S
C1032 C1033 1.370 1_655 S
C1032 C1034 1.363 . S
C1032 H1048 0.931 . S
C1033 C1032 1.370 1_455 S
C1033 C1037 1.408 . S
C1034 C1032 1.363 . S
C1034 C1035 1.370 1_655 S
C1034 C1038 1.524 . S
C1035 C1027 1.503 . S
C1035 C1034 1.370 1_455 S
C1035 C1036 1.403 . S
C1036 C1035 1.403 . S
C1036 C1037 1.404 . S
C1036 C1039 1.539 . S
C1037 C1033 1.408 . S
C1037 C1036 1.404 . S
C1037 H1049 0.930 . S
C1038 C1034 1.524 . S
C1038 H1050 0.956 . S
C1038 H1051 0.961 . S
C1038 H1052 0.961 . S
C1039 C1036 1.539 . S
C1039 H1053 0.958 . S
C1039 H1054 0.961 . S
C1039 H1055 0.960 . S
H1040 C1024 0.931 . S
H1041 C1029 0.929 1_655 S
H1042 C1030 0.960 . S
H1043 C1030 0.962 . S
H1044 C1030 0.960 . S
H1045 C1031 0.961 . S
H1046 C1031 0.961 . S
H1047 C1031 0.961 1_455 S
H1048 C1032 0.931 . S
H1049 C1037 0.930 . S
H1050 C1038 0.956 . S
H1051 C1038 0.961 . S
H1052 C1038 0.961 . S
H1053 C1039 0.958 . S
H1054 C1039 0.961 . S
H1055 C1039 0.960 . S
C481 C9 0.471 . S
C489 C451 0.442 . S
C513 C49 0.298 . S
C521 C301 0.361 . S
C545 C89 0.293 . S
C553 C361 0.402 . S
C577 C26 0.478 . S
C585 C421 0.418 . S
C617 C331 0.407 . S
C609 C66 0.542 . S
C649 C391 0.436 . S
C641 C106 0.630 . S
C673 C43 2.950 . S
C681 C181 2.798 . S
C705 C83 3.088 . S
C713 C271 3.077 . S
C737 C22 3.148 . S
C745 C151 3.140 . S
C777 C211 3.135 . S
C769 C62 3.146 . S
C809 C241 2.828 . S
C801 C102 2.994 . S
C833 C3 2.945 . S
C841 C121 2.801 . S
C873 C260 1.713 1_554 S
C865 C15 1.750 . S
C897 C55 1.720 . S
C905 C140 1.751 . S
C929 C95 1.719 . S
C937 C200 1.749 . S
C969 C380 1.072 . S
C961 C42 1.077 . S
C1001 C440 1.066 1_556 S
C993 C82 1.049 . S
C1025 C2 1.065 . S
C1033 C320 1.044 . S
