# Generated by pormake.
# Topology eea, (3,6)-cn, num edge types: 1
# Building blocks:
#     Node 0, Type 0, BuildingBlock: BELTOD_clean_linker_0, # of connection points: 3
#     Node 1, Type 0, BuildingBlock: BELTOD_clean_linker_0, # of connection points: 3
#     Node 2, Type 0, BuildingBlock: BELTOD_clean_linker_0, # of connection points: 3
#     Node 3, Type 0, BuildingBlock: BELTOD_clean_linker_0, # of connection points: 3
#     Node 4, Type 0, BuildingBlock: BELTOD_clean_linker_0, # of connection points: 3
#     Node 5, Type 0, BuildingBlock: BELTOD_clean_linker_0, # of connection points: 3
#     Node 6, Type 0, BuildingBlock: BELTOD_clean_linker_0, # of connection points: 3
#     Node 7, Type 0, BuildingBlock: BELTOD_clean_linker_0, # of connection points: 3
#     Node 8, Type 0, BuildingBlock: BELTOD_clean_linker_0, # of connection points: 3
#     Node 9, Type 0, BuildingBlock: BELTOD_clean_linker_0, # of connection points: 3
#     Node 10, Type 0, BuildingBlock: BELTOD_clean_linker_0, # of connection points: 3
#     Node 11, Type 0, BuildingBlock: BELTOD_clean_linker_0, # of connection points: 3
#     Node 12, Type 0, BuildingBlock: BELTOD_clean_linker_0, # of connection points: 3
#     Node 13, Type 0, BuildingBlock: BELTOD_clean_linker_0, # of connection points: 3
#     Node 14, Type 0, BuildingBlock: BELTOD_clean_linker_0, # of connection points: 3
#     Node 15, Type 0, BuildingBlock: BELTOD_clean_linker_0, # of connection points: 3
#     Node 16, Type 0, BuildingBlock: BELTOD_clean_linker_0, # of connection points: 3
#     Node 17, Type 0, BuildingBlock: BELTOD_clean_linker_0, # of connection points: 3
#     Node 18, Type 1, BuildingBlock: CUWYAW_clean_sbu_0, # of connection points: 6
#     Node 19, Type 1, BuildingBlock: CUWYAW_clean_sbu_0, # of connection points: 6
#     Node 20, Type 1, BuildingBlock: CUWYAW_clean_sbu_0, # of connection points: 6
#     Node 21, Type 1, BuildingBlock: CUWYAW_clean_sbu_0, # of connection points: 6
#     Node 22, Type 1, BuildingBlock: CUWYAW_clean_sbu_0, # of connection points: 6
#     Node 23, Type 1, BuildingBlock: CUWYAW_clean_sbu_0, # of connection points: 6
#     Node 24, Type 1, BuildingBlock: CUWYAW_clean_sbu_0, # of connection points: 6
#     Node 25, Type 1, BuildingBlock: CUWYAW_clean_sbu_0, # of connection points: 6
#     Node 26, Type 1, BuildingBlock: CUWYAW_clean_sbu_0, # of connection points: 6
#     Edge 27, Type (0, 1), BuildingBlock: KIFKEQ_clean_linker_1, # of connection points: 2
#     Edge 28, Type (0, 1), BuildingBlock: KIFKEQ_clean_linker_1, # of connection points: 2
#     Edge 29, Type (0, 1), BuildingBlock: KIFKEQ_clean_linker_1, # of connection points: 2
#     Edge 30, Type (0, 1), BuildingBlock: KIFKEQ_clean_linker_1, # of connection points: 2
#     Edge 31, Type (0, 1), BuildingBlock: KIFKEQ_clean_linker_1, # of connection points: 2
#     Edge 32, Type (0, 1), BuildingBlock: KIFKEQ_clean_linker_1, # of connection points: 2
#     Edge 33, Type (0, 1), BuildingBlock: KIFKEQ_clean_linker_1, # of connection points: 2
#     Edge 34, Type (0, 1), BuildingBlock: KIFKEQ_clean_linker_1, # of connection points: 2
#     Edge 35, Type (0, 1), BuildingBlock: KIFKEQ_clean_linker_1, # of connection points: 2
#     Edge 36, Type (0, 1), BuildingBlock: KIFKEQ_clean_linker_1, # of connection points: 2
#     Edge 37, Type (0, 1), BuildingBlock: KIFKEQ_clean_linker_1, # of connection points: 2
#     Edge 38, Type (0, 1), BuildingBlock: KIFKEQ_clean_linker_1, # of connection points: 2
#     Edge 39, Type (0, 1), BuildingBlock: KIFKEQ_clean_linker_1, # of connection points: 2
#     Edge 40, Type (0, 1), BuildingBlock: KIFKEQ_clean_linker_1, # of connection points: 2
#     Edge 41, Type (0, 1), BuildingBlock: KIFKEQ_clean_linker_1, # of connection points: 2
#     Edge 42, Type (0, 1), BuildingBlock: KIFKEQ_clean_linker_1, # of connection points: 2
#     Edge 43, Type (0, 1), BuildingBlock: KIFKEQ_clean_linker_1, # of connection points: 2
#     Edge 44, Type (0, 1), BuildingBlock: KIFKEQ_clean_linker_1, # of connection points: 2
#     Edge 45, Type (0, 1), BuildingBlock: KIFKEQ_clean_linker_1, # of connection points: 2
#     Edge 46, Type (0, 1), BuildingBlock: KIFKEQ_clean_linker_1, # of connection points: 2
#     Edge 47, Type (0, 1), BuildingBlock: KIFKEQ_clean_linker_1, # of connection points: 2
#     Edge 48, Type (0, 1), BuildingBlock: KIFKEQ_clean_linker_1, # of connection points: 2
#     Edge 49, Type (0, 1), BuildingBlock: KIFKEQ_clean_linker_1, # of connection points: 2
#     Edge 50, Type (0, 1), BuildingBlock: KIFKEQ_clean_linker_1, # of connection points: 2
#     Edge 51, Type (0, 1), BuildingBlock: KIFKEQ_clean_linker_1, # of connection points: 2
#     Edge 52, Type (0, 1), BuildingBlock: KIFKEQ_clean_linker_1, # of connection points: 2
#     Edge 53, Type (0, 1), BuildingBlock: KIFKEQ_clean_linker_1, # of connection points: 2
#     Edge 54, Type (0, 1), BuildingBlock: KIFKEQ_clean_linker_1, # of connection points: 2
#     Edge 55, Type (0, 1), BuildingBlock: KIFKEQ_clean_linker_1, # of connection points: 2
#     Edge 56, Type (0, 1), BuildingBlock: KIFKEQ_clean_linker_1, # of connection points: 2
#     Edge 57, Type (0, 1), BuildingBlock: KIFKEQ_clean_linker_1, # of connection points: 2
#     Edge 58, Type (0, 1), BuildingBlock: KIFKEQ_clean_linker_1, # of connection points: 2
#     Edge 59, Type (0, 1), BuildingBlock: KIFKEQ_clean_linker_1, # of connection points: 2
#     Edge 60, Type (0, 1), BuildingBlock: KIFKEQ_clean_linker_1, # of connection points: 2
#     Edge 61, Type (0, 1), BuildingBlock: KIFKEQ_clean_linker_1, # of connection points: 2
#     Edge 62, Type (0, 1), BuildingBlock: KIFKEQ_clean_linker_1, # of connection points: 2
#     Edge 63, Type (0, 1), BuildingBlock: KIFKEQ_clean_linker_1, # of connection points: 2
#     Edge 64, Type (0, 1), BuildingBlock: KIFKEQ_clean_linker_1, # of connection points: 2
#     Edge 65, Type (0, 1), BuildingBlock: KIFKEQ_clean_linker_1, # of connection points: 2
#     Edge 66, Type (0, 1), BuildingBlock: KIFKEQ_clean_linker_1, # of connection points: 2
#     Edge 67, Type (0, 1), BuildingBlock: KIFKEQ_clean_linker_1, # of connection points: 2
#     Edge 68, Type (0, 1), BuildingBlock: KIFKEQ_clean_linker_1, # of connection points: 2
#     Edge 69, Type (0, 1), BuildingBlock: KIFKEQ_clean_linker_1, # of connection points: 2
#     Edge 70, Type (0, 1), BuildingBlock: KIFKEQ_clean_linker_1, # of connection points: 2
#     Edge 71, Type (0, 1), BuildingBlock: KIFKEQ_clean_linker_1, # of connection points: 2
#     Edge 72, Type (0, 1), BuildingBlock: KIFKEQ_clean_linker_1, # of connection points: 2
#     Edge 73, Type (0, 1), BuildingBlock: KIFKEQ_clean_linker_1, # of connection points: 2
#     Edge 74, Type (0, 1), BuildingBlock: KIFKEQ_clean_linker_1, # of connection points: 2
#     Edge 75, Type (0, 1), BuildingBlock: KIFKEQ_clean_linker_1, # of connection points: 2
#     Edge 76, Type (0, 1), BuildingBlock: KIFKEQ_clean_linker_1, # of connection points: 2
#     Edge 77, Type (0, 1), BuildingBlock: KIFKEQ_clean_linker_1, # of connection points: 2
#     Edge 78, Type (0, 1), BuildingBlock: KIFKEQ_clean_linker_1, # of connection points: 2
#     Edge 79, Type (0, 1), BuildingBlock: KIFKEQ_clean_linker_1, # of connection points: 2
#     Edge 80, Type (0, 1), BuildingBlock: KIFKEQ_clean_linker_1, # of connection points: 2
# Relax obj value: 0.032
# Max RMSD: 0.129
# Mean RMSD: 0.080
data_MOF--net-eea--node1-CUWYAW_clean_sbu_0--node2-BELTOD_clean_linker_0--edge1-KIFKEQ_clean_linker_1
_symmetry_space_group_name_H-M    P1
_symmetry_Int_Tables_number       1
_symmetry_cell_setting            triclinic
loop_
_symmetry_equiv_pos_as_xyz
'x, y, z'
_cell_length_a     59.502226
_cell_length_b     59.02019
_cell_length_c     85.293481
_cell_angle_alpha  93.885328
_cell_angle_beta   93.434959
_cell_angle_gamma 119.91604
loop_
_atom_site_label
_atom_site_type_symbol
_atom_site_fract_x
_atom_site_fract_y
_atom_site_fract_z
_atom_type_partial_charge
P0 P 0.29026 0.15749 0.40242 0.0
H1 H 0.28418 0.13098 0.37112 0.0
H2 H 0.26059 0.08458 0.36021 0.0
H3 H 0.23265 0.06265 0.40552 0.0
H4 H 0.25634 0.10888 0.41633 0.0
H5 H 0.30903 0.21287 0.40012 0.0
H6 H 0.28791 0.23658 0.39062 0.0
H7 H 0.21517 0.16293 0.37975 0.0
H8 H 0.23629 0.13952 0.38967 0.0
H9 H 0.32814 0.1572 0.42552 0.0
H10 H 0.25895 0.16337 0.42593 0.0
O11 O 0.31993 0.17112 0.39631 0.0
H12 H 0.3312 0.15811 0.45428 0.0
H13 H 0.26212 0.1648 0.45474 0.0
C14 C 0.27245 0.12332 0.39458 0.0
C15 C 0.273 0.11613 0.37868 0.0
C16 C 0.25935 0.08966 0.37245 0.0
C17 C 0.24488 0.06995 0.38204 0.0
C18 C 0.24396 0.07735 0.3979 0.0
C19 C 0.25751 0.10382 0.4041 0.0
C20 C 0.27437 0.17446 0.39526 0.0
C21 C 0.28856 0.20187 0.39563 0.0
C22 C 0.27648 0.21536 0.39015 0.0
C23 C 0.2499 0.20162 0.38428 0.0
C24 C 0.23562 0.17412 0.38427 0.0
C25 C 0.24774 0.16067 0.3898 0.0
C26 C 0.29366 0.16077 0.42367 0.0
C27 C 0.3139 0.15926 0.43185 0.0
C28 C 0.31564 0.15985 0.44829 0.0
C29 C 0.29698 0.16169 0.45681 0.0
C30 C 0.27671 0.16323 0.44852 0.0
C31 C 0.27502 0.16267 0.43207 0.0
P32 P 0.91165 0.09669 0.4292 0.0
H33 H 0.9087 0.07544 0.39711 0.0
H34 H 0.87247 0.04166 0.37866 0.0
H35 H 0.81814 0.03754 0.41129 0.0
H36 H 0.85449 0.07135 0.42976 0.0
H37 H 0.96825 0.12379 0.4304 0.0
H38 H 0.99971 0.16111 0.41811 0.0
H39 H 0.9376 0.17213 0.39833 0.0
H40 H 0.90591 0.13353 0.4101 0.0
H41 H 0.90275 0.07333 0.45878 0.0
H42 H 0.89806 0.1367 0.43948 0.0
O43 O 0.92621 0.07949 0.43317 0.0
H44 H 0.88964 0.08331 0.48362 0.0
H45 H 0.8851 0.14706 0.46452 0.0
C46 C 0.8843 0.07591 0.41477 0.0
C47 C 0.88895 0.06766 0.40016 0.0
C48 C 0.86828 0.04828 0.38968 0.0
C49 C 0.84255 0.03685 0.39362 0.0
C50 C 0.83777 0.04614 0.40793 0.0
C51 C 0.85856 0.06543 0.4185 0.0
C52 C 0.93474 0.12575 0.42104 0.0
C53 C 0.96135 0.1342 0.42342 0.0
C54 C 0.97942 0.15583 0.41648 0.0
C55 C 0.97132 0.16985 0.40721 0.0
C56 C 0.94456 0.16164 0.40518 0.0
C57 C 0.92642 0.13971 0.41201 0.0
C58 C 0.90198 0.10466 0.44741 0.0
C59 C 0.89916 0.08961 0.45994 0.0
C60 C 0.89173 0.09538 0.47417 0.0
C61 C 0.88669 0.11622 0.47613 0.0
C62 C 0.88887 0.13089 0.46338 0.0
C63 C 0.89644 0.12512 0.4491 0.0
P64 P 0.86337 0.71955 0.41559 0.0
H65 H 0.83817 0.71294 0.38395 0.0
H66 H 0.8131 0.73136 0.37236 0.0
H67 H 0.82754 0.77909 0.41663 0.0
H68 H 0.85233 0.76026 0.42818 0.0
H69 H 0.89941 0.70001 0.41341 0.0
H70 H 0.94279 0.71834 0.40449 0.0
H71 H 0.94351 0.79067 0.39798 0.0
H72 H 0.90024 0.7723 0.40719 0.0
H73 H 0.81891 0.69597 0.43342 0.0
H74 H 0.9025 0.74257 0.4438 0.0
O75 O 0.84793 0.68817 0.40771 0.0
H76 H 0.8143 0.69335 0.46156 0.0
H77 H 0.89807 0.74043 0.47214 0.0
C78 C 0.84657 0.73479 0.407 0.0
C79 C 0.83596 0.7274 0.39114 0.0
C80 C 0.82179 0.7381 0.3845 0.0
C81 C 0.81812 0.75656 0.39361 0.0
C82 C 0.82958 0.76456 0.40938 0.0
C83 C 0.84382 0.75387 0.41599 0.0
C84 C 0.89643 0.73459 0.41065 0.0
C85 C 0.90899 0.71987 0.41015 0.0
C86 C 0.93373 0.73033 0.40498 0.0
C87 C 0.94647 0.75583 0.40029 0.0
C88 C 0.93428 0.771 0.40153 0.0
C89 C 0.90946 0.76046 0.4067 0.0
C90 C 0.86099 0.71937 0.43654 0.0
C91 C 0.83628 0.70582 0.44181 0.0
C92 C 0.83368 0.7045 0.45792 0.0
C93 C 0.85582 0.71677 0.46915 0.0
C94 C 0.88065 0.73056 0.46381 0.0
C95 C 0.88321 0.7319 0.44761 0.0
P96 P 0.13018 0.27932 0.59488 0.0
H97 H 0.11306 0.28978 0.62418 0.0
H98 H 0.07051 0.27169 0.63409 0.0
H99 H 0.03471 0.21933 0.59078 0.0
H100 H 0.07765 0.23777 0.58088 0.0
H101 H 0.16881 0.29241 0.62183 0.0
H102 H 0.19222 0.27094 0.63124 0.0
H103 H 0.14887 0.20665 0.59422 0.0
H104 H 0.12512 0.22822 0.58493 0.0
H105 H 0.09957 0.28913 0.57098 0.0
H106 H 0.1621 0.272 0.57244 0.0
O107 O 0.14758 0.31084 0.60246 0.0
H108 H 0.10384 0.29581 0.54308 0.0
H109 H 0.16554 0.27718 0.54457 0.0
C110 C 0.09838 0.26559 0.60166 0.0
C111 C 0.09604 0.27452 0.61677 0.0
C112 C 0.07172 0.26397 0.62248 0.0
C113 C 0.04919 0.2441 0.61321 0.0
C114 C 0.05165 0.23487 0.59811 0.0
C115 C 0.07614 0.24538 0.59244 0.0
C116 C 0.14573 0.26221 0.60244 0.0
C117 C 0.16421 0.27365 0.61576 0.0
C118 C 0.17748 0.26128 0.62119 0.0
C119 C 0.17251 0.23723 0.61338 0.0
C120 C 0.15331 0.22534 0.60033 0.0
C121 C 0.13974 0.23759 0.59505 0.0
C122 C 0.12989 0.2792 0.57372 0.0
C123 C 0.1136 0.28592 0.56518 0.0
C124 C 0.11607 0.28972 0.5492 0.0
C125 C 0.13509 0.28708 0.54153 0.0
C126 C 0.15092 0.27972 0.5501 0.0
C127 C 0.14862 0.27625 0.56606 0.0
P128 P 0.80887 0.90032 0.58757 0.0
H129 H 0.84101 0.938 0.61438 0.0
H130 H 0.83801 0.97237 0.62998 0.0
H131 H 0.76535 0.95019 0.6023 0.0
H132 H 0.76876 0.91595 0.58653 0.0
H133 H 0.81254 0.85378 0.57991 0.0
H134 H 0.80688 0.81786 0.59497 0.0
H135 H 0.77983 0.84794 0.6325 0.0
H136 H 0.7859 0.884 0.61746 0.0
H137 H 0.82268 0.92208 0.55774 0.0
H138 H 0.75525 0.85985 0.57529 0.0
O139 O 0.84039 0.91339 0.58508 0.0
H140 H 0.79916 0.91004 0.53132 0.0
H141 H 0.73149 0.84751 0.54873 0.0
C142 C 0.8054 0.92481 0.59914 0.0
C143 C 0.82444 0.94055 0.61166 0.0
C144 C 0.82255 0.96003 0.62067 0.0
C145 C 0.80142 0.96404 0.61739 0.0
C146 C 0.78202 0.9478 0.605 0.0
C147 C 0.78393 0.9282 0.59599 0.0
C148 C 0.79998 0.8717 0.59764 0.0
C149 C 0.80498 0.85236 0.59127 0.0
C150 C 0.80157 0.83175 0.59986 0.0
C151 C 0.7931 0.83016 0.61501 0.0
C152 C 0.78678 0.84886 0.62098 0.0
C153 C 0.79018 0.86947 0.61236 0.0
C154 C 0.79086 0.89148 0.56834 0.0
C155 C 0.80283 0.90569 0.55587 0.0
C156 C 0.7894 0.89873 0.54076 0.0
C157 C 0.7636 0.87759 0.53791 0.0
C158 C 0.75135 0.86387 0.55058 0.0
C159 C 0.76492 0.87079 0.56571 0.0
P160 P 0.13317 0.84806 0.59904 0.0
H161 H 0.16 0.87013 0.63075 0.0
H162 H 0.18327 0.91493 0.64424 0.0
H163 H 0.16395 0.94298 0.60292 0.0
H164 H 0.14023 0.89799 0.58966 0.0
H165 H 0.0985 0.79222 0.60078 0.0
H166 H 0.05443 0.76704 0.6085 0.0
H167 H 0.05065 0.83831 0.61473 0.0
H168 H 0.09455 0.86325 0.60665 0.0
H169 H 0.17771 0.87425 0.58145 0.0
H170 H 0.09448 0.8239 0.57075 0.0
O171 O 0.14898 0.83328 0.60565 0.0
H172 H 0.18266 0.87495 0.55325 0.0
H173 H 0.09932 0.82397 0.54247 0.0
C174 C 0.14901 0.88091 0.60909 0.0
C175 C 0.16076 0.88594 0.62462 0.0
C176 C 0.1741 0.91156 0.63229 0.0
C177 C 0.17575 0.93259 0.62458 0.0
C178 C 0.16298 0.92724 0.60921 0.0
C179 C 0.14962 0.90157 0.60156 0.0
C180 C 0.09998 0.82965 0.60353 0.0
C181 C 0.08813 0.80239 0.60375 0.0
C182 C 0.06298 0.78805 0.60822 0.0
C183 C 0.04917 0.80073 0.61246 0.0
C184 C 0.06071 0.82793 0.6115 0.0
C185 C 0.08591 0.84226 0.60701 0.0
C186 C 0.13577 0.84914 0.57818 0.0
C187 C 0.16049 0.86338 0.573 0.0
C188 C 0.1633 0.86359 0.55688 0.0
C189 C 0.1414 0.84936 0.54559 0.0
C190 C 0.11655 0.83533 0.55085 0.0
C191 C 0.11377 0.83518 0.56703 0.0
P192 P 0.95824 0.49065 0.73314 0.0
H193 H 0.95853 0.46293 0.70358 0.0
H194 H 0.93344 0.41666 0.69246 0.0
H195 H 0.89071 0.3977 0.73339 0.0
H196 H 0.91562 0.44407 0.74434 0.0
H197 H 0.9632 0.51953 0.70599 0.0
H198 H 0.93911 0.53977 0.69546 0.0
H199 H 0.89047 0.5156 0.7336 0.0
H200 H 0.91417 0.4946 0.74385 0.0
H201 H 0.97006 0.46052 0.75436 0.0
H202 H 0.96006 0.52812 0.7587 0.0
O203 O 0.98751 0.50429 0.72649 0.0
H204 H 0.97707 0.46344 0.78311 0.0
H205 H 0.96682 0.53099 0.78752 0.0
C206 C 0.9395 0.4567 0.725 0.0
C207 C 0.94381 0.44879 0.71017 0.0
C208 C 0.92933 0.42243 0.70377 0.0
C209 C 0.91031 0.40359 0.71214 0.0
C210 C 0.90554 0.41176 0.72681 0.0
C211 C 0.91979 0.43819 0.73309 0.0
C212 C 0.94109 0.50646 0.72603 0.0
C213 C 0.9475 0.51874 0.71217 0.0
C214 C 0.93361 0.5301 0.70609 0.0
C215 C 0.91313 0.5294 0.71382 0.0
C216 C 0.90644 0.5167 0.72757 0.0
C217 C 0.92003 0.50487 0.73347 0.0
C218 C 0.96341 0.49337 0.75439 0.0
C219 C 0.9691 0.47583 0.7615 0.0
C220 C 0.97334 0.47766 0.77793 0.0
C221 C 0.97221 0.49728 0.78756 0.0
C222 C 0.96728 0.51535 0.78039 0.0
C223 C 0.96328 0.51363 0.76392 0.0
P224 P 0.57048 0.4377 0.76272 0.0
H225 H 0.5724 0.39923 0.74066 0.0
H226 H 0.53956 0.36283 0.72197 0.0
H227 H 0.48228 0.38389 0.73413 0.0
H228 H 0.51568 0.42103 0.75228 0.0
H229 H 0.62268 0.48051 0.77365 0.0
H230 H 0.65603 0.51583 0.7607 0.0
H231 H 0.60236 0.49078 0.71822 0.0
H232 H 0.56875 0.45603 0.73151 0.0
H233 H 0.52845 0.40574 0.78099 0.0
H234 H 0.58125 0.48849 0.77913 0.0
O235 O 0.58717 0.42523 0.77135 0.0
H236 H 0.51164 0.41609 0.80414 0.0
H237 H 0.56469 0.49896 0.80247 0.0
C238 C 0.54626 0.41229 0.74818 0.0
C239 C 0.55278 0.39604 0.73924 0.0
C240 C 0.53391 0.37514 0.72863 0.0
C241 C 0.50808 0.37002 0.72677 0.0
C242 C 0.50195 0.38719 0.73524 0.0
C243 C 0.52097 0.4083 0.74577 0.0
C244 C 0.59341 0.46547 0.75349 0.0
C245 C 0.61801 0.48283 0.76161 0.0
C246 C 0.63712 0.50289 0.75413 0.0
C247 C 0.63205 0.50586 0.7383 0.0
C248 C 0.60691 0.4891 0.73042 0.0
C249 C 0.5877 0.4691 0.73798 0.0
C250 C 0.55581 0.4463 0.77817 0.0
C251 C 0.53603 0.42617 0.78536 0.0
C252 C 0.52642 0.43212 0.79859 0.0
C253 C 0.53681 0.45835 0.8051 0.0
C254 C 0.5564 0.47856 0.79774 0.0
C255 C 0.5658 0.47258 0.78435 0.0
P256 P 0.52872 0.04934 0.7485 0.0
H257 H 0.49497 0.03494 0.719 0.0
H258 H 0.47014 0.05324 0.7071 0.0
H259 H 0.50049 0.11481 0.74625 0.0
H260 H 0.52614 0.09681 0.75776 0.0
H261 H 0.54743 0.03647 0.72066 0.0
H262 H 0.58986 0.0557 0.71072 0.0
H263 H 0.62309 0.11408 0.75163 0.0
H264 H 0.57991 0.09516 0.76116 0.0
H265 H 0.49017 0.048 0.76846 0.0
H266 H 0.56425 0.05137 0.77491 0.0
O267 O 0.51276 0.01735 0.7419 0.0
H268 H 0.48561 0.04409 0.79647 0.0
H269 H 0.55965 0.04714 0.80309 0.0
C270 C 0.51174 0.06407 0.73949 0.0
C271 C 0.49629 0.05239 0.72502 0.0
C272 C 0.48198 0.06282 0.71827 0.0
C273 C 0.48285 0.08523 0.72586 0.0
C274 C 0.49933 0.09757 0.74006 0.0
C275 C 0.51385 0.08719 0.74673 0.0
C276 C 0.56072 0.06382 0.74191 0.0
C277 C 0.56388 0.05326 0.72758 0.0
C278 C 0.58827 0.06426 0.72193 0.0
C279 C 0.61015 0.08617 0.7305 0.0
C280 C 0.60673 0.09721 0.74471 0.0
C281 C 0.58212 0.08626 0.75028 0.0
C282 C 0.52804 0.05104 0.76965 0.0
C283 C 0.50584 0.04864 0.77597 0.0
C284 C 0.50307 0.04603 0.79199 0.0
C285 C 0.52226 0.04529 0.80202 0.0
C286 C 0.54472 0.04806 0.79572 0.0
C287 C 0.54742 0.05059 0.77962 0.0
P288 P 0.79593 0.61409 0.92637 0.0
H289 H 0.76928 0.63866 0.94098 0.0
H290 H 0.72716 0.62131 0.95117 0.0
H291 H 0.71056 0.54205 0.93768 0.0
H292 H 0.75257 0.55985 0.92676 0.0
H293 H 0.84141 0.61618 0.91437 0.0
H294 H 0.86845 0.5975 0.92204 0.0
H295 H 0.81741 0.55809 0.95723 0.0
H296 H 0.79065 0.57725 0.94974 0.0
H297 H 0.799 0.65417 0.90694 0.0
H298 H 0.7844 0.57477 0.89955 0.0
O299 O 0.81451 0.64507 0.93473 0.0
H300 H 0.79887 0.65681 0.8785 0.0
H301 H 0.78399 0.57713 0.87095 0.0
C302 C 0.76441 0.60053 0.93359 0.0
C303 C 0.75665 0.61754 0.94025 0.0
C304 C 0.73252 0.60754 0.94618 0.0
C305 C 0.71556 0.58022 0.9456 0.0
C306 C 0.72305 0.56318 0.93835 0.0
C307 C 0.74717 0.57329 0.93224 0.0
C308 C 0.81352 0.59747 0.93112 0.0
C309 C 0.83574 0.60314 0.92355 0.0
C310 C 0.85128 0.59261 0.928 0.0
C311 C 0.84491 0.57622 0.94015 0.0
C312 C 0.82249 0.57031 0.94764 0.0
C313 C 0.80712 0.58118 0.94331 0.0
C314 C 0.79234 0.61451 0.90533 0.0
C315 C 0.7955 0.6372 0.89916 0.0
C316 C 0.79523 0.6386 0.88287 0.0
C317 C 0.79168 0.61726 0.87246 0.0
C318 C 0.78723 0.59406 0.87868 0.0
C319 C 0.78737 0.59264 0.89499 0.0
P320 P 0.46149 0.22662 0.92057 0.0
H321 H 0.50045 0.26774 0.94396 0.0
H322 H 0.50076 0.30286 0.96103 0.0
H323 H 0.42041 0.27421 0.94363 0.0
H324 H 0.42017 0.23886 0.92664 0.0
H325 H 0.47626 0.18709 0.91437 0.0
H326 H 0.47446 0.15248 0.92936 0.0
H327 H 0.43533 0.17156 0.96451 0.0
H328 H 0.43714 0.20616 0.9494 0.0
H329 H 0.44837 0.2564 0.89994 0.0
H330 H 0.42519 0.17497 0.90252 0.0
O331 O 0.49107 0.24032 0.91434 0.0
H332 H 0.42141 0.24431 0.8747 0.0
H333 H 0.39842 0.16281 0.87711 0.0
C334 C 0.46056 0.25124 0.93372 0.0
C335 C 0.48288 0.26898 0.94385 0.0
C336 C 0.48296 0.2889 0.95368 0.0
C337 C 0.46065 0.29139 0.95357 0.0
C338 C 0.43798 0.27299 0.94378 0.0
C339 C 0.43785 0.25284 0.93406 0.0
C340 C 0.45727 0.19944 0.93092 0.0
C341 C 0.46707 0.18364 0.92523 0.0
C342 C 0.46585 0.16375 0.93374 0.0
C343 C 0.45488 0.15942 0.94816 0.0
C344 C 0.44417 0.17468 0.95353 0.0
C345 C 0.44518 0.19443 0.9449 0.0
C346 C 0.43846 0.21658 0.90326 0.0
C347 C 0.43701 0.23584 0.89525 0.0
C348 C 0.42157 0.2289 0.88083 0.0
C349 C 0.40773 0.2026 0.87399 0.0
C350 C 0.40893 0.18324 0.88213 0.0
C351 C 0.42417 0.19018 0.89668 0.0
P352 P 0.80112 0.17841 0.93067 0.0
H353 H 0.82887 0.20322 0.96183 0.0
H354 H 0.85276 0.24895 0.97383 0.0
H355 H 0.83383 0.27341 0.93078 0.0
H356 H 0.8096 0.22758 0.91897 0.0
H357 H 0.7655 0.12302 0.93301 0.0
H358 H 0.72209 0.09922 0.94188 0.0
H359 H 0.72127 0.172 0.94896 0.0
H360 H 0.76452 0.19557 0.9398 0.0
H361 H 0.83916 0.17944 0.91049 0.0
H362 H 0.76463 0.17518 0.90457 0.0
O363 O 0.81697 0.16395 0.93776 0.0
H364 H 0.8413 0.17917 0.88199 0.0
H365 H 0.76647 0.17461 0.87591 0.0
C366 C 0.81802 0.21212 0.93941 0.0
C367 C 0.82993 0.21845 0.95497 0.0
C368 C 0.84362 0.2446 0.9618 0.0
C369 C 0.84544 0.26486 0.9532 0.0
C370 C 0.83271 0.25827 0.93775 0.0
C371 C 0.81905 0.23209 0.93092 0.0
C372 C 0.76841 0.16109 0.93609 0.0
C373 C 0.75592 0.13381 0.93642 0.0
C374 C 0.73116 0.12027 0.94155 0.0
C375 C 0.71837 0.13377 0.94633 0.0
C376 C 0.73055 0.16101 0.94532 0.0
C377 C 0.75537 0.17455 0.9402 0.0
C378 C 0.8015 0.17676 0.90957 0.0
C379 C 0.82307 0.17806 0.903 0.0
C380 C 0.82423 0.17783 0.8867 0.0
C381 C 0.80393 0.17661 0.87666 0.0
C382 C 0.78243 0.17562 0.88333 0.0
C383 C 0.78125 0.17573 0.89968 0.0
P384 P 0.62618 0.82126 0.06768 0.0
H385 H 0.6269 0.79398 0.03807 0.0
H386 H 0.60191 0.74784 0.02669 0.0
H387 H 0.55781 0.72839 0.06703 0.0
H388 H 0.58262 0.77463 0.07824 0.0
H389 H 0.63561 0.85327 0.04164 0.0
H390 H 0.61388 0.87523 0.03067 0.0
H391 H 0.55989 0.84807 0.06614 0.0
H392 H 0.58095 0.82478 0.0764 0.0
H393 H 0.637 0.79082 0.08914 0.0
H394 H 0.62592 0.85777 0.0931 0.0
O395 O 0.65596 0.83429 0.06178 0.0
H396 H 0.64257 0.79318 0.11793 0.0
H397 H 0.63123 0.86007 0.12193 0.0
C398 C 0.60716 0.78749 0.05922 0.0
C399 C 0.61186 0.77977 0.04446 0.0
C400 C 0.59745 0.75348 0.03792 0.0
C401 C 0.57811 0.73452 0.04607 0.0
C402 C 0.57289 0.74253 0.06063 0.0
C403 C 0.58708 0.7689 0.06705 0.0
C404 C 0.61047 0.83822 0.06019 0.0
C405 C 0.61921 0.8522 0.04713 0.0
C406 C 0.60678 0.86488 0.0409 0.0
C407 C 0.58534 0.86391 0.04766 0.0
C408 C 0.57624 0.84922 0.06055 0.0
C409 C 0.58848 0.83618 0.0666 0.0
C410 C 0.63 0.82343 0.08895 0.0
C411 C 0.63549 0.80586 0.0962 0.0
C412 C 0.63889 0.80737 0.11265 0.0
C413 C 0.63708 0.82667 0.12218 0.0
C414 C 0.63222 0.84468 0.11488 0.0
C415 C 0.62906 0.84329 0.09839 0.0
P416 P 0.24164 0.77069 0.09513 0.0
H417 H 0.23908 0.73519 0.06893 0.0
H418 H 0.20306 0.70039 0.05091 0.0
H419 H 0.1492 0.71818 0.07284 0.0
H420 H 0.18543 0.75293 0.09095 0.0
H421 H 0.29153 0.81708 0.10625 0.0
H422 H 0.32283 0.85381 0.09315 0.0
H423 H 0.26834 0.82503 0.05086 0.0
H424 H 0.23728 0.78819 0.064 0.0
H425 H 0.22111 0.74089 0.1215 0.0
H426 H 0.23589 0.81542 0.10729 0.0
O427 O 0.25995 0.75782 0.10046 0.0
H428 H 0.20558 0.74946 0.14578 0.0
H429 H 0.21999 0.82409 0.13157 0.0
C430 C 0.21485 0.74627 0.08143 0.0
C431 C 0.21952 0.73163 0.06983 0.0
C432 C 0.19893 0.71189 0.05946 0.0
C433 C 0.17323 0.70645 0.06047 0.0
C434 C 0.16872 0.72166 0.0719 0.0
C435 C 0.18942 0.74155 0.08224 0.0
C436 C 0.26223 0.79981 0.08608 0.0
C437 C 0.28619 0.81893 0.09424 0.0
C438 C 0.30401 0.83999 0.08674 0.0
C439 C 0.29817 0.84226 0.07089 0.0
C440 C 0.2736 0.82361 0.06298 0.0
C441 C 0.25576 0.80258 0.07052 0.0
C442 C 0.23005 0.7777 0.11278 0.0
C443 C 0.221 0.75914 0.12364 0.0
C444 C 0.21192 0.76398 0.13746 0.0
C445 C 0.21155 0.78748 0.14063 0.0
C446 C 0.22035 0.80596 0.12957 0.0
C447 C 0.22939 0.80102 0.11568 0.0
P448 P 0.19619 0.38773 0.08241 0.0
H449 H 0.17336 0.38383 0.05053 0.0
H450 H 0.14854 0.40263 0.03914 0.0
H451 H 0.15879 0.44596 0.08446 0.0
H452 H 0.18342 0.42679 0.09581 0.0
H453 H 0.23302 0.36905 0.08193 0.0
H454 H 0.27663 0.38726 0.07337 0.0
H455 H 0.27621 0.45821 0.06427 0.0
H456 H 0.23276 0.44002 0.07317 0.0
H457 H 0.15077 0.36504 0.09952 0.0
H458 H 0.23423 0.40612 0.11104 0.0
O459 O 0.18098 0.35677 0.07381 0.0
H460 H 0.1448 0.35932 0.12732 0.0
H461 H 0.22844 0.39993 0.13894 0.0
C462 C 0.1797 0.40346 0.07406 0.0
C463 C 0.17031 0.39743 0.058 0.0
C464 C 0.15627 0.40835 0.05148 0.0
C465 C 0.15149 0.42566 0.06092 0.0
C466 C 0.16173 0.43234 0.07694 0.0
C467 C 0.17587 0.42145 0.08343 0.0
C468 C 0.22951 0.40299 0.07793 0.0
C469 C 0.24243 0.38863 0.07822 0.0
C470 C 0.2673 0.399 0.07324 0.0
C471 C 0.27977 0.42404 0.0679 0.0
C472 C 0.26721 0.43891 0.06834 0.0
C473 C 0.24228 0.42846 0.07335 0.0
C474 C 0.19289 0.38593 0.10322 0.0
C475 C 0.16783 0.37291 0.10807 0.0
C476 C 0.16446 0.36948 0.12396 0.0
C477 C 0.18614 0.37889 0.13536 0.0
C478 C 0.21133 0.39256 0.13049 0.0
C479 C 0.21468 0.39601 0.11452 0.0
P480 P 0.46379 0.94868 0.2609 0.0
H481 H 0.44791 0.95091 0.29214 0.0
H482 H 0.40545 0.93257 0.30226 0.0
H483 H 0.36761 0.89462 0.25548 0.0
H484 H 0.41028 0.9135 0.2454 0.0
H485 H 0.51867 0.96513 0.26191 0.0
H486 H 0.54398 0.94494 0.27028 0.0
H487 H 0.47343 0.87708 0.28098 0.0
H488 H 0.44828 0.89757 0.27272 0.0
H489 H 0.46139 0.98483 0.24013 0.0
H490 H 0.46154 0.91173 0.23514 0.0
O491 O 0.48059 0.97998 0.26893 0.0
H492 H 0.4635 0.98731 0.21174 0.0
H493 H 0.46325 0.91381 0.20665 0.0
C494 C 0.43219 0.93389 0.26801 0.0
C495 C 0.43045 0.93864 0.28407 0.0
C496 C 0.40616 0.92795 0.28986 0.0
C497 C 0.38308 0.91215 0.27968 0.0
C498 C 0.38497 0.90701 0.26359 0.0
C499 C 0.40936 0.91772 0.25782 0.0
C500 C 0.48175 0.93309 0.26699 0.0
C501 C 0.50869 0.94593 0.2661 0.0
C502 C 0.52308 0.93426 0.27075 0.0
C503 C 0.51073 0.90942 0.27634 0.0
C504 C 0.48357 0.89639 0.27695 0.0
C505 C 0.46916 0.90807 0.27222 0.0
C506 C 0.46196 0.94845 0.23975 0.0
C507 C 0.4616 0.96917 0.23287 0.0
C508 C 0.46261 0.97045 0.21661 0.0
C509 C 0.46383 0.95089 0.20693 0.0
C510 C 0.46284 0.92944 0.21382 0.0
C511 C 0.46179 0.92819 0.23009 0.0
P512 P 0.12872 0.56076 0.24977 0.0
H513 H 0.16872 0.60113 0.27301 0.0
H514 H 0.17197 0.63906 0.28866 0.0
H515 H 0.09382 0.61635 0.26944 0.0
H516 H 0.09054 0.57804 0.25403 0.0
H517 H 0.13537 0.51589 0.24278 0.0
H518 H 0.1317 0.48107 0.25821 0.0
H519 H 0.10343 0.51002 0.2956 0.0
H520 H 0.10757 0.5451 0.28014 0.0
H521 H 0.12877 0.58891 0.22338 0.0
H522 H 0.07881 0.51248 0.23811 0.0
O523 O 0.15822 0.57201 0.24367 0.0
H524 H 0.10026 0.57661 0.19879 0.0
H525 H 0.04986 0.50005 0.21352 0.0
C526 C 0.12968 0.58722 0.2621 0.0
C527 C 0.15227 0.60428 0.27221 0.0
C528 C 0.15413 0.626 0.28108 0.0
C529 C 0.13332 0.63098 0.28006 0.0
C530 C 0.11018 0.61308 0.27046 0.0
C531 C 0.10836 0.59129 0.26157 0.0
C532 C 0.12225 0.53331 0.26046 0.0
C533 C 0.12812 0.51454 0.25423 0.0
C534 C 0.12578 0.49451 0.26302 0.0
C535 C 0.11745 0.49288 0.2782 0.0
C536 C 0.11029 0.51101 0.28405 0.0
C537 C 0.11261 0.53104 0.27521 0.0
C538 C 0.10607 0.55152 0.23242 0.0
C539 C 0.11149 0.56953 0.22135 0.0
C540 C 0.09504 0.56252 0.20736 0.0
C541 C 0.07277 0.53733 0.2042 0.0
C542 C 0.06703 0.51949 0.21555 0.0
C543 C 0.08353 0.52659 0.22961 0.0
P544 P 0.46546 0.51201 0.26545 0.0
H545 H 0.48856 0.53757 0.29727 0.0
H546 H 0.51205 0.58364 0.30869 0.0
H547 H 0.5001 0.60695 0.26341 0.0
H548 H 0.47698 0.56094 0.25206 0.0
H549 H 0.43044 0.45659 0.26803 0.0
H550 H 0.38646 0.43224 0.27605 0.0
H551 H 0.38391 0.50423 0.2816 0.0
H552 H 0.42776 0.52835 0.27329 0.0
H553 H 0.50415 0.51269 0.24592 0.0
H554 H 0.42937 0.50766 0.23878 0.0
O555 O 0.48166 0.49839 0.27325 0.0
H556 H 0.50708 0.5121 0.21748 0.0
H557 H 0.43199 0.50673 0.21021 0.0
C558 C 0.48156 0.54591 0.27376 0.0
C559 C 0.49103 0.55263 0.28982 0.0
C560 C 0.50426 0.57895 0.29635 0.0
C561 C 0.50812 0.59899 0.28692 0.0
C562 C 0.49787 0.59203 0.27092 0.0
C563 C 0.48459 0.56569 0.26441 0.0
C564 C 0.43253 0.49431 0.27045 0.0
C565 C 0.42037 0.46709 0.27095 0.0
C566 C 0.39528 0.45323 0.27557 0.0
C567 C 0.38182 0.46636 0.27966 0.0
C568 C 0.39371 0.49353 0.27848 0.0
C569 C 0.41887 0.50739 0.27387 0.0
C570 C 0.46631 0.50966 0.24439 0.0
C571 C 0.48816 0.51103 0.23818 0.0
C572 C 0.48978 0.51062 0.22192 0.0
C573 C 0.46966 0.50915 0.21157 0.0
C574 C 0.44783 0.50796 0.21788 0.0
C575 C 0.4462 0.50827 0.23418 0.0
C576 C 0.53515 0.02193 0.05213 0.0
Eu577 Eu 0.51501 0.01491 0.02298 0.0
C578 C 0.52621 0.0127 0.06738 0.0
C579 C 0.53969 0.02915 0.08137 0.0
C580 C 0.53169 0.02076 0.09601 0.0
C581 C 0.50997 0.99575 0.09692 0.0
C582 C 0.49633 0.97938 0.08283 0.0
C583 C 0.50445 0.98776 0.06818 0.0
C584 C 0.49787 0.04441 0.00963 0.0
C585 C 0.45263 0.97088 0.01888 0.0
C586 C 0.46431 0.98571 0.96078 0.0
Eu587 Eu 0.48526 0.99264 0.98977 0.0
C588 C 0.47209 0.99268 0.94497 0.0
C589 C 0.45435 0.9782 0.93165 0.0
C590 C 0.46097 0.98489 0.91652 0.0
C591 C 0.48556 0.00619 0.91442 0.0
C592 C 0.50348 0.02047 0.92782 0.0
C593 C 0.49672 0.01383 0.94298 0.0
C594 C 0.50342 0.9637 0.00304 0.0
C595 C 0.54822 0.03587 0.99399 0.0
O596 O 0.53405 0.00446 0.04133 0.0
O597 O 0.52752 0.03728 0.04638 0.0
O598 O 0.51996 0.05429 0.01839 0.0
O599 O 0.48533 0.01966 0.00894 0.0
O600 O 0.47534 0.98195 0.02772 0.0
O601 O 0.45089 0.9748 0.00389 0.0
O602 O 0.46842 0.00502 0.97123 0.0
O603 O 0.47005 0.96914 0.96673 0.0
O604 O 0.48138 0.95333 0.99415 0.0
O605 O 0.51519 0.98837 0.00368 0.0
O606 O 0.52568 0.0247 0.98486 0.0
O607 O 0.54946 0.03235 0.00908 0.0
H608 H 0.55646 0.0485 0.08096 0.0
H609 H 0.54237 0.03399 0.10662 0.0
H610 H 0.47969 0.95992 0.08315 0.0
H611 H 0.49387 0.97471 0.0575 0.0
H612 H 0.43525 0.96177 0.93296 0.0
H613 H 0.44688 0.97328 0.90643 0.0
H614 H 0.52248 0.0371 0.9266 0.0
H615 H 0.51054 0.02534 0.95315 0.0
C616 C 0.99125 0.52194 0.04236 0.0
Eu617 Eu 0.99085 0.50433 0.01346 0.0
C618 C 0.99528 0.51698 0.05872 0.0
C619 C 0.9751 0.50988 0.06843 0.0
C620 C 0.9789 0.50664 0.08426 0.0
C621 C 0.00308 0.51069 0.09074 0.0
C622 C 0.0231 0.51723 0.08087 0.0
C623 C 0.01923 0.52028 0.06501 0.0
C624 C 0.95762 0.45455 0.99975 0.0
C625 C 0.03073 0.48158 0.01122 0.0
C626 C 1.00041 0.47152 0.95234 0.0
Eu627 Eu 0.00286 0.49059 0.98124 0.0
C628 C 0.99633 0.47688 0.93612 0.0
C629 C 0.00883 0.5026 0.93182 0.0
C630 C 0.00564 0.50702 0.91616 0.0
C631 C 0.9897 0.48584 0.90457 0.0
C632 C 0.97674 0.4602 0.90901 0.0
C633 C 0.98011 0.45578 0.92464 0.0
C634 C 0.03702 0.54 0.99484 0.0
C635 C 0.96431 0.51504 0.98381 0.0
O636 O 0.01158 0.53223 0.03439 0.0
O637 O 0.97008 0.50377 0.03377 0.0
O638 O 0.95019 0.46832 0.00808 0.0
O639 O 0.98195 0.46692 0.99982 0.0
O640 O 0.02362 0.49605 0.01977 0.0
O641 O 0.02145 0.47307 0.99621 0.0
O642 O 0.98028 0.46264 0.96048 0.0
O643 O 0.02223 0.48881 0.96079 0.0
O644 O 0.04358 0.52607 0.9859 0.0
O645 O 0.01267 0.52822 0.99506 0.0
O646 O 0.97064 0.49999 0.97516 0.0
O647 O 0.97371 0.52324 0.99879 0.0
H648 H 0.95646 0.5072 0.06383 0.0
H649 H 0.96294 0.50121 0.09144 0.0
H650 H 0.04209 0.52087 0.0855 0.0
H651 H 0.03518 0.52575 0.05781 0.0
H652 H 0.02126 0.51926 0.94051 0.0
H653 H 0.01563 0.52701 0.91311 0.0
H654 H 0.96455 0.44347 0.90031 0.0
H655 H 0.97031 0.4358 0.92772 0.0
C656 C 0.46256 0.47265 0.96106 0.0
Eu657 Eu 0.48227 0.49465 0.98983 0.0
C658 C 0.47093 0.47373 0.94499 0.0
C659 C 0.47632 0.49508 0.93639 0.0
C660 C 0.48317 0.49513 0.92098 0.0
C661 C 0.48473 0.47384 0.91382 0.0
C662 C 0.47959 0.45267 0.92253 0.0
C663 C 0.47266 0.45257 0.93789 0.0
C664 C 0.4994 0.54513 0.00129 0.0
C665 C 0.54567 0.51869 0.99376 0.0
C666 C 0.53237 0.53433 0.05159 0.0
Eu667 Eu 0.51261 0.51222 0.02285 0.0
C668 C 0.5232 0.53126 0.06731 0.0
C669 C 0.49856 0.51042 0.06958 0.0
C670 C 0.49023 0.50747 0.08468 0.0
C671 C 0.50642 0.52537 0.09773 0.0
C672 C 0.531 0.54637 0.09531 0.0
C673 C 0.5393 0.54927 0.08022 0.0
C674 C 0.49672 0.46221 0.01131 0.0
C675 C 0.4491 0.48747 0.01896 0.0
O676 O 0.47164 0.46276 0.97124 0.0
O677 O 0.46162 0.49295 0.96742 0.0
O678 O 0.47743 0.53054 0.99251 0.0
O679 O 0.51175 0.53311 0.00269 0.0
O680 O 0.52311 0.50398 0.98487 0.0
O681 O 0.54684 0.52774 0.00857 0.0
O682 O 0.52194 0.54338 0.04169 0.0
O683 O 0.53426 0.51476 0.04501 0.0
O684 O 0.5184 0.47716 0.02027 0.0
O685 O 0.48364 0.47354 0.00989 0.0
O686 O 0.47164 0.50235 0.02781 0.0
O687 O 0.44801 0.4788 0.00408 0.0
H688 H 0.475 0.51164 0.94147 0.0
H689 H 0.4867 0.51161 0.91455 0.0
H690 H 0.48102 0.43614 0.91751 0.0
H691 H 0.4685 0.4358 0.94421 0.0
H692 H 0.48584 0.49638 0.05968 0.0
H693 H 0.47109 0.49127 0.08612 0.0
H694 H 0.54406 0.56029 0.10514 0.0
H695 H 0.55839 0.56545 0.07864 0.0
C696 C 0.19761 0.36041 0.38529 0.0
Eu697 Eu 0.17808 0.35124 0.35587 0.0
C698 C 0.1883 0.35197 0.4007 0.0
C699 C 0.19119 0.37082 0.41281 0.0
C700 C 0.18332 0.36354 0.42766 0.0
C701 C 0.17263 0.33722 0.4308 0.0
C702 C 0.16938 0.31826 0.41856 0.0
C703 C 0.17708 0.32553 0.40366 0.0
C704 C 0.16115 0.37941 0.34074 0.0
C705 C 0.11594 0.30612 0.35234 0.0
C706 C 0.12812 0.31624 0.2937 0.0
Eu707 Eu 0.14845 0.32592 0.32303 0.0
C708 C 0.13602 0.3243 0.27806 0.0
C709 C 0.12205 0.30659 0.26459 0.0
C710 C 0.1287 0.31376 0.24955 0.0
C711 C 0.14949 0.33888 0.24765 0.0
C712 C 0.16377 0.3565 0.26124 0.0
C713 C 0.15706 0.34927 0.27633 0.0
C714 C 0.1666 0.29854 0.33819 0.0
C715 C 0.21108 0.3698 0.32671 0.0
O716 O 0.19775 0.34294 0.37503 0.0
O717 O 0.18981 0.37509 0.37874 0.0
O718 O 0.18321 0.38989 0.34961 0.0
O719 O 0.14843 0.35477 0.34087 0.0
O720 O 0.13853 0.31917 0.36132 0.0
O721 O 0.11396 0.30758 0.33698 0.0
O722 O 0.12827 0.33386 0.30396 0.0
O723 O 0.13717 0.30243 0.30004 0.0
O724 O 0.14445 0.28739 0.32936 0.0
O725 O 0.17844 0.32304 0.33785 0.0
O726 O 0.18847 0.35806 0.31765 0.0
O727 O 0.21249 0.36738 0.34196 0.0
H728 H 0.1997 0.3913 0.41081 0.0
H729 H 0.18568 0.3786 0.43668 0.0
H730 H 0.16152 0.29788 0.42059 0.0
H731 H 0.17453 0.31049 0.39455 0.0
H732 H 0.10587 0.28717 0.26571 0.0
H733 H 0.11761 0.29952 0.23938 0.0
H734 H 0.17978 0.37603 0.2602 0.0
H735 H 0.16812 0.36323 0.28661 0.0
C736 C 0.66066 0.85527 0.37812 0.0
Eu737 Eu 0.6578 0.83655 0.34904 0.0
C738 C 0.66855 0.85279 0.39431 0.0
C739 C 0.65286 0.85128 0.40626 0.0
C740 C 0.66045 0.85017 0.42187 0.0
C741 C 0.68398 0.85065 0.42584 0.0
C742 C 0.69941 0.85159 0.41374 0.0
C743 C 0.69175 0.85262 0.39811 0.0
C744 C 0.62373 0.78665 0.33596 0.0
C745 C 0.69733 0.81366 0.34539 0.0
C746 C 0.66222 0.80118 0.28718 0.0
Eu747 Eu 0.66723 0.82168 0.31609 0.0
C748 C 0.6581 0.8065 0.27097 0.0
C749 C 0.67048 0.83223 0.26669 0.0
C750 C 0.66742 0.83664 0.25101 0.0
C751 C 0.65172 0.81542 0.23938 0.0
C752 C 0.63882 0.78977 0.24382 0.0
C753 C 0.64206 0.78537 0.25947 0.0
C754 C 0.70202 0.87151 0.32862 0.0
C755 C 0.62837 0.84575 0.32001 0.0
O756 O 0.67916 0.86661 0.36893 0.0
O757 O 0.63965 0.8349 0.37076 0.0
O758 O 0.61698 0.80066 0.34466 0.0
O759 O 0.64793 0.79889 0.33534 0.0
O760 O 0.69106 0.8286 0.3542 0.0
O761 O 0.68681 0.80455 0.33061 0.0
O762 O 0.64263 0.79393 0.29569 0.0
O763 O 0.68475 0.81765 0.29524 0.0
O764 O 0.70773 0.85744 0.31916 0.0
O765 O 0.6779 0.85965 0.32985 0.0
O766 O 0.63526 0.83164 0.3109 0.0
O767 O 0.6378 0.85353 0.33502 0.0
H768 H 0.63482 0.85127 0.40355 0.0
H769 H 0.6479 0.84902 0.43085 0.0
H770 H 0.7178 0.8523 0.41639 0.0
H771 H 0.70418 0.85374 0.38907 0.0
H772 H 0.68277 0.84889 0.27542 0.0
H773 H 0.67735 0.85663 0.24796 0.0
H774 H 0.62681 0.77302 0.2351 0.0
H775 H 0.63234 0.76539 0.26255 0.0
C776 C 0.12996 0.81342 0.29293 0.0
Eu777 Eu 0.14961 0.83174 0.32222 0.0
C778 C 0.1393 0.81321 0.27734 0.0
C779 C 0.12613 0.81592 0.26408 0.0
C780 C 0.13428 0.81533 0.2491 0.0
C781 C 0.15578 0.81197 0.24709 0.0
C782 C 0.16917 0.80962 0.26049 0.0
C783 C 0.16102 0.81024 0.27548 0.0
C784 C 0.16588 0.88102 0.33572 0.0
C785 C 0.21271 0.85526 0.32595 0.0
C786 C 0.19969 0.86646 0.3842 0.0
Eu787 Eu 0.17974 0.84672 0.35515 0.0
C788 C 0.19116 0.86316 0.40017 0.0
C789 C 0.2066 0.86075 0.41226 0.0
C790 C 0.199 0.85747 0.4275 0.0
C791 C 0.1758 0.85662 0.43098 0.0
C792 C 0.16034 0.85909 0.41884 0.0
C793 C 0.16792 0.86226 0.40355 0.0
C794 C 0.16523 0.798 0.34177 0.0
C795 C 0.1161 0.82171 0.35139 0.0
O796 O 0.13382 0.79974 0.30311 0.0
O797 O 0.13436 0.83616 0.29942 0.0
O798 O 0.14356 0.86655 0.32726 0.0
O799 O 0.17871 0.8694 0.33607 0.0
O800 O 0.19012 0.84018 0.31718 0.0
O801 O 0.21381 0.86412 0.3408 0.0
O802 O 0.19034 0.87707 0.37473 0.0
O803 O 0.20068 0.84672 0.37703 0.0
O804 O 0.18679 0.81277 0.35087 0.0
O805 O 0.15148 0.80875 0.34109 0.0
O806 O 0.13858 0.83555 0.36047 0.0
O807 O 0.11508 0.81489 0.33617 0.0
H808 H 0.10943 0.81839 0.2653 0.0
H809 H 0.12378 0.81762 0.2391 0.0
H810 H 0.18562 0.80671 0.25936 0.0
H811 H 0.17151 0.80814 0.28557 0.0
H812 H 0.22463 0.86147 0.40991 0.0
H813 H 0.21151 0.856 0.43664 0.0
H814 H 0.14225 0.85828 0.42112 0.0
H815 H 0.15561 0.864 0.39441 0.0
C816 C 0.86628 0.68624 0.71808 0.0
Eu817 Eu 0.8465 0.68057 0.689 0.0
C818 C 0.8564 0.67701 0.73318 0.0
C819 C 0.86811 0.69405 0.74718 0.0
C820 C 0.85873 0.68594 0.76161 0.0
C821 C 0.83738 0.66059 0.76232 0.0
C822 C 0.82574 0.64349 0.74823 0.0
C823 C 0.83517 0.65163 0.73379 0.0
C824 C 0.83001 0.71111 0.67641 0.0
C825 C 0.78382 0.63696 0.6851 0.0
C826 C 0.7957 0.65458 0.62711 0.0
Eu827 Eu 0.81593 0.65935 0.65596 0.0
C828 C 0.80435 0.66357 0.61173 0.0
C829 C 0.82773 0.66649 0.60689 0.0
C830 C 0.83491 0.67415 0.59195 0.0
C831 C 0.8189 0.67913 0.58161 0.0
C832 C 0.7959 0.67687 0.58676 0.0
C833 C 0.7887 0.6691 0.60164 0.0
C834 C 0.83338 0.62931 0.66841 0.0
C835 C 0.8791 0.70156 0.65989 0.0
O836 O 0.86429 0.66848 0.70715 0.0
O837 O 0.86027 0.70282 0.71243 0.0
O838 O 0.85222 0.7204 0.68494 0.0
O839 O 0.81703 0.68634 0.67555 0.0
O840 O 0.80669 0.64807 0.69376 0.0
O841 O 0.78167 0.64083 0.67014 0.0
O842 O 0.79865 0.67264 0.63814 0.0
O843 O 0.8015 0.63766 0.63247 0.0
O844 O 0.81125 0.61953 0.65968 0.0
O845 O 0.84563 0.65403 0.6693 0.0
O846 O 0.8564 0.69115 0.65103 0.0
O847 O 0.88063 0.69745 0.67485 0.0
H848 H 0.88453 0.71369 0.74694 0.0
H849 H 0.86841 0.69945 0.77226 0.0
H850 H 0.80911 0.62395 0.74833 0.0
H851 H 0.82582 0.63813 0.72311 0.0
H852 H 0.84025 0.66256 0.61458 0.0
H853 H 0.85267 0.67554 0.58836 0.0
H854 H 0.78339 0.68111 0.5793 0.0
H855 H 0.77074 0.66725 0.60523 0.0
C856 C 0.33422 0.19505 0.71019 0.0
Eu857 Eu 0.3282 0.17242 0.68176 0.0
C858 C 0.33975 0.19234 0.72682 0.0
C859 C 0.32386 0.16935 0.73371 0.0
C860 C 0.32871 0.16805 0.74978 0.0
C861 C 0.34954 0.18969 0.75923 0.0
C862 C 0.36572 0.21241 0.75217 0.0
C863 C 0.3608 0.21373 0.73616 0.0
C864 C 0.29316 0.12167 0.67064 0.0
C865 C 0.36613 0.14744 0.6782 0.0
C866 C 0.32879 0.13156 0.6204 0.0
Eu867 Eu 0.335 0.15419 0.64888 0.0
C868 C 0.32236 0.13501 0.60421 0.0
C869 C 0.31945 0.15647 0.60105 0.0
C870 C 0.31443 0.16006 0.58545 0.0
C871 C 0.31218 0.14217 0.57282 0.0
C872 C 0.31476 0.12049 0.57614 0.0
C873 C 0.31982 0.11698 0.59171 0.0
C874 C 0.37082 0.20448 0.6602 0.0
C875 C 0.2974 0.1795 0.6526 0.0
O876 O 0.35331 0.2019 0.70132 0.0
O877 O 0.31151 0.17742 0.70278 0.0
O878 O 0.28735 0.13636 0.67947 0.0
O879 O 0.31709 0.13365 0.66917 0.0
O880 O 0.36081 0.16334 0.68685 0.0
O881 O 0.35475 0.13756 0.66363 0.0
O882 O 0.31008 0.12399 0.62961 0.0
O883 O 0.35134 0.15006 0.62748 0.0
O884 O 0.37609 0.18935 0.65137 0.0
O885 O 0.34681 0.19312 0.66159 0.0
O886 O 0.30235 0.16334 0.64393 0.0
O887 O 0.30907 0.1895 0.66706 0.0
H888 H 0.30747 0.15251 0.72678 0.0
H889 H 0.31576 0.15034 0.75487 0.0
H890 H 0.38225 0.22923 0.75902 0.0
H891 H 0.37333 0.23164 0.73108 0.0
H892 H 0.32129 0.17054 0.61062 0.0
H893 H 0.31228 0.17678 0.58328 0.0
H894 H 0.3135 0.10657 0.56668 0.0
H895 H 0.32212 0.10036 0.59399 0.0
C896 C 0.79632 0.14565 0.62483 0.0
Eu897 Eu 0.8152 0.16485 0.65413 0.0
C898 C 0.80654 0.14378 0.6098 0.0
C899 C 0.79459 0.14572 0.59569 0.0
C900 C 0.80406 0.14412 0.58129 0.0
C901 C 0.82569 0.14055 0.58075 0.0
C902 C 0.83772 0.13878 0.59497 0.0
C903 C 0.82822 0.14038 0.60936 0.0
C904 C 0.83131 0.21455 0.66676 0.0
C905 C 0.87816 0.188 0.65855 0.0
C906 C 0.86409 0.20251 0.71623 0.0
Eu907 Eu 0.84475 0.18114 0.6873 0.0
C908 C 0.85506 0.19908 0.73199 0.0
C909 C 0.83035 0.17832 0.73424 0.0
C910 C 0.82214 0.1752 0.74938 0.0
C911 C 0.83849 0.19288 0.76248 0.0
C912 C 0.86314 0.21376 0.76007 0.0
C913 C 0.87133 0.2168 0.74495 0.0
C914 C 0.8299 0.13172 0.67503 0.0
C915 C 0.78111 0.15616 0.68292 0.0
O916 O 0.79811 0.13178 0.63566 0.0
O917 O 0.80217 0.16924 0.63064 0.0
O918 O 0.80908 0.19978 0.65825 0.0
O919 O 0.84412 0.20293 0.66763 0.0
O920 O 0.85565 0.17216 0.64987 0.0
O921 O 0.87903 0.19798 0.67308 0.0
O922 O 0.85342 0.21155 0.7065 0.0
O923 O 0.8663 0.18326 0.70944 0.0
O924 O 0.85125 0.14659 0.68431 0.0
O925 O 0.81649 0.14274 0.6737 0.0
O926 O 0.80345 0.17024 0.6921 0.0
O927 O 0.78031 0.14884 0.66781 0.0
H928 H 0.77784 0.14836 0.5958 0.0
H929 H 0.79416 0.14524 0.57055 0.0
H930 H 0.85462 0.13638 0.59501 0.0
H931 H 0.8378 0.13891 0.62012 0.0
H932 H 0.81748 0.16452 0.72431 0.0
H933 H 0.80294 0.1591 0.75082 0.0
H934 H 0.87634 0.22749 0.76992 0.0
H935 H 0.89047 0.23293 0.74339 0.0
H936 H 0.33223 0.89402 0.08183 0.0
H937 H 0.31007 0.83715 0.04085 0.0
H938 H 0.36812 0.92655 0.06885 0.0
H939 H 0.34592 0.8696 0.02791 0.0
H940 H 0.44821 0.96231 0.0499 0.0
H941 H 0.40952 0.93271 0.06179 0.0
H942 H 0.36354 0.91114 0.01643 0.0
H943 H 0.4026 0.94046 0.00437 0.0
C944 C 0.33496 0.88849 0.07003 0.0
C945 C 0.31835 0.86294 0.06242 0.0
C946 C 0.35554 0.90711 0.0626 0.0
C947 C 0.36003 0.90063 0.04738 0.0
C948 C 0.34285 0.87537 0.03955 0.0
C949 C 0.32226 0.85675 0.04698 0.0
C950 C 0.42991 0.9513 0.04241 0.0
C951 C 0.42862 0.95365 0.02613 0.0
C952 C 0.40761 0.93449 0.04929 0.0
C953 C 0.38338 0.91956 0.04008 0.0
C954 C 0.38196 0.92217 0.02383 0.0
C955 C 0.40433 0.93907 0.01694 0.0
H956 H 0.11342 0.43081 0.0744 0.0
H957 H 0.15245 0.44359 0.03203 0.0
H958 H 0.08483 0.44509 0.06266 0.0
H959 H 0.12394 0.45796 0.0203 0.0
H960 H 0.04886 0.45127 0.99773 0.0
H961 H 0.07861 0.43898 0.01005 0.0
H962 H 0.08391 0.48306 0.05404 0.0
H963 H 0.0537 0.49496 0.04181 0.0
C964 C 0.11616 0.43704 0.06267 0.0
C965 C 0.13517 0.43596 0.05413 0.0
C966 C 0.09975 0.44522 0.05593 0.0
C967 C 0.10196 0.45253 0.04049 0.0
C968 C 0.12135 0.45198 0.03209 0.0
C969 C 0.13773 0.44378 0.03883 0.0
C970 C 0.05633 0.45835 0.01004 0.0
C971 C 0.04883 0.47408 0.01877 0.0
C972 C 0.07356 0.45144 0.01708 0.0
C973 C 0.08376 0.46011 0.03303 0.0
C974 C 0.07622 0.47582 0.04178 0.0
C975 C 0.05898 0.48274 0.03473 0.0
H976 H 0.55536 0.71277 0.01595 0.0
H977 H 0.56986 0.69285 0.06179 0.0
H978 H 0.53479 0.66644 0.00517 0.0
H979 H 0.54933 0.64664 0.05103 0.0
H980 H 0.47702 0.57543 0.9976 0.0
H981 H 0.49458 0.62133 0.00858 0.0
H982 H 0.56236 0.62247 0.03074 0.0
H983 H 0.54518 0.57703 0.01957 0.0
C984 C 0.55402 0.69845 0.02371 0.0
C985 C 0.56422 0.70636 0.03969 0.0
C986 C 0.54211 0.67198 0.01759 0.0
C987 C 0.54057 0.65304 0.02727 0.0
C988 C 0.55043 0.6609 0.04329 0.0
C989 C 0.56199 0.68727 0.04947 0.0
C990 C 0.49567 0.58556 0.00481 0.0
C991 C 0.50967 0.57267 0.00784 0.0
C992 C 0.50571 0.61176 0.01105 0.0
C993 C 0.52972 0.62532 0.02059 0.0
C994 C 0.54364 0.61235 0.02361 0.0
C995 C 0.53381 0.58637 0.0172 0.0
H996 H 0.83344 0.30398 0.95164 0.0
H997 H 0.89319 0.28894 0.97048 0.0
H998 H 0.8602 0.35016 0.96252 0.0
H999 H 0.91945 0.33474 0.98175 0.0
H1000 H 0.97209 0.42334 0.98378 0.0
H1001 H 0.94444 0.37775 0.97234 0.0
H1002 H 0.87697 0.37811 0.98817 0.0
H1003 H 0.90476 0.42407 0.99944 0.0
C1004 C 0.85226 0.31052 0.95811 0.0
C1005 C 0.86119 0.29279 0.96019 0.0
C1006 C 0.86746 0.3369 0.96447 0.0
C1007 C 0.89198 0.34613 0.97296 0.0
C1008 C 0.9008 0.32834 0.97511 0.0
C1009 C 0.8856 0.30201 0.96881 0.0
C1010 C 0.95135 0.4137 0.98478 0.0
C1011 C 0.94055 0.42716 0.99255 0.0
C1012 C 0.93552 0.38754 0.97831 0.0
C1013 C 0.90853 0.37424 0.97945 0.0
C1014 C 0.89767 0.38788 0.987 0.0
C1015 C 0.91356 0.41411 0.99352 0.0
H1016 H 0.70618 0.60023 0.97271 0.0
H1017 H 0.66797 0.53652 0.93486 0.0
H1018 H 0.66518 0.58489 0.98387 0.0
H1019 H 0.62713 0.52 0.9467 0.0
H1020 H 0.55249 0.51511 0.9624 0.0
H1021 H 0.59324 0.52904 0.95084 0.0
H1022 H 0.63503 0.55189 0.99768 0.0
H1023 H 0.59447 0.53902 0.00915 0.0
C1024 C 0.68903 0.5829 0.96674 0.0
C1025 C 0.69046 0.56981 0.95276 0.0
C1026 C 0.6655 0.5738 0.97333 0.0
C1027 C 0.64271 0.5511 0.96626 0.0
C1028 C 0.64416 0.53774 0.95239 0.0
C1029 C 0.66772 0.54702 0.9457 0.0
C1030 C 0.57039 0.52308 0.97022 0.0
C1031 C 0.57026 0.52616 0.9867 0.0
C1032 C 0.59378 0.53092 0.96359 0.0
C1033 C 0.61758 0.54175 0.97329 0.0
C1034 C 0.61725 0.54421 0.98979 0.0
C1035 C 0.59393 0.53669 0.9964 0.0
H1036 H 0.46973 0.16681 0.97981 0.0
H1037 H 0.44419 0.10943 0.93876 0.0
H1038 H 0.4773 0.13776 0.99556 0.0
H1039 H 0.45215 0.08049 0.9545 0.0
H1040 H 0.45106 0.0273 0.99219 0.0
H1041 H 0.43745 0.05381 0.97784 0.0
H1042 H 0.51075 0.12374 0.99497 0.0
H1043 H 0.52444 0.09729 0.00903 0.0
C1044 C 0.46529 0.14779 0.97422 0.0
C1045 C 0.45647 0.14042 0.95804 0.0
C1046 C 0.46986 0.13128 0.9832 0.0
C1047 C 0.46551 0.10698 0.97622 0.0
C1048 C 0.45555 0.09907 0.96021 0.0
C1049 C 0.4512 0.11569 0.95118 0.0
C1050 C 0.46425 0.04831 0.99279 0.0
C1051 C 0.48891 0.06024 0.00154 0.0
C1052 C 0.45645 0.06346 0.98463 0.0
C1053 C 0.47303 0.09082 0.98532 0.0
C1054 C 0.49744 0.10274 0.99437 0.0
C1055 C 0.50532 0.08759 0.00236 0.0
H1056 H 0.70414 0.09697 0.96711 0.0
H1057 H 0.67524 0.13879 0.94066 0.0
H1058 H 0.66283 0.07396 0.97829 0.0
H1059 H 0.63401 0.11626 0.95228 0.0
H1060 H 0.55462 0.04793 0.96343 0.0
H1061 H 0.5954 0.07192 0.95174 0.0
H1062 H 0.63862 0.08389 0.99702 0.0
H1063 H 0.59796 0.0596 0.00865 0.0
C1064 C 0.68891 0.10116 0.96362 0.0
C1065 C 0.69295 0.11965 0.95294 0.0
C1066 C 0.66534 0.08821 0.97019 0.0
C1067 C 0.64519 0.09339 0.96625 0.0
C1068 C 0.64911 0.11172 0.95548 0.0
C1069 C 0.67278 0.12479 0.94894 0.0
C1070 C 0.57277 0.05572 0.97091 0.0
C1071 C 0.57291 0.05163 0.98696 0.0
C1072 C 0.59618 0.06961 0.96422 0.0
C1073 C 0.62026 0.07967 0.97343 0.0
C1074 C 0.6204 0.07602 0.98954 0.0
C1075 C 0.59703 0.0622 0.99623 0.0
H1076 H 0.89754 0.60487 0.94746 0.0
H1077 H 0.83182 0.52595 0.94515 0.0
H1078 H 0.92663 0.58964 0.95719 0.0
H1079 H 0.86109 0.51064 0.95482 0.0
H1080 H 0.93022 0.4931 0.95679 0.0
H1081 H 0.90098 0.50728 0.94547 0.0
H1082 H 0.93069 0.57098 0.98312 0.0
H1083 H 0.95953 0.55678 0.99453 0.0
C1084 C 0.88938 0.58422 0.9489 0.0
C1085 C 0.86245 0.56657 0.94556 0.0
C1086 C 0.90599 0.57555 0.95453 0.0
C1087 C 0.89607 0.54899 0.95674 0.0
C1088 C 0.86922 0.53119 0.95311 0.0
C1089 C 0.8525 0.53996 0.94771 0.0
C1090 C 0.93053 0.51017 0.9626 0.0
C1091 C 0.94715 0.52381 0.97655 0.0
C1092 C 0.91373 0.51816 0.95618 0.0
C1093 C 0.91365 0.54023 0.96343 0.0
C1094 C 0.9305 0.55402 0.97724 0.0
C1095 C 0.94692 0.54579 0.9838 0.0
H1096 H 0.44322 0.32386 0.94431 0.0
H1097 H 0.48057 0.30975 0.98439 0.0
H1098 H 0.44958 0.36391 0.95906 0.0
H1099 H 0.48653 0.34947 0.99927 0.0
H1100 H 0.52572 0.43858 0.01131 0.0
H1101 H 0.51419 0.39577 0.99814 0.0
H1102 H 0.43836 0.38301 0.98122 0.0
H1103 H 0.45028 0.42638 0.99426 0.0
C1104 C 0.45229 0.32904 0.9564 0.0
C1105 C 0.46163 0.31385 0.96316 0.0
C1106 C 0.45591 0.35197 0.96486 0.0
C1107 C 0.46884 0.36008 0.98029 0.0
C1108 C 0.47703 0.34412 0.98728 0.0
C1109 C 0.47356 0.32134 0.97879 0.0
C1110 C 0.50653 0.42656 0.00486 0.0
C1111 C 0.48892 0.43577 0.00375 0.0
C1112 C 0.49983 0.40193 0.99739 0.0
C1113 C 0.47528 0.38584 0.98869 0.0
C1114 C 0.45751 0.395 0.98771 0.0
C1115 C 0.46428 0.41976 0.9952 0.0
H1116 H 0.12567 0.66953 0.06844 0.0
H1117 H 0.17122 0.69321 0.02886 0.0
H1118 H 0.09149 0.63066 0.05187 0.0
H1119 H 0.13707 0.65443 0.0123 0.0
H1120 H 0.02654 0.57228 0.0137 0.0
H1121 H 0.05816 0.61436 0.02893 0.0
H1122 H 0.12117 0.6075 0.011 0.0
H1123 H 0.0897 0.56583 0.99578 0.0
C1124 C 0.12817 0.6667 0.05613 0.0
C1125 C 0.15128 0.68432 0.05001 0.0
C1126 C 0.10858 0.64442 0.04663 0.0
C1127 C 0.11168 0.6393 0.03081 0.0
C1128 C 0.13432 0.65752 0.02453 0.0
C1129 C 0.15388 0.67974 0.03401 0.0
C1130 C 0.04717 0.5799 0.01301 0.0
C1131 C 0.05572 0.56583 0.0036 0.0
C1132 C 0.06525 0.60391 0.02175 0.0
C1133 C 0.09219 0.61434 0.02114 0.0
C1134 C 0.10058 0.60029 0.01155 0.0
C1135 C 0.08255 0.57632 0.00289 0.0
H1136 H 0.2943 0.39647 0.04809 0.0
H1137 H 0.32249 0.47401 0.07227 0.0
H1138 H 0.33535 0.41234 0.03666 0.0
H1139 H 0.36344 0.49015 0.06039 0.0
H1140 H 0.44318 0.50067 0.04928 0.0
H1141 H 0.40263 0.48585 0.0613 0.0
H1142 H 0.35869 0.44113 0.01701 0.0
H1143 H 0.39912 0.45555 0.00503 0.0
C1144 C 0.30933 0.41689 0.05105 0.0
C1145 C 0.30512 0.43393 0.06117 0.0
C1146 C 0.33276 0.42608 0.04433 0.0
C1147 C 0.35265 0.45255 0.04754 0.0
C1148 C 0.34858 0.4696 0.05776 0.0
C1149 C 0.32504 0.46041 0.06445 0.0
C1150 C 0.42488 0.48771 0.04208 0.0
C1151 C 0.42446 0.47922 0.02618 0.0
C1152 C 0.40162 0.47934 0.04897 0.0
C1153 C 0.37742 0.46222 0.04014 0.0
C1154 C 0.37702 0.454 0.02421 0.0
C1155 C 0.40023 0.46241 0.01731 0.0
H1156 H 0.53332 0.8491 0.04506 0.0
H1157 H 0.60885 0.91161 0.03589 0.0
H1158 H 0.51326 0.87328 0.03515 0.0
H1159 H 0.58858 0.9346 0.02479 0.0
H1160 H 0.55074 0.98351 0.01999 0.0
H1161 H 0.5695 0.9594 0.03162 0.0
H1162 H 0.50122 0.886 0.01202 0.0
H1163 H 0.48176 0.9104 0.00132 0.0
C1164 C 0.54569 0.86796 0.04093 0.0
C1165 C 0.57278 0.87833 0.04132 0.0
C1166 C 0.53409 0.88167 0.03499 0.0
C1167 C 0.54922 0.90596 0.02913 0.0
C1168 C 0.57627 0.9162 0.02943 0.0
C1169 C 0.58789 0.90271 0.03556 0.0
C1170 C 0.53957 0.96222 0.0184 0.0
C1171 C 0.51468 0.94882 0.00992 0.0
C1172 C 0.55048 0.94834 0.02487 0.0
C1173 C 0.53701 0.92065 0.02272 0.0
C1174 C 0.51204 0.90726 0.01416 0.0
C1175 C 0.50095 0.92121 0.0079 0.0
H1176 H 0.02158 0.20665 0.41884 0.0
H1177 H 0.96539 0.18437 0.37792 0.0
H1178 H 0.05474 0.24023 0.40526 0.0
H1179 H 0.99813 0.21966 0.36478 0.0
H1180 H 0.07159 0.26185 0.33877 0.0
H1181 H 0.03539 0.2306 0.35209 0.0
H1182 H 0.07087 0.28087 0.39623 0.0
H1183 H 0.10761 0.31109 0.38304 0.0
C1184 C 0.01618 0.20902 0.40697 0.0
C1185 C 0.99079 0.19241 0.39944 0.0
C1186 C 0.03519 0.22872 0.39924 0.0
C1187 C 0.02929 0.23283 0.38384 0.0
C1188 C 0.00361 0.21687 0.37651 0.0
C1189 C 0.98465 0.19684 0.38418 0.0
C1190 C 0.07144 0.26626 0.35129 0.0
C1191 C 0.09251 0.28875 0.3599 0.0
C1192 C 0.05061 0.24841 0.35895 0.0
C1193 C 0.05018 0.25293 0.37534 0.0
C1194 C 0.07075 0.27622 0.38372 0.0
C1195 C 0.09177 0.29372 0.37613 0.0
H1196 H 0.81695 0.77164 0.36401 0.0
H1197 H 0.78195 0.76423 0.4077 0.0
H1198 H 0.78852 0.78626 0.35244 0.0
H1199 H 0.75349 0.77875 0.39613 0.0
H1200 H 0.72333 0.82898 0.37521 0.0
H1201 H 0.7535 0.81665 0.38686 0.0
H1202 H 0.74287 0.76861 0.34343 0.0
H1203 H 0.71309 0.78135 0.33165 0.0
C1204 C 0.80312 0.77304 0.37113 0.0
C1205 C 0.80171 0.76672 0.38678 0.0
C1206 C 0.7868 0.78139 0.36449 0.0
C1207 C 0.76863 0.78359 0.37332 0.0
C1208 C 0.76749 0.77764 0.38905 0.0
C1209 C 0.78384 0.76932 0.3957 0.0
C1210 C 0.72741 0.81581 0.36812 0.0
C1211 C 0.71571 0.80614 0.35249 0.0
C1212 C 0.74465 0.80863 0.37484 0.0
C1213 C 0.75063 0.79162 0.3661 0.0
C1214 C 0.739 0.78204 0.35044 0.0
C1215 C 0.72177 0.78922 0.34371 0.0
H1216 H 0.24381 0.02938 0.3962 0.0
H1217 H 0.2157 0.04685 0.35344 0.0
H1218 H 0.22303 0.98326 0.38547 0.0
H1219 H 0.19539 0.00072 0.34254 0.0
H1220 H 0.14189 0.91024 0.33499 0.0
H1221 H 0.15962 0.95579 0.34663 0.0
H1222 H 0.23074 0.95852 0.36398 0.0
H1223 H 0.2131 0.91326 0.35242 0.0
C1224 C 0.233 0.02332 0.38456 0.0
C1225 C 0.23142 0.04175 0.37566 0.0
C1226 C 0.22132 0.99696 0.37836 0.0
C1227 C 0.20768 0.9884 0.36313 0.0
C1228 C 0.20562 0.0067 0.35434 0.0
C1229 C 0.21746 0.03314 0.36052 0.0
C1230 C 0.16127 0.92063 0.34133 0.0
C1231 C 0.17609 0.90825 0.34287 0.0
C1232 C 0.17145 0.94668 0.34793 0.0
C1233 C 0.19653 0.96067 0.35626 0.0
C1234 C 0.21122 0.94814 0.35783 0.0
C1235 C 0.20115 0.92225 0.35116 0.0
H1236 H 0.54501 0.64032 0.27331 0.0
H1237 H 0.50629 0.62115 0.31577 0.0
H1238 H 0.5717 0.68609 0.28467 0.0
H1239 H 0.53362 0.66683 0.32735 0.0
H1240 H 0.57116 0.7567 0.337 0.0
H1241 H 0.54196 0.71165 0.32463 0.0
H1242 H 0.60736 0.71068 0.30583 0.0
H1243 H 0.63632 0.75562 0.31803 0.0
C1244 C 0.54204 0.64592 0.28502 0.0
C1245 C 0.52354 0.62708 0.29364 0.0
C1246 C 0.55754 0.67209 0.2916 0.0
C1247 C 0.55489 0.68007 0.30695 0.0
C1248 C 0.53601 0.66136 0.31546 0.0
C1249 C 0.52055 0.63514 0.30889 0.0
C1250 C 0.5792 0.74681 0.33019 0.0
C1251 C 0.60595 0.75959 0.32846 0.0
C1252 C 0.56254 0.72101 0.32317 0.0
C1253 C 0.57234 0.70761 0.31423 0.0
C1254 C 0.59912 0.72057 0.31245 0.0
C1255 C 0.61575 0.74625 0.31952 0.0
H1256 H 0.33886 0.90923 0.26572 0.0
H1257 H 0.36882 0.89146 0.30763 0.0
H1258 H 0.29737 0.89455 0.27658 0.0
H1259 H 0.3274 0.87688 0.3185 0.0
H1260 H 0.26262 0.88425 0.34045 0.0
H1261 H 0.30305 0.89671 0.32886 0.0
H1262 H 0.25911 0.85548 0.28389 0.0
H1263 H 0.21859 0.84335 0.29539 0.0
C1264 C 0.33649 0.90185 0.27715 0.0
C1265 C 0.35724 0.90167 0.28584 0.0
C1266 C 0.3127 0.89346 0.28339 0.0
C1267 C 0.30913 0.88472 0.29846 0.0
C1268 C 0.32968 0.88398 0.30698 0.0
C1269 C 0.35342 0.89233 0.30075 0.0
C1270 C 0.26152 0.87783 0.32809 0.0
C1271 C 0.23731 0.8628 0.31887 0.0
C1272 C 0.28473 0.88483 0.32147 0.0
C1273 C 0.28433 0.87701 0.30546 0.0
C1274 C 0.26012 0.86203 0.29622 0.0
C1275 C 0.23688 0.85496 0.30285 0.0
H1276 H 0.13518 0.50183 0.30952 0.0
H1277 H 0.10294 0.44129 0.26978 0.0
H1278 H 0.14254 0.47292 0.32539 0.0
H1279 H 0.11116 0.41263 0.28558 0.0
H1280 H 0.18806 0.43177 0.33863 0.0
H1281 H 0.17404 0.45761 0.32428 0.0
H1282 H 0.09967 0.38762 0.30916 0.0
H1283 H 0.11384 0.36163 0.32365 0.0
C1284 C 0.12921 0.48218 0.30424 0.0
C1285 C 0.11861 0.47393 0.28835 0.0
C1286 C 0.13373 0.46573 0.31329 0.0
C1287 C 0.12776 0.44065 0.30666 0.0
C1288 C 0.1159 0.43183 0.29103 0.0
C1289 C 0.11142 0.44833 0.28194 0.0
C1290 C 0.16867 0.4219 0.33231 0.0
C1291 C 0.15208 0.3947 0.33216 0.0
C1292 C 0.16057 0.43673 0.32417 0.0
C1293 C 0.13568 0.42467 0.31567 0.0
C1294 C 0.11902 0.3974 0.31553 0.0
C1295 C 0.12711 0.38255 0.32379 0.0
H1296 H 0.33827 0.47021 0.27263 0.0
H1297 H 0.3672 0.43011 0.30077 0.0
H1298 H 0.29658 0.44758 0.28378 0.0
H1299 H 0.3255 0.40706 0.31151 0.0
H1300 H 0.2608 0.39498 0.34139 0.0
H1301 H 0.30133 0.41854 0.32958 0.0
H1302 H 0.25794 0.40275 0.28384 0.0
H1303 H 0.2171 0.3793 0.2957 0.0
C1304 C 0.33571 0.45654 0.28116 0.0
C1305 C 0.35604 0.45196 0.28582 0.0
C1306 C 0.31178 0.44342 0.28743 0.0
C1307 C 0.3078 0.42564 0.29858 0.0
C1308 C 0.32806 0.42089 0.30309 0.0
C1309 C 0.35186 0.43387 0.29679 0.0
C1310 C 0.25978 0.39656 0.32882 0.0
C1311 C 0.23563 0.38511 0.31949 0.0
C1312 C 0.28308 0.40996 0.32204 0.0
C1313 C 0.28285 0.4123 0.30575 0.0
C1314 C 0.25873 0.40139 0.29645 0.0
C1315 C 0.23534 0.38787 0.30324 0.0
H1316 H 0.50618 0.88411 0.30268 0.0
H1317 H 0.55066 0.90819 0.26267 0.0
H1318 H 0.5333 0.86687 0.31264 0.0
H1319 H 0.57829 0.89166 0.27289 0.0
H1320 H 0.60775 0.83746 0.2891 0.0
H1321 H 0.57791 0.85085 0.27803 0.0
H1322 H 0.57845 0.88577 0.32432 0.0
H1323 H 0.60787 0.87217 0.33542 0.0
C1324 C 0.52159 0.88551 0.29593 0.0
C1325 C 0.52632 0.89761 0.28191 0.0
C1326 C 0.53731 0.87589 0.30173 0.0
C1327 C 0.55807 0.87806 0.29361 0.0
C1328 C 0.56237 0.88953 0.27937 0.0
C1329 C 0.54671 0.89924 0.2736 0.0
C1330 C 0.60146 0.84794 0.29692 0.0
C1331 C 0.61025 0.85376 0.31315 0.0
C1332 C 0.58445 0.8557 0.29056 0.0
C1333 C 0.57575 0.8693 0.3003 0.0
C1334 C 0.58447 0.87498 0.31653 0.0
C1335 C 0.60152 0.86734 0.32287 0.0
H1336 H 0.17546 0.68042 0.28241 0.0
H1337 H 0.0979 0.63664 0.29668 0.0
H1338 H 0.18164 0.72025 0.29707 0.0
H1339 H 0.10414 0.67677 0.31147 0.0
H1340 H 0.11952 0.76206 0.32388 0.0
H1341 H 0.11043 0.72127 0.30835 0.0
H1342 H 0.18724 0.73634 0.3249 0.0
H1343 H 0.19641 0.77704 0.33995 0.0
C1344 C 0.15978 0.67927 0.28879 0.0
C1345 C 0.13633 0.65529 0.28857 0.0
C1346 C 0.16331 0.70211 0.29718 0.0
C1347 C 0.14349 0.70159 0.30559 0.0
C1348 C 0.11971 0.6778 0.30503 0.0
C1349 C 0.11616 0.65484 0.29659 0.0
C1350 C 0.1344 0.75658 0.3241 0.0
C1351 C 0.15875 0.77278 0.33295 0.0
C1352 C 0.12916 0.7332 0.31533 0.0
C1353 C 0.14823 0.72574 0.31528 0.0
C1354 C 0.17233 0.74178 0.32444 0.0
C1355 C 0.17752 0.76501 0.33316 0.0
H1356 H 0.79411 0.0281 0.38288 0.0
H1357 H 0.84285 0.99322 0.38191 0.0
H1358 H 0.75941 0.98956 0.3661 0.0
H1359 H 0.80825 0.95455 0.36582 0.0
H1360 H 0.75369 0.89862 0.32565 0.0
H1361 H 0.78685 0.93995 0.34027 0.0
H1362 H 0.72775 0.94416 0.36536 0.0
H1363 H 0.69425 0.90346 0.34977 0.0
C1364 C 0.7973 0.01212 0.37911 0.0
C1365 C 0.82126 0.01376 0.38349 0.0
C1366 C 0.77743 0.99 0.36957 0.0
C1367 C 0.78105 0.96897 0.36441 0.0
C1368 C 0.80493 0.9706 0.36911 0.0
C1369 C 0.8248 0.99275 0.37841 0.0
C1370 C 0.74774 0.9085 0.33418 0.0
C1371 C 0.72148 0.89755 0.33684 0.0
C1372 C 0.7668 0.93212 0.3427 0.0
C1373 C 0.76016 0.9452 0.35431 0.0
C1374 C 0.73365 0.93471 0.35652 0.0
C1375 C 0.71446 0.91121 0.34775 0.0
H1376 H 0.96038 0.72932 0.37921 0.0
H1377 H 0.98969 0.80536 0.40577 0.0
H1378 H 0.00147 0.74566 0.36773 0.0
H1379 H 0.03068 0.82199 0.39389 0.0
H1380 H 0.10992 0.83209 0.38216 0.0
H1381 H 0.06926 0.81666 0.39412 0.0
H1382 H 0.02561 0.7762 0.34896 0.0
H1383 H 0.06618 0.79129 0.33702 0.0
C1384 C 0.97566 0.74951 0.38267 0.0
C1385 C 0.97177 0.76599 0.39347 0.0
C1386 C 0.99911 0.75897 0.37593 0.0
C1387 C 0.01933 0.78516 0.37984 0.0
C1388 C 0.01556 0.80165 0.39072 0.0
C1389 C 0.992 0.7922 0.39742 0.0
C1390 C 0.09167 0.81995 0.37476 0.0
C1391 C 0.09138 0.81288 0.35862 0.0
C1392 C 0.06834 0.81122 0.38161 0.0
C1393 C 0.04418 0.79513 0.37251 0.0
C1394 C 0.04389 0.78826 0.35635 0.0
C1395 C 0.06719 0.79705 0.34949 0.0
H1396 H 0.2011 0.19343 0.38834 0.0
H1397 H 0.27006 0.24206 0.3659 0.0
H1398 H 0.18043 0.21682 0.37777 0.0
H1399 H 0.24949 0.26548 0.35546 0.0
H1400 H 0.21564 0.31936 0.35298 0.0
H1401 H 0.2353 0.29602 0.36485 0.0
H1402 H 0.16327 0.22234 0.35208 0.0
H1403 H 0.14344 0.24588 0.34046 0.0
C1404 C 0.21179 0.20899 0.38108 0.0
C1405 C 0.23727 0.21591 0.378 0.0
C1406 C 0.19995 0.22239 0.37504 0.0
C1407 C 0.21336 0.24305 0.36583 0.0
C1408 C 0.23881 0.24996 0.36275 0.0
C1409 C 0.25061 0.23654 0.36875 0.0
C1410 C 0.20396 0.29821 0.35283 0.0
C1411 C 0.17805 0.28439 0.3458 0.0
C1412 C 0.21527 0.28482 0.35952 0.0
C1413 C 0.20089 0.25732 0.35932 0.0
C1414 C 0.17478 0.24356 0.35253 0.0
C1415 C 0.16348 0.25698 0.3458 0.0
H1416 H 0.68278 0.51783 0.74036 0.0
H1417 H 0.6296 0.5379 0.71703 0.0
H1418 H 0.71817 0.55019 0.72724 0.0
H1419 H 0.66529 0.57031 0.70366 0.0
H1420 H 0.73357 0.60465 0.67106 0.0
H1421 H 0.69585 0.57333 0.68355 0.0
H1422 H 0.74327 0.59845 0.72855 0.0
H1423 H 0.78065 0.62941 0.71623 0.0
C1424 C 0.67867 0.52935 0.73256 0.0
C1425 C 0.65338 0.52549 0.72994 0.0
C1426 C 0.69898 0.54788 0.72499 0.0
C1427 C 0.69459 0.563 0.71454 0.0
C1428 C 0.66923 0.55884 0.7116 0.0
C1429 C 0.64882 0.54029 0.71926 0.0
C1430 C 0.73586 0.6036 0.68363 0.0
C1431 C 0.76026 0.6193 0.69258 0.0
C1432 C 0.71424 0.58573 0.69078 0.0
C1433 C 0.71669 0.58319 0.70699 0.0
C1434 C 0.74087 0.59953 0.71598 0.0
C1435 C 0.76234 0.61734 0.70888 0.0
H1436 H 0.43268 0.05626 0.71174 0.0
H1437 H 0.49476 0.13655 0.72492 0.0
H1438 H 0.40528 0.07201 0.70031 0.0
H1439 H 0.46695 0.15227 0.71371 0.0
H1440 H 0.39689 0.16666 0.70658 0.0
H1441 H 0.42556 0.1523 0.71829 0.0
H1442 H 0.40449 0.09555 0.67743 0.0
H1443 H 0.37581 0.10967 0.66576 0.0
C1444 C 0.44062 0.07728 0.71209 0.0
C1445 C 0.46608 0.09511 0.71914 0.0
C1446 C 0.42484 0.0863 0.70557 0.0
C1447 C 0.434 0.11337 0.70603 0.0
C1448 C 0.45928 0.13127 0.71329 0.0
C1449 C 0.47518 0.12225 0.71974 0.0
C1450 C 0.39839 0.15114 0.70009 0.0
C1451 C 0.38396 0.13925 0.68526 0.0
C1452 C 0.41493 0.14303 0.70677 0.0
C1453 C 0.41719 0.12273 0.69881 0.0
C1454 C 0.40291 0.11101 0.68394 0.0
C1455 C 0.38657 0.11923 0.67722 0.0
H1456 H 0.90253 0.36199 0.72782 0.0
H1457 H 0.88654 0.3817 0.68223 0.0
H1458 H 0.88163 0.31572 0.7171 0.0
H1459 H 0.8656 0.33532 0.6715 0.0
H1460 H 0.80822 0.24439 0.66395 0.0
H1461 H 0.82564 0.29013 0.67524 0.0
H1462 H 0.89422 0.29167 0.69639 0.0
H1463 H 0.87719 0.24643 0.68492 0.0
C1464 C 0.89425 0.35635 0.71556 0.0
C1465 C 0.89619 0.37539 0.70583 0.0
C1466 C 0.88247 0.32995 0.70941 0.0
C1467 C 0.87209 0.32202 0.69348 0.0
C1468 C 0.87332 0.34092 0.68385 0.0
C1469 C 0.88544 0.36741 0.68995 0.0
C1470 C 0.82699 0.25456 0.67103 0.0
C1471 C 0.84129 0.24187 0.67366 0.0
C1472 C 0.83695 0.28067 0.67744 0.0
C1473 C 0.86118 0.29431 0.68676 0.0
C1474 C 0.87534 0.28149 0.68943 0.0
C1475 C 0.8656 0.25562 0.68285 0.0
H1476 H 0.22358 0.95517 0.64161 0.0
H1477 H 0.1643 0.97229 0.62478 0.0
H1478 H 0.2508 0.00055 0.65339 0.0
H1479 H 0.19205 0.01812 0.63617 0.0
H1480 H 0.24061 0.09239 0.67243 0.0
H1481 H 0.21115 0.04626 0.66186 0.0
H1482 H 0.2758 0.04316 0.6435 0.0
H1483 H 0.30506 0.0888 0.65421 0.0
C1484 C 0.21625 0.96857 0.64054 0.0
C1485 C 0.19175 0.96009 0.63226 0.0
C1486 C 0.232 0.99467 0.64713 0.0
C1487 C 0.22367 0.01298 0.64561 0.0
C1488 C 0.19895 0.00444 0.63762 0.0
C1489 C 0.18318 0.97827 0.63097 0.0
C1490 C 0.24842 0.08174 0.66615 0.0
C1491 C 0.27508 0.09407 0.66419 0.0
C1492 C 0.23158 0.05544 0.66003 0.0
C1493 C 0.24119 0.04102 0.65193 0.0
C1494 C 0.26786 0.05356 0.64991 0.0
C1495 C 0.2846 0.07976 0.65596 0.0
H1496 H 0.00287 0.23346 0.59746 0.0
H1497 H 0.03707 0.23066 0.64287 0.0
H1498 H 0.96126 0.21901 0.60818 0.0
H1499 H 0.99553 0.216 0.65355 0.0
H1500 H 0.92799 0.22171 0.67213 0.0
H1501 H 0.96857 0.23388 0.66082 0.0
H1502 H 0.92508 0.18241 0.61821 0.0
H1503 H 0.88442 0.17068 0.62938 0.0
C1504 C 0.00139 0.22938 0.60966 0.0
C1505 C 0.02333 0.23341 0.61934 0.0
C1506 C 0.97755 0.2211 0.61582 0.0
C1507 C 0.97508 0.21656 0.63178 0.0
C1508 C 0.99686 0.21987 0.64131 0.0
C1509 C 0.02067 0.22822 0.63517 0.0
C1510 C 0.92703 0.21295 0.66035 0.0
C1511 C 0.90288 0.1952 0.65168 0.0
C1512 C 0.95035 0.21981 0.65389 0.0
C1513 C 0.95014 0.20905 0.63861 0.0
C1514 C 0.92598 0.19129 0.62994 0.0
C1515 C 0.90263 0.18446 0.63639 0.0
H1516 H 0.7769 0.77817 0.60637 0.0
H1517 H 0.81056 0.8383 0.64632 0.0
H1518 H 0.78334 0.74835 0.6221 0.0
H1519 H 0.81622 0.80831 0.66211 0.0
H1520 H 0.85864 0.76362 0.67497 0.0
H1521 H 0.84627 0.79102 0.66097 0.0
H1522 H 0.77037 0.72323 0.64572 0.0
H1523 H 0.78281 0.6957 0.65991 0.0
C1524 C 0.78532 0.78488 0.61856 0.0
C1525 C 0.79338 0.81067 0.62505 0.0
C1526 C 0.78879 0.76774 0.6276 0.0
C1527 C 0.80051 0.7761 0.64329 0.0
C1528 C 0.80744 0.80144 0.64998 0.0
C1529 C 0.80391 0.81852 0.64098 0.0
C1530 C 0.83924 0.75459 0.66873 0.0
C1531 C 0.82176 0.72752 0.66839 0.0
C1532 C 0.8321 0.7703 0.66078 0.0
C1533 C 0.80731 0.75929 0.65228 0.0
C1534 C 0.78967 0.73221 0.65206 0.0
C1535 C 0.79678 0.71648 0.66016 0.0
H1536 H 0.00529 0.80428 0.606 0.0
H1537 H 0.035 0.76372 0.63308 0.0
H1538 H 0.96383 0.78105 0.61731 0.0
H1539 H 0.99348 0.73999 0.6439 0.0
H1540 H 0.92896 0.72599 0.67432 0.0
H1541 H 0.96933 0.75016 0.66243 0.0
H1542 H 0.9254 0.73648 0.61716 0.0
H1543 H 0.88476 0.71251 0.62911 0.0
C1544 C 0.00295 0.79037 0.61432 0.0
C1545 C 0.02345 0.78585 0.61864 0.0
C1546 C 0.97914 0.7769 0.62067 0.0
C1547 C 0.97542 0.75878 0.63156 0.0
C1548 C 0.99583 0.75407 0.63571 0.0
C1549 C 0.01953 0.76744 0.62934 0.0
C1550 C 0.92781 0.72816 0.66184 0.0
C1551 C 0.90357 0.71717 0.65267 0.0
C1552 C 0.951 0.74191 0.655 0.0
C1553 C 0.95058 0.74504 0.63882 0.0
C1554 C 0.92637 0.73455 0.62968 0.0
C1555 C 0.90309 0.72072 0.63653 0.0
H1556 H 0.18362 0.22982 0.64341 0.0
H1557 H 0.19681 0.21803 0.5951 0.0
H1558 H 0.21254 0.21411 0.65235 0.0
H1559 H 0.22643 0.20296 0.60402 0.0
H1560 H 0.26338 0.15796 0.62545 0.0
H1561 H 0.23123 0.16939 0.61567 0.0
H1562 H 0.25805 0.2302 0.65498 0.0
H1563 H 0.28933 0.2183 0.66494 0.0
C1564 C 0.19274 0.22383 0.63471 0.0
C1565 C 0.18812 0.2253 0.61858 0.0
C1566 C 0.20944 0.21496 0.63982 0.0
C1567 C 0.22219 0.20764 0.62894 0.0
C1568 C 0.21682 0.20824 0.61273 0.0
C1569 C 0.19987 0.21689 0.6076 0.0
C1570 C 0.26238 0.17379 0.63196 0.0
C1571 C 0.2788 0.18709 0.64603 0.0
C1572 C 0.24401 0.18039 0.62634 0.0
C1573 C 0.2418 0.20053 0.63463 0.0
C1574 C 0.25868 0.21414 0.64849 0.0
C1575 C 0.27682 0.20744 0.65415 0.0
H1576 H 0.81295 0.97885 0.64924 0.0
H1577 H 0.78776 0.99854 0.6063 0.0
H1578 H 0.81683 0.01785 0.66381 0.0
H1579 H 0.79139 0.03747 0.62097 0.0
H1580 H 0.78474 0.09638 0.65651 0.0
H1581 H 0.77421 0.0537 0.64292 0.0
H1582 H 0.84812 0.06544 0.66303 0.0
H1583 H 0.85868 0.10791 0.67633 0.0
C1584 C 0.8081 0.99142 0.64293 0.0
C1585 C 0.80042 0.98579 0.62656 0.0
C1586 C 0.81028 0.01372 0.65128 0.0
C1587 C 0.80471 0.03086 0.64348 0.0
C1588 C 0.79566 0.02452 0.6273 0.0
C1589 C 0.79357 0.00221 0.61891 0.0
C1590 C 0.79871 0.0898 0.65792 0.0
C1591 C 0.82262 0.10551 0.66733 0.0
C1592 C 0.79268 0.06541 0.6502 0.0
C1593 C 0.8103 0.05621 0.65197 0.0
C1594 C 0.83398 0.07181 0.66161 0.0
C1595 C 0.84009 0.0962 0.66917 0.0
H1596 H 0.50228 0.32096 0.72333 0.0
H1597 H 0.46708 0.36515 0.70712 0.0
H1598 H 0.46913 0.28209 0.70654 0.0
H1599 H 0.43343 0.32581 0.69052 0.0
H1600 H 0.3628 0.23968 0.67787 0.0
H1601 H 0.39588 0.28056 0.6936 0.0
H1602 H 0.4564 0.26733 0.67771 0.0
H1603 H 0.42342 0.22653 0.66214 0.0
C1604 C 0.48766 0.32251 0.71606 0.0
C1605 C 0.48756 0.34633 0.71649 0.0
C1606 C 0.46859 0.30016 0.70647 0.0
C1607 C 0.44879 0.30095 0.69714 0.0
C1608 C 0.44838 0.32459 0.69768 0.0
C1609 C 0.46762 0.34709 0.70721 0.0
C1610 C 0.3832 0.24566 0.67769 0.0
C1611 C 0.3906 0.22994 0.66888 0.0
C1612 C 0.40211 0.26908 0.68662 0.0
C1613 C 0.42871 0.27704 0.68695 0.0
C1614 C 0.43604 0.26152 0.67785 0.0
C1615 C 0.41718 0.23825 0.66887 0.0
H1616 H 0.64866 0.13817 0.73161 0.0
H1617 H 0.63094 0.05929 0.71577 0.0
H1618 H 0.69043 0.15593 0.72056 0.0
H1619 H 0.67217 0.07713 0.70438 0.0
H1620 H 0.73179 0.11987 0.66972 0.0
H1621 H 0.69117 0.10383 0.68178 0.0
H1622 H 0.73343 0.15592 0.72434 0.0
H1623 H 0.77424 0.17204 0.71232 0.0
C1624 C 0.65369 0.12459 0.72592 0.0
C1625 C 0.63621 0.09727 0.72447 0.0
C1626 C 0.67759 0.1348 0.71954 0.0
C1627 C 0.68441 0.11792 0.71146 0.0
C1628 C 0.66722 0.09065 0.71028 0.0
C1629 C 0.64353 0.08045 0.71678 0.0
C1630 C 0.73248 0.12803 0.68162 0.0
C1631 C 0.75631 0.14721 0.69005 0.0
C1632 C 0.7092 0.11871 0.68856 0.0
C1633 C 0.70915 0.12853 0.70402 0.0
C1634 C 0.73287 0.1481 0.71236 0.0
C1635 C 0.75623 0.15723 0.70549 0.0
H1636 H 0.90451 0.56541 0.72977 0.0
H1637 H 0.89047 0.52246 0.68383 0.0
H1638 H 0.88384 0.5889 0.71902 0.0
H1639 H 0.86943 0.54564 0.67314 0.0
H1640 H 0.81016 0.57585 0.66661 0.0
H1641 H 0.82796 0.55023 0.67796 0.0
H1642 H 0.89771 0.62219 0.69726 0.0
H1643 H 0.88046 0.64774 0.68545 0.0
C1644 C 0.89668 0.56079 0.71744 0.0
C1645 C 0.89909 0.54223 0.70759 0.0
C1646 C 0.88502 0.57428 0.71129 0.0
C1647 C 0.87511 0.56903 0.69528 0.0
C1648 C 0.87681 0.5499 0.68554 0.0
C1649 C 0.88892 0.53679 0.69162 0.0
C1650 C 0.82929 0.58614 0.67327 0.0
C1651 C 0.84382 0.61376 0.67532 0.0
C1652 C 0.83943 0.57151 0.67973 0.0
C1653 C 0.86406 0.5843 0.68857 0.0
C1654 C 0.8785 0.6119 0.69068 0.0
C1655 C 0.8686 0.62648 0.68396 0.0
H1656 H 0.44068 0.96762 0.18544 0.0
H1657 H 0.4964 0.9412 0.19014 0.0
H1658 H 0.45075 0.9766 0.15842 0.0
H1659 H 0.50578 0.94932 0.16301 0.0
H1660 H 0.54118 0.00159 0.12349 0.0
H1661 H 0.52827 0.98855 0.14944 0.0
H1662 H 0.44737 0.95588 0.13165 0.0
H1663 H 0.4604 0.96968 0.1057 0.0
C1664 C 0.4549 0.96351 0.18066 0.0
C1665 C 0.46783 0.95383 0.18998 0.0
C1666 C 0.46047 0.96841 0.16513 0.0
C1667 C 0.47919 0.96383 0.1586 0.0
C1668 C 0.49151 0.95338 0.16776 0.0
C1669 C 0.4859 0.94843 0.18325 0.0
C1670 C 0.52065 0.99175 0.12512 0.0
C1671 C 0.50183 0.98681 0.11256 0.0
C1672 C 0.51322 0.98399 0.13995 0.0
C1673 C 0.48678 0.97111 0.14261 0.0
C1674 C 0.46791 0.96594 0.13001 0.0
C1675 C 0.47535 0.97362 0.11512 0.0
H1676 H 0.05191 0.49061 0.18525 0.0
H1677 H 0.05724 0.56653 0.18813 0.0
H1678 H 0.02988 0.47997 0.15847 0.0
H1679 H 0.03642 0.55647 0.1612 0.0
H1680 H 0.98636 0.52843 0.11539 0.0
H1681 H 0.99754 0.53038 0.14353 0.0
H1682 H 0.04347 0.49417 0.13315 0.0
H1683 H 0.03106 0.49083 0.10502 0.0
C1684 C 0.04803 0.50487 0.18026 0.0
C1685 C 0.05655 0.52953 0.18875 0.0
C1686 C 0.03569 0.49889 0.16485 0.0
C1687 C 0.03162 0.51745 0.15761 0.0
C1688 C 0.03902 0.5416 0.16641 0.0
C1689 C 0.05127 0.54752 0.1818 0.0
C1690 C 0.99829 0.52025 0.11909 0.0
C1691 C 0.00798 0.50966 0.1079 0.0
C1692 C 0.00496 0.52167 0.13525 0.0
C1693 C 0.02163 0.51271 0.14061 0.0
C1694 C 0.03042 0.50109 0.12946 0.0
C1695 C 0.02362 0.49952 0.1133 0.0
H1696 H 0.48669 0.4826 0.19284 0.0
H1697 H 0.45797 0.53682 0.19137 0.0
H1698 H 0.49344 0.48573 0.16498 0.0
H1699 H 0.46397 0.53932 0.16334 0.0
H1700 H 0.5121 0.56328 0.12055 0.0
H1701 H 0.50104 0.55803 0.14764 0.0
H1702 H 0.47012 0.47428 0.13843 0.0
H1703 H 0.48197 0.47966 0.11147 0.0
C1704 C 0.48168 0.49507 0.18653 0.0
C1705 C 0.47194 0.50958 0.19433 0.0
C1706 C 0.48528 0.49664 0.17052 0.0
C1707 C 0.47929 0.51281 0.16194 0.0
C1708 C 0.46902 0.52689 0.16966 0.0
C1709 C 0.46534 0.52525 0.18567 0.0
C1710 C 0.50299 0.54376 0.12432 0.0
C1711 C 0.49806 0.52191 0.11389 0.0
C1712 C 0.49638 0.5407 0.13979 0.0
C1713 C 0.48474 0.51574 0.1452 0.0
C1714 C 0.47931 0.49381 0.13467 0.0
C1715 C 0.48585 0.49685 0.11918 0.0
H1716 H 0.00968 0.49369 0.80547 0.0
H1717 H 0.94291 0.50358 0.80903 0.0
H1718 H 0.01413 0.49304 0.83406 0.0
H1719 H 0.94758 0.50329 0.8377 0.0
H1720 H 0.94533 0.46447 0.88395 0.0
H1721 H 0.94179 0.46952 0.85586 0.0
H1722 H 0.02506 0.52239 0.85925 0.0
H1723 H 0.02865 0.51703 0.88728 0.0
C1724 C 0.99603 0.49584 0.81239 0.0
C1725 C 0.97588 0.49857 0.80503 0.0
C1726 C 0.99872 0.49571 0.82876 0.0
C1727 C 0.98118 0.49809 0.83811 0.0
C1728 C 0.96126 0.50122 0.83078 0.0
C1729 C 0.95872 0.50161 0.8144 0.0
C1730 C 0.96285 0.4772 0.87868 0.0
C1731 C 0.98727 0.49028 0.88779 0.0
C1732 C 0.9608 0.48028 0.86265 0.0
C1733 C 0.98316 0.49631 0.85536 0.0
C1734 C 0.00752 0.50975 0.86453 0.0
C1735 C 0.00954 0.50686 0.88059 0.0
H1736 H 0.56753 0.49152 0.83111 0.0
H1737 H 0.48707 0.43807 0.81307 0.0
H1738 H 0.55417 0.49703 0.85688 0.0
H1739 H 0.47354 0.44397 0.83874 0.0
H1740 H 0.46348 0.43197 0.89082 0.0
H1741 H 0.47562 0.43055 0.86425 0.0
H1742 H 0.53213 0.51373 0.87233 0.0
H1743 H 0.52091 0.51483 0.89931 0.0
C1744 C 0.54692 0.48142 0.83257 0.0
C1745 C 0.52836 0.46422 0.82011 0.0
C1746 C 0.53923 0.48458 0.84735 0.0
C1747 C 0.51278 0.47074 0.84997 0.0
C1748 C 0.49413 0.45447 0.83726 0.0
C1749 C 0.50184 0.45116 0.82253 0.0
C1750 C 0.47867 0.44994 0.88701 0.0
C1751 C 0.49137 0.47346 0.89729 0.0
C1752 C 0.48536 0.44922 0.87165 0.0
C1753 C 0.50483 0.47204 0.86609 0.0
C1754 C 0.51724 0.49571 0.87626 0.0
C1755 C 0.5106 0.49641 0.89169 0.0
H1756 H 0.47771 0.00897 0.81308 0.0
H1757 H 0.55716 0.06955 0.82865 0.0
H1758 H 0.46991 0.00047 0.84028 0.0
H1759 H 0.54926 0.06132 0.85609 0.0
H1760 H 0.53117 0.01933 0.9016 0.0
H1761 H 0.54097 0.0294 0.87465 0.0
H1762 H 0.46477 0.0203 0.86406 0.0
H1763 H 0.45493 0.00987 0.89081 0.0
C1764 C 0.49345 0.02071 0.82236 0.0
C1765 C 0.51798 0.04013 0.81872 0.0
C1766 C 0.48897 0.01586 0.83799 0.0
C1767 C 0.50886 0.0304 0.85044 0.0
C1768 C 0.53356 0.0496 0.84679 0.0
C1769 C 0.53809 0.05437 0.83109 0.0
C1770 C 0.51663 0.0197 0.89352 0.0
C1771 C 0.49218 0.01354 0.89829 0.0
C1772 C 0.52225 0.02552 0.87809 0.0
C1773 C 0.50358 0.02543 0.8671 0.0
C1774 C 0.4794 0.01994 0.87206 0.0
C1775 C 0.47375 0.01399 0.88741 0.0
H1776 H 0.18182 0.31273 0.52929 0.0
H1777 H 0.09881 0.27661 0.51635 0.0
H1778 H 0.18976 0.32367 0.50254 0.0
H1779 H 0.10693 0.28905 0.48964 0.0
H1780 H 0.13091 0.29234 0.43904 0.0
H1781 H 0.12135 0.27958 0.46553 0.0
H1782 H 0.18865 0.35328 0.48556 0.0
H1783 H 0.19906 0.36528 0.4592 0.0
C1784 C 0.16519 0.30698 0.52073 0.0
C1785 C 0.13963 0.29359 0.52501 0.0
C1786 C 0.1698 0.31367 0.5054 0.0
C1787 C 0.14902 0.30747 0.49392 0.0
C1788 C 0.1234 0.29396 0.49814 0.0
C1789 C 0.11876 0.2871 0.51351 0.0
C1790 C 0.14381 0.3057 0.4491 0.0
C1791 C 0.16583 0.32982 0.44694 0.0
C1792 C 0.13813 0.29852 0.46431 0.0
C1793 C 0.15429 0.31532 0.47771 0.0
C1794 C 0.176 0.33963 0.47553 0.0
C1795 C 0.18176 0.34671 0.46037 0.0
H1796 H 0.71358 0.86562 0.52893 0.0
H1797 H 0.78242 0.87261 0.51032 0.0
H1798 H 0.6919 0.85578 0.50202 0.0
H1799 H 0.76107 0.86343 0.4835 0.0
H1800 H 0.70791 0.82501 0.43771 0.0
H1801 H 0.72508 0.82848 0.46504 0.0
H1802 H 0.6974 0.88112 0.47919 0.0
H1803 H 0.68052 0.87792 0.45192 0.0
C1804 C 0.72396 0.86481 0.5191 0.0
C1805 C 0.74975 0.87006 0.52171 0.0
C1806 C 0.71165 0.85939 0.50371 0.0
C1807 C 0.72482 0.85892 0.49065 0.0
C1808 C 0.75032 0.86342 0.49331 0.0
C1809 C 0.76265 0.86897 0.50866 0.0
C1810 C 0.70553 0.83735 0.44665 0.0
C1811 C 0.69293 0.85127 0.4426 0.0
C1812 C 0.71531 0.83929 0.4623 0.0
C1813 C 0.71263 0.85511 0.47426 0.0
C1814 C 0.69944 0.86846 0.47029 0.0
C1815 C 0.68975 0.86661 0.45464 0.0
H1816 H 0.11109 0.85234 0.52117 0.0
H1817 H 0.17913 0.84509 0.53121 0.0
H1818 H 0.1171 0.85199 0.49308 0.0
H1819 H 0.18575 0.84587 0.50337 0.0
H1820 H 0.17738 0.82299 0.4509 0.0
H1821 H 0.16716 0.81959 0.47819 0.0
H1822 H 0.1468 0.88008 0.47528 0.0
H1823 H 0.15679 0.88325 0.4479 0.0
C1824 C 0.12727 0.85059 0.51738 0.0
C1825 C 0.14469 0.84885 0.52845 0.0
C1826 C 0.13087 0.85067 0.50132 0.0
C1827 C 0.15192 0.84892 0.49596 0.0
C1828 C 0.16915 0.84692 0.50703 0.0
C1829 C 0.16555 0.84684 0.52305 0.0
C1830 C 0.17074 0.83557 0.4561 0.0
C1831 C 0.16807 0.85352 0.44728 0.0
C1832 C 0.16491 0.83365 0.47174 0.0
C1833 C 0.15636 0.84971 0.47898 0.0
C1834 C 0.15305 0.8672 0.47003 0.0
C1835 C 0.1588 0.86905 0.45434 0.0
H1836 H 0.67425 0.8234 0.14063 0.0
H1837 H 0.60673 0.83229 0.14314 0.0
H1838 H 0.67789 0.82274 0.16924 0.0
H1839 H 0.6106 0.832 0.17184 0.0
H1840 H 0.60772 0.79366 0.21839 0.0
H1841 H 0.60474 0.79854 0.19024 0.0
H1842 H 0.68792 0.85208 0.19427 0.0
H1843 H 0.69096 0.84688 0.22235 0.0
C1844 C 0.66025 0.82531 0.14732 0.0
C1845 C 0.64014 0.82778 0.13965 0.0
C1846 C 0.66248 0.82517 0.16371 0.0
C1847 C 0.64452 0.8273 0.17277 0.0
C1848 C 0.6246 0.83013 0.16514 0.0
C1849 C 0.62252 0.83051 0.14875 0.0
C1850 C 0.62534 0.80651 0.21326 0.0
C1851 C 0.64958 0.81982 0.22256 0.0
C1852 C 0.62361 0.80949 0.19719 0.0
C1853 C 0.64611 0.82564 0.19005 0.0
C1854 C 0.67028 0.83933 0.19942 0.0
C1855 C 0.67198 0.83654 0.21552 0.0
H1856 H 0.23278 0.83355 0.16037 0.0
H1857 H 0.16942 0.75295 0.15469 0.0
H1858 H 0.21878 0.84109 0.18558 0.0
H1859 H 0.15606 0.76015 0.18007 0.0
H1860 H 0.1242 0.78662 0.21951 0.0
H1861 H 0.13702 0.78278 0.19334 0.0
H1862 H 0.21816 0.8284 0.2122 0.0
H1863 H 0.20534 0.83324 0.2383 0.0
C1864 C 0.21576 0.81751 0.16444 0.0
C1865 C 0.20229 0.79262 0.15555 0.0
C1866 C 0.20792 0.82174 0.17897 0.0
C1867 C 0.18637 0.8012 0.1849 0.0
C1868 C 0.17259 0.77649 0.17582 0.0
C1869 C 0.18043 0.77227 0.16133 0.0
C1870 C 0.14479 0.79621 0.21805 0.0
C1871 C 0.16374 0.81022 0.23104 0.0
C1872 C 0.15214 0.79374 0.20306 0.0
C1873 C 0.17862 0.80516 0.20067 0.0
C1874 C 0.19759 0.81956 0.21359 0.0
C1875 C 0.19024 0.82204 0.2286 0.0
H1876 H 0.15051 0.33349 0.14626 0.0
H1877 H 0.21309 0.41237 0.16239 0.0
H1878 H 0.14264 0.32505 0.17347 0.0
H1879 H 0.20521 0.40383 0.1898 0.0
H1880 H 0.19785 0.36657 0.23717 0.0
H1881 H 0.2078 0.37713 0.21028 0.0
H1882 H 0.12541 0.33909 0.19485 0.0
H1883 H 0.11551 0.32867 0.22159 0.0
C1884 C 0.16247 0.34913 0.15562 0.0
C1885 C 0.18223 0.37372 0.15211 0.0
C1886 C 0.15796 0.34428 0.17124 0.0
C1887 C 0.1731 0.36385 0.18382 0.0
C1888 C 0.1933 0.38827 0.18038 0.0
C1889 C 0.19782 0.39316 0.16469 0.0
C1890 C 0.18189 0.36073 0.22806 0.0
C1891 C 0.15587 0.34652 0.23151 0.0
C1892 C 0.18759 0.36677 0.21266 0.0
C1893 C 0.16739 0.3587 0.20038 0.0
C1894 C 0.14143 0.34508 0.20395 0.0
C1895 C 0.13575 0.33909 0.21929 0.0
H1896 H 0.81758 0.60122 0.8534 0.0
H1897 H 0.7721 0.63979 0.85294 0.0
H1898 H 0.82583 0.60963 0.82617 0.0
H1899 H 0.78021 0.64809 0.82562 0.0
H1900 H 0.83088 0.68923 0.78633 0.0
H1901 H 0.81724 0.67642 0.81219 0.0
H1902 H 0.80677 0.59953 0.79887 0.0
H1903 H 0.82147 0.61275 0.77318 0.0
C1904 C 0.80888 0.61101 0.84737 0.0
C1905 C 0.79429 0.61995 0.85536 0.0
C1906 C 0.81362 0.61585 0.83174 0.0
C1907 C 0.80384 0.62971 0.82373 0.0
C1908 C 0.78844 0.6378 0.83154 0.0
C1909 C 0.78375 0.63301 0.84718 0.0
C1910 C 0.82579 0.66963 0.78894 0.0
C1911 C 0.82748 0.6521 0.77772 0.0
C1912 C 0.81762 0.66215 0.8037 0.0
C1913 C 0.81089 0.63693 0.80762 0.0
C1914 C 0.81206 0.61919 0.79629 0.0
C1915 C 0.82024 0.62668 0.7815 0.0
H1916 H 0.41005 0.17231 0.84928 0.0
H1917 H 0.37466 0.21838 0.86225 0.0
H1918 H 0.39252 0.16658 0.82183 0.0
H1919 H 0.35649 0.21216 0.83483 0.0
H1920 H 0.36359 0.22899 0.78315 0.0
H1921 H 0.37406 0.22894 0.81108 0.0
H1922 H 0.35514 0.148 0.80251 0.0
H1923 H 0.346 0.14854 0.77431 0.0
C1924 C 0.39794 0.18063 0.84631 0.0
C1925 C 0.39388 0.19597 0.85785 0.0
C1926 C 0.38784 0.17733 0.83057 0.0
C1927 C 0.37332 0.18915 0.82607 0.0
C1928 C 0.36809 0.20329 0.83782 0.0
C1929 C 0.37838 0.20677 0.85353 0.0
C1930 C 0.36185 0.21122 0.78718 0.0
C1931 C 0.35427 0.18888 0.77644 0.0
C1932 C 0.36744 0.21105 0.80327 0.0
C1933 C 0.36541 0.18844 0.80909 0.0
C1934 C 0.35717 0.16583 0.79841 0.0
C1935 C 0.35168 0.16605 0.78226 0.0
H1936 H 0.81992 0.14962 0.85746 0.0
H1937 H 0.792 0.20455 0.85678 0.0
H1938 H 0.82593 0.15269 0.82951 0.0
H1939 H 0.79727 0.20701 0.82865 0.0
H1940 H 0.84467 0.23076 0.78548 0.0
H1941 H 0.83392 0.22544 0.81263 0.0
H1942 H 0.80219 0.1416 0.80313 0.0
H1943 H 0.81371 0.14704 0.77609 0.0
C1944 C 0.81492 0.16224 0.85131 0.0
C1945 C 0.80565 0.17698 0.85936 0.0
C1946 C 0.81809 0.16378 0.83524 0.0
C1947 C 0.81213 0.18014 0.82686 0.0
C1948 C 0.80229 0.19443 0.83482 0.0
C1949 C 0.79903 0.19282 0.85089 0.0
C1950 C 0.83544 0.2112 0.7892 0.0
C1951 C 0.83021 0.18935 0.77866 0.0
C1952 C 0.829 0.20811 0.8047 0.0
C1953 C 0.81725 0.1831 0.81005 0.0
C1954 C 0.81148 0.16116 0.79941 0.0
C1955 C 0.81784 0.16425 0.78388 0.0
H1956 H 0.25661 0.13467 0.47435 0.0
H1957 H 0.34008 0.18695 0.47859 0.0
H1958 H 0.25883 0.13172 0.50272 0.0
H1959 H 0.34242 0.18324 0.50687 0.0
H1960 H 0.33542 0.18837 0.55949 0.0
H1961 H 0.33037 0.19478 0.5318 0.0
H1962 H 0.27518 0.11166 0.52079 0.0
H1963 H 0.27955 0.10544 0.54853 0.0
C1964 C 0.2754 0.14573 0.48136 0.0
C1965 C 0.29818 0.16099 0.47421 0.0
C1966 C 0.27671 0.14381 0.49759 0.0
C1967 C 0.30081 0.15714 0.50704 0.0
C1968 C 0.32351 0.17291 0.49995 0.0
C1969 C 0.32221 0.17479 0.48372 0.0
C1970 C 0.32187 0.17156 0.5512 0.0
C1971 C 0.30795 0.14638 0.55619 0.0
C1972 C 0.3192 0.17518 0.53531 0.0
C1973 C 0.30247 0.15371 0.52408 0.0
C1974 C 0.28805 0.12866 0.52916 0.0
C1975 C 0.29077 0.12503 0.54502 0.0
H1976 H 0.90805 0.11834 0.50579 0.0
H1977 H 0.84832 0.12793 0.48113 0.0
H1978 H 0.89414 0.12554 0.53099 0.0
H1979 H 0.83422 0.13501 0.50641 0.0
H1980 H 0.83154 0.16943 0.55585 0.0
H1981 H 0.84715 0.16523 0.53058 0.0
H1982 H 0.85717 0.10211 0.54568 0.0
H1983 H 0.84166 0.10633 0.57087 0.0
C1984 C 0.89186 0.12189 0.50576 0.0
C1985 C 0.87913 0.12233 0.49145 0.0
C1986 C 0.88386 0.12599 0.52021 0.0
C1987 C 0.86289 0.13058 0.52073 0.0
C1988 C 0.85059 0.13174 0.50644 0.0
C1989 C 0.85865 0.12769 0.49195 0.0
C1990 C 0.83694 0.15456 0.55372 0.0
C1991 C 0.83542 0.13826 0.5654 0.0
C1992 C 0.84588 0.15215 0.53925 0.0
C1993 C 0.8535 0.1334 0.53612 0.0
C1994 C 0.85193 0.1171 0.5478 0.0
C1995 C 0.84303 0.11952 0.56226 0.0
H1996 H 0.88532 0.70831 0.49143 0.0
H1997 H 0.8193 0.71999 0.48566 0.0
H1998 H 0.87775 0.70082 0.51895 0.0
H1999 H 0.81165 0.7123 0.51304 0.0
H2000 H 0.78581 0.66239 0.5543 0.0
H2001 H 0.79629 0.67373 0.52779 0.0
H2002 H 0.8778 0.72209 0.54527 0.0
H2003 H 0.86728 0.71106 0.57201 0.0
C2004 C 0.86945 0.70968 0.49608 0.0
C2005 C 0.85275 0.71448 0.48627 0.0
C2006 C 0.8651 0.70535 0.51185 0.0
C2007 C 0.84392 0.70566 0.51812 0.0
C2008 C 0.82781 0.71137 0.50847 0.0
C2009 C 0.83219 0.71577 0.49277 0.0
C2010 C 0.80595 0.67575 0.55259 0.0
C2011 C 0.82565 0.68598 0.56537 0.0
C2012 C 0.81195 0.68222 0.53736 0.0
C2013 C 0.83785 0.69898 0.53443 0.0
C2014 C 0.85767 0.70898 0.54713 0.0
C2015 C 0.85164 0.70261 0.56244 0.0
loop_
_geom_bond_atom_site_label_1
_geom_bond_atom_site_label_2
_geom_bond_distance
_geom_bond_site_symmetry_2
_ccdc_geom_bond_type
P0 O11 1.490 . S
P0 C14 1.812 . S
P0 C20 1.803 . S
P0 C26 1.819 . S
H1 C15 0.941 . S
H2 C16 0.939 . S
H3 C18 0.940 . S
H4 C19 0.940 . S
H5 C21 0.939 . S
H6 C22 0.942 . S
H7 C24 0.940 . S
H8 C25 0.939 . S
H9 C27 0.941 . S
H10 C31 0.939 . S
O11 P0 1.490 . S
H12 C28 0.939 . S
H13 C30 0.940 . S
C14 P0 1.812 . S
C14 C15 1.389 . S
C14 C19 1.391 . S
C15 H1 0.941 . S
C15 C14 1.389 . S
C15 C16 1.397 . S
C16 H2 0.939 . S
C16 C15 1.397 . S
C16 C17 1.378 . S
C17 C16 1.378 . S
C17 C18 1.378 . S
C18 H3 0.940 . S
C18 C17 1.378 . S
C18 C19 1.396 . S
C19 H4 0.940 . S
C19 C14 1.391 . S
C19 C18 1.396 . S
C20 P0 1.803 . S
C20 C21 1.378 . S
C20 C25 1.400 . S
C21 H5 0.939 . S
C21 C20 1.378 . S
C21 C22 1.361 . S
C22 H6 0.942 . S
C22 C21 1.361 . S
C22 C23 1.369 . S
C23 C22 1.369 . S
C23 C24 1.404 . S
C24 H7 0.940 . S
C24 C23 1.404 . S
C24 C25 1.389 . S
C25 H8 0.939 . S
C25 C20 1.400 . S
C25 C24 1.389 . S
C26 P0 1.819 . S
C26 C27 1.391 . S
C26 C31 1.391 . S
C27 H9 0.941 . S
C27 C26 1.391 . S
C27 C28 1.396 . S
C28 H12 0.939 . S
C28 C27 1.396 . S
C28 C29 1.397 . S
C29 C28 1.397 . S
C29 C30 1.385 . S
C30 H13 0.940 . S
C30 C29 1.385 . S
C30 C31 1.388 . S
C31 H10 0.939 . S
C31 C26 1.391 . S
C31 C30 1.388 . S
P32 O43 1.490 . S
P32 C46 1.812 . S
P32 C52 1.803 . S
P32 C58 1.819 . S
H33 C47 0.941 . S
H34 C48 0.939 . S
H35 C50 0.940 . S
H36 C51 0.940 . S
H37 C53 0.939 . S
H38 C54 0.942 . S
H39 C56 0.940 . S
H40 C57 0.939 . S
H41 C59 0.941 . S
H42 C63 0.939 . S
O43 P32 1.490 . S
H44 C60 0.939 . S
H45 C62 0.940 . S
C46 P32 1.812 . S
C46 C47 1.389 . S
C46 C51 1.391 . S
C47 H33 0.941 . S
C47 C46 1.389 . S
C47 C48 1.397 . S
C48 H34 0.939 . S
C48 C47 1.397 . S
C48 C49 1.378 . S
C49 C48 1.378 . S
C49 C50 1.378 . S
C50 H35 0.940 . S
C50 C49 1.378 . S
C50 C51 1.396 . S
C51 H36 0.940 . S
C51 C46 1.391 . S
C51 C50 1.396 . S
C52 P32 1.803 . S
C52 C53 1.378 . S
C52 C57 1.400 . S
C53 H37 0.939 . S
C53 C52 1.378 . S
C53 C54 1.361 . S
C54 H38 0.942 . S
C54 C53 1.361 . S
C54 C55 1.369 . S
C55 C54 1.369 . S
C55 C56 1.404 . S
C56 H39 0.940 . S
C56 C55 1.404 . S
C56 C57 1.389 . S
C57 H40 0.939 . S
C57 C52 1.400 . S
C57 C56 1.389 . S
C58 P32 1.819 . S
C58 C59 1.391 . S
C58 C63 1.391 . S
C59 H41 0.941 . S
C59 C58 1.391 . S
C59 C60 1.396 . S
C60 H44 0.939 . S
C60 C59 1.396 . S
C60 C61 1.397 . S
C61 C60 1.397 . S
C61 C62 1.385 . S
C62 H45 0.940 . S
C62 C61 1.385 . S
C62 C63 1.388 . S
C63 H42 0.939 . S
C63 C58 1.391 . S
C63 C62 1.388 . S
P64 O75 1.490 . S
P64 C78 1.812 . S
P64 C84 1.803 . S
P64 C90 1.819 . S
H65 C79 0.941 . S
H66 C80 0.939 . S
H67 C82 0.940 . S
H68 C83 0.940 . S
H69 C85 0.939 . S
H70 C86 0.942 . S
H71 C88 0.940 . S
H72 C89 0.939 . S
H73 C91 0.941 . S
H74 C95 0.939 . S
O75 P64 1.490 . S
H76 C92 0.939 . S
H77 C94 0.940 . S
C78 P64 1.812 . S
C78 C79 1.389 . S
C78 C83 1.391 . S
C79 H65 0.941 . S
C79 C78 1.389 . S
C79 C80 1.397 . S
C80 H66 0.939 . S
C80 C79 1.397 . S
C80 C81 1.378 . S
C81 C80 1.378 . S
C81 C82 1.378 . S
C82 H67 0.940 . S
C82 C81 1.378 . S
C82 C83 1.396 . S
C83 H68 0.940 . S
C83 C78 1.391 . S
C83 C82 1.396 . S
C84 P64 1.803 . S
C84 C85 1.378 . S
C84 C89 1.400 . S
C85 H69 0.939 . S
C85 C84 1.378 . S
C85 C86 1.361 . S
C86 H70 0.942 . S
C86 C85 1.361 . S
C86 C87 1.369 . S
C87 C86 1.369 . S
C87 C88 1.404 . S
C88 H71 0.940 . S
C88 C87 1.404 . S
C88 C89 1.389 . S
C89 H72 0.939 . S
C89 C84 1.400 . S
C89 C88 1.389 . S
C90 P64 1.819 . S
C90 C91 1.391 . S
C90 C95 1.391 . S
C91 H73 0.941 . S
C91 C90 1.391 . S
C91 C92 1.396 . S
C92 H76 0.939 . S
C92 C91 1.396 . S
C92 C93 1.397 . S
C93 C92 1.397 . S
C93 C94 1.385 . S
C94 H77 0.940 . S
C94 C93 1.385 . S
C94 C95 1.388 . S
C95 H74 0.939 . S
C95 C90 1.391 . S
C95 C94 1.388 . S
P96 O107 1.490 . S
P96 C110 1.812 . S
P96 C116 1.803 . S
P96 C122 1.819 . S
H97 C111 0.941 . S
H98 C112 0.939 . S
H99 C114 0.940 . S
H100 C115 0.940 . S
H101 C117 0.939 . S
H102 C118 0.942 . S
H103 C120 0.940 . S
H104 C121 0.939 . S
H105 C123 0.941 . S
H106 C127 0.939 . S
O107 P96 1.490 . S
H108 C124 0.939 . S
H109 C126 0.940 . S
C110 P96 1.812 . S
C110 C111 1.389 . S
C110 C115 1.391 . S
C111 H97 0.941 . S
C111 C110 1.389 . S
C111 C112 1.397 . S
C112 H98 0.939 . S
C112 C111 1.397 . S
C112 C113 1.378 . S
C113 C112 1.378 . S
C113 C114 1.378 . S
C114 H99 0.940 . S
C114 C113 1.378 . S
C114 C115 1.396 . S
C115 H100 0.940 . S
C115 C110 1.391 . S
C115 C114 1.396 . S
C116 P96 1.803 . S
C116 C117 1.378 . S
C116 C121 1.400 . S
C117 H101 0.939 . S
C117 C116 1.378 . S
C117 C118 1.361 . S
C118 H102 0.942 . S
C118 C117 1.361 . S
C118 C119 1.369 . S
C119 C118 1.369 . S
C119 C120 1.404 . S
C120 H103 0.940 . S
C120 C119 1.404 . S
C120 C121 1.389 . S
C121 H104 0.939 . S
C121 C116 1.400 . S
C121 C120 1.389 . S
C122 P96 1.819 . S
C122 C123 1.391 . S
C122 C127 1.391 . S
C123 H105 0.941 . S
C123 C122 1.391 . S
C123 C124 1.396 . S
C124 H108 0.939 . S
C124 C123 1.396 . S
C124 C125 1.397 . S
C125 C124 1.397 . S
C125 C126 1.385 . S
C126 H109 0.940 . S
C126 C125 1.385 . S
C126 C127 1.388 . S
C127 H106 0.939 . S
C127 C122 1.391 . S
C127 C126 1.388 . S
P128 O139 1.490 . S
P128 C142 1.812 . S
P128 C148 1.803 . S
P128 C154 1.819 . S
H129 C143 0.941 . S
H130 C144 0.939 . S
H131 C146 0.940 . S
H132 C147 0.940 . S
H133 C149 0.939 . S
H134 C150 0.942 . S
H135 C152 0.940 . S
H136 C153 0.939 . S
H137 C155 0.941 . S
H138 C159 0.939 . S
O139 P128 1.490 . S
H140 C156 0.939 . S
H141 C158 0.940 . S
C142 P128 1.812 . S
C142 C143 1.389 . S
C142 C147 1.391 . S
C143 H129 0.941 . S
C143 C142 1.389 . S
C143 C144 1.397 . S
C144 H130 0.939 . S
C144 C143 1.397 . S
C144 C145 1.378 . S
C145 C144 1.378 . S
C145 C146 1.378 . S
C146 H131 0.940 . S
C146 C145 1.378 . S
C146 C147 1.396 . S
C147 H132 0.940 . S
C147 C142 1.391 . S
C147 C146 1.396 . S
C148 P128 1.803 . S
C148 C149 1.378 . S
C148 C153 1.400 . S
C149 H133 0.939 . S
C149 C148 1.378 . S
C149 C150 1.361 . S
C150 H134 0.942 . S
C150 C149 1.361 . S
C150 C151 1.369 . S
C151 C150 1.369 . S
C151 C152 1.404 . S
C152 H135 0.940 . S
C152 C151 1.404 . S
C152 C153 1.389 . S
C153 H136 0.939 . S
C153 C148 1.400 . S
C153 C152 1.389 . S
C154 P128 1.819 . S
C154 C155 1.391 . S
C154 C159 1.391 . S
C155 H137 0.941 . S
C155 C154 1.391 . S
C155 C156 1.396 . S
C156 H140 0.939 . S
C156 C155 1.396 . S
C156 C157 1.397 . S
C157 C156 1.397 . S
C157 C158 1.385 . S
C158 H141 0.940 . S
C158 C157 1.385 . S
C158 C159 1.388 . S
C159 H138 0.939 . S
C159 C154 1.391 . S
C159 C158 1.388 . S
P160 O171 1.490 . S
P160 C174 1.812 . S
P160 C180 1.803 . S
P160 C186 1.819 . S
H161 C175 0.941 . S
H162 C176 0.939 . S
H163 C178 0.940 . S
H164 C179 0.940 . S
H165 C181 0.939 . S
H166 C182 0.942 . S
H167 C184 0.940 . S
H168 C185 0.939 . S
H169 C187 0.941 . S
H170 C191 0.939 . S
O171 P160 1.490 . S
H172 C188 0.939 . S
H173 C190 0.940 . S
C174 P160 1.812 . S
C174 C175 1.389 . S
C174 C179 1.391 . S
C175 H161 0.941 . S
C175 C174 1.389 . S
C175 C176 1.397 . S
C176 H162 0.939 . S
C176 C175 1.397 . S
C176 C177 1.378 . S
C177 C176 1.378 . S
C177 C178 1.378 . S
C178 H163 0.940 . S
C178 C177 1.378 . S
C178 C179 1.396 . S
C179 H164 0.940 . S
C179 C174 1.391 . S
C179 C178 1.396 . S
C180 P160 1.803 . S
C180 C181 1.378 . S
C180 C185 1.400 . S
C181 H165 0.939 . S
C181 C180 1.378 . S
C181 C182 1.361 . S
C182 H166 0.942 . S
C182 C181 1.361 . S
C182 C183 1.369 . S
C183 C182 1.369 . S
C183 C184 1.404 . S
C184 H167 0.940 . S
C184 C183 1.404 . S
C184 C185 1.389 . S
C185 H168 0.939 . S
C185 C180 1.400 . S
C185 C184 1.389 . S
C186 P160 1.819 . S
C186 C187 1.391 . S
C186 C191 1.391 . S
C187 H169 0.941 . S
C187 C186 1.391 . S
C187 C188 1.396 . S
C188 H172 0.939 . S
C188 C187 1.396 . S
C188 C189 1.397 . S
C189 C188 1.397 . S
C189 C190 1.385 . S
C190 H173 0.940 . S
C190 C189 1.385 . S
C190 C191 1.388 . S
C191 H170 0.939 . S
C191 C186 1.391 . S
C191 C190 1.388 . S
P192 O203 1.490 1_655 S
P192 C206 1.812 . S
P192 C212 1.803 . S
P192 C218 1.819 . S
H193 C207 0.941 . S
H194 C208 0.939 . S
H195 C210 0.940 . S
H196 C211 0.940 . S
H197 C213 0.939 1_455 S
H198 C214 0.942 . S
H199 C216 0.940 . S
H200 C217 0.939 . S
H201 C219 0.941 . S
H202 C223 0.939 . S
O203 P192 1.490 1_455 S
H204 C220 0.939 . S
H205 C222 0.940 . S
C206 P192 1.812 . S
C206 C207 1.389 . S
C206 C211 1.391 . S
C207 H193 0.941 . S
C207 C206 1.389 . S
C207 C208 1.397 . S
C208 H194 0.939 . S
C208 C207 1.397 . S
C208 C209 1.378 . S
C209 C208 1.378 . S
C209 C210 1.378 . S
C210 H195 0.940 . S
C210 C209 1.378 . S
C210 C211 1.396 . S
C211 H196 0.940 . S
C211 C206 1.391 . S
C211 C210 1.396 . S
C212 P192 1.803 . S
C212 C213 1.378 . S
C212 C217 1.400 . S
C213 H197 0.939 1_655 S
C213 C212 1.378 . S
C213 C214 1.361 . S
C214 H198 0.942 . S
C214 C213 1.361 . S
C214 C215 1.369 . S
C215 C214 1.369 . S
C215 C216 1.404 . S
C216 H199 0.940 . S
C216 C215 1.404 . S
C216 C217 1.389 . S
C217 H200 0.939 . S
C217 C212 1.400 . S
C217 C216 1.389 . S
C218 P192 1.819 . S
C218 C219 1.391 1_655 S
C218 C223 1.391 . S
C219 H201 0.941 . S
C219 C218 1.391 1_455 S
C219 C220 1.396 . S
C220 H204 0.939 . S
C220 C219 1.396 . S
C220 C221 1.397 1_455 S
C221 C220 1.397 1_655 S
C221 C222 1.385 . S
C222 H205 0.940 . S
C222 C221 1.385 . S
C222 C223 1.388 . S
C223 H202 0.939 . S
C223 C218 1.391 . S
C223 C222 1.388 . S
P224 O235 1.490 . S
P224 C238 1.812 . S
P224 C244 1.803 . S
P224 C250 1.819 . S
H225 C239 0.941 . S
H226 C240 0.939 . S
H227 C242 0.940 . S
H228 C243 0.940 . S
H229 C245 0.939 . S
H230 C246 0.942 . S
H231 C248 0.940 . S
H232 C249 0.939 . S
H233 C251 0.941 . S
H234 C255 0.939 . S
O235 P224 1.490 . S
H236 C252 0.939 . S
H237 C254 0.940 . S
C238 P224 1.812 . S
C238 C239 1.389 . S
C238 C243 1.391 . S
C239 H225 0.941 . S
C239 C238 1.389 . S
C239 C240 1.397 . S
C240 H226 0.939 . S
C240 C239 1.397 . S
C240 C241 1.378 . S
C241 C240 1.378 . S
C241 C242 1.378 . S
C242 H227 0.940 . S
C242 C241 1.378 . S
C242 C243 1.396 . S
C243 H228 0.940 . S
C243 C238 1.391 . S
C243 C242 1.396 . S
C244 P224 1.803 . S
C244 C245 1.378 . S
C244 C249 1.400 . S
C245 H229 0.939 . S
C245 C244 1.378 . S
C245 C246 1.361 . S
C246 H230 0.942 . S
C246 C245 1.361 . S
C246 C247 1.369 . S
C247 C246 1.369 . S
C247 C248 1.404 . S
C248 H231 0.940 . S
C248 C247 1.404 . S
C248 C249 1.389 . S
C249 H232 0.939 . S
C249 C244 1.400 . S
C249 C248 1.389 . S
C250 P224 1.819 . S
C250 C251 1.391 . S
C250 C255 1.391 . S
C251 H233 0.941 . S
C251 C250 1.391 . S
C251 C252 1.396 . S
C252 H236 0.939 . S
C252 C251 1.396 . S
C252 C253 1.397 . S
C253 C252 1.397 . S
C253 C254 1.385 . S
C254 H237 0.940 . S
C254 C253 1.385 . S
C254 C255 1.388 . S
C255 H234 0.939 . S
C255 C250 1.391 . S
C255 C254 1.388 . S
P256 O267 1.490 . S
P256 C270 1.812 . S
P256 C276 1.803 . S
P256 C282 1.819 . S
H257 C271 0.941 . S
H258 C272 0.939 . S
H259 C274 0.940 . S
H260 C275 0.940 . S
H261 C277 0.939 . S
H262 C278 0.942 . S
H263 C280 0.940 . S
H264 C281 0.939 . S
H265 C283 0.941 . S
H266 C287 0.939 . S
O267 P256 1.490 . S
H268 C284 0.939 . S
H269 C286 0.940 . S
C270 P256 1.812 . S
C270 C271 1.389 . S
C270 C275 1.391 . S
C271 H257 0.941 . S
C271 C270 1.389 . S
C271 C272 1.397 . S
C272 H258 0.939 . S
C272 C271 1.397 . S
C272 C273 1.378 . S
C273 C272 1.378 . S
C273 C274 1.378 . S
C274 H259 0.940 . S
C274 C273 1.378 . S
C274 C275 1.396 . S
C275 H260 0.940 . S
C275 C270 1.391 . S
C275 C274 1.396 . S
C276 P256 1.803 . S
C276 C277 1.378 . S
C276 C281 1.400 . S
C277 H261 0.939 . S
C277 C276 1.378 . S
C277 C278 1.361 . S
C278 H262 0.942 . S
C278 C277 1.361 . S
C278 C279 1.369 . S
C279 C278 1.369 . S
C279 C280 1.404 . S
C280 H263 0.940 . S
C280 C279 1.404 . S
C280 C281 1.389 . S
C281 H264 0.939 . S
C281 C276 1.400 . S
C281 C280 1.389 . S
C282 P256 1.819 . S
C282 C283 1.391 . S
C282 C287 1.391 . S
C283 H265 0.941 . S
C283 C282 1.391 . S
C283 C284 1.396 . S
C284 H268 0.939 . S
C284 C283 1.396 . S
C284 C285 1.397 . S
C285 C284 1.397 . S
C285 C286 1.385 . S
C286 H269 0.940 . S
C286 C285 1.385 . S
C286 C287 1.388 . S
C287 H266 0.939 . S
C287 C282 1.391 . S
C287 C286 1.388 . S
P288 O299 1.490 . S
P288 C302 1.812 . S
P288 C308 1.803 . S
P288 C314 1.819 . S
H289 C303 0.941 . S
H290 C304 0.939 . S
H291 C306 0.940 . S
H292 C307 0.940 . S
H293 C309 0.939 . S
H294 C310 0.942 . S
H295 C312 0.940 . S
H296 C313 0.939 . S
H297 C315 0.941 . S
H298 C319 0.939 . S
O299 P288 1.490 . S
H300 C316 0.939 . S
H301 C318 0.940 . S
C302 P288 1.812 . S
C302 C303 1.389 . S
C302 C307 1.391 . S
C303 H289 0.941 . S
C303 C302 1.389 . S
C303 C304 1.397 . S
C304 H290 0.939 . S
C304 C303 1.397 . S
C304 C305 1.378 . S
C305 C304 1.378 . S
C305 C306 1.378 . S
C306 H291 0.940 . S
C306 C305 1.378 . S
C306 C307 1.396 . S
C307 H292 0.940 . S
C307 C302 1.391 . S
C307 C306 1.396 . S
C308 P288 1.803 . S
C308 C309 1.378 . S
C308 C313 1.400 . S
C309 H293 0.939 . S
C309 C308 1.378 . S
C309 C310 1.361 . S
C310 H294 0.942 . S
C310 C309 1.361 . S
C310 C311 1.369 . S
C311 C310 1.369 . S
C311 C312 1.404 . S
C312 H295 0.940 . S
C312 C311 1.404 . S
C312 C313 1.389 . S
C313 H296 0.939 . S
C313 C308 1.400 . S
C313 C312 1.389 . S
C314 P288 1.819 . S
C314 C315 1.391 . S
C314 C319 1.391 . S
C315 H297 0.941 . S
C315 C314 1.391 . S
C315 C316 1.396 . S
C316 H300 0.939 . S
C316 C315 1.396 . S
C316 C317 1.397 . S
C317 C316 1.397 . S
C317 C318 1.385 . S
C318 H301 0.940 . S
C318 C317 1.385 . S
C318 C319 1.388 . S
C319 H298 0.939 . S
C319 C314 1.391 . S
C319 C318 1.388 . S
P320 O331 1.490 . S
P320 C334 1.812 . S
P320 C340 1.803 . S
P320 C346 1.819 . S
H321 C335 0.941 . S
H322 C336 0.939 . S
H323 C338 0.940 . S
H324 C339 0.940 . S
H325 C341 0.939 . S
H326 C342 0.942 . S
H327 C344 0.940 . S
H328 C345 0.939 . S
H329 C347 0.941 . S
H330 C351 0.939 . S
O331 P320 1.490 . S
H332 C348 0.939 . S
H333 C350 0.940 . S
C334 P320 1.812 . S
C334 C335 1.389 . S
C334 C339 1.391 . S
C335 H321 0.941 . S
C335 C334 1.389 . S
C335 C336 1.397 . S
C336 H322 0.939 . S
C336 C335 1.397 . S
C336 C337 1.378 . S
C337 C336 1.378 . S
C337 C338 1.378 . S
C338 H323 0.940 . S
C338 C337 1.378 . S
C338 C339 1.396 . S
C339 H324 0.940 . S
C339 C334 1.391 . S
C339 C338 1.396 . S
C340 P320 1.803 . S
C340 C341 1.378 . S
C340 C345 1.400 . S
C341 H325 0.939 . S
C341 C340 1.378 . S
C341 C342 1.361 . S
C342 H326 0.942 . S
C342 C341 1.361 . S
C342 C343 1.369 . S
C343 C342 1.369 . S
C343 C344 1.404 . S
C344 H327 0.940 . S
C344 C343 1.404 . S
C344 C345 1.389 . S
C345 H328 0.939 . S
C345 C340 1.400 . S
C345 C344 1.389 . S
C346 P320 1.819 . S
C346 C347 1.391 . S
C346 C351 1.391 . S
C347 H329 0.941 . S
C347 C346 1.391 . S
C347 C348 1.396 . S
C348 H332 0.939 . S
C348 C347 1.396 . S
C348 C349 1.397 . S
C349 C348 1.397 . S
C349 C350 1.385 . S
C350 H333 0.940 . S
C350 C349 1.385 . S
C350 C351 1.388 . S
C351 H330 0.939 . S
C351 C346 1.391 . S
C351 C350 1.388 . S
P352 O363 1.490 . S
P352 C366 1.812 . S
P352 C372 1.803 . S
P352 C378 1.819 . S
H353 C367 0.941 . S
H354 C368 0.939 . S
H355 C370 0.940 . S
H356 C371 0.940 . S
H357 C373 0.939 . S
H358 C374 0.942 . S
H359 C376 0.940 . S
H360 C377 0.939 . S
H361 C379 0.941 . S
H362 C383 0.939 . S
O363 P352 1.490 . S
H364 C380 0.939 . S
H365 C382 0.940 . S
C366 P352 1.812 . S
C366 C367 1.389 . S
C366 C371 1.391 . S
C367 H353 0.941 . S
C367 C366 1.389 . S
C367 C368 1.397 . S
C368 H354 0.939 . S
C368 C367 1.397 . S
C368 C369 1.378 . S
C369 C368 1.378 . S
C369 C370 1.378 . S
C370 H355 0.940 . S
C370 C369 1.378 . S
C370 C371 1.396 . S
C371 H356 0.940 . S
C371 C366 1.391 . S
C371 C370 1.396 . S
C372 P352 1.803 . S
C372 C373 1.378 . S
C372 C377 1.400 . S
C373 H357 0.939 . S
C373 C372 1.378 . S
C373 C374 1.361 . S
C374 H358 0.942 . S
C374 C373 1.361 . S
C374 C375 1.369 . S
C375 C374 1.369 . S
C375 C376 1.404 . S
C376 H359 0.940 . S
C376 C375 1.404 . S
C376 C377 1.389 . S
C377 H360 0.939 . S
C377 C372 1.400 . S
C377 C376 1.389 . S
C378 P352 1.819 . S
C378 C379 1.391 . S
C378 C383 1.391 . S
C379 H361 0.941 . S
C379 C378 1.391 . S
C379 C380 1.396 . S
C380 H364 0.939 . S
C380 C379 1.396 . S
C380 C381 1.397 . S
C381 C380 1.397 . S
C381 C382 1.385 . S
C382 H365 0.940 . S
C382 C381 1.385 . S
C382 C383 1.388 . S
C383 H362 0.939 . S
C383 C378 1.391 . S
C383 C382 1.388 . S
P384 O395 1.490 . S
P384 C398 1.812 . S
P384 C404 1.803 . S
P384 C410 1.819 . S
H385 C399 0.941 . S
H386 C400 0.939 . S
H387 C402 0.940 . S
H388 C403 0.940 . S
H389 C405 0.939 . S
H390 C406 0.942 . S
H391 C408 0.940 . S
H392 C409 0.939 . S
H393 C411 0.941 . S
H394 C415 0.939 . S
O395 P384 1.490 . S
H396 C412 0.939 . S
H397 C414 0.940 . S
C398 P384 1.812 . S
C398 C399 1.389 . S
C398 C403 1.391 . S
C399 H385 0.941 . S
C399 C398 1.389 . S
C399 C400 1.397 . S
C400 H386 0.939 . S
C400 C399 1.397 . S
C400 C401 1.378 . S
C401 C400 1.378 . S
C401 C402 1.378 . S
C402 H387 0.940 . S
C402 C401 1.378 . S
C402 C403 1.396 . S
C403 H388 0.940 . S
C403 C398 1.391 . S
C403 C402 1.396 . S
C404 P384 1.803 . S
C404 C405 1.378 . S
C404 C409 1.400 . S
C405 H389 0.939 . S
C405 C404 1.378 . S
C405 C406 1.361 . S
C406 H390 0.942 . S
C406 C405 1.361 . S
C406 C407 1.369 . S
C407 C406 1.369 . S
C407 C408 1.404 . S
C408 H391 0.940 . S
C408 C407 1.404 . S
C408 C409 1.389 . S
C409 H392 0.939 . S
C409 C404 1.400 . S
C409 C408 1.389 . S
C410 P384 1.819 . S
C410 C411 1.391 . S
C410 C415 1.391 . S
C411 H393 0.941 . S
C411 C410 1.391 . S
C411 C412 1.396 . S
C412 H396 0.939 . S
C412 C411 1.396 . S
C412 C413 1.397 . S
C413 C412 1.397 . S
C413 C414 1.385 . S
C414 H397 0.940 . S
C414 C413 1.385 . S
C414 C415 1.388 . S
C415 H394 0.939 . S
C415 C410 1.391 . S
C415 C414 1.388 . S
P416 O427 1.490 . S
P416 C430 1.812 . S
P416 C436 1.803 . S
P416 C442 1.819 . S
H417 C431 0.941 . S
H418 C432 0.939 . S
H419 C434 0.940 . S
H420 C435 0.940 . S
H421 C437 0.939 . S
H422 C438 0.942 . S
H423 C440 0.940 . S
H424 C441 0.939 . S
H425 C443 0.941 . S
H426 C447 0.939 . S
O427 P416 1.490 . S
H428 C444 0.939 . S
H429 C446 0.940 . S
C430 P416 1.812 . S
C430 C431 1.389 . S
C430 C435 1.391 . S
C431 H417 0.941 . S
C431 C430 1.389 . S
C431 C432 1.397 . S
C432 H418 0.939 . S
C432 C431 1.397 . S
C432 C433 1.378 . S
C433 C432 1.378 . S
C433 C434 1.378 . S
C434 H419 0.940 . S
C434 C433 1.378 . S
C434 C435 1.396 . S
C435 H420 0.940 . S
C435 C430 1.391 . S
C435 C434 1.396 . S
C436 P416 1.803 . S
C436 C437 1.378 . S
C436 C441 1.400 . S
C437 H421 0.939 . S
C437 C436 1.378 . S
C437 C438 1.361 . S
C438 H422 0.942 . S
C438 C437 1.361 . S
C438 C439 1.369 . S
C439 C438 1.369 . S
C439 C440 1.404 . S
C440 H423 0.940 . S
C440 C439 1.404 . S
C440 C441 1.389 . S
C441 H424 0.939 . S
C441 C436 1.400 . S
C441 C440 1.389 . S
C442 P416 1.819 . S
C442 C443 1.391 . S
C442 C447 1.391 . S
C443 H425 0.941 . S
C443 C442 1.391 . S
C443 C444 1.396 . S
C444 H428 0.939 . S
C444 C443 1.396 . S
C444 C445 1.397 . S
C445 C444 1.397 . S
C445 C446 1.385 . S
C446 H429 0.940 . S
C446 C445 1.385 . S
C446 C447 1.388 . S
C447 H426 0.939 . S
C447 C442 1.391 . S
C447 C446 1.388 . S
P448 O459 1.490 . S
P448 C462 1.812 . S
P448 C468 1.803 . S
P448 C474 1.819 . S
H449 C463 0.941 . S
H450 C464 0.939 . S
H451 C466 0.940 . S
H452 C467 0.940 . S
H453 C469 0.939 . S
H454 C470 0.942 . S
H455 C472 0.940 . S
H456 C473 0.939 . S
H457 C475 0.941 . S
H458 C479 0.939 . S
O459 P448 1.490 . S
H460 C476 0.939 . S
H461 C478 0.940 . S
C462 P448 1.812 . S
C462 C463 1.389 . S
C462 C467 1.391 . S
C463 H449 0.941 . S
C463 C462 1.389 . S
C463 C464 1.397 . S
C464 H450 0.939 . S
C464 C463 1.397 . S
C464 C465 1.378 . S
C465 C464 1.378 . S
C465 C466 1.378 . S
C466 H451 0.940 . S
C466 C465 1.378 . S
C466 C467 1.396 . S
C467 H452 0.940 . S
C467 C462 1.391 . S
C467 C466 1.396 . S
C468 P448 1.803 . S
C468 C469 1.378 . S
C468 C473 1.400 . S
C469 H453 0.939 . S
C469 C468 1.378 . S
C469 C470 1.361 . S
C470 H454 0.942 . S
C470 C469 1.361 . S
C470 C471 1.369 . S
C471 C470 1.369 . S
C471 C472 1.404 . S
C472 H455 0.940 . S
C472 C471 1.404 . S
C472 C473 1.389 . S
C473 H456 0.939 . S
C473 C468 1.400 . S
C473 C472 1.389 . S
C474 P448 1.819 . S
C474 C475 1.391 . S
C474 C479 1.391 . S
C475 H457 0.941 . S
C475 C474 1.391 . S
C475 C476 1.396 . S
C476 H460 0.939 . S
C476 C475 1.396 . S
C476 C477 1.397 . S
C477 C476 1.397 . S
C477 C478 1.385 . S
C478 H461 0.940 . S
C478 C477 1.385 . S
C478 C479 1.388 . S
C479 H458 0.939 . S
C479 C474 1.391 . S
C479 C478 1.388 . S
P480 O491 1.490 . S
P480 C494 1.812 . S
P480 C500 1.803 . S
P480 C506 1.819 . S
H481 C495 0.941 . S
H482 C496 0.939 . S
H483 C498 0.940 . S
H484 C499 0.940 . S
H485 C501 0.939 . S
H486 C502 0.942 . S
H487 C504 0.940 . S
H488 C505 0.939 . S
H489 C507 0.941 . S
H490 C511 0.939 . S
O491 P480 1.490 . S
H492 C508 0.939 . S
H493 C510 0.940 . S
C494 P480 1.812 . S
C494 C495 1.389 . S
C494 C499 1.391 . S
C495 H481 0.941 . S
C495 C494 1.389 . S
C495 C496 1.397 . S
C496 H482 0.939 . S
C496 C495 1.397 . S
C496 C497 1.378 . S
C497 C496 1.378 . S
C497 C498 1.378 . S
C498 H483 0.940 . S
C498 C497 1.378 . S
C498 C499 1.396 . S
C499 H484 0.940 . S
C499 C494 1.391 . S
C499 C498 1.396 . S
C500 P480 1.803 . S
C500 C501 1.378 . S
C500 C505 1.400 . S
C501 H485 0.939 . S
C501 C500 1.378 . S
C501 C502 1.361 . S
C502 H486 0.942 . S
C502 C501 1.361 . S
C502 C503 1.369 . S
C503 C502 1.369 . S
C503 C504 1.404 . S
C504 H487 0.940 . S
C504 C503 1.404 . S
C504 C505 1.389 . S
C505 H488 0.939 . S
C505 C500 1.400 . S
C505 C504 1.389 . S
C506 P480 1.819 . S
C506 C507 1.391 . S
C506 C511 1.391 . S
C507 H489 0.941 . S
C507 C506 1.391 . S
C507 C508 1.396 . S
C508 H492 0.939 . S
C508 C507 1.396 . S
C508 C509 1.397 . S
C509 C508 1.397 . S
C509 C510 1.385 . S
C510 H493 0.940 . S
C510 C509 1.385 . S
C510 C511 1.388 . S
C511 H490 0.939 . S
C511 C506 1.391 . S
C511 C510 1.388 . S
P512 O523 1.490 . S
P512 C526 1.812 . S
P512 C532 1.803 . S
P512 C538 1.819 . S
H513 C527 0.941 . S
H514 C528 0.939 . S
H515 C530 0.940 . S
H516 C531 0.940 . S
H517 C533 0.939 . S
H518 C534 0.942 . S
H519 C536 0.940 . S
H520 C537 0.939 . S
H521 C539 0.941 . S
H522 C543 0.939 . S
O523 P512 1.490 . S
H524 C540 0.939 . S
H525 C542 0.940 . S
C526 P512 1.812 . S
C526 C527 1.389 . S
C526 C531 1.391 . S
C527 H513 0.941 . S
C527 C526 1.389 . S
C527 C528 1.397 . S
C528 H514 0.939 . S
C528 C527 1.397 . S
C528 C529 1.378 . S
C529 C528 1.378 . S
C529 C530 1.378 . S
C530 H515 0.940 . S
C530 C529 1.378 . S
C530 C531 1.396 . S
C531 H516 0.940 . S
C531 C526 1.391 . S
C531 C530 1.396 . S
C532 P512 1.803 . S
C532 C533 1.378 . S
C532 C537 1.400 . S
C533 H517 0.939 . S
C533 C532 1.378 . S
C533 C534 1.361 . S
C534 H518 0.942 . S
C534 C533 1.361 . S
C534 C535 1.369 . S
C535 C534 1.369 . S
C535 C536 1.404 . S
C536 H519 0.940 . S
C536 C535 1.404 . S
C536 C537 1.389 . S
C537 H520 0.939 . S
C537 C532 1.400 . S
C537 C536 1.389 . S
C538 P512 1.819 . S
C538 C539 1.391 . S
C538 C543 1.391 . S
C539 H521 0.941 . S
C539 C538 1.391 . S
C539 C540 1.396 . S
C540 H524 0.939 . S
C540 C539 1.396 . S
C540 C541 1.397 . S
C541 C540 1.397 . S
C541 C542 1.385 . S
C542 H525 0.940 . S
C542 C541 1.385 . S
C542 C543 1.388 . S
C543 H522 0.939 . S
C543 C538 1.391 . S
C543 C542 1.388 . S
P544 O555 1.490 . S
P544 C558 1.812 . S
P544 C564 1.803 . S
P544 C570 1.819 . S
H545 C559 0.941 . S
H546 C560 0.939 . S
H547 C562 0.940 . S
H548 C563 0.940 . S
H549 C565 0.939 . S
H550 C566 0.942 . S
H551 C568 0.940 . S
H552 C569 0.939 . S
H553 C571 0.941 . S
H554 C575 0.939 . S
O555 P544 1.490 . S
H556 C572 0.939 . S
H557 C574 0.940 . S
C558 P544 1.812 . S
C558 C559 1.389 . S
C558 C563 1.391 . S
C559 H545 0.941 . S
C559 C558 1.389 . S
C559 C560 1.397 . S
C560 H546 0.939 . S
C560 C559 1.397 . S
C560 C561 1.378 . S
C561 C560 1.378 . S
C561 C562 1.378 . S
C562 H547 0.940 . S
C562 C561 1.378 . S
C562 C563 1.396 . S
C563 H548 0.940 . S
C563 C558 1.391 . S
C563 C562 1.396 . S
C564 P544 1.803 . S
C564 C565 1.378 . S
C564 C569 1.400 . S
C565 H549 0.939 . S
C565 C564 1.378 . S
C565 C566 1.361 . S
C566 H550 0.942 . S
C566 C565 1.361 . S
C566 C567 1.369 . S
C567 C566 1.369 . S
C567 C568 1.404 . S
C568 H551 0.940 . S
C568 C567 1.404 . S
C568 C569 1.389 . S
C569 H552 0.939 . S
C569 C564 1.400 . S
C569 C568 1.389 . S
C570 P544 1.819 . S
C570 C571 1.391 . S
C570 C575 1.391 . S
C571 H553 0.941 . S
C571 C570 1.391 . S
C571 C572 1.396 . S
C572 H556 0.939 . S
C572 C571 1.396 . S
C572 C573 1.397 . S
C573 C572 1.397 . S
C573 C574 1.385 . S
C574 H557 0.940 . S
C574 C573 1.385 . S
C574 C575 1.388 . S
C575 H554 0.939 . S
C575 C570 1.391 . S
C575 C574 1.388 . S
C576 Eu577 2.835 . S
C576 C578 1.500 . S
C576 O596 1.257 1_545 S
C576 O597 1.260 . S
Eu577 C576 2.835 . S
Eu577 O596 2.473 1_545 S
Eu577 O597 2.480 . S
Eu577 O598 2.430 . S
Eu577 O599 2.670 1_554 S
Eu577 O600 2.394 1_545 S
Eu577 O605 2.355 1_545 S
Eu577 O607 2.374 . S
C578 C576 1.500 . S
C578 C579 1.377 . S
C578 C583 1.377 1_545 S
C579 C578 1.377 . S
C579 C580 1.395 . S
C579 H608 0.931 . S
C580 C579 1.395 . S
C580 C581 1.383 1_545 S
C580 H609 0.931 . S
C581 C580 1.383 1_565 S
C581 C582 1.394 . S
C582 C581 1.394 . S
C582 C583 1.378 . S
C582 H610 0.931 . S
C583 C578 1.377 1_565 S
C583 C582 1.378 . S
C583 H611 0.931 . S
C584 O598 1.313 . S
C584 O599 1.251 1_554 S
C585 O600 1.251 . S
C585 O601 1.251 1_554 S
C586 Eu587 2.835 . S
C586 C588 1.500 . S
C586 O602 1.257 1_565 S
C586 O603 1.260 . S
Eu587 C586 2.835 . S
Eu587 O599 2.355 1_565 S
Eu587 O601 2.374 . S
Eu587 O602 2.473 1_565 S
Eu587 O603 2.480 . S
Eu587 O604 2.430 . S
Eu587 O605 2.670 1_556 S
Eu587 O606 2.394 1_565 S
C588 C586 1.500 . S
C588 C589 1.377 . S
C588 C593 1.377 1_565 S
C589 C588 1.377 . S
C589 C590 1.395 . S
C589 H612 0.931 . S
C590 C589 1.395 . S
C590 C591 1.383 1_565 S
C590 H613 0.931 . S
C591 C590 1.383 1_545 S
C591 C592 1.394 . S
C592 C591 1.394 . S
C592 C593 1.378 . S
C592 H614 0.931 . S
C593 C588 1.377 1_545 S
C593 C592 1.378 . S
C593 H615 0.931 . S
C594 O604 1.259 1_554 S
C594 O605 1.270 . S
C595 O606 1.251 . S
C595 O607 1.251 1_556 S
O596 C576 1.257 1_565 S
O596 Eu577 2.473 1_565 S
O597 C576 1.260 . S
O597 Eu577 2.480 . S
O598 Eu577 2.430 . S
O598 C584 1.313 . S
O599 Eu577 2.670 1_556 S
O599 C584 1.251 1_556 S
O599 Eu587 2.355 1_545 S
O600 Eu577 2.394 1_565 S
O600 C585 1.251 . S
O601 C585 1.251 1_556 S
O601 Eu587 2.374 . S
O602 C586 1.257 1_545 S
O602 Eu587 2.473 1_545 S
O603 C586 1.260 . S
O603 Eu587 2.480 . S
O604 Eu587 2.430 . S
O604 C594 1.259 1_556 S
O605 Eu577 2.355 1_565 S
O605 Eu587 2.670 1_554 S
O605 C594 1.270 . S
O606 Eu587 2.394 1_545 S
O606 C595 1.251 . S
O607 Eu577 2.374 . S
O607 C595 1.251 1_554 S
H608 C579 0.931 . S
H609 C580 0.931 . S
H610 C582 0.931 . S
H611 C583 0.931 . S
H612 C589 0.931 . S
H613 C590 0.931 . S
H614 C592 0.931 . S
H615 C593 0.931 . S
C616 Eu617 2.835 . S
C616 C618 1.500 1_655 S
C616 O636 1.257 1_655 S
C616 O637 1.260 . S
Eu617 C616 2.835 . S
Eu617 O636 2.473 1_655 S
Eu617 O637 2.480 . S
Eu617 O638 2.430 . S
Eu617 O639 2.670 1_554 S
Eu617 O640 2.394 1_655 S
Eu617 O645 2.355 1_655 S
Eu617 O647 2.374 . S
C618 C616 1.500 1_455 S
C618 C619 1.377 1_455 S
C618 C623 1.377 . S
C619 C618 1.377 1_655 S
C619 C620 1.395 . S
C619 H648 0.931 . S
C620 C619 1.395 . S
C620 C621 1.383 1_655 S
C620 H649 0.931 . S
C621 C620 1.383 1_455 S
C621 C622 1.394 . S
C622 C621 1.394 . S
C622 C623 1.378 . S
C622 H650 0.931 . S
C623 C618 1.377 . S
C623 C622 1.378 . S
C623 H651 0.931 . S
C624 O638 1.259 1_556 S
C624 O639 1.270 . S
C625 O640 1.251 . S
C625 O641 1.251 . S
C626 Eu627 2.835 . S
C626 C628 1.500 1_455 S
C626 O642 1.257 1_455 S
C626 O643 1.260 . S
Eu627 C626 2.835 . S
Eu627 O639 2.355 1_455 S
Eu627 O641 2.374 1_556 S
Eu627 O642 2.473 1_455 S
Eu627 O643 2.480 . S
Eu627 O644 2.430 . S
Eu627 O645 2.670 1_556 S
Eu627 O646 2.394 1_455 S
C628 C626 1.500 1_655 S
C628 C629 1.377 1_655 S
C628 C633 1.377 . S
C629 C628 1.377 1_455 S
C629 C630 1.395 . S
C629 H652 0.931 . S
C630 C629 1.395 . S
C630 C631 1.383 1_455 S
C630 H653 0.931 . S
C631 C630 1.383 1_655 S
C631 C632 1.394 . S
C632 C631 1.394 . S
C632 C633 1.378 . S
C632 H654 0.931 . S
C633 C628 1.377 . S
C633 C632 1.378 . S
C633 H655 0.931 . S
C634 O644 1.259 1_554 S
C634 O645 1.270 . S
C635 O646 1.251 . S
C635 O647 1.251 1_556 S
O636 C616 1.257 1_455 S
O636 Eu617 2.473 1_455 S
O637 C616 1.260 . S
O637 Eu617 2.480 . S
O638 Eu617 2.430 . S
O638 C624 1.259 1_554 S
O639 Eu617 2.670 1_556 S
O639 C624 1.270 . S
O639 Eu627 2.355 1_655 S
O640 Eu617 2.394 1_455 S
O640 C625 1.251 . S
O641 C625 1.251 . S
O641 Eu627 2.374 1_554 S
O642 C626 1.257 1_655 S
O642 Eu627 2.473 1_655 S
O643 C626 1.260 . S
O643 Eu627 2.480 . S
O644 Eu627 2.430 . S
O644 C634 1.259 1_556 S
O645 Eu617 2.355 1_455 S
O645 Eu627 2.670 1_554 S
O645 C634 1.270 . S
O646 Eu627 2.394 1_655 S
O646 C635 1.251 . S
O647 Eu617 2.374 . S
O647 C635 1.251 1_554 S
H648 C619 0.931 . S
H649 C620 0.931 . S
H650 C622 0.931 . S
H651 C623 0.931 . S
H652 C629 0.931 . S
H653 C630 0.931 . S
H654 C632 0.931 . S
H655 C633 0.931 . S
C656 Eu657 2.835 . S
C656 C658 1.500 . S
C656 O676 1.257 . S
C656 O677 1.260 . S
Eu657 C656 2.835 . S
Eu657 O676 2.473 . S
Eu657 O677 2.480 . S
Eu657 O678 2.430 . S
Eu657 O679 2.670 1_556 S
Eu657 O680 2.394 . S
Eu657 O685 2.355 . S
Eu657 O687 2.359 1_556 S
C658 C656 1.500 . S
C658 C659 1.377 . S
C658 C663 1.377 . S
C659 C658 1.377 . S
C659 C660 1.395 . S
C659 H688 0.931 . S
C660 C659 1.395 . S
C660 C661 1.383 . S
C660 H689 0.931 . S
C661 C660 1.383 . S
C661 C662 1.394 . S
C662 C661 1.394 . S
C662 C663 1.378 . S
C662 H690 0.931 . S
C663 C658 1.377 . S
C663 C662 1.378 . S
C663 H691 0.931 . S
C664 O678 1.259 1_554 S
C664 O679 1.270 . S
C665 O680 1.251 . S
C665 O681 1.251 1_556 S
C666 Eu667 2.835 . S
C666 C668 1.500 . S
C666 O682 1.257 . S
C666 O683 1.260 . S
Eu667 C666 2.835 . S
Eu667 O679 2.355 . S
Eu667 O681 2.374 . S
Eu667 O682 2.473 . S
Eu667 O683 2.480 . S
Eu667 O684 2.430 . S
Eu667 O685 2.670 1_554 S
Eu667 O686 2.394 . S
C668 C666 1.500 . S
C668 C669 1.377 . S
C668 C673 1.377 . S
C669 C668 1.377 . S
C669 C670 1.395 . S
C669 H692 0.931 . S
C670 C669 1.395 . S
C670 C671 1.383 . S
C670 H693 0.931 . S
C671 C670 1.383 . S
C671 C672 1.394 . S
C672 C671 1.394 . S
C672 C673 1.378 . S
C672 H694 0.931 . S
C673 C668 1.377 . S
C673 C672 1.378 . S
C673 H695 0.931 . S
C674 O684 1.259 1_556 S
C674 O685 1.270 . S
C675 O686 1.251 . S
C675 O687 1.270 . S
O676 C656 1.257 . S
O676 Eu657 2.473 . S
O677 C656 1.260 . S
O677 Eu657 2.480 . S
O678 Eu657 2.430 . S
O678 C664 1.259 1_556 S
O679 Eu657 2.670 1_554 S
O679 C664 1.270 . S
O679 Eu667 2.355 . S
O680 Eu657 2.394 . S
O680 C665 1.251 . S
O681 C665 1.251 1_554 S
O681 Eu667 2.374 . S
O682 C666 1.257 . S
O682 Eu667 2.473 . S
O683 C666 1.260 . S
O683 Eu667 2.480 . S
O684 Eu667 2.430 . S
O684 C674 1.259 1_554 S
O685 Eu657 2.355 . S
O685 Eu667 2.670 1_556 S
O685 C674 1.270 . S
O686 Eu667 2.394 . S
O686 C675 1.251 . S
O687 Eu657 2.359 1_554 S
O687 C675 1.270 . S
H688 C659 0.931 . S
H689 C660 0.931 . S
H690 C662 0.931 . S
H691 C663 0.931 . S
H692 C669 0.931 . S
H693 C670 0.931 . S
H694 C672 0.931 . S
H695 C673 0.931 . S
C696 Eu697 2.835 . S
C696 C698 1.500 . S
C696 O716 1.257 . S
C696 O717 1.260 . S
Eu697 C696 2.835 . S
Eu697 O716 2.473 . S
Eu697 O717 2.480 . S
Eu697 O718 2.430 . S
Eu697 O719 2.670 . S
Eu697 O720 2.394 . S
Eu697 O725 2.355 . S
Eu697 O727 2.374 . S
C698 C696 1.500 . S
C698 C699 1.377 . S
C698 C703 1.377 . S
C699 C698 1.377 . S
C699 C700 1.395 . S
C699 H728 0.931 . S
C700 C699 1.395 . S
C700 C701 1.383 . S
C700 H729 0.931 . S
C701 C700 1.383 . S
C701 C702 1.394 . S
C702 C701 1.394 . S
C702 C703 1.378 . S
C702 H730 0.931 . S
C703 C698 1.377 . S
C703 C702 1.378 . S
C703 H731 0.931 . S
C704 O718 1.259 . S
C704 O719 1.270 . S
C705 O720 1.251 . S
C705 O721 1.251 . S
C706 Eu707 2.835 . S
C706 C708 1.500 . S
C706 O722 1.257 . S
C706 O723 1.260 . S
Eu707 C706 2.835 . S
Eu707 O719 2.355 . S
Eu707 O721 2.374 . S
Eu707 O722 2.473 . S
Eu707 O723 2.480 . S
Eu707 O724 2.430 . S
Eu707 O725 2.670 . S
Eu707 O726 2.394 . S
C708 C706 1.500 . S
C708 C709 1.377 . S
C708 C713 1.377 . S
C709 C708 1.377 . S
C709 C710 1.395 . S
C709 H732 0.931 . S
C710 C709 1.395 . S
C710 C711 1.383 . S
C710 H733 0.931 . S
C711 C710 1.383 . S
C711 C712 1.394 . S
C712 C711 1.394 . S
C712 C713 1.378 . S
C712 H734 0.931 . S
C713 C708 1.377 . S
C713 C712 1.378 . S
C713 H735 0.931 . S
C714 O724 1.259 . S
C714 O725 1.270 . S
C715 O726 1.251 . S
C715 O727 1.251 . S
O716 C696 1.257 . S
O716 Eu697 2.473 . S
O717 C696 1.260 . S
O717 Eu697 2.480 . S
O718 Eu697 2.430 . S
O718 C704 1.259 . S
O719 Eu697 2.670 . S
O719 C704 1.270 . S
O719 Eu707 2.355 . S
O720 Eu697 2.394 . S
O720 C705 1.251 . S
O721 C705 1.251 . S
O721 Eu707 2.374 . S
O722 C706 1.257 . S
O722 Eu707 2.473 . S
O723 C706 1.260 . S
O723 Eu707 2.480 . S
O724 Eu707 2.430 . S
O724 C714 1.259 . S
O725 Eu697 2.355 . S
O725 Eu707 2.670 . S
O725 C714 1.270 . S
O726 Eu707 2.394 . S
O726 C715 1.251 . S
O727 Eu697 2.374 . S
O727 C715 1.251 . S
H728 C699 0.931 . S
H729 C700 0.931 . S
H730 C702 0.931 . S
H731 C703 0.931 . S
H732 C709 0.931 . S
H733 C710 0.931 . S
H734 C712 0.931 . S
H735 C713 0.931 . S
C736 Eu737 2.835 . S
C736 C738 1.500 . S
C736 O756 1.257 . S
C736 O757 1.260 . S
Eu737 C736 2.835 . S
Eu737 O756 2.473 . S
Eu737 O757 2.480 . S
Eu737 O758 2.430 . S
Eu737 O759 2.670 . S
Eu737 O760 2.394 . S
Eu737 O765 2.355 . S
Eu737 O767 2.374 . S
C738 C736 1.500 . S
C738 C739 1.377 . S
C738 C743 1.377 . S
C739 C738 1.377 . S
C739 C740 1.395 . S
C739 H768 0.931 . S
C740 C739 1.395 . S
C740 C741 1.383 . S
C740 H769 0.931 . S
C741 C740 1.383 . S
C741 C742 1.394 . S
C742 C741 1.394 . S
C742 C743 1.378 . S
C742 H770 0.931 . S
C743 C738 1.377 . S
C743 C742 1.378 . S
C743 H771 0.931 . S
C744 O758 1.259 . S
C744 O759 1.270 . S
C745 O760 1.251 . S
C745 O761 1.251 . S
C746 Eu747 2.835 . S
C746 C748 1.500 . S
C746 O762 1.257 . S
C746 O763 1.260 . S
Eu747 C746 2.835 . S
Eu747 O759 2.355 . S
Eu747 O761 2.374 . S
Eu747 O762 2.473 . S
Eu747 O763 2.480 . S
Eu747 O764 2.430 . S
Eu747 O765 2.670 . S
Eu747 O766 2.394 . S
C748 C746 1.500 . S
C748 C749 1.377 . S
C748 C753 1.377 . S
C749 C748 1.377 . S
C749 C750 1.395 . S
C749 H772 0.931 . S
C750 C749 1.395 . S
C750 C751 1.383 . S
C750 H773 0.931 . S
C751 C750 1.383 . S
C751 C752 1.394 . S
C752 C751 1.394 . S
C752 C753 1.378 . S
C752 H774 0.931 . S
C753 C748 1.377 . S
C753 C752 1.378 . S
C753 H775 0.931 . S
C754 O764 1.259 . S
C754 O765 1.270 . S
C755 O766 1.251 . S
C755 O767 1.251 . S
O756 C736 1.257 . S
O756 Eu737 2.473 . S
O757 C736 1.260 . S
O757 Eu737 2.480 . S
O758 Eu737 2.430 . S
O758 C744 1.259 . S
O759 Eu737 2.670 . S
O759 C744 1.270 . S
O759 Eu747 2.355 . S
O760 Eu737 2.394 . S
O760 C745 1.251 . S
O761 C745 1.251 . S
O761 Eu747 2.374 . S
O762 C746 1.257 . S
O762 Eu747 2.473 . S
O763 C746 1.260 . S
O763 Eu747 2.480 . S
O764 Eu747 2.430 . S
O764 C754 1.259 . S
O765 Eu737 2.355 . S
O765 Eu747 2.670 . S
O765 C754 1.270 . S
O766 Eu747 2.394 . S
O766 C755 1.251 . S
O767 Eu737 2.374 . S
O767 C755 1.251 . S
H768 C739 0.931 . S
H769 C740 0.931 . S
H770 C742 0.931 . S
H771 C743 0.931 . S
H772 C749 0.931 . S
H773 C750 0.931 . S
H774 C752 0.931 . S
H775 C753 0.931 . S
C776 Eu777 2.835 . S
C776 C778 1.500 . S
C776 O796 1.257 . S
C776 O797 1.260 . S
Eu777 C776 2.835 . S
Eu777 O796 2.473 . S
Eu777 O797 2.480 . S
Eu777 O798 2.430 . S
Eu777 O799 2.670 . S
Eu777 O800 2.394 . S
Eu777 O805 2.355 . S
Eu777 O807 2.374 . S
C778 C776 1.500 . S
C778 C779 1.377 . S
C778 C783 1.377 . S
C779 C778 1.377 . S
C779 C780 1.395 . S
C779 H808 0.931 . S
C780 C779 1.395 . S
C780 C781 1.383 . S
C780 H809 0.931 . S
C781 C780 1.383 . S
C781 C782 1.394 . S
C782 C781 1.394 . S
C782 C783 1.378 . S
C782 H810 0.931 . S
C783 C778 1.377 . S
C783 C782 1.378 . S
C783 H811 0.931 . S
C784 O798 1.259 . S
C784 O799 1.270 . S
C785 O800 1.251 . S
C785 O801 1.251 . S
C786 Eu787 2.835 . S
C786 C788 1.500 . S
C786 O802 1.257 . S
C786 O803 1.260 . S
Eu787 C786 2.835 . S
Eu787 O799 2.355 . S
Eu787 O801 2.374 . S
Eu787 O802 2.473 . S
Eu787 O803 2.480 . S
Eu787 O804 2.430 . S
Eu787 O805 2.670 . S
Eu787 O806 2.394 . S
C788 C786 1.500 . S
C788 C789 1.377 . S
C788 C793 1.377 . S
C789 C788 1.377 . S
C789 C790 1.395 . S
C789 H812 0.931 . S
C790 C789 1.395 . S
C790 C791 1.383 . S
C790 H813 0.931 . S
C791 C790 1.383 . S
C791 C792 1.394 . S
C792 C791 1.394 . S
C792 C793 1.378 . S
C792 H814 0.931 . S
C793 C788 1.377 . S
C793 C792 1.378 . S
C793 H815 0.931 . S
C794 O804 1.259 . S
C794 O805 1.270 . S
C795 O806 1.251 . S
C795 O807 1.251 . S
O796 C776 1.257 . S
O796 Eu777 2.473 . S
O797 C776 1.260 . S
O797 Eu777 2.480 . S
O798 Eu777 2.430 . S
O798 C784 1.259 . S
O799 Eu777 2.670 . S
O799 C784 1.270 . S
O799 Eu787 2.355 . S
O800 Eu777 2.394 . S
O800 C785 1.251 . S
O801 C785 1.251 . S
O801 Eu787 2.374 . S
O802 C786 1.257 . S
O802 Eu787 2.473 . S
O803 C786 1.260 . S
O803 Eu787 2.480 . S
O804 Eu787 2.430 . S
O804 C794 1.259 . S
O805 Eu777 2.355 . S
O805 Eu787 2.670 . S
O805 C794 1.270 . S
O806 Eu787 2.394 . S
O806 C795 1.251 . S
O807 Eu777 2.374 . S
O807 C795 1.251 . S
H808 C779 0.931 . S
H809 C780 0.931 . S
H810 C782 0.931 . S
H811 C783 0.931 . S
H812 C789 0.931 . S
H813 C790 0.931 . S
H814 C792 0.931 . S
H815 C793 0.931 . S
C816 Eu817 2.835 . S
C816 C818 1.500 . S
C816 O836 1.257 . S
C816 O837 1.260 . S
Eu817 C816 2.835 . S
Eu817 O836 2.473 . S
Eu817 O837 2.480 . S
Eu817 O838 2.430 . S
Eu817 O839 2.670 . S
Eu817 O840 2.394 . S
Eu817 O845 2.355 . S
Eu817 O847 2.374 . S
C818 C816 1.500 . S
C818 C819 1.377 . S
C818 C823 1.377 . S
C819 C818 1.377 . S
C819 C820 1.395 . S
C819 H848 0.931 . S
C820 C819 1.395 . S
C820 C821 1.383 . S
C820 H849 0.931 . S
C821 C820 1.383 . S
C821 C822 1.394 . S
C822 C821 1.394 . S
C822 C823 1.378 . S
C822 H850 0.931 . S
C823 C818 1.377 . S
C823 C822 1.378 . S
C823 H851 0.931 . S
C824 O838 1.259 . S
C824 O839 1.270 . S
C825 O840 1.251 . S
C825 O841 1.251 . S
C826 Eu827 2.835 . S
C826 C828 1.500 . S
C826 O842 1.257 . S
C826 O843 1.260 . S
Eu827 C826 2.835 . S
Eu827 O839 2.355 . S
Eu827 O841 2.374 . S
Eu827 O842 2.473 . S
Eu827 O843 2.480 . S
Eu827 O844 2.430 . S
Eu827 O845 2.670 . S
Eu827 O846 2.394 . S
C828 C826 1.500 . S
C828 C829 1.377 . S
C828 C833 1.377 . S
C829 C828 1.377 . S
C829 C830 1.395 . S
C829 H852 0.931 . S
C830 C829 1.395 . S
C830 C831 1.383 . S
C830 H853 0.931 . S
C831 C830 1.383 . S
C831 C832 1.394 . S
C832 C831 1.394 . S
C832 C833 1.378 . S
C832 H854 0.931 . S
C833 C828 1.377 . S
C833 C832 1.378 . S
C833 H855 0.931 . S
C834 O844 1.259 . S
C834 O845 1.270 . S
C835 O846 1.251 . S
C835 O847 1.251 . S
O836 C816 1.257 . S
O836 Eu817 2.473 . S
O837 C816 1.260 . S
O837 Eu817 2.480 . S
O838 Eu817 2.430 . S
O838 C824 1.259 . S
O839 Eu817 2.670 . S
O839 C824 1.270 . S
O839 Eu827 2.355 . S
O840 Eu817 2.394 . S
O840 C825 1.251 . S
O841 C825 1.251 . S
O841 Eu827 2.374 . S
O842 C826 1.257 . S
O842 Eu827 2.473 . S
O843 C826 1.260 . S
O843 Eu827 2.480 . S
O844 Eu827 2.430 . S
O844 C834 1.259 . S
O845 Eu817 2.355 . S
O845 Eu827 2.670 . S
O845 C834 1.270 . S
O846 Eu827 2.394 . S
O846 C835 1.251 . S
O847 Eu817 2.374 . S
O847 C835 1.251 . S
H848 C819 0.931 . S
H849 C820 0.931 . S
H850 C822 0.931 . S
H851 C823 0.931 . S
H852 C829 0.931 . S
H853 C830 0.931 . S
H854 C832 0.931 . S
H855 C833 0.931 . S
C856 Eu857 2.835 . S
C856 C858 1.500 . S
C856 O876 1.257 . S
C856 O877 1.260 . S
Eu857 C856 2.835 . S
Eu857 O876 2.473 . S
Eu857 O877 2.480 . S
Eu857 O878 2.430 . S
Eu857 O879 2.670 . S
Eu857 O880 2.394 . S
Eu857 O885 2.355 . S
Eu857 O887 2.374 . S
C858 C856 1.500 . S
C858 C859 1.377 . S
C858 C863 1.377 . S
C859 C858 1.377 . S
C859 C860 1.395 . S
C859 H888 0.931 . S
C860 C859 1.395 . S
C860 C861 1.383 . S
C860 H889 0.931 . S
C861 C860 1.383 . S
C861 C862 1.394 . S
C862 C861 1.394 . S
C862 C863 1.378 . S
C862 H890 0.931 . S
C863 C858 1.377 . S
C863 C862 1.378 . S
C863 H891 0.931 . S
C864 O878 1.259 . S
C864 O879 1.270 . S
C865 O880 1.251 . S
C865 O881 1.251 . S
C866 Eu867 2.835 . S
C866 C868 1.500 . S
C866 O882 1.257 . S
C866 O883 1.260 . S
Eu867 C866 2.835 . S
Eu867 O879 2.355 . S
Eu867 O881 2.374 . S
Eu867 O882 2.473 . S
Eu867 O883 2.480 . S
Eu867 O884 2.430 . S
Eu867 O885 2.670 . S
Eu867 O886 2.394 . S
C868 C866 1.500 . S
C868 C869 1.377 . S
C868 C873 1.377 . S
C869 C868 1.377 . S
C869 C870 1.395 . S
C869 H892 0.931 . S
C870 C869 1.395 . S
C870 C871 1.383 . S
C870 H893 0.931 . S
C871 C870 1.383 . S
C871 C872 1.394 . S
C872 C871 1.394 . S
C872 C873 1.378 . S
C872 H894 0.931 . S
C873 C868 1.377 . S
C873 C872 1.378 . S
C873 H895 0.931 . S
C874 O884 1.259 . S
C874 O885 1.270 . S
C875 O886 1.251 . S
C875 O887 1.251 . S
O876 C856 1.257 . S
O876 Eu857 2.473 . S
O877 C856 1.260 . S
O877 Eu857 2.480 . S
O878 Eu857 2.430 . S
O878 C864 1.259 . S
O879 Eu857 2.670 . S
O879 C864 1.270 . S
O879 Eu867 2.355 . S
O880 Eu857 2.394 . S
O880 C865 1.251 . S
O881 C865 1.251 . S
O881 Eu867 2.374 . S
O882 C866 1.257 . S
O882 Eu867 2.473 . S
O883 C866 1.260 . S
O883 Eu867 2.480 . S
O884 Eu867 2.430 . S
O884 C874 1.259 . S
O885 Eu857 2.355 . S
O885 Eu867 2.670 . S
O885 C874 1.270 . S
O886 Eu867 2.394 . S
O886 C875 1.251 . S
O887 Eu857 2.374 . S
O887 C875 1.251 . S
H888 C859 0.931 . S
H889 C860 0.931 . S
H890 C862 0.931 . S
H891 C863 0.931 . S
H892 C869 0.931 . S
H893 C870 0.931 . S
H894 C872 0.931 . S
H895 C873 0.931 . S
C896 Eu897 2.835 . S
C896 C898 1.500 . S
C896 O916 1.257 . S
C896 O917 1.260 . S
Eu897 C896 2.835 . S
Eu897 O916 2.473 . S
Eu897 O917 2.480 . S
Eu897 O918 2.430 . S
Eu897 O919 2.670 . S
Eu897 O920 2.394 . S
Eu897 O925 2.355 . S
Eu897 O927 2.374 . S
C898 C896 1.500 . S
C898 C899 1.377 . S
C898 C903 1.377 . S
C899 C898 1.377 . S
C899 C900 1.395 . S
C899 H928 0.931 . S
C900 C899 1.395 . S
C900 C901 1.383 . S
C900 H929 0.931 . S
C901 C900 1.383 . S
C901 C902 1.394 . S
C902 C901 1.394 . S
C902 C903 1.378 . S
C902 H930 0.931 . S
C903 C898 1.377 . S
C903 C902 1.378 . S
C903 H931 0.931 . S
C904 O918 1.259 . S
C904 O919 1.270 . S
C905 O920 1.251 . S
C905 O921 1.251 . S
C906 Eu907 2.835 . S
C906 C908 1.500 . S
C906 O922 1.257 . S
C906 O923 1.260 . S
Eu907 C906 2.835 . S
Eu907 O919 2.355 . S
Eu907 O921 2.374 . S
Eu907 O922 2.473 . S
Eu907 O923 2.480 . S
Eu907 O924 2.430 . S
Eu907 O925 2.670 . S
Eu907 O926 2.394 . S
C908 C906 1.500 . S
C908 C909 1.377 . S
C908 C913 1.377 . S
C909 C908 1.377 . S
C909 C910 1.395 . S
C909 H932 0.931 . S
C910 C909 1.395 . S
C910 C911 1.383 . S
C910 H933 0.931 . S
C911 C910 1.383 . S
C911 C912 1.394 . S
C912 C911 1.394 . S
C912 C913 1.378 . S
C912 H934 0.931 . S
C913 C908 1.377 . S
C913 C912 1.378 . S
C913 H935 0.931 . S
C914 O924 1.259 . S
C914 O925 1.270 . S
C915 O926 1.251 . S
C915 O927 1.251 . S
O916 C896 1.257 . S
O916 Eu897 2.473 . S
O917 C896 1.260 . S
O917 Eu897 2.480 . S
O918 Eu897 2.430 . S
O918 C904 1.259 . S
O919 Eu897 2.670 . S
O919 C904 1.270 . S
O919 Eu907 2.355 . S
O920 Eu897 2.394 . S
O920 C905 1.251 . S
O921 C905 1.251 . S
O921 Eu907 2.374 . S
O922 C906 1.257 . S
O922 Eu907 2.473 . S
O923 C906 1.260 . S
O923 Eu907 2.480 . S
O924 Eu907 2.430 . S
O924 C914 1.259 . S
O925 Eu897 2.355 . S
O925 Eu907 2.670 . S
O925 C914 1.270 . S
O926 Eu907 2.394 . S
O926 C915 1.251 . S
O927 Eu897 2.374 . S
O927 C915 1.251 . S
H928 C899 0.931 . S
H929 C900 0.931 . S
H930 C902 0.931 . S
H931 C903 0.931 . S
H932 C909 0.931 . S
H933 C910 0.931 . S
H934 C912 0.931 . S
H935 C913 0.931 . S
H936 C944 0.950 . S
H937 C949 0.950 . S
H938 C946 0.950 . S
H939 C948 0.950 . S
H940 C950 0.950 . S
H941 C952 0.950 . S
H942 C954 0.950 . S
H943 C955 0.950 . S
C944 H936 0.950 . S
C944 C945 1.386 . S
C944 C946 1.391 . S
C945 C944 1.386 . S
C945 C949 1.393 . S
C946 H938 0.950 . S
C946 C944 1.391 . S
C946 C947 1.400 . S
C947 C946 1.400 . S
C947 C948 1.398 . S
C947 C953 1.491 . S
C948 H939 0.950 . S
C948 C947 1.398 . S
C948 C949 1.391 . S
C949 H937 0.950 . S
C949 C945 1.393 . S
C949 C948 1.391 . S
C950 H940 0.950 . S
C950 C951 1.386 . S
C950 C952 1.391 . S
C951 C950 1.386 . S
C951 C955 1.393 . S
C952 H941 0.950 . S
C952 C950 1.391 . S
C952 C953 1.400 . S
C953 C947 1.491 . S
C953 C952 1.400 . S
C953 C954 1.398 . S
C954 H942 0.950 . S
C954 C953 1.398 . S
C954 C955 1.391 . S
C955 H943 0.950 . S
C955 C951 1.393 . S
C955 C954 1.391 . S
H956 C964 0.950 . S
H957 C969 0.950 . S
H958 C966 0.950 . S
H959 C968 0.950 . S
H960 C970 0.950 . S
H961 C972 0.950 . S
H962 C974 0.950 . S
H963 C975 0.950 . S
C964 H956 0.950 . S
C964 C965 1.386 . S
C964 C966 1.391 . S
C965 C964 1.386 . S
C965 C969 1.393 . S
C966 H958 0.950 . S
C966 C964 1.391 . S
C966 C967 1.400 . S
C967 C966 1.400 . S
C967 C968 1.398 . S
C967 C973 1.491 . S
C968 H959 0.950 . S
C968 C967 1.398 . S
C968 C969 1.391 . S
C969 H957 0.950 . S
C969 C965 1.393 . S
C969 C968 1.391 . S
C970 H960 0.950 . S
C970 C971 1.386 . S
C970 C972 1.391 . S
C971 C970 1.386 . S
C971 C975 1.393 . S
C972 H961 0.950 . S
C972 C970 1.391 . S
C972 C973 1.400 . S
C973 C967 1.491 . S
C973 C972 1.400 . S
C973 C974 1.398 . S
C974 H962 0.950 . S
C974 C973 1.398 . S
C974 C975 1.391 . S
C975 H963 0.950 . S
C975 C971 1.393 . S
C975 C974 1.391 . S
H976 C984 0.950 . S
H977 C989 0.950 . S
H978 C986 0.950 . S
H979 C988 0.950 . S
H980 C990 0.950 . S
H981 C992 0.950 . S
H982 C994 0.950 . S
H983 C995 0.950 1_556 S
C984 H976 0.950 . S
C984 C985 1.386 . S
C984 C986 1.391 . S
C985 C984 1.386 . S
C985 C989 1.393 . S
C986 H978 0.950 . S
C986 C984 1.391 . S
C986 C987 1.400 . S
C987 C986 1.400 . S
C987 C988 1.398 . S
C987 C993 1.491 . S
C988 H979 0.950 . S
C988 C987 1.398 . S
C988 C989 1.391 . S
C989 H977 0.950 . S
C989 C985 1.393 . S
C989 C988 1.391 . S
C990 H980 0.950 . S
C990 C991 1.386 . S
C990 C992 1.391 . S
C991 C990 1.386 . S
C991 C995 1.393 . S
C992 H981 0.950 . S
C992 C990 1.391 . S
C992 C993 1.400 . S
C993 C987 1.491 . S
C993 C992 1.400 . S
C993 C994 1.398 . S
C994 H982 0.950 . S
C994 C993 1.398 . S
C994 C995 1.391 . S
C995 H983 0.950 1_554 S
C995 C991 1.393 . S
C995 C994 1.391 . S
H996 C1004 0.950 . S
H997 C1009 0.950 . S
H998 C1006 0.950 . S
H999 C1008 0.950 . S
H1000 C1010 0.950 . S
H1001 C1012 0.950 . S
H1002 C1014 0.950 . S
H1003 C1015 0.950 . S
C1004 H996 0.950 . S
C1004 C1005 1.386 . S
C1004 C1006 1.391 . S
C1005 C1004 1.386 . S
C1005 C1009 1.393 . S
C1006 H998 0.950 . S
C1006 C1004 1.391 . S
C1006 C1007 1.400 . S
C1007 C1006 1.400 . S
C1007 C1008 1.398 . S
C1007 C1013 1.491 . S
C1008 H999 0.950 . S
C1008 C1007 1.398 . S
C1008 C1009 1.391 . S
C1009 H997 0.950 . S
C1009 C1005 1.393 . S
C1009 C1008 1.391 . S
C1010 H1000 0.950 . S
C1010 C1011 1.386 . S
C1010 C1012 1.391 . S
C1011 C1010 1.386 . S
C1011 C1015 1.393 . S
C1012 H1001 0.950 . S
C1012 C1010 1.391 . S
C1012 C1013 1.400 . S
C1013 C1007 1.491 . S
C1013 C1012 1.400 . S
C1013 C1014 1.398 . S
C1014 H1002 0.950 . S
C1014 C1013 1.398 . S
C1014 C1015 1.391 . S
C1015 H1003 0.950 . S
C1015 C1011 1.393 . S
C1015 C1014 1.391 . S
H1016 C1024 0.950 . S
H1017 C1029 0.950 . S
H1018 C1026 0.950 . S
H1019 C1028 0.950 . S
H1020 C1030 0.950 . S
H1021 C1032 0.950 . S
H1022 C1034 0.950 . S
H1023 C1035 0.882 1_554 S
C1024 H1016 0.950 . S
C1024 C1025 1.386 . S
C1024 C1026 1.391 . S
C1025 C1024 1.386 . S
C1025 C1029 1.393 . S
C1026 H1018 0.950 . S
C1026 C1024 1.391 . S
C1026 C1027 1.400 . S
C1027 C1026 1.400 . S
C1027 C1028 1.398 . S
C1027 C1033 1.491 . S
C1028 H1019 0.950 . S
C1028 C1027 1.398 . S
C1028 C1029 1.391 . S
C1029 H1017 0.950 . S
C1029 C1025 1.393 . S
C1029 C1028 1.391 . S
C1030 H1020 0.950 . S
C1030 C1031 1.386 . S
C1030 C1032 1.391 . S
C1031 C1030 1.386 . S
C1031 C1035 1.393 . S
C1032 H1021 0.950 . S
C1032 C1030 1.391 . S
C1032 C1033 1.400 . S
C1033 C1027 1.491 . S
C1033 C1032 1.400 . S
C1033 C1034 1.398 . S
C1034 H1022 0.950 . S
C1034 C1033 1.398 . S
C1034 C1035 1.391 . S
C1035 H1023 0.882 1_556 S
C1035 C1031 1.393 . S
C1035 C1034 1.391 . S
H1036 C1044 0.950 . S
H1037 C1049 0.950 . S
H1038 C1046 0.950 . S
H1039 C1048 0.950 . S
H1040 C1050 0.950 . S
H1041 C1052 0.950 . S
H1042 C1054 0.950 . S
H1043 C1055 0.950 1_554 S
C1044 H1036 0.950 . S
C1044 C1045 1.386 . S
C1044 C1046 1.391 . S
C1045 C1044 1.386 . S
C1045 C1049 1.393 . S
C1046 H1038 0.950 . S
C1046 C1044 1.391 . S
C1046 C1047 1.400 . S
C1047 C1046 1.400 . S
C1047 C1048 1.398 . S
C1047 C1053 1.491 . S
C1048 H1039 0.950 . S
C1048 C1047 1.398 . S
C1048 C1049 1.391 . S
C1049 H1037 0.950 . S
C1049 C1045 1.393 . S
C1049 C1048 1.391 . S
C1050 H1040 0.950 . S
C1050 C1051 1.386 . S
C1050 C1052 1.391 . S
C1051 C1050 1.386 . S
C1051 C1055 1.393 . S
C1052 H1041 0.950 . S
C1052 C1050 1.391 . S
C1052 C1053 1.400 . S
C1053 C1047 1.491 . S
C1053 C1052 1.400 . S
C1053 C1054 1.398 . S
C1054 H1042 0.950 . S
C1054 C1053 1.398 . S
C1054 C1055 1.391 . S
C1055 H1043 0.950 1_556 S
C1055 C1051 1.393 . S
C1055 C1054 1.391 . S
H1056 C1064 0.950 . S
H1057 C1069 0.950 . S
H1058 C1066 0.950 . S
H1059 C1068 0.950 . S
H1060 C1070 0.950 . S
H1061 C1072 0.950 . S
H1062 C1074 0.949 . S
H1063 C1075 0.950 1_554 S
C1064 H1056 0.950 . S
C1064 C1065 1.386 . S
C1064 C1066 1.391 . S
C1065 C1064 1.386 . S
C1065 C1069 1.393 . S
C1066 H1058 0.950 . S
C1066 C1064 1.391 . S
C1066 C1067 1.400 . S
C1067 C1066 1.400 . S
C1067 C1068 1.398 . S
C1067 C1073 1.491 . S
C1068 H1059 0.950 . S
C1068 C1067 1.398 . S
C1068 C1069 1.391 . S
C1069 H1057 0.950 . S
C1069 C1065 1.393 . S
C1069 C1068 1.391 . S
C1070 H1060 0.950 . S
C1070 C1071 1.386 . S
C1070 C1072 1.391 . S
C1071 C1070 1.386 . S
C1071 C1075 1.393 . S
C1072 H1061 0.950 . S
C1072 C1070 1.391 . S
C1072 C1073 1.400 . S
C1073 C1067 1.491 . S
C1073 C1072 1.400 . S
C1073 C1074 1.398 . S
C1074 H1062 0.949 . S
C1074 C1073 1.398 . S
C1074 C1075 1.391 . S
C1075 H1063 0.950 1_556 S
C1075 C1071 1.393 . S
C1075 C1074 1.391 . S
H1076 C1084 0.950 . S
H1077 C1089 0.950 . S
H1078 C1086 0.950 . S
H1079 C1088 0.950 . S
H1080 C1090 0.950 . S
H1081 C1092 0.950 . S
H1082 C1094 0.950 . S
H1083 C1095 0.890 1_554 S
C1084 H1076 0.950 . S
C1084 C1085 1.386 . S
C1084 C1086 1.391 . S
C1085 C1084 1.386 . S
C1085 C1089 1.393 . S
C1086 H1078 0.950 . S
C1086 C1084 1.391 . S
C1086 C1087 1.400 . S
C1087 C1086 1.400 . S
C1087 C1088 1.398 . S
C1087 C1093 1.491 . S
C1088 H1079 0.950 . S
C1088 C1087 1.398 . S
C1088 C1089 1.391 . S
C1089 H1077 0.950 . S
C1089 C1085 1.393 . S
C1089 C1088 1.391 . S
C1090 H1080 0.950 . S
C1090 C1091 1.386 . S
C1090 C1092 1.391 . S
C1091 C1090 1.386 . S
C1091 C1095 1.393 . S
C1092 H1081 0.950 . S
C1092 C1090 1.391 . S
C1092 C1093 1.400 . S
C1093 C1087 1.491 . S
C1093 C1092 1.400 . S
C1093 C1094 1.398 . S
C1094 H1082 0.950 . S
C1094 C1093 1.398 . S
C1094 C1095 1.391 . S
C1095 H1083 0.890 1_556 S
C1095 C1091 1.393 . S
C1095 C1094 1.391 . S
H1096 C1104 0.950 . S
H1097 C1109 0.950 . S
H1098 C1106 0.950 . S
H1099 C1108 0.950 . S
H1100 C1110 0.950 1_554 S
H1101 C1112 0.929 1_554 S
H1102 C1114 0.950 . S
H1103 C1115 0.950 . S
C1104 H1096 0.950 . S
C1104 C1105 1.386 . S
C1104 C1106 1.391 . S
C1105 C1104 1.386 . S
C1105 C1109 1.393 . S
C1106 H1098 0.950 . S
C1106 C1104 1.391 . S
C1106 C1107 1.400 . S
C1107 C1106 1.400 . S
C1107 C1108 1.398 . S
C1107 C1113 1.491 . S
C1108 H1099 0.950 . S
C1108 C1107 1.398 . S
C1108 C1109 1.391 . S
C1109 H1097 0.950 . S
C1109 C1105 1.393 . S
C1109 C1108 1.391 . S
C1110 H1100 0.950 1_556 S
C1110 C1111 1.386 . S
C1110 C1112 1.391 . S
C1111 C1110 1.386 . S
C1111 C1115 1.393 . S
C1112 H1101 0.929 1_556 S
C1112 C1110 1.391 . S
C1112 C1113 1.400 . S
C1113 C1107 1.491 . S
C1113 C1112 1.400 . S
C1113 C1114 1.398 . S
C1114 H1102 0.950 . S
C1114 C1113 1.398 . S
C1114 C1115 1.391 . S
C1115 H1103 0.950 . S
C1115 C1111 1.393 . S
C1115 C1114 1.391 . S
H1116 C1124 0.950 . S
H1117 C1129 0.950 . S
H1118 C1126 0.950 . S
H1119 C1128 0.950 . S
H1120 C1130 0.950 1_556 S
H1121 C1132 0.950 . S
H1122 C1134 0.950 . S
H1123 C1135 0.950 . S
C1124 H1116 0.950 . S
C1124 C1125 1.386 . S
C1124 C1126 1.391 . S
C1125 C1124 1.386 . S
C1125 C1129 1.393 . S
C1126 H1118 0.950 . S
C1126 C1124 1.391 . S
C1126 C1127 1.400 . S
C1127 C1126 1.400 . S
C1127 C1128 1.398 . S
C1127 C1133 1.491 . S
C1128 H1119 0.950 . S
C1128 C1127 1.398 . S
C1128 C1129 1.391 . S
C1129 H1117 0.950 . S
C1129 C1125 1.393 . S
C1129 C1128 1.391 . S
C1130 H1120 0.950 1_554 S
C1130 C1131 1.386 . S
C1130 C1132 1.391 . S
C1131 C1130 1.386 . S
C1131 C1135 1.393 . S
C1132 H1121 0.950 . S
C1132 C1130 1.391 . S
C1132 C1133 1.400 . S
C1133 C1127 1.491 . S
C1133 C1132 1.400 . S
C1133 C1134 1.398 . S
C1134 H1122 0.950 . S
C1134 C1133 1.398 . S
C1134 C1135 1.391 . S
C1135 H1123 0.950 . S
C1135 C1131 1.393 . S
C1135 C1134 1.391 . S
H1136 C1144 0.950 . S
H1137 C1149 0.950 . S
H1138 C1146 0.950 . S
H1139 C1148 0.950 . S
H1140 C1150 0.950 . S
H1141 C1152 0.950 . S
H1142 C1154 0.950 . S
H1143 C1155 0.950 . S
C1144 H1136 0.950 . S
C1144 C1145 1.386 . S
C1144 C1146 1.391 . S
C1145 C1144 1.386 . S
C1145 C1149 1.393 . S
C1146 H1138 0.950 . S
C1146 C1144 1.391 . S
C1146 C1147 1.400 . S
C1147 C1146 1.400 . S
C1147 C1148 1.398 . S
C1147 C1153 1.491 . S
C1148 H1139 0.950 . S
C1148 C1147 1.398 . S
C1148 C1149 1.391 . S
C1149 H1137 0.950 . S
C1149 C1145 1.393 . S
C1149 C1148 1.391 . S
C1150 H1140 0.950 . S
C1150 C1151 1.386 . S
C1150 C1152 1.391 . S
C1151 C1150 1.386 . S
C1151 C1155 1.393 . S
C1152 H1141 0.950 . S
C1152 C1150 1.391 . S
C1152 C1153 1.400 . S
C1153 C1147 1.491 . S
C1153 C1152 1.400 . S
C1153 C1154 1.398 . S
C1154 H1142 0.950 . S
C1154 C1153 1.398 . S
C1154 C1155 1.391 . S
C1155 H1143 0.950 . S
C1155 C1151 1.393 . S
C1155 C1154 1.391 . S
H1156 C1164 0.950 . S
H1157 C1169 0.950 . S
H1158 C1166 0.950 . S
H1159 C1168 0.950 . S
H1160 C1170 0.950 . S
H1161 C1172 0.950 . S
H1162 C1174 0.950 1_556 S
H1163 C1175 0.927 1_556 S
C1164 H1156 0.950 . S
C1164 C1165 1.386 . S
C1164 C1166 1.391 . S
C1165 C1164 1.386 . S
C1165 C1169 1.393 . S
C1166 H1158 0.950 . S
C1166 C1164 1.391 . S
C1166 C1167 1.400 . S
C1167 C1166 1.400 . S
C1167 C1168 1.398 . S
C1167 C1173 1.491 . S
C1168 H1159 0.950 . S
C1168 C1167 1.398 . S
C1168 C1169 1.391 . S
C1169 H1157 0.950 . S
C1169 C1165 1.393 . S
C1169 C1168 1.391 . S
C1170 H1160 0.950 . S
C1170 C1171 1.386 . S
C1170 C1172 1.391 . S
C1171 C1170 1.386 . S
C1171 C1175 1.410 . S
C1172 H1161 0.950 . S
C1172 C1170 1.391 . S
C1172 C1173 1.400 . S
C1173 C1167 1.491 . S
C1173 C1172 1.400 . S
C1173 C1174 1.398 . S
C1174 H1162 0.950 1_554 S
C1174 C1173 1.398 . S
C1174 C1175 1.397 . S
C1175 H1163 0.927 1_554 S
C1175 C1171 1.410 . S
C1175 C1174 1.397 . S
H1176 C1184 0.950 . S
H1177 C1189 0.950 . S
H1178 C1186 0.950 . S
H1179 C1188 0.950 1_455 S
H1180 C1190 0.950 . S
H1181 C1192 0.950 . S
H1182 C1194 0.950 . S
H1183 C1195 0.950 . S
C1184 H1176 0.950 . S
C1184 C1185 1.386 . S
C1184 C1186 1.391 1_655 S
C1185 C1184 1.386 . S
C1185 C1189 1.393 . S
C1186 H1178 0.950 . S
C1186 C1184 1.391 1_455 S
C1186 C1187 1.400 . S
C1187 C1186 1.400 . S
C1187 C1188 1.398 1_455 S
C1187 C1193 1.491 . S
C1188 H1179 0.950 1_655 S
C1188 C1187 1.398 1_655 S
C1188 C1189 1.391 . S
C1189 H1177 0.950 . S
C1189 C1185 1.393 . S
C1189 C1188 1.391 . S
C1190 H1180 0.950 . S
C1190 C1191 1.386 . S
C1190 C1192 1.391 . S
C1191 C1190 1.386 . S
C1191 C1195 1.393 . S
C1192 H1181 0.950 . S
C1192 C1190 1.391 . S
C1192 C1193 1.400 . S
C1193 C1187 1.491 . S
C1193 C1192 1.400 . S
C1193 C1194 1.398 . S
C1194 H1182 0.950 . S
C1194 C1193 1.398 . S
C1194 C1195 1.391 . S
C1195 H1183 0.950 . S
C1195 C1191 1.393 . S
C1195 C1194 1.391 . S
H1196 C1204 0.950 . S
H1197 C1209 0.950 . S
H1198 C1206 0.950 . S
H1199 C1208 0.950 . S
H1200 C1210 0.950 . S
H1201 C1212 0.950 . S
H1202 C1214 0.950 . S
H1203 C1215 0.950 . S
C1204 H1196 0.950 . S
C1204 C1205 1.386 . S
C1204 C1206 1.391 . S
C1205 C1204 1.386 . S
C1205 C1209 1.393 . S
C1206 H1198 0.950 . S
C1206 C1204 1.391 . S
C1206 C1207 1.400 . S
C1207 C1206 1.400 . S
C1207 C1208 1.398 . S
C1207 C1213 1.491 . S
C1208 H1199 0.950 . S
C1208 C1207 1.398 . S
C1208 C1209 1.391 . S
C1209 H1197 0.950 . S
C1209 C1205 1.393 . S
C1209 C1208 1.391 . S
C1210 H1200 0.950 . S
C1210 C1211 1.386 . S
C1210 C1212 1.391 . S
C1211 C1210 1.386 . S
C1211 C1215 1.393 . S
C1212 H1201 0.950 . S
C1212 C1210 1.391 . S
C1212 C1213 1.400 . S
C1213 C1207 1.491 . S
C1213 C1212 1.400 . S
C1213 C1214 1.398 . S
C1214 H1202 0.950 . S
C1214 C1213 1.398 . S
C1214 C1215 1.391 . S
C1215 H1203 0.950 . S
C1215 C1211 1.393 . S
C1215 C1214 1.391 . S
H1216 C1224 0.950 . S
H1217 C1229 0.950 . S
H1218 C1226 0.950 . S
H1219 C1228 0.950 . S
H1220 C1230 0.950 . S
H1221 C1232 0.950 . S
H1222 C1234 0.950 . S
H1223 C1235 0.950 . S
C1224 H1216 0.950 . S
C1224 C1225 1.386 . S
C1224 C1226 1.391 . S
C1225 C1224 1.386 . S
C1225 C1229 1.393 . S
C1226 H1218 0.950 . S
C1226 C1224 1.391 . S
C1226 C1227 1.400 1_545 S
C1227 C1226 1.400 1_565 S
C1227 C1228 1.398 1_565 S
C1227 C1233 1.491 . S
C1228 H1219 0.950 . S
C1228 C1227 1.398 1_545 S
C1228 C1229 1.391 . S
C1229 H1217 0.950 . S
C1229 C1225 1.393 . S
C1229 C1228 1.391 . S
C1230 H1220 0.950 . S
C1230 C1231 1.386 . S
C1230 C1232 1.391 . S
C1231 C1230 1.386 . S
C1231 C1235 1.393 . S
C1232 H1221 0.950 . S
C1232 C1230 1.391 . S
C1232 C1233 1.400 . S
C1233 C1227 1.491 . S
C1233 C1232 1.400 . S
C1233 C1234 1.398 . S
C1234 H1222 0.950 . S
C1234 C1233 1.398 . S
C1234 C1235 1.391 . S
C1235 H1223 0.950 . S
C1235 C1231 1.393 . S
C1235 C1234 1.391 . S
H1236 C1244 0.950 . S
H1237 C1249 0.950 . S
H1238 C1246 0.950 . S
H1239 C1248 0.950 . S
H1240 C1250 0.950 . S
H1241 C1252 0.950 . S
H1242 C1254 0.950 . S
H1243 C1255 0.950 . S
C1244 H1236 0.950 . S
C1244 C1245 1.386 . S
C1244 C1246 1.391 . S
C1245 C1244 1.386 . S
C1245 C1249 1.393 . S
C1246 H1238 0.950 . S
C1246 C1244 1.391 . S
C1246 C1247 1.400 . S
C1247 C1246 1.400 . S
C1247 C1248 1.398 . S
C1247 C1253 1.491 . S
C1248 H1239 0.950 . S
C1248 C1247 1.398 . S
C1248 C1249 1.391 . S
C1249 H1237 0.950 . S
C1249 C1245 1.393 . S
C1249 C1248 1.391 . S
C1250 H1240 0.950 . S
C1250 C1251 1.386 . S
C1250 C1252 1.391 . S
C1251 C1250 1.386 . S
C1251 C1255 1.393 . S
C1252 H1241 0.950 . S
C1252 C1250 1.391 . S
C1252 C1253 1.400 . S
C1253 C1247 1.491 . S
C1253 C1252 1.400 . S
C1253 C1254 1.398 . S
C1254 H1242 0.950 . S
C1254 C1253 1.398 . S
C1254 C1255 1.391 . S
C1255 H1243 0.950 . S
C1255 C1251 1.393 . S
C1255 C1254 1.391 . S
H1256 C1264 0.950 . S
H1257 C1269 0.950 . S
H1258 C1266 0.950 . S
H1259 C1268 0.950 . S
H1260 C1270 0.950 . S
H1261 C1272 0.950 . S
H1262 C1274 0.950 . S
H1263 C1275 0.950 . S
C1264 H1256 0.950 . S
C1264 C1265 1.386 . S
C1264 C1266 1.391 . S
C1265 C1264 1.386 . S
C1265 C1269 1.393 . S
C1266 H1258 0.950 . S
C1266 C1264 1.391 . S
C1266 C1267 1.400 . S
C1267 C1266 1.400 . S
C1267 C1268 1.398 . S
C1267 C1273 1.491 . S
C1268 H1259 0.950 . S
C1268 C1267 1.398 . S
C1268 C1269 1.391 . S
C1269 H1257 0.950 . S
C1269 C1265 1.393 . S
C1269 C1268 1.391 . S
C1270 H1260 0.950 . S
C1270 C1271 1.386 . S
C1270 C1272 1.391 . S
C1271 C1270 1.386 . S
C1271 C1275 1.393 . S
C1272 H1261 0.950 . S
C1272 C1270 1.391 . S
C1272 C1273 1.400 . S
C1273 C1267 1.491 . S
C1273 C1272 1.400 . S
C1273 C1274 1.398 . S
C1274 H1262 0.950 . S
C1274 C1273 1.398 . S
C1274 C1275 1.391 . S
C1275 H1263 0.950 . S
C1275 C1271 1.393 . S
C1275 C1274 1.391 . S
H1276 C1284 0.950 . S
H1277 C1289 0.950 . S
H1278 C1286 0.950 . S
H1279 C1288 0.950 . S
H1280 C1290 0.950 . S
H1281 C1292 0.950 . S
H1282 C1294 0.950 . S
H1283 C1295 0.950 . S
C1284 H1276 0.950 . S
C1284 C1285 1.386 . S
C1284 C1286 1.391 . S
C1285 C1284 1.386 . S
C1285 C1289 1.393 . S
C1286 H1278 0.950 . S
C1286 C1284 1.391 . S
C1286 C1287 1.400 . S
C1287 C1286 1.400 . S
C1287 C1288 1.398 . S
C1287 C1293 1.491 . S
C1288 H1279 0.950 . S
C1288 C1287 1.398 . S
C1288 C1289 1.391 . S
C1289 H1277 0.950 . S
C1289 C1285 1.393 . S
C1289 C1288 1.391 . S
C1290 H1280 0.950 . S
C1290 C1291 1.386 . S
C1290 C1292 1.391 . S
C1291 C1290 1.386 . S
C1291 C1295 1.393 . S
C1292 H1281 0.950 . S
C1292 C1290 1.391 . S
C1292 C1293 1.400 . S
C1293 C1287 1.491 . S
C1293 C1292 1.400 . S
C1293 C1294 1.398 . S
C1294 H1282 0.950 . S
C1294 C1293 1.398 . S
C1294 C1295 1.391 . S
C1295 H1283 0.950 . S
C1295 C1291 1.393 . S
C1295 C1294 1.391 . S
H1296 C1304 0.950 . S
H1297 C1309 0.950 . S
H1298 C1306 0.950 . S
H1299 C1308 0.950 . S
H1300 C1310 0.950 . S
H1301 C1312 0.950 . S
H1302 C1314 0.950 . S
H1303 C1315 0.950 . S
C1304 H1296 0.950 . S
C1304 C1305 1.386 . S
C1304 C1306 1.391 . S
C1305 C1304 1.386 . S
C1305 C1309 1.393 . S
C1306 H1298 0.950 . S
C1306 C1304 1.391 . S
C1306 C1307 1.400 . S
C1307 C1306 1.400 . S
C1307 C1308 1.398 . S
C1307 C1313 1.491 . S
C1308 H1299 0.950 . S
C1308 C1307 1.398 . S
C1308 C1309 1.391 . S
C1309 H1297 0.950 . S
C1309 C1305 1.393 . S
C1309 C1308 1.391 . S
C1310 H1300 0.950 . S
C1310 C1311 1.386 . S
C1310 C1312 1.391 . S
C1311 C1310 1.386 . S
C1311 C1315 1.393 . S
C1312 H1301 0.950 . S
C1312 C1310 1.391 . S
C1312 C1313 1.400 . S
C1313 C1307 1.491 . S
C1313 C1312 1.400 . S
C1313 C1314 1.398 . S
C1314 H1302 0.950 . S
C1314 C1313 1.398 . S
C1314 C1315 1.391 . S
C1315 H1303 0.950 . S
C1315 C1311 1.393 . S
C1315 C1314 1.391 . S
H1316 C1324 0.950 . S
H1317 C1329 0.950 . S
H1318 C1326 0.950 . S
H1319 C1328 0.950 . S
H1320 C1330 0.950 . S
H1321 C1332 0.950 . S
H1322 C1334 0.950 . S
H1323 C1335 0.950 . S
C1324 H1316 0.950 . S
C1324 C1325 1.386 . S
C1324 C1326 1.391 . S
C1325 C1324 1.386 . S
C1325 C1329 1.393 . S
C1326 H1318 0.950 . S
C1326 C1324 1.391 . S
C1326 C1327 1.400 . S
C1327 C1326 1.400 . S
C1327 C1328 1.398 . S
C1327 C1333 1.491 . S
C1328 H1319 0.950 . S
C1328 C1327 1.398 . S
C1328 C1329 1.391 . S
C1329 H1317 0.950 . S
C1329 C1325 1.393 . S
C1329 C1328 1.391 . S
C1330 H1320 0.950 . S
C1330 C1331 1.386 . S
C1330 C1332 1.391 . S
C1331 C1330 1.386 . S
C1331 C1335 1.393 . S
C1332 H1321 0.950 . S
C1332 C1330 1.391 . S
C1332 C1333 1.400 . S
C1333 C1327 1.491 . S
C1333 C1332 1.400 . S
C1333 C1334 1.398 . S
C1334 H1322 0.950 . S
C1334 C1333 1.398 . S
C1334 C1335 1.391 . S
C1335 H1323 0.950 . S
C1335 C1331 1.393 . S
C1335 C1334 1.391 . S
H1336 C1344 0.950 . S
H1337 C1349 0.950 . S
H1338 C1346 0.950 . S
H1339 C1348 0.950 . S
H1340 C1350 0.950 . S
H1341 C1352 0.950 . S
H1342 C1354 0.950 . S
H1343 C1355 0.950 . S
C1344 H1336 0.950 . S
C1344 C1345 1.386 . S
C1344 C1346 1.391 . S
C1345 C1344 1.386 . S
C1345 C1349 1.393 . S
C1346 H1338 0.950 . S
C1346 C1344 1.391 . S
C1346 C1347 1.400 . S
C1347 C1346 1.400 . S
C1347 C1348 1.398 . S
C1347 C1353 1.491 . S
C1348 H1339 0.950 . S
C1348 C1347 1.398 . S
C1348 C1349 1.391 . S
C1349 H1337 0.950 . S
C1349 C1345 1.393 . S
C1349 C1348 1.391 . S
C1350 H1340 0.950 . S
C1350 C1351 1.386 . S
C1350 C1352 1.391 . S
C1351 C1350 1.386 . S
C1351 C1355 1.393 . S
C1352 H1341 0.950 . S
C1352 C1350 1.391 . S
C1352 C1353 1.400 . S
C1353 C1347 1.491 . S
C1353 C1352 1.400 . S
C1353 C1354 1.398 . S
C1354 H1342 0.950 . S
C1354 C1353 1.398 . S
C1354 C1355 1.391 . S
C1355 H1343 0.950 . S
C1355 C1351 1.393 . S
C1355 C1354 1.391 . S
H1356 C1364 0.950 . S
H1357 C1369 0.950 . S
H1358 C1366 0.950 . S
H1359 C1368 0.950 1_565 S
H1360 C1370 0.950 . S
H1361 C1372 0.950 . S
H1362 C1374 0.950 . S
H1363 C1375 0.950 . S
C1364 H1356 0.950 . S
C1364 C1365 1.386 . S
C1364 C1366 1.391 . S
C1365 C1364 1.386 . S
C1365 C1369 1.393 . S
C1366 H1358 0.950 . S
C1366 C1364 1.391 . S
C1366 C1367 1.400 1_545 S
C1367 C1366 1.400 1_565 S
C1367 C1368 1.398 1_565 S
C1367 C1373 1.491 . S
C1368 H1359 0.950 1_545 S
C1368 C1367 1.398 1_545 S
C1368 C1369 1.391 . S
C1369 H1357 0.950 . S
C1369 C1365 1.393 . S
C1369 C1368 1.391 . S
C1370 H1360 0.950 . S
C1370 C1371 1.386 . S
C1370 C1372 1.391 . S
C1371 C1370 1.386 . S
C1371 C1375 1.393 . S
C1372 H1361 0.950 . S
C1372 C1370 1.391 . S
C1372 C1373 1.400 . S
C1373 C1367 1.491 . S
C1373 C1372 1.400 . S
C1373 C1374 1.398 . S
C1374 H1362 0.950 . S
C1374 C1373 1.398 . S
C1374 C1375 1.391 . S
C1375 H1363 0.950 . S
C1375 C1371 1.393 . S
C1375 C1374 1.391 . S
H1376 C1384 0.950 . S
H1377 C1389 0.943 . S
H1378 C1386 0.950 . S
H1379 C1388 0.950 . S
H1380 C1390 0.950 . S
H1381 C1392 0.950 . S
H1382 C1394 0.950 . S
H1383 C1395 0.950 . S
C1384 H1376 0.950 . S
C1384 C1385 1.386 . S
C1384 C1386 1.391 1_655 S
C1385 C1384 1.386 . S
C1385 C1389 1.403 . S
C1386 H1378 0.950 . S
C1386 C1384 1.391 1_455 S
C1386 C1387 1.400 . S
C1387 C1386 1.400 . S
C1387 C1388 1.398 . S
C1387 C1393 1.491 . S
C1388 H1379 0.950 . S
C1388 C1387 1.398 . S
C1388 C1389 1.377 1_455 S
C1389 H1377 0.943 . S
C1389 C1385 1.403 . S
C1389 C1388 1.377 1_655 S
C1390 H1380 0.950 . S
C1390 C1391 1.386 . S
C1390 C1392 1.391 . S
C1391 C1390 1.386 . S
C1391 C1395 1.393 . S
C1392 H1381 0.950 . S
C1392 C1390 1.391 . S
C1392 C1393 1.400 . S
C1393 C1387 1.491 . S
C1393 C1392 1.400 . S
C1393 C1394 1.398 . S
C1394 H1382 0.950 . S
C1394 C1393 1.398 . S
C1394 C1395 1.391 . S
C1395 H1383 0.950 . S
C1395 C1391 1.393 . S
C1395 C1394 1.391 . S
H1396 C1404 0.950 . S
H1397 C1409 0.950 . S
H1398 C1406 0.950 . S
H1399 C1408 0.950 . S
H1400 C1410 0.950 . S
H1401 C1412 0.950 . S
H1402 C1414 0.950 . S
H1403 C1415 0.950 . S
C1404 H1396 0.950 . S
C1404 C1405 1.386 . S
C1404 C1406 1.391 . S
C1405 C1404 1.386 . S
C1405 C1409 1.393 . S
C1406 H1398 0.950 . S
C1406 C1404 1.391 . S
C1406 C1407 1.400 . S
C1407 C1406 1.400 . S
C1407 C1408 1.398 . S
C1407 C1413 1.491 . S
C1408 H1399 0.950 . S
C1408 C1407 1.398 . S
C1408 C1409 1.391 . S
C1409 H1397 0.950 . S
C1409 C1405 1.393 . S
C1409 C1408 1.391 . S
C1410 H1400 0.950 . S
C1410 C1411 1.386 . S
C1410 C1412 1.391 . S
C1411 C1410 1.386 . S
C1411 C1415 1.393 . S
C1412 H1401 0.950 . S
C1412 C1410 1.391 . S
C1412 C1413 1.400 . S
C1413 C1407 1.491 . S
C1413 C1412 1.400 . S
C1413 C1414 1.398 . S
C1414 H1402 0.950 . S
C1414 C1413 1.398 . S
C1414 C1415 1.391 . S
C1415 H1403 0.950 . S
C1415 C1411 1.393 . S
C1415 C1414 1.391 . S
H1416 C1424 0.950 . S
H1417 C1429 0.950 . S
H1418 C1426 0.950 . S
H1419 C1428 0.950 . S
H1420 C1430 0.950 . S
H1421 C1432 0.950 . S
H1422 C1434 0.950 . S
H1423 C1435 0.950 . S
C1424 H1416 0.950 . S
C1424 C1425 1.386 . S
C1424 C1426 1.391 . S
C1425 C1424 1.386 . S
C1425 C1429 1.393 . S
C1426 H1418 0.950 . S
C1426 C1424 1.391 . S
C1426 C1427 1.400 . S
C1427 C1426 1.400 . S
C1427 C1428 1.398 . S
C1427 C1433 1.491 . S
C1428 H1419 0.950 . S
C1428 C1427 1.398 . S
C1428 C1429 1.391 . S
C1429 H1417 0.950 . S
C1429 C1425 1.393 . S
C1429 C1428 1.391 . S
C1430 H1420 0.950 . S
C1430 C1431 1.386 . S
C1430 C1432 1.391 . S
C1431 C1430 1.386 . S
C1431 C1435 1.393 . S
C1432 H1421 0.950 . S
C1432 C1430 1.391 . S
C1432 C1433 1.400 . S
C1433 C1427 1.491 . S
C1433 C1432 1.400 . S
C1433 C1434 1.398 . S
C1434 H1422 0.950 . S
C1434 C1433 1.398 . S
C1434 C1435 1.391 . S
C1435 H1423 0.950 . S
C1435 C1431 1.393 . S
C1435 C1434 1.391 . S
H1436 C1444 0.950 . S
H1437 C1449 0.950 . S
H1438 C1446 0.950 . S
H1439 C1448 0.950 . S
H1440 C1450 0.950 . S
H1441 C1452 0.950 . S
H1442 C1454 0.950 . S
H1443 C1455 0.950 . S
C1444 H1436 0.950 . S
C1444 C1445 1.386 . S
C1444 C1446 1.391 . S
C1445 C1444 1.386 . S
C1445 C1449 1.393 . S
C1446 H1438 0.950 . S
C1446 C1444 1.391 . S
C1446 C1447 1.400 . S
C1447 C1446 1.400 . S
C1447 C1448 1.398 . S
C1447 C1453 1.491 . S
C1448 H1439 0.950 . S
C1448 C1447 1.398 . S
C1448 C1449 1.391 . S
C1449 H1437 0.950 . S
C1449 C1445 1.393 . S
C1449 C1448 1.391 . S
C1450 H1440 0.950 . S
C1450 C1451 1.386 . S
C1450 C1452 1.391 . S
C1451 C1450 1.386 . S
C1451 C1455 1.393 . S
C1452 H1441 0.950 . S
C1452 C1450 1.391 . S
C1452 C1453 1.400 . S
C1453 C1447 1.491 . S
C1453 C1452 1.400 . S
C1453 C1454 1.398 . S
C1454 H1442 0.950 . S
C1454 C1453 1.398 . S
C1454 C1455 1.391 . S
C1455 H1443 0.950 . S
C1455 C1451 1.393 . S
C1455 C1454 1.391 . S
H1456 C1464 0.950 . S
H1457 C1469 0.950 . S
H1458 C1466 0.950 . S
H1459 C1468 0.950 . S
H1460 C1470 0.950 . S
H1461 C1472 0.950 . S
H1462 C1474 0.950 . S
H1463 C1475 0.950 . S
C1464 H1456 0.950 . S
C1464 C1465 1.386 . S
C1464 C1466 1.391 . S
C1465 C1464 1.386 . S
C1465 C1469 1.393 . S
C1466 H1458 0.950 . S
C1466 C1464 1.391 . S
C1466 C1467 1.400 . S
C1467 C1466 1.400 . S
C1467 C1468 1.398 . S
C1467 C1473 1.491 . S
C1468 H1459 0.950 . S
C1468 C1467 1.398 . S
C1468 C1469 1.391 . S
C1469 H1457 0.950 . S
C1469 C1465 1.393 . S
C1469 C1468 1.391 . S
C1470 H1460 0.950 . S
C1470 C1471 1.386 . S
C1470 C1472 1.391 . S
C1471 C1470 1.386 . S
C1471 C1475 1.393 . S
C1472 H1461 0.950 . S
C1472 C1470 1.391 . S
C1472 C1473 1.400 . S
C1473 C1467 1.491 . S
C1473 C1472 1.400 . S
C1473 C1474 1.398 . S
C1474 H1462 0.950 . S
C1474 C1473 1.398 . S
C1474 C1475 1.391 . S
C1475 H1463 0.950 . S
C1475 C1471 1.393 . S
C1475 C1474 1.391 . S
H1476 C1484 0.950 . S
H1477 C1489 0.950 . S
H1478 C1486 0.951 1_545 S
H1479 C1488 0.950 1_545 S
H1480 C1490 0.950 . S
H1481 C1492 0.950 . S
H1482 C1494 0.950 . S
H1483 C1495 0.950 . S
C1484 H1476 0.950 . S
C1484 C1485 1.386 . S
C1484 C1486 1.391 . S
C1485 C1484 1.386 . S
C1485 C1489 1.393 . S
C1486 H1478 0.951 1_565 S
C1486 C1484 1.391 . S
C1486 C1487 1.400 1_565 S
C1487 C1486 1.400 1_545 S
C1487 C1488 1.398 1_545 S
C1487 C1493 1.491 . S
C1488 H1479 0.950 1_565 S
C1488 C1487 1.398 1_565 S
C1488 C1489 1.391 . S
C1489 H1477 0.950 . S
C1489 C1485 1.393 . S
C1489 C1488 1.391 . S
C1490 H1480 0.950 . S
C1490 C1491 1.386 . S
C1490 C1492 1.391 . S
C1491 C1490 1.386 . S
C1491 C1495 1.393 . S
C1492 H1481 0.950 . S
C1492 C1490 1.391 . S
C1492 C1493 1.400 . S
C1493 C1487 1.491 . S
C1493 C1492 1.400 . S
C1493 C1494 1.398 . S
C1494 H1482 0.950 . S
C1494 C1493 1.398 . S
C1494 C1495 1.391 . S
C1495 H1483 0.950 . S
C1495 C1491 1.393 . S
C1495 C1494 1.391 . S
H1496 C1504 0.950 . S
H1497 C1509 0.950 . S
H1498 C1506 0.950 . S
H1499 C1508 0.950 . S
H1500 C1510 0.950 . S
H1501 C1512 0.950 . S
H1502 C1514 0.950 . S
H1503 C1515 0.950 . S
C1504 H1496 0.950 . S
C1504 C1505 1.386 . S
C1504 C1506 1.391 1_455 S
C1505 C1504 1.386 . S
C1505 C1509 1.393 . S
C1506 H1498 0.950 . S
C1506 C1504 1.391 1_655 S
C1506 C1507 1.400 . S
C1507 C1506 1.400 . S
C1507 C1508 1.398 . S
C1507 C1513 1.491 . S
C1508 H1499 0.950 . S
C1508 C1507 1.398 . S
C1508 C1509 1.391 1_655 S
C1509 H1497 0.950 . S
C1509 C1505 1.393 . S
C1509 C1508 1.391 1_455 S
C1510 H1500 0.950 . S
C1510 C1511 1.386 . S
C1510 C1512 1.391 . S
C1511 C1510 1.386 . S
C1511 C1515 1.393 . S
C1512 H1501 0.950 . S
C1512 C1510 1.391 . S
C1512 C1513 1.400 . S
C1513 C1507 1.491 . S
C1513 C1512 1.400 . S
C1513 C1514 1.398 . S
C1514 H1502 0.950 . S
C1514 C1513 1.398 . S
C1514 C1515 1.391 . S
C1515 H1503 0.950 . S
C1515 C1511 1.393 . S
C1515 C1514 1.391 . S
H1516 C1524 0.950 . S
H1517 C1529 0.950 . S
H1518 C1526 0.950 . S
H1519 C1528 0.950 . S
H1520 C1530 0.950 . S
H1521 C1532 0.950 . S
H1522 C1534 0.950 . S
H1523 C1535 0.950 . S
C1524 H1516 0.950 . S
C1524 C1525 1.386 . S
C1524 C1526 1.391 . S
C1525 C1524 1.386 . S
C1525 C1529 1.393 . S
C1526 H1518 0.950 . S
C1526 C1524 1.391 . S
C1526 C1527 1.400 . S
C1527 C1526 1.400 . S
C1527 C1528 1.398 . S
C1527 C1533 1.491 . S
C1528 H1519 0.950 . S
C1528 C1527 1.398 . S
C1528 C1529 1.391 . S
C1529 H1517 0.950 . S
C1529 C1525 1.393 . S
C1529 C1528 1.391 . S
C1530 H1520 0.950 . S
C1530 C1531 1.386 . S
C1530 C1532 1.391 . S
C1531 C1530 1.386 . S
C1531 C1535 1.393 . S
C1532 H1521 0.950 . S
C1532 C1530 1.391 . S
C1532 C1533 1.400 . S
C1533 C1527 1.491 . S
C1533 C1532 1.400 . S
C1533 C1534 1.398 . S
C1534 H1522 0.950 . S
C1534 C1533 1.398 . S
C1534 C1535 1.391 . S
C1535 H1523 0.950 . S
C1535 C1531 1.393 . S
C1535 C1534 1.391 . S
H1536 C1544 0.950 . S
H1537 C1549 0.950 . S
H1538 C1546 0.950 . S
H1539 C1548 0.950 . S
H1540 C1550 0.950 . S
H1541 C1552 0.950 . S
H1542 C1554 0.950 . S
H1543 C1555 0.950 . S
C1544 H1536 0.950 . S
C1544 C1545 1.386 . S
C1544 C1546 1.391 1_455 S
C1545 C1544 1.386 . S
C1545 C1549 1.393 . S
C1546 H1538 0.950 . S
C1546 C1544 1.391 1_655 S
C1546 C1547 1.400 . S
C1547 C1546 1.400 . S
C1547 C1548 1.398 1_655 S
C1547 C1553 1.491 . S
C1548 H1539 0.950 . S
C1548 C1547 1.398 1_455 S
C1548 C1549 1.391 . S
C1549 H1537 0.950 . S
C1549 C1545 1.393 . S
C1549 C1548 1.391 . S
C1550 H1540 0.950 . S
C1550 C1551 1.386 . S
C1550 C1552 1.391 . S
C1551 C1550 1.386 . S
C1551 C1555 1.393 . S
C1552 H1541 0.950 . S
C1552 C1550 1.391 . S
C1552 C1553 1.400 . S
C1553 C1547 1.491 . S
C1553 C1552 1.400 . S
C1553 C1554 1.398 . S
C1554 H1542 0.950 . S
C1554 C1553 1.398 . S
C1554 C1555 1.391 . S
C1555 H1543 0.950 . S
C1555 C1551 1.393 . S
C1555 C1554 1.391 . S
H1556 C1564 0.950 . S
H1557 C1569 0.950 . S
H1558 C1566 0.950 . S
H1559 C1568 0.950 . S
H1560 C1570 0.950 . S
H1561 C1572 0.950 . S
H1562 C1574 0.950 . S
H1563 C1575 0.950 . S
C1564 H1556 0.950 . S
C1564 C1565 1.386 . S
C1564 C1566 1.391 . S
C1565 C1564 1.386 . S
C1565 C1569 1.393 . S
C1566 H1558 0.950 . S
C1566 C1564 1.391 . S
C1566 C1567 1.400 . S
C1567 C1566 1.400 . S
C1567 C1568 1.398 . S
C1567 C1573 1.491 . S
C1568 H1559 0.950 . S
C1568 C1567 1.398 . S
C1568 C1569 1.391 . S
C1569 H1557 0.950 . S
C1569 C1565 1.393 . S
C1569 C1568 1.391 . S
C1570 H1560 0.950 . S
C1570 C1571 1.386 . S
C1570 C1572 1.391 . S
C1571 C1570 1.386 . S
C1571 C1575 1.393 . S
C1572 H1561 0.950 . S
C1572 C1570 1.391 . S
C1572 C1573 1.400 . S
C1573 C1567 1.491 . S
C1573 C1572 1.400 . S
C1573 C1574 1.398 . S
C1574 H1562 0.950 . S
C1574 C1573 1.398 . S
C1574 C1575 1.391 . S
C1575 H1563 0.950 . S
C1575 C1571 1.393 . S
C1575 C1574 1.391 . S
H1576 C1584 0.950 . S
H1577 C1589 0.950 . S
H1578 C1586 0.950 . S
H1579 C1588 0.926 1_545 S
H1580 C1590 0.950 . S
H1581 C1592 0.950 . S
H1582 C1594 0.950 . S
H1583 C1595 0.950 . S
C1584 H1576 0.950 . S
C1584 C1585 1.386 . S
C1584 C1586 1.391 . S
C1585 C1584 1.386 . S
C1585 C1589 1.393 . S
C1586 H1578 0.950 . S
C1586 C1584 1.391 . S
C1586 C1587 1.400 1_565 S
C1587 C1586 1.400 1_545 S
C1587 C1588 1.398 1_545 S
C1587 C1593 1.491 . S
C1588 H1579 0.926 1_565 S
C1588 C1587 1.398 1_565 S
C1588 C1589 1.391 . S
C1589 H1577 0.950 . S
C1589 C1585 1.393 . S
C1589 C1588 1.391 . S
C1590 H1580 0.950 . S
C1590 C1591 1.386 . S
C1590 C1592 1.391 . S
C1591 C1590 1.386 . S
C1591 C1595 1.393 . S
C1592 H1581 0.950 . S
C1592 C1590 1.391 . S
C1592 C1593 1.400 . S
C1593 C1587 1.491 . S
C1593 C1592 1.400 . S
C1593 C1594 1.398 . S
C1594 H1582 0.950 . S
C1594 C1593 1.398 . S
C1594 C1595 1.391 . S
C1595 H1583 0.950 . S
C1595 C1591 1.393 . S
C1595 C1594 1.391 . S
H1596 C1604 0.950 . S
H1597 C1609 0.950 . S
H1598 C1606 0.950 . S
H1599 C1608 0.950 . S
H1600 C1610 0.950 . S
H1601 C1612 0.950 . S
H1602 C1614 0.950 . S
H1603 C1615 0.950 . S
C1604 H1596 0.950 . S
C1604 C1605 1.386 . S
C1604 C1606 1.391 . S
C1605 C1604 1.386 . S
C1605 C1609 1.393 . S
C1606 H1598 0.950 . S
C1606 C1604 1.391 . S
C1606 C1607 1.400 . S
C1607 C1606 1.400 . S
C1607 C1608 1.398 . S
C1607 C1613 1.491 . S
C1608 H1599 0.950 . S
C1608 C1607 1.398 . S
C1608 C1609 1.391 . S
C1609 H1597 0.950 . S
C1609 C1605 1.393 . S
C1609 C1608 1.391 . S
C1610 H1600 0.950 . S
C1610 C1611 1.386 . S
C1610 C1612 1.391 . S
C1611 C1610 1.386 . S
C1611 C1615 1.393 . S
C1612 H1601 0.950 . S
C1612 C1610 1.391 . S
C1612 C1613 1.400 . S
C1613 C1607 1.491 . S
C1613 C1612 1.400 . S
C1613 C1614 1.398 . S
C1614 H1602 0.950 . S
C1614 C1613 1.398 . S
C1614 C1615 1.391 . S
C1615 H1603 0.950 . S
C1615 C1611 1.393 . S
C1615 C1614 1.391 . S
H1616 C1624 0.950 . S
H1617 C1629 0.950 . S
H1618 C1626 0.950 . S
H1619 C1628 0.950 . S
H1620 C1630 0.950 . S
H1621 C1632 0.950 . S
H1622 C1634 0.950 . S
H1623 C1635 0.950 . S
C1624 H1616 0.950 . S
C1624 C1625 1.386 . S
C1624 C1626 1.391 . S
C1625 C1624 1.386 . S
C1625 C1629 1.393 . S
C1626 H1618 0.950 . S
C1626 C1624 1.391 . S
C1626 C1627 1.400 . S
C1627 C1626 1.400 . S
C1627 C1628 1.398 . S
C1627 C1633 1.491 . S
C1628 H1619 0.950 . S
C1628 C1627 1.398 . S
C1628 C1629 1.391 . S
C1629 H1617 0.950 . S
C1629 C1625 1.393 . S
C1629 C1628 1.391 . S
C1630 H1620 0.950 . S
C1630 C1631 1.386 . S
C1630 C1632 1.391 . S
C1631 C1630 1.386 . S
C1631 C1635 1.393 . S
C1632 H1621 0.950 . S
C1632 C1630 1.391 . S
C1632 C1633 1.400 . S
C1633 C1627 1.491 . S
C1633 C1632 1.400 . S
C1633 C1634 1.398 . S
C1634 H1622 0.950 . S
C1634 C1633 1.398 . S
C1634 C1635 1.391 . S
C1635 H1623 0.950 . S
C1635 C1631 1.393 . S
C1635 C1634 1.391 . S
H1636 C1644 0.950 . S
H1637 C1649 0.950 . S
H1638 C1646 0.950 . S
H1639 C1648 0.950 . S
H1640 C1650 0.950 . S
H1641 C1652 0.950 . S
H1642 C1654 0.950 . S
H1643 C1655 0.950 . S
C1644 H1636 0.950 . S
C1644 C1645 1.386 . S
C1644 C1646 1.391 . S
C1645 C1644 1.386 . S
C1645 C1649 1.393 . S
C1646 H1638 0.950 . S
C1646 C1644 1.391 . S
C1646 C1647 1.400 . S
C1647 C1646 1.400 . S
C1647 C1648 1.398 . S
C1647 C1653 1.491 . S
C1648 H1639 0.950 . S
C1648 C1647 1.398 . S
C1648 C1649 1.391 . S
C1649 H1637 0.950 . S
C1649 C1645 1.393 . S
C1649 C1648 1.391 . S
C1650 H1640 0.950 . S
C1650 C1651 1.386 . S
C1650 C1652 1.391 . S
C1651 C1650 1.386 . S
C1651 C1655 1.393 . S
C1652 H1641 0.950 . S
C1652 C1650 1.391 . S
C1652 C1653 1.400 . S
C1653 C1647 1.491 . S
C1653 C1652 1.400 . S
C1653 C1654 1.398 . S
C1654 H1642 0.950 . S
C1654 C1653 1.398 . S
C1654 C1655 1.391 . S
C1655 H1643 0.950 . S
C1655 C1651 1.393 . S
C1655 C1654 1.391 . S
H1656 C1664 0.950 . S
H1657 C1669 0.950 . S
H1658 C1666 0.950 . S
H1659 C1668 0.950 . S
H1660 C1670 0.949 1_545 S
H1661 C1672 0.950 . S
H1662 C1674 0.950 . S
H1663 C1675 0.950 . S
C1664 H1656 0.950 . S
C1664 C1665 1.386 . S
C1664 C1666 1.391 . S
C1665 C1664 1.386 . S
C1665 C1669 1.393 . S
C1666 H1658 0.950 . S
C1666 C1664 1.391 . S
C1666 C1667 1.400 . S
C1667 C1666 1.400 . S
C1667 C1668 1.398 . S
C1667 C1673 1.491 . S
C1668 H1659 0.950 . S
C1668 C1667 1.398 . S
C1668 C1669 1.391 . S
C1669 H1657 0.950 . S
C1669 C1665 1.393 . S
C1669 C1668 1.391 . S
C1670 H1660 0.949 1_565 S
C1670 C1671 1.386 . S
C1670 C1672 1.391 . S
C1671 C1670 1.386 . S
C1671 C1675 1.393 . S
C1672 H1661 0.950 . S
C1672 C1670 1.391 . S
C1672 C1673 1.400 . S
C1673 C1667 1.491 . S
C1673 C1672 1.400 . S
C1673 C1674 1.398 . S
C1674 H1662 0.950 . S
C1674 C1673 1.398 . S
C1674 C1675 1.391 . S
C1675 H1663 0.950 . S
C1675 C1671 1.393 . S
C1675 C1674 1.391 . S
H1676 C1684 0.950 . S
H1677 C1689 0.950 1_655 S
H1678 C1686 0.950 . S
H1679 C1688 0.950 1_655 S
H1680 C1690 0.950 1_655 S
H1681 C1692 0.950 1_655 S
H1682 C1694 0.950 . S
H1683 C1695 0.950 . S
C1684 H1676 0.950 . S
C1684 C1685 1.386 . S
C1684 C1686 1.391 . S
C1685 C1684 1.386 . S
C1685 C1689 1.393 . S
C1686 H1678 0.950 . S
C1686 C1684 1.391 . S
C1686 C1687 1.400 . S
C1687 C1686 1.400 . S
C1687 C1688 1.398 . S
C1687 C1693 1.491 . S
C1688 H1679 0.950 1_455 S
C1688 C1687 1.398 . S
C1688 C1689 1.391 . S
C1689 H1677 0.950 1_455 S
C1689 C1685 1.393 . S
C1689 C1688 1.391 . S
C1690 H1680 0.950 1_455 S
C1690 C1691 1.386 . S
C1690 C1692 1.391 . S
C1691 C1690 1.386 . S
C1691 C1695 1.393 . S
C1692 H1681 0.950 1_455 S
C1692 C1690 1.391 . S
C1692 C1693 1.400 . S
C1693 C1687 1.491 . S
C1693 C1692 1.400 . S
C1693 C1694 1.398 . S
C1694 H1682 0.950 . S
C1694 C1693 1.398 . S
C1694 C1695 1.391 . S
C1695 H1683 0.950 . S
C1695 C1691 1.393 . S
C1695 C1694 1.391 . S
H1696 C1704 0.950 . S
H1697 C1709 0.950 . S
H1698 C1706 0.950 . S
H1699 C1708 0.950 . S
H1700 C1710 0.950 . S
H1701 C1712 0.950 . S
H1702 C1714 0.950 . S
H1703 C1715 0.950 . S
C1704 H1696 0.950 . S
C1704 C1705 1.386 . S
C1704 C1706 1.391 . S
C1705 C1704 1.386 . S
C1705 C1709 1.393 . S
C1706 H1698 0.950 . S
C1706 C1704 1.391 . S
C1706 C1707 1.400 . S
C1707 C1706 1.400 . S
C1707 C1708 1.398 . S
C1707 C1713 1.491 . S
C1708 H1699 0.950 . S
C1708 C1707 1.398 . S
C1708 C1709 1.391 . S
C1709 H1697 0.950 . S
C1709 C1705 1.393 . S
C1709 C1708 1.391 . S
C1710 H1700 0.950 . S
C1710 C1711 1.386 . S
C1710 C1712 1.391 . S
C1711 C1710 1.386 . S
C1711 C1715 1.393 . S
C1712 H1701 0.950 . S
C1712 C1710 1.391 . S
C1712 C1713 1.400 . S
C1713 C1707 1.491 . S
C1713 C1712 1.400 . S
C1713 C1714 1.398 . S
C1714 H1702 0.950 . S
C1714 C1713 1.398 . S
C1714 C1715 1.391 . S
C1715 H1703 0.950 . S
C1715 C1711 1.393 . S
C1715 C1714 1.391 . S
H1716 C1724 0.950 . S
H1717 C1729 0.950 . S
H1718 C1726 0.950 . S
H1719 C1728 0.950 . S
H1720 C1730 0.950 . S
H1721 C1732 0.950 . S
H1722 C1734 0.950 . S
H1723 C1735 0.950 . S
C1724 H1716 0.950 . S
C1724 C1725 1.386 1_455 S
C1724 C1726 1.391 . S
C1725 C1724 1.386 1_655 S
C1725 C1729 1.393 . S
C1726 H1718 0.950 . S
C1726 C1724 1.391 . S
C1726 C1727 1.400 1_455 S
C1727 C1726 1.400 1_655 S
C1727 C1728 1.398 . S
C1727 C1733 1.491 . S
C1728 H1719 0.950 . S
C1728 C1727 1.398 . S
C1728 C1729 1.391 . S
C1729 H1717 0.950 . S
C1729 C1725 1.393 . S
C1729 C1728 1.391 . S
C1730 H1720 0.950 . S
C1730 C1731 1.386 . S
C1730 C1732 1.391 . S
C1731 C1730 1.386 . S
C1731 C1735 1.393 1_655 S
C1732 H1721 0.950 . S
C1732 C1730 1.391 . S
C1732 C1733 1.400 . S
C1733 C1727 1.491 . S
C1733 C1732 1.400 . S
C1733 C1734 1.398 1_655 S
C1734 H1722 0.950 . S
C1734 C1733 1.398 1_455 S
C1734 C1735 1.391 . S
C1735 H1723 0.950 . S
C1735 C1731 1.393 1_455 S
C1735 C1734 1.391 . S
H1736 C1744 0.950 . S
H1737 C1749 0.950 . S
H1738 C1746 0.950 . S
H1739 C1748 0.950 . S
H1740 C1750 0.950 . S
H1741 C1752 0.950 . S
H1742 C1754 0.950 . S
H1743 C1755 0.950 . S
C1744 H1736 0.950 . S
C1744 C1745 1.386 . S
C1744 C1746 1.391 . S
C1745 C1744 1.386 . S
C1745 C1749 1.393 . S
C1746 H1738 0.950 . S
C1746 C1744 1.391 . S
C1746 C1747 1.400 . S
C1747 C1746 1.400 . S
C1747 C1748 1.398 . S
C1747 C1753 1.491 . S
C1748 H1739 0.950 . S
C1748 C1747 1.398 . S
C1748 C1749 1.391 . S
C1749 H1737 0.950 . S
C1749 C1745 1.393 . S
C1749 C1748 1.391 . S
C1750 H1740 0.950 . S
C1750 C1751 1.386 . S
C1750 C1752 1.391 . S
C1751 C1750 1.386 . S
C1751 C1755 1.393 . S
C1752 H1741 0.950 . S
C1752 C1750 1.391 . S
C1752 C1753 1.400 . S
C1753 C1747 1.491 . S
C1753 C1752 1.400 . S
C1753 C1754 1.398 . S
C1754 H1742 0.950 . S
C1754 C1753 1.398 . S
C1754 C1755 1.391 . S
C1755 H1743 0.950 . S
C1755 C1751 1.393 . S
C1755 C1754 1.391 . S
H1756 C1764 0.950 . S
H1757 C1769 0.950 . S
H1758 C1766 0.950 1_565 S
H1759 C1768 0.950 . S
H1760 C1770 0.950 . S
H1761 C1772 0.950 . S
H1762 C1774 0.950 . S
H1763 C1775 0.950 . S
C1764 H1756 0.950 . S
C1764 C1765 1.386 . S
C1764 C1766 1.391 . S
C1765 C1764 1.386 . S
C1765 C1769 1.393 . S
C1766 H1758 0.950 1_545 S
C1766 C1764 1.391 . S
C1766 C1767 1.400 . S
C1767 C1766 1.400 . S
C1767 C1768 1.398 . S
C1767 C1773 1.491 . S
C1768 H1759 0.950 . S
C1768 C1767 1.398 . S
C1768 C1769 1.391 . S
C1769 H1757 0.950 . S
C1769 C1765 1.393 . S
C1769 C1768 1.391 . S
C1770 H1760 0.950 . S
C1770 C1771 1.386 . S
C1770 C1772 1.391 . S
C1771 C1770 1.386 . S
C1771 C1775 1.393 1_545 S
C1772 H1761 0.950 . S
C1772 C1770 1.391 . S
C1772 C1773 1.400 . S
C1773 C1767 1.491 . S
C1773 C1772 1.400 . S
C1773 C1774 1.398 1_545 S
C1774 H1762 0.950 . S
C1774 C1773 1.398 1_565 S
C1774 C1775 1.391 . S
C1775 H1763 0.950 . S
C1775 C1771 1.393 1_565 S
C1775 C1774 1.391 . S
H1776 C1784 0.950 . S
H1777 C1789 0.950 . S
H1778 C1786 0.950 . S
H1779 C1788 0.950 . S
H1780 C1790 0.950 . S
H1781 C1792 0.950 . S
H1782 C1794 0.950 . S
H1783 C1795 0.950 . S
C1784 H1776 0.950 . S
C1784 C1785 1.386 . S
C1784 C1786 1.391 . S
C1785 C1784 1.386 . S
C1785 C1789 1.393 . S
C1786 H1778 0.950 . S
C1786 C1784 1.391 . S
C1786 C1787 1.400 . S
C1787 C1786 1.400 . S
C1787 C1788 1.398 . S
C1787 C1793 1.491 . S
C1788 H1779 0.950 . S
C1788 C1787 1.398 . S
C1788 C1789 1.391 . S
C1789 H1777 0.950 . S
C1789 C1785 1.393 . S
C1789 C1788 1.391 . S
C1790 H1780 0.950 . S
C1790 C1791 1.386 . S
C1790 C1792 1.391 . S
C1791 C1790 1.386 . S
C1791 C1795 1.393 . S
C1792 H1781 0.950 . S
C1792 C1790 1.391 . S
C1792 C1793 1.400 . S
C1793 C1787 1.491 . S
C1793 C1792 1.400 . S
C1793 C1794 1.398 . S
C1794 H1782 0.950 . S
C1794 C1793 1.398 . S
C1794 C1795 1.391 . S
C1795 H1783 0.950 . S
C1795 C1791 1.393 . S
C1795 C1794 1.391 . S
H1796 C1804 0.950 . S
H1797 C1809 0.950 . S
H1798 C1806 0.950 . S
H1799 C1808 0.950 . S
H1800 C1810 0.950 . S
H1801 C1812 0.950 . S
H1802 C1814 0.950 . S
H1803 C1815 0.950 . S
C1804 H1796 0.950 . S
C1804 C1805 1.386 . S
C1804 C1806 1.391 . S
C1805 C1804 1.386 . S
C1805 C1809 1.393 . S
C1806 H1798 0.950 . S
C1806 C1804 1.391 . S
C1806 C1807 1.400 . S
C1807 C1806 1.400 . S
C1807 C1808 1.398 . S
C1807 C1813 1.491 . S
C1808 H1799 0.950 . S
C1808 C1807 1.398 . S
C1808 C1809 1.391 . S
C1809 H1797 0.950 . S
C1809 C1805 1.393 . S
C1809 C1808 1.391 . S
C1810 H1800 0.950 . S
C1810 C1811 1.386 . S
C1810 C1812 1.391 . S
C1811 C1810 1.386 . S
C1811 C1815 1.393 . S
C1812 H1801 0.950 . S
C1812 C1810 1.391 . S
C1812 C1813 1.400 . S
C1813 C1807 1.491 . S
C1813 C1812 1.400 . S
C1813 C1814 1.398 . S
C1814 H1802 0.950 . S
C1814 C1813 1.398 . S
C1814 C1815 1.391 . S
C1815 H1803 0.950 . S
C1815 C1811 1.393 . S
C1815 C1814 1.391 . S
H1816 C1824 0.950 . S
H1817 C1829 0.950 . S
H1818 C1826 0.950 . S
H1819 C1828 0.950 . S
H1820 C1830 0.950 . S
H1821 C1832 0.950 . S
H1822 C1834 0.950 . S
H1823 C1835 0.950 . S
C1824 H1816 0.950 . S
C1824 C1825 1.386 . S
C1824 C1826 1.391 . S
C1825 C1824 1.386 . S
C1825 C1829 1.393 . S
C1826 H1818 0.950 . S
C1826 C1824 1.391 . S
C1826 C1827 1.400 . S
C1827 C1826 1.400 . S
C1827 C1828 1.398 . S
C1827 C1833 1.491 . S
C1828 H1819 0.950 . S
C1828 C1827 1.398 . S
C1828 C1829 1.391 . S
C1829 H1817 0.950 . S
C1829 C1825 1.393 . S
C1829 C1828 1.391 . S
C1830 H1820 0.950 . S
C1830 C1831 1.386 . S
C1830 C1832 1.391 . S
C1831 C1830 1.386 . S
C1831 C1835 1.393 . S
C1832 H1821 0.950 . S
C1832 C1830 1.391 . S
C1832 C1833 1.400 . S
C1833 C1827 1.491 . S
C1833 C1832 1.400 . S
C1833 C1834 1.398 . S
C1834 H1822 0.950 . S
C1834 C1833 1.398 . S
C1834 C1835 1.391 . S
C1835 H1823 0.950 . S
C1835 C1831 1.393 . S
C1835 C1834 1.391 . S
H1836 C1844 0.950 . S
H1837 C1849 0.950 . S
H1838 C1846 0.950 . S
H1839 C1848 0.950 . S
H1840 C1850 0.950 . S
H1841 C1852 0.950 . S
H1842 C1854 0.950 . S
H1843 C1855 0.950 . S
C1844 H1836 0.950 . S
C1844 C1845 1.386 . S
C1844 C1846 1.391 . S
C1845 C1844 1.386 . S
C1845 C1849 1.393 . S
C1846 H1838 0.950 . S
C1846 C1844 1.391 . S
C1846 C1847 1.400 . S
C1847 C1846 1.400 . S
C1847 C1848 1.398 . S
C1847 C1853 1.491 . S
C1848 H1839 0.950 . S
C1848 C1847 1.398 . S
C1848 C1849 1.391 . S
C1849 H1837 0.950 . S
C1849 C1845 1.393 . S
C1849 C1848 1.391 . S
C1850 H1840 0.950 . S
C1850 C1851 1.386 . S
C1850 C1852 1.391 . S
C1851 C1850 1.386 . S
C1851 C1855 1.393 . S
C1852 H1841 0.950 . S
C1852 C1850 1.391 . S
C1852 C1853 1.400 . S
C1853 C1847 1.491 . S
C1853 C1852 1.400 . S
C1853 C1854 1.398 . S
C1854 H1842 0.950 . S
C1854 C1853 1.398 . S
C1854 C1855 1.391 . S
C1855 H1843 0.950 . S
C1855 C1851 1.393 . S
C1855 C1854 1.391 . S
H1856 C1864 0.950 . S
H1857 C1869 0.950 . S
H1858 C1866 0.950 . S
H1859 C1868 0.950 . S
H1860 C1870 0.950 . S
H1861 C1872 0.950 . S
H1862 C1874 0.950 . S
H1863 C1875 0.950 . S
C1864 H1856 0.950 . S
C1864 C1865 1.386 . S
C1864 C1866 1.391 . S
C1865 C1864 1.386 . S
C1865 C1869 1.393 . S
C1866 H1858 0.950 . S
C1866 C1864 1.391 . S
C1866 C1867 1.400 . S
C1867 C1866 1.400 . S
C1867 C1868 1.398 . S
C1867 C1873 1.491 . S
C1868 H1859 0.950 . S
C1868 C1867 1.398 . S
C1868 C1869 1.391 . S
C1869 H1857 0.950 . S
C1869 C1865 1.393 . S
C1869 C1868 1.391 . S
C1870 H1860 0.950 . S
C1870 C1871 1.386 . S
C1870 C1872 1.391 . S
C1871 C1870 1.386 . S
C1871 C1875 1.393 . S
C1872 H1861 0.950 . S
C1872 C1870 1.391 . S
C1872 C1873 1.400 . S
C1873 C1867 1.491 . S
C1873 C1872 1.400 . S
C1873 C1874 1.398 . S
C1874 H1862 0.950 . S
C1874 C1873 1.398 . S
C1874 C1875 1.391 . S
C1875 H1863 0.950 . S
C1875 C1871 1.393 . S
C1875 C1874 1.391 . S
H1876 C1884 0.950 . S
H1877 C1889 0.950 . S
H1878 C1886 0.950 . S
H1879 C1888 0.950 . S
H1880 C1890 0.950 . S
H1881 C1892 0.950 . S
H1882 C1894 0.950 . S
H1883 C1895 0.950 . S
C1884 H1876 0.950 . S
C1884 C1885 1.386 . S
C1884 C1886 1.391 . S
C1885 C1884 1.386 . S
C1885 C1889 1.393 . S
C1886 H1878 0.950 . S
C1886 C1884 1.391 . S
C1886 C1887 1.400 . S
C1887 C1886 1.400 . S
C1887 C1888 1.398 . S
C1887 C1893 1.491 . S
C1888 H1879 0.950 . S
C1888 C1887 1.398 . S
C1888 C1889 1.391 . S
C1889 H1877 0.950 . S
C1889 C1885 1.393 . S
C1889 C1888 1.391 . S
C1890 H1880 0.950 . S
C1890 C1891 1.386 . S
C1890 C1892 1.391 . S
C1891 C1890 1.386 . S
C1891 C1895 1.393 . S
C1892 H1881 0.950 . S
C1892 C1890 1.391 . S
C1892 C1893 1.400 . S
C1893 C1887 1.491 . S
C1893 C1892 1.400 . S
C1893 C1894 1.398 . S
C1894 H1882 0.950 . S
C1894 C1893 1.398 . S
C1894 C1895 1.391 . S
C1895 H1883 0.950 . S
C1895 C1891 1.393 . S
C1895 C1894 1.391 . S
H1896 C1904 0.950 . S
H1897 C1909 0.950 . S
H1898 C1906 0.950 . S
H1899 C1908 0.950 . S
H1900 C1910 0.950 . S
H1901 C1912 0.950 . S
H1902 C1914 0.950 . S
H1903 C1915 0.950 . S
C1904 H1896 0.950 . S
C1904 C1905 1.386 . S
C1904 C1906 1.391 . S
C1905 C1904 1.386 . S
C1905 C1909 1.393 . S
C1906 H1898 0.950 . S
C1906 C1904 1.391 . S
C1906 C1907 1.400 . S
C1907 C1906 1.400 . S
C1907 C1908 1.398 . S
C1907 C1913 1.491 . S
C1908 H1899 0.950 . S
C1908 C1907 1.398 . S
C1908 C1909 1.391 . S
C1909 H1897 0.950 . S
C1909 C1905 1.393 . S
C1909 C1908 1.391 . S
C1910 H1900 0.950 . S
C1910 C1911 1.386 . S
C1910 C1912 1.391 . S
C1911 C1910 1.386 . S
C1911 C1915 1.393 . S
C1912 H1901 0.950 . S
C1912 C1910 1.391 . S
C1912 C1913 1.400 . S
C1913 C1907 1.491 . S
C1913 C1912 1.400 . S
C1913 C1914 1.398 . S
C1914 H1902 0.950 . S
C1914 C1913 1.398 . S
C1914 C1915 1.391 . S
C1915 H1903 0.950 . S
C1915 C1911 1.393 . S
C1915 C1914 1.391 . S
H1916 C1924 0.950 . S
H1917 C1929 0.950 . S
H1918 C1926 0.950 . S
H1919 C1928 0.950 . S
H1920 C1930 0.950 . S
H1921 C1932 0.950 . S
H1922 C1934 0.950 . S
H1923 C1935 0.950 . S
C1924 H1916 0.950 . S
C1924 C1925 1.386 . S
C1924 C1926 1.391 . S
C1925 C1924 1.386 . S
C1925 C1929 1.393 . S
C1926 H1918 0.950 . S
C1926 C1924 1.391 . S
C1926 C1927 1.400 . S
C1927 C1926 1.400 . S
C1927 C1928 1.398 . S
C1927 C1933 1.491 . S
C1928 H1919 0.950 . S
C1928 C1927 1.398 . S
C1928 C1929 1.391 . S
C1929 H1917 0.950 . S
C1929 C1925 1.393 . S
C1929 C1928 1.391 . S
C1930 H1920 0.950 . S
C1930 C1931 1.386 . S
C1930 C1932 1.391 . S
C1931 C1930 1.386 . S
C1931 C1935 1.393 . S
C1932 H1921 0.950 . S
C1932 C1930 1.391 . S
C1932 C1933 1.400 . S
C1933 C1927 1.491 . S
C1933 C1932 1.400 . S
C1933 C1934 1.398 . S
C1934 H1922 0.950 . S
C1934 C1933 1.398 . S
C1934 C1935 1.391 . S
C1935 H1923 0.950 . S
C1935 C1931 1.393 . S
C1935 C1934 1.391 . S
H1936 C1944 0.950 . S
H1937 C1949 0.950 . S
H1938 C1946 0.950 . S
H1939 C1948 0.950 . S
H1940 C1950 0.950 . S
H1941 C1952 0.950 . S
H1942 C1954 0.950 . S
H1943 C1955 0.950 . S
C1944 H1936 0.950 . S
C1944 C1945 1.386 . S
C1944 C1946 1.391 . S
C1945 C1944 1.386 . S
C1945 C1949 1.393 . S
C1946 H1938 0.950 . S
C1946 C1944 1.391 . S
C1946 C1947 1.400 . S
C1947 C1946 1.400 . S
C1947 C1948 1.398 . S
C1947 C1953 1.491 . S
C1948 H1939 0.950 . S
C1948 C1947 1.398 . S
C1948 C1949 1.391 . S
C1949 H1937 0.950 . S
C1949 C1945 1.393 . S
C1949 C1948 1.391 . S
C1950 H1940 0.950 . S
C1950 C1951 1.386 . S
C1950 C1952 1.391 . S
C1951 C1950 1.386 . S
C1951 C1955 1.393 . S
C1952 H1941 0.950 . S
C1952 C1950 1.391 . S
C1952 C1953 1.400 . S
C1953 C1947 1.491 . S
C1953 C1952 1.400 . S
C1953 C1954 1.398 . S
C1954 H1942 0.950 . S
C1954 C1953 1.398 . S
C1954 C1955 1.391 . S
C1955 H1943 0.950 . S
C1955 C1951 1.393 . S
C1955 C1954 1.391 . S
H1956 C1964 0.950 . S
H1957 C1969 0.950 . S
H1958 C1966 0.950 . S
H1959 C1968 0.950 . S
H1960 C1970 0.950 . S
H1961 C1972 0.950 . S
H1962 C1974 0.950 . S
H1963 C1975 0.950 . S
C1964 H1956 0.950 . S
C1964 C1965 1.386 . S
C1964 C1966 1.391 . S
C1965 C1964 1.386 . S
C1965 C1969 1.393 . S
C1966 H1958 0.950 . S
C1966 C1964 1.391 . S
C1966 C1967 1.400 . S
C1967 C1966 1.400 . S
C1967 C1968 1.398 . S
C1967 C1973 1.491 . S
C1968 H1959 0.950 . S
C1968 C1967 1.398 . S
C1968 C1969 1.391 . S
C1969 H1957 0.950 . S
C1969 C1965 1.393 . S
C1969 C1968 1.391 . S
C1970 H1960 0.950 . S
C1970 C1971 1.386 . S
C1970 C1972 1.391 . S
C1971 C1970 1.386 . S
C1971 C1975 1.393 . S
C1972 H1961 0.950 . S
C1972 C1970 1.391 . S
C1972 C1973 1.400 . S
C1973 C1967 1.491 . S
C1973 C1972 1.400 . S
C1973 C1974 1.398 . S
C1974 H1962 0.950 . S
C1974 C1973 1.398 . S
C1974 C1975 1.391 . S
C1975 H1963 0.950 . S
C1975 C1971 1.393 . S
C1975 C1974 1.391 . S
H1976 C1984 0.950 . S
H1977 C1989 0.950 . S
H1978 C1986 0.950 . S
H1979 C1988 0.950 . S
H1980 C1990 0.950 . S
H1981 C1992 0.950 . S
H1982 C1994 0.950 . S
H1983 C1995 0.950 . S
C1984 H1976 0.950 . S
C1984 C1985 1.386 . S
C1984 C1986 1.391 . S
C1985 C1984 1.386 . S
C1985 C1989 1.393 . S
C1986 H1978 0.950 . S
C1986 C1984 1.391 . S
C1986 C1987 1.400 . S
C1987 C1986 1.400 . S
C1987 C1988 1.398 . S
C1987 C1993 1.491 . S
C1988 H1979 0.950 . S
C1988 C1987 1.398 . S
C1988 C1989 1.391 . S
C1989 H1977 0.950 . S
C1989 C1985 1.393 . S
C1989 C1988 1.391 . S
C1990 H1980 0.950 . S
C1990 C1991 1.386 . S
C1990 C1992 1.391 . S
C1991 C1990 1.386 . S
C1991 C1995 1.393 . S
C1992 H1981 0.950 . S
C1992 C1990 1.391 . S
C1992 C1993 1.400 . S
C1993 C1987 1.491 . S
C1993 C1992 1.400 . S
C1993 C1994 1.398 . S
C1994 H1982 0.950 . S
C1994 C1993 1.398 . S
C1994 C1995 1.391 . S
C1995 H1983 0.950 . S
C1995 C1991 1.393 . S
C1995 C1994 1.391 . S
H1996 C2004 0.950 . S
H1997 C2009 0.950 . S
H1998 C2006 0.950 . S
H1999 C2008 0.950 . S
H2000 C2010 0.950 . S
H2001 C2012 0.950 . S
H2002 C2014 0.950 . S
H2003 C2015 0.950 . S
C2004 H1996 0.950 . S
C2004 C2005 1.386 . S
C2004 C2006 1.391 . S
C2005 C2004 1.386 . S
C2005 C2009 1.393 . S
C2006 H1998 0.950 . S
C2006 C2004 1.391 . S
C2006 C2007 1.400 . S
C2007 C2006 1.400 . S
C2007 C2008 1.398 . S
C2007 C2013 1.491 . S
C2008 H1999 0.950 . S
C2008 C2007 1.398 . S
C2008 C2009 1.391 . S
C2009 H1997 0.950 . S
C2009 C2005 1.393 . S
C2009 C2008 1.391 . S
C2010 H2000 0.950 . S
C2010 C2011 1.386 . S
C2010 C2012 1.391 . S
C2011 C2010 1.386 . S
C2011 C2015 1.393 . S
C2012 H2001 0.950 . S
C2012 C2010 1.391 . S
C2012 C2013 1.400 . S
C2013 C2007 1.491 . S
C2013 C2012 1.400 . S
C2013 C2014 1.398 . S
C2014 H2002 0.950 . S
C2014 C2013 1.398 . S
C2014 C2015 1.391 . S
C2015 H2003 0.950 . S
C2015 C2011 1.393 . S
C2015 C2014 1.391 . S
C945 C439 1.501 . S
C951 C585 1.574 . S
C965 C465 1.801 . S
C971 C625 1.763 . S
C985 C401 1.714 . S
C991 C664 1.663 . S
C1005 C369 1.558 . S
C1011 C624 1.526 . S
C1031 C665 1.493 . S
C1025 C305 1.502 . S
C1045 C343 1.292 . S
C1051 C584 1.351 1_556 S
C1071 C595 1.604 . S
C1065 C375 1.661 . S
C1091 C635 1.727 . S
C1085 C311 1.764 . S
C1105 C337 1.605 . S
C1111 C674 1.680 . S
C1125 C433 1.469 . S
C1131 C634 1.508 . S
C1145 C471 1.467 . S
C1151 C675 1.438 . S
C1171 C594 1.409 . S
C1165 C407 1.428 . S
C1191 C705 1.571 . S
C1185 C55 1.496 . S
C1205 C81 1.798 . S
C1211 C745 1.775 . S
C1225 C17 1.713 . S
C1231 C784 1.672 . S
C1245 C561 1.556 . S
C1251 C744 1.512 . S
C1265 C497 1.506 . S
C1271 C785 1.474 . S
C1285 C535 1.278 . S
C1291 C704 1.361 . S
C1305 C567 1.663 . S
C1311 C715 1.623 . S
C1325 C503 1.765 . S
C1331 C755 1.722 . S
C1351 C794 1.664 . S
C1345 C529 1.588 . S
C1365 C49 1.455 . S
C1371 C754 1.526 . S
C1391 C795 1.438 . S
C1385 C87 1.468 . S
C1405 C23 1.431 . S
C1411 C714 1.400 . S
C1431 C825 1.578 . S
C1425 C247 1.506 . S
C1445 C273 1.801 . S
C1451 C865 1.763 . S
C1471 C904 1.674 . S
C1465 C209 1.714 . S
C1491 C864 1.508 . S
C1485 C177 1.556 . S
C1511 C905 1.474 . S
C1505 C113 1.506 . S
C1525 C151 1.256 . S
C1531 C824 1.362 . S
C1545 C183 1.664 . S
C1551 C835 1.620 . S
C1565 C119 1.763 . S
C1571 C875 1.734 . S
C1591 C914 1.673 . S
C1585 C145 1.573 . S
C1605 C241 1.460 . S
C1611 C874 1.505 . S
C1625 C279 1.473 . S
C1631 C915 1.441 . S
C1645 C215 1.432 . S
C1651 C834 1.404 . S
C1665 C509 1.339 . S
C1671 C581 1.358 . S
C1691 C621 1.801 . S
C1685 C541 1.706 . S
C1705 C573 1.557 . S
C1711 C671 1.563 . S
C1725 C221 1.823 . S
C1731 C631 1.819 . S
C1745 C253 1.479 . S
C1751 C661 1.537 . S
C1771 C591 1.352 . S
C1765 C285 1.337 . S
C1785 C125 1.356 . S
C1791 C701 1.367 . S
C1805 C157 1.696 . S
C1811 C741 1.802 . S
C1825 C189 1.553 . S
C1831 C791 1.564 . S
C1845 C413 1.823 . S
C1851 C751 1.820 . S
C1871 C781 1.537 . S
C1865 C445 1.473 . S
C1885 C477 1.340 . S
C1891 C711 1.354 . S
C1905 C317 1.356 . S
C1911 C821 1.363 . S
C1925 C349 1.707 . S
C1931 C861 1.802 . S
C1951 C911 1.563 . S
C1945 C381 1.554 . S
C1965 C29 1.828 . S
C1971 C871 1.823 . S
C1985 C61 1.456 . S
C1991 C901 1.536 . S
C2005 C93 1.349 . S
C2011 C831 1.359 . S
