# Generated by pormake.
# Topology hwx, (6,3)-cn, num edge types: 1
# Building blocks:
#     Node 0, Type 0, BuildingBlock: OJICUG_clean_sbu_0, # of connection points: 6
#     Node 1, Type 0, BuildingBlock: OJICUG_clean_sbu_0, # of connection points: 6
#     Node 2, Type 0, BuildingBlock: OJICUG_clean_sbu_0, # of connection points: 6
#     Node 3, Type 0, BuildingBlock: OJICUG_clean_sbu_0, # of connection points: 6
#     Node 4, Type 1, BuildingBlock: BETDAH_clean_linker_0, # of connection points: 3
#     Node 5, Type 1, BuildingBlock: BETDAH_clean_linker_0, # of connection points: 3
#     Node 6, Type 1, BuildingBlock: BETDAH_clean_linker_0, # of connection points: 3
#     Node 7, Type 1, BuildingBlock: BETDAH_clean_linker_0, # of connection points: 3
#     Node 8, Type 1, BuildingBlock: BETDAH_clean_linker_0, # of connection points: 3
#     Node 9, Type 1, BuildingBlock: BETDAH_clean_linker_0, # of connection points: 3
#     Node 10, Type 1, BuildingBlock: BETDAH_clean_linker_0, # of connection points: 3
#     Node 11, Type 1, BuildingBlock: BETDAH_clean_linker_0, # of connection points: 3
#     Edge 12, Type (0, 1), BuildingBlock: EZIPEK_clean_linker_0, # of connection points: 2
#     Edge 13, Type (0, 1), BuildingBlock: EZIPEK_clean_linker_0, # of connection points: 2
#     Edge 14, Type (0, 1), BuildingBlock: EZIPEK_clean_linker_0, # of connection points: 2
#     Edge 15, Type (0, 1), BuildingBlock: EZIPEK_clean_linker_0, # of connection points: 2
#     Edge 16, Type (0, 1), BuildingBlock: EZIPEK_clean_linker_0, # of connection points: 2
#     Edge 17, Type (0, 1), BuildingBlock: EZIPEK_clean_linker_0, # of connection points: 2
#     Edge 18, Type (0, 1), BuildingBlock: EZIPEK_clean_linker_0, # of connection points: 2
#     Edge 19, Type (0, 1), BuildingBlock: EZIPEK_clean_linker_0, # of connection points: 2
#     Edge 20, Type (0, 1), BuildingBlock: EZIPEK_clean_linker_0, # of connection points: 2
#     Edge 21, Type (0, 1), BuildingBlock: EZIPEK_clean_linker_0, # of connection points: 2
#     Edge 22, Type (0, 1), BuildingBlock: EZIPEK_clean_linker_0, # of connection points: 2
#     Edge 23, Type (0, 1), BuildingBlock: EZIPEK_clean_linker_0, # of connection points: 2
#     Edge 24, Type (0, 1), BuildingBlock: EZIPEK_clean_linker_0, # of connection points: 2
#     Edge 25, Type (0, 1), BuildingBlock: EZIPEK_clean_linker_0, # of connection points: 2
#     Edge 26, Type (0, 1), BuildingBlock: EZIPEK_clean_linker_0, # of connection points: 2
#     Edge 27, Type (0, 1), BuildingBlock: EZIPEK_clean_linker_0, # of connection points: 2
#     Edge 28, Type (0, 1), BuildingBlock: EZIPEK_clean_linker_0, # of connection points: 2
#     Edge 29, Type (0, 1), BuildingBlock: EZIPEK_clean_linker_0, # of connection points: 2
#     Edge 30, Type (0, 1), BuildingBlock: EZIPEK_clean_linker_0, # of connection points: 2
#     Edge 31, Type (0, 1), BuildingBlock: EZIPEK_clean_linker_0, # of connection points: 2
#     Edge 32, Type (0, 1), BuildingBlock: EZIPEK_clean_linker_0, # of connection points: 2
#     Edge 33, Type (0, 1), BuildingBlock: EZIPEK_clean_linker_0, # of connection points: 2
#     Edge 34, Type (0, 1), BuildingBlock: EZIPEK_clean_linker_0, # of connection points: 2
#     Edge 35, Type (0, 1), BuildingBlock: EZIPEK_clean_linker_0, # of connection points: 2
# Relax obj value: 0.008
# Max RMSD: 0.039
# Mean RMSD: 0.038
data_MOF--net-hwx--node1-OJICUG_clean_sbu_0--node2-BETDAH_clean_linker_0--edge1-EZIPEK_clean_linker_0
_symmetry_space_group_name_H-M    P1
_symmetry_Int_Tables_number       1
_symmetry_cell_setting            triclinic
loop_
_symmetry_equiv_pos_as_xyz
'x, y, z'
_cell_length_a     38.890296
_cell_length_b     39.003763
_cell_length_c     14.920951
_cell_angle_alpha  92.497829
_cell_angle_beta   92.283634
_cell_angle_gamma 89.994688
loop_
_atom_site_label
_atom_site_type_symbol
_atom_site_fract_x
_atom_site_fract_y
_atom_site_fract_z
_atom_type_partial_charge
Sc0 Sc 0.23769 0.23739 0.0814 0.0
Sc1 Sc 0.17919 0.1728 0.00247 0.0
Sc2 Sc 0.22157 0.22396 0.84949 0.0
O3 O 0.21287 0.21126 0.97764 0.0
C4 C 0.22068 0.29794 0.94886 0.0
C5 C 0.1627 0.22938 0.15657 0.0
C6 C 0.14013 0.21013 0.84276 0.0
C7 C 0.23872 0.1602 0.14919 0.0
C8 C 0.29714 0.22866 0.94133 0.0
C9 C 0.21726 0.14206 0.83056 0.0
O10 O 0.22943 0.28673 0.02505 0.0
O11 O 0.15606 0.20186 0.11026 0.0
O12 O 0.16748 0.2223 0.81247 0.0
O13 O 0.24939 0.19107 0.15073 0.0
O14 O 0.27679 0.22726 0.87237 0.0
O15 O 0.19867 0.13877 0.89789 0.0
O16 O 0.28682 0.2316 0.0211 0.0
O17 O 0.21406 0.14922 0.09725 0.0
O18 O 0.22813 0.17085 0.80623 0.0
O19 O 0.19048 0.24614 0.15036 0.0
O20 O 0.21575 0.27853 0.87878 0.0
O21 O 0.13981 0.19255 0.91247 0.0
Sc22 Sc 0.26824 0.73289 0.41744 0.0
Sc23 Sc 0.33247 0.67684 0.49645 0.0
Sc24 Sc 0.28331 0.72613 0.64983 0.0
O25 O 0.2947 0.71204 0.52145 0.0
C26 C 0.27924 0.79791 0.55408 0.0
C27 C 0.3458 0.73146 0.35162 0.0
C28 C 0.36529 0.7184 0.66789 0.0
C29 C 0.27607 0.65639 0.34082 0.0
C30 C 0.20808 0.72437 0.55486 0.0
C31 C 0.29284 0.64365 0.65306 0.0
O32 O 0.27408 0.7842 0.47579 0.0
O33 O 0.35669 0.70975 0.40698 0.0
O34 O 0.33695 0.73129 0.69217 0.0
O35 O 0.25885 0.68386 0.34991 0.0
O36 O 0.22804 0.7243 0.62448 0.0
O37 O 0.31101 0.64088 0.58416 0.0
O38 O 0.21917 0.72685 0.47647 0.0
O39 O 0.30388 0.65115 0.38577 0.0
O40 O 0.28162 0.67233 0.68488 0.0
O41 O 0.3145 0.74096 0.34449 0.0
O42 O 0.28345 0.78069 0.62443 0.0
O43 O 0.36756 0.69749 0.60088 0.0
Sc44 Sc 0.77094 0.77147 0.87261 0.0
Sc45 Sc 0.83069 0.82855 0.98054 0.0
Sc46 Sc 0.77826 0.77767 0.10776 0.0
O47 O 0.79332 0.79239 0.98715 0.0
C48 C 0.70656 0.77955 -0.00093 0.0
C49 C 0.77831 0.84826 0.82052 0.0
C50 C 0.78676 0.85979 0.13651 0.0
C51 C 0.85105 0.77602 0.82709 0.0
C52 C 0.77856 0.70629 0.99065 0.0
C53 C 0.8584 0.78624 0.14694 0.0
O54 O 0.71959 0.77295 0.92344 0.0
O55 O 0.80624 0.85271 0.86676 0.0
O56 O 0.77783 0.83035 0.16195 0.0
O57 O 0.81987 0.76784 0.80635 0.0
O58 O 0.77709 0.72364 0.06485 0.0
O59 O 0.86147 0.80976 0.09161 0.0
O60 O 0.77863 0.7198 0.91463 0.0
O61 O 0.85976 0.79547 0.89458 0.0
O62 O 0.83048 0.77008 0.15589 0.0
O63 O 0.7603 0.82123 0.82289 0.0
O64 O 0.72446 0.78366 0.07185 0.0
O65 O 0.80391 0.86396 0.06706 0.0
Sc66 Sc 0.73115 0.27556 0.6758 0.0
Sc67 Sc 0.67685 0.32665 0.54202 0.0
Sc68 Sc 0.7336 0.26859 0.43894 0.0
O69 O 0.71405 0.29034 0.55245 0.0
C70 C 0.80081 0.27257 0.57002 0.0
C71 C 0.72461 0.35725 0.70546 0.0
C72 C 0.72925 0.34656 0.39192 0.0
C73 C 0.65008 0.2847 0.70313 0.0
C74 C 0.723 0.20427 0.56054 0.0
C75 C 0.65426 0.27644 0.37799 0.0
O76 O 0.78485 0.27535 0.64266 0.0
O77 O 0.70205 0.36044 0.64235 0.0
O78 O 0.74393 0.31752 0.38551 0.0
O79 O 0.67971 0.27345 0.72627 0.0
O80 O 0.72459 0.21773 0.48452 0.0
O81 O 0.64715 0.2966 0.44344 0.0
O82 O 0.72565 0.22143 0.63537 0.0
O83 O 0.6451 0.30381 0.63738 0.0
O84 O 0.68465 0.26589 0.365 0.0
O85 O 0.73785 0.32851 0.72556 0.0
O86 O 0.78554 0.26916 0.49346 0.0
O87 O 0.70408 0.35297 0.44201 0.0
H88 H 0.27159 0.58801 0.97514 0.0
H89 H 0.20646 0.52061 0.11316 0.0
H90 H 0.22398 0.50123 0.83248 0.0
C91 C 0.25614 0.56484 0.97538 0.0
C92 C 0.24922 0.54609 0.8947 0.0
C93 C 0.24085 0.55606 0.05461 0.0
C94 C 0.2196 0.52691 0.05332 0.0
C95 C 0.2149 0.50605 0.97458 0.0
C96 C 0.22968 0.51574 0.89486 0.0
N97 N 0.19108 0.47857 0.97365 0.0
C98 C 0.19996 0.4444 0.95685 0.0
H99 H 0.9127 0.75858 0.49134 0.0
H100 H 0.99962 0.71812 0.35261 0.0
H101 H 0.99413 0.70858 0.6385 0.0
C102 C 0.9374 0.74558 0.4925 0.0
C103 C 0.95156 0.73474 0.57381 0.0
C104 C 0.95455 0.74006 0.41277 0.0
C105 C 0.98635 0.72301 0.41438 0.0
C106 C 1.00062 0.71151 0.49569 0.0
C107 C 0.98335 0.71766 0.57581 0.0
N108 N 0.03046 0.69085 0.49475 0.0
C109 C 0.06256 0.70328 0.52442 0.0
H110 H 0.75666 0.40619 0.03794 0.0
H111 H 0.77746 0.50642 0.94262 0.0
H112 H 0.78382 0.48872 0.22629 0.0
C113 C 0.76484 0.43261 0.05116 0.0
C114 C 0.77002 0.44495 0.13979 0.0
C115 C 0.76702 0.45453 0.97985 0.0
C116 C 0.77618 0.48924 -0.00252 0.0
C117 C 0.78323 0.50133 0.08708 0.0
C118 C 0.77995 0.47905 0.15739 0.0
N119 N 0.79318 0.5356 0.11079 0.0
C120 C 0.78909 0.56372 0.05749 0.0
H121 H 0.09289 0.2329 0.51121 0.0
H122 H 0.99676 0.26731 0.61491 0.0
H123 H 0.02168 0.28826 0.34383 0.0
C124 C 0.06822 0.24543 0.501 0.0
C125 C 0.05975 0.25945 0.41814 0.0
C126 C 0.04622 0.24925 0.57266 0.0
C127 C 0.01387 0.26461 0.55949 0.0
C128 C 0.00475 0.27821 0.47592 0.0
C129 C 0.02829 0.27672 0.40702 0.0
N130 N 0.97267 0.29454 0.45983 0.0
C131 C 0.94296 0.28687 0.50372 0.0
H132 H 0.77114 0.91789 0.47273 0.0
H133 H 0.71622 1.00058 0.3513 0.0
H134 H 0.70899 0.98553 0.63378 0.0
C135 C 0.75534 0.94074 0.47946 0.0
C136 C 0.7419 0.94992 0.56278 0.0
C137 C 0.74531 0.958 0.40271 0.0
C138 C 0.72457 0.98736 0.41073 0.0
C139 C 0.71263 0.99815 0.49511 0.0
C140 C 0.7205 0.97881 0.57043 0.0
N141 N 0.6883 0.02497 0.50159 0.0
C142 C 0.69793 0.05893 0.5197 0.0
H143 H 0.59099 0.26177 0.02253 0.0
H144 H 0.51148 0.2122 0.16077 0.0
H145 H 0.50216 0.22076 0.87363 0.0
C146 C 0.56605 0.2492 0.02109 0.0
C147 C 0.5482 0.2426 0.93922 0.0
C148 C 0.55293 0.23845 0.10071 0.0
C149 C 0.52142 0.22109 0.09903 0.0
C150 C 0.50253 0.2155 0.01769 0.0
C151 C 0.51592 0.2263 0.93718 0.0
N152 N 0.47134 0.19694 0.01797 0.0
C153 C 0.441 0.20818 0.977 0.0
H154 H 0.25597 0.09764 0.50822 0.0
H155 H 0.25813 0.99406 0.58824 0.0
H156 H 0.28014 0.01577 0.31813 0.0
C157 C 0.26255 0.07129 0.49143 0.0
C158 C 0.27437 0.0615 0.40586 0.0
C159 C 0.2573 0.04749 0.55704 0.0
C160 C 0.2624 0.01244 0.53746 0.0
C161 C 0.27118 0.00146 0.45034 0.0
C162 C 0.27607 0.02579 0.38521 0.0
N163 N 0.27427 0.96622 0.42356 0.0
C164 C 0.27543 0.93879 0.48018 0.0
H165 H 0.409 0.75365 -0.00341 0.0
H166 H 0.50757 0.78556 0.90821 0.0
H167 H 0.48274 0.79957 0.18671 0.0
C168 C 0.43391 0.76567 0.01097 0.0
C169 C 0.44334 0.77589 0.09923 0.0
C170 C 0.45681 0.76885 0.94191 0.0
C171 C 0.48965 0.78318 0.96135 0.0
C172 C 0.49868 0.79513 0.04984 0.0
C173 C 0.47537 0.79147 0.11822 0.0
N174 N 0.53055 0.81157 0.07239 0.0
C175 C 0.56183 0.80136 0.03821 0.0
C176 C 0.14561 0.2558 0.30738 0.0
C177 C 0.1363 0.24227 0.21957 0.0
C178 C 0.0759 0.24092 0.26027 0.0
C179 C 0.08495 0.25681 0.34531 0.0
N180 N 0.12695 0.29014 0.4352 0.0
N181 N 0.0908 0.23493 0.10484 0.0
C182 C 0.11934 0.2679 0.36391 0.0
C183 C 0.10084 0.23896 0.19345 0.0
N184 N 0.17891 0.25512 0.34006 0.0
N185 N 0.04438 0.22598 0.24412 0.0
H186 H 0.1081 0.23598 0.05334 0.0
H187 H 0.06504 0.235 0.08265 0.0
H188 H 0.02583 0.22501 0.29242 0.0
H189 H 0.03816 0.2114 0.18548 0.0
H190 H 0.18583 0.2617 0.40682 0.0
H191 H 0.19908 0.24451 0.30464 0.0
H192 H 0.15125 0.30111 0.44698 0.0
H193 H 0.10809 0.30053 0.47614 0.0
C194 C 0.30726 0.59181 0.74385 0.0
C195 C 0.28267 0.61168 0.69603 0.0
C196 C 0.23564 0.57976 0.7576 0.0
C197 C 0.25999 0.56161 0.8109 0.0
N198 N 0.31815 0.54265 0.83602 0.0
N199 N 0.22587 0.61395 0.6273 0.0
C200 C 0.29565 0.56502 0.79716 0.0
C201 C 0.24757 0.6022 0.69322 0.0
N202 N 0.34145 0.59933 0.7408 0.0
N203 N 0.20129 0.57758 0.77251 0.0
H204 H 0.23421 0.63 0.57832 0.0
H205 H 0.20077 0.60495 0.61596 0.0
H206 H 0.19119 0.56137 0.8185 0.0
H207 H 0.18301 0.59355 0.74304 0.0
H208 H 0.36038 0.58898 0.78278 0.0
H209 H 0.35084 0.61681 0.69706 0.0
H210 H 0.34431 0.54178 0.82397 0.0
H211 H 0.30983 0.52277 0.87457 0.0
C212 C 0.90391 0.79979 0.26824 0.0
C213 C 0.88895 0.77642 0.20246 0.0
C214 C 0.92295 0.72943 0.26336 0.0
C215 C 0.93795 0.75274 0.32929 0.0
N216 N 0.95091 0.81122 0.37719 0.0
N217 N 0.89357 0.72291 0.11763 0.0
C218 C 0.93129 0.78842 0.32528 0.0
C219 C 0.90153 0.74243 0.19366 0.0
N220 N 0.89066 0.83203 0.28016 0.0
N221 N 0.92725 0.69485 0.26997 0.0
H222 H 0.87944 0.73277 0.06378 0.0
H223 H 0.90442 0.6989 0.10403 0.0
H224 H 0.94255 0.68406 0.3202 0.0
H225 H 0.91352 0.67681 0.22925 0.0
H226 H 0.89813 0.84881 0.33361 0.0
H227 H 0.8702 0.84106 0.2407 0.0
H228 H 0.94918 0.83772 0.37199 0.0
H229 H 0.97133 0.80339 0.41903 0.0
C230 C 0.70989 0.40339 0.82059 0.0
C231 C 0.73416 0.3883 0.76225 0.0
C232 C 0.77934 0.42614 0.82984 0.0
C233 C 0.75526 0.44028 0.88984 0.0
N234 N 0.69623 0.45106 0.923 0.0
N235 N 0.78804 0.39358 0.69021 0.0
C236 C 0.71991 0.43203 0.87755 0.0
C237 C 0.76773 0.40234 0.76005 0.0
N238 N 0.67807 0.38899 0.82606 0.0
N239 N 0.81341 0.43412 0.8423 0.0
H240 H 0.77947 0.3772 0.63677 0.0
H241 H 0.81166 0.40521 0.68077 0.0
H242 H 0.82233 0.45242 0.89083 0.0
H243 H 0.83273 0.42153 0.80742 0.0
H244 H 0.66064 0.39661 0.87421 0.0
H245 H 0.67019 0.36742 0.78713 0.0
H246 H 0.66976 0.44813 0.91203 0.0
H247 H 0.70332 0.47217 0.96514 0.0
C248 C 0.60094 0.28956 0.28308 0.0
C249 C 0.62584 0.26527 0.31325 0.0
C250 C 0.5992 0.22111 0.21038 0.0
C251 C 0.57374 0.24502 0.18455 0.0
N252 N 0.54487 0.29871 0.21135 0.0
N253 N 0.64319 0.20565 0.31971 0.0
C254 C 0.57271 0.27808 0.22663 0.0
C255 C 0.62334 0.23033 0.28117 0.0
N256 N 0.60538 0.32394 0.30204 0.0
N257 N 0.60112 0.19 0.16492 0.0
H258 H 0.6613 0.21089 0.3715 0.0
H259 H 0.63952 0.17946 0.306 0.0
H260 H 0.58291 0.18173 0.11542 0.0
H261 H 0.62186 0.17332 0.17237 0.0
H262 H 0.59008 0.34266 0.27276 0.0
H263 H 0.62631 0.33443 0.33905 0.0
H264 H 0.54097 0.32181 0.24723 0.0
H265 H 0.52396 0.29102 0.16919 0.0
C266 C 0.20059 0.09736 0.71052 0.0
C267 C 0.22548 0.11106 0.77449 0.0
C268 C 0.26964 0.07334 0.7114 0.0
C269 C 0.24517 0.06101 0.64482 0.0
N270 N 0.18613 0.05323 0.59508 0.0
N271 N 0.28058 0.10593 0.8519 0.0
C272 C 0.21008 0.07016 0.64994 0.0
C273 C 0.25903 0.09687 0.78035 0.0
N274 N 0.16862 0.1118 0.70408 0.0
N275 N 0.30338 0.0641 0.70527 0.0
H276 H 0.27377 0.12395 0.90171 0.0
H277 H 0.30402 0.09392 0.86534 0.0
H278 H 0.31154 0.04574 0.65777 0.0
H279 H 0.32335 0.07551 0.74446 0.0
H280 H 0.15052 0.10565 0.65265 0.0
H281 H 0.16092 0.13175 0.74742 0.0
H282 H 0.1597 0.05658 0.59985 0.0
H283 H 0.1928 0.03333 0.55004 0.0
C284 C 0.38901 0.71944 0.2354 0.0
C285 C 0.37064 0.74391 0.28783 0.0
C286 C 0.40036 0.79059 0.21731 0.0
C287 C 0.42081 0.76589 0.17156 0.0
N288 N 0.44036 0.70735 0.15382 0.0
N289 N 0.36272 0.80268 0.3405 0.0
C290 C 0.41697 0.73047 0.18617 0.0
C291 C 0.37737 0.77955 0.28219 0.0
N292 N 0.37862 0.68588 0.22866 0.0
N293 N 0.40205 0.82431 0.19665 0.0
H294 H 0.34582 0.79551 0.38884 0.0
H295 H 0.36946 0.82856 0.34587 0.0
H296 H 0.41898 0.83331 0.15051 0.0
H297 H 0.38505 0.84289 0.22044 0.0
H298 H 0.38902 0.66777 0.18407 0.0
H299 H 0.35709 0.6769 0.26 0.0
H300 H 0.44062 0.68163 0.16997 0.0
H301 H 0.46164 0.71456 0.11851 0.0
C302 C 0.76923 0.91061 0.78512 0.0
C303 C 0.76674 0.87516 0.75846 0.0
C304 C 0.73747 0.89083 0.61857 0.0
C305 C 0.7467 0.92567 0.63654 0.0
N306 N 0.77595 0.96826 0.73439 0.0
N307 N 0.75612 0.83273 0.63657 0.0
C308 C 0.76375 0.9356 0.7194 0.0
C309 C 0.75276 0.86547 0.67167 0.0
N310 N 0.7754 0.92057 0.87319 0.0
N311 N 0.7142 0.8819 0.55056 0.0
H312 H 0.77041 0.81387 0.66847 0.0
H313 H 0.74856 0.82569 0.57049 0.0
H314 H 0.70139 0.90008 0.51229 0.0
H315 H 0.70492 0.85692 0.53953 0.0
H316 H 0.77462 0.94614 0.89638 0.0
H317 H 0.77714 0.90323 0.92438 0.0
H318 H 0.79156 0.97559 0.79038 0.0
H319 H 0.77304 0.98716 0.68741 0.0
C320 C 0.88302 0.72844 0.74589 0.0
C321 C 0.87873 0.76401 0.76771 0.0
C322 C 0.93081 0.77679 0.68816 0.0
C323 C 0.93188 0.74231 0.65517 0.0
N324 N 0.90815 0.6852 0.64674 0.0
N325 N 0.89505 0.82278 0.74472 0.0
C326 C 0.90798 0.71795 0.6832 0.0
C327 C 0.90193 0.78843 0.73572 0.0
N328 N 0.86383 0.70465 0.78628 0.0
N329 N 0.95723 0.79851 0.67222 0.0
H330 H 0.87292 0.83257 0.77352 0.0
H331 H 0.90929 0.84144 0.71473 0.0
H332 H 0.97867 0.79049 0.63696 0.0
H333 H 0.9595 0.82319 0.70146 0.0
H334 H 0.86852 0.67837 0.78087 0.0
H335 H 0.84482 0.71127 0.83097 0.0
H336 H 0.88871 0.66743 0.65545 0.0
H337 H 0.92695 0.67632 0.60351 0.0
C338 C 0.77413 0.3863 0.33811 0.0
C339 C 0.73996 0.37335 0.33202 0.0
C340 C 0.72477 0.41363 0.21642 0.0
C341 C 0.75987 0.42301 0.2129 0.0
N342 N 0.81902 0.41589 0.26348 0.0
N343 N 0.6851 0.36904 0.25066 0.0
C344 C 0.78494 0.40887 0.27227 0.0
C345 C 0.7158 0.38559 0.26749 0.0
N346 N 0.7959 0.37764 0.40766 0.0
N347 N 0.69994 0.43172 0.17147 0.0
H348 H 0.67862 0.34679 0.2823 0.0
H349 H 0.66797 0.37497 0.19812 0.0
H350 H 0.70548 0.45308 0.13483 0.0
H351 H 0.6737 0.42775 0.17842 0.0
H352 H 0.81997 0.38891 0.42054 0.0
H353 H 0.78871 0.36128 0.4572 0.0
H354 H 0.8387 0.4034 0.29837 0.0
H355 H 0.82778 0.43248 0.21636 0.0
C356 C 0.09958 0.25472 0.78959 0.0
C357 C 0.10719 0.21942 0.7966 0.0
C358 C 0.06159 0.20494 0.68311 0.0
C359 C 0.05976 0.24002 0.6627 0.0
N360 N 0.07537 0.29908 0.69769 0.0
N361 N 0.09302 0.1602 0.7595 0.0
C362 C 0.07761 0.26527 0.71781 0.0
C363 C 0.08687 0.19421 0.74768 0.0
N364 N 0.11356 0.27795 0.85192 0.0
N365 N 0.0394 0.18214 0.63937 0.0
H366 H 0.1097 0.15162 0.81001 0.0
H367 H 0.08231 0.14044 0.71837 0.0
H368 H 0.02079 0.18985 0.59206 0.0
H369 H 0.03739 0.15647 0.65471 0.0
H370 H 0.10698 0.30383 0.85545 0.0
H371 H 0.12932 0.27047 0.90586 0.0
H372 H 0.09116 0.31819 0.72783 0.0
H373 H 0.05869 0.30791 0.64738 0.0
C374 C 0.25133 0.64018 0.18598 0.0
C375 C 0.26398 0.63 0.27148 0.0
C376 C 0.26042 0.56975 0.2169 0.0
C377 C 0.24479 0.58014 0.13485 0.0
N378 N 0.21463 0.62466 0.05636 0.0
N379 N 0.27037 0.5842 0.37521 0.0
C380 C 0.23651 0.61518 0.12474 0.0
C381 C 0.26541 0.59446 0.28929 0.0
N382 N 0.25567 0.67299 0.15976 0.0
N383 N 0.27202 0.53694 0.2249 0.0
H384 H 0.27203 0.60143 0.43067 0.0
H385 H 0.26874 0.55861 0.39203 0.0
H386 H 0.26973 0.51823 0.17297 0.0
H387 H 0.28667 0.52927 0.2805 0.0
H388 H 0.24925 0.68037 0.09488 0.0
H389 H 0.26962 0.69161 0.19792 0.0
H390 H 0.20588 0.64978 0.05061 0.0
H391 H 0.20232 0.6068 0.01184 0.0
C392 C 0.41317 0.70616 0.78091 0.0
C393 C 0.39715 0.72879 0.72031 0.0
C394 C 0.43118 0.77688 0.78702 0.0
C395 C 0.44533 0.75475 0.85162 0.0
N396 N 0.45914 0.6974 0.89277 0.0
N397 N 0.40061 0.78133 0.64303 0.0
C398 C 0.43969 0.71889 0.84168 0.0
C399 C 0.40941 0.76283 0.71595 0.0
N400 N 0.40166 0.6732 0.78401 0.0
N401 N 0.43682 0.81141 0.79662 0.0
H402 H 0.38611 0.7706 0.58846 0.0
H403 H 0.41077 0.80545 0.63232 0.0
H404 H 0.45347 0.82233 0.84643 0.0
H405 H 0.42378 0.82923 0.75792 0.0
H406 H 0.40945 0.65654 0.83351 0.0
H407 H 0.38274 0.66313 0.73917 0.0
H408 H 0.4582 0.67076 0.88475 0.0
H409 H 0.47864 0.70658 0.93765 0.0
C410 C 0.73954 0.89497 0.20235 0.0
C411 C 0.77519 0.89063 0.18886 0.0
C412 C 0.78758 0.94153 0.28742 0.0
C413 C 0.75317 0.94119 0.31469 0.0
N414 N 0.69596 0.91698 0.30073 0.0
N415 N 0.83387 0.90967 0.21897 0.0
C416 C 0.72881 0.91818 0.27165 0.0
C417 C 0.79944 0.91433 0.22994 0.0
N418 N 0.71598 0.87725 0.14789 0.0
N419 N 0.80888 0.96769 0.31802 0.0
H420 H 0.84377 0.89036 0.17712 0.0
H421 H 0.85288 0.92355 0.25582 0.0
H422 H 0.80046 0.98773 0.36036 0.0
H423 H 0.83349 0.97131 0.29504 0.0
H424 H 0.68958 0.88165 0.14902 0.0
H425 H 0.72305 0.86063 0.09508 0.0
H426 H 0.67848 0.8977 0.28018 0.0
H427 H 0.6867 0.93412 0.34957 0.0
C428 C 0.61514 0.23726 0.76355 0.0
C429 C 0.61958 0.27294 0.75099 0.0
C430 C 0.56643 0.28478 0.83064 0.0
C431 C 0.56623 0.25049 0.85716 0.0
N432 N 0.59 0.19351 0.85102 0.0
N433 N 0.59956 0.33134 0.77595 0.0
C434 C 0.59013 0.22641 0.82295 0.0
C435 C 0.59486 0.2969 0.78387 0.0
N436 N 0.63416 0.21363 0.71686 0.0
N437 N 0.53954 0.30577 0.85174 0.0
H438 H 0.61976 0.3417 0.7425 0.0
H439 H 0.58481 0.35001 0.8083 0.0
H440 H 0.51865 0.29721 0.88657 0.0
H441 H 0.53625 0.33024 0.82752 0.0
H442 H 0.6295 0.18732 0.71582 0.0
H443 H 0.65256 0.22043 0.67215 0.0
H444 H 0.60967 0.176 0.83877 0.0
H445 H 0.57092 0.18419 0.89081 0.0
C446 C 0.2676 0.10345 0.18147 0.0
C447 C 0.25543 0.13621 0.21263 0.0
C448 C 0.27812 0.12394 0.36293 0.0
C449 C 0.2798 0.0887 0.3373 0.0
N450 N 0.30483 0.0558 0.21716 0.0
N451 N 0.24801 0.17665 0.33907 0.0
C452 C 0.28259 0.0808 0.24442 0.0
C453 C 0.26107 0.14658 0.30472 0.0
N454 N 0.26522 0.09393 0.09235 0.0
N455 N 0.29539 0.13612 0.43903 0.0
H456 H 0.23262 0.19302 0.30158 0.0
H457 H 0.24938 0.18328 0.40762 0.0
H458 H 0.31078 0.12004 0.4779 0.0
H459 H 0.29739 0.16224 0.45674 0.0
H460 H 0.26977 0.06893 0.06816 0.0
H461 H 0.25744 0.11064 0.04302 0.0
H462 H 0.31049 0.05061 0.15027 0.0
H463 H 0.32157 0.04418 0.26311 0.0
C464 C 0.18679 0.35009 0.9931 0.0
C465 C 0.21404 0.33534 0.94403 0.0
C466 C 0.22953 0.39239 0.89398 0.0
C467 C 0.20458 0.4073 0.95042 0.0
N468 N 0.16193 0.40128 0.06181 0.0
N469 N 0.26389 0.34223 0.85546 0.0
C470 C 0.18384 0.3864 0.00209 0.0
C471 C 0.23598 0.3564 0.89584 0.0
N472 N 0.16304 0.32928 0.02881 0.0
N473 N 0.24673 0.41258 0.83799 0.0
H474 H 0.26932 0.31604 0.85507 0.0
H475 H 0.28305 0.3566 0.82786 0.0
H476 H 0.24317 0.43907 0.83688 0.0
H477 H 0.2626 0.40293 0.78834 0.0
H478 H 0.14042 0.33827 0.05648 0.0
H479 H 0.16432 0.30255 0.02384 0.0
H480 H 0.14926 0.38769 0.10918 0.0
H481 H 0.15823 0.42774 0.06883 0.0
C482 C 0.15395 0.69772 0.61388 0.0
C483 C 0.16992 0.72318 0.56362 0.0
C484 C 0.11342 0.73928 0.4986 0.0
C485 C 0.0979 0.71341 0.54683 0.0
N486 N 0.10079 0.67499 0.66842 0.0
N487 N 0.16323 0.77545 0.48354 0.0
C488 C 0.11737 0.69503 0.61074 0.0
C489 C 0.14908 0.74624 0.51379 0.0
N490 N 0.17342 0.67478 0.66026 0.0
N491 N 0.0943 0.75654 0.43629 0.0
H492 H 0.18898 0.78209 0.49616 0.0
H493 H 0.14879 0.79484 0.45447 0.0
H494 H 0.06776 0.75326 0.42651 0.0
H495 H 0.10503 0.77259 0.39086 0.0
H496 H 0.16323 0.6533 0.68866 0.0
H497 H 0.2001 0.67561 0.66603 0.0
H498 H 0.11305 0.66364 0.7229 0.0
H499 H 0.07405 0.67242 0.66685 0.0
C500 C 0.81443 0.65327 0.00285 0.0
C501 C 0.78142 0.66843 0.99336 0.0
C502 C 0.75436 0.61168 -0.00115 0.0
C503 C 0.78699 0.59766 0.02145 0.0
N504 N 0.84833 0.60391 0.04533 0.0
N505 N 0.71979 0.66293 0.97764 0.0
C506 C 0.81718 0.61801 0.02221 0.0
C507 C 0.75128 0.64778 0.98901 0.0
N508 N 0.84311 0.67258 0.99186 0.0
N509 N 0.72654 0.59032 0.98641 0.0
H510 H 0.71694 0.6889 0.96511 0.0
H511 H 0.69648 0.65032 0.98356 0.0
H512 H 0.72842 0.56383 0.99295 0.0
H513 H 0.70233 0.59812 0.96328 0.0
H514 H 0.86775 0.66242 0.98734 0.0
H515 H 0.84182 0.69865 0.9798 0.0
H516 H 0.87068 0.61819 0.05885 0.0
H517 H 0.85154 0.57775 0.05516 0.0
C518 C 0.85651 0.2454 0.5279 0.0
C519 C 0.83911 0.27284 0.5725 0.0
C520 C 0.89401 0.30371 0.59678 0.0
C521 C 0.90952 0.27941 0.53813 0.0
N522 N 0.90694 0.22654 0.44867 0.0
N523 N 0.8411 0.32879 0.64892 0.0
C524 C 0.89131 0.2498 0.50487 0.0
C525 C 0.85791 0.30192 0.60859 0.0
N526 N 0.83978 0.21495 0.50915 0.0
N527 N 0.91387 0.32849 0.64095 0.0
H528 H 0.81492 0.32842 0.6605 0.0
H529 H 0.85264 0.35236 0.66626 0.0
H530 H 0.94034 0.33034 0.63285 0.0
H531 H 0.90491 0.34506 0.69138 0.0
H532 H 0.85178 0.19284 0.48443 0.0
H533 H 0.81442 0.21086 0.52626 0.0
H534 H 0.89391 0.20665 0.41302 0.0
H535 H 0.93292 0.22813 0.43418 0.0
C536 C 0.74175 0.14345 0.58758 0.0
C537 C 0.71574 0.16686 0.56047 0.0
C538 C 0.67836 0.11892 0.50724 0.0
C539 C 0.70396 0.09552 0.53588 0.0
N540 N 0.75736 0.08439 0.61649 0.0
N541 N 0.65652 0.177 0.51587 0.0
C542 C 0.73488 0.10746 0.58029 0.0
C543 C 0.68321 0.15459 0.52659 0.0
N544 N 0.77332 0.1556 0.6173 0.0
N545 N 0.64978 0.10718 0.45891 0.0
H546 H 0.65929 0.20344 0.52709 0.0
H547 H 0.63114 0.1693 0.50229 0.0
H548 H 0.64474 0.08116 0.44522 0.0
H549 H 0.63233 0.12324 0.42667 0.0
H550 H 0.7947 0.14004 0.628 0.0
H551 H 0.77871 0.18171 0.62702 0.0
H552 H 0.77869 0.09137 0.65759 0.0
H553 H 0.75333 0.05792 0.61054 0.0
C554 C 0.35578 0.25383 0.97113 0.0
C555 C 0.3349 0.2273 0.92979 0.0
C556 C 0.38683 0.19509 0.89067 0.0
C557 C 0.40656 0.21805 0.94766 0.0
N558 N 0.41137 0.2702 0.03965 0.0
N559 N 0.3303 0.17238 0.84829 0.0
C560 C 0.39158 0.24802 0.98614 0.0
C561 C 0.35035 0.19815 0.88709 0.0
N562 N 0.3413 0.28476 0.99425 0.0
N563 N 0.4031 0.17028 0.8406 0.0
H564 H 0.30359 0.17355 0.84309 0.0
H565 H 0.33998 0.14882 0.82563 0.0
H566 H 0.42983 0.16763 0.84269 0.0
H567 H 0.39065 0.15461 0.7912 0.0
H568 H 0.35547 0.30619 0.0176 0.0
H569 H 0.31527 0.28996 0.98165 0.0
H570 H 0.40133 0.29028 0.07868 0.0
H571 H 0.438 0.2675 0.04808 0.0
C572 C 0.24983 0.85496 0.57417 0.0
C573 C 0.28054 0.836 0.56152 0.0
C574 C 0.31012 0.88775 0.51726 0.0
C575 C 0.27869 0.90601 0.5227 0.0
N576 N 0.22122 0.91061 0.57528 0.0
N577 N 0.34169 0.83535 0.54612 0.0
C578 C 0.24936 0.89075 0.55791 0.0
C579 C 0.31134 0.85287 0.54142 0.0
N580 N 0.22098 0.83831 0.59869 0.0
N581 N 0.3383 0.90336 0.48502 0.0
H582 H 0.3428 0.80979 0.5635 0.0
H583 H 0.36574 0.84648 0.53984 0.0
H584 H 0.33871 0.92935 0.47118 0.0
H585 H 0.3608 0.89051 0.4687 0.0
H586 H 0.19662 0.84928 0.59977 0.0
H587 H 0.22142 0.81275 0.61659 0.0
H588 H 0.1996 0.902 0.60648 0.0
H589 H 0.22056 0.93682 0.56385 0.0
C590 C 0.65173 0.81038 0.95812 0.0
C591 C 0.66863 0.7832 0.00253 0.0
C592 C 0.61396 0.76605 0.06446 0.0
C593 C 0.59707 0.79256 0.01789 0.0
N594 N 0.59759 0.83526 0.90645 0.0
N595 N 0.66532 0.73142 0.08449 0.0
C596 C 0.61526 0.81316 0.95997 0.0
C597 C 0.64956 0.7599 0.0518 0.0
N598 N 0.67067 0.8347 0.91868 0.0
N599 N 0.59616 0.74743 0.12295 0.0
H600 H 0.69144 0.72636 0.07777 0.0
H601 H 0.65218 0.71146 0.11219 0.0
H602 H 0.56972 0.75007 0.13054 0.0
H603 H 0.60776 0.73071 0.16745 0.0
H604 H 0.66022 0.85713 0.89394 0.0
H605 H 0.69745 0.83402 0.91731 0.0
H606 H 0.60884 0.84858 0.85618 0.0
H607 H 0.57089 0.83794 0.90699 0.0
loop_
_geom_bond_atom_site_label_1
_geom_bond_atom_site_label_2
_geom_bond_distance
_geom_bond_site_symmetry_2
_ccdc_geom_bond_type
Sc0 O3 2.025 . S
Sc0 O10 2.105 . S
Sc0 O13 2.105 . S
Sc0 O16 2.105 . S
Sc0 O19 2.105 . S
Sc1 O3 2.025 . S
Sc1 O11 2.114 . S
Sc1 O15 2.096 1_554 S
Sc1 O17 2.114 . S
Sc1 O21 2.096 1_554 S
Sc2 O3 2.025 1_556 S
Sc2 O12 2.105 . S
Sc2 O14 2.105 . S
Sc2 O18 2.105 . S
Sc2 O20 2.105 . S
O3 Sc0 2.025 . S
O3 Sc1 2.025 . S
O3 Sc2 2.025 1_554 S
C4 O10 1.268 . S
C4 O20 1.268 1_554 S
C5 O11 1.268 . S
C5 O19 1.268 . S
C6 O12 1.268 . S
C6 O21 1.268 . S
C7 O13 1.268 . S
C7 O17 1.268 . S
C8 O14 1.268 1_554 S
C8 O16 1.268 . S
C9 O15 1.268 . S
C9 O18 1.268 . S
O10 Sc0 2.105 . S
O10 C4 1.268 . S
O11 Sc1 2.114 . S
O11 C5 1.268 . S
O12 Sc2 2.105 . S
O12 C6 1.268 . S
O13 Sc0 2.105 . S
O13 C7 1.268 . S
O14 Sc2 2.105 . S
O14 C8 1.268 1_556 S
O15 Sc1 2.096 1_556 S
O15 C9 1.268 . S
O16 Sc0 2.105 . S
O16 C8 1.268 . S
O17 Sc1 2.114 . S
O17 C7 1.268 . S
O18 Sc2 2.105 . S
O18 C9 1.268 . S
O19 Sc0 2.105 . S
O19 C5 1.268 . S
O20 Sc2 2.105 . S
O20 C4 1.268 1_556 S
O21 Sc1 2.096 1_556 S
O21 C6 1.268 . S
Sc22 O25 2.025 . S
Sc22 O32 2.105 . S
Sc22 O35 2.105 . S
Sc22 O38 2.105 . S
Sc22 O41 2.105 . S
Sc23 O25 2.025 . S
Sc23 O33 2.105 . S
Sc23 O37 2.105 . S
Sc23 O39 2.105 . S
Sc23 O43 2.105 . S
Sc24 O25 2.025 . S
Sc24 O34 2.105 . S
Sc24 O36 2.105 . S
Sc24 O40 2.105 . S
Sc24 O42 2.105 . S
O25 Sc22 2.025 . S
O25 Sc23 2.025 . S
O25 Sc24 2.025 . S
C26 O32 1.268 . S
C26 O42 1.268 . S
C27 O33 1.268 . S
C27 O41 1.268 . S
C28 O34 1.268 . S
C28 O43 1.268 . S
C29 O35 1.268 . S
C29 O39 1.268 . S
C30 O36 1.268 . S
C30 O38 1.268 . S
C31 O37 1.268 . S
C31 O40 1.268 . S
O32 Sc22 2.105 . S
O32 C26 1.268 . S
O33 Sc23 2.105 . S
O33 C27 1.268 . S
O34 Sc24 2.105 . S
O34 C28 1.268 . S
O35 Sc22 2.105 . S
O35 C29 1.268 . S
O36 Sc24 2.105 . S
O36 C30 1.268 . S
O37 Sc23 2.105 . S
O37 C31 1.268 . S
O38 Sc22 2.105 . S
O38 C30 1.268 . S
O39 Sc23 2.105 . S
O39 C29 1.268 . S
O40 Sc24 2.105 . S
O40 C31 1.268 . S
O41 Sc22 2.105 . S
O41 C27 1.268 . S
O42 Sc24 2.105 . S
O42 C26 1.268 . S
O43 Sc23 2.105 . S
O43 C28 1.268 . S
Sc44 O47 2.025 1_556 S
Sc44 O54 2.105 . S
Sc44 O57 2.105 . S
Sc44 O60 2.105 . S
Sc44 O63 2.105 . S
Sc45 O47 2.025 . S
Sc45 O55 2.105 1_554 S
Sc45 O59 2.105 . S
Sc45 O61 2.105 1_554 S
Sc45 O65 2.105 . S
Sc46 O47 2.025 . S
Sc46 O56 2.105 . S
Sc46 O58 2.105 . S
Sc46 O62 2.105 . S
Sc46 O64 2.105 . S
O47 Sc44 2.025 1_554 S
O47 Sc45 2.025 . S
O47 Sc46 2.025 . S
C48 O54 1.268 1_554 S
C48 O64 1.268 . S
C49 O55 1.268 . S
C49 O63 1.268 . S
C50 O56 1.268 . S
C50 O65 1.268 . S
C51 O57 1.268 . S
C51 O61 1.268 . S
C52 O58 1.268 . S
C52 O60 1.268 1_554 S
C53 O59 1.268 . S
C53 O62 1.268 . S
O54 Sc44 2.105 . S
O54 C48 1.268 1_556 S
O55 Sc45 2.105 1_556 S
O55 C49 1.268 . S
O56 Sc46 2.105 . S
O56 C50 1.268 . S
O57 Sc44 2.105 . S
O57 C51 1.268 . S
O58 Sc46 2.105 . S
O58 C52 1.268 . S
O59 Sc45 2.105 . S
O59 C53 1.268 . S
O60 Sc44 2.105 . S
O60 C52 1.268 1_556 S
O61 Sc45 2.105 1_556 S
O61 C51 1.268 . S
O62 Sc46 2.105 . S
O62 C53 1.268 . S
O63 Sc44 2.105 . S
O63 C49 1.268 . S
O64 Sc46 2.105 . S
O64 C48 1.268 . S
O65 Sc45 2.105 . S
O65 C50 1.268 . S
Sc66 O69 2.025 . S
Sc66 O76 2.105 . S
Sc66 O79 2.105 . S
Sc66 O82 2.105 . S
Sc66 O85 2.105 . S
Sc67 O69 2.025 . S
Sc67 O77 2.105 . S
Sc67 O81 2.105 . S
Sc67 O83 2.105 . S
Sc67 O87 2.105 . S
Sc68 O69 2.025 . S
Sc68 O78 2.105 . S
Sc68 O80 2.105 . S
Sc68 O84 2.105 . S
Sc68 O86 2.105 . S
O69 Sc66 2.025 . S
O69 Sc67 2.025 . S
O69 Sc68 2.025 . S
C70 O76 1.268 . S
C70 O86 1.268 . S
C71 O77 1.268 . S
C71 O85 1.268 . S
C72 O78 1.268 . S
C72 O87 1.268 . S
C73 O79 1.268 . S
C73 O83 1.268 . S
C74 O80 1.268 . S
C74 O82 1.268 . S
C75 O81 1.268 . S
C75 O84 1.268 . S
O76 Sc66 2.105 . S
O76 C70 1.268 . S
O77 Sc67 2.105 . S
O77 C71 1.268 . S
O78 Sc68 2.105 . S
O78 C72 1.268 . S
O79 Sc66 2.105 . S
O79 C73 1.268 . S
O80 Sc68 2.105 . S
O80 C74 1.268 . S
O81 Sc67 2.105 . S
O81 C75 1.268 . S
O82 Sc66 2.105 . S
O82 C74 1.268 . S
O83 Sc67 2.105 . S
O83 C73 1.268 . S
O84 Sc68 2.105 . S
O84 C75 1.268 . S
O85 Sc66 2.105 . S
O85 C71 1.268 . S
O86 Sc68 2.105 . S
O86 C70 1.268 . S
O87 Sc67 2.105 . S
O87 C72 1.268 . S
H88 C91 0.929 . S
H89 C94 0.929 . S
H90 C96 0.930 . S
C91 H88 0.929 . S
C91 C92 1.398 1_554 S
C91 C93 1.396 . S
C92 C91 1.398 1_556 S
C92 C96 1.407 . S
C93 C91 1.396 . S
C93 C94 1.394 . S
C94 H89 0.929 . S
C94 C93 1.394 . S
C94 C95 1.382 1_554 S
C95 C94 1.382 1_556 S
C95 C96 1.392 . S
C95 N97 1.420 . S
C96 H90 0.930 . S
C96 C92 1.407 . S
C96 C95 1.392 . S
N97 C95 1.420 . S
N97 C98 1.244 1_556 S
C98 N97 1.244 1_554 S
H99 C102 0.929 . S
H100 C105 0.929 . S
H101 C107 0.930 . S
C102 H99 0.929 . S
C102 C103 1.398 . S
C102 C104 1.396 . S
C103 C102 1.398 . S
C103 C107 1.407 . S
C104 C102 1.396 . S
C104 C105 1.394 . S
C105 H100 0.929 . S
C105 C104 1.394 . S
C105 C106 1.368 1_655 S
C106 C105 1.368 1_455 S
C106 C107 1.372 1_455 S
C106 N108 1.454 . S
C107 H101 0.930 . S
C107 C103 1.407 . S
C107 C106 1.372 1_655 S
N108 C106 1.454 . S
N108 C109 1.244 . S
C109 N108 1.244 . S
H110 C113 0.929 . S
H111 C116 0.929 . S
H112 C118 0.930 . S
C113 H110 0.929 . S
C113 C114 1.398 . S
C113 C115 1.396 1_554 S
C114 C113 1.398 . S
C114 C118 1.407 . S
C115 C113 1.396 1_556 S
C115 C116 1.394 . S
C116 H111 0.929 . S
C116 C115 1.394 . S
C116 C117 1.382 1_556 S
C117 C116 1.382 1_554 S
C117 C118 1.392 . S
C117 N119 1.420 . S
C118 H112 0.930 . S
C118 C114 1.407 . S
C118 C117 1.392 . S
N119 C117 1.420 . S
N119 C120 1.244 . S
C120 N119 1.244 . S
H121 C124 0.929 . S
H122 C127 0.929 . S
H123 C129 0.930 . S
C124 H121 0.929 . S
C124 C125 1.398 . S
C124 C126 1.396 . S
C125 C124 1.398 . S
C125 C129 1.407 . S
C126 C124 1.396 . S
C126 C127 1.394 . S
C127 H122 0.929 . S
C127 C126 1.394 . S
C127 C128 1.382 . S
C128 C127 1.382 . S
C128 C129 1.392 . S
C128 N130 1.420 1_455 S
C129 H123 0.930 . S
C129 C125 1.407 . S
C129 C128 1.392 . S
N130 C128 1.420 1_655 S
N130 C131 1.244 . S
C131 N130 1.244 . S
H132 C135 0.929 . S
H133 C138 0.929 . S
H134 C140 0.930 . S
C135 H132 0.929 . S
C135 C136 1.398 . S
C135 C137 1.396 . S
C136 C135 1.398 . S
C136 C140 1.407 . S
C137 C135 1.396 . S
C137 C138 1.394 . S
C138 H133 0.929 . S
C138 C137 1.394 . S
C138 C139 1.382 . S
C139 C138 1.382 . S
C139 C140 1.392 . S
C139 N141 1.420 1_565 S
C140 H134 0.930 . S
C140 C136 1.407 . S
C140 C139 1.392 . S
N141 C139 1.420 1_545 S
N141 C142 1.244 . S
C142 N141 1.244 . S
H143 C146 0.929 . S
H144 C149 0.929 . S
H145 C151 0.930 . S
C146 H143 0.929 . S
C146 C147 1.398 1_554 S
C146 C148 1.396 . S
C147 C146 1.398 1_556 S
C147 C151 1.407 . S
C148 C146 1.396 . S
C148 C149 1.394 . S
C149 H144 0.929 . S
C149 C148 1.394 . S
C149 C150 1.382 1_554 S
C150 C149 1.382 1_556 S
C150 C151 1.392 . S
C150 N152 1.420 . S
C151 H145 0.930 . S
C151 C147 1.407 . S
C151 C150 1.392 . S
N152 C150 1.420 . S
N152 C153 1.244 1_556 S
C153 N152 1.244 1_554 S
H154 C157 0.929 . S
H155 C160 0.929 . S
H156 C162 0.930 . S
C157 H154 0.929 . S
C157 C158 1.398 . S
C157 C159 1.396 . S
C158 C157 1.398 . S
C158 C162 1.407 . S
C159 C157 1.396 . S
C159 C160 1.394 . S
C160 H155 0.929 . S
C160 C159 1.394 . S
C160 C161 1.372 1_545 S
C161 C160 1.372 1_565 S
C161 C162 1.378 1_565 S
C161 N163 1.443 . S
C162 H156 0.930 . S
C162 C158 1.407 . S
C162 C161 1.378 1_545 S
N163 C161 1.443 . S
N163 C164 1.244 . S
C164 N163 1.244 . S
H165 C168 0.929 . S
H166 C171 0.929 . S
H167 C173 0.930 . S
C168 H165 0.929 . S
C168 C169 1.398 . S
C168 C170 1.396 1_554 S
C169 C168 1.398 . S
C169 C173 1.407 . S
C170 C168 1.396 1_556 S
C170 C171 1.394 . S
C171 H166 0.929 . S
C171 C170 1.394 . S
C171 C172 1.382 1_556 S
C172 C171 1.382 1_554 S
C172 C173 1.392 . S
C172 N174 1.420 . S
C173 H167 0.930 . S
C173 C169 1.407 . S
C173 C172 1.392 . S
N174 C172 1.420 . S
N174 C175 1.244 . S
C175 N174 1.244 . S
C176 C177 1.363 . S
C176 C182 1.379 . S
C176 N184 1.356 . S
C177 C176 1.363 . S
C177 C183 1.363 . S
C178 C179 1.363 . S
C178 C183 1.379 . S
C178 N185 1.356 . S
C179 C178 1.363 . S
C179 C182 1.363 . S
N180 C182 1.356 . S
N180 H192 0.984 . S
N180 H193 0.985 . S
N181 C183 1.356 . S
N181 H186 0.984 . S
N181 H187 0.985 . S
C182 C176 1.379 . S
C182 C179 1.363 . S
C182 N180 1.356 . S
C183 C177 1.363 . S
C183 C178 1.379 . S
C183 N181 1.356 . S
N184 C176 1.356 . S
N184 H190 0.984 . S
N184 H191 0.984 . S
N185 C178 1.356 . S
N185 H188 0.984 . S
N185 H189 0.985 . S
H186 N181 0.984 . S
H187 N181 0.985 . S
H188 N185 0.984 . S
H189 N185 0.985 . S
H190 N184 0.984 . S
H191 N184 0.984 . S
H192 N180 0.984 . S
H193 N180 0.985 . S
C194 C195 1.363 . S
C194 C200 1.379 . S
C194 N202 1.356 . S
C195 C194 1.363 . S
C195 C201 1.363 . S
C196 C197 1.363 . S
C196 C201 1.379 . S
C196 N203 1.356 . S
C197 C196 1.363 . S
C197 C200 1.363 . S
N198 C200 1.356 . S
N198 H210 0.984 . S
N198 H211 0.985 . S
N199 C201 1.356 . S
N199 H204 0.984 . S
N199 H205 0.985 . S
C200 C194 1.379 . S
C200 C197 1.363 . S
C200 N198 1.356 . S
C201 C195 1.363 . S
C201 C196 1.379 . S
C201 N199 1.356 . S
N202 C194 1.356 . S
N202 H208 0.984 . S
N202 H209 0.984 . S
N203 C196 1.356 . S
N203 H206 0.984 . S
N203 H207 0.985 . S
H204 N199 0.984 . S
H205 N199 0.985 . S
H206 N203 0.984 . S
H207 N203 0.985 . S
H208 N202 0.984 . S
H209 N202 0.984 . S
H210 N198 0.984 . S
H211 N198 0.985 . S
C212 C213 1.363 . S
C212 C218 1.379 . S
C212 N220 1.356 . S
C213 C212 1.363 . S
C213 C219 1.363 . S
C214 C215 1.363 . S
C214 C219 1.379 . S
C214 N221 1.356 . S
C215 C214 1.363 . S
C215 C218 1.363 . S
N216 C218 1.356 . S
N216 H228 0.984 . S
N216 H229 0.985 . S
N217 C219 1.356 . S
N217 H222 0.984 . S
N217 H223 0.985 . S
C218 C212 1.379 . S
C218 C215 1.363 . S
C218 N216 1.356 . S
C219 C213 1.363 . S
C219 C214 1.379 . S
C219 N217 1.356 . S
N220 C212 1.356 . S
N220 H226 0.984 . S
N220 H227 0.984 . S
N221 C214 1.356 . S
N221 H224 0.984 . S
N221 H225 0.985 . S
H222 N217 0.984 . S
H223 N217 0.985 . S
H224 N221 0.984 . S
H225 N221 0.985 . S
H226 N220 0.984 . S
H227 N220 0.984 . S
H228 N216 0.984 . S
H229 N216 0.985 . S
C230 C231 1.363 . S
C230 C236 1.379 . S
C230 N238 1.356 . S
C231 C230 1.363 . S
C231 C237 1.363 . S
C232 C233 1.363 . S
C232 C237 1.379 . S
C232 N239 1.356 . S
C233 C232 1.363 . S
C233 C236 1.363 . S
N234 C236 1.356 . S
N234 H246 0.981 1_556 S
N234 H247 0.985 . S
N235 C237 1.356 . S
N235 H240 0.984 . S
N235 H241 0.985 . S
C236 C230 1.379 . S
C236 C233 1.363 . S
C236 N234 1.356 . S
C237 C231 1.363 . S
C237 C232 1.379 . S
C237 N235 1.356 . S
N238 C230 1.356 . S
N238 H244 0.984 . S
N238 H245 0.984 . S
N239 C232 1.356 . S
N239 H242 0.984 . S
N239 H243 0.985 . S
H240 N235 0.984 . S
H241 N235 0.985 . S
H242 N239 0.984 . S
H243 N239 0.985 . S
H244 N238 0.984 . S
H245 N238 0.984 . S
H246 N234 0.981 1_554 S
H247 N234 0.985 . S
C248 C249 1.363 . S
C248 C254 1.379 . S
C248 N256 1.356 . S
C249 C248 1.363 . S
C249 C255 1.363 . S
C250 C251 1.363 . S
C250 C255 1.379 . S
C250 N257 1.356 . S
C251 C250 1.363 . S
C251 C254 1.363 . S
N252 C254 1.356 . S
N252 H264 0.984 . S
N252 H265 0.985 . S
N253 C255 1.356 . S
N253 H258 0.984 . S
N253 H259 0.985 . S
C254 C248 1.379 . S
C254 C251 1.363 . S
C254 N252 1.356 . S
C255 C249 1.363 . S
C255 C250 1.379 . S
C255 N253 1.356 . S
N256 C248 1.356 . S
N256 H262 0.984 . S
N256 H263 0.984 . S
N257 C250 1.356 . S
N257 H260 0.984 . S
N257 H261 0.985 . S
H258 N253 0.984 . S
H259 N253 0.985 . S
H260 N257 0.984 . S
H261 N257 0.985 . S
H262 N256 0.984 . S
H263 N256 0.984 . S
H264 N252 0.984 . S
H265 N252 0.985 . S
C266 C267 1.363 . S
C266 C272 1.379 . S
C266 N274 1.356 . S
C267 C266 1.363 . S
C267 C273 1.363 . S
C268 C269 1.363 . S
C268 C273 1.379 . S
C268 N275 1.356 . S
C269 C268 1.363 . S
C269 C272 1.363 . S
N270 C272 1.356 . S
N270 H282 0.984 . S
N270 H283 0.985 . S
N271 C273 1.356 . S
N271 H276 0.984 . S
N271 H277 0.985 . S
C272 C266 1.379 . S
C272 C269 1.363 . S
C272 N270 1.356 . S
C273 C267 1.363 . S
C273 C268 1.379 . S
C273 N271 1.356 . S
N274 C266 1.356 . S
N274 H280 0.984 . S
N274 H281 0.984 . S
N275 C268 1.356 . S
N275 H278 0.984 . S
N275 H279 0.985 . S
H276 N271 0.984 . S
H277 N271 0.985 . S
H278 N275 0.984 . S
H279 N275 0.985 . S
H280 N274 0.984 . S
H281 N274 0.984 . S
H282 N270 0.984 . S
H283 N270 0.985 . S
C284 C285 1.363 . S
C284 C290 1.379 . S
C284 N292 1.356 . S
C285 C284 1.363 . S
C285 C291 1.363 . S
C286 C287 1.363 . S
C286 C291 1.379 . S
C286 N293 1.356 . S
C287 C286 1.363 . S
C287 C290 1.363 . S
N288 C290 1.356 . S
N288 H300 0.984 . S
N288 H301 0.985 . S
N289 C291 1.356 . S
N289 H294 0.984 . S
N289 H295 0.985 . S
C290 C284 1.379 . S
C290 C287 1.363 . S
C290 N288 1.356 . S
C291 C285 1.363 . S
C291 C286 1.379 . S
C291 N289 1.356 . S
N292 C284 1.356 . S
N292 H298 0.984 . S
N292 H299 0.984 . S
N293 C286 1.356 . S
N293 H296 0.984 . S
N293 H297 0.985 . S
H294 N289 0.984 . S
H295 N289 0.985 . S
H296 N293 0.984 . S
H297 N293 0.985 . S
H298 N292 0.984 . S
H299 N292 0.984 . S
H300 N288 0.984 . S
H301 N288 0.985 . S
C302 C303 1.363 . S
C302 C308 1.379 . S
C302 N310 1.356 . S
C303 C302 1.363 . S
C303 C309 1.363 . S
C304 C305 1.363 . S
C304 C309 1.379 . S
C304 N311 1.356 . S
C305 C304 1.363 . S
C305 C308 1.363 . S
N306 C308 1.356 . S
N306 H318 0.984 . S
N306 H319 0.985 . S
N307 C309 1.356 . S
N307 H312 0.984 . S
N307 H313 0.985 . S
C308 C302 1.379 . S
C308 C305 1.363 . S
C308 N306 1.356 . S
C309 C303 1.363 . S
C309 C304 1.379 . S
C309 N307 1.356 . S
N310 C302 1.356 . S
N310 H316 0.984 . S
N310 H317 0.984 . S
N311 C304 1.356 . S
N311 H314 0.984 . S
N311 H315 0.985 . S
H312 N307 0.984 . S
H313 N307 0.985 . S
H314 N311 0.984 . S
H315 N311 0.985 . S
H316 N310 0.984 . S
H317 N310 0.984 . S
H318 N306 0.984 . S
H319 N306 0.985 . S
C320 C321 1.363 . S
C320 C326 1.379 . S
C320 N328 1.356 . S
C321 C320 1.363 . S
C321 C327 1.363 . S
C322 C323 1.363 . S
C322 C327 1.379 . S
C322 N329 1.356 . S
C323 C322 1.363 . S
C323 C326 1.363 . S
N324 C326 1.356 . S
N324 H336 0.984 . S
N324 H337 0.985 . S
N325 C327 1.356 . S
N325 H330 0.984 . S
N325 H331 0.985 . S
C326 C320 1.379 . S
C326 C323 1.363 . S
C326 N324 1.356 . S
C327 C321 1.363 . S
C327 C322 1.379 . S
C327 N325 1.356 . S
N328 C320 1.356 . S
N328 H334 0.984 . S
N328 H335 0.984 . S
N329 C322 1.356 . S
N329 H332 0.984 . S
N329 H333 0.985 . S
H330 N325 0.984 . S
H331 N325 0.985 . S
H332 N329 0.984 . S
H333 N329 0.985 . S
H334 N328 0.984 . S
H335 N328 0.984 . S
H336 N324 0.984 . S
H337 N324 0.985 . S
C338 C339 1.363 . S
C338 C344 1.379 . S
C338 N346 1.356 . S
C339 C338 1.363 . S
C339 C345 1.363 . S
C340 C341 1.363 . S
C340 C345 1.379 . S
C340 N347 1.356 . S
C341 C340 1.363 . S
C341 C344 1.363 . S
N342 C344 1.356 . S
N342 H354 0.984 . S
N342 H355 0.985 . S
N343 C345 1.356 . S
N343 H348 0.984 . S
N343 H349 0.985 . S
C344 C338 1.379 . S
C344 C341 1.363 . S
C344 N342 1.356 . S
C345 C339 1.363 . S
C345 C340 1.379 . S
C345 N343 1.356 . S
N346 C338 1.356 . S
N346 H352 0.984 . S
N346 H353 0.984 . S
N347 C340 1.356 . S
N347 H350 0.984 . S
N347 H351 0.985 . S
H348 N343 0.984 . S
H349 N343 0.985 . S
H350 N347 0.984 . S
H351 N347 0.985 . S
H352 N346 0.984 . S
H353 N346 0.984 . S
H354 N342 0.984 . S
H355 N342 0.985 . S
C356 C357 1.363 . S
C356 C362 1.379 . S
C356 N364 1.356 . S
C357 C356 1.363 . S
C357 C363 1.363 . S
C358 C359 1.363 . S
C358 C363 1.379 . S
C358 N365 1.356 . S
C359 C358 1.363 . S
C359 C362 1.363 . S
N360 C362 1.356 . S
N360 H372 0.984 . S
N360 H373 0.985 . S
N361 C363 1.356 . S
N361 H366 0.984 . S
N361 H367 0.985 . S
C362 C356 1.379 . S
C362 C359 1.363 . S
C362 N360 1.356 . S
C363 C357 1.363 . S
C363 C358 1.379 . S
C363 N361 1.356 . S
N364 C356 1.356 . S
N364 H370 0.984 . S
N364 H371 0.984 . S
N365 C358 1.356 . S
N365 H368 0.984 . S
N365 H369 0.985 . S
H366 N361 0.984 . S
H367 N361 0.985 . S
H368 N365 0.984 . S
H369 N365 0.985 . S
H370 N364 0.984 . S
H371 N364 0.984 . S
H372 N360 0.984 . S
H373 N360 0.985 . S
C374 C375 1.363 . S
C374 C380 1.379 . S
C374 N382 1.356 . S
C375 C374 1.363 . S
C375 C381 1.363 . S
C376 C377 1.363 . S
C376 C381 1.379 . S
C376 N383 1.356 . S
C377 C376 1.363 . S
C377 C380 1.363 . S
N378 C380 1.356 . S
N378 H390 0.984 . S
N378 H391 0.985 . S
N379 C381 1.356 . S
N379 H384 0.984 . S
N379 H385 0.985 . S
C380 C374 1.379 . S
C380 C377 1.363 . S
C380 N378 1.356 . S
C381 C375 1.363 . S
C381 C376 1.379 . S
C381 N379 1.356 . S
N382 C374 1.356 . S
N382 H388 0.984 . S
N382 H389 0.984 . S
N383 C376 1.356 . S
N383 H386 0.984 . S
N383 H387 0.985 . S
H384 N379 0.984 . S
H385 N379 0.985 . S
H386 N383 0.984 . S
H387 N383 0.985 . S
H388 N382 0.984 . S
H389 N382 0.984 . S
H390 N378 0.984 . S
H391 N378 0.985 . S
C392 C393 1.363 . S
C392 C398 1.379 . S
C392 N400 1.356 . S
C393 C392 1.363 . S
C393 C399 1.363 . S
C394 C395 1.363 . S
C394 C399 1.379 . S
C394 N401 1.356 . S
C395 C394 1.363 . S
C395 C398 1.363 . S
N396 C398 1.356 . S
N396 H408 0.984 1_556 S
N396 H409 0.989 . S
N397 C399 1.356 . S
N397 H402 0.984 . S
N397 H403 0.985 . S
C398 C392 1.379 . S
C398 C395 1.363 . S
C398 N396 1.356 . S
C399 C393 1.363 . S
C399 C394 1.379 . S
C399 N397 1.356 . S
N400 C392 1.356 . S
N400 H406 0.984 . S
N400 H407 0.984 . S
N401 C394 1.356 . S
N401 H404 0.984 . S
N401 H405 0.985 . S
H402 N397 0.984 . S
H403 N397 0.985 . S
H404 N401 0.984 . S
H405 N401 0.985 . S
H406 N400 0.984 . S
H407 N400 0.984 . S
H408 N396 0.984 1_554 S
H409 N396 0.989 . S
C410 C411 1.363 . S
C410 C416 1.379 . S
C410 N418 1.356 . S
C411 C410 1.363 . S
C411 C417 1.363 . S
C412 C413 1.363 . S
C412 C417 1.379 . S
C412 N419 1.356 . S
C413 C412 1.363 . S
C413 C416 1.363 . S
N414 C416 1.356 . S
N414 H426 0.984 . S
N414 H427 0.985 . S
N415 C417 1.356 . S
N415 H420 0.984 . S
N415 H421 0.985 . S
C416 C410 1.379 . S
C416 C413 1.363 . S
C416 N414 1.356 . S
C417 C411 1.363 . S
C417 C412 1.379 . S
C417 N415 1.356 . S
N418 C410 1.356 . S
N418 H424 0.984 . S
N418 H425 0.984 . S
N419 C412 1.356 . S
N419 H422 0.984 . S
N419 H423 0.985 . S
H420 N415 0.984 . S
H421 N415 0.985 . S
H422 N419 0.984 . S
H423 N419 0.985 . S
H424 N418 0.984 . S
H425 N418 0.984 . S
H426 N414 0.984 . S
H427 N414 0.985 . S
C428 C429 1.363 . S
C428 C434 1.379 . S
C428 N436 1.356 . S
C429 C428 1.363 . S
C429 C435 1.363 . S
C430 C431 1.363 . S
C430 C435 1.379 . S
C430 N437 1.356 . S
C431 C430 1.363 . S
C431 C434 1.363 . S
N432 C434 1.356 . S
N432 H444 0.984 . S
N432 H445 0.985 . S
N433 C435 1.356 . S
N433 H438 0.984 . S
N433 H439 0.985 . S
C434 C428 1.379 . S
C434 C431 1.363 . S
C434 N432 1.356 . S
C435 C429 1.363 . S
C435 C430 1.379 . S
C435 N433 1.356 . S
N436 C428 1.356 . S
N436 H442 0.984 . S
N436 H443 0.984 . S
N437 C430 1.356 . S
N437 H440 0.984 . S
N437 H441 0.985 . S
H438 N433 0.984 . S
H439 N433 0.985 . S
H440 N437 0.984 . S
H441 N437 0.985 . S
H442 N436 0.984 . S
H443 N436 0.984 . S
H444 N432 0.984 . S
H445 N432 0.985 . S
C446 C447 1.363 . S
C446 C452 1.379 . S
C446 N454 1.356 . S
C447 C446 1.363 . S
C447 C453 1.363 . S
C448 C449 1.363 . S
C448 C453 1.379 . S
C448 N455 1.356 . S
C449 C448 1.363 . S
C449 C452 1.363 . S
N450 C452 1.356 . S
N450 H462 0.984 . S
N450 H463 0.985 . S
N451 C453 1.356 . S
N451 H456 0.984 . S
N451 H457 0.985 . S
C452 C446 1.379 . S
C452 C449 1.363 . S
C452 N450 1.356 . S
C453 C447 1.363 . S
C453 C448 1.379 . S
C453 N451 1.356 . S
N454 C446 1.356 . S
N454 H460 0.984 . S
N454 H461 0.984 . S
N455 C448 1.356 . S
N455 H458 0.984 . S
N455 H459 0.985 . S
H456 N451 0.984 . S
H457 N451 0.985 . S
H458 N455 0.984 . S
H459 N455 0.985 . S
H460 N454 0.984 . S
H461 N454 0.984 . S
H462 N450 0.984 . S
H463 N450 0.985 . S
C464 C465 1.363 . S
C464 C470 1.379 . S
C464 N472 1.356 . S
C465 C464 1.363 . S
C465 C471 1.363 1_554 S
C466 C467 1.363 1_556 S
C466 C471 1.379 . S
C466 N473 1.356 . S
C467 C466 1.363 1_554 S
C467 C470 1.363 . S
N468 C470 1.356 . S
N468 H480 0.984 . S
N468 H481 0.985 . S
N469 C471 1.356 . S
N469 H474 0.984 . S
N469 H475 0.985 . S
C470 C464 1.379 . S
C470 C467 1.363 . S
C470 N468 1.356 . S
C471 C465 1.363 1_556 S
C471 C466 1.379 . S
C471 N469 1.356 . S
N472 C464 1.356 . S
N472 H478 0.984 . S
N472 H479 0.984 . S
N473 C466 1.356 . S
N473 H476 0.984 . S
N473 H477 0.985 . S
H474 N469 0.984 . S
H475 N469 0.985 . S
H476 N473 0.984 . S
H477 N473 0.985 . S
H478 N472 0.984 . S
H479 N472 0.984 . S
H480 N468 0.984 . S
H481 N468 0.985 . S
C482 C483 1.363 . S
C482 C488 1.379 . S
C482 N490 1.356 . S
C483 C482 1.363 . S
C483 C489 1.363 . S
C484 C485 1.363 . S
C484 C489 1.379 . S
C484 N491 1.356 . S
C485 C484 1.363 . S
C485 C488 1.363 . S
N486 C488 1.356 . S
N486 H498 0.984 . S
N486 H499 0.985 . S
N487 C489 1.356 . S
N487 H492 0.984 . S
N487 H493 0.985 . S
C488 C482 1.379 . S
C488 C485 1.363 . S
C488 N486 1.356 . S
C489 C483 1.363 . S
C489 C484 1.379 . S
C489 N487 1.356 . S
N490 C482 1.356 . S
N490 H496 0.984 . S
N490 H497 0.984 . S
N491 C484 1.356 . S
N491 H494 0.984 . S
N491 H495 0.985 . S
H492 N487 0.984 . S
H493 N487 0.985 . S
H494 N491 0.984 . S
H495 N491 0.985 . S
H496 N490 0.984 . S
H497 N490 0.984 . S
H498 N486 0.984 . S
H499 N486 0.985 . S
C500 C501 1.363 . S
C500 C506 1.379 . S
C500 N508 1.356 . S
C501 C500 1.363 . S
C501 C507 1.363 1_554 S
C502 C503 1.363 1_556 S
C502 C507 1.379 . S
C502 N509 1.356 . S
C503 C502 1.363 1_554 S
C503 C506 1.363 . S
N504 C506 1.356 . S
N504 H516 0.984 . S
N504 H517 0.985 . S
N505 C507 1.356 . S
N505 H510 0.984 . S
N505 H511 0.985 . S
C506 C500 1.379 . S
C506 C503 1.363 . S
C506 N504 1.356 . S
C507 C501 1.363 1_556 S
C507 C502 1.379 . S
C507 N505 1.356 . S
N508 C500 1.356 . S
N508 H514 0.984 . S
N508 H515 0.984 . S
N509 C502 1.356 . S
N509 H512 0.984 . S
N509 H513 0.985 . S
H510 N505 0.984 . S
H511 N505 0.985 . S
H512 N509 0.984 . S
H513 N509 0.985 . S
H514 N508 0.984 . S
H515 N508 0.984 . S
H516 N504 0.984 . S
H517 N504 0.985 . S
C518 C519 1.363 . S
C518 C524 1.379 . S
C518 N526 1.356 . S
C519 C518 1.363 . S
C519 C525 1.363 . S
C520 C521 1.363 . S
C520 C525 1.379 . S
C520 N527 1.356 . S
C521 C520 1.363 . S
C521 C524 1.363 . S
N522 C524 1.356 . S
N522 H534 0.984 . S
N522 H535 0.985 . S
N523 C525 1.356 . S
N523 H528 0.984 . S
N523 H529 0.985 . S
C524 C518 1.379 . S
C524 C521 1.363 . S
C524 N522 1.356 . S
C525 C519 1.363 . S
C525 C520 1.379 . S
C525 N523 1.356 . S
N526 C518 1.356 . S
N526 H532 0.984 . S
N526 H533 0.984 . S
N527 C520 1.356 . S
N527 H530 0.984 . S
N527 H531 0.985 . S
H528 N523 0.984 . S
H529 N523 0.985 . S
H530 N527 0.984 . S
H531 N527 0.985 . S
H532 N526 0.984 . S
H533 N526 0.984 . S
H534 N522 0.984 . S
H535 N522 0.985 . S
C536 C537 1.363 . S
C536 C542 1.379 . S
C536 N544 1.356 . S
C537 C536 1.363 . S
C537 C543 1.363 . S
C538 C539 1.363 . S
C538 C543 1.379 . S
C538 N545 1.356 . S
C539 C538 1.363 . S
C539 C542 1.363 . S
N540 C542 1.356 . S
N540 H552 0.984 . S
N540 H553 0.985 . S
N541 C543 1.356 . S
N541 H546 0.984 . S
N541 H547 0.985 . S
C542 C536 1.379 . S
C542 C539 1.363 . S
C542 N540 1.356 . S
C543 C537 1.363 . S
C543 C538 1.379 . S
C543 N541 1.356 . S
N544 C536 1.356 . S
N544 H550 0.984 . S
N544 H551 0.984 . S
N545 C538 1.356 . S
N545 H548 0.984 . S
N545 H549 0.985 . S
H546 N541 0.984 . S
H547 N541 0.985 . S
H548 N545 0.984 . S
H549 N545 0.985 . S
H550 N544 0.984 . S
H551 N544 0.984 . S
H552 N540 0.984 . S
H553 N540 0.985 . S
C554 C555 1.363 . S
C554 C560 1.379 . S
C554 N562 1.356 . S
C555 C554 1.363 . S
C555 C561 1.363 1_554 S
C556 C557 1.363 1_556 S
C556 C561 1.379 . S
C556 N563 1.356 . S
C557 C556 1.363 1_554 S
C557 C560 1.363 . S
N558 C560 1.356 . S
N558 H570 0.984 . S
N558 H571 0.985 . S
N559 C561 1.356 . S
N559 H564 0.984 . S
N559 H565 0.985 . S
C560 C554 1.379 . S
C560 C557 1.363 . S
C560 N558 1.356 . S
C561 C555 1.363 1_556 S
C561 C556 1.379 . S
C561 N559 1.356 . S
N562 C554 1.356 . S
N562 H568 0.984 . S
N562 H569 0.984 . S
N563 C556 1.356 . S
N563 H566 0.984 . S
N563 H567 0.985 . S
H564 N559 0.984 . S
H565 N559 0.985 . S
H566 N563 0.984 . S
H567 N563 0.985 . S
H568 N562 0.984 . S
H569 N562 0.984 . S
H570 N558 0.984 . S
H571 N558 0.985 . S
C572 C573 1.363 . S
C572 C578 1.379 . S
C572 N580 1.356 . S
C573 C572 1.363 . S
C573 C579 1.363 . S
C574 C575 1.363 . S
C574 C579 1.379 . S
C574 N581 1.356 . S
C575 C574 1.363 . S
C575 C578 1.363 . S
N576 C578 1.356 . S
N576 H588 0.984 . S
N576 H589 0.985 . S
N577 C579 1.356 . S
N577 H582 0.984 . S
N577 H583 0.985 . S
C578 C572 1.379 . S
C578 C575 1.363 . S
C578 N576 1.356 . S
C579 C573 1.363 . S
C579 C574 1.379 . S
C579 N577 1.356 . S
N580 C572 1.356 . S
N580 H586 0.984 . S
N580 H587 0.984 . S
N581 C574 1.356 . S
N581 H584 0.984 . S
N581 H585 0.985 . S
H582 N577 0.984 . S
H583 N577 0.985 . S
H584 N581 0.984 . S
H585 N581 0.985 . S
H586 N580 0.984 . S
H587 N580 0.984 . S
H588 N576 0.984 . S
H589 N576 0.985 . S
C590 C591 1.363 1_556 S
C590 C596 1.379 . S
C590 N598 1.356 . S
C591 C590 1.363 1_554 S
C591 C597 1.363 . S
C592 C593 1.363 . S
C592 C597 1.379 . S
C592 N599 1.356 . S
C593 C592 1.363 . S
C593 C596 1.363 1_554 S
N594 C596 1.356 . S
N594 H606 0.984 . S
N594 H607 0.985 . S
N595 C597 1.356 . S
N595 H600 0.984 . S
N595 H601 0.985 . S
C596 C590 1.379 . S
C596 C593 1.363 1_556 S
C596 N594 1.356 . S
C597 C591 1.363 . S
C597 C592 1.379 . S
C597 N595 1.356 . S
N598 C590 1.356 . S
N598 H604 0.984 . S
N598 H605 0.984 . S
N599 C592 1.356 . S
N599 H602 0.984 . S
N599 H603 0.985 . S
H600 N595 0.984 . S
H601 N595 0.985 . S
H602 N599 0.984 . S
H603 N599 0.985 . S
H604 N598 0.984 . S
H605 N598 0.984 . S
H606 N594 0.984 . S
H607 N594 0.985 . S
C177 C5 1.455 . S
C179 C125 1.467 . S
C195 C31 1.474 . S
C197 C92 1.480 . S
C215 C104 1.477 . S
C213 C53 1.499 . S
C231 C71 1.480 . S
C233 C115 1.464 . S
C251 C148 1.464 . S
C249 C75 1.480 . S
C269 C159 1.477 . S
C267 C9 1.499 . S
C287 C169 1.480 . S
C285 C27 1.474 . S
C305 C136 1.467 . S
C303 C49 1.455 . S
C321 C51 1.455 . S
C323 C103 1.460 . S
C339 C72 1.474 . S
C341 C114 1.473 . S
C357 C6 1.499 . S
C359 C126 1.481 . S
C377 C93 1.468 . S
C375 C29 1.480 . S
C393 C28 1.480 . S
C395 C170 1.468 . S
C413 C137 1.481 . S
C411 C50 1.499 . S
C431 C147 1.473 . S
C429 C73 1.474 . S
C447 C7 1.455 . S
C449 C158 1.460 . S
C467 C98 1.509 . S
C465 C4 1.508 . S
C485 C109 1.513 . S
C483 C30 1.508 . S
C501 C52 1.508 . S
C503 C120 1.514 . S
C519 C70 1.508 . S
C521 C131 1.508 . S
C539 C142 1.508 . S
C537 C74 1.508 . S
C555 C8 1.508 . S
C557 C153 1.514 . S
C573 C26 1.507 . S
C575 C164 1.513 . S
C591 C48 1.508 . S
C593 C175 1.509 . S
