# Generated by pormake.
# Topology eea, (3,6)-cn, num edge types: 1
# Building blocks:
#     Node 0, Type 0, BuildingBlock: KAKCAD_clean_linker_0, # of connection points: 3
#     Node 1, Type 0, BuildingBlock: KAKCAD_clean_linker_0, # of connection points: 3
#     Node 2, Type 0, BuildingBlock: KAKCAD_clean_linker_0, # of connection points: 3
#     Node 3, Type 0, BuildingBlock: KAKCAD_clean_linker_0, # of connection points: 3
#     Node 4, Type 0, BuildingBlock: KAKCAD_clean_linker_0, # of connection points: 3
#     Node 5, Type 0, BuildingBlock: KAKCAD_clean_linker_0, # of connection points: 3
#     Node 6, Type 0, BuildingBlock: KAKCAD_clean_linker_0, # of connection points: 3
#     Node 7, Type 0, BuildingBlock: KAKCAD_clean_linker_0, # of connection points: 3
#     Node 8, Type 0, BuildingBlock: KAKCAD_clean_linker_0, # of connection points: 3
#     Node 9, Type 0, BuildingBlock: KAKCAD_clean_linker_0, # of connection points: 3
#     Node 10, Type 0, BuildingBlock: KAKCAD_clean_linker_0, # of connection points: 3
#     Node 11, Type 0, BuildingBlock: KAKCAD_clean_linker_0, # of connection points: 3
#     Node 12, Type 0, BuildingBlock: KAKCAD_clean_linker_0, # of connection points: 3
#     Node 13, Type 0, BuildingBlock: KAKCAD_clean_linker_0, # of connection points: 3
#     Node 14, Type 0, BuildingBlock: KAKCAD_clean_linker_0, # of connection points: 3
#     Node 15, Type 0, BuildingBlock: KAKCAD_clean_linker_0, # of connection points: 3
#     Node 16, Type 0, BuildingBlock: KAKCAD_clean_linker_0, # of connection points: 3
#     Node 17, Type 0, BuildingBlock: KAKCAD_clean_linker_0, # of connection points: 3
#     Node 18, Type 1, BuildingBlock: KUMBUR_clean_sbu_0, # of connection points: 6
#     Node 19, Type 1, BuildingBlock: KUMBUR_clean_sbu_0, # of connection points: 6
#     Node 20, Type 1, BuildingBlock: KUMBUR_clean_sbu_0, # of connection points: 6
#     Node 21, Type 1, BuildingBlock: KUMBUR_clean_sbu_0, # of connection points: 6
#     Node 22, Type 1, BuildingBlock: KUMBUR_clean_sbu_0, # of connection points: 6
#     Node 23, Type 1, BuildingBlock: KUMBUR_clean_sbu_0, # of connection points: 6
#     Node 24, Type 1, BuildingBlock: KUMBUR_clean_sbu_0, # of connection points: 6
#     Node 25, Type 1, BuildingBlock: KUMBUR_clean_sbu_0, # of connection points: 6
#     Node 26, Type 1, BuildingBlock: KUMBUR_clean_sbu_0, # of connection points: 6
#     Edge 27, Type (0, 1), BuildingBlock: EZIPEK_clean_linker_0, # of connection points: 2
#     Edge 28, Type (0, 1), BuildingBlock: EZIPEK_clean_linker_0, # of connection points: 2
#     Edge 29, Type (0, 1), BuildingBlock: EZIPEK_clean_linker_0, # of connection points: 2
#     Edge 30, Type (0, 1), BuildingBlock: EZIPEK_clean_linker_0, # of connection points: 2
#     Edge 31, Type (0, 1), BuildingBlock: EZIPEK_clean_linker_0, # of connection points: 2
#     Edge 32, Type (0, 1), BuildingBlock: EZIPEK_clean_linker_0, # of connection points: 2
#     Edge 33, Type (0, 1), BuildingBlock: EZIPEK_clean_linker_0, # of connection points: 2
#     Edge 34, Type (0, 1), BuildingBlock: EZIPEK_clean_linker_0, # of connection points: 2
#     Edge 35, Type (0, 1), BuildingBlock: EZIPEK_clean_linker_0, # of connection points: 2
#     Edge 36, Type (0, 1), BuildingBlock: EZIPEK_clean_linker_0, # of connection points: 2
#     Edge 37, Type (0, 1), BuildingBlock: EZIPEK_clean_linker_0, # of connection points: 2
#     Edge 38, Type (0, 1), BuildingBlock: EZIPEK_clean_linker_0, # of connection points: 2
#     Edge 39, Type (0, 1), BuildingBlock: EZIPEK_clean_linker_0, # of connection points: 2
#     Edge 40, Type (0, 1), BuildingBlock: EZIPEK_clean_linker_0, # of connection points: 2
#     Edge 41, Type (0, 1), BuildingBlock: EZIPEK_clean_linker_0, # of connection points: 2
#     Edge 42, Type (0, 1), BuildingBlock: EZIPEK_clean_linker_0, # of connection points: 2
#     Edge 43, Type (0, 1), BuildingBlock: EZIPEK_clean_linker_0, # of connection points: 2
#     Edge 44, Type (0, 1), BuildingBlock: EZIPEK_clean_linker_0, # of connection points: 2
#     Edge 45, Type (0, 1), BuildingBlock: EZIPEK_clean_linker_0, # of connection points: 2
#     Edge 46, Type (0, 1), BuildingBlock: EZIPEK_clean_linker_0, # of connection points: 2
#     Edge 47, Type (0, 1), BuildingBlock: EZIPEK_clean_linker_0, # of connection points: 2
#     Edge 48, Type (0, 1), BuildingBlock: EZIPEK_clean_linker_0, # of connection points: 2
#     Edge 49, Type (0, 1), BuildingBlock: EZIPEK_clean_linker_0, # of connection points: 2
#     Edge 50, Type (0, 1), BuildingBlock: EZIPEK_clean_linker_0, # of connection points: 2
#     Edge 51, Type (0, 1), BuildingBlock: EZIPEK_clean_linker_0, # of connection points: 2
#     Edge 52, Type (0, 1), BuildingBlock: EZIPEK_clean_linker_0, # of connection points: 2
#     Edge 53, Type (0, 1), BuildingBlock: EZIPEK_clean_linker_0, # of connection points: 2
#     Edge 54, Type (0, 1), BuildingBlock: EZIPEK_clean_linker_0, # of connection points: 2
#     Edge 55, Type (0, 1), BuildingBlock: EZIPEK_clean_linker_0, # of connection points: 2
#     Edge 56, Type (0, 1), BuildingBlock: EZIPEK_clean_linker_0, # of connection points: 2
#     Edge 57, Type (0, 1), BuildingBlock: EZIPEK_clean_linker_0, # of connection points: 2
#     Edge 58, Type (0, 1), BuildingBlock: EZIPEK_clean_linker_0, # of connection points: 2
#     Edge 59, Type (0, 1), BuildingBlock: EZIPEK_clean_linker_0, # of connection points: 2
#     Edge 60, Type (0, 1), BuildingBlock: EZIPEK_clean_linker_0, # of connection points: 2
#     Edge 61, Type (0, 1), BuildingBlock: EZIPEK_clean_linker_0, # of connection points: 2
#     Edge 62, Type (0, 1), BuildingBlock: EZIPEK_clean_linker_0, # of connection points: 2
#     Edge 63, Type (0, 1), BuildingBlock: EZIPEK_clean_linker_0, # of connection points: 2
#     Edge 64, Type (0, 1), BuildingBlock: EZIPEK_clean_linker_0, # of connection points: 2
#     Edge 65, Type (0, 1), BuildingBlock: EZIPEK_clean_linker_0, # of connection points: 2
#     Edge 66, Type (0, 1), BuildingBlock: EZIPEK_clean_linker_0, # of connection points: 2
#     Edge 67, Type (0, 1), BuildingBlock: EZIPEK_clean_linker_0, # of connection points: 2
#     Edge 68, Type (0, 1), BuildingBlock: EZIPEK_clean_linker_0, # of connection points: 2
#     Edge 69, Type (0, 1), BuildingBlock: EZIPEK_clean_linker_0, # of connection points: 2
#     Edge 70, Type (0, 1), BuildingBlock: EZIPEK_clean_linker_0, # of connection points: 2
#     Edge 71, Type (0, 1), BuildingBlock: EZIPEK_clean_linker_0, # of connection points: 2
#     Edge 72, Type (0, 1), BuildingBlock: EZIPEK_clean_linker_0, # of connection points: 2
#     Edge 73, Type (0, 1), BuildingBlock: EZIPEK_clean_linker_0, # of connection points: 2
#     Edge 74, Type (0, 1), BuildingBlock: EZIPEK_clean_linker_0, # of connection points: 2
#     Edge 75, Type (0, 1), BuildingBlock: EZIPEK_clean_linker_0, # of connection points: 2
#     Edge 76, Type (0, 1), BuildingBlock: EZIPEK_clean_linker_0, # of connection points: 2
#     Edge 77, Type (0, 1), BuildingBlock: EZIPEK_clean_linker_0, # of connection points: 2
#     Edge 78, Type (0, 1), BuildingBlock: EZIPEK_clean_linker_0, # of connection points: 2
#     Edge 79, Type (0, 1), BuildingBlock: EZIPEK_clean_linker_0, # of connection points: 2
#     Edge 80, Type (0, 1), BuildingBlock: EZIPEK_clean_linker_0, # of connection points: 2
# Relax obj value: 0.008
# Max RMSD: 0.089
# Mean RMSD: 0.072
data_MOF--net-eea--node1-KUMBUR_clean_sbu_0--node2-KAKCAD_clean_linker_0--edge1-EZIPEK_clean_linker_0
_symmetry_space_group_name_H-M    P1
_symmetry_Int_Tables_number       1
_symmetry_cell_setting            triclinic
loop_
_symmetry_equiv_pos_as_xyz
'x, y, z'
_cell_length_a     48.525647
_cell_length_b     49.668344
_cell_length_c     71.752767
_cell_angle_alpha  90.221783
_cell_angle_beta   90.214681
_cell_angle_gamma 119.90433
loop_
_atom_site_label
_atom_site_type_symbol
_atom_site_fract_x
_atom_site_fract_y
_atom_site_fract_z
_atom_type_partial_charge
C0 C 0.29227 0.16728 0.49729 0.0
C1 C 0.31236 0.15684 0.50417 0.0
C2 C 0.27998 0.15969 0.47921 0.0
C3 C 0.28806 0.14204 0.46735 0.0
C4 C 0.30775 0.13107 0.47446 0.0
C5 C 0.31946 0.13809 0.49276 0.0
C6 C 0.27632 0.13566 0.44764 0.0
C7 C 0.27198 0.15773 0.43774 0.0
C8 C 0.25963 0.15154 0.4196 0.0
C9 C 0.252 0.12338 0.41095 0.0
C10 C 0.25635 0.10105 0.42038 0.0
C11 C 0.26857 0.10735 0.43871 0.0
C12 C 0.24698 0.07076 0.41123 0.0
C13 C 0.21775 0.05448 0.40167 0.0
C14 C 0.26723 0.05812 0.41175 0.0
C15 C 0.25856 0.02993 0.40272 0.0
C16 C 0.22936 0.01382 0.39323 0.0
C17 C 0.25174 0.17322 0.41033 0.0
C18 C 0.22292 0.17191 0.41445 0.0
C19 C 0.27225 0.19459 0.39716 0.0
C20 C 0.26382 0.21442 0.38812 0.0
C21 C 0.23455 0.21253 0.39195 0.0
C22 C 0.21431 0.19133 0.40526 0.0
C23 C 0.20897 0.02618 0.39282 0.0
H24 H 0.28621 0.18149 0.50594 0.0
H25 H 0.2641 0.16776 0.47459 0.0
H26 H 0.31477 0.11766 0.46579 0.0
H27 H 0.33479 0.12966 0.49787 0.0
H28 H 0.278 0.17984 0.44409 0.0
H29 H 0.27083 0.08966 0.44621 0.0
H30 H 0.24228 0.11876 0.39691 0.0
H31 H 0.20149 0.06346 0.40121 0.0
H32 H 0.28996 0.07025 0.4189 0.0
H33 H 0.2745 0.02058 0.40322 0.0
H34 H 0.20688 0.15555 0.42459 0.0
H35 H 0.29462 0.19582 0.39387 0.0
H36 H 0.18626 0.0139 0.38565 0.0
H37 H 0.19172 0.18971 0.40845 0.0
H38 H 0.27974 0.23078 0.37794 0.0
C39 C 0.87708 0.17041 0.48848 0.0
C40 C 0.86747 0.14661 0.50166 0.0
C41 C 0.88407 0.1659 0.47023 0.0
C42 C 0.88117 0.13735 0.46482 0.0
C43 C 0.87261 0.11397 0.47823 0.0
C44 C 0.86605 0.11865 0.49653 0.0
C45 C 0.8847 0.13114 0.44496 0.0
C46 C 0.91077 0.15264 0.43446 0.0
C47 C 0.91326 0.14748 0.41531 0.0
C48 C 0.88876 0.12017 0.40695 0.0
C49 C 0.86318 0.09793 0.41743 0.0
C50 C 0.86128 0.10377 0.43639 0.0
C51 C 0.83836 0.06842 0.40872 0.0
C52 C 0.82664 0.06787 0.39076 0.0
C53 C 0.82679 0.04025 0.4182 0.0
C54 C 0.80252 0.01266 0.4105 0.0
C55 C 0.78746 0.01235 0.39348 0.0
C56 C 0.94169 0.16986 0.40421 0.0
C57 C 0.95988 0.20146 0.40939 0.0
C58 C 0.95159 0.15964 0.38854 0.0
C59 C 0.9787 0.18008 0.37861 0.0
C60 C 0.99774 0.21089 0.38463 0.0
C61 C 0.98786 0.22153 0.39995 0.0
C62 C 0.8024 0.04018 0.38305 0.0
H63 H 0.87832 0.19215 0.49221 0.0
H64 H 0.89042 0.18422 0.46015 0.0
H65 H 0.87047 0.09186 0.47447 0.0
H66 H 0.85881 0.10009 0.50655 0.0
H67 H 0.92936 0.17291 0.44151 0.0
H68 H 0.84097 0.08731 0.44441 0.0
H69 H 0.88956 0.1158 0.39226 0.0
H70 H 0.83598 0.08891 0.38261 0.0
H71 H 0.83689 0.03941 0.43154 0.0
H72 H 0.79635 0.99167 0.41804 0.0
H73 H 0.95291 0.21088 0.42088 0.0
H74 H 0.93927 0.13558 0.38415 0.0
H75 H 0.79621 0.04119 0.36874 0.0
H76 H 1.00213 0.24528 0.40483 0.0
H77 H 0.98591 0.17134 0.36684 0.0
C78 C 0.89552 0.73437 0.49112 0.0
C79 C 0.86474 0.71639 0.49826 0.0
C80 C 0.9003 0.74733 0.47332 0.0
C81 C 0.87435 0.74175 0.46175 0.0
C82 C 0.84346 0.72387 0.46909 0.0
C83 C 0.83879 0.7119 0.48721 0.0
C84 C 0.87963 0.75411 0.44213 0.0
C85 C 0.90675 0.75912 0.43213 0.0
C86 C 0.91275 0.77141 0.41401 0.0
C87 C 0.89028 0.7774 0.40537 0.0
C88 C 0.86251 0.77197 0.41475 0.0
C89 C 0.85776 0.76082 0.43321 0.0
C90 C 0.83853 0.77802 0.40529 0.0
C91 C 0.82301 0.79118 0.41515 0.0
C92 C 0.8307 0.77042 0.38632 0.0
C93 C 0.80794 0.77568 0.37752 0.0
C94 C 0.79242 0.78856 0.3875 0.0
C95 C 0.94285 0.77833 0.40436 0.0
C96 C 0.97184 0.7918 0.41429 0.0
C97 C 0.94295 0.77133 0.38532 0.0
C98 C 0.97122 0.77718 0.37657 0.0
C99 C 0.99991 0.79023 0.38666 0.0
C100 C 1.00002 0.7977 0.40554 0.0
C101 C 0.80025 0.79638 0.40635 0.0
H102 H 0.91599 0.73847 0.4994 0.0
H103 H 0.92455 0.76178 0.46876 0.0
H104 H 0.82264 0.71839 0.46079 0.0
H105 H 0.81479 0.69826 0.49241 0.0
H106 H 0.92321 0.7529 0.43824 0.0
H107 H 0.8368 0.75728 0.44056 0.0
H108 H 0.89488 0.78716 0.3915 0.0
H109 H 0.82869 0.79782 0.42966 0.0
H110 H 0.84181 0.75994 0.3783 0.0
H111 H 0.80229 0.76954 0.36295 0.0
H112 H 0.97281 0.79798 0.42887 0.0
H113 H 0.92109 0.76076 0.37727 0.0
H114 H 0.78869 0.80652 0.41428 0.0
H115 H 0.02195 0.80792 0.41354 0.0
H116 H 0.9707 0.77129 0.36197 0.0
C117 C 0.16988 0.29798 0.53998 0.0
C118 C 0.14551 0.28629 0.52654 0.0
C119 C 0.16406 0.28592 0.55805 0.0
C120 C 0.13367 0.26187 0.56313 0.0
C121 C 0.10929 0.25018 0.54957 0.0
C122 C 0.11519 0.2622 0.53144 0.0
C123 C 0.12764 0.24917 0.58249 0.0
C124 C 0.15031 0.24413 0.59168 0.0
C125 C 0.14546 0.23286 0.61003 0.0
C126 C 0.11753 0.227 0.61933 0.0
C127 C 0.09408 0.23135 0.61041 0.0
C128 C 0.09945 0.24229 0.59189 0.0
C129 C 0.06409 0.22446 0.62041 0.0
C130 C 0.05034 0.20053 0.63374 0.0
C131 C 0.04885 0.24177 0.61676 0.0
C132 C 0.0206 0.23498 0.62579 0.0
C133 C 0.00705 0.2111 0.63898 0.0
C134 C 0.1693 0.22655 0.6193 0.0
C135 C 0.18337 0.2121 0.60933 0.0
C136 C 0.17785 0.23443 0.63816 0.0
C137 C 0.1998 0.22788 0.64682 0.0
C138 C 0.21351 0.21327 0.63679 0.0
C139 C 0.20518 0.20549 0.618 0.0
C140 C 0.02246 0.19426 0.6431 0.0
H141 H 0.19342 0.31661 0.53649 0.0
H142 H 0.18331 0.29579 0.56814 0.0
H143 H 0.08572 0.23146 0.55289 0.0
H144 H 0.09608 0.2528 0.52125 0.0
H145 H 0.17188 0.24894 0.58449 0.0
H146 H 0.08173 0.24563 0.5847 0.0
H147 H 0.11406 0.21881 0.63355 0.0
H148 H 0.06075 0.18619 0.63681 0.0
H149 H 0.05883 0.26088 0.60704 0.0
H150 H 0.00932 0.24853 0.62255 0.0
H151 H 0.17707 0.2053 0.59489 0.0
H152 H 0.16774 0.24585 0.6462 0.0
H153 H 0.0125 0.17583 0.6533 0.0
H154 H 0.21542 0.19405 0.61007 0.0
H155 H 0.20593 0.23399 0.66135 0.0
C156 C 0.68694 0.83265 0.53662 0.0
C157 C 0.70068 0.85582 0.52305 0.0
C158 C 0.69973 0.83805 0.55462 0.0
C159 C 0.72635 0.8668 0.55937 0.0
C160 C 0.74016 0.8899 0.54567 0.0
C161 C 0.72751 0.88439 0.52762 0.0
C162 C 0.73964 0.87264 0.57856 0.0
C163 C 0.74373 0.84998 0.58777 0.0
C164 C 0.75605 0.85525 0.60594 0.0
C165 C 0.76484 0.88354 0.61485 0.0
C166 C 0.76112 0.90669 0.6059 0.0
C167 C 0.74825 0.90086 0.58774 0.0
C168 C 0.77099 0.93687 0.61552 0.0
C169 C 0.76804 0.93798 0.63498 0.0
C170 C 0.78398 0.96487 0.60547 0.0
C171 C 0.79366 0.99312 0.61467 0.0
C172 C 0.79121 0.99398 0.6341 0.0
C173 C 0.76143 0.83192 0.61537 0.0
C174 C 0.78146 0.82245 0.60726 0.0
C175 C 0.74799 0.82028 0.63289 0.0
C176 C 0.75478 0.79958 0.64226 0.0
C177 C 0.77585 0.7911 0.63444 0.0
C178 C 0.78887 0.80247 0.6168 0.0
C179 C 0.77841 0.96624 0.64417 0.0
H180 H 0.6662 0.81048 0.53329 0.0
H181 H 0.68845 0.81991 0.56491 0.0
H182 H 0.76091 0.91213 0.54888 0.0
H183 H 0.73843 0.90246 0.51725 0.0
H184 H 0.73758 0.82828 0.58078 0.0
H185 H 0.74424 0.91796 0.58082 0.0
H186 H 0.77563 0.88777 0.62859 0.0
H187 H 0.75746 0.91699 0.6432 0.0
H188 H 0.78714 0.96512 0.59053 0.0
H189 H 0.80338 0.01434 0.60667 0.0
H190 H 0.7922 0.83133 0.59382 0.0
H191 H 0.73242 0.82734 0.63934 0.0
H192 H 0.77603 0.96645 0.65917 0.0
H193 H 0.80518 0.79618 0.61053 0.0
H194 H 0.74441 0.7909 0.6558 0.0
C195 C 0.11958 0.84313 0.53414 0.0
C196 C 0.15018 0.84966 0.52908 0.0
C197 C 0.11334 0.84789 0.55251 0.0
C198 C 0.13766 0.85934 0.5661 0.0
C199 C 0.1682 0.86552 0.56092 0.0
C200 C 0.17438 0.86075 0.54258 0.0
C201 C 0.13153 0.86587 0.58544 0.0
C202 C 0.103 0.84545 0.59451 0.0
C203 C 0.09655 0.85225 0.6125 0.0
C204 C 0.11904 0.87997 0.62131 0.0
C205 C 0.14778 0.90035 0.61256 0.0
C206 C 0.15396 0.89311 0.59472 0.0
C207 C 0.17057 0.93013 0.62161 0.0
C208 C 0.16043 0.95086 0.62721 0.0
C209 C 0.20254 0.93834 0.62433 0.0
C210 C 0.22403 0.9669 0.63259 0.0
C211 C 0.21398 0.98796 0.63767 0.0
C212 C 0.06621 0.83076 0.62201 0.0
C213 C 0.03736 0.816 0.61197 0.0
C214 C 0.06578 0.82521 0.64128 0.0
C215 C 0.03719 0.80562 0.65031 0.0
C216 C 0.00858 0.79114 0.6402 0.0
C217 C 0.00882 0.79636 0.621 0.0
C218 C 0.18199 0.9796 0.63503 0.0
H219 H 0.10067 0.83463 0.52383 0.0
H220 H 0.08968 0.84327 0.55598 0.0
H221 H 0.18734 0.87399 0.57107 0.0
H222 H 0.19811 0.86581 0.53887 0.0
H223 H 0.08603 0.82398 0.58766 0.0
H224 H 0.17573 0.90945 0.58778 0.0
H225 H 0.11411 0.88599 0.63495 0.0
H226 H 0.13595 0.9451 0.62516 0.0
H227 H 0.21079 0.92259 0.62016 0.0
H228 H 0.24856 0.97287 0.63465 0.0
H229 H 0.03672 0.82004 0.5972 0.0
H230 H 0.08759 0.83582 0.64938 0.0
H231 H 0.17376 0.99549 0.63892 0.0
H232 H 0.98686 0.78534 0.61303 0.0
H233 H 0.03734 0.80169 0.66514 0.0
C234 C 0.94115 0.49053 0.82884 0.0
C235 C 0.96659 0.48583 0.83331 0.0
C236 C 0.92779 0.48349 0.81095 0.0
C237 C 0.93955 0.47145 0.79732 0.0
C238 C 0.96502 0.46674 0.80193 0.0
C239 C 0.97844 0.47391 0.81977 0.0
C240 C 0.92533 0.46375 0.77834 0.0
C241 C 0.91765 0.48401 0.76902 0.0
C242 C 0.90474 0.47707 0.75092 0.0
C243 C 0.8991 0.44938 0.74226 0.0
C244 C 0.90645 0.42881 0.75139 0.0
C245 C 0.91968 0.4362 0.76939 0.0
C246 C 0.90007 0.39954 0.74208 0.0
C247 C 0.87107 0.38102 0.73269 0.0
C248 C 0.92292 0.39 0.74241 0.0
C249 C 0.91685 0.36248 0.73352 0.0
C250 C 0.8878 0.34406 0.72429 0.0
C251 C 0.89761 0.49887 0.74082 0.0
C252 C 0.88181 0.51252 0.74977 0.0
C253 C 0.90638 0.50595 0.72205 0.0
C254 C 0.89948 0.52624 0.7124 0.0
C255 C 0.8836 0.53963 0.72135 0.0
C256 C 0.87476 0.53271 0.74006 0.0
C257 C 0.86495 0.35344 0.72391 0.0
H258 H 0.9317 0.49963 0.8392 0.0
H259 H 0.90799 0.48708 0.80786 0.0
H260 H 0.97485 0.45786 0.79168 0.0
H261 H 0.99812 0.47021 0.82303 0.0
H262 H 0.92266 0.50567 0.77561 0.0
H263 H 0.92484 0.42009 0.77663 0.0
H264 H 0.88902 0.44386 0.72833 0.0
H265 H 0.8529 0.38762 0.73238 0.0
H266 H 0.94557 0.40397 0.7494 0.0
H267 H 0.93463 0.35537 0.73397 0.0
H268 H 0.87459 0.5073 0.76418 0.0
H269 H 0.91895 0.49611 0.71488 0.0
H270 H 0.84232 0.33926 0.71694 0.0
H271 H 0.86262 0.54309 0.74714 0.0
H272 H 0.90666 0.53165 0.69799 0.0
C273 C 0.54691 0.50261 0.82346 0.0
C274 C 0.53545 0.47842 0.83647 0.0
C275 C 0.55473 0.49804 0.80543 0.0
C276 C 0.55082 0.46907 0.80008 0.0
C277 C 0.5401 0.44516 0.8133 0.0
C278 C 0.5327 0.44987 0.83139 0.0
C279 C 0.55672 0.46336 0.78057 0.0
C280 C 0.58453 0.48472 0.77134 0.0
C281 C 0.59018 0.47918 0.75289 0.0
C282 C 0.56726 0.45213 0.7436 0.0
C283 C 0.53917 0.4306 0.75259 0.0
C284 C 0.53423 0.43644 0.77111 0.0
C285 C 0.51467 0.40208 0.74279 0.0
C286 C 0.50626 0.40285 0.72415 0.0
C287 C 0.49939 0.37363 0.75211 0.0
C288 C 0.47462 0.34733 0.74357 0.0
C289 C 0.4627 0.34872 0.72574 0.0
C290 C 0.62034 0.50122 0.74348 0.0
C291 C 0.63305 0.53356 0.74514 0.0
C292 C 0.63679 0.48997 0.73285 0.0
C293 C 0.66513 0.51051 0.72398 0.0
C294 C 0.67754 0.54266 0.72554 0.0
C295 C 0.66141 0.55412 0.73618 0.0
C296 C 0.48137 0.37639 0.71561 0.0
H297 H 0.54916 0.52479 0.82717 0.0
H298 H 0.56282 0.51681 0.7955 0.0
H299 H 0.53723 0.42273 0.8096 0.0
H300 H 0.524 0.431 0.84129 0.0
H301 H 0.60223 0.50519 0.77874 0.0
H302 H 0.51236 0.42037 0.77807 0.0
H303 H 0.57139 0.44776 0.72936 0.0
H304 H 0.51858 0.42404 0.71617 0.0
H305 H 0.50676 0.37158 0.76606 0.0
H306 H 0.46528 0.3259 0.75122 0.0
H307 H 0.62084 0.54293 0.75313 0.0
H308 H 0.62795 0.46526 0.73155 0.0
H309 H 0.47771 0.37823 0.70097 0.0
H310 H 0.67073 0.57892 0.73749 0.0
H311 H 0.67741 0.50132 0.71586 0.0
C312 C 0.55852 0.07987 0.82942 0.0
C313 C 0.52828 0.05571 0.83434 0.0
C314 C 0.5645 0.09125 0.81117 0.0
C315 C 0.54027 0.07884 0.79752 0.0
C316 C 0.50996 0.05472 0.80259 0.0
C317 C 0.50406 0.04326 0.8208 0.0
C318 C 0.54651 0.09131 0.77816 0.0
C319 C 0.57485 0.09807 0.76906 0.0
C320 C 0.58156 0.11071 0.75097 0.0
C321 C 0.55891 0.11625 0.742 0.0
C322 C 0.52998 0.10891 0.75064 0.0
C323 C 0.52414 0.09651 0.76874 0.0
C324 C 0.50584 0.1143 0.74087 0.0
C325 C 0.4883 0.12519 0.7508 0.0
C326 C 0.49979 0.10828 0.72163 0.0
C327 C 0.47681 0.11294 0.71261 0.0
C328 C 0.45926 0.12351 0.72268 0.0
C329 C 0.61197 0.11775 0.74147 0.0
C330 C 0.63998 0.12651 0.75186 0.0
C331 C 0.61323 0.11523 0.72193 0.0
C332 C 0.64142 0.12112 0.71315 0.0
C333 C 0.66882 0.12882 0.72368 0.0
C334 C 0.66789 0.13156 0.7431 0.0
C335 C 0.46527 0.12966 0.74182 0.0
H336 H 0.57748 0.08985 0.8397 0.0
H337 H 0.58799 0.11008 0.80781 0.0
H338 H 0.49086 0.0444 0.79242 0.0
H339 H 0.48058 0.02456 0.82434 0.0
H340 H 0.59129 0.09263 0.77602 0.0
H341 H 0.50208 0.09091 0.7756 0.0
H342 H 0.56404 0.12698 0.7284 0.0
H343 H 0.49262 0.13068 0.76552 0.0
H344 H 0.51253 0.09956 0.71355 0.0
H345 H 0.47268 0.10828 0.6978 0.0
H346 H 0.64055 0.12959 0.76682 0.0
H347 H 0.59229 0.10803 0.71335 0.0
H348 H 0.45224 0.13819 0.74979 0.0
H349 H 0.68886 0.13771 0.75147 0.0
H350 H 0.64164 0.1188 0.69813 0.0
C351 C 0.80991 0.58207 0.86324 0.0
C352 C 0.80682 0.60768 0.85806 0.0
C353 C 0.80346 0.57087 0.88152 0.0
C354 C 0.79338 0.58479 0.89498 0.0
C355 C 0.78956 0.60997 0.88959 0.0
C356 C 0.79634 0.62137 0.87135 0.0
C357 C 0.78746 0.57336 0.91461 0.0
C358 C 0.80886 0.56636 0.92369 0.0
C359 C 0.80371 0.55535 0.94216 0.0
C360 C 0.77651 0.55157 0.95152 0.0
C361 C 0.75496 0.55886 0.94284 0.0
C362 C 0.76069 0.56971 0.92436 0.0
C363 C 0.72641 0.55496 0.95309 0.0
C364 C 0.69666 0.54246 0.94407 0.0
C365 C 0.72861 0.56356 0.97202 0.0
C366 C 0.70181 0.55971 0.98165 0.0
C367 C 0.67225 0.54715 0.97258 0.0
C368 C 0.82698 0.54832 0.95169 0.0
C369 C 0.84356 0.53655 0.94155 0.0
C370 C 0.83354 0.55408 0.97093 0.0
C371 C 0.85644 0.54893 0.9796 0.0
C372 C 0.87374 0.53841 0.96922 0.0
C373 C 0.86679 0.5319 0.95017 0.0
C374 C 0.66988 0.53853 0.95374 0.0
H375 H 0.81787 0.57111 0.8532 0.0
H376 H 0.80628 0.55122 0.88513 0.0
H377 H 0.78209 0.62138 0.89961 0.0
H378 H 0.79385 0.64117 0.86765 0.0
H379 H 0.83013 0.57041 0.91646 0.0
H380 H 0.74428 0.57534 0.91751 0.0
H381 H 0.77163 0.54223 0.9655 0.0
H382 H 0.69394 0.53521 0.92961 0.0
H383 H 0.75116 0.57358 0.97936 0.0
H384 H 0.70408 0.56646 0.9962 0.0
H385 H 0.83881 0.53108 0.92685 0.0
H386 H 0.82176 0.56353 0.97924 0.0
H387 H 0.64722 0.52866 0.94652 0.0
H388 H 0.87984 0.52379 0.94186 0.0
H389 H 0.86154 0.55427 0.9943 0.0
C390 C 0.36074 0.16294 0.87353 0.0
C391 C 0.37491 0.18687 0.86041 0.0
C392 C 0.37255 0.16756 0.89177 0.0
C393 C 0.3985 0.19631 0.89721 0.0
C394 C 0.41297 0.22001 0.8839 0.0
C395 C 0.40138 0.21527 0.86564 0.0
C396 C 0.41035 0.20199 0.91673 0.0
C397 C 0.41559 0.18022 0.92614 0.0
C398 C 0.42817 0.18634 0.94432 0.0
C399 C 0.4361 0.21484 0.95286 0.0
C400 C 0.43004 0.23664 0.94397 0.0
C401 C 0.41675 0.22958 0.9259 0.0
C402 C 0.43771 0.2666 0.95349 0.0
C403 C 0.43899 0.26918 0.97312 0.0
C404 C 0.44393 0.29309 0.94308 0.0
C405 C 0.45041 0.32074 0.95196 0.0
C406 C 0.45243 0.32327 0.97146 0.0
C407 C 0.43347 0.16327 0.95448 0.0
C408 C 0.44688 0.14737 0.94545 0.0
C409 C 0.42585 0.1576 0.9735 0.0
C410 C 0.4322 0.1371 0.98339 0.0
C411 C 0.44619 0.12186 0.97441 0.0
C412 C 0.45324 0.12687 0.95536 0.0
C413 C 0.44705 0.29732 0.98194 0.0
H414 H 0.34026 0.14088 0.86969 0.0
H415 H 0.3609 0.14895 0.90175 0.0
H416 H 0.43328 0.24225 0.88765 0.0
H417 H 0.41264 0.23393 0.85566 0.0
H418 H 0.41001 0.15859 0.91928 0.0
H419 H 0.41074 0.24519 0.91884 0.0
H420 H 0.44769 0.22008 0.96635 0.0
H421 H 0.43351 0.24949 0.98188 0.0
H422 H 0.44427 0.29292 0.92802 0.0
H423 H 0.45455 0.34047 0.94356 0.0
H424 H 0.45327 0.1514 0.93087 0.0
H425 H 0.41506 0.16914 0.98078 0.0
H426 H 0.44847 0.29868 0.99701 0.0
H427 H 0.46418 0.11531 0.94827 0.0
H428 H 0.42663 0.13345 0.99809 0.0
C429 C 0.77756 0.17909 0.86657 0.0
C430 C 0.8083 0.18598 0.86152 0.0
C431 C 0.7713 0.18438 0.88485 0.0
C432 C 0.79574 0.19681 0.89837 0.0
C433 C 0.82646 0.2035 0.89318 0.0
C434 C 0.83265 0.19816 0.87495 0.0
C435 C 0.78955 0.20315 0.91777 0.0
C436 C 0.76176 0.1819 0.92717 0.0
C437 C 0.75628 0.18752 0.9457 0.0
C438 C 0.77916 0.21488 0.95471 0.0
C439 C 0.80653 0.23676 0.94538 0.0
C440 C 0.8116 0.23065 0.92696 0.0
C441 C 0.82916 0.26663 0.95459 0.0
C442 C 0.8401 0.29468 0.94496 0.0
C443 C 0.8394 0.2675 0.97309 0.0
C444 C 0.86033 0.2959 0.98172 0.0
C445 C 0.87091 0.3238 0.97203 0.0
C446 C 0.72658 0.16521 0.95559 0.0
C447 C 0.71254 0.13298 0.95252 0.0
C448 C 0.71192 0.17596 0.96821 0.0
C449 C 0.68415 0.15512 0.97751 0.0
C450 C 0.66996 0.12316 0.974 0.0
C451 C 0.68442 0.11222 0.96155 0.0
C452 C 0.8607 0.32295 0.95361 0.0
H453 H 0.75851 0.16975 0.85634 0.0
H454 H 0.74748 0.17927 0.88832 0.0
H455 H 0.84572 0.21265 0.90327 0.0
H456 H 0.8565 0.20353 0.87129 0.0
H457 H 0.74441 0.16099 0.92001 0.0
H458 H 0.83275 0.24751 0.91973 0.0
H459 H 0.77553 0.21952 0.96899 0.0
H460 H 0.83233 0.2948 0.9308 0.0
H461 H 0.83151 0.2462 0.9808 0.0
H462 H 0.86824 0.29616 0.99589 0.0
H463 H 0.72334 0.12368 0.94326 0.0
H464 H 0.72155 0.20056 0.97071 0.0
H465 H 0.86877 0.34429 0.94591 0.0
H466 H 0.67389 0.08755 0.95882 0.0
H467 H 0.67328 0.16392 0.9871 0.0
C468 C 0.63155 0.83393 0.15798 0.0
C469 C 0.65499 0.8271 0.1638 0.0
C470 C 0.62074 0.82841 0.13953 0.0
C471 C 0.63304 0.81576 0.12662 0.0
C472 C 0.6565 0.8089 0.13256 0.0
C473 C 0.66743 0.81461 0.15099 0.0
C474 C 0.62077 0.80903 0.10717 0.0
C475 C 0.61516 0.83037 0.09744 0.0
C476 C 0.60111 0.82325 0.07959 0.0
C477 C 0.59294 0.79435 0.07151 0.0
C478 C 0.59931 0.77322 0.08079 0.0
C479 C 0.61337 0.78072 0.09855 0.0
C480 C 0.58949 0.74255 0.07228 0.0
C481 C 0.55781 0.72335 0.0666 0.0
C482 C 0.61151 0.73231 0.06972 0.0
C483 C 0.60196 0.70333 0.06147 0.0
C484 C 0.57007 0.68392 0.05619 0.0
C485 C 0.59367 0.84524 0.06968 0.0
C486 C 0.58379 0.86337 0.07968 0.0
C487 C 0.59497 0.84727 0.05008 0.0
C488 C 0.58517 0.8657 0.04071 0.0
C489 C 0.57464 0.88307 0.05076 0.0
C490 C 0.57467 0.8823 0.07031 0.0
C491 C 0.54815 0.69421 0.05876 0.0
H492 H 0.62162 0.84345 0.16775 0.0
H493 H 0.60231 0.8335 0.13544 0.0
H494 H 0.66656 0.79935 0.12292 0.0
H495 H 0.68555 0.80922 0.15529 0.0
H496 H 0.62197 0.85265 0.10382 0.0
H497 H 0.61715 0.76386 0.10599 0.0
H498 H 0.58113 0.78788 0.05806 0.0
H499 H 0.54041 0.73071 0.06851 0.0
H500 H 0.63611 0.74688 0.07392 0.0
H501 H 0.6192 0.6958 0.05951 0.0
H502 H 0.58192 0.86216 0.09471 0.0
H503 H 0.60313 0.83427 0.0419 0.0
H504 H 0.52346 0.67956 0.05475 0.0
H505 H 0.56639 0.89542 0.07829 0.0
H506 H 0.58521 0.86597 0.02562 0.0
C507 C 0.20567 0.83601 0.15616 0.0
C508 C 0.19733 0.81326 0.16989 0.0
C509 C 0.21372 0.83116 0.13828 0.0
C510 C 0.21322 0.80333 0.13386 0.0
C511 C 0.20559 0.78093 0.1478 0.0
C512 C 0.19787 0.78593 0.16572 0.0
C513 C 0.21965 0.79712 0.11463 0.0
C514 C 0.24589 0.81968 0.10477 0.0
C515 C 0.25236 0.81344 0.08668 0.0
C516 C 0.23211 0.78424 0.07856 0.0
C517 C 0.20519 0.76164 0.08804 0.0
C518 C 0.19923 0.76842 0.1061 0.0
C519 C 0.18316 0.73118 0.07903 0.0
C520 C 0.17728 0.72928 0.0597 0.0
C521 C 0.16745 0.70381 0.08965 0.0
C522 C 0.14616 0.67547 0.0812 0.0
C523 C 0.14079 0.67381 0.06191 0.0
C524 C 0.28065 0.83702 0.07639 0.0
C525 C 0.30986 0.85501 0.0857 0.0
C526 C 0.27895 0.84105 0.05707 0.0
C527 C 0.30602 0.86194 0.04723 0.0
C528 C 0.33513 0.87922 0.05657 0.0
C529 C 0.33683 0.87596 0.07587 0.0
C530 C 0.15657 0.70086 0.05123 0.0
H531 H 0.20535 0.85724 0.1592 0.0
H532 H 0.21938 0.84873 0.12776 0.0
H533 H 0.20542 0.75945 0.14481 0.0
H534 H 0.19162 0.76822 0.17621 0.0
H535 H 0.26136 0.84202 0.11125 0.0
H536 H 0.17821 0.75168 0.11347 0.0
H537 H 0.2378 0.77888 0.06496 0.0
H538 H 0.18825 0.74982 0.05109 0.0
H539 H 0.17172 0.70413 0.10449 0.0
H540 H 0.13412 0.65478 0.08964 0.0
H541 H 0.31216 0.85224 0.10049 0.0
H542 H 0.25672 0.82792 0.04954 0.0
H543 H 0.15247 0.69999 0.03633 0.0
H544 H 0.35927 0.88905 0.08322 0.0
H545 H 0.30444 0.86424 0.03231 0.0
C546 C 0.22379 0.39951 0.15757 0.0
C547 C 0.19317 0.38629 0.16514 0.0
C548 C 0.22999 0.41234 0.13967 0.0
C549 C 0.20538 0.41099 0.12838 0.0
C550 C 0.17465 0.39756 0.13619 0.0
C551 C 0.16891 0.38627 0.15443 0.0
C552 C 0.21143 0.42286 0.10859 0.0
C553 C 0.23776 0.42597 0.09847 0.0
C554 C 0.24366 0.43723 0.08007 0.0
C555 C 0.22138 0.44316 0.07114 0.0
C556 C 0.19443 0.4396 0.08064 0.0
C557 C 0.19062 0.43081 0.09952 0.0
C558 C 0.16996 0.44473 0.07096 0.0
C559 C 0.17841 0.46729 0.05693 0.0
C560 C 0.13758 0.42679 0.07572 0.0
C561 C 0.11464 0.43192 0.06723 0.0
C562 C 0.12326 0.45465 0.05347 0.0
C563 C 0.27364 0.44363 0.07048 0.0
C564 C 0.30258 0.45712 0.08046 0.0
C565 C 0.27397 0.43721 0.05134 0.0
C566 C 0.30249 0.44418 0.04247 0.0
C567 C 0.33116 0.45762 0.05258 0.0
C568 C 0.33095 0.46398 0.07162 0.0
C569 C 0.15525 0.47192 0.04813 0.0
H570 H 0.24302 0.39998 0.16555 0.0
H571 H 0.25426 0.42324 0.13488 0.0
H572 H 0.15448 0.39487 0.12824 0.0
H573 H 0.14506 0.37626 0.15993 0.0
H574 H 0.25375 0.41924 0.10464 0.0
H575 H 0.17143 0.43067 0.10717 0.0
H576 H 0.22519 0.45073 0.05679 0.0
H577 H 0.20299 0.48187 0.05296 0.0
H578 H 0.12977 0.40858 0.08601 0.0
H579 H 0.09004 0.41814 0.07145 0.0
H580 H 0.30346 0.46295 0.0951 0.0
H581 H 0.25217 0.42656 0.04324 0.0
H582 H 0.16238 0.48958 0.03751 0.0
H583 H 0.35287 0.47448 0.07963 0.0
H584 H 0.30224 0.43909 0.02776 0.0
C585 C 0.49986 0.96053 0.20308 0.0
C586 C 0.4743 0.95185 0.1907 0.0
C587 C 0.49471 0.94825 0.22112 0.0
C588 C 0.46382 0.92685 0.22722 0.0
C589 C 0.43827 0.91806 0.21465 0.0
C590 C 0.44346 0.93043 0.1966 0.0
C591 C 0.45835 0.91417 0.24666 0.0
C592 C 0.48019 0.90714 0.25525 0.0
C593 C 0.47605 0.89632 0.27377 0.0
C594 C 0.44904 0.8921 0.28358 0.0
C595 C 0.42643 0.89822 0.2752 0.0
C596 C 0.43148 0.90943 0.2568 0.0
C597 C 0.39747 0.89282 0.28566 0.0
C598 C 0.36757 0.87925 0.27672 0.0
C599 C 0.39933 0.90085 0.30468 0.0
C600 C 0.37208 0.89551 0.31444 0.0
C601 C 0.3424 0.882 0.30542 0.0
C602 C 0.49997 0.88959 0.28287 0.0
C603 C 0.53253 0.90722 0.27847 0.0
C604 C 0.49065 0.8657 0.29614 0.0
C605 C 0.51314 0.85985 0.30477 0.0
C606 C 0.54541 0.87719 0.30002 0.0
C607 C 0.55485 0.90094 0.28683 0.0
C608 C 0.34036 0.87386 0.28651 0.0
H609 H 0.52383 0.97711 0.19883 0.0
H610 H 0.51496 0.95601 0.2304 0.0
H611 H 0.41422 0.90138 0.21867 0.0
H612 H 0.42341 0.92335 0.18725 0.0
H613 H 0.50016 0.9095 0.24728 0.0
H614 H 0.41483 0.91531 0.25055 0.0
H615 H 0.44546 0.88396 0.29781 0.0
H616 H 0.3651 0.87238 0.2622 0.0
H617 H 0.42193 0.91164 0.31198 0.0
H618 H 0.37413 0.90197 0.32903 0.0
H619 H 0.54102 0.92628 0.26874 0.0
H620 H 0.4659 0.85118 0.29978 0.0
H621 H 0.31765 0.86332 0.27931 0.0
H622 H 0.57968 0.9149 0.28313 0.0
H623 H 0.50534 0.84154 0.315 0.0
C624 C 0.02788 0.4978 0.20528 0.0
C625 C 0.041 0.52162 0.19202 0.0
C626 C 0.04059 0.50284 0.22334 0.0
C627 C 0.06635 0.53192 0.22847 0.0
C628 C 0.07965 0.55557 0.21507 0.0
C629 C 0.06723 0.55039 0.19698 0.0
C630 C 0.07955 0.53787 0.24771 0.0
C631 C 0.08671 0.51685 0.25642 0.0
C632 C 0.10117 0.52343 0.27414 0.0
C633 C 0.10869 0.55169 0.28298 0.0
C634 C 0.10054 0.57267 0.27486 0.0
C635 C 0.0856 0.56507 0.2572 0.0
C636 C 0.10773 0.6024 0.28465 0.0
C637 C 0.11138 0.60546 0.30422 0.0
C638 C 0.11103 0.62819 0.27455 0.0
C639 C 0.11697 0.65552 0.28366 0.0
C640 C 0.12148 0.65863 0.30304 0.0
C641 C 0.10842 0.50081 0.28344 0.0
C642 C 0.11923 0.48376 0.27308 0.0
C643 C 0.10419 0.49581 0.30279 0.0
C644 C 0.11069 0.47445 0.31153 0.0
C645 C 0.12128 0.45749 0.3011 0.0
C646 C 0.12549 0.46223 0.28183 0.0
C647 C 0.11892 0.6334 0.3132 0.0
H648 H 0.00761 0.47545 0.20169 0.0
H649 H 0.02986 0.48424 0.23339 0.0
H650 H 0.09978 0.57806 0.21858 0.0
H651 H 0.07773 0.56898 0.1869 0.0
H652 H 0.08114 0.49544 0.2493 0.0
H653 H 0.07803 0.57993 0.2507 0.0
H654 H 0.12157 0.55743 0.29605 0.0
H655 H 0.10823 0.58632 0.31283 0.0
H656 H 0.10955 0.62782 0.25951 0.0
H657 H 0.11892 0.67467 0.27546 0.0
H658 H 0.12323 0.48728 0.25823 0.0
H659 H 0.09543 0.50809 0.31117 0.0
H660 H 0.12231 0.63519 0.32819 0.0
H661 H 0.13383 0.44941 0.27361 0.0
H662 H 0.10729 0.47099 0.32643 0.0
C663 C 0.44824 0.50425 0.20103 0.0
C664 C 0.47931 0.51214 0.19608 0.0
C665 C 0.44169 0.50996 0.21915 0.0
C666 C 0.46617 0.5239 0.23256 0.0
C667 C 0.49725 0.53171 0.22748 0.0
C668 C 0.50373 0.52585 0.20943 0.0
C669 C 0.45947 0.53077 0.2517 0.0
C670 C 0.43236 0.50894 0.26134 0.0
C671 C 0.42566 0.51543 0.27936 0.0
C672 C 0.44671 0.54425 0.28771 0.0
C673 C 0.47403 0.56636 0.27833 0.0
C674 C 0.48019 0.55933 0.26035 0.0
C675 C 0.49592 0.59703 0.28711 0.0
C676 C 0.50874 0.62432 0.27646 0.0
C677 C 0.50442 0.59933 0.30609 0.0
C678 C 0.52558 0.62821 0.31413 0.0
C679 C 0.53849 0.65521 0.30332 0.0
C680 C 0.39649 0.49229 0.28932 0.0
C681 C 0.36781 0.4743 0.27948 0.0
C682 C 0.39696 0.488 0.30871 0.0
C683 C 0.36949 0.46627 0.31798 0.0
C684 C 0.34116 0.4482 0.30799 0.0
C685 C 0.34051 0.45245 0.28871 0.0
C686 C 0.52982 0.65308 0.28448 0.0
H687 H 0.42913 0.49374 0.19087 0.0
H688 H 0.41758 0.50397 0.22256 0.0
H689 H 0.51656 0.54213 0.23752 0.0
H690 H 0.52784 0.53204 0.20583 0.0
H691 H 0.41681 0.48657 0.25492 0.0
H692 H 0.50115 0.57625 0.253 0.0
H693 H 0.44133 0.54993 0.30131 0.0
H694 H 0.50232 0.62351 0.26191 0.0
H695 H 0.49518 0.57874 0.31464 0.0
H696 H 0.5321 0.62949 0.32869 0.0
H697 H 0.3663 0.4773 0.26464 0.0
H698 H 0.41867 0.50113 0.31671 0.0
H699 H 0.5395 0.67374 0.27596 0.0
H700 H 0.31877 0.43878 0.2808 0.0
H701 H 0.37038 0.46327 0.33287 0.0
Tb702 Tb 0.49087 0.9815 0.99185 0.0
C703 C 0.58888 0.05782 0.04661 0.0
C704 C 0.60697 0.02913 0.0652 0.0
C705 C 0.64453 0.08189 0.05575 0.0
C706 C 0.58272 0.03092 0.0554 0.0
C707 C 0.61969 0.08405 0.04712 0.0
C708 C 0.63817 0.05444 0.06482 0.0
C709 C 0.59806 0.11347 0.03296 0.0
N710 N 0.5641 0.05895 0.03871 0.0
C711 C 0.56792 0.08692 0.03326 0.0
C712 C 0.62428 0.11186 0.03951 0.0
Tb713 Tb 0.51586 0.01363 0.03816 0.0
N714 N 0.55233 0.00713 0.05535 0.0
C715 C 0.54375 0.98261 0.06722 0.0
C716 C 0.59883 0.00254 0.07569 0.0
C717 C 0.56694 0.97947 0.07704 0.0
H718 H 0.54771 0.0894 0.03008 0.0
H719 H 0.56018 0.95935 0.08569 0.0
H720 H 0.65727 0.0534 0.07202 0.0
H721 H 0.60087 0.13533 0.02816 0.0
H722 H 0.51911 0.96475 0.06837 0.0
H723 H 0.36388 0.93472 0.99506 0.0
H724 H 0.61675 0.00021 0.08341 0.0
H725 H 0.53293 0.95223 0.97354 0.0
H726 H 0.42007 0.97501 0.99739 0.0
H727 H 0.52388 0.9018 0.96165 0.0
H728 H 0.66846 0.10161 0.05604 0.0
H729 H 0.34929 0.88127 0.98552 0.0
H730 H 0.36707 0.84405 0.97471 0.0
H731 H 0.64757 0.13252 0.03952 0.0
H732 H 0.41078 0.83492 0.96588 0.0
N733 N 0.43779 0.94499 0.99019 0.0
C734 C 0.41431 0.95197 0.99341 0.0
C735 C 0.37412 0.89898 0.98663 0.0
C736 C 0.39818 0.89231 0.98234 0.0
C737 C 0.38226 0.92908 0.99201 0.0
C738 C 0.4301 0.9162 0.98417 0.0
H739 H 0.46945 0.85636 0.96094 0.0
N740 N 0.48454 0.93515 0.98088 0.0
C741 C 0.50412 0.90395 0.96681 0.0
C742 C 0.45445 0.91099 0.97946 0.0
C743 C 0.5092 0.93247 0.97369 0.0
C744 C 0.47339 0.87837 0.96643 0.0
C745 C 0.44796 0.88186 0.97244 0.0
O746 O 0.5156 0.99683 0.96644 0.0
O747 O 0.52649 0.02013 1.0087 0.0
O748 O 0.49931 0.04251 0.02361 0.0
O749 O 0.47461 0.01513 0.99624 0.0
O750 O 0.54193 0.00151 0.9887 0.0
O751 O 0.47002 0.99295 0.96967 0.0
O752 O 0.51387 0.04649 0.05606 0.0
O753 O 0.47578 0.98343 0.01995 0.0
O754 O 0.50272 0.95054 1.00781 0.0
O755 O 0.53593 0.98367 0.0314 0.0
O756 O 0.47851 0.96755 0.04563 0.0
O757 O 0.48879 0.99832 0.0628 0.0
C758 C 0.55142 0.0229 1.00116 0.0
C759 C 0.48455 0.98648 0.93922 0.0
C760 C 0.49015 0.99404 0.90553 0.0
C761 C 0.49822 0.00609 0.92379 0.0
C762 C 0.46873 0.96226 0.90287 0.0
C763 C 0.46294 0.95485 0.93624 0.0
C764 C 0.45522 0.94282 0.91816 0.0
C765 C 0.48251 0.03838 1.00808 0.0
C766 C 0.49316 0.99936 0.95825 0.0
C767 C 0.4163 0.85758 0.97111 0.0
C768 C 0.39142 0.86279 0.97608 0.0
C769 C 0.46167 0.96026 0.03072 0.0
C770 C 0.51381 0.03254 0.08794 0.0
C771 C 0.4981 0.01208 0.10289 0.0
C772 C 0.51298 0.01723 0.12053 0.0
C773 C 0.54353 0.04285 0.12308 0.0
C774 C 0.5445 0.05797 0.09096 0.0
C775 C 0.55914 0.06301 0.10839 0.0
C776 C 0.52371 0.95758 0.02155 0.0
C777 C 0.49906 0.02618 0.06906 0.0
H778 H 0.51491 0.0306 0.92593 0.0
H779 H 0.46236 0.95257 0.88893 0.0
H780 H 0.45188 0.93947 0.94783 0.0
H781 H 0.4386 0.91835 0.91599 0.0
H782 H 0.4746 0.99215 0.1008 0.0
H783 H 0.55535 0.04717 0.1365 0.0
H784 H 0.55744 0.07386 0.0798 0.0
H785 H 0.5828 0.08259 0.11051 0.0
Tb786 Tb 0.02623 0.51343 0.99097 0.0
C787 C 0.90712 0.46297 0.03843 0.0
C788 C 0.89264 0.50286 0.03669 0.0
C789 C 0.85164 0.44903 0.04088 0.0
C790 C 0.91572 0.49356 0.03599 0.0
C791 C 0.87511 0.44036 0.04147 0.0
C792 C 0.8604 0.48029 0.03847 0.0
C793 C 0.8924 0.40313 0.04703 0.0
N794 N 0.93061 0.45579 0.0391 0.0
C795 C 0.92382 0.42648 0.04404 0.0
C796 C 0.86786 0.41 0.04554 0.0
Tb797 Tb 0.98138 0.49536 0.03336 0.0
N798 N 0.94713 0.51455 0.03484 0.0
C799 C 0.95725 0.5455 0.03656 0.0
C800 C 0.90283 0.53461 0.03673 0.0
C801 C 0.93534 0.55602 0.03725 0.0
H802 H 0.9425 0.42077 0.04519 0.0
H803 H 0.94357 0.58064 0.03817 0.0
H804 H 0.84225 0.48691 0.03878 0.0
H805 H 0.88713 0.37985 0.05047 0.0
H806 H 0.98225 0.56228 0.03735 0.0
H807 H 0.07061 0.43312 0.98588 0.0
H808 H 0.88591 0.54279 0.0373 0.0
H809 H 0.06195 0.58857 0.98006 0.0
H810 H 0.02951 0.44833 0.9872 0.0
H811 H 0.11667 0.63186 0.97627 0.0
H812 H 0.82683 0.43195 0.04291 0.0
H813 H 0.12753 0.47331 0.98683 0.0
H814 H 0.16892 0.53006 0.98619 0.0
H815 H 0.84356 0.39191 0.04793 0.0
H816 H 0.18152 0.58443 0.98323 0.0
N817 N 0.06256 0.49672 0.98952 0.0
C818 C 0.05419 0.46616 0.98782 0.0
C819 C 0.10955 0.48015 0.98745 0.0
C820 C 0.11799 0.51149 0.98779 0.0
C821 C 0.07747 0.45742 0.98689 0.0
C822 C 0.0936 0.51905 0.98849 0.0
H823 H 0.16211 0.62261 0.97917 0.0
N824 N 0.07612 0.55516 0.98602 0.0
C825 C 0.11251 0.60881 0.9793 0.0
C826 C 0.10069 0.54941 0.98652 0.0
C827 C 0.08148 0.58416 0.98148 0.0
C828 C 0.13811 0.6035 0.98098 0.0
C829 C 0.13233 0.57338 0.98425 0.0
O830 O 0.01634 0.52856 0.96565 0.0
O831 O 0.985 0.51006 1.00483 0.0
O832 O 0.95102 0.45972 0.01294 0.0
O833 O 0.98897 0.46337 0.99188 0.0
O834 O 0.00886 0.5466 0.98787 0.0
O835 O 0.02115 0.48792 0.96673 0.0
O836 O 0.9876 0.47836 0.05891 0.0
O837 O 0.02133 0.49692 0.01927 0.0
O838 O 0.05791 0.54686 0.01132 0.0
O839 O 0.02067 0.54507 0.0323 0.0
O840 O 0.99628 0.46066 0.03647 0.0
O841 O 0.99407 0.52436 0.05709 0.0
C842 C 0.98406 0.53318 0.99817 0.0
C843 C 0.03333 0.51477 0.9384 0.0
C844 C 0.03113 0.51471 0.90458 0.0
C845 C 0.01572 0.50807 0.92183 0.0
C846 C 0.06437 0.52858 0.904 0.0
C847 C 0.06652 0.52851 0.93771 0.0
C848 C 0.08195 0.53551 0.92054 0.0
C849 C 0.95939 0.44874 0.99845 0.0
C850 C 0.0163 0.50626 0.95611 0.0
C851 C 0.15697 0.5663 0.98476 0.0
C852 C 0.1498 0.53536 0.9865 0.0
C853 C 0.02061 0.47287 0.0258 0.0
C854 C 0.97711 0.49852 0.0859 0.0
C855 C 0.9946 0.50499 0.10256 0.0
C856 C 0.97914 0.49917 0.11982 0.0
C857 C 0.9461 0.48705 0.12026 0.0
C858 C 0.94418 0.48668 0.08654 0.0
C859 C 0.92877 0.48096 0.10368 0.0
C860 C 0.05022 0.55827 0.02563 0.0
C861 C 0.99355 0.50333 0.06807 0.0
H862 H 0.99003 0.49732 0.9223 0.0
H863 H 0.07659 0.53391 0.89076 0.0
H864 H 0.08042 0.53357 0.95034 0.0
H865 H 0.10757 0.5461 0.92005 0.0
H866 H 0.0201 0.51429 0.10214 0.0
H867 H 0.93381 0.4825 0.13345 0.0
H868 H 0.93039 0.48175 0.07388 0.0
H869 H 0.90333 0.47173 0.1041 0.0
Tb870 Tb 0.51588 0.49503 0.03756 0.0
C871 C 0.4532 0.54272 0.98205 0.0
C872 C 0.39719 0.50689 0.9863 0.0
C873 C 0.41467 0.55893 0.9749 0.0
C874 C 0.42917 0.51408 0.98741 0.0
C875 C 0.44625 0.56512 0.97498 0.0
C876 C 0.39014 0.52985 0.98064 0.0
C877 C 0.50154 0.5962 0.96657 0.0
N878 N 0.48324 0.54752 0.98216 0.0
C879 C 0.50724 0.57336 0.97393 0.0
C880 C 0.47102 0.59235 0.96741 0.0
Tb881 Tb 0.49014 0.50782 0.99257 0.0
N882 N 0.43704 0.49244 0.99221 0.0
C883 C 0.41372 0.46224 0.99469 0.0
C884 C 0.3733 0.47651 0.99009 0.0
C885 C 0.38162 0.45396 0.99399 0.0
H886 H 0.53089 0.5766 0.97313 0.0
H887 H 0.36334 0.43021 0.99655 0.0
H888 H 0.36575 0.52493 0.97992 0.0
H889 H 0.52073 0.61682 0.96034 0.0
H890 H 0.41962 0.44451 0.99787 0.0
H891 H 0.64316 0.57481 0.03886 0.0
H892 H 0.34844 0.47003 0.98948 0.0
H893 H 0.47632 0.42267 0.05512 0.0
H894 H 0.5872 0.56092 0.03918 0.0
H895 H 0.48715 0.37989 0.06086 0.0
H896 H 0.40884 0.576 0.96979 0.0
H897 H 0.65785 0.5338 0.03905 0.0
H898 H 0.64066 0.4773 0.04168 0.0
H899 H 0.46667 0.61006 0.96171 0.0
H900 H 0.59791 0.42384 0.04736 0.0
N901 N 0.56931 0.51189 0.03843 0.0
C902 C 0.59275 0.54247 0.03904 0.0
C903 C 0.63299 0.52741 0.03909 0.0
C904 C 0.60906 0.49629 0.04012 0.0
C905 C 0.6248 0.55061 0.03901 0.0
C906 C 0.57702 0.48917 0.04005 0.0
H907 H 0.54068 0.38738 0.0549 0.0
N908 N 0.52261 0.45341 0.04448 0.0
C909 C 0.50576 0.40185 0.05559 0.0
C910 C 0.55289 0.45893 0.04301 0.0
C911 C 0.49973 0.42616 0.05232 0.0
C912 C 0.53596 0.40615 0.05215 0.0
C913 C 0.56026 0.43526 0.04643 0.0
O914 O 0.49134 0.47783 0.06275 0.0
O915 O 0.47579 0.48925 0.02034 0.0
O916 O 0.50137 0.54871 1.01015 0.0
O917 O 0.5339 0.54493 0.03285 0.0
O918 O 0.47545 0.4986 0.04763 0.0
O919 O 0.53761 0.51993 0.06199 0.0
O920 O 0.51513 0.51495 0.96738 0.0
O921 O 0.52719 0.50549 1.00844 0.0
O922 O 0.49705 0.45098 0.02167 0.0
O923 O 0.47434 0.45831 0.99473 0.0
O924 O 0.54108 0.53846 0.98839 0.0
O925 O 0.46726 0.47765 0.9699 0.0
C926 C 0.46052 0.49532 0.03245 0.0
C927 C 0.52263 0.49208 0.0903 0.0
C928 C 0.51859 0.49054 0.12415 0.0
C929 C 0.50972 0.4966 0.1067 0.0
C930 C 0.53993 0.47925 0.12504 0.0
C931 C 0.54418 0.4811 0.0914 0.0
C932 C 0.55257 0.47449 0.10872 0.0
C933 C 0.52035 0.55976 0.02507 0.0
C934 C 0.51413 0.50031 0.07243 0.0
C935 C 0.59188 0.44185 0.04511 0.0
C936 C 0.61624 0.47232 0.04194 0.0
C937 C 0.55165 0.52677 1.00045 0.0
C938 C 0.48403 0.49957 0.94009 0.0
C939 C 0.49734 0.49345 0.92442 0.0
C940 C 0.49123 0.50058 0.90648 0.0
C941 C 0.47192 0.51402 0.90435 0.0
C942 C 0.4643 0.51247 0.93769 0.0
C943 C 0.4585 0.51987 0.91991 0.0
C944 C 0.48154 0.44125 1.00556 0.0
C945 C 0.49114 0.49246 0.95875 0.0
H946 H 0.49326 0.50536 0.10595 0.0
H947 H 0.54694 0.47436 0.13839 0.0
H948 H 0.55478 0.47798 0.07899 0.0
H949 H 0.56919 0.46598 0.1095 0.0
H950 H 0.51222 0.48304 0.92612 0.0
H951 H 0.46693 0.51957 0.89061 0.0
H952 H 0.45318 0.5166 0.94946 0.0
H953 H 0.44335 0.52992 0.91818 0.0
Tb954 Tb 0.15932 0.30834 0.32264 0.0
C955 C 0.2143 0.41876 0.37478 0.0
C956 C 0.27115 0.43966 0.37231 0.0
C957 C 0.25028 0.47436 0.37802 0.0
C958 C 0.23985 0.41425 0.37157 0.0
C959 C 0.21934 0.44874 0.37869 0.0
C960 C 0.27615 0.46984 0.3748 0.0
C961 C 0.16348 0.42549 0.38581 0.0
N962 N 0.18465 0.39347 0.37522 0.0
C963 C 0.15967 0.39621 0.38196 0.0
C964 C 0.19331 0.45194 0.3838 0.0
Tb965 Tb 0.1819 0.34699 0.36798 0.0
N966 N 0.23421 0.38473 0.3696 0.0
C967 C 0.25879 0.37879 0.37093 0.0
C968 C 0.29651 0.43383 0.37164 0.0
C969 C 0.29027 0.40321 0.37156 0.0
H970 H 0.13644 0.37585 0.38338 0.0
H971 H 0.30966 0.39835 0.37194 0.0
H972 H 0.30001 0.48968 0.3751 0.0
H973 H 0.14341 0.42764 0.39034 0.0
H974 H 0.25435 0.35527 0.37124 0.0
H975 H 0.03136 0.25002 0.32221 0.0
H976 H 0.3209 0.45269 0.37216 0.0
H977 H 0.20964 0.28357 0.30854 0.0
H978 H 0.08589 0.29442 0.3249 0.0
H979 H 0.20575 0.23602 0.29642 0.0
H980 H 0.25458 0.49764 0.38067 0.0
H981 H 0.02307 0.1978 0.31473 0.0
H982 H 0.04689 0.16495 0.30546 0.0
H983 H 0.19622 0.47459 0.38688 0.0
H984 H 0.0944 0.16158 0.29758 0.0
N985 N 0.10819 0.26776 0.32071 0.0
C986 C 0.08249 0.27183 0.32212 0.0
C987 C 0.047 0.21725 0.31625 0.0
C988 C 0.07344 0.21368 0.31317 0.0
C989 C 0.05157 0.24665 0.32043 0.0
C990 C 0.10408 0.23978 0.31545 0.0
H991 H 0.15352 0.18819 0.29356 0.0
N992 N 0.15957 0.26386 0.31325 0.0
C993 C 0.18442 0.23615 0.30061 0.0
C994 C 0.13065 0.23788 0.31117 0.0
C995 C 0.1864 0.26334 0.3077 0.0
C996 C 0.15491 0.20922 0.29899 0.0
C997 C 0.12754 0.20981 0.30429 0.0
O998 O 0.18545 0.33198 0.29884 0.0
O999 O 0.19535 0.3463 0.33932 0.0
O1000 O 0.16543 0.37313 0.3511 0.0
O1001 O 0.14242 0.34243 0.32452 0.0
O1002 O 0.21015 0.32701 0.31951 0.0
O1003 O 0.13486 0.30851 0.29817 0.0
O1004 O 0.15635 0.33865 0.39297 0.0
O1005 O 0.14284 0.3144 0.34965 0.0
O1006 O 0.16901 0.27886 0.34148 0.0
O1007 O 0.20051 0.31491 0.36429 0.0
O1008 O 0.14016 0.30507 0.37725 0.0
O1009 O 0.20359 0.34391 0.3926 0.0
C1010 C 0.2201 0.34808 0.33214 0.0
C1011 C 0.16148 0.31308 0.26962 0.0
C1012 C 0.17073 0.32291 0.23618 0.0
C1013 C 0.16644 0.3322 0.25406 0.0
C1014 C 0.17011 0.29444 0.23417 0.0
C1015 C 0.15938 0.28415 0.26696 0.0
C1016 C 0.16399 0.27504 0.24942 0.0
C1017 C 0.15057 0.36774 0.33482 0.0
C1018 C 0.16061 0.32435 0.28857 0.0
C1019 C 0.09723 0.18341 0.30265 0.0
C1020 C 0.0702 0.1853 0.30717 0.0
C1021 C 0.12631 0.29412 0.36175 0.0
C1022 C 0.18591 0.35398 0.42127 0.0
C1023 C 0.17402 0.3353 0.43723 0.0
C1024 C 0.18092 0.34885 0.45513 0.0
C1025 C 0.19934 0.38129 0.45687 0.0
C1026 C 0.20441 0.38629 0.42329 0.0
C1027 C 0.21093 0.39985 0.44103 0.0
C1028 C 0.18684 0.28649 0.35689 0.0
C1029 C 0.17922 0.33896 0.40283 0.0
H1030 H 0.16732 0.3543 0.25585 0.0
H1031 H 0.17359 0.28688 0.22064 0.0
H1032 H 0.15437 0.26856 0.27838 0.0
H1033 H 0.16281 0.25283 0.24763 0.0
H1034 H 0.15978 0.31027 0.43576 0.0
H1035 H 0.20482 0.3922 0.47052 0.0
H1036 H 0.214 0.401 0.41124 0.0
H1037 H 0.2252 0.42482 0.44251 0.0
Tb1038 Tb 0.69503 0.84742 0.32403 0.0
C1039 C 0.57077 0.78066 0.36789 0.0
C1040 C 0.54717 0.81337 0.36593 0.0
C1041 C 0.51328 0.75739 0.36811 0.0
C1042 C 0.57414 0.80963 0.36593 0.0
C1043 C 0.54038 0.75415 0.36935 0.0
C1044 C 0.51668 0.78701 0.36644 0.0
C1045 C 0.56596 0.72377 0.37453 0.0
N1046 N 0.59761 0.7787 0.36909 0.0
C1047 C 0.59559 0.7508 0.37313 0.0
C1048 C 0.53821 0.72536 0.3724 0.0
Tb1049 Tb 0.64519 0.8241 0.36504 0.0
N1050 N 0.604 0.83438 0.36574 0.0
C1051 C 0.60846 0.86363 0.3679 0.0
C1052 C 0.55174 0.84346 0.36642 0.0
C1053 C 0.58253 0.86866 0.36799 0.0
H1054 H 0.61671 0.74898 0.37464 0.0
H1055 H 0.58637 0.89201 0.36927 0.0
H1056 H 0.49565 0.78936 0.36619 0.0
H1057 H 0.56456 0.70169 0.3772 0.0
H1058 H 0.63199 0.8833 0.36958 0.0
H1059 H 0.74276 0.76935 0.32389 0.0
H1060 H 0.5317 0.8474 0.3665 0.0
H1061 H 0.7307 0.91937 0.30813 0.0
H1062 H 0.70097 0.7833 0.32239 0.0
H1063 H 0.78518 0.96415 0.30643 0.0
H1064 H 0.48968 0.73728 0.36899 0.0
H1065 H 0.79909 0.8104 0.32727 0.0
H1066 H 0.83954 0.86752 0.32789 0.0
H1067 H 0.5153 0.7044 0.37351 0.0
H1068 H 0.85125 0.92141 0.32359 0.0
N1069 N 0.73263 0.83198 0.32495 0.0
C1070 C 0.72524 0.80163 0.32346 0.0
C1071 C 0.78072 0.81671 0.32645 0.0
C1072 C 0.7884 0.84783 0.32658 0.0
C1073 C 0.74901 0.79352 0.32444 0.0
C1074 C 0.76351 0.85467 0.32555 0.0
H1075 H 0.83104 0.95782 0.31518 0.0
N1076 N 0.74517 0.8891 0.31992 0.0
C1077 C 0.78129 0.94202 0.31148 0.0
C1078 C 0.77005 0.88461 0.32314 0.0
C1079 C 0.7504 0.91672 0.31272 0.0
C1080 C 0.80709 0.93838 0.31646 0.0
C1081 C 0.8017 0.90905 0.3217 0.0
O1082 O 0.68773 0.8628 0.29806 0.0
O1083 O 0.65165 0.84074 0.33669 0.0
O1084 O 0.61872 0.78935 0.3437 0.0
O1085 O 0.65949 0.7966 0.32398 0.0
O1086 O 0.67424 0.87706 0.31897 0.0
O1087 O 0.6891 0.82052 0.30021 0.0
O1088 O 0.65332 0.80996 0.39109 0.0
O1089 O 0.6891 0.83149 0.35247 0.0
O1090 O 0.71854 0.88646 0.34382 0.0
O1091 O 0.67689 0.87496 0.36463 0.0
O1092 O 0.66682 0.79539 0.37032 0.0
O1093 O 0.6518 0.85238 0.38841 0.0
C1094 C 0.64969 0.86306 0.32942 0.0
C1095 C 0.70591 0.84755 0.27202 0.0
C1096 C 0.70817 0.84893 0.23819 0.0
C1097 C 0.69063 0.84244 0.25469 0.0
C1098 C 0.74118 0.861 0.23914 0.0
C1099 C 0.73888 0.85948 0.27283 0.0
C1100 C 0.75642 0.86629 0.25642 0.0
C1101 C 0.62945 0.78009 0.32959 0.0
C1102 C 0.68688 0.83976 0.28899 0.0
C1103 C 0.82674 0.9029 0.32434 0.0
C1104 C 0.82008 0.87223 0.32675 0.0
C1105 C 0.69154 0.80974 0.36014 0.0
C1106 C 0.63703 0.82678 0.41726 0.0
C1107 C 0.65408 0.83493 0.4341 0.0
C1108 C 0.63795 0.82796 0.45112 0.0
C1109 C 0.60461 0.81307 0.4512 0.0
C1110 C 0.60374 0.81193 0.41744 0.0
C1111 C 0.58763 0.80516 0.43439 0.0
C1112 C 0.70568 0.89376 0.3579 0.0
C1113 C 0.6546 0.83357 0.3998 0.0
H1114 H 0.66513 0.83316 0.25399 0.0
H1115 H 0.75503 0.86621 0.22651 0.0
H1116 H 0.75097 0.86332 0.28608 0.0
H1117 H 0.78186 0.87551 0.2571 0.0
H1118 H 0.67985 0.84647 0.434 0.0
H1119 H 0.59184 0.80762 0.46425 0.0
H1120 H 0.59029 0.80555 0.40456 0.0
H1121 H 0.56193 0.79368 0.4345 0.0
Tb1122 Tb 0.18438 0.82725 0.37041 0.0
C1123 C 0.12474 0.88171 0.31933 0.0
C1124 C 0.06852 0.84663 0.32284 0.0
C1125 C 0.0879 0.90127 0.31681 0.0
C1126 C 0.10013 0.85259 0.32305 0.0
C1127 C 0.11895 0.90622 0.31534 0.0
C1128 C 0.06263 0.87141 0.32057 0.0
C1129 C 0.17343 0.93631 0.3053 0.0
N1130 N 0.15394 0.88493 0.31738 0.0
C1131 C 0.17763 0.91097 0.30914 0.0
C1132 C 0.14414 0.9342 0.30885 0.0
Tb1133 Tb 0.16009 0.84369 0.32597 0.0
N1134 N 0.10703 0.82942 0.32461 0.0
C1135 C 0.08295 0.7992 0.32358 0.0
C1136 C 0.04385 0.81582 0.32373 0.0
C1137 C 0.05112 0.79196 0.32354 0.0
H1138 H 0.20011 0.91255 0.30597 0.0
H1139 H 0.03224 0.76795 0.32342 0.0
H1140 H 0.03856 0.86745 0.32073 0.0
H1141 H 0.19269 0.9573 0.29945 0.0
H1142 H 0.08792 0.78037 0.32319 0.0
H1143 H 0.31191 0.90521 0.37248 0.0
H1144 H 0.01921 0.81018 0.32364 0.0
H1145 H 0.14513 0.75728 0.38914 0.0
H1146 H 0.25598 0.89169 0.37307 0.0
H1147 H 0.1539 0.71313 0.39507 0.0
H1148 H 0.08297 0.91991 0.31411 0.0
H1149 H 0.32612 0.86379 0.37206 0.0
H1150 H 0.308 0.80678 0.37478 0.0
H1151 H 0.14076 0.95365 0.30561 0.0
H1152 H 0.26442 0.75373 0.38103 0.0
N1153 N 0.23774 0.84273 0.37166 0.0
C1154 C 0.26139 0.87316 0.37258 0.0
C1155 C 0.30133 0.85765 0.37213 0.0
C1156 C 0.27715 0.82663 0.37308 0.0
C1157 C 0.29341 0.88105 0.37242 0.0
C1158 C 0.24531 0.82 0.37308 0.0
H1159 H 0.20668 0.71857 0.38912 0.0
N1160 N 0.19154 0.78639 0.37842 0.0
C1161 C 0.17296 0.73466 0.38962 0.0
C1162 C 0.22112 0.79051 0.37657 0.0
C1163 C 0.16801 0.75964 0.38615 0.0
C1164 C 0.20275 0.73778 0.3862 0.0
C1165 C 0.22761 0.76635 0.38016 0.0
O1166 O 0.16063 0.81529 0.39618 0.0
O1167 O 0.14861 0.83257 0.35505 0.0
O1168 O 0.17453 0.88533 0.34313 0.0
O1169 O 0.20221 0.87748 0.36741 0.0
O1170 O 0.13304 0.79896 0.37489 0.0
O1171 O 0.2045 0.85819 0.39301 0.0
O1172 O 0.18391 0.85429 0.30024 0.0
O1173 O 0.19605 0.83859 0.3413 0.0
O1174 O 0.17025 0.78596 0.35314 0.0
O1175 O 0.14182 0.79327 0.32914 0.0
O1176 O 0.21128 0.87232 0.32155 0.0
O1177 O 0.13936 0.81219 0.30366 0.0
C1178 C 0.12358 0.81194 0.36301 0.0
C1179 C 0.19371 0.83478 0.42255 0.0
C1180 C 0.19088 0.83407 0.45639 0.0
C1181 C 0.18051 0.83862 0.43901 0.0
C1182 C 0.21429 0.82537 0.45718 0.0
C1183 C 0.21716 0.82616 0.42351 0.0
C1184 C 0.22733 0.82143 0.44079 0.0
C1185 C 0.19292 0.89476 0.35824 0.0
C1186 C 0.18268 0.83985 0.40457 0.0
C1187 C 0.25894 0.77209 0.37863 0.0
C1188 C 0.28375 0.80227 0.37507 0.0
C1189 C 0.22103 0.85954 0.3334 0.0
C1190 C 0.15077 0.83495 0.27398 0.0
C1191 C 0.16264 0.82896 0.25768 0.0
C1192 C 0.15344 0.83441 0.2402 0.0
C1193 C 0.13211 0.84571 0.23911 0.0
C1194 C 0.12935 0.8461 0.27276 0.0
C1195 C 0.1201 0.85147 0.25536 0.0
C1196 C 0.15166 0.77631 0.33818 0.0
C1197 C 0.16142 0.82983 0.29203 0.0
H1198 H 0.16234 0.84525 0.43835 0.0
H1199 H 0.22244 0.82169 0.4705 0.0
H1200 H 0.22765 0.82321 0.41098 0.0
H1201 H 0.24541 0.81476 0.44147 0.0
H1202 H 0.17908 0.82018 0.25856 0.0
H1203 H 0.12473 0.84991 0.22568 0.0
H1204 H 0.11977 0.85059 0.28519 0.0
H1205 H 0.10359 0.86009 0.25447 0.0
Tb1206 Tb 0.8278 0.65369 0.65374 0.0
C1207 C 0.87289 0.7525 0.71527 0.0
C1208 C 0.93017 0.77775 0.71375 0.0
C1209 C 0.90511 0.80542 0.72678 0.0
C1210 C 0.89985 0.7518 0.71035 0.0
C1211 C 0.87511 0.77894 0.72409 0.0
C1212 C 0.93263 0.80489 0.7215 0.0
C1213 C 0.81807 0.75039 0.72773 0.0
N1214 N 0.84439 0.72654 0.71221 0.0
C1215 C 0.8171 0.72486 0.71875 0.0
C1216 C 0.84718 0.77764 0.73031 0.0
Tb1217 Tb 0.84533 0.68411 0.70033 0.0
N1218 N 0.89635 0.72472 0.70367 0.0
C1219 C 0.92243 0.72132 0.70165 0.0
C1220 C 0.95701 0.77511 0.7101 0.0
C1221 C 0.95309 0.74656 0.7043 0.0
H1222 H 0.7945 0.70383 0.71703 0.0
H1223 H 0.97362 0.74387 0.70199 0.0
H1224 H 0.95569 0.82516 0.72408 0.0
H1225 H 0.79636 0.749 0.73268 0.0
H1226 H 0.91976 0.69941 0.69747 0.0
H1227 H 0.70907 0.64277 0.65367 0.0
H1228 H 0.98074 0.79453 0.7124 0.0
H1229 H 0.84415 0.59628 0.64473 0.0
H1230 H 0.76155 0.66039 0.6667 0.0
H1231 H 0.82141 0.54935 0.62557 0.0
H1232 H 0.90733 0.82612 0.7333 0.0
H1233 H 0.68839 0.60416 0.62813 0.0
H1234 H 0.69465 0.56599 0.60844 0.0
H1235 H 0.84785 0.79738 0.73724 0.0
H1236 H 0.72454 0.53926 0.60154 0.0
N1237 N 0.77377 0.63447 0.64756 0.0
C1238 C 0.75421 0.64436 0.65511 0.0
C1239 C 0.71221 0.61241 0.63346 0.0
C1240 C 0.73058 0.59987 0.62708 0.0
C1241 C 0.72376 0.63409 0.64791 0.0
C1242 C 0.76147 0.61131 0.63456 0.0
H1243 H 0.77085 0.53187 0.60863 0.0
N1244 N 0.80545 0.6049 0.64049 0.0
C1245 C 0.80868 0.56195 0.62714 0.0
C1246 C 0.77789 0.59577 0.631 0.0
C1247 C 0.82108 0.58842 0.63848 0.0
C1248 C 0.78038 0.55239 0.61743 0.0
C1249 C 0.76444 0.56913 0.6194 0.0
O1250 O 0.86291 0.65357 0.63665 0.0
O1251 O 0.86524 0.68413 0.67339 0.0
O1252 O 0.83476 0.71607 0.68378 0.0
O1253 O 0.81315 0.6883 0.65624 0.0
O1254 O 0.86408 0.70143 0.64796 0.0
O1255 O 0.82905 0.66564 0.62553 0.0
O1256 O 0.82018 0.66715 0.72551 0.0
O1257 O 0.81403 0.64413 0.68279 0.0
O1258 O 0.84117 0.62425 0.67015 0.0
O1259 O 0.86622 0.65388 0.69669 0.0
O1260 O 0.79325 0.65867 0.70106 0.0
O1261 O 0.86759 0.67537 0.72301 0.0
C1262 C 0.88013 0.70776 0.66306 0.0
C1263 C 0.85572 0.65087 0.60335 0.0
C1264 C 0.85874 0.65823 0.56948 0.0
C1265 C 0.85154 0.66493 0.58733 0.0
C1266 C 0.86875 0.63623 0.56778 0.0
C1267 C 0.86616 0.62927 0.60122 0.0
C1268 C 0.87208 0.62166 0.58352 0.0
C1269 C 0.82102 0.71269 0.66709 0.0
C1270 C 0.85366 0.66253 0.62201 0.0
C1271 C 0.73502 0.55941 0.61067 0.0
C1272 C 0.71808 0.57473 0.61452 0.0
C1273 C 0.78715 0.6363 0.68968 0.0
C1274 C 0.85049 0.67944 0.75335 0.0
C1275 C 0.83783 0.65909 0.76861 0.0
C1276 C 0.84425 0.67083 0.78702 0.0
C1277 C 0.86304 0.70298 0.78995 0.0
C1278 C 0.86982 0.71136 0.75673 0.0
C1279 C 0.87576 0.72307 0.77489 0.0
C1280 C 0.85802 0.62938 0.68575 0.0
C1281 C 0.84364 0.66698 0.73412 0.0
H1282 H 0.84415 0.68215 0.58878 0.0
H1283 H 0.87437 0.6306 0.55423 0.0
H1284 H 0.87069 0.61887 0.61321 0.0
H1285 H 0.88015 0.60501 0.58203 0.0
H1286 H 0.82337 0.63428 0.76622 0.0
H1287 H 0.86829 0.71246 0.80398 0.0
H1288 H 0.88068 0.72726 0.74541 0.0
H1289 H 0.89061 0.74778 0.77731 0.0
Tb1290 Tb 0.36025 0.17793 0.65971 0.0
C1291 C 0.2414 0.12379 0.71055 0.0
C1292 C 0.21904 0.15678 0.70438 0.0
C1293 C 0.18518 0.10449 0.7159 0.0
C1294 C 0.24511 0.1516 0.70452 0.0
C1295 C 0.21167 0.10025 0.71699 0.0
C1296 C 0.18883 0.1327 0.70948 0.0
C1297 C 0.23719 0.07136 0.7265 0.0
N1298 N 0.26758 0.12065 0.71133 0.0
C1299 C 0.26607 0.09525 0.71975 0.0
C1300 C 0.20976 0.07368 0.72492 0.0
Tb1301 Tb 0.31476 0.16239 0.70229 0.0
N1302 N 0.27487 0.1745 0.70041 0.0
C1303 C 0.28055 0.20413 0.69779 0.0
C1304 C 0.22444 0.18644 0.70008 0.0
C1305 C 0.25546 0.21037 0.69713 0.0
H1306 H 0.28704 0.0932 0.72132 0.0
H1307 H 0.26011 0.23368 0.69438 0.0
H1308 H 0.16845 0.1361 0.70926 0.0
H1309 H 0.23612 0.05118 0.73291 0.0
H1310 H 0.30429 0.22311 0.69566 0.0
H1311 H 0.36029 0.07195 0.63802 0.0
H1312 H 0.20507 0.19138 0.69972 0.0
H1313 H 0.42572 0.24926 0.65627 0.0
H1314 H 0.34052 0.10839 0.63805 0.0
H1315 H 0.48284 0.27296 0.66235 0.0
H1316 H 0.16203 0.08651 0.7205 0.0
H1317 H 0.41325 0.08755 0.65131 0.0
H1318 H 0.46515 0.1305 0.66353 0.0
H1319 H 0.18743 0.05515 0.73015 0.0
H1320 H 0.49931 0.18631 0.66993 0.0
N1321 N 0.37869 0.1431 0.65453 0.0
C1322 C 0.36246 0.11514 0.64525 0.0
C1323 C 0.40402 0.1034 0.65203 0.0
C1324 C 0.42273 0.13369 0.6587 0.0
C1325 C 0.37413 0.09449 0.64461 0.0
C1326 C 0.40942 0.15334 0.65943 0.0
H1327 H 0.50633 0.23985 0.66916 0.0
N1328 N 0.41532 0.20283 0.66189 0.0
C1329 C 0.46779 0.24799 0.66305 0.0
C1330 C 0.42847 0.18444 0.66322 0.0
C1331 C 0.43509 0.23429 0.65984 0.0
C1332 C 0.48093 0.22927 0.66688 0.0
C1333 C 0.46148 0.19703 0.66616 0.0
O1334 O 0.36974 0.21668 0.64336 0.0
O1335 O 0.3233 0.18223 0.67462 0.0
O1336 O 0.28616 0.12163 0.68422 0.0
O1337 O 0.3219 0.12862 0.66035 0.0
O1338 O 0.31569 0.17009 0.64718 0.0
O1339 O 0.36425 0.17408 0.63066 0.0
O1340 O 0.33188 0.15678 0.72829 0.0
O1341 O 0.35751 0.16788 0.68883 0.0
O1342 O 0.38374 0.21944 0.6781 0.0
O1343 O 0.34619 0.21266 0.70035 0.0
O1344 O 0.33518 0.13236 0.70716 0.0
O1345 O 0.31691 0.19035 0.72499 0.0
C1346 C 0.30333 0.17559 0.66137 0.0
C1347 C 0.37396 0.21625 0.60956 0.0
C1348 C 0.36403 0.21123 0.57602 0.0
C1349 C 0.36239 0.19758 0.59342 0.0
C1350 C 0.37835 0.24368 0.57481 0.0
C1351 C 0.38817 0.24863 0.60804 0.0
C1352 C 0.39054 0.26223 0.59072 0.0
C1353 C 0.29408 0.11199 0.66883 0.0
C1354 C 0.36885 0.202 0.6281 0.0
C1355 C 0.47422 0.17716 0.6672 0.0
C1356 C 0.45478 0.14542 0.66356 0.0
C1357 C 0.35929 0.14585 0.6964 0.0
C1358 C 0.31034 0.16766 0.75467 0.0
C1359 C 0.32842 0.17334 0.77103 0.0
C1360 C 0.31334 0.16485 0.78841 0.0
C1361 C 0.28008 0.15036 0.78932 0.0
C1362 C 0.27717 0.15376 0.75585 0.0
C1363 C 0.26212 0.14488 0.77308 0.0
C1364 C 0.37384 0.22976 0.69215 0.0
C1365 C 0.32663 0.17692 0.73665 0.0
H1366 H 0.35108 0.17252 0.59443 0.0
H1367 H 0.37994 0.25462 0.56151 0.0
H1368 H 0.39714 0.26343 0.62029 0.0
H1369 H 0.40146 0.28721 0.58965 0.0
H1370 H 0.35413 0.18465 0.7703 0.0
H1371 H 0.26814 0.14377 0.80264 0.0
H1372 H 0.2629 0.15014 0.74356 0.0
H1373 H 0.23651 0.13407 0.77386 0.0
Tb1374 Tb 0.8489 0.15927 0.70381 0.0
C1375 C 0.78634 0.2078 0.65181 0.0
C1376 C 0.73091 0.16931 0.65472 0.0
C1377 C 0.74622 0.22322 0.64919 0.0
C1378 C 0.76328 0.17778 0.6551 0.0
C1379 C 0.77819 0.23078 0.64806 0.0
C1380 C 0.72254 0.19243 0.65253 0.0
C1381 C 0.83278 0.26501 0.63935 0.0
N1382 N 0.81658 0.21359 0.65035 0.0
C1383 C 0.83939 0.24113 0.64295 0.0
C1384 C 0.80215 0.26004 0.64232 0.0
Tb1385 Tb 0.82642 0.17452 0.65884 0.0
N1386 N 0.7726 0.15636 0.65677 0.0
C1387 C 0.75041 0.12548 0.65568 0.0
C1388 C 0.70807 0.13778 0.65546 0.0
C1389 C 0.7179 0.11573 0.65534 0.0
H1390 H 0.86301 0.24502 0.64042 0.0
H1391 H 0.70049 0.09121 0.65508 0.0
H1392 H 0.69782 0.18652 0.65251 0.0
H1393 H 0.85125 0.28714 0.6342 0.0
H1394 H 0.75746 0.10807 0.65531 0.0
H1395 H 0.97654 0.23198 0.7101 0.0
H1396 H 0.68292 0.13021 0.65519 0.0
H1397 H 0.80298 0.0871 0.71907 0.0
H1398 H 0.92133 0.22103 0.70792 0.0
H1399 H 0.80848 0.04159 0.72639 0.0
H1400 H 0.73944 0.24063 0.64665 0.0
H1401 H 0.98783 0.18869 0.71198 0.0
H1402 H 0.96658 0.13127 0.71573 0.0
H1403 H 0.79695 0.27841 0.63931 0.0
H1404 H 0.9205 0.07913 0.72069 0.0
N1405 N 0.90119 0.17196 0.707 0.0
C1406 C 0.92574 0.20185 0.70812 0.0
C1407 C 0.96348 0.18373 0.71073 0.0
C1408 C 0.9381 0.15324 0.71138 0.0
C1409 C 0.9572 0.2082 0.70968 0.0
C1410 C 0.9069 0.14819 0.70975 0.0
H1411 H 0.86132 0.04551 0.72508 0.0
N1412 N 0.85197 0.11629 0.71261 0.0
C1413 C 0.82916 0.06325 0.72246 0.0
C1414 C 0.8813 0.11923 0.71291 0.0
C1415 C 0.82612 0.08913 0.71823 0.0
C1416 C 0.85901 0.06553 0.72168 0.0
C1417 C 0.88569 0.09398 0.71724 0.0
O1418 O 0.82386 0.1477 0.72914 0.0
O1419 O 0.81343 0.16463 0.68787 0.0
O1420 O 0.84118 0.21661 0.67561 0.0
O1421 O 0.86774 0.20947 0.70083 0.0
O1422 O 0.79715 0.1299 0.70663 0.0
O1423 O 0.8686 0.19008 0.72652 0.0
O1424 O 0.85126 0.18793 0.63349 0.0
O1425 O 0.8626 0.17146 0.6749 0.0
O1426 O 0.84407 0.12192 0.68583 0.0
O1427 O 0.8118 0.12439 0.66265 0.0
O1428 O 0.87731 0.20602 0.65581 0.0
O1429 O 0.80948 0.14329 0.6361 0.0
C1430 C 0.78793 0.14351 0.69508 0.0
C1431 C 0.8553 0.16699 0.75623 0.0
C1432 C 0.85029 0.16705 0.78999 0.0
C1433 C 0.84135 0.1716 0.77215 0.0
C1434 C 0.87297 0.15752 0.79177 0.0
C1435 C 0.878 0.15757 0.75823 0.0
C1436 C 0.88671 0.15279 0.77594 0.0
C1437 C 0.85863 0.22631 0.69106 0.0
C1438 C 0.84582 0.17215 0.73774 0.0
C1439 C 0.91658 0.09829 0.71758 0.0
C1440 C 0.9428 0.12794 0.71468 0.0
C1441 C 0.88751 0.19396 0.66786 0.0
C1442 C 0.82039 0.1669 0.60654 0.0
C1443 C 0.83281 0.16102 0.59039 0.0
C1444 C 0.82399 0.16638 0.57273 0.0
C1445 C 0.80252 0.1775 0.57137 0.0
C1446 C 0.79875 0.17773 0.60498 0.0
C1447 C 0.78993 0.18304 0.58744 0.0
C1448 C 0.8252 0.11001 0.67128 0.0
C1449 C 0.83114 0.16267 0.62485 0.0
H1450 H 0.82376 0.17886 0.77071 0.0
H1451 H 0.88003 0.15381 0.80543 0.0
H1452 H 0.88906 0.15402 0.74616 0.0
H1453 H 0.90422 0.14549 0.7774 0.0
H1454 H 0.84944 0.1525 0.59152 0.0
H1455 H 0.7954 0.18167 0.55785 0.0
H1456 H 0.78878 0.18214 0.61725 0.0
H1457 H 0.7733 0.19149 0.5863 0.0
C1458 C 0.38306 0.88666 0.03926 0.0
C1459 C 0.36466 0.89935 0.04618 0.0
C1460 C 0.4084 0.95193 0.0407 0.0
C1461 C 0.42672 0.93957 0.03287 0.0
N1462 N 0.43005 0.89475 0.02301 0.0
N1463 N 0.35641 0.94298 0.04959 0.0
C1464 C 0.41346 0.90676 0.03153 0.0
C1465 C 0.3762 0.93164 0.04549 0.0
N1466 N 0.37207 0.8555 0.04093 0.0
N1467 N 0.4224 0.98275 0.04515 0.0
H1468 H 0.33276 0.92869 0.05346 0.0
H1469 H 0.36257 0.96605 0.04745 0.0
H1470 H 0.44566 0.99888 0.04163 0.0
H1471 H 0.41145 0.9921 0.0533 0.0
H1472 H 0.38583 0.84515 0.03854 0.0
H1473 H 0.34941 0.83988 0.04582 0.0
H1474 H 0.42064 0.87137 0.01966 0.0
H1475 H 0.45258 0.90868 0.01766 0.0
C1476 C 0.09747 0.48768 0.05036 0.0
C1477 C 0.09851 0.46062 0.0452 0.0
C1478 C 0.04832 0.44147 0.02778 0.0
C1479 C 0.04865 0.4698 0.03151 0.0
N1480 N 0.06592 0.51257 0.05321 0.0
N1481 N 0.07773 0.41378 0.02682 0.0
C1482 C 0.07138 0.4912 0.04451 0.0
C1483 C 0.07459 0.43799 0.03338 0.0
N1484 N 0.12137 0.51016 0.061 0.0
N1485 N 0.02209 0.41719 0.01966 0.0
H1486 H 0.09682 0.4107 0.03041 0.0
H1487 H 0.06312 0.39842 0.01651 0.0
H1488 H 1.00251 0.41875 0.01509 0.0
H1489 H 0.01869 0.39481 0.01865 0.0
H1490 H 0.12431 0.53222 0.06302 0.0
H1491 H 0.13951 0.50759 0.067 0.0
H1492 H 0.07856 0.52543 0.06486 0.0
H1493 H 0.04706 0.51587 0.0498 0.0
C1494 C 0.55422 0.62763 0.05985 0.0
C1495 C 0.55876 0.65244 0.04815 0.0
C1496 C 0.52872 0.61523 0.02331 0.0
C1497 C 0.52846 0.59086 0.03369 0.0
N1498 N 0.52494 0.57231 0.06493 0.0
N1499 N 0.55489 0.6704 0.01761 0.0
C1500 C 0.53724 0.59663 0.05287 0.0
C1501 C 0.54758 0.64637 0.0295 0.0
N1502 N 0.5658 0.63356 0.0777 0.0
N1503 N 0.5069 0.6087 1.00957 0.0
H1504 H 0.56885 0.69363 0.02161 0.0
H1505 H 0.54968 0.66702 1.00339 0.0
H1506 H 0.48715 0.58673 1.00821 0.0
H1507 H 0.50451 0.6258 1.00259 0.0
H1508 H 0.56702 0.61707 0.08604 0.0
H1509 H 0.57619 0.65551 0.08386 0.0
H1510 H 0.52806 0.57447 0.07933 0.0
H1511 H 0.50723 0.5504 0.06071 0.0
C1512 C 0.9254 0.3697 0.97432 0.0
C1513 C 0.89363 0.35435 0.98051 0.0
C1514 C 0.90227 0.40274 0.99518 0.0
C1515 C 0.93496 0.41773 0.98998 0.0
N1516 N 0.96776 0.4189 0.96455 0.0
N1517 N 0.85232 0.35456 0.99884 0.0
C1518 C 0.94433 0.40217 0.97697 0.0
C1519 C 0.88226 0.37035 0.99161 0.0
N1520 N 0.93739 0.35337 0.96552 0.0
N1521 N 0.8891 0.42005 1.00087 0.0
H1522 H 0.83667 0.33114 0.996 0.0
H1523 H 0.84405 0.3639 1.00893 0.0
H1524 H 0.90138 0.44417 1.00075 0.0
H1525 H 0.86483 0.41094 1.00294 0.0
H1526 H 0.96141 0.36311 0.96227 0.0
H1527 H 0.924 0.32945 0.96319 0.0
H1528 H 0.97504 0.40898 0.95426 0.0
H1529 H 0.97374 0.44163 0.96173 0.0
C1530 C 0.62142 0.51261 0.98949 0.0
C1531 C 0.64345 0.54247 0.98279 0.0
C1532 C 0.60939 0.56231 0.99441 0.0
C1533 C 0.58465 0.53144 0.99805 0.0
N1534 N 0.56758 0.47658 0.99831 0.0
N1535 N 0.65811 0.59587 0.97784 0.0
C1536 C 0.59089 0.50643 0.99557 0.0
C1537 C 0.63751 0.56745 0.98513 0.0
N1538 N 0.62991 0.49019 0.99031 0.0
N1539 N 0.60621 0.58687 1.00021 0.0
H1540 H 0.67925 0.60071 0.97132 0.0
H1541 H 0.65318 0.61398 0.97706 0.0
H1542 H 0.58634 0.58405 1.00746 0.0
H1543 H 0.62452 0.60986 0.99967 0.0
H1544 H 0.61653 0.46909 0.99709 0.0
H1545 H 0.65188 0.49382 0.98574 0.0
H1546 H 0.56923 0.45729 0.99425 0.0
H1547 H 0.54609 0.47102 1.00426 0.0
C1548 C 0.48723 0.1131 0.98999 0.0
C1549 C 0.45499 0.10175 0.98514 0.0
C1550 C 0.44052 0.05245 1.00036 0.0
C1551 C 0.47322 0.06185 1.00257 0.0
N1552 N 0.52798 0.10043 0.99693 0.0
N1553 N 0.40081 0.05968 0.9841 0.0
C1554 C 0.49668 0.09217 0.99692 0.0
C1555 C 0.43152 0.0712 0.98998 0.0
N1556 N 0.50886 0.14397 0.98805 0.0
N1557 N 0.41804 0.02601 1.0087 0.0
H1558 H 0.39325 0.07286 0.97668 0.0
H1559 H 0.3834 0.03641 0.98534 0.0
H1560 H 0.42415 0.01254 0.01682 0.0
H1561 H 0.39402 0.01931 1.0092 0.0
H1562 H 0.53202 0.15422 0.99322 0.0
H1563 H 0.50285 0.15996 0.98281 0.0
H1564 H 0.54579 0.12067 0.9909 0.0
H1565 H 0.5357 0.0855 1.00138 0.0
C1566 C 0.64004 0.08141 0.99743 0.0
C1567 C 0.63968 0.10077 0.98314 0.0
C1568 C 0.58139 0.07267 0.98328 0.0
C1569 C 0.58146 0.05251 0.99738 0.0
N1570 N 0.61125 0.0334 0.0143 0.0
N1571 N 0.61074 0.11863 0.9644 0.0
C1572 C 0.61094 0.05588 1.00357 0.0
C1573 C 0.61058 0.09761 0.97673 0.0
N1574 N 0.6683 0.08804 1.00555 0.0
N1575 N 0.55355 0.06601 0.97465 0.0
H1576 H 0.63131 0.13581 0.9581 0.0
H1577 H 0.59075 0.12045 0.96131 0.0
H1578 H 0.53142 0.0497 0.97969 0.0
H1579 H 0.5522 0.07592 0.96217 0.0
H1580 H 0.66999 0.07702 0.01745 0.0
H1581 H 0.69007 0.10665 1.00142 0.0
H1582 H 0.63159 0.03204 0.01708 0.0
H1583 H 0.59068 0.01499 0.01968 0.0
C1584 C 0.90056 0.50798 0.97859 0.0
C1585 C 0.90094 0.53665 0.97781 0.0
C1586 C 0.95378 0.56217 0.99251 0.0
C1587 C 0.95449 0.5338 0.99203 0.0
N1588 N 0.93376 0.4851 0.97539 0.0
N1589 N 0.93187 0.59258 0.97962 0.0
C1590 C 0.92918 0.5079 0.9827 0.0
C1591 C 0.92867 0.56423 0.98355 0.0
N1592 N 0.87315 0.48079 0.97504 0.0
N1593 N 0.97695 0.58727 1.00176 0.0
H1594 H 0.9145 0.59527 0.97267 0.0
H1595 H 0.95304 0.61346 0.98151 0.0
H1596 H 0.99464 0.58598 1.009 0.0
H1597 H 0.97624 0.60758 1.00427 0.0
H1598 H 0.87142 0.45916 0.97677 0.0
H1599 H 0.85164 0.47991 0.97208 0.0
H1600 H 0.91676 0.46703 0.96718 0.0
H1601 H 0.95606 0.48699 0.9751 0.0
C1602 C 0.48831 0.38097 0.97584 0.0
C1603 C 0.46041 0.35321 0.98085 0.0
C1604 C 0.44983 0.38231 1.0047 0.0
C1605 C 0.47486 0.41067 0.9977 0.0
N1606 N 0.5127 0.43643 0.97284 0.0
N1607 N 0.41028 0.32936 0.99714 0.0
C1608 C 0.4925 0.40989 0.98211 0.0
C1609 C 0.43992 0.35433 0.99452 0.0
N1610 N 0.51149 0.37986 0.96569 0.0
N1611 N 0.43546 0.38184 0.02102 0.0
H1612 H 0.40127 0.30903 0.98923 0.0
H1613 H 0.3934 0.33015 1.00571 0.0
H1614 H 0.44269 0.40174 0.02891 0.0
H1615 H 0.41907 0.3614 0.02759 0.0
H1616 H 0.53352 0.39946 0.96319 0.0
H1617 H 0.5102 0.35906 0.96166 0.0
H1618 H 0.5234 0.43626 0.9603 0.0
H1619 H 0.51673 0.45832 0.97669 0.0
C1620 C 0.08958 0.6402 0.04505 0.0
C1621 C 0.1182 0.64392 0.0527 0.0
C1622 C 0.1052 0.59257 0.04032 0.0
C1623 C 0.0756 0.58847 0.03365 0.0
N1624 N 0.05137 0.61569 0.02042 0.0
N1625 N 0.15393 0.62415 0.058 0.0
C1626 C 0.07073 0.61419 0.0336 0.0
C1627 C 0.12631 0.62028 0.05035 0.0
N1628 N 0.08005 0.66129 0.04888 0.0
N1629 N 0.11436 0.57143 0.03584 0.0
H1630 H 0.1711 0.64493 0.06408 0.0
H1631 H 0.15938 0.60645 0.05922 0.0
H1632 H 0.10041 0.55133 0.02818 0.0
H1633 H 0.13701 0.57481 0.03821 0.0
H1634 H 0.05781 0.65781 0.04491 0.0
H1635 H 0.09299 0.68065 0.05746 0.0
H1636 H 0.04852 0.63498 0.01859 0.0
H1637 H 0.04319 0.59993 1.00935 0.0
C1638 C 0.37209 0.44331 0.04318 0.0
C1639 C 0.36188 0.46547 0.04356 0.0
C1640 C 0.41473 0.50617 0.03369 0.0
C1641 C 0.42561 0.48428 0.03361 0.0
N1642 N 0.41612 0.43349 0.04218 0.0
N1643 N 0.3702 0.51557 0.03476 0.0
C1644 C 0.40446 0.45306 0.03913 0.0
C1645 C 0.38221 0.49613 0.03736 0.0
N1646 N 0.35065 0.41281 0.04657 0.0
N1647 N 0.43599 0.53707 0.03189 0.0
H1648 H 0.34661 0.50902 0.03761 0.0
H1649 H 0.38256 0.53694 0.02813 0.0
H1650 H 0.4601 0.54551 0.0303 0.0
H1651 H 0.43039 0.55457 0.03379 0.0
H1652 H 0.35534 0.39475 0.04443 0.0
H1653 H 0.32703 0.40512 0.05004 0.0
H1654 H 0.4033 0.41175 0.04831 0.0
H1655 H 0.43985 0.44023 0.04011 0.0
C1656 C 0.52822 0.8901 0.04378 0.0
C1657 C 0.56068 0.89983 0.041 0.0
C1658 C 0.5651 0.94125 0.02065 0.0
C1659 C 0.53468 0.93532 0.02648 0.0
N1660 N 0.4897 0.9066 0.04679 0.0
N1661 N 0.61158 0.93736 0.02844 0.0
C1662 C 0.51672 0.91025 0.03879 0.0
C1663 C 0.5796 0.92605 0.02976 0.0
N1664 N 0.50821 0.86148 0.05105 0.0
N1665 N 0.57991 0.96088 1.00619 0.0
H1666 H 0.62317 0.92717 0.03515 0.0
H1667 H 0.62691 0.95838 0.02205 0.0
H1668 H 0.56949 0.97168 0.99897 0.0
H1669 H 0.60086 0.96395 1.00029 0.0
H1670 H 0.48366 0.8522 0.05168 0.0
H1671 H 0.51566 0.84572 0.05452 0.0
H1672 H 0.47773 0.89074 0.05738 0.0
H1673 H 0.4812 0.92158 0.04426 0.0
C1674 C 0.03733 0.26069 0.36883 0.0
C1675 C 0.0294 0.23113 0.37599 0.0
C1676 C 0.08184 0.24022 0.36684 0.0
C1677 C 0.09158 0.27154 0.36241 0.0
N1678 N 0.07984 0.31335 0.36488 0.0
N1679 N 0.04801 0.19651 0.38613 0.0
C1680 C 0.06962 0.28232 0.36485 0.0
C1681 C 0.05258 0.2217 0.37602 0.0
N1682 N 0.01421 0.2682 0.36582 0.0
N1683 N 0.10101 0.2283 0.36285 0.0
H1684 H 0.02811 0.18353 0.39437 0.0
H1685 H 0.0657 0.19071 0.38812 0.0
H1686 H 0.12289 0.24163 0.35672 0.0
H1687 H 0.09378 0.20477 0.36391 0.0
H1688 H 0.01869 0.28863 0.35918 0.0
H1689 H 0.99019 0.25264 0.36819 0.0
H1690 H 0.06524 0.32235 0.36854 0.0
H1691 H 0.10348 0.33015 0.3627 0.0
C1692 C 0.77532 0.82486 0.37423 0.0
C1693 C 0.768 0.79413 0.37827 0.0
C1694 C 0.71425 0.77475 0.36549 0.0
C1695 C 0.71994 0.80575 0.36397 0.0
N1696 N 0.75567 0.86036 0.37021 0.0
N1697 N 0.72917 0.73967 0.37982 0.0
C1698 C 0.7505 0.83086 0.36912 0.0
C1699 C 0.73714 0.769 0.37437 0.0
N1700 N 0.80621 0.84842 0.37501 0.0
N1701 N 0.68722 0.75072 0.35789 0.0
H1702 H 0.74524 0.73443 0.38623 0.0
H1703 H 0.706 0.72101 0.37939 0.0
H1704 H 0.67022 0.75388 0.35082 0.0
H1705 H 0.68328 0.72816 0.35678 0.0
H1706 H 0.81354 0.87075 0.37022 0.0
H1707 H 0.82499 0.8449 0.37872 0.0
H1708 H 0.77608 0.87887 0.37602 0.0
H1709 H 0.73846 0.86581 0.36673 0.0
C1710 C 0.20429 0.95585 0.39464 0.0
C1711 C 0.21969 0.98347 0.38407 0.0
C1712 C 0.219 0.9535 0.35662 0.0
C1713 C 0.2015 0.92549 0.36678 0.0
N1714 N 0.17178 0.89995 0.39449 0.0
N1715 N 0.2375 0.00866 0.35439 0.0
C1716 C 0.19263 0.92666 0.38555 0.0
C1717 C 0.22565 0.98228 0.36484 0.0
N1718 N 0.20112 0.9575 0.41348 0.0
N1719 N 0.23089 0.95292 0.33952 0.0
H1720 H 0.24394 0.03039 0.36007 0.0
H1721 H 0.23875 0.00866 0.3399 0.0
H1722 H 0.22702 0.93246 0.33324 0.0
H1723 H 0.24682 0.97275 0.33231 0.0
H1724 H 0.19387 0.93858 0.42231 0.0
H1725 H 0.20802 0.97831 0.42057 0.0
H1726 H 0.16152 0.8996 0.40727 0.0
H1727 H 0.16224 0.87801 0.38846 0.0
C1728 C 0.59453 0.69725 0.30935 0.0
C1729 C 0.56165 0.68609 0.3113 0.0
C1730 C 0.57272 0.73745 0.32209 0.0
C1731 C 0.60625 0.749 0.32063 0.0
N1732 N 0.64598 0.74167 0.30445 0.0
N1733 N 0.5192 0.69305 0.32274 0.0
C1734 C 0.61652 0.7294 0.31211 0.0
C1735 C 0.55072 0.70549 0.31861 0.0
N1736 N 0.60483 0.67695 0.30487 0.0
N1737 N 0.56153 0.75753 0.32488 0.0
H1738 H 0.50237 0.66991 0.32 0.0
H1739 H 0.51019 0.70469 0.33047 0.0
H1740 H 0.57603 0.78143 0.32587 0.0
H1741 H 0.53762 0.75115 0.32398 0.0
H1742 H 0.62859 0.6827 0.30563 0.0
H1743 H 0.58934 0.6534 0.30226 0.0
H1744 H 0.65414 0.72866 0.29742 0.0
H1745 H 0.6597 0.76499 0.30145 0.0
C1746 C 0.29112 0.84598 0.32163 0.0
C1747 C 0.31327 0.87634 0.31568 0.0
C1748 C 0.27928 0.89513 0.32872 0.0
C1749 C 0.25419 0.86409 0.33135 0.0
N1750 N 0.23701 0.80934 0.32952 0.0
N1751 N 0.32764 0.93 0.31234 0.0
C1752 C 0.26044 0.83933 0.32779 0.0
C1753 C 0.30724 0.90103 0.31901 0.0
N1754 N 0.29956 0.82352 0.32164 0.0
N1755 N 0.27677 0.9191 0.33619 0.0
H1756 H 0.34861 0.93539 0.3054 0.0
H1757 H 0.32252 0.94803 0.31243 0.0
H1758 H 0.25774 0.91519 0.34462 0.0
H1759 H 0.29516 0.9421 0.33618 0.0
H1760 H 0.28599 0.8019 0.32783 0.0
H1761 H 0.32166 0.82754 0.31701 0.0
H1762 H 0.23865 0.79038 0.3247 0.0
H1763 H 0.21539 0.80362 0.33521 0.0
C1764 C 0.1037 0.40392 0.31311 0.0
C1765 C 0.12835 0.4349 0.31044 0.0
C1766 C 0.16637 0.4235 0.32618 0.0
C1767 C 0.14238 0.3915 0.32762 0.0
N1768 N 0.08749 0.35203 0.32374 0.0
N1769 N 0.18343 0.47423 0.31279 0.0
C1770 C 0.11087 0.38201 0.32135 0.0
C1771 C 0.15966 0.44473 0.31667 0.0
N1772 N 0.07318 0.39578 0.30826 0.0
N1773 N 0.19569 0.43403 0.33397 0.0
H1774 H 0.17934 0.4909 0.3066 0.0
H1775 H 0.20752 0.48178 0.31445 0.0
H1776 H 0.20355 0.41961 0.33912 0.0
H1777 H 0.21207 0.45741 0.33619 0.0
H1778 H 0.05326 0.37461 0.31138 0.0
H1779 H 0.06728 0.41097 0.30172 0.0
H1780 H 0.06544 0.34166 0.31712 0.0
H1781 H 0.09037 0.3375 0.33282 0.0
C1782 C 0.28537 0.42914 0.31833 0.0
C1783 C 0.31181 0.42452 0.31744 0.0
C1784 C 0.27917 0.37224 0.33031 0.0
C1785 C 0.25191 0.37596 0.32935 0.0
N1786 N 0.22879 0.40385 0.31466 0.0
N1787 N 0.33322 0.39009 0.32016 0.0
C1788 C 0.25481 0.40341 0.32147 0.0
C1789 C 0.30868 0.39571 0.32296 0.0
N1790 N 0.28923 0.45805 0.31576 0.0
N1791 N 0.27675 0.34608 0.33815 0.0
H1792 H 0.35517 0.40665 0.31488 0.0
H1793 H 0.3312 0.36835 0.32175 0.0
H1794 H 0.25538 0.32791 0.34309 0.0
H1795 H 0.29627 0.34348 0.34121 0.0
H1796 H 0.27082 0.46283 0.31782 0.0
H1797 H 0.31141 0.47758 0.31341 0.0
H1798 H 0.2305 0.42206 0.30661 0.0
H1799 H 0.20588 0.385 0.31542 0.0
C1800 C 0.57232 0.84507 0.30416 0.0
C1801 C 0.56985 0.87146 0.30913 0.0
C1802 C 0.61823 0.89098 0.32837 0.0
C1803 C 0.62022 0.86396 0.32406 0.0
N1804 N 0.60597 0.8222 0.30196 0.0
N1805 N 0.58673 0.91657 0.32864 0.0
C1806 C 0.59883 0.84255 0.31055 0.0
C1807 C 0.59189 0.89365 0.32191 0.0
N1808 N 0.54939 0.82227 0.29321 0.0
N1809 N 0.64239 0.91492 0.33802 0.0
H1810 H 0.5675 0.91904 0.32447 0.0
H1811 H 0.59967 0.93134 0.33961 0.0
H1812 H 0.66079 0.91311 0.34421 0.0
H1813 H 0.64499 0.93697 0.3392 0.0
H1814 H 0.54741 0.80057 0.29132 0.0
H1815 H 0.53091 0.8241 0.28706 0.0
H1816 H 0.59393 0.80902 0.29027 0.0
H1817 H 0.6256 0.82013 0.3055 0.0
C1818 C 0.15605 0.71679 0.30649 0.0
C1819 C 0.12956 0.6886 0.31254 0.0
C1820 C 0.12103 0.71745 0.33757 0.0
C1821 C 0.14413 0.74596 0.32964 0.0
N1822 N 0.17947 0.77233 0.30393 0.0
N1823 N 0.08225 0.66365 0.33145 0.0
C1824 C 0.16025 0.74551 0.31324 0.0
C1825 C 0.11076 0.6893 0.32747 0.0
N1826 N 0.1782 0.71626 0.29502 0.0
N1827 N 0.10898 0.71699 0.35476 0.0
H1828 H 0.07289 0.64309 0.32374 0.0
H1829 H 0.06636 0.66398 0.34106 0.0
H1830 H 0.11596 0.73709 0.36254 0.0
H1831 H 0.09443 0.69652 0.36191 0.0
H1832 H 0.19947 0.73616 0.29167 0.0
H1833 H 0.17712 0.69572 0.29063 0.0
H1834 H 0.18887 0.77261 0.29084 0.0
H1835 H 0.18413 0.79409 0.30855 0.0
C1836 C 0.74555 0.98098 0.3681 0.0
C1837 C 0.75906 0.98257 0.38591 0.0
C1838 C 0.73124 0.9258 0.3867 0.0
C1839 C 0.72434 0.92457 0.36733 0.0
N1840 N 0.72357 0.95193 0.33969 0.0
N1841 N 0.73959 0.95546 0.41486 0.0
C1842 C 0.73125 0.95246 0.35801 0.0
C1843 C 0.7449 0.95467 0.39626 0.0
N1844 N 0.74056 0.00445 0.36254 0.0
N1845 N 0.72562 0.8997 0.39608 0.0
H1846 H 0.74417 0.97601 0.42154 0.0
H1847 H 0.72657 0.93549 0.42277 0.0
H1848 H 0.71572 0.87791 0.3898 0.0
H1849 H 0.73329 0.90038 0.40976 0.0
H1850 H 0.72809 0.00345 0.35046 0.0
H1851 H 0.74449 0.02257 0.37159 0.0
H1852 H 0.73162 0.97204 0.33181 0.0
H1853 H 0.71029 0.93138 0.3323 0.0
C1854 C 0.05332 0.82631 0.37268 0.0
C1855 C 0.03001 0.79581 0.37769 0.0
C1856 C 0.06483 0.77672 0.36649 0.0
C1857 C 0.09049 0.80769 0.3646 0.0
N1858 N 0.10863 0.86258 0.36748 0.0
N1859 N 0.01449 0.74184 0.381 0.0
C1860 C 0.08452 0.83269 0.36795 0.0
C1861 C 0.03596 0.77093 0.37497 0.0
N1862 N 0.04552 0.84922 0.37218 0.0
N1863 N 0.0676 0.75276 0.35927 0.0
H1864 H 0.99283 0.7365 0.38702 0.0
H1865 H 0.01929 0.72361 0.38138 0.0
H1866 H 0.08726 0.75674 0.35145 0.0
H1867 H 0.04898 0.72988 0.35871 0.0
H1868 H 0.06027 0.8711 0.36658 0.0
H1869 H 0.023 0.84538 0.37571 0.0
H1870 H 0.10677 0.88142 0.37229 0.0
H1871 H 0.131 0.86826 0.36308 0.0
C1872 C 0.21068 0.22396 0.3641 0.0
C1873 C 0.2242 0.23233 0.3822 0.0
C1874 C 0.20401 0.26836 0.3852 0.0
C1875 C 0.19429 0.26344 0.36623 0.0
N1876 N 0.17052 0.2219 0.34364 0.0
N1877 N 0.23758 0.26565 0.40918 0.0
C1878 C 0.19299 0.23746 0.35695 0.0
C1879 C 0.2221 0.25558 0.39247 0.0
N1880 N 0.21412 0.20265 0.35379 0.0
N1881 N 0.19152 0.28098 0.39697 0.0
H1882 H 0.25127 0.25687 0.41492 0.0
H1883 H 0.23925 0.28471 0.41636 0.0
H1884 H 0.17277 0.28404 0.39265 0.0
H1885 H 0.19552 0.2831 0.41132 0.0
H1886 H 0.20812 0.19861 0.33969 0.0
H1887 H 0.22526 0.19082 0.35884 0.0
H1888 H 0.16635 0.20105 0.33766 0.0
H1889 H 0.15192 0.22609 0.34153 0.0
C1890 C 0.70686 0.56769 0.6962 0.0
C1891 C 0.70741 0.56406 0.71575 0.0
C1892 C 0.76548 0.59632 0.7154 0.0
C1893 C 0.76392 0.60413 0.69665 0.0
N1894 N 0.7387 0.57621 0.66919 0.0
N1895 N 0.73772 0.57396 0.74425 0.0
C1896 C 0.73595 0.58468 0.68667 0.0
C1897 C 0.73694 0.57786 0.72546 0.0
N1898 N 0.67879 0.55481 0.68658 0.0
N1899 N 0.7942 0.60324 0.72264 0.0
H1900 H 0.71742 0.55976 0.75195 0.0
H1901 H 0.75821 0.58635 0.75232 0.0
H1902 H 0.81452 0.61362 0.71444 0.0
H1903 H 0.79723 0.59558 0.73557 0.0
H1904 H 0.67773 0.55912 0.67244 0.0
H1905 H 0.65674 0.54192 0.69298 0.0
H1906 H 0.71952 0.55956 0.66139 0.0
H1907 H 0.76115 0.5814 0.66475 0.0
C1908 C 0.44227 0.1605 0.71091 0.0
C1909 C 0.43537 0.12949 0.71323 0.0
C1910 C 0.38251 0.11091 0.69928 0.0
C1911 C 0.38764 0.14175 0.69942 0.0
N1912 N 0.42223 0.19582 0.70772 0.0
N1913 N 0.39795 0.07465 0.71125 0.0
C1914 C 0.41753 0.16655 0.70579 0.0
C1915 C 0.40532 0.10452 0.70768 0.0
N1916 N 0.47281 0.18433 0.71319 0.0
N1917 N 0.35592 0.08773 0.69079 0.0
H1918 H 0.41403 0.06903 0.71725 0.0
H1919 H 0.37522 0.0556 0.70959 0.0
H1920 H 0.33888 0.09156 0.68436 0.0
H1921 H 0.35233 0.06551 0.68843 0.0
H1922 H 0.48014 0.20724 0.70966 0.0
H1923 H 0.49161 0.18079 0.7168 0.0
H1924 H 0.44154 0.21363 0.7148 0.0
H1925 H 0.40605 0.202 0.70308 0.0
C1926 C 0.86462 0.28655 0.72618 0.0
C1927 C 0.88064 0.31413 0.71564 0.0
C1928 C 0.8843 0.2847 0.68919 0.0
C1929 C 0.86599 0.25673 0.69919 0.0
N1930 N 0.83303 0.23058 0.72578 0.0
N1931 N 0.90184 0.33958 0.68637 0.0
C1932 C 0.85464 0.25752 0.71732 0.0
C1933 C 0.8893 0.31324 0.69689 0.0
N1934 N 0.85937 0.28811 0.74477 0.0
N1935 N 0.8982 0.28425 0.67277 0.0
H1936 H 0.90673 0.36109 0.69173 0.0
H1937 H 0.90521 0.33971 0.67204 0.0
H1938 H 0.89536 0.26388 0.66683 0.0
H1939 H 0.91464 0.30419 0.66583 0.0
H1940 H 0.85132 0.26918 0.75367 0.0
H1941 H 0.86548 0.30888 0.75168 0.0
H1942 H 0.82119 0.22993 0.73799 0.0
H1943 H 0.82444 0.20874 0.71972 0.0
C1944 C 0.2315 0.02585 0.66414 0.0
C1945 C 0.23635 0.01911 0.6457 0.0
C1946 C 0.27328 0.07464 0.64072 0.0
C1947 C 0.27054 0.08094 0.65985 0.0
N1948 N 0.22885 0.06461 0.68243 0.0
N1949 N 0.26372 0.03683 0.61643 0.0
C1950 C 0.24497 0.05717 0.66995 0.0
C1951 C 0.25795 0.04341 0.63402 0.0
N1952 N 0.21341 0.00236 0.67613 0.0
N1953 N 0.286 0.09851 0.62832 0.0
H1954 H 0.25145 0.01474 0.61046 0.0
H1955 H 0.28234 0.05286 0.60826 0.0
H1956 H 0.29235 0.12104 0.63211 0.0
H1957 H 0.28599 0.09557 0.61395 0.0
H1958 H 0.21137 0.00639 0.69021 0.0
H1959 H 0.20316 0.97896 0.67241 0.0
H1960 H 0.20822 0.04795 0.68896 0.0
H1961 H 0.23163 0.08671 0.68264 0.0
C1962 C 0.97673 0.22625 0.66099 0.0
C1963 C 0.97677 0.20423 0.64841 0.0
C1964 C 0.91845 0.17341 0.65029 0.0
C1965 C 0.91825 0.19511 0.66333 0.0
N1966 N 0.94688 0.24766 0.67533 0.0
N1967 N 0.94817 0.1546 0.63281 0.0
C1968 C 0.94736 0.22304 0.66708 0.0
C1969 C 0.94781 0.17706 0.64372 0.0
N1970 N 0.00496 0.24983 0.66768 0.0
N1971 N 0.89065 0.15165 0.64216 0.0
H1972 H 0.96854 0.1573 0.62629 0.0
H1973 H 0.9286 0.1324 0.63117 0.0
H1974 H 0.86852 0.14769 0.64633 0.0
H1975 H 0.88946 0.1388 0.63038 0.0
H1976 H 0.00651 0.26458 0.6785 0.0
H1977 H 0.02695 0.25276 0.66372 0.0
H1978 H 0.9666 0.26992 0.67604 0.0
H1979 H 0.92623 0.24639 0.68043 0.0
C1980 C 0.78014 0.74339 0.6358 0.0
C1981 C 0.78539 0.77095 0.64457 0.0
C1982 C 0.81746 0.76369 0.66855 0.0
C1983 C 0.81346 0.73668 0.65892 0.0
N1984 N 0.80852 0.71772 0.62714 0.0
N1985 N 0.81515 0.81144 0.66715 0.0
C1986 C 0.79953 0.73093 0.64076 0.0
C1987 C 0.80542 0.78214 0.66054 0.0
N1988 N 0.75783 0.72985 0.62202 0.0
N1989 N 0.83491 0.77353 0.68445 0.0
H1990 H 0.80755 0.82595 0.66152 0.0
H1991 H 0.83276 0.82255 0.67727 0.0
H1992 H 0.85284 0.76861 0.68706 0.0
H1993 H 0.83354 0.78885 0.69384 0.0
H1994 H 0.75237 0.70854 0.61605 0.0
H1995 H 0.74289 0.73836 0.61806 0.0
H1996 H 0.79979 0.71447 0.61352 0.0
H1997 H 0.82895 0.71602 0.62854 0.0
C1998 C 0.96753 0.73836 0.65113 0.0
C1999 C 0.978 0.77039 0.64957 0.0
C2000 C 0.92698 0.76192 0.66136 0.0
C2001 C 0.91531 0.72931 0.66182 0.0
N2002 N 0.924 0.6863 0.65551 0.0
N2003 N 0.97165 0.81409 0.65729 0.0
C2004 C 0.93571 0.71755 0.65662 0.0
C2005 C 0.95892 0.78259 0.65602 0.0
N2006 N 0.98834 0.72792 0.64768 0.0
N2007 N 0.9068 0.77295 0.66492 0.0
H2008 H 0.99477 0.82981 0.65312 0.0
H2009 H 0.96051 0.82479 0.66384 0.0
H2010 H 0.88366 0.7586 0.66923 0.0
H2011 H 0.91213 0.79572 0.66265 0.0
H2012 H 0.98375 0.70561 0.65075 0.0
H2013 H 0.01151 0.74237 0.64308 0.0
H2014 H 0.93546 0.67598 0.64889 0.0
H2015 H 0.90198 0.67031 0.66072 0.0
C2016 C 0.26893 0.22706 0.6469 0.0
C2017 C 0.23601 0.2051 0.64591 0.0
C2018 C 0.24666 0.16413 0.65599 0.0
C2019 C 0.27955 0.18624 0.65837 0.0
N2020 N 0.32098 0.24003 0.6586 0.0
N2021 N 0.1927 0.15469 0.65387 0.0
C2022 C 0.29033 0.21814 0.65461 0.0
C2023 C 0.22465 0.17432 0.65196 0.0
N2024 N 0.2799 0.25617 0.63985 0.0
N2025 N 0.23644 0.13316 0.65644 0.0
H2026 H 0.17586 0.16126 0.65077 0.0
H2027 H 0.18319 0.13308 0.66025 0.0
H2028 H 0.25186 0.12475 0.65835 0.0
H2029 H 0.2134 0.11601 0.65294 0.0
H2030 H 0.3039 0.27209 0.63798 0.0
H2031 H 0.26485 0.26376 0.63467 0.0
H2032 H 0.32958 0.26385 0.65807 0.0
H2033 H 0.33704 0.23432 0.66429 0.0
C2034 C 0.77757 0.02803 0.65302 0.0
C2035 C 0.80107 0.02368 0.64414 0.0
C2036 C 0.84268 0.07394 0.65676 0.0
C2037 C 0.81847 0.07891 0.66426 0.0
N2038 N 0.76793 0.05251 0.67909 0.0
N2039 N 0.85631 0.04152 0.6378 0.0
C2040 C 0.78714 0.05378 0.66499 0.0
C2041 C 0.83383 0.04631 0.64617 0.0
N2042 N 0.746 0.00799 0.64979 0.0
N2043 N 0.87381 0.09416 0.66104 0.0
H2044 H 0.85091 0.02073 0.63116 0.0
H2045 H 0.88013 0.0584 0.63665 0.0
H2046 H 0.88098 0.11346 0.66962 0.0
H2047 H 0.89259 0.09072 0.65752 0.0
H2048 H 0.72826 0.0121 0.65478 0.0
H2049 H 0.73773 0.98902 0.64072 0.0
H2050 H 0.74546 0.03342 0.68141 0.0
H2051 H 0.77706 0.06842 0.69007 0.0
C2052 C 0.4233 0.31842 0.69871 0.0
C2053 C 0.43337 0.32036 0.71753 0.0
C2054 C 0.40041 0.26408 0.72 0.0
C2055 C 0.39529 0.26128 0.70038 0.0
N2056 N 0.40272 0.28727 0.67076 0.0
N2057 N 0.40784 0.2969 0.74643 0.0
C2058 C 0.40709 0.28887 0.6896 0.0
C2059 C 0.41505 0.29374 0.72849 0.0
N2060 N 0.4231 0.3433 0.6909 0.0
N2061 N 0.39294 0.23873 0.73067 0.0
H2062 H 0.41424 0.31864 0.75213 0.0
H2063 H 0.3921 0.27805 0.75448 0.0
H2064 H 0.38432 0.21666 0.72504 0.0
H2065 H 0.39879 0.24046 0.7448 0.0
H2066 H 0.41346 0.34264 0.67779 0.0
H2067 H 0.42743 0.36264 0.6989 0.0
H2068 H 0.414 0.30669 0.66222 0.0
H2069 H 0.38981 0.26647 0.66354 0.0
C2070 C 0.69974 0.10707 0.70775 0.0
C2071 C 0.69832 0.13322 0.71443 0.0
C2072 C 0.7525 0.16765 0.70295 0.0
C2073 C 0.75572 0.14143 0.69807 0.0
N2074 N 0.73062 0.08619 0.6941 0.0
N2075 N 0.72351 0.1884 0.7195 0.0
C2076 C 0.7286 0.1112 0.7 0.0
C2077 C 0.72472 0.16347 0.71228 0.0
N2078 N 0.6733 0.07819 0.70872 0.0
N2079 N 0.77513 0.1966 0.69788 0.0
H2080 H 0.70295 0.18674 0.72514 0.0
H2081 H 0.74335 0.21043 0.72103 0.0
H2082 H 0.79447 0.20012 0.69031 0.0
H2083 H 0.77291 0.21633 0.69897 0.0
H2084 H 0.67108 0.05846 0.70222 0.0
H2085 H 0.65258 0.07383 0.71556 0.0
H2086 H 0.71477 0.06322 0.69749 0.0
H2087 H 0.74854 0.08917 0.68513 0.0
C2088 C 0.90122 0.59353 0.71057 0.0
C2089 C 0.8773 0.56194 0.71124 0.0
C2090 C 0.84045 0.57365 0.69453 0.0
C2091 C 0.86519 0.60518 0.69268 0.0
N2092 N 0.92126 0.64248 0.6949 0.0
N2093 N 0.82639 0.5204 0.70097 0.0
C2094 C 0.89618 0.61435 0.69958 0.0
C2095 C 0.84766 0.55152 0.70223 0.0
N2096 N 0.9286 0.60386 0.72074 0.0
N2097 N 0.80968 0.565 0.69015 0.0
H2098 H 0.83046 0.50358 0.70697 0.0
H2099 H 0.80598 0.51114 0.69269 0.0
H2100 H 0.80262 0.58002 0.68482 0.0
H2101 H 0.79043 0.5434 0.69346 0.0
H2102 H 0.94518 0.62731 0.72259 0.0
H2103 H 0.93361 0.58918 0.72861 0.0
H2104 H 0.94486 0.64923 0.6979 0.0
H2105 H 0.91876 0.65756 0.68608 0.0
C2106 C 0.4742 0.99049 0.1679 0.0
C2107 C 0.48003 0.96567 0.17161 0.0
C2108 C 0.50325 0.9715 0.14041 0.0
C2109 C 0.49734 0.99626 0.13672 0.0
N2110 N 0.47107 0.02478 0.14497 0.0
N2111 N 0.49394 0.92829 0.16035 0.0
C2112 C 0.48072 0.00418 0.14985 0.0
C2113 C 0.49262 0.95482 0.15749 0.0
N2114 N 0.46392 0.00199 0.18191 0.0
N2115 N 0.52002 0.96469 0.12783 0.0
H2116 H 0.48655 0.91572 0.17271 0.0
H2117 H 0.49992 0.91732 0.15005 0.0
H2118 H 0.52678 0.9754 0.11486 0.0
H2119 H 0.5286 0.94961 0.13052 0.0
H2120 H 0.46277 0.0223 0.1808 0.0
H2121 H 0.45857 0.99244 0.19522 0.0
H2122 H 0.45611 0.02933 0.1531 0.0
H2123 H 0.47575 0.03536 0.13193 0.0
C2124 C 0.02834 0.49561 0.16046 0.0
C2125 C 0.02661 0.51679 0.17309 0.0
C2126 C 0.99967 0.53059 0.14919 0.0
C2127 C 0.9974 0.50637 0.1376 0.0
N2128 N 0.00611 0.463 0.13304 0.0
N2129 N 0.00586 0.55074 0.18059 0.0
C2130 C 0.01093 0.48815 0.14341 0.0
C2131 C 0.01106 0.53338 0.16774 0.0
N2132 N 0.0473 0.48327 0.16454 0.0
N2133 N 0.99168 0.55144 0.14231 0.0
H2134 H 0.01311 0.55286 0.19448 0.0
H2135 H 0.99169 0.5606 0.17793 0.0
H2136 H 0.98374 0.55043 0.12865 0.0
H2137 H 0.99596 0.57143 0.14951 0.0
H2138 H 0.0521 0.47023 0.15505 0.0
H2139 H 0.06062 0.48843 0.17682 0.0
H2140 H 0.01243 0.44692 0.13761 0.0
H2141 H 0.99341 0.45669 0.12051 0.0
C2142 C 0.50453 0.53187 0.16488 0.0
C2143 C 0.48662 0.50635 0.17685 0.0
C2144 C 0.48406 0.47049 0.15242 0.0
C2145 C 0.50581 0.49616 0.14163 0.0
N2146 N 0.5395 0.55159 0.13825 0.0
N2147 N 0.46228 0.45145 0.18301 0.0
C2148 C 0.51664 0.52699 0.14796 0.0
C2149 C 0.47696 0.47561 0.17085 0.0
N2150 N 0.5094 0.56064 0.16954 0.0
N2151 N 0.46967 0.44126 0.14488 0.0
H2152 H 0.45672 0.45419 0.19665 0.0
H2153 H 0.45795 0.42912 0.18007 0.0
H2154 H 0.47412 0.43673 0.13134 0.0
H2155 H 0.45118 0.42202 0.15133 0.0
H2156 H 0.51941 0.5795 0.16054 0.0
H2157 H 0.50073 0.56499 0.1818 0.0
H2158 H 0.55088 0.57434 0.14325 0.0
H2159 H 0.54899 0.54907 0.12579 0.0
C2160 C 0.9758 0.46873 0.86439 0.0
C2161 C 0.98098 0.49326 0.85223 0.0
C2162 C 0.01406 0.53143 0.87598 0.0
C2163 C 0.01247 0.50707 0.88701 0.0
N2164 N 0.99469 0.45259 0.89103 0.0
N2165 N 0.00812 0.54804 0.84529 0.0
C2166 C 0.99395 0.47566 0.88109 0.0
C2167 C 1.00082 0.52468 0.85774 0.0
N2168 N 0.95305 0.43891 0.86013 0.0
N2169 N 0.02753 0.56088 0.88315 0.0
H2170 H 0.99895 0.54409 0.83176 0.0
H2171 H 0.02528 0.57109 0.84786 0.0
H2172 H 0.03726 0.56661 0.89655 0.0
H2173 H 0.02642 0.57893 0.87652 0.0
H2174 H 0.94585 0.42047 0.86933 0.0
H2175 H 0.93924 0.43302 0.84801 0.0
H2176 H 0.9845 0.42973 0.88632 0.0
H2177 H 0.0077 0.45668 0.90335 0.0
C2178 C 0.54723 0.50333 0.86832 0.0
C2179 C 0.52474 0.48251 0.85513 0.0
C2180 C 0.48198 0.46875 0.87763 0.0
C2181 C 0.50365 0.49278 0.88965 0.0
N2182 N 0.55654 0.53526 0.89587 0.0
N2183 N 0.46989 0.44891 0.84606 0.0
C2184 C 0.53628 0.51062 0.88492 0.0
C2185 C 0.49187 0.466 0.85949 0.0
N2186 N 0.57901 0.51556 0.86516 0.0
N2187 N 0.45208 0.44818 0.88369 0.0
H2188 H 0.47595 0.4468 0.83243 0.0
H2189 H 0.44549 0.4392 0.84796 0.0
H2190 H 0.44415 0.44928 0.89702 0.0
H2191 H 0.43634 0.4283 0.87624 0.0
H2192 H 0.59649 0.52837 0.87508 0.0
H2193 H 0.58782 0.51054 0.8532 0.0
H2194 H 0.57973 0.55121 0.89205 0.0
H2195 H 0.54947 0.54119 0.90819 0.0
C2196 C 0.50193 0.04917 0.86546 0.0
C2197 C 0.52173 0.04317 0.85367 0.0
C2198 C 0.52733 0.01209 0.87836 0.0
C2199 C 0.50382 0.01421 0.88889 0.0
N2200 N 0.4669 0.03305 0.89219 0.0
N2201 N 0.55099 0.01642 0.84804 0.0
C2202 C 0.49082 0.03255 0.88246 0.0
C2203 C 0.53412 0.0242 0.85996 0.0
N2204 N 0.49424 0.07118 0.86052 0.0
N2205 N 0.5434 0.99875 0.88607 0.0
H2206 H 0.55635 0.02462 0.83443 0.0
H2207 H 0.55752 -0.00012 0.85111 0.0
H2208 H 0.53898 0.98975 0.89954 0.0
H2209 H 0.56303 0.99925 0.87988 0.0
H2210 H 0.48256 0.0789 0.86932 0.0
H2211 H 0.50206 0.08383 0.8482 0.0
H2212 H 0.4538 0.04288 0.88712 0.0
H2213 H 0.45865 0.0218 0.9049 0.0
C2214 C 0.17168 0.29418 0.49518 0.0
C2215 C 0.15196 0.29965 0.50736 0.0
C2216 C 0.14558 0.33113 0.48326 0.0
C2217 C 0.16893 0.32946 0.47227 0.0
N2218 N 0.20669 0.31169 0.46845 0.0
N2219 N 0.12311 0.32651 0.51396 0.0
C2220 C 0.18249 0.31137 0.47833 0.0
C2221 C 0.1395 0.31882 0.50162 0.0
N2222 N 0.17954 0.27208 0.49955 0.0
N2223 N 0.12873 0.34398 0.47597 0.0
H2224 H 0.1183 0.31819 0.52757 0.0
H2225 H 0.11661 0.34318 0.51124 0.0
H2226 H 0.13233 0.35288 0.46249 0.0
H2227 H 0.10918 0.34306 0.48255 0.0
H2228 H 0.19108 0.26471 0.4904 0.0
H2229 H 0.17195 0.25901 0.51173 0.0
H2230 H 0.21996 0.30187 0.47326 0.0
H2231 H 0.21522 0.32382 0.45603 0.0
C2232 C 0.68867 0.82862 0.49203 0.0
C2233 C 0.68647 0.85018 0.50408 0.0
C2234 C 0.65753 0.86098 0.47995 0.0
C2235 C 0.65597 0.83646 0.46897 0.0
N2236 N 0.66687 0.79434 0.46525 0.0
N2237 N 0.66495 0.88375 0.51072 0.0
C2238 C 0.67081 0.81962 0.47514 0.0
C2239 C 0.66997 0.86565 0.49835 0.0
N2240 N 0.70843 0.81737 0.49651 0.0
N2241 N 0.64788 0.88031 0.4726 0.0
H2242 H 0.67336 0.88756 0.52442 0.0
H2243 H 0.65009 0.8928 0.50791 0.0
H2244 H 0.63887 0.87773 0.45908 0.0
H2245 H 0.65161 0.90056 0.47923 0.0
H2246 H 0.71358 0.80412 0.4874 0.0
H2247 H 0.72202 0.82363 0.50872 0.0
H2248 H 0.67417 0.77915 0.47012 0.0
H2249 H 0.65398 0.787 0.45281 0.0
C2250 C 0.14812 0.81516 0.50275 0.0
C2251 C 0.1573 0.84536 0.50955 0.0
C2252 C 0.18701 0.86839 0.48089 0.0
C2253 C 0.17718 0.83812 0.47392 0.0
N2254 N 0.14249 0.78277 0.47599 0.0
N2255 N 0.17925 0.90003 0.5038 0.0
C2256 C 0.15583 0.8115 0.48418 0.0
C2257 C 0.1748 0.87179 0.49817 0.0
N2258 N 0.13327 0.79013 0.51429 0.0
N2259 N 0.20902 0.89384 0.47137 0.0
H2260 H 0.17067 0.90331 0.51642 0.0
H2261 H 0.18895 0.91958 0.49534 0.0
H2262 H 0.21821 0.89233 0.45855 0.0
H2263 H 0.21987 0.91634 0.47675 0.0
H2264 H 0.12932 0.7681 0.51084 0.0
H2265 H 0.12693 0.7918 0.52794 0.0
H2266 H 0.12429 0.7628 0.48202 0.0
H2267 H 0.14756 0.77933 0.46235 0.0
C2268 C 0.65804 0.80717 0.19535 0.0
C2269 C 0.66649 0.83278 0.1834 0.0
C2270 C 0.69679 0.8687 0.20877 0.0
C2271 C 0.69209 0.84313 0.21978 0.0
N2272 N 0.67095 0.78793 0.22309 0.0
N2273 N 0.69694 0.88794 0.1778 0.0
C2274 C 0.67326 0.81227 0.21301 0.0
C2275 C 0.68655 0.86361 0.18988 0.0
N2276 N 0.63492 0.77809 0.18998 0.0
N2277 N 0.71038 0.89776 0.21653 0.0
H2278 H 0.6901 0.88521 0.16382 0.0
H2279 H 0.71438 0.91052 0.18124 0.0
H2280 H 0.71795 0.90227 0.2304 0.0
H2281 H 0.71141 0.91677 0.20979 0.0
H2282 H 0.62537 0.75903 0.19884 0.0
H2283 H 0.62317 0.77353 0.17716 0.0
H2284 H 0.66053 0.7653 0.21794 0.0
H2285 H 0.68166 0.79066 0.23612 0.0
C2286 C 0.15423 0.79914 0.19343 0.0
C2287 C 0.18669 0.81752 0.18845 0.0
C2288 C 0.19762 0.84737 0.21748 0.0
C2289 C 0.16559 0.82771 0.22291 0.0
N2290 N 0.11565 0.78039 0.21831 0.0
N2291 N 0.24065 0.85461 0.19722 0.0
C2292 C 0.14457 0.80217 0.21156 0.0
C2293 C 0.20885 0.84031 0.20095 0.0
N2294 N 0.13235 0.77978 0.18058 0.0
N2295 N 0.21694 0.8734 0.22772 0.0
H2296 H 0.2497 0.84986 0.18527 0.0
H2297 H 0.25818 0.86905 0.20671 0.0
H2298 H 0.20962 0.87937 0.23993 0.0
H2299 H 0.23938 0.89039 0.22335 0.0
H2300 H 0.10792 0.76842 0.18285 0.0
H2301 H 0.13828 0.77719 0.16699 0.0
H2302 H 0.10074 0.75956 0.21141 0.0
H2303 H 0.10789 0.78169 0.23165 0.0
C2304 C 0.16171 0.33992 0.18595 0.0
C2305 C 0.18618 0.37132 0.18395 0.0
C2306 C 0.20095 0.37195 0.21684 0.0
C2307 C 0.17451 0.3416 0.21911 0.0
N2308 N 0.12412 0.30139 0.207 0.0
N2309 N 0.22327 0.41962 0.19914 0.0
C2310 C 0.15302 0.32718 0.20404 0.0
C2311 C 0.20404 0.38814 0.19992 0.0
N2312 N 0.148 0.32147 0.17064 0.0
N2313 N 0.22396 0.38484 0.23031 0.0
H2314 H 0.22512 0.43244 0.18726 0.0
H2315 H 0.23459 0.43324 0.21084 0.0
H2316 H 0.22319 0.37353 0.24266 0.0
H2317 H 0.24523 0.40556 0.22843 0.0
H2318 H 0.1321 0.29769 0.17159 0.0
H2319 H 0.15521 0.32894 0.15706 0.0
H2320 H 0.10659 0.29158 0.1967 0.0
H2321 H 0.11646 0.29205 0.22024 0.0
C2322 C 0.7918 0.61888 0.82642 0.0
C2323 C 0.81561 0.62092 0.83889 0.0
C2324 C 0.85595 0.64776 0.81484 0.0
C2325 C 0.8331 0.65001 0.80359 0.0
N2326 N 0.77944 0.63977 0.79913 0.0
N2327 N 0.87128 0.64125 0.84589 0.0
C2328 C 0.80095 0.63587 0.80941 0.0
C2329 C 0.84795 0.63621 0.83329 0.0
N2330 N 0.76044 0.60017 0.83065 0.0
N2331 N 0.88529 0.65637 0.80775 0.0
H2332 H 0.86664 0.63384 0.85968 0.0
H2333 H 0.89543 0.65525 0.84316 0.0
H2334 H 0.89176 0.66459 0.79418 0.0
H2335 H 0.90191 0.65242 0.81457 0.0
H2336 H 0.74197 0.59523 0.82135 0.0
H2337 H 0.75294 0.58728 0.8429 0.0
H2338 H 0.75661 0.63315 0.80372 0.0
H2339 H 0.78509 0.65157 0.78649 0.0
C2340 C 0.34534 0.19905 0.83618 0.0
C2341 C 0.36115 0.18264 0.84138 0.0
C2342 C 0.34646 0.15482 0.81144 0.0
C2343 C 0.33217 0.17248 0.80593 0.0
N2344 N 0.32498 0.21659 0.81098 0.0
N2345 N 0.38265 0.14987 0.83271 0.0
C2346 C 0.33383 0.19626 0.81767 0.0
C2347 C 0.36351 0.16199 0.82861 0.0
N2348 N 0.33996 0.21614 0.84914 0.0
N2349 N 0.34275 0.1305 0.80062 0.0
H2350 H 0.39558 0.15477 0.84512 0.0
H2351 H 0.38792 0.13723 0.82319 0.0
H2352 H 0.33074 0.12477 0.78786 0.0
H2353 H 0.34953 0.11462 0.8049 0.0
H2354 H 0.32553 0.22576 0.84661 0.0
H2355 H 0.34747 0.2184 0.86298 0.0
H2356 H 0.32877 0.23635 0.81825 0.0
H2357 H 0.31669 0.21541 0.79739 0.0
C2358 C 0.83335 0.20671 0.83045 0.0
C2359 C 0.81544 0.18078 0.84213 0.0
C2360 C 0.81407 0.14584 0.81746 0.0
C2361 C 0.83593 0.17196 0.80702 0.0
N2362 N 0.86845 0.22753 0.80391 0.0
N2363 N 0.79097 0.12571 0.84766 0.0
C2364 C 0.84592 0.20253 0.8135 0.0
C2365 C 0.80612 0.15028 0.83582 0.0
N2366 N 0.8379 0.23523 0.83547 0.0
N2367 N 0.80055 0.11683 0.80965 0.0
H2368 H 0.78456 0.12794 0.86119 0.0
H2369 H 0.7869 0.1035 0.84459 0.0
H2370 H 0.80576 0.11284 0.79617 0.0
H2371 H 0.78206 0.09719 0.81579 0.0
H2372 H 0.84795 0.25443 0.82673 0.0
H2373 H 0.829 0.23906 0.8478 0.0
H2374 H 0.87939 0.2502 0.80902 0.0
H2375 H 0.87796 0.22547 0.79133 0.0
C2376 C 0.30565 0.1574 0.53886 0.0
C2377 C 0.3262 0.16632 0.52326 0.0
C2378 C 0.37183 0.19603 0.54403 0.0
C2379 C 0.35084 0.19211 0.55879 0.0
N2380 N 0.297 0.17109 0.56984 0.0
N2381 N 0.37898 0.19776 0.51068 0.0
C2382 C 0.31749 0.173 0.55621 0.0
C2383 C 0.35943 0.18633 0.52575 0.0
N2384 N 0.27492 0.13381 0.53711 0.0
N2385 N 0.40364 0.20895 0.54754 0.0
H2386 H 0.37093 0.1922 0.49696 0.0
H2387 H 0.40276 0.21506 0.51174 0.0
H2388 H 0.41335 0.21585 0.56089 0.0
H2389 H 0.41971 0.20974 0.53767 0.0
H2390 H 0.25967 0.12435 0.5484 0.0
H2391 H 0.26571 0.1216 0.52465 0.0
H2392 H 0.27249 0.16031 0.56785 0.0
H2393 H 0.30454 0.18239 0.58267 0.0
C2394 C 0.87947 0.17215 0.53334 0.0
C2395 C 0.85706 0.15032 0.52051 0.0
C2396 C 0.81502 0.13478 0.54375 0.0
C2397 C 0.83632 0.15959 0.55546 0.0
N2398 N 0.88822 0.20433 0.56069 0.0
N2399 N 0.80231 0.11433 0.51233 0.0
C2400 C 0.86849 0.17887 0.55014 0.0
C2401 C 0.82449 0.13243 0.52542 0.0
N2402 N 0.91125 0.18589 0.52967 0.0
N2403 N 0.78592 0.11305 0.5503 0.0
H2404 H 0.80801 0.11246 0.49857 0.0
H2405 H 0.77792 0.10348 0.51465 0.0
H2406 H 0.77835 0.11378 0.56379 0.0
H2407 H 0.7707 0.09271 0.54306 0.0
H2408 H 0.92886 0.19957 0.53932 0.0
H2409 H 0.92009 0.18133 0.51756 0.0
H2410 H 0.91084 0.22111 0.55645 0.0
H2411 H 0.88111 0.21005 0.57307 0.0
C2412 C 0.84187 0.66913 0.51922 0.0
C2413 C 0.85998 0.70192 0.51715 0.0
C2414 C 0.87663 0.70683 0.54999 0.0
C2415 C 0.85664 0.67427 0.55232 0.0
N2416 N 0.81304 0.62641 0.54045 0.0
N2417 N 0.88708 0.75226 0.53214 0.0
C2418 C 0.83686 0.6561 0.53734 0.0
C2419 C 0.87496 0.72088 0.53306 0.0
N2420 N 0.8311 0.65014 0.5039 0.0
N2421 N 0.89851 0.72421 0.56337 0.0
H2422 H 0.8854 0.76322 0.52017 0.0
H2423 H 0.89567 0.76682 0.54378 0.0
H2424 H 0.90141 0.7149 0.57571 0.0
H2425 H 0.91583 0.74735 0.56142 0.0
H2426 H 0.82054 0.62606 0.50473 0.0
H2427 H 0.83569 0.65838 0.49029 0.0
H2428 H 0.79611 0.6131 0.53036 0.0
H2429 H 0.80819 0.61644 0.55367 0.0
loop_
_geom_bond_atom_site_label_1
_geom_bond_atom_site_label_2
_geom_bond_distance
_geom_bond_site_symmetry_2
_ccdc_geom_bond_type
C0 C1 1.386 . S
C0 C2 1.397 . S
C0 H24 0.931 . S
C1 C0 1.386 . S
C1 C5 1.397 . S
C2 C0 1.397 . S
C2 C3 1.384 . S
C2 H25 0.930 . S
C3 C2 1.384 . S
C3 C4 1.377 . S
C3 C6 1.481 . S
C4 C3 1.377 . S
C4 C5 1.389 . S
C4 H26 0.929 . S
C5 C1 1.397 . S
C5 C4 1.389 . S
C5 H27 0.931 . S
C6 C3 1.481 . S
C6 C7 1.387 . S
C6 C11 1.390 . S
C7 C6 1.387 . S
C7 C8 1.401 . S
C7 H28 0.930 . S
C8 C7 1.401 . S
C8 C9 1.376 . S
C8 C17 1.511 . S
C9 C8 1.376 . S
C9 C10 1.392 . S
C9 H30 0.931 . S
C10 C9 1.392 . S
C10 C11 1.361 . S
C10 C12 1.500 . S
C11 C6 1.390 . S
C11 C10 1.361 . S
C11 H29 0.931 . S
C12 C10 1.500 . S
C12 C13 1.371 . S
C12 C14 1.365 . S
C13 C12 1.371 . S
C13 C23 1.386 . S
C13 H31 0.931 . S
C14 C12 1.365 . S
C14 C15 1.409 . S
C14 H32 0.929 . S
C15 C14 1.409 . S
C15 C16 1.380 . S
C15 H33 0.930 . S
C16 C15 1.380 . S
C16 C23 1.357 . S
C17 C8 1.511 . S
C17 C18 1.341 . S
C17 C19 1.371 . S
C18 C17 1.341 . S
C18 C22 1.394 . S
C18 H34 0.930 . S
C19 C17 1.371 . S
C19 C20 1.392 . S
C19 H35 0.931 . S
C20 C19 1.392 . S
C20 C21 1.331 . S
C20 H38 0.932 . S
C21 C20 1.331 . S
C21 C22 1.336 . S
C22 C18 1.394 . S
C22 C21 1.336 . S
C22 H37 0.929 . S
C23 C13 1.386 . S
C23 C16 1.357 . S
C23 H36 0.928 . S
H24 C0 0.931 . S
H25 C2 0.930 . S
H26 C4 0.929 . S
H27 C5 0.931 . S
H28 C7 0.930 . S
H29 C11 0.931 . S
H30 C9 0.931 . S
H31 C13 0.931 . S
H32 C14 0.929 . S
H33 C15 0.930 . S
H34 C18 0.930 . S
H35 C19 0.931 . S
H36 C23 0.928 . S
H37 C22 0.929 . S
H38 C20 0.932 . S
C39 C40 1.386 . S
C39 C41 1.397 . S
C39 H63 0.931 . S
C40 C39 1.386 . S
C40 C44 1.397 . S
C41 C39 1.397 . S
C41 C42 1.384 . S
C41 H64 0.930 . S
C42 C41 1.384 . S
C42 C43 1.377 . S
C42 C45 1.481 . S
C43 C42 1.377 . S
C43 C44 1.389 . S
C43 H65 0.929 . S
C44 C40 1.397 . S
C44 C43 1.389 . S
C44 H66 0.931 . S
C45 C42 1.481 . S
C45 C46 1.387 . S
C45 C50 1.390 . S
C46 C45 1.387 . S
C46 C47 1.401 . S
C46 H67 0.930 . S
C47 C46 1.401 . S
C47 C48 1.376 . S
C47 C56 1.511 . S
C48 C47 1.376 . S
C48 C49 1.392 . S
C48 H69 0.931 . S
C49 C48 1.392 . S
C49 C50 1.361 . S
C49 C51 1.500 . S
C50 C45 1.390 . S
C50 C49 1.361 . S
C50 H68 0.931 . S
C51 C49 1.500 . S
C51 C52 1.371 . S
C51 C53 1.365 . S
C52 C51 1.371 . S
C52 C62 1.386 . S
C52 H70 0.931 . S
C53 C51 1.365 . S
C53 C54 1.409 . S
C53 H71 0.929 . S
C54 C53 1.409 . S
C54 C55 1.380 . S
C54 H72 0.930 1_545 S
C55 C54 1.380 . S
C55 C62 1.357 . S
C56 C47 1.511 . S
C56 C57 1.341 . S
C56 C58 1.371 . S
C57 C56 1.341 . S
C57 C61 1.394 . S
C57 H73 0.930 . S
C58 C56 1.371 . S
C58 C59 1.392 . S
C58 H74 0.931 . S
C59 C58 1.392 . S
C59 C60 1.331 . S
C59 H77 0.932 . S
C60 C59 1.331 . S
C60 C61 1.336 . S
C61 C57 1.394 . S
C61 C60 1.336 . S
C61 H76 0.929 . S
C62 C52 1.386 . S
C62 C55 1.357 . S
C62 H75 0.928 . S
H63 C39 0.931 . S
H64 C41 0.930 . S
H65 C43 0.929 . S
H66 C44 0.931 . S
H67 C46 0.930 . S
H68 C50 0.931 . S
H69 C48 0.931 . S
H70 C52 0.931 . S
H71 C53 0.929 . S
H72 C54 0.930 1_565 S
H73 C57 0.930 . S
H74 C58 0.931 . S
H75 C62 0.928 . S
H76 C61 0.929 . S
H77 C59 0.932 . S
C78 C79 1.386 . S
C78 C80 1.397 . S
C78 H102 0.931 . S
C79 C78 1.386 . S
C79 C83 1.397 . S
C80 C78 1.397 . S
C80 C81 1.384 . S
C80 H103 0.930 . S
C81 C80 1.384 . S
C81 C82 1.377 . S
C81 C84 1.481 . S
C82 C81 1.377 . S
C82 C83 1.389 . S
C82 H104 0.929 . S
C83 C79 1.397 . S
C83 C82 1.389 . S
C83 H105 0.931 . S
C84 C81 1.481 . S
C84 C85 1.387 . S
C84 C89 1.390 . S
C85 C84 1.387 . S
C85 C86 1.401 . S
C85 H106 0.930 . S
C86 C85 1.401 . S
C86 C87 1.376 . S
C86 C95 1.511 . S
C87 C86 1.376 . S
C87 C88 1.392 . S
C87 H108 0.931 . S
C88 C87 1.392 . S
C88 C89 1.361 . S
C88 C90 1.500 . S
C89 C84 1.390 . S
C89 C88 1.361 . S
C89 H107 0.931 . S
C90 C88 1.500 . S
C90 C91 1.371 . S
C90 C92 1.365 . S
C91 C90 1.371 . S
C91 C101 1.386 . S
C91 H109 0.931 . S
C92 C90 1.365 . S
C92 C93 1.409 . S
C92 H110 0.929 . S
C93 C92 1.409 . S
C93 C94 1.380 . S
C93 H111 0.930 . S
C94 C93 1.380 . S
C94 C101 1.357 . S
C95 C86 1.511 . S
C95 C96 1.341 . S
C95 C97 1.371 . S
C96 C95 1.341 . S
C96 C100 1.394 . S
C96 H112 0.930 . S
C97 C95 1.371 . S
C97 C98 1.392 . S
C97 H113 0.931 . S
C98 C97 1.392 . S
C98 C99 1.331 . S
C98 H116 0.932 . S
C99 C98 1.331 . S
C99 C100 1.336 . S
C100 C96 1.394 . S
C100 C99 1.336 . S
C100 H115 0.929 1_655 S
C101 C91 1.386 . S
C101 C94 1.357 . S
C101 H114 0.928 . S
H102 C78 0.931 . S
H103 C80 0.930 . S
H104 C82 0.929 . S
H105 C83 0.931 . S
H106 C85 0.930 . S
H107 C89 0.931 . S
H108 C87 0.931 . S
H109 C91 0.931 . S
H110 C92 0.929 . S
H111 C93 0.930 . S
H112 C96 0.930 . S
H113 C97 0.931 . S
H114 C101 0.928 . S
H115 C100 0.929 1_455 S
H116 C98 0.932 . S
C117 C118 1.386 . S
C117 C119 1.397 . S
C117 H141 0.931 . S
C118 C117 1.386 . S
C118 C122 1.397 . S
C119 C117 1.397 . S
C119 C120 1.384 . S
C119 H142 0.930 . S
C120 C119 1.384 . S
C120 C121 1.377 . S
C120 C123 1.481 . S
C121 C120 1.377 . S
C121 C122 1.389 . S
C121 H143 0.929 . S
C122 C118 1.397 . S
C122 C121 1.389 . S
C122 H144 0.931 . S
C123 C120 1.481 . S
C123 C124 1.387 . S
C123 C128 1.390 . S
C124 C123 1.387 . S
C124 C125 1.401 . S
C124 H145 0.930 . S
C125 C124 1.401 . S
C125 C126 1.376 . S
C125 C134 1.511 . S
C126 C125 1.376 . S
C126 C127 1.392 . S
C126 H147 0.931 . S
C127 C126 1.392 . S
C127 C128 1.361 . S
C127 C129 1.500 . S
C128 C123 1.390 . S
C128 C127 1.361 . S
C128 H146 0.931 . S
C129 C127 1.500 . S
C129 C130 1.371 . S
C129 C131 1.365 . S
C130 C129 1.371 . S
C130 C140 1.386 . S
C130 H148 0.931 . S
C131 C129 1.365 . S
C131 C132 1.409 . S
C131 H149 0.929 . S
C132 C131 1.409 . S
C132 C133 1.380 . S
C132 H150 0.930 . S
C133 C132 1.380 . S
C133 C140 1.357 . S
C134 C125 1.511 . S
C134 C135 1.341 . S
C134 C136 1.371 . S
C135 C134 1.341 . S
C135 C139 1.394 . S
C135 H151 0.930 . S
C136 C134 1.371 . S
C136 C137 1.392 . S
C136 H152 0.931 . S
C137 C136 1.392 . S
C137 C138 1.331 . S
C137 H155 0.932 . S
C138 C137 1.331 . S
C138 C139 1.336 . S
C139 C135 1.394 . S
C139 C138 1.336 . S
C139 H154 0.929 . S
C140 C130 1.386 . S
C140 C133 1.357 . S
C140 H153 0.928 . S
H141 C117 0.931 . S
H142 C119 0.930 . S
H143 C121 0.929 . S
H144 C122 0.931 . S
H145 C124 0.930 . S
H146 C128 0.931 . S
H147 C126 0.931 . S
H148 C130 0.931 . S
H149 C131 0.929 . S
H150 C132 0.930 . S
H151 C135 0.930 . S
H152 C136 0.931 . S
H153 C140 0.928 . S
H154 C139 0.929 . S
H155 C137 0.932 . S
C156 C157 1.386 . S
C156 C158 1.397 . S
C156 H180 0.931 . S
C157 C156 1.386 . S
C157 C161 1.397 . S
C158 C156 1.397 . S
C158 C159 1.384 . S
C158 H181 0.930 . S
C159 C158 1.384 . S
C159 C160 1.377 . S
C159 C162 1.481 . S
C160 C159 1.377 . S
C160 C161 1.389 . S
C160 H182 0.929 . S
C161 C157 1.397 . S
C161 C160 1.389 . S
C161 H183 0.931 . S
C162 C159 1.481 . S
C162 C163 1.387 . S
C162 C167 1.390 . S
C163 C162 1.387 . S
C163 C164 1.401 . S
C163 H184 0.930 . S
C164 C163 1.401 . S
C164 C165 1.376 . S
C164 C173 1.511 . S
C165 C164 1.376 . S
C165 C166 1.392 . S
C165 H186 0.931 . S
C166 C165 1.392 . S
C166 C167 1.361 . S
C166 C168 1.500 . S
C167 C162 1.390 . S
C167 C166 1.361 . S
C167 H185 0.931 . S
C168 C166 1.500 . S
C168 C169 1.371 . S
C168 C170 1.365 . S
C169 C168 1.371 . S
C169 C179 1.386 . S
C169 H187 0.931 . S
C170 C168 1.365 . S
C170 C171 1.409 . S
C170 H188 0.929 . S
C171 C170 1.409 . S
C171 C172 1.380 . S
C171 H189 0.930 1_565 S
C172 C171 1.380 . S
C172 C179 1.357 . S
C173 C164 1.511 . S
C173 C174 1.341 . S
C173 C175 1.371 . S
C174 C173 1.341 . S
C174 C178 1.394 . S
C174 H190 0.930 . S
C175 C173 1.371 . S
C175 C176 1.392 . S
C175 H191 0.931 . S
C176 C175 1.392 . S
C176 C177 1.331 . S
C176 H194 0.932 . S
C177 C176 1.331 . S
C177 C178 1.336 . S
C178 C174 1.394 . S
C178 C177 1.336 . S
C178 H193 0.929 . S
C179 C169 1.386 . S
C179 C172 1.357 . S
C179 H192 0.928 . S
H180 C156 0.931 . S
H181 C158 0.930 . S
H182 C160 0.929 . S
H183 C161 0.931 . S
H184 C163 0.930 . S
H185 C167 0.931 . S
H186 C165 0.931 . S
H187 C169 0.931 . S
H188 C170 0.929 . S
H189 C171 0.930 1_545 S
H190 C174 0.930 . S
H191 C175 0.931 . S
H192 C179 0.928 . S
H193 C178 0.929 . S
H194 C176 0.932 . S
C195 C196 1.386 . S
C195 C197 1.397 . S
C195 H219 0.931 . S
C196 C195 1.386 . S
C196 C200 1.397 . S
C197 C195 1.397 . S
C197 C198 1.384 . S
C197 H220 0.930 . S
C198 C197 1.384 . S
C198 C199 1.377 . S
C198 C201 1.481 . S
C199 C198 1.377 . S
C199 C200 1.389 . S
C199 H221 0.929 . S
C200 C196 1.397 . S
C200 C199 1.389 . S
C200 H222 0.931 . S
C201 C198 1.481 . S
C201 C202 1.387 . S
C201 C206 1.390 . S
C202 C201 1.387 . S
C202 C203 1.401 . S
C202 H223 0.930 . S
C203 C202 1.401 . S
C203 C204 1.376 . S
C203 C212 1.511 . S
C204 C203 1.376 . S
C204 C205 1.392 . S
C204 H225 0.931 . S
C205 C204 1.392 . S
C205 C206 1.361 . S
C205 C207 1.500 . S
C206 C201 1.390 . S
C206 C205 1.361 . S
C206 H224 0.931 . S
C207 C205 1.500 . S
C207 C208 1.371 . S
C207 C209 1.365 . S
C208 C207 1.371 . S
C208 C218 1.386 . S
C208 H226 0.931 . S
C209 C207 1.365 . S
C209 C210 1.409 . S
C209 H227 0.929 . S
C210 C209 1.409 . S
C210 C211 1.380 . S
C210 H228 0.930 . S
C211 C210 1.380 . S
C211 C218 1.357 . S
C212 C203 1.511 . S
C212 C213 1.341 . S
C212 C214 1.371 . S
C213 C212 1.341 . S
C213 C217 1.394 . S
C213 H229 0.930 . S
C214 C212 1.371 . S
C214 C215 1.392 . S
C214 H230 0.931 . S
C215 C214 1.392 . S
C215 C216 1.331 . S
C215 H233 0.932 . S
C216 C215 1.331 . S
C216 C217 1.336 . S
C217 C213 1.394 . S
C217 C216 1.336 . S
C217 H232 0.929 1_455 S
C218 C208 1.386 . S
C218 C211 1.357 . S
C218 H231 0.928 . S
H219 C195 0.931 . S
H220 C197 0.930 . S
H221 C199 0.929 . S
H222 C200 0.931 . S
H223 C202 0.930 . S
H224 C206 0.931 . S
H225 C204 0.931 . S
H226 C208 0.931 . S
H227 C209 0.929 . S
H228 C210 0.930 . S
H229 C213 0.930 . S
H230 C214 0.931 . S
H231 C218 0.928 . S
H232 C217 0.929 1_655 S
H233 C215 0.932 . S
C234 C235 1.386 . S
C234 C236 1.397 . S
C234 H258 0.931 . S
C235 C234 1.386 . S
C235 C239 1.397 . S
C236 C234 1.397 . S
C236 C237 1.384 . S
C236 H259 0.930 . S
C237 C236 1.384 . S
C237 C238 1.377 . S
C237 C240 1.481 . S
C238 C237 1.377 . S
C238 C239 1.389 . S
C238 H260 0.929 . S
C239 C235 1.397 . S
C239 C238 1.389 . S
C239 H261 0.931 . S
C240 C237 1.481 . S
C240 C241 1.387 . S
C240 C245 1.390 . S
C241 C240 1.387 . S
C241 C242 1.401 . S
C241 H262 0.930 . S
C242 C241 1.401 . S
C242 C243 1.376 . S
C242 C251 1.511 . S
C243 C242 1.376 . S
C243 C244 1.392 . S
C243 H264 0.931 . S
C244 C243 1.392 . S
C244 C245 1.361 . S
C244 C246 1.500 . S
C245 C240 1.390 . S
C245 C244 1.361 . S
C245 H263 0.931 . S
C246 C244 1.500 . S
C246 C247 1.371 . S
C246 C248 1.365 . S
C247 C246 1.371 . S
C247 C257 1.386 . S
C247 H265 0.931 . S
C248 C246 1.365 . S
C248 C249 1.409 . S
C248 H266 0.929 . S
C249 C248 1.409 . S
C249 C250 1.380 . S
C249 H267 0.930 . S
C250 C249 1.380 . S
C250 C257 1.357 . S
C251 C242 1.511 . S
C251 C252 1.341 . S
C251 C253 1.371 . S
C252 C251 1.341 . S
C252 C256 1.394 . S
C252 H268 0.930 . S
C253 C251 1.371 . S
C253 C254 1.392 . S
C253 H269 0.931 . S
C254 C253 1.392 . S
C254 C255 1.331 . S
C254 H272 0.932 . S
C255 C254 1.331 . S
C255 C256 1.336 . S
C256 C252 1.394 . S
C256 C255 1.336 . S
C256 H271 0.929 . S
C257 C247 1.386 . S
C257 C250 1.357 . S
C257 H270 0.928 . S
H258 C234 0.931 . S
H259 C236 0.930 . S
H260 C238 0.929 . S
H261 C239 0.931 . S
H262 C241 0.930 . S
H263 C245 0.931 . S
H264 C243 0.931 . S
H265 C247 0.931 . S
H266 C248 0.929 . S
H267 C249 0.930 . S
H268 C252 0.930 . S
H269 C253 0.931 . S
H270 C257 0.928 . S
H271 C256 0.929 . S
H272 C254 0.932 . S
C273 C274 1.386 . S
C273 C275 1.397 . S
C273 H297 0.931 . S
C274 C273 1.386 . S
C274 C278 1.397 . S
C275 C273 1.397 . S
C275 C276 1.384 . S
C275 H298 0.930 . S
C276 C275 1.384 . S
C276 C277 1.377 . S
C276 C279 1.481 . S
C277 C276 1.377 . S
C277 C278 1.389 . S
C277 H299 0.929 . S
C278 C274 1.397 . S
C278 C277 1.389 . S
C278 H300 0.931 . S
C279 C276 1.481 . S
C279 C280 1.387 . S
C279 C284 1.390 . S
C280 C279 1.387 . S
C280 C281 1.401 . S
C280 H301 0.930 . S
C281 C280 1.401 . S
C281 C282 1.376 . S
C281 C290 1.511 . S
C282 C281 1.376 . S
C282 C283 1.392 . S
C282 H303 0.931 . S
C283 C282 1.392 . S
C283 C284 1.361 . S
C283 C285 1.500 . S
C284 C279 1.390 . S
C284 C283 1.361 . S
C284 H302 0.931 . S
C285 C283 1.500 . S
C285 C286 1.371 . S
C285 C287 1.365 . S
C286 C285 1.371 . S
C286 C296 1.386 . S
C286 H304 0.931 . S
C287 C285 1.365 . S
C287 C288 1.409 . S
C287 H305 0.929 . S
C288 C287 1.409 . S
C288 C289 1.380 . S
C288 H306 0.930 . S
C289 C288 1.380 . S
C289 C296 1.357 . S
C290 C281 1.511 . S
C290 C291 1.341 . S
C290 C292 1.371 . S
C291 C290 1.341 . S
C291 C295 1.394 . S
C291 H307 0.930 . S
C292 C290 1.371 . S
C292 C293 1.392 . S
C292 H308 0.931 . S
C293 C292 1.392 . S
C293 C294 1.331 . S
C293 H311 0.932 . S
C294 C293 1.331 . S
C294 C295 1.336 . S
C295 C291 1.394 . S
C295 C294 1.336 . S
C295 H310 0.929 . S
C296 C286 1.386 . S
C296 C289 1.357 . S
C296 H309 0.928 . S
H297 C273 0.931 . S
H298 C275 0.930 . S
H299 C277 0.929 . S
H300 C278 0.931 . S
H301 C280 0.930 . S
H302 C284 0.931 . S
H303 C282 0.931 . S
H304 C286 0.931 . S
H305 C287 0.929 . S
H306 C288 0.930 . S
H307 C291 0.930 . S
H308 C292 0.931 . S
H309 C296 0.928 . S
H310 C295 0.929 . S
H311 C293 0.932 . S
C312 C313 1.386 . S
C312 C314 1.397 . S
C312 H336 0.931 . S
C313 C312 1.386 . S
C313 C317 1.397 . S
C314 C312 1.397 . S
C314 C315 1.384 . S
C314 H337 0.930 . S
C315 C314 1.384 . S
C315 C316 1.377 . S
C315 C318 1.481 . S
C316 C315 1.377 . S
C316 C317 1.389 . S
C316 H338 0.929 . S
C317 C313 1.397 . S
C317 C316 1.389 . S
C317 H339 0.931 . S
C318 C315 1.481 . S
C318 C319 1.387 . S
C318 C323 1.390 . S
C319 C318 1.387 . S
C319 C320 1.401 . S
C319 H340 0.930 . S
C320 C319 1.401 . S
C320 C321 1.376 . S
C320 C329 1.511 . S
C321 C320 1.376 . S
C321 C322 1.392 . S
C321 H342 0.931 . S
C322 C321 1.392 . S
C322 C323 1.361 . S
C322 C324 1.500 . S
C323 C318 1.390 . S
C323 C322 1.361 . S
C323 H341 0.931 . S
C324 C322 1.500 . S
C324 C325 1.371 . S
C324 C326 1.365 . S
C325 C324 1.371 . S
C325 C335 1.386 . S
C325 H343 0.931 . S
C326 C324 1.365 . S
C326 C327 1.409 . S
C326 H344 0.929 . S
C327 C326 1.409 . S
C327 C328 1.380 . S
C327 H345 0.930 . S
C328 C327 1.380 . S
C328 C335 1.357 . S
C329 C320 1.511 . S
C329 C330 1.341 . S
C329 C331 1.371 . S
C330 C329 1.341 . S
C330 C334 1.394 . S
C330 H346 0.930 . S
C331 C329 1.371 . S
C331 C332 1.392 . S
C331 H347 0.931 . S
C332 C331 1.392 . S
C332 C333 1.331 . S
C332 H350 0.932 . S
C333 C332 1.331 . S
C333 C334 1.336 . S
C334 C330 1.394 . S
C334 C333 1.336 . S
C334 H349 0.929 . S
C335 C325 1.386 . S
C335 C328 1.357 . S
C335 H348 0.928 . S
H336 C312 0.931 . S
H337 C314 0.930 . S
H338 C316 0.929 . S
H339 C317 0.931 . S
H340 C319 0.930 . S
H341 C323 0.931 . S
H342 C321 0.931 . S
H343 C325 0.931 . S
H344 C326 0.929 . S
H345 C327 0.930 . S
H346 C330 0.930 . S
H347 C331 0.931 . S
H348 C335 0.928 . S
H349 C334 0.929 . S
H350 C332 0.932 . S
C351 C352 1.386 . S
C351 C353 1.397 . S
C351 H375 0.931 . S
C352 C351 1.386 . S
C352 C356 1.397 . S
C353 C351 1.397 . S
C353 C354 1.384 . S
C353 H376 0.930 . S
C354 C353 1.384 . S
C354 C355 1.377 . S
C354 C357 1.481 . S
C355 C354 1.377 . S
C355 C356 1.389 . S
C355 H377 0.929 . S
C356 C352 1.397 . S
C356 C355 1.389 . S
C356 H378 0.931 . S
C357 C354 1.481 . S
C357 C358 1.387 . S
C357 C362 1.390 . S
C358 C357 1.387 . S
C358 C359 1.401 . S
C358 H379 0.930 . S
C359 C358 1.401 . S
C359 C360 1.376 . S
C359 C368 1.511 . S
C360 C359 1.376 . S
C360 C361 1.392 . S
C360 H381 0.931 . S
C361 C360 1.392 . S
C361 C362 1.361 . S
C361 C363 1.500 . S
C362 C357 1.390 . S
C362 C361 1.361 . S
C362 H380 0.931 . S
C363 C361 1.500 . S
C363 C364 1.371 . S
C363 C365 1.365 . S
C364 C363 1.371 . S
C364 C374 1.386 . S
C364 H382 0.931 . S
C365 C363 1.365 . S
C365 C366 1.409 . S
C365 H383 0.929 . S
C366 C365 1.409 . S
C366 C367 1.380 . S
C366 H384 0.930 . S
C367 C366 1.380 . S
C367 C374 1.357 . S
C368 C359 1.511 . S
C368 C369 1.341 . S
C368 C370 1.371 . S
C369 C368 1.341 . S
C369 C373 1.394 . S
C369 H385 0.930 . S
C370 C368 1.371 . S
C370 C371 1.392 . S
C370 H386 0.931 . S
C371 C370 1.392 . S
C371 C372 1.331 . S
C371 H389 0.932 . S
C372 C371 1.331 . S
C372 C373 1.336 . S
C373 C369 1.394 . S
C373 C372 1.336 . S
C373 H388 0.929 . S
C374 C364 1.386 . S
C374 C367 1.357 . S
C374 H387 0.928 . S
H375 C351 0.931 . S
H376 C353 0.930 . S
H377 C355 0.929 . S
H378 C356 0.931 . S
H379 C358 0.930 . S
H380 C362 0.931 . S
H381 C360 0.931 . S
H382 C364 0.931 . S
H383 C365 0.929 . S
H384 C366 0.930 . S
H385 C369 0.930 . S
H386 C370 0.931 . S
H387 C374 0.928 . S
H388 C373 0.929 . S
H389 C371 0.932 . S
C390 C391 1.386 . S
C390 C392 1.397 . S
C390 H414 0.931 . S
C391 C390 1.386 . S
C391 C395 1.397 . S
C392 C390 1.397 . S
C392 C393 1.384 . S
C392 H415 0.930 . S
C393 C392 1.384 . S
C393 C394 1.377 . S
C393 C396 1.481 . S
C394 C393 1.377 . S
C394 C395 1.389 . S
C394 H416 0.929 . S
C395 C391 1.397 . S
C395 C394 1.389 . S
C395 H417 0.931 . S
C396 C393 1.481 . S
C396 C397 1.387 . S
C396 C401 1.390 . S
C397 C396 1.387 . S
C397 C398 1.401 . S
C397 H418 0.930 . S
C398 C397 1.401 . S
C398 C399 1.376 . S
C398 C407 1.511 . S
C399 C398 1.376 . S
C399 C400 1.392 . S
C399 H420 0.931 . S
C400 C399 1.392 . S
C400 C401 1.361 . S
C400 C402 1.500 . S
C401 C396 1.390 . S
C401 C400 1.361 . S
C401 H419 0.931 . S
C402 C400 1.500 . S
C402 C403 1.371 . S
C402 C404 1.365 . S
C403 C402 1.371 . S
C403 C413 1.386 . S
C403 H421 0.931 . S
C404 C402 1.365 . S
C404 C405 1.409 . S
C404 H422 0.929 . S
C405 C404 1.409 . S
C405 C406 1.380 . S
C405 H423 0.930 . S
C406 C405 1.380 . S
C406 C413 1.357 . S
C407 C398 1.511 . S
C407 C408 1.341 . S
C407 C409 1.371 . S
C408 C407 1.341 . S
C408 C412 1.394 . S
C408 H424 0.930 . S
C409 C407 1.371 . S
C409 C410 1.392 . S
C409 H425 0.931 . S
C410 C409 1.392 . S
C410 C411 1.331 . S
C410 H428 0.932 . S
C411 C410 1.331 . S
C411 C412 1.336 . S
C412 C408 1.394 . S
C412 C411 1.336 . S
C412 H427 0.929 . S
C413 C403 1.386 . S
C413 C406 1.357 . S
C413 H426 0.928 . S
H414 C390 0.931 . S
H415 C392 0.930 . S
H416 C394 0.929 . S
H417 C395 0.931 . S
H418 C397 0.930 . S
H419 C401 0.931 . S
H420 C399 0.931 . S
H421 C403 0.931 . S
H422 C404 0.929 . S
H423 C405 0.930 . S
H424 C408 0.930 . S
H425 C409 0.931 . S
H426 C413 0.928 . S
H427 C412 0.929 . S
H428 C410 0.932 . S
C429 C430 1.386 . S
C429 C431 1.397 . S
C429 H453 0.931 . S
C430 C429 1.386 . S
C430 C434 1.397 . S
C431 C429 1.397 . S
C431 C432 1.384 . S
C431 H454 0.930 . S
C432 C431 1.384 . S
C432 C433 1.377 . S
C432 C435 1.481 . S
C433 C432 1.377 . S
C433 C434 1.389 . S
C433 H455 0.929 . S
C434 C430 1.397 . S
C434 C433 1.389 . S
C434 H456 0.931 . S
C435 C432 1.481 . S
C435 C436 1.387 . S
C435 C440 1.390 . S
C436 C435 1.387 . S
C436 C437 1.401 . S
C436 H457 0.930 . S
C437 C436 1.401 . S
C437 C438 1.376 . S
C437 C446 1.511 . S
C438 C437 1.376 . S
C438 C439 1.392 . S
C438 H459 0.931 . S
C439 C438 1.392 . S
C439 C440 1.361 . S
C439 C441 1.500 . S
C440 C435 1.390 . S
C440 C439 1.361 . S
C440 H458 0.931 . S
C441 C439 1.500 . S
C441 C442 1.371 . S
C441 C443 1.365 . S
C442 C441 1.371 . S
C442 C452 1.386 . S
C442 H460 0.931 . S
C443 C441 1.365 . S
C443 C444 1.409 . S
C443 H461 0.929 . S
C444 C443 1.409 . S
C444 C445 1.380 . S
C444 H462 0.930 . S
C445 C444 1.380 . S
C445 C452 1.357 . S
C446 C437 1.511 . S
C446 C447 1.341 . S
C446 C448 1.371 . S
C447 C446 1.341 . S
C447 C451 1.394 . S
C447 H463 0.930 . S
C448 C446 1.371 . S
C448 C449 1.392 . S
C448 H464 0.931 . S
C449 C448 1.392 . S
C449 C450 1.331 . S
C449 H467 0.932 . S
C450 C449 1.331 . S
C450 C451 1.336 . S
C451 C447 1.394 . S
C451 C450 1.336 . S
C451 H466 0.929 . S
C452 C442 1.386 . S
C452 C445 1.357 . S
C452 H465 0.928 . S
H453 C429 0.931 . S
H454 C431 0.930 . S
H455 C433 0.929 . S
H456 C434 0.931 . S
H457 C436 0.930 . S
H458 C440 0.931 . S
H459 C438 0.931 . S
H460 C442 0.931 . S
H461 C443 0.929 . S
H462 C444 0.930 . S
H463 C447 0.930 . S
H464 C448 0.931 . S
H465 C452 0.928 . S
H466 C451 0.929 . S
H467 C449 0.932 . S
C468 C469 1.386 . S
C468 C470 1.397 . S
C468 H492 0.931 . S
C469 C468 1.386 . S
C469 C473 1.397 . S
C470 C468 1.397 . S
C470 C471 1.384 . S
C470 H493 0.930 . S
C471 C470 1.384 . S
C471 C472 1.377 . S
C471 C474 1.481 . S
C472 C471 1.377 . S
C472 C473 1.389 . S
C472 H494 0.929 . S
C473 C469 1.397 . S
C473 C472 1.389 . S
C473 H495 0.931 . S
C474 C471 1.481 . S
C474 C475 1.387 . S
C474 C479 1.390 . S
C475 C474 1.387 . S
C475 C476 1.401 . S
C475 H496 0.930 . S
C476 C475 1.401 . S
C476 C477 1.376 . S
C476 C485 1.511 . S
C477 C476 1.376 . S
C477 C478 1.392 . S
C477 H498 0.931 . S
C478 C477 1.392 . S
C478 C479 1.361 . S
C478 C480 1.500 . S
C479 C474 1.390 . S
C479 C478 1.361 . S
C479 H497 0.931 . S
C480 C478 1.500 . S
C480 C481 1.371 . S
C480 C482 1.365 . S
C481 C480 1.371 . S
C481 C491 1.386 . S
C481 H499 0.931 . S
C482 C480 1.365 . S
C482 C483 1.409 . S
C482 H500 0.929 . S
C483 C482 1.409 . S
C483 C484 1.380 . S
C483 H501 0.930 . S
C484 C483 1.380 . S
C484 C491 1.357 . S
C485 C476 1.511 . S
C485 C486 1.341 . S
C485 C487 1.371 . S
C486 C485 1.341 . S
C486 C490 1.394 . S
C486 H502 0.930 . S
C487 C485 1.371 . S
C487 C488 1.392 . S
C487 H503 0.931 . S
C488 C487 1.392 . S
C488 C489 1.331 . S
C488 H506 0.932 . S
C489 C488 1.331 . S
C489 C490 1.336 . S
C490 C486 1.394 . S
C490 C489 1.336 . S
C490 H505 0.929 . S
C491 C481 1.386 . S
C491 C484 1.357 . S
C491 H504 0.928 . S
H492 C468 0.931 . S
H493 C470 0.930 . S
H494 C472 0.929 . S
H495 C473 0.931 . S
H496 C475 0.930 . S
H497 C479 0.931 . S
H498 C477 0.931 . S
H499 C481 0.931 . S
H500 C482 0.929 . S
H501 C483 0.930 . S
H502 C486 0.930 . S
H503 C487 0.931 . S
H504 C491 0.928 . S
H505 C490 0.929 . S
H506 C488 0.932 . S
C507 C508 1.386 . S
C507 C509 1.397 . S
C507 H531 0.931 . S
C508 C507 1.386 . S
C508 C512 1.397 . S
C509 C507 1.397 . S
C509 C510 1.384 . S
C509 H532 0.930 . S
C510 C509 1.384 . S
C510 C511 1.377 . S
C510 C513 1.481 . S
C511 C510 1.377 . S
C511 C512 1.389 . S
C511 H533 0.929 . S
C512 C508 1.397 . S
C512 C511 1.389 . S
C512 H534 0.931 . S
C513 C510 1.481 . S
C513 C514 1.387 . S
C513 C518 1.390 . S
C514 C513 1.387 . S
C514 C515 1.401 . S
C514 H535 0.930 . S
C515 C514 1.401 . S
C515 C516 1.376 . S
C515 C524 1.511 . S
C516 C515 1.376 . S
C516 C517 1.392 . S
C516 H537 0.931 . S
C517 C516 1.392 . S
C517 C518 1.361 . S
C517 C519 1.500 . S
C518 C513 1.390 . S
C518 C517 1.361 . S
C518 H536 0.931 . S
C519 C517 1.500 . S
C519 C520 1.371 . S
C519 C521 1.365 . S
C520 C519 1.371 . S
C520 C530 1.386 . S
C520 H538 0.931 . S
C521 C519 1.365 . S
C521 C522 1.409 . S
C521 H539 0.929 . S
C522 C521 1.409 . S
C522 C523 1.380 . S
C522 H540 0.930 . S
C523 C522 1.380 . S
C523 C530 1.357 . S
C524 C515 1.511 . S
C524 C525 1.341 . S
C524 C526 1.371 . S
C525 C524 1.341 . S
C525 C529 1.394 . S
C525 H541 0.930 . S
C526 C524 1.371 . S
C526 C527 1.392 . S
C526 H542 0.931 . S
C527 C526 1.392 . S
C527 C528 1.331 . S
C527 H545 0.932 . S
C528 C527 1.331 . S
C528 C529 1.336 . S
C529 C525 1.394 . S
C529 C528 1.336 . S
C529 H544 0.929 . S
C530 C520 1.386 . S
C530 C523 1.357 . S
C530 H543 0.928 . S
H531 C507 0.931 . S
H532 C509 0.930 . S
H533 C511 0.929 . S
H534 C512 0.931 . S
H535 C514 0.930 . S
H536 C518 0.931 . S
H537 C516 0.931 . S
H538 C520 0.931 . S
H539 C521 0.929 . S
H540 C522 0.930 . S
H541 C525 0.930 . S
H542 C526 0.931 . S
H543 C530 0.928 . S
H544 C529 0.929 . S
H545 C527 0.932 . S
C546 C547 1.386 . S
C546 C548 1.397 . S
C546 H570 0.931 . S
C547 C546 1.386 . S
C547 C551 1.397 . S
C548 C546 1.397 . S
C548 C549 1.384 . S
C548 H571 0.930 . S
C549 C548 1.384 . S
C549 C550 1.377 . S
C549 C552 1.481 . S
C550 C549 1.377 . S
C550 C551 1.389 . S
C550 H572 0.929 . S
C551 C547 1.397 . S
C551 C550 1.389 . S
C551 H573 0.931 . S
C552 C549 1.481 . S
C552 C553 1.387 . S
C552 C557 1.390 . S
C553 C552 1.387 . S
C553 C554 1.401 . S
C553 H574 0.930 . S
C554 C553 1.401 . S
C554 C555 1.376 . S
C554 C563 1.511 . S
C555 C554 1.376 . S
C555 C556 1.392 . S
C555 H576 0.931 . S
C556 C555 1.392 . S
C556 C557 1.361 . S
C556 C558 1.500 . S
C557 C552 1.390 . S
C557 C556 1.361 . S
C557 H575 0.931 . S
C558 C556 1.500 . S
C558 C559 1.371 . S
C558 C560 1.365 . S
C559 C558 1.371 . S
C559 C569 1.386 . S
C559 H577 0.931 . S
C560 C558 1.365 . S
C560 C561 1.409 . S
C560 H578 0.929 . S
C561 C560 1.409 . S
C561 C562 1.380 . S
C561 H579 0.930 . S
C562 C561 1.380 . S
C562 C569 1.357 . S
C563 C554 1.511 . S
C563 C564 1.341 . S
C563 C565 1.371 . S
C564 C563 1.341 . S
C564 C568 1.394 . S
C564 H580 0.930 . S
C565 C563 1.371 . S
C565 C566 1.392 . S
C565 H581 0.931 . S
C566 C565 1.392 . S
C566 C567 1.331 . S
C566 H584 0.932 . S
C567 C566 1.331 . S
C567 C568 1.336 . S
C568 C564 1.394 . S
C568 C567 1.336 . S
C568 H583 0.929 . S
C569 C559 1.386 . S
C569 C562 1.357 . S
C569 H582 0.928 . S
H570 C546 0.931 . S
H571 C548 0.930 . S
H572 C550 0.929 . S
H573 C551 0.931 . S
H574 C553 0.930 . S
H575 C557 0.931 . S
H576 C555 0.931 . S
H577 C559 0.931 . S
H578 C560 0.929 . S
H579 C561 0.930 . S
H580 C564 0.930 . S
H581 C565 0.931 . S
H582 C569 0.928 . S
H583 C568 0.929 . S
H584 C566 0.932 . S
C585 C586 1.386 . S
C585 C587 1.397 . S
C585 H609 0.931 . S
C586 C585 1.386 . S
C586 C590 1.397 . S
C587 C585 1.397 . S
C587 C588 1.384 . S
C587 H610 0.930 . S
C588 C587 1.384 . S
C588 C589 1.377 . S
C588 C591 1.481 . S
C589 C588 1.377 . S
C589 C590 1.389 . S
C589 H611 0.929 . S
C590 C586 1.397 . S
C590 C589 1.389 . S
C590 H612 0.931 . S
C591 C588 1.481 . S
C591 C592 1.387 . S
C591 C596 1.390 . S
C592 C591 1.387 . S
C592 C593 1.401 . S
C592 H613 0.930 . S
C593 C592 1.401 . S
C593 C594 1.376 . S
C593 C602 1.511 . S
C594 C593 1.376 . S
C594 C595 1.392 . S
C594 H615 0.931 . S
C595 C594 1.392 . S
C595 C596 1.361 . S
C595 C597 1.500 . S
C596 C591 1.390 . S
C596 C595 1.361 . S
C596 H614 0.931 . S
C597 C595 1.500 . S
C597 C598 1.371 . S
C597 C599 1.365 . S
C598 C597 1.371 . S
C598 C608 1.386 . S
C598 H616 0.931 . S
C599 C597 1.365 . S
C599 C600 1.409 . S
C599 H617 0.929 . S
C600 C599 1.409 . S
C600 C601 1.380 . S
C600 H618 0.930 . S
C601 C600 1.380 . S
C601 C608 1.357 . S
C602 C593 1.511 . S
C602 C603 1.341 . S
C602 C604 1.371 . S
C603 C602 1.341 . S
C603 C607 1.394 . S
C603 H619 0.930 . S
C604 C602 1.371 . S
C604 C605 1.392 . S
C604 H620 0.931 . S
C605 C604 1.392 . S
C605 C606 1.331 . S
C605 H623 0.932 . S
C606 C605 1.331 . S
C606 C607 1.336 . S
C607 C603 1.394 . S
C607 C606 1.336 . S
C607 H622 0.929 . S
C608 C598 1.386 . S
C608 C601 1.357 . S
C608 H621 0.928 . S
H609 C585 0.931 . S
H610 C587 0.930 . S
H611 C589 0.929 . S
H612 C590 0.931 . S
H613 C592 0.930 . S
H614 C596 0.931 . S
H615 C594 0.931 . S
H616 C598 0.931 . S
H617 C599 0.929 . S
H618 C600 0.930 . S
H619 C603 0.930 . S
H620 C604 0.931 . S
H621 C608 0.928 . S
H622 C607 0.929 . S
H623 C605 0.932 . S
C624 C625 1.386 . S
C624 C626 1.397 . S
C624 H648 0.931 . S
C625 C624 1.386 . S
C625 C629 1.397 . S
C626 C624 1.397 . S
C626 C627 1.384 . S
C626 H649 0.930 . S
C627 C626 1.384 . S
C627 C628 1.377 . S
C627 C630 1.481 . S
C628 C627 1.377 . S
C628 C629 1.389 . S
C628 H650 0.929 . S
C629 C625 1.397 . S
C629 C628 1.389 . S
C629 H651 0.931 . S
C630 C627 1.481 . S
C630 C631 1.387 . S
C630 C635 1.390 . S
C631 C630 1.387 . S
C631 C632 1.401 . S
C631 H652 0.930 . S
C632 C631 1.401 . S
C632 C633 1.376 . S
C632 C641 1.511 . S
C633 C632 1.376 . S
C633 C634 1.392 . S
C633 H654 0.931 . S
C634 C633 1.392 . S
C634 C635 1.361 . S
C634 C636 1.500 . S
C635 C630 1.390 . S
C635 C634 1.361 . S
C635 H653 0.931 . S
C636 C634 1.500 . S
C636 C637 1.371 . S
C636 C638 1.365 . S
C637 C636 1.371 . S
C637 C647 1.386 . S
C637 H655 0.931 . S
C638 C636 1.365 . S
C638 C639 1.409 . S
C638 H656 0.929 . S
C639 C638 1.409 . S
C639 C640 1.380 . S
C639 H657 0.930 . S
C640 C639 1.380 . S
C640 C647 1.357 . S
C641 C632 1.511 . S
C641 C642 1.341 . S
C641 C643 1.371 . S
C642 C641 1.341 . S
C642 C646 1.394 . S
C642 H658 0.930 . S
C643 C641 1.371 . S
C643 C644 1.392 . S
C643 H659 0.931 . S
C644 C643 1.392 . S
C644 C645 1.331 . S
C644 H662 0.932 . S
C645 C644 1.331 . S
C645 C646 1.336 . S
C646 C642 1.394 . S
C646 C645 1.336 . S
C646 H661 0.929 . S
C647 C637 1.386 . S
C647 C640 1.357 . S
C647 H660 0.928 . S
H648 C624 0.931 . S
H649 C626 0.930 . S
H650 C628 0.929 . S
H651 C629 0.931 . S
H652 C631 0.930 . S
H653 C635 0.931 . S
H654 C633 0.931 . S
H655 C637 0.931 . S
H656 C638 0.929 . S
H657 C639 0.930 . S
H658 C642 0.930 . S
H659 C643 0.931 . S
H660 C647 0.928 . S
H661 C646 0.929 . S
H662 C644 0.932 . S
C663 C664 1.386 . S
C663 C665 1.397 . S
C663 H687 0.931 . S
C664 C663 1.386 . S
C664 C668 1.397 . S
C665 C663 1.397 . S
C665 C666 1.384 . S
C665 H688 0.930 . S
C666 C665 1.384 . S
C666 C667 1.377 . S
C666 C669 1.481 . S
C667 C666 1.377 . S
C667 C668 1.389 . S
C667 H689 0.929 . S
C668 C664 1.397 . S
C668 C667 1.389 . S
C668 H690 0.931 . S
C669 C666 1.481 . S
C669 C670 1.387 . S
C669 C674 1.390 . S
C670 C669 1.387 . S
C670 C671 1.401 . S
C670 H691 0.930 . S
C671 C670 1.401 . S
C671 C672 1.376 . S
C671 C680 1.511 . S
C672 C671 1.376 . S
C672 C673 1.392 . S
C672 H693 0.931 . S
C673 C672 1.392 . S
C673 C674 1.361 . S
C673 C675 1.500 . S
C674 C669 1.390 . S
C674 C673 1.361 . S
C674 H692 0.931 . S
C675 C673 1.500 . S
C675 C676 1.371 . S
C675 C677 1.365 . S
C676 C675 1.371 . S
C676 C686 1.386 . S
C676 H694 0.931 . S
C677 C675 1.365 . S
C677 C678 1.409 . S
C677 H695 0.929 . S
C678 C677 1.409 . S
C678 C679 1.380 . S
C678 H696 0.930 . S
C679 C678 1.380 . S
C679 C686 1.357 . S
C680 C671 1.511 . S
C680 C681 1.341 . S
C680 C682 1.371 . S
C681 C680 1.341 . S
C681 C685 1.394 . S
C681 H697 0.930 . S
C682 C680 1.371 . S
C682 C683 1.392 . S
C682 H698 0.931 . S
C683 C682 1.392 . S
C683 C684 1.331 . S
C683 H701 0.932 . S
C684 C683 1.331 . S
C684 C685 1.336 . S
C685 C681 1.394 . S
C685 C684 1.336 . S
C685 H700 0.929 . S
C686 C676 1.386 . S
C686 C679 1.357 . S
C686 H699 0.928 . S
H687 C663 0.931 . S
H688 C665 0.930 . S
H689 C667 0.929 . S
H690 C668 0.931 . S
H691 C670 0.930 . S
H692 C674 0.931 . S
H693 C672 0.931 . S
H694 C676 0.931 . S
H695 C677 0.929 . S
H696 C678 0.930 . S
H697 C681 0.930 . S
H698 C682 0.931 . S
H699 C686 0.928 . S
H700 C685 0.929 . S
H701 C683 0.932 . S
Tb702 N733 2.660 . S
Tb702 N740 2.600 . S
Tb702 O746 2.546 . S
Tb702 O747 2.610 1_565 S
Tb702 O749 2.320 1_565 S
Tb702 O750 2.552 1_565 S
Tb702 O751 2.413 . S
Tb702 O753 2.362 1_556 S
Tb702 O754 2.421 . S
Tb702 C766 2.833 . S
C703 C706 1.432 . S
C703 C707 1.414 . S
C703 N710 1.359 . S
C704 C706 1.417 . S
C704 C708 1.432 . S
C704 C716 1.410 . S
C705 C707 1.444 . S
C705 C708 1.317 . S
C705 H728 0.929 . S
C706 C703 1.432 . S
C706 C704 1.417 . S
C706 N714 1.360 . S
C707 C703 1.414 . S
C707 C705 1.444 . S
C707 C712 1.385 . S
C708 C704 1.432 . S
C708 C705 1.317 . S
C708 H720 0.930 . S
C709 C711 1.392 . S
C709 C712 1.370 . S
C709 H721 0.931 . S
N710 C703 1.359 . S
N710 C711 1.327 . S
N710 Tb713 2.600 . S
C711 C709 1.392 . S
C711 N710 1.327 . S
C711 H718 0.930 . S
C712 C707 1.385 . S
C712 C709 1.370 . S
C712 H731 0.930 . S
Tb713 N710 2.600 . S
Tb713 N714 2.660 . S
Tb713 O747 2.362 1_554 S
Tb713 O748 2.421 . S
Tb713 O752 2.546 . S
Tb713 O753 2.610 1_545 S
Tb713 O755 2.320 1_545 S
Tb713 O756 2.552 1_545 S
Tb713 O757 2.413 . S
Tb713 C777 2.833 . S
N714 C706 1.360 . S
N714 Tb713 2.660 . S
N714 C715 1.305 . S
C715 N714 1.305 . S
C715 C717 1.407 . S
C715 H722 0.930 . S
C716 C704 1.410 . S
C716 C717 1.345 . S
C716 H724 0.930 . S
C717 C715 1.407 . S
C717 C716 1.345 . S
C717 H719 0.930 . S
H718 C711 0.930 . S
H719 C717 0.930 . S
H720 C708 0.930 . S
H721 C709 0.931 . S
H722 C715 0.930 . S
H723 C737 0.930 . S
H724 C716 0.930 . S
H725 C743 0.930 . S
H726 C734 0.930 . S
H727 C741 0.931 . S
H728 C705 0.929 . S
H729 C735 0.930 . S
H730 C768 0.930 . S
H731 C712 0.930 . S
H732 C767 0.929 . S
N733 Tb702 2.660 . S
N733 C734 1.305 . S
N733 C738 1.360 . S
C734 H726 0.930 . S
C734 N733 1.305 . S
C734 C737 1.407 . S
C735 H729 0.930 . S
C735 C736 1.410 . S
C735 C737 1.345 . S
C736 C735 1.410 . S
C736 C738 1.417 . S
C736 C768 1.432 . S
C737 H723 0.930 . S
C737 C734 1.407 . S
C737 C735 1.345 . S
C738 N733 1.360 . S
C738 C736 1.417 . S
C738 C742 1.432 . S
H739 C744 0.930 . S
N740 Tb702 2.600 . S
N740 C742 1.359 . S
N740 C743 1.327 . S
C741 H727 0.931 . S
C741 C743 1.392 . S
C741 C744 1.370 . S
C742 C738 1.432 . S
C742 N740 1.359 . S
C742 C745 1.414 . S
C743 H725 0.930 . S
C743 N740 1.327 . S
C743 C741 1.392 . S
C744 H739 0.930 . S
C744 C741 1.370 . S
C744 C745 1.385 . S
C745 C742 1.414 . S
C745 C744 1.385 . S
C745 C767 1.444 . S
O746 Tb702 2.546 . S
O746 C766 1.251 . S
O747 Tb702 2.610 1_545 S
O747 Tb713 2.362 1_556 S
O747 C758 1.283 . S
O748 Tb713 2.421 . S
O748 C765 1.262 1_554 S
O749 Tb702 2.320 1_545 S
O749 C765 1.260 . S
O750 Tb702 2.552 1_545 S
O750 C758 1.243 . S
O751 Tb702 2.413 . S
O751 C766 1.256 . S
O752 Tb713 2.546 . S
O752 C777 1.251 . S
O753 Tb702 2.362 1_554 S
O753 Tb713 2.610 1_565 S
O753 C769 1.283 . S
O754 Tb702 2.421 . S
O754 C776 1.262 1_556 S
O755 Tb713 2.320 1_565 S
O755 C776 1.260 . S
O756 Tb713 2.552 1_565 S
O756 C769 1.243 . S
O757 Tb713 2.413 . S
O757 C777 1.256 . S
C758 O747 1.283 . S
C758 O750 1.243 . S
C759 C761 1.382 1_565 S
C759 C763 1.393 . S
C759 C766 1.500 . S
C760 C761 1.400 . S
C760 C762 1.384 1_545 S
C761 C759 1.382 1_545 S
C761 C760 1.400 . S
C761 H778 0.930 . S
C762 C760 1.384 1_565 S
C762 C764 1.392 . S
C762 H779 0.931 . S
C763 C759 1.393 . S
C763 C764 1.401 . S
C763 H780 0.930 . S
C764 C762 1.392 . S
C764 C763 1.401 . S
C764 H781 0.930 . S
C765 O748 1.262 1_556 S
C765 O749 1.260 . S
C766 Tb702 2.833 . S
C766 O746 1.251 . S
C766 O751 1.256 . S
C766 C759 1.500 . S
C767 H732 0.929 . S
C767 C745 1.444 . S
C767 C768 1.317 . S
C768 H730 0.930 . S
C768 C736 1.432 . S
C768 C767 1.317 . S
C769 O753 1.283 . S
C769 O756 1.243 . S
C770 C771 1.382 1_545 S
C770 C774 1.393 . S
C770 C777 1.500 . S
C771 C770 1.382 1_565 S
C771 C772 1.400 . S
C771 H782 0.930 . S
C772 C771 1.400 . S
C772 C773 1.384 1_565 S
C773 C772 1.384 1_545 S
C773 C775 1.392 . S
C773 H783 0.931 . S
C774 C770 1.393 . S
C774 C775 1.401 . S
C774 H784 0.930 . S
C775 C773 1.392 . S
C775 C774 1.401 . S
C775 H785 0.930 . S
C776 O754 1.262 1_554 S
C776 O755 1.260 . S
C777 Tb713 2.833 . S
C777 O752 1.251 . S
C777 O757 1.256 . S
C777 C770 1.500 . S
H778 C761 0.930 . S
H779 C762 0.931 . S
H780 C763 0.930 . S
H781 C764 0.930 . S
H782 C771 0.930 . S
H783 C773 0.931 . S
H784 C774 0.930 . S
H785 C775 0.930 . S
Tb786 N817 2.660 . S
Tb786 N824 2.600 . S
Tb786 O830 2.546 . S
Tb786 O831 2.610 1_455 S
Tb786 O833 2.320 1_455 S
Tb786 O834 2.552 1_455 S
Tb786 O835 2.413 . S
Tb786 O837 2.362 1_556 S
Tb786 O838 2.421 . S
Tb786 C850 2.833 . S
C787 C790 1.432 . S
C787 C791 1.414 . S
C787 N794 1.359 . S
C788 C790 1.417 . S
C788 C792 1.432 . S
C788 C800 1.410 . S
C789 C791 1.444 . S
C789 C792 1.317 . S
C789 H812 0.929 . S
C790 C787 1.432 . S
C790 C788 1.417 . S
C790 N798 1.360 . S
C791 C787 1.414 . S
C791 C789 1.444 . S
C791 C796 1.385 . S
C792 C788 1.432 . S
C792 C789 1.317 . S
C792 H804 0.930 . S
C793 C795 1.392 . S
C793 C796 1.370 . S
C793 H805 0.931 . S
N794 C787 1.359 . S
N794 C795 1.327 . S
N794 Tb797 2.600 . S
C795 C793 1.392 . S
C795 N794 1.327 . S
C795 H802 0.930 . S
C796 C791 1.385 . S
C796 C793 1.370 . S
C796 H815 0.930 . S
Tb797 N794 2.600 . S
Tb797 N798 2.660 . S
Tb797 O831 2.362 1_554 S
Tb797 O832 2.421 . S
Tb797 O836 2.546 . S
Tb797 O837 2.610 1_655 S
Tb797 O839 2.320 1_655 S
Tb797 O840 2.552 1_655 S
Tb797 O841 2.413 . S
Tb797 C861 2.833 . S
N798 C790 1.360 . S
N798 Tb797 2.660 . S
N798 C799 1.305 . S
C799 N798 1.305 . S
C799 C801 1.407 . S
C799 H806 0.930 . S
C800 C788 1.410 . S
C800 C801 1.345 . S
C800 H808 0.930 . S
C801 C799 1.407 . S
C801 C800 1.345 . S
C801 H803 0.930 . S
H802 C795 0.930 . S
H803 C801 0.930 . S
H804 C792 0.930 . S
H805 C793 0.931 . S
H806 C799 0.930 . S
H807 C821 0.930 . S
H808 C800 0.930 . S
H809 C827 0.930 . S
H810 C818 0.930 . S
H811 C825 0.931 . S
H812 C789 0.929 . S
H813 C819 0.930 . S
H814 C852 0.930 . S
H815 C796 0.930 . S
H816 C851 0.929 . S
N817 Tb786 2.660 . S
N817 C818 1.305 . S
N817 C822 1.360 . S
C818 H810 0.930 . S
C818 N817 1.305 . S
C818 C821 1.407 . S
C819 H813 0.930 . S
C819 C820 1.410 . S
C819 C821 1.345 . S
C820 C819 1.410 . S
C820 C822 1.417 . S
C820 C852 1.432 . S
C821 H807 0.930 . S
C821 C818 1.407 . S
C821 C819 1.345 . S
C822 N817 1.360 . S
C822 C820 1.417 . S
C822 C826 1.432 . S
H823 C828 0.930 . S
N824 Tb786 2.600 . S
N824 C826 1.359 . S
N824 C827 1.327 . S
C825 H811 0.931 . S
C825 C827 1.392 . S
C825 C828 1.370 . S
C826 C822 1.432 . S
C826 N824 1.359 . S
C826 C829 1.414 . S
C827 H809 0.930 . S
C827 N824 1.327 . S
C827 C825 1.392 . S
C828 H823 0.930 . S
C828 C825 1.370 . S
C828 C829 1.385 . S
C829 C826 1.414 . S
C829 C828 1.385 . S
C829 C851 1.444 . S
O830 Tb786 2.546 . S
O830 C850 1.251 . S
O831 Tb786 2.610 1_655 S
O831 Tb797 2.362 1_556 S
O831 C842 1.283 . S
O832 Tb797 2.421 . S
O832 C849 1.262 1_554 S
O833 Tb786 2.320 1_655 S
O833 C849 1.260 . S
O834 Tb786 2.552 1_655 S
O834 C842 1.243 . S
O835 Tb786 2.413 . S
O835 C850 1.256 . S
O836 Tb797 2.546 . S
O836 C861 1.251 . S
O837 Tb786 2.362 1_554 S
O837 Tb797 2.610 1_455 S
O837 C853 1.283 . S
O838 Tb786 2.421 . S
O838 C860 1.262 1_556 S
O839 Tb797 2.320 1_455 S
O839 C860 1.260 . S
O840 Tb797 2.552 1_455 S
O840 C853 1.243 . S
O841 Tb797 2.413 . S
O841 C861 1.256 . S
C842 O831 1.283 . S
C842 O834 1.243 . S
C843 C845 1.382 1_455 S
C843 C847 1.393 . S
C843 C850 1.500 . S
C844 C845 1.400 . S
C844 C846 1.384 1_655 S
C845 C843 1.382 1_655 S
C845 C844 1.400 . S
C845 H862 0.930 . S
C846 C844 1.384 1_455 S
C846 C848 1.392 . S
C846 H863 0.931 . S
C847 C843 1.393 . S
C847 C848 1.401 . S
C847 H864 0.930 . S
C848 C846 1.392 . S
C848 C847 1.401 . S
C848 H865 0.930 . S
C849 O832 1.262 1_556 S
C849 O833 1.260 . S
C850 Tb786 2.833 . S
C850 O830 1.251 . S
C850 O835 1.256 . S
C850 C843 1.500 . S
C851 H816 0.929 . S
C851 C829 1.444 . S
C851 C852 1.317 . S
C852 H814 0.930 . S
C852 C820 1.432 . S
C852 C851 1.317 . S
C853 O837 1.283 . S
C853 O840 1.243 . S
C854 C855 1.382 1_655 S
C854 C858 1.393 . S
C854 C861 1.500 . S
C855 C854 1.382 1_455 S
C855 C856 1.400 . S
C855 H866 0.930 . S
C856 C855 1.400 . S
C856 C857 1.384 1_455 S
C857 C856 1.384 1_655 S
C857 C859 1.392 . S
C857 H867 0.931 . S
C858 C854 1.393 . S
C858 C859 1.401 . S
C858 H868 0.930 . S
C859 C857 1.392 . S
C859 C858 1.401 . S
C859 H869 0.930 . S
C860 O838 1.262 1_554 S
C860 O839 1.260 . S
C861 Tb797 2.833 . S
C861 O836 1.251 . S
C861 O841 1.256 . S
C861 C854 1.500 . S
H862 C845 0.930 . S
H863 C846 0.931 . S
H864 C847 0.930 . S
H865 C848 0.930 . S
H866 C855 0.930 . S
H867 C857 0.931 . S
H868 C858 0.930 . S
H869 C859 0.930 . S
Tb870 N901 2.660 . S
Tb870 N908 2.600 . S
Tb870 O914 2.546 . S
Tb870 O915 2.610 . S
Tb870 O917 2.320 . S
Tb870 O918 2.552 . S
Tb870 O919 2.413 . S
Tb870 O921 2.362 1_554 S
Tb870 O922 2.421 . S
Tb870 C934 2.833 . S
C871 C874 1.432 . S
C871 C875 1.414 . S
C871 N878 1.359 . S
C872 C874 1.417 . S
C872 C876 1.432 . S
C872 C884 1.410 . S
C873 C875 1.444 . S
C873 C876 1.317 . S
C873 H896 0.929 . S
C874 C871 1.432 . S
C874 C872 1.417 . S
C874 N882 1.360 . S
C875 C871 1.414 . S
C875 C873 1.444 . S
C875 C880 1.385 . S
C876 C872 1.432 . S
C876 C873 1.317 . S
C876 H888 0.930 . S
C877 C879 1.392 . S
C877 C880 1.370 . S
C877 H889 0.931 . S
N878 C871 1.359 . S
N878 C879 1.327 . S
N878 Tb881 2.600 . S
C879 C877 1.392 . S
C879 N878 1.327 . S
C879 H886 0.930 . S
C880 C875 1.385 . S
C880 C877 1.370 . S
C880 H899 0.930 . S
Tb881 N878 2.600 . S
Tb881 N882 2.660 . S
Tb881 O915 2.362 1_556 S
Tb881 O916 2.421 . S
Tb881 O920 2.546 . S
Tb881 O921 2.610 . S
Tb881 O923 2.320 . S
Tb881 O924 2.552 . S
Tb881 O925 2.413 . S
Tb881 C945 2.833 . S
N882 C874 1.360 . S
N882 Tb881 2.660 . S
N882 C883 1.305 . S
C883 N882 1.305 . S
C883 C885 1.407 . S
C883 H890 0.930 . S
C884 C872 1.410 . S
C884 C885 1.345 . S
C884 H892 0.930 . S
C885 C883 1.407 . S
C885 C884 1.345 . S
C885 H887 0.930 . S
H886 C879 0.930 . S
H887 C885 0.930 . S
H888 C876 0.930 . S
H889 C877 0.931 . S
H890 C883 0.930 . S
H891 C905 0.930 . S
H892 C884 0.930 . S
H893 C911 0.930 . S
H894 C902 0.930 . S
H895 C909 0.931 . S
H896 C873 0.929 . S
H897 C903 0.930 . S
H898 C936 0.930 . S
H899 C880 0.930 . S
H900 C935 0.929 . S
N901 Tb870 2.660 . S
N901 C902 1.305 . S
N901 C906 1.360 . S
C902 H894 0.930 . S
C902 N901 1.305 . S
C902 C905 1.407 . S
C903 H897 0.930 . S
C903 C904 1.410 . S
C903 C905 1.345 . S
C904 C903 1.410 . S
C904 C906 1.417 . S
C904 C936 1.432 . S
C905 H891 0.930 . S
C905 C902 1.407 . S
C905 C903 1.345 . S
C906 N901 1.360 . S
C906 C904 1.417 . S
C906 C910 1.432 . S
H907 C912 0.930 . S
N908 Tb870 2.600 . S
N908 C910 1.359 . S
N908 C911 1.327 . S
C909 H895 0.931 . S
C909 C911 1.392 . S
C909 C912 1.370 . S
C910 C906 1.432 . S
C910 N908 1.359 . S
C910 C913 1.414 . S
C911 H893 0.930 . S
C911 N908 1.327 . S
C911 C909 1.392 . S
C912 H907 0.930 . S
C912 C909 1.370 . S
C912 C913 1.385 . S
C913 C910 1.414 . S
C913 C912 1.385 . S
C913 C935 1.444 . S
O914 Tb870 2.546 . S
O914 C934 1.251 . S
O915 Tb870 2.610 . S
O915 Tb881 2.362 1_554 S
O915 C926 1.283 . S
O916 Tb881 2.421 . S
O916 C933 1.262 1_556 S
O917 Tb870 2.320 . S
O917 C933 1.260 . S
O918 Tb870 2.552 . S
O918 C926 1.243 . S
O919 Tb870 2.413 . S
O919 C934 1.256 . S
O920 Tb881 2.546 . S
O920 C945 1.251 . S
O921 Tb870 2.362 1_556 S
O921 Tb881 2.610 . S
O921 C937 1.283 . S
O922 Tb870 2.421 . S
O922 C944 1.262 1_554 S
O923 Tb881 2.320 . S
O923 C944 1.260 . S
O924 Tb881 2.552 . S
O924 C937 1.243 . S
O925 Tb881 2.413 . S
O925 C945 1.256 . S
C926 O915 1.283 . S
C926 O918 1.243 . S
C927 C929 1.382 . S
C927 C931 1.393 . S
C927 C934 1.500 . S
C928 C929 1.400 . S
C928 C930 1.384 . S
C929 C927 1.382 . S
C929 C928 1.400 . S
C929 H946 0.930 . S
C930 C928 1.384 . S
C930 C932 1.392 . S
C930 H947 0.931 . S
C931 C927 1.393 . S
C931 C932 1.401 . S
C931 H948 0.930 . S
C932 C930 1.392 . S
C932 C931 1.401 . S
C932 H949 0.930 . S
C933 O916 1.262 1_554 S
C933 O917 1.260 . S
C934 Tb870 2.833 . S
C934 O914 1.251 . S
C934 O919 1.256 . S
C934 C927 1.500 . S
C935 H900 0.929 . S
C935 C913 1.444 . S
C935 C936 1.317 . S
C936 H898 0.930 . S
C936 C904 1.432 . S
C936 C935 1.317 . S
C937 O921 1.283 . S
C937 O924 1.243 . S
C938 C939 1.382 . S
C938 C942 1.393 . S
C938 C945 1.500 . S
C939 C938 1.382 . S
C939 C940 1.400 . S
C939 H950 0.930 . S
C940 C939 1.400 . S
C940 C941 1.384 . S
C941 C940 1.384 . S
C941 C943 1.392 . S
C941 H951 0.931 . S
C942 C938 1.393 . S
C942 C943 1.401 . S
C942 H952 0.930 . S
C943 C941 1.392 . S
C943 C942 1.401 . S
C943 H953 0.930 . S
C944 O922 1.262 1_556 S
C944 O923 1.260 . S
C945 Tb881 2.833 . S
C945 O920 1.251 . S
C945 O925 1.256 . S
C945 C938 1.500 . S
H946 C929 0.930 . S
H947 C930 0.931 . S
H948 C931 0.930 . S
H949 C932 0.930 . S
H950 C939 0.930 . S
H951 C941 0.931 . S
H952 C942 0.930 . S
H953 C943 0.930 . S
Tb954 N985 2.660 . S
Tb954 N992 2.600 . S
Tb954 O998 2.546 . S
Tb954 O999 2.610 . S
Tb954 O1001 2.320 . S
Tb954 O1002 2.552 . S
Tb954 O1003 2.413 . S
Tb954 O1005 2.362 . S
Tb954 O1006 2.421 . S
Tb954 C1018 2.833 . S
C955 C958 1.432 . S
C955 C959 1.414 . S
C955 N962 1.359 . S
C956 C958 1.417 . S
C956 C960 1.432 . S
C956 C968 1.410 . S
C957 C959 1.444 . S
C957 C960 1.317 . S
C957 H980 0.929 . S
C958 C955 1.432 . S
C958 C956 1.417 . S
C958 N966 1.360 . S
C959 C955 1.414 . S
C959 C957 1.444 . S
C959 C964 1.385 . S
C960 C956 1.432 . S
C960 C957 1.317 . S
C960 H972 0.930 . S
C961 C963 1.392 . S
C961 C964 1.370 . S
C961 H973 0.931 . S
N962 C955 1.359 . S
N962 C963 1.327 . S
N962 Tb965 2.600 . S
C963 C961 1.392 . S
C963 N962 1.327 . S
C963 H970 0.930 . S
C964 C959 1.385 . S
C964 C961 1.370 . S
C964 H983 0.930 . S
Tb965 N962 2.600 . S
Tb965 N966 2.660 . S
Tb965 O999 2.362 . S
Tb965 O1000 2.421 . S
Tb965 O1004 2.546 . S
Tb965 O1005 2.610 . S
Tb965 O1007 2.320 . S
Tb965 O1008 2.552 . S
Tb965 O1009 2.413 . S
Tb965 C1029 2.833 . S
N966 C958 1.360 . S
N966 Tb965 2.660 . S
N966 C967 1.305 . S
C967 N966 1.305 . S
C967 C969 1.407 . S
C967 H974 0.930 . S
C968 C956 1.410 . S
C968 C969 1.345 . S
C968 H976 0.930 . S
C969 C967 1.407 . S
C969 C968 1.345 . S
C969 H971 0.930 . S
H970 C963 0.930 . S
H971 C969 0.930 . S
H972 C960 0.930 . S
H973 C961 0.931 . S
H974 C967 0.930 . S
H975 C989 0.930 . S
H976 C968 0.930 . S
H977 C995 0.930 . S
H978 C986 0.930 . S
H979 C993 0.931 . S
H980 C957 0.929 . S
H981 C987 0.930 . S
H982 C1020 0.930 . S
H983 C964 0.930 . S
H984 C1019 0.929 . S
N985 Tb954 2.660 . S
N985 C986 1.305 . S
N985 C990 1.360 . S
C986 H978 0.930 . S
C986 N985 1.305 . S
C986 C989 1.407 . S
C987 H981 0.930 . S
C987 C988 1.410 . S
C987 C989 1.345 . S
C988 C987 1.410 . S
C988 C990 1.417 . S
C988 C1020 1.432 . S
C989 H975 0.930 . S
C989 C986 1.407 . S
C989 C987 1.345 . S
C990 N985 1.360 . S
C990 C988 1.417 . S
C990 C994 1.432 . S
H991 C996 0.930 . S
N992 Tb954 2.600 . S
N992 C994 1.359 . S
N992 C995 1.327 . S
C993 H979 0.931 . S
C993 C995 1.392 . S
C993 C996 1.370 . S
C994 C990 1.432 . S
C994 N992 1.359 . S
C994 C997 1.414 . S
C995 H977 0.930 . S
C995 N992 1.327 . S
C995 C993 1.392 . S
C996 H991 0.930 . S
C996 C993 1.370 . S
C996 C997 1.385 . S
C997 C994 1.414 . S
C997 C996 1.385 . S
C997 C1019 1.444 . S
O998 Tb954 2.546 . S
O998 C1018 1.251 . S
O999 Tb954 2.610 . S
O999 Tb965 2.362 . S
O999 C1010 1.283 . S
O1000 Tb965 2.421 . S
O1000 C1017 1.262 . S
O1001 Tb954 2.320 . S
O1001 C1017 1.260 . S
O1002 Tb954 2.552 . S
O1002 C1010 1.243 . S
O1003 Tb954 2.413 . S
O1003 C1018 1.256 . S
O1004 Tb965 2.546 . S
O1004 C1029 1.251 . S
O1005 Tb954 2.362 . S
O1005 Tb965 2.610 . S
O1005 C1021 1.283 . S
O1006 Tb954 2.421 . S
O1006 C1028 1.262 . S
O1007 Tb965 2.320 . S
O1007 C1028 1.260 . S
O1008 Tb965 2.552 . S
O1008 C1021 1.243 . S
O1009 Tb965 2.413 . S
O1009 C1029 1.256 . S
C1010 O999 1.283 . S
C1010 O1002 1.243 . S
C1011 C1013 1.382 . S
C1011 C1015 1.393 . S
C1011 C1018 1.500 . S
C1012 C1013 1.400 . S
C1012 C1014 1.384 . S
C1013 C1011 1.382 . S
C1013 C1012 1.400 . S
C1013 H1030 0.930 . S
C1014 C1012 1.384 . S
C1014 C1016 1.392 . S
C1014 H1031 0.931 . S
C1015 C1011 1.393 . S
C1015 C1016 1.401 . S
C1015 H1032 0.930 . S
C1016 C1014 1.392 . S
C1016 C1015 1.401 . S
C1016 H1033 0.930 . S
C1017 O1000 1.262 . S
C1017 O1001 1.260 . S
C1018 Tb954 2.833 . S
C1018 O998 1.251 . S
C1018 O1003 1.256 . S
C1018 C1011 1.500 . S
C1019 H984 0.929 . S
C1019 C997 1.444 . S
C1019 C1020 1.317 . S
C1020 H982 0.930 . S
C1020 C988 1.432 . S
C1020 C1019 1.317 . S
C1021 O1005 1.283 . S
C1021 O1008 1.243 . S
C1022 C1023 1.382 . S
C1022 C1026 1.393 . S
C1022 C1029 1.500 . S
C1023 C1022 1.382 . S
C1023 C1024 1.400 . S
C1023 H1034 0.930 . S
C1024 C1023 1.400 . S
C1024 C1025 1.384 . S
C1025 C1024 1.384 . S
C1025 C1027 1.392 . S
C1025 H1035 0.931 . S
C1026 C1022 1.393 . S
C1026 C1027 1.401 . S
C1026 H1036 0.930 . S
C1027 C1025 1.392 . S
C1027 C1026 1.401 . S
C1027 H1037 0.930 . S
C1028 O1006 1.262 . S
C1028 O1007 1.260 . S
C1029 Tb965 2.833 . S
C1029 O1004 1.251 . S
C1029 O1009 1.256 . S
C1029 C1022 1.500 . S
H1030 C1013 0.930 . S
H1031 C1014 0.931 . S
H1032 C1015 0.930 . S
H1033 C1016 0.930 . S
H1034 C1023 0.930 . S
H1035 C1025 0.931 . S
H1036 C1026 0.930 . S
H1037 C1027 0.930 . S
Tb1038 N1069 2.660 . S
Tb1038 N1076 2.600 . S
Tb1038 O1082 2.546 . S
Tb1038 O1083 2.610 . S
Tb1038 O1085 2.320 . S
Tb1038 O1086 2.552 . S
Tb1038 O1087 2.413 . S
Tb1038 O1089 2.362 . S
Tb1038 O1090 2.421 . S
Tb1038 C1102 2.833 . S
C1039 C1042 1.432 . S
C1039 C1043 1.414 . S
C1039 N1046 1.359 . S
C1040 C1042 1.417 . S
C1040 C1044 1.432 . S
C1040 C1052 1.410 . S
C1041 C1043 1.444 . S
C1041 C1044 1.317 . S
C1041 H1064 0.929 . S
C1042 C1039 1.432 . S
C1042 C1040 1.417 . S
C1042 N1050 1.360 . S
C1043 C1039 1.414 . S
C1043 C1041 1.444 . S
C1043 C1048 1.385 . S
C1044 C1040 1.432 . S
C1044 C1041 1.317 . S
C1044 H1056 0.930 . S
C1045 C1047 1.392 . S
C1045 C1048 1.370 . S
C1045 H1057 0.931 . S
N1046 C1039 1.359 . S
N1046 C1047 1.327 . S
N1046 Tb1049 2.600 . S
C1047 C1045 1.392 . S
C1047 N1046 1.327 . S
C1047 H1054 0.930 . S
C1048 C1043 1.385 . S
C1048 C1045 1.370 . S
C1048 H1067 0.930 . S
Tb1049 N1046 2.600 . S
Tb1049 N1050 2.660 . S
Tb1049 O1083 2.362 . S
Tb1049 O1084 2.421 . S
Tb1049 O1088 2.546 . S
Tb1049 O1089 2.610 . S
Tb1049 O1091 2.320 . S
Tb1049 O1092 2.552 . S
Tb1049 O1093 2.413 . S
Tb1049 C1113 2.833 . S
N1050 C1042 1.360 . S
N1050 Tb1049 2.660 . S
N1050 C1051 1.305 . S
C1051 N1050 1.305 . S
C1051 C1053 1.407 . S
C1051 H1058 0.930 . S
C1052 C1040 1.410 . S
C1052 C1053 1.345 . S
C1052 H1060 0.930 . S
C1053 C1051 1.407 . S
C1053 C1052 1.345 . S
C1053 H1055 0.930 . S
H1054 C1047 0.930 . S
H1055 C1053 0.930 . S
H1056 C1044 0.930 . S
H1057 C1045 0.931 . S
H1058 C1051 0.930 . S
H1059 C1073 0.930 . S
H1060 C1052 0.930 . S
H1061 C1079 0.930 . S
H1062 C1070 0.930 . S
H1063 C1077 0.931 . S
H1064 C1041 0.929 . S
H1065 C1071 0.930 . S
H1066 C1104 0.930 . S
H1067 C1048 0.930 . S
H1068 C1103 0.929 . S
N1069 Tb1038 2.660 . S
N1069 C1070 1.305 . S
N1069 C1074 1.360 . S
C1070 H1062 0.930 . S
C1070 N1069 1.305 . S
C1070 C1073 1.407 . S
C1071 H1065 0.930 . S
C1071 C1072 1.410 . S
C1071 C1073 1.345 . S
C1072 C1071 1.410 . S
C1072 C1074 1.417 . S
C1072 C1104 1.432 . S
C1073 H1059 0.930 . S
C1073 C1070 1.407 . S
C1073 C1071 1.345 . S
C1074 N1069 1.360 . S
C1074 C1072 1.417 . S
C1074 C1078 1.432 . S
H1075 C1080 0.930 . S
N1076 Tb1038 2.600 . S
N1076 C1078 1.359 . S
N1076 C1079 1.327 . S
C1077 H1063 0.931 . S
C1077 C1079 1.392 . S
C1077 C1080 1.370 . S
C1078 C1074 1.432 . S
C1078 N1076 1.359 . S
C1078 C1081 1.414 . S
C1079 H1061 0.930 . S
C1079 N1076 1.327 . S
C1079 C1077 1.392 . S
C1080 H1075 0.930 . S
C1080 C1077 1.370 . S
C1080 C1081 1.385 . S
C1081 C1078 1.414 . S
C1081 C1080 1.385 . S
C1081 C1103 1.444 . S
O1082 Tb1038 2.546 . S
O1082 C1102 1.251 . S
O1083 Tb1038 2.610 . S
O1083 Tb1049 2.362 . S
O1083 C1094 1.283 . S
O1084 Tb1049 2.421 . S
O1084 C1101 1.262 . S
O1085 Tb1038 2.320 . S
O1085 C1101 1.260 . S
O1086 Tb1038 2.552 . S
O1086 C1094 1.243 . S
O1087 Tb1038 2.413 . S
O1087 C1102 1.256 . S
O1088 Tb1049 2.546 . S
O1088 C1113 1.251 . S
O1089 Tb1038 2.362 . S
O1089 Tb1049 2.610 . S
O1089 C1105 1.283 . S
O1090 Tb1038 2.421 . S
O1090 C1112 1.262 . S
O1091 Tb1049 2.320 . S
O1091 C1112 1.260 . S
O1092 Tb1049 2.552 . S
O1092 C1105 1.243 . S
O1093 Tb1049 2.413 . S
O1093 C1113 1.256 . S
C1094 O1083 1.283 . S
C1094 O1086 1.243 . S
C1095 C1097 1.382 . S
C1095 C1099 1.393 . S
C1095 C1102 1.500 . S
C1096 C1097 1.400 . S
C1096 C1098 1.384 . S
C1097 C1095 1.382 . S
C1097 C1096 1.400 . S
C1097 H1114 0.930 . S
C1098 C1096 1.384 . S
C1098 C1100 1.392 . S
C1098 H1115 0.931 . S
C1099 C1095 1.393 . S
C1099 C1100 1.401 . S
C1099 H1116 0.930 . S
C1100 C1098 1.392 . S
C1100 C1099 1.401 . S
C1100 H1117 0.930 . S
C1101 O1084 1.262 . S
C1101 O1085 1.260 . S
C1102 Tb1038 2.833 . S
C1102 O1082 1.251 . S
C1102 O1087 1.256 . S
C1102 C1095 1.500 . S
C1103 H1068 0.929 . S
C1103 C1081 1.444 . S
C1103 C1104 1.317 . S
C1104 H1066 0.930 . S
C1104 C1072 1.432 . S
C1104 C1103 1.317 . S
C1105 O1089 1.283 . S
C1105 O1092 1.243 . S
C1106 C1107 1.382 . S
C1106 C1110 1.393 . S
C1106 C1113 1.500 . S
C1107 C1106 1.382 . S
C1107 C1108 1.400 . S
C1107 H1118 0.930 . S
C1108 C1107 1.400 . S
C1108 C1109 1.384 . S
C1109 C1108 1.384 . S
C1109 C1111 1.392 . S
C1109 H1119 0.931 . S
C1110 C1106 1.393 . S
C1110 C1111 1.401 . S
C1110 H1120 0.930 . S
C1111 C1109 1.392 . S
C1111 C1110 1.401 . S
C1111 H1121 0.930 . S
C1112 O1090 1.262 . S
C1112 O1091 1.260 . S
C1113 Tb1049 2.833 . S
C1113 O1088 1.251 . S
C1113 O1093 1.256 . S
C1113 C1106 1.500 . S
H1114 C1097 0.930 . S
H1115 C1098 0.931 . S
H1116 C1099 0.930 . S
H1117 C1100 0.930 . S
H1118 C1107 0.930 . S
H1119 C1109 0.931 . S
H1120 C1110 0.930 . S
H1121 C1111 0.930 . S
Tb1122 N1153 2.660 . S
Tb1122 N1160 2.600 . S
Tb1122 O1166 2.546 . S
Tb1122 O1167 2.610 . S
Tb1122 O1169 2.320 . S
Tb1122 O1170 2.552 . S
Tb1122 O1171 2.413 . S
Tb1122 O1173 2.362 . S
Tb1122 O1174 2.421 . S
Tb1122 C1186 2.833 . S
C1123 C1126 1.432 . S
C1123 C1127 1.414 . S
C1123 N1130 1.359 . S
C1124 C1126 1.417 . S
C1124 C1128 1.432 . S
C1124 C1136 1.410 . S
C1125 C1127 1.444 . S
C1125 C1128 1.317 . S
C1125 H1148 0.929 . S
C1126 C1123 1.432 . S
C1126 C1124 1.417 . S
C1126 N1134 1.360 . S
C1127 C1123 1.414 . S
C1127 C1125 1.444 . S
C1127 C1132 1.385 . S
C1128 C1124 1.432 . S
C1128 C1125 1.317 . S
C1128 H1140 0.930 . S
C1129 C1131 1.392 . S
C1129 C1132 1.370 . S
C1129 H1141 0.931 . S
N1130 C1123 1.359 . S
N1130 C1131 1.327 . S
N1130 Tb1133 2.600 . S
C1131 C1129 1.392 . S
C1131 N1130 1.327 . S
C1131 H1138 0.930 . S
C1132 C1127 1.385 . S
C1132 C1129 1.370 . S
C1132 H1151 0.930 . S
Tb1133 N1130 2.600 . S
Tb1133 N1134 2.660 . S
Tb1133 O1167 2.362 . S
Tb1133 O1168 2.421 . S
Tb1133 O1172 2.546 . S
Tb1133 O1173 2.610 . S
Tb1133 O1175 2.320 . S
Tb1133 O1176 2.552 . S
Tb1133 O1177 2.413 . S
Tb1133 C1197 2.833 . S
N1134 C1126 1.360 . S
N1134 Tb1133 2.660 . S
N1134 C1135 1.305 . S
C1135 N1134 1.305 . S
C1135 C1137 1.407 . S
C1135 H1142 0.930 . S
C1136 C1124 1.410 . S
C1136 C1137 1.345 . S
C1136 H1144 0.930 . S
C1137 C1135 1.407 . S
C1137 C1136 1.345 . S
C1137 H1139 0.930 . S
H1138 C1131 0.930 . S
H1139 C1137 0.930 . S
H1140 C1128 0.930 . S
H1141 C1129 0.931 . S
H1142 C1135 0.930 . S
H1143 C1157 0.930 . S
H1144 C1136 0.930 . S
H1145 C1163 0.930 . S
H1146 C1154 0.930 . S
H1147 C1161 0.931 . S
H1148 C1125 0.929 . S
H1149 C1155 0.930 . S
H1150 C1188 0.930 . S
H1151 C1132 0.930 . S
H1152 C1187 0.929 . S
N1153 Tb1122 2.660 . S
N1153 C1154 1.305 . S
N1153 C1158 1.360 . S
C1154 H1146 0.930 . S
C1154 N1153 1.305 . S
C1154 C1157 1.407 . S
C1155 H1149 0.930 . S
C1155 C1156 1.410 . S
C1155 C1157 1.345 . S
C1156 C1155 1.410 . S
C1156 C1158 1.417 . S
C1156 C1188 1.432 . S
C1157 H1143 0.930 . S
C1157 C1154 1.407 . S
C1157 C1155 1.345 . S
C1158 N1153 1.360 . S
C1158 C1156 1.417 . S
C1158 C1162 1.432 . S
H1159 C1164 0.930 . S
N1160 Tb1122 2.600 . S
N1160 C1162 1.359 . S
N1160 C1163 1.327 . S
C1161 H1147 0.931 . S
C1161 C1163 1.392 . S
C1161 C1164 1.370 . S
C1162 C1158 1.432 . S
C1162 N1160 1.359 . S
C1162 C1165 1.414 . S
C1163 H1145 0.930 . S
C1163 N1160 1.327 . S
C1163 C1161 1.392 . S
C1164 H1159 0.930 . S
C1164 C1161 1.370 . S
C1164 C1165 1.385 . S
C1165 C1162 1.414 . S
C1165 C1164 1.385 . S
C1165 C1187 1.444 . S
O1166 Tb1122 2.546 . S
O1166 C1186 1.251 . S
O1167 Tb1122 2.610 . S
O1167 Tb1133 2.362 . S
O1167 C1178 1.283 . S
O1168 Tb1133 2.421 . S
O1168 C1185 1.262 . S
O1169 Tb1122 2.320 . S
O1169 C1185 1.260 . S
O1170 Tb1122 2.552 . S
O1170 C1178 1.243 . S
O1171 Tb1122 2.413 . S
O1171 C1186 1.256 . S
O1172 Tb1133 2.546 . S
O1172 C1197 1.251 . S
O1173 Tb1122 2.362 . S
O1173 Tb1133 2.610 . S
O1173 C1189 1.283 . S
O1174 Tb1122 2.421 . S
O1174 C1196 1.262 . S
O1175 Tb1133 2.320 . S
O1175 C1196 1.260 . S
O1176 Tb1133 2.552 . S
O1176 C1189 1.243 . S
O1177 Tb1133 2.413 . S
O1177 C1197 1.256 . S
C1178 O1167 1.283 . S
C1178 O1170 1.243 . S
C1179 C1181 1.382 . S
C1179 C1183 1.393 . S
C1179 C1186 1.500 . S
C1180 C1181 1.400 . S
C1180 C1182 1.384 . S
C1181 C1179 1.382 . S
C1181 C1180 1.400 . S
C1181 H1198 0.930 . S
C1182 C1180 1.384 . S
C1182 C1184 1.392 . S
C1182 H1199 0.931 . S
C1183 C1179 1.393 . S
C1183 C1184 1.401 . S
C1183 H1200 0.930 . S
C1184 C1182 1.392 . S
C1184 C1183 1.401 . S
C1184 H1201 0.930 . S
C1185 O1168 1.262 . S
C1185 O1169 1.260 . S
C1186 Tb1122 2.833 . S
C1186 O1166 1.251 . S
C1186 O1171 1.256 . S
C1186 C1179 1.500 . S
C1187 H1152 0.929 . S
C1187 C1165 1.444 . S
C1187 C1188 1.317 . S
C1188 H1150 0.930 . S
C1188 C1156 1.432 . S
C1188 C1187 1.317 . S
C1189 O1173 1.283 . S
C1189 O1176 1.243 . S
C1190 C1191 1.382 . S
C1190 C1194 1.393 . S
C1190 C1197 1.500 . S
C1191 C1190 1.382 . S
C1191 C1192 1.400 . S
C1191 H1202 0.930 . S
C1192 C1191 1.400 . S
C1192 C1193 1.384 . S
C1193 C1192 1.384 . S
C1193 C1195 1.392 . S
C1193 H1203 0.931 . S
C1194 C1190 1.393 . S
C1194 C1195 1.401 . S
C1194 H1204 0.930 . S
C1195 C1193 1.392 . S
C1195 C1194 1.401 . S
C1195 H1205 0.930 . S
C1196 O1174 1.262 . S
C1196 O1175 1.260 . S
C1197 Tb1133 2.833 . S
C1197 O1172 1.251 . S
C1197 O1177 1.256 . S
C1197 C1190 1.500 . S
H1198 C1181 0.930 . S
H1199 C1182 0.931 . S
H1200 C1183 0.930 . S
H1201 C1184 0.930 . S
H1202 C1191 0.930 . S
H1203 C1193 0.931 . S
H1204 C1194 0.930 . S
H1205 C1195 0.930 . S
Tb1206 N1237 2.660 . S
Tb1206 N1244 2.600 . S
Tb1206 O1250 2.546 . S
Tb1206 O1251 2.610 . S
Tb1206 O1253 2.320 . S
Tb1206 O1254 2.552 . S
Tb1206 O1255 2.413 . S
Tb1206 O1257 2.362 . S
Tb1206 O1258 2.421 . S
Tb1206 C1270 2.833 . S
C1207 C1210 1.432 . S
C1207 C1211 1.414 . S
C1207 N1214 1.359 . S
C1208 C1210 1.417 . S
C1208 C1212 1.432 . S
C1208 C1220 1.410 . S
C1209 C1211 1.444 . S
C1209 C1212 1.317 . S
C1209 H1232 0.929 . S
C1210 C1207 1.432 . S
C1210 C1208 1.417 . S
C1210 N1218 1.360 . S
C1211 C1207 1.414 . S
C1211 C1209 1.444 . S
C1211 C1216 1.385 . S
C1212 C1208 1.432 . S
C1212 C1209 1.317 . S
C1212 H1224 0.930 . S
C1213 C1215 1.392 . S
C1213 C1216 1.370 . S
C1213 H1225 0.931 . S
N1214 C1207 1.359 . S
N1214 C1215 1.327 . S
N1214 Tb1217 2.600 . S
C1215 C1213 1.392 . S
C1215 N1214 1.327 . S
C1215 H1222 0.930 . S
C1216 C1211 1.385 . S
C1216 C1213 1.370 . S
C1216 H1235 0.930 . S
Tb1217 N1214 2.600 . S
Tb1217 N1218 2.660 . S
Tb1217 O1251 2.362 . S
Tb1217 O1252 2.421 . S
Tb1217 O1256 2.546 . S
Tb1217 O1257 2.610 . S
Tb1217 O1259 2.320 . S
Tb1217 O1260 2.552 . S
Tb1217 O1261 2.413 . S
Tb1217 C1281 2.833 . S
N1218 C1210 1.360 . S
N1218 Tb1217 2.660 . S
N1218 C1219 1.305 . S
C1219 N1218 1.305 . S
C1219 C1221 1.407 . S
C1219 H1226 0.930 . S
C1220 C1208 1.410 . S
C1220 C1221 1.345 . S
C1220 H1228 0.930 . S
C1221 C1219 1.407 . S
C1221 C1220 1.345 . S
C1221 H1223 0.930 . S
H1222 C1215 0.930 . S
H1223 C1221 0.930 . S
H1224 C1212 0.930 . S
H1225 C1213 0.931 . S
H1226 C1219 0.930 . S
H1227 C1241 0.930 . S
H1228 C1220 0.930 . S
H1229 C1247 0.930 . S
H1230 C1238 0.930 . S
H1231 C1245 0.931 . S
H1232 C1209 0.929 . S
H1233 C1239 0.930 . S
H1234 C1272 0.930 . S
H1235 C1216 0.930 . S
H1236 C1271 0.929 . S
N1237 Tb1206 2.660 . S
N1237 C1238 1.305 . S
N1237 C1242 1.360 . S
C1238 H1230 0.930 . S
C1238 N1237 1.305 . S
C1238 C1241 1.407 . S
C1239 H1233 0.930 . S
C1239 C1240 1.410 . S
C1239 C1241 1.345 . S
C1240 C1239 1.410 . S
C1240 C1242 1.417 . S
C1240 C1272 1.432 . S
C1241 H1227 0.930 . S
C1241 C1238 1.407 . S
C1241 C1239 1.345 . S
C1242 N1237 1.360 . S
C1242 C1240 1.417 . S
C1242 C1246 1.432 . S
H1243 C1248 0.930 . S
N1244 Tb1206 2.600 . S
N1244 C1246 1.359 . S
N1244 C1247 1.327 . S
C1245 H1231 0.931 . S
C1245 C1247 1.392 . S
C1245 C1248 1.370 . S
C1246 C1242 1.432 . S
C1246 N1244 1.359 . S
C1246 C1249 1.414 . S
C1247 H1229 0.930 . S
C1247 N1244 1.327 . S
C1247 C1245 1.392 . S
C1248 H1243 0.930 . S
C1248 C1245 1.370 . S
C1248 C1249 1.385 . S
C1249 C1246 1.414 . S
C1249 C1248 1.385 . S
C1249 C1271 1.444 . S
O1250 Tb1206 2.546 . S
O1250 C1270 1.251 . S
O1251 Tb1206 2.610 . S
O1251 Tb1217 2.362 . S
O1251 C1262 1.283 . S
O1252 Tb1217 2.421 . S
O1252 C1269 1.262 . S
O1253 Tb1206 2.320 . S
O1253 C1269 1.260 . S
O1254 Tb1206 2.552 . S
O1254 C1262 1.243 . S
O1255 Tb1206 2.413 . S
O1255 C1270 1.256 . S
O1256 Tb1217 2.546 . S
O1256 C1281 1.251 . S
O1257 Tb1206 2.362 . S
O1257 Tb1217 2.610 . S
O1257 C1273 1.283 . S
O1258 Tb1206 2.421 . S
O1258 C1280 1.262 . S
O1259 Tb1217 2.320 . S
O1259 C1280 1.260 . S
O1260 Tb1217 2.552 . S
O1260 C1273 1.243 . S
O1261 Tb1217 2.413 . S
O1261 C1281 1.256 . S
C1262 O1251 1.283 . S
C1262 O1254 1.243 . S
C1263 C1265 1.382 . S
C1263 C1267 1.393 . S
C1263 C1270 1.500 . S
C1264 C1265 1.400 . S
C1264 C1266 1.384 . S
C1265 C1263 1.382 . S
C1265 C1264 1.400 . S
C1265 H1282 0.930 . S
C1266 C1264 1.384 . S
C1266 C1268 1.392 . S
C1266 H1283 0.931 . S
C1267 C1263 1.393 . S
C1267 C1268 1.401 . S
C1267 H1284 0.930 . S
C1268 C1266 1.392 . S
C1268 C1267 1.401 . S
C1268 H1285 0.930 . S
C1269 O1252 1.262 . S
C1269 O1253 1.260 . S
C1270 Tb1206 2.833 . S
C1270 O1250 1.251 . S
C1270 O1255 1.256 . S
C1270 C1263 1.500 . S
C1271 H1236 0.929 . S
C1271 C1249 1.444 . S
C1271 C1272 1.317 . S
C1272 H1234 0.930 . S
C1272 C1240 1.432 . S
C1272 C1271 1.317 . S
C1273 O1257 1.283 . S
C1273 O1260 1.243 . S
C1274 C1275 1.382 . S
C1274 C1278 1.393 . S
C1274 C1281 1.500 . S
C1275 C1274 1.382 . S
C1275 C1276 1.400 . S
C1275 H1286 0.930 . S
C1276 C1275 1.400 . S
C1276 C1277 1.384 . S
C1277 C1276 1.384 . S
C1277 C1279 1.392 . S
C1277 H1287 0.931 . S
C1278 C1274 1.393 . S
C1278 C1279 1.401 . S
C1278 H1288 0.930 . S
C1279 C1277 1.392 . S
C1279 C1278 1.401 . S
C1279 H1289 0.930 . S
C1280 O1258 1.262 . S
C1280 O1259 1.260 . S
C1281 Tb1217 2.833 . S
C1281 O1256 1.251 . S
C1281 O1261 1.256 . S
C1281 C1274 1.500 . S
H1282 C1265 0.930 . S
H1283 C1266 0.931 . S
H1284 C1267 0.930 . S
H1285 C1268 0.930 . S
H1286 C1275 0.930 . S
H1287 C1277 0.931 . S
H1288 C1278 0.930 . S
H1289 C1279 0.930 . S
Tb1290 N1321 2.660 . S
Tb1290 N1328 2.600 . S
Tb1290 O1334 2.546 . S
Tb1290 O1335 2.610 . S
Tb1290 O1337 2.320 . S
Tb1290 O1338 2.552 . S
Tb1290 O1339 2.413 . S
Tb1290 O1341 2.362 . S
Tb1290 O1342 2.421 . S
Tb1290 C1354 2.833 . S
C1291 C1294 1.432 . S
C1291 C1295 1.414 . S
C1291 N1298 1.359 . S
C1292 C1294 1.417 . S
C1292 C1296 1.432 . S
C1292 C1304 1.410 . S
C1293 C1295 1.444 . S
C1293 C1296 1.317 . S
C1293 H1316 0.929 . S
C1294 C1291 1.432 . S
C1294 C1292 1.417 . S
C1294 N1302 1.360 . S
C1295 C1291 1.414 . S
C1295 C1293 1.444 . S
C1295 C1300 1.385 . S
C1296 C1292 1.432 . S
C1296 C1293 1.317 . S
C1296 H1308 0.930 . S
C1297 C1299 1.392 . S
C1297 C1300 1.370 . S
C1297 H1309 0.931 . S
N1298 C1291 1.359 . S
N1298 C1299 1.327 . S
N1298 Tb1301 2.600 . S
C1299 C1297 1.392 . S
C1299 N1298 1.327 . S
C1299 H1306 0.930 . S
C1300 C1295 1.385 . S
C1300 C1297 1.370 . S
C1300 H1319 0.930 . S
Tb1301 N1298 2.600 . S
Tb1301 N1302 2.660 . S
Tb1301 O1335 2.362 . S
Tb1301 O1336 2.421 . S
Tb1301 O1340 2.546 . S
Tb1301 O1341 2.610 . S
Tb1301 O1343 2.320 . S
Tb1301 O1344 2.552 . S
Tb1301 O1345 2.413 . S
Tb1301 C1365 2.833 . S
N1302 C1294 1.360 . S
N1302 Tb1301 2.660 . S
N1302 C1303 1.305 . S
C1303 N1302 1.305 . S
C1303 C1305 1.407 . S
C1303 H1310 0.930 . S
C1304 C1292 1.410 . S
C1304 C1305 1.345 . S
C1304 H1312 0.930 . S
C1305 C1303 1.407 . S
C1305 C1304 1.345 . S
C1305 H1307 0.930 . S
H1306 C1299 0.930 . S
H1307 C1305 0.930 . S
H1308 C1296 0.930 . S
H1309 C1297 0.931 . S
H1310 C1303 0.930 . S
H1311 C1325 0.930 . S
H1312 C1304 0.930 . S
H1313 C1331 0.930 . S
H1314 C1322 0.930 . S
H1315 C1329 0.931 . S
H1316 C1293 0.929 . S
H1317 C1323 0.930 . S
H1318 C1356 0.930 . S
H1319 C1300 0.930 . S
H1320 C1355 0.929 . S
N1321 Tb1290 2.660 . S
N1321 C1322 1.305 . S
N1321 C1326 1.360 . S
C1322 H1314 0.930 . S
C1322 N1321 1.305 . S
C1322 C1325 1.407 . S
C1323 H1317 0.930 . S
C1323 C1324 1.410 . S
C1323 C1325 1.345 . S
C1324 C1323 1.410 . S
C1324 C1326 1.417 . S
C1324 C1356 1.432 . S
C1325 H1311 0.930 . S
C1325 C1322 1.407 . S
C1325 C1323 1.345 . S
C1326 N1321 1.360 . S
C1326 C1324 1.417 . S
C1326 C1330 1.432 . S
H1327 C1332 0.930 . S
N1328 Tb1290 2.600 . S
N1328 C1330 1.359 . S
N1328 C1331 1.327 . S
C1329 H1315 0.931 . S
C1329 C1331 1.392 . S
C1329 C1332 1.370 . S
C1330 C1326 1.432 . S
C1330 N1328 1.359 . S
C1330 C1333 1.414 . S
C1331 H1313 0.930 . S
C1331 N1328 1.327 . S
C1331 C1329 1.392 . S
C1332 H1327 0.930 . S
C1332 C1329 1.370 . S
C1332 C1333 1.385 . S
C1333 C1330 1.414 . S
C1333 C1332 1.385 . S
C1333 C1355 1.444 . S
O1334 Tb1290 2.546 . S
O1334 C1354 1.251 . S
O1335 Tb1290 2.610 . S
O1335 Tb1301 2.362 . S
O1335 C1346 1.283 . S
O1336 Tb1301 2.421 . S
O1336 C1353 1.262 . S
O1337 Tb1290 2.320 . S
O1337 C1353 1.260 . S
O1338 Tb1290 2.552 . S
O1338 C1346 1.243 . S
O1339 Tb1290 2.413 . S
O1339 C1354 1.256 . S
O1340 Tb1301 2.546 . S
O1340 C1365 1.251 . S
O1341 Tb1290 2.362 . S
O1341 Tb1301 2.610 . S
O1341 C1357 1.283 . S
O1342 Tb1290 2.421 . S
O1342 C1364 1.262 . S
O1343 Tb1301 2.320 . S
O1343 C1364 1.260 . S
O1344 Tb1301 2.552 . S
O1344 C1357 1.243 . S
O1345 Tb1301 2.413 . S
O1345 C1365 1.256 . S
C1346 O1335 1.283 . S
C1346 O1338 1.243 . S
C1347 C1349 1.382 . S
C1347 C1351 1.393 . S
C1347 C1354 1.500 . S
C1348 C1349 1.400 . S
C1348 C1350 1.384 . S
C1349 C1347 1.382 . S
C1349 C1348 1.400 . S
C1349 H1366 0.930 . S
C1350 C1348 1.384 . S
C1350 C1352 1.392 . S
C1350 H1367 0.931 . S
C1351 C1347 1.393 . S
C1351 C1352 1.401 . S
C1351 H1368 0.930 . S
C1352 C1350 1.392 . S
C1352 C1351 1.401 . S
C1352 H1369 0.930 . S
C1353 O1336 1.262 . S
C1353 O1337 1.260 . S
C1354 Tb1290 2.833 . S
C1354 O1334 1.251 . S
C1354 O1339 1.256 . S
C1354 C1347 1.500 . S
C1355 H1320 0.929 . S
C1355 C1333 1.444 . S
C1355 C1356 1.317 . S
C1356 H1318 0.930 . S
C1356 C1324 1.432 . S
C1356 C1355 1.317 . S
C1357 O1341 1.283 . S
C1357 O1344 1.243 . S
C1358 C1359 1.382 . S
C1358 C1362 1.393 . S
C1358 C1365 1.500 . S
C1359 C1358 1.382 . S
C1359 C1360 1.400 . S
C1359 H1370 0.930 . S
C1360 C1359 1.400 . S
C1360 C1361 1.384 . S
C1361 C1360 1.384 . S
C1361 C1363 1.392 . S
C1361 H1371 0.931 . S
C1362 C1358 1.393 . S
C1362 C1363 1.401 . S
C1362 H1372 0.930 . S
C1363 C1361 1.392 . S
C1363 C1362 1.401 . S
C1363 H1373 0.930 . S
C1364 O1342 1.262 . S
C1364 O1343 1.260 . S
C1365 Tb1301 2.833 . S
C1365 O1340 1.251 . S
C1365 O1345 1.256 . S
C1365 C1358 1.500 . S
H1366 C1349 0.930 . S
H1367 C1350 0.931 . S
H1368 C1351 0.930 . S
H1369 C1352 0.930 . S
H1370 C1359 0.930 . S
H1371 C1361 0.931 . S
H1372 C1362 0.930 . S
H1373 C1363 0.930 . S
Tb1374 N1405 2.660 . S
Tb1374 N1412 2.600 . S
Tb1374 O1418 2.546 . S
Tb1374 O1419 2.610 . S
Tb1374 O1421 2.320 . S
Tb1374 O1422 2.552 . S
Tb1374 O1423 2.413 . S
Tb1374 O1425 2.362 . S
Tb1374 O1426 2.421 . S
Tb1374 C1438 2.833 . S
C1375 C1378 1.432 . S
C1375 C1379 1.414 . S
C1375 N1382 1.359 . S
C1376 C1378 1.417 . S
C1376 C1380 1.432 . S
C1376 C1388 1.410 . S
C1377 C1379 1.444 . S
C1377 C1380 1.317 . S
C1377 H1400 0.929 . S
C1378 C1375 1.432 . S
C1378 C1376 1.417 . S
C1378 N1386 1.360 . S
C1379 C1375 1.414 . S
C1379 C1377 1.444 . S
C1379 C1384 1.385 . S
C1380 C1376 1.432 . S
C1380 C1377 1.317 . S
C1380 H1392 0.930 . S
C1381 C1383 1.392 . S
C1381 C1384 1.370 . S
C1381 H1393 0.931 . S
N1382 C1375 1.359 . S
N1382 C1383 1.327 . S
N1382 Tb1385 2.600 . S
C1383 C1381 1.392 . S
C1383 N1382 1.327 . S
C1383 H1390 0.930 . S
C1384 C1379 1.385 . S
C1384 C1381 1.370 . S
C1384 H1403 0.930 . S
Tb1385 N1382 2.600 . S
Tb1385 N1386 2.660 . S
Tb1385 O1419 2.362 . S
Tb1385 O1420 2.421 . S
Tb1385 O1424 2.546 . S
Tb1385 O1425 2.610 . S
Tb1385 O1427 2.320 . S
Tb1385 O1428 2.552 . S
Tb1385 O1429 2.413 . S
Tb1385 C1449 2.833 . S
N1386 C1378 1.360 . S
N1386 Tb1385 2.660 . S
N1386 C1387 1.305 . S
C1387 N1386 1.305 . S
C1387 C1389 1.407 . S
C1387 H1394 0.930 . S
C1388 C1376 1.410 . S
C1388 C1389 1.345 . S
C1388 H1396 0.930 . S
C1389 C1387 1.407 . S
C1389 C1388 1.345 . S
C1389 H1391 0.930 . S
H1390 C1383 0.930 . S
H1391 C1389 0.930 . S
H1392 C1380 0.930 . S
H1393 C1381 0.931 . S
H1394 C1387 0.930 . S
H1395 C1409 0.930 . S
H1396 C1388 0.930 . S
H1397 C1415 0.930 . S
H1398 C1406 0.930 . S
H1399 C1413 0.931 . S
H1400 C1377 0.929 . S
H1401 C1407 0.930 . S
H1402 C1440 0.930 . S
H1403 C1384 0.930 . S
H1404 C1439 0.929 . S
N1405 Tb1374 2.660 . S
N1405 C1406 1.305 . S
N1405 C1410 1.360 . S
C1406 H1398 0.930 . S
C1406 N1405 1.305 . S
C1406 C1409 1.407 . S
C1407 H1401 0.930 . S
C1407 C1408 1.410 . S
C1407 C1409 1.345 . S
C1408 C1407 1.410 . S
C1408 C1410 1.417 . S
C1408 C1440 1.432 . S
C1409 H1395 0.930 . S
C1409 C1406 1.407 . S
C1409 C1407 1.345 . S
C1410 N1405 1.360 . S
C1410 C1408 1.417 . S
C1410 C1414 1.432 . S
H1411 C1416 0.930 . S
N1412 Tb1374 2.600 . S
N1412 C1414 1.359 . S
N1412 C1415 1.327 . S
C1413 H1399 0.931 . S
C1413 C1415 1.392 . S
C1413 C1416 1.370 . S
C1414 C1410 1.432 . S
C1414 N1412 1.359 . S
C1414 C1417 1.414 . S
C1415 H1397 0.930 . S
C1415 N1412 1.327 . S
C1415 C1413 1.392 . S
C1416 H1411 0.930 . S
C1416 C1413 1.370 . S
C1416 C1417 1.385 . S
C1417 C1414 1.414 . S
C1417 C1416 1.385 . S
C1417 C1439 1.444 . S
O1418 Tb1374 2.546 . S
O1418 C1438 1.251 . S
O1419 Tb1374 2.610 . S
O1419 Tb1385 2.362 . S
O1419 C1430 1.283 . S
O1420 Tb1385 2.421 . S
O1420 C1437 1.262 . S
O1421 Tb1374 2.320 . S
O1421 C1437 1.260 . S
O1422 Tb1374 2.552 . S
O1422 C1430 1.243 . S
O1423 Tb1374 2.413 . S
O1423 C1438 1.256 . S
O1424 Tb1385 2.546 . S
O1424 C1449 1.251 . S
O1425 Tb1374 2.362 . S
O1425 Tb1385 2.610 . S
O1425 C1441 1.283 . S
O1426 Tb1374 2.421 . S
O1426 C1448 1.262 . S
O1427 Tb1385 2.320 . S
O1427 C1448 1.260 . S
O1428 Tb1385 2.552 . S
O1428 C1441 1.243 . S
O1429 Tb1385 2.413 . S
O1429 C1449 1.256 . S
C1430 O1419 1.283 . S
C1430 O1422 1.243 . S
C1431 C1433 1.382 . S
C1431 C1435 1.393 . S
C1431 C1438 1.500 . S
C1432 C1433 1.400 . S
C1432 C1434 1.384 . S
C1433 C1431 1.382 . S
C1433 C1432 1.400 . S
C1433 H1450 0.930 . S
C1434 C1432 1.384 . S
C1434 C1436 1.392 . S
C1434 H1451 0.931 . S
C1435 C1431 1.393 . S
C1435 C1436 1.401 . S
C1435 H1452 0.930 . S
C1436 C1434 1.392 . S
C1436 C1435 1.401 . S
C1436 H1453 0.930 . S
C1437 O1420 1.262 . S
C1437 O1421 1.260 . S
C1438 Tb1374 2.833 . S
C1438 O1418 1.251 . S
C1438 O1423 1.256 . S
C1438 C1431 1.500 . S
C1439 H1404 0.929 . S
C1439 C1417 1.444 . S
C1439 C1440 1.317 . S
C1440 H1402 0.930 . S
C1440 C1408 1.432 . S
C1440 C1439 1.317 . S
C1441 O1425 1.283 . S
C1441 O1428 1.243 . S
C1442 C1443 1.382 . S
C1442 C1446 1.393 . S
C1442 C1449 1.500 . S
C1443 C1442 1.382 . S
C1443 C1444 1.400 . S
C1443 H1454 0.930 . S
C1444 C1443 1.400 . S
C1444 C1445 1.384 . S
C1445 C1444 1.384 . S
C1445 C1447 1.392 . S
C1445 H1455 0.931 . S
C1446 C1442 1.393 . S
C1446 C1447 1.401 . S
C1446 H1456 0.930 . S
C1447 C1445 1.392 . S
C1447 C1446 1.401 . S
C1447 H1457 0.930 . S
C1448 O1426 1.262 . S
C1448 O1427 1.260 . S
C1449 Tb1385 2.833 . S
C1449 O1424 1.251 . S
C1449 O1429 1.256 . S
C1449 C1442 1.500 . S
H1450 C1433 0.930 . S
H1451 C1434 0.931 . S
H1452 C1435 0.930 . S
H1453 C1436 0.930 . S
H1454 C1443 0.930 . S
H1455 C1445 0.931 . S
H1456 C1446 0.930 . S
H1457 C1447 0.930 . S
C1458 C1459 1.363 . S
C1458 C1464 1.379 . S
C1458 N1466 1.356 . S
C1459 C1458 1.363 . S
C1459 C1465 1.363 . S
C1460 C1461 1.363 . S
C1460 C1465 1.379 . S
C1460 N1467 1.356 . S
C1461 C1460 1.363 . S
C1461 C1464 1.363 . S
N1462 C1464 1.356 . S
N1462 H1474 0.984 . S
N1462 H1475 0.985 . S
N1463 C1465 1.356 . S
N1463 H1468 0.984 . S
N1463 H1469 0.985 . S
C1464 C1458 1.379 . S
C1464 C1461 1.363 . S
C1464 N1462 1.356 . S
C1465 C1459 1.363 . S
C1465 C1460 1.379 . S
C1465 N1463 1.356 . S
N1466 C1458 1.356 . S
N1466 H1472 0.984 . S
N1466 H1473 0.984 . S
N1467 C1460 1.356 . S
N1467 H1470 0.984 . S
N1467 H1471 0.985 . S
H1468 N1463 0.984 . S
H1469 N1463 0.985 . S
H1470 N1467 0.984 . S
H1471 N1467 0.985 . S
H1472 N1466 0.984 . S
H1473 N1466 0.984 . S
H1474 N1462 0.984 . S
H1475 N1462 0.985 . S
C1476 C1477 1.363 . S
C1476 C1482 1.379 . S
C1476 N1484 1.356 . S
C1477 C1476 1.363 . S
C1477 C1483 1.363 . S
C1478 C1479 1.363 . S
C1478 C1483 1.379 . S
C1478 N1485 1.356 1_554 S
C1479 C1478 1.363 . S
C1479 C1482 1.363 . S
N1480 C1482 1.356 . S
N1480 H1492 0.984 . S
N1480 H1493 0.985 . S
N1481 C1483 1.356 . S
N1481 H1486 0.984 . S
N1481 H1487 0.985 . S
C1482 C1476 1.379 . S
C1482 C1479 1.363 . S
C1482 N1480 1.356 . S
C1483 C1477 1.363 . S
C1483 C1478 1.379 . S
C1483 N1481 1.356 . S
N1484 C1476 1.356 . S
N1484 H1490 0.984 . S
N1484 H1491 0.984 . S
N1485 C1478 1.356 1_556 S
N1485 H1488 0.984 . S
N1485 H1489 0.985 . S
H1486 N1481 0.984 . S
H1487 N1481 0.985 . S
H1488 N1485 0.984 . S
H1489 N1485 0.985 . S
H1490 N1484 0.984 . S
H1491 N1484 0.984 . S
H1492 N1480 0.984 . S
H1493 N1480 0.985 . S
C1494 C1495 1.363 . S
C1494 C1500 1.379 . S
C1494 N1502 1.356 . S
C1495 C1494 1.363 . S
C1495 C1501 1.363 . S
C1496 C1497 1.363 . S
C1496 C1501 1.379 . S
C1496 N1503 1.356 1_554 S
C1497 C1496 1.363 . S
C1497 C1500 1.363 . S
N1498 C1500 1.356 . S
N1498 H1510 0.984 . S
N1498 H1511 0.985 . S
N1499 C1501 1.356 . S
N1499 H1504 0.984 . S
N1499 H1505 0.984 . S
C1500 C1494 1.379 . S
C1500 C1497 1.363 . S
C1500 N1498 1.356 . S
C1501 C1495 1.363 . S
C1501 C1496 1.379 . S
C1501 N1499 1.356 . S
N1502 C1494 1.356 . S
N1502 H1508 0.984 . S
N1502 H1509 0.984 . S
N1503 C1496 1.356 1_556 S
N1503 H1506 0.984 . S
N1503 H1507 0.985 . S
H1504 N1499 0.984 . S
H1505 N1499 0.984 . S
H1506 N1503 0.984 . S
H1507 N1503 0.985 . S
H1508 N1502 0.984 . S
H1509 N1502 0.984 . S
H1510 N1498 0.984 . S
H1511 N1498 0.985 . S
C1512 C1513 1.363 . S
C1512 C1518 1.379 . S
C1512 N1520 1.356 . S
C1513 C1512 1.363 . S
C1513 C1519 1.363 . S
C1514 C1515 1.363 . S
C1514 C1519 1.379 . S
C1514 N1521 1.356 1_556 S
C1515 C1514 1.363 . S
C1515 C1518 1.363 . S
N1516 C1518 1.356 . S
N1516 H1528 0.984 . S
N1516 H1529 0.985 . S
N1517 C1519 1.356 . S
N1517 H1522 0.984 . S
N1517 H1523 0.985 1_556 S
C1518 C1512 1.379 . S
C1518 C1515 1.363 . S
C1518 N1516 1.356 . S
C1519 C1513 1.363 . S
C1519 C1514 1.379 . S
C1519 N1517 1.356 . S
N1520 C1512 1.356 . S
N1520 H1526 0.984 . S
N1520 H1527 0.984 . S
N1521 C1514 1.356 1_554 S
N1521 H1524 0.984 . S
N1521 H1525 0.985 . S
H1522 N1517 0.984 . S
H1523 N1517 0.985 1_554 S
H1524 N1521 0.984 . S
H1525 N1521 0.985 . S
H1526 N1520 0.984 . S
H1527 N1520 0.984 . S
H1528 N1516 0.984 . S
H1529 N1516 0.985 . S
C1530 C1531 1.363 . S
C1530 C1536 1.379 . S
C1530 N1538 1.356 . S
C1531 C1530 1.363 . S
C1531 C1537 1.363 . S
C1532 C1533 1.363 . S
C1532 C1537 1.379 . S
C1532 N1539 1.356 . S
C1533 C1532 1.363 . S
C1533 C1536 1.363 . S
N1534 C1536 1.320 1_554 S
N1534 H1546 1.013 . S
N1534 H1547 0.995 . S
N1535 C1537 1.356 . S
N1535 H1540 0.984 . S
N1535 H1541 0.985 . S
C1536 C1530 1.379 . S
C1536 C1533 1.363 . S
C1536 N1534 1.320 1_556 S
C1537 C1531 1.363 . S
C1537 C1532 1.379 . S
C1537 N1535 1.356 . S
N1538 C1530 1.356 . S
N1538 H1544 0.984 . S
N1538 H1545 0.984 . S
N1539 C1532 1.356 . S
N1539 H1542 0.984 . S
N1539 H1543 0.985 . S
H1540 N1535 0.984 . S
H1541 N1535 0.985 . S
H1542 N1539 0.984 . S
H1543 N1539 0.985 . S
H1544 N1538 0.984 . S
H1545 N1538 0.984 . S
H1546 N1534 1.013 . S
H1547 N1534 0.995 . S
C1548 C1549 1.363 . S
C1548 C1554 1.379 . S
C1548 N1556 1.356 . S
C1549 C1548 1.363 . S
C1549 C1555 1.363 . S
C1550 C1551 1.363 . S
C1550 C1555 1.379 . S
C1550 N1557 1.356 . S
C1551 C1550 1.363 . S
C1551 C1554 1.363 . S
N1552 C1554 1.356 . S
N1552 H1564 0.984 . S
N1552 H1565 0.985 . S
N1553 C1555 1.356 . S
N1553 H1558 0.984 . S
N1553 H1559 0.985 . S
C1554 C1548 1.379 . S
C1554 C1551 1.363 . S
C1554 N1552 1.356 . S
C1555 C1549 1.363 . S
C1555 C1550 1.379 . S
C1555 N1553 1.356 . S
N1556 C1548 1.356 . S
N1556 H1562 0.984 . S
N1556 H1563 0.984 . S
N1557 C1550 1.356 . S
N1557 H1560 0.984 . S
N1557 H1561 0.985 . S
H1558 N1553 0.984 . S
H1559 N1553 0.985 . S
H1560 N1557 0.984 . S
H1561 N1557 0.985 . S
H1562 N1556 0.984 . S
H1563 N1556 0.984 . S
H1564 N1552 0.984 . S
H1565 N1552 0.985 . S
C1566 C1567 1.363 . S
C1566 C1572 1.379 . S
C1566 N1574 1.356 . S
C1567 C1566 1.363 . S
C1567 C1573 1.363 . S
C1568 C1569 1.363 . S
C1568 C1573 1.379 . S
C1568 N1575 1.356 . S
C1569 C1568 1.363 . S
C1569 C1572 1.363 . S
N1570 C1572 1.356 1_554 S
N1570 H1582 0.984 . S
N1570 H1583 0.985 . S
N1571 C1573 1.356 . S
N1571 H1576 0.984 . S
N1571 H1577 0.985 . S
C1572 C1566 1.379 . S
C1572 C1569 1.363 . S
C1572 N1570 1.356 1_556 S
C1573 C1567 1.363 . S
C1573 C1568 1.379 . S
C1573 N1571 1.356 . S
N1574 C1566 1.356 . S
N1574 H1580 0.984 1_556 S
N1574 H1581 0.984 . S
N1575 C1568 1.356 . S
N1575 H1578 0.984 . S
N1575 H1579 0.985 . S
H1576 N1571 0.984 . S
H1577 N1571 0.985 . S
H1578 N1575 0.984 . S
H1579 N1575 0.985 . S
H1580 N1574 0.984 1_554 S
H1581 N1574 0.984 . S
H1582 N1570 0.984 . S
H1583 N1570 0.985 . S
C1584 C1585 1.363 . S
C1584 C1590 1.379 . S
C1584 N1592 1.356 . S
C1585 C1584 1.363 . S
C1585 C1591 1.363 . S
C1586 C1587 1.363 . S
C1586 C1591 1.379 . S
C1586 N1593 1.356 . S
C1587 C1586 1.363 . S
C1587 C1590 1.363 . S
N1588 C1590 1.356 . S
N1588 H1600 0.984 . S
N1588 H1601 0.985 . S
N1589 C1591 1.356 . S
N1589 H1594 0.984 . S
N1589 H1595 0.985 . S
C1590 C1584 1.379 . S
C1590 C1587 1.363 . S
C1590 N1588 1.356 . S
C1591 C1585 1.363 . S
C1591 C1586 1.379 . S
C1591 N1589 1.356 . S
N1592 C1584 1.356 . S
N1592 H1598 0.984 . S
N1592 H1599 0.984 . S
N1593 C1586 1.356 . S
N1593 H1596 0.976 1_556 S
N1593 H1597 0.985 1_556 S
H1594 N1589 0.984 . S
H1595 N1589 0.985 . S
H1596 N1593 0.976 1_554 S
H1597 N1593 0.985 1_554 S
H1598 N1592 0.984 . S
H1599 N1592 0.984 . S
H1600 N1588 0.984 . S
H1601 N1588 0.985 . S
C1602 C1603 1.363 . S
C1602 C1608 1.379 . S
C1602 N1610 1.356 . S
C1603 C1602 1.363 . S
C1603 C1609 1.363 . S
C1604 C1605 1.363 . S
C1604 C1609 1.379 . S
C1604 N1611 1.356 . S
C1605 C1604 1.363 . S
C1605 C1608 1.363 . S
N1606 C1608 1.356 . S
N1606 H1618 0.984 . S
N1606 H1619 0.985 . S
N1607 C1609 1.356 . S
N1607 H1612 0.984 . S
N1607 H1613 0.985 . S
C1608 C1602 1.379 . S
C1608 C1605 1.363 . S
C1608 N1606 1.356 . S
C1609 C1603 1.363 . S
C1609 C1604 1.379 . S
C1609 N1607 1.356 . S
N1610 C1602 1.356 . S
N1610 H1616 0.984 . S
N1610 H1617 0.984 . S
N1611 C1604 1.356 . S
N1611 H1614 0.984 . S
N1611 H1615 0.984 . S
H1612 N1607 0.984 . S
H1613 N1607 0.985 . S
H1614 N1611 0.984 . S
H1615 N1611 0.984 . S
H1616 N1610 0.984 . S
H1617 N1610 0.984 . S
H1618 N1606 0.984 . S
H1619 N1606 0.985 . S
C1620 C1621 1.363 . S
C1620 C1626 1.379 . S
C1620 N1628 1.356 . S
C1621 C1620 1.363 . S
C1621 C1627 1.363 . S
C1622 C1623 1.363 . S
C1622 C1627 1.379 . S
C1622 N1629 1.356 . S
C1623 C1622 1.363 . S
C1623 C1626 1.363 . S
N1624 C1626 1.356 . S
N1624 H1636 0.984 1_554 S
N1624 H1637 0.986 . S
N1625 C1627 1.356 . S
N1625 H1630 0.984 . S
N1625 H1631 0.985 . S
C1626 C1620 1.379 . S
C1626 C1623 1.363 . S
C1626 N1624 1.356 . S
C1627 C1621 1.363 . S
C1627 C1622 1.379 . S
C1627 N1625 1.356 . S
N1628 C1620 1.356 . S
N1628 H1634 0.984 . S
N1628 H1635 0.984 . S
N1629 C1622 1.356 . S
N1629 H1632 0.984 . S
N1629 H1633 0.985 . S
H1630 N1625 0.984 . S
H1631 N1625 0.985 . S
H1632 N1629 0.984 . S
H1633 N1629 0.985 . S
H1634 N1628 0.984 . S
H1635 N1628 0.984 . S
H1636 N1624 0.984 1_556 S
H1637 N1624 0.986 . S
C1638 C1639 1.363 . S
C1638 C1644 1.379 . S
C1638 N1646 1.356 . S
C1639 C1638 1.363 . S
C1639 C1645 1.363 . S
C1640 C1641 1.363 . S
C1640 C1645 1.379 . S
C1640 N1647 1.356 . S
C1641 C1640 1.363 . S
C1641 C1644 1.363 . S
N1642 C1644 1.356 . S
N1642 H1654 0.984 . S
N1642 H1655 0.985 . S
N1643 C1645 1.356 . S
N1643 H1648 0.984 . S
N1643 H1649 0.985 . S
C1644 C1638 1.379 . S
C1644 C1641 1.363 . S
C1644 N1642 1.356 . S
C1645 C1639 1.363 . S
C1645 C1640 1.379 . S
C1645 N1643 1.356 . S
N1646 C1638 1.356 . S
N1646 H1652 0.984 . S
N1646 H1653 0.984 . S
N1647 C1640 1.356 . S
N1647 H1650 0.984 . S
N1647 H1651 0.985 . S
H1648 N1643 0.984 . S
H1649 N1643 0.985 . S
H1650 N1647 0.984 . S
H1651 N1647 0.985 . S
H1652 N1646 0.984 . S
H1653 N1646 0.984 . S
H1654 N1642 0.984 . S
H1655 N1642 0.985 . S
C1656 C1657 1.363 . S
C1656 C1662 1.379 . S
C1656 N1664 1.356 . S
C1657 C1656 1.363 . S
C1657 C1663 1.363 . S
C1658 C1659 1.363 . S
C1658 C1663 1.379 . S
C1658 N1665 1.356 . S
C1659 C1658 1.363 . S
C1659 C1662 1.363 . S
N1660 C1662 1.356 . S
N1660 H1672 0.984 . S
N1660 H1673 0.985 . S
N1661 C1663 1.356 . S
N1661 H1666 0.984 . S
N1661 H1667 0.985 . S
C1662 C1656 1.379 . S
C1662 C1659 1.363 . S
C1662 N1660 1.356 . S
C1663 C1657 1.363 . S
C1663 C1658 1.379 . S
C1663 N1661 1.356 . S
N1664 C1656 1.356 . S
N1664 H1670 0.984 . S
N1664 H1671 0.984 . S
N1665 C1658 1.356 . S
N1665 H1668 0.984 . S
N1665 H1669 0.970 1_554 S
H1666 N1661 0.984 . S
H1667 N1661 0.985 . S
H1668 N1665 0.984 . S
H1669 N1665 0.970 1_556 S
H1670 N1664 0.984 . S
H1671 N1664 0.984 . S
H1672 N1660 0.984 . S
H1673 N1660 0.985 . S
C1674 C1675 1.363 . S
C1674 C1680 1.379 . S
C1674 N1682 1.356 . S
C1675 C1674 1.363 . S
C1675 C1681 1.363 . S
C1676 C1677 1.363 . S
C1676 C1681 1.379 . S
C1676 N1683 1.356 . S
C1677 C1676 1.363 . S
C1677 C1680 1.363 . S
N1678 C1680 1.356 . S
N1678 H1690 0.984 . S
N1678 H1691 0.985 . S
N1679 C1681 1.356 . S
N1679 H1684 1.016 . S
N1679 H1685 0.985 . S
C1680 C1674 1.379 . S
C1680 C1677 1.363 . S
C1680 N1678 1.356 . S
C1681 C1675 1.363 . S
C1681 C1676 1.379 . S
C1681 N1679 1.356 . S
N1682 C1674 1.356 . S
N1682 H1688 0.984 . S
N1682 H1689 0.984 1_455 S
N1683 C1676 1.356 . S
N1683 H1686 0.984 . S
N1683 H1687 0.985 . S
H1684 N1679 1.016 . S
H1685 N1679 0.985 . S
H1686 N1683 0.984 . S
H1687 N1683 0.985 . S
H1688 N1682 0.984 . S
H1689 N1682 0.984 1_655 S
H1690 N1678 0.984 . S
H1691 N1678 0.985 . S
C1692 C1693 1.363 . S
C1692 C1698 1.379 . S
C1692 N1700 1.356 . S
C1693 C1692 1.363 . S
C1693 C1699 1.363 . S
C1694 C1695 1.363 . S
C1694 C1699 1.379 . S
C1694 N1701 1.356 . S
C1695 C1694 1.363 . S
C1695 C1698 1.363 . S
N1696 C1698 1.356 . S
N1696 H1708 0.984 . S
N1696 H1709 0.985 . S
N1697 C1699 1.356 . S
N1697 H1702 0.984 . S
N1697 H1703 0.985 . S
C1698 C1692 1.379 . S
C1698 C1695 1.363 . S
C1698 N1696 1.356 . S
C1699 C1693 1.363 . S
C1699 C1694 1.379 . S
C1699 N1697 1.356 . S
N1700 C1692 1.356 . S
N1700 H1706 0.984 . S
N1700 H1707 0.984 . S
N1701 C1694 1.356 . S
N1701 H1704 0.984 . S
N1701 H1705 0.985 . S
H1702 N1697 0.984 . S
H1703 N1697 0.985 . S
H1704 N1701 0.984 . S
H1705 N1701 0.985 . S
H1706 N1700 0.984 . S
H1707 N1700 0.984 . S
H1708 N1696 0.984 . S
H1709 N1696 0.985 . S
C1710 C1711 1.363 . S
C1710 C1716 1.379 . S
C1710 N1718 1.356 . S
C1711 C1710 1.363 . S
C1711 C1717 1.363 . S
C1712 C1713 1.363 . S
C1712 C1717 1.379 . S
C1712 N1719 1.356 . S
C1713 C1712 1.363 . S
C1713 C1716 1.363 . S
N1714 C1716 1.356 . S
N1714 H1726 0.984 . S
N1714 H1727 0.985 . S
N1715 C1717 1.353 . S
N1715 H1720 0.987 1_565 S
N1715 H1721 0.998 . S
C1716 C1710 1.379 . S
C1716 C1713 1.363 . S
C1716 N1714 1.356 . S
C1717 C1711 1.363 . S
C1717 C1712 1.379 . S
C1717 N1715 1.353 . S
N1718 C1710 1.356 . S
N1718 H1724 0.984 . S
N1718 H1725 0.984 1_565 S
N1719 C1712 1.356 . S
N1719 H1722 0.984 . S
N1719 H1723 0.985 . S
H1720 N1715 0.987 1_545 S
H1721 N1715 0.998 . S
H1722 N1719 0.984 . S
H1723 N1719 0.985 . S
H1724 N1718 0.984 . S
H1725 N1718 0.984 1_545 S
H1726 N1714 0.984 . S
H1727 N1714 0.985 . S
C1728 C1729 1.363 . S
C1728 C1734 1.379 . S
C1728 N1736 1.356 . S
C1729 C1728 1.363 . S
C1729 C1735 1.363 . S
C1730 C1731 1.363 . S
C1730 C1735 1.379 . S
C1730 N1737 1.356 . S
C1731 C1730 1.363 . S
C1731 C1734 1.363 . S
N1732 C1734 1.356 . S
N1732 H1744 0.984 . S
N1732 H1745 0.985 . S
N1733 C1735 1.356 . S
N1733 H1738 0.984 . S
N1733 H1739 0.985 . S
C1734 C1728 1.379 . S
C1734 C1731 1.363 . S
C1734 N1732 1.356 . S
C1735 C1729 1.363 . S
C1735 C1730 1.379 . S
C1735 N1733 1.356 . S
N1736 C1728 1.356 . S
N1736 H1742 0.984 . S
N1736 H1743 0.984 . S
N1737 C1730 1.356 . S
N1737 H1740 0.984 . S
N1737 H1741 0.985 . S
H1738 N1733 0.984 . S
H1739 N1733 0.985 . S
H1740 N1737 0.984 . S
H1741 N1737 0.985 . S
H1742 N1736 0.984 . S
H1743 N1736 0.984 . S
H1744 N1732 0.984 . S
H1745 N1732 0.985 . S
C1746 C1747 1.363 . S
C1746 C1752 1.379 . S
C1746 N1754 1.356 . S
C1747 C1746 1.363 . S
C1747 C1753 1.363 . S
C1748 C1749 1.363 . S
C1748 C1753 1.379 . S
C1748 N1755 1.356 . S
C1749 C1748 1.363 . S
C1749 C1752 1.363 . S
N1750 C1752 1.356 . S
N1750 H1762 0.984 . S
N1750 H1763 0.985 . S
N1751 C1753 1.356 . S
N1751 H1756 0.984 . S
N1751 H1757 0.985 . S
C1752 C1746 1.379 . S
C1752 C1749 1.363 . S
C1752 N1750 1.356 . S
C1753 C1747 1.363 . S
C1753 C1748 1.379 . S
C1753 N1751 1.356 . S
N1754 C1746 1.356 . S
N1754 H1760 0.984 . S
N1754 H1761 0.984 . S
N1755 C1748 1.356 . S
N1755 H1758 0.984 . S
N1755 H1759 0.985 . S
H1756 N1751 0.984 . S
H1757 N1751 0.985 . S
H1758 N1755 0.984 . S
H1759 N1755 0.985 . S
H1760 N1754 0.984 . S
H1761 N1754 0.984 . S
H1762 N1750 0.984 . S
H1763 N1750 0.985 . S
C1764 C1765 1.363 . S
C1764 C1770 1.379 . S
C1764 N1772 1.356 . S
C1765 C1764 1.363 . S
C1765 C1771 1.363 . S
C1766 C1767 1.363 . S
C1766 C1771 1.379 . S
C1766 N1773 1.356 . S
C1767 C1766 1.363 . S
C1767 C1770 1.363 . S
N1768 C1770 1.356 . S
N1768 H1780 0.984 . S
N1768 H1781 0.985 . S
N1769 C1771 1.356 . S
N1769 H1774 0.984 . S
N1769 H1775 0.985 . S
C1770 C1764 1.379 . S
C1770 C1767 1.363 . S
C1770 N1768 1.356 . S
C1771 C1765 1.363 . S
C1771 C1766 1.379 . S
C1771 N1769 1.356 . S
N1772 C1764 1.356 . S
N1772 H1778 0.984 . S
N1772 H1779 0.984 . S
N1773 C1766 1.356 . S
N1773 H1776 0.984 . S
N1773 H1777 0.985 . S
H1774 N1769 0.984 . S
H1775 N1769 0.985 . S
H1776 N1773 0.984 . S
H1777 N1773 0.985 . S
H1778 N1772 0.984 . S
H1779 N1772 0.984 . S
H1780 N1768 0.984 . S
H1781 N1768 0.985 . S
C1782 C1783 1.363 . S
C1782 C1788 1.379 . S
C1782 N1790 1.356 . S
C1783 C1782 1.363 . S
C1783 C1789 1.363 . S
C1784 C1785 1.363 . S
C1784 C1789 1.379 . S
C1784 N1791 1.356 . S
C1785 C1784 1.363 . S
C1785 C1788 1.363 . S
N1786 C1788 1.356 . S
N1786 H1798 0.984 . S
N1786 H1799 0.985 . S
N1787 C1789 1.356 . S
N1787 H1792 0.984 . S
N1787 H1793 0.985 . S
C1788 C1782 1.379 . S
C1788 C1785 1.363 . S
C1788 N1786 1.356 . S
C1789 C1783 1.363 . S
C1789 C1784 1.379 . S
C1789 N1787 1.356 . S
N1790 C1782 1.356 . S
N1790 H1796 0.984 . S
N1790 H1797 0.984 . S
N1791 C1784 1.356 . S
N1791 H1794 0.984 . S
N1791 H1795 0.985 . S
H1792 N1787 0.984 . S
H1793 N1787 0.985 . S
H1794 N1791 0.984 . S
H1795 N1791 0.985 . S
H1796 N1790 0.984 . S
H1797 N1790 0.984 . S
H1798 N1786 0.984 . S
H1799 N1786 0.985 . S
C1800 C1801 1.363 . S
C1800 C1806 1.379 . S
C1800 N1808 1.356 . S
C1801 C1800 1.363 . S
C1801 C1807 1.363 . S
C1802 C1803 1.363 . S
C1802 C1807 1.379 . S
C1802 N1809 1.356 . S
C1803 C1802 1.363 . S
C1803 C1806 1.363 . S
N1804 C1806 1.356 . S
N1804 H1816 0.984 . S
N1804 H1817 0.985 . S
N1805 C1807 1.356 . S
N1805 H1810 0.984 . S
N1805 H1811 0.985 . S
C1806 C1800 1.379 . S
C1806 C1803 1.363 . S
C1806 N1804 1.356 . S
C1807 C1801 1.363 . S
C1807 C1802 1.379 . S
C1807 N1805 1.356 . S
N1808 C1800 1.356 . S
N1808 H1814 0.984 . S
N1808 H1815 0.984 . S
N1809 C1802 1.356 . S
N1809 H1812 0.984 . S
N1809 H1813 0.985 . S
H1810 N1805 0.984 . S
H1811 N1805 0.985 . S
H1812 N1809 0.984 . S
H1813 N1809 0.985 . S
H1814 N1808 0.984 . S
H1815 N1808 0.984 . S
H1816 N1804 0.984 . S
H1817 N1804 0.985 . S
C1818 C1819 1.363 . S
C1818 C1824 1.379 . S
C1818 N1826 1.356 . S
C1819 C1818 1.363 . S
C1819 C1825 1.363 . S
C1820 C1821 1.363 . S
C1820 C1825 1.379 . S
C1820 N1827 1.356 . S
C1821 C1820 1.363 . S
C1821 C1824 1.363 . S
N1822 C1824 1.356 . S
N1822 H1834 0.984 . S
N1822 H1835 0.985 . S
N1823 C1825 1.356 . S
N1823 H1828 0.984 . S
N1823 H1829 0.985 . S
C1824 C1818 1.379 . S
C1824 C1821 1.363 . S
C1824 N1822 1.356 . S
C1825 C1819 1.363 . S
C1825 C1820 1.379 . S
C1825 N1823 1.356 . S
N1826 C1818 1.356 . S
N1826 H1832 0.984 . S
N1826 H1833 0.984 . S
N1827 C1820 1.356 . S
N1827 H1830 0.984 . S
N1827 H1831 0.985 . S
H1828 N1823 0.984 . S
H1829 N1823 0.985 . S
H1830 N1827 0.984 . S
H1831 N1827 0.985 . S
H1832 N1826 0.984 . S
H1833 N1826 0.984 . S
H1834 N1822 0.984 . S
H1835 N1822 0.985 . S
C1836 C1837 1.363 . S
C1836 C1842 1.379 . S
C1836 N1844 1.356 1_565 S
C1837 C1836 1.363 . S
C1837 C1843 1.363 . S
C1838 C1839 1.363 . S
C1838 C1843 1.379 . S
C1838 N1845 1.356 . S
C1839 C1838 1.363 . S
C1839 C1842 1.363 . S
N1840 C1842 1.356 . S
N1840 H1852 0.984 . S
N1840 H1853 0.985 . S
N1841 C1843 1.356 . S
N1841 H1846 0.984 . S
N1841 H1847 0.985 . S
C1842 C1836 1.379 . S
C1842 C1839 1.363 . S
C1842 N1840 1.356 . S
C1843 C1837 1.363 . S
C1843 C1838 1.379 . S
C1843 N1841 1.356 . S
N1844 C1836 1.356 1_545 S
N1844 H1850 0.984 . S
N1844 H1851 0.984 . S
N1845 C1838 1.356 . S
N1845 H1848 0.984 . S
N1845 H1849 0.985 . S
H1846 N1841 0.984 . S
H1847 N1841 0.985 . S
H1848 N1845 0.984 . S
H1849 N1845 0.985 . S
H1850 N1844 0.984 . S
H1851 N1844 0.984 . S
H1852 N1840 0.984 . S
H1853 N1840 0.985 . S
C1854 C1855 1.363 . S
C1854 C1860 1.379 . S
C1854 N1862 1.356 . S
C1855 C1854 1.363 . S
C1855 C1861 1.363 . S
C1856 C1857 1.363 . S
C1856 C1861 1.379 . S
C1856 N1863 1.356 . S
C1857 C1856 1.363 . S
C1857 C1860 1.363 . S
N1858 C1860 1.356 . S
N1858 H1870 0.984 . S
N1858 H1871 0.985 . S
N1859 C1861 1.356 . S
N1859 H1864 0.984 1_455 S
N1859 H1865 0.985 . S
C1860 C1854 1.379 . S
C1860 C1857 1.363 . S
C1860 N1858 1.356 . S
C1861 C1855 1.363 . S
C1861 C1856 1.379 . S
C1861 N1859 1.356 . S
N1862 C1854 1.356 . S
N1862 H1868 0.984 . S
N1862 H1869 0.984 . S
N1863 C1856 1.356 . S
N1863 H1866 0.984 . S
N1863 H1867 0.985 . S
H1864 N1859 0.984 1_655 S
H1865 N1859 0.985 . S
H1866 N1863 0.984 . S
H1867 N1863 0.985 . S
H1868 N1862 0.984 . S
H1869 N1862 0.984 . S
H1870 N1858 0.984 . S
H1871 N1858 0.985 . S
C1872 C1873 1.363 . S
C1872 C1878 1.379 . S
C1872 N1880 1.356 . S
C1873 C1872 1.363 . S
C1873 C1879 1.363 . S
C1874 C1875 1.363 . S
C1874 C1879 1.379 . S
C1874 N1881 1.356 . S
C1875 C1874 1.363 . S
C1875 C1878 1.363 . S
N1876 C1878 1.356 . S
N1876 H1888 0.984 . S
N1876 H1889 0.985 . S
N1877 C1879 1.356 . S
N1877 H1882 0.984 . S
N1877 H1883 0.985 . S
C1878 C1872 1.379 . S
C1878 C1875 1.363 . S
C1878 N1876 1.356 . S
C1879 C1873 1.363 . S
C1879 C1874 1.379 . S
C1879 N1877 1.356 . S
N1880 C1872 1.356 . S
N1880 H1886 0.984 . S
N1880 H1887 0.984 . S
N1881 C1874 1.356 . S
N1881 H1884 0.984 . S
N1881 H1885 0.985 . S
H1882 N1877 0.984 . S
H1883 N1877 0.985 . S
H1884 N1881 0.984 . S
H1885 N1881 0.985 . S
H1886 N1880 0.984 . S
H1887 N1880 0.984 . S
H1888 N1876 0.984 . S
H1889 N1876 0.985 . S
C1890 C1891 1.363 . S
C1890 C1896 1.379 . S
C1890 N1898 1.356 . S
C1891 C1890 1.363 . S
C1891 C1897 1.363 . S
C1892 C1893 1.363 . S
C1892 C1897 1.379 . S
C1892 N1899 1.356 . S
C1893 C1892 1.363 . S
C1893 C1896 1.363 . S
N1894 C1896 1.356 . S
N1894 H1906 0.984 . S
N1894 H1907 0.985 . S
N1895 C1897 1.356 . S
N1895 H1900 0.984 . S
N1895 H1901 0.985 . S
C1896 C1890 1.379 . S
C1896 C1893 1.363 . S
C1896 N1894 1.356 . S
C1897 C1891 1.363 . S
C1897 C1892 1.379 . S
C1897 N1895 1.356 . S
N1898 C1890 1.356 . S
N1898 H1904 0.984 . S
N1898 H1905 0.984 . S
N1899 C1892 1.356 . S
N1899 H1902 0.984 . S
N1899 H1903 0.985 . S
H1900 N1895 0.984 . S
H1901 N1895 0.985 . S
H1902 N1899 0.984 . S
H1903 N1899 0.985 . S
H1904 N1898 0.984 . S
H1905 N1898 0.984 . S
H1906 N1894 0.984 . S
H1907 N1894 0.985 . S
C1908 C1909 1.363 . S
C1908 C1914 1.379 . S
C1908 N1916 1.356 . S
C1909 C1908 1.363 . S
C1909 C1915 1.363 . S
C1910 C1911 1.363 . S
C1910 C1915 1.379 . S
C1910 N1917 1.356 . S
C1911 C1910 1.363 . S
C1911 C1914 1.363 . S
N1912 C1914 1.356 . S
N1912 H1924 0.984 . S
N1912 H1925 0.985 . S
N1913 C1915 1.356 . S
N1913 H1918 0.984 . S
N1913 H1919 0.985 . S
C1914 C1908 1.379 . S
C1914 C1911 1.363 . S
C1914 N1912 1.356 . S
C1915 C1909 1.363 . S
C1915 C1910 1.379 . S
C1915 N1913 1.356 . S
N1916 C1908 1.356 . S
N1916 H1922 0.984 . S
N1916 H1923 0.984 . S
N1917 C1910 1.356 . S
N1917 H1920 0.984 . S
N1917 H1921 0.985 . S
H1918 N1913 0.984 . S
H1919 N1913 0.985 . S
H1920 N1917 0.984 . S
H1921 N1917 0.985 . S
H1922 N1916 0.984 . S
H1923 N1916 0.984 . S
H1924 N1912 0.984 . S
H1925 N1912 0.985 . S
C1926 C1927 1.363 . S
C1926 C1932 1.379 . S
C1926 N1934 1.356 . S
C1927 C1926 1.363 . S
C1927 C1933 1.363 . S
C1928 C1929 1.363 . S
C1928 C1933 1.379 . S
C1928 N1935 1.356 . S
C1929 C1928 1.363 . S
C1929 C1932 1.363 . S
N1930 C1932 1.356 . S
N1930 H1942 0.984 . S
N1930 H1943 0.985 . S
N1931 C1933 1.356 . S
N1931 H1936 0.984 . S
N1931 H1937 0.985 . S
C1932 C1926 1.379 . S
C1932 C1929 1.363 . S
C1932 N1930 1.356 . S
C1933 C1927 1.363 . S
C1933 C1928 1.379 . S
C1933 N1931 1.356 . S
N1934 C1926 1.356 . S
N1934 H1940 0.984 . S
N1934 H1941 0.984 . S
N1935 C1928 1.356 . S
N1935 H1938 0.984 . S
N1935 H1939 0.985 . S
H1936 N1931 0.984 . S
H1937 N1931 0.985 . S
H1938 N1935 0.984 . S
H1939 N1935 0.985 . S
H1940 N1934 0.984 . S
H1941 N1934 0.984 . S
H1942 N1930 0.984 . S
H1943 N1930 0.985 . S
C1944 C1945 1.363 . S
C1944 C1950 1.379 . S
C1944 N1952 1.356 . S
C1945 C1944 1.363 . S
C1945 C1951 1.363 . S
C1946 C1947 1.363 . S
C1946 C1951 1.379 . S
C1946 N1953 1.356 . S
C1947 C1946 1.363 . S
C1947 C1950 1.363 . S
N1948 C1950 1.356 . S
N1948 H1960 0.984 . S
N1948 H1961 0.985 . S
N1949 C1951 1.356 . S
N1949 H1954 0.984 . S
N1949 H1955 0.985 . S
C1950 C1944 1.379 . S
C1950 C1947 1.363 . S
C1950 N1948 1.356 . S
C1951 C1945 1.363 . S
C1951 C1946 1.379 . S
C1951 N1949 1.356 . S
N1952 C1944 1.356 . S
N1952 H1958 0.984 . S
N1952 H1959 0.984 1_545 S
N1953 C1946 1.356 . S
N1953 H1956 0.984 . S
N1953 H1957 0.985 . S
H1954 N1949 0.984 . S
H1955 N1949 0.985 . S
H1956 N1953 0.984 . S
H1957 N1953 0.985 . S
H1958 N1952 0.984 . S
H1959 N1952 0.984 1_565 S
H1960 N1948 0.984 . S
H1961 N1948 0.985 . S
C1962 C1963 1.363 . S
C1962 C1968 1.379 . S
C1962 N1970 1.330 1_655 S
C1963 C1962 1.363 . S
C1963 C1969 1.363 . S
C1964 C1965 1.363 . S
C1964 C1969 1.379 . S
C1964 N1971 1.356 . S
C1965 C1964 1.363 . S
C1965 C1968 1.363 . S
N1966 C1968 1.356 . S
N1966 H1978 0.984 . S
N1966 H1979 0.985 . S
N1967 C1969 1.356 . S
N1967 H1972 0.984 . S
N1967 H1973 0.985 . S
C1968 C1962 1.379 . S
C1968 C1965 1.363 . S
C1968 N1966 1.356 . S
C1969 C1963 1.363 . S
C1969 C1964 1.379 . S
C1969 N1967 1.356 . S
N1970 C1962 1.330 1_455 S
N1970 H1976 0.986 . S
N1970 H1977 1.010 . S
N1971 C1964 1.356 . S
N1971 H1974 0.984 . S
N1971 H1975 0.985 . S
H1972 N1967 0.984 . S
H1973 N1967 0.985 . S
H1974 N1971 0.984 . S
H1975 N1971 0.985 . S
H1976 N1970 0.986 . S
H1977 N1970 1.010 . S
H1978 N1966 0.984 . S
H1979 N1966 0.985 . S
C1980 C1981 1.363 . S
C1980 C1986 1.379 . S
C1980 N1988 1.356 . S
C1981 C1980 1.363 . S
C1981 C1987 1.363 . S
C1982 C1983 1.363 . S
C1982 C1987 1.379 . S
C1982 N1989 1.356 . S
C1983 C1982 1.363 . S
C1983 C1986 1.363 . S
N1984 C1986 1.356 . S
N1984 H1996 0.984 . S
N1984 H1997 0.985 . S
N1985 C1987 1.356 . S
N1985 H1990 0.984 . S
N1985 H1991 0.985 . S
C1986 C1980 1.379 . S
C1986 C1983 1.363 . S
C1986 N1984 1.356 . S
C1987 C1981 1.363 . S
C1987 C1982 1.379 . S
C1987 N1985 1.356 . S
N1988 C1980 1.356 . S
N1988 H1994 0.984 . S
N1988 H1995 0.984 . S
N1989 C1982 1.356 . S
N1989 H1992 0.984 . S
N1989 H1993 0.985 . S
H1990 N1985 0.984 . S
H1991 N1985 0.985 . S
H1992 N1989 0.984 . S
H1993 N1989 0.985 . S
H1994 N1988 0.984 . S
H1995 N1988 0.984 . S
H1996 N1984 0.984 . S
H1997 N1984 0.985 . S
C1998 C1999 1.363 . S
C1998 C2004 1.379 . S
C1998 N2006 1.356 . S
C1999 C1998 1.363 . S
C1999 C2005 1.363 . S
C2000 C2001 1.363 . S
C2000 C2005 1.379 . S
C2000 N2007 1.356 . S
C2001 C2000 1.363 . S
C2001 C2004 1.363 . S
N2002 C2004 1.356 . S
N2002 H2014 0.984 . S
N2002 H2015 0.985 . S
N2003 C2005 1.356 . S
N2003 H2008 0.984 . S
N2003 H2009 0.985 . S
C2004 C1998 1.379 . S
C2004 C2001 1.363 . S
C2004 N2002 1.356 . S
C2005 C1999 1.363 . S
C2005 C2000 1.379 . S
C2005 N2003 1.356 . S
N2006 C1998 1.356 . S
N2006 H2012 0.984 . S
N2006 H2013 0.984 1_655 S
N2007 C2000 1.356 . S
N2007 H2010 0.984 . S
N2007 H2011 0.985 . S
H2008 N2003 0.984 . S
H2009 N2003 0.985 . S
H2010 N2007 0.984 . S
H2011 N2007 0.985 . S
H2012 N2006 0.984 . S
H2013 N2006 0.984 1_455 S
H2014 N2002 0.984 . S
H2015 N2002 0.985 . S
C2016 C2017 1.363 . S
C2016 C2022 1.379 . S
C2016 N2024 1.356 . S
C2017 C2016 1.363 . S
C2017 C2023 1.363 . S
C2018 C2019 1.363 . S
C2018 C2023 1.379 . S
C2018 N2025 1.356 . S
C2019 C2018 1.363 . S
C2019 C2022 1.363 . S
N2020 C2022 1.356 . S
N2020 H2032 0.984 . S
N2020 H2033 0.985 . S
N2021 C2023 1.356 . S
N2021 H2026 0.984 . S
N2021 H2027 0.985 . S
C2022 C2016 1.379 . S
C2022 C2019 1.363 . S
C2022 N2020 1.356 . S
C2023 C2017 1.363 . S
C2023 C2018 1.379 . S
C2023 N2021 1.356 . S
N2024 C2016 1.356 . S
N2024 H2030 0.984 . S
N2024 H2031 0.984 . S
N2025 C2018 1.356 . S
N2025 H2028 0.984 . S
N2025 H2029 0.985 . S
H2026 N2021 0.984 . S
H2027 N2021 0.985 . S
H2028 N2025 0.984 . S
H2029 N2025 0.985 . S
H2030 N2024 0.984 . S
H2031 N2024 0.984 . S
H2032 N2020 0.984 . S
H2033 N2020 0.985 . S
C2034 C2035 1.363 . S
C2034 C2040 1.379 . S
C2034 N2042 1.360 . S
C2035 C2034 1.363 . S
C2035 C2041 1.363 . S
C2036 C2037 1.363 . S
C2036 C2041 1.379 . S
C2036 N2043 1.356 . S
C2037 C2036 1.363 . S
C2037 C2040 1.363 . S
N2038 C2040 1.356 . S
N2038 H2050 0.984 . S
N2038 H2051 0.985 . S
N2039 C2041 1.356 . S
N2039 H2044 0.981 1_545 S
N2039 H2045 0.985 . S
C2040 C2034 1.379 . S
C2040 C2037 1.363 . S
C2040 N2038 1.356 . S
C2041 C2035 1.363 . S
C2041 C2036 1.379 . S
C2041 N2039 1.356 . S
N2042 C2034 1.360 . S
N2042 H2048 0.988 1_545 S
N2042 H2049 0.979 1_545 S
N2043 C2036 1.356 . S
N2043 H2046 0.984 . S
N2043 H2047 0.985 . S
H2044 N2039 0.981 1_565 S
H2045 N2039 0.985 . S
H2046 N2043 0.984 . S
H2047 N2043 0.985 . S
H2048 N2042 0.988 1_565 S
H2049 N2042 0.979 1_565 S
H2050 N2038 0.984 . S
H2051 N2038 0.985 . S
C2052 C2053 1.363 . S
C2052 C2058 1.379 . S
C2052 N2060 1.356 . S
C2053 C2052 1.363 . S
C2053 C2059 1.363 . S
C2054 C2055 1.363 . S
C2054 C2059 1.379 . S
C2054 N2061 1.356 . S
C2055 C2054 1.363 . S
C2055 C2058 1.363 . S
N2056 C2058 1.356 . S
N2056 H2068 0.984 . S
N2056 H2069 0.985 . S
N2057 C2059 1.356 . S
N2057 H2062 0.984 . S
N2057 H2063 0.985 . S
C2058 C2052 1.379 . S
C2058 C2055 1.363 . S
C2058 N2056 1.356 . S
C2059 C2053 1.363 . S
C2059 C2054 1.379 . S
C2059 N2057 1.356 . S
N2060 C2052 1.356 . S
N2060 H2066 0.984 . S
N2060 H2067 0.984 . S
N2061 C2054 1.356 . S
N2061 H2064 0.984 . S
N2061 H2065 0.985 . S
H2062 N2057 0.984 . S
H2063 N2057 0.985 . S
H2064 N2061 0.984 . S
H2065 N2061 0.985 . S
H2066 N2060 0.984 . S
H2067 N2060 0.984 . S
H2068 N2056 0.984 . S
H2069 N2056 0.985 . S
C2070 C2071 1.363 . S
C2070 C2076 1.379 . S
C2070 N2078 1.356 . S
C2071 C2070 1.363 . S
C2071 C2077 1.363 . S
C2072 C2073 1.363 . S
C2072 C2077 1.379 . S
C2072 N2079 1.356 . S
C2073 C2072 1.363 . S
C2073 C2076 1.363 . S
N2074 C2076 1.356 . S
N2074 H2086 0.984 . S
N2074 H2087 0.985 . S
N2075 C2077 1.356 . S
N2075 H2080 0.984 . S
N2075 H2081 0.985 . S
C2076 C2070 1.379 . S
C2076 C2073 1.363 . S
C2076 N2074 1.356 . S
C2077 C2071 1.363 . S
C2077 C2072 1.379 . S
C2077 N2075 1.356 . S
N2078 C2070 1.356 . S
N2078 H2084 0.984 . S
N2078 H2085 0.984 . S
N2079 C2072 1.356 . S
N2079 H2082 0.984 . S
N2079 H2083 0.985 . S
H2080 N2075 0.984 . S
H2081 N2075 0.985 . S
H2082 N2079 0.984 . S
H2083 N2079 0.985 . S
H2084 N2078 0.984 . S
H2085 N2078 0.984 . S
H2086 N2074 0.984 . S
H2087 N2074 0.985 . S
C2088 C2089 1.363 . S
C2088 C2094 1.379 . S
C2088 N2096 1.356 . S
C2089 C2088 1.363 . S
C2089 C2095 1.363 . S
C2090 C2091 1.363 . S
C2090 C2095 1.379 . S
C2090 N2097 1.356 . S
C2091 C2090 1.363 . S
C2091 C2094 1.363 . S
N2092 C2094 1.356 . S
N2092 H2104 0.984 . S
N2092 H2105 0.985 . S
N2093 C2095 1.356 . S
N2093 H2098 0.984 . S
N2093 H2099 0.985 . S
C2094 C2088 1.379 . S
C2094 C2091 1.363 . S
C2094 N2092 1.356 . S
C2095 C2089 1.363 . S
C2095 C2090 1.379 . S
C2095 N2093 1.356 . S
N2096 C2088 1.356 . S
N2096 H2102 0.984 . S
N2096 H2103 0.984 . S
N2097 C2090 1.356 . S
N2097 H2100 0.984 . S
N2097 H2101 0.985 . S
H2098 N2093 0.984 . S
H2099 N2093 0.985 . S
H2100 N2097 0.984 . S
H2101 N2097 0.985 . S
H2102 N2096 0.984 . S
H2103 N2096 0.984 . S
H2104 N2092 0.984 . S
H2105 N2092 0.985 . S
C2106 C2107 1.363 . S
C2106 C2112 1.379 . S
C2106 N2114 1.356 . S
C2107 C2106 1.363 . S
C2107 C2113 1.363 . S
C2108 C2109 1.363 . S
C2108 C2113 1.379 . S
C2108 N2115 1.356 . S
C2109 C2108 1.363 . S
C2109 C2112 1.363 . S
N2110 C2112 1.356 1_545 S
N2110 H2122 0.984 . S
N2110 H2123 0.985 . S
N2111 C2113 1.356 . S
N2111 H2116 0.984 . S
N2111 H2117 0.985 . S
C2112 C2106 1.379 . S
C2112 C2109 1.363 . S
C2112 N2110 1.356 1_565 S
C2113 C2107 1.363 . S
C2113 C2108 1.379 . S
C2113 N2111 1.356 . S
N2114 C2106 1.356 . S
N2114 H2120 0.984 . S
N2114 H2121 0.984 . S
N2115 C2108 1.356 . S
N2115 H2118 0.984 . S
N2115 H2119 0.985 . S
H2116 N2111 0.984 . S
H2117 N2111 0.985 . S
H2118 N2115 0.984 . S
H2119 N2115 0.985 . S
H2120 N2114 0.984 . S
H2121 N2114 0.984 . S
H2122 N2110 0.984 . S
H2123 N2110 0.985 . S
C2124 C2125 1.363 . S
C2124 C2130 1.379 . S
C2124 N2132 1.356 . S
C2125 C2124 1.363 . S
C2125 C2131 1.363 . S
C2126 C2127 1.363 . S
C2126 C2131 1.379 . S
C2126 N2133 1.356 . S
C2127 C2126 1.363 . S
C2127 C2130 1.363 . S
N2128 C2130 1.356 . S
N2128 H2140 0.984 . S
N2128 H2141 0.985 . S
N2129 C2131 1.356 . S
N2129 H2134 0.984 . S
N2129 H2135 0.985 . S
C2130 C2124 1.379 . S
C2130 C2127 1.363 . S
C2130 N2128 1.356 . S
C2131 C2125 1.363 . S
C2131 C2126 1.379 . S
C2131 N2129 1.356 . S
N2132 C2124 1.356 . S
N2132 H2138 0.984 . S
N2132 H2139 0.984 . S
N2133 C2126 1.356 . S
N2133 H2136 0.984 . S
N2133 H2137 0.985 . S
H2134 N2129 0.984 . S
H2135 N2129 0.985 . S
H2136 N2133 0.984 . S
H2137 N2133 0.985 . S
H2138 N2132 0.984 . S
H2139 N2132 0.984 . S
H2140 N2128 0.984 . S
H2141 N2128 0.985 . S
C2142 C2143 1.363 . S
C2142 C2148 1.379 . S
C2142 N2150 1.356 . S
C2143 C2142 1.363 . S
C2143 C2149 1.363 . S
C2144 C2145 1.363 . S
C2144 C2149 1.379 . S
C2144 N2151 1.356 . S
C2145 C2144 1.363 . S
C2145 C2148 1.363 . S
N2146 C2148 1.356 . S
N2146 H2158 0.984 . S
N2146 H2159 0.985 . S
N2147 C2149 1.356 . S
N2147 H2152 0.984 . S
N2147 H2153 0.985 . S
C2148 C2142 1.379 . S
C2148 C2145 1.363 . S
C2148 N2146 1.356 . S
C2149 C2143 1.363 . S
C2149 C2144 1.379 . S
C2149 N2147 1.356 . S
N2150 C2142 1.356 . S
N2150 H2156 0.984 . S
N2150 H2157 0.984 . S
N2151 C2144 1.356 . S
N2151 H2154 0.984 . S
N2151 H2155 0.985 . S
H2152 N2147 0.984 . S
H2153 N2147 0.985 . S
H2154 N2151 0.984 . S
H2155 N2151 0.985 . S
H2156 N2150 0.984 . S
H2157 N2150 0.984 . S
H2158 N2146 0.984 . S
H2159 N2146 0.985 . S
C2160 C2161 1.363 . S
C2160 C2166 1.379 . S
C2160 N2168 1.356 . S
C2161 C2160 1.363 . S
C2161 C2167 1.363 . S
C2162 C2163 1.363 . S
C2162 C2167 1.379 . S
C2162 N2169 1.356 1_655 S
C2163 C2162 1.363 . S
C2163 C2166 1.363 . S
N2164 C2166 1.356 . S
N2164 H2176 0.984 . S
N2164 H2177 0.985 . S
N2165 C2167 1.356 1_455 S
N2165 H2170 0.984 1_455 S
N2165 H2171 0.985 . S
C2166 C2160 1.379 . S
C2166 C2163 1.363 . S
C2166 N2164 1.356 . S
C2167 C2161 1.363 . S
C2167 C2162 1.379 . S
C2167 N2165 1.356 1_655 S
N2168 C2160 1.356 . S
N2168 H2174 0.984 . S
N2168 H2175 0.984 . S
N2169 C2162 1.356 1_455 S
N2169 H2172 0.984 . S
N2169 H2173 0.985 . S
H2170 N2165 0.984 1_655 S
H2171 N2165 0.985 . S
H2172 N2169 0.984 . S
H2173 N2169 0.985 . S
H2174 N2168 0.984 . S
H2175 N2168 0.984 . S
H2176 N2164 0.984 . S
H2177 N2164 0.985 . S
C2178 C2179 1.363 . S
C2178 C2184 1.379 . S
C2178 N2186 1.356 . S
C2179 C2178 1.363 . S
C2179 C2185 1.363 . S
C2180 C2181 1.363 . S
C2180 C2185 1.379 . S
C2180 N2187 1.356 . S
C2181 C2180 1.363 . S
C2181 C2184 1.363 . S
N2182 C2184 1.356 . S
N2182 H2194 0.984 . S
N2182 H2195 0.985 . S
N2183 C2185 1.356 . S
N2183 H2188 0.984 . S
N2183 H2189 0.985 . S
C2184 C2178 1.379 . S
C2184 C2181 1.363 . S
C2184 N2182 1.356 . S
C2185 C2179 1.363 . S
C2185 C2180 1.379 . S
C2185 N2183 1.356 . S
N2186 C2178 1.356 . S
N2186 H2192 0.984 . S
N2186 H2193 0.984 . S
N2187 C2180 1.356 . S
N2187 H2190 0.984 . S
N2187 H2191 0.985 . S
H2188 N2183 0.984 . S
H2189 N2183 0.985 . S
H2190 N2187 0.984 . S
H2191 N2187 0.985 . S
H2192 N2186 0.984 . S
H2193 N2186 0.984 . S
H2194 N2182 0.984 . S
H2195 N2182 0.985 . S
C2196 C2197 1.363 . S
C2196 C2202 1.379 . S
C2196 N2204 1.356 . S
C2197 C2196 1.363 . S
C2197 C2203 1.363 . S
C2198 C2199 1.363 . S
C2198 C2203 1.379 . S
C2198 N2205 1.356 . S
C2199 C2198 1.363 . S
C2199 C2202 1.363 . S
N2200 C2202 1.356 . S
N2200 H2212 0.984 1_545 S
N2200 H2213 0.985 . S
N2201 C2203 1.356 . S
N2201 H2206 0.984 . S
N2201 H2207 0.985 . S
C2202 C2196 1.379 . S
C2202 C2199 1.363 . S
C2202 N2200 1.356 . S
C2203 C2197 1.363 . S
C2203 C2198 1.379 . S
C2203 N2201 1.356 . S
N2204 C2196 1.356 . S
N2204 H2210 0.984 . S
N2204 H2211 0.984 . S
N2205 C2198 1.356 . S
N2205 H2208 0.984 . S
N2205 H2209 0.985 . S
H2206 N2201 0.984 . S
H2207 N2201 0.985 . S
H2208 N2205 0.984 . S
H2209 N2205 0.985 . S
H2210 N2204 0.984 . S
H2211 N2204 0.984 . S
H2212 N2200 0.984 1_565 S
H2213 N2200 0.985 . S
C2214 C2215 1.363 . S
C2214 C2220 1.379 . S
C2214 N2222 1.356 . S
C2215 C2214 1.363 . S
C2215 C2221 1.363 . S
C2216 C2217 1.363 . S
C2216 C2221 1.379 . S
C2216 N2223 1.356 . S
C2217 C2216 1.363 . S
C2217 C2220 1.363 . S
N2218 C2220 1.356 . S
N2218 H2230 0.984 . S
N2218 H2231 0.985 . S
N2219 C2221 1.356 . S
N2219 H2224 0.984 . S
N2219 H2225 0.985 . S
C2220 C2214 1.379 . S
C2220 C2217 1.363 . S
C2220 N2218 1.356 . S
C2221 C2215 1.363 . S
C2221 C2216 1.379 . S
C2221 N2219 1.356 . S
N2222 C2214 1.356 . S
N2222 H2228 0.984 . S
N2222 H2229 0.984 . S
N2223 C2216 1.356 . S
N2223 H2226 0.984 . S
N2223 H2227 0.985 . S
H2224 N2219 0.984 . S
H2225 N2219 0.985 . S
H2226 N2223 0.984 . S
H2227 N2223 0.985 . S
H2228 N2222 0.984 . S
H2229 N2222 0.984 . S
H2230 N2218 0.984 . S
H2231 N2218 0.985 . S
C2232 C2233 1.363 . S
C2232 C2238 1.379 . S
C2232 N2240 1.356 . S
C2233 C2232 1.363 . S
C2233 C2239 1.363 . S
C2234 C2235 1.363 . S
C2234 C2239 1.379 . S
C2234 N2241 1.356 . S
C2235 C2234 1.363 . S
C2235 C2238 1.363 . S
N2236 C2238 1.356 . S
N2236 H2248 0.984 . S
N2236 H2249 0.985 . S
N2237 C2239 1.356 . S
N2237 H2242 0.984 . S
N2237 H2243 0.985 . S
C2238 C2232 1.379 . S
C2238 C2235 1.363 . S
C2238 N2236 1.356 . S
C2239 C2233 1.363 . S
C2239 C2234 1.379 . S
C2239 N2237 1.356 . S
N2240 C2232 1.356 . S
N2240 H2246 0.984 . S
N2240 H2247 0.984 . S
N2241 C2234 1.356 . S
N2241 H2244 0.984 . S
N2241 H2245 0.985 . S
H2242 N2237 0.984 . S
H2243 N2237 0.985 . S
H2244 N2241 0.984 . S
H2245 N2241 0.985 . S
H2246 N2240 0.984 . S
H2247 N2240 0.984 . S
H2248 N2236 0.984 . S
H2249 N2236 0.985 . S
C2250 C2251 1.363 . S
C2250 C2256 1.379 . S
C2250 N2258 1.356 . S
C2251 C2250 1.363 . S
C2251 C2257 1.363 . S
C2252 C2253 1.363 . S
C2252 C2257 1.379 . S
C2252 N2259 1.356 . S
C2253 C2252 1.363 . S
C2253 C2256 1.363 . S
N2254 C2256 1.356 . S
N2254 H2266 0.984 . S
N2254 H2267 0.985 . S
N2255 C2257 1.356 . S
N2255 H2260 0.984 . S
N2255 H2261 0.985 . S
C2256 C2250 1.379 . S
C2256 C2253 1.363 . S
C2256 N2254 1.356 . S
C2257 C2251 1.363 . S
C2257 C2252 1.379 . S
C2257 N2255 1.356 . S
N2258 C2250 1.356 . S
N2258 H2264 0.984 . S
N2258 H2265 0.984 . S
N2259 C2252 1.356 . S
N2259 H2262 0.984 . S
N2259 H2263 0.985 . S
H2260 N2255 0.984 . S
H2261 N2255 0.985 . S
H2262 N2259 0.984 . S
H2263 N2259 0.985 . S
H2264 N2258 0.984 . S
H2265 N2258 0.984 . S
H2266 N2254 0.984 . S
H2267 N2254 0.985 . S
C2268 C2269 1.363 . S
C2268 C2274 1.379 . S
C2268 N2276 1.356 . S
C2269 C2268 1.363 . S
C2269 C2275 1.363 . S
C2270 C2271 1.363 . S
C2270 C2275 1.379 . S
C2270 N2277 1.356 . S
C2271 C2270 1.363 . S
C2271 C2274 1.363 . S
N2272 C2274 1.356 . S
N2272 H2284 0.984 . S
N2272 H2285 0.985 . S
N2273 C2275 1.356 . S
N2273 H2278 0.984 . S
N2273 H2279 0.985 . S
C2274 C2268 1.379 . S
C2274 C2271 1.363 . S
C2274 N2272 1.356 . S
C2275 C2269 1.363 . S
C2275 C2270 1.379 . S
C2275 N2273 1.356 . S
N2276 C2268 1.356 . S
N2276 H2282 0.984 . S
N2276 H2283 0.984 . S
N2277 C2270 1.356 . S
N2277 H2280 0.984 . S
N2277 H2281 0.985 . S
H2278 N2273 0.984 . S
H2279 N2273 0.985 . S
H2280 N2277 0.984 . S
H2281 N2277 0.985 . S
H2282 N2276 0.984 . S
H2283 N2276 0.984 . S
H2284 N2272 0.984 . S
H2285 N2272 0.985 . S
C2286 C2287 1.363 . S
C2286 C2292 1.379 . S
C2286 N2294 1.356 . S
C2287 C2286 1.363 . S
C2287 C2293 1.363 . S
C2288 C2289 1.363 . S
C2288 C2293 1.379 . S
C2288 N2295 1.356 . S
C2289 C2288 1.363 . S
C2289 C2292 1.363 . S
N2290 C2292 1.356 . S
N2290 H2302 0.984 . S
N2290 H2303 0.985 . S
N2291 C2293 1.356 . S
N2291 H2296 0.984 . S
N2291 H2297 0.985 . S
C2292 C2286 1.379 . S
C2292 C2289 1.363 . S
C2292 N2290 1.356 . S
C2293 C2287 1.363 . S
C2293 C2288 1.379 . S
C2293 N2291 1.356 . S
N2294 C2286 1.356 . S
N2294 H2300 0.984 . S
N2294 H2301 0.984 . S
N2295 C2288 1.356 . S
N2295 H2298 0.984 . S
N2295 H2299 0.985 . S
H2296 N2291 0.984 . S
H2297 N2291 0.985 . S
H2298 N2295 0.984 . S
H2299 N2295 0.985 . S
H2300 N2294 0.984 . S
H2301 N2294 0.984 . S
H2302 N2290 0.984 . S
H2303 N2290 0.985 . S
C2304 C2305 1.363 . S
C2304 C2310 1.379 . S
C2304 N2312 1.356 . S
C2305 C2304 1.363 . S
C2305 C2311 1.363 . S
C2306 C2307 1.363 . S
C2306 C2311 1.379 . S
C2306 N2313 1.356 . S
C2307 C2306 1.363 . S
C2307 C2310 1.363 . S
N2308 C2310 1.356 . S
N2308 H2320 0.984 . S
N2308 H2321 0.985 . S
N2309 C2311 1.356 . S
N2309 H2314 0.984 . S
N2309 H2315 0.985 . S
C2310 C2304 1.379 . S
C2310 C2307 1.363 . S
C2310 N2308 1.356 . S
C2311 C2305 1.363 . S
C2311 C2306 1.379 . S
C2311 N2309 1.356 . S
N2312 C2304 1.356 . S
N2312 H2318 0.984 . S
N2312 H2319 0.984 . S
N2313 C2306 1.356 . S
N2313 H2316 0.984 . S
N2313 H2317 0.985 . S
H2314 N2309 0.984 . S
H2315 N2309 0.985 . S
H2316 N2313 0.984 . S
H2317 N2313 0.985 . S
H2318 N2312 0.984 . S
H2319 N2312 0.984 . S
H2320 N2308 0.984 . S
H2321 N2308 0.985 . S
C2322 C2323 1.363 . S
C2322 C2328 1.379 . S
C2322 N2330 1.356 . S
C2323 C2322 1.363 . S
C2323 C2329 1.363 . S
C2324 C2325 1.363 . S
C2324 C2329 1.379 . S
C2324 N2331 1.356 . S
C2325 C2324 1.363 . S
C2325 C2328 1.363 . S
N2326 C2328 1.356 . S
N2326 H2338 0.984 . S
N2326 H2339 0.985 . S
N2327 C2329 1.356 . S
N2327 H2332 0.984 . S
N2327 H2333 0.985 . S
C2328 C2322 1.379 . S
C2328 C2325 1.363 . S
C2328 N2326 1.356 . S
C2329 C2323 1.363 . S
C2329 C2324 1.379 . S
C2329 N2327 1.356 . S
N2330 C2322 1.356 . S
N2330 H2336 0.984 . S
N2330 H2337 0.984 . S
N2331 C2324 1.356 . S
N2331 H2334 0.984 . S
N2331 H2335 0.985 . S
H2332 N2327 0.984 . S
H2333 N2327 0.985 . S
H2334 N2331 0.984 . S
H2335 N2331 0.985 . S
H2336 N2330 0.984 . S
H2337 N2330 0.984 . S
H2338 N2326 0.984 . S
H2339 N2326 0.985 . S
C2340 C2341 1.363 . S
C2340 C2346 1.379 . S
C2340 N2348 1.356 . S
C2341 C2340 1.363 . S
C2341 C2347 1.363 . S
C2342 C2343 1.363 . S
C2342 C2347 1.379 . S
C2342 N2349 1.356 . S
C2343 C2342 1.363 . S
C2343 C2346 1.363 . S
N2344 C2346 1.356 . S
N2344 H2356 0.984 . S
N2344 H2357 0.985 . S
N2345 C2347 1.356 . S
N2345 H2350 0.984 . S
N2345 H2351 0.985 . S
C2346 C2340 1.379 . S
C2346 C2343 1.363 . S
C2346 N2344 1.356 . S
C2347 C2341 1.363 . S
C2347 C2342 1.379 . S
C2347 N2345 1.356 . S
N2348 C2340 1.356 . S
N2348 H2354 0.984 . S
N2348 H2355 0.984 . S
N2349 C2342 1.356 . S
N2349 H2352 0.984 . S
N2349 H2353 0.985 . S
H2350 N2345 0.984 . S
H2351 N2345 0.985 . S
H2352 N2349 0.984 . S
H2353 N2349 0.985 . S
H2354 N2348 0.984 . S
H2355 N2348 0.984 . S
H2356 N2344 0.984 . S
H2357 N2344 0.985 . S
C2358 C2359 1.363 . S
C2358 C2364 1.379 . S
C2358 N2366 1.356 . S
C2359 C2358 1.363 . S
C2359 C2365 1.363 . S
C2360 C2361 1.363 . S
C2360 C2365 1.379 . S
C2360 N2367 1.356 . S
C2361 C2360 1.363 . S
C2361 C2364 1.363 . S
N2362 C2364 1.356 . S
N2362 H2374 0.984 . S
N2362 H2375 0.985 . S
N2363 C2365 1.356 . S
N2363 H2368 0.984 . S
N2363 H2369 0.985 . S
C2364 C2358 1.379 . S
C2364 C2361 1.363 . S
C2364 N2362 1.356 . S
C2365 C2359 1.363 . S
C2365 C2360 1.379 . S
C2365 N2363 1.356 . S
N2366 C2358 1.356 . S
N2366 H2372 0.984 . S
N2366 H2373 0.984 . S
N2367 C2360 1.356 . S
N2367 H2370 0.984 . S
N2367 H2371 0.985 . S
H2368 N2363 0.984 . S
H2369 N2363 0.985 . S
H2370 N2367 0.984 . S
H2371 N2367 0.985 . S
H2372 N2366 0.984 . S
H2373 N2366 0.984 . S
H2374 N2362 0.984 . S
H2375 N2362 0.985 . S
C2376 C2377 1.363 . S
C2376 C2382 1.379 . S
C2376 N2384 1.356 . S
C2377 C2376 1.363 . S
C2377 C2383 1.363 . S
C2378 C2379 1.363 . S
C2378 C2383 1.379 . S
C2378 N2385 1.356 . S
C2379 C2378 1.363 . S
C2379 C2382 1.363 . S
N2380 C2382 1.356 . S
N2380 H2392 0.984 . S
N2380 H2393 0.985 . S
N2381 C2383 1.356 . S
N2381 H2386 0.984 . S
N2381 H2387 0.985 . S
C2382 C2376 1.379 . S
C2382 C2379 1.363 . S
C2382 N2380 1.356 . S
C2383 C2377 1.363 . S
C2383 C2378 1.379 . S
C2383 N2381 1.356 . S
N2384 C2376 1.356 . S
N2384 H2390 0.984 . S
N2384 H2391 0.984 . S
N2385 C2378 1.356 . S
N2385 H2388 0.984 . S
N2385 H2389 0.985 . S
H2386 N2381 0.984 . S
H2387 N2381 0.985 . S
H2388 N2385 0.984 . S
H2389 N2385 0.985 . S
H2390 N2384 0.984 . S
H2391 N2384 0.984 . S
H2392 N2380 0.984 . S
H2393 N2380 0.985 . S
C2394 C2395 1.363 . S
C2394 C2400 1.379 . S
C2394 N2402 1.356 . S
C2395 C2394 1.363 . S
C2395 C2401 1.363 . S
C2396 C2397 1.363 . S
C2396 C2401 1.379 . S
C2396 N2403 1.356 . S
C2397 C2396 1.363 . S
C2397 C2400 1.363 . S
N2398 C2400 1.356 . S
N2398 H2410 0.984 . S
N2398 H2411 0.985 . S
N2399 C2401 1.356 . S
N2399 H2404 0.984 . S
N2399 H2405 0.985 . S
C2400 C2394 1.379 . S
C2400 C2397 1.363 . S
C2400 N2398 1.356 . S
C2401 C2395 1.363 . S
C2401 C2396 1.379 . S
C2401 N2399 1.356 . S
N2402 C2394 1.356 . S
N2402 H2408 0.984 . S
N2402 H2409 0.984 . S
N2403 C2396 1.356 . S
N2403 H2406 0.984 . S
N2403 H2407 0.985 . S
H2404 N2399 0.984 . S
H2405 N2399 0.985 . S
H2406 N2403 0.984 . S
H2407 N2403 0.985 . S
H2408 N2402 0.984 . S
H2409 N2402 0.984 . S
H2410 N2398 0.984 . S
H2411 N2398 0.985 . S
C2412 C2413 1.363 . S
C2412 C2418 1.379 . S
C2412 N2420 1.356 . S
C2413 C2412 1.363 . S
C2413 C2419 1.363 . S
C2414 C2415 1.363 . S
C2414 C2419 1.379 . S
C2414 N2421 1.356 . S
C2415 C2414 1.363 . S
C2415 C2418 1.363 . S
N2416 C2418 1.356 . S
N2416 H2428 0.984 . S
N2416 H2429 0.985 . S
N2417 C2419 1.356 . S
N2417 H2422 0.984 . S
N2417 H2423 0.985 . S
C2418 C2412 1.379 . S
C2418 C2415 1.363 . S
C2418 N2416 1.356 . S
C2419 C2413 1.363 . S
C2419 C2414 1.379 . S
C2419 N2417 1.356 . S
N2420 C2412 1.356 . S
N2420 H2426 0.984 . S
N2420 H2427 0.984 . S
N2421 C2414 1.356 . S
N2421 H2424 0.984 . S
N2421 H2425 0.985 . S
H2422 N2417 0.984 . S
H2423 N2417 0.985 . S
H2424 N2421 0.984 . S
H2425 N2421 0.985 . S
H2426 N2420 0.984 . S
H2427 N2420 0.984 . S
H2428 N2416 0.984 . S
H2429 N2416 0.985 . S
C1459 C528 1.462 . S
C1461 C769 1.386 . S
C1477 C562 1.513 . S
C1479 C853 1.441 . S
C1495 C484 1.513 . S
C1497 C933 1.456 . S
C1513 C445 1.467 . S
C1515 C849 1.415 . S
C1533 C937 1.380 . S
C1531 C367 1.459 . S
C1549 C411 1.448 . S
C1551 C765 1.389 . S
C1569 C758 1.402 . S
C1567 C450 1.472 . S
C1587 C842 1.429 . S
C1585 C372 1.495 . S
C1603 C406 1.510 . S
C1605 C944 1.455 . S
C1621 C523 1.464 . S
C1623 C860 1.414 . S
C1639 C567 1.441 . S
C1641 C926 1.368 . S
C1659 C776 1.405 . S
C1657 C489 1.456 . S
C1677 C1021 1.386 . S
C1675 C60 1.462 1_455 S
C1693 C94 1.513 . S
C1695 C1105 1.441 . S
C1711 C16 1.513 1_565 S
C1713 C1185 1.456 . S
C1729 C679 1.467 . S
C1731 C1101 1.415 . S
C1747 C601 1.459 . S
C1749 C1189 1.380 . S
C1765 C645 1.448 . S
C1767 C1017 1.389 . S
C1783 C684 1.473 . S
C1785 C1010 1.402 . S
C1801 C606 1.495 . S
C1803 C1094 1.429 . S
C1821 C1196 1.455 . S
C1819 C640 1.510 . S
C1837 C55 1.463 1_565 S
C1839 C1112 1.414 . S
C1857 C1178 1.368 . S
C1855 C99 1.441 1_455 S
C1873 C21 1.456 . S
C1875 C1028 1.406 . S
C1893 C1273 1.386 . S
C1891 C294 1.462 . S
C1909 C328 1.513 . S
C1911 C1357 1.441 . S
C1929 C1437 1.456 . S
C1927 C250 1.513 . S
C1947 C1353 1.415 . S
C1945 C211 1.466 1_545 S
C1965 C1441 1.380 . S
C1963 C133 1.459 1_655 S
C1981 C177 1.448 . S
C1983 C1269 1.389 . S
C1999 C216 1.472 1_655 S
C2001 C1262 1.402 . S
C2017 C138 1.495 . S
C2019 C1346 1.429 . S
C2037 C1448 1.455 . S
C2035 C172 1.510 1_545 S
C2053 C289 1.464 . S
C2055 C1364 1.414 . S
C2071 C333 1.441 . S
C2073 C1430 1.368 . S
C2089 C255 1.456 . S
C2091 C1280 1.406 . S
C2107 C586 1.490 . S
C2109 C772 1.382 . S
C2127 C856 1.359 . S
C2125 C625 1.509 . S
C2143 C664 1.495 . S
C2145 C928 1.361 . S
C2161 C235 1.519 . S
C2163 C844 1.367 . S
C2179 C274 1.484 . S
C2181 C940 1.353 . S
C2199 C760 1.383 . S
C2197 C313 1.490 . S
C2215 C118 1.490 . S
C2217 C1024 1.381 . S
C2233 C157 1.509 . S
C2235 C1108 1.359 . S
C2251 C196 1.495 . S
C2253 C1180 1.361 . S
C2269 C469 1.519 . S
C2271 C1096 1.367 . S
C2289 C1192 1.353 . S
C2287 C508 1.483 . S
C2305 C547 1.490 . S
C2307 C1012 1.383 . S
C2323 C352 1.490 . S
C2325 C1276 1.382 . S
C2341 C391 1.509 . S
C2343 C1360 1.358 . S
C2361 C1432 1.361 . S
C2359 C430 1.495 . S
C2377 C1 1.519 . S
C2379 C1348 1.367 . S
C2395 C40 1.484 . S
C2397 C1444 1.353 . S
C2413 C79 1.489 . S
C2415 C1264 1.383 . S
