# Generated by pormake.
# Topology anh, (6,3)-cn, num edge types: 1
# Building blocks:
#     Node 0, Type 0, BuildingBlock: BETDEL_clean_sbu_0, # of connection points: 6
#     Node 1, Type 0, BuildingBlock: BETDEL_clean_sbu_0, # of connection points: 6
#     Node 2, Type 0, BuildingBlock: BETDEL_clean_sbu_0, # of connection points: 6
#     Node 3, Type 1, BuildingBlock: VETTIZ_charged_linker_0, # of connection points: 3
#     Node 4, Type 1, BuildingBlock: VETTIZ_charged_linker_0, # of connection points: 3
#     Node 5, Type 1, BuildingBlock: VETTIZ_charged_linker_0, # of connection points: 3
#     Node 6, Type 1, BuildingBlock: VETTIZ_charged_linker_0, # of connection points: 3
#     Node 7, Type 1, BuildingBlock: VETTIZ_charged_linker_0, # of connection points: 3
#     Node 8, Type 1, BuildingBlock: VETTIZ_charged_linker_0, # of connection points: 3
#     Edge 9, Type (0, 1), BuildingBlock: XUDNAN_clean_linker_2, # of connection points: 2
#     Edge 10, Type (0, 1), BuildingBlock: XUDNAN_clean_linker_2, # of connection points: 2
#     Edge 11, Type (0, 1), BuildingBlock: XUDNAN_clean_linker_2, # of connection points: 2
#     Edge 12, Type (0, 1), BuildingBlock: XUDNAN_clean_linker_2, # of connection points: 2
#     Edge 13, Type (0, 1), BuildingBlock: XUDNAN_clean_linker_2, # of connection points: 2
#     Edge 14, Type (0, 1), BuildingBlock: XUDNAN_clean_linker_2, # of connection points: 2
#     Edge 15, Type (0, 1), BuildingBlock: XUDNAN_clean_linker_2, # of connection points: 2
#     Edge 16, Type (0, 1), BuildingBlock: XUDNAN_clean_linker_2, # of connection points: 2
#     Edge 17, Type (0, 1), BuildingBlock: XUDNAN_clean_linker_2, # of connection points: 2
#     Edge 18, Type (0, 1), BuildingBlock: XUDNAN_clean_linker_2, # of connection points: 2
#     Edge 19, Type (0, 1), BuildingBlock: XUDNAN_clean_linker_2, # of connection points: 2
#     Edge 20, Type (0, 1), BuildingBlock: XUDNAN_clean_linker_2, # of connection points: 2
#     Edge 21, Type (0, 1), BuildingBlock: XUDNAN_clean_linker_2, # of connection points: 2
#     Edge 22, Type (0, 1), BuildingBlock: XUDNAN_clean_linker_2, # of connection points: 2
#     Edge 23, Type (0, 1), BuildingBlock: XUDNAN_clean_linker_2, # of connection points: 2
#     Edge 24, Type (0, 1), BuildingBlock: XUDNAN_clean_linker_2, # of connection points: 2
#     Edge 25, Type (0, 1), BuildingBlock: XUDNAN_clean_linker_2, # of connection points: 2
#     Edge 26, Type (0, 1), BuildingBlock: XUDNAN_clean_linker_2, # of connection points: 2
# Relax obj value: 0.144
# Max RMSD: 0.167
# Mean RMSD: 0.135
data_MOF--net-anh--node1-BETDEL_clean_sbu_0--node2-VETTIZ_charged_linker_0--edge1-XUDNAN_clean_linker_2
_symmetry_space_group_name_H-M    P1
_symmetry_Int_Tables_number       1
_symmetry_cell_setting            triclinic
loop_
_symmetry_equiv_pos_as_xyz
'x, y, z'
_cell_length_a     35.642107
_cell_length_b     35.612567
_cell_length_c     64.756976
_cell_angle_alpha  90.221028
_cell_angle_beta   89.513921
_cell_angle_gamma 120.10758
loop_
_atom_site_label
_atom_site_type_symbol
_atom_site_fract_x
_atom_site_fract_y
_atom_site_fract_z
_atom_type_partial_charge
Dy0 Dy 0.06879 0.50139 0.16586 0.0
C1 C 0.96417 0.57753 0.18156 0.0
C2 C 0.12905 0.47621 0.16216 0.0
Dy3 Dy 1.01318 0.54294 0.16827 0.0
O4 O 0.11826 0.48771 0.17916 0.0
O5 O 0.10712 0.47869 0.14675 0.0
O6 O 0.03399 0.46191 0.19358 0.0
O7 O 0.04607 0.5259 0.19124 0.0
C8 C 0.02835 0.49175 0.20199 0.0
C9 C 0.02742 0.52463 0.12961 0.0
O10 O 0.07865 0.60414 0.17072 0.0
O11 O 0.12184 0.57236 0.16838 0.0
O12 O 0.98764 0.58894 0.16477 0.0
O13 O 0.96812 0.54775 0.19113 0.0
O14 O 0.99151 0.52261 0.13553 0.0
O15 O 0.05416 0.53867 0.14421 0.0
O16 O 1.00413 0.44527 0.15506 0.0
O17 O 0.9628 0.47153 0.17019 0.0
C18 C 0.11751 0.60731 0.17002 0.0
C19 C 0.96599 0.43938 0.1616 0.0
Dy20 Dy 0.4784 0.03713 0.49514 0.0
C21 C 0.66 0.1348 0.51251 0.0
C22 C 0.39196 0.98941 0.48603 0.0
Dy23 Dy 0.57558 0.08879 0.49988 0.0
O24 O 0.408 0.01159 0.50281 0.0
O25 O 0.42337 0.99497 0.47375 0.0
O26 O 0.47353 0.01186 0.52751 0.0
O27 O 0.52179 0.07496 0.51998 0.0
C28 C 0.50727 0.04691 0.53401 0.0
C29 C 0.54948 0.07956 0.46027 0.0
O30 O 0.56273 0.01985 0.50606 0.0
O31 O 0.49379 0.98333 0.49222 0.0
O32 O 0.64609 0.10767 0.49715 0.0
O33 O 0.6276 0.13573 0.52123 0.0
O34 O 0.58314 0.11348 0.46774 0.0
O35 O 0.53275 0.05116 0.4743 0.0
O36 O 0.48967 0.1054 0.48961 0.0
O37 O 0.56171 0.14405 0.49982 0.0
C38 C 0.52847 0.98321 0.49944 0.0
C39 C 0.52539 0.14277 0.49411 0.0
Dy40 Dy 0.59791 0.6061 0.83206 0.0
C41 C 0.52947 0.42538 0.83751 0.0
C42 C 0.64189 0.69372 0.82657 0.0
Dy43 Dy 0.55336 0.50995 0.83134 0.0
O44 O 0.64327 0.67379 0.84301 0.0
O45 O 0.61708 0.66562 0.81286 0.0
O46 O 0.56869 0.60323 0.86299 0.0
O47 O 0.58649 0.55736 0.85554 0.0
C48 C 0.5691 0.56894 0.86924 0.0
C49 C 0.55418 0.5448 0.7946 0.0
O50 O 0.49574 0.5183 0.83851 0.0
O51 O 0.52793 0.58945 0.82728 0.0
O52 O 0.54944 0.44823 0.82133 0.0
O53 O 0.52085 0.4483 0.85034 0.0
O54 O 0.52245 0.50803 0.80117 0.0
O55 O 0.58495 0.55964 0.80735 0.0
O56 O 0.65862 0.59983 0.83119 0.0
O57 O 0.62279 0.52464 0.83092 0.0
C58 C 0.49286 0.55281 0.83322 0.0
C59 C 0.65926 0.56274 0.83087 0.0
C60 C 0.65241 0.1317 0.17914 0.0
C61 C 0.68551 0.16977 0.18925 0.0
C62 C 0.67828 0.1756 0.21015 0.0
C63 C 0.612 0.10574 0.21155 0.0
C64 C 0.61549 0.10015 0.19067 0.0
C65 C 0.57513 0.05844 0.18333 0.0
H66 H 0.38725 0.86943 0.21419 0.0
C67 C 0.57271 0.06743 0.21995 0.0
C68 C 0.5498 0.03883 0.20364 0.0
H69 H 0.42466 0.91008 0.15113 0.0
H70 H 0.49073 0.97502 0.16302 0.0
H71 H 0.48305 0.89892 0.23187 0.0
H72 H 0.40287 0.95708 0.2288 0.0
H73 H 0.42895 0.97277 0.2527 0.0
H74 H 0.39334 0.91589 0.24736 0.0
H75 H 0.43553 0.88152 0.24765 0.0
H76 H 0.48804 0.92443 0.25574 0.0
C77 C 0.58894 0.0283 0.17296 0.0
C78 C 0.54976 0.07142 0.16866 0.0
C79 C 0.5554 0.05552 0.29796 0.0
C80 C 0.52589 0.02299 0.31136 0.0
C81 C 0.49021 0.98585 0.30296 0.0
C82 C 0.48516 0.98051 0.28145 0.0
C83 C 0.51599 0.0128 0.26817 0.0
C84 C 0.5499 0.04974 0.27661 0.0
C85 C 0.57961 0.08078 0.26049 0.0
C86 C 0.55871 0.05597 0.24077 0.0
C87 C 0.52151 0.01636 0.24534 0.0
C88 C 0.62531 0.08657 0.26389 0.0
C89 C 0.57733 0.12316 0.26227 0.0
C90 C 0.40982 0.89172 0.20281 0.0
C91 C 0.40069 0.88385 0.18172 0.0
C92 C 0.43075 0.915 0.16755 0.0
C93 C 0.4689 0.95286 0.17444 0.0
C94 C 0.47671 0.96067 0.19578 0.0
C95 C 0.44679 0.92997 0.20938 0.0
C96 C 0.45694 0.94359 0.23142 0.0
C97 C 0.49751 0.98752 0.22917 0.0
C98 C 0.51054 0.99816 0.20827 0.0
C99 C 0.46613 0.91044 0.24243 0.0
C100 C 0.41862 0.94733 0.24074 0.0
H101 H 0.64075 0.15139 0.23704 0.0
H102 H 0.65537 0.1264 0.16289 0.0
H103 H 0.54454 0.09685 0.17587 0.0
H104 H 0.51743 0.04388 0.16502 0.0
H105 H 0.56796 0.08461 0.15396 0.0
H106 H 0.60942 0.02186 0.18358 0.0
H107 H 0.60798 0.04335 0.15865 0.0
H108 H 0.56057 0.99669 0.16882 0.0
H109 H 0.5828 0.08477 0.30399 0.0
H110 H 0.46709 0.96032 0.31301 0.0
H111 H 0.45782 0.95105 0.27602 0.0
H112 H 0.6228 0.05523 0.26832 0.0
H113 H 0.64268 0.11022 0.27644 0.0
H114 H 0.64598 0.0969 0.24993 0.0
H115 H 0.54698 0.11751 0.27007 0.0
H116 H 0.57659 0.13659 0.24696 0.0
H117 H 0.60494 0.14836 0.27128 0.0
H118 H 0.70033 0.20498 0.21834 0.0
C119 C 0.64262 0.14425 0.22116 0.0
C120 C 0.53877 0.67724 0.51302 0.0
C121 C 0.54433 0.71503 0.52365 0.0
C122 C 0.55088 0.71709 0.54511 0.0
C123 C 0.54604 0.64657 0.54535 0.0
C124 C 0.5402 0.64342 0.52424 0.0
C125 C 0.53665 0.60105 0.5163 0.0
H126 H 0.52516 0.40614 0.54381 0.0
C127 C 0.54445 0.60665 0.55311 0.0
C128 C 0.53879 0.57889 0.53633 0.0
H129 H 0.52885 0.45008 0.48145 0.0
H130 H 0.53167 0.51605 0.49463 0.0
H131 H 0.5991 0.49363 0.55951 0.0
H132 H 0.46058 0.43586 0.56254 0.0
H133 H 0.4801 0.46148 0.58641 0.0
H134 H 0.48964 0.41825 0.57855 0.0
H135 H 0.5659 0.44979 0.57672 0.0
H136 H 0.58735 0.50567 0.58415 0.0
C137 C 0.5758 0.61269 0.50205 0.0
C138 C 0.49304 0.57393 0.50527 0.0
C139 C 0.55738 0.59431 0.63057 0.0
C140 C 0.55432 0.56117 0.64338 0.0
C141 C 0.54565 0.52152 0.6344 0.0
C142 C 0.54092 0.51535 0.61295 0.0
C143 C 0.54463 0.5491 0.60025 0.0
C144 C 0.55214 0.58745 0.60922 0.0
C145 C 0.55327 0.61905 0.59364 0.0
C146 C 0.54627 0.59388 0.57365 0.0
C147 C 0.5416 0.55316 0.57756 0.0
C148 C 0.59902 0.66022 0.59438 0.0
C149 C 0.51495 0.62684 0.59865 0.0
C150 C 0.52582 0.42932 0.53282 0.0
C151 C 0.5263 0.42199 0.51152 0.0
C152 C 0.52854 0.45445 0.498 0.0
C153 C 0.53032 0.4929 0.50563 0.0
C154 C 0.53074 0.49988 0.5271 0.0
C155 C 0.52854 0.46791 0.54012 0.0
C156 C 0.5316 0.48029 0.56238 0.0
C157 C 0.53627 0.52487 0.56093 0.0
C158 C 0.53528 0.53711 0.54025 0.0
C159 C 0.57284 0.48225 0.57135 0.0
C160 C 0.48853 0.44727 0.57321 0.0
H161 H 0.55681 0.68832 0.57209 0.0
H162 H 0.53382 0.67431 0.4965 0.0
H163 H 0.46581 0.56906 0.51555 0.0
H164 H 0.48743 0.54149 0.50094 0.0
H165 H 0.49187 0.59058 0.49102 0.0
H166 H 0.60651 0.6361 0.50982 0.0
H167 H 0.57338 0.62786 0.48753 0.0
H168 H 0.57853 0.58405 0.49801 0.0
H169 H 0.56319 0.62486 0.63704 0.0
H170 H 0.54328 0.49551 0.64396 0.0
H171 H 0.53485 0.48458 0.6071 0.0
H172 H 0.62428 0.65169 0.59809 0.0
H173 H 0.60055 0.68333 0.60636 0.0
H174 H 0.60953 0.67721 0.57936 0.0
H175 H 0.48802 0.59859 0.60681 0.0
H176 H 0.49959 0.63061 0.58464 0.0
H177 H 0.52544 0.65569 0.60872 0.0
H178 H 0.55417 0.74439 0.554 0.0
C179 C 0.55185 0.6837 0.55582 0.0
C180 C 0.18713 0.56354 0.84645 0.0
C181 C 0.22412 0.56681 0.85662 0.0
C182 C 0.22675 0.57252 0.87814 0.0
C183 C 0.15728 0.56993 0.87947 0.0
C184 C 0.15437 0.56619 0.85824 0.0
C185 C 0.11327 0.56564 0.85085 0.0
H186 H 0.9295 0.57534 0.88032 0.0
C187 C 0.11846 0.57019 0.88779 0.0
C188 C 0.09226 0.5688 0.87122 0.0
H189 H 0.96489 0.56361 0.81776 0.0
H190 H 0.02969 0.5639 0.83023 0.0
H191 H 0.94629 0.5053 0.89739 0.0
H192 H 0.02495 0.64423 0.8966 0.0
H193 H 0.03049 0.62718 0.92124 0.0
H194 H 0.97765 0.61542 0.91268 0.0
H195 H 0.93756 0.53881 0.91525 0.0
H196 H 0.97413 0.51903 0.92084 0.0
C197 C 0.08419 0.5225 0.83963 0.0
C198 C 0.1267 0.60545 0.83697 0.0
C199 C 0.09697 0.56178 0.96573 0.0
C200 C 0.06564 0.56228 0.97896 0.0
C201 C 0.03215 0.56694 0.97004 0.0
C202 C 0.02959 0.5702 0.94855 0.0
C203 C 0.06101 0.56918 0.9356 0.0
C204 C 0.09429 0.56577 0.94435 0.0
C205 C 0.12618 0.56765 0.92849 0.0
C206 C 0.1052 0.57016 0.90856 0.0
C207 C 0.06711 0.57106 0.91281 0.0
C208 C 0.12758 0.52491 0.93006 0.0
C209 C 0.17026 0.60973 0.93241 0.0
C210 C 0.95144 0.57387 0.8691 0.0
C211 C 0.94175 0.5702 0.84796 0.0
C212 C 0.97112 0.56663 0.83419 0.0
C213 C 1.00892 0.56693 0.84141 0.0
C214 C 0.01771 0.57031 0.86274 0.0
C215 C 0.98856 0.57338 0.87603 0.0
C216 C 0.99996 0.57366 0.89821 0.0
C217 C 0.04128 0.57157 0.89638 0.0
C218 C 0.0528 0.56994 0.87555 0.0
C219 C 0.96266 0.53238 0.90864 0.0
C220 C 1.00847 0.61714 0.90788 0.0
H221 H 0.19827 0.57705 0.9058 0.0
H222 H 0.18406 0.55939 0.82987 0.0
H223 H 0.15079 0.6356 0.84497 0.0
H224 H 0.0989 0.60952 0.83304 0.0
H225 H 0.14169 0.6026 0.82236 0.0
H226 H 0.07885 0.49463 0.84942 0.0
H227 H 0.09952 0.52091 0.82489 0.0
H228 H 0.05195 0.51807 0.83617 0.0
H229 H 0.12309 0.55797 0.97175 0.0
H230 H 1.00805 0.56862 0.97966 0.0
H231 H 1.00322 0.57353 0.94288 0.0
H232 H 0.09435 0.49667 0.93229 0.0
H233 H 0.14749 0.52588 0.94337 0.0
H234 H 0.14016 0.51738 0.91598 0.0
H235 H 0.16631 0.63393 0.94167 0.0
H236 H 0.18602 0.62707 0.91788 0.0
H237 H 0.19295 0.60268 0.94092 0.0
H238 H 0.25401 0.57465 0.88646 0.0
C239 C 0.19391 0.57381 0.88946 0.0
C240 C 0.93935 0.44007 0.48859 0.0
C241 C 0.90838 0.39816 0.48189 0.0
C242 C 0.89652 0.39113 0.461 0.0
C243 C 0.94766 0.46621 0.45325 0.0
C244 C 0.95879 0.47375 0.47388 0.0
C245 C 0.9933 0.5205 0.47759 0.0
H246 H 0.13422 0.71848 0.43609 0.0
C247 C 0.97489 0.50656 0.44165 0.0
C248 C 1.00198 0.5388 0.45568 0.0
H249 H 0.11447 0.68364 0.50076 0.0
H250 H 0.05898 0.61042 0.49192 0.0
H251 H 0.1337 0.63551 0.42083 0.0
H252 H 0.03217 0.66733 0.42346 0.0
H253 H 0.03112 0.64498 0.39899 0.0
H254 H 0.07888 0.6941 0.40681 0.0
H255 H 0.12874 0.66852 0.40143 0.0
H256 H 0.10057 0.61003 0.39946 0.0
C257 C 0.03344 0.52113 0.48685 0.0
C258 C 0.9736 0.54168 0.49153 0.0
C259 C 0.96406 0.5027 0.36366 0.0
C260 C 0.9904 0.53124 0.34799 0.0
C261 C 0.02397 0.57301 0.35366 0.0
C262 C 0.03193 0.5853 0.37451 0.0
C263 C 1.00664 0.55536 0.38994 0.0
C264 C 0.97344 0.51488 0.38433 0.0
C265 C 0.95265 0.48557 0.40257 0.0
C266 C 0.97842 0.51538 0.42017 0.0
C267 C 1.0095 0.55634 0.41275 0.0
C268 C 0.96008 0.44624 0.40037 0.0
C269 C 0.90441 0.47351 0.40349 0.0
C270 C 0.11827 0.69509 0.44839 0.0
C271 C 0.12894 0.70696 0.46914 0.0
C272 C 0.10665 0.67551 0.48464 0.0
C273 C 0.07456 0.63296 0.47948 0.0
C274 C 0.06448 0.62168 0.4586 0.0
C275 C 0.08621 0.65273 0.44351 0.0
C276 C 0.07155 0.63554 0.42213 0.0
C277 C 0.03669 0.58929 0.42679 0.0
C278 C 0.03277 0.58092 0.44818 0.0
C279 C 0.1105 0.63764 0.41017 0.0
C280 C 0.05259 0.66184 0.41213 0.0
H281 H 0.90518 0.41706 0.43106 0.0
H282 H 0.94861 0.44617 0.50467 0.0
H283 H 0.93907 0.52947 0.48756 0.0
H284 H 0.98978 0.5772 0.48954 0.0
H285 H 0.97477 0.53414 0.50806 0.0
H286 H 0.04057 0.49809 0.47844 0.0
H287 H 0.02784 0.51136 0.50337 0.0
H288 H 0.06318 0.55311 0.48559 0.0
H289 H 0.93749 0.47063 0.36008 0.0
H290 H 0.04537 0.59571 0.34211 0.0
H291 H 0.05832 0.61722 0.3778 0.0
H292 H 0.98872 0.4541 0.39042 0.0
H293 H 0.93159 0.41785 0.39336 0.0
H294 H 0.96758 0.43636 0.41524 0.0
H295 H 0.90088 0.50181 0.3992 0.0
H296 H 0.89012 0.46425 0.41914 0.0
H297 H 0.88454 0.44673 0.3926 0.0
H298 H 0.87232 0.35914 0.4557 0.0
C299 C 0.91572 0.42484 0.44672 0.0
C300 C 0.60379 0.96772 0.80486 0.0
C301 C 0.60636 0.93488 0.79372 0.0
C302 C 0.5892 0.92524 0.7735 0.0
C303 C 0.57196 0.98263 0.77534 0.0
C304 C 0.58539 0.99013 0.7956 0.0
C305 C 0.57566 0.02236 0.80587 0.0
H306 H 0.51227 0.1713 0.79593 0.0
C307 C 0.55601 0.01219 0.76997 0.0
C308 C 0.55678 0.03471 0.78794 0.0
H309 H 0.54799 0.13256 0.85208 0.0
H310 H 0.55626 0.078 0.83305 0.0
H311 H 0.58347 0.17523 0.76976 0.0
H312 H 0.45129 0.07298 0.77655 0.0
H313 H 0.46413 0.07875 0.75 0.0
H314 H 0.46752 0.12398 0.76419 0.0
H315 H 0.5407 0.17516 0.7554 0.0
H316 H 0.56984 0.14934 0.7457 0.0
C317 C 0.6188 0.06127 0.81339 0.0
C318 C 0.54175 0.99878 0.8233 0.0
C319 C 0.53619 0.03585 0.69449 0.0
C320 C 0.52873 0.06647 0.68458 0.0
C321 C 0.51951 0.09401 0.69651 0.0
C322 C 0.51881 0.09188 0.71809 0.0
C323 C 0.52813 0.06236 0.72786 0.0
C324 C 0.53627 0.03471 0.7161 0.0
C325 C 0.54702 1.00659 0.72917 0.0
C326 C 0.54522 0.02295 0.75068 0.0
C327 C 0.53388 0.05531 0.74976 0.0
C328 C 0.59332 0.01661 0.72321 0.0
C329 C 0.51143 0.95846 0.72604 0.0
C330 C 0.5211 0.15045 0.80417 0.0
C331 C 0.52948 0.1558 0.8254 0.0
C332 C 0.54112 0.1285 0.8357 0.0
C333 C 0.54611 0.0972 0.82462 0.0
C334 C 0.53925 0.09346 0.80312 0.0
C335 C 0.52623 0.11942 0.79338 0.0
C336 C 0.52155 0.1123 0.77049 0.0
C337 C 0.5326 0.07668 0.76803 0.0
C338 C 0.54351 0.06613 0.78709 0.0
C339 C 0.55528 0.15508 0.75964 0.0
C340 C 0.47375 0.09641 0.76482 0.0
H341 H 0.5604 0.94037 0.74888 0.0
H342 H 0.6156 0.97612 0.82048 0.0
H343 H 0.5216 0.96337 0.8202 0.0
H344 H 0.5181 0.01017 0.82463 0.0
H345 H 0.55769 1.00263 0.83844 0.0
H346 H 0.64398 0.07216 0.80103 0.0
H347 H 0.6311 0.0522 0.82709 0.0
H348 H 0.61589 0.08982 0.81743 0.0
H349 H 0.54356 0.01448 0.68561 0.0
H350 H 0.51321 0.11751 0.68911 0.0
H351 H 0.5119 0.11393 0.72631 0.0
H352 H 0.61614 0.05227 0.72305 0.0
H353 H 0.59371 1.00386 0.70757 0.0
H354 H 0.60695 1.0029 0.73403 0.0
H355 H 0.48107 0.95543 0.71976 0.0
H356 H 0.50143 0.94023 0.7408 0.0
H357 H 0.52238 0.94174 0.71511 0.0
H358 H 0.58767 0.89867 0.7647 0.0
C359 C 0.57254 0.94913 0.76427 0.0
C360 C 0.66319 0.55328 0.15401 0.0
C361 C 0.705 0.56432 0.14693 0.0
C362 C 0.71126 0.55962 0.12574 0.0
C363 C 0.63577 0.53443 0.11904 0.0
C364 C 0.62908 0.53828 0.1398 0.0
C365 C 0.58231 0.52415 0.14448 0.0
H366 H 0.37838 0.44877 0.10861 0.0
C367 C 0.59412 0.51764 0.10833 0.0
C368 C 0.56236 0.51102 0.12311 0.0
H369 H 0.42371 0.48519 0.17127 0.0
H370 H 0.49526 0.50081 0.16078 0.0
H371 H 0.45487 0.52856 0.08895 0.0
H372 H 0.43238 0.39922 0.09738 0.0
H373 H 0.45317 0.41581 0.07223 0.0
H374 H 0.40264 0.41255 0.07948 0.0
H375 H 0.42004 0.48487 0.07217 0.0
H376 H 0.47749 0.51789 0.06719 0.0
C377 C 0.5804 0.56384 0.15302 0.0
C378 C 0.56413 0.48498 0.15942 0.0
C379 C 0.59107 0.5096 0.03024 0.0
C380 C 0.55832 0.5003 0.01581 0.0
C381 C 0.5151 0.48225 0.02277 0.0
C382 C 0.50519 0.47641 0.04392 0.0
C383 C 0.53889 0.48915 0.05824 0.0
C384 C 0.58077 0.50425 0.05128 0.0
C385 C 0.61263 0.51726 0.06863 0.0
C386 C 0.58317 0.50905 0.08716 0.0
C387 C 0.54014 0.49266 0.08099 0.0
C388 C 0.64657 0.56616 0.06604 0.0
C389 C 0.63186 0.48665 0.06837 0.0
C390 C 0.40362 0.46018 0.12012 0.0
C391 C 0.39517 0.46577 0.14079 0.0
C392 C 0.42905 0.48006 0.15527 0.0
C393 C 0.47075 0.48954 0.14912 0.0
C394 C 0.47886 0.48504 0.12825 0.0
C395 C 0.44543 0.47033 0.1142 0.0
C396 C 0.46011 0.4695 0.09251 0.0
C397 C 0.50782 0.48561 0.09584 0.0
C398 C 0.51876 0.49468 0.11679 0.0
C399 C 0.45263 0.50151 0.07936 0.0
C400 C 0.43576 0.42192 0.0848 0.0
H401 H 0.6842 0.54201 0.096 0.0
H402 H 0.65714 0.55614 0.1702 0.0
H403 H 0.57673 0.46296 0.15526 0.0
H404 H 0.52851 0.4645 0.15879 0.0
H405 H 0.5738 0.49587 0.17559 0.0
H406 H 0.60452 0.59414 0.14502 0.0
H407 H 0.58773 0.56823 0.16978 0.0
H408 H 0.54884 0.56172 0.15042 0.0
H409 H 0.62449 0.52284 0.02532 0.0
H410 H 0.48927 0.47493 0.01198 0.0
H411 H 0.47192 0.46388 0.04832 0.0
H412 H 0.6308 0.58453 0.06068 0.0
H413 H 0.6718 0.57102 0.05447 0.0
H414 H 0.66268 0.58209 0.08058 0.0
H415 H 0.60898 0.45463 0.06139 0.0
H416 H 0.63779 0.4787 0.08408 0.0
H417 H 0.6625 0.50081 0.05926 0.0
H418 H 0.74255 0.5663 0.11986 0.0
C419 C 0.67706 0.54486 0.11184 0.0
H420 H 0.18381 0.4874 0.12982 0.0
H421 H 0.15084 0.43925 0.19258 0.0
H422 H 0.21208 0.42534 0.19291 0.0
H423 H 0.22454 0.41508 0.11199 0.0
H424 H 0.26828 0.45765 0.09729 0.0
H425 H 0.21817 0.45785 0.10084 0.0
H426 H 0.2607 0.53549 0.11611 0.0
H427 H 0.31082 0.53543 0.1127 0.0
H428 H 0.29579 0.54566 0.13786 0.0
H429 H 0.27952 0.42161 0.18747 0.0
H430 H 0.35006 0.43011 0.17687 0.0
H431 H 0.34223 0.48592 0.11865 0.0
C432 C 0.18891 0.47279 0.14336 0.0
C433 C 0.1625 0.46371 0.16106 0.0
C434 C 0.17073 0.44603 0.17882 0.0
C435 C 0.20529 0.43794 0.17914 0.0
C436 C 0.23153 0.44817 0.16163 0.0
C437 C 0.22391 0.46532 0.14408 0.0
C438 C 0.25955 0.47745 0.12817 0.0
C439 C 0.24155 0.45038 0.1084 0.0
C440 C 0.2831 0.5264 0.12345 0.0
C441 C 0.28856 0.46501 0.13966 0.0
C442 C 0.27153 0.44765 0.15881 0.0
C443 C 0.29315 0.43498 0.17246 0.0
C444 C 0.33339 0.44031 0.16638 0.0
C445 C 0.35179 0.45861 0.14692 0.0
C446 C 0.32878 0.47094 0.13345 0.0
H447 H 0.69095 0.21679 0.52651 0.0
H448 H 0.73157 0.12818 0.50376 0.0
H449 H 0.80766 0.18836 0.50256 0.0
H450 H 0.74892 0.29446 0.49223 0.0
H451 H 0.7626 0.34052 0.50864 0.0
H452 H 0.71488 0.28945 0.51403 0.0
H453 H 0.74249 0.29047 0.55104 0.0
H454 H 0.79062 0.34181 0.54568 0.0
H455 H 0.79534 0.29648 0.55461 0.0
H456 H 0.87505 0.25863 0.49708 0.0
H457 H 0.92548 0.33252 0.48422 0.0
H458 H 0.84104 0.37703 0.5083 0.0
C459 C 0.71627 0.20978 0.52227 0.0
C460 C 0.70583 0.16781 0.51573 0.0
C461 C 0.73924 0.16003 0.50921 0.0
C462 C 0.78251 0.19401 0.50858 0.0
C463 C 0.79168 0.23561 0.51433 0.0
C464 C 0.75937 0.24363 0.521 0.0
C465 C 0.77582 0.29197 0.52225 0.0
C466 C 0.74899 0.30481 0.50846 0.0
C467 C 0.77609 0.306 0.54474 0.0
C468 C 0.8216 0.30993 0.51403 0.0
C469 C 0.83064 0.27693 0.51033 0.0
C470 C 0.86885 0.28482 0.50046 0.0
C471 C 0.89746 0.3269 0.49331 0.0
C472 C 0.88752 0.36041 0.49587 0.0
C473 C 0.85004 0.35223 0.50702 0.0
H474 H 0.6573 0.74427 0.79251 0.0
H475 H 0.6535 0.74577 0.85939 0.0
H476 H 0.65602 0.8162 0.85857 0.0
H477 H 0.73027 0.86892 0.7869 0.0
H478 H 0.70207 0.86808 0.76378 0.0
H479 H 0.70944 0.82281 0.76981 0.0
H480 H 0.62648 0.77111 0.76713 0.0
H481 H 0.61862 0.81603 0.76158 0.0
H482 H 0.5905 0.78082 0.78311 0.0
H483 H 0.6372 0.87271 0.85021 0.0
H484 H 0.61211 0.91911 0.83531 0.0
H485 H 0.64194 0.89072 0.77383 0.0
C486 C 0.65905 0.76055 0.80693 0.0
C487 C 0.65527 0.73995 0.82598 0.0
C488 C 0.65686 0.76145 0.84464 0.0
C489 C 0.6582 0.8014 0.84433 0.0
C490 C 0.65959 0.81999 0.82525 0.0
C491 C 0.66181 0.80115 0.80688 0.0
C492 C 0.6597 0.82608 0.78848 0.0
C493 C 0.70295 0.84777 0.77654 0.0
C494 C 0.62156 0.79675 0.77426 0.0
C495 C 0.65224 0.85948 0.79937 0.0
C496 C 0.65241 0.85554 0.82055 0.0
C497 C 0.63905 0.87772 0.83367 0.0
C498 C 0.62491 0.90437 0.82493 0.0
C499 C 0.62495 0.90948 0.80317 0.0
C500 C 0.64045 0.88761 0.79045 0.0
H501 H 0.94561 0.63155 0.16006 0.0
H502 H 0.90472 0.54531 0.21287 0.0
H503 H 0.83671 0.54747 0.21497 0.0
H504 H 0.88569 0.69338 0.17626 0.0
H505 H 0.87317 0.69617 0.1496 0.0
H506 H 0.92348 0.69877 0.15621 0.0
H507 H 0.90463 0.63418 0.13166 0.0
H508 H 0.85436 0.63099 0.12518 0.0
H509 H 0.8543 0.58391 0.13535 0.0
H510 H 0.76692 0.54174 0.20521 0.0
H511 H 0.70366 0.53166 0.18549 0.0
H512 H 0.78992 0.62568 0.14035 0.0
C513 C 0.92322 0.61493 0.17267 0.0
C514 C 0.93021 0.58834 0.18629 0.0
C515 C 0.89996 0.56611 0.20234 0.0
C516 C 0.86128 0.56727 0.20369 0.0
C517 C 0.85389 0.59159 0.18915 0.0
C518 C 0.88457 0.61596 0.17423 0.0
C519 C 0.86635 0.63386 0.15855 0.0
C520 C 0.88849 0.6835 0.16027 0.0
C521 C 0.87011 0.61985 0.13641 0.0
C522 C 0.81965 0.61241 0.16582 0.0
C523 C 0.81326 0.5891 0.18381 0.0
C524 C 0.7717 0.56114 0.19156 0.0
C525 C 0.73584 0.55563 0.18026 0.0
C526 C 0.74183 0.5778 0.16133 0.0
C527 C 0.78432 0.60819 0.15474 0.0
H528 H 0.35807 0.92451 0.45727 0.0
H529 H 0.32384 0.97436 0.511 0.0
H530 H 0.25099 0.90876 0.51165 0.0
H531 H 0.24898 0.86912 0.43318 0.0
H532 H 0.25497 0.82418 0.42462 0.0
H533 H 0.30201 0.87754 0.42684 0.0
H534 H 0.33756 0.84644 0.4509 0.0
H535 H 0.29046 0.79319 0.44902 0.0
H536 H 0.3093 0.81772 0.474 0.0
H537 H 0.18471 0.83424 0.50859 0.0
H538 H 0.12837 0.75873 0.50061 0.0
H539 H 0.20708 0.75716 0.44947 0.0
C540 C 0.33474 0.92222 0.46875 0.0
C541 C 0.3463 0.95466 0.48395 0.0
C542 C 0.31537 0.95004 0.49909 0.0
C543 C 0.27399 0.91284 0.49961 0.0
C544 C 0.26409 0.88063 0.48487 0.0
C545 C 0.29341 0.88518 0.46957 0.0
C546 C 0.27587 0.84466 0.45641 0.0
C547 C 0.27011 0.85447 0.43393 0.0
C548 C 0.30504 0.82432 0.45767 0.0
C549 C 0.2325 0.81633 0.46691 0.0
C550 C 0.22618 0.83767 0.48324 0.0
C551 C 0.18914 0.81737 0.4957 0.0
C552 C 0.1575 0.77434 0.49118 0.0
C553 C 0.16314 0.75202 0.47437 0.0
C554 C 0.20136 0.7735 0.4622 0.0
H555 H 0.57569 0.39363 0.81956 0.0
H556 H 0.47474 0.36242 0.86527 0.0
H557 H 0.46917 0.29065 0.87102 0.0
H558 H 0.53263 0.29289 0.79663 0.0
H559 H 0.58424 0.29603 0.79264 0.0
H560 H 0.58136 0.34491 0.79382 0.0
H561 H 0.63787 0.37351 0.82334 0.0
H562 H 0.64052 0.32431 0.82238 0.0
H563 H 0.62755 0.34131 0.84634 0.0
H564 H 0.47038 0.21883 0.8683 0.0
H565 H 0.47784 0.15584 0.85725 0.0
H566 H 0.58139 0.2392 0.81528 0.0
C567 C 0.55247 0.3718 0.83086 0.0
C568 C 0.5252 0.38296 0.84179 0.0
C569 C 0.4957 0.35401 0.85668 0.0
C570 C 0.49255 0.31347 0.86009 0.0
C571 C 0.52 0.30334 0.84885 0.0
C572 C 0.54968 0.33214 0.83471 0.0
C573 C 0.57455 0.3138 0.82391 0.0
C574 C 0.56774 0.31177 0.80037 0.0
C575 C 0.62299 0.33978 0.82933 0.0
C576 C 0.55301 0.26921 0.83343 0.0
C577 C 0.52191 0.26356 0.84797 0.0
C578 C 0.49528 0.22326 0.85728 0.0
C579 C 0.49978 0.18778 0.85104 0.0
C580 C 0.53046 0.19322 0.83564 0.0
C581 C 0.55819 0.23463 0.82733 0.0
H582 H 0.58311 0.95905 0.51956 0.0
H583 H 0.47219 0.90913 0.47882 0.0
H584 H 0.46805 0.83812 0.47814 0.0
H585 H 0.63152 0.8982 0.49678 0.0
H586 H 0.64806 0.88769 0.52129 0.0
H587 H 0.64426 0.93587 0.51784 0.0
H588 H 0.59189 0.91421 0.54917 0.0
H589 H 0.59575 0.86615 0.55277 0.0
H590 H 0.54341 0.86156 0.54961 0.0
H591 H 0.47405 0.76988 0.48255 0.0
H592 H 0.48707 0.71097 0.49387 0.0
H593 H 0.5939 0.80365 0.5315 0.0
C594 C 0.55821 0.93335 0.51034 0.0
C595 C 0.52808 0.94047 0.4992 0.0
C596 C 0.49577 0.90523 0.48758 0.0
C597 C 0.49316 0.86444 0.48699 0.0
C598 C 0.52301 0.85841 0.49815 0.0
C599 C 0.55486 0.89186 0.5097 0.0
C600 C 0.58162 0.87595 0.52102 0.0
C601 C 0.62919 0.90092 0.5138 0.0
C602 C 0.57794 0.87969 0.54454 0.0
C603 C 0.5596 0.82851 0.51422 0.0
C604 C 0.5261 0.8191 0.50085 0.0
C605 C 0.50043 0.77709 0.49296 0.0
C606 C 0.5083 0.7437 0.49933 0.0
C607 C 0.54144 0.75198 0.51365 0.0
C608 C 0.56799 0.7956 0.52066 0.0
H609 H 0.73851 0.61444 0.85126 0.0
H610 H 0.67492 0.50833 0.80774 0.0
H611 H 0.74063 0.5019 0.80584 0.0
H612 H 0.84922 0.66221 0.82976 0.0
H613 H 0.87485 0.67408 0.85468 0.0
H614 H 0.8242 0.67318 0.85149 0.0
H615 H 0.78986 0.61655 0.88084 0.0
H616 H 0.84036 0.61728 0.88411 0.0
H617 H 0.79127 0.56672 0.8792 0.0
H618 H 0.81364 0.50598 0.80871 0.0
H619 H 0.88505 0.51615 0.81838 0.0
H620 H 0.90187 0.61653 0.86175 0.0
C621 C 0.73876 0.5904 0.84107 0.0
C622 C 0.70132 0.56229 0.82937 0.0
C623 C 0.70292 0.53047 0.81674 0.0
C624 C 0.74032 0.52658 0.81552 0.0
C625 C 0.7764 0.5543 0.8273 0.0
C626 C 0.77588 0.58536 0.84002 0.0
C627 C 0.81823 0.60891 0.85209 0.0
C628 C 0.8431 0.65748 0.84668 0.0
C629 C 0.80939 0.60194 0.87544 0.0
C630 C 0.84238 0.58626 0.84419 0.0
C631 C 0.8178 0.55527 0.82967 0.0
C632 C 0.8331 0.53024 0.82007 0.0
C633 C 0.87409 0.53648 0.82558 0.0
C634 C 0.8998 0.56719 0.84084 0.0
C635 C 0.88335 0.59254 0.85011 0.0
H636 H 0.19999 0.63579 0.18636 0.0
H637 H 0.12558 0.68037 0.15222 0.0
H638 H 0.1904 0.75345 0.14947 0.0
H639 H 0.25969 0.73506 0.21617 0.0
H640 H 0.30925 0.73312 0.21651 0.0
H641 H 0.25781 0.68357 0.21473 0.0
H642 H 0.28398 0.66314 0.18139 0.0
H643 H 0.3354 0.71282 0.18298 0.0
H644 H 0.30334 0.70042 0.15992 0.0
H645 H 0.26504 0.82229 0.14932 0.0
H646 H 0.33919 0.88298 0.15621 0.0
H647 H 0.36455 0.79716 0.19326 0.0
C648 C 0.19741 0.66093 0.17826 0.0
C649 C 0.15733 0.65188 0.16937 0.0
C650 C 0.15552 0.68614 0.1592 0.0
C651 C 0.19242 0.72788 0.15745 0.0
C652 C 0.23132 0.73574 0.16628 0.0
C653 C 0.23387 0.70343 0.17686 0.0
C654 C 0.27896 0.72142 0.18609 0.0
C655 C 0.27625 0.71809 0.20978 0.0
C656 C 0.30176 0.69805 0.17705 0.0
C657 C 0.30129 0.76869 0.17902 0.0
C658 C 0.27344 0.77601 0.16725 0.0
C659 C 0.28693 0.81683 0.15862 0.0
C660 C 0.32938 0.85118 0.16247 0.0
C661 C 0.35812 0.84521 0.1752 0.0
C662 C 0.3436 0.80302 0.18343 0.0
H663 H 0.47741 0.17317 0.51542 0.0
H664 H 0.57797 0.21004 0.46896 0.0
H665 H 0.58563 0.28296 0.46663 0.0
H666 H 0.42899 0.23598 0.49533 0.0
H667 H 0.42048 0.25193 0.5206 0.0
H668 H 0.41989 0.20135 0.51728 0.0
H669 H 0.47965 0.22484 0.54487 0.0
H670 H 0.48044 0.27546 0.54825 0.0
H671 H 0.52976 0.27552 0.54178 0.0
H672 H 0.58327 0.35346 0.46971 0.0
H673 H 0.57577 0.41633 0.48001 0.0
H674 H 0.48005 0.33662 0.52618 0.0
C675 C 0.50035 0.19635 0.50445 0.0
C676 C 0.52641 0.18533 0.49195 0.0
C677 C 0.55717 0.2173 0.4784 0.0
C678 C 0.56175 0.25894 0.47699 0.0
C679 C 0.53591 0.269 0.48954 0.0
C680 C 0.50605 0.23872 0.50318 0.0
C681 C 0.48466 0.25905 0.516 0.0
C682 C 0.43559 0.23568 0.51206 0.0
C683 C 0.4942 0.25869 0.53909 0.0
C684 C 0.50711 0.30531 0.5075 0.0
C685 C 0.53612 0.31014 0.49203 0.0
C686 C 0.56058 0.34984 0.48181 0.0
C687 C 0.55586 0.38552 0.48769 0.0
C688 C 0.5273 0.38207 0.50393 0.0
C689 C 0.50242 0.3409 0.51378 0.0
H690 H 0.46982 0.61411 0.84509 0.0
H691 H 0.41556 0.48305 0.82165 0.0
H692 H 0.34261 0.47545 0.82133 0.0
H693 H 0.38083 0.58865 0.87989 0.0
H694 H 0.38314 0.64002 0.87668 0.0
H695 H 0.43144 0.63646 0.87321 0.0
H696 H 0.44173 0.66941 0.83662 0.0
H697 H 0.39314 0.67262 0.83993 0.0
H698 H 0.39844 0.64385 0.81817 0.0
H699 H 0.27385 0.48209 0.8237 0.0
H700 H 0.21588 0.49823 0.83339 0.0
H701 H 0.31299 0.62245 0.85792 0.0
C702 C 0.44264 0.584 0.83966 0.0
C703 C 0.44886 0.54931 0.83312 0.0
C704 C 0.41199 0.51015 0.82666 0.0
C705 C 0.37028 0.50562 0.82632 0.0
C706 C 0.36517 0.54026 0.83286 0.0
C707 C 0.40033 0.57848 0.83977 0.0
C708 C 0.38541 0.60932 0.84767 0.0
C709 C 0.39582 0.61918 0.87073 0.0
C710 C 0.40591 0.65129 0.83483 0.0
C711 C 0.33656 0.58261 0.84417 0.0
C712 C 0.32559 0.54317 0.83522 0.0
C713 C 0.2823 0.51297 0.83069 0.0
C714 C 0.24943 0.52258 0.83603 0.0
C715 C 0.2595 0.56184 0.84616 0.0
C716 C 0.30401 0.5924 0.8499 0.0
H717 H 0.9252 0.37954 0.19257 0.0
H718 H 0.91433 0.40147 0.1278 0.0
H719 H 0.84315 0.33293 0.12652 0.0
H720 H 0.87579 0.26064 0.18881 0.0
H721 H 0.84929 0.25153 0.21362 0.0
H722 H 0.89962 0.30106 0.20883 0.0
H723 H 0.86331 0.34571 0.21922 0.0
H724 H 0.81283 0.29638 0.22393 0.0
H725 H 0.81482 0.33618 0.20617 0.0
H726 H 0.76788 0.26241 0.13381 0.0
H727 H 0.70141 0.1994 0.14828 0.0
H728 H 0.76626 0.22098 0.20722 0.0
C729 C 0.90817 0.36943 0.17802 0.0
C730 C 0.92569 0.39567 0.16019 0.0
C731 C 0.90195 0.38165 0.14156 0.0
C732 C 0.86131 0.34275 0.14075 0.0
C733 C 0.84468 0.31761 0.15866 0.0
C734 C 0.86792 0.33033 0.17688 0.0
C735 C 0.84314 0.29818 0.19408 0.0
C736 C 0.86847 0.27657 0.20178 0.0
C737 C 0.83293 0.32045 0.2119 0.0
C738 C 0.80203 0.26573 0.18292 0.0
C739 C 0.80309 0.27733 0.16253 0.0
C740 C 0.76724 0.25302 0.14974 0.0
C741 C 0.72944 0.21682 0.15808 0.0
C742 C 0.72733 0.20467 0.17911 0.0
C743 C 0.76527 0.22925 0.19126 0.0
H744 H 0.97573 0.50212 0.09531 0.0
H745 H 0.10922 0.55496 0.11454 0.0
H746 H 0.13322 0.56871 0.0781 0.0
H747 H 0.98554 0.44913 0.048 0.0
H748 H 0.94964 0.46094 0.03359 0.0
H749 H 0.94281 0.45301 0.06113 0.0
H750 H 0.94843 0.52809 0.06502 0.0
H751 H 0.95585 0.53651 0.03755 0.0
H752 H 0.99548 0.57571 0.05494 0.0
H753 H 0.14344 0.58395 0.04016 0.0
H754 H 0.13898 0.59247 0.00279 0.0
H755 H 0.99821 0.52404 0.00749 0.0
C756 C 1.00991 0.51595 0.09178 0.0
C757 C 0.04067 0.52767 0.10772 0.0
C758 C 0.08512 0.54573 0.10256 0.0
C759 C 0.09908 0.55377 0.08192 0.0
C760 C 0.06811 0.54294 0.06659 0.0
C761 C 0.02438 0.52369 0.0712 0.0
C762 C 0.99795 0.51563 0.05176 0.0
C763 C 0.96717 0.46677 0.04842 0.0
C764 C 0.97296 0.54048 0.05236 0.0
C765 C 0.03376 0.53428 0.03558 0.0
C766 C 0.07395 0.55 0.0445 0.0
C767 C 0.11208 0.57082 0.03291 0.0
C768 C 0.1091 0.57521 0.01157 0.0
C769 C 0.0682 0.5583 0.00184 0.0
C770 C 0.0301 0.53762 0.01421 0.0
H771 H 0.48326 0.04493 0.43171 0.0
H772 H 0.61956 0.08794 0.44018 0.0
H773 H 0.62585 0.07203 0.40372 0.0
H774 H 0.46066 0.95774 0.39393 0.0
H775 H 0.42535 0.96883 0.37859 0.0
H776 H 0.4298 0.97947 0.40597 0.0
H777 H 0.45074 0.0592 0.3989 0.0
H778 H 0.44638 0.04882 0.37154 0.0
H779 H 0.49606 0.09208 0.38206 0.0
H780 H 0.61978 0.05664 0.36668 0.0
H781 H 0.60189 0.04392 0.32975 0.0
H782 H 0.46969 0.01176 0.3436 0.0
C783 C 0.51411 0.05032 0.42582 0.0
C784 C 0.55098 0.06764 0.43862 0.0
C785 C 0.59107 0.07491 0.43051 0.0
C786 C 0.59491 0.06575 0.40988 0.0
C787 C 0.55837 0.04942 0.39749 0.0
C788 C 0.5187 0.04177 0.40501 0.0
C789 C 0.48557 0.02681 0.38777 0.0
C790 C 0.44812 0.98045 0.39181 0.0
C791 C 0.46871 0.05863 0.3849 0.0
C792 C 0.5132 0.02815 0.36946 0.0
C793 C 0.55493 0.04087 0.3756 0.0
C794 C 0.58718 0.04641 0.36163 0.0
C795 C 0.57678 0.03936 0.34069 0.0
C796 C 0.53454 0.02708 0.33385 0.0
C797 C 0.50211 0.0207 0.34848 0.0
H798 H 0.50191 0.49891 0.76253 0.0
H799 H 0.61881 0.61963 0.7772 0.0
H800 H 0.62997 0.63879 0.74004 0.0
H801 H 0.54363 0.47573 0.71779 0.0
H802 H 0.4935 0.45231 0.70369 0.0
H803 H 0.49248 0.45017 0.73147 0.0
H804 H 0.44657 0.48806 0.7327 0.0
H805 H 0.44716 0.49004 0.70489 0.0
H806 H 0.46604 0.53923 0.71964 0.0
H807 H 0.62947 0.64312 0.70105 0.0
H808 H 0.61864 0.63162 0.66337 0.0
H809 H 0.50377 0.50643 0.6744 0.0
C810 C 0.5295 0.5297 0.75796 0.0
C811 C 0.55937 0.55804 0.7727 0.0
C812 C 0.59544 0.59767 0.76612 0.0
C813 C 0.60201 0.60876 0.74507 0.0
C814 C 0.57233 0.57969 0.73087 0.0
C815 C 0.53682 0.54094 0.73706 0.0
C816 C 0.5111 0.51418 0.71871 0.0
C817 C 0.51015 0.47053 0.71787 0.0
C818 C 0.46499 0.5075 0.71901 0.0
C819 C 0.53789 0.54368 0.70117 0.0
C820 C 0.57279 0.58153 0.7085 0.0
C821 C 0.60217 0.61368 0.69516 0.0
C822 C 0.59572 0.60692 0.67381 0.0
C823 C 0.56044 0.56812 0.666 0.0
C824 C 0.53124 0.53621 0.67993 0.0
H825 H 0.47773 0.99107 0.56696 0.0
H826 H 0.56437 0.12565 0.55008 0.0
H827 H 0.58149 0.14457 0.58678 0.0
H828 H 0.43398 0.01128 0.61173 0.0
H829 H 0.43146 0.9675 0.6267 0.0
H830 H 0.42819 0.96357 0.59899 0.0
H831 H 0.4934 0.9504 0.59783 0.0
H832 H 0.4967 0.95399 0.62559 0.0
H833 H 0.54356 0.98879 0.61 0.0
H834 H 0.58435 0.15023 0.62508 0.0
H835 H 0.57675 0.14124 0.66298 0.0
H836 H 0.49005 1.00284 0.6553 0.0
C837 C 0.50072 0.02436 0.57103 0.0
C838 C 0.51981 0.05692 0.55578 0.0
C839 C 0.54963 0.10019 0.56157 0.0
C840 C 0.55948 0.11128 0.58236 0.0
C841 C 0.53955 0.07862 0.5971 0.0
C842 C 0.5112 0.03595 0.59174 0.0
C843 C 0.49349 1.00741 0.61072 0.0
C844 C 0.44384 0.9862 0.61211 0.0
C845 C 0.50765 0.97312 0.61105 0.0
C846 C 0.51556 0.04091 0.62754 0.0
C847 C 0.54196 0.08177 0.61932 0.0
C848 C 0.56417 0.11835 0.63173 0.0
C849 C 0.55943 0.11301 0.65318 0.0
C850 C 0.53289 0.0714 0.66192 0.0
C851 C 0.5109 0.03491 0.64893 0.0
H852 H 0.52206 0.49776 0.89387 0.0
H853 H 0.63039 0.62974 0.89345 0.0
H854 H 0.64289 0.62371 0.93043 0.0
H855 H 0.48124 0.50507 0.94325 0.0
H856 H 0.4645 0.45024 0.95093 0.0
H857 H 0.46622 0.46334 0.92398 0.0
H858 H 0.51712 0.43244 0.9166 0.0
H859 H 0.51565 0.41934 0.94356 0.0
H860 H 0.56695 0.45307 0.93078 0.0
H861 H 0.64223 0.60522 0.96698 0.0
H862 H 0.62566 0.57713 0.00248 0.0
H863 H 0.51634 0.45702 0.98027 0.0
C864 C 0.5485 0.52506 0.90167 0.0
C865 C 0.5754 0.56419 0.89111 0.0
C866 C 0.6095 0.59964 0.90154 0.0
C867 C 0.61697 0.59642 0.92242 0.0
C868 C 0.58981 0.55757 0.93256 0.0
C869 C 0.55603 0.52258 0.92268 0.0
C870 C 0.53003 0.48577 0.93769 0.0
C871 C 0.4827 0.47552 0.93904 0.0
C872 C 0.53261 0.44526 0.9318 0.0
C873 C 0.55419 0.5059 0.95754 0.0
C874 C 0.58891 0.54706 0.95407 0.0
C875 C 0.61545 0.57285 0.96993 0.0
C876 C 0.60592 0.55644 0.99003 0.0
C877 C 0.57001 0.51467 0.99412 0.0
C878 C 0.54406 0.48898 0.97759 0.0
H879 H 0.02974 0.5562 0.22605 0.0
H880 H 0.98782 0.41883 0.22516 0.0
H881 H 0.96601 0.4128 0.26173 0.0
H882 H 0.07682 0.57856 0.27406 0.0
H883 H 0.0598 0.61621 0.28221 0.0
H884 H 0.0662 0.60906 0.25516 0.0
H885 H 0.98692 0.58977 0.24847 0.0
H886 H 0.98039 0.59744 0.27554 0.0
H887 H 0.94344 0.54687 0.26314 0.0
H888 H 0.96032 0.42359 0.29883 0.0
H889 H 0.9656 0.44898 0.33438 0.0
H890 H 1.00593 0.57888 0.31188 0.0
C891 C 0.01494 0.52472 0.23348 0.0
C892 C 1.01054 0.48799 0.22292 0.0
C893 C 0.99158 0.44737 0.23307 0.0
C894 C 0.97894 0.44358 0.2538 0.0
C895 C 0.985 0.48062 0.26404 0.0
C896 C 1.00193 0.52032 0.25422 0.0
C897 C 1.00773 0.5555 0.2693 0.0
C898 C 0.05547 0.59196 0.27023 0.0
C899 C 0.97783 0.57345 0.26378 0.0
C900 C 0.9934 0.52969 0.28924 0.0
C901 C 0.98007 0.48652 0.28573 0.0
C902 C 0.96925 0.45698 0.30177 0.0
C903 C 0.97209 0.47184 0.32201 0.0
C904 C 0.9852 0.5159 0.32618 0.0
C905 C 0.99558 0.54499 0.30941 0.0
loop_
_geom_bond_atom_site_label_1
_geom_bond_atom_site_label_2
_geom_bond_distance
_geom_bond_site_symmetry_2
_ccdc_geom_bond_type
Dy0 O4 2.398 . S
Dy0 O5 2.491 . S
Dy0 O6 2.403 . S
Dy0 O7 2.664 . S
Dy0 O11 2.326 . S
Dy0 O15 2.310 . S
Dy0 O16 2.351 1_455 S
C1 O12 1.185 . S
C1 O13 1.355 . S
C2 O4 1.185 . S
C2 O5 1.355 . S
Dy3 O7 2.307 1_655 S
Dy3 O10 2.347 1_655 S
Dy3 O12 2.403 . S
Dy3 O13 2.496 . S
Dy3 O14 2.402 1_655 S
Dy3 O15 2.659 1_655 S
Dy3 O17 2.327 . S
O4 Dy0 2.398 . S
O4 C2 1.185 . S
O5 Dy0 2.491 . S
O5 C2 1.355 . S
O6 Dy0 2.403 . S
O6 C8 1.254 . S
O7 Dy0 2.664 . S
O7 Dy3 2.307 1_455 S
O7 C8 1.268 . S
C8 O6 1.254 . S
C8 O7 1.268 . S
C9 O14 1.254 . S
C9 O15 1.268 . S
O10 Dy3 2.347 1_455 S
O10 C18 1.249 . S
O11 Dy0 2.326 . S
O11 C18 1.267 . S
O12 C1 1.185 . S
O12 Dy3 2.403 . S
O13 C1 1.355 . S
O13 Dy3 2.496 . S
O14 Dy3 2.402 1_455 S
O14 C9 1.254 . S
O15 Dy0 2.310 . S
O15 Dy3 2.659 1_455 S
O15 C9 1.268 . S
O16 Dy0 2.351 1_655 S
O16 C19 1.249 . S
O17 Dy3 2.327 . S
O17 C19 1.267 . S
C18 O10 1.249 . S
C18 O11 1.267 . S
C19 O16 1.249 . S
C19 O17 1.267 . S
Dy20 O24 2.398 1_545 S
Dy20 O25 2.491 1_545 S
Dy20 O26 2.403 . S
Dy20 O27 2.664 . S
Dy20 O31 2.326 1_545 S
Dy20 O35 2.310 . S
Dy20 O36 2.351 . S
C21 O32 1.185 . S
C21 O33 1.355 . S
C22 O24 1.185 . S
C22 O25 1.355 . S
Dy23 O27 2.310 . S
Dy23 O30 2.351 1_545 S
Dy23 O32 2.398 . S
Dy23 O33 2.491 . S
Dy23 O34 2.403 . S
Dy23 O35 2.664 . S
Dy23 O37 2.326 . S
O24 Dy20 2.398 1_565 S
O24 C22 1.185 . S
O25 Dy20 2.491 1_565 S
O25 C22 1.355 . S
O26 Dy20 2.403 . S
O26 C28 1.254 . S
O27 Dy20 2.664 . S
O27 Dy23 2.310 . S
O27 C28 1.268 . S
C28 O26 1.254 . S
C28 O27 1.268 . S
C29 O34 1.254 . S
C29 O35 1.268 . S
O30 Dy23 2.351 1_565 S
O30 C38 1.249 . S
O31 Dy20 2.326 1_565 S
O31 C38 1.267 . S
O32 C21 1.185 . S
O32 Dy23 2.398 . S
O33 C21 1.355 . S
O33 Dy23 2.491 . S
O34 Dy23 2.403 . S
O34 C29 1.254 . S
O35 Dy20 2.310 . S
O35 Dy23 2.664 . S
O35 C29 1.268 . S
O36 Dy20 2.351 . S
O36 C39 1.249 . S
O37 Dy23 2.326 . S
O37 C39 1.267 . S
C38 O30 1.249 . S
C38 O31 1.267 . S
C39 O36 1.249 . S
C39 O37 1.267 . S
Dy40 O44 2.398 . S
Dy40 O45 2.491 . S
Dy40 O46 2.403 . S
Dy40 O47 2.664 . S
Dy40 O51 2.326 . S
Dy40 O55 2.310 . S
Dy40 O56 2.351 . S
C41 O52 1.185 . S
C41 O53 1.355 . S
C42 O44 1.185 . S
C42 O45 1.355 . S
Dy43 O47 2.310 . S
Dy43 O50 2.351 . S
Dy43 O52 2.398 . S
Dy43 O53 2.491 . S
Dy43 O54 2.403 . S
Dy43 O55 2.664 . S
Dy43 O57 2.326 . S
O44 Dy40 2.398 . S
O44 C42 1.185 . S
O45 Dy40 2.491 . S
O45 C42 1.355 . S
O46 Dy40 2.403 . S
O46 C48 1.254 . S
O47 Dy40 2.664 . S
O47 Dy43 2.310 . S
O47 C48 1.268 . S
C48 O46 1.254 . S
C48 O47 1.268 . S
C49 O54 1.254 . S
C49 O55 1.268 . S
O50 Dy43 2.351 . S
O50 C58 1.249 . S
O51 Dy40 2.326 . S
O51 C58 1.267 . S
O52 C41 1.185 . S
O52 Dy43 2.398 . S
O53 C41 1.355 . S
O53 Dy43 2.491 . S
O54 Dy43 2.403 . S
O54 C49 1.254 . S
O55 Dy40 2.310 . S
O55 Dy43 2.664 . S
O55 C49 1.268 . S
O56 Dy40 2.351 . S
O56 C59 1.249 . S
O57 Dy43 2.326 . S
O57 C59 1.267 . S
C58 O50 1.249 . S
C58 O51 1.267 . S
C59 O56 1.249 . S
C59 O57 1.267 . S
C60 C61 1.391 . S
C60 C64 1.391 . S
C60 H102 0.948 . S
C61 C60 1.391 . S
C61 C62 1.391 . S
C62 C61 1.391 . S
C62 H118 0.947 . S
C62 C119 1.392 . S
C63 C64 1.391 . S
C63 C67 1.397 . S
C63 C119 1.419 . S
C64 C60 1.391 . S
C64 C63 1.391 . S
C64 C65 1.399 . S
C65 C64 1.399 . S
C65 C68 1.396 . S
C65 C77 1.453 . S
C65 C78 1.684 . S
H66 C90 0.948 . S
C67 C63 1.397 . S
C67 C68 1.394 . S
C67 C86 1.723 . S
C68 C65 1.396 . S
C68 C67 1.394 . S
C68 C98 1.723 1_545 S
H69 C92 0.947 . S
H70 C93 0.948 . S
H71 C99 0.982 . S
H72 C100 0.979 . S
H73 C100 0.980 . S
H74 C100 0.983 . S
H75 C99 0.979 . S
H76 C99 0.977 . S
C77 C65 1.453 . S
C77 H106 0.982 . S
C77 H107 0.979 . S
C77 H108 0.977 1_545 S
C78 C65 1.684 . S
C78 H103 0.979 . S
C78 H104 0.980 . S
C78 H105 0.983 . S
C79 C80 1.391 . S
C79 C84 1.391 . S
C79 H109 0.948 . S
C80 C79 1.391 . S
C80 C81 1.391 1_545 S
C81 C80 1.391 1_565 S
C81 C82 1.392 . S
C81 H110 0.947 . S
C82 C81 1.392 . S
C82 C83 1.419 1_565 S
C82 H111 0.948 . S
C83 C82 1.419 1_545 S
C83 C84 1.391 . S
C83 C87 1.397 . S
C84 C79 1.391 . S
C84 C83 1.391 . S
C84 C85 1.399 . S
C85 C84 1.399 . S
C85 C86 1.396 . S
C85 C88 1.453 . S
C85 C89 1.684 . S
C86 C67 1.723 . S
C86 C85 1.396 . S
C86 C87 1.394 . S
C87 C83 1.397 . S
C87 C86 1.394 . S
C87 C97 1.723 1_545 S
C88 C85 1.453 . S
C88 H112 0.982 . S
C88 H113 0.979 . S
C88 H114 0.977 . S
C89 C85 1.684 . S
C89 H115 0.979 . S
C89 H116 0.980 . S
C89 H117 0.983 . S
C90 H66 0.948 . S
C90 C91 1.391 . S
C90 C95 1.391 . S
C91 C90 1.391 . S
C91 C92 1.391 . S
C92 H69 0.947 . S
C92 C91 1.391 . S
C92 C93 1.392 . S
C93 H70 0.948 . S
C93 C92 1.392 . S
C93 C94 1.419 . S
C94 C93 1.419 . S
C94 C95 1.391 . S
C94 C98 1.397 . S
C95 C90 1.391 . S
C95 C94 1.391 . S
C95 C96 1.399 . S
C96 C95 1.399 . S
C96 C97 1.396 . S
C96 C99 1.453 . S
C96 C100 1.684 . S
C97 C87 1.723 1_565 S
C97 C96 1.396 . S
C97 C98 1.394 . S
C98 C68 1.723 1_565 S
C98 C94 1.397 . S
C98 C97 1.394 . S
C99 H71 0.982 . S
C99 H75 0.979 . S
C99 H76 0.977 . S
C99 C96 1.453 . S
C100 H72 0.979 . S
C100 H73 0.980 . S
C100 H74 0.983 . S
C100 C96 1.684 . S
H101 C119 0.948 . S
H102 C60 0.948 . S
H103 C78 0.979 . S
H104 C78 0.980 . S
H105 C78 0.983 . S
H106 C77 0.982 . S
H107 C77 0.979 . S
H108 C77 0.977 1_565 S
H109 C79 0.948 . S
H110 C81 0.947 . S
H111 C82 0.948 . S
H112 C88 0.982 . S
H113 C88 0.979 . S
H114 C88 0.977 . S
H115 C89 0.979 . S
H116 C89 0.980 . S
H117 C89 0.983 . S
H118 C62 0.947 . S
C119 C62 1.392 . S
C119 C63 1.419 . S
C119 H101 0.948 . S
C120 C121 1.391 . S
C120 C124 1.391 . S
C120 H162 0.948 . S
C121 C120 1.391 . S
C121 C122 1.391 . S
C122 C121 1.391 . S
C122 H178 0.947 . S
C122 C179 1.392 . S
C123 C124 1.391 . S
C123 C127 1.397 . S
C123 C179 1.419 . S
C124 C120 1.391 . S
C124 C123 1.391 . S
C124 C125 1.399 . S
C125 C124 1.399 . S
C125 C128 1.396 . S
C125 C137 1.453 . S
C125 C138 1.684 . S
H126 C150 0.948 . S
C127 C123 1.397 . S
C127 C128 1.394 . S
C127 C146 1.723 . S
C128 C125 1.396 . S
C128 C127 1.394 . S
C128 C158 1.723 . S
H129 C152 0.947 . S
H130 C153 0.948 . S
H131 C159 0.982 . S
H132 C160 0.979 . S
H133 C160 0.980 . S
H134 C160 0.983 . S
H135 C159 0.979 . S
H136 C159 0.977 . S
C137 C125 1.453 . S
C137 H166 0.982 . S
C137 H167 0.979 . S
C137 H168 0.977 . S
C138 C125 1.684 . S
C138 H163 0.979 . S
C138 H164 0.980 . S
C138 H165 0.983 . S
C139 C140 1.391 . S
C139 C144 1.391 . S
C139 H169 0.948 . S
C140 C139 1.391 . S
C140 C141 1.391 . S
C141 C140 1.391 . S
C141 C142 1.392 . S
C141 H170 0.947 . S
C142 C141 1.392 . S
C142 C143 1.419 . S
C142 H171 0.948 . S
C143 C142 1.419 . S
C143 C144 1.391 . S
C143 C147 1.397 . S
C144 C139 1.391 . S
C144 C143 1.391 . S
C144 C145 1.399 . S
C145 C144 1.399 . S
C145 C146 1.396 . S
C145 C148 1.453 . S
C145 C149 1.684 . S
C146 C127 1.723 . S
C146 C145 1.396 . S
C146 C147 1.394 . S
C147 C143 1.397 . S
C147 C146 1.394 . S
C147 C157 1.723 . S
C148 C145 1.453 . S
C148 H172 0.982 . S
C148 H173 0.979 . S
C148 H174 0.977 . S
C149 C145 1.684 . S
C149 H175 0.979 . S
C149 H176 0.980 . S
C149 H177 0.983 . S
C150 H126 0.948 . S
C150 C151 1.391 . S
C150 C155 1.391 . S
C151 C150 1.391 . S
C151 C152 1.391 . S
C152 H129 0.947 . S
C152 C151 1.391 . S
C152 C153 1.392 . S
C153 H130 0.948 . S
C153 C152 1.392 . S
C153 C154 1.419 . S
C154 C153 1.419 . S
C154 C155 1.391 . S
C154 C158 1.397 . S
C155 C150 1.391 . S
C155 C154 1.391 . S
C155 C156 1.399 . S
C156 C155 1.399 . S
C156 C157 1.396 . S
C156 C159 1.453 . S
C156 C160 1.684 . S
C157 C147 1.723 . S
C157 C156 1.396 . S
C157 C158 1.394 . S
C158 C128 1.723 . S
C158 C154 1.397 . S
C158 C157 1.394 . S
C159 H131 0.982 . S
C159 H135 0.979 . S
C159 H136 0.977 . S
C159 C156 1.453 . S
C160 H132 0.979 . S
C160 H133 0.980 . S
C160 H134 0.983 . S
C160 C156 1.684 . S
H161 C179 0.948 . S
H162 C120 0.948 . S
H163 C138 0.979 . S
H164 C138 0.980 . S
H165 C138 0.983 . S
H166 C137 0.982 . S
H167 C137 0.979 . S
H168 C137 0.977 . S
H169 C139 0.948 . S
H170 C141 0.947 . S
H171 C142 0.948 . S
H172 C148 0.982 . S
H173 C148 0.979 . S
H174 C148 0.977 . S
H175 C149 0.979 . S
H176 C149 0.980 . S
H177 C149 0.983 . S
H178 C122 0.947 . S
C179 C122 1.392 . S
C179 C123 1.419 . S
C179 H161 0.948 . S
C180 C181 1.391 . S
C180 C184 1.391 . S
C180 H222 0.948 . S
C181 C180 1.391 . S
C181 C182 1.391 . S
C182 C181 1.391 . S
C182 H238 0.947 . S
C182 C239 1.392 . S
C183 C184 1.391 . S
C183 C187 1.397 . S
C183 C239 1.419 . S
C184 C180 1.391 . S
C184 C183 1.391 . S
C184 C185 1.399 . S
C185 C184 1.399 . S
C185 C188 1.396 . S
C185 C197 1.453 . S
C185 C198 1.684 . S
H186 C210 0.948 . S
C187 C183 1.397 . S
C187 C188 1.394 . S
C187 C206 1.723 . S
C188 C185 1.396 . S
C188 C187 1.394 . S
C188 C218 1.723 . S
H189 C212 0.947 . S
H190 C213 0.931 1_455 S
H191 C219 0.982 . S
H192 C220 0.979 . S
H193 C220 0.980 . S
H194 C220 0.983 . S
H195 C219 0.979 . S
H196 C219 0.977 . S
C197 C185 1.453 . S
C197 H226 0.982 . S
C197 H227 0.979 . S
C197 H228 0.977 . S
C198 C185 1.684 . S
C198 H223 0.979 . S
C198 H224 0.980 . S
C198 H225 0.983 . S
C199 C200 1.391 . S
C199 C204 1.391 . S
C199 H229 0.948 . S
C200 C199 1.391 . S
C200 C201 1.391 . S
C201 C200 1.391 . S
C201 C202 1.392 . S
C201 H230 0.947 1_455 S
C202 C201 1.392 . S
C202 C203 1.419 . S
C202 H231 0.948 1_455 S
C203 C202 1.419 . S
C203 C204 1.391 . S
C203 C207 1.397 . S
C204 C199 1.391 . S
C204 C203 1.391 . S
C204 C205 1.399 . S
C205 C204 1.399 . S
C205 C206 1.396 . S
C205 C208 1.453 . S
C205 C209 1.684 . S
C206 C187 1.723 . S
C206 C205 1.396 . S
C206 C207 1.394 . S
C207 C203 1.397 . S
C207 C206 1.394 . S
C207 C217 1.723 . S
C208 C205 1.453 . S
C208 H232 0.982 . S
C208 H233 0.979 . S
C208 H234 0.977 . S
C209 C205 1.684 . S
C209 H235 0.979 . S
C209 H236 0.980 . S
C209 H237 0.983 . S
C210 H186 0.948 . S
C210 C211 1.391 . S
C210 C215 1.391 . S
C211 C210 1.391 . S
C211 C212 1.391 . S
C212 H189 0.947 . S
C212 C211 1.391 . S
C212 C213 1.411 . S
C213 H190 0.931 1_655 S
C213 C212 1.411 . S
C213 C214 1.417 . S
C214 C213 1.417 . S
C214 C215 1.391 . S
C214 C218 1.397 1_655 S
C215 C210 1.391 . S
C215 C214 1.391 . S
C215 C216 1.399 . S
C216 C215 1.399 . S
C216 C217 1.396 1_655 S
C216 C219 1.453 . S
C216 C220 1.684 . S
C217 C207 1.723 . S
C217 C216 1.396 1_455 S
C217 C218 1.394 . S
C218 C188 1.723 . S
C218 C214 1.397 1_455 S
C218 C217 1.394 . S
C219 H191 0.982 . S
C219 H195 0.979 . S
C219 H196 0.977 . S
C219 C216 1.453 . S
C220 H192 0.979 . S
C220 H193 0.980 . S
C220 H194 0.983 . S
C220 C216 1.684 . S
H221 C239 0.948 . S
H222 C180 0.948 . S
H223 C198 0.979 . S
H224 C198 0.980 . S
H225 C198 0.983 . S
H226 C197 0.982 . S
H227 C197 0.979 . S
H228 C197 0.977 . S
H229 C199 0.948 . S
H230 C201 0.947 1_655 S
H231 C202 0.948 1_655 S
H232 C208 0.982 . S
H233 C208 0.979 . S
H234 C208 0.977 . S
H235 C209 0.979 . S
H236 C209 0.980 . S
H237 C209 0.983 . S
H238 C182 0.947 . S
C239 C182 1.392 . S
C239 C183 1.419 . S
C239 H221 0.948 . S
C240 C241 1.391 . S
C240 C244 1.391 . S
C240 H282 0.948 . S
C241 C240 1.391 . S
C241 C242 1.391 . S
C242 C241 1.391 . S
C242 H298 0.947 . S
C242 C299 1.392 . S
C243 C244 1.391 . S
C243 C247 1.397 . S
C243 C299 1.419 . S
C244 C240 1.391 . S
C244 C243 1.391 . S
C244 C245 1.399 . S
C245 C244 1.399 . S
C245 C248 1.396 . S
C245 C257 1.453 . S
C245 C258 1.684 . S
H246 C270 0.948 . S
C247 C243 1.397 . S
C247 C248 1.394 . S
C247 C266 1.723 . S
C248 C245 1.396 . S
C248 C247 1.394 . S
C248 C278 1.723 1_655 S
H249 C272 0.947 . S
H250 C273 0.948 . S
H251 C279 0.982 . S
H252 C280 0.979 . S
H253 C280 0.980 . S
H254 C280 0.983 . S
H255 C279 0.979 . S
H256 C279 0.977 . S
C257 C245 1.453 . S
C257 H286 0.982 1_655 S
C257 H287 0.979 . S
C257 H288 0.977 1_655 S
C258 C245 1.684 . S
C258 H283 0.979 . S
C258 H284 0.980 . S
C258 H285 0.983 . S
C259 C260 1.391 1_655 S
C259 C264 1.391 . S
C259 H289 0.948 . S
C260 C259 1.391 1_455 S
C260 C261 1.391 . S
C261 C260 1.391 . S
C261 C262 1.392 . S
C261 H290 0.947 . S
C262 C261 1.392 . S
C262 C263 1.419 . S
C262 H291 0.948 . S
C263 C262 1.419 . S
C263 C264 1.391 1_455 S
C263 C267 1.397 . S
C264 C259 1.391 . S
C264 C263 1.391 1_655 S
C264 C265 1.399 . S
C265 C264 1.399 . S
C265 C266 1.396 . S
C265 C268 1.453 . S
C265 C269 1.684 . S
C266 C247 1.723 . S
C266 C265 1.396 . S
C266 C267 1.394 1_655 S
C267 C263 1.397 . S
C267 C266 1.394 1_455 S
C267 C277 1.723 . S
C268 C265 1.453 . S
C268 H292 0.982 . S
C268 H293 0.979 . S
C268 H294 0.977 . S
C269 C265 1.684 . S
C269 H295 0.979 . S
C269 H296 0.980 . S
C269 H297 0.983 . S
C270 H246 0.948 . S
C270 C271 1.391 . S
C270 C275 1.391 . S
C271 C270 1.391 . S
C271 C272 1.391 . S
C272 H249 0.947 . S
C272 C271 1.391 . S
C272 C273 1.392 . S
C273 H250 0.948 . S
C273 C272 1.392 . S
C273 C274 1.419 . S
C274 C273 1.419 . S
C274 C275 1.391 . S
C274 C278 1.397 . S
C275 C270 1.391 . S
C275 C274 1.391 . S
C275 C276 1.399 . S
C276 C275 1.399 . S
C276 C277 1.396 . S
C276 C279 1.453 . S
C276 C280 1.684 . S
C277 C267 1.723 . S
C277 C276 1.396 . S
C277 C278 1.394 . S
C278 C248 1.723 1_455 S
C278 C274 1.397 . S
C278 C277 1.394 . S
C279 H251 0.982 . S
C279 H255 0.979 . S
C279 H256 0.977 . S
C279 C276 1.453 . S
C280 H252 0.979 . S
C280 H253 0.980 . S
C280 H254 0.983 . S
C280 C276 1.684 . S
H281 C299 0.948 . S
H282 C240 0.948 . S
H283 C258 0.979 . S
H284 C258 0.980 . S
H285 C258 0.983 . S
H286 C257 0.982 1_455 S
H287 C257 0.979 . S
H288 C257 0.977 1_455 S
H289 C259 0.948 . S
H290 C261 0.947 . S
H291 C262 0.948 . S
H292 C268 0.982 . S
H293 C268 0.979 . S
H294 C268 0.977 . S
H295 C269 0.979 . S
H296 C269 0.980 . S
H297 C269 0.983 . S
H298 C242 0.947 . S
C299 C242 1.392 . S
C299 C243 1.419 . S
C299 H281 0.948 . S
C300 C301 1.391 . S
C300 C304 1.391 . S
C300 H342 0.948 . S
C301 C300 1.391 . S
C301 C302 1.391 . S
C302 C301 1.391 . S
C302 H358 0.947 . S
C302 C359 1.392 . S
C303 C304 1.391 . S
C303 C307 1.397 1_565 S
C303 C359 1.419 . S
C304 C300 1.391 . S
C304 C303 1.391 . S
C304 C305 1.399 1_565 S
C305 C304 1.399 1_545 S
C305 C308 1.396 . S
C305 C317 1.453 . S
C305 C318 1.684 . S
H306 C330 0.948 . S
C307 C303 1.397 1_545 S
C307 C308 1.394 . S
C307 C326 1.723 . S
C308 C305 1.396 . S
C308 C307 1.394 . S
C308 C338 1.723 . S
H309 C332 0.947 . S
H310 C333 0.948 . S
H311 C339 0.982 . S
H312 C340 0.979 . S
H313 C340 0.980 . S
H314 C340 0.983 . S
H315 C339 0.979 . S
H316 C339 0.977 . S
C317 C305 1.453 . S
C317 H346 0.982 . S
C317 H347 0.979 . S
C317 H348 0.977 . S
C318 C305 1.684 . S
C318 H343 0.979 . S
C318 H344 0.980 . S
C318 H345 0.983 . S
C319 C320 1.391 . S
C319 C324 1.391 . S
C319 H349 0.948 . S
C320 C319 1.391 . S
C320 C321 1.391 . S
C321 C320 1.391 . S
C321 C322 1.392 . S
C321 H350 0.947 . S
C322 C321 1.392 . S
C322 C323 1.419 . S
C322 H351 0.948 . S
C323 C322 1.419 . S
C323 C324 1.391 . S
C323 C327 1.397 . S
C324 C319 1.391 . S
C324 C323 1.391 . S
C324 C325 1.399 . S
C325 C324 1.399 . S
C325 C326 1.396 . S
C325 C328 1.453 1_545 S
C325 C329 1.684 1_545 S
C326 C307 1.723 . S
C326 C325 1.396 . S
C326 C327 1.394 . S
C327 C323 1.397 . S
C327 C326 1.394 . S
C327 C337 1.723 . S
C328 C325 1.453 1_565 S
C328 H352 0.982 1_565 S
C328 H353 0.979 . S
C328 H354 0.977 . S
C329 C325 1.684 1_565 S
C329 H355 0.979 . S
C329 H356 0.980 . S
C329 H357 0.983 . S
C330 H306 0.948 . S
C330 C331 1.391 . S
C330 C335 1.391 . S
C331 C330 1.391 . S
C331 C332 1.391 . S
C332 H309 0.947 . S
C332 C331 1.391 . S
C332 C333 1.392 . S
C333 H310 0.948 . S
C333 C332 1.392 . S
C333 C334 1.419 . S
C334 C333 1.419 . S
C334 C335 1.391 . S
C334 C338 1.397 . S
C335 C330 1.391 . S
C335 C334 1.391 . S
C335 C336 1.399 . S
C336 C335 1.399 . S
C336 C337 1.396 . S
C336 C339 1.453 . S
C336 C340 1.684 . S
C337 C327 1.723 . S
C337 C336 1.396 . S
C337 C338 1.394 . S
C338 C308 1.723 . S
C338 C334 1.397 . S
C338 C337 1.394 . S
C339 H311 0.982 . S
C339 H315 0.979 . S
C339 H316 0.977 . S
C339 C336 1.453 . S
C340 H312 0.979 . S
C340 H313 0.980 . S
C340 H314 0.983 . S
C340 C336 1.684 . S
H341 C359 0.948 . S
H342 C300 0.948 . S
H343 C318 0.979 . S
H344 C318 0.980 . S
H345 C318 0.983 . S
H346 C317 0.982 . S
H347 C317 0.979 . S
H348 C317 0.977 . S
H349 C319 0.948 . S
H350 C321 0.947 . S
H351 C322 0.948 . S
H352 C328 0.982 1_545 S
H353 C328 0.979 . S
H354 C328 0.977 . S
H355 C329 0.979 . S
H356 C329 0.980 . S
H357 C329 0.983 . S
H358 C302 0.947 . S
C359 C302 1.392 . S
C359 C303 1.419 . S
C359 H341 0.948 . S
C360 C361 1.391 . S
C360 C364 1.391 . S
C360 H402 0.948 . S
C361 C360 1.391 . S
C361 C362 1.391 . S
C362 C361 1.391 . S
C362 H418 0.947 . S
C362 C419 1.392 . S
C363 C364 1.391 . S
C363 C367 1.397 . S
C363 C419 1.419 . S
C364 C360 1.391 . S
C364 C363 1.391 . S
C364 C365 1.399 . S
C365 C364 1.399 . S
C365 C368 1.396 . S
C365 C377 1.453 . S
C365 C378 1.684 . S
H366 C390 0.948 . S
C367 C363 1.397 . S
C367 C368 1.394 . S
C367 C386 1.723 . S
C368 C365 1.396 . S
C368 C367 1.394 . S
C368 C398 1.723 . S
H369 C392 0.947 . S
H370 C393 0.948 . S
H371 C399 0.982 . S
H372 C400 0.979 . S
H373 C400 0.980 . S
H374 C400 0.983 . S
H375 C399 0.979 . S
H376 C399 0.977 . S
C377 C365 1.453 . S
C377 H406 0.982 . S
C377 H407 0.979 . S
C377 H408 0.977 . S
C378 C365 1.684 . S
C378 H403 0.979 . S
C378 H404 0.980 . S
C378 H405 0.983 . S
C379 C380 1.391 . S
C379 C384 1.391 . S
C379 H409 0.948 . S
C380 C379 1.391 . S
C380 C381 1.391 . S
C381 C380 1.391 . S
C381 C382 1.392 . S
C381 H410 0.947 . S
C382 C381 1.392 . S
C382 C383 1.419 . S
C382 H411 0.948 . S
C383 C382 1.419 . S
C383 C384 1.391 . S
C383 C387 1.397 . S
C384 C379 1.391 . S
C384 C383 1.391 . S
C384 C385 1.399 . S
C385 C384 1.399 . S
C385 C386 1.396 . S
C385 C388 1.453 . S
C385 C389 1.684 . S
C386 C367 1.723 . S
C386 C385 1.396 . S
C386 C387 1.394 . S
C387 C383 1.397 . S
C387 C386 1.394 . S
C387 C397 1.723 . S
C388 C385 1.453 . S
C388 H412 0.982 . S
C388 H413 0.979 . S
C388 H414 0.977 . S
C389 C385 1.684 . S
C389 H415 0.979 . S
C389 H416 0.980 . S
C389 H417 0.983 . S
C390 H366 0.948 . S
C390 C391 1.391 . S
C390 C395 1.391 . S
C391 C390 1.391 . S
C391 C392 1.391 . S
C392 H369 0.947 . S
C392 C391 1.391 . S
C392 C393 1.392 . S
C393 H370 0.948 . S
C393 C392 1.392 . S
C393 C394 1.419 . S
C394 C393 1.419 . S
C394 C395 1.391 . S
C394 C398 1.397 . S
C395 C390 1.391 . S
C395 C394 1.391 . S
C395 C396 1.399 . S
C396 C395 1.399 . S
C396 C397 1.396 . S
C396 C399 1.453 . S
C396 C400 1.684 . S
C397 C387 1.723 . S
C397 C396 1.396 . S
C397 C398 1.394 . S
C398 C368 1.723 . S
C398 C394 1.397 . S
C398 C397 1.394 . S
C399 H371 0.982 . S
C399 H375 0.979 . S
C399 H376 0.977 . S
C399 C396 1.453 . S
C400 H372 0.979 . S
C400 H373 0.980 . S
C400 H374 0.983 . S
C400 C396 1.684 . S
H401 C419 0.948 . S
H402 C360 0.948 . S
H403 C378 0.979 . S
H404 C378 0.980 . S
H405 C378 0.983 . S
H406 C377 0.982 . S
H407 C377 0.979 . S
H408 C377 0.977 . S
H409 C379 0.948 . S
H410 C381 0.947 . S
H411 C382 0.948 . S
H412 C388 0.982 . S
H413 C388 0.979 . S
H414 C388 0.977 . S
H415 C389 0.979 . S
H416 C389 0.980 . S
H417 C389 0.983 . S
H418 C362 0.947 . S
C419 C362 1.392 . S
C419 C363 1.419 . S
C419 H401 0.948 . S
H420 C432 0.930 . S
H421 C434 0.930 . S
H422 C435 0.930 . S
H423 C439 0.959 . S
H424 C439 0.959 . S
H425 C439 0.961 . S
H426 C440 0.960 . S
H427 C440 0.961 . S
H428 C440 0.959 . S
H429 C443 0.929 . S
H430 C444 0.931 . S
H431 C446 0.930 . S
C432 H420 0.930 . S
C432 C433 1.399 . S
C432 C437 1.399 . S
C433 C432 1.399 . S
C433 C434 1.376 . S
C434 H421 0.930 . S
C434 C433 1.376 . S
C434 C435 1.388 . S
C435 H422 0.930 . S
C435 C434 1.388 . S
C435 C436 1.390 . S
C436 C435 1.390 . S
C436 C437 1.394 . S
C436 C442 1.465 . S
C437 C432 1.399 . S
C437 C436 1.394 . S
C437 C438 1.516 . S
C438 C437 1.516 . S
C438 C439 1.502 . S
C438 C440 1.561 . S
C438 C441 1.526 . S
C439 H423 0.959 . S
C439 H424 0.959 . S
C439 H425 0.961 . S
C439 C438 1.502 . S
C440 H426 0.960 . S
C440 H427 0.961 . S
C440 H428 0.959 . S
C440 C438 1.561 . S
C441 C438 1.526 . S
C441 C442 1.396 . S
C441 C446 1.390 . S
C442 C436 1.465 . S
C442 C441 1.396 . S
C442 C443 1.399 . S
C443 H429 0.929 . S
C443 C442 1.399 . S
C443 C444 1.385 . S
C444 H430 0.931 . S
C444 C443 1.385 . S
C444 C445 1.389 . S
C445 C444 1.389 . S
C445 C446 1.387 . S
C446 H431 0.930 . S
C446 C441 1.390 . S
C446 C445 1.387 . S
H447 C459 0.930 . S
H448 C461 0.930 . S
H449 C462 0.930 . S
H450 C466 0.959 . S
H451 C466 0.959 . S
H452 C466 0.961 . S
H453 C467 0.960 . S
H454 C467 0.961 . S
H455 C467 0.959 . S
H456 C470 0.929 . S
H457 C471 0.931 . S
H458 C473 0.930 . S
C459 H447 0.930 . S
C459 C460 1.399 . S
C459 C464 1.399 . S
C460 C459 1.399 . S
C460 C461 1.376 . S
C461 H448 0.930 . S
C461 C460 1.376 . S
C461 C462 1.388 . S
C462 H449 0.930 . S
C462 C461 1.388 . S
C462 C463 1.390 . S
C463 C462 1.390 . S
C463 C464 1.394 . S
C463 C469 1.465 . S
C464 C459 1.399 . S
C464 C463 1.394 . S
C464 C465 1.516 . S
C465 C464 1.516 . S
C465 C466 1.502 . S
C465 C467 1.561 . S
C465 C468 1.526 . S
C466 H450 0.959 . S
C466 H451 0.959 . S
C466 H452 0.961 . S
C466 C465 1.502 . S
C467 H453 0.960 . S
C467 H454 0.961 . S
C467 H455 0.959 . S
C467 C465 1.561 . S
C468 C465 1.526 . S
C468 C469 1.396 . S
C468 C473 1.390 . S
C469 C463 1.465 . S
C469 C468 1.396 . S
C469 C470 1.399 . S
C470 H456 0.929 . S
C470 C469 1.399 . S
C470 C471 1.385 . S
C471 H457 0.931 . S
C471 C470 1.385 . S
C471 C472 1.389 . S
C472 C471 1.389 . S
C472 C473 1.387 . S
C473 H458 0.930 . S
C473 C468 1.390 . S
C473 C472 1.387 . S
H474 C486 0.930 . S
H475 C488 0.930 . S
H476 C489 0.930 . S
H477 C493 0.959 . S
H478 C493 0.959 . S
H479 C493 0.961 . S
H480 C494 0.960 . S
H481 C494 0.961 . S
H482 C494 0.959 . S
H483 C497 0.929 . S
H484 C498 0.931 . S
H485 C500 0.930 . S
C486 H474 0.930 . S
C486 C487 1.399 . S
C486 C491 1.399 . S
C487 C486 1.399 . S
C487 C488 1.376 . S
C488 H475 0.930 . S
C488 C487 1.376 . S
C488 C489 1.388 . S
C489 H476 0.930 . S
C489 C488 1.388 . S
C489 C490 1.390 . S
C490 C489 1.390 . S
C490 C491 1.394 . S
C490 C496 1.465 . S
C491 C486 1.399 . S
C491 C490 1.394 . S
C491 C492 1.516 . S
C492 C491 1.516 . S
C492 C493 1.502 . S
C492 C494 1.561 . S
C492 C495 1.526 . S
C493 H477 0.959 . S
C493 H478 0.959 . S
C493 H479 0.961 . S
C493 C492 1.502 . S
C494 H480 0.960 . S
C494 H481 0.961 . S
C494 H482 0.959 . S
C494 C492 1.561 . S
C495 C492 1.526 . S
C495 C496 1.396 . S
C495 C500 1.390 . S
C496 C490 1.465 . S
C496 C495 1.396 . S
C496 C497 1.399 . S
C497 H483 0.929 . S
C497 C496 1.399 . S
C497 C498 1.385 . S
C498 H484 0.931 . S
C498 C497 1.385 . S
C498 C499 1.389 . S
C499 C498 1.389 . S
C499 C500 1.387 . S
C500 H485 0.930 . S
C500 C495 1.390 . S
C500 C499 1.387 . S
H501 C513 0.930 . S
H502 C515 0.930 . S
H503 C516 0.930 . S
H504 C520 0.959 . S
H505 C520 0.959 . S
H506 C520 0.961 . S
H507 C521 0.960 . S
H508 C521 0.961 . S
H509 C521 0.959 . S
H510 C524 0.929 . S
H511 C525 0.931 . S
H512 C527 0.930 . S
C513 H501 0.930 . S
C513 C514 1.399 . S
C513 C518 1.399 . S
C514 C513 1.399 . S
C514 C515 1.376 . S
C515 H502 0.930 . S
C515 C514 1.376 . S
C515 C516 1.388 . S
C516 H503 0.930 . S
C516 C515 1.388 . S
C516 C517 1.390 . S
C517 C516 1.390 . S
C517 C518 1.394 . S
C517 C523 1.465 . S
C518 C513 1.399 . S
C518 C517 1.394 . S
C518 C519 1.516 . S
C519 C518 1.516 . S
C519 C520 1.502 . S
C519 C521 1.561 . S
C519 C522 1.526 . S
C520 H504 0.959 . S
C520 H505 0.959 . S
C520 H506 0.961 . S
C520 C519 1.502 . S
C521 H507 0.960 . S
C521 H508 0.961 . S
C521 H509 0.959 . S
C521 C519 1.561 . S
C522 C519 1.526 . S
C522 C523 1.396 . S
C522 C527 1.390 . S
C523 C517 1.465 . S
C523 C522 1.396 . S
C523 C524 1.399 . S
C524 H510 0.929 . S
C524 C523 1.399 . S
C524 C525 1.385 . S
C525 H511 0.931 . S
C525 C524 1.385 . S
C525 C526 1.389 . S
C526 C525 1.389 . S
C526 C527 1.387 . S
C527 H512 0.930 . S
C527 C522 1.390 . S
C527 C526 1.387 . S
H528 C540 0.930 . S
H529 C542 0.930 . S
H530 C543 0.930 . S
H531 C547 0.959 . S
H532 C547 0.959 . S
H533 C547 0.961 . S
H534 C548 0.960 . S
H535 C548 0.961 . S
H536 C548 0.959 . S
H537 C551 0.929 . S
H538 C552 0.931 . S
H539 C554 0.930 . S
C540 H528 0.930 . S
C540 C541 1.399 . S
C540 C545 1.399 . S
C541 C540 1.399 . S
C541 C542 1.376 . S
C542 H529 0.930 . S
C542 C541 1.376 . S
C542 C543 1.388 . S
C543 H530 0.930 . S
C543 C542 1.388 . S
C543 C544 1.390 . S
C544 C543 1.390 . S
C544 C545 1.394 . S
C544 C550 1.465 . S
C545 C540 1.399 . S
C545 C544 1.394 . S
C545 C546 1.516 . S
C546 C545 1.516 . S
C546 C547 1.502 . S
C546 C548 1.561 . S
C546 C549 1.526 . S
C547 H531 0.959 . S
C547 H532 0.959 . S
C547 H533 0.961 . S
C547 C546 1.502 . S
C548 H534 0.960 . S
C548 H535 0.961 . S
C548 H536 0.959 . S
C548 C546 1.561 . S
C549 C546 1.526 . S
C549 C550 1.396 . S
C549 C554 1.390 . S
C550 C544 1.465 . S
C550 C549 1.396 . S
C550 C551 1.399 . S
C551 H537 0.929 . S
C551 C550 1.399 . S
C551 C552 1.385 . S
C552 H538 0.931 . S
C552 C551 1.385 . S
C552 C553 1.389 . S
C553 C552 1.389 . S
C553 C554 1.387 . S
C554 H539 0.930 . S
C554 C549 1.390 . S
C554 C553 1.387 . S
H555 C567 0.930 . S
H556 C569 0.930 . S
H557 C570 0.930 . S
H558 C574 0.959 . S
H559 C574 0.959 . S
H560 C574 0.961 . S
H561 C575 0.960 . S
H562 C575 0.961 . S
H563 C575 0.959 . S
H564 C578 0.929 . S
H565 C579 0.931 . S
H566 C581 0.930 . S
C567 H555 0.930 . S
C567 C568 1.399 . S
C567 C572 1.399 . S
C568 C567 1.399 . S
C568 C569 1.376 . S
C569 H556 0.930 . S
C569 C568 1.376 . S
C569 C570 1.388 . S
C570 H557 0.930 . S
C570 C569 1.388 . S
C570 C571 1.390 . S
C571 C570 1.390 . S
C571 C572 1.394 . S
C571 C577 1.465 . S
C572 C567 1.399 . S
C572 C571 1.394 . S
C572 C573 1.516 . S
C573 C572 1.516 . S
C573 C574 1.502 . S
C573 C575 1.561 . S
C573 C576 1.526 . S
C574 H558 0.959 . S
C574 H559 0.959 . S
C574 H560 0.961 . S
C574 C573 1.502 . S
C575 H561 0.960 . S
C575 H562 0.961 . S
C575 H563 0.959 . S
C575 C573 1.561 . S
C576 C573 1.526 . S
C576 C577 1.396 . S
C576 C581 1.390 . S
C577 C571 1.465 . S
C577 C576 1.396 . S
C577 C578 1.399 . S
C578 H564 0.929 . S
C578 C577 1.399 . S
C578 C579 1.385 . S
C579 H565 0.931 . S
C579 C578 1.385 . S
C579 C580 1.389 . S
C580 C579 1.389 . S
C580 C581 1.387 . S
C581 H566 0.930 . S
C581 C576 1.390 . S
C581 C580 1.387 . S
H582 C594 0.930 . S
H583 C596 0.930 . S
H584 C597 0.930 . S
H585 C601 0.959 . S
H586 C601 0.959 . S
H587 C601 0.961 . S
H588 C602 0.960 . S
H589 C602 0.961 . S
H590 C602 0.959 . S
H591 C605 0.929 . S
H592 C606 0.931 . S
H593 C608 0.930 . S
C594 H582 0.930 . S
C594 C595 1.399 . S
C594 C599 1.399 . S
C595 C594 1.399 . S
C595 C596 1.376 . S
C596 H583 0.930 . S
C596 C595 1.376 . S
C596 C597 1.388 . S
C597 H584 0.930 . S
C597 C596 1.388 . S
C597 C598 1.390 . S
C598 C597 1.390 . S
C598 C599 1.394 . S
C598 C604 1.465 . S
C599 C594 1.399 . S
C599 C598 1.394 . S
C599 C600 1.516 . S
C600 C599 1.516 . S
C600 C601 1.502 . S
C600 C602 1.561 . S
C600 C603 1.526 . S
C601 H585 0.959 . S
C601 H586 0.959 . S
C601 H587 0.961 . S
C601 C600 1.502 . S
C602 H588 0.960 . S
C602 H589 0.961 . S
C602 H590 0.959 . S
C602 C600 1.561 . S
C603 C600 1.526 . S
C603 C604 1.396 . S
C603 C608 1.390 . S
C604 C598 1.465 . S
C604 C603 1.396 . S
C604 C605 1.399 . S
C605 H591 0.929 . S
C605 C604 1.399 . S
C605 C606 1.385 . S
C606 H592 0.931 . S
C606 C605 1.385 . S
C606 C607 1.389 . S
C607 C606 1.389 . S
C607 C608 1.387 . S
C608 H593 0.930 . S
C608 C603 1.390 . S
C608 C607 1.387 . S
H609 C621 0.930 . S
H610 C623 0.930 . S
H611 C624 0.930 . S
H612 C628 0.959 . S
H613 C628 0.959 . S
H614 C628 0.961 . S
H615 C629 0.960 . S
H616 C629 0.961 . S
H617 C629 0.959 . S
H618 C632 0.929 . S
H619 C633 0.931 . S
H620 C635 0.930 . S
C621 H609 0.930 . S
C621 C622 1.399 . S
C621 C626 1.399 . S
C622 C621 1.399 . S
C622 C623 1.376 . S
C623 H610 0.930 . S
C623 C622 1.376 . S
C623 C624 1.388 . S
C624 H611 0.930 . S
C624 C623 1.388 . S
C624 C625 1.390 . S
C625 C624 1.390 . S
C625 C626 1.394 . S
C625 C631 1.465 . S
C626 C621 1.399 . S
C626 C625 1.394 . S
C626 C627 1.516 . S
C627 C626 1.516 . S
C627 C628 1.502 . S
C627 C629 1.561 . S
C627 C630 1.526 . S
C628 H612 0.959 . S
C628 H613 0.959 . S
C628 H614 0.961 . S
C628 C627 1.502 . S
C629 H615 0.960 . S
C629 H616 0.961 . S
C629 H617 0.959 . S
C629 C627 1.561 . S
C630 C627 1.526 . S
C630 C631 1.396 . S
C630 C635 1.390 . S
C631 C625 1.465 . S
C631 C630 1.396 . S
C631 C632 1.399 . S
C632 H618 0.929 . S
C632 C631 1.399 . S
C632 C633 1.385 . S
C633 H619 0.931 . S
C633 C632 1.385 . S
C633 C634 1.389 . S
C634 C633 1.389 . S
C634 C635 1.387 . S
C635 H620 0.930 . S
C635 C630 1.390 . S
C635 C634 1.387 . S
H636 C648 0.930 . S
H637 C650 0.930 . S
H638 C651 0.930 . S
H639 C655 0.959 . S
H640 C655 0.959 . S
H641 C655 0.961 . S
H642 C656 0.960 . S
H643 C656 0.961 . S
H644 C656 0.959 . S
H645 C659 0.929 . S
H646 C660 0.931 . S
H647 C662 0.930 . S
C648 H636 0.930 . S
C648 C649 1.399 . S
C648 C653 1.399 . S
C649 C648 1.399 . S
C649 C650 1.376 . S
C650 H637 0.930 . S
C650 C649 1.376 . S
C650 C651 1.388 . S
C651 H638 0.930 . S
C651 C650 1.388 . S
C651 C652 1.390 . S
C652 C651 1.390 . S
C652 C653 1.394 . S
C652 C658 1.465 . S
C653 C648 1.399 . S
C653 C652 1.394 . S
C653 C654 1.516 . S
C654 C653 1.516 . S
C654 C655 1.502 . S
C654 C656 1.561 . S
C654 C657 1.526 . S
C655 H639 0.959 . S
C655 H640 0.959 . S
C655 H641 0.961 . S
C655 C654 1.502 . S
C656 H642 0.960 . S
C656 H643 0.961 . S
C656 H644 0.959 . S
C656 C654 1.561 . S
C657 C654 1.526 . S
C657 C658 1.396 . S
C657 C662 1.390 . S
C658 C652 1.465 . S
C658 C657 1.396 . S
C658 C659 1.399 . S
C659 H645 0.929 . S
C659 C658 1.399 . S
C659 C660 1.385 . S
C660 H646 0.931 . S
C660 C659 1.385 . S
C660 C661 1.389 . S
C661 C660 1.389 . S
C661 C662 1.387 . S
C662 H647 0.930 . S
C662 C657 1.390 . S
C662 C661 1.387 . S
H663 C675 0.930 . S
H664 C677 0.930 . S
H665 C678 0.930 . S
H666 C682 0.959 . S
H667 C682 0.959 . S
H668 C682 0.961 . S
H669 C683 0.960 . S
H670 C683 0.961 . S
H671 C683 0.959 . S
H672 C686 0.929 . S
H673 C687 0.931 . S
H674 C689 0.930 . S
C675 H663 0.930 . S
C675 C676 1.399 . S
C675 C680 1.399 . S
C676 C675 1.399 . S
C676 C677 1.376 . S
C677 H664 0.930 . S
C677 C676 1.376 . S
C677 C678 1.388 . S
C678 H665 0.930 . S
C678 C677 1.388 . S
C678 C679 1.390 . S
C679 C678 1.390 . S
C679 C680 1.394 . S
C679 C685 1.465 . S
C680 C675 1.399 . S
C680 C679 1.394 . S
C680 C681 1.516 . S
C681 C680 1.516 . S
C681 C682 1.502 . S
C681 C683 1.561 . S
C681 C684 1.526 . S
C682 H666 0.959 . S
C682 H667 0.959 . S
C682 H668 0.961 . S
C682 C681 1.502 . S
C683 H669 0.960 . S
C683 H670 0.961 . S
C683 H671 0.959 . S
C683 C681 1.561 . S
C684 C681 1.526 . S
C684 C685 1.396 . S
C684 C689 1.390 . S
C685 C679 1.465 . S
C685 C684 1.396 . S
C685 C686 1.399 . S
C686 H672 0.929 . S
C686 C685 1.399 . S
C686 C687 1.385 . S
C687 H673 0.931 . S
C687 C686 1.385 . S
C687 C688 1.389 . S
C688 C687 1.389 . S
C688 C689 1.387 . S
C689 H674 0.930 . S
C689 C684 1.390 . S
C689 C688 1.387 . S
H690 C702 0.930 . S
H691 C704 0.930 . S
H692 C705 0.930 . S
H693 C709 0.959 . S
H694 C709 0.959 . S
H695 C709 0.961 . S
H696 C710 0.960 . S
H697 C710 0.961 . S
H698 C710 0.959 . S
H699 C713 0.929 . S
H700 C714 0.931 . S
H701 C716 0.930 . S
C702 H690 0.930 . S
C702 C703 1.399 . S
C702 C707 1.399 . S
C703 C702 1.399 . S
C703 C704 1.376 . S
C704 H691 0.930 . S
C704 C703 1.376 . S
C704 C705 1.388 . S
C705 H692 0.930 . S
C705 C704 1.388 . S
C705 C706 1.390 . S
C706 C705 1.390 . S
C706 C707 1.394 . S
C706 C712 1.465 . S
C707 C702 1.399 . S
C707 C706 1.394 . S
C707 C708 1.516 . S
C708 C707 1.516 . S
C708 C709 1.502 . S
C708 C710 1.561 . S
C708 C711 1.526 . S
C709 H693 0.959 . S
C709 H694 0.959 . S
C709 H695 0.961 . S
C709 C708 1.502 . S
C710 H696 0.960 . S
C710 H697 0.961 . S
C710 H698 0.959 . S
C710 C708 1.561 . S
C711 C708 1.526 . S
C711 C712 1.396 . S
C711 C716 1.390 . S
C712 C706 1.465 . S
C712 C711 1.396 . S
C712 C713 1.399 . S
C713 H699 0.929 . S
C713 C712 1.399 . S
C713 C714 1.385 . S
C714 H700 0.931 . S
C714 C713 1.385 . S
C714 C715 1.389 . S
C715 C714 1.389 . S
C715 C716 1.387 . S
C716 H701 0.930 . S
C716 C711 1.390 . S
C716 C715 1.387 . S
H717 C729 0.930 . S
H718 C731 0.930 . S
H719 C732 0.930 . S
H720 C736 0.959 . S
H721 C736 0.959 . S
H722 C736 0.961 . S
H723 C737 0.960 . S
H724 C737 0.961 . S
H725 C737 0.959 . S
H726 C740 0.929 . S
H727 C741 0.931 . S
H728 C743 0.930 . S
C729 H717 0.930 . S
C729 C730 1.399 . S
C729 C734 1.399 . S
C730 C729 1.399 . S
C730 C731 1.376 . S
C731 H718 0.930 . S
C731 C730 1.376 . S
C731 C732 1.388 . S
C732 H719 0.930 . S
C732 C731 1.388 . S
C732 C733 1.390 . S
C733 C732 1.390 . S
C733 C734 1.394 . S
C733 C739 1.465 . S
C734 C729 1.399 . S
C734 C733 1.394 . S
C734 C735 1.516 . S
C735 C734 1.516 . S
C735 C736 1.502 . S
C735 C737 1.561 . S
C735 C738 1.526 . S
C736 H720 0.959 . S
C736 H721 0.959 . S
C736 H722 0.961 . S
C736 C735 1.502 . S
C737 H723 0.960 . S
C737 H724 0.961 . S
C737 H725 0.959 . S
C737 C735 1.561 . S
C738 C735 1.526 . S
C738 C739 1.396 . S
C738 C743 1.390 . S
C739 C733 1.465 . S
C739 C738 1.396 . S
C739 C740 1.399 . S
C740 H726 0.929 . S
C740 C739 1.399 . S
C740 C741 1.385 . S
C741 H727 0.931 . S
C741 C740 1.385 . S
C741 C742 1.389 . S
C742 C741 1.389 . S
C742 C743 1.387 . S
C743 H728 0.930 . S
C743 C738 1.390 . S
C743 C742 1.387 . S
H744 C756 0.930 . S
H745 C758 0.930 . S
H746 C759 0.930 . S
H747 C763 0.959 . S
H748 C763 0.959 . S
H749 C763 0.961 . S
H750 C764 0.960 . S
H751 C764 0.961 . S
H752 C764 0.959 . S
H753 C767 0.929 . S
H754 C768 0.931 . S
H755 C770 0.930 . S
C756 H744 0.930 . S
C756 C757 1.399 . S
C756 C761 1.399 . S
C757 C756 1.399 . S
C757 C758 1.376 . S
C758 H745 0.930 . S
C758 C757 1.376 . S
C758 C759 1.388 . S
C759 H746 0.930 . S
C759 C758 1.388 . S
C759 C760 1.390 . S
C760 C759 1.390 . S
C760 C761 1.394 . S
C760 C766 1.465 . S
C761 C756 1.399 . S
C761 C760 1.394 . S
C761 C762 1.516 . S
C762 C761 1.516 . S
C762 C763 1.502 . S
C762 C764 1.561 1_455 S
C762 C765 1.526 . S
C763 H747 0.959 . S
C763 H748 0.959 . S
C763 H749 0.961 . S
C763 C762 1.502 . S
C764 H750 0.960 . S
C764 H751 0.961 . S
C764 H752 0.959 . S
C764 C762 1.561 1_655 S
C765 C762 1.526 . S
C765 C766 1.396 . S
C765 C770 1.390 . S
C766 C760 1.465 . S
C766 C765 1.396 . S
C766 C767 1.399 . S
C767 H753 0.929 . S
C767 C766 1.399 . S
C767 C768 1.385 . S
C768 H754 0.931 . S
C768 C767 1.385 . S
C768 C769 1.408 . S
C769 C768 1.408 . S
C769 C770 1.412 . S
C770 H755 0.930 . S
C770 C765 1.390 . S
C770 C769 1.412 . S
H771 C783 0.930 . S
H772 C785 0.930 . S
H773 C786 0.930 . S
H774 C790 0.959 . S
H775 C790 0.959 . S
H776 C790 0.961 . S
H777 C791 0.960 . S
H778 C791 0.961 . S
H779 C791 0.959 . S
H780 C794 0.929 . S
H781 C795 0.931 . S
H782 C797 0.930 . S
C783 H771 0.930 . S
C783 C784 1.399 . S
C783 C788 1.399 . S
C784 C783 1.399 . S
C784 C785 1.376 . S
C785 H772 0.930 . S
C785 C784 1.376 . S
C785 C786 1.388 . S
C786 H773 0.930 . S
C786 C785 1.388 . S
C786 C787 1.390 . S
C787 C786 1.390 . S
C787 C788 1.394 . S
C787 C793 1.465 . S
C788 C783 1.399 . S
C788 C787 1.394 . S
C788 C789 1.516 . S
C789 C788 1.516 . S
C789 C790 1.502 1_545 S
C789 C791 1.561 . S
C789 C792 1.526 . S
C790 H774 0.959 . S
C790 H775 0.959 . S
C790 H776 0.961 . S
C790 C789 1.502 1_565 S
C791 H777 0.960 . S
C791 H778 0.961 . S
C791 H779 0.959 . S
C791 C789 1.561 . S
C792 C789 1.526 . S
C792 C793 1.396 . S
C792 C797 1.390 . S
C793 C787 1.465 . S
C793 C792 1.396 . S
C793 C794 1.399 . S
C794 H780 0.929 . S
C794 C793 1.399 . S
C794 C795 1.385 . S
C795 H781 0.931 . S
C795 C794 1.385 . S
C795 C796 1.389 . S
C796 C795 1.389 . S
C796 C797 1.387 . S
C797 H782 0.930 . S
C797 C792 1.390 . S
C797 C796 1.387 . S
H798 C810 0.930 . S
H799 C812 0.930 . S
H800 C813 0.930 . S
H801 C817 0.959 . S
H802 C817 0.959 . S
H803 C817 0.961 . S
H804 C818 0.960 . S
H805 C818 0.961 . S
H806 C818 0.959 . S
H807 C821 0.929 . S
H808 C822 0.931 . S
H809 C824 0.930 . S
C810 H798 0.930 . S
C810 C811 1.399 . S
C810 C815 1.399 . S
C811 C810 1.399 . S
C811 C812 1.376 . S
C812 H799 0.930 . S
C812 C811 1.376 . S
C812 C813 1.388 . S
C813 H800 0.930 . S
C813 C812 1.388 . S
C813 C814 1.390 . S
C814 C813 1.390 . S
C814 C815 1.394 . S
C814 C820 1.465 . S
C815 C810 1.399 . S
C815 C814 1.394 . S
C815 C816 1.516 . S
C816 C815 1.516 . S
C816 C817 1.502 . S
C816 C818 1.561 . S
C816 C819 1.526 . S
C817 H801 0.959 . S
C817 H802 0.959 . S
C817 H803 0.961 . S
C817 C816 1.502 . S
C818 H804 0.960 . S
C818 H805 0.961 . S
C818 H806 0.959 . S
C818 C816 1.561 . S
C819 C816 1.526 . S
C819 C820 1.396 . S
C819 C824 1.390 . S
C820 C814 1.465 . S
C820 C819 1.396 . S
C820 C821 1.399 . S
C821 H807 0.929 . S
C821 C820 1.399 . S
C821 C822 1.385 . S
C822 H808 0.931 . S
C822 C821 1.385 . S
C822 C823 1.389 . S
C823 C822 1.389 . S
C823 C824 1.387 . S
C824 H809 0.930 . S
C824 C819 1.390 . S
C824 C823 1.387 . S
H825 C837 0.930 1_565 S
H826 C839 0.930 . S
H827 C840 0.930 . S
H828 C844 0.959 1_545 S
H829 C844 0.959 . S
H830 C844 0.961 . S
H831 C845 0.960 . S
H832 C845 0.961 . S
H833 C845 0.959 . S
H834 C848 0.929 . S
H835 C849 0.931 . S
H836 C851 0.930 1_565 S
C837 H825 0.930 1_545 S
C837 C838 1.399 . S
C837 C842 1.399 . S
C838 C837 1.399 . S
C838 C839 1.376 . S
C839 H826 0.930 . S
C839 C838 1.376 . S
C839 C840 1.388 . S
C840 H827 0.930 . S
C840 C839 1.388 . S
C840 C841 1.390 . S
C841 C840 1.390 . S
C841 C842 1.394 . S
C841 C847 1.465 . S
C842 C837 1.399 . S
C842 C841 1.394 . S
C842 C843 1.516 1_545 S
C843 C842 1.516 1_565 S
C843 C844 1.502 . S
C843 C845 1.561 . S
C843 C846 1.526 1_565 S
C844 H828 0.959 1_565 S
C844 H829 0.959 . S
C844 H830 0.961 . S
C844 C843 1.502 . S
C845 H831 0.960 . S
C845 H832 0.961 . S
C845 H833 0.959 . S
C845 C843 1.561 . S
C846 C843 1.526 1_545 S
C846 C847 1.396 . S
C846 C851 1.390 . S
C847 C841 1.465 . S
C847 C846 1.396 . S
C847 C848 1.399 . S
C848 H834 0.929 . S
C848 C847 1.399 . S
C848 C849 1.385 . S
C849 H835 0.931 . S
C849 C848 1.385 . S
C849 C850 1.389 . S
C850 C849 1.389 . S
C850 C851 1.387 . S
C851 H836 0.930 1_545 S
C851 C846 1.390 . S
C851 C850 1.387 . S
H852 C864 0.930 . S
H853 C866 0.930 . S
H854 C867 0.930 . S
H855 C871 0.959 . S
H856 C871 0.959 . S
H857 C871 0.961 . S
H858 C872 0.960 . S
H859 C872 0.961 . S
H860 C872 0.959 . S
H861 C875 0.929 . S
H862 C876 0.931 1_554 S
H863 C878 0.930 . S
C864 H852 0.930 . S
C864 C865 1.399 . S
C864 C869 1.399 . S
C865 C864 1.399 . S
C865 C866 1.376 . S
C866 H853 0.930 . S
C866 C865 1.376 . S
C866 C867 1.388 . S
C867 H854 0.930 . S
C867 C866 1.388 . S
C867 C868 1.390 . S
C868 C867 1.390 . S
C868 C869 1.394 . S
C868 C874 1.465 . S
C869 C864 1.399 . S
C869 C868 1.394 . S
C869 C870 1.516 . S
C870 C869 1.516 . S
C870 C871 1.502 . S
C870 C872 1.561 . S
C870 C873 1.526 . S
C871 H855 0.959 . S
C871 H856 0.959 . S
C871 H857 0.961 . S
C871 C870 1.502 . S
C872 H858 0.960 . S
C872 H859 0.961 . S
C872 H860 0.959 . S
C872 C870 1.561 . S
C873 C870 1.526 . S
C873 C874 1.396 . S
C873 C878 1.390 . S
C874 C868 1.465 . S
C874 C873 1.396 . S
C874 C875 1.399 . S
C875 H861 0.929 . S
C875 C874 1.399 . S
C875 C876 1.385 . S
C876 H862 0.931 1_556 S
C876 C875 1.385 . S
C876 C877 1.389 1_556 S
C877 C876 1.389 1_554 S
C877 C878 1.387 1_554 S
C878 H863 0.930 . S
C878 C873 1.390 . S
C878 C877 1.387 1_556 S
H879 C891 0.930 . S
H880 C893 0.930 . S
H881 C894 0.930 . S
H882 C898 0.959 . S
H883 C898 0.959 . S
H884 C898 0.961 . S
H885 C899 0.960 . S
H886 C899 0.961 . S
H887 C899 0.959 . S
H888 C902 0.929 . S
H889 C903 0.931 . S
H890 C905 0.930 . S
C891 H879 0.930 . S
C891 C892 1.399 . S
C891 C896 1.399 . S
C892 C891 1.399 . S
C892 C893 1.376 1_455 S
C893 H880 0.930 . S
C893 C892 1.376 1_655 S
C893 C894 1.388 . S
C894 H881 0.930 . S
C894 C893 1.388 . S
C894 C895 1.387 1_655 S
C895 C894 1.387 1_455 S
C895 C896 1.399 . S
C895 C901 1.464 1_455 S
C896 C891 1.399 . S
C896 C895 1.399 . S
C896 C897 1.516 . S
C897 C896 1.516 . S
C897 C898 1.502 . S
C897 C899 1.561 . S
C897 C900 1.526 . S
C898 H882 0.959 . S
C898 H883 0.959 . S
C898 H884 0.961 . S
C898 C897 1.502 . S
C899 H885 0.960 . S
C899 H886 0.961 . S
C899 H887 0.959 . S
C899 C897 1.561 . S
C900 C897 1.526 . S
C900 C901 1.396 1_455 S
C900 C905 1.390 . S
C901 C895 1.464 1_655 S
C901 C900 1.396 1_655 S
C901 C902 1.399 . S
C902 H888 0.929 . S
C902 C901 1.399 . S
C902 C903 1.385 . S
C903 H889 0.931 . S
C903 C902 1.385 . S
C903 C904 1.389 1_655 S
C904 C903 1.389 1_455 S
C904 C905 1.387 . S
C905 H890 0.930 . S
C905 C900 1.390 . S
C905 C904 1.387 . S
C433 C2 1.063 . S
C445 C391 1.085 . S
C460 C21 0.992 . S
C472 C241 0.950 . S
C487 C42 1.108 . S
C499 C301 1.079 . S
C514 C1 1.038 . S
C526 C361 0.947 . S
C553 C271 1.110 . S
C541 C22 1.105 . S
C580 C331 1.014 . S
C568 C41 0.991 . S
C595 C38 1.896 . S
C607 C121 1.756 . S
C622 C59 1.969 . S
C634 C211 1.944 . S
C649 C18 1.884 . S
C661 C91 1.888 . S
C688 C151 1.953 . S
C676 C39 1.972 . S
C715 C181 1.787 . S
C703 C58 1.901 . S
C730 C19 1.956 . S
C742 C61 1.858 . S
C769 C200 1.478 1_554 S
C757 C9 1.460 . S
C784 C29 1.460 . S
C796 C80 1.562 . S
C811 C49 1.508 . S
C823 C140 1.537 . S
C850 C320 1.357 . S
C838 C28 1.384 . S
C877 C380 1.382 . S
C865 C48 1.329 . S
C892 C8 1.368 . S
C904 C260 1.383 . S
