# Generated by pormake.
# Topology pyr, (3,6)-cn, num edge types: 1
# Building blocks:
#     Node 0, Type 0, BuildingBlock: BELTOD_clean_linker_0, # of connection points: 3
#     Node 1, Type 0, BuildingBlock: BELTOD_clean_linker_0, # of connection points: 3
#     Node 2, Type 0, BuildingBlock: BELTOD_clean_linker_0, # of connection points: 3
#     Node 3, Type 0, BuildingBlock: BELTOD_clean_linker_0, # of connection points: 3
#     Node 4, Type 0, BuildingBlock: BELTOD_clean_linker_0, # of connection points: 3
#     Node 5, Type 0, BuildingBlock: BELTOD_clean_linker_0, # of connection points: 3
#     Node 6, Type 0, BuildingBlock: BELTOD_clean_linker_0, # of connection points: 3
#     Node 7, Type 0, BuildingBlock: BELTOD_clean_linker_0, # of connection points: 3
#     Node 8, Type 1, BuildingBlock: BETFAJ_clean_sbu_0, # of connection points: 6
#     Node 9, Type 1, BuildingBlock: BETFAJ_clean_sbu_0, # of connection points: 6
#     Node 10, Type 1, BuildingBlock: BETFAJ_clean_sbu_0, # of connection points: 6
#     Node 11, Type 1, BuildingBlock: BETFAJ_clean_sbu_0, # of connection points: 6
#     Edge 12, Type (0, 1), BuildingBlock: XUDNAN_clean_linker_2, # of connection points: 2
#     Edge 13, Type (0, 1), BuildingBlock: XUDNAN_clean_linker_2, # of connection points: 2
#     Edge 14, Type (0, 1), BuildingBlock: XUDNAN_clean_linker_2, # of connection points: 2
#     Edge 15, Type (0, 1), BuildingBlock: XUDNAN_clean_linker_2, # of connection points: 2
#     Edge 16, Type (0, 1), BuildingBlock: XUDNAN_clean_linker_2, # of connection points: 2
#     Edge 17, Type (0, 1), BuildingBlock: XUDNAN_clean_linker_2, # of connection points: 2
#     Edge 18, Type (0, 1), BuildingBlock: XUDNAN_clean_linker_2, # of connection points: 2
#     Edge 19, Type (0, 1), BuildingBlock: XUDNAN_clean_linker_2, # of connection points: 2
#     Edge 20, Type (0, 1), BuildingBlock: XUDNAN_clean_linker_2, # of connection points: 2
#     Edge 21, Type (0, 1), BuildingBlock: XUDNAN_clean_linker_2, # of connection points: 2
#     Edge 22, Type (0, 1), BuildingBlock: XUDNAN_clean_linker_2, # of connection points: 2
#     Edge 23, Type (0, 1), BuildingBlock: XUDNAN_clean_linker_2, # of connection points: 2
#     Edge 24, Type (0, 1), BuildingBlock: XUDNAN_clean_linker_2, # of connection points: 2
#     Edge 25, Type (0, 1), BuildingBlock: XUDNAN_clean_linker_2, # of connection points: 2
#     Edge 26, Type (0, 1), BuildingBlock: XUDNAN_clean_linker_2, # of connection points: 2
#     Edge 27, Type (0, 1), BuildingBlock: XUDNAN_clean_linker_2, # of connection points: 2
#     Edge 28, Type (0, 1), BuildingBlock: XUDNAN_clean_linker_2, # of connection points: 2
#     Edge 29, Type (0, 1), BuildingBlock: XUDNAN_clean_linker_2, # of connection points: 2
#     Edge 30, Type (0, 1), BuildingBlock: XUDNAN_clean_linker_2, # of connection points: 2
#     Edge 31, Type (0, 1), BuildingBlock: XUDNAN_clean_linker_2, # of connection points: 2
#     Edge 32, Type (0, 1), BuildingBlock: XUDNAN_clean_linker_2, # of connection points: 2
#     Edge 33, Type (0, 1), BuildingBlock: XUDNAN_clean_linker_2, # of connection points: 2
#     Edge 34, Type (0, 1), BuildingBlock: XUDNAN_clean_linker_2, # of connection points: 2
#     Edge 35, Type (0, 1), BuildingBlock: XUDNAN_clean_linker_2, # of connection points: 2
# Relax obj value: 0.104
# Max RMSD: 0.124
# Mean RMSD: 0.059
data_MOF--net-pyr--node1-BETFAJ_clean_sbu_0--node2-BELTOD_clean_linker_0--edge1-XUDNAN_clean_linker_2
_symmetry_space_group_name_H-M    P1
_symmetry_Int_Tables_number       1
_symmetry_cell_setting            triclinic
loop_
_symmetry_equiv_pos_as_xyz
'x, y, z'
_cell_length_a     43.365997
_cell_length_b     46.434214
_cell_length_c     41.977938
_cell_angle_alpha  91.292023
_cell_angle_beta   88.777014
_cell_angle_gamma 99.821527
loop_
_atom_site_label
_atom_site_type_symbol
_atom_site_fract_x
_atom_site_fract_y
_atom_site_fract_z
_atom_type_partial_charge
P0 P 0.35157 0.30452 0.24969 0.0
H1 H 0.4175 0.3015 0.23763 0.0
H2 H 0.44384 0.26586 0.21025 0.0
H3 H 0.35431 0.21848 0.17949 0.0
H4 H 0.32809 0.25287 0.20988 0.0
H5 H 0.34454 0.36536 0.25898 0.0
H6 H 0.30761 0.39379 0.23778 0.0
H7 H 0.27426 0.32291 0.1721 0.0
H8 H 0.31179 0.29489 0.19286 0.0
H9 H 0.35822 0.25693 0.29156 0.0
H10 H 0.28521 0.30471 0.26707 0.0
O11 O 0.37825 0.32537 0.27213 0.0
H12 H 0.32171 0.22684 0.32771 0.0
H13 H 0.24902 0.27508 0.30312 0.0
C14 C 0.37082 0.28023 0.22532 0.0
C15 C 0.40351 0.28356 0.22483 0.0
C16 C 0.41863 0.26312 0.20879 0.0
C17 C 0.40141 0.23914 0.19217 0.0
C18 C 0.36852 0.23629 0.19225 0.0
C19 C 0.35341 0.25639 0.20906 0.0
C20 C 0.33127 0.32802 0.22736 0.0
C21 C 0.3301 0.35628 0.23925 0.0
C22 C 0.30868 0.37242 0.22735 0.0
C23 C 0.2877 0.36046 0.20354 0.0
C24 C 0.29026 0.33288 0.19025 0.0
C25 C 0.3118 0.31675 0.20217 0.0
C26 C 0.32441 0.28276 0.27623 0.0
C27 C 0.33438 0.26093 0.29393 0.0
C28 C 0.31358 0.2439 0.3147 0.0
C29 C 0.28245 0.24851 0.31811 0.0
C30 C 0.2727 0.27068 0.30061 0.0
C31 C 0.29351 0.28773 0.27996 0.0
P32 P 0.37606 0.95129 0.56481 0.0
H33 H 0.42516 0.99545 0.59322 0.0
H34 H 0.43581 1.01108 0.6486 0.0
H35 H 0.36122 0.94319 0.6803 0.0
H36 H 0.35127 0.92752 0.62533 0.0
H37 H 0.42584 0.92864 0.52944 0.0
H38 H 0.43675 0.87916 0.52007 0.0
H39 H 0.35198 0.84417 0.57198 0.0
H40 H 0.34144 0.89364 0.5815 0.0
H41 H 0.33952 0.99163 0.59517 0.0
H42 H 0.32344 0.91929 0.52782 0.0
O43 O 0.39682 0.97479 0.53974 0.0
H44 H 0.28395 0.9944 0.59579 0.0
H45 H 0.26742 0.92162 0.52878 0.0
C46 C 0.38754 0.96023 0.60522 0.0
C47 C 0.41154 0.98363 0.61217 0.0
C48 C 0.41743 0.99267 0.64381 0.0
C49 C 0.3993 0.97845 0.6689 0.0
C50 C 0.376 0.95435 0.6617 0.0
C51 C 0.37024 0.94533 0.63018 0.0
C52 C 0.38263 0.91477 0.55578 0.0
C53 C 0.40943 0.91029 0.53847 0.0
C54 C 0.41559 0.882 0.53306 0.0
C55 C 0.39518 0.85776 0.54523 0.0
C56 C 0.3683 0.86241 0.56255 0.0
C57 C 0.36217 0.89068 0.56787 0.0
C58 C 0.33543 0.95455 0.56237 0.0
C59 C 0.32398 0.97616 0.58068 0.0
C60 C 0.29216 0.97763 0.58116 0.0
C61 C 0.2712 0.95775 0.56296 0.0
C62 C 0.28298 0.93708 0.54326 0.0
C63 C 0.31495 0.93562 0.54284 0.0
P64 P 0.65931 0.34126 0.8466 0.0
H65 H 0.72692 0.33778 0.85022 0.0
H66 H 0.77092 0.36576 0.87887 0.0
H67 H 0.70843 0.41853 0.92319 0.0
H68 H 0.66471 0.39096 0.89341 0.0
H69 H 0.60224 0.29592 0.8362 0.0
H70 H 0.5792 0.25197 0.86557 0.0
H71 H 0.64525 0.27698 0.94055 0.0
H72 H 0.66728 0.32115 0.91202 0.0
H73 H 0.68529 0.39133 0.80787 0.0
H74 H 0.59274 0.3434 0.82568 0.0
O75 O 0.67589 0.32119 0.81996 0.0
H76 H 0.66544 0.41719 0.76493 0.0
H77 H 0.57257 0.36948 0.78217 0.0
C78 C 0.69216 0.36242 0.86894 0.0
C79 C 0.72255 0.35551 0.86591 0.0
C80 C 0.74795 0.37148 0.88276 0.0
C81 C 0.74393 0.39494 0.9035 0.0
C82 C 0.71316 0.40126 0.90705 0.0
C83 C 0.6878 0.38532 0.89005 0.0
C84 C 0.63601 0.31313 0.87203 0.0
C85 C 0.61085 0.29288 0.85967 0.0
C86 C 0.59782 0.26732 0.87642 0.0
C87 C 0.61024 0.26057 0.90563 0.0
C88 C 0.63492 0.28116 0.91822 0.0
C89 C 0.64745 0.30687 0.90184 0.0
C90 C 0.64082 0.36528 0.82085 0.0
C91 C 0.66043 0.38681 0.80328 0.0
C92 C 0.64898 0.40157 0.77827 0.0
C93 C 0.61724 0.39559 0.76951 0.0
C94 C 0.59708 0.37504 0.78808 0.0
C95 C 0.60874 0.35991 0.81314 0.0
P96 P 0.82898 0.68931 0.3366 0.0
H97 H 0.8398 0.75344 0.32762 0.0
H98 H 0.87049 0.79497 0.3552 0.0
H99 H 0.90168 0.7358 0.42067 0.0
H100 H 0.87245 0.69435 0.39139 0.0
H101 H 0.8808 0.71073 0.29272 0.0
H102 H 0.90641 0.68874 0.24843 0.0
H103 H 0.85319 0.60419 0.27097 0.0
H104 H 0.82812 0.62644 0.31601 0.0
H105 H 0.81537 0.69 0.40671 0.0
H106 H 0.77654 0.64056 0.32469 0.0
O107 O 0.80607 0.70434 0.3128 0.0
H108 H 0.77328 0.66493 0.43997 0.0
H109 H 0.73416 0.61468 0.35827 0.0
C110 C 0.85314 0.72034 0.35749 0.0
C111 C 0.85331 0.74925 0.34786 0.0
C112 C 0.87088 0.77335 0.36406 0.0
C113 C 0.88895 0.76955 0.39076 0.0
C114 C 0.88887 0.74034 0.40008 0.0
C115 C 0.87172 0.71624 0.38344 0.0
C116 C 0.85253 0.6705 0.30843 0.0
C117 C 0.87504 0.68732 0.28876 0.0
C118 C 0.88946 0.67463 0.26287 0.0
C119 C 0.88179 0.64449 0.25526 0.0
C120 C 0.86004 0.62738 0.27576 0.0
C121 C 0.8455 0.64021 0.30176 0.0
C122 C 0.80055 0.66657 0.36297 0.0
C123 C 0.79855 0.67305 0.39578 0.0
C124 C 0.77393 0.65858 0.41503 0.0
C125 C 0.74997 0.63721 0.40227 0.0
C126 C 0.75185 0.63088 0.3693 0.0
C127 C 0.77663 0.64538 0.35004 0.0
P128 P 0.71046 0.8217 0.88144 0.0
H129 H 0.67918 0.83568 0.93933 0.0
H130 H 0.62971 0.85188 0.94937 0.0
H131 H 0.60322 0.82992 0.85176 0.0
H132 H 0.65415 0.8152 0.84161 0.0
H133 H 0.77124 0.81297 0.90132 0.0
H134 H 0.79046 0.77193 0.92411 0.0
H135 H 0.69637 0.72265 0.92611 0.0
H136 H 0.67729 0.76418 0.90249 0.0
H137 H 0.72989 0.86659 0.83486 0.0
H138 H 0.71065 0.77242 0.83604 0.0
O139 O 0.73193 0.85227 0.89598 0.0
H140 H 0.75254 0.86498 0.78175 0.0
H141 H 0.73237 0.77041 0.78185 0.0
C142 C 0.67042 0.82471 0.88972 0.0
C143 C 0.66241 0.8337 0.9203 0.0
C144 C 0.63377 0.84276 0.92602 0.0
C145 C 0.61225 0.84252 0.90128 0.0
C146 C 0.61942 0.83102 0.8712 0.0
C147 C 0.64844 0.82235 0.8654 0.0
C148 C 0.72281 0.79179 0.90097 0.0
C149 C 0.75463 0.79355 0.90719 0.0
C150 C 0.76555 0.77007 0.92038 0.0
C151 C 0.74485 0.74418 0.92749 0.0
C152 C 0.71284 0.74237 0.92103 0.0
C153 C 0.70189 0.76607 0.90776 0.0
C154 C 0.71955 0.81968 0.83964 0.0
C155 C 0.72985 0.84551 0.82327 0.0
C156 C 0.7425 0.84448 0.79258 0.0
C157 C 0.74464 0.81748 0.77745 0.0
C158 C 0.73165 0.79154 0.79301 0.0
C159 C 0.71916 0.79265 0.82394 0.0
P160 P 0.79285 0.21903 0.39426 0.0
H161 H 0.77293 0.26138 0.43952 0.0
H162 H 0.72162 0.2712 0.45593 0.0
H163 H 0.67818 0.19538 0.40131 0.0
H164 H 0.72956 0.18766 0.38258 0.0
H165 H 0.85313 0.20928 0.41731 0.0
H166 H 0.87036 0.16728 0.44065 0.0
H167 H 0.77712 0.11744 0.43109 0.0
H168 H 0.75984 0.15981 0.40916 0.0
H169 H 0.79075 0.26149 0.34502 0.0
H170 H 0.78419 0.16801 0.35049 0.0
O171 O 0.81897 0.24896 0.40232 0.0
H172 H 0.77441 0.25614 0.2895 0.0
H173 H 0.76682 0.16236 0.29585 0.0
C174 C 0.75511 0.2238 0.40988 0.0
C175 C 0.75235 0.24681 0.43123 0.0
C176 C 0.72281 0.25213 0.44096 0.0
C177 C 0.69543 0.23406 0.43004 0.0
C178 C 0.69854 0.21012 0.40982 0.0
C179 C 0.72805 0.20537 0.39943 0.0
C180 C 0.80512 0.1879 0.41176 0.0
C181 C 0.83633 0.1894 0.42047 0.0
C182 C 0.84622 0.16521 0.43354 0.0
C183 C 0.82513 0.13887 0.43762 0.0
C184 C 0.79386 0.13747 0.42874 0.0
C185 C 0.78395 0.16179 0.41602 0.0
C186 C 0.78897 0.21521 0.3518 0.0
C187 C 0.7866 0.23988 0.33401 0.0
C188 C 0.77696 0.23677 0.30239 0.0
C189 C 0.76912 0.20883 0.28821 0.0
C190 C 0.77315 0.18427 0.30572 0.0
C191 C 0.78296 0.18745 0.33722 0.0
P192 P 0.35805 0.68747 0.20651 0.0
H193 H 0.33639 0.68438 0.14117 0.0
H194 H 0.28787 0.66364 0.11488 0.0
H195 H 0.24579 0.63608 0.20561 0.0
H196 H 0.29504 0.65731 0.23215 0.0
H197 H 0.41801 0.72906 0.20316 0.0
H198 H 0.43239 0.77958 0.18531 0.0
H199 H 0.3345 0.78423 0.17529 0.0
H200 H 0.32049 0.73411 0.19373 0.0
H201 H 0.34055 0.62909 0.23351 0.0
H202 H 0.39556 0.71061 0.26418 0.0
O203 O 0.38356 0.67406 0.18251 0.0
H204 H 0.35879 0.6046 0.27831 0.0
H205 H 0.41454 0.68577 0.30946 0.0
C206 C 0.31991 0.67249 0.18879 0.0
C207 C 0.31685 0.67395 0.15564 0.0
C208 C 0.28883 0.66197 0.14052 0.0
C209 C 0.2625 0.64795 0.1579 0.0
C210 C 0.2655 0.64629 0.19125 0.0
C211 C 0.29374 0.65865 0.20653 0.0
C212 C 0.36801 0.72735 0.2004 0.0
C213 C 0.39954 0.74114 0.19785 0.0
C214 C 0.40781 0.77015 0.18703 0.0
C215 C 0.38484 0.78664 0.17836 0.0
C216 C 0.3532 0.77294 0.18192 0.0
C217 C 0.34499 0.74392 0.19266 0.0
C218 C 0.36551 0.67221 0.24548 0.0
C219 C 0.35565 0.64216 0.25052 0.0
C220 C 0.36661 0.62792 0.2762 0.0
C221 C 0.38842 0.64292 0.29793 0.0
C222 C 0.39752 0.67335 0.29373 0.0
C223 C 0.38652 0.68768 0.26769 0.0
P224 P 0.17504 0.34327 0.72064 0.0
H225 H 0.19311 0.30202 0.67224 0.0
H226 H 0.16546 0.2568 0.64743 0.0
H227 H 0.07918 0.2728 0.6918 0.0
H228 H 0.10687 0.31784 0.71633 0.0
H229 H 0.24123 0.36859 0.73186 0.0
H230 H 0.28364 0.39301 0.69781 0.0
H231 H 0.21764 0.39511 0.62257 0.0
H232 H 0.17569 0.36936 0.65646 0.0
H233 H 0.12967 0.32312 0.77149 0.0
H234 H 0.17242 0.40665 0.73505 0.0
O235 O 0.19527 0.3252 0.74428 0.0
H236 H 0.10561 0.34731 0.81516 0.0
H237 H 0.14874 0.43135 0.77951 0.0
C238 C 0.15234 0.31378 0.69638 0.0
C239 C 0.16806 0.29623 0.67605 0.0
C240 C 0.15214 0.27017 0.66178 0.0
C241 C 0.11995 0.26052 0.66773 0.0
C242 C 0.10403 0.27893 0.68695 0.0
C243 C 0.11993 0.30504 0.70102 0.0
C244 C 0.20505 0.36651 0.69673 0.0
C245 C 0.23575 0.37443 0.70807 0.0
C246 C 0.2602 0.38872 0.68846 0.0
C247 C 0.25476 0.39584 0.65682 0.0
C248 C 0.22344 0.38937 0.64629 0.0
C249 C 0.19906 0.37485 0.66586 0.0
C250 C 0.15252 0.36278 0.74916 0.0
C251 C 0.13339 0.34679 0.77239 0.0
C252 C 0.11993 0.36082 0.7979 0.0
C253 C 0.1253 0.39157 0.80161 0.0
C254 C 0.1437 0.40773 0.77769 0.0
C255 C 0.1573 0.39353 0.75202 0.0
Sm256 Sm 0.01696 1.02499 0.5026 0.0
Sm257 Sm 0.99779 0.99595 0.56515 0.0
C258 C 0.02791 0.05915 0.45244 0.0
C259 C 0.05362 0.08228 0.44251 0.0
C260 C 0.06898 0.10253 0.46476 0.0
C261 C 0.09524 0.1226 0.45553 0.0
C262 C 0.10675 0.12264 0.42395 0.0
C263 C 0.09086 0.10271 0.40163 0.0
C264 C 0.06452 0.08274 0.41085 0.0
C265 C 0.06106 0.99583 0.52692 0.0
C266 C 0.03197 0.06569 0.56836 0.0
C267 C 0.98931 0.96987 0.62047 0.0
C268 C 0.96593 0.94533 0.63217 0.0
C269 C 0.9625 0.9174 0.61752 0.0
C270 C 0.93799 0.89536 0.62672 0.0
C271 C 0.91631 0.90103 0.65033 0.0
C272 C 0.92025 0.92866 0.6655 0.0
C273 C 0.94492 0.95054 0.65662 0.0
C274 C 0.9485 1.0087 0.531 0.0
C275 C 0.98634 0.95622 0.50047 0.0
O276 O 0.01093 0.06498 0.47704 0.0
O277 O 0.03479 0.03289 0.453 0.0
O278 O 0.04508 1.01142 0.54286 0.0
O279 O 0.0553 0.99649 0.49684 0.0
O280 O 0.03666 0.06404 0.53705 0.0
O281 O 0.01729 0.04274 0.58409 0.0
O282 O 0.00966 0.96364 0.59892 0.0
O283 O 0.97841 0.99378 0.61447 0.0
O284 O 0.97475 1.02456 0.53411 0.0
O285 O 0.94624 0.98575 0.54841 0.0
O286 O 0.99696 0.95675 0.52985 0.0
O287 O 0.98554 0.98119 0.48595 0.0
H288 H 0.0611 0.10253 0.48941 0.0
H289 H 0.10665 0.13793 0.4732 0.0
H290 H 0.09934 0.10186 0.37723 0.0
H291 H 0.05314 0.0671 0.39344 0.0
H292 H 0.97822 0.91273 0.59844 0.0
H293 H 0.93542 0.8742 0.61475 0.0
H294 H 0.90412 0.93339 0.6842 0.0
H295 H 0.9471 0.97183 0.66829 0.0
Sm296 Sm 0.51915 0.02587 0.05892 0.0
Sm297 Sm 0.46242 0.02887 0.03173 0.0
C298 C 0.57345 0.035 0.0885 0.0
C299 C 0.59542 0.05975 0.10145 0.0
C300 C 0.59549 0.08834 0.09123 0.0
C301 C 0.61634 0.11168 0.10437 0.0
C302 C 0.63728 0.10674 0.128 0.0
C303 C 0.63699 0.07795 0.138 0.0
C304 C 0.6163 0.0547 0.12477 0.0
C305 C 0.47511 0.97726 0.07663 0.0
C306 C 0.47675 0.07037 0.08997 0.0
C307 C 0.40837 1.01845 1.00192 0.0
C308 C 0.40167 1.01388 0.96769 0.0
C309 C 0.41589 0.99394 0.94927 0.0
C310 C 0.41368 0.9931 0.91616 0.0
C311 C 0.39722 1.01216 0.90071 0.0
C312 C 0.38186 0.03121 0.91924 0.0
C313 C 0.38407 0.03204 0.95245 0.0
C314 C 0.50673 0.07629 1.01126 0.0
C315 C 0.50797 0.9882 0.99561 0.0
O316 O 0.57101 0.03353 0.05755 0.0
O317 O 0.54649 0.02878 0.10341 0.0
O318 O 0.46995 1.00352 0.07642 0.0
O319 O 0.50337 0.97653 0.06673 0.0
O320 O 0.50528 0.06786 0.08061 0.0
O321 O 0.45316 0.05158 0.07897 0.0
O322 O 0.42029 0.99811 1.01589 0.0
O323 O 0.42217 0.04469 1.01006 0.0
O324 O 0.51184 0.05019 1.01371 0.0
O325 O 0.47793 0.07742 1.01898 0.0
O326 O 0.47983 0.99499 0.99776 0.0
O327 O 0.52985 0.99936 1.01545 0.0
H328 H 0.57935 0.09259 0.07324 0.0
H329 H 0.61605 0.13354 0.09606 0.0
H330 H 0.65222 0.0734 0.15668 0.0
H331 H 0.61634 0.03276 0.13304 0.0
H332 H 0.42977 0.97972 0.96023 0.0
H333 H 0.42608 0.97839 0.90262 0.0
H334 H 0.36862 0.04586 0.90803 0.0
H335 H 0.37301 0.04765 0.96615 0.0
Sm336 Sm 0.51077 0.4885 0.50666 0.0
Sm337 Sm 0.49563 0.54137 0.55357 0.0
C338 C 0.53998 0.45508 0.46949 0.0
C339 C 0.54525 0.42455 0.46889 0.0
C340 C 0.57568 0.41895 0.47284 0.0
C341 C 0.58143 0.39034 0.47253 0.0
C342 C 0.55689 0.36671 0.46799 0.0
C343 C 0.52638 0.37223 0.464 0.0
C344 C 0.52055 0.40094 0.46461 0.0
C345 C 0.45347 0.47163 0.53884 0.0
C346 C 0.53077 0.48941 0.58384 0.0
C347 C 0.46434 0.57593 0.5868 0.0
C348 C 0.45456 0.60381 0.57908 0.0
C349 C 0.44163 0.6075 0.54931 0.0
C350 C 0.43454 0.63453 0.54112 0.0
C351 C 0.44041 0.65854 0.56241 0.0
C352 C 0.45288 0.65467 0.59241 0.0
C353 C 0.45988 0.62752 0.60065 0.0
C354 C 0.55254 0.55727 0.51967 0.0
C355 C 0.47908 0.54224 0.47552 0.0
O356 O 0.55398 0.47194 0.49223 0.0
O357 O 0.51155 0.45968 0.46399 0.0
O358 O 0.4724 0.4955 0.54153 0.0
O359 O 0.46523 0.45547 0.51773 0.0
O360 O 0.53385 0.47935 0.55417 0.0
O361 O 0.51511 0.51134 0.59037 0.0
O362 O 0.45067 0.55282 0.57082 0.0
O363 O 0.49452 0.57678 0.58995 0.0
O364 O 0.53256 0.53418 0.51788 0.0
O365 O 0.54266 0.57347 0.54207 0.0
O366 O 0.47527 0.55327 0.50468 0.0
O367 O 0.49367 0.51948 0.4708 0.0
H368 H 0.59512 0.43677 0.47597 0.0
H369 H 0.60531 0.38677 0.47493 0.0
H370 H 0.5071 0.35436 0.46036 0.0
H371 H 0.49678 0.40458 0.46158 0.0
H372 H 0.43733 0.58962 0.5321 0.0
H373 H 0.42452 0.63661 0.51804 0.0
H374 H 0.45804 0.67282 0.60921 0.0
H375 H 0.47006 0.6252 0.6236 0.0
Sm376 Sm 1.00649 0.49229 0.04854 0.0
Sm377 Sm 1.00315 0.5489 1.006 0.0
C378 C 0.0216 0.44321 0.06945 0.0
C379 C 0.04945 0.43496 0.08388 0.0
C380 C 0.07978 0.44512 0.07186 0.0
C381 C 0.10596 0.43893 0.08759 0.0
C382 C 0.10221 0.42288 0.11581 0.0
C383 C 0.07183 0.41233 0.1274 0.0
C384 C 0.04571 0.41823 0.11151 0.0
C385 C 0.97514 0.5313 0.08311 0.0
C386 C 0.06415 0.55104 0.05314 0.0
C387 C 0.98715 0.59736 0.98508 0.0
C388 C 0.95711 0.60817 0.98252 0.0
C389 C 0.94356 0.62098 1.0088 0.0
C390 C 0.91424 0.62939 1.00633 0.0
C391 C 0.89799 0.62529 0.97751 0.0
C392 C 0.91187 0.61306 0.95111 0.0
C393 C 0.9411 0.60471 0.95356 0.0
C394 C 0.03438 0.50968 0.97126 0.0
C395 C 0.94326 0.4931 1.00534 0.0
O396 O 0.02376 0.45044 0.03946 0.0
O397 O 1.00682 0.46024 0.08698 0.0
O398 O 0.98652 0.53393 0.05496 0.0
O399 O 0.97968 0.50628 0.09351 0.0
O400 O 0.05419 0.52316 0.06075 0.0
O401 O 0.04818 0.56515 0.03388 0.0
O402 O 0.99821 0.5955 1.01367 0.0
O403 O 0.99036 0.57497 0.96655 0.0
O404 O 0.02298 0.50722 0.99941 0.0
O405 O 0.02996 0.53474 0.9609 0.0
O406 O 0.95373 0.52133 1.00109 0.0
O407 O 0.96018 0.47624 1.02021 0.0
H408 H 0.08331 0.45837 0.05075 0.0
H409 H 0.12913 0.44748 0.07831 0.0
H410 H 0.06829 0.39965 0.14893 0.0
H411 H 0.02255 0.41027 0.12121 0.0
H412 H 0.95543 0.62434 0.03134 0.0
H413 H 0.90417 0.63885 0.02706 0.0
H414 H 0.90035 0.61033 0.92833 0.0
H415 H 0.95109 0.59532 0.93272 0.0
H416 H 0.22167 0.22428 0.30612 0.0
H417 H 0.29269 0.23122 0.37849 0.0
H418 H 0.25508 0.20064 0.41414 0.0
H419 H 0.15616 0.22793 0.35963 0.0
H420 H 0.12942 0.2019 0.33669 0.0
H421 H 0.16191 0.22449 0.31714 0.0
H422 H 0.18059 0.17819 0.29357 0.0
H423 H 0.14818 0.15546 0.31304 0.0
H424 H 0.18763 0.15001 0.31996 0.0
H425 H 0.20971 0.16894 0.44155 0.0
H426 H 0.16055 0.13741 0.45817 0.0
H427 H 0.11904 0.15262 0.36817 0.0
C428 C 0.22923 0.21963 0.32959 0.0
C429 C 0.26006 0.23017 0.3396 0.0
C430 C 0.26924 0.22313 0.37026 0.0
C431 C 0.24801 0.20595 0.39072 0.0
C432 C 0.21776 0.19599 0.3801 0.0
C433 C 0.20841 0.20253 0.35024 0.0
C434 C 0.1748 0.18871 0.34428 0.0
C435 C 0.15437 0.21216 0.33914 0.0
C436 C 0.17269 0.16679 0.31605 0.0
C437 C 0.16666 0.17333 0.37548 0.0
C438 C 0.1917 0.17783 0.39586 0.0
C439 C 0.18988 0.1654 0.42587 0.0
C440 C 0.16177 0.14769 0.43517 0.0
C441 C 0.13587 0.14259 0.41453 0.0
C442 C 0.13846 0.15584 0.3844 0.0
H443 H 0.39691 0.94655 0.72349 0.0
H444 H 0.40929 0.0356 0.68983 0.0
H445 H 0.41082 0.05403 0.74548 0.0
H446 H 0.34499 0.95661 0.78757 0.0
H447 H 0.3604 0.93286 0.81418 0.0
H448 H 0.36262 0.92672 0.77176 0.0
H449 H 0.42273 0.92962 0.7747 0.0
H450 H 0.42067 0.93556 0.81719 0.0
H451 H 0.44612 0.96133 0.79287 0.0
H452 H 0.40829 0.06258 0.80482 0.0
H453 H 0.40459 0.06071 0.86354 0.0
H454 H 0.39161 0.96594 0.85801 0.0
C455 C 0.40006 0.96994 0.72777 0.0
C456 C 0.40307 0.98962 0.70225 0.0
C457 C 0.40746 1.02009 0.70895 0.0
C458 C 0.4081 0.03077 0.74049 0.0
C459 C 0.40434 1.01071 0.76503 0.0
C460 C 0.40061 0.98095 0.75904 0.0
C461 C 0.39626 0.96396 0.78961 0.0
C462 C 0.36416 0.94386 0.79084 0.0
C463 C 0.42305 0.9466 0.79383 0.0
C464 C 0.39788 0.98882 0.81376 0.0
C465 C 0.40257 1.01561 0.79913 0.0
C466 C 0.40462 0.04172 0.81656 0.0
C467 C 0.40219 0.04042 0.84987 0.0
C468 C 0.3977 1.01318 0.86539 0.0
C469 C 0.39533 0.98711 0.84691 0.0
H470 H 0.56508 0.42368 0.75784 0.0
H471 H 0.64607 0.39673 0.71123 0.0
H472 H 0.63275 0.41775 0.6611 0.0
H473 H 0.51315 0.41097 0.68906 0.0
H474 H 0.4953 0.44286 0.69644 0.0
H475 H 0.51023 0.42515 0.72914 0.0
H476 H 0.5449 0.47396 0.74545 0.0
H477 H 0.53013 0.4918 0.71275 0.0
H478 H 0.57169 0.4932 0.71659 0.0
H479 H 0.61105 0.44068 0.61511 0.0
H480 H 0.58332 0.46534 0.57647 0.0
H481 H 0.51619 0.48132 0.65018 0.0
C482 C 0.5799 0.42208 0.73702 0.0
C483 C 0.60696 0.40836 0.73902 0.0
C484 C 0.62557 0.40717 0.71093 0.0
C485 C 0.61808 0.41905 0.68208 0.0
C486 C 0.59178 0.43262 0.68098 0.0
C487 C 0.57293 0.43441 0.70765 0.0
C488 C 0.5464 0.45099 0.69944 0.0
C489 C 0.51436 0.43132 0.70379 0.0
C490 C 0.5484 0.47916 0.71977 0.0
C491 C 0.5533 0.458 0.66413 0.0
C492 C 0.57958 0.44687 0.65421 0.0
C493 C 0.59054 0.44956 0.62275 0.0
C494 C 0.57442 0.46371 0.60079 0.0
C495 C 0.54739 0.4757 0.60973 0.0
C496 C 0.5369 0.47288 0.64227 0.0
H497 H 0.8997 0.5895 0.245 0.0
H498 H 0.8945 0.67006 0.19658 0.0
H499 H 0.917 0.65062 0.14791 0.0
H500 H 0.97299 0.57765 0.20892 0.0
H501 H 0.96169 0.53852 0.20571 0.0
H502 H 0.94491 0.55866 0.23681 0.0
H503 H 0.88931 0.53679 0.21773 0.0
H504 H 0.90594 0.51658 0.18658 0.0
H505 H 0.87932 0.54078 0.17678 0.0
H506 H 0.94088 0.62166 0.10282 0.0
H507 H 0.96381 0.58648 0.06791 0.0
H508 H 0.95333 0.52497 0.14496 0.0
C509 C 0.90306 0.60307 0.22417 0.0
C510 C 0.89532 0.6317 0.22534 0.0
C511 C 0.90059 0.64843 0.19713 0.0
C512 C 0.91325 0.63742 0.16901 0.0
C513 C 0.92079 0.60936 0.16881 0.0
C514 C 0.91588 0.59241 0.19575 0.0
C515 C 0.92633 0.56305 0.18935 0.0
C516 C 0.95307 0.55926 0.21152 0.0
C517 C 0.89857 0.53781 0.19282 0.0
C518 C 0.9378 0.56609 0.15477 0.0
C519 C 0.93439 0.59295 0.14321 0.0
C520 C 0.94358 0.6006 0.11183 0.0
C521 C 0.95662 0.58048 0.092 0.0
C522 C 0.9605 0.55286 0.10334 0.0
C523 C 0.95074 0.54581 0.13526 0.0
H524 H 0.38026 0.17969 0.18255 0.0
H525 H 0.45976 0.24823 0.16308 0.0
H526 H 0.48822 0.21173 0.13879 0.0
H527 H 0.42227 0.12198 0.19853 0.0
H528 H 0.39565 0.09419 0.17767 0.0
H529 H 0.38161 0.12528 0.19549 0.0
H530 H 0.36032 0.13741 0.14107 0.0
H531 H 0.37397 0.10617 0.12316 0.0
H532 H 0.38631 0.14192 0.10678 0.0
H533 H 0.50893 0.16814 0.11809 0.0
H534 H 0.51819 0.12108 0.09529 0.0
H535 H 0.42354 0.08115 0.12232 0.0
C536 C 0.40347 0.18729 0.17288 0.0
C537 C 0.4178 0.21707 0.17554 0.0
C538 C 0.44843 0.22559 0.16257 0.0
C539 C 0.46481 0.205 0.14842 0.0
C540 C 0.45014 0.17595 0.14671 0.0
C541 C 0.41996 0.16713 0.15795 0.0
C542 C 0.40907 0.13474 0.15139 0.0
C543 C 0.40172 0.11807 0.18264 0.0
C544 C 0.38074 0.12977 0.12928 0.0
C545 C 0.43795 0.1268 0.13476 0.0
C546 C 0.46149 0.15089 0.13287 0.0
C547 C 0.49062 0.14915 0.11921 0.0
C548 C 0.49568 0.12222 0.10648 0.0
C549 C 0.47155 0.09741 0.10697 0.0
C550 C 0.44237 0.09974 0.12156 0.0
H551 H 0.23029 0.95363 0.51346 0.0
H552 H 0.23565 0.96492 0.61621 0.0
H553 H 0.18024 0.9711 0.61873 0.0
H554 H 0.18496 1.00665 0.50064 0.0
H555 H 0.16174 0.98696 0.46948 0.0
H556 H 0.20063 0.98004 0.47607 0.0
H557 H 0.17888 0.92493 0.48305 0.0
H558 H 0.13984 0.93169 0.47635 0.0
H559 H 0.14818 0.91389 0.51211 0.0
H560 H 0.12632 0.98115 0.60957 0.0
H561 H 0.07748 0.9941 0.58914 0.0
H562 H 0.10678 0.9748 0.49267 0.0
C563 C 0.21957 0.95664 0.53656 0.0
C564 C 0.23726 0.95886 0.56462 0.0
C565 C 0.2226 0.96349 0.59436 0.0
C566 C 0.19109 0.96676 0.59607 0.0
C567 C 0.17449 0.96506 0.56788 0.0
C568 C 0.18813 0.95989 0.5387 0.0
C569 C 0.16577 0.96107 0.51176 0.0
C570 C 0.17908 0.98511 0.48811 0.0
C571 C 0.15769 0.93111 0.49483 0.0
C572 C 0.13784 0.96868 0.53025 0.0
C573 C 0.14319 0.97056 0.56263 0.0
C574 C 0.12163 0.97928 0.58433 0.0
C575 C 0.09405 0.98665 0.57254 0.0
C576 C 0.08845 0.98529 0.53942 0.0
C577 C 0.11035 0.97567 0.51816 0.0
H578 H 0.79939 0.37888 0.92653 0.0
H579 H 0.75254 0.4539 0.91807 0.0
H580 H 0.7964 0.48485 0.94473 0.0
H581 H 0.83402 0.3991 1.00405 0.0
H582 H 0.87051 0.38702 0.99437 0.0
H583 H 0.83502 0.3698 0.97533 0.0
H584 H 0.86097 0.38128 0.92 0.0
H585 H 0.89656 0.39844 0.93886 0.0
H586 H 0.87788 0.41844 0.91084 0.0
H587 H 0.8456 0.5088 0.97104 0.0
H588 H 0.89712 0.52441 0.99466 0.0
H589 H 0.91537 0.43537 0.98703 0.0
C590 C 0.79826 0.40182 0.93016 0.0
C591 C 0.77158 0.41347 0.92024 0.0
C592 C 0.7717 0.44378 0.92588 0.0
C593 C 0.79686 0.4618 0.9409 0.0
C594 C 0.8224 0.44964 0.95041 0.0
C595 C 0.82346 0.42037 0.94526 0.0
C596 C 0.8543 0.41327 0.95757 0.0
C597 C 0.84808 0.39097 0.98443 0.0
C598 C 0.87357 0.4022 0.93018 0.0
C599 C 0.87035 0.44314 0.97027 0.0
C600 C 0.85126 0.46366 0.96577 0.0
C601 C 0.86064 0.49286 0.9747 0.0
C602 C 0.89024 0.50154 0.98818 0.0
C603 C 0.91084 0.48134 0.99304 0.0
C604 C 0.90035 0.45148 0.98414 0.0
H605 H 0.68623 0.61828 0.3887 0.0
H606 H 0.75321 0.62083 0.46459 0.0
H607 H 0.71096 0.59851 0.50079 0.0
H608 H 0.62263 0.63519 0.43732 0.0
H609 H 0.59256 0.61067 0.41661 0.0
H610 H 0.62814 0.62603 0.39586 0.0
H611 H 0.63754 0.57402 0.38002 0.0
H612 H 0.60198 0.55851 0.40081 0.0
H613 H 0.63851 0.54757 0.4106 0.0
H614 H 0.66099 0.5784 0.53049 0.0
H615 H 0.60713 0.5616 0.55086 0.0
H616 H 0.57111 0.56901 0.45651 0.0
C617 C 0.69219 0.61381 0.41279 0.0
C618 C 0.72358 0.62189 0.4235 0.0
C619 C 0.72969 0.6157 0.45554 0.0
C620 C 0.70571 0.60268 0.4764 0.0
C621 C 0.67524 0.59544 0.46525 0.0
C622 C 0.66833 0.60062 0.43414 0.0
C623 C 0.63327 0.59116 0.42865 0.0
C624 C 0.61827 0.61732 0.41904 0.0
C625 C 0.62749 0.56634 0.40352 0.0
C626 C 0.62157 0.58028 0.46158 0.0
C627 C 0.64635 0.58295 0.48225 0.0
C628 C 0.64155 0.57582 0.51434 0.0
C629 C 0.61082 0.56614 0.52573 0.0
C630 C 0.5849 0.56312 0.50526 0.0
C631 C 0.5905 0.57013 0.47259 0.0
H632 H 0.2634 0.36631 0.14417 0.0
H633 H 0.25103 0.38676 0.24458 0.0
H634 H 0.20423 0.40763 0.23238 0.0
H635 H 0.2362 0.43131 0.11362 0.0
H636 H 0.21668 0.41145 0.08031 0.0
H637 H 0.25086 0.40024 0.09646 0.0
H638 H 0.2195 0.34816 0.10474 0.0
H639 H 0.18524 0.35921 0.08876 0.0
H640 H 0.18351 0.34361 0.12782 0.0
H641 H 0.15653 0.42232 0.21044 0.0
H642 H 0.11173 0.43192 0.17942 0.0
H643 H 0.15457 0.40254 0.09301 0.0
C644 C 0.25102 0.37547 0.16351 0.0
C645 C 0.26113 0.37517 0.1953 0.0
C646 C 0.24421 0.38731 0.21996 0.0
C647 C 0.21745 0.39907 0.21331 0.0
C648 C 0.20793 0.39871 0.18184 0.0
C649 C 0.22428 0.38748 0.15727 0.0
C650 C 0.20826 0.38887 0.1257 0.0
C651 C 0.22925 0.40918 0.10266 0.0
C652 C 0.19855 0.35813 0.1109 0.0
C653 C 0.17998 0.40194 0.13657 0.0
C654 C 0.18036 0.40752 0.16905 0.0
C655 C 0.1561 0.41833 0.18494 0.0
C656 C 0.13069 0.42353 0.16719 0.0
C657 C 0.12976 0.41798 0.13389 0.0
C658 C 0.15491 0.40731 0.11839 0.0
H659 H 0.54958 0.23139 0.92098 0.0
H660 H 0.64729 0.22299 0.92684 0.0
H661 H 0.63207 0.17529 0.95281 0.0
H662 H 0.52691 0.20016 0.99849 0.0
H663 H 0.48896 0.18184 0.98593 0.0
H664 H 0.50738 0.21479 0.96665 0.0
H665 H 0.50222 0.1877 0.91197 0.0
H666 H 0.48384 0.15466 0.93113 0.0
H667 H 0.51828 0.15457 0.90635 0.0
H668 H 0.60565 0.12659 0.97763 0.0
H669 H 0.57096 0.08444 1.00211 0.0
H670 H 0.49055 0.12528 0.98388 0.0
C671 C 0.56777 0.21946 0.92759 0.0
C672 C 0.59984 0.23132 0.92158 0.0
C673 C 0.62268 0.21482 0.93116 0.0
C674 C 0.6142 0.18747 0.94589 0.0
C675 C 0.58256 0.1765 0.95159 0.0
C676 C 0.55968 0.19217 0.94303 0.0
C677 C 0.52742 0.17594 0.9531 0.0
C678 C 0.51175 0.19428 0.97749 0.0
C679 C 0.50672 0.16773 0.9239 0.0
C680 C 0.53566 0.14872 0.96836 0.0
C681 C 0.5676 0.14927 0.96695 0.0
C682 C 0.58062 0.12615 0.97891 0.0
C683 C 0.5607 0.10212 0.99274 0.0
C684 C 0.52791 0.10123 0.99512 0.0
C685 C 0.51548 0.1251 0.98266 0.0
H686 H 0.87931 0.82824 0.39675 0.0
H687 H 0.94349 0.77122 0.42467 0.0
H688 H 0.97386 0.81195 0.45455 0.0
H689 H 0.94025 0.89235 0.38478 0.0
H690 H 0.91624 0.918 0.39955 0.0
H691 H 0.89834 0.88414 0.38078 0.0
H692 H 0.86327 0.87163 0.43088 0.0
H693 H 0.88108 0.90542 0.4498 0.0
H694 H 0.88116 0.8712 0.4692 0.0
H695 H 0.9969 0.85838 0.48376 0.0
H696 H 0.01253 0.90773 0.50722 0.0
H697 H 0.93763 0.9377 0.45748 0.0
C698 C 0.8999 0.82413 0.40876 0.0
C699 C 0.90812 0.79556 0.40833 0.0
C700 C 0.93543 0.79201 0.42498 0.0
C701 C 0.9533 0.81534 0.44195 0.0
C702 C 0.94435 0.8428 0.442 0.0
C703 C 0.9185 0.84749 0.42555 0.0
C704 C 0.91455 0.87954 0.42917 0.0
C705 C 0.91752 0.89438 0.39663 0.0
C706 C 0.88315 0.88209 0.44575 0.0
C707 C 0.94207 0.89201 0.45038 0.0
C708 C 0.95871 0.87019 0.45763 0.0
C709 C 0.9842 0.87564 0.47791 0.0
C710 C 0.99292 0.90387 0.49121 0.0
C711 C 0.97672 0.92695 0.48406 0.0
C712 C 0.95097 0.92082 0.46303 0.0
H713 H 0.39001 0.81472 0.58952 0.0
H714 H 0.41691 0.83331 0.49095 0.0
H715 H 0.43035 0.78386 0.48417 0.0
H716 H 0.45005 0.77442 0.60603 0.0
H717 H 0.42573 0.74841 0.63103 0.0
H718 H 0.41725 0.78484 0.62778 0.0
H719 H 0.36085 0.76369 0.61015 0.0
H720 H 0.3691 0.72716 0.61349 0.0
H721 H 0.35509 0.73863 0.57652 0.0
H722 H 0.44204 0.73288 0.48867 0.0
H723 H 0.45156 0.68426 0.50414 0.0
H724 H 0.41558 0.69879 0.59944 0.0
C725 C 0.39829 0.80826 0.56636 0.0
C726 C 0.40236 0.82782 0.54072 0.0
C727 C 0.41389 0.81874 0.51099 0.0
C728 C 0.4214 0.79068 0.50686 0.0
C729 C 0.41723 0.772 0.5327 0.0
C730 C 0.4059 0.7804 0.56185 0.0
C731 C 0.40427 0.75649 0.58603 0.0
C732 C 0.4256 0.76666 0.61438 0.0
C733 C 0.37031 0.74586 0.59719 0.0
C734 C 0.41669 0.73337 0.566 0.0
C735 C 0.42392 0.74268 0.53529 0.0
C736 C 0.43625 0.72526 0.51259 0.0
C737 C 0.44141 0.69761 0.52157 0.0
C738 C 0.43423 0.68763 0.553 0.0
C739 C 0.4216 0.70584 0.57535 0.0
H740 H 0.75041 0.85514 0.72739 0.0
H741 H 0.78513 0.77966 0.76226 0.0
H742 H 0.82779 0.78712 0.72233 0.0
H743 H 0.78098 0.85143 0.64077 0.0
H744 H 0.79136 0.89071 0.64054 0.0
H745 H 0.75762 0.87364 0.66321 0.0
H746 H 0.78015 0.90189 0.71379 0.0
H747 H 0.81403 0.9186 0.69161 0.0
H748 H 0.81866 0.89813 0.72666 0.0
H749 H 0.87346 0.80941 0.68933 0.0
H750 H 0.91723 0.84439 0.66626 0.0
H751 H 0.85521 0.90733 0.65563 0.0
C752 C 0.76635 0.83957 0.72589 0.0
C753 C 0.76433 0.81687 0.74806 0.0
C754 C 0.78566 0.79693 0.74525 0.0
C755 C 0.81018 0.80107 0.72262 0.0
C756 C 0.81298 0.82511 0.70285 0.0
C757 C 0.79133 0.84385 0.70396 0.0
C758 C 0.80252 0.87096 0.68476 0.0
C759 C 0.78189 0.87172 0.65558 0.0
C760 C 0.80394 0.89902 0.70546 0.0
C761 C 0.83484 0.86568 0.67487 0.0
C762 C 0.84005 0.83865 0.68447 0.0
C763 C 0.86938 0.83027 0.68093 0.0
C764 C 0.89411 0.85026 0.66791 0.0
C765 C 0.88942 0.87844 0.65929 0.0
C766 C 0.85925 0.88582 0.66199 0.0
H767 H 0.77642 0.16906 0.2404 0.0
H768 H 0.7243 0.2382 0.26658 0.0
H769 H 0.69045 0.22497 0.22042 0.0
H770 H 0.76582 0.17099 0.1508 0.0
H771 H 0.76118 0.1317 0.14775 0.0
H772 H 0.78635 0.15133 0.17752 0.0
H773 H 0.75538 0.11957 0.22142 0.0
H774 H 0.73 0.10011 0.19199 0.0
H775 H 0.71364 0.11808 0.22519 0.0
H776 H 0.65569 0.19812 0.17933 0.0
H777 H 0.62366 0.16035 0.14624 0.0
H778 H 0.69788 0.10838 0.14626 0.0
C779 C 0.75847 0.18197 0.23587 0.0
C780 C 0.7532 0.20478 0.25704 0.0
C781 C 0.72933 0.22105 0.25038 0.0
C782 C 0.70984 0.21362 0.22421 0.0
C783 C 0.71467 0.19006 0.20474 0.0
C784 C 0.73869 0.17469 0.21001 0.0
C785 C 0.7363 0.14786 0.18845 0.0
C786 C 0.76406 0.15065 0.16471 0.0
C787 C 0.73365 0.11977 0.20794 0.0
C788 C 0.70612 0.14953 0.17173 0.0
C789 C 0.69437 0.17437 0.18087 0.0
C790 C 0.66506 0.17901 0.17125 0.0
C791 C 0.64704 0.15743 0.15238 0.0
C792 C 0.65828 0.13141 0.14357 0.0
C793 C 0.68862 0.128 0.15263 0.0
H794 H 0.4009 0.65365 0.36401 0.0
H795 H 0.41155 0.59277 0.2862 0.0
H796 H 0.43516 0.56238 0.32259 0.0
H797 H 0.47392 0.64712 0.40466 0.0
H798 H 0.45743 0.64841 0.44435 0.0
H799 H 0.44185 0.66656 0.4124 0.0
H800 H 0.3867 0.6375 0.42452 0.0
H801 H 0.40226 0.61925 0.45641 0.0
H802 H 0.38091 0.59812 0.42493 0.0
H803 H 0.45759 0.53774 0.36627 0.0
H804 H 0.47693 0.51957 0.41495 0.0
H805 H 0.45244 0.59394 0.46844 0.0
C806 C 0.40838 0.63401 0.35464 0.0
C807 C 0.40386 0.62575 0.32176 0.0
C808 C 0.41404 0.59966 0.31096 0.0
C809 C 0.42773 0.58217 0.33158 0.0
C810 C 0.43139 0.59056 0.36357 0.0
C811 C 0.42203 0.6158 0.37531 0.0
C812 C 0.42841 0.6189 0.41125 0.0
C813 C 0.4518 0.64692 0.41859 0.0
C814 C 0.39774 0.61841 0.43041 0.0
C815 C 0.44277 0.59155 0.41759 0.0
C816 C 0.44424 0.57579 0.38945 0.0
C817 C 0.45651 0.54994 0.38842 0.0
C818 C 0.46758 0.53974 0.41657 0.0
C819 C 0.46653 0.55497 0.44623 0.0
C820 C 0.45372 0.58146 0.44651 0.0
H821 H 0.10129 0.44421 0.80804 0.0
H822 H 0.12197 0.3722 0.86334 0.0
H823 H 0.10149 0.39381 0.91176 0.0
H824 H 0.12197 0.5008 0.86926 0.0
H825 H 0.09085 0.52026 0.85987 0.0
H826 H 0.10731 0.4993 0.82929 0.0
H827 H 0.05217 0.47021 0.81774 0.0
H828 H 0.03557 0.49107 0.84832 0.0
H829 H 0.0291 0.45173 0.8498 0.0
H830 H 0.07844 0.4238 0.95571 0.0
H831 H 0.05496 0.45905 0.98956 0.0
H832 H 0.04838 0.51155 0.90685 0.0
C833 C 0.10173 0.43301 0.83032 0.0
C834 C 0.11318 0.40602 0.83123 0.0
C835 C 0.11291 0.39239 0.86128 0.0
C836 C 0.10144 0.40468 0.88924 0.0
C837 C 0.09007 0.43095 0.88743 0.0
C838 C 0.09012 0.44499 0.8587 0.0
C839 C 0.07622 0.4729 0.86337 0.0
C840 C 0.10054 0.49991 0.85494 0.0
C841 C 0.0465 0.47138 0.84363 0.0
C842 C 0.06843 0.47235 0.89905 0.0
C843 C 0.07663 0.44796 0.91254 0.0
C844 C 0.07176 0.44284 0.94518 0.0
C845 C 0.05809 0.46293 0.96439 0.0
C846 C 0.04915 0.488 0.95121 0.0
C847 C 0.05472 0.49262 0.91795 0.0
H848 H 0.57691 0.84614 0.95592 0.0
H849 H 0.58693 0.87533 0.85813 0.0
H850 H 0.5513 0.91015 0.87003 0.0
H851 H 0.49551 0.86261 0.97383 0.0
H852 H 0.50708 0.87616 1.01312 0.0
H853 H 0.52431 0.847 0.99488 0.0
H854 H 0.57955 0.87737 1.00335 0.0
H855 H 0.56259 0.90662 1.02123 0.0
H856 H 0.5888 0.91359 0.98731 0.0
H857 H 0.52309 0.94842 0.8947 0.0
H858 H 0.50708 0.98693 0.93041 0.0
H859 H 0.52222 0.93681 1.0126 0.0
C860 C 0.57105 0.85929 0.93672 0.0
C861 C 0.58493 0.85785 0.90609 0.0
C862 C 0.57626 0.87539 0.88167 0.0
C863 C 0.55606 0.89546 0.88824 0.0
C864 C 0.54474 0.89783 0.91934 0.0
C865 C 0.55184 0.88004 0.94317 0.0
C866 C 0.54185 0.89026 0.97564 0.0
C867 C 0.51561 0.86766 0.99022 0.0
C868 C 0.56986 0.89739 0.99817 0.0
C869 C 0.52974 0.91752 0.96659 0.0
C870 C 0.53043 0.92102 0.93394 0.0
C871 C 0.52201 0.94566 0.92025 0.0
C872 C 0.51314 0.96743 0.94055 0.0
C873 C 0.51384 0.96459 0.97392 0.0
C874 C 0.52166 0.93923 0.98701 0.0
H875 H 0.88122 0.12065 0.42637 0.0
H876 H 0.79361 0.09882 0.47942 0.0
H877 H 0.81306 0.05747 0.50355 0.0
H878 H 0.89753 0.04585 0.41423 0.0
H879 H 0.93886 0.05737 0.42029 0.0
H880 H 0.91612 0.08213 0.40341 0.0
H881 H 0.93464 0.12061 0.44782 0.0
H882 H 0.95752 0.09606 0.46453 0.0
H883 H 0.92881 0.11046 0.48899 0.0
H884 H 0.84436 1.02135 0.5259 0.0
H885 H 0.88595 0.99664 0.54692 0.0
H886 H 0.95281 0.04415 0.48077 0.0
C887 C 0.86597 0.10713 0.44291 0.0
C888 C 0.83586 0.11298 0.45091 0.0
C889 C 0.8166 0.0945 0.47247 0.0
C890 C 0.82745 0.07096 0.48634 0.0
C891 C 0.85753 0.06617 0.47832 0.0
C892 C 0.8765 0.08384 0.45712 0.0
C893 C 0.90893 0.07614 0.45479 0.0
C894 C 0.91574 0.06468 0.42118 0.0
C895 C 0.93393 0.10237 0.46464 0.0
C896 C 0.90563 0.05208 0.47883 0.0
C897 C 0.87568 0.04607 0.4917 0.0
C898 C 0.86779 0.02564 0.51571 0.0
C899 C 0.89143 1.01168 0.52744 0.0
C900 C 0.92244 1.0188 0.51544 0.0
C901 C 0.92928 0.03854 0.49034 0.0
H902 H 0.21947 0.59498 0.16397 0.0
H903 H 0.23581 0.67655 0.1128 0.0
H904 H 0.18856 0.65999 0.08164 0.0
H905 H 0.19039 0.54858 0.09635 0.0
H906 H 0.1606 0.52505 0.11862 0.0
H907 H 0.19554 0.54294 0.13812 0.0
H908 H 0.16186 0.56583 0.17996 0.0
H909 H 0.12683 0.54788 0.16065 0.0
H910 H 0.13345 0.58697 0.16686 0.0
H911 H 0.14061 0.63544 0.05492 0.0
H912 H 0.09336 0.60485 0.03464 0.0
H913 H 0.1043 0.53712 0.10129 0.0
C914 C 0.21292 0.60943 0.1464 0.0
C915 C 0.23201 0.63721 0.14086 0.0
C916 C 0.22233 0.65514 0.11739 0.0
C917 C 0.19528 0.64593 0.09952 0.0
C918 C 0.17748 0.61848 0.10504 0.0
C919 C 0.18566 0.60039 0.12792 0.0
C920 C 0.16195 0.57176 0.12835 0.0
C921 C 0.17809 0.54552 0.11986 0.0
C922 C 0.14502 0.56789 0.1609 0.0
C923 C 0.13938 0.57677 0.10219 0.0
C924 C 0.14911 0.604 0.08929 0.0
C925 C 0.13274 0.61412 0.06494 0.0
C926 C 0.10563 0.59633 0.05352 0.0
C927 C 0.09439 0.56822 0.0661 0.0
C928 C 0.11192 0.55832 0.09087 0.0
H929 H 0.31215 0.433 0.66965 0.0
H930 H 0.25957 0.38544 0.59228 0.0
H931 H 0.30244 0.40318 0.55496 0.0
H932 H 0.34905 0.49606 0.62283 0.0
H933 H 0.38623 0.49964 0.64223 0.0
H934 H 0.35069 0.48488 0.66352 0.0
H935 H 0.37338 0.43834 0.67555 0.0
H936 H 0.40901 0.45301 0.65445 0.0
H937 H 0.38744 0.41772 0.64309 0.0
H938 H 0.35148 0.42316 0.52572 0.0
H939 H 0.40438 0.44369 0.50636 0.0
H940 H 0.42834 0.47941 0.60072 0.0
C941 C 0.3095 0.42631 0.64486 0.0
C942 C 0.28155 0.40797 0.63427 0.0
C943 C 0.27973 0.40002 0.60139 0.0
C944 C 0.3043 0.40986 0.57981 0.0
C945 C 0.33115 0.42778 0.59098 0.0
C946 C 0.33409 0.436 0.62271 0.0
C947 C 0.36627 0.45476 0.62821 0.0
C948 C 0.36285 0.48567 0.6399 0.0
C949 C 0.38514 0.44008 0.65172 0.0
C950 C 0.38097 0.45539 0.59471 0.0
C951 C 0.35997 0.43967 0.57377 0.0
C952 C 0.36796 0.43573 0.54186 0.0
C953 C 0.3982 0.44759 0.53104 0.0
C954 C 0.42059 0.46364 0.55169 0.0
C955 C 0.41162 0.46793 0.58406 0.0
H956 H 0.78963 0.74518 0.97248 0.0
H957 H 0.7297 0.68649 0.9091 0.0
H958 H 0.75773 0.64643 0.92249 0.0
H959 H 0.85726 0.72368 0.94857 0.0
H960 H 0.87559 0.72691 0.98692 0.0
H961 H 0.84645 0.74876 0.97851 0.0
H962 H 0.81383 0.72832 0.02799 0.0
H963 H 0.8431 0.70646 0.03674 0.0
H964 H 0.80284 0.68934 0.03221 0.0
H965 H 0.79784 0.61563 0.93529 0.0
H966 H 0.8461 0.59651 0.94683 0.0
H967 H 0.88109 0.67625 0.99982 0.0
C968 C 0.78189 0.7237 0.96202 0.0
C969 C 0.75746 0.71892 0.9398 0.0
C970 C 0.74801 0.69053 0.92659 0.0
C971 C 0.76387 0.66767 0.934 0.0
C972 C 0.78887 0.67353 0.95487 0.0
C973 C 0.79759 0.70081 0.96896 0.0
C974 C 0.82752 0.70263 0.98735 0.0
C975 C 0.8532 0.72692 0.97455 0.0
C976 C 0.82145 0.70693 1.0232 0.0
C977 C 0.8352 0.67259 0.98008 0.0
C978 C 0.81231 0.65589 0.96189 0.0
C979 C 0.81561 0.62831 0.95 0.0
C980 C 0.84321 0.61775 0.95643 0.0
C981 C 0.86731 0.6349 0.97427 0.0
C982 C 0.86281 0.66237 0.98677 0.0
H983 H 0.43677 0.8114 0.14071 0.0
H984 H 0.35309 0.83341 0.18684 0.0
H985 H 0.36579 0.88315 0.16551 0.0
H986 H 0.48615 0.88175 0.15511 0.0
H987 H 0.50662 0.88166 0.11729 0.0
H988 H 0.49075 0.8476 0.13587 0.0
H989 H 0.45961 0.83061 0.08496 0.0
H990 H 0.47535 0.86468 0.06635 0.0
H991 H 0.43358 0.85307 0.06942 0.0
H992 H 0.38823 0.93229 0.13844 0.0
H993 H 0.41847 0.9745 0.10971 0.0
H994 H 0.48776 0.92121 0.08178 0.0
C995 C 0.42113 0.82662 0.14667 0.0
C996 C 0.39356 0.81767 0.16562 0.0
C997 C 0.37396 0.83884 0.1721 0.0
C998 C 0.38113 0.86751 0.16015 0.0
C999 C 0.40821 0.8754 0.14149 0.0
C1000 C 0.42795 0.85549 0.13485 0.0
C1001 C 0.45569 0.86952 0.11426 0.0
C1002 C 0.48663 0.87017 0.13168 0.0
C1003 C 0.45606 0.85351 0.08182 0.0
C1004 C 0.44858 0.90035 0.11044 0.0
C1005 C 0.42103 0.90337 0.12627 0.0
C1006 C 0.40983 0.92998 0.12605 0.0
C1007 C 0.42717 0.95398 0.10956 0.0
C1008 C 0.45566 0.95157 0.09334 0.0
C1009 C 0.46616 0.9241 0.09387 0.0
H1010 H 0.12543 0.23029 0.60918 0.0
H1011 H 0.07744 0.22167 0.70119 0.0
H1012 H 0.05076 0.17257 0.68538 0.0
H1013 H 0.05962 0.19188 0.56303 0.0
H1014 H 0.08358 0.17394 0.53615 0.0
H1015 H 0.09936 0.2088 0.55417 0.0
H1016 H 0.14509 0.18667 0.57652 0.0
H1017 H 0.12939 0.15178 0.55856 0.0
H1018 H 0.13668 0.1546 0.60072 0.0
H1019 H 0.03 0.12361 0.66108 0.0
H1020 H 0.01453 0.07881 0.62902 0.0
H1021 H 0.07358 0.11693 0.55067 0.0
C1022 C 0.10931 0.21809 0.62602 0.0
C1023 C 0.10354 0.23051 0.65658 0.0
C1024 C 0.08207 0.21342 0.67756 0.0
C1025 C 0.06685 0.1852 0.66884 0.0
C1026 C 0.07292 0.17377 0.63878 0.0
C1027 C 0.09345 0.18965 0.61748 0.0
C1028 C 0.09518 0.17188 0.58646 0.0
C1029 C 0.08376 0.18757 0.55828 0.0
C1030 C 0.12858 0.16588 0.5802 0.0
C1031 C 0.0726 0.14361 0.59383 0.0
C1032 C 0.06028 0.14534 0.62431 0.0
C1033 C 0.03944 0.12212 0.63714 0.0
C1034 C 0.03082 0.09653 0.61858 0.0
C1035 C 0.0426 0.09383 0.58702 0.0
C1036 C 0.06387 0.11802 0.57454 0.0
H1037 H 0.67576 0.26059 0.48437 0.0
H1038 H 0.64439 0.22691 0.39103 0.0
H1039 H 0.59649 0.24768 0.39866 0.0
H1040 H 0.59506 0.25988 0.52346 0.0
H1041 H 0.60876 0.29441 0.54324 0.0
H1042 H 0.63515 0.26879 0.5359 0.0
H1043 H 0.67361 0.30877 0.50639 0.0
H1044 H 0.64746 0.33432 0.51356 0.0
H1045 H 0.65981 0.32694 0.47336 0.0
H1046 H 0.55898 0.28095 0.40966 0.0
H1047 H 0.53731 0.32579 0.42182 0.0
H1048 H 0.59396 0.34108 0.5063 0.0
C1049 C 0.65851 0.25693 0.46581 0.0
C1050 C 0.66406 0.24189 0.43718 0.0
C1051 C 0.64066 0.23761 0.41361 0.0
C1052 C 0.6132 0.24943 0.41768 0.0
C1053 C 0.60934 0.26555 0.4454 0.0
C1054 C 0.63134 0.26923 0.46919 0.0
C1055 C 0.62484 0.29199 0.49366 0.0
C1056 C 0.61538 0.27792 0.52598 0.0
C1057 C 0.65309 0.31696 0.49688 0.0
C1058 C 0.59735 0.30219 0.47852 0.0
C1059 C 0.58794 0.28586 0.4514 0.0
C1060 C 0.5655 0.29339 0.43131 0.0
C1061 C 0.55328 0.31889 0.43839 0.0
C1062 C 0.56399 0.33674 0.465 0.0
C1063 C 0.58528 0.3276 0.48594 0.0
loop_
_geom_bond_atom_site_label_1
_geom_bond_atom_site_label_2
_geom_bond_distance
_geom_bond_site_symmetry_2
_ccdc_geom_bond_type
P0 O11 1.490 . S
P0 C14 1.812 . S
P0 C20 1.803 . S
P0 C26 1.819 . S
H1 C15 0.941 . S
H2 C16 0.939 . S
H3 C18 0.940 . S
H4 C19 0.940 . S
H5 C21 0.939 . S
H6 C22 0.942 . S
H7 C24 0.940 . S
H8 C25 0.939 . S
H9 C27 0.941 . S
H10 C31 0.939 . S
O11 P0 1.490 . S
H12 C28 0.939 . S
H13 C30 0.940 . S
C14 P0 1.812 . S
C14 C15 1.389 . S
C14 C19 1.391 . S
C15 H1 0.941 . S
C15 C14 1.389 . S
C15 C16 1.397 . S
C16 H2 0.939 . S
C16 C15 1.397 . S
C16 C17 1.378 . S
C17 C16 1.378 . S
C17 C18 1.378 . S
C18 H3 0.940 . S
C18 C17 1.378 . S
C18 C19 1.396 . S
C19 H4 0.940 . S
C19 C14 1.391 . S
C19 C18 1.396 . S
C20 P0 1.803 . S
C20 C21 1.378 . S
C20 C25 1.400 . S
C21 H5 0.939 . S
C21 C20 1.378 . S
C21 C22 1.361 . S
C22 H6 0.942 . S
C22 C21 1.361 . S
C22 C23 1.369 . S
C23 C22 1.369 . S
C23 C24 1.404 . S
C24 H7 0.940 . S
C24 C23 1.404 . S
C24 C25 1.389 . S
C25 H8 0.939 . S
C25 C20 1.400 . S
C25 C24 1.389 . S
C26 P0 1.819 . S
C26 C27 1.391 . S
C26 C31 1.391 . S
C27 H9 0.941 . S
C27 C26 1.391 . S
C27 C28 1.396 . S
C28 H12 0.939 . S
C28 C27 1.396 . S
C28 C29 1.397 . S
C29 C28 1.397 . S
C29 C30 1.385 . S
C30 H13 0.940 . S
C30 C29 1.385 . S
C30 C31 1.388 . S
C31 H10 0.939 . S
C31 C26 1.391 . S
C31 C30 1.388 . S
P32 O43 1.490 . S
P32 C46 1.812 . S
P32 C52 1.803 . S
P32 C58 1.819 . S
H33 C47 0.941 . S
H34 C48 0.939 . S
H35 C50 0.940 . S
H36 C51 0.940 . S
H37 C53 0.939 . S
H38 C54 0.942 . S
H39 C56 0.940 . S
H40 C57 0.939 . S
H41 C59 0.941 . S
H42 C63 0.939 . S
O43 P32 1.490 . S
H44 C60 0.939 . S
H45 C62 0.940 . S
C46 P32 1.812 . S
C46 C47 1.389 . S
C46 C51 1.391 . S
C47 H33 0.941 . S
C47 C46 1.389 . S
C47 C48 1.397 . S
C48 H34 0.939 . S
C48 C47 1.397 . S
C48 C49 1.378 . S
C49 C48 1.378 . S
C49 C50 1.378 . S
C50 H35 0.940 . S
C50 C49 1.378 . S
C50 C51 1.396 . S
C51 H36 0.940 . S
C51 C46 1.391 . S
C51 C50 1.396 . S
C52 P32 1.803 . S
C52 C53 1.378 . S
C52 C57 1.400 . S
C53 H37 0.939 . S
C53 C52 1.378 . S
C53 C54 1.361 . S
C54 H38 0.942 . S
C54 C53 1.361 . S
C54 C55 1.369 . S
C55 C54 1.369 . S
C55 C56 1.404 . S
C56 H39 0.940 . S
C56 C55 1.404 . S
C56 C57 1.389 . S
C57 H40 0.939 . S
C57 C52 1.400 . S
C57 C56 1.389 . S
C58 P32 1.819 . S
C58 C59 1.391 . S
C58 C63 1.391 . S
C59 H41 0.941 . S
C59 C58 1.391 . S
C59 C60 1.396 . S
C60 H44 0.939 . S
C60 C59 1.396 . S
C60 C61 1.397 . S
C61 C60 1.397 . S
C61 C62 1.385 . S
C62 H45 0.940 . S
C62 C61 1.385 . S
C62 C63 1.388 . S
C63 H42 0.939 . S
C63 C58 1.391 . S
C63 C62 1.388 . S
P64 O75 1.490 . S
P64 C78 1.812 . S
P64 C84 1.803 . S
P64 C90 1.819 . S
H65 C79 0.941 . S
H66 C80 0.939 . S
H67 C82 0.940 . S
H68 C83 0.940 . S
H69 C85 0.939 . S
H70 C86 0.942 . S
H71 C88 0.940 . S
H72 C89 0.939 . S
H73 C91 0.941 . S
H74 C95 0.939 . S
O75 P64 1.490 . S
H76 C92 0.939 . S
H77 C94 0.940 . S
C78 P64 1.812 . S
C78 C79 1.389 . S
C78 C83 1.391 . S
C79 H65 0.941 . S
C79 C78 1.389 . S
C79 C80 1.397 . S
C80 H66 0.939 . S
C80 C79 1.397 . S
C80 C81 1.378 . S
C81 C80 1.378 . S
C81 C82 1.378 . S
C82 H67 0.940 . S
C82 C81 1.378 . S
C82 C83 1.396 . S
C83 H68 0.940 . S
C83 C78 1.391 . S
C83 C82 1.396 . S
C84 P64 1.803 . S
C84 C85 1.378 . S
C84 C89 1.400 . S
C85 H69 0.939 . S
C85 C84 1.378 . S
C85 C86 1.361 . S
C86 H70 0.942 . S
C86 C85 1.361 . S
C86 C87 1.369 . S
C87 C86 1.369 . S
C87 C88 1.404 . S
C88 H71 0.940 . S
C88 C87 1.404 . S
C88 C89 1.389 . S
C89 H72 0.939 . S
C89 C84 1.400 . S
C89 C88 1.389 . S
C90 P64 1.819 . S
C90 C91 1.391 . S
C90 C95 1.391 . S
C91 H73 0.941 . S
C91 C90 1.391 . S
C91 C92 1.396 . S
C92 H76 0.939 . S
C92 C91 1.396 . S
C92 C93 1.397 . S
C93 C92 1.397 . S
C93 C94 1.385 . S
C94 H77 0.940 . S
C94 C93 1.385 . S
C94 C95 1.388 . S
C95 H74 0.939 . S
C95 C90 1.391 . S
C95 C94 1.388 . S
P96 O107 1.490 . S
P96 C110 1.812 . S
P96 C116 1.803 . S
P96 C122 1.819 . S
H97 C111 0.941 . S
H98 C112 0.939 . S
H99 C114 0.940 . S
H100 C115 0.940 . S
H101 C117 0.939 . S
H102 C118 0.942 . S
H103 C120 0.940 . S
H104 C121 0.939 . S
H105 C123 0.941 . S
H106 C127 0.939 . S
O107 P96 1.490 . S
H108 C124 0.939 . S
H109 C126 0.940 . S
C110 P96 1.812 . S
C110 C111 1.389 . S
C110 C115 1.391 . S
C111 H97 0.941 . S
C111 C110 1.389 . S
C111 C112 1.397 . S
C112 H98 0.939 . S
C112 C111 1.397 . S
C112 C113 1.378 . S
C113 C112 1.378 . S
C113 C114 1.378 . S
C114 H99 0.940 . S
C114 C113 1.378 . S
C114 C115 1.396 . S
C115 H100 0.940 . S
C115 C110 1.391 . S
C115 C114 1.396 . S
C116 P96 1.803 . S
C116 C117 1.378 . S
C116 C121 1.400 . S
C117 H101 0.939 . S
C117 C116 1.378 . S
C117 C118 1.361 . S
C118 H102 0.942 . S
C118 C117 1.361 . S
C118 C119 1.369 . S
C119 C118 1.369 . S
C119 C120 1.404 . S
C120 H103 0.940 . S
C120 C119 1.404 . S
C120 C121 1.389 . S
C121 H104 0.939 . S
C121 C116 1.400 . S
C121 C120 1.389 . S
C122 P96 1.819 . S
C122 C123 1.391 . S
C122 C127 1.391 . S
C123 H105 0.941 . S
C123 C122 1.391 . S
C123 C124 1.396 . S
C124 H108 0.939 . S
C124 C123 1.396 . S
C124 C125 1.397 . S
C125 C124 1.397 . S
C125 C126 1.385 . S
C126 H109 0.940 . S
C126 C125 1.385 . S
C126 C127 1.388 . S
C127 H106 0.939 . S
C127 C122 1.391 . S
C127 C126 1.388 . S
P128 O139 1.490 . S
P128 C142 1.812 . S
P128 C148 1.803 . S
P128 C154 1.819 . S
H129 C143 0.941 . S
H130 C144 0.939 . S
H131 C146 0.940 . S
H132 C147 0.940 . S
H133 C149 0.939 . S
H134 C150 0.942 . S
H135 C152 0.940 . S
H136 C153 0.939 . S
H137 C155 0.941 . S
H138 C159 0.939 . S
O139 P128 1.490 . S
H140 C156 0.939 . S
H141 C158 0.940 . S
C142 P128 1.812 . S
C142 C143 1.389 . S
C142 C147 1.391 . S
C143 H129 0.941 . S
C143 C142 1.389 . S
C143 C144 1.397 . S
C144 H130 0.939 . S
C144 C143 1.397 . S
C144 C145 1.378 . S
C145 C144 1.378 . S
C145 C146 1.378 . S
C146 H131 0.940 . S
C146 C145 1.378 . S
C146 C147 1.396 . S
C147 H132 0.940 . S
C147 C142 1.391 . S
C147 C146 1.396 . S
C148 P128 1.803 . S
C148 C149 1.378 . S
C148 C153 1.400 . S
C149 H133 0.939 . S
C149 C148 1.378 . S
C149 C150 1.361 . S
C150 H134 0.942 . S
C150 C149 1.361 . S
C150 C151 1.369 . S
C151 C150 1.369 . S
C151 C152 1.404 . S
C152 H135 0.940 . S
C152 C151 1.404 . S
C152 C153 1.389 . S
C153 H136 0.939 . S
C153 C148 1.400 . S
C153 C152 1.389 . S
C154 P128 1.819 . S
C154 C155 1.391 . S
C154 C159 1.391 . S
C155 H137 0.941 . S
C155 C154 1.391 . S
C155 C156 1.396 . S
C156 H140 0.939 . S
C156 C155 1.396 . S
C156 C157 1.397 . S
C157 C156 1.397 . S
C157 C158 1.385 . S
C158 H141 0.940 . S
C158 C157 1.385 . S
C158 C159 1.388 . S
C159 H138 0.939 . S
C159 C154 1.391 . S
C159 C158 1.388 . S
P160 O171 1.490 . S
P160 C174 1.812 . S
P160 C180 1.803 . S
P160 C186 1.819 . S
H161 C175 0.941 . S
H162 C176 0.939 . S
H163 C178 0.940 . S
H164 C179 0.940 . S
H165 C181 0.939 . S
H166 C182 0.942 . S
H167 C184 0.940 . S
H168 C185 0.939 . S
H169 C187 0.941 . S
H170 C191 0.939 . S
O171 P160 1.490 . S
H172 C188 0.939 . S
H173 C190 0.940 . S
C174 P160 1.812 . S
C174 C175 1.389 . S
C174 C179 1.391 . S
C175 H161 0.941 . S
C175 C174 1.389 . S
C175 C176 1.397 . S
C176 H162 0.939 . S
C176 C175 1.397 . S
C176 C177 1.378 . S
C177 C176 1.378 . S
C177 C178 1.378 . S
C178 H163 0.940 . S
C178 C177 1.378 . S
C178 C179 1.396 . S
C179 H164 0.940 . S
C179 C174 1.391 . S
C179 C178 1.396 . S
C180 P160 1.803 . S
C180 C181 1.378 . S
C180 C185 1.400 . S
C181 H165 0.939 . S
C181 C180 1.378 . S
C181 C182 1.361 . S
C182 H166 0.942 . S
C182 C181 1.361 . S
C182 C183 1.369 . S
C183 C182 1.369 . S
C183 C184 1.404 . S
C184 H167 0.940 . S
C184 C183 1.404 . S
C184 C185 1.389 . S
C185 H168 0.939 . S
C185 C180 1.400 . S
C185 C184 1.389 . S
C186 P160 1.819 . S
C186 C187 1.391 . S
C186 C191 1.391 . S
C187 H169 0.941 . S
C187 C186 1.391 . S
C187 C188 1.396 . S
C188 H172 0.939 . S
C188 C187 1.396 . S
C188 C189 1.397 . S
C189 C188 1.397 . S
C189 C190 1.385 . S
C190 H173 0.940 . S
C190 C189 1.385 . S
C190 C191 1.388 . S
C191 H170 0.939 . S
C191 C186 1.391 . S
C191 C190 1.388 . S
P192 O203 1.490 . S
P192 C206 1.812 . S
P192 C212 1.803 . S
P192 C218 1.819 . S
H193 C207 0.941 . S
H194 C208 0.939 . S
H195 C210 0.940 . S
H196 C211 0.940 . S
H197 C213 0.939 . S
H198 C214 0.942 . S
H199 C216 0.940 . S
H200 C217 0.939 . S
H201 C219 0.941 . S
H202 C223 0.939 . S
O203 P192 1.490 . S
H204 C220 0.939 . S
H205 C222 0.940 . S
C206 P192 1.812 . S
C206 C207 1.389 . S
C206 C211 1.391 . S
C207 H193 0.941 . S
C207 C206 1.389 . S
C207 C208 1.397 . S
C208 H194 0.939 . S
C208 C207 1.397 . S
C208 C209 1.378 . S
C209 C208 1.378 . S
C209 C210 1.378 . S
C210 H195 0.940 . S
C210 C209 1.378 . S
C210 C211 1.396 . S
C211 H196 0.940 . S
C211 C206 1.391 . S
C211 C210 1.396 . S
C212 P192 1.803 . S
C212 C213 1.378 . S
C212 C217 1.400 . S
C213 H197 0.939 . S
C213 C212 1.378 . S
C213 C214 1.361 . S
C214 H198 0.942 . S
C214 C213 1.361 . S
C214 C215 1.369 . S
C215 C214 1.369 . S
C215 C216 1.404 . S
C216 H199 0.940 . S
C216 C215 1.404 . S
C216 C217 1.389 . S
C217 H200 0.939 . S
C217 C212 1.400 . S
C217 C216 1.389 . S
C218 P192 1.819 . S
C218 C219 1.391 . S
C218 C223 1.391 . S
C219 H201 0.941 . S
C219 C218 1.391 . S
C219 C220 1.396 . S
C220 H204 0.939 . S
C220 C219 1.396 . S
C220 C221 1.397 . S
C221 C220 1.397 . S
C221 C222 1.385 . S
C222 H205 0.940 . S
C222 C221 1.385 . S
C222 C223 1.388 . S
C223 H202 0.939 . S
C223 C218 1.391 . S
C223 C222 1.388 . S
P224 O235 1.490 . S
P224 C238 1.812 . S
P224 C244 1.803 . S
P224 C250 1.819 . S
H225 C239 0.941 . S
H226 C240 0.939 . S
H227 C242 0.940 . S
H228 C243 0.940 . S
H229 C245 0.939 . S
H230 C246 0.942 . S
H231 C248 0.940 . S
H232 C249 0.939 . S
H233 C251 0.941 . S
H234 C255 0.939 . S
O235 P224 1.490 . S
H236 C252 0.939 . S
H237 C254 0.940 . S
C238 P224 1.812 . S
C238 C239 1.389 . S
C238 C243 1.391 . S
C239 H225 0.941 . S
C239 C238 1.389 . S
C239 C240 1.397 . S
C240 H226 0.939 . S
C240 C239 1.397 . S
C240 C241 1.378 . S
C241 C240 1.378 . S
C241 C242 1.378 . S
C242 H227 0.940 . S
C242 C241 1.378 . S
C242 C243 1.396 . S
C243 H228 0.940 . S
C243 C238 1.391 . S
C243 C242 1.396 . S
C244 P224 1.803 . S
C244 C245 1.378 . S
C244 C249 1.400 . S
C245 H229 0.939 . S
C245 C244 1.378 . S
C245 C246 1.361 . S
C246 H230 0.942 . S
C246 C245 1.361 . S
C246 C247 1.369 . S
C247 C246 1.369 . S
C247 C248 1.404 . S
C248 H231 0.940 . S
C248 C247 1.404 . S
C248 C249 1.389 . S
C249 H232 0.939 . S
C249 C244 1.400 . S
C249 C248 1.389 . S
C250 P224 1.819 . S
C250 C251 1.391 . S
C250 C255 1.391 . S
C251 H233 0.941 . S
C251 C250 1.391 . S
C251 C252 1.396 . S
C252 H236 0.939 . S
C252 C251 1.396 . S
C252 C253 1.397 . S
C253 C252 1.397 . S
C253 C254 1.385 . S
C254 H237 0.940 . S
C254 C253 1.385 . S
C254 C255 1.388 . S
C255 H234 0.939 . S
C255 C250 1.391 . S
C255 C254 1.388 . S
Sm256 C258 2.846 . S
Sm256 O276 2.543 . S
Sm256 O277 2.450 . S
Sm256 O278 2.681 1_545 S
Sm256 O279 2.464 1_545 S
Sm256 O280 2.396 . S
Sm256 O284 2.386 1_455 S
Sm256 O287 2.408 1_445 S
Sm257 C267 2.846 . S
Sm257 O278 2.386 1_655 S
Sm257 O281 2.408 1_665 S
Sm257 O282 2.543 . S
Sm257 O283 2.450 . S
Sm257 O284 2.681 1_565 S
Sm257 O285 2.464 1_565 S
Sm257 O286 2.396 . S
C258 Sm256 2.846 . S
C258 C259 1.506 . S
C258 O276 1.261 . S
C258 O277 1.242 . S
C259 C258 1.506 . S
C259 C260 1.358 . S
C259 C264 1.382 . S
C260 C259 1.358 . S
C260 C261 1.385 . S
C260 H288 0.930 . S
C261 C260 1.385 . S
C261 C262 1.395 . S
C261 H289 0.929 . S
C262 C261 1.395 . S
C262 C263 1.335 . S
C263 C262 1.335 . S
C263 C264 1.398 . S
C263 H290 0.930 . S
C264 C259 1.382 . S
C264 C263 1.398 . S
C264 H291 0.929 . S
C265 O278 1.271 . S
C265 O279 1.251 . S
C266 O280 1.252 . S
C266 O281 1.272 . S
C267 Sm257 2.846 . S
C267 C268 1.506 . S
C267 O282 1.261 . S
C267 O283 1.242 . S
C268 C267 1.506 . S
C268 C269 1.358 . S
C268 C273 1.382 . S
C269 C268 1.358 . S
C269 C270 1.385 . S
C269 H292 0.930 . S
C270 C269 1.385 . S
C270 C271 1.395 . S
C270 H293 0.929 . S
C271 C270 1.395 . S
C271 C272 1.335 . S
C272 C271 1.335 . S
C272 C273 1.398 . S
C272 H294 0.930 . S
C273 C268 1.382 . S
C273 C272 1.398 . S
C273 H295 0.929 . S
C274 O284 1.271 . S
C274 O285 1.251 . S
C275 O286 1.252 . S
C275 O287 1.272 . S
O276 Sm256 2.543 . S
O276 C258 1.261 . S
O277 Sm256 2.450 . S
O277 C258 1.242 . S
O278 Sm256 2.681 1_565 S
O278 Sm257 2.386 1_455 S
O278 C265 1.271 . S
O279 Sm256 2.464 1_565 S
O279 C265 1.251 . S
O280 Sm256 2.396 . S
O280 C266 1.252 . S
O281 Sm257 2.408 1_445 S
O281 C266 1.272 . S
O282 Sm257 2.543 . S
O282 C267 1.261 . S
O283 Sm257 2.450 . S
O283 C267 1.242 . S
O284 Sm256 2.386 1_655 S
O284 Sm257 2.681 1_545 S
O284 C274 1.271 . S
O285 Sm257 2.464 1_545 S
O285 C274 1.251 . S
O286 Sm257 2.396 . S
O286 C275 1.252 . S
O287 Sm256 2.408 1_665 S
O287 C275 1.272 . S
H288 C260 0.930 . S
H289 C261 0.929 . S
H290 C263 0.930 . S
H291 C264 0.929 . S
H292 C269 0.930 . S
H293 C270 0.929 . S
H294 C272 0.930 . S
H295 C273 0.929 . S
Sm296 C298 2.846 . S
Sm296 O316 2.543 . S
Sm296 O317 2.450 . S
Sm296 O318 2.681 1_545 S
Sm296 O319 2.464 1_545 S
Sm296 O320 2.396 . S
Sm296 O324 2.386 1_554 S
Sm296 O327 2.408 1_544 S
Sm297 C307 2.846 1_545 S
Sm297 O318 2.386 1_546 S
Sm297 O321 2.408 1_556 S
Sm297 O322 2.543 1_545 S
Sm297 O323 2.450 . S
Sm297 O324 2.681 . S
Sm297 O325 2.464 . S
Sm297 O326 2.396 1_545 S
C298 Sm296 2.846 . S
C298 C299 1.506 . S
C298 O316 1.261 . S
C298 O317 1.242 . S
C299 C298 1.506 . S
C299 C300 1.358 . S
C299 C304 1.382 . S
C300 C299 1.358 . S
C300 C301 1.385 . S
C300 H328 0.930 . S
C301 C300 1.385 . S
C301 C302 1.395 . S
C301 H329 0.929 . S
C302 C301 1.395 . S
C302 C303 1.335 . S
C303 C302 1.335 . S
C303 C304 1.398 . S
C303 H330 0.930 . S
C304 C299 1.382 . S
C304 C303 1.398 . S
C304 H331 0.929 . S
C305 O318 1.271 . S
C305 O319 1.251 . S
C306 O320 1.252 . S
C306 O321 1.272 . S
C307 Sm297 2.846 1_565 S
C307 C308 1.506 . S
C307 O322 1.261 . S
C307 O323 1.234 1_565 S
C308 C307 1.506 . S
C308 C309 1.358 . S
C308 C313 1.382 . S
C309 C308 1.358 . S
C309 C310 1.385 . S
C309 H332 0.930 . S
C310 C309 1.385 . S
C310 C311 1.395 . S
C310 H333 0.929 . S
C311 C310 1.395 . S
C311 C312 1.335 . S
C312 C311 1.335 . S
C312 C313 1.398 . S
C312 H334 0.930 . S
C313 C308 1.382 . S
C313 C312 1.398 . S
C313 H335 0.929 . S
C314 O324 1.271 . S
C314 O325 1.251 . S
C315 O326 1.252 . S
C315 O327 1.272 . S
O316 Sm296 2.543 . S
O316 C298 1.261 . S
O317 Sm296 2.450 . S
O317 C298 1.242 . S
O318 Sm296 2.681 1_565 S
O318 Sm297 2.386 1_564 S
O318 C305 1.271 . S
O319 Sm296 2.464 1_565 S
O319 C305 1.251 . S
O320 Sm296 2.396 . S
O320 C306 1.252 . S
O321 Sm297 2.408 1_554 S
O321 C306 1.272 . S
O322 Sm297 2.543 1_565 S
O322 C307 1.261 . S
O323 Sm297 2.450 . S
O323 C307 1.234 1_545 S
O324 Sm296 2.386 1_556 S
O324 Sm297 2.681 . S
O324 C314 1.271 . S
O325 Sm297 2.464 . S
O325 C314 1.251 . S
O326 Sm297 2.396 1_565 S
O326 C315 1.252 . S
O327 Sm296 2.408 1_566 S
O327 C315 1.272 . S
H328 C300 0.930 . S
H329 C301 0.929 . S
H330 C303 0.930 . S
H331 C304 0.929 . S
H332 C309 0.930 . S
H333 C310 0.929 . S
H334 C312 0.930 . S
H335 C313 0.929 . S
Sm336 C338 2.846 . S
Sm336 O356 2.543 . S
Sm336 O357 2.450 . S
Sm336 O358 2.681 . S
Sm336 O359 2.464 . S
Sm336 O360 2.396 . S
Sm336 O364 2.386 . S
Sm336 O367 2.408 . S
Sm337 C347 2.846 . S
Sm337 O358 2.386 . S
Sm337 O361 2.408 . S
Sm337 O362 2.543 . S
Sm337 O363 2.450 . S
Sm337 O364 2.681 . S
Sm337 O365 2.464 . S
Sm337 O366 2.396 . S
C338 Sm336 2.846 . S
C338 C339 1.506 . S
C338 O356 1.261 . S
C338 O357 1.242 . S
C339 C338 1.506 . S
C339 C340 1.358 . S
C339 C344 1.382 . S
C340 C339 1.358 . S
C340 C341 1.385 . S
C340 H368 0.930 . S
C341 C340 1.385 . S
C341 C342 1.395 . S
C341 H369 0.929 . S
C342 C341 1.395 . S
C342 C343 1.335 . S
C343 C342 1.335 . S
C343 C344 1.398 . S
C343 H370 0.930 . S
C344 C339 1.382 . S
C344 C343 1.398 . S
C344 H371 0.929 . S
C345 O358 1.271 . S
C345 O359 1.251 . S
C346 O360 1.252 . S
C346 O361 1.272 . S
C347 Sm337 2.846 . S
C347 C348 1.506 . S
C347 O362 1.261 . S
C347 O363 1.242 . S
C348 C347 1.506 . S
C348 C349 1.358 . S
C348 C353 1.382 . S
C349 C348 1.358 . S
C349 C350 1.385 . S
C349 H372 0.930 . S
C350 C349 1.385 . S
C350 C351 1.395 . S
C350 H373 0.929 . S
C351 C350 1.395 . S
C351 C352 1.335 . S
C352 C351 1.335 . S
C352 C353 1.398 . S
C352 H374 0.930 . S
C353 C348 1.382 . S
C353 C352 1.398 . S
C353 H375 0.929 . S
C354 O364 1.271 . S
C354 O365 1.251 . S
C355 O366 1.252 . S
C355 O367 1.272 . S
O356 Sm336 2.543 . S
O356 C338 1.261 . S
O357 Sm336 2.450 . S
O357 C338 1.242 . S
O358 Sm336 2.681 . S
O358 Sm337 2.386 . S
O358 C345 1.271 . S
O359 Sm336 2.464 . S
O359 C345 1.251 . S
O360 Sm336 2.396 . S
O360 C346 1.252 . S
O361 Sm337 2.408 . S
O361 C346 1.272 . S
O362 Sm337 2.543 . S
O362 C347 1.261 . S
O363 Sm337 2.450 . S
O363 C347 1.242 . S
O364 Sm336 2.386 . S
O364 Sm337 2.681 . S
O364 C354 1.271 . S
O365 Sm337 2.464 . S
O365 C354 1.251 . S
O366 Sm337 2.396 . S
O366 C355 1.252 . S
O367 Sm336 2.408 . S
O367 C355 1.272 . S
H368 C340 0.930 . S
H369 C341 0.929 . S
H370 C343 0.930 . S
H371 C344 0.929 . S
H372 C349 0.930 . S
H373 C350 0.929 . S
H374 C352 0.930 . S
H375 C353 0.929 . S
Sm376 C378 2.846 . S
Sm376 O396 2.543 . S
Sm376 O397 2.450 . S
Sm376 O398 2.681 1_455 S
Sm376 O399 2.464 1_455 S
Sm376 O400 2.396 . S
Sm376 O404 2.386 1_554 S
Sm376 O407 2.392 1_454 S
Sm377 C387 2.846 . S
Sm377 O398 2.386 1_556 S
Sm377 O401 2.408 1_656 S
Sm377 O402 2.543 . S
Sm377 O403 2.450 . S
Sm377 O404 2.681 1_655 S
Sm377 O405 2.464 1_655 S
Sm377 O406 2.396 . S
C378 Sm376 2.846 . S
C378 C379 1.506 . S
C378 O396 1.261 . S
C378 O397 1.242 . S
C379 C378 1.506 . S
C379 C380 1.358 . S
C379 C384 1.382 . S
C380 C379 1.358 . S
C380 C381 1.385 . S
C380 H408 0.930 . S
C381 C380 1.385 . S
C381 C382 1.395 . S
C381 H409 0.929 . S
C382 C381 1.395 . S
C382 C383 1.335 . S
C383 C382 1.335 . S
C383 C384 1.398 . S
C383 H410 0.930 . S
C384 C379 1.382 . S
C384 C383 1.398 . S
C384 H411 0.929 . S
C385 O398 1.271 . S
C385 O399 1.251 . S
C386 O400 1.252 . S
C386 O401 1.272 . S
C387 Sm377 2.846 . S
C387 C388 1.506 . S
C387 O402 1.261 . S
C387 O403 1.242 . S
C388 C387 1.506 . S
C388 C389 1.358 . S
C388 C393 1.382 . S
C389 C388 1.358 . S
C389 C390 1.385 . S
C389 H412 0.930 . S
C390 C389 1.385 . S
C390 C391 1.395 . S
C390 H413 0.929 . S
C391 C390 1.395 . S
C391 C392 1.335 . S
C392 C391 1.335 . S
C392 C393 1.398 . S
C392 H414 0.930 . S
C393 C388 1.382 . S
C393 C392 1.398 . S
C393 H415 0.929 . S
C394 O404 1.271 . S
C394 O405 1.251 . S
C395 O406 1.252 . S
C395 O407 1.293 . S
O396 Sm376 2.543 . S
O396 C378 1.261 . S
O397 Sm376 2.450 . S
O397 C378 1.242 . S
O398 Sm376 2.681 1_655 S
O398 Sm377 2.386 1_554 S
O398 C385 1.271 . S
O399 Sm376 2.464 1_655 S
O399 C385 1.251 . S
O400 Sm376 2.396 . S
O400 C386 1.252 . S
O401 Sm377 2.408 1_454 S
O401 C386 1.272 . S
O402 Sm377 2.543 . S
O402 C387 1.261 . S
O403 Sm377 2.450 . S
O403 C387 1.242 . S
O404 Sm376 2.386 1_556 S
O404 Sm377 2.681 1_455 S
O404 C394 1.271 . S
O405 Sm377 2.464 1_455 S
O405 C394 1.251 . S
O406 Sm377 2.396 . S
O406 C395 1.252 . S
O407 Sm376 2.392 1_656 S
O407 C395 1.293 . S
H408 C380 0.930 . S
H409 C381 0.929 . S
H410 C383 0.930 . S
H411 C384 0.929 . S
H412 C389 0.930 . S
H413 C390 0.929 . S
H414 C392 0.930 . S
H415 C393 0.929 . S
H416 C428 0.930 . S
H417 C430 0.930 . S
H418 C431 0.930 . S
H419 C435 0.959 . S
H420 C435 0.959 . S
H421 C435 0.961 . S
H422 C436 0.960 . S
H423 C436 0.961 . S
H424 C436 0.959 . S
H425 C439 0.929 . S
H426 C440 0.931 . S
H427 C442 0.930 . S
C428 H416 0.930 . S
C428 C429 1.399 . S
C428 C433 1.399 . S
C429 C428 1.399 . S
C429 C430 1.376 . S
C430 H417 0.930 . S
C430 C429 1.376 . S
C430 C431 1.388 . S
C431 H418 0.930 . S
C431 C430 1.388 . S
C431 C432 1.390 . S
C432 C431 1.390 . S
C432 C433 1.394 . S
C432 C438 1.465 . S
C433 C428 1.399 . S
C433 C432 1.394 . S
C433 C434 1.516 . S
C434 C433 1.516 . S
C434 C435 1.502 . S
C434 C436 1.561 . S
C434 C437 1.526 . S
C435 H419 0.959 . S
C435 H420 0.959 . S
C435 H421 0.961 . S
C435 C434 1.502 . S
C436 H422 0.960 . S
C436 H423 0.961 . S
C436 H424 0.959 . S
C436 C434 1.561 . S
C437 C434 1.526 . S
C437 C438 1.396 . S
C437 C442 1.390 . S
C438 C432 1.465 . S
C438 C437 1.396 . S
C438 C439 1.399 . S
C439 H425 0.929 . S
C439 C438 1.399 . S
C439 C440 1.385 . S
C440 H426 0.931 . S
C440 C439 1.385 . S
C440 C441 1.389 . S
C441 C440 1.389 . S
C441 C442 1.387 . S
C442 H427 0.930 . S
C442 C437 1.390 . S
C442 C441 1.387 . S
H443 C455 0.930 . S
H444 C457 0.930 . S
H445 C458 0.930 . S
H446 C462 0.959 . S
H447 C462 0.959 . S
H448 C462 0.961 . S
H449 C463 0.960 . S
H450 C463 0.961 . S
H451 C463 0.959 . S
H452 C466 0.929 . S
H453 C467 0.931 . S
H454 C469 0.930 . S
C455 H443 0.930 . S
C455 C456 1.399 . S
C455 C460 1.399 . S
C456 C455 1.399 . S
C456 C457 1.376 . S
C457 H444 0.930 . S
C457 C456 1.376 . S
C457 C458 1.388 . S
C458 H445 0.930 . S
C458 C457 1.388 . S
C458 C459 1.390 . S
C459 C458 1.390 . S
C459 C460 1.394 . S
C459 C465 1.465 . S
C460 C455 1.399 . S
C460 C459 1.394 . S
C460 C461 1.516 . S
C461 C460 1.516 . S
C461 C462 1.502 . S
C461 C463 1.561 . S
C461 C464 1.526 . S
C462 H446 0.959 . S
C462 H447 0.959 . S
C462 H448 0.961 . S
C462 C461 1.502 . S
C463 H449 0.960 . S
C463 H450 0.961 . S
C463 H451 0.959 . S
C463 C461 1.561 . S
C464 C461 1.526 . S
C464 C465 1.396 . S
C464 C469 1.390 . S
C465 C459 1.465 . S
C465 C464 1.396 . S
C465 C466 1.399 . S
C466 H452 0.929 . S
C466 C465 1.399 . S
C466 C467 1.385 . S
C467 H453 0.931 . S
C467 C466 1.385 . S
C467 C468 1.389 . S
C468 C467 1.389 . S
C468 C469 1.387 . S
C469 H454 0.930 . S
C469 C464 1.390 . S
C469 C468 1.387 . S
H470 C482 0.930 . S
H471 C484 0.930 . S
H472 C485 0.930 . S
H473 C489 0.959 . S
H474 C489 0.959 . S
H475 C489 0.961 . S
H476 C490 0.960 . S
H477 C490 0.961 . S
H478 C490 0.959 . S
H479 C493 0.929 . S
H480 C494 0.931 . S
H481 C496 0.930 . S
C482 H470 0.930 . S
C482 C483 1.399 . S
C482 C487 1.399 . S
C483 C482 1.399 . S
C483 C484 1.376 . S
C484 H471 0.930 . S
C484 C483 1.376 . S
C484 C485 1.388 . S
C485 H472 0.930 . S
C485 C484 1.388 . S
C485 C486 1.390 . S
C486 C485 1.390 . S
C486 C487 1.394 . S
C486 C492 1.465 . S
C487 C482 1.399 . S
C487 C486 1.394 . S
C487 C488 1.516 . S
C488 C487 1.516 . S
C488 C489 1.502 . S
C488 C490 1.561 . S
C488 C491 1.526 . S
C489 H473 0.959 . S
C489 H474 0.959 . S
C489 H475 0.961 . S
C489 C488 1.502 . S
C490 H476 0.960 . S
C490 H477 0.961 . S
C490 H478 0.959 . S
C490 C488 1.561 . S
C491 C488 1.526 . S
C491 C492 1.396 . S
C491 C496 1.390 . S
C492 C486 1.465 . S
C492 C491 1.396 . S
C492 C493 1.399 . S
C493 H479 0.929 . S
C493 C492 1.399 . S
C493 C494 1.385 . S
C494 H480 0.931 . S
C494 C493 1.385 . S
C494 C495 1.389 . S
C495 C494 1.389 . S
C495 C496 1.387 . S
C496 H481 0.930 . S
C496 C491 1.390 . S
C496 C495 1.387 . S
H497 C509 0.930 . S
H498 C511 0.930 . S
H499 C512 0.930 . S
H500 C516 0.959 . S
H501 C516 0.959 1_455 S
H502 C516 0.961 . S
H503 C517 0.960 . S
H504 C517 0.961 . S
H505 C517 0.959 . S
H506 C520 0.929 . S
H507 C521 0.931 . S
H508 C523 0.930 . S
C509 H497 0.930 . S
C509 C510 1.399 . S
C509 C514 1.399 . S
C510 C509 1.399 . S
C510 C511 1.376 . S
C511 H498 0.930 . S
C511 C510 1.376 . S
C511 C512 1.388 . S
C512 H499 0.930 . S
C512 C511 1.388 . S
C512 C513 1.390 . S
C513 C512 1.390 . S
C513 C514 1.394 . S
C513 C519 1.465 . S
C514 C509 1.399 . S
C514 C513 1.394 . S
C514 C515 1.516 . S
C515 C514 1.516 . S
C515 C516 1.502 . S
C515 C517 1.561 . S
C515 C518 1.526 . S
C516 H500 0.959 . S
C516 H501 0.959 1_655 S
C516 H502 0.961 . S
C516 C515 1.502 . S
C517 H503 0.960 . S
C517 H504 0.961 . S
C517 H505 0.959 . S
C517 C515 1.561 . S
C518 C515 1.526 . S
C518 C519 1.396 . S
C518 C523 1.390 . S
C519 C513 1.465 . S
C519 C518 1.396 . S
C519 C520 1.399 . S
C520 H506 0.929 . S
C520 C519 1.399 . S
C520 C521 1.385 . S
C521 H507 0.931 . S
C521 C520 1.385 . S
C521 C522 1.389 . S
C522 C521 1.389 . S
C522 C523 1.387 . S
C523 H508 0.930 . S
C523 C518 1.390 . S
C523 C522 1.387 . S
H524 C536 0.930 . S
H525 C538 0.930 . S
H526 C539 0.930 . S
H527 C543 0.959 . S
H528 C543 0.959 . S
H529 C543 0.961 . S
H530 C544 0.960 . S
H531 C544 0.961 . S
H532 C544 0.959 . S
H533 C547 0.929 . S
H534 C548 0.931 . S
H535 C550 0.930 . S
C536 H524 0.930 . S
C536 C537 1.399 . S
C536 C541 1.399 . S
C537 C536 1.399 . S
C537 C538 1.376 . S
C538 H525 0.930 . S
C538 C537 1.376 . S
C538 C539 1.388 . S
C539 H526 0.930 . S
C539 C538 1.388 . S
C539 C540 1.390 . S
C540 C539 1.390 . S
C540 C541 1.394 . S
C540 C546 1.465 . S
C541 C536 1.399 . S
C541 C540 1.394 . S
C541 C542 1.516 . S
C542 C541 1.516 . S
C542 C543 1.502 . S
C542 C544 1.561 . S
C542 C545 1.526 . S
C543 H527 0.959 . S
C543 H528 0.959 . S
C543 H529 0.961 . S
C543 C542 1.502 . S
C544 H530 0.960 . S
C544 H531 0.961 . S
C544 H532 0.959 . S
C544 C542 1.561 . S
C545 C542 1.526 . S
C545 C546 1.396 . S
C545 C550 1.390 . S
C546 C540 1.465 . S
C546 C545 1.396 . S
C546 C547 1.399 . S
C547 H533 0.929 . S
C547 C546 1.399 . S
C547 C548 1.385 . S
C548 H534 0.931 . S
C548 C547 1.385 . S
C548 C549 1.389 . S
C549 C548 1.389 . S
C549 C550 1.387 . S
C550 H535 0.930 . S
C550 C545 1.390 . S
C550 C549 1.387 . S
H551 C563 0.930 . S
H552 C565 0.930 . S
H553 C566 0.930 . S
H554 C570 0.959 . S
H555 C570 0.959 . S
H556 C570 0.961 . S
H557 C571 0.960 . S
H558 C571 0.961 . S
H559 C571 0.959 . S
H560 C574 0.929 . S
H561 C575 0.893 1_545 S
H562 C577 0.930 . S
C563 H551 0.930 . S
C563 C564 1.399 . S
C563 C568 1.399 . S
C564 C563 1.399 . S
C564 C565 1.376 . S
C565 H552 0.930 . S
C565 C564 1.376 . S
C565 C566 1.388 . S
C566 H553 0.930 . S
C566 C565 1.388 . S
C566 C567 1.390 . S
C567 C566 1.390 . S
C567 C568 1.394 . S
C567 C573 1.465 . S
C568 C563 1.399 . S
C568 C567 1.394 . S
C568 C569 1.516 . S
C569 C568 1.516 . S
C569 C570 1.502 . S
C569 C571 1.561 . S
C569 C572 1.526 . S
C570 H554 0.959 . S
C570 H555 0.959 . S
C570 H556 0.961 . S
C570 C569 1.502 . S
C571 H557 0.960 . S
C571 H558 0.961 . S
C571 H559 0.959 . S
C571 C569 1.561 . S
C572 C569 1.526 . S
C572 C573 1.396 . S
C572 C577 1.390 . S
C573 C567 1.465 . S
C573 C572 1.396 . S
C573 C574 1.399 . S
C574 H560 0.929 . S
C574 C573 1.399 . S
C574 C575 1.385 . S
C575 H561 0.893 1_565 S
C575 C574 1.385 . S
C575 C576 1.389 . S
C576 C575 1.389 . S
C576 C577 1.387 . S
C577 H562 0.930 . S
C577 C572 1.390 . S
C577 C576 1.387 . S
H578 C590 0.930 . S
H579 C592 0.930 . S
H580 C593 0.930 . S
H581 C597 0.959 . S
H582 C597 0.959 . S
H583 C597 0.961 . S
H584 C598 0.960 . S
H585 C598 0.961 . S
H586 C598 0.959 . S
H587 C601 0.929 . S
H588 C602 0.931 . S
H589 C604 0.930 . S
C590 H578 0.930 . S
C590 C591 1.399 . S
C590 C595 1.399 . S
C591 C590 1.399 . S
C591 C592 1.376 . S
C592 H579 0.930 . S
C592 C591 1.376 . S
C592 C593 1.388 . S
C593 H580 0.930 . S
C593 C592 1.388 . S
C593 C594 1.390 . S
C594 C593 1.390 . S
C594 C595 1.394 . S
C594 C600 1.465 . S
C595 C590 1.399 . S
C595 C594 1.394 . S
C595 C596 1.516 . S
C596 C595 1.516 . S
C596 C597 1.502 . S
C596 C598 1.561 . S
C596 C599 1.526 . S
C597 H581 0.959 . S
C597 H582 0.959 . S
C597 H583 0.961 . S
C597 C596 1.502 . S
C598 H584 0.960 . S
C598 H585 0.961 . S
C598 H586 0.959 . S
C598 C596 1.561 . S
C599 C596 1.526 . S
C599 C600 1.396 . S
C599 C604 1.390 . S
C600 C594 1.465 . S
C600 C599 1.396 . S
C600 C601 1.399 . S
C601 H587 0.929 . S
C601 C600 1.399 . S
C601 C602 1.385 . S
C602 H588 0.931 . S
C602 C601 1.385 . S
C602 C603 1.389 . S
C603 C602 1.389 . S
C603 C604 1.387 . S
C604 H589 0.930 . S
C604 C599 1.390 . S
C604 C603 1.387 . S
H605 C617 0.930 . S
H606 C619 0.930 . S
H607 C620 0.930 . S
H608 C624 0.959 . S
H609 C624 0.959 . S
H610 C624 0.961 . S
H611 C625 0.960 . S
H612 C625 0.961 . S
H613 C625 0.959 . S
H614 C628 0.929 . S
H615 C629 0.931 . S
H616 C631 0.930 . S
C617 H605 0.930 . S
C617 C618 1.399 . S
C617 C622 1.399 . S
C618 C617 1.399 . S
C618 C619 1.376 . S
C619 H606 0.930 . S
C619 C618 1.376 . S
C619 C620 1.388 . S
C620 H607 0.930 . S
C620 C619 1.388 . S
C620 C621 1.390 . S
C621 C620 1.390 . S
C621 C622 1.394 . S
C621 C627 1.465 . S
C622 C617 1.399 . S
C622 C621 1.394 . S
C622 C623 1.516 . S
C623 C622 1.516 . S
C623 C624 1.502 . S
C623 C625 1.561 . S
C623 C626 1.526 . S
C624 H608 0.959 . S
C624 H609 0.959 . S
C624 H610 0.961 . S
C624 C623 1.502 . S
C625 H611 0.960 . S
C625 H612 0.961 . S
C625 H613 0.959 . S
C625 C623 1.561 . S
C626 C623 1.526 . S
C626 C627 1.396 . S
C626 C631 1.390 . S
C627 C621 1.465 . S
C627 C626 1.396 . S
C627 C628 1.399 . S
C628 H614 0.929 . S
C628 C627 1.399 . S
C628 C629 1.385 . S
C629 H615 0.931 . S
C629 C628 1.385 . S
C629 C630 1.389 . S
C630 C629 1.389 . S
C630 C631 1.387 . S
C631 H616 0.930 . S
C631 C626 1.390 . S
C631 C630 1.387 . S
H632 C644 0.930 . S
H633 C646 0.930 . S
H634 C647 0.930 . S
H635 C651 0.959 . S
H636 C651 0.959 . S
H637 C651 0.961 . S
H638 C652 0.960 . S
H639 C652 0.961 . S
H640 C652 0.959 . S
H641 C655 0.929 . S
H642 C656 0.931 . S
H643 C658 0.930 . S
C644 H632 0.930 . S
C644 C645 1.399 . S
C644 C649 1.399 . S
C645 C644 1.399 . S
C645 C646 1.376 . S
C646 H633 0.930 . S
C646 C645 1.376 . S
C646 C647 1.388 . S
C647 H634 0.930 . S
C647 C646 1.388 . S
C647 C648 1.390 . S
C648 C647 1.390 . S
C648 C649 1.394 . S
C648 C654 1.465 . S
C649 C644 1.399 . S
C649 C648 1.394 . S
C649 C650 1.516 . S
C650 C649 1.516 . S
C650 C651 1.502 . S
C650 C652 1.561 . S
C650 C653 1.526 . S
C651 H635 0.959 . S
C651 H636 0.959 . S
C651 H637 0.961 . S
C651 C650 1.502 . S
C652 H638 0.960 . S
C652 H639 0.961 . S
C652 H640 0.959 . S
C652 C650 1.561 . S
C653 C650 1.526 . S
C653 C654 1.396 . S
C653 C658 1.390 . S
C654 C648 1.465 . S
C654 C653 1.396 . S
C654 C655 1.399 . S
C655 H641 0.929 . S
C655 C654 1.399 . S
C655 C656 1.385 . S
C656 H642 0.931 . S
C656 C655 1.385 . S
C656 C657 1.389 . S
C657 C656 1.389 . S
C657 C658 1.387 . S
C658 H643 0.930 . S
C658 C653 1.390 . S
C658 C657 1.387 . S
H659 C671 0.930 . S
H660 C673 0.930 . S
H661 C674 0.930 . S
H662 C678 0.959 . S
H663 C678 0.959 . S
H664 C678 0.961 . S
H665 C679 0.960 . S
H666 C679 0.961 . S
H667 C679 0.959 . S
H668 C682 0.929 . S
H669 C683 0.931 . S
H670 C685 0.930 . S
C671 H659 0.930 . S
C671 C672 1.399 . S
C671 C676 1.399 . S
C672 C671 1.399 . S
C672 C673 1.376 . S
C673 H660 0.930 . S
C673 C672 1.376 . S
C673 C674 1.388 . S
C674 H661 0.930 . S
C674 C673 1.388 . S
C674 C675 1.390 . S
C675 C674 1.390 . S
C675 C676 1.394 . S
C675 C681 1.465 . S
C676 C671 1.399 . S
C676 C675 1.394 . S
C676 C677 1.516 . S
C677 C676 1.516 . S
C677 C678 1.502 . S
C677 C679 1.561 . S
C677 C680 1.526 . S
C678 H662 0.959 . S
C678 H663 0.959 . S
C678 H664 0.961 . S
C678 C677 1.502 . S
C679 H665 0.960 . S
C679 H666 0.961 . S
C679 H667 0.959 . S
C679 C677 1.561 . S
C680 C677 1.526 . S
C680 C681 1.396 . S
C680 C685 1.390 . S
C681 C675 1.465 . S
C681 C680 1.396 . S
C681 C682 1.399 . S
C682 H668 0.929 . S
C682 C681 1.399 . S
C682 C683 1.385 . S
C683 H669 0.931 . S
C683 C682 1.385 . S
C683 C684 1.389 . S
C684 C683 1.389 . S
C684 C685 1.387 . S
C685 H670 0.930 . S
C685 C680 1.390 . S
C685 C684 1.387 . S
H686 C698 0.930 . S
H687 C700 0.930 . S
H688 C701 0.930 . S
H689 C705 0.959 . S
H690 C705 0.959 . S
H691 C705 0.961 . S
H692 C706 0.960 . S
H693 C706 0.961 . S
H694 C706 0.959 . S
H695 C709 0.929 . S
H696 C710 0.931 . S
H697 C712 0.930 . S
C698 H686 0.930 . S
C698 C699 1.399 . S
C698 C703 1.399 . S
C699 C698 1.399 . S
C699 C700 1.376 . S
C700 H687 0.930 . S
C700 C699 1.376 . S
C700 C701 1.388 . S
C701 H688 0.930 . S
C701 C700 1.388 . S
C701 C702 1.390 . S
C702 C701 1.390 . S
C702 C703 1.394 . S
C702 C708 1.465 . S
C703 C698 1.399 . S
C703 C702 1.394 . S
C703 C704 1.516 . S
C704 C703 1.516 . S
C704 C705 1.502 . S
C704 C706 1.561 . S
C704 C707 1.526 . S
C705 H689 0.959 . S
C705 H690 0.959 . S
C705 H691 0.961 . S
C705 C704 1.502 . S
C706 H692 0.960 . S
C706 H693 0.961 . S
C706 H694 0.959 . S
C706 C704 1.561 . S
C707 C704 1.526 . S
C707 C708 1.396 . S
C707 C712 1.390 . S
C708 C702 1.465 . S
C708 C707 1.396 . S
C708 C709 1.399 . S
C709 H695 0.929 . S
C709 C708 1.399 . S
C709 C710 1.385 . S
C710 H696 0.931 . S
C710 C709 1.385 . S
C710 C711 1.389 . S
C711 C710 1.389 . S
C711 C712 1.387 . S
C712 H697 0.930 . S
C712 C707 1.390 . S
C712 C711 1.387 . S
H713 C725 0.930 . S
H714 C727 0.930 . S
H715 C728 0.930 . S
H716 C732 0.959 . S
H717 C732 0.959 . S
H718 C732 0.961 . S
H719 C733 0.960 . S
H720 C733 0.961 . S
H721 C733 0.959 . S
H722 C736 0.929 . S
H723 C737 0.931 . S
H724 C739 0.930 . S
C725 H713 0.930 . S
C725 C726 1.399 . S
C725 C730 1.399 . S
C726 C725 1.399 . S
C726 C727 1.376 . S
C727 H714 0.930 . S
C727 C726 1.376 . S
C727 C728 1.388 . S
C728 H715 0.930 . S
C728 C727 1.388 . S
C728 C729 1.390 . S
C729 C728 1.390 . S
C729 C730 1.394 . S
C729 C735 1.465 . S
C730 C725 1.399 . S
C730 C729 1.394 . S
C730 C731 1.516 . S
C731 C730 1.516 . S
C731 C732 1.502 . S
C731 C733 1.561 . S
C731 C734 1.526 . S
C732 H716 0.959 . S
C732 H717 0.959 . S
C732 H718 0.961 . S
C732 C731 1.502 . S
C733 H719 0.960 . S
C733 H720 0.961 . S
C733 H721 0.959 . S
C733 C731 1.561 . S
C734 C731 1.526 . S
C734 C735 1.396 . S
C734 C739 1.390 . S
C735 C729 1.465 . S
C735 C734 1.396 . S
C735 C736 1.399 . S
C736 H722 0.929 . S
C736 C735 1.399 . S
C736 C737 1.385 . S
C737 H723 0.931 . S
C737 C736 1.385 . S
C737 C738 1.389 . S
C738 C737 1.389 . S
C738 C739 1.387 . S
C739 H724 0.930 . S
C739 C734 1.390 . S
C739 C738 1.387 . S
H740 C752 0.930 . S
H741 C754 0.930 . S
H742 C755 0.930 . S
H743 C759 0.959 . S
H744 C759 0.959 . S
H745 C759 0.961 . S
H746 C760 0.960 . S
H747 C760 0.961 . S
H748 C760 0.959 . S
H749 C763 0.929 . S
H750 C764 0.931 . S
H751 C766 0.930 . S
C752 H740 0.930 . S
C752 C753 1.399 . S
C752 C757 1.399 . S
C753 C752 1.399 . S
C753 C754 1.376 . S
C754 H741 0.930 . S
C754 C753 1.376 . S
C754 C755 1.388 . S
C755 H742 0.930 . S
C755 C754 1.388 . S
C755 C756 1.390 . S
C756 C755 1.390 . S
C756 C757 1.394 . S
C756 C762 1.465 . S
C757 C752 1.399 . S
C757 C756 1.394 . S
C757 C758 1.516 . S
C758 C757 1.516 . S
C758 C759 1.502 . S
C758 C760 1.561 . S
C758 C761 1.526 . S
C759 H743 0.959 . S
C759 H744 0.959 . S
C759 H745 0.961 . S
C759 C758 1.502 . S
C760 H746 0.960 . S
C760 H747 0.961 . S
C760 H748 0.959 . S
C760 C758 1.561 . S
C761 C758 1.526 . S
C761 C762 1.396 . S
C761 C766 1.390 . S
C762 C756 1.465 . S
C762 C761 1.396 . S
C762 C763 1.399 . S
C763 H749 0.929 . S
C763 C762 1.399 . S
C763 C764 1.385 . S
C764 H750 0.931 . S
C764 C763 1.385 . S
C764 C765 1.389 . S
C765 C764 1.389 . S
C765 C766 1.387 . S
C766 H751 0.930 . S
C766 C761 1.390 . S
C766 C765 1.387 . S
H767 C779 0.930 . S
H768 C781 0.930 . S
H769 C782 0.930 . S
H770 C786 0.959 . S
H771 C786 0.959 . S
H772 C786 0.961 . S
H773 C787 0.960 . S
H774 C787 0.961 . S
H775 C787 0.959 . S
H776 C790 0.929 . S
H777 C791 0.931 . S
H778 C793 0.930 . S
C779 H767 0.930 . S
C779 C780 1.399 . S
C779 C784 1.399 . S
C780 C779 1.399 . S
C780 C781 1.376 . S
C781 H768 0.930 . S
C781 C780 1.376 . S
C781 C782 1.388 . S
C782 H769 0.930 . S
C782 C781 1.388 . S
C782 C783 1.390 . S
C783 C782 1.390 . S
C783 C784 1.394 . S
C783 C789 1.465 . S
C784 C779 1.399 . S
C784 C783 1.394 . S
C784 C785 1.516 . S
C785 C784 1.516 . S
C785 C786 1.502 . S
C785 C787 1.561 . S
C785 C788 1.526 . S
C786 H770 0.959 . S
C786 H771 0.959 . S
C786 H772 0.961 . S
C786 C785 1.502 . S
C787 H773 0.960 . S
C787 H774 0.961 . S
C787 H775 0.959 . S
C787 C785 1.561 . S
C788 C785 1.526 . S
C788 C789 1.396 . S
C788 C793 1.390 . S
C789 C783 1.465 . S
C789 C788 1.396 . S
C789 C790 1.399 . S
C790 H776 0.929 . S
C790 C789 1.399 . S
C790 C791 1.385 . S
C791 H777 0.931 . S
C791 C790 1.385 . S
C791 C792 1.389 . S
C792 C791 1.389 . S
C792 C793 1.387 . S
C793 H778 0.930 . S
C793 C788 1.390 . S
C793 C792 1.387 . S
H794 C806 0.930 . S
H795 C808 0.930 . S
H796 C809 0.930 . S
H797 C813 0.959 . S
H798 C813 0.959 . S
H799 C813 0.961 . S
H800 C814 0.960 . S
H801 C814 0.961 . S
H802 C814 0.959 . S
H803 C817 0.929 . S
H804 C818 0.931 . S
H805 C820 0.930 . S
C806 H794 0.930 . S
C806 C807 1.399 . S
C806 C811 1.399 . S
C807 C806 1.399 . S
C807 C808 1.376 . S
C808 H795 0.930 . S
C808 C807 1.376 . S
C808 C809 1.388 . S
C809 H796 0.930 . S
C809 C808 1.388 . S
C809 C810 1.390 . S
C810 C809 1.390 . S
C810 C811 1.394 . S
C810 C816 1.465 . S
C811 C806 1.399 . S
C811 C810 1.394 . S
C811 C812 1.516 . S
C812 C811 1.516 . S
C812 C813 1.502 . S
C812 C814 1.561 . S
C812 C815 1.526 . S
C813 H797 0.959 . S
C813 H798 0.959 . S
C813 H799 0.961 . S
C813 C812 1.502 . S
C814 H800 0.960 . S
C814 H801 0.961 . S
C814 H802 0.959 . S
C814 C812 1.561 . S
C815 C812 1.526 . S
C815 C816 1.396 . S
C815 C820 1.390 . S
C816 C810 1.465 . S
C816 C815 1.396 . S
C816 C817 1.399 . S
C817 H803 0.929 . S
C817 C816 1.399 . S
C817 C818 1.385 . S
C818 H804 0.931 . S
C818 C817 1.385 . S
C818 C819 1.389 . S
C819 C818 1.389 . S
C819 C820 1.387 . S
C820 H805 0.930 . S
C820 C815 1.390 . S
C820 C819 1.387 . S
H821 C833 0.930 . S
H822 C835 0.930 . S
H823 C836 0.930 . S
H824 C840 0.959 . S
H825 C840 0.949 1_655 S
H826 C840 0.961 . S
H827 C841 0.960 . S
H828 C841 0.961 . S
H829 C841 0.959 . S
H830 C844 0.929 . S
H831 C845 0.931 . S
H832 C847 0.930 . S
C833 H821 0.930 . S
C833 C834 1.399 . S
C833 C838 1.399 . S
C834 C833 1.399 . S
C834 C835 1.376 . S
C835 H822 0.930 . S
C835 C834 1.376 . S
C835 C836 1.388 . S
C836 H823 0.930 . S
C836 C835 1.388 . S
C836 C837 1.390 . S
C837 C836 1.390 . S
C837 C838 1.394 . S
C837 C843 1.465 . S
C838 C833 1.399 . S
C838 C837 1.394 . S
C838 C839 1.516 . S
C839 C838 1.516 . S
C839 C840 1.502 . S
C839 C841 1.561 . S
C839 C842 1.526 . S
C840 H824 0.959 . S
C840 H825 0.949 1_455 S
C840 H826 0.961 . S
C840 C839 1.502 . S
C841 H827 0.960 . S
C841 H828 0.961 . S
C841 H829 0.959 . S
C841 C839 1.561 . S
C842 C839 1.526 . S
C842 C843 1.396 . S
C842 C847 1.390 . S
C843 C837 1.465 . S
C843 C842 1.396 . S
C843 C844 1.399 . S
C844 H830 0.929 . S
C844 C843 1.399 . S
C844 C845 1.385 . S
C845 H831 0.931 . S
C845 C844 1.385 . S
C845 C846 1.389 . S
C846 C845 1.389 . S
C846 C847 1.387 . S
C847 H832 0.930 . S
C847 C842 1.390 . S
C847 C846 1.387 . S
H848 C860 0.930 . S
H849 C862 0.930 . S
H850 C863 0.930 . S
H851 C867 0.959 . S
H852 C867 0.959 . S
H853 C867 0.961 . S
H854 C868 0.960 . S
H855 C868 0.961 . S
H856 C868 0.959 . S
H857 C871 0.929 . S
H858 C872 0.931 . S
H859 C874 0.930 . S
C860 H848 0.930 . S
C860 C861 1.399 . S
C860 C865 1.399 . S
C861 C860 1.399 . S
C861 C862 1.376 . S
C862 H849 0.930 . S
C862 C861 1.376 . S
C862 C863 1.388 . S
C863 H850 0.930 . S
C863 C862 1.388 . S
C863 C864 1.390 . S
C864 C863 1.390 . S
C864 C865 1.394 . S
C864 C870 1.465 . S
C865 C860 1.399 . S
C865 C864 1.394 . S
C865 C866 1.516 . S
C866 C865 1.516 . S
C866 C867 1.502 . S
C866 C868 1.561 . S
C866 C869 1.526 . S
C867 H851 0.959 . S
C867 H852 0.959 . S
C867 H853 0.961 . S
C867 C866 1.502 . S
C868 H854 0.960 . S
C868 H855 0.961 . S
C868 H856 0.959 . S
C868 C866 1.561 . S
C869 C866 1.526 . S
C869 C870 1.396 . S
C869 C874 1.390 . S
C870 C864 1.465 . S
C870 C869 1.396 . S
C870 C871 1.399 . S
C871 H857 0.929 . S
C871 C870 1.399 . S
C871 C872 1.385 . S
C872 H858 0.931 . S
C872 C871 1.385 . S
C872 C873 1.389 . S
C873 C872 1.389 . S
C873 C874 1.387 . S
C874 H859 0.930 . S
C874 C869 1.390 . S
C874 C873 1.387 . S
H875 C887 0.930 . S
H876 C889 0.930 . S
H877 C890 0.930 . S
H878 C894 0.959 . S
H879 C894 0.959 . S
H880 C894 0.961 . S
H881 C895 0.960 . S
H882 C895 0.961 . S
H883 C895 0.959 . S
H884 C898 0.929 . S
H885 C899 0.931 . S
H886 C901 0.930 . S
C887 H875 0.930 . S
C887 C888 1.399 . S
C887 C892 1.399 . S
C888 C887 1.399 . S
C888 C889 1.376 . S
C889 H876 0.930 . S
C889 C888 1.376 . S
C889 C890 1.388 . S
C890 H877 0.930 . S
C890 C889 1.388 . S
C890 C891 1.390 . S
C891 C890 1.390 . S
C891 C892 1.394 . S
C891 C897 1.465 . S
C892 C887 1.399 . S
C892 C891 1.394 . S
C892 C893 1.516 . S
C893 C892 1.516 . S
C893 C894 1.502 . S
C893 C895 1.561 . S
C893 C896 1.526 . S
C894 H878 0.959 . S
C894 H879 0.959 . S
C894 H880 0.961 . S
C894 C893 1.502 . S
C895 H881 0.960 . S
C895 H882 0.961 . S
C895 H883 0.959 . S
C895 C893 1.561 . S
C896 C893 1.526 . S
C896 C897 1.396 . S
C896 C901 1.390 . S
C897 C891 1.465 . S
C897 C896 1.396 . S
C897 C898 1.399 . S
C898 H884 0.929 . S
C898 C897 1.399 . S
C898 C899 1.385 . S
C899 H885 0.931 . S
C899 C898 1.385 . S
C899 C900 1.389 . S
C900 C899 1.389 . S
C900 C901 1.387 . S
C901 H886 0.930 . S
C901 C896 1.390 . S
C901 C900 1.387 . S
H902 C914 0.930 . S
H903 C916 0.930 . S
H904 C917 0.930 . S
H905 C921 0.959 . S
H906 C921 0.959 . S
H907 C921 0.961 . S
H908 C922 0.960 . S
H909 C922 0.961 . S
H910 C922 0.959 . S
H911 C925 0.929 . S
H912 C926 0.931 . S
H913 C928 0.930 . S
C914 H902 0.930 . S
C914 C915 1.399 . S
C914 C919 1.399 . S
C915 C914 1.399 . S
C915 C916 1.376 . S
C916 H903 0.930 . S
C916 C915 1.376 . S
C916 C917 1.388 . S
C917 H904 0.930 . S
C917 C916 1.388 . S
C917 C918 1.390 . S
C918 C917 1.390 . S
C918 C919 1.394 . S
C918 C924 1.465 . S
C919 C914 1.399 . S
C919 C918 1.394 . S
C919 C920 1.516 . S
C920 C919 1.516 . S
C920 C921 1.502 . S
C920 C922 1.561 . S
C920 C923 1.526 . S
C921 H905 0.959 . S
C921 H906 0.959 . S
C921 H907 0.961 . S
C921 C920 1.502 . S
C922 H908 0.960 . S
C922 H909 0.961 . S
C922 H910 0.959 . S
C922 C920 1.561 . S
C923 C920 1.526 . S
C923 C924 1.396 . S
C923 C928 1.390 . S
C924 C918 1.465 . S
C924 C923 1.396 . S
C924 C925 1.399 . S
C925 H911 0.929 . S
C925 C924 1.399 . S
C925 C926 1.385 . S
C926 H912 0.931 . S
C926 C925 1.385 . S
C926 C927 1.389 . S
C927 C926 1.389 . S
C927 C928 1.387 . S
C928 H913 0.930 . S
C928 C923 1.390 . S
C928 C927 1.387 . S
H929 C941 0.930 . S
H930 C943 0.930 . S
H931 C944 0.930 . S
H932 C948 0.959 . S
H933 C948 0.959 . S
H934 C948 0.961 . S
H935 C949 0.960 . S
H936 C949 0.961 . S
H937 C949 0.959 . S
H938 C952 0.929 . S
H939 C953 0.931 . S
H940 C955 0.930 . S
C941 H929 0.930 . S
C941 C942 1.399 . S
C941 C946 1.399 . S
C942 C941 1.399 . S
C942 C943 1.376 . S
C943 H930 0.930 . S
C943 C942 1.376 . S
C943 C944 1.388 . S
C944 H931 0.930 . S
C944 C943 1.388 . S
C944 C945 1.390 . S
C945 C944 1.390 . S
C945 C946 1.394 . S
C945 C951 1.465 . S
C946 C941 1.399 . S
C946 C945 1.394 . S
C946 C947 1.516 . S
C947 C946 1.516 . S
C947 C948 1.502 . S
C947 C949 1.561 . S
C947 C950 1.526 . S
C948 H932 0.959 . S
C948 H933 0.959 . S
C948 H934 0.961 . S
C948 C947 1.502 . S
C949 H935 0.960 . S
C949 H936 0.961 . S
C949 H937 0.959 . S
C949 C947 1.561 . S
C950 C947 1.526 . S
C950 C951 1.396 . S
C950 C955 1.390 . S
C951 C945 1.465 . S
C951 C950 1.396 . S
C951 C952 1.399 . S
C952 H938 0.929 . S
C952 C951 1.399 . S
C952 C953 1.385 . S
C953 H939 0.931 . S
C953 C952 1.385 . S
C953 C954 1.389 . S
C954 C953 1.389 . S
C954 C955 1.387 . S
C955 H940 0.930 . S
C955 C950 1.390 . S
C955 C954 1.387 . S
H956 C968 0.930 . S
H957 C970 0.930 . S
H958 C971 0.930 . S
H959 C975 0.959 . S
H960 C975 0.959 . S
H961 C975 0.961 . S
H962 C976 0.960 . S
H963 C976 0.961 . S
H964 C976 0.959 . S
H965 C979 0.929 . S
H966 C980 0.931 . S
H967 C982 0.930 . S
C968 H956 0.930 . S
C968 C969 1.399 . S
C968 C973 1.399 . S
C969 C968 1.399 . S
C969 C970 1.376 . S
C970 H957 0.930 . S
C970 C969 1.376 . S
C970 C971 1.388 . S
C971 H958 0.930 . S
C971 C970 1.388 . S
C971 C972 1.390 . S
C972 C971 1.390 . S
C972 C973 1.394 . S
C972 C978 1.465 . S
C973 C968 1.399 . S
C973 C972 1.394 . S
C973 C974 1.516 . S
C974 C973 1.516 . S
C974 C975 1.502 . S
C974 C976 1.561 . S
C974 C977 1.526 . S
C975 H959 0.959 . S
C975 H960 0.959 . S
C975 H961 0.961 . S
C975 C974 1.502 . S
C976 H962 0.960 . S
C976 H963 0.961 . S
C976 H964 0.959 . S
C976 C974 1.561 . S
C977 C974 1.526 . S
C977 C978 1.396 . S
C977 C982 1.390 . S
C978 C972 1.465 . S
C978 C977 1.396 . S
C978 C979 1.399 . S
C979 H965 0.929 . S
C979 C978 1.399 . S
C979 C980 1.385 . S
C980 H966 0.931 . S
C980 C979 1.385 . S
C980 C981 1.389 . S
C981 C980 1.389 . S
C981 C982 1.387 . S
C982 H967 0.930 . S
C982 C977 1.390 . S
C982 C981 1.387 . S
H983 C995 0.930 . S
H984 C997 0.930 . S
H985 C998 0.930 . S
H986 C1002 0.959 . S
H987 C1002 0.959 . S
H988 C1002 0.961 . S
H989 C1003 0.960 . S
H990 C1003 0.961 . S
H991 C1003 0.959 . S
H992 C1006 0.929 . S
H993 C1007 0.931 . S
H994 C1009 0.930 . S
C995 H983 0.930 . S
C995 C996 1.399 . S
C995 C1000 1.399 . S
C996 C995 1.399 . S
C996 C997 1.376 . S
C997 H984 0.930 . S
C997 C996 1.376 . S
C997 C998 1.388 . S
C998 H985 0.930 . S
C998 C997 1.388 . S
C998 C999 1.390 . S
C999 C998 1.390 . S
C999 C1000 1.394 . S
C999 C1005 1.465 . S
C1000 C995 1.399 . S
C1000 C999 1.394 . S
C1000 C1001 1.516 . S
C1001 C1000 1.516 . S
C1001 C1002 1.502 . S
C1001 C1003 1.561 . S
C1001 C1004 1.526 . S
C1002 H986 0.959 . S
C1002 H987 0.959 . S
C1002 H988 0.961 . S
C1002 C1001 1.502 . S
C1003 H989 0.960 . S
C1003 H990 0.961 . S
C1003 H991 0.959 . S
C1003 C1001 1.561 . S
C1004 C1001 1.526 . S
C1004 C1005 1.396 . S
C1004 C1009 1.390 . S
C1005 C999 1.465 . S
C1005 C1004 1.396 . S
C1005 C1006 1.399 . S
C1006 H992 0.929 . S
C1006 C1005 1.399 . S
C1006 C1007 1.385 . S
C1007 H993 0.931 . S
C1007 C1006 1.385 . S
C1007 C1008 1.389 . S
C1008 C1007 1.389 . S
C1008 C1009 1.387 . S
C1009 H994 0.930 . S
C1009 C1004 1.390 . S
C1009 C1008 1.387 . S
H1010 C1022 0.930 . S
H1011 C1024 0.930 . S
H1012 C1025 0.930 . S
H1013 C1029 0.959 . S
H1014 C1029 0.959 . S
H1015 C1029 0.961 . S
H1016 C1030 0.960 . S
H1017 C1030 0.961 . S
H1018 C1030 0.959 . S
H1019 C1033 0.929 . S
H1020 C1034 0.931 . S
H1021 C1036 0.930 . S
C1022 H1010 0.930 . S
C1022 C1023 1.399 . S
C1022 C1027 1.399 . S
C1023 C1022 1.399 . S
C1023 C1024 1.376 . S
C1024 H1011 0.930 . S
C1024 C1023 1.376 . S
C1024 C1025 1.388 . S
C1025 H1012 0.930 . S
C1025 C1024 1.388 . S
C1025 C1026 1.390 . S
C1026 C1025 1.390 . S
C1026 C1027 1.394 . S
C1026 C1032 1.465 . S
C1027 C1022 1.399 . S
C1027 C1026 1.394 . S
C1027 C1028 1.516 . S
C1028 C1027 1.516 . S
C1028 C1029 1.502 . S
C1028 C1030 1.561 . S
C1028 C1031 1.526 . S
C1029 H1013 0.959 . S
C1029 H1014 0.959 . S
C1029 H1015 0.961 . S
C1029 C1028 1.502 . S
C1030 H1016 0.960 . S
C1030 H1017 0.961 . S
C1030 H1018 0.959 . S
C1030 C1028 1.561 . S
C1031 C1028 1.526 . S
C1031 C1032 1.396 . S
C1031 C1036 1.390 . S
C1032 C1026 1.465 . S
C1032 C1031 1.396 . S
C1032 C1033 1.399 . S
C1033 H1019 0.929 . S
C1033 C1032 1.399 . S
C1033 C1034 1.385 . S
C1034 H1020 0.931 . S
C1034 C1033 1.385 . S
C1034 C1035 1.389 . S
C1035 C1034 1.389 . S
C1035 C1036 1.387 . S
C1036 H1021 0.930 . S
C1036 C1031 1.390 . S
C1036 C1035 1.387 . S
H1037 C1049 0.930 . S
H1038 C1051 0.930 . S
H1039 C1052 0.930 . S
H1040 C1056 0.959 . S
H1041 C1056 0.959 . S
H1042 C1056 0.961 . S
H1043 C1057 0.960 . S
H1044 C1057 0.961 . S
H1045 C1057 0.959 . S
H1046 C1060 0.929 . S
H1047 C1061 0.931 . S
H1048 C1063 0.930 . S
C1049 H1037 0.930 . S
C1049 C1050 1.399 . S
C1049 C1054 1.399 . S
C1050 C1049 1.399 . S
C1050 C1051 1.376 . S
C1051 H1038 0.930 . S
C1051 C1050 1.376 . S
C1051 C1052 1.388 . S
C1052 H1039 0.930 . S
C1052 C1051 1.388 . S
C1052 C1053 1.390 . S
C1053 C1052 1.390 . S
C1053 C1054 1.394 . S
C1053 C1059 1.465 . S
C1054 C1049 1.399 . S
C1054 C1053 1.394 . S
C1054 C1055 1.516 . S
C1055 C1054 1.516 . S
C1055 C1056 1.502 . S
C1055 C1057 1.561 . S
C1055 C1058 1.526 . S
C1056 H1040 0.959 . S
C1056 H1041 0.959 . S
C1056 H1042 0.961 . S
C1056 C1055 1.502 . S
C1057 H1043 0.960 . S
C1057 H1044 0.961 . S
C1057 H1045 0.959 . S
C1057 C1055 1.561 . S
C1058 C1055 1.526 . S
C1058 C1059 1.396 . S
C1058 C1063 1.390 . S
C1059 C1053 1.465 . S
C1059 C1058 1.396 . S
C1059 C1060 1.399 . S
C1060 H1046 0.929 . S
C1060 C1059 1.399 . S
C1060 C1061 1.385 . S
C1061 H1047 0.931 . S
C1061 C1060 1.385 . S
C1061 C1062 1.389 . S
C1062 C1061 1.389 . S
C1062 C1063 1.387 . S
C1063 H1048 0.930 . S
C1063 C1058 1.390 . S
C1063 C1062 1.387 . S
C429 C29 1.229 . S
C441 C262 1.193 . S
C456 C49 0.879 . S
C468 C311 0.901 . S
C495 C346 2.519 . S
C483 C93 2.491 . S
C510 C119 2.294 . S
C522 C385 2.293 . S
C549 C306 2.294 . S
C537 C17 2.265 . S
C576 C265 0.890 . S
C564 C61 0.845 . S
C603 C395 1.901 . S
C591 C81 1.926 . S
C630 C354 1.646 . S
C618 C125 1.676 . S
C645 C23 1.578 . S
C657 C382 1.604 . S
C684 C314 2.312 . S
C672 C87 2.323 . S
C699 C113 2.334 . S
C711 C275 2.366 . S
C726 C55 0.916 . S
C738 C351 0.835 . S
C765 C271 1.201 . S
C753 C157 0.985 . S
C780 C189 0.936 . S
C792 C302 1.009 . S
C807 C221 2.454 . S
C819 C355 2.460 . S
C834 C253 2.348 . S
C846 C394 2.379 . S
C861 C145 2.126 . S
C873 C315 2.379 . S
C900 C274 0.726 . S
C888 C183 0.838 . S
C927 C386 1.928 . S
C915 C209 1.920 . S
C954 C345 1.594 . S
C942 C247 1.586 . S
C969 C151 1.521 . S
C981 C391 1.615 . S
C1008 C305 2.295 . S
C996 C215 2.341 . S
C1035 C266 2.309 . S
C1023 C241 2.253 . S
C1050 C177 0.786 . S
C1062 C342 0.837 . S
