# Generated by pormake.
# Topology ptr, (4,4)-cn, num edge types: 1
# Building blocks:
#     Node 0, Type 0, BuildingBlock: GALJAG_clean_sbu_0, # of connection points: 4
#     Node 1, Type 0, BuildingBlock: GALJAG_clean_sbu_0, # of connection points: 4
#     Node 2, Type 0, BuildingBlock: GALJAG_clean_sbu_0, # of connection points: 4
#     Node 3, Type 0, BuildingBlock: GALJAG_clean_sbu_0, # of connection points: 4
#     Node 4, Type 0, BuildingBlock: GALJAG_clean_sbu_0, # of connection points: 4
#     Node 5, Type 0, BuildingBlock: GALJAG_clean_sbu_0, # of connection points: 4
#     Node 6, Type 0, BuildingBlock: GALJAG_clean_sbu_0, # of connection points: 4
#     Node 7, Type 0, BuildingBlock: GALJAG_clean_sbu_0, # of connection points: 4
#     Node 8, Type 0, BuildingBlock: GALJAG_clean_sbu_0, # of connection points: 4
#     Node 9, Type 0, BuildingBlock: GALJAG_clean_sbu_0, # of connection points: 4
#     Node 10, Type 0, BuildingBlock: GALJAG_clean_sbu_0, # of connection points: 4
#     Node 11, Type 0, BuildingBlock: GALJAG_clean_sbu_0, # of connection points: 4
#     Node 12, Type 0, BuildingBlock: GALJAG_clean_sbu_0, # of connection points: 4
#     Node 13, Type 0, BuildingBlock: GALJAG_clean_sbu_0, # of connection points: 4
#     Node 14, Type 0, BuildingBlock: GALJAG_clean_sbu_0, # of connection points: 4
#     Node 15, Type 0, BuildingBlock: GALJAG_clean_sbu_0, # of connection points: 4
#     Node 16, Type 0, BuildingBlock: GALJAG_clean_sbu_0, # of connection points: 4
#     Node 17, Type 0, BuildingBlock: GALJAG_clean_sbu_0, # of connection points: 4
#     Node 18, Type 1, BuildingBlock: NAHDIM_clean_linker_0, # of connection points: 4
#     Node 19, Type 1, BuildingBlock: NAHDIM_clean_linker_0, # of connection points: 4
#     Node 20, Type 1, BuildingBlock: NAHDIM_clean_linker_0, # of connection points: 4
#     Node 21, Type 1, BuildingBlock: NAHDIM_clean_linker_0, # of connection points: 4
#     Node 22, Type 1, BuildingBlock: NAHDIM_clean_linker_0, # of connection points: 4
#     Node 23, Type 1, BuildingBlock: NAHDIM_clean_linker_0, # of connection points: 4
#     Node 24, Type 1, BuildingBlock: NAHDIM_clean_linker_0, # of connection points: 4
#     Node 25, Type 1, BuildingBlock: NAHDIM_clean_linker_0, # of connection points: 4
#     Node 26, Type 1, BuildingBlock: NAHDIM_clean_linker_0, # of connection points: 4
#     Node 27, Type 1, BuildingBlock: NAHDIM_clean_linker_0, # of connection points: 4
#     Node 28, Type 1, BuildingBlock: NAHDIM_clean_linker_0, # of connection points: 4
#     Node 29, Type 1, BuildingBlock: NAHDIM_clean_linker_0, # of connection points: 4
#     Node 30, Type 1, BuildingBlock: NAHDIM_clean_linker_0, # of connection points: 4
#     Node 31, Type 1, BuildingBlock: NAHDIM_clean_linker_0, # of connection points: 4
#     Node 32, Type 1, BuildingBlock: NAHDIM_clean_linker_0, # of connection points: 4
#     Node 33, Type 1, BuildingBlock: NAHDIM_clean_linker_0, # of connection points: 4
#     Node 34, Type 1, BuildingBlock: NAHDIM_clean_linker_0, # of connection points: 4
#     Node 35, Type 1, BuildingBlock: NAHDIM_clean_linker_0, # of connection points: 4
#     Edge 36, Type (0, 1), BuildingBlock: AJUNOK_clean_linker_0, # of connection points: 2
#     Edge 37, Type (0, 1), BuildingBlock: AJUNOK_clean_linker_0, # of connection points: 2
#     Edge 38, Type (0, 1), BuildingBlock: AJUNOK_clean_linker_0, # of connection points: 2
#     Edge 39, Type (0, 1), BuildingBlock: AJUNOK_clean_linker_0, # of connection points: 2
#     Edge 40, Type (0, 1), BuildingBlock: AJUNOK_clean_linker_0, # of connection points: 2
#     Edge 41, Type (0, 1), BuildingBlock: AJUNOK_clean_linker_0, # of connection points: 2
#     Edge 42, Type (0, 1), BuildingBlock: AJUNOK_clean_linker_0, # of connection points: 2
#     Edge 43, Type (0, 1), BuildingBlock: AJUNOK_clean_linker_0, # of connection points: 2
#     Edge 44, Type (0, 1), BuildingBlock: AJUNOK_clean_linker_0, # of connection points: 2
#     Edge 45, Type (0, 1), BuildingBlock: AJUNOK_clean_linker_0, # of connection points: 2
#     Edge 46, Type (0, 1), BuildingBlock: AJUNOK_clean_linker_0, # of connection points: 2
#     Edge 47, Type (0, 1), BuildingBlock: AJUNOK_clean_linker_0, # of connection points: 2
#     Edge 48, Type (0, 1), BuildingBlock: AJUNOK_clean_linker_0, # of connection points: 2
#     Edge 49, Type (0, 1), BuildingBlock: AJUNOK_clean_linker_0, # of connection points: 2
#     Edge 50, Type (0, 1), BuildingBlock: AJUNOK_clean_linker_0, # of connection points: 2
#     Edge 51, Type (0, 1), BuildingBlock: AJUNOK_clean_linker_0, # of connection points: 2
#     Edge 52, Type (0, 1), BuildingBlock: AJUNOK_clean_linker_0, # of connection points: 2
#     Edge 53, Type (0, 1), BuildingBlock: AJUNOK_clean_linker_0, # of connection points: 2
#     Edge 54, Type (0, 1), BuildingBlock: AJUNOK_clean_linker_0, # of connection points: 2
#     Edge 55, Type (0, 1), BuildingBlock: AJUNOK_clean_linker_0, # of connection points: 2
#     Edge 56, Type (0, 1), BuildingBlock: AJUNOK_clean_linker_0, # of connection points: 2
#     Edge 57, Type (0, 1), BuildingBlock: AJUNOK_clean_linker_0, # of connection points: 2
#     Edge 58, Type (0, 1), BuildingBlock: AJUNOK_clean_linker_0, # of connection points: 2
#     Edge 59, Type (0, 1), BuildingBlock: AJUNOK_clean_linker_0, # of connection points: 2
#     Edge 60, Type (0, 1), BuildingBlock: AJUNOK_clean_linker_0, # of connection points: 2
#     Edge 61, Type (0, 1), BuildingBlock: AJUNOK_clean_linker_0, # of connection points: 2
#     Edge 62, Type (0, 1), BuildingBlock: AJUNOK_clean_linker_0, # of connection points: 2
#     Edge 63, Type (0, 1), BuildingBlock: AJUNOK_clean_linker_0, # of connection points: 2
#     Edge 64, Type (0, 1), BuildingBlock: AJUNOK_clean_linker_0, # of connection points: 2
#     Edge 65, Type (0, 1), BuildingBlock: AJUNOK_clean_linker_0, # of connection points: 2
#     Edge 66, Type (0, 1), BuildingBlock: AJUNOK_clean_linker_0, # of connection points: 2
#     Edge 67, Type (0, 1), BuildingBlock: AJUNOK_clean_linker_0, # of connection points: 2
#     Edge 68, Type (0, 1), BuildingBlock: AJUNOK_clean_linker_0, # of connection points: 2
#     Edge 69, Type (0, 1), BuildingBlock: AJUNOK_clean_linker_0, # of connection points: 2
#     Edge 70, Type (0, 1), BuildingBlock: AJUNOK_clean_linker_0, # of connection points: 2
#     Edge 71, Type (0, 1), BuildingBlock: AJUNOK_clean_linker_0, # of connection points: 2
#     Edge 72, Type (0, 1), BuildingBlock: AJUNOK_clean_linker_0, # of connection points: 2
#     Edge 73, Type (0, 1), BuildingBlock: AJUNOK_clean_linker_0, # of connection points: 2
#     Edge 74, Type (0, 1), BuildingBlock: AJUNOK_clean_linker_0, # of connection points: 2
#     Edge 75, Type (0, 1), BuildingBlock: AJUNOK_clean_linker_0, # of connection points: 2
#     Edge 76, Type (0, 1), BuildingBlock: AJUNOK_clean_linker_0, # of connection points: 2
#     Edge 77, Type (0, 1), BuildingBlock: AJUNOK_clean_linker_0, # of connection points: 2
#     Edge 78, Type (0, 1), BuildingBlock: AJUNOK_clean_linker_0, # of connection points: 2
#     Edge 79, Type (0, 1), BuildingBlock: AJUNOK_clean_linker_0, # of connection points: 2
#     Edge 80, Type (0, 1), BuildingBlock: AJUNOK_clean_linker_0, # of connection points: 2
#     Edge 81, Type (0, 1), BuildingBlock: AJUNOK_clean_linker_0, # of connection points: 2
#     Edge 82, Type (0, 1), BuildingBlock: AJUNOK_clean_linker_0, # of connection points: 2
#     Edge 83, Type (0, 1), BuildingBlock: AJUNOK_clean_linker_0, # of connection points: 2
#     Edge 84, Type (0, 1), BuildingBlock: AJUNOK_clean_linker_0, # of connection points: 2
#     Edge 85, Type (0, 1), BuildingBlock: AJUNOK_clean_linker_0, # of connection points: 2
#     Edge 86, Type (0, 1), BuildingBlock: AJUNOK_clean_linker_0, # of connection points: 2
#     Edge 87, Type (0, 1), BuildingBlock: AJUNOK_clean_linker_0, # of connection points: 2
#     Edge 88, Type (0, 1), BuildingBlock: AJUNOK_clean_linker_0, # of connection points: 2
#     Edge 89, Type (0, 1), BuildingBlock: AJUNOK_clean_linker_0, # of connection points: 2
#     Edge 90, Type (0, 1), BuildingBlock: AJUNOK_clean_linker_0, # of connection points: 2
#     Edge 91, Type (0, 1), BuildingBlock: AJUNOK_clean_linker_0, # of connection points: 2
#     Edge 92, Type (0, 1), BuildingBlock: AJUNOK_clean_linker_0, # of connection points: 2
#     Edge 93, Type (0, 1), BuildingBlock: AJUNOK_clean_linker_0, # of connection points: 2
#     Edge 94, Type (0, 1), BuildingBlock: AJUNOK_clean_linker_0, # of connection points: 2
#     Edge 95, Type (0, 1), BuildingBlock: AJUNOK_clean_linker_0, # of connection points: 2
#     Edge 96, Type (0, 1), BuildingBlock: AJUNOK_clean_linker_0, # of connection points: 2
#     Edge 97, Type (0, 1), BuildingBlock: AJUNOK_clean_linker_0, # of connection points: 2
#     Edge 98, Type (0, 1), BuildingBlock: AJUNOK_clean_linker_0, # of connection points: 2
#     Edge 99, Type (0, 1), BuildingBlock: AJUNOK_clean_linker_0, # of connection points: 2
#     Edge 100, Type (0, 1), BuildingBlock: AJUNOK_clean_linker_0, # of connection points: 2
#     Edge 101, Type (0, 1), BuildingBlock: AJUNOK_clean_linker_0, # of connection points: 2
#     Edge 102, Type (0, 1), BuildingBlock: AJUNOK_clean_linker_0, # of connection points: 2
#     Edge 103, Type (0, 1), BuildingBlock: AJUNOK_clean_linker_0, # of connection points: 2
#     Edge 104, Type (0, 1), BuildingBlock: AJUNOK_clean_linker_0, # of connection points: 2
#     Edge 105, Type (0, 1), BuildingBlock: AJUNOK_clean_linker_0, # of connection points: 2
#     Edge 106, Type (0, 1), BuildingBlock: AJUNOK_clean_linker_0, # of connection points: 2
#     Edge 107, Type (0, 1), BuildingBlock: AJUNOK_clean_linker_0, # of connection points: 2
# Relax obj value: 0.026
# Max RMSD: 0.104
# Mean RMSD: 0.052
data_MOF--net-ptr--node1-GALJAG_clean_sbu_0--node2-NAHDIM_clean_linker_0--edge1-AJUNOK_clean_linker_0
_symmetry_space_group_name_H-M    P1
_symmetry_Int_Tables_number       1
_symmetry_cell_setting            triclinic
loop_
_symmetry_equiv_pos_as_xyz
'x, y, z'
_cell_length_a     75.35839
_cell_length_b     75.074843
_cell_length_c     68.411216
_cell_angle_alpha  90.876725
_cell_angle_beta   90.564573
_cell_angle_gamma 120.01834
loop_
_atom_site_label
_atom_site_type_symbol
_atom_site_fract_x
_atom_site_fract_y
_atom_site_fract_z
_atom_type_partial_charge
In0 In 0.99959 0.3407 0.00886 0.0
O1 O 0.97473 0.33799 0.02971 0.0
O2 O 0.00461 0.36422 0.03241 0.0
C3 C 0.97957 0.30795 0.98463 0.0
C4 C 0.02191 0.32982 0.03118 0.0
C5 C 0.00956 0.3692 0.98121 0.0
O6 O 0.9702 0.3149 0.99455 0.0
O7 O 0.99875 0.31716 0.98725 0.0
O8 O 0.02256 0.36487 0.98812 0.0
O9 O 0.99206 0.35946 0.98856 0.0
C10 C 0.98659 0.35476 0.03869 0.0
O11 O 0.03003 0.34692 0.02271 0.0
O12 O 0.00293 0.31831 0.02804 0.0
In13 In 0.65437 0.65094 0.01131 0.0
O14 O 0.65569 0.62876 0.03325 0.0
O15 O 0.62987 0.63292 0.0335 0.0
C16 C 0.6906 0.65623 0.99912 0.0
C17 C 0.66227 0.68841 0.02402 0.0
C18 C 0.62699 0.63788 0.98116 0.0
O19 O 0.6889 0.66413 0.01489 0.0
O20 O 0.67397 0.64531 0.9898 0.0
O21 O 0.63383 0.65524 0.98944 0.0
O22 O 0.63384 0.62702 0.98816 0.0
C23 C 0.63892 0.62436 0.04101 0.0
O24 O 0.66916 0.68571 0.0082 0.0
O25 O 0.6515 0.67225 0.03337 0.0
In26 In 0.33949 0.99917 0.00579 0.0
O27 O 0.34157 0.03074 0.00513 0.0
O28 O 0.31639 0.00538 0.99057 0.0
C29 C 0.36561 0.0041 0.03526 0.0
C30 C 0.35995 0.99817 0.97395 0.0
C31 C 0.30533 0.96807 0.02078 0.0
O32 O 0.36 0.01711 0.03204 0.0
O33 O 0.35847 0.98906 0.02328 0.0
O34 O 0.31038 0.96767 0.00328 0.0
O35 O 0.31744 0.98407 0.03058 0.0
C36 C 0.32527 0.02427 0.99505 0.0
O37 O 0.345 0.98219 0.98068 0.0
O38 O 0.36452 0.01453 0.98333 0.0
In39 In 0.9941 0.65563 0.00309 0.0
O40 O 0.01751 0.65368 0.98357 0.0
O41 O 0.98596 0.63438 0.97632 0.0
C42 C 0.01731 0.692 0.02194 0.0
C43 C 0.96754 0.66663 0.9889 0.0
C44 C 0.98758 0.62856 0.03148 0.0
O45 O 0.02238 0.68782 0.0057 0.0
O46 O 0.00103 0.67764 0.02878 0.0
O47 O 0.97303 0.62879 0.02235 0.0
O48 O 0.00522 0.6415 0.02578 0.0
C49 C 0.00427 0.64034 0.97193 0.0
O50 O 0.96208 0.65196 0.00057 0.0
O51 O 0.98604 0.67505 0.98403 0.0
In52 In 0.35058 0.35669 0.0086 0.0
O53 O 0.34304 0.36755 0.98061 0.0
O54 O 0.37218 0.38728 0.994 0.0
C55 C 0.31322 0.34441 0.02367 0.0
C56 C 0.34485 0.32182 0.99057 0.0
C57 C 0.37922 0.37114 0.03765 0.0
O58 O 0.32347 0.3616 0.01568 0.0
O59 O 0.32209 0.33403 0.02444 0.0
O60 O 0.38046 0.36183 0.02266 0.0
O61 O 0.36401 0.37388 0.03752 0.0
C62 C 0.35999 0.38407 0.97981 0.0
O63 O 0.34354 0.3234 0.00877 0.0
O64 O 0.35056 0.33832 0.98165 0.0
In65 In 0.65494 0.00183 0.00947 0.0
O66 O 0.65221 0.02496 0.02958 0.0
O67 O 0.63215 0.9932 0.03417 0.0
C68 C 0.6925 0.026 0.99489 0.0
C69 C 0.66422 0.97473 0.02528 0.0
C70 C 0.62963 0.99528 0.97847 0.0
O71 O 0.68529 0.03208 0.00834 0.0
O72 O 0.68058 0.00788 0.98863 0.0
O73 O 0.62865 0.98076 0.98832 0.0
O74 O 0.64302 0.01297 0.98451 0.0
C75 C 0.63806 0.01147 0.03963 0.0
O76 O 0.65098 0.96969 0.01166 0.0
O77 O 0.67243 0.99328 0.03098 0.0
In78 In 0.66911 0.68096 0.3376 0.0
O79 O 0.6408 0.6756 0.35457 0.0
O80 O 0.67021 0.69862 0.36509 0.0
C81 C 0.64916 0.65184 0.30959 0.0
C82 C 0.68841 0.66662 0.36016 0.0
C83 C 0.68742 0.71508 0.31591 0.0
O84 O 0.64027 0.65923 0.31959 0.0
O85 O 0.66791 0.6591 0.31365 0.0
O86 O 0.69609 0.70493 0.32006 0.0
O87 O 0.66972 0.7081 0.32257 0.0
C88 C 0.65112 0.68924 0.36751 0.0
O89 O 0.69709 0.68505 0.35479 0.0
O90 O 0.67029 0.65535 0.35384 0.0
In91 In 0.32458 0.98753 0.34815 0.0
O92 O 0.32063 0.96167 0.36809 0.0
O93 O 0.29977 0.9727 0.37089 0.0
C94 C 0.35678 0.98576 0.3332 0.0
C95 C 0.3412 0.0265 0.36224 0.0
C96 C 0.29529 0.97611 0.32005 0.0
O97 O 0.35605 0.98994 0.351 0.0
O98 O 0.34141 0.98264 0.32306 0.0
O99 O 0.30237 0.99301 0.32942 0.0
O100 O 0.30256 0.965 0.32527 0.0
C101 C 0.3055 0.96057 0.37691 0.0
O102 O 0.34192 0.02257 0.34438 0.0
O103 O 0.33204 0.011 0.37276 0.0
In104 In 0.01681 0.33408 0.34059 0.0
O105 O 0.02997 0.36657 0.32927 0.0
O106 O 0.99832 0.35018 0.33586 0.0
C107 C 0.04294 0.34583 0.37175 0.0
C108 C 0.0302 0.32179 0.30928 0.0
C109 C 0.97908 0.30445 0.35086 0.0
O110 O 0.03261 0.35429 0.36763 0.0
O111 O 0.04005 0.33133 0.36022 0.0
O112 O 0.98275 0.31243 0.33421 0.0
O113 O 0.99449 0.31121 0.36222 0.0
C114 C 0.01321 0.36652 0.32965 0.0
O115 O 0.01942 0.30955 0.32228 0.0
O116 O 0.03421 0.34001 0.3122 0.0
In117 In 0.66305 0.97466 0.34723 0.0
O118 O 0.68832 0.9696 0.33479 0.0
O119 O 0.66077 0.95826 0.31817 0.0
C120 C 0.68752 0.01301 0.36213 0.0
C121 C 0.63706 0.98464 0.32968 0.0
C122 C 0.64917 0.94668 0.37607 0.0
O123 O 0.69405 0.00411 0.35097 0.0
O124 O 0.66891 0.00215 0.36648 0.0
O125 O 0.66615 0.96319 0.37714 0.0
O126 O 0.63937 0.94406 0.36024 0.0
C127 C 0.67859 0.96077 0.31921 0.0
O128 O 0.63142 0.97146 0.34295 0.0
O129 O 0.65553 0.99215 0.32496 0.0
In130 In 0.02049 0.69565 0.3371 0.0
O131 O 0.0242 0.72587 0.32493 0.0
O132 O 0.03682 0.71068 0.30909 0.0
C133 C 0.98134 0.67797 0.34937 0.0
C134 C 0.01979 0.66361 0.3182 0.0
C135 C 0.04584 0.71088 0.36903 0.0
O136 O 0.98892 0.69283 0.33784 0.0
O137 O 0.99348 0.67184 0.35455 0.0
O138 O 0.05006 0.70396 0.354 0.0
O139 O 0.02919 0.71093 0.36766 0.0
C140 C 0.03352 0.72549 0.30986 0.0
O141 O 0.03169 0.67286 0.33256 0.0
O142 O 0.0076 0.66991 0.31379 0.0
In143 In 0.31675 0.33692 0.34202 0.0
O144 O 0.31306 0.30502 0.34567 0.0
O145 O 0.33626 0.32992 0.36256 0.0
C146 C 0.28937 0.32421 0.31165 0.0
C147 C 0.3025 0.35056 0.37159 0.0
C148 C 0.35401 0.36197 0.32713 0.0
O149 O 0.28757 0.31281 0.32572 0.0
O150 O 0.30449 0.34217 0.31333 0.0
O151 O 0.34599 0.36802 0.33978 0.0
O152 O 0.34301 0.34338 0.32172 0.0
C153 C 0.32757 0.31102 0.35809 0.0
O154 O 0.31206 0.36158 0.3574 0.0
O155 O 0.29944 0.33248 0.37042 0.0
In156 In 0.33436 0.0197 0.67132 0.0
O157 O 0.36219 0.03002 0.69193 0.0
O158 O 0.34155 0.99795 0.68778 0.0
C159 C 0.35295 0.05191 0.64746 0.0
C160 C 0.31238 0.02612 0.69865 0.0
C161 C 0.31467 0.98925 0.6443 0.0
O162 O 0.36207 0.04299 0.65413 0.0
O163 O 0.33463 0.04453 0.65261 0.0
O164 O 0.30589 0.9976 0.65293 0.0
O165 O 0.33319 0.99625 0.64915 0.0
C166 C 0.35746 0.01192 0.69625 0.0
O167 O 0.30801 0.0083 0.69291 0.0
O168 O 0.32751 0.04051 0.6904 0.0
In169 In 0.9842 0.31394 0.67426 0.0
O170 O 0.97939 0.34137 0.67635 0.0
O171 O 0.99023 0.33378 0.70189 0.0
C172 C 0.95771 0.3004 0.64331 0.0
C173 C 0.96952 0.28458 0.70168 0.0
C174 C 0.02207 0.32795 0.65951 0.0
O175 O 0.95887 0.31343 0.65577 0.0
O176 O 0.96994 0.29383 0.64646 0.0
O177 O 0.00978 0.30916 0.66224 0.0
O178 O 0.01525 0.33967 0.66423 0.0
C179 C 0.9842 0.3451 0.69426 0.0
O180 O 0.98827 0.29467 0.69764 0.0
O181 O 0.95819 0.2889 0.69155 0.0
In182 In 0.6768 0.67342 0.66739 0.0
O183 O 0.67477 0.70264 0.66936 0.0
O184 O 0.65929 0.6821 0.64543 0.0
C185 C 0.70627 0.68483 0.69561 0.0
C186 C 0.69192 0.66252 0.63651 0.0
C187 C 0.64176 0.64669 0.68527 0.0
O188 O 0.70611 0.69731 0.68358 0.0
O189 O 0.69186 0.66659 0.69308 0.0
O190 O 0.6502 0.64083 0.67287 0.0
O191 O 0.65109 0.66583 0.68863 0.0
C192 C 0.66329 0.69853 0.65445 0.0
O193 O 0.67658 0.64977 0.64588 0.0
O194 O 0.69958 0.68091 0.6426 0.0
In195 In 0.33113 0.31501 0.67467 0.0
O196 O 0.3555 0.31036 0.65944 0.0
O197 O 0.32577 0.29631 0.64645 0.0
C198 C 0.35556 0.35164 0.6928 0.0
C199 C 0.30821 0.32924 0.65796 0.0
C200 C 0.3169 0.28597 0.70241 0.0
O201 O 0.3621 0.34426 0.67988 0.0
O202 O 0.33709 0.34002 0.69717 0.0
O203 O 0.30577 0.28602 0.68854 0.0
O204 O 0.3353 0.30031 0.70201 0.0
C205 C 0.34388 0.29968 0.64538 0.0
O206 O 0.30107 0.31514 0.67037 0.0
O207 O 0.3265 0.33531 0.6534 0.0
In208 In 0.68775 0.02413 0.67228 0.0
O209 O 0.693 0.05259 0.65598 0.0
O210 O 0.70794 0.03683 0.64556 0.0
C211 C 0.6517 0.01806 0.686 0.0
C212 C 0.67244 0.98629 0.65558 0.0
C213 C 0.71609 0.03673 0.70181 0.0
O214 O 0.66313 0.03316 0.67561 0.0
O215 O 0.65862 0.00625 0.68963 0.0
O216 O 0.71689 0.02737 0.68671 0.0
O217 O 0.70149 0.04035 0.70165 0.0
C218 C 0.70423 0.0513 0.64314 0.0
O219 O 0.68024 0.9906 0.6726 0.0
O220 O 0.67276 0.00114 0.6469 0.0
In221 In 0.98175 0.67113 0.67189 0.0
O222 O 0.96781 0.63786 0.68161 0.0
O223 O 0.99872 0.65863 0.68973 0.0
C224 C 0.95706 0.66141 0.63983 0.0
C225 C 0.97102 0.68813 0.70155 0.0
C226 C 0.01856 0.69286 0.65508 0.0
O227 O 0.95717 0.64814 0.65079 0.0
O228 O 0.96919 0.6798 0.64522 0.0
O229 O 0.01011 0.70131 0.66417 0.0
O230 O 0.00812 0.67347 0.65401 0.0
C231 C 0.98388 0.64048 0.69011 0.0
O232 O 0.98931 0.69439 0.69702 0.0
O233 O 0.95801 0.67354 0.69083 0.0
C234 C 0.21626 0.2886 0.02378 0.0
C235 C 0.2262 0.30374 0.04105 0.0
C236 C 0.2125 0.29655 0.07383 0.0
C237 C 0.21822 0.31664 0.08001 0.0
C238 C 0.20741 0.32011 0.09472 0.0
C239 C 0.19045 0.30313 0.10322 0.0
C240 C 0.18557 0.28285 0.09791 0.0
C241 C 0.19697 0.27986 0.08346 0.0
C242 C 0.21345 0.34193 0.10047 0.0
C243 C 0.16756 0.26435 0.10658 0.0
C244 C 0.05875 0.31363 0.04999 0.0
C245 C 0.06994 0.30594 0.06215 0.0
C246 C 0.10383 0.31731 0.07641 0.0
C247 C 0.09821 0.29888 0.0861 0.0
C248 C 0.1121 0.29719 0.09865 0.0
C249 C 0.13181 0.3145 0.10215 0.0
C250 C 0.13739 0.33318 0.09271 0.0
C251 C 0.12339 0.33424 0.07977 0.0
C252 C 0.1058 0.27673 0.1078 0.0
C253 C 0.15824 0.35197 0.09607 0.0
C254 C 0.09435 0.30887 0.22819 0.0
C255 C 0.09112 0.29006 0.22025 0.0
C256 C 0.10668 0.28904 0.21006 0.0
C257 C 0.12584 0.30714 0.20783 0.0
C258 C 0.12919 0.32603 0.21592 0.0
C259 C 0.11335 0.32663 0.22596 0.0
C260 C 0.10261 0.26865 0.20152 0.0
C261 C 0.14944 0.3456 0.21378 0.0
C262 C 0.24879 0.27168 0.23323 0.0
C263 C 0.24321 0.28806 0.23881 0.0
C264 C 0.20997 0.28454 0.23068 0.0
C265 C 0.19032 0.2693 0.22473 0.0
C266 C 0.17748 0.27417 0.21388 0.0
C267 C 0.1844 0.29493 0.2093 0.0
C268 C 0.20395 0.31057 0.21606 0.0
C269 C 0.21658 0.30521 0.22667 0.0
C270 C 0.15662 0.25712 0.20714 0.0
C271 C 0.21152 0.3329 0.21199 0.0
C272 C 0.17597 0.30652 0.11506 0.0
C273 C 0.16187 0.30992 0.10479 0.0
C274 C 0.14708 0.31251 0.11444 0.0
C275 C 0.1463 0.31184 0.13507 0.0
C276 C 0.13176 0.31462 0.14532 0.0
C277 C 0.13049 0.31295 0.16554 0.0
C278 C 0.14387 0.30866 0.17632 0.0
C279 C 0.14226 0.30629 0.1968 0.0
C280 C 0.1559 0.30222 0.2071 0.0
C281 C 0.1711 0.30021 0.19748 0.0
C282 C 0.17287 0.30236 0.17695 0.0
C283 C 0.18786 0.30026 0.16673 0.0
C284 C 0.18916 0.30197 0.14648 0.0
C285 C 0.17535 0.30557 0.13567 0.0
C286 C 0.16034 0.3081 0.1457 0.0
C287 C 0.15912 0.30651 0.16635 0.0
C288 C 0.04554 0.2902 0.22474 0.0
C289 C 0.0601 0.29542 0.24243 0.0
O290 O 0.2212 0.2928 0.05822 0.0
O291 O 0.22211 0.27878 0.24025 0.0
O292 O 0.07971 0.31076 0.23793 0.0
O293 O 0.09091 0.31929 0.06375 0.0
H294 H 0.21968 0.31417 0.04083 0.0
H295 H 0.19934 0.28003 0.02531 0.0
H296 H 0.22173 0.27733 0.02322 0.0
H297 H 0.21992 0.29698 0.00981 0.0
H298 H 0.23081 0.32958 0.07301 0.0
H299 H 0.19297 0.26442 0.07876 0.0
H300 H 0.20237 0.34581 0.09379 0.0
H301 H 0.22904 0.35315 0.09544 0.0
H302 H 0.21298 0.34356 0.11659 0.0
H303 H 0.16565 0.24962 0.10065 0.0
H304 H 0.15326 0.26475 0.10354 0.0
H305 H 0.16962 0.26474 0.12269 0.0
H306 H 0.06583 0.28975 0.05862 0.0
H307 H 0.05208 0.30244 0.03722 0.0
H308 H 0.07065 0.32652 0.04112 0.0
H309 H 0.04047 0.31789 0.07026 0.0
H310 H 0.08316 0.28559 0.08366 0.0
H311 H 0.12761 0.3484 0.07228 0.0
H312 H 0.11784 0.27249 0.10576 0.0
H313 H 0.09111 0.26416 0.10151 0.0
H314 H 0.10393 0.27788 0.12375 0.0
H315 H 0.15899 0.36607 0.0903 0.0
H316 H 0.16993 0.34959 0.0886 0.0
H317 H 0.16228 0.3544 0.11192 0.0
H318 H 0.06042 0.28135 0.24673 0.0
H319 H 0.07653 0.27614 0.22177 0.0
H320 H 0.11571 0.34107 0.23211 0.0
H321 H 0.10458 0.26979 0.18544 0.0
H322 H 0.08692 0.25594 0.20457 0.0
H323 H 0.1139 0.26473 0.20763 0.0
H324 H 0.14967 0.35904 0.22106 0.0
H325 H 0.15266 0.34885 0.19803 0.0
H326 H 0.16196 0.34366 0.22016 0.0
H327 H 0.24871 0.29911 0.22663 0.0
H328 H 0.26568 0.27872 0.2322 0.0
H329 H 0.24175 0.26462 0.21876 0.0
H330 H 0.24307 0.25929 0.24414 0.0
H331 H 0.18526 0.25344 0.22818 0.0
H332 H 0.23151 0.31716 0.23193 0.0
H333 H 0.15471 0.25782 0.1911 0.0
H334 H 0.1446 0.25916 0.21432 0.0
H335 H 0.15415 0.24164 0.21065 0.0
H336 H 0.22653 0.34333 0.21932 0.0
H337 H 0.20014 0.33718 0.217 0.0
H338 H 0.21316 0.33532 0.19599 0.0
H339 H 0.16216 0.31014 0.08892 0.0
H340 H 0.12106 0.3179 0.13777 0.0
H341 H 0.11881 0.31497 0.17262 0.0
H342 H 0.15445 0.30027 0.2228 0.0
H343 H 0.19871 0.29718 0.17427 0.0
H344 H 0.20097 0.3002 0.13935 0.0
H345 H 0.02979 0.27811 0.22853 0.0
H346 H 0.05061 0.28427 0.21232 0.0
H347 H 0.0451 0.30402 0.21987 0.0
C348 C 0.70963 0.92268 0.04042 0.0
C349 C 0.69369 0.92127 0.05494 0.0
C350 C 0.70135 0.91463 0.08755 0.0
C351 C 0.68219 0.89946 0.09401 0.0
C352 C 0.68067 0.88498 0.10759 0.0
C353 C 0.69872 0.88561 0.11462 0.0
C354 C 0.71813 0.90155 0.10877 0.0
C355 C 0.71918 0.91612 0.09551 0.0
C356 C 0.65974 0.8685 0.1138 0.0
C357 C 0.7377 0.90257 0.11571 0.0
C358 C 0.66256 0.77421 0.03944 0.0
C359 C 0.675 0.76787 0.05248 0.0
C360 C 0.67444 0.78194 0.08475 0.0
C361 C 0.69505 0.79727 0.08733 0.0
C362 C 0.70068 0.81363 0.10075 0.0
C363 C 0.68536 0.81464 0.1117 0.0
C364 C 0.66466 0.79882 0.10955 0.0
C365 C 0.65953 0.78246 0.09628 0.0
C366 C 0.72295 0.83001 0.10303 0.0
C367 C 0.6479 0.79949 0.12085 0.0
C368 C 0.69431 0.7824 0.23807 0.0
C369 C 0.71381 0.7976 0.2321 0.0
C370 C 0.71626 0.81466 0.2217 0.0
C371 C 0.69891 0.81654 0.21723 0.0
C372 C 0.67927 0.8012 0.22313 0.0
C373 C 0.67724 0.78428 0.23342 0.0
C374 C 0.73739 0.8307 0.21549 0.0
C375 C 0.66044 0.80272 0.21861 0.0
C376 C 0.73432 0.97649 0.24491 0.0
C377 C 0.71881 0.95412 0.2494 0.0
C378 C 0.7232 0.92474 0.24151 0.0
C379 C 0.73849 0.92048 0.23597 0.0
C380 C 0.73367 0.90248 0.22526 0.0
C381 C 0.71294 0.88823 0.22039 0.0
C382 C 0.69728 0.89194 0.22686 0.0
C383 C 0.70257 0.91021 0.23735 0.0
C384 C 0.75073 0.89888 0.2188 0.0
C385 C 0.67499 0.87674 0.22244 0.0
C386 C 0.69714 0.8681 0.12581 0.0
C387 C 0.69266 0.85031 0.11511 0.0
C388 C 0.69077 0.83299 0.12425 0.0
C389 C 0.69362 0.83332 0.14471 0.0
C390 C 0.69216 0.81623 0.15433 0.0
C391 C 0.69469 0.81661 0.17454 0.0
C392 C 0.69886 0.83412 0.18587 0.0
C393 C 0.70126 0.83458 0.20644 0.0
C394 C 0.7057 0.85234 0.21724 0.0
C395 C 0.70775 0.86976 0.20806 0.0
C396 C 0.70513 0.86952 0.18753 0.0
C397 C 0.70684 0.88671 0.17783 0.0
C398 C 0.70408 0.88625 0.15764 0.0
C399 C 0.69981 0.86872 0.14634 0.0
C400 C 0.69807 0.85124 0.15581 0.0
C401 C 0.70069 0.85163 0.17642 0.0
C402 C 0.69835 0.74622 0.27137 0.0
C403 C 0.7063 0.76234 0.25621 0.0
O404 O 0.70291 0.92767 0.07333 0.0
O405 O 0.72892 0.94302 0.25073 0.0
O406 O 0.69126 0.76584 0.24845 0.0
O407 O 0.66844 0.7662 0.07158 0.0
H408 H 0.68121 0.90489 0.05514 0.0
H409 H 0.71581 0.91271 0.04511 0.0
H410 H 0.72255 0.93878 0.03968 0.0
H411 H 0.70256 0.91741 0.02559 0.0
H412 H 0.66844 0.89878 0.08815 0.0
H413 H 0.7339 0.92812 0.09053 0.0
H414 H 0.65593 0.85367 0.10648 0.0
H415 H 0.64763 0.87221 0.10985 0.0
H416 H 0.65962 0.86636 0.12984 0.0
H417 H 0.75152 0.91565 0.10941 0.0
H418 H 0.73739 0.88804 0.11163 0.0
H419 H 0.73899 0.9042 0.13189 0.0
H420 H 0.69144 0.77977 0.05157 0.0
H421 H 0.66758 0.7756 0.02405 0.0
H422 H 0.6649 0.78938 0.0445 0.0
H423 H 0.64594 0.76269 0.04001 0.0
H424 H 0.70681 0.79642 0.07911 0.0
H425 H 0.64372 0.77032 0.09436 0.0
H426 H 0.72517 0.84469 0.09718 0.0
H427 H 0.73322 0.82582 0.09518 0.0
H428 H 0.72753 0.83274 0.11876 0.0
H429 H 0.63246 0.78641 0.11688 0.0
H430 H 0.64807 0.81412 0.11807 0.0
H431 H 0.65065 0.79908 0.13676 0.0
H432 H 0.71585 0.76065 0.24479 0.0
H433 H 0.72713 0.79624 0.23548 0.0
H434 H 0.66227 0.77246 0.23806 0.0
H435 H 0.73744 0.83263 0.19943 0.0
H436 H 0.74925 0.82664 0.21943 0.0
H437 H 0.74159 0.84574 0.22256 0.0
H438 H 0.64634 0.78981 0.22472 0.0
H439 H 0.65832 0.80273 0.20253 0.0
H440 H 0.66248 0.81746 0.22467 0.0
H441 H 0.70771 0.9483 0.23679 0.0
H442 H 0.72651 0.98569 0.24378 0.0
H443 H 0.74166 0.97715 0.23072 0.0
H444 H 0.74652 0.98352 0.25644 0.0
H445 H 0.75434 0.93166 0.23954 0.0
H446 H 0.6906 0.91308 0.24228 0.0
H447 H 0.75013 0.89692 0.20264 0.0
H448 H 0.74866 0.88447 0.22518 0.0
H449 H 0.7661 0.91175 0.22329 0.0
H450 H 0.66458 0.88112 0.22977 0.0
H451 H 0.67123 0.86118 0.2272 0.0
H452 H 0.67207 0.87579 0.20642 0.0
H453 H 0.69048 0.8499 0.09936 0.0
H454 H 0.68898 0.80236 0.14634 0.0
H455 H 0.69332 0.80299 0.18116 0.0
H456 H 0.70759 0.8526 0.233 0.0
H457 H 0.71024 0.90069 0.18576 0.0
H458 H 0.70541 0.89984 0.15095 0.0
H459 H 0.70031 0.73338 0.26504 0.0
H460 H 0.68114 0.73751 0.26967 0.0
H461 H 0.71352 0.76247 0.29709 0.0
C462 C 0.23269 0.8804 0.05123 0.0
C463 C 0.23332 0.90061 0.05654 0.0
C464 C 0.21776 0.89484 0.08831 0.0
C465 C 0.20265 0.90037 0.08655 0.0
C466 C 0.18534 0.89145 0.09841 0.0
C467 C 0.18302 0.8764 0.112 0.0
C468 C 0.19852 0.87106 0.11394 0.0
C469 C 0.21595 0.88074 0.10231 0.0
C470 C 0.16938 0.89784 0.09615 0.0
C471 C 0.19644 0.85473 0.12784 0.0
C472 C 0.03627 0.7767 0.06478 0.0
C473 C 0.05402 0.77264 0.06113 0.0
C474 C 0.07884 0.78841 0.08853 0.0
C475 C 0.08939 0.78405 0.1028 0.0
C476 C 0.10579 0.79985 0.11356 0.0
C477 C 0.11103 0.82055 0.11065 0.0
C478 C 0.10028 0.82508 0.09631 0.0
C479 C 0.08456 0.809 0.08513 0.0
C480 C 0.11748 0.79428 0.12793 0.0
C481 C 0.10539 0.84692 0.09269 0.0
C482 C 0.06927 0.80848 0.23553 0.0
C483 C 0.08345 0.80238 0.2303 0.0
C484 C 0.10113 0.81559 0.22003 0.0
C485 C 0.10465 0.83527 0.21482 0.0
C486 C 0.09068 0.84167 0.22059 0.0
C487 C 0.07326 0.82823 0.23109 0.0
C488 C 0.11604 0.8085 0.2147 0.0
C489 C 0.09403 0.86258 0.21543 0.0
C490 C 0.24589 0.96618 0.23809 0.0
C491 C 0.23554 0.9525 0.25559 0.0
C492 C 0.21084 0.91935 0.23942 0.0
C493 C 0.20736 0.89964 0.23493 0.0
C494 C 0.19039 0.88569 0.22347 0.0
C495 C 0.17654 0.89169 0.21631 0.0
C496 C 0.17983 0.91157 0.22088 0.0
C497 C 0.19696 0.92524 0.23244 0.0
C498 C 0.18728 0.86455 0.21897 0.0
C499 C 0.16525 0.91833 0.21349 0.0
C500 C 0.1637 0.86507 0.12297 0.0
C501 C 0.14668 0.8494 0.11291 0.0
C502 C 0.12809 0.83745 0.12222 0.0
C503 C 0.12632 0.84109 0.14226 0.0
C504 C 0.10777 0.82956 0.15207 0.0
C505 C 0.10656 0.83233 0.17207 0.0
C506 C 0.12379 0.84694 0.18297 0.0
C507 C 0.12302 0.84917 0.20347 0.0
C508 C 0.14031 0.86417 0.21378 0.0
C509 C 0.15851 0.877 0.2042 0.0
C510 C 0.15968 0.87484 0.18375 0.0
C511 C 0.17781 0.8874 0.17368 0.0
C512 C 0.17906 0.88452 0.15369 0.0
C513 C 0.16229 0.86888 0.14306 0.0
C514 C 0.14361 0.8566 0.15279 0.0
C515 C 0.14231 0.85957 0.17316 0.0
C516 C 0.01792 0.76861 0.23711 0.0
C517 C 0.04012 0.77459 0.24197 0.0
O518 O 0.23434 0.9031 0.07672 0.0
O519 O 0.22777 0.93196 0.25045 0.0
O520 O 0.05166 0.79575 0.24484 0.0
O521 O 0.06316 0.77228 0.07867 0.0
H522 H 0.21912 0.89986 0.05065 0.0
H523 H 0.24668 0.88064 0.0569 0.0
H524 H 0.21905 0.86729 0.05774 0.0
H525 H 0.23158 0.8778 0.03513 0.0
H526 H 0.20445 0.9117 0.07594 0.0
H527 H 0.2279 0.87678 0.10359 0.0
H528 H 0.1557 0.88535 0.08839 0.0
H529 H 0.17509 0.9121 0.08764 0.0
H530 H 0.16448 0.90035 0.1107 0.0
H531 H 0.20864 0.8507 0.12589 0.0
H532 H 0.18128 0.84057 0.12569 0.0
H533 H 0.19738 0.86032 0.14313 0.0
H534 H 0.0655 0.78505 0.0519 0.0
H535 H 0.02867 0.77642 0.05069 0.0
H536 H 0.04189 0.792 0.07192 0.0
H537 H 0.02474 0.76492 0.07444 0.0
H538 H 0.08495 0.76813 0.10523 0.0
H539 H 0.0767 0.81268 0.07401 0.0
H540 H 0.13422 0.80518 0.12719 0.0
H541 H 0.11461 0.77842 0.12521 0.0
H542 H 0.1126 0.79514 0.143 0.0
H543 H 0.09323 0.84754 0.08392 0.0
H544 H 0.11991 0.85488 0.08456 0.0
H545 H 0.10766 0.85548 0.10673 0.0
H546 H 0.04543 0.76973 0.22888 0.0
H547 H 0.08081 0.78738 0.23436 0.0
H548 H 0.06236 0.83289 0.23542 0.0
H549 H 0.11615 0.80676 0.19857 0.0
H550 H 0.11204 0.79356 0.22131 0.0
H551 H 0.1318 0.8202 0.21958 0.0
H552 H 0.08112 0.86477 0.21996 0.0
H553 H 0.09595 0.86469 0.1994 0.0
H554 H 0.10834 0.87471 0.2227 0.0
H555 H 0.22289 0.9549 0.26064 0.0
H556 H 0.23463 0.96259 0.22598 0.0
H557 H 0.25243 0.98265 0.24239 0.0
H558 H 0.25838 0.96378 0.23259 0.0
H559 H 0.21813 0.89524 0.24043 0.0
H560 H 0.19934 0.9404 0.23589 0.0
H561 H 0.18758 0.86235 0.20292 0.0
H562 H 0.17201 0.85262 0.22404 0.0
H563 H 0.19922 0.86213 0.22603 0.0
H564 H 0.17016 0.93446 0.21794 0.0
H565 H 0.14971 0.90807 0.21919 0.0
H566 H 0.16409 0.91696 0.19728 0.0
H567 H 0.14801 0.84625 0.09762 0.0
H568 H 0.09403 0.81804 0.14444 0.0
H569 H 0.09199 0.82276 0.17891 0.0
H570 H 0.13971 0.86562 0.22953 0.0
H571 H 0.1913 0.89947 0.18118 0.0
H572 H 0.19343 0.89453 0.14671 0.0
H573 H 0.00831 0.75165 0.23506 0.0
H574 H 0.01733 0.77592 0.22331 0.0
H575 H 0.0114 0.77381 0.24889 0.0
C576 C 0.29291 0.08962 0.98158 0.0
C577 C 0.2964 0.078 0.96482 0.0
C578 C 0.3082 0.10257 0.9379 0.0
C579 C 0.28894 0.10021 0.93299 0.0
C580 C 0.28696 0.1121 0.91844 0.0
C581 C 0.3046 0.12693 0.90881 0.0
C582 C 0.32394 0.12916 0.91345 0.0
C583 C 0.32544 0.11682 0.92785 0.0
C584 C 0.26605 0.10919 0.9137 0.0
C585 C 0.34307 0.14494 0.90354 0.0
C586 C 0.27806 0.24315 0.94383 0.0
C587 C 0.29819 0.24352 0.94853 0.0
C588 C 0.30518 0.22536 0.92225 0.0
C589 C 0.32044 0.22762 0.90948 0.0
C590 C 0.31946 0.21053 0.89983 0.0
C591 C 0.30213 0.19078 0.90229 0.0
C592 C 0.28632 0.18845 0.91487 0.0
C593 C 0.28819 0.20571 0.92499 0.0
C594 C 0.33711 0.21369 0.88723 0.0
C595 C 0.26749 0.16774 0.91782 0.0
C596 C 0.27781 0.20005 0.77658 0.0
C597 C 0.29782 0.20456 0.78137 0.0
C598 C 0.30125 0.19061 0.79188 0.0
C599 C 0.28431 0.1718 0.7977 0.0
C600 C 0.2642 0.16684 0.79206 0.0
C601 C 0.26125 0.18098 0.78135 0.0
C602 C 0.32293 0.19613 0.79712 0.0
C603 C 0.2458 0.14684 0.7978 0.0
C604 C 0.26439 0.02509 0.78047 0.0
C605 C 0.27491 0.0427 0.76603 0.0
C606 C 0.29011 0.07558 0.7846 0.0
C607 C 0.30865 0.09359 0.78875 0.0
C608 C 0.30911 0.11069 0.79788 0.0
C609 C 0.29051 0.10951 0.80335 0.0
C610 C 0.27167 0.09126 0.7994 0.0
C611 C 0.27164 0.0745 0.78999 0.0
C612 C 0.32945 0.12999 0.80172 0.0
C613 C 0.25158 0.08943 0.80527 0.0
C614 C 0.30295 0.14133 0.89531 0.0
C615 C 0.30388 0.15889 0.90362 0.0
C616 C 0.30085 0.17248 0.89228 0.0
C617 C 0.29683 0.16856 0.87197 0.0
C618 C 0.29275 0.18137 0.86026 0.0
C619 C 0.28958 0.17784 0.84018 0.0
C620 C 0.29024 0.16127 0.83104 0.0
C621 C 0.28754 0.15786 0.81056 0.0
C622 C 0.28789 0.14102 0.802 0.0
C623 C 0.29072 0.12728 0.8134 0.0
C624 C 0.29354 0.13049 0.8339 0.0
C625 C 0.29627 0.1169 0.84582 0.0
C626 C 0.29924 0.12032 0.86596 0.0
C627 C 0.2997 0.13753 0.87491 0.0
C628 C 0.29673 0.15128 0.8632 0.0
C629 C 0.29351 0.14768 0.84269 0.0
C630 C 0.2692 0.24066 0.77996 0.0
C631 C 0.2841 0.23475 0.77095 0.0
O632 O 0.31098 0.09177 0.95226 0.0
O633 O 0.29083 0.05963 0.77568 0.0
O634 O 0.27398 0.21367 0.76731 0.0
O635 O 0.30741 0.24254 0.93146 0.0
H636 H 0.28171 0.06848 0.95668 0.0
H637 H 0.28696 0.09938 0.97576 0.0
H638 H 0.30747 0.09968 0.98978 0.0
H639 H 0.28147 0.07856 0.9918 0.0
H640 H 0.27535 0.08939 0.94054 0.0
H641 H 0.34023 0.11855 0.93166 0.0
H642 H 0.26555 0.12313 0.91844 0.0
H643 H 0.25359 0.09567 0.92103 0.0
H644 H 0.26308 0.10718 0.89766 0.0
H645 H 0.35689 0.14436 0.90836 0.0
H646 H 0.34558 0.16058 0.9068 0.0
H647 H 0.34114 0.14241 0.88745 0.0
H648 H 0.29483 0.23012 0.95771 0.0
H649 H 0.27079 0.24407 0.95757 0.0
H650 H 0.26712 0.22871 0.93589 0.0
H651 H 0.28084 0.25627 0.93453 0.0
H652 H 0.33348 0.24285 0.90748 0.0
H653 H 0.2762 0.2037 0.93481 0.0
H654 H 0.33275 0.21315 0.87161 0.0
H655 H 0.34092 0.20136 0.88949 0.0
H656 H 0.35106 0.22882 0.89034 0.0
H657 H 0.25484 0.16921 0.92439 0.0
H658 H 0.27145 0.15871 0.92785 0.0
H659 H 0.2619 0.15895 0.90375 0.0
H660 H 0.29668 0.23937 0.78201 0.0
H661 H 0.31075 0.21895 0.77691 0.0
H662 H 0.2459 0.1775 0.77722 0.0
H663 H 0.32548 0.1989 0.81315 0.0
H664 H 0.33445 0.21016 0.78964 0.0
H665 H 0.32545 0.18317 0.79318 0.0
H666 H 0.23113 0.14566 0.79297 0.0
H667 H 0.24572 0.14534 0.81393 0.0
H668 H 0.24677 0.13376 0.79121 0.0
H669 H 0.26325 0.04643 0.76044 0.0
H670 H 0.25104 0.0116 0.7733 0.0
H671 H 0.25863 0.03003 0.79311 0.0
H672 H 0.27538 0.02056 0.7862 0.0
H673 H 0.32282 0.09428 0.7846 0.0
H674 H 0.25716 0.06058 0.78717 0.0
H675 H 0.33208 0.13304 0.81772 0.0
H676 H 0.32926 0.14337 0.79524 0.0
H677 H 0.34245 0.12884 0.7956 0.0
H678 H 0.23831 0.07386 0.80201 0.0
H679 H 0.24923 0.1009 0.79736 0.0
H680 H 0.25199 0.09288 0.82116 0.0
H681 H 0.30673 0.16186 0.91924 0.0
H682 H 0.29205 0.19435 0.86647 0.0
H683 H 0.28667 0.18833 0.83192 0.0
H684 H 0.28582 0.1385 0.78629 0.0
H685 H 0.29619 0.10347 0.83972 0.0
H686 H 0.30133 0.10941 0.87443 0.0
H687 H 0.25571 0.23608 0.77013 0.0
H688 H 0.27701 0.25754 0.78287 0.0
H689 H 0.26366 0.23276 0.79406 0.0
C690 C 0.78912 0.06412 0.98619 0.0
C691 C 0.77814 0.07077 0.97164 0.0
C692 C 0.79056 0.07952 0.93862 0.0
C693 C 0.78554 0.09475 0.93468 0.0
C694 C 0.79663 0.10999 0.92104 0.0
C695 C 0.81328 0.11013 0.91146 0.0
C696 C 0.81777 0.09421 0.91485 0.0
C697 C 0.80599 0.07882 0.92813 0.0
C698 C 0.79103 0.12636 0.91745 0.0
C699 C 0.8356 0.09398 0.90523 0.0
C700 C 0.94584 0.25429 0.96469 0.0
C701 C 0.93486 0.23533 0.95213 0.0
C702 C 0.90049 0.21159 0.93922 0.0
C703 C 0.90594 0.19897 0.9285 0.0
C704 C 0.89171 0.18328 0.91589 0.0
C705 C 0.87184 0.18062 0.91339 0.0
C706 C 0.86645 0.19357 0.92388 0.0
C707 C 0.88078 0.20868 0.93689 0.0
C708 C 0.89785 0.1693 0.9056 0.0
C709 C 0.84548 0.19129 0.92157 0.0
C710 C 0.90555 0.2111 0.78463 0.0
C711 C 0.91049 0.19796 0.79479 0.0
C712 C 0.89575 0.18193 0.80596 0.0
C713 C 0.87581 0.17921 0.80726 0.0
C714 C 0.87091 0.1926 0.7973 0.0
C715 C 0.88584 0.20829 0.78603 0.0
C716 C 0.90142 0.16775 0.8162 0.0
C717 C 0.84986 0.19026 0.79849 0.0
C718 C 0.75304 0.01916 0.77856 0.0
C719 C 0.75984 0.0416 0.77427 0.0
C720 C 0.79304 0.07114 0.78376 0.0
C721 C 0.81256 0.07573 0.79011 0.0
C722 C 0.82525 0.09378 0.80103 0.0
C723 C 0.8183 0.10775 0.80532 0.0
C724 C 0.7989 0.10365 0.79817 0.0
C725 C 0.78643 0.08535 0.78745 0.0
C726 C 0.84596 0.09781 0.80821 0.0
C727 C 0.79134 0.11854 0.802 0.0
C728 C 0.82747 0.12822 0.89994 0.0
C729 C 0.84175 0.1458 0.91044 0.0
C730 C 0.85629 0.16332 0.90096 0.0
C731 C 0.85661 0.16348 0.8803 0.0
C732 C 0.87075 0.18098 0.87024 0.0
C733 C 0.87167 0.1806 0.84993 0.0
C734 C 0.85843 0.16272 0.83893 0.0
C735 C 0.85984 0.16184 0.81837 0.0
C736 C 0.84631 0.14388 0.80788 0.0
C737 C 0.83136 0.12659 0.81735 0.0
C738 C 0.82971 0.12712 0.8379 0.0
C739 C 0.81483 0.10998 0.84792 0.0
C740 C 0.81375 0.11045 0.86821 0.0
C741 C 0.82772 0.12793 0.87927 0.0
C742 C 0.8425 0.14558 0.86944 0.0
C743 C 0.84346 0.14519 0.84873 0.0
C744 C 0.95233 0.24665 0.78816 0.0
C745 C 0.93967 0.23319 0.77059 0.0
O746 O 0.78113 0.0657 0.95285 0.0
O747 O 0.78106 0.05291 0.77416 0.0
O748 O 0.91909 0.22658 0.77329 0.0
O749 O 0.91372 0.22657 0.95195 0.0
H750 H 0.78521 0.08777 0.97347 0.0
H751 H 0.80576 0.07208 0.9831 0.0
H752 H 0.78294 0.04724 0.98502 0.0
H753 H 0.7872 0.06825 0.00138 0.0
H754 H 0.77315 0.09486 0.94248 0.0
H755 H 0.80952 0.06679 0.93118 0.0
H756 H 0.80241 0.14087 0.92505 0.0
H757 H 0.77558 0.12194 0.92298 0.0
H758 H 0.79142 0.12945 0.90158 0.0
H759 H 0.83807 0.08152 0.91073 0.0
H760 H 0.84987 0.10896 0.90782 0.0
H761 H 0.83277 0.0917 0.8892 0.0
H762 H 0.94004 0.22394 0.95434 0.0
H763 H 0.95363 0.25029 0.97655 0.0
H764 H 0.93409 0.25446 0.97464 0.0
H765 H 0.96219 0.27743 0.94458 0.0
H766 H 0.9211 0.20095 0.93022 0.0
H767 H 0.87671 0.21849 0.9452 0.0
H768 H 0.88588 0.15293 0.90724 0.0
H769 H 0.91267 0.17146 0.91132 0.0
H770 H 0.89942 0.17253 0.88975 0.0
H771 H 0.8449 0.20467 0.92799 0.0
H772 H 0.83411 0.17722 0.92905 0.0
H773 H 0.84087 0.18953 0.90587 0.0
H774 H 0.94189 0.21968 0.76896 0.0
H775 H 0.9257 0.19995 0.79402 0.0
H776 H 0.88218 0.21853 0.77821 0.0
H777 H 0.9006 0.16943 0.83226 0.0
H778 H 0.91712 0.17103 0.81267 0.0
H779 H 0.89034 0.15149 0.81203 0.0
H780 H 0.84904 0.20302 0.79135 0.0
H781 H 0.84549 0.1897 0.81402 0.0
H782 H 0.83845 0.17551 0.79125 0.0
H783 H 0.7539 0.04701 0.78648 0.0
H784 H 0.73604 0.0098 0.77865 0.0
H785 H 0.75906 0.01824 0.79317 0.0
H786 H 0.75889 0.01251 0.76749 0.0
H787 H 0.81762 0.0648 0.78692 0.0
H788 H 0.77162 0.08225 0.7819 0.0
H789 H 0.84712 0.09987 0.82437 0.0
H790 H 0.85817 0.1123 0.80196 0.0
H791 H 0.84885 0.08512 0.80413 0.0
H792 H 0.77627 0.11355 0.79473 0.0
H793 H 0.80267 0.13401 0.79674 0.0
H794 H 0.78983 0.12005 0.81798 0.0
H795 H 0.84183 0.14569 0.9263 0.0
H796 H 0.88142 0.19509 0.87799 0.0
H797 H 0.88302 0.19444 0.84296 0.0
H798 H 0.84764 0.14324 0.79214 0.0
H799 H 0.80391 0.09597 0.84018 0.0
H800 H 0.80201 0.09683 0.87516 0.0
H801 H 0.96885 0.25191 0.78633 0.0
H802 H 0.94733 0.2378 0.80181 0.0
H803 H 0.95039 0.26033 0.78977 0.0
C804 C 0.77536 0.65838 0.97499 0.0
C805 C 0.76831 0.67232 0.96578 0.0
C806 C 0.78098 0.67661 0.93266 0.0
C807 C 0.79493 0.69779 0.93224 0.0
C808 C 0.81139 0.70565 0.91934 0.0
C809 C 0.81394 0.69197 0.90678 0.0
C810 C 0.79931 0.67068 0.90662 0.0
C811 C 0.78276 0.66334 0.91936 0.0
C812 C 0.82639 0.72848 0.91958 0.0
C813 C 0.80166 0.65555 0.89368 0.0
C814 C 0.92446 0.7209 0.99042 0.0
C815 C 0.91989 0.70671 0.97252 0.0
C816 C 0.91388 0.71571 0.94006 0.0
C817 C 0.89998 0.69597 0.93262 0.0
C818 C 0.88619 0.69328 0.9174 0.0
C819 C 0.88619 0.71069 0.90969 0.0
C820 C 0.90105 0.73068 0.91644 0.0
C821 C 0.91499 0.73291 0.93134 0.0
C822 C 0.871 0.67178 0.91018 0.0
C823 C 0.90142 0.74959 0.90875 0.0
C824 C 0.92438 0.72321 0.78221 0.0
C825 C 0.90959 0.70376 0.78872 0.0
C826 C 0.89264 0.70126 0.79924 0.0
C827 C 0.89052 0.71859 0.80352 0.0
C828 C 0.90517 0.73814 0.79668 0.0
C829 C 0.9218 0.74012 0.78589 0.0
C830 C 0.8769 0.68002 0.80566 0.0
C831 C 0.90328 0.7569 0.80085 0.0
C832 C 0.7542 0.71747 0.77889 0.0
C833 C 0.76478 0.7135 0.7617 0.0
C834 C 0.78717 0.7028 0.77811 0.0
C835 C 0.78955 0.68589 0.78203 0.0
C836 C 0.80591 0.68798 0.79372 0.0
C837 C 0.82028 0.70754 0.80169 0.0
C838 C 0.81807 0.72477 0.79776 0.0
C839 C 0.80154 0.72226 0.78601 0.0
C840 C 0.80786 0.66928 0.79757 0.0
C841 C 0.8332 0.74585 0.80602 0.0
C842 C 0.83316 0.69945 0.89578 0.0
C843 C 0.85041 0.70237 0.90628 0.0
C844 C 0.86881 0.70782 0.89704 0.0
C845 C 0.87009 0.71023 0.87656 0.0
C846 C 0.88807 0.71483 0.86662 0.0
C847 C 0.88905 0.71695 0.84641 0.0
C848 C 0.87207 0.7145 0.83539 0.0
C849 C 0.87272 0.71607 0.8148 0.0
C850 C 0.85573 0.714 0.80436 0.0
C851 C 0.83782 0.71001 0.81386 0.0
C852 C 0.83666 0.70786 0.83439 0.0
C853 C 0.81869 0.70332 0.84437 0.0
C854 C 0.81753 0.70069 0.86451 0.0
C855 C 0.83433 0.70262 0.87542 0.0
C856 C 0.8528 0.70777 0.86574 0.0
C857 C 0.85388 0.71015 0.84517 0.0
C858 C 0.97105 0.73034 0.7876 0.0
C859 C 0.9522 0.71639 0.77469 0.0
O860 O 0.76567 0.66854 0.94574 0.0
O861 O 0.77082 0.69948 0.76675 0.0
O862 O 0.94092 0.72616 0.77185 0.0
O863 O 0.92602 0.71859 0.95594 0.0
H864 H 0.78027 0.68858 0.96891 0.0
H865 H 0.79027 0.6617 0.96884 0.0
H866 H 0.76394 0.64192 0.97197 0.0
H867 H 0.77745 0.66118 0.99107 0.0
H868 H 0.79303 0.70818 0.942 0.0
H869 H 0.77166 0.64704 0.91966 0.0
H870 H 0.84092 0.73154 0.92685 0.0
H871 H 0.82044 0.73733 0.92757 0.0
H872 H 0.82999 0.73413 0.90441 0.0
H873 H 0.78954 0.63939 0.8961 0.0
H874 H 0.81686 0.65694 0.89644 0.0
H875 H 0.80095 0.65909 0.8781 0.0
H876 H 0.90301 0.69599 0.972 0.0
H877 H 0.91939 0.71179 0.00395 0.0
H878 H 0.91609 0.7295 0.989 0.0
H879 H 0.94115 0.73216 0.99178 0.0
H880 H 0.89966 0.68268 0.93896 0.0
H881 H 0.92606 0.74808 0.93704 0.0
H882 H 0.86946 0.67124 0.89399 0.0
H883 H 0.85574 0.66713 0.9163 0.0
H884 H 0.87554 0.66044 0.91471 0.0
H885 H 0.91371 0.764 0.91583 0.0
H886 H 0.88642 0.74862 0.91126 0.0
H887 H 0.90386 0.75046 0.89274 0.0
H888 H 0.94354 0.70201 0.78295 0.0
H889 H 0.91084 0.69034 0.7853 0.0
H890 H 0.9331 0.75502 0.78055 0.0
H891 H 0.87715 0.67948 0.82186 0.0
H892 H 0.87975 0.66788 0.79962 0.0
H893 H 0.8613 0.67649 0.80097 0.0
H894 H 0.91674 0.77124 0.79577 0.0
H895 H 0.90163 0.75849 0.8168 0.0
H896 H 0.88928 0.75507 0.79343 0.0
H897 H 0.77845 0.72825 0.75765 0.0
H898 H 0.74912 0.72849 0.77467 0.0
H899 H 0.7649 0.72423 0.79163 0.0
H900 H 0.74066 0.70292 0.78347 0.0
H901 H 0.77843 0.67096 0.77588 0.0
H902 H 0.80004 0.73557 0.78314 0.0
H903 H 0.80791 0.667 0.81356 0.0
H904 H 0.82266 0.67173 0.79193 0.0
H905 H 0.7952 0.65507 0.79058 0.0
H906 H 0.82937 0.75775 0.80165 0.0
H907 H 0.84883 0.75043 0.80093 0.0
H908 H 0.83356 0.74542 0.82223 0.0
H909 H 0.84941 0.70009 0.92196 0.0
H910 H 0.90152 0.71672 0.87437 0.0
H911 H 0.90328 0.72048 0.83952 0.0
H912 H 0.85632 0.71514 0.78856 0.0
H913 H 0.80526 0.70156 0.83669 0.0
H914 H 0.8033 0.69708 0.87145 0.0
H915 H 0.98006 0.74584 0.78125 0.0
H916 H 0.98092 0.72335 0.78947 0.0
H917 H 0.96603 0.73228 0.8023 0.0
C918 C 0.88438 0.61887 0.36343 0.0
C919 C 0.89667 0.63816 0.37634 0.0
C920 C 0.8834 0.63549 0.40883 0.0
C921 C 0.88669 0.65524 0.41299 0.0
C922 C 0.87369 0.65812 0.42558 0.0
C923 C 0.85683 0.64079 0.43384 0.0
C924 C 0.85389 0.62087 0.43005 0.0
C925 C 0.86751 0.61854 0.41785 0.0
C926 C 0.87762 0.67963 0.42957 0.0
C927 C 0.83592 0.60198 0.43827 0.0
C928 C 0.72351 0.64816 0.37769 0.0
C929 C 0.73465 0.63989 0.38906 0.0
C930 C 0.76838 0.65195 0.40422 0.0
C931 C 0.76308 0.63348 0.41365 0.0
C932 C 0.77702 0.63211 0.42641 0.0
C933 C 0.79647 0.6497 0.43018 0.0
C934 C 0.80172 0.66839 0.42094 0.0
C935 C 0.78766 0.66918 0.4079 0.0
C936 C 0.77107 0.61176 0.43562 0.0
C937 C 0.82225 0.68748 0.42468 0.0
C938 C 0.76046 0.65145 0.55749 0.0
C939 C 0.75587 0.63279 0.54803 0.0
C940 C 0.77091 0.63096 0.53767 0.0
C941 C 0.79085 0.64822 0.53636 0.0
C942 C 0.79548 0.66704 0.54571 0.0
C943 C 0.78025 0.66834 0.55624 0.0
C944 C 0.76551 0.61053 0.52819 0.0
C945 C 0.81655 0.68578 0.54459 0.0
C946 C 0.91905 0.61939 0.55624 0.0
C947 C 0.91221 0.6337 0.56526 0.0
C948 C 0.87762 0.62778 0.55914 0.0
C949 C 0.85822 0.61181 0.55342 0.0
C950 C 0.84421 0.61583 0.54361 0.0
C951 C 0.84974 0.63641 0.53972 0.0
C952 C 0.86887 0.65273 0.54658 0.0
C953 C 0.88262 0.64826 0.5563 0.0
C954 C 0.82377 0.59808 0.53682 0.0
C955 C 0.87496 0.67485 0.54314 0.0
C956 C 0.8413 0.64338 0.44483 0.0
C957 C 0.82686 0.64571 0.43391 0.0
C958 C 0.81169 0.64821 0.44297 0.0
C959 C 0.81083 0.64851 0.46361 0.0
C960 C 0.79609 0.65151 0.47324 0.0
C961 C 0.79496 0.6511 0.49355 0.0
C962 C 0.80847 0.6476 0.50501 0.0
C963 C 0.807 0.64644 0.52563 0.0
C964 C 0.82076 0.64299 0.53652 0.0
C965 C 0.83607 0.64073 0.52741 0.0
C966 C 0.83783 0.64193 0.50684 0.0
C967 C 0.85318 0.63989 0.49724 0.0
C968 C 0.85458 0.64071 0.47697 0.0
C969 C 0.84048 0.64326 0.46549 0.0
C970 C 0.82509 0.6457 0.47489 0.0
C971 C 0.82384 0.64516 0.4956 0.0
C972 C 0.71379 0.63948 0.55154 0.0
C973 C 0.72577 0.63987 0.56993 0.0
O974 O 0.8951 0.6325 0.39574 0.0
O975 O 0.8911 0.62286 0.56721 0.0
O976 O 0.74648 0.65394 0.56791 0.0
O977 O 0.75543 0.65377 0.39152 0.0
H978 H 0.88978 0.64812 0.37415 0.0
H979 H 0.86803 0.6109 0.36763 0.0
H980 H 0.89031 0.60807 0.36516 0.0
H981 H 0.88528 0.62306 0.34781 0.0
H982 H 0.89931 0.66834 0.40619 0.0
H983 H 0.86525 0.60336 0.41457 0.0
H984 H 0.86602 0.68178 0.42148 0.0
H985 H 0.89309 0.69153 0.42488 0.0
H986 H 0.87612 0.68201 0.44539 0.0
H987 H 0.83503 0.58752 0.43285 0.0
H988 H 0.82139 0.60156 0.43431 0.0
H989 H 0.83723 0.60257 0.45446 0.0
H990 H 0.73133 0.62423 0.38428 0.0
H991 H 0.71782 0.63823 0.364 0.0
H992 H 0.73547 0.66215 0.37001 0.0
H993 H 0.70364 0.64946 0.39813 0.0
H994 H 0.74822 0.61998 0.41091 0.0
H995 H 0.79159 0.68336 0.40059 0.0
H996 H 0.78311 0.60761 0.43314 0.0
H997 H 0.75622 0.59909 0.42971 0.0
H998 H 0.76974 0.61308 0.45165 0.0
H999 H 0.82282 0.70142 0.41866 0.0
H1000 H 0.83437 0.68544 0.41771 0.0
H1001 H 0.82579 0.69 0.44062 0.0
H1002 H 0.72369 0.62432 0.57217 0.0
H1003 H 0.74066 0.61951 0.54867 0.0
H1004 H 0.78371 0.68268 0.56353 0.0
H1005 H 0.76623 0.61198 0.51206 0.0
H1006 H 0.7499 0.59813 0.53198 0.0
H1007 H 0.77679 0.60591 0.53277 0.0
H1008 H 0.81723 0.69971 0.55124 0.0
H1009 H 0.82123 0.68884 0.5291 0.0
H1010 H 0.82783 0.68287 0.55236 0.0
H1011 H 0.91684 0.64639 0.55477 0.0
H1012 H 0.93598 0.62766 0.55478 0.0
H1013 H 0.91193 0.61407 0.54145 0.0
H1014 H 0.91433 0.60565 0.56534 0.0
H1015 H 0.85437 0.59608 0.55606 0.0
H1016 H 0.89725 0.66075 0.56157 0.0
H1017 H 0.8226 0.59785 0.52061 0.0
H1018 H 0.81119 0.60012 0.54265 0.0
H1019 H 0.82152 0.58301 0.54155 0.0
H1020 H 0.8898 0.68582 0.55046 0.0
H1021 H 0.86291 0.67795 0.5486 0.0
H1022 H 0.87629 0.6777 0.5272 0.0
H1023 H 0.82733 0.64541 0.41806 0.0
H1024 H 0.7852 0.65411 0.46516 0.0
H1025 H 0.78323 0.65339 0.50016 0.0
H1026 H 0.81944 0.64187 0.55229 0.0
H1027 H 0.8643 0.6376 0.50527 0.0
H1028 H 0.86671 0.63908 0.47038 0.0
H1029 H 0.69721 0.62821 0.55305 0.0
H1030 H 0.71931 0.63485 0.53851 0.0
H1031 H 0.71574 0.65495 0.54907 0.0
C1032 C 0.36961 0.25513 0.37126 0.0
C1033 C 0.3544 0.25487 0.38608 0.0
C1034 C 0.36263 0.24615 0.41749 0.0
C1035 C 0.34378 0.23001 0.42351 0.0
C1036 C 0.34298 0.21505 0.43609 0.0
C1037 C 0.36145 0.21625 0.44259 0.0
C1038 C 0.38052 0.233 0.43706 0.0
C1039 C 0.38084 0.24797 0.42481 0.0
C1040 C 0.3224 0.19769 0.44205 0.0
C1041 C 0.40052 0.23465 0.44348 0.0
C1042 C 0.34572 0.07652 0.37758 0.0
C1043 C 0.35241 0.09777 0.38504 0.0
C1044 C 0.34551 0.11431 0.41285 0.0
C1045 C 0.36468 0.13248 0.41317 0.0
C1046 C 0.36885 0.14873 0.42628 0.0
C1047 C 0.35329 0.14711 0.43884 0.0
C1048 C 0.33382 0.12898 0.43824 0.0
C1049 C 0.33039 0.11265 0.42555 0.0
C1050 C 0.38985 0.16773 0.42653 0.0
C1051 C 0.3165 0.1269 0.45072 0.0
C1052 C 0.36204 0.11499 0.56555 0.0
C1053 C 0.38147 0.1311 0.5605 0.0
C1054 C 0.38342 0.14793 0.55004 0.0
C1055 C 0.36563 0.14865 0.54459 0.0
C1056 C 0.34608 0.13236 0.54953 0.0
C1057 C 0.34456 0.11568 0.55985 0.0
C1058 C 0.40448 0.16499 0.54485 0.0
C1059 C 0.32678 0.13266 0.54404 0.0
C1060 C 0.39361 0.30507 0.56835 0.0
C1061 C 0.37804 0.28366 0.57542 0.0
C1062 C 0.38345 0.25465 0.56943 0.0
C1063 C 0.39956 0.25147 0.56434 0.0
C1064 C 0.39591 0.23385 0.55357 0.0
C1065 C 0.37555 0.21887 0.54821 0.0
C1066 C 0.35907 0.22146 0.55431 0.0
C1067 C 0.3632 0.23938 0.56483 0.0
C1068 C 0.41383 0.23146 0.54755 0.0
C1069 C 0.33714 0.20545 0.54944 0.0
C1070 C 0.36078 0.19902 0.45352 0.0
C1071 C 0.35737 0.18165 0.44268 0.0
C1072 C 0.35703 0.16489 0.45161 0.0
C1073 C 0.36013 0.16535 0.47209 0.0
C1074 C 0.36035 0.14898 0.48158 0.0
C1075 C 0.36274 0.14932 0.5018 0.0
C1076 C 0.36533 0.16618 0.51329 0.0
C1077 C 0.36741 0.16651 0.53388 0.0
C1078 C 0.37059 0.18379 0.54481 0.0
C1079 C 0.3716 0.20082 0.53576 0.0
C1080 C 0.36904 0.20059 0.51521 0.0
C1081 C 0.36958 0.2173 0.50563 0.0
C1082 C 0.36675 0.21678 0.48545 0.0
C1083 C 0.36359 0.19968 0.47404 0.0
C1084 C 0.3632 0.18274 0.48335 0.0
C1085 C 0.36588 0.18318 0.50396 0.0
C1086 C 0.36639 0.081 0.60126 0.0
C1087 C 0.37463 0.09665 0.58566 0.0
O1088 O 0.36359 0.26004 0.40453 0.0
O1089 O 0.38796 0.27259 0.57869 0.0
O1090 O 0.35944 0.09871 0.57613 0.0
O1091 O 0.34098 0.09803 0.4007 0.0
H1092 H 0.34091 0.23898 0.38589 0.0
H1093 H 0.37419 0.24369 0.37529 0.0
H1094 H 0.38361 0.27057 0.37099 0.0
H1095 H 0.36246 0.25102 0.35639 0.0
H1096 H 0.32971 0.22906 0.41825 0.0
H1097 H 0.3953 0.2607 0.4202 0.0
H1098 H 0.31952 0.18318 0.43468 0.0
H1099 H 0.30969 0.20049 0.43805 0.0
H1100 H 0.32231 0.19549 0.45807 0.0
H1101 H 0.41399 0.24817 0.43724 0.0
H1102 H 0.40074 0.2205 0.43893 0.0
H1103 H 0.40199 0.23596 0.45967 0.0
H1104 H 0.35435 0.10911 0.37372 0.0
H1105 H 0.37131 0.07319 0.3831 0.0
H1106 H 0.33952 0.07584 0.36237 0.0
H1107 H 0.33022 0.06605 0.3839 0.0
H1108 H 0.37652 0.13409 0.40334 0.0
H1109 H 0.31563 0.0986 0.42516 0.0
H1110 H 0.38893 0.18043 0.4194 0.0
H1111 H 0.4012 0.16513 0.41862 0.0
H1112 H 0.39549 0.17278 0.4418 0.0
H1113 H 0.30153 0.11348 0.44607 0.0
H1114 H 0.31528 0.14103 0.45008 0.0
H1115 H 0.31956 0.12486 0.46617 0.0
H1116 H 0.38537 0.09539 0.57539 0.0
H1117 H 0.39511 0.13062 0.56468 0.0
H1118 H 0.32967 0.10316 0.56382 0.0
H1119 H 0.40517 0.16751 0.52885 0.0
H1120 H 0.41673 0.16161 0.54916 0.0
H1121 H 0.40756 0.17952 0.5523 0.0
H1122 H 0.31281 0.11924 0.54974 0.0
H1123 H 0.32528 0.13259 0.52788 0.0
H1124 H 0.32769 0.147 0.54983 0.0
H1125 H 0.36647 0.27639 0.56334 0.0
H1126 H 0.38604 0.31432 0.56584 0.0
H1127 H 0.40015 0.30364 0.55433 0.0
H1128 H 0.40638 0.31332 0.57918 0.0
H1129 H 0.41511 0.2632 0.56827 0.0
H1130 H 0.35063 0.24144 0.56948 0.0
H1131 H 0.41365 0.22955 0.53141 0.0
H1132 H 0.41247 0.21738 0.55406 0.0
H1133 H 0.42878 0.24486 0.55226 0.0
H1134 H 0.32602 0.20884 0.55675 0.0
H1135 H 0.33415 0.19003 0.55388 0.0
H1136 H 0.33446 0.20476 0.5334 0.0
H1137 H 0.35503 0.18121 0.42695 0.0
H1138 H 0.35851 0.13564 0.47347 0.0
H1139 H 0.36257 0.13618 0.50832 0.0
H1140 H 0.37226 0.18396 0.5606 0.0
H1141 H 0.37206 0.23093 0.51363 0.0
H1142 H 0.36709 0.22998 0.47888 0.0
H1143 H 0.36951 0.06853 0.59609 0.0
H1144 H 0.34931 0.07148 0.59866 0.0
H1145 H 0.37949 0.09835 0.62702 0.0
C1146 C 0.88948 0.22345 0.36348 0.0
C1147 C 0.89741 0.24291 0.3764 0.0
C1148 C 0.88188 0.22764 0.40738 0.0
C1149 C 0.86587 0.23204 0.40826 0.0
C1150 C 0.84896 0.22064 0.42017 0.0
C1151 C 0.84796 0.20436 0.43119 0.0
C1152 C 0.86426 0.20012 0.4305 0.0
C1153 C 0.88123 0.21215 0.41889 0.0
C1154 C 0.83209 0.22592 0.42089 0.0
C1155 C 0.86361 0.18261 0.44166 0.0
C1156 C 0.72841 0.10957 0.35365 0.0
C1157 C 0.73495 0.10225 0.37165 0.0
C1158 C 0.7458 0.1219 0.40244 0.0
C1159 C 0.76075 0.11707 0.40833 0.0
C1160 C 0.77613 0.12965 0.42203 0.0
C1161 C 0.77656 0.14744 0.42984 0.0
C1162 C 0.76094 0.1518 0.42454 0.0
C1163 C 0.74554 0.13872 0.4111 0.0
C1164 C 0.79223 0.12426 0.42777 0.0
C1165 C 0.76099 0.1707 0.43245 0.0
C1166 C 0.74096 0.12419 0.55754 0.0
C1167 C 0.75705 0.12033 0.55386 0.0
C1168 C 0.77406 0.13416 0.54312 0.0
C1169 C 0.77513 0.15233 0.53621 0.0
C1170 C 0.7593 0.15661 0.54052 0.0
C1171 C 0.74244 0.14249 0.55123 0.0
C1172 C 0.79092 0.12938 0.53916 0.0
C1173 C 0.76016 0.17603 0.53368 0.0
C1174 C 0.91431 0.28965 0.558 0.0
C1175 C 0.90288 0.27506 0.5746 0.0
C1176 C 0.88004 0.24139 0.5586 0.0
C1177 C 0.87701 0.22166 0.55527 0.0
C1178 C 0.85995 0.20676 0.54448 0.0
C1179 C 0.84548 0.21176 0.53696 0.0
C1180 C 0.8483 0.23164 0.54037 0.0
C1181 C 0.86565 0.24634 0.55101 0.0
C1182 C 0.85746 0.18572 0.54099 0.0
C1183 C 0.83306 0.23739 0.53261 0.0
C1184 C 0.82942 0.1911 0.44261 0.0
C1185 C 0.8121 0.17613 0.43235 0.0
C1186 C 0.79433 0.16245 0.44205 0.0
C1187 C 0.79378 0.16342 0.46267 0.0
C1188 C 0.77641 0.14946 0.47296 0.0
C1189 C 0.77606 0.15059 0.49328 0.0
C1190 C 0.79308 0.16574 0.50407 0.0
C1191 C 0.79296 0.16699 0.52472 0.0
C1192 C 0.81015 0.18223 0.53496 0.0
C1193 C 0.82764 0.1963 0.52514 0.0
C1194 C 0.82811 0.19532 0.50452 0.0
C1195 C 0.8455 0.20927 0.49421 0.0
C1196 C 0.84589 0.20807 0.47393 0.0
C1197 C 0.82898 0.19277 0.46318 0.0
C1198 C 0.81116 0.17874 0.47326 0.0
C1199 C 0.81076 0.17997 0.49396 0.0
C1200 C 0.69305 0.07989 0.55934 0.0
C1201 C 0.71502 0.08964 0.56744 0.0
O1202 O 0.89826 0.23816 0.39578 0.0
O1203 O 0.89706 0.25502 0.56906 0.0
O1204 O 0.72395 0.11088 0.56733 0.0
O1205 O 0.73159 0.11084 0.38828 0.0
H1206 H 0.88686 0.24912 0.3747 0.0
H1207 H 0.87377 0.21181 0.36781 0.0
H1208 H 0.89963 0.21675 0.36504 0.0
H1209 H 0.8888 0.227 0.34788 0.0
H1210 H 0.86665 0.24454 0.39993 0.0
H1211 H 0.89381 0.20906 0.41823 0.0
H1212 H 0.81815 0.21351 0.41336 0.0
H1213 H 0.83645 0.24068 0.4137 0.0
H1214 H 0.82811 0.22695 0.43629 0.0
H1215 H 0.87626 0.17979 0.43766 0.0
H1216 H 0.84876 0.16824 0.43886 0.0
H1217 H 0.86487 0.18621 0.45758 0.0
H1218 H 0.75163 0.10785 0.37009 0.0
H1219 H 0.73115 0.10304 0.34009 0.0
H1220 H 0.73752 0.12662 0.35307 0.0
H1221 H 0.71191 0.10487 0.35419 0.0
H1222 H 0.7605 0.10357 0.40215 0.0
H1223 H 0.73371 0.14209 0.40662 0.0
H1224 H 0.79434 0.12522 0.44392 0.0
H1225 H 0.8071 0.13552 0.42142 0.0
H1226 H 0.78821 0.10858 0.42252 0.0
H1227 H 0.74809 0.17222 0.42639 0.0
H1228 H 0.77565 0.18469 0.42892 0.0
H1229 H 0.75987 0.17004 0.44862 0.0
H1230 H 0.72305 0.08429 0.55743 0.0
H1231 H 0.75654 0.10671 0.55953 0.0
H1232 H 0.73012 0.1455 0.55445 0.0
H1233 H 0.79321 0.12921 0.52316 0.0
H1234 H 0.78755 0.11432 0.54505 0.0
H1235 H 0.80553 0.14163 0.54587 0.0
H1236 H 0.74674 0.17724 0.53846 0.0
H1237 H 0.7607 0.17646 0.51747 0.0
H1238 H 0.77438 0.18967 0.53944 0.0
H1239 H 0.88907 0.27611 0.57814 0.0
H1240 H 0.919 0.30575 0.5624 0.0
H1241 H 0.90425 0.28544 0.54477 0.0
H1242 H 0.92819 0.28882 0.55421 0.0
H1243 H 0.8882 0.21799 0.56111 0.0
H1244 H 0.86779 0.26159 0.55315 0.0
H1245 H 0.85617 0.18217 0.52504 0.0
H1246 H 0.84308 0.17392 0.5477 0.0
H1247 H 0.87048 0.18451 0.54721 0.0
H1248 H 0.83676 0.25307 0.53753 0.0
H1249 H 0.81742 0.22614 0.53746 0.0
H1250 H 0.83284 0.23677 0.51638 0.0
H1251 H 0.81249 0.17505 0.41653 0.0
H1252 H 0.7629 0.13746 0.46541 0.0
H1253 H 0.76229 0.13942 0.50044 0.0
H1254 H 0.80997 0.18305 0.5508 0.0
H1255 H 0.85905 0.22127 0.50171 0.0
H1256 H 0.85966 0.21925 0.46677 0.0
H1257 H 0.68555 0.06284 0.55934 0.0
H1258 H 0.69323 0.08473 0.54404 0.0
H1259 H 0.68384 0.08476 0.56815 0.0
C1260 C 0.01086 0.4515 0.3148 0.0
C1261 C 0.00107 0.43272 0.30085 0.0
C1262 C 0.00425 0.44863 0.26913 0.0
C1263 C 0.98425 0.44523 0.26668 0.0
C1264 C 0.98005 0.45683 0.25347 0.0
C1265 C 0.99618 0.47215 0.2426 0.0
C1266 C 0.01618 0.47508 0.24451 0.0
C1267 C 0.01987 0.46302 0.25758 0.0
C1268 C 0.95844 0.45296 0.25137 0.0
C1269 C 0.03376 0.49134 0.23318 0.0
C1270 C 0.01394 0.61336 0.29925 0.0
C1271 C 0.01613 0.5973 0.28823 0.0
C1272 C 0.99676 0.5676 0.26628 0.0
C1273 C 0.01414 0.56765 0.25887 0.0
C1274 C 0.01211 0.55188 0.24617 0.0
C1275 C 0.99234 0.53546 0.24107 0.0
C1276 C 0.9748 0.53547 0.24827 0.0
C1277 C 0.97727 0.55172 0.2606 0.0
C1278 C 0.03117 0.55251 0.23862 0.0
C1279 C 0.95351 0.518 0.24342 0.0
C1280 C 0.96868 0.55046 0.11345 0.0
C1281 C 0.98832 0.55337 0.11723 0.0
C1282 C 0.99092 0.53928 0.12841 0.0
C1283 C 0.97352 0.52185 0.13577 0.0
C1284 C 0.95369 0.51854 0.13143 0.0
C1285 C 0.95153 0.53285 0.12017 0.0
C1286 C 0.01226 0.54298 0.13234 0.0
C1287 C 0.93481 0.49997 0.13884 0.0
C1288 C 0.96399 0.37853 0.1235 0.0
C1289 C 0.96468 0.3899 0.10485 0.0
C1290 C 0.97821 0.42573 0.11685 0.0
C1291 C 0.99581 0.44515 0.11794 0.0
C1292 C 0.99602 0.46158 0.12817 0.0
C1293 C 0.97802 0.4585 0.1374 0.0
C1294 C 0.96 0.43898 0.13612 0.0
C1295 C 0.96029 0.42272 0.12596 0.0
C1296 C 0.01553 0.48218 0.12924 0.0
C1297 C 0.94048 0.43528 0.1456 0.0
C1298 C 0.99244 0.48623 0.23051 0.0
C1299 C 0.99301 0.50307 0.24004 0.0
C1300 C 0.99024 0.51745 0.22978 0.0
C1301 C 0.98658 0.51495 0.20934 0.0
C1302 C 0.98391 0.52922 0.19849 0.0
C1303 C 0.98033 0.52658 0.17836 0.0
C1304 C 0.97948 0.50968 0.16829 0.0
C1305 C 0.97608 0.50697 0.14781 0.0
C1306 C 0.97542 0.49005 0.13827 0.0
C1307 C 0.9782 0.47568 0.14861 0.0
C1308 C 0.98163 0.47811 0.16909 0.0
C1309 C 0.98462 0.46401 0.17992 0.0
C1310 C 0.988 0.46653 0.20006 0.0
C1311 C 0.98873 0.48336 0.2101 0.0
C1312 C 0.98577 0.49778 0.19948 0.0
C1313 C 0.98222 0.49515 0.17895 0.0
C1314 C 0.96738 0.59338 0.11878 0.0
C1315 C 0.97738 0.58528 0.10452 0.0
O1316 O 0.00905 0.43827 0.28232 0.0
O1317 O 0.97941 0.41055 0.10694 0.0
O1318 O 0.96567 0.564 0.10297 0.0
O1319 O 0.9982 0.58241 0.279 0.0
H1320 H 0.98429 0.4267 0.30044 0.0
H1321 H 0.00705 0.46321 0.30978 0.0
H1322 H 0.02781 0.45859 0.31534 0.0
H1323 H 0.00488 0.44699 0.32978 0.0
H1324 H 0.97179 0.43347 0.27483 0.0
H1325 H 0.03518 0.46528 0.25937 0.0
H1326 H 0.95779 0.46646 0.25731 0.0
H1327 H 0.94724 0.43907 0.25924 0.0
H1328 H 0.9538 0.45104 0.23568 0.0
H1329 H 0.04847 0.49186 0.23654 0.0
H1330 H 0.03559 0.50668 0.23663 0.0
H1331 H 0.03039 0.48831 0.21726 0.0
H1332 H 0.02418 0.59054 0.29636 0.0
H1333 H 0.01672 0.61127 0.31503 0.0
H1334 H 0.997 0.60722 0.3009 0.0
H1335 H 0.03298 0.64033 0.28426 0.0
H1336 H 0.02936 0.57983 0.26302 0.0
H1337 H 0.96395 0.55182 0.26631 0.0
H1338 H 0.02961 0.5491 0.22264 0.0
H1339 H 0.03324 0.54053 0.24588 0.0
H1340 H 0.04515 0.56768 0.24149 0.0
H1341 H 0.94145 0.52008 0.25052 0.0
H1342 H 0.95204 0.50325 0.24818 0.0
H1343 H 0.9508 0.51676 0.22735 0.0
H1344 H 0.99288 0.59019 0.11071 0.0
H1345 H 0.00164 0.56637 0.11121 0.0
H1346 H 0.93642 0.53055 0.11686 0.0
H1347 H 0.01546 0.54454 0.14834 0.0
H1348 H 0.02421 0.55706 0.12526 0.0
H1349 H 0.01339 0.52957 0.12691 0.0
H1350 H 0.92048 0.49985 0.13456 0.0
H1351 H 0.93572 0.49967 0.15503 0.0
H1352 H 0.93404 0.48573 0.13296 0.0
H1353 H 0.94944 0.38837 0.10191 0.0
H1354 H 0.9523 0.36195 0.12188 0.0
H1355 H 0.95985 0.38501 0.13618 0.0
H1356 H 0.97918 0.38002 0.12662 0.0
H1357 H 0.00953 0.44734 0.11083 0.0
H1358 H 0.94651 0.40781 0.12529 0.0
H1359 H 0.01972 0.48739 0.14473 0.0
H1360 H 0.01304 0.49379 0.12174 0.0
H1361 H 0.02856 0.4817 0.12231 0.0
H1362 H 0.92733 0.41975 0.14193 0.0
H1363 H 0.9366 0.44704 0.14091 0.0
H1364 H 0.94276 0.43682 0.16172 0.0
H1365 H 0.99599 0.50521 0.25571 0.0
H1366 H 0.98452 0.54256 0.20547 0.0
H1367 H 0.97831 0.53802 0.17077 0.0
H1368 H 0.97292 0.48815 0.12255 0.0
H1369 H 0.98437 0.45084 0.17296 0.0
H1370 H 0.99012 0.45517 0.20766 0.0
H1371 H 0.97642 0.61045 0.11988 0.0
H1372 H 0.95144 0.58858 0.11403 0.0
H1373 H 0.9669 0.58721 0.13354 0.0
C1374 C 0.45111 0.40361 0.32118 0.0
C1375 C 0.44011 0.40948 0.3059 0.0
C1376 C 0.4548 0.41849 0.27368 0.0
C1377 C 0.45069 0.43421 0.26905 0.0
C1378 C 0.46291 0.4494 0.25579 0.0
C1379 C 0.47971 0.44894 0.24723 0.0
C1380 C 0.48337 0.4326 0.25135 0.0
C1381 C 0.47056 0.41733 0.26428 0.0
C1382 C 0.45821 0.46625 0.25136 0.0
C1383 C 0.50126 0.43169 0.2427 0.0
C1384 C 0.61647 0.59852 0.29032 0.0
C1385 C 0.60504 0.57915 0.2784 0.0
C1386 C 0.56992 0.55261 0.27002 0.0
C1387 C 0.57482 0.53915 0.26011 0.0
C1388 C 0.55983 0.52212 0.24929 0.0
C1389 C 0.53969 0.51895 0.24765 0.0
C1390 C 0.53471 0.53249 0.25762 0.0
C1391 C 0.54984 0.54894 0.26896 0.0
C1392 C 0.5656 0.50751 0.2397 0.0
C1393 C 0.51344 0.52964 0.25631 0.0
C1394 C 0.57273 0.54782 0.12079 0.0
C1395 C 0.57678 0.53337 0.12955 0.0
C1396 C 0.56158 0.51699 0.14002 0.0
C1397 C 0.54203 0.51512 0.14187 0.0
C1398 C 0.5379 0.52958 0.13303 0.0
C1399 C 0.55332 0.54571 0.12255 0.0
C1400 C 0.56642 0.5017 0.14918 0.0
C1401 C 0.51726 0.52808 0.13481 0.0
C1402 C 0.41692 0.35624 0.11502 0.0
C1403 C 0.42385 0.37859 0.1102 0.0
C1404 C 0.45735 0.4078 0.11956 0.0
C1405 C 0.47684 0.41203 0.1256 0.0
C1406 C 0.48991 0.42999 0.13647 0.0
C1407 C 0.48338 0.44422 0.14104 0.0
C1408 C 0.46397 0.44045 0.13426 0.0
C1409 C 0.45112 0.42225 0.12356 0.0
C1410 C 0.51063 0.43366 0.14323 0.0
C1411 C 0.45684 0.45564 0.13839 0.0
C1412 C 0.49447 0.46648 0.23545 0.0
C1413 C 0.50918 0.48412 0.24562 0.0
C1414 C 0.52383 0.50128 0.23577 0.0
C1415 C 0.52381 0.50097 0.21509 0.0
C1416 C 0.53798 0.51814 0.20466 0.0
C1417 C 0.53858 0.51732 0.18437 0.0
C1418 C 0.52492 0.49934 0.17372 0.0
C1419 C 0.52595 0.49807 0.15317 0.0
C1420 C 0.51199 0.48009 0.14298 0.0
C1421 C 0.49698 0.46312 0.15278 0.0
C1422 C 0.49575 0.46402 0.17337 0.0
C1423 C 0.48087 0.44722 0.18374 0.0
C1424 C 0.48014 0.44811 0.20405 0.0
C1425 C 0.49447 0.46571 0.21478 0.0
C1426 C 0.50933 0.48298 0.20459 0.0
C1427 C 0.50991 0.48216 0.18387 0.0
C1428 C 0.62016 0.5812 0.12615 0.0
C1429 C 0.60731 0.57006 0.10778 0.0
O1430 O 0.44404 0.40453 0.28743 0.0
O1431 O 0.44507 0.38971 0.10986 0.0
O1432 O 0.58689 0.56401 0.11059 0.0
O1433 O 0.58399 0.56912 0.28082 0.0
H1434 H 0.44649 0.4264 0.30753 0.0
H1435 H 0.46788 0.41218 0.31867 0.0
H1436 H 0.44565 0.38685 0.32024 0.0
H1437 H 0.44838 0.40762 0.33613 0.0
H1438 H 0.43805 0.43467 0.27597 0.0
H1439 H 0.47339 0.40494 0.26784 0.0
H1440 H 0.47003 0.48084 0.25852 0.0
H1441 H 0.44294 0.4627 0.25672 0.0
H1442 H 0.45872 0.46875 0.23537 0.0
H1443 H 0.50278 0.41874 0.24842 0.0
H1444 H 0.51573 0.44632 0.24595 0.0
H1445 H 0.4993 0.42984 0.22657 0.0
H1446 H 0.61162 0.56879 0.27933 0.0
H1447 H 0.62629 0.5956 0.30083 0.0
H1448 H 0.60569 0.59808 0.30185 0.0
H1449 H 0.62892 0.62139 0.26932 0.0
H1450 H 0.5902 0.54156 0.26101 0.0
H1451 H 0.54615 0.55931 0.27675 0.0
H1452 H 0.55349 0.49128 0.2418 0.0
H1453 H 0.58036 0.50969 0.2456 0.0
H1454 H 0.56719 0.5102 0.22376 0.0
H1455 H 0.51292 0.5432 0.26231 0.0
H1456 H 0.50282 0.51598 0.26474 0.0
H1457 H 0.50781 0.52685 0.24088 0.0
H1458 H 0.60879 0.55631 0.10445 0.0
H1459 H 0.5917 0.53472 0.12837 0.0
H1460 H 0.55034 0.55693 0.11574 0.0
H1461 H 0.56544 0.50248 0.16533 0.0
H1462 H 0.58196 0.50462 0.14551 0.0
H1463 H 0.55495 0.48584 0.14421 0.0
H1464 H 0.51671 0.54097 0.12763 0.0
H1465 H 0.51356 0.52807 0.15049 0.0
H1466 H 0.50523 0.51334 0.12805 0.0
H1467 H 0.41808 0.3844 0.12222 0.0
H1468 H 0.39992 0.34701 0.11535 0.0
H1469 H 0.42311 0.35563 0.12965 0.0
H1470 H 0.42253 0.34921 0.10409 0.0
H1471 H 0.48161 0.40092 0.12215 0.0
H1472 H 0.43635 0.41944 0.11823 0.0
H1473 H 0.51229 0.43614 0.15934 0.0
H1474 H 0.52286 0.44781 0.13652 0.0
H1475 H 0.51301 0.42061 0.13927 0.0
H1476 H 0.44169 0.45088 0.13141 0.0
H1477 H 0.46824 0.47102 0.13301 0.0
H1478 H 0.45568 0.45723 0.15442 0.0
H1479 H 0.5094 0.48439 0.26149 0.0
H1480 H 0.54892 0.53237 0.21208 0.0
H1481 H 0.55 0.53092 0.17715 0.0
H1482 H 0.51302 0.47918 0.12722 0.0
H1483 H 0.46966 0.43316 0.17627 0.0
H1484 H 0.46837 0.43473 0.21127 0.0
H1485 H 0.63656 0.58625 0.12376 0.0
H1486 H 0.61496 0.57079 0.13878 0.0
H1487 H 0.61875 0.59489 0.12991 0.0
C1488 C 0.42006 0.95516 0.30858 0.0
C1489 C 0.42181 0.97455 0.29973 0.0
C1490 C 0.43545 0.979 0.26713 0.0
C1491 C 0.45017 -6e-05 0.26675 0.0
C1492 C 0.46696 0.00701 0.25431 0.0
C1493 C 0.46914 0.99272 0.24228 0.0
C1494 C 0.45395 0.97161 0.24234 0.0
C1495 C 0.43703 0.96509 0.25452 0.0
C1496 C 0.48258 0.02967 0.25435 0.0
C1497 C 0.45592 0.95581 0.2301 0.0
C1498 C 0.58733 0.03267 0.31969 0.0
C1499 C 0.58389 0.01615 0.30436 0.0
C1500 C 0.57329 0.02056 0.27205 0.0
C1501 C 0.55886 0.00028 0.26652 0.0
C1502 C 0.54328 0.99618 0.25276 0.0
C1503 C 0.54201 0.01276 0.24463 0.0
C1504 C 0.55699 0.03328 0.2498 0.0
C1505 C 0.57273 0.03689 0.26318 0.0
C1506 C 0.52789 0.97414 0.24726 0.0
C1507 C 0.55597 0.05138 0.24179 0.0
C1508 C 0.58429 0.03506 0.12083 0.0
C1509 C 0.56919 0.01423 0.12211 0.0
C1510 C 0.55056 0.00847 0.1313 0.0
C1511 C 0.5469 0.02386 0.13912 0.0
C1512 C 0.56164 0.04487 0.13694 0.0
C1513 C 0.58013 0.05019 0.12769 0.0
C1514 C 0.53489 0.98594 0.13293 0.0
C1515 C 0.55803 0.06167 0.14474 0.0
C1516 C 0.3992 0.00136 0.12226 0.0
C1517 C 0.41402 0.01105 0.1054 0.0
C1518 C 0.44171 0.00419 0.11439 0.0
C1519 C 0.44545 0.98779 0.11558 0.0
C1520 C 0.46174 0.98939 0.12706 0.0
C1521 C 0.47494 0.0081 0.13716 0.0
C1522 C 0.47157 0.02496 0.13566 0.0
C1523 C 0.45488 0.02279 0.12443 0.0
C1524 C 0.46481 0.97106 0.12848 0.0
C1525 C 0.48573 0.04533 0.1458 0.0
C1526 C 0.48818 0.99953 0.23109 0.0
C1527 C 0.50566 0.00296 0.24154 0.0
C1528 C 0.52405 0.00863 0.23216 0.0
C1529 C 0.52507 0.01066 0.21164 0.0
C1530 C 0.5431 0.01557 0.20162 0.0
C1531 C 0.54406 0.01793 0.18146 0.0
C1532 C 0.527 0.01539 0.17053 0.0
C1533 C 0.52791 0.01801 0.15006 0.0
C1534 C 0.51069 0.01538 0.13965 0.0
C1535 C 0.49242 0.01017 0.14913 0.0
C1536 C 0.49117 0.00742 0.16958 0.0
C1537 C 0.47301 0.00212 0.17957 0.0
C1538 C 0.47201 0.99964 0.19973 0.0
C1539 C 0.48907 0.0022 0.21064 0.0
C1540 C 0.50756 0.00764 0.20087 0.0
C1541 C 0.50857 0.01012 0.18031 0.0
C1542 C 0.63376 0.04425 0.12601 0.0
C1543 C 0.6139 0.03092 0.11424 0.0
O1544 O 0.41959 0.97189 0.27957 0.0
O1545 O 0.42561 0.00152 0.10305 0.0
O1546 O 0.6029 0.04116 0.11298 0.0
O1547 O 0.58781 0.02477 0.28601 0.0
H1548 H 0.43722 0.98775 0.30378 0.0
H1549 H 0.43215 0.95237 0.30264 0.0
H1550 H 0.40484 0.94155 0.30496 0.0
H1551 H 0.42213 0.95696 0.32473 0.0
H1552 H 0.44851 0.01069 0.27623 0.0
H1553 H 0.42537 0.94897 0.25486 0.0
H1554 H 0.49682 0.03233 0.26194 0.0
H1555 H 0.47699 0.03907 0.26195 0.0
H1556 H 0.48656 0.03505 0.23914 0.0
H1557 H 0.44379 0.93984 0.23322 0.0
H1558 H 0.47113 0.95721 0.23281 0.0
H1559 H 0.45485 0.95859 0.21437 0.0
H1560 H 0.56754 0.00377 0.30529 0.0
H1561 H 0.58408 0.02606 0.33453 0.0
H1562 H 0.57685 0.03872 0.3166 0.0
H1563 H 0.60338 0.04567 0.31948 0.0
H1564 H 0.55977 0.98769 0.27305 0.0
H1565 H 0.58417 0.05249 0.26745 0.0
H1566 H 0.51301 0.96985 0.25406 0.0
H1567 H 0.53291 0.96331 0.25227 0.0
H1568 H 0.52533 0.97232 0.23116 0.0
H1569 H 0.56763 0.06621 0.24873 0.0
H1570 H 0.54053 0.04942 0.2441 0.0
H1571 H 0.55853 0.05219 0.22581 0.0
H1572 H 0.60538 0.01651 0.12256 0.0
H1573 H 0.57185 0.00243 0.1159 0.0
H1574 H 0.59171 0.06622 0.12626 0.0
H1575 H 0.53201 0.98195 0.14858 0.0
H1576 H 0.53989 0.97583 0.1258 0.0
H1577 H 0.52014 0.98278 0.12608 0.0
H1578 H 0.57073 0.07727 0.14132 0.0
H1579 H 0.55636 0.06049 0.16085 0.0
H1580 H 0.54351 0.05972 0.13843 0.0
H1581 H 0.42411 0.02769 0.10878 0.0
H1582 H 0.38966 0.00872 0.12406 0.0
H1583 H 0.40795 0.00365 0.13613 0.0
H1584 H 0.38899 0.98458 0.11952 0.0
H1585 H 0.43531 0.97356 0.10769 0.0
H1586 H 0.45264 0.03586 0.1233 0.0
H1587 H 0.46517 0.96732 0.14407 0.0
H1588 H 0.4798 0.97487 0.12221 0.0
H1589 H 0.45252 0.95724 0.12063 0.0
H1590 H 0.48167 0.05728 0.14237 0.0
H1591 H 0.50178 0.05089 0.14139 0.0
H1592 H 0.48512 0.04332 0.16186 0.0
H1593 H 0.50493 0.00117 0.25728 0.0
H1594 H 0.55668 0.01768 0.20929 0.0
H1595 H 0.55838 0.02182 0.17455 0.0
H1596 H 0.51155 0.01755 0.12397 0.0
H1597 H 0.45937 -0.00013 0.17192 0.0
H1598 H 0.45769 0.99569 0.20668 0.0
H1599 H 0.64294 0.03641 0.12689 0.0
H1600 H 0.63006 0.04678 0.14111 0.0
H1601 H 0.64316 0.05949 0.11932 0.0
C1602 C 0.55466 0.98163 0.69333 0.0
C1603 C 0.56905 0.99688 0.70903 0.0
C1604 C 0.55499 0.99222 0.74165 0.0
C1605 C 0.5612 0.01266 0.74699 0.0
C1606 C 0.55047 0.01711 0.76106 0.0
C1607 C 0.53321 0.00078 0.76989 0.0
C1608 C 0.52764 0.98015 0.76527 0.0
C1609 C 0.53887 0.97617 0.75139 0.0
C1610 C 0.55713 0.03926 0.76601 0.0
C1611 C 0.50926 0.96231 0.77428 0.0
C1612 C 0.39789 0.00218 0.71708 0.0
C1613 C 0.41061 0.99661 0.72956 0.0
C1614 C 0.44437 0.012 0.74546 0.0
C1615 C 0.44026 0.99415 0.75551 0.0
C1616 C 0.45518 0.9939 0.76772 0.0
C1617 C 0.47448 0.012 0.77033 0.0
C1618 C 0.47852 0.03012 0.76063 0.0
C1619 C 0.46342 0.02983 0.74822 0.0
C1620 C 0.45042 0.97411 0.77747 0.0
C1621 C 0.49889 0.04968 0.76316 0.0
C1622 C 0.43887 0.00612 0.89619 0.0
C1623 C 0.43518 0.98909 0.88432 0.0
C1624 C 0.45119 0.98874 0.87436 0.0
C1625 C 0.47119 0.00607 0.87568 0.0
C1626 C 0.47496 0.02327 0.88751 0.0
C1627 C 0.45877 0.02294 0.89779 0.0
C1628 C 0.44663 0.96979 0.86238 0.0
C1629 C 0.49605 0.04206 0.88914 0.0
C1630 C 0.59216 0.96939 0.89052 0.0
C1631 C 0.58695 0.98298 0.90331 0.0
C1632 C 0.5541 0.98066 0.89549 0.0
C1633 C 0.53486 0.96598 0.888 0.0
C1634 C 0.52236 0.97188 0.87796 0.0
C1635 C 0.52922 0.99304 0.87568 0.0
C1636 C 0.5483 0.008 0.88399 0.0
C1637 C 0.56053 0.00166 0.89391 0.0
C1638 C 0.50194 0.9555 0.86958 0.0
C1639 C 0.55578 0.03067 0.88224 0.0
C1640 C 0.51957 0.00518 0.78198 0.0
C1641 C 0.50518 0.00842 0.77205 0.0
C1642 C 0.49082 0.01139 0.78211 0.0
C1643 C 0.49097 0.01156 0.80277 0.0
C1644 C 0.47704 0.01499 0.81337 0.0
C1645 C 0.47641 0.01378 0.83364 0.0
C1646 C 0.48958 0.00893 0.84405 0.0
C1647 C 0.48802 0.00614 0.8645 0.0
C1648 C 0.50151 0.00156 0.87441 0.0
C1649 C 0.51646 0.99942 0.86443 0.0
C1650 C 0.51812 0.00194 0.84395 0.0
C1651 C 0.53284 0.99968 0.83339 0.0
C1652 C 0.53368 0.0012 0.81312 0.0
C1653 C 0.5197 0.00483 0.80264 0.0
C1654 C 0.5052 0.00785 0.81305 0.0
C1655 C 0.50446 0.00647 0.83372 0.0
C1656 C 0.39424 0.99876 0.88655 0.0
C1657 C 0.40288 0.99381 0.90472 0.0
O1658 O 0.56409 0.98752 0.72705 0.0
O1659 O 0.56583 0.97399 0.90442 0.0
O1660 O 0.42389 0.00704 0.90635 0.0
O1661 O 0.4305 0.01254 0.73296 0.0
H1662 H 0.56665 0.01034 0.70888 0.0
H1663 H 0.53855 0.97706 0.69663 0.0
H1664 H 0.55605 0.96758 0.69281 0.0
H1665 H 0.5583 0.98881 0.67874 0.0
H1666 H 0.57428 0.0251 0.74002 0.0
H1667 H 0.53448 0.96046 0.74736 0.0
H1668 H 0.54578 0.04304 0.7598 0.0
H1669 H 0.57242 0.05006 0.76008 0.0
H1670 H 0.55764 0.04165 0.78212 0.0
H1671 H 0.5067 0.9472 0.76876 0.0
H1672 H 0.49529 0.96328 0.77108 0.0
H1673 H 0.51137 0.96305 0.79041 0.0
H1674 H 0.40983 0.98185 0.72518 0.0
H1675 H 0.39426 0.9923 0.70343 0.0
H1676 H 0.40882 0.01692 0.70972 0.0
H1677 H 0.37518 -0.00021 0.73604 0.0
H1678 H 0.42556 0.98024 0.7537 0.0
H1679 H 0.46644 0.04355 0.74051 0.0
H1680 H 0.44989 0.97599 0.79354 0.0
H1681 H 0.46266 0.97035 0.77454 0.0
H1682 H 0.43549 0.96092 0.7724 0.0
H1683 H 0.49877 0.06305 0.75654 0.0
H1684 H 0.51099 0.04763 0.75613 0.0
H1685 H 0.50303 0.05313 0.77894 0.0
H1686 H 0.39952 0.97764 0.90345 0.0
H1687 H 0.41995 0.9759 0.88272 0.0
H1688 H 0.46152 0.03602 0.90696 0.0
H1689 H 0.44696 0.97312 0.8466 0.0
H1690 H 0.43133 0.95647 0.86554 0.0
H1691 H 0.45844 0.96538 0.86524 0.0
H1692 H 0.49611 0.05481 0.89766 0.0
H1693 H 0.50196 0.04756 0.87433 0.0
H1694 H 0.50673 0.03798 0.8964 0.0
H1695 H 0.59371 0.99804 0.89596 0.0
H1696 H 0.60905 0.9762 0.88975 0.0
H1697 H 0.58599 0.96823 0.87545 0.0
H1698 H 0.58537 0.95361 0.89629 0.0
H1699 H 0.52988 0.94982 0.88965 0.0
H1700 H 0.57496 0.01313 0.90056 0.0
H1701 H 0.50153 0.95715 0.8535 0.0
H1702 H 0.48947 0.95749 0.87582 0.0
H1703 H 0.49881 0.93971 0.87264 0.0
H1704 H 0.57081 0.04042 0.88981 0.0
H1705 H 0.54437 0.03427 0.88853 0.0
H1706 H 0.5573 0.03472 0.86656 0.0
H1707 H 0.50473 0.00794 0.75617 0.0
H1708 H 0.46631 0.01841 0.80607 0.0
H1709 H 0.46523 0.01636 0.84103 0.0
H1710 H 0.49996 0.99903 0.89003 0.0
H1711 H 0.54375 0.9965 0.84066 0.0
H1712 H 0.54519 0.99916 0.8057 0.0
H1713 H 0.37738 0.98834 0.88534 0.0
H1714 H 0.40121 0.99658 0.87317 0.0
H1715 H 0.3976 0.01496 0.88726 0.0
C1716 C 0.99714 0.5628 0.7039 0.0
C1717 C 0.98855 0.57039 0.72017 0.0
C1718 C 0.99919 0.56135 0.75038 0.0
C1719 C 0.98026 0.54685 0.75796 0.0
C1720 C 0.97902 0.53239 0.77143 0.0
C1721 C 0.99711 0.53251 0.77742 0.0
C1722 C 0.01629 0.54755 0.77026 0.0
C1723 C 0.01709 0.562 0.757 0.0
C1724 C 0.95839 0.51685 0.77914 0.0
C1725 C 0.03587 0.54808 0.7763 0.0
C1726 C 0.94556 0.37817 0.75804 0.0
C1727 C 0.96172 0.3939 0.74447 0.0
C1728 C 0.98055 0.42619 0.76378 0.0
C1729 C -9e-05 0.4406 0.77121 0.0
C1730 C 0.00341 0.45896 0.78031 0.0
C1731 C 0.98683 0.4626 0.78267 0.0
C1732 C 0.96715 0.4481 0.77515 0.0
C1733 C 0.96425 0.43015 0.76557 0.0
C1734 C 0.02483 0.47438 0.78742 0.0
C1735 C 0.94914 0.4515 0.77731 0.0
C1736 C 0.0095 0.44767 0.9079 0.0
C1737 C 0.02571 0.46067 0.89585 0.0
C1738 C 0.02494 0.47617 0.88532 0.0
C1739 C 0.0075 0.47857 0.88666 0.0
C1740 C 0.99132 0.46575 0.89901 0.0
C1741 C 0.99263 0.45055 0.90958 0.0
C1742 C 0.04266 0.4898 0.87252 0.0
C1743 C 0.97251 0.46784 0.90074 0.0
C1744 C 0.04451 0.64126 0.88926 0.0
C1745 C 0.03002 0.62056 0.89837 0.0
C1746 C 0.03302 0.5897 0.89561 0.0
C1747 C 0.04709 0.58366 0.89025 0.0
C1748 C 0.04048 0.56366 0.8831 0.0
C1749 C 0.01924 0.54928 0.88168 0.0
C1750 C 0.00494 0.55491 0.88828 0.0
C1751 C 0.01198 0.57509 0.89519 0.0
C1752 C 0.05616 0.55809 0.87644 0.0
C1753 C 0.98222 0.53974 0.8875 0.0
C1754 C 0.99581 0.51631 0.79045 0.0
C1755 C 0.99159 0.4976 0.78177 0.0
C1756 C 0.99014 0.48156 0.79301 0.0
C1757 C 0.99278 0.4841 0.81355 0.0
C1758 C 0.99077 0.46806 0.82537 0.0
C1759 C 0.99469 0.47113 0.8454 0.0
C1760 C 0.00068 0.49033 0.8544 0.0
C1761 C 0.00597 0.494 0.87454 0.0
C1762 C 0.01139 0.51312 0.88313 0.0
C1763 C 0.01202 0.52891 0.87203 0.0
C1764 C 0.00717 0.52565 0.85178 0.0
C1765 C 0.00802 0.54133 0.84009 0.0
C1766 C 0.00392 0.5382 0.82006 0.0
C1767 C 0.9991 0.51938 0.81091 0.0
C1768 C 0.99771 0.50323 0.82247 0.0
C1769 C 0.00167 0.50635 0.84293 0.0
C1770 C 0.01855 0.41196 0.8976 0.0
C1771 C 0.02276 0.42461 0.91665 0.0
O1772 O 0.00073 0.57511 0.73692 0.0
O1773 O 0.04028 0.60972 0.90085 0.0
O1774 O 0.00933 0.43214 0.91805 0.0
O1775 O 0.97837 0.40871 0.75526 0.0
H1776 H 0.9727 0.55782 0.72295 0.0
H1777 H 0.99692 0.54855 0.70845 0.0
H1778 H 0.01319 0.57459 0.70073 0.0
H1779 H 0.98762 0.55921 0.69033 0.0
H1780 H 0.96645 0.54691 0.75355 0.0
H1781 H 0.03165 0.5735 0.75126 0.0
H1782 H 0.95446 0.50119 0.77397 0.0
H1783 H 0.94601 0.51982 0.77429 0.0
H1784 H 0.95899 0.51705 0.79538 0.0
H1785 H 0.04946 0.56037 0.76892 0.0
H1786 H 0.03465 0.53301 0.77278 0.0
H1787 H 0.0383 0.55071 0.79235 0.0
H1788 H 0.95469 0.40136 0.73594 0.0
H1789 H 0.93244 0.36609 0.74927 0.0
H1790 H 0.9396 0.38569 0.76796 0.0
H1791 H 0.9522 0.37076 0.76718 0.0
H1792 H 0.01241 0.43748 0.76967 0.0
H1793 H 0.94916 0.41926 0.75981 0.0
H1794 H 0.02877 0.49022 0.78348 0.0
H1795 H 0.03648 0.47107 0.78124 0.0
H1796 H 0.0257 0.47392 0.80359 0.0
H1797 H 0.93438 0.43763 0.77297 0.0
H1798 H 0.95133 0.46437 0.76796 0.0
H1799 H 0.94814 0.45586 0.79268 0.0
H1800 H 0.0388 0.43765 0.91699 0.0
H1801 H 0.03897 0.45881 0.89445 0.0
H1802 H 0.98024 0.44053 0.91898 0.0
H1803 H 0.03788 0.48587 0.85693 0.0
H1804 H 0.05621 0.48796 0.8752 0.0
H1805 H 0.04724 0.50621 0.87505 0.0
H1806 H 0.96087 0.4561 0.91035 0.0
H1807 H 0.96546 0.46635 0.88603 0.0
H1808 H 0.97694 0.48336 0.90677 0.0
H1809 H 0.01712 0.61238 0.88761 0.0
H1810 H 0.03668 0.65036 0.88739 0.0
H1811 H 0.0492 0.63866 0.87464 0.0
H1812 H 0.05854 0.65029 0.8985 0.0
H1813 H 0.0633 0.59495 0.89098 0.0
H1814 H 0.00103 0.57944 0.90011 0.0
H1815 H 0.05337 0.55321 0.86078 0.0
H1816 H 0.05461 0.5449 0.8849 0.0
H1817 H 0.07211 0.57111 0.87832 0.0
H1818 H 0.97325 0.54584 0.89493 0.0
H1819 H 0.97902 0.52518 0.89445 0.0
H1820 H 0.97691 0.53603 0.87201 0.0
H1821 H 0.98962 0.49556 0.766 0.0
H1822 H 0.98639 0.45301 0.81922 0.0
H1823 H 0.99317 0.45829 0.85371 0.0
H1824 H 0.01569 0.51593 0.89853 0.0
H1825 H 0.01199 0.55626 0.84625 0.0
H1826 H 0.0049 0.55083 0.81179 0.0
H1827 H 0.00248 0.39897 0.89701 0.0
H1828 H 0.02911 0.40569 0.89652 0.0
H1829 H 0.02098 0.42169 0.88473 0.0
C1830 C 0.54611 0.58456 0.70176 0.0
C1831 C 0.56144 0.59356 0.71904 0.0
C1832 C 0.54533 0.56621 0.74322 0.0
C1833 C 0.52944 0.57007 0.74818 0.0
C1834 C 0.51392 0.55716 0.76084 0.0
C1835 C 0.51412 0.53993 0.76866 0.0
C1836 C 0.53021 0.53616 0.76399 0.0
C1837 C 0.54568 0.54945 0.75143 0.0
C1838 C 0.49705 0.56172 0.7656 0.0
C1839 C 0.53082 0.51785 0.77198 0.0
C1840 C 0.39357 0.4483 0.69401 0.0
C1841 C 0.40088 0.43974 0.71041 0.0
C1842 C 0.41197 0.45701 0.74226 0.0
C1843 C 0.42717 0.45212 0.74695 0.0
C1844 C 0.44289 0.46428 0.76051 0.0
C1845 C 0.4435 0.48177 0.76932 0.0
C1846 C 0.42769 0.48621 0.76514 0.0
C1847 C 0.41186 0.47346 0.75191 0.0
C1848 C 0.45922 0.45881 0.76495 0.0
C1849 C 0.42797 0.50491 0.77396 0.0
C1850 C 0.4135 0.46739 0.903 0.0
C1851 C 0.42434 0.4586 0.89476 0.0
C1852 C 0.44011 0.46961 0.88152 0.0
C1853 C 0.44465 0.48959 0.87611 0.0
C1854 C 0.4332 0.49816 0.88406 0.0
C1855 C 0.418 0.48707 0.89771 0.0
C1856 C 0.4524 0.46023 0.87391 0.0
C1857 C 0.4374 0.51931 0.87862 0.0
C1858 C 0.58409 0.62486 0.8953 0.0
C1859 C 0.57244 0.61096 0.91226 0.0
C1860 C 0.54979 0.57692 0.8967 0.0
C1861 C 0.54697 0.5572 0.89384 0.0
C1862 C 0.53019 0.54209 0.88292 0.0
C1863 C 0.5158 0.54685 0.87477 0.0
C1864 C 0.51847 0.56676 0.87762 0.0
C1865 C 0.53553 0.58167 0.88844 0.0
C1866 C 0.52784 0.52105 0.88003 0.0
C1867 C 0.50329 0.57227 0.8692 0.0
C1868 C 0.49681 0.52526 0.78075 0.0
C1869 C 0.47915 0.51028 0.77095 0.0
C1870 C 0.46175 0.49658 0.78114 0.0
C1871 C 0.46188 0.49768 0.8018 0.0
C1872 C 0.44463 0.48422 0.81255 0.0
C1873 C 0.44477 0.48583 0.83288 0.0
C1874 C 0.46232 0.50066 0.84325 0.0
C1875 C 0.46271 0.50247 0.86391 0.0
C1876 C 0.48046 0.51746 0.87364 0.0
C1877 C 0.49785 0.53096 0.86338 0.0
C1878 C 0.4978 0.52946 0.84278 0.0
C1879 C 0.51508 0.54287 0.83204 0.0
C1880 C 0.5148 0.54155 0.81173 0.0
C1881 C 0.4973 0.52661 0.8014 0.0
C1882 C 0.47975 0.51278 0.81195 0.0
C1883 C 0.47998 0.51423 0.83268 0.0
C1884 C 0.36397 0.44444 0.91076 0.0
C1885 C 0.38112 0.43936 0.91363 0.0
O1886 O 0.56035 0.57795 0.73048 0.0
O1887 O 0.56646 0.5907 0.90744 0.0
O1888 O 0.39942 0.45756 0.91691 0.0
O1889 O 0.39743 0.44635 0.72826 0.0
H1890 H 0.5577 0.60365 0.72804 0.0
H1891 H 0.53017 0.57599 0.70706 0.0
H1892 H 0.54891 0.57381 0.69275 0.0
H1893 H 0.54742 0.59711 0.69238 0.0
H1894 H 0.52881 0.58296 0.74214 0.0
H1895 H 0.55797 0.54658 0.74764 0.0
H1896 H 0.48233 0.54941 0.75913 0.0
H1897 H 0.50008 0.57674 0.75988 0.0
H1898 H 0.49519 0.56182 0.78168 0.0
H1899 H 0.54423 0.51688 0.76676 0.0
H1900 H 0.51658 0.50346 0.76755 0.0
H1901 H 0.53146 0.5188 0.7882 0.0
H1902 H 0.41762 0.44607 0.70833 0.0
H1903 H 0.3964 0.44343 0.67951 0.0
H1904 H 0.40211 0.46538 0.69495 0.0
H1905 H 0.37693 0.44284 0.69521 0.0
H1906 H 0.42682 0.43893 0.73989 0.0
H1907 H 0.39986 0.47687 0.74831 0.0
H1908 H 0.46221 0.45969 0.78097 0.0
H1909 H 0.47372 0.47006 0.75801 0.0
H1910 H 0.45487 0.44314 0.75939 0.0
H1911 H 0.41528 0.50693 0.76816 0.0
H1912 H 0.44277 0.51897 0.77094 0.0
H1913 H 0.4266 0.50349 0.79006 0.0
H1914 H 0.38201 0.43145 0.90006 0.0
H1915 H 0.4209 0.44344 0.89925 0.0
H1916 H 0.40955 0.4937 0.90432 0.0
H1917 H 0.45035 0.45803 0.85781 0.0
H1918 H 0.44777 0.44511 0.88049 0.0
H1919 H 0.46897 0.47079 0.87708 0.0
H1920 H 0.42485 0.52211 0.88309 0.0
H1921 H 0.43946 0.5214 0.8626 0.0
H1922 H 0.45181 0.53109 0.88602 0.0
H1923 H 0.55873 0.61231 0.91547 0.0
H1924 H 0.58884 0.64113 0.89898 0.0
H1925 H 0.57417 0.6202 0.88194 0.0
H1926 H 0.59795 0.62378 0.89206 0.0
H1927 H 0.55807 0.55371 0.9002 0.0
H1928 H 0.53753 0.59689 0.89028 0.0
H1929 H 0.52671 0.51716 0.86417 0.0
H1930 H 0.51342 0.50933 0.88677 0.0
H1931 H 0.54086 0.52006 0.8866 0.0
H1932 H 0.50699 0.5881 0.87353 0.0
H1933 H 0.48762 0.56123 0.87414 0.0
H1934 H 0.50312 0.57109 0.853 0.0
H1935 H 0.47881 0.50949 0.75509 0.0
H1936 H 0.43076 0.4724 0.80533 0.0
H1937 H 0.43097 0.47527 0.84039 0.0
H1938 H 0.48066 0.51886 0.88947 0.0
H1939 H 0.52901 0.55464 0.83922 0.0
H1940 H 0.52848 0.55237 0.80422 0.0
H1941 H 0.36248 0.45221 0.92408 0.0
H1942 H 0.34909 0.43025 0.90754 0.0
H1943 H 0.3675 0.45487 0.89823 0.0
C1944 C 0.66481 0.75788 0.65735 0.0
C1945 C 0.64906 0.75444 0.63992 0.0
C1946 C 0.65364 0.76686 0.60682 0.0
C1947 C 0.63367 0.76325 0.60354 0.0
C1948 C 0.62968 0.77436 0.58959 0.0
C1949 C 0.64603 0.78955 0.57881 0.0
C1950 C 0.66599 0.79244 0.58131 0.0
C1951 C 0.66948 0.7808 0.59514 0.0
C1952 C 0.60808 0.77038 0.58689 0.0
C1953 C 0.68375 0.80842 0.56997 0.0
C1954 C 0.60979 0.90102 0.61011 0.0
C1955 C 0.63016 0.90426 0.61863 0.0
C1956 C 0.64109 0.88604 0.59575 0.0
C1957 C 0.65663 0.88875 0.58311 0.0
C1958 C 0.65645 0.87191 0.57376 0.0
C1959 C 0.63977 0.85184 0.57654 0.0
C1960 C 0.62403 0.84892 0.58948 0.0
C1961 C 0.62503 0.86601 0.59921 0.0
C1962 C 0.67404 0.87568 0.56079 0.0
C1963 C 0.60604 0.82777 0.59296 0.0
C1964 C 0.60916 0.86264 0.4517 0.0
C1965 C 0.62937 0.86784 0.45645 0.0
C1966 C 0.63344 0.85419 0.46675 0.0
C1967 C 0.61694 0.83502 0.47247 0.0
C1968 C 0.59661 0.82948 0.46707 0.0
C1969 C 0.59302 0.84331 0.45653 0.0
C1970 C 0.65537 0.86031 0.47164 0.0
C1971 C 0.57867 0.80912 0.47274 0.0
C1972 C 0.61273 0.69509 0.45108 0.0
C1973 C 0.61786 0.7108 0.43499 0.0
C1974 C 0.63013 0.74433 0.45207 0.0
C1975 C 0.64748 0.76357 0.45566 0.0
C1976 C 0.64627 0.77903 0.46626 0.0
C1977 C 0.62718 0.77502 0.4736 0.0
C1978 C 0.60951 0.75557 0.47008 0.0
C1979 C 0.61113 0.74037 0.45933 0.0
C1980 C 0.66541 0.79965 0.46967 0.0
C1981 C 0.58896 0.75086 0.47781 0.0
C1982 C 0.64251 0.80367 0.5665 0.0
C1983 C 0.6431 0.82066 0.57585 0.0
C1984 C 0.63863 0.83398 0.56568 0.0
C1985 C 0.63338 0.83033 0.54553 0.0
C1986 C 0.62796 0.8429 0.53499 0.0
C1987 C 0.62365 0.83973 0.51501 0.0
C1988 C 0.62452 0.8238 0.5048 0.0
C1989 C 0.62093 0.82093 0.48434 0.0
C1990 C 0.62161 0.80475 0.47471 0.0
C1991 C 0.6258 0.79125 0.48495 0.0
C1992 C 0.6295 0.79389 0.50539 0.0
C1993 C 0.6337 0.78055 0.51615 0.0
C1994 C 0.63775 0.78356 0.5362 0.0
C1995 C 0.63798 0.80017 0.54621 0.0
C1996 C 0.63349 0.81363 0.53569 0.0
C1997 C 0.6291 0.81039 0.51529 0.0
C1998 C 0.59916 0.90291 0.45272 0.0
C1999 C 0.61458 0.89693 0.44525 0.0
O2000 O 0.65814 0.7579 0.62174 0.0
O2001 O 0.63267 0.73019 0.44175 0.0
O2002 O 0.60469 0.87576 0.4423 0.0
O2003 O 0.64215 0.90318 0.60396 0.0
H2004 H 0.64341 0.76551 0.64244 0.0
H2005 H 0.6731 0.77517 0.65898 0.0
H2006 H 0.67756 0.75662 0.65021 0.0
H2007 H 0.6456 0.73341 0.68672 0.0
H2008 H 0.62122 0.75204 0.61216 0.0
H2009 H 0.6848 0.78332 0.59761 0.0
H2010 H 0.6072 0.78379 0.5927 0.0
H2011 H 0.59673 0.75642 0.59456 0.0
H2012 H 0.60383 0.76854 0.5711 0.0
H2013 H 0.69823 0.80845 0.57323 0.0
H2014 H 0.68603 0.82392 0.57357 0.0
H2015 H 0.68028 0.80556 0.55405 0.0
H2016 H 0.62678 0.89208 0.62941 0.0
H2017 H 0.60064 0.90275 0.62186 0.0
H2018 H 0.60055 0.88539 0.60348 0.0
H2019 H 0.61248 0.91232 0.59858 0.0
H2020 H 0.66907 0.90423 0.58066 0.0
H2021 H 0.61303 0.86352 0.60921 0.0
H2022 H 0.66913 0.87437 0.54524 0.0
H2023 H 0.67876 0.86403 0.56323 0.0
H2024 H 0.68755 0.89125 0.56338 0.0
H2025 H 0.5936 0.82844 0.60091 0.0
H2026 H 0.61128 0.81894 0.60181 0.0
H2027 H 0.59969 0.81924 0.57887 0.0
H2028 H 0.62667 0.90197 0.4569 0.0
H2029 H 0.64198 0.88245 0.45199 0.0
H2030 H 0.57751 0.83933 0.45248 0.0
H2031 H 0.65803 0.86277 0.48768 0.0
H2032 H 0.6665 0.87466 0.46434 0.0
H2033 H 0.65837 0.84777 0.46721 0.0
H2034 H 0.56373 0.80761 0.46838 0.0
H2035 H 0.57895 0.80731 0.4888 0.0
H2036 H 0.57989 0.79639 0.46563 0.0
H2037 H 0.60379 0.71108 0.43045 0.0
H2038 H 0.60089 0.67952 0.44573 0.0
H2039 H 0.60666 0.69924 0.46401 0.0
H2040 H 0.62666 0.69462 0.45575 0.0
H2041 H 0.66205 0.76645 0.45003 0.0
H2042 H 0.59757 0.72551 0.45683 0.0
H2043 H 0.66857 0.80279 0.48561 0.0
H2044 H 0.66307 0.81201 0.46369 0.0
H2045 H 0.67904 0.80041 0.46275 0.0
H2046 H 0.57666 0.73493 0.47396 0.0
H2047 H 0.58463 0.76185 0.4718 0.0
H2048 H 0.58998 0.7529 0.49397 0.0
H2049 H 0.6469 0.82344 0.59135 0.0
H2050 H 0.62709 0.85545 0.54204 0.0
H2051 H 0.61976 0.85002 0.50766 0.0
H2052 H 0.61907 0.80276 0.459 0.0
H2053 H 0.63395 0.76764 0.50917 0.0
H2054 H 0.64093 0.77286 0.54374 0.0
H2055 H 0.58622 0.89806 0.4421 0.0
H2056 H 0.60676 0.91983 0.45525 0.0
H2057 H 0.59286 0.89529 0.4668 0.0
C2058 C 0.11514 0.73007 0.65426 0.0
C2059 C 0.10593 0.73802 0.63905 0.0
C2060 C 0.1225 0.75096 0.60802 0.0
C2061 C 0.11789 0.76669 0.60529 0.0
C2062 C 0.1298 0.78313 0.59305 0.0
C2063 C 0.14678 0.78391 0.58355 0.0
C2064 C 0.15105 0.7677 0.58586 0.0
C2065 C 0.13856 0.7512 0.59781 0.0
C2066 C 0.12447 0.79985 0.59053 0.0
C2067 C 0.16913 0.76806 0.57616 0.0
C2068 C 0.28179 0.93513 0.62693 0.0
C2069 C 0.27044 0.91527 0.61569 0.0
C2070 C 0.23534 0.88891 0.60685 0.0
C2071 C 0.2405 0.87577 0.59668 0.0
C2072 C 0.2256 0.85863 0.5859 0.0
C2073 C 0.20527 0.85497 0.58463 0.0
C2074 C 0.20003 0.86817 0.59488 0.0
C2075 C 0.2151 0.88479 0.6061 0.0
C2076 C 0.23166 0.84443 0.57591 0.0
C2077 C 0.17855 0.86479 0.59393 0.0
C2078 C 0.23646 0.8856 0.45731 0.0
C2079 C 0.24043 0.87119 0.46631 0.0
C2080 C 0.2252 0.85494 0.47686 0.0
C2081 C 0.20571 0.85321 0.47869 0.0
C2082 C 0.20168 0.86769 0.46971 0.0
C2083 C 0.21711 0.88365 0.45907 0.0
C2084 C 0.22995 0.83961 0.48608 0.0
C2085 C 0.1811 0.86634 0.47147 0.0
C2086 C 0.07645 0.69665 0.4509 0.0
C2087 C 0.08492 0.71906 0.44522 0.0
C2088 C 0.11898 0.74687 0.45577 0.0
C2089 C 0.1381 0.75007 0.4619 0.0
C2090 C 0.15181 0.76778 0.47275 0.0
C2091 C 0.14627 0.78276 0.47734 0.0
C2092 C 0.12725 0.78002 0.47054 0.0
C2093 C 0.1138 0.76212 0.45972 0.0
C2094 C 0.17212 0.77039 0.4795 0.0
C2095 C 0.12114 0.79598 0.4748 0.0
C2096 C 0.16068 0.80218 0.57208 0.0
C2097 C 0.17543 0.81968 0.58239 0.0
C2098 C 0.18951 0.83729 0.57267 0.0
C2099 C 0.18897 0.83751 0.552 0.0
C2100 C 0.20276 0.85501 0.54171 0.0
C2101 C 0.20285 0.85469 0.52137 0.0
C2102 C 0.18899 0.83694 0.51054 0.0
C2103 C 0.18955 0.83615 0.48991 0.0
C2104 C 0.17524 0.81846 0.47956 0.0
C2105 C 0.16041 0.80129 0.48927 0.0
C2106 C 0.15982 0.80163 0.50993 0.0
C2107 C 0.14528 0.78452 0.5202 0.0
C2108 C 0.14529 0.78477 0.54055 0.0
C2109 C 0.15994 0.80208 0.55141 0.0
C2110 C 0.17433 0.81973 0.54135 0.0
C2111 C 0.17429 0.81948 0.52059 0.0
C2112 C 0.28411 0.91867 0.46205 0.0
C2113 C 0.27095 0.90713 0.44395 0.0
O2114 O 0.11191 0.73551 0.62059 0.0
O2115 O 0.10615 0.72904 0.44594 0.0
O2116 O 0.25066 0.90157 0.44686 0.0
O2117 O 0.24933 0.9056 0.61754 0.0
H2118 H 0.11228 0.75468 0.64268 0.0
H2119 H 0.13213 0.73897 0.65364 0.0
H2120 H 0.10999 0.71356 0.65147 0.0
H2121 H 0.11057 0.73198 0.6692 0.0
H2122 H 0.105 0.76611 0.61276 0.0
H2123 H 0.14179 0.73881 0.59989 0.0
H2124 H 0.13632 0.81416 0.59806 0.0
H2125 H 0.10931 0.79562 0.59669 0.0
H2126 H 0.12435 0.80322 0.57479 0.0
H2127 H 0.17143 0.75526 0.58089 0.0
H2128 H 0.18334 0.78289 0.57955 0.0
H2129 H 0.16673 0.76681 0.56006 0.0
H2130 H 0.27671 0.90475 0.61772 0.0
H2131 H 0.29117 0.93252 0.63823 0.0
H2132 H 0.27077 0.93538 0.63781 0.0
H2133 H 0.29512 0.95698 0.60512 0.0
H2134 H 0.25605 0.87859 0.59727 0.0
H2135 H 0.21123 0.89494 0.61405 0.0
H2136 H 0.22002 0.82809 0.57829 0.0
H2137 H 0.24682 0.84716 0.58123 0.0
H2138 H 0.23254 0.84696 0.55993 0.0
H2139 H 0.17762 0.8779 0.60055 0.0
H2140 H 0.16816 0.85067 0.60192 0.0
H2141 H 0.17293 0.86248 0.57852 0.0
H2142 H 0.27208 0.89311 0.44108 0.0
H2143 H 0.2553 0.87243 0.46523 0.0
H2144 H 0.21418 0.89483 0.45211 0.0
H2145 H 0.22961 0.8409 0.50224 0.0
H2146 H 0.24523 0.84209 0.48197 0.0
H2147 H 0.2181 0.8237 0.48163 0.0
H2148 H 0.18079 0.87951 0.46461 0.0
H2149 H 0.17716 0.8659 0.48712 0.0
H2150 H 0.16909 0.85184 0.46431 0.0
H2151 H 0.0791 0.72584 0.45625 0.0
H2152 H 0.05942 0.68831 0.45054 0.0
H2153 H 0.08172 0.69607 0.46598 0.0
H2154 H 0.08184 0.6887 0.4408 0.0
H2155 H 0.14208 0.73837 0.45847 0.0
H2156 H 0.0994 0.76021 0.45427 0.0
H2157 H 0.17336 0.77178 0.4957 0.0
H2158 H 0.18482 0.7848 0.47364 0.0
H2159 H 0.17412 0.7573 0.47472 0.0
H2160 H 0.10592 0.7917 0.4683 0.0
H2161 H 0.13279 0.81102 0.46897 0.0
H2162 H 0.12068 0.79804 0.49086 0.0
H2163 H 0.17613 0.8195 0.59824 0.0
H2164 H 0.21383 0.86908 0.54926 0.0
H2165 H 0.21401 0.86851 0.51424 0.0
H2166 H 0.17588 0.81791 0.46373 0.0
H2167 H 0.13381 0.77067 0.51262 0.0
H2168 H 0.13381 0.77113 0.54768 0.0
H2169 H 0.3004 0.92329 0.45959 0.0
H2170 H 0.27888 0.90867 0.47497 0.0
H2171 H 0.28309 0.93266 0.46538 0.0
C2172 C 0.11941 0.36533 0.6463 0.0
C2173 C 0.10481 0.36143 0.6289 0.0
C2174 C 0.12206 0.35289 0.60303 0.0
C2175 C 0.13806 0.37308 0.59998 0.0
C2176 C 0.15449 0.3768 0.58795 0.0
C2177 C 0.15508 0.36003 0.57892 0.0
C2178 C 0.13887 0.33973 0.58169 0.0
C2179 C 0.12245 0.33648 0.59354 0.0
C2180 C 0.17144 0.39867 0.58516 0.0
C2181 C 0.13914 0.32146 0.57252 0.0
C2182 C 0.27272 0.39012 0.65926 0.0
C2183 C 0.26564 0.37454 0.64218 0.0
C2184 C 0.25619 0.38104 0.61005 0.0
C2185 C 0.24133 0.36089 0.60452 0.0
C2186 C 0.22636 0.35724 0.5902 0.0
C2187 C 0.22615 0.37412 0.58147 0.0
C2188 C 0.24167 0.39445 0.5865 0.0
C2189 C 0.25677 0.3976 0.60048 0.0
C2190 C 0.21038 0.33536 0.58484 0.0
C2191 C 0.2418 0.41286 0.57777 0.0
C2192 C 0.26651 0.39066 0.45487 0.0
C2193 C 0.25166 0.3701 0.45822 0.0
C2194 C 0.23381 0.36533 0.46845 0.0
C2195 C 0.23072 0.38143 0.47533 0.0
C2196 C 0.24534 0.4021 0.47142 0.0
C2197 C 0.263 0.40641 0.46109 0.0
C2198 C 0.21824 0.34311 0.47196 0.0
C2199 C 0.24238 0.41961 0.47831 0.0
C2200 C 0.08599 0.3655 0.45842 0.0
C2201 C 0.09849 0.36951 0.43981 0.0
C2202 C 0.12522 0.36183 0.45069 0.0
C2203 C 0.13002 0.34615 0.45152 0.0
C2204 C 0.14677 0.34849 0.46273 0.0
C2205 C 0.15933 0.36728 0.47302 0.0
C2206 C 0.15497 0.38351 0.47178 0.0
C2207 C 0.13778 0.38053 0.46087 0.0
C2208 C 0.15092 0.33083 0.46371 0.0
C2209 C 0.16842 0.404 0.48206 0.0
C2210 C 0.17331 0.3637 0.56766 0.0
C2211 C 0.1905 0.36653 0.57822 0.0
C2212 C 0.20849 0.37057 0.56886 0.0
C2213 C 0.20943 0.37173 0.54825 0.0
C2214 C 0.22719 0.37554 0.5383 0.0
C2215 C 0.22811 0.37717 0.51804 0.0
C2216 C 0.21122 0.37484 0.50694 0.0
C2217 C 0.21204 0.37666 0.48637 0.0
C2218 C 0.19496 0.37419 0.47582 0.0
C2219 C 0.17689 0.36983 0.48521 0.0
C2220 C 0.17574 0.36796 0.50577 0.0
C2221 C 0.15778 0.36355 0.5157 0.0
C2222 C 0.15697 0.36225 0.53596 0.0
C2223 C 0.17395 0.36492 0.54705 0.0
C2224 C 0.19212 0.36902 0.53733 0.0
C2225 C 0.19302 0.37058 0.51666 0.0
C2226 C 0.31702 0.39973 0.45225 0.0
C2227 C 0.29476 0.38513 0.44578 0.0
O2228 O 0.10617 0.34847 0.61507 0.0
O2229 O 0.10842 0.35816 0.43991 0.0
O2230 O 0.28426 0.3959 0.44558 0.0
O2231 O 0.26993 0.38502 0.62478 0.0
H2232 H 0.10896 0.37636 0.62212 0.0
H2233 H 0.13556 0.37325 0.64152 0.0
H2234 H 0.11597 0.3506 0.65304 0.0
H2235 H 0.1179 0.37531 0.65754 0.0
H2236 H 0.13799 0.38603 0.60701 0.0
H2237 H 0.11003 0.32098 0.59588 0.0
H2238 H 0.18568 0.40104 0.59253 0.0
H2239 H 0.16762 0.4101 0.59129 0.0
H2240 H 0.17465 0.40159 0.56937 0.0
H2241 H 0.12576 0.30661 0.57674 0.0
H2242 H 0.15342 0.32159 0.57698 0.0
H2243 H 0.13909 0.32248 0.55636 0.0
H2244 H 0.24877 0.36437 0.64364 0.0
H2245 H 0.26921 0.38208 0.67341 0.0
H2246 H 0.26456 0.399 0.65855 0.0
H2247 H 0.28947 0.40108 0.6587 0.0
H2248 H 0.24133 0.34804 0.61152 0.0
H2249 H 0.26852 0.41309 0.60474 0.0
H2250 H 0.2082 0.33334 0.56872 0.0
H2251 H 0.19549 0.33187 0.59116 0.0
H2252 H 0.21456 0.3241 0.59044 0.0
H2253 H 0.25416 0.42763 0.58421 0.0
H2254 H 0.22683 0.412 0.58011 0.0
H2255 H 0.24402 0.41287 0.56177 0.0
H2256 H 0.28839 0.37292 0.45693 0.0
H2257 H 0.25385 0.35776 0.45271 0.0
H2258 H 0.2744 0.4222 0.45816 0.0
H2259 H 0.21628 0.34053 0.48792 0.0
H2260 H 0.22277 0.33235 0.46548 0.0
H2261 H 0.20315 0.33946 0.4656 0.0
H2262 H 0.25535 0.43486 0.47436 0.0
H2263 H 0.24077 0.41921 0.49444 0.0
H2264 H 0.22802 0.41781 0.47176 0.0
H2265 H 0.10994 0.38615 0.439 0.0
H2266 H 0.07793 0.37449 0.45852 0.0
H2267 H 0.09623 0.37023 0.47156 0.0
H2268 H 0.07448 0.34887 0.45939 0.0
H2269 H 0.12032 0.33182 0.44356 0.0
H2270 H 0.13443 0.39293 0.46038 0.0
H2271 H 0.15245 0.32747 0.47919 0.0
H2272 H 0.16564 0.33517 0.45652 0.0
H2273 H 0.13861 0.31662 0.45639 0.0
H2274 H 0.16472 0.41591 0.47741 0.0
H2275 H 0.18482 0.40952 0.47915 0.0
H2276 H 0.16633 0.40219 0.49808 0.0
H2277 H 0.18995 0.3658 0.59406 0.0
H2278 H 0.24062 0.37744 0.5461 0.0
H2279 H 0.24224 0.38031 0.51117 0.0
H2280 H 0.19574 0.37569 0.46005 0.0
H2281 H 0.14416 0.36119 0.50793 0.0
H2282 H 0.14283 0.35907 0.54283 0.0
H2283 H 0.32575 0.39141 0.45247 0.0
H2284 H 0.31746 0.40586 0.46723 0.0
H2285 H 0.32462 0.41292 0.44229 0.0
C2286 C 0.99554 0.37965 0.0666 0.0
C2287 C 0.98036 0.36293 0.05547 0.0
C2288 C 0.99045 0.38809 0.08246 0.0
C2289 C 0.96989 0.3805 0.08759 0.0
H2290 H 0.01159 0.38626 0.06315 0.0
H2291 H 0.00279 0.40074 0.09068 0.0
S2292 S 0.92441 0.33611 0.06396 0.0
N2293 N 0.94396 0.33837 0.05131 0.0
N2294 N 0.93433 0.35453 0.08099 0.0
C2295 C 0.95457 0.36348 0.07687 0.0
C2296 C 0.9598 0.35469 0.06082 0.0
C2297 C 0.63682 0.59624 0.06174 0.0
C2298 C 0.63076 0.61079 0.05796 0.0
C2299 C 0.6291 0.58315 0.07769 0.0
C2300 C 0.61514 0.58424 0.0905 0.0
H2301 H 0.64744 0.59479 0.05219 0.0
H2302 H 0.63409 0.57209 0.08003 0.0
S2303 S 0.59625 0.62136 0.08812 0.0
N2304 N 0.611 0.62646 0.06893 0.0
N2305 N 0.59694 0.60231 0.09916 0.0
C2306 C 0.60955 0.59928 0.08723 0.0
C2307 C 0.61718 0.61237 0.07085 0.0
C2308 C 0.38789 0.0238 0.06406 0.0
C2309 C 0.37854 0.0057 0.0524 0.0
C2310 C 0.39945 0.02539 0.08084 0.0
C2311 C 0.40217 0.00898 0.08663 0.0
H2312 H 0.38617 0.03682 0.0603 0.0
H2313 H 0.40619 0.03956 0.08949 0.0
S2314 S 0.37998 0.95781 0.06167 0.0
N2315 N 0.37233 0.97077 0.04807 0.0
N2316 N 0.39376 0.97368 0.07978 0.0
C2317 C 0.39267 0.99068 0.07522 0.0
C2318 C 0.38102 0.9891 0.05804 0.0
C2319 C 0.36575 0.97875 0.94718 0.0
C2320 C 0.37121 0.99768 0.95649 0.0
C2321 C 0.37611 0.97774 0.93069 0.0
C2322 C 0.39246 0.9956 0.92291 0.0
H2323 H 0.35334 0.96453 0.95264 0.0
H2324 H 0.37124 0.96281 0.92395 0.0
S2325 S 0.41216 0.04915 0.94124 0.0
N2326 N 0.39368 0.03486 0.95634 0.0
N2327 N 0.41303 0.03293 0.92525 0.0
C2328 C 0.39786 0.0147 0.93186 0.0
C2329 C 0.38733 0.01574 0.9487 0.0
C2330 C 0.99768 0.38629 0.95778 0.0
C2331 C 0.01379 0.38386 0.96527 0.0
C2332 C 0.00067 0.39943 0.94233 0.0
C2333 C 0.02004 0.41108 0.93393 0.0
H2334 H 0.98245 0.37775 0.96371 0.0
H2335 H 0.98761 0.40035 0.93687 0.0
S2336 S 0.06712 0.40967 0.94747 0.0
N2337 N 0.04969 0.39367 0.96262 0.0
N2338 N 0.05539 0.41864 0.93364 0.0
C2339 C 0.03626 0.40865 0.94111 0.0
C2340 C 0.03316 0.39508 0.9568 0.0
C2341 C 0.61094 0.6151 0.95176 0.0
C2342 C 0.61272 0.63106 0.96413 0.0
C2343 C 0.59808 0.60873 0.93513 0.0
C2344 C 0.58604 0.61769 0.93052 0.0
H2345 H 0.61985 0.60771 0.95472 0.0
H2346 H 0.59764 0.59671 0.92583 0.0
S2347 S 0.58533 0.66024 0.95812 0.0
N2348 N 0.6017 0.65597 0.97051 0.0
N2349 N 0.57714 0.64366 0.93946 0.0
C2350 C 0.58776 0.63372 0.94276 0.0
C2351 C 0.60111 0.64043 0.95954 0.0
C2352 C 0.03021 0.63789 0.95134 0.0
C2353 C 0.00988 0.63338 0.95385 0.0
C2354 C 0.03635 0.63303 0.93374 0.0
C2355 C 0.02248 0.62374 0.91787 0.0
H2356 H 0.04156 0.64551 0.96295 0.0
H2357 H 0.05223 0.63704 0.93235 0.0
S2358 S 0.96729 0.60794 0.91724 0.0
N2359 N 0.97564 0.61821 0.93928 0.0
N2360 N 0.98733 0.60952 0.90608 0.0
C2361 C 0.00199 0.61867 0.92037 0.0
C2362 C 0.99566 0.62337 0.93838 0.0
C2363 C 0.38002 0.41894 0.96523 0.0
C2364 C 0.36541 0.39792 0.96301 0.0
C2365 C 0.38515 0.43227 0.94943 0.0
C2366 C 0.37633 0.42493 0.93065 0.0
H2367 H 0.38726 0.42521 0.97937 0.0
H2368 H 0.39608 0.44843 0.95204 0.0
S2369 S 0.33775 0.37099 0.91705 0.0
N2370 N 0.3423 0.37033 0.94061 0.0
N2371 N 0.35244 0.39518 0.91084 0.0
C2372 C 0.36188 0.40386 0.92827 0.0
C2373 C 0.35634 0.39042 0.94442 0.0
C2374 C 0.62352 0.00818 0.94718 0.0
C2375 C 0.61735 0.992 0.96034 0.0
C2376 C 0.61337 0.00522 0.92914 0.0
C2377 C 0.59644 0.98605 0.92363 0.0
H2378 H 0.63672 0.02315 0.95055 0.0
H2379 H 0.61906 0.018 0.91926 0.0
S2380 S 0.57314 0.9391 0.9535 0.0
N2381 N 0.59263 0.95634 0.96706 0.0
N2382 N 0.57324 0.9509 0.93329 0.0
C2383 C 0.58964 0.96991 0.93696 0.0
C2384 C 0.60016 0.97286 0.95527 0.0
C2385 C 0.62012 0.00124 0.07144 0.0
C2386 C 0.63031 0.01647 0.05747 0.0
C2387 C 0.61444 0.00593 0.08939 0.0
C2388 C 0.61844 0.02596 0.09396 0.0
H2389 H 0.61712 0.9857 0.06881 0.0
H2390 H 0.60722 0.99385 0.09994 0.0
S2391 S 0.64299 0.07093 0.06162 0.0
N2392 N 0.64311 0.05212 0.04891 0.0
N2393 N 0.63199 0.06083 0.08248 0.0
C2394 C 0.62784 0.04113 0.07977 0.0
C2395 C 0.63387 0.03641 0.06157 0.0
C2396 C 0.00149 0.62017 0.06096 0.0
C2397 C 0.98455 0.61578 0.0488 0.0
C2398 C 0.99904 0.60993 0.07853 0.0
C2399 C 0.97959 0.59467 0.08457 0.0
H2400 H 0.01676 0.63211 0.05724 0.0
H2401 H 0.0125 0.61432 0.08766 0.0
S2402 S 0.93041 0.57631 0.05734 0.0
N2403 N 0.94771 0.59444 0.04357 0.0
N2404 N 0.94315 0.57491 0.07648 0.0
C2405 C 0.96258 0.58959 0.07221 0.0
C2406 C 0.96505 0.60018 0.05436 0.0
C2407 C 0.3872 0.38125 0.07295 0.0
C2408 C 0.3928 0.37603 0.05512 0.0
C2409 C 0.39783 0.38289 0.09041 0.0
C2410 C 0.41465 0.37964 0.09072 0.0
H2411 H 0.37391 0.3832 0.07363 0.0
H2412 H 0.3924 0.38607 0.10389 0.0
S2413 S 0.43688 0.36773 0.04772 0.0
N2414 N 0.41723 0.36909 0.03861 0.0
N2415 N 0.43737 0.37243 0.07143 0.0
C2416 C 0.4211 0.37547 0.07284 0.0
C2417 C 0.41016 0.37364 0.05505 0.0
C2418 C 0.65487 0.70647 0.39987 0.0
C2419 C 0.64197 0.69395 0.38444 0.0
C2420 C 0.64702 0.71158 0.41608 0.0
C2421 C 0.62595 0.70481 0.41734 0.0
H2422 H 0.67125 0.71233 0.39953 0.0
H2423 H 0.65763 0.72107 0.42765 0.0
S2424 S 0.58543 0.67057 0.38146 0.0
N2425 N 0.60692 0.67396 0.37189 0.0
N2426 N 0.59215 0.6839 0.40232 0.0
C2427 C 0.61279 0.69184 0.40225 0.0
C2428 C 0.62079 0.68642 0.38579 0.0
C2429 C 0.30048 0.93119 0.39739 0.0
C2430 C 0.29587 0.94679 0.39353 0.0
C2431 C 0.29216 0.91838 0.41343 0.0
C2432 C 0.27888 0.92066 0.42623 0.0
H2433 H 0.31068 0.92887 0.38801 0.0
H2434 H 0.29629 0.90669 0.41593 0.0
S2435 S 0.26289 0.95999 0.42322 0.0
N2436 N 0.27765 0.96424 0.40416 0.0
N2437 N 0.26226 0.94038 0.43444 0.0
C2438 C 0.27436 0.93641 0.42268 0.0
C2439 C 0.28272 0.94935 0.40626 0.0
C2440 C 0.06324 0.33869 0.39624 0.0
C2441 C 0.0571 0.35219 0.38887 0.0
C2442 C 0.07641 0.34418 0.41261 0.0
C2443 C 0.08443 0.36367 0.42191 0.0
H2444 H 0.05758 0.3236 0.38951 0.0
H2445 H 0.08031 0.33305 0.41796 0.0
S2446 S 0.07284 0.40451 0.40843 0.0
N2447 N 0.05964 0.38569 0.39232 0.0
N2448 N 0.08481 0.39622 0.42278 0.0
C2449 C 0.07829 0.37724 0.4147 0.0
C2450 C 0.0646 0.3715 0.39824 0.0
C2451 C 0.03478 0.29541 0.29075 0.0
C2452 C 0.03767 0.31541 0.2921 0.0
C2453 C 0.04203 0.28915 0.27477 0.0
C2454 C 0.05251 0.30267 0.25957 0.0
H2455 H 0.02696 0.28451 0.30217 0.0
H2456 H 0.03946 0.2736 0.27435 0.0
S2457 S 0.06294 0.35631 0.25551 0.0
N2458 N 0.05102 0.34848 0.27643 0.0
N2459 N 0.0645 0.33666 0.24642 0.0
C2460 C 0.05509 0.32257 0.26054 0.0
C2461 C 0.04777 0.32897 0.27681 0.0
C2462 C 0.68439 0.74879 0.30241 0.0
C2463 C 0.6971 0.73374 0.30439 0.0
C2464 C 0.69519 0.77165 0.28781 0.0
C2465 C 0.71706 0.77531 0.27232 0.0
H2466 H 0.6702 0.74404 0.3099 0.0
H2467 H 0.68701 0.77985 0.28527 0.0
S2468 S 0.75114 0.74574 0.278 0.0
N2469 N 0.7319 0.73153 0.29327 0.0
N2470 N 0.74957 0.76568 0.26891 0.0
C2471 C 0.73323 0.76379 0.2784 0.0
C2472 C 0.7214 0.74165 0.29312 0.0
C2473 C 0.26691 0.97795 0.30257 0.0
C2474 C 0.2803 0.97003 0.30368 0.0
C2475 C 0.2525 0.97211 0.28716 0.0
C2476 C 0.25106 0.95827 0.27225 0.0
H2477 H 0.26742 0.98854 0.3138 0.0
H2478 H 0.24238 0.97847 0.2869 0.0
S2479 S 0.2843 0.93503 0.26739 0.0
N2480 N 0.29214 0.94869 0.288 0.0
N2481 N 0.26556 0.93822 0.2588 0.0
C2482 C 0.26493 0.95087 0.27288 0.0
C2483 C 0.27935 0.95655 0.28869 0.0
C2484 C 0.67799 0.95107 0.28406 0.0
C2485 C 0.68808 0.95618 0.30244 0.0
C2486 C 0.68771 0.94962 0.26726 0.0
C2487 C 0.70781 0.95298 0.26819 0.0
H2488 H 0.66276 0.94901 0.28243 0.0
H2489 H 0.67964 0.94648 0.25332 0.0
S2490 S 0.74023 0.9648 0.31305 0.0
N2491 N 0.71881 0.96322 0.3208 0.0
N2492 N 0.73699 0.96025 0.28921 0.0
C2493 C 0.71771 0.95709 0.28663 0.0
C2494 C 0.70786 0.95871 0.30374 0.0
C2495 C 0.03334 0.75556 0.29459 0.0
C2496 C 0.03804 0.73966 0.29336 0.0
C2497 C 0.03501 0.7674 0.27828 0.0
C2498 C 0.04117 0.76361 0.26005 0.0
H2499 H 0.02776 0.75852 0.30808 0.0
H2500 H 0.03074 0.77915 0.27977 0.0
S2501 S 0.05714 0.72507 0.24955 0.0
N2502 N 0.05081 0.72191 0.27278 0.0
N2503 N 0.05345 0.74381 0.24215 0.0
C2504 C 0.04683 0.7484 0.25888 0.0
C2505 C 0.04538 0.73652 0.27551 0.0
C2506 C 0.25929 0.29632 0.29299 0.0
C2507 C 0.27621 0.31645 0.29374 0.0
C2508 C 0.24816 0.28765 0.27551 0.0
C2509 C 0.25363 0.2987 0.25804 0.0
H2510 H 0.25493 0.28694 0.30587 0.0
H2511 H 0.23559 0.27191 0.27549 0.0
S2512 S 0.29565 0.35252 0.25247 0.0
N2513 N 0.297 0.34771 0.27574 0.0
N2514 N 0.2763 0.33127 0.24288 0.0
C2515 C 0.26997 0.31912 0.25878 0.0
C2516 C 0.28118 0.32803 0.27661 0.0
C2517 C 0.29173 0.34701 0.40637 0.0
C2518 C 0.29768 0.35877 0.38935 0.0
C2519 C 0.29 0.35536 0.42423 0.0
C2520 C 0.2939 0.37572 0.42575 0.0
H2521 H 0.28923 0.33149 0.40615 0.0
H2522 H 0.28622 0.346 0.43709 0.0
S2523 S 0.30799 0.41234 0.38515 0.0
N2524 N 0.3061 0.3914 0.37486 0.0
N2525 N 0.3026 0.407 0.4084 0.0
C2526 C 0.29885 0.38732 0.40864 0.0
C2527 C 0.30077 0.37886 0.39046 0.0
C2528 C 0.65184 0.93767 0.41058 0.0
C2529 C 0.64084 0.93249 0.39268 0.0
C2530 C 0.64356 0.92571 0.42714 0.0
C2531 C 0.62401 0.90797 0.42646 0.0
H2532 H 0.66676 0.95142 0.41201 0.0
H2533 H 0.65234 0.93069 0.44074 0.0
S2534 S 0.58927 0.8871 0.38294 0.0
N2535 N 0.60961 0.90792 0.37508 0.0
N2536 N 0.59408 0.88545 0.40623 0.0
C2537 C 0.61307 0.90227 0.40851 0.0
C2538 C 0.62148 0.91448 0.39163 0.0
C2539 C 0.05072 0.72083 0.40456 0.0
C2540 C 0.05797 0.71598 0.38756 0.0
C2541 C 0.06009 0.72272 0.42287 0.0
C2542 C 0.07718 0.72 0.42491 0.0
H2543 H 0.03719 0.72238 0.40387 0.0
H2544 H 0.05347 0.72564 0.43564 0.0
S2545 S 0.10304 0.70854 0.3848 0.0
N2546 N 0.08404 0.70967 0.3738 0.0
N2547 N 0.10156 0.71313 0.40822 0.0
C2548 C 0.0851 0.71597 0.40792 0.0
C2549 C 0.07556 0.71405 0.38926 0.0
C2550 C 0.2907 0.01446 0.72829 0.0
C2551 C 0.30164 0.0299 0.71475 0.0
C2552 C 0.2819 0.01822 0.74466 0.0
C2553 C 0.28352 0.03762 0.74805 0.0
H2554 H 0.2894 0.99948 0.72655 0.0
H2555 H 0.27406 0.00576 0.75466 0.0
S2556 S 0.30902 0.08261 0.71579 0.0
N2557 N 0.31268 0.06489 0.70507 0.0
N2558 N 0.29576 0.07188 0.73553 0.0
C2559 C 0.29377 0.05288 0.73408 0.0
C2560 C 0.30294 0.0491 0.71757 0.0
C2561 C 0.94363 0.26702 0.72737 0.0
C2562 C 0.96166 0.27042 0.71824 0.0
C2563 C 0.93655 0.25504 0.74405 0.0
C2564 C 0.9469 0.24542 0.75196 0.0
H2565 H 0.93522 0.27421 0.72195 0.0
H2566 H 0.92296 0.25351 0.75085 0.0
S2567 S 0.99465 0.24915 0.73318 0.0
N2568 N 0.98975 0.26328 0.71821 0.0
N2569 N 0.97607 0.2401 0.74922 0.0
C2570 C 0.96482 0.2485 0.74276 0.0
C2571 C 0.97226 0.26108 0.72598 0.0
C2572 C 0.73757 0.71185 0.71354 0.0
C2573 C 0.72152 0.6913 0.71191 0.0
C2574 C 0.75156 0.71868 0.72935 0.0
C2575 C 0.75017 0.70523 0.74414 0.0
H2576 H 0.73921 0.72286 0.70264 0.0
H2577 H 0.76345 0.73472 0.73014 0.0
S2578 S 0.71072 0.64996 0.747 0.0
N2579 N 0.70496 0.65754 0.72657 0.0
N2580 N 0.73116 0.67044 0.75633 0.0
C2581 C 0.73418 0.68462 0.74269 0.0
C2582 C 0.71995 0.67764 0.72656 0.0
C2583 C 0.71669 0.67158 0.60914 0.0
C2584 C 0.70038 0.65643 0.61983 0.0
C2585 C 0.72494 0.66625 0.59328 0.0
C2586 C 0.71745 0.64552 0.58769 0.0
H2587 H 0.72306 0.68773 0.61292 0.0
H2588 H 0.73721 0.67849 0.5853 0.0
S2589 S 0.67442 0.6 0.61036 0.0
N2590 N 0.67667 0.6198 0.62329 0.0
N2591 N 0.69225 0.60985 0.59363 0.0
C2592 C 0.701 0.63026 0.59813 0.0
C2593 C 0.69251 0.63568 0.61418 0.0
C2594 C 0.38823 0.07803 0.62576 0.0
C2595 C 0.36289 0.06991 0.63509 0.0
C2596 C 0.40072 0.10015 0.61017 0.0
C2597 C 0.38384 0.11034 0.60173 0.0
H2598 H 0.3959 0.06956 0.62938 0.0
H2599 H 0.41495 0.10405 0.60309 0.0
S2600 S 0.32808 0.09782 0.6255 0.0
N2601 N 0.33131 0.07969 0.63661 0.0
N2602 N 0.34821 0.1134 0.61171 0.0
C2603 C 0.36085 0.10603 0.61537 0.0
C2604 C 0.34994 0.08419 0.63042 0.0
C2605 C 0.94391 0.28056 0.61176 0.0
C2606 C 0.94342 0.29379 0.62624 0.0
C2607 C 0.93085 0.27453 0.59525 0.0
C2608 C 0.91656 0.28126 0.59276 0.0
H2609 H 0.95461 0.27496 0.61305 0.0
H2610 H 0.93199 0.26458 0.58433 0.0
S2611 S 0.90965 0.3167 0.62606 0.0
N2612 N 0.92781 0.31389 0.63673 0.0
N2613 N 0.90329 0.30249 0.60577 0.0
C2614 C 0.9161 0.29469 0.60702 0.0
C2615 C 0.92944 0.30089 0.62377 0.0
C2616 C 0.37163 0.29698 0.62819 0.0
C2617 C 0.35137 0.29323 0.62823 0.0
C2618 C 0.37981 0.29304 0.61144 0.0
C2619 C 0.36809 0.28534 0.59401 0.0
H2620 H 0.38146 0.30349 0.64106 0.0
H2621 H 0.39564 0.29664 0.61194 0.0
S2622 S 0.31379 0.27156 0.58679 0.0
N2623 N 0.31938 0.28017 0.60965 0.0
N2624 N 0.33486 0.27308 0.57813 0.0
C2625 C 0.34759 0.28082 0.59406 0.0
C2626 C 0.3392 0.28467 0.61116 0.0
C2627 C 0.71781 0.05785 0.60925 0.0
C2628 C 0.70998 0.06365 0.62519 0.0
C2629 C 0.72021 0.06694 0.59099 0.0
C2630 C 0.71512 0.08236 0.588 0.0
H2631 H 0.72123 0.04552 0.61058 0.0
H2632 H 0.72544 0.06134 0.57894 0.0
S2633 S 0.69592 0.1045 0.62546 0.0
N2634 N 0.69852 0.08684 0.63714 0.0
N2635 N 0.7032 0.10401 0.60287 0.0
C2636 C 0.70827 0.08905 0.60407 0.0
C2637 C 0.70571 0.07971 0.62265 0.0
C2638 C 0.92854 0.63516 0.61864 0.0
C2639 C 0.94457 0.65556 0.62154 0.0
C2640 C 0.91769 0.62852 0.60079 0.0
C2641 C 0.9226 0.64195 0.58506 0.0
H2642 H 0.92455 0.62409 0.63013 0.0
H2643 H 0.90573 0.61257 0.5991 0.0
S2644 S 0.96269 0.69715 0.58539 0.0
N2645 N 0.96425 0.68941 0.60748 0.0
N2646 N 0.94408 0.67682 0.57379 0.0
C2647 C 0.9382 0.66255 0.58795 0.0
C2648 C 0.94912 0.66939 0.60622 0.0
C2649 C 0.98104 0.71326 0.72956 0.0
C2650 C 0.96558 0.69632 0.71892 0.0
C2651 C 0.97685 0.72024 0.74707 0.0
C2652 C 0.95699 0.71028 0.75492 0.0
H2653 H 0.99667 0.72106 0.72451 0.0
H2654 H 0.98951 0.73325 0.75454 0.0
S2655 S 0.91063 0.66651 0.73164 0.0
N2656 N 0.92929 0.6708 0.7166 0.0
N2657 N 0.92144 0.6837 0.74964 0.0
C2658 C 0.94124 0.69392 0.74388 0.0
C2659 C 0.94549 0.68694 0.72594 0.0
C2660 C 0.32082 0.27534 0.73585 0.0
C2661 C 0.30879 0.27144 0.71874 0.0
C2662 C 0.31293 0.26309 0.7523 0.0
C2663 C 0.29279 0.24629 0.75224 0.0
H2664 H 0.33627 0.28836 0.73681 0.0
H2665 H 0.32256 0.26711 0.76534 0.0
S2666 S 0.25542 0.22863 0.71065 0.0
N2667 N 0.27599 0.24897 0.70241 0.0
N2668 N 0.26127 0.2258 0.73328 0.0
C2669 C 0.28082 0.24178 0.73499 0.0
C2670 C 0.28879 0.25436 0.71827 0.0
C2671 C 0.72379 0.04572 0.73732 0.0
C2672 C 0.72937 0.04075 0.71935 0.0
C2673 C 0.73419 0.04673 0.75475 0.0
C2674 C 0.75079 0.04311 0.75488 0.0
H2675 H 0.7107 0.04798 0.73811 0.0
H2676 H 0.7288 0.04977 0.76832 0.0
S2677 S 0.77291 0.03171 0.71149 0.0
N2678 N 0.75352 0.03363 0.70254 0.0
N2679 N 0.77332 0.03589 0.7353 0.0
C2680 C 0.75722 0.03919 0.73688 0.0
C2681 C 0.74648 0.03795 0.71912 0.0
C2682 C 0.05613 0.34394 0.05723 0.0
C2683 C 0.03309 0.32404 0.04486 0.0
C2684 C 0.06906 0.33723 0.07575 0.0
C2685 C 0.05932 0.3089 0.07744 0.0
H2686 H 0.06202 0.35991 0.05378 0.0
H2687 H 0.08354 0.34867 0.08232 0.0
S2688 S 0.00421 0.26133 0.05429 0.0
N2689 N 0.00471 0.28146 0.04312 0.0
N2690 N 0.024 0.26867 0.07024 0.0
C2691 C 0.03312 0.28922 0.06909 0.0
C2692 C 0.02162 0.29737 0.05128 0.0
C2693 C 0.65366 0.70985 0.04568 0.0
C2694 C 0.66601 0.70874 0.03099 0.0
C2695 C 0.65655 0.72881 0.05249 0.0
C2696 C 0.6723 0.74746 0.04525 0.0
H2697 H 0.64142 0.69594 0.0518 0.0
H2698 H 0.64633 0.72879 0.06351 0.0
S2699 S 0.70853 0.75295 0.00634 0.0
N2700 N 0.69423 0.72786 0.00902 0.0
N2701 N 0.69993 0.76358 0.02212 0.0
C2702 C 0.68464 0.74654 0.03042 0.0
C2703 C 0.6815 0.72719 0.02328 0.0
C2704 C 0.28703 0.94721 0.04947 0.0
C2705 C 0.28691 0.95106 0.02944 0.0
C2706 C 0.26989 0.93105 0.05815 0.0
C2707 C 0.25169 0.91854 0.04726 0.0
H2708 H 0.30064 0.9565 0.05844 0.0
H2709 H 0.27101 0.92841 0.07351 0.0
S2710 S 0.24347 0.92274 0.99433 0.0
N2711 N 0.2673 0.94119 0.99889 0.0
N2712 N 0.23471 0.91129 0.01533 0.0
C2713 C 0.25139 0.92242 0.02721 0.0
C2714 C 0.26904 0.93857 0.01829 0.0
C2715 C 0.33059 0.05916 0.98771 0.0
C2716 C 0.31747 0.03773 0.98827 0.0
C2717 C 0.32375 0.07199 0.98015 0.0
C2718 C 0.30352 0.06387 0.97294 0.0
H2719 H 0.34638 0.06603 0.99278 0.0
H2720 H 0.3344 0.08839 0.97982 0.0
S2721 S 0.26257 0.00898 0.97297 0.0
N2722 N 0.28297 0.00909 0.98213 0.0
N2723 N 0.27006 0.0332 0.96822 0.0
C2724 C 0.29007 0.04254 0.97409 0.0
C2725 C 0.29707 0.02948 0.98163 0.0
C2726 C 0.9825 0.27762 0.96244 0.0
C2727 C 0.96932 0.29109 0.97028 0.0
C2728 C 0.9712 0.25742 0.94381 0.0
C2729 C 0.94408 0.24925 0.93694 0.0
H2730 H 0.99726 0.28172 0.96888 0.0
H2731 H 0.97803 0.24811 0.94021 0.0
S2732 S 0.91354 0.28168 0.94877 0.0
N2733 N 0.93448 0.29505 0.9634 0.0
N2734 N 0.91447 0.26317 0.93528 0.0
C2735 C 0.93308 0.26642 0.94058 0.0
C2736 C 0.94541 0.28592 0.959 0.0
C2737 C 0.7109 0.64881 0.9751 0.0
C2738 C 0.71052 0.66007 0.99155 0.0
C2739 C 0.72944 0.6527 0.96696 0.0
C2740 C 0.74836 0.66835 0.9747 0.0
H2741 H 0.69674 0.63686 0.96839 0.0
H2742 H 0.72893 0.64346 0.95442 0.0
S2743 S 0.75586 0.7014 0.01843 0.0
N2744 N 0.73074 0.68684 0.01592 0.0
N2745 N 0.76561 0.6943 0.00046 0.0
C2746 C 0.74821 0.67935 0.99147 0.0
C2747 C 0.72931 0.67525 0.99988 0.0
C2748 C 0.9628 0.69352 0.97271 0.0
C2749 C 0.95423 0.67496 0.9829 0.0
C2750 C 0.95151 0.70328 0.9688 0.0
C2751 C 0.93102 0.69468 0.97458 0.0
H2752 H 0.97866 0.70105 0.96832 0.0
H2753 H 0.95909 0.71798 0.96166 0.0
S2754 S 0.90106 0.64589 0.00092 0.0
N2755 N 0.92379 0.64801 0.99817 0.0
N2756 N 0.90246 0.66629 0.99061 0.0
C2757 C 0.92206 0.67582 0.98427 0.0
C2758 C 0.93364 0.66594 0.98841 0.0
C2759 C 0.33417 0.30078 0.95967 0.0
C2760 C 0.33635 0.30169 0.98016 0.0
C2761 C 0.32253 0.28196 0.9496 0.0
C2762 C 0.31271 0.26328 0.9596 0.0
H2763 H 0.34065 0.31476 0.95137 0.0
H2764 H 0.32056 0.28209 0.93391 0.0
S2765 S 0.31519 0.25709 0.01308 0.0
N2766 N 0.32899 0.28216 0.01 0.0
N2767 N 0.307 0.24677 0.99102 0.0
C2768 C 0.31557 0.26389 0.97999 0.0
C2769 C 0.32749 0.28308 0.99027 0.0
C2770 C 0.72157 0.02939 0.97494 0.0
C2771 C 0.71372 0.03842 0.98784 0.0
C2772 C 0.74208 0.04006 0.96929 0.0
C2773 C 0.75549 0.06032 0.97607 0.0
H2774 H 0.71198 0.01371 0.96957 0.0
H2775 H 0.7476 0.0322 0.9599 0.0
S2776 S 0.74245 0.09118 0.00965 0.0
N2777 N 0.72087 0.06901 0.0069 0.0
N2778 N 0.75941 0.08908 0.99619 0.0
C2779 C 0.74773 0.06967 0.98866 0.0
C2780 C 0.72686 0.05877 0.99451 0.0
C2781 C 0.68752 0.96823 0.04636 0.0
C2782 C 0.67052 0.96051 0.0334 0.0
C2783 C 0.69466 0.95553 0.05353 0.0
C2784 C 0.68484 0.93448 0.04833 0.0
H2785 H 0.69572 0.98436 0.05072 0.0
H2786 H 0.70817 0.96236 0.063 0.0
S2787 S 0.63976 0.9066 0.01479 0.0
N2788 N 0.64409 0.93044 0.01559 0.0
N2789 N 0.65742 0.90652 0.02922 0.0
C2790 C 0.66776 0.92652 0.03547 0.0
C2791 C 0.66058 0.93951 0.02803 0.0
C2792 C 0.02477 0.71448 0.05152 0.0
C2793 C 0.02843 0.71248 0.03173 0.0
C2794 C 0.03345 0.7338 0.06087 0.0
C2795 C 0.04599 0.75195 0.05076 0.0
H2796 H 0.01487 0.70102 0.05984 0.0
H2797 H 0.03002 0.73459 0.07609 0.0
S2798 S 0.06051 0.75506 0.99871 0.0
N2799 N 0.04577 0.73019 0.00233 0.0
N2800 N 0.06186 0.76664 0.01985 0.0
C2801 C 0.05003 0.75016 0.031 0.0
C2802 C 0.04136 0.7304 0.02152 0.0
C2803 C 0.28201 0.31661 0.03905 0.0
C2804 C 0.29185 0.33591 0.03013 0.0
C2805 C 0.26113 0.30676 0.04323 0.0
C2806 C 0.24924 0.31588 0.03881 0.0
H2807 H 0.29034 0.30868 0.04231 0.0
H2808 H 0.25408 0.29158 0.04942 0.0
S2809 S 0.26773 0.36663 0.01616 0.0
N2810 N 0.28827 0.36413 0.01765 0.0
N2811 N 0.24891 0.34555 0.0255 0.0
C2812 C 0.25899 0.33544 0.03042 0.0
C2813 C 0.28032 0.34551 0.02616 0.0
C2814 C 0.68636 0.63148 0.37689 0.0
C2815 C 0.6981 0.65904 0.37372 0.0
C2816 C 0.69727 0.62131 0.3941 0.0
C2817 C 0.72293 0.64078 0.40451 0.0
H2818 H 0.67275 0.62103 0.36847 0.0
H2819 H 0.69151 0.60494 0.39492 0.0
S2820 S 0.74936 0.70468 0.40352 0.0
N2821 N 0.72973 0.69781 0.38744 0.0
N2822 N 0.74907 0.68422 0.41372 0.0
C2823 C 0.73176 0.6688 0.40565 0.0
C2824 C 0.71995 0.67721 0.38837 0.0
C2825 C 0.36601 0.06913 0.35507 0.0
C2826 C 0.35081 0.04741 0.37051 0.0
C2827 C 0.37827 0.09519 0.36507 0.0
C2828 C 0.37029 0.0974 0.39042 0.0
H2829 H 0.36774 0.06655 0.33979 0.0
H2830 H 0.38582 0.10833 0.35572 0.0
S2831 S 0.34048 0.04985 0.42968 0.0
N2832 N 0.33773 0.03591 0.40912 0.0
N2833 N 0.35465 0.07541 0.42627 0.0
C2834 C 0.35987 0.07562 0.40753 0.0
C2835 C 0.34851 0.05077 0.39635 0.0
C2836 C 0.95593 0.27609 0.37265 0.0
C2837 C 0.9583 0.2888 0.35684 0.0
C2838 C 0.93644 0.26133 0.37885 0.0
C2839 C 0.91852 0.25913 0.36984 0.0
H2840 H 0.96926 0.27739 0.38018 0.0
H2841 H 0.93547 0.25165 0.39083 0.0
S2842 S 0.91641 0.28847 0.32759 0.0
N2843 N 0.94114 0.29793 0.33198 0.0
N2844 N 0.90449 0.27055 0.34396 0.0
C2845 C 0.92073 0.27166 0.3539 0.0
C2846 C 0.94058 0.28643 0.34737 0.0
C2847 C 0.99191 0.383 0.32439 0.0
C2848 C 0.01092 0.38387 0.32276 0.0
C2849 C 0.98898 0.39879 0.31739 0.0
C2850 C 0.00487 0.41599 0.30831 0.0
H2851 H 0.97911 0.36998 0.33106 0.0
H2852 H 0.97407 0.39744 0.319 0.0
S2853 S 0.05783 0.42607 0.30102 0.0
N2854 N 0.04611 0.40366 0.31186 0.0
N2855 N 0.04054 0.43331 0.29866 0.0
C2856 C 0.02408 0.41724 0.30688 0.0
C2857 C 0.0271 0.40118 0.31407 0.0
C2858 C 0.65204 0.62352 0.28417 0.0
C2859 C 0.63858 0.63571 0.29457 0.0
C2860 C 0.63952 0.60281 0.26615 0.0
C2861 C 0.61143 0.59281 0.26275 0.0
H2862 H 0.66759 0.62846 0.28891 0.0
H2863 H 0.64668 0.5942 0.26119 0.0
S2864 S 0.57912 0.62165 0.28106 0.0
N2865 N 0.60156 0.63654 0.29319 0.0
N2866 N 0.57977 0.60378 0.26631 0.0
C2867 C 0.59939 0.60862 0.26883 0.0
C2868 C 0.61301 0.62875 0.28645 0.0
C2869 C 0.37102 0.97398 0.30647 0.0
C2870 C 0.37378 0.98383 0.32482 0.0
C2871 C 0.38648 0.97119 0.29835 0.0
C2872 C 0.40555 0.97864 0.30805 0.0
H2873 H 0.35662 0.96795 0.29843 0.0
H2874 H 0.38334 0.96299 0.28444 0.0
S2875 S 0.42054 0.00552 0.35648 0.0
N2876 N 0.39694 0.0009 0.35257 0.0
N2877 N 0.42619 0.99607 0.3371 0.0
C2878 C 0.40852 0.9886 0.32638 0.0
C2879 C 0.39265 0.99116 0.33479 0.0
C2880 C 0.60265 0.98164 0.32586 0.0
C2881 C 0.6236 0.99189 0.32147 0.0
C2882 C 0.58992 0.9892 0.31967 0.0
C2883 C 0.59763 0.00728 0.30882 0.0
H2884 H 0.59606 0.96788 0.33449 0.0
H2885 H 0.57399 0.98107 0.32381 0.0
S2886 S 0.6515 0.04004 0.29364 0.0
N2887 N 0.65152 0.02106 0.30547 0.0
N2888 N 0.62766 0.03538 0.29412 0.0
C2889 C 0.61854 0.01759 0.30417 0.0
C2890 C 0.63148 0.00982 0.31035 0.0
C2891 C 0.04366 0.64503 0.31096 0.0
C2892 C 0.02206 0.64876 0.30597 0.0
C2893 C 0.04896 0.62895 0.29489 0.0
C2894 C 0.0284 0.61378 0.27613 0.0
H2895 H 0.05368 0.65272 0.32345 0.0
H2896 H 0.06076 0.62529 0.29851 0.0
S2897 S 0.98119 0.62431 0.25885 0.0
N2898 N 0.98985 0.63973 0.27904 0.0
N2899 N 0.99529 0.61314 0.25365 0.0
C2900 C 0.00987 0.62173 0.26773 0.0
C2901 C 0.00598 0.63778 0.28438 0.0
C2902 C 0.3842 0.36625 0.30848 0.0
C2903 C 0.37522 0.37501 0.32029 0.0
C2904 C 0.40484 0.37759 0.30333 0.0
C2905 C 0.41727 0.39824 0.30956 0.0
H2906 H 0.3754 0.35029 0.30364 0.0
H2907 H 0.41126 0.36997 0.29483 0.0
S2908 S 0.40104 0.42865 0.34011 0.0
N2909 N 0.38023 0.4058 0.33758 0.0
N2910 N 0.41901 0.42709 0.32786 0.0
C2911 C 0.40836 0.40733 0.32098 0.0
C2912 C 0.38735 0.39576 0.32629 0.0
C2913 C 0.32235 0.27577 0.36278 0.0
C2914 C 0.3343 0.29714 0.3662 0.0
C2915 C 0.32875 0.26235 0.36963 0.0
C2916 C 0.34732 0.26974 0.38021 0.0
H2917 H 0.30799 0.26933 0.3546 0.0
H2918 H 0.31919 0.24604 0.3664 0.0
S2919 S 0.38464 0.32447 0.39247 0.0
N2920 N 0.3658 0.32515 0.38062 0.0
N2921 N 0.37792 0.29993 0.39324 0.0
C2922 C 0.35948 0.29111 0.38365 0.0
C2923 C 0.35291 0.30478 0.37678 0.0
C2924 C 0.72067 0.04631 0.36236 0.0
C2925 C 0.69993 0.03517 0.36751 0.0
C2926 C 0.73203 0.06777 0.36463 0.0
C2927 C 0.72313 0.07895 0.3722 0.0
H2928 H 0.72804 0.03848 0.35588 0.0
H2929 H 0.74774 0.07576 0.35979 0.0
S2930 S 0.66956 0.05708 0.38865 0.0
N2931 N 0.67114 0.03689 0.38129 0.0
N2932 N 0.69246 0.07723 0.38534 0.0
C2933 C 0.70258 0.06795 0.37801 0.0
C2934 C 0.69103 0.04607 0.37579 0.0
C2935 C 0.95258 0.65204 0.36938 0.0
C2936 C 0.96001 0.66853 0.35641 0.0
C2937 C 0.93241 0.64266 0.37609 0.0
C2938 C 0.91892 0.64953 0.37024 0.0
H2939 H 0.96235 0.64617 0.37429 0.0
H2940 H 0.92725 0.62975 0.38573 0.0
S2941 S 0.93064 0.69193 0.33625 0.0
N2942 N 0.95215 0.69122 0.33787 0.0
N2943 N 0.9143 0.67356 0.35043 0.0
C2944 C 0.92615 0.66597 0.35727 0.0
C2945 C 0.94666 0.67552 0.35042 0.0
C2946 C 0.3609 0.9804 0.71454 0.0
C2947 C 0.36874 0.00722 0.71084 0.0
C2948 C 0.37355 0.97336 0.73296 0.0
C2949 C 0.39714 0.9955 0.74418 0.0
H2950 H 0.34855 0.96849 0.70573 0.0
H2951 H 0.37022 0.95764 0.73418 0.0
S2952 S 0.41439 0.05765 0.74173 0.0
N2953 N 0.39524 0.04784 0.72475 0.0
N2954 N 0.41717 0.03929 0.75292 0.0
C2955 C 0.40161 0.02226 0.74455 0.0
C2956 C 0.38827 0.02758 0.72608 0.0
C2957 C 0.98685 0.36368 0.72569 0.0
C2958 C 0.98054 0.35966 0.70593 0.0
C2959 C 0.98127 0.37522 0.73777 0.0
C2960 C 0.96906 0.38312 0.73059 0.0
H2961 H 0.99572 0.35741 0.73204 0.0
H2962 H 0.9861 0.37756 0.75301 0.0
S2963 S 0.94921 0.37766 0.67969 0.0
N2964 N 0.9621 0.36521 0.67947 0.0
N2965 N 0.95137 0.38664 0.70229 0.0
C2966 C 0.9631 0.37968 0.71072 0.0
C2967 C 0.96894 0.36808 0.69836 0.0
C2968 C 0.61133 0.64097 0.70421 0.0
C2969 C 0.62204 0.63265 0.69457 0.0
C2970 C 0.59217 0.62828 0.71236 0.0
C2971 C 0.58302 0.60671 0.71153 0.0
H2972 H 0.61755 0.65747 0.70508 0.0
H2973 H 0.58431 0.63546 0.71913 0.0
S2974 S 0.60511 0.57715 0.6887 0.0
N2975 N 0.62236 0.60146 0.68507 0.0
N2976 N 0.5864 0.57756 0.70069 0.0
C2977 C 0.59375 0.59816 0.70228 0.0
C2978 C 0.61324 0.61112 0.69377 0.0
C2979 C 0.63989 0.70584 0.63343 0.0
C2980 C 0.65252 0.70992 0.65015 0.0
C2981 C 0.63004 0.71732 0.62928 0.0
C2982 C 0.63121 0.73294 0.64203 0.0
H2983 H 0.63877 0.69465 0.62257 0.0
H2984 H 0.62344 0.71574 0.61479 0.0
S2985 S 0.6669 0.76247 0.69211 0.0
N2986 N 0.67145 0.73928 0.67888 0.0
N2987 N 0.63846 0.7515 0.67642 0.0
C2988 C 0.63274 0.73092 0.66175 0.0
C2989 C 0.65236 0.7236 0.66374 0.0
C2990 C 0.31766 0.95944 0.62121 0.0
C2991 C 0.30425 0.9724 0.62989 0.0
C2992 C 0.30537 0.93798 0.60393 0.0
C2993 C 0.27745 0.9282 0.59951 0.0
H2994 H 0.33303 0.96441 0.62653 0.0
H2995 H 0.31246 0.92899 0.60003 0.0
S2996 S 0.24543 0.95854 0.61374 0.0
N2997 N 0.2676 0.97374 0.62616 0.0
N2998 N 0.24617 0.93987 0.60034 0.0
C2999 C 0.26563 0.94456 0.60372 0.0
C3000 C 0.279 0.96542 0.6207 0.0
C3001 C 0.05485 0.35674 0.64718 0.0
C3002 C 0.04278 0.33575 0.65142 0.0
C3003 C 0.07456 0.36468 0.63968 0.0
C3004 C 0.08298 0.35196 0.63601 0.0
H3005 H 0.0491 0.3672 0.64972 0.0
H3006 H 0.08336 0.38099 0.63686 0.0
S3007 S 0.05804 0.29604 0.6454 0.0
N3008 N 0.04086 0.30243 0.65183 0.0
N3009 N 0.078 0.31743 0.63792 0.0
C3010 C 0.07117 0.33097 0.64041 0.0
C3011 C 0.05104 0.32285 0.64799 0.0
C3012 C 0.27639 0.33176 0.65636 0.0
C3013 C 0.29696 0.33959 0.65124 0.0
C3014 C 0.26621 0.3427 0.65253 0.0
C3015 C 0.27618 0.36186 0.6434 0.0
H3016 H 0.26824 0.31737 0.66395 0.0
H3017 H 0.25059 0.33641 0.65734 0.0
S3018 S 0.3299 0.38893 0.62659 0.0
N3019 N 0.32679 0.36744 0.63595 0.0
N3020 N 0.30771 0.38807 0.62903 0.0
C3021 C 0.29659 0.36962 0.63771 0.0
C3022 C 0.30693 0.35843 0.6415 0.0
C3023 C 0.65956 0.96278 0.6263 0.0
C3024 C 0.6628 0.96538 0.64666 0.0
C3025 C 0.64948 0.94314 0.61746 0.0
C3026 C 0.64192 0.92528 0.62866 0.0
H3027 H 0.6648 0.97602 0.61708 0.0
H3028 H 0.64735 0.94189 0.60172 0.0
S3029 S 0.64654 0.92378 0.68261 0.0
N3030 N 0.65799 0.94854 0.67783 0.0
N3031 N 0.6386 0.91156 0.66125 0.0
C3032 C 0.64523 0.92769 0.64905 0.0
C3033 C 0.65578 0.94774 0.65804 0.0
C3034 C 0.05221 0.72548 0.65382 0.0
C3035 C 0.03994 0.7046 0.64828 0.0
C3036 C 0.07323 0.73629 0.65003 0.0
C3037 C 0.08276 0.72674 0.64035 0.0
H3038 H 0.04575 0.73335 0.66187 0.0
H3039 H 0.08221 0.75209 0.65528 0.0
S3040 S 0.05714 0.67288 0.62122 0.0
N3041 N 0.0386 0.67514 0.63146 0.0
N3042 N 0.07809 0.69554 0.62425 0.0
C3043 C 0.07049 0.70615 0.63392 0.0
C3044 C 0.04909 0.69508 0.63787 0.0
C3045 C 0.96791 0.60368 0.69949 0.0
C3046 C 0.98541 0.62337 0.69887 0.0
C3047 C 0.96905 0.58691 0.7067 0.0
C3048 C 0.9877 0.58917 0.71369 0.0
H3049 H 0.95321 0.60109 0.69412 0.0
H3050 H 0.95522 0.57197 0.70658 0.0
S3051 S 0.03811 0.63743 0.715 0.0
N3052 N 0.02205 0.64418 0.70581 0.0
N3053 N 0.02418 0.61261 0.71924 0.0
C3054 C 0.00534 0.6088 0.71319 0.0
C3055 C 0.00418 0.62591 0.70589 0.0
C3056 C 0.38811 0.38554 0.69451 0.0
C3057 C 0.36765 0.37321 0.70017 0.0
C3058 C 0.39894 0.40674 0.69875 0.0
C3059 C 0.38978 0.41644 0.70885 0.0
H3060 H 0.39561 0.37894 0.68612 0.0
H3061 H 0.4144 0.41575 0.69345 0.0
S3062 S 0.33682 0.39095 0.72761 0.0
N3063 N 0.3389 0.37212 0.71718 0.0
N3064 N 0.3592 0.41198 0.72485 0.0
C3065 C 0.36955 0.40417 0.71516 0.0
C3066 C 0.35854 0.38256 0.71095 0.0
C3067 C 0.61897 0.99586 0.70307 0.0
C3068 C 0.63138 0.01388 0.69273 0.0
C3069 C 0.59919 0.99076 0.70866 0.0
C3070 C 0.59111 0.0036 0.70436 0.0
H3071 H 0.62439 0.98534 0.70656 0.0
H3072 H 0.59001 0.97645 0.71612 0.0
S3073 S 0.61733 0.0526 0.67769 0.0
N3074 N 0.63419 0.04469 0.67852 0.0
N3075 N 0.59698 0.03507 0.68907 0.0
C3076 C 0.60341 0.02176 0.69419 0.0
C3077 C 0.62356 0.02694 0.68843 0.0
loop_
_geom_bond_atom_site_label_1
_geom_bond_atom_site_label_2
_geom_bond_distance
_geom_bond_site_symmetry_2
_ccdc_geom_bond_type
In0 O1 2.294 1_455 S
In0 O2 2.326 . S
In0 O6 2.266 1_454 S
In0 O7 2.326 1_454 S
In0 O8 2.266 1_554 S
In0 O9 2.326 1_454 S
In0 O11 2.294 . S
In0 O12 2.326 . S
O1 In0 2.294 1_655 S
O1 C10 1.257 . S
O2 In0 2.326 . S
O2 C10 1.220 1_455 S
C3 O6 1.252 . S
C3 O7 1.260 . S
C4 O11 1.240 . S
C4 O12 1.252 . S
C5 O8 1.252 . S
C5 O9 1.260 1_455 S
O6 In0 2.266 1_656 S
O6 C3 1.252 . S
O7 In0 2.326 1_656 S
O7 C3 1.260 . S
O8 In0 2.266 1_556 S
O8 C5 1.252 . S
O9 In0 2.326 1_656 S
O9 C5 1.260 1_655 S
C10 O1 1.257 . S
C10 O2 1.220 1_655 S
O11 In0 2.294 . S
O11 C4 1.240 . S
O12 In0 2.326 . S
O12 C4 1.252 . S
In13 O14 2.294 . S
In13 O15 2.326 . S
In13 O19 2.266 . S
In13 O20 2.326 1_554 S
In13 O21 2.266 1_554 S
In13 O22 2.326 1_554 S
In13 O24 2.294 . S
In13 O25 2.326 . S
O14 In13 2.294 . S
O14 C23 1.240 . S
O15 In13 2.326 . S
O15 C23 1.252 . S
C16 O19 1.252 1_556 S
C16 O20 1.260 . S
C17 O24 1.240 . S
C17 O25 1.252 . S
C18 O21 1.252 . S
C18 O22 1.260 . S
O19 In13 2.266 . S
O19 C16 1.252 1_554 S
O20 In13 2.326 1_556 S
O20 C16 1.260 . S
O21 In13 2.266 1_556 S
O21 C18 1.252 . S
O22 In13 2.326 1_556 S
O22 C18 1.260 . S
C23 O14 1.240 . S
C23 O15 1.252 . S
O24 In13 2.294 . S
O24 C17 1.240 . S
O25 In13 2.326 . S
O25 C17 1.252 . S
In26 O27 2.294 1_554 S
In26 O28 2.326 1_554 S
In26 O32 2.266 . S
In26 O33 2.326 1_545 S
In26 O34 2.266 1_545 S
In26 O35 2.326 1_545 S
In26 O37 2.294 1_544 S
In26 O38 2.326 1_554 S
O27 In26 2.294 1_556 S
O27 C36 1.240 . S
O28 In26 2.326 1_556 S
O28 C36 1.252 . S
C29 O32 1.252 . S
C29 O33 1.260 1_545 S
C30 O37 1.240 . S
C30 O38 1.252 1_565 S
C31 O34 1.252 . S
C31 O35 1.260 . S
O32 In26 2.266 . S
O32 C29 1.252 . S
O33 In26 2.326 1_565 S
O33 C29 1.260 1_565 S
O34 In26 2.266 1_565 S
O34 C31 1.252 . S
O35 In26 2.326 1_565 S
O35 C31 1.260 . S
C36 O27 1.240 . S
C36 O28 1.252 . S
O37 In26 2.294 1_566 S
O37 C30 1.240 . S
O38 In26 2.326 1_556 S
O38 C30 1.252 1_545 S
In39 O40 2.293 1_554 S
In39 O41 2.326 1_454 S
In39 O45 2.265 . S
In39 O46 2.326 . S
In39 O47 2.267 1_455 S
In39 O48 2.324 . S
In39 O50 2.296 1_455 S
In39 O51 2.327 1_454 S
O40 In39 2.293 1_556 S
O40 C49 1.240 . S
O41 In39 2.326 1_656 S
O41 C49 1.252 1_655 S
C42 O45 1.252 . S
C42 O46 1.260 . S
C43 O50 1.240 1_556 S
C43 O51 1.252 . S
C44 O47 1.252 . S
C44 O48 1.260 1_655 S
O45 In39 2.265 . S
O45 C42 1.252 . S
O46 In39 2.326 . S
O46 C42 1.260 . S
O47 In39 2.267 1_655 S
O47 C44 1.252 . S
O48 In39 2.324 . S
O48 C44 1.260 1_455 S
C49 O40 1.240 . S
C49 O41 1.252 1_455 S
O50 In39 2.296 1_655 S
O50 C43 1.240 1_554 S
O51 In39 2.327 1_656 S
O51 C43 1.252 . S
In52 O53 2.294 1_554 S
In52 O54 2.326 1_554 S
In52 O58 2.266 . S
In52 O59 2.326 . S
In52 O60 2.266 . S
In52 O61 2.326 . S
In52 O63 2.294 1_554 S
In52 O64 2.326 1_554 S
O53 In52 2.294 1_556 S
O53 C62 1.240 . S
O54 In52 2.326 1_556 S
O54 C62 1.252 . S
C55 O58 1.252 . S
C55 O59 1.260 . S
C56 O63 1.240 . S
C56 O64 1.252 . S
C57 O60 1.252 . S
C57 O61 1.260 . S
O58 In52 2.266 . S
O58 C55 1.252 . S
O59 In52 2.326 . S
O59 C55 1.260 . S
O60 In52 2.266 . S
O60 C57 1.252 . S
O61 In52 2.326 . S
O61 C57 1.260 . S
C62 O53 1.240 . S
C62 O54 1.252 . S
O63 In52 2.294 1_556 S
O63 C56 1.240 . S
O64 In52 2.326 1_556 S
O64 C56 1.252 . S
In65 O66 2.293 . S
In65 O67 2.326 1_545 S
In65 O71 2.265 . S
In65 O72 2.326 1_554 S
In65 O73 2.267 1_544 S
In65 O74 2.324 1_554 S
In65 O76 2.296 1_545 S
In65 O77 2.327 1_545 S
O66 In65 2.293 . S
O66 C75 1.240 . S
O67 In65 2.326 1_565 S
O67 C75 1.252 1_565 S
C68 O71 1.252 1_556 S
C68 O72 1.260 . S
C69 O76 1.240 . S
C69 O77 1.252 . S
C70 O73 1.252 . S
C70 O74 1.260 1_565 S
O71 In65 2.265 . S
O71 C68 1.252 1_554 S
O72 In65 2.326 1_556 S
O72 C68 1.260 . S
O73 In65 2.267 1_566 S
O73 C70 1.252 . S
O74 In65 2.324 1_556 S
O74 C70 1.260 1_545 S
C75 O66 1.240 . S
C75 O67 1.252 1_545 S
O76 In65 2.296 1_565 S
O76 C69 1.240 . S
O77 In65 2.327 1_565 S
O77 C69 1.252 . S
In78 O79 2.294 . S
In78 O80 2.326 . S
In78 O84 2.266 . S
In78 O85 2.326 . S
In78 O86 2.266 . S
In78 O87 2.326 . S
In78 O89 2.294 . S
In78 O90 2.326 . S
O79 In78 2.294 . S
O79 C88 1.240 . S
O80 In78 2.326 . S
O80 C88 1.252 . S
C81 O84 1.252 . S
C81 O85 1.260 . S
C82 O89 1.240 . S
C82 O90 1.252 . S
C83 O86 1.252 . S
C83 O87 1.260 . S
O84 In78 2.266 . S
O84 C81 1.252 . S
O85 In78 2.326 . S
O85 C81 1.260 . S
O86 In78 2.266 . S
O86 C83 1.252 . S
O87 In78 2.326 . S
O87 C83 1.260 . S
C88 O79 1.240 . S
C88 O80 1.252 . S
O89 In78 2.294 . S
O89 C82 1.240 . S
O90 In78 2.326 . S
O90 C82 1.252 . S
In91 O92 2.294 . S
In91 O93 2.326 . S
In91 O97 2.266 . S
In91 O98 2.326 . S
In91 O99 2.266 . S
In91 O100 2.326 . S
In91 O102 2.294 1_565 S
In91 O103 2.326 1_565 S
O92 In91 2.294 . S
O92 C101 1.240 . S
O93 In91 2.326 . S
O93 C101 1.252 . S
C94 O97 1.252 . S
C94 O98 1.260 . S
C95 O102 1.240 . S
C95 O103 1.252 . S
C96 O99 1.252 . S
C96 O100 1.260 . S
O97 In91 2.266 . S
O97 C94 1.252 . S
O98 In91 2.326 . S
O98 C94 1.260 . S
O99 In91 2.266 . S
O99 C96 1.252 . S
O100 In91 2.326 . S
O100 C96 1.260 . S
C101 O92 1.240 . S
C101 O93 1.252 . S
O102 In91 2.294 1_545 S
O102 C95 1.240 . S
O103 In91 2.326 1_545 S
O103 C95 1.252 . S
In104 O105 2.294 . S
In104 O106 2.326 . S
In104 O110 2.266 . S
In104 O111 2.326 . S
In104 O112 2.266 1_455 S
In104 O113 2.362 . S
In104 O115 2.294 . S
In104 O116 2.326 . S
O105 In104 2.294 . S
O105 C114 1.240 . S
O106 In104 2.326 . S
O106 C114 1.252 . S
C107 O110 1.252 . S
C107 O111 1.260 . S
C108 O115 1.240 . S
C108 O116 1.252 . S
C109 O112 1.252 . S
C109 O113 1.258 1_655 S
O110 In104 2.266 . S
O110 C107 1.252 . S
O111 In104 2.326 . S
O111 C107 1.260 . S
O112 In104 2.266 1_655 S
O112 C109 1.252 . S
O113 In104 2.362 . S
O113 C109 1.258 1_455 S
C114 O105 1.240 . S
C114 O106 1.252 . S
O115 In104 2.294 . S
O115 C108 1.240 . S
O116 In104 2.326 . S
O116 C108 1.252 . S
In117 O118 2.294 . S
In117 O119 2.326 . S
In117 O123 2.266 1_565 S
In117 O124 2.326 1_565 S
In117 O125 2.266 . S
In117 O126 2.326 . S
In117 O128 2.294 . S
In117 O129 2.326 . S
O118 In117 2.294 . S
O118 C127 1.240 . S
O119 In117 2.326 . S
O119 C127 1.252 . S
C120 O123 1.252 . S
C120 O124 1.260 . S
C121 O128 1.240 . S
C121 O129 1.252 . S
C122 O125 1.252 . S
C122 O126 1.260 . S
O123 In117 2.266 1_545 S
O123 C120 1.252 . S
O124 In117 2.326 1_545 S
O124 C120 1.260 . S
O125 In117 2.266 . S
O125 C122 1.252 . S
O126 In117 2.326 . S
O126 C122 1.260 . S
C127 O118 1.240 . S
C127 O119 1.252 . S
O128 In117 2.294 . S
O128 C121 1.240 . S
O129 In117 2.326 . S
O129 C121 1.252 . S
In130 O131 2.294 . S
In130 O132 2.326 . S
In130 O136 2.266 1_455 S
In130 O137 2.326 1_455 S
In130 O138 2.266 . S
In130 O139 2.326 . S
In130 O141 2.294 . S
In130 O142 2.326 . S
O131 In130 2.294 . S
O131 C140 1.240 . S
O132 In130 2.326 . S
O132 C140 1.252 . S
C133 O136 1.252 . S
C133 O137 1.260 . S
C134 O141 1.240 . S
C134 O142 1.252 . S
C135 O138 1.252 . S
C135 O139 1.260 . S
O136 In130 2.266 1_655 S
O136 C133 1.252 . S
O137 In130 2.326 1_655 S
O137 C133 1.260 . S
O138 In130 2.266 . S
O138 C135 1.252 . S
O139 In130 2.326 . S
O139 C135 1.260 . S
C140 O131 1.240 . S
C140 O132 1.252 . S
O141 In130 2.294 . S
O141 C134 1.240 . S
O142 In130 2.326 . S
O142 C134 1.252 . S
In143 O144 2.294 . S
In143 O145 2.326 . S
In143 O149 2.266 . S
In143 O150 2.326 . S
In143 O151 2.266 . S
In143 O152 2.326 . S
In143 O154 2.294 . S
In143 O155 2.326 . S
O144 In143 2.294 . S
O144 C153 1.240 . S
O145 In143 2.326 . S
O145 C153 1.252 . S
C146 O149 1.252 . S
C146 O150 1.260 . S
C147 O154 1.240 . S
C147 O155 1.252 . S
C148 O151 1.252 . S
C148 O152 1.260 . S
O149 In143 2.266 . S
O149 C146 1.252 . S
O150 In143 2.326 . S
O150 C146 1.260 . S
O151 In143 2.266 . S
O151 C148 1.252 . S
O152 In143 2.326 . S
O152 C148 1.260 . S
C153 O144 1.240 . S
C153 O145 1.252 . S
O154 In143 2.294 . S
O154 C147 1.240 . S
O155 In143 2.326 . S
O155 C147 1.252 . S
In156 O157 2.294 . S
In156 O158 2.326 . S
In156 O162 2.266 . S
In156 O163 2.326 . S
In156 O164 2.266 1_545 S
In156 O165 2.326 1_545 S
In156 O167 2.294 . S
In156 O168 2.326 . S
O157 In156 2.294 . S
O157 C166 1.240 . S
O158 In156 2.326 . S
O158 C166 1.252 . S
C159 O162 1.252 . S
C159 O163 1.260 . S
C160 O167 1.240 . S
C160 O168 1.252 . S
C161 O164 1.252 . S
C161 O165 1.260 . S
O162 In156 2.266 . S
O162 C159 1.252 . S
O163 In156 2.326 . S
O163 C159 1.260 . S
O164 In156 2.266 1_565 S
O164 C161 1.252 . S
O165 In156 2.326 1_565 S
O165 C161 1.260 . S
C166 O157 1.240 . S
C166 O158 1.252 . S
O167 In156 2.294 . S
O167 C160 1.240 . S
O168 In156 2.326 . S
O168 C160 1.252 . S
In169 O170 2.294 . S
In169 O171 2.326 . S
In169 O175 2.266 . S
In169 O176 2.326 . S
In169 O177 2.266 1_655 S
In169 O178 2.326 1_655 S
In169 O180 2.294 . S
In169 O181 2.326 . S
O170 In169 2.294 . S
O170 C179 1.240 . S
O171 In169 2.326 . S
O171 C179 1.252 . S
C172 O175 1.252 . S
C172 O176 1.260 . S
C173 O180 1.240 . S
C173 O181 1.252 . S
C174 O177 1.252 . S
C174 O178 1.260 . S
O175 In169 2.266 . S
O175 C172 1.252 . S
O176 In169 2.326 . S
O176 C172 1.260 . S
O177 In169 2.266 1_455 S
O177 C174 1.252 . S
O178 In169 2.326 1_455 S
O178 C174 1.260 . S
C179 O170 1.240 . S
C179 O171 1.252 . S
O180 In169 2.294 . S
O180 C173 1.240 . S
O181 In169 2.326 . S
O181 C173 1.252 . S
In182 O183 2.294 . S
In182 O184 2.326 . S
In182 O188 2.266 . S
In182 O189 2.326 . S
In182 O190 2.266 . S
In182 O191 2.326 . S
In182 O193 2.294 . S
In182 O194 2.326 . S
O183 In182 2.294 . S
O183 C192 1.240 . S
O184 In182 2.326 . S
O184 C192 1.252 . S
C185 O188 1.252 . S
C185 O189 1.260 . S
C186 O193 1.240 . S
C186 O194 1.252 . S
C187 O190 1.252 . S
C187 O191 1.260 . S
O188 In182 2.266 . S
O188 C185 1.252 . S
O189 In182 2.326 . S
O189 C185 1.260 . S
O190 In182 2.266 . S
O190 C187 1.252 . S
O191 In182 2.326 . S
O191 C187 1.260 . S
C192 O183 1.240 . S
C192 O184 1.252 . S
O193 In182 2.294 . S
O193 C186 1.240 . S
O194 In182 2.326 . S
O194 C186 1.252 . S
In195 O196 2.294 . S
In195 O197 2.326 . S
In195 O201 2.266 . S
In195 O202 2.326 . S
In195 O203 2.266 . S
In195 O204 2.326 . S
In195 O206 2.294 . S
In195 O207 2.326 . S
O196 In195 2.294 . S
O196 C205 1.240 . S
O197 In195 2.326 . S
O197 C205 1.252 . S
C198 O201 1.252 . S
C198 O202 1.260 . S
C199 O206 1.240 . S
C199 O207 1.252 . S
C200 O203 1.252 . S
C200 O204 1.260 . S
O201 In195 2.266 . S
O201 C198 1.252 . S
O202 In195 2.326 . S
O202 C198 1.260 . S
O203 In195 2.266 . S
O203 C200 1.252 . S
O204 In195 2.326 . S
O204 C200 1.260 . S
C205 O196 1.240 . S
C205 O197 1.252 . S
O206 In195 2.294 . S
O206 C199 1.240 . S
O207 In195 2.326 . S
O207 C199 1.252 . S
In208 O209 2.294 . S
In208 O210 2.326 . S
In208 O214 2.266 . S
In208 O215 2.326 . S
In208 O216 2.266 . S
In208 O217 2.326 . S
In208 O219 2.294 1_545 S
In208 O220 2.317 1_545 S
O209 In208 2.294 . S
O209 C218 1.240 . S
O210 In208 2.326 . S
O210 C218 1.252 . S
C211 O214 1.252 . S
C211 O215 1.260 . S
C212 O219 1.240 . S
C212 O220 1.274 . S
C213 O216 1.252 . S
C213 O217 1.260 . S
O214 In208 2.266 . S
O214 C211 1.252 . S
O215 In208 2.326 . S
O215 C211 1.260 . S
O216 In208 2.266 . S
O216 C213 1.252 . S
O217 In208 2.326 . S
O217 C213 1.260 . S
C218 O209 1.240 . S
C218 O210 1.252 . S
O219 In208 2.294 1_565 S
O219 C212 1.240 . S
O220 In208 2.317 1_565 S
O220 C212 1.274 . S
In221 O222 2.294 . S
In221 O223 2.326 . S
In221 O227 2.266 . S
In221 O228 2.326 . S
In221 O229 2.266 1_655 S
In221 O230 2.305 1_655 S
In221 O232 2.294 . S
In221 O233 2.326 . S
O222 In221 2.294 . S
O222 C231 1.240 . S
O223 In221 2.326 . S
O223 C231 1.252 . S
C224 O227 1.252 . S
C224 O228 1.260 . S
C225 O232 1.240 . S
C225 O233 1.252 . S
C226 O229 1.252 . S
C226 O230 1.262 . S
O227 In221 2.266 . S
O227 C224 1.252 . S
O228 In221 2.326 . S
O228 C224 1.260 . S
O229 In221 2.266 1_455 S
O229 C226 1.252 . S
O230 In221 2.305 1_455 S
O230 C226 1.262 . S
C231 O222 1.240 . S
C231 O223 1.252 . S
O232 In221 2.294 . S
O232 C225 1.240 . S
O233 In221 2.326 . S
O233 C225 1.252 . S
C234 C235 1.560 . S
C234 H295 0.959 . S
C234 H296 0.959 . S
C234 H297 0.960 . S
C235 C234 1.560 . S
C235 O290 1.426 . S
C235 H294 0.980 . S
C236 C237 1.407 . S
C236 C241 1.418 . S
C236 O290 1.334 . S
C237 C236 1.407 . S
C237 C238 1.360 . S
C237 H298 0.929 . S
C238 C237 1.360 . S
C238 C239 1.401 . S
C238 C242 1.527 . S
C239 C238 1.401 . S
C239 C240 1.405 . S
C239 C272 1.587 . S
C240 C239 1.405 . S
C240 C241 1.332 . S
C240 C243 1.496 . S
C241 C236 1.418 . S
C241 C240 1.332 . S
C241 H299 0.929 . S
C242 C238 1.527 . S
C242 H300 0.959 . S
C242 H301 0.961 . S
C242 H302 0.961 . S
C243 C240 1.496 . S
C243 H303 0.960 . S
C243 H304 0.960 . S
C243 H305 0.961 . S
C244 C245 1.517 . S
C244 H307 0.961 . S
C244 H308 0.960 . S
C244 H309 0.959 . S
C245 C244 1.517 . S
C245 O293 1.468 . S
C245 H306 0.980 . S
C246 C247 1.349 . S
C246 C251 1.367 . S
C246 O293 1.408 . S
C247 C246 1.349 . S
C247 C248 1.407 . S
C247 H310 0.930 . S
C248 C247 1.407 . S
C248 C249 1.449 . S
C248 C252 1.535 . S
C249 C248 1.449 . S
C249 C250 1.384 . S
C249 C274 1.553 . S
C250 C249 1.384 . S
C250 C251 1.364 . S
C250 C253 1.450 . S
C251 C246 1.367 . S
C251 C250 1.364 . S
C251 H311 0.931 . S
C252 C248 1.535 . S
C252 H312 0.959 . S
C252 H313 0.961 . S
C252 H314 0.959 . S
C253 C250 1.450 . S
C253 H315 0.960 . S
C253 H316 0.960 . S
C253 H317 0.960 . S
C254 C255 1.309 . S
C254 C259 1.304 . S
C254 O292 1.435 . S
C255 C254 1.309 . S
C255 C256 1.476 . S
C255 H319 0.930 . S
C256 C255 1.476 . S
C256 C257 1.400 . S
C256 C260 1.567 . S
C257 C256 1.400 . S
C257 C258 1.373 . S
C257 C279 1.432 . S
C258 C257 1.373 . S
C258 C259 1.339 . S
C258 C261 1.530 . S
C259 C254 1.304 . S
C259 C258 1.339 . S
C259 H320 0.930 . S
C260 C256 1.567 . S
C260 H321 0.961 . S
C260 H322 0.960 . S
C260 H323 0.958 . S
C261 C258 1.530 . S
C261 H324 0.961 . S
C261 H325 0.960 . S
C261 H326 0.960 . S
C262 C263 1.530 . S
C262 H328 0.961 . S
C262 H329 0.961 . S
C262 H330 0.959 . S
C263 C262 1.530 . S
C263 O291 1.412 . S
C263 H327 0.980 . S
C264 C265 1.288 . S
C264 C269 1.377 . S
C264 O291 1.393 . S
C265 C264 1.288 . S
C265 C266 1.369 . S
C265 H331 0.932 . S
C266 C265 1.369 . S
C266 C267 1.398 . S
C266 C270 1.527 . S
C267 C266 1.398 . S
C267 C268 1.380 . S
C267 C281 1.497 . S
C268 C267 1.380 . S
C268 C269 1.383 . S
C268 C271 1.603 . S
C269 C264 1.377 . S
C269 C268 1.383 . S
C269 H332 0.929 . S
C270 C266 1.527 . S
C270 H333 0.961 . S
C270 H334 0.959 . S
C270 H335 0.959 . S
C271 C268 1.603 . S
C271 H336 0.960 . S
C271 H337 0.962 . S
C271 H338 0.961 . S
C272 C239 1.587 . S
C272 C273 1.360 . S
C272 C285 1.412 . S
C273 C272 1.360 . S
C273 C274 1.365 . S
C273 H339 0.929 . S
C274 C249 1.553 . S
C274 C273 1.365 . S
C274 C275 1.404 . S
C275 C274 1.404 . S
C275 C276 1.395 . S
C275 C286 1.451 . S
C276 C275 1.395 . S
C276 C277 1.322 . S
C276 H340 0.930 . S
C277 C276 1.322 . S
C277 C278 1.459 . S
C277 H341 0.929 . S
C278 C277 1.459 . S
C278 C279 1.445 . S
C278 C287 1.395 . S
C279 C257 1.432 . S
C279 C278 1.445 . S
C279 C280 1.370 . S
C280 C279 1.370 . S
C280 C281 1.438 . S
C280 H342 0.930 . S
C281 C267 1.497 . S
C281 C280 1.438 . S
C281 C282 1.360 . S
C282 C281 1.360 . S
C282 C283 1.401 . S
C282 C287 1.446 . S
C283 C282 1.401 . S
C283 C284 1.347 . S
C283 H343 0.929 . S
C284 C283 1.347 . S
C284 C285 1.455 . S
C284 H344 0.930 . S
C285 C272 1.412 . S
C285 C284 1.455 . S
C285 C286 1.331 . S
C286 C275 1.451 . S
C286 C285 1.331 . S
C286 C287 1.497 . S
C287 C278 1.395 . S
C287 C282 1.446 . S
C287 C286 1.497 . S
C288 C289 1.582 . S
C288 H345 0.962 . S
C288 H346 0.959 . S
C288 H347 0.958 . S
C289 C288 1.582 . S
C289 O292 1.458 . S
C289 H318 0.980 . S
O290 C235 1.426 . S
O290 C236 1.334 . S
O291 C263 1.412 . S
O291 C264 1.393 . S
O292 C254 1.435 . S
O292 C289 1.458 . S
O293 C245 1.468 . S
O293 C246 1.408 . S
H294 C235 0.980 . S
H295 C234 0.959 . S
H296 C234 0.959 . S
H297 C234 0.960 . S
H298 C237 0.929 . S
H299 C241 0.929 . S
H300 C242 0.959 . S
H301 C242 0.961 . S
H302 C242 0.961 . S
H303 C243 0.960 . S
H304 C243 0.960 . S
H305 C243 0.961 . S
H306 C245 0.980 . S
H307 C244 0.961 . S
H308 C244 0.960 . S
H309 C244 0.959 . S
H310 C247 0.930 . S
H311 C251 0.931 . S
H312 C252 0.959 . S
H313 C252 0.961 . S
H314 C252 0.959 . S
H315 C253 0.960 . S
H316 C253 0.960 . S
H317 C253 0.960 . S
H318 C289 0.980 . S
H319 C255 0.930 . S
H320 C259 0.930 . S
H321 C260 0.961 . S
H322 C260 0.960 . S
H323 C260 0.958 . S
H324 C261 0.961 . S
H325 C261 0.960 . S
H326 C261 0.960 . S
H327 C263 0.980 . S
H328 C262 0.961 . S
H329 C262 0.961 . S
H330 C262 0.959 . S
H331 C265 0.932 . S
H332 C269 0.929 . S
H333 C270 0.961 . S
H334 C270 0.959 . S
H335 C270 0.959 . S
H336 C271 0.960 . S
H337 C271 0.962 . S
H338 C271 0.961 . S
H339 C273 0.929 . S
H340 C276 0.930 . S
H341 C277 0.929 . S
H342 C280 0.930 . S
H343 C283 0.929 . S
H344 C284 0.930 . S
H345 C288 0.962 . S
H346 C288 0.959 . S
H347 C288 0.958 . S
C348 C349 1.560 . S
C348 H409 0.959 . S
C348 H410 0.959 . S
C348 H411 0.960 . S
C349 C348 1.560 . S
C349 O404 1.426 . S
C349 H408 0.980 . S
C350 C351 1.407 . S
C350 C355 1.418 . S
C350 O404 1.334 . S
C351 C350 1.407 . S
C351 C352 1.360 . S
C351 H412 0.929 . S
C352 C351 1.360 . S
C352 C353 1.401 . S
C352 C356 1.527 . S
C353 C352 1.401 . S
C353 C354 1.405 . S
C353 C386 1.587 . S
C354 C353 1.405 . S
C354 C355 1.332 . S
C354 C357 1.496 . S
C355 C350 1.418 . S
C355 C354 1.332 . S
C355 H413 0.929 . S
C356 C352 1.527 . S
C356 H414 0.959 . S
C356 H415 0.961 . S
C356 H416 0.961 . S
C357 C354 1.496 . S
C357 H417 0.960 . S
C357 H418 0.960 . S
C357 H419 0.961 . S
C358 C359 1.517 . S
C358 H421 0.961 . S
C358 H422 0.960 . S
C358 H423 0.959 . S
C359 C358 1.517 . S
C359 O407 1.468 . S
C359 H420 0.980 . S
C360 C361 1.349 . S
C360 C365 1.367 . S
C360 O407 1.408 . S
C361 C360 1.349 . S
C361 C362 1.407 . S
C361 H424 0.930 . S
C362 C361 1.407 . S
C362 C363 1.449 . S
C362 C366 1.535 . S
C363 C362 1.449 . S
C363 C364 1.384 . S
C363 C388 1.553 . S
C364 C363 1.384 . S
C364 C365 1.364 . S
C364 C367 1.450 . S
C365 C360 1.367 . S
C365 C364 1.364 . S
C365 H425 0.931 . S
C366 C362 1.535 . S
C366 H426 0.959 . S
C366 H427 0.961 . S
C366 H428 0.959 . S
C367 C364 1.450 . S
C367 H429 0.960 . S
C367 H430 0.960 . S
C367 H431 0.960 . S
C368 C369 1.309 . S
C368 C373 1.304 . S
C368 O406 1.435 . S
C369 C368 1.309 . S
C369 C370 1.476 . S
C369 H433 0.930 . S
C370 C369 1.476 . S
C370 C371 1.400 . S
C370 C374 1.567 . S
C371 C370 1.400 . S
C371 C372 1.373 . S
C371 C393 1.432 . S
C372 C371 1.373 . S
C372 C373 1.339 . S
C372 C375 1.530 . S
C373 C368 1.304 . S
C373 C372 1.339 . S
C373 H434 0.930 . S
C374 C370 1.567 . S
C374 H435 0.961 . S
C374 H436 0.960 . S
C374 H437 0.958 . S
C375 C372 1.530 . S
C375 H438 0.961 . S
C375 H439 0.960 . S
C375 H440 0.960 . S
C376 C377 1.530 . S
C376 H442 0.961 . S
C376 H443 0.961 . S
C376 H444 0.959 . S
C377 C376 1.530 . S
C377 O405 1.412 . S
C377 H441 0.980 . S
C378 C379 1.288 . S
C378 C383 1.377 . S
C378 O405 1.393 . S
C379 C378 1.288 . S
C379 C380 1.369 . S
C379 H445 0.932 . S
C380 C379 1.369 . S
C380 C381 1.398 . S
C380 C384 1.527 . S
C381 C380 1.398 . S
C381 C382 1.380 . S
C381 C395 1.497 . S
C382 C381 1.380 . S
C382 C383 1.383 . S
C382 C385 1.603 . S
C383 C378 1.377 . S
C383 C382 1.383 . S
C383 H446 0.929 . S
C384 C380 1.527 . S
C384 H447 0.961 . S
C384 H448 0.959 . S
C384 H449 0.959 . S
C385 C382 1.603 . S
C385 H450 0.960 . S
C385 H451 0.962 . S
C385 H452 0.961 . S
C386 C353 1.587 . S
C386 C387 1.360 . S
C386 C399 1.412 . S
C387 C386 1.360 . S
C387 C388 1.365 . S
C387 H453 0.929 . S
C388 C363 1.553 . S
C388 C387 1.365 . S
C388 C389 1.404 . S
C389 C388 1.404 . S
C389 C390 1.395 . S
C389 C400 1.451 . S
C390 C389 1.395 . S
C390 C391 1.322 . S
C390 H454 0.930 . S
C391 C390 1.322 . S
C391 C392 1.459 . S
C391 H455 0.929 . S
C392 C391 1.459 . S
C392 C393 1.445 . S
C392 C401 1.395 . S
C393 C371 1.432 . S
C393 C392 1.445 . S
C393 C394 1.370 . S
C394 C393 1.370 . S
C394 C395 1.438 . S
C394 H456 0.930 . S
C395 C381 1.497 . S
C395 C394 1.438 . S
C395 C396 1.360 . S
C396 C395 1.360 . S
C396 C397 1.401 . S
C396 C401 1.446 . S
C397 C396 1.401 . S
C397 C398 1.347 . S
C397 H457 0.929 . S
C398 C397 1.347 . S
C398 C399 1.455 . S
C398 H458 0.930 . S
C399 C386 1.412 . S
C399 C398 1.455 . S
C399 C400 1.331 . S
C400 C389 1.451 . S
C400 C399 1.331 . S
C400 C401 1.497 . S
C401 C392 1.395 . S
C401 C396 1.446 . S
C401 C400 1.497 . S
C402 C403 1.582 . S
C402 H459 0.962 . S
C402 H460 0.959 . S
C402 H461 0.958 . S
C403 C402 1.582 . S
C403 O406 1.458 . S
C403 H432 0.980 . S
O404 C349 1.426 . S
O404 C350 1.334 . S
O405 C377 1.412 . S
O405 C378 1.393 . S
O406 C368 1.435 . S
O406 C403 1.458 . S
O407 C359 1.468 . S
O407 C360 1.408 . S
H408 C349 0.980 . S
H409 C348 0.959 . S
H410 C348 0.959 . S
H411 C348 0.960 . S
H412 C351 0.929 . S
H413 C355 0.929 . S
H414 C356 0.959 . S
H415 C356 0.961 . S
H416 C356 0.961 . S
H417 C357 0.960 . S
H418 C357 0.960 . S
H419 C357 0.961 . S
H420 C359 0.980 . S
H421 C358 0.961 . S
H422 C358 0.960 . S
H423 C358 0.959 . S
H424 C361 0.930 . S
H425 C365 0.931 . S
H426 C366 0.959 . S
H427 C366 0.961 . S
H428 C366 0.959 . S
H429 C367 0.960 . S
H430 C367 0.960 . S
H431 C367 0.960 . S
H432 C403 0.980 . S
H433 C369 0.930 . S
H434 C373 0.930 . S
H435 C374 0.961 . S
H436 C374 0.960 . S
H437 C374 0.958 . S
H438 C375 0.961 . S
H439 C375 0.960 . S
H440 C375 0.960 . S
H441 C377 0.980 . S
H442 C376 0.961 . S
H443 C376 0.961 . S
H444 C376 0.959 . S
H445 C379 0.932 . S
H446 C383 0.929 . S
H447 C384 0.961 . S
H448 C384 0.959 . S
H449 C384 0.959 . S
H450 C385 0.960 . S
H451 C385 0.962 . S
H452 C385 0.961 . S
H453 C387 0.929 . S
H454 C390 0.930 . S
H455 C391 0.929 . S
H456 C394 0.930 . S
H457 C397 0.929 . S
H458 C398 0.930 . S
H459 C402 0.962 . S
H460 C402 0.959 . S
H461 C402 0.958 . S
C462 C463 1.560 . S
C462 H523 0.959 . S
C462 H524 0.959 . S
C462 H525 0.960 . S
C463 C462 1.560 . S
C463 O518 1.426 . S
C463 H522 0.980 . S
C464 C465 1.407 . S
C464 C469 1.418 . S
C464 O518 1.334 . S
C465 C464 1.407 . S
C465 C466 1.360 . S
C465 H526 0.929 . S
C466 C465 1.360 . S
C466 C467 1.401 . S
C466 C470 1.527 . S
C467 C466 1.401 . S
C467 C468 1.405 . S
C467 C500 1.587 . S
C468 C467 1.405 . S
C468 C469 1.332 . S
C468 C471 1.496 . S
C469 C464 1.418 . S
C469 C468 1.332 . S
C469 H527 0.929 . S
C470 C466 1.527 . S
C470 H528 0.959 . S
C470 H529 0.961 . S
C470 H530 0.961 . S
C471 C468 1.496 . S
C471 H531 0.960 . S
C471 H532 0.960 . S
C471 H533 0.961 . S
C472 C473 1.517 . S
C472 H535 0.961 . S
C472 H536 0.960 . S
C472 H537 0.959 . S
C473 C472 1.517 . S
C473 O521 1.468 . S
C473 H534 0.980 . S
C474 C475 1.349 . S
C474 C479 1.367 . S
C474 O521 1.408 . S
C475 C474 1.349 . S
C475 C476 1.407 . S
C475 H538 0.930 . S
C476 C475 1.407 . S
C476 C477 1.449 . S
C476 C480 1.535 . S
C477 C476 1.449 . S
C477 C478 1.384 . S
C477 C502 1.553 . S
C478 C477 1.384 . S
C478 C479 1.364 . S
C478 C481 1.450 . S
C479 C474 1.367 . S
C479 C478 1.364 . S
C479 H539 0.931 . S
C480 C476 1.535 . S
C480 H540 0.959 . S
C480 H541 0.961 . S
C480 H542 0.959 . S
C481 C478 1.450 . S
C481 H543 0.960 . S
C481 H544 0.960 . S
C481 H545 0.960 . S
C482 C483 1.309 . S
C482 C487 1.304 . S
C482 O520 1.435 . S
C483 C482 1.309 . S
C483 C484 1.476 . S
C483 H547 0.930 . S
C484 C483 1.476 . S
C484 C485 1.400 . S
C484 C488 1.567 . S
C485 C484 1.400 . S
C485 C486 1.373 . S
C485 C507 1.432 . S
C486 C485 1.373 . S
C486 C487 1.339 . S
C486 C489 1.530 . S
C487 C482 1.304 . S
C487 C486 1.339 . S
C487 H548 0.930 . S
C488 C484 1.567 . S
C488 H549 0.961 . S
C488 H550 0.960 . S
C488 H551 0.958 . S
C489 C486 1.530 . S
C489 H552 0.961 . S
C489 H553 0.960 . S
C489 H554 0.960 . S
C490 C491 1.530 . S
C490 H556 0.961 . S
C490 H557 0.961 . S
C490 H558 0.959 . S
C491 C490 1.530 . S
C491 O519 1.412 . S
C491 H555 0.980 . S
C492 C493 1.288 . S
C492 C497 1.377 . S
C492 O519 1.393 . S
C493 C492 1.288 . S
C493 C494 1.369 . S
C493 H559 0.932 . S
C494 C493 1.369 . S
C494 C495 1.398 . S
C494 C498 1.527 . S
C495 C494 1.398 . S
C495 C496 1.380 . S
C495 C509 1.497 . S
C496 C495 1.380 . S
C496 C497 1.383 . S
C496 C499 1.603 . S
C497 C492 1.377 . S
C497 C496 1.383 . S
C497 H560 0.929 . S
C498 C494 1.527 . S
C498 H561 0.961 . S
C498 H562 0.959 . S
C498 H563 0.959 . S
C499 C496 1.603 . S
C499 H564 0.960 . S
C499 H565 0.962 . S
C499 H566 0.961 . S
C500 C467 1.587 . S
C500 C501 1.360 . S
C500 C513 1.412 . S
C501 C500 1.360 . S
C501 C502 1.365 . S
C501 H567 0.929 . S
C502 C477 1.553 . S
C502 C501 1.365 . S
C502 C503 1.404 . S
C503 C502 1.404 . S
C503 C504 1.395 . S
C503 C514 1.451 . S
C504 C503 1.395 . S
C504 C505 1.322 . S
C504 H568 0.930 . S
C505 C504 1.322 . S
C505 C506 1.459 . S
C505 H569 0.929 . S
C506 C505 1.459 . S
C506 C507 1.445 . S
C506 C515 1.395 . S
C507 C485 1.432 . S
C507 C506 1.445 . S
C507 C508 1.370 . S
C508 C507 1.370 . S
C508 C509 1.438 . S
C508 H570 0.930 . S
C509 C495 1.497 . S
C509 C508 1.438 . S
C509 C510 1.360 . S
C510 C509 1.360 . S
C510 C511 1.401 . S
C510 C515 1.446 . S
C511 C510 1.401 . S
C511 C512 1.347 . S
C511 H571 0.929 . S
C512 C511 1.347 . S
C512 C513 1.455 . S
C512 H572 0.930 . S
C513 C500 1.412 . S
C513 C512 1.455 . S
C513 C514 1.331 . S
C514 C503 1.451 . S
C514 C513 1.331 . S
C514 C515 1.497 . S
C515 C506 1.395 . S
C515 C510 1.446 . S
C515 C514 1.497 . S
C516 C517 1.582 . S
C516 H573 0.962 . S
C516 H574 0.959 . S
C516 H575 0.958 . S
C517 C516 1.582 . S
C517 O520 1.458 . S
C517 H546 0.980 . S
O518 C463 1.426 . S
O518 C464 1.334 . S
O519 C491 1.412 . S
O519 C492 1.393 . S
O520 C482 1.435 . S
O520 C517 1.458 . S
O521 C473 1.468 . S
O521 C474 1.408 . S
H522 C463 0.980 . S
H523 C462 0.959 . S
H524 C462 0.959 . S
H525 C462 0.960 . S
H526 C465 0.929 . S
H527 C469 0.929 . S
H528 C470 0.959 . S
H529 C470 0.961 . S
H530 C470 0.961 . S
H531 C471 0.960 . S
H532 C471 0.960 . S
H533 C471 0.961 . S
H534 C473 0.980 . S
H535 C472 0.961 . S
H536 C472 0.960 . S
H537 C472 0.959 . S
H538 C475 0.930 . S
H539 C479 0.931 . S
H540 C480 0.959 . S
H541 C480 0.961 . S
H542 C480 0.959 . S
H543 C481 0.960 . S
H544 C481 0.960 . S
H545 C481 0.960 . S
H546 C517 0.980 . S
H547 C483 0.930 . S
H548 C487 0.930 . S
H549 C488 0.961 . S
H550 C488 0.960 . S
H551 C488 0.958 . S
H552 C489 0.961 . S
H553 C489 0.960 . S
H554 C489 0.960 . S
H555 C491 0.980 . S
H556 C490 0.961 . S
H557 C490 0.961 . S
H558 C490 0.959 . S
H559 C493 0.932 . S
H560 C497 0.929 . S
H561 C498 0.961 . S
H562 C498 0.959 . S
H563 C498 0.959 . S
H564 C499 0.960 . S
H565 C499 0.962 . S
H566 C499 0.961 . S
H567 C501 0.929 . S
H568 C504 0.930 . S
H569 C505 0.929 . S
H570 C508 0.930 . S
H571 C511 0.929 . S
H572 C512 0.930 . S
H573 C516 0.962 . S
H574 C516 0.959 . S
H575 C516 0.958 . S
C576 C577 1.560 . S
C576 H637 0.959 . S
C576 H638 0.959 . S
C576 H639 0.960 . S
C577 C576 1.560 . S
C577 O632 1.426 . S
C577 H636 0.980 . S
C578 C579 1.407 . S
C578 C583 1.418 . S
C578 O632 1.334 . S
C579 C578 1.407 . S
C579 C580 1.360 . S
C579 H640 0.929 . S
C580 C579 1.360 . S
C580 C581 1.401 . S
C580 C584 1.527 . S
C581 C580 1.401 . S
C581 C582 1.405 . S
C581 C614 1.587 . S
C582 C581 1.405 . S
C582 C583 1.332 . S
C582 C585 1.496 . S
C583 C578 1.418 . S
C583 C582 1.332 . S
C583 H641 0.929 . S
C584 C580 1.527 . S
C584 H642 0.959 . S
C584 H643 0.961 . S
C584 H644 0.961 . S
C585 C582 1.496 . S
C585 H645 0.960 . S
C585 H646 0.960 . S
C585 H647 0.961 . S
C586 C587 1.517 . S
C586 H649 0.961 . S
C586 H650 0.960 . S
C586 H651 0.959 . S
C587 C586 1.517 . S
C587 O635 1.468 . S
C587 H648 0.980 . S
C588 C589 1.349 . S
C588 C593 1.367 . S
C588 O635 1.408 . S
C589 C588 1.349 . S
C589 C590 1.407 . S
C589 H652 0.930 . S
C590 C589 1.407 . S
C590 C591 1.449 . S
C590 C594 1.535 . S
C591 C590 1.449 . S
C591 C592 1.384 . S
C591 C616 1.553 . S
C592 C591 1.384 . S
C592 C593 1.364 . S
C592 C595 1.450 . S
C593 C588 1.367 . S
C593 C592 1.364 . S
C593 H653 0.931 . S
C594 C590 1.535 . S
C594 H654 0.959 . S
C594 H655 0.961 . S
C594 H656 0.959 . S
C595 C592 1.450 . S
C595 H657 0.960 . S
C595 H658 0.960 . S
C595 H659 0.960 . S
C596 C597 1.309 . S
C596 C601 1.304 . S
C596 O634 1.435 . S
C597 C596 1.309 . S
C597 C598 1.476 . S
C597 H661 0.930 . S
C598 C597 1.476 . S
C598 C599 1.400 . S
C598 C602 1.567 . S
C599 C598 1.400 . S
C599 C600 1.373 . S
C599 C621 1.432 . S
C600 C599 1.373 . S
C600 C601 1.339 . S
C600 C603 1.530 . S
C601 C596 1.304 . S
C601 C600 1.339 . S
C601 H662 0.930 . S
C602 C598 1.567 . S
C602 H663 0.961 . S
C602 H664 0.960 . S
C602 H665 0.958 . S
C603 C600 1.530 . S
C603 H666 0.961 . S
C603 H667 0.960 . S
C603 H668 0.960 . S
C604 C605 1.530 . S
C604 H670 0.961 . S
C604 H671 0.961 . S
C604 H672 0.959 . S
C605 C604 1.530 . S
C605 O633 1.412 . S
C605 H669 0.980 . S
C606 C607 1.288 . S
C606 C611 1.377 . S
C606 O633 1.393 . S
C607 C606 1.288 . S
C607 C608 1.369 . S
C607 H673 0.932 . S
C608 C607 1.369 . S
C608 C609 1.398 . S
C608 C612 1.527 . S
C609 C608 1.398 . S
C609 C610 1.380 . S
C609 C623 1.497 . S
C610 C609 1.380 . S
C610 C611 1.383 . S
C610 C613 1.603 . S
C611 C606 1.377 . S
C611 C610 1.383 . S
C611 H674 0.929 . S
C612 C608 1.527 . S
C612 H675 0.961 . S
C612 H676 0.959 . S
C612 H677 0.959 . S
C613 C610 1.603 . S
C613 H678 0.960 . S
C613 H679 0.962 . S
C613 H680 0.961 . S
C614 C581 1.587 . S
C614 C615 1.360 . S
C614 C627 1.412 . S
C615 C614 1.360 . S
C615 C616 1.365 . S
C615 H681 0.929 . S
C616 C591 1.553 . S
C616 C615 1.365 . S
C616 C617 1.404 . S
C617 C616 1.404 . S
C617 C618 1.395 . S
C617 C628 1.451 . S
C618 C617 1.395 . S
C618 C619 1.322 . S
C618 H682 0.930 . S
C619 C618 1.322 . S
C619 C620 1.459 . S
C619 H683 0.929 . S
C620 C619 1.459 . S
C620 C621 1.445 . S
C620 C629 1.395 . S
C621 C599 1.432 . S
C621 C620 1.445 . S
C621 C622 1.370 . S
C622 C621 1.370 . S
C622 C623 1.438 . S
C622 H684 0.930 . S
C623 C609 1.497 . S
C623 C622 1.438 . S
C623 C624 1.360 . S
C624 C623 1.360 . S
C624 C625 1.401 . S
C624 C629 1.446 . S
C625 C624 1.401 . S
C625 C626 1.347 . S
C625 H685 0.929 . S
C626 C625 1.347 . S
C626 C627 1.455 . S
C626 H686 0.930 . S
C627 C614 1.412 . S
C627 C626 1.455 . S
C627 C628 1.331 . S
C628 C617 1.451 . S
C628 C627 1.331 . S
C628 C629 1.497 . S
C629 C620 1.395 . S
C629 C624 1.446 . S
C629 C628 1.497 . S
C630 C631 1.582 . S
C630 H687 0.962 . S
C630 H688 0.959 . S
C630 H689 0.958 . S
C631 C630 1.582 . S
C631 O634 1.458 . S
C631 H660 0.980 . S
O632 C577 1.426 . S
O632 C578 1.334 . S
O633 C605 1.412 . S
O633 C606 1.393 . S
O634 C596 1.435 . S
O634 C631 1.458 . S
O635 C587 1.468 . S
O635 C588 1.408 . S
H636 C577 0.980 . S
H637 C576 0.959 . S
H638 C576 0.959 . S
H639 C576 0.960 . S
H640 C579 0.929 . S
H641 C583 0.929 . S
H642 C584 0.959 . S
H643 C584 0.961 . S
H644 C584 0.961 . S
H645 C585 0.960 . S
H646 C585 0.960 . S
H647 C585 0.961 . S
H648 C587 0.980 . S
H649 C586 0.961 . S
H650 C586 0.960 . S
H651 C586 0.959 . S
H652 C589 0.930 . S
H653 C593 0.931 . S
H654 C594 0.959 . S
H655 C594 0.961 . S
H656 C594 0.959 . S
H657 C595 0.960 . S
H658 C595 0.960 . S
H659 C595 0.960 . S
H660 C631 0.980 . S
H661 C597 0.930 . S
H662 C601 0.930 . S
H663 C602 0.961 . S
H664 C602 0.960 . S
H665 C602 0.958 . S
H666 C603 0.961 . S
H667 C603 0.960 . S
H668 C603 0.960 . S
H669 C605 0.980 . S
H670 C604 0.961 . S
H671 C604 0.961 . S
H672 C604 0.959 . S
H673 C607 0.932 . S
H674 C611 0.929 . S
H675 C612 0.961 . S
H676 C612 0.959 . S
H677 C612 0.959 . S
H678 C613 0.960 . S
H679 C613 0.962 . S
H680 C613 0.961 . S
H681 C615 0.929 . S
H682 C618 0.930 . S
H683 C619 0.929 . S
H684 C622 0.930 . S
H685 C625 0.929 . S
H686 C626 0.930 . S
H687 C630 0.962 . S
H688 C630 0.959 . S
H689 C630 0.958 . S
C690 C691 1.560 . S
C690 H751 0.959 . S
C690 H752 0.959 . S
C690 H753 0.960 . S
C691 C690 1.560 . S
C691 O746 1.426 . S
C691 H750 0.980 . S
C692 C693 1.407 . S
C692 C697 1.418 . S
C692 O746 1.334 . S
C693 C692 1.407 . S
C693 C694 1.360 . S
C693 H754 0.929 . S
C694 C693 1.360 . S
C694 C695 1.401 . S
C694 C698 1.527 . S
C695 C694 1.401 . S
C695 C696 1.405 . S
C695 C728 1.587 . S
C696 C695 1.405 . S
C696 C697 1.332 . S
C696 C699 1.496 . S
C697 C692 1.418 . S
C697 C696 1.332 . S
C697 H755 0.929 . S
C698 C694 1.527 . S
C698 H756 0.959 . S
C698 H757 0.961 . S
C698 H758 0.961 . S
C699 C696 1.496 . S
C699 H759 0.960 . S
C699 H760 0.960 . S
C699 H761 0.961 . S
C700 C701 1.517 . S
C700 H763 0.961 . S
C700 H764 0.960 . S
C700 H765 0.959 . S
C701 C700 1.517 . S
C701 O749 1.468 . S
C701 H762 0.980 . S
C702 C703 1.349 . S
C702 C707 1.367 . S
C702 O749 1.408 . S
C703 C702 1.349 . S
C703 C704 1.407 . S
C703 H766 0.930 . S
C704 C703 1.407 . S
C704 C705 1.449 . S
C704 C708 1.535 . S
C705 C704 1.449 . S
C705 C706 1.384 . S
C705 C730 1.553 . S
C706 C705 1.384 . S
C706 C707 1.364 . S
C706 C709 1.450 . S
C707 C702 1.367 . S
C707 C706 1.364 . S
C707 H767 0.931 . S
C708 C704 1.535 . S
C708 H768 0.959 . S
C708 H769 0.961 . S
C708 H770 0.959 . S
C709 C706 1.450 . S
C709 H771 0.960 . S
C709 H772 0.960 . S
C709 H773 0.960 . S
C710 C711 1.309 . S
C710 C715 1.304 . S
C710 O748 1.435 . S
C711 C710 1.309 . S
C711 C712 1.476 . S
C711 H775 0.930 . S
C712 C711 1.476 . S
C712 C713 1.400 . S
C712 C716 1.567 . S
C713 C712 1.400 . S
C713 C714 1.373 . S
C713 C735 1.432 . S
C714 C713 1.373 . S
C714 C715 1.339 . S
C714 C717 1.530 . S
C715 C710 1.304 . S
C715 C714 1.339 . S
C715 H776 0.930 . S
C716 C712 1.567 . S
C716 H777 0.961 . S
C716 H778 0.960 . S
C716 H779 0.958 . S
C717 C714 1.530 . S
C717 H780 0.961 . S
C717 H781 0.960 . S
C717 H782 0.960 . S
C718 C719 1.530 . S
C718 H784 0.961 . S
C718 H785 0.961 . S
C718 H786 0.959 . S
C719 C718 1.530 . S
C719 O747 1.412 . S
C719 H783 0.980 . S
C720 C721 1.288 . S
C720 C725 1.377 . S
C720 O747 1.393 . S
C721 C720 1.288 . S
C721 C722 1.369 . S
C721 H787 0.932 . S
C722 C721 1.369 . S
C722 C723 1.398 . S
C722 C726 1.527 . S
C723 C722 1.398 . S
C723 C724 1.380 . S
C723 C737 1.497 . S
C724 C723 1.380 . S
C724 C725 1.383 . S
C724 C727 1.603 . S
C725 C720 1.377 . S
C725 C724 1.383 . S
C725 H788 0.929 . S
C726 C722 1.527 . S
C726 H789 0.961 . S
C726 H790 0.959 . S
C726 H791 0.959 . S
C727 C724 1.603 . S
C727 H792 0.960 . S
C727 H793 0.962 . S
C727 H794 0.961 . S
C728 C695 1.587 . S
C728 C729 1.360 . S
C728 C741 1.412 . S
C729 C728 1.360 . S
C729 C730 1.365 . S
C729 H795 0.929 . S
C730 C705 1.553 . S
C730 C729 1.365 . S
C730 C731 1.404 . S
C731 C730 1.404 . S
C731 C732 1.395 . S
C731 C742 1.451 . S
C732 C731 1.395 . S
C732 C733 1.322 . S
C732 H796 0.930 . S
C733 C732 1.322 . S
C733 C734 1.459 . S
C733 H797 0.929 . S
C734 C733 1.459 . S
C734 C735 1.445 . S
C734 C743 1.395 . S
C735 C713 1.432 . S
C735 C734 1.445 . S
C735 C736 1.370 . S
C736 C735 1.370 . S
C736 C737 1.438 . S
C736 H798 0.930 . S
C737 C723 1.497 . S
C737 C736 1.438 . S
C737 C738 1.360 . S
C738 C737 1.360 . S
C738 C739 1.401 . S
C738 C743 1.446 . S
C739 C738 1.401 . S
C739 C740 1.347 . S
C739 H799 0.929 . S
C740 C739 1.347 . S
C740 C741 1.455 . S
C740 H800 0.930 . S
C741 C728 1.412 . S
C741 C740 1.455 . S
C741 C742 1.331 . S
C742 C731 1.451 . S
C742 C741 1.331 . S
C742 C743 1.497 . S
C743 C734 1.395 . S
C743 C738 1.446 . S
C743 C742 1.497 . S
C744 C745 1.582 . S
C744 H801 0.962 . S
C744 H802 0.959 . S
C744 H803 0.958 . S
C745 C744 1.582 . S
C745 O748 1.458 . S
C745 H774 0.980 . S
O746 C691 1.426 . S
O746 C692 1.334 . S
O747 C719 1.412 . S
O747 C720 1.393 . S
O748 C710 1.435 . S
O748 C745 1.458 . S
O749 C701 1.468 . S
O749 C702 1.408 . S
H750 C691 0.980 . S
H751 C690 0.959 . S
H752 C690 0.959 . S
H753 C690 0.960 . S
H754 C693 0.929 . S
H755 C697 0.929 . S
H756 C698 0.959 . S
H757 C698 0.961 . S
H758 C698 0.961 . S
H759 C699 0.960 . S
H760 C699 0.960 . S
H761 C699 0.961 . S
H762 C701 0.980 . S
H763 C700 0.961 . S
H764 C700 0.960 . S
H765 C700 0.959 . S
H766 C703 0.930 . S
H767 C707 0.931 . S
H768 C708 0.959 . S
H769 C708 0.961 . S
H770 C708 0.959 . S
H771 C709 0.960 . S
H772 C709 0.960 . S
H773 C709 0.960 . S
H774 C745 0.980 . S
H775 C711 0.930 . S
H776 C715 0.930 . S
H777 C716 0.961 . S
H778 C716 0.960 . S
H779 C716 0.958 . S
H780 C717 0.961 . S
H781 C717 0.960 . S
H782 C717 0.960 . S
H783 C719 0.980 . S
H784 C718 0.961 . S
H785 C718 0.961 . S
H786 C718 0.959 . S
H787 C721 0.932 . S
H788 C725 0.929 . S
H789 C726 0.961 . S
H790 C726 0.959 . S
H791 C726 0.959 . S
H792 C727 0.960 . S
H793 C727 0.962 . S
H794 C727 0.961 . S
H795 C729 0.929 . S
H796 C732 0.930 . S
H797 C733 0.929 . S
H798 C736 0.930 . S
H799 C739 0.929 . S
H800 C740 0.930 . S
H801 C744 0.962 . S
H802 C744 0.959 . S
H803 C744 0.958 . S
C804 C805 1.560 . S
C804 H865 0.959 . S
C804 H866 0.959 . S
C804 H867 0.960 . S
C805 C804 1.560 . S
C805 O860 1.426 . S
C805 H864 0.980 . S
C806 C807 1.407 . S
C806 C811 1.418 . S
C806 O860 1.334 . S
C807 C806 1.407 . S
C807 C808 1.360 . S
C807 H868 0.929 . S
C808 C807 1.360 . S
C808 C809 1.401 . S
C808 C812 1.527 . S
C809 C808 1.401 . S
C809 C810 1.405 . S
C809 C842 1.587 . S
C810 C809 1.405 . S
C810 C811 1.332 . S
C810 C813 1.496 . S
C811 C806 1.418 . S
C811 C810 1.332 . S
C811 H869 0.929 . S
C812 C808 1.527 . S
C812 H870 0.959 . S
C812 H871 0.961 . S
C812 H872 0.961 . S
C813 C810 1.496 . S
C813 H873 0.960 . S
C813 H874 0.960 . S
C813 H875 0.961 . S
C814 C815 1.517 . S
C814 H877 0.961 . S
C814 H878 0.960 . S
C814 H879 0.959 . S
C815 C814 1.517 . S
C815 O863 1.468 . S
C815 H876 0.980 . S
C816 C817 1.349 . S
C816 C821 1.367 . S
C816 O863 1.408 . S
C817 C816 1.349 . S
C817 C818 1.407 . S
C817 H880 0.930 . S
C818 C817 1.407 . S
C818 C819 1.449 . S
C818 C822 1.535 . S
C819 C818 1.449 . S
C819 C820 1.384 . S
C819 C844 1.553 . S
C820 C819 1.384 . S
C820 C821 1.364 . S
C820 C823 1.450 . S
C821 C816 1.367 . S
C821 C820 1.364 . S
C821 H881 0.931 . S
C822 C818 1.535 . S
C822 H882 0.959 . S
C822 H883 0.961 . S
C822 H884 0.959 . S
C823 C820 1.450 . S
C823 H885 0.960 . S
C823 H886 0.960 . S
C823 H887 0.960 . S
C824 C825 1.309 . S
C824 C829 1.304 . S
C824 O862 1.435 . S
C825 C824 1.309 . S
C825 C826 1.476 . S
C825 H889 0.930 . S
C826 C825 1.476 . S
C826 C827 1.400 . S
C826 C830 1.567 . S
C827 C826 1.400 . S
C827 C828 1.373 . S
C827 C849 1.432 . S
C828 C827 1.373 . S
C828 C829 1.339 . S
C828 C831 1.530 . S
C829 C824 1.304 . S
C829 C828 1.339 . S
C829 H890 0.930 . S
C830 C826 1.567 . S
C830 H891 0.961 . S
C830 H892 0.960 . S
C830 H893 0.958 . S
C831 C828 1.530 . S
C831 H894 0.961 . S
C831 H895 0.960 . S
C831 H896 0.960 . S
C832 C833 1.530 . S
C832 H898 0.961 . S
C832 H899 0.961 . S
C832 H900 0.959 . S
C833 C832 1.530 . S
C833 O861 1.412 . S
C833 H897 0.980 . S
C834 C835 1.288 . S
C834 C839 1.377 . S
C834 O861 1.393 . S
C835 C834 1.288 . S
C835 C836 1.369 . S
C835 H901 0.932 . S
C836 C835 1.369 . S
C836 C837 1.398 . S
C836 C840 1.527 . S
C837 C836 1.398 . S
C837 C838 1.380 . S
C837 C851 1.497 . S
C838 C837 1.380 . S
C838 C839 1.383 . S
C838 C841 1.603 . S
C839 C834 1.377 . S
C839 C838 1.383 . S
C839 H902 0.929 . S
C840 C836 1.527 . S
C840 H903 0.961 . S
C840 H904 0.959 . S
C840 H905 0.959 . S
C841 C838 1.603 . S
C841 H906 0.960 . S
C841 H907 0.962 . S
C841 H908 0.961 . S
C842 C809 1.587 . S
C842 C843 1.360 . S
C842 C855 1.412 . S
C843 C842 1.360 . S
C843 C844 1.365 . S
C843 H909 0.929 . S
C844 C819 1.553 . S
C844 C843 1.365 . S
C844 C845 1.404 . S
C845 C844 1.404 . S
C845 C846 1.395 . S
C845 C856 1.451 . S
C846 C845 1.395 . S
C846 C847 1.322 . S
C846 H910 0.930 . S
C847 C846 1.322 . S
C847 C848 1.459 . S
C847 H911 0.929 . S
C848 C847 1.459 . S
C848 C849 1.445 . S
C848 C857 1.395 . S
C849 C827 1.432 . S
C849 C848 1.445 . S
C849 C850 1.370 . S
C850 C849 1.370 . S
C850 C851 1.438 . S
C850 H912 0.930 . S
C851 C837 1.497 . S
C851 C850 1.438 . S
C851 C852 1.360 . S
C852 C851 1.360 . S
C852 C853 1.401 . S
C852 C857 1.446 . S
C853 C852 1.401 . S
C853 C854 1.347 . S
C853 H913 0.929 . S
C854 C853 1.347 . S
C854 C855 1.455 . S
C854 H914 0.930 . S
C855 C842 1.412 . S
C855 C854 1.455 . S
C855 C856 1.331 . S
C856 C845 1.451 . S
C856 C855 1.331 . S
C856 C857 1.497 . S
C857 C848 1.395 . S
C857 C852 1.446 . S
C857 C856 1.497 . S
C858 C859 1.582 . S
C858 H915 0.962 . S
C858 H916 0.959 . S
C858 H917 0.958 . S
C859 C858 1.582 . S
C859 O862 1.458 . S
C859 H888 0.980 . S
O860 C805 1.426 . S
O860 C806 1.334 . S
O861 C833 1.412 . S
O861 C834 1.393 . S
O862 C824 1.435 . S
O862 C859 1.458 . S
O863 C815 1.468 . S
O863 C816 1.408 . S
H864 C805 0.980 . S
H865 C804 0.959 . S
H866 C804 0.959 . S
H867 C804 0.960 . S
H868 C807 0.929 . S
H869 C811 0.929 . S
H870 C812 0.959 . S
H871 C812 0.961 . S
H872 C812 0.961 . S
H873 C813 0.960 . S
H874 C813 0.960 . S
H875 C813 0.961 . S
H876 C815 0.980 . S
H877 C814 0.961 . S
H878 C814 0.960 . S
H879 C814 0.959 . S
H880 C817 0.930 . S
H881 C821 0.931 . S
H882 C822 0.959 . S
H883 C822 0.961 . S
H884 C822 0.959 . S
H885 C823 0.960 . S
H886 C823 0.960 . S
H887 C823 0.960 . S
H888 C859 0.980 . S
H889 C825 0.930 . S
H890 C829 0.930 . S
H891 C830 0.961 . S
H892 C830 0.960 . S
H893 C830 0.958 . S
H894 C831 0.961 . S
H895 C831 0.960 . S
H896 C831 0.960 . S
H897 C833 0.980 . S
H898 C832 0.961 . S
H899 C832 0.961 . S
H900 C832 0.959 . S
H901 C835 0.932 . S
H902 C839 0.929 . S
H903 C840 0.961 . S
H904 C840 0.959 . S
H905 C840 0.959 . S
H906 C841 0.960 . S
H907 C841 0.962 . S
H908 C841 0.961 . S
H909 C843 0.929 . S
H910 C846 0.930 . S
H911 C847 0.929 . S
H912 C850 0.930 . S
H913 C853 0.929 . S
H914 C854 0.930 . S
H915 C858 0.962 . S
H916 C858 0.959 . S
H917 C858 0.958 . S
C918 C919 1.560 . S
C918 H979 0.959 . S
C918 H980 0.959 . S
C918 H981 0.960 . S
C919 C918 1.560 . S
C919 O974 1.426 . S
C919 H978 0.980 . S
C920 C921 1.407 . S
C920 C925 1.418 . S
C920 O974 1.334 . S
C921 C920 1.407 . S
C921 C922 1.360 . S
C921 H982 0.929 . S
C922 C921 1.360 . S
C922 C923 1.401 . S
C922 C926 1.527 . S
C923 C922 1.401 . S
C923 C924 1.405 . S
C923 C956 1.587 . S
C924 C923 1.405 . S
C924 C925 1.332 . S
C924 C927 1.496 . S
C925 C920 1.418 . S
C925 C924 1.332 . S
C925 H983 0.929 . S
C926 C922 1.527 . S
C926 H984 0.959 . S
C926 H985 0.961 . S
C926 H986 0.961 . S
C927 C924 1.496 . S
C927 H987 0.960 . S
C927 H988 0.960 . S
C927 H989 0.961 . S
C928 C929 1.517 . S
C928 H991 0.961 . S
C928 H992 0.960 . S
C928 H993 0.959 . S
C929 C928 1.517 . S
C929 O977 1.468 . S
C929 H990 0.980 . S
C930 C931 1.349 . S
C930 C935 1.367 . S
C930 O977 1.408 . S
C931 C930 1.349 . S
C931 C932 1.407 . S
C931 H994 0.930 . S
C932 C931 1.407 . S
C932 C933 1.449 . S
C932 C936 1.535 . S
C933 C932 1.449 . S
C933 C934 1.384 . S
C933 C958 1.553 . S
C934 C933 1.384 . S
C934 C935 1.364 . S
C934 C937 1.450 . S
C935 C930 1.367 . S
C935 C934 1.364 . S
C935 H995 0.931 . S
C936 C932 1.535 . S
C936 H996 0.959 . S
C936 H997 0.961 . S
C936 H998 0.959 . S
C937 C934 1.450 . S
C937 H999 0.960 . S
C937 H1000 0.960 . S
C937 H1001 0.960 . S
C938 C939 1.309 . S
C938 C943 1.304 . S
C938 O976 1.435 . S
C939 C938 1.309 . S
C939 C940 1.476 . S
C939 H1003 0.930 . S
C940 C939 1.476 . S
C940 C941 1.400 . S
C940 C944 1.567 . S
C941 C940 1.400 . S
C941 C942 1.373 . S
C941 C963 1.432 . S
C942 C941 1.373 . S
C942 C943 1.339 . S
C942 C945 1.530 . S
C943 C938 1.304 . S
C943 C942 1.339 . S
C943 H1004 0.930 . S
C944 C940 1.567 . S
C944 H1005 0.961 . S
C944 H1006 0.960 . S
C944 H1007 0.958 . S
C945 C942 1.530 . S
C945 H1008 0.961 . S
C945 H1009 0.960 . S
C945 H1010 0.960 . S
C946 C947 1.530 . S
C946 H1012 0.961 . S
C946 H1013 0.961 . S
C946 H1014 0.959 . S
C947 C946 1.530 . S
C947 O975 1.412 . S
C947 H1011 0.980 . S
C948 C949 1.288 . S
C948 C953 1.377 . S
C948 O975 1.393 . S
C949 C948 1.288 . S
C949 C950 1.369 . S
C949 H1015 0.932 . S
C950 C949 1.369 . S
C950 C951 1.398 . S
C950 C954 1.527 . S
C951 C950 1.398 . S
C951 C952 1.380 . S
C951 C965 1.497 . S
C952 C951 1.380 . S
C952 C953 1.383 . S
C952 C955 1.603 . S
C953 C948 1.377 . S
C953 C952 1.383 . S
C953 H1016 0.929 . S
C954 C950 1.527 . S
C954 H1017 0.961 . S
C954 H1018 0.959 . S
C954 H1019 0.959 . S
C955 C952 1.603 . S
C955 H1020 0.960 . S
C955 H1021 0.962 . S
C955 H1022 0.961 . S
C956 C923 1.587 . S
C956 C957 1.360 . S
C956 C969 1.412 . S
C957 C956 1.360 . S
C957 C958 1.365 . S
C957 H1023 0.929 . S
C958 C933 1.553 . S
C958 C957 1.365 . S
C958 C959 1.404 . S
C959 C958 1.404 . S
C959 C960 1.395 . S
C959 C970 1.451 . S
C960 C959 1.395 . S
C960 C961 1.322 . S
C960 H1024 0.930 . S
C961 C960 1.322 . S
C961 C962 1.459 . S
C961 H1025 0.929 . S
C962 C961 1.459 . S
C962 C963 1.445 . S
C962 C971 1.395 . S
C963 C941 1.432 . S
C963 C962 1.445 . S
C963 C964 1.370 . S
C964 C963 1.370 . S
C964 C965 1.438 . S
C964 H1026 0.930 . S
C965 C951 1.497 . S
C965 C964 1.438 . S
C965 C966 1.360 . S
C966 C965 1.360 . S
C966 C967 1.401 . S
C966 C971 1.446 . S
C967 C966 1.401 . S
C967 C968 1.347 . S
C967 H1027 0.929 . S
C968 C967 1.347 . S
C968 C969 1.455 . S
C968 H1028 0.930 . S
C969 C956 1.412 . S
C969 C968 1.455 . S
C969 C970 1.331 . S
C970 C959 1.451 . S
C970 C969 1.331 . S
C970 C971 1.497 . S
C971 C962 1.395 . S
C971 C966 1.446 . S
C971 C970 1.497 . S
C972 C973 1.582 . S
C972 H1029 0.962 . S
C972 H1030 0.959 . S
C972 H1031 0.958 . S
C973 C972 1.582 . S
C973 O976 1.458 . S
C973 H1002 0.980 . S
O974 C919 1.426 . S
O974 C920 1.334 . S
O975 C947 1.412 . S
O975 C948 1.393 . S
O976 C938 1.435 . S
O976 C973 1.458 . S
O977 C929 1.468 . S
O977 C930 1.408 . S
H978 C919 0.980 . S
H979 C918 0.959 . S
H980 C918 0.959 . S
H981 C918 0.960 . S
H982 C921 0.929 . S
H983 C925 0.929 . S
H984 C926 0.959 . S
H985 C926 0.961 . S
H986 C926 0.961 . S
H987 C927 0.960 . S
H988 C927 0.960 . S
H989 C927 0.961 . S
H990 C929 0.980 . S
H991 C928 0.961 . S
H992 C928 0.960 . S
H993 C928 0.959 . S
H994 C931 0.930 . S
H995 C935 0.931 . S
H996 C936 0.959 . S
H997 C936 0.961 . S
H998 C936 0.959 . S
H999 C937 0.960 . S
H1000 C937 0.960 . S
H1001 C937 0.960 . S
H1002 C973 0.980 . S
H1003 C939 0.930 . S
H1004 C943 0.930 . S
H1005 C944 0.961 . S
H1006 C944 0.960 . S
H1007 C944 0.958 . S
H1008 C945 0.961 . S
H1009 C945 0.960 . S
H1010 C945 0.960 . S
H1011 C947 0.980 . S
H1012 C946 0.961 . S
H1013 C946 0.961 . S
H1014 C946 0.959 . S
H1015 C949 0.932 . S
H1016 C953 0.929 . S
H1017 C954 0.961 . S
H1018 C954 0.959 . S
H1019 C954 0.959 . S
H1020 C955 0.960 . S
H1021 C955 0.962 . S
H1022 C955 0.961 . S
H1023 C957 0.929 . S
H1024 C960 0.930 . S
H1025 C961 0.929 . S
H1026 C964 0.930 . S
H1027 C967 0.929 . S
H1028 C968 0.930 . S
H1029 C972 0.962 . S
H1030 C972 0.959 . S
H1031 C972 0.958 . S
C1032 C1033 1.560 . S
C1032 H1093 0.959 . S
C1032 H1094 0.959 . S
C1032 H1095 0.960 . S
C1033 C1032 1.560 . S
C1033 O1088 1.426 . S
C1033 H1092 0.980 . S
C1034 C1035 1.407 . S
C1034 C1039 1.418 . S
C1034 O1088 1.334 . S
C1035 C1034 1.407 . S
C1035 C1036 1.360 . S
C1035 H1096 0.929 . S
C1036 C1035 1.360 . S
C1036 C1037 1.401 . S
C1036 C1040 1.527 . S
C1037 C1036 1.401 . S
C1037 C1038 1.405 . S
C1037 C1070 1.587 . S
C1038 C1037 1.405 . S
C1038 C1039 1.332 . S
C1038 C1041 1.496 . S
C1039 C1034 1.418 . S
C1039 C1038 1.332 . S
C1039 H1097 0.929 . S
C1040 C1036 1.527 . S
C1040 H1098 0.959 . S
C1040 H1099 0.961 . S
C1040 H1100 0.961 . S
C1041 C1038 1.496 . S
C1041 H1101 0.960 . S
C1041 H1102 0.960 . S
C1041 H1103 0.961 . S
C1042 C1043 1.517 . S
C1042 H1105 0.961 . S
C1042 H1106 0.960 . S
C1042 H1107 0.959 . S
C1043 C1042 1.517 . S
C1043 O1091 1.468 . S
C1043 H1104 0.980 . S
C1044 C1045 1.349 . S
C1044 C1049 1.367 . S
C1044 O1091 1.408 . S
C1045 C1044 1.349 . S
C1045 C1046 1.407 . S
C1045 H1108 0.930 . S
C1046 C1045 1.407 . S
C1046 C1047 1.449 . S
C1046 C1050 1.535 . S
C1047 C1046 1.449 . S
C1047 C1048 1.384 . S
C1047 C1072 1.553 . S
C1048 C1047 1.384 . S
C1048 C1049 1.364 . S
C1048 C1051 1.450 . S
C1049 C1044 1.367 . S
C1049 C1048 1.364 . S
C1049 H1109 0.931 . S
C1050 C1046 1.535 . S
C1050 H1110 0.959 . S
C1050 H1111 0.961 . S
C1050 H1112 0.959 . S
C1051 C1048 1.450 . S
C1051 H1113 0.960 . S
C1051 H1114 0.960 . S
C1051 H1115 0.960 . S
C1052 C1053 1.309 . S
C1052 C1057 1.304 . S
C1052 O1090 1.435 . S
C1053 C1052 1.309 . S
C1053 C1054 1.476 . S
C1053 H1117 0.930 . S
C1054 C1053 1.476 . S
C1054 C1055 1.400 . S
C1054 C1058 1.567 . S
C1055 C1054 1.400 . S
C1055 C1056 1.373 . S
C1055 C1077 1.432 . S
C1056 C1055 1.373 . S
C1056 C1057 1.339 . S
C1056 C1059 1.530 . S
C1057 C1052 1.304 . S
C1057 C1056 1.339 . S
C1057 H1118 0.930 . S
C1058 C1054 1.567 . S
C1058 H1119 0.961 . S
C1058 H1120 0.960 . S
C1058 H1121 0.958 . S
C1059 C1056 1.530 . S
C1059 H1122 0.961 . S
C1059 H1123 0.960 . S
C1059 H1124 0.960 . S
C1060 C1061 1.530 . S
C1060 H1126 0.961 . S
C1060 H1127 0.961 . S
C1060 H1128 0.959 . S
C1061 C1060 1.530 . S
C1061 O1089 1.412 . S
C1061 H1125 0.980 . S
C1062 C1063 1.288 . S
C1062 C1067 1.377 . S
C1062 O1089 1.393 . S
C1063 C1062 1.288 . S
C1063 C1064 1.369 . S
C1063 H1129 0.932 . S
C1064 C1063 1.369 . S
C1064 C1065 1.398 . S
C1064 C1068 1.527 . S
C1065 C1064 1.398 . S
C1065 C1066 1.380 . S
C1065 C1079 1.497 . S
C1066 C1065 1.380 . S
C1066 C1067 1.383 . S
C1066 C1069 1.603 . S
C1067 C1062 1.377 . S
C1067 C1066 1.383 . S
C1067 H1130 0.929 . S
C1068 C1064 1.527 . S
C1068 H1131 0.961 . S
C1068 H1132 0.959 . S
C1068 H1133 0.959 . S
C1069 C1066 1.603 . S
C1069 H1134 0.960 . S
C1069 H1135 0.962 . S
C1069 H1136 0.961 . S
C1070 C1037 1.587 . S
C1070 C1071 1.360 . S
C1070 C1083 1.412 . S
C1071 C1070 1.360 . S
C1071 C1072 1.365 . S
C1071 H1137 0.929 . S
C1072 C1047 1.553 . S
C1072 C1071 1.365 . S
C1072 C1073 1.404 . S
C1073 C1072 1.404 . S
C1073 C1074 1.395 . S
C1073 C1084 1.451 . S
C1074 C1073 1.395 . S
C1074 C1075 1.322 . S
C1074 H1138 0.930 . S
C1075 C1074 1.322 . S
C1075 C1076 1.459 . S
C1075 H1139 0.929 . S
C1076 C1075 1.459 . S
C1076 C1077 1.445 . S
C1076 C1085 1.395 . S
C1077 C1055 1.432 . S
C1077 C1076 1.445 . S
C1077 C1078 1.370 . S
C1078 C1077 1.370 . S
C1078 C1079 1.438 . S
C1078 H1140 0.930 . S
C1079 C1065 1.497 . S
C1079 C1078 1.438 . S
C1079 C1080 1.360 . S
C1080 C1079 1.360 . S
C1080 C1081 1.401 . S
C1080 C1085 1.446 . S
C1081 C1080 1.401 . S
C1081 C1082 1.347 . S
C1081 H1141 0.929 . S
C1082 C1081 1.347 . S
C1082 C1083 1.455 . S
C1082 H1142 0.930 . S
C1083 C1070 1.412 . S
C1083 C1082 1.455 . S
C1083 C1084 1.331 . S
C1084 C1073 1.451 . S
C1084 C1083 1.331 . S
C1084 C1085 1.497 . S
C1085 C1076 1.395 . S
C1085 C1080 1.446 . S
C1085 C1084 1.497 . S
C1086 C1087 1.582 . S
C1086 H1143 0.962 . S
C1086 H1144 0.959 . S
C1086 H1145 0.958 . S
C1087 C1086 1.582 . S
C1087 O1090 1.458 . S
C1087 H1116 0.980 . S
O1088 C1033 1.426 . S
O1088 C1034 1.334 . S
O1089 C1061 1.412 . S
O1089 C1062 1.393 . S
O1090 C1052 1.435 . S
O1090 C1087 1.458 . S
O1091 C1043 1.468 . S
O1091 C1044 1.408 . S
H1092 C1033 0.980 . S
H1093 C1032 0.959 . S
H1094 C1032 0.959 . S
H1095 C1032 0.960 . S
H1096 C1035 0.929 . S
H1097 C1039 0.929 . S
H1098 C1040 0.959 . S
H1099 C1040 0.961 . S
H1100 C1040 0.961 . S
H1101 C1041 0.960 . S
H1102 C1041 0.960 . S
H1103 C1041 0.961 . S
H1104 C1043 0.980 . S
H1105 C1042 0.961 . S
H1106 C1042 0.960 . S
H1107 C1042 0.959 . S
H1108 C1045 0.930 . S
H1109 C1049 0.931 . S
H1110 C1050 0.959 . S
H1111 C1050 0.961 . S
H1112 C1050 0.959 . S
H1113 C1051 0.960 . S
H1114 C1051 0.960 . S
H1115 C1051 0.960 . S
H1116 C1087 0.980 . S
H1117 C1053 0.930 . S
H1118 C1057 0.930 . S
H1119 C1058 0.961 . S
H1120 C1058 0.960 . S
H1121 C1058 0.958 . S
H1122 C1059 0.961 . S
H1123 C1059 0.960 . S
H1124 C1059 0.960 . S
H1125 C1061 0.980 . S
H1126 C1060 0.961 . S
H1127 C1060 0.961 . S
H1128 C1060 0.959 . S
H1129 C1063 0.932 . S
H1130 C1067 0.929 . S
H1131 C1068 0.961 . S
H1132 C1068 0.959 . S
H1133 C1068 0.959 . S
H1134 C1069 0.960 . S
H1135 C1069 0.962 . S
H1136 C1069 0.961 . S
H1137 C1071 0.929 . S
H1138 C1074 0.930 . S
H1139 C1075 0.929 . S
H1140 C1078 0.930 . S
H1141 C1081 0.929 . S
H1142 C1082 0.930 . S
H1143 C1086 0.962 . S
H1144 C1086 0.959 . S
H1145 C1086 0.958 . S
C1146 C1147 1.560 . S
C1146 H1207 0.959 . S
C1146 H1208 0.959 . S
C1146 H1209 0.960 . S
C1147 C1146 1.560 . S
C1147 O1202 1.426 . S
C1147 H1206 0.980 . S
C1148 C1149 1.407 . S
C1148 C1153 1.418 . S
C1148 O1202 1.334 . S
C1149 C1148 1.407 . S
C1149 C1150 1.360 . S
C1149 H1210 0.929 . S
C1150 C1149 1.360 . S
C1150 C1151 1.401 . S
C1150 C1154 1.527 . S
C1151 C1150 1.401 . S
C1151 C1152 1.405 . S
C1151 C1184 1.587 . S
C1152 C1151 1.405 . S
C1152 C1153 1.332 . S
C1152 C1155 1.496 . S
C1153 C1148 1.418 . S
C1153 C1152 1.332 . S
C1153 H1211 0.929 . S
C1154 C1150 1.527 . S
C1154 H1212 0.959 . S
C1154 H1213 0.961 . S
C1154 H1214 0.961 . S
C1155 C1152 1.496 . S
C1155 H1215 0.960 . S
C1155 H1216 0.960 . S
C1155 H1217 0.961 . S
C1156 C1157 1.517 . S
C1156 H1219 0.961 . S
C1156 H1220 0.960 . S
C1156 H1221 0.959 . S
C1157 C1156 1.517 . S
C1157 O1205 1.468 . S
C1157 H1218 0.980 . S
C1158 C1159 1.349 . S
C1158 C1163 1.367 . S
C1158 O1205 1.408 . S
C1159 C1158 1.349 . S
C1159 C1160 1.407 . S
C1159 H1222 0.930 . S
C1160 C1159 1.407 . S
C1160 C1161 1.449 . S
C1160 C1164 1.535 . S
C1161 C1160 1.449 . S
C1161 C1162 1.384 . S
C1161 C1186 1.553 . S
C1162 C1161 1.384 . S
C1162 C1163 1.364 . S
C1162 C1165 1.450 . S
C1163 C1158 1.367 . S
C1163 C1162 1.364 . S
C1163 H1223 0.931 . S
C1164 C1160 1.535 . S
C1164 H1224 0.959 . S
C1164 H1225 0.961 . S
C1164 H1226 0.959 . S
C1165 C1162 1.450 . S
C1165 H1227 0.960 . S
C1165 H1228 0.960 . S
C1165 H1229 0.960 . S
C1166 C1167 1.309 . S
C1166 C1171 1.304 . S
C1166 O1204 1.435 . S
C1167 C1166 1.309 . S
C1167 C1168 1.476 . S
C1167 H1231 0.930 . S
C1168 C1167 1.476 . S
C1168 C1169 1.400 . S
C1168 C1172 1.567 . S
C1169 C1168 1.400 . S
C1169 C1170 1.373 . S
C1169 C1191 1.432 . S
C1170 C1169 1.373 . S
C1170 C1171 1.339 . S
C1170 C1173 1.530 . S
C1171 C1166 1.304 . S
C1171 C1170 1.339 . S
C1171 H1232 0.930 . S
C1172 C1168 1.567 . S
C1172 H1233 0.961 . S
C1172 H1234 0.960 . S
C1172 H1235 0.958 . S
C1173 C1170 1.530 . S
C1173 H1236 0.961 . S
C1173 H1237 0.960 . S
C1173 H1238 0.960 . S
C1174 C1175 1.530 . S
C1174 H1240 0.961 . S
C1174 H1241 0.961 . S
C1174 H1242 0.959 . S
C1175 C1174 1.530 . S
C1175 O1203 1.412 . S
C1175 H1239 0.980 . S
C1176 C1177 1.288 . S
C1176 C1181 1.377 . S
C1176 O1203 1.393 . S
C1177 C1176 1.288 . S
C1177 C1178 1.369 . S
C1177 H1243 0.932 . S
C1178 C1177 1.369 . S
C1178 C1179 1.398 . S
C1178 C1182 1.527 . S
C1179 C1178 1.398 . S
C1179 C1180 1.380 . S
C1179 C1193 1.497 . S
C1180 C1179 1.380 . S
C1180 C1181 1.383 . S
C1180 C1183 1.603 . S
C1181 C1176 1.377 . S
C1181 C1180 1.383 . S
C1181 H1244 0.929 . S
C1182 C1178 1.527 . S
C1182 H1245 0.961 . S
C1182 H1246 0.959 . S
C1182 H1247 0.959 . S
C1183 C1180 1.603 . S
C1183 H1248 0.960 . S
C1183 H1249 0.962 . S
C1183 H1250 0.961 . S
C1184 C1151 1.587 . S
C1184 C1185 1.360 . S
C1184 C1197 1.412 . S
C1185 C1184 1.360 . S
C1185 C1186 1.365 . S
C1185 H1251 0.929 . S
C1186 C1161 1.553 . S
C1186 C1185 1.365 . S
C1186 C1187 1.404 . S
C1187 C1186 1.404 . S
C1187 C1188 1.395 . S
C1187 C1198 1.451 . S
C1188 C1187 1.395 . S
C1188 C1189 1.322 . S
C1188 H1252 0.930 . S
C1189 C1188 1.322 . S
C1189 C1190 1.459 . S
C1189 H1253 0.929 . S
C1190 C1189 1.459 . S
C1190 C1191 1.445 . S
C1190 C1199 1.395 . S
C1191 C1169 1.432 . S
C1191 C1190 1.445 . S
C1191 C1192 1.370 . S
C1192 C1191 1.370 . S
C1192 C1193 1.438 . S
C1192 H1254 0.930 . S
C1193 C1179 1.497 . S
C1193 C1192 1.438 . S
C1193 C1194 1.360 . S
C1194 C1193 1.360 . S
C1194 C1195 1.401 . S
C1194 C1199 1.446 . S
C1195 C1194 1.401 . S
C1195 C1196 1.347 . S
C1195 H1255 0.929 . S
C1196 C1195 1.347 . S
C1196 C1197 1.455 . S
C1196 H1256 0.930 . S
C1197 C1184 1.412 . S
C1197 C1196 1.455 . S
C1197 C1198 1.331 . S
C1198 C1187 1.451 . S
C1198 C1197 1.331 . S
C1198 C1199 1.497 . S
C1199 C1190 1.395 . S
C1199 C1194 1.446 . S
C1199 C1198 1.497 . S
C1200 C1201 1.582 . S
C1200 H1257 0.962 . S
C1200 H1258 0.959 . S
C1200 H1259 0.958 . S
C1201 C1200 1.582 . S
C1201 O1204 1.458 . S
C1201 H1230 0.980 . S
O1202 C1147 1.426 . S
O1202 C1148 1.334 . S
O1203 C1175 1.412 . S
O1203 C1176 1.393 . S
O1204 C1166 1.435 . S
O1204 C1201 1.458 . S
O1205 C1157 1.468 . S
O1205 C1158 1.408 . S
H1206 C1147 0.980 . S
H1207 C1146 0.959 . S
H1208 C1146 0.959 . S
H1209 C1146 0.960 . S
H1210 C1149 0.929 . S
H1211 C1153 0.929 . S
H1212 C1154 0.959 . S
H1213 C1154 0.961 . S
H1214 C1154 0.961 . S
H1215 C1155 0.960 . S
H1216 C1155 0.960 . S
H1217 C1155 0.961 . S
H1218 C1157 0.980 . S
H1219 C1156 0.961 . S
H1220 C1156 0.960 . S
H1221 C1156 0.959 . S
H1222 C1159 0.930 . S
H1223 C1163 0.931 . S
H1224 C1164 0.959 . S
H1225 C1164 0.961 . S
H1226 C1164 0.959 . S
H1227 C1165 0.960 . S
H1228 C1165 0.960 . S
H1229 C1165 0.960 . S
H1230 C1201 0.980 . S
H1231 C1167 0.930 . S
H1232 C1171 0.930 . S
H1233 C1172 0.961 . S
H1234 C1172 0.960 . S
H1235 C1172 0.958 . S
H1236 C1173 0.961 . S
H1237 C1173 0.960 . S
H1238 C1173 0.960 . S
H1239 C1175 0.980 . S
H1240 C1174 0.961 . S
H1241 C1174 0.961 . S
H1242 C1174 0.959 . S
H1243 C1177 0.932 . S
H1244 C1181 0.929 . S
H1245 C1182 0.961 . S
H1246 C1182 0.959 . S
H1247 C1182 0.959 . S
H1248 C1183 0.960 . S
H1249 C1183 0.962 . S
H1250 C1183 0.961 . S
H1251 C1185 0.929 . S
H1252 C1188 0.930 . S
H1253 C1189 0.929 . S
H1254 C1192 0.930 . S
H1255 C1195 0.929 . S
H1256 C1196 0.930 . S
H1257 C1200 0.962 . S
H1258 C1200 0.959 . S
H1259 C1200 0.958 . S
C1260 C1261 1.560 . S
C1260 H1321 0.959 . S
C1260 H1322 0.959 . S
C1260 H1323 0.960 . S
C1261 C1260 1.560 . S
C1261 O1316 1.426 . S
C1261 H1320 0.980 . S
C1262 C1263 1.407 1_455 S
C1262 C1267 1.418 . S
C1262 O1316 1.334 . S
C1263 C1262 1.407 1_655 S
C1263 C1264 1.360 . S
C1263 H1324 0.929 . S
C1264 C1263 1.360 . S
C1264 C1265 1.401 1_655 S
C1264 C1268 1.527 . S
C1265 C1264 1.401 1_455 S
C1265 C1266 1.405 . S
C1265 C1298 1.587 1_455 S
C1266 C1265 1.405 . S
C1266 C1267 1.332 . S
C1266 C1269 1.496 . S
C1267 C1262 1.418 . S
C1267 C1266 1.332 . S
C1267 H1325 0.929 . S
C1268 C1264 1.527 . S
C1268 H1326 0.959 . S
C1268 H1327 0.961 . S
C1268 H1328 0.961 . S
C1269 C1266 1.496 . S
C1269 H1329 0.960 . S
C1269 H1330 0.960 . S
C1269 H1331 0.961 . S
C1270 C1271 1.517 . S
C1270 H1333 0.959 1_655 S
C1270 H1334 0.960 . S
C1270 H1335 0.959 . S
C1271 C1270 1.517 . S
C1271 O1319 1.468 . S
C1271 H1332 0.980 1_655 S
C1272 C1273 1.349 . S
C1272 C1277 1.367 . S
C1272 O1319 1.408 . S
C1273 C1272 1.349 . S
C1273 C1274 1.407 1_655 S
C1273 H1336 0.930 1_655 S
C1274 C1273 1.407 1_455 S
C1274 C1275 1.449 1_455 S
C1274 C1278 1.535 . S
C1275 C1274 1.449 1_655 S
C1275 C1276 1.384 . S
C1275 C1300 1.553 . S
C1276 C1275 1.384 . S
C1276 C1277 1.364 . S
C1276 C1279 1.450 . S
C1277 C1272 1.367 . S
C1277 C1276 1.364 . S
C1277 H1337 0.931 . S
C1278 C1274 1.535 . S
C1278 H1338 0.959 . S
C1278 H1339 0.961 . S
C1278 H1340 0.959 . S
C1279 C1276 1.450 . S
C1279 H1341 0.960 . S
C1279 H1342 0.960 . S
C1279 H1343 0.960 . S
C1280 C1281 1.309 . S
C1280 C1285 1.304 . S
C1280 O1318 1.435 . S
C1281 C1280 1.309 . S
C1281 C1282 1.466 1_655 S
C1281 H1345 0.930 1_655 S
C1282 C1281 1.466 1_455 S
C1282 C1283 1.394 1_455 S
C1282 C1286 1.582 . S
C1283 C1282 1.394 1_655 S
C1283 C1284 1.373 . S
C1283 C1305 1.432 . S
C1284 C1283 1.373 . S
C1284 C1285 1.339 . S
C1284 C1287 1.530 . S
C1285 C1280 1.304 . S
C1285 C1284 1.339 . S
C1285 H1346 0.930 . S
C1286 C1282 1.582 . S
C1286 H1347 0.961 . S
C1286 H1348 0.960 . S
C1286 H1349 0.958 . S
C1287 C1284 1.530 . S
C1287 H1350 0.961 . S
C1287 H1351 0.960 . S
C1287 H1352 0.960 . S
C1288 C1289 1.476 1_455 S
C1288 H1354 0.961 . S
C1288 H1355 0.961 . S
C1288 H1356 0.959 . S
C1289 C1288 1.476 1_655 S
C1289 O1317 1.401 1_655 S
C1289 H1353 0.998 . S
C1290 C1291 1.288 . S
C1290 C1295 1.377 1_455 S
C1290 O1317 1.393 . S
C1291 C1290 1.288 . S
C1291 C1292 1.369 . S
C1291 H1357 0.932 . S
C1292 C1291 1.369 . S
C1292 C1293 1.398 1_455 S
C1292 C1296 1.527 . S
C1293 C1292 1.398 1_655 S
C1293 C1294 1.380 . S
C1293 C1307 1.497 . S
C1294 C1293 1.380 . S
C1294 C1295 1.383 . S
C1294 C1297 1.603 . S
C1295 C1290 1.377 1_655 S
C1295 C1294 1.383 . S
C1295 H1358 0.929 . S
C1296 C1292 1.527 . S
C1296 H1359 0.961 . S
C1296 H1360 0.959 . S
C1296 H1361 0.959 . S
C1297 C1294 1.603 . S
C1297 H1362 0.960 . S
C1297 H1363 0.962 . S
C1297 H1364 0.961 . S
C1298 C1265 1.587 1_655 S
C1298 C1299 1.360 . S
C1298 C1311 1.412 . S
C1299 C1298 1.360 . S
C1299 C1300 1.365 . S
C1299 H1365 0.929 . S
C1300 C1275 1.553 . S
C1300 C1299 1.365 . S
C1300 C1301 1.404 . S
C1301 C1300 1.404 . S
C1301 C1302 1.395 . S
C1301 C1312 1.451 . S
C1302 C1301 1.395 . S
C1302 C1303 1.322 . S
C1302 H1366 0.930 . S
C1303 C1302 1.322 . S
C1303 C1304 1.459 . S
C1303 H1367 0.929 . S
C1304 C1303 1.459 . S
C1304 C1305 1.445 . S
C1304 C1313 1.395 . S
C1305 C1283 1.432 . S
C1305 C1304 1.445 . S
C1305 C1306 1.370 . S
C1306 C1305 1.370 . S
C1306 C1307 1.438 . S
C1306 H1368 0.930 . S
C1307 C1293 1.497 . S
C1307 C1306 1.438 . S
C1307 C1308 1.360 . S
C1308 C1307 1.360 . S
C1308 C1309 1.401 . S
C1308 C1313 1.446 . S
C1309 C1308 1.401 . S
C1309 C1310 1.347 . S
C1309 H1369 0.929 . S
C1310 C1309 1.347 . S
C1310 C1311 1.455 . S
C1310 H1370 0.930 . S
C1311 C1298 1.412 . S
C1311 C1310 1.455 . S
C1311 C1312 1.331 . S
C1312 C1301 1.451 . S
C1312 C1311 1.331 . S
C1312 C1313 1.497 . S
C1313 C1304 1.395 . S
C1313 C1308 1.446 . S
C1313 C1312 1.497 . S
C1314 C1315 1.582 . S
C1314 H1371 0.962 . S
C1314 H1372 0.959 . S
C1314 H1373 0.958 . S
C1315 C1314 1.582 . S
C1315 O1318 1.458 . S
C1315 H1344 0.980 . S
O1316 C1261 1.426 . S
O1316 C1262 1.334 . S
O1317 C1289 1.401 1_455 S
O1317 C1290 1.393 . S
O1318 C1280 1.435 . S
O1318 C1315 1.458 . S
O1319 C1271 1.468 . S
O1319 C1272 1.408 . S
H1320 C1261 0.980 . S
H1321 C1260 0.959 . S
H1322 C1260 0.959 . S
H1323 C1260 0.960 . S
H1324 C1263 0.929 . S
H1325 C1267 0.929 . S
H1326 C1268 0.959 . S
H1327 C1268 0.961 . S
H1328 C1268 0.961 . S
H1329 C1269 0.960 . S
H1330 C1269 0.960 . S
H1331 C1269 0.961 . S
H1332 C1271 0.980 1_455 S
H1333 C1270 0.959 1_455 S
H1334 C1270 0.960 . S
H1335 C1270 0.959 . S
H1336 C1273 0.930 1_455 S
H1337 C1277 0.931 . S
H1338 C1278 0.959 . S
H1339 C1278 0.961 . S
H1340 C1278 0.959 . S
H1341 C1279 0.960 . S
H1342 C1279 0.960 . S
H1343 C1279 0.960 . S
H1344 C1315 0.980 . S
H1345 C1281 0.930 1_455 S
H1346 C1285 0.930 . S
H1347 C1286 0.961 . S
H1348 C1286 0.960 . S
H1349 C1286 0.958 . S
H1350 C1287 0.961 . S
H1351 C1287 0.960 . S
H1352 C1287 0.960 . S
H1353 C1289 0.998 . S
H1354 C1288 0.961 . S
H1355 C1288 0.961 . S
H1356 C1288 0.959 . S
H1357 C1291 0.932 . S
H1358 C1295 0.929 . S
H1359 C1296 0.961 . S
H1360 C1296 0.959 . S
H1361 C1296 0.959 . S
H1362 C1297 0.960 . S
H1363 C1297 0.962 . S
H1364 C1297 0.961 . S
H1365 C1299 0.929 . S
H1366 C1302 0.930 . S
H1367 C1303 0.929 . S
H1368 C1306 0.930 . S
H1369 C1309 0.929 . S
H1370 C1310 0.930 . S
H1371 C1314 0.962 . S
H1372 C1314 0.959 . S
H1373 C1314 0.958 . S
C1374 C1375 1.560 . S
C1374 H1435 0.959 . S
C1374 H1436 0.959 . S
C1374 H1437 0.960 . S
C1375 C1374 1.560 . S
C1375 O1430 1.426 . S
C1375 H1434 0.980 . S
C1376 C1377 1.407 . S
C1376 C1381 1.418 . S
C1376 O1430 1.334 . S
C1377 C1376 1.407 . S
C1377 C1378 1.360 . S
C1377 H1438 0.929 . S
C1378 C1377 1.360 . S
C1378 C1379 1.401 . S
C1378 C1382 1.527 . S
C1379 C1378 1.401 . S
C1379 C1380 1.405 . S
C1379 C1412 1.587 . S
C1380 C1379 1.405 . S
C1380 C1381 1.332 . S
C1380 C1383 1.496 . S
C1381 C1376 1.418 . S
C1381 C1380 1.332 . S
C1381 H1439 0.929 . S
C1382 C1378 1.527 . S
C1382 H1440 0.959 . S
C1382 H1441 0.961 . S
C1382 H1442 0.961 . S
C1383 C1380 1.496 . S
C1383 H1443 0.960 . S
C1383 H1444 0.960 . S
C1383 H1445 0.961 . S
C1384 C1385 1.517 . S
C1384 H1447 0.961 . S
C1384 H1448 0.960 . S
C1384 H1449 0.959 . S
C1385 C1384 1.517 . S
C1385 O1433 1.468 . S
C1385 H1446 0.980 . S
C1386 C1387 1.349 . S
C1386 C1391 1.367 . S
C1386 O1433 1.408 . S
C1387 C1386 1.349 . S
C1387 C1388 1.407 . S
C1387 H1450 0.930 . S
C1388 C1387 1.407 . S
C1388 C1389 1.449 . S
C1388 C1392 1.535 . S
C1389 C1388 1.449 . S
C1389 C1390 1.384 . S
C1389 C1414 1.553 . S
C1390 C1389 1.384 . S
C1390 C1391 1.364 . S
C1390 C1393 1.450 . S
C1391 C1386 1.367 . S
C1391 C1390 1.364 . S
C1391 H1451 0.931 . S
C1392 C1388 1.535 . S
C1392 H1452 0.959 . S
C1392 H1453 0.961 . S
C1392 H1454 0.959 . S
C1393 C1390 1.450 . S
C1393 H1455 0.960 . S
C1393 H1456 0.960 . S
C1393 H1457 0.960 . S
C1394 C1395 1.309 . S
C1394 C1399 1.304 . S
C1394 O1432 1.435 . S
C1395 C1394 1.309 . S
C1395 C1396 1.476 . S
C1395 H1459 0.930 . S
C1396 C1395 1.476 . S
C1396 C1397 1.400 . S
C1396 C1400 1.567 . S
C1397 C1396 1.400 . S
C1397 C1398 1.373 . S
C1397 C1419 1.432 . S
C1398 C1397 1.373 . S
C1398 C1399 1.339 . S
C1398 C1401 1.530 . S
C1399 C1394 1.304 . S
C1399 C1398 1.339 . S
C1399 H1460 0.930 . S
C1400 C1396 1.567 . S
C1400 H1461 0.961 . S
C1400 H1462 0.960 . S
C1400 H1463 0.958 . S
C1401 C1398 1.530 . S
C1401 H1464 0.961 . S
C1401 H1465 0.960 . S
C1401 H1466 0.960 . S
C1402 C1403 1.530 . S
C1402 H1468 0.961 . S
C1402 H1469 0.961 . S
C1402 H1470 0.959 . S
C1403 C1402 1.530 . S
C1403 O1431 1.412 . S
C1403 H1467 0.980 . S
C1404 C1405 1.288 . S
C1404 C1409 1.377 . S
C1404 O1431 1.393 . S
C1405 C1404 1.288 . S
C1405 C1406 1.369 . S
C1405 H1471 0.932 . S
C1406 C1405 1.369 . S
C1406 C1407 1.398 . S
C1406 C1410 1.527 . S
C1407 C1406 1.398 . S
C1407 C1408 1.380 . S
C1407 C1421 1.497 . S
C1408 C1407 1.380 . S
C1408 C1409 1.383 . S
C1408 C1411 1.603 . S
C1409 C1404 1.377 . S
C1409 C1408 1.383 . S
C1409 H1472 0.929 . S
C1410 C1406 1.527 . S
C1410 H1473 0.961 . S
C1410 H1474 0.959 . S
C1410 H1475 0.959 . S
C1411 C1408 1.603 . S
C1411 H1476 0.960 . S
C1411 H1477 0.962 . S
C1411 H1478 0.961 . S
C1412 C1379 1.587 . S
C1412 C1413 1.360 . S
C1412 C1425 1.412 . S
C1413 C1412 1.360 . S
C1413 C1414 1.365 . S
C1413 H1479 0.929 . S
C1414 C1389 1.553 . S
C1414 C1413 1.365 . S
C1414 C1415 1.404 . S
C1415 C1414 1.404 . S
C1415 C1416 1.395 . S
C1415 C1426 1.451 . S
C1416 C1415 1.395 . S
C1416 C1417 1.322 . S
C1416 H1480 0.930 . S
C1417 C1416 1.322 . S
C1417 C1418 1.459 . S
C1417 H1481 0.929 . S
C1418 C1417 1.459 . S
C1418 C1419 1.445 . S
C1418 C1427 1.395 . S
C1419 C1397 1.432 . S
C1419 C1418 1.445 . S
C1419 C1420 1.370 . S
C1420 C1419 1.370 . S
C1420 C1421 1.438 . S
C1420 H1482 0.930 . S
C1421 C1407 1.497 . S
C1421 C1420 1.438 . S
C1421 C1422 1.360 . S
C1422 C1421 1.360 . S
C1422 C1423 1.401 . S
C1422 C1427 1.446 . S
C1423 C1422 1.401 . S
C1423 C1424 1.347 . S
C1423 H1483 0.929 . S
C1424 C1423 1.347 . S
C1424 C1425 1.455 . S
C1424 H1484 0.930 . S
C1425 C1412 1.412 . S
C1425 C1424 1.455 . S
C1425 C1426 1.331 . S
C1426 C1415 1.451 . S
C1426 C1425 1.331 . S
C1426 C1427 1.497 . S
C1427 C1418 1.395 . S
C1427 C1422 1.446 . S
C1427 C1426 1.497 . S
C1428 C1429 1.582 . S
C1428 H1485 0.962 . S
C1428 H1486 0.959 . S
C1428 H1487 0.958 . S
C1429 C1428 1.582 . S
C1429 O1432 1.458 . S
C1429 H1458 0.980 . S
O1430 C1375 1.426 . S
O1430 C1376 1.334 . S
O1431 C1403 1.412 . S
O1431 C1404 1.393 . S
O1432 C1394 1.435 . S
O1432 C1429 1.458 . S
O1433 C1385 1.468 . S
O1433 C1386 1.408 . S
H1434 C1375 0.980 . S
H1435 C1374 0.959 . S
H1436 C1374 0.959 . S
H1437 C1374 0.960 . S
H1438 C1377 0.929 . S
H1439 C1381 0.929 . S
H1440 C1382 0.959 . S
H1441 C1382 0.961 . S
H1442 C1382 0.961 . S
H1443 C1383 0.960 . S
H1444 C1383 0.960 . S
H1445 C1383 0.961 . S
H1446 C1385 0.980 . S
H1447 C1384 0.961 . S
H1448 C1384 0.960 . S
H1449 C1384 0.959 . S
H1450 C1387 0.930 . S
H1451 C1391 0.931 . S
H1452 C1392 0.959 . S
H1453 C1392 0.961 . S
H1454 C1392 0.959 . S
H1455 C1393 0.960 . S
H1456 C1393 0.960 . S
H1457 C1393 0.960 . S
H1458 C1429 0.980 . S
H1459 C1395 0.930 . S
H1460 C1399 0.930 . S
H1461 C1400 0.961 . S
H1462 C1400 0.960 . S
H1463 C1400 0.958 . S
H1464 C1401 0.961 . S
H1465 C1401 0.960 . S
H1466 C1401 0.960 . S
H1467 C1403 0.980 . S
H1468 C1402 0.961 . S
H1469 C1402 0.961 . S
H1470 C1402 0.959 . S
H1471 C1405 0.932 . S
H1472 C1409 0.929 . S
H1473 C1410 0.961 . S
H1474 C1410 0.959 . S
H1475 C1410 0.959 . S
H1476 C1411 0.960 . S
H1477 C1411 0.962 . S
H1478 C1411 0.961 . S
H1479 C1413 0.929 . S
H1480 C1416 0.930 . S
H1481 C1417 0.929 . S
H1482 C1420 0.930 . S
H1483 C1423 0.929 . S
H1484 C1424 0.930 . S
H1485 C1428 0.962 . S
H1486 C1428 0.959 . S
H1487 C1428 0.958 . S
C1488 C1489 1.560 . S
C1488 H1549 0.959 . S
C1488 H1550 0.959 . S
C1488 H1551 0.960 . S
C1489 C1488 1.560 . S
C1489 O1544 1.426 . S
C1489 H1548 0.980 . S
C1490 C1491 1.407 1_565 S
C1490 C1495 1.418 . S
C1490 O1544 1.334 . S
C1491 C1490 1.407 1_545 S
C1491 C1492 1.360 . S
C1491 H1552 0.929 . S
C1492 C1491 1.360 . S
C1492 C1493 1.401 1_545 S
C1492 C1496 1.527 . S
C1493 C1492 1.401 1_565 S
C1493 C1494 1.405 . S
C1493 C1526 1.587 1_565 S
C1494 C1493 1.405 . S
C1494 C1495 1.332 . S
C1494 C1497 1.496 . S
C1495 C1490 1.418 . S
C1495 C1494 1.332 . S
C1495 H1553 0.929 . S
C1496 C1492 1.527 . S
C1496 H1554 0.959 . S
C1496 H1555 0.961 . S
C1496 H1556 0.961 . S
C1497 C1494 1.496 . S
C1497 H1557 0.960 . S
C1497 H1558 0.960 . S
C1497 H1559 0.961 . S
C1498 C1499 1.517 . S
C1498 H1561 0.906 1_545 S
C1498 H1562 0.960 . S
C1498 H1563 0.959 . S
C1499 C1498 1.517 . S
C1499 O1547 1.468 . S
C1499 H1560 0.980 1_545 S
C1500 C1501 1.349 . S
C1500 C1505 1.367 . S
C1500 O1547 1.408 . S
C1501 C1500 1.349 . S
C1501 C1502 1.407 1_545 S
C1501 H1564 0.930 1_545 S
C1502 C1501 1.407 1_565 S
C1502 C1503 1.449 1_565 S
C1502 C1506 1.535 . S
C1503 C1502 1.449 1_545 S
C1503 C1504 1.384 . S
C1503 C1528 1.553 . S
C1504 C1503 1.384 . S
C1504 C1505 1.364 . S
C1504 C1507 1.450 . S
C1505 C1500 1.367 . S
C1505 C1504 1.364 . S
C1505 H1565 0.931 . S
C1506 C1502 1.535 . S
C1506 H1566 0.959 . S
C1506 H1567 0.961 . S
C1506 H1568 0.959 . S
C1507 C1504 1.450 . S
C1507 H1569 0.960 . S
C1507 H1570 0.960 . S
C1507 H1571 0.960 . S
C1508 C1509 1.309 . S
C1508 C1513 1.304 . S
C1508 O1546 1.435 . S
C1509 C1508 1.309 . S
C1509 C1510 1.490 1_545 S
C1509 H1573 0.930 1_545 S
C1510 C1509 1.490 1_565 S
C1510 C1511 1.353 1_565 S
C1510 C1514 1.599 . S
C1511 C1510 1.353 1_545 S
C1511 C1512 1.373 . S
C1511 C1533 1.432 . S
C1512 C1511 1.373 . S
C1512 C1513 1.339 . S
C1512 C1515 1.530 . S
C1513 C1508 1.304 . S
C1513 C1512 1.339 . S
C1513 H1574 0.930 . S
C1514 C1510 1.599 . S
C1514 H1575 0.961 . S
C1514 H1576 0.960 . S
C1514 H1577 0.958 . S
C1515 C1512 1.530 . S
C1515 H1578 0.961 . S
C1515 H1579 0.960 . S
C1515 H1580 0.960 . S
C1516 C1517 1.530 1_565 S
C1516 H1582 0.961 . S
C1516 H1583 0.961 . S
C1516 H1584 0.959 . S
C1517 C1516 1.530 1_545 S
C1517 O1545 1.412 1_545 S
C1517 H1581 0.980 . S
C1518 C1519 1.288 . S
C1518 C1523 1.377 1_565 S
C1518 O1545 1.393 . S
C1519 C1518 1.288 . S
C1519 C1520 1.369 . S
C1519 H1585 0.932 . S
C1520 C1519 1.369 . S
C1520 C1521 1.398 1_565 S
C1520 C1524 1.527 . S
C1521 C1520 1.398 1_545 S
C1521 C1522 1.380 . S
C1521 C1535 1.497 . S
C1522 C1521 1.380 . S
C1522 C1523 1.383 . S
C1522 C1525 1.603 . S
C1523 C1518 1.377 1_545 S
C1523 C1522 1.383 . S
C1523 H1586 0.929 . S
C1524 C1520 1.527 . S
C1524 H1587 0.961 . S
C1524 H1588 0.959 . S
C1524 H1589 0.959 . S
C1525 C1522 1.603 . S
C1525 H1590 0.960 . S
C1525 H1591 0.962 . S
C1525 H1592 0.961 . S
C1526 C1493 1.587 1_545 S
C1526 C1527 1.360 . S
C1526 C1539 1.412 . S
C1527 C1526 1.360 . S
C1527 C1528 1.365 . S
C1527 H1593 0.929 . S
C1528 C1503 1.553 . S
C1528 C1527 1.365 . S
C1528 C1529 1.404 . S
C1529 C1528 1.404 . S
C1529 C1530 1.395 . S
C1529 C1540 1.451 . S
C1530 C1529 1.395 . S
C1530 C1531 1.322 . S
C1530 H1594 0.930 . S
C1531 C1530 1.322 . S
C1531 C1532 1.459 . S
C1531 H1595 0.929 . S
C1532 C1531 1.459 . S
C1532 C1533 1.445 . S
C1532 C1541 1.395 . S
C1533 C1511 1.432 . S
C1533 C1532 1.445 . S
C1533 C1534 1.370 . S
C1534 C1533 1.370 . S
C1534 C1535 1.438 . S
C1534 H1596 0.930 . S
C1535 C1521 1.497 . S
C1535 C1534 1.438 . S
C1535 C1536 1.360 . S
C1536 C1535 1.360 . S
C1536 C1537 1.401 . S
C1536 C1541 1.446 . S
C1537 C1536 1.401 . S
C1537 C1538 1.347 . S
C1537 H1597 0.929 . S
C1538 C1537 1.347 . S
C1538 C1539 1.455 . S
C1538 H1598 0.930 . S
C1539 C1526 1.412 . S
C1539 C1538 1.455 . S
C1539 C1540 1.331 . S
C1540 C1529 1.451 . S
C1540 C1539 1.331 . S
C1540 C1541 1.497 . S
C1541 C1532 1.395 . S
C1541 C1536 1.446 . S
C1541 C1540 1.497 . S
C1542 C1543 1.582 . S
C1542 H1599 0.962 . S
C1542 H1600 0.959 . S
C1542 H1601 0.958 . S
C1543 C1542 1.582 . S
C1543 O1546 1.458 . S
C1543 H1572 0.980 . S
O1544 C1489 1.426 . S
O1544 C1490 1.334 . S
O1545 C1517 1.412 1_565 S
O1545 C1518 1.393 . S
O1546 C1508 1.435 . S
O1546 C1543 1.458 . S
O1547 C1499 1.468 . S
O1547 C1500 1.408 . S
H1548 C1489 0.980 . S
H1549 C1488 0.959 . S
H1550 C1488 0.959 . S
H1551 C1488 0.960 . S
H1552 C1491 0.929 . S
H1553 C1495 0.929 . S
H1554 C1496 0.959 . S
H1555 C1496 0.961 . S
H1556 C1496 0.961 . S
H1557 C1497 0.960 . S
H1558 C1497 0.960 . S
H1559 C1497 0.961 . S
H1560 C1499 0.980 1_565 S
H1561 C1498 0.906 1_565 S
H1562 C1498 0.960 . S
H1563 C1498 0.959 . S
H1564 C1501 0.930 1_565 S
H1565 C1505 0.931 . S
H1566 C1506 0.959 . S
H1567 C1506 0.961 . S
H1568 C1506 0.959 . S
H1569 C1507 0.960 . S
H1570 C1507 0.960 . S
H1571 C1507 0.960 . S
H1572 C1543 0.980 . S
H1573 C1509 0.930 1_565 S
H1574 C1513 0.930 . S
H1575 C1514 0.961 . S
H1576 C1514 0.960 . S
H1577 C1514 0.958 . S
H1578 C1515 0.961 . S
H1579 C1515 0.960 . S
H1580 C1515 0.960 . S
H1581 C1517 0.980 . S
H1582 C1516 0.961 . S
H1583 C1516 0.961 . S
H1584 C1516 0.959 . S
H1585 C1519 0.932 . S
H1586 C1523 0.929 . S
H1587 C1524 0.961 . S
H1588 C1524 0.959 . S
H1589 C1524 0.959 . S
H1590 C1525 0.960 . S
H1591 C1525 0.962 . S
H1592 C1525 0.961 . S
H1593 C1527 0.929 . S
H1594 C1530 0.930 . S
H1595 C1531 0.929 . S
H1596 C1534 0.930 . S
H1597 C1537 0.929 . S
H1598 C1538 0.930 . S
H1599 C1542 0.962 . S
H1600 C1542 0.959 . S
H1601 C1542 0.958 . S
C1602 C1603 1.560 . S
C1602 H1663 0.959 . S
C1602 H1664 0.959 . S
C1602 H1665 0.960 . S
C1603 C1602 1.560 . S
C1603 O1658 1.426 . S
C1603 H1662 0.980 1_565 S
C1604 C1605 1.407 1_565 S
C1604 C1609 1.418 . S
C1604 O1658 1.334 . S
C1605 C1604 1.407 1_545 S
C1605 C1606 1.360 . S
C1605 H1666 0.929 . S
C1606 C1605 1.360 . S
C1606 C1607 1.401 . S
C1606 C1610 1.527 . S
C1607 C1606 1.401 . S
C1607 C1608 1.405 1_545 S
C1607 C1640 1.587 . S
C1608 C1607 1.405 1_565 S
C1608 C1609 1.332 . S
C1608 C1611 1.496 . S
C1609 C1604 1.418 . S
C1609 C1608 1.332 . S
C1609 H1667 0.929 . S
C1610 C1606 1.527 . S
C1610 H1668 0.959 . S
C1610 H1669 0.961 . S
C1610 H1670 0.961 . S
C1611 C1608 1.496 . S
C1611 H1671 0.960 . S
C1611 H1672 0.960 . S
C1611 H1673 0.961 . S
C1612 C1613 1.517 . S
C1612 H1675 0.961 . S
C1612 H1676 0.960 . S
C1612 H1677 0.959 . S
C1613 C1612 1.517 . S
C1613 O1661 1.468 . S
C1613 H1674 0.980 . S
C1614 C1615 1.349 . S
C1614 C1619 1.367 . S
C1614 O1661 1.408 . S
C1615 C1614 1.349 . S
C1615 C1616 1.407 . S
C1615 H1678 0.927 1_545 S
C1616 C1615 1.407 . S
C1616 C1617 1.449 . S
C1616 C1620 1.535 1_545 S
C1617 C1616 1.449 . S
C1617 C1618 1.384 . S
C1617 C1642 1.553 . S
C1618 C1617 1.384 . S
C1618 C1619 1.364 . S
C1618 C1621 1.450 . S
C1619 C1614 1.367 . S
C1619 C1618 1.364 . S
C1619 H1679 0.931 . S
C1620 C1616 1.535 1_565 S
C1620 H1680 0.959 . S
C1620 H1681 0.961 . S
C1620 H1682 0.959 . S
C1621 C1618 1.450 . S
C1621 H1683 0.960 . S
C1621 H1684 0.960 . S
C1621 H1685 0.960 . S
C1622 C1623 1.309 1_545 S
C1622 C1627 1.304 . S
C1622 O1660 1.435 . S
C1623 C1622 1.309 1_565 S
C1623 C1624 1.476 . S
C1623 H1687 0.930 . S
C1624 C1623 1.476 . S
C1624 C1625 1.400 1_565 S
C1624 C1628 1.567 . S
C1625 C1624 1.400 1_545 S
C1625 C1626 1.373 . S
C1625 C1647 1.432 . S
C1626 C1625 1.373 . S
C1626 C1627 1.339 . S
C1626 C1629 1.530 . S
C1627 C1622 1.304 . S
C1627 C1626 1.339 . S
C1627 H1688 0.930 . S
C1628 C1624 1.567 . S
C1628 H1689 0.961 . S
C1628 H1690 0.960 . S
C1628 H1691 0.958 . S
C1629 C1626 1.530 . S
C1629 H1692 0.961 . S
C1629 H1693 0.960 . S
C1629 H1694 0.960 . S
C1630 C1631 1.530 . S
C1630 H1696 0.961 . S
C1630 H1697 0.961 . S
C1630 H1698 0.959 . S
C1631 C1630 1.530 . S
C1631 O1659 1.412 . S
C1631 H1695 0.996 . S
C1632 C1633 1.288 . S
C1632 C1637 1.377 1_565 S
C1632 O1659 1.393 . S
C1633 C1632 1.288 . S
C1633 C1634 1.369 . S
C1633 H1699 0.932 . S
C1634 C1633 1.369 . S
C1634 C1635 1.398 . S
C1634 C1638 1.527 . S
C1635 C1634 1.398 . S
C1635 C1636 1.380 1_565 S
C1635 C1649 1.497 1_565 S
C1636 C1635 1.380 1_545 S
C1636 C1637 1.383 . S
C1636 C1639 1.603 . S
C1637 C1632 1.377 1_545 S
C1637 C1636 1.383 . S
C1637 H1700 0.929 . S
C1638 C1634 1.527 . S
C1638 H1701 0.961 . S
C1638 H1702 0.959 . S
C1638 H1703 0.959 . S
C1639 C1636 1.603 . S
C1639 H1704 0.960 . S
C1639 H1705 0.962 . S
C1639 H1706 0.961 . S
C1640 C1607 1.587 . S
C1640 C1641 1.360 . S
C1640 C1653 1.412 . S
C1641 C1640 1.360 . S
C1641 C1642 1.365 . S
C1641 H1707 0.929 . S
C1642 C1617 1.553 . S
C1642 C1641 1.365 . S
C1642 C1643 1.404 . S
C1643 C1642 1.404 . S
C1643 C1644 1.395 . S
C1643 C1654 1.451 . S
C1644 C1643 1.395 . S
C1644 C1645 1.322 . S
C1644 H1708 0.930 . S
C1645 C1644 1.322 . S
C1645 C1646 1.459 . S
C1645 H1709 0.929 . S
C1646 C1645 1.459 . S
C1646 C1647 1.445 . S
C1646 C1655 1.395 . S
C1647 C1625 1.432 . S
C1647 C1646 1.445 . S
C1647 C1648 1.370 . S
C1648 C1647 1.370 . S
C1648 C1649 1.438 . S
C1648 H1710 0.930 . S
C1649 C1635 1.497 1_545 S
C1649 C1648 1.438 . S
C1649 C1650 1.360 . S
C1650 C1649 1.360 . S
C1650 C1651 1.401 . S
C1650 C1655 1.446 . S
C1651 C1650 1.401 . S
C1651 C1652 1.347 . S
C1651 H1711 0.969 . S
C1652 C1651 1.347 . S
C1652 C1653 1.455 . S
C1652 H1712 0.930 . S
C1653 C1640 1.412 . S
C1653 C1652 1.455 . S
C1653 C1654 1.331 . S
C1654 C1643 1.451 . S
C1654 C1653 1.331 . S
C1654 C1655 1.497 . S
C1655 C1646 1.395 . S
C1655 C1650 1.446 . S
C1655 C1654 1.497 . S
C1656 C1657 1.619 . S
C1656 H1713 0.962 . S
C1656 H1714 0.959 . S
C1656 H1715 0.958 . S
C1657 C1656 1.619 . S
C1657 O1660 1.473 . S
C1657 H1686 0.980 1_545 S
O1658 C1603 1.426 . S
O1658 C1604 1.334 . S
O1659 C1631 1.412 . S
O1659 C1632 1.393 . S
O1660 C1622 1.435 . S
O1660 C1657 1.473 . S
O1661 C1613 1.468 . S
O1661 C1614 1.408 . S
H1662 C1603 0.980 1_545 S
H1663 C1602 0.959 . S
H1664 C1602 0.959 . S
H1665 C1602 0.960 . S
H1666 C1605 0.929 . S
H1667 C1609 0.929 . S
H1668 C1610 0.959 . S
H1669 C1610 0.961 . S
H1670 C1610 0.961 . S
H1671 C1611 0.960 . S
H1672 C1611 0.960 . S
H1673 C1611 0.961 . S
H1674 C1613 0.980 . S
H1675 C1612 0.961 . S
H1676 C1612 0.960 . S
H1677 C1612 0.959 . S
H1678 C1615 0.927 1_565 S
H1679 C1619 0.931 . S
H1680 C1620 0.959 . S
H1681 C1620 0.961 . S
H1682 C1620 0.959 . S
H1683 C1621 0.960 . S
H1684 C1621 0.960 . S
H1685 C1621 0.960 . S
H1686 C1657 0.980 1_565 S
H1687 C1623 0.930 . S
H1688 C1627 0.930 . S
H1689 C1628 0.961 . S
H1690 C1628 0.960 . S
H1691 C1628 0.958 . S
H1692 C1629 0.961 . S
H1693 C1629 0.960 . S
H1694 C1629 0.960 . S
H1695 C1631 0.996 . S
H1696 C1630 0.961 . S
H1697 C1630 0.961 . S
H1698 C1630 0.959 . S
H1699 C1633 0.932 . S
H1700 C1637 0.929 . S
H1701 C1638 0.961 . S
H1702 C1638 0.959 . S
H1703 C1638 0.959 . S
H1704 C1639 0.960 . S
H1705 C1639 0.962 . S
H1706 C1639 0.961 . S
H1707 C1641 0.929 . S
H1708 C1644 0.930 . S
H1709 C1645 0.929 . S
H1710 C1648 0.930 . S
H1711 C1651 0.969 . S
H1712 C1652 0.930 . S
H1713 C1656 0.962 . S
H1714 C1656 0.959 . S
H1715 C1656 0.958 . S
C1716 C1717 1.560 . S
C1716 H1777 0.959 . S
C1716 H1778 0.959 . S
C1716 H1779 0.960 . S
C1717 C1716 1.560 . S
C1717 O1772 1.426 . S
C1717 H1776 0.980 1_455 S
C1718 C1719 1.407 1_455 S
C1718 C1723 1.418 . S
C1718 O1772 1.334 . S
C1719 C1718 1.407 1_655 S
C1719 C1720 1.360 . S
C1719 H1780 0.929 . S
C1720 C1719 1.360 . S
C1720 C1721 1.401 . S
C1720 C1724 1.527 . S
C1721 C1720 1.401 . S
C1721 C1722 1.405 1_655 S
C1721 C1754 1.587 . S
C1722 C1721 1.405 1_455 S
C1722 C1723 1.332 . S
C1722 C1725 1.496 . S
C1723 C1718 1.418 . S
C1723 C1722 1.332 . S
C1723 H1781 0.929 . S
C1724 C1720 1.527 . S
C1724 H1782 0.959 . S
C1724 H1783 0.961 . S
C1724 H1784 0.961 . S
C1725 C1722 1.496 . S
C1725 H1785 0.960 . S
C1725 H1786 0.960 . S
C1725 H1787 0.961 . S
C1726 C1727 1.517 . S
C1726 H1789 0.961 . S
C1726 H1790 0.960 . S
C1726 H1791 0.959 . S
C1727 C1726 1.517 . S
C1727 O1775 1.468 . S
C1727 H1788 0.980 . S
C1728 C1729 1.349 . S
C1728 C1733 1.367 . S
C1728 O1775 1.408 . S
C1729 C1728 1.349 . S
C1729 C1730 1.407 . S
C1729 H1792 0.925 1_655 S
C1730 C1729 1.407 . S
C1730 C1731 1.449 . S
C1730 C1734 1.535 1_655 S
C1731 C1730 1.449 . S
C1731 C1732 1.384 . S
C1731 C1756 1.553 . S
C1732 C1731 1.384 . S
C1732 C1733 1.364 . S
C1732 C1735 1.450 . S
C1733 C1728 1.367 . S
C1733 C1732 1.364 . S
C1733 H1793 0.931 . S
C1734 C1730 1.535 1_455 S
C1734 H1794 0.959 . S
C1734 H1795 0.961 . S
C1734 H1796 0.959 . S
C1735 C1732 1.450 . S
C1735 H1797 0.960 . S
C1735 H1798 0.960 . S
C1735 H1799 0.960 . S
C1736 C1737 1.309 1_655 S
C1736 C1741 1.304 . S
C1736 O1774 1.435 . S
C1737 C1736 1.309 1_455 S
C1737 C1738 1.476 . S
C1737 H1801 0.930 . S
C1738 C1737 1.476 . S
C1738 C1739 1.400 1_455 S
C1738 C1742 1.567 . S
C1739 C1738 1.400 1_655 S
C1739 C1740 1.373 . S
C1739 C1761 1.432 . S
C1740 C1739 1.373 . S
C1740 C1741 1.339 . S
C1740 C1743 1.530 . S
C1741 C1736 1.304 . S
C1741 C1740 1.339 . S
C1741 H1802 0.930 . S
C1742 C1738 1.567 . S
C1742 H1803 0.961 . S
C1742 H1804 0.960 . S
C1742 H1805 0.958 . S
C1743 C1740 1.530 . S
C1743 H1806 0.961 . S
C1743 H1807 0.960 . S
C1743 H1808 0.960 . S
C1744 C1745 1.530 . S
C1744 H1810 0.961 . S
C1744 H1811 0.961 . S
C1744 H1812 0.959 . S
C1745 C1744 1.530 . S
C1745 O1773 1.412 . S
C1745 H1809 0.993 . S
C1746 C1747 1.288 . S
C1746 C1751 1.377 1_455 S
C1746 O1773 1.393 . S
C1747 C1746 1.288 . S
C1747 C1748 1.369 . S
C1747 H1813 0.932 . S
C1748 C1747 1.369 . S
C1748 C1749 1.398 . S
C1748 C1752 1.527 . S
C1749 C1748 1.398 . S
C1749 C1750 1.380 1_455 S
C1749 C1763 1.497 1_455 S
C1750 C1749 1.380 1_655 S
C1750 C1751 1.383 . S
C1750 C1753 1.603 . S
C1751 C1746 1.377 1_655 S
C1751 C1750 1.383 . S
C1751 H1814 0.929 . S
C1752 C1748 1.527 . S
C1752 H1815 0.961 . S
C1752 H1816 0.959 . S
C1752 H1817 0.959 . S
C1753 C1750 1.603 . S
C1753 H1818 0.960 . S
C1753 H1819 0.962 . S
C1753 H1820 0.961 . S
C1754 C1721 1.587 . S
C1754 C1755 1.360 . S
C1754 C1767 1.412 . S
C1755 C1754 1.360 . S
C1755 C1756 1.365 . S
C1755 H1821 0.929 . S
C1756 C1731 1.553 . S
C1756 C1755 1.365 . S
C1756 C1757 1.404 . S
C1757 C1756 1.404 . S
C1757 C1758 1.395 . S
C1757 C1768 1.451 . S
C1758 C1757 1.395 . S
C1758 C1759 1.322 . S
C1758 H1822 0.930 . S
C1759 C1758 1.322 . S
C1759 C1760 1.459 . S
C1759 H1823 0.929 . S
C1760 C1759 1.459 . S
C1760 C1761 1.445 . S
C1760 C1769 1.395 . S
C1761 C1739 1.432 . S
C1761 C1760 1.445 . S
C1761 C1762 1.370 . S
C1762 C1761 1.370 . S
C1762 C1763 1.438 . S
C1762 H1824 0.930 . S
C1763 C1749 1.497 1_655 S
C1763 C1762 1.438 . S
C1763 C1764 1.360 . S
C1764 C1763 1.360 . S
C1764 C1765 1.401 . S
C1764 C1769 1.446 . S
C1765 C1764 1.401 . S
C1765 C1766 1.347 . S
C1765 H1825 0.929 . S
C1766 C1765 1.347 . S
C1766 C1767 1.455 . S
C1766 H1826 0.930 . S
C1767 C1754 1.412 . S
C1767 C1766 1.455 . S
C1767 C1768 1.331 . S
C1768 C1757 1.451 . S
C1768 C1767 1.331 . S
C1768 C1769 1.497 . S
C1769 C1760 1.395 . S
C1769 C1764 1.446 . S
C1769 C1768 1.497 . S
C1770 C1771 1.581 1_655 S
C1770 H1827 0.987 . S
C1770 H1828 0.959 . S
C1770 H1829 0.958 . S
C1771 C1770 1.581 1_455 S
C1771 O1774 1.425 1_455 S
C1771 H1800 0.994 . S
O1772 C1717 1.426 . S
O1772 C1718 1.334 . S
O1773 C1745 1.412 . S
O1773 C1746 1.393 . S
O1774 C1736 1.435 . S
O1774 C1771 1.425 1_655 S
O1775 C1727 1.468 . S
O1775 C1728 1.408 . S
H1776 C1717 0.980 1_655 S
H1777 C1716 0.959 . S
H1778 C1716 0.959 . S
H1779 C1716 0.960 . S
H1780 C1719 0.929 . S
H1781 C1723 0.929 . S
H1782 C1724 0.959 . S
H1783 C1724 0.961 . S
H1784 C1724 0.961 . S
H1785 C1725 0.960 . S
H1786 C1725 0.960 . S
H1787 C1725 0.961 . S
H1788 C1727 0.980 . S
H1789 C1726 0.961 . S
H1790 C1726 0.960 . S
H1791 C1726 0.959 . S
H1792 C1729 0.925 1_455 S
H1793 C1733 0.931 . S
H1794 C1734 0.959 . S
H1795 C1734 0.961 . S
H1796 C1734 0.959 . S
H1797 C1735 0.960 . S
H1798 C1735 0.960 . S
H1799 C1735 0.960 . S
H1800 C1771 0.994 . S
H1801 C1737 0.930 . S
H1802 C1741 0.930 . S
H1803 C1742 0.961 . S
H1804 C1742 0.960 . S
H1805 C1742 0.958 . S
H1806 C1743 0.961 . S
H1807 C1743 0.960 . S
H1808 C1743 0.960 . S
H1809 C1745 0.993 . S
H1810 C1744 0.961 . S
H1811 C1744 0.961 . S
H1812 C1744 0.959 . S
H1813 C1747 0.932 . S
H1814 C1751 0.929 . S
H1815 C1752 0.961 . S
H1816 C1752 0.959 . S
H1817 C1752 0.959 . S
H1818 C1753 0.960 . S
H1819 C1753 0.962 . S
H1820 C1753 0.961 . S
H1821 C1755 0.929 . S
H1822 C1758 0.930 . S
H1823 C1759 0.929 . S
H1824 C1762 0.930 . S
H1825 C1765 0.929 . S
H1826 C1766 0.930 . S
H1827 C1770 0.987 . S
H1828 C1770 0.959 . S
H1829 C1770 0.958 . S
C1830 C1831 1.560 . S
C1830 H1891 0.959 . S
C1830 H1892 0.959 . S
C1830 H1893 0.960 . S
C1831 C1830 1.560 . S
C1831 O1886 1.426 . S
C1831 H1890 0.980 . S
C1832 C1833 1.407 . S
C1832 C1837 1.418 . S
C1832 O1886 1.334 . S
C1833 C1832 1.407 . S
C1833 C1834 1.360 . S
C1833 H1894 0.929 . S
C1834 C1833 1.360 . S
C1834 C1835 1.401 . S
C1834 C1838 1.527 . S
C1835 C1834 1.401 . S
C1835 C1836 1.405 . S
C1835 C1868 1.587 . S
C1836 C1835 1.405 . S
C1836 C1837 1.332 . S
C1836 C1839 1.496 . S
C1837 C1832 1.418 . S
C1837 C1836 1.332 . S
C1837 H1895 0.929 . S
C1838 C1834 1.527 . S
C1838 H1896 0.959 . S
C1838 H1897 0.961 . S
C1838 H1898 0.961 . S
C1839 C1836 1.496 . S
C1839 H1899 0.960 . S
C1839 H1900 0.960 . S
C1839 H1901 0.961 . S
C1840 C1841 1.517 . S
C1840 H1903 0.961 . S
C1840 H1904 0.960 . S
C1840 H1905 0.959 . S
C1841 C1840 1.517 . S
C1841 O1889 1.468 . S
C1841 H1902 0.980 . S
C1842 C1843 1.349 . S
C1842 C1847 1.367 . S
C1842 O1889 1.408 . S
C1843 C1842 1.349 . S
C1843 C1844 1.407 . S
C1843 H1906 0.930 . S
C1844 C1843 1.407 . S
C1844 C1845 1.449 . S
C1844 C1848 1.535 . S
C1845 C1844 1.449 . S
C1845 C1846 1.384 . S
C1845 C1870 1.553 . S
C1846 C1845 1.384 . S
C1846 C1847 1.364 . S
C1846 C1849 1.450 . S
C1847 C1842 1.367 . S
C1847 C1846 1.364 . S
C1847 H1907 0.931 . S
C1848 C1844 1.535 . S
C1848 H1908 0.959 . S
C1848 H1909 0.961 . S
C1848 H1910 0.959 . S
C1849 C1846 1.450 . S
C1849 H1911 0.960 . S
C1849 H1912 0.960 . S
C1849 H1913 0.960 . S
C1850 C1851 1.309 . S
C1850 C1855 1.304 . S
C1850 O1888 1.435 . S
C1851 C1850 1.309 . S
C1851 C1852 1.476 . S
C1851 H1915 0.930 . S
C1852 C1851 1.476 . S
C1852 C1853 1.400 . S
C1852 C1856 1.567 . S
C1853 C1852 1.400 . S
C1853 C1854 1.373 . S
C1853 C1875 1.432 . S
C1854 C1853 1.373 . S
C1854 C1855 1.339 . S
C1854 C1857 1.530 . S
C1855 C1850 1.304 . S
C1855 C1854 1.339 . S
C1855 H1916 0.930 . S
C1856 C1852 1.567 . S
C1856 H1917 0.961 . S
C1856 H1918 0.960 . S
C1856 H1919 0.958 . S
C1857 C1854 1.530 . S
C1857 H1920 0.961 . S
C1857 H1921 0.960 . S
C1857 H1922 0.960 . S
C1858 C1859 1.530 . S
C1858 H1924 0.961 . S
C1858 H1925 0.961 . S
C1858 H1926 0.959 . S
C1859 C1858 1.530 . S
C1859 O1887 1.412 . S
C1859 H1923 0.980 . S
C1860 C1861 1.288 . S
C1860 C1865 1.377 . S
C1860 O1887 1.393 . S
C1861 C1860 1.288 . S
C1861 C1862 1.369 . S
C1861 H1927 0.932 . S
C1862 C1861 1.369 . S
C1862 C1863 1.398 . S
C1862 C1866 1.527 . S
C1863 C1862 1.398 . S
C1863 C1864 1.380 . S
C1863 C1877 1.497 . S
C1864 C1863 1.380 . S
C1864 C1865 1.383 . S
C1864 C1867 1.603 . S
C1865 C1860 1.377 . S
C1865 C1864 1.383 . S
C1865 H1928 0.929 . S
C1866 C1862 1.527 . S
C1866 H1929 0.961 . S
C1866 H1930 0.959 . S
C1866 H1931 0.959 . S
C1867 C1864 1.603 . S
C1867 H1932 0.960 . S
C1867 H1933 0.962 . S
C1867 H1934 0.961 . S
C1868 C1835 1.587 . S
C1868 C1869 1.360 . S
C1868 C1881 1.412 . S
C1869 C1868 1.360 . S
C1869 C1870 1.365 . S
C1869 H1935 0.929 . S
C1870 C1845 1.553 . S
C1870 C1869 1.365 . S
C1870 C1871 1.404 . S
C1871 C1870 1.404 . S
C1871 C1872 1.395 . S
C1871 C1882 1.451 . S
C1872 C1871 1.395 . S
C1872 C1873 1.322 . S
C1872 H1936 0.930 . S
C1873 C1872 1.322 . S
C1873 C1874 1.459 . S
C1873 H1937 0.929 . S
C1874 C1873 1.459 . S
C1874 C1875 1.445 . S
C1874 C1883 1.395 . S
C1875 C1853 1.432 . S
C1875 C1874 1.445 . S
C1875 C1876 1.370 . S
C1876 C1875 1.370 . S
C1876 C1877 1.438 . S
C1876 H1938 0.930 . S
C1877 C1863 1.497 . S
C1877 C1876 1.438 . S
C1877 C1878 1.360 . S
C1878 C1877 1.360 . S
C1878 C1879 1.401 . S
C1878 C1883 1.446 . S
C1879 C1878 1.401 . S
C1879 C1880 1.347 . S
C1879 H1939 0.929 . S
C1880 C1879 1.347 . S
C1880 C1881 1.455 . S
C1880 H1940 0.930 . S
C1881 C1868 1.412 . S
C1881 C1880 1.455 . S
C1881 C1882 1.331 . S
C1882 C1871 1.451 . S
C1882 C1881 1.331 . S
C1882 C1883 1.497 . S
C1883 C1874 1.395 . S
C1883 C1878 1.446 . S
C1883 C1882 1.497 . S
C1884 C1885 1.582 . S
C1884 H1941 0.962 . S
C1884 H1942 0.959 . S
C1884 H1943 0.958 . S
C1885 C1884 1.582 . S
C1885 O1888 1.458 . S
C1885 H1914 0.980 . S
O1886 C1831 1.426 . S
O1886 C1832 1.334 . S
O1887 C1859 1.412 . S
O1887 C1860 1.393 . S
O1888 C1850 1.435 . S
O1888 C1885 1.458 . S
O1889 C1841 1.468 . S
O1889 C1842 1.408 . S
H1890 C1831 0.980 . S
H1891 C1830 0.959 . S
H1892 C1830 0.959 . S
H1893 C1830 0.960 . S
H1894 C1833 0.929 . S
H1895 C1837 0.929 . S
H1896 C1838 0.959 . S
H1897 C1838 0.961 . S
H1898 C1838 0.961 . S
H1899 C1839 0.960 . S
H1900 C1839 0.960 . S
H1901 C1839 0.961 . S
H1902 C1841 0.980 . S
H1903 C1840 0.961 . S
H1904 C1840 0.960 . S
H1905 C1840 0.959 . S
H1906 C1843 0.930 . S
H1907 C1847 0.931 . S
H1908 C1848 0.959 . S
H1909 C1848 0.961 . S
H1910 C1848 0.959 . S
H1911 C1849 0.960 . S
H1912 C1849 0.960 . S
H1913 C1849 0.960 . S
H1914 C1885 0.980 . S
H1915 C1851 0.930 . S
H1916 C1855 0.930 . S
H1917 C1856 0.961 . S
H1918 C1856 0.960 . S
H1919 C1856 0.958 . S
H1920 C1857 0.961 . S
H1921 C1857 0.960 . S
H1922 C1857 0.960 . S
H1923 C1859 0.980 . S
H1924 C1858 0.961 . S
H1925 C1858 0.961 . S
H1926 C1858 0.959 . S
H1927 C1861 0.932 . S
H1928 C1865 0.929 . S
H1929 C1866 0.961 . S
H1930 C1866 0.959 . S
H1931 C1866 0.959 . S
H1932 C1867 0.960 . S
H1933 C1867 0.962 . S
H1934 C1867 0.961 . S
H1935 C1869 0.929 . S
H1936 C1872 0.930 . S
H1937 C1873 0.929 . S
H1938 C1876 0.930 . S
H1939 C1879 0.929 . S
H1940 C1880 0.930 . S
H1941 C1884 0.962 . S
H1942 C1884 0.959 . S
H1943 C1884 0.958 . S
C1944 C1945 1.560 . S
C1944 H2005 0.959 . S
C1944 H2006 0.959 . S
C1944 H2007 0.960 . S
C1945 C1944 1.560 . S
C1945 O2000 1.426 . S
C1945 H2004 0.980 . S
C1946 C1947 1.407 . S
C1946 C1951 1.418 . S
C1946 O2000 1.334 . S
C1947 C1946 1.407 . S
C1947 C1948 1.360 . S
C1947 H2008 0.929 . S
C1948 C1947 1.360 . S
C1948 C1949 1.401 . S
C1948 C1952 1.527 . S
C1949 C1948 1.401 . S
C1949 C1950 1.405 . S
C1949 C1982 1.587 . S
C1950 C1949 1.405 . S
C1950 C1951 1.332 . S
C1950 C1953 1.496 . S
C1951 C1946 1.418 . S
C1951 C1950 1.332 . S
C1951 H2009 0.929 . S
C1952 C1948 1.527 . S
C1952 H2010 0.959 . S
C1952 H2011 0.961 . S
C1952 H2012 0.961 . S
C1953 C1950 1.496 . S
C1953 H2013 0.960 . S
C1953 H2014 0.960 . S
C1953 H2015 0.961 . S
C1954 C1955 1.517 . S
C1954 H2017 0.961 . S
C1954 H2018 0.960 . S
C1954 H2019 0.959 . S
C1955 C1954 1.517 . S
C1955 O2003 1.468 . S
C1955 H2016 0.980 . S
C1956 C1957 1.349 . S
C1956 C1961 1.367 . S
C1956 O2003 1.408 . S
C1957 C1956 1.349 . S
C1957 C1958 1.407 . S
C1957 H2020 0.930 . S
C1958 C1957 1.407 . S
C1958 C1959 1.449 . S
C1958 C1962 1.535 . S
C1959 C1958 1.449 . S
C1959 C1960 1.384 . S
C1959 C1984 1.553 . S
C1960 C1959 1.384 . S
C1960 C1961 1.364 . S
C1960 C1963 1.450 . S
C1961 C1956 1.367 . S
C1961 C1960 1.364 . S
C1961 H2021 0.931 . S
C1962 C1958 1.535 . S
C1962 H2022 0.959 . S
C1962 H2023 0.961 . S
C1962 H2024 0.959 . S
C1963 C1960 1.450 . S
C1963 H2025 0.960 . S
C1963 H2026 0.960 . S
C1963 H2027 0.960 . S
C1964 C1965 1.309 . S
C1964 C1969 1.304 . S
C1964 O2002 1.435 . S
C1965 C1964 1.309 . S
C1965 C1966 1.476 . S
C1965 H2029 0.930 . S
C1966 C1965 1.476 . S
C1966 C1967 1.400 . S
C1966 C1970 1.567 . S
C1967 C1966 1.400 . S
C1967 C1968 1.373 . S
C1967 C1989 1.432 . S
C1968 C1967 1.373 . S
C1968 C1969 1.339 . S
C1968 C1971 1.530 . S
C1969 C1964 1.304 . S
C1969 C1968 1.339 . S
C1969 H2030 0.930 . S
C1970 C1966 1.567 . S
C1970 H2031 0.961 . S
C1970 H2032 0.960 . S
C1970 H2033 0.958 . S
C1971 C1968 1.530 . S
C1971 H2034 0.961 . S
C1971 H2035 0.960 . S
C1971 H2036 0.960 . S
C1972 C1973 1.530 . S
C1972 H2038 0.961 . S
C1972 H2039 0.961 . S
C1972 H2040 0.959 . S
C1973 C1972 1.530 . S
C1973 O2001 1.412 . S
C1973 H2037 0.980 . S
C1974 C1975 1.288 . S
C1974 C1979 1.377 . S
C1974 O2001 1.393 . S
C1975 C1974 1.288 . S
C1975 C1976 1.369 . S
C1975 H2041 0.932 . S
C1976 C1975 1.369 . S
C1976 C1977 1.398 . S
C1976 C1980 1.527 . S
C1977 C1976 1.398 . S
C1977 C1978 1.380 . S
C1977 C1991 1.497 . S
C1978 C1977 1.380 . S
C1978 C1979 1.383 . S
C1978 C1981 1.603 . S
C1979 C1974 1.377 . S
C1979 C1978 1.383 . S
C1979 H2042 0.929 . S
C1980 C1976 1.527 . S
C1980 H2043 0.961 . S
C1980 H2044 0.959 . S
C1980 H2045 0.959 . S
C1981 C1978 1.603 . S
C1981 H2046 0.960 . S
C1981 H2047 0.962 . S
C1981 H2048 0.961 . S
C1982 C1949 1.587 . S
C1982 C1983 1.360 . S
C1982 C1995 1.412 . S
C1983 C1982 1.360 . S
C1983 C1984 1.365 . S
C1983 H2049 0.929 . S
C1984 C1959 1.553 . S
C1984 C1983 1.365 . S
C1984 C1985 1.404 . S
C1985 C1984 1.404 . S
C1985 C1986 1.395 . S
C1985 C1996 1.451 . S
C1986 C1985 1.395 . S
C1986 C1987 1.322 . S
C1986 H2050 0.930 . S
C1987 C1986 1.322 . S
C1987 C1988 1.459 . S
C1987 H2051 0.929 . S
C1988 C1987 1.459 . S
C1988 C1989 1.445 . S
C1988 C1997 1.395 . S
C1989 C1967 1.432 . S
C1989 C1988 1.445 . S
C1989 C1990 1.370 . S
C1990 C1989 1.370 . S
C1990 C1991 1.438 . S
C1990 H2052 0.930 . S
C1991 C1977 1.497 . S
C1991 C1990 1.438 . S
C1991 C1992 1.360 . S
C1992 C1991 1.360 . S
C1992 C1993 1.401 . S
C1992 C1997 1.446 . S
C1993 C1992 1.401 . S
C1993 C1994 1.347 . S
C1993 H2053 0.929 . S
C1994 C1993 1.347 . S
C1994 C1995 1.455 . S
C1994 H2054 0.930 . S
C1995 C1982 1.412 . S
C1995 C1994 1.455 . S
C1995 C1996 1.331 . S
C1996 C1985 1.451 . S
C1996 C1995 1.331 . S
C1996 C1997 1.497 . S
C1997 C1988 1.395 . S
C1997 C1992 1.446 . S
C1997 C1996 1.497 . S
C1998 C1999 1.582 . S
C1998 H2055 0.962 . S
C1998 H2056 0.959 . S
C1998 H2057 0.958 . S
C1999 C1998 1.582 . S
C1999 O2002 1.458 . S
C1999 H2028 0.980 . S
O2000 C1945 1.426 . S
O2000 C1946 1.334 . S
O2001 C1973 1.412 . S
O2001 C1974 1.393 . S
O2002 C1964 1.435 . S
O2002 C1999 1.458 . S
O2003 C1955 1.468 . S
O2003 C1956 1.408 . S
H2004 C1945 0.980 . S
H2005 C1944 0.959 . S
H2006 C1944 0.959 . S
H2007 C1944 0.960 . S
H2008 C1947 0.929 . S
H2009 C1951 0.929 . S
H2010 C1952 0.959 . S
H2011 C1952 0.961 . S
H2012 C1952 0.961 . S
H2013 C1953 0.960 . S
H2014 C1953 0.960 . S
H2015 C1953 0.961 . S
H2016 C1955 0.980 . S
H2017 C1954 0.961 . S
H2018 C1954 0.960 . S
H2019 C1954 0.959 . S
H2020 C1957 0.930 . S
H2021 C1961 0.931 . S
H2022 C1962 0.959 . S
H2023 C1962 0.961 . S
H2024 C1962 0.959 . S
H2025 C1963 0.960 . S
H2026 C1963 0.960 . S
H2027 C1963 0.960 . S
H2028 C1999 0.980 . S
H2029 C1965 0.930 . S
H2030 C1969 0.930 . S
H2031 C1970 0.961 . S
H2032 C1970 0.960 . S
H2033 C1970 0.958 . S
H2034 C1971 0.961 . S
H2035 C1971 0.960 . S
H2036 C1971 0.960 . S
H2037 C1973 0.980 . S
H2038 C1972 0.961 . S
H2039 C1972 0.961 . S
H2040 C1972 0.959 . S
H2041 C1975 0.932 . S
H2042 C1979 0.929 . S
H2043 C1980 0.961 . S
H2044 C1980 0.959 . S
H2045 C1980 0.959 . S
H2046 C1981 0.960 . S
H2047 C1981 0.962 . S
H2048 C1981 0.961 . S
H2049 C1983 0.929 . S
H2050 C1986 0.930 . S
H2051 C1987 0.929 . S
H2052 C1990 0.930 . S
H2053 C1993 0.929 . S
H2054 C1994 0.930 . S
H2055 C1998 0.962 . S
H2056 C1998 0.959 . S
H2057 C1998 0.958 . S
C2058 C2059 1.560 . S
C2058 H2119 0.959 . S
C2058 H2120 0.959 . S
C2058 H2121 0.960 . S
C2059 C2058 1.560 . S
C2059 O2114 1.426 . S
C2059 H2118 0.980 . S
C2060 C2061 1.407 . S
C2060 C2065 1.418 . S
C2060 O2114 1.334 . S
C2061 C2060 1.407 . S
C2061 C2062 1.360 . S
C2061 H2122 0.929 . S
C2062 C2061 1.360 . S
C2062 C2063 1.401 . S
C2062 C2066 1.527 . S
C2063 C2062 1.401 . S
C2063 C2064 1.405 . S
C2063 C2096 1.587 . S
C2064 C2063 1.405 . S
C2064 C2065 1.332 . S
C2064 C2067 1.496 . S
C2065 C2060 1.418 . S
C2065 C2064 1.332 . S
C2065 H2123 0.929 . S
C2066 C2062 1.527 . S
C2066 H2124 0.959 . S
C2066 H2125 0.961 . S
C2066 H2126 0.961 . S
C2067 C2064 1.496 . S
C2067 H2127 0.960 . S
C2067 H2128 0.960 . S
C2067 H2129 0.961 . S
C2068 C2069 1.517 . S
C2068 H2131 0.961 . S
C2068 H2132 0.960 . S
C2068 H2133 0.959 . S
C2069 C2068 1.517 . S
C2069 O2117 1.468 . S
C2069 H2130 0.980 . S
C2070 C2071 1.349 . S
C2070 C2075 1.367 . S
C2070 O2117 1.408 . S
C2071 C2070 1.349 . S
C2071 C2072 1.407 . S
C2071 H2134 0.930 . S
C2072 C2071 1.407 . S
C2072 C2073 1.449 . S
C2072 C2076 1.535 . S
C2073 C2072 1.449 . S
C2073 C2074 1.384 . S
C2073 C2098 1.553 . S
C2074 C2073 1.384 . S
C2074 C2075 1.364 . S
C2074 C2077 1.450 . S
C2075 C2070 1.367 . S
C2075 C2074 1.364 . S
C2075 H2135 0.931 . S
C2076 C2072 1.535 . S
C2076 H2136 0.959 . S
C2076 H2137 0.961 . S
C2076 H2138 0.959 . S
C2077 C2074 1.450 . S
C2077 H2139 0.960 . S
C2077 H2140 0.960 . S
C2077 H2141 0.960 . S
C2078 C2079 1.309 . S
C2078 C2083 1.304 . S
C2078 O2116 1.435 . S
C2079 C2078 1.309 . S
C2079 C2080 1.476 . S
C2079 H2143 0.930 . S
C2080 C2079 1.476 . S
C2080 C2081 1.400 . S
C2080 C2084 1.567 . S
C2081 C2080 1.400 . S
C2081 C2082 1.373 . S
C2081 C2103 1.432 . S
C2082 C2081 1.373 . S
C2082 C2083 1.339 . S
C2082 C2085 1.530 . S
C2083 C2078 1.304 . S
C2083 C2082 1.339 . S
C2083 H2144 0.930 . S
C2084 C2080 1.567 . S
C2084 H2145 0.961 . S
C2084 H2146 0.960 . S
C2084 H2147 0.958 . S
C2085 C2082 1.530 . S
C2085 H2148 0.961 . S
C2085 H2149 0.960 . S
C2085 H2150 0.960 . S
C2086 C2087 1.530 . S
C2086 H2152 0.961 . S
C2086 H2153 0.961 . S
C2086 H2154 0.959 . S
C2087 C2086 1.530 . S
C2087 O2115 1.412 . S
C2087 H2151 0.980 . S
C2088 C2089 1.288 . S
C2088 C2093 1.377 . S
C2088 O2115 1.393 . S
C2089 C2088 1.288 . S
C2089 C2090 1.369 . S
C2089 H2155 0.932 . S
C2090 C2089 1.369 . S
C2090 C2091 1.398 . S
C2090 C2094 1.527 . S
C2091 C2090 1.398 . S
C2091 C2092 1.380 . S
C2091 C2105 1.497 . S
C2092 C2091 1.380 . S
C2092 C2093 1.383 . S
C2092 C2095 1.603 . S
C2093 C2088 1.377 . S
C2093 C2092 1.383 . S
C2093 H2156 0.929 . S
C2094 C2090 1.527 . S
C2094 H2157 0.961 . S
C2094 H2158 0.959 . S
C2094 H2159 0.959 . S
C2095 C2092 1.603 . S
C2095 H2160 0.960 . S
C2095 H2161 0.962 . S
C2095 H2162 0.961 . S
C2096 C2063 1.587 . S
C2096 C2097 1.360 . S
C2096 C2109 1.412 . S
C2097 C2096 1.360 . S
C2097 C2098 1.365 . S
C2097 H2163 0.929 . S
C2098 C2073 1.553 . S
C2098 C2097 1.365 . S
C2098 C2099 1.404 . S
C2099 C2098 1.404 . S
C2099 C2100 1.395 . S
C2099 C2110 1.451 . S
C2100 C2099 1.395 . S
C2100 C2101 1.322 . S
C2100 H2164 0.930 . S
C2101 C2100 1.322 . S
C2101 C2102 1.459 . S
C2101 H2165 0.929 . S
C2102 C2101 1.459 . S
C2102 C2103 1.445 . S
C2102 C2111 1.395 . S
C2103 C2081 1.432 . S
C2103 C2102 1.445 . S
C2103 C2104 1.370 . S
C2104 C2103 1.370 . S
C2104 C2105 1.438 . S
C2104 H2166 0.930 . S
C2105 C2091 1.497 . S
C2105 C2104 1.438 . S
C2105 C2106 1.360 . S
C2106 C2105 1.360 . S
C2106 C2107 1.401 . S
C2106 C2111 1.446 . S
C2107 C2106 1.401 . S
C2107 C2108 1.347 . S
C2107 H2167 0.929 . S
C2108 C2107 1.347 . S
C2108 C2109 1.455 . S
C2108 H2168 0.930 . S
C2109 C2096 1.412 . S
C2109 C2108 1.455 . S
C2109 C2110 1.331 . S
C2110 C2099 1.451 . S
C2110 C2109 1.331 . S
C2110 C2111 1.497 . S
C2111 C2102 1.395 . S
C2111 C2106 1.446 . S
C2111 C2110 1.497 . S
C2112 C2113 1.582 . S
C2112 H2169 0.962 . S
C2112 H2170 0.959 . S
C2112 H2171 0.958 . S
C2113 C2112 1.582 . S
C2113 O2116 1.458 . S
C2113 H2142 0.980 . S
O2114 C2059 1.426 . S
O2114 C2060 1.334 . S
O2115 C2087 1.412 . S
O2115 C2088 1.393 . S
O2116 C2078 1.435 . S
O2116 C2113 1.458 . S
O2117 C2069 1.468 . S
O2117 C2070 1.408 . S
H2118 C2059 0.980 . S
H2119 C2058 0.959 . S
H2120 C2058 0.959 . S
H2121 C2058 0.960 . S
H2122 C2061 0.929 . S
H2123 C2065 0.929 . S
H2124 C2066 0.959 . S
H2125 C2066 0.961 . S
H2126 C2066 0.961 . S
H2127 C2067 0.960 . S
H2128 C2067 0.960 . S
H2129 C2067 0.961 . S
H2130 C2069 0.980 . S
H2131 C2068 0.961 . S
H2132 C2068 0.960 . S
H2133 C2068 0.959 . S
H2134 C2071 0.930 . S
H2135 C2075 0.931 . S
H2136 C2076 0.959 . S
H2137 C2076 0.961 . S
H2138 C2076 0.959 . S
H2139 C2077 0.960 . S
H2140 C2077 0.960 . S
H2141 C2077 0.960 . S
H2142 C2113 0.980 . S
H2143 C2079 0.930 . S
H2144 C2083 0.930 . S
H2145 C2084 0.961 . S
H2146 C2084 0.960 . S
H2147 C2084 0.958 . S
H2148 C2085 0.961 . S
H2149 C2085 0.960 . S
H2150 C2085 0.960 . S
H2151 C2087 0.980 . S
H2152 C2086 0.961 . S
H2153 C2086 0.961 . S
H2154 C2086 0.959 . S
H2155 C2089 0.932 . S
H2156 C2093 0.929 . S
H2157 C2094 0.961 . S
H2158 C2094 0.959 . S
H2159 C2094 0.959 . S
H2160 C2095 0.960 . S
H2161 C2095 0.962 . S
H2162 C2095 0.961 . S
H2163 C2097 0.929 . S
H2164 C2100 0.930 . S
H2165 C2101 0.929 . S
H2166 C2104 0.930 . S
H2167 C2107 0.929 . S
H2168 C2108 0.930 . S
H2169 C2112 0.962 . S
H2170 C2112 0.959 . S
H2171 C2112 0.958 . S
C2172 C2173 1.560 . S
C2172 H2233 0.959 . S
C2172 H2234 0.959 . S
C2172 H2235 0.960 . S
C2173 C2172 1.560 . S
C2173 O2228 1.426 . S
C2173 H2232 0.980 . S
C2174 C2175 1.407 . S
C2174 C2179 1.418 . S
C2174 O2228 1.334 . S
C2175 C2174 1.407 . S
C2175 C2176 1.360 . S
C2175 H2236 0.929 . S
C2176 C2175 1.360 . S
C2176 C2177 1.401 . S
C2176 C2180 1.527 . S
C2177 C2176 1.401 . S
C2177 C2178 1.405 . S
C2177 C2210 1.587 . S
C2178 C2177 1.405 . S
C2178 C2179 1.332 . S
C2178 C2181 1.496 . S
C2179 C2174 1.418 . S
C2179 C2178 1.332 . S
C2179 H2237 0.929 . S
C2180 C2176 1.527 . S
C2180 H2238 0.959 . S
C2180 H2239 0.961 . S
C2180 H2240 0.961 . S
C2181 C2178 1.496 . S
C2181 H2241 0.960 . S
C2181 H2242 0.960 . S
C2181 H2243 0.961 . S
C2182 C2183 1.517 . S
C2182 H2245 0.961 . S
C2182 H2246 0.960 . S
C2182 H2247 0.959 . S
C2183 C2182 1.517 . S
C2183 O2231 1.468 . S
C2183 H2244 0.980 . S
C2184 C2185 1.349 . S
C2184 C2189 1.367 . S
C2184 O2231 1.408 . S
C2185 C2184 1.349 . S
C2185 C2186 1.407 . S
C2185 H2248 0.930 . S
C2186 C2185 1.407 . S
C2186 C2187 1.449 . S
C2186 C2190 1.535 . S
C2187 C2186 1.449 . S
C2187 C2188 1.384 . S
C2187 C2212 1.553 . S
C2188 C2187 1.384 . S
C2188 C2189 1.364 . S
C2188 C2191 1.450 . S
C2189 C2184 1.367 . S
C2189 C2188 1.364 . S
C2189 H2249 0.931 . S
C2190 C2186 1.535 . S
C2190 H2250 0.959 . S
C2190 H2251 0.961 . S
C2190 H2252 0.959 . S
C2191 C2188 1.450 . S
C2191 H2253 0.960 . S
C2191 H2254 0.960 . S
C2191 H2255 0.960 . S
C2192 C2193 1.309 . S
C2192 C2197 1.304 . S
C2192 O2230 1.435 . S
C2193 C2192 1.309 . S
C2193 C2194 1.476 . S
C2193 H2257 0.930 . S
C2194 C2193 1.476 . S
C2194 C2195 1.400 . S
C2194 C2198 1.567 . S
C2195 C2194 1.400 . S
C2195 C2196 1.373 . S
C2195 C2217 1.432 . S
C2196 C2195 1.373 . S
C2196 C2197 1.339 . S
C2196 C2199 1.530 . S
C2197 C2192 1.304 . S
C2197 C2196 1.339 . S
C2197 H2258 0.930 . S
C2198 C2194 1.567 . S
C2198 H2259 0.961 . S
C2198 H2260 0.960 . S
C2198 H2261 0.958 . S
C2199 C2196 1.530 . S
C2199 H2262 0.961 . S
C2199 H2263 0.960 . S
C2199 H2264 0.960 . S
C2200 C2201 1.530 . S
C2200 H2266 0.961 . S
C2200 H2267 0.961 . S
C2200 H2268 0.959 . S
C2201 C2200 1.530 . S
C2201 O2229 1.412 . S
C2201 H2265 0.980 . S
C2202 C2203 1.288 . S
C2202 C2207 1.377 . S
C2202 O2229 1.393 . S
C2203 C2202 1.288 . S
C2203 C2204 1.369 . S
C2203 H2269 0.932 . S
C2204 C2203 1.369 . S
C2204 C2205 1.398 . S
C2204 C2208 1.527 . S
C2205 C2204 1.398 . S
C2205 C2206 1.380 . S
C2205 C2219 1.497 . S
C2206 C2205 1.380 . S
C2206 C2207 1.383 . S
C2206 C2209 1.603 . S
C2207 C2202 1.377 . S
C2207 C2206 1.383 . S
C2207 H2270 0.929 . S
C2208 C2204 1.527 . S
C2208 H2271 0.961 . S
C2208 H2272 0.959 . S
C2208 H2273 0.959 . S
C2209 C2206 1.603 . S
C2209 H2274 0.960 . S
C2209 H2275 0.962 . S
C2209 H2276 0.961 . S
C2210 C2177 1.587 . S
C2210 C2211 1.360 . S
C2210 C2223 1.412 . S
C2211 C2210 1.360 . S
C2211 C2212 1.365 . S
C2211 H2277 0.929 . S
C2212 C2187 1.553 . S
C2212 C2211 1.365 . S
C2212 C2213 1.404 . S
C2213 C2212 1.404 . S
C2213 C2214 1.395 . S
C2213 C2224 1.451 . S
C2214 C2213 1.395 . S
C2214 C2215 1.322 . S
C2214 H2278 0.930 . S
C2215 C2214 1.322 . S
C2215 C2216 1.459 . S
C2215 H2279 0.929 . S
C2216 C2215 1.459 . S
C2216 C2217 1.445 . S
C2216 C2225 1.395 . S
C2217 C2195 1.432 . S
C2217 C2216 1.445 . S
C2217 C2218 1.370 . S
C2218 C2217 1.370 . S
C2218 C2219 1.438 . S
C2218 H2280 0.930 . S
C2219 C2205 1.497 . S
C2219 C2218 1.438 . S
C2219 C2220 1.360 . S
C2220 C2219 1.360 . S
C2220 C2221 1.401 . S
C2220 C2225 1.446 . S
C2221 C2220 1.401 . S
C2221 C2222 1.347 . S
C2221 H2281 0.929 . S
C2222 C2221 1.347 . S
C2222 C2223 1.455 . S
C2222 H2282 0.930 . S
C2223 C2210 1.412 . S
C2223 C2222 1.455 . S
C2223 C2224 1.331 . S
C2224 C2213 1.451 . S
C2224 C2223 1.331 . S
C2224 C2225 1.497 . S
C2225 C2216 1.395 . S
C2225 C2220 1.446 . S
C2225 C2224 1.497 . S
C2226 C2227 1.582 . S
C2226 H2283 0.962 . S
C2226 H2284 0.959 . S
C2226 H2285 0.958 . S
C2227 C2226 1.582 . S
C2227 O2230 1.458 . S
C2227 H2256 0.980 . S
O2228 C2173 1.426 . S
O2228 C2174 1.334 . S
O2229 C2201 1.412 . S
O2229 C2202 1.393 . S
O2230 C2192 1.435 . S
O2230 C2227 1.458 . S
O2231 C2183 1.468 . S
O2231 C2184 1.408 . S
H2232 C2173 0.980 . S
H2233 C2172 0.959 . S
H2234 C2172 0.959 . S
H2235 C2172 0.960 . S
H2236 C2175 0.929 . S
H2237 C2179 0.929 . S
H2238 C2180 0.959 . S
H2239 C2180 0.961 . S
H2240 C2180 0.961 . S
H2241 C2181 0.960 . S
H2242 C2181 0.960 . S
H2243 C2181 0.961 . S
H2244 C2183 0.980 . S
H2245 C2182 0.961 . S
H2246 C2182 0.960 . S
H2247 C2182 0.959 . S
H2248 C2185 0.930 . S
H2249 C2189 0.931 . S
H2250 C2190 0.959 . S
H2251 C2190 0.961 . S
H2252 C2190 0.959 . S
H2253 C2191 0.960 . S
H2254 C2191 0.960 . S
H2255 C2191 0.960 . S
H2256 C2227 0.980 . S
H2257 C2193 0.930 . S
H2258 C2197 0.930 . S
H2259 C2198 0.961 . S
H2260 C2198 0.960 . S
H2261 C2198 0.958 . S
H2262 C2199 0.961 . S
H2263 C2199 0.960 . S
H2264 C2199 0.960 . S
H2265 C2201 0.980 . S
H2266 C2200 0.961 . S
H2267 C2200 0.961 . S
H2268 C2200 0.959 . S
H2269 C2203 0.932 . S
H2270 C2207 0.929 . S
H2271 C2208 0.961 . S
H2272 C2208 0.959 . S
H2273 C2208 0.959 . S
H2274 C2209 0.960 . S
H2275 C2209 0.962 . S
H2276 C2209 0.961 . S
H2277 C2211 0.929 . S
H2278 C2214 0.930 . S
H2279 C2215 0.929 . S
H2280 C2218 0.930 . S
H2281 C2221 0.929 . S
H2282 C2222 0.930 . S
H2283 C2226 0.962 . S
H2284 C2226 0.959 . S
H2285 C2226 0.958 . S
C2286 C2287 1.369 1_455 S
C2286 C2288 1.419 . S
C2286 H2290 0.930 . S
C2287 C2286 1.369 1_655 S
C2287 C2296 1.429 . S
C2288 C2286 1.419 . S
C2288 C2289 1.363 1_455 S
C2288 H2291 0.929 . S
C2289 C2288 1.363 1_655 S
C2289 C2295 1.428 . S
H2290 C2286 0.930 . S
H2291 C2288 0.929 . S
S2292 N2293 1.613 . S
S2292 N2294 1.610 . S
N2293 S2292 1.613 . S
N2293 C2296 1.350 . S
N2294 S2292 1.610 . S
N2294 C2295 1.351 . S
C2295 C2289 1.428 . S
C2295 N2294 1.351 . S
C2295 C2296 1.434 . S
C2296 C2287 1.429 . S
C2296 N2293 1.350 . S
C2296 C2295 1.434 . S
C2297 C2298 1.369 . S
C2297 C2299 1.419 . S
C2297 H2301 0.930 . S
C2298 C2297 1.369 . S
C2298 C2307 1.429 . S
C2299 C2297 1.419 . S
C2299 C2300 1.363 . S
C2299 H2302 0.929 . S
C2300 C2299 1.363 . S
C2300 C2306 1.428 . S
H2301 C2297 0.930 . S
H2302 C2299 0.929 . S
S2303 N2304 1.613 . S
S2303 N2305 1.610 . S
N2304 S2303 1.613 . S
N2304 C2307 1.350 . S
N2305 S2303 1.610 . S
N2305 C2306 1.351 . S
C2306 C2300 1.428 . S
C2306 N2305 1.351 . S
C2306 C2307 1.434 . S
C2307 C2298 1.429 . S
C2307 N2304 1.350 . S
C2307 C2306 1.434 . S
C2308 C2309 1.369 . S
C2308 C2310 1.419 . S
C2308 H2312 0.930 . S
C2309 C2308 1.369 . S
C2309 C2318 1.455 . S
C2310 C2308 1.419 . S
C2310 C2311 1.363 . S
C2310 H2313 0.929 . S
C2311 C2310 1.363 . S
C2311 C2317 1.428 . S
H2312 C2308 0.930 . S
H2313 C2310 0.929 . S
S2314 N2315 1.613 . S
S2314 N2316 1.610 . S
N2315 S2314 1.613 . S
N2315 C2318 1.331 1_565 S
N2316 S2314 1.610 . S
N2316 C2317 1.351 1_565 S
C2317 C2311 1.428 . S
C2317 N2316 1.351 1_545 S
C2317 C2318 1.424 . S
C2318 C2309 1.455 . S
C2318 N2315 1.331 1_545 S
C2318 C2317 1.424 . S
C2319 C2320 1.369 . S
C2319 C2321 1.419 . S
C2319 H2323 0.930 . S
C2320 C2319 1.369 . S
C2320 C2329 1.429 1_565 S
C2321 C2319 1.419 . S
C2321 C2322 1.363 . S
C2321 H2324 0.929 . S
C2322 C2321 1.363 . S
C2322 C2328 1.428 1_565 S
H2323 C2319 0.930 . S
H2324 C2321 0.929 . S
S2325 N2326 1.613 . S
S2325 N2327 1.610 . S
N2326 S2325 1.613 . S
N2326 C2329 1.350 . S
N2327 S2325 1.610 . S
N2327 C2328 1.351 . S
C2328 C2322 1.428 1_545 S
C2328 N2327 1.351 . S
C2328 C2329 1.434 . S
C2329 C2320 1.429 1_545 S
C2329 N2326 1.350 . S
C2329 C2328 1.434 . S
C2330 C2331 1.369 . S
C2330 C2332 1.419 . S
C2330 H2334 0.930 . S
C2331 C2330 1.369 . S
C2331 C2340 1.429 1_455 S
C2332 C2330 1.419 . S
C2332 C2333 1.363 . S
C2332 H2335 0.929 . S
C2333 C2332 1.363 . S
C2333 C2339 1.428 1_455 S
H2334 C2330 0.930 . S
H2335 C2332 0.929 . S
S2336 N2337 1.613 . S
S2336 N2338 1.610 . S
N2337 S2336 1.613 . S
N2337 C2340 1.350 . S
N2338 S2336 1.610 . S
N2338 C2339 1.351 . S
C2339 C2333 1.428 1_655 S
C2339 N2338 1.351 . S
C2339 C2340 1.434 . S
C2340 C2331 1.429 1_655 S
C2340 N2337 1.350 . S
C2340 C2339 1.434 . S
C2341 C2342 1.369 . S
C2341 C2343 1.419 . S
C2341 H2345 0.930 . S
C2342 C2341 1.369 . S
C2342 C2351 1.429 . S
C2343 C2341 1.419 . S
C2343 C2344 1.363 . S
C2343 H2346 0.929 . S
C2344 C2343 1.363 . S
C2344 C2350 1.428 . S
H2345 C2341 0.930 . S
H2346 C2343 0.929 . S
S2347 N2348 1.613 . S
S2347 N2349 1.610 . S
N2348 S2347 1.613 . S
N2348 C2351 1.350 . S
N2349 S2347 1.610 . S
N2349 C2350 1.351 . S
C2350 C2344 1.428 . S
C2350 N2349 1.351 . S
C2350 C2351 1.434 . S
C2351 C2342 1.429 . S
C2351 N2348 1.350 . S
C2351 C2350 1.434 . S
C2352 C2353 1.369 . S
C2352 C2354 1.419 . S
C2352 H2356 0.930 . S
C2353 C2352 1.369 . S
C2353 C2362 1.429 1_455 S
C2354 C2352 1.419 . S
C2354 C2355 1.363 . S
C2354 H2357 0.929 . S
C2355 C2354 1.363 . S
C2355 C2361 1.428 1_455 S
H2356 C2352 0.930 . S
H2357 C2354 0.929 . S
S2358 N2359 1.613 . S
S2358 N2360 1.610 . S
N2359 S2358 1.613 . S
N2359 C2362 1.350 . S
N2360 S2358 1.610 . S
N2360 C2361 1.351 . S
C2361 C2355 1.428 1_655 S
C2361 N2360 1.351 . S
C2361 C2362 1.434 . S
C2362 C2353 1.429 1_655 S
C2362 N2359 1.350 . S
C2362 C2361 1.434 . S
C2363 C2364 1.369 . S
C2363 C2365 1.419 . S
C2363 H2367 0.930 . S
C2364 C2363 1.369 . S
C2364 C2373 1.429 . S
C2365 C2363 1.419 . S
C2365 C2366 1.363 . S
C2365 H2368 0.929 . S
C2366 C2365 1.363 . S
C2366 C2372 1.428 . S
H2367 C2363 0.930 . S
H2368 C2365 0.929 . S
S2369 N2370 1.613 . S
S2369 N2371 1.610 . S
N2370 S2369 1.613 . S
N2370 C2373 1.350 . S
N2371 S2369 1.610 . S
N2371 C2372 1.351 . S
C2372 C2366 1.428 . S
C2372 N2371 1.351 . S
C2372 C2373 1.434 . S
C2373 C2364 1.429 . S
C2373 N2370 1.350 . S
C2373 C2372 1.434 . S
C2374 C2375 1.369 1_545 S
C2374 C2376 1.419 . S
C2374 H2378 0.930 . S
C2375 C2374 1.369 1_565 S
C2375 C2384 1.429 . S
C2376 C2374 1.419 . S
C2376 C2377 1.363 1_545 S
C2376 H2379 0.929 . S
C2377 C2376 1.363 1_565 S
C2377 C2383 1.428 . S
H2378 C2374 0.930 . S
H2379 C2376 0.929 . S
S2380 N2381 1.613 . S
S2380 N2382 1.610 . S
N2381 S2380 1.613 . S
N2381 C2384 1.350 . S
N2382 S2380 1.610 . S
N2382 C2383 1.351 . S
C2383 C2377 1.428 . S
C2383 N2382 1.351 . S
C2383 C2384 1.434 . S
C2384 C2375 1.429 . S
C2384 N2381 1.350 . S
C2384 C2383 1.434 . S
C2385 C2386 1.369 1_565 S
C2385 C2387 1.419 . S
C2385 H2389 0.930 . S
C2386 C2385 1.369 1_545 S
C2386 C2395 1.429 . S
C2387 C2385 1.419 . S
C2387 C2388 1.363 1_565 S
C2387 H2390 0.929 . S
C2388 C2387 1.363 1_545 S
C2388 C2394 1.428 . S
H2389 C2385 0.930 . S
H2390 C2387 0.929 . S
S2391 N2392 1.613 . S
S2391 N2393 1.610 . S
N2392 S2391 1.613 . S
N2392 C2395 1.350 . S
N2393 S2391 1.610 . S
N2393 C2394 1.351 . S
C2394 C2388 1.428 . S
C2394 N2393 1.351 . S
C2394 C2395 1.434 . S
C2395 C2386 1.429 . S
C2395 N2392 1.350 . S
C2395 C2394 1.434 . S
C2396 C2397 1.369 1_455 S
C2396 C2398 1.419 . S
C2396 H2400 0.930 . S
C2397 C2396 1.369 1_655 S
C2397 C2406 1.429 . S
C2398 C2396 1.419 . S
C2398 C2399 1.363 1_455 S
C2398 H2401 0.929 . S
C2399 C2398 1.363 1_655 S
C2399 C2405 1.428 . S
H2400 C2396 0.930 . S
H2401 C2398 0.929 . S
S2402 N2403 1.613 . S
S2402 N2404 1.610 . S
N2403 S2402 1.613 . S
N2403 C2406 1.350 . S
N2404 S2402 1.610 . S
N2404 C2405 1.351 . S
C2405 C2399 1.428 . S
C2405 N2404 1.351 . S
C2405 C2406 1.434 . S
C2406 C2397 1.429 . S
C2406 N2403 1.350 . S
C2406 C2405 1.434 . S
C2407 C2408 1.369 . S
C2407 C2409 1.419 . S
C2407 H2411 0.930 . S
C2408 C2407 1.369 . S
C2408 C2417 1.429 . S
C2409 C2407 1.419 . S
C2409 C2410 1.363 . S
C2409 H2412 0.929 . S
C2410 C2409 1.363 . S
C2410 C2416 1.428 . S
H2411 C2407 0.930 . S
H2412 C2409 0.929 . S
S2413 N2414 1.613 . S
S2413 N2415 1.610 . S
N2414 S2413 1.613 . S
N2414 C2417 1.350 . S
N2415 S2413 1.610 . S
N2415 C2416 1.351 . S
C2416 C2410 1.428 . S
C2416 N2415 1.351 . S
C2416 C2417 1.434 . S
C2417 C2408 1.429 . S
C2417 N2414 1.350 . S
C2417 C2416 1.434 . S
C2418 C2419 1.369 . S
C2418 C2420 1.419 . S
C2418 H2422 0.930 . S
C2419 C2418 1.369 . S
C2419 C2428 1.429 . S
C2420 C2418 1.419 . S
C2420 C2421 1.363 . S
C2420 H2423 0.929 . S
C2421 C2420 1.363 . S
C2421 C2427 1.428 . S
H2422 C2418 0.930 . S
H2423 C2420 0.929 . S
S2424 N2425 1.613 . S
S2424 N2426 1.610 . S
N2425 S2424 1.613 . S
N2425 C2428 1.350 . S
N2426 S2424 1.610 . S
N2426 C2427 1.351 . S
C2427 C2421 1.428 . S
C2427 N2426 1.351 . S
C2427 C2428 1.434 . S
C2428 C2419 1.429 . S
C2428 N2425 1.350 . S
C2428 C2427 1.434 . S
C2429 C2430 1.369 . S
C2429 C2431 1.419 . S
C2429 H2433 0.930 . S
C2430 C2429 1.369 . S
C2430 C2439 1.429 . S
C2431 C2429 1.419 . S
C2431 C2432 1.363 . S
C2431 H2434 0.929 . S
C2432 C2431 1.363 . S
C2432 C2438 1.428 . S
H2433 C2429 0.930 . S
H2434 C2431 0.929 . S
S2435 N2436 1.613 . S
S2435 N2437 1.610 . S
N2436 S2435 1.613 . S
N2436 C2439 1.350 . S
N2437 S2435 1.610 . S
N2437 C2438 1.351 . S
C2438 C2432 1.428 . S
C2438 N2437 1.351 . S
C2438 C2439 1.434 . S
C2439 C2430 1.429 . S
C2439 N2436 1.350 . S
C2439 C2438 1.434 . S
C2440 C2441 1.369 . S
C2440 C2442 1.419 . S
C2440 H2444 0.930 . S
C2441 C2440 1.369 . S
C2441 C2450 1.429 . S
C2442 C2440 1.419 . S
C2442 C2443 1.363 . S
C2442 H2445 0.929 . S
C2443 C2442 1.363 . S
C2443 C2449 1.428 . S
H2444 C2440 0.930 . S
H2445 C2442 0.929 . S
S2446 N2447 1.613 . S
S2446 N2448 1.610 . S
N2447 S2446 1.613 . S
N2447 C2450 1.350 . S
N2448 S2446 1.610 . S
N2448 C2449 1.351 . S
C2449 C2443 1.428 . S
C2449 N2448 1.351 . S
C2449 C2450 1.434 . S
C2450 C2441 1.429 . S
C2450 N2447 1.350 . S
C2450 C2449 1.434 . S
C2451 C2452 1.369 . S
C2451 C2453 1.419 . S
C2451 H2455 0.930 . S
C2452 C2451 1.369 . S
C2452 C2461 1.429 . S
C2453 C2451 1.419 . S
C2453 C2454 1.363 . S
C2453 H2456 0.929 . S
C2454 C2453 1.363 . S
C2454 C2460 1.428 . S
H2455 C2451 0.930 . S
H2456 C2453 0.929 . S
S2457 N2458 1.613 . S
S2457 N2459 1.610 . S
N2458 S2457 1.613 . S
N2458 C2461 1.350 . S
N2459 S2457 1.610 . S
N2459 C2460 1.351 . S
C2460 C2454 1.428 . S
C2460 N2459 1.351 . S
C2460 C2461 1.434 . S
C2461 C2452 1.429 . S
C2461 N2458 1.350 . S
C2461 C2460 1.434 . S
C2462 C2463 1.369 . S
C2462 C2464 1.419 . S
C2462 H2466 0.930 . S
C2463 C2462 1.369 . S
C2463 C2472 1.429 . S
C2464 C2462 1.419 . S
C2464 C2465 1.363 . S
C2464 H2467 0.929 . S
C2465 C2464 1.363 . S
C2465 C2471 1.428 . S
H2466 C2462 0.930 . S
H2467 C2464 0.929 . S
S2468 N2469 1.613 . S
S2468 N2470 1.610 . S
N2469 S2468 1.613 . S
N2469 C2472 1.350 . S
N2470 S2468 1.610 . S
N2470 C2471 1.351 . S
C2471 C2465 1.428 . S
C2471 N2470 1.351 . S
C2471 C2472 1.434 . S
C2472 C2463 1.429 . S
C2472 N2469 1.350 . S
C2472 C2471 1.434 . S
C2473 C2474 1.369 . S
C2473 C2475 1.419 . S
C2473 H2477 0.930 . S
C2474 C2473 1.369 . S
C2474 C2483 1.429 . S
C2475 C2473 1.419 . S
C2475 C2476 1.363 . S
C2475 H2478 0.929 . S
C2476 C2475 1.363 . S
C2476 C2482 1.428 . S
H2477 C2473 0.930 . S
H2478 C2475 0.929 . S
S2479 N2480 1.613 . S
S2479 N2481 1.610 . S
N2480 S2479 1.613 . S
N2480 C2483 1.350 . S
N2481 S2479 1.610 . S
N2481 C2482 1.351 . S
C2482 C2476 1.428 . S
C2482 N2481 1.351 . S
C2482 C2483 1.434 . S
C2483 C2474 1.429 . S
C2483 N2480 1.350 . S
C2483 C2482 1.434 . S
C2484 C2485 1.369 . S
C2484 C2486 1.419 . S
C2484 H2488 0.930 . S
C2485 C2484 1.369 . S
C2485 C2494 1.429 . S
C2486 C2484 1.419 . S
C2486 C2487 1.363 . S
C2486 H2489 0.929 . S
C2487 C2486 1.363 . S
C2487 C2493 1.428 . S
H2488 C2484 0.930 . S
H2489 C2486 0.929 . S
S2490 N2491 1.613 . S
S2490 N2492 1.610 . S
N2491 S2490 1.613 . S
N2491 C2494 1.350 . S
N2492 S2490 1.610 . S
N2492 C2493 1.351 . S
C2493 C2487 1.428 . S
C2493 N2492 1.351 . S
C2493 C2494 1.434 . S
C2494 C2485 1.429 . S
C2494 N2491 1.350 . S
C2494 C2493 1.434 . S
C2495 C2496 1.369 . S
C2495 C2497 1.419 . S
C2495 H2499 0.930 . S
C2496 C2495 1.369 . S
C2496 C2505 1.429 . S
C2497 C2495 1.419 . S
C2497 C2498 1.363 . S
C2497 H2500 0.929 . S
C2498 C2497 1.363 . S
C2498 C2504 1.428 . S
H2499 C2495 0.930 . S
H2500 C2497 0.929 . S
S2501 N2502 1.613 . S
S2501 N2503 1.610 . S
N2502 S2501 1.613 . S
N2502 C2505 1.350 . S
N2503 S2501 1.610 . S
N2503 C2504 1.351 . S
C2504 C2498 1.428 . S
C2504 N2503 1.351 . S
C2504 C2505 1.434 . S
C2505 C2496 1.429 . S
C2505 N2502 1.350 . S
C2505 C2504 1.434 . S
C2506 C2507 1.369 . S
C2506 C2508 1.419 . S
C2506 H2510 0.930 . S
C2507 C2506 1.369 . S
C2507 C2516 1.429 . S
C2508 C2506 1.419 . S
C2508 C2509 1.363 . S
C2508 H2511 0.929 . S
C2509 C2508 1.363 . S
C2509 C2515 1.428 . S
H2510 C2506 0.930 . S
H2511 C2508 0.929 . S
S2512 N2513 1.613 . S
S2512 N2514 1.610 . S
N2513 S2512 1.613 . S
N2513 C2516 1.350 . S
N2514 S2512 1.610 . S
N2514 C2515 1.351 . S
C2515 C2509 1.428 . S
C2515 N2514 1.351 . S
C2515 C2516 1.434 . S
C2516 C2507 1.429 . S
C2516 N2513 1.350 . S
C2516 C2515 1.434 . S
C2517 C2518 1.369 . S
C2517 C2519 1.419 . S
C2517 H2521 0.930 . S
C2518 C2517 1.369 . S
C2518 C2527 1.429 . S
C2519 C2517 1.419 . S
C2519 C2520 1.363 . S
C2519 H2522 0.929 . S
C2520 C2519 1.363 . S
C2520 C2526 1.428 . S
H2521 C2517 0.930 . S
H2522 C2519 0.929 . S
S2523 N2524 1.613 . S
S2523 N2525 1.610 . S
N2524 S2523 1.613 . S
N2524 C2527 1.350 . S
N2525 S2523 1.610 . S
N2525 C2526 1.351 . S
C2526 C2520 1.428 . S
C2526 N2525 1.351 . S
C2526 C2527 1.434 . S
C2527 C2518 1.429 . S
C2527 N2524 1.350 . S
C2527 C2526 1.434 . S
C2528 C2529 1.369 . S
C2528 C2530 1.419 . S
C2528 H2532 0.930 . S
C2529 C2528 1.369 . S
C2529 C2538 1.429 . S
C2530 C2528 1.419 . S
C2530 C2531 1.363 . S
C2530 H2533 0.929 . S
C2531 C2530 1.363 . S
C2531 C2537 1.428 . S
H2532 C2528 0.930 . S
H2533 C2530 0.929 . S
S2534 N2535 1.613 . S
S2534 N2536 1.610 . S
N2535 S2534 1.613 . S
N2535 C2538 1.350 . S
N2536 S2534 1.610 . S
N2536 C2537 1.351 . S
C2537 C2531 1.428 . S
C2537 N2536 1.351 . S
C2537 C2538 1.434 . S
C2538 C2529 1.429 . S
C2538 N2535 1.350 . S
C2538 C2537 1.434 . S
C2539 C2540 1.369 . S
C2539 C2541 1.419 . S
C2539 H2543 0.930 . S
C2540 C2539 1.369 . S
C2540 C2549 1.429 . S
C2541 C2539 1.419 . S
C2541 C2542 1.363 . S
C2541 H2544 0.929 . S
C2542 C2541 1.363 . S
C2542 C2548 1.428 . S
H2543 C2539 0.930 . S
H2544 C2541 0.929 . S
S2545 N2546 1.613 . S
S2545 N2547 1.610 . S
N2546 S2545 1.613 . S
N2546 C2549 1.350 . S
N2547 S2545 1.610 . S
N2547 C2548 1.351 . S
C2548 C2542 1.428 . S
C2548 N2547 1.351 . S
C2548 C2549 1.434 . S
C2549 C2540 1.429 . S
C2549 N2546 1.350 . S
C2549 C2548 1.434 . S
C2550 C2551 1.369 . S
C2550 C2552 1.419 . S
C2550 H2554 0.930 . S
C2551 C2550 1.369 . S
C2551 C2560 1.429 . S
C2552 C2550 1.419 . S
C2552 C2553 1.363 . S
C2552 H2555 0.929 . S
C2553 C2552 1.363 . S
C2553 C2559 1.428 . S
H2554 C2550 0.930 . S
H2555 C2552 0.929 . S
S2556 N2557 1.613 . S
S2556 N2558 1.610 . S
N2557 S2556 1.613 . S
N2557 C2560 1.350 . S
N2558 S2556 1.610 . S
N2558 C2559 1.351 . S
C2559 C2553 1.428 . S
C2559 N2558 1.351 . S
C2559 C2560 1.434 . S
C2560 C2551 1.429 . S
C2560 N2557 1.350 . S
C2560 C2559 1.434 . S
C2561 C2562 1.369 . S
C2561 C2563 1.419 . S
C2561 H2565 0.930 . S
C2562 C2561 1.369 . S
C2562 C2571 1.429 . S
C2563 C2561 1.419 . S
C2563 C2564 1.363 . S
C2563 H2566 0.929 . S
C2564 C2563 1.363 . S
C2564 C2570 1.428 . S
H2565 C2561 0.930 . S
H2566 C2563 0.929 . S
S2567 N2568 1.616 . S
S2567 N2569 1.612 . S
N2568 S2567 1.616 . S
N2568 C2571 1.350 . S
N2569 S2567 1.612 . S
N2569 C2570 1.351 . S
C2570 C2564 1.428 . S
C2570 N2569 1.351 . S
C2570 C2571 1.434 . S
C2571 C2562 1.429 . S
C2571 N2568 1.350 . S
C2571 C2570 1.434 . S
C2572 C2573 1.369 . S
C2572 C2574 1.419 . S
C2572 H2576 0.930 . S
C2573 C2572 1.369 . S
C2573 C2582 1.429 . S
C2574 C2572 1.419 . S
C2574 C2575 1.363 . S
C2574 H2577 0.929 . S
C2575 C2574 1.363 . S
C2575 C2581 1.428 . S
H2576 C2572 0.930 . S
H2577 C2574 0.929 . S
S2578 N2579 1.613 . S
S2578 N2580 1.610 . S
N2579 S2578 1.613 . S
N2579 C2582 1.350 . S
N2580 S2578 1.610 . S
N2580 C2581 1.351 . S
C2581 C2575 1.428 . S
C2581 N2580 1.351 . S
C2581 C2582 1.434 . S
C2582 C2573 1.429 . S
C2582 N2579 1.350 . S
C2582 C2581 1.434 . S
C2583 C2584 1.369 . S
C2583 C2585 1.419 . S
C2583 H2587 0.930 . S
C2584 C2583 1.369 . S
C2584 C2593 1.429 . S
C2585 C2583 1.419 . S
C2585 C2586 1.363 . S
C2585 H2588 0.929 . S
C2586 C2585 1.363 . S
C2586 C2592 1.428 . S
H2587 C2583 0.930 . S
H2588 C2585 0.929 . S
S2589 N2590 1.613 . S
S2589 N2591 1.610 . S
N2590 S2589 1.613 . S
N2590 C2593 1.350 . S
N2591 S2589 1.610 . S
N2591 C2592 1.351 . S
C2592 C2586 1.428 . S
C2592 N2591 1.351 . S
C2592 C2593 1.434 . S
C2593 C2584 1.429 . S
C2593 N2590 1.350 . S
C2593 C2592 1.434 . S
C2594 C2595 1.369 . S
C2594 C2596 1.419 . S
C2594 H2598 0.930 . S
C2595 C2594 1.369 . S
C2595 C2604 1.429 . S
C2596 C2594 1.419 . S
C2596 C2597 1.363 . S
C2596 H2599 0.929 . S
C2597 C2596 1.363 . S
C2597 C2603 1.428 . S
H2598 C2594 0.930 . S
H2599 C2596 0.929 . S
S2600 N2601 1.613 . S
S2600 N2602 1.610 . S
N2601 S2600 1.613 . S
N2601 C2604 1.350 . S
N2602 S2600 1.610 . S
N2602 C2603 1.351 . S
C2603 C2597 1.428 . S
C2603 N2602 1.351 . S
C2603 C2604 1.434 . S
C2604 C2595 1.429 . S
C2604 N2601 1.350 . S
C2604 C2603 1.434 . S
C2605 C2606 1.369 . S
C2605 C2607 1.419 . S
C2605 H2609 0.930 . S
C2606 C2605 1.369 . S
C2606 C2615 1.429 . S
C2607 C2605 1.419 . S
C2607 C2608 1.363 . S
C2607 H2610 0.929 . S
C2608 C2607 1.363 . S
C2608 C2614 1.428 . S
H2609 C2605 0.930 . S
H2610 C2607 0.929 . S
S2611 N2612 1.613 . S
S2611 N2613 1.610 . S
N2612 S2611 1.613 . S
N2612 C2615 1.350 . S
N2613 S2611 1.610 . S
N2613 C2614 1.351 . S
C2614 C2608 1.428 . S
C2614 N2613 1.351 . S
C2614 C2615 1.434 . S
C2615 C2606 1.429 . S
C2615 N2612 1.350 . S
C2615 C2614 1.434 . S
C2616 C2617 1.369 . S
C2616 C2618 1.419 . S
C2616 H2620 0.930 . S
C2617 C2616 1.369 . S
C2617 C2626 1.429 . S
C2618 C2616 1.419 . S
C2618 C2619 1.363 . S
C2618 H2621 0.929 . S
C2619 C2618 1.363 . S
C2619 C2625 1.428 . S
H2620 C2616 0.930 . S
H2621 C2618 0.929 . S
S2622 N2623 1.613 . S
S2622 N2624 1.610 . S
N2623 S2622 1.613 . S
N2623 C2626 1.350 . S
N2624 S2622 1.610 . S
N2624 C2625 1.351 . S
C2625 C2619 1.428 . S
C2625 N2624 1.351 . S
C2625 C2626 1.434 . S
C2626 C2617 1.429 . S
C2626 N2623 1.350 . S
C2626 C2625 1.434 . S
C2627 C2628 1.369 . S
C2627 C2629 1.419 . S
C2627 H2631 0.930 . S
C2628 C2627 1.369 . S
C2628 C2637 1.429 . S
C2629 C2627 1.419 . S
C2629 C2630 1.363 . S
C2629 H2632 0.929 . S
C2630 C2629 1.363 . S
C2630 C2636 1.428 . S
H2631 C2627 0.930 . S
H2632 C2629 0.929 . S
S2633 N2634 1.613 . S
S2633 N2635 1.610 . S
N2634 S2633 1.613 . S
N2634 C2637 1.350 . S
N2635 S2633 1.610 . S
N2635 C2636 1.351 . S
C2636 C2630 1.428 . S
C2636 N2635 1.351 . S
C2636 C2637 1.434 . S
C2637 C2628 1.429 . S
C2637 N2634 1.350 . S
C2637 C2636 1.434 . S
C2638 C2639 1.369 . S
C2638 C2640 1.419 . S
C2638 H2642 0.930 . S
C2639 C2638 1.369 . S
C2639 C2648 1.429 . S
C2640 C2638 1.419 . S
C2640 C2641 1.363 . S
C2640 H2643 0.929 . S
C2641 C2640 1.363 . S
C2641 C2647 1.428 . S
H2642 C2638 0.930 . S
H2643 C2640 0.929 . S
S2644 N2645 1.613 . S
S2644 N2646 1.610 . S
N2645 S2644 1.613 . S
N2645 C2648 1.350 . S
N2646 S2644 1.610 . S
N2646 C2647 1.351 . S
C2647 C2641 1.428 . S
C2647 N2646 1.351 . S
C2647 C2648 1.434 . S
C2648 C2639 1.429 . S
C2648 N2645 1.350 . S
C2648 C2647 1.434 . S
C2649 C2650 1.369 . S
C2649 C2651 1.419 . S
C2649 H2653 0.930 . S
C2650 C2649 1.369 . S
C2650 C2659 1.429 . S
C2651 C2649 1.419 . S
C2651 C2652 1.363 . S
C2651 H2654 0.929 . S
C2652 C2651 1.363 . S
C2652 C2658 1.428 . S
H2653 C2649 0.930 . S
H2654 C2651 0.929 . S
S2655 N2656 1.613 . S
S2655 N2657 1.610 . S
N2656 S2655 1.613 . S
N2656 C2659 1.350 . S
N2657 S2655 1.610 . S
N2657 C2658 1.351 . S
C2658 C2652 1.428 . S
C2658 N2657 1.351 . S
C2658 C2659 1.434 . S
C2659 C2650 1.429 . S
C2659 N2656 1.350 . S
C2659 C2658 1.434 . S
C2660 C2661 1.369 . S
C2660 C2662 1.419 . S
C2660 H2664 0.930 . S
C2661 C2660 1.369 . S
C2661 C2670 1.429 . S
C2662 C2660 1.419 . S
C2662 C2663 1.363 . S
C2662 H2665 0.929 . S
C2663 C2662 1.363 . S
C2663 C2669 1.428 . S
H2664 C2660 0.930 . S
H2665 C2662 0.929 . S
S2666 N2667 1.613 . S
S2666 N2668 1.610 . S
N2667 S2666 1.613 . S
N2667 C2670 1.350 . S
N2668 S2666 1.610 . S
N2668 C2669 1.351 . S
C2669 C2663 1.428 . S
C2669 N2668 1.351 . S
C2669 C2670 1.434 . S
C2670 C2661 1.429 . S
C2670 N2667 1.350 . S
C2670 C2669 1.434 . S
C2671 C2672 1.369 . S
C2671 C2673 1.419 . S
C2671 H2675 0.930 . S
C2672 C2671 1.369 . S
C2672 C2681 1.429 . S
C2673 C2671 1.419 . S
C2673 C2674 1.363 . S
C2673 H2676 0.929 . S
C2674 C2673 1.363 . S
C2674 C2680 1.428 . S
H2675 C2671 0.930 . S
H2676 C2673 0.929 . S
S2677 N2678 1.613 . S
S2677 N2679 1.610 . S
N2678 S2677 1.613 . S
N2678 C2681 1.350 . S
N2679 S2677 1.610 . S
N2679 C2680 1.351 . S
C2680 C2674 1.428 . S
C2680 N2679 1.351 . S
C2680 C2681 1.434 . S
C2681 C2672 1.429 . S
C2681 N2678 1.350 . S
C2681 C2680 1.434 . S
C2682 C2683 1.369 . S
C2682 C2684 1.419 . S
C2682 H2686 0.930 . S
C2683 C2682 1.369 . S
C2683 C2692 1.429 . S
C2684 C2682 1.419 . S
C2684 C2685 1.363 . S
C2684 H2687 0.929 . S
C2685 C2684 1.363 . S
C2685 C2691 1.428 . S
H2686 C2682 0.930 . S
H2687 C2684 0.929 . S
S2688 N2689 1.613 . S
S2688 N2690 1.610 . S
N2689 S2688 1.613 . S
N2689 C2692 1.350 . S
N2690 S2688 1.610 . S
N2690 C2691 1.351 . S
C2691 C2685 1.428 . S
C2691 N2690 1.351 . S
C2691 C2692 1.434 . S
C2692 C2683 1.429 . S
C2692 N2689 1.350 . S
C2692 C2691 1.434 . S
C2693 C2694 1.369 . S
C2693 C2695 1.419 . S
C2693 H2697 0.930 . S
C2694 C2693 1.369 . S
C2694 C2703 1.429 . S
C2695 C2693 1.419 . S
C2695 C2696 1.363 . S
C2695 H2698 0.929 . S
C2696 C2695 1.363 . S
C2696 C2702 1.428 . S
H2697 C2693 0.930 . S
H2698 C2695 0.929 . S
S2699 N2700 1.613 . S
S2699 N2701 1.610 . S
N2700 S2699 1.613 . S
N2700 C2703 1.350 . S
N2701 S2699 1.610 . S
N2701 C2702 1.351 . S
C2702 C2696 1.428 . S
C2702 N2701 1.351 . S
C2702 C2703 1.434 . S
C2703 C2694 1.429 . S
C2703 N2700 1.350 . S
C2703 C2702 1.434 . S
C2704 C2705 1.369 . S
C2704 C2706 1.419 . S
C2704 H2708 0.930 . S
C2705 C2704 1.369 . S
C2705 C2714 1.429 . S
C2706 C2704 1.419 . S
C2706 C2707 1.363 . S
C2706 H2709 0.929 . S
C2707 C2706 1.363 . S
C2707 C2713 1.428 . S
H2708 C2704 0.930 . S
H2709 C2706 0.929 . S
S2710 N2711 1.613 . S
S2710 N2712 1.610 . S
N2711 S2710 1.613 . S
N2711 C2714 1.350 . S
N2712 S2710 1.610 . S
N2712 C2713 1.351 . S
C2713 C2707 1.428 . S
C2713 N2712 1.351 . S
C2713 C2714 1.434 . S
C2714 C2705 1.429 . S
C2714 N2711 1.350 . S
C2714 C2713 1.434 . S
C2715 C2716 1.369 . S
C2715 C2717 1.419 . S
C2715 H2719 0.930 . S
C2716 C2715 1.369 . S
C2716 C2725 1.429 . S
C2717 C2715 1.419 . S
C2717 C2718 1.363 . S
C2717 H2720 0.929 . S
C2718 C2717 1.363 . S
C2718 C2724 1.428 . S
H2719 C2715 0.930 . S
H2720 C2717 0.929 . S
S2721 N2722 1.612 . S
S2721 N2723 1.614 . S
N2722 S2721 1.612 . S
N2722 C2725 1.350 . S
N2723 S2721 1.614 . S
N2723 C2724 1.351 . S
C2724 C2718 1.428 . S
C2724 N2723 1.351 . S
C2724 C2725 1.434 . S
C2725 C2716 1.429 . S
C2725 N2722 1.350 . S
C2725 C2724 1.434 . S
C2726 C2727 1.369 . S
C2726 C2728 1.419 . S
C2726 H2730 0.930 . S
C2727 C2726 1.369 . S
C2727 C2736 1.429 . S
C2728 C2726 1.419 . S
C2728 C2729 1.363 . S
C2728 H2731 0.929 . S
C2729 C2728 1.363 . S
C2729 C2735 1.428 . S
H2730 C2726 0.930 . S
H2731 C2728 0.929 . S
S2732 N2733 1.613 . S
S2732 N2734 1.610 . S
N2733 S2732 1.613 . S
N2733 C2736 1.350 . S
N2734 S2732 1.610 . S
N2734 C2735 1.351 . S
C2735 C2729 1.428 . S
C2735 N2734 1.351 . S
C2735 C2736 1.434 . S
C2736 C2727 1.429 . S
C2736 N2733 1.350 . S
C2736 C2735 1.434 . S
C2737 C2738 1.369 . S
C2737 C2739 1.419 . S
C2737 H2741 0.930 . S
C2738 C2737 1.369 . S
C2738 C2747 1.429 . S
C2739 C2737 1.419 . S
C2739 C2740 1.363 . S
C2739 H2742 0.929 . S
C2740 C2739 1.363 . S
C2740 C2746 1.428 . S
H2741 C2737 0.930 . S
H2742 C2739 0.929 . S
S2743 N2744 1.613 . S
S2743 N2745 1.610 1_554 S
N2744 S2743 1.613 . S
N2744 C2747 1.350 1_554 S
N2745 S2743 1.610 1_556 S
N2745 C2746 1.351 . S
C2746 C2740 1.428 . S
C2746 N2745 1.351 . S
C2746 C2747 1.434 . S
C2747 C2738 1.429 . S
C2747 N2744 1.350 1_556 S
C2747 C2746 1.434 . S
C2748 C2749 1.369 . S
C2748 C2750 1.419 . S
C2748 H2752 0.930 . S
C2749 C2748 1.369 . S
C2749 C2758 1.429 . S
C2750 C2748 1.419 . S
C2750 C2751 1.363 . S
C2750 H2753 0.929 . S
C2751 C2750 1.363 . S
C2751 C2757 1.428 . S
H2752 C2748 0.930 . S
H2753 C2750 0.929 . S
S2754 N2755 1.613 . S
S2754 N2756 1.610 . S
N2755 S2754 1.613 . S
N2755 C2758 1.350 . S
N2756 S2754 1.610 . S
N2756 C2757 1.351 . S
C2757 C2751 1.428 . S
C2757 N2756 1.351 . S
C2757 C2758 1.434 . S
C2758 C2749 1.429 . S
C2758 N2755 1.350 . S
C2758 C2757 1.434 . S
C2759 C2760 1.369 . S
C2759 C2761 1.419 . S
C2759 H2763 0.930 . S
C2760 C2759 1.369 . S
C2760 C2769 1.429 . S
C2761 C2759 1.419 . S
C2761 C2762 1.363 . S
C2761 H2764 0.929 . S
C2762 C2761 1.363 . S
C2762 C2768 1.428 . S
H2763 C2759 0.930 . S
H2764 C2761 0.929 . S
S2765 N2766 1.627 . S
S2765 N2767 1.666 . S
N2766 S2765 1.627 . S
N2766 C2769 1.350 . S
N2767 S2765 1.666 . S
N2767 C2768 1.351 . S
C2768 C2762 1.428 . S
C2768 N2767 1.351 . S
C2768 C2769 1.434 . S
C2769 C2760 1.429 . S
C2769 N2766 1.350 . S
C2769 C2768 1.434 . S
C2770 C2771 1.369 . S
C2770 C2772 1.419 . S
C2770 H2774 0.930 . S
C2771 C2770 1.369 . S
C2771 C2780 1.429 . S
C2772 C2770 1.419 . S
C2772 C2773 1.363 . S
C2772 H2775 0.929 . S
C2773 C2772 1.363 . S
C2773 C2779 1.428 . S
H2774 C2770 0.930 . S
H2775 C2772 0.929 . S
S2776 N2777 1.613 1_554 S
S2776 N2778 1.607 1_554 S
N2777 S2776 1.613 1_556 S
N2777 C2780 1.350 . S
N2778 S2776 1.607 1_556 S
N2778 C2779 1.351 . S
C2779 C2773 1.428 . S
C2779 N2778 1.351 . S
C2779 C2780 1.434 . S
C2780 C2771 1.429 . S
C2780 N2777 1.350 . S
C2780 C2779 1.434 . S
C2781 C2782 1.369 . S
C2781 C2783 1.419 . S
C2781 H2785 0.930 . S
C2782 C2781 1.369 . S
C2782 C2791 1.429 . S
C2783 C2781 1.419 . S
C2783 C2784 1.363 . S
C2783 H2786 0.929 . S
C2784 C2783 1.363 . S
C2784 C2790 1.428 . S
H2785 C2781 0.930 . S
H2786 C2783 0.929 . S
S2787 N2788 1.613 . S
S2787 N2789 1.610 . S
N2788 S2787 1.613 . S
N2788 C2791 1.350 . S
N2789 S2787 1.610 . S
N2789 C2790 1.351 . S
C2790 C2784 1.428 . S
C2790 N2789 1.351 . S
C2790 C2791 1.434 . S
C2791 C2782 1.429 . S
C2791 N2788 1.350 . S
C2791 C2790 1.434 . S
C2792 C2793 1.369 . S
C2792 C2794 1.419 . S
C2792 H2796 0.930 . S
C2793 C2792 1.369 . S
C2793 C2802 1.429 . S
C2794 C2792 1.419 . S
C2794 C2795 1.363 . S
C2794 H2797 0.929 . S
C2795 C2794 1.363 . S
C2795 C2801 1.428 . S
H2796 C2792 0.930 . S
H2797 C2794 0.929 . S
S2798 N2799 1.613 . S
S2798 N2800 1.610 . S
N2799 S2798 1.613 . S
N2799 C2802 1.350 . S
N2800 S2798 1.610 . S
N2800 C2801 1.351 . S
C2801 C2795 1.428 . S
C2801 N2800 1.351 . S
C2801 C2802 1.434 . S
C2802 C2793 1.429 . S
C2802 N2799 1.350 . S
C2802 C2801 1.434 . S
C2803 C2804 1.369 . S
C2803 C2805 1.419 . S
C2803 H2807 0.930 . S
C2804 C2803 1.369 . S
C2804 C2813 1.429 . S
C2805 C2803 1.419 . S
C2805 C2806 1.363 . S
C2805 H2808 0.929 . S
C2806 C2805 1.363 . S
C2806 C2812 1.428 . S
H2807 C2803 0.930 . S
H2808 C2805 0.929 . S
S2809 N2810 1.613 . S
S2809 N2811 1.610 . S
N2810 S2809 1.613 . S
N2810 C2813 1.350 . S
N2811 S2809 1.610 . S
N2811 C2812 1.351 . S
C2812 C2806 1.428 . S
C2812 N2811 1.351 . S
C2812 C2813 1.434 . S
C2813 C2804 1.429 . S
C2813 N2810 1.350 . S
C2813 C2812 1.434 . S
C2814 C2815 1.369 . S
C2814 C2816 1.419 . S
C2814 H2818 0.930 . S
C2815 C2814 1.369 . S
C2815 C2824 1.429 . S
C2816 C2814 1.419 . S
C2816 C2817 1.363 . S
C2816 H2819 0.929 . S
C2817 C2816 1.363 . S
C2817 C2823 1.428 . S
H2818 C2814 0.930 . S
H2819 C2816 0.929 . S
S2820 N2821 1.613 . S
S2820 N2822 1.610 . S
N2821 S2820 1.613 . S
N2821 C2824 1.350 . S
N2822 S2820 1.610 . S
N2822 C2823 1.351 . S
C2823 C2817 1.428 . S
C2823 N2822 1.351 . S
C2823 C2824 1.434 . S
C2824 C2815 1.429 . S
C2824 N2821 1.350 . S
C2824 C2823 1.434 . S
C2825 C2826 1.369 . S
C2825 C2827 1.419 . S
C2825 H2829 0.930 . S
C2826 C2825 1.369 . S
C2826 C2835 1.429 . S
C2827 C2825 1.419 . S
C2827 C2828 1.363 . S
C2827 H2830 0.929 . S
C2828 C2827 1.363 . S
C2828 C2834 1.428 . S
H2829 C2825 0.930 . S
H2830 C2827 0.929 . S
S2831 N2832 1.613 . S
S2831 N2833 1.610 . S
N2832 S2831 1.613 . S
N2832 C2835 1.350 . S
N2833 S2831 1.610 . S
N2833 C2834 1.351 . S
C2834 C2828 1.428 . S
C2834 N2833 1.351 . S
C2834 C2835 1.434 . S
C2835 C2826 1.429 . S
C2835 N2832 1.350 . S
C2835 C2834 1.434 . S
C2836 C2837 1.369 . S
C2836 C2838 1.419 . S
C2836 H2840 0.930 . S
C2837 C2836 1.369 . S
C2837 C2846 1.429 . S
C2838 C2836 1.419 . S
C2838 C2839 1.363 . S
C2838 H2841 0.929 . S
C2839 C2838 1.363 . S
C2839 C2845 1.428 . S
H2840 C2836 0.930 . S
H2841 C2838 0.929 . S
S2842 N2843 1.613 . S
S2842 N2844 1.610 . S
N2843 S2842 1.613 . S
N2843 C2846 1.350 . S
N2844 S2842 1.610 . S
N2844 C2845 1.351 . S
C2845 C2839 1.428 . S
C2845 N2844 1.351 . S
C2845 C2846 1.434 . S
C2846 C2837 1.429 . S
C2846 N2843 1.350 . S
C2846 C2845 1.434 . S
C2847 C2848 1.369 1_655 S
C2847 C2849 1.419 . S
C2847 H2851 0.930 . S
C2848 C2847 1.369 1_455 S
C2848 C2857 1.429 . S
C2849 C2847 1.419 . S
C2849 C2850 1.363 1_655 S
C2849 H2852 0.929 . S
C2850 C2849 1.363 1_455 S
C2850 C2856 1.428 . S
H2851 C2847 0.930 . S
H2852 C2849 0.929 . S
S2853 N2854 1.613 . S
S2853 N2855 1.610 . S
N2854 S2853 1.613 . S
N2854 C2857 1.350 . S
N2855 S2853 1.610 . S
N2855 C2856 1.351 . S
C2856 C2850 1.428 . S
C2856 N2855 1.351 . S
C2856 C2857 1.434 . S
C2857 C2848 1.429 . S
C2857 N2854 1.350 . S
C2857 C2856 1.434 . S
C2858 C2859 1.369 . S
C2858 C2860 1.419 . S
C2858 H2862 0.930 . S
C2859 C2858 1.369 . S
C2859 C2868 1.429 . S
C2860 C2858 1.419 . S
C2860 C2861 1.363 . S
C2860 H2863 0.929 . S
C2861 C2860 1.363 . S
C2861 C2867 1.428 . S
H2862 C2858 0.930 . S
H2863 C2860 0.929 . S
S2864 N2865 1.613 . S
S2864 N2866 1.610 . S
N2865 S2864 1.613 . S
N2865 C2868 1.350 . S
N2866 S2864 1.610 . S
N2866 C2867 1.351 . S
C2867 C2861 1.428 . S
C2867 N2866 1.351 . S
C2867 C2868 1.434 . S
C2868 C2859 1.429 . S
C2868 N2865 1.350 . S
C2868 C2867 1.434 . S
C2869 C2870 1.369 . S
C2869 C2871 1.419 . S
C2869 H2873 0.930 . S
C2870 C2869 1.369 . S
C2870 C2879 1.429 . S
C2871 C2869 1.419 . S
C2871 C2872 1.363 . S
C2871 H2874 0.929 . S
C2872 C2871 1.363 . S
C2872 C2878 1.428 . S
H2873 C2869 0.930 . S
H2874 C2871 0.929 . S
S2875 N2876 1.613 . S
S2875 N2877 1.610 . S
N2876 S2875 1.613 . S
N2876 C2879 1.350 . S
N2877 S2875 1.610 . S
N2877 C2878 1.351 . S
C2878 C2872 1.428 . S
C2878 N2877 1.351 . S
C2878 C2879 1.434 . S
C2879 C2870 1.429 . S
C2879 N2876 1.350 . S
C2879 C2878 1.434 . S
C2880 C2881 1.369 . S
C2880 C2882 1.419 . S
C2880 H2884 0.930 . S
C2881 C2880 1.369 . S
C2881 C2890 1.429 . S
C2882 C2880 1.419 . S
C2882 C2883 1.363 . S
C2882 H2885 0.929 . S
C2883 C2882 1.363 . S
C2883 C2889 1.428 . S
H2884 C2880 0.930 . S
H2885 C2882 0.929 . S
S2886 N2887 1.608 1_545 S
S2886 N2888 1.610 . S
N2887 S2886 1.608 1_565 S
N2887 C2890 1.345 . S
N2888 S2886 1.610 . S
N2888 C2889 1.351 1_545 S
C2889 C2883 1.428 . S
C2889 N2888 1.351 1_565 S
C2889 C2890 1.434 . S
C2890 C2881 1.429 . S
C2890 N2887 1.345 . S
C2890 C2889 1.434 . S
C2891 C2892 1.369 . S
C2891 C2893 1.419 . S
C2891 H2895 0.930 . S
C2892 C2891 1.369 . S
C2892 C2901 1.429 1_455 S
C2893 C2891 1.419 . S
C2893 C2894 1.363 . S
C2893 H2896 0.929 . S
C2894 C2893 1.363 . S
C2894 C2900 1.428 1_455 S
H2895 C2891 0.930 . S
H2896 C2893 0.929 . S
S2897 N2898 1.613 . S
S2897 N2899 1.610 . S
N2898 S2897 1.613 . S
N2898 C2901 1.350 . S
N2899 S2897 1.610 . S
N2899 C2900 1.351 . S
C2900 C2894 1.428 1_655 S
C2900 N2899 1.351 . S
C2900 C2901 1.434 . S
C2901 C2892 1.429 1_655 S
C2901 N2898 1.350 . S
C2901 C2900 1.434 . S
C2902 C2903 1.369 . S
C2902 C2904 1.419 . S
C2902 H2906 0.930 . S
C2903 C2902 1.369 . S
C2903 C2912 1.429 . S
C2904 C2902 1.419 . S
C2904 C2905 1.363 . S
C2904 H2907 0.929 . S
C2905 C2904 1.363 . S
C2905 C2911 1.428 . S
H2906 C2902 0.930 . S
H2907 C2904 0.929 . S
S2908 N2909 1.613 . S
S2908 N2910 1.610 . S
N2909 S2908 1.613 . S
N2909 C2912 1.350 . S
N2910 S2908 1.610 . S
N2910 C2911 1.351 . S
C2911 C2905 1.428 . S
C2911 N2910 1.351 . S
C2911 C2912 1.434 . S
C2912 C2903 1.429 . S
C2912 N2909 1.350 . S
C2912 C2911 1.434 . S
C2913 C2914 1.369 . S
C2913 C2915 1.419 . S
C2913 H2917 0.930 . S
C2914 C2913 1.369 . S
C2914 C2923 1.429 . S
C2915 C2913 1.419 . S
C2915 C2916 1.363 . S
C2915 H2918 0.929 . S
C2916 C2915 1.363 . S
C2916 C2922 1.428 . S
H2917 C2913 0.930 . S
H2918 C2915 0.929 . S
S2919 N2920 1.613 . S
S2919 N2921 1.610 . S
N2920 S2919 1.613 . S
N2920 C2923 1.350 . S
N2921 S2919 1.610 . S
N2921 C2922 1.351 . S
C2922 C2916 1.428 . S
C2922 N2921 1.351 . S
C2922 C2923 1.434 . S
C2923 C2914 1.429 . S
C2923 N2920 1.350 . S
C2923 C2922 1.434 . S
C2924 C2925 1.369 . S
C2924 C2926 1.419 . S
C2924 H2928 0.930 . S
C2925 C2924 1.369 . S
C2925 C2934 1.429 . S
C2926 C2924 1.419 . S
C2926 C2927 1.363 . S
C2926 H2929 0.929 . S
C2927 C2926 1.363 . S
C2927 C2933 1.428 . S
H2928 C2924 0.930 . S
H2929 C2926 0.929 . S
S2930 N2931 1.613 . S
S2930 N2932 1.610 . S
N2931 S2930 1.613 . S
N2931 C2934 1.350 . S
N2932 S2930 1.610 . S
N2932 C2933 1.351 . S
C2933 C2927 1.428 . S
C2933 N2932 1.351 . S
C2933 C2934 1.434 . S
C2934 C2925 1.429 . S
C2934 N2931 1.350 . S
C2934 C2933 1.434 . S
C2935 C2936 1.369 . S
C2935 C2937 1.419 . S
C2935 H2939 0.930 . S
C2936 C2935 1.369 . S
C2936 C2945 1.429 . S
C2937 C2935 1.419 . S
C2937 C2938 1.363 . S
C2937 H2940 0.929 . S
C2938 C2937 1.363 . S
C2938 C2944 1.428 . S
H2939 C2935 0.930 . S
H2940 C2937 0.929 . S
S2941 N2942 1.613 . S
S2941 N2943 1.610 . S
N2942 S2941 1.613 . S
N2942 C2945 1.350 . S
N2943 S2941 1.610 . S
N2943 C2944 1.351 . S
C2944 C2938 1.428 . S
C2944 N2943 1.351 . S
C2944 C2945 1.434 . S
C2945 C2936 1.429 . S
C2945 N2942 1.350 . S
C2945 C2944 1.434 . S
C2946 C2947 1.369 1_565 S
C2946 C2948 1.419 . S
C2946 H2950 0.930 . S
C2947 C2946 1.369 1_545 S
C2947 C2956 1.429 . S
C2948 C2946 1.419 . S
C2948 C2949 1.363 1_565 S
C2948 H2951 0.929 . S
C2949 C2948 1.363 1_545 S
C2949 C2955 1.428 . S
H2950 C2946 0.930 . S
H2951 C2948 0.929 . S
S2952 N2953 1.613 . S
S2952 N2954 1.610 . S
N2953 S2952 1.613 . S
N2953 C2956 1.350 . S
N2954 S2952 1.610 . S
N2954 C2955 1.351 . S
C2955 C2949 1.428 . S
C2955 N2954 1.351 . S
C2955 C2956 1.434 . S
C2956 C2947 1.429 . S
C2956 N2953 1.350 . S
C2956 C2955 1.434 . S
C2957 C2958 1.369 . S
C2957 C2959 1.419 . S
C2957 H2961 0.930 1_655 S
C2958 C2957 1.369 . S
C2958 C2967 1.429 . S
C2959 C2957 1.419 . S
C2959 C2960 1.363 . S
C2959 H2962 0.929 1_655 S
C2960 C2959 1.363 . S
C2960 C2966 1.428 . S
H2961 C2957 0.930 1_455 S
H2962 C2959 0.929 1_455 S
S2963 N2964 1.613 . S
S2963 N2965 1.610 . S
N2964 S2963 1.613 . S
N2964 C2967 1.350 . S
N2965 S2963 1.610 . S
N2965 C2966 1.351 . S
C2966 C2960 1.428 . S
C2966 N2965 1.351 . S
C2966 C2967 1.434 . S
C2967 C2958 1.429 . S
C2967 N2964 1.350 . S
C2967 C2966 1.434 . S
C2968 C2969 1.369 . S
C2968 C2970 1.419 . S
C2968 H2972 0.930 . S
C2969 C2968 1.369 . S
C2969 C2978 1.429 . S
C2970 C2968 1.419 . S
C2970 C2971 1.363 . S
C2970 H2973 0.929 . S
C2971 C2970 1.363 . S
C2971 C2977 1.428 . S
H2972 C2968 0.930 . S
H2973 C2970 0.929 . S
S2974 N2975 1.613 . S
S2974 N2976 1.610 . S
N2975 S2974 1.613 . S
N2975 C2978 1.350 . S
N2976 S2974 1.610 . S
N2976 C2977 1.351 . S
C2977 C2971 1.428 . S
C2977 N2976 1.351 . S
C2977 C2978 1.434 . S
C2978 C2969 1.429 . S
C2978 N2975 1.350 . S
C2978 C2977 1.434 . S
C2979 C2980 1.369 . S
C2979 C2981 1.419 . S
C2979 H2983 0.930 . S
C2980 C2979 1.369 . S
C2980 C2989 1.429 . S
C2981 C2979 1.419 . S
C2981 C2982 1.363 . S
C2981 H2984 0.929 . S
C2982 C2981 1.363 . S
C2982 C2988 1.428 . S
H2983 C2979 0.930 . S
H2984 C2981 0.929 . S
S2985 N2986 1.613 . S
S2985 N2987 1.610 . S
N2986 S2985 1.613 . S
N2986 C2989 1.350 . S
N2987 S2985 1.610 . S
N2987 C2988 1.351 . S
C2988 C2982 1.428 . S
C2988 N2987 1.351 . S
C2988 C2989 1.434 . S
C2989 C2980 1.429 . S
C2989 N2986 1.350 . S
C2989 C2988 1.434 . S
C2990 C2991 1.369 . S
C2990 C2992 1.419 . S
C2990 H2994 0.930 . S
C2991 C2990 1.369 . S
C2991 C3000 1.429 . S
C2992 C2990 1.419 . S
C2992 C2993 1.363 . S
C2992 H2995 0.929 . S
C2993 C2992 1.363 . S
C2993 C2999 1.428 . S
H2994 C2990 0.930 . S
H2995 C2992 0.929 . S
S2996 N2997 1.613 . S
S2996 N2998 1.610 . S
N2997 S2996 1.613 . S
N2997 C3000 1.350 . S
N2998 S2996 1.610 . S
N2998 C2999 1.351 . S
C2999 C2993 1.428 . S
C2999 N2998 1.351 . S
C2999 C3000 1.434 . S
C3000 C2991 1.429 . S
C3000 N2997 1.350 . S
C3000 C2999 1.434 . S
C3001 C3002 1.369 . S
C3001 C3003 1.419 . S
C3001 H3005 0.930 . S
C3002 C3001 1.369 . S
C3002 C3011 1.429 . S
C3003 C3001 1.419 . S
C3003 C3004 1.363 . S
C3003 H3006 0.929 . S
C3004 C3003 1.363 . S
C3004 C3010 1.428 . S
H3005 C3001 0.930 . S
H3006 C3003 0.929 . S
S3007 N3008 1.613 . S
S3007 N3009 1.610 . S
N3008 S3007 1.613 . S
N3008 C3011 1.350 . S
N3009 S3007 1.610 . S
N3009 C3010 1.351 . S
C3010 C3004 1.428 . S
C3010 N3009 1.351 . S
C3010 C3011 1.434 . S
C3011 C3002 1.429 . S
C3011 N3008 1.350 . S
C3011 C3010 1.434 . S
C3012 C3013 1.369 . S
C3012 C3014 1.419 . S
C3012 H3016 0.930 . S
C3013 C3012 1.369 . S
C3013 C3022 1.429 . S
C3014 C3012 1.419 . S
C3014 C3015 1.363 . S
C3014 H3017 0.929 . S
C3015 C3014 1.363 . S
C3015 C3021 1.428 . S
H3016 C3012 0.930 . S
H3017 C3014 0.929 . S
S3018 N3019 1.613 . S
S3018 N3020 1.610 . S
N3019 S3018 1.613 . S
N3019 C3022 1.350 . S
N3020 S3018 1.610 . S
N3020 C3021 1.351 . S
C3021 C3015 1.428 . S
C3021 N3020 1.351 . S
C3021 C3022 1.434 . S
C3022 C3013 1.429 . S
C3022 N3019 1.350 . S
C3022 C3021 1.434 . S
C3023 C3024 1.369 . S
C3023 C3025 1.419 . S
C3023 H3027 0.930 . S
C3024 C3023 1.369 . S
C3024 C3033 1.429 . S
C3025 C3023 1.419 . S
C3025 C3026 1.363 . S
C3025 H3028 0.929 . S
C3026 C3025 1.363 . S
C3026 C3032 1.428 . S
H3027 C3023 0.930 . S
H3028 C3025 0.929 . S
S3029 N3030 1.613 . S
S3029 N3031 1.610 . S
N3030 S3029 1.613 . S
N3030 C3033 1.350 . S
N3031 S3029 1.610 . S
N3031 C3032 1.351 . S
C3032 C3026 1.428 . S
C3032 N3031 1.351 . S
C3032 C3033 1.434 . S
C3033 C3024 1.429 . S
C3033 N3030 1.350 . S
C3033 C3032 1.434 . S
C3034 C3035 1.369 . S
C3034 C3036 1.419 . S
C3034 H3038 0.930 . S
C3035 C3034 1.369 . S
C3035 C3044 1.429 . S
C3036 C3034 1.419 . S
C3036 C3037 1.363 . S
C3036 H3039 0.929 . S
C3037 C3036 1.363 . S
C3037 C3043 1.428 . S
H3038 C3034 0.930 . S
H3039 C3036 0.929 . S
S3040 N3041 1.613 . S
S3040 N3042 1.610 . S
N3041 S3040 1.613 . S
N3041 C3044 1.350 . S
N3042 S3040 1.610 . S
N3042 C3043 1.351 . S
C3043 C3037 1.428 . S
C3043 N3042 1.351 . S
C3043 C3044 1.434 . S
C3044 C3035 1.429 . S
C3044 N3041 1.350 . S
C3044 C3043 1.434 . S
C3045 C3046 1.369 . S
C3045 C3047 1.419 . S
C3045 H3049 0.930 . S
C3046 C3045 1.369 . S
C3046 C3055 1.429 1_655 S
C3047 C3045 1.419 . S
C3047 C3048 1.363 . S
C3047 H3050 0.929 . S
C3048 C3047 1.363 . S
C3048 C3054 1.428 1_655 S
H3049 C3045 0.930 . S
H3050 C3047 0.929 . S
S3051 N3052 1.613 . S
S3051 N3053 1.610 . S
N3052 S3051 1.613 . S
N3052 C3055 1.350 . S
N3053 S3051 1.610 . S
N3053 C3054 1.351 . S
C3054 C3048 1.428 1_455 S
C3054 N3053 1.351 . S
C3054 C3055 1.434 . S
C3055 C3046 1.429 1_455 S
C3055 N3052 1.350 . S
C3055 C3054 1.434 . S
C3056 C3057 1.369 . S
C3056 C3058 1.419 . S
C3056 H3060 0.930 . S
C3057 C3056 1.369 . S
C3057 C3066 1.429 . S
C3058 C3056 1.419 . S
C3058 C3059 1.363 . S
C3058 H3061 0.929 . S
C3059 C3058 1.363 . S
C3059 C3065 1.428 . S
H3060 C3056 0.930 . S
H3061 C3058 0.929 . S
S3062 N3063 1.613 . S
S3062 N3064 1.610 . S
N3063 S3062 1.613 . S
N3063 C3066 1.350 . S
N3064 S3062 1.610 . S
N3064 C3065 1.351 . S
C3065 C3059 1.428 . S
C3065 N3064 1.351 . S
C3065 C3066 1.434 . S
C3066 C3057 1.429 . S
C3066 N3063 1.350 . S
C3066 C3065 1.434 . S
C3067 C3068 1.369 1_565 S
C3067 C3069 1.419 . S
C3067 H3071 0.930 . S
C3068 C3067 1.369 1_545 S
C3068 C3077 1.429 . S
C3069 C3067 1.419 . S
C3069 C3070 1.363 1_565 S
C3069 H3072 0.929 . S
C3070 C3069 1.363 1_545 S
C3070 C3076 1.428 . S
H3071 C3067 0.930 . S
H3072 C3069 0.929 . S
S3073 N3074 1.613 . S
S3073 N3075 1.610 . S
N3074 S3073 1.613 . S
N3074 C3077 1.350 . S
N3075 S3073 1.610 . S
N3075 C3076 1.351 . S
C3076 C3070 1.428 . S
C3076 N3075 1.351 . S
C3076 C3077 1.434 . S
C3077 C3068 1.429 . S
C3077 N3074 1.350 . S
C3077 C3076 1.434 . S
C2287 C10 1.460 . S
C2289 C1289 1.181 . S
C2298 C23 1.768 . S
C2300 C1429 1.153 . S
C2311 C1517 1.228 . S
C2309 C29 1.482 . S
C2320 C30 1.569 . S
C2322 C1657 1.160 1_565 S
C2331 C5 1.530 . S
C2333 C1771 1.160 . S
C2342 C18 1.767 . S
C2344 C1859 1.327 . S
C2353 C49 1.408 . S
C2355 C1745 1.177 . S
C2366 C1885 1.452 . S
C2364 C62 1.662 . S
C2377 C1631 1.248 . S
C2375 C70 1.474 . S
C2386 C75 1.542 . S
C2388 C1543 1.199 . S
C2399 C1315 1.183 . S
C2397 C44 1.521 . S
C2408 C57 1.658 . S
C2410 C1403 1.538 . S
C2419 C88 1.786 . S
C2421 C1973 1.310 . S
C2430 C101 1.857 . S
C2432 C2113 1.232 . S
C2443 C2201 1.327 . S
C2441 C107 1.773 . S
C2452 C108 1.836 . S
C2454 C289 1.226 . S
C2463 C83 1.841 . S
C2465 C403 1.223 . S
C2474 C96 1.824 . S
C2476 C491 1.363 . S
C2485 C127 1.591 . S
C2487 C377 1.467 . S
C2496 C140 1.719 . S
C2498 C517 1.537 . S
C2509 C263 1.536 . S
C2507 C146 1.663 . S
C2520 C2227 1.615 . S
C2518 C147 1.811 . S
C2531 C1999 1.555 . S
C2529 C122 1.737 . S
C2542 C2087 1.640 . S
C2540 C135 1.739 . S
C2551 C160 1.710 . S
C2553 C605 1.245 . S
C2562 C173 1.823 . S
C2564 C745 1.217 . S
C2573 C185 1.773 . S
C2575 C833 1.322 . S
C2584 C186 1.911 . S
C2586 C973 1.307 . S
C2597 C1087 1.211 . S
C2595 C159 1.851 . S
C2608 C1175 1.403 . S
C2606 C172 1.853 . S
C2619 C1061 1.551 . S
C2617 C205 1.678 . S
C2630 C1201 1.559 . S
C2628 C218 1.744 . S
C2639 C224 1.662 . S
C2641 C947 1.546 . S
C2652 C859 1.547 . S
C2650 C225 1.730 . S
C2661 C200 1.733 . S
C2663 C631 1.537 . S
C2674 C719 1.602 . S
C2672 C213 1.708 . S
C2685 C245 0.929 . S
C2683 C4 1.731 . S
C2694 C17 1.599 . S
C2696 C359 0.875 . S
C2707 C463 1.188 . S
C2705 C31 1.655 . S
C2718 C577 1.191 . S
C2716 C36 1.607 . S
C2729 C701 0.927 . S
C2727 C3 1.701 . S
C2740 C805 1.171 . S
C2738 C16 1.614 . S
C2749 C43 1.837 . S
C2751 C815 1.397 . S
C2760 C56 1.704 . S
C2762 C587 1.325 . S
C2771 C68 1.763 . S
C2773 C691 1.576 . S
C2782 C69 1.729 . S
C2784 C349 1.563 . S
C2795 C473 1.408 . S
C2793 C42 1.801 . S
C2804 C55 1.721 . S
C2806 C235 1.536 . S
C2817 C929 0.938 . S
C2815 C82 1.699 . S
C2826 C95 1.694 . S
C2828 C1043 0.971 . S
C2837 C109 1.686 . S
C2839 C1147 1.267 . S
C2850 C1261 1.142 . S
C2848 C114 1.372 . S
C2859 C81 1.657 . S
C2861 C1385 0.920 . S
C2870 C94 1.452 . S
C2872 C1489 1.174 . S
C2881 C121 1.536 . S
C2883 C1499 0.997 1_565 S
C2892 C134 1.454 . S
C2894 C1271 0.972 1_455 S
C2905 C1375 1.538 . S
C2903 C148 1.724 . S
C2914 C153 1.700 . S
C2916 C1033 1.548 . S
C2925 C120 1.814 . S
C2927 C1157 1.417 . S
C2938 C919 1.607 . S
C2936 C133 1.805 . S
C2949 C1613 0.961 . S
C2947 C166 1.523 . S
C2958 C179 1.431 . S
C2960 C1727 0.932 . S
C2969 C187 1.622 . S
C2971 C1831 1.193 . S
C2982 C1945 1.191 . S
C2980 C192 1.588 . S
C2993 C2069 0.992 . S
C2991 C161 1.723 . S
C3002 C174 1.705 . S
C3004 C2173 1.262 . S
C3013 C199 1.796 . S
C3015 C2183 1.364 . S
C3024 C212 1.792 . S
C3026 C1955 1.383 . S
C3037 C2059 1.607 . S
C3035 C226 1.784 . S
C3048 C1717 1.172 1_655 S
C3046 C231 1.386 . S
C3059 C1841 1.361 . S
C3057 C198 1.755 . S
C3068 C211 1.475 . S
C3070 C1603 1.228 1_545 S
