# Generated by pormake.
# Topology zzz, (3,6)-cn, num edge types: 1
# Building blocks:
#     Node 0, Type 0, BuildingBlock: PAMTOO_clean_linker_0, # of connection points: 3
#     Node 1, Type 0, BuildingBlock: PAMTOO_clean_linker_0, # of connection points: 3
#     Node 2, Type 0, BuildingBlock: PAMTOO_clean_linker_0, # of connection points: 3
#     Node 3, Type 0, BuildingBlock: PAMTOO_clean_linker_0, # of connection points: 3
#     Node 4, Type 0, BuildingBlock: PAMTOO_clean_linker_0, # of connection points: 3
#     Node 5, Type 0, BuildingBlock: PAMTOO_clean_linker_0, # of connection points: 3
#     Node 6, Type 0, BuildingBlock: PAMTOO_clean_linker_0, # of connection points: 3
#     Node 7, Type 0, BuildingBlock: PAMTOO_clean_linker_0, # of connection points: 3
#     Node 8, Type 1, BuildingBlock: NUHQIS_clean_sbu_0, # of connection points: 6
#     Node 9, Type 1, BuildingBlock: NUHQIS_clean_sbu_0, # of connection points: 6
#     Node 10, Type 1, BuildingBlock: NUHQIS_clean_sbu_0, # of connection points: 6
#     Node 11, Type 1, BuildingBlock: NUHQIS_clean_sbu_0, # of connection points: 6
#     Edge 12, Type (0, 1), BuildingBlock: ZUJKAS_clean_linker_0, # of connection points: 2
#     Edge 13, Type (0, 1), BuildingBlock: ZUJKAS_clean_linker_0, # of connection points: 2
#     Edge 14, Type (0, 1), BuildingBlock: ZUJKAS_clean_linker_0, # of connection points: 2
#     Edge 15, Type (0, 1), BuildingBlock: ZUJKAS_clean_linker_0, # of connection points: 2
#     Edge 16, Type (0, 1), BuildingBlock: ZUJKAS_clean_linker_0, # of connection points: 2
#     Edge 17, Type (0, 1), BuildingBlock: ZUJKAS_clean_linker_0, # of connection points: 2
#     Edge 18, Type (0, 1), BuildingBlock: ZUJKAS_clean_linker_0, # of connection points: 2
#     Edge 19, Type (0, 1), BuildingBlock: ZUJKAS_clean_linker_0, # of connection points: 2
#     Edge 20, Type (0, 1), BuildingBlock: ZUJKAS_clean_linker_0, # of connection points: 2
#     Edge 21, Type (0, 1), BuildingBlock: ZUJKAS_clean_linker_0, # of connection points: 2
#     Edge 22, Type (0, 1), BuildingBlock: ZUJKAS_clean_linker_0, # of connection points: 2
#     Edge 23, Type (0, 1), BuildingBlock: ZUJKAS_clean_linker_0, # of connection points: 2
#     Edge 24, Type (0, 1), BuildingBlock: ZUJKAS_clean_linker_0, # of connection points: 2
#     Edge 25, Type (0, 1), BuildingBlock: ZUJKAS_clean_linker_0, # of connection points: 2
#     Edge 26, Type (0, 1), BuildingBlock: ZUJKAS_clean_linker_0, # of connection points: 2
#     Edge 27, Type (0, 1), BuildingBlock: ZUJKAS_clean_linker_0, # of connection points: 2
#     Edge 28, Type (0, 1), BuildingBlock: ZUJKAS_clean_linker_0, # of connection points: 2
#     Edge 29, Type (0, 1), BuildingBlock: ZUJKAS_clean_linker_0, # of connection points: 2
#     Edge 30, Type (0, 1), BuildingBlock: ZUJKAS_clean_linker_0, # of connection points: 2
#     Edge 31, Type (0, 1), BuildingBlock: ZUJKAS_clean_linker_0, # of connection points: 2
#     Edge 32, Type (0, 1), BuildingBlock: ZUJKAS_clean_linker_0, # of connection points: 2
#     Edge 33, Type (0, 1), BuildingBlock: ZUJKAS_clean_linker_0, # of connection points: 2
#     Edge 34, Type (0, 1), BuildingBlock: ZUJKAS_clean_linker_0, # of connection points: 2
#     Edge 35, Type (0, 1), BuildingBlock: ZUJKAS_clean_linker_0, # of connection points: 2
# Relax obj value: 0.205
# Max RMSD: 0.142
# Mean RMSD: 0.134
data_MOF--net-zzz--node1-NUHQIS_clean_sbu_0--node2-PAMTOO_clean_linker_0--edge1-ZUJKAS_clean_linker_0
_symmetry_space_group_name_H-M    P1
_symmetry_Int_Tables_number       1
_symmetry_cell_setting            triclinic
loop_
_symmetry_equiv_pos_as_xyz
'x, y, z'
_cell_length_a     67.359072
_cell_length_b     67.39867
_cell_length_c     17.960853
_cell_angle_alpha  89.90824
_cell_angle_beta   90.121303
_cell_angle_gamma 89.961411
loop_
_atom_site_label
_atom_site_type_symbol
_atom_site_fract_x
_atom_site_fract_y
_atom_site_fract_z
_atom_type_partial_charge
H0 H 0.80779 0.50385 0.24439 0.0
H1 H 0.74865 0.51342 0.16248 0.0
H2 H 0.76154 0.52176 0.39521 0.0
H3 H 0.71412 0.50957 0.36281 0.0
C4 C 0.71873 0.50869 0.30354 0.0
O5 O 0.73343 0.52267 0.29111 0.0
H6 H 0.72441 0.49334 0.29451 0.0
C7 C 0.79244 0.50782 0.25471 0.0
C8 C 0.78654 0.51271 0.32729 0.0
C9 C 0.77897 0.50799 0.19502 0.0
C10 C 0.75914 0.51303 0.20819 0.0
C11 C 0.75276 0.51782 0.28018 0.0
C12 C 0.7665 0.51789 0.33978 0.0
H13 H 0.02049 0.80761 0.24798 0.0
H14 H 0.0189 0.74738 0.17068 0.0
H15 H 0.99686 0.76174 0.3892 0.0
H16 H 1.01196 0.71353 0.36647 0.0
C17 C 1.01474 0.71786 0.30769 0.0
O18 O 1.0017 0.73301 0.28918 0.0
H19 H 0.03044 0.72292 0.30372 0.0
C20 C 0.01665 0.79216 0.25712 0.0
C21 C 1.00812 0.78655 0.32499 0.0
C22 C 0.02072 0.77816 0.20159 0.0
C23 C 0.016 0.75822 0.21373 0.0
C24 C 1.00734 0.75221 0.281 0.0
C25 C 1.00366 0.76635 0.3374 0.0
H26 H 0.72504 0.0241 0.22206 0.0
H27 H 0.78342 1.01273 0.13497 0.0
H28 H 0.77123 1.00276 0.36727 0.0
H29 H 0.81998 1.01023 0.33479 0.0
C30 C 0.8142 1.01418 0.27876 0.0
O31 O 0.79872 1.00144 0.26146 0.0
H32 H 0.80883 0.02981 0.28168 0.0
C33 C 0.74029 0.01942 0.23052 0.0
C34 C 0.74644 1.01367 0.30192 0.0
C35 C 0.75334 0.01889 0.16973 0.0
C36 C 0.77314 1.01321 0.18128 0.0
C37 C 0.77967 1.00753 0.25234 0.0
C38 C 0.76623 1.00746 0.31265 0.0
H39 H 0.49873 0.72321 0.22951 0.0
H40 H 0.50744 0.78243 0.14918 0.0
H41 H 0.52601 0.76703 0.37159 0.0
H42 H 0.5164 0.81587 0.347 0.0
C43 C 0.51294 0.81171 0.28855 0.0
O44 O 0.52474 0.79564 0.2696 0.0
H45 H 0.4969 0.80778 0.28596 0.0
C46 C 0.50384 0.73824 0.23954 0.0
C47 C 0.51218 0.74324 0.30874 0.0
C48 C 0.50204 0.75226 0.1824 0.0
C49 C 0.50881 0.7716 0.19348 0.0
C50 C 0.51756 0.77697 0.26137 0.0
C51 C 0.51929 0.76279 0.31916 0.0
H52 H 0.22607 0.52517 0.17197 0.0
H53 H 0.28486 0.52201 0.26511 0.0
H54 H 0.27376 0.50045 0.0433 0.0
H55 H 0.31166 0.47901 0.12466 0.0
C56 C 0.30968 0.48911 0.17293 0.0
O57 O 0.30133 0.50664 0.14725 0.0
H58 H 0.29966 0.48156 0.21328 0.0
C59 C 0.24158 0.52102 0.16728 0.0
C60 C 0.24821 0.5124 0.10104 0.0
C61 C 0.25454 0.52428 0.22732 0.0
C62 C 0.27468 0.51949 0.21943 0.0
C63 C 0.2817 0.51088 0.15348 0.0
C64 C 0.26839 0.50713 0.09422 0.0
H65 H 0.99551 0.22483 0.17169 0.0
H66 H 0.99928 0.28315 0.26701 0.0
H67 H 0.0228 0.27221 0.04801 0.0
H68 H 0.04502 0.30911 0.13474 0.0
C69 C 0.0345 0.30677 0.1815 0.0
O70 O 0.01686 0.29941 0.15295 0.0
H71 H 0.04157 0.29591 0.22019 0.0
C72 C 1.00007 0.24023 0.16767 0.0
C73 C 1.00934 0.24687 0.10253 0.0
C74 C 0.99668 0.25306 0.2277 0.0
C75 C 1.00206 0.27306 0.2214 0.0
C76 C 1.01168 0.27999 0.15725 0.0
C77 C 0.01549 0.26683 0.09777 0.0
H78 H 0.30943 1.01007 0.19189 0.0
H79 H 0.24839 1.00807 0.26264 0.0
H80 H 0.26271 0.02357 0.03655 0.0
H81 H 0.21846 0.04155 0.09098 0.0
C82 C 0.2232 0.0355 0.14582 0.0
O83 O 0.23361 0.01807 0.13409 0.0
H84 H 0.2328 0.04706 0.17183 0.0
C85 C 0.29375 1.01211 0.18034 0.0
C86 C 0.28791 0.01751 0.10819 0.0
C87 C 0.27972 1.00861 0.23667 0.0
C88 C 0.25946 1.01061 0.21999 0.0
C89 C 0.25329 0.01618 0.14839 0.0
C90 C 0.26751 0.01943 0.09204 0.0
H91 H 0.51377 0.30209 0.1821 0.0
H92 H 0.51728 0.2404 0.24367 0.0
H93 H 0.50187 0.25698 0.01934 0.0
H94 H 0.48578 0.20998 0.06979 0.0
C95 C 0.49114 0.21558 0.1244 0.0
O96 O 0.50798 0.22691 0.11266 0.0
H97 H 0.47882 0.22468 0.14778 0.0
C98 C 0.51205 0.28653 0.16824 0.0
C99 C 0.50703 0.28143 0.09504 0.0
C100 C 0.5158 0.27195 0.22251 0.0
C101 C 0.5144 0.25188 0.20274 0.0
C102 C 0.50912 0.24644 0.1301 0.0
C103 C 0.50563 0.26122 0.07577 0.0
Tb104 Tb 0.03051 1.01219 0.75988 0.0
Eu105 Eu 1.00032 0.02577 0.62714 0.0
C106 C 0.04642 0.02258 0.60212 0.0
C107 C 0.01891 0.05757 0.74389 0.0
C108 C 0.06035 0.97925 0.87773 0.0
C109 C 0.08483 0.95279 0.88541 0.0
C110 C 0.08013 0.97275 0.87353 0.0
C111 C 0.04538 0.9656 0.89586 0.0
C112 C 0.0501 0.94574 0.90862 0.0
C113 C 0.06982 0.93911 0.90255 0.0
C114 C 0.05533 0.99952 0.8538 0.0
O115 O 1.00066 1.00415 0.79807 0.0
O116 O 0.98388 0.02839 0.73539 0.0
O117 O 0.99794 0.99238 0.62889 0.0
O118 O 0.02631 0.98512 0.69493 0.0
C119 C 0.98481 0.01538 0.7896 0.0
O120 O 0.9709 0.02553 0.57619 0.0
O121 O 0.99473 0.04225 0.52468 0.0
O122 O 0.02933 0.0173 0.57349 0.0
O123 O 0.04757 0.0271 0.67302 0.0
O124 O 0.02406 0.04295 0.78867 0.0
O125 O 1.01247 0.05428 0.67576 0.0
C126 C 1.01125 0.9796 0.65302 0.0
O127 O 0.05962 1.00335 0.78469 0.0
O128 O 0.03782 1.00629 0.8717 0.0
C129 C 0.96314 0.0569 0.52392 0.0
C130 C 0.94497 0.09465 0.52578 0.0
C131 C 0.94284 0.08163 0.58654 0.0
C132 C 0.95197 0.06299 0.58588 0.0
C133 C 0.96433 0.06934 0.46165 0.0
C134 C 0.95545 0.08804 0.46262 0.0
C135 C 0.97564 0.03898 0.52691 0.0
H136 H 0.10014 0.94802 0.88078 0.0
H137 H 0.09185 0.98302 0.85867 0.0
H138 H 0.02995 0.97009 0.89797 0.0
H139 H 0.03822 0.93542 0.92083 0.0
H140 H 0.93468 0.08607 0.63564 0.0
H141 H 0.95091 0.05371 0.63502 0.0
H142 H 0.97302 0.06501 0.41364 0.0
H143 H 0.95784 0.09769 0.41526 0.0
Tb144 Tb 0.52367 0.02717 0.76246 0.0
Eu145 Eu 0.50925 0.99726 0.63116 0.0
C146 C 0.51316 0.04392 0.60468 0.0
C147 C 0.47823 0.01554 0.74872 0.0
C148 C 0.5572 0.06103 0.85451 0.0
C149 C 0.58457 0.07385 0.78059 0.0
C150 C 0.56472 0.06807 0.78646 0.0
C151 C 0.56951 0.06081 0.9173 0.0
C152 C 0.58941 0.06637 0.91133 0.0
C153 C 0.59736 0.0724 0.84235 0.0
C154 C 0.53809 0.05051 0.85711 0.0
O155 O 0.51568 0.99957 0.81884 0.0
O156 O 0.52291 0.97881 0.72279 0.0
O157 O 0.54055 1.00525 0.59915 0.0
O158 O 0.55098 0.01471 0.71557 0.0
C159 C 0.51993 0.98176 0.79402 0.0
O160 O 0.5073 0.96728 0.58568 0.0
O161 O 0.49351 0.99167 0.52694 0.0
O162 O 0.50183 0.0284 0.59332 0.0
O163 O 0.52618 0.04394 0.65907 0.0
O164 O 0.49121 0.02955 0.76468 0.0
O165 O 0.48323 0.99997 0.70906 0.0
C166 C 0.55483 1.00979 0.6461 0.0
O167 O 0.52471 0.05584 0.80833 0.0
O168 O 0.53974 0.03128 0.86135 0.0
C169 C 0.47529 0.9622 0.5348 0.0
C170 C 0.43525 0.95016 0.54397 0.0
C171 C 0.44817 0.94736 0.60469 0.0
C172 C 0.46795 0.95347 0.60038 0.0
C173 C 0.46283 0.96384 0.47268 0.0
C174 C 0.443 0.95799 0.47722 0.0
C175 C 0.49458 0.97247 0.53446 0.0
H176 H 0.59007 0.07869 0.72694 0.0
H177 H 0.55558 0.06815 0.73679 0.0
H178 H 0.56409 0.05511 0.96992 0.0
H179 H 0.59878 0.06466 0.95995 0.0
H180 H 0.44284 0.94113 0.65652 0.0
H181 H 0.4772 0.95218 0.64957 0.0
H182 H 0.46811 0.97077 0.42195 0.0
H183 H 0.43352 0.96076 0.42959 0.0
Tb184 Tb 0.50322 0.52134 0.77667 0.0
Eu185 Eu 0.5342 0.50704 0.6494 0.0
C186 C 0.48817 0.50912 0.61881 0.0
C187 C 0.51448 0.47556 0.76403 0.0
C188 C 0.46716 0.55467 0.8525 0.0
C189 C 0.46213 0.58405 0.77639 0.0
C190 C 0.46899 0.56466 0.78417 0.0
C191 C 0.4572 0.56382 0.91155 0.0
C192 C 0.45009 0.58323 0.9035 0.0
C193 C 0.45315 0.59371 0.83665 0.0
C194 C 0.47792 0.53596 0.86342 0.0
O195 O 0.53046 0.51372 0.83638 0.0
O196 O 0.55124 0.52204 0.74167 0.0
O197 O 0.52621 0.53837 0.61702 0.0
O198 O 0.51667 0.54861 0.73316 0.0
C199 C 0.54826 0.51849 0.81259 0.0
O200 O 0.56467 0.49919 0.62203 0.0
O201 O 0.54222 0.49859 0.53595 0.0
O202 O 0.50364 0.49748 0.61175 0.0
O203 O 0.48826 0.52318 0.66914 0.0
O204 O 0.50115 0.48892 0.78353 0.0
O205 O 0.52971 0.48012 0.72181 0.0
C206 C 0.52168 0.5526 0.66393 0.0
O207 O 0.47382 0.52202 0.81552 0.0
O208 O 0.49702 0.53808 0.8723 0.0
C209 C 0.56563 0.4722 0.539 0.0
C210 C 0.57211 0.43097 0.52709 0.0
C211 C 0.5844 0.4426 0.57267 0.0
C212 C 0.58127 0.46304 0.57824 0.0
C213 C 0.55404 0.46071 0.49036 0.0
C214 C 0.55721 0.44032 0.48467 0.0
C215 C 0.56004 0.49296 0.55558 0.0
H216 H 0.46468 0.59183 0.72443 0.0
H217 H 0.47668 0.55784 0.73792 0.0
H218 H 0.4558 0.55636 0.96476 0.0
H219 H 0.44343 0.5905 0.95107 0.0
H220 H 0.5962 0.43585 0.60503 0.0
H221 H 0.59061 0.47153 0.61561 0.0
H222 H 0.54194 0.46728 0.45905 0.0
H223 H 0.54737 0.43176 0.44942 0.0
Tb224 Tb 1.00965 0.50189 0.78827 0.0
Eu225 Eu 0.0235 0.5312 0.65429 0.0
C226 C 0.01889 0.48449 0.63076 0.0
C227 C 0.05514 0.51279 0.76967 0.0
C228 C 0.97666 0.46859 0.88871 0.0
C229 C 0.94971 0.45161 0.82455 0.0
C230 C 0.96941 0.45816 0.82656 0.0
C231 C 0.96418 0.47159 0.94983 0.0
C232 C 0.94446 0.46537 0.94742 0.0
C233 C 0.93678 0.45567 0.88406 0.0
C234 C 0.99583 0.47909 0.8862 0.0
O235 O 0.01834 0.5296 0.84203 0.0
O236 O 1.01017 0.54992 0.7455 0.0
O237 O 0.99209 0.52301 0.62477 0.0
O238 O 0.98226 0.51484 0.74307 0.0
C239 C 1.01366 0.54727 0.81666 0.0
O240 O 0.02553 0.56112 0.60806 0.0
O241 O 0.03799 0.53642 0.5475 0.0
O242 O 0.03028 0.49987 0.61737 0.0
O243 O 1.00628 0.48476 0.68629 0.0
O244 O 0.04209 0.49901 0.78738 0.0
O245 O 0.05006 0.52837 0.72995 0.0
C246 C 0.97802 0.51923 0.67329 0.0
O247 O 1.00853 0.47338 0.83585 0.0
O248 O 0.9944 0.49836 0.88905 0.0
C249 C 0.05657 0.56584 0.5488 0.0
C250 C 0.09631 0.57915 0.54676 0.0
C251 C 0.08393 0.58354 0.60751 0.0
C252 C 0.06429 0.57683 0.60878 0.0
C253 C 0.06851 0.56244 0.48644 0.0
C254 C 0.08817 0.56887 0.48557 0.0
C255 C 0.03727 0.55565 0.5543 0.0
H256 H 0.94449 0.44393 0.77538 0.0
H257 H 0.97868 0.45577 0.77818 0.0
H258 H 0.96937 0.47983 0.99785 0.0
H259 H 0.93502 0.46924 0.99385 0.0
H260 H 0.08953 0.59166 0.65506 0.0
H261 H 0.05544 0.57961 0.65797 0.0
H262 H 0.06294 0.55385 0.43991 0.0
H263 H 0.09724 0.56479 0.43831 0.0
H264 H 0.18526 0.02564 0.10305 0.0
H265 H 0.15558 0.02243 0.18148 0.0
H266 H 0.19119 0.03341 0.37689 0.0
H267 H 0.22083 0.03683 0.29838 0.0
H268 H 0.14645 0.99716 0.30137 0.0
H269 H 0.14775 0.07586 0.39193 0.0
H270 H 0.1624 0.0669 0.31495 0.0
H271 H 0.17038 0.0625 0.40911 0.0
C272 C 0.18671 0.0273 0.16278 0.0
C273 C 0.20524 0.03187 0.19459 0.0
C274 C 0.16978 0.02545 0.20756 0.0
C275 C 0.17103 0.02813 0.28502 0.0
C276 C 0.18973 0.03178 0.31716 0.0
H277 H 0.08454 0.03112 0.64507 0.0
H278 H 0.11443 0.0318 0.56808 0.0
C279 C 0.20666 0.03361 0.2724 0.0
C280 C 0.15276 0.02736 0.33186 0.0
H281 H 0.12401 0.05503 0.44932 0.0
C282 C 0.14151 1.00982 0.33356 0.0
C283 C 0.14627 0.04389 0.37394 0.0
C284 C 0.15719 0.06343 0.37212 0.0
C285 C 0.12421 1.00824 0.37717 0.0
C286 C 0.11768 0.0248 0.4191 0.0
C287 C 0.12896 0.04233 0.41734 0.0
C288 C 0.09931 0.02426 0.46557 0.0
C289 C 0.11339 0.98865 0.37934 0.0
C290 C 0.08069 0.02008 0.4337 0.0
C291 C 0.06352 0.01963 0.47774 0.0
C292 C 0.06452 0.02355 0.55463 0.0
C293 C 0.08315 0.02804 0.58613 0.0
C294 C 0.1003 0.02843 0.54211 0.0
H295 H 0.12312 0.97619 0.36187 0.0
H296 H 0.10767 0.98546 0.43604 0.0
H297 H 0.10059 0.98924 0.34043 0.0
H298 H 0.0794 0.0173 0.37453 0.0
H299 H 0.04945 0.01623 0.45142 0.0
H300 H 0.48772 0.21401 0.2767 0.0
H301 H 0.49303 0.18543 0.35948 0.0
H302 H 0.50972 0.14974 0.17056 0.0
H303 H 0.50467 0.17838 0.08806 0.0
H304 H 0.47358 0.14952 0.35712 0.0
H305 H 0.55431 0.13785 0.31713 0.0
H306 H 0.54184 0.16032 0.2884 0.0
H307 H 0.54048 0.13841 0.23158 0.0
C308 C 0.4927 0.20009 0.25314 0.0
C309 C 0.4956 0.19833 0.17596 0.0
C310 C 0.49569 0.18376 0.30036 0.0
C311 C 0.50191 0.1654 0.27152 0.0
C312 C 0.50524 0.16377 0.1945 0.0
H313 H 0.48815 0.04959 0.48529 0.0
H314 H 0.48544 0.07889 0.40514 0.0
C315 C 0.50225 0.1801 0.1473 0.0
C316 C 0.50402 0.14777 0.32145 0.0
H317 H 0.53676 0.11216 0.38002 0.0
C318 C 0.48743 0.1414 0.36229 0.0
C319 C 0.52213 0.13725 0.32902 0.0
C320 C 0.54077 0.14388 0.28981 0.0
C321 C 0.48833 0.12468 0.4093 0.0
C322 C 0.50625 0.11376 0.41492 0.0
C323 C 0.52296 0.12035 0.37515 0.0
C324 C 0.50807 0.09572 0.46286 0.0
C325 C 0.47016 0.11909 0.45356 0.0
C326 C 0.52206 0.09511 0.52093 0.0
C327 C 0.52373 0.07832 0.56666 0.0
C328 C 0.51152 0.06163 0.55516 0.0
C329 C 0.49772 0.06216 0.49621 0.0
C330 C 0.49606 0.07899 0.45049 0.0
H331 H 0.45961 0.1317 0.45844 0.0
H332 H 0.46234 0.10676 0.42504 0.0
H333 H 0.47428 0.11402 0.51039 0.0
H334 H 0.53156 0.10776 0.53149 0.0
H335 H 0.53457 0.07848 0.61126 0.0
H336 H 0.34398 0.46732 0.1625 0.0
H337 H 0.37476 0.47086 0.23451 0.0
H338 H 0.35039 0.52207 0.34516 0.0
H339 H 0.31958 0.51845 0.27393 0.0
H340 H 0.40206 0.50202 0.24724 0.0
H341 H 0.36634 0.48635 0.51901 0.0
H342 H 0.35412 0.48165 0.43129 0.0
H343 H 0.35511 0.50641 0.46827 0.0
C344 C 0.3453 0.47949 0.20151 0.0
C345 C 0.3294 0.49277 0.21167 0.0
C346 C 0.36288 0.48147 0.2428 0.0
C347 C 0.36485 0.49657 0.29609 0.0
C348 C 0.34914 0.51008 0.30536 0.0
H349 H 0.45448 0.53179 0.61686 0.0
H350 H 0.42547 0.52849 0.53624 0.0
C351 C 0.33156 0.50811 0.26408 0.0
C352 C 0.38319 0.498 0.34261 0.0
H353 H 0.39982 0.49714 0.52267 0.0
C354 C 0.40159 0.50087 0.30744 0.0
C355 C 0.38263 0.49642 0.42123 0.0
C356 C 0.36354 0.49235 0.4623 0.0
C357 C 0.41931 0.50273 0.34875 0.0
C358 C 0.41871 0.50131 0.42743 0.0
C359 C 0.40032 0.49828 0.46245 0.0
C360 C 0.43684 0.50337 0.47483 0.0
C361 C 0.43843 0.50676 0.30784 0.0
C362 C 0.45299 0.49026 0.46783 0.0
C363 C 0.46974 0.49212 0.51401 0.0
C364 C 0.47065 0.50708 0.56854 0.0
C365 C 0.4544 0.52011 0.5755 0.0
C366 C 0.43772 0.51824 0.5294 0.0
H367 H 0.43567 0.51245 0.25064 0.0
H368 H 0.44769 0.51769 0.33836 0.0
H369 H 0.44699 0.49275 0.30314 0.0
H370 H 0.45254 0.47838 0.42733 0.0
H371 H 0.48189 0.48175 0.50734 0.0
H372 H 0.01568 0.31197 0.31544 0.0
H373 H 1.01161 0.34261 0.38726 0.0
H374 H 0.04257 0.37516 0.21627 0.0
H375 H 0.04599 0.34466 0.14333 0.0
H376 H 0.0395 0.3658 0.44682 0.0
H377 H 0.99578 0.41095 0.24738 0.0
H378 H 0.99945 0.38463 0.2354 0.0
H379 H 0.0185 0.40189 0.20817 0.0
C380 C 0.02123 0.32575 0.29259 0.0
C381 C 0.03096 0.32594 0.22346 0.0
C382 C 0.01903 0.34325 0.33385 0.0
C383 C 0.0265 0.36137 0.30693 0.0
C384 C 0.03619 0.36157 0.23762 0.0
H385 H 0.04016 0.47946 0.50154 0.0
H386 H 0.04204 0.44972 0.4233 0.0
C387 C 0.03826 0.34408 0.1961 0.0
C388 C 0.0251 0.37975 0.35318 0.0
H389 H 1.00946 0.4281 0.35157 0.0
C390 C 0.0328 0.37936 0.42601 0.0
C391 C 0.01641 0.39755 0.32631 0.0
C392 C 1.00689 0.39878 0.25032 0.0
C393 C 0.0323 0.39624 0.47202 0.0
C394 C 0.02375 0.41403 0.44494 0.0
C395 C 0.01609 0.41449 0.37218 0.0
C396 C 0.02236 0.43219 0.49191 0.0
C397 C 0.04126 0.39502 0.54895 0.0
C398 C 1.01046 0.43234 0.55599 0.0
C399 C 1.00928 0.44933 0.60064 0.0
C400 C 0.02 0.46659 0.58231 0.0
C401 C 0.03177 0.46645 0.5176 0.0
C402 C 0.03284 0.44946 0.47268 0.0
H403 H 0.05111 0.38189 0.55529 0.0
H404 H 0.04994 0.40861 0.56171 0.0
H405 H 0.02918 0.39379 0.59061 0.0
H406 H 1.00202 0.4193 0.57143 0.0
H407 H 1.00001 0.44885 0.64982 0.0
H408 H 0.82675 0.9817 0.19561 0.0
H409 H 0.85583 0.97948 0.11365 0.0
H410 H 0.86962 0.04074 0.15873 0.0
H411 H 0.84062 0.04305 0.24029 0.0
H412 H 0.8658 1.00209 0.98427 0.0
H413 H 0.92176 1.0113 0.2083 0.0
H414 H 0.89615 1.00517 0.227 0.0
H415 H 0.9031 0.03036 0.20679 0.0
C416 C 0.83582 0.99477 0.18722 0.0
C417 C 0.83111 1.01271 0.22318 0.0
C418 C 0.8525 0.99345 0.14065 0.0
C419 C 0.86506 1.00989 0.13054 0.0
C420 C 0.86034 0.02778 0.16629 0.0
H421 H 0.9504 0.03693 0.78785 0.0
H422 H 0.92183 0.03401 0.87005 0.0
C423 C 0.84364 0.02914 0.21235 0.0
C424 C 0.88303 1.00848 0.08234 0.0
H425 H 0.93351 1.01418 0.0836 0.0
C426 C 0.88062 1.00458 0.00609 0.0
C427 C 0.90243 1.01142 0.11084 0.0
C428 C 0.90612 0.01461 0.19283 0.0
C429 C 0.89695 1.00427 0.95726 0.0
C430 C 0.91626 1.0082 0.98514 0.0
C431 C 0.91875 1.01136 0.0619 0.0
C432 C 0.93391 1.00981 0.93523 0.0
C433 C 0.89336 0.99966 0.87618 0.0
C434 C 0.95064 0.9976 0.94556 0.0
C435 C 0.96723 0.99933 0.89862 0.0
C436 C 0.96748 1.01342 0.84067 0.0
C437 C 0.95078 0.02579 0.83135 0.0
C438 C 0.93428 0.02406 0.87814 0.0
H439 H 0.87933 0.99125 0.86812 0.0
H440 H 0.89208 1.01376 0.84458 0.0
H441 H 0.9058 0.99093 0.85235 0.0
H442 H 0.9508 0.9866 0.98959 0.0
H443 H 0.97981 0.9896 0.90766 0.0
H444 H 0.50681 0.8508 0.31964 0.0
H445 H 0.50916 0.87954 0.2362 0.0
H446 H 0.52819 0.84126 0.05804 0.0
H447 H 0.5258 0.81253 0.14094 0.0
H448 H 0.54135 0.89495 0.15517 0.0
H449 H 0.4808 0.87055 0.96633 0.0
H450 H 0.48492 0.85943 0.05654 0.0
H451 H 0.50032 0.85269 0.97896 0.0
C452 C 0.51172 0.84856 0.26287 0.0
C453 C 0.51635 0.82937 0.23745 0.0
C454 C 0.513 0.86498 0.21518 0.0
C455 C 0.51862 0.86258 0.14048 0.0
C456 C 0.5235 0.84348 0.11505 0.0
H457 H 0.52853 0.94294 0.76183 0.0
H458 H 0.52899 0.91457 0.84672 0.0
C459 C 0.52224 0.82703 0.16279 0.0
C460 C 0.51921 0.88004 0.08933 0.0
H461 H 0.49885 0.89904 0.92981 0.0
C462 C 0.53202 0.89588 0.10598 0.0
C463 C 0.50704 0.88128 0.02509 0.0
C464 C 0.49235 0.86519 0.00577 0.0
C465 C 0.53326 0.9127 0.05959 0.0
C466 C 0.52104 0.91397 0.99544 0.0
C467 C 0.50824 0.89811 0.97882 0.0
C468 C 0.52128 0.93154 0.94463 0.0
C469 C 0.548 0.92875 0.07884 0.0
C470 C 0.51666 0.95062 0.97099 0.0
C471 C 0.51645 0.96696 0.92249 0.0
C472 C 0.5207 0.96457 0.84631 0.0
C473 C 0.52524 0.94542 0.82009 0.0
C474 C 0.52548 0.92912 0.86861 0.0
H475 H 0.55987 0.92315 0.11644 0.0
H476 H 0.55501 0.93493 0.02793 0.0
H477 H 0.54018 0.94097 0.10794 0.0
H478 H 0.5129 0.95285 0.02895 0.0
H479 H 0.51273 0.98142 0.94464 0.0
H480 H 0.71579 0.50081 0.15403 0.0
H481 H 0.68694 0.50482 0.072 0.0
H482 H 0.65271 0.52686 0.25704 0.0
H483 H 0.68185 0.52373 0.33814 0.0
H484 H 0.65222 0.48687 0.07675 0.0
H485 H 0.6386 0.56757 0.10434 0.0
H486 H 0.66106 0.55598 0.13782 0.0
H487 H 0.63869 0.55505 0.19247 0.0
C488 C 0.70224 0.50695 0.17667 0.0
C489 C 0.70115 0.51215 0.25227 0.0
C490 C 0.68569 0.5091 0.12992 0.0
C491 C 0.66761 0.51645 0.15772 0.0
C492 C 0.66654 0.52169 0.2334 0.0
H493 H 0.54792 0.51504 0.96534 0.0
H494 H 0.57656 0.51491 0.05027 0.0
C495 C 0.68318 0.51974 0.27996 0.0
C496 C 0.64972 0.5176 0.10841 0.0
H497 H 0.61307 0.5487 0.04535 0.0
C498 C 0.64377 0.50045 0.06978 0.0
C499 C 0.63857 0.5353 0.09884 0.0
C500 C 0.64465 0.55456 0.13496 0.0
C501 C 0.62702 0.50047 0.02282 0.0
C502 C 0.61581 0.51804 0.01425 0.0
C503 C 0.62162 0.53519 0.05264 0.0
C504 C 0.59837 0.51891 0.96344 0.0
C505 C 0.62131 0.48172 0.98242 0.0
C506 C 0.60115 0.52139 0.88664 0.0
C507 C 0.58486 0.52158 0.83805 0.0
C508 C 0.5654 0.51918 0.86517 0.0
C509 C 0.56266 0.5169 0.94245 0.0
C510 C 0.579 0.51685 0.99112 0.0
H511 H 0.63055 0.46884 0.99963 0.0
H512 H 0.60546 0.47821 0.99292 0.0
H513 H 0.62307 0.48399 0.92156 0.0
H514 H 0.61598 0.523 0.8642 0.0
H515 H 0.5876 0.5233 0.779 0.0
H516 H 0.02234 0.67901 0.34025 0.0
H517 H 0.02126 0.65012 0.25739 0.0
H518 H 1.0013 0.68754 0.07729 0.0
H519 H 1.00242 0.7164 0.15958 0.0
H520 H 0.98971 0.63358 0.1751 0.0
H521 H 0.04989 0.65977 0.98863 0.0
H522 H 0.04521 0.6708 0.0784 0.0
H523 H 0.02979 0.67702 0.99993 0.0
C524 C 0.01751 0.68102 0.28317 0.0
C525 C 1.01222 0.69999 0.25702 0.0
C526 C 0.01695 0.66452 0.23581 0.0
C527 C 1.01143 0.66665 0.16077 0.0
C528 C 1.00593 0.68554 0.1346 0.0
H529 H 1.00432 0.58589 0.78323 0.0
H530 H 1.00313 0.61431 0.86751 0.0
C531 C 1.00646 0.70205 0.18198 0.0
C532 C 1.01153 0.64913 0.11003 0.0
H533 H 0.03275 0.63075 0.95162 0.0
C534 C 0.99917 0.63293 0.12635 0.0
C535 C 0.02386 0.64826 0.04633 0.0
C536 C 0.03808 0.66479 0.0274 0.0
C537 C 0.99852 0.61607 0.08012 0.0
C538 C 1.01089 0.61517 0.0165 0.0
C539 C 0.02325 0.6314 1.00022 0.0
C540 C 1.01125 0.5976 0.96592 0.0
C541 C 0.98422 0.5996 0.09892 0.0
C542 C 0.01639 0.57867 0.99274 0.0
C543 C 0.01703 0.56232 0.9446 0.0
C544 C 1.0127 0.56453 0.86832 0.0
C545 C 1.00769 0.58355 0.84158 0.0
C546 C 1.00703 0.59987 0.88975 0.0
H547 H 0.97213 0.60484 0.13603 0.0
H548 H 0.97747 0.59325 0.04779 0.0
H549 H 0.99234 0.58759 0.12839 0.0
H550 H 0.02018 0.57657 0.05084 0.0
H551 H 0.02109 0.54796 0.96716 0.0
H552 H 0.96544 0.26772 0.30925 0.0
H553 H 0.94856 0.25114 0.41366 0.0
H554 H 0.99117 0.20335 0.40246 0.0
H555 H 1.0082 0.22003 0.3015 0.0
H556 H 0.92981 0.21748 0.40724 0.0
H557 H 0.98643 0.20731 0.62116 0.0
H558 H 0.98933 0.2256 0.54828 0.0
H559 H 0.99802 0.20043 0.53554 0.0
C560 C 0.97147 0.25398 0.331 0.0
C561 C 0.98799 0.24502 0.29707 0.0
C562 C 0.96182 0.24452 0.3904 0.0
C563 C 0.96878 0.22616 0.41707 0.0
C564 C 0.98582 0.21778 0.38494 0.0
H565 H 0.93025 0.11826 0.41407 0.0
H566 H 0.92895 0.15408 0.41344 0.0
C567 C 0.99539 0.22716 0.32618 0.0
C568 C 0.95702 0.21391 0.4696 0.0
H569 H 0.96604 0.17676 0.59304 0.0
C570 C 0.93743 0.20901 0.45003 0.0
C571 C 0.9663 0.20348 0.52848 0.0
C572 C 0.9861 0.20974 0.55997 0.0
C573 C 0.92832 0.19195 0.47899 0.0
C574 C 0.93945 0.17914 0.52568 0.0
C575 C 0.95761 0.18596 0.55476 0.0
C576 C 0.93505 0.15753 0.53148 0.0
C577 C 0.90731 0.18733 0.45574 0.0
C578 C 0.93871 0.14711 0.59796 0.0
C579 C 0.94054 0.12643 0.59747 0.0
C580 C 0.9384 0.11573 0.53063 0.0
C581 C 0.93256 0.12602 0.46612 0.0
C582 C 0.93128 0.14666 0.46619 0.0
H583 H 0.89815 0.20104 0.45721 0.0
H584 H 0.90721 0.18196 0.39735 0.0
H585 H 0.90035 0.176 0.49226 0.0
H586 H 0.94163 0.15504 0.64923 0.0
H587 H 0.94511 0.11911 0.64838 0.0
H588 H 0.26397 0.97965 0.32699 0.0
H589 H 0.2792 0.96533 0.43877 0.0
H590 H 0.32702 1.00776 0.42219 0.0
H591 H 0.3112 0.02287 0.3153 0.0
H592 H 0.31032 0.94591 0.44162 0.0
H593 H 0.32557 1.00506 0.63822 0.0
H594 H 0.30767 1.0086 0.56436 0.0
H595 H 0.33351 0.01509 0.55118 0.0
C596 C 0.2773 0.98641 0.34926 0.0
C597 C 0.28658 1.00218 0.31157 0.0
C598 C 0.28606 0.97814 0.413 0.0
C599 C 0.30423 0.98549 0.43995 0.0
C600 C 0.31274 1.00206 0.40472 0.0
H601 H 0.409 0.93674 0.43876 0.0
H602 H 0.37329 0.93995 0.44117 0.0
C603 C 0.30388 1.01048 0.34215 0.0
C604 C 0.31637 0.97407 0.4945 0.0
H605 H 0.35528 0.9827 0.61068 0.0
C606 C 0.31967 0.95381 0.4808 0.0
C607 C 0.32798 0.98367 0.54939 0.0
C608 C 0.32322 1.00425 0.57705 0.0
C609 C 0.33625 0.94404 0.51083 0.0
C610 C 0.35034 0.95511 0.55201 0.0
C611 C 0.34515 0.97428 0.57602 0.0
C612 C 0.37156 0.94901 0.55696 0.0
C613 C 0.33896 0.92226 0.49457 0.0
C614 C 0.3829 0.95305 0.62093 0.0
C615 C 0.40364 0.95223 0.61832 0.0
C616 C 0.41347 0.94705 0.55192 0.0
C617 C 0.40201 0.94125 0.49028 0.0
C618 C 0.38138 0.94259 0.49229 0.0
H619 H 0.32458 0.91436 0.50071 0.0
H620 H 0.34373 0.92034 0.4359 0.0
H621 H 0.35004 0.91525 0.53218 0.0
H622 H 0.3758 0.95806 0.67159 0.0
H623 H 0.4119 0.95698 0.66691 0.0
H624 H 0.50101 0.3021 0.30641 0.0
H625 H 0.51745 0.31829 0.40994 0.0
H626 H 0.56092 0.27123 0.41846 0.0
H627 H 0.54535 0.25575 0.30974 0.0
H628 H 0.52974 0.31351 0.5477 0.0
H629 H 0.59639 0.31563 0.3632 0.0
H630 H 0.57324 0.30569 0.33004 0.0
H631 H 0.58794 0.29199 0.39633 0.0
C632 C 0.51399 0.29508 0.33057 0.0
C633 C 0.52238 0.27814 0.29788 0.0
C634 C 0.52327 0.30422 0.39064 0.0
C635 C 0.54093 0.29641 0.42036 0.0
C636 C 0.54778 0.27796 0.39458 0.0
H637 H 0.57801 0.40581 0.64552 0.0
H638 H 0.57692 0.36943 0.64425 0.0
C639 C 0.5387 0.26899 0.33299 0.0
C640 C 0.55323 0.30953 0.46814 0.0
H641 H 0.59276 0.34075 0.44921 0.0
C642 C 0.54386 0.31916 0.52787 0.0
C643 C 0.5719 0.31662 0.44317 0.0
C644 C 0.58301 0.30706 0.37963 0.0
C645 C 0.55087 0.33741 0.55474 0.0
C646 C 0.56818 0.3457 0.52284 0.0
C647 C 0.57929 0.33443 0.47227 0.0
C648 C 0.57204 0.36732 0.52538 0.0
C649 C 0.53847 0.34866 0.61048 0.0
C650 C 0.57071 0.37812 0.45861 0.0
C651 C 0.57174 0.39873 0.45891 0.0
C652 C 0.57395 0.40906 0.52614 0.0
C653 C 0.57634 0.39823 0.59274 0.0
C654 C 0.57548 0.37747 0.5923 0.0
H655 H 0.52456 0.3407 0.62498 0.0
H656 H 0.54712 0.35086 0.66241 0.0
H657 H 0.53448 0.3635 0.5881 0.0
H658 H 0.56809 0.37062 0.40617 0.0
H659 H 0.57023 0.40662 0.4066 0.0
H660 H 0.22034 0.51379 0.29634 0.0
H661 H 0.20412 0.53041 0.39896 0.0
H662 H 0.25494 0.56876 0.42633 0.0
H663 H 0.27083 0.55286 0.31879 0.0
H664 H 0.21121 0.53672 0.54177 0.0
H665 H 0.21283 0.60951 0.39358 0.0
H666 H 0.22089 0.58716 0.34787 0.0
H667 H 0.23591 0.59807 0.41977 0.0
C668 C 0.22809 0.52582 0.32382 0.0
C669 C 0.24658 0.53244 0.2979 0.0
C670 C 0.2189 0.53517 0.38336 0.0
C671 C 0.22809 0.55118 0.41959 0.0
C672 C 0.24732 0.55682 0.398 0.0
H673 H 0.1215 0.57858 0.66832 0.0
H674 H 0.15768 0.57933 0.6667 0.0
C675 C 0.25647 0.54758 0.33711 0.0
C676 C 0.21616 0.56257 0.47429 0.0
H677 H 0.1878 0.60446 0.47998 0.0
C678 C 0.20632 0.55174 0.52984 0.0
C679 C 0.21028 0.58238 0.46001 0.0
C680 C 0.22043 0.59504 0.40207 0.0
C681 C 0.18863 0.55869 0.56152 0.0
C682 C 0.18129 0.57761 0.54003 0.0
C683 C 0.19317 0.58979 0.49479 0.0
C684 C 0.15989 0.58277 0.54711 0.0
C685 C 0.17697 0.54466 0.61038 0.0
C686 C 0.14903 0.58669 0.48181 0.0
C687 C 0.12838 0.58731 0.48304 0.0
C688 C 0.118 0.58344 0.54923 0.0
C689 C 0.12889 0.58144 0.61596 0.0
C690 C 0.14968 0.58148 0.61502 0.0
H691 H 0.18376 0.52965 0.61321 0.0
H692 H 0.17639 0.55059 0.66789 0.0
H693 H 0.16155 0.54301 0.58937 0.0
H694 H 0.15644 0.58806 0.42856 0.0
H695 H 0.12056 0.58974 0.43108 0.0
H696 H 0.0543 0.76354 0.13558 0.0
H697 H 0.07387 0.78011 0.03814 0.0
H698 H 0.02818 0.82472 0.01679 0.0
H699 H 1.00859 0.80803 0.11165 0.0
H700 H 0.04757 0.81707 0.88231 0.0
H701 H 0.10127 0.82995 0.11464 0.0
H702 H 0.09616 0.80506 0.08431 0.0
H703 H 0.07745 0.81887 0.13308 0.0
C704 C 0.04822 0.77649 0.10793 0.0
C705 C 0.03019 0.78483 0.13184 0.0
C706 C 0.05943 0.78599 0.05274 0.0
C707 C 0.05268 0.80389 0.0215 0.0
C708 C 0.03373 0.81095 0.04021 0.0
H709 H 0.05788 0.91532 0.01555 0.0
H710 H 0.06181 0.87945 0.02574 0.0
C711 C 0.02259 0.80152 0.09485 0.0
C712 C 0.06599 0.81746 0.9803 0.0
H713 H 0.09828 0.85457 0.02438 0.0
C714 C 0.05935 0.82483 0.91145 0.0
C715 C 0.08153 0.82741 0.01818 0.0
C716 C 0.08961 0.82003 0.09166 0.0
C717 C 0.06557 0.84346 0.88549 0.0
C718 C 0.07891 0.85466 0.92928 0.0
C719 C 0.08788 0.84591 0.99165 0.0
C720 C 0.07903 0.87652 0.92466 0.0
C721 C 0.05595 0.85212 0.8168 0.0
C722 C 0.08777 0.88675 0.86512 0.0
C723 C 0.08551 0.90736 0.85925 0.0
C724 C 0.07437 0.91783 0.91256 0.0
C725 C 0.06635 0.90757 0.9734 0.0
C726 C 0.06869 0.88713 0.97943 0.0
H727 H 0.04634 0.84121 0.78769 0.0
H728 H 0.04678 0.86516 0.83236 0.0
H729 H 0.06755 0.8573 0.77752 0.0
H730 H 0.09583 0.87877 0.82251 0.0
H731 H 0.09175 0.91498 0.81161 0.0
H732 H 0.71955 1.00549 0.10543 0.0
H733 H 0.70351 0.01795 0.99401 0.0
H734 H 0.75391 0.05575 0.95014 0.0
H735 H 0.76978 0.04377 0.06518 0.0
H736 H 0.72261 0.07693 0.94354 0.0
H737 H 0.70487 1.01202 0.77657 0.0
H738 H 0.69742 1.00553 0.86888 0.0
H739 H 0.72327 1.01074 0.84976 0.0
C740 C 0.72739 0.01622 0.07148 0.0
C741 C 0.74574 0.0239 0.09454 0.0
C742 C 0.71836 0.0231 0.00673 0.0
C743 C 0.7276 0.03757 0.96239 0.0
C744 C 0.74655 0.04445 0.98295 0.0
H745 H 0.6207 0.06199 0.72307 0.0
H746 H 0.65677 0.05985 0.71994 0.0
C747 C 0.75562 0.03758 0.04849 0.0
C748 C 0.71572 0.04753 0.90341 0.0
H749 H 0.67635 0.03631 0.7926 0.0
C750 C 0.71295 0.06815 0.90824 0.0
C751 C 0.70371 0.03654 0.85369 0.0
C752 C 0.70774 0.01502 0.83645 0.0
C753 C 0.69652 0.07733 0.87456 0.0
C754 C 0.68213 0.06542 0.83844 0.0
C755 C 0.68677 0.04549 0.8231 0.0
C756 C 0.66107 0.07186 0.8306 0.0
C757 C 0.69427 0.0995 0.88176 0.0
C758 C 0.65133 0.08021 0.89225 0.0
C759 C 0.63072 0.08203 0.89327 0.0
C760 C 0.61921 0.07489 0.83379 0.0
C761 C 0.629 0.06777 0.7699 0.0
C762 C 0.64972 0.06638 0.76821 0.0
H763 H 0.70882 0.10687 0.8729 0.0
H764 H 0.6834 0.1056 0.84119 0.0
H765 H 0.68943 0.1032 0.93912 0.0
H766 H 0.65944 0.08405 0.94225 0.0
H767 H 0.62376 0.08801 0.9427 0.0
H768 H 0.46595 0.763 0.12719 0.0
H769 H 0.44757 0.74571 0.02801 0.0
H770 H 0.49925 0.70996 0.98244 0.0
H771 H 0.51744 0.72701 0.08146 0.0
H772 H 0.47188 0.72137 0.84988 0.0
H773 H 0.43624 0.6864 0.09801 0.0
H774 H 0.43615 0.71297 0.08768 0.0
H775 H 0.45897 0.7003 0.10764 0.0
C776 C 0.47352 0.75199 0.09375 0.0
C777 C 0.49297 0.74616 0.11147 0.0
C778 C 0.46306 0.74217 0.03736 0.0
C779 C 0.47208 0.72656 0.99835 0.0
C780 C 0.49212 0.72209 0.01159 0.0
H781 H 0.48 0.62142 0.79689 0.0
H782 H 0.47795 0.65694 0.81627 0.0
C783 C 0.50247 0.73173 0.06817 0.0
C784 C 0.46016 0.71211 0.95581 0.0
H785 H 0.4358 0.66873 0.98719 0.0
C786 C 0.4634 0.71012 0.87909 0.0
C787 C 0.44884 0.69768 0.99391 0.0
C788 C 0.44476 0.69927 0.07637 0.0
C789 C 0.45703 0.69313 0.84074 0.0
C790 C 0.44796 0.67749 0.88109 0.0
C791 C 0.44288 0.68055 0.95601 0.0
C792 C 0.44726 0.6568 0.85265 0.0
C793 C 0.46086 0.69181 0.75818 0.0
C794 C 0.43076 0.64457 0.86693 0.0
C795 C 0.4322 0.62398 0.85839 0.0
C796 C 0.45001 0.61539 0.83391 0.0
C797 C 0.46598 0.62771 0.81462 0.0
C798 C 0.46471 0.64815 0.82483 0.0
H799 H 0.4584 0.70647 0.73134 0.0
H800 H 0.47662 0.68773 0.74864 0.0
H801 H 0.45116 0.68068 0.73078 0.0
H802 H 0.41717 0.65082 0.88893 0.0
H803 H 0.4197 0.61472 0.87352 0.0
H804 H 0.76158 0.48257 0.09456 0.0
H805 H 0.77727 0.46836 0.98332 0.0
H806 H 0.82838 0.50584 0.01888 0.0
H807 H 0.81236 0.52076 0.12581 0.0
H808 H 0.82255 0.50008 0.8746 0.0
H809 H 0.81834 0.42684 0.01903 0.0
H810 H 0.7957 0.43879 0.99077 0.0
H811 H 0.81033 0.44916 0.065 0.0
C812 C 0.77589 0.48816 0.07691 0.0
C813 C 0.78604 0.50236 0.11987 0.0
C814 C 0.78494 0.47987 0.01394 0.0
C815 C 0.80431 0.48551 0.99413 0.0
C816 C 0.81352 0.50104 0.03316 0.0
H817 H 0.91112 0.44513 0.99566 0.0
H818 H 0.8753 0.44758 0.9932 0.0
C819 C 0.80444 0.50946 0.09491 0.0
C820 C 0.81652 0.47413 0.94025 0.0
H821 H 0.84426 0.43179 0.93666 0.0
C822 C 0.82707 0.48495 0.88654 0.0
C823 C 0.82195 0.45417 0.9544 0.0
C824 C 0.81109 0.44148 0.01043 0.0
C825 C 0.8449 0.47774 0.8567 0.0
C826 C 0.85175 0.45868 0.87859 0.0
C827 C 0.83926 0.44658 0.9217 0.0
C828 C 0.87314 0.45318 0.87445 0.0
C829 C 0.85708 0.49155 0.8088 0.0
C830 C 0.88404 0.45434 0.80809 0.0
C831 C 0.90484 0.45404 0.81005 0.0
C832 C 0.91504 0.45173 0.87822 0.0
C833 C 0.9039 0.44788 0.94272 0.0
C834 C 0.88327 0.44892 0.94108 0.0
H835 H 0.85067 0.50673 0.80588 0.0
H836 H 0.87248 0.49279 0.83047 0.0
H837 H 0.85764 0.48564 0.75127 0.0
H838 H 0.87656 0.45664 0.75546 0.0
H839 H 0.91279 0.45686 0.75882 0.0
H840 H 0.98074 0.22906 0.02027 0.0
H841 H 0.98408 0.19878 0.94608 0.0
H842 H 0.04747 0.19999 0.97912 0.0
H843 H 0.04413 0.2306 0.05283 0.0
H844 H 0.0349 0.1863 0.83233 0.0
H845 H 0.99641 0.14728 0.0629 0.0
H846 H 0.98289 0.16794 0.02496 0.0
H847 H 1.00604 0.17212 0.07236 0.0
C848 C 0.99545 0.22323 0.00944 0.0
C849 C 1.0122 0.23225 0.04167 0.0
C850 C 0.99733 0.20582 0.96775 0.0
C851 C 0.01598 0.19686 0.95823 0.0
C852 C 0.03292 0.20659 0.98587 0.0
H853 H 0.03339 0.07068 0.87799 0.0
H854 H 0.0339 0.10456 0.92603 0.0
C855 C 0.03104 0.22415 0.02747 0.0
C856 C 0.01743 0.17655 0.9256 0.0
H857 H 1.0027 0.12859 0.95411 0.0
C858 C 0.0279 0.17366 0.85892 0.0
C859 C 1.00857 0.15997 0.9609 0.0
C860 C 0.99799 0.16186 0.03458 0.0
C861 C 0.02937 0.15472 0.82592 0.0
C862 C 0.01995 0.13826 0.86009 0.0
C863 C 1.0098 0.14116 0.92744 0.0
C864 C 0.02059 0.1178 0.82807 0.0
C865 C 0.04131 0.15247 0.75551 0.0
C866 C 1.01289 0.11379 0.75686 0.0
C867 C 1.01262 0.09434 0.72899 0.0
C868 C 0.01991 0.07839 0.77195 0.0
C869 C 0.02767 0.0825 0.84313 0.0
C870 C 0.02797 0.10193 0.8708 0.0
H871 H 0.05189 0.16495 0.74792 0.0
H872 H 0.04977 0.13833 0.75567 0.0
H873 H 0.03108 0.15236 0.707 0.0
H874 H 1.00666 0.12563 0.72335 0.0
H875 H 1.00637 0.09178 0.67423 0.0
H876 H 0.31606 0.04621 0.10853 0.0
H877 H 0.34644 0.04741 0.03413 0.0
H878 H 0.32707 0.99586 0.91189 0.0
H879 H 0.29631 0.99509 0.98517 0.0
H880 H 0.37397 0.01934 0.03707 0.0
H881 H 0.34939 0.02842 0.74414 0.0
H882 H 0.33296 0.03262 0.82183 0.0
H883 H 0.33808 1.00777 0.79073 0.0
C884 C 0.31799 0.03559 0.06388 0.0
C885 C 0.30371 0.02076 0.05175 0.0
C886 C 0.33544 0.03617 0.02172 0.0
C887 C 0.33915 0.02181 0.96675 0.0
C888 C 0.32448 1.00741 0.95252 0.0
H889 H 0.44718 0.98992 0.72427 0.0
H890 H 0.41355 0.99158 0.77501 0.0
C891 C 0.30686 1.00697 0.99437 0.0
C892 C 0.35917 0.02082 0.93079 0.0
H893 H 0.38344 0.02023 0.76341 0.0
C894 C 0.37598 0.01971 0.97718 0.0
C895 C 0.36193 0.02098 0.85255 0.0
C896 C 0.34465 0.02269 0.79936 0.0
C897 C 0.39532 0.01872 0.948 0.0
C898 C 0.39812 0.0192 0.86992 0.0
C899 C 0.38134 0.02 0.82326 0.0
C900 C 0.41838 0.01878 0.83614 0.0
C901 C 0.41257 0.01672 1.00127 0.0
C902 C 0.4323 0.03373 0.85222 0.0
C903 C 0.45163 0.03282 0.8234 0.0
C904 C 0.45749 0.01698 0.77742 0.0
C905 C 0.44332 1.0023 0.75984 0.0
C906 C 0.424 1.00324 0.78866 0.0
H907 H 0.40774 1.01121 0.05668 0.0
H908 H 0.424 1.00645 0.97901 0.0
H909 H 0.41954 0.03148 0.00931 0.0
H910 H 0.42824 0.0461 0.88748 0.0
H911 H 0.46201 0.04447 0.83776 0.0
H912 H 0.53047 0.29156 0.97659 0.0
H913 H 0.53035 0.3235 0.90992 0.0
H914 H 0.47733 0.3407 0.02753 0.0
H915 H 0.47779 0.30914 0.09533 0.0
H916 H 0.50445 0.34515 0.82012 0.0
H917 H 0.51594 0.38371 0.08895 0.0
H918 H 0.51786 0.35714 0.07995 0.0
H919 H 0.4939 0.3688 0.08771 0.0
C920 C 0.51848 0.30195 0.98636 0.0
C921 C 0.50407 0.29785 0.04071 0.0
C922 C 0.5185 0.32027 0.94874 0.0
C923 C 0.50412 0.33479 0.96504 0.0
C924 C 0.48888 0.33002 0.01526 0.0
H925 H 0.4857 0.45953 0.85476 0.0
H926 H 0.48294 0.42521 0.89861 0.0
C927 C 0.48897 0.31186 0.05325 0.0
C928 C 0.5057 0.3553 0.93357 0.0
H929 H 0.50934 0.40411 0.98415 0.0
C930 C 0.50558 0.35803 0.85596 0.0
C931 C 0.50738 0.37219 0.98016 0.0
C932 C 0.50899 0.37036 0.06375 0.0
C933 C 0.50649 0.37715 0.82394 0.0
C934 C 0.5078 0.39404 0.87071 0.0
C935 C 0.50812 0.39125 0.94819 0.0
C936 C 0.5091 0.41474 0.84094 0.0
C937 C 0.50558 0.3791 0.74031 0.0
C938 C 0.52482 0.42047 0.79439 0.0
C939 C 0.52644 0.44011 0.7692 0.0
C940 C 0.51246 0.45462 0.79035 0.0
C941 C 0.49673 0.44884 0.83713 0.0
C942 C 0.49513 0.42917 0.86229 0.0
H943 H 0.49933 0.36558 0.71384 0.0
H944 H 0.49647 0.39209 0.72349 0.0
H945 H 0.52083 0.38125 0.71844 0.0
H946 H 0.53609 0.40984 0.77851 0.0
H947 H 0.53882 0.44391 0.73351 0.0
H948 H 0.23265 0.53974 0.00633 0.0
H949 H 0.20137 0.5369 0.93676 0.0
H950 H 0.1973 0.47525 0.99913 0.0
H951 H 0.22863 0.47813 0.0688 0.0
H952 H 0.18588 0.51059 0.8205 0.0
H953 H 0.14751 0.5021 0.09253 0.0
H954 H 0.17282 0.51064 0.08538 0.0
H955 H 0.1672 0.48476 0.07451 0.0
C956 C 0.22547 0.5254 1.00254 0.0
C957 C 0.23323 0.50905 0.04164 0.0
C958 C 0.20751 0.52382 0.96336 0.0
C959 C 0.1968 0.50594 0.96356 0.0
C960 C 0.20519 0.48925 0.99874 0.0
H961 H 0.07272 0.48183 0.84539 0.0
H962 H 0.10723 0.47916 0.8875 0.0
C963 C 0.22322 0.49081 0.03763 0.0
C964 C 0.1762 0.50535 0.93286 0.0
H965 H 0.12755 0.50127 0.98503 0.0
C966 C 0.17312 0.50847 0.85636 0.0
C967 C 0.15951 0.50265 0.97964 0.0
C968 C 0.16178 0.5 0.06269 0.0
C969 C 0.15387 0.50874 0.82536 0.0
C970 C 0.13713 0.50637 0.87239 0.0
C971 C 0.14028 0.50305 0.94878 0.0
C972 C 0.11624 0.50774 0.84416 0.0
C973 C 0.15169 0.51123 0.74226 0.0
C974 C 0.10959 0.52479 0.80641 0.0
C975 C 0.08988 0.52631 0.7819 0.0
C976 C 0.07617 0.51094 0.79538 0.0
C977 C 0.0828 0.49396 0.83386 0.0
C978 C 0.10258 0.4924 0.85801 0.0
H979 H 0.16541 0.5067 0.71253 0.0
H980 H 0.13906 0.50239 0.72044 0.0
H981 H 0.14889 0.52709 0.72934 0.0
H982 H 0.11956 0.53711 0.79681 0.0
H983 H 0.08536 0.5397 0.75299 0.0
H984 H 0.98313 0.81777 0.30851 0.0
H985 H 0.98236 0.84824 0.38248 0.0
H986 H 0.02421 0.82263 0.53717 0.0
H987 H 0.02503 0.79199 0.46256 0.0
H988 H 0.97433 0.85758 0.53478 0.0
H989 H 0.05282 0.87262 0.45706 0.0
H990 H 0.03809 0.85393 0.41101 0.0
H991 H 0.04808 0.84927 0.50215 0.0
C992 C 0.99171 0.81843 0.35956 0.0
C993 C 1.00402 0.80247 0.38015 0.0
C994 C 0.99135 0.83589 0.4016 0.0
C995 C 1.00349 0.83792 0.46474 0.0
C996 C 0.01492 0.82154 0.48807 0.0
H997 H 0.03364 0.948 0.70167 0.0
H998 H 0.03124 0.91324 0.66353 0.0
C999 C 0.01519 0.80395 0.44608 0.0
C1000 C 1.00505 0.85764 0.50218 0.0
H1001 H 0.03664 0.89673 0.52906 0.0
C1002 C 0.988 0.86608 0.53406 0.0
C1003 C 0.02286 0.8688 0.50123 0.0
C1004 C 0.04151 0.86085 0.46563 0.0
C1005 C 0.98825 0.88533 0.56464 0.0
C1006 C 1.00591 0.89674 0.56162 0.0
C1007 C 0.02308 0.88809 0.53136 0.0
C1008 C 1.00678 0.91786 0.58712 0.0
C1009 C 0.96959 0.89314 0.60052 0.0
C1010 C 0.99397 0.93224 0.55664 0.0
C1011 C 0.99524 0.95217 0.57858 0.0
C1012 C 1.00955 0.95831 0.63093 0.0
C1013 C 0.02244 0.9439 0.66116 0.0
C1014 C 0.02108 0.92395 0.63941 0.0
H1015 H 0.95988 0.88086 0.61986 0.0
H1016 H 0.97308 0.90285 0.6487 0.0
H1017 H 0.96109 0.90194 0.55904 0.0
H1018 H 0.98316 0.92813 0.51472 0.0
H1019 H 0.98517 0.9628 0.55356 0.0
H1020 H 0.72649 0.04556 0.35553 0.0
H1021 H 0.69631 0.04538 0.43112 0.0
H1022 H 0.70079 0.98181 0.45385 0.0
H1023 H 0.73139 0.98212 0.37964 0.0
H1024 H 0.6631 0.02833 0.38799 0.0
H1025 H 0.68375 0.99665 0.66186 0.0
H1026 H 0.70199 1.0057 0.5966 0.0
H1027 H 0.69146 0.98135 0.58552 0.0
C1028 C 0.72142 0.03165 0.37908 0.0
C1029 C 0.73142 1.01389 0.36256 0.0
C1030 C 0.70407 0.03152 0.42184 0.0
C1031 C 0.69617 1.0136 0.44876 0.0
C1032 C 0.70671 0.99591 0.43537 0.0
H1033 H 0.56969 0.99452 0.51612 0.0
H1034 H 0.60395 0.99527 0.47178 0.0
C1035 C 0.72424 0.99607 0.39298 0.0
C1036 C 0.67588 1.01332 0.48264 0.0
H1037 H 0.64902 0.99765 0.63331 0.0
C1038 C 0.66011 0.02172 0.44192 0.0
C1039 C 0.67184 1.00496 0.55346 0.0
C1040 C 0.68818 0.99684 0.6023 0.0
C1041 C 0.64054 0.02168 0.469 0.0
C1042 C 0.63631 1.01242 0.53805 0.0
C1043 C 0.65212 1.00445 0.57984 0.0
C1044 C 0.61559 1.01096 0.56744 0.0
C1045 C 0.62465 0.03192 0.42367 0.0
C1046 C 0.6107 0.0188 0.63752 0.0
C1047 C 0.59107 0.01818 0.66356 0.0
C1048 C 0.57586 1.00964 0.62014 0.0
C1049 C 0.58091 1.00139 0.5508 0.0
C1050 C 0.60054 1.0019 0.52511 0.0
H1051 H 0.63107 0.04325 0.38575 0.0
H1052 H 0.61686 0.02079 0.38881 0.0
H1053 H 0.61355 0.03927 0.46004 0.0
H1054 H 0.62201 0.02577 0.67153 0.0
H1055 H 0.58778 0.02473 0.71718 0.0
H1056 H 0.54382 0.73367 0.40026 0.0
H1057 H 0.54715 0.70411 0.47978 0.0
H1058 H 0.48712 0.68714 0.42544 0.0
H1059 H 0.48345 0.7169 0.34959 0.0
H1060 H 0.49462 0.67822 0.56563 0.0
H1061 H 0.55674 0.65032 0.39191 0.0
H1062 H 0.56158 0.6736 0.43668 0.0
H1063 H 0.54251 0.67196 0.36664 0.0
C1064 C 0.5312 0.72387 0.4068 0.0
C1065 C 0.51349 0.7275 0.3674 0.0
C1066 C 0.5332 0.70679 0.45141 0.0
C1067 C 0.5176 0.69295 0.45693 0.0
C1068 C 0.4995 0.69735 0.42168 0.0
H1069 H 0.52311 0.56644 0.5206 0.0
H1070 H 0.52231 0.60081 0.47771 0.0
C1071 C 0.49746 0.71438 0.37784 0.0
C1072 C 0.52007 0.67339 0.49567 0.0
H1073 H 0.54655 0.63008 0.49125 0.0
C1074 C 0.50605 0.66773 0.54962 0.0
C1075 C 0.53481 0.65951 0.47433 0.0
C1076 C 0.54967 0.66401 0.41379 0.0
C1077 C 0.50604 0.64857 0.58129 0.0
C1078 C 0.52087 0.63471 0.56021 0.0
C1079 C 0.53518 0.64059 0.50771 0.0
C1080 C 0.52122 0.61371 0.58802 0.0
C1081 C 0.4896 0.64324 0.63467 0.0
C1082 C 0.52104 0.60922 0.66458 0.0
C1083 C 0.52113 0.58945 0.6893 0.0
C1084 C 0.52195 0.57365 0.63814 0.0
C1085 C 0.52258 0.57817 0.5617 0.0
C1086 C 0.52214 0.5979 0.53704 0.0
H1087 H 0.47656 0.65321 0.62822 0.0
H1088 H 0.48459 0.6277 0.62671 0.0
H1089 H 0.49514 0.64488 0.69251 0.0
H1090 H 0.52095 0.621 0.70547 0.0
H1091 H 0.52074 0.58655 0.74861 0.0
H1092 H 0.79429 0.54119 0.43378 0.0
H1093 H 0.82395 0.54346 0.51341 0.0
H1094 H 0.84398 0.48679 0.43127 0.0
H1095 H 0.8141 0.48402 0.35556 0.0
H1096 H 0.85394 0.48984 0.57062 0.0
H1097 H 0.87622 0.5595 0.42808 0.0
H1098 H 0.85313 0.56122 0.47721 0.0
H1099 H 0.85522 0.54502 0.39806 0.0
C1100 C 0.80477 0.529 0.43444 0.0
C1101 C 0.80198 0.51259 0.38728 0.0
C1102 C 0.82192 0.53044 0.47904 0.0
C1103 C 0.83668 0.51562 0.47659 0.0
C1104 C 0.83307 0.49858 0.4338 0.0
H1105 H 0.96345 0.52342 0.5314 0.0
H1106 H 0.92882 0.52312 0.4907 0.0
C1107 C 0.81595 0.49704 0.39013 0.0
C1108 C 0.85638 0.51799 0.51451 0.0
H1109 H 0.89797 0.54715 0.51956 0.0
C1110 C 0.86348 0.50247 0.5599 0.0
C1111 C 0.86912 0.53427 0.4996 0.0
C1112 C 0.86317 0.55087 0.44757 0.0
C1113 C 0.88291 0.50256 0.58908 0.0
C1114 C 0.89551 0.51896 0.57499 0.0
C1115 C 0.8883 0.53467 0.53103 0.0
C1116 C 0.91659 0.51954 0.60123 0.0
C1117 C 0.89019 0.48455 0.63106 0.0
C1118 C 0.92142 0.51791 0.67721 0.0
C1119 C 0.9413 0.51786 0.70069 0.0
C1120 C 0.95685 0.51979 0.64884 0.0
C1121 C 0.95194 0.52191 0.57302 0.0
C1122 C 0.93208 0.52177 0.54958 0.0
H1123 H 0.88017 0.47161 0.62366 0.0
H1124 H 0.90532 0.48031 0.61249 0.0
H1125 H 0.89096 0.48801 0.69129 0.0
H1126 H 0.90981 0.51672 0.71856 0.0
H1127 H 0.94446 0.51633 0.75957 0.0
loop_
_geom_bond_atom_site_label_1
_geom_bond_atom_site_label_2
_geom_bond_distance
_geom_bond_site_symmetry_2
_ccdc_geom_bond_type
H0 C7 0.929 . S
H1 C10 0.930 . S
H2 C12 0.929 . S
H3 C4 0.969 . S
C4 H3 0.969 . S
C4 O5 1.550 . S
C4 H6 0.973 . S
O5 C4 1.550 . S
O5 C11 1.412 . S
H6 C4 0.973 . S
C7 H0 0.929 . S
C7 C8 1.400 . S
C7 C9 1.364 . S
C8 C7 1.400 . S
C8 C12 1.377 . S
C9 C7 1.364 . S
C9 C10 1.374 . S
C10 H1 0.930 . S
C10 C9 1.374 . S
C10 C11 1.383 . S
C11 O5 1.412 . S
C11 C10 1.383 . S
C11 C12 1.394 . S
C12 H2 0.929 . S
C12 C8 1.377 . S
C12 C11 1.394 . S
H13 C20 0.928 . S
H14 C23 0.930 . S
H15 C25 0.928 1_655 S
H16 C17 0.969 . S
C17 H16 0.969 . S
C17 O18 1.550 1_455 S
C17 H19 0.973 1_455 S
O18 C17 1.550 1_655 S
O18 C24 1.406 1_655 S
H19 C17 0.973 1_655 S
C20 H13 0.928 . S
C20 C21 1.400 1_655 S
C20 C22 1.364 1_655 S
C21 C20 1.400 1_455 S
C21 C25 1.377 . S
C22 C20 1.364 1_455 S
C22 C23 1.374 1_455 S
C23 H14 0.930 . S
C23 C22 1.374 1_655 S
C23 C24 1.382 1_655 S
C24 O18 1.406 1_455 S
C24 C23 1.382 1_455 S
C24 C25 1.394 . S
C25 H15 0.928 1_455 S
C25 C21 1.377 . S
C25 C24 1.394 . S
H26 C33 0.928 . S
H27 C36 0.930 . S
H28 C38 0.928 1_565 S
H29 C30 0.969 . S
C30 H29 0.969 . S
C30 O31 1.550 1_545 S
C30 H32 0.973 1_545 S
O31 C30 1.550 1_565 S
O31 C37 1.406 1_565 S
H32 C30 0.973 1_565 S
C33 H26 0.928 . S
C33 C34 1.400 1_565 S
C33 C35 1.364 1_565 S
C34 C33 1.400 1_545 S
C34 C38 1.377 . S
C35 C33 1.364 1_545 S
C35 C36 1.374 1_545 S
C36 H27 0.930 . S
C36 C35 1.374 1_565 S
C36 C37 1.382 1_565 S
C37 O31 1.406 1_545 S
C37 C36 1.382 1_545 S
C37 C38 1.394 . S
C38 H28 0.928 1_545 S
C38 C34 1.377 . S
C38 C37 1.394 . S
H39 C46 0.929 . S
H40 C49 0.930 . S
H41 C51 0.929 . S
H42 C43 0.969 . S
C43 H42 0.969 . S
C43 O44 1.550 . S
C43 H45 0.973 . S
O44 C43 1.550 . S
O44 C50 1.412 . S
H45 C43 0.973 . S
C46 H39 0.929 . S
C46 C47 1.400 . S
C46 C48 1.364 . S
C47 C46 1.400 . S
C47 C51 1.377 . S
C48 C46 1.364 . S
C48 C49 1.374 . S
C49 H40 0.930 . S
C49 C48 1.374 . S
C49 C50 1.383 . S
C50 O44 1.412 . S
C50 C49 1.383 . S
C50 C51 1.394 . S
C51 H41 0.929 . S
C51 C47 1.377 . S
C51 C50 1.394 . S
H52 C59 0.929 . S
H53 C62 0.930 . S
H54 C64 0.929 . S
H55 C56 0.969 . S
C56 H55 0.969 . S
C56 O57 1.550 . S
C56 H58 0.973 . S
O57 C56 1.550 . S
O57 C63 1.412 . S
H58 C56 0.973 . S
C59 H52 0.929 . S
C59 C60 1.400 1_554 S
C59 C61 1.364 . S
C60 C59 1.400 1_556 S
C60 C64 1.377 . S
C61 C59 1.364 . S
C61 C62 1.374 . S
C62 H53 0.930 . S
C62 C61 1.374 . S
C62 C63 1.383 . S
C63 O57 1.412 . S
C63 C62 1.383 . S
C63 C64 1.394 1_554 S
C64 H54 0.929 . S
C64 C60 1.377 . S
C64 C63 1.394 1_556 S
H65 C72 0.929 1_655 S
H66 C75 0.930 . S
H67 C77 0.928 1_655 S
H68 C69 0.969 . S
C69 H68 0.969 . S
C69 O70 1.550 1_455 S
C69 H71 0.973 1_455 S
O70 C69 1.550 1_655 S
O70 C76 1.402 1_655 S
H71 C69 0.973 1_655 S
C72 H65 0.929 1_455 S
C72 C73 1.400 1_554 S
C72 C74 1.364 . S
C73 C72 1.400 1_556 S
C73 C77 1.377 . S
C74 C72 1.364 . S
C74 C75 1.374 1_455 S
C75 H66 0.930 . S
C75 C74 1.374 1_655 S
C75 C76 1.382 1_655 S
C76 O70 1.402 1_455 S
C76 C75 1.382 1_455 S
C76 C77 1.394 1_554 S
C77 H67 0.928 1_455 S
C77 C73 1.377 . S
C77 C76 1.394 1_556 S
H78 C85 0.929 1_565 S
H79 C88 0.930 . S
H80 C90 0.928 1_565 S
H81 C82 0.969 . S
C82 H81 0.969 . S
C82 O83 1.550 1_545 S
C82 H84 0.973 1_545 S
O83 C82 1.550 1_565 S
O83 C89 1.402 1_565 S
H84 C82 0.973 1_565 S
C85 H78 0.929 1_545 S
C85 C86 1.400 1_554 S
C85 C87 1.364 . S
C86 C85 1.400 1_556 S
C86 C90 1.377 . S
C87 C85 1.364 . S
C87 C88 1.374 1_545 S
C88 H79 0.930 . S
C88 C87 1.374 1_565 S
C88 C89 1.382 1_565 S
C89 O83 1.402 1_545 S
C89 C88 1.382 1_545 S
C89 C90 1.394 1_554 S
C90 H80 0.928 1_545 S
C90 C86 1.377 . S
C90 C89 1.394 1_556 S
H91 C98 0.929 . S
H92 C101 0.930 . S
H93 C103 0.929 . S
H94 C95 0.969 . S
C95 H94 0.969 . S
C95 O96 1.550 . S
C95 H97 0.973 . S
O96 C95 1.550 . S
O96 C102 1.412 . S
H97 C95 0.973 . S
C98 H91 0.929 . S
C98 C99 1.400 1_554 S
C98 C100 1.364 . S
C99 C98 1.400 1_556 S
C99 C103 1.377 . S
C100 C98 1.364 . S
C100 C101 1.374 . S
C101 H92 0.930 . S
C101 C100 1.374 . S
C101 C102 1.383 . S
C102 O96 1.412 . S
C102 C101 1.383 . S
C102 C103 1.394 1_554 S
C103 H93 0.929 . S
C103 C99 1.377 . S
C103 C102 1.394 1_556 S
Tb104 C114 2.825 . S
Tb104 O115 2.347 1_455 S
Tb104 O118 2.366 . S
Tb104 O123 2.418 . S
Tb104 O124 2.384 1_565 S
Tb104 O127 2.479 . S
Tb104 O128 2.471 . S
Eu105 O116 2.418 . S
Eu105 O117 2.384 1_545 S
Eu105 O120 2.479 . S
Eu105 O121 2.471 . S
Eu105 O122 2.347 1_655 S
Eu105 O125 2.366 . S
Eu105 C135 2.825 . S
C106 O122 1.259 1_565 S
C106 O123 1.265 . S
C107 O124 1.255 . S
C107 O125 1.265 1_455 S
C108 C110 1.380 . S
C108 C111 1.374 . S
C108 C114 1.507 . S
C109 C110 1.384 . S
C109 C113 1.387 . S
C109 H136 0.930 . S
C110 C108 1.380 . S
C110 C109 1.384 . S
C110 H137 0.931 . S
C111 C108 1.374 . S
C111 C112 1.390 . S
C111 H138 0.930 1_455 S
C112 C111 1.390 . S
C112 C113 1.391 . S
C112 H139 0.930 1_455 S
C113 C109 1.387 . S
C113 C112 1.391 . S
C114 Tb104 2.825 . S
C114 C108 1.507 . S
C114 O127 1.238 . S
C114 O128 1.247 . S
O115 Tb104 2.347 1_655 S
O115 C119 1.259 1_565 S
O116 Eu105 2.418 . S
O116 C119 1.265 . S
O117 Eu105 2.384 1_565 S
O117 C126 1.255 . S
O118 Tb104 2.366 . S
O118 C126 1.265 1_455 S
C119 O115 1.259 1_545 S
C119 O116 1.265 . S
O120 Eu105 2.479 . S
O120 C135 1.238 . S
O121 Eu105 2.471 . S
O121 C135 1.247 . S
O122 Eu105 2.347 1_455 S
O122 C106 1.259 1_545 S
O123 Tb104 2.418 . S
O123 C106 1.265 . S
O124 Tb104 2.384 1_545 S
O124 C107 1.255 . S
O125 Eu105 2.366 . S
O125 C107 1.265 1_655 S
C126 O117 1.255 . S
C126 O118 1.265 1_655 S
O127 Tb104 2.479 . S
O127 C114 1.238 . S
O128 Tb104 2.471 . S
O128 C114 1.247 . S
C129 C132 1.380 . S
C129 C133 1.374 . S
C129 C135 1.507 . S
C130 C131 1.387 . S
C130 C134 1.391 . S
C131 C130 1.387 . S
C131 C132 1.384 . S
C131 H140 0.930 . S
C132 C129 1.380 . S
C132 C131 1.384 . S
C132 H141 0.931 . S
C133 C129 1.374 . S
C133 C134 1.390 . S
C133 H142 0.930 1_655 S
C134 C130 1.391 . S
C134 C133 1.390 . S
C134 H143 0.930 1_655 S
C135 Eu105 2.825 . S
C135 O120 1.238 . S
C135 O121 1.247 . S
C135 C129 1.507 . S
H136 C109 0.930 . S
H137 C110 0.931 . S
H138 C111 0.930 1_655 S
H139 C112 0.930 1_655 S
H140 C131 0.930 . S
H141 C132 0.931 . S
H142 C133 0.930 1_455 S
H143 C134 0.930 1_455 S
Tb144 C154 2.825 . S
Tb144 O155 2.347 1_545 S
Tb144 O158 2.366 . S
Tb144 O163 2.418 . S
Tb144 O164 2.384 . S
Tb144 O167 2.479 . S
Tb144 O168 2.471 . S
Eu145 O156 2.418 . S
Eu145 O157 2.384 . S
Eu145 O160 2.479 . S
Eu145 O161 2.471 . S
Eu145 O162 2.347 1_565 S
Eu145 O165 2.366 . S
Eu145 C175 2.825 . S
C146 O162 1.259 . S
C146 O163 1.265 . S
C147 O164 1.255 . S
C147 O165 1.265 1_545 S
C148 C150 1.380 . S
C148 C151 1.374 . S
C148 C154 1.507 . S
C149 C150 1.384 . S
C149 C153 1.387 . S
C149 H176 0.930 . S
C150 C148 1.380 . S
C150 C149 1.384 . S
C150 H177 0.931 . S
C151 C148 1.374 . S
C151 C152 1.390 . S
C151 H178 0.930 1_545 S
C152 C151 1.390 . S
C152 C153 1.391 . S
C152 H179 0.930 1_545 S
C153 C149 1.387 . S
C153 C152 1.391 . S
C154 Tb144 2.825 . S
C154 C148 1.507 . S
C154 O167 1.238 . S
C154 O168 1.247 . S
O155 Tb144 2.347 1_565 S
O155 C159 1.259 . S
O156 Eu145 2.418 . S
O156 C159 1.265 . S
O157 Eu145 2.384 . S
O157 C166 1.255 . S
O158 Tb144 2.366 . S
O158 C166 1.265 1_545 S
C159 O155 1.259 . S
C159 O156 1.265 . S
O160 Eu145 2.479 . S
O160 C175 1.238 . S
O161 Eu145 2.471 . S
O161 C175 1.247 . S
O162 Eu145 2.347 1_545 S
O162 C146 1.259 . S
O163 Tb144 2.418 . S
O163 C146 1.265 . S
O164 Tb144 2.384 . S
O164 C147 1.255 . S
O165 Eu145 2.366 . S
O165 C147 1.265 1_565 S
C166 O157 1.255 . S
C166 O158 1.265 1_565 S
O167 Tb144 2.479 . S
O167 C154 1.238 . S
O168 Tb144 2.471 . S
O168 C154 1.247 . S
C169 C172 1.380 . S
C169 C173 1.374 . S
C169 C175 1.507 . S
C170 C171 1.387 . S
C170 C174 1.391 . S
C171 C170 1.387 . S
C171 C172 1.384 . S
C171 H180 0.930 . S
C172 C169 1.380 . S
C172 C171 1.384 . S
C172 H181 0.931 . S
C173 C169 1.374 . S
C173 C174 1.390 . S
C173 H182 0.930 1_565 S
C174 C170 1.391 . S
C174 C173 1.390 . S
C174 H183 0.930 1_565 S
C175 Eu145 2.825 . S
C175 O160 1.238 . S
C175 O161 1.247 . S
C175 C169 1.507 . S
H176 C149 0.930 . S
H177 C150 0.931 . S
H178 C151 0.930 1_565 S
H179 C152 0.930 1_565 S
H180 C171 0.930 . S
H181 C172 0.931 . S
H182 C173 0.930 1_545 S
H183 C174 0.930 1_545 S
Tb184 C194 2.825 . S
Tb184 O195 2.347 . S
Tb184 O198 2.366 . S
Tb184 O203 2.418 . S
Tb184 O204 2.384 . S
Tb184 O207 2.479 . S
Tb184 O208 2.471 . S
Eu185 O196 2.418 . S
Eu185 O197 2.384 . S
Eu185 O200 2.479 . S
Eu185 O201 2.471 . S
Eu185 O202 2.347 . S
Eu185 O205 2.366 . S
Eu185 C215 2.825 . S
C186 O202 1.259 . S
C186 O203 1.265 . S
C187 O204 1.255 . S
C187 O205 1.265 . S
C188 C190 1.380 . S
C188 C191 1.374 . S
C188 C194 1.507 . S
C189 C190 1.384 . S
C189 C193 1.387 . S
C189 H216 0.930 . S
C190 C188 1.380 . S
C190 C189 1.384 . S
C190 H217 0.931 . S
C191 C188 1.374 . S
C191 C192 1.390 . S
C191 H218 0.930 . S
C192 C191 1.390 . S
C192 C193 1.391 . S
C192 H219 0.930 . S
C193 C189 1.387 . S
C193 C192 1.391 . S
C194 Tb184 2.825 . S
C194 C188 1.507 . S
C194 O207 1.238 . S
C194 O208 1.247 . S
O195 Tb184 2.347 . S
O195 C199 1.259 . S
O196 Eu185 2.418 . S
O196 C199 1.265 . S
O197 Eu185 2.384 . S
O197 C206 1.255 . S
O198 Tb184 2.366 . S
O198 C206 1.265 . S
C199 O195 1.259 . S
C199 O196 1.265 . S
O200 Eu185 2.479 . S
O200 C215 1.238 . S
O201 Eu185 2.471 . S
O201 C215 1.247 . S
O202 Eu185 2.347 . S
O202 C186 1.259 . S
O203 Tb184 2.418 . S
O203 C186 1.265 . S
O204 Tb184 2.384 . S
O204 C187 1.255 . S
O205 Eu185 2.366 . S
O205 C187 1.265 . S
C206 O197 1.255 . S
C206 O198 1.265 . S
O207 Tb184 2.479 . S
O207 C194 1.238 . S
O208 Tb184 2.471 . S
O208 C194 1.247 . S
C209 C212 1.380 . S
C209 C213 1.374 . S
C209 C215 1.507 . S
C210 C211 1.387 . S
C210 C214 1.391 . S
C211 C210 1.387 . S
C211 C212 1.384 . S
C211 H220 0.930 . S
C212 C209 1.380 . S
C212 C211 1.384 . S
C212 H221 0.931 . S
C213 C209 1.374 . S
C213 C214 1.390 . S
C213 H222 0.930 . S
C214 C210 1.391 . S
C214 C213 1.390 . S
C214 H223 0.930 . S
C215 Eu185 2.825 . S
C215 O200 1.238 . S
C215 O201 1.247 . S
C215 C209 1.507 . S
H216 C189 0.930 . S
H217 C190 0.931 . S
H218 C191 0.930 . S
H219 C192 0.930 . S
H220 C211 0.930 . S
H221 C212 0.931 . S
H222 C213 0.930 . S
H223 C214 0.930 . S
Tb224 C234 2.825 . S
Tb224 O235 2.347 . S
Tb224 O238 2.366 . S
Tb224 O243 2.418 . S
Tb224 O244 2.384 1_655 S
Tb224 O247 2.479 . S
Tb224 O248 2.471 . S
Eu225 O236 2.418 . S
Eu225 O237 2.384 1_455 S
Eu225 O240 2.479 . S
Eu225 O241 2.471 . S
Eu225 O242 2.347 . S
Eu225 O245 2.366 . S
Eu225 C255 2.825 . S
C226 O242 1.259 1_655 S
C226 O243 1.265 . S
C227 O244 1.255 . S
C227 O245 1.265 . S
C228 C230 1.380 . S
C228 C231 1.374 . S
C228 C234 1.507 . S
C229 C230 1.384 . S
C229 C233 1.387 . S
C229 H256 0.930 . S
C230 C228 1.380 . S
C230 C229 1.384 . S
C230 H257 0.931 . S
C231 C228 1.374 . S
C231 C232 1.390 . S
C231 H258 0.930 . S
C232 C231 1.390 . S
C232 C233 1.391 . S
C232 H259 0.930 . S
C233 C229 1.387 . S
C233 C232 1.391 . S
C234 Tb224 2.825 . S
C234 C228 1.507 . S
C234 O247 1.238 . S
C234 O248 1.247 . S
O235 Tb224 2.347 . S
O235 C239 1.259 1_655 S
O236 Eu225 2.418 . S
O236 C239 1.265 . S
O237 Eu225 2.384 1_655 S
O237 C246 1.255 . S
O238 Tb224 2.366 . S
O238 C246 1.265 . S
C239 O235 1.259 1_455 S
C239 O236 1.265 . S
O240 Eu225 2.479 . S
O240 C255 1.238 . S
O241 Eu225 2.471 . S
O241 C255 1.247 . S
O242 Eu225 2.347 . S
O242 C226 1.259 1_455 S
O243 Tb224 2.418 . S
O243 C226 1.265 . S
O244 Tb224 2.384 1_455 S
O244 C227 1.255 . S
O245 Eu225 2.366 . S
O245 C227 1.265 . S
C246 O237 1.255 . S
C246 O238 1.265 . S
O247 Tb224 2.479 . S
O247 C234 1.238 . S
O248 Tb224 2.471 . S
O248 C234 1.247 . S
C249 C252 1.380 . S
C249 C253 1.374 . S
C249 C255 1.507 . S
C250 C251 1.387 . S
C250 C254 1.391 . S
C251 C250 1.387 . S
C251 C252 1.384 . S
C251 H260 0.930 . S
C252 C249 1.380 . S
C252 C251 1.384 . S
C252 H261 0.931 . S
C253 C249 1.374 . S
C253 C254 1.390 . S
C253 H262 0.930 . S
C254 C250 1.391 . S
C254 C253 1.390 . S
C254 H263 0.930 . S
C255 Eu225 2.825 . S
C255 O240 1.238 . S
C255 O241 1.247 . S
C255 C249 1.507 . S
H256 C229 0.930 . S
H257 C230 0.931 . S
H258 C231 0.930 . S
H259 C232 0.930 . S
H260 C251 0.930 . S
H261 C252 0.931 . S
H262 C253 0.930 . S
H263 C254 0.930 . S
H264 C272 0.929 . S
H265 C274 0.930 . S
H266 C276 0.930 . S
H267 C279 0.929 . S
H268 C282 0.930 . S
H269 C284 0.960 . S
H270 C284 0.960 . S
H271 C284 0.960 . S
C272 H264 0.929 . S
C272 C273 1.392 . S
C272 C274 1.384 . S
C273 C272 1.392 . S
C273 C279 1.375 1_545 S
C274 H265 0.930 . S
C274 C272 1.384 . S
C274 C275 1.372 . S
C275 C274 1.372 . S
C275 C276 1.400 1_545 S
C275 C280 1.490 . S
C276 H266 0.930 . S
C276 C275 1.400 1_565 S
C276 C279 1.386 . S
H277 C293 0.930 . S
H278 C294 0.931 . S
C279 H267 0.929 . S
C279 C273 1.375 1_565 S
C279 C276 1.386 . S
C280 C275 1.490 . S
C280 C282 1.395 . S
C280 C283 1.403 1_545 S
H281 C287 0.930 . S
C282 H268 0.930 . S
C282 C280 1.395 . S
C282 C285 1.403 . S
C283 C280 1.403 1_565 S
C283 C284 1.524 . S
C283 C287 1.400 . S
C284 H269 0.960 . S
C284 H270 0.960 . S
C284 H271 0.960 . S
C284 C283 1.524 . S
C285 C282 1.403 . S
C285 C286 1.392 . S
C285 C289 1.495 . S
C286 C285 1.392 . S
C286 C287 1.385 1_545 S
C286 C288 1.478 . S
C287 H281 0.930 . S
C287 C283 1.400 . S
C287 C286 1.385 1_565 S
C288 C286 1.478 . S
C288 C290 1.381 . S
C288 C294 1.383 1_545 S
C289 C285 1.495 . S
C289 H295 0.959 . S
C289 H296 0.961 . S
C289 H297 0.960 . S
C290 C288 1.381 . S
C290 C291 1.394 . S
C290 H298 0.930 . S
C291 C290 1.394 . S
C291 C292 1.383 . S
C291 H299 0.929 . S
C292 C291 1.383 . S
C292 C293 1.377 1_545 S
C293 H277 0.930 . S
C293 C292 1.377 1_565 S
C293 C294 1.379 . S
C294 H278 0.931 . S
C294 C288 1.383 1_565 S
C294 C293 1.379 . S
H295 C289 0.959 . S
H296 C289 0.961 . S
H297 C289 0.960 . S
H298 C290 0.930 . S
H299 C291 0.929 . S
H300 C308 0.929 . S
H301 C310 0.930 . S
H302 C312 0.930 . S
H303 C315 0.929 . S
H304 C318 0.930 . S
H305 C320 0.960 . S
H306 C320 0.960 . S
H307 C320 0.960 . S
C308 H300 0.929 . S
C308 C309 1.377 . S
C308 C310 1.384 . S
C309 C308 1.377 . S
C309 C315 1.390 . S
C310 H301 0.930 . S
C310 C308 1.384 . S
C310 C311 1.372 . S
C311 C310 1.372 . S
C311 C312 1.400 . S
C311 C316 1.490 . S
C312 H302 0.930 . S
C312 C311 1.400 . S
C312 C315 1.386 . S
H313 C329 0.930 . S
H314 C330 0.931 . S
C315 H303 0.929 . S
C315 C309 1.390 . S
C315 C312 1.386 . S
C316 C311 1.490 . S
C316 C318 1.395 . S
C316 C319 1.403 . S
H317 C323 0.930 . S
C318 H304 0.930 . S
C318 C316 1.395 . S
C318 C321 1.403 . S
C319 C316 1.403 . S
C319 C320 1.524 . S
C319 C323 1.400 . S
C320 H305 0.960 . S
C320 H306 0.960 . S
C320 H307 0.960 . S
C320 C319 1.524 . S
C321 C318 1.403 . S
C321 C322 1.392 . S
C321 C325 1.495 . S
C322 C321 1.392 . S
C322 C323 1.385 . S
C322 C324 1.478 . S
C323 H317 0.930 . S
C323 C319 1.400 . S
C323 C322 1.385 . S
C324 C322 1.478 . S
C324 C326 1.381 . S
C324 C330 1.383 . S
C325 C321 1.495 . S
C325 H331 0.959 . S
C325 H332 0.961 . S
C325 H333 0.960 . S
C326 C324 1.381 . S
C326 C327 1.394 . S
C326 H334 0.930 . S
C327 C326 1.394 . S
C327 C328 1.383 . S
C327 H335 0.929 . S
C328 C327 1.383 . S
C328 C329 1.377 . S
C329 H313 0.930 . S
C329 C328 1.377 . S
C329 C330 1.379 . S
C330 H314 0.931 . S
C330 C324 1.383 . S
C330 C329 1.379 . S
H331 C325 0.959 . S
H332 C325 0.961 . S
H333 C325 0.960 . S
H334 C326 0.930 . S
H335 C327 0.929 . S
H336 C344 0.929 . S
H337 C346 0.930 . S
H338 C348 0.930 . S
H339 C351 0.929 . S
H340 C354 0.930 . S
H341 C356 0.960 . S
H342 C356 0.960 . S
H343 C356 0.960 . S
C344 H336 0.929 . S
C344 C345 1.377 . S
C344 C346 1.384 . S
C345 C344 1.377 . S
C345 C351 1.390 . S
C346 H337 0.930 . S
C346 C344 1.384 . S
C346 C347 1.372 . S
C347 C346 1.372 . S
C347 C348 1.400 . S
C347 C352 1.490 . S
C348 H338 0.930 . S
C348 C347 1.400 . S
C348 C351 1.386 . S
H349 C365 0.930 . S
H350 C366 0.931 . S
C351 H339 0.929 . S
C351 C345 1.390 . S
C351 C348 1.386 . S
C352 C347 1.490 . S
C352 C354 1.395 . S
C352 C355 1.403 . S
H353 C359 0.930 . S
C354 H340 0.930 . S
C354 C352 1.395 . S
C354 C357 1.403 . S
C355 C352 1.403 . S
C355 C356 1.524 . S
C355 C359 1.400 . S
C356 H341 0.960 . S
C356 H342 0.960 . S
C356 H343 0.960 . S
C356 C355 1.524 . S
C357 C354 1.403 . S
C357 C358 1.392 . S
C357 C361 1.495 . S
C358 C357 1.392 . S
C358 C359 1.385 . S
C358 C360 1.478 . S
C359 H353 0.930 . S
C359 C355 1.400 . S
C359 C358 1.385 . S
C360 C358 1.478 . S
C360 C362 1.381 . S
C360 C366 1.383 . S
C361 C357 1.495 . S
C361 H367 0.959 . S
C361 H368 0.961 . S
C361 H369 0.960 . S
C362 C360 1.381 . S
C362 C363 1.394 . S
C362 H370 0.930 . S
C363 C362 1.394 . S
C363 C364 1.383 . S
C363 H371 0.929 . S
C364 C363 1.383 . S
C364 C365 1.377 . S
C365 H349 0.930 . S
C365 C364 1.377 . S
C365 C366 1.379 . S
C366 H350 0.931 . S
C366 C360 1.383 . S
C366 C365 1.379 . S
H367 C361 0.959 . S
H368 C361 0.961 . S
H369 C361 0.960 . S
H370 C362 0.930 . S
H371 C363 0.929 . S
H372 C380 0.929 . S
H373 C382 0.930 . S
H374 C384 0.930 . S
H375 C387 0.929 . S
H376 C390 0.932 . S
H377 C392 0.960 . S
H378 C392 0.960 . S
H379 C392 0.960 1_455 S
C380 H372 0.929 . S
C380 C381 1.380 . S
C380 C382 1.384 . S
C381 C380 1.380 . S
C381 C387 1.388 1_655 S
C382 H373 0.930 . S
C382 C380 1.384 . S
C382 C383 1.405 . S
C383 C382 1.405 . S
C383 C384 1.367 1_655 S
C383 C388 1.490 . S
C384 H374 0.930 . S
C384 C383 1.367 1_455 S
C384 C387 1.386 . S
H385 C401 0.930 . S
H386 C402 0.931 . S
C387 H375 0.929 . S
C387 C381 1.388 1_455 S
C387 C384 1.386 . S
C388 C383 1.490 . S
C388 C390 1.395 . S
C388 C391 1.403 . S
H389 C395 0.930 1_455 S
C390 H376 0.932 . S
C390 C388 1.395 . S
C390 C393 1.403 . S
C391 C388 1.403 . S
C391 C392 1.526 . S
C391 C395 1.399 . S
C392 H377 0.960 . S
C392 H378 0.960 . S
C392 H379 0.960 1_655 S
C392 C391 1.526 . S
C393 C390 1.403 . S
C393 C394 1.392 . S
C393 C397 1.495 . S
C394 C393 1.392 . S
C394 C395 1.385 . S
C394 C396 1.477 1_655 S
C395 H389 0.930 1_655 S
C395 C391 1.399 . S
C395 C394 1.385 . S
C396 C394 1.477 1_455 S
C396 C398 1.358 1_455 S
C396 C402 1.406 . S
C397 C393 1.495 . S
C397 H403 0.959 . S
C397 H404 0.955 1_655 S
C397 H405 0.966 . S
C398 C396 1.358 1_655 S
C398 C399 1.394 . S
C398 H406 0.930 . S
C399 C398 1.394 . S
C399 C400 1.341 1_655 S
C399 H407 0.929 . S
C400 C399 1.341 1_455 S
C400 C401 1.419 . S
C401 H385 0.930 . S
C401 C400 1.419 . S
C401 C402 1.379 . S
C402 H386 0.931 . S
C402 C396 1.406 . S
C402 C401 1.379 . S
H403 C397 0.959 . S
H404 C397 0.955 1_455 S
H405 C397 0.966 . S
H406 C398 0.930 . S
H407 C399 0.929 . S
H408 C416 0.929 . S
H409 C418 0.930 . S
H410 C420 0.930 . S
H411 C423 0.929 . S
H412 C426 0.930 . S
H413 C428 0.960 . S
H414 C428 0.960 . S
H415 C428 0.960 . S
C416 H408 0.929 . S
C416 C417 1.379 . S
C416 C418 1.384 . S
C417 C416 1.379 . S
C417 C423 1.389 1_565 S
C418 H409 0.930 . S
C418 C416 1.384 . S
C418 C419 1.372 . S
C419 C418 1.372 . S
C419 C420 1.400 1_565 S
C419 C424 1.490 . S
C420 H410 0.930 . S
C420 C419 1.400 1_545 S
C420 C423 1.386 . S
H421 C437 0.930 . S
H422 C438 0.931 . S
C423 H411 0.929 . S
C423 C417 1.389 1_545 S
C423 C420 1.386 . S
C424 C419 1.490 . S
C424 C426 1.395 . S
C424 C427 1.403 1_565 S
H425 C431 0.930 . S
C426 H412 0.930 . S
C426 C424 1.395 . S
C426 C429 1.403 1_554 S
C427 C424 1.403 1_545 S
C427 C428 1.524 . S
C427 C431 1.400 . S
C428 H413 0.960 . S
C428 H414 0.960 . S
C428 H415 0.960 . S
C428 C427 1.524 . S
C429 C426 1.403 1_556 S
C429 C430 1.392 . S
C429 C433 1.495 . S
C430 C429 1.392 . S
C430 C431 1.385 1_566 S
C430 C432 1.478 . S
C431 H425 0.930 . S
C431 C427 1.400 . S
C431 C430 1.385 1_544 S
C432 C430 1.478 . S
C432 C434 1.381 . S
C432 C438 1.383 1_565 S
C433 C429 1.495 . S
C433 H439 0.959 . S
C433 H440 0.961 . S
C433 H441 0.960 . S
C434 C432 1.381 . S
C434 C435 1.394 . S
C434 H442 0.930 . S
C435 C434 1.394 . S
C435 C436 1.383 . S
C435 H443 0.929 . S
C436 C435 1.383 . S
C436 C437 1.377 1_565 S
C437 H421 0.930 . S
C437 C436 1.377 1_545 S
C437 C438 1.379 . S
C438 H422 0.931 . S
C438 C432 1.383 1_545 S
C438 C437 1.379 . S
H439 C433 0.959 . S
H440 C433 0.961 . S
H441 C433 0.960 . S
H442 C434 0.930 . S
H443 C435 0.929 . S
H444 C452 0.929 . S
H445 C454 0.930 . S
H446 C456 0.930 . S
H447 C459 0.929 . S
H448 C462 0.930 . S
H449 C464 0.960 . S
H450 C464 0.960 1_554 S
H451 C464 0.960 1_554 S
C452 H444 0.929 . S
C452 C453 1.377 . S
C452 C454 1.384 . S
C453 C452 1.377 . S
C453 C459 1.390 . S
C454 H445 0.930 . S
C454 C452 1.384 . S
C454 C455 1.372 . S
C455 C454 1.372 . S
C455 C456 1.400 . S
C455 C460 1.490 . S
C456 H446 0.930 . S
C456 C455 1.400 . S
C456 C459 1.386 . S
H457 C473 0.930 . S
H458 C474 0.931 . S
C459 H447 0.929 . S
C459 C453 1.390 . S
C459 C456 1.386 . S
C460 C455 1.490 . S
C460 C462 1.395 . S
C460 C463 1.403 . S
H461 C467 0.930 . S
C462 H448 0.930 . S
C462 C460 1.395 . S
C462 C465 1.403 . S
C463 C460 1.403 . S
C463 C464 1.524 1_554 S
C463 C467 1.400 1_554 S
C464 H449 0.960 . S
C464 H450 0.960 1_556 S
C464 H451 0.960 1_556 S
C464 C463 1.524 1_556 S
C465 C462 1.403 . S
C465 C466 1.392 . S
C465 C469 1.495 . S
C466 C465 1.392 . S
C466 C467 1.385 1_554 S
C466 C468 1.478 1_554 S
C467 H461 0.930 . S
C467 C463 1.400 1_556 S
C467 C466 1.385 1_556 S
C468 C466 1.478 1_556 S
C468 C470 1.381 . S
C468 C474 1.383 . S
C469 C465 1.495 . S
C469 H475 0.959 . S
C469 H476 0.961 . S
C469 H477 0.960 . S
C470 C468 1.381 . S
C470 C471 1.394 . S
C470 H478 0.930 . S
C471 C470 1.394 . S
C471 C472 1.383 . S
C471 H479 0.929 . S
C472 C471 1.383 . S
C472 C473 1.377 . S
C473 H457 0.930 . S
C473 C472 1.377 . S
C473 C474 1.379 . S
C474 H458 0.931 . S
C474 C468 1.383 . S
C474 C473 1.379 . S
H475 C469 0.959 . S
H476 C469 0.961 . S
H477 C469 0.960 . S
H478 C470 0.930 . S
H479 C471 0.929 . S
H480 C488 0.929 . S
H481 C490 0.930 . S
H482 C492 0.930 . S
H483 C495 0.929 . S
H484 C498 0.930 . S
H485 C500 0.960 . S
H486 C500 0.960 . S
H487 C500 0.960 . S
C488 H480 0.929 . S
C488 C489 1.377 . S
C488 C490 1.384 . S
C489 C488 1.377 . S
C489 C495 1.390 . S
C490 H481 0.930 . S
C490 C488 1.384 . S
C490 C491 1.372 . S
C491 C490 1.372 . S
C491 C492 1.400 . S
C491 C496 1.490 . S
C492 H482 0.930 . S
C492 C491 1.400 . S
C492 C495 1.386 . S
H493 C509 0.930 . S
H494 C510 0.931 . S
C495 H483 0.929 . S
C495 C489 1.390 . S
C495 C492 1.386 . S
C496 C491 1.490 . S
C496 C498 1.395 . S
C496 C499 1.403 . S
H497 C503 0.930 . S
C498 H484 0.930 . S
C498 C496 1.395 . S
C498 C501 1.403 1_554 S
C499 C496 1.403 . S
C499 C500 1.524 . S
C499 C503 1.400 . S
C500 H485 0.960 . S
C500 H486 0.960 . S
C500 H487 0.960 . S
C500 C499 1.524 . S
C501 C498 1.403 1_556 S
C501 C502 1.392 . S
C501 C505 1.495 . S
C502 C501 1.392 . S
C502 C503 1.385 1_556 S
C502 C504 1.478 . S
C503 H497 0.930 . S
C503 C499 1.400 . S
C503 C502 1.385 1_554 S
C504 C502 1.478 . S
C504 C506 1.381 . S
C504 C510 1.383 . S
C505 C501 1.495 . S
C505 H511 0.959 . S
C505 H512 0.961 . S
C505 H513 0.960 . S
C506 C504 1.381 . S
C506 C507 1.394 . S
C506 H514 0.930 . S
C507 C506 1.394 . S
C507 C508 1.383 . S
C507 H515 0.929 . S
C508 C507 1.383 . S
C508 C509 1.377 . S
C509 H493 0.930 . S
C509 C508 1.377 . S
C509 C510 1.379 . S
C510 H494 0.931 . S
C510 C504 1.383 . S
C510 C509 1.379 . S
H511 C505 0.959 . S
H512 C505 0.961 . S
H513 C505 0.960 . S
H514 C506 0.930 . S
H515 C507 0.929 . S
H516 C524 0.929 . S
H517 C526 0.930 . S
H518 C528 0.930 . S
H519 C531 0.929 . S
H520 C534 0.930 . S
H521 C536 0.960 . S
H522 C536 0.960 1_454 S
H523 C536 0.960 1_554 S
C524 H516 0.929 . S
C524 C525 1.378 . S
C524 C526 1.384 . S
C525 C524 1.378 . S
C525 C531 1.389 1_455 S
C526 H517 0.930 . S
C526 C524 1.384 . S
C526 C527 1.408 . S
C527 C526 1.408 . S
C527 C528 1.363 1_455 S
C527 C532 1.490 . S
C528 H518 0.930 . S
C528 C527 1.363 1_655 S
C528 C531 1.386 . S
H529 C545 0.930 . S
H530 C546 0.931 . S
C531 H519 0.929 . S
C531 C525 1.389 1_655 S
C531 C528 1.386 . S
C532 C527 1.490 . S
C532 C534 1.400 . S
C532 C535 1.399 1_455 S
H533 C539 0.930 . S
C534 H520 0.930 . S
C534 C532 1.400 . S
C534 C537 1.403 . S
C535 C532 1.399 1_655 S
C535 C536 1.524 1_554 S
C535 C539 1.400 1_554 S
C536 H521 0.960 . S
C536 H522 0.960 1_656 S
C536 H523 0.960 1_556 S
C536 C535 1.524 1_556 S
C537 C534 1.403 . S
C537 C538 1.396 . S
C537 C541 1.495 . S
C538 C537 1.396 . S
C538 C539 1.382 1_454 S
C538 C540 1.477 1_454 S
C539 H533 0.930 . S
C539 C535 1.400 1_556 S
C539 C538 1.382 1_656 S
C540 C538 1.477 1_656 S
C540 C542 1.384 1_655 S
C540 C546 1.380 . S
C541 C537 1.495 . S
C541 H547 0.959 . S
C541 H548 0.961 1_455 S
C541 H549 0.960 . S
C542 C540 1.384 1_455 S
C542 C543 1.394 . S
C542 H550 0.930 . S
C543 C542 1.394 . S
C543 C544 1.350 1_455 S
C543 H551 0.929 . S
C544 C543 1.350 1_655 S
C544 C545 1.410 . S
C545 H529 0.930 . S
C545 C544 1.410 . S
C545 C546 1.379 . S
C546 H530 0.931 . S
C546 C540 1.380 . S
C546 C545 1.379 . S
H547 C541 0.959 . S
H548 C541 0.961 1_655 S
H549 C541 0.960 . S
H550 C542 0.930 . S
H551 C543 0.929 . S
H552 C560 0.929 . S
H553 C562 0.930 . S
H554 C564 0.930 . S
H555 C567 0.929 . S
H556 C570 0.930 . S
H557 C572 0.960 . S
H558 C572 0.949 1_655 S
H559 C572 0.960 . S
C560 H552 0.929 . S
C560 C561 1.333 1_655 S
C560 C562 1.384 . S
C561 C560 1.333 1_455 S
C561 C567 1.427 . S
C562 H553 0.930 . S
C562 C560 1.384 . S
C562 C563 1.372 . S
C563 C562 1.372 . S
C563 C564 1.400 1_655 S
C563 C568 1.490 . S
C564 H554 0.930 . S
C564 C563 1.400 1_455 S
C564 C567 1.386 . S
H565 C581 0.930 1_455 S
H566 C582 0.931 1_455 S
C567 H555 0.929 . S
C567 C561 1.427 . S
C567 C564 1.386 . S
C568 C563 1.490 . S
C568 C570 1.395 . S
C568 C571 1.403 . S
H569 C575 0.946 . S
C570 H556 0.930 . S
C570 C568 1.395 . S
C570 C573 1.403 . S
C571 C568 1.403 . S
C571 C572 1.524 1_655 S
C571 C575 1.400 . S
C572 H557 0.960 . S
C572 H558 0.949 1_455 S
C572 H559 0.960 . S
C572 C571 1.524 1_455 S
C573 C570 1.403 . S
C573 C574 1.392 . S
C573 C577 1.495 . S
C574 C573 1.392 . S
C574 C575 1.385 . S
C574 C576 1.478 . S
C575 H569 0.946 . S
C575 C571 1.400 . S
C575 C574 1.385 . S
C576 C574 1.478 . S
C576 C578 1.381 . S
C576 C582 1.383 . S
C577 C573 1.495 . S
C577 H583 0.959 . S
C577 H584 0.961 . S
C577 H585 0.960 . S
C578 C576 1.381 . S
C578 C579 1.394 . S
C578 H586 0.930 . S
C579 C578 1.394 . S
C579 C580 1.383 . S
C579 H587 0.929 . S
C580 C579 1.383 . S
C580 C581 1.377 . S
C581 H565 0.930 1_655 S
C581 C580 1.377 . S
C581 C582 1.379 . S
C582 H566 0.931 1_655 S
C582 C576 1.383 . S
C582 C581 1.379 . S
H583 C577 0.959 . S
H584 C577 0.961 . S
H585 C577 0.960 . S
H586 C578 0.930 . S
H587 C579 0.929 . S
H588 C596 0.929 . S
H589 C598 0.930 . S
H590 C600 0.930 . S
H591 C603 0.929 . S
H592 C606 0.930 . S
H593 C608 0.960 . S
H594 C608 0.960 . S
H595 C608 0.960 . S
C596 H588 0.929 . S
C596 C597 1.335 1_565 S
C596 C598 1.384 . S
C597 C596 1.335 1_545 S
C597 C603 1.425 . S
C598 H589 0.930 . S
C598 C596 1.384 . S
C598 C599 1.372 . S
C599 C598 1.372 . S
C599 C600 1.400 1_565 S
C599 C604 1.490 . S
C600 H590 0.930 . S
C600 C599 1.400 1_545 S
C600 C603 1.386 . S
H601 C617 0.930 . S
H602 C618 0.935 1_545 S
C603 H591 0.929 . S
C603 C597 1.425 . S
C603 C600 1.386 . S
C604 C599 1.490 . S
C604 C606 1.395 . S
C604 C607 1.403 1_565 S
H605 C611 0.930 . S
C606 H592 0.930 . S
C606 C604 1.395 . S
C606 C609 1.403 . S
C607 C604 1.403 1_545 S
C607 C608 1.524 . S
C607 C611 1.400 . S
C608 H593 0.960 . S
C608 H594 0.960 . S
C608 H595 0.960 . S
C608 C607 1.524 . S
C609 C606 1.403 . S
C609 C610 1.392 . S
C609 C613 1.495 . S
C610 C609 1.392 . S
C610 C611 1.385 1_565 S
C610 C612 1.478 . S
C611 H605 0.930 . S
C611 C607 1.400 . S
C611 C610 1.385 1_545 S
C612 C610 1.478 . S
C612 C614 1.381 . S
C612 C618 1.383 . S
C613 C609 1.495 . S
C613 H619 0.959 . S
C613 H620 0.961 . S
C613 H621 0.960 . S
C614 C612 1.381 . S
C614 C615 1.394 . S
C614 H622 0.930 . S
C615 C614 1.394 . S
C615 C616 1.383 . S
C615 H623 0.929 . S
C616 C615 1.383 . S
C616 C617 1.377 . S
C617 H601 0.930 . S
C617 C616 1.377 . S
C617 C618 1.379 . S
C618 H602 0.935 1_565 S
C618 C612 1.383 . S
C618 C617 1.379 . S
H619 C613 0.959 . S
H620 C613 0.961 . S
H621 C613 0.960 . S
H622 C614 0.930 . S
H623 C615 0.929 . S
H624 C632 0.929 . S
H625 C634 0.930 . S
H626 C636 0.930 . S
H627 C639 0.929 . S
H628 C642 0.930 . S
H629 C644 0.960 . S
H630 C644 0.960 . S
H631 C644 0.960 . S
C632 H624 0.929 . S
C632 C633 1.377 . S
C632 C634 1.384 . S
C633 C632 1.377 . S
C633 C639 1.390 . S
C634 H625 0.930 . S
C634 C632 1.384 . S
C634 C635 1.372 . S
C635 C634 1.372 . S
C635 C636 1.400 . S
C635 C640 1.490 . S
C636 H626 0.930 . S
C636 C635 1.400 . S
C636 C639 1.386 . S
H637 C653 0.930 . S
H638 C654 0.931 . S
C639 H627 0.929 . S
C639 C633 1.390 . S
C639 C636 1.386 . S
C640 C635 1.490 . S
C640 C642 1.395 . S
C640 C643 1.403 . S
H641 C647 0.930 . S
C642 H628 0.930 . S
C642 C640 1.395 . S
C642 C645 1.403 . S
C643 C640 1.403 . S
C643 C644 1.524 . S
C643 C647 1.400 . S
C644 H629 0.960 . S
C644 H630 0.960 . S
C644 H631 0.960 . S
C644 C643 1.524 . S
C645 C642 1.403 . S
C645 C646 1.392 . S
C645 C649 1.495 . S
C646 C645 1.392 . S
C646 C647 1.385 . S
C646 C648 1.478 . S
C647 H641 0.930 . S
C647 C643 1.400 . S
C647 C646 1.385 . S
C648 C646 1.478 . S
C648 C650 1.381 . S
C648 C654 1.383 . S
C649 C645 1.495 . S
C649 H655 0.959 . S
C649 H656 0.961 . S
C649 H657 0.960 . S
C650 C648 1.381 . S
C650 C651 1.394 . S
C650 H658 0.930 . S
C651 C650 1.394 . S
C651 C652 1.383 . S
C651 H659 0.929 . S
C652 C651 1.383 . S
C652 C653 1.377 . S
C653 H637 0.930 . S
C653 C652 1.377 . S
C653 C654 1.379 . S
C654 H638 0.931 . S
C654 C648 1.383 . S
C654 C653 1.379 . S
H655 C649 0.959 . S
H656 C649 0.961 . S
H657 C649 0.960 . S
H658 C650 0.930 . S
H659 C651 0.929 . S
H660 C668 0.929 . S
H661 C670 0.930 . S
H662 C672 0.930 . S
H663 C675 0.929 . S
H664 C678 0.930 . S
H665 C680 0.960 . S
H666 C680 0.960 . S
H667 C680 0.960 . S
C668 H660 0.929 . S
C668 C669 1.377 . S
C668 C670 1.384 . S
C669 C668 1.377 . S
C669 C675 1.390 . S
C670 H661 0.930 . S
C670 C668 1.384 . S
C670 C671 1.372 . S
C671 C670 1.372 . S
C671 C672 1.400 . S
C671 C676 1.490 . S
C672 H662 0.930 . S
C672 C671 1.400 . S
C672 C675 1.386 . S
H673 C689 0.930 . S
H674 C690 0.931 . S
C675 H663 0.929 . S
C675 C669 1.390 . S
C675 C672 1.386 . S
C676 C671 1.490 . S
C676 C678 1.395 . S
C676 C679 1.403 . S
H677 C683 0.930 . S
C678 H664 0.930 . S
C678 C676 1.395 . S
C678 C681 1.403 . S
C679 C676 1.403 . S
C679 C680 1.524 . S
C679 C683 1.400 . S
C680 H665 0.960 . S
C680 H666 0.960 . S
C680 H667 0.960 . S
C680 C679 1.524 . S
C681 C678 1.403 . S
C681 C682 1.392 . S
C681 C685 1.495 . S
C682 C681 1.392 . S
C682 C683 1.385 . S
C682 C684 1.478 . S
C683 H677 0.930 . S
C683 C679 1.400 . S
C683 C682 1.385 . S
C684 C682 1.478 . S
C684 C686 1.381 . S
C684 C690 1.383 . S
C685 C681 1.495 . S
C685 H691 0.959 . S
C685 H692 0.961 . S
C685 H693 0.960 . S
C686 C684 1.381 . S
C686 C687 1.394 . S
C686 H694 0.930 . S
C687 C686 1.394 . S
C687 C688 1.383 . S
C687 H695 0.929 . S
C688 C687 1.383 . S
C688 C689 1.377 . S
C689 H673 0.930 . S
C689 C688 1.377 . S
C689 C690 1.379 . S
C690 H674 0.931 . S
C690 C684 1.383 . S
C690 C689 1.379 . S
H691 C685 0.959 . S
H692 C685 0.961 . S
H693 C685 0.960 . S
H694 C686 0.930 . S
H695 C687 0.929 . S
H696 C704 0.929 . S
H697 C706 0.930 . S
H698 C708 0.930 . S
H699 C711 0.929 . S
H700 C714 0.930 . S
H701 C716 0.960 . S
H702 C716 0.960 . S
H703 C716 0.960 1_655 S
C704 H696 0.929 . S
C704 C705 1.342 1_455 S
C704 C706 1.384 . S
C705 C704 1.342 1_655 S
C705 C711 1.419 . S
C706 H697 0.930 . S
C706 C704 1.384 . S
C706 C707 1.372 . S
C707 C706 1.372 . S
C707 C708 1.400 1_455 S
C707 C712 1.490 . S
C708 H698 0.930 . S
C708 C707 1.400 1_655 S
C708 C711 1.386 . S
H709 C725 0.930 1_655 S
H710 C726 0.931 1_655 S
C711 H699 0.929 . S
C711 C705 1.419 . S
C711 C708 1.386 . S
C712 C707 1.490 . S
C712 C714 1.395 . S
C712 C715 1.403 . S
H713 C719 0.930 . S
C714 H700 0.930 . S
C714 C712 1.395 . S
C714 C717 1.403 . S
C715 C712 1.403 . S
C715 C716 1.524 . S
C715 C719 1.400 . S
C716 H701 0.960 . S
C716 H702 0.960 . S
C716 H703 0.960 1_455 S
C716 C715 1.524 . S
C717 C714 1.403 . S
C717 C718 1.392 . S
C717 C721 1.495 1_554 S
C718 C717 1.392 . S
C718 C719 1.385 . S
C718 C720 1.478 . S
C719 H713 0.930 . S
C719 C715 1.400 . S
C719 C718 1.385 . S
C720 C718 1.478 . S
C720 C722 1.381 . S
C720 C726 1.383 . S
C721 C717 1.495 1_556 S
C721 H727 0.959 . S
C721 H728 0.961 . S
C721 H729 0.960 . S
C722 C720 1.381 . S
C722 C723 1.394 1_554 S
C722 H730 0.930 . S
C723 C722 1.394 1_556 S
C723 C724 1.383 . S
C723 H731 0.929 . S
C724 C723 1.383 . S
C724 C725 1.377 1_556 S
C725 H709 0.930 1_455 S
C725 C724 1.377 1_554 S
C725 C726 1.379 . S
C726 H710 0.931 1_455 S
C726 C720 1.383 . S
C726 C725 1.379 . S
H727 C721 0.959 . S
H728 C721 0.961 . S
H729 C721 0.960 . S
H730 C722 0.930 . S
H731 C723 0.929 . S
H732 C740 0.929 . S
H733 C742 0.930 . S
H734 C744 0.930 . S
H735 C747 0.929 . S
H736 C750 0.930 . S
H737 C752 0.960 . S
H738 C752 0.960 . S
H739 C752 0.960 . S
C740 H732 0.929 . S
C740 C741 1.377 . S
C740 C742 1.384 . S
C741 C740 1.377 . S
C741 C747 1.390 1_565 S
C742 H733 0.930 . S
C742 C740 1.384 . S
C742 C743 1.372 1_565 S
C743 C742 1.372 1_545 S
C743 C744 1.400 . S
C743 C748 1.490 . S
C744 H734 0.930 . S
C744 C743 1.400 . S
C744 C747 1.386 . S
H745 C761 0.930 . S
H746 C762 0.931 . S
C747 H735 0.929 . S
C747 C741 1.390 1_545 S
C747 C744 1.386 . S
C748 C743 1.490 . S
C748 C750 1.395 . S
C748 C751 1.403 1_545 S
H749 C755 0.930 1_565 S
C750 H736 0.930 . S
C750 C748 1.395 . S
C750 C753 1.403 . S
C751 C748 1.403 1_565 S
C751 C752 1.524 . S
C751 C755 1.400 1_565 S
C752 H737 0.960 . S
C752 H738 0.960 . S
C752 H739 0.960 . S
C752 C751 1.524 . S
C753 C750 1.403 . S
C753 C754 1.392 . S
C753 C757 1.495 . S
C754 C753 1.392 . S
C754 C755 1.385 . S
C754 C756 1.478 . S
C755 H749 0.930 1_545 S
C755 C751 1.400 1_545 S
C755 C754 1.385 . S
C756 C754 1.478 . S
C756 C758 1.381 . S
C756 C762 1.383 1_554 S
C757 C753 1.495 . S
C757 H763 0.959 . S
C757 H764 0.961 . S
C757 H765 0.960 . S
C758 C756 1.381 . S
C758 C759 1.394 . S
C758 H766 0.930 . S
C759 C758 1.394 . S
C759 C760 1.383 1_554 S
C759 H767 0.929 . S
C760 C759 1.383 1_556 S
C760 C761 1.377 . S
C761 H745 0.930 . S
C761 C760 1.377 . S
C761 C762 1.379 . S
C762 H746 0.931 . S
C762 C756 1.383 1_556 S
C762 C761 1.379 . S
H763 C757 0.959 . S
H764 C757 0.961 . S
H765 C757 0.960 . S
H766 C758 0.930 . S
H767 C759 0.929 . S
H768 C776 0.929 . S
H769 C778 0.930 . S
H770 C780 0.930 . S
H771 C783 0.929 . S
H772 C786 0.930 . S
H773 C788 0.960 . S
H774 C788 0.960 . S
H775 C788 0.960 . S
C776 H768 0.929 . S
C776 C777 1.377 . S
C776 C778 1.384 . S
C777 C776 1.377 . S
C777 C783 1.390 . S
C778 H769 0.930 . S
C778 C776 1.384 . S
C778 C779 1.372 . S
C779 C778 1.372 . S
C779 C780 1.400 . S
C779 C784 1.490 . S
C780 H770 0.930 . S
C780 C779 1.400 . S
C780 C783 1.386 . S
H781 C797 0.930 . S
H782 C798 0.930 1_556 S
C783 H771 0.929 . S
C783 C777 1.390 . S
C783 C780 1.386 . S
C784 C779 1.490 . S
C784 C786 1.395 . S
C784 C787 1.403 . S
H785 C791 0.930 . S
C786 H772 0.930 . S
C786 C784 1.395 . S
C786 C789 1.403 . S
C787 C784 1.403 . S
C787 C788 1.524 . S
C787 C791 1.400 . S
C788 H773 0.960 . S
C788 H774 0.960 . S
C788 H775 0.960 . S
C788 C787 1.524 . S
C789 C786 1.403 . S
C789 C790 1.392 . S
C789 C793 1.495 . S
C790 C789 1.392 . S
C790 C791 1.385 . S
C790 C792 1.478 . S
C791 H785 0.930 . S
C791 C787 1.400 . S
C791 C790 1.385 . S
C792 C790 1.478 . S
C792 C794 1.381 . S
C792 C798 1.389 . S
C793 C789 1.495 . S
C793 H799 0.959 . S
C793 H800 0.961 1_554 S
C793 H801 0.960 . S
C794 C792 1.381 . S
C794 C795 1.394 . S
C794 H802 0.930 . S
C795 C794 1.394 . S
C795 C796 1.383 1_554 S
C795 H803 0.929 . S
C796 C795 1.383 1_556 S
C796 C797 1.377 . S
C797 H781 0.930 . S
C797 C796 1.377 . S
C797 C798 1.374 1_556 S
C798 H782 0.930 1_554 S
C798 C792 1.389 . S
C798 C797 1.374 1_554 S
H799 C793 0.959 . S
H800 C793 0.961 1_556 S
H801 C793 0.960 . S
H802 C794 0.930 . S
H803 C795 0.929 . S
H804 C812 0.929 . S
H805 C814 0.930 . S
H806 C816 0.930 . S
H807 C819 0.929 . S
H808 C822 0.930 . S
H809 C824 0.960 . S
H810 C824 0.960 . S
H811 C824 0.960 . S
C812 H804 0.929 . S
C812 C813 1.377 . S
C812 C814 1.384 . S
C813 C812 1.377 . S
C813 C819 1.390 . S
C814 H805 0.930 . S
C814 C812 1.384 . S
C814 C815 1.372 . S
C815 C814 1.372 . S
C815 C816 1.400 . S
C815 C820 1.490 . S
C816 H806 0.930 . S
C816 C815 1.400 . S
C816 C819 1.386 . S
H817 C833 0.930 . S
H818 C834 0.931 . S
C819 H807 0.929 . S
C819 C813 1.390 . S
C819 C816 1.386 . S
C820 C815 1.490 . S
C820 C822 1.395 . S
C820 C823 1.403 . S
H821 C827 0.930 . S
C822 H808 0.930 . S
C822 C820 1.395 . S
C822 C825 1.403 . S
C823 C820 1.403 . S
C823 C824 1.524 . S
C823 C827 1.400 . S
C824 H809 0.960 . S
C824 H810 0.960 . S
C824 H811 0.960 . S
C824 C823 1.524 . S
C825 C822 1.403 . S
C825 C826 1.392 . S
C825 C829 1.495 1_554 S
C826 C825 1.392 . S
C826 C827 1.385 . S
C826 C828 1.478 . S
C827 H821 0.930 . S
C827 C823 1.400 . S
C827 C826 1.385 . S
C828 C826 1.478 . S
C828 C830 1.381 1_554 S
C828 C834 1.383 . S
C829 C825 1.495 1_556 S
C829 H835 0.959 . S
C829 H836 0.961 . S
C829 H837 0.960 . S
C830 C828 1.381 1_556 S
C830 C831 1.394 . S
C830 H838 0.930 . S
C831 C830 1.394 . S
C831 C832 1.383 . S
C831 H839 0.929 . S
C832 C831 1.383 . S
C832 C833 1.377 1_556 S
C833 H817 0.930 . S
C833 C832 1.377 1_554 S
C833 C834 1.379 . S
C834 H818 0.931 . S
C834 C828 1.383 . S
C834 C833 1.379 . S
H835 C829 0.959 . S
H836 C829 0.961 . S
H837 C829 0.960 . S
H838 C830 0.930 . S
H839 C831 0.929 . S
H840 C848 0.929 . S
H841 C850 0.930 . S
H842 C852 0.930 . S
H843 C855 0.929 . S
H844 C858 0.930 . S
H845 C860 0.960 1_554 S
H846 C860 0.960 . S
H847 C860 0.960 1_554 S
C848 H840 0.929 . S
C848 C849 1.363 1_655 S
C848 C850 1.384 . S
C849 C848 1.363 1_455 S
C849 C855 1.405 . S
C850 H841 0.930 . S
C850 C848 1.384 . S
C850 C851 1.372 1_655 S
C851 C850 1.372 1_455 S
C851 C852 1.400 . S
C851 C856 1.490 . S
C852 H842 0.930 . S
C852 C851 1.400 . S
C852 C855 1.386 . S
H853 C869 0.930 . S
H854 C870 0.931 . S
C855 H843 0.929 . S
C855 C849 1.405 . S
C855 C852 1.386 . S
C856 C851 1.490 . S
C856 C858 1.395 . S
C856 C859 1.403 1_455 S
H857 C863 0.930 . S
C858 H844 0.930 . S
C858 C856 1.395 . S
C858 C861 1.403 . S
C859 C856 1.403 1_655 S
C859 C860 1.524 . S
C859 C863 1.400 . S
C860 H845 0.960 1_556 S
C860 H846 0.960 . S
C860 H847 0.960 1_556 S
C860 C859 1.524 . S
C861 C858 1.403 . S
C861 C862 1.392 . S
C861 C865 1.495 . S
C862 C861 1.392 . S
C862 C863 1.385 1_455 S
C862 C864 1.478 . S
C863 H857 0.930 . S
C863 C859 1.400 . S
C863 C862 1.385 1_655 S
C864 C862 1.478 . S
C864 C866 1.381 1_455 S
C864 C870 1.383 . S
C865 C861 1.495 . S
C865 H871 0.959 . S
C865 H872 0.961 . S
C865 H873 0.960 . S
C866 C864 1.381 1_655 S
C866 C867 1.394 . S
C866 H874 0.930 . S
C867 C866 1.394 . S
C867 C868 1.383 1_655 S
C867 H875 0.929 . S
C868 C867 1.383 1_455 S
C868 C869 1.377 . S
C869 H853 0.930 . S
C869 C868 1.377 . S
C869 C870 1.379 . S
C870 H854 0.931 . S
C870 C864 1.383 . S
C870 C869 1.379 . S
H871 C865 0.959 . S
H872 C865 0.961 . S
H873 C865 0.960 . S
H874 C866 0.930 . S
H875 C867 0.929 . S
H876 C884 0.929 . S
H877 C886 0.930 . S
H878 C888 0.930 . S
H879 C891 0.929 . S
H880 C894 0.930 . S
H881 C896 0.960 . S
H882 C896 0.960 . S
H883 C896 0.960 1_565 S
C884 H876 0.929 . S
C884 C885 1.377 . S
C884 C886 1.384 . S
C885 C884 1.377 . S
C885 C891 1.390 1_545 S
C886 H877 0.930 . S
C886 C884 1.384 . S
C886 C887 1.372 . S
C887 C886 1.372 . S
C887 C888 1.400 1_545 S
C887 C892 1.490 . S
C888 H878 0.930 . S
C888 C887 1.400 1_565 S
C888 C891 1.386 . S
H889 C905 0.930 . S
H890 C906 0.931 . S
C891 H879 0.929 . S
C891 C885 1.390 1_565 S
C891 C888 1.386 . S
C892 C887 1.490 . S
C892 C894 1.395 . S
C892 C895 1.403 . S
H893 C899 0.930 . S
C894 H880 0.930 . S
C894 C892 1.395 . S
C894 C897 1.403 . S
C895 C892 1.403 . S
C895 C896 1.524 . S
C895 C899 1.400 . S
C896 H881 0.960 . S
C896 H882 0.960 . S
C896 H883 0.960 1_545 S
C896 C895 1.524 . S
C897 C894 1.403 . S
C897 C898 1.392 . S
C897 C901 1.495 . S
C898 C897 1.392 . S
C898 C899 1.385 . S
C898 C900 1.478 . S
C899 H893 0.930 . S
C899 C895 1.400 . S
C899 C898 1.385 . S
C900 C898 1.478 . S
C900 C902 1.381 . S
C900 C906 1.383 1_545 S
C901 C897 1.495 . S
C901 H907 0.959 1_556 S
C901 H908 0.961 1_545 S
C901 H909 0.960 . S
C902 C900 1.381 . S
C902 C903 1.394 . S
C902 H910 0.930 . S
C903 C902 1.394 . S
C903 C904 1.383 . S
C903 H911 0.929 . S
C904 C903 1.383 . S
C904 C905 1.377 1_545 S
C905 H889 0.930 . S
C905 C904 1.377 1_565 S
C905 C906 1.379 . S
C906 H890 0.931 . S
C906 C900 1.383 1_565 S
C906 C905 1.379 . S
H907 C901 0.959 1_554 S
H908 C901 0.961 1_565 S
H909 C901 0.960 . S
H910 C902 0.930 . S
H911 C903 0.929 . S
H912 C920 0.929 . S
H913 C922 0.930 . S
H914 C924 0.930 . S
H915 C927 0.929 . S
H916 C930 0.930 . S
H917 C932 0.960 1_554 S
H918 C932 0.960 1_554 S
H919 C932 0.960 . S
C920 H912 0.929 . S
C920 C921 1.377 . S
C920 C922 1.384 . S
C921 C920 1.377 . S
C921 C927 1.390 . S
C922 H913 0.930 . S
C922 C920 1.384 . S
C922 C923 1.372 . S
C923 C922 1.372 . S
C923 C924 1.400 . S
C923 C928 1.490 . S
C924 H914 0.930 . S
C924 C923 1.400 . S
C924 C927 1.386 . S
H925 C941 0.930 . S
H926 C942 0.931 . S
C927 H915 0.929 . S
C927 C921 1.390 . S
C927 C924 1.386 . S
C928 C923 1.490 . S
C928 C930 1.395 . S
C928 C931 1.403 . S
H929 C935 0.930 . S
C930 H916 0.930 . S
C930 C928 1.395 . S
C930 C933 1.403 . S
C931 C928 1.403 . S
C931 C932 1.524 . S
C931 C935 1.400 . S
C932 H917 0.960 1_556 S
C932 H918 0.960 1_556 S
C932 H919 0.960 . S
C932 C931 1.524 . S
C933 C930 1.403 . S
C933 C934 1.392 . S
C933 C937 1.495 . S
C934 C933 1.392 . S
C934 C935 1.385 . S
C934 C936 1.478 . S
C935 H929 0.930 . S
C935 C931 1.400 . S
C935 C934 1.385 . S
C936 C934 1.478 . S
C936 C938 1.381 . S
C936 C942 1.383 . S
C937 C933 1.495 . S
C937 H943 0.959 . S
C937 H944 0.961 . S
C937 H945 0.960 . S
C938 C936 1.381 . S
C938 C939 1.394 . S
C938 H946 0.930 . S
C939 C938 1.394 . S
C939 C940 1.383 . S
C939 H947 0.929 . S
C940 C939 1.383 . S
C940 C941 1.377 . S
C941 H925 0.930 . S
C941 C940 1.377 . S
C941 C942 1.379 . S
C942 H926 0.931 . S
C942 C936 1.383 . S
C942 C941 1.379 . S
H943 C937 0.959 . S
H944 C937 0.961 . S
H945 C937 0.960 . S
H946 C938 0.930 . S
H947 C939 0.929 . S
H948 C956 0.929 . S
H949 C958 0.930 . S
H950 C960 0.930 . S
H951 C963 0.929 1_554 S
H952 C966 0.930 . S
H953 C968 0.956 1_554 S
H954 C968 0.960 . S
H955 C968 0.960 1_554 S
C956 H948 0.929 . S
C956 C957 1.377 . S
C956 C958 1.384 . S
C957 C956 1.377 . S
C957 C963 1.390 . S
C958 H949 0.930 . S
C958 C956 1.384 . S
C958 C959 1.372 . S
C959 C958 1.372 . S
C959 C960 1.400 . S
C959 C964 1.490 . S
C960 H950 0.930 . S
C960 C959 1.400 . S
C960 C963 1.386 . S
H961 C977 0.930 . S
H962 C978 0.931 . S
C963 H951 0.929 1_556 S
C963 C957 1.390 . S
C963 C960 1.386 . S
C964 C959 1.490 . S
C964 C966 1.395 . S
C964 C967 1.403 . S
H965 C971 0.930 . S
C966 H952 0.930 . S
C966 C964 1.395 . S
C966 C969 1.403 . S
C967 C964 1.403 . S
C967 C968 1.524 . S
C967 C971 1.400 . S
C968 H953 0.956 1_556 S
C968 H954 0.960 . S
C968 H955 0.960 1_556 S
C968 C967 1.524 . S
C969 C966 1.403 . S
C969 C970 1.392 . S
C969 C973 1.495 . S
C970 C969 1.392 . S
C970 C971 1.385 . S
C970 C972 1.478 . S
C971 H965 0.930 . S
C971 C967 1.400 . S
C971 C970 1.385 . S
C972 C970 1.478 . S
C972 C974 1.381 . S
C972 C978 1.383 . S
C973 C969 1.495 . S
C973 H979 0.959 . S
C973 H980 0.961 . S
C973 H981 0.960 . S
C974 C972 1.381 . S
C974 C975 1.394 . S
C974 H982 0.930 . S
C975 C974 1.394 . S
C975 C976 1.383 . S
C975 H983 0.929 . S
C976 C975 1.383 . S
C976 C977 1.377 . S
C977 H961 0.930 . S
C977 C976 1.377 . S
C977 C978 1.379 . S
C978 H962 0.931 . S
C978 C972 1.383 . S
C978 C977 1.379 . S
H979 C973 0.959 . S
H980 C973 0.961 . S
H981 C973 0.960 . S
H982 C974 0.930 . S
H983 C975 0.929 . S
H984 C992 0.929 . S
H985 C994 0.930 . S
H986 C996 0.930 . S
H987 C999 0.929 . S
H988 C1002 0.930 . S
H989 C1004 0.960 . S
H990 C1004 0.960 . S
H991 C1004 0.960 . S
C992 H984 0.929 . S
C992 C993 1.401 . S
C992 C994 1.384 . S
C993 C992 1.401 . S
C993 C999 1.369 1_655 S
C994 H985 0.930 . S
C994 C992 1.384 . S
C994 C995 1.372 . S
C995 C994 1.372 . S
C995 C996 1.400 1_655 S
C995 C1000 1.490 . S
C996 H986 0.930 . S
C996 C995 1.400 1_455 S
C996 C999 1.386 . S
H997 C1013 0.942 . S
H998 C1014 0.931 1_455 S
C999 H987 0.929 . S
C999 C993 1.369 1_455 S
C999 C996 1.386 . S
C1000 C995 1.490 . S
C1000 C1002 1.395 . S
C1000 C1003 1.403 1_655 S
H1001 C1007 0.930 . S
C1002 H988 0.930 . S
C1002 C1000 1.395 . S
C1002 C1005 1.403 . S
C1003 C1000 1.403 1_455 S
C1003 C1004 1.524 . S
C1003 C1007 1.400 . S
C1004 H989 0.960 . S
C1004 H990 0.960 . S
C1004 H991 0.960 . S
C1004 C1003 1.524 . S
C1005 C1002 1.403 . S
C1005 C1006 1.392 . S
C1005 C1009 1.495 . S
C1006 C1005 1.392 . S
C1006 C1007 1.385 1_655 S
C1006 C1008 1.478 . S
C1007 H1001 0.930 . S
C1007 C1003 1.400 . S
C1007 C1006 1.385 1_455 S
C1008 C1006 1.478 . S
C1008 C1010 1.381 . S
C1008 C1014 1.383 . S
C1009 C1005 1.495 . S
C1009 H1015 0.959 . S
C1009 H1016 0.961 . S
C1009 H1017 0.960 . S
C1010 C1008 1.381 . S
C1010 C1011 1.394 . S
C1010 H1018 0.930 . S
C1011 C1010 1.394 . S
C1011 C1012 1.383 . S
C1011 H1019 0.929 . S
C1012 C1011 1.383 . S
C1012 C1013 1.366 1_655 S
C1013 H997 0.942 . S
C1013 C1012 1.366 1_455 S
C1013 C1014 1.379 1_455 S
C1014 H998 0.931 1_655 S
C1014 C1008 1.383 . S
C1014 C1013 1.379 1_655 S
H1015 C1009 0.959 . S
H1016 C1009 0.961 . S
H1017 C1009 0.960 . S
H1018 C1010 0.930 . S
H1019 C1011 0.929 . S
H1020 C1028 0.929 . S
H1021 C1030 0.930 . S
H1022 C1032 0.930 . S
H1023 C1035 0.929 . S
H1024 C1038 0.930 . S
H1025 C1040 0.960 . S
H1026 C1040 0.960 . S
H1027 C1040 0.960 1_565 S
C1028 H1020 0.929 . S
C1028 C1029 1.367 1_545 S
C1028 C1030 1.384 . S
C1029 C1028 1.367 1_565 S
C1029 C1035 1.400 . S
C1030 H1021 0.930 . S
C1030 C1028 1.384 . S
C1030 C1031 1.372 1_545 S
C1031 C1030 1.372 1_565 S
C1031 C1032 1.400 . S
C1031 C1036 1.490 . S
C1032 H1022 0.930 . S
C1032 C1031 1.400 . S
C1032 C1035 1.386 . S
H1033 C1049 0.930 . S
H1034 C1050 0.931 . S
C1035 H1023 0.929 . S
C1035 C1029 1.400 . S
C1035 C1032 1.386 . S
C1036 C1031 1.490 . S
C1036 C1038 1.395 . S
C1036 C1039 1.402 1_565 S
H1037 C1043 0.930 . S
C1038 H1024 0.930 . S
C1038 C1036 1.395 . S
C1038 C1041 1.403 . S
C1039 C1036 1.402 1_545 S
C1039 C1040 1.526 . S
C1039 C1043 1.399 1_545 S
C1040 H1025 0.960 . S
C1040 H1026 0.960 . S
C1040 H1027 0.960 1_545 S
C1040 C1039 1.526 . S
C1041 C1038 1.403 . S
C1041 C1042 1.392 . S
C1041 C1045 1.495 . S
C1042 C1041 1.392 . S
C1042 C1043 1.385 . S
C1042 C1044 1.478 . S
C1043 H1037 0.930 . S
C1043 C1039 1.399 1_565 S
C1043 C1042 1.385 . S
C1044 C1042 1.478 . S
C1044 C1046 1.381 1_565 S
C1044 C1050 1.383 . S
C1045 C1041 1.495 . S
C1045 H1051 0.959 . S
C1045 H1052 0.961 . S
C1045 H1053 0.935 1_565 S
C1046 C1044 1.381 1_545 S
C1046 C1047 1.394 . S
C1046 H1054 0.930 . S
C1047 C1046 1.394 . S
C1047 C1048 1.383 1_545 S
C1047 H1055 0.929 . S
C1048 C1047 1.383 1_565 S
C1048 C1049 1.377 . S
C1049 H1033 0.930 . S
C1049 C1048 1.377 . S
C1049 C1050 1.379 . S
C1050 H1034 0.931 . S
C1050 C1044 1.383 . S
C1050 C1049 1.379 . S
H1051 C1045 0.959 . S
H1052 C1045 0.961 . S
H1053 C1045 0.935 1_545 S
H1054 C1046 0.930 . S
H1055 C1047 0.929 . S
H1056 C1064 0.929 . S
H1057 C1066 0.930 . S
H1058 C1068 0.930 . S
H1059 C1071 0.929 . S
H1060 C1074 0.930 . S
H1061 C1076 0.960 . S
H1062 C1076 0.960 . S
H1063 C1076 0.960 . S
C1064 H1056 0.929 . S
C1064 C1065 1.377 . S
C1064 C1066 1.384 . S
C1065 C1064 1.377 . S
C1065 C1071 1.390 . S
C1066 H1057 0.930 . S
C1066 C1064 1.384 . S
C1066 C1067 1.372 . S
C1067 C1066 1.372 . S
C1067 C1068 1.400 . S
C1067 C1072 1.490 . S
C1068 H1058 0.930 . S
C1068 C1067 1.400 . S
C1068 C1071 1.386 . S
H1069 C1085 0.930 . S
H1070 C1086 0.931 . S
C1071 H1059 0.929 . S
C1071 C1065 1.390 . S
C1071 C1068 1.386 . S
C1072 C1067 1.490 . S
C1072 C1074 1.395 . S
C1072 C1075 1.403 . S
H1073 C1079 0.930 . S
C1074 H1060 0.930 . S
C1074 C1072 1.395 . S
C1074 C1077 1.403 . S
C1075 C1072 1.403 . S
C1075 C1076 1.524 . S
C1075 C1079 1.400 . S
C1076 H1061 0.960 . S
C1076 H1062 0.960 . S
C1076 H1063 0.960 . S
C1076 C1075 1.524 . S
C1077 C1074 1.403 . S
C1077 C1078 1.392 . S
C1077 C1081 1.495 . S
C1078 C1077 1.392 . S
C1078 C1079 1.385 . S
C1078 C1080 1.478 . S
C1079 H1073 0.930 . S
C1079 C1075 1.400 . S
C1079 C1078 1.385 . S
C1080 C1078 1.478 . S
C1080 C1082 1.381 . S
C1080 C1086 1.383 . S
C1081 C1077 1.495 . S
C1081 H1087 0.959 . S
C1081 H1088 0.961 . S
C1081 H1089 0.960 . S
C1082 C1080 1.381 . S
C1082 C1083 1.394 . S
C1082 H1090 0.930 . S
C1083 C1082 1.394 . S
C1083 C1084 1.383 . S
C1083 H1091 0.929 . S
C1084 C1083 1.383 . S
C1084 C1085 1.377 . S
C1085 H1069 0.930 . S
C1085 C1084 1.377 . S
C1085 C1086 1.379 . S
C1086 H1070 0.931 . S
C1086 C1080 1.383 . S
C1086 C1085 1.379 . S
H1087 C1081 0.959 . S
H1088 C1081 0.961 . S
H1089 C1081 0.960 . S
H1090 C1082 0.930 . S
H1091 C1083 0.929 . S
H1092 C1100 0.929 . S
H1093 C1102 0.930 . S
H1094 C1104 0.930 . S
H1095 C1107 0.929 . S
H1096 C1110 0.930 . S
H1097 C1112 0.960 . S
H1098 C1112 0.960 . S
H1099 C1112 0.960 . S
C1100 H1092 0.929 . S
C1100 C1101 1.377 . S
C1100 C1102 1.384 . S
C1101 C1100 1.377 . S
C1101 C1107 1.390 . S
C1102 H1093 0.930 . S
C1102 C1100 1.384 . S
C1102 C1103 1.372 . S
C1103 C1102 1.372 . S
C1103 C1104 1.400 . S
C1103 C1108 1.490 . S
C1104 H1094 0.930 . S
C1104 C1103 1.400 . S
C1104 C1107 1.386 . S
H1105 C1121 0.930 . S
H1106 C1122 0.931 . S
C1107 H1095 0.929 . S
C1107 C1101 1.390 . S
C1107 C1104 1.386 . S
C1108 C1103 1.490 . S
C1108 C1110 1.395 . S
C1108 C1111 1.403 . S
H1109 C1115 0.930 . S
C1110 H1096 0.930 . S
C1110 C1108 1.395 . S
C1110 C1113 1.403 . S
C1111 C1108 1.403 . S
C1111 C1112 1.524 . S
C1111 C1115 1.400 . S
C1112 H1097 0.960 . S
C1112 H1098 0.960 . S
C1112 H1099 0.960 . S
C1112 C1111 1.524 . S
C1113 C1110 1.403 . S
C1113 C1114 1.392 . S
C1113 C1117 1.495 . S
C1114 C1113 1.392 . S
C1114 C1115 1.385 . S
C1114 C1116 1.478 . S
C1115 H1109 0.930 . S
C1115 C1111 1.400 . S
C1115 C1114 1.385 . S
C1116 C1114 1.478 . S
C1116 C1118 1.381 . S
C1116 C1122 1.383 . S
C1117 C1113 1.495 . S
C1117 H1123 0.959 . S
C1117 H1124 0.961 . S
C1117 H1125 0.960 . S
C1118 C1116 1.381 . S
C1118 C1119 1.394 . S
C1118 H1126 0.930 . S
C1119 C1118 1.394 . S
C1119 C1120 1.383 . S
C1119 H1127 0.929 . S
C1120 C1119 1.383 . S
C1120 C1121 1.377 . S
C1121 H1105 0.930 . S
C1121 C1120 1.377 . S
C1121 C1122 1.379 . S
C1122 H1106 0.931 . S
C1122 C1116 1.383 . S
C1122 C1121 1.379 . S
H1123 C1117 0.959 . S
H1124 C1117 0.961 . S
H1125 C1117 0.960 . S
H1126 C1118 0.930 . S
H1127 C1119 0.929 . S
C273 C82 1.618 . S
C292 C106 1.840 1_545 S
C328 C146 1.849 . S
C309 C95 1.612 . S
C364 C186 1.842 . S
C345 C56 1.623 . S
C400 C226 1.830 1_455 S
C381 C69 1.629 1_655 S
C436 C119 1.838 1_565 S
C417 C30 1.637 1_565 S
C453 C43 1.621 . S
C472 C159 1.847 . S
C489 C4 1.631 . S
C508 C199 1.832 . S
C525 C17 1.620 . S
C544 C239 1.841 1_655 S
C580 C130 0.320 . S
C561 C74 0.392 . S
C616 C170 0.352 . S
C597 C87 0.399 . S
C652 C210 0.290 . S
C633 C100 0.372 . S
C669 C61 0.369 . S
C688 C250 0.287 . S
C705 C22 0.371 1_655 S
C724 C113 0.350 . S
C760 C153 0.336 . S
C741 C35 0.389 1_565 S
C796 C193 0.370 . S
C777 C48 0.374 . S
C813 C9 0.380 . S
C832 C233 0.345 . S
C849 C73 1.887 . S
C868 C107 2.073 . S
C885 C86 1.885 . S
C904 C147 2.077 . S
C940 C187 2.068 . S
C921 C99 1.875 . S
C976 C227 2.078 . S
C957 C60 1.880 . S
C993 C21 1.881 1_655 S
C1012 C126 2.094 . S
C1048 C166 2.078 . S
C1029 C34 1.883 1_565 S
C1084 C206 2.066 . S
C1065 C47 1.875 . S
C1101 C8 1.886 . S
C1120 C246 2.075 . S
