# Generated by pormake.
# Topology zzz, (3,6)-cn, num edge types: 1
# Building blocks:
#     Node 0, Type 0, BuildingBlock: QEWDON_clean_linker_0, # of connection points: 3
#     Node 1, Type 0, BuildingBlock: QEWDON_clean_linker_0, # of connection points: 3
#     Node 2, Type 0, BuildingBlock: QEWDON_clean_linker_0, # of connection points: 3
#     Node 3, Type 0, BuildingBlock: QEWDON_clean_linker_0, # of connection points: 3
#     Node 4, Type 0, BuildingBlock: QEWDON_clean_linker_0, # of connection points: 3
#     Node 5, Type 0, BuildingBlock: QEWDON_clean_linker_0, # of connection points: 3
#     Node 6, Type 0, BuildingBlock: QEWDON_clean_linker_0, # of connection points: 3
#     Node 7, Type 0, BuildingBlock: QEWDON_clean_linker_0, # of connection points: 3
#     Node 8, Type 1, BuildingBlock: CUKXOW_clean_sbu_0, # of connection points: 6
#     Node 9, Type 1, BuildingBlock: CUKXOW_clean_sbu_0, # of connection points: 6
#     Node 10, Type 1, BuildingBlock: CUKXOW_clean_sbu_0, # of connection points: 6
#     Node 11, Type 1, BuildingBlock: CUKXOW_clean_sbu_0, # of connection points: 6
#     Edge 12, Type (0, 1), BuildingBlock: OJICUG_clean_linker_0, # of connection points: 2
#     Edge 13, Type (0, 1), BuildingBlock: OJICUG_clean_linker_0, # of connection points: 2
#     Edge 14, Type (0, 1), BuildingBlock: OJICUG_clean_linker_0, # of connection points: 2
#     Edge 15, Type (0, 1), BuildingBlock: OJICUG_clean_linker_0, # of connection points: 2
#     Edge 16, Type (0, 1), BuildingBlock: OJICUG_clean_linker_0, # of connection points: 2
#     Edge 17, Type (0, 1), BuildingBlock: OJICUG_clean_linker_0, # of connection points: 2
#     Edge 18, Type (0, 1), BuildingBlock: OJICUG_clean_linker_0, # of connection points: 2
#     Edge 19, Type (0, 1), BuildingBlock: OJICUG_clean_linker_0, # of connection points: 2
#     Edge 20, Type (0, 1), BuildingBlock: OJICUG_clean_linker_0, # of connection points: 2
#     Edge 21, Type (0, 1), BuildingBlock: OJICUG_clean_linker_0, # of connection points: 2
#     Edge 22, Type (0, 1), BuildingBlock: OJICUG_clean_linker_0, # of connection points: 2
#     Edge 23, Type (0, 1), BuildingBlock: OJICUG_clean_linker_0, # of connection points: 2
#     Edge 24, Type (0, 1), BuildingBlock: OJICUG_clean_linker_0, # of connection points: 2
#     Edge 25, Type (0, 1), BuildingBlock: OJICUG_clean_linker_0, # of connection points: 2
#     Edge 26, Type (0, 1), BuildingBlock: OJICUG_clean_linker_0, # of connection points: 2
#     Edge 27, Type (0, 1), BuildingBlock: OJICUG_clean_linker_0, # of connection points: 2
#     Edge 28, Type (0, 1), BuildingBlock: OJICUG_clean_linker_0, # of connection points: 2
#     Edge 29, Type (0, 1), BuildingBlock: OJICUG_clean_linker_0, # of connection points: 2
#     Edge 30, Type (0, 1), BuildingBlock: OJICUG_clean_linker_0, # of connection points: 2
#     Edge 31, Type (0, 1), BuildingBlock: OJICUG_clean_linker_0, # of connection points: 2
#     Edge 32, Type (0, 1), BuildingBlock: OJICUG_clean_linker_0, # of connection points: 2
#     Edge 33, Type (0, 1), BuildingBlock: OJICUG_clean_linker_0, # of connection points: 2
#     Edge 34, Type (0, 1), BuildingBlock: OJICUG_clean_linker_0, # of connection points: 2
#     Edge 35, Type (0, 1), BuildingBlock: OJICUG_clean_linker_0, # of connection points: 2
# Relax obj value: 0.022
# Max RMSD: 0.092
# Mean RMSD: 0.034
data_MOF--net-zzz--node1-CUKXOW_clean_sbu_0--node2-QEWDON_clean_linker_0--edge1-OJICUG_clean_linker_0
_symmetry_space_group_name_H-M    P1
_symmetry_Int_Tables_number       1
_symmetry_cell_setting            triclinic
loop_
_symmetry_equiv_pos_as_xyz
'x, y, z'
_cell_length_a     39.297675
_cell_length_b     41.509139
_cell_length_c     12.032334
_cell_angle_alpha  94.457469
_cell_angle_beta   85.60479
_cell_angle_gamma 93.002376
loop_
_atom_site_label
_atom_site_type_symbol
_atom_site_fract_x
_atom_site_fract_y
_atom_site_fract_z
_atom_type_partial_charge
H0 H 0.79428 0.51375 0.94234 0.0
C1 C 0.8011 0.51163 0.02695 0.0
C2 C 0.8313 0.49646 0.04511 0.0
C3 C 0.78111 0.52606 0.11856 0.0
H4 H 0.86471 0.48524 0.16905 0.0
C5 C 0.84053 0.49515 0.15452 0.0
C6 C 0.82246 0.5112 0.2442 0.0
C7 C 0.79254 0.52622 0.22703 0.0
C8 C 0.75036 0.54407 0.10211 0.0
H9 H 0.77894 0.53896 0.2975 0.0
C10 C 0.72388 0.53016 0.03842 0.0
C11 C 0.69374 0.54681 0.03329 0.0
C12 C 0.7467 0.57517 0.15611 0.0
H13 H 0.76684 0.58672 0.20388 0.0
C14 C 0.71703 0.59168 0.14973 0.0
H15 H 0.72623 0.50629 -0.00395 0.0
C16 C 0.69057 0.57752 0.0895 0.0
H17 H 0.66764 0.5907 0.08569 0.0
H18 H 0.71448 0.61551 0.19209 0.0
H19 H 1.00423 0.81313 0.91366 0.0
C20 C 1.01139 0.81489 -0.00078 0.0
C21 C 0.02408 0.8447 0.0471 0.0
C22 C 1.00528 0.78807 0.06525 0.0
H23 H 0.04065 0.8704 0.196 0.0
C24 C 0.0319 0.84705 0.1585 0.0
C25 C 0.02317 0.82186 0.22717 0.0
C26 C 1.01025 0.7921 0.18047 0.0
C27 C 0.98627 0.75868 0.02073 0.0
H28 H 1.00187 0.77306 0.23447 0.0
C29 C 1.00162 0.72854 -0.00257 0.0
C30 C 0.98228 0.70141 0.95373 0.0
C31 C 0.95164 0.76109 0.00308 0.0
H32 H 0.9394 0.78389 0.02138 0.0
C33 C 0.93241 0.73417 0.96275 0.0
H34 H 0.02842 0.72651 0.00971 0.0
C35 C 0.94758 0.70463 0.93779 0.0
H36 H 0.93221 0.68419 0.90463 0.0
H37 H 0.90569 0.73628 0.94975 0.0
H38 H 0.73258 0.99598 0.93352 0.0
C39 C 0.72105 1.00116 0.0173 0.0
C40 C 0.69103 0.01848 0.0335 0.0
C41 C 0.73485 0.98892 0.10972 0.0
H42 H 0.65168 0.03639 0.1518 0.0
C43 C 0.67553 0.02401 0.14087 0.0
C44 C 0.68809 0.01118 0.23241 0.0
C45 C 0.71775 0.99357 0.21696 0.0
C46 C 0.76484 0.9683 0.09429 0.0
H47 H 0.72725 0.98321 0.28789 0.0
C48 C 0.7964 0.97922 0.04264 0.0
C49 C 0.82471 0.95927 0.03252 0.0
C50 C 0.76188 0.93736 0.13483 0.0
H51 H 0.7379 0.92839 0.17425 0.0
C52 C 0.78968 0.91763 0.12471 0.0
H53 H 0.79891 1.00305 0.01114 0.0
C54 C 0.82085 0.92845 0.07436 0.0
H55 H 0.84216 0.91273 0.06931 0.0
H56 H 0.78712 0.89387 0.15653 0.0
H57 H 0.54835 0.7301 0.9161 0.0
C58 C 0.5492 0.72273 0.00025 0.0
C59 C 0.53111 0.69425 0.03163 0.0
C60 C 0.57024 0.74039 0.0759 0.0
H61 H 0.52108 0.66149 0.16154 0.0
C62 C 0.53362 0.68424 0.1387 0.0
C63 C 0.55578 0.7004 0.21139 0.0
C64 C 0.57388 0.7286 0.18096 0.0
C65 C 0.59104 0.76942 0.04312 0.0
H66 H 0.59138 0.74082 0.23758 0.0
C67 C 0.57572 0.79649 0.00807 0.0
C68 C 0.59551 0.82514 -0.01084 0.0
C69 C 0.62645 0.77084 0.05419 0.0
H70 H 0.63883 0.75025 0.08024 0.0
C71 C 0.64618 0.79887 0.03271 0.0
H72 H 0.54837 0.79578 0.00069 0.0
C73 C 0.63082 0.82597 0.00144 0.0
H74 H 0.64658 0.84762 -0.01366 0.0
H75 H 0.67342 0.79973 0.04166 0.0
H76 H 0.22932 0.54359 0.475 0.0
C77 C 0.22014 0.52937 0.40305 0.0
C78 C 0.18648 0.51602 0.40769 0.0
C79 C 0.24099 0.52605 0.30212 0.0
H80 H 0.14749 0.49053 0.3169 0.0
C81 C 0.17414 0.49903 0.31338 0.0
C82 C 0.19339 0.49733 0.21106 0.0
C83 C 0.2271 0.51032 0.20604 0.0
C84 C 0.27565 0.5423 0.29158 0.0
H85 H 0.24201 0.50924 0.12634 0.0
C86 C 0.30029 0.53874 0.36892 0.0
C87 C 0.3335 0.55341 0.35363 0.0
C88 C 0.28434 0.5612 0.20069 0.0
H89 H 0.26582 0.56486 0.14116 0.0
C90 C 0.31693 0.57562 0.18517 0.0
H91 H 0.2937 0.52444 0.4397 0.0
C92 C 0.34137 0.57159 0.26008 0.0
H93 H 0.36673 0.58242 0.24338 0.0
H94 H 0.32338 0.5898 0.11409 0.0
H95 H 0.9919 0.19118 0.59126 0.0
C96 C 1.00549 0.19083 0.50933 0.0
C97 C 0.02067 0.16237 0.46431 0.0
C98 C 1.00554 0.218 0.44482 0.0
H99 H 0.04836 0.13923 0.32381 0.0
C100 C 0.03753 0.16173 0.35839 0.0
C101 C 0.0359 0.18718 0.28983 0.0
C102 C 0.02013 0.21564 0.33345 0.0
C103 C 0.98452 0.24591 0.48635 0.0
H104 H 0.01719 0.2348 0.27917 0.0
C105 C 0.99793 0.27833 0.49175 0.0
C106 C 0.97656 0.304 0.52985 0.0
C107 C 0.94989 0.23967 0.51953 0.0
H108 H 0.9389 0.21515 0.51534 0.0
C109 C 0.92888 0.26487 0.55668 0.0
H110 H 0.0246 0.2835 0.46659 0.0
C111 C 0.94201 0.29672 0.56172 0.0
H112 H 0.92511 0.31579 0.59219 0.0
H113 H 0.90223 0.25969 0.58176 0.0
H114 H 0.31873 0.02949 0.50872 0.0
C115 C 0.33203 0.03974 0.4365 0.0
C116 C 0.36684 0.04956 0.43984 0.0
C117 C 0.31536 0.04081 0.33696 0.0
H118 H 0.41198 0.06627 0.34439 0.0
C119 C 0.38463 0.06093 0.34444 0.0
C120 C 0.36933 0.06013 0.2437 0.0
C121 C 0.33455 0.05105 0.24063 0.0
C122 C 0.27966 0.02703 0.32798 0.0
H123 H 0.32309 0.05045 0.16138 0.0
C124 C 0.25377 0.03166 0.41569 0.0
C125 C 0.22067 0.01736 0.40467 0.0
C126 C 0.27161 1.00795 0.23051 0.0
H127 H 0.29087 1.00282 0.16311 0.0
C128 C 0.2388 0.99443 0.21918 0.0
H129 H 0.25934 0.04582 0.49217 0.0
C130 C 0.21352 0.99904 0.30543 0.0
H131 H 0.18829 0.98786 0.29534 0.0
H132 H 0.23307 0.97987 0.14373 0.0
H133 H 0.52344 0.32263 0.41863 0.0
C134 C 0.50862 0.33156 0.35615 0.0
C135 C 0.49837 0.3636 0.36854 0.0
C136 C 0.5014 0.31182 0.2592 0.0
H137 H 0.47482 0.401 0.29363 0.0
C138 C 0.48066 0.37561 0.28565 0.0
C139 C 0.47473 0.35709 0.18659 0.0
C140 C 0.48468 0.32494 0.17431 0.0
C141 C 0.51446 0.27876 0.24008 0.0
H142 H 0.48049 0.31056 0.09703 0.0
C143 C 0.50903 0.25607 0.32194 0.0
C144 C 0.52025 0.22432 0.29935 0.0
C145 C 0.53221 0.26967 0.13745 0.0
H146 H 0.53727 0.28676 0.0739 0.0
C147 C 0.54393 0.23856 0.11588 0.0
H148 H 0.49513 0.26272 0.40099 0.0
C149 C 0.53791 0.216 0.19577 0.0
H150 H 0.54738 0.192 0.17681 0.0
H151 H 0.55767 0.23188 0.03671 0.0
Tb152 Tb 0.02338 0.97512 0.6716 0.0
C153 C 0.09438 0.01304 0.67314 0.0
Tb154 Tb 0.03256 0.03324 0.8509 0.0
O155 O 0.0241 1.008 0.53531 0.0
O156 O 1.00978 0.02361 0.69952 0.0
O157 O 0.07774 0.98534 0.64509 0.0
C158 C 0.03967 0.09326 0.94776 0.0
O159 O 0.08027 0.0366 0.74029 0.0
C160 C 0.03792 0.97501 0.91742 0.0
C161 C 0.96199 0.9932 0.8506 0.0
O162 O 0.06106 0.07051 0.95061 0.0
O163 O 0.01381 0.08182 0.89378 0.0
O164 O 0.02892 0.99966 -0.01487 0.0
O165 O 0.04655 0.98491 0.82319 0.0
O166 O 0.97766 0.02151 0.87997 0.0
O167 O 0.97708 0.97051 0.78276 0.0
C168 C 0.01779 0.91487 0.57666 0.0
O169 O 0.9957 0.93697 0.57298 0.0
O170 O 0.04321 0.92703 0.63102 0.0
C171 C 0.01748 0.03307 0.6042 0.0
Tb172 Tb 0.52805 0.0697 0.7012 0.0
C173 C 0.57971 0.0217 0.57433 0.0
Tb174 Tb 0.52951 0.99855 0.776 0.0
O175 O 0.57982 0.08295 0.7508 0.0
O176 O 0.55122 0.04503 0.82108 0.0
O177 O 0.56199 0.04783 0.56957 0.0
C178 C 0.54452 0.94272 0.8528 0.0
O179 O 0.57256 1.00009 0.64949 0.0
C180 C 0.47675 1.01033 0.66836 0.0
C181 C 0.47955 0.04793 0.90789 0.0
O182 O 0.53583 0.94629 0.7526 0.0
O183 O 0.54472 0.97062 0.91008 0.0
O184 O 0.47738 0.98603 0.72964 0.0
O185 O 0.50658 0.02311 0.65625 0.0
O186 O 0.49621 0.02086 0.91047 0.0
O187 O 0.48653 0.06952 0.83232 0.0
C188 C 0.51413 0.12084 0.59337 0.0
O189 O 0.52249 0.12211 0.6964 0.0
O190 O 0.51326 0.09095 0.55282 0.0
C191 C 0.58085 0.05836 0.81079 0.0
Tb192 Tb 0.53131 0.54986 0.6116 0.0
C193 C 0.45011 0.53611 0.60625 0.0
Tb194 Tb 0.49215 0.50837 0.78697 0.0
O195 O 0.55211 0.50649 0.51881 0.0
O196 O 0.50588 0.50419 0.61485 0.0
O197 O 0.47786 0.55385 0.57409 0.0
C198 C 0.47419 0.45422 0.88644 0.0
O199 O 0.45075 0.51342 0.67835 0.0
C200 C 0.49539 0.57102 0.83617 0.0
C201 C 0.57343 0.52385 0.79537 0.0
O202 O 0.46026 0.48192 0.91114 0.0
O203 O 0.49847 0.45748 0.80854 0.0
O204 O 0.47132 0.55193 0.87934 0.0
O205 O 0.51753 0.55397 0.7835 0.0
O206 O 0.54568 0.50662 0.8319 0.0
O207 O 0.57261 0.54502 0.71836 0.0
C208 C 0.55009 0.60345 0.51042 0.0
O209 O 0.56366 0.57557 0.48684 0.0
O210 O 0.52565 0.60069 0.58793 0.0
C211 C 0.52824 0.48735 0.56231 0.0
Tb212 Tb 0.98656 0.51419 0.63 0.0
C213 C 1.00693 0.44051 0.63522 0.0
Tb214 Tb 0.03156 0.49605 0.8118 0.0
O215 O 0.03081 0.53702 0.53778 0.0
O216 O 0.03661 0.49941 0.63863 0.0
O217 O 0.98699 0.46137 0.59608 0.0
C218 C 0.08824 0.49062 0.91576 0.0
O219 O 0.02956 0.44977 0.7098 0.0
C220 C 0.96538 0.48971 0.85635 0.0
C221 C 1.01013 0.56981 0.80545 0.0
O222 O 0.05935 0.47477 0.93709 0.0
O223 O 0.08473 0.51033 0.83951 0.0
O224 O 0.98698 0.47315 0.90268 0.0
O225 O 0.98166 0.51102 0.80316 0.0
O226 O 0.03012 0.54948 0.84808 0.0
O227 O 0.98802 0.5599 0.73041 0.0
C228 C 0.92896 0.51796 0.53041 0.0
O229 O 0.95717 0.53476 0.50737 0.0
O230 O 0.93367 0.4984 0.60591 0.0
C231 C 0.05257 0.52084 0.58493 0.0
C232 C 0.18034 0.9901 0.5396 0.0
C233 C 0.19328 0.01905 0.49647 0.0
H234 H 0.13919 0.9658 0.6304 0.0
C235 C 0.17572 0.04753 0.52549 0.0
H236 H 0.19335 0.96783 0.51807 0.0
C237 C 0.14435 0.04643 0.59044 0.0
C238 C 0.13018 0.01675 0.62565 0.0
H239 H 0.18503 0.07006 0.49179 0.0
H240 H 0.13016 0.0682 0.60628 0.0
C241 C 0.1492 0.98894 0.60319 0.0
C242 C 0.52145 0.20561 0.49358 0.0
C243 C 0.51371 0.19933 0.38148 0.0
H244 H 0.52765 0.18546 0.64981 0.0
C245 C 0.50236 0.16788 0.34489 0.0
H246 H 0.53029 0.22961 0.52398 0.0
C247 C 0.50089 0.14285 0.41625 0.0
C248 C 0.51068 0.14862 0.52603 0.0
H249 H 0.49561 0.16241 0.25961 0.0
H250 H 0.49323 0.11867 0.38397 0.0
C251 C 0.52001 0.18039 0.56539 0.0
C252 C 0.3844 0.57537 0.45454 0.0
C253 C 0.36068 0.54956 0.43145 0.0
H254 H 0.43105 0.59121 0.5265 0.0
C255 C 0.36504 0.51975 0.47588 0.0
H256 H 0.38144 0.59897 0.42488 0.0
C257 C 0.3934 0.51553 0.53686 0.0
C258 C 0.41809 0.5409 0.55324 0.0
H259 H 0.34744 0.49929 0.4595 0.0
H260 H 0.39676 0.49204 0.56679 0.0
C261 C 0.41286 0.57099 0.51336 0.0
C262 C 0.01601 0.34889 0.60692 0.0
C263 C 0.98916 0.33859 0.53985 0.0
H264 H 0.04272 0.38912 0.69043 0.0
C265 C 0.97078 0.36216 0.49555 0.0
H266 H 0.03039 0.33129 0.64313 0.0
C267 C 0.97771 0.39514 0.52241 0.0
C268 C 1.00311 0.40559 0.59514 0.0
H269 H 0.95 0.35499 0.44338 0.0
H270 H 0.96207 0.41236 0.48948 0.0
C271 C 0.02284 0.38205 0.63464 0.0
C272 C 0.87666 0.94804 0.90471 0.0
C273 C 0.85854 0.96982 -0.02073 0.0
H274 H 0.92292 0.93813 0.8068 0.0
C275 C 0.87416 1.0003 0.00814 0.0
H276 H 0.86523 0.92454 0.87955 0.0
C277 C 0.90769 1.00826 0.96618 0.0
C278 C 0.92613 0.98593 0.89411 0.0
H279 H 0.86091 0.01752 0.06601 0.0
H280 H 0.91929 0.03166 -0.00852 0.0
C281 C 0.90988 0.95593 0.8629 0.0
C282 C 0.56033 0.85387 0.86581 0.0
C283 C 0.57973 0.85466 0.9593 0.0
H284 H 0.5343 0.88147 0.75767 0.0
C285 C 0.58588 0.88434 0.0207 0.0
H286 H 0.55543 0.83131 0.81685 0.0
C287 C 0.57344 0.91283 -0.01197 0.0
C288 C 0.55514 0.91225 0.89221 0.0
H289 H 0.60067 0.88553 0.09341 0.0
H290 H 0.57904 0.93543 0.03585 0.0
C291 C 0.54842 0.88252 0.83184 0.0
C292 C 0.63459 0.52227 0.02295 0.0
C293 C 0.66531 0.53336 0.96793 0.0
H294 H 0.58126 0.50974 0.01051 0.0
C295 C 0.66649 0.53741 0.8532 0.0
H296 H 0.6331 0.51954 0.11204 0.0
C297 C 0.63684 0.53245 0.79567 0.0
C298 C 0.60556 0.52306 0.85171 0.0
H299 H 0.6898 0.54642 0.80973 0.0
H300 H 0.6381 0.53733 0.70826 0.0
C301 C 0.60499 0.51677 0.96494 0.0
C302 C 1.00795 0.64884 -0.0092 0.0
C303 C 0.99753 0.67002 0.91531 0.0
H304 H 0.02059 0.60001 0.01548 0.0
C305 C 0.99597 0.65888 0.80268 0.0
H306 H 1.00895 0.65676 0.07845 0.0
C307 C 1.00225 0.62681 0.7673 0.0
C308 C 1.01033 0.60481 0.84338 0.0
H309 H 0.98801 0.67465 0.7428 0.0
H310 H 0.99929 0.61885 0.6805 0.0
C311 C 0.01449 0.61639 0.95489 0.0
C312 C 0.03126 0.12426 0.60858 0.0
C313 C 0.01473 0.13093 0.51447 0.0
H314 H 0.04634 0.08748 0.70746 0.0
C315 C 0.99793 0.10537 0.45315 0.0
H316 H 0.04523 0.14336 0.65494 0.0
C317 C 0.99886 0.07355 0.48239 0.0
C318 C 0.01606 0.06674 0.57474 0.0
H319 H 0.98545 0.10991 0.37901 0.0
H320 H 0.98641 0.05424 0.43228 0.0
C321 C 0.03189 0.09232 0.6384 0.0
C322 C 0.39042 1.00878 0.54986 0.0
C323 C 0.38785 0.0414 0.52959 0.0
H324 H 0.42126 0.97343 0.60864 0.0
C325 C 0.41244 0.06433 0.56959 0.0
H326 H 0.37209 0.99054 0.51862 0.0
C327 C 0.4409 0.05441 0.6181 0.0
C328 C 0.44528 0.02151 0.62766 0.0
H329 H 0.41097 0.08966 0.5553 0.0
H330 H 0.4596 0.07246 0.64631 0.0
C331 C 0.41889 0.99894 0.59919 0.0
C332 C 0.54315 0.40265 0.43533 0.0
C333 C 0.51049 0.38776 0.4545 0.0
H334 H 0.57438 0.4465 0.45369 0.0
C335 C 0.48591 0.40406 0.52509 0.0
H336 H 0.5622 0.3908 0.37874 0.0
C337 C 0.49246 0.43605 0.56493 0.0
C338 C 0.52392 0.45212 0.53639 0.0
H339 H 0.46031 0.39336 0.53855 0.0
H340 H 0.47193 0.44887 0.61107 0.0
C341 C 0.54982 0.43472 0.47594 0.0
C342 C 0.14501 0.49899 0.55823 0.0
C343 C 0.16022 0.52428 0.498 0.0
H344 H 0.09853 0.47777 0.63066 0.0
C345 C 0.14113 0.55136 0.48591 0.0
H346 H 0.15893 0.47753 0.56618 0.0
C347 C 0.10621 0.55109 0.51943 0.0
C348 C 0.09017 0.52403 0.56764 0.0
H349 H 0.15207 0.57081 0.43748 0.0
H350 H 0.0914 0.57105 0.50098 0.0
C351 C 0.11022 0.49885 0.59265 0.0
C352 C 0.04842 0.88443 0.91119 0.0
C353 C 0.02324 0.87559 -0.00634 0.0
H354 H 0.07313 0.92343 0.82327 0.0
C355 C 1.00146 0.89922 0.04445 0.0
H356 H 0.06594 0.86683 0.87272 0.0
C357 C 1.00609 0.93144 0.01878 0.0
C358 C 0.0322 0.94064 0.94019 0.0
H359 H 0.98207 0.89302 0.10929 0.0
H360 H 0.98961 0.94926 0.06183 0.0
C361 C 0.05271 0.91678 0.88405 0.0
C362 C 0.64591 1.00403 0.90524 0.0
C363 C 0.67105 0.02679 0.94195 0.0
H364 H 0.59759 0.99621 0.8358 0.0
C365 C 0.66813 0.05949 0.92362 0.0
H366 H 0.64718 0.97877 0.92096 0.0
C367 C 0.63933 0.06948 0.87634 0.0
C368 C 0.61262 0.04705 0.84977 0.0
H369 H 0.68669 0.07759 0.95435 0.0
H370 H 0.63696 0.09501 0.86731 0.0
C371 C 0.61688 0.01413 0.86014 0.0
C372 C 0.53966 0.65365 0.87289 0.0
C373 C 0.5167 0.6698 0.95006 0.0
H374 H 0.5515 0.60912 0.781 0.0
C375 C 0.48417 0.65509 0.97498 0.0
H376 H 0.56516 0.66403 0.85448 0.0
C377 C 0.47618 0.62344 0.93246 0.0
C378 C 0.50067 0.60609 0.86491 0.0
H379 H 0.46628 0.66687 0.03604 0.0
H380 H 0.45184 0.61187 0.95851 0.0
C381 C 0.53191 0.62194 0.83199 0.0
C382 C 0.87674 0.46083 0.95947 0.0
C383 C 0.85852 0.48905 0.95585 0.0
H384 H 0.92555 0.43944 0.93458 0.0
C385 C 0.87398 0.51471 0.89795 0.0
H386 H 0.86543 0.44071 0.00382 0.0
C387 C 0.90841 0.51399 0.85865 0.0
C388 C 0.92783 0.48764 0.87695 0.0
H389 H 0.86078 0.53686 0.89473 0.0
H390 H 0.92046 0.53517 0.82222 0.0
C391 C 0.91131 0.46035 0.92203 0.0
C392 C 0.01351 0.17068 0.10779 0.0
C393 C 0.04233 0.17828 0.16879 0.0
H394 H 0.98993 0.13689 -0.01016 0.0
C395 C 0.07301 0.16335 0.13275 0.0
H396 H 0.9895 0.18169 0.13374 0.0
C397 C 0.07288 0.13675 0.05385 0.0
C398 C 0.04244 0.12575 0.0067 0.0
H399 H 0.0956 0.16877 0.17837 0.0
H400 H 0.09579 0.12323 0.03707 0.0
C401 C 0.01354 0.14445 0.02722 0.0
C402 C 0.39784 0.02999 0.08092 0.0
C403 C 0.39235 0.05984 0.14096 0.0
H404 H 0.43057 1.00276 0.96249 0.0
C405 C 0.41474 0.08651 0.11933 0.0
H406 H 0.38139 1.00891 0.09829 0.0
C407 C 0.44276 0.08305 0.04073 0.0
C408 C 0.44938 0.0526 -0.01352 0.0
H409 H 0.41141 0.10952 0.16687 0.0
H410 H 0.4601 0.10372 0.02637 0.0
C411 C 0.42632 0.02631 0.00529 0.0
C412 C 0.48716 0.37325 -0.00771 0.0
C413 C 0.46551 0.37447 0.09078 0.0
H414 H 0.50674 0.39794 0.84968 0.0
C415 C 0.44158 0.39881 0.10818 0.0
H416 H 0.50596 0.35495 0.9766 0.0
C417 C 0.44267 0.42397 0.03702 0.0
C418 C 0.46725 0.42472 0.94642 0.0
H419 H 0.42431 0.4001 0.18288 0.0
H420 H 0.42597 0.44386 0.0574 0.0
C421 C 0.48797 0.39819 0.92052 0.0
C422 C 0.17386 0.51189 0.03031 0.0
C423 C 0.17456 0.48891 0.10982 0.0
H424 H 0.14546 0.53046 0.90622 0.0
C425 C 0.14984 0.4631 0.10971 0.0
H426 H 0.19235 0.53217 0.02889 0.0
C427 C 0.12238 0.46281 0.04253 0.0
C428 C 0.11975 0.4878 0.97226 0.0
H429 H 0.14995 0.44493 0.16964 0.0
H430 H 0.10232 0.44402 0.0501 0.0
C431 C 0.14666 0.51124 0.96159 0.0
C432 C 0.98777 0.84438 0.38773 0.0
C433 C 0.0192 0.83163 0.34758 0.0
H434 H 0.96284 0.88197 0.49053 0.0
C435 C 0.04859 0.84151 0.40293 0.0
H436 H 0.96489 0.83754 0.34499 0.0
C437 C 0.04738 0.86687 0.48661 0.0
C438 C 0.01693 0.88292 0.51409 0.0
H439 H 0.07318 0.8325 0.37197 0.0
H440 H 0.07098 0.876 0.52112 0.0
C441 C 0.98673 0.87027 0.46925 0.0
C442 C 0.65512 0.04418 0.37904 0.0
C443 C 0.66697 0.01383 0.33927 0.0
H444 H 0.61792 0.07025 0.48279 0.0
C445 C 0.6523 0.98593 0.38625 0.0
H446 H 0.66609 0.06602 0.34406 0.0
C447 C 0.62442 0.98829 0.466 0.0
C448 C 0.61072 0.01852 0.49797 0.0
H449 H 0.66077 0.96223 0.35567 0.0
H450 H 0.61253 0.96642 0.49802 0.0
C451 C 0.62717 0.04649 0.45692 0.0
C452 C 0.53957 0.6846 0.40264 0.0
C453 C 0.56309 0.6836 0.3091 0.0
H454 H 0.51741 0.65971 0.5416 0.0
C455 C 0.58628 0.65874 0.29311 0.0
H456 H 0.521 0.70318 0.41467 0.0
C457 C 0.58366 0.63336 0.36346 0.0
C458 C 0.55796 0.63281 0.45081 0.0
H459 H 0.60408 0.65724 0.21968 0.0
H460 H 0.60011 0.6132 0.34481 0.0
C461 C 0.53723 0.65946 0.47383 0.0
C462 C 0.86335 0.54526 0.35063 0.0
C463 C 0.84059 0.51804 0.34623 0.0
H464 H 0.91011 0.56615 0.41089 0.0
C465 C 0.84438 0.49297 0.41527 0.0
H466 H 0.86129 0.56445 0.29568 0.0
C467 C 0.87217 0.49401 0.48148 0.0
C468 C 0.89689 0.51967 0.47659 0.0
H469 H 0.8276 0.47143 0.41062 0.0
H470 H 0.87566 0.47362 0.52976 0.0
C471 C 0.89158 0.54592 0.41455 0.0
loop_
_geom_bond_atom_site_label_1
_geom_bond_atom_site_label_2
_geom_bond_distance
_geom_bond_site_symmetry_2
_ccdc_geom_bond_type
H0 C1 0.949 . S
C1 H0 0.949 . S
C1 C2 1.395 . S
C1 C3 1.391 1_556 S
C2 C1 1.395 . S
C2 C5 1.390 1_556 S
C3 C1 1.391 1_554 S
C3 C7 1.387 . S
C3 C8 1.491 . S
H4 C5 0.950 . S
C5 C2 1.390 1_554 S
C5 H4 0.950 . S
C5 C6 1.378 . S
C6 C5 1.378 . S
C6 C7 1.409 . S
C7 C3 1.387 . S
C7 C6 1.409 . S
C7 H9 0.951 . S
C8 C3 1.491 . S
C8 C10 1.382 . S
C8 C12 1.404 . S
H9 C7 0.951 . S
C10 C8 1.382 . S
C10 C11 1.390 . S
C10 H15 0.949 1_554 S
C11 C10 1.390 . S
C11 C16 1.399 . S
C12 C8 1.404 . S
C12 H13 0.950 . S
C12 C14 1.375 . S
H13 C12 0.950 . S
C14 C12 1.375 . S
C14 C16 1.382 . S
C14 H18 0.950 . S
H15 C10 0.949 1_556 S
C16 C11 1.399 . S
C16 C14 1.382 . S
C16 H17 0.952 . S
H17 C16 0.952 . S
H18 C14 0.950 . S
H19 C20 0.949 . S
C20 H19 0.949 . S
C20 C21 1.395 . S
C20 C22 1.391 1_556 S
C21 C20 1.395 . S
C21 C24 1.390 1_556 S
C22 C20 1.391 1_554 S
C22 C26 1.387 . S
C22 C27 1.491 . S
H23 C24 0.950 . S
C24 C21 1.390 1_554 S
C24 H23 0.950 . S
C24 C25 1.378 . S
C25 C24 1.378 . S
C25 C26 1.409 . S
C26 C22 1.387 . S
C26 C25 1.409 . S
C26 H28 0.951 . S
C27 C22 1.491 . S
C27 C29 1.382 1_554 S
C27 C31 1.404 . S
H28 C26 0.951 . S
C29 C27 1.382 1_556 S
C29 C30 1.390 . S
C29 H34 0.949 . S
C30 C29 1.390 . S
C30 C35 1.399 1_556 S
C31 C27 1.404 . S
C31 H32 0.950 . S
C31 C33 1.375 . S
H32 C31 0.950 . S
C33 C31 1.375 . S
C33 C35 1.382 . S
C33 H37 0.950 . S
H34 C29 0.949 . S
C35 C30 1.399 1_554 S
C35 C33 1.382 . S
C35 H36 0.952 . S
H36 C35 0.952 . S
H37 C33 0.950 . S
H38 C39 0.949 1_556 S
C39 H38 0.949 1_554 S
C39 C40 1.395 . S
C39 C41 1.391 . S
C40 C39 1.395 . S
C40 C43 1.390 . S
C41 C39 1.391 . S
C41 C45 1.387 . S
C41 C46 1.491 . S
H42 C43 0.950 . S
C43 C40 1.390 . S
C43 H42 0.950 . S
C43 C44 1.378 . S
C44 C43 1.378 . S
C44 C45 1.409 . S
C45 C41 1.387 . S
C45 C44 1.409 . S
C45 H47 0.951 . S
C46 C41 1.491 . S
C46 C48 1.382 . S
C46 C50 1.404 . S
H47 C45 0.951 . S
C48 C46 1.382 . S
C48 C49 1.390 . S
C48 H53 0.949 1_554 S
C49 C48 1.390 . S
C49 C54 1.399 . S
C50 C46 1.404 . S
C50 H51 0.950 . S
C50 C52 1.375 . S
H51 C50 0.950 . S
C52 C50 1.375 . S
C52 C54 1.382 . S
C52 H56 0.950 . S
H53 C48 0.949 1_556 S
C54 C49 1.399 . S
C54 C52 1.382 . S
C54 H55 0.952 . S
H55 C54 0.952 . S
H56 C52 0.950 . S
H57 C58 0.949 1_556 S
C58 H57 0.949 1_554 S
C58 C59 1.395 . S
C58 C60 1.391 . S
C59 C58 1.395 . S
C59 C62 1.390 . S
C60 C58 1.391 . S
C60 C64 1.387 . S
C60 C65 1.491 . S
H61 C62 0.950 . S
C62 C59 1.390 . S
C62 H61 0.950 . S
C62 C63 1.378 . S
C63 C62 1.378 . S
C63 C64 1.409 . S
C64 C60 1.387 . S
C64 C63 1.409 . S
C64 H66 0.951 . S
C65 C60 1.491 . S
C65 C67 1.382 . S
C65 C69 1.404 . S
H66 C64 0.951 . S
C67 C65 1.382 . S
C67 C68 1.390 . S
C67 H72 0.949 1_554 S
C68 C67 1.390 . S
C68 C73 1.399 . S
C69 C65 1.404 . S
C69 H70 0.950 . S
C69 C71 1.375 . S
H70 C69 0.950 . S
C71 C69 1.375 . S
C71 C73 1.382 . S
C71 H75 0.950 . S
H72 C67 0.949 1_556 S
C73 C68 1.399 . S
C73 C71 1.382 . S
C73 H74 0.952 . S
H74 C73 0.952 . S
H75 C71 0.950 . S
H76 C77 0.949 . S
C77 H76 0.949 . S
C77 C78 1.395 . S
C77 C79 1.391 . S
C78 C77 1.395 . S
C78 C81 1.390 . S
C79 C77 1.391 . S
C79 C83 1.387 . S
C79 C84 1.491 . S
H80 C81 0.950 . S
C81 C78 1.390 . S
C81 H80 0.950 . S
C81 C82 1.378 . S
C82 C81 1.378 . S
C82 C83 1.409 . S
C83 C79 1.387 . S
C83 C82 1.409 . S
C83 H85 0.951 . S
C84 C79 1.491 . S
C84 C86 1.382 . S
C84 C88 1.404 . S
H85 C83 0.951 . S
C86 C84 1.382 . S
C86 C87 1.390 . S
C86 H91 0.949 . S
C87 C86 1.390 . S
C87 C92 1.399 . S
C88 C84 1.404 . S
C88 H89 0.950 . S
C88 C90 1.375 . S
H89 C88 0.950 . S
C90 C88 1.375 . S
C90 C92 1.382 . S
C90 H94 0.950 . S
H91 C86 0.949 . S
C92 C87 1.399 . S
C92 C90 1.382 . S
C92 H93 0.952 . S
H93 C92 0.952 . S
H94 C90 0.950 . S
H95 C96 0.949 . S
C96 H95 0.949 . S
C96 C97 1.395 . S
C96 C98 1.391 . S
C97 C96 1.395 . S
C97 C100 1.390 . S
C98 C96 1.391 . S
C98 C102 1.387 . S
C98 C103 1.491 . S
H99 C100 0.950 . S
C100 C97 1.390 . S
C100 H99 0.950 . S
C100 C101 1.378 . S
C101 C100 1.378 . S
C101 C102 1.409 . S
C102 C98 1.387 . S
C102 C101 1.409 . S
C102 H104 0.951 . S
C103 C98 1.491 . S
C103 C105 1.382 . S
C103 C107 1.404 . S
H104 C102 0.951 . S
C105 C103 1.382 . S
C105 C106 1.390 . S
C105 H110 0.949 . S
C106 C105 1.390 . S
C106 C111 1.399 . S
C107 C103 1.404 . S
C107 H108 0.950 1_455 S
C107 C109 1.375 1_455 S
H108 C107 0.950 1_655 S
C109 C107 1.375 1_655 S
C109 C111 1.382 1_655 S
C109 H113 0.950 . S
H110 C105 0.949 . S
C111 C106 1.399 . S
C111 C109 1.382 1_455 S
C111 H112 0.952 . S
H112 C111 0.952 . S
H113 C109 0.950 . S
H114 C115 0.949 . S
C115 H114 0.949 . S
C115 C116 1.395 . S
C115 C117 1.391 . S
C116 C115 1.395 . S
C116 C119 1.390 . S
C117 C115 1.391 . S
C117 C121 1.387 . S
C117 C122 1.491 . S
H118 C119 0.950 . S
C119 C116 1.390 . S
C119 H118 0.950 . S
C119 C120 1.378 . S
C120 C119 1.378 . S
C120 C121 1.409 . S
C121 C117 1.387 . S
C121 C120 1.409 . S
C121 H123 0.951 . S
C122 C117 1.491 . S
C122 C124 1.382 . S
C122 C126 1.404 . S
H123 C121 0.951 . S
C124 C122 1.382 . S
C124 C125 1.390 . S
C124 H129 0.949 . S
C125 C124 1.390 . S
C125 C130 1.399 . S
C126 C122 1.404 . S
C126 H127 0.950 . S
C126 C128 1.375 . S
H127 C126 0.950 . S
C128 C126 1.375 . S
C128 C130 1.382 . S
C128 H132 0.950 1_545 S
H129 C124 0.949 . S
C130 C125 1.399 . S
C130 C128 1.382 . S
C130 H131 0.952 . S
H131 C130 0.952 . S
H132 C128 0.950 1_565 S
H133 C134 0.949 . S
C134 H133 0.949 . S
C134 C135 1.395 . S
C134 C136 1.391 . S
C135 C134 1.395 . S
C135 C138 1.390 . S
C136 C134 1.391 . S
C136 C140 1.387 . S
C136 C141 1.491 . S
H137 C138 0.950 . S
C138 C135 1.390 . S
C138 H137 0.950 . S
C138 C139 1.378 . S
C139 C138 1.378 . S
C139 C140 1.409 . S
C140 C136 1.387 . S
C140 C139 1.409 . S
C140 H142 0.951 . S
C141 C136 1.491 . S
C141 C143 1.382 . S
C141 C145 1.404 . S
H142 C140 0.951 . S
C143 C141 1.382 . S
C143 C144 1.390 . S
C143 H148 0.949 . S
C144 C143 1.390 . S
C144 C149 1.399 . S
C145 C141 1.404 . S
C145 H146 0.950 . S
C145 C147 1.375 . S
H146 C145 0.950 . S
C147 C145 1.375 . S
C147 C149 1.382 . S
C147 H151 0.950 . S
H148 C143 0.949 . S
C149 C144 1.399 . S
C149 C147 1.382 . S
C149 H150 0.952 . S
H150 C149 0.952 . S
H151 C147 0.950 . S
Tb152 O155 2.453 1_565 S
Tb152 O156 2.596 1_665 S
Tb152 O157 2.374 1_665 S
Tb152 O165 2.343 1_655 S
Tb152 O167 2.353 1_565 S
Tb152 O169 2.427 . S
Tb152 O170 2.513 1_655 S
C153 O157 1.251 . S
C153 O159 1.263 . S
Tb154 O156 2.343 . S
Tb154 O159 2.353 . S
Tb154 O162 2.427 . S
Tb154 O163 2.513 1_455 S
Tb154 O164 2.453 1_545 S
Tb154 O165 2.596 1_545 S
Tb154 O166 2.374 1_455 S
O155 Tb152 2.453 1_545 S
O155 C171 1.245 1_655 S
O156 Tb152 2.596 1_445 S
O156 Tb154 2.343 . S
O156 C171 1.259 . S
O157 Tb152 2.374 1_445 S
O157 C153 1.251 . S
C158 O162 1.275 . S
C158 O163 1.246 1_455 S
O159 C153 1.263 . S
O159 Tb154 2.353 . S
C160 O164 1.245 . S
C160 O165 1.259 . S
C161 O166 1.250 . S
C161 O167 1.263 . S
O162 Tb154 2.427 . S
O162 C158 1.275 . S
O163 Tb154 2.513 1_655 S
O163 C158 1.246 1_655 S
O164 Tb154 2.453 1_565 S
O164 C160 1.245 . S
O165 Tb152 2.343 1_455 S
O165 Tb154 2.596 1_565 S
O165 C160 1.259 . S
O166 Tb154 2.374 1_655 S
O166 C161 1.250 . S
O167 Tb152 2.353 1_545 S
O167 C161 1.263 . S
C168 O169 1.275 . S
C168 O170 1.246 1_655 S
O169 Tb152 2.427 . S
O169 C168 1.275 . S
O170 Tb152 2.513 1_455 S
O170 C168 1.246 1_455 S
C171 O155 1.245 1_455 S
C171 O156 1.259 . S
Tb172 O175 2.453 . S
Tb172 O176 2.596 1_545 S
Tb172 O177 2.374 . S
Tb172 O185 2.343 . S
Tb172 O187 2.353 . S
Tb172 O189 2.427 . S
Tb172 O190 2.513 . S
C173 O177 1.251 1_565 S
C173 O179 1.263 . S
Tb174 O176 2.343 . S
Tb174 O179 2.353 . S
Tb174 O182 2.427 . S
Tb174 O183 2.513 . S
Tb174 O184 2.453 . S
Tb174 O185 2.596 1_565 S
Tb174 O186 2.374 . S
O175 Tb172 2.453 . S
O175 C191 1.245 . S
O176 Tb172 2.596 1_565 S
O176 Tb174 2.343 . S
O176 C191 1.259 1_565 S
O177 Tb172 2.374 . S
O177 C173 1.251 1_545 S
C178 O182 1.275 . S
C178 O183 1.246 . S
O179 C173 1.263 . S
O179 Tb174 2.353 . S
C180 O184 1.245 1_545 S
C180 O185 1.259 . S
C181 O186 1.250 1_545 S
C181 O187 1.263 . S
O182 Tb174 2.427 . S
O182 C178 1.275 . S
O183 Tb174 2.513 . S
O183 C178 1.246 . S
O184 Tb174 2.453 . S
O184 C180 1.245 1_565 S
O185 Tb172 2.343 . S
O185 Tb174 2.596 1_545 S
O185 C180 1.259 . S
O186 Tb174 2.374 . S
O186 C181 1.250 1_565 S
O187 Tb172 2.353 . S
O187 C181 1.263 . S
C188 O189 1.275 . S
C188 O190 1.246 . S
O189 Tb172 2.427 . S
O189 C188 1.275 . S
O190 Tb172 2.513 . S
O190 C188 1.246 . S
C191 O175 1.245 . S
C191 O176 1.259 1_545 S
Tb192 O195 2.453 . S
Tb192 O196 2.596 . S
Tb192 O197 2.374 . S
Tb192 O205 2.343 . S
Tb192 O207 2.353 . S
Tb192 O209 2.427 . S
Tb192 O210 2.513 . S
C193 O197 1.251 . S
C193 O199 1.263 . S
Tb194 O196 2.343 . S
Tb194 O199 2.353 . S
Tb194 O202 2.427 . S
Tb194 O203 2.513 . S
Tb194 O204 2.453 . S
Tb194 O205 2.596 . S
Tb194 O206 2.374 . S
O195 Tb192 2.453 . S
O195 C211 1.245 . S
O196 Tb192 2.596 . S
O196 Tb194 2.343 . S
O196 C211 1.259 . S
O197 Tb192 2.374 . S
O197 C193 1.251 . S
C198 O202 1.275 . S
C198 O203 1.246 . S
O199 C193 1.263 . S
O199 Tb194 2.353 . S
C200 O204 1.245 . S
C200 O205 1.259 . S
C201 O206 1.250 . S
C201 O207 1.263 . S
O202 Tb194 2.427 . S
O202 C198 1.275 . S
O203 Tb194 2.513 . S
O203 C198 1.246 . S
O204 Tb194 2.453 . S
O204 C200 1.245 . S
O205 Tb192 2.343 . S
O205 Tb194 2.596 . S
O205 C200 1.259 . S
O206 Tb194 2.374 . S
O206 C201 1.250 . S
O207 Tb192 2.353 . S
O207 C201 1.263 . S
C208 O209 1.275 . S
C208 O210 1.246 . S
O209 Tb192 2.427 . S
O209 C208 1.275 . S
O210 Tb192 2.513 . S
O210 C208 1.246 . S
C211 O195 1.245 . S
C211 O196 1.259 . S
Tb212 O215 2.453 1_655 S
Tb212 O216 2.596 1_655 S
Tb212 O217 2.373 1_655 S
Tb212 O225 2.343 . S
Tb212 O227 2.353 1_655 S
Tb212 O229 2.427 . S
Tb212 O230 2.513 . S
C213 O217 1.253 . S
C213 O219 1.263 . S
Tb214 O216 2.343 . S
Tb214 O219 2.353 . S
Tb214 O222 2.427 . S
Tb214 O223 2.513 . S
Tb214 O224 2.453 1_455 S
Tb214 O225 2.596 1_455 S
Tb214 O226 2.374 . S
O215 Tb212 2.453 1_455 S
O215 C231 1.245 . S
O216 Tb212 2.596 1_455 S
O216 Tb214 2.343 . S
O216 C231 1.259 . S
O217 Tb212 2.373 1_455 S
O217 C213 1.253 . S
C218 O222 1.275 . S
C218 O223 1.246 . S
O219 C213 1.263 . S
O219 Tb214 2.353 . S
C220 O224 1.245 . S
C220 O225 1.259 . S
C221 O226 1.250 . S
C221 O227 1.263 . S
O222 Tb214 2.427 . S
O222 C218 1.275 . S
O223 Tb214 2.513 . S
O223 C218 1.246 . S
O224 Tb214 2.453 1_655 S
O224 C220 1.245 . S
O225 Tb212 2.343 . S
O225 Tb214 2.596 1_655 S
O225 C220 1.259 . S
O226 Tb214 2.374 . S
O226 C221 1.250 . S
O227 Tb212 2.353 1_455 S
O227 C221 1.263 . S
C228 O229 1.275 . S
C228 O230 1.246 . S
O229 Tb212 2.427 . S
O229 C228 1.275 . S
O230 Tb212 2.513 . S
O230 C228 1.246 . S
C231 O215 1.245 . S
C231 O216 1.259 . S
C232 C233 1.387 . S
C232 H236 0.950 1_545 S
C232 C241 1.390 . S
C233 C232 1.387 . S
C233 C235 1.387 . S
H234 C241 0.950 1_565 S
C235 C233 1.387 . S
C235 C237 1.390 . S
C235 H239 0.950 . S
H236 C232 0.950 1_565 S
C237 C235 1.390 . S
C237 C238 1.387 . S
C237 H240 0.950 . S
C238 C237 1.387 . S
C238 C241 1.387 . S
H239 C235 0.950 . S
H240 C237 0.950 . S
C241 C232 1.390 . S
C241 H234 0.950 1_545 S
C241 C238 1.387 . S
C242 C243 1.387 . S
C242 H246 0.950 . S
C242 C251 1.390 . S
C243 C242 1.387 . S
C243 C245 1.387 . S
H244 C251 0.950 . S
C245 C243 1.387 . S
C245 C247 1.390 . S
C245 H249 0.950 . S
H246 C242 0.950 . S
C247 C245 1.390 . S
C247 C248 1.387 . S
C247 H250 0.950 . S
C248 C247 1.387 . S
C248 C251 1.387 . S
H249 C245 0.950 . S
H250 C247 0.950 . S
C251 C242 1.390 . S
C251 H244 0.950 . S
C251 C248 1.387 . S
C252 C253 1.387 . S
C252 H256 0.950 . S
C252 C261 1.390 . S
C253 C252 1.387 . S
C253 C255 1.387 . S
H254 C261 0.950 . S
C255 C253 1.387 . S
C255 C257 1.390 . S
C255 H259 0.950 . S
H256 C252 0.950 . S
C257 C255 1.390 . S
C257 C258 1.387 . S
C257 H260 0.950 . S
C258 C257 1.387 . S
C258 C261 1.387 . S
H259 C255 0.950 . S
H260 C257 0.950 . S
C261 C252 1.390 . S
C261 H254 0.950 . S
C261 C258 1.387 . S
C262 C263 1.387 . S
C262 H266 0.950 . S
C262 C271 1.390 . S
C263 C262 1.387 . S
C263 C265 1.387 . S
H264 C271 0.950 . S
C265 C263 1.387 . S
C265 C267 1.390 . S
C265 H269 0.950 . S
H266 C262 0.950 . S
C267 C265 1.390 . S
C267 C268 1.387 . S
C267 H270 0.950 . S
C268 C267 1.387 . S
C268 C271 1.387 . S
H269 C265 0.950 . S
H270 C267 0.950 . S
C271 C262 1.390 . S
C271 H264 0.950 . S
C271 C268 1.387 . S
C272 C273 1.387 . S
C272 H276 0.950 . S
C272 C281 1.390 . S
C273 C272 1.387 . S
C273 C275 1.387 . S
H274 C281 0.950 1_545 S
C275 C273 1.387 . S
C275 C277 1.390 . S
C275 H279 0.950 1_556 S
H276 C272 0.950 . S
C277 C275 1.390 . S
C277 C278 1.387 . S
C277 H280 0.950 . S
C278 C277 1.387 . S
C278 C281 1.387 . S
H279 C275 0.950 1_554 S
H280 C277 0.950 . S
C281 C272 1.390 . S
C281 H274 0.950 1_565 S
C281 C278 1.387 . S
C282 C283 1.387 . S
C282 H286 0.950 . S
C282 C291 1.390 . S
C283 C282 1.387 . S
C283 C285 1.387 1_556 S
H284 C291 0.950 . S
C285 C283 1.387 1_554 S
C285 C287 1.390 1_554 S
C285 H289 0.950 . S
H286 C282 0.950 . S
C287 C285 1.390 1_556 S
C287 C288 1.387 . S
C287 H290 0.950 1_556 S
C288 C287 1.387 . S
C288 C291 1.387 . S
H289 C285 0.950 . S
H290 C287 0.950 1_554 S
C291 C282 1.390 . S
C291 H284 0.950 . S
C291 C288 1.387 . S
C292 C293 1.387 . S
C292 H296 0.950 . S
C292 C301 1.390 . S
C293 C292 1.387 . S
C293 C295 1.387 . S
H294 C301 0.950 . S
C295 C293 1.387 . S
C295 C297 1.390 . S
C295 H299 0.950 . S
H296 C292 0.950 . S
C297 C295 1.390 . S
C297 C298 1.387 . S
C297 H300 0.950 . S
C298 C297 1.387 . S
C298 C301 1.387 . S
H299 C295 0.950 . S
H300 C297 0.950 . S
C301 C292 1.390 . S
C301 H294 0.950 . S
C301 C298 1.387 . S
C302 C303 1.387 . S
C302 H306 0.950 1_556 S
C302 C311 1.390 . S
C303 C302 1.387 . S
C303 C305 1.387 . S
H304 C311 0.950 . S
C305 C303 1.387 . S
C305 C307 1.390 . S
C305 H309 0.950 . S
H306 C302 0.950 1_554 S
C307 C305 1.390 . S
C307 C308 1.387 . S
C307 H310 0.950 1_655 S
C308 C307 1.387 . S
C308 C311 1.387 . S
H309 C305 0.950 . S
H310 C307 0.950 1_455 S
C311 C302 1.390 . S
C311 H304 0.950 . S
C311 C308 1.387 . S
C312 C313 1.387 . S
C312 H316 0.950 . S
C312 C321 1.390 . S
C313 C312 1.387 . S
C313 C315 1.387 . S
H314 C321 0.950 . S
C315 C313 1.387 . S
C315 C317 1.390 . S
C315 H319 0.950 . S
H316 C312 0.950 . S
C317 C315 1.390 . S
C317 C318 1.387 . S
C317 H320 0.958 . S
C318 C317 1.387 . S
C318 C321 1.387 . S
H319 C315 0.950 . S
H320 C317 0.958 . S
C321 C312 1.390 . S
C321 H314 0.950 . S
C321 C318 1.387 . S
C322 C323 1.387 . S
C322 H326 0.950 . S
C322 C331 1.390 . S
C323 C322 1.387 . S
C323 C325 1.387 . S
H324 C331 0.950 . S
C325 C323 1.387 . S
C325 C327 1.390 . S
C325 H329 0.950 . S
H326 C322 0.950 . S
C327 C325 1.390 . S
C327 C328 1.387 . S
C327 H330 0.950 . S
C328 C327 1.387 . S
C328 C331 1.387 . S
H329 C325 0.950 . S
H330 C327 0.950 . S
C331 C322 1.390 . S
C331 H324 0.950 . S
C331 C328 1.387 . S
C332 C333 1.387 . S
C332 H336 0.950 . S
C332 C341 1.390 . S
C333 C332 1.387 . S
C333 C335 1.387 . S
H334 C341 0.950 . S
C335 C333 1.387 . S
C335 C337 1.390 . S
C335 H339 0.950 . S
H336 C332 0.950 . S
C337 C335 1.390 . S
C337 C338 1.387 . S
C337 H340 0.950 . S
C338 C337 1.387 . S
C338 C341 1.387 . S
H339 C335 0.950 . S
H340 C337 0.950 . S
C341 C332 1.390 . S
C341 H334 0.950 . S
C341 C338 1.387 . S
C342 C343 1.387 . S
C342 H346 0.950 . S
C342 C351 1.390 . S
C343 C342 1.387 . S
C343 C345 1.387 . S
H344 C351 0.950 . S
C345 C343 1.387 . S
C345 C347 1.390 . S
C345 H349 0.950 . S
H346 C342 0.950 . S
C347 C345 1.390 . S
C347 C348 1.387 . S
C347 H350 0.950 . S
C348 C347 1.387 . S
C348 C351 1.387 . S
H349 C345 0.950 . S
H350 C347 0.950 . S
C351 C342 1.390 . S
C351 H344 0.950 . S
C351 C348 1.387 . S
C352 C353 1.387 . S
C352 H356 0.950 . S
C352 C361 1.390 . S
C353 C352 1.387 . S
C353 C355 1.387 . S
H354 C361 0.950 1_455 S
C355 C353 1.387 . S
C355 C357 1.390 . S
C355 H359 0.950 1_556 S
H356 C352 0.950 . S
C357 C355 1.390 . S
C357 C358 1.387 . S
C357 H360 0.950 . S
C358 C357 1.387 . S
C358 C361 1.387 . S
H359 C355 0.950 1_554 S
H360 C357 0.950 . S
C361 C352 1.390 . S
C361 H354 0.950 1_655 S
C361 C358 1.387 . S
C362 C363 1.387 . S
C362 H366 0.950 . S
C362 C371 1.390 . S
C363 C362 1.387 . S
C363 C365 1.387 1_556 S
H364 C371 0.950 . S
C365 C363 1.387 1_554 S
C365 C367 1.390 1_554 S
C365 H369 0.950 . S
H366 C362 0.950 . S
C367 C365 1.390 1_556 S
C367 C368 1.387 . S
C367 H370 0.950 1_566 S
C368 C367 1.387 . S
C368 C371 1.387 . S
H369 C365 0.950 . S
H370 C367 0.950 1_544 S
C371 C362 1.390 . S
C371 H364 0.950 . S
C371 C368 1.387 . S
C372 C373 1.387 . S
C372 H376 0.950 . S
C372 C381 1.390 . S
C373 C372 1.387 . S
C373 C375 1.387 1_556 S
H374 C381 0.950 . S
C375 C373 1.387 1_554 S
C375 C377 1.390 1_554 S
C375 H379 0.950 . S
H376 C372 0.950 . S
C377 C375 1.390 1_556 S
C377 C378 1.387 . S
C377 H380 0.950 1_556 S
C378 C377 1.387 . S
C378 C381 1.387 . S
H379 C375 0.950 . S
H380 C377 0.950 1_554 S
C381 C372 1.390 . S
C381 H374 0.950 . S
C381 C378 1.387 . S
C382 C383 1.387 . S
C382 H386 0.950 . S
C382 C391 1.390 . S
C383 C382 1.387 . S
C383 C385 1.387 . S
H384 C391 0.950 . S
C385 C383 1.387 . S
C385 C387 1.390 . S
C385 H389 0.950 . S
H386 C382 0.950 . S
C387 C385 1.390 . S
C387 C388 1.387 . S
C387 H390 0.950 . S
C388 C387 1.387 . S
C388 C391 1.387 . S
H389 C385 0.950 . S
H390 C387 0.950 . S
C391 C382 1.390 . S
C391 H384 0.950 . S
C391 C388 1.387 . S
C392 C393 1.387 . S
C392 H396 0.950 . S
C392 C401 1.390 . S
C393 C392 1.387 . S
C393 C395 1.387 . S
H394 C401 0.950 1_655 S
C395 C393 1.387 . S
C395 C397 1.390 . S
C395 H399 0.950 . S
H396 C392 0.950 . S
C397 C395 1.390 . S
C397 C398 1.387 . S
C397 H400 0.950 1_554 S
C398 C397 1.387 . S
C398 C401 1.387 . S
H399 C395 0.950 . S
H400 C397 0.950 1_556 S
C401 C392 1.390 . S
C401 H394 0.950 1_455 S
C401 C398 1.387 . S
C402 C403 1.387 . S
C402 H406 0.950 . S
C402 C411 1.390 . S
C403 C402 1.387 . S
C403 C405 1.387 . S
H404 C411 0.950 1_565 S
C405 C403 1.387 . S
C405 C407 1.390 1_554 S
C405 H409 0.950 . S
H406 C402 0.950 . S
C407 C405 1.390 1_556 S
C407 C408 1.387 1_556 S
C407 H410 0.950 . S
C408 C407 1.387 1_554 S
C408 C411 1.387 . S
H409 C405 0.950 . S
H410 C407 0.950 . S
C411 C402 1.390 . S
C411 H404 0.950 1_545 S
C411 C408 1.387 . S
C412 C413 1.387 . S
C412 H416 0.950 . S
C412 C421 1.390 . S
C413 C412 1.387 . S
C413 C415 1.387 . S
H414 C421 0.950 . S
C415 C413 1.387 . S
C415 C417 1.390 1_554 S
C415 H419 0.950 . S
H416 C412 0.950 . S
C417 C415 1.390 1_556 S
C417 C418 1.387 1_556 S
C417 H420 0.950 . S
C418 C417 1.387 1_554 S
C418 C421 1.387 . S
H419 C415 0.950 . S
H420 C417 0.950 . S
C421 C412 1.390 . S
C421 H414 0.950 . S
C421 C418 1.387 . S
C422 C423 1.387 . S
C422 H426 0.950 . S
C422 C431 1.390 . S
C423 C422 1.387 . S
C423 C425 1.387 . S
H424 C431 0.950 1_556 S
C425 C423 1.387 . S
C425 C427 1.390 . S
C425 H429 0.950 . S
H426 C422 0.950 . S
C427 C425 1.390 . S
C427 C428 1.387 . S
C427 H430 0.950 . S
C428 C427 1.387 . S
C428 C431 1.387 . S
H429 C425 0.950 . S
H430 C427 0.950 . S
C431 C422 1.390 . S
C431 H424 0.950 1_554 S
C431 C428 1.387 . S
C432 C433 1.387 . S
C432 H436 0.950 . S
C432 C441 1.390 . S
C433 C432 1.387 . S
C433 C435 1.415 . S
H434 C441 0.950 . S
C435 C433 1.415 . S
C435 C437 1.384 1_655 S
C435 H439 0.929 1_655 S
H436 C432 0.950 . S
C437 C435 1.384 1_455 S
C437 C438 1.387 1_455 S
C437 H440 0.950 . S
C438 C437 1.387 1_655 S
C438 C441 1.387 . S
H439 C435 0.929 1_455 S
H440 C437 0.950 . S
C441 C432 1.390 . S
C441 H434 0.950 . S
C441 C438 1.387 . S
C442 C443 1.387 . S
C442 H446 0.950 . S
C442 C451 1.390 . S
C443 C442 1.387 . S
C443 C445 1.387 . S
H444 C451 0.950 1_545 S
C445 C443 1.387 . S
C445 C447 1.390 . S
C445 H449 0.950 . S
H446 C442 0.950 . S
C447 C445 1.390 . S
C447 C448 1.387 . S
C447 H450 0.950 . S
C448 C447 1.387 . S
C448 C451 1.387 . S
H449 C445 0.950 . S
H450 C447 0.950 . S
C451 C442 1.390 . S
C451 H444 0.950 1_565 S
C451 C448 1.387 . S
C452 C453 1.387 . S
C452 H456 0.950 . S
C452 C461 1.390 . S
C453 C452 1.387 . S
C453 C455 1.387 . S
H454 C461 0.950 . S
C455 C453 1.387 . S
C455 C457 1.390 . S
C455 H459 0.950 . S
H456 C452 0.950 . S
C457 C455 1.390 . S
C457 C458 1.387 . S
C457 H460 0.950 . S
C458 C457 1.387 . S
C458 C461 1.387 . S
H459 C455 0.950 . S
H460 C457 0.950 . S
C461 C452 1.390 . S
C461 H454 0.950 . S
C461 C458 1.387 . S
C462 C463 1.387 . S
C462 H466 0.950 . S
C462 C471 1.390 . S
C463 C462 1.387 . S
C463 C465 1.387 . S
H464 C471 0.950 . S
C465 C463 1.387 . S
C465 C467 1.390 . S
C465 H469 0.950 . S
H466 C462 0.950 . S
C467 C465 1.390 . S
C467 C468 1.387 . S
C467 H470 0.950 . S
C468 C467 1.387 . S
C468 C471 1.387 . S
H469 C465 0.950 . S
H470 C467 0.950 . S
C471 C462 1.390 . S
C471 H464 0.950 . S
C471 C468 1.387 . S
C233 C125 1.471 . S
C238 C153 1.642 . S
C248 C188 1.586 . S
C243 C144 1.402 . S
C258 C193 1.421 . S
C253 C87 1.313 . S
C268 C213 1.562 . S
C263 C106 1.364 . S
C278 C161 1.641 1_565 S
C273 C49 1.593 1_556 S
C283 C68 1.555 1_556 S
C288 C178 1.586 . S
C293 C11 1.384 1_556 S
C298 C201 1.420 . S
C303 C30 1.476 . S
C308 C221 1.562 1_655 S
C318 C171 1.509 . S
C313 C97 1.423 . S
C328 C180 1.305 . S
C323 C116 1.246 . S
C338 C211 1.508 . S
C333 C135 1.436 . S
C343 C78 1.164 . S
C348 C231 1.202 . S
C353 C21 1.424 . S
C358 C160 1.510 1_655 S
C368 C191 1.305 1_565 S
C363 C40 1.248 1_556 S
C378 C200 1.508 . S
C373 C59 1.439 1_556 S
C383 C2 1.163 . S
C388 C220 1.203 . S
C393 C101 1.448 . S
C398 C158 1.447 1_554 S
C403 C120 1.512 . S
C408 C181 1.573 1_554 S
C418 C198 1.541 1_554 S
C413 C139 1.499 . S
C428 C218 1.563 1_554 S
C423 C82 1.548 . S
C433 C25 1.451 . S
C438 C168 1.446 . S
C448 C173 1.572 . S
C443 C44 1.519 . S
C458 C208 1.540 . S
C453 C63 1.507 . S
C463 C6 1.551 . S
C468 C228 1.563 . S
