# Generated by pormake.
# Topology eea, (3,6)-cn, num edge types: 1
# Building blocks:
#     Node 0, Type 0, BuildingBlock: VETTIZ_charged_linker_0, # of connection points: 3
#     Node 1, Type 0, BuildingBlock: VETTIZ_charged_linker_0, # of connection points: 3
#     Node 2, Type 0, BuildingBlock: VETTIZ_charged_linker_0, # of connection points: 3
#     Node 3, Type 0, BuildingBlock: VETTIZ_charged_linker_0, # of connection points: 3
#     Node 4, Type 0, BuildingBlock: VETTIZ_charged_linker_0, # of connection points: 3
#     Node 5, Type 0, BuildingBlock: VETTIZ_charged_linker_0, # of connection points: 3
#     Node 6, Type 0, BuildingBlock: VETTIZ_charged_linker_0, # of connection points: 3
#     Node 7, Type 0, BuildingBlock: VETTIZ_charged_linker_0, # of connection points: 3
#     Node 8, Type 0, BuildingBlock: VETTIZ_charged_linker_0, # of connection points: 3
#     Node 9, Type 0, BuildingBlock: VETTIZ_charged_linker_0, # of connection points: 3
#     Node 10, Type 0, BuildingBlock: VETTIZ_charged_linker_0, # of connection points: 3
#     Node 11, Type 0, BuildingBlock: VETTIZ_charged_linker_0, # of connection points: 3
#     Node 12, Type 0, BuildingBlock: VETTIZ_charged_linker_0, # of connection points: 3
#     Node 13, Type 0, BuildingBlock: VETTIZ_charged_linker_0, # of connection points: 3
#     Node 14, Type 0, BuildingBlock: VETTIZ_charged_linker_0, # of connection points: 3
#     Node 15, Type 0, BuildingBlock: VETTIZ_charged_linker_0, # of connection points: 3
#     Node 16, Type 0, BuildingBlock: VETTIZ_charged_linker_0, # of connection points: 3
#     Node 17, Type 0, BuildingBlock: VETTIZ_charged_linker_0, # of connection points: 3
#     Node 18, Type 1, BuildingBlock: KUMBUR_clean_sbu_0, # of connection points: 6
#     Node 19, Type 1, BuildingBlock: KUMBUR_clean_sbu_0, # of connection points: 6
#     Node 20, Type 1, BuildingBlock: KUMBUR_clean_sbu_0, # of connection points: 6
#     Node 21, Type 1, BuildingBlock: KUMBUR_clean_sbu_0, # of connection points: 6
#     Node 22, Type 1, BuildingBlock: KUMBUR_clean_sbu_0, # of connection points: 6
#     Node 23, Type 1, BuildingBlock: KUMBUR_clean_sbu_0, # of connection points: 6
#     Node 24, Type 1, BuildingBlock: KUMBUR_clean_sbu_0, # of connection points: 6
#     Node 25, Type 1, BuildingBlock: KUMBUR_clean_sbu_0, # of connection points: 6
#     Node 26, Type 1, BuildingBlock: KUMBUR_clean_sbu_0, # of connection points: 6
#     Edge 27, Type (0, 1), BuildingBlock: KIFKEQ_clean_linker_1, # of connection points: 2
#     Edge 28, Type (0, 1), BuildingBlock: KIFKEQ_clean_linker_1, # of connection points: 2
#     Edge 29, Type (0, 1), BuildingBlock: KIFKEQ_clean_linker_1, # of connection points: 2
#     Edge 30, Type (0, 1), BuildingBlock: KIFKEQ_clean_linker_1, # of connection points: 2
#     Edge 31, Type (0, 1), BuildingBlock: KIFKEQ_clean_linker_1, # of connection points: 2
#     Edge 32, Type (0, 1), BuildingBlock: KIFKEQ_clean_linker_1, # of connection points: 2
#     Edge 33, Type (0, 1), BuildingBlock: KIFKEQ_clean_linker_1, # of connection points: 2
#     Edge 34, Type (0, 1), BuildingBlock: KIFKEQ_clean_linker_1, # of connection points: 2
#     Edge 35, Type (0, 1), BuildingBlock: KIFKEQ_clean_linker_1, # of connection points: 2
#     Edge 36, Type (0, 1), BuildingBlock: KIFKEQ_clean_linker_1, # of connection points: 2
#     Edge 37, Type (0, 1), BuildingBlock: KIFKEQ_clean_linker_1, # of connection points: 2
#     Edge 38, Type (0, 1), BuildingBlock: KIFKEQ_clean_linker_1, # of connection points: 2
#     Edge 39, Type (0, 1), BuildingBlock: KIFKEQ_clean_linker_1, # of connection points: 2
#     Edge 40, Type (0, 1), BuildingBlock: KIFKEQ_clean_linker_1, # of connection points: 2
#     Edge 41, Type (0, 1), BuildingBlock: KIFKEQ_clean_linker_1, # of connection points: 2
#     Edge 42, Type (0, 1), BuildingBlock: KIFKEQ_clean_linker_1, # of connection points: 2
#     Edge 43, Type (0, 1), BuildingBlock: KIFKEQ_clean_linker_1, # of connection points: 2
#     Edge 44, Type (0, 1), BuildingBlock: KIFKEQ_clean_linker_1, # of connection points: 2
#     Edge 45, Type (0, 1), BuildingBlock: KIFKEQ_clean_linker_1, # of connection points: 2
#     Edge 46, Type (0, 1), BuildingBlock: KIFKEQ_clean_linker_1, # of connection points: 2
#     Edge 47, Type (0, 1), BuildingBlock: KIFKEQ_clean_linker_1, # of connection points: 2
#     Edge 48, Type (0, 1), BuildingBlock: KIFKEQ_clean_linker_1, # of connection points: 2
#     Edge 49, Type (0, 1), BuildingBlock: KIFKEQ_clean_linker_1, # of connection points: 2
#     Edge 50, Type (0, 1), BuildingBlock: KIFKEQ_clean_linker_1, # of connection points: 2
#     Edge 51, Type (0, 1), BuildingBlock: KIFKEQ_clean_linker_1, # of connection points: 2
#     Edge 52, Type (0, 1), BuildingBlock: KIFKEQ_clean_linker_1, # of connection points: 2
#     Edge 53, Type (0, 1), BuildingBlock: KIFKEQ_clean_linker_1, # of connection points: 2
#     Edge 54, Type (0, 1), BuildingBlock: KIFKEQ_clean_linker_1, # of connection points: 2
#     Edge 55, Type (0, 1), BuildingBlock: KIFKEQ_clean_linker_1, # of connection points: 2
#     Edge 56, Type (0, 1), BuildingBlock: KIFKEQ_clean_linker_1, # of connection points: 2
#     Edge 57, Type (0, 1), BuildingBlock: KIFKEQ_clean_linker_1, # of connection points: 2
#     Edge 58, Type (0, 1), BuildingBlock: KIFKEQ_clean_linker_1, # of connection points: 2
#     Edge 59, Type (0, 1), BuildingBlock: KIFKEQ_clean_linker_1, # of connection points: 2
#     Edge 60, Type (0, 1), BuildingBlock: KIFKEQ_clean_linker_1, # of connection points: 2
#     Edge 61, Type (0, 1), BuildingBlock: KIFKEQ_clean_linker_1, # of connection points: 2
#     Edge 62, Type (0, 1), BuildingBlock: KIFKEQ_clean_linker_1, # of connection points: 2
#     Edge 63, Type (0, 1), BuildingBlock: KIFKEQ_clean_linker_1, # of connection points: 2
#     Edge 64, Type (0, 1), BuildingBlock: KIFKEQ_clean_linker_1, # of connection points: 2
#     Edge 65, Type (0, 1), BuildingBlock: KIFKEQ_clean_linker_1, # of connection points: 2
#     Edge 66, Type (0, 1), BuildingBlock: KIFKEQ_clean_linker_1, # of connection points: 2
#     Edge 67, Type (0, 1), BuildingBlock: KIFKEQ_clean_linker_1, # of connection points: 2
#     Edge 68, Type (0, 1), BuildingBlock: KIFKEQ_clean_linker_1, # of connection points: 2
#     Edge 69, Type (0, 1), BuildingBlock: KIFKEQ_clean_linker_1, # of connection points: 2
#     Edge 70, Type (0, 1), BuildingBlock: KIFKEQ_clean_linker_1, # of connection points: 2
#     Edge 71, Type (0, 1), BuildingBlock: KIFKEQ_clean_linker_1, # of connection points: 2
#     Edge 72, Type (0, 1), BuildingBlock: KIFKEQ_clean_linker_1, # of connection points: 2
#     Edge 73, Type (0, 1), BuildingBlock: KIFKEQ_clean_linker_1, # of connection points: 2
#     Edge 74, Type (0, 1), BuildingBlock: KIFKEQ_clean_linker_1, # of connection points: 2
#     Edge 75, Type (0, 1), BuildingBlock: KIFKEQ_clean_linker_1, # of connection points: 2
#     Edge 76, Type (0, 1), BuildingBlock: KIFKEQ_clean_linker_1, # of connection points: 2
#     Edge 77, Type (0, 1), BuildingBlock: KIFKEQ_clean_linker_1, # of connection points: 2
#     Edge 78, Type (0, 1), BuildingBlock: KIFKEQ_clean_linker_1, # of connection points: 2
#     Edge 79, Type (0, 1), BuildingBlock: KIFKEQ_clean_linker_1, # of connection points: 2
#     Edge 80, Type (0, 1), BuildingBlock: KIFKEQ_clean_linker_1, # of connection points: 2
# Relax obj value: 0.010
# Max RMSD: 0.096
# Mean RMSD: 0.061
data_MOF--net-eea--node1-KUMBUR_clean_sbu_0--node2-VETTIZ_charged_linker_0--edge1-KIFKEQ_clean_linker_1
_symmetry_space_group_name_H-M    P1
_symmetry_Int_Tables_number       1
_symmetry_cell_setting            triclinic
loop_
_symmetry_equiv_pos_as_xyz
'x, y, z'
_cell_length_a     62.518214
_cell_length_b     64.077317
_cell_length_c     89.026777
_cell_angle_alpha  89.956932
_cell_angle_beta   90.044672
_cell_angle_gamma 119.95046
loop_
_atom_site_label
_atom_site_type_symbol
_atom_site_fract_x
_atom_site_fract_y
_atom_site_fract_z
_atom_type_partial_charge
C0 C 0.229 0.16777 0.39996 0.0
C1 C 0.23635 0.19112 0.4051 0.0
C2 C 0.24878 0.19875 0.41898 0.0
C3 C 0.24592 0.15991 0.42244 0.0
C4 C 0.23405 0.15259 0.40873 0.0
C5 C 0.2278 0.12738 0.40477 0.0
H6 H 0.23444 0.0279 0.42141 0.0
C7 C 0.24802 0.13968 0.4288 0.0
C8 C 0.23748 0.1206 0.41846 0.0
H9 H 0.20167 0.04117 0.38231 0.0
H10 H 0.21146 0.0798 0.3922 0.0
H11 H 0.28172 0.08216 0.42526 0.0
H12 H 0.20883 0.045 0.44427 0.0
H13 H 0.22764 0.0657 0.458 0.0
H14 H 0.23358 0.04205 0.45216 0.0
H15 H 0.27073 0.05676 0.4377 0.0
H16 H 0.28392 0.08691 0.44486 0.0
C17 C 0.24228 0.12865 0.39034 0.0
C18 C 0.19936 0.11171 0.40331 0.0
C19 C 0.28724 0.14775 0.48016 0.0
C20 C 0.2901 0.13137 0.48926 0.0
C21 C 0.28182 0.10786 0.48397 0.0
C22 C 0.27108 0.10078 0.46971 0.0
C23 C 0.2683 0.1173 0.46071 0.0
C24 C 0.27602 0.14025 0.46605 0.0
C25 C 0.27025 0.15485 0.45524 0.0
C26 C 0.25797 0.13694 0.44253 0.0
C27 C 0.2572 0.11512 0.44574 0.0
C28 C 0.29493 0.17693 0.45025 0.0
C29 C 0.25213 0.16126 0.46305 0.0
C30 C 0.22916 0.03897 0.41499 0.0
C31 C 0.21762 0.03143 0.40087 0.0
C32 C 0.2112 0.04665 0.39299 0.0
C33 C 0.21673 0.06909 0.39881 0.0
C34 C 0.22867 0.07649 0.41276 0.0
C35 C 0.2343 0.06135 0.42073 0.0
C36 C 0.24588 0.07177 0.43571 0.0
C37 C 0.24712 0.09604 0.43512 0.0
C38 C 0.23714 0.09873 0.42162 0.0
C39 C 0.27192 0.0745 0.43604 0.0
C40 C 0.22829 0.05532 0.44825 0.0
H41 H 0.26294 0.1901 0.43816 0.0
H42 H 0.21972 0.16149 0.38926 0.0
H43 H 0.18988 0.11781 0.41128 0.0
H44 H 0.19238 0.09262 0.40625 0.0
H45 H 0.19311 0.11276 0.3918 0.0
H46 H 0.26093 0.14501 0.39039 0.0
H47 H 0.23248 0.12944 0.38013 0.0
H48 H 0.24579 0.11346 0.38926 0.0
H49 H 0.29316 0.16583 0.48409 0.0
H50 H 0.28395 0.09503 0.49083 0.0
H51 H 0.26536 0.08272 0.46626 0.0
H52 H 0.30959 0.17202 0.44904 0.0
H53 H 0.30145 0.1917 0.45863 0.0
H54 H 0.29376 0.18391 0.43913 0.0
H55 H 0.23892 0.1462 0.47034 0.0
H56 H 0.2404 0.16421 0.45506 0.0
H57 H 0.26219 0.17748 0.47026 0.0
H58 H 0.25445 0.2166 0.42324 0.0
C59 C 0.25356 0.18328 0.42768 0.0
C60 C 0.96212 0.17159 0.3976 0.0
C61 C 0.98138 0.19322 0.4035 0.0
C62 C 0.97937 0.19938 0.41848 0.0
C63 C 0.93957 0.16297 0.42116 0.0
C64 C 0.94168 0.1568 0.40658 0.0
C65 C 0.92027 0.13285 0.40206 0.0
H66 H 0.80958 0.03576 0.41849 0.0
C67 C 0.91585 0.14368 0.42734 0.0
C68 C 0.90456 0.12599 0.41615 0.0
H69 H 0.85414 0.04825 0.37884 0.0
H70 H 0.88512 0.08684 0.3886 0.0
H71 H 0.85446 0.05317 0.44124 0.0
H72 H 0.8187 0.08938 0.42209 0.0
H73 H 0.82597 0.09962 0.44068 0.0
H74 H 0.80517 0.06803 0.4371 0.0
H75 H 0.82432 0.047 0.44693 0.0
H76 H 0.85193 0.07048 0.45564 0.0
C77 C 0.93014 0.11535 0.39887 0.0
C78 C 0.90717 0.13693 0.38854 0.0
C79 C 0.8884 0.14948 0.48053 0.0
C80 C 0.86672 0.13455 0.48876 0.0
C81 C 0.84776 0.11382 0.4817 0.0
C82 C 0.85043 0.1077 0.46703 0.0
C83 C 0.87226 0.12245 0.4591 0.0
C84 C 0.89071 0.14313 0.46574 0.0
C85 C 0.91222 0.15696 0.45522 0.0
C86 C 0.90372 0.14087 0.44136 0.0
C87 C 0.88033 0.12063 0.44381 0.0
C88 C 0.93547 0.15836 0.46238 0.0
C89 C 0.91451 0.18177 0.45214 0.0
C90 C 0.82595 0.047 0.4119 0.0
C91 C 0.82949 0.03919 0.39787 0.0
C92 C 0.85116 0.054 0.38969 0.0
C93 C 0.8691 0.07635 0.3954 0.0
C94 C 0.86553 0.08384 0.40955 0.0
C95 C 0.8443 0.06918 0.41759 0.0
C96 C 0.84431 0.07947 0.43277 0.0
C97 C 0.86903 0.10272 0.43251 0.0
C98 C 0.88121 0.10529 0.41883 0.0
C99 C 0.84354 0.06168 0.44487 0.0
C100 C 0.82236 0.08428 0.43335 0.0
H101 H 0.95829 0.19013 0.43858 0.0
H102 H 0.96275 0.16621 0.38616 0.0
H103 H 0.90554 0.15327 0.39033 0.0
H104 H 0.88812 0.12204 0.38686 0.0
H105 H 0.91773 0.13956 0.378 0.0
H106 H 0.94756 0.12067 0.4051 0.0
H107 H 0.93406 0.11502 0.38673 0.0
H108 H 0.91731 0.09677 0.40271 0.0
H109 H 0.90335 0.16558 0.48552 0.0
H110 H 0.83054 0.10233 0.48746 0.0
H111 H 0.83528 0.09166 0.46243 0.0
H112 H 0.93075 0.1411 0.46804 0.0
H113 H 0.9437 0.1729 0.47093 0.0
H114 H 0.94971 0.16121 0.45403 0.0
H115 H 0.89595 0.18 0.45105 0.0
H116 H 0.92399 0.18994 0.44148 0.0
H117 H 0.92432 0.19454 0.46147 0.0
H118 H 0.99405 0.21559 0.42354 0.0
C119 C 0.95861 0.18445 0.42729 0.0
C120 C 0.96035 0.79044 0.39645 0.0
C121 C 0.97889 0.78654 0.40259 0.0
C122 C 0.97673 0.77937 0.41779 0.0
C123 C 0.93803 0.77928 0.4202 0.0
C124 C 0.94025 0.78679 0.40543 0.0
C125 C 0.91893 0.79004 0.4007 0.0
H126 H 0.81215 0.78792 0.41838 0.0
C127 C 0.915 0.77704 0.42645 0.0
C128 C 0.90382 0.78358 0.4151 0.0
H129 H 0.84891 0.80347 0.37537 0.0
H130 H 0.88104 0.79744 0.38594 0.0
H131 H 0.81947 0.74217 0.42536 0.0
H132 H 0.86097 0.81653 0.43908 0.0
H133 H 0.85889 0.79865 0.45461 0.0
H134 H 0.83109 0.79611 0.44671 0.0
H135 H 0.80754 0.75528 0.43833 0.0
H136 H 0.82639 0.74299 0.44455 0.0
C137 C 0.90485 0.77197 0.38787 0.0
C138 C 0.92935 0.8168 0.39636 0.0
C139 C 0.88798 0.74509 0.47963 0.0
C140 C 0.86815 0.74189 0.48873 0.0
C141 C 0.8518 0.7492 0.48315 0.0
C142 C 0.85465 0.7588 0.4686 0.0
C143 C 0.8742 0.76133 0.4595 0.0
C144 C 0.8908 0.75504 0.4652 0.0
C145 C 0.91128 0.76034 0.45426 0.0
C146 C 0.90365 0.7698 0.44082 0.0
C147 C 0.88177 0.77014 0.44388 0.0
C148 C 0.91057 0.73637 0.45063 0.0
C149 C 0.93596 0.77994 0.46123 0.0
C150 C 0.82728 0.79026 0.41131 0.0
C151 C 0.82809 0.79633 0.39604 0.0
C152 C 0.84783 0.79872 0.38714 0.0
C153 C 0.8665 0.79526 0.39332 0.0
C154 C 0.86539 0.78904 0.40857 0.0
C155 C 0.84588 0.78645 0.41727 0.0
C156 C 0.84705 0.77852 0.43305 0.0
C157 C 0.87059 0.77706 0.43245 0.0
C158 C 0.88139 0.78346 0.4181 0.0
C159 C 0.8239 0.75351 0.43562 0.0
C160 C 0.84945 0.7983 0.44404 0.0
H161 H 0.95601 0.77007 0.43796 0.0
H162 H 0.96119 0.79578 0.38482 0.0
H163 H 0.94396 0.82881 0.40441 0.0
H164 H 0.91536 0.82248 0.39675 0.0
H165 H 0.93769 0.82052 0.38496 0.0
H166 H 0.90574 0.75515 0.38922 0.0
H167 H 0.91284 0.77976 0.37673 0.0
H168 H 0.88491 0.76588 0.38779 0.0
H169 H 0.90112 0.74007 0.48372 0.0
H170 H 0.83639 0.74692 0.48992 0.0
H171 H 0.84139 0.76371 0.46497 0.0
H172 H 0.89124 0.7217 0.44877 0.0
H173 H 0.91834 0.73084 0.46004 0.0
H174 H 0.9206 0.73721 0.44025 0.0
H175 H 0.93294 0.7915 0.46928 0.0
H176 H 0.94873 0.79268 0.45274 0.0
H177 H 0.94539 0.77177 0.46742 0.0
H178 H 0.99086 0.77675 0.42302 0.0
C179 C 0.9565 0.77567 0.42655 0.0
C180 C 0.17176 0.21172 0.62159 0.0
C181 C 0.19343 0.21457 0.61477 0.0
C182 C 0.19762 0.22137 0.59947 0.0
C183 C 0.16009 0.22371 0.59841 0.0
C184 C 0.1554 0.21628 0.61323 0.0
C185 C 0.1316 0.21419 0.61873 0.0
H186 H 0.02921 0.22246 0.60447 0.0
C187 C 0.13996 0.22772 0.59303 0.0
C188 C 0.12306 0.22198 0.60488 0.0
H189 H 0.04908 0.20142 0.64594 0.0
H190 H 0.08709 0.20764 0.63471 0.0
H191 H 0.08078 0.26694 0.59928 0.0
H192 H 0.0489 0.1955 0.58092 0.0
H193 H 0.06261 0.21668 0.56626 0.0
H194 H 0.0379 0.21603 0.57698 0.0
H195 H 0.06075 0.25801 0.58325 0.0
H196 H 0.09367 0.27034 0.58133 0.0
C197 C 0.13764 0.23195 0.63197 0.0
C198 C 0.11374 0.18749 0.62279 0.0
C199 C 0.14439 0.26189 0.54054 0.0
C200 C 0.12972 0.26961 0.53304 0.0
C201 C 0.10811 0.2664 0.54011 0.0
C202 C 0.10128 0.25587 0.55442 0.0
C203 C 0.11637 0.24872 0.56193 0.0
C204 C 0.13755 0.25181 0.555 0.0
C205 C 0.15194 0.24423 0.56502 0.0
C206 C 0.13603 0.2363 0.57911 0.0
C207 C 0.11506 0.23872 0.57717 0.0
C208 C 0.17762 0.2666 0.56792 0.0
C209 C 0.15277 0.22293 0.55739 0.0
C210 C 0.04165 0.21894 0.61105 0.0
C211 C 0.03602 0.21115 0.62605 0.0
C212 C 0.05301 0.2074 0.63437 0.0
C213 C 0.07502 0.21094 0.6278 0.0
C214 C 0.08035 0.2186 0.61276 0.0
C215 C 0.0639 0.22277 0.60472 0.0
C216 C 0.07328 0.2323 0.5892 0.0
C217 C 0.09758 0.23225 0.58901 0.0
C218 C 0.1016 0.22408 0.60282 0.0
C219 C 0.07723 0.25816 0.58806 0.0
C220 C 0.05473 0.21435 0.57764 0.0
H221 H 0.18567 0.23122 0.5798 0.0
H222 H 0.16782 0.20657 0.63329 0.0
H223 H 0.11529 0.17531 0.61451 0.0
H224 H 0.09415 0.18264 0.62247 0.0
H225 H 0.11803 0.18309 0.63406 0.0
H226 H 0.15554 0.24878 0.63008 0.0
H227 H 0.1391 0.22391 0.64271 0.0
H228 H 0.12398 0.23796 0.63328 0.0
H229 H 0.16126 0.26439 0.53547 0.0
H230 H 0.09646 0.27208 0.53453 0.0
H231 H 0.0846 0.25391 0.55913 0.0
H232 H 0.17603 0.28303 0.56933 0.0
H233 H 0.19033 0.26983 0.55837 0.0
H234 H 0.18637 0.26531 0.57836 0.0
H235 H 0.13538 0.21132 0.55113 0.0
H236 H 0.15426 0.21071 0.56554 0.0
H237 H 0.16827 0.22946 0.54926 0.0
H238 H 0.21366 0.22308 0.5937 0.0
C239 C 0.1812 0.22596 0.59133 0.0
C240 C 0.78177 0.83038 0.61948 0.0
C241 C 0.77601 0.80787 0.61354 0.0
C242 C 0.76426 0.80086 0.59945 0.0
C243 C 0.76553 0.83916 0.59706 0.0
C244 C 0.77628 0.84562 0.61112 0.0
C245 C 0.78105 0.87009 0.61586 0.0
H246 H 0.78497 0.97434 0.59804 0.0
C247 C 0.76361 0.85965 0.591 0.0
C248 C 0.77268 0.87781 0.60197 0.0
H249 H 0.79837 0.95194 0.64131 0.0
H250 H 0.78974 0.9141 0.63077 0.0
H251 H 0.80972 0.95197 0.57735 0.0
H252 H 0.73478 0.92358 0.59236 0.0
H253 H 0.73388 0.91653 0.57323 0.0
H254 H 0.74913 0.94762 0.57895 0.0
H255 H 0.78984 0.96192 0.56956 0.0
H256 H 0.79043 0.93595 0.56222 0.0
C257 C 0.80911 0.88628 0.61868 0.0
C258 C 0.76465 0.86698 0.62971 0.0
C259 C 0.72987 0.85532 0.5384 0.0
C260 C 0.72825 0.87239 0.52929 0.0
C261 C 0.73746 0.89601 0.53467 0.0
C262 C 0.74759 0.90242 0.54911 0.0
C263 C 0.7487 0.88507 0.55824 0.0
C264 C 0.74041 0.86212 0.55272 0.0
C265 C 0.74465 0.84659 0.56362 0.0
C266 C 0.75586 0.86368 0.57682 0.0
C267 C 0.75796 0.8861 0.57365 0.0
C268 C 0.76316 0.84012 0.55641 0.0
C269 C 0.71932 0.82457 0.56767 0.0
C270 C 0.78585 0.9613 0.60537 0.0
C271 C 0.79275 0.9666 0.62058 0.0
C272 C 0.79383 0.94889 0.62949 0.0
C273 C 0.78848 0.92667 0.62339 0.0
C274 C 0.78159 0.92174 0.60824 0.0
C275 C 0.77999 0.93876 0.59955 0.0
C276 C 0.77063 0.92967 0.58397 0.0
C277 C 0.76698 0.90442 0.58477 0.0
C278 C 0.77385 0.90008 0.59893 0.0
C279 C 0.79102 0.9457 0.57258 0.0
C280 C 0.74589 0.92941 0.58185 0.0
H281 H 0.75035 0.81019 0.58042 0.0
H282 H 0.79036 0.83599 0.63042 0.0
H283 H 0.74844 0.84846 0.63039 0.0
H284 H 0.75654 0.87889 0.62921 0.0
H285 H 0.77517 0.87039 0.64035 0.0
H286 H 0.81987 0.88408 0.60949 0.0
H287 H 0.8146 0.88143 0.62942 0.0
H288 H 0.81513 0.90565 0.61896 0.0
H289 H 0.72333 0.83717 0.53438 0.0
H290 H 0.73638 0.90939 0.52777 0.0
H291 H 0.75407 0.92062 0.55263 0.0
H292 H 0.77646 0.85487 0.54896 0.0
H293 H 0.75345 0.82354 0.54948 0.0
H294 H 0.77488 0.83781 0.56476 0.0
H295 H 0.7051 0.83003 0.56901 0.0
H296 H 0.71952 0.81622 0.57849 0.0
H297 H 0.71291 0.81066 0.55872 0.0
H298 H 0.75966 0.78357 0.59468 0.0
C299 C 0.75904 0.81641 0.59116 0.0
C300 C 0.04615 0.83398 0.62205 0.0
C301 C 0.02692 0.81209 0.61649 0.0
C302 C 0.0284 0.80519 0.60166 0.0
C303 C 0.06797 0.84157 0.59828 0.0
C304 C 0.06627 0.84849 0.61274 0.0
C305 C 0.08765 0.87285 0.61665 0.0
H306 H 0.19731 0.96957 0.59753 0.0
C307 C 0.09118 0.86077 0.59157 0.0
C308 C 0.10265 0.87925 0.60225 0.0
H309 H 0.1553 0.95841 0.63819 0.0
H310 H 0.12342 0.91976 0.62903 0.0
H311 H 0.18559 0.91304 0.5935 0.0
H312 H 0.15335 0.95375 0.57618 0.0
H313 H 0.1495 0.93308 0.56206 0.0
H314 H 0.18027 0.95554 0.56778 0.0
H315 H 0.20097 0.93793 0.58075 0.0
H316 H 0.18098 0.90781 0.57403 0.0
C317 C 0.10161 0.8697 0.63004 0.0
C318 C 0.07753 0.89017 0.61975 0.0
C319 C 0.11749 0.85024 0.5392 0.0
C320 C 0.13761 0.86549 0.53001 0.0
C321 C 0.15507 0.88849 0.53533 0.0
C322 C 0.15283 0.8961 0.5497 0.0
C323 C 0.13275 0.88067 0.55883 0.0
C324 C 0.11527 0.85831 0.55347 0.0
C325 C 0.09444 0.845 0.56446 0.0
C326 C 0.10266 0.86284 0.57742 0.0
C327 C 0.12525 0.88357 0.57408 0.0
C328 C 0.0939 0.82142 0.56897 0.0
C329 C 0.07025 0.84119 0.55713 0.0
C330 C 0.18132 0.95858 0.60447 0.0
C331 C 0.17878 0.96677 0.61862 0.0
C332 C 0.15754 0.95235 0.62724 0.0
C333 C 0.13909 0.92994 0.6219 0.0
C334 C 0.14174 0.92198 0.60768 0.0
C335 C 0.16249 0.93633 0.59916 0.0
C336 C 0.16145 0.92557 0.58398 0.0
C337 C 0.13686 0.90224 0.58489 0.0
C338 C 0.12554 0.90014 0.59886 0.0
C339 C 0.18342 0.92089 0.58285 0.0
C340 C 0.1613 0.94282 0.57179 0.0
H341 H 0.04898 0.81339 0.58144 0.0
H342 H 0.0453 0.83989 0.63332 0.0
H343 H 0.06013 0.88464 0.61346 0.0
H344 H 0.09024 0.90877 0.61591 0.0
H345 H 0.07351 0.89047 0.63188 0.0
H346 H 0.10339 0.85341 0.62846 0.0
H347 H 0.09158 0.8675 0.64075 0.0
H348 H 0.12067 0.88479 0.63126 0.0
H349 H 0.10363 0.8326 0.53526 0.0
H350 H 0.17072 0.90045 0.52843 0.0
H351 H 0.16688 0.91371 0.55314 0.0
H352 H 0.11293 0.82487 0.57113 0.0
H353 H 0.0858 0.80781 0.55986 0.0
H354 H 0.08355 0.81343 0.57942 0.0
H355 H 0.07398 0.85589 0.54906 0.0
H356 H 0.05733 0.84172 0.56539 0.0
H357 H 0.06074 0.8239 0.55087 0.0
H358 H 0.01383 0.78833 0.59718 0.0
C359 C 0.04885 0.81973 0.59257 0.0
C360 C 0.88674 0.50082 0.73634 0.0
C361 C 0.89334 0.52385 0.74186 0.0
C362 C 0.90655 0.53152 0.75551 0.0
C363 C 0.90567 0.49344 0.758 0.0
C364 C 0.8932 0.4861 0.74449 0.0
C365 C 0.88799 0.4614 0.73999 0.0
H366 H 0.8999 0.36405 0.754 0.0
C367 C 0.90916 0.47368 0.76374 0.0
C368 C 0.89894 0.45491 0.75317 0.0
H369 H 0.86476 0.3768 0.71593 0.0
H370 H 0.87363 0.41483 0.72642 0.0
H371 H 0.94615 0.41908 0.75799 0.0
H372 H 0.87399 0.37899 0.7777 0.0
H373 H 0.89257 0.3997 0.79149 0.0
H374 H 0.89967 0.3771 0.78504 0.0
H375 H 0.93642 0.39341 0.77006 0.0
H376 H 0.94877 0.42322 0.77765 0.0
C377 C 0.90206 0.46383 0.72516 0.0
C378 C 0.85963 0.4447 0.73897 0.0
C379 C 0.94957 0.48126 0.81463 0.0
C380 C 0.9533 0.46501 0.82328 0.0
C381 C 0.94613 0.44201 0.81748 0.0
C382 C 0.93553 0.43529 0.80317 0.0
C383 C 0.93172 0.45163 0.79465 0.0
C384 C 0.93846 0.47409 0.80046 0.0
C385 C 0.93169 0.4885 0.79013 0.0
C386 C 0.91986 0.471 0.77717 0.0
C387 C 0.92025 0.44958 0.77982 0.0
C388 C 0.95577 0.51141 0.78529 0.0
C389 C 0.91293 0.49352 0.7984 0.0
C390 C 0.89391 0.37488 0.74793 0.0
C391 C 0.88189 0.36736 0.73395 0.0
C392 C 0.87461 0.38228 0.7265 0.0
C393 C 0.87962 0.40436 0.73268 0.0
C394 C 0.89189 0.41168 0.74654 0.0
C395 C 0.89852 0.39688 0.75403 0.0
C396 C 0.91034 0.40708 0.76898 0.0
C397 C 0.91054 0.43088 0.76895 0.0
C398 C 0.89982 0.4335 0.75575 0.0
C399 C 0.9368 0.41084 0.7688 0.0
C400 C 0.89349 0.38988 0.78151 0.0
H401 H 0.92269 0.52336 0.7739 0.0
H402 H 0.87644 0.49416 0.72599 0.0
H403 H 0.85002 0.44962 0.74758 0.0
H404 H 0.85368 0.42563 0.74129 0.0
H405 H 0.85255 0.44607 0.72778 0.0
H406 H 0.92012 0.4809 0.72499 0.0
H407 H 0.89129 0.46398 0.71527 0.0
H408 H 0.90679 0.44952 0.72368 0.0
H409 H 0.95466 0.49895 0.81895 0.0
H410 H 0.94897 0.42931 0.824 0.0
H411 H 0.93064 0.41761 0.79932 0.0
H412 H 0.97116 0.50755 0.78402 0.0
H413 H 0.96152 0.52596 0.79377 0.0
H414 H 0.95421 0.5183 0.77421 0.0
H415 H 0.89994 0.47768 0.80525 0.0
H416 H 0.90102 0.4967 0.7907 0.0
H417 H 0.92248 0.50916 0.8061 0.0
H418 H 0.91242 0.54933 0.75991 0.0
C419 C 0.91268 0.51646 0.7636 0.0
C420 C 0.62841 0.50156 0.72891 0.0
C421 C 0.64839 0.52268 0.73476 0.0
C422 C 0.64777 0.5287 0.74992 0.0
C423 C 0.60783 0.49277 0.75317 0.0
C424 C 0.60856 0.48679 0.73832 0.0
C425 C 0.58648 0.46305 0.73412 0.0
H426 H 0.48221 0.36182 0.75515 0.0
C427 C 0.58499 0.47325 0.76 0.0
C428 C 0.5726 0.45562 0.74894 0.0
H429 H 0.51416 0.38137 0.71081 0.0
H430 H 0.5467 0.41945 0.72027 0.0
H431 H 0.53239 0.38219 0.77404 0.0
H432 H 0.48834 0.41393 0.76167 0.0
H433 H 0.49797 0.42253 0.78026 0.0
H434 H 0.4788 0.39104 0.77581 0.0
H435 H 0.5031 0.37339 0.7826 0.0
H436 H 0.53136 0.39836 0.7897 0.0
C437 C 0.59579 0.4457 0.72936 0.0
C438 C 0.57181 0.46769 0.7218 0.0
C439 C 0.56155 0.48091 0.81368 0.0
C440 C 0.54209 0.4651 0.8231 0.0
C441 C 0.52548 0.44167 0.81799 0.0
C442 C 0.52761 0.43434 0.80351 0.0
C443 C 0.54667 0.45054 0.79403 0.0
C444 C 0.56366 0.47317 0.79929 0.0
C445 C 0.58363 0.4873 0.78793 0.0
C446 C 0.57488 0.46999 0.77469 0.0
C447 C 0.55313 0.44858 0.77832 0.0
C448 C 0.60853 0.49146 0.79436 0.0
C449 C 0.58331 0.51075 0.78426 0.0
C450 C 0.49638 0.37431 0.74756 0.0
C451 C 0.49592 0.36864 0.73228 0.0
C452 C 0.51426 0.38546 0.72262 0.0
C453 C 0.53314 0.40749 0.72816 0.0
C454 C 0.53355 0.41288 0.7435 0.0
C455 C 0.51511 0.39659 0.75286 0.0
C456 C 0.51755 0.40612 0.76859 0.0
C457 C 0.54086 0.43051 0.76722 0.0
C458 C 0.5503 0.43423 0.75255 0.0
C459 C 0.52112 0.38915 0.77941 0.0
C460 C 0.49449 0.40845 0.77192 0.0
H461 H 0.6281 0.51959 0.77052 0.0
H462 H 0.62851 0.49637 0.71734 0.0
H463 H 0.57389 0.4859 0.72299 0.0
H464 H 0.55169 0.45515 0.72253 0.0
H465 H 0.57834 0.46657 0.71039 0.0
H466 H 0.61088 0.44771 0.73692 0.0
H467 H 0.60316 0.44957 0.71772 0.0
H468 H 0.58147 0.42654 0.73012 0.0
H469 H 0.57484 0.49887 0.81747 0.0
H470 H 0.51037 0.42923 0.82508 0.0
H471 H 0.51414 0.4164 0.80021 0.0
H472 H 0.60573 0.47752 0.80281 0.0
H473 H 0.61893 0.50929 0.79994 0.0
H474 H 0.62033 0.48999 0.78565 0.0
H475 H 0.56406 0.50682 0.78231 0.0
H476 H 0.59363 0.51968 0.77396 0.0
H477 H 0.5911 0.52377 0.7937 0.0
H478 H 0.66289 0.54501 0.75462 0.0
C479 C 0.62757 0.51395 0.75912 0.0
C480 C 0.62581 0.12382 0.72985 0.0
C481 C 0.64461 0.12043 0.73612 0.0
C482 C 0.64259 0.11363 0.75139 0.0
C483 C 0.60349 0.11276 0.7536 0.0
C484 C 0.60557 0.11999 0.73878 0.0
C485 C 0.58395 0.12275 0.73397 0.0
H486 H 0.47629 0.11907 0.75171 0.0
C487 C 0.58028 0.11018 0.7598 0.0
C488 C 0.56883 0.11628 0.74838 0.0
H489 H 0.51275 0.13472 0.70859 0.0
H490 H 0.5453 0.12926 0.71912 0.0
H491 H 0.48442 0.07387 0.75875 0.0
H492 H 0.52508 0.14839 0.77222 0.0
H493 H 0.52335 0.13077 0.78782 0.0
H494 H 0.49533 0.12771 0.77991 0.0
H495 H 0.47231 0.08674 0.77177 0.0
H496 H 0.49161 0.0749 0.77791 0.0
C497 C 0.57007 0.1044 0.72124 0.0
C498 C 0.59392 0.14935 0.72945 0.0
C499 C 0.55372 0.07846 0.81306 0.0
C500 C 0.53375 0.07494 0.82213 0.0
C501 C 0.5171 0.08184 0.81651 0.0
C502 C 0.51978 0.09131 0.80195 0.0
C503 C 0.53947 0.09414 0.79285 0.0
C504 C 0.55635 0.08828 0.7986 0.0
C505 C 0.57693 0.09385 0.78768 0.0
C506 C 0.569 0.10294 0.77419 0.0
C507 C 0.54691 0.10288 0.77721 0.0
C508 C 0.57671 0.07009 0.78415 0.0
C509 C 0.60145 0.11381 0.79461 0.0
C510 C 0.49144 0.12154 0.74459 0.0
C511 C 0.49203 0.1275 0.72931 0.0
C512 C 0.51181 0.13006 0.72036 0.0
C513 C 0.53074 0.12694 0.72652 0.0
C514 C 0.52985 0.1209 0.7418 0.0
C515 C 0.51028 0.11809 0.75053 0.0
C516 C 0.51169 0.11042 0.76633 0.0
C517 C 0.53546 0.10939 0.76572 0.0
C518 C 0.54617 0.11576 0.75135 0.0
C519 C 0.48881 0.08524 0.76899 0.0
C520 C 0.5138 0.13016 0.77725 0.0
H521 H 0.62187 0.10441 0.77154 0.0
H522 H 0.62655 0.12892 0.71818 0.0
H523 H 0.60839 0.16165 0.73748 0.0
H524 H 0.57966 0.15468 0.7297 0.0
H525 H 0.60232 0.15303 0.71807 0.0
H526 H 0.57096 0.08763 0.72288 0.0
H527 H 0.57825 0.11196 0.71009 0.0
H528 H 0.55014 0.09833 0.72099 0.0
H529 H 0.56709 0.07376 0.81717 0.0
H530 H 0.50158 0.07931 0.82328 0.0
H531 H 0.50629 0.09589 0.79827 0.0
H532 H 0.55749 0.05518 0.78228 0.0
H533 H 0.58463 0.06482 0.79361 0.0
H534 H 0.58687 0.07105 0.77381 0.0
H535 H 0.59815 0.12503 0.8028 0.0
H536 H 0.61391 0.12682 0.78612 0.0
H537 H 0.61136 0.10598 0.80065 0.0
H538 H 0.65692 0.11146 0.75673 0.0
C539 C 0.62224 0.10973 0.76008 0.0
C540 C 0.83917 0.54261 0.956 0.0
C541 C 0.8604 0.54411 0.94948 0.0
C542 C 0.86543 0.5506 0.93421 0.0
C543 C 0.82858 0.55407 0.93224 0.0
C544 C 0.82343 0.54734 0.94716 0.0
C545 C 0.79944 0.54537 0.95209 0.0
H546 H 0.69631 0.55052 0.93514 0.0
C547 C 0.80839 0.55742 0.92617 0.0
C548 C 0.79107 0.552 0.9377 0.0
H549 H 0.71738 0.53446 0.97797 0.0
H550 H 0.75523 0.53986 0.96717 0.0
H551 H 0.75069 0.59554 0.92803 0.0
H552 H 0.71499 0.52124 0.91403 0.0
H553 H 0.7304 0.53943 0.89842 0.0
H554 H 0.70573 0.54189 0.90715 0.0
H555 H 0.72583 0.58324 0.91469 0.0
H556 H 0.75742 0.59488 0.90895 0.0
C557 C 0.80515 0.56409 0.96471 0.0
C558 C 0.78169 0.51892 0.95678 0.0
C559 C 0.81412 0.58895 0.87287 0.0
C560 C 0.79815 0.59336 0.86398 0.0
C561 C 0.7749 0.5876 0.86987 0.0
C562 C 0.76796 0.57829 0.88448 0.0
C563 C 0.78435 0.5745 0.89336 0.0
C564 C 0.80681 0.57939 0.88739 0.0
C565 C 0.82136 0.57311 0.89815 0.0
C566 C 0.8045 0.56476 0.91181 0.0
C567 C 0.78285 0.56569 0.90897 0.0
C568 C 0.84614 0.5963 0.90147 0.0
C569 C 0.82417 0.55243 0.89118 0.0
C570 C 0.70902 0.54794 0.94212 0.0
C571 C 0.70377 0.54187 0.95741 0.0
C572 C 0.72102 0.5392 0.96619 0.0
C573 C 0.74297 0.54227 0.95988 0.0
C574 C 0.74798 0.54832 0.94459 0.0
C575 C 0.73127 0.55133 0.93601 0.0
C576 C 0.74038 0.55907 0.92018 0.0
C577 C 0.76501 0.55966 0.92058 0.0
C578 C 0.76926 0.55315 0.9349 0.0
C579 C 0.74366 0.58443 0.91767 0.0
C580 C 0.72194 0.53957 0.90927 0.0
H581 H 0.85477 0.56073 0.9141 0.0
H582 H 0.83466 0.53739 0.96765 0.0
H583 H 0.78369 0.50624 0.94916 0.0
H584 H 0.76204 0.51376 0.95601 0.0
H585 H 0.78567 0.51545 0.96839 0.0
H586 H 0.82336 0.58058 0.96286 0.0
H587 H 0.80575 0.55666 0.97588 0.0
H588 H 0.7918 0.5706 0.96507 0.0
H589 H 0.8319 0.59271 0.86856 0.0
H590 H 0.76226 0.59084 0.86328 0.0
H591 H 0.75013 0.57454 0.88834 0.0
H592 H 0.84305 0.61171 0.90354 0.0
H593 H 0.859 0.60109 0.89181 0.0
H594 H 0.85545 0.59485 0.91161 0.0
H595 H 0.8088 0.54137 0.8833 0.0
H596 H 0.82328 0.53944 0.89971 0.0
H597 H 0.8417 0.55956 0.8848 0.0
H598 H 0.88173 0.55201 0.92896 0.0
C599 C 0.84976 0.5557 0.92561 0.0
C600 C 0.45565 0.16697 0.95035 0.0
C601 C 0.44839 0.1437 0.94508 0.0
C602 C 0.43505 0.13581 0.93152 0.0
C603 C 0.43692 0.1743 0.92855 0.0
C604 C 0.44959 0.18182 0.942 0.0
C605 C 0.45534 0.2068 0.94623 0.0
H606 H 0.44504 0.30481 0.93112 0.0
C607 C 0.4339 0.19421 0.92258 0.0
C608 C 0.44456 0.21326 0.93293 0.0
H609 H 0.47995 0.29239 0.96944 0.0
H610 H 0.47067 0.25403 0.95929 0.0
H611 H 0.4705 0.28882 0.90761 0.0
H612 H 0.39844 0.25017 0.9276 0.0
H613 H 0.39555 0.24546 0.908 0.0
H614 H 0.40843 0.27554 0.91524 0.0
H615 H 0.44501 0.29094 0.90017 0.0
H616 H 0.45161 0.26786 0.89402 0.0
C617 C 0.48377 0.22309 0.94714 0.0
C618 C 0.44152 0.20506 0.96104 0.0
C619 C 0.39259 0.18575 0.87189 0.0
C620 C 0.38907 0.20198 0.86308 0.0
C621 C 0.39699 0.22532 0.86855 0.0
C622 C 0.40808 0.23239 0.8827 0.0
C623 C 0.41158 0.21604 0.89142 0.0
C624 C 0.40418 0.19326 0.88591 0.0
C625 C 0.41075 0.17887 0.8964 0.0
C626 C 0.42317 0.19674 0.90911 0.0
C627 C 0.42327 0.21833 0.9062 0.0
C628 C 0.42896 0.17306 0.88815 0.0
C629 C 0.38651 0.15644 0.90157 0.0
C630 C 0.45091 0.294 0.93731 0.0
C631 C 0.46295 0.3017 0.95127 0.0
C632 C 0.47008 0.28678 0.95888 0.0
C633 C 0.46483 0.2645 0.9529 0.0
C634 C 0.45247 0.25697 0.93908 0.0
C635 C 0.44606 0.2718 0.93142 0.0
C636 C 0.43403 0.26132 0.91656 0.0
C637 C 0.43341 0.23733 0.91686 0.0
C638 C 0.44413 0.23485 0.9301 0.0
C639 C 0.45094 0.27805 0.90387 0.0
C640 C 0.40774 0.25799 0.91672 0.0
H641 H 0.4193 0.144 0.91293 0.0
H642 H 0.46557 0.17338 0.96086 0.0
H643 H 0.42326 0.18821 0.96136 0.0
H644 H 0.43719 0.21968 0.96235 0.0
H645 H 0.45223 0.20493 0.97096 0.0
H646 H 0.49307 0.21779 0.93853 0.0
H647 H 0.49084 0.22168 0.95832 0.0
H648 H 0.49005 0.24221 0.94474 0.0
H649 H 0.38693 0.1678 0.86782 0.0
H650 H 0.39434 0.23801 0.86189 0.0
H651 H 0.41351 0.25032 0.8863 0.0
H652 H 0.44189 0.18845 0.88097 0.0
H653 H 0.41895 0.15706 0.88076 0.0
H654 H 0.44097 0.17004 0.89586 0.0
H655 H 0.37149 0.16082 0.90293 0.0
H656 H 0.38816 0.1497 0.91268 0.0
H657 H 0.38018 0.14163 0.89323 0.0
H658 H 0.42937 0.11798 0.92721 0.0
C659 C 0.42934 0.15099 0.92321 0.0
C660 C 0.71193 0.16692 0.95413 0.0
C661 C 0.69285 0.14526 0.94824 0.0
C662 C 0.69464 0.13901 0.93329 0.0
C663 C 0.73465 0.1752 0.93065 0.0
C664 C 0.73243 0.18163 0.94515 0.0
C665 C 0.75389 0.20558 0.94962 0.0
H666 H 0.86656 0.30045 0.93393 0.0
C667 C 0.7587 0.19409 0.92459 0.0
C668 C 0.76992 0.21199 0.93567 0.0
H669 H 0.82059 0.29024 0.97257 0.0
H670 H 0.78906 0.25201 0.96271 0.0
H671 H 0.85581 0.24641 0.93145 0.0
H672 H 0.82267 0.28349 0.91007 0.0
H673 H 0.82574 0.26559 0.89627 0.0
H674 H 0.85295 0.28893 0.9054 0.0
H675 H 0.87045 0.26695 0.91617 0.0
H676 H 0.84898 0.23538 0.91301 0.0
C677 C 0.76654 0.20165 0.96343 0.0
C678 C 0.74424 0.22337 0.95233 0.0
C679 C 0.78864 0.18464 0.87296 0.0
C680 C 0.81125 0.19827 0.86538 0.0
C681 C 0.82997 0.21941 0.87213 0.0
C682 C 0.8264 0.22693 0.88618 0.0
C683 C 0.80389 0.21311 0.89373 0.0
C684 C 0.78548 0.19226 0.8872 0.0
C685 C 0.7633 0.17937 0.89734 0.0
C686 C 0.77137 0.19614 0.91088 0.0
C687 C 0.79512 0.21593 0.90859 0.0
C688 C 0.7601 0.15444 0.9013 0.0
C689 C 0.74079 0.17824 0.88931 0.0
C690 C 0.84975 0.28981 0.94028 0.0
C691 C 0.846 0.29818 0.95405 0.0
C692 C 0.82376 0.28411 0.9619 0.0
C693 C 0.8055 0.26194 0.95615 0.0
C694 C 0.80937 0.25383 0.9423 0.0
C695 C 0.83111 0.26781 0.93454 0.0
C696 C 0.83145 0.25688 0.91966 0.0
C697 C 0.80631 0.23411 0.91974 0.0
C698 C 0.79363 0.23228 0.93311 0.0
C699 C 0.85283 0.2512 0.91992 0.0
C700 C 0.83348 0.27457 0.90711 0.0
H701 H 0.71584 0.14797 0.91325 0.0
H702 H 0.71081 0.17241 0.96548 0.0
H703 H 0.72688 0.21797 0.946 0.0
H704 H 0.75724 0.24177 0.94825 0.0
H705 H 0.7403 0.2242 0.96441 0.0
H706 H 0.76829 0.18534 0.96187 0.0
H707 H 0.75559 0.19904 0.97379 0.0
H708 H 0.78549 0.2166 0.96532 0.0
H709 H 0.77405 0.16816 0.86809 0.0
H710 H 0.84745 0.23023 0.86645 0.0
H711 H 0.84142 0.2432 0.89065 0.0
H712 H 0.77835 0.15582 0.9032 0.0
H713 H 0.75076 0.14137 0.89203 0.0
H714 H 0.74973 0.14682 0.91179 0.0
H715 H 0.74633 0.19523 0.88304 0.0
H716 H 0.72633 0.17641 0.89719 0.0
H717 H 0.73257 0.16317 0.88111 0.0
H718 H 0.68012 0.12238 0.92852 0.0
C719 C 0.71545 0.15381 0.92449 0.0
C720 C 0.54857 0.83095 0.07084 0.0
C721 C 0.55415 0.85356 0.07662 0.0
C722 C 0.56679 0.86108 0.09047 0.0
C723 C 0.56835 0.82411 0.09228 0.0
C724 C 0.55599 0.81673 0.07874 0.0
C725 C 0.55246 0.79278 0.07376 0.0
H726 H 0.57397 0.70048 0.08501 0.0
C727 C 0.57409 0.80548 0.09735 0.0
C728 C 0.565 0.78717 0.08647 0.0
H729 H 0.53224 0.70916 0.04913 0.0
H730 H 0.53992 0.74676 0.05981 0.0
H731 H 0.61727 0.75467 0.08677 0.0
H732 H 0.54886 0.71586 0.11095 0.0
H733 H 0.57141 0.7344 0.12401 0.0
H734 H 0.57462 0.71142 0.1143 0.0
H735 H 0.61261 0.73319 0.10117 0.0
H736 H 0.62355 0.76444 0.10551 0.0
C737 C 0.56614 0.79653 0.05863 0.0
C738 C 0.52436 0.77455 0.07311 0.0
C739 C 0.61797 0.81485 0.14721 0.0
C740 C 0.6269 0.80109 0.1543 0.0
C741 C 0.62405 0.78026 0.14713 0.0
C742 C 0.61223 0.77303 0.13319 0.0
C743 C 0.60324 0.78683 0.12625 0.0
C744 C 0.60643 0.80751 0.13316 0.0
C745 C 0.59677 0.82051 0.12369 0.0
C746 C 0.58652 0.80374 0.11025 0.0
C747 C 0.59026 0.78401 0.11188 0.0
C748 C 0.61882 0.84547 0.11933 0.0
C749 C 0.57616 0.82167 0.13261 0.0
C750 C 0.56627 0.71031 0.07948 0.0
C751 C 0.55263 0.70175 0.06608 0.0
C752 C 0.54326 0.71545 0.05926 0.0
C753 C 0.54757 0.73725 0.06555 0.0
C754 C 0.56129 0.74553 0.07889 0.0
C755 C 0.57015 0.73198 0.0857 0.0
C756 C 0.58345 0.74306 0.10016 0.0
C757 C 0.58135 0.76564 0.1008 0.0
C758 C 0.56853 0.76708 0.08826 0.0
C759 C 0.61062 0.74907 0.09847 0.0
C760 C 0.5691 0.72534 0.1131 0.0
H761 H 0.5834 0.85326 0.10876 0.0
H762 H 0.53861 0.82435 0.06037 0.0
H763 H 0.5142 0.77879 0.08172 0.0
H764 H 0.51987 0.75593 0.07571 0.0
H765 H 0.51656 0.77487 0.06196 0.0
H766 H 0.584 0.81381 0.05867 0.0
H767 H 0.55495 0.79715 0.04912 0.0
H768 H 0.57109 0.78256 0.05631 0.0
H769 H 0.6203 0.83116 0.15237 0.0
H770 H 0.6307 0.76936 0.15244 0.0
H771 H 0.61055 0.75694 0.12837 0.0
H772 H 0.63644 0.84514 0.11902 0.0
H773 H 0.62119 0.85955 0.12751 0.0
H774 H 0.61697 0.85117 0.1079 0.0
H775 H 0.56374 0.80404 0.13806 0.0
H776 H 0.56409 0.82548 0.12546 0.0
H777 H 0.58411 0.83554 0.14159 0.0
H778 H 0.57178 0.87853 0.09513 0.0
C779 C 0.57379 0.84646 0.09833 0.0
C780 C 0.29805 0.83436 0.06374 0.0
C781 C 0.31721 0.85621 0.06937 0.0
C782 C 0.31583 0.86283 0.08429 0.0
C783 C 0.27642 0.82625 0.08761 0.0
C784 C 0.27806 0.81962 0.07306 0.0
C785 C 0.25673 0.79531 0.06902 0.0
H786 H 0.14679 0.69906 0.08754 0.0
C787 C 0.2533 0.80686 0.09427 0.0
C788 C 0.24184 0.78858 0.08346 0.0
H789 H 0.18939 0.71068 0.0469 0.0
H790 H 0.22111 0.74866 0.05642 0.0
H791 H 0.19087 0.71332 0.1089 0.0
H792 H 0.15909 0.75487 0.09235 0.0
H793 H 0.16368 0.75954 0.11188 0.0
H794 H 0.14359 0.72965 0.10487 0.0
H795 H 0.16414 0.71163 0.11753 0.0
H796 H 0.19505 0.73377 0.12325 0.0
C797 C 0.26693 0.77814 0.06563 0.0
C798 C 0.24265 0.79869 0.05579 0.0
C799 C 0.22697 0.81633 0.14686 0.0
C800 C 0.20689 0.80086 0.156 0.0
C801 C 0.18952 0.77792 0.15056 0.0
C802 C 0.1918 0.77057 0.13613 0.0
C803 C 0.21183 0.78623 0.12704 0.0
C804 C 0.22925 0.80854 0.13252 0.0
C805 C 0.25003 0.8221 0.12154 0.0
C806 C 0.24187 0.80449 0.10847 0.0
C807 C 0.21933 0.78365 0.11173 0.0
C808 C 0.27429 0.82591 0.12879 0.0
C809 C 0.25044 0.8457 0.11726 0.0
C810 C 0.16298 0.70961 0.08068 0.0
C811 C 0.16515 0.70172 0.06628 0.0
C812 C 0.18667 0.71637 0.05782 0.0
C813 C 0.20532 0.73843 0.06345 0.0
C814 C 0.20276 0.74601 0.07779 0.0
C815 C 0.18201 0.73153 0.08622 0.0
C816 C 0.18307 0.74192 0.10155 0.0
C817 C 0.20772 0.7652 0.10079 0.0
C818 C 0.21901 0.7676 0.08679 0.0
C819 C 0.18312 0.7243 0.1135 0.0
C820 C 0.16119 0.74669 0.10288 0.0
H821 H 0.29542 0.85416 0.1046 0.0
H822 H 0.29885 0.82866 0.0524 0.0
H823 H 0.24082 0.81491 0.05758 0.0
H824 H 0.22361 0.78359 0.05453 0.0
H825 H 0.25263 0.80114 0.04503 0.0
H826 H 0.28444 0.78366 0.0718 0.0
H827 H 0.27077 0.77801 0.05346 0.0
H828 H 0.25434 0.75947 0.06942 0.0
H829 H 0.24076 0.83394 0.15089 0.0
H830 H 0.17389 0.76579 0.15743 0.0
H831 H 0.17781 0.753 0.13259 0.0
H832 H 0.27065 0.81106 0.13672 0.0
H833 H 0.2837 0.84306 0.13519 0.0
H834 H 0.28726 0.82565 0.12046 0.0
H835 H 0.23137 0.84219 0.11516 0.0
H836 H 0.26077 0.85391 0.10684 0.0
H837 H 0.2585 0.85915 0.12646 0.0
H838 H 0.33037 0.87966 0.08882 0.0
C839 C 0.2955 0.84805 0.0934 0.0
C840 C 0.29759 0.46101 0.06372 0.0
C841 C 0.31667 0.45808 0.06999 0.0
C842 C 0.31498 0.45163 0.08531 0.0
C843 C 0.27537 0.44974 0.08751 0.0
C844 C 0.27726 0.45682 0.07266 0.0
C845 C 0.25531 0.4589 0.06777 0.0
H846 H 0.14459 0.4487 0.08463 0.0
C847 C 0.25161 0.44601 0.09355 0.0
C848 C 0.23982 0.45153 0.08202 0.0
H849 H 0.1837 0.47004 0.04228 0.0
H850 H 0.21682 0.46582 0.05294 0.0
H851 H 0.15281 0.40531 0.08974 0.0
H852 H 0.19238 0.47784 0.10652 0.0
H853 H 0.18782 0.45819 0.12157 0.0
H854 H 0.16145 0.45626 0.11207 0.0
H855 H 0.14173 0.41472 0.10544 0.0
H856 H 0.16271 0.40328 0.10783 0.0
C857 C 0.2422 0.44081 0.0548 0.0
C858 C 0.26457 0.48552 0.06356 0.0
C859 C 0.22442 0.4132 0.14671 0.0
C860 C 0.20244 0.40604 0.15477 0.0
C861 C 0.1839 0.40945 0.14818 0.0
C862 C 0.18695 0.41947 0.13379 0.0
C863 C 0.20869 0.42597 0.1257 0.0
C864 C 0.22703 0.42287 0.13218 0.0
C865 C 0.24846 0.43005 0.12161 0.0
C866 C 0.23985 0.43778 0.10776 0.0
C867 C 0.21659 0.43548 0.11028 0.0
C868 C 0.25082 0.40749 0.11855 0.0
C869 C 0.27169 0.4514 0.12874 0.0
C870 C 0.16013 0.45231 0.07754 0.0
C871 C 0.1613 0.4598 0.06252 0.0
C872 C 0.18229 0.46464 0.05393 0.0
C873 C 0.20151 0.462 0.06012 0.0
C874 C 0.19986 0.4543 0.07509 0.0
C875 C 0.17935 0.44956 0.0835 0.0
C876 C 0.18024 0.44081 0.09906 0.0
C877 C 0.20488 0.4415 0.09872 0.0
C878 C 0.21637 0.44945 0.08467 0.0
C879 C 0.15822 0.41476 0.10076 0.0
C880 C 0.18033 0.45904 0.11051 0.0
H881 H 0.29442 0.44243 0.10555 0.0
H882 H 0.29813 0.4659 0.05203 0.0
H883 H 0.27958 0.4979 0.07128 0.0
H884 H 0.25016 0.49057 0.06465 0.0
H885 H 0.27203 0.48947 0.05194 0.0
H886 H 0.24247 0.4238 0.05679 0.0
H887 H 0.25148 0.44835 0.04389 0.0
H888 H 0.22247 0.43527 0.05378 0.0
H889 H 0.23891 0.4106 0.15142 0.0
H890 H 0.16692 0.40431 0.1542 0.0
H891 H 0.17209 0.42152 0.12947 0.0
H892 H 0.23226 0.39115 0.11745 0.0
H893 H 0.26063 0.40428 0.12788 0.0
H894 H 0.26031 0.40853 0.1079 0.0
H895 H 0.26677 0.46331 0.13514 0.0
H896 H 0.28523 0.4633 0.12028 0.0
H897 H 0.28087 0.44492 0.13665 0.0
H898 H 0.32957 0.44985 0.09062 0.0
C899 C 0.29455 0.44744 0.09404 0.0
C900 C 0.50461 0.87598 0.28885 0.0
C901 C 0.52587 0.8778 0.28216 0.0
C902 C 0.53066 0.88444 0.2669 0.0
C903 C 0.49351 0.88742 0.26526 0.0
C904 C 0.48858 0.88054 0.28016 0.0
C905 C 0.46449 0.87821 0.28523 0.0
H906 H 0.36045 0.88222 0.26897 0.0
C907 C 0.4731 0.89055 0.25934 0.0
C908 C 0.45583 0.88483 0.27095 0.0
H909 H 0.38215 0.86596 0.31151 0.0
H910 H 0.42008 0.87193 0.30051 0.0
H911 H 0.41478 0.92778 0.26183 0.0
H912 H 0.37968 0.85366 0.24741 0.0
H913 H 0.39467 0.87229 0.23187 0.0
H914 H 0.36983 0.87406 0.24091 0.0
H915 H 0.38961 0.91538 0.2487 0.0
H916 H 0.4211 0.92731 0.24265 0.0
C917 C 0.47007 0.89674 0.29795 0.0
C918 C 0.44702 0.85166 0.28984 0.0
C919 C 0.47832 0.92252 0.20627 0.0
C920 C 0.46227 0.92692 0.19746 0.0
C921 C 0.43897 0.92092 0.20339 0.0
C922 C 0.43209 0.91141 0.21797 0.0
C923 C 0.44859 0.90766 0.22678 0.0
C924 C 0.47108 0.91279 0.22075 0.0
C925 C 0.48581 0.90659 0.2314 0.0
C926 C 0.46901 0.89796 0.24507 0.0
C927 C 0.44722 0.89869 0.24236 0.0
C928 C 0.51048 0.92989 0.23475 0.0
C929 C 0.48883 0.88611 0.22428 0.0
C930 C 0.37331 0.87972 0.27584 0.0
C931 C 0.3682 0.87342 0.29112 0.0
C932 C 0.38566 0.87086 0.29976 0.0
C933 C 0.40766 0.87426 0.29332 0.0
C934 C 0.41254 0.88055 0.27805 0.0
C935 C 0.39562 0.88344 0.26961 0.0
C936 C 0.40462 0.89146 0.25378 0.0
C937 C 0.42941 0.89234 0.25403 0.0
C938 C 0.43384 0.88574 0.26828 0.0
C939 C 0.40759 0.91673 0.25146 0.0
C940 C 0.38626 0.87203 0.24281 0.0
H941 H 0.51958 0.89453 0.24696 0.0
H942 H 0.50028 0.87064 0.3005 0.0
H943 H 0.44917 0.83918 0.28213 0.0
H944 H 0.42731 0.84628 0.28915 0.0
H945 H 0.45116 0.84817 0.30141 0.0
H946 H 0.4881 0.91343 0.29605 0.0
H947 H 0.47101 0.8893 0.30905 0.0
H948 H 0.45647 0.90293 0.2985 0.0
H949 H 0.49614 0.92645 0.20193 0.0
H950 H 0.42625 0.92411 0.19686 0.0
H951 H 0.41422 0.90748 0.22188 0.0
H952 H 0.50722 0.94519 0.23686 0.0
H953 H 0.52336 0.93484 0.22509 0.0
H954 H 0.51984 0.92852 0.24489 0.0
H955 H 0.47359 0.87516 0.21629 0.0
H956 H 0.48789 0.87298 0.23271 0.0
H957 H 0.50646 0.89344 0.21797 0.0
H958 H 0.54699 0.88609 0.26154 0.0
C959 C 0.51473 0.88937 0.25847 0.0
C960 C 0.11521 0.49462 0.28949 0.0
C961 C 0.10879 0.47139 0.2846 0.0
C962 C 0.09596 0.46284 0.27091 0.0
C963 C 0.09667 0.50071 0.26712 0.0
C964 C 0.10885 0.50881 0.28069 0.0
C965 C 0.11396 0.5337 0.28451 0.0
H966 H 0.10275 0.63064 0.26755 0.0
C967 C 0.09286 0.52 0.2608 0.0
C968 C 0.10277 0.53925 0.27105 0.0
H969 H 0.13929 0.6206 0.30578 0.0
H970 H 0.12925 0.58129 0.29664 0.0
H971 H 0.12584 0.60994 0.24369 0.0
H972 H 0.0561 0.57766 0.26668 0.0
H973 H 0.04996 0.56622 0.2483 0.0
H974 H 0.06313 0.59818 0.25129 0.0
H975 H 0.10192 0.61648 0.2389 0.0
H976 H 0.10331 0.59153 0.2306 0.0
C977 C 0.14235 0.55058 0.28532 0.0
C978 C 0.10004 0.53216 0.29924 0.0
C979 C 0.05301 0.51031 0.20931 0.0
C980 C 0.04609 0.52487 0.2012 0.0
C981 C 0.05025 0.54672 0.20752 0.0
C982 C 0.06138 0.55418 0.22162 0.0
C983 C 0.06833 0.5396 0.2296 0.0
C984 C 0.06385 0.5179 0.22356 0.0
C985 C 0.07129 0.50426 0.23416 0.0
C986 C 0.08182 0.5218 0.24724 0.0
C987 C 0.08013 0.5425 0.24442 0.0
C988 C 0.09128 0.50059 0.22637 0.0
C989 C 0.04779 0.48052 0.23867 0.0
C990 C 0.10837 0.61982 0.27397 0.0
C991 C 0.12167 0.62855 0.28743 0.0
C992 C 0.12911 0.61422 0.29535 0.0
C993 C 0.12319 0.59138 0.29004 0.0
C994 C 0.10985 0.58282 0.27658 0.0
C995 C 0.10291 0.59709 0.2687 0.0
C996 C 0.08989 0.58551 0.25426 0.0
C997 C 0.08978 0.56177 0.25491 0.0
C998 C 0.1013 0.56024 0.26805 0.0
C999 C 0.10581 0.60163 0.2411 0.0
C1000 C 0.06342 0.58177 0.255 0.0
H1001 H 0.08047 0.47006 0.25172 0.0
H1002 H 0.12482 0.50157 0.30003 0.0
H1003 H 0.08165 0.51547 0.29946 0.0
H1004 H 0.09607 0.54701 0.30053 0.0
H1005 H 0.11053 0.53179 0.30922 0.0
H1006 H 0.15207 0.54454 0.27751 0.0
H1007 H 0.14943 0.55091 0.29682 0.0
H1008 H 0.14824 0.5692 0.28175 0.0
H1009 H 0.04963 0.49323 0.20479 0.0
H1010 H 0.04512 0.55821 0.20143 0.0
H1011 H 0.06412 0.57106 0.22575 0.0
H1012 H 0.10525 0.51755 0.22084 0.0
H1013 H 0.08298 0.48641 0.2176 0.0
H1014 H 0.10168 0.49574 0.23428 0.0
H1015 H 0.0312 0.48269 0.23859 0.0
H1016 H 0.04871 0.47484 0.25026 0.0
H1017 H 0.04423 0.4657 0.23079 0.0
H1018 H 0.09099 0.44504 0.26687 0.0
C1019 C 0.08997 0.47742 0.26211 0.0
C1020 C 0.38234 0.50194 0.28743 0.0
C1021 C 0.36348 0.47975 0.28199 0.0
C1022 C 0.36506 0.47283 0.26718 0.0
C1023 C 0.40402 0.50982 0.26359 0.0
C1024 C 0.40222 0.51671 0.27804 0.0
C1025 C 0.42327 0.54126 0.28191 0.0
H1026 H 0.53219 0.63882 0.26292 0.0
C1027 C 0.42696 0.52933 0.25681 0.0
C1028 C 0.43816 0.54789 0.26747 0.0
H1029 H 0.49008 0.62678 0.30364 0.0
H1030 H 0.45834 0.58827 0.29427 0.0
H1031 H 0.52095 0.58259 0.25846 0.0
H1032 H 0.48803 0.62294 0.24156 0.0
H1033 H 0.48411 0.60234 0.22738 0.0
H1034 H 0.51491 0.62495 0.23296 0.0
H1035 H 0.53614 0.60784 0.24594 0.0
H1036 H 0.51653 0.57786 0.23892 0.0
C1037 C 0.43755 0.53846 0.29525 0.0
C1038 C 0.41264 0.55814 0.28505 0.0
C1039 C 0.45359 0.51945 0.2044 0.0
C1040 C 0.47352 0.53497 0.19517 0.0
C1041 C 0.49053 0.55818 0.20042 0.0
C1042 C 0.48809 0.56571 0.21476 0.0
C1043 C 0.46826 0.54998 0.22395 0.0
C1044 C 0.45115 0.52743 0.21865 0.0
C1045 C 0.43051 0.51379 0.2297 0.0
C1046 C 0.43842 0.53164 0.24262 0.0
C1047 C 0.46071 0.55267 0.23923 0.0
C1048 C 0.43067 0.49054 0.23421 0.0
C1049 C 0.40604 0.50934 0.22243 0.0
C1050 C 0.5162 0.62768 0.26982 0.0
C1051 C 0.51361 0.63557 0.28406 0.0
C1052 C 0.49236 0.62096 0.29263 0.0
C1053 C 0.474 0.59862 0.28717 0.0
C1054 C 0.47676 0.59089 0.2729 0.0
C1055 C 0.49745 0.60547 0.2644 0.0
C1056 C 0.49651 0.59491 0.24916 0.0
C1057 C 0.4721 0.57138 0.25005 0.0
C1058 C 0.46078 0.56904 0.26403 0.0
C1059 C 0.51872 0.59062 0.2479 0.0
C1060 C 0.49603 0.61212 0.23706 0.0
H1061 H 0.3855 0.48133 0.24687 0.0
H1062 H 0.38142 0.50789 0.29867 0.0
H1063 H 0.39515 0.5523 0.27877 0.0
H1064 H 0.42504 0.57682 0.28121 0.0
H1065 H 0.40859 0.55833 0.29718 0.0
H1066 H 0.43954 0.52228 0.29372 0.0
H1067 H 0.42764 0.53629 0.30601 0.0
H1068 H 0.45656 0.55369 0.29636 0.0
H1069 H 0.44007 0.50163 0.20052 0.0
H1070 H 0.50604 0.57035 0.19349 0.0
H1071 H 0.50183 0.58348 0.21816 0.0
H1072 H 0.44989 0.49445 0.23625 0.0
H1073 H 0.42267 0.47682 0.22515 0.0
H1074 H 0.42059 0.4825 0.24473 0.0
H1075 H 0.40933 0.52405 0.21448 0.0
H1076 H 0.39287 0.50926 0.23074 0.0
H1077 H 0.39701 0.49215 0.21605 0.0
H1078 H 0.35079 0.45573 0.26278 0.0
C1079 C 0.38526 0.48768 0.25799 0.0
Tb1080 Tb 0.49683 0.98325 0.99189 0.0
C1081 C 0.5432 0.07357 0.03184 0.0
C1082 C 0.58674 0.08674 0.03131 0.0
C1083 C 0.57328 0.11608 0.03463 0.0
C1084 C 0.56186 0.06831 0.03032 0.0
C1085 C 0.54856 0.09741 0.03438 0.0
C1086 C 0.59237 0.11075 0.03309 0.0
C1087 C 0.50485 0.08216 0.0375 0.0
N1088 N 0.51968 0.05497 0.03168 0.0
C1089 C 0.50053 0.05881 0.03497 0.0
C1090 C 0.52897 0.1016 0.03701 0.0
Tb1091 Tb 0.51411 0.01745 0.02677 0.0
N1092 N 0.55553 0.04487 0.02889 0.0
C1093 C 0.57336 0.03847 0.02967 0.0
C1094 C 0.60511 0.08037 0.03106 0.0
C1095 C 0.59835 0.05608 0.03051 0.0
H1096 H 0.4818 0.04396 0.03524 0.0
H1097 H 0.61237 0.05088 0.03068 0.0
H1098 H 0.61137 0.1252 0.03372 0.0
H1099 H 0.48959 0.08514 0.03978 0.0
H1100 H 0.56865 0.01985 0.02919 0.0
H1101 H 0.3982 0.94737 0.98785 0.0
H1102 H 0.62446 0.09396 0.03175 0.0
H1103 H 0.53074 0.958 0.98396 0.0
H1104 H 0.44164 0.97927 0.98953 0.0
H1105 H 0.5241 0.91725 0.97951 0.0
H1106 H 0.57783 0.13457 0.03642 0.0
H1107 H 0.38736 0.90463 0.98658 0.0
H1108 H 0.40168 0.87432 0.9846 0.0
H1109 H 0.53229 0.11966 0.03902 0.0
H1110 H 0.43603 0.8661 0.98216 0.0
N1111 N 0.45572 0.95503 0.98972 0.0
C1112 C 0.4374 0.96079 0.98896 0.0
C1113 C 0.40656 0.9186 0.98735 0.0
C1114 C 0.42543 0.9129 0.98713 0.0
C1115 C 0.41262 0.94269 0.98802 0.0
C1116 C 0.45009 0.93179 0.98823 0.0
H1117 H 0.4818 0.88208 0.97996 0.0
N1118 N 0.49258 0.94614 0.9873 0.0
C1119 C 0.5085 0.91977 0.98166 0.0
C1120 C 0.46925 0.92716 0.98689 0.0
C1121 C 0.51217 0.94289 0.98418 0.0
C1122 C 0.4846 0.89995 0.98195 0.0
C1123 C 0.46456 0.90353 0.98438 0.0
O1124 O 0.51774 0.9921 0.97198 0.0
O1125 O 0.52399 0.01439 1.00406 0.0
O1126 O 0.50946 0.03965 0.00983 0.0
O1127 O 0.48423 0.00985 0.99265 0.0
O1128 O 0.53674 0.99742 0.99061 0.0
O1129 O 0.48261 0.99043 0.97227 0.0
O1130 O 0.49493 0.0118 0.04726 0.0
O1131 O 0.48679 0.98681 0.01447 0.0
O1132 O 0.50058 0.96068 1.00892 0.0
O1133 O 0.52624 0.99047 0.02594 0.0
O1134 O 0.47419 0.00334 0.02837 0.0
O1135 O 0.52594 0.00616 0.04562 0.0
C1136 C 0.54356 0.01561 0.99934 0.0
C1137 C 0.49579 0.98239 0.94911 0.0
C1138 C 0.49672 0.98591 0.92158 0.0
C1139 C 0.50052 0.99646 0.93601 0.0
C1140 C 0.48817 0.96099 0.92068 0.0
C1141 C 0.48682 0.95761 0.94778 0.0
C1142 C 0.48308 0.94703 0.93365 0.0
C1143 C 0.49407 0.03198 0.99823 0.0
C1144 C 0.50131 0.99395 0.96403 0.0
C1145 C 0.44005 0.88444 0.98394 0.0
C1146 C 0.4205 0.88912 0.98534 0.0
C1147 C 0.46726 0.98546 0.01937 0.0
C1148 C 0.51808 0.01695 0.06943 0.0
C1149 C 0.50877 0.00266 0.08247 0.0
C1150 C 0.51829 0.0124 0.09676 0.0
C1151 C 0.53691 0.0367 0.0978 0.0
C1152 C 0.53651 0.04117 0.07079 0.0
C1153 C 0.54578 0.05097 0.08491 0.0
C1154 C 0.5158 0.96816 0.02058 0.0
C1155 C 0.50936 0.00605 0.0545 0.0
H1156 H 0.50706 0.01554 0.93715 0.0
H1157 H 0.48573 0.95216 0.90995 0.0
H1158 H 0.483 0.94648 0.95764 0.0
H1159 H 0.47648 0.92792 0.93273 0.0
H1160 H 0.49467 0.98387 0.08147 0.0
H1161 H 0.54448 0.04471 0.10862 0.0
H1162 H 0.54391 0.05239 0.06093 0.0
H1163 H 0.56006 0.06966 0.08587 0.0
Tb1164 Tb 0.02481 0.50628 0.99471 0.0
C1165 C 0.92803 0.46739 0.02956 0.0
C1166 C 0.91684 0.4982 0.02655 0.0
C1167 C 0.88478 0.45638 0.02966 0.0
C1168 C 0.93486 0.49114 0.02727 0.0
C1169 C 0.90297 0.44975 0.0312 0.0
C1170 C 0.89171 0.48059 0.02732 0.0
C1171 C 0.91601 0.42101 0.0372 0.0
N1172 N 0.9462 0.46189 0.03115 0.0
C1173 C 0.94062 0.4392 0.03547 0.0
C1174 C 0.89707 0.42622 0.03485 0.0
Tb1175 Tb 0.98594 0.49261 0.02774 0.0
N1176 N 0.95932 0.50753 0.02694 0.0
C1177 C 0.96698 0.53161 0.02718 0.0
C1178 C 0.92464 0.52277 0.02572 0.0
C1179 C 0.94982 0.53955 0.02634 0.0
H1180 H 0.95511 0.43494 0.03718 0.0
H1181 H 0.95607 0.55863 0.02608 0.0
H1182 H 0.87756 0.48561 0.02661 0.0
H1183 H 0.91168 0.40298 0.04029 0.0
H1184 H 0.98633 0.54491 0.02754 0.0
H1185 H 0.05585 0.44111 0.99557 0.0
H1186 H 0.9114 0.52896 0.0251 0.0
H1187 H 0.05498 0.56423 0.98558 0.0
H1188 H 0.02514 0.45434 0.99472 0.0
H1189 H 0.09817 0.59651 0.98233 0.0
H1190 H 0.86539 0.44307 0.03072 0.0
H1191 H 0.10042 0.47118 0.99604 0.0
H1192 H 0.13383 0.51468 0.99455 0.0
H1193 H 0.87803 0.41213 0.03623 0.0
H1194 H 0.14543 0.55715 0.99083 0.0
N1195 N 0.05183 0.49182 0.99508 0.0
C1196 C 0.04445 0.4678 0.99484 0.0
C1197 C 0.08699 0.47716 0.99565 0.0
C1198 C 0.09447 0.50166 0.99492 0.0
C1199 C 0.06186 0.46014 0.99534 0.0
C1200 C 0.07621 0.50844 0.99452 0.0
H1201 H 0.1322 0.5878 0.98589 0.0
N1202 N 0.06435 0.53748 0.99133 0.0
C1203 C 0.09409 0.57851 0.9853 0.0
C1204 C 0.08273 0.53218 0.99256 0.0
C1205 C 0.0696 0.56012 0.98714 0.0
C1206 C 0.11326 0.57354 0.98736 0.0
C1207 C 0.10769 0.55004 0.99079 0.0
O1208 O 0.02017 0.5185 0.9737 0.0
O1209 O 0.9924 0.50424 1.0047 0.0
O1210 O 0.96415 0.46597 0.01064 0.0
O1211 O 0.9955 0.46791 0.9954 0.0
O1212 O 0.01238 0.53239 0.99069 0.0
O1213 O 0.01871 0.48435 0.97573 0.0
O1214 O 0.98791 0.47962 0.04916 0.0
O1215 O 0.01801 0.49428 0.01766 0.0
O1216 O 0.0468 0.53268 0.01185 0.0
O1217 O 0.01547 0.53087 0.02706 0.0
O1218 O 0.99871 0.4668 0.03219 0.0
O1219 O 0.99454 0.51574 0.04627 0.0
C1220 C 0.99277 0.52228 0.99878 0.0
C1221 C 0.03293 0.50532 0.95273 0.0
C1222 C 0.03451 0.50627 0.92537 0.0
C1223 C 0.02084 0.49962 0.93879 0.0
C1224 C 0.0604 0.51851 0.92602 0.0
C1225 C 0.05879 0.51714 0.95319 0.0
C1226 C 0.07244 0.5237 0.93989 0.0
C1227 C 0.97217 0.45706 1.00004 0.0
C1228 C 0.01826 0.49996 0.96655 0.0
C1229 C 0.12611 0.54366 0.99197 0.0
C1230 C 0.1195 0.51948 0.99407 0.0
C1231 C 0.01798 0.47658 0.02381 0.0
C1232 C 0.97735 0.49658 0.06933 0.0
C1233 C 0.98774 0.49877 0.08365 0.0
C1234 C 0.97419 0.49726 0.09664 0.0
C1235 C 0.94998 0.49309 0.0951 0.0
C1236 C 0.95316 0.49238 0.06805 0.0
C1237 C 0.93954 0.49055 0.08088 0.0
C1238 C 0.0388 0.54163 0.02245 0.0
C1239 C 0.9922 0.49938 0.05587 0.0
H1240 H 1.00084 0.49053 0.93836 0.0
H1241 H 0.07126 0.52378 0.91581 0.0
H1242 H 0.06845 0.5215 0.96376 0.0
H1243 H 0.0924 0.53296 0.94033 0.0
H1244 H 0.00654 0.50228 0.08467 0.0
H1245 H 0.9391 0.49169 0.10491 0.0
H1246 H 0.94487 0.49076 0.05718 0.0
H1247 H 0.92088 0.48733 0.0798 0.0
Tb1248 Tb 0.51793 0.49392 0.02586 0.0
C1249 C 0.4667 0.53576 0.98773 0.0
C1250 C 0.42345 0.50558 0.98891 0.0
C1251 C 0.43556 0.54775 0.98571 0.0
C1252 C 0.44857 0.51207 0.98937 0.0
C1253 C 0.46049 0.55386 0.98547 0.0
C1254 C 0.41705 0.52362 0.98746 0.0
C1255 C 0.5038 0.58212 0.98154 0.0
N1256 N 0.49049 0.54081 0.98745 0.0
C1257 C 0.509 0.56349 0.98383 0.0
C1258 C 0.47948 0.57736 0.98257 0.0
Tb1259 Tb 0.49726 0.50926 0.99166 0.0
N1260 N 0.45558 0.49524 0.9905 0.0
C1261 C 0.43821 0.47129 0.98997 0.0
C1262 C 0.40559 0.48114 0.98939 0.0
C1263 C 0.41303 0.46391 0.98967 0.0
H1264 H 0.52787 0.56743 0.98307 0.0
H1265 H 0.39939 0.44493 0.9897 0.0
H1266 H 0.39786 0.51904 0.98723 0.0
H1267 H 0.51857 0.60013 0.97902 0.0
H1268 H 0.44355 0.45769 0.99026 0.0
H1269 H 0.61571 0.55868 0.02791 0.0
H1270 H 0.38609 0.47538 0.98911 0.0
H1271 H 0.48772 0.43577 0.03455 0.0
H1272 H 0.57151 0.54568 0.02737 0.0
H1273 H 0.4973 0.40325 0.03852 0.0
H1274 H 0.43039 0.56142 0.98415 0.0
H1275 H 0.62927 0.52842 0.02828 0.0
H1276 H 0.61777 0.48483 0.02999 0.0
H1277 H 0.4755 0.5918 0.98075 0.0
H1278 H 0.58545 0.44236 0.03303 0.0
N1279 N 0.55967 0.50817 0.02701 0.0
C1280 C 0.57694 0.53215 0.02759 0.0
C1281 C 0.60974 0.52255 0.02804 0.0
C1282 C 0.59199 0.49807 0.02845 0.0
C1283 C 0.60216 0.53967 0.02789 0.0
C1284 C 0.56684 0.49144 0.02803 0.0
H1285 H 0.54043 0.4118 0.03657 0.0
N1286 N 0.52499 0.46253 0.02999 0.0
C1287 C 0.51197 0.42129 0.03594 0.0
C1288 C 0.54882 0.46771 0.02963 0.0
C1289 C 0.50662 0.43982 0.03369 0.0
C1290 C 0.53632 0.42617 0.03479 0.0
C1291 C 0.55518 0.4497 0.03184 0.0
O1292 O 0.49823 0.48137 0.0461 0.0
O1293 O 0.48888 0.49659 0.01448 0.0
O1294 O 0.50076 0.53524 1.00867 0.0
O1295 O 0.52817 0.53234 0.02523 0.0
O1296 O 0.4785 0.46758 0.02803 0.0
O1297 O 0.53246 0.51496 0.0454 0.0
O1298 O 0.51678 0.52171 0.97136 0.0
O1299 O 0.52616 0.50662 1.00309 0.0
O1300 O 0.51439 0.46793 1.00884 0.0
O1301 O 0.48702 0.47085 0.99225 0.0
O1302 O 0.53686 0.53525 0.98924 0.0
O1303 O 0.48261 0.488 0.97221 0.0
C1304 C 0.47016 0.47817 0.01958 0.0
C1305 C 0.52168 0.49325 0.06831 0.0
C1306 C 0.51926 0.49199 0.0958 0.0
C1307 C 0.51439 0.49921 0.08182 0.0
C1308 C 0.53169 0.47871 0.09587 0.0
C1309 C 0.53447 0.4805 0.06875 0.0
C1310 C 0.5394 0.47326 0.08246 0.0
C1311 C 0.51673 0.54359 0.01993 0.0
C1312 C 0.51467 0.49942 0.0539 0.0
C1313 C 0.58015 0.45596 0.03153 0.0
C1314 C 0.59855 0.48013 0.0298 0.0
C1315 C 0.54503 0.52469 0.99785 0.0
C1316 C 0.49332 0.50934 0.94916 0.0
C1317 C 0.50043 0.50286 0.93578 0.0
C1318 C 0.49562 0.50979 0.92168 0.0
C1319 C 0.48338 0.52324 0.92136 0.0
C1320 C 0.48077 0.52231 0.9485 0.0
C1321 C 0.47585 0.52921 0.93466 0.0
C1322 C 0.49852 0.45964 0.99751 0.0
C1323 C 0.50036 0.50348 0.96366 0.0
H1324 H 0.50498 0.50953 0.08134 0.0
H1325 H 0.53523 0.47218 0.10626 0.0
H1326 H 0.54041 0.47589 0.05853 0.0
H1327 H 0.549 0.46312 0.0827 0.0
H1328 H 0.50967 0.4924 0.93644 0.0
H1329 H 0.47988 0.52954 0.91086 0.0
H1330 H 0.47504 0.52735 0.95863 0.0
H1331 H 0.46643 0.53951 0.93423 0.0
Tb1332 Tb 0.16979 0.321 0.32621 0.0
C1333 C 0.21308 0.40565 0.36193 0.0
C1334 C 0.25647 0.41795 0.36132 0.0
C1335 C 0.24395 0.44814 0.35967 0.0
C1336 C 0.23141 0.39969 0.36189 0.0
C1337 C 0.21922 0.43006 0.36151 0.0
C1338 C 0.26258 0.44208 0.35957 0.0
C1339 C 0.17691 0.41736 0.36757 0.0
N1340 N 0.18952 0.38773 0.36408 0.0
C1341 C 0.17188 0.39353 0.36812 0.0
C1342 C 0.20056 0.43568 0.36384 0.0
Tb1343 Tb 0.18301 0.34883 0.36257 0.0
N1344 N 0.22477 0.37619 0.36368 0.0
C1345 C 0.24257 0.3702 0.36667 0.0
C1346 C 0.27464 0.41154 0.36315 0.0
C1347 C 0.26763 0.38765 0.36624 0.0
H1348 H 0.15343 0.37963 0.37113 0.0
H1349 H 0.28152 0.3826 0.36823 0.0
H1350 H 0.28169 0.45627 0.35881 0.0
H1351 H 0.16255 0.42157 0.37008 0.0
H1352 H 0.23792 0.35206 0.36926 0.0
H1353 H 0.07516 0.30133 0.32493 0.0
H1354 H 0.29407 0.425 0.36278 0.0
H1355 H 0.19388 0.28809 0.31466 0.0
H1356 H 0.12032 0.3274 0.32586 0.0
H1357 H 0.17945 0.24522 0.30918 0.0
H1358 H 0.24896 0.46692 0.35904 0.0
H1359 H 0.05672 0.25708 0.32333 0.0
H1360 H 0.06307 0.2214 0.32063 0.0
H1361 H 0.20451 0.45417 0.36358 0.0
H1362 H 0.09166 0.20598 0.31648 0.0
N1363 N 0.12763 0.29837 0.32523 0.0
C1364 C 0.11263 0.30821 0.32526 0.0
C1365 C 0.07661 0.26848 0.32377 0.0
C1366 C 0.09211 0.25861 0.32294 0.0
C1367 C 0.08695 0.29344 0.32464 0.0
C1368 C 0.11785 0.27428 0.32355 0.0
H1369 H 0.13517 0.21483 0.31183 0.0
N1370 N 0.15828 0.28177 0.32093 0.0
C1371 C 0.16642 0.25067 0.31275 0.0
C1372 C 0.1338 0.26562 0.32143 0.0
C1373 C 0.17451 0.27491 0.31582 0.0
C1374 C 0.14143 0.23356 0.31432 0.0
C1375 C 0.12466 0.24103 0.31834 0.0
O1376 O 0.18817 0.32471 0.3056 0.0
O1377 O 0.19613 0.35092 0.33968 0.0
O1378 O 0.15837 0.35783 0.34996 0.0
O1379 O 0.16971 0.35507 0.32574 0.0
O1380 O 0.20921 0.33368 0.32625 0.0
O1381 O 0.15796 0.33142 0.30693 0.0
O1382 O 0.16106 0.34697 0.38103 0.0
O1383 O 0.15428 0.32258 0.3477 0.0
O1384 O 0.1788 0.29883 0.341 0.0
O1385 O 0.1985 0.32478 0.36124 0.0
O1386 O 0.15661 0.31211 0.36907 0.0
O1387 O 0.19487 0.34622 0.38427 0.0
C1388 C 0.21574 0.35172 0.33515 0.0
C1389 C 0.16472 0.31881 0.28344 0.0
C1390 C 0.16248 0.32221 0.25615 0.0
C1391 C 0.1727 0.33269 0.27017 0.0
C1392 C 0.14463 0.29761 0.25557 0.0
C1393 C 0.14693 0.29431 0.28255 0.0
C1394 C 0.13707 0.28377 0.26867 0.0
C1395 C 0.16107 0.3642 0.33567 0.0
C1396 C 0.17401 0.33049 0.29813 0.0
C1397 C 0.09907 0.22501 0.31862 0.0
C1398 C 0.08279 0.2338 0.32094 0.0
C1399 C 0.14428 0.30514 0.35686 0.0
C1400 C 0.18003 0.35834 0.40512 0.0
C1401 C 0.17425 0.34524 0.41868 0.0
C1402 C 0.17724 0.35677 0.43269 0.0
C1403 C 0.18609 0.38179 0.43269 0.0
C1404 C 0.18941 0.38325 0.40553 0.0
C1405 C 0.19228 0.39484 0.41926 0.0
C1406 C 0.19216 0.30482 0.35351 0.0
C1407 C 0.17578 0.34539 0.39077 0.0
H1408 H 0.18621 0.35172 0.27081 0.0
H1409 H 0.13655 0.28906 0.24494 0.0
H1410 H 0.14039 0.2834 0.29256 0.0
H1411 H 0.12329 0.26485 0.26808 0.0
H1412 H 0.16767 0.32608 0.41823 0.0
H1413 H 0.18801 0.3914 0.44305 0.0
H1414 H 0.19443 0.39371 0.39529 0.0
H1415 H 0.19922 0.41406 0.4195 0.0
Tb1416 Tb 0.69317 0.84207 0.32596 0.0
C1417 C 0.59596 0.8019 0.36079 0.0
C1418 C 0.58354 0.83184 0.35775 0.0
C1419 C 0.55241 0.78977 0.36115 0.0
C1420 C 0.6021 0.82548 0.35846 0.0
C1421 C 0.5711 0.78381 0.3626 0.0
C1422 C 0.55862 0.81376 0.3587 0.0
C1423 C 0.58533 0.75598 0.36858 0.0
N1424 N 0.6146 0.79702 0.36226 0.0
C1425 C 0.60971 0.77459 0.36669 0.0
C1426 C 0.56591 0.76052 0.36632 0.0
Tb1427 Tb 0.65392 0.82855 0.35878 0.0
N1428 N 0.62638 0.84236 0.35787 0.0
C1429 C 0.63337 0.86629 0.35779 0.0
C1430 C 0.59064 0.85622 0.35666 0.0
C1431 C 0.61567 0.87354 0.35696 0.0
H1432 H 0.62452 0.77081 0.36841 0.0
H1433 H 0.62138 0.89249 0.35647 0.0
H1434 H 0.54408 0.81825 0.35802 0.0
H1435 H 0.58154 0.73815 0.37176 0.0
H1436 H 0.65261 0.87997 0.35791 0.0
H1437 H 0.72356 0.77644 0.32797 0.0
H1438 H 0.57697 0.86189 0.35603 0.0
H1439 H 0.72382 0.8997 0.31641 0.0
H1440 H 0.69312 0.78993 0.32639 0.0
H1441 H 0.76721 0.93181 0.31341 0.0
H1442 H 0.53316 0.77609 0.36234 0.0
H1443 H 0.76816 0.80629 0.32906 0.0
H1444 H 0.80183 0.84971 0.32763 0.0
H1445 H 0.54705 0.7461 0.36784 0.0
H1446 H 0.81381 0.89219 0.32347 0.0
N1447 N 0.71997 0.82736 0.32699 0.0
C1448 C 0.71244 0.80331 0.32679 0.0
C1449 C 0.75485 0.81239 0.32837 0.0
C1450 C 0.76252 0.83693 0.32753 0.0
C1451 C 0.7297 0.7955 0.32769 0.0
C1452 C 0.7444 0.84386 0.32672 0.0
H1453 H 0.80098 0.92293 0.31774 0.0
N1454 N 0.73288 0.87293 0.32266 0.0
C1455 C 0.76295 0.91383 0.31657 0.0
C1456 C 0.75112 0.86757 0.32439 0.0
C1457 C 0.73837 0.89555 0.31824 0.0
C1458 C 0.78197 0.90877 0.31908 0.0
C1459 C 0.77616 0.88529 0.32281 0.0
O1460 O 0.69155 0.85485 0.30442 0.0
O1461 O 0.66079 0.84022 0.33574 0.0
O1462 O 0.63223 0.80181 0.34175 0.0
O1463 O 0.66377 0.80372 0.3267 0.0
O1464 O 0.68022 0.86765 0.3212 0.0
O1465 O 0.68472 0.81869 0.30759 0.0
O1466 O 0.65867 0.8171 0.38002 0.0
O1467 O 0.68648 0.83071 0.34902 0.0
O1468 O 0.71458 0.86893 0.34304 0.0
O1469 O 0.68284 0.86701 0.35787 0.0
O1470 O 0.66691 0.80295 0.36333 0.0
O1471 O 0.65958 0.85094 0.37743 0.0
C1472 C 0.6608 0.85782 0.32945 0.0
C1473 C 0.70217 0.83748 0.28453 0.0
C1474 C 0.70512 0.83553 0.2573 0.0
C1475 C 0.69158 0.83433 0.27021 0.0
C1476 C 0.72952 0.84029 0.25889 0.0
C1477 C 0.72656 0.84228 0.28589 0.0
C1478 C 0.74018 0.84376 0.27312 0.0
C1479 C 0.64037 0.79292 0.3312 0.0
C1480 C 0.68725 0.83497 0.29787 0.0
C1481 C 0.79443 0.8788 0.32447 0.0
C1482 C 0.78761 0.85463 0.32685 0.0
C1483 C 0.68646 0.81302 0.35519 0.0
C1484 C 0.64562 0.83068 0.40066 0.0
C1485 C 0.65776 0.83662 0.41458 0.0
C1486 C 0.64417 0.8303 0.42801 0.0
C1487 C 0.61827 0.81814 0.42739 0.0
C1488 C 0.61976 0.81892 0.40021 0.0
C1489 C 0.60617 0.81269 0.41354 0.0
C1490 C 0.70625 0.87793 0.35341 0.0
C1491 C 0.66027 0.83576 0.38686 0.0
H1492 H 0.67262 0.83033 0.26915 0.0
H1493 H 0.74039 0.84145 0.24912 0.0
H1494 H 0.73501 0.84466 0.29677 0.0
H1495 H 0.75899 0.84744 0.27426 0.0
H1496 H 0.67776 0.84562 0.41497 0.0
H1497 H 0.60746 0.81312 0.43763 0.0
H1498 H 0.61007 0.81437 0.38964 0.0
H1499 H 0.58621 0.80348 0.41312 0.0
Tb1500 Tb 0.18142 0.82325 0.36021 0.0
C1501 C 0.13128 0.86609 0.32203 0.0
C1502 C 0.08798 0.83595 0.32277 0.0
C1503 C 0.10025 0.8782 0.31986 0.0
C1504 C 0.11307 0.84238 0.32344 0.0
C1505 C 0.12517 0.88427 0.3198 0.0
C1506 C 0.08167 0.85406 0.32138 0.0
C1507 C 0.16857 0.91251 0.3162 0.0
N1508 N 0.15506 0.87109 0.32191 0.0
C1509 C 0.17367 0.89381 0.31847 0.0
C1510 C 0.14425 0.9078 0.31708 0.0
Tb1511 Tb 0.16164 0.8394 0.32599 0.0
N1512 N 0.12001 0.82549 0.32449 0.0
C1513 C 0.10262 0.80157 0.3237 0.0
C1514 C 0.07008 0.81151 0.32299 0.0
C1515 C 0.07746 0.79425 0.32319 0.0
H1516 H 0.19254 0.89772 0.31782 0.0
H1517 H 0.06379 0.77527 0.323 0.0
H1518 H 0.0625 0.84952 0.321 0.0
H1519 H 0.18341 0.93055 0.31381 0.0
H1520 H 0.10791 0.78793 0.32392 0.0
H1521 H 0.27923 0.88774 0.36293 0.0
H1522 H 0.0506 0.8058 0.32255 0.0
H1523 H 0.15085 0.76503 0.36869 0.0
H1524 H 0.23507 0.8749 0.36209 0.0
H1525 H 0.1602 0.73238 0.37276 0.0
H1526 H 0.09515 0.89193 0.31832 0.0
H1527 H 0.29262 0.85737 0.36343 0.0
H1528 H 0.28093 0.81372 0.36513 0.0
H1529 H 0.14035 0.92229 0.31529 0.0
H1530 H 0.24843 0.77128 0.36797 0.0
N1531 N 0.22311 0.83736 0.36166 0.0
C1532 C 0.24043 0.86131 0.36235 0.0
C1533 C 0.27311 0.85156 0.36305 0.0
C1534 C 0.25529 0.8271 0.36336 0.0
C1535 C 0.26562 0.86875 0.36282 0.0
C1536 C 0.23017 0.82056 0.36276 0.0
H1537 H 0.20331 0.7408 0.37117 0.0
N1538 N 0.18825 0.79175 0.36444 0.0
C1539 C 0.17496 0.75042 0.37029 0.0
C1540 C 0.21206 0.79685 0.36427 0.0
C1541 C 0.16974 0.76903 0.36798 0.0
C1542 C 0.19931 0.75523 0.36934 0.0
C1543 C 0.21829 0.77876 0.36653 0.0
O1544 O 0.16119 0.81055 0.38027 0.0
O1545 O 0.15267 0.82621 0.34867 0.0
O1546 O 0.16474 0.865 0.34318 0.0
O1547 O 0.19179 0.8617 0.35982 0.0
O1548 O 0.14192 0.79692 0.36201 0.0
O1549 O 0.1956 0.84401 0.3799 0.0
O1550 O 0.18173 0.85229 0.30591 0.0
O1551 O 0.19025 0.83633 0.33753 0.0
O1552 O 0.17804 0.79742 0.34312 0.0
O1553 O 0.15129 0.80094 0.32629 0.0
O1554 O 0.20129 0.86545 0.32405 0.0
O1555 O 0.14738 0.81872 0.3063 0.0
C1556 C 0.13381 0.80769 0.35355 0.0
C1557 C 0.18388 0.82219 0.40276 0.0
C1558 C 0.18025 0.82068 0.4301 0.0
C1559 C 0.17616 0.82822 0.41608 0.0
C1560 C 0.1924 0.80724 0.43066 0.0
C1561 C 0.19636 0.80912 0.40356 0.0
C1562 C 0.20058 0.80171 0.41745 0.0
C1563 C 0.18042 0.87305 0.3546 0.0
C1564 C 0.17748 0.82849 0.38821 0.0
C1565 C 0.24324 0.78493 0.36641 0.0
C1566 C 0.26173 0.80909 0.3648 0.0
C1567 C 0.20925 0.85458 0.33254 0.0
C1568 C 0.15881 0.84076 0.28351 0.0
C1569 C 0.1668 0.83523 0.27012 0.0
C1570 C 0.16256 0.84291 0.25619 0.0
C1571 C 0.15 0.85596 0.25579 0.0
C1572 C 0.14593 0.85345 0.28288 0.0
C1573 C 0.14156 0.861 0.26907 0.0
C1574 C 0.16241 0.78942 0.33166 0.0
C1575 C 0.16539 0.83437 0.29797 0.0
H1576 H 0.16642 0.83826 0.41551 0.0
H1577 H 0.19581 0.80129 0.44133 0.0
H1578 H 0.2026 0.80444 0.39349 0.0
H1579 H 0.2101 0.7915 0.41798 0.0
H1580 H 0.17685 0.8255 0.27056 0.0
H1581 H 0.14647 0.862 0.24519 0.0
H1582 H 0.13947 0.85773 0.29301 0.0
H1583 H 0.13173 0.87091 0.26867 0.0
Tb1584 Tb 0.82961 0.64987 0.65848 0.0
C1585 C 0.87507 0.74019 0.69856 0.0
C1586 C 0.91874 0.75395 0.69811 0.0
C1587 C 0.90467 0.78282 0.70145 0.0
C1588 C 0.89397 0.73529 0.69705 0.0
C1589 C 0.88007 0.7639 0.70115 0.0
C1590 C 0.92401 0.77784 0.69991 0.0
C1591 C 0.83627 0.74805 0.70431 0.0
N1592 N 0.85168 0.72137 0.69837 0.0
C1593 C 0.83231 0.72484 0.7017 0.0
C1594 C 0.86024 0.76773 0.70383 0.0
Tb1595 Tb 0.84669 0.68408 0.6934 0.0
N1596 N 0.88798 0.71194 0.6956 0.0
C1597 C 0.90606 0.70587 0.69646 0.0
C1598 C 0.93736 0.74792 0.69791 0.0
C1599 C 0.93095 0.72372 0.69737 0.0
H1600 H 0.81368 0.70982 0.70196 0.0
H1601 H 0.94517 0.71879 0.69759 0.0
H1602 H 0.94292 0.79248 0.7006 0.0
H1603 H 0.82082 0.75074 0.70662 0.0
H1604 H 0.90163 0.68734 0.69598 0.0
H1605 H 0.73086 0.61305 0.65422 0.0
H1606 H 0.95664 0.76171 0.69866 0.0
H1607 H 0.86404 0.62519 0.65054 0.0
H1608 H 0.77415 0.64526 0.65597 0.0
H1609 H 0.85788 0.58461 0.64611 0.0
H1610 H 0.90894 0.80122 0.70328 0.0
H1611 H 0.72048 0.57044 0.653 0.0
H1612 H 0.73525 0.54048 0.65112 0.0
H1613 H 0.86327 0.78567 0.70588 0.0
H1614 H 0.76993 0.53271 0.64874 0.0
N1615 N 0.78861 0.62134 0.65625 0.0
C1616 C 0.77012 0.62685 0.65542 0.0
C1617 C 0.73962 0.58455 0.6538 0.0
C1618 C 0.75867 0.57911 0.65364 0.0
C1619 C 0.74541 0.60857 0.65444 0.0
C1620 C 0.78324 0.59817 0.65478 0.0
H1621 H 0.81578 0.54914 0.64658 0.0
N1622 N 0.8258 0.61293 0.65389 0.0
C1623 C 0.84215 0.58692 0.64826 0.0
C1624 C 0.80257 0.59379 0.65349 0.0
C1625 C 0.84555 0.60994 0.65076 0.0
C1626 C 0.81837 0.56693 0.64856 0.0
C1627 C 0.79815 0.57025 0.65097 0.0
O1628 O 0.85053 0.65891 0.63856 0.0
O1629 O 0.85658 0.68113 0.67066 0.0
O1630 O 0.84163 0.70605 0.67647 0.0
O1631 O 0.81655 0.67609 0.65932 0.0
O1632 O 0.8696 0.66451 0.65707 0.0
O1633 O 0.81527 0.65696 0.63888 0.0
O1634 O 0.82771 0.67829 0.71398 0.0
O1635 O 0.81952 0.6533 0.68109 0.0
O1636 O 0.83385 0.62757 0.6755 0.0
O1637 O 0.85947 0.65763 0.69238 0.0
O1638 O 0.80673 0.66954 0.69511 0.0
O1639 O 0.85868 0.67264 0.71209 0.0
C1640 C 0.87622 0.68258 0.66587 0.0
C1641 C 0.82855 0.64908 0.6157 0.0
C1642 C 0.82974 0.65262 0.58817 0.0
C1643 C 0.83349 0.66318 0.6026 0.0
C1644 C 0.82101 0.62766 0.58728 0.0
C1645 C 0.81941 0.62427 0.61439 0.0
C1646 C 0.81572 0.61368 0.60026 0.0
C1647 C 0.82615 0.69819 0.66491 0.0
C1648 C 0.83401 0.66063 0.63063 0.0
C1649 C 0.77374 0.55099 0.65052 0.0
C1650 C 0.75401 0.55541 0.65187 0.0
C1651 C 0.79994 0.65178 0.68604 0.0
C1652 C 0.85123 0.68347 0.73598 0.0
C1653 C 0.84236 0.66915 0.74904 0.0
C1654 C 0.85219 0.67893 0.76327 0.0
C1655 C 0.87066 0.70329 0.76424 0.0
C1656 C 0.86951 0.70775 0.73727 0.0
C1657 C 0.87909 0.71758 0.75134 0.0
C1658 C 0.84933 0.63534 0.68704 0.0
C1659 C 0.84223 0.67253 0.72109 0.0
H1660 H 0.84017 0.68228 0.60372 0.0
H1661 H 0.81858 0.61882 0.57656 0.0
H1662 H 0.81544 0.61313 0.62426 0.0
H1663 H 0.80898 0.59454 0.59935 0.0
H1664 H 0.82837 0.65031 0.74808 0.0
H1665 H 0.87846 0.71132 0.77502 0.0
H1666 H 0.87657 0.719 0.7274 0.0
H1667 H 0.89327 0.73633 0.75225 0.0
Tb1668 Tb 0.35816 0.17488 0.6603 0.0
C1669 C 0.25961 0.13352 0.69395 0.0
C1670 C 0.24721 0.16348 0.69106 0.0
C1671 C 0.21603 0.12129 0.69389 0.0
C1672 C 0.26577 0.15714 0.69185 0.0
C1673 C 0.23472 0.11534 0.69543 0.0
C1674 C 0.22227 0.14535 0.69168 0.0
C1675 C 0.24884 0.08737 0.70123 0.0
N1676 N 0.27825 0.12864 0.69551 0.0
C1677 C 0.27326 0.10606 0.69966 0.0
C1678 C 0.22946 0.09194 0.69889 0.0
Tb1679 Tb 0.31764 0.16032 0.69256 0.0
N1680 N 0.29006 0.17406 0.69159 0.0
C1681 C 0.297 0.19798 0.69176 0.0
C1682 C 0.25429 0.18788 0.69021 0.0
C1683 C 0.2793 0.20521 0.69083 0.0
H1684 H 0.28803 0.10224 0.70143 0.0
H1685 H 0.28499 0.22417 0.69052 0.0
H1686 H 0.20773 0.14982 0.69092 0.0
H1687 H 0.24499 0.06944 0.7042 0.0
H1688 H 0.31622 0.21166 0.69214 0.0
H1689 H 0.38735 0.10831 0.66082 0.0
H1690 H 0.24062 0.19353 0.68952 0.0
H1691 H 0.39005 0.23364 0.65349 0.0
H1692 H 0.35734 0.12237 0.65952 0.0
H1693 H 0.43375 0.26571 0.65257 0.0
H1694 H 0.19676 0.10756 0.69482 0.0
H1695 H 0.43199 0.13768 0.66285 0.0
H1696 H 0.46604 0.18101 0.66308 0.0
H1697 H 0.21057 0.07745 0.70015 0.0
H1698 H 0.47873 0.22398 0.66082 0.0
N1699 N 0.3845 0.15964 0.66097 0.0
C1700 C 0.3767 0.13555 0.66026 0.0
C1701 C 0.41888 0.14403 0.6622 0.0
C1702 C 0.42685 0.16867 0.66209 0.0
C1703 C 0.39371 0.12742 0.66102 0.0
C1704 C 0.40898 0.17594 0.6613 0.0
H1705 H 0.4668 0.25576 0.65667 0.0
N1706 N 0.39819 0.20582 0.65852 0.0
C1707 C 0.42904 0.24729 0.65476 0.0
C1708 C 0.41611 0.19994 0.66006 0.0
C1709 C 0.40429 0.22904 0.65524 0.0
C1710 C 0.44765 0.24161 0.65712 0.0
C1711 C 0.44131 0.21762 0.65954 0.0
O1712 O 0.35625 0.18898 0.63936 0.0
O1713 O 0.32528 0.17273 0.66964 0.0
O1714 O 0.29645 0.13428 0.67508 0.0
O1715 O 0.32833 0.13662 0.66014 0.0
O1716 O 0.34621 0.20129 0.65605 0.0
O1717 O 0.35256 0.15377 0.64098 0.0
O1718 O 0.32171 0.14833 0.71378 0.0
O1719 O 0.35015 0.16222 0.683 0.0
O1720 O 0.37894 0.19996 0.67828 0.0
O1721 O 0.34667 0.19884 0.69206 0.0
O1722 O 0.33045 0.1345 0.69719 0.0
O1723 O 0.32297 0.18236 0.71135 0.0
C1724 C 0.32614 0.19101 0.66371 0.0
C1725 C 0.36919 0.17568 0.61851 0.0
C1726 C 0.37196 0.17582 0.5912 0.0
C1727 C 0.35773 0.16922 0.60439 0.0
C1728 C 0.39782 0.18871 0.59228 0.0
C1729 C 0.39504 0.18823 0.61942 0.0
C1730 C 0.40926 0.19467 0.60634 0.0
C1731 C 0.30483 0.12568 0.66449 0.0
C1732 C 0.35379 0.17038 0.63199 0.0
C1733 C 0.45925 0.21066 0.66103 0.0
C1734 C 0.45203 0.1862 0.66231 0.0
C1735 C 0.35003 0.14442 0.68907 0.0
C1736 C 0.30811 0.16152 0.73434 0.0
C1737 C 0.31974 0.16699 0.74842 0.0
C1738 C 0.30576 0.16049 0.76178 0.0
C1739 C 0.27981 0.14857 0.76068 0.0
C1740 C 0.28232 0.15004 0.73354 0.0
C1741 C 0.26827 0.14361 0.74666 0.0
C1742 C 0.37033 0.20929 0.68821 0.0
C1743 C 0.32323 0.16687 0.72072 0.0
H1744 H 0.33774 0.15966 0.60364 0.0
H1745 H 0.40913 0.19396 0.58224 0.0
H1746 H 0.40422 0.19332 0.63016 0.0
H1747 H 0.4292 0.20449 0.60711 0.0
H1748 H 0.33972 0.17637 0.74887 0.0
H1749 H 0.26832 0.14272 0.77062 0.0
H1750 H 0.27303 0.14584 0.72284 0.0
H1751 H 0.24833 0.13449 0.74595 0.0
Tb1752 Tb 0.84996 0.16109 0.69374 0.0
C1753 C 0.79563 0.20015 0.65555 0.0
C1754 C 0.75258 0.16974 0.65744 0.0
C1755 C 0.7641 0.21163 0.65359 0.0
C1756 C 0.77778 0.17652 0.6577 0.0
C1757 C 0.78909 0.21798 0.65311 0.0
C1758 C 0.74585 0.18752 0.65578 0.0
C1759 C 0.83217 0.24641 0.64863 0.0
N1760 N 0.81946 0.2054 0.65505 0.0
C1761 C 0.8377 0.22805 0.65113 0.0
C1762 C 0.80779 0.24144 0.64981 0.0
Tb1763 Tb 0.82694 0.17439 0.65969 0.0
N1764 N 0.78512 0.15995 0.65897 0.0
C1765 C 0.76794 0.13593 0.65875 0.0
C1766 C 0.73495 0.14526 0.65828 0.0
C1767 C 0.74269 0.12827 0.65866 0.0
H1768 H 0.85663 0.2322 0.6503 0.0
H1769 H 0.72922 0.10924 0.65894 0.0
H1770 H 0.72659 0.18272 0.65571 0.0
H1771 H 0.84674 0.2644 0.64584 0.0
H1772 H 0.77346 0.12248 0.65911 0.0
H1773 H 0.94694 0.22861 0.69562 0.0
H1774 H 0.7154 0.13928 0.65817 0.0
H1775 H 0.82191 0.10265 0.7014 0.0
H1776 H 0.90243 0.21402 0.69543 0.0
H1777 H 0.83319 0.071 0.70397 0.0
H1778 H 0.75867 0.22509 0.65189 0.0
H1779 H 0.96219 0.19966 0.69516 0.0
H1780 H 0.95248 0.15652 0.69597 0.0
H1781 H 0.80356 0.25567 0.64785 0.0
H1782 H 0.92145 0.11348 0.69835 0.0
N1783 N 0.89199 0.17684 0.69461 0.0
C1784 C 0.90854 0.201 0.69534 0.0
C1785 C 0.94251 0.19307 0.69513 0.0
C1786 C 0.92552 0.16838 0.69529 0.0
C1787 C 0.93396 0.20945 0.69543 0.0
C1788 C 0.90012 0.1608 0.69517 0.0
H1789 H 0.87686 0.0814 0.70158 0.0
N1790 N 0.85876 0.13068 0.69723 0.0
C1791 C 0.84735 0.08944 0.70183 0.0
C1792 C 0.88284 0.13679 0.69656 0.0
C1793 C 0.84104 0.10746 0.70043 0.0
C1794 C 0.872 0.09537 0.70043 0.0
C1795 C 0.89018 0.11937 0.69801 0.0
O1796 O 0.83297 0.14702 0.71462 0.0
O1797 O 0.81993 0.16258 0.68277 0.0
O1798 O 0.83065 0.20079 0.67649 0.0
O1799 O 0.85921 0.19917 0.6927 0.0
O1800 O 0.81075 0.13448 0.69693 0.0
O1801 O 0.86263 0.18366 0.71268 0.0
O1802 O 0.84414 0.18672 0.63865 0.0
O1803 O 0.85683 0.17314 0.67086 0.0
O1804 O 0.84683 0.13562 0.67646 0.0
O1805 O 0.81671 0.13605 0.66121 0.0
O1806 O 0.86641 0.20049 0.6562 0.0
O1807 O 0.8132 0.15088 0.64122 0.0
C1808 C 0.8017 0.14435 0.68843 0.0
C1809 C 0.8582 0.16422 0.73592 0.0
C1810 C 0.86004 0.16614 0.76334 0.0
C1811 C 0.84938 0.16759 0.74972 0.0
C1812 C 0.87937 0.1609 0.76294 0.0
C1813 C 0.87743 0.15894 0.73579 0.0
C1814 C 0.88788 0.15723 0.74925 0.0
C1815 C 0.84711 0.20982 0.68748 0.0
C1816 C 0.84753 0.16682 0.72179 0.0
C1817 C 0.9154 0.1266 0.6974 0.0
C1818 C 0.93306 0.15109 0.69604 0.0
C1819 C 0.87529 0.19095 0.66509 0.0
C1820 C 0.81852 0.16937 0.61753 0.0
C1821 C 0.82812 0.16641 0.60392 0.0
C1822 C 0.81778 0.16755 0.59011 0.0
C1823 C 0.798 0.17213 0.59009 0.0
C1824 C 0.79889 0.17407 0.61726 0.0
C1825 C 0.78876 0.17552 0.60358 0.0
C1826 C 0.82945 0.12588 0.66605 0.0
C1827 C 0.82877 0.16684 0.63184 0.0
H1828 H 0.83466 0.17188 0.74982 0.0
H1829 H 0.88779 0.15949 0.77325 0.0
H1830 H 0.88445 0.15631 0.72532 0.0
H1831 H 0.90273 0.15316 0.74908 0.0
H1832 H 0.84316 0.16256 0.60411 0.0
H1833 H 0.78976 0.17317 0.57961 0.0
H1834 H 0.79125 0.17638 0.62757 0.0
H1835 H 0.77357 0.17908 0.60345 0.0
H1836 H 0.36609 0.87569 0.07594 0.0
H1837 H 0.3164 0.8726 0.04119 0.0
H1838 H 0.40141 0.90373 0.06065 0.0
H1839 H 0.35181 0.90102 0.02597 0.0
H1840 H 0.42231 0.98112 0.02193 0.0
H1841 H 0.38465 0.94657 0.03164 0.0
H1842 H 0.42225 0.90561 0.03436 0.0
H1843 H 0.45978 0.94006 0.0244 0.0
C1844 C 0.36278 0.88093 0.06499 0.0
C1845 C 0.33858 0.87213 0.05976 0.0
C1846 C 0.38295 0.89676 0.0562 0.0
C1847 C 0.37928 0.90442 0.04212 0.0
C1848 C 0.35509 0.89532 0.03678 0.0
C1849 C 0.33491 0.8791 0.04545 0.0
C1850 C 0.42224 0.96446 0.02419 0.0
C1851 C 0.44378 0.96312 0.02224 0.0
C1852 C 0.40074 0.94472 0.02971 0.0
C1853 C 0.40062 0.9235 0.03379 0.0
C1854 C 0.42191 0.92181 0.03131 0.0
C1855 C 0.44331 0.94144 0.02549 0.0
H1856 H 0.16377 0.49305 0.04181 0.0
H1857 H 0.11156 0.43181 0.06795 0.0
H1858 H 0.12986 0.49656 0.03102 0.0
H1859 H 0.07805 0.43643 0.05806 0.0
H1860 H 0.01901 0.43555 0.02881 0.0
H1861 H 0.05386 0.43112 0.03684 0.0
H1862 H 0.1006 0.5086 0.03683 0.0
H1863 H 0.0658 0.51274 0.02834 0.0
C1864 C 0.14512 0.4803 0.04528 0.0
C1865 C 0.1406 0.46217 0.05584 0.0
C1866 C 0.12563 0.48255 0.03922 0.0
C1867 C 0.10107 0.46684 0.04365 0.0
C1868 C 0.09659 0.44868 0.05416 0.0
C1869 C 0.11599 0.44629 0.06008 0.0
C1870 C 0.03686 0.45157 0.03037 0.0
C1871 C 0.03984 0.47442 0.02759 0.0
C1872 C 0.05683 0.4491 0.0351 0.0
C1873 C 0.0802 0.4695 0.0376 0.0
C1874 C 0.08309 0.49243 0.03481 0.0
C1875 C 0.06312 0.49486 0.02992 0.0
H1876 H 0.5509 0.69047 0.03619 0.0
H1877 H 0.54372 0.66035 0.08065 0.0
H1878 H 0.54216 0.65216 0.0252 0.0
H1879 H 0.53605 0.62245 0.06954 0.0
H1880 H 0.5508 0.56901 0.04182 0.0
H1881 H 0.55984 0.60732 0.05307 0.0
H1882 H 0.50435 0.60896 0.02503 0.0
H1883 H 0.49466 0.57041 0.01413 0.0
C1884 C 0.54736 0.67573 0.04364 0.0
C1885 C 0.54795 0.67858 0.05934 0.0
C1886 C 0.5425 0.65384 0.03732 0.0
C1887 C 0.53847 0.63442 0.04654 0.0
C1888 C 0.53937 0.63726 0.06219 0.0
C1889 C 0.54388 0.65904 0.06853 0.0
C1890 C 0.54048 0.57748 0.03805 0.0
C1891 C 0.52228 0.56678 0.02685 0.0
C1892 C 0.54565 0.59939 0.04453 0.0
C1893 C 0.53293 0.61114 0.03981 0.0
C1894 C 0.5147 0.60044 0.02869 0.0
C1895 C 0.50925 0.57839 0.0224 0.0
H1896 H 0.83973 0.33543 0.96267 0.0
H1897 H 0.89481 0.31396 0.95899 0.0
H1898 H 0.87052 0.37422 0.97284 0.0
H1899 H 0.92557 0.35223 0.97001 0.0
H1900 H 0.98066 0.43122 0.9786 0.0
H1901 H 0.95062 0.39365 0.96673 0.0
H1902 H 0.8929 0.39244 0.99414 0.0
H1903 H 0.92242 0.43075 1.00493 0.0
C1904 C 0.85846 0.33901 0.96422 0.0
C1905 C 0.86493 0.32176 0.96013 0.0
C1906 C 0.87614 0.36119 0.97015 0.0
C1907 C 0.90064 0.36646 0.97245 0.0
C1908 C 0.90706 0.3491 0.96822 0.0
C1909 C 0.88944 0.32708 0.962 0.0
C1910 C 0.96153 0.42296 0.98205 0.0
C1911 C 0.9541 0.4339 0.99295 0.0
C1912 C 0.94427 0.40123 0.97532 0.0
C1913 C 0.91919 0.38975 0.97946 0.0
C1914 C 0.91188 0.40076 0.99041 0.0
C1915 C 0.92901 0.42265 0.99688 0.0
H1916 H 0.69876 0.56187 0.98334 0.0
H1917 H 0.65647 0.51441 0.94709 0.0
H1918 H 0.66067 0.55678 0.99461 0.0
H1919 H 0.61834 0.50904 0.95851 0.0
H1920 H 0.58907 0.56517 0.99407 0.0
H1921 H 0.62791 0.56863 0.98541 0.0
H1922 H 0.59319 0.49115 0.98385 0.0
H1923 H 0.55448 0.48773 0.99275 0.0
C1924 C 0.6813 0.55022 0.97785 0.0
C1925 C 0.68059 0.53859 0.96431 0.0
C1926 C 0.65955 0.54738 0.98428 0.0
C1927 C 0.63656 0.53245 0.97747 0.0
C1928 C 0.63579 0.52049 0.96407 0.0
C1929 C 0.65759 0.52372 0.95747 0.0
C1930 C 0.58992 0.54891 0.99214 0.0
C1931 C 0.56893 0.52621 0.99439 0.0
C1932 C 0.61211 0.55088 0.9872 0.0
C1933 C 0.61355 0.53016 0.98395 0.0
C1934 C 0.59257 0.50741 0.98626 0.0
C1935 C 0.57049 0.50545 0.99149 0.0
H1936 H 0.49309 0.15488 0.95698 0.0
H1937 H 0.41805 0.09657 0.95252 0.0
H1938 H 0.50405 0.12821 0.97026 0.0
H1939 H 0.42863 0.07004 0.96625 0.0
H1940 H 0.46138 0.0222 0.97528 0.0
H1941 H 0.45064 0.04943 0.96298 0.0
H1942 H 0.49958 0.10676 0.99282 0.0
H1943 H 0.5115 0.07976 1.00459 0.0
C1944 C 0.47888 0.1364 0.95903 0.0
C1945 C 0.45477 0.12772 0.95365 0.0
C1946 C 0.4851 0.12113 0.9667 0.0
C1947 C 0.46727 0.09689 0.96931 0.0
C1948 C 0.443 0.08842 0.96418 0.0
C1949 C 0.43687 0.10362 0.95635 0.0
C1950 C 0.46991 0.0406 0.97927 0.0
C1951 C 0.48715 0.04867 0.99108 0.0
C1952 C 0.46354 0.05622 0.97227 0.0
C1953 C 0.47403 0.0803 0.97696 0.0
C1954 C 0.49126 0.08839 0.9888 0.0
C1955 C 0.49787 0.0728 0.99571 0.0
H1956 H 0.64382 0.12495 0.9415 0.0
H1957 H 0.69364 0.12891 0.97642 0.0
H1958 H 0.60857 0.0967 0.95682 0.0
H1959 H 0.65839 0.10035 0.99163 0.0
H1960 H 0.58859 0.02022 0.99642 0.0
H1961 H 0.62583 0.05459 0.98615 0.0
H1962 H 0.58774 0.09506 0.98332 0.0
H1963 H 0.55062 0.0608 0.99392 0.0
C1964 C 0.64718 0.11984 0.95247 0.0
C1965 C 0.67142 0.12901 0.95776 0.0
C1966 C 0.62705 0.1039 0.96129 0.0
C1967 C 0.6308 0.09646 0.97543 0.0
C1968 C 0.65502 0.10585 0.98079 0.0
C1969 C 0.67513 0.12217 0.9721 0.0
C1970 C 0.58846 0.03674 0.99401 0.0
C1971 C 0.56689 0.03799 0.99613 0.0
C1972 C 0.60972 0.05637 0.98815 0.0
C1973 C 0.60958 0.0774 0.98388 0.0
C1974 C 0.58827 0.07901 0.9865 0.0
C1975 C 0.56712 0.0595 0.99268 0.0
H1976 H 0.8777 0.51377 0.94237 0.0
H1977 H 0.88144 0.56292 0.97675 0.0
H1978 H 0.90746 0.50698 0.95633 0.0
H1979 H 0.91162 0.55643 0.99061 0.0
H1980 H 0.99133 0.5631 0.99362 0.0
H1981 H 0.95708 0.56704 0.98345 0.0
H1982 H 0.91142 0.48963 0.98253 0.0
H1983 H 0.94558 0.48574 0.99293 0.0
C1984 C 0.88482 0.52303 0.95295 0.0
C1985 C 0.87733 0.53895 0.95844 0.0
C1986 C 0.9017 0.51901 0.96098 0.0
C1987 C 0.91184 0.53118 0.97455 0.0
C1988 C 0.90412 0.54686 0.98017 0.0
C1989 C 0.88682 0.5505 0.97227 0.0
C1990 C 0.9738 0.54697 0.99151 0.0
C1991 C 0.97095 0.52416 0.99435 0.0
C1992 C 0.9542 0.54921 0.98574 0.0
C1993 C 0.93157 0.52864 0.98223 0.0
C1994 C 0.92866 0.50578 0.98515 0.0
C1995 C 0.94814 0.50356 0.99121 0.0
H1996 H 0.47531 0.3441 0.93664 0.0
H1997 H 0.46189 0.31241 0.98102 0.0
H1998 H 0.48298 0.38209 0.94764 0.0
H1999 H 0.47087 0.35083 0.99192 0.0
H2000 H 0.52025 0.4326 1.00358 0.0
H2001 H 0.5108 0.39419 0.99256 0.0
H2002 H 0.45685 0.39679 0.96356 0.0
H2003 H 0.46545 0.43486 0.97502 0.0
C2004 C 0.47383 0.34509 0.9487 0.0
C2005 C 0.46798 0.32506 0.95791 0.0
C2006 C 0.47835 0.36691 0.95497 0.0
C2007 C 0.47755 0.3693 0.97059 0.0
C2008 C 0.47183 0.34945 0.97983 0.0
C2009 C 0.46687 0.32751 0.97357 0.0
C2010 C 0.50601 0.42485 0.9951 0.0
C2011 C 0.49322 0.43661 0.99047 0.0
C2012 C 0.50074 0.40291 0.98872 0.0
C2013 C 0.48302 0.39255 0.9773 0.0
C2014 C 0.47063 0.40449 0.97235 0.0
C2015 C 0.47555 0.42624 0.97895 0.0
H2016 H 0.1502 0.69026 0.03689 0.0
H2017 H 0.13495 0.65971 0.08165 0.0
H2018 H 0.11956 0.65134 0.02673 0.0
H2019 H 0.10319 0.6213 0.07137 0.0
H2020 H 0.03006 0.56777 0.04353 0.0
H2021 H 0.05998 0.6065 0.05459 0.0
H2022 H 0.11793 0.6072 0.02798 0.0
H2023 H 0.08861 0.56806 0.01754 0.0
C2024 C 0.14046 0.67537 0.0446 0.0
C2025 C 0.14538 0.67827 0.06014 0.0
C2026 C 0.12275 0.65315 0.03874 0.0
C2027 C 0.10913 0.63348 0.0483 0.0
C2028 C 0.11339 0.63635 0.06382 0.0
C2029 C 0.1315 0.65844 0.06967 0.0
C2030 C 0.04918 0.57609 0.04006 0.0
C2031 C 0.05678 0.56498 0.02934 0.0
C2032 C 0.06624 0.59822 0.04641 0.0
C2033 C 0.09108 0.60982 0.04197 0.0
C2034 C 0.09876 0.59872 0.03139 0.0
C2035 C 0.08187 0.57638 0.02532 0.0
H2036 H 0.33982 0.43144 0.07117 0.0
H2037 H 0.34189 0.49136 0.04758 0.0
H2038 H 0.37546 0.43698 0.05718 0.0
H2039 H 0.37707 0.49611 0.03284 0.0
H2040 H 0.45887 0.51409 0.02441 0.0
H2041 H 0.42048 0.50924 0.03489 0.0
H2042 H 0.38858 0.43189 0.03348 0.0
H2043 H 0.42719 0.43696 0.02355 0.0
C2044 C 0.34784 0.44583 0.06297 0.0
C2045 C 0.33798 0.46109 0.06068 0.0
C2046 C 0.36815 0.44877 0.0547 0.0
C2047 C 0.3792 0.4669 0.04372 0.0
C2048 C 0.36921 0.48205 0.04126 0.0
C2049 C 0.34884 0.47916 0.04962 0.0
C2050 C 0.44344 0.4961 0.02604 0.0
C2051 C 0.44594 0.47587 0.02311 0.0
C2052 C 0.42138 0.49326 0.03207 0.0
C2053 C 0.40143 0.47014 0.03533 0.0
C2054 C 0.40367 0.44999 0.03154 0.0
C2055 C 0.42572 0.45284 0.0257 0.0
H2056 H 0.55433 0.85969 0.04605 0.0
H2057 H 0.53856 0.88363 0.08787 0.0
H2058 H 0.54402 0.88638 0.03224 0.0
H2059 H 0.5293 0.91098 0.07399 0.0
H2060 H 0.54701 0.97699 0.0443 0.0
H2061 H 0.55511 0.94853 0.05763 0.0
H2062 H 0.50584 0.89175 0.02774 0.0
H2063 H 0.49702 0.92006 0.01454 0.0
C2064 C 0.54844 0.8704 0.05232 0.0
C2065 C 0.54736 0.86947 0.06813 0.0
C2066 C 0.54265 0.88576 0.04438 0.0
C2067 C 0.536 0.90079 0.05206 0.0
C2068 C 0.5347 0.89978 0.06781 0.0
C2069 C 0.54014 0.88419 0.07575 0.0
C2070 C 0.53781 0.95847 0.04051 0.0
C2071 C 0.52144 0.95091 0.02823 0.0
C2072 C 0.54243 0.94216 0.04822 0.0
C2073 C 0.53106 0.91796 0.04373 0.0
C2074 C 0.51499 0.91037 0.03134 0.0
C2075 C 0.51004 0.92663 0.02376 0.0
H2076 H 1.00433 0.17989 0.38226 0.0
H2077 H 0.00885 0.24269 0.4034 0.0
H2078 H 0.04044 0.20569 0.36722 0.0
H2079 H 0.04607 0.26832 0.38929 0.0
H2080 H 0.10581 0.31338 0.35773 0.0
H2081 H 0.06395 0.28527 0.36623 0.0
H2082 H 0.08323 0.22933 0.36984 0.0
H2083 H 0.12448 0.25727 0.36046 0.0
C2084 C 0.01289 0.19919 0.38369 0.0
C2085 C 1.00353 0.20909 0.39416 0.0
C2086 C 0.03389 0.21403 0.37516 0.0
C2087 C 0.04639 0.2392 0.37699 0.0
C2088 C 0.03684 0.2491 0.38732 0.0
C2089 C 0.01565 0.23429 0.39569 0.0
C2090 C 0.10058 0.29473 0.35968 0.0
C2091 C 0.11794 0.28715 0.35795 0.0
C2092 C 0.07678 0.27872 0.36487 0.0
C2093 C 0.07013 0.255 0.36898 0.0
C2094 C 0.08738 0.24726 0.36662 0.0
C2095 C 0.11106 0.26322 0.36124 0.0
H2096 H 0.80928 0.824 0.40658 0.0
H2097 H 0.80199 0.77627 0.37028 0.0
H2098 H 0.77618 0.82913 0.3956 0.0
H2099 H 0.76863 0.7811 0.35945 0.0
H2100 H 0.7335 0.84998 0.36086 0.0
H2101 H 0.76863 0.84668 0.37012 0.0
H2102 H 0.72381 0.76919 0.36947 0.0
H2103 H 0.68858 0.77253 0.36043 0.0
C2104 C 0.80058 0.8146 0.39627 0.0
C2105 C 0.8082 0.79972 0.3893 0.0
C2106 C 0.78178 0.81766 0.38994 0.0
C2107 C 0.76986 0.80551 0.37668 0.0
C2108 C 0.77746 0.79062 0.36971 0.0
C2109 C 0.79659 0.78794 0.37587 0.0
C2110 C 0.73128 0.83227 0.36246 0.0
C2111 C 0.70849 0.81147 0.35956 0.0
C2112 C 0.7513 0.83039 0.3679 0.0
C2113 C 0.74897 0.80767 0.37044 0.0
C2114 C 0.72621 0.78691 0.36745 0.0
C2115 C 0.70608 0.78881 0.36232 0.0
H2116 H 0.21955 0.0207 0.37124 0.0
H2117 H 0.20395 0.98877 0.41559 0.0
H2118 H 0.20998 0.98208 0.36043 0.0
H2119 H 0.19572 0.95052 0.40468 0.0
H2120 H 0.21294 0.89711 0.37747 0.0
H2121 H 0.22184 0.93519 0.38904 0.0
H2122 H 0.16913 0.9391 0.35957 0.0
H2123 H 0.15936 0.90066 0.34843 0.0
C2124 C 0.21396 0.00551 0.37871 0.0
C2125 C 0.21238 0.00795 0.39432 0.0
C2126 C 0.20866 0.98345 0.37249 0.0
C2127 C 0.20214 0.96344 0.38175 0.0
C2128 C 0.20094 0.96581 0.39734 0.0
C2129 C 0.20579 0.98778 0.40356 0.0
C2130 C 0.20317 0.906 0.37346 0.0
C2131 C 0.18577 0.89601 0.36176 0.0
C2132 C 0.20825 0.92776 0.38012 0.0
C2133 C 0.19632 0.94008 0.37507 0.0
C2134 C 0.17883 0.93007 0.3635 0.0
C2135 C 0.17338 0.90812 0.35705 0.0
H2136 H 0.50759 0.67266 0.29328 0.0
H2137 H 0.56254 0.65131 0.28813 0.0
H2138 H 0.53862 0.71118 0.30365 0.0
H2139 H 0.59355 0.68922 0.29942 0.0
H2140 H 0.64881 0.76773 0.30927 0.0
H2141 H 0.6187 0.73069 0.29694 0.0
H2142 H 0.56113 0.72844 0.32501 0.0
H2143 H 0.59069 0.76629 0.33624 0.0
C2144 C 0.52637 0.67625 0.29452 0.0
C2145 C 0.53275 0.65912 0.28998 0.0
C2146 C 0.54418 0.69823 0.30058 0.0
C2147 C 0.5687 0.70339 0.30261 0.0
C2148 C 0.57503 0.68618 0.29788 0.0
C2149 C 0.55728 0.66437 0.29149 0.0
C2150 C 0.6297 0.75936 0.31276 0.0
C2151 C 0.62231 0.76991 0.32396 0.0
C2152 C 0.6124 0.73793 0.30576 0.0
C2153 C 0.58732 0.72634 0.30992 0.0
C2154 C 0.58009 0.7369 0.32122 0.0
C2155 C 0.59725 0.75851 0.32795 0.0
H2156 H 0.32078 0.84576 0.28096 0.0
H2157 H 0.36321 0.89291 0.31728 0.0
H2158 H 0.28263 0.83982 0.2927 0.0
H2159 H 0.32512 0.88727 0.32888 0.0
H2160 H 0.2189 0.81775 0.32723 0.0
H2161 H 0.25766 0.82148 0.31808 0.0
H2162 H 0.2921 0.89891 0.32015 0.0
H2163 H 0.25325 0.89515 0.32902 0.0
C2164 C 0.32194 0.85488 0.29142 0.0
C2165 C 0.34499 0.86983 0.29818 0.0
C2166 C 0.30012 0.85132 0.2982 0.0
C2167 C 0.30091 0.86303 0.31173 0.0
C2168 C 0.32396 0.87804 0.31845 0.0
C2169 C 0.34572 0.88121 0.31184 0.0
C2170 C 0.23487 0.83552 0.32602 0.0
C2171 C 0.23321 0.85619 0.32909 0.0
C2172 C 0.25698 0.83766 0.32065 0.0
C2173 C 0.27789 0.86049 0.31839 0.0
C2174 C 0.27637 0.88109 0.32189 0.0
C2175 C 0.25417 0.87895 0.32695 0.0
H2176 H 0.08016 0.42411 0.29281 0.0
H2177 H 0.15389 0.48505 0.29671 0.0
H2178 H 0.09288 0.3994 0.30715 0.0
H2179 H 0.16655 0.46039 0.31094 0.0
H2180 H 0.18295 0.39661 0.3134 0.0
H2181 H 0.17008 0.42353 0.30255 0.0
H2182 H 0.11 0.39775 0.33429 0.0
H2183 H 0.12325 0.37084 0.34541 0.0
C2184 C 0.09903 0.4322 0.29677 0.0
C2185 C 0.11608 0.45645 0.29361 0.0
C2186 C 0.10622 0.41816 0.30509 0.0
C2187 C 0.13066 0.42804 0.31016 0.0
C2188 C 0.1476 0.45235 0.30714 0.0
C2189 C 0.14034 0.46645 0.29904 0.0
C2190 C 0.16713 0.39684 0.31816 0.0
C2191 C 0.15403 0.38165 0.3302 0.0
C2192 C 0.15985 0.41232 0.312 0.0
C2193 C 0.13904 0.41266 0.31757 0.0
C2194 C 0.12606 0.39771 0.32977 0.0
C2195 C 0.13369 0.38249 0.33617 0.0
H2196 H 0.31445 0.45793 0.2751 0.0
H2197 H 0.36467 0.46563 0.31079 0.0
H2198 H 0.2795 0.43013 0.29069 0.0
H2199 H 0.32965 0.43761 0.32636 0.0
H2200 H 0.2616 0.35781 0.33377 0.0
H2201 H 0.29839 0.39189 0.32285 0.0
H2202 H 0.25767 0.42916 0.31587 0.0
H2203 H 0.22097 0.39515 0.32706 0.0
C2204 C 0.31797 0.45373 0.2863 0.0
C2205 C 0.34224 0.4638 0.29171 0.0
C2206 C 0.29798 0.43805 0.29528 0.0
C2207 C 0.3019 0.43181 0.30975 0.0
C2208 C 0.32615 0.44214 0.31525 0.0
C2209 C 0.34613 0.45817 0.30636 0.0
C2210 C 0.26082 0.37363 0.33031 0.0
C2211 C 0.23871 0.37413 0.3315 0.0
C2212 C 0.28181 0.3931 0.32408 0.0
C2213 C 0.28084 0.41311 0.31849 0.0
C2214 C 0.25888 0.41391 0.32007 0.0
C2215 C 0.23798 0.39458 0.32656 0.0
H2216 H 0.5431 0.84755 0.27474 0.0
H2217 H 0.54775 0.89696 0.3092 0.0
H2218 H 0.57365 0.84129 0.28816 0.0
H2219 H 0.57875 0.89102 0.32252 0.0
H2220 H 0.65894 0.89842 0.32418 0.0
H2221 H 0.62411 0.90191 0.31454 0.0
H2222 H 0.57886 0.82446 0.31424 0.0
H2223 H 0.61358 0.82102 0.32408 0.0
C2224 C 0.55058 0.85696 0.28523 0.0
C2225 C 0.54313 0.8728 0.2909 0.0
C2226 C 0.56793 0.85326 0.29295 0.0
C2227 C 0.57858 0.86568 0.30637 0.0
C2228 C 0.57087 0.88126 0.31218 0.0
C2229 C 0.5531 0.88458 0.3046 0.0
C2230 C 0.64139 0.88219 0.3223 0.0
C2231 C 0.63881 0.8595 0.32519 0.0
C2232 C 0.62147 0.88418 0.31685 0.0
C2233 C 0.59876 0.86346 0.31369 0.0
C2234 C 0.59615 0.84072 0.3166 0.0
C2235 C 0.61595 0.83876 0.32235 0.0
H2236 H 0.16671 0.66471 0.29628 0.0
H2237 H 0.09062 0.64638 0.29153 0.0
H2238 H 0.17707 0.70417 0.30605 0.0
H2239 H 0.10053 0.68538 0.30199 0.0
H2240 H 0.12935 0.76499 0.30913 0.0
H2241 H 0.12025 0.72699 0.29766 0.0
H2242 H 0.17296 0.72302 0.32729 0.0
H2243 H 0.18332 0.76172 0.33788 0.0
C2244 C 0.15218 0.66913 0.29747 0.0
C2245 C 0.12789 0.65257 0.2932 0.0
C2246 C 0.15804 0.69168 0.30315 0.0
C2247 C 0.13963 0.69803 0.30494 0.0
C2248 C 0.1153 0.68137 0.30056 0.0
C2249 C 0.10955 0.65896 0.29464 0.0
C2250 C 0.13909 0.75606 0.31315 0.0
C2251 C 0.15679 0.76628 0.32464 0.0
C2252 C 0.1337 0.73411 0.30665 0.0
C2253 C 0.14571 0.72171 0.31158 0.0
C2254 C 0.16352 0.73208 0.32302 0.0
C2255 C 0.16918 0.75418 0.32933 0.0
H2256 H 0.83713 0.00264 0.38977 0.0
H2257 H 0.78054 0.02216 0.3928 0.0
H2258 H 0.8071 0.9632 0.38004 0.0
H2259 H 0.75053 0.98328 0.38212 0.0
H2260 H 0.69695 0.90391 0.37429 0.0
H2261 H 0.72635 0.94206 0.3858 0.0
H2262 H 0.7849 0.94361 0.35906 0.0
H2263 H 0.75603 0.90469 0.34872 0.0
C2264 C 0.81822 0.99847 0.38815 0.0
C2265 C 0.81108 0.01534 0.39195 0.0
C2266 C 0.80098 0.97593 0.38246 0.0
C2267 C 0.77626 0.96993 0.38009 0.0
C2268 C 0.7692 0.98696 0.38398 0.0
C2269 C 0.78639 0.00933 0.38999 0.0
C2270 C 0.71613 0.91236 0.37093 0.0
C2271 C 0.72398 0.90135 0.36033 0.0
C2272 C 0.73302 0.93443 0.37744 0.0
C2273 C 0.75815 0.94621 0.37337 0.0
C2274 C 0.76588 0.93509 0.36274 0.0
C2275 C 0.74912 0.91285 0.35651 0.0
H2276 H 1.00509 0.82063 0.38077 0.0
H2277 H 1.00122 0.7591 0.4033 0.0
H2278 H 0.04063 0.82565 0.36632 0.0
H2279 H 0.03726 0.76493 0.38967 0.0
H2280 H 0.09069 0.76639 0.3568 0.0
H2281 H 0.05171 0.76102 0.36626 0.0
H2282 H 0.08367 0.83831 0.36873 0.0
H2283 H 0.1224 0.84348 0.35865 0.0
C2284 C 0.01171 0.80811 0.38263 0.0
C2285 C 1.00025 0.78953 0.39333 0.0
C2286 C 0.03231 0.81117 0.37445 0.0
C2287 C 0.04196 0.7957 0.37673 0.0
C2288 C 0.03026 0.77701 0.38732 0.0
C2289 C 0.0097 0.77389 0.39539 0.0
C2290 C 0.08915 0.78221 0.35908 0.0
C2291 C 0.10948 0.80531 0.35687 0.0
C2292 C 0.06689 0.77918 0.36467 0.0
C2293 C 0.06453 0.79921 0.36862 0.0
C2294 C 0.08463 0.82243 0.36577 0.0
C2295 C 0.1069 0.82544 0.35997 0.0
H2296 H 0.19309 0.18023 0.3911 0.0
H2297 H 0.2672 0.2387 0.39883 0.0
H2298 H 0.18335 0.20747 0.37745 0.0
H2299 H 0.2577 0.26588 0.38493 0.0
H2300 H 0.22229 0.31232 0.3776 0.0
H2301 H 0.23352 0.28478 0.38877 0.0
H2302 H 0.19082 0.23146 0.35512 0.0
H2303 H 0.1787 0.25891 0.3442 0.0
C2304 C 0.2074 0.19885 0.38968 0.0
C2305 C 0.23084 0.2074 0.39614 0.0
C2306 C 0.20186 0.21445 0.38181 0.0
C2307 C 0.21969 0.23892 0.38015 0.0
C2308 C 0.24336 0.24726 0.38625 0.0
C2309 C 0.24884 0.23171 0.39421 0.0
C2310 C 0.21547 0.2949 0.37238 0.0
C2311 C 0.19994 0.28813 0.35973 0.0
C2312 C 0.22206 0.27906 0.3788 0.0
C2313 C 0.21331 0.25595 0.37278 0.0
C2314 C 0.19784 0.24912 0.36009 0.0
C2315 C 0.19115 0.265 0.35368 0.0
H2316 H 0.6971 0.54031 0.74104 0.0
H2317 H 0.64814 0.54044 0.70688 0.0
H2318 H 0.73275 0.56824 0.72599 0.0
H2319 H 0.6839 0.56866 0.69185 0.0
H2320 H 0.75515 0.64774 0.68841 0.0
H2321 H 0.71714 0.61316 0.69767 0.0
H2322 H 0.75404 0.57151 0.70011 0.0
H2323 H 0.792 0.6061 0.69063 0.0
C2324 C 0.69401 0.54622 0.73026 0.0
C2325 C 0.6699 0.53839 0.72517 0.0
C2326 C 0.71438 0.56198 0.72159 0.0
C2327 C 0.71106 0.57052 0.70774 0.0
C2328 C 0.68694 0.56231 0.70248 0.0
C2329 C 0.66654 0.54619 0.71105 0.0
C2330 C 0.75486 0.63095 0.69052 0.0
C2331 C 0.77633 0.62945 0.68864 0.0
C2332 C 0.73315 0.61117 0.69577 0.0
C2333 C 0.7327 0.58971 0.69964 0.0
C2334 C 0.75394 0.58789 0.69722 0.0
C2335 C 0.77558 0.60759 0.69169 0.0
H2336 H 0.4727 0.15452 0.74017 0.0
H2337 H 0.46599 0.1077 0.70344 0.0
H2338 H 0.43934 0.15939 0.72942 0.0
H2339 H 0.43238 0.11233 0.6928 0.0
H2340 H 0.39674 0.18106 0.69573 0.0
H2341 H 0.43174 0.1775 0.70473 0.0
H2342 H 0.38746 0.10008 0.70217 0.0
H2343 H 0.35229 0.1037 0.69327 0.0
C2344 C 0.46406 0.14525 0.72982 0.0
C2345 C 0.47196 0.13071 0.72266 0.0
C2346 C 0.4451 0.14817 0.72361 0.0
C2347 C 0.43326 0.13623 0.71027 0.0
C2348 C 0.44111 0.12166 0.70313 0.0
C2349 C 0.46041 0.11912 0.70917 0.0
C2350 C 0.3946 0.16332 0.69678 0.0
C2351 C 0.37199 0.14266 0.69335 0.0
C2352 C 0.41457 0.16127 0.70211 0.0
C2353 C 0.41238 0.13851 0.70408 0.0
C2354 C 0.38978 0.11785 0.7006 0.0
C2355 C 0.36968 0.11991 0.69554 0.0
H2356 H 0.86965 0.32482 0.74832 0.0
H2357 H 0.88287 0.35703 0.7041 0.0
H2358 H 0.86206 0.28701 0.7371 0.0
H2359 H 0.87396 0.31876 0.69298 0.0
H2360 H 0.82515 0.23663 0.68116 0.0
H2361 H 0.8343 0.27503 0.69214 0.0
H2362 H 0.8886 0.27308 0.72113 0.0
H2363 H 0.88031 0.23511 0.70977 0.0
C2364 C 0.8711 0.32398 0.73625 0.0
C2365 C 0.87691 0.34411 0.72715 0.0
C2366 C 0.86661 0.30226 0.72985 0.0
C2367 C 0.86738 0.30006 0.71421 0.0
C2368 C 0.87301 0.31999 0.70507 0.0
C2369 C 0.87794 0.34185 0.71147 0.0
C2370 C 0.83939 0.24453 0.68964 0.0
C2371 C 0.85233 0.23295 0.69433 0.0
C2372 C 0.8445 0.26647 0.69598 0.0
C2373 C 0.8622 0.27696 0.70741 0.0
C2374 C 0.87482 0.26525 0.71234 0.0
C2375 C 0.87007 0.24354 0.7058 0.0
H2376 H 0.22779 0.98292 0.62287 0.0
H2377 H 0.17254 0.00405 0.62703 0.0
H2378 H 0.25869 0.02139 0.63363 0.0
H2379 H 0.20343 0.04307 0.63685 0.0
H2380 H 0.25504 0.0993 0.66903 0.0
H2381 H 0.22574 0.06117 0.65806 0.0
H2382 H 0.28376 0.06286 0.63071 0.0
H2383 H 0.31366 0.10029 0.64283 0.0
C2384 C 0.22243 0.99604 0.62591 0.0
C2385 C 0.19784 0.99056 0.6243 0.0
C2386 C 0.24013 0.01817 0.63198 0.0
C2387 C 0.23367 0.03547 0.63629 0.0
C2388 C 0.20909 0.03008 0.63413 0.0
C2389 C 0.19135 0.00779 0.62838 0.0
C2390 C 0.26176 0.09137 0.66095 0.0
C2391 C 0.2869 0.1027 0.65714 0.0
C2392 C 0.24474 0.06957 0.65436 0.0
C2393 C 0.25216 0.05874 0.64336 0.0
C2394 C 0.2773 0.07032 0.63931 0.0
C2395 C 0.29448 0.09196 0.64619 0.0
H2396 H 0.98916 0.18416 0.61514 0.0
H2397 H 0.03004 0.22908 0.65264 0.0
H2398 H 0.95061 0.17812 0.62628 0.0
H2399 H 0.99146 0.22345 0.66362 0.0
H2400 H 0.91919 0.23194 0.66174 0.0
H2401 H 0.95863 0.23605 0.65366 0.0
H2402 H 0.92481 0.15869 0.65164 0.0
H2403 H 0.88559 0.15463 0.65994 0.0
C2404 C 0.98987 0.19273 0.62576 0.0
C2405 C 0.01259 0.20712 0.63301 0.0
C2406 C 0.96783 0.18915 0.63218 0.0
C2407 C 0.96807 0.2003 0.64582 0.0
C2408 C 0.99077 0.21468 0.65309 0.0
C2409 C 0.01278 0.21783 0.64683 0.0
C2410 C 0.92037 0.21585 0.65984 0.0
C2411 C 0.89951 0.19298 0.66187 0.0
C2412 C 0.9429 0.21818 0.65525 0.0
C2413 C 0.94478 0.19769 0.65206 0.0
C2414 C 0.92389 0.17479 0.65405 0.0
C2415 C 0.90149 0.17246 0.65896 0.0
H2416 H 0.74689 0.76008 0.61986 0.0
H2417 H 0.82061 0.82009 0.62583 0.0
H2418 H 0.75847 0.7339 0.63316 0.0
H2419 H 0.83268 0.79386 0.63855 0.0
H2420 H 0.84217 0.74555 0.67172 0.0
H2421 H 0.82892 0.77182 0.66045 0.0
H2422 H 0.78167 0.71473 0.62993 0.0
H2423 H 0.79358 0.6881 0.64185 0.0
C2424 C 0.76564 0.76758 0.62395 0.0
C2425 C 0.78286 0.79205 0.62183 0.0
C2426 C 0.77236 0.7526 0.6315 0.0
C2427 C 0.7966 0.76168 0.6369 0.0
C2428 C 0.81376 0.78627 0.63482 0.0
C2429 C 0.80691 0.80131 0.62746 0.0
C2430 C 0.8286 0.73846 0.66281 0.0
C2431 C 0.81864 0.71454 0.65792 0.0
C2432 C 0.82124 0.75366 0.65618 0.0
C2433 C 0.80409 0.74544 0.64428 0.0
C2434 C 0.79445 0.7216 0.63928 0.0
C2435 C 0.80151 0.70633 0.64605 0.0
H2436 H 0.97814 0.79294 0.60974 0.0
H2437 H 0.02726 0.79579 0.64478 0.0
H2438 H 0.94256 0.76492 0.62486 0.0
H2439 H 0.9916 0.76736 0.65983 0.0
H2440 H 0.92122 0.68707 0.66325 0.0
H2441 H 0.95891 0.72179 0.65375 0.0
H2442 H 0.92121 0.76266 0.65119 0.0
H2443 H 0.8836 0.728 0.66102 0.0
C2444 C 0.98127 0.78767 0.62072 0.0
C2445 C 1.0054 0.79638 0.62607 0.0
C2446 C 0.96095 0.77185 0.62942 0.0
C2447 C 0.96438 0.76408 0.64352 0.0
C2448 C 0.9885 0.77313 0.64901 0.0
C2449 C 0.00883 0.78937 0.64042 0.0
C2450 C 0.92126 0.70373 0.66106 0.0
C2451 C 0.89967 0.70499 0.66303 0.0
C2452 C 0.94279 0.72357 0.65567 0.0
C2453 C 0.94291 0.74484 0.6517 0.0
C2454 C 0.92155 0.74643 0.65416 0.0
C2455 C 0.90012 0.72669 0.65988 0.0
H2456 H 0.24384 0.24039 0.61251 0.0
H2457 H 0.18532 0.18094 0.63682 0.0
H2458 H 0.27415 0.23396 0.62543 0.0
H2459 H 0.21604 0.17538 0.65053 0.0
H2460 H 0.27807 0.15582 0.65806 0.0
H2461 H 0.24512 0.16146 0.64757 0.0
H2462 H 0.29389 0.23861 0.64856 0.0
H2463 H 0.3268 0.23273 0.65856 0.0
C2464 C 0.23736 0.2259 0.62063 0.0
C2465 C 0.21196 0.21105 0.62343 0.0
C2466 C 0.25489 0.22246 0.62828 0.0
C2467 C 0.24771 0.20421 0.63916 0.0
C2468 C 0.22232 0.18948 0.64215 0.0
C2469 C 0.20468 0.19286 0.63439 0.0
C2470 C 0.28152 0.17395 0.65627 0.0
C2471 C 0.3049 0.19388 0.65929 0.0
C2472 C 0.26264 0.17723 0.65025 0.0
C2473 C 0.2668 0.20052 0.64701 0.0
C2474 C 0.29005 0.22038 0.65053 0.0
C2475 C 0.3089 0.21707 0.6564 0.0
H2476 H 0.77243 0.99479 0.61329 0.0
H2477 H 0.82585 0.99224 0.64303 0.0
H2478 H 0.78219 0.0334 0.62367 0.0
H2479 H 0.83345 0.02944 0.65462 0.0
H2480 H 0.8607 0.10807 0.66346 0.0
H2481 H 0.85236 0.07031 0.65208 0.0
H2482 H 0.77684 0.0525 0.6438 0.0
H2483 H 0.78594 0.09113 0.6542 0.0
C2484 C 0.78625 0.00235 0.62206 0.0
C2485 C 0.79837 0.99019 0.62721 0.0
C2486 C 0.79149 0.02441 0.62828 0.0
C2487 C 0.80855 0.03471 0.64012 0.0
C2488 C 0.8205 0.02244 0.64537 0.0
C2489 C 0.81573 0.00069 0.63888 0.0
C2490 C 0.84235 0.09607 0.65914 0.0
C2491 C 0.82401 0.10258 0.6596 0.0
C2492 C 0.83745 0.07425 0.65271 0.0
C2493 C 0.81386 0.0581 0.64694 0.0
C2494 C 0.7954 0.06457 0.64772 0.0
C2495 C 0.80052 0.08668 0.65381 0.0
H2496 H 0.46391 0.36069 0.70931 0.0
H2497 H 0.48438 0.32398 0.74199 0.0
H2498 H 0.43232 0.32169 0.69916 0.0
H2499 H 0.45328 0.28502 0.73156 0.0
H2500 H 0.41984 0.22794 0.69171 0.0
H2501 H 0.44945 0.26645 0.70302 0.0
H2502 H 0.39089 0.28205 0.71134 0.0
H2503 H 0.36095 0.24314 0.70034 0.0
C2504 C 0.4616 0.34425 0.71429 0.0
C2505 C 0.47647 0.3452 0.7264 0.0
C2506 C 0.44354 0.32205 0.70855 0.0
C2507 C 0.4405 0.3005 0.71461 0.0
C2508 C 0.45538 0.30146 0.72671 0.0
C2509 C 0.47303 0.32364 0.73268 0.0
C2510 C 0.41322 0.23951 0.69599 0.0
C2511 C 0.38806 0.23252 0.69517 0.0
C2512 C 0.43016 0.26147 0.7025 0.0
C2513 C 0.42235 0.27707 0.70803 0.0
C2514 C 0.39728 0.27026 0.70711 0.0
C2515 C 0.3802 0.24801 0.70089 0.0
H2516 H 0.66778 0.09378 0.73743 0.0
H2517 H 0.67041 0.15403 0.71395 0.0
H2518 H 0.70434 0.10015 0.72426 0.0
H2519 H 0.70646 0.15951 0.69988 0.0
H2520 H 0.78879 0.17923 0.69271 0.0
H2521 H 0.74953 0.17325 0.70244 0.0
H2522 H 0.71992 0.09617 0.70146 0.0
H2523 H 0.75945 0.10243 0.69243 0.0
C2524 C 0.67609 0.1084 0.7294 0.0
C2525 C 0.66615 0.12356 0.72697 0.0
C2526 C 0.69696 0.11181 0.72157 0.0
C2527 C 0.70851 0.1303 0.71084 0.0
C2528 C 0.69831 0.14522 0.70814 0.0
C2529 C 0.6774 0.14189 0.7161 0.0
C2530 C 0.77369 0.16105 0.69432 0.0
C2531 C 0.77708 0.14126 0.69174 0.0
C2532 C 0.75111 0.15756 0.6999 0.0
C2533 C 0.73148 0.13419 0.70303 0.0
C2534 C 0.7347 0.11446 0.69965 0.0
C2535 C 0.75728 0.11798 0.69431 0.0
H2536 H 0.8921 0.52926 0.71128 0.0
H2537 H 0.87872 0.5544 0.75339 0.0
H2538 H 0.88061 0.5553 0.69766 0.0
H2539 H 0.86819 0.58099 0.73972 0.0
H2540 H 0.88214 0.64537 0.70996 0.0
H2541 H 0.89209 0.6179 0.72287 0.0
H2542 H 0.84185 0.55987 0.69402 0.0
H2543 H 0.83122 0.58725 0.68122 0.0
C2544 C 0.88655 0.54016 0.71765 0.0
C2545 C 0.88644 0.53974 0.73347 0.0
C2546 C 0.88005 0.55511 0.70983 0.0
C2547 C 0.87362 0.57018 0.71765 0.0
C2548 C 0.87339 0.56975 0.73342 0.0
C2549 C 0.87958 0.55461 0.74124 0.0
C2550 C 0.87311 0.62679 0.7063 0.0
C2551 C 0.85593 0.6186 0.69444 0.0
C2552 C 0.87881 0.61104 0.71376 0.0
C2553 C 0.8677 0.58679 0.70946 0.0
C2554 C 0.85082 0.57857 0.69747 0.0
C2555 C 0.84481 0.59428 0.69012 0.0
H2556 H 0.43624 0.9131 0.17098 0.0
H2557 H 0.50589 0.96656 0.18974 0.0
H2558 H 0.44932 0.93173 0.14625 0.0
H2559 H 0.51864 0.98597 0.16535 0.0
H2560 H 0.5459 0.00633 0.11813 0.0
H2561 H 0.5322 0.98425 0.14169 0.0
H2562 H 0.4568 0.96391 0.13083 0.0
H2563 H 0.47069 0.98503 0.10682 0.0
C2564 C 0.45429 0.92899 0.16982 0.0
C2565 C 0.47007 0.93826 0.18231 0.0
C2566 C 0.4618 0.93981 0.15563 0.0
C2567 C 0.48519 0.96046 0.15358 0.0
C2568 C 0.50079 0.96979 0.16621 0.0
C2569 C 0.49343 0.95874 0.1803 0.0
C2570 C 0.52637 0.99695 0.12077 0.0
C2571 C 0.50939 0.99748 0.11066 0.0
C2572 C 0.51846 0.98443 0.13438 0.0
C2573 C 0.49332 0.97243 0.13848 0.0
C2574 C 0.47625 0.97259 0.12814 0.0
C2575 C 0.48418 0.98479 0.11436 0.0
H2576 H 1.00288 0.5212 0.19218 0.0
H2577 H 0.06325 0.5126 0.17646 0.0
H2578 H 0.98521 0.51295 0.16703 0.0
H2579 H 0.04632 0.50543 0.15098 0.0
H2580 H 0.99838 0.47539 0.10864 0.0
H2581 H 0.01487 0.4798 0.1341 0.0
H2582 H 0.99246 0.53223 0.14385 0.0
H2583 H 0.97522 0.52695 0.11874 0.0
C2584 C 0.01235 0.51753 0.18327 0.0
C2585 C 0.03444 0.51763 0.18619 0.0
C2586 C 1.00238 0.51302 0.16881 0.0
C2587 C 0.01452 0.50894 0.15682 0.0
C2588 C 0.03631 0.5083 0.1599 0.0
C2589 C 0.04607 0.51245 0.17447 0.0
C2590 C 0.99709 0.48786 0.11628 0.0
C2591 C 0.98534 0.50066 0.11179 0.0
C2592 C 0.00659 0.49047 0.13086 0.0
C2593 C 1.0048 0.50618 0.14118 0.0
C2594 C 0.99358 0.51942 0.13644 0.0
C2595 C 0.98382 0.51655 0.12199 0.0
H2596 H 0.47753 0.49555 0.18872 0.0
H2597 H 0.47821 0.55686 0.16814 0.0
H2598 H 0.48756 0.48454 0.16439 0.0
H2599 H 0.48758 0.54548 0.14372 0.0
H2600 H 0.47797 0.49607 0.10131 0.0
H2601 H 0.46541 0.50597 0.12499 0.0
H2602 H 0.52878 0.51001 0.14702 0.0
H2603 H 0.54246 0.50176 0.12331 0.0
C2604 C 0.47942 0.50639 0.17893 0.0
C2605 C 0.47715 0.52703 0.18025 0.0
C2606 C 0.48526 0.50019 0.16508 0.0
C2607 C 0.48835 0.51421 0.15225 0.0
C2608 C 0.48517 0.53435 0.15345 0.0
C2609 C 0.47991 0.54087 0.16738 0.0
C2610 C 0.48957 0.49949 0.11108 0.0
C2611 C 0.5113 0.498 0.11025 0.0
C2612 C 0.48219 0.50495 0.12467 0.0
C2613 C 0.49603 0.5085 0.1378 0.0
C2614 C 0.5176 0.50697 0.13707 0.0
C2615 C 0.52531 0.50207 0.12345 0.0
H2616 H 0.99801 0.50303 0.83075 0.0
H2617 H 0.93362 0.44217 0.84967 0.0
H2618 H 0.01745 0.51305 0.85546 0.0
H2619 H 0.95208 0.45286 0.87461 0.0
H2620 H 1.00122 0.46217 0.91453 0.0
H2621 H 0.98156 0.45248 0.88989 0.0
H2622 H 0.01862 0.52847 0.87899 0.0
H2623 H 0.03939 0.53768 0.9033 0.0
C2624 C 0.98792 0.49206 0.84031 0.0
C2625 C 0.96445 0.47181 0.83838 0.0
C2626 C 0.99893 0.49784 0.85452 0.0
C2627 C 0.98645 0.48379 0.86718 0.0
C2628 C 0.96261 0.46382 0.86517 0.0
C2629 C 0.95188 0.45776 0.85091 0.0
C2630 C 1.00505 0.47669 0.9068 0.0
C2631 C 0.02181 0.50061 0.91069 0.0
C2632 C 0.99367 0.47123 0.8927 0.0
C2633 C 0.99838 0.48966 0.88231 0.0
C2634 C 0.01488 0.51369 0.88646 0.0
C2635 C 0.02667 0.51906 0.90043 0.0
H2636 H 0.53731 0.44357 0.85034 0.0
H2637 H 0.53767 0.50436 0.8292 0.0
H2638 H 0.52757 0.45515 0.87457 0.0
H2639 H 0.52731 0.51557 0.85333 0.0
H2640 H 0.47251 0.49946 0.89412 0.0
H2641 H 0.48618 0.49055 0.87062 0.0
H2642 H 0.54932 0.49479 0.89309 0.0
H2643 H 0.53676 0.50531 0.91653 0.0
C2644 C 0.53547 0.45948 0.85093 0.0
C2645 C 0.53827 0.47313 0.83796 0.0
C2646 C 0.52998 0.46612 0.86475 0.0
C2647 C 0.52662 0.48617 0.86575 0.0
C2648 C 0.52974 0.49999 0.85281 0.0
C2649 C 0.53578 0.49367 0.83907 0.0
C2650 C 0.48959 0.49902 0.89412 0.0
C2651 C 0.50354 0.50334 0.90737 0.0
C2652 C 0.4973 0.49375 0.88062 0.0
C2653 C 0.51882 0.49208 0.88008 0.0
C2654 C 0.53258 0.49587 0.89327 0.0
C2655 C 0.52519 0.5017 0.90673 0.0
H2656 H 0.5324 0.03286 0.82909 0.0
H2657 H 0.52576 0.09069 0.84906 0.0
H2658 H 0.52353 0.01243 0.85347 0.0
H2659 H 0.51744 0.07046 0.87359 0.0
H2660 H 0.53251 0.03348 0.91643 0.0
H2661 H 0.54178 0.05614 0.8929 0.0
H2662 H 0.48303 0.99408 0.87086 0.0
H2663 H 0.47259 0.97183 0.89437 0.0
C2664 C 0.52933 0.04133 0.83874 0.0
C2665 C 0.52974 0.06335 0.83717 0.0
C2666 C 0.52414 0.02959 0.85266 0.0
C2667 C 0.51977 0.03985 0.86541 0.0
C2668 C 0.52083 0.0622 0.86396 0.0
C2669 C 0.52547 0.07369 0.84994 0.0
C2670 C 0.52116 0.02472 0.9067 0.0
C2671 C 0.50191 0.00054 0.90745 0.0
C2672 C 0.52664 0.03772 0.89318 0.0
C2673 C 0.51332 0.02676 0.88002 0.0
C2674 C 0.49388 0.00286 0.88077 0.0
C2675 C 0.48805 0.99005 0.8943 0.0
H2676 H 0.13479 0.31293 0.52516 0.0
H2677 H 0.14159 0.2539 0.50739 0.0
H2678 H 0.14697 0.33331 0.50079 0.0
H2679 H 0.15325 0.2741 0.4828 0.0
H2680 H 0.14116 0.3095 0.43832 0.0
H2681 H 0.1308 0.28786 0.46221 0.0
H2682 H 0.18783 0.35112 0.48427 0.0
H2683 H 0.19939 0.37245 0.4604 0.0
C2684 C 0.13879 0.30428 0.516 0.0
C2685 C 0.13724 0.28183 0.51817 0.0
C2686 C 0.14586 0.31598 0.50209 0.0
C2687 C 0.15104 0.30528 0.4899 0.0
C2688 C 0.14926 0.2827 0.49199 0.0
C2689 C 0.14273 0.27123 0.50605 0.0
C2690 C 0.15194 0.31877 0.44813 0.0
C2691 C 0.17109 0.34299 0.44724 0.0
C2692 C 0.14584 0.30632 0.46187 0.0
C2693 C 0.15839 0.31787 0.47512 0.0
C2694 C 0.17762 0.34186 0.47427 0.0
C2695 C 0.18408 0.35415 0.46053 0.0
H2696 H 0.68239 0.83575 0.52248 0.0
H2697 H 0.74794 0.8938 0.50247 0.0
H2698 H 0.66217 0.82563 0.49803 0.0
H2699 H 0.72854 0.88294 0.47776 0.0
H2700 H 0.6789 0.87436 0.43822 0.0
H2701 H 0.69926 0.88433 0.46264 0.0
H2702 H 0.65964 0.8088 0.47474 0.0
H2703 H 0.63827 0.79935 0.45064 0.0
C2704 C 0.69256 0.84607 0.51273 0.0
C2705 C 0.71662 0.86556 0.51429 0.0
C2706 C 0.68108 0.84022 0.49868 0.0
C2707 C 0.69363 0.85343 0.48578 0.0
C2708 C 0.718 0.87266 0.4874 0.0
C2709 C 0.72926 0.87881 0.50153 0.0
C2710 C 0.67462 0.85999 0.44617 0.0
C2711 C 0.657 0.83615 0.44266 0.0
C2712 C 0.68641 0.86561 0.46014 0.0
C2713 C 0.68121 0.8474 0.4708 0.0
C2714 C 0.66379 0.82343 0.46705 0.0
C2715 C 0.65164 0.81792 0.45321 0.0
H2716 H 0.14241 0.88782 0.50317 0.0
H2717 H 0.14046 0.82558 0.5231 0.0
H2718 H 0.15007 0.87614 0.47858 0.0
H2719 H 0.14974 0.8145 0.49879 0.0
H2720 H 0.15006 0.78969 0.45156 0.0
H2721 H 0.13695 0.79942 0.47504 0.0
H2722 H 0.18002 0.87527 0.46414 0.0
H2723 H 0.19161 0.8651 0.44027 0.0
C2724 C 0.14373 0.87164 0.50223 0.0
C2725 C 0.14083 0.85756 0.51497 0.0
C2726 C 0.14837 0.86501 0.48817 0.0
C2727 C 0.15083 0.84442 0.48655 0.0
C2728 C 0.14757 0.83021 0.49939 0.0
C2729 C 0.14238 0.83658 0.51339 0.0
C2730 C 0.1565 0.8084 0.45422 0.0
C2731 C 0.17182 0.82666 0.44416 0.0
C2732 C 0.14918 0.81407 0.46774 0.0
C2733 C 0.15747 0.83822 0.4717 0.0
C2734 C 0.17275 0.85644 0.46148 0.0
C2735 C 0.1796 0.8507 0.44781 0.0
H2736 H 0.67101 0.80568 0.16237 0.0
H2737 H 0.61029 0.81241 0.17964 0.0
H2738 H 0.69042 0.81539 0.18705 0.0
H2739 H 0.62905 0.82112 0.20459 0.0
H2740 H 0.67954 0.8557 0.24506 0.0
H2741 H 0.66147 0.8491 0.21996 0.0
H2742 H 0.68599 0.79807 0.2108 0.0
H2743 H 0.70479 0.80552 0.2356 0.0
C2744 C 0.66179 0.80913 0.17152 0.0
C2745 C 0.63914 0.80821 0.16915 0.0
C2746 C 0.6728 0.81455 0.1857 0.0
C2747 C 0.66121 0.81878 0.19794 0.0
C2748 C 0.6387 0.81827 0.19545 0.0
C2749 C 0.62788 0.8132 0.18117 0.0
C2750 C 0.68099 0.84308 0.23762 0.0
C2751 C 0.69367 0.83123 0.2422 0.0
C2752 C 0.67057 0.8392 0.22326 0.0
C2753 C 0.67233 0.82313 0.21325 0.0
C2754 C 0.68475 0.81104 0.21801 0.0
C2755 C 0.69544 0.81518 0.23226 0.0
H2756 H 0.20264 0.77843 0.1827 0.0
H2757 H 0.20323 0.84024 0.16312 0.0
H2758 H 0.19463 0.78955 0.20738 0.0
H2759 H 0.19359 0.85073 0.18751 0.0
H2760 H 0.1925 0.87456 0.23492 0.0
H2761 H 0.20613 0.86559 0.21136 0.0
H2762 H 0.16411 0.78949 0.22176 0.0
H2763 H 0.15201 0.7989 0.24569 0.0
C2764 C 0.20096 0.7944 0.18374 0.0
C2765 C 0.20356 0.80852 0.17108 0.0
C2766 C 0.19612 0.8007 0.19785 0.0
C2767 C 0.19315 0.82097 0.19958 0.0
C2768 C 0.19615 0.83525 0.18682 0.0
C2769 C 0.20154 0.82922 0.17277 0.0
C2770 C 0.1864 0.85596 0.23213 0.0
C2771 C 0.17124 0.83741 0.24206 0.0
C2772 C 0.19402 0.85073 0.21857 0.0
C2773 C 0.18619 0.82674 0.21445 0.0
C2774 C 0.17104 0.80822 0.22455 0.0
C2775 C 0.16389 0.81353 0.23825 0.0
H2776 H 0.16244 0.36413 0.16367 0.0
H2777 H 0.23261 0.42107 0.1796 0.0
H2778 H 0.15402 0.34492 0.18817 0.0
H2779 H 0.2238 0.40254 0.20457 0.0
H2780 H 0.20883 0.35057 0.24439 0.0
H2781 H 0.21958 0.37103 0.22001 0.0
H2782 H 0.14255 0.34773 0.2123 0.0
H2783 H 0.13201 0.32642 0.23616 0.0
C2784 C 0.17598 0.37266 0.17252 0.0
C2785 C 0.1981 0.39418 0.16974 0.0
C2786 C 0.1711 0.36176 0.18667 0.0
C2787 C 0.18798 0.37227 0.19861 0.0
C2788 C 0.21037 0.39369 0.19572 0.0
C2789 C 0.21544 0.40441 0.18142 0.0
C2790 C 0.19432 0.35002 0.23745 0.0
C2791 C 0.16957 0.33672 0.24209 0.0
C2792 C 0.20043 0.36181 0.22348 0.0
C2793 C 0.18195 0.36086 0.21391 0.0
C2794 C 0.15731 0.34833 0.21899 0.0
C2795 C 0.15121 0.33625 0.23277 0.0
H2796 H 0.772 0.57925 0.83758 0.0
H2797 H 0.84179 0.63286 0.8561 0.0
H2798 H 0.78472 0.59784 0.81283 0.0
H2799 H 0.8542 0.65227 0.83167 0.0
H2800 H 0.88046 0.6731 0.78429 0.0
H2801 H 0.8674 0.65089 0.80783 0.0
H2802 H 0.79163 0.63002 0.79765 0.0
H2803 H 0.80488 0.65126 0.77367 0.0
C2804 C 0.79002 0.59515 0.83636 0.0
C2805 C 0.80593 0.60451 0.84879 0.0
C2806 C 0.79732 0.60596 0.82216 0.0
C2807 C 0.82061 0.6267 0.82004 0.0
C2808 C 0.8364 0.63605 0.83259 0.0
C2809 C 0.82925 0.62499 0.8467 0.0
C2810 C 0.86099 0.66358 0.78707 0.0
C2811 C 0.84371 0.66399 0.77716 0.0
C2812 C 0.85344 0.65098 0.80067 0.0
C2813 C 0.82838 0.63878 0.80495 0.0
C2814 C 0.81103 0.63884 0.79481 0.0
C2815 C 0.81859 0.65111 0.78104 0.0
H2816 H 0.40813 0.22343 0.83623 0.0
H2817 H 0.34346 0.16451 0.85651 0.0
H2818 H 0.38802 0.21233 0.81154 0.0
H2819 H 0.32305 0.15383 0.83186 0.0
H2820 H 0.29106 0.17228 0.78804 0.0
H2821 H 0.31101 0.18054 0.81257 0.0
H2822 H 0.36923 0.17091 0.79412 0.0
H2823 H 0.34866 0.16102 0.76974 0.0
C2824 C 0.38962 0.20811 0.83535 0.0
C2825 C 0.37726 0.19477 0.84817 0.0
C2826 C 0.37821 0.20175 0.82128 0.0
C2827 C 0.35405 0.1823 0.8199 0.0
C2828 C 0.34168 0.16894 0.83272 0.0
C2829 C 0.35333 0.17496 0.84674 0.0
C2830 C 0.30782 0.17138 0.78918 0.0
C2831 C 0.31813 0.16591 0.77678 0.0
C2832 C 0.31929 0.17628 0.80324 0.0
C2833 C 0.34158 0.17634 0.80514 0.0
C2834 C 0.3521 0.17111 0.79284 0.0
C2835 C 0.34036 0.16567 0.77885 0.0
H2836 H 0.84979 0.1921 0.85789 0.0
H2837 H 0.78362 0.18742 0.83965 0.0
H2838 H 0.86014 0.18309 0.83331 0.0
H2839 H 0.79442 0.17942 0.8147 0.0
H2840 H 0.81259 0.1469 0.77376 0.0
H2841 H 0.79922 0.15267 0.79848 0.0
H2842 H 0.87528 0.20208 0.81028 0.0
H2843 H 0.88843 0.1955 0.78592 0.0
C2844 C 0.83748 0.18916 0.84855 0.0
C2845 C 0.816 0.1906 0.85063 0.0
C2846 C 0.84349 0.1842 0.8344 0.0
C2847 C 0.82841 0.18097 0.82185 0.0
C2848 C 0.80644 0.18164 0.82406 0.0
C2849 C 0.80023 0.18627 0.83834 0.0
C2850 C 0.82636 0.15904 0.78167 0.0
C2851 C 0.85157 0.17056 0.77798 0.0
C2852 C 0.81872 0.16242 0.79583 0.0
C2853 C 0.83614 0.17762 0.80655 0.0
C2854 C 0.86131 0.18966 0.80258 0.0
C2855 C 0.86891 0.18604 0.78855 0.0
H2856 H 0.27058 0.10993 0.51604 0.0
H2857 H 0.33543 0.16899 0.49614 0.0
H2858 H 0.28963 0.12132 0.5408 0.0
H2859 H 0.35538 0.17969 0.52069 0.0
H2860 H 0.3779 0.20636 0.56829 0.0
H2861 H 0.35726 0.19635 0.54394 0.0
H2862 H 0.31907 0.12086 0.55614 0.0
H2863 H 0.33865 0.13135 0.58079 0.0
C2864 C 0.28906 0.12526 0.51702 0.0
C2865 C 0.30159 0.13862 0.50427 0.0
C2866 C 0.30012 0.13172 0.53118 0.0
C2867 C 0.32423 0.15139 0.53287 0.0
C2868 C 0.33667 0.16474 0.51998 0.0
C2869 C 0.32536 0.15856 0.50587 0.0
C2870 C 0.36503 0.18767 0.56569 0.0
C2871 C 0.3598 0.16961 0.57634 0.0
C2872 C 0.35328 0.18184 0.5517 0.0
C2873 C 0.33642 0.15772 0.54792 0.0
C2874 C 0.33145 0.13967 0.55866 0.0
C2875 C 0.34281 0.1456 0.57276 0.0
H2876 H 0.88155 0.17906 0.50139 0.0
H2877 H 0.8442 0.10308 0.51204 0.0
H2878 H 0.87201 0.18754 0.52656 0.0
H2879 H 0.83391 0.11161 0.53679 0.0
H2880 H 0.79063 0.13592 0.56814 0.0
H2881 H 0.80507 0.12863 0.54427 0.0
H2882 H 0.87985 0.18217 0.55558 0.0
H2883 H 0.86536 0.18923 0.57971 0.0
C2884 C 0.87162 0.1642 0.5091 0.0
C2885 C 0.86329 0.14032 0.50452 0.0
C2886 C 0.86611 0.16909 0.5235 0.0
C2887 C 0.85194 0.15019 0.53352 0.0
C2888 C 0.84449 0.12648 0.52919 0.0
C2889 C 0.85029 0.12163 0.51494 0.0
C2890 C 0.81014 0.14612 0.56553 0.0
C2891 C 0.82688 0.16314 0.57574 0.0
C2892 C 0.81842 0.14187 0.55192 0.0
C2893 C 0.84357 0.15482 0.5481 0.0
C2894 C 0.86036 0.17201 0.55825 0.0
C2895 C 0.85211 0.17594 0.57204 0.0
H2896 H 0.86045 0.75783 0.51567 0.0
H2897 H 0.86609 0.69946 0.49566 0.0
H2898 H 0.85179 0.73751 0.54018 0.0
H2899 H 0.8569 0.67896 0.52003 0.0
H2900 H 0.8058 0.63869 0.56089 0.0
H2901 H 0.81657 0.66096 0.53738 0.0
H2902 H 0.87547 0.72276 0.55953 0.0
H2903 H 0.86585 0.70008 0.58306 0.0
C2904 C 0.85987 0.74069 0.51653 0.0
C2905 C 0.86395 0.73023 0.50376 0.0
C2906 C 0.85504 0.72915 0.53055 0.0
C2907 C 0.8536 0.70663 0.53199 0.0
C2908 C 0.8578 0.69625 0.51923 0.0
C2909 C 0.86317 0.70803 0.50531 0.0
C2910 C 0.82136 0.65686 0.56084 0.0
C2911 C 0.83515 0.66727 0.57402 0.0
C2912 C 0.82738 0.66968 0.54731 0.0
C2913 C 0.84696 0.69351 0.54659 0.0
C2914 C 0.86022 0.7044 0.55978 0.0
C2915 C 0.85455 0.69138 0.57331 0.0
loop_
_geom_bond_atom_site_label_1
_geom_bond_atom_site_label_2
_geom_bond_distance
_geom_bond_site_symmetry_2
_ccdc_geom_bond_type
C0 C1 1.391 . S
C0 C4 1.391 . S
C0 H42 0.948 . S
C1 C0 1.391 . S
C1 C2 1.391 . S
C2 C1 1.391 . S
C2 H58 0.947 . S
C2 C59 1.392 . S
C3 C4 1.391 . S
C3 C7 1.397 . S
C3 C59 1.419 . S
C4 C0 1.391 . S
C4 C3 1.391 . S
C4 C5 1.399 . S
C5 C4 1.399 . S
C5 C8 1.396 . S
C5 C17 1.453 . S
C5 C18 1.684 . S
H6 C30 0.948 . S
C7 C3 1.397 . S
C7 C8 1.394 . S
C7 C26 1.723 . S
C8 C5 1.396 . S
C8 C7 1.394 . S
C8 C38 1.723 . S
H9 C32 0.947 . S
H10 C33 0.948 . S
H11 C39 0.982 . S
H12 C40 0.979 . S
H13 C40 0.980 . S
H14 C40 0.983 . S
H15 C39 0.979 . S
H16 C39 0.977 . S
C17 C5 1.453 . S
C17 H46 0.982 . S
C17 H47 0.979 . S
C17 H48 0.977 . S
C18 C5 1.684 . S
C18 H43 0.979 . S
C18 H44 0.980 . S
C18 H45 0.983 . S
C19 C20 1.391 . S
C19 C24 1.391 . S
C19 H49 0.948 . S
C20 C19 1.391 . S
C20 C21 1.391 . S
C21 C20 1.391 . S
C21 C22 1.392 . S
C21 H50 0.947 . S
C22 C21 1.392 . S
C22 C23 1.419 . S
C22 H51 0.948 . S
C23 C22 1.419 . S
C23 C24 1.391 . S
C23 C27 1.397 . S
C24 C19 1.391 . S
C24 C23 1.391 . S
C24 C25 1.399 . S
C25 C24 1.399 . S
C25 C26 1.396 . S
C25 C28 1.453 . S
C25 C29 1.684 . S
C26 C7 1.723 . S
C26 C25 1.396 . S
C26 C27 1.394 . S
C27 C23 1.397 . S
C27 C26 1.394 . S
C27 C37 1.723 . S
C28 C25 1.453 . S
C28 H52 0.982 . S
C28 H53 0.979 . S
C28 H54 0.977 . S
C29 C25 1.684 . S
C29 H55 0.979 . S
C29 H56 0.980 . S
C29 H57 0.983 . S
C30 H6 0.948 . S
C30 C31 1.391 . S
C30 C35 1.391 . S
C31 C30 1.391 . S
C31 C32 1.391 . S
C32 H9 0.947 . S
C32 C31 1.391 . S
C32 C33 1.392 . S
C33 H10 0.948 . S
C33 C32 1.392 . S
C33 C34 1.419 . S
C34 C33 1.419 . S
C34 C35 1.391 . S
C34 C38 1.397 . S
C35 C30 1.391 . S
C35 C34 1.391 . S
C35 C36 1.399 . S
C36 C35 1.399 . S
C36 C37 1.396 . S
C36 C39 1.453 . S
C36 C40 1.684 . S
C37 C27 1.723 . S
C37 C36 1.396 . S
C37 C38 1.394 . S
C38 C8 1.723 . S
C38 C34 1.397 . S
C38 C37 1.394 . S
C39 H11 0.982 . S
C39 H15 0.979 . S
C39 H16 0.977 . S
C39 C36 1.453 . S
C40 H12 0.979 . S
C40 H13 0.980 . S
C40 H14 0.983 . S
C40 C36 1.684 . S
H41 C59 0.948 . S
H42 C0 0.948 . S
H43 C18 0.979 . S
H44 C18 0.980 . S
H45 C18 0.983 . S
H46 C17 0.982 . S
H47 C17 0.979 . S
H48 C17 0.977 . S
H49 C19 0.948 . S
H50 C21 0.947 . S
H51 C22 0.948 . S
H52 C28 0.982 . S
H53 C28 0.979 . S
H54 C28 0.977 . S
H55 C29 0.979 . S
H56 C29 0.980 . S
H57 C29 0.983 . S
H58 C2 0.947 . S
C59 C2 1.392 . S
C59 C3 1.419 . S
C59 H41 0.948 . S
C60 C61 1.391 . S
C60 C64 1.391 . S
C60 H102 0.948 . S
C61 C60 1.391 . S
C61 C62 1.391 . S
C62 C61 1.391 . S
C62 H118 0.947 . S
C62 C119 1.392 . S
C63 C64 1.391 . S
C63 C67 1.397 . S
C63 C119 1.419 . S
C64 C60 1.391 . S
C64 C63 1.391 . S
C64 C65 1.399 . S
C65 C64 1.399 . S
C65 C68 1.396 . S
C65 C77 1.453 . S
C65 C78 1.684 . S
H66 C90 0.948 . S
C67 C63 1.397 . S
C67 C68 1.394 . S
C67 C86 1.723 . S
C68 C65 1.396 . S
C68 C67 1.394 . S
C68 C98 1.723 . S
H69 C92 0.947 . S
H70 C93 0.948 . S
H71 C99 0.982 . S
H72 C100 0.979 . S
H73 C100 0.980 . S
H74 C100 0.983 . S
H75 C99 0.979 . S
H76 C99 0.977 . S
C77 C65 1.453 . S
C77 H106 0.982 . S
C77 H107 0.979 . S
C77 H108 0.977 . S
C78 C65 1.684 . S
C78 H103 0.979 . S
C78 H104 0.980 . S
C78 H105 0.983 . S
C79 C80 1.391 . S
C79 C84 1.391 . S
C79 H109 0.948 . S
C80 C79 1.391 . S
C80 C81 1.391 . S
C81 C80 1.391 . S
C81 C82 1.392 . S
C81 H110 0.947 . S
C82 C81 1.392 . S
C82 C83 1.419 . S
C82 H111 0.948 . S
C83 C82 1.419 . S
C83 C84 1.391 . S
C83 C87 1.397 . S
C84 C79 1.391 . S
C84 C83 1.391 . S
C84 C85 1.399 . S
C85 C84 1.399 . S
C85 C86 1.396 . S
C85 C88 1.453 . S
C85 C89 1.684 . S
C86 C67 1.723 . S
C86 C85 1.396 . S
C86 C87 1.394 . S
C87 C83 1.397 . S
C87 C86 1.394 . S
C87 C97 1.723 . S
C88 C85 1.453 . S
C88 H112 0.982 . S
C88 H113 0.979 . S
C88 H114 0.977 . S
C89 C85 1.684 . S
C89 H115 0.979 . S
C89 H116 0.980 . S
C89 H117 0.983 . S
C90 H66 0.948 . S
C90 C91 1.391 . S
C90 C95 1.391 . S
C91 C90 1.391 . S
C91 C92 1.391 . S
C92 H69 0.947 . S
C92 C91 1.391 . S
C92 C93 1.392 . S
C93 H70 0.948 . S
C93 C92 1.392 . S
C93 C94 1.419 . S
C94 C93 1.419 . S
C94 C95 1.391 . S
C94 C98 1.397 . S
C95 C90 1.391 . S
C95 C94 1.391 . S
C95 C96 1.399 . S
C96 C95 1.399 . S
C96 C97 1.396 . S
C96 C99 1.453 . S
C96 C100 1.684 . S
C97 C87 1.723 . S
C97 C96 1.396 . S
C97 C98 1.394 . S
C98 C68 1.723 . S
C98 C94 1.397 . S
C98 C97 1.394 . S
C99 H71 0.982 . S
C99 H75 0.979 . S
C99 H76 0.977 . S
C99 C96 1.453 . S
C100 H72 0.979 . S
C100 H73 0.980 . S
C100 H74 0.983 . S
C100 C96 1.684 . S
H101 C119 0.948 . S
H102 C60 0.948 . S
H103 C78 0.979 . S
H104 C78 0.980 . S
H105 C78 0.983 . S
H106 C77 0.982 . S
H107 C77 0.979 . S
H108 C77 0.977 . S
H109 C79 0.948 . S
H110 C81 0.947 . S
H111 C82 0.948 . S
H112 C88 0.982 . S
H113 C88 0.979 . S
H114 C88 0.977 . S
H115 C89 0.979 . S
H116 C89 0.980 . S
H117 C89 0.983 . S
H118 C62 0.947 . S
C119 C62 1.392 . S
C119 C63 1.419 . S
C119 H101 0.948 . S
C120 C121 1.391 . S
C120 C124 1.391 . S
C120 H162 0.948 . S
C121 C120 1.391 . S
C121 C122 1.391 . S
C122 C121 1.391 . S
C122 H178 0.947 . S
C122 C179 1.392 . S
C123 C124 1.391 . S
C123 C127 1.397 . S
C123 C179 1.419 . S
C124 C120 1.391 . S
C124 C123 1.391 . S
C124 C125 1.399 . S
C125 C124 1.399 . S
C125 C128 1.396 . S
C125 C137 1.453 . S
C125 C138 1.684 . S
H126 C150 0.948 . S
C127 C123 1.397 . S
C127 C128 1.394 . S
C127 C146 1.723 . S
C128 C125 1.396 . S
C128 C127 1.394 . S
C128 C158 1.723 . S
H129 C152 0.947 . S
H130 C153 0.948 . S
H131 C159 0.982 . S
H132 C160 0.979 . S
H133 C160 0.980 . S
H134 C160 0.983 . S
H135 C159 0.979 . S
H136 C159 0.977 . S
C137 C125 1.453 . S
C137 H166 0.982 . S
C137 H167 0.979 . S
C137 H168 0.977 . S
C138 C125 1.684 . S
C138 H163 0.979 . S
C138 H164 0.980 . S
C138 H165 0.983 . S
C139 C140 1.391 . S
C139 C144 1.391 . S
C139 H169 0.948 . S
C140 C139 1.391 . S
C140 C141 1.391 . S
C141 C140 1.391 . S
C141 C142 1.392 . S
C141 H170 0.947 . S
C142 C141 1.392 . S
C142 C143 1.419 . S
C142 H171 0.948 . S
C143 C142 1.419 . S
C143 C144 1.391 . S
C143 C147 1.397 . S
C144 C139 1.391 . S
C144 C143 1.391 . S
C144 C145 1.399 . S
C145 C144 1.399 . S
C145 C146 1.396 . S
C145 C148 1.453 . S
C145 C149 1.684 . S
C146 C127 1.723 . S
C146 C145 1.396 . S
C146 C147 1.394 . S
C147 C143 1.397 . S
C147 C146 1.394 . S
C147 C157 1.723 . S
C148 C145 1.453 . S
C148 H172 0.982 . S
C148 H173 0.979 . S
C148 H174 0.977 . S
C149 C145 1.684 . S
C149 H175 0.979 . S
C149 H176 0.980 . S
C149 H177 0.983 . S
C150 H126 0.948 . S
C150 C151 1.391 . S
C150 C155 1.391 . S
C151 C150 1.391 . S
C151 C152 1.391 . S
C152 H129 0.947 . S
C152 C151 1.391 . S
C152 C153 1.392 . S
C153 H130 0.948 . S
C153 C152 1.392 . S
C153 C154 1.419 . S
C154 C153 1.419 . S
C154 C155 1.391 . S
C154 C158 1.397 . S
C155 C150 1.391 . S
C155 C154 1.391 . S
C155 C156 1.399 . S
C156 C155 1.399 . S
C156 C157 1.396 . S
C156 C159 1.453 . S
C156 C160 1.684 . S
C157 C147 1.723 . S
C157 C156 1.396 . S
C157 C158 1.394 . S
C158 C128 1.723 . S
C158 C154 1.397 . S
C158 C157 1.394 . S
C159 H131 0.982 . S
C159 H135 0.979 . S
C159 H136 0.977 . S
C159 C156 1.453 . S
C160 H132 0.979 . S
C160 H133 0.980 . S
C160 H134 0.983 . S
C160 C156 1.684 . S
H161 C179 0.948 . S
H162 C120 0.948 . S
H163 C138 0.979 . S
H164 C138 0.980 . S
H165 C138 0.983 . S
H166 C137 0.982 . S
H167 C137 0.979 . S
H168 C137 0.977 . S
H169 C139 0.948 . S
H170 C141 0.947 . S
H171 C142 0.948 . S
H172 C148 0.982 . S
H173 C148 0.979 . S
H174 C148 0.977 . S
H175 C149 0.979 . S
H176 C149 0.980 . S
H177 C149 0.983 . S
H178 C122 0.947 . S
C179 C122 1.392 . S
C179 C123 1.419 . S
C179 H161 0.948 . S
C180 C181 1.391 . S
C180 C184 1.391 . S
C180 H222 0.948 . S
C181 C180 1.391 . S
C181 C182 1.391 . S
C182 C181 1.391 . S
C182 H238 0.947 . S
C182 C239 1.392 . S
C183 C184 1.391 . S
C183 C187 1.397 . S
C183 C239 1.419 . S
C184 C180 1.391 . S
C184 C183 1.391 . S
C184 C185 1.399 . S
C185 C184 1.399 . S
C185 C188 1.396 . S
C185 C197 1.453 . S
C185 C198 1.684 . S
H186 C210 0.948 . S
C187 C183 1.397 . S
C187 C188 1.394 . S
C187 C206 1.723 . S
C188 C185 1.396 . S
C188 C187 1.394 . S
C188 C218 1.723 . S
H189 C212 0.947 . S
H190 C213 0.948 . S
H191 C219 0.982 . S
H192 C220 0.979 . S
H193 C220 0.980 . S
H194 C220 0.983 . S
H195 C219 0.979 . S
H196 C219 0.977 . S
C197 C185 1.453 . S
C197 H226 0.982 . S
C197 H227 0.979 . S
C197 H228 0.977 . S
C198 C185 1.684 . S
C198 H223 0.979 . S
C198 H224 0.980 . S
C198 H225 0.983 . S
C199 C200 1.391 . S
C199 C204 1.391 . S
C199 H229 0.948 . S
C200 C199 1.391 . S
C200 C201 1.391 . S
C201 C200 1.391 . S
C201 C202 1.392 . S
C201 H230 0.947 . S
C202 C201 1.392 . S
C202 C203 1.419 . S
C202 H231 0.948 . S
C203 C202 1.419 . S
C203 C204 1.391 . S
C203 C207 1.397 . S
C204 C199 1.391 . S
C204 C203 1.391 . S
C204 C205 1.399 . S
C205 C204 1.399 . S
C205 C206 1.396 . S
C205 C208 1.453 . S
C205 C209 1.684 . S
C206 C187 1.723 . S
C206 C205 1.396 . S
C206 C207 1.394 . S
C207 C203 1.397 . S
C207 C206 1.394 . S
C207 C217 1.723 . S
C208 C205 1.453 . S
C208 H232 0.982 . S
C208 H233 0.979 . S
C208 H234 0.977 . S
C209 C205 1.684 . S
C209 H235 0.979 . S
C209 H236 0.980 . S
C209 H237 0.983 . S
C210 H186 0.948 . S
C210 C211 1.391 . S
C210 C215 1.391 . S
C211 C210 1.391 . S
C211 C212 1.391 . S
C212 H189 0.947 . S
C212 C211 1.391 . S
C212 C213 1.392 . S
C213 H190 0.948 . S
C213 C212 1.392 . S
C213 C214 1.419 . S
C214 C213 1.419 . S
C214 C215 1.391 . S
C214 C218 1.397 . S
C215 C210 1.391 . S
C215 C214 1.391 . S
C215 C216 1.399 . S
C216 C215 1.399 . S
C216 C217 1.396 . S
C216 C219 1.453 . S
C216 C220 1.684 . S
C217 C207 1.723 . S
C217 C216 1.396 . S
C217 C218 1.394 . S
C218 C188 1.723 . S
C218 C214 1.397 . S
C218 C217 1.394 . S
C219 H191 0.982 . S
C219 H195 0.979 . S
C219 H196 0.977 . S
C219 C216 1.453 . S
C220 H192 0.979 . S
C220 H193 0.980 . S
C220 H194 0.983 . S
C220 C216 1.684 . S
H221 C239 0.948 . S
H222 C180 0.948 . S
H223 C198 0.979 . S
H224 C198 0.980 . S
H225 C198 0.983 . S
H226 C197 0.982 . S
H227 C197 0.979 . S
H228 C197 0.977 . S
H229 C199 0.948 . S
H230 C201 0.947 . S
H231 C202 0.948 . S
H232 C208 0.982 . S
H233 C208 0.979 . S
H234 C208 0.977 . S
H235 C209 0.979 . S
H236 C209 0.980 . S
H237 C209 0.983 . S
H238 C182 0.947 . S
C239 C182 1.392 . S
C239 C183 1.419 . S
C239 H221 0.948 . S
C240 C241 1.391 . S
C240 C244 1.391 . S
C240 H282 0.948 . S
C241 C240 1.391 . S
C241 C242 1.391 . S
C242 C241 1.391 . S
C242 H298 0.947 . S
C242 C299 1.392 . S
C243 C244 1.391 . S
C243 C247 1.397 . S
C243 C299 1.419 . S
C244 C240 1.391 . S
C244 C243 1.391 . S
C244 C245 1.399 . S
C245 C244 1.399 . S
C245 C248 1.396 . S
C245 C257 1.453 . S
C245 C258 1.684 . S
H246 C270 0.948 . S
C247 C243 1.397 . S
C247 C248 1.394 . S
C247 C266 1.723 . S
C248 C245 1.396 . S
C248 C247 1.394 . S
C248 C278 1.723 . S
H249 C272 0.947 . S
H250 C273 0.948 . S
H251 C279 0.982 . S
H252 C280 0.979 . S
H253 C280 0.980 . S
H254 C280 0.983 . S
H255 C279 0.979 . S
H256 C279 0.977 . S
C257 C245 1.453 . S
C257 H286 0.982 . S
C257 H287 0.979 . S
C257 H288 0.977 . S
C258 C245 1.684 . S
C258 H283 0.979 . S
C258 H284 0.980 . S
C258 H285 0.983 . S
C259 C260 1.391 . S
C259 C264 1.391 . S
C259 H289 0.948 . S
C260 C259 1.391 . S
C260 C261 1.391 . S
C261 C260 1.391 . S
C261 C262 1.392 . S
C261 H290 0.947 . S
C262 C261 1.392 . S
C262 C263 1.419 . S
C262 H291 0.948 . S
C263 C262 1.419 . S
C263 C264 1.391 . S
C263 C267 1.397 . S
C264 C259 1.391 . S
C264 C263 1.391 . S
C264 C265 1.399 . S
C265 C264 1.399 . S
C265 C266 1.396 . S
C265 C268 1.453 . S
C265 C269 1.684 . S
C266 C247 1.723 . S
C266 C265 1.396 . S
C266 C267 1.394 . S
C267 C263 1.397 . S
C267 C266 1.394 . S
C267 C277 1.723 . S
C268 C265 1.453 . S
C268 H292 0.982 . S
C268 H293 0.979 . S
C268 H294 0.977 . S
C269 C265 1.684 . S
C269 H295 0.979 . S
C269 H296 0.980 . S
C269 H297 0.983 . S
C270 H246 0.948 . S
C270 C271 1.391 . S
C270 C275 1.391 . S
C271 C270 1.391 . S
C271 C272 1.391 . S
C272 H249 0.947 . S
C272 C271 1.391 . S
C272 C273 1.392 . S
C273 H250 0.948 . S
C273 C272 1.392 . S
C273 C274 1.419 . S
C274 C273 1.419 . S
C274 C275 1.391 . S
C274 C278 1.397 . S
C275 C270 1.391 . S
C275 C274 1.391 . S
C275 C276 1.399 . S
C276 C275 1.399 . S
C276 C277 1.396 . S
C276 C279 1.453 . S
C276 C280 1.684 . S
C277 C267 1.723 . S
C277 C276 1.396 . S
C277 C278 1.394 . S
C278 C248 1.723 . S
C278 C274 1.397 . S
C278 C277 1.394 . S
C279 H251 0.982 . S
C279 H255 0.979 . S
C279 H256 0.977 . S
C279 C276 1.453 . S
C280 H252 0.979 . S
C280 H253 0.980 . S
C280 H254 0.983 . S
C280 C276 1.684 . S
H281 C299 0.948 . S
H282 C240 0.948 . S
H283 C258 0.979 . S
H284 C258 0.980 . S
H285 C258 0.983 . S
H286 C257 0.982 . S
H287 C257 0.979 . S
H288 C257 0.977 . S
H289 C259 0.948 . S
H290 C261 0.947 . S
H291 C262 0.948 . S
H292 C268 0.982 . S
H293 C268 0.979 . S
H294 C268 0.977 . S
H295 C269 0.979 . S
H296 C269 0.980 . S
H297 C269 0.983 . S
H298 C242 0.947 . S
C299 C242 1.392 . S
C299 C243 1.419 . S
C299 H281 0.948 . S
C300 C301 1.391 . S
C300 C304 1.391 . S
C300 H342 0.948 . S
C301 C300 1.391 . S
C301 C302 1.391 . S
C302 C301 1.391 . S
C302 H358 0.947 . S
C302 C359 1.392 . S
C303 C304 1.391 . S
C303 C307 1.397 . S
C303 C359 1.419 . S
C304 C300 1.391 . S
C304 C303 1.391 . S
C304 C305 1.399 . S
C305 C304 1.399 . S
C305 C308 1.396 . S
C305 C317 1.453 . S
C305 C318 1.684 . S
H306 C330 0.948 . S
C307 C303 1.397 . S
C307 C308 1.394 . S
C307 C326 1.723 . S
C308 C305 1.396 . S
C308 C307 1.394 . S
C308 C338 1.723 . S
H309 C332 0.947 . S
H310 C333 0.948 . S
H311 C339 0.982 . S
H312 C340 0.979 . S
H313 C340 0.980 . S
H314 C340 0.983 . S
H315 C339 0.979 . S
H316 C339 0.977 . S
C317 C305 1.453 . S
C317 H346 0.982 . S
C317 H347 0.979 . S
C317 H348 0.977 . S
C318 C305 1.684 . S
C318 H343 0.979 . S
C318 H344 0.980 . S
C318 H345 0.983 . S
C319 C320 1.391 . S
C319 C324 1.391 . S
C319 H349 0.948 . S
C320 C319 1.391 . S
C320 C321 1.391 . S
C321 C320 1.391 . S
C321 C322 1.392 . S
C321 H350 0.947 . S
C322 C321 1.392 . S
C322 C323 1.419 . S
C322 H351 0.948 . S
C323 C322 1.419 . S
C323 C324 1.391 . S
C323 C327 1.397 . S
C324 C319 1.391 . S
C324 C323 1.391 . S
C324 C325 1.399 . S
C325 C324 1.399 . S
C325 C326 1.396 . S
C325 C328 1.453 . S
C325 C329 1.684 . S
C326 C307 1.723 . S
C326 C325 1.396 . S
C326 C327 1.394 . S
C327 C323 1.397 . S
C327 C326 1.394 . S
C327 C337 1.723 . S
C328 C325 1.453 . S
C328 H352 0.982 . S
C328 H353 0.979 . S
C328 H354 0.977 . S
C329 C325 1.684 . S
C329 H355 0.979 . S
C329 H356 0.980 . S
C329 H357 0.983 . S
C330 H306 0.948 . S
C330 C331 1.391 . S
C330 C335 1.391 . S
C331 C330 1.391 . S
C331 C332 1.391 . S
C332 H309 0.947 . S
C332 C331 1.391 . S
C332 C333 1.392 . S
C333 H310 0.948 . S
C333 C332 1.392 . S
C333 C334 1.419 . S
C334 C333 1.419 . S
C334 C335 1.391 . S
C334 C338 1.397 . S
C335 C330 1.391 . S
C335 C334 1.391 . S
C335 C336 1.399 . S
C336 C335 1.399 . S
C336 C337 1.396 . S
C336 C339 1.453 . S
C336 C340 1.684 . S
C337 C327 1.723 . S
C337 C336 1.396 . S
C337 C338 1.394 . S
C338 C308 1.723 . S
C338 C334 1.397 . S
C338 C337 1.394 . S
C339 H311 0.982 . S
C339 H315 0.979 . S
C339 H316 0.977 . S
C339 C336 1.453 . S
C340 H312 0.979 . S
C340 H313 0.980 . S
C340 H314 0.983 . S
C340 C336 1.684 . S
H341 C359 0.948 . S
H342 C300 0.948 . S
H343 C318 0.979 . S
H344 C318 0.980 . S
H345 C318 0.983 . S
H346 C317 0.982 . S
H347 C317 0.979 . S
H348 C317 0.977 . S
H349 C319 0.948 . S
H350 C321 0.947 . S
H351 C322 0.948 . S
H352 C328 0.982 . S
H353 C328 0.979 . S
H354 C328 0.977 . S
H355 C329 0.979 . S
H356 C329 0.980 . S
H357 C329 0.983 . S
H358 C302 0.947 . S
C359 C302 1.392 . S
C359 C303 1.419 . S
C359 H341 0.948 . S
C360 C361 1.391 . S
C360 C364 1.391 . S
C360 H402 0.948 . S
C361 C360 1.391 . S
C361 C362 1.391 . S
C362 C361 1.391 . S
C362 H418 0.947 . S
C362 C419 1.392 . S
C363 C364 1.391 . S
C363 C367 1.397 . S
C363 C419 1.419 . S
C364 C360 1.391 . S
C364 C363 1.391 . S
C364 C365 1.399 . S
C365 C364 1.399 . S
C365 C368 1.396 . S
C365 C377 1.453 . S
C365 C378 1.684 . S
H366 C390 0.948 . S
C367 C363 1.397 . S
C367 C368 1.394 . S
C367 C386 1.723 . S
C368 C365 1.396 . S
C368 C367 1.394 . S
C368 C398 1.723 . S
H369 C392 0.947 . S
H370 C393 0.948 . S
H371 C399 0.982 . S
H372 C400 0.979 . S
H373 C400 0.980 . S
H374 C400 0.983 . S
H375 C399 0.979 . S
H376 C399 0.977 . S
C377 C365 1.453 . S
C377 H406 0.982 . S
C377 H407 0.979 . S
C377 H408 0.977 . S
C378 C365 1.684 . S
C378 H403 0.979 . S
C378 H404 0.980 . S
C378 H405 0.983 . S
C379 C380 1.391 . S
C379 C384 1.391 . S
C379 H409 0.948 . S
C380 C379 1.391 . S
C380 C381 1.391 . S
C381 C380 1.391 . S
C381 C382 1.392 . S
C381 H410 0.947 . S
C382 C381 1.392 . S
C382 C383 1.419 . S
C382 H411 0.948 . S
C383 C382 1.419 . S
C383 C384 1.391 . S
C383 C387 1.397 . S
C384 C379 1.391 . S
C384 C383 1.391 . S
C384 C385 1.399 . S
C385 C384 1.399 . S
C385 C386 1.396 . S
C385 C388 1.453 . S
C385 C389 1.684 . S
C386 C367 1.723 . S
C386 C385 1.396 . S
C386 C387 1.394 . S
C387 C383 1.397 . S
C387 C386 1.394 . S
C387 C397 1.723 . S
C388 C385 1.453 . S
C388 H412 0.982 . S
C388 H413 0.979 . S
C388 H414 0.977 . S
C389 C385 1.684 . S
C389 H415 0.979 . S
C389 H416 0.980 . S
C389 H417 0.983 . S
C390 H366 0.948 . S
C390 C391 1.391 . S
C390 C395 1.391 . S
C391 C390 1.391 . S
C391 C392 1.391 . S
C392 H369 0.947 . S
C392 C391 1.391 . S
C392 C393 1.392 . S
C393 H370 0.948 . S
C393 C392 1.392 . S
C393 C394 1.419 . S
C394 C393 1.419 . S
C394 C395 1.391 . S
C394 C398 1.397 . S
C395 C390 1.391 . S
C395 C394 1.391 . S
C395 C396 1.399 . S
C396 C395 1.399 . S
C396 C397 1.396 . S
C396 C399 1.453 . S
C396 C400 1.684 . S
C397 C387 1.723 . S
C397 C396 1.396 . S
C397 C398 1.394 . S
C398 C368 1.723 . S
C398 C394 1.397 . S
C398 C397 1.394 . S
C399 H371 0.982 . S
C399 H375 0.979 . S
C399 H376 0.977 . S
C399 C396 1.453 . S
C400 H372 0.979 . S
C400 H373 0.980 . S
C400 H374 0.983 . S
C400 C396 1.684 . S
H401 C419 0.948 . S
H402 C360 0.948 . S
H403 C378 0.979 . S
H404 C378 0.980 . S
H405 C378 0.983 . S
H406 C377 0.982 . S
H407 C377 0.979 . S
H408 C377 0.977 . S
H409 C379 0.948 . S
H410 C381 0.947 . S
H411 C382 0.948 . S
H412 C388 0.982 . S
H413 C388 0.979 . S
H414 C388 0.977 . S
H415 C389 0.979 . S
H416 C389 0.980 . S
H417 C389 0.983 . S
H418 C362 0.947 . S
C419 C362 1.392 . S
C419 C363 1.419 . S
C419 H401 0.948 . S
C420 C421 1.391 . S
C420 C424 1.391 . S
C420 H462 0.948 . S
C421 C420 1.391 . S
C421 C422 1.391 . S
C422 C421 1.391 . S
C422 H478 0.947 . S
C422 C479 1.392 . S
C423 C424 1.391 . S
C423 C427 1.397 . S
C423 C479 1.419 . S
C424 C420 1.391 . S
C424 C423 1.391 . S
C424 C425 1.399 . S
C425 C424 1.399 . S
C425 C428 1.396 . S
C425 C437 1.453 . S
C425 C438 1.684 . S
H426 C450 0.948 . S
C427 C423 1.397 . S
C427 C428 1.394 . S
C427 C446 1.723 . S
C428 C425 1.396 . S
C428 C427 1.394 . S
C428 C458 1.723 . S
H429 C452 0.947 . S
H430 C453 0.948 . S
H431 C459 0.982 . S
H432 C460 0.979 . S
H433 C460 0.980 . S
H434 C460 0.983 . S
H435 C459 0.979 . S
H436 C459 0.977 . S
C437 C425 1.453 . S
C437 H466 0.982 . S
C437 H467 0.979 . S
C437 H468 0.977 . S
C438 C425 1.684 . S
C438 H463 0.979 . S
C438 H464 0.980 . S
C438 H465 0.983 . S
C439 C440 1.391 . S
C439 C444 1.391 . S
C439 H469 0.948 . S
C440 C439 1.391 . S
C440 C441 1.391 . S
C441 C440 1.391 . S
C441 C442 1.392 . S
C441 H470 0.947 . S
C442 C441 1.392 . S
C442 C443 1.419 . S
C442 H471 0.948 . S
C443 C442 1.419 . S
C443 C444 1.391 . S
C443 C447 1.397 . S
C444 C439 1.391 . S
C444 C443 1.391 . S
C444 C445 1.399 . S
C445 C444 1.399 . S
C445 C446 1.396 . S
C445 C448 1.453 . S
C445 C449 1.684 . S
C446 C427 1.723 . S
C446 C445 1.396 . S
C446 C447 1.394 . S
C447 C443 1.397 . S
C447 C446 1.394 . S
C447 C457 1.723 . S
C448 C445 1.453 . S
C448 H472 0.982 . S
C448 H473 0.979 . S
C448 H474 0.977 . S
C449 C445 1.684 . S
C449 H475 0.979 . S
C449 H476 0.980 . S
C449 H477 0.983 . S
C450 H426 0.948 . S
C450 C451 1.391 . S
C450 C455 1.391 . S
C451 C450 1.391 . S
C451 C452 1.391 . S
C452 H429 0.947 . S
C452 C451 1.391 . S
C452 C453 1.392 . S
C453 H430 0.948 . S
C453 C452 1.392 . S
C453 C454 1.419 . S
C454 C453 1.419 . S
C454 C455 1.391 . S
C454 C458 1.397 . S
C455 C450 1.391 . S
C455 C454 1.391 . S
C455 C456 1.399 . S
C456 C455 1.399 . S
C456 C457 1.396 . S
C456 C459 1.453 . S
C456 C460 1.684 . S
C457 C447 1.723 . S
C457 C456 1.396 . S
C457 C458 1.394 . S
C458 C428 1.723 . S
C458 C454 1.397 . S
C458 C457 1.394 . S
C459 H431 0.982 . S
C459 H435 0.979 . S
C459 H436 0.977 . S
C459 C456 1.453 . S
C460 H432 0.979 . S
C460 H433 0.980 . S
C460 H434 0.983 . S
C460 C456 1.684 . S
H461 C479 0.948 . S
H462 C420 0.948 . S
H463 C438 0.979 . S
H464 C438 0.980 . S
H465 C438 0.983 . S
H466 C437 0.982 . S
H467 C437 0.979 . S
H468 C437 0.977 . S
H469 C439 0.948 . S
H470 C441 0.947 . S
H471 C442 0.948 . S
H472 C448 0.982 . S
H473 C448 0.979 . S
H474 C448 0.977 . S
H475 C449 0.979 . S
H476 C449 0.980 . S
H477 C449 0.983 . S
H478 C422 0.947 . S
C479 C422 1.392 . S
C479 C423 1.419 . S
C479 H461 0.948 . S
C480 C481 1.391 . S
C480 C484 1.391 . S
C480 H522 0.948 . S
C481 C480 1.391 . S
C481 C482 1.391 . S
C482 C481 1.391 . S
C482 H538 0.947 . S
C482 C539 1.392 . S
C483 C484 1.391 . S
C483 C487 1.397 . S
C483 C539 1.419 . S
C484 C480 1.391 . S
C484 C483 1.391 . S
C484 C485 1.399 . S
C485 C484 1.399 . S
C485 C488 1.396 . S
C485 C497 1.453 . S
C485 C498 1.684 . S
H486 C510 0.948 . S
C487 C483 1.397 . S
C487 C488 1.394 . S
C487 C506 1.723 . S
C488 C485 1.396 . S
C488 C487 1.394 . S
C488 C518 1.723 . S
H489 C512 0.947 . S
H490 C513 0.948 . S
H491 C519 0.982 . S
H492 C520 0.979 . S
H493 C520 0.980 . S
H494 C520 0.983 . S
H495 C519 0.979 . S
H496 C519 0.977 . S
C497 C485 1.453 . S
C497 H526 0.982 . S
C497 H527 0.979 . S
C497 H528 0.977 . S
C498 C485 1.684 . S
C498 H523 0.979 . S
C498 H524 0.980 . S
C498 H525 0.983 . S
C499 C500 1.391 . S
C499 C504 1.391 . S
C499 H529 0.948 . S
C500 C499 1.391 . S
C500 C501 1.391 . S
C501 C500 1.391 . S
C501 C502 1.392 . S
C501 H530 0.947 . S
C502 C501 1.392 . S
C502 C503 1.419 . S
C502 H531 0.948 . S
C503 C502 1.419 . S
C503 C504 1.391 . S
C503 C507 1.397 . S
C504 C499 1.391 . S
C504 C503 1.391 . S
C504 C505 1.399 . S
C505 C504 1.399 . S
C505 C506 1.396 . S
C505 C508 1.453 . S
C505 C509 1.684 . S
C506 C487 1.723 . S
C506 C505 1.396 . S
C506 C507 1.394 . S
C507 C503 1.397 . S
C507 C506 1.394 . S
C507 C517 1.723 . S
C508 C505 1.453 . S
C508 H532 0.982 . S
C508 H533 0.979 . S
C508 H534 0.977 . S
C509 C505 1.684 . S
C509 H535 0.979 . S
C509 H536 0.980 . S
C509 H537 0.983 . S
C510 H486 0.948 . S
C510 C511 1.391 . S
C510 C515 1.391 . S
C511 C510 1.391 . S
C511 C512 1.391 . S
C512 H489 0.947 . S
C512 C511 1.391 . S
C512 C513 1.392 . S
C513 H490 0.948 . S
C513 C512 1.392 . S
C513 C514 1.419 . S
C514 C513 1.419 . S
C514 C515 1.391 . S
C514 C518 1.397 . S
C515 C510 1.391 . S
C515 C514 1.391 . S
C515 C516 1.399 . S
C516 C515 1.399 . S
C516 C517 1.396 . S
C516 C519 1.453 . S
C516 C520 1.684 . S
C517 C507 1.723 . S
C517 C516 1.396 . S
C517 C518 1.394 . S
C518 C488 1.723 . S
C518 C514 1.397 . S
C518 C517 1.394 . S
C519 H491 0.982 . S
C519 H495 0.979 . S
C519 H496 0.977 . S
C519 C516 1.453 . S
C520 H492 0.979 . S
C520 H493 0.980 . S
C520 H494 0.983 . S
C520 C516 1.684 . S
H521 C539 0.948 . S
H522 C480 0.948 . S
H523 C498 0.979 . S
H524 C498 0.980 . S
H525 C498 0.983 . S
H526 C497 0.982 . S
H527 C497 0.979 . S
H528 C497 0.977 . S
H529 C499 0.948 . S
H530 C501 0.947 . S
H531 C502 0.948 . S
H532 C508 0.982 . S
H533 C508 0.979 . S
H534 C508 0.977 . S
H535 C509 0.979 . S
H536 C509 0.980 . S
H537 C509 0.983 . S
H538 C482 0.947 . S
C539 C482 1.392 . S
C539 C483 1.419 . S
C539 H521 0.948 . S
C540 C541 1.391 . S
C540 C544 1.391 . S
C540 H582 0.948 . S
C541 C540 1.391 . S
C541 C542 1.391 . S
C542 C541 1.391 . S
C542 H598 0.947 . S
C542 C599 1.392 . S
C543 C544 1.391 . S
C543 C547 1.397 . S
C543 C599 1.419 . S
C544 C540 1.391 . S
C544 C543 1.391 . S
C544 C545 1.399 . S
C545 C544 1.399 . S
C545 C548 1.396 . S
C545 C557 1.453 . S
C545 C558 1.684 . S
H546 C570 0.948 . S
C547 C543 1.397 . S
C547 C548 1.394 . S
C547 C566 1.723 . S
C548 C545 1.396 . S
C548 C547 1.394 . S
C548 C578 1.723 . S
H549 C572 0.947 . S
H550 C573 0.948 . S
H551 C579 0.982 . S
H552 C580 0.979 . S
H553 C580 0.980 . S
H554 C580 0.983 . S
H555 C579 0.979 . S
H556 C579 0.977 . S
C557 C545 1.453 . S
C557 H586 0.982 . S
C557 H587 0.979 . S
C557 H588 0.977 . S
C558 C545 1.684 . S
C558 H583 0.979 . S
C558 H584 0.980 . S
C558 H585 0.983 . S
C559 C560 1.391 . S
C559 C564 1.391 . S
C559 H589 0.948 . S
C560 C559 1.391 . S
C560 C561 1.391 . S
C561 C560 1.391 . S
C561 C562 1.392 . S
C561 H590 0.947 . S
C562 C561 1.392 . S
C562 C563 1.419 . S
C562 H591 0.948 . S
C563 C562 1.419 . S
C563 C564 1.391 . S
C563 C567 1.397 . S
C564 C559 1.391 . S
C564 C563 1.391 . S
C564 C565 1.399 . S
C565 C564 1.399 . S
C565 C566 1.396 . S
C565 C568 1.453 . S
C565 C569 1.684 . S
C566 C547 1.723 . S
C566 C565 1.396 . S
C566 C567 1.394 . S
C567 C563 1.397 . S
C567 C566 1.394 . S
C567 C577 1.723 . S
C568 C565 1.453 . S
C568 H592 0.982 . S
C568 H593 0.979 . S
C568 H594 0.977 . S
C569 C565 1.684 . S
C569 H595 0.979 . S
C569 H596 0.980 . S
C569 H597 0.983 . S
C570 H546 0.948 . S
C570 C571 1.391 . S
C570 C575 1.391 . S
C571 C570 1.391 . S
C571 C572 1.391 . S
C572 H549 0.947 . S
C572 C571 1.391 . S
C572 C573 1.392 . S
C573 H550 0.948 . S
C573 C572 1.392 . S
C573 C574 1.419 . S
C574 C573 1.419 . S
C574 C575 1.391 . S
C574 C578 1.397 . S
C575 C570 1.391 . S
C575 C574 1.391 . S
C575 C576 1.399 . S
C576 C575 1.399 . S
C576 C577 1.396 . S
C576 C579 1.453 . S
C576 C580 1.684 . S
C577 C567 1.723 . S
C577 C576 1.396 . S
C577 C578 1.394 . S
C578 C548 1.723 . S
C578 C574 1.397 . S
C578 C577 1.394 . S
C579 H551 0.982 . S
C579 H555 0.979 . S
C579 H556 0.977 . S
C579 C576 1.453 . S
C580 H552 0.979 . S
C580 H553 0.980 . S
C580 H554 0.983 . S
C580 C576 1.684 . S
H581 C599 0.948 . S
H582 C540 0.948 . S
H583 C558 0.979 . S
H584 C558 0.980 . S
H585 C558 0.983 . S
H586 C557 0.982 . S
H587 C557 0.979 . S
H588 C557 0.977 . S
H589 C559 0.948 . S
H590 C561 0.947 . S
H591 C562 0.948 . S
H592 C568 0.982 . S
H593 C568 0.979 . S
H594 C568 0.977 . S
H595 C569 0.979 . S
H596 C569 0.980 . S
H597 C569 0.983 . S
H598 C542 0.947 . S
C599 C542 1.392 . S
C599 C543 1.419 . S
C599 H581 0.948 . S
C600 C601 1.391 . S
C600 C604 1.391 . S
C600 H642 0.948 . S
C601 C600 1.391 . S
C601 C602 1.391 . S
C602 C601 1.391 . S
C602 H658 0.947 . S
C602 C659 1.392 . S
C603 C604 1.391 . S
C603 C607 1.397 . S
C603 C659 1.419 . S
C604 C600 1.391 . S
C604 C603 1.391 . S
C604 C605 1.399 . S
C605 C604 1.399 . S
C605 C608 1.396 . S
C605 C617 1.453 . S
C605 C618 1.684 . S
H606 C630 0.948 . S
C607 C603 1.397 . S
C607 C608 1.394 . S
C607 C626 1.723 . S
C608 C605 1.396 . S
C608 C607 1.394 . S
C608 C638 1.723 . S
H609 C632 0.947 . S
H610 C633 0.948 . S
H611 C639 0.982 . S
H612 C640 0.979 . S
H613 C640 0.980 . S
H614 C640 0.983 . S
H615 C639 0.979 . S
H616 C639 0.977 . S
C617 C605 1.453 . S
C617 H646 0.982 . S
C617 H647 0.979 . S
C617 H648 0.977 . S
C618 C605 1.684 . S
C618 H643 0.979 . S
C618 H644 0.980 . S
C618 H645 0.983 . S
C619 C620 1.391 . S
C619 C624 1.391 . S
C619 H649 0.948 . S
C620 C619 1.391 . S
C620 C621 1.391 . S
C621 C620 1.391 . S
C621 C622 1.392 . S
C621 H650 0.947 . S
C622 C621 1.392 . S
C622 C623 1.419 . S
C622 H651 0.948 . S
C623 C622 1.419 . S
C623 C624 1.391 . S
C623 C627 1.397 . S
C624 C619 1.391 . S
C624 C623 1.391 . S
C624 C625 1.399 . S
C625 C624 1.399 . S
C625 C626 1.396 . S
C625 C628 1.453 . S
C625 C629 1.684 . S
C626 C607 1.723 . S
C626 C625 1.396 . S
C626 C627 1.394 . S
C627 C623 1.397 . S
C627 C626 1.394 . S
C627 C637 1.723 . S
C628 C625 1.453 . S
C628 H652 0.982 . S
C628 H653 0.979 . S
C628 H654 0.977 . S
C629 C625 1.684 . S
C629 H655 0.979 . S
C629 H656 0.980 . S
C629 H657 0.983 . S
C630 H606 0.948 . S
C630 C631 1.391 . S
C630 C635 1.391 . S
C631 C630 1.391 . S
C631 C632 1.391 . S
C632 H609 0.947 . S
C632 C631 1.391 . S
C632 C633 1.392 . S
C633 H610 0.948 . S
C633 C632 1.392 . S
C633 C634 1.419 . S
C634 C633 1.419 . S
C634 C635 1.391 . S
C634 C638 1.397 . S
C635 C630 1.391 . S
C635 C634 1.391 . S
C635 C636 1.399 . S
C636 C635 1.399 . S
C636 C637 1.396 . S
C636 C639 1.453 . S
C636 C640 1.684 . S
C637 C627 1.723 . S
C637 C636 1.396 . S
C637 C638 1.394 . S
C638 C608 1.723 . S
C638 C634 1.397 . S
C638 C637 1.394 . S
C639 H611 0.982 . S
C639 H615 0.979 . S
C639 H616 0.977 . S
C639 C636 1.453 . S
C640 H612 0.979 . S
C640 H613 0.980 . S
C640 H614 0.983 . S
C640 C636 1.684 . S
H641 C659 0.948 . S
H642 C600 0.948 . S
H643 C618 0.979 . S
H644 C618 0.980 . S
H645 C618 0.983 . S
H646 C617 0.982 . S
H647 C617 0.979 . S
H648 C617 0.977 . S
H649 C619 0.948 . S
H650 C621 0.947 . S
H651 C622 0.948 . S
H652 C628 0.982 . S
H653 C628 0.979 . S
H654 C628 0.977 . S
H655 C629 0.979 . S
H656 C629 0.980 . S
H657 C629 0.983 . S
H658 C602 0.947 . S
C659 C602 1.392 . S
C659 C603 1.419 . S
C659 H641 0.948 . S
C660 C661 1.391 . S
C660 C664 1.391 . S
C660 H702 0.948 . S
C661 C660 1.391 . S
C661 C662 1.391 . S
C662 C661 1.391 . S
C662 H718 0.947 . S
C662 C719 1.392 . S
C663 C664 1.391 . S
C663 C667 1.397 . S
C663 C719 1.419 . S
C664 C660 1.391 . S
C664 C663 1.391 . S
C664 C665 1.399 . S
C665 C664 1.399 . S
C665 C668 1.396 . S
C665 C677 1.453 . S
C665 C678 1.684 . S
H666 C690 0.948 . S
C667 C663 1.397 . S
C667 C668 1.394 . S
C667 C686 1.723 . S
C668 C665 1.396 . S
C668 C667 1.394 . S
C668 C698 1.723 . S
H669 C692 0.947 . S
H670 C693 0.948 . S
H671 C699 0.982 . S
H672 C700 0.979 . S
H673 C700 0.980 . S
H674 C700 0.983 . S
H675 C699 0.979 . S
H676 C699 0.977 . S
C677 C665 1.453 . S
C677 H706 0.982 . S
C677 H707 0.979 . S
C677 H708 0.977 . S
C678 C665 1.684 . S
C678 H703 0.979 . S
C678 H704 0.980 . S
C678 H705 0.983 . S
C679 C680 1.391 . S
C679 C684 1.391 . S
C679 H709 0.948 . S
C680 C679 1.391 . S
C680 C681 1.391 . S
C681 C680 1.391 . S
C681 C682 1.392 . S
C681 H710 0.947 . S
C682 C681 1.392 . S
C682 C683 1.419 . S
C682 H711 0.948 . S
C683 C682 1.419 . S
C683 C684 1.391 . S
C683 C687 1.397 . S
C684 C679 1.391 . S
C684 C683 1.391 . S
C684 C685 1.399 . S
C685 C684 1.399 . S
C685 C686 1.396 . S
C685 C688 1.453 . S
C685 C689 1.684 . S
C686 C667 1.723 . S
C686 C685 1.396 . S
C686 C687 1.394 . S
C687 C683 1.397 . S
C687 C686 1.394 . S
C687 C697 1.723 . S
C688 C685 1.453 . S
C688 H712 0.982 . S
C688 H713 0.979 . S
C688 H714 0.977 . S
C689 C685 1.684 . S
C689 H715 0.979 . S
C689 H716 0.980 . S
C689 H717 0.983 . S
C690 H666 0.948 . S
C690 C691 1.391 . S
C690 C695 1.391 . S
C691 C690 1.391 . S
C691 C692 1.391 . S
C692 H669 0.947 . S
C692 C691 1.391 . S
C692 C693 1.392 . S
C693 H670 0.948 . S
C693 C692 1.392 . S
C693 C694 1.419 . S
C694 C693 1.419 . S
C694 C695 1.391 . S
C694 C698 1.397 . S
C695 C690 1.391 . S
C695 C694 1.391 . S
C695 C696 1.399 . S
C696 C695 1.399 . S
C696 C697 1.396 . S
C696 C699 1.453 . S
C696 C700 1.684 . S
C697 C687 1.723 . S
C697 C696 1.396 . S
C697 C698 1.394 . S
C698 C668 1.723 . S
C698 C694 1.397 . S
C698 C697 1.394 . S
C699 H671 0.982 . S
C699 H675 0.979 . S
C699 H676 0.977 . S
C699 C696 1.453 . S
C700 H672 0.979 . S
C700 H673 0.980 . S
C700 H674 0.983 . S
C700 C696 1.684 . S
H701 C719 0.948 . S
H702 C660 0.948 . S
H703 C678 0.979 . S
H704 C678 0.980 . S
H705 C678 0.983 . S
H706 C677 0.982 . S
H707 C677 0.979 . S
H708 C677 0.977 . S
H709 C679 0.948 . S
H710 C681 0.947 . S
H711 C682 0.948 . S
H712 C688 0.982 . S
H713 C688 0.979 . S
H714 C688 0.977 . S
H715 C689 0.979 . S
H716 C689 0.980 . S
H717 C689 0.983 . S
H718 C662 0.947 . S
C719 C662 1.392 . S
C719 C663 1.419 . S
C719 H701 0.948 . S
C720 C721 1.391 . S
C720 C724 1.391 . S
C720 H762 0.948 . S
C721 C720 1.391 . S
C721 C722 1.391 . S
C722 C721 1.391 . S
C722 H778 0.947 . S
C722 C779 1.392 . S
C723 C724 1.391 . S
C723 C727 1.397 . S
C723 C779 1.419 . S
C724 C720 1.391 . S
C724 C723 1.391 . S
C724 C725 1.399 . S
C725 C724 1.399 . S
C725 C728 1.396 . S
C725 C737 1.453 . S
C725 C738 1.684 . S
H726 C750 0.948 . S
C727 C723 1.397 . S
C727 C728 1.394 . S
C727 C746 1.723 . S
C728 C725 1.396 . S
C728 C727 1.394 . S
C728 C758 1.723 . S
H729 C752 0.947 . S
H730 C753 0.948 . S
H731 C759 0.982 . S
H732 C760 0.979 . S
H733 C760 0.980 . S
H734 C760 0.983 . S
H735 C759 0.979 . S
H736 C759 0.977 . S
C737 C725 1.453 . S
C737 H766 0.982 . S
C737 H767 0.979 . S
C737 H768 0.977 . S
C738 C725 1.684 . S
C738 H763 0.979 . S
C738 H764 0.980 . S
C738 H765 0.983 . S
C739 C740 1.391 . S
C739 C744 1.391 . S
C739 H769 0.948 . S
C740 C739 1.391 . S
C740 C741 1.391 . S
C741 C740 1.391 . S
C741 C742 1.392 . S
C741 H770 0.947 . S
C742 C741 1.392 . S
C742 C743 1.419 . S
C742 H771 0.948 . S
C743 C742 1.419 . S
C743 C744 1.391 . S
C743 C747 1.397 . S
C744 C739 1.391 . S
C744 C743 1.391 . S
C744 C745 1.399 . S
C745 C744 1.399 . S
C745 C746 1.396 . S
C745 C748 1.453 . S
C745 C749 1.684 . S
C746 C727 1.723 . S
C746 C745 1.396 . S
C746 C747 1.394 . S
C747 C743 1.397 . S
C747 C746 1.394 . S
C747 C757 1.723 . S
C748 C745 1.453 . S
C748 H772 0.982 . S
C748 H773 0.979 . S
C748 H774 0.977 . S
C749 C745 1.684 . S
C749 H775 0.979 . S
C749 H776 0.980 . S
C749 H777 0.983 . S
C750 H726 0.948 . S
C750 C751 1.391 . S
C750 C755 1.391 . S
C751 C750 1.391 . S
C751 C752 1.391 . S
C752 H729 0.947 . S
C752 C751 1.391 . S
C752 C753 1.392 . S
C753 H730 0.948 . S
C753 C752 1.392 . S
C753 C754 1.419 . S
C754 C753 1.419 . S
C754 C755 1.391 . S
C754 C758 1.397 . S
C755 C750 1.391 . S
C755 C754 1.391 . S
C755 C756 1.399 . S
C756 C755 1.399 . S
C756 C757 1.396 . S
C756 C759 1.453 . S
C756 C760 1.684 . S
C757 C747 1.723 . S
C757 C756 1.396 . S
C757 C758 1.394 . S
C758 C728 1.723 . S
C758 C754 1.397 . S
C758 C757 1.394 . S
C759 H731 0.982 . S
C759 H735 0.979 . S
C759 H736 0.977 . S
C759 C756 1.453 . S
C760 H732 0.979 . S
C760 H733 0.980 . S
C760 H734 0.983 . S
C760 C756 1.684 . S
H761 C779 0.948 . S
H762 C720 0.948 . S
H763 C738 0.979 . S
H764 C738 0.980 . S
H765 C738 0.983 . S
H766 C737 0.982 . S
H767 C737 0.979 . S
H768 C737 0.977 . S
H769 C739 0.948 . S
H770 C741 0.947 . S
H771 C742 0.948 . S
H772 C748 0.982 . S
H773 C748 0.979 . S
H774 C748 0.977 . S
H775 C749 0.979 . S
H776 C749 0.980 . S
H777 C749 0.983 . S
H778 C722 0.947 . S
C779 C722 1.392 . S
C779 C723 1.419 . S
C779 H761 0.948 . S
C780 C781 1.391 . S
C780 C784 1.391 . S
C780 H822 0.948 . S
C781 C780 1.391 . S
C781 C782 1.391 . S
C782 C781 1.391 . S
C782 H838 0.947 . S
C782 C839 1.392 . S
C783 C784 1.391 . S
C783 C787 1.397 . S
C783 C839 1.419 . S
C784 C780 1.391 . S
C784 C783 1.391 . S
C784 C785 1.399 . S
C785 C784 1.399 . S
C785 C788 1.396 . S
C785 C797 1.453 . S
C785 C798 1.684 . S
H786 C810 0.948 . S
C787 C783 1.397 . S
C787 C788 1.394 . S
C787 C806 1.723 . S
C788 C785 1.396 . S
C788 C787 1.394 . S
C788 C818 1.723 . S
H789 C812 0.947 . S
H790 C813 0.948 . S
H791 C819 0.982 . S
H792 C820 0.979 . S
H793 C820 0.980 . S
H794 C820 0.983 . S
H795 C819 0.979 . S
H796 C819 0.977 . S
C797 C785 1.453 . S
C797 H826 0.982 . S
C797 H827 0.979 . S
C797 H828 0.977 . S
C798 C785 1.684 . S
C798 H823 0.979 . S
C798 H824 0.980 . S
C798 H825 0.983 . S
C799 C800 1.391 . S
C799 C804 1.391 . S
C799 H829 0.948 . S
C800 C799 1.391 . S
C800 C801 1.391 . S
C801 C800 1.391 . S
C801 C802 1.392 . S
C801 H830 0.947 . S
C802 C801 1.392 . S
C802 C803 1.419 . S
C802 H831 0.948 . S
C803 C802 1.419 . S
C803 C804 1.391 . S
C803 C807 1.397 . S
C804 C799 1.391 . S
C804 C803 1.391 . S
C804 C805 1.399 . S
C805 C804 1.399 . S
C805 C806 1.396 . S
C805 C808 1.453 . S
C805 C809 1.684 . S
C806 C787 1.723 . S
C806 C805 1.396 . S
C806 C807 1.394 . S
C807 C803 1.397 . S
C807 C806 1.394 . S
C807 C817 1.723 . S
C808 C805 1.453 . S
C808 H832 0.982 . S
C808 H833 0.979 . S
C808 H834 0.977 . S
C809 C805 1.684 . S
C809 H835 0.979 . S
C809 H836 0.980 . S
C809 H837 0.983 . S
C810 H786 0.948 . S
C810 C811 1.391 . S
C810 C815 1.391 . S
C811 C810 1.391 . S
C811 C812 1.391 . S
C812 H789 0.947 . S
C812 C811 1.391 . S
C812 C813 1.392 . S
C813 H790 0.948 . S
C813 C812 1.392 . S
C813 C814 1.419 . S
C814 C813 1.419 . S
C814 C815 1.391 . S
C814 C818 1.397 . S
C815 C810 1.391 . S
C815 C814 1.391 . S
C815 C816 1.399 . S
C816 C815 1.399 . S
C816 C817 1.396 . S
C816 C819 1.453 . S
C816 C820 1.684 . S
C817 C807 1.723 . S
C817 C816 1.396 . S
C817 C818 1.394 . S
C818 C788 1.723 . S
C818 C814 1.397 . S
C818 C817 1.394 . S
C819 H791 0.982 . S
C819 H795 0.979 . S
C819 H796 0.977 . S
C819 C816 1.453 . S
C820 H792 0.979 . S
C820 H793 0.980 . S
C820 H794 0.983 . S
C820 C816 1.684 . S
H821 C839 0.948 . S
H822 C780 0.948 . S
H823 C798 0.979 . S
H824 C798 0.980 . S
H825 C798 0.983 . S
H826 C797 0.982 . S
H827 C797 0.979 . S
H828 C797 0.977 . S
H829 C799 0.948 . S
H830 C801 0.947 . S
H831 C802 0.948 . S
H832 C808 0.982 . S
H833 C808 0.979 . S
H834 C808 0.977 . S
H835 C809 0.979 . S
H836 C809 0.980 . S
H837 C809 0.983 . S
H838 C782 0.947 . S
C839 C782 1.392 . S
C839 C783 1.419 . S
C839 H821 0.948 . S
C840 C841 1.391 . S
C840 C844 1.391 . S
C840 H882 0.948 . S
C841 C840 1.391 . S
C841 C842 1.391 . S
C842 C841 1.391 . S
C842 H898 0.947 . S
C842 C899 1.392 . S
C843 C844 1.391 . S
C843 C847 1.397 . S
C843 C899 1.419 . S
C844 C840 1.391 . S
C844 C843 1.391 . S
C844 C845 1.399 . S
C845 C844 1.399 . S
C845 C848 1.396 . S
C845 C857 1.453 . S
C845 C858 1.684 . S
H846 C870 0.948 . S
C847 C843 1.397 . S
C847 C848 1.394 . S
C847 C866 1.723 . S
C848 C845 1.396 . S
C848 C847 1.394 . S
C848 C878 1.723 . S
H849 C872 0.947 . S
H850 C873 0.948 . S
H851 C879 0.982 . S
H852 C880 0.979 . S
H853 C880 0.980 . S
H854 C880 0.983 . S
H855 C879 0.979 . S
H856 C879 0.977 . S
C857 C845 1.453 . S
C857 H886 0.982 . S
C857 H887 0.979 . S
C857 H888 0.977 . S
C858 C845 1.684 . S
C858 H883 0.979 . S
C858 H884 0.980 . S
C858 H885 0.983 . S
C859 C860 1.391 . S
C859 C864 1.391 . S
C859 H889 0.948 . S
C860 C859 1.391 . S
C860 C861 1.391 . S
C861 C860 1.391 . S
C861 C862 1.392 . S
C861 H890 0.947 . S
C862 C861 1.392 . S
C862 C863 1.419 . S
C862 H891 0.948 . S
C863 C862 1.419 . S
C863 C864 1.391 . S
C863 C867 1.397 . S
C864 C859 1.391 . S
C864 C863 1.391 . S
C864 C865 1.399 . S
C865 C864 1.399 . S
C865 C866 1.396 . S
C865 C868 1.453 . S
C865 C869 1.684 . S
C866 C847 1.723 . S
C866 C865 1.396 . S
C866 C867 1.394 . S
C867 C863 1.397 . S
C867 C866 1.394 . S
C867 C877 1.723 . S
C868 C865 1.453 . S
C868 H892 0.982 . S
C868 H893 0.979 . S
C868 H894 0.977 . S
C869 C865 1.684 . S
C869 H895 0.979 . S
C869 H896 0.980 . S
C869 H897 0.983 . S
C870 H846 0.948 . S
C870 C871 1.391 . S
C870 C875 1.391 . S
C871 C870 1.391 . S
C871 C872 1.391 . S
C872 H849 0.947 . S
C872 C871 1.391 . S
C872 C873 1.392 . S
C873 H850 0.948 . S
C873 C872 1.392 . S
C873 C874 1.419 . S
C874 C873 1.419 . S
C874 C875 1.391 . S
C874 C878 1.397 . S
C875 C870 1.391 . S
C875 C874 1.391 . S
C875 C876 1.399 . S
C876 C875 1.399 . S
C876 C877 1.396 . S
C876 C879 1.453 . S
C876 C880 1.684 . S
C877 C867 1.723 . S
C877 C876 1.396 . S
C877 C878 1.394 . S
C878 C848 1.723 . S
C878 C874 1.397 . S
C878 C877 1.394 . S
C879 H851 0.982 . S
C879 H855 0.979 . S
C879 H856 0.977 . S
C879 C876 1.453 . S
C880 H852 0.979 . S
C880 H853 0.980 . S
C880 H854 0.983 . S
C880 C876 1.684 . S
H881 C899 0.948 . S
H882 C840 0.948 . S
H883 C858 0.979 . S
H884 C858 0.980 . S
H885 C858 0.983 . S
H886 C857 0.982 . S
H887 C857 0.979 . S
H888 C857 0.977 . S
H889 C859 0.948 . S
H890 C861 0.947 . S
H891 C862 0.948 . S
H892 C868 0.982 . S
H893 C868 0.979 . S
H894 C868 0.977 . S
H895 C869 0.979 . S
H896 C869 0.980 . S
H897 C869 0.983 . S
H898 C842 0.947 . S
C899 C842 1.392 . S
C899 C843 1.419 . S
C899 H881 0.948 . S
C900 C901 1.391 . S
C900 C904 1.391 . S
C900 H942 0.948 . S
C901 C900 1.391 . S
C901 C902 1.391 . S
C902 C901 1.391 . S
C902 H958 0.947 . S
C902 C959 1.392 . S
C903 C904 1.391 . S
C903 C907 1.397 . S
C903 C959 1.419 . S
C904 C900 1.391 . S
C904 C903 1.391 . S
C904 C905 1.399 . S
C905 C904 1.399 . S
C905 C908 1.396 . S
C905 C917 1.453 . S
C905 C918 1.684 . S
H906 C930 0.948 . S
C907 C903 1.397 . S
C907 C908 1.394 . S
C907 C926 1.723 . S
C908 C905 1.396 . S
C908 C907 1.394 . S
C908 C938 1.723 . S
H909 C932 0.947 . S
H910 C933 0.948 . S
H911 C939 0.982 . S
H912 C940 0.979 . S
H913 C940 0.980 . S
H914 C940 0.983 . S
H915 C939 0.979 . S
H916 C939 0.977 . S
C917 C905 1.453 . S
C917 H946 0.982 . S
C917 H947 0.979 . S
C917 H948 0.977 . S
C918 C905 1.684 . S
C918 H943 0.979 . S
C918 H944 0.980 . S
C918 H945 0.983 . S
C919 C920 1.391 . S
C919 C924 1.391 . S
C919 H949 0.948 . S
C920 C919 1.391 . S
C920 C921 1.391 . S
C921 C920 1.391 . S
C921 C922 1.392 . S
C921 H950 0.947 . S
C922 C921 1.392 . S
C922 C923 1.419 . S
C922 H951 0.948 . S
C923 C922 1.419 . S
C923 C924 1.391 . S
C923 C927 1.397 . S
C924 C919 1.391 . S
C924 C923 1.391 . S
C924 C925 1.399 . S
C925 C924 1.399 . S
C925 C926 1.396 . S
C925 C928 1.453 . S
C925 C929 1.684 . S
C926 C907 1.723 . S
C926 C925 1.396 . S
C926 C927 1.394 . S
C927 C923 1.397 . S
C927 C926 1.394 . S
C927 C937 1.723 . S
C928 C925 1.453 . S
C928 H952 0.982 . S
C928 H953 0.979 . S
C928 H954 0.977 . S
C929 C925 1.684 . S
C929 H955 0.979 . S
C929 H956 0.980 . S
C929 H957 0.983 . S
C930 H906 0.948 . S
C930 C931 1.391 . S
C930 C935 1.391 . S
C931 C930 1.391 . S
C931 C932 1.391 . S
C932 H909 0.947 . S
C932 C931 1.391 . S
C932 C933 1.392 . S
C933 H910 0.948 . S
C933 C932 1.392 . S
C933 C934 1.419 . S
C934 C933 1.419 . S
C934 C935 1.391 . S
C934 C938 1.397 . S
C935 C930 1.391 . S
C935 C934 1.391 . S
C935 C936 1.399 . S
C936 C935 1.399 . S
C936 C937 1.396 . S
C936 C939 1.453 . S
C936 C940 1.684 . S
C937 C927 1.723 . S
C937 C936 1.396 . S
C937 C938 1.394 . S
C938 C908 1.723 . S
C938 C934 1.397 . S
C938 C937 1.394 . S
C939 H911 0.982 . S
C939 H915 0.979 . S
C939 H916 0.977 . S
C939 C936 1.453 . S
C940 H912 0.979 . S
C940 H913 0.980 . S
C940 H914 0.983 . S
C940 C936 1.684 . S
H941 C959 0.948 . S
H942 C900 0.948 . S
H943 C918 0.979 . S
H944 C918 0.980 . S
H945 C918 0.983 . S
H946 C917 0.982 . S
H947 C917 0.979 . S
H948 C917 0.977 . S
H949 C919 0.948 . S
H950 C921 0.947 . S
H951 C922 0.948 . S
H952 C928 0.982 . S
H953 C928 0.979 . S
H954 C928 0.977 . S
H955 C929 0.979 . S
H956 C929 0.980 . S
H957 C929 0.983 . S
H958 C902 0.947 . S
C959 C902 1.392 . S
C959 C903 1.419 . S
C959 H941 0.948 . S
C960 C961 1.391 . S
C960 C964 1.391 . S
C960 H1002 0.948 . S
C961 C960 1.391 . S
C961 C962 1.391 . S
C962 C961 1.391 . S
C962 H1018 0.947 . S
C962 C1019 1.392 . S
C963 C964 1.391 . S
C963 C967 1.397 . S
C963 C1019 1.419 . S
C964 C960 1.391 . S
C964 C963 1.391 . S
C964 C965 1.399 . S
C965 C964 1.399 . S
C965 C968 1.396 . S
C965 C977 1.453 . S
C965 C978 1.684 . S
H966 C990 0.948 . S
C967 C963 1.397 . S
C967 C968 1.394 . S
C967 C986 1.723 . S
C968 C965 1.396 . S
C968 C967 1.394 . S
C968 C998 1.723 . S
H969 C992 0.947 . S
H970 C993 0.948 . S
H971 C999 0.982 . S
H972 C1000 0.979 . S
H973 C1000 0.980 . S
H974 C1000 0.983 . S
H975 C999 0.979 . S
H976 C999 0.977 . S
C977 C965 1.453 . S
C977 H1006 0.982 . S
C977 H1007 0.979 . S
C977 H1008 0.977 . S
C978 C965 1.684 . S
C978 H1003 0.979 . S
C978 H1004 0.980 . S
C978 H1005 0.983 . S
C979 C980 1.391 . S
C979 C984 1.391 . S
C979 H1009 0.948 . S
C980 C979 1.391 . S
C980 C981 1.391 . S
C981 C980 1.391 . S
C981 C982 1.392 . S
C981 H1010 0.947 . S
C982 C981 1.392 . S
C982 C983 1.419 . S
C982 H1011 0.948 . S
C983 C982 1.419 . S
C983 C984 1.391 . S
C983 C987 1.397 . S
C984 C979 1.391 . S
C984 C983 1.391 . S
C984 C985 1.399 . S
C985 C984 1.399 . S
C985 C986 1.396 . S
C985 C988 1.453 . S
C985 C989 1.684 . S
C986 C967 1.723 . S
C986 C985 1.396 . S
C986 C987 1.394 . S
C987 C983 1.397 . S
C987 C986 1.394 . S
C987 C997 1.723 . S
C988 C985 1.453 . S
C988 H1012 0.982 . S
C988 H1013 0.979 . S
C988 H1014 0.977 . S
C989 C985 1.684 . S
C989 H1015 0.979 . S
C989 H1016 0.980 . S
C989 H1017 0.983 . S
C990 H966 0.948 . S
C990 C991 1.391 . S
C990 C995 1.391 . S
C991 C990 1.391 . S
C991 C992 1.391 . S
C992 H969 0.947 . S
C992 C991 1.391 . S
C992 C993 1.392 . S
C993 H970 0.948 . S
C993 C992 1.392 . S
C993 C994 1.419 . S
C994 C993 1.419 . S
C994 C995 1.391 . S
C994 C998 1.397 . S
C995 C990 1.391 . S
C995 C994 1.391 . S
C995 C996 1.399 . S
C996 C995 1.399 . S
C996 C997 1.396 . S
C996 C999 1.453 . S
C996 C1000 1.684 . S
C997 C987 1.723 . S
C997 C996 1.396 . S
C997 C998 1.394 . S
C998 C968 1.723 . S
C998 C994 1.397 . S
C998 C997 1.394 . S
C999 H971 0.982 . S
C999 H975 0.979 . S
C999 H976 0.977 . S
C999 C996 1.453 . S
C1000 H972 0.979 . S
C1000 H973 0.980 . S
C1000 H974 0.983 . S
C1000 C996 1.684 . S
H1001 C1019 0.948 . S
H1002 C960 0.948 . S
H1003 C978 0.979 . S
H1004 C978 0.980 . S
H1005 C978 0.983 . S
H1006 C977 0.982 . S
H1007 C977 0.979 . S
H1008 C977 0.977 . S
H1009 C979 0.948 . S
H1010 C981 0.947 . S
H1011 C982 0.948 . S
H1012 C988 0.982 . S
H1013 C988 0.979 . S
H1014 C988 0.977 . S
H1015 C989 0.979 . S
H1016 C989 0.980 . S
H1017 C989 0.983 . S
H1018 C962 0.947 . S
C1019 C962 1.392 . S
C1019 C963 1.419 . S
C1019 H1001 0.948 . S
C1020 C1021 1.391 . S
C1020 C1024 1.391 . S
C1020 H1062 0.948 . S
C1021 C1020 1.391 . S
C1021 C1022 1.391 . S
C1022 C1021 1.391 . S
C1022 H1078 0.947 . S
C1022 C1079 1.392 . S
C1023 C1024 1.391 . S
C1023 C1027 1.397 . S
C1023 C1079 1.419 . S
C1024 C1020 1.391 . S
C1024 C1023 1.391 . S
C1024 C1025 1.399 . S
C1025 C1024 1.399 . S
C1025 C1028 1.396 . S
C1025 C1037 1.453 . S
C1025 C1038 1.684 . S
H1026 C1050 0.948 . S
C1027 C1023 1.397 . S
C1027 C1028 1.394 . S
C1027 C1046 1.723 . S
C1028 C1025 1.396 . S
C1028 C1027 1.394 . S
C1028 C1058 1.723 . S
H1029 C1052 0.947 . S
H1030 C1053 0.948 . S
H1031 C1059 0.982 . S
H1032 C1060 0.979 . S
H1033 C1060 0.980 . S
H1034 C1060 0.983 . S
H1035 C1059 0.979 . S
H1036 C1059 0.977 . S
C1037 C1025 1.453 . S
C1037 H1066 0.982 . S
C1037 H1067 0.979 . S
C1037 H1068 0.977 . S
C1038 C1025 1.684 . S
C1038 H1063 0.979 . S
C1038 H1064 0.980 . S
C1038 H1065 0.983 . S
C1039 C1040 1.391 . S
C1039 C1044 1.391 . S
C1039 H1069 0.948 . S
C1040 C1039 1.391 . S
C1040 C1041 1.391 . S
C1041 C1040 1.391 . S
C1041 C1042 1.392 . S
C1041 H1070 0.947 . S
C1042 C1041 1.392 . S
C1042 C1043 1.419 . S
C1042 H1071 0.948 . S
C1043 C1042 1.419 . S
C1043 C1044 1.391 . S
C1043 C1047 1.397 . S
C1044 C1039 1.391 . S
C1044 C1043 1.391 . S
C1044 C1045 1.399 . S
C1045 C1044 1.399 . S
C1045 C1046 1.396 . S
C1045 C1048 1.453 . S
C1045 C1049 1.684 . S
C1046 C1027 1.723 . S
C1046 C1045 1.396 . S
C1046 C1047 1.394 . S
C1047 C1043 1.397 . S
C1047 C1046 1.394 . S
C1047 C1057 1.723 . S
C1048 C1045 1.453 . S
C1048 H1072 0.982 . S
C1048 H1073 0.979 . S
C1048 H1074 0.977 . S
C1049 C1045 1.684 . S
C1049 H1075 0.979 . S
C1049 H1076 0.980 . S
C1049 H1077 0.983 . S
C1050 H1026 0.948 . S
C1050 C1051 1.391 . S
C1050 C1055 1.391 . S
C1051 C1050 1.391 . S
C1051 C1052 1.391 . S
C1052 H1029 0.947 . S
C1052 C1051 1.391 . S
C1052 C1053 1.392 . S
C1053 H1030 0.948 . S
C1053 C1052 1.392 . S
C1053 C1054 1.419 . S
C1054 C1053 1.419 . S
C1054 C1055 1.391 . S
C1054 C1058 1.397 . S
C1055 C1050 1.391 . S
C1055 C1054 1.391 . S
C1055 C1056 1.399 . S
C1056 C1055 1.399 . S
C1056 C1057 1.396 . S
C1056 C1059 1.453 . S
C1056 C1060 1.684 . S
C1057 C1047 1.723 . S
C1057 C1056 1.396 . S
C1057 C1058 1.394 . S
C1058 C1028 1.723 . S
C1058 C1054 1.397 . S
C1058 C1057 1.394 . S
C1059 H1031 0.982 . S
C1059 H1035 0.979 . S
C1059 H1036 0.977 . S
C1059 C1056 1.453 . S
C1060 H1032 0.979 . S
C1060 H1033 0.980 . S
C1060 H1034 0.983 . S
C1060 C1056 1.684 . S
H1061 C1079 0.948 . S
H1062 C1020 0.948 . S
H1063 C1038 0.979 . S
H1064 C1038 0.980 . S
H1065 C1038 0.983 . S
H1066 C1037 0.982 . S
H1067 C1037 0.979 . S
H1068 C1037 0.977 . S
H1069 C1039 0.948 . S
H1070 C1041 0.947 . S
H1071 C1042 0.948 . S
H1072 C1048 0.982 . S
H1073 C1048 0.979 . S
H1074 C1048 0.977 . S
H1075 C1049 0.979 . S
H1076 C1049 0.980 . S
H1077 C1049 0.983 . S
H1078 C1022 0.947 . S
C1079 C1022 1.392 . S
C1079 C1023 1.419 . S
C1079 H1061 0.948 . S
Tb1080 N1111 2.660 . S
Tb1080 N1118 2.600 . S
Tb1080 O1124 2.546 . S
Tb1080 O1125 2.610 1_565 S
Tb1080 O1127 2.320 1_565 S
Tb1080 O1128 2.552 1_565 S
Tb1080 O1129 2.413 . S
Tb1080 O1131 2.362 1_556 S
Tb1080 O1132 2.421 . S
Tb1080 C1144 2.833 . S
C1081 C1084 1.432 . S
C1081 C1085 1.414 . S
C1081 N1088 1.359 . S
C1082 C1084 1.417 . S
C1082 C1086 1.432 . S
C1082 C1094 1.410 . S
C1083 C1085 1.444 . S
C1083 C1086 1.317 . S
C1083 H1106 0.929 . S
C1084 C1081 1.432 . S
C1084 C1082 1.417 . S
C1084 N1092 1.360 . S
C1085 C1081 1.414 . S
C1085 C1083 1.444 . S
C1085 C1090 1.385 . S
C1086 C1082 1.432 . S
C1086 C1083 1.317 . S
C1086 H1098 0.930 . S
C1087 C1089 1.392 . S
C1087 C1090 1.370 . S
C1087 H1099 0.931 . S
N1088 C1081 1.359 . S
N1088 C1089 1.327 . S
N1088 Tb1091 2.600 . S
C1089 C1087 1.392 . S
C1089 N1088 1.327 . S
C1089 H1096 0.930 . S
C1090 C1085 1.385 . S
C1090 C1087 1.370 . S
C1090 H1109 0.930 . S
Tb1091 N1088 2.600 . S
Tb1091 N1092 2.660 . S
Tb1091 O1125 2.362 1_554 S
Tb1091 O1126 2.421 . S
Tb1091 O1130 2.546 . S
Tb1091 O1131 2.610 1_545 S
Tb1091 O1133 2.320 1_545 S
Tb1091 O1134 2.552 1_545 S
Tb1091 O1135 2.413 . S
Tb1091 C1155 2.833 . S
N1092 C1084 1.360 . S
N1092 Tb1091 2.660 . S
N1092 C1093 1.305 . S
C1093 N1092 1.305 . S
C1093 C1095 1.407 . S
C1093 H1100 0.930 . S
C1094 C1082 1.410 . S
C1094 C1095 1.345 . S
C1094 H1102 0.930 . S
C1095 C1093 1.407 . S
C1095 C1094 1.345 . S
C1095 H1097 0.930 . S
H1096 C1089 0.930 . S
H1097 C1095 0.930 . S
H1098 C1086 0.930 . S
H1099 C1087 0.931 . S
H1100 C1093 0.930 . S
H1101 C1115 0.930 . S
H1102 C1094 0.930 . S
H1103 C1121 0.930 . S
H1104 C1112 0.930 . S
H1105 C1119 0.931 . S
H1106 C1083 0.929 . S
H1107 C1113 0.930 . S
H1108 C1146 0.930 . S
H1109 C1090 0.930 . S
H1110 C1145 0.929 . S
N1111 Tb1080 2.660 . S
N1111 C1112 1.305 . S
N1111 C1116 1.360 . S
C1112 H1104 0.930 . S
C1112 N1111 1.305 . S
C1112 C1115 1.407 . S
C1113 H1107 0.930 . S
C1113 C1114 1.410 . S
C1113 C1115 1.345 . S
C1114 C1113 1.410 . S
C1114 C1116 1.417 . S
C1114 C1146 1.432 . S
C1115 H1101 0.930 . S
C1115 C1112 1.407 . S
C1115 C1113 1.345 . S
C1116 N1111 1.360 . S
C1116 C1114 1.417 . S
C1116 C1120 1.432 . S
H1117 C1122 0.930 . S
N1118 Tb1080 2.600 . S
N1118 C1120 1.359 . S
N1118 C1121 1.327 . S
C1119 H1105 0.931 . S
C1119 C1121 1.392 . S
C1119 C1122 1.370 . S
C1120 C1116 1.432 . S
C1120 N1118 1.359 . S
C1120 C1123 1.414 . S
C1121 H1103 0.930 . S
C1121 N1118 1.327 . S
C1121 C1119 1.392 . S
C1122 H1117 0.930 . S
C1122 C1119 1.370 . S
C1122 C1123 1.385 . S
C1123 C1120 1.414 . S
C1123 C1122 1.385 . S
C1123 C1145 1.444 . S
O1124 Tb1080 2.546 . S
O1124 C1144 1.251 . S
O1125 Tb1080 2.610 1_545 S
O1125 Tb1091 2.362 1_556 S
O1125 C1136 1.283 . S
O1126 Tb1091 2.421 . S
O1126 C1143 1.262 1_554 S
O1127 Tb1080 2.320 1_545 S
O1127 C1143 1.260 . S
O1128 Tb1080 2.552 1_545 S
O1128 C1136 1.243 . S
O1129 Tb1080 2.413 . S
O1129 C1144 1.256 . S
O1130 Tb1091 2.546 . S
O1130 C1155 1.251 . S
O1131 Tb1080 2.362 1_554 S
O1131 Tb1091 2.610 1_565 S
O1131 C1147 1.283 . S
O1132 Tb1080 2.421 . S
O1132 C1154 1.262 1_556 S
O1133 Tb1091 2.320 1_565 S
O1133 C1154 1.260 . S
O1134 Tb1091 2.552 1_565 S
O1134 C1147 1.243 . S
O1135 Tb1091 2.413 . S
O1135 C1155 1.256 . S
C1136 O1125 1.283 . S
C1136 O1128 1.243 . S
C1137 C1139 1.382 1_565 S
C1137 C1141 1.393 . S
C1137 C1144 1.500 . S
C1138 C1139 1.400 . S
C1138 C1140 1.384 1_545 S
C1139 C1137 1.382 1_545 S
C1139 C1138 1.400 . S
C1139 H1156 0.930 . S
C1140 C1138 1.384 1_565 S
C1140 C1142 1.392 . S
C1140 H1157 0.931 . S
C1141 C1137 1.393 . S
C1141 C1142 1.401 . S
C1141 H1158 0.930 . S
C1142 C1140 1.392 . S
C1142 C1141 1.401 . S
C1142 H1159 0.930 . S
C1143 O1126 1.262 1_556 S
C1143 O1127 1.260 . S
C1144 Tb1080 2.833 . S
C1144 O1124 1.251 . S
C1144 O1129 1.256 . S
C1144 C1137 1.500 . S
C1145 H1110 0.929 . S
C1145 C1123 1.444 . S
C1145 C1146 1.317 . S
C1146 H1108 0.930 . S
C1146 C1114 1.432 . S
C1146 C1145 1.317 . S
C1147 O1131 1.283 . S
C1147 O1134 1.243 . S
C1148 C1149 1.382 1_545 S
C1148 C1152 1.393 . S
C1148 C1155 1.500 . S
C1149 C1148 1.382 1_565 S
C1149 C1150 1.400 . S
C1149 H1160 0.930 . S
C1150 C1149 1.400 . S
C1150 C1151 1.384 1_565 S
C1151 C1150 1.384 1_545 S
C1151 C1153 1.392 . S
C1151 H1161 0.931 . S
C1152 C1148 1.393 . S
C1152 C1153 1.401 . S
C1152 H1162 0.930 . S
C1153 C1151 1.392 . S
C1153 C1152 1.401 . S
C1153 H1163 0.930 . S
C1154 O1132 1.262 1_554 S
C1154 O1133 1.260 . S
C1155 Tb1091 2.833 . S
C1155 O1130 1.251 . S
C1155 O1135 1.256 . S
C1155 C1148 1.500 . S
H1156 C1139 0.930 . S
H1157 C1140 0.931 . S
H1158 C1141 0.930 . S
H1159 C1142 0.930 . S
H1160 C1149 0.930 . S
H1161 C1151 0.931 . S
H1162 C1152 0.930 . S
H1163 C1153 0.930 . S
Tb1164 N1195 2.660 . S
Tb1164 N1202 2.600 . S
Tb1164 O1208 2.546 . S
Tb1164 O1209 2.610 1_455 S
Tb1164 O1211 2.320 1_455 S
Tb1164 O1212 2.552 1_455 S
Tb1164 O1213 2.413 . S
Tb1164 O1215 2.362 1_556 S
Tb1164 O1216 2.421 . S
Tb1164 C1228 2.833 . S
C1165 C1168 1.432 . S
C1165 C1169 1.414 . S
C1165 N1172 1.359 . S
C1166 C1168 1.417 . S
C1166 C1170 1.432 . S
C1166 C1178 1.410 . S
C1167 C1169 1.444 . S
C1167 C1170 1.317 . S
C1167 H1190 0.929 . S
C1168 C1165 1.432 . S
C1168 C1166 1.417 . S
C1168 N1176 1.360 . S
C1169 C1165 1.414 . S
C1169 C1167 1.444 . S
C1169 C1174 1.385 . S
C1170 C1166 1.432 . S
C1170 C1167 1.317 . S
C1170 H1182 0.930 . S
C1171 C1173 1.392 . S
C1171 C1174 1.370 . S
C1171 H1183 0.931 . S
N1172 C1165 1.359 . S
N1172 C1173 1.327 . S
N1172 Tb1175 2.600 . S
C1173 C1171 1.392 . S
C1173 N1172 1.327 . S
C1173 H1180 0.930 . S
C1174 C1169 1.385 . S
C1174 C1171 1.370 . S
C1174 H1193 0.930 . S
Tb1175 N1172 2.600 . S
Tb1175 N1176 2.660 . S
Tb1175 O1209 2.362 1_554 S
Tb1175 O1210 2.421 . S
Tb1175 O1214 2.546 . S
Tb1175 O1215 2.610 1_655 S
Tb1175 O1217 2.320 1_655 S
Tb1175 O1218 2.552 1_655 S
Tb1175 O1219 2.413 . S
Tb1175 C1239 2.833 . S
N1176 C1168 1.360 . S
N1176 Tb1175 2.660 . S
N1176 C1177 1.305 . S
C1177 N1176 1.305 . S
C1177 C1179 1.407 . S
C1177 H1184 0.930 . S
C1178 C1166 1.410 . S
C1178 C1179 1.345 . S
C1178 H1186 0.930 . S
C1179 C1177 1.407 . S
C1179 C1178 1.345 . S
C1179 H1181 0.930 . S
H1180 C1173 0.930 . S
H1181 C1179 0.930 . S
H1182 C1170 0.930 . S
H1183 C1171 0.931 . S
H1184 C1177 0.930 . S
H1185 C1199 0.930 . S
H1186 C1178 0.930 . S
H1187 C1205 0.930 . S
H1188 C1196 0.930 . S
H1189 C1203 0.931 . S
H1190 C1167 0.929 . S
H1191 C1197 0.930 . S
H1192 C1230 0.930 . S
H1193 C1174 0.930 . S
H1194 C1229 0.929 . S
N1195 Tb1164 2.660 . S
N1195 C1196 1.305 . S
N1195 C1200 1.360 . S
C1196 H1188 0.930 . S
C1196 N1195 1.305 . S
C1196 C1199 1.407 . S
C1197 H1191 0.930 . S
C1197 C1198 1.410 . S
C1197 C1199 1.345 . S
C1198 C1197 1.410 . S
C1198 C1200 1.417 . S
C1198 C1230 1.432 . S
C1199 H1185 0.930 . S
C1199 C1196 1.407 . S
C1199 C1197 1.345 . S
C1200 N1195 1.360 . S
C1200 C1198 1.417 . S
C1200 C1204 1.432 . S
H1201 C1206 0.930 . S
N1202 Tb1164 2.600 . S
N1202 C1204 1.359 . S
N1202 C1205 1.327 . S
C1203 H1189 0.931 . S
C1203 C1205 1.392 . S
C1203 C1206 1.370 . S
C1204 C1200 1.432 . S
C1204 N1202 1.359 . S
C1204 C1207 1.414 . S
C1205 H1187 0.930 . S
C1205 N1202 1.327 . S
C1205 C1203 1.392 . S
C1206 H1201 0.930 . S
C1206 C1203 1.370 . S
C1206 C1207 1.385 . S
C1207 C1204 1.414 . S
C1207 C1206 1.385 . S
C1207 C1229 1.444 . S
O1208 Tb1164 2.546 . S
O1208 C1228 1.251 . S
O1209 Tb1164 2.610 1_655 S
O1209 Tb1175 2.362 1_556 S
O1209 C1220 1.283 . S
O1210 Tb1175 2.421 . S
O1210 C1227 1.262 1_554 S
O1211 Tb1164 2.320 1_655 S
O1211 C1227 1.260 . S
O1212 Tb1164 2.552 1_655 S
O1212 C1220 1.243 . S
O1213 Tb1164 2.413 . S
O1213 C1228 1.256 . S
O1214 Tb1175 2.546 . S
O1214 C1239 1.251 . S
O1215 Tb1164 2.362 1_554 S
O1215 Tb1175 2.610 1_455 S
O1215 C1231 1.283 . S
O1216 Tb1164 2.421 . S
O1216 C1238 1.262 1_556 S
O1217 Tb1175 2.320 1_455 S
O1217 C1238 1.260 . S
O1218 Tb1175 2.552 1_455 S
O1218 C1231 1.243 . S
O1219 Tb1175 2.413 . S
O1219 C1239 1.256 . S
C1220 O1209 1.283 . S
C1220 O1212 1.243 . S
C1221 C1223 1.382 1_455 S
C1221 C1225 1.393 . S
C1221 C1228 1.500 . S
C1222 C1223 1.400 . S
C1222 C1224 1.384 1_655 S
C1223 C1221 1.382 1_655 S
C1223 C1222 1.400 . S
C1223 H1240 0.930 . S
C1224 C1222 1.384 1_455 S
C1224 C1226 1.392 . S
C1224 H1241 0.931 . S
C1225 C1221 1.393 . S
C1225 C1226 1.401 . S
C1225 H1242 0.930 . S
C1226 C1224 1.392 . S
C1226 C1225 1.401 . S
C1226 H1243 0.930 . S
C1227 O1210 1.262 1_556 S
C1227 O1211 1.260 . S
C1228 Tb1164 2.833 . S
C1228 O1208 1.251 . S
C1228 O1213 1.256 . S
C1228 C1221 1.500 . S
C1229 H1194 0.929 . S
C1229 C1207 1.444 . S
C1229 C1230 1.317 . S
C1230 H1192 0.930 . S
C1230 C1198 1.432 . S
C1230 C1229 1.317 . S
C1231 O1215 1.283 . S
C1231 O1218 1.243 . S
C1232 C1233 1.382 1_655 S
C1232 C1236 1.393 . S
C1232 C1239 1.500 . S
C1233 C1232 1.382 1_455 S
C1233 C1234 1.400 . S
C1233 H1244 0.930 . S
C1234 C1233 1.400 . S
C1234 C1235 1.384 1_455 S
C1235 C1234 1.384 1_655 S
C1235 C1237 1.392 . S
C1235 H1245 0.931 . S
C1236 C1232 1.393 . S
C1236 C1237 1.401 . S
C1236 H1246 0.930 . S
C1237 C1235 1.392 . S
C1237 C1236 1.401 . S
C1237 H1247 0.930 . S
C1238 O1216 1.262 1_554 S
C1238 O1217 1.260 . S
C1239 Tb1175 2.833 . S
C1239 O1214 1.251 . S
C1239 O1219 1.256 . S
C1239 C1232 1.500 . S
H1240 C1223 0.930 . S
H1241 C1224 0.931 . S
H1242 C1225 0.930 . S
H1243 C1226 0.930 . S
H1244 C1233 0.930 . S
H1245 C1235 0.931 . S
H1246 C1236 0.930 . S
H1247 C1237 0.930 . S
Tb1248 N1279 2.660 . S
Tb1248 N1286 2.600 . S
Tb1248 O1292 2.546 . S
Tb1248 O1293 2.610 . S
Tb1248 O1295 2.320 . S
Tb1248 O1296 2.552 . S
Tb1248 O1297 2.413 . S
Tb1248 O1299 2.362 1_554 S
Tb1248 O1300 2.421 . S
Tb1248 C1312 2.833 . S
C1249 C1252 1.432 . S
C1249 C1253 1.414 . S
C1249 N1256 1.359 . S
C1250 C1252 1.417 . S
C1250 C1254 1.432 . S
C1250 C1262 1.410 . S
C1251 C1253 1.444 . S
C1251 C1254 1.317 . S
C1251 H1274 0.929 . S
C1252 C1249 1.432 . S
C1252 C1250 1.417 . S
C1252 N1260 1.360 . S
C1253 C1249 1.414 . S
C1253 C1251 1.444 . S
C1253 C1258 1.385 . S
C1254 C1250 1.432 . S
C1254 C1251 1.317 . S
C1254 H1266 0.930 . S
C1255 C1257 1.392 . S
C1255 C1258 1.370 . S
C1255 H1267 0.931 . S
N1256 C1249 1.359 . S
N1256 C1257 1.327 . S
N1256 Tb1259 2.600 . S
C1257 C1255 1.392 . S
C1257 N1256 1.327 . S
C1257 H1264 0.930 . S
C1258 C1253 1.385 . S
C1258 C1255 1.370 . S
C1258 H1277 0.930 . S
Tb1259 N1256 2.600 . S
Tb1259 N1260 2.660 . S
Tb1259 O1293 2.362 1_556 S
Tb1259 O1294 2.421 . S
Tb1259 O1298 2.546 . S
Tb1259 O1299 2.610 . S
Tb1259 O1301 2.320 . S
Tb1259 O1302 2.552 . S
Tb1259 O1303 2.413 . S
Tb1259 C1323 2.833 . S
N1260 C1252 1.360 . S
N1260 Tb1259 2.660 . S
N1260 C1261 1.305 . S
C1261 N1260 1.305 . S
C1261 C1263 1.407 . S
C1261 H1268 0.930 . S
C1262 C1250 1.410 . S
C1262 C1263 1.345 . S
C1262 H1270 0.930 . S
C1263 C1261 1.407 . S
C1263 C1262 1.345 . S
C1263 H1265 0.930 . S
H1264 C1257 0.930 . S
H1265 C1263 0.930 . S
H1266 C1254 0.930 . S
H1267 C1255 0.931 . S
H1268 C1261 0.930 . S
H1269 C1283 0.930 . S
H1270 C1262 0.930 . S
H1271 C1289 0.930 . S
H1272 C1280 0.930 . S
H1273 C1287 0.931 . S
H1274 C1251 0.929 . S
H1275 C1281 0.930 . S
H1276 C1314 0.930 . S
H1277 C1258 0.930 . S
H1278 C1313 0.929 . S
N1279 Tb1248 2.660 . S
N1279 C1280 1.305 . S
N1279 C1284 1.360 . S
C1280 H1272 0.930 . S
C1280 N1279 1.305 . S
C1280 C1283 1.407 . S
C1281 H1275 0.930 . S
C1281 C1282 1.410 . S
C1281 C1283 1.345 . S
C1282 C1281 1.410 . S
C1282 C1284 1.417 . S
C1282 C1314 1.432 . S
C1283 H1269 0.930 . S
C1283 C1280 1.407 . S
C1283 C1281 1.345 . S
C1284 N1279 1.360 . S
C1284 C1282 1.417 . S
C1284 C1288 1.432 . S
H1285 C1290 0.930 . S
N1286 Tb1248 2.600 . S
N1286 C1288 1.359 . S
N1286 C1289 1.327 . S
C1287 H1273 0.931 . S
C1287 C1289 1.392 . S
C1287 C1290 1.370 . S
C1288 C1284 1.432 . S
C1288 N1286 1.359 . S
C1288 C1291 1.414 . S
C1289 H1271 0.930 . S
C1289 N1286 1.327 . S
C1289 C1287 1.392 . S
C1290 H1285 0.930 . S
C1290 C1287 1.370 . S
C1290 C1291 1.385 . S
C1291 C1288 1.414 . S
C1291 C1290 1.385 . S
C1291 C1313 1.444 . S
O1292 Tb1248 2.546 . S
O1292 C1312 1.251 . S
O1293 Tb1248 2.610 . S
O1293 Tb1259 2.362 1_554 S
O1293 C1304 1.283 . S
O1294 Tb1259 2.421 . S
O1294 C1311 1.262 1_556 S
O1295 Tb1248 2.320 . S
O1295 C1311 1.260 . S
O1296 Tb1248 2.552 . S
O1296 C1304 1.243 . S
O1297 Tb1248 2.413 . S
O1297 C1312 1.256 . S
O1298 Tb1259 2.546 . S
O1298 C1323 1.251 . S
O1299 Tb1248 2.362 1_556 S
O1299 Tb1259 2.610 . S
O1299 C1315 1.283 . S
O1300 Tb1248 2.421 . S
O1300 C1322 1.262 1_554 S
O1301 Tb1259 2.320 . S
O1301 C1322 1.260 . S
O1302 Tb1259 2.552 . S
O1302 C1315 1.243 . S
O1303 Tb1259 2.413 . S
O1303 C1323 1.256 . S
C1304 O1293 1.283 . S
C1304 O1296 1.243 . S
C1305 C1307 1.382 . S
C1305 C1309 1.393 . S
C1305 C1312 1.500 . S
C1306 C1307 1.400 . S
C1306 C1308 1.384 . S
C1307 C1305 1.382 . S
C1307 C1306 1.400 . S
C1307 H1324 0.930 . S
C1308 C1306 1.384 . S
C1308 C1310 1.392 . S
C1308 H1325 0.931 . S
C1309 C1305 1.393 . S
C1309 C1310 1.401 . S
C1309 H1326 0.930 . S
C1310 C1308 1.392 . S
C1310 C1309 1.401 . S
C1310 H1327 0.930 . S
C1311 O1294 1.262 1_554 S
C1311 O1295 1.260 . S
C1312 Tb1248 2.833 . S
C1312 O1292 1.251 . S
C1312 O1297 1.256 . S
C1312 C1305 1.500 . S
C1313 H1278 0.929 . S
C1313 C1291 1.444 . S
C1313 C1314 1.317 . S
C1314 H1276 0.930 . S
C1314 C1282 1.432 . S
C1314 C1313 1.317 . S
C1315 O1299 1.283 . S
C1315 O1302 1.243 . S
C1316 C1317 1.382 . S
C1316 C1320 1.393 . S
C1316 C1323 1.500 . S
C1317 C1316 1.382 . S
C1317 C1318 1.400 . S
C1317 H1328 0.930 . S
C1318 C1317 1.400 . S
C1318 C1319 1.384 . S
C1319 C1318 1.384 . S
C1319 C1321 1.392 . S
C1319 H1329 0.931 . S
C1320 C1316 1.393 . S
C1320 C1321 1.401 . S
C1320 H1330 0.930 . S
C1321 C1319 1.392 . S
C1321 C1320 1.401 . S
C1321 H1331 0.930 . S
C1322 O1300 1.262 1_556 S
C1322 O1301 1.260 . S
C1323 Tb1259 2.833 . S
C1323 O1298 1.251 . S
C1323 O1303 1.256 . S
C1323 C1316 1.500 . S
H1324 C1307 0.930 . S
H1325 C1308 0.931 . S
H1326 C1309 0.930 . S
H1327 C1310 0.930 . S
H1328 C1317 0.930 . S
H1329 C1319 0.931 . S
H1330 C1320 0.930 . S
H1331 C1321 0.930 . S
Tb1332 N1363 2.660 . S
Tb1332 N1370 2.600 . S
Tb1332 O1376 2.546 . S
Tb1332 O1377 2.610 . S
Tb1332 O1379 2.320 . S
Tb1332 O1380 2.552 . S
Tb1332 O1381 2.413 . S
Tb1332 O1383 2.362 . S
Tb1332 O1384 2.421 . S
Tb1332 C1396 2.833 . S
C1333 C1336 1.432 . S
C1333 C1337 1.414 . S
C1333 N1340 1.359 . S
C1334 C1336 1.417 . S
C1334 C1338 1.432 . S
C1334 C1346 1.410 . S
C1335 C1337 1.444 . S
C1335 C1338 1.317 . S
C1335 H1358 0.929 . S
C1336 C1333 1.432 . S
C1336 C1334 1.417 . S
C1336 N1344 1.360 . S
C1337 C1333 1.414 . S
C1337 C1335 1.444 . S
C1337 C1342 1.385 . S
C1338 C1334 1.432 . S
C1338 C1335 1.317 . S
C1338 H1350 0.930 . S
C1339 C1341 1.392 . S
C1339 C1342 1.370 . S
C1339 H1351 0.931 . S
N1340 C1333 1.359 . S
N1340 C1341 1.327 . S
N1340 Tb1343 2.600 . S
C1341 C1339 1.392 . S
C1341 N1340 1.327 . S
C1341 H1348 0.930 . S
C1342 C1337 1.385 . S
C1342 C1339 1.370 . S
C1342 H1361 0.930 . S
Tb1343 N1340 2.600 . S
Tb1343 N1344 2.660 . S
Tb1343 O1377 2.362 . S
Tb1343 O1378 2.421 . S
Tb1343 O1382 2.546 . S
Tb1343 O1383 2.610 . S
Tb1343 O1385 2.320 . S
Tb1343 O1386 2.552 . S
Tb1343 O1387 2.413 . S
Tb1343 C1407 2.833 . S
N1344 C1336 1.360 . S
N1344 Tb1343 2.660 . S
N1344 C1345 1.305 . S
C1345 N1344 1.305 . S
C1345 C1347 1.407 . S
C1345 H1352 0.930 . S
C1346 C1334 1.410 . S
C1346 C1347 1.345 . S
C1346 H1354 0.930 . S
C1347 C1345 1.407 . S
C1347 C1346 1.345 . S
C1347 H1349 0.930 . S
H1348 C1341 0.930 . S
H1349 C1347 0.930 . S
H1350 C1338 0.930 . S
H1351 C1339 0.931 . S
H1352 C1345 0.930 . S
H1353 C1367 0.930 . S
H1354 C1346 0.930 . S
H1355 C1373 0.930 . S
H1356 C1364 0.930 . S
H1357 C1371 0.931 . S
H1358 C1335 0.929 . S
H1359 C1365 0.930 . S
H1360 C1398 0.930 . S
H1361 C1342 0.930 . S
H1362 C1397 0.929 . S
N1363 Tb1332 2.660 . S
N1363 C1364 1.305 . S
N1363 C1368 1.360 . S
C1364 H1356 0.930 . S
C1364 N1363 1.305 . S
C1364 C1367 1.407 . S
C1365 H1359 0.930 . S
C1365 C1366 1.410 . S
C1365 C1367 1.345 . S
C1366 C1365 1.410 . S
C1366 C1368 1.417 . S
C1366 C1398 1.432 . S
C1367 H1353 0.930 . S
C1367 C1364 1.407 . S
C1367 C1365 1.345 . S
C1368 N1363 1.360 . S
C1368 C1366 1.417 . S
C1368 C1372 1.432 . S
H1369 C1374 0.930 . S
N1370 Tb1332 2.600 . S
N1370 C1372 1.359 . S
N1370 C1373 1.327 . S
C1371 H1357 0.931 . S
C1371 C1373 1.392 . S
C1371 C1374 1.370 . S
C1372 C1368 1.432 . S
C1372 N1370 1.359 . S
C1372 C1375 1.414 . S
C1373 H1355 0.930 . S
C1373 N1370 1.327 . S
C1373 C1371 1.392 . S
C1374 H1369 0.930 . S
C1374 C1371 1.370 . S
C1374 C1375 1.385 . S
C1375 C1372 1.414 . S
C1375 C1374 1.385 . S
C1375 C1397 1.444 . S
O1376 Tb1332 2.546 . S
O1376 C1396 1.251 . S
O1377 Tb1332 2.610 . S
O1377 Tb1343 2.362 . S
O1377 C1388 1.283 . S
O1378 Tb1343 2.421 . S
O1378 C1395 1.262 . S
O1379 Tb1332 2.320 . S
O1379 C1395 1.260 . S
O1380 Tb1332 2.552 . S
O1380 C1388 1.243 . S
O1381 Tb1332 2.413 . S
O1381 C1396 1.256 . S
O1382 Tb1343 2.546 . S
O1382 C1407 1.251 . S
O1383 Tb1332 2.362 . S
O1383 Tb1343 2.610 . S
O1383 C1399 1.283 . S
O1384 Tb1332 2.421 . S
O1384 C1406 1.262 . S
O1385 Tb1343 2.320 . S
O1385 C1406 1.260 . S
O1386 Tb1343 2.552 . S
O1386 C1399 1.243 . S
O1387 Tb1343 2.413 . S
O1387 C1407 1.256 . S
C1388 O1377 1.283 . S
C1388 O1380 1.243 . S
C1389 C1391 1.382 . S
C1389 C1393 1.393 . S
C1389 C1396 1.500 . S
C1390 C1391 1.400 . S
C1390 C1392 1.384 . S
C1391 C1389 1.382 . S
C1391 C1390 1.400 . S
C1391 H1408 0.930 . S
C1392 C1390 1.384 . S
C1392 C1394 1.392 . S
C1392 H1409 0.931 . S
C1393 C1389 1.393 . S
C1393 C1394 1.401 . S
C1393 H1410 0.930 . S
C1394 C1392 1.392 . S
C1394 C1393 1.401 . S
C1394 H1411 0.930 . S
C1395 O1378 1.262 . S
C1395 O1379 1.260 . S
C1396 Tb1332 2.833 . S
C1396 O1376 1.251 . S
C1396 O1381 1.256 . S
C1396 C1389 1.500 . S
C1397 H1362 0.929 . S
C1397 C1375 1.444 . S
C1397 C1398 1.317 . S
C1398 H1360 0.930 . S
C1398 C1366 1.432 . S
C1398 C1397 1.317 . S
C1399 O1383 1.283 . S
C1399 O1386 1.243 . S
C1400 C1401 1.382 . S
C1400 C1404 1.393 . S
C1400 C1407 1.500 . S
C1401 C1400 1.382 . S
C1401 C1402 1.400 . S
C1401 H1412 0.930 . S
C1402 C1401 1.400 . S
C1402 C1403 1.384 . S
C1403 C1402 1.384 . S
C1403 C1405 1.392 . S
C1403 H1413 0.931 . S
C1404 C1400 1.393 . S
C1404 C1405 1.401 . S
C1404 H1414 0.930 . S
C1405 C1403 1.392 . S
C1405 C1404 1.401 . S
C1405 H1415 0.930 . S
C1406 O1384 1.262 . S
C1406 O1385 1.260 . S
C1407 Tb1343 2.833 . S
C1407 O1382 1.251 . S
C1407 O1387 1.256 . S
C1407 C1400 1.500 . S
H1408 C1391 0.930 . S
H1409 C1392 0.931 . S
H1410 C1393 0.930 . S
H1411 C1394 0.930 . S
H1412 C1401 0.930 . S
H1413 C1403 0.931 . S
H1414 C1404 0.930 . S
H1415 C1405 0.930 . S
Tb1416 N1447 2.660 . S
Tb1416 N1454 2.600 . S
Tb1416 O1460 2.546 . S
Tb1416 O1461 2.610 . S
Tb1416 O1463 2.320 . S
Tb1416 O1464 2.552 . S
Tb1416 O1465 2.413 . S
Tb1416 O1467 2.362 . S
Tb1416 O1468 2.421 . S
Tb1416 C1480 2.833 . S
C1417 C1420 1.432 . S
C1417 C1421 1.414 . S
C1417 N1424 1.359 . S
C1418 C1420 1.417 . S
C1418 C1422 1.432 . S
C1418 C1430 1.410 . S
C1419 C1421 1.444 . S
C1419 C1422 1.317 . S
C1419 H1442 0.929 . S
C1420 C1417 1.432 . S
C1420 C1418 1.417 . S
C1420 N1428 1.360 . S
C1421 C1417 1.414 . S
C1421 C1419 1.444 . S
C1421 C1426 1.385 . S
C1422 C1418 1.432 . S
C1422 C1419 1.317 . S
C1422 H1434 0.930 . S
C1423 C1425 1.392 . S
C1423 C1426 1.370 . S
C1423 H1435 0.931 . S
N1424 C1417 1.359 . S
N1424 C1425 1.327 . S
N1424 Tb1427 2.600 . S
C1425 C1423 1.392 . S
C1425 N1424 1.327 . S
C1425 H1432 0.930 . S
C1426 C1421 1.385 . S
C1426 C1423 1.370 . S
C1426 H1445 0.930 . S
Tb1427 N1424 2.600 . S
Tb1427 N1428 2.660 . S
Tb1427 O1461 2.362 . S
Tb1427 O1462 2.421 . S
Tb1427 O1466 2.546 . S
Tb1427 O1467 2.610 . S
Tb1427 O1469 2.320 . S
Tb1427 O1470 2.552 . S
Tb1427 O1471 2.413 . S
Tb1427 C1491 2.833 . S
N1428 C1420 1.360 . S
N1428 Tb1427 2.660 . S
N1428 C1429 1.305 . S
C1429 N1428 1.305 . S
C1429 C1431 1.407 . S
C1429 H1436 0.930 . S
C1430 C1418 1.410 . S
C1430 C1431 1.345 . S
C1430 H1438 0.930 . S
C1431 C1429 1.407 . S
C1431 C1430 1.345 . S
C1431 H1433 0.930 . S
H1432 C1425 0.930 . S
H1433 C1431 0.930 . S
H1434 C1422 0.930 . S
H1435 C1423 0.931 . S
H1436 C1429 0.930 . S
H1437 C1451 0.930 . S
H1438 C1430 0.930 . S
H1439 C1457 0.930 . S
H1440 C1448 0.930 . S
H1441 C1455 0.931 . S
H1442 C1419 0.929 . S
H1443 C1449 0.930 . S
H1444 C1482 0.930 . S
H1445 C1426 0.930 . S
H1446 C1481 0.929 . S
N1447 Tb1416 2.660 . S
N1447 C1448 1.305 . S
N1447 C1452 1.360 . S
C1448 H1440 0.930 . S
C1448 N1447 1.305 . S
C1448 C1451 1.407 . S
C1449 H1443 0.930 . S
C1449 C1450 1.410 . S
C1449 C1451 1.345 . S
C1450 C1449 1.410 . S
C1450 C1452 1.417 . S
C1450 C1482 1.432 . S
C1451 H1437 0.930 . S
C1451 C1448 1.407 . S
C1451 C1449 1.345 . S
C1452 N1447 1.360 . S
C1452 C1450 1.417 . S
C1452 C1456 1.432 . S
H1453 C1458 0.930 . S
N1454 Tb1416 2.600 . S
N1454 C1456 1.359 . S
N1454 C1457 1.327 . S
C1455 H1441 0.931 . S
C1455 C1457 1.392 . S
C1455 C1458 1.370 . S
C1456 C1452 1.432 . S
C1456 N1454 1.359 . S
C1456 C1459 1.414 . S
C1457 H1439 0.930 . S
C1457 N1454 1.327 . S
C1457 C1455 1.392 . S
C1458 H1453 0.930 . S
C1458 C1455 1.370 . S
C1458 C1459 1.385 . S
C1459 C1456 1.414 . S
C1459 C1458 1.385 . S
C1459 C1481 1.444 . S
O1460 Tb1416 2.546 . S
O1460 C1480 1.251 . S
O1461 Tb1416 2.610 . S
O1461 Tb1427 2.362 . S
O1461 C1472 1.283 . S
O1462 Tb1427 2.421 . S
O1462 C1479 1.262 . S
O1463 Tb1416 2.320 . S
O1463 C1479 1.260 . S
O1464 Tb1416 2.552 . S
O1464 C1472 1.243 . S
O1465 Tb1416 2.413 . S
O1465 C1480 1.256 . S
O1466 Tb1427 2.546 . S
O1466 C1491 1.251 . S
O1467 Tb1416 2.362 . S
O1467 Tb1427 2.610 . S
O1467 C1483 1.283 . S
O1468 Tb1416 2.421 . S
O1468 C1490 1.262 . S
O1469 Tb1427 2.320 . S
O1469 C1490 1.260 . S
O1470 Tb1427 2.552 . S
O1470 C1483 1.243 . S
O1471 Tb1427 2.413 . S
O1471 C1491 1.256 . S
C1472 O1461 1.283 . S
C1472 O1464 1.243 . S
C1473 C1475 1.382 . S
C1473 C1477 1.393 . S
C1473 C1480 1.500 . S
C1474 C1475 1.400 . S
C1474 C1476 1.384 . S
C1475 C1473 1.382 . S
C1475 C1474 1.400 . S
C1475 H1492 0.930 . S
C1476 C1474 1.384 . S
C1476 C1478 1.392 . S
C1476 H1493 0.931 . S
C1477 C1473 1.393 . S
C1477 C1478 1.401 . S
C1477 H1494 0.930 . S
C1478 C1476 1.392 . S
C1478 C1477 1.401 . S
C1478 H1495 0.930 . S
C1479 O1462 1.262 . S
C1479 O1463 1.260 . S
C1480 Tb1416 2.833 . S
C1480 O1460 1.251 . S
C1480 O1465 1.256 . S
C1480 C1473 1.500 . S
C1481 H1446 0.929 . S
C1481 C1459 1.444 . S
C1481 C1482 1.317 . S
C1482 H1444 0.930 . S
C1482 C1450 1.432 . S
C1482 C1481 1.317 . S
C1483 O1467 1.283 . S
C1483 O1470 1.243 . S
C1484 C1485 1.382 . S
C1484 C1488 1.393 . S
C1484 C1491 1.500 . S
C1485 C1484 1.382 . S
C1485 C1486 1.400 . S
C1485 H1496 0.930 . S
C1486 C1485 1.400 . S
C1486 C1487 1.384 . S
C1487 C1486 1.384 . S
C1487 C1489 1.392 . S
C1487 H1497 0.931 . S
C1488 C1484 1.393 . S
C1488 C1489 1.401 . S
C1488 H1498 0.930 . S
C1489 C1487 1.392 . S
C1489 C1488 1.401 . S
C1489 H1499 0.930 . S
C1490 O1468 1.262 . S
C1490 O1469 1.260 . S
C1491 Tb1427 2.833 . S
C1491 O1466 1.251 . S
C1491 O1471 1.256 . S
C1491 C1484 1.500 . S
H1492 C1475 0.930 . S
H1493 C1476 0.931 . S
H1494 C1477 0.930 . S
H1495 C1478 0.930 . S
H1496 C1485 0.930 . S
H1497 C1487 0.931 . S
H1498 C1488 0.930 . S
H1499 C1489 0.930 . S
Tb1500 N1531 2.660 . S
Tb1500 N1538 2.600 . S
Tb1500 O1544 2.546 . S
Tb1500 O1545 2.610 . S
Tb1500 O1547 2.320 . S
Tb1500 O1548 2.552 . S
Tb1500 O1549 2.413 . S
Tb1500 O1551 2.362 . S
Tb1500 O1552 2.421 . S
Tb1500 C1564 2.833 . S
C1501 C1504 1.432 . S
C1501 C1505 1.414 . S
C1501 N1508 1.359 . S
C1502 C1504 1.417 . S
C1502 C1506 1.432 . S
C1502 C1514 1.410 . S
C1503 C1505 1.444 . S
C1503 C1506 1.317 . S
C1503 H1526 0.929 . S
C1504 C1501 1.432 . S
C1504 C1502 1.417 . S
C1504 N1512 1.360 . S
C1505 C1501 1.414 . S
C1505 C1503 1.444 . S
C1505 C1510 1.385 . S
C1506 C1502 1.432 . S
C1506 C1503 1.317 . S
C1506 H1518 0.930 . S
C1507 C1509 1.392 . S
C1507 C1510 1.370 . S
C1507 H1519 0.931 . S
N1508 C1501 1.359 . S
N1508 C1509 1.327 . S
N1508 Tb1511 2.600 . S
C1509 C1507 1.392 . S
C1509 N1508 1.327 . S
C1509 H1516 0.930 . S
C1510 C1505 1.385 . S
C1510 C1507 1.370 . S
C1510 H1529 0.930 . S
Tb1511 N1508 2.600 . S
Tb1511 N1512 2.660 . S
Tb1511 O1545 2.362 . S
Tb1511 O1546 2.421 . S
Tb1511 O1550 2.546 . S
Tb1511 O1551 2.610 . S
Tb1511 O1553 2.320 . S
Tb1511 O1554 2.552 . S
Tb1511 O1555 2.413 . S
Tb1511 C1575 2.833 . S
N1512 C1504 1.360 . S
N1512 Tb1511 2.660 . S
N1512 C1513 1.305 . S
C1513 N1512 1.305 . S
C1513 C1515 1.407 . S
C1513 H1520 0.930 . S
C1514 C1502 1.410 . S
C1514 C1515 1.345 . S
C1514 H1522 0.930 . S
C1515 C1513 1.407 . S
C1515 C1514 1.345 . S
C1515 H1517 0.930 . S
H1516 C1509 0.930 . S
H1517 C1515 0.930 . S
H1518 C1506 0.930 . S
H1519 C1507 0.931 . S
H1520 C1513 0.930 . S
H1521 C1535 0.930 . S
H1522 C1514 0.930 . S
H1523 C1541 0.930 . S
H1524 C1532 0.930 . S
H1525 C1539 0.931 . S
H1526 C1503 0.929 . S
H1527 C1533 0.930 . S
H1528 C1566 0.930 . S
H1529 C1510 0.930 . S
H1530 C1565 0.929 . S
N1531 Tb1500 2.660 . S
N1531 C1532 1.305 . S
N1531 C1536 1.360 . S
C1532 H1524 0.930 . S
C1532 N1531 1.305 . S
C1532 C1535 1.407 . S
C1533 H1527 0.930 . S
C1533 C1534 1.410 . S
C1533 C1535 1.345 . S
C1534 C1533 1.410 . S
C1534 C1536 1.417 . S
C1534 C1566 1.432 . S
C1535 H1521 0.930 . S
C1535 C1532 1.407 . S
C1535 C1533 1.345 . S
C1536 N1531 1.360 . S
C1536 C1534 1.417 . S
C1536 C1540 1.432 . S
H1537 C1542 0.930 . S
N1538 Tb1500 2.600 . S
N1538 C1540 1.359 . S
N1538 C1541 1.327 . S
C1539 H1525 0.931 . S
C1539 C1541 1.392 . S
C1539 C1542 1.370 . S
C1540 C1536 1.432 . S
C1540 N1538 1.359 . S
C1540 C1543 1.414 . S
C1541 H1523 0.930 . S
C1541 N1538 1.327 . S
C1541 C1539 1.392 . S
C1542 H1537 0.930 . S
C1542 C1539 1.370 . S
C1542 C1543 1.385 . S
C1543 C1540 1.414 . S
C1543 C1542 1.385 . S
C1543 C1565 1.444 . S
O1544 Tb1500 2.546 . S
O1544 C1564 1.251 . S
O1545 Tb1500 2.610 . S
O1545 Tb1511 2.362 . S
O1545 C1556 1.283 . S
O1546 Tb1511 2.421 . S
O1546 C1563 1.262 . S
O1547 Tb1500 2.320 . S
O1547 C1563 1.260 . S
O1548 Tb1500 2.552 . S
O1548 C1556 1.243 . S
O1549 Tb1500 2.413 . S
O1549 C1564 1.256 . S
O1550 Tb1511 2.546 . S
O1550 C1575 1.251 . S
O1551 Tb1500 2.362 . S
O1551 Tb1511 2.610 . S
O1551 C1567 1.283 . S
O1552 Tb1500 2.421 . S
O1552 C1574 1.262 . S
O1553 Tb1511 2.320 . S
O1553 C1574 1.260 . S
O1554 Tb1511 2.552 . S
O1554 C1567 1.243 . S
O1555 Tb1511 2.413 . S
O1555 C1575 1.256 . S
C1556 O1545 1.283 . S
C1556 O1548 1.243 . S
C1557 C1559 1.382 . S
C1557 C1561 1.393 . S
C1557 C1564 1.500 . S
C1558 C1559 1.400 . S
C1558 C1560 1.384 . S
C1559 C1557 1.382 . S
C1559 C1558 1.400 . S
C1559 H1576 0.930 . S
C1560 C1558 1.384 . S
C1560 C1562 1.392 . S
C1560 H1577 0.931 . S
C1561 C1557 1.393 . S
C1561 C1562 1.401 . S
C1561 H1578 0.930 . S
C1562 C1560 1.392 . S
C1562 C1561 1.401 . S
C1562 H1579 0.930 . S
C1563 O1546 1.262 . S
C1563 O1547 1.260 . S
C1564 Tb1500 2.833 . S
C1564 O1544 1.251 . S
C1564 O1549 1.256 . S
C1564 C1557 1.500 . S
C1565 H1530 0.929 . S
C1565 C1543 1.444 . S
C1565 C1566 1.317 . S
C1566 H1528 0.930 . S
C1566 C1534 1.432 . S
C1566 C1565 1.317 . S
C1567 O1551 1.283 . S
C1567 O1554 1.243 . S
C1568 C1569 1.382 . S
C1568 C1572 1.393 . S
C1568 C1575 1.500 . S
C1569 C1568 1.382 . S
C1569 C1570 1.400 . S
C1569 H1580 0.930 . S
C1570 C1569 1.400 . S
C1570 C1571 1.384 . S
C1571 C1570 1.384 . S
C1571 C1573 1.392 . S
C1571 H1581 0.931 . S
C1572 C1568 1.393 . S
C1572 C1573 1.401 . S
C1572 H1582 0.930 . S
C1573 C1571 1.392 . S
C1573 C1572 1.401 . S
C1573 H1583 0.930 . S
C1574 O1552 1.262 . S
C1574 O1553 1.260 . S
C1575 Tb1511 2.833 . S
C1575 O1550 1.251 . S
C1575 O1555 1.256 . S
C1575 C1568 1.500 . S
H1576 C1559 0.930 . S
H1577 C1560 0.931 . S
H1578 C1561 0.930 . S
H1579 C1562 0.930 . S
H1580 C1569 0.930 . S
H1581 C1571 0.931 . S
H1582 C1572 0.930 . S
H1583 C1573 0.930 . S
Tb1584 N1615 2.660 . S
Tb1584 N1622 2.600 . S
Tb1584 O1628 2.546 . S
Tb1584 O1629 2.610 . S
Tb1584 O1631 2.320 . S
Tb1584 O1632 2.552 . S
Tb1584 O1633 2.413 . S
Tb1584 O1635 2.362 . S
Tb1584 O1636 2.421 . S
Tb1584 C1648 2.833 . S
C1585 C1588 1.432 . S
C1585 C1589 1.414 . S
C1585 N1592 1.359 . S
C1586 C1588 1.417 . S
C1586 C1590 1.432 . S
C1586 C1598 1.410 . S
C1587 C1589 1.444 . S
C1587 C1590 1.317 . S
C1587 H1610 0.929 . S
C1588 C1585 1.432 . S
C1588 C1586 1.417 . S
C1588 N1596 1.360 . S
C1589 C1585 1.414 . S
C1589 C1587 1.444 . S
C1589 C1594 1.385 . S
C1590 C1586 1.432 . S
C1590 C1587 1.317 . S
C1590 H1602 0.930 . S
C1591 C1593 1.392 . S
C1591 C1594 1.370 . S
C1591 H1603 0.931 . S
N1592 C1585 1.359 . S
N1592 C1593 1.327 . S
N1592 Tb1595 2.600 . S
C1593 C1591 1.392 . S
C1593 N1592 1.327 . S
C1593 H1600 0.930 . S
C1594 C1589 1.385 . S
C1594 C1591 1.370 . S
C1594 H1613 0.930 . S
Tb1595 N1592 2.600 . S
Tb1595 N1596 2.660 . S
Tb1595 O1629 2.362 . S
Tb1595 O1630 2.421 . S
Tb1595 O1634 2.546 . S
Tb1595 O1635 2.610 . S
Tb1595 O1637 2.320 . S
Tb1595 O1638 2.552 . S
Tb1595 O1639 2.413 . S
Tb1595 C1659 2.833 . S
N1596 C1588 1.360 . S
N1596 Tb1595 2.660 . S
N1596 C1597 1.305 . S
C1597 N1596 1.305 . S
C1597 C1599 1.407 . S
C1597 H1604 0.930 . S
C1598 C1586 1.410 . S
C1598 C1599 1.345 . S
C1598 H1606 0.930 . S
C1599 C1597 1.407 . S
C1599 C1598 1.345 . S
C1599 H1601 0.930 . S
H1600 C1593 0.930 . S
H1601 C1599 0.930 . S
H1602 C1590 0.930 . S
H1603 C1591 0.931 . S
H1604 C1597 0.930 . S
H1605 C1619 0.930 . S
H1606 C1598 0.930 . S
H1607 C1625 0.930 . S
H1608 C1616 0.930 . S
H1609 C1623 0.931 . S
H1610 C1587 0.929 . S
H1611 C1617 0.930 . S
H1612 C1650 0.930 . S
H1613 C1594 0.930 . S
H1614 C1649 0.929 . S
N1615 Tb1584 2.660 . S
N1615 C1616 1.305 . S
N1615 C1620 1.360 . S
C1616 H1608 0.930 . S
C1616 N1615 1.305 . S
C1616 C1619 1.407 . S
C1617 H1611 0.930 . S
C1617 C1618 1.410 . S
C1617 C1619 1.345 . S
C1618 C1617 1.410 . S
C1618 C1620 1.417 . S
C1618 C1650 1.432 . S
C1619 H1605 0.930 . S
C1619 C1616 1.407 . S
C1619 C1617 1.345 . S
C1620 N1615 1.360 . S
C1620 C1618 1.417 . S
C1620 C1624 1.432 . S
H1621 C1626 0.930 . S
N1622 Tb1584 2.600 . S
N1622 C1624 1.359 . S
N1622 C1625 1.327 . S
C1623 H1609 0.931 . S
C1623 C1625 1.392 . S
C1623 C1626 1.370 . S
C1624 C1620 1.432 . S
C1624 N1622 1.359 . S
C1624 C1627 1.414 . S
C1625 H1607 0.930 . S
C1625 N1622 1.327 . S
C1625 C1623 1.392 . S
C1626 H1621 0.930 . S
C1626 C1623 1.370 . S
C1626 C1627 1.385 . S
C1627 C1624 1.414 . S
C1627 C1626 1.385 . S
C1627 C1649 1.444 . S
O1628 Tb1584 2.546 . S
O1628 C1648 1.251 . S
O1629 Tb1584 2.610 . S
O1629 Tb1595 2.362 . S
O1629 C1640 1.283 . S
O1630 Tb1595 2.421 . S
O1630 C1647 1.262 . S
O1631 Tb1584 2.320 . S
O1631 C1647 1.260 . S
O1632 Tb1584 2.552 . S
O1632 C1640 1.243 . S
O1633 Tb1584 2.413 . S
O1633 C1648 1.256 . S
O1634 Tb1595 2.546 . S
O1634 C1659 1.251 . S
O1635 Tb1584 2.362 . S
O1635 Tb1595 2.610 . S
O1635 C1651 1.283 . S
O1636 Tb1584 2.421 . S
O1636 C1658 1.262 . S
O1637 Tb1595 2.320 . S
O1637 C1658 1.260 . S
O1638 Tb1595 2.552 . S
O1638 C1651 1.243 . S
O1639 Tb1595 2.413 . S
O1639 C1659 1.256 . S
C1640 O1629 1.283 . S
C1640 O1632 1.243 . S
C1641 C1643 1.382 . S
C1641 C1645 1.393 . S
C1641 C1648 1.500 . S
C1642 C1643 1.400 . S
C1642 C1644 1.384 . S
C1643 C1641 1.382 . S
C1643 C1642 1.400 . S
C1643 H1660 0.930 . S
C1644 C1642 1.384 . S
C1644 C1646 1.392 . S
C1644 H1661 0.931 . S
C1645 C1641 1.393 . S
C1645 C1646 1.401 . S
C1645 H1662 0.930 . S
C1646 C1644 1.392 . S
C1646 C1645 1.401 . S
C1646 H1663 0.930 . S
C1647 O1630 1.262 . S
C1647 O1631 1.260 . S
C1648 Tb1584 2.833 . S
C1648 O1628 1.251 . S
C1648 O1633 1.256 . S
C1648 C1641 1.500 . S
C1649 H1614 0.929 . S
C1649 C1627 1.444 . S
C1649 C1650 1.317 . S
C1650 H1612 0.930 . S
C1650 C1618 1.432 . S
C1650 C1649 1.317 . S
C1651 O1635 1.283 . S
C1651 O1638 1.243 . S
C1652 C1653 1.382 . S
C1652 C1656 1.393 . S
C1652 C1659 1.500 . S
C1653 C1652 1.382 . S
C1653 C1654 1.400 . S
C1653 H1664 0.930 . S
C1654 C1653 1.400 . S
C1654 C1655 1.384 . S
C1655 C1654 1.384 . S
C1655 C1657 1.392 . S
C1655 H1665 0.931 . S
C1656 C1652 1.393 . S
C1656 C1657 1.401 . S
C1656 H1666 0.930 . S
C1657 C1655 1.392 . S
C1657 C1656 1.401 . S
C1657 H1667 0.930 . S
C1658 O1636 1.262 . S
C1658 O1637 1.260 . S
C1659 Tb1595 2.833 . S
C1659 O1634 1.251 . S
C1659 O1639 1.256 . S
C1659 C1652 1.500 . S
H1660 C1643 0.930 . S
H1661 C1644 0.931 . S
H1662 C1645 0.930 . S
H1663 C1646 0.930 . S
H1664 C1653 0.930 . S
H1665 C1655 0.931 . S
H1666 C1656 0.930 . S
H1667 C1657 0.930 . S
Tb1668 N1699 2.660 . S
Tb1668 N1706 2.600 . S
Tb1668 O1712 2.546 . S
Tb1668 O1713 2.610 . S
Tb1668 O1715 2.320 . S
Tb1668 O1716 2.552 . S
Tb1668 O1717 2.413 . S
Tb1668 O1719 2.362 . S
Tb1668 O1720 2.421 . S
Tb1668 C1732 2.833 . S
C1669 C1672 1.432 . S
C1669 C1673 1.414 . S
C1669 N1676 1.359 . S
C1670 C1672 1.417 . S
C1670 C1674 1.432 . S
C1670 C1682 1.410 . S
C1671 C1673 1.444 . S
C1671 C1674 1.317 . S
C1671 H1694 0.929 . S
C1672 C1669 1.432 . S
C1672 C1670 1.417 . S
C1672 N1680 1.360 . S
C1673 C1669 1.414 . S
C1673 C1671 1.444 . S
C1673 C1678 1.385 . S
C1674 C1670 1.432 . S
C1674 C1671 1.317 . S
C1674 H1686 0.930 . S
C1675 C1677 1.392 . S
C1675 C1678 1.370 . S
C1675 H1687 0.931 . S
N1676 C1669 1.359 . S
N1676 C1677 1.327 . S
N1676 Tb1679 2.600 . S
C1677 C1675 1.392 . S
C1677 N1676 1.327 . S
C1677 H1684 0.930 . S
C1678 C1673 1.385 . S
C1678 C1675 1.370 . S
C1678 H1697 0.930 . S
Tb1679 N1676 2.600 . S
Tb1679 N1680 2.660 . S
Tb1679 O1713 2.362 . S
Tb1679 O1714 2.421 . S
Tb1679 O1718 2.546 . S
Tb1679 O1719 2.610 . S
Tb1679 O1721 2.320 . S
Tb1679 O1722 2.552 . S
Tb1679 O1723 2.413 . S
Tb1679 C1743 2.833 . S
N1680 C1672 1.360 . S
N1680 Tb1679 2.660 . S
N1680 C1681 1.305 . S
C1681 N1680 1.305 . S
C1681 C1683 1.407 . S
C1681 H1688 0.930 . S
C1682 C1670 1.410 . S
C1682 C1683 1.345 . S
C1682 H1690 0.930 . S
C1683 C1681 1.407 . S
C1683 C1682 1.345 . S
C1683 H1685 0.930 . S
H1684 C1677 0.930 . S
H1685 C1683 0.930 . S
H1686 C1674 0.930 . S
H1687 C1675 0.931 . S
H1688 C1681 0.930 . S
H1689 C1703 0.930 . S
H1690 C1682 0.930 . S
H1691 C1709 0.930 . S
H1692 C1700 0.930 . S
H1693 C1707 0.931 . S
H1694 C1671 0.929 . S
H1695 C1701 0.930 . S
H1696 C1734 0.930 . S
H1697 C1678 0.930 . S
H1698 C1733 0.929 . S
N1699 Tb1668 2.660 . S
N1699 C1700 1.305 . S
N1699 C1704 1.360 . S
C1700 H1692 0.930 . S
C1700 N1699 1.305 . S
C1700 C1703 1.407 . S
C1701 H1695 0.930 . S
C1701 C1702 1.410 . S
C1701 C1703 1.345 . S
C1702 C1701 1.410 . S
C1702 C1704 1.417 . S
C1702 C1734 1.432 . S
C1703 H1689 0.930 . S
C1703 C1700 1.407 . S
C1703 C1701 1.345 . S
C1704 N1699 1.360 . S
C1704 C1702 1.417 . S
C1704 C1708 1.432 . S
H1705 C1710 0.930 . S
N1706 Tb1668 2.600 . S
N1706 C1708 1.359 . S
N1706 C1709 1.327 . S
C1707 H1693 0.931 . S
C1707 C1709 1.392 . S
C1707 C1710 1.370 . S
C1708 C1704 1.432 . S
C1708 N1706 1.359 . S
C1708 C1711 1.414 . S
C1709 H1691 0.930 . S
C1709 N1706 1.327 . S
C1709 C1707 1.392 . S
C1710 H1705 0.930 . S
C1710 C1707 1.370 . S
C1710 C1711 1.385 . S
C1711 C1708 1.414 . S
C1711 C1710 1.385 . S
C1711 C1733 1.444 . S
O1712 Tb1668 2.546 . S
O1712 C1732 1.251 . S
O1713 Tb1668 2.610 . S
O1713 Tb1679 2.362 . S
O1713 C1724 1.283 . S
O1714 Tb1679 2.421 . S
O1714 C1731 1.262 . S
O1715 Tb1668 2.320 . S
O1715 C1731 1.260 . S
O1716 Tb1668 2.552 . S
O1716 C1724 1.243 . S
O1717 Tb1668 2.413 . S
O1717 C1732 1.256 . S
O1718 Tb1679 2.546 . S
O1718 C1743 1.251 . S
O1719 Tb1668 2.362 . S
O1719 Tb1679 2.610 . S
O1719 C1735 1.283 . S
O1720 Tb1668 2.421 . S
O1720 C1742 1.262 . S
O1721 Tb1679 2.320 . S
O1721 C1742 1.260 . S
O1722 Tb1679 2.552 . S
O1722 C1735 1.243 . S
O1723 Tb1679 2.413 . S
O1723 C1743 1.256 . S
C1724 O1713 1.283 . S
C1724 O1716 1.243 . S
C1725 C1727 1.382 . S
C1725 C1729 1.393 . S
C1725 C1732 1.500 . S
C1726 C1727 1.400 . S
C1726 C1728 1.384 . S
C1727 C1725 1.382 . S
C1727 C1726 1.400 . S
C1727 H1744 0.930 . S
C1728 C1726 1.384 . S
C1728 C1730 1.392 . S
C1728 H1745 0.931 . S
C1729 C1725 1.393 . S
C1729 C1730 1.401 . S
C1729 H1746 0.930 . S
C1730 C1728 1.392 . S
C1730 C1729 1.401 . S
C1730 H1747 0.930 . S
C1731 O1714 1.262 . S
C1731 O1715 1.260 . S
C1732 Tb1668 2.833 . S
C1732 O1712 1.251 . S
C1732 O1717 1.256 . S
C1732 C1725 1.500 . S
C1733 H1698 0.929 . S
C1733 C1711 1.444 . S
C1733 C1734 1.317 . S
C1734 H1696 0.930 . S
C1734 C1702 1.432 . S
C1734 C1733 1.317 . S
C1735 O1719 1.283 . S
C1735 O1722 1.243 . S
C1736 C1737 1.382 . S
C1736 C1740 1.393 . S
C1736 C1743 1.500 . S
C1737 C1736 1.382 . S
C1737 C1738 1.400 . S
C1737 H1748 0.930 . S
C1738 C1737 1.400 . S
C1738 C1739 1.384 . S
C1739 C1738 1.384 . S
C1739 C1741 1.392 . S
C1739 H1749 0.931 . S
C1740 C1736 1.393 . S
C1740 C1741 1.401 . S
C1740 H1750 0.930 . S
C1741 C1739 1.392 . S
C1741 C1740 1.401 . S
C1741 H1751 0.930 . S
C1742 O1720 1.262 . S
C1742 O1721 1.260 . S
C1743 Tb1679 2.833 . S
C1743 O1718 1.251 . S
C1743 O1723 1.256 . S
C1743 C1736 1.500 . S
H1744 C1727 0.930 . S
H1745 C1728 0.931 . S
H1746 C1729 0.930 . S
H1747 C1730 0.930 . S
H1748 C1737 0.930 . S
H1749 C1739 0.931 . S
H1750 C1740 0.930 . S
H1751 C1741 0.930 . S
Tb1752 N1783 2.660 . S
Tb1752 N1790 2.600 . S
Tb1752 O1796 2.546 . S
Tb1752 O1797 2.610 . S
Tb1752 O1799 2.320 . S
Tb1752 O1800 2.552 . S
Tb1752 O1801 2.413 . S
Tb1752 O1803 2.362 . S
Tb1752 O1804 2.421 . S
Tb1752 C1816 2.833 . S
C1753 C1756 1.432 . S
C1753 C1757 1.414 . S
C1753 N1760 1.359 . S
C1754 C1756 1.417 . S
C1754 C1758 1.432 . S
C1754 C1766 1.410 . S
C1755 C1757 1.444 . S
C1755 C1758 1.317 . S
C1755 H1778 0.929 . S
C1756 C1753 1.432 . S
C1756 C1754 1.417 . S
C1756 N1764 1.360 . S
C1757 C1753 1.414 . S
C1757 C1755 1.444 . S
C1757 C1762 1.385 . S
C1758 C1754 1.432 . S
C1758 C1755 1.317 . S
C1758 H1770 0.930 . S
C1759 C1761 1.392 . S
C1759 C1762 1.370 . S
C1759 H1771 0.931 . S
N1760 C1753 1.359 . S
N1760 C1761 1.327 . S
N1760 Tb1763 2.600 . S
C1761 C1759 1.392 . S
C1761 N1760 1.327 . S
C1761 H1768 0.930 . S
C1762 C1757 1.385 . S
C1762 C1759 1.370 . S
C1762 H1781 0.930 . S
Tb1763 N1760 2.600 . S
Tb1763 N1764 2.660 . S
Tb1763 O1797 2.362 . S
Tb1763 O1798 2.421 . S
Tb1763 O1802 2.546 . S
Tb1763 O1803 2.610 . S
Tb1763 O1805 2.320 . S
Tb1763 O1806 2.552 . S
Tb1763 O1807 2.413 . S
Tb1763 C1827 2.833 . S
N1764 C1756 1.360 . S
N1764 Tb1763 2.660 . S
N1764 C1765 1.305 . S
C1765 N1764 1.305 . S
C1765 C1767 1.407 . S
C1765 H1772 0.930 . S
C1766 C1754 1.410 . S
C1766 C1767 1.345 . S
C1766 H1774 0.930 . S
C1767 C1765 1.407 . S
C1767 C1766 1.345 . S
C1767 H1769 0.930 . S
H1768 C1761 0.930 . S
H1769 C1767 0.930 . S
H1770 C1758 0.930 . S
H1771 C1759 0.931 . S
H1772 C1765 0.930 . S
H1773 C1787 0.930 . S
H1774 C1766 0.930 . S
H1775 C1793 0.930 . S
H1776 C1784 0.930 . S
H1777 C1791 0.931 . S
H1778 C1755 0.929 . S
H1779 C1785 0.930 . S
H1780 C1818 0.930 . S
H1781 C1762 0.930 . S
H1782 C1817 0.929 . S
N1783 Tb1752 2.660 . S
N1783 C1784 1.305 . S
N1783 C1788 1.360 . S
C1784 H1776 0.930 . S
C1784 N1783 1.305 . S
C1784 C1787 1.407 . S
C1785 H1779 0.930 . S
C1785 C1786 1.410 . S
C1785 C1787 1.345 . S
C1786 C1785 1.410 . S
C1786 C1788 1.417 . S
C1786 C1818 1.432 . S
C1787 H1773 0.930 . S
C1787 C1784 1.407 . S
C1787 C1785 1.345 . S
C1788 N1783 1.360 . S
C1788 C1786 1.417 . S
C1788 C1792 1.432 . S
H1789 C1794 0.930 . S
N1790 Tb1752 2.600 . S
N1790 C1792 1.359 . S
N1790 C1793 1.327 . S
C1791 H1777 0.931 . S
C1791 C1793 1.392 . S
C1791 C1794 1.370 . S
C1792 C1788 1.432 . S
C1792 N1790 1.359 . S
C1792 C1795 1.414 . S
C1793 H1775 0.930 . S
C1793 N1790 1.327 . S
C1793 C1791 1.392 . S
C1794 H1789 0.930 . S
C1794 C1791 1.370 . S
C1794 C1795 1.385 . S
C1795 C1792 1.414 . S
C1795 C1794 1.385 . S
C1795 C1817 1.444 . S
O1796 Tb1752 2.546 . S
O1796 C1816 1.251 . S
O1797 Tb1752 2.610 . S
O1797 Tb1763 2.362 . S
O1797 C1808 1.283 . S
O1798 Tb1763 2.421 . S
O1798 C1815 1.262 . S
O1799 Tb1752 2.320 . S
O1799 C1815 1.260 . S
O1800 Tb1752 2.552 . S
O1800 C1808 1.243 . S
O1801 Tb1752 2.413 . S
O1801 C1816 1.256 . S
O1802 Tb1763 2.546 . S
O1802 C1827 1.251 . S
O1803 Tb1752 2.362 . S
O1803 Tb1763 2.610 . S
O1803 C1819 1.283 . S
O1804 Tb1752 2.421 . S
O1804 C1826 1.262 . S
O1805 Tb1763 2.320 . S
O1805 C1826 1.260 . S
O1806 Tb1763 2.552 . S
O1806 C1819 1.243 . S
O1807 Tb1763 2.413 . S
O1807 C1827 1.256 . S
C1808 O1797 1.283 . S
C1808 O1800 1.243 . S
C1809 C1811 1.382 . S
C1809 C1813 1.393 . S
C1809 C1816 1.500 . S
C1810 C1811 1.400 . S
C1810 C1812 1.384 . S
C1811 C1809 1.382 . S
C1811 C1810 1.400 . S
C1811 H1828 0.930 . S
C1812 C1810 1.384 . S
C1812 C1814 1.392 . S
C1812 H1829 0.931 . S
C1813 C1809 1.393 . S
C1813 C1814 1.401 . S
C1813 H1830 0.930 . S
C1814 C1812 1.392 . S
C1814 C1813 1.401 . S
C1814 H1831 0.930 . S
C1815 O1798 1.262 . S
C1815 O1799 1.260 . S
C1816 Tb1752 2.833 . S
C1816 O1796 1.251 . S
C1816 O1801 1.256 . S
C1816 C1809 1.500 . S
C1817 H1782 0.929 . S
C1817 C1795 1.444 . S
C1817 C1818 1.317 . S
C1818 H1780 0.930 . S
C1818 C1786 1.432 . S
C1818 C1817 1.317 . S
C1819 O1803 1.283 . S
C1819 O1806 1.243 . S
C1820 C1821 1.382 . S
C1820 C1824 1.393 . S
C1820 C1827 1.500 . S
C1821 C1820 1.382 . S
C1821 C1822 1.400 . S
C1821 H1832 0.930 . S
C1822 C1821 1.400 . S
C1822 C1823 1.384 . S
C1823 C1822 1.384 . S
C1823 C1825 1.392 . S
C1823 H1833 0.931 . S
C1824 C1820 1.393 . S
C1824 C1825 1.401 . S
C1824 H1834 0.930 . S
C1825 C1823 1.392 . S
C1825 C1824 1.401 . S
C1825 H1835 0.930 . S
C1826 O1804 1.262 . S
C1826 O1805 1.260 . S
C1827 Tb1763 2.833 . S
C1827 O1802 1.251 . S
C1827 O1807 1.256 . S
C1827 C1820 1.500 . S
H1828 C1811 0.930 . S
H1829 C1812 0.931 . S
H1830 C1813 0.930 . S
H1831 C1814 0.930 . S
H1832 C1821 0.930 . S
H1833 C1823 0.931 . S
H1834 C1824 0.930 . S
H1835 C1825 0.930 . S
H1836 C1844 0.950 . S
H1837 C1849 0.950 . S
H1838 C1846 0.950 . S
H1839 C1848 0.950 . S
H1840 C1850 0.925 1_556 S
H1841 C1852 0.950 . S
H1842 C1854 0.950 . S
H1843 C1855 0.950 . S
C1844 H1836 0.950 . S
C1844 C1845 1.386 . S
C1844 C1846 1.391 . S
C1845 C1844 1.386 . S
C1845 C1849 1.393 . S
C1846 H1838 0.950 . S
C1846 C1844 1.391 . S
C1846 C1847 1.400 . S
C1847 C1846 1.400 . S
C1847 C1848 1.398 . S
C1847 C1853 1.491 . S
C1848 H1839 0.950 . S
C1848 C1847 1.398 . S
C1848 C1849 1.391 . S
C1849 H1837 0.950 . S
C1849 C1845 1.393 . S
C1849 C1848 1.391 . S
C1850 H1840 0.925 1_554 S
C1850 C1851 1.386 . S
C1850 C1852 1.391 . S
C1851 C1850 1.386 . S
C1851 C1855 1.393 . S
C1852 H1841 0.950 . S
C1852 C1850 1.391 . S
C1852 C1853 1.400 . S
C1853 C1847 1.491 . S
C1853 C1852 1.400 . S
C1853 C1854 1.398 . S
C1854 H1842 0.950 . S
C1854 C1853 1.398 . S
C1854 C1855 1.391 . S
C1855 H1843 0.950 . S
C1855 C1851 1.393 . S
C1855 C1854 1.391 . S
H1856 C1864 0.950 . S
H1857 C1869 0.950 . S
H1858 C1866 0.950 . S
H1859 C1868 0.950 . S
H1860 C1870 0.950 . S
H1861 C1872 0.950 . S
H1862 C1874 0.950 . S
H1863 C1875 0.950 . S
C1864 H1856 0.950 . S
C1864 C1865 1.386 . S
C1864 C1866 1.391 . S
C1865 C1864 1.386 . S
C1865 C1869 1.393 . S
C1866 H1858 0.950 . S
C1866 C1864 1.391 . S
C1866 C1867 1.400 . S
C1867 C1866 1.400 . S
C1867 C1868 1.398 . S
C1867 C1873 1.491 . S
C1868 H1859 0.950 . S
C1868 C1867 1.398 . S
C1868 C1869 1.391 . S
C1869 H1857 0.950 . S
C1869 C1865 1.393 . S
C1869 C1868 1.391 . S
C1870 H1860 0.950 . S
C1870 C1871 1.386 . S
C1870 C1872 1.391 . S
C1871 C1870 1.386 . S
C1871 C1875 1.393 . S
C1872 H1861 0.950 . S
C1872 C1870 1.391 . S
C1872 C1873 1.400 . S
C1873 C1867 1.491 . S
C1873 C1872 1.400 . S
C1873 C1874 1.398 . S
C1874 H1862 0.950 . S
C1874 C1873 1.398 . S
C1874 C1875 1.391 . S
C1875 H1863 0.950 . S
C1875 C1871 1.393 . S
C1875 C1874 1.391 . S
H1876 C1884 0.950 . S
H1877 C1889 0.950 . S
H1878 C1886 0.950 . S
H1879 C1888 0.950 . S
H1880 C1890 0.950 . S
H1881 C1892 0.950 . S
H1882 C1894 0.950 . S
H1883 C1895 0.950 1_556 S
C1884 H1876 0.950 . S
C1884 C1885 1.386 . S
C1884 C1886 1.391 . S
C1885 C1884 1.386 . S
C1885 C1889 1.393 . S
C1886 H1878 0.950 . S
C1886 C1884 1.391 . S
C1886 C1887 1.400 . S
C1887 C1886 1.400 . S
C1887 C1888 1.398 . S
C1887 C1893 1.491 . S
C1888 H1879 0.950 . S
C1888 C1887 1.398 . S
C1888 C1889 1.391 . S
C1889 H1877 0.950 . S
C1889 C1885 1.393 . S
C1889 C1888 1.391 . S
C1890 H1880 0.950 . S
C1890 C1891 1.386 . S
C1890 C1892 1.391 . S
C1891 C1890 1.386 . S
C1891 C1895 1.393 . S
C1892 H1881 0.950 . S
C1892 C1890 1.391 . S
C1892 C1893 1.400 . S
C1893 C1887 1.491 . S
C1893 C1892 1.400 . S
C1893 C1894 1.398 . S
C1894 H1882 0.950 . S
C1894 C1893 1.398 . S
C1894 C1895 1.391 . S
C1895 H1883 0.950 1_554 S
C1895 C1891 1.393 . S
C1895 C1894 1.391 . S
H1896 C1904 0.950 . S
H1897 C1909 0.950 . S
H1898 C1906 0.950 . S
H1899 C1908 0.950 . S
H1900 C1910 0.950 . S
H1901 C1912 0.950 . S
H1902 C1914 0.950 . S
H1903 C1915 0.950 . S
C1904 H1896 0.950 . S
C1904 C1905 1.386 . S
C1904 C1906 1.391 . S
C1905 C1904 1.386 . S
C1905 C1909 1.393 . S
C1906 H1898 0.950 . S
C1906 C1904 1.391 . S
C1906 C1907 1.400 . S
C1907 C1906 1.400 . S
C1907 C1908 1.398 . S
C1907 C1913 1.491 . S
C1908 H1899 0.950 . S
C1908 C1907 1.398 . S
C1908 C1909 1.391 . S
C1909 H1897 0.950 . S
C1909 C1905 1.393 . S
C1909 C1908 1.391 . S
C1910 H1900 0.950 . S
C1910 C1911 1.386 . S
C1910 C1912 1.391 . S
C1911 C1910 1.386 . S
C1911 C1915 1.393 . S
C1912 H1901 0.950 . S
C1912 C1910 1.391 . S
C1912 C1913 1.400 . S
C1913 C1907 1.491 . S
C1913 C1912 1.400 . S
C1913 C1914 1.398 . S
C1914 H1902 0.950 . S
C1914 C1913 1.398 . S
C1914 C1915 1.391 . S
C1915 H1903 0.950 . S
C1915 C1911 1.393 . S
C1915 C1914 1.391 . S
H1916 C1924 0.950 . S
H1917 C1929 0.950 . S
H1918 C1926 0.950 . S
H1919 C1928 0.950 . S
H1920 C1930 0.950 . S
H1921 C1932 0.950 . S
H1922 C1934 0.950 . S
H1923 C1935 0.950 1_554 S
C1924 H1916 0.950 . S
C1924 C1925 1.386 . S
C1924 C1926 1.391 . S
C1925 C1924 1.386 . S
C1925 C1929 1.393 . S
C1926 H1918 0.950 . S
C1926 C1924 1.391 . S
C1926 C1927 1.400 . S
C1927 C1926 1.400 . S
C1927 C1928 1.398 . S
C1927 C1933 1.491 . S
C1928 H1919 0.950 . S
C1928 C1927 1.398 . S
C1928 C1929 1.391 . S
C1929 H1917 0.950 . S
C1929 C1925 1.393 . S
C1929 C1928 1.391 . S
C1930 H1920 0.950 . S
C1930 C1931 1.386 . S
C1930 C1932 1.391 . S
C1931 C1930 1.386 . S
C1931 C1935 1.393 . S
C1932 H1921 0.950 . S
C1932 C1930 1.391 . S
C1932 C1933 1.400 . S
C1933 C1927 1.491 . S
C1933 C1932 1.400 . S
C1933 C1934 1.398 . S
C1934 H1922 0.950 . S
C1934 C1933 1.398 . S
C1934 C1935 1.391 . S
C1935 H1923 0.950 1_556 S
C1935 C1931 1.393 . S
C1935 C1934 1.391 . S
H1936 C1944 0.950 . S
H1937 C1949 0.950 . S
H1938 C1946 0.950 . S
H1939 C1948 0.950 . S
H1940 C1950 0.950 . S
H1941 C1952 0.950 . S
H1942 C1954 0.950 . S
H1943 C1955 0.950 . S
C1944 H1936 0.950 . S
C1944 C1945 1.386 . S
C1944 C1946 1.391 . S
C1945 C1944 1.386 . S
C1945 C1949 1.393 . S
C1946 H1938 0.950 . S
C1946 C1944 1.391 . S
C1946 C1947 1.400 . S
C1947 C1946 1.400 . S
C1947 C1948 1.398 . S
C1947 C1953 1.491 . S
C1948 H1939 0.950 . S
C1948 C1947 1.398 . S
C1948 C1949 1.391 . S
C1949 H1937 0.950 . S
C1949 C1945 1.393 . S
C1949 C1948 1.391 . S
C1950 H1940 0.950 . S
C1950 C1951 1.386 . S
C1950 C1952 1.391 . S
C1951 C1950 1.386 . S
C1951 C1955 1.393 . S
C1952 H1941 0.950 . S
C1952 C1950 1.391 . S
C1952 C1953 1.400 . S
C1953 C1947 1.491 . S
C1953 C1952 1.400 . S
C1953 C1954 1.398 . S
C1954 H1942 0.950 . S
C1954 C1953 1.398 . S
C1954 C1955 1.391 . S
C1955 H1943 0.950 . S
C1955 C1951 1.393 . S
C1955 C1954 1.391 . S
H1956 C1964 0.950 . S
H1957 C1969 0.950 . S
H1958 C1966 0.950 . S
H1959 C1968 0.950 . S
H1960 C1970 0.950 1_554 S
H1961 C1972 0.950 . S
H1962 C1974 0.950 . S
H1963 C1975 0.950 . S
C1964 H1956 0.950 . S
C1964 C1965 1.386 . S
C1964 C1966 1.391 . S
C1965 C1964 1.386 . S
C1965 C1969 1.393 . S
C1966 H1958 0.950 . S
C1966 C1964 1.391 . S
C1966 C1967 1.400 . S
C1967 C1966 1.400 . S
C1967 C1968 1.398 . S
C1967 C1973 1.491 . S
C1968 H1959 0.950 . S
C1968 C1967 1.398 . S
C1968 C1969 1.391 . S
C1969 H1957 0.950 . S
C1969 C1965 1.393 . S
C1969 C1968 1.391 . S
C1970 H1960 0.950 1_556 S
C1970 C1971 1.386 . S
C1970 C1972 1.391 . S
C1971 C1970 1.386 . S
C1971 C1975 1.393 . S
C1972 H1961 0.950 . S
C1972 C1970 1.391 . S
C1972 C1973 1.400 . S
C1973 C1967 1.491 . S
C1973 C1972 1.400 . S
C1973 C1974 1.398 . S
C1974 H1962 0.950 . S
C1974 C1973 1.398 . S
C1974 C1975 1.391 . S
C1975 H1963 0.950 . S
C1975 C1971 1.393 . S
C1975 C1974 1.391 . S
H1976 C1984 0.950 . S
H1977 C1989 0.950 . S
H1978 C1986 0.950 . S
H1979 C1988 0.950 . S
H1980 C1990 0.950 1_554 S
H1981 C1992 0.950 . S
H1982 C1994 0.950 . S
H1983 C1995 0.950 . S
C1984 H1976 0.950 . S
C1984 C1985 1.386 . S
C1984 C1986 1.391 . S
C1985 C1984 1.386 . S
C1985 C1989 1.393 . S
C1986 H1978 0.950 . S
C1986 C1984 1.391 . S
C1986 C1987 1.400 . S
C1987 C1986 1.400 . S
C1987 C1988 1.398 . S
C1987 C1993 1.491 . S
C1988 H1979 0.950 . S
C1988 C1987 1.398 . S
C1988 C1989 1.391 . S
C1989 H1977 0.950 . S
C1989 C1985 1.393 . S
C1989 C1988 1.391 . S
C1990 H1980 0.950 1_556 S
C1990 C1991 1.386 . S
C1990 C1992 1.391 . S
C1991 C1990 1.386 . S
C1991 C1995 1.393 . S
C1992 H1981 0.950 . S
C1992 C1990 1.391 . S
C1992 C1993 1.400 . S
C1993 C1987 1.491 . S
C1993 C1992 1.400 . S
C1993 C1994 1.398 . S
C1994 H1982 0.950 . S
C1994 C1993 1.398 . S
C1994 C1995 1.391 . S
C1995 H1983 0.950 . S
C1995 C1991 1.393 . S
C1995 C1994 1.391 . S
H1996 C2004 0.950 . S
H1997 C2009 0.950 . S
H1998 C2006 0.950 . S
H1999 C2008 0.950 . S
H2000 C2010 0.950 . S
H2001 C2012 0.950 . S
H2002 C2014 0.950 . S
H2003 C2015 0.950 . S
C2004 H1996 0.950 . S
C2004 C2005 1.386 . S
C2004 C2006 1.391 . S
C2005 C2004 1.386 . S
C2005 C2009 1.393 . S
C2006 H1998 0.950 . S
C2006 C2004 1.391 . S
C2006 C2007 1.400 . S
C2007 C2006 1.400 . S
C2007 C2008 1.398 . S
C2007 C2013 1.491 . S
C2008 H1999 0.950 . S
C2008 C2007 1.398 . S
C2008 C2009 1.391 . S
C2009 H1997 0.950 . S
C2009 C2005 1.393 . S
C2009 C2008 1.391 . S
C2010 H2000 0.950 . S
C2010 C2011 1.386 . S
C2010 C2012 1.391 . S
C2011 C2010 1.386 . S
C2011 C2015 1.393 . S
C2012 H2001 0.950 . S
C2012 C2010 1.391 . S
C2012 C2013 1.400 . S
C2013 C2007 1.491 . S
C2013 C2012 1.400 . S
C2013 C2014 1.398 . S
C2014 H2002 0.950 . S
C2014 C2013 1.398 . S
C2014 C2015 1.391 . S
C2015 H2003 0.950 . S
C2015 C2011 1.393 . S
C2015 C2014 1.391 . S
H2016 C2024 0.950 . S
H2017 C2029 0.950 . S
H2018 C2026 0.950 . S
H2019 C2028 0.950 . S
H2020 C2030 0.950 . S
H2021 C2032 0.950 . S
H2022 C2034 0.950 . S
H2023 C2035 0.950 1_556 S
C2024 H2016 0.950 . S
C2024 C2025 1.386 . S
C2024 C2026 1.391 . S
C2025 C2024 1.386 . S
C2025 C2029 1.393 . S
C2026 H2018 0.950 . S
C2026 C2024 1.391 . S
C2026 C2027 1.400 . S
C2027 C2026 1.400 . S
C2027 C2028 1.398 . S
C2027 C2033 1.491 . S
C2028 H2019 0.950 . S
C2028 C2027 1.398 . S
C2028 C2029 1.391 . S
C2029 H2017 0.950 . S
C2029 C2025 1.393 . S
C2029 C2028 1.391 . S
C2030 H2020 0.950 . S
C2030 C2031 1.386 . S
C2030 C2032 1.391 . S
C2031 C2030 1.386 . S
C2031 C2035 1.393 . S
C2032 H2021 0.950 . S
C2032 C2030 1.391 . S
C2032 C2033 1.400 . S
C2033 C2027 1.491 . S
C2033 C2032 1.400 . S
C2033 C2034 1.398 . S
C2034 H2022 0.950 . S
C2034 C2033 1.398 . S
C2034 C2035 1.391 . S
C2035 H2023 0.950 1_554 S
C2035 C2031 1.393 . S
C2035 C2034 1.391 . S
H2036 C2044 0.950 . S
H2037 C2049 0.950 . S
H2038 C2046 0.950 . S
H2039 C2048 0.950 . S
H2040 C2050 0.950 . S
H2041 C2052 0.950 . S
H2042 C2054 0.950 . S
H2043 C2055 0.950 . S
C2044 H2036 0.950 . S
C2044 C2045 1.386 . S
C2044 C2046 1.391 . S
C2045 C2044 1.386 . S
C2045 C2049 1.393 . S
C2046 H2038 0.950 . S
C2046 C2044 1.391 . S
C2046 C2047 1.400 . S
C2047 C2046 1.400 . S
C2047 C2048 1.398 . S
C2047 C2053 1.491 . S
C2048 H2039 0.950 . S
C2048 C2047 1.398 . S
C2048 C2049 1.391 . S
C2049 H2037 0.950 . S
C2049 C2045 1.393 . S
C2049 C2048 1.391 . S
C2050 H2040 0.950 . S
C2050 C2051 1.386 . S
C2050 C2052 1.391 . S
C2051 C2050 1.386 . S
C2051 C2055 1.393 . S
C2052 H2041 0.950 . S
C2052 C2050 1.391 . S
C2052 C2053 1.400 . S
C2053 C2047 1.491 . S
C2053 C2052 1.400 . S
C2053 C2054 1.398 . S
C2054 H2042 0.950 . S
C2054 C2053 1.398 . S
C2054 C2055 1.391 . S
C2055 H2043 0.950 . S
C2055 C2051 1.393 . S
C2055 C2054 1.391 . S
H2056 C2064 0.950 . S
H2057 C2069 0.950 . S
H2058 C2066 0.950 . S
H2059 C2068 0.950 . S
H2060 C2070 0.950 . S
H2061 C2072 0.950 . S
H2062 C2074 0.950 . S
H2063 C2075 0.950 . S
C2064 H2056 0.950 . S
C2064 C2065 1.386 . S
C2064 C2066 1.391 . S
C2065 C2064 1.386 . S
C2065 C2069 1.393 . S
C2066 H2058 0.950 . S
C2066 C2064 1.391 . S
C2066 C2067 1.400 . S
C2067 C2066 1.400 . S
C2067 C2068 1.398 . S
C2067 C2073 1.491 . S
C2068 H2059 0.950 . S
C2068 C2067 1.398 . S
C2068 C2069 1.391 . S
C2069 H2057 0.950 . S
C2069 C2065 1.393 . S
C2069 C2068 1.391 . S
C2070 H2060 0.950 . S
C2070 C2071 1.386 . S
C2070 C2072 1.391 . S
C2071 C2070 1.386 . S
C2071 C2075 1.393 . S
C2072 H2061 0.950 . S
C2072 C2070 1.391 . S
C2072 C2073 1.400 . S
C2073 C2067 1.491 . S
C2073 C2072 1.400 . S
C2073 C2074 1.398 . S
C2074 H2062 0.950 . S
C2074 C2073 1.398 . S
C2074 C2075 1.391 . S
C2075 H2063 0.950 . S
C2075 C2071 1.393 . S
C2075 C2074 1.391 . S
H2076 C2084 0.950 . S
H2077 C2089 0.950 1_655 S
H2078 C2086 0.950 . S
H2079 C2088 0.950 . S
H2080 C2090 0.950 . S
H2081 C2092 0.950 . S
H2082 C2094 0.950 . S
H2083 C2095 0.950 . S
C2084 H2076 0.950 . S
C2084 C2085 1.386 . S
C2084 C2086 1.391 1_655 S
C2085 C2084 1.386 . S
C2085 C2089 1.393 1_655 S
C2086 H2078 0.950 . S
C2086 C2084 1.391 1_455 S
C2086 C2087 1.400 . S
C2087 C2086 1.400 . S
C2087 C2088 1.398 . S
C2087 C2093 1.491 . S
C2088 H2079 0.950 . S
C2088 C2087 1.398 . S
C2088 C2089 1.391 . S
C2089 H2077 0.950 1_455 S
C2089 C2085 1.393 1_455 S
C2089 C2088 1.391 . S
C2090 H2080 0.950 . S
C2090 C2091 1.386 . S
C2090 C2092 1.391 . S
C2091 C2090 1.386 . S
C2091 C2095 1.393 . S
C2092 H2081 0.950 . S
C2092 C2090 1.391 . S
C2092 C2093 1.400 . S
C2093 C2087 1.491 . S
C2093 C2092 1.400 . S
C2093 C2094 1.398 . S
C2094 H2082 0.950 . S
C2094 C2093 1.398 . S
C2094 C2095 1.391 . S
C2095 H2083 0.950 . S
C2095 C2091 1.393 . S
C2095 C2094 1.391 . S
H2096 C2104 0.950 . S
H2097 C2109 0.950 . S
H2098 C2106 0.950 . S
H2099 C2108 0.950 . S
H2100 C2110 0.950 . S
H2101 C2112 0.950 . S
H2102 C2114 0.950 . S
H2103 C2115 0.950 . S
C2104 H2096 0.950 . S
C2104 C2105 1.386 . S
C2104 C2106 1.391 . S
C2105 C2104 1.386 . S
C2105 C2109 1.393 . S
C2106 H2098 0.950 . S
C2106 C2104 1.391 . S
C2106 C2107 1.400 . S
C2107 C2106 1.400 . S
C2107 C2108 1.398 . S
C2107 C2113 1.491 . S
C2108 H2099 0.950 . S
C2108 C2107 1.398 . S
C2108 C2109 1.391 . S
C2109 H2097 0.950 . S
C2109 C2105 1.393 . S
C2109 C2108 1.391 . S
C2110 H2100 0.950 . S
C2110 C2111 1.386 . S
C2110 C2112 1.391 . S
C2111 C2110 1.386 . S
C2111 C2115 1.393 . S
C2112 H2101 0.950 . S
C2112 C2110 1.391 . S
C2112 C2113 1.400 . S
C2113 C2107 1.491 . S
C2113 C2112 1.400 . S
C2113 C2114 1.398 . S
C2114 H2102 0.950 . S
C2114 C2113 1.398 . S
C2114 C2115 1.391 . S
C2115 H2103 0.950 . S
C2115 C2111 1.393 . S
C2115 C2114 1.391 . S
H2116 C2124 0.950 . S
H2117 C2129 0.950 . S
H2118 C2126 0.950 . S
H2119 C2128 0.950 . S
H2120 C2130 0.950 . S
H2121 C2132 0.950 . S
H2122 C2134 0.950 . S
H2123 C2135 0.950 . S
C2124 H2116 0.950 . S
C2124 C2125 1.386 . S
C2124 C2126 1.391 1_545 S
C2125 C2124 1.386 . S
C2125 C2129 1.393 . S
C2126 H2118 0.950 . S
C2126 C2124 1.391 1_565 S
C2126 C2127 1.400 . S
C2127 C2126 1.400 . S
C2127 C2128 1.398 . S
C2127 C2133 1.491 . S
C2128 H2119 0.950 . S
C2128 C2127 1.398 . S
C2128 C2129 1.391 1_565 S
C2129 H2117 0.950 . S
C2129 C2125 1.393 . S
C2129 C2128 1.391 1_545 S
C2130 H2120 0.950 . S
C2130 C2131 1.386 . S
C2130 C2132 1.391 . S
C2131 C2130 1.386 . S
C2131 C2135 1.393 . S
C2132 H2121 0.950 . S
C2132 C2130 1.391 . S
C2132 C2133 1.400 . S
C2133 C2127 1.491 . S
C2133 C2132 1.400 . S
C2133 C2134 1.398 . S
C2134 H2122 0.950 . S
C2134 C2133 1.398 . S
C2134 C2135 1.391 . S
C2135 H2123 0.950 . S
C2135 C2131 1.393 . S
C2135 C2134 1.391 . S
H2136 C2144 0.950 . S
H2137 C2149 0.950 . S
H2138 C2146 0.950 . S
H2139 C2148 0.950 . S
H2140 C2150 0.950 . S
H2141 C2152 0.950 . S
H2142 C2154 0.950 . S
H2143 C2155 0.950 . S
C2144 H2136 0.950 . S
C2144 C2145 1.386 . S
C2144 C2146 1.391 . S
C2145 C2144 1.386 . S
C2145 C2149 1.393 . S
C2146 H2138 0.950 . S
C2146 C2144 1.391 . S
C2146 C2147 1.400 . S
C2147 C2146 1.400 . S
C2147 C2148 1.398 . S
C2147 C2153 1.491 . S
C2148 H2139 0.950 . S
C2148 C2147 1.398 . S
C2148 C2149 1.391 . S
C2149 H2137 0.950 . S
C2149 C2145 1.393 . S
C2149 C2148 1.391 . S
C2150 H2140 0.950 . S
C2150 C2151 1.386 . S
C2150 C2152 1.391 . S
C2151 C2150 1.386 . S
C2151 C2155 1.393 . S
C2152 H2141 0.950 . S
C2152 C2150 1.391 . S
C2152 C2153 1.400 . S
C2153 C2147 1.491 . S
C2153 C2152 1.400 . S
C2153 C2154 1.398 . S
C2154 H2142 0.950 . S
C2154 C2153 1.398 . S
C2154 C2155 1.391 . S
C2155 H2143 0.950 . S
C2155 C2151 1.393 . S
C2155 C2154 1.391 . S
H2156 C2164 0.950 . S
H2157 C2169 0.950 . S
H2158 C2166 0.950 . S
H2159 C2168 0.950 . S
H2160 C2170 0.950 . S
H2161 C2172 0.950 . S
H2162 C2174 0.950 . S
H2163 C2175 0.950 . S
C2164 H2156 0.950 . S
C2164 C2165 1.386 . S
C2164 C2166 1.391 . S
C2165 C2164 1.386 . S
C2165 C2169 1.393 . S
C2166 H2158 0.950 . S
C2166 C2164 1.391 . S
C2166 C2167 1.400 . S
C2167 C2166 1.400 . S
C2167 C2168 1.398 . S
C2167 C2173 1.491 . S
C2168 H2159 0.950 . S
C2168 C2167 1.398 . S
C2168 C2169 1.391 . S
C2169 H2157 0.950 . S
C2169 C2165 1.393 . S
C2169 C2168 1.391 . S
C2170 H2160 0.950 . S
C2170 C2171 1.386 . S
C2170 C2172 1.391 . S
C2171 C2170 1.386 . S
C2171 C2175 1.393 . S
C2172 H2161 0.950 . S
C2172 C2170 1.391 . S
C2172 C2173 1.400 . S
C2173 C2167 1.491 . S
C2173 C2172 1.400 . S
C2173 C2174 1.398 . S
C2174 H2162 0.950 . S
C2174 C2173 1.398 . S
C2174 C2175 1.391 . S
C2175 H2163 0.950 . S
C2175 C2171 1.393 . S
C2175 C2174 1.391 . S
H2176 C2184 0.950 . S
H2177 C2189 0.950 . S
H2178 C2186 0.950 . S
H2179 C2188 0.950 . S
H2180 C2190 0.950 . S
H2181 C2192 0.950 . S
H2182 C2194 0.950 . S
H2183 C2195 0.950 . S
C2184 H2176 0.950 . S
C2184 C2185 1.386 . S
C2184 C2186 1.391 . S
C2185 C2184 1.386 . S
C2185 C2189 1.393 . S
C2186 H2178 0.950 . S
C2186 C2184 1.391 . S
C2186 C2187 1.400 . S
C2187 C2186 1.400 . S
C2187 C2188 1.398 . S
C2187 C2193 1.491 . S
C2188 H2179 0.950 . S
C2188 C2187 1.398 . S
C2188 C2189 1.391 . S
C2189 H2177 0.950 . S
C2189 C2185 1.393 . S
C2189 C2188 1.391 . S
C2190 H2180 0.950 . S
C2190 C2191 1.386 . S
C2190 C2192 1.391 . S
C2191 C2190 1.386 . S
C2191 C2195 1.393 . S
C2192 H2181 0.950 . S
C2192 C2190 1.391 . S
C2192 C2193 1.400 . S
C2193 C2187 1.491 . S
C2193 C2192 1.400 . S
C2193 C2194 1.398 . S
C2194 H2182 0.950 . S
C2194 C2193 1.398 . S
C2194 C2195 1.391 . S
C2195 H2183 0.950 . S
C2195 C2191 1.393 . S
C2195 C2194 1.391 . S
H2196 C2204 0.950 . S
H2197 C2209 0.950 . S
H2198 C2206 0.950 . S
H2199 C2208 0.950 . S
H2200 C2210 0.950 . S
H2201 C2212 0.950 . S
H2202 C2214 0.950 . S
H2203 C2215 0.950 . S
C2204 H2196 0.950 . S
C2204 C2205 1.386 . S
C2204 C2206 1.391 . S
C2205 C2204 1.386 . S
C2205 C2209 1.393 . S
C2206 H2198 0.950 . S
C2206 C2204 1.391 . S
C2206 C2207 1.400 . S
C2207 C2206 1.400 . S
C2207 C2208 1.398 . S
C2207 C2213 1.491 . S
C2208 H2199 0.950 . S
C2208 C2207 1.398 . S
C2208 C2209 1.391 . S
C2209 H2197 0.950 . S
C2209 C2205 1.393 . S
C2209 C2208 1.391 . S
C2210 H2200 0.950 . S
C2210 C2211 1.386 . S
C2210 C2212 1.391 . S
C2211 C2210 1.386 . S
C2211 C2215 1.393 . S
C2212 H2201 0.950 . S
C2212 C2210 1.391 . S
C2212 C2213 1.400 . S
C2213 C2207 1.491 . S
C2213 C2212 1.400 . S
C2213 C2214 1.398 . S
C2214 H2202 0.950 . S
C2214 C2213 1.398 . S
C2214 C2215 1.391 . S
C2215 H2203 0.950 . S
C2215 C2211 1.393 . S
C2215 C2214 1.391 . S
H2216 C2224 0.950 . S
H2217 C2229 0.950 . S
H2218 C2226 0.950 . S
H2219 C2228 0.950 . S
H2220 C2230 0.950 . S
H2221 C2232 0.950 . S
H2222 C2234 0.950 . S
H2223 C2235 0.950 . S
C2224 H2216 0.950 . S
C2224 C2225 1.386 . S
C2224 C2226 1.391 . S
C2225 C2224 1.386 . S
C2225 C2229 1.393 . S
C2226 H2218 0.950 . S
C2226 C2224 1.391 . S
C2226 C2227 1.400 . S
C2227 C2226 1.400 . S
C2227 C2228 1.398 . S
C2227 C2233 1.491 . S
C2228 H2219 0.950 . S
C2228 C2227 1.398 . S
C2228 C2229 1.391 . S
C2229 H2217 0.950 . S
C2229 C2225 1.393 . S
C2229 C2228 1.391 . S
C2230 H2220 0.950 . S
C2230 C2231 1.386 . S
C2230 C2232 1.391 . S
C2231 C2230 1.386 . S
C2231 C2235 1.393 . S
C2232 H2221 0.950 . S
C2232 C2230 1.391 . S
C2232 C2233 1.400 . S
C2233 C2227 1.491 . S
C2233 C2232 1.400 . S
C2233 C2234 1.398 . S
C2234 H2222 0.950 . S
C2234 C2233 1.398 . S
C2234 C2235 1.391 . S
C2235 H2223 0.950 . S
C2235 C2231 1.393 . S
C2235 C2234 1.391 . S
H2236 C2244 0.950 . S
H2237 C2249 0.950 . S
H2238 C2246 0.950 . S
H2239 C2248 0.950 . S
H2240 C2250 0.950 . S
H2241 C2252 0.950 . S
H2242 C2254 0.950 . S
H2243 C2255 0.950 . S
C2244 H2236 0.950 . S
C2244 C2245 1.386 . S
C2244 C2246 1.391 . S
C2245 C2244 1.386 . S
C2245 C2249 1.393 . S
C2246 H2238 0.950 . S
C2246 C2244 1.391 . S
C2246 C2247 1.400 . S
C2247 C2246 1.400 . S
C2247 C2248 1.398 . S
C2247 C2253 1.491 . S
C2248 H2239 0.950 . S
C2248 C2247 1.398 . S
C2248 C2249 1.391 . S
C2249 H2237 0.950 . S
C2249 C2245 1.393 . S
C2249 C2248 1.391 . S
C2250 H2240 0.950 . S
C2250 C2251 1.386 . S
C2250 C2252 1.391 . S
C2251 C2250 1.386 . S
C2251 C2255 1.393 . S
C2252 H2241 0.950 . S
C2252 C2250 1.391 . S
C2252 C2253 1.400 . S
C2253 C2247 1.491 . S
C2253 C2252 1.400 . S
C2253 C2254 1.398 . S
C2254 H2242 0.950 . S
C2254 C2253 1.398 . S
C2254 C2255 1.391 . S
C2255 H2243 0.950 . S
C2255 C2251 1.393 . S
C2255 C2254 1.391 . S
H2256 C2264 0.950 . S
H2257 C2269 0.978 . S
H2258 C2266 0.950 . S
H2259 C2268 0.950 . S
H2260 C2270 0.950 . S
H2261 C2272 0.950 . S
H2262 C2274 0.950 . S
H2263 C2275 0.950 . S
C2264 H2256 0.950 . S
C2264 C2265 1.386 . S
C2264 C2266 1.391 1_545 S
C2265 C2264 1.386 . S
C2265 C2269 1.404 . S
C2266 H2258 0.950 . S
C2266 C2264 1.391 1_565 S
C2266 C2267 1.400 . S
C2267 C2266 1.400 . S
C2267 C2268 1.398 . S
C2267 C2273 1.491 . S
C2268 H2259 0.950 . S
C2268 C2267 1.398 . S
C2268 C2269 1.354 1_565 S
C2269 H2257 0.978 . S
C2269 C2265 1.404 . S
C2269 C2268 1.354 1_545 S
C2270 H2260 0.950 . S
C2270 C2271 1.386 . S
C2270 C2272 1.391 . S
C2271 C2270 1.386 . S
C2271 C2275 1.393 . S
C2272 H2261 0.950 . S
C2272 C2270 1.391 . S
C2272 C2273 1.400 . S
C2273 C2267 1.491 . S
C2273 C2272 1.400 . S
C2273 C2274 1.398 . S
C2274 H2262 0.950 . S
C2274 C2273 1.398 . S
C2274 C2275 1.391 . S
C2275 H2263 0.950 . S
C2275 C2271 1.393 . S
C2275 C2274 1.391 . S
H2276 C2284 0.950 . S
H2277 C2289 0.950 . S
H2278 C2286 0.950 . S
H2279 C2288 0.950 . S
H2280 C2290 0.950 . S
H2281 C2292 0.950 . S
H2282 C2294 0.950 . S
H2283 C2295 0.950 . S
C2284 H2276 0.950 . S
C2284 C2285 1.386 1_455 S
C2284 C2286 1.391 . S
C2285 C2284 1.386 1_655 S
C2285 C2289 1.393 . S
C2286 H2278 0.950 . S
C2286 C2284 1.391 . S
C2286 C2287 1.400 . S
C2287 C2286 1.400 . S
C2287 C2288 1.398 . S
C2287 C2293 1.491 . S
C2288 H2279 0.950 . S
C2288 C2287 1.398 . S
C2288 C2289 1.391 1_455 S
C2289 H2277 0.950 . S
C2289 C2285 1.393 . S
C2289 C2288 1.391 1_655 S
C2290 H2280 0.950 . S
C2290 C2291 1.386 . S
C2290 C2292 1.391 . S
C2291 C2290 1.386 . S
C2291 C2295 1.393 . S
C2292 H2281 0.950 . S
C2292 C2290 1.391 . S
C2292 C2293 1.400 . S
C2293 C2287 1.491 . S
C2293 C2292 1.400 . S
C2293 C2294 1.398 . S
C2294 H2282 0.950 . S
C2294 C2293 1.398 . S
C2294 C2295 1.391 . S
C2295 H2283 0.950 . S
C2295 C2291 1.393 . S
C2295 C2294 1.391 . S
H2296 C2304 0.950 . S
H2297 C2309 0.950 . S
H2298 C2306 0.950 . S
H2299 C2308 0.950 . S
H2300 C2310 0.950 . S
H2301 C2312 0.950 . S
H2302 C2314 0.950 . S
H2303 C2315 0.950 . S
C2304 H2296 0.950 . S
C2304 C2305 1.386 . S
C2304 C2306 1.391 . S
C2305 C2304 1.386 . S
C2305 C2309 1.393 . S
C2306 H2298 0.950 . S
C2306 C2304 1.391 . S
C2306 C2307 1.400 . S
C2307 C2306 1.400 . S
C2307 C2308 1.398 . S
C2307 C2313 1.491 . S
C2308 H2299 0.950 . S
C2308 C2307 1.398 . S
C2308 C2309 1.391 . S
C2309 H2297 0.950 . S
C2309 C2305 1.393 . S
C2309 C2308 1.391 . S
C2310 H2300 0.950 . S
C2310 C2311 1.386 . S
C2310 C2312 1.391 . S
C2311 C2310 1.386 . S
C2311 C2315 1.393 . S
C2312 H2301 0.950 . S
C2312 C2310 1.391 . S
C2312 C2313 1.400 . S
C2313 C2307 1.491 . S
C2313 C2312 1.400 . S
C2313 C2314 1.398 . S
C2314 H2302 0.950 . S
C2314 C2313 1.398 . S
C2314 C2315 1.391 . S
C2315 H2303 0.950 . S
C2315 C2311 1.393 . S
C2315 C2314 1.391 . S
H2316 C2324 0.950 . S
H2317 C2329 0.950 . S
H2318 C2326 0.950 . S
H2319 C2328 0.950 . S
H2320 C2330 0.950 . S
H2321 C2332 0.950 . S
H2322 C2334 0.950 . S
H2323 C2335 0.950 . S
C2324 H2316 0.950 . S
C2324 C2325 1.386 . S
C2324 C2326 1.391 . S
C2325 C2324 1.386 . S
C2325 C2329 1.393 . S
C2326 H2318 0.950 . S
C2326 C2324 1.391 . S
C2326 C2327 1.400 . S
C2327 C2326 1.400 . S
C2327 C2328 1.398 . S
C2327 C2333 1.491 . S
C2328 H2319 0.950 . S
C2328 C2327 1.398 . S
C2328 C2329 1.391 . S
C2329 H2317 0.950 . S
C2329 C2325 1.393 . S
C2329 C2328 1.391 . S
C2330 H2320 0.950 . S
C2330 C2331 1.386 . S
C2330 C2332 1.391 . S
C2331 C2330 1.386 . S
C2331 C2335 1.393 . S
C2332 H2321 0.950 . S
C2332 C2330 1.391 . S
C2332 C2333 1.400 . S
C2333 C2327 1.491 . S
C2333 C2332 1.400 . S
C2333 C2334 1.398 . S
C2334 H2322 0.950 . S
C2334 C2333 1.398 . S
C2334 C2335 1.391 . S
C2335 H2323 0.950 . S
C2335 C2331 1.393 . S
C2335 C2334 1.391 . S
H2336 C2344 0.950 . S
H2337 C2349 0.950 . S
H2338 C2346 0.950 . S
H2339 C2348 0.950 . S
H2340 C2350 0.950 . S
H2341 C2352 0.950 . S
H2342 C2354 0.950 . S
H2343 C2355 0.950 . S
C2344 H2336 0.950 . S
C2344 C2345 1.386 . S
C2344 C2346 1.391 . S
C2345 C2344 1.386 . S
C2345 C2349 1.393 . S
C2346 H2338 0.950 . S
C2346 C2344 1.391 . S
C2346 C2347 1.400 . S
C2347 C2346 1.400 . S
C2347 C2348 1.398 . S
C2347 C2353 1.491 . S
C2348 H2339 0.950 . S
C2348 C2347 1.398 . S
C2348 C2349 1.391 . S
C2349 H2337 0.950 . S
C2349 C2345 1.393 . S
C2349 C2348 1.391 . S
C2350 H2340 0.950 . S
C2350 C2351 1.386 . S
C2350 C2352 1.391 . S
C2351 C2350 1.386 . S
C2351 C2355 1.393 . S
C2352 H2341 0.950 . S
C2352 C2350 1.391 . S
C2352 C2353 1.400 . S
C2353 C2347 1.491 . S
C2353 C2352 1.400 . S
C2353 C2354 1.398 . S
C2354 H2342 0.950 . S
C2354 C2353 1.398 . S
C2354 C2355 1.391 . S
C2355 H2343 0.950 . S
C2355 C2351 1.393 . S
C2355 C2354 1.391 . S
H2356 C2364 0.950 . S
H2357 C2369 0.950 . S
H2358 C2366 0.950 . S
H2359 C2368 0.950 . S
H2360 C2370 0.950 . S
H2361 C2372 0.950 . S
H2362 C2374 0.950 . S
H2363 C2375 0.950 . S
C2364 H2356 0.950 . S
C2364 C2365 1.386 . S
C2364 C2366 1.391 . S
C2365 C2364 1.386 . S
C2365 C2369 1.393 . S
C2366 H2358 0.950 . S
C2366 C2364 1.391 . S
C2366 C2367 1.400 . S
C2367 C2366 1.400 . S
C2367 C2368 1.398 . S
C2367 C2373 1.491 . S
C2368 H2359 0.950 . S
C2368 C2367 1.398 . S
C2368 C2369 1.391 . S
C2369 H2357 0.950 . S
C2369 C2365 1.393 . S
C2369 C2368 1.391 . S
C2370 H2360 0.950 . S
C2370 C2371 1.386 . S
C2370 C2372 1.391 . S
C2371 C2370 1.386 . S
C2371 C2375 1.393 . S
C2372 H2361 0.950 . S
C2372 C2370 1.391 . S
C2372 C2373 1.400 . S
C2373 C2367 1.491 . S
C2373 C2372 1.400 . S
C2373 C2374 1.398 . S
C2374 H2362 0.950 . S
C2374 C2373 1.398 . S
C2374 C2375 1.391 . S
C2375 H2363 0.950 . S
C2375 C2371 1.393 . S
C2375 C2374 1.391 . S
H2376 C2384 0.950 . S
H2377 C2389 0.950 . S
H2378 C2386 0.950 . S
H2379 C2388 0.950 . S
H2380 C2390 0.950 . S
H2381 C2392 0.950 . S
H2382 C2394 0.950 . S
H2383 C2395 0.950 . S
C2384 H2376 0.950 . S
C2384 C2385 1.386 . S
C2384 C2386 1.391 1_565 S
C2385 C2384 1.386 . S
C2385 C2389 1.393 . S
C2386 H2378 0.950 . S
C2386 C2384 1.391 1_545 S
C2386 C2387 1.400 . S
C2387 C2386 1.400 . S
C2387 C2388 1.398 . S
C2387 C2393 1.491 . S
C2388 H2379 0.950 . S
C2388 C2387 1.398 . S
C2388 C2389 1.391 1_545 S
C2389 H2377 0.950 . S
C2389 C2385 1.393 . S
C2389 C2388 1.391 1_565 S
C2390 H2380 0.950 . S
C2390 C2391 1.386 . S
C2390 C2392 1.391 . S
C2391 C2390 1.386 . S
C2391 C2395 1.393 . S
C2392 H2381 0.950 . S
C2392 C2390 1.391 . S
C2392 C2393 1.400 . S
C2393 C2387 1.491 . S
C2393 C2392 1.400 . S
C2393 C2394 1.398 . S
C2394 H2382 0.950 . S
C2394 C2393 1.398 . S
C2394 C2395 1.391 . S
C2395 H2383 0.950 . S
C2395 C2391 1.393 . S
C2395 C2394 1.391 . S
H2396 C2404 0.950 . S
H2397 C2409 0.950 . S
H2398 C2406 0.950 . S
H2399 C2408 0.950 . S
H2400 C2410 0.950 . S
H2401 C2412 0.950 . S
H2402 C2414 0.950 . S
H2403 C2415 0.950 . S
C2404 H2396 0.950 . S
C2404 C2405 1.386 1_655 S
C2404 C2406 1.391 . S
C2405 C2404 1.386 1_455 S
C2405 C2409 1.393 . S
C2406 H2398 0.950 . S
C2406 C2404 1.391 . S
C2406 C2407 1.400 . S
C2407 C2406 1.400 . S
C2407 C2408 1.398 . S
C2407 C2413 1.491 . S
C2408 H2399 0.950 . S
C2408 C2407 1.398 . S
C2408 C2409 1.391 1_655 S
C2409 H2397 0.950 . S
C2409 C2405 1.393 . S
C2409 C2408 1.391 1_455 S
C2410 H2400 0.950 . S
C2410 C2411 1.386 . S
C2410 C2412 1.391 . S
C2411 C2410 1.386 . S
C2411 C2415 1.393 . S
C2412 H2401 0.950 . S
C2412 C2410 1.391 . S
C2412 C2413 1.400 . S
C2413 C2407 1.491 . S
C2413 C2412 1.400 . S
C2413 C2414 1.398 . S
C2414 H2402 0.950 . S
C2414 C2413 1.398 . S
C2414 C2415 1.391 . S
C2415 H2403 0.950 . S
C2415 C2411 1.393 . S
C2415 C2414 1.391 . S
H2416 C2424 0.950 . S
H2417 C2429 0.950 . S
H2418 C2426 0.950 . S
H2419 C2428 0.950 . S
H2420 C2430 0.950 . S
H2421 C2432 0.950 . S
H2422 C2434 0.950 . S
H2423 C2435 0.950 . S
C2424 H2416 0.950 . S
C2424 C2425 1.386 . S
C2424 C2426 1.391 . S
C2425 C2424 1.386 . S
C2425 C2429 1.393 . S
C2426 H2418 0.950 . S
C2426 C2424 1.391 . S
C2426 C2427 1.400 . S
C2427 C2426 1.400 . S
C2427 C2428 1.398 . S
C2427 C2433 1.491 . S
C2428 H2419 0.950 . S
C2428 C2427 1.398 . S
C2428 C2429 1.391 . S
C2429 H2417 0.950 . S
C2429 C2425 1.393 . S
C2429 C2428 1.391 . S
C2430 H2420 0.950 . S
C2430 C2431 1.386 . S
C2430 C2432 1.391 . S
C2431 C2430 1.386 . S
C2431 C2435 1.393 . S
C2432 H2421 0.950 . S
C2432 C2430 1.391 . S
C2432 C2433 1.400 . S
C2433 C2427 1.491 . S
C2433 C2432 1.400 . S
C2433 C2434 1.398 . S
C2434 H2422 0.950 . S
C2434 C2433 1.398 . S
C2434 C2435 1.391 . S
C2435 H2423 0.950 . S
C2435 C2431 1.393 . S
C2435 C2434 1.391 . S
H2436 C2444 0.950 . S
H2437 C2449 0.950 . S
H2438 C2446 0.950 . S
H2439 C2448 0.950 . S
H2440 C2450 0.950 . S
H2441 C2452 0.950 . S
H2442 C2454 0.950 . S
H2443 C2455 0.950 . S
C2444 H2436 0.950 . S
C2444 C2445 1.386 1_655 S
C2444 C2446 1.391 . S
C2445 C2444 1.386 1_455 S
C2445 C2449 1.393 . S
C2446 H2438 0.950 . S
C2446 C2444 1.391 . S
C2446 C2447 1.400 . S
C2447 C2446 1.400 . S
C2447 C2448 1.398 . S
C2447 C2453 1.491 . S
C2448 H2439 0.950 . S
C2448 C2447 1.398 . S
C2448 C2449 1.391 1_655 S
C2449 H2437 0.950 . S
C2449 C2445 1.393 . S
C2449 C2448 1.391 1_455 S
C2450 H2440 0.950 . S
C2450 C2451 1.386 . S
C2450 C2452 1.391 . S
C2451 C2450 1.386 . S
C2451 C2455 1.393 . S
C2452 H2441 0.950 . S
C2452 C2450 1.391 . S
C2452 C2453 1.400 . S
C2453 C2447 1.491 . S
C2453 C2452 1.400 . S
C2453 C2454 1.398 . S
C2454 H2442 0.950 . S
C2454 C2453 1.398 . S
C2454 C2455 1.391 . S
C2455 H2443 0.950 . S
C2455 C2451 1.393 . S
C2455 C2454 1.391 . S
H2456 C2464 0.950 . S
H2457 C2469 0.950 . S
H2458 C2466 0.950 . S
H2459 C2468 0.950 . S
H2460 C2470 0.950 . S
H2461 C2472 0.950 . S
H2462 C2474 0.950 . S
H2463 C2475 0.950 . S
C2464 H2456 0.950 . S
C2464 C2465 1.386 . S
C2464 C2466 1.391 . S
C2465 C2464 1.386 . S
C2465 C2469 1.393 . S
C2466 H2458 0.950 . S
C2466 C2464 1.391 . S
C2466 C2467 1.400 . S
C2467 C2466 1.400 . S
C2467 C2468 1.398 . S
C2467 C2473 1.491 . S
C2468 H2459 0.950 . S
C2468 C2467 1.398 . S
C2468 C2469 1.391 . S
C2469 H2457 0.950 . S
C2469 C2465 1.393 . S
C2469 C2468 1.391 . S
C2470 H2460 0.950 . S
C2470 C2471 1.386 . S
C2470 C2472 1.391 . S
C2471 C2470 1.386 . S
C2471 C2475 1.393 . S
C2472 H2461 0.950 . S
C2472 C2470 1.391 . S
C2472 C2473 1.400 . S
C2473 C2467 1.491 . S
C2473 C2472 1.400 . S
C2473 C2474 1.398 . S
C2474 H2462 0.950 . S
C2474 C2473 1.398 . S
C2474 C2475 1.391 . S
C2475 H2463 0.950 . S
C2475 C2471 1.393 . S
C2475 C2474 1.391 . S
H2476 C2484 0.950 . S
H2477 C2489 0.950 . S
H2478 C2486 0.950 . S
H2479 C2488 0.950 . S
H2480 C2490 0.950 . S
H2481 C2492 0.950 . S
H2482 C2494 0.950 . S
H2483 C2495 0.950 . S
C2484 H2476 0.950 . S
C2484 C2485 1.386 . S
C2484 C2486 1.391 1_565 S
C2485 C2484 1.386 . S
C2485 C2489 1.393 . S
C2486 H2478 0.950 . S
C2486 C2484 1.391 1_545 S
C2486 C2487 1.400 . S
C2487 C2486 1.400 . S
C2487 C2488 1.398 . S
C2487 C2493 1.491 . S
C2488 H2479 0.950 . S
C2488 C2487 1.398 . S
C2488 C2489 1.391 1_545 S
C2489 H2477 0.950 . S
C2489 C2485 1.393 . S
C2489 C2488 1.391 1_565 S
C2490 H2480 0.950 . S
C2490 C2491 1.386 . S
C2490 C2492 1.391 . S
C2491 C2490 1.386 . S
C2491 C2495 1.393 . S
C2492 H2481 0.950 . S
C2492 C2490 1.391 . S
C2492 C2493 1.400 . S
C2493 C2487 1.491 . S
C2493 C2492 1.400 . S
C2493 C2494 1.398 . S
C2494 H2482 0.950 . S
C2494 C2493 1.398 . S
C2494 C2495 1.391 . S
C2495 H2483 0.950 . S
C2495 C2491 1.393 . S
C2495 C2494 1.391 . S
H2496 C2504 0.950 . S
H2497 C2509 0.950 . S
H2498 C2506 0.950 . S
H2499 C2508 0.950 . S
H2500 C2510 0.950 . S
H2501 C2512 0.950 . S
H2502 C2514 0.950 . S
H2503 C2515 0.950 . S
C2504 H2496 0.950 . S
C2504 C2505 1.386 . S
C2504 C2506 1.391 . S
C2505 C2504 1.386 . S
C2505 C2509 1.393 . S
C2506 H2498 0.950 . S
C2506 C2504 1.391 . S
C2506 C2507 1.400 . S
C2507 C2506 1.400 . S
C2507 C2508 1.398 . S
C2507 C2513 1.491 . S
C2508 H2499 0.950 . S
C2508 C2507 1.398 . S
C2508 C2509 1.391 . S
C2509 H2497 0.950 . S
C2509 C2505 1.393 . S
C2509 C2508 1.391 . S
C2510 H2500 0.950 . S
C2510 C2511 1.386 . S
C2510 C2512 1.391 . S
C2511 C2510 1.386 . S
C2511 C2515 1.393 . S
C2512 H2501 0.950 . S
C2512 C2510 1.391 . S
C2512 C2513 1.400 . S
C2513 C2507 1.491 . S
C2513 C2512 1.400 . S
C2513 C2514 1.398 . S
C2514 H2502 0.950 . S
C2514 C2513 1.398 . S
C2514 C2515 1.391 . S
C2515 H2503 0.950 . S
C2515 C2511 1.393 . S
C2515 C2514 1.391 . S
H2516 C2524 0.950 . S
H2517 C2529 0.950 . S
H2518 C2526 0.950 . S
H2519 C2528 0.950 . S
H2520 C2530 0.950 . S
H2521 C2532 0.950 . S
H2522 C2534 0.950 . S
H2523 C2535 0.950 . S
C2524 H2516 0.950 . S
C2524 C2525 1.386 . S
C2524 C2526 1.391 . S
C2525 C2524 1.386 . S
C2525 C2529 1.393 . S
C2526 H2518 0.950 . S
C2526 C2524 1.391 . S
C2526 C2527 1.400 . S
C2527 C2526 1.400 . S
C2527 C2528 1.398 . S
C2527 C2533 1.491 . S
C2528 H2519 0.950 . S
C2528 C2527 1.398 . S
C2528 C2529 1.391 . S
C2529 H2517 0.950 . S
C2529 C2525 1.393 . S
C2529 C2528 1.391 . S
C2530 H2520 0.950 . S
C2530 C2531 1.386 . S
C2530 C2532 1.391 . S
C2531 C2530 1.386 . S
C2531 C2535 1.393 . S
C2532 H2521 0.950 . S
C2532 C2530 1.391 . S
C2532 C2533 1.400 . S
C2533 C2527 1.491 . S
C2533 C2532 1.400 . S
C2533 C2534 1.398 . S
C2534 H2522 0.950 . S
C2534 C2533 1.398 . S
C2534 C2535 1.391 . S
C2535 H2523 0.950 . S
C2535 C2531 1.393 . S
C2535 C2534 1.391 . S
H2536 C2544 0.950 . S
H2537 C2549 0.950 . S
H2538 C2546 0.950 . S
H2539 C2548 0.950 . S
H2540 C2550 0.950 . S
H2541 C2552 0.950 . S
H2542 C2554 0.950 . S
H2543 C2555 0.950 . S
C2544 H2536 0.950 . S
C2544 C2545 1.386 . S
C2544 C2546 1.391 . S
C2545 C2544 1.386 . S
C2545 C2549 1.393 . S
C2546 H2538 0.950 . S
C2546 C2544 1.391 . S
C2546 C2547 1.400 . S
C2547 C2546 1.400 . S
C2547 C2548 1.398 . S
C2547 C2553 1.491 . S
C2548 H2539 0.950 . S
C2548 C2547 1.398 . S
C2548 C2549 1.391 . S
C2549 H2537 0.950 . S
C2549 C2545 1.393 . S
C2549 C2548 1.391 . S
C2550 H2540 0.950 . S
C2550 C2551 1.386 . S
C2550 C2552 1.391 . S
C2551 C2550 1.386 . S
C2551 C2555 1.393 . S
C2552 H2541 0.950 . S
C2552 C2550 1.391 . S
C2552 C2553 1.400 . S
C2553 C2547 1.491 . S
C2553 C2552 1.400 . S
C2553 C2554 1.398 . S
C2554 H2542 0.950 . S
C2554 C2553 1.398 . S
C2554 C2555 1.391 . S
C2555 H2543 0.950 . S
C2555 C2551 1.393 . S
C2555 C2554 1.391 . S
H2556 C2564 0.950 . S
H2557 C2569 0.950 . S
H2558 C2566 0.950 . S
H2559 C2568 0.950 . S
H2560 C2570 0.950 . S
H2561 C2572 0.950 . S
H2562 C2574 0.950 . S
H2563 C2575 0.950 . S
C2564 H2556 0.950 . S
C2564 C2565 1.386 . S
C2564 C2566 1.391 . S
C2565 C2564 1.386 . S
C2565 C2569 1.393 . S
C2566 H2558 0.950 . S
C2566 C2564 1.391 . S
C2566 C2567 1.400 . S
C2567 C2566 1.400 . S
C2567 C2568 1.398 . S
C2567 C2573 1.491 . S
C2568 H2559 0.950 . S
C2568 C2567 1.398 . S
C2568 C2569 1.391 . S
C2569 H2557 0.950 . S
C2569 C2565 1.393 . S
C2569 C2568 1.391 . S
C2570 H2560 0.950 . S
C2570 C2571 1.386 . S
C2570 C2572 1.391 . S
C2571 C2570 1.386 . S
C2571 C2575 1.393 . S
C2572 H2561 0.950 . S
C2572 C2570 1.391 . S
C2572 C2573 1.400 . S
C2573 C2567 1.491 . S
C2573 C2572 1.400 . S
C2573 C2574 1.398 . S
C2574 H2562 0.950 . S
C2574 C2573 1.398 . S
C2574 C2575 1.391 . S
C2575 H2563 0.950 . S
C2575 C2571 1.393 . S
C2575 C2574 1.391 . S
H2576 C2584 0.950 . S
H2577 C2589 0.950 . S
H2578 C2586 0.950 . S
H2579 C2588 0.950 . S
H2580 C2590 0.950 . S
H2581 C2592 0.950 . S
H2582 C2594 0.984 . S
H2583 C2595 0.950 1_655 S
C2584 H2576 0.950 . S
C2584 C2585 1.386 . S
C2584 C2586 1.391 . S
C2585 C2584 1.386 . S
C2585 C2589 1.393 . S
C2586 H2578 0.950 . S
C2586 C2584 1.391 . S
C2586 C2587 1.400 . S
C2587 C2586 1.400 . S
C2587 C2588 1.398 . S
C2587 C2593 1.491 . S
C2588 H2579 0.950 . S
C2588 C2587 1.398 . S
C2588 C2589 1.391 . S
C2589 H2577 0.950 . S
C2589 C2585 1.393 . S
C2589 C2588 1.391 . S
C2590 H2580 0.950 . S
C2590 C2591 1.386 . S
C2590 C2592 1.391 . S
C2591 C2590 1.386 . S
C2591 C2595 1.393 . S
C2592 H2581 0.950 . S
C2592 C2590 1.391 . S
C2592 C2593 1.400 . S
C2593 C2587 1.491 . S
C2593 C2592 1.400 . S
C2593 C2594 1.398 . S
C2594 H2582 0.984 . S
C2594 C2593 1.398 . S
C2594 C2595 1.391 . S
C2595 H2583 0.950 1_455 S
C2595 C2591 1.393 . S
C2595 C2594 1.391 . S
H2596 C2604 0.950 . S
H2597 C2609 0.950 . S
H2598 C2606 0.950 . S
H2599 C2608 0.950 . S
H2600 C2610 0.950 . S
H2601 C2612 0.950 . S
H2602 C2614 0.950 . S
H2603 C2615 0.950 . S
C2604 H2596 0.950 . S
C2604 C2605 1.386 . S
C2604 C2606 1.391 . S
C2605 C2604 1.386 . S
C2605 C2609 1.393 . S
C2606 H2598 0.950 . S
C2606 C2604 1.391 . S
C2606 C2607 1.400 . S
C2607 C2606 1.400 . S
C2607 C2608 1.398 . S
C2607 C2613 1.491 . S
C2608 H2599 0.950 . S
C2608 C2607 1.398 . S
C2608 C2609 1.391 . S
C2609 H2597 0.950 . S
C2609 C2605 1.393 . S
C2609 C2608 1.391 . S
C2610 H2600 0.950 . S
C2610 C2611 1.386 . S
C2610 C2612 1.391 . S
C2611 C2610 1.386 . S
C2611 C2615 1.393 . S
C2612 H2601 0.950 . S
C2612 C2610 1.391 . S
C2612 C2613 1.400 . S
C2613 C2607 1.491 . S
C2613 C2612 1.400 . S
C2613 C2614 1.398 . S
C2614 H2602 0.950 . S
C2614 C2613 1.398 . S
C2614 C2615 1.391 . S
C2615 H2603 0.950 . S
C2615 C2611 1.393 . S
C2615 C2614 1.391 . S
H2616 C2624 0.950 . S
H2617 C2629 0.950 . S
H2618 C2626 0.950 . S
H2619 C2628 0.950 . S
H2620 C2630 0.950 . S
H2621 C2632 0.950 . S
H2622 C2634 0.950 . S
H2623 C2635 0.950 . S
C2624 H2616 0.950 . S
C2624 C2625 1.386 . S
C2624 C2626 1.391 . S
C2625 C2624 1.386 . S
C2625 C2629 1.393 . S
C2626 H2618 0.950 . S
C2626 C2624 1.391 . S
C2626 C2627 1.400 . S
C2627 C2626 1.400 . S
C2627 C2628 1.398 . S
C2627 C2633 1.491 . S
C2628 H2619 0.950 . S
C2628 C2627 1.398 . S
C2628 C2629 1.391 . S
C2629 H2617 0.950 . S
C2629 C2625 1.393 . S
C2629 C2628 1.391 . S
C2630 H2620 0.950 . S
C2630 C2631 1.386 . S
C2630 C2632 1.391 . S
C2631 C2630 1.386 . S
C2631 C2635 1.393 . S
C2632 H2621 0.950 . S
C2632 C2630 1.391 . S
C2632 C2633 1.400 . S
C2633 C2627 1.491 . S
C2633 C2632 1.400 . S
C2633 C2634 1.398 . S
C2634 H2622 0.950 . S
C2634 C2633 1.398 . S
C2634 C2635 1.391 . S
C2635 H2623 0.950 . S
C2635 C2631 1.393 . S
C2635 C2634 1.391 . S
H2636 C2644 0.950 . S
H2637 C2649 0.950 . S
H2638 C2646 0.950 . S
H2639 C2648 0.950 . S
H2640 C2650 0.950 . S
H2641 C2652 0.950 . S
H2642 C2654 0.950 . S
H2643 C2655 0.950 . S
C2644 H2636 0.950 . S
C2644 C2645 1.386 . S
C2644 C2646 1.391 . S
C2645 C2644 1.386 . S
C2645 C2649 1.393 . S
C2646 H2638 0.950 . S
C2646 C2644 1.391 . S
C2646 C2647 1.400 . S
C2647 C2646 1.400 . S
C2647 C2648 1.398 . S
C2647 C2653 1.491 . S
C2648 H2639 0.950 . S
C2648 C2647 1.398 . S
C2648 C2649 1.391 . S
C2649 H2637 0.950 . S
C2649 C2645 1.393 . S
C2649 C2648 1.391 . S
C2650 H2640 0.950 . S
C2650 C2651 1.386 . S
C2650 C2652 1.391 . S
C2651 C2650 1.386 . S
C2651 C2655 1.393 . S
C2652 H2641 0.950 . S
C2652 C2650 1.391 . S
C2652 C2653 1.400 . S
C2653 C2647 1.491 . S
C2653 C2652 1.400 . S
C2653 C2654 1.398 . S
C2654 H2642 0.950 . S
C2654 C2653 1.398 . S
C2654 C2655 1.391 . S
C2655 H2643 0.950 . S
C2655 C2651 1.393 . S
C2655 C2654 1.391 . S
H2656 C2664 0.950 . S
H2657 C2669 0.950 . S
H2658 C2666 0.950 . S
H2659 C2668 0.950 . S
H2660 C2670 0.950 . S
H2661 C2672 0.950 . S
H2662 C2674 0.950 . S
H2663 C2675 0.950 1_565 S
C2664 H2656 0.950 . S
C2664 C2665 1.386 . S
C2664 C2666 1.391 . S
C2665 C2664 1.386 . S
C2665 C2669 1.393 . S
C2666 H2658 0.950 . S
C2666 C2664 1.391 . S
C2666 C2667 1.400 . S
C2667 C2666 1.400 . S
C2667 C2668 1.398 . S
C2667 C2673 1.491 . S
C2668 H2659 0.950 . S
C2668 C2667 1.398 . S
C2668 C2669 1.391 . S
C2669 H2657 0.950 . S
C2669 C2665 1.393 . S
C2669 C2668 1.391 . S
C2670 H2660 0.950 . S
C2670 C2671 1.386 . S
C2670 C2672 1.391 . S
C2671 C2670 1.386 . S
C2671 C2675 1.393 . S
C2672 H2661 0.950 . S
C2672 C2670 1.391 . S
C2672 C2673 1.400 . S
C2673 C2667 1.491 . S
C2673 C2672 1.400 . S
C2673 C2674 1.398 . S
C2674 H2662 0.950 . S
C2674 C2673 1.398 . S
C2674 C2675 1.391 . S
C2675 H2663 0.950 1_545 S
C2675 C2671 1.393 . S
C2675 C2674 1.391 . S
H2676 C2684 0.950 . S
H2677 C2689 0.950 . S
H2678 C2686 0.950 . S
H2679 C2688 0.950 . S
H2680 C2690 0.950 . S
H2681 C2692 0.950 . S
H2682 C2694 0.950 . S
H2683 C2695 0.950 . S
C2684 H2676 0.950 . S
C2684 C2685 1.386 . S
C2684 C2686 1.391 . S
C2685 C2684 1.386 . S
C2685 C2689 1.393 . S
C2686 H2678 0.950 . S
C2686 C2684 1.391 . S
C2686 C2687 1.400 . S
C2687 C2686 1.400 . S
C2687 C2688 1.398 . S
C2687 C2693 1.491 . S
C2688 H2679 0.950 . S
C2688 C2687 1.398 . S
C2688 C2689 1.391 . S
C2689 H2677 0.950 . S
C2689 C2685 1.393 . S
C2689 C2688 1.391 . S
C2690 H2680 0.950 . S
C2690 C2691 1.386 . S
C2690 C2692 1.391 . S
C2691 C2690 1.386 . S
C2691 C2695 1.393 . S
C2692 H2681 0.950 . S
C2692 C2690 1.391 . S
C2692 C2693 1.400 . S
C2693 C2687 1.491 . S
C2693 C2692 1.400 . S
C2693 C2694 1.398 . S
C2694 H2682 0.950 . S
C2694 C2693 1.398 . S
C2694 C2695 1.391 . S
C2695 H2683 0.950 . S
C2695 C2691 1.393 . S
C2695 C2694 1.391 . S
H2696 C2704 0.950 . S
H2697 C2709 0.950 . S
H2698 C2706 0.950 . S
H2699 C2708 0.950 . S
H2700 C2710 0.950 . S
H2701 C2712 0.950 . S
H2702 C2714 0.950 . S
H2703 C2715 0.950 . S
C2704 H2696 0.950 . S
C2704 C2705 1.386 . S
C2704 C2706 1.391 . S
C2705 C2704 1.386 . S
C2705 C2709 1.393 . S
C2706 H2698 0.950 . S
C2706 C2704 1.391 . S
C2706 C2707 1.400 . S
C2707 C2706 1.400 . S
C2707 C2708 1.398 . S
C2707 C2713 1.491 . S
C2708 H2699 0.950 . S
C2708 C2707 1.398 . S
C2708 C2709 1.391 . S
C2709 H2697 0.950 . S
C2709 C2705 1.393 . S
C2709 C2708 1.391 . S
C2710 H2700 0.950 . S
C2710 C2711 1.386 . S
C2710 C2712 1.391 . S
C2711 C2710 1.386 . S
C2711 C2715 1.393 . S
C2712 H2701 0.950 . S
C2712 C2710 1.391 . S
C2712 C2713 1.400 . S
C2713 C2707 1.491 . S
C2713 C2712 1.400 . S
C2713 C2714 1.398 . S
C2714 H2702 0.950 . S
C2714 C2713 1.398 . S
C2714 C2715 1.391 . S
C2715 H2703 0.950 . S
C2715 C2711 1.393 . S
C2715 C2714 1.391 . S
H2716 C2724 0.950 . S
H2717 C2729 0.950 . S
H2718 C2726 0.950 . S
H2719 C2728 0.950 . S
H2720 C2730 0.950 . S
H2721 C2732 0.950 . S
H2722 C2734 0.950 . S
H2723 C2735 0.950 . S
C2724 H2716 0.950 . S
C2724 C2725 1.386 . S
C2724 C2726 1.391 . S
C2725 C2724 1.386 . S
C2725 C2729 1.393 . S
C2726 H2718 0.950 . S
C2726 C2724 1.391 . S
C2726 C2727 1.400 . S
C2727 C2726 1.400 . S
C2727 C2728 1.398 . S
C2727 C2733 1.491 . S
C2728 H2719 0.950 . S
C2728 C2727 1.398 . S
C2728 C2729 1.391 . S
C2729 H2717 0.950 . S
C2729 C2725 1.393 . S
C2729 C2728 1.391 . S
C2730 H2720 0.950 . S
C2730 C2731 1.386 . S
C2730 C2732 1.391 . S
C2731 C2730 1.386 . S
C2731 C2735 1.393 . S
C2732 H2721 0.950 . S
C2732 C2730 1.391 . S
C2732 C2733 1.400 . S
C2733 C2727 1.491 . S
C2733 C2732 1.400 . S
C2733 C2734 1.398 . S
C2734 H2722 0.950 . S
C2734 C2733 1.398 . S
C2734 C2735 1.391 . S
C2735 H2723 0.950 . S
C2735 C2731 1.393 . S
C2735 C2734 1.391 . S
H2736 C2744 0.950 . S
H2737 C2749 0.950 . S
H2738 C2746 0.950 . S
H2739 C2748 0.950 . S
H2740 C2750 0.950 . S
H2741 C2752 0.950 . S
H2742 C2754 0.950 . S
H2743 C2755 0.950 . S
C2744 H2736 0.950 . S
C2744 C2745 1.386 . S
C2744 C2746 1.391 . S
C2745 C2744 1.386 . S
C2745 C2749 1.393 . S
C2746 H2738 0.950 . S
C2746 C2744 1.391 . S
C2746 C2747 1.400 . S
C2747 C2746 1.400 . S
C2747 C2748 1.398 . S
C2747 C2753 1.491 . S
C2748 H2739 0.950 . S
C2748 C2747 1.398 . S
C2748 C2749 1.391 . S
C2749 H2737 0.950 . S
C2749 C2745 1.393 . S
C2749 C2748 1.391 . S
C2750 H2740 0.950 . S
C2750 C2751 1.386 . S
C2750 C2752 1.391 . S
C2751 C2750 1.386 . S
C2751 C2755 1.393 . S
C2752 H2741 0.950 . S
C2752 C2750 1.391 . S
C2752 C2753 1.400 . S
C2753 C2747 1.491 . S
C2753 C2752 1.400 . S
C2753 C2754 1.398 . S
C2754 H2742 0.950 . S
C2754 C2753 1.398 . S
C2754 C2755 1.391 . S
C2755 H2743 0.950 . S
C2755 C2751 1.393 . S
C2755 C2754 1.391 . S
H2756 C2764 0.950 . S
H2757 C2769 0.950 . S
H2758 C2766 0.950 . S
H2759 C2768 0.950 . S
H2760 C2770 0.950 . S
H2761 C2772 0.950 . S
H2762 C2774 0.950 . S
H2763 C2775 0.950 . S
C2764 H2756 0.950 . S
C2764 C2765 1.386 . S
C2764 C2766 1.391 . S
C2765 C2764 1.386 . S
C2765 C2769 1.393 . S
C2766 H2758 0.950 . S
C2766 C2764 1.391 . S
C2766 C2767 1.400 . S
C2767 C2766 1.400 . S
C2767 C2768 1.398 . S
C2767 C2773 1.491 . S
C2768 H2759 0.950 . S
C2768 C2767 1.398 . S
C2768 C2769 1.391 . S
C2769 H2757 0.950 . S
C2769 C2765 1.393 . S
C2769 C2768 1.391 . S
C2770 H2760 0.950 . S
C2770 C2771 1.386 . S
C2770 C2772 1.391 . S
C2771 C2770 1.386 . S
C2771 C2775 1.393 . S
C2772 H2761 0.950 . S
C2772 C2770 1.391 . S
C2772 C2773 1.400 . S
C2773 C2767 1.491 . S
C2773 C2772 1.400 . S
C2773 C2774 1.398 . S
C2774 H2762 0.950 . S
C2774 C2773 1.398 . S
C2774 C2775 1.391 . S
C2775 H2763 0.950 . S
C2775 C2771 1.393 . S
C2775 C2774 1.391 . S
H2776 C2784 0.950 . S
H2777 C2789 0.950 . S
H2778 C2786 0.950 . S
H2779 C2788 0.950 . S
H2780 C2790 0.950 . S
H2781 C2792 0.950 . S
H2782 C2794 0.950 . S
H2783 C2795 0.950 . S
C2784 H2776 0.950 . S
C2784 C2785 1.386 . S
C2784 C2786 1.391 . S
C2785 C2784 1.386 . S
C2785 C2789 1.393 . S
C2786 H2778 0.950 . S
C2786 C2784 1.391 . S
C2786 C2787 1.400 . S
C2787 C2786 1.400 . S
C2787 C2788 1.398 . S
C2787 C2793 1.491 . S
C2788 H2779 0.950 . S
C2788 C2787 1.398 . S
C2788 C2789 1.391 . S
C2789 H2777 0.950 . S
C2789 C2785 1.393 . S
C2789 C2788 1.391 . S
C2790 H2780 0.950 . S
C2790 C2791 1.386 . S
C2790 C2792 1.391 . S
C2791 C2790 1.386 . S
C2791 C2795 1.393 . S
C2792 H2781 0.950 . S
C2792 C2790 1.391 . S
C2792 C2793 1.400 . S
C2793 C2787 1.491 . S
C2793 C2792 1.400 . S
C2793 C2794 1.398 . S
C2794 H2782 0.950 . S
C2794 C2793 1.398 . S
C2794 C2795 1.391 . S
C2795 H2783 0.950 . S
C2795 C2791 1.393 . S
C2795 C2794 1.391 . S
H2796 C2804 0.950 . S
H2797 C2809 0.950 . S
H2798 C2806 0.950 . S
H2799 C2808 0.950 . S
H2800 C2810 0.950 . S
H2801 C2812 0.950 . S
H2802 C2814 0.950 . S
H2803 C2815 0.950 . S
C2804 H2796 0.950 . S
C2804 C2805 1.386 . S
C2804 C2806 1.391 . S
C2805 C2804 1.386 . S
C2805 C2809 1.393 . S
C2806 H2798 0.950 . S
C2806 C2804 1.391 . S
C2806 C2807 1.400 . S
C2807 C2806 1.400 . S
C2807 C2808 1.398 . S
C2807 C2813 1.491 . S
C2808 H2799 0.950 . S
C2808 C2807 1.398 . S
C2808 C2809 1.391 . S
C2809 H2797 0.950 . S
C2809 C2805 1.393 . S
C2809 C2808 1.391 . S
C2810 H2800 0.950 . S
C2810 C2811 1.386 . S
C2810 C2812 1.391 . S
C2811 C2810 1.386 . S
C2811 C2815 1.393 . S
C2812 H2801 0.950 . S
C2812 C2810 1.391 . S
C2812 C2813 1.400 . S
C2813 C2807 1.491 . S
C2813 C2812 1.400 . S
C2813 C2814 1.398 . S
C2814 H2802 0.950 . S
C2814 C2813 1.398 . S
C2814 C2815 1.391 . S
C2815 H2803 0.950 . S
C2815 C2811 1.393 . S
C2815 C2814 1.391 . S
H2816 C2824 0.950 . S
H2817 C2829 0.950 . S
H2818 C2826 0.950 . S
H2819 C2828 0.950 . S
H2820 C2830 0.950 . S
H2821 C2832 0.950 . S
H2822 C2834 0.950 . S
H2823 C2835 0.950 . S
C2824 H2816 0.950 . S
C2824 C2825 1.386 . S
C2824 C2826 1.391 . S
C2825 C2824 1.386 . S
C2825 C2829 1.393 . S
C2826 H2818 0.950 . S
C2826 C2824 1.391 . S
C2826 C2827 1.400 . S
C2827 C2826 1.400 . S
C2827 C2828 1.398 . S
C2827 C2833 1.491 . S
C2828 H2819 0.950 . S
C2828 C2827 1.398 . S
C2828 C2829 1.391 . S
C2829 H2817 0.950 . S
C2829 C2825 1.393 . S
C2829 C2828 1.391 . S
C2830 H2820 0.950 . S
C2830 C2831 1.386 . S
C2830 C2832 1.391 . S
C2831 C2830 1.386 . S
C2831 C2835 1.393 . S
C2832 H2821 0.950 . S
C2832 C2830 1.391 . S
C2832 C2833 1.400 . S
C2833 C2827 1.491 . S
C2833 C2832 1.400 . S
C2833 C2834 1.398 . S
C2834 H2822 0.950 . S
C2834 C2833 1.398 . S
C2834 C2835 1.391 . S
C2835 H2823 0.950 . S
C2835 C2831 1.393 . S
C2835 C2834 1.391 . S
H2836 C2844 0.950 . S
H2837 C2849 0.950 . S
H2838 C2846 0.950 . S
H2839 C2848 0.950 . S
H2840 C2850 0.950 . S
H2841 C2852 0.950 . S
H2842 C2854 0.950 . S
H2843 C2855 0.950 . S
C2844 H2836 0.950 . S
C2844 C2845 1.386 . S
C2844 C2846 1.391 . S
C2845 C2844 1.386 . S
C2845 C2849 1.393 . S
C2846 H2838 0.950 . S
C2846 C2844 1.391 . S
C2846 C2847 1.400 . S
C2847 C2846 1.400 . S
C2847 C2848 1.398 . S
C2847 C2853 1.491 . S
C2848 H2839 0.950 . S
C2848 C2847 1.398 . S
C2848 C2849 1.391 . S
C2849 H2837 0.950 . S
C2849 C2845 1.393 . S
C2849 C2848 1.391 . S
C2850 H2840 0.950 . S
C2850 C2851 1.386 . S
C2850 C2852 1.391 . S
C2851 C2850 1.386 . S
C2851 C2855 1.393 . S
C2852 H2841 0.950 . S
C2852 C2850 1.391 . S
C2852 C2853 1.400 . S
C2853 C2847 1.491 . S
C2853 C2852 1.400 . S
C2853 C2854 1.398 . S
C2854 H2842 0.950 . S
C2854 C2853 1.398 . S
C2854 C2855 1.391 . S
C2855 H2843 0.950 . S
C2855 C2851 1.393 . S
C2855 C2854 1.391 . S
H2856 C2864 0.950 . S
H2857 C2869 0.950 . S
H2858 C2866 0.950 . S
H2859 C2868 0.950 . S
H2860 C2870 0.950 . S
H2861 C2872 0.950 . S
H2862 C2874 0.950 . S
H2863 C2875 0.950 . S
C2864 H2856 0.950 . S
C2864 C2865 1.386 . S
C2864 C2866 1.391 . S
C2865 C2864 1.386 . S
C2865 C2869 1.393 . S
C2866 H2858 0.950 . S
C2866 C2864 1.391 . S
C2866 C2867 1.400 . S
C2867 C2866 1.400 . S
C2867 C2868 1.398 . S
C2867 C2873 1.491 . S
C2868 H2859 0.950 . S
C2868 C2867 1.398 . S
C2868 C2869 1.391 . S
C2869 H2857 0.950 . S
C2869 C2865 1.393 . S
C2869 C2868 1.391 . S
C2870 H2860 0.950 . S
C2870 C2871 1.386 . S
C2870 C2872 1.391 . S
C2871 C2870 1.386 . S
C2871 C2875 1.393 . S
C2872 H2861 0.950 . S
C2872 C2870 1.391 . S
C2872 C2873 1.400 . S
C2873 C2867 1.491 . S
C2873 C2872 1.400 . S
C2873 C2874 1.398 . S
C2874 H2862 0.950 . S
C2874 C2873 1.398 . S
C2874 C2875 1.391 . S
C2875 H2863 0.950 . S
C2875 C2871 1.393 . S
C2875 C2874 1.391 . S
H2876 C2884 0.950 . S
H2877 C2889 0.950 . S
H2878 C2886 0.950 . S
H2879 C2888 0.950 . S
H2880 C2890 0.950 . S
H2881 C2892 0.950 . S
H2882 C2894 0.950 . S
H2883 C2895 0.950 . S
C2884 H2876 0.950 . S
C2884 C2885 1.386 . S
C2884 C2886 1.391 . S
C2885 C2884 1.386 . S
C2885 C2889 1.393 . S
C2886 H2878 0.950 . S
C2886 C2884 1.391 . S
C2886 C2887 1.400 . S
C2887 C2886 1.400 . S
C2887 C2888 1.398 . S
C2887 C2893 1.491 . S
C2888 H2879 0.950 . S
C2888 C2887 1.398 . S
C2888 C2889 1.391 . S
C2889 H2877 0.950 . S
C2889 C2885 1.393 . S
C2889 C2888 1.391 . S
C2890 H2880 0.950 . S
C2890 C2891 1.386 . S
C2890 C2892 1.391 . S
C2891 C2890 1.386 . S
C2891 C2895 1.393 . S
C2892 H2881 0.950 . S
C2892 C2890 1.391 . S
C2892 C2893 1.400 . S
C2893 C2887 1.491 . S
C2893 C2892 1.400 . S
C2893 C2894 1.398 . S
C2894 H2882 0.950 . S
C2894 C2893 1.398 . S
C2894 C2895 1.391 . S
C2895 H2883 0.950 . S
C2895 C2891 1.393 . S
C2895 C2894 1.391 . S
H2896 C2904 0.950 . S
H2897 C2909 0.950 . S
H2898 C2906 0.950 . S
H2899 C2908 0.950 . S
H2900 C2910 0.950 . S
H2901 C2912 0.950 . S
H2902 C2914 0.950 . S
H2903 C2915 0.950 . S
C2904 H2896 0.950 . S
C2904 C2905 1.386 . S
C2904 C2906 1.391 . S
C2905 C2904 1.386 . S
C2905 C2909 1.393 . S
C2906 H2898 0.950 . S
C2906 C2904 1.391 . S
C2906 C2907 1.400 . S
C2907 C2906 1.400 . S
C2907 C2908 1.398 . S
C2907 C2913 1.491 . S
C2908 H2899 0.950 . S
C2908 C2907 1.398 . S
C2908 C2909 1.391 . S
C2909 H2897 0.950 . S
C2909 C2905 1.393 . S
C2909 C2908 1.391 . S
C2910 H2900 0.950 . S
C2910 C2911 1.386 . S
C2910 C2912 1.391 . S
C2911 C2910 1.386 . S
C2911 C2915 1.393 . S
C2912 H2901 0.950 . S
C2912 C2910 1.391 . S
C2912 C2913 1.400 . S
C2913 C2907 1.491 . S
C2913 C2912 1.400 . S
C2913 C2914 1.398 . S
C2914 H2902 0.950 . S
C2914 C2913 1.398 . S
C2914 C2915 1.391 . S
C2915 H2903 0.950 . S
C2915 C2911 1.393 . S
C2915 C2914 1.391 . S
C1845 C781 1.432 . S
C1851 C1147 1.349 . S
C1865 C871 1.443 . S
C1871 C1231 1.392 . S
C1885 C751 1.454 . S
C1891 C1311 1.443 . S
C1905 C691 1.408 . S
C1911 C1227 1.403 . S
C1931 C1315 1.337 . S
C1925 C571 1.382 . S
C1945 C601 1.405 . S
C1951 C1143 1.378 . S
C1971 C1136 1.376 . S
C1965 C661 1.403 . S
C1991 C1220 1.405 . S
C1985 C541 1.428 . S
C2005 C631 1.480 . S
C2011 C1322 1.434 . S
C2025 C811 1.424 . S
C2031 C1238 1.379 . S
C2045 C841 1.378 . S
C2051 C1304 1.315 . S
C2071 C1154 1.365 . S
C2065 C721 1.375 . S
C2091 C1399 1.364 . S
C2085 C61 1.427 . S
C2105 C151 1.427 . S
C2111 C1483 1.384 . S
C2125 C31 1.455 . S
C2131 C1563 1.444 . S
C2145 C1051 1.402 . S
C2151 C1479 1.399 . S
C2165 C931 1.361 . S
C2171 C1567 1.313 . S
C2185 C961 1.390 . S
C2191 C1395 1.362 . S
C2205 C1021 1.394 . S
C2211 C1388 1.381 . S
C2225 C901 1.419 . S
C2231 C1472 1.408 . S
C2251 C1574 1.425 . S
C2245 C991 1.479 . S
C2265 C91 1.428 . S
C2271 C1490 1.379 . S
C2291 C1556 1.341 . S
C2285 C121 1.356 . S
C2305 C1 1.354 . S
C2311 C1406 1.362 . S
C2331 C1651 1.349 . S
C2325 C421 1.434 . S
C2345 C511 1.428 . S
C2351 C1735 1.385 . S
C2371 C1815 1.426 . S
C2365 C391 1.434 . S
C2391 C1731 1.382 . S
C2385 C331 1.401 . S
C2411 C1819 1.308 . S
C2405 C211 1.361 . S
C2425 C241 1.393 . S
C2431 C1647 1.358 . S
C2445 C301 1.402 . S
C2451 C1640 1.377 . S
C2465 C181 1.437 . S
C2471 C1724 1.387 . S
C2491 C1826 1.431 . S
C2485 C271 1.469 . S
C2505 C451 1.421 . S
C2511 C1742 1.386 . S
C2525 C481 1.377 . S
C2531 C1808 1.311 . S
C2545 C361 1.373 . S
C2551 C1658 1.365 . S
C2565 C920 1.430 . S
C2571 C1150 1.354 . S
C2591 C1234 1.342 . S
C2585 C980 1.487 . S
C2605 C1040 1.453 . S
C2611 C1306 1.339 . S
C2625 C380 1.476 . S
C2631 C1222 1.345 . S
C2645 C440 1.460 . S
C2651 C1318 1.352 . S
C2671 C1138 1.335 . S
C2665 C500 1.433 . S
C2685 C200 1.434 . S
C2691 C1402 1.322 . S
C2705 C260 1.485 . S
C2711 C1486 1.374 . S
C2725 C320 1.451 . S
C2731 C1558 1.356 . S
C2745 C740 1.487 . S
C2751 C1474 1.368 . S
C2771 C1570 1.339 . S
C2765 C800 1.461 . S
C2785 C860 1.437 . S
C2791 C1390 1.351 . S
C2805 C560 1.427 . S
C2811 C1654 1.352 . S
C2825 C620 1.498 . S
C2831 C1738 1.371 . S
C2851 C1810 1.357 . S
C2845 C680 1.458 . S
C2865 C20 1.479 . S
C2871 C1726 1.370 . S
C2885 C80 1.447 . S
C2891 C1822 1.357 . S
C2905 C140 1.421 . S
C2911 C1642 1.327 . S
