# Generated by pormake.
# Topology ssa, (4,4)-cn, num edge types: 1
# Building blocks:
#     Node 0, Type 0, BuildingBlock: ESEHIV_clean_sbu_0, # of connection points: 4
#     Node 1, Type 0, BuildingBlock: ESEHIV_clean_sbu_0, # of connection points: 4
#     Node 2, Type 0, BuildingBlock: ESEHIV_clean_sbu_0, # of connection points: 4
#     Node 3, Type 0, BuildingBlock: ESEHIV_clean_sbu_0, # of connection points: 4
#     Node 4, Type 0, BuildingBlock: ESEHIV_clean_sbu_0, # of connection points: 4
#     Node 5, Type 0, BuildingBlock: ESEHIV_clean_sbu_0, # of connection points: 4
#     Node 6, Type 1, BuildingBlock: AZAVOO_clean_linker_0, # of connection points: 4
#     Node 7, Type 1, BuildingBlock: AZAVOO_clean_linker_0, # of connection points: 4
#     Node 8, Type 1, BuildingBlock: AZAVOO_clean_linker_0, # of connection points: 4
#     Node 9, Type 1, BuildingBlock: AZAVOO_clean_linker_0, # of connection points: 4
#     Node 10, Type 1, BuildingBlock: AZAVOO_clean_linker_0, # of connection points: 4
#     Node 11, Type 1, BuildingBlock: AZAVOO_clean_linker_0, # of connection points: 4
#     Edge 12, Type (0, 1), BuildingBlock: XUDNAN_clean_linker_2, # of connection points: 2
#     Edge 13, Type (0, 1), BuildingBlock: XUDNAN_clean_linker_2, # of connection points: 2
#     Edge 14, Type (0, 1), BuildingBlock: XUDNAN_clean_linker_2, # of connection points: 2
#     Edge 15, Type (0, 1), BuildingBlock: XUDNAN_clean_linker_2, # of connection points: 2
#     Edge 16, Type (0, 1), BuildingBlock: XUDNAN_clean_linker_2, # of connection points: 2
#     Edge 17, Type (0, 1), BuildingBlock: XUDNAN_clean_linker_2, # of connection points: 2
#     Edge 18, Type (0, 1), BuildingBlock: XUDNAN_clean_linker_2, # of connection points: 2
#     Edge 19, Type (0, 1), BuildingBlock: XUDNAN_clean_linker_2, # of connection points: 2
#     Edge 20, Type (0, 1), BuildingBlock: XUDNAN_clean_linker_2, # of connection points: 2
#     Edge 21, Type (0, 1), BuildingBlock: XUDNAN_clean_linker_2, # of connection points: 2
#     Edge 22, Type (0, 1), BuildingBlock: XUDNAN_clean_linker_2, # of connection points: 2
#     Edge 23, Type (0, 1), BuildingBlock: XUDNAN_clean_linker_2, # of connection points: 2
#     Edge 24, Type (0, 1), BuildingBlock: XUDNAN_clean_linker_2, # of connection points: 2
#     Edge 25, Type (0, 1), BuildingBlock: XUDNAN_clean_linker_2, # of connection points: 2
#     Edge 26, Type (0, 1), BuildingBlock: XUDNAN_clean_linker_2, # of connection points: 2
#     Edge 27, Type (0, 1), BuildingBlock: XUDNAN_clean_linker_2, # of connection points: 2
#     Edge 28, Type (0, 1), BuildingBlock: XUDNAN_clean_linker_2, # of connection points: 2
#     Edge 29, Type (0, 1), BuildingBlock: XUDNAN_clean_linker_2, # of connection points: 2
#     Edge 30, Type (0, 1), BuildingBlock: XUDNAN_clean_linker_2, # of connection points: 2
#     Edge 31, Type (0, 1), BuildingBlock: XUDNAN_clean_linker_2, # of connection points: 2
#     Edge 32, Type (0, 1), BuildingBlock: XUDNAN_clean_linker_2, # of connection points: 2
#     Edge 33, Type (0, 1), BuildingBlock: XUDNAN_clean_linker_2, # of connection points: 2
#     Edge 34, Type (0, 1), BuildingBlock: XUDNAN_clean_linker_2, # of connection points: 2
#     Edge 35, Type (0, 1), BuildingBlock: XUDNAN_clean_linker_2, # of connection points: 2
# Relax obj value: 0.074
# Max RMSD: 0.230
# Mean RMSD: 0.156
data_MOF--net-ssa--node1-ESEHIV_clean_sbu_0--node2-AZAVOO_clean_linker_0--edge1-XUDNAN_clean_linker_2
_symmetry_space_group_name_H-M    P1
_symmetry_Int_Tables_number       1
_symmetry_cell_setting            triclinic
loop_
_symmetry_equiv_pos_as_xyz
'x, y, z'
_cell_length_a     49.791338
_cell_length_b     53.533361
_cell_length_c     48.976391
_cell_angle_alpha  88.368068
_cell_angle_beta   93.685159
_cell_angle_gamma 122.38194
loop_
_atom_site_label
_atom_site_type_symbol
_atom_site_fract_x
_atom_site_fract_y
_atom_site_fract_z
_atom_type_partial_charge
Cu0 Cu 0.16093 0.56376 0.00735 0.0
N1 N 0.16361 0.54857 0.97454 0.0
N2 N 0.14859 0.5165 0.93998 0.0
C3 C 0.14064 0.52234 0.96377 0.0
C4 C 0.17793 0.54025 0.93571 0.0
C5 C 0.18712 0.56 0.95708 0.0
O6 O 0.11725 0.55417 0.00882 0.0
C7 C 0.20435 0.55537 0.03569 0.0
O8 O 0.22084 0.57302 0.01589 0.0
H9 H 0.11825 0.50824 0.97316 0.0
H10 H 0.20933 0.58115 0.95972 0.0
N11 N 0.18754 0.60484 0.00893 0.0
N12 N 0.21413 0.64981 0.02787 0.0
C13 C 0.19997 0.62056 0.03228 0.0
C14 C 0.19431 0.62486 0.98896 0.0
C15 C 0.21055 0.65274 1.00069 0.0
C16 C 0.10709 0.56134 0.98734 0.0
O17 O 0.12619 0.57368 0.9672 0.0
H18 H 0.19687 0.61062 0.05233 0.0
H19 H 0.18672 0.61952 0.9676 0.0
O20 O 0.17537 0.54763 0.03676 0.0
H21 H 0.19197 0.54319 0.91856 0.0
H22 H 0.21819 0.6734 0.99025 0.0
Cu23 Cu 0.5801 0.00931 0.56715 0.0
N24 N 0.58878 0.97939 0.5653 0.0
N25 N 0.60689 0.95229 0.55034 0.0
C26 C 0.60927 0.97864 0.54916 0.0
C27 C 0.58422 0.9359 0.56804 0.0
C28 C 0.57319 0.95269 0.5773 0.0
O29 O 0.55468 0.00702 0.53459 0.0
C30 C 0.64418 0.05246 0.58324 0.0
O31 O 0.64597 0.02954 0.59036 0.0
H32 H 0.62478 0.99665 0.53604 0.0
H33 H 0.55442 0.94556 0.5912 0.0
N34 N 0.55534 0.00319 0.59659 0.0
N35 N 0.53561 0.01296 0.63169 0.0
C36 C 0.56049 0.02329 0.61556 0.0
C37 C 0.52626 0.97943 0.60069 0.0
C38 C 0.51412 0.98528 0.62236 0.0
C39 C 0.56219 0.00707 0.51025 0.0
O40 O 0.58996 0.01099 0.50602 0.0
H41 H 0.58167 0.04531 0.61684 0.0
H42 H 0.5141 0.95979 0.58793 0.0
O43 O 0.61845 0.04833 0.57175 0.0
H44 H 0.57588 0.91326 0.57359 0.0
H45 H 0.49054 0.97075 0.62963 0.0
Cu46 Cu 0.60755 0.50784 0.09558 0.0
N47 N 0.60395 0.4714 0.09369 0.0
N48 N 0.59386 0.42979 0.07406 0.0
C49 C 0.59559 0.45567 0.07034 0.0
C50 C 0.60147 0.42926 0.10097 0.0
C51 C 0.60779 0.45504 0.11303 0.0
O52 O 0.62462 0.52697 0.06128 0.0
C53 C 0.55056 0.4853 0.1201 0.0
O54 O 0.56155 0.47091 0.13391 0.0
H55 H 0.59011 0.46288 0.05109 0.0
H56 H 0.61422 0.46115 0.13439 0.0
N57 N 0.63404 0.53202 0.12467 0.0
N58 N 0.65483 0.57015 0.15387 0.0
C59 C 0.63503 0.55657 0.13171 0.0
C60 C 0.65393 0.52975 0.14303 0.0
C61 C 0.66676 0.5533 0.16121 0.0
C62 C 0.65399 0.53731 0.05842 0.0
O63 O 0.67167 0.53744 0.07958 0.0
H64 H 0.6207 0.56384 0.12104 0.0
H65 H 0.65873 0.5123 0.14328 0.0
O66 O 0.56628 0.502 0.10062 0.0
H67 H 0.60246 0.41157 0.11123 0.0
H68 H 0.68365 0.55774 0.1783 0.0
Cu69 Cu 0.05015 0.48548 0.54151 0.0
N70 N 0.03851 0.45628 0.51542 0.0
N71 N 0.04051 0.43462 0.47824 0.0
C72 C 0.0538 0.45995 0.49261 0.0
C73 C 0.01594 0.41402 0.49236 0.0
C74 C 0.01448 0.42763 0.51528 0.0
O75 O 0.08518 0.52308 0.52913 0.0
C76 C 0.05629 0.45033 0.58469 0.0
O77 O 0.05307 0.4318 0.56587 0.0
H78 H 0.07476 0.48059 0.48695 0.0
H79 H 0.99755 0.41731 0.53102 0.0
N80 N 0.01602 0.48922 0.54727 0.0
N81 N 0.98263 0.49154 0.57363 0.0
C82 C 0.01153 0.49556 0.57217 0.0
C83 C 0.98906 0.48125 0.53204 0.0
C84 C 0.96827 0.48281 0.5484 0.0
C85 C 0.08066 0.53459 0.50763 0.0
O86 O 0.0524 0.52074 0.49468 0.0
H87 H 0.02839 0.50111 0.58952 0.0
H88 H 0.98404 0.47293 0.51126 0.0
O89 O 0.05981 0.47494 0.57756 0.0
H90 H 1.00039 0.39097 0.48654 0.0
H91 H 0.94382 0.47585 0.54287 0.0
Cu92 Cu 0.60368 0.0509 0.09243 0.0
N93 N 0.59538 0.08029 0.09833 0.0
N94 N 0.58369 0.11422 0.08678 0.0
C95 C 0.5872 0.0926 0.07786 0.0
C96 C 0.59003 0.11565 0.11412 0.0
C97 C 0.59714 0.09452 0.12124 0.0
O98 O 0.61183 0.054 0.05379 0.0
C99 C 0.54144 0.00666 0.10933 0.0
O100 O 0.5345 0.02707 0.10616 0.0
H101 H 0.58482 0.0863 0.05663 0.0
H102 H 0.6035 0.09011 0.14153 0.0
N103 N 0.63915 0.05726 0.11377 0.0
N104 N 0.67182 0.04593 0.1358 0.0
C105 C 0.6463 0.03654 0.11817 0.0
C106 C 0.66076 0.08064 0.12936 0.0
C107 C 0.68096 0.07361 0.14317 0.0
C108 C 0.63352 0.05253 0.04297 0.0
O109 O 0.64998 0.0438 0.05767 0.0
H110 H 0.63239 0.01459 0.10918 0.0
H111 H 0.66141 0.10106 0.13099 0.0
O112 O 0.56844 0.01225 0.10272 0.0
H113 H 0.58961 0.13083 0.12796 0.0
H114 H 0.70067 0.08761 0.15752 0.0
Cu115 Cu 0.54776 0.51256 0.58924 0.0
N116 N 0.56435 0.55179 0.57823 0.0
N117 N 0.58203 0.58931 0.54876 0.0
C118 C 0.57567 0.56174 0.55339 0.0
C119 C 0.57479 0.59721 0.57173 0.0
C120 C 0.56362 0.57393 0.5898 0.0
O121 O 0.5214 0.48772 0.55813 0.0
C122 C 0.60626 0.52668 0.61398 0.0
O123 O 0.61128 0.55337 0.61459 0.0
H124 H 0.57782 0.5484 0.53855 0.0
H125 H 0.55396 0.57283 0.60919 0.0
N126 N 0.52462 0.50206 0.62056 0.0
N127 N 0.50572 0.47276 0.65702 0.0
C128 C 0.50845 0.474 0.6297 0.0
C129 C 0.53216 0.51909 0.64298 0.0
C130 C 0.52037 0.5011 0.66541 0.0
C131 C 0.50366 0.49517 0.54534 0.0
O132 O 0.50181 0.51674 0.55519 0.0
H133 H 0.50306 0.45525 0.61731 0.0
H134 H 0.54891 0.54269 0.64386 0.0
O135 O 0.58173 0.50638 0.60058 0.0
H136 H 0.57557 0.61758 0.5746 0.0
H137 H 0.52508 0.50835 0.68656 0.0
H138 H 0.29317 0.44118 0.4809 0.0
H139 H 0.11337 0.42944 0.21118 0.0
H140 H 0.3528 0.49553 0.34691 0.0
H141 H 0.39076 0.49743 0.38157 0.0
H142 H 0.37749 0.41723 0.34824 0.0
H143 H 0.33729 0.41452 0.31465 0.0
H144 H 0.29116 0.47966 0.36824 0.0
H145 H 0.29231 0.47104 0.4175 0.0
H146 H 0.2833 0.38772 0.40171 0.0
H147 H 0.28176 0.39645 0.35247 0.0
H148 H 0.25081 0.4875 0.32461 0.0
H149 H 0.20548 0.48259 0.34638 0.0
H150 H 0.16646 0.38906 0.3572 0.0
H151 H 0.21235 0.39432 0.33541 0.0
H152 H 0.26321 0.49825 0.26402 0.0
H153 H 0.22051 0.50034 0.23865 0.0
H154 H 0.15725 0.4059 0.24835 0.0
H155 H 0.20036 0.40406 0.27331 0.0
H156 H 0.32706 0.50727 0.24638 0.0
H157 H 0.32074 0.5231 0.20041 0.0
H158 H 0.24032 0.43503 0.18195 0.0
H159 H 0.24766 0.41889 0.22773 0.0
H160 H 0.37191 0.50504 0.28102 0.0
H161 H 0.4131 0.51493 0.24967 0.0
H162 H 0.35501 0.42495 0.21971 0.0
H163 H 0.31384 0.41541 0.25076 0.0
O164 O 0.29224 0.44396 0.46134 0.0
O165 O 0.28758 0.40132 0.45211 0.0
O166 O 0.16418 0.47774 0.21677 0.0
O167 O 0.13061 0.42927 0.22134 0.0
C168 C 0.31334 0.4504 0.31252 0.0
C169 C 0.28667 0.44432 0.32691 0.0
C170 C 0.26099 0.44434 0.31302 0.0
C171 C 0.26138 0.44961 0.28464 0.0
C172 C 0.28729 0.45442 0.26996 0.0
C173 C 0.31324 0.45467 0.28389 0.0
C174 C 0.34208 0.4548 0.32838 0.0
C175 C 0.35858 0.47868 0.34673 0.0
C176 C 0.38058 0.47978 0.36654 0.0
C177 C 0.38735 0.45735 0.36811 0.0
C178 C 0.37248 0.43456 0.3482 0.0
C179 C 0.34986 0.43319 0.32863 0.0
C180 C 0.2861 0.43856 0.35681 0.0
C181 C 0.28903 0.4594 0.37546 0.0
C182 C 0.28987 0.45449 0.40359 0.0
C183 C 0.2879 0.42869 0.41355 0.0
C184 C 0.28484 0.40781 0.39473 0.0
C185 C 0.28393 0.41271 0.36662 0.0
C186 C 0.23467 0.44124 0.32833 0.0
C187 C 0.23253 0.46599 0.3318 0.0
C188 C 0.20652 0.46308 0.34403 0.0
C189 C 0.18217 0.43534 0.35309 0.0
C190 C 0.18489 0.41069 0.35041 0.0
C191 C 0.21099 0.41363 0.33803 0.0
C192 C 0.23491 0.45098 0.27034 0.0
C193 C 0.24012 0.47804 0.26061 0.0
C194 C 0.21568 0.47917 0.24616 0.0
C195 C 0.18547 0.45325 0.2414 0.0
C196 C 0.18023 0.42624 0.2516 0.0
C197 C 0.20476 0.42513 0.26594 0.0
C198 C 0.288 0.46187 0.24039 0.0
C199 C 0.30899 0.49104 0.23206 0.0
C200 C 0.30512 0.50012 0.2059 0.0
C201 C 0.27983 0.48032 0.18781 0.0
C202 C 0.25982 0.45074 0.19564 0.0
C203 C 0.26416 0.44148 0.22162 0.0
C204 C 0.34003 0.45949 0.26817 0.0
C205 C 0.3684 0.48738 0.26801 0.0
C206 C 0.39168 0.49304 0.24997 0.0
C207 C 0.38709 0.47073 0.2322 0.0
C208 C 0.3592 0.44247 0.23329 0.0
C209 C 0.33575 0.43698 0.251 0.0
C210 C 0.2892 0.42371 0.44345 0.0
C211 C 0.15954 0.45428 0.22577 0.0
H212 H 0.88928 0.27158 0.99248 0.0
H213 H 0.68418 0.06149 0.76157 0.0
H214 H 0.89781 0.30541 0.85367 0.0
H215 H 0.94893 0.34858 0.86944 0.0
H216 H 0.99808 0.31609 0.82746 0.0
H217 H 0.94662 0.27229 0.8123 0.0
H218 H 0.83966 0.25646 0.87861 0.0
H219 H 0.85386 0.26486 0.9277 0.0
H220 H 0.92506 0.24318 0.91932 0.0
H221 H 0.91039 0.23454 0.87029 0.0
H222 H 0.77716 0.20834 0.83353 0.0
H223 H 0.73544 0.17812 0.86414 0.0
H224 H 0.79702 0.15418 0.90756 0.0
H225 H 0.83691 0.18132 0.87408 0.0
H226 H 0.77803 0.20825 0.77459 0.0
H227 H 0.72812 0.1646 0.75723 0.0
H228 H 0.75865 0.10844 0.79323 0.0
H229 H 0.80871 0.15231 0.8101 0.0
H230 H 0.83719 0.26165 0.74655 0.0
H231 H 0.81223 0.24566 0.7006 0.0
H232 H 0.81378 0.16577 0.71116 0.0
H233 H 0.84173 0.18367 0.75534 0.0
H234 H 0.89756 0.31319 0.7943 0.0
H235 H 0.93376 0.35265 0.76575 0.0
H236 H 0.93844 0.28918 0.71628 0.0
H237 H 0.90672 0.25084 0.74855 0.0
O238 O 0.88399 0.26806 0.97304 0.0
O239 O 0.92038 0.25687 0.96761 0.0
O240 O 0.68921 0.10898 0.74996 0.0
O241 O 0.70367 0.07912 0.76826 0.0
C242 C 0.88715 0.25953 0.82209 0.0
C243 C 0.86532 0.23971 0.84109 0.0
C244 C 0.83521 0.21553 0.83168 0.0
C245 C 0.82797 0.21006 0.80325 0.0
C246 C 0.84975 0.22986 0.78417 0.0
C247 C 0.87885 0.25538 0.79355 0.0
C248 C 0.91843 0.28542 0.83218 0.0
C249 C 0.91957 0.30724 0.84833 0.0
C250 C 0.94877 0.33194 0.85722 0.0
C251 C 0.97742 0.33555 0.84977 0.0
C252 C 0.97631 0.31384 0.8334 0.0
C253 C 0.94702 0.28886 0.82483 0.0
C254 C 0.87389 0.24475 0.87093 0.0
C255 C 0.85819 0.25338 0.88745 0.0
C256 C 0.86642 0.25824 0.91547 0.0
C257 C 0.89059 0.25467 0.92745 0.0
C258 C 0.90633 0.24611 0.91076 0.0
C259 C 0.89803 0.24119 0.88276 0.0
C260 C 0.81021 0.1971 0.85135 0.0
C261 C 0.78139 0.19601 0.84927 0.0
C262 C 0.75766 0.17907 0.86735 0.0
C263 C 0.76261 0.16381 0.88903 0.0
C264 C 0.79172 0.16505 0.89109 0.0
C265 C 0.81497 0.18106 0.87217 0.0
C266 C 0.79711 0.18346 0.79343 0.0
C267 C 0.77396 0.18651 0.77859 0.0
C268 C 0.74543 0.16153 0.76877 0.0
C269 C 0.73942 0.13301 0.77379 0.0
C270 C 0.76253 0.13006 0.78896 0.0
C271 C 0.7911 0.15507 0.79868 0.0
C272 C 0.84094 0.22364 0.75444 0.0
C273 C 0.83325 0.24128 0.73835 0.0
C274 C 0.81837 0.23174 0.71222 0.0
C275 C 0.80996 0.2039 0.70206 0.0
C276 C 0.81993 0.18743 0.71766 0.0
C277 C 0.83576 0.1975 0.74328 0.0
C278 C 0.89957 0.27895 0.77396 0.0
C279 C 0.90711 0.30792 0.7777 0.0
C280 C 0.92744 0.33062 0.76053 0.0
C281 C 0.93928 0.32488 0.73766 0.0
C282 C 0.93086 0.29541 0.7336 0.0
C283 C 0.91193 0.27296 0.75187 0.0
C284 C 0.8993 0.2599 0.95721 0.0
C285 C 0.70923 0.10641 0.76325 0.0
H286 H 0.70242 0.77644 0.1518 0.0
H287 H 0.72272 0.99515 0.38193 0.0
H288 H 0.63062 0.74896 0.29456 0.0
H289 H 0.62572 0.70903 0.26717 0.0
H290 H 0.72567 0.74329 0.28406 0.0
H291 H 0.73063 0.78364 0.31128 0.0
H292 H 0.6521 0.7876 0.25218 0.0
H293 H 0.66384 0.77832 0.20721 0.0
H294 H 0.76468 0.83472 0.22879 0.0
H295 H 0.75254 0.84355 0.27388 0.0
H296 H 0.657 0.83909 0.25763 0.0
H297 H 0.66342 0.87509 0.22267 0.0
H298 H 0.75316 0.94079 0.26279 0.0
H299 H 0.74742 0.90404 0.29719 0.0
H300 H 0.64834 0.86587 0.31518 0.0
H301 H 0.65003 0.91042 0.32861 0.0
H302 H 0.74122 0.94244 0.37204 0.0
H303 H 0.73941 0.89799 0.35811 0.0
H304 H 0.62856 0.8203 0.3646 0.0
H305 H 0.62207 0.84132 0.40549 0.0
H306 H 0.71861 0.87103 0.43415 0.0
H307 H 0.72494 0.85023 0.39291 0.0
H308 H 0.62042 0.75316 0.3432 0.0
H309 H 0.6019 0.7117 0.37501 0.0
H310 H 0.69581 0.75485 0.41567 0.0
H311 H 0.71437 0.79604 0.38327 0.0
O312 O 0.69833 0.78084 0.16952 0.0
O313 O 0.74988 0.8112 0.18104 0.0
O314 O 0.67506 0.96041 0.35286 0.0
O315 O 0.72161 0.9775 0.37604 0.0
C316 C 0.68554 0.79749 0.31384 0.0
C317 C 0.69442 0.82016 0.29425 0.0
C318 C 0.69695 0.84676 0.30128 0.0
C319 C 0.69206 0.85122 0.32832 0.0
C320 C 0.68378 0.82881 0.3481 0.0
C321 C 0.67998 0.80172 0.34076 0.0
C322 C 0.68091 0.76904 0.30513 0.0
C323 C 0.65114 0.7471 0.29348 0.0
C324 C 0.64842 0.72449 0.27767 0.0
C325 C 0.67534 0.72326 0.27361 0.0
C326 C 0.70457 0.7437 0.28721 0.0
C327 C 0.70738 0.7666 0.3028 0.0
C328 C 0.70149 0.81607 0.2663 0.0
C329 C 0.6767 0.79792 0.24714 0.0
C330 C 0.68348 0.79269 0.22147 0.0
C331 C 0.71521 0.80565 0.21445 0.0
C332 C 0.73999 0.82432 0.23357 0.0
C333 C 0.73315 0.82948 0.25928 0.0
C334 C 0.70193 0.86877 0.27976 0.0
C335 C 0.67843 0.861 0.25856 0.0
C336 C 0.68204 0.88159 0.2387 0.0
C337 C 0.70887 0.91056 0.24004 0.0
C338 C 0.73231 0.91852 0.26138 0.0
C339 C 0.72904 0.89763 0.28096 0.0
C340 C 0.69373 0.87876 0.33571 0.0
C341 C 0.66874 0.88265 0.32743 0.0
C342 C 0.66973 0.90806 0.3352 0.0
C343 C 0.69575 0.92997 0.35147 0.0
C344 C 0.72084 0.92601 0.35955 0.0
C345 C 0.71986 0.90065 0.35165 0.0
C346 C 0.67715 0.83365 0.37589 0.0
C347 C 0.64786 0.83037 0.38023 0.0
C348 C 0.64426 0.84248 0.40357 0.0
C349 C 0.66998 0.85817 0.42291 0.0
C350 C 0.69852 0.85943 0.41944 0.0
C351 C 0.70206 0.84723 0.39611 0.0
C352 C 0.66879 0.77736 0.36077 0.0
C353 C 0.63703 0.75353 0.35885 0.0
C354 C 0.62652 0.72993 0.377 0.0
C355 C 0.64749 0.73001 0.39767 0.0
C356 C 0.67914 0.75431 0.39998 0.0
C357 C 0.68976 0.77775 0.38153 0.0
C358 C 0.72232 0.79951 0.18736 0.0
C359 C 0.69674 0.95682 0.36009 0.0
H360 H 0.78474 0.56033 0.65052 0.0
H361 H 0.03198 0.55557 0.84186 0.0
H362 H 0.7995 0.58497 0.80763 0.0
H363 H 0.75173 0.57352 0.77953 0.0
H364 H 0.72363 0.48186 0.77569 0.0
H365 H 0.77015 0.49337 0.80484 0.0
H366 H 0.84087 0.59173 0.76243 0.0
H367 H 0.81905 0.58698 0.71528 0.0
H368 H 0.78874 0.49468 0.71485 0.0
H369 H 0.81055 0.49975 0.76208 0.0
H370 H 0.90511 0.58802 0.75917 0.0
H371 H 0.92667 0.57425 0.72271 0.0
H372 H 0.886 0.48704 0.75782 0.0
H373 H 0.86567 0.5013 0.79421 0.0
H374 H 0.93837 0.60855 0.82028 0.0
H375 H 0.99182 0.61691 0.82483 0.0
H376 H 0.9516 0.52641 0.85091 0.0
H377 H 0.89822 0.51851 0.8467 0.0
H378 H 0.91337 0.60622 0.87532 0.0
H379 H 0.94716 0.60606 0.91384 0.0
H380 H 0.87967 0.51299 0.92545 0.0
H381 H 0.84616 0.51305 0.88644 0.0
H382 H 0.84568 0.59703 0.8769 0.0
H383 H 0.81052 0.59683 0.90999 0.0
H384 H 0.74177 0.5046 0.89174 0.0
H385 H 0.77729 0.50472 0.85936 0.0
O386 O 0.79306 0.56166 0.66919 0.0
O387 O 0.77424 0.51349 0.67121 0.0
O388 O 0.03178 0.60157 0.83768 0.0
O389 O 0.01126 0.55318 0.84112 0.0
C390 C 0.82119 0.54792 0.81582 0.0
C391 C 0.83963 0.54908 0.79452 0.0
C392 C 0.86934 0.55255 0.80068 0.0
C393 C 0.88216 0.55758 0.82786 0.0
C394 C 0.86427 0.55727 0.84939 0.0
C395 C 0.83337 0.55193 0.84339 0.0
C396 C 0.78821 0.53999 0.80828 0.0
C397 C 0.78209 0.56221 0.80184 0.0
C398 C 0.75509 0.55566 0.78527 0.0
C399 C 0.73412 0.52687 0.7746 0.0
C400 C 0.73888 0.50422 0.78351 0.0
C401 C 0.76553 0.51072 0.80035 0.0
C402 C 0.82739 0.54613 0.76554 0.0
C403 C 0.82964 0.57056 0.75203 0.0
C404 C 0.81713 0.56777 0.72514 0.0
C405 C 0.80217 0.54046 0.71129 0.0
C406 C 0.8001 0.51603 0.72492 0.0
C407 C 0.81266 0.51887 0.75182 0.0
C408 C 0.88427 0.54573 0.77939 0.0
C409 C 0.90133 0.56612 0.75901 0.0
C410 C 0.91331 0.55812 0.73815 0.0
C411 C 0.9082 0.52959 0.73746 0.0
C412 C 0.89101 0.50937 0.75804 0.0
C413 C 0.87929 0.51742 0.77882 0.0
C414 C 0.91455 0.56301 0.8333 0.0
C415 C 0.94123 0.59071 0.82736 0.0
C416 C 0.97169 0.59539 0.82992 0.0
C417 C 0.97592 0.57224 0.83803 0.0
C418 C 0.94912 0.54462 0.84444 0.0
C419 C 0.91866 0.54009 0.84222 0.0
C420 C 0.87739 0.55962 0.87798 0.0
C421 C 0.90507 0.58611 0.88698 0.0
C422 C 0.92437 0.58599 0.90891 0.0
C423 C 0.91593 0.5595 0.92247 0.0
C424 C 0.88642 0.53372 0.91549 0.0
C425 C 0.86725 0.53377 0.89328 0.0
C426 C 0.81388 0.55098 0.8655 0.0
C427 C 0.82326 0.57669 0.8804 0.0
C428 C 0.80317 0.57657 0.89918 0.0
C429 C 0.77326 0.55082 0.90304 0.0
C430 C 0.76443 0.52489 0.88874 0.0
C431 C 0.7847 0.52491 0.87032 0.0
C432 C 0.78891 0.53759 0.68272 0.0
C433 C 0.00805 0.57668 0.83905 0.0
H434 H 0.32334 0.85301 0.48584 0.0
H435 H 0.13657 0.60498 0.27844 0.0
H436 H 0.33119 0.8653 0.33067 0.0
H437 H 0.37215 0.90989 0.35539 0.0
H438 H 0.43088 0.87275 0.36578 0.0
H439 H 0.39059 0.82929 0.33931 0.0
H440 H 0.27995 0.8157 0.37196 0.0
H441 H 0.29096 0.83294 0.41953 0.0
H442 H 0.36523 0.81391 0.42858 0.0
H443 H 0.35376 0.79652 0.38105 0.0
H444 H 0.22262 0.74825 0.34962 0.0
H445 H 0.19218 0.71248 0.38516 0.0
H446 H 0.27203 0.70312 0.40603 0.0
H447 H 0.30211 0.73884 0.37077 0.0
H448 H 0.22338 0.75265 0.2803 0.0
H449 H 0.17395 0.70632 0.26682 0.0
H450 H 0.21243 0.65706 0.30447 0.0
H451 H 0.26185 0.70352 0.31751 0.0
H452 H 0.28857 0.80878 0.24567 0.0
H453 H 0.27823 0.79551 0.19734 0.0
H454 H 0.27429 0.71419 0.21685 0.0
H455 H 0.2887 0.72967 0.26438 0.0
H456 H 0.34397 0.86241 0.27912 0.0
H457 H 0.38381 0.89237 0.24628 0.0
H458 H 0.39579 0.81948 0.23243 0.0
H459 H 0.35823 0.79095 0.26714 0.0
O460 O 0.31917 0.84582 0.46719 0.0
O461 O 0.35712 0.83568 0.47077 0.0
O462 O 0.13735 0.64998 0.26408 0.0
O463 O 0.15591 0.62362 0.28339 0.0
C464 C 0.33047 0.81495 0.32409 0.0
C465 C 0.31005 0.79561 0.34398 0.0
C466 C 0.28343 0.76765 0.33621 0.0
C467 C 0.27595 0.75969 0.30823 0.0
C468 C 0.29662 0.77886 0.28819 0.0
C469 C 0.32455 0.80622 0.29629 0.0
C470 C 0.35805 0.84421 0.33315 0.0
C471 C 0.35348 0.86741 0.3374 0.0
C472 C 0.37675 0.89266 0.35193 0.0
C473 C 0.40465 0.89478 0.36319 0.0
C474 C 0.40996 0.8722 0.35727 0.0
C475 C 0.38692 0.84723 0.34217 0.0
C476 C 0.31617 0.80503 0.37312 0.0
C477 C 0.29848 0.81517 0.38433 0.0
C478 C 0.30488 0.82505 0.41146 0.0
C479 C 0.32906 0.82491 0.42784 0.0
C480 C 0.34651 0.8144 0.41653 0.0
C481 C 0.34004 0.80448 0.38941 0.0
C482 C 0.2646 0.7462 0.35771 0.0
C483 C 0.23345 0.73844 0.36193 0.0
C484 C 0.21611 0.71796 0.38215 0.0
C485 C 0.22975 0.70506 0.39855 0.0
C486 C 0.261 0.71301 0.39416 0.0
C487 C 0.2782 0.73332 0.37394 0.0
C488 C 0.24613 0.73144 0.29995 0.0
C489 C 0.2211 0.73182 0.28554 0.0
C490 C 0.19289 0.70533 0.27791 0.0
C491 C 0.18921 0.67797 0.28462 0.0
C492 C 0.21443 0.67772 0.29902 0.0
C493 C 0.24265 0.70422 0.30657 0.0
C494 C 0.28923 0.77015 0.25872 0.0
C495 C 0.28596 0.78832 0.23936 0.0
C496 C 0.27954 0.7804 0.21168 0.0
C497 C 0.27514 0.75356 0.20277 0.0
C498 C 0.27816 0.73532 0.22244 0.0
C499 C 0.28575 0.74382 0.24992 0.0
C500 C 0.34851 0.82462 0.27597 0.0
C501 C 0.35577 0.8532 0.26944 0.0
C502 C 0.37818 0.87011 0.25018 0.0
C503 C 0.39332 0.85854 0.23653 0.0
C504 C 0.3854 0.8296 0.24285 0.0
C505 C 0.36359 0.81303 0.26254 0.0
C506 C 0.33604 0.83575 0.45655 0.0
C507 C 0.15923 0.64977 0.27669 0.0
H508 H 0.52833 0.27212 0.642 0.0
H509 H 0.52501 0.07338 0.87235 0.0
H510 H 0.56765 0.3119 0.78858 0.0
H511 H 0.55641 0.34656 0.7649 0.0
H512 H 0.45977 0.29544 0.79025 0.0
H513 H 0.4713 0.26094 0.81401 0.0
H514 H 0.5687 0.26156 0.7543 0.0
H515 H 0.56097 0.26894 0.70556 0.0
H516 H 0.46209 0.23666 0.7168 0.0
H517 H 0.47009 0.22905 0.76541 0.0
H518 H 0.57856 0.21496 0.78473 0.0
H519 H 0.57562 0.1764 0.75633 0.0
H520 H 0.47355 0.13458 0.74554 0.0
H521 H 0.47674 0.17324 0.77382 0.0
H522 H 0.58696 0.21754 0.85147 0.0
H523 H 0.59351 0.17737 0.86785 0.0
H524 H 0.49443 0.11394 0.84474 0.0
H525 H 0.48814 0.15436 0.82878 0.0
H526 H 0.58401 0.26449 0.88519 0.0
H527 H 0.59089 0.25207 0.93264 0.0
H528 H 0.49544 0.17445 0.92665 0.0
H529 H 0.48883 0.18705 0.87931 0.0
H530 H 0.57711 0.31179 0.85419 0.0
H531 H 0.5833 0.33891 0.89602 0.0
H532 H 0.4887 0.26971 0.91693 0.0
H533 H 0.48291 0.24272 0.87524 0.0
O534 O 0.53083 0.26889 0.66128 0.0
O535 O 0.48024 0.2523 0.6682 0.0
O536 O 0.57385 0.12319 0.87764 0.0
O537 O 0.52314 0.08966 0.8659 0.0
C538 C 0.52522 0.26005 0.81251 0.0
C539 C 0.52491 0.24085 0.79293 0.0
C540 C 0.52902 0.21765 0.80152 0.0
C541 C 0.53307 0.21335 0.82968 0.0
C542 C 0.53294 0.23217 0.84924 0.0
C543 C 0.52915 0.25563 0.8407 0.0
C544 C 0.52032 0.284 0.80307 0.0
C545 C 0.54434 0.3087 0.78966 0.0
C546 C 0.53786 0.32843 0.77614 0.0
C547 C 0.50713 0.32358 0.77557 0.0
C548 C 0.48357 0.29957 0.79016 0.0
C549 C 0.49018 0.28004 0.80394 0.0
C550 C 0.51999 0.24489 0.76334 0.0
C551 C 0.54538 0.256 0.74614 0.0
C552 C 0.5409 0.26025 0.71834 0.0
C553 C 0.51092 0.25345 0.70729 0.0
C554 C 0.48549 0.24217 0.72465 0.0
C555 C 0.48999 0.23786 0.75241 0.0
C556 C 0.52786 0.19688 0.78128 0.0
C557 C 0.55568 0.19778 0.77576 0.0
C558 C 0.55396 0.1758 0.75955 0.0
C559 C 0.52433 0.15238 0.74891 0.0
C560 C 0.49666 0.15219 0.75371 0.0
C561 C 0.49845 0.17434 0.76965 0.0
C562 C 0.53714 0.18881 0.83885 0.0
C563 C 0.56674 0.19494 0.84995 0.0
C564 C 0.5704 0.17196 0.85928 0.0
C565 C 0.54448 0.14242 0.8576 0.0
C566 C 0.51488 0.13641 0.84631 0.0
C567 C 0.51124 0.15943 0.83708 0.0
C568 C 0.536 0.22656 0.87882 0.0
C569 C 0.56443 0.24511 0.89434 0.0
C570 C 0.56827 0.23803 0.92142 0.0
C571 C 0.54378 0.21216 0.93329 0.0
C572 C 0.51488 0.19431 0.91795 0.0
C573 C 0.51102 0.20149 0.89098 0.0
C574 C 0.52959 0.27529 0.86173 0.0
C575 C 0.55736 0.30301 0.86737 0.0
C576 C 0.56088 0.31841 0.89133 0.0
C577 C 0.53668 0.30621 0.91002 0.0
C578 C 0.508 0.27942 0.90321 0.0
C579 C 0.50448 0.26414 0.87926 0.0
C580 C 0.50627 0.25813 0.67778 0.0
C581 C 0.54818 0.11795 0.86766 0.0
H582 H 0.17894 0.51851 0.08036 0.0
H583 H 0.26553 0.5694 0.03656 0.0
H584 H 0.29298 0.55369 0.0693 0.0
H585 H 0.21746 0.53452 0.14772 0.0
H586 H 0.19065 0.49819 0.16103 0.0
H587 H 0.17697 0.51259 0.13364 0.0
H588 H 0.15977 0.46646 0.10404 0.0
H589 H 0.1735 0.452 0.13136 0.0
H590 H 0.1885 0.4569 0.09781 0.0
H591 H 0.31224 0.53464 0.1073 0.0
H592 H 0.32186 0.51283 0.14907 0.0
H593 H 0.22332 0.47331 0.16843 0.0
C594 C 0.20361 0.52621 0.07763 0.0
C595 C 0.21999 0.54519 0.0558 0.0
C596 C 0.25234 0.55486 0.05303 0.0
C597 C 0.26823 0.54602 0.07152 0.0
C598 C 0.25153 0.52739 0.09274 0.0
C599 C 0.21997 0.51752 0.09598 0.0
C600 C 0.208 0.49808 0.12107 0.0
C601 C 0.19767 0.51167 0.14211 0.0
C602 C 0.18083 0.46648 0.11308 0.0
C603 C 0.23786 0.49887 0.13139 0.0
C604 C 0.26264 0.51591 0.11468 0.0
C605 C 0.29297 0.52102 0.12047 0.0
C606 C 0.29825 0.50862 0.14419 0.0
C607 C 0.27328 0.4912 0.16169 0.0
C608 C 0.24263 0.48605 0.15503 0.0
H609 H 0.70592 0.0713 0.59886 0.0
H610 H 0.63971 0.10058 0.59022 0.0
H611 H 0.67949 0.14739 0.61374 0.0
H612 H 0.73409 0.09584 0.66355 0.0
H613 H 0.77506 0.10802 0.65941 0.0
H614 H 0.74403 0.07938 0.63757 0.0
H615 H 0.77137 0.10987 0.5947 0.0
H616 H 0.80277 0.13862 0.61647 0.0
H617 H 0.78073 0.14732 0.5916 0.0
H618 H 0.7211 0.18526 0.6463 0.0
H619 H 0.76264 0.21299 0.68238 0.0
H620 H 0.80548 0.16277 0.6658 0.0
C621 C 0.70021 0.08798 0.60115 0.0
C622 C 0.6698 0.08237 0.59267 0.0
C623 C 0.663 0.10454 0.59629 0.0
C624 C 0.68545 0.13121 0.60964 0.0
C625 C 0.71484 0.13565 0.61863 0.0
C626 C 0.72255 0.11492 0.61402 0.0
C627 C 0.75467 0.12396 0.62773 0.0
C628 C 0.75176 0.10041 0.64828 0.0
C629 C 0.77882 0.13033 0.60635 0.0
C630 C 0.76291 0.15207 0.64213 0.0
C631 C 0.73978 0.15857 0.63644 0.0
C632 C 0.74001 0.1811 0.65017 0.0
C633 C 0.76405 0.19696 0.67064 0.0
C634 C 0.78793 0.19051 0.67716 0.0
C635 C 0.78773 0.16839 0.66178 0.0
H636 H 0.67137 0.58594 0.20783 0.0
H637 H 0.65172 0.61459 0.12943 0.0
H638 H 0.65695 0.65769 0.15171 0.0
H639 H 0.62863 0.60562 0.24731 0.0
H640 H 0.65663 0.61872 0.27662 0.0
H641 H 0.65344 0.59085 0.2545 0.0
H642 H 0.7138 0.62364 0.24687 0.0
H643 H 0.71724 0.65157 0.26914 0.0
H644 H 0.73035 0.66095 0.2348 0.0
H645 H 0.66004 0.69529 0.18227 0.0
H646 H 0.66359 0.72707 0.2197 0.0
H647 H 0.68361 0.67631 0.27862 0.0
C648 C 0.66878 0.60159 0.19531 0.0
C649 C 0.66083 0.59667 0.16687 0.0
C650 C 0.65722 0.61751 0.15127 0.0
C651 C 0.66037 0.64222 0.16371 0.0
C652 C 0.66746 0.64605 0.1918 0.0
C653 C 0.67197 0.62656 0.20744 0.0
C654 C 0.67847 0.63556 0.23743 0.0
C655 C 0.65275 0.61124 0.25499 0.0
C656 C 0.71196 0.6434 0.24766 0.0
C657 C 0.6763 0.66279 0.23617 0.0
C658 C 0.66995 0.66837 0.20957 0.0
C659 C 0.66535 0.69137 0.20314 0.0
C660 C 0.66725 0.70918 0.22447 0.0
C661 C 0.67387 0.70401 0.25183 0.0
C662 C 0.67876 0.68073 0.25777 0.0
H663 H 0.95081 0.51799 0.58497 0.0
H664 H 0.98353 0.46254 0.61874 0.0
H665 H 0.96686 0.46553 0.66423 0.0
H666 H 0.97673 0.56641 0.64124 0.0
H667 H 0.94303 0.57052 0.63995 0.0
H668 H 0.9546 0.56197 0.6092 0.0
H669 H 0.89793 0.5154 0.60113 0.0
H670 H 0.88602 0.52407 0.63164 0.0
H671 H 0.88097 0.48837 0.62789 0.0
H672 H 0.95205 0.47828 0.70622 0.0
H673 H 0.93492 0.49639 0.74275 0.0
H674 H 0.90939 0.54242 0.68239 0.0
C675 C 0.95362 0.50598 0.6019 0.0
C676 C 0.96852 0.49016 0.59866 0.0
C677 C 0.97244 0.475 0.62115 0.0
C678 C 0.96299 0.47651 0.64695 0.0
C679 C 0.94945 0.49316 0.64983 0.0
C680 C 0.94428 0.50731 0.62797 0.0
C681 C 0.93032 0.52462 0.63719 0.0
C682 C 0.9525 0.55785 0.63156 0.0
C683 C 0.89681 0.51238 0.62366 0.0
C684 C 0.92906 0.51835 0.66763 0.0
C685 C 0.94023 0.50015 0.67436 0.0
C686 C 0.94265 0.49209 0.70122 0.0
C687 C 0.93277 0.50243 0.7218 0.0
C688 C 0.92037 0.52048 0.71543 0.0
C689 C 0.91882 0.52873 0.68795 0.0
H690 H 0.48174 0.98695 0.12665 0.0
H691 H 0.55389 0.96478 0.12731 0.0
H692 H 0.52242 0.92298 0.15795 0.0
H693 H 0.46526 0.97284 0.19546 0.0
H694 H 0.4229 0.95671 0.19045 0.0
H695 H 0.44931 0.98325 0.16639 0.0
H696 H 0.41835 0.94576 0.12666 0.0
H697 H 0.39155 0.9192 0.15057 0.0
H698 H 0.41251 0.9095 0.12881 0.0
H699 H 0.48674 0.88763 0.19278 0.0
H700 H 0.44686 0.85817 0.22626 0.0
H701 H 0.39553 0.90064 0.20078 0.0
C702 C 0.49062 0.97296 0.13277 0.0
C703 C 0.52034 0.97922 0.12452 0.0
C704 C 0.53117 0.96043 0.1332 0.0
C705 C 0.51349 0.93663 0.15069 0.0
C706 C 0.48479 0.9316 0.15905 0.0
C707 C 0.47311 0.94889 0.15005 0.0
C708 C 0.44208 0.93927 0.16287 0.0
C709 C 0.44509 0.96452 0.17979 0.0
C710 C 0.41449 0.92774 0.14092 0.0
C711 C 0.43866 0.91445 0.18106 0.0
C712 C 0.46355 0.91041 0.17852 0.0
C713 C 0.46669 0.89008 0.19446 0.0
C714 C 0.44369 0.87327 0.21338 0.0
C715 C 0.41751 0.87655 0.21612 0.0
C716 C 0.41514 0.89748 0.19951 0.0
H717 H 0.5394 0.47168 0.7023 0.0
H718 H 0.45565 0.41682 0.64898 0.0
H719 H 0.44448 0.37261 0.67592 0.0
H720 H 0.56445 0.42165 0.70811 0.0
H721 H 0.57904 0.43015 0.74338 0.0
H722 H 0.5784 0.45774 0.722 0.0
H723 H 0.5447 0.46355 0.75629 0.0
H724 H 0.54537 0.43612 0.778 0.0
H725 H 0.50786 0.43143 0.76629 0.0
H726 H 0.44396 0.33439 0.70753 0.0
H727 H 0.45559 0.30442 0.73956 0.0
H728 H 0.54103 0.38423 0.77122 0.0
C729 C 0.51825 0.45047 0.69679 0.0
C730 C 0.4979 0.44758 0.67395 0.0
C731 C 0.47119 0.41934 0.66663 0.0
C732 C 0.4647 0.39424 0.68182 0.0
C733 C 0.48539 0.39779 0.70412 0.0
C734 C 0.51171 0.42519 0.71151 0.0
C735 C 0.53152 0.42274 0.73501 0.0
C736 C 0.56534 0.43371 0.7266 0.0
C737 C 0.5324 0.43945 0.76041 0.0
C738 C 0.5125 0.38961 0.73944 0.0
C739 C 0.48572 0.37569 0.7217 0.0
C740 C 0.46473 0.34509 0.72164 0.0
C741 C 0.47144 0.32827 0.74001 0.0
C742 C 0.49909 0.34201 0.75798 0.0
C743 C 0.51972 0.37313 0.75772 0.0
H744 H 0.58316 0.89721 0.52991 0.0
H745 H 0.66693 0.9862 0.53345 0.0
H746 H 0.69381 0.97071 0.50364 0.0
H747 H 0.62477 0.85779 0.52895 0.0
H748 H 0.59549 0.83008 0.50514 0.0
H749 H 0.58388 0.84764 0.52845 0.0
H750 H 0.5606 0.86339 0.48757 0.0
H751 H 0.57216 0.84595 0.46416 0.0
H752 H 0.58566 0.88446 0.46017 0.0
H753 H 0.71048 0.94609 0.47181 0.0
H754 H 0.71504 0.91488 0.43868 0.0
H755 H 0.62019 0.84177 0.45569 0.0
C756 C 0.60739 0.91326 0.52487 0.0
C757 C 0.6231 0.94287 0.53415 0.0
C758 C 0.65448 0.96345 0.52647 0.0
C759 C 0.66997 0.9548 0.5097 0.0
C760 C 0.65369 0.9255 0.50071 0.0
C761 C 0.62306 0.90505 0.50796 0.0
C762 C 0.61013 0.87542 0.49417 0.0
C763 C 0.60316 0.85131 0.51545 0.0
C764 C 0.58038 0.86682 0.4754 0.0
C765 C 0.63813 0.88249 0.47777 0.0
C766 C 0.66314 0.9114 0.48207 0.0
C767 C 0.69121 0.92332 0.46854 0.0
C768 C 0.69365 0.90533 0.44989 0.0
C769 C 0.66812 0.87576 0.44481 0.0
C770 C 0.64014 0.86423 0.45918 0.0
H771 H 0.71634 0.56464 0.04643 0.0
H772 H 0.62071 0.52348 0.00853 0.0
H773 H 0.64184 0.52671 0.96339 0.0
H774 H 0.75845 0.61458 0.98835 0.0
H775 H 0.79161 0.60986 0.9939 0.0
H776 H 0.7695 0.60817 0.02238 0.0
H777 H 0.75924 0.5565 0.03485 0.0
H778 H 0.78092 0.55783 0.0063 0.0
H779 H 0.74047 0.52735 0.00948 0.0
H780 H 0.67223 0.5278 0.92385 0.0
H781 H 0.7102 0.53001 0.8922 0.0
H782 H 0.78607 0.57129 0.95582 0.0
C783 C 0.69993 0.55703 0.02854 0.0
C784 C 0.6669 0.54391 0.03097 0.0
C785 C 0.64615 0.53392 0.00712 0.0
C786 C 0.65794 0.53558 0.98141 0.0
C787 C 0.69053 0.54771 0.97989 0.0
C788 C 0.71131 0.55872 0.00278 0.0
C789 C 0.74492 0.5688 0.99602 0.0
C790 C 0.76745 0.60235 1.00042 0.0
C791 C 0.75708 0.55158 0.01265 0.0
C792 C 0.73962 0.56074 0.96596 0.0
C793 C 0.70813 0.54877 0.95699 0.0
C794 C 0.69704 0.53764 0.93051 0.0
C795 C 0.71868 0.53877 0.91277 0.0
C796 C 0.75102 0.55097 0.9216 0.0
C797 C 0.7616 0.56237 0.94843 0.0
H798 H 0.08037 0.56044 0.45864 0.0
H799 H 0.14053 0.57187 0.53144 0.0
H800 H 0.18454 0.61801 0.51232 0.0
H801 H 0.14067 0.58499 0.41117 0.0
H802 H 0.12598 0.60324 0.38923 0.0
H803 H 0.09888 0.572 0.40927 0.0
H804 H 0.08037 0.6035 0.43098 0.0
H805 H 0.10749 0.63489 0.41104 0.0
H806 H 0.10947 0.63798 0.44777 0.0
H807 H 0.22233 0.66231 0.48468 0.0
H808 H 0.25151 0.70067 0.45023 0.0
H809 H 0.16683 0.65944 0.39512 0.0
C810 C 0.1027 0.57273 0.47071 0.0
C811 C 0.10696 0.56259 0.49662 0.0
C812 C 0.13669 0.57922 0.51157 0.0
C813 C 0.1618 0.60548 0.50091 0.0
C814 C 0.15679 0.61478 0.47525 0.0
C815 C 0.128 0.59887 0.46033 0.0
C816 C 0.12908 0.61304 0.43287 0.0
C817 C 0.12332 0.59207 0.40924 0.0
C818 C 0.10518 0.62294 0.43054 0.0
C819 C 0.16309 0.63935 0.43456 0.0
C820 C 0.17862 0.64004 0.45923 0.0
C821 C 0.2104 0.66197 0.4653 0.0
C822 C 0.22681 0.68357 0.44553 0.0
C823 C 0.21152 0.68305 0.41992 0.0
C824 C 0.17911 0.66072 0.4146 0.0
H825 H 0.55006 0.09925 0.03786 0.0
H826 H 0.6014 0.17106 0.09682 0.0
H827 H 0.59347 0.20376 0.06515 0.0
H828 H 0.58366 0.14188 0.97981 0.0
H829 H 0.54786 0.1218 0.95794 0.0
H830 H 0.55466 0.10356 0.98647 0.0
H831 H 0.50062 0.08919 0.00515 0.0
H832 H 0.49361 0.10736 0.97661 0.0
H833 H 0.49262 0.11763 0.01109 0.0
H834 H 0.58397 0.22972 0.02468 0.0
H835 H 0.57227 0.24591 0.98001 0.0
H836 H 0.52844 0.15675 0.94811 0.0
C837 C 0.55953 0.12179 0.04427 0.0
C838 C 0.57649 0.13261 0.06982 0.0
C839 C 0.58806 0.16218 0.07749 0.0
C840 C 0.58378 0.18093 0.05957 0.0
C841 C 0.56768 0.16968 0.03419 0.0
C842 C 0.55555 0.14068 0.0267 0.0
C843 C 0.54061 0.13418 0.99786 0.0
C844 C 0.55773 0.12482 0.97944 0.0
C845 C 0.50474 0.1107 0.99768 0.0
C846 C 0.54667 0.16419 0.99 0.0
C847 C 0.56216 0.18442 0.01119 0.0
C848 C 0.57153 0.21396 0.00808 0.0
C849 C 0.56496 0.22299 0.98263 0.0
C850 C 0.54917 0.20252 0.9607 0.0
C851 C 0.53983 0.17276 0.96466 0.0
H852 H 0.50164 0.52606 0.50155 0.0
H853 H 0.47199 0.43733 0.52767 0.0
H854 H 0.44274 0.41763 0.48257 0.0
H855 H 0.43196 0.51012 0.46613 0.0
H856 H 0.4508 0.53584 0.43874 0.0
H857 H 0.47129 0.54268 0.47189 0.0
H858 H 0.51905 0.54573 0.45027 0.0
H859 H 0.49883 0.53907 0.41691 0.0
H860 H 0.51251 0.51553 0.42943 0.0
H861 H 0.41063 0.40779 0.43699 0.0
H862 H 0.38179 0.40858 0.39453 0.0
H863 H 0.43831 0.5047 0.39644 0.0
C864 C 0.4893 0.5025 0.49761 0.0
C865 C 0.4887 0.48307 0.51799 0.0
C866 C 0.47266 0.45247 0.51217 0.0
C867 C 0.45605 0.44118 0.48668 0.0
C868 C 0.45661 0.46097 0.46712 0.0
C869 C 0.47343 0.49107 0.47217 0.0
C870 C 0.46984 0.50773 0.44822 0.0
C871 C 0.45509 0.52509 0.45677 0.0
C872 C 0.50197 0.52822 0.43544 0.0
C873 C 0.44712 0.48222 0.42927 0.0
C874 C 0.43977 0.45542 0.44042 0.0
C875 C 0.41688 0.4287 0.42774 0.0
C876 C 0.40073 0.42942 0.40339 0.0
C877 C 0.40764 0.45671 0.39172 0.0
C878 C 0.43195 0.48336 0.40466 0.0
H879 H 0.09625 0.46385 0.95397 0.0
H880 H 0.1561 0.51003 0.8863 0.0
H881 H 0.12109 0.46675 0.85652 0.0
H882 H 0.07501 0.38981 0.93653 0.0
H883 H 0.03471 0.37315 0.94658 0.0
H884 H 0.06637 0.40658 0.9632 0.0
H885 H 0.0357 0.43246 0.95071 0.0
H886 H 0.00398 0.39916 0.93408 0.0
H887 H 0.02344 0.43341 0.91545 0.0
H888 H 0.07734 0.41904 0.83334 0.0
H889 H 0.02774 0.37224 0.81866 0.0
H890 H 0.99615 0.35918 0.90124 0.0
C891 C 0.10226 0.46517 0.93295 0.0
C892 C 0.12917 0.49069 0.92268 0.0
C893 C 0.13598 0.4908 0.89496 0.0
C894 C 0.11613 0.46628 0.87778 0.0
C895 C 0.08954 0.4418 0.88858 0.0
C896 C 0.08261 0.44114 0.91554 0.0
C897 C 0.05163 0.41305 0.92186 0.0
C898 C 0.05728 0.39456 0.94331 0.0
C899 C 0.02726 0.41995 0.93106 0.0
C900 C 0.04182 0.39818 0.89409 0.0
C901 C 0.06417 0.41484 0.87521 0.0
C902 C 0.05981 0.40575 0.84801 0.0
C903 C 0.03168 0.37913 0.83988 0.0
C904 C 0.00822 0.36222 0.85884 0.0
C905 C 0.01365 0.37179 0.88631 0.0
H906 H 0.07779 0.56531 0.94045 0.0
H907 H 0.06372 0.54731 0.027 0.0
H908 H 0.01168 0.54354 0.02052 0.0
H909 H 0.04777 0.61078 0.93187 0.0
H910 H 0.02864 0.59638 0.89858 0.0
H911 H 0.06325 0.59555 0.90985 0.0
H912 H 0.03201 0.53975 0.90055 0.0
H913 H 0.99557 0.53821 0.8909 0.0
H914 H 0.99631 0.51539 0.91813 0.0
H915 H 0.96064 0.54316 0.00323 0.0
H916 H 0.9179 0.54664 0.97744 0.0
H917 H 0.96899 0.56669 0.90364 0.0
C918 C 0.06387 0.56049 0.95817 0.0
C919 C 0.07492 0.55676 0.98429 0.0
C920 C 0.05566 0.55016 0.00677 0.0
C921 C 0.02614 0.54806 0.00326 0.0
C922 C 0.01629 0.55243 0.97714 0.0
C923 C 0.03471 0.55834 0.95505 0.0
C924 C 0.01949 0.56231 0.92905 0.0
C925 C 0.04108 0.59308 0.91662 0.0
C926 C 0.01037 0.53747 0.90843 0.0
C927 C 0.99024 0.55917 0.93996 0.0
C928 C 0.98814 0.55283 0.96761 0.0
C929 C 0.96227 0.54825 0.98163 0.0
C930 C 0.93819 0.55031 0.96694 0.0
C931 C 0.94068 0.55744 0.93879 0.0
C932 C 0.96694 0.56176 0.9253 0.0
H933 H 0.56241 0.98831 0.45875 0.0
H934 H 0.50634 0.00522 0.51071 0.0
H935 H 0.46217 0.98401 0.47535 0.0
H936 H 0.53067 0.00095 0.39151 0.0
H937 H 0.53084 0.97127 0.37523 0.0
H938 H 0.56009 0.99237 0.40247 0.0
H939 H 0.54284 0.94394 0.429 0.0
H940 H 0.51342 0.92275 0.40204 0.0
H941 H 0.50165 0.91965 0.43663 0.0
H942 H 0.42169 0.95443 0.43831 0.0
H943 H 0.38772 0.91941 0.40158 0.0
H944 H 0.47007 0.92278 0.37204 0.0
C945 C 0.54124 0.98843 0.46231 0.0
C946 C 0.53789 0.99859 0.48743 0.0
C947 C 0.50948 0.99766 0.4916 0.0
C948 C 0.48429 0.98574 0.47158 0.0
C949 C 0.48793 0.975 0.44743 0.0
C950 C 0.51578 0.97647 0.44256 0.0
C951 C 0.51234 0.96072 0.41609 0.0
C952 C 0.53482 0.98264 0.39508 0.0
C953 C 0.51788 0.93526 0.42127 0.0
C954 C 0.47784 0.94917 0.40747 0.0
C955 C 0.46438 0.95802 0.42566 0.0
C956 C 0.43214 0.94803 0.42346 0.0
C957 C 0.41304 0.92822 0.4023 0.0
C958 C 0.42615 0.91854 0.38343 0.0
C959 C 0.45919 0.92971 0.38594 0.0
H960 H 0.6 0.43745 0.01906 0.0
H961 H 0.56607 0.37074 0.08249 0.0
H962 H 0.54796 0.33192 0.04732 0.0
H963 H 0.5357 0.39528 0.9695 0.0
H964 H 0.56048 0.40889 0.94067 0.0
H965 H 0.57168 0.43155 0.97088 0.0
H966 H 0.62642 0.43646 0.9747 0.0
H967 H 0.61547 0.41387 0.94447 0.0
H968 H 0.62795 0.40354 0.97584 0.0
H969 H 0.53219 0.30025 0.00518 0.0
H970 H 0.52169 0.27805 0.95925 0.0
H971 H 0.56512 0.36531 0.92303 0.0
C972 C 0.58865 0.41469 0.02561 0.0
C973 C 0.58442 0.40719 0.05364 0.0
C974 C 0.56991 0.37712 0.06126 0.0
C975 C 0.55936 0.35488 0.04139 0.0
C976 C 0.56359 0.36305 0.01397 0.0
C977 C 0.57804 0.39224 0.00607 0.0
C978 C 0.57967 0.39512 0.97523 0.0
C979 C 0.56075 0.4085 0.96338 0.0
C980 C 0.61445 0.41332 0.96709 0.0
C981 C 0.56369 0.36292 0.967 0.0
C982 C 0.55455 0.34481 0.98967 0.0
C983 C 0.53916 0.31421 0.98729 0.0
C984 C 0.53306 0.30179 0.96107 0.0
C985 C 0.5423 0.31989 0.93749 0.0
C986 C 0.55787 0.3509 0.94064 0.0
H987 H 0.06706 0.40276 0.47256 0.0
H988 H 0.04227 0.46019 0.43009 0.0
H989 H 0.07005 0.46052 0.38974 0.0
H990 H 0.14398 0.43976 0.45305 0.0
H991 H 0.14689 0.40788 0.44949 0.0
H992 H 0.11951 0.40678 0.47242 0.0
H993 H 0.07284 0.36021 0.44745 0.0
H994 H 0.10019 0.36103 0.42448 0.0
H995 H 0.06571 0.36113 0.41099 0.0
H996 H 0.10563 0.45981 0.35709 0.0
H997 H 0.14847 0.45981 0.33448 0.0
H998 H 0.15306 0.40494 0.39923 0.0
C999 C 0.06651 0.4143 0.45422 0.0
C1000 C 0.052 0.43078 0.45373 0.0
C1001 C 0.05281 0.44698 0.43022 0.0
C1002 C 0.06844 0.44722 0.40736 0.0
C1003 C 0.08332 0.43133 0.4086 0.0
C1004 C 0.08254 0.41514 0.43142 0.0
C1005 C 0.10403 0.4034 0.42897 0.0
C1006 C 0.13015 0.41517 0.45236 0.0
C1007 C 0.08452 0.36942 0.4279 0.0
C1008 C 0.11784 0.41636 0.4017 0.0
C1009 C 0.10507 0.43188 0.39007 0.0
C1010 C 0.11554 0.44744 0.3658 0.0
C1011 C 0.14006 0.44753 0.35325 0.0
C1012 C 0.15412 0.43246 0.36517 0.0
C1013 C 0.14238 0.41622 0.38943 0.0
H1014 H 0.67599 0.0506 0.01103 0.0
H1015 H 0.61632 0.08685 0.01429 0.0
H1016 H 0.64073 0.11692 0.97373 0.0
H1017 H 0.74499 0.11482 0.99299 0.0
H1018 H 0.75726 0.09803 0.96945 0.0
H1019 H 0.73293 0.07666 0.99702 0.0
H1020 H 0.69062 0.03742 0.96252 0.0
H1021 H 0.71509 0.05843 0.93481 0.0
H1022 H 0.6744 0.04881 0.93447 0.0
H1023 H 0.67744 0.14892 0.93827 0.0
H1024 H 0.71855 0.17583 0.90548 0.0
H1025 H 0.75066 0.11509 0.92069 0.0
C1026 C 0.66752 0.06431 0.0028 0.0
C1027 C 0.64427 0.06637 0.01595 0.0
C1028 C 0.63396 0.08473 0.00461 0.0
C1029 C 0.64777 0.10202 0.98157 0.0
C1030 C 0.67139 0.10028 0.96971 0.0
C1031 C 0.68067 0.08138 0.97945 0.0
C1032 C 0.70722 0.08444 0.96322 0.0
C1033 C 0.73737 0.09407 0.98179 0.0
C1034 C 0.69617 0.05556 0.94784 0.0
C1035 C 0.7122 0.10881 0.94358 0.0
C1036 C 0.69134 0.11764 0.94781 0.0
C1037 C 0.69317 0.14152 0.93403 0.0
C1038 C 0.71664 0.15657 0.91513 0.0
C1039 C 0.73779 0.14741 0.90952 0.0
C1040 C 0.73522 0.123 0.92412 0.0
H1041 H 0.61706 0.64891 0.54226 0.0
H1042 H 0.56533 0.56565 0.49759 0.0
H1043 H 0.57796 0.59273 0.45396 0.0
H1044 H 0.59237 0.68788 0.49786 0.0
H1045 H 0.63018 0.72257 0.50067 0.0
H1046 H 0.61808 0.69663 0.52844 0.0
H1047 H 0.67012 0.69685 0.52671 0.0
H1048 H 0.68239 0.72281 0.49892 0.0
H1049 H 0.68001 0.68829 0.49497 0.0
H1050 H 0.59379 0.6287 0.4153 0.0
H1051 H 0.6137 0.67138 0.38407 0.0
H1052 H 0.65583 0.73138 0.45365 0.0
C1053 C 0.60847 0.63644 0.52328 0.0
C1054 C 0.5904 0.60519 0.52333 0.0
C1055 C 0.57968 0.58957 0.49807 0.0
C1056 C 0.58655 0.60476 0.47318 0.0
C1057 C 0.60433 0.63556 0.47386 0.0
C1058 C 0.61532 0.65126 0.49823 0.0
C1059 C 0.63373 0.6843 0.49323 0.0
C1060 C 0.61762 0.69868 0.50579 0.0
C1061 C 0.66864 0.69892 0.5041 0.0
C1062 C 0.63104 0.6847 0.46227 0.0
C1063 C 0.61392 0.65635 0.45151 0.0
C1064 C 0.60739 0.65102 0.42346 0.0
C1065 C 0.61864 0.67534 0.40591 0.0
C1066 C 0.63633 0.70459 0.41648 0.0
C1067 C 0.64272 0.70925 0.44502 0.0
H1068 H 0.56703 0.07304 0.63895 0.0
H1069 H 0.49418 0.98919 0.67232 0.0
H1070 H 0.48378 0.01588 0.70589 0.0
H1071 H 0.5975 0.11196 0.7046 0.0
H1072 H 0.60492 0.14645 0.69054 0.0
H1073 H 0.60718 0.12073 0.66935 0.0
H1074 H 0.56588 0.12051 0.63422 0.0
H1075 H 0.5633 0.14605 0.65535 0.0
H1076 H 0.52779 0.11125 0.64536 0.0
H1077 H 0.47922 0.05136 0.73438 0.0
H1078 H 0.48317 0.09356 0.75777 0.0
H1079 H 0.56032 0.15453 0.70741 0.0
C1080 C 0.54923 0.06016 0.65351 0.0
C1081 C 0.53125 0.02882 0.65263 0.0
C1082 C 0.50792 0.0131 0.67206 0.0
C1083 C 0.50193 0.02809 0.69139 0.0
C1084 C 0.51966 0.05888 0.69133 0.0
C1085 C 0.54308 0.07478 0.67312 0.0
C1086 C 0.55857 0.1078 0.67733 0.0
C1087 C 0.59415 0.1226 0.68597 0.0
C1088 C 0.55357 0.12224 0.65153 0.0
C1089 C 0.53992 0.10792 0.70056 0.0
C1090 C 0.51753 0.07943 0.70824 0.0
C1091 C 0.49677 0.07377 0.72866 0.0
C1092 C 0.49904 0.09786 0.74169 0.0
C1093 C 0.52198 0.12727 0.73436 0.0
C1094 C 0.54274 0.13228 0.71357 0.0
H1095 H 0.50709 0.44604 0.15508 0.0
H1096 H 0.53304 0.52532 0.10855 0.0
H1097 H 0.49225 0.52923 0.13091 0.0
H1098 H 0.4209 0.41673 0.15432 0.0
H1099 H 0.41785 0.40257 0.18857 0.0
H1100 H 0.44697 0.40472 0.16696 0.0
H1101 H 0.49153 0.43583 0.20419 0.0
H1102 H 0.46268 0.43413 0.22576 0.0
H1103 H 0.49639 0.4695 0.21657 0.0
H1104 H 0.4528 0.52741 0.16226 0.0
H1105 H 0.41407 0.51726 0.19687 0.0
H1106 H 0.41329 0.43851 0.22178 0.0
C1107 C 0.50379 0.46391 0.14918 0.0
C1108 C 0.5232 0.48537 0.13007 0.0
C1109 C 0.51824 0.50849 0.12297 0.0
C1110 C 0.49524 0.51096 0.13565 0.0
C1111 C 0.47717 0.4899 0.15505 0.0
C1112 C 0.48082 0.46653 0.16141 0.0
C1113 C 0.45921 0.44737 0.18357 0.0
C1114 C 0.43478 0.41599 0.17269 0.0
C1115 C 0.47862 0.44669 0.20902 0.0
C1116 C 0.44338 0.46401 0.18922 0.0
C1117 C 0.45404 0.4885 0.1726 0.0
C1118 C 0.44398 0.50808 0.17511 0.0
C1119 C 0.42223 0.5023 0.19494 0.0
C1120 C 0.4107 0.47708 0.21186 0.0
C1121 C 0.42143 0.45774 0.20885 0.0
H1122 H 0.047 0.3992 0.60887 0.0
H1123 H 0.04371 0.477 0.62433 0.0
H1124 H 0.01621 0.45444 0.66637 0.0
H1125 H 0.97343 0.34648 0.62985 0.0
H1126 H 0.98444 0.32282 0.64721 0.0
H1127 H 0.0074 0.34606 0.61979 0.0
H1128 H 0.05882 0.37012 0.65158 0.0
H1129 H 0.03613 0.34647 0.67901 0.0
H1130 H 0.05968 0.38603 0.68383 0.0
H1131 H 0.97915 0.41954 0.70013 0.0
H1132 H 0.94491 0.37934 0.73001 0.0
H1133 H 0.97973 0.32679 0.69895 0.0
C1134 C 0.0414 0.41188 0.62154 0.0
C1135 C 0.04716 0.43974 0.61296 0.0
C1136 C 0.0394 0.45556 0.63018 0.0
C1137 C 0.02368 0.44291 0.65419 0.0
C1138 C 0.01687 0.41483 0.6613 0.0
C1139 C 0.02648 0.39991 0.64612 0.0
C1140 C 0.01555 0.36973 0.65829 0.0
C1141 C 0.99392 0.34482 0.63754 0.0
C1142 C 0.04425 0.36799 0.66881 0.0
C1143 C 0.99697 0.36955 0.68177 0.0
C1144 C 0.99789 0.3957 0.6829 0.0
C1145 C 0.97948 0.39948 0.70043 0.0
C1146 C 0.96012 0.3762 0.71774 0.0
C1147 C 0.95981 0.34941 0.71832 0.0
C1148 C 0.97885 0.34646 0.6998 0.0
H1149 H 0.69365 0.04421 0.18762 0.0
H1150 H 0.67788 0.00787 0.10606 0.0
H1151 H 0.6932 0.9732 0.12343 0.0
H1152 H 0.76152 0.03508 0.21064 0.0
H1153 H 0.7476 0.02477 0.24467 0.0
H1154 H 0.74063 0.05005 0.22515 0.0
H1155 H 0.6801 0.01594 0.23167 0.0
H1156 H 0.68685 0.99057 0.25105 0.0
H1157 H 0.65953 0.97766 0.22128 0.0
H1158 H 0.70245 0.93825 0.15012 0.0
H1159 H 0.70556 0.90521 0.18471 0.0
H1160 H 0.71603 0.96397 0.24933 0.0
C1161 C 0.69452 0.02961 0.17337 0.0
C1162 C 0.68482 0.02874 0.1455 0.0
C1163 C 0.68521 0.00874 0.12749 0.0
C1164 C 0.69406 0.98915 0.13714 0.0
C1165 C 0.70259 0.98989 0.16488 0.0
C1166 C 0.70311 0.0097 0.18277 0.0
C1167 C 0.70997 0.00378 0.21204 0.0
C1168 C 0.74183 0.02999 0.22381 0.0
C1169 C 0.68247 0.99655 0.23006 0.0
C1170 C 0.71203 0.97692 0.20787 0.0
C1171 C 0.70812 0.96955 0.18044 0.0
C1172 C 0.70623 0.94412 0.1716 0.0
C1173 C 0.7079 0.92546 0.19132 0.0
C1174 C 0.71145 0.93237 0.2195 0.0
C1175 C 0.71417 0.9587 0.22783 0.0
H1176 H 0.66579 0.56344 0.63778 0.0
H1177 H 0.58482 0.47286 0.6379 0.0
H1178 H 0.60896 0.46273 0.67889 0.0
H1179 H 0.72608 0.54562 0.66184 0.0
H1180 H 0.74882 0.57926 0.68176 0.0
H1181 H 0.72649 0.57826 0.65091 0.0
H1182 H 0.69737 0.59645 0.67851 0.0
H1183 H 0.71904 0.59687 0.70954 0.0
H1184 H 0.6761 0.57563 0.70773 0.0
H1185 H 0.6382 0.46478 0.72375 0.0
H1186 H 0.67482 0.47614 0.76442 0.0
H1187 H 0.73865 0.56422 0.73282 0.0
C1188 C 0.65354 0.54128 0.64606 0.0
C1189 C 0.62355 0.51892 0.6346 0.0
C1190 C 0.60805 0.49023 0.6461 0.0
C1191 C 0.62139 0.48435 0.66959 0.0
C1192 C 0.65037 0.50727 0.68107 0.0
C1193 C 0.66669 0.53493 0.66925 0.0
C1194 C 0.6973 0.55579 0.68574 0.0
C1195 C 0.7264 0.56529 0.66907 0.0
C1196 C 0.69743 0.58277 0.69598 0.0
C1197 C 0.69515 0.53585 0.70914 0.0
C1198 C 0.66785 0.50801 0.70618 0.0
C1199 C 0.65999 0.48632 0.72598 0.0
C1200 C 0.68105 0.493 0.74902 0.0
C1201 C 0.70992 0.52105 0.75195 0.0
C1202 C 0.7167 0.54271 0.73167 0.0
H1203 H 0.25179 0.65628 0.07262 0.0
H1204 H 0.20132 0.69272 0.03048 0.0
H1205 H 0.21471 0.72645 0.06974 0.0
H1206 H 0.22843 0.65533 0.13783 0.0
H1207 H 0.26603 0.66623 0.15556 0.0
H1208 H 0.25526 0.64721 0.12319 0.0
H1209 H 0.30725 0.68993 0.10347 0.0
H1210 H 0.31843 0.70895 0.13594 0.0
H1211 H 0.31635 0.72731 0.10519 0.0
H1212 H 0.22663 0.75018 0.11631 0.0
H1213 H 0.24119 0.76652 0.1643 0.0
H1214 H 0.28961 0.71883 0.17402 0.0
C1215 C 0.24424 0.67188 0.07155 0.0
C1216 C 0.22567 0.67214 0.0487 0.0
C1217 C 0.21593 0.6926 0.04777 0.0
C1218 C 0.22329 0.71166 0.06998 0.0
C1219 C 0.24102 0.71035 0.09258 0.0
C1220 C 0.252 0.69145 0.09324 0.0
C1221 C 0.26986 0.69377 0.12019 0.0
C1222 C 0.25393 0.66386 0.13506 0.0
C1223 C 0.30507 0.70571 0.11594 0.0
C1224 C 0.26617 0.71609 0.13501 0.0
C1225 C 0.2494 0.72532 0.11881 0.0
C1226 C 0.24063 0.74382 0.12894 0.0
C1227 C 0.24927 0.75317 0.15633 0.0
C1228 C 0.267 0.74441 0.17332 0.0
C1229 C 0.27583 0.7259 0.16208 0.0
loop_
_geom_bond_atom_site_label_1
_geom_bond_atom_site_label_2
_geom_bond_distance
_geom_bond_site_symmetry_2
_ccdc_geom_bond_type
Cu0 N1 1.999 1_554 S
Cu0 O6 1.974 1_554 S
Cu0 N11 1.985 . S
Cu0 O20 1.959 . S
N1 Cu0 1.999 1_556 S
N1 C3 1.263 . S
N1 C5 1.389 . S
N2 C3 1.358 . S
N2 C4 1.400 . S
C3 N1 1.263 . S
C3 N2 1.358 . S
C3 H9 0.930 . S
C4 N2 1.400 . S
C4 C5 1.351 . S
C4 H21 0.930 . S
C5 N1 1.389 . S
C5 C4 1.351 . S
C5 H10 0.930 1_556 S
O6 Cu0 1.974 1_556 S
O6 C16 1.282 . S
C7 O8 1.261 . S
C7 O20 1.251 . S
O8 C7 1.261 . S
H9 C3 0.930 . S
H10 C5 0.930 1_554 S
N11 Cu0 1.985 . S
N11 C13 1.335 . S
N11 C14 1.390 . S
N12 C13 1.345 . S
N12 C15 1.336 . S
C13 N11 1.335 . S
C13 N12 1.345 . S
C13 H18 0.930 . S
C14 N11 1.390 . S
C14 C15 1.346 . S
C14 H19 0.906 1_554 S
C15 N12 1.336 . S
C15 C14 1.346 . S
C15 H22 0.929 . S
C16 O6 1.282 . S
C16 O17 1.216 . S
O17 C16 1.216 . S
H18 C13 0.930 . S
H19 C14 0.906 1_556 S
O20 Cu0 1.959 . S
O20 C7 1.251 . S
H21 C4 0.930 . S
H22 C15 0.929 . S
Cu23 N24 1.999 . S
Cu23 O29 1.974 . S
Cu23 N34 1.985 1_565 S
Cu23 O43 1.959 1_565 S
N24 Cu23 1.999 . S
N24 C26 1.263 . S
N24 C28 1.389 . S
N25 C26 1.358 . S
N25 C27 1.400 . S
C26 N24 1.263 . S
C26 N25 1.358 . S
C26 H32 0.930 . S
C27 N25 1.400 . S
C27 C28 1.351 . S
C27 H44 0.930 . S
C28 N24 1.389 . S
C28 C27 1.351 . S
C28 H33 0.930 . S
O29 Cu23 1.974 . S
O29 C39 1.282 . S
C30 O31 1.261 . S
C30 O43 1.251 . S
O31 C30 1.261 . S
H32 C26 0.930 . S
H33 C28 0.930 . S
N34 Cu23 1.985 1_545 S
N34 C36 1.335 . S
N34 C37 1.390 . S
N35 C36 1.345 . S
N35 C38 1.336 . S
C36 N34 1.335 . S
C36 N35 1.345 . S
C36 H41 0.930 . S
C37 N34 1.390 . S
C37 C38 1.346 . S
C37 H42 0.930 . S
C38 N35 1.336 . S
C38 C37 1.346 . S
C38 H45 0.929 . S
C39 O29 1.282 . S
C39 O40 1.216 1_565 S
O40 C39 1.216 1_545 S
H41 C36 0.930 . S
H42 C37 0.930 . S
O43 Cu23 1.959 1_545 S
O43 C30 1.251 . S
H44 C27 0.930 . S
H45 C38 0.929 . S
Cu46 N47 1.999 . S
Cu46 O52 1.974 . S
Cu46 N57 1.985 . S
Cu46 O66 1.959 . S
N47 Cu46 1.999 . S
N47 C49 1.263 . S
N47 C51 1.389 . S
N48 C49 1.358 . S
N48 C50 1.400 . S
C49 N47 1.263 . S
C49 N48 1.358 . S
C49 H55 0.930 . S
C50 N48 1.400 . S
C50 C51 1.351 . S
C50 H67 0.930 . S
C51 N47 1.389 . S
C51 C50 1.351 . S
C51 H56 0.930 . S
O52 Cu46 1.974 . S
O52 C62 1.282 . S
C53 O54 1.261 . S
C53 O66 1.251 . S
O54 C53 1.261 . S
H55 C49 0.930 . S
H56 C51 0.930 . S
N57 Cu46 1.985 . S
N57 C59 1.335 . S
N57 C60 1.390 . S
N58 C59 1.345 . S
N58 C61 1.336 . S
C59 N57 1.335 . S
C59 N58 1.345 . S
C59 H64 0.930 . S
C60 N57 1.390 . S
C60 C61 1.346 . S
C60 H65 0.930 . S
C61 N58 1.336 . S
C61 C60 1.346 . S
C61 H68 0.929 . S
C62 O52 1.282 . S
C62 O63 1.216 . S
O63 C62 1.216 . S
H64 C59 0.930 . S
H65 C60 0.930 . S
O66 Cu46 1.959 . S
O66 C53 1.251 . S
H67 C50 0.930 . S
H68 C61 0.929 . S
Cu69 N70 1.999 1_655 S
Cu69 O75 1.974 1_655 S
Cu69 N80 1.985 . S
Cu69 O89 1.959 . S
N70 Cu69 1.999 1_455 S
N70 C72 1.263 . S
N70 C74 1.389 1_455 S
N71 C72 1.358 . S
N71 C73 1.400 . S
C72 N70 1.263 . S
C72 N71 1.358 . S
C72 H78 0.930 . S
C73 N71 1.400 . S
C73 C74 1.351 1_455 S
C73 H90 0.930 1_455 S
C74 N70 1.389 1_655 S
C74 C73 1.351 1_655 S
C74 H79 0.930 . S
O75 Cu69 1.974 1_455 S
O75 C85 1.282 . S
C76 O77 1.261 1_655 S
C76 O89 1.251 . S
O77 C76 1.261 1_455 S
H78 C72 0.930 . S
H79 C74 0.930 . S
N80 Cu69 1.985 . S
N80 C82 1.335 . S
N80 C83 1.390 . S
N81 C82 1.345 . S
N81 C84 1.336 . S
C82 N80 1.335 . S
C82 N81 1.345 . S
C82 H87 0.930 . S
C83 N80 1.390 . S
C83 C84 1.346 . S
C83 H88 0.930 1_655 S
C84 N81 1.336 . S
C84 C83 1.346 . S
C84 H91 0.929 . S
C85 O75 1.282 . S
C85 O86 1.216 . S
O86 C85 1.216 . S
H87 C82 0.930 . S
H88 C83 0.930 1_455 S
O89 Cu69 1.959 . S
O89 C76 1.251 . S
H90 C73 0.930 1_655 S
H91 C84 0.929 . S
Cu92 N93 1.999 . S
Cu92 O98 1.974 . S
Cu92 N103 1.985 . S
Cu92 O112 1.959 . S
N93 Cu92 1.999 . S
N93 C95 1.263 . S
N93 C97 1.389 . S
N94 C95 1.358 . S
N94 C96 1.400 . S
C95 N93 1.263 . S
C95 N94 1.358 . S
C95 H101 0.930 . S
C96 N94 1.400 . S
C96 C97 1.351 . S
C96 H113 0.930 . S
C97 N93 1.389 . S
C97 C96 1.351 . S
C97 H102 0.930 . S
O98 Cu92 1.974 . S
O98 C108 1.282 . S
C99 O100 1.261 . S
C99 O112 1.251 . S
O100 C99 1.261 . S
H101 C95 0.930 . S
H102 C97 0.930 . S
N103 Cu92 1.985 . S
N103 C105 1.335 . S
N103 C106 1.390 . S
N104 C105 1.345 . S
N104 C107 1.336 . S
C105 N103 1.335 . S
C105 N104 1.345 . S
C105 H110 0.930 . S
C106 N103 1.390 . S
C106 C107 1.346 . S
C106 H111 0.930 . S
C107 N104 1.336 . S
C107 C106 1.346 . S
C107 H114 0.929 . S
C108 O98 1.282 . S
C108 O109 1.216 . S
O109 C108 1.216 . S
H110 C105 0.930 . S
H111 C106 0.930 . S
O112 Cu92 1.959 . S
O112 C99 1.251 . S
H113 C96 0.930 . S
H114 C107 0.929 . S
Cu115 N116 1.999 . S
Cu115 O121 1.974 . S
Cu115 N126 1.985 . S
Cu115 O135 1.959 . S
N116 Cu115 1.999 . S
N116 C118 1.263 . S
N116 C120 1.389 . S
N117 C118 1.358 . S
N117 C119 1.400 . S
C118 N116 1.263 . S
C118 N117 1.358 . S
C118 H124 0.930 . S
C119 N117 1.400 . S
C119 C120 1.351 . S
C119 H136 0.930 . S
C120 N116 1.389 . S
C120 C119 1.351 . S
C120 H125 0.930 . S
O121 Cu115 1.974 . S
O121 C131 1.282 . S
C122 O123 1.261 . S
C122 O135 1.251 . S
O123 C122 1.261 . S
H124 C118 0.930 . S
H125 C120 0.930 . S
N126 Cu115 1.985 . S
N126 C128 1.335 . S
N126 C129 1.390 . S
N127 C128 1.345 . S
N127 C130 1.336 . S
C128 N126 1.335 . S
C128 N127 1.345 . S
C128 H133 0.930 . S
C129 N126 1.390 . S
C129 C130 1.346 . S
C129 H134 0.930 . S
C130 N127 1.336 . S
C130 C129 1.346 . S
C130 H137 0.929 . S
C131 O121 1.282 . S
C131 O132 1.216 . S
O132 C131 1.216 . S
H133 C128 0.930 . S
H134 C129 0.930 . S
O135 Cu115 1.959 . S
O135 C122 1.251 . S
H136 C119 0.930 . S
H137 C130 0.929 . S
H138 O164 0.856 . S
H139 O167 0.854 . S
H140 C175 0.930 . S
H141 C176 0.930 . S
H142 C178 0.930 . S
H143 C179 0.930 . S
H144 C181 0.931 . S
H145 C182 0.930 . S
H146 C184 0.930 . S
H147 C185 0.929 . S
H148 C187 0.930 . S
H149 C188 0.931 . S
H150 C190 0.930 . S
H151 C191 0.929 . S
H152 C193 0.931 . S
H153 C194 0.930 . S
H154 C196 0.930 . S
H155 C197 0.932 . S
H156 C199 0.930 . S
H157 C200 0.929 . S
H158 C202 0.931 . S
H159 C203 0.930 . S
H160 C205 0.929 . S
H161 C206 0.931 . S
H162 C208 0.930 . S
H163 C209 0.929 . S
O164 H138 0.856 . S
O164 C210 1.300 . S
O165 C210 1.209 . S
O166 C211 1.199 . S
O167 H139 0.854 . S
O167 C211 1.297 . S
C168 C169 1.404 . S
C168 C173 1.397 . S
C168 C174 1.492 . S
C169 C168 1.404 . S
C169 C170 1.396 . S
C169 C180 1.492 . S
C170 C169 1.396 . S
C170 C171 1.397 . S
C170 C186 1.509 . S
C171 C170 1.397 . S
C171 C172 1.412 . S
C171 C192 1.485 . S
C172 C171 1.412 . S
C172 C173 1.388 . S
C172 C198 1.490 . S
C173 C168 1.397 . S
C173 C172 1.388 . S
C173 C204 1.519 . S
C174 C168 1.492 . S
C174 C175 1.363 . S
C174 C179 1.390 . S
C175 H140 0.930 . S
C175 C174 1.363 . S
C175 C176 1.372 . S
C176 H141 0.930 . S
C176 C175 1.372 . S
C176 C177 1.383 . S
C177 C176 1.383 . S
C177 C178 1.395 . S
C178 H142 0.930 . S
C178 C177 1.395 . S
C178 C179 1.362 . S
C179 H143 0.930 . S
C179 C174 1.390 . S
C179 C178 1.362 . S
C180 C169 1.492 . S
C180 C181 1.377 . S
C180 C185 1.397 . S
C181 H144 0.931 . S
C181 C180 1.377 . S
C181 C182 1.376 . S
C182 H145 0.930 . S
C182 C181 1.376 . S
C182 C183 1.376 . S
C183 C182 1.376 . S
C183 C184 1.378 . S
C183 C210 1.486 . S
C184 H146 0.930 . S
C184 C183 1.378 . S
C184 C185 1.376 . S
C185 H147 0.929 . S
C185 C180 1.397 . S
C185 C184 1.376 . S
C186 C170 1.509 . S
C186 C187 1.391 . S
C186 C191 1.386 . S
C187 H148 0.930 . S
C187 C186 1.391 . S
C187 C188 1.375 . S
C188 H149 0.931 . S
C188 C187 1.375 . S
C188 C189 1.375 . S
C189 C188 1.375 . S
C189 C190 1.361 . S
C190 H150 0.930 . S
C190 C189 1.361 . S
C190 C191 1.399 . S
C191 H151 0.929 . S
C191 C186 1.386 . S
C191 C190 1.399 . S
C192 C171 1.485 . S
C192 C193 1.394 . S
C192 C197 1.360 . S
C193 H152 0.931 . S
C193 C192 1.394 . S
C193 C194 1.372 . S
C194 H153 0.930 . S
C194 C193 1.372 . S
C194 C195 1.397 . S
C195 C194 1.397 . S
C195 C196 1.390 . S
C195 C211 1.476 . S
C196 H154 0.930 . S
C196 C195 1.390 . S
C196 C197 1.366 . S
C197 H155 0.932 . S
C197 C192 1.360 . S
C197 C196 1.366 . S
C198 C172 1.490 . S
C198 C199 1.380 . S
C198 C203 1.386 . S
C199 H156 0.930 . S
C199 C198 1.380 . S
C199 C200 1.381 . S
C200 H157 0.929 . S
C200 C199 1.381 . S
C200 C201 1.371 . S
C201 C200 1.371 . S
C201 C202 1.380 . S
C202 H158 0.931 . S
C202 C201 1.380 . S
C202 C203 1.387 . S
C203 H159 0.930 . S
C203 C198 1.386 . S
C203 C202 1.387 . S
C204 C173 1.519 . S
C204 C205 1.377 . S
C204 C209 1.361 . S
C205 H160 0.929 . S
C205 C204 1.377 . S
C205 C206 1.386 . S
C206 H161 0.931 . S
C206 C205 1.386 . S
C206 C207 1.363 . S
C207 C206 1.363 . S
C207 C208 1.385 . S
C208 H162 0.930 . S
C208 C207 1.385 . S
C208 C209 1.396 . S
C209 H163 0.929 . S
C209 C204 1.361 . S
C209 C208 1.396 . S
C210 O164 1.300 . S
C210 O165 1.209 . S
C210 C183 1.486 . S
C211 O166 1.199 . S
C211 O167 1.297 . S
C211 C195 1.476 . S
H212 O238 0.856 . S
H213 O241 0.854 . S
H214 C249 0.930 . S
H215 C250 0.930 . S
H216 C252 0.930 1_455 S
H217 C253 0.930 . S
H218 C255 0.931 . S
H219 C256 0.930 . S
H220 C258 0.930 . S
H221 C259 0.929 . S
H222 C261 0.930 . S
H223 C262 0.931 . S
H224 C264 0.930 . S
H225 C265 0.929 . S
H226 C267 0.931 . S
H227 C268 0.930 . S
H228 C270 0.930 . S
H229 C271 0.932 . S
H230 C273 0.930 . S
H231 C274 0.929 . S
H232 C276 0.931 . S
H233 C277 0.930 . S
H234 C279 0.929 . S
H235 C280 0.931 . S
H236 C282 0.930 . S
H237 C283 0.929 . S
O238 H212 0.856 . S
O238 C284 1.300 . S
O239 C284 1.209 . S
O240 C285 1.199 . S
O241 H213 0.854 . S
O241 C285 1.297 . S
C242 C243 1.404 . S
C242 C247 1.397 . S
C242 C248 1.492 . S
C243 C242 1.404 . S
C243 C244 1.396 . S
C243 C254 1.492 . S
C244 C243 1.396 . S
C244 C245 1.397 . S
C244 C260 1.509 . S
C245 C244 1.397 . S
C245 C246 1.412 . S
C245 C266 1.485 . S
C246 C245 1.412 . S
C246 C247 1.388 . S
C246 C272 1.490 . S
C247 C242 1.397 . S
C247 C246 1.388 . S
C247 C278 1.519 . S
C248 C242 1.492 . S
C248 C249 1.363 . S
C248 C253 1.390 . S
C249 H214 0.930 . S
C249 C248 1.363 . S
C249 C250 1.372 . S
C250 H215 0.930 . S
C250 C249 1.372 . S
C250 C251 1.383 . S
C251 C250 1.383 . S
C251 C252 1.395 . S
C252 H216 0.930 1_655 S
C252 C251 1.395 . S
C252 C253 1.362 . S
C253 H217 0.930 . S
C253 C248 1.390 . S
C253 C252 1.362 . S
C254 C243 1.492 . S
C254 C255 1.377 . S
C254 C259 1.397 . S
C255 H218 0.931 . S
C255 C254 1.377 . S
C255 C256 1.376 . S
C256 H219 0.930 . S
C256 C255 1.376 . S
C256 C257 1.376 . S
C257 C256 1.376 . S
C257 C258 1.378 . S
C257 C284 1.486 . S
C258 H220 0.930 . S
C258 C257 1.378 . S
C258 C259 1.376 . S
C259 H221 0.929 . S
C259 C254 1.397 . S
C259 C258 1.376 . S
C260 C244 1.509 . S
C260 C261 1.391 . S
C260 C265 1.386 . S
C261 H222 0.930 . S
C261 C260 1.391 . S
C261 C262 1.375 . S
C262 H223 0.931 . S
C262 C261 1.375 . S
C262 C263 1.375 . S
C263 C262 1.375 . S
C263 C264 1.361 . S
C264 H224 0.930 . S
C264 C263 1.361 . S
C264 C265 1.399 . S
C265 H225 0.929 . S
C265 C260 1.386 . S
C265 C264 1.399 . S
C266 C245 1.485 . S
C266 C267 1.394 . S
C266 C271 1.360 . S
C267 H226 0.931 . S
C267 C266 1.394 . S
C267 C268 1.372 . S
C268 H227 0.930 . S
C268 C267 1.372 . S
C268 C269 1.397 . S
C269 C268 1.397 . S
C269 C270 1.390 . S
C269 C285 1.476 . S
C270 H228 0.930 . S
C270 C269 1.390 . S
C270 C271 1.366 . S
C271 H229 0.932 . S
C271 C266 1.360 . S
C271 C270 1.366 . S
C272 C246 1.490 . S
C272 C273 1.380 . S
C272 C277 1.386 . S
C273 H230 0.930 . S
C273 C272 1.380 . S
C273 C274 1.381 . S
C274 H231 0.929 . S
C274 C273 1.381 . S
C274 C275 1.371 . S
C275 C274 1.371 . S
C275 C276 1.380 . S
C276 H232 0.931 . S
C276 C275 1.380 . S
C276 C277 1.387 . S
C277 H233 0.930 . S
C277 C272 1.386 . S
C277 C276 1.387 . S
C278 C247 1.519 . S
C278 C279 1.377 . S
C278 C283 1.361 . S
C279 H234 0.929 . S
C279 C278 1.377 . S
C279 C280 1.386 . S
C280 H235 0.931 . S
C280 C279 1.386 . S
C280 C281 1.363 . S
C281 C280 1.363 . S
C281 C282 1.385 . S
C282 H236 0.930 . S
C282 C281 1.385 . S
C282 C283 1.396 . S
C283 H237 0.929 . S
C283 C278 1.361 . S
C283 C282 1.396 . S
C284 O238 1.300 . S
C284 O239 1.209 . S
C284 C257 1.486 . S
C285 O240 1.199 . S
C285 O241 1.297 . S
C285 C269 1.476 . S
H286 O312 0.856 . S
H287 O315 0.854 . S
H288 C323 0.930 . S
H289 C324 0.930 . S
H290 C326 0.930 . S
H291 C327 0.930 . S
H292 C329 0.931 . S
H293 C330 0.930 . S
H294 C332 0.930 . S
H295 C333 0.929 . S
H296 C335 0.930 . S
H297 C336 0.931 . S
H298 C338 0.930 . S
H299 C339 0.929 . S
H300 C341 0.931 . S
H301 C342 0.930 . S
H302 C344 0.930 . S
H303 C345 0.932 . S
H304 C347 0.930 . S
H305 C348 0.929 . S
H306 C350 0.931 . S
H307 C351 0.930 . S
H308 C353 0.929 . S
H309 C354 0.931 . S
H310 C356 0.930 . S
H311 C357 0.929 . S
O312 H286 0.856 . S
O312 C358 1.300 . S
O313 C358 1.209 . S
O314 C359 1.199 . S
O315 H287 0.854 . S
O315 C359 1.297 1_545 S
C316 C317 1.404 . S
C316 C321 1.397 . S
C316 C322 1.492 . S
C317 C316 1.404 . S
C317 C318 1.396 . S
C317 C328 1.492 . S
C318 C317 1.396 . S
C318 C319 1.397 . S
C318 C334 1.509 . S
C319 C318 1.397 . S
C319 C320 1.412 . S
C319 C340 1.485 . S
C320 C319 1.412 . S
C320 C321 1.388 . S
C320 C346 1.490 . S
C321 C316 1.397 . S
C321 C320 1.388 . S
C321 C352 1.519 . S
C322 C316 1.492 . S
C322 C323 1.363 . S
C322 C327 1.390 . S
C323 H288 0.930 . S
C323 C322 1.363 . S
C323 C324 1.372 . S
C324 H289 0.930 . S
C324 C323 1.372 . S
C324 C325 1.383 . S
C325 C324 1.383 . S
C325 C326 1.395 . S
C326 H290 0.930 . S
C326 C325 1.395 . S
C326 C327 1.362 . S
C327 H291 0.930 . S
C327 C322 1.390 . S
C327 C326 1.362 . S
C328 C317 1.492 . S
C328 C329 1.377 . S
C328 C333 1.397 . S
C329 H292 0.931 . S
C329 C328 1.377 . S
C329 C330 1.376 . S
C330 H293 0.930 . S
C330 C329 1.376 . S
C330 C331 1.376 . S
C331 C330 1.376 . S
C331 C332 1.378 . S
C331 C358 1.486 . S
C332 H294 0.930 . S
C332 C331 1.378 . S
C332 C333 1.376 . S
C333 H295 0.929 . S
C333 C328 1.397 . S
C333 C332 1.376 . S
C334 C318 1.509 . S
C334 C335 1.391 . S
C334 C339 1.386 . S
C335 H296 0.930 . S
C335 C334 1.391 . S
C335 C336 1.375 . S
C336 H297 0.931 . S
C336 C335 1.375 . S
C336 C337 1.375 . S
C337 C336 1.375 . S
C337 C338 1.361 . S
C338 H298 0.930 . S
C338 C337 1.361 . S
C338 C339 1.399 . S
C339 H299 0.929 . S
C339 C334 1.386 . S
C339 C338 1.399 . S
C340 C319 1.485 . S
C340 C341 1.394 . S
C340 C345 1.360 . S
C341 H300 0.931 . S
C341 C340 1.394 . S
C341 C342 1.372 . S
C342 H301 0.930 . S
C342 C341 1.372 . S
C342 C343 1.397 . S
C343 C342 1.397 . S
C343 C344 1.390 . S
C343 C359 1.476 . S
C344 H302 0.930 . S
C344 C343 1.390 . S
C344 C345 1.366 . S
C345 H303 0.932 . S
C345 C340 1.360 . S
C345 C344 1.366 . S
C346 C320 1.490 . S
C346 C347 1.380 . S
C346 C351 1.386 . S
C347 H304 0.930 . S
C347 C346 1.380 . S
C347 C348 1.381 . S
C348 H305 0.929 . S
C348 C347 1.381 . S
C348 C349 1.371 . S
C349 C348 1.371 . S
C349 C350 1.380 . S
C350 H306 0.931 . S
C350 C349 1.380 . S
C350 C351 1.387 . S
C351 H307 0.930 . S
C351 C346 1.386 . S
C351 C350 1.387 . S
C352 C321 1.519 . S
C352 C353 1.377 . S
C352 C357 1.361 . S
C353 H308 0.929 . S
C353 C352 1.377 . S
C353 C354 1.386 . S
C354 H309 0.931 . S
C354 C353 1.386 . S
C354 C355 1.363 . S
C355 C354 1.363 . S
C355 C356 1.385 . S
C356 H310 0.930 . S
C356 C355 1.385 . S
C356 C357 1.396 . S
C357 H311 0.929 . S
C357 C352 1.361 . S
C357 C356 1.396 . S
C358 O312 1.300 . S
C358 O313 1.209 . S
C358 C331 1.486 . S
C359 O314 1.199 . S
C359 O315 1.297 1_565 S
C359 C343 1.476 . S
H360 O386 0.856 . S
H361 O389 0.854 . S
H362 C397 0.930 . S
H363 C398 0.930 . S
H364 C400 0.930 . S
H365 C401 0.930 . S
H366 C403 0.931 . S
H367 C404 0.930 . S
H368 C406 0.930 . S
H369 C407 0.929 . S
H370 C409 0.930 . S
H371 C410 0.931 . S
H372 C412 0.930 . S
H373 C413 0.929 . S
H374 C415 0.931 . S
H375 C416 0.930 . S
H376 C418 0.930 . S
H377 C419 0.932 . S
H378 C421 0.930 . S
H379 C422 0.929 . S
H380 C424 0.931 . S
H381 C425 0.930 . S
H382 C427 0.929 . S
H383 C428 0.931 . S
H384 C430 0.930 . S
H385 C431 0.929 . S
O386 H360 0.856 . S
O386 C432 1.300 . S
O387 C432 1.209 . S
O388 C433 1.199 . S
O389 H361 0.854 . S
O389 C433 1.297 . S
C390 C391 1.404 . S
C390 C395 1.397 . S
C390 C396 1.492 . S
C391 C390 1.404 . S
C391 C392 1.396 . S
C391 C402 1.492 . S
C392 C391 1.396 . S
C392 C393 1.397 . S
C392 C408 1.509 . S
C393 C392 1.397 . S
C393 C394 1.412 . S
C393 C414 1.485 . S
C394 C393 1.412 . S
C394 C395 1.388 . S
C394 C420 1.490 . S
C395 C390 1.397 . S
C395 C394 1.388 . S
C395 C426 1.519 . S
C396 C390 1.492 . S
C396 C397 1.363 . S
C396 C401 1.390 . S
C397 H362 0.930 . S
C397 C396 1.363 . S
C397 C398 1.372 . S
C398 H363 0.930 . S
C398 C397 1.372 . S
C398 C399 1.383 . S
C399 C398 1.383 . S
C399 C400 1.395 . S
C400 H364 0.930 . S
C400 C399 1.395 . S
C400 C401 1.362 . S
C401 H365 0.930 . S
C401 C396 1.390 . S
C401 C400 1.362 . S
C402 C391 1.492 . S
C402 C403 1.377 . S
C402 C407 1.397 . S
C403 H366 0.931 . S
C403 C402 1.377 . S
C403 C404 1.376 . S
C404 H367 0.930 . S
C404 C403 1.376 . S
C404 C405 1.376 . S
C405 C404 1.376 . S
C405 C406 1.378 . S
C405 C432 1.486 . S
C406 H368 0.930 . S
C406 C405 1.378 . S
C406 C407 1.376 . S
C407 H369 0.929 . S
C407 C402 1.397 . S
C407 C406 1.376 . S
C408 C392 1.509 . S
C408 C409 1.391 . S
C408 C413 1.386 . S
C409 H370 0.930 . S
C409 C408 1.391 . S
C409 C410 1.375 . S
C410 H371 0.931 . S
C410 C409 1.375 . S
C410 C411 1.375 . S
C411 C410 1.375 . S
C411 C412 1.361 . S
C412 H372 0.930 . S
C412 C411 1.361 . S
C412 C413 1.399 . S
C413 H373 0.929 . S
C413 C408 1.386 . S
C413 C412 1.399 . S
C414 C393 1.485 . S
C414 C415 1.394 . S
C414 C419 1.360 . S
C415 H374 0.931 . S
C415 C414 1.394 . S
C415 C416 1.372 1_655 S
C416 H375 0.930 . S
C416 C415 1.372 1_455 S
C416 C417 1.397 . S
C417 C416 1.397 . S
C417 C418 1.390 1_455 S
C417 C433 1.476 . S
C418 H376 0.930 . S
C418 C417 1.390 1_655 S
C418 C419 1.366 . S
C419 H377 0.932 . S
C419 C414 1.360 . S
C419 C418 1.366 . S
C420 C394 1.490 . S
C420 C421 1.380 . S
C420 C425 1.386 . S
C421 H378 0.930 . S
C421 C420 1.380 . S
C421 C422 1.381 . S
C422 H379 0.929 . S
C422 C421 1.381 . S
C422 C423 1.371 . S
C423 C422 1.371 . S
C423 C424 1.380 . S
C424 H380 0.931 . S
C424 C423 1.380 . S
C424 C425 1.387 . S
C425 H381 0.930 . S
C425 C420 1.386 . S
C425 C424 1.387 . S
C426 C395 1.519 . S
C426 C427 1.377 . S
C426 C431 1.361 . S
C427 H382 0.929 . S
C427 C426 1.377 . S
C427 C428 1.386 . S
C428 H383 0.931 . S
C428 C427 1.386 . S
C428 C429 1.363 . S
C429 C428 1.363 . S
C429 C430 1.385 . S
C430 H384 0.930 . S
C430 C429 1.385 . S
C430 C431 1.396 . S
C431 H385 0.929 . S
C431 C426 1.361 . S
C431 C430 1.396 . S
C432 O386 1.300 . S
C432 O387 1.209 . S
C432 C405 1.486 . S
C433 O388 1.199 . S
C433 O389 1.297 . S
C433 C417 1.476 . S
H434 O460 0.856 . S
H435 O463 0.854 . S
H436 C471 0.930 . S
H437 C472 0.930 . S
H438 C474 0.930 . S
H439 C475 0.930 . S
H440 C477 0.931 . S
H441 C478 0.930 . S
H442 C480 0.930 . S
H443 C481 0.929 . S
H444 C483 0.930 . S
H445 C484 0.931 . S
H446 C486 0.930 . S
H447 C487 0.929 . S
H448 C489 0.931 . S
H449 C490 0.930 . S
H450 C492 0.930 . S
H451 C493 0.932 . S
H452 C495 0.930 . S
H453 C496 0.929 . S
H454 C498 0.931 . S
H455 C499 0.930 . S
H456 C501 0.929 . S
H457 C502 0.931 . S
H458 C504 0.930 . S
H459 C505 0.929 . S
O460 H434 0.856 . S
O460 C506 1.300 . S
O461 C506 1.209 . S
O462 C507 1.199 . S
O463 H435 0.854 . S
O463 C507 1.297 . S
C464 C465 1.404 . S
C464 C469 1.397 . S
C464 C470 1.492 . S
C465 C464 1.404 . S
C465 C466 1.396 . S
C465 C476 1.492 . S
C466 C465 1.396 . S
C466 C467 1.397 . S
C466 C482 1.509 . S
C467 C466 1.397 . S
C467 C468 1.412 . S
C467 C488 1.485 . S
C468 C467 1.412 . S
C468 C469 1.388 . S
C468 C494 1.490 . S
C469 C464 1.397 . S
C469 C468 1.388 . S
C469 C500 1.519 . S
C470 C464 1.492 . S
C470 C471 1.363 . S
C470 C475 1.390 . S
C471 H436 0.930 . S
C471 C470 1.363 . S
C471 C472 1.372 . S
C472 H437 0.930 . S
C472 C471 1.372 . S
C472 C473 1.383 . S
C473 C472 1.383 . S
C473 C474 1.395 . S
C474 H438 0.930 . S
C474 C473 1.395 . S
C474 C475 1.362 . S
C475 H439 0.930 . S
C475 C470 1.390 . S
C475 C474 1.362 . S
C476 C465 1.492 . S
C476 C477 1.377 . S
C476 C481 1.397 . S
C477 H440 0.931 . S
C477 C476 1.377 . S
C477 C478 1.376 . S
C478 H441 0.930 . S
C478 C477 1.376 . S
C478 C479 1.376 . S
C479 C478 1.376 . S
C479 C480 1.378 . S
C479 C506 1.486 . S
C480 H442 0.930 . S
C480 C479 1.378 . S
C480 C481 1.376 . S
C481 H443 0.929 . S
C481 C476 1.397 . S
C481 C480 1.376 . S
C482 C466 1.509 . S
C482 C483 1.391 . S
C482 C487 1.386 . S
C483 H444 0.930 . S
C483 C482 1.391 . S
C483 C484 1.375 . S
C484 H445 0.931 . S
C484 C483 1.375 . S
C484 C485 1.375 . S
C485 C484 1.375 . S
C485 C486 1.361 . S
C486 H446 0.930 . S
C486 C485 1.361 . S
C486 C487 1.399 . S
C487 H447 0.929 . S
C487 C482 1.386 . S
C487 C486 1.399 . S
C488 C467 1.485 . S
C488 C489 1.394 . S
C488 C493 1.360 . S
C489 H448 0.931 . S
C489 C488 1.394 . S
C489 C490 1.372 . S
C490 H449 0.930 . S
C490 C489 1.372 . S
C490 C491 1.397 . S
C491 C490 1.397 . S
C491 C492 1.390 . S
C491 C507 1.476 . S
C492 H450 0.930 . S
C492 C491 1.390 . S
C492 C493 1.366 . S
C493 H451 0.932 . S
C493 C488 1.360 . S
C493 C492 1.366 . S
C494 C468 1.490 . S
C494 C495 1.380 . S
C494 C499 1.386 . S
C495 H452 0.930 . S
C495 C494 1.380 . S
C495 C496 1.381 . S
C496 H453 0.929 . S
C496 C495 1.381 . S
C496 C497 1.371 . S
C497 C496 1.371 . S
C497 C498 1.380 . S
C498 H454 0.931 . S
C498 C497 1.380 . S
C498 C499 1.387 . S
C499 H455 0.930 . S
C499 C494 1.386 . S
C499 C498 1.387 . S
C500 C469 1.519 . S
C500 C501 1.377 . S
C500 C505 1.361 . S
C501 H456 0.929 . S
C501 C500 1.377 . S
C501 C502 1.386 . S
C502 H457 0.931 . S
C502 C501 1.386 . S
C502 C503 1.363 . S
C503 C502 1.363 . S
C503 C504 1.385 . S
C504 H458 0.930 . S
C504 C503 1.385 . S
C504 C505 1.396 . S
C505 H459 0.929 . S
C505 C500 1.361 . S
C505 C504 1.396 . S
C506 O460 1.300 . S
C506 O461 1.209 . S
C506 C479 1.486 . S
C507 O462 1.199 . S
C507 O463 1.297 . S
C507 C491 1.476 . S
H508 O534 0.856 . S
H509 O537 0.854 . S
H510 C545 0.930 . S
H511 C546 0.930 . S
H512 C548 0.930 . S
H513 C549 0.930 . S
H514 C551 0.931 . S
H515 C552 0.930 . S
H516 C554 0.930 . S
H517 C555 0.929 . S
H518 C557 0.930 . S
H519 C558 0.931 . S
H520 C560 0.930 . S
H521 C561 0.929 . S
H522 C563 0.931 . S
H523 C564 0.930 . S
H524 C566 0.930 . S
H525 C567 0.932 . S
H526 C569 0.930 . S
H527 C570 0.929 . S
H528 C572 0.931 . S
H529 C573 0.930 . S
H530 C575 0.929 . S
H531 C576 0.931 . S
H532 C578 0.930 . S
H533 C579 0.929 . S
O534 H508 0.856 . S
O534 C580 1.300 . S
O535 C580 1.209 . S
O536 C581 1.199 . S
O537 H509 0.854 . S
O537 C581 1.297 . S
C538 C539 1.404 . S
C538 C543 1.397 . S
C538 C544 1.492 . S
C539 C538 1.404 . S
C539 C540 1.396 . S
C539 C550 1.492 . S
C540 C539 1.396 . S
C540 C541 1.397 . S
C540 C556 1.509 . S
C541 C540 1.397 . S
C541 C542 1.412 . S
C541 C562 1.485 . S
C542 C541 1.412 . S
C542 C543 1.388 . S
C542 C568 1.490 . S
C543 C538 1.397 . S
C543 C542 1.388 . S
C543 C574 1.519 . S
C544 C538 1.492 . S
C544 C545 1.363 . S
C544 C549 1.390 . S
C545 H510 0.930 . S
C545 C544 1.363 . S
C545 C546 1.372 . S
C546 H511 0.930 . S
C546 C545 1.372 . S
C546 C547 1.383 . S
C547 C546 1.383 . S
C547 C548 1.395 . S
C548 H512 0.930 . S
C548 C547 1.395 . S
C548 C549 1.362 . S
C549 H513 0.930 . S
C549 C544 1.390 . S
C549 C548 1.362 . S
C550 C539 1.492 . S
C550 C551 1.377 . S
C550 C555 1.397 . S
C551 H514 0.931 . S
C551 C550 1.377 . S
C551 C552 1.376 . S
C552 H515 0.930 . S
C552 C551 1.376 . S
C552 C553 1.376 . S
C553 C552 1.376 . S
C553 C554 1.378 . S
C553 C580 1.486 . S
C554 H516 0.930 . S
C554 C553 1.378 . S
C554 C555 1.376 . S
C555 H517 0.929 . S
C555 C550 1.397 . S
C555 C554 1.376 . S
C556 C540 1.509 . S
C556 C557 1.391 . S
C556 C561 1.386 . S
C557 H518 0.930 . S
C557 C556 1.391 . S
C557 C558 1.375 . S
C558 H519 0.931 . S
C558 C557 1.375 . S
C558 C559 1.375 . S
C559 C558 1.375 . S
C559 C560 1.361 . S
C560 H520 0.930 . S
C560 C559 1.361 . S
C560 C561 1.399 . S
C561 H521 0.929 . S
C561 C556 1.386 . S
C561 C560 1.399 . S
C562 C541 1.485 . S
C562 C563 1.394 . S
C562 C567 1.360 . S
C563 H522 0.931 . S
C563 C562 1.394 . S
C563 C564 1.372 . S
C564 H523 0.930 . S
C564 C563 1.372 . S
C564 C565 1.397 . S
C565 C564 1.397 . S
C565 C566 1.390 . S
C565 C581 1.476 . S
C566 H524 0.930 . S
C566 C565 1.390 . S
C566 C567 1.366 . S
C567 H525 0.932 . S
C567 C562 1.360 . S
C567 C566 1.366 . S
C568 C542 1.490 . S
C568 C569 1.380 . S
C568 C573 1.386 . S
C569 H526 0.930 . S
C569 C568 1.380 . S
C569 C570 1.381 . S
C570 H527 0.929 . S
C570 C569 1.381 . S
C570 C571 1.371 . S
C571 C570 1.371 . S
C571 C572 1.380 . S
C572 H528 0.931 . S
C572 C571 1.380 . S
C572 C573 1.387 . S
C573 H529 0.930 . S
C573 C568 1.386 . S
C573 C572 1.387 . S
C574 C543 1.519 . S
C574 C575 1.377 . S
C574 C579 1.361 . S
C575 H530 0.929 . S
C575 C574 1.377 . S
C575 C576 1.386 . S
C576 H531 0.931 . S
C576 C575 1.386 . S
C576 C577 1.363 . S
C577 C576 1.363 . S
C577 C578 1.385 . S
C578 H532 0.930 . S
C578 C577 1.385 . S
C578 C579 1.396 . S
C579 H533 0.929 . S
C579 C574 1.361 . S
C579 C578 1.396 . S
C580 O534 1.300 . S
C580 O535 1.209 . S
C580 C553 1.486 . S
C581 O536 1.199 . S
C581 O537 1.297 . S
C581 C565 1.476 . S
H582 C594 0.930 . S
H583 C596 0.930 . S
H584 C597 0.930 . S
H585 C601 0.959 . S
H586 C601 0.959 . S
H587 C601 0.961 . S
H588 C602 0.960 . S
H589 C602 0.961 . S
H590 C602 0.959 . S
H591 C605 0.929 . S
H592 C606 0.931 . S
H593 C608 0.930 . S
C594 H582 0.930 . S
C594 C595 1.399 . S
C594 C599 1.399 . S
C595 C594 1.399 . S
C595 C596 1.376 . S
C596 H583 0.930 . S
C596 C595 1.376 . S
C596 C597 1.388 . S
C597 H584 0.930 . S
C597 C596 1.388 . S
C597 C598 1.390 . S
C598 C597 1.390 . S
C598 C599 1.394 . S
C598 C604 1.465 . S
C599 C594 1.399 . S
C599 C598 1.394 . S
C599 C600 1.516 . S
C600 C599 1.516 . S
C600 C601 1.502 . S
C600 C602 1.561 . S
C600 C603 1.526 . S
C601 H585 0.959 . S
C601 H586 0.959 . S
C601 H587 0.961 . S
C601 C600 1.502 . S
C602 H588 0.960 . S
C602 H589 0.961 . S
C602 H590 0.959 . S
C602 C600 1.561 . S
C603 C600 1.526 . S
C603 C604 1.396 . S
C603 C608 1.390 . S
C604 C598 1.465 . S
C604 C603 1.396 . S
C604 C605 1.399 . S
C605 H591 0.929 . S
C605 C604 1.399 . S
C605 C606 1.385 . S
C606 H592 0.931 . S
C606 C605 1.385 . S
C606 C607 1.389 . S
C607 C606 1.389 . S
C607 C608 1.387 . S
C608 H593 0.930 . S
C608 C603 1.390 . S
C608 C607 1.387 . S
H609 C621 0.930 . S
H610 C623 0.930 . S
H611 C624 0.930 . S
H612 C628 0.959 . S
H613 C628 0.959 . S
H614 C628 0.961 . S
H615 C629 0.960 . S
H616 C629 0.961 . S
H617 C629 0.959 . S
H618 C632 0.929 . S
H619 C633 0.931 . S
H620 C635 0.930 . S
C621 H609 0.930 . S
C621 C622 1.399 . S
C621 C626 1.399 . S
C622 C621 1.399 . S
C622 C623 1.376 . S
C623 H610 0.930 . S
C623 C622 1.376 . S
C623 C624 1.388 . S
C624 H611 0.930 . S
C624 C623 1.388 . S
C624 C625 1.390 . S
C625 C624 1.390 . S
C625 C626 1.394 . S
C625 C631 1.465 . S
C626 C621 1.399 . S
C626 C625 1.394 . S
C626 C627 1.516 . S
C627 C626 1.516 . S
C627 C628 1.502 . S
C627 C629 1.561 . S
C627 C630 1.526 . S
C628 H612 0.959 . S
C628 H613 0.959 . S
C628 H614 0.961 . S
C628 C627 1.502 . S
C629 H615 0.960 . S
C629 H616 0.961 . S
C629 H617 0.959 . S
C629 C627 1.561 . S
C630 C627 1.526 . S
C630 C631 1.396 . S
C630 C635 1.390 . S
C631 C625 1.465 . S
C631 C630 1.396 . S
C631 C632 1.399 . S
C632 H618 0.929 . S
C632 C631 1.399 . S
C632 C633 1.385 . S
C633 H619 0.931 . S
C633 C632 1.385 . S
C633 C634 1.389 . S
C634 C633 1.389 . S
C634 C635 1.387 . S
C635 H620 0.930 . S
C635 C630 1.390 . S
C635 C634 1.387 . S
H636 C648 0.930 . S
H637 C650 0.930 . S
H638 C651 0.930 . S
H639 C655 0.959 . S
H640 C655 0.959 . S
H641 C655 0.961 . S
H642 C656 0.960 . S
H643 C656 0.961 . S
H644 C656 0.959 . S
H645 C659 0.929 . S
H646 C660 0.931 . S
H647 C662 0.930 . S
C648 H636 0.930 . S
C648 C649 1.399 . S
C648 C653 1.399 . S
C649 C648 1.399 . S
C649 C650 1.376 . S
C650 H637 0.930 . S
C650 C649 1.376 . S
C650 C651 1.388 . S
C651 H638 0.930 . S
C651 C650 1.388 . S
C651 C652 1.390 . S
C652 C651 1.390 . S
C652 C653 1.394 . S
C652 C658 1.465 . S
C653 C648 1.399 . S
C653 C652 1.394 . S
C653 C654 1.516 . S
C654 C653 1.516 . S
C654 C655 1.502 . S
C654 C656 1.561 . S
C654 C657 1.526 . S
C655 H639 0.959 . S
C655 H640 0.959 . S
C655 H641 0.961 . S
C655 C654 1.502 . S
C656 H642 0.960 . S
C656 H643 0.961 . S
C656 H644 0.959 . S
C656 C654 1.561 . S
C657 C654 1.526 . S
C657 C658 1.396 . S
C657 C662 1.390 . S
C658 C652 1.465 . S
C658 C657 1.396 . S
C658 C659 1.399 . S
C659 H645 0.929 . S
C659 C658 1.399 . S
C659 C660 1.385 . S
C660 H646 0.931 . S
C660 C659 1.385 . S
C660 C661 1.389 . S
C661 C660 1.389 . S
C661 C662 1.387 . S
C662 H647 0.930 . S
C662 C657 1.390 . S
C662 C661 1.387 . S
H663 C675 0.930 . S
H664 C677 0.930 . S
H665 C678 0.930 . S
H666 C682 0.961 . S
H667 C682 0.958 . S
H668 C682 0.962 . S
H669 C683 0.960 . S
H670 C683 0.961 . S
H671 C683 0.959 . S
H672 C686 0.929 . S
H673 C687 0.931 . S
H674 C689 0.930 . S
C675 H663 0.930 . S
C675 C676 1.399 . S
C675 C680 1.399 . S
C676 C675 1.399 . S
C676 C677 1.376 . S
C677 H664 0.930 . S
C677 C676 1.376 . S
C677 C678 1.388 . S
C678 H665 0.930 . S
C678 C677 1.388 . S
C678 C679 1.390 . S
C679 C678 1.390 . S
C679 C680 1.394 . S
C679 C685 1.465 . S
C680 C675 1.399 . S
C680 C679 1.394 . S
C680 C681 1.516 . S
C681 C680 1.516 . S
C681 C682 1.500 1_655 S
C681 C683 1.561 . S
C681 C684 1.526 . S
C682 H666 0.961 . S
C682 H667 0.958 . S
C682 H668 0.962 . S
C682 C681 1.500 1_455 S
C683 H669 0.960 . S
C683 H670 0.961 . S
C683 H671 0.959 . S
C683 C681 1.561 . S
C684 C681 1.526 . S
C684 C685 1.396 . S
C684 C689 1.390 . S
C685 C679 1.465 . S
C685 C684 1.396 . S
C685 C686 1.399 . S
C686 H672 0.929 . S
C686 C685 1.399 . S
C686 C687 1.385 . S
C687 H673 0.931 . S
C687 C686 1.385 . S
C687 C688 1.389 . S
C688 C687 1.389 . S
C688 C689 1.387 . S
C689 H674 0.930 . S
C689 C684 1.390 . S
C689 C688 1.387 . S
H690 C702 0.930 . S
H691 C704 0.930 . S
H692 C705 0.930 . S
H693 C709 0.959 . S
H694 C709 0.959 . S
H695 C709 0.961 . S
H696 C710 0.960 . S
H697 C710 0.961 . S
H698 C710 0.959 . S
H699 C713 0.929 . S
H700 C714 0.931 . S
H701 C716 0.930 . S
C702 H690 0.930 . S
C702 C703 1.399 1_565 S
C702 C707 1.399 . S
C703 C702 1.399 1_545 S
C703 C704 1.376 . S
C704 H691 0.930 . S
C704 C703 1.376 . S
C704 C705 1.388 1_545 S
C705 H692 0.930 . S
C705 C704 1.388 1_565 S
C705 C706 1.390 . S
C706 C705 1.390 . S
C706 C707 1.394 . S
C706 C712 1.465 . S
C707 C702 1.399 . S
C707 C706 1.394 . S
C707 C708 1.516 . S
C708 C707 1.516 . S
C708 C709 1.502 . S
C708 C710 1.561 . S
C708 C711 1.526 . S
C709 H693 0.959 . S
C709 H694 0.959 . S
C709 H695 0.961 . S
C709 C708 1.502 . S
C710 H696 0.960 . S
C710 H697 0.961 . S
C710 H698 0.959 . S
C710 C708 1.561 . S
C711 C708 1.526 . S
C711 C712 1.396 . S
C711 C716 1.390 . S
C712 C706 1.465 . S
C712 C711 1.396 . S
C712 C713 1.399 . S
C713 H699 0.929 . S
C713 C712 1.399 . S
C713 C714 1.385 . S
C714 H700 0.931 . S
C714 C713 1.385 . S
C714 C715 1.389 . S
C715 C714 1.389 . S
C715 C716 1.387 . S
C716 H701 0.930 . S
C716 C711 1.390 . S
C716 C715 1.387 . S
H717 C729 0.930 . S
H718 C731 0.930 . S
H719 C732 0.930 . S
H720 C736 0.959 . S
H721 C736 0.959 . S
H722 C736 0.961 . S
H723 C737 0.960 . S
H724 C737 0.961 . S
H725 C737 0.959 . S
H726 C740 0.929 . S
H727 C741 0.931 . S
H728 C743 0.930 . S
C729 H717 0.930 . S
C729 C730 1.399 . S
C729 C734 1.399 . S
C730 C729 1.399 . S
C730 C731 1.376 . S
C731 H718 0.930 . S
C731 C730 1.376 . S
C731 C732 1.388 . S
C732 H719 0.930 . S
C732 C731 1.388 . S
C732 C733 1.390 . S
C733 C732 1.390 . S
C733 C734 1.394 . S
C733 C739 1.465 . S
C734 C729 1.399 . S
C734 C733 1.394 . S
C734 C735 1.516 . S
C735 C734 1.516 . S
C735 C736 1.502 . S
C735 C737 1.561 . S
C735 C738 1.526 . S
C736 H720 0.959 . S
C736 H721 0.959 . S
C736 H722 0.961 . S
C736 C735 1.502 . S
C737 H723 0.960 . S
C737 H724 0.961 . S
C737 H725 0.959 . S
C737 C735 1.561 . S
C738 C735 1.526 . S
C738 C739 1.396 . S
C738 C743 1.390 . S
C739 C733 1.465 . S
C739 C738 1.396 . S
C739 C740 1.399 . S
C740 H726 0.929 . S
C740 C739 1.399 . S
C740 C741 1.385 . S
C741 H727 0.931 . S
C741 C740 1.385 . S
C741 C742 1.389 . S
C742 C741 1.389 . S
C742 C743 1.387 . S
C743 H728 0.930 . S
C743 C738 1.390 . S
C743 C742 1.387 . S
H744 C756 0.930 . S
H745 C758 0.930 . S
H746 C759 0.930 . S
H747 C763 0.959 . S
H748 C763 0.959 . S
H749 C763 0.961 . S
H750 C764 0.960 . S
H751 C764 0.961 . S
H752 C764 0.959 . S
H753 C767 0.929 . S
H754 C768 0.931 . S
H755 C770 0.930 . S
C756 H744 0.930 . S
C756 C757 1.399 . S
C756 C761 1.399 . S
C757 C756 1.399 . S
C757 C758 1.376 . S
C758 H745 0.930 . S
C758 C757 1.376 . S
C758 C759 1.388 . S
C759 H746 0.930 . S
C759 C758 1.388 . S
C759 C760 1.390 . S
C760 C759 1.390 . S
C760 C761 1.394 . S
C760 C766 1.465 . S
C761 C756 1.399 . S
C761 C760 1.394 . S
C761 C762 1.516 . S
C762 C761 1.516 . S
C762 C763 1.502 . S
C762 C764 1.561 . S
C762 C765 1.526 . S
C763 H747 0.959 . S
C763 H748 0.959 . S
C763 H749 0.961 . S
C763 C762 1.502 . S
C764 H750 0.960 . S
C764 H751 0.961 . S
C764 H752 0.959 . S
C764 C762 1.561 . S
C765 C762 1.526 . S
C765 C766 1.396 . S
C765 C770 1.390 . S
C766 C760 1.465 . S
C766 C765 1.396 . S
C766 C767 1.399 . S
C767 H753 0.929 . S
C767 C766 1.399 . S
C767 C768 1.385 . S
C768 H754 0.931 . S
C768 C767 1.385 . S
C768 C769 1.389 . S
C769 C768 1.389 . S
C769 C770 1.387 . S
C770 H755 0.930 . S
C770 C765 1.390 . S
C770 C769 1.387 . S
H771 C783 0.930 . S
H772 C785 0.930 . S
H773 C786 0.923 1_556 S
H774 C790 0.959 . S
H775 C790 0.959 . S
H776 C790 0.961 1_554 S
H777 C791 0.960 . S
H778 C791 0.961 . S
H779 C791 0.959 . S
H780 C794 0.929 . S
H781 C795 0.931 . S
H782 C797 0.930 . S
C783 H771 0.930 . S
C783 C784 1.399 . S
C783 C788 1.399 . S
C784 C783 1.399 . S
C784 C785 1.376 . S
C785 H772 0.930 . S
C785 C784 1.376 . S
C785 C786 1.400 . S
C786 H773 0.923 1_554 S
C786 C785 1.400 . S
C786 C787 1.386 1_554 S
C787 C786 1.386 1_556 S
C787 C788 1.394 1_556 S
C787 C793 1.465 . S
C788 C783 1.399 . S
C788 C787 1.394 1_554 S
C788 C789 1.516 1_554 S
C789 C788 1.516 1_556 S
C789 C790 1.502 . S
C789 C791 1.561 1_556 S
C789 C792 1.526 . S
C790 H774 0.959 . S
C790 H775 0.959 . S
C790 H776 0.961 1_556 S
C790 C789 1.502 . S
C791 H777 0.960 . S
C791 H778 0.961 . S
C791 H779 0.959 . S
C791 C789 1.561 1_554 S
C792 C789 1.526 . S
C792 C793 1.396 . S
C792 C797 1.390 . S
C793 C787 1.465 . S
C793 C792 1.396 . S
C793 C794 1.399 . S
C794 H780 0.929 . S
C794 C793 1.399 . S
C794 C795 1.385 . S
C795 H781 0.931 . S
C795 C794 1.385 . S
C795 C796 1.389 . S
C796 C795 1.389 . S
C796 C797 1.387 . S
C797 H782 0.930 . S
C797 C792 1.390 . S
C797 C796 1.387 . S
H798 C810 0.930 . S
H799 C812 0.930 . S
H800 C813 0.930 . S
H801 C817 0.959 . S
H802 C817 0.959 . S
H803 C817 0.961 . S
H804 C818 0.960 . S
H805 C818 0.961 . S
H806 C818 0.959 . S
H807 C821 0.929 . S
H808 C822 0.931 . S
H809 C824 0.930 . S
C810 H798 0.930 . S
C810 C811 1.399 . S
C810 C815 1.399 . S
C811 C810 1.399 . S
C811 C812 1.376 . S
C812 H799 0.930 . S
C812 C811 1.376 . S
C812 C813 1.388 . S
C813 H800 0.930 . S
C813 C812 1.388 . S
C813 C814 1.390 . S
C814 C813 1.390 . S
C814 C815 1.394 . S
C814 C820 1.465 . S
C815 C810 1.399 . S
C815 C814 1.394 . S
C815 C816 1.516 . S
C816 C815 1.516 . S
C816 C817 1.502 . S
C816 C818 1.561 . S
C816 C819 1.526 . S
C817 H801 0.959 . S
C817 H802 0.959 . S
C817 H803 0.961 . S
C817 C816 1.502 . S
C818 H804 0.960 . S
C818 H805 0.961 . S
C818 H806 0.959 . S
C818 C816 1.561 . S
C819 C816 1.526 . S
C819 C820 1.396 . S
C819 C824 1.390 . S
C820 C814 1.465 . S
C820 C819 1.396 . S
C820 C821 1.399 . S
C821 H807 0.929 . S
C821 C820 1.399 . S
C821 C822 1.385 . S
C822 H808 0.931 . S
C822 C821 1.385 . S
C822 C823 1.389 . S
C823 C822 1.389 . S
C823 C824 1.387 . S
C824 H809 0.930 . S
C824 C819 1.390 . S
C824 C823 1.387 . S
H825 C837 0.930 . S
H826 C839 0.930 . S
H827 C840 0.930 . S
H828 C844 0.959 . S
H829 C844 0.959 . S
H830 C844 0.961 . S
H831 C845 0.960 . S
H832 C845 0.961 . S
H833 C845 0.957 . S
H834 C848 0.929 . S
H835 C849 0.931 . S
H836 C851 0.930 . S
C837 H825 0.930 . S
C837 C838 1.399 . S
C837 C842 1.399 1_554 S
C838 C837 1.399 . S
C838 C839 1.376 . S
C839 H826 0.930 . S
C839 C838 1.376 . S
C839 C840 1.388 . S
C840 H827 0.930 . S
C840 C839 1.388 . S
C840 C841 1.390 . S
C841 C840 1.390 . S
C841 C842 1.394 1_554 S
C841 C847 1.465 1_554 S
C842 C837 1.399 1_556 S
C842 C841 1.394 1_556 S
C842 C843 1.516 . S
C843 C842 1.516 . S
C843 C844 1.502 . S
C843 C845 1.561 . S
C843 C846 1.526 . S
C844 H828 0.959 . S
C844 H829 0.959 . S
C844 H830 0.961 . S
C844 C843 1.502 . S
C845 H831 0.960 . S
C845 H832 0.961 . S
C845 H833 0.957 . S
C845 C843 1.561 . S
C846 C843 1.526 . S
C846 C847 1.396 . S
C846 C851 1.390 . S
C847 C841 1.465 1_556 S
C847 C846 1.396 . S
C847 C848 1.399 . S
C848 H834 0.929 . S
C848 C847 1.399 . S
C848 C849 1.385 . S
C849 H835 0.931 . S
C849 C848 1.385 . S
C849 C850 1.389 . S
C850 C849 1.389 . S
C850 C851 1.387 . S
C851 H836 0.930 . S
C851 C846 1.390 . S
C851 C850 1.387 . S
H852 C864 0.930 . S
H853 C866 0.930 . S
H854 C867 0.930 . S
H855 C871 0.959 . S
H856 C871 0.959 . S
H857 C871 0.961 . S
H858 C872 0.960 . S
H859 C872 0.961 . S
H860 C872 0.959 . S
H861 C875 0.929 . S
H862 C876 0.931 . S
H863 C878 0.930 . S
C864 H852 0.930 . S
C864 C865 1.399 . S
C864 C869 1.399 . S
C865 C864 1.399 . S
C865 C866 1.376 . S
C866 H853 0.930 . S
C866 C865 1.376 . S
C866 C867 1.388 . S
C867 H854 0.930 . S
C867 C866 1.388 . S
C867 C868 1.390 . S
C868 C867 1.390 . S
C868 C869 1.394 . S
C868 C874 1.465 . S
C869 C864 1.399 . S
C869 C868 1.394 . S
C869 C870 1.516 . S
C870 C869 1.516 . S
C870 C871 1.502 . S
C870 C872 1.561 . S
C870 C873 1.526 . S
C871 H855 0.959 . S
C871 H856 0.959 . S
C871 H857 0.961 . S
C871 C870 1.502 . S
C872 H858 0.960 . S
C872 H859 0.961 . S
C872 H860 0.959 . S
C872 C870 1.561 . S
C873 C870 1.526 . S
C873 C874 1.396 . S
C873 C878 1.390 . S
C874 C868 1.465 . S
C874 C873 1.396 . S
C874 C875 1.399 . S
C875 H861 0.929 . S
C875 C874 1.399 . S
C875 C876 1.385 . S
C876 H862 0.931 . S
C876 C875 1.385 . S
C876 C877 1.389 . S
C877 C876 1.389 . S
C877 C878 1.387 . S
C878 H863 0.930 . S
C878 C873 1.390 . S
C878 C877 1.387 . S
H879 C891 0.930 . S
H880 C893 0.930 . S
H881 C894 0.930 . S
H882 C898 0.959 . S
H883 C898 0.959 . S
H884 C898 0.961 . S
H885 C899 0.960 . S
H886 C899 0.961 . S
H887 C899 0.959 . S
H888 C902 0.929 . S
H889 C903 0.931 . S
H890 C905 0.930 . S
C891 H879 0.930 . S
C891 C892 1.399 . S
C891 C896 1.399 . S
C892 C891 1.399 . S
C892 C893 1.376 . S
C893 H880 0.930 . S
C893 C892 1.376 . S
C893 C894 1.388 . S
C894 H881 0.930 . S
C894 C893 1.388 . S
C894 C895 1.390 . S
C895 C894 1.390 . S
C895 C896 1.394 . S
C895 C901 1.465 . S
C896 C891 1.399 . S
C896 C895 1.394 . S
C896 C897 1.516 . S
C897 C896 1.516 . S
C897 C898 1.502 . S
C897 C899 1.561 . S
C897 C900 1.526 . S
C898 H882 0.959 . S
C898 H883 0.959 . S
C898 H884 0.961 . S
C898 C897 1.502 . S
C899 H885 0.960 . S
C899 H886 0.961 . S
C899 H887 0.959 . S
C899 C897 1.561 . S
C900 C897 1.526 . S
C900 C901 1.396 . S
C900 C905 1.390 . S
C901 C895 1.465 . S
C901 C900 1.396 . S
C901 C902 1.399 . S
C902 H888 0.929 . S
C902 C901 1.399 . S
C902 C903 1.385 . S
C903 H889 0.931 . S
C903 C902 1.385 . S
C903 C904 1.389 . S
C904 C903 1.389 . S
C904 C905 1.387 . S
C905 H890 0.930 . S
C905 C900 1.390 . S
C905 C904 1.387 . S
H906 C918 0.930 . S
H907 C920 0.930 . S
H908 C921 0.930 . S
H909 C925 0.959 . S
H910 C925 0.959 . S
H911 C925 0.961 . S
H912 C926 0.960 . S
H913 C926 0.961 . S
H914 C926 0.959 . S
H915 C929 0.929 . S
H916 C930 0.931 . S
H917 C932 0.930 . S
C918 H906 0.930 . S
C918 C919 1.399 . S
C918 C923 1.399 . S
C919 C918 1.399 . S
C919 C920 1.376 . S
C920 H907 0.930 . S
C920 C919 1.376 . S
C920 C921 1.388 . S
C921 H908 0.930 . S
C921 C920 1.388 . S
C921 C922 1.390 . S
C922 C921 1.390 . S
C922 C923 1.394 . S
C922 C928 1.465 . S
C923 C918 1.399 . S
C923 C922 1.394 . S
C923 C924 1.516 . S
C924 C923 1.516 . S
C924 C925 1.502 . S
C924 C926 1.561 . S
C924 C927 1.526 . S
C925 H909 0.959 . S
C925 H910 0.959 . S
C925 H911 0.961 . S
C925 C924 1.502 . S
C926 H912 0.960 . S
C926 H913 0.961 . S
C926 H914 0.959 . S
C926 C924 1.561 . S
C927 C924 1.526 . S
C927 C928 1.396 . S
C927 C932 1.390 . S
C928 C922 1.465 . S
C928 C927 1.396 . S
C928 C929 1.399 . S
C929 H915 0.929 . S
C929 C928 1.399 . S
C929 C930 1.385 . S
C930 H916 0.931 . S
C930 C929 1.385 . S
C930 C931 1.389 . S
C931 C930 1.389 . S
C931 C932 1.387 . S
C932 H917 0.930 . S
C932 C927 1.390 . S
C932 C931 1.387 . S
H933 C945 0.930 . S
H934 C947 0.930 . S
H935 C948 0.930 . S
H936 C952 0.959 . S
H937 C952 0.959 . S
H938 C952 0.961 . S
H939 C953 0.960 . S
H940 C953 0.961 . S
H941 C953 0.959 . S
H942 C956 0.929 . S
H943 C957 0.931 . S
H944 C959 0.930 . S
C945 H933 0.930 . S
C945 C946 1.399 . S
C945 C950 1.399 . S
C946 C945 1.399 . S
C946 C947 1.376 . S
C947 H934 0.930 . S
C947 C946 1.376 . S
C947 C948 1.388 . S
C948 H935 0.930 . S
C948 C947 1.388 . S
C948 C949 1.390 . S
C949 C948 1.390 . S
C949 C950 1.394 . S
C949 C955 1.465 . S
C950 C945 1.399 . S
C950 C949 1.394 . S
C950 C951 1.516 . S
C951 C950 1.516 . S
C951 C952 1.502 . S
C951 C953 1.561 . S
C951 C954 1.526 . S
C952 H936 0.959 . S
C952 H937 0.959 . S
C952 H938 0.961 . S
C952 C951 1.502 . S
C953 H939 0.960 . S
C953 H940 0.961 . S
C953 H941 0.959 . S
C953 C951 1.561 . S
C954 C951 1.526 . S
C954 C955 1.396 . S
C954 C959 1.390 . S
C955 C949 1.465 . S
C955 C954 1.396 . S
C955 C956 1.399 . S
C956 H942 0.929 . S
C956 C955 1.399 . S
C956 C957 1.385 . S
C957 H943 0.931 . S
C957 C956 1.385 . S
C957 C958 1.389 . S
C958 C957 1.389 . S
C958 C959 1.387 . S
C959 H944 0.930 . S
C959 C954 1.390 . S
C959 C958 1.387 . S
H960 C972 0.930 . S
H961 C974 0.930 . S
H962 C975 0.930 . S
H963 C979 0.959 . S
H964 C979 0.959 . S
H965 C979 0.961 . S
H966 C980 0.960 . S
H967 C980 0.961 . S
H968 C980 0.959 . S
H969 C983 0.929 . S
H970 C984 0.931 . S
H971 C986 0.930 . S
C972 H960 0.930 . S
C972 C973 1.399 1_556 S
C972 C977 1.399 . S
C973 C972 1.399 1_554 S
C973 C974 1.376 . S
C974 H961 0.930 . S
C974 C973 1.376 . S
C974 C975 1.388 . S
C975 H962 0.930 . S
C975 C974 1.388 . S
C975 C976 1.390 1_554 S
C976 C975 1.390 1_556 S
C976 C977 1.394 . S
C976 C982 1.465 . S
C977 C972 1.399 . S
C977 C976 1.394 . S
C977 C978 1.516 . S
C978 C977 1.516 . S
C978 C979 1.502 . S
C978 C980 1.561 . S
C978 C981 1.526 . S
C979 H963 0.959 . S
C979 H964 0.959 . S
C979 H965 0.961 . S
C979 C978 1.502 . S
C980 H966 0.960 . S
C980 H967 0.961 . S
C980 H968 0.959 . S
C980 C978 1.561 . S
C981 C978 1.526 . S
C981 C982 1.396 . S
C981 C986 1.390 . S
C982 C976 1.465 . S
C982 C981 1.396 . S
C982 C983 1.399 . S
C983 H969 0.929 . S
C983 C982 1.399 . S
C983 C984 1.385 . S
C984 H970 0.931 . S
C984 C983 1.385 . S
C984 C985 1.389 . S
C985 C984 1.389 . S
C985 C986 1.387 . S
C986 H971 0.930 . S
C986 C981 1.390 . S
C986 C985 1.387 . S
H987 C999 0.930 . S
H988 C1001 0.930 . S
H989 C1002 0.930 . S
H990 C1006 0.959 . S
H991 C1006 0.959 . S
H992 C1006 0.961 . S
H993 C1007 0.960 . S
H994 C1007 0.961 . S
H995 C1007 0.959 . S
H996 C1010 0.929 . S
H997 C1011 0.931 . S
H998 C1013 0.930 . S
C999 H987 0.930 . S
C999 C1000 1.399 . S
C999 C1004 1.399 . S
C1000 C999 1.399 . S
C1000 C1001 1.376 . S
C1001 H988 0.930 . S
C1001 C1000 1.376 . S
C1001 C1002 1.388 . S
C1002 H989 0.930 . S
C1002 C1001 1.388 . S
C1002 C1003 1.390 . S
C1003 C1002 1.390 . S
C1003 C1004 1.394 . S
C1003 C1009 1.465 . S
C1004 C999 1.399 . S
C1004 C1003 1.394 . S
C1004 C1005 1.516 . S
C1005 C1004 1.516 . S
C1005 C1006 1.502 . S
C1005 C1007 1.561 . S
C1005 C1008 1.526 . S
C1006 H990 0.959 . S
C1006 H991 0.959 . S
C1006 H992 0.961 . S
C1006 C1005 1.502 . S
C1007 H993 0.960 . S
C1007 H994 0.961 . S
C1007 H995 0.959 . S
C1007 C1005 1.561 . S
C1008 C1005 1.526 . S
C1008 C1009 1.396 . S
C1008 C1013 1.390 . S
C1009 C1003 1.465 . S
C1009 C1008 1.396 . S
C1009 C1010 1.399 . S
C1010 H996 0.929 . S
C1010 C1009 1.399 . S
C1010 C1011 1.385 . S
C1011 H997 0.931 . S
C1011 C1010 1.385 . S
C1011 C1012 1.389 . S
C1012 C1011 1.389 . S
C1012 C1013 1.387 . S
C1013 H998 0.930 . S
C1013 C1008 1.390 . S
C1013 C1012 1.387 . S
H1014 C1026 0.930 . S
H1015 C1028 0.930 . S
H1016 C1029 0.930 . S
H1017 C1033 0.959 1_554 S
H1018 C1033 0.959 . S
H1019 C1033 0.961 1_554 S
H1020 C1034 0.960 . S
H1021 C1034 0.961 . S
H1022 C1034 0.959 . S
H1023 C1037 0.929 . S
H1024 C1038 0.931 . S
H1025 C1040 0.930 . S
C1026 H1014 0.930 . S
C1026 C1027 1.399 . S
C1026 C1031 1.399 . S
C1027 C1026 1.399 . S
C1027 C1028 1.376 . S
C1028 H1015 0.930 . S
C1028 C1027 1.376 . S
C1028 C1029 1.388 . S
C1029 H1016 0.930 . S
C1029 C1028 1.388 . S
C1029 C1030 1.394 . S
C1030 C1029 1.394 . S
C1030 C1031 1.394 . S
C1030 C1036 1.460 1_554 S
C1031 C1026 1.399 . S
C1031 C1030 1.394 . S
C1031 C1032 1.516 1_554 S
C1032 C1031 1.516 1_556 S
C1032 C1033 1.502 . S
C1032 C1034 1.561 . S
C1032 C1035 1.526 . S
C1033 H1017 0.959 1_556 S
C1033 H1018 0.959 . S
C1033 H1019 0.961 1_556 S
C1033 C1032 1.502 . S
C1034 H1020 0.960 . S
C1034 H1021 0.961 . S
C1034 H1022 0.959 . S
C1034 C1032 1.561 . S
C1035 C1032 1.526 . S
C1035 C1036 1.396 . S
C1035 C1040 1.390 . S
C1036 C1030 1.460 1_556 S
C1036 C1035 1.396 . S
C1036 C1037 1.399 . S
C1037 H1023 0.929 . S
C1037 C1036 1.399 . S
C1037 C1038 1.385 . S
C1038 H1024 0.931 . S
C1038 C1037 1.385 . S
C1038 C1039 1.389 . S
C1039 C1038 1.389 . S
C1039 C1040 1.387 . S
C1040 H1025 0.930 . S
C1040 C1035 1.390 . S
C1040 C1039 1.387 . S
H1041 C1053 0.930 . S
H1042 C1055 0.930 . S
H1043 C1056 0.930 . S
H1044 C1060 0.959 . S
H1045 C1060 0.959 . S
H1046 C1060 0.961 . S
H1047 C1061 0.960 . S
H1048 C1061 0.961 . S
H1049 C1061 0.959 . S
H1050 C1064 0.929 . S
H1051 C1065 0.931 . S
H1052 C1067 0.930 . S
C1053 H1041 0.930 . S
C1053 C1054 1.399 . S
C1053 C1058 1.399 . S
C1054 C1053 1.399 . S
C1054 C1055 1.376 . S
C1055 H1042 0.930 . S
C1055 C1054 1.376 . S
C1055 C1056 1.388 . S
C1056 H1043 0.930 . S
C1056 C1055 1.388 . S
C1056 C1057 1.390 . S
C1057 C1056 1.390 . S
C1057 C1058 1.394 . S
C1057 C1063 1.465 . S
C1058 C1053 1.399 . S
C1058 C1057 1.394 . S
C1058 C1059 1.516 . S
C1059 C1058 1.516 . S
C1059 C1060 1.502 . S
C1059 C1061 1.561 . S
C1059 C1062 1.526 . S
C1060 H1044 0.959 . S
C1060 H1045 0.959 . S
C1060 H1046 0.961 . S
C1060 C1059 1.502 . S
C1061 H1047 0.960 . S
C1061 H1048 0.961 . S
C1061 H1049 0.959 . S
C1061 C1059 1.561 . S
C1062 C1059 1.526 . S
C1062 C1063 1.396 . S
C1062 C1067 1.390 . S
C1063 C1057 1.465 . S
C1063 C1062 1.396 . S
C1063 C1064 1.399 . S
C1064 H1050 0.929 . S
C1064 C1063 1.399 . S
C1064 C1065 1.385 . S
C1065 H1051 0.931 . S
C1065 C1064 1.385 . S
C1065 C1066 1.389 . S
C1066 C1065 1.389 . S
C1066 C1067 1.387 . S
C1067 H1052 0.930 . S
C1067 C1062 1.390 . S
C1067 C1066 1.387 . S
H1068 C1080 0.930 . S
H1069 C1082 0.930 . S
H1070 C1083 0.930 . S
H1071 C1087 0.959 . S
H1072 C1087 0.959 . S
H1073 C1087 0.961 . S
H1074 C1088 0.960 . S
H1075 C1088 0.961 . S
H1076 C1088 0.959 . S
H1077 C1091 0.929 . S
H1078 C1092 0.931 . S
H1079 C1094 0.930 . S
C1080 H1068 0.930 . S
C1080 C1081 1.399 . S
C1080 C1085 1.399 . S
C1081 C1080 1.399 . S
C1081 C1082 1.376 . S
C1082 H1069 0.930 . S
C1082 C1081 1.376 . S
C1082 C1083 1.388 . S
C1083 H1070 0.930 . S
C1083 C1082 1.388 . S
C1083 C1084 1.390 . S
C1084 C1083 1.390 . S
C1084 C1085 1.394 . S
C1084 C1090 1.465 . S
C1085 C1080 1.399 . S
C1085 C1084 1.394 . S
C1085 C1086 1.516 . S
C1086 C1085 1.516 . S
C1086 C1087 1.502 . S
C1086 C1088 1.561 . S
C1086 C1089 1.526 . S
C1087 H1071 0.959 . S
C1087 H1072 0.959 . S
C1087 H1073 0.961 . S
C1087 C1086 1.502 . S
C1088 H1074 0.960 . S
C1088 H1075 0.961 . S
C1088 H1076 0.959 . S
C1088 C1086 1.561 . S
C1089 C1086 1.526 . S
C1089 C1090 1.396 . S
C1089 C1094 1.390 . S
C1090 C1084 1.465 . S
C1090 C1089 1.396 . S
C1090 C1091 1.399 . S
C1091 H1077 0.929 . S
C1091 C1090 1.399 . S
C1091 C1092 1.385 . S
C1092 H1078 0.931 . S
C1092 C1091 1.385 . S
C1092 C1093 1.389 . S
C1093 C1092 1.389 . S
C1093 C1094 1.387 . S
C1094 H1079 0.930 . S
C1094 C1089 1.390 . S
C1094 C1093 1.387 . S
H1095 C1107 0.930 . S
H1096 C1109 0.930 . S
H1097 C1110 0.930 . S
H1098 C1114 0.959 . S
H1099 C1114 0.959 . S
H1100 C1114 0.961 . S
H1101 C1115 0.960 . S
H1102 C1115 0.961 . S
H1103 C1115 0.959 . S
H1104 C1118 0.929 . S
H1105 C1119 0.931 . S
H1106 C1121 0.930 . S
C1107 H1095 0.930 . S
C1107 C1108 1.399 . S
C1107 C1112 1.399 . S
C1108 C1107 1.399 . S
C1108 C1109 1.376 . S
C1109 H1096 0.930 . S
C1109 C1108 1.376 . S
C1109 C1110 1.388 . S
C1110 H1097 0.930 . S
C1110 C1109 1.388 . S
C1110 C1111 1.390 . S
C1111 C1110 1.390 . S
C1111 C1112 1.394 . S
C1111 C1117 1.465 . S
C1112 C1107 1.399 . S
C1112 C1111 1.394 . S
C1112 C1113 1.516 . S
C1113 C1112 1.516 . S
C1113 C1114 1.502 . S
C1113 C1115 1.561 . S
C1113 C1116 1.526 . S
C1114 H1098 0.959 . S
C1114 H1099 0.959 . S
C1114 H1100 0.961 . S
C1114 C1113 1.502 . S
C1115 H1101 0.960 . S
C1115 H1102 0.961 . S
C1115 H1103 0.959 . S
C1115 C1113 1.561 . S
C1116 C1113 1.526 . S
C1116 C1117 1.396 . S
C1116 C1121 1.390 . S
C1117 C1111 1.465 . S
C1117 C1116 1.396 . S
C1117 C1118 1.399 . S
C1118 H1104 0.929 . S
C1118 C1117 1.399 . S
C1118 C1119 1.385 . S
C1119 H1105 0.931 . S
C1119 C1118 1.385 . S
C1119 C1120 1.389 . S
C1120 C1119 1.389 . S
C1120 C1121 1.387 . S
C1121 H1106 0.930 . S
C1121 C1116 1.390 . S
C1121 C1120 1.387 . S
H1122 C1134 0.930 . S
H1123 C1136 0.930 . S
H1124 C1137 0.930 . S
H1125 C1141 0.959 . S
H1126 C1141 0.959 . S
H1127 C1141 0.961 . S
H1128 C1142 0.960 . S
H1129 C1142 0.961 . S
H1130 C1142 0.959 . S
H1131 C1145 0.929 . S
H1132 C1146 0.931 . S
H1133 C1148 0.930 . S
C1134 H1122 0.930 . S
C1134 C1135 1.399 . S
C1134 C1139 1.399 . S
C1135 C1134 1.399 . S
C1135 C1136 1.376 . S
C1136 H1123 0.930 . S
C1136 C1135 1.376 . S
C1136 C1137 1.388 . S
C1137 H1124 0.930 . S
C1137 C1136 1.388 . S
C1137 C1138 1.390 . S
C1138 C1137 1.390 . S
C1138 C1139 1.394 . S
C1138 C1144 1.465 . S
C1139 C1134 1.399 . S
C1139 C1138 1.394 . S
C1139 C1140 1.516 . S
C1140 C1139 1.516 . S
C1140 C1141 1.502 . S
C1140 C1142 1.561 1_655 S
C1140 C1143 1.526 . S
C1141 H1125 0.959 . S
C1141 H1126 0.959 . S
C1141 H1127 0.961 . S
C1141 C1140 1.502 . S
C1142 H1128 0.960 . S
C1142 H1129 0.961 . S
C1142 H1130 0.959 . S
C1142 C1140 1.561 1_455 S
C1143 C1140 1.526 . S
C1143 C1144 1.396 . S
C1143 C1148 1.390 . S
C1144 C1138 1.465 . S
C1144 C1143 1.396 . S
C1144 C1145 1.399 . S
C1145 H1131 0.929 . S
C1145 C1144 1.399 . S
C1145 C1146 1.385 . S
C1146 H1132 0.931 . S
C1146 C1145 1.385 . S
C1146 C1147 1.389 . S
C1147 C1146 1.389 . S
C1147 C1148 1.387 . S
C1148 H1133 0.930 . S
C1148 C1143 1.390 . S
C1148 C1147 1.387 . S
H1149 C1161 0.930 . S
H1150 C1163 0.930 . S
H1151 C1164 0.930 . S
H1152 C1168 0.959 . S
H1153 C1168 0.959 . S
H1154 C1168 0.961 . S
H1155 C1169 0.960 . S
H1156 C1169 0.961 . S
H1157 C1169 0.959 1_565 S
H1158 C1172 0.929 . S
H1159 C1173 0.931 . S
H1160 C1175 0.930 . S
C1161 H1149 0.930 . S
C1161 C1162 1.399 . S
C1161 C1166 1.399 . S
C1162 C1161 1.399 . S
C1162 C1163 1.376 1_545 S
C1163 H1150 0.930 . S
C1163 C1162 1.376 1_565 S
C1163 C1164 1.388 . S
C1164 H1151 0.930 . S
C1164 C1163 1.388 . S
C1164 C1165 1.390 . S
C1165 C1164 1.390 . S
C1165 C1166 1.394 1_565 S
C1165 C1171 1.465 . S
C1166 C1161 1.399 . S
C1166 C1165 1.394 1_545 S
C1166 C1167 1.516 . S
C1167 C1166 1.516 . S
C1167 C1168 1.502 . S
C1167 C1169 1.561 . S
C1167 C1170 1.526 1_545 S
C1168 H1152 0.959 . S
C1168 H1153 0.959 . S
C1168 H1154 0.961 . S
C1168 C1167 1.502 . S
C1169 H1155 0.960 . S
C1169 H1156 0.961 . S
C1169 H1157 0.959 1_545 S
C1169 C1167 1.561 . S
C1170 C1167 1.526 1_565 S
C1170 C1171 1.396 . S
C1170 C1175 1.390 . S
C1171 C1165 1.465 . S
C1171 C1170 1.396 . S
C1171 C1172 1.399 . S
C1172 H1158 0.929 . S
C1172 C1171 1.399 . S
C1172 C1173 1.385 . S
C1173 H1159 0.931 . S
C1173 C1172 1.385 . S
C1173 C1174 1.389 . S
C1174 C1173 1.389 . S
C1174 C1175 1.387 . S
C1175 H1160 0.930 . S
C1175 C1170 1.390 . S
C1175 C1174 1.387 . S
H1176 C1188 0.930 . S
H1177 C1190 0.930 . S
H1178 C1191 0.930 . S
H1179 C1195 0.959 . S
H1180 C1195 0.959 . S
H1181 C1195 0.961 . S
H1182 C1196 0.960 . S
H1183 C1196 0.961 . S
H1184 C1196 0.959 . S
H1185 C1199 0.929 . S
H1186 C1200 0.931 . S
H1187 C1202 0.930 . S
C1188 H1176 0.930 . S
C1188 C1189 1.399 . S
C1188 C1193 1.399 . S
C1189 C1188 1.399 . S
C1189 C1190 1.376 . S
C1190 H1177 0.930 . S
C1190 C1189 1.376 . S
C1190 C1191 1.388 . S
C1191 H1178 0.930 . S
C1191 C1190 1.388 . S
C1191 C1192 1.390 . S
C1192 C1191 1.390 . S
C1192 C1193 1.394 . S
C1192 C1198 1.465 . S
C1193 C1188 1.399 . S
C1193 C1192 1.394 . S
C1193 C1194 1.516 . S
C1194 C1193 1.516 . S
C1194 C1195 1.502 . S
C1194 C1196 1.561 . S
C1194 C1197 1.526 . S
C1195 H1179 0.959 . S
C1195 H1180 0.959 . S
C1195 H1181 0.961 . S
C1195 C1194 1.502 . S
C1196 H1182 0.960 . S
C1196 H1183 0.961 . S
C1196 H1184 0.959 . S
C1196 C1194 1.561 . S
C1197 C1194 1.526 . S
C1197 C1198 1.396 . S
C1197 C1202 1.390 . S
C1198 C1192 1.465 . S
C1198 C1197 1.396 . S
C1198 C1199 1.399 . S
C1199 H1185 0.929 . S
C1199 C1198 1.399 . S
C1199 C1200 1.385 . S
C1200 H1186 0.931 . S
C1200 C1199 1.385 . S
C1200 C1201 1.389 . S
C1201 C1200 1.389 . S
C1201 C1202 1.387 . S
C1202 H1187 0.930 . S
C1202 C1197 1.390 . S
C1202 C1201 1.387 . S
H1203 C1215 0.930 . S
H1204 C1217 0.930 . S
H1205 C1218 0.930 . S
H1206 C1222 0.959 . S
H1207 C1222 0.959 . S
H1208 C1222 0.961 . S
H1209 C1223 0.960 . S
H1210 C1223 0.961 . S
H1211 C1223 0.959 . S
H1212 C1226 0.929 . S
H1213 C1227 0.931 . S
H1214 C1229 0.930 . S
C1215 H1203 0.930 . S
C1215 C1216 1.399 . S
C1215 C1220 1.399 . S
C1216 C1215 1.399 . S
C1216 C1217 1.376 . S
C1217 H1204 0.930 . S
C1217 C1216 1.376 . S
C1217 C1218 1.388 . S
C1218 H1205 0.930 . S
C1218 C1217 1.388 . S
C1218 C1219 1.390 . S
C1219 C1218 1.390 . S
C1219 C1220 1.394 . S
C1219 C1225 1.465 . S
C1220 C1215 1.399 . S
C1220 C1219 1.394 . S
C1220 C1221 1.516 . S
C1221 C1220 1.516 . S
C1221 C1222 1.502 . S
C1221 C1223 1.561 . S
C1221 C1224 1.526 . S
C1222 H1206 0.959 . S
C1222 H1207 0.959 . S
C1222 H1208 0.961 . S
C1222 C1221 1.502 . S
C1223 H1209 0.960 . S
C1223 H1210 0.961 . S
C1223 H1211 0.959 . S
C1223 C1221 1.561 . S
C1224 C1221 1.526 . S
C1224 C1225 1.396 . S
C1224 C1229 1.390 . S
C1225 C1219 1.465 . S
C1225 C1224 1.396 . S
C1225 C1226 1.399 . S
C1226 H1212 0.929 . S
C1226 C1225 1.399 . S
C1226 C1227 1.385 . S
C1227 H1213 0.931 . S
C1227 C1226 1.385 . S
C1227 C1228 1.389 . S
C1228 C1227 1.389 . S
C1228 C1229 1.387 . S
C1229 H1214 0.930 . S
C1229 C1224 1.390 . S
C1229 C1228 1.387 . S
C595 C7 2.374 . S
C607 C201 2.341 . S
C622 C30 1.307 . S
C634 C275 1.265 . S
C661 C325 1.753 . S
C649 N58 1.779 . S
C688 C411 1.126 . S
C676 N81 1.173 . S
C715 C503 2.018 . S
C703 C99 2.015 . S
C742 C547 1.628 . S
C730 N127 1.639 . S
C757 N25 1.276 . S
C769 C349 1.180 . S
C784 C62 2.459 . S
C796 C429 2.393 . S
C823 C485 1.470 . S
C811 C85 1.420 . S
C850 C571 1.290 . S
C838 N94 1.259 . S
C865 C131 2.409 . S
C877 C177 2.271 . S
C904 C251 1.711 1_455 S
C892 N2 1.672 . S
C931 C423 2.174 1_455 S
C919 C16 2.317 . S
C946 C39 2.021 . S
C958 C473 1.901 . S
C985 C577 2.245 . S
C973 N48 2.256 . S
C1000 N71 1.312 . S
C1012 C189 1.261 . S
C1027 C108 1.969 . S
C1039 C263 1.868 . S
C1054 N117 1.987 . S
C1066 C355 2.047 . S
C1081 N35 1.825 . S
C1093 C559 1.836 . S
C1120 C207 2.121 . S
C1108 C53 2.162 . S
C1135 C76 2.445 . S
C1147 C281 2.315 . S
C1162 N104 1.555 . S
C1174 C337 1.535 . S
C1189 C122 1.808 . S
C1201 C399 1.646 . S
C1216 N12 1.728 . S
C1228 C497 1.750 . S
