# Generated by pormake.
# Topology rtl, (3,6)-cn, num edge types: 1
# Building blocks:
#     Node 0, Type 0, BuildingBlock: BETDIP_clean_linker_0, # of connection points: 3
#     Node 1, Type 0, BuildingBlock: BETDIP_clean_linker_0, # of connection points: 3
#     Node 2, Type 0, BuildingBlock: BETDIP_clean_linker_0, # of connection points: 3
#     Node 3, Type 0, BuildingBlock: BETDIP_clean_linker_0, # of connection points: 3
#     Node 4, Type 1, BuildingBlock: LEVNOQ01_clean_sbu_1, # of connection points: 6
#     Node 5, Type 1, BuildingBlock: LEVNOQ01_clean_sbu_1, # of connection points: 6
#     Edge 6, Type (0, 1), BuildingBlock: XIVTED_clean_linker_0, # of connection points: 2
#     Edge 7, Type (0, 1), BuildingBlock: XIVTED_clean_linker_0, # of connection points: 2
#     Edge 8, Type (0, 1), BuildingBlock: XIVTED_clean_linker_0, # of connection points: 2
#     Edge 9, Type (0, 1), BuildingBlock: XIVTED_clean_linker_0, # of connection points: 2
#     Edge 10, Type (0, 1), BuildingBlock: XIVTED_clean_linker_0, # of connection points: 2
#     Edge 11, Type (0, 1), BuildingBlock: XIVTED_clean_linker_0, # of connection points: 2
#     Edge 12, Type (0, 1), BuildingBlock: XIVTED_clean_linker_0, # of connection points: 2
#     Edge 13, Type (0, 1), BuildingBlock: XIVTED_clean_linker_0, # of connection points: 2
#     Edge 14, Type (0, 1), BuildingBlock: XIVTED_clean_linker_0, # of connection points: 2
#     Edge 15, Type (0, 1), BuildingBlock: XIVTED_clean_linker_0, # of connection points: 2
#     Edge 16, Type (0, 1), BuildingBlock: XIVTED_clean_linker_0, # of connection points: 2
#     Edge 17, Type (0, 1), BuildingBlock: XIVTED_clean_linker_0, # of connection points: 2
# Relax obj value: 0.017
# Max RMSD: 0.117
# Mean RMSD: 0.089
data_MOF--net-rtl--node1-LEVNOQ01_clean_sbu_1--node2-BETDIP_clean_linker_0--edge1-XIVTED_clean_linker_0
_symmetry_space_group_name_H-M    P1
_symmetry_Int_Tables_number       1
_symmetry_cell_setting            triclinic
loop_
_symmetry_equiv_pos_as_xyz
'x, y, z'
_cell_length_a     36.334202
_cell_length_b     36.137888
_cell_length_c     22.30352
_cell_angle_alpha  90.746162
_cell_angle_beta   99.699563
_cell_angle_gamma 90.443944
loop_
_atom_site_label
_atom_site_type_symbol
_atom_site_fract_x
_atom_site_fract_y
_atom_site_fract_z
_atom_type_partial_charge
H0 H 0.19683 0.79953 0.98903 0.0
H1 H 0.20038 0.80799 0.1824 0.0
H2 H 0.15707 0.89754 0.06571 0.0
H3 H 0.25385 0.76986 0.18205 0.0
C4 C 0.24952 0.75544 0.13838 0.0
C5 C 0.19134 0.81507 0.02845 0.0
C6 C 0.17558 0.85015 0.02107 0.0
C7 C 0.20207 0.80066 0.08666 0.0
C8 C 0.19417 0.82032 0.13794 0.0
C9 C 0.1764 0.855 0.13074 0.0
C10 C 0.16895 0.87018 0.07219 0.0
N11 N 0.2206 0.7662 0.09092 0.0
H12 H 0.71803 0.70111 0.69703 0.0
H13 H 0.68975 0.72869 0.50755 0.0
H14 H 0.62771 0.64448 0.58165 0.0
H15 H 0.71464 0.78283 0.53972 0.0
C16 C 0.73801 0.77676 0.57526 0.0
C17 C 0.7006 0.697 0.65296 0.0
C18 C 0.67214 0.66992 0.6452 0.0
C19 C 0.70685 0.71886 0.60396 0.0
C20 C 0.68464 0.71299 0.54629 0.0
C21 C 0.65574 0.68646 0.53803 0.0
C22 C 0.64978 0.66521 0.58778 0.0
N23 N 0.73598 0.746 0.61378 0.0
H24 H 0.80212 0.2229 0.88888 0.0
H25 H 0.82154 0.22716 0.08444 0.0
H26 H 0.8725 0.14223 0.99149 0.0
H27 H 0.75527 0.23136 0.05386 0.0
C28 C 0.75533 0.25505 0.02426 0.0
C29 C 0.81639 0.21249 0.93186 0.0
C30 C 0.83877 0.18081 0.93315 0.0
C31 C 0.80952 0.22887 0.98613 0.0
C32 C 0.82704 0.21489 0.04228 0.0
C33 C 0.84925 0.18335 0.04421 0.0
C34 C 0.85532 0.16672 0.98965 0.0
N35 N 0.78154 0.25628 0.98375 0.0
H36 H 0.26838 0.33293 0.38257 0.0
H37 H 0.28153 0.32196 0.57578 0.0
H38 H 0.35543 0.39394 0.49696 0.0
H39 H 0.27077 0.25824 0.53823 0.0
C40 C 0.24681 0.26291 0.5029 0.0
C41 C 0.28297 0.34072 0.42749 0.0
C42 C 0.31264 0.36621 0.43403 0.0
C43 C 0.27284 0.32381 0.47819 0.0
C44 C 0.29101 0.33402 0.53686 0.0
C45 C 0.3206 0.36011 0.54493 0.0
C46 C 0.33142 0.37559 0.49265 0.0
N47 N 0.24488 0.29579 0.46851 0.0
O48 O 0.98305 0.09002 0.63902 0.0
Mg49 Mg 0.037 0.07492 0.62988 0.0
O50 O 0.95865 0.03864 0.5927 0.0
Mg51 Mg 0.00228 0.01294 0.53643 0.0
O52 O 0.0403 0.06447 0.54132 0.0
O53 O 0.06871 0.11269 0.59383 0.0
O54 O 0.04553 0.98827 0.47873 0.0
O55 O 0.96746 0.04096 0.45171 0.0
Mg56 Mg 0.96735 0.95458 0.44223 0.0
O57 O 0.96396 0.96059 0.53233 0.0
O58 O 0.02005 0.94018 0.42434 0.0
O59 O 0.93827 -0.00284 0.39106 0.0
O60 O 0.93725 0.91378 0.47321 0.0
C61 C 0.0593 -0.00255 0.67014 0.0
C62 C 0.95559 0.06832 0.62322 0.0
C63 C 0.06173 0.09349 0.544 0.0
C64 C 0.0479 0.96089 0.44285 0.0
C65 C 0.94475 0.03111 0.40404 0.0
C66 C 0.94318 0.93086 0.52515 0.0
O67 O 0.06353 0.03174 0.6827 0.0
O68 O 0.03799 0.98603 0.62181 0.0
O69 O 0.52675 0.51801 0.19868 0.0
Mg70 Mg 0.52303 0.47464 0.13314 0.0
O71 O 0.52846 0.55499 0.12265 0.0
Mg72 Mg 0.50186 0.51436 0.04524 0.0
O73 O 0.55061 0.46865 0.06063 0.0
O74 O 0.57008 0.44625 0.15411 0.0
O75 O 0.47807 0.47058 0.96497 0.0
O76 O 0.54246 0.54189 0.98883 0.0
Mg77 Mg 0.45904 0.53499 0.95383 0.0
O78 O 0.45735 0.56393 0.03244 0.0
O79 O 0.42136 0.49029 0.94031 0.0
O80 O 0.50368 0.53885 0.90247 0.0
O81 O 0.42948 0.58157 0.93983 0.0
C82 C 0.45239 0.45712 0.12326 0.0
C83 C 0.53169 0.54999 0.17947 0.0
C84 C 0.57293 0.44778 0.09744 0.0
C85 C 0.44448 0.46486 0.93863 0.0
C86 C 0.53625 0.54498 0.93137 0.0
C87 C 0.43535 0.58628 0.99801 0.0
O88 O 0.48022 0.43631 0.13167 0.0
O89 O 0.45596 0.48912 0.10103 0.0
H90 H 0.18043 0.26452 0.42253 0.0
H91 H 0.12522 0.0635 0.51922 0.0
H92 H 0.25112 0.19253 0.54367 0.0
H93 H 0.04562 0.14929 0.46438 0.0
H94 H 0.17377 0.1012 0.48509 0.0
H95 H 0.13409 0.21434 0.40082 0.0
C96 C 0.1864 0.23803 0.444 0.0
C97 C 0.21935 0.23268 0.48573 0.0
C98 C 0.14533 0.11112 0.47811 0.0
C99 C 0.16695 0.17528 0.46014 0.0
C100 C 0.11751 0.08933 0.49652 0.0
C101 C 0.08169 0.10368 0.49497 0.0
C102 C 0.13691 0.14728 0.45822 0.0
C103 C 0.07311 0.13751 0.46634 0.0
C104 C 0.16006 0.20942 0.43128 0.0
C105 C 0.2258 0.19781 0.51184 0.0
N106 N 0.10082 0.15873 0.45039 0.0
N107 N 0.19969 0.17048 0.49899 0.0
H108 H 0.30985 0.72714 0.21475 0.0
H109 H 0.39168 0.63847 0.9363 0.0
H110 H 0.25433 0.72439 0.02766 0.0
H111 H 0.4288 0.59965 0.11867 0.0
H112 H 0.34852 0.67952 0.97456 0.0
H113 H 0.35915 0.68727 0.18566 0.0
C114 C 0.30793 0.71802 0.16786 0.0
C115 C 0.278 0.72921 0.12364 0.0
C116 C 0.36614 0.6622 0.0065 0.0
C117 C 0.33417 0.68471 0.09016 0.0
C118 C 0.39107 0.63878 0.98469 0.0
C119 C 0.41364 0.61508 0.02415 0.0
C120 C 0.36352 0.66236 0.06849 0.0
C121 C 0.41171 0.61728 0.08658 0.0
C122 C 0.33599 0.69543 0.15138 0.0
C123 C 0.27674 0.71669 0.06354 0.0
N124 N 0.38677 0.6404 0.10696 0.0
N125 N 0.30448 0.69546 0.04868 0.0
H126 H 0.7445 0.83945 0.51375 0.0
H127 H 0.95438 0.86905 0.59338 0.0
H128 H 0.80381 0.77393 0.65852 0.0
H129 H 0.88101 0.96171 0.5537 0.0
H130 H 0.9032 0.83382 0.62529 0.0
H131 H 0.79659 0.8835 0.52721 0.0
C132 C 0.76837 0.83461 0.54891 0.0
C133 C 0.76978 0.80322 0.58529 0.0
C134 C 0.89872 0.86238 0.61204 0.0
C135 C 0.82956 0.85346 0.60093 0.0
C136 C 0.92801 0.88261 0.59457 0.0
C137 C 0.92172 0.91823 0.57113 0.0
C138 C 0.86286 0.87763 0.60359 0.0
C139 C 0.88691 0.93436 0.572 0.0
C140 C 0.79792 0.85991 0.55694 0.0
C141 C 0.80162 0.79791 0.62961 0.0
N142 N 0.85833 0.9135 0.58591 0.0
N143 N 0.83063 0.8226 0.63569 0.0
H144 H 0.70161 0.25317 0.0924 0.0
H145 H 0.61687 0.45339 0.00644 0.0
H146 H 0.74293 0.32028 0.95918 0.0
H147 H 0.58265 0.37849 0.13621 0.0
H148 H 0.65974 0.40523 0.9793 0.0
H149 H 0.65428 0.29879 0.10047 0.0
C150 C 0.70053 0.27765 0.06459 0.0
C151 C 0.72625 0.28312 0.02549 0.0
C152 C 0.64257 0.39953 0.0134 0.0
C153 C 0.672 0.33623 0.03462 0.0
C154 C 0.61821 0.42688 0.02875 0.0
C155 C 0.59703 0.42012 0.0747 0.0
C156 C 0.64492 0.36546 0.04382 0.0
C157 C 0.59927 0.3853 0.1018 0.0
C158 C 0.67343 0.30382 0.06909 0.0
C159 C 0.7236 0.31526 0.99024 0.0
N160 N 0.62276 0.35956 0.08614 0.0
N161 N 0.69698 0.34093 0.99593 0.0
H162 H 0.11359 0.89698 0.12734 0.0
H163 H 0.10277 0.9096 0.46764 0.0
H164 H 0.20863 0.85794 0.25309 0.0
H165 H 0.06394 -0.00169 0.34689 0.0
H166 H 0.14233 0.88807 0.39505 0.0
H167 H 0.09298 0.93076 0.20978 0.0
C168 C 0.1307 0.89595 0.17197 0.0
C169 C 0.16357 0.87498 0.18248 0.0
C170 C 0.12614 0.91298 0.38553 0.0
C171 C 0.13874 0.91289 0.27834 0.0
C172 C 0.10388 0.9254 0.42703 0.0
C173 C 0.08067 0.95599 0.41328 0.0
C174 C 0.12377 0.93055 0.32928 0.0
C175 C 0.08201 0.97496 0.35937 0.0
C176 C 0.11867 0.91526 0.21921 0.0
C177 C 0.1831 0.87351 0.24255 0.0
N178 N 0.1025 0.96141 0.31856 0.0
N179 N 0.17016 0.89192 0.28847 0.0
H180 H 0.65791 0.59551 0.64407 0.0
H181 H 0.5934 0.5943 0.96969 0.0
H182 H 0.66839 0.69157 0.76287 0.0
H183 H 0.54573 0.52483 0.81721 0.0
H184 H 0.63629 0.62125 0.90716 0.0
H185 H 0.63309 0.56032 0.7213 0.0
C186 C 0.65538 0.60911 0.68674 0.0
C187 C 0.66435 0.64682 0.69643 0.0
C188 C 0.6168 0.5997 0.88791 0.0
C189 C 0.63624 0.60651 0.78524 0.0
C190 C 0.5925 0.58423 0.9235 0.0
C191 C 0.56578 0.55767 0.89815 0.0
C192 C 0.61474 0.58782 0.8272 0.0
C193 C 0.56561 0.54562 0.83813 0.0
C194 C 0.64128 0.58897 0.73079 0.0
C195 C 0.66156 0.66265 0.75333 0.0
N196 N 0.58963 0.56083 0.80468 0.0
N197 N 0.64723 0.64254 0.79541 0.0
H198 H 0.83175 0.11356 0.07036 0.0
H199 H 0.96753 0.10283 0.38803 0.0
H200 H 0.89282 0.20993 0.14966 0.0
H201 H 0.88085 0.02277 0.32236 0.0
H202 H 0.94135 0.14414 0.30501 0.0
H203 H 0.8509 0.08059 0.1646 0.0
C204 C 0.84942 0.12766 0.10787 0.0
C205 C 0.86117 0.1642 0.10226 0.0
C206 C 0.92784 0.11775 0.30952 0.0
C207 C 0.88332 0.12671 0.21078 0.0
C208 C 0.94268 0.09423 0.35685 0.0
C209 C 0.92675 0.05901 0.3612 0.0
C210 C 0.89701 0.10574 0.2667 0.0
C211 C 0.89456 0.04928 0.31989 0.0
C212 C 0.86014 0.10898 0.1619 0.0
C213 C 0.88345 0.18158 0.15245 0.0
N214 N 0.88105 0.07231 0.27418 0.0
N215 N 0.89428 0.16248 0.2047 0.0
H216 H 0.33159 0.31848 0.65046 0.0
H217 H 0.47754 0.45599 0.83991 0.0
H218 H 0.35598 0.42627 0.58338 0.0
H219 H 0.38769 0.41406 0.92432 0.0
H220 H 0.44887 0.42589 0.74385 0.0
H221 H 0.36538 0.33702 0.75085 0.0
C222 C 0.34375 0.34597 0.65623 0.0
C223 C 0.34081 0.37064 0.60717 0.0
C224 C 0.43621 0.42232 0.78406 0.0
C225 C 0.38126 0.3908 0.72153 0.0
C226 C 0.45278 0.43892 0.83891 0.0
C227 C 0.43513 0.43692 0.88999 0.0
C228 C 0.40231 0.40299 0.78091 0.0
C229 C 0.40229 0.41567 0.8859 0.0
C230 C 0.3634 0.35622 0.71357 0.0
C231 C 0.3582 0.4056 0.61839 0.0
N232 N 0.38674 0.39949 0.83201 0.0
N233 N 0.37795 0.41442 0.67403 0.0
H234 H 0.67837 0.68352 0.42638 0.0
H235 H 0.50648 0.56181 0.28546 0.0
H236 H 0.58034 0.67285 0.51083 0.0
H237 H 0.58144 0.60668 0.17372 0.0
H238 H 0.53086 0.60629 0.36584 0.0
H239 H 0.64196 0.66081 0.33056 0.0
C240 C 0.64902 0.67718 0.42457 0.0
C241 C 0.63266 0.67922 0.47725 0.0
C242 C 0.54164 0.60694 0.32345 0.0
C243 C 0.59113 0.65248 0.36807 0.0
C244 C 0.52782 0.58145 0.27774 0.0
C245 C 0.54239 0.58042 0.2235 0.0
C246 C 0.57105 0.63084 0.31558 0.0
C247 C 0.56967 0.60663 0.21521 0.0
C248 C 0.62828 0.66409 0.36982 0.0
C249 C 0.59449 0.67052 0.47196 0.0
N250 N 0.58381 0.63033 0.26145 0.0
N251 N 0.57524 0.65687 0.41874 0.0
H252 H 0.83797 0.1059 0.91077 0.0
H253 H 0.91706 0.13163 0.60345 0.0
H254 H 0.84967 0.21073 0.82496 0.0
H255 H 0.91787 0.0278 0.69622 0.0
H256 H 0.87543 0.1569 0.6685 0.0
H257 H 0.85251 0.07406 0.8205 0.0
C258 C 0.84351 0.12226 0.87287 0.0
C259 C 0.84353 0.16115 0.87607 0.0
C260 C 0.88383 0.12828 0.6738 0.0
C261 C 0.85944 0.12473 0.77206 0.0
C262 C 0.90723 0.11375 0.6362 0.0
C263 C 0.92087 0.07775 0.64495 0.0
C264 C 0.87483 0.10688 0.72147 0.0
C265 C 0.90773 0.05569 0.68813 0.0
C266 C 0.85143 0.104 0.82111 0.0
C267 C 0.84957 0.18078 0.82473 0.0
N268 N 0.88606 0.07092 0.72597 0.0
N269 N 0.85776 0.16237 0.7752 0.0
H270 H 0.32378 0.32811 0.33225 0.0
H271 H 0.40868 0.50201 0.18139 0.0
H272 H 0.33131 0.43794 0.41182 0.0
H273 H 0.42434 0.38814 0.13215 0.0
H274 H 0.36719 0.48122 0.25091 0.0
H275 H 0.34843 0.352 0.24499 0.0
C276 C 0.33015 0.35739 0.33093 0.0
C277 C 0.32561 0.38108 0.37942 0.0
C278 C 0.37913 0.46089 0.22388 0.0
C279 C 0.35409 0.40862 0.27972 0.0
C280 C 0.40237 0.47276 0.18369 0.0
C281 C 0.41995 0.44668 0.15129 0.0
C282 C 0.37335 0.42279 0.23099 0.0
C283 C 0.41139 0.40909 0.1566 0.0
C284 C 0.34437 0.37099 0.28121 0.0
C285 C 0.33481 0.41869 0.37566 0.0
N286 N 0.38899 0.39825 0.19614 0.0
N287 N 0.34877 0.43131 0.32673 0.0
H288 H 0.20136 0.91457 0.98257 0.0
H289 H 0.04653 0.92255 0.68234 0.0
H290 H 0.12684 0.82312 0.92276 0.0
H291 H 0.12072 0.01232 0.75438 0.0
H292 H 0.08036 0.88182 0.76016 0.0
H293 H 0.17794 0.94655 0.88848 0.0
C294 C 0.1803 0.90112 0.94897 0.0
C295 C 0.16567 0.8665 0.96028 0.0
C296 C 0.08932 0.91037 0.75835 0.0
C297 C 0.13793 0.90312 0.85303 0.0
C298 C 0.07006 0.93358 0.71404 0.0
C299 C 0.08041 0.97104 0.71261 0.0
C300 C 0.11918 0.92485 0.80084 0.0
C301 C 0.11123 0.98385 0.75443 0.0
C302 C 0.16682 0.91934 0.89532 0.0
C303 C 0.13866 0.84993 0.91537 0.0
N304 N 0.12928 0.96091 0.79683 0.0
N305 N 0.12514 0.86868 0.86387 0.0
loop_
_geom_bond_atom_site_label_1
_geom_bond_atom_site_label_2
_geom_bond_distance
_geom_bond_site_symmetry_2
_ccdc_geom_bond_type
H0 C5 0.930 1_556 S
H1 C8 0.930 . S
H2 C10 0.930 . S
H3 C4 1.016 . S
C4 H3 1.016 . S
C4 N11 1.286 . S
C5 H0 0.930 1_554 S
C5 C6 1.397 . S
C5 C7 1.361 . S
C6 C5 1.397 . S
C6 C10 1.390 . S
C7 C5 1.361 . S
C7 C8 1.393 . S
C7 N11 1.413 . S
C8 H1 0.930 . S
C8 C7 1.393 . S
C8 C9 1.399 . S
C9 C8 1.399 . S
C9 C10 1.381 . S
C10 H2 0.930 . S
C10 C6 1.390 . S
C10 C9 1.381 . S
N11 C4 1.286 . S
N11 C7 1.413 . S
H12 C17 0.930 . S
H13 C20 0.930 . S
H14 C22 0.930 . S
H15 C16 1.016 . S
C16 H15 1.016 . S
C16 N23 1.286 . S
C17 H12 0.930 . S
C17 C18 1.397 . S
C17 C19 1.361 . S
C18 C17 1.397 . S
C18 C22 1.390 . S
C19 C17 1.361 . S
C19 C20 1.393 . S
C19 N23 1.413 . S
C20 H13 0.930 . S
C20 C19 1.393 . S
C20 C21 1.399 . S
C21 C20 1.399 . S
C21 C22 1.381 . S
C22 H14 0.930 . S
C22 C18 1.390 . S
C22 C21 1.381 . S
N23 C16 1.286 . S
N23 C19 1.413 . S
H24 C29 0.930 . S
H25 C32 0.930 . S
H26 C34 0.930 . S
H27 C28 1.016 . S
C28 H27 1.016 . S
C28 N35 1.286 1_554 S
C29 H24 0.930 . S
C29 C30 1.397 . S
C29 C31 1.361 . S
C30 C29 1.397 . S
C30 C34 1.390 1_556 S
C31 C29 1.361 . S
C31 C32 1.393 1_556 S
C31 N35 1.413 . S
C32 H25 0.930 . S
C32 C31 1.393 1_554 S
C32 C33 1.399 . S
C33 C32 1.399 . S
C33 C34 1.381 . S
C34 H26 0.930 . S
C34 C30 1.390 1_554 S
C34 C33 1.381 . S
N35 C28 1.286 1_556 S
N35 C31 1.413 . S
H36 C41 0.930 . S
H37 C44 0.930 . S
H38 C46 0.930 . S
H39 C40 1.016 . S
C40 H39 1.016 . S
C40 N47 1.286 . S
C41 H36 0.930 . S
C41 C42 1.397 . S
C41 C43 1.361 . S
C42 C41 1.397 . S
C42 C46 1.390 . S
C43 C41 1.361 . S
C43 C44 1.393 . S
C43 N47 1.413 . S
C44 H37 0.930 . S
C44 C43 1.393 . S
C44 C45 1.399 . S
C45 C44 1.399 . S
C45 C46 1.381 . S
C46 H38 0.930 . S
C46 C42 1.390 . S
C46 C45 1.381 . S
N47 C40 1.286 . S
N47 C43 1.413 . S
O48 Mg49 1.990 . S
O48 C62 1.253 1_455 S
Mg49 O48 1.990 . S
Mg49 O52 2.180 . S
Mg49 O53 2.117 . S
Mg49 O67 2.030 . S
O50 Mg51 2.072 1_655 S
O50 C62 1.260 . S
Mg51 O50 2.072 1_455 S
Mg51 O52 2.099 . S
Mg51 O54 2.079 1_545 S
Mg51 O55 2.072 1_455 S
Mg51 O57 2.099 1_445 S
Mg51 O68 2.079 1_545 S
O52 Mg49 2.180 . S
O52 Mg51 2.099 . S
O52 C63 1.279 . S
O53 Mg49 2.117 . S
O53 C63 1.250 . S
O54 Mg51 2.079 1_565 S
O54 C64 1.264 . S
O55 Mg51 2.072 1_655 S
O55 C65 1.260 . S
Mg56 O57 2.180 . S
Mg56 O58 2.030 1_655 S
Mg56 O59 1.990 1_565 S
Mg56 O60 2.117 . S
O57 Mg51 2.099 1_665 S
O57 Mg56 2.180 . S
O57 C66 1.279 . S
O58 Mg56 2.030 1_455 S
O58 C64 1.248 . S
O59 Mg56 1.990 1_545 S
O59 C65 1.253 . S
O60 Mg56 2.117 . S
O60 C66 1.250 . S
C61 O67 1.248 1_565 S
C61 O68 1.264 . S
C62 O48 1.253 1_655 S
C62 O50 1.260 . S
C63 O52 1.279 . S
C63 O53 1.250 . S
C64 O54 1.264 . S
C64 O58 1.248 . S
C65 O55 1.260 . S
C65 O59 1.253 . S
C66 O57 1.279 . S
C66 O60 1.250 . S
O67 Mg49 2.030 . S
O67 C61 1.248 1_545 S
O68 Mg51 2.079 1_565 S
O68 C61 1.264 . S
O69 Mg70 1.990 . S
O69 C83 1.253 . S
Mg70 O69 1.990 . S
Mg70 O73 2.180 . S
Mg70 O74 2.117 . S
Mg70 O88 2.030 . S
O71 Mg72 2.072 . S
O71 C83 1.260 . S
Mg72 O71 2.072 . S
Mg72 O73 2.099 . S
Mg72 O75 2.079 1_554 S
Mg72 O76 2.072 1_554 S
Mg72 O78 2.099 . S
Mg72 O89 2.079 . S
O73 Mg70 2.180 . S
O73 Mg72 2.099 . S
O73 C84 1.279 . S
O74 Mg70 2.117 . S
O74 C84 1.250 . S
O75 Mg72 2.079 1_556 S
O75 C85 1.264 . S
O76 Mg72 2.072 1_556 S
O76 C86 1.260 . S
Mg77 O78 2.180 1_556 S
Mg77 O79 2.030 . S
Mg77 O80 1.990 . S
Mg77 O81 2.117 . S
O78 Mg72 2.099 . S
O78 Mg77 2.180 1_554 S
O78 C87 1.279 . S
O79 Mg77 2.030 . S
O79 C85 1.248 . S
O80 Mg77 1.990 . S
O80 C86 1.253 . S
O81 Mg77 2.117 . S
O81 C87 1.250 1_556 S
C82 O88 1.248 . S
C82 O89 1.264 . S
C83 O69 1.253 . S
C83 O71 1.260 . S
C84 O73 1.279 . S
C84 O74 1.250 . S
C85 O75 1.264 . S
C85 O79 1.248 . S
C86 O76 1.260 . S
C86 O80 1.253 . S
C87 O78 1.279 . S
C87 O81 1.250 1_554 S
O88 Mg70 2.030 . S
O88 C82 1.248 . S
O89 Mg72 2.079 . S
O89 C82 1.264 . S
H90 C96 0.930 . S
H91 C100 0.930 . S
H92 C105 0.929 . S
H93 C103 0.929 . S
H94 C98 0.929 . S
H95 C104 0.929 . S
C96 H90 0.930 . S
C96 C97 1.367 . S
C96 C104 1.378 . S
C97 C96 1.367 . S
C97 C105 1.433 . S
C98 H94 0.929 . S
C98 C100 1.378 . S
C98 C102 1.350 . S
C99 C102 1.463 . S
C99 C104 1.350 . S
C99 N107 1.427 . S
C100 H91 0.930 . S
C100 C98 1.378 . S
C100 C101 1.367 . S
C101 C100 1.367 . S
C101 C103 1.433 . S
C102 C98 1.350 . S
C102 C99 1.463 . S
C102 N106 1.427 . S
C103 H93 0.929 . S
C103 C101 1.433 . S
C103 N106 1.384 . S
C104 H95 0.929 . S
C104 C96 1.378 . S
C104 C99 1.350 . S
C105 H92 0.929 . S
C105 C97 1.433 . S
C105 N107 1.384 . S
N106 C102 1.427 . S
N106 C103 1.384 . S
N107 C99 1.427 . S
N107 C105 1.384 . S
H108 C114 0.930 . S
H109 C118 0.930 1_556 S
H110 C123 0.929 1_556 S
H111 C121 0.929 . S
H112 C116 0.929 1_556 S
H113 C122 0.929 . S
C114 H108 0.930 . S
C114 C115 1.367 . S
C114 C122 1.378 . S
C115 C114 1.367 . S
C115 C123 1.433 . S
C116 H112 0.929 1_554 S
C116 C118 1.378 . S
C116 C120 1.350 . S
C117 C120 1.463 . S
C117 C122 1.350 . S
C117 N125 1.427 . S
C118 H109 0.930 1_554 S
C118 C116 1.378 . S
C118 C119 1.367 . S
C119 C118 1.367 . S
C119 C121 1.433 . S
C120 C116 1.350 . S
C120 C117 1.463 . S
C120 N124 1.427 . S
C121 H111 0.929 . S
C121 C119 1.433 . S
C121 N124 1.384 . S
C122 H113 0.929 . S
C122 C114 1.378 . S
C122 C117 1.350 . S
C123 H110 0.929 1_554 S
C123 C115 1.433 . S
C123 N125 1.384 . S
N124 C120 1.427 . S
N124 C121 1.384 . S
N125 C117 1.427 . S
N125 C123 1.384 . S
H126 C132 0.930 . S
H127 C136 0.930 . S
H128 C141 0.929 . S
H129 C139 0.929 . S
H130 C134 0.929 . S
H131 C140 0.929 . S
C132 H126 0.930 . S
C132 C133 1.367 . S
C132 C140 1.378 . S
C133 C132 1.367 . S
C133 C141 1.433 . S
C134 H130 0.929 . S
C134 C136 1.378 . S
C134 C138 1.350 . S
C135 C138 1.463 . S
C135 C140 1.350 . S
C135 N143 1.427 . S
C136 H127 0.930 . S
C136 C134 1.378 . S
C136 C137 1.367 . S
C137 C136 1.367 . S
C137 C139 1.433 . S
C138 C134 1.350 . S
C138 C135 1.463 . S
C138 N142 1.427 . S
C139 H129 0.929 . S
C139 C137 1.433 . S
C139 N142 1.384 . S
C140 H131 0.929 . S
C140 C132 1.378 . S
C140 C135 1.350 . S
C141 H128 0.929 . S
C141 C133 1.433 . S
C141 N143 1.384 . S
N142 C138 1.427 . S
N142 C139 1.384 . S
N143 C135 1.427 . S
N143 C141 1.384 . S
H144 C150 0.930 . S
H145 C154 0.930 . S
H146 C159 0.929 . S
H147 C157 0.929 . S
H148 C152 0.929 . S
H149 C158 0.929 . S
C150 H144 0.930 . S
C150 C151 1.367 . S
C150 C158 1.378 . S
C151 C150 1.367 . S
C151 C159 1.433 1_554 S
C152 H148 0.929 . S
C152 C154 1.378 . S
C152 C156 1.350 1_556 S
C153 C156 1.463 . S
C153 C158 1.350 . S
C153 N161 1.427 1_554 S
C154 H145 0.930 . S
C154 C152 1.378 . S
C154 C155 1.367 1_556 S
C155 C154 1.367 1_554 S
C155 C157 1.433 . S
C156 C152 1.350 1_554 S
C156 C153 1.463 . S
C156 N160 1.427 . S
C157 H147 0.929 . S
C157 C155 1.433 . S
C157 N160 1.384 . S
C158 H149 0.929 . S
C158 C150 1.378 . S
C158 C153 1.350 . S
C159 H146 0.929 . S
C159 C151 1.433 1_556 S
C159 N161 1.384 . S
N160 C156 1.427 . S
N160 C157 1.384 . S
N161 C153 1.427 1_556 S
N161 C159 1.384 . S
H162 C168 0.930 . S
H163 C172 0.930 . S
H164 C177 0.929 . S
H165 C175 0.929 . S
H166 C170 0.929 . S
H167 C176 0.929 . S
C168 H162 0.930 . S
C168 C169 1.367 . S
C168 C176 1.378 . S
C169 C168 1.367 . S
C169 C177 1.433 . S
C170 H166 0.929 . S
C170 C172 1.378 . S
C170 C174 1.350 . S
C171 C174 1.463 . S
C171 C176 1.350 . S
C171 N179 1.427 . S
C172 H163 0.930 . S
C172 C170 1.378 . S
C172 C173 1.367 . S
C173 C172 1.367 . S
C173 C175 1.433 . S
C174 C170 1.350 . S
C174 C171 1.463 . S
C174 N178 1.427 . S
C175 H165 0.929 . S
C175 C173 1.433 . S
C175 N178 1.384 . S
C176 H167 0.929 . S
C176 C168 1.378 . S
C176 C171 1.350 . S
C177 H164 0.929 . S
C177 C169 1.433 . S
C177 N179 1.384 . S
N178 C174 1.427 . S
N178 C175 1.384 . S
N179 C171 1.427 . S
N179 C177 1.384 . S
H180 C186 0.930 . S
H181 C190 0.930 . S
H182 C195 0.929 . S
H183 C193 0.929 . S
H184 C188 0.929 . S
H185 C194 0.929 . S
C186 H180 0.930 . S
C186 C187 1.367 . S
C186 C194 1.378 . S
C187 C186 1.367 . S
C187 C195 1.433 . S
C188 H184 0.929 . S
C188 C190 1.378 . S
C188 C192 1.350 . S
C189 C192 1.463 . S
C189 C194 1.350 . S
C189 N197 1.427 . S
C190 H181 0.930 . S
C190 C188 1.378 . S
C190 C191 1.367 . S
C191 C190 1.367 . S
C191 C193 1.433 . S
C192 C188 1.350 . S
C192 C189 1.463 . S
C192 N196 1.427 . S
C193 H183 0.929 . S
C193 C191 1.433 . S
C193 N196 1.384 . S
C194 H185 0.929 . S
C194 C186 1.378 . S
C194 C189 1.350 . S
C195 H182 0.929 . S
C195 C187 1.433 . S
C195 N197 1.384 . S
N196 C192 1.427 . S
N196 C193 1.384 . S
N197 C189 1.427 . S
N197 C195 1.384 . S
H198 C204 0.930 . S
H199 C208 0.930 . S
H200 C213 0.929 . S
H201 C211 0.929 . S
H202 C206 0.929 . S
H203 C212 0.929 . S
C204 H198 0.930 . S
C204 C205 1.367 . S
C204 C212 1.378 . S
C205 C204 1.367 . S
C205 C213 1.433 . S
C206 H202 0.929 . S
C206 C208 1.378 . S
C206 C210 1.350 . S
C207 C210 1.463 . S
C207 C212 1.350 . S
C207 N215 1.427 . S
C208 H199 0.930 . S
C208 C206 1.378 . S
C208 C209 1.367 . S
C209 C208 1.367 . S
C209 C211 1.433 . S
C210 C206 1.350 . S
C210 C207 1.463 . S
C210 N214 1.427 . S
C211 H201 0.929 . S
C211 C209 1.433 . S
C211 N214 1.384 . S
C212 H203 0.929 . S
C212 C204 1.378 . S
C212 C207 1.350 . S
C213 H200 0.929 . S
C213 C205 1.433 . S
C213 N215 1.384 . S
N214 C210 1.427 . S
N214 C211 1.384 . S
N215 C207 1.427 . S
N215 C213 1.384 . S
H216 C222 0.930 . S
H217 C226 0.930 . S
H218 C231 0.929 . S
H219 C229 0.929 . S
H220 C224 0.929 . S
H221 C230 0.929 . S
C222 H216 0.930 . S
C222 C223 1.367 . S
C222 C230 1.378 . S
C223 C222 1.367 . S
C223 C231 1.433 . S
C224 H220 0.929 . S
C224 C226 1.378 . S
C224 C228 1.350 . S
C225 C228 1.463 . S
C225 C230 1.350 . S
C225 N233 1.427 . S
C226 H217 0.930 . S
C226 C224 1.378 . S
C226 C227 1.367 . S
C227 C226 1.367 . S
C227 C229 1.433 . S
C228 C224 1.350 . S
C228 C225 1.463 . S
C228 N232 1.427 . S
C229 H219 0.929 . S
C229 C227 1.433 . S
C229 N232 1.384 . S
C230 H221 0.929 . S
C230 C222 1.378 . S
C230 C225 1.350 . S
C231 H218 0.929 . S
C231 C223 1.433 . S
C231 N233 1.384 . S
N232 C228 1.427 . S
N232 C229 1.384 . S
N233 C225 1.427 . S
N233 C231 1.384 . S
H234 C240 0.930 . S
H235 C244 0.930 . S
H236 C249 0.929 . S
H237 C247 0.929 . S
H238 C242 0.929 . S
H239 C248 0.929 . S
C240 H234 0.930 . S
C240 C241 1.367 . S
C240 C248 1.378 . S
C241 C240 1.367 . S
C241 C249 1.433 . S
C242 H238 0.929 . S
C242 C244 1.378 . S
C242 C246 1.350 . S
C243 C246 1.463 . S
C243 C248 1.350 . S
C243 N251 1.427 . S
C244 H235 0.930 . S
C244 C242 1.378 . S
C244 C245 1.367 . S
C245 C244 1.367 . S
C245 C247 1.433 . S
C246 C242 1.350 . S
C246 C243 1.463 . S
C246 N250 1.427 . S
C247 H237 0.929 . S
C247 C245 1.433 . S
C247 N250 1.384 . S
C248 H239 0.929 . S
C248 C240 1.378 . S
C248 C243 1.350 . S
C249 H236 0.929 . S
C249 C241 1.433 . S
C249 N251 1.384 . S
N250 C246 1.427 . S
N250 C247 1.384 . S
N251 C243 1.427 . S
N251 C249 1.384 . S
H252 C258 0.930 . S
H253 C262 0.930 . S
H254 C267 0.929 . S
H255 C265 0.929 . S
H256 C260 0.929 . S
H257 C266 0.929 . S
C258 H252 0.930 . S
C258 C259 1.367 . S
C258 C266 1.378 . S
C259 C258 1.367 . S
C259 C267 1.433 . S
C260 H256 0.929 . S
C260 C262 1.378 . S
C260 C264 1.350 . S
C261 C264 1.463 . S
C261 C266 1.350 . S
C261 N269 1.427 . S
C262 H253 0.930 . S
C262 C260 1.378 . S
C262 C263 1.367 . S
C263 C262 1.367 . S
C263 C265 1.433 . S
C264 C260 1.350 . S
C264 C261 1.463 . S
C264 N268 1.427 . S
C265 H255 0.929 . S
C265 C263 1.433 . S
C265 N268 1.384 . S
C266 H257 0.929 . S
C266 C258 1.378 . S
C266 C261 1.350 . S
C267 H254 0.929 . S
C267 C259 1.433 . S
C267 N269 1.384 . S
N268 C264 1.427 . S
N268 C265 1.384 . S
N269 C261 1.427 . S
N269 C267 1.384 . S
H270 C276 0.930 . S
H271 C280 0.930 . S
H272 C285 0.929 . S
H273 C283 0.929 . S
H274 C278 0.929 . S
H275 C284 0.929 . S
C276 H270 0.930 . S
C276 C277 1.367 . S
C276 C284 1.378 . S
C277 C276 1.367 . S
C277 C285 1.433 . S
C278 H274 0.929 . S
C278 C280 1.378 . S
C278 C282 1.350 . S
C279 C282 1.463 . S
C279 C284 1.350 . S
C279 N287 1.427 . S
C280 H271 0.930 . S
C280 C278 1.378 . S
C280 C281 1.367 . S
C281 C280 1.367 . S
C281 C283 1.433 . S
C282 C278 1.350 . S
C282 C279 1.463 . S
C282 N286 1.427 . S
C283 H273 0.929 . S
C283 C281 1.433 . S
C283 N286 1.384 . S
C284 H275 0.929 . S
C284 C276 1.378 . S
C284 C279 1.350 . S
C285 H272 0.929 . S
C285 C277 1.433 . S
C285 N287 1.384 . S
N286 C282 1.427 . S
N286 C283 1.384 . S
N287 C279 1.427 . S
N287 C285 1.384 . S
H288 C294 0.930 . S
H289 C298 0.930 . S
H290 C303 0.929 . S
H291 C301 0.929 1_545 S
H292 C296 0.929 . S
H293 C302 0.929 . S
C294 H288 0.930 . S
C294 C295 1.367 . S
C294 C302 1.378 . S
C295 C294 1.367 . S
C295 C303 1.433 . S
C296 H292 0.929 . S
C296 C298 1.378 . S
C296 C300 1.350 . S
C297 C300 1.463 . S
C297 C302 1.350 . S
C297 N305 1.427 . S
C298 H289 0.930 . S
C298 C296 1.378 . S
C298 C299 1.367 . S
C299 C298 1.367 . S
C299 C301 1.433 . S
C300 C296 1.350 . S
C300 C297 1.463 . S
C300 N304 1.427 . S
C301 H291 0.929 1_565 S
C301 C299 1.433 . S
C301 N304 1.384 . S
C302 H293 0.929 . S
C302 C294 1.378 . S
C302 C297 1.350 . S
C303 H290 0.929 . S
C303 C295 1.433 . S
C303 N305 1.384 . S
N304 C300 1.427 . S
N304 C301 1.384 . S
N305 C297 1.427 . S
N305 C303 1.384 . S
C101 C63 1.252 . S
C97 C40 1.452 . S
C115 C4 1.481 . S
C119 C87 1.274 . S
C133 C16 1.588 . S
C137 C66 1.412 . S
C151 C28 1.587 . S
C155 C84 1.400 . S
C173 C64 1.494 . S
C169 C9 1.499 . S
C191 C86 1.539 . S
C187 C18 1.606 . S
C205 C33 1.591 . S
C209 C65 1.553 . S
C223 C45 1.513 . S
C227 C85 1.455 . S
C245 C83 1.482 . S
C241 C21 1.532 . S
C263 C62 1.474 . S
C259 C30 1.542 . S
C281 C82 1.423 . S
C277 C42 1.461 . S
C295 C6 1.461 1_556 S
C299 C61 1.415 . S
