# Generated by pormake.
# Topology pts, (4,4)-cn, num edge types: 1
# Building blocks:
#     Node 0, Type 0, BuildingBlock: NAHDIM_clean_linker_0, # of connection points: 4
#     Node 1, Type 0, BuildingBlock: NAHDIM_clean_linker_0, # of connection points: 4
#     Node 2, Type 1, BuildingBlock: QUQFOY_clean_sbu_1, # of connection points: 4
#     Node 3, Type 1, BuildingBlock: QUQFOY_clean_sbu_1, # of connection points: 4
#     Edge 4, Type (0, 1), BuildingBlock: FUNLAD_clean_linker_0, # of connection points: 2
#     Edge 5, Type (0, 1), BuildingBlock: FUNLAD_clean_linker_0, # of connection points: 2
#     Edge 6, Type (0, 1), BuildingBlock: FUNLAD_clean_linker_0, # of connection points: 2
#     Edge 7, Type (0, 1), BuildingBlock: FUNLAD_clean_linker_0, # of connection points: 2
#     Edge 8, Type (0, 1), BuildingBlock: FUNLAD_clean_linker_0, # of connection points: 2
#     Edge 9, Type (0, 1), BuildingBlock: FUNLAD_clean_linker_0, # of connection points: 2
#     Edge 10, Type (0, 1), BuildingBlock: FUNLAD_clean_linker_0, # of connection points: 2
#     Edge 11, Type (0, 1), BuildingBlock: FUNLAD_clean_linker_0, # of connection points: 2
# Relax obj value: 0.113
# Max RMSD: 0.244
# Mean RMSD: 0.150
data_MOF--net-pts--node1-QUQFOY_clean_sbu_1--node2-NAHDIM_clean_linker_0--edge1-FUNLAD_clean_linker_0
_symmetry_space_group_name_H-M    P1
_symmetry_Int_Tables_number       1
_symmetry_cell_setting            triclinic
loop_
_symmetry_equiv_pos_as_xyz
'x, y, z'
_cell_length_a     33.64572
_cell_length_b     37.28474
_cell_length_c     62.004018
_cell_angle_alpha  90.287904
_cell_angle_beta   89.232092
_cell_angle_gamma 89.908974
loop_
_atom_site_label
_atom_site_type_symbol
_atom_site_fract_x
_atom_site_fract_y
_atom_site_fract_z
_atom_type_partial_charge
C0 C 0.7498 0.1199 0.07914 0.0
C1 C 0.73983 0.0873 0.09309 0.0
C2 C 0.69786 0.0471 0.07134 0.0
C3 C 0.69707 0.01381 0.06095 0.0
C4 C 0.6621 1.00063 0.05179 0.0
C5 C 0.627 0.0215 0.053 0.0
C6 C 0.62759 0.05549 0.06322 0.0
C7 C 0.66305 0.06806 0.07224 0.0
C8 C 0.66255 0.9643 0.04094 0.0
C9 C 0.59065 0.07844 0.06462 0.0
C10 C 0.46431 0.85831 0.14703 0.0
C11 C 0.45498 0.89271 0.13478 0.0
C12 C 0.46997 0.90639 0.09721 0.0
C13 C 0.46688 0.94387 0.09823 0.0
C14 C 0.48464 0.96536 0.08229 0.0
C15 C 0.50676 0.949 0.06529 0.0
C16 C 0.50934 0.91108 0.06411 0.0
C17 C 0.48995 0.89028 0.07983 0.0
C18 C 0.48046 0.0056 0.0839 0.0
C19 C 0.53366 0.8924 0.04674 0.0
C20 C 0.38982 0.93006 0.93674 0.0
C21 C 0.38721 0.96673 0.94198 0.0
C22 C 0.42037 0.98529 0.94981 0.0
C23 C 0.45688 0.96693 0.95215 0.0
C24 C 0.46001 0.93046 0.94594 0.0
C25 C 0.42638 0.91255 0.93826 0.0
C26 C 0.41634 0.02436 0.95589 0.0
C27 C 0.49869 0.91025 0.94782 0.0
C28 C 0.71029 0.14273 0.9112 0.0
C29 C 0.69806 0.10343 0.90885 0.0
C30 C 0.6313 0.08079 0.91511 0.0
C31 C 0.59414 0.09507 0.92062 0.0
C32 C 0.56714 0.07569 0.93346 0.0
C33 C 0.57729 0.04072 0.94031 0.0
C34 C 0.61373 0.02513 0.93336 0.0
C35 C 0.64061 0.04555 0.92105 0.0
C36 C 0.5284 0.09303 0.9403 0.0
C37 C 0.62481 0.98728 0.9394 0.0
C38 C 0.58953 0.00732 0.04396 0.0
C39 C 0.56496 0.98706 0.0575 0.0
C40 C 0.52998 0.97151 0.04995 0.0
C41 C 0.51909 0.97622 0.02817 0.0
C42 C 0.48395 0.96138 0.02001 0.0
C43 C 0.47466 0.96458 0.99829 0.0
C44 C 0.49993 0.98314 0.98394 0.0
C45 C 0.49154 0.98545 0.96168 0.0
C46 C 0.51712 0.00438 0.94792 0.0
C47 C 0.55103 0.02137 0.95578 0.0
C48 C 0.55997 0.01928 0.97799 0.0
C49 C 0.59372 0.0362 0.9865 0.0
C50 C 0.60333 0.03254 0.00812 0.0
C51 C 0.57927 0.01224 0.02215 0.0
C52 C 0.5442 0.99621 0.01416 0.0
C53 C 0.53459 0.99968 0.99203 0.0
C54 C 0.29652 0.88435 0.9404 0.0
C55 C 0.31825 0.91858 0.93365 0.0
O56 O 0.73281 0.05769 0.08008 0.0
O57 O 0.65783 0.10179 0.90443 0.0
O58 O 0.35807 0.91058 0.93016 0.0
O59 O 0.45452 0.88508 0.11288 0.0
H60 H 0.7131 0.09334 0.10324 0.0
H61 H 0.72458 0.12627 0.06845 0.0
H62 H 0.77654 0.11452 0.0689 0.0
H63 H 0.75548 0.1437 0.08951 0.0
H64 H 0.72409 0.99795 0.0602 0.0
H65 H 0.66322 0.09422 0.07984 0.0
H66 H 0.64068 0.9464 0.04903 0.0
H67 H 0.69232 0.9514 0.04134 0.0
H68 H 0.65352 0.96704 0.02387 0.0
H69 H 0.59609 0.10461 0.07269 0.0
H70 H 0.56704 0.06396 0.07372 0.0
H71 H 0.57934 0.08349 0.04817 0.0
H72 H 0.4794 0.912 0.1383 0.0
H73 H 0.46558 0.8638 0.16464 0.0
H74 H 0.49365 0.84759 0.14164 0.0
H75 H 0.44132 0.83757 0.144 0.0
H76 H 0.45061 0.95635 0.11147 0.0
H77 H 0.49185 0.86128 0.07917 0.0
H78 H 0.50888 0.01725 0.0895 0.0
H79 H 0.45653 0.01369 0.09546 0.0
H80 H 0.47399 0.01719 0.06786 0.0
H81 H 0.53802 0.86348 0.05024 0.0
H82 H 0.56327 0.90523 0.04491 0.0
H83 H 0.51828 0.89462 0.03109 0.0
H84 H 0.31453 0.93776 0.94735 0.0
H85 H 0.35947 0.98099 0.93999 0.0
H86 H 0.42826 0.88443 0.93383 0.0
H87 H 0.4239 0.02811 0.97314 0.0
H88 H 0.38584 0.03479 0.95328 0.0
H89 H 0.43767 0.04052 0.9462 0.0
H90 H 0.49686 0.88266 0.94106 0.0
H91 H 0.50696 0.90847 0.96506 0.0
H92 H 0.52283 0.92494 0.93926 0.0
H93 H 0.70418 0.0906 0.92468 0.0
H94 H 0.74251 0.14471 0.91474 0.0
H95 H 0.69334 0.15534 0.92474 0.0
H96 H 0.70404 0.15788 0.89623 0.0
H97 H 0.58708 0.12213 0.91562 0.0
H98 H 0.66896 0.0341 0.91616 0.0
H99 H 0.52523 0.09255 0.95815 0.0
H100 H 0.50324 0.07759 0.93355 0.0
H101 H 0.52612 0.12124 0.93476 0.0
H102 H 0.65004 0.97691 0.92943 0.0
H103 H 0.599 0.96905 0.93751 0.0
H104 H 0.63363 0.98667 0.95657 0.0
H105 H 0.57353 0.98287 0.07411 0.0
H106 H 0.46348 0.94673 0.0303 0.0
H107 H 0.4475 0.95213 0.99286 0.0
H108 H 0.5107 0.00567 0.93083 0.0
H109 H 0.61341 0.05216 0.9765 0.0
H110 H 0.62999 0.0457 0.01368 0.0
H111 H 0.26447 0.89001 0.94338 0.0
H112 H 0.30939 0.87389 0.95554 0.0
H113 H 0.29946 0.86332 0.92771 0.0
C114 C 0.1219 0.40557 0.63925 0.0
C115 C 0.09126 0.38493 0.62603 0.0
C116 C 0.09713 0.40991 0.59008 0.0
C117 C 0.05916 0.42445 0.58704 0.0
C118 C 0.05336 0.45266 0.5725 0.0
C119 C 0.08627 0.46654 0.56082 0.0
C120 C 0.12443 0.45125 0.56347 0.0
C121 C 0.12923 0.4227 0.57788 0.0
C122 C 0.01213 0.46776 0.56968 0.0
C123 C 0.1602 0.46547 0.55134 0.0
C124 C 0.10255 0.67382 0.62461 0.0
C125 C 0.09923 0.70185 0.60664 0.0
C126 C 0.07402 0.6616 0.57849 0.0
C127 C 0.11046 0.64539 0.57276 0.0
C128 C 0.11159 0.61377 0.56038 0.0
C129 C 0.07561 0.59785 0.55373 0.0
C130 C 0.03894 0.61467 0.55893 0.0
C131 C 0.03873 0.64666 0.57099 0.0
C132 C 0.15126 0.59696 0.55476 0.0
C133 C -8e-05 0.59829 0.55234 0.0
C134 C 0.04088 0.63518 0.40905 0.0
C135 C 0.078 0.61886 0.41121 0.0
C136 C 0.08356 0.59032 0.42553 0.0
C137 C 0.05092 0.57755 0.43787 0.0
C138 C 0.01327 0.59414 0.43597 0.0
C139 C 0.00873 0.62309 0.4218 0.0
C140 C 0.12425 0.57362 0.42734 0.0
C141 C 0.97774 0.58105 0.44878 0.0
C142 C 0.02814 0.29976 0.44473 0.0
C143 C 0.02706 0.31536 0.42191 0.0
C144 C 0.05459 0.37587 0.42788 0.0
C145 C 0.08936 0.39622 0.42658 0.0
C146 C 0.09119 0.43084 0.4355 0.0
C147 C 0.05704 0.4457 0.44568 0.0
C148 C 0.02129 0.42577 0.44645 0.0
C149 C 0.02049 0.39095 0.43772 0.0
C150 C 0.12979 0.45132 0.43437 0.0
C151 C 0.98407 0.44108 0.4568 0.0
C152 C 0.08091 0.49757 0.5462 0.0
C153 C 0.08076 0.5319 0.55533 0.0
C154 C 0.07625 0.56246 0.5426 0.0
C155 C 0.0721 0.55881 0.52003 0.0
C156 C 0.06872 0.58895 0.50663 0.0
C157 C 0.06383 0.58501 0.48449 0.0
C158 C 0.06194 0.55079 0.4749 0.0
C159 C 0.05604 0.54646 0.45248 0.0
C160 C 0.05461 0.51201 0.44348 0.0
C161 C 0.05909 0.48151 0.45625 0.0
C162 C 0.06504 0.4853 0.47869 0.0
C163 C 0.06986 0.4552 0.492 0.0
C164 C 0.07499 0.45913 0.51411 0.0
C165 C 0.07584 0.49332 0.52375 0.0
C166 C 0.07142 0.52407 0.51062 0.0
C167 C 0.06616 0.52005 0.48805 0.0
C168 C 0.97724 0.65595 0.3743 0.0
C169 C 0.0035 0.68011 0.38829 0.0
O170 O 0.10355 0.38349 0.60461 0.0
O171 O 0.05557 0.34197 0.41959 0.0
O172 O 0.03759 0.66198 0.39434 0.0
O173 O 0.07151 0.691 0.59156 0.0
H174 H 0.06244 0.39943 0.62763 0.0
H175 H 0.12443 0.43349 0.63323 0.0
H176 H 0.15159 0.39256 0.63791 0.0
H177 H 0.11259 0.40668 0.6565 0.0
H178 H 0.03398 0.41359 0.59587 0.0
H179 H 0.15833 0.41093 0.58019 0.0
H180 H 0.01132 0.49599 0.57544 0.0
H181 H 0.98922 0.45227 0.57871 0.0
H182 H 0.00445 0.46782 0.55231 0.0
H183 H 0.18814 0.45183 0.55601 0.0
H184 H 0.16331 0.4947 0.55438 0.0
H185 H 0.15601 0.46169 0.53375 0.0
H186 H 0.12869 0.70532 0.59859 0.0
H187 H 0.12418 0.68269 0.63692 0.0
H188 H 0.11317 0.64777 0.61798 0.0
H189 H 0.07315 0.66959 0.63258 0.0
H190 H 0.13813 0.657 0.57803 0.0
H191 H 0.0108 0.65948 0.57532 0.0
H192 H 0.15469 0.57167 0.56392 0.0
H193 H 0.17653 0.61491 0.55866 0.0
H194 H 0.15274 0.5901 0.53732 0.0
H195 H 0.97395 0.61352 0.55883 0.0
H196 H 0.99802 0.57019 0.55813 0.0
H197 H 0.99816 0.59759 0.53449 0.0
H198 H 0.98653 0.68874 0.40295 0.0
H199 H 0.1027 0.62847 0.40145 0.0
H200 H 0.97992 0.63577 0.42068 0.0
H201 H 0.13296 0.57226 0.44453 0.0
H202 H 0.14729 0.5888 0.41822 0.0
H203 H 0.12345 0.54576 0.42098 0.0
H204 H 0.94986 0.59494 0.44425 0.0
H205 H 0.98277 0.58562 0.46623 0.0
H206 H 0.97386 0.55175 0.4463 0.0
H207 H 0.99708 0.32672 0.4189 0.0
H208 H 0.00565 0.27815 0.44653 0.0
H209 H 0.02126 0.32086 0.45691 0.0
H210 H 0.05805 0.28858 0.44812 0.0
H211 H 0.11545 0.38452 0.41887 0.0
H212 H 0.99315 0.37585 0.43879 0.0
H213 H 0.13873 0.45966 0.45082 0.0
H214 H 0.12564 0.47604 0.42475 0.0
H215 H 0.15424 0.43528 0.4269 0.0
H216 H 0.95764 0.42396 0.45397 0.0
H217 H 0.97811 0.46833 0.45043 0.0
H218 H 0.98832 0.44367 0.47446 0.0
H219 H 0.08417 0.5349 0.57262 0.0
H220 H 0.06975 0.61592 0.51315 0.0
H221 H 0.0613 0.60918 0.47498 0.0
H222 H 0.04987 0.50888 0.4263 0.0
H223 H 0.06956 0.4282 0.48551 0.0
H224 H 0.07823 0.43498 0.52356 0.0
H225 H 0.99399 0.64636 0.35981 0.0
H226 H 0.95055 0.67096 0.36903 0.0
H227 H 0.9669 0.63218 0.38344 0.0
O228 O 0.02129 0.00727 0.22676 0.0
Cd229 Cd 0.06808 0.98751 0.24434 0.0
Cd230 Cd 0.08914 0.05819 0.24556 0.0
O231 O 0.03965 0.06403 0.22658 0.0
O232 O 0.05315 0.93722 0.25124 0.0
O233 O 0.06275 0.97852 0.27632 0.0
C234 C 0.05425 0.94573 0.27139 0.0
C235 C 0.09248 0.09513 0.27591 0.0
C236 C 0.0156 0.03953 0.22101 0.0
C237 C 0.14835 0.00717 0.22575 0.0
O238 O 0.14115 0.03937 0.23141 0.0
O239 O 0.12283 0.98274 0.22928 0.0
O240 O 0.10141 0.10687 0.25693 0.0
O241 O 0.0822 0.06188 0.27776 0.0
O242 O 0.98455 0.06476 0.77565 0.0
Cd243 Cd 0.04194 0.06733 0.76357 0.0
Cd244 Cd 0.02851 0.99247 0.76166 0.0
O245 O 0.97312 0.00654 0.77374 0.0
O246 O 0.05015 0.11996 0.76109 0.0
O247 O 0.05164 0.0837 0.73285 0.0
C248 C 0.05391 0.11588 0.74054 0.0
C249 C 0.03357 0.94881 0.7346 0.0
C250 C 0.9616 0.03811 0.77853 0.0
C251 C 0.09605 0.01987 0.78917 0.0
O252 O 0.07572 0.99348 0.78249 0.0
O253 O 0.08791 0.05157 0.78321 0.0
O254 O 0.02498 0.94062 0.75427 0.0
O255 O 0.03799 0.98233 0.72997 0.0
C256 C 0.41466 0.93402 0.15891 0.0
C257 C 0.41555 0.908 0.14247 0.0
C258 C 0.37852 0.94606 0.16764 0.0
C259 C 0.34229 0.93231 0.16005 0.0
C260 C 0.34329 0.90635 0.14353 0.0
C261 C 0.37948 0.89424 0.13486 0.0
C262 C 0.30317 0.94235 0.16987 0.0
C263 C 0.29706 0.97176 0.18225 0.0
C264 C 0.25837 0.9802 0.19304 0.0
C265 C 0.25024 0.01578 0.19924 0.0
C266 C 0.2146 0.02463 0.20988 0.0
C267 C 0.18638 0.99797 0.2147 0.0
H268 H 0.23597 0.92552 0.19442 0.0
C269 C 0.19476 0.96228 0.20875 0.0
C270 C 0.23036 0.95345 0.19815 0.0
H271 H 0.17389 0.941 0.2124 0.0
H272 H 0.44209 0.94443 0.1654 0.0
H273 H 0.37944 0.96514 0.1808 0.0
H274 H 0.31596 0.89493 0.13754 0.0
H275 H 0.37932 0.8736 0.12251 0.0
H276 H 0.27829 0.92485 0.16638 0.0
H277 H 0.32077 0.99114 0.18419 0.0
H278 H 0.27146 0.03687 0.19577 0.0
H279 H 0.20919 0.05238 0.21428 0.0
C280 C 0.05455 0.34006 0.6492 0.0
C281 C 0.0862 0.34745 0.63492 0.0
C282 C 0.05153 0.30669 0.65918 0.0
C283 C 0.0805 0.28005 0.65537 0.0
C284 C 0.11142 0.28696 0.64054 0.0
C285 C 0.11451 0.32047 0.63057 0.0
C286 C 0.07945 0.24524 0.66697 0.0
C287 C 0.06545 0.24272 0.68737 0.0
C288 C 0.06495 0.20922 0.70026 0.0
C289 C 0.06218 0.21241 0.72278 0.0
C290 C 0.05953 0.18205 0.73573 0.0
C291 C 0.0592 0.14756 0.72649 0.0
H292 H 0.06646 0.17113 0.67358 0.0
C293 C 0.06236 0.14414 0.70394 0.0
C294 C 0.06521 0.1747 0.6909 0.0
H295 H 0.06196 0.11792 0.69634 0.0
H296 H 0.03241 0.36038 0.65292 0.0
H297 H 0.02656 0.30196 0.66998 0.0
H298 H 0.13396 0.26683 0.63721 0.0
H299 H 0.13946 0.32558 0.61981 0.0
H300 H 0.09308 0.2221 0.65914 0.0
H301 H 0.05552 0.26697 0.69562 0.0
H302 H 0.06177 0.2386 0.73044 0.0
H303 H 0.0571 0.18574 0.75304 0.0
C304 C 0.77388 0.09276 0.12913 0.0
C305 C 0.774 0.07915 0.10796 0.0
C306 C 0.80534 0.08536 0.14294 0.0
C307 C 0.83779 0.06442 0.13574 0.0
C308 C 0.83805 0.05113 0.11453 0.0
C309 C 0.80678 0.05878 0.10068 0.0
C310 C 0.87106 0.05477 0.15011 0.0
C311 C 0.88261 0.07534 0.1668 0.0
C312 C 0.91634 0.06552 0.18079 0.0
C313 C 0.93878 0.09282 0.19039 0.0
C314 C 0.97102 0.08445 0.20344 0.0
C315 C 0.98107 0.0485 0.20747 0.0
H316 H 0.90856 0.00779 0.17852 0.0
C317 C 0.95795 0.02115 0.1983 0.0
C318 C 0.92596 0.02954 0.18509 0.0
H319 H 0.96469 0.99318 0.20119 0.0
H320 H 0.7492 0.10887 0.13506 0.0
H321 H 0.80366 0.09543 0.15932 0.0
H322 H 0.86266 0.03494 0.10859 0.0
H323 H 0.80808 0.0485 0.08432 0.0
H324 H 0.88787 0.0307 0.14604 0.0
H325 H 0.86854 0.10122 0.1696 0.0
H326 H 0.9317 0.12074 0.18752 0.0
H327 H 0.98801 0.10617 0.21039 0.0
C328 C 0.11676 0.75891 0.62625 0.0
C329 C 0.08745 0.73763 0.61658 0.0
C330 C 0.10635 0.78979 0.63784 0.0
C331 C 0.06632 0.80019 0.63996 0.0
C332 C 0.03708 0.77987 0.62962 0.0
C333 C 0.04741 0.7485 0.61834 0.0
C334 C 0.05456 0.83126 0.65366 0.0
C335 C 0.07104 0.83658 0.67306 0.0
C336 C 0.05857 0.86547 0.68819 0.0
C337 C 0.05906 0.85845 0.71036 0.0
C338 C 0.04963 0.88534 0.72529 0.0
C339 C 0.04055 0.9202 0.71838 0.0
H340 H 0.04862 0.90638 0.66409 0.0
C341 C 0.04 0.92737 0.69615 0.0
C342 C 0.04857 0.90009 0.68113 0.0
H343 H 0.03321 0.95404 0.69039 0.0
H344 H 0.14774 0.75099 0.62535 0.0
H345 H 0.1296 0.80531 0.64537 0.0
H346 H 0.00604 0.78741 0.63105 0.0
H347 H 0.02399 0.73243 0.61142 0.0
H348 H 0.02983 0.8479 0.64865 0.0
H349 H 0.09272 0.81734 0.67884 0.0
H350 H 0.06689 0.83204 0.71618 0.0
H351 H 0.0506 0.879 0.7423 0.0
C352 C 0.27223 0.96159 0.91481 0.0
C353 C 0.30009 0.93358 0.9134 0.0
C354 C 0.25196 0.97291 0.89651 0.0
C355 C 0.25914 0.95633 0.87636 0.0
C356 C 0.2875 0.9287 0.87495 0.0
C357 C 0.30777 0.91744 0.89324 0.0
C358 C 0.23511 0.96457 0.85703 0.0
C359 C 0.21421 0.99512 0.85454 0.0
C360 C 0.1863 1.00086 0.83647 0.0
C361 C 0.17628 0.03602 0.83058 0.0
C362 C 0.14781 0.04232 0.81478 0.0
C363 C 0.12835 0.01351 0.80473 0.0
H364 H 0.1731 0.94455 0.83064 0.0
C365 C 0.13875 0.97831 0.81045 0.0
C366 C 0.16726 0.97204 0.82615 0.0
H367 H 0.12425 0.95547 0.80312 0.0
H368 H 0.26524 0.97401 0.93023 0.0
H369 H 0.22954 0.99351 0.89852 0.0
H370 H 0.29333 0.91517 0.85972 0.0
H371 H 0.32864 0.89539 0.89176 0.0
H372 H 0.23464 0.94435 0.84437 0.0
H373 H 0.21752 0.01691 0.86605 0.0
H374 H 0.19018 0.05872 0.83841 0.0
H375 H 0.14043 0.06978 0.81083 0.0
C376 C 0.07353 0.27508 0.39988 0.0
C377 C 0.03462 0.28577 0.40552 0.0
C378 C 0.08005 0.24703 0.38518 0.0
C379 C 0.04775 0.22882 0.37598 0.0
C380 C 0.00899 0.23872 0.3822 0.0
C381 C 0.00247 0.2669 0.39677 0.0
C382 C 0.05326 0.19913 0.36012 0.0
C383 C 0.08488 0.19678 0.34663 0.0
C384 C 0.0882 0.16926 0.32928 0.0
C385 C 0.10848 0.17804 0.31012 0.0
C386 C 0.11041 0.15369 0.29295 0.0
C387 C 0.0927 0.11969 0.29472 0.0
H388 H 0.05662 0.12679 0.34614 0.0
C389 C 0.07384 0.11024 0.31423 0.0
C390 C 0.07148 0.13483 0.33135 0.0
H391 H 0.06012 0.08416 0.31612 0.0
H392 H 0.09891 0.28832 0.40692 0.0
H393 H 0.11038 0.23933 0.38139 0.0
H394 H 0.98359 0.22485 0.3756 0.0
H395 H 0.97222 0.27395 0.40126 0.0
H396 H 0.02887 0.18033 0.35834 0.0
H397 H 0.10742 0.21759 0.34691 0.0
H398 H 0.12197 0.20422 0.30819 0.0
H399 H 0.12546 0.16169 0.2782 0.0
C400 C 0.71671 0.09427 0.8694 0.0
C401 C 0.72225 0.08532 0.89114 0.0
C402 C 0.74224 0.0806 0.85336 0.0
C403 C 0.7739 0.05778 0.85882 0.0
C404 C 0.77807 0.04745 0.8804 0.0
C405 C 0.75276 0.0613 0.89643 0.0
C406 C 0.80415 0.04549 0.84272 0.0
C407 C 0.815 0.06529 0.8255 0.0
C408 C 0.85044 0.05685 0.81184 0.0
C409 C 0.87134 0.0853 0.80229 0.0
C410 C 0.90686 0.07906 0.79099 0.0
C411 C 0.92202 0.04406 0.78869 0.0
H412 H 0.84858 0.99891 0.81532 0.0
C413 C 0.89999 0.0153 0.79723 0.0
C414 C 0.86457 0.02161 0.80874 0.0
H415 H 0.91068 0.98799 0.79559 0.0
H416 H 0.69326 0.11259 0.8649 0.0
H417 H 0.73734 0.08827 0.8368 0.0
H418 H 0.80199 0.0297 0.88503 0.0
H419 H 0.75768 0.05394 0.91306 0.0
H420 H 0.82119 0.02169 0.84664 0.0
H421 H 0.80049 0.09089 0.8228 0.0
H422 H 0.86092 0.11266 0.80422 0.0
H423 H 0.92283 0.1018 0.78441 0.0
C424 C 0.99399 0.74537 0.37819 0.0
C425 C 0.01513 0.71307 0.3755 0.0
C426 C 0.00225 0.77487 0.36501 0.0
C427 C 0.0318 0.77258 0.34875 0.0
C428 C 0.05298 0.74033 0.34618 0.0
C429 C 0.04478 0.71093 0.35936 0.0
C430 C 0.03935 0.80194 0.33307 0.0
C431 C 0.02911 0.83654 0.33635 0.0
C432 C 0.03522 0.86446 0.31957 0.0
C433 C 0.04144 0.90029 0.32576 0.0
C434 C 0.04747 0.92692 0.31019 0.0
C435 C 0.04684 0.91823 0.28811 0.0
H436 H 0.02752 0.829 0.29201 0.0
C437 C 0.03958 0.88253 0.28196 0.0
C438 C 0.03374 0.85601 0.29746 0.0
H439 H 0.03848 0.87493 0.26509 0.0
H440 H 0.97038 0.7475 0.39019 0.0
H441 H 0.9844 0.7988 0.36714 0.0
H442 H 0.07556 0.73761 0.33365 0.0
H443 H 0.06101 0.68617 0.35661 0.0
H444 H 0.05479 0.79456 0.31819 0.0
H445 H 0.01719 0.8451 0.35189 0.0
H446 H 0.04218 0.90761 0.34269 0.0
H447 H 0.05278 0.95422 0.31545 0.0
loop_
_geom_bond_atom_site_label_1
_geom_bond_atom_site_label_2
_geom_bond_distance
_geom_bond_site_symmetry_2
_ccdc_geom_bond_type
C0 C1 1.560 . S
C0 H61 0.959 . S
C0 H62 0.959 . S
C0 H63 0.960 . S
C1 C0 1.560 . S
C1 O56 1.426 . S
C1 H60 0.980 . S
C2 C3 1.407 1_545 S
C2 C7 1.418 . S
C2 O56 1.334 . S
C3 C2 1.407 1_565 S
C3 C4 1.360 . S
C3 H64 0.929 . S
C4 C3 1.360 . S
C4 C5 1.401 1_565 S
C4 C8 1.527 . S
C5 C4 1.401 1_545 S
C5 C6 1.405 . S
C5 C38 1.587 1_545 S
C6 C5 1.405 . S
C6 C7 1.332 . S
C6 C9 1.496 . S
C7 C2 1.418 . S
C7 C6 1.332 . S
C7 H65 0.929 . S
C8 C4 1.527 . S
C8 H66 0.959 . S
C8 H67 0.961 . S
C8 H68 0.961 . S
C9 C6 1.496 . S
C9 H69 0.960 . S
C9 H70 0.960 . S
C9 H71 0.961 . S
C10 C11 1.517 . S
C10 H73 0.941 1_565 S
C10 H74 0.960 . S
C10 H75 0.959 . S
C11 C10 1.517 . S
C11 O59 1.468 . S
C11 H72 0.980 1_565 S
C12 C13 1.338 1_565 S
C12 C17 1.367 . S
C12 O59 1.408 . S
C13 C12 1.338 1_545 S
C13 C14 1.410 . S
C13 H76 0.939 . S
C14 C13 1.410 . S
C14 C15 1.449 1_545 S
C14 C18 1.535 . S
C15 C14 1.449 1_565 S
C15 C16 1.384 . S
C15 C40 1.553 . S
C16 C15 1.384 . S
C16 C17 1.364 . S
C16 C19 1.450 . S
C17 C12 1.367 . S
C17 C16 1.364 . S
C17 H77 0.931 . S
C18 C14 1.535 . S
C18 H78 0.959 . S
C18 H79 0.961 . S
C18 H80 0.959 . S
C19 C16 1.450 . S
C19 H81 0.960 . S
C19 H82 0.960 . S
C19 H83 0.960 . S
C20 C21 1.309 1_565 S
C20 C25 1.304 . S
C20 O58 1.435 . S
C21 C20 1.309 1_545 S
C21 C22 1.476 . S
C21 H85 0.930 . S
C22 C21 1.476 . S
C22 C23 1.400 1_545 S
C22 C26 1.567 . S
C23 C22 1.400 1_565 S
C23 C24 1.373 . S
C23 C45 1.432 . S
C24 C23 1.373 . S
C24 C25 1.339 . S
C24 C27 1.530 . S
C25 C20 1.304 . S
C25 C24 1.339 . S
C25 H86 0.930 . S
C26 C22 1.567 . S
C26 H87 0.961 . S
C26 H88 0.960 . S
C26 H89 0.958 . S
C27 C24 1.530 . S
C27 H90 0.961 . S
C27 H91 0.960 . S
C27 H92 0.960 . S
C28 C29 1.530 . S
C28 H94 0.961 . S
C28 H95 0.961 . S
C28 H96 0.959 . S
C29 C28 1.530 . S
C29 O57 1.412 . S
C29 H93 0.980 . S
C30 C31 1.288 . S
C30 C35 1.377 1_545 S
C30 O57 1.393 . S
C31 C30 1.288 . S
C31 C32 1.369 . S
C31 H97 0.932 . S
C32 C31 1.369 . S
C32 C33 1.398 . S
C32 C36 1.527 . S
C33 C32 1.398 . S
C33 C34 1.380 1_545 S
C33 C47 1.497 . S
C34 C33 1.380 1_565 S
C34 C35 1.383 . S
C34 C37 1.603 . S
C35 C30 1.377 1_565 S
C35 C34 1.383 . S
C35 H98 0.929 . S
C36 C32 1.527 . S
C36 H99 0.961 . S
C36 H100 0.959 . S
C36 H101 0.959 . S
C37 C34 1.603 . S
C37 H102 0.960 . S
C37 H103 0.962 . S
C37 H104 0.961 . S
C38 C5 1.587 1_565 S
C38 C39 1.360 . S
C38 C51 1.412 . S
C39 C38 1.360 . S
C39 C40 1.365 . S
C39 H105 0.929 . S
C40 C15 1.553 . S
C40 C39 1.365 . S
C40 C41 1.404 . S
C41 C40 1.404 . S
C41 C42 1.395 . S
C41 C52 1.451 . S
C42 C41 1.395 . S
C42 C43 1.279 1_554 S
C42 H106 0.930 . S
C43 C42 1.279 1_556 S
C43 C44 1.482 . S
C43 H107 0.950 . S
C44 C43 1.482 . S
C44 C45 1.445 . S
C44 C53 1.395 . S
C45 C23 1.432 . S
C45 C44 1.445 . S
C45 C46 1.370 . S
C46 C45 1.370 . S
C46 C47 1.438 1_565 S
C46 H108 0.930 . S
C47 C33 1.497 . S
C47 C46 1.438 1_545 S
C47 C48 1.360 1_545 S
C48 C47 1.360 1_565 S
C48 C49 1.401 1_565 S
C48 C53 1.446 . S
C49 C48 1.401 1_545 S
C49 C50 1.347 1_556 S
C49 H109 0.929 . S
C50 C49 1.347 1_554 S
C50 C51 1.455 1_545 S
C50 H110 0.930 . S
C51 C38 1.412 . S
C51 C50 1.455 1_565 S
C51 C52 1.331 . S
C52 C41 1.451 . S
C52 C51 1.331 . S
C52 C53 1.497 1_554 S
C53 C44 1.395 . S
C53 C48 1.446 . S
C53 C52 1.497 1_556 S
C54 C55 1.583 . S
C54 H111 0.962 . S
C54 H112 0.959 . S
C54 H113 0.958 . S
C55 C54 1.583 . S
C55 O58 1.460 . S
C55 H84 0.979 1_565 S
O56 C1 1.426 . S
O56 C2 1.334 . S
O57 C29 1.412 . S
O57 C30 1.393 . S
O58 C20 1.435 . S
O58 C55 1.460 . S
O59 C11 1.468 . S
O59 C12 1.408 . S
H60 C1 0.980 . S
H61 C0 0.959 . S
H62 C0 0.959 . S
H63 C0 0.960 . S
H64 C3 0.929 . S
H65 C7 0.929 . S
H66 C8 0.959 . S
H67 C8 0.961 . S
H68 C8 0.961 . S
H69 C9 0.960 . S
H70 C9 0.960 . S
H71 C9 0.961 . S
H72 C11 0.980 1_545 S
H73 C10 0.941 1_545 S
H74 C10 0.960 . S
H75 C10 0.959 . S
H76 C13 0.939 . S
H77 C17 0.931 . S
H78 C18 0.959 . S
H79 C18 0.961 . S
H80 C18 0.959 . S
H81 C19 0.960 . S
H82 C19 0.960 . S
H83 C19 0.960 . S
H84 C55 0.979 1_545 S
H85 C21 0.930 . S
H86 C25 0.930 . S
H87 C26 0.961 . S
H88 C26 0.960 . S
H89 C26 0.958 . S
H90 C27 0.961 . S
H91 C27 0.960 . S
H92 C27 0.960 . S
H93 C29 0.980 . S
H94 C28 0.961 . S
H95 C28 0.961 . S
H96 C28 0.959 . S
H97 C31 0.932 . S
H98 C35 0.929 . S
H99 C36 0.961 . S
H100 C36 0.959 . S
H101 C36 0.959 . S
H102 C37 0.960 . S
H103 C37 0.962 . S
H104 C37 0.961 . S
H105 C39 0.929 . S
H106 C42 0.930 . S
H107 C43 0.950 . S
H108 C46 0.930 . S
H109 C49 0.929 . S
H110 C50 0.930 . S
H111 C54 0.962 . S
H112 C54 0.959 . S
H113 C54 0.958 . S
C114 C115 1.560 . S
C114 H175 0.959 . S
C114 H176 0.959 . S
C114 H177 0.960 . S
C115 C114 1.560 . S
C115 O170 1.426 . S
C115 H174 0.980 . S
C116 C117 1.407 . S
C116 C121 1.418 . S
C116 O170 1.334 . S
C117 C116 1.407 . S
C117 C118 1.360 . S
C117 H178 0.929 . S
C118 C117 1.360 . S
C118 C119 1.401 . S
C118 C122 1.527 1_455 S
C119 C118 1.401 . S
C119 C120 1.405 . S
C119 C152 1.587 . S
C120 C119 1.405 . S
C120 C121 1.332 . S
C120 C123 1.496 . S
C121 C116 1.418 . S
C121 C120 1.332 . S
C121 H179 0.929 . S
C122 C118 1.527 1_655 S
C122 H180 0.959 . S
C122 H181 0.961 . S
C122 H182 0.961 . S
C123 C120 1.496 . S
C123 H183 0.960 . S
C123 H184 0.960 . S
C123 H185 0.961 . S
C124 C125 1.517 . S
C124 H187 0.961 . S
C124 H188 0.960 . S
C124 H189 0.959 . S
C125 C124 1.517 . S
C125 O173 1.468 . S
C125 H186 0.980 . S
C126 C127 1.349 . S
C126 C131 1.367 1_455 S
C126 O173 1.408 . S
C127 C126 1.349 . S
C127 C128 1.407 . S
C127 H190 0.930 . S
C128 C127 1.407 . S
C128 C129 1.449 . S
C128 C132 1.535 . S
C129 C128 1.449 . S
C129 C130 1.384 1_455 S
C129 C154 1.553 . S
C130 C129 1.384 1_655 S
C130 C131 1.364 . S
C130 C133 1.450 . S
C131 C126 1.367 1_655 S
C131 C130 1.364 . S
C131 H191 0.931 . S
C132 C128 1.535 . S
C132 H192 0.959 . S
C132 H193 0.961 . S
C132 H194 0.959 . S
C133 C130 1.450 . S
C133 H195 0.960 . S
C133 H196 0.960 . S
C133 H197 0.960 . S
C134 C135 1.309 . S
C134 C139 1.304 1_455 S
C134 O172 1.435 . S
C135 C134 1.309 . S
C135 C136 1.476 . S
C135 H199 0.930 . S
C136 C135 1.476 . S
C136 C137 1.400 . S
C136 C140 1.567 . S
C137 C136 1.400 . S
C137 C138 1.373 1_455 S
C137 C159 1.432 . S
C138 C137 1.373 1_655 S
C138 C139 1.339 . S
C138 C141 1.530 . S
C139 C134 1.304 1_655 S
C139 C138 1.339 . S
C139 H200 0.930 . S
C140 C136 1.567 . S
C140 H201 0.961 . S
C140 H202 0.960 . S
C140 H203 0.958 . S
C141 C138 1.530 . S
C141 H204 0.961 . S
C141 H205 0.960 . S
C141 H206 0.960 . S
C142 C143 1.530 . S
C142 H208 0.961 . S
C142 H209 0.961 . S
C142 H210 0.959 . S
C143 C142 1.530 . S
C143 O171 1.412 . S
C143 H207 0.980 . S
C144 C145 1.288 . S
C144 C149 1.377 . S
C144 O171 1.393 . S
C145 C144 1.288 . S
C145 C146 1.369 . S
C145 H211 0.932 . S
C146 C145 1.369 . S
C146 C147 1.398 . S
C146 C150 1.527 . S
C147 C146 1.398 . S
C147 C148 1.380 . S
C147 C161 1.497 . S
C148 C147 1.380 . S
C148 C149 1.383 . S
C148 C151 1.603 1_455 S
C149 C144 1.377 . S
C149 C148 1.383 . S
C149 H212 0.929 . S
C150 C146 1.527 . S
C150 H213 0.961 . S
C150 H214 0.959 . S
C150 H215 0.959 . S
C151 C148 1.603 1_655 S
C151 H216 0.960 . S
C151 H217 0.962 . S
C151 H218 0.961 . S
C152 C119 1.587 . S
C152 C153 1.360 . S
C152 C165 1.412 . S
C153 C152 1.360 . S
C153 C154 1.365 . S
C153 H219 0.929 . S
C154 C129 1.553 . S
C154 C153 1.365 . S
C154 C155 1.404 . S
C155 C154 1.404 . S
C155 C156 1.395 . S
C155 C166 1.451 . S
C156 C155 1.395 . S
C156 C157 1.322 . S
C156 H220 0.930 . S
C157 C156 1.322 . S
C157 C158 1.459 . S
C157 H221 0.929 . S
C158 C157 1.459 . S
C158 C159 1.445 . S
C158 C167 1.395 . S
C159 C137 1.432 . S
C159 C158 1.445 . S
C159 C160 1.370 . S
C160 C159 1.370 . S
C160 C161 1.438 . S
C160 H222 0.930 . S
C161 C147 1.497 . S
C161 C160 1.438 . S
C161 C162 1.360 . S
C162 C161 1.360 . S
C162 C163 1.401 . S
C162 C167 1.446 . S
C163 C162 1.401 . S
C163 C164 1.347 . S
C163 H223 0.929 . S
C164 C163 1.347 . S
C164 C165 1.455 . S
C164 H224 0.930 . S
C165 C152 1.412 . S
C165 C164 1.455 . S
C165 C166 1.331 . S
C166 C155 1.451 . S
C166 C165 1.331 . S
C166 C167 1.497 . S
C167 C158 1.395 . S
C167 C162 1.446 . S
C167 C166 1.497 . S
C168 C169 1.582 . S
C168 H225 0.962 . S
C168 H226 0.959 . S
C168 H227 0.958 . S
C169 C168 1.582 . S
C169 O172 1.458 . S
C169 H198 0.980 . S
O170 C115 1.426 . S
O170 C116 1.334 . S
O171 C143 1.412 . S
O171 C144 1.393 . S
O172 C134 1.435 . S
O172 C169 1.458 . S
O173 C125 1.468 . S
O173 C126 1.408 . S
H174 C115 0.980 . S
H175 C114 0.959 . S
H176 C114 0.959 . S
H177 C114 0.960 . S
H178 C117 0.929 . S
H179 C121 0.929 . S
H180 C122 0.959 . S
H181 C122 0.961 . S
H182 C122 0.961 . S
H183 C123 0.960 . S
H184 C123 0.960 . S
H185 C123 0.961 . S
H186 C125 0.980 . S
H187 C124 0.961 . S
H188 C124 0.960 . S
H189 C124 0.959 . S
H190 C127 0.930 . S
H191 C131 0.931 . S
H192 C132 0.959 . S
H193 C132 0.961 . S
H194 C132 0.959 . S
H195 C133 0.960 . S
H196 C133 0.960 . S
H197 C133 0.960 . S
H198 C169 0.980 . S
H199 C135 0.930 . S
H200 C139 0.930 . S
H201 C140 0.961 . S
H202 C140 0.960 . S
H203 C140 0.958 . S
H204 C141 0.961 . S
H205 C141 0.960 . S
H206 C141 0.960 . S
H207 C143 0.980 . S
H208 C142 0.961 . S
H209 C142 0.961 . S
H210 C142 0.959 . S
H211 C145 0.932 . S
H212 C149 0.929 . S
H213 C150 0.961 . S
H214 C150 0.959 . S
H215 C150 0.959 . S
H216 C151 0.960 . S
H217 C151 0.962 . S
H218 C151 0.961 . S
H219 C153 0.929 . S
H220 C156 0.930 . S
H221 C157 0.929 . S
H222 C160 0.930 . S
H223 C163 0.929 . S
H224 C164 0.930 . S
H225 C168 0.962 . S
H226 C168 0.959 . S
H227 C168 0.958 . S
O228 Cd229 2.223 . S
O228 C236 1.315 . S
Cd229 O228 2.223 . S
Cd229 O232 2.297 . S
Cd229 O233 2.439 . S
Cd229 O239 2.240 1_565 S
Cd230 O231 2.240 . S
Cd230 O238 2.223 . S
Cd230 O240 2.297 . S
Cd230 O241 2.439 . S
O231 Cd230 2.240 . S
O231 C236 1.279 1_545 S
O232 Cd229 2.297 . S
O232 C234 1.247 . S
O233 Cd229 2.439 . S
O233 C234 1.208 . S
C234 O232 1.247 . S
C234 O233 1.208 . S
C235 O240 1.247 . S
C235 O241 1.208 . S
C236 O228 1.315 . S
C236 O231 1.279 1_565 S
C237 O238 1.315 . S
C237 O239 1.279 . S
O238 Cd230 2.223 . S
O238 C237 1.315 . S
O239 Cd229 2.240 1_545 S
O239 C237 1.279 . S
O240 Cd230 2.297 . S
O240 C235 1.247 . S
O241 Cd230 2.439 . S
O241 C235 1.208 . S
O242 Cd243 2.223 . S
O242 C250 1.315 . S
Cd243 O242 2.223 . S
Cd243 O246 2.297 . S
Cd243 O247 2.439 . S
Cd243 O253 2.240 . S
Cd244 O245 2.240 1_565 S
Cd244 O252 2.223 . S
Cd244 O254 2.297 . S
Cd244 O255 2.439 . S
O245 Cd244 2.240 1_545 S
O245 C250 1.279 . S
O246 Cd243 2.297 . S
O246 C248 1.247 . S
O247 Cd243 2.439 . S
O247 C248 1.208 . S
C248 O246 1.247 . S
C248 O247 1.208 . S
C249 O254 1.247 . S
C249 O255 1.208 . S
C250 O242 1.315 . S
C250 O245 1.279 . S
C251 O252 1.315 . S
C251 O253 1.279 1_565 S
O252 Cd244 2.223 . S
O252 C251 1.315 . S
O253 Cd243 2.240 . S
O253 C251 1.279 1_545 S
O254 Cd244 2.297 . S
O254 C249 1.247 . S
O255 Cd244 2.439 . S
O255 C249 1.208 . S
C256 C257 1.386 . S
C256 C258 1.383 . S
C256 H272 0.951 . S
C257 C256 1.386 . S
C257 C261 1.383 1_545 S
C258 C256 1.383 . S
C258 C259 1.402 . S
C258 H273 0.951 . S
C259 C258 1.402 . S
C259 C260 1.375 1_545 S
C259 C262 1.481 . S
C260 C259 1.375 1_565 S
C260 C261 1.367 . S
C260 H274 0.951 . S
C261 C257 1.383 1_565 S
C261 C260 1.367 . S
C261 H275 0.950 . S
C262 C259 1.481 . S
C262 C263 1.297 . S
C262 H276 0.964 . S
C263 C262 1.297 . S
C263 C264 1.479 . S
C263 H277 0.950 . S
C264 C263 1.479 . S
C264 C265 1.375 . S
C264 C270 1.404 . S
C265 C264 1.375 . S
C265 C266 1.369 . S
C265 H278 0.950 . S
C266 C265 1.369 . S
C266 C267 1.392 . S
C266 H279 0.951 . S
C267 C266 1.392 . S
C267 C269 1.384 . S
H268 C270 0.949 . S
C269 C267 1.384 . S
C269 C270 1.385 . S
C269 H271 0.950 . S
C270 C264 1.404 . S
C270 H268 0.949 . S
C270 C269 1.385 . S
H271 C269 0.950 . S
H272 C256 0.951 . S
H273 C258 0.951 . S
H274 C260 0.951 . S
H275 C261 0.950 . S
H276 C262 0.964 . S
H277 C263 0.950 . S
H278 C265 0.950 . S
H279 C266 0.951 . S
C280 C281 1.386 . S
C280 C282 1.383 . S
C280 H296 0.951 . S
C281 C280 1.386 . S
C281 C285 1.383 . S
C282 C280 1.383 . S
C282 C283 1.402 . S
C282 H297 0.951 . S
C283 C282 1.402 . S
C283 C284 1.375 . S
C283 C286 1.481 . S
C284 C283 1.375 . S
C284 C285 1.367 . S
C284 H298 0.951 . S
C285 C281 1.383 . S
C285 C284 1.367 . S
C285 H299 0.950 . S
C286 C283 1.481 . S
C286 C287 1.297 . S
C286 H300 0.950 . S
C287 C286 1.297 . S
C287 C288 1.479 . S
C287 H301 0.950 . S
C288 C287 1.479 . S
C288 C289 1.375 . S
C288 C294 1.404 . S
C289 C288 1.375 . S
C289 C290 1.369 . S
C289 H302 0.950 1_455 S
C290 C289 1.369 . S
C290 C291 1.392 . S
C290 H303 0.951 1_455 S
C291 C290 1.392 . S
C291 C293 1.384 . S
H292 C294 0.949 . S
C293 C291 1.384 . S
C293 C294 1.385 . S
C293 H295 0.950 . S
C294 C288 1.404 . S
C294 H292 0.949 . S
C294 C293 1.385 . S
H295 C293 0.950 . S
H296 C280 0.951 . S
H297 C282 0.951 . S
H298 C284 0.951 . S
H299 C285 0.950 . S
H300 C286 0.950 . S
H301 C287 0.950 . S
H302 C289 0.950 1_655 S
H303 C290 0.951 1_655 S
C304 C305 1.386 . S
C304 C306 1.383 . S
C304 H320 0.951 . S
C305 C304 1.386 . S
C305 C309 1.383 1_545 S
C306 C304 1.383 . S
C306 C307 1.402 1_545 S
C306 H321 0.951 . S
C307 C306 1.402 1_565 S
C307 C308 1.375 . S
C307 C310 1.481 . S
C308 C307 1.375 . S
C308 C309 1.367 . S
C308 H322 0.951 . S
C309 C305 1.383 1_565 S
C309 C308 1.367 . S
C309 H323 0.950 . S
C310 C307 1.481 . S
C310 C311 1.297 . S
C310 H324 0.950 . S
C311 C310 1.297 . S
C311 C312 1.479 . S
C311 H325 0.950 1_565 S
C312 C311 1.479 . S
C312 C313 1.375 1_565 S
C312 C318 1.404 . S
C313 C312 1.375 1_545 S
C313 C314 1.369 . S
C313 H326 0.950 . S
C314 C313 1.369 . S
C314 C315 1.392 1_545 S
C314 H327 0.951 . S
C315 C314 1.392 1_565 S
C315 C317 1.384 . S
H316 C318 0.949 . S
C317 C315 1.384 . S
C317 C318 1.385 . S
C317 H319 0.950 1_655 S
C318 C312 1.404 . S
C318 H316 0.949 . S
C318 C317 1.385 . S
H319 C317 0.950 1_455 S
H320 C304 0.951 . S
H321 C306 0.951 . S
H322 C308 0.951 . S
H323 C309 0.950 . S
H324 C310 0.950 . S
H325 C311 0.950 1_545 S
H326 C313 0.950 . S
H327 C314 0.951 . S
C328 C329 1.386 . S
C328 C330 1.383 . S
C328 H344 0.951 . S
C329 C328 1.386 . S
C329 C333 1.383 . S
C330 C328 1.383 . S
C330 C331 1.402 . S
C330 H345 0.951 . S
C331 C330 1.402 . S
C331 C332 1.375 . S
C331 C334 1.481 . S
C332 C331 1.375 . S
C332 C333 1.367 . S
C332 H346 0.951 . S
C333 C329 1.383 . S
C333 C332 1.367 . S
C333 H347 0.950 . S
C334 C331 1.481 . S
C334 C335 1.297 . S
C334 H348 0.950 . S
C335 C334 1.297 . S
C335 C336 1.479 . S
C335 H349 0.950 . S
C336 C335 1.479 . S
C336 C337 1.375 . S
C336 C342 1.404 . S
C337 C336 1.375 . S
C337 C338 1.369 . S
C337 H350 0.950 . S
C338 C337 1.369 . S
C338 C339 1.392 . S
C338 H351 0.951 . S
C339 C338 1.392 . S
C339 C341 1.384 . S
H340 C342 0.949 . S
C341 C339 1.384 . S
C341 C342 1.385 . S
C341 H343 0.950 . S
C342 C336 1.404 . S
C342 H340 0.949 . S
C342 C341 1.385 . S
H343 C341 0.950 . S
H344 C328 0.951 . S
H345 C330 0.951 . S
H346 C332 0.951 . S
H347 C333 0.950 . S
H348 C334 0.950 . S
H349 C335 0.950 . S
H350 C337 0.950 . S
H351 C338 0.951 . S
C352 C353 1.386 . S
C352 C354 1.383 . S
C352 H368 0.951 . S
C353 C352 1.386 . S
C353 C357 1.383 1_545 S
C354 C352 1.383 . S
C354 C355 1.402 . S
C354 H369 0.951 . S
C355 C354 1.402 . S
C355 C356 1.375 1_545 S
C355 C358 1.481 . S
C356 C355 1.375 1_565 S
C356 C357 1.367 . S
C356 H370 0.951 . S
C357 C353 1.383 1_565 S
C357 C356 1.367 . S
C357 H371 0.950 . S
C358 C355 1.481 . S
C358 C359 1.297 . S
C358 H372 0.950 1_545 S
C359 C358 1.297 . S
C359 C360 1.479 . S
C359 H373 0.950 . S
C360 C359 1.479 . S
C360 C361 1.375 . S
C360 C366 1.404 1_545 S
C361 C360 1.375 . S
C361 C362 1.369 . S
C361 H374 0.950 . S
C362 C361 1.369 . S
C362 C363 1.392 1_545 S
C362 H375 0.951 . S
C363 C362 1.392 1_565 S
C363 C365 1.384 . S
H364 C366 0.949 . S
C365 C363 1.384 . S
C365 C366 1.385 . S
C365 H367 0.950 . S
C366 C360 1.404 1_565 S
C366 H364 0.949 . S
C366 C365 1.385 . S
H367 C365 0.950 . S
H368 C352 0.951 . S
H369 C354 0.951 . S
H370 C356 0.951 . S
H371 C357 0.950 . S
H372 C358 0.950 1_565 S
H373 C359 0.950 . S
H374 C361 0.950 . S
H375 C362 0.951 . S
C376 C377 1.386 . S
C376 C378 1.383 . S
C376 H392 0.951 . S
C377 C376 1.386 . S
C377 C381 1.383 . S
C378 C376 1.383 . S
C378 C379 1.402 . S
C378 H393 0.951 . S
C379 C378 1.402 . S
C379 C380 1.375 . S
C379 C382 1.481 . S
C380 C379 1.375 . S
C380 C381 1.367 . S
C380 H394 0.951 . S
C381 C377 1.383 . S
C381 C380 1.367 . S
C381 H395 0.950 . S
C382 C379 1.481 . S
C382 C383 1.297 . S
C382 H396 0.950 . S
C383 C382 1.297 . S
C383 C384 1.479 . S
C383 H397 0.950 . S
C384 C383 1.479 . S
C384 C385 1.375 . S
C384 C390 1.404 . S
C385 C384 1.375 . S
C385 C386 1.369 . S
C385 H398 0.950 . S
C386 C385 1.369 . S
C386 C387 1.392 . S
C386 H399 0.951 . S
C387 C386 1.392 . S
C387 C389 1.384 . S
H388 C390 0.949 . S
C389 C387 1.384 . S
C389 C390 1.385 . S
C389 H391 0.950 . S
C390 C384 1.404 . S
C390 H388 0.949 . S
C390 C389 1.385 . S
H391 C389 0.950 . S
H392 C376 0.951 . S
H393 C378 0.951 . S
H394 C380 0.951 . S
H395 C381 0.950 . S
H396 C382 0.950 . S
H397 C383 0.950 . S
H398 C385 0.950 . S
H399 C386 0.951 . S
C400 C401 1.386 . S
C400 C402 1.383 . S
C400 H416 0.951 . S
C401 C400 1.386 . S
C401 C405 1.383 1_545 S
C402 C400 1.383 . S
C402 C403 1.402 . S
C402 H417 0.951 . S
C403 C402 1.402 . S
C403 C404 1.375 1_545 S
C403 C406 1.481 . S
C404 C403 1.375 1_565 S
C404 C405 1.367 . S
C404 H418 0.951 . S
C405 C401 1.383 1_565 S
C405 C404 1.367 . S
C405 H419 0.950 . S
C406 C403 1.481 . S
C406 C407 1.297 . S
C406 H420 0.950 . S
C407 C406 1.297 . S
C407 C408 1.479 . S
C407 H421 0.950 . S
C408 C407 1.479 . S
C408 C409 1.375 . S
C408 C414 1.404 . S
C409 C408 1.375 . S
C409 C410 1.369 . S
C409 H422 0.950 . S
C410 C409 1.369 . S
C410 C411 1.392 . S
C410 H423 0.951 . S
C411 C410 1.392 . S
C411 C413 1.384 . S
H412 C414 0.949 . S
C413 C411 1.384 . S
C413 C414 1.385 . S
C413 H415 0.950 1_655 S
C414 C408 1.404 . S
C414 H412 0.949 . S
C414 C413 1.385 . S
H415 C413 0.950 1_455 S
H416 C400 0.951 . S
H417 C402 0.951 . S
H418 C404 0.951 . S
H419 C405 0.950 . S
H420 C406 0.950 . S
H421 C407 0.950 . S
H422 C409 0.950 . S
H423 C410 0.951 . S
C424 C425 1.386 . S
C424 C426 1.383 . S
C424 H440 0.951 . S
C425 C424 1.386 . S
C425 C429 1.383 . S
C426 C424 1.383 . S
C426 C427 1.402 . S
C426 H441 0.951 . S
C427 C426 1.402 . S
C427 C428 1.375 . S
C427 C430 1.481 . S
C428 C427 1.375 . S
C428 C429 1.367 . S
C428 H442 0.951 . S
C429 C425 1.383 . S
C429 C428 1.367 . S
C429 H443 0.950 . S
C430 C427 1.481 . S
C430 C431 1.297 . S
C430 H444 0.950 . S
C431 C430 1.297 . S
C431 C432 1.479 . S
C431 H445 0.950 . S
C432 C431 1.479 . S
C432 C433 1.375 . S
C432 C438 1.404 . S
C433 C432 1.375 . S
C433 C434 1.369 . S
C433 H446 0.950 1_455 S
C434 C433 1.369 . S
C434 C435 1.392 . S
C434 H447 0.951 1_455 S
C435 C434 1.392 . S
C435 C437 1.384 . S
H436 C438 0.949 . S
C437 C435 1.384 . S
C437 C438 1.385 . S
C437 H439 0.950 . S
C438 C432 1.404 . S
C438 H436 0.949 . S
C438 C437 1.385 . S
H439 C437 0.950 . S
H440 C424 0.951 . S
H441 C426 0.951 . S
H442 C428 0.951 . S
H443 C429 0.950 . S
H444 C430 0.950 . S
H445 C431 0.950 . S
H446 C433 0.950 1_655 S
H447 C434 0.951 1_655 S
C267 C237 1.590 . S
C257 C11 1.053 1_545 S
C291 C248 1.426 . S
C281 C115 1.227 . S
C315 C236 1.396 1_655 S
C305 C1 1.166 . S
C339 C249 1.569 . S
C329 C125 1.105 . S
C363 C251 1.657 . S
C353 C55 1.264 1_545 S
C387 C235 1.498 . S
C377 C143 1.116 . S
C411 C250 1.495 1_655 S
C401 C29 1.136 . S
C425 C169 1.228 . S
C435 C234 1.630 . S
