# Generated by pormake.
# Topology anh, (6,3)-cn, num edge types: 1
# Building blocks:
#     Node 0, Type 0, BuildingBlock: HISSIN_clean_sbu_0, # of connection points: 6
#     Node 1, Type 0, BuildingBlock: HISSIN_clean_sbu_0, # of connection points: 6
#     Node 2, Type 0, BuildingBlock: HISSIN_clean_sbu_0, # of connection points: 6
#     Node 3, Type 1, BuildingBlock: ESEHIV_clean_linker_0, # of connection points: 3
#     Node 4, Type 1, BuildingBlock: ESEHIV_clean_linker_0, # of connection points: 3
#     Node 5, Type 1, BuildingBlock: ESEHIV_clean_linker_0, # of connection points: 3
#     Node 6, Type 1, BuildingBlock: ESEHIV_clean_linker_0, # of connection points: 3
#     Node 7, Type 1, BuildingBlock: ESEHIV_clean_linker_0, # of connection points: 3
#     Node 8, Type 1, BuildingBlock: ESEHIV_clean_linker_0, # of connection points: 3
#     Edge 9, Type (0, 1), BuildingBlock: AJUNOK_clean_linker_0, # of connection points: 2
#     Edge 10, Type (0, 1), BuildingBlock: AJUNOK_clean_linker_0, # of connection points: 2
#     Edge 11, Type (0, 1), BuildingBlock: AJUNOK_clean_linker_0, # of connection points: 2
#     Edge 12, Type (0, 1), BuildingBlock: AJUNOK_clean_linker_0, # of connection points: 2
#     Edge 13, Type (0, 1), BuildingBlock: AJUNOK_clean_linker_0, # of connection points: 2
#     Edge 14, Type (0, 1), BuildingBlock: AJUNOK_clean_linker_0, # of connection points: 2
#     Edge 15, Type (0, 1), BuildingBlock: AJUNOK_clean_linker_0, # of connection points: 2
#     Edge 16, Type (0, 1), BuildingBlock: AJUNOK_clean_linker_0, # of connection points: 2
#     Edge 17, Type (0, 1), BuildingBlock: AJUNOK_clean_linker_0, # of connection points: 2
#     Edge 18, Type (0, 1), BuildingBlock: AJUNOK_clean_linker_0, # of connection points: 2
#     Edge 19, Type (0, 1), BuildingBlock: AJUNOK_clean_linker_0, # of connection points: 2
#     Edge 20, Type (0, 1), BuildingBlock: AJUNOK_clean_linker_0, # of connection points: 2
#     Edge 21, Type (0, 1), BuildingBlock: AJUNOK_clean_linker_0, # of connection points: 2
#     Edge 22, Type (0, 1), BuildingBlock: AJUNOK_clean_linker_0, # of connection points: 2
#     Edge 23, Type (0, 1), BuildingBlock: AJUNOK_clean_linker_0, # of connection points: 2
#     Edge 24, Type (0, 1), BuildingBlock: AJUNOK_clean_linker_0, # of connection points: 2
#     Edge 25, Type (0, 1), BuildingBlock: AJUNOK_clean_linker_0, # of connection points: 2
#     Edge 26, Type (0, 1), BuildingBlock: AJUNOK_clean_linker_0, # of connection points: 2
# Relax obj value: 0.436
# Max RMSD: 0.218
# Mean RMSD: 0.178
data_MOF--net-anh--node1-HISSIN_clean_sbu_0--node2-ESEHIV_clean_linker_0--edge1-AJUNOK_clean_linker_0
_symmetry_space_group_name_H-M    P1
_symmetry_Int_Tables_number       1
_symmetry_cell_setting            triclinic
loop_
_symmetry_equiv_pos_as_xyz
'x, y, z'
_cell_length_a     19.382951
_cell_length_b     19.45615
_cell_length_c     37.534529
_cell_angle_alpha  91.357956
_cell_angle_beta   90.507931
_cell_angle_gamma 119.76056
loop_
_atom_site_label
_atom_site_type_symbol
_atom_site_fract_x
_atom_site_fract_y
_atom_site_fract_z
_atom_type_partial_charge
Eu0 Eu 1.18776 0.54036 0.14614 0.0
Eu1 Eu 0.27343 0.72511 0.17078 0.0
C2 C 1.20368 0.59601 0.2294 0.0
C3 C 1.01922 0.33989 0.12532 0.0
C4 C 0.98652 0.28391 0.15201 0.0
C5 C 0.88849 0.32377 0.11294 0.0
C6 C 0.90674 0.25221 0.16063 0.0
C7 C 0.96826 0.35563 0.10437 0.0
C8 C 0.85825 0.27536 0.1424 0.0
C9 C 1.1063 0.39275 0.12456 0.0
O10 O 0.37557 0.70283 0.15513 0.0
O11 O 0.31364 0.56756 0.15797 0.0
C12 C 0.37875 0.63636 0.15461 0.0
O13 O 0.25706 0.61584 0.09983 0.0
O14 O 0.35543 0.84818 0.15804 0.0
O15 O 0.29759 0.82002 0.2092 0.0
O16 O 0.23224 0.71427 0.11442 0.0
C17 C 0.25542 0.67995 0.09111 0.0
O18 O 1.09108 0.57199 0.13784 0.0
O19 O 1.14112 0.68822 0.17083 0.0
O20 O 0.2673 0.6609 0.22042 0.0
O21 O 1.1312 0.45181 0.10309 0.0
O22 O 1.1428 0.41496 0.15568 0.0
O23 O 1.1563 0.54463 0.20463 0.0
C24 C 0.31947 0.93822 0.18306 0.0
C25 C 0.24319 0.92553 0.1907 0.0
C26 C 0.36601 1.07789 0.17776 0.0
C27 C 0.22977 0.98971 0.19392 0.0
C28 C 0.37922 1.01393 0.17452 0.0
C29 C 0.29289 1.06734 0.19019 0.0
C30 C 0.34003 0.87555 0.18712 0.0
C31 C 1.08185 0.62867 0.15281 0.0
H32 H 1.02421 0.27028 0.16839 0.0
H33 H 0.8521 0.34196 0.09832 0.0
H34 H 0.88537 0.21568 0.18375 0.0
H35 H 0.9911 0.39774 0.08325 0.0
H36 H 1.19567 0.867 0.19673 0.0
H37 H 0.41645 1.13651 0.17454 0.0
H38 H 1.17258 0.97942 0.20295 0.0
H39 H 0.43807 1.02466 0.168 0.0
Eu40 Eu 0.69967 1.0238 0.47921 0.0
Eu41 Eu 0.61016 1.11307 0.51101 0.0
C42 C 0.68965 1.04724 0.56374 0.0
C43 C 0.86443 0.98156 0.46164 0.0
C44 C 0.91783 1.05394 0.479 0.0
C45 C 0.95666 0.93425 0.47177 0.0
C46 C 0.98867 1.06471 0.49435 0.0
C47 C 0.88626 0.92374 0.45636 0.0
C48 C 1.00583 1.00255 0.49308 0.0
C49 C 0.78194 0.96128 0.45446 0.0
O50 O 0.74057 0.2162 0.50735 0.0
O51 O 0.79303 0.15208 0.47505 0.0
C52 C 0.79966 0.21765 0.48903 0.0
O53 O 0.63525 1.04334 0.43308 0.0
O54 O 0.59238 0.18877 0.54927 0.0
O55 O 0.50674 1.12829 0.50583 0.0
O56 O 0.64615 0.15713 0.45661 0.0
C57 C 0.63801 1.11154 0.42916 0.0
O58 O 0.57512 0.92099 0.48703 0.0
O59 O 0.51036 0.99206 0.49015 0.0
O60 O 0.62432 1.04904 0.557 0.0
O61 O 0.73523 0.93386 0.48161 0.0
O62 O 0.77213 1.01364 0.43757 0.0
O63 O 0.73808 1.05505 0.53784 0.0
C64 C 0.54246 0.26041 0.51975 0.0
C65 C 0.55619 0.28246 0.48391 0.0
C66 C 0.58604 0.3961 0.53749 0.0
C67 C 0.58847 0.3618 0.47523 0.0
C68 C 0.55275 0.31685 0.54606 0.0
C69 C 0.60939 0.42011 0.50236 0.0
C70 C 0.53276 0.18418 0.53062 0.0
C71 C 0.50852 0.92351 0.48662 0.0
H72 H 0.90195 1.09957 0.48315 0.0
H73 H 0.96751 0.88476 0.4703 0.0
H74 H 1.02578 1.11823 0.51015 0.0
H75 H 0.84582 0.86771 0.44295 0.0
H76 H 0.54801 0.23969 0.46293 0.0
H77 H 0.60119 0.43911 0.55926 0.0
H78 H 0.60339 0.37806 0.44781 0.0
H79 H 0.54221 0.30095 0.57376 0.0
Eu80 Eu 0.68123 0.51299 0.81493 0.0
Eu81 Eu 0.86694 0.61045 0.83882 0.0
C82 C 0.73648 0.5596 0.89676 0.0
C83 C 0.48833 0.49405 0.80792 0.0
C84 C 0.46512 0.4964 0.84311 0.0
C85 C 0.49472 0.62031 0.79815 0.0
C86 C 0.46493 0.56367 0.85654 0.0
C87 C 0.49555 0.55315 0.78472 0.0
C88 C 0.48552 0.62831 0.83472 0.0
C89 C 0.53126 0.45047 0.79998 0.0
O90 O 0.84608 0.48721 0.82201 0.0
O91 O 0.70999 0.41434 0.82263 0.0
C92 C 0.77955 0.41808 0.82013 0.0
O93 O 0.74961 0.52782 0.76449 0.0
O94 O 0.99191 0.64695 0.83093 0.0
O95 O 0.95578 0.68278 0.87931 0.0
O96 O 0.86628 0.63866 0.78176 0.0
C97 C 0.81789 0.59003 0.75694 0.0
O98 O 0.71303 0.64001 0.80601 0.0
O99 O 0.83412 0.70875 0.83511 0.0
O100 O 0.79828 0.55375 0.88768 0.0
O101 O 0.58541 0.48166 0.7758 0.0
O102 O 0.55781 0.43051 0.82778 0.0
O103 O 0.6886 0.55971 0.87192 0.0
C104 C 1.08196 0.77228 0.85718 0.0
C105 C 1.07537 0.83953 0.86601 0.0
C106 C 1.22314 0.85623 0.85029 0.0
C107 C 1.14339 0.91472 0.86835 0.0
C108 C 1.15569 0.78174 0.84803 0.0
C109 C 1.21858 0.92335 0.86192 0.0
C110 C 1.01494 0.69142 0.86001 0.0
C111 C 0.77321 0.70734 0.8182 0.0
H112 H 0.45698 0.45102 0.86151 0.0
H113 H 0.50886 0.66887 0.78068 0.0
H114 H 0.45477 0.56769 0.88466 0.0
H115 H 0.51171 0.55241 0.75721 0.0
H116 H 1.01846 0.83364 0.87266 0.0
H117 H 0.27978 0.85969 0.84561 0.0
H118 H 1.13756 0.96513 0.87683 0.0
H119 H 1.16194 0.73076 0.84099 0.0
H120 H 0.49389 0.24649 0.31771 0.0
H121 H 0.68554 0.22617 0.27334 0.0
H122 H 0.53846 0.27264 0.20438 0.0
C123 C 0.52713 0.24835 0.29448 0.0
C124 C 0.50451 0.26003 0.26027 0.0
C125 C 0.5908 0.23406 0.29882 0.0
C126 C 0.63685 0.23811 0.26986 0.0
C127 C 0.61868 0.25415 0.23616 0.0
C128 C 0.55359 0.26572 0.23138 0.0
H129 H 1.01785 0.80201 0.62912 0.0
H130 H 0.81487 0.58776 0.58806 0.0
H131 H 0.94989 0.77506 0.51772 0.0
C132 C 0.98119 0.76527 0.6068 0.0
C133 C 0.99625 0.79524 0.5722 0.0
C134 C 0.91436 0.69086 0.61285 0.0
C135 C 0.86588 0.64567 0.58384 0.0
C136 C 0.87765 0.67691 0.5499 0.0
C137 C 0.94362 0.75023 0.54385 0.0
H138 H 0.3795 0.9399 0.97454 0.0
H139 H 0.48677 0.79726 0.95888 0.0
H140 H 0.54295 0.98572 0.88851 0.0
C141 C 0.42364 0.93174 0.96086 0.0
C142 C 0.46211 0.97617 0.93056 0.0
C143 C 0.4336 0.86849 0.9717 0.0
C144 C 0.4819 0.8484 0.95185 0.0
C145 C 0.51565 0.88713 0.92042 0.0
C146 C 0.51296 0.95561 0.91217 0.0
H147 H 1.03921 0.46597 0.38463 0.0
H148 H 0.26624 0.67835 0.39161 0.0
H149 H 1.14741 0.57028 0.48791 0.0
C150 C 1.08765 0.51118 0.40092 0.0
C151 C 1.08394 0.50787 0.43872 0.0
C152 C 1.15242 0.5726 0.38364 0.0
C153 C 1.21498 0.63202 0.40457 0.0
C154 C 1.21346 0.6333 0.44192 0.0
C155 C 1.1476 0.57083 0.45909 0.0
H156 H 0.7661 0.16702 0.7213 0.0
H157 H 0.75312 0.94043 0.71854 0.0
H158 H 0.78627 1.06621 0.81944 0.0
C159 C 0.76863 1.12013 0.73528 0.0
C160 C 0.77778 1.12572 0.77266 0.0
C161 C 0.75962 1.05362 0.71575 0.0
C162 C 0.76059 0.99174 0.73386 0.0
C163 C 0.77117 0.99505 0.77126 0.0
C164 C 0.78 1.06306 0.79066 0.0
H165 H 0.61159 0.61561 0.05253 0.0
H166 H 0.82639 0.6025 0.05659 0.0
H167 H 0.72951 0.63683 0.15384 0.0
C168 C 0.65989 0.61682 0.06784 0.0
C169 C 0.66241 0.62669 0.10534 0.0
C170 C 0.71991 0.61002 0.04995 0.0
C171 C 0.78138 0.61018 0.07016 0.0
C172 C 0.7866 0.62039 0.10746 0.0
C173 C 0.72691 0.62954 0.12507 0.0
C174 C 0.455 0.56448 0.14024 0.0
C175 C 0.4555 0.63683 0.14634 0.0
C176 C 0.52291 0.56194 0.12865 0.0
C177 C 0.59536 0.6315 0.12298 0.0
H178 H 0.40076 0.50865 0.14326 0.0
H179 H 0.518 0.50477 0.12307 0.0
S180 S 0.63209 0.83656 0.13636 0.0
N181 N 0.53789 0.7805 0.14674 0.0
N182 N 0.66454 0.77502 0.12528 0.0
C183 C 0.59799 0.7042 0.12995 0.0
C184 C 0.52865 0.70704 0.14157 0.0
C185 C 0.91851 0.2923 0.4503 0.0
C186 C 0.87378 0.29415 0.47948 0.0
C187 C 0.98621 0.36038 0.43864 0.0
C188 C 1.01465 0.43581 0.45525 0.0
H189 H 0.90045 0.23731 0.43544 0.0
H190 H 1.01657 0.35336 0.41599 0.0
S191 S 0.92582 0.47394 0.53566 0.0
N192 N 0.86704 0.37834 0.52654 0.0
N193 N 0.99481 0.50643 0.50498 0.0
C194 C 0.97281 0.43862 0.48557 0.0
C195 C 0.90242 0.36843 0.49737 0.0
C196 C 0.70829 0.77908 0.79023 0.0
C197 C 0.77213 0.78316 0.81049 0.0
C198 C 0.70689 0.84744 0.77963 0.0
C199 C 0.7692 0.92447 0.78862 0.0
H200 H 0.65944 0.72223 0.78131 0.0
H201 H 0.65709 0.83973 0.76324 0.0
S202 S 0.94918 0.97057 0.84278 0.0
N203 N 0.89846 0.87272 0.84048 0.0
N204 N 0.89578 1.00069 0.82037 0.0
C205 C 0.83217 0.93009 0.81 0.0
C206 C 0.83375 0.85996 0.82084 0.0
C207 C 0.93863 0.55714 0.13077 0.0
C208 C 1.00303 0.62572 0.14685 0.0
C209 C 0.86701 0.55429 0.12073 0.0
C210 C 0.85524 0.61961 0.12631 0.0
H211 H 0.94417 0.50542 0.12472 0.0
H212 H 0.82135 0.5012 0.10701 0.0
S213 S 1.00144 0.81213 0.16932 0.0
N214 N 1.04727 0.75967 0.16963 0.0
N215 N 0.91298 0.75402 0.15054 0.0
C216 C 0.91713 0.68727 0.14389 0.0
C217 C 0.99063 0.69038 0.15417 0.0
C218 C 0.42826 0.77474 0.47297 0.0
C219 C 0.42995 0.84736 0.48 0.0
C220 C 0.35695 0.70415 0.46353 0.0
C221 C 0.28316 0.70183 0.46123 0.0
H222 H 0.48307 0.77267 0.47343 0.0
H223 H 0.36016 0.65154 0.45641 0.0
S224 S 0.25201 0.87298 0.4779 0.0
N225 N 0.3485 0.9102 0.48486 0.0
N226 N 1.21603 0.77823 0.46727 0.0
C227 C 0.28319 0.77286 0.4693 0.0
C228 C 0.3558 0.84505 0.4787 0.0
C229 C 0.71025 0.2689 0.80771 0.0
C230 C 0.78178 0.34199 0.81273 0.0
C231 C 0.7097 0.19828 0.79718 0.0
C232 C 0.78056 0.19643 0.79154 0.0
H233 H 0.65353 0.26638 0.8107 0.0
H234 H 0.65299 1.1451 0.79203 0.0
S235 S 0.9843 0.36847 0.80234 0.0
N236 N 0.92621 0.40556 0.81232 0.0
N237 N 0.92434 0.27345 0.79262 0.0
C238 C 0.85243 0.26788 0.79754 0.0
C239 C 0.85327 0.34011 0.80816 0.0
C240 C 1.09835 0.95611 0.5122 0.0
C241 C 1.05655 0.99589 0.52113 0.0
C242 C 1.096 0.89829 0.53454 0.0
C243 C 1.05186 0.87984 0.56592 0.0
H244 H 1.11925 0.95841 0.48533 0.0
H245 H 1.11458 0.85795 0.52391 0.0
S246 S 0.97249 0.99806 0.60924 0.0
N247 N 1.00087 1.03664 0.56971 0.0
N248 N 0.99627 0.92769 0.61138 0.0
C249 C 1.03118 0.93487 0.57938 0.0
C250 C 1.03357 0.99368 0.55677 0.0
C251 C 0.36312 1.01328 0.85573 0.0
C252 C 0.29345 0.99522 0.87401 0.0
C253 C 0.43144 1.02719 0.87482 0.0
C254 C 0.43102 1.02453 0.91252 0.0
H255 H 0.36019 1.00095 0.82727 0.0
H256 H 0.47806 1.02716 0.85937 0.0
S257 S 0.29001 1.05304 0.9685 0.0
N258 N 0.2451 1.02371 0.92895 0.0
N259 N 0.37808 1.06019 0.96411 0.0
C260 C 0.37399 1.03859 0.92913 0.0
C261 C 0.30289 1.02067 0.90996 0.0
C262 C 0.34272 0.21137 0.19744 0.0
C263 C 0.29393 1.13484 0.21016 0.0
C264 C 0.40656 0.26777 0.21888 0.0
C265 C 0.42228 0.24645 0.25248 0.0
H266 H 0.34296 0.2215 0.16917 0.0
H267 H 0.45155 0.32042 0.20637 0.0
S268 S 0.26945 1.08331 0.30517 0.0
N269 N 0.23355 1.06399 0.26387 0.0
N270 N 0.35464 0.1672 0.30388 0.0
C271 C 0.35644 0.18393 0.26886 0.0
C272 C 0.29048 1.12833 0.24734 0.0
C273 C 0.66851 0.56341 0.51779 0.0
C274 C 0.67138 0.50364 0.49712 0.0
C275 C 0.73856 0.6285 0.53118 0.0
C276 C 0.81285 0.63656 0.52318 0.0
H277 H 0.61246 0.55383 0.5281 0.0
H278 H 0.73432 0.66696 0.55135 0.0
S279 S 0.85214 0.51863 0.45632 0.0
N280 N 0.75444 0.47179 0.45944 0.0
N281 N 0.88612 0.59643 0.48403 0.0
C282 C 0.81659 0.58759 0.49637 0.0
C283 C 0.7453 0.5205 0.48307 0.0
C284 C 0.56111 0.73669 0.87989 0.0
C285 C 0.5057 0.70583 0.85121 0.0
C286 C 0.57224 0.80299 0.90002 0.0
C287 C 0.52825 0.84052 0.8921 0.0
H288 H 0.59308 0.70683 0.88793 0.0
H289 H 0.61066 0.82114 0.92358 0.0
S290 S 0.38385 0.78858 0.81654 0.0
N291 N 0.41348 0.72247 0.81327 0.0
N292 N 0.43333 0.84689 0.85118 0.0
C293 C 0.47824 0.81456 0.86136 0.0
C294 C 0.46707 0.74703 0.84089 0.0
C295 C 0.77485 0.32954 0.16617 0.0
C296 C 0.78391 0.26311 0.15874 0.0
C297 C 0.71658 0.32485 0.18933 0.0
C298 C 0.66592 0.2537 0.20577 0.0
H299 H 0.81677 0.387 0.15622 0.0
H300 H 0.71483 0.37831 0.19633 0.0
S301 S 0.65477 1.05974 0.18995 0.0
N302 N 0.72953 1.12164 0.16557 0.0
N303 N 0.62027 1.11317 0.20954 0.0
C304 C 0.66964 0.18543 0.19625 0.0
C305 C 0.72868 0.19005 0.17259 0.0
C306 C 0.33603 0.8083 0.0615 0.0
C307 C 0.29707 0.72488 0.05951 0.0
C308 C 0.38005 0.8538 0.03314 0.0
C309 C 0.38603 0.8179 1.00132 0.0
H310 H 0.3342 0.83919 0.08553 0.0
H311 H 0.41048 0.91776 0.03636 0.0
S312 S 0.28718 0.60106 0.98108 0.0
N313 N 0.2637 0.60793 0.02269 0.0
N314 N 0.34267 0.69303 0.96831 0.0
C315 C 0.34496 0.73423 0.99847 0.0
C316 C 0.30148 0.68789 0.02781 0.0
C317 C 0.56701 1.09236 0.371 0.0
C318 C 0.63146 1.13982 0.39417 0.0
C319 C 0.55294 1.12429 0.3405 0.0
C320 C 0.60346 0.20403 0.33233 0.0
H321 H 0.52577 1.03141 0.37717 0.0
H322 H 0.50252 1.08651 0.32311 0.0
S323 S 0.78293 0.35074 0.38336 0.0
N324 N 0.74754 0.26928 0.40643 0.0
N325 N 0.72205 0.32823 0.34847 0.0
C326 C 0.66927 0.25116 0.35467 0.0
C327 C 0.68298 0.21922 0.38585 0.0
C328 C 0.91955 0.64096 0.70979 0.0
C329 C 0.83985 0.60973 0.71965 0.0
C330 C 0.94349 0.66691 0.67518 0.0
C331 C 0.88868 0.66358 0.64949 0.0
H332 H 0.96374 0.64545 0.72902 0.0
H333 H 1.00515 0.68952 0.66849 0.0
S334 S 0.67481 0.59549 0.66366 0.0
N335 N 0.70726 0.58088 0.70197 0.0
N336 N 0.75222 0.63283 0.63745 0.0
C337 C 0.80901 0.63416 0.65946 0.0
C338 C 0.78456 0.60628 0.6944 0.0
C339 C 0.78629 1.09404 0.61612 0.0
C340 C 0.70999 1.04188 0.60155 0.0
C341 C 0.80255 1.0971 0.65304 0.0
C342 C 0.74373 1.04664 0.67649 0.0
H343 H 0.83266 1.13513 0.59915 0.0
H344 H 0.8612 1.13983 0.66341 0.0
S345 S 0.53662 0.89553 0.65142 0.0
N346 N 0.57629 0.93669 0.61342 0.0
N347 N 0.60776 0.94059 0.68221 0.0
C348 C 0.66845 0.99216 0.662 0.0
C349 C 0.65138 0.99027 0.62471 0.0
C350 C 0.65721 0.53378 0.95311 0.0
C351 C 0.72869 0.57728 0.93487 0.0
C352 C 0.6533 0.54629 0.99016 0.0
C353 C 0.72051 0.60331 0.01006 0.0
H354 H 0.60504 0.48783 0.939 0.0
H355 H 0.59826 0.50913 1.0035 0.0
S356 S 0.91698 0.74255 0.97316 0.0
N357 N 0.86476 0.68574 0.93864 0.0
N358 N 0.85717 0.71056 0.00734 0.0
C359 C 0.79045 0.65045 0.99141 0.0
C360 C 0.79458 0.63708 0.95411 0.0
C361 C 1.15462 0.51437 0.28501 0.0
C362 C 1.18261 0.58689 0.26791 0.0
C363 C 1.14221 0.50902 0.32221 0.0
C364 C 1.15647 0.5758 0.34361 0.0
H365 H 1.14517 0.46224 0.26983 0.0
H366 H 1.12403 0.45291 0.33448 0.0
S367 S 1.2161 0.77566 0.31044 0.0
N368 N 1.2153 0.72432 0.27464 0.0
N369 N 1.18998 0.71389 0.34356 0.0
C370 C 1.17956 0.64712 0.32621 0.0
C371 C 1.19312 0.65274 0.28872 0.0
loop_
_geom_bond_atom_site_label_1
_geom_bond_atom_site_label_2
_geom_bond_distance
_geom_bond_site_symmetry_2
_ccdc_geom_bond_type
Eu0 C9 2.828 . S
Eu0 O11 2.392 1_655 S
Eu0 O13 2.418 . S
Eu0 O18 2.373 . S
Eu0 O21 2.488 . S
Eu0 O22 2.471 . S
Eu0 O23 2.349 . S
Eu1 O10 2.373 . S
Eu1 O14 2.488 . S
Eu1 O15 2.471 . S
Eu1 O16 2.349 . S
Eu1 O19 2.392 1_455 S
Eu1 O20 2.418 . S
Eu1 C30 2.828 . S
C2 O20 1.244 . S
C2 O23 1.265 1_455 S
C3 C4 1.379 . S
C3 C7 1.373 . S
C3 C9 1.505 . S
C4 C3 1.379 . S
C4 C6 1.369 . S
C4 H32 0.930 . S
C5 C7 1.383 . S
C5 C8 1.382 . S
C5 H33 0.930 . S
C6 C4 1.369 . S
C6 C8 1.392 . S
C6 H34 0.930 . S
C7 C3 1.373 . S
C7 C5 1.383 . S
C7 H35 0.931 . S
C8 C5 1.382 . S
C8 C6 1.392 . S
C9 Eu0 2.828 . S
C9 C3 1.505 . S
C9 O21 1.249 . S
C9 O22 1.244 . S
O10 Eu1 2.373 . S
O10 C12 1.258 . S
O11 Eu0 2.392 1_455 S
O11 C12 1.242 . S
C12 O10 1.258 . S
C12 O11 1.242 . S
O13 Eu0 2.418 . S
O13 C17 1.244 . S
O14 Eu1 2.488 . S
O14 C30 1.249 . S
O15 Eu1 2.471 . S
O15 C30 1.244 . S
O16 Eu1 2.349 . S
O16 C17 1.265 1_455 S
C17 O13 1.244 . S
C17 O16 1.265 1_655 S
O18 Eu0 2.373 . S
O18 C31 1.258 . S
O19 Eu1 2.392 1_655 S
O19 C31 1.242 . S
O20 Eu1 2.418 . S
O20 C2 1.244 . S
O21 Eu0 2.488 . S
O21 C9 1.249 . S
O22 Eu0 2.471 . S
O22 C9 1.244 . S
O23 Eu0 2.349 . S
O23 C2 1.265 1_655 S
C24 C25 1.379 . S
C24 C28 1.373 . S
C24 C30 1.505 . S
C25 C24 1.379 . S
C25 C27 1.369 . S
C25 H36 0.930 . S
C26 C28 1.383 . S
C26 C29 1.382 . S
C26 H37 0.930 . S
C27 C25 1.369 . S
C27 C29 1.392 . S
C27 H38 0.930 . S
C28 C24 1.373 . S
C28 C26 1.383 . S
C28 H39 0.931 . S
C29 C26 1.382 . S
C29 C27 1.392 . S
C30 Eu1 2.828 . S
C30 O14 1.249 . S
C30 O15 1.244 . S
C30 C24 1.505 . S
C31 O18 1.258 . S
C31 O19 1.242 . S
H32 C4 0.930 . S
H33 C5 0.930 . S
H34 C6 0.930 . S
H35 C7 0.931 . S
H36 C25 0.930 . S
H37 C26 0.930 . S
H38 C27 0.930 . S
H39 C28 0.931 . S
Eu40 C49 2.828 . S
Eu40 O51 2.392 1_565 S
Eu40 O53 2.418 . S
Eu40 O58 2.373 . S
Eu40 O61 2.488 . S
Eu40 O62 2.471 . S
Eu40 O63 2.349 . S
Eu41 O50 2.373 . S
Eu41 O54 2.488 . S
Eu41 O55 2.471 . S
Eu41 O56 2.349 . S
Eu41 O59 2.392 1_545 S
Eu41 O60 2.418 . S
Eu41 C70 2.828 . S
C42 O60 1.244 . S
C42 O63 1.265 1_545 S
C43 C44 1.379 . S
C43 C47 1.373 . S
C43 C49 1.505 . S
C44 C43 1.379 . S
C44 C46 1.369 . S
C44 H72 0.930 . S
C45 C47 1.383 . S
C45 C48 1.382 . S
C45 H73 0.930 . S
C46 C44 1.369 . S
C46 C48 1.392 . S
C46 H74 0.930 . S
C47 C43 1.373 . S
C47 C45 1.383 . S
C47 H75 0.931 . S
C48 C45 1.382 . S
C48 C46 1.392 . S
C49 Eu40 2.828 . S
C49 C43 1.505 . S
C49 O61 1.249 . S
C49 O62 1.244 . S
O50 Eu41 2.373 . S
O50 C52 1.258 . S
O51 Eu40 2.392 1_545 S
O51 C52 1.242 . S
C52 O50 1.258 . S
C52 O51 1.242 . S
O53 Eu40 2.418 . S
O53 C57 1.244 . S
O54 Eu41 2.488 . S
O54 C70 1.249 . S
O55 Eu41 2.471 . S
O55 C70 1.244 . S
O56 Eu41 2.349 . S
O56 C57 1.265 1_545 S
C57 O53 1.244 . S
C57 O56 1.265 1_565 S
O58 Eu40 2.373 . S
O58 C71 1.258 . S
O59 Eu41 2.392 1_565 S
O59 C71 1.242 . S
O60 Eu41 2.418 . S
O60 C42 1.244 . S
O61 Eu40 2.488 . S
O61 C49 1.249 . S
O62 Eu40 2.471 . S
O62 C49 1.244 . S
O63 Eu40 2.349 . S
O63 C42 1.265 1_565 S
C64 C65 1.379 . S
C64 C68 1.373 . S
C64 C70 1.505 . S
C65 C64 1.379 . S
C65 C67 1.369 . S
C65 H76 0.930 . S
C66 C68 1.383 . S
C66 C69 1.382 . S
C66 H77 0.930 . S
C67 C65 1.369 . S
C67 C69 1.392 . S
C67 H78 0.930 . S
C68 C64 1.373 . S
C68 C66 1.383 . S
C68 H79 0.931 . S
C69 C66 1.382 . S
C69 C67 1.392 . S
C70 Eu41 2.828 . S
C70 O54 1.249 . S
C70 O55 1.244 . S
C70 C64 1.505 . S
C71 O58 1.258 . S
C71 O59 1.242 . S
H72 C44 0.930 . S
H73 C45 0.930 . S
H74 C46 0.930 . S
H75 C47 0.931 . S
H76 C65 0.930 . S
H77 C66 0.930 . S
H78 C67 0.930 . S
H79 C68 0.931 . S
Eu80 C89 2.828 . S
Eu80 O91 2.392 . S
Eu80 O93 2.418 . S
Eu80 O98 2.373 . S
Eu80 O101 2.488 . S
Eu80 O102 2.471 . S
Eu80 O103 2.349 . S
Eu81 O90 2.373 . S
Eu81 O94 2.488 . S
Eu81 O95 2.471 . S
Eu81 O96 2.349 . S
Eu81 O99 2.392 . S
Eu81 O100 2.418 . S
Eu81 C110 2.828 . S
C82 O100 1.244 . S
C82 O103 1.265 . S
C83 C84 1.379 . S
C83 C87 1.373 . S
C83 C89 1.505 . S
C84 C83 1.379 . S
C84 C86 1.369 . S
C84 H112 0.930 . S
C85 C87 1.383 . S
C85 C88 1.382 . S
C85 H113 0.930 . S
C86 C84 1.369 . S
C86 C88 1.392 . S
C86 H114 0.930 . S
C87 C83 1.373 . S
C87 C85 1.383 . S
C87 H115 0.931 . S
C88 C85 1.382 . S
C88 C86 1.392 . S
C89 Eu80 2.828 . S
C89 C83 1.505 . S
C89 O101 1.249 . S
C89 O102 1.244 . S
O90 Eu81 2.373 . S
O90 C92 1.258 . S
O91 Eu80 2.392 . S
O91 C92 1.242 . S
C92 O90 1.258 . S
C92 O91 1.242 . S
O93 Eu80 2.418 . S
O93 C97 1.244 . S
O94 Eu81 2.488 . S
O94 C110 1.249 . S
O95 Eu81 2.471 . S
O95 C110 1.244 . S
O96 Eu81 2.349 . S
O96 C97 1.265 . S
C97 O93 1.244 . S
C97 O96 1.265 . S
O98 Eu80 2.373 . S
O98 C111 1.258 . S
O99 Eu81 2.392 . S
O99 C111 1.242 . S
O100 Eu81 2.418 . S
O100 C82 1.244 . S
O101 Eu80 2.488 . S
O101 C89 1.249 . S
O102 Eu80 2.471 . S
O102 C89 1.244 . S
O103 Eu80 2.349 . S
O103 C82 1.265 . S
C104 C105 1.379 . S
C104 C108 1.373 . S
C104 C110 1.505 . S
C105 C104 1.379 . S
C105 C107 1.369 . S
C105 H116 0.930 . S
C106 C108 1.383 . S
C106 C109 1.382 . S
C106 H117 0.930 . S
C107 C105 1.369 . S
C107 C109 1.392 . S
C107 H118 0.930 . S
C108 C104 1.373 . S
C108 C106 1.383 . S
C108 H119 0.931 . S
C109 C106 1.382 . S
C109 C107 1.392 . S
C110 Eu81 2.828 . S
C110 O94 1.249 . S
C110 O95 1.244 . S
C110 C104 1.505 . S
C111 O98 1.258 . S
C111 O99 1.242 . S
H112 C84 0.930 . S
H113 C85 0.930 . S
H114 C86 0.930 . S
H115 C87 0.931 . S
H116 C105 0.930 . S
H117 C106 0.930 . S
H118 C107 0.930 . S
H119 C108 0.931 . S
H120 C123 0.931 . S
H121 C126 0.928 . S
H122 C128 0.930 . S
C123 H120 0.931 . S
C123 C124 1.413 . S
C123 C125 1.360 1_565 S
C124 C123 1.413 . S
C124 C128 1.429 1_565 S
C125 C123 1.360 1_545 S
C125 C126 1.372 . S
C126 H121 0.928 . S
C126 C125 1.372 . S
C126 C127 1.404 . S
C127 C126 1.404 . S
C127 C128 1.391 . S
C128 H122 0.930 . S
C128 C124 1.429 1_545 S
C128 C127 1.391 . S
H129 C132 0.931 . S
H130 C135 0.928 . S
H131 C137 0.930 . S
C132 H129 0.931 . S
C132 C133 1.413 . S
C132 C134 1.360 . S
C133 C132 1.413 . S
C133 C137 1.429 . S
C134 C132 1.360 . S
C134 C135 1.372 . S
C135 H130 0.928 . S
C135 C134 1.372 . S
C135 C136 1.404 . S
C136 C135 1.404 . S
C136 C137 1.391 . S
C137 H131 0.930 . S
C137 C133 1.429 . S
C137 C136 1.391 . S
H138 C141 0.931 . S
H139 C144 0.928 . S
H140 C146 0.930 . S
C141 H138 0.931 . S
C141 C142 1.413 . S
C141 C143 1.360 1_655 S
C142 C141 1.413 . S
C142 C146 1.429 1_655 S
C143 C141 1.360 1_455 S
C143 C144 1.372 . S
C144 H139 0.928 . S
C144 C143 1.372 . S
C144 C145 1.404 . S
C145 C144 1.404 . S
C145 C146 1.391 . S
C146 H140 0.930 . S
C146 C142 1.429 1_455 S
C146 C145 1.391 . S
H147 C150 0.931 . S
H148 C153 0.928 . S
H149 C155 0.930 . S
C150 H147 0.931 . S
C150 C151 1.413 . S
C150 C152 1.360 1_655 S
C151 C150 1.413 . S
C151 C155 1.429 1_655 S
C152 C150 1.360 1_455 S
C152 C153 1.372 . S
C153 H148 0.928 . S
C153 C152 1.372 . S
C153 C154 1.404 . S
C154 C153 1.404 . S
C154 C155 1.391 . S
C155 H149 0.930 . S
C155 C151 1.429 1_455 S
C155 C154 1.391 . S
H156 C159 0.931 . S
H157 C162 0.928 . S
H158 C164 0.930 . S
C159 H156 0.931 . S
C159 C160 1.413 . S
C159 C161 1.360 . S
C160 C159 1.413 . S
C160 C164 1.429 . S
C161 C159 1.360 . S
C161 C162 1.372 1_545 S
C162 H157 0.928 . S
C162 C161 1.372 1_565 S
C162 C163 1.404 . S
C163 C162 1.404 . S
C163 C164 1.391 1_565 S
C164 H158 0.930 . S
C164 C160 1.429 . S
C164 C163 1.391 1_545 S
H165 C168 0.931 . S
H166 C171 0.928 . S
H167 C173 0.930 . S
C168 H165 0.931 . S
C168 C169 1.413 . S
C168 C170 1.360 . S
C169 C168 1.413 . S
C169 C173 1.429 . S
C170 C168 1.360 . S
C170 C171 1.372 . S
C171 H166 0.928 . S
C171 C170 1.372 . S
C171 C172 1.404 . S
C172 C171 1.404 . S
C172 C173 1.391 . S
C173 H167 0.930 . S
C173 C169 1.429 . S
C173 C172 1.391 . S
C174 C175 1.369 . S
C174 C176 1.419 . S
C174 H178 0.930 . S
C175 C174 1.369 . S
C175 C184 1.429 . S
C176 C174 1.419 . S
C176 C177 1.363 . S
C176 H179 0.929 . S
C177 C176 1.363 . S
C177 C183 1.428 . S
H178 C174 0.930 . S
H179 C176 0.929 . S
S180 N181 1.613 . S
S180 N182 1.610 . S
N181 S180 1.613 . S
N181 C184 1.350 . S
N182 S180 1.610 . S
N182 C183 1.351 . S
C183 C177 1.428 . S
C183 N182 1.351 . S
C183 C184 1.434 . S
C184 C175 1.429 . S
C184 N181 1.350 . S
C184 C183 1.434 . S
C185 C186 1.369 . S
C185 C187 1.419 . S
C185 H189 0.930 . S
C186 C185 1.369 . S
C186 C195 1.429 . S
C187 C185 1.419 . S
C187 C188 1.363 . S
C187 H190 0.929 . S
C188 C187 1.363 . S
C188 C194 1.428 . S
H189 C185 0.930 . S
H190 C187 0.929 . S
S191 N192 1.613 . S
S191 N193 1.610 . S
N192 S191 1.613 . S
N192 C195 1.350 . S
N193 S191 1.610 . S
N193 C194 1.351 . S
C194 C188 1.428 . S
C194 N193 1.351 . S
C194 C195 1.434 . S
C195 C186 1.429 . S
C195 N192 1.350 . S
C195 C194 1.434 . S
C196 C197 1.369 . S
C196 C198 1.419 . S
C196 H200 0.930 . S
C197 C196 1.369 . S
C197 C206 1.429 . S
C198 C196 1.419 . S
C198 C199 1.363 . S
C198 H201 0.929 . S
C199 C198 1.363 . S
C199 C205 1.428 . S
H200 C196 0.930 . S
H201 C198 0.929 . S
S202 N203 1.613 . S
S202 N204 1.610 . S
N203 S202 1.613 . S
N203 C206 1.350 . S
N204 S202 1.610 . S
N204 C205 1.351 . S
C205 C199 1.428 . S
C205 N204 1.351 . S
C205 C206 1.434 . S
C206 C197 1.429 . S
C206 N203 1.350 . S
C206 C205 1.434 . S
C207 C208 1.369 . S
C207 C209 1.419 . S
C207 H211 0.930 . S
C208 C207 1.369 . S
C208 C217 1.429 . S
C209 C207 1.419 . S
C209 C210 1.363 . S
C209 H212 0.929 . S
C210 C209 1.363 . S
C210 C216 1.428 . S
H211 C207 0.930 . S
H212 C209 0.929 . S
S213 N214 1.613 . S
S213 N215 1.610 . S
N214 S213 1.613 . S
N214 C217 1.350 . S
N215 S213 1.610 . S
N215 C216 1.351 . S
C216 C210 1.428 . S
C216 N215 1.351 . S
C216 C217 1.434 . S
C217 C208 1.429 . S
C217 N214 1.350 . S
C217 C216 1.434 . S
C218 C219 1.369 . S
C218 C220 1.419 . S
C218 H222 0.930 . S
C219 C218 1.369 . S
C219 C228 1.429 . S
C220 C218 1.419 . S
C220 C221 1.363 . S
C220 H223 0.929 . S
C221 C220 1.363 . S
C221 C227 1.428 . S
H222 C218 0.930 . S
H223 C220 0.929 . S
S224 N225 1.613 . S
S224 N226 1.610 . S
N225 S224 1.613 . S
N225 C228 1.350 . S
N226 S224 1.610 . S
N226 C227 1.351 . S
C227 C221 1.428 . S
C227 N226 1.351 . S
C227 C228 1.434 . S
C228 C219 1.429 . S
C228 N225 1.350 . S
C228 C227 1.434 . S
C229 C230 1.369 . S
C229 C231 1.419 . S
C229 H233 0.930 . S
C230 C229 1.369 . S
C230 C239 1.429 . S
C231 C229 1.419 . S
C231 C232 1.363 . S
C231 H234 0.929 . S
C232 C231 1.363 . S
C232 C238 1.428 . S
H233 C229 0.930 . S
H234 C231 0.929 . S
S235 N236 1.613 . S
S235 N237 1.610 . S
N236 S235 1.613 . S
N236 C239 1.350 . S
N237 S235 1.610 . S
N237 C238 1.351 . S
C238 C232 1.428 . S
C238 N237 1.351 . S
C238 C239 1.434 . S
C239 C230 1.429 . S
C239 N236 1.350 . S
C239 C238 1.434 . S
C240 C241 1.369 . S
C240 C242 1.419 . S
C240 H244 0.930 . S
C241 C240 1.369 . S
C241 C250 1.429 . S
C242 C240 1.419 . S
C242 C243 1.363 . S
C242 H245 0.929 . S
C243 C242 1.363 . S
C243 C249 1.428 . S
H244 C240 0.930 . S
H245 C242 0.929 . S
S246 N247 1.613 . S
S246 N248 1.610 . S
N247 S246 1.613 . S
N247 C250 1.350 . S
N248 S246 1.610 . S
N248 C249 1.351 . S
C249 C243 1.428 . S
C249 N248 1.351 . S
C249 C250 1.434 . S
C250 C241 1.429 . S
C250 N247 1.350 . S
C250 C249 1.434 . S
C251 C252 1.369 . S
C251 C253 1.419 . S
C251 H255 0.930 . S
C252 C251 1.369 . S
C252 C261 1.429 . S
C253 C251 1.419 . S
C253 C254 1.363 . S
C253 H256 0.929 . S
C254 C253 1.363 . S
C254 C260 1.428 . S
H255 C251 0.930 . S
H256 C253 0.929 . S
S257 N258 1.613 . S
S257 N259 1.610 . S
N258 S257 1.613 . S
N258 C261 1.350 . S
N259 S257 1.610 . S
N259 C260 1.351 . S
C260 C254 1.428 . S
C260 N259 1.351 . S
C260 C261 1.434 . S
C261 C252 1.429 . S
C261 N258 1.350 . S
C261 C260 1.434 . S
C262 C263 1.369 . S
C262 C264 1.419 . S
C262 H266 0.930 . S
C263 C262 1.369 . S
C263 C272 1.429 . S
C264 C262 1.419 . S
C264 C265 1.363 . S
C264 H267 0.929 . S
C265 C264 1.363 . S
C265 C271 1.428 . S
H266 C262 0.930 . S
H267 C264 0.929 . S
S268 N269 1.613 . S
S268 N270 1.610 . S
N269 S268 1.613 . S
N269 C272 1.350 . S
N270 S268 1.610 . S
N270 C271 1.351 . S
C271 C265 1.428 . S
C271 N270 1.351 . S
C271 C272 1.434 . S
C272 C263 1.429 . S
C272 N269 1.350 . S
C272 C271 1.434 . S
C273 C274 1.369 . S
C273 C275 1.419 . S
C273 H277 0.930 . S
C274 C273 1.369 . S
C274 C283 1.429 . S
C275 C273 1.419 . S
C275 C276 1.363 . S
C275 H278 0.929 . S
C276 C275 1.363 . S
C276 C282 1.428 . S
H277 C273 0.930 . S
H278 C275 0.929 . S
S279 N280 1.613 . S
S279 N281 1.610 . S
N280 S279 1.613 . S
N280 C283 1.350 . S
N281 S279 1.610 . S
N281 C282 1.351 . S
C282 C276 1.428 . S
C282 N281 1.351 . S
C282 C283 1.434 . S
C283 C274 1.429 . S
C283 N280 1.350 . S
C283 C282 1.434 . S
C284 C285 1.369 . S
C284 C286 1.419 . S
C284 H288 0.930 . S
C285 C284 1.369 . S
C285 C294 1.429 . S
C286 C284 1.419 . S
C286 C287 1.363 . S
C286 H289 0.929 . S
C287 C286 1.363 . S
C287 C293 1.428 . S
H288 C284 0.930 . S
H289 C286 0.929 . S
S290 N291 1.613 1_655 S
S290 N292 1.610 1_655 S
N291 S290 1.613 1_455 S
N291 C294 1.350 . S
N292 S290 1.610 1_455 S
N292 C293 1.351 . S
C293 C287 1.428 . S
C293 N292 1.351 . S
C293 C294 1.434 . S
C294 C285 1.429 . S
C294 N291 1.350 . S
C294 C293 1.434 . S
C295 C296 1.369 . S
C295 C297 1.419 . S
C295 H299 0.930 . S
C296 C295 1.369 . S
C296 C305 1.429 . S
C297 C295 1.419 . S
C297 C298 1.363 . S
C297 H300 0.929 . S
C298 C297 1.363 . S
C298 C304 1.428 . S
H299 C295 0.930 . S
H300 C297 0.929 . S
S301 N302 1.613 1_565 S
S301 N303 1.610 1_565 S
N302 S301 1.613 1_545 S
N302 C305 1.350 . S
N303 S301 1.610 1_545 S
N303 C304 1.351 . S
C304 C298 1.428 . S
C304 N303 1.351 . S
C304 C305 1.434 . S
C305 C296 1.429 . S
C305 N302 1.350 . S
C305 C304 1.434 . S
C306 C307 1.369 . S
C306 C308 1.419 . S
C306 H310 0.930 . S
C307 C306 1.369 . S
C307 C316 1.429 1_455 S
C308 C306 1.419 . S
C308 C309 1.363 1_554 S
C308 H311 0.929 . S
C309 C308 1.363 1_556 S
C309 C315 1.428 1_455 S
H310 C306 0.930 . S
H311 C308 0.929 . S
S312 N313 1.613 1_556 S
S312 N314 1.610 . S
N313 S312 1.613 1_554 S
N313 C316 1.350 . S
N314 S312 1.610 . S
N314 C315 1.351 . S
C315 C309 1.428 1_655 S
C315 N314 1.351 . S
C315 C316 1.434 1_556 S
C316 C307 1.429 1_655 S
C316 N313 1.350 . S
C316 C315 1.434 1_554 S
C317 C318 1.369 1_565 S
C317 C319 1.419 . S
C317 H321 0.930 . S
C318 C317 1.369 1_545 S
C318 C327 1.429 . S
C319 C317 1.419 . S
C319 C320 1.363 1_565 S
C319 H322 0.929 . S
C320 C319 1.363 1_545 S
C320 C326 1.428 . S
H321 C317 0.930 . S
H322 C319 0.929 . S
S323 N324 1.613 . S
S323 N325 1.610 . S
N324 S323 1.613 . S
N324 C327 1.350 . S
N325 S323 1.610 . S
N325 C326 1.351 . S
C326 C320 1.428 . S
C326 N325 1.351 . S
C326 C327 1.434 . S
C327 C318 1.429 . S
C327 N324 1.350 . S
C327 C326 1.434 . S
C328 C329 1.369 . S
C328 C330 1.419 . S
C328 H332 0.930 . S
C329 C328 1.369 . S
C329 C338 1.429 . S
C330 C328 1.419 . S
C330 C331 1.363 . S
C330 H333 0.929 . S
C331 C330 1.363 . S
C331 C337 1.428 . S
H332 C328 0.930 . S
H333 C330 0.929 . S
S334 N335 1.613 . S
S334 N336 1.610 . S
N335 S334 1.613 . S
N335 C338 1.350 . S
N336 S334 1.610 . S
N336 C337 1.351 . S
C337 C331 1.428 . S
C337 N336 1.351 . S
C337 C338 1.434 . S
C338 C329 1.429 . S
C338 N335 1.350 . S
C338 C337 1.434 . S
C339 C340 1.369 . S
C339 C341 1.419 . S
C339 H343 0.930 . S
C340 C339 1.369 . S
C340 C349 1.429 1_545 S
C341 C339 1.419 . S
C341 C342 1.363 . S
C341 H344 0.929 . S
C342 C341 1.363 . S
C342 C348 1.428 1_545 S
H343 C339 0.930 . S
H344 C341 0.929 . S
S345 N346 1.613 . S
S345 N347 1.610 . S
N346 S345 1.613 . S
N346 C349 1.350 . S
N347 S345 1.610 . S
N347 C348 1.351 . S
C348 C342 1.428 1_565 S
C348 N347 1.351 . S
C348 C349 1.434 . S
C349 C340 1.429 1_565 S
C349 N346 1.350 . S
C349 C348 1.434 . S
C350 C351 1.369 . S
C350 C352 1.419 . S
C350 H354 0.930 . S
C351 C350 1.369 . S
C351 C360 1.429 . S
C352 C350 1.419 . S
C352 C353 1.363 1_556 S
C352 H355 0.929 . S
C353 C352 1.363 1_554 S
C353 C359 1.428 1_554 S
H354 C350 0.930 . S
H355 C352 0.929 . S
S356 N357 1.613 . S
S356 N358 1.610 1_556 S
N357 S356 1.613 . S
N357 C360 1.350 . S
N358 S356 1.610 1_554 S
N358 C359 1.351 1_554 S
C359 C353 1.428 1_556 S
C359 N358 1.351 1_556 S
C359 C360 1.434 . S
C360 C351 1.429 . S
C360 N357 1.350 . S
C360 C359 1.434 . S
C361 C362 1.369 . S
C361 C363 1.419 . S
C361 H365 0.930 . S
C362 C361 1.369 . S
C362 C371 1.429 1_655 S
C363 C361 1.419 . S
C363 C364 1.363 1_655 S
C363 H366 0.929 . S
C364 C363 1.363 1_455 S
C364 C370 1.428 . S
H365 C361 0.930 . S
H366 C363 0.929 . S
S367 N368 1.613 . S
S367 N369 1.610 . S
N368 S367 1.613 . S
N368 C371 1.350 . S
N369 S367 1.610 . S
N369 C370 1.351 . S
C370 C364 1.428 . S
C370 N369 1.351 . S
C370 C371 1.434 . S
C371 C362 1.429 1_455 S
C371 N368 1.350 . S
C371 C370 1.434 . S
C175 C12 2.936 . S
C177 C169 2.919 . S
C186 C52 2.953 . S
C188 C151 2.945 . S
C197 C111 2.968 . S
C199 C163 2.940 . S
C208 C31 3.039 . S
C210 C172 2.998 . S
C221 C154 2.976 . S
C219 C71 3.022 . S
C232 C160 2.971 . S
C230 C92 3.001 . S
C241 C48 0.945 . S
C243 C133 1.051 . S
C252 C109 0.990 . S
C254 C142 1.189 . S
C263 C29 0.945 . S
C265 C124 1.125 . S
C276 C136 1.084 . S
C274 C69 0.930 . S
C287 C145 0.952 . S
C285 C88 0.912 . S
C296 C8 0.916 . S
C298 C127 0.962 . S
C309 C143 0.919 . S
C307 C17 0.922 1_455 S
C318 C57 0.907 1_545 S
C320 C125 0.906 . S
C329 C97 0.922 . S
C331 C134 0.919 . S
C342 C161 1.837 . S
C340 C42 1.758 . S
C353 C170 1.829 . S
C351 C82 1.761 . S
C362 C2 1.767 1_655 S
C364 C152 1.835 . S
