# Generated by pormake.
# Topology anh, (6,3)-cn, num edge types: 1
# Building blocks:
#     Node 0, Type 0, BuildingBlock: PAMTUU_clean_sbu_0, # of connection points: 6
#     Node 1, Type 0, BuildingBlock: PAMTUU_clean_sbu_0, # of connection points: 6
#     Node 2, Type 0, BuildingBlock: PAMTUU_clean_sbu_0, # of connection points: 6
#     Node 3, Type 1, BuildingBlock: BETDIP_clean_linker_0, # of connection points: 3
#     Node 4, Type 1, BuildingBlock: BETDIP_clean_linker_0, # of connection points: 3
#     Node 5, Type 1, BuildingBlock: BETDIP_clean_linker_0, # of connection points: 3
#     Node 6, Type 1, BuildingBlock: BETDIP_clean_linker_0, # of connection points: 3
#     Node 7, Type 1, BuildingBlock: BETDIP_clean_linker_0, # of connection points: 3
#     Node 8, Type 1, BuildingBlock: BETDIP_clean_linker_0, # of connection points: 3
#     Edge 9, Type (0, 1), BuildingBlock: OJICUG_clean_linker_0, # of connection points: 2
#     Edge 10, Type (0, 1), BuildingBlock: OJICUG_clean_linker_0, # of connection points: 2
#     Edge 11, Type (0, 1), BuildingBlock: OJICUG_clean_linker_0, # of connection points: 2
#     Edge 12, Type (0, 1), BuildingBlock: OJICUG_clean_linker_0, # of connection points: 2
#     Edge 13, Type (0, 1), BuildingBlock: OJICUG_clean_linker_0, # of connection points: 2
#     Edge 14, Type (0, 1), BuildingBlock: OJICUG_clean_linker_0, # of connection points: 2
#     Edge 15, Type (0, 1), BuildingBlock: OJICUG_clean_linker_0, # of connection points: 2
#     Edge 16, Type (0, 1), BuildingBlock: OJICUG_clean_linker_0, # of connection points: 2
#     Edge 17, Type (0, 1), BuildingBlock: OJICUG_clean_linker_0, # of connection points: 2
#     Edge 18, Type (0, 1), BuildingBlock: OJICUG_clean_linker_0, # of connection points: 2
#     Edge 19, Type (0, 1), BuildingBlock: OJICUG_clean_linker_0, # of connection points: 2
#     Edge 20, Type (0, 1), BuildingBlock: OJICUG_clean_linker_0, # of connection points: 2
#     Edge 21, Type (0, 1), BuildingBlock: OJICUG_clean_linker_0, # of connection points: 2
#     Edge 22, Type (0, 1), BuildingBlock: OJICUG_clean_linker_0, # of connection points: 2
#     Edge 23, Type (0, 1), BuildingBlock: OJICUG_clean_linker_0, # of connection points: 2
#     Edge 24, Type (0, 1), BuildingBlock: OJICUG_clean_linker_0, # of connection points: 2
#     Edge 25, Type (0, 1), BuildingBlock: OJICUG_clean_linker_0, # of connection points: 2
#     Edge 26, Type (0, 1), BuildingBlock: OJICUG_clean_linker_0, # of connection points: 2
# Relax obj value: 0.389
# Max RMSD: 0.177
# Mean RMSD: 0.129
data_MOF--net-anh--node1-PAMTUU_clean_sbu_0--node2-BETDIP_clean_linker_0--edge1-OJICUG_clean_linker_0
_symmetry_space_group_name_H-M    P1
_symmetry_Int_Tables_number       1
_symmetry_cell_setting            triclinic
loop_
_symmetry_equiv_pos_as_xyz
'x, y, z'
_cell_length_a     21.319676
_cell_length_b     21.284983
_cell_length_c     36.925992
_cell_angle_alpha  94.112583
_cell_angle_beta   95.00929
_cell_angle_gamma 120.1939
loop_
_atom_site_label
_atom_site_type_symbol
_atom_site_fract_x
_atom_site_fract_y
_atom_site_fract_z
_atom_type_partial_charge
Tb0 Tb 0.2425 0.85093 0.15769 0.0
Tb1 Tb 0.31379 0.75392 0.18472 0.0
C2 C 0.28717 0.76625 0.10294 0.0
C3 C 1.08543 0.84943 0.12243 0.0
C4 C 0.96613 0.70466 0.11393 0.0
C5 C 1.00196 0.73384 0.0838 0.0
C6 C 1.06099 0.80592 0.08794 0.0
C7 C 1.04003 0.82494 0.14997 0.0
C8 C 0.98161 0.75268 0.146 0.0
C9 C 1.1653 0.90035 0.13366 0.0
O10 O 1.15308 0.75188 0.1738 0.0
O11 O 1.19791 0.67525 0.16563 0.0
O12 O 0.2649 0.77474 0.22974 0.0
O13 O 0.27637 0.88281 0.21624 0.0
O14 O 0.30848 0.65298 0.18182 0.0
O15 O 0.38901 0.74433 0.22132 0.0
O16 O 0.40538 0.86724 0.19121 0.0
O17 O 0.35905 0.92724 0.15841 0.0
O18 O 0.23424 0.77643 0.11159 0.0
O19 O 0.33441 0.76697 0.1284 0.0
C20 C 1.14352 0.68571 0.17063 0.0
O21 O 1.188 0.90809 0.16853 0.0
O22 O 1.20786 0.88976 0.11387 0.0
C23 C 0.26374 0.83473 0.23907 0.0
C24 C 0.41995 0.6601 0.1965 0.0
C25 C 0.5053 0.60833 0.16757 0.0
C26 C 0.46573 0.57657 0.19623 0.0
C27 C 0.42321 0.60234 0.21057 0.0
C28 C 0.46188 0.69424 0.16909 0.0
C29 C 0.50449 0.66862 0.15476 0.0
C30 C 0.36522 0.67719 0.20684 0.0
C31 C 0.41413 0.92526 0.17632 0.0
H32 H 0.98871 0.69919 0.058 0.0
H33 H 1.09317 0.82383 0.06565 0.0
H34 H 1.05581 0.85772 0.17659 0.0
H35 H 0.95423 0.73284 0.1696 0.0
H36 H 0.46615 0.53064 0.20686 0.0
H37 H 0.39054 0.57521 0.23158 0.0
H38 H 0.45896 0.73836 0.15765 0.0
H39 H 0.53378 0.69362 0.1324 0.0
Tb40 Tb 0.71507 0.2035 0.49158 0.0
Tb41 Tb 0.8911 0.29121 0.51441 0.0
C42 C 0.81666 0.25536 0.43237 0.0
C43 C 0.51401 1.10087 0.49862 0.0
C44 C 0.37733 1.00642 0.5201 0.0
C45 C 0.39136 1.07184 0.50651 0.0
C46 C 0.45889 1.11825 0.49576 0.0
C47 C 0.50417 1.0412 0.51655 0.0
C48 C 0.43628 0.99453 0.52754 0.0
C49 C 0.57749 1.14224 0.47968 0.0
O50 O 0.73877 1.11829 0.50648 0.0
O51 O 0.86214 0.17722 0.50148 0.0
O52 O 0.84705 0.23276 0.56083 0.0
O53 O 0.74482 0.23945 0.5498 0.0
O54 O 0.99524 0.31944 0.50101 0.0
O55 O 0.98429 0.37211 0.55016 0.0
O56 O 0.85192 0.36501 0.52898 0.0
O57 O 0.75448 0.31829 0.48396 0.0
O58 O 0.75721 0.20057 0.44098 0.0
O59 O 0.86737 0.30651 0.45772 0.0
C60 C 0.8001 1.11742 0.50494 0.0
O61 O 0.62085 0.21087 0.49289 0.0
O62 O 0.61338 1.1107 0.46986 0.0
C63 C 0.78468 0.22155 0.57037 0.0
C64 C 1.05547 0.44895 0.50909 0.0
C65 C 1.0343 0.55277 0.47518 0.0
C66 C 1.05376 0.56266 0.51347 0.0
C67 C 1.06435 0.51122 0.53029 0.0
C68 C 1.04936 0.44672 0.47067 0.0
C69 C 1.03763 0.49731 0.45389 0.0
C70 C 1.02573 0.37886 0.52486 0.0
C71 C 0.80361 0.37295 0.5085 0.0
H72 H 0.34819 1.08374 0.50021 0.0
H73 H 0.46611 0.16494 0.48261 0.0
H74 H 0.5471 1.02809 0.52003 0.0
H75 H 0.42817 0.94587 0.53888 0.0
H76 H 1.05504 0.60676 0.53071 0.0
H77 H 1.07058 0.51556 0.55996 0.0
H78 H 1.0439 0.40053 0.45328 0.0
H79 H 1.02384 0.48795 0.42433 0.0
Tb80 Tb 0.76645 0.57148 0.82956 0.0
Tb81 Tb 0.84577 0.74656 0.85344 0.0
C82 C 0.78651 0.67521 0.77069 0.0
C83 C 0.70618 0.37161 0.82553 0.0
C84 C 0.69331 0.23445 0.83056 0.0
C85 C 0.74711 0.28617 0.81178 0.0
C86 C 0.75331 0.35404 0.80919 0.0
C87 C 0.65837 0.32362 0.84776 0.0
C88 C 0.65236 0.25578 0.85049 0.0
C89 C 0.6989 0.43384 0.81589 0.0
O90 O 0.88225 0.6134 0.82366 0.0
O91 O 0.93585 0.72562 0.85982 0.0
O92 O 0.82251 0.6943 0.90374 0.0
O93 O 0.82804 0.59424 0.88279 0.0
O94 O 0.92884 0.85499 0.85035 0.0
O95 O 0.84353 0.83317 0.88337 0.0
O96 O 0.7296 0.70662 0.83707 0.0
O97 O 0.68956 0.5944 0.85457 0.0
O98 O 0.74156 0.61276 0.78176 0.0
O99 O 0.83973 0.72973 0.79379 0.0
C100 C 0.94079 0.67296 0.84168 0.0
O101 O 0.68772 0.46943 0.84225 0.0
O102 O 0.74345 0.47754 0.79494 0.0
C103 C 0.82552 0.63552 0.90977 0.0
C104 C 0.8602 0.91284 0.83976 0.0
C105 C 0.74632 0.8938 0.78694 0.0
C106 C 0.74898 0.91636 0.82416 0.0
C107 C 0.80541 0.92553 0.85041 0.0
C108 C 0.86497 0.90483 0.80211 0.0
C109 C 0.80798 0.89398 0.77602 0.0
C110 C 0.89087 0.88045 0.86474 0.0
C111 C 0.6781 0.64789 0.84832 0.0
H112 H 0.77939 0.27174 0.79583 0.0
H113 H 0.79126 0.39021 0.79218 0.0
H114 H 0.62186 0.33625 0.86097 0.0
H115 H 0.61118 0.21759 0.86556 0.0
H116 H 0.70457 0.92104 0.83348 0.0
H117 H 0.80106 0.9334 0.8792 0.0
H118 H 0.90745 0.89679 0.79268 0.0
H119 H 0.80945 0.87827 0.74774 0.0
H120 H 0.72425 0.24471 0.17124 0.0
H121 H 0.87363 0.36558 0.27058 0.0
H122 H 0.68205 0.1551 0.27303 0.0
H123 H 0.86155 0.46108 0.23645 0.0
C124 C 0.88264 0.44599 0.21372 0.0
C125 C 0.73955 0.24915 0.20048 0.0
C126 C 0.69602 0.19138 0.22002 0.0
C127 C 0.80302 0.31295 0.21882 0.0
C128 C 0.82348 0.31788 0.25676 0.0
C129 C 0.78122 0.2603 0.27648 0.0
C130 C 0.71707 0.19835 0.25784 0.0
N131 N 0.84766 0.3706 0.19878 0.0
H132 H 0.77975 0.67709 0.5085 0.0
H133 H 0.77319 0.78733 0.60974 0.0
H134 H 0.7785 0.58847 0.60984 0.0
H135 H 0.86189 0.88776 0.57487 0.0
C136 C 0.81796 0.87083 0.5523 0.0
C137 C 0.77756 0.67953 0.53774 0.0
C138 C 0.7805 0.62579 0.55703 0.0
C139 C 0.77631 0.73909 0.55673 0.0
C140 C 0.77531 0.74269 0.59501 0.0
C141 C 0.77439 0.68752 0.61412 0.0
C142 C 0.77728 0.63 0.5949 0.0
N143 N 0.77619 0.79501 0.53736 0.0
H144 H 0.25903 0.66574 0.83991 0.0
H145 H 0.37985 0.69968 0.94664 0.0
H146 H 1.17866 0.70217 0.93707 0.0
H147 H 0.39357 0.60493 0.91263 0.0
C148 C 0.41568 0.63693 0.89044 0.0
C149 C 0.26459 0.67528 0.86953 0.0
C150 C 1.21213 0.68449 0.88622 0.0
C151 C 0.32449 0.67854 0.89129 0.0
C152 C 0.33229 0.69345 0.92989 0.0
C153 C 0.28087 0.70391 0.94675 0.0
C154 C 0.22034 0.69715 0.92453 0.0
N155 N 0.37801 0.66995 0.87418 0.0
H156 H 1.02272 0.80746 0.45149 0.0
H157 H 1.01428 0.78788 0.33397 0.0
H158 H 0.2182 0.86557 0.40362 0.0
H159 H 0.83705 0.68038 0.41198 0.0
C160 C 0.89179 0.69428 0.40716 0.0
C161 C 1.05017 0.81419 0.42746 0.0
C162 C 1.12485 0.83797 0.43167 0.0
C163 C 1.00972 0.79407 0.39212 0.0
C164 C 1.04578 0.80445 0.36113 0.0
C165 C 1.12108 0.82933 0.36524 0.0
C166 C 1.15988 0.84574 0.40047 0.0
N167 N 0.93192 0.75428 0.38751 0.0
H168 H 0.50891 0.89869 0.73774 0.0
H169 H 0.55373 0.9228 0.62663 0.0
H170 H 0.698 1.09313 0.71438 0.0
H171 H 0.42833 0.71711 0.68582 0.0
C172 C 0.47744 0.77046 0.68694 0.0
C173 C 0.54338 0.93034 0.71828 0.0
C174 C 0.6069 0.99816 0.73072 0.0
C175 C 0.52604 0.90146 0.6809 0.0
C176 C 0.56816 0.94424 0.65555 0.0
C177 C 0.63091 1.01318 0.66777 0.0
C178 C 0.65097 1.0387 0.70528 0.0
N179 N 0.47315 0.82617 0.66961 0.0
H180 H 0.62693 0.39929 0.11957 0.0
H181 H 0.7629 0.42498 0.03646 0.0
H182 H 0.66818 0.56138 0.04737 0.0
H183 H 0.81287 0.35521 0.1149 0.0
C184 C 0.79122 0.3911 0.11091 0.0
C185 C 0.64919 0.42406 0.0956 0.0
C186 C 0.64286 0.4831 0.08551 0.0
C187 C 0.69297 0.40366 0.07807 0.0
C188 C 0.72663 0.43931 0.0487 0.0
C189 C 0.71868 0.49694 0.03739 0.0
C190 C 0.67578 0.51767 0.05582 0.0
N191 N 0.7166 0.36011 0.09524 0.0
C192 C 0.50794 0.49916 0.1397 0.0
C193 C 0.54298 0.57563 0.14915 0.0
H194 H 0.51196 0.40974 0.11168 0.0
C195 C 0.61216 0.6208 0.13887 0.0
H196 H 0.45413 0.46309 0.14691 0.0
C197 C 0.64476 0.59034 0.11861 0.0
C198 C 0.6087 0.51414 0.10813 0.0
H199 H 0.64086 0.67977 0.1463 0.0
H200 H 0.69826 0.62648 0.11106 0.0
C201 C 0.54068 0.46862 0.11942 0.0
C202 C 0.95419 0.608 0.4766 0.0
C203 C 1.00077 0.59235 0.45802 0.0
H204 H 0.88182 0.65065 0.47467 0.0
C205 C 1.00871 0.60818 0.42179 0.0
H206 H 0.94583 0.59583 0.50423 0.0
C207 C 0.9708 0.63823 0.40469 0.0
C208 C 0.92541 0.65472 0.42366 0.0
H209 H 1.04423 0.59749 0.40654 0.0
H210 H 0.97769 0.64939 0.3767 0.0
C211 C 0.91649 0.63832 0.45952 0.0
C212 C 0.60829 0.82058 0.77324 0.0
C213 C 0.67679 0.86052 0.76077 0.0
H214 H 0.49125 0.75717 0.75913 0.0
C215 C 0.678 0.86262 0.72281 0.0
H216 H 0.60435 0.8174 0.80206 0.0
C217 C 0.61291 0.82663 0.69828 0.0
C218 C 0.54505 0.78905 0.71113 0.0
H219 H 0.72893 0.89362 0.7119 0.0
H220 H 0.61526 0.83174 0.66937 0.0
C221 C 0.54318 0.78447 0.74862 0.0
C222 C 0.94309 0.57769 0.09703 0.0
C223 C 0.92138 0.62396 0.11383 0.0
H224 H 0.91938 0.46732 0.08377 0.0
C225 C 0.86075 0.59301 0.13297 0.0
H226 H 0.99121 0.59984 0.08326 0.0
C227 C 0.82192 0.51766 0.13449 0.0
C228 C 0.84155 0.47151 0.11606 0.0
H229 H 0.84264 0.62671 0.14644 0.0
H230 H 0.77494 0.49501 0.1491 0.0
C231 C 0.90337 0.5021 0.09808 0.0
C232 C 0.2836 0.87606 0.49796 0.0
C233 C 0.30001 0.94447 0.51571 0.0
H234 H 1.21119 0.78605 0.45675 0.0
C235 C 0.24252 0.95908 0.51649 0.0
H236 H 0.32508 0.86103 0.49744 0.0
C237 C 1.17753 0.91661 0.49208 0.0
C238 C 1.16908 0.85794 0.46811 0.0
H239 H 0.25199 1.0094 0.5315 0.0
H240 H 1.13912 0.93563 0.48855 0.0
C241 C 0.21821 0.83296 0.47421 0.0
C242 C 0.5925 1.10681 0.80851 0.0
C243 C 0.66767 0.15563 0.82074 0.0
H244 H 0.51351 1.01548 0.76965 0.0
C245 C 0.71783 1.13397 0.81271 0.0
H246 H 0.55196 1.12098 0.81448 0.0
C247 C 0.69542 1.0731 0.78669 0.0
C248 C 0.62272 1.0335 0.76888 0.0
H249 H 0.77577 0.16925 0.82271 0.0
H250 H 0.73654 1.06294 0.77711 0.0
C251 C 0.57013 1.04591 0.78262 0.0
C252 C 0.87082 1.0592 0.52741 0.0
C253 C 0.80332 1.05104 0.51313 0.0
H254 H 0.92735 1.00919 0.55112 0.0
C255 C 0.74 0.98058 0.50948 0.0
H256 H 0.92074 1.11237 0.53109 0.0
C257 C 0.74438 0.92033 0.52022 0.0
C258 C 0.81181 0.9299 0.53578 0.0
H259 H 0.68704 0.97224 0.4988 0.0
H260 H 0.69472 0.86719 0.51784 0.0
C261 C 0.87473 0.99992 0.53901 0.0
C262 C 1.01972 0.61525 0.83834 0.0
C263 C 1.0136 0.6778 0.84558 0.0
H264 H 1.08852 0.5684 0.84504 0.0
C265 C 1.07739 0.74456 0.86029 0.0
H266 H 0.97182 0.56286 0.82709 0.0
C267 C 1.14392 0.74767 0.87005 0.0
C268 C 1.14887 0.68426 0.86536 0.0
H269 H 1.0753 0.79406 0.86596 0.0
H270 H 1.19068 0.79897 0.88354 0.0
C271 C 1.0867 0.61841 0.8483 0.0
C272 C 0.54884 0.9903 0.19991 0.0
C273 C 0.48887 0.99247 0.18228 0.0
H274 H 0.66125 1.05096 0.22468 0.0
C275 C 0.50073 1.06026 0.17273 0.0
H276 H 0.54256 0.93931 0.20731 0.0
C277 C 0.56966 1.12477 0.18263 0.0
C278 C 0.62797 1.12277 0.20233 0.0
H279 H 0.45606 1.06414 0.15897 0.0
H280 H 0.57612 0.17666 0.17672 0.0
C281 C 0.61722 1.0544 0.20978 0.0
C282 C 0.74813 0.45344 0.49817 0.0
C283 C 0.80132 0.44168 0.51671 0.0
H284 H 0.70014 0.52178 0.49583 0.0
C285 C 0.85142 0.49528 0.54559 0.0
H286 H 0.70875 0.41353 0.47575 0.0
C287 C 0.8466 0.55659 0.55681 0.0
C288 C 0.79153 0.56688 0.53968 0.0
H289 H 0.8939 0.48933 0.56037 0.0
H290 H 0.88512 0.59533 0.57985 0.0
C291 C 0.74344 0.51566 0.50948 0.0
C292 C 0.59027 0.69549 0.84668 0.0
C293 C 0.60886 0.64372 0.85683 0.0
H294 H 0.51396 0.73373 0.84834 0.0
C295 C 0.56174 0.5889 0.87665 0.0
H296 H 0.6259 0.73862 0.83178 0.0
C297 C 0.49899 0.58691 0.88676 0.0
C298 C 0.48039 0.63862 0.87678 0.0
H299 H 0.57416 0.54827 0.88522 0.0
H300 H 0.46502 0.54486 0.90278 0.0
C301 C 0.52625 0.69259 0.85616 0.0
C302 C 1.02655 0.6364 0.19782 0.0
C303 C 1.07283 0.62305 0.17785 0.0
H304 H 0.93098 0.5908 0.22483 0.0
C305 C 1.05358 0.54978 0.16776 0.0
H306 H 1.03984 0.69196 0.20641 0.0
C307 C 0.99025 0.49144 0.17803 0.0
C308 C 0.94577 0.50543 0.19915 0.0
H309 H 1.08802 0.53755 0.15238 0.0
H310 H 0.97743 0.43574 0.1704 0.0
C311 C 0.96431 0.57841 0.2086 0.0
C312 C 0.31824 0.70876 0.05052 0.0
C313 C 0.29183 0.75349 0.0636 0.0
H314 H 0.33409 0.65629 0.00317 0.0
C315 C 0.26759 0.78576 0.03847 0.0
H316 H 0.33755 0.68344 0.06941 0.0
C317 C 0.26764 0.77222 0.00101 0.0
C318 C 0.28975 0.72404 0.98731 0.0
H319 H 0.24847 0.82181 0.04778 0.0
H320 H 0.24931 0.79915 0.98271 0.0
C321 C 0.31661 0.6936 0.01262 0.0
C322 C 0.84198 0.32765 0.37911 0.0
C323 C 0.82148 0.2613 0.39305 0.0
H324 H 0.84373 0.37947 0.33111 0.0
C325 C 0.79644 0.19737 0.36858 0.0
H326 H 0.8612 0.37767 0.39757 0.0
C327 C 0.78821 0.19855 0.33083 0.0
C328 C 0.8025 0.2633 0.3165 0.0
H329 H 0.78119 1.14572 0.37871 0.0
H330 H 0.76814 0.14779 0.31287 0.0
C331 C 0.83199 0.32857 0.34107 0.0
C332 C 0.72554 0.62174 0.70588 0.0
C333 C 0.77882 0.68224 0.73093 0.0
H334 H 0.68199 0.57657 0.64961 0.0
C335 C 0.82636 0.74747 0.71723 0.0
H336 H 0.68753 0.57075 0.71527 0.0
C337 C 0.82255 0.7509 0.6793 0.0
C338 C 0.77171 0.68892 0.65434 0.0
H339 H 0.86793 0.79521 0.73569 0.0
H340 H 0.86157 0.80082 0.66943 0.0
C341 C 0.72225 0.62498 0.66815 0.0
C342 C 0.78616 0.15018 0.62161 0.0
C343 C 0.74791 0.17026 0.5967 0.0
H344 H 0.7784 1.08369 0.66412 0.0
C345 C 0.67107 1.13548 0.59439 0.0
H346 H 0.84511 0.17532 0.6236 0.0
C347 C 0.63323 1.08191 0.61631 0.0
C348 C 0.67131 1.06285 0.64165 0.0
H349 H 0.6394 0.14862 0.57515 0.0
H350 H 0.57422 1.05685 0.61419 0.0
C351 C 0.74809 1.09744 0.64437 0.0
C352 C 0.79029 0.53185 0.94629 0.0
C353 C 0.81047 0.60554 0.94497 0.0
H354 H 0.7434 0.43956 0.97545 0.0
C355 C 0.80729 0.64565 0.97585 0.0
H356 H 0.79181 0.4989 0.92301 0.0
C357 C 0.781 0.61153 0.00671 0.0
C358 C 0.75567 0.5362 0.00687 0.0
H359 H 0.82305 0.7026 0.97579 0.0
H360 H 0.77899 0.6439 0.03008 0.0
C361 C 0.7626 0.49751 0.97662 0.0
C362 C 0.23644 0.80119 0.30138 0.0
C363 C 0.23368 0.8402 0.27283 0.0
H364 H 1.20249 0.76707 0.35287 0.0
C365 C 1.19413 0.87666 0.27497 0.0
H366 H 0.26587 0.77201 0.30028 0.0
C367 C 1.15656 0.87258 0.30478 0.0
C368 C 1.15914 0.83313 0.33315 0.0
H369 H 1.18995 0.90603 0.253 0.0
H370 H 1.12574 0.90033 0.30576 0.0
C371 C 1.19998 0.79812 0.33136 0.0
loop_
_geom_bond_atom_site_label_1
_geom_bond_atom_site_label_2
_geom_bond_distance
_geom_bond_site_symmetry_2
_ccdc_geom_bond_type
Tb0 C9 2.764 1_455 S
Tb0 O10 2.325 1_455 S
Tb0 O13 2.303 . S
Tb0 O17 2.322 . S
Tb0 O18 2.349 . S
Tb0 O21 2.415 1_455 S
Tb0 O22 2.399 1_455 S
Tb1 O11 2.322 . S
Tb1 O12 2.349 . S
Tb1 O14 2.415 . S
Tb1 O15 2.399 . S
Tb1 O16 2.325 . S
Tb1 O19 2.303 . S
Tb1 C30 2.764 . S
C2 O18 1.261 . S
C2 O19 1.257 . S
C3 C6 1.358 . S
C3 C7 1.332 . S
C3 C9 1.504 . S
C4 C5 1.373 . S
C4 C8 1.308 . S
C5 C4 1.373 . S
C5 C6 1.429 . S
C5 H32 0.932 . S
C6 C3 1.358 . S
C6 C5 1.429 . S
C6 H33 0.930 . S
C7 C3 1.332 . S
C7 C8 1.394 . S
C7 H34 0.932 . S
C8 C4 1.308 . S
C8 C7 1.394 . S
C8 H35 0.929 . S
C9 Tb0 2.764 1_655 S
C9 C3 1.504 . S
C9 O21 1.239 . S
C9 O22 1.263 . S
O10 Tb0 2.325 1_655 S
O10 C20 1.236 . S
O11 Tb1 2.322 . S
O11 C20 1.257 1_455 S
O12 Tb1 2.349 . S
O12 C23 1.261 . S
O13 Tb0 2.303 . S
O13 C23 1.257 . S
O14 Tb1 2.415 . S
O14 C30 1.239 . S
O15 Tb1 2.399 . S
O15 C30 1.263 . S
O16 Tb1 2.325 . S
O16 C31 1.236 . S
O17 Tb0 2.322 . S
O17 C31 1.257 . S
O18 Tb0 2.349 . S
O18 C2 1.261 . S
O19 Tb1 2.303 . S
O19 C2 1.257 . S
C20 O10 1.236 . S
C20 O11 1.257 1_655 S
O21 Tb0 2.415 1_655 S
O21 C9 1.239 . S
O22 Tb0 2.399 1_655 S
O22 C9 1.263 . S
C23 O12 1.261 . S
C23 O13 1.257 . S
C24 C27 1.358 . S
C24 C28 1.332 . S
C24 C30 1.504 . S
C25 C26 1.373 . S
C25 C29 1.308 . S
C26 C25 1.373 . S
C26 C27 1.429 . S
C26 H36 0.932 . S
C27 C24 1.358 . S
C27 C26 1.429 . S
C27 H37 0.930 . S
C28 C24 1.332 . S
C28 C29 1.394 . S
C28 H38 0.932 . S
C29 C25 1.308 . S
C29 C28 1.394 . S
C29 H39 0.929 . S
C30 Tb1 2.764 . S
C30 O14 1.239 . S
C30 O15 1.263 . S
C30 C24 1.504 . S
C31 O16 1.236 . S
C31 O17 1.257 . S
H32 C5 0.932 . S
H33 C6 0.930 . S
H34 C7 0.932 . S
H35 C8 0.929 . S
H36 C26 0.932 . S
H37 C27 0.930 . S
H38 C28 0.932 . S
H39 C29 0.929 . S
Tb40 C49 2.764 1_545 S
Tb40 O50 2.325 1_545 S
Tb40 O53 2.303 . S
Tb40 O57 2.322 . S
Tb40 O58 2.349 . S
Tb40 O61 2.415 1_545 S
Tb40 O62 2.399 1_545 S
Tb41 O51 2.303 1_545 S
Tb41 O52 2.349 . S
Tb41 O54 2.415 . S
Tb41 O55 2.399 . S
Tb41 O56 2.325 . S
Tb41 O59 2.303 . S
Tb41 C70 2.764 . S
C42 O58 1.261 . S
C42 O59 1.257 . S
C43 C46 1.358 . S
C43 C47 1.332 . S
C43 C49 1.504 . S
C44 C45 1.373 . S
C44 C48 1.308 . S
C45 C44 1.373 . S
C45 C46 1.429 . S
C45 H72 0.932 . S
C46 C43 1.358 . S
C46 C45 1.429 . S
C46 H73 0.930 . S
C47 C43 1.332 . S
C47 C48 1.394 . S
C47 H74 0.932 . S
C48 C44 1.308 . S
C48 C47 1.394 . S
C48 H75 0.929 . S
C49 Tb40 2.764 1_565 S
C49 C43 1.504 . S
C49 O61 1.239 . S
C49 O62 1.263 . S
O50 Tb40 2.325 1_565 S
O50 C60 1.236 . S
O51 Tb41 2.303 1_565 S
O51 C60 1.267 . S
O52 Tb41 2.349 . S
O52 C63 1.261 . S
O53 Tb40 2.303 . S
O53 C63 1.257 . S
O54 Tb41 2.415 . S
O54 C70 1.239 . S
O55 Tb41 2.399 . S
O55 C70 1.263 . S
O56 Tb41 2.325 . S
O56 C71 1.236 . S
O57 Tb40 2.322 . S
O57 C71 1.257 . S
O58 Tb40 2.349 . S
O58 C42 1.261 . S
O59 Tb41 2.303 . S
O59 C42 1.257 . S
C60 O50 1.236 . S
C60 O51 1.267 . S
O61 Tb40 2.415 1_565 S
O61 C49 1.239 . S
O62 Tb40 2.399 1_565 S
O62 C49 1.263 . S
C63 O52 1.261 . S
C63 O53 1.257 . S
C64 C67 1.358 . S
C64 C68 1.332 . S
C64 C70 1.504 . S
C65 C66 1.373 . S
C65 C69 1.308 . S
C66 C65 1.373 . S
C66 C67 1.429 . S
C66 H76 0.932 . S
C67 C64 1.358 . S
C67 C66 1.429 . S
C67 H77 0.930 . S
C68 C64 1.332 . S
C68 C69 1.394 . S
C68 H78 0.932 . S
C69 C65 1.308 . S
C69 C68 1.394 . S
C69 H79 0.929 . S
C70 Tb41 2.764 . S
C70 O54 1.239 . S
C70 O55 1.263 . S
C70 C64 1.504 . S
C71 O56 1.236 . S
C71 O57 1.257 . S
H72 C45 0.932 . S
H73 C46 0.930 . S
H74 C47 0.932 . S
H75 C48 0.929 . S
H76 C66 0.932 . S
H77 C67 0.930 . S
H78 C68 0.932 . S
H79 C69 0.929 . S
Tb80 C89 2.764 . S
Tb80 O90 2.325 . S
Tb80 O93 2.303 . S
Tb80 O97 2.322 . S
Tb80 O98 2.349 . S
Tb80 O101 2.415 . S
Tb80 O102 2.399 . S
Tb81 O91 2.322 . S
Tb81 O92 2.349 . S
Tb81 O94 2.415 . S
Tb81 O95 2.399 . S
Tb81 O96 2.325 . S
Tb81 O99 2.303 . S
Tb81 C110 2.764 . S
C82 O98 1.261 . S
C82 O99 1.257 . S
C83 C86 1.358 . S
C83 C87 1.332 . S
C83 C89 1.504 . S
C84 C85 1.373 . S
C84 C88 1.308 . S
C85 C84 1.373 . S
C85 C86 1.429 . S
C85 H112 0.932 . S
C86 C83 1.358 . S
C86 C85 1.429 . S
C86 H113 0.930 . S
C87 C83 1.332 . S
C87 C88 1.394 . S
C87 H114 0.932 . S
C88 C84 1.308 . S
C88 C87 1.394 . S
C88 H115 0.929 . S
C89 Tb80 2.764 . S
C89 C83 1.504 . S
C89 O101 1.239 . S
C89 O102 1.263 . S
O90 Tb80 2.325 . S
O90 C100 1.236 . S
O91 Tb81 2.322 . S
O91 C100 1.257 . S
O92 Tb81 2.349 . S
O92 C103 1.261 . S
O93 Tb80 2.303 . S
O93 C103 1.257 . S
O94 Tb81 2.415 . S
O94 C110 1.239 . S
O95 Tb81 2.399 . S
O95 C110 1.263 . S
O96 Tb81 2.325 . S
O96 C111 1.236 . S
O97 Tb80 2.322 . S
O97 C111 1.257 . S
O98 Tb80 2.349 . S
O98 C82 1.261 . S
O99 Tb81 2.303 . S
O99 C82 1.257 . S
C100 O90 1.236 . S
C100 O91 1.257 . S
O101 Tb80 2.415 . S
O101 C89 1.239 . S
O102 Tb80 2.399 . S
O102 C89 1.263 . S
C103 O92 1.261 . S
C103 O93 1.257 . S
C104 C107 1.358 . S
C104 C108 1.332 . S
C104 C110 1.504 . S
C105 C106 1.373 . S
C105 C109 1.308 . S
C106 C105 1.373 . S
C106 C107 1.429 . S
C106 H116 0.932 . S
C107 C104 1.358 . S
C107 C106 1.429 . S
C107 H117 0.930 . S
C108 C104 1.332 . S
C108 C109 1.394 . S
C108 H118 0.932 . S
C109 C105 1.308 . S
C109 C108 1.394 . S
C109 H119 0.929 . S
C110 Tb81 2.764 . S
C110 O94 1.239 . S
C110 O95 1.263 . S
C110 C104 1.504 . S
C111 O96 1.236 . S
C111 O97 1.257 . S
H112 C85 0.932 . S
H113 C86 0.930 . S
H114 C87 0.932 . S
H115 C88 0.929 . S
H116 C106 0.932 . S
H117 C107 0.930 . S
H118 C108 0.932 . S
H119 C109 0.929 . S
H120 C125 0.930 . S
H121 C128 0.930 . S
H122 C130 0.930 . S
H123 C124 1.016 . S
C124 H123 1.016 . S
C124 N131 1.286 . S
C125 H120 0.930 . S
C125 C126 1.397 1_545 S
C125 C127 1.361 . S
C126 C125 1.397 1_565 S
C126 C130 1.390 . S
C127 C125 1.361 . S
C127 C128 1.393 . S
C127 N131 1.413 . S
C128 H121 0.930 . S
C128 C127 1.393 . S
C128 C129 1.399 . S
C129 C128 1.399 . S
C129 C130 1.382 1_545 S
C130 H122 0.930 . S
C130 C126 1.390 . S
C130 C129 1.382 1_565 S
N131 C124 1.286 . S
N131 C127 1.413 . S
H132 C137 0.930 . S
H133 C140 0.930 . S
H134 C142 0.930 . S
H135 C136 1.016 . S
C136 H135 1.016 . S
C136 N143 1.286 . S
C137 H132 0.930 . S
C137 C138 1.397 . S
C137 C139 1.361 . S
C138 C137 1.397 . S
C138 C142 1.390 . S
C139 C137 1.361 . S
C139 C140 1.393 . S
C139 N143 1.413 . S
C140 H133 0.930 . S
C140 C139 1.393 . S
C140 C141 1.399 . S
C141 C140 1.399 . S
C141 C142 1.381 . S
C142 H134 0.930 . S
C142 C138 1.390 . S
C142 C141 1.381 . S
N143 C136 1.286 . S
N143 C139 1.413 . S
H144 C149 0.930 1_655 S
H145 C152 0.930 . S
H146 C154 0.930 . S
H147 C148 1.016 . S
C148 H147 1.016 . S
C148 N155 1.286 . S
C149 H144 0.930 1_455 S
C149 C150 1.397 1_455 S
C149 C151 1.361 . S
C150 C149 1.397 1_655 S
C150 C154 1.390 . S
C151 C149 1.361 . S
C151 C152 1.393 . S
C151 N155 1.413 . S
C152 H145 0.930 . S
C152 C151 1.393 . S
C152 C153 1.399 . S
C153 C152 1.399 . S
C153 C154 1.381 1_455 S
C154 H146 0.930 . S
C154 C150 1.390 . S
C154 C153 1.381 1_655 S
N155 C148 1.286 . S
N155 C151 1.413 . S
H156 C161 0.930 . S
H157 C164 0.930 . S
H158 C166 0.930 . S
H159 C160 1.016 . S
C160 H159 1.016 . S
C160 N167 1.286 . S
C161 H156 0.930 . S
C161 C162 1.397 . S
C161 C163 1.361 1_455 S
C162 C161 1.397 . S
C162 C166 1.390 . S
C163 C161 1.361 1_655 S
C163 C164 1.393 . S
C163 N167 1.413 . S
C164 H157 0.930 . S
C164 C163 1.393 . S
C164 C165 1.399 1_655 S
C165 C164 1.399 1_455 S
C165 C166 1.381 . S
C166 H158 0.930 . S
C166 C162 1.390 . S
C166 C165 1.381 . S
N167 C160 1.286 . S
N167 C163 1.413 . S
H168 C173 0.930 . S
H169 C176 0.930 . S
H170 C178 0.930 . S
H171 C172 1.016 . S
C172 H171 1.016 . S
C172 N179 1.286 . S
C173 H168 0.930 . S
C173 C174 1.397 . S
C173 C175 1.361 . S
C174 C173 1.397 . S
C174 C178 1.390 . S
C175 C173 1.361 . S
C175 C176 1.393 1_545 S
C175 N179 1.413 1_545 S
C176 H169 0.930 . S
C176 C175 1.393 1_565 S
C176 C177 1.399 1_565 S
C177 C176 1.399 1_545 S
C177 C178 1.381 . S
C178 H170 0.930 . S
C178 C174 1.390 . S
C178 C177 1.381 . S
N179 C172 1.286 . S
N179 C175 1.413 1_565 S
H180 C185 0.930 . S
H181 C188 0.930 . S
H182 C190 0.930 . S
H183 C184 1.016 . S
C184 H183 1.016 . S
C184 N191 1.286 . S
C185 H180 0.930 . S
C185 C186 1.397 . S
C185 C187 1.361 . S
C186 C185 1.397 . S
C186 C190 1.390 . S
C187 C185 1.361 . S
C187 C188 1.393 . S
C187 N191 1.413 . S
C188 H181 0.930 . S
C188 C187 1.393 . S
C188 C189 1.399 . S
C189 C188 1.399 . S
C189 C190 1.381 . S
C190 H182 0.930 . S
C190 C186 1.390 . S
C190 C189 1.381 . S
N191 C184 1.286 . S
N191 C187 1.413 . S
C192 C193 1.387 . S
C192 H196 0.950 . S
C192 C201 1.390 . S
C193 C192 1.387 . S
C193 C195 1.387 . S
H194 C201 0.950 . S
C195 C193 1.387 . S
C195 C197 1.390 . S
C195 H199 0.950 . S
H196 C192 0.950 . S
C197 C195 1.390 . S
C197 C198 1.387 . S
C197 H200 0.950 . S
C198 C197 1.387 . S
C198 C201 1.387 . S
H199 C195 0.950 . S
H200 C197 0.950 . S
C201 C192 1.390 . S
C201 H194 0.950 . S
C201 C198 1.387 . S
C202 C203 1.387 . S
C202 H206 0.950 . S
C202 C211 1.390 . S
C203 C202 1.387 . S
C203 C205 1.387 . S
H204 C211 0.950 . S
C205 C203 1.387 . S
C205 C207 1.390 . S
C205 H209 0.950 . S
H206 C202 0.950 . S
C207 C205 1.390 . S
C207 C208 1.387 . S
C207 H210 0.950 . S
C208 C207 1.387 . S
C208 C211 1.387 . S
H209 C205 0.950 . S
H210 C207 0.950 . S
C211 C202 1.390 . S
C211 H204 0.950 . S
C211 C208 1.387 . S
C212 C213 1.387 . S
C212 H216 0.950 . S
C212 C221 1.390 . S
C213 C212 1.387 . S
C213 C215 1.387 . S
H214 C221 0.950 . S
C215 C213 1.387 . S
C215 C217 1.390 . S
C215 H219 0.950 . S
H216 C212 0.950 . S
C217 C215 1.390 . S
C217 C218 1.387 . S
C217 H220 0.950 . S
C218 C217 1.387 . S
C218 C221 1.387 . S
H219 C215 0.950 . S
H220 C217 0.950 . S
C221 C212 1.390 . S
C221 H214 0.950 . S
C221 C218 1.387 . S
C222 C223 1.387 . S
C222 H226 0.950 . S
C222 C231 1.390 . S
C223 C222 1.387 . S
C223 C225 1.387 . S
H224 C231 0.950 . S
C225 C223 1.387 . S
C225 C227 1.390 . S
C225 H229 0.950 . S
H226 C222 0.950 . S
C227 C225 1.390 . S
C227 C228 1.387 . S
C227 H230 0.950 . S
C228 C227 1.387 . S
C228 C231 1.387 . S
H229 C225 0.950 . S
H230 C227 0.950 . S
C231 C222 1.390 . S
C231 H224 0.950 . S
C231 C228 1.387 . S
C232 C233 1.387 . S
C232 H236 0.950 . S
C232 C241 1.390 . S
C233 C232 1.387 . S
C233 C235 1.387 . S
H234 C241 0.950 . S
C235 C233 1.387 . S
C235 C237 1.390 . S
C235 H239 0.950 . S
H236 C232 0.950 . S
C237 C235 1.390 . S
C237 C238 1.387 . S
C237 H240 0.950 . S
C238 C237 1.387 . S
C238 C241 1.387 . S
H239 C235 0.950 . S
H240 C237 0.950 . S
C241 C232 1.390 . S
C241 H234 0.950 . S
C241 C238 1.387 . S
C242 C243 1.387 . S
C242 H246 0.950 . S
C242 C251 1.390 . S
C243 C242 1.387 . S
C243 C245 1.387 . S
H244 C251 0.950 . S
C245 C243 1.387 . S
C245 C247 1.390 . S
C245 H249 0.950 . S
H246 C242 0.950 . S
C247 C245 1.390 . S
C247 C248 1.387 . S
C247 H250 0.950 . S
C248 C247 1.387 . S
C248 C251 1.387 . S
H249 C245 0.950 . S
H250 C247 0.950 . S
C251 C242 1.390 . S
C251 H244 0.950 . S
C251 C248 1.387 . S
C252 C253 1.387 . S
C252 H256 0.950 . S
C252 C261 1.390 . S
C253 C252 1.387 . S
C253 C255 1.387 . S
H254 C261 0.950 . S
C255 C253 1.387 . S
C255 C257 1.390 . S
C255 H259 0.950 . S
H256 C252 0.950 . S
C257 C255 1.390 . S
C257 C258 1.387 . S
C257 H260 0.950 . S
C258 C257 1.387 . S
C258 C261 1.387 . S
H259 C255 0.950 . S
H260 C257 0.950 . S
C261 C252 1.390 . S
C261 H254 0.950 . S
C261 C258 1.387 . S
C262 C263 1.387 . S
C262 H266 0.950 . S
C262 C271 1.390 . S
C263 C262 1.387 . S
C263 C265 1.387 . S
H264 C271 0.950 . S
C265 C263 1.387 . S
C265 C267 1.390 . S
C265 H269 0.950 . S
H266 C262 0.950 . S
C267 C265 1.390 . S
C267 C268 1.387 . S
C267 H270 0.950 . S
C268 C267 1.387 . S
C268 C271 1.387 . S
H269 C265 0.950 . S
H270 C267 0.950 . S
C271 C262 1.390 . S
C271 H264 0.950 . S
C271 C268 1.387 . S
C272 C273 1.387 . S
C272 H276 0.950 . S
C272 C281 1.390 . S
C273 C272 1.387 . S
C273 C275 1.387 . S
H274 C281 0.950 . S
C275 C273 1.387 . S
C275 C277 1.390 . S
C275 H279 0.950 . S
H276 C272 0.950 . S
C277 C275 1.390 . S
C277 C278 1.387 . S
C277 H280 0.950 . S
C278 C277 1.387 . S
C278 C281 1.387 . S
H279 C275 0.950 . S
H280 C277 0.950 . S
C281 C272 1.390 . S
C281 H274 0.950 . S
C281 C278 1.387 . S
C282 C283 1.387 . S
C282 H286 0.950 . S
C282 C291 1.390 . S
C283 C282 1.387 . S
C283 C285 1.387 . S
H284 C291 0.950 . S
C285 C283 1.387 . S
C285 C287 1.390 . S
C285 H289 0.950 . S
H286 C282 0.950 . S
C287 C285 1.390 . S
C287 C288 1.387 . S
C287 H290 0.950 . S
C288 C287 1.387 . S
C288 C291 1.387 . S
H289 C285 0.950 . S
H290 C287 0.950 . S
C291 C282 1.390 . S
C291 H284 0.950 . S
C291 C288 1.387 . S
C292 C293 1.387 . S
C292 H296 0.950 . S
C292 C301 1.390 . S
C293 C292 1.387 . S
C293 C295 1.387 . S
H294 C301 0.950 . S
C295 C293 1.387 . S
C295 C297 1.390 . S
C295 H299 0.950 . S
H296 C292 0.950 . S
C297 C295 1.390 . S
C297 C298 1.387 . S
C297 H300 0.950 . S
C298 C297 1.387 . S
C298 C301 1.387 . S
H299 C295 0.950 . S
H300 C297 0.950 . S
C301 C292 1.390 . S
C301 H294 0.950 . S
C301 C298 1.387 . S
C302 C303 1.387 . S
C302 H306 0.950 . S
C302 C311 1.390 . S
C303 C302 1.387 . S
C303 C305 1.387 . S
H304 C311 0.950 . S
C305 C303 1.387 . S
C305 C307 1.390 . S
C305 H309 0.950 . S
H306 C302 0.950 . S
C307 C305 1.390 . S
C307 C308 1.387 . S
C307 H310 0.950 . S
C308 C307 1.387 . S
C308 C311 1.387 . S
H309 C305 0.950 . S
H310 C307 0.950 . S
C311 C302 1.390 . S
C311 H304 0.950 . S
C311 C308 1.387 . S
C312 C313 1.387 . S
C312 H316 0.950 . S
C312 C321 1.390 1_554 S
C313 C312 1.387 . S
C313 C315 1.387 . S
H314 C321 0.950 . S
C315 C313 1.387 . S
C315 C317 1.390 . S
C315 H319 0.950 . S
H316 C312 0.950 . S
C317 C315 1.390 . S
C317 C318 1.387 1_554 S
C317 H320 0.950 1_455 S
C318 C317 1.387 1_556 S
C318 C321 1.387 . S
H319 C315 0.950 . S
H320 C317 0.950 1_655 S
C321 C312 1.390 1_556 S
C321 H314 0.950 . S
C321 C318 1.387 . S
C322 C323 1.387 . S
C322 H326 0.950 . S
C322 C331 1.390 . S
C323 C322 1.387 . S
C323 C325 1.387 . S
H324 C331 0.950 . S
C325 C323 1.387 . S
C325 C327 1.390 . S
C325 H329 0.950 1_545 S
H326 C322 0.950 . S
C327 C325 1.390 . S
C327 C328 1.387 . S
C327 H330 0.950 1_545 S
C328 C327 1.387 . S
C328 C331 1.387 . S
H329 C325 0.950 1_565 S
H330 C327 0.950 1_565 S
C331 C322 1.390 . S
C331 H324 0.950 . S
C331 C328 1.387 . S
C332 C333 1.387 . S
C332 H336 0.950 . S
C332 C341 1.390 . S
C333 C332 1.387 . S
C333 C335 1.387 . S
H334 C341 0.950 . S
C335 C333 1.387 . S
C335 C337 1.390 . S
C335 H339 0.950 . S
H336 C332 0.950 . S
C337 C335 1.390 . S
C337 C338 1.387 . S
C337 H340 0.950 . S
C338 C337 1.387 . S
C338 C341 1.387 . S
H339 C335 0.950 . S
H340 C337 0.950 . S
C341 C332 1.390 . S
C341 H334 0.950 . S
C341 C338 1.387 . S
C342 C343 1.387 . S
C342 H346 0.950 . S
C342 C351 1.390 . S
C343 C342 1.387 . S
C343 C345 1.387 . S
H344 C351 0.950 1_565 S
C345 C343 1.387 . S
C345 C347 1.390 . S
C345 H349 0.950 . S
H346 C342 0.950 . S
C347 C345 1.390 . S
C347 C348 1.387 . S
C347 H350 0.950 . S
C348 C347 1.387 . S
C348 C351 1.387 . S
H349 C345 0.950 . S
H350 C347 0.950 . S
C351 C342 1.390 . S
C351 H344 0.950 1_545 S
C351 C348 1.387 . S
C352 C353 1.387 . S
C352 H356 0.950 . S
C352 C361 1.390 . S
C353 C352 1.387 . S
C353 C355 1.387 . S
H354 C361 0.950 . S
C355 C353 1.387 . S
C355 C357 1.390 1_556 S
C355 H359 0.950 . S
H356 C352 0.950 . S
C357 C355 1.390 1_554 S
C357 C358 1.387 . S
C357 H360 0.950 . S
C358 C357 1.387 . S
C358 C361 1.387 1_554 S
H359 C355 0.950 . S
H360 C357 0.950 . S
C361 C352 1.390 . S
C361 H354 0.950 . S
C361 C358 1.387 1_556 S
C362 C363 1.387 . S
C362 H366 0.950 . S
C362 C371 1.390 . S
C363 C362 1.387 . S
C363 C365 1.387 . S
H364 C371 0.950 . S
C365 C363 1.387 . S
C365 C367 1.390 . S
C365 H369 0.950 . S
H366 C362 0.950 . S
C367 C365 1.390 . S
C367 C368 1.387 . S
C367 H370 0.950 . S
C368 C367 1.387 . S
C368 C371 1.387 . S
H369 C365 0.950 . S
H370 C367 0.950 . S
C371 C362 1.390 . S
C371 H364 0.950 . S
C371 C368 1.387 . S
C193 C25 0.860 . S
C198 C186 0.881 . S
C203 C65 0.697 . S
C208 C160 0.645 . S
C213 C105 0.729 . S
C218 C172 0.714 . S
C223 C4 0.730 . S
C228 C184 0.713 . S
C238 C162 0.545 . S
C233 C44 0.629 . S
C248 C174 0.508 . S
C243 C84 0.596 . S
C253 C60 3.078 . S
C258 C136 2.990 . S
C263 C100 3.322 . S
C268 C150 3.289 . S
C273 C31 3.063 . S
C278 C126 3.010 . S
C288 C138 3.021 . S
C283 C71 3.065 . S
C298 C148 2.753 . S
C293 C111 2.870 . S
C303 C20 3.084 . S
C308 C124 3.000 . S
C318 C153 1.857 . S
C313 C2 1.748 . S
C323 C42 1.785 . S
C328 C129 1.805 . S
C333 C82 1.752 . S
C338 C141 1.782 . S
C348 C177 1.060 . S
C343 C63 1.049 . S
C358 C189 1.134 . S
C353 C103 1.133 . S
C363 C23 1.039 . S
C368 C165 1.040 . S
