# Generated by pormake.
# Topology dag, (6,3)-cn, num edge types: 1
# Building blocks:
#     Node 0, Type 0, BuildingBlock: IZENUY_clean_sbu_0, # of connection points: 6
#     Node 1, Type 0, BuildingBlock: IZENUY_clean_sbu_0, # of connection points: 6
#     Node 2, Type 0, BuildingBlock: IZENUY_clean_sbu_0, # of connection points: 6
#     Node 3, Type 0, BuildingBlock: IZENUY_clean_sbu_0, # of connection points: 6
#     Node 4, Type 1, BuildingBlock: MIDCAF_clean_linker_0, # of connection points: 3
#     Node 5, Type 1, BuildingBlock: MIDCAF_clean_linker_0, # of connection points: 3
#     Node 6, Type 1, BuildingBlock: MIDCAF_clean_linker_0, # of connection points: 3
#     Node 7, Type 1, BuildingBlock: MIDCAF_clean_linker_0, # of connection points: 3
#     Node 8, Type 1, BuildingBlock: MIDCAF_clean_linker_0, # of connection points: 3
#     Node 9, Type 1, BuildingBlock: MIDCAF_clean_linker_0, # of connection points: 3
#     Node 10, Type 1, BuildingBlock: MIDCAF_clean_linker_0, # of connection points: 3
#     Node 11, Type 1, BuildingBlock: MIDCAF_clean_linker_0, # of connection points: 3
#     Edge 12, Type (0, 1), BuildingBlock: ZUJKAS_clean_linker_0, # of connection points: 2
#     Edge 13, Type (0, 1), BuildingBlock: ZUJKAS_clean_linker_0, # of connection points: 2
#     Edge 14, Type (0, 1), BuildingBlock: ZUJKAS_clean_linker_0, # of connection points: 2
#     Edge 15, Type (0, 1), BuildingBlock: ZUJKAS_clean_linker_0, # of connection points: 2
#     Edge 16, Type (0, 1), BuildingBlock: ZUJKAS_clean_linker_0, # of connection points: 2
#     Edge 17, Type (0, 1), BuildingBlock: ZUJKAS_clean_linker_0, # of connection points: 2
#     Edge 18, Type (0, 1), BuildingBlock: ZUJKAS_clean_linker_0, # of connection points: 2
#     Edge 19, Type (0, 1), BuildingBlock: ZUJKAS_clean_linker_0, # of connection points: 2
#     Edge 20, Type (0, 1), BuildingBlock: ZUJKAS_clean_linker_0, # of connection points: 2
#     Edge 21, Type (0, 1), BuildingBlock: ZUJKAS_clean_linker_0, # of connection points: 2
#     Edge 22, Type (0, 1), BuildingBlock: ZUJKAS_clean_linker_0, # of connection points: 2
#     Edge 23, Type (0, 1), BuildingBlock: ZUJKAS_clean_linker_0, # of connection points: 2
#     Edge 24, Type (0, 1), BuildingBlock: ZUJKAS_clean_linker_0, # of connection points: 2
#     Edge 25, Type (0, 1), BuildingBlock: ZUJKAS_clean_linker_0, # of connection points: 2
#     Edge 26, Type (0, 1), BuildingBlock: ZUJKAS_clean_linker_0, # of connection points: 2
#     Edge 27, Type (0, 1), BuildingBlock: ZUJKAS_clean_linker_0, # of connection points: 2
#     Edge 28, Type (0, 1), BuildingBlock: ZUJKAS_clean_linker_0, # of connection points: 2
#     Edge 29, Type (0, 1), BuildingBlock: ZUJKAS_clean_linker_0, # of connection points: 2
#     Edge 30, Type (0, 1), BuildingBlock: ZUJKAS_clean_linker_0, # of connection points: 2
#     Edge 31, Type (0, 1), BuildingBlock: ZUJKAS_clean_linker_0, # of connection points: 2
#     Edge 32, Type (0, 1), BuildingBlock: ZUJKAS_clean_linker_0, # of connection points: 2
#     Edge 33, Type (0, 1), BuildingBlock: ZUJKAS_clean_linker_0, # of connection points: 2
#     Edge 34, Type (0, 1), BuildingBlock: ZUJKAS_clean_linker_0, # of connection points: 2
#     Edge 35, Type (0, 1), BuildingBlock: ZUJKAS_clean_linker_0, # of connection points: 2
# Relax obj value: 0.260
# Max RMSD: 0.197
# Mean RMSD: 0.161
data_MOF--net-dag--node1-IZENUY_clean_sbu_0--node2-MIDCAF_clean_linker_0--edge1-ZUJKAS_clean_linker_0
_symmetry_space_group_name_H-M    P1
_symmetry_Int_Tables_number       1
_symmetry_cell_setting            triclinic
loop_
_symmetry_equiv_pos_as_xyz
'x, y, z'
_cell_length_a     57.649918
_cell_length_b     59.794913
_cell_length_c     50.621528
_cell_angle_alpha  95.02984
_cell_angle_beta   90.191466
_cell_angle_gamma 90.08944
loop_
_atom_site_label
_atom_site_type_symbol
_atom_site_fract_x
_atom_site_fract_y
_atom_site_fract_z
_atom_type_partial_charge
Fe0 Fe 0.18495 0.84329 0.08245 0.0
Fe1 Fe 0.1405 0.85538 0.05373 0.0
O2 O 0.1597 0.83488 0.06417 0.0
Fe3 Fe 0.15354 0.80599 0.05642 0.0
O4 O 0.16665 0.79681 0.08689 0.0
O5 O 0.17574 0.82838 0.1101 0.0
O6 O 0.17163 0.86836 0.09975 0.0
C7 C 0.15048 0.87312 0.10406 0.0
C8 C 0.20026 0.80667 0.04748 0.0
O9 O 0.13499 0.86624 0.08765 0.0
C10 C 0.14081 0.82586 0.00958 0.0
O11 O 0.19582 0.85902 0.05606 0.0
O12 O 0.16307 0.87645 0.0497 0.0
O13 O 0.18035 0.80194 0.03822 0.0
O14 O 0.20275 0.81963 0.06851 0.0
C15 C 0.11017 0.82151 0.06902 0.0
O16 O 0.14487 0.84565 0.01922 0.0
O17 O 0.13936 0.80994 0.0245 0.0
C18 C 0.18479 0.87466 0.04656 0.0
O19 O 0.11432 0.83813 0.05587 0.0
O20 O 0.12619 0.80819 0.07412 0.0
C21 C 0.17082 0.80781 0.10894 0.0
Fe22 Fe 0.68521 0.65799 0.48839 0.0
Fe23 Fe 0.65176 0.6938 0.51328 0.0
O24 O 0.659 0.66519 0.50524 0.0
Fe25 Fe 0.64011 0.64376 0.51391 0.0
O26 O 0.66226 0.63194 0.53396 0.0
O27 O 0.68966 0.6317 0.50399 0.0
O28 O 0.70227 0.67185 0.5151 0.0
C29 C 0.70011 0.69221 0.52358 0.0
C30 C 0.65538 0.62795 0.46256 0.0
O31 O 0.682 0.7031 0.51849 0.0
C32 C 0.60855 0.67375 0.49778 0.0
O33 O 0.68562 0.68289 0.46967 0.0
O34 O 0.65217 0.69931 0.47858 0.0
O35 O 0.64694 0.62436 0.48487 0.0
O36 O 0.66971 0.64367 0.46057 0.0
C37 C 0.63831 0.67576 0.55864 0.0
O38 O 0.62026 0.68957 0.50962 0.0
O39 O 0.61666 0.65414 0.49457 0.0
C40 C 0.66925 0.69548 0.46335 0.0
O41 O 0.65068 0.6902 0.54855 0.0
O42 O 0.62983 0.65927 0.5444 0.0
C43 C 0.68176 0.62527 0.52538 0.0
Fe44 Fe 0.84911 0.19408 0.01732 0.0
Fe45 Fe 0.86257 0.14471 0.01919 0.0
O46 O 0.84312 0.16522 0.00928 0.0
Fe47 Fe 0.81776 0.15677 0.99128 0.0
O48 O 0.82661 0.17186 0.96362 0.0
O49 O 0.83581 0.20335 0.987 0.0
O50 O 0.87636 0.19217 0.99942 0.0
C51 C 0.89255 0.17899 0.00431 0.0
C52 C 0.80244 0.19317 0.02654 0.0
O53 O 0.88864 0.16217 0.0172 0.0
C54 C 0.81855 0.12531 0.02704 0.0
O55 O 0.8634 0.18991 0.04915 0.0
O56 O 0.85838 0.154 0.0538 0.0
O57 O 0.79991 0.1803 0.00547 0.0
O58 O 0.82237 0.19789 0.03572 0.0
C59 C 0.85223 0.12734 0.9689 0.0
O60 O 0.84017 0.12338 0.02308 0.0
O61 O 0.80733 0.14099 0.01788 0.0
C62 C 0.86216 0.17376 0.06377 0.0
O63 O 0.86787 0.13431 0.98507 0.0
O64 O 0.83108 0.1318 0.9737 0.0
C65 C 0.83152 0.19245 0.9649 0.0
Fe66 Fe 0.35633 0.35697 0.56113 0.0
Fe67 Fe 0.31213 0.34143 0.5874 0.0
O68 O 0.33808 0.335 0.56972 0.0
Fe69 Fe 0.34574 0.30664 0.56082 0.0
O70 O 0.37717 0.31138 0.56395 0.0
O71 O 0.38035 0.34668 0.57976 0.0
O72 O 0.34956 0.37579 0.5907 0.0
C73 C 0.34176 0.37167 0.61313 0.0
C74 C 0.35817 0.32562 0.51574 0.0
O75 O 0.328 0.35548 0.61516 0.0
C76 C 0.29719 0.30763 0.55166 0.0
O77 O 0.33349 0.3687 0.54189 0.0
O78 O 0.30691 0.36799 0.5727 0.0
O79 O 0.34615 0.31087 0.52572 0.0
O80 O 0.36644 0.34214 0.53013 0.0
C81 C 0.32908 0.30349 0.61081 0.0
O82 O 0.29476 0.3278 0.56079 0.0
O83 O 0.31561 0.29693 0.55598 0.0
C84 C 0.31408 0.37492 0.55126 0.0
O85 O 0.31247 0.31611 0.60532 0.0
O86 O 0.34606 0.30043 0.5953 0.0
C87 C 0.3887 0.32718 0.57609 0.0
C88 C 0.97975 0.12817 0.30706 0.0
C89 C 0.97815 0.15108 0.30318 0.0
C90 C 0.99287 0.16638 0.31777 0.0
C91 C 0.01002 0.15867 0.33438 0.0
H92 H 0.06196 0.17791 0.38945 0.0
H93 H 0.08859 0.20311 0.41506 0.0
H94 H 0.13437 0.1474 0.42534 0.0
H95 H 0.10774 0.12213 0.40022 0.0
H96 H 0.1038 0.07943 0.35695 0.0
H97 H 0.11841 0.0446 0.33424 0.0
H98 H 0.0499 0.02939 0.30276 0.0
H99 H 0.03522 0.06382 0.32565 0.0
H100 H 0.99818 0.10257 0.32514 0.0
H101 H 0.9683 0.11604 0.29654 0.0
H102 H 0.99205 0.18414 0.31513 0.0
H103 H 0.02193 0.17072 0.34423 0.0
N104 N 0.04712 0.14051 0.36593 0.0
N105 N 0.07372 0.11113 0.36902 0.0
N106 N 0.04009 0.10525 0.34336 0.0
C107 C 0.06721 0.13272 0.3759 0.0
C108 C 0.0602 0.09726 0.35282 0.0
C109 C 0.03338 0.12676 0.34979 0.0
C110 C 0.0827 0.14795 0.39263 0.0
C111 C 0.07761 0.17096 0.39732 0.0
C112 C 0.09293 0.18546 0.41188 0.0
C113 C 0.11361 0.17726 0.42217 0.0
C114 C 0.11845 0.15421 0.41795 0.0
C115 C 0.10321 0.13973 0.40336 0.0
C116 C 0.06839 0.0746 0.34285 0.0
C117 C 0.09174 0.06844 0.34565 0.0
C118 C 0.10017 0.04855 0.33251 0.0
C119 C 0.08537 0.03435 0.3165 0.0
C120 C 0.06174 0.03984 0.31509 0.0
C121 C 0.05335 0.05973 0.32808 0.0
C122 C 0.01275 0.13552 0.33659 0.0
C123 C 0.99686 0.12047 0.32352 0.0
C124 C 0.44099 0.54871 0.80579 0.0
C125 C 0.41795 0.54172 0.80892 0.0
C126 C 0.40334 0.55493 0.82611 0.0
C127 C 0.41124 0.57529 0.83873 0.0
H128 H 0.39171 0.62878 0.88924 0.0
H129 H 0.36434 0.65274 0.91468 0.0
H130 H 0.41094 0.70909 0.91184 0.0
H131 H 0.43866 0.68506 0.88657 0.0
H132 H 0.481 0.68055 0.84493 0.0
H133 H 0.51212 0.69646 0.81976 0.0
H134 H 0.53075 0.62979 0.78689 0.0
H135 H 0.5004 0.61396 0.81234 0.0
H136 H 0.46653 0.57417 0.81475 0.0
H137 H 0.45282 0.53869 0.7931 0.0
H138 H 0.38546 0.55008 0.82884 0.0
H139 H 0.39924 0.58547 0.851 0.0
N140 N 0.42752 0.61892 0.8611 0.0
N141 N 0.45326 0.64921 0.85924 0.0
N142 N 0.46118 0.61465 0.8355 0.0
C143 C 0.43339 0.64058 0.8687 0.0
C144 C 0.46732 0.63626 0.84271 0.0
C145 C 0.44136 0.60581 0.84458 0.0
C146 C 0.4174 0.65497 0.88563 0.0
C147 C 0.39629 0.64623 0.8941 0.0
C148 C 0.38048 0.66 0.90858 0.0
C149 C 0.38537 0.68285 0.91504 0.0
C150 C 0.40673 0.69151 0.90728 0.0
C151 C 0.42257 0.67773 0.89269 0.0
C152 C 0.48796 0.64597 0.83045 0.0
C153 C 0.49204 0.66927 0.83272 0.0
C154 C 0.5098 0.67842 0.81817 0.0
C155 C 0.5239 0.66445 0.80116 0.0
C156 C 0.52051 0.6411 0.80002 0.0
C157 C 0.50285 0.63199 0.81449 0.0
C158 C 0.4339 0.5829 0.83435 0.0
C159 C 0.44886 0.56905 0.81831 0.0
C160 C 0.72252 0.81876 0.22226 0.0
C161 C 0.7292 0.79753 0.22956 0.0
C162 C 0.74678 0.7858 0.21504 0.0
C163 C 0.75798 0.79535 0.19437 0.0
H164 H 0.82665 0.80139 0.16583 0.0
H165 H 0.8671 0.79235 0.15573 0.0
H166 H 0.86217 0.82737 0.08478 0.0
H167 H 0.82213 0.837 0.09529 0.0
H168 H 0.78778 0.87771 0.09779 0.0
H169 H 0.77846 0.9145 0.08464 0.0
H170 H 0.72254 0.92022 0.14148 0.0
H171 H 0.73237 0.88325 0.15539 0.0
H172 H 0.72842 0.84485 0.19666 0.0
H173 H 0.70918 0.82833 0.23316 0.0
H174 H 0.752 0.7692 0.2197 0.0
H175 H 0.77164 0.78588 0.18388 0.0
N176 N 0.78547 0.81868 0.15807 0.0
N177 N 0.78939 0.84712 0.12947 0.0
N178 N 0.75659 0.84626 0.15658 0.0
C179 C 0.79787 0.82846 0.13944 0.0
C180 C 0.76884 0.85617 0.13785 0.0
C181 C 0.76472 0.82735 0.16658 0.0
C182 C 0.82126 0.8202 0.13157 0.0
C183 C 0.83413 0.8069 0.14789 0.0
C184 C 0.85731 0.80166 0.14206 0.0
C185 C 0.86803 0.80945 0.11967 0.0
C186 C 0.85468 0.82162 0.10258 0.0
C187 C 0.83165 0.82704 0.10853 0.0
C188 C 0.76101 0.87752 0.12789 0.0
C189 C 0.77333 0.88661 0.10742 0.0
C190 C 0.7678 0.90773 0.09963 0.0
C191 C 0.7497 0.92039 0.11196 0.0
C192 C 0.73674 0.911 0.13176 0.0
C193 C 0.7423 0.88975 0.13962 0.0
C194 C 0.75177 0.81681 0.1875 0.0
C195 C 0.73364 0.82827 0.20139 0.0
C196 C 0.78041 0.31419 0.71935 0.0
C197 C 0.76825 0.29864 0.73333 0.0
C198 C 0.74615 0.29151 0.72439 0.0
C199 C 0.73619 0.3 0.70224 0.0
H200 H 0.67663 0.29723 0.66018 0.0
H201 H 0.6359 0.28898 0.65046 0.0
H202 H 0.63813 0.3315 0.58582 0.0
H203 H 0.67882 0.33958 0.5952 0.0
H204 H 0.72358 0.37044 0.58887 0.0
H205 H 0.73175 0.40781 0.57614 0.0
H206 H 0.77402 0.42153 0.64634 0.0
H207 H 0.76559 0.38393 0.65937 0.0
H208 H 0.77999 0.33512 0.6871 0.0
H209 H 0.79748 0.31998 0.72588 0.0
H210 H 0.73654 0.27926 0.73454 0.0
H211 H 0.71902 0.29421 0.69616 0.0
N212 N 0.71593 0.31751 0.65664 0.0
N213 N 0.71436 0.3447 0.62619 0.0
N214 N 0.74605 0.34385 0.65526 0.0
C215 C 0.70468 0.32683 0.63675 0.0
C216 C 0.735 0.3533 0.63525 0.0
C217 C 0.73669 0.32575 0.66587 0.0
C218 C 0.68098 0.3193 0.62868 0.0
C219 C 0.66858 0.30454 0.64361 0.0
C220 C 0.6452 0.29989 0.63816 0.0
C221 C 0.63377 0.30975 0.61754 0.0
C222 C 0.64648 0.32351 0.60172 0.0
C223 C 0.66981 0.32827 0.60724 0.0
C224 C 0.74366 0.37431 0.62532 0.0
C225 C 0.73497 0.38123 0.6014 0.0
C226 C 0.73983 0.40264 0.59396 0.0
C227 C 0.75343 0.4177 0.61032 0.0
C228 C 0.7633 0.41034 0.63347 0.0
C229 C 0.75858 0.38877 0.64083 0.0
C230 C 0.74803 0.31599 0.68854 0.0
C231 C 0.77034 0.32289 0.69723 0.0
C232 C 0.48135 0.35697 0.27612 0.0
C233 C 0.47803 0.33365 0.27571 0.0
C234 C 0.49254 0.31934 0.25962 0.0
C235 C 0.51056 0.32817 0.24516 0.0
H236 H 0.56433 0.31174 0.19124 0.0
H237 H 0.59201 0.28804 0.16536 0.0
H238 H 0.6363 0.34557 0.15878 0.0
H239 H 0.60905 0.36917 0.18475 0.0
H240 H 0.59956 0.41457 0.21741 0.0
H241 H 0.61378 0.45071 0.23706 0.0
H242 H 0.55434 0.45605 0.28901 0.0
H243 H 0.53981 0.42046 0.269 0.0
H244 H 0.50162 0.3838 0.26331 0.0
H245 H 0.47079 0.36853 0.28857 0.0
H246 H 0.4903 0.3013 0.25865 0.0
H247 H 0.52187 0.31668 0.23361 0.0
N248 N 0.549 0.34802 0.21751 0.0
N249 N 0.57461 0.37835 0.21505 0.0
N250 N 0.54142 0.38261 0.24141 0.0
C251 C 0.5687 0.35667 0.20764 0.0
C252 C 0.56106 0.39145 0.2319 0.0
C253 C 0.53518 0.361 0.23431 0.0
C254 C 0.58449 0.34237 0.19034 0.0
C255 C 0.5799 0.31938 0.18416 0.0
C256 C 0.59571 0.30579 0.16924 0.0
C257 C 0.61645 0.31489 0.16029 0.0
C258 C 0.6207 0.33796 0.16584 0.0
C259 C 0.60494 0.35152 0.18064 0.0
C260 C 0.56861 0.41443 0.24175 0.0
C261 C 0.58935 0.42359 0.23278 0.0
C262 C 0.59759 0.44428 0.24414 0.0
C263 C 0.58531 0.45626 0.26475 0.0
C264 C 0.56413 0.44749 0.27295 0.0
C265 C 0.55586 0.4269 0.26155 0.0
C266 C 0.51449 0.35148 0.24665 0.0
C267 C 0.49929 0.36575 0.26179 0.0
C268 C 0.28171 0.18479 0.85713 0.0
C269 C 0.27335 0.20486 0.84811 0.0
C270 C 0.25465 0.2158 0.86146 0.0
C271 C 0.24394 0.20645 0.88261 0.0
H272 H 0.18093 0.20782 0.92118 0.0
H273 H 0.1398 0.21609 0.92829 0.0
H274 H 0.13437 0.16076 0.97727 0.0
H275 H 0.17521 0.15236 0.97027 0.0
H276 H 0.22562 0.1298 0.98777 0.0
H277 H 0.23562 0.09312 0.00189 0.0
H278 H 0.27602 0.07874 0.93079 0.0
H279 H 0.26618 0.11572 0.91664 0.0
H280 H 0.27757 0.1597 0.88437 0.0
H281 H 0.29594 0.17582 0.84716 0.0
H282 H 0.24809 0.23153 0.85538 0.0
H283 H 0.22931 0.21517 0.89208 0.0
N284 N 0.21786 0.18282 0.92001 0.0
N285 N 0.21494 0.15427 0.94864 0.0
N286 N 0.24809 0.15679 0.92238 0.0
C287 C 0.2056 0.17242 0.93828 0.0
C288 C 0.23614 0.14641 0.94091 0.0
C289 C 0.23917 0.17521 0.91208 0.0
C290 C 0.18141 0.17925 0.94489 0.0
C291 C 0.17105 0.19755 0.93371 0.0
C292 C 0.14751 0.20236 0.93783 0.0
C293 C 0.13385 0.18887 0.95303 0.0
C294 C 0.1444 0.17119 0.96506 0.0
C295 C 0.16789 0.16648 0.96113 0.0
C296 C 0.24497 0.12556 0.951 0.0
C297 C 0.23697 0.119 0.97534 0.0
C298 C 0.24284 0.09806 0.98354 0.0
C299 C 0.25657 0.0831 0.9674 0.0
C300 C 0.26536 0.08997 0.94354 0.0
C301 C 0.2598 0.11114 0.93553 0.0
C302 C 0.25175 0.18598 0.89106 0.0
C303 C 0.27106 0.17548 0.87841 0.0
C304 C 0.25372 0.70857 0.35175 0.0
C305 C 0.23153 0.70232 0.34225 0.0
C306 C 0.21849 0.68704 0.35569 0.0
C307 C 0.22775 0.67777 0.37786 0.0
H308 H 0.23484 0.61307 0.41123 0.0
H309 H 0.22609 0.5753 0.42368 0.0
H310 H 0.25556 0.59275 0.50128 0.0
H311 H 0.26457 0.63024 0.48883 0.0
H312 H 0.31658 0.65466 0.4803 0.0
H313 H 0.3573 0.66129 0.4909 0.0
H314 H 0.36144 0.7082 0.4309 0.0
H315 H 0.32053 0.70185 0.42036 0.0
H316 H 0.28015 0.7046 0.38053 0.0
H317 H 0.26401 0.72058 0.342 0.0
H318 H 0.20136 0.68188 0.34871 0.0
H319 H 0.21741 0.66578 0.38756 0.0
N320 N 0.2502 0.65539 0.41975 0.0
N321 N 0.28083 0.65322 0.45001 0.0
N322 N 0.28125 0.68088 0.42008 0.0
C323 C 0.26022 0.64538 0.43998 0.0
C324 C 0.29151 0.67093 0.44018 0.0
C325 C 0.26051 0.67338 0.40992 0.0
C326 C 0.25059 0.62448 0.449 0.0
C327 C 0.23887 0.609 0.43117 0.0
C328 C 0.23396 0.58739 0.43822 0.0
C329 C 0.24024 0.58113 0.46337 0.0
C330 C 0.25035 0.59719 0.48183 0.0
C331 C 0.25564 0.61859 0.47464 0.0
C332 C 0.31528 0.67746 0.44918 0.0
C333 C 0.32601 0.66662 0.46953 0.0
C334 C 0.34941 0.67033 0.47556 0.0
C335 C 0.36265 0.68499 0.46144 0.0
C336 C 0.35166 0.69684 0.44217 0.0
C337 C 0.32821 0.69312 0.43608 0.0
C338 C 0.25013 0.68379 0.38715 0.0
C339 C 0.26289 0.6995 0.37397 0.0
C340 C 0.93851 0.95643 0.76141 0.0
C341 C 0.91496 0.9622 0.75998 0.0
C342 C 0.8999 0.94793 0.74443 0.0
C343 C 0.90802 0.92778 0.73164 0.0
H344 H 0.89233 0.87478 0.67567 0.0
H345 H 0.86539 0.84999 0.65035 0.0
H346 H 0.90942 0.79331 0.66207 0.0
H347 H 0.93638 0.81805 0.68787 0.0
H348 H 0.98233 0.82557 0.72346 0.0
H349 H 0.01416 0.81083 0.74872 0.0
H350 H 0.02822 0.8777 0.78483 0.0
H351 H 0.99731 0.89242 0.7592 0.0
H352 H 0.96469 0.932 0.75118 0.0
H353 H 0.95053 0.96694 0.77341 0.0
H354 H 0.8817 0.95208 0.74272 0.0
H355 H 0.89578 0.91679 0.72061 0.0
N356 N 0.92568 0.88499 0.70809 0.0
N357 N 0.95227 0.8555 0.71058 0.0
N358 N 0.95936 0.89052 0.73372 0.0
C359 C 0.93212 0.86344 0.70088 0.0
C360 C 0.96605 0.86904 0.72694 0.0
C361 C 0.93927 0.89866 0.72443 0.0
C362 C 0.91653 0.84845 0.68398 0.0
C363 C 0.89642 0.85706 0.6728 0.0
C364 C 0.881 0.84286 0.65809 0.0
C365 C 0.88526 0.81968 0.65422 0.0
C366 C 0.90554 0.81107 0.66497 0.0
C367 C 0.92106 0.8253 0.67962 0.0
C368 C 0.98702 0.86016 0.73947 0.0
C369 C 0.99251 0.83716 0.73643 0.0
C370 C 0.01068 0.82868 0.75104 0.0
C371 C 0.02373 0.84302 0.76896 0.0
C372 C 0.01886 0.86614 0.77098 0.0
C373 C 0.00086 0.87459 0.75639 0.0
C374 C 0.93132 0.9214 0.73438 0.0
C375 C 0.94659 0.93626 0.7488 0.0
H376 H 0.17888 0.88986 0.1445 0.0
H377 H 0.16847 0.91515 0.1832 0.0
H378 H 0.0975 0.91571 0.15613 0.0
H379 H 0.1077 0.8905 0.11724 0.0
H380 H 0.11696 0.95874 0.17017 0.0
H381 H 0.13035 0.90086 0.24893 0.0
H382 H 0.15423 0.9027 0.22646 0.0
H383 H 0.12709 0.89105 0.21433 0.0
C384 C 0.16102 0.89529 0.14677 0.0
C385 C 0.14413 0.8882 0.1277 0.0
C386 C 0.1551 0.90961 0.16902 0.0
C387 C 0.13218 0.91704 0.17265 0.0
C388 C 0.11527 0.91002 0.15372 0.0
H389 H 0.0667 0.99223 0.30633 0.0
H390 H 0.07912 0.96295 0.27242 0.0
C391 C 0.12114 0.89564 0.1315 0.0
C392 C 0.12606 0.93302 0.19553 0.0
H393 H 0.12354 0.93922 0.2632 0.0
C394 C 0.11834 0.95448 0.19051 0.0
C395 C 0.12774 0.92729 0.222 0.0
C396 C 0.13511 0.90417 0.22837 0.0
C397 C 0.11255 0.97051 0.21129 0.0
C398 C 0.11478 0.96499 0.23778 0.0
C399 C 0.12213 0.94342 0.24285 0.0
C400 C 0.10899 0.98141 0.26034 0.0
C401 C 0.10379 0.99317 0.20476 0.0
C402 C 0.12215 0.00107 0.26528 0.0
C403 C 0.11509 0.01782 0.28453 0.0
C404 C 0.09474 0.01516 0.29919 0.0
C405 C 0.08229 0.99488 0.29512 0.0
C406 C 0.08941 0.97811 0.27589 0.0
H407 H 0.09849 0.99309 0.18364 0.0
H408 H 0.08878 0.99854 0.21746 0.0
H409 H 0.11779 0.00581 0.20859 0.0
H410 H 0.13746 0.00378 0.25362 0.0
H411 H 0.12496 0.0333 0.28697 0.0
H412 H 0.64127 0.71418 0.59283 0.0
H413 H 0.62551 0.7198 0.63798 0.0
H414 H 0.60391 0.65048 0.63296 0.0
H415 H 0.61918 0.6448 0.58812 0.0
H416 H 0.56857 0.68132 0.64704 0.0
H417 H 0.64761 0.69741 0.70939 0.0
H418 H 0.64393 0.71382 0.6815 0.0
H419 H 0.64889 0.68418 0.67594 0.0
C420 C 0.63345 0.70008 0.60154 0.0
C421 C 0.63126 0.6791 0.5868 0.0
C422 C 0.62454 0.70331 0.62735 0.0
C423 C 0.6136 0.68553 0.6388 0.0
C424 C 0.61222 0.66443 0.62445 0.0
H425 H 0.56708 0.64874 0.78643 0.0
H426 H 0.58987 0.65899 0.74874 0.0
C427 C 0.62094 0.66124 0.59878 0.0
C428 C 0.60191 0.68886 0.66486 0.0
H429 H 0.61177 0.69672 0.7316 0.0
C430 C 0.57794 0.68498 0.66555 0.0
C431 C 0.61427 0.69355 0.68887 0.0
C432 C 0.64013 0.69737 0.68913 0.0
C433 C 0.56607 0.68466 0.68961 0.0
C434 C 0.57844 0.68897 0.71374 0.0
C435 C 0.60232 0.69365 0.71307 0.0
C436 C 0.56724 0.68611 0.73957 0.0
C437 C 0.54066 0.67838 0.68889 0.0
C438 C 0.5476 0.69869 0.74775 0.0
C439 C 0.53425 0.69257 0.76899 0.0
C440 C 0.5405 0.67394 0.78262 0.0
C441 C 0.56144 0.6628 0.77593 0.0
C442 C 0.57463 0.66879 0.75455 0.0
H443 H 0.53508 0.67105 0.66895 0.0
H444 H 0.53682 0.66607 0.70349 0.0
H445 H 0.5301 0.69363 0.69405 0.0
H446 H 0.54187 0.71243 0.73677 0.0
H447 H 0.51825 0.70154 0.77353 0.0
H448 H 0.7726 0.12406 0.04128 0.0
H449 H 0.75236 0.09381 0.06161 0.0
H450 H 0.81596 0.05588 0.06113 0.0
H451 H 0.83632 0.08599 0.0416 0.0
H452 H 0.74535 0.05077 0.04299 0.0
H453 H 0.79513 0.05217 0.13622 0.0
H454 H 0.79669 0.07472 0.11479 0.0
H455 H 0.81447 0.05005 0.10849 0.0
C456 C 0.7823 0.10935 0.04576 0.0
C457 C 0.80611 0.1075 0.03991 0.0
C458 C 0.77071 0.0921 0.05737 0.0
C459 C 0.78275 0.07279 0.06342 0.0
C460 C 0.80644 0.0709 0.05741 0.0
H461 H 0.7515 0.93673 0.06313 0.0
H462 H 0.75361 0.97587 0.05375 0.0
C463 C 0.81804 0.08811 0.04602 0.0
C464 C 0.7706 0.05389 0.0746 0.0
H465 H 0.77708 0.01655 0.12119 0.0
C466 C 0.75193 0.04353 0.06043 0.0
C467 C 0.77868 0.04478 0.09779 0.0
C468 C 0.79717 0.0562 0.11534 0.0
C469 C 0.74242 0.0233 0.06762 0.0
C470 C 0.7523 0.01288 0.08905 0.0
C471 C 0.76968 0.02424 0.10447 0.0
C472 C 0.74693 0.98932 0.09414 0.0
C473 C 0.72219 0.01314 0.05181 0.0
C474 C 0.74247 0.98365 0.12 0.0
C475 C 0.74194 0.96115 0.12558 0.0
C476 C 0.74587 0.94388 0.10538 0.0
C477 C 0.74878 0.9496 0.07923 0.0
C478 C 0.74959 0.97205 0.07374 0.0
H479 H 0.71106 0.02646 0.0445 0.0
H480 H 0.7288 0.00277 0.0342 0.0
H481 H 0.71138 0.00241 0.06372 0.0
H482 H 0.74047 0.99666 0.13612 0.0
H483 H 0.73985 0.95739 0.14598 0.0
H484 H 0.41461 0.28933 0.56437 0.0
H485 H 0.4558 0.28406 0.57326 0.0
H486 H 0.45958 0.35084 0.61285 0.0
H487 H 0.41845 0.35647 0.60362 0.0
H488 H 0.49369 0.34276 0.57615 0.0
H489 H 0.48948 0.27319 0.64159 0.0
H490 H 0.47437 0.26734 0.61068 0.0
H491 H 0.46438 0.28956 0.63412 0.0
C492 C 0.42411 0.30283 0.57523 0.0
C493 C 0.41323 0.32336 0.58321 0.0
C494 C 0.44764 0.29972 0.58044 0.0
C495 C 0.46067 0.31694 0.59401 0.0
C496 C 0.44979 0.3373 0.60242 0.0
H497 H 0.60044 0.31213 0.65583 0.0
H498 H 0.55837 0.31242 0.64964 0.0
C499 C 0.42629 0.34048 0.59712 0.0
C500 C 0.48596 0.31431 0.59793 0.0
H501 H 0.52682 0.28193 0.6252 0.0
C502 C 0.50094 0.32951 0.58696 0.0
C503 C 0.49534 0.29712 0.61222 0.0
C504 C 0.48007 0.28099 0.62556 0.0
C505 C 0.52507 0.32789 0.58967 0.0
C506 C 0.53449 0.31027 0.60323 0.0
C507 C 0.51953 0.29521 0.61449 0.0
C508 C 0.55983 0.30784 0.60681 0.0
C509 C 0.54022 0.34536 0.57849 0.0
C510 C 0.57454 0.30443 0.58479 0.0
C511 C 0.5986 0.30427 0.58825 0.0
C512 C 0.60833 0.30726 0.61383 0.0
C513 C 0.59348 0.30956 0.63589 0.0
C514 C 0.56944 0.30984 0.6324 0.0
H515 H 0.53025 0.36066 0.57474 0.0
H516 H 0.55481 0.35031 0.59216 0.0
H517 H 0.54761 0.3383 0.55934 0.0
H518 H 0.56742 0.30235 0.5649 0.0
H519 H 0.6096 0.30212 0.57092 0.0
H520 H 0.67517 0.62543 0.41302 0.0
H521 H 0.66616 0.59839 0.37512 0.0
H522 H 0.6135 0.56846 0.4211 0.0
H523 H 0.6226 0.59496 0.45905 0.0
H524 H 0.64262 0.53741 0.3963 0.0
H525 H 0.61007 0.59602 0.32532 0.0
H526 H 0.63849 0.60227 0.3387 0.0
H527 H 0.61375 0.60427 0.36024 0.0
C528 C 0.66159 0.61315 0.415 0.0
C529 C 0.64969 0.61229 0.43912 0.0
C530 C 0.65638 0.59781 0.39327 0.0
C531 C 0.639 0.58157 0.39522 0.0
C532 C 0.62697 0.58086 0.41917 0.0
H533 H 0.56236 0.49455 0.28357 0.0
H534 H 0.57768 0.52571 0.31302 0.0
C535 C 0.63223 0.59604 0.44086 0.0
C536 C 0.63381 0.56455 0.3729 0.0
H537 H 0.61247 0.55765 0.30966 0.0
C538 C 0.63616 0.54182 0.37729 0.0
C539 C 0.62522 0.5704 0.34822 0.0
C540 C 0.62151 0.59454 0.34278 0.0
C541 C 0.62973 0.52473 0.35792 0.0
C542 C 0.62125 0.53054 0.33315 0.0
C543 C 0.61921 0.55328 0.32857 0.0
C544 C 0.61288 0.51317 0.31263 0.0
C545 C 0.63117 0.50065 0.3646 0.0
C546 C 0.62775 0.49621 0.3019 0.0
C547 C 0.61898 0.47818 0.2854 0.0
C548 C 0.59519 0.47691 0.27909 0.0
C549 C 0.58066 0.49474 0.28849 0.0
C550 C 0.58942 0.51267 0.30513 0.0
H551 H 0.63281 0.4994 0.38629 0.0
H552 H 0.6156 0.49101 0.35729 0.0
H553 H 0.64666 0.49262 0.35491 0.0
H554 H 0.64601 0.49651 0.30705 0.0
H555 H 0.63068 0.46474 0.27866 0.0
H556 H 0.93203 0.15869 0.01988 0.0
H557 H 0.972 0.16738 0.009 0.0
H558 H 0.94835 0.21977 0.96219 0.0
H559 H 0.90798 0.21124 0.97304 0.0
H560 H 0.98228 0.1884 0.93712 0.0
H561 H 0.00969 0.22435 0.03708 0.0
H562 H 0.9946 0.19803 0.03708 0.0
H563 H 0.97962 0.22222 0.02694 0.0
C564 C 0.93522 0.17213 0.00732 0.0
C565 C 0.91677 0.18434 0.99743 0.0
C566 C 0.95812 0.17715 0.00127 0.0
C567 C 0.96309 0.19444 0.98516 0.0
C568 C 0.9448 0.20651 0.97488 0.0
H569 H 0.11045 0.22847 0.9644 0.0
H570 H 0.06833 0.23355 0.96963 0.0
C571 C 0.9218 0.20161 0.98111 0.0
C572 C 0.98748 0.19909 0.97845 0.0
H573 H 0.04007 0.21211 0.00696 0.0
C574 C 0.99488 0.19398 0.95226 0.0
C575 C 0.00379 0.20664 0.99818 0.0
C576 C 0.99654 0.21335 0.02637 0.0
C577 C 0.01847 0.19487 0.94562 0.0
C578 C 0.03496 0.20085 0.96576 0.0
C579 C 0.02739 0.20735 0.9916 0.0
C580 C 0.06018 0.19832 0.96104 0.0
C581 C 0.02564 0.18881 0.91728 0.0
C582 C 0.06943 0.17686 0.9547 0.0
C583 C 0.09331 0.17392 0.95191 0.0
C584 C 0.10846 0.1924 0.95542 0.0
C585 C 0.09915 0.21397 0.96144 0.0
C586 C 0.07517 0.21688 0.96447 0.0
H587 H 0.01111 0.19101 0.90327 0.0
H588 H 0.04057 0.19921 0.91181 0.0
H589 H 0.03098 0.17093 0.91493 0.0
H590 H 0.05818 0.16229 0.9524 0.0
H591 H 0.09996 0.15714 0.94698 0.0
H592 H 0.27648 0.39816 0.57162 0.0
H593 H 0.25756 0.43034 0.5542 0.0
H594 H 0.30328 0.42486 0.48677 0.0
H595 H 0.32256 0.39266 0.50408 0.0
H596 H 0.28669 0.47046 0.54245 0.0
H597 H 0.23402 0.4329 0.45741 0.0
H598 H 0.24183 0.41738 0.48522 0.0
H599 H 0.2632 0.42277 0.46091 0.0
C600 C 0.28236 0.40355 0.55288 0.0
C601 C 0.30118 0.39294 0.53933 0.0
C602 C 0.27147 0.42191 0.54297 0.0
C603 C 0.27894 0.42978 0.51916 0.0
C604 C 0.29713 0.41879 0.50504 0.0
H605 H 0.25619 0.54475 0.43291 0.0
H606 H 0.2623 0.50698 0.44656 0.0
C607 C 0.30819 0.40051 0.51505 0.0
C608 C 0.26939 0.45087 0.51059 0.0
H609 H 0.23648 0.47258 0.4629 0.0
C610 C 0.27553 0.47099 0.52521 0.0
C611 C 0.25508 0.45132 0.48797 0.0
C612 C 0.24795 0.42998 0.47193 0.0
C613 C 0.26824 0.49176 0.5174 0.0
C614 C 0.25372 0.49233 0.49482 0.0
C615 C 0.24738 0.4721 0.48034 0.0
C616 C 0.24636 0.51388 0.48506 0.0
C617 C 0.27703 0.51289 0.53277 0.0
C618 C 0.23435 0.52995 0.50165 0.0
C619 C 0.23108 0.55162 0.49401 0.0
C620 C 0.23929 0.55737 0.4694 0.0
C621 C 0.24954 0.54071 0.45192 0.0
C622 C 0.2531 0.51915 0.45973 0.0
H623 H 0.29254 0.50961 0.54494 0.0
H624 H 0.28163 0.52586 0.51926 0.0
H625 H 0.26328 0.51978 0.54643 0.0
H626 H 0.22842 0.52603 0.52099 0.0
H627 H 0.22291 0.56412 0.50771 0.0
H628 H 0.11945 0.78885 0.98473 0.0
H629 H 0.1043 0.7844 0.93935 0.0
H630 H 0.13153 0.84944 0.92518 0.0
H631 H 0.14664 0.85416 0.97052 0.0
H632 H 0.07157 0.81741 0.9216 0.0
H633 H 0.14958 0.80695 0.85767 0.0
H634 H 0.14946 0.80044 0.89189 0.0
H635 H 0.15111 0.82911 0.88406 0.0
C636 C 0.1226 0.80205 0.97183 0.0
C637 C 0.1341 0.82194 0.9813 0.0
C638 C 0.11395 0.79944 0.94592 0.0
C639 C 0.11702 0.81649 0.92891 0.0
C640 C 0.12932 0.83595 0.93791 0.0
H641 H 0.06542 0.86146 0.78585 0.0
H642 H 0.08891 0.85114 0.82304 0.0
C643 C 0.13777 0.83868 0.96388 0.0
C644 C 0.10504 0.81524 0.90296 0.0
H645 H 0.11415 0.81565 0.83644 0.0
C646 C 0.08078 0.81664 0.90289 0.0
C647 C 0.11723 0.81446 0.87876 0.0
C648 C 0.14329 0.81248 0.87791 0.0
C649 C 0.06836 0.8184 0.87931 0.0
C650 C 0.08055 0.81796 0.855 0.0
C651 C 0.10482 0.81583 0.85503 0.0
C652 C 0.06852 0.82178 0.82984 0.0
C653 C 0.04246 0.82202 0.88096 0.0
C654 C 0.04993 0.8081 0.82044 0.0
C655 C 0.03608 0.81426 0.79955 0.0
C656 C 0.04087 0.83404 0.78737 0.0
C657 C 0.06083 0.84649 0.79525 0.0
C658 C 0.07444 0.84049 0.81637 0.0
H659 H 0.03679 0.82735 0.90151 0.0
H660 H 0.03684 0.83496 0.86786 0.0
H661 H 0.03342 0.80607 0.87451 0.0
H662 H 0.04544 0.79322 0.83009 0.0
H663 H 0.02089 0.80423 0.79406 0.0
H664 H 0.89517 0.111 0.95461 0.0
H665 H 0.90509 0.08544 0.91595 0.0
H666 H 0.83348 0.08385 0.89102 0.0
H667 H 0.82334 0.10952 0.92949 0.0
H668 H 0.88664 0.04194 0.90413 0.0
H669 H 0.86927 0.0969 0.82334 0.0
H670 H 0.87307 0.10777 0.85752 0.0
H671 H 0.84602 0.0951 0.84664 0.0
C672 C 0.88152 0.10534 0.94085 0.0
C673 C 0.85843 0.11225 0.94522 0.0
C674 C 0.88725 0.09076 0.91876 0.0
C675 C 0.87007 0.083 0.9005 0.0
C676 C 0.84705 0.08998 0.90464 0.0
H677 H 0.87575 0.96435 0.79012 0.0
H678 H 0.86382 0.99479 0.82263 0.0
C679 C 0.84128 0.10451 0.92676 0.0
C680 C 0.87602 0.06657 0.87799 0.0
H681 H 0.87662 0.05836 0.81034 0.0
C682 C 0.88451 0.04554 0.88363 0.0
C683 C 0.87337 0.07143 0.8513 0.0
C684 C 0.86513 0.09409 0.84421 0.0
C685 C 0.8901 0.02906 0.86325 0.0
C686 C 0.88689 0.0337 0.83658 0.0
C687 C 0.87879 0.05485 0.83086 0.0
C688 C 0.89231 0.01671 0.8145 0.0
C689 C 0.89962 0.00685 0.87036 0.0
C690 C 0.91176 0.0194 0.79853 0.0
C691 C 0.91858 0.00208 0.77984 0.0
C692 C 0.90595 0.98186 0.77675 0.0
C693 C 0.88573 0.97977 0.79183 0.0
C694 C 0.87899 0.99706 0.81055 0.0
H695 H 0.90527 0.00755 0.89143 0.0
H696 H 0.88595 0.9938 0.86716 0.0
H697 H 0.91457 0.00161 0.85751 0.0
H698 H 0.92217 0.03453 0.80127 0.0
H699 H 0.93408 0.00426 0.7683 0.0
H700 H 0.37677 0.35693 0.48628 0.0
H701 H 0.39282 0.3513 0.44176 0.0
H702 H 0.37269 0.28157 0.43692 0.0
H703 H 0.35616 0.28714 0.48166 0.0
H704 H 0.429 0.32137 0.42916 0.0
H705 H 0.35194 0.3024 0.36447 0.0
H706 H 0.34955 0.31582 0.39774 0.0
H707 H 0.35526 0.28627 0.39264 0.0
C708 C 0.37546 0.34043 0.47569 0.0
C709 C 0.36537 0.32243 0.48761 0.0
C710 C 0.38462 0.33726 0.45021 0.0
C711 C 0.38392 0.31605 0.43603 0.0
C712 C 0.37312 0.29815 0.4474 0.0
H713 H 0.48309 0.29766 0.30528 0.0
H714 H 0.45849 0.28784 0.34176 0.0
C715 C 0.36377 0.30135 0.47298 0.0
C716 C 0.39629 0.31267 0.41039 0.0
H717 H 0.38842 0.30272 0.34348 0.0
C718 C 0.4202 0.31705 0.41042 0.0
C719 C 0.38468 0.3071 0.38606 0.0
C720 C 0.35891 0.30275 0.38499 0.0
C721 C 0.43272 0.31689 0.38674 0.0
C722 C 0.42111 0.31159 0.36229 0.0
C723 C 0.3973 0.30653 0.36226 0.0
C724 C 0.43304 0.31369 0.33672 0.0
C725 C 0.45799 0.32362 0.38813 0.0
C726 C 0.42598 0.33037 0.32062 0.0
C727 C 0.43976 0.33575 0.29943 0.0
C728 C 0.46095 0.32463 0.29406 0.0
C729 C 0.46692 0.30659 0.30881 0.0
C730 C 0.45299 0.30109 0.32988 0.0
H731 H 0.46289 0.33169 0.40798 0.0
H732 H 0.46892 0.30846 0.38409 0.0
H733 H 0.46206 0.33545 0.37306 0.0
H734 H 0.41052 0.34017 0.3254 0.0
H735 H 0.43436 0.34936 0.28805 0.0
H736 H 0.2317 0.88313 0.0481 0.0
H737 H 0.25151 0.91656 0.03441 0.0
H738 H 0.18663 0.94103 0.00575 0.0
H739 H 0.16669 0.90802 0.01955 0.0
H740 H 0.25453 0.93689 0.98476 0.0
H741 H 0.20859 0.99039 0.06273 0.0
H742 H 0.20956 0.96019 0.06231 0.0
H743 H 0.18934 0.97338 0.04145 0.0
C744 C 0.22171 0.89551 0.03859 0.0
C745 C 0.19754 0.89311 0.03532 0.0
C746 C 0.23306 0.91457 0.03079 0.0
C747 C 0.22041 0.93142 0.0196 0.0
C748 C 0.19659 0.9284 0.01487 0.0
H749 H 0.24914 0.04472 0.9355 0.0
H750 H 0.24589 0.00668 0.94907 0.0
C751 C 0.18524 0.90949 0.02273 0.0
C752 C 0.23159 0.95282 0.01413 0.0
H753 H 0.22714 0.00932 0.02901 0.0
C754 C 0.24882 0.95276 0.99462 0.0
C755 C 0.22449 0.9734 0.0275 0.0
C756 C 0.20715 0.97441 0.04986 0.0
C757 C 0.25825 0.97295 0.98711 0.0
C758 C 0.24987 0.99363 0.99916 0.0
C759 C 0.2335 0.99352 0.01962 0.0
C760 C 0.25629 0.01565 0.98979 0.0
C761 C 0.27695 0.9719 0.96628 0.0
C762 C 0.26338 0.03341 0.00806 0.0
C763 C 0.26486 0.05526 0.00042 0.0
C764 C 0.25943 0.0597 0.97432 0.0
C765 C 0.25377 0.04172 0.95565 0.0
C766 C 0.25201 0.01992 0.96337 0.0
H767 H 0.28707 0.9561 0.96629 0.0
H768 H 0.26879 0.9722 0.94643 0.0
H769 H 0.28905 0.98637 0.96939 0.0
H770 H 0.2667 0.03054 0.02857 0.0
H771 H 0.26936 0.06882 0.01516 0.0
H772 H 0.58469 0.71352 0.50174 0.0
H773 H 0.54305 0.71893 0.4948 0.0
H774 H 0.535 0.64818 0.47217 0.0
H775 H 0.5765 0.6425 0.47885 0.0
H776 H 0.51292 0.70193 0.44451 0.0
H777 H 0.4917 0.66784 0.54042 0.0
H778 H 0.51965 0.67996 0.53405 0.0
H779 H 0.51238 0.65243 0.5194 0.0
C780 C 0.57413 0.69913 0.49502 0.0
C781 C 0.58391 0.67754 0.4911 0.0
C782 C 0.55038 0.70229 0.49104 0.0
C783 C 0.53608 0.68391 0.48323 0.0
C784 C 0.54585 0.66251 0.47837 0.0
H785 H 0.39284 0.65064 0.46628 0.0
H786 H 0.43485 0.65266 0.47184 0.0
C787 C 0.56956 0.65934 0.48218 0.0
C788 C 0.51072 0.68673 0.48138 0.0
H789 H 0.4603 0.67454 0.51211 0.0
C790 C 0.50132 0.69618 0.45934 0.0
C791 C 0.49584 0.67919 0.50085 0.0
C792 C 0.50528 0.6694 0.52516 0.0
C793 C 0.4772 0.69746 0.45572 0.0
C794 C 0.46226 0.68949 0.47498 0.0
C795 C 0.47178 0.68062 0.49738 0.0
C796 C 0.43673 0.68879 0.47157 0.0
C797 C 0.46793 0.70643 0.43082 0.0
C798 C 0.42379 0.70849 0.46984 0.0
C799 C 0.39967 0.70738 0.46666 0.0
C800 C 0.38812 0.68658 0.46551 0.0
C801 C 0.40117 0.66696 0.46754 0.0
C802 C 0.4252 0.66806 0.47056 0.0
H803 H 0.48156 0.70711 0.41544 0.0
H804 H 0.45335 0.69592 0.42239 0.0
H805 H 0.46134 0.72372 0.43567 0.0
H806 H 0.43231 0.7247 0.47114 0.0
H807 H 0.39004 0.72279 0.46539 0.0
H808 H 0.32773 0.36958 0.66482 0.0
H809 H 0.33658 0.39654 0.70299 0.0
H810 H 0.37725 0.43584 0.65267 0.0
H811 H 0.36854 0.40934 0.61465 0.0
H812 H 0.38164 0.41121 0.72401 0.0
H813 H 0.33033 0.48104 0.6887 0.0
H814 H 0.32619 0.45214 0.67587 0.0
H815 H 0.34968 0.46837 0.66403 0.0
C816 C 0.33851 0.384 0.66189 0.0
C817 C 0.34722 0.38741 0.6366 0.0
C818 C 0.34356 0.39933 0.68371 0.0
C819 C 0.35722 0.41834 0.68049 0.0
C820 C 0.36629 0.4215 0.65544 0.0
H821 H 0.42594 0.5299 0.75658 0.0
H822 H 0.40951 0.49842 0.72876 0.0
C823 C 0.36134 0.40625 0.63373 0.0
C824 C 0.36241 0.435 0.7031 0.0
H825 H 0.35929 0.49113 0.72178 0.0
C826 C 0.37641 0.42862 0.7239 0.0
C827 C 0.35541 0.45764 0.7029 0.0
C828 C 0.33938 0.4652 0.68181 0.0
C829 C 0.38482 0.44464 0.74362 0.0
C830 C 0.37888 0.46746 0.74247 0.0
C831 C 0.36392 0.47361 0.72246 0.0
C832 C 0.38961 0.48555 0.76026 0.0
C833 C 0.40098 0.43735 0.76471 0.0
C834 C 0.3839 0.48864 0.78725 0.0
C835 C 0.39338 0.50665 0.80333 0.0
C836 C 0.40875 0.52177 0.79261 0.0
C837 C 0.41454 0.51836 0.7656 0.0
C838 C 0.40503 0.50048 0.74961 0.0
H839 H 0.40581 0.41936 0.76119 0.0
H840 H 0.41704 0.44768 0.76551 0.0
H841 H 0.39245 0.44 0.78435 0.0
H842 H 0.37183 0.47738 0.79573 0.0
H843 H 0.38865 0.5088 0.82408 0.0
H844 H 0.09326 0.78527 0.093 0.0
H845 H 0.05251 0.77674 0.10198 0.0
H846 H 0.03157 0.83795 0.06963 0.0
H847 H 0.07187 0.84653 0.06042 0.0
H848 H 0.01914 0.80257 0.13298 0.0
H849 H 0.99241 0.78943 0.02762 0.0
H850 H 0.02244 0.78936 0.03795 0.0
H851 H 0.00754 0.81548 0.03513 0.0
C852 C 0.07996 0.7969 0.08779 0.0
C853 C 0.08582 0.81647 0.0757 0.0
C854 C 0.05672 0.79199 0.09294 0.0
C855 C 0.03904 0.80648 0.08593 0.0
C856 C 0.04492 0.82627 0.07459 0.0
H857 H 0.89878 0.83966 0.10241 0.0
H858 H 0.94022 0.83485 0.09459 0.0
C859 C 0.06802 0.83119 0.06946 0.0
C860 C 0.01434 0.8014 0.09068 0.0
H861 H 0.96183 0.79722 0.05931 0.0
C862 C 0.00661 0.8009 0.11689 0.0
C863 C 0.99811 0.79907 0.0696 0.0
C864 C 0.00556 0.79812 0.04097 0.0
C865 C 0.98283 0.79966 0.12264 0.0
C866 C 0.96658 0.79876 0.10162 0.0
C867 C 0.9744 0.79803 0.07537 0.0
C868 C 0.9414 0.80102 0.1065 0.0
C869 C 0.97509 0.80058 0.15114 0.0
C870 C 0.92835 0.78346 0.11563 0.0
C871 C 0.90445 0.78604 0.11983 0.0
C872 C 0.8933 0.80621 0.11492 0.0
C873 C 0.90662 0.82372 0.10584 0.0
C874 C 0.93036 0.82109 0.10155 0.0
H875 H 0.98986 0.80294 0.16527 0.0
H876 H 0.96259 0.81455 0.15535 0.0
H877 H 0.96603 0.78473 0.15465 0.0
H878 H 0.9366 0.76777 0.11931 0.0
H879 H 0.89469 0.77216 0.12661 0.0
H880 H 0.67031 0.60757 0.57169 0.0
H881 H 0.68842 0.57574 0.59082 0.0
H882 H 0.73846 0.57032 0.52745 0.0
H883 H 0.72077 0.60234 0.50842 0.0
H884 H 0.69044 0.5338 0.56551 0.0
H885 H 0.77935 0.56358 0.59186 0.0
H886 H 0.75608 0.58248 0.58508 0.0
H887 H 0.77141 0.56741 0.55824 0.0
C888 C 0.68539 0.59984 0.56202 0.0
C889 C 0.69399 0.60742 0.53841 0.0
C890 C 0.69574 0.58168 0.57303 0.0
C891 C 0.71494 0.57082 0.56073 0.0
C892 C 0.72399 0.57875 0.53761 0.0
H893 H 0.76044 0.43454 0.56235 0.0
H894 H 0.75405 0.47327 0.55182 0.0
C895 C 0.71371 0.59696 0.52663 0.0
C896 C 0.72387 0.5498 0.57044 0.0
H897 H 0.77287 0.52383 0.59052 0.0
C898 C 0.7084 0.53173 0.57126 0.0
C899 C 0.74733 0.54713 0.57789 0.0
C900 C 0.76447 0.56625 0.57849 0.0
C901 C 0.71586 0.51091 0.57871 0.0
C902 C 0.7394 0.50807 0.58541 0.0
C903 C 0.75486 0.52615 0.58514 0.0
C904 C 0.74787 0.4861 0.59243 0.0
C905 C 0.69866 0.49189 0.57908 0.0
C906 C 0.74722 0.48084 0.61884 0.0
C907 C 0.75071 0.45873 0.62492 0.0
C908 C 0.75481 0.4416 0.6046 0.0
C909 C 0.75704 0.44733 0.57836 0.0
C910 C 0.75355 0.46942 0.57233 0.0
H911 H 0.68071 0.49717 0.57458 0.0
H912 H 0.70375 0.47802 0.56421 0.0
H913 H 0.69881 0.48516 0.59884 0.0
H914 H 0.74266 0.49355 0.63454 0.0
H915 H 0.74861 0.45485 0.64527 0.0
H916 H 0.86089 0.14326 0.1009 0.0
H917 H 0.87549 0.14798 0.14626 0.0
H918 H 0.89243 0.21708 0.13671 0.0
H919 H 0.87808 0.21246 0.09099 0.0
H920 H 0.92905 0.19364 0.15419 0.0
H921 H 0.85228 0.1793 0.21558 0.0
H922 H 0.85548 0.15753 0.18914 0.0
H923 H 0.84994 0.18589 0.1815 0.0
C924 C 0.86737 0.15959 0.10851 0.0
C925 C 0.86849 0.17743 0.0922 0.0
C926 C 0.8755 0.16232 0.13459 0.0
C927 C 0.88473 0.18298 0.14501 0.0
C928 C 0.88517 0.20106 0.12911 0.0
H929 H 0.94935 0.1879 0.30483 0.0
H930 H 0.92559 0.20025 0.26827 0.0
C931 C 0.877 0.19836 0.10298 0.0
C932 C 0.89647 0.18464 0.17118 0.0
H933 H 0.88975 0.17157 0.23505 0.0
C934 C 0.92032 0.18937 0.17203 0.0
C935 C 0.88506 0.1793 0.19453 0.0
C936 C 0.85922 0.17546 0.19523 0.0
C937 C 0.93338 0.18722 0.19507 0.0
C938 C 0.9223 0.18 0.21768 0.0
C939 C 0.89819 0.1769 0.21753 0.0
C940 C 0.93596 0.1728 0.24014 0.0
C941 C 0.95914 0.19164 0.19471 0.0
C942 C 0.94924 0.1532 0.23636 0.0
C943 C 0.9626 0.14612 0.257 0.0
C944 C 0.96294 0.15849 0.28194 0.0
C945 C 0.94945 0.1781 0.2858 0.0
C946 C 0.93587 0.18512 0.26504 0.0
H947 H 0.96394 0.2024 0.17876 0.0
H948 H 0.96512 0.19986 0.21407 0.0
H949 H 0.96844 0.17543 0.19107 0.0
H950 H 0.94938 0.14343 0.21729 0.0
H951 H 0.97308 0.13117 0.25324 0.0
H952 H 0.1752 0.76268 0.11346 0.0
H953 H 0.18119 0.74417 0.15417 0.0
H954 H 0.1754 0.80803 0.20042 0.0
H955 H 0.1701 0.8267 0.15986 0.0
H956 H 0.21316 0.78638 0.21342 0.0
H957 H 0.13832 0.72815 0.21239 0.0
H958 H 0.15482 0.72477 0.18232 0.0
H959 H 0.13987 0.75077 0.19106 0.0
C960 C 0.1749 0.77272 0.13234 0.0
C961 C 0.17236 0.79616 0.13345 0.0
C962 C 0.17814 0.76209 0.1556 0.0
C963 C 0.17845 0.77468 0.18037 0.0
C964 C 0.17519 0.79799 0.18153 0.0
H965 H 0.18831 0.71961 0.33454 0.0
H966 H 0.17428 0.73716 0.29545 0.0
C967 C 0.17222 0.80863 0.15832 0.0
C968 C 0.18427 0.76396 0.20486 0.0
H969 H 0.1694 0.72134 0.24226 0.0
C970 C 0.20344 0.77228 0.21983 0.0
C971 C 0.17142 0.74576 0.2134 0.0
C972 C 0.14982 0.73698 0.1991 0.0
C973 C 0.21047 0.76259 0.24274 0.0
C974 C 0.19839 0.74364 0.25049 0.0
C975 C 0.17881 0.73567 0.23601 0.0
C976 C 0.20617 0.73177 0.27338 0.0
C977 C 0.23068 0.77288 0.25853 0.0
C978 C 0.22846 0.72243 0.27355 0.0
C979 C 0.23651 0.71257 0.29579 0.0
C980 C 0.2223 0.71161 0.31816 0.0
C981 C 0.1996 0.72011 0.31754 0.0
C982 C 0.1916 0.73015 0.29529 0.0
H983 H 0.23346 0.79068 0.2546 0.0
H984 H 0.22799 0.77213 0.28014 0.0
H985 H 0.24671 0.76346 0.25278 0.0
H986 H 0.23975 0.72299 0.25656 0.0
H987 H 0.25391 0.70573 0.29553 0.0
H988 H 0.70223 0.73619 0.54352 0.0
H989 H 0.73508 0.75594 0.56551 0.0
H990 H 0.77527 0.69499 0.55764 0.0
H991 H 0.7426 0.67505 0.53538 0.0
H992 H 0.75862 0.74632 0.61227 0.0
H993 H 0.81697 0.7414 0.52473 0.0
H994 H 0.78618 0.7361 0.52195 0.0
H995 H 0.80521 0.71505 0.53301 0.0
C996 C 0.71805 0.72695 0.54638 0.0
C997 C 0.71982 0.70406 0.53747 0.0
C998 C 0.73679 0.73827 0.55899 0.0
C999 C 0.75767 0.72699 0.56283 0.0
C1000 C 0.75942 0.70408 0.55441 0.0
H1001 H 0.86977 0.77885 0.66742 0.0
H1002 H 0.8397 0.75512 0.64507 0.0
C1003 C 0.74068 0.69271 0.5418 0.0
C1004 C 0.7775 0.73925 0.5759 0.0
H1005 H 0.83277 0.75703 0.56545 0.0
C1006 C 0.77486 0.74862 0.6021 0.0
C1007 C 0.79855 0.74237 0.56241 0.0
C1008 C 0.80195 0.73339 0.5339 0.0
C1009 C 0.79277 0.76106 0.61524 0.0
C1010 C 0.81394 0.76393 0.60189 0.0
C1011 C 0.81657 0.7546 0.57567 0.0
C1012 C 0.83317 0.77743 0.61447 0.0
C1013 C 0.7887 0.77152 0.64306 0.0
C1014 C 0.83993 0.79743 0.60413 0.0
C1015 C 0.8572 0.81092 0.6167 0.0
C1016 C 0.86812 0.80457 0.63978 0.0
C1017 C 0.8618 0.78413 0.64959 0.0
C1018 C 0.84448 0.77067 0.63702 0.0
H1019 H 0.77 0.77179 0.64831 0.0
H1020 H 0.79801 0.76164 0.65732 0.0
H1021 H 0.79549 0.78898 0.64546 0.0
H1022 H 0.8315 0.80283 0.58663 0.0
H1023 H 0.86192 0.8264 0.60845 0.0
H1024 H 0.75663 0.1873 0.01282 0.0
H1025 H 0.72302 0.20664 0.0336 0.0
H1026 H 0.76816 0.24328 0.09009 0.0
H1027 H 0.80181 0.22423 0.06953 0.0
H1028 H 0.70818 0.20859 0.08846 0.0
H1029 H 0.7302 0.29236 0.05613 0.0
H1030 H 0.74274 0.26668 0.04108 0.0
H1031 H 0.75349 0.27903 0.07241 0.0
C1032 C 0.75943 0.1995 0.02964 0.0
C1033 C 0.78196 0.20437 0.03934 0.0
C1034 C 0.7402 0.21048 0.0415 0.0
C1035 C 0.7432 0.22659 0.06308 0.0
C1036 C 0.76556 0.23117 0.07313 0.0
H1037 H 0.66329 0.31557 0.16778 0.0
H1038 H 0.69255 0.29293 0.14314 0.0
C1039 C 0.78476 0.22019 0.06139 0.0
C1040 C 0.72302 0.23871 0.07527 0.0
H1041 H 0.70075 0.29127 0.08877 0.0
C1042 C 0.70635 0.22663 0.08834 0.0
C1043 C 0.72074 0.26221 0.07493 0.0
C1044 C 0.73761 0.27586 0.06019 0.0
C1045 C 0.68792 0.23763 0.10211 0.0
C1046 C 0.686 0.26123 0.10235 0.0
C1047 C 0.70234 0.27318 0.08864 0.0
C1048 C 0.66786 0.27411 0.11769 0.0
C1049 C 0.6712 0.22405 0.11712 0.0
C1050 C 0.64424 0.27102 0.11154 0.0
C1051 C 0.62742 0.28401 0.1256 0.0
C1052 C 0.63401 0.30044 0.14584 0.0
C1053 C 0.65768 0.30331 0.15203 0.0
C1054 C 0.67441 0.29031 0.13806 0.0
H1055 H 0.67796 0.20698 0.11967 0.0
H1056 H 0.66748 0.23266 0.13698 0.0
H1057 H 0.6546 0.2222 0.10598 0.0
H1058 H 0.63885 0.25888 0.09555 0.0
H1059 H 0.60934 0.28158 0.1202 0.0
H1060 H 0.36311 0.2794 0.63377 0.0
H1061 H 0.35971 0.25913 0.6738 0.0
H1062 H 0.28804 0.27899 0.68147 0.0
H1063 H 0.29118 0.29929 0.64195 0.0
H1064 H 0.34084 0.28033 0.72824 0.0
H1065 H 0.2918 0.20715 0.68136 0.0
H1066 H 0.31066 0.22416 0.66281 0.0
H1067 H 0.28238 0.23423 0.67263 0.0
C1068 C 0.34661 0.27936 0.64395 0.0
C1069 C 0.32739 0.29089 0.63462 0.0
C1070 C 0.34475 0.26784 0.66679 0.0
C1071 C 0.32358 0.26749 0.68032 0.0
C1072 C 0.30445 0.27896 0.67109 0.0
H1073 H 0.24982 0.22285 0.80824 0.0
H1074 H 0.26555 0.23694 0.76827 0.0
C1075 C 0.30633 0.29059 0.64853 0.0
C1076 C 0.3211 0.2555 0.70442 0.0
H1077 H 0.2908 0.21276 0.72851 0.0
C1078 C 0.33033 0.26528 0.72837 0.0
C1079 C 0.30733 0.23596 0.70431 0.0
C1080 C 0.29757 0.22458 0.67889 0.0
C1081 C 0.3249 0.25674 0.7526 0.0
C1082 C 0.3102 0.23777 0.75261 0.0
C1083 C 0.302 0.22735 0.72844 0.0
C1084 C 0.30129 0.22966 0.77746 0.0
C1085 C 0.33378 0.26884 0.77806 0.0
C1086 C 0.3162 0.2209 0.79592 0.0
C1087 C 0.30725 0.21305 0.81907 0.0
C1088 C 0.28323 0.21375 0.82404 0.0
C1089 C 0.26842 0.22247 0.80536 0.0
C1090 C 0.27736 0.23034 0.78235 0.0
H1091 H 0.34139 0.28547 0.77487 0.0
H1092 H 0.3196 0.27131 0.79281 0.0
H1093 H 0.34744 0.25855 0.78659 0.0
H1094 H 0.33469 0.21993 0.79232 0.0
H1095 H 0.31912 0.20652 0.83311 0.0
H1096 H 0.63795 0.72394 0.44255 0.0
H1097 H 0.64127 0.74171 0.40081 0.0
H1098 H 0.70798 0.71048 0.3867 0.0
H1099 H 0.70478 0.69255 0.42786 0.0
H1100 H 0.67554 0.77113 0.38521 0.0
H1101 H 0.6734 0.69339 0.31744 0.0
H1102 H 0.66437 0.69411 0.35164 0.0
H1103 H 0.69466 0.69202 0.34319 0.0
C1104 C 0.6533 0.72083 0.43051 0.0
C1105 C 0.67107 0.70676 0.43852 0.0
C1106 C 0.65514 0.73097 0.40668 0.0
C1107 C 0.67465 0.72703 0.39044 0.0
C1108 C 0.69251 0.71329 0.39861 0.0
H1109 H 0.75095 0.77464 0.26688 0.0
H1110 H 0.73373 0.75824 0.3047 0.0
C1111 C 0.69071 0.70318 0.4223 0.0
C1112 C 0.67709 0.7378 0.36535 0.0
H1113 H 0.69027 0.72599 0.29993 0.0
C1114 C 0.67824 0.76132 0.36642 0.0
C1115 C 0.68043 0.72495 0.34084 0.0
C1116 C 0.67791 0.69973 0.33811 0.0
C1117 C 0.68421 0.77222 0.34392 0.0
C1118 C 0.68905 0.75923 0.31993 0.0
C1119 C 0.68667 0.73584 0.31849 0.0
C1120 C 0.69892 0.7694 0.29691 0.0
C1121 C 0.68658 0.79744 0.34614 0.0
C1122 C 0.68493 0.78101 0.28003 0.0
C1123 C 0.69467 0.79021 0.2581 0.0
C1124 C 0.71857 0.78791 0.25279 0.0
C1125 C 0.73244 0.77635 0.27001 0.0
C1126 C 0.72268 0.7671 0.29175 0.0
H1127 H 0.68278 0.80509 0.36645 0.0
H1128 H 0.70446 0.80216 0.34069 0.0
H1129 H 0.67449 0.80458 0.33199 0.0
H1130 H 0.6665 0.78279 0.28371 0.0
H1131 H 0.68346 0.79881 0.24511 0.0
H1132 H 0.8325 0.1739 0.91384 0.0
H1133 H 0.82725 0.19285 0.87346 0.0
H1134 H 0.82083 0.25638 0.9203 0.0
H1135 H 0.8268 0.2376 0.9608 0.0
H1136 H 0.78954 0.21416 0.86037 0.0
H1137 H 0.86348 0.27345 0.86257 0.0
H1138 H 0.86214 0.25069 0.88371 0.0
H1139 H 0.84685 0.27648 0.89255 0.0
C1140 C 0.83025 0.19196 0.91554 0.0
C1141 C 0.82994 0.20426 0.94051 0.0
C1142 C 0.82732 0.20276 0.89244 0.0
C1143 C 0.82391 0.22607 0.8938 0.0
C1144 C 0.82402 0.23847 0.91869 0.0
H1145 H 0.74689 0.29524 0.78062 0.0
H1146 H 0.76197 0.27807 0.81922 0.0
C1147 C 0.82724 0.22769 0.94184 0.0
C1148 C 0.81804 0.23694 0.86943 0.0
H1149 H 0.83219 0.28037 0.83291 0.0
C1150 C 0.79904 0.2285 0.85426 0.0
C1151 C 0.8306 0.25547 0.86124 0.0
C1152 C 0.85205 0.26441 0.87572 0.0
C1153 C 0.79184 0.23841 0.83156 0.0
C1154 C 0.80357 0.2577 0.82423 0.0
C1155 C 0.82303 0.26577 0.83884 0.0
C1156 C 0.79542 0.26986 0.80173 0.0
C1157 C 0.77179 0.22802 0.81558 0.0
C1158 C 0.80965 0.27184 0.7796 0.0
C1159 C 0.80111 0.28182 0.75754 0.0
C1160 C 0.77823 0.28989 0.75736 0.0
C1161 C 0.76443 0.28873 0.78003 0.0
C1162 C 0.773 0.27893 0.80206 0.0
H1163 H 0.7693 0.2101 0.81914 0.0
H1164 H 0.75561 0.23713 0.82149 0.0
H1165 H 0.77445 0.22913 0.79401 0.0
H1166 H 0.82707 0.26505 0.77908 0.0
H1167 H 0.8121 0.2825 0.74031 0.0
H1168 H 0.25404 0.32417 0.54144 0.0
H1169 H 0.22142 0.30396 0.51938 0.0
H1170 H 0.26296 0.24396 0.50873 0.0
H1171 H 0.29573 0.26399 0.53049 0.0
H1172 H 0.23835 0.25408 0.46295 0.0
H1173 H 0.18154 0.2558 0.55166 0.0
H1174 H 0.19246 0.28261 0.54387 0.0
H1175 H 0.21223 0.26176 0.55395 0.0
C1176 C 0.25625 0.30666 0.53444 0.0
C1177 C 0.27747 0.29565 0.53792 0.0
C1178 C 0.23755 0.29513 0.52196 0.0
C1179 C 0.23971 0.27241 0.5128 0.0
C1180 C 0.26094 0.26148 0.5158 0.0
H1181 H 0.13797 0.17069 0.46731 0.0
H1182 H 0.16793 0.19494 0.48895 0.0
C1183 C 0.27963 0.27296 0.52829 0.0
C1184 C 0.21996 0.25995 0.49984 0.0
H1185 H 0.16554 0.24032 0.51101 0.0
C1186 C 0.22239 0.25112 0.47339 0.0
C1187 C 0.1993 0.25597 0.51367 0.0
C1188 C 0.19617 0.26435 0.54243 0.0
C1189 C 0.20466 0.23836 0.46035 0.0
C1190 C 0.18387 0.2346 0.47407 0.0
C1191 C 0.18144 0.24343 0.50052 0.0
C1192 C 0.1649 0.22066 0.46163 0.0
C1193 C 0.20855 0.22848 0.43225 0.0
C1194 C 0.15299 0.22735 0.43945 0.0
C1195 C 0.13595 0.21348 0.42696 0.0
C1196 C 0.13051 0.19271 0.43651 0.0
C1197 C 0.14202 0.18642 0.45924 0.0
C1198 C 0.15902 0.20031 0.47172 0.0
H1199 H 0.22715 0.22885 0.42663 0.0
H1200 H 0.20229 0.21085 0.42956 0.0
H1201 H 0.19866 0.23835 0.41845 0.0
H1202 H 0.15708 0.24316 0.4316 0.0
H1203 H 0.12751 0.21874 0.40939 0.0
H1204 H 0.20114 0.77627 0.00386 0.0
H1205 H 0.23494 0.7578 0.9829 0.0
H1206 H 0.27974 0.79382 0.04031 0.0
H1207 H 0.24598 0.81222 0.06175 0.0
H1208 H 0.27359 0.77734 0.96056 0.0
H1209 H 0.29899 0.72815 0.04436 0.0
H1210 H 0.27099 0.7414 0.04254 0.0
H1211 H 0.29614 0.75789 0.05239 0.0
C1212 C 0.21815 0.78024 0.01216 0.0
C1213 C 0.22081 0.79561 0.03465 0.0
C1214 C 0.23745 0.76968 9e-05 0.0
C1215 C 0.25978 0.77421 0.01028 0.0
C1216 C 0.2626 0.78976 0.03247 0.0
H1217 H 0.3924 0.71521 0.95616 0.0
H1218 H 0.36313 0.73937 0.97927 0.0
C1219 C 0.24328 0.80033 0.04461 0.0
C1220 C 0.28004 0.76277 0.99731 0.0
H1221 H 0.32318 0.72516 0.00669 0.0
C1222 C 0.28449 0.76599 0.97066 0.0
C1223 C 0.29428 0.74807 0.01061 0.0
C1224 C 0.28984 0.74346 0.03899 0.0
C1225 C 0.30267 0.75471 0.95684 0.0
C1226 C 0.31651 0.73957 0.96993 0.0
C1227 C 0.3125 0.7368 0.99677 0.0
C1228 C 0.33435 0.72548 0.95566 0.0
C1229 C 0.3069 0.75906 0.92834 0.0
C1230 C 0.32777 0.70958 0.93497 0.0
C1231 C 0.34436 0.69584 0.92179 0.0
C1232 C 0.36789 0.69765 0.92912 0.0
C1233 C 0.37445 0.71359 0.9499 0.0
C1234 C 0.35777 0.72731 0.96318 0.0
H1235 H 0.29933 0.77532 0.92362 0.0
H1236 H 0.32575 0.75913 0.92389 0.0
H1237 H 0.29862 0.74553 0.91513 0.0
H1238 H 0.30972 0.70767 0.92916 0.0
H1239 H 0.33878 0.6839 0.90569 0.0
loop_
_geom_bond_atom_site_label_1
_geom_bond_atom_site_label_2
_geom_bond_distance
_geom_bond_site_symmetry_2
_ccdc_geom_bond_type
Fe0 O2 1.918 . S
Fe0 O5 1.997 . S
Fe0 O6 2.002 . S
Fe0 O11 1.976 . S
Fe0 O14 1.996 . S
Fe1 O2 1.918 . S
Fe1 O9 1.997 . S
Fe1 O12 1.996 . S
Fe1 O16 1.976 . S
Fe1 O19 2.002 . S
O2 Fe0 1.918 . S
O2 Fe1 1.918 . S
O2 Fe3 1.918 . S
Fe3 O2 1.918 . S
Fe3 O4 2.002 . S
Fe3 O13 1.976 . S
Fe3 O17 1.996 . S
Fe3 O20 1.997 . S
O4 Fe3 2.002 . S
O4 C21 1.295 . S
O5 Fe0 1.997 . S
O5 C21 1.235 . S
O6 Fe0 2.002 . S
O6 C7 1.295 . S
C7 O6 1.295 . S
C7 O9 1.235 . S
C8 O13 1.287 . S
C8 O14 1.255 . S
O9 Fe1 1.997 . S
O9 C7 1.235 . S
C10 O16 1.287 . S
C10 O17 1.255 . S
O11 Fe0 1.976 . S
O11 C18 1.287 . S
O12 Fe1 1.996 . S
O12 C18 1.255 . S
O13 Fe3 1.976 . S
O13 C8 1.287 . S
O14 Fe0 1.996 . S
O14 C8 1.255 . S
C15 O19 1.295 . S
C15 O20 1.235 . S
O16 Fe1 1.976 . S
O16 C10 1.287 . S
O17 Fe3 1.996 . S
O17 C10 1.255 . S
C18 O11 1.287 . S
C18 O12 1.255 . S
O19 Fe1 2.002 . S
O19 C15 1.295 . S
O20 Fe3 1.997 . S
O20 C15 1.235 . S
C21 O4 1.295 . S
C21 O5 1.235 . S
Fe22 O24 1.918 . S
Fe22 O27 1.997 . S
Fe22 O28 2.002 . S
Fe22 O33 1.976 . S
Fe22 O36 1.996 . S
Fe23 O24 1.918 . S
Fe23 O31 1.997 . S
Fe23 O34 1.996 . S
Fe23 O38 1.976 . S
Fe23 O41 2.002 . S
O24 Fe22 1.918 . S
O24 Fe23 1.918 . S
O24 Fe25 1.918 . S
Fe25 O24 1.918 . S
Fe25 O26 2.002 . S
Fe25 O35 1.976 . S
Fe25 O39 1.996 . S
Fe25 O42 1.997 . S
O26 Fe25 2.002 . S
O26 C43 1.295 . S
O27 Fe22 1.997 . S
O27 C43 1.235 . S
O28 Fe22 2.002 . S
O28 C29 1.295 . S
C29 O28 1.295 . S
C29 O31 1.235 . S
C30 O35 1.287 . S
C30 O36 1.255 . S
O31 Fe23 1.997 . S
O31 C29 1.235 . S
C32 O38 1.287 . S
C32 O39 1.255 . S
O33 Fe22 1.976 . S
O33 C40 1.287 . S
O34 Fe23 1.996 . S
O34 C40 1.255 . S
O35 Fe25 1.976 . S
O35 C30 1.287 . S
O36 Fe22 1.996 . S
O36 C30 1.255 . S
C37 O41 1.295 . S
C37 O42 1.235 . S
O38 Fe23 1.976 . S
O38 C32 1.287 . S
O39 Fe25 1.996 . S
O39 C32 1.255 . S
C40 O33 1.287 . S
C40 O34 1.255 . S
O41 Fe23 2.002 . S
O41 C37 1.295 . S
O42 Fe25 1.997 . S
O42 C37 1.235 . S
C43 O26 1.295 . S
C43 O27 1.235 . S
Fe44 O46 1.918 . S
Fe44 O49 1.997 1_554 S
Fe44 O50 2.002 . S
Fe44 O55 1.976 . S
Fe44 O58 1.996 . S
Fe45 O46 1.918 . S
Fe45 O53 1.997 . S
Fe45 O56 1.996 . S
Fe45 O60 1.976 . S
Fe45 O63 2.002 1_554 S
O46 Fe44 1.918 . S
O46 Fe45 1.918 . S
O46 Fe47 1.918 1_554 S
Fe47 O46 1.918 1_556 S
Fe47 O48 2.002 . S
Fe47 O57 1.976 1_556 S
Fe47 O61 1.996 1_556 S
Fe47 O64 1.997 . S
O48 Fe47 2.002 . S
O48 C65 1.295 . S
O49 Fe44 1.997 1_556 S
O49 C65 1.235 . S
O50 Fe44 2.002 . S
O50 C51 1.295 1_554 S
C51 O50 1.295 1_556 S
C51 O53 1.235 1_556 S
C52 O57 1.287 . S
C52 O58 1.255 . S
O53 Fe45 1.997 . S
O53 C51 1.235 1_554 S
C54 O60 1.287 . S
C54 O61 1.255 . S
O55 Fe44 1.976 . S
O55 C62 1.287 . S
O56 Fe45 1.996 . S
O56 C62 1.255 . S
O57 Fe47 1.976 1_554 S
O57 C52 1.287 . S
O58 Fe44 1.996 . S
O58 C52 1.255 . S
C59 O63 1.295 . S
C59 O64 1.235 . S
O60 Fe45 1.976 . S
O60 C54 1.287 . S
O61 Fe47 1.996 1_554 S
O61 C54 1.255 . S
C62 O55 1.287 . S
C62 O56 1.255 . S
O63 Fe45 2.002 1_556 S
O63 C59 1.295 . S
O64 Fe47 1.997 . S
O64 C59 1.235 . S
C65 O48 1.295 . S
C65 O49 1.235 . S
Fe66 O68 1.918 . S
Fe66 O71 1.997 . S
Fe66 O72 2.002 . S
Fe66 O77 1.976 . S
Fe66 O80 1.996 . S
Fe67 O68 1.918 . S
Fe67 O75 1.997 . S
Fe67 O78 1.996 . S
Fe67 O82 1.976 . S
Fe67 O85 2.002 . S
O68 Fe66 1.918 . S
O68 Fe67 1.918 . S
O68 Fe69 1.918 . S
Fe69 O68 1.918 . S
Fe69 O70 2.002 . S
Fe69 O79 1.976 . S
Fe69 O83 1.996 . S
Fe69 O86 1.997 . S
O70 Fe69 2.002 . S
O70 C87 1.295 . S
O71 Fe66 1.997 . S
O71 C87 1.235 . S
O72 Fe66 2.002 . S
O72 C73 1.295 . S
C73 O72 1.295 . S
C73 O75 1.235 . S
C74 O79 1.287 . S
C74 O80 1.255 . S
O75 Fe67 1.997 . S
O75 C73 1.235 . S
C76 O82 1.287 . S
C76 O83 1.255 . S
O77 Fe66 1.976 . S
O77 C84 1.287 . S
O78 Fe67 1.996 . S
O78 C84 1.255 . S
O79 Fe69 1.976 . S
O79 C74 1.287 . S
O80 Fe66 1.996 . S
O80 C74 1.255 . S
C81 O85 1.295 . S
C81 O86 1.235 . S
O82 Fe67 1.976 . S
O82 C76 1.287 . S
O83 Fe69 1.996 . S
O83 C76 1.255 . S
C84 O77 1.287 . S
C84 O78 1.255 . S
O85 Fe67 2.002 . S
O85 C81 1.295 . S
O86 Fe69 1.997 . S
O86 C81 1.235 . S
C87 O70 1.295 . S
C87 O71 1.235 . S
C88 C89 1.384 1_455 S
C88 H101 0.947 1_455 S
C88 C123 1.382 . S
C89 C88 1.384 1_655 S
C89 C90 1.378 1_655 S
C90 C89 1.378 1_455 S
C90 C91 1.378 . S
C90 H102 0.952 . S
C91 C90 1.378 . S
C91 H103 0.950 . S
C91 C122 1.383 . S
H92 C111 0.947 . S
H93 C112 0.946 . S
H94 C114 0.953 . S
H95 C115 0.945 . S
H96 C117 0.952 . S
H97 C118 0.949 . S
H98 C120 0.950 . S
H99 C121 0.948 . S
H100 C123 0.951 . S
H101 C88 0.947 1_655 S
H102 C90 0.952 . S
H103 C91 0.950 . S
N104 C107 1.382 . S
N104 C109 1.363 . S
N105 C107 1.371 . S
N105 C108 1.372 . S
N106 C108 1.361 . S
N106 C109 1.377 . S
C107 N104 1.382 . S
C107 N105 1.371 . S
C107 C110 1.480 . S
C108 N105 1.372 . S
C108 N106 1.361 . S
C108 C116 1.457 . S
C109 N104 1.363 . S
C109 N106 1.377 . S
C109 C122 1.479 . S
C110 C107 1.480 . S
C110 C111 1.383 . S
C110 C115 1.385 . S
C111 H92 0.947 . S
C111 C110 1.383 . S
C111 C112 1.388 . S
C112 H93 0.946 . S
C112 C111 1.388 . S
C112 C113 1.384 . S
C113 C112 1.384 . S
C113 C114 1.377 . S
C114 H94 0.953 . S
C114 C113 1.377 . S
C114 C115 1.369 . S
C115 H95 0.945 . S
C115 C110 1.385 . S
C115 C114 1.369 . S
C116 C108 1.457 . S
C116 C117 1.372 . S
C116 C121 1.364 . S
C117 H96 0.952 . S
C117 C116 1.372 . S
C117 C118 1.389 . S
C118 H97 0.949 . S
C118 C117 1.389 . S
C118 C119 1.387 . S
C119 C118 1.387 . S
C119 C120 1.372 . S
C120 H98 0.950 . S
C120 C119 1.372 . S
C120 C121 1.379 . S
C121 H99 0.948 . S
C121 C116 1.364 . S
C121 C120 1.379 . S
C122 C91 1.383 . S
C122 C109 1.479 . S
C122 C123 1.398 . S
C123 C88 1.382 . S
C123 H100 0.951 . S
C123 C122 1.398 . S
C124 C125 1.384 . S
C124 H137 0.947 . S
C124 C159 1.382 . S
C125 C124 1.384 . S
C125 C126 1.378 . S
C126 C125 1.378 . S
C126 C127 1.378 . S
C126 H138 0.952 . S
C127 C126 1.378 . S
C127 H139 0.950 . S
C127 C158 1.383 . S
H128 C147 0.947 . S
H129 C148 0.946 . S
H130 C150 0.953 . S
H131 C151 0.945 . S
H132 C153 0.952 . S
H133 C154 0.949 . S
H134 C156 0.950 . S
H135 C157 0.948 . S
H136 C159 0.951 . S
H137 C124 0.947 . S
H138 C126 0.952 . S
H139 C127 0.950 . S
N140 C143 1.382 . S
N140 C145 1.363 . S
N141 C143 1.371 . S
N141 C144 1.372 . S
N142 C144 1.361 . S
N142 C145 1.377 . S
C143 N140 1.382 . S
C143 N141 1.371 . S
C143 C146 1.480 . S
C144 N141 1.372 . S
C144 N142 1.361 . S
C144 C152 1.457 . S
C145 N140 1.363 . S
C145 N142 1.377 . S
C145 C158 1.479 . S
C146 C143 1.480 . S
C146 C147 1.383 . S
C146 C151 1.385 . S
C147 H128 0.947 . S
C147 C146 1.383 . S
C147 C148 1.388 . S
C148 H129 0.946 . S
C148 C147 1.388 . S
C148 C149 1.384 . S
C149 C148 1.384 . S
C149 C150 1.377 . S
C150 H130 0.953 . S
C150 C149 1.377 . S
C150 C151 1.369 . S
C151 H131 0.945 . S
C151 C146 1.385 . S
C151 C150 1.369 . S
C152 C144 1.457 . S
C152 C153 1.372 . S
C152 C157 1.364 . S
C153 H132 0.952 . S
C153 C152 1.372 . S
C153 C154 1.389 . S
C154 H133 0.949 . S
C154 C153 1.389 . S
C154 C155 1.387 . S
C155 C154 1.387 . S
C155 C156 1.372 . S
C156 H134 0.950 . S
C156 C155 1.372 . S
C156 C157 1.379 . S
C157 H135 0.948 . S
C157 C152 1.364 . S
C157 C156 1.379 . S
C158 C127 1.383 . S
C158 C145 1.479 . S
C158 C159 1.398 . S
C159 C124 1.382 . S
C159 H136 0.951 . S
C159 C158 1.398 . S
C160 C161 1.384 . S
C160 H173 0.947 . S
C160 C195 1.382 . S
C161 C160 1.384 . S
C161 C162 1.378 . S
C162 C161 1.378 . S
C162 C163 1.378 . S
C162 H174 0.952 . S
C163 C162 1.378 . S
C163 H175 0.950 . S
C163 C194 1.383 . S
H164 C183 0.947 . S
H165 C184 0.946 . S
H166 C186 0.953 . S
H167 C187 0.945 . S
H168 C189 0.952 . S
H169 C190 0.949 . S
H170 C192 0.950 . S
H171 C193 0.948 . S
H172 C195 0.951 . S
H173 C160 0.947 . S
H174 C162 0.952 . S
H175 C163 0.950 . S
N176 C179 1.382 . S
N176 C181 1.363 . S
N177 C179 1.371 . S
N177 C180 1.372 . S
N178 C180 1.361 . S
N178 C181 1.377 . S
C179 N176 1.382 . S
C179 N177 1.371 . S
C179 C182 1.480 . S
C180 N177 1.372 . S
C180 N178 1.361 . S
C180 C188 1.457 . S
C181 N176 1.363 . S
C181 N178 1.377 . S
C181 C194 1.479 . S
C182 C179 1.480 . S
C182 C183 1.383 . S
C182 C187 1.385 . S
C183 H164 0.947 . S
C183 C182 1.383 . S
C183 C184 1.388 . S
C184 H165 0.946 . S
C184 C183 1.388 . S
C184 C185 1.384 . S
C185 C184 1.384 . S
C185 C186 1.377 . S
C186 H166 0.953 . S
C186 C185 1.377 . S
C186 C187 1.369 . S
C187 H167 0.945 . S
C187 C182 1.385 . S
C187 C186 1.369 . S
C188 C180 1.457 . S
C188 C189 1.372 . S
C188 C193 1.364 . S
C189 H168 0.952 . S
C189 C188 1.372 . S
C189 C190 1.389 . S
C190 H169 0.949 . S
C190 C189 1.389 . S
C190 C191 1.387 . S
C191 C190 1.387 . S
C191 C192 1.372 . S
C192 H170 0.950 . S
C192 C191 1.372 . S
C192 C193 1.379 . S
C193 H171 0.948 . S
C193 C188 1.364 . S
C193 C192 1.379 . S
C194 C163 1.383 . S
C194 C181 1.479 . S
C194 C195 1.398 . S
C195 C160 1.382 . S
C195 H172 0.951 . S
C195 C194 1.398 . S
C196 C197 1.384 . S
C196 H209 0.947 . S
C196 C231 1.382 . S
C197 C196 1.384 . S
C197 C198 1.378 . S
C198 C197 1.378 . S
C198 C199 1.378 . S
C198 H210 0.952 . S
C199 C198 1.378 . S
C199 H211 0.950 . S
C199 C230 1.383 . S
H200 C219 0.947 . S
H201 C220 0.946 . S
H202 C222 0.953 . S
H203 C223 0.945 . S
H204 C225 0.952 . S
H205 C226 0.949 . S
H206 C228 0.950 . S
H207 C229 0.948 . S
H208 C231 0.951 . S
H209 C196 0.947 . S
H210 C198 0.952 . S
H211 C199 0.950 . S
N212 C215 1.382 . S
N212 C217 1.363 . S
N213 C215 1.371 . S
N213 C216 1.372 . S
N214 C216 1.361 . S
N214 C217 1.377 . S
C215 N212 1.382 . S
C215 N213 1.371 . S
C215 C218 1.480 . S
C216 N213 1.372 . S
C216 N214 1.361 . S
C216 C224 1.457 . S
C217 N212 1.363 . S
C217 N214 1.377 . S
C217 C230 1.479 . S
C218 C215 1.480 . S
C218 C219 1.383 . S
C218 C223 1.385 . S
C219 H200 0.947 . S
C219 C218 1.383 . S
C219 C220 1.388 . S
C220 H201 0.946 . S
C220 C219 1.388 . S
C220 C221 1.384 . S
C221 C220 1.384 . S
C221 C222 1.377 . S
C222 H202 0.953 . S
C222 C221 1.377 . S
C222 C223 1.369 . S
C223 H203 0.945 . S
C223 C218 1.385 . S
C223 C222 1.369 . S
C224 C216 1.457 . S
C224 C225 1.372 . S
C224 C229 1.364 . S
C225 H204 0.952 . S
C225 C224 1.372 . S
C225 C226 1.389 . S
C226 H205 0.949 . S
C226 C225 1.389 . S
C226 C227 1.387 . S
C227 C226 1.387 . S
C227 C228 1.372 . S
C228 H206 0.950 . S
C228 C227 1.372 . S
C228 C229 1.379 . S
C229 H207 0.948 . S
C229 C224 1.364 . S
C229 C228 1.379 . S
C230 C199 1.383 . S
C230 C217 1.479 . S
C230 C231 1.398 . S
C231 C196 1.382 . S
C231 H208 0.951 . S
C231 C230 1.398 . S
C232 C233 1.384 . S
C232 H245 0.947 . S
C232 C267 1.382 . S
C233 C232 1.384 . S
C233 C234 1.378 . S
C234 C233 1.378 . S
C234 C235 1.378 . S
C234 H246 0.952 . S
C235 C234 1.378 . S
C235 H247 0.950 . S
C235 C266 1.383 . S
H236 C255 0.947 . S
H237 C256 0.946 . S
H238 C258 0.953 . S
H239 C259 0.945 . S
H240 C261 0.952 . S
H241 C262 0.949 . S
H242 C264 0.950 . S
H243 C265 0.948 . S
H244 C267 0.951 . S
H245 C232 0.947 . S
H246 C234 0.952 . S
H247 C235 0.950 . S
N248 C251 1.382 . S
N248 C253 1.363 . S
N249 C251 1.371 . S
N249 C252 1.372 . S
N250 C252 1.361 . S
N250 C253 1.377 . S
C251 N248 1.382 . S
C251 N249 1.371 . S
C251 C254 1.480 . S
C252 N249 1.372 . S
C252 N250 1.361 . S
C252 C260 1.457 . S
C253 N248 1.363 . S
C253 N250 1.377 . S
C253 C266 1.479 . S
C254 C251 1.480 . S
C254 C255 1.383 . S
C254 C259 1.385 . S
C255 H236 0.947 . S
C255 C254 1.383 . S
C255 C256 1.388 . S
C256 H237 0.946 . S
C256 C255 1.388 . S
C256 C257 1.384 . S
C257 C256 1.384 . S
C257 C258 1.377 . S
C258 H238 0.953 . S
C258 C257 1.377 . S
C258 C259 1.369 . S
C259 H239 0.945 . S
C259 C254 1.385 . S
C259 C258 1.369 . S
C260 C252 1.457 . S
C260 C261 1.372 . S
C260 C265 1.364 . S
C261 H240 0.952 . S
C261 C260 1.372 . S
C261 C262 1.389 . S
C262 H241 0.949 . S
C262 C261 1.389 . S
C262 C263 1.387 . S
C263 C262 1.387 . S
C263 C264 1.372 . S
C264 H242 0.950 . S
C264 C263 1.372 . S
C264 C265 1.379 . S
C265 H243 0.948 . S
C265 C260 1.364 . S
C265 C264 1.379 . S
C266 C235 1.383 . S
C266 C253 1.479 . S
C266 C267 1.398 . S
C267 C232 1.382 . S
C267 H244 0.951 . S
C267 C266 1.398 . S
C268 C269 1.384 . S
C268 H281 0.947 . S
C268 C303 1.382 . S
C269 C268 1.384 . S
C269 C270 1.378 . S
C270 C269 1.378 . S
C270 C271 1.378 . S
C270 H282 0.952 . S
C271 C270 1.378 . S
C271 H283 0.950 . S
C271 C302 1.383 . S
H272 C291 0.947 . S
H273 C292 0.946 . S
H274 C294 0.953 . S
H275 C295 0.945 . S
H276 C297 0.952 . S
H277 C298 0.949 . S
H278 C300 0.950 . S
H279 C301 0.948 . S
H280 C303 0.951 . S
H281 C268 0.947 . S
H282 C270 0.952 . S
H283 C271 0.950 . S
N284 C287 1.382 . S
N284 C289 1.363 . S
N285 C287 1.371 . S
N285 C288 1.372 . S
N286 C288 1.361 . S
N286 C289 1.377 . S
C287 N284 1.382 . S
C287 N285 1.371 . S
C287 C290 1.480 . S
C288 N285 1.372 . S
C288 N286 1.361 . S
C288 C296 1.457 . S
C289 N284 1.363 . S
C289 N286 1.377 . S
C289 C302 1.479 . S
C290 C287 1.480 . S
C290 C291 1.383 . S
C290 C295 1.385 . S
C291 H272 0.947 . S
C291 C290 1.383 . S
C291 C292 1.388 . S
C292 H273 0.946 . S
C292 C291 1.388 . S
C292 C293 1.384 . S
C293 C292 1.384 . S
C293 C294 1.377 . S
C294 H274 0.953 . S
C294 C293 1.377 . S
C294 C295 1.369 . S
C295 H275 0.945 . S
C295 C290 1.385 . S
C295 C294 1.369 . S
C296 C288 1.457 . S
C296 C297 1.372 . S
C296 C301 1.364 . S
C297 H276 0.952 . S
C297 C296 1.372 . S
C297 C298 1.389 . S
C298 H277 0.949 . S
C298 C297 1.389 . S
C298 C299 1.387 . S
C299 C298 1.387 . S
C299 C300 1.372 . S
C300 H278 0.950 . S
C300 C299 1.372 . S
C300 C301 1.379 . S
C301 H279 0.948 . S
C301 C296 1.364 . S
C301 C300 1.379 . S
C302 C271 1.383 . S
C302 C289 1.479 . S
C302 C303 1.398 . S
C303 C268 1.382 . S
C303 H280 0.951 . S
C303 C302 1.398 . S
C304 C305 1.384 . S
C304 H317 0.947 . S
C304 C339 1.382 . S
C305 C304 1.384 . S
C305 C306 1.378 . S
C306 C305 1.378 . S
C306 C307 1.378 . S
C306 H318 0.952 . S
C307 C306 1.378 . S
C307 H319 0.950 . S
C307 C338 1.383 . S
H308 C327 0.947 . S
H309 C328 0.946 . S
H310 C330 0.953 . S
H311 C331 0.945 . S
H312 C333 0.952 . S
H313 C334 0.949 . S
H314 C336 0.950 . S
H315 C337 0.948 . S
H316 C339 0.951 . S
H317 C304 0.947 . S
H318 C306 0.952 . S
H319 C307 0.950 . S
N320 C323 1.382 . S
N320 C325 1.363 . S
N321 C323 1.371 . S
N321 C324 1.372 . S
N322 C324 1.361 . S
N322 C325 1.377 . S
C323 N320 1.382 . S
C323 N321 1.371 . S
C323 C326 1.480 . S
C324 N321 1.372 . S
C324 N322 1.361 . S
C324 C332 1.457 . S
C325 N320 1.363 . S
C325 N322 1.377 . S
C325 C338 1.479 . S
C326 C323 1.480 . S
C326 C327 1.383 . S
C326 C331 1.385 . S
C327 H308 0.947 . S
C327 C326 1.383 . S
C327 C328 1.388 . S
C328 H309 0.946 . S
C328 C327 1.388 . S
C328 C329 1.384 . S
C329 C328 1.384 . S
C329 C330 1.377 . S
C330 H310 0.953 . S
C330 C329 1.377 . S
C330 C331 1.369 . S
C331 H311 0.945 . S
C331 C326 1.385 . S
C331 C330 1.369 . S
C332 C324 1.457 . S
C332 C333 1.372 . S
C332 C337 1.364 . S
C333 H312 0.952 . S
C333 C332 1.372 . S
C333 C334 1.389 . S
C334 H313 0.949 . S
C334 C333 1.389 . S
C334 C335 1.387 . S
C335 C334 1.387 . S
C335 C336 1.372 . S
C336 H314 0.950 . S
C336 C335 1.372 . S
C336 C337 1.379 . S
C337 H315 0.948 . S
C337 C332 1.364 . S
C337 C336 1.379 . S
C338 C307 1.383 . S
C338 C325 1.479 . S
C338 C339 1.398 . S
C339 C304 1.382 . S
C339 H316 0.951 . S
C339 C338 1.398 . S
C340 C341 1.384 . S
C340 H353 0.947 . S
C340 C375 1.382 . S
C341 C340 1.384 . S
C341 C342 1.378 . S
C342 C341 1.378 . S
C342 C343 1.378 . S
C342 H354 0.952 . S
C343 C342 1.378 . S
C343 H355 0.950 . S
C343 C374 1.383 . S
H344 C363 0.947 . S
H345 C364 0.946 . S
H346 C366 0.953 . S
H347 C367 0.945 . S
H348 C369 0.952 . S
H349 C370 0.945 1_455 S
H350 C372 0.950 1_455 S
H351 C373 0.948 . S
H352 C375 0.951 . S
H353 C340 0.947 . S
H354 C342 0.952 . S
H355 C343 0.950 . S
N356 C359 1.382 . S
N356 C361 1.363 . S
N357 C359 1.371 . S
N357 C360 1.372 . S
N358 C360 1.361 . S
N358 C361 1.377 . S
C359 N356 1.382 . S
C359 N357 1.371 . S
C359 C362 1.480 . S
C360 N357 1.372 . S
C360 N358 1.361 . S
C360 C368 1.457 . S
C361 N356 1.363 . S
C361 N358 1.377 . S
C361 C374 1.479 . S
C362 C359 1.480 . S
C362 C363 1.383 . S
C362 C367 1.385 . S
C363 H344 0.947 . S
C363 C362 1.383 . S
C363 C364 1.388 . S
C364 H345 0.946 . S
C364 C363 1.388 . S
C364 C365 1.384 . S
C365 C364 1.384 . S
C365 C366 1.377 . S
C366 H346 0.953 . S
C366 C365 1.377 . S
C366 C367 1.369 . S
C367 H347 0.945 . S
C367 C362 1.385 . S
C367 C366 1.369 . S
C368 C360 1.457 . S
C368 C369 1.372 . S
C368 C373 1.364 . S
C369 H348 0.952 . S
C369 C368 1.372 . S
C369 C370 1.389 . S
C370 H349 0.945 1_655 S
C370 C369 1.389 . S
C370 C371 1.387 1_655 S
C371 C370 1.387 1_455 S
C371 C372 1.372 1_455 S
C372 H350 0.950 1_655 S
C372 C371 1.372 1_655 S
C372 C373 1.379 . S
C373 H351 0.948 . S
C373 C368 1.364 . S
C373 C372 1.379 . S
C374 C343 1.383 . S
C374 C361 1.479 . S
C374 C375 1.398 . S
C375 C340 1.382 . S
C375 H352 0.951 . S
C375 C374 1.398 . S
H376 C384 0.929 . S
H377 C386 0.930 . S
H378 C388 0.930 . S
H379 C391 0.929 . S
H380 C394 0.930 . S
H381 C396 0.960 . S
H382 C396 0.960 . S
H383 C396 0.960 . S
C384 H376 0.929 . S
C384 C385 1.377 . S
C384 C386 1.384 . S
C385 C384 1.377 . S
C385 C391 1.390 . S
C386 H377 0.930 . S
C386 C384 1.384 . S
C386 C387 1.372 . S
C387 C386 1.372 . S
C387 C388 1.400 . S
C387 C392 1.490 . S
C388 H378 0.930 . S
C388 C387 1.400 . S
C388 C391 1.386 . S
H389 C405 0.930 . S
H390 C406 0.931 . S
C391 H379 0.929 . S
C391 C385 1.390 . S
C391 C388 1.386 . S
C392 C387 1.490 . S
C392 C394 1.395 . S
C392 C395 1.403 . S
H393 C399 0.930 . S
C394 H380 0.930 . S
C394 C392 1.395 . S
C394 C397 1.403 . S
C395 C392 1.403 . S
C395 C396 1.524 . S
C395 C399 1.400 . S
C396 H381 0.960 . S
C396 H382 0.960 . S
C396 H383 0.960 . S
C396 C395 1.524 . S
C397 C394 1.403 . S
C397 C398 1.392 . S
C397 C401 1.495 1_565 S
C398 C397 1.392 . S
C398 C399 1.385 . S
C398 C400 1.478 . S
C399 H393 0.930 . S
C399 C395 1.400 . S
C399 C398 1.385 . S
C400 C398 1.478 . S
C400 C402 1.381 1_565 S
C400 C406 1.383 . S
C401 C397 1.495 1_545 S
C401 H407 0.959 . S
C401 H408 0.961 . S
C401 H409 0.960 . S
C402 C400 1.381 1_545 S
C402 C403 1.394 . S
C402 H410 0.930 . S
C403 C402 1.394 . S
C403 C404 1.383 . S
C403 H411 0.929 . S
C404 C403 1.383 . S
C404 C405 1.377 . S
C405 H389 0.930 . S
C405 C404 1.377 . S
C405 C406 1.379 1_545 S
C406 H390 0.931 . S
C406 C400 1.383 . S
C406 C405 1.379 1_565 S
H407 C401 0.959 . S
H408 C401 0.961 . S
H409 C401 0.960 . S
H410 C402 0.930 . S
H411 C403 0.929 . S
H412 C420 0.929 . S
H413 C422 0.930 . S
H414 C424 0.930 . S
H415 C427 0.929 . S
H416 C430 0.930 . S
H417 C432 0.960 . S
H418 C432 0.960 . S
H419 C432 0.960 . S
C420 H412 0.929 . S
C420 C421 1.377 . S
C420 C422 1.384 . S
C421 C420 1.377 . S
C421 C427 1.390 . S
C422 H413 0.930 . S
C422 C420 1.384 . S
C422 C423 1.372 . S
C423 C422 1.372 . S
C423 C424 1.400 . S
C423 C428 1.490 . S
C424 H414 0.930 . S
C424 C423 1.400 . S
C424 C427 1.386 . S
H425 C441 0.930 . S
H426 C442 0.931 . S
C427 H415 0.929 . S
C427 C421 1.390 . S
C427 C424 1.386 . S
C428 C423 1.490 . S
C428 C430 1.395 . S
C428 C431 1.403 . S
H429 C435 0.930 . S
C430 H416 0.930 . S
C430 C428 1.395 . S
C430 C433 1.403 . S
C431 C428 1.403 . S
C431 C432 1.524 . S
C431 C435 1.400 . S
C432 H417 0.960 . S
C432 H418 0.960 . S
C432 H419 0.960 . S
C432 C431 1.524 . S
C433 C430 1.403 . S
C433 C434 1.392 . S
C433 C437 1.495 . S
C434 C433 1.392 . S
C434 C435 1.385 . S
C434 C436 1.478 . S
C435 H429 0.930 . S
C435 C431 1.400 . S
C435 C434 1.385 . S
C436 C434 1.478 . S
C436 C438 1.381 . S
C436 C442 1.383 . S
C437 C433 1.495 . S
C437 H443 0.959 . S
C437 H444 0.961 . S
C437 H445 0.960 . S
C438 C436 1.381 . S
C438 C439 1.394 . S
C438 H446 0.930 . S
C439 C438 1.394 . S
C439 C440 1.383 . S
C439 H447 0.929 . S
C440 C439 1.383 . S
C440 C441 1.377 . S
C441 H425 0.930 . S
C441 C440 1.377 . S
C441 C442 1.379 . S
C442 H426 0.931 . S
C442 C436 1.383 . S
C442 C441 1.379 . S
H443 C437 0.959 . S
H444 C437 0.961 . S
H445 C437 0.960 . S
H446 C438 0.930 . S
H447 C439 0.929 . S
H448 C456 0.929 . S
H449 C458 0.930 . S
H450 C460 0.930 . S
H451 C463 0.929 . S
H452 C466 0.930 . S
H453 C468 0.960 . S
H454 C468 0.960 . S
H455 C468 0.960 . S
C456 H448 0.929 . S
C456 C457 1.377 . S
C456 C458 1.384 . S
C457 C456 1.377 . S
C457 C463 1.390 . S
C458 H449 0.930 . S
C458 C456 1.384 . S
C458 C459 1.372 . S
C459 C458 1.372 . S
C459 C460 1.400 . S
C459 C464 1.490 . S
C460 H450 0.930 . S
C460 C459 1.400 . S
C460 C463 1.386 . S
H461 C477 0.930 . S
H462 C478 0.931 . S
C463 H451 0.929 . S
C463 C457 1.390 . S
C463 C460 1.386 . S
C464 C459 1.490 . S
C464 C466 1.395 . S
C464 C467 1.403 . S
H465 C471 0.930 . S
C466 H452 0.930 . S
C466 C464 1.395 . S
C466 C469 1.403 . S
C467 C464 1.403 . S
C467 C468 1.524 . S
C467 C471 1.400 1_545 S
C468 H453 0.960 . S
C468 H454 0.960 . S
C468 H455 0.960 . S
C468 C467 1.524 . S
C469 C466 1.403 . S
C469 C470 1.392 1_545 S
C469 C473 1.495 . S
C470 C469 1.392 1_565 S
C470 C471 1.385 . S
C470 C472 1.478 . S
C471 H465 0.930 . S
C471 C467 1.400 1_565 S
C471 C470 1.385 . S
C472 C470 1.478 . S
C472 C474 1.381 . S
C472 C478 1.383 . S
C473 C469 1.495 . S
C473 H479 0.959 . S
C473 H480 0.961 . S
C473 H481 0.960 . S
C474 C472 1.381 . S
C474 C475 1.394 . S
C474 H482 0.930 . S
C475 C474 1.394 . S
C475 C476 1.383 . S
C475 H483 0.929 . S
C476 C475 1.383 . S
C476 C477 1.377 . S
C477 H461 0.930 . S
C477 C476 1.377 . S
C477 C478 1.379 . S
C478 H462 0.931 . S
C478 C472 1.383 . S
C478 C477 1.379 . S
H479 C473 0.959 . S
H480 C473 0.961 . S
H481 C473 0.960 . S
H482 C474 0.930 . S
H483 C475 0.929 . S
H484 C492 0.929 . S
H485 C494 0.930 . S
H486 C496 0.930 . S
H487 C499 0.929 . S
H488 C502 0.930 . S
H489 C504 0.960 . S
H490 C504 0.960 . S
H491 C504 0.960 . S
C492 H484 0.929 . S
C492 C493 1.377 . S
C492 C494 1.384 . S
C493 C492 1.377 . S
C493 C499 1.390 . S
C494 H485 0.930 . S
C494 C492 1.384 . S
C494 C495 1.372 . S
C495 C494 1.372 . S
C495 C496 1.400 . S
C495 C500 1.490 . S
C496 H486 0.930 . S
C496 C495 1.400 . S
C496 C499 1.386 . S
H497 C513 0.930 . S
H498 C514 0.931 . S
C499 H487 0.929 . S
C499 C493 1.390 . S
C499 C496 1.386 . S
C500 C495 1.490 . S
C500 C502 1.395 . S
C500 C503 1.403 . S
H501 C507 0.930 . S
C502 H488 0.930 . S
C502 C500 1.395 . S
C502 C505 1.403 . S
C503 C500 1.403 . S
C503 C504 1.524 . S
C503 C507 1.400 . S
C504 H489 0.960 . S
C504 H490 0.960 . S
C504 H491 0.960 . S
C504 C503 1.524 . S
C505 C502 1.403 . S
C505 C506 1.392 . S
C505 C509 1.495 . S
C506 C505 1.392 . S
C506 C507 1.385 . S
C506 C508 1.478 . S
C507 H501 0.930 . S
C507 C503 1.400 . S
C507 C506 1.385 . S
C508 C506 1.478 . S
C508 C510 1.381 . S
C508 C514 1.383 . S
C509 C505 1.495 . S
C509 H515 0.959 . S
C509 H516 0.961 . S
C509 H517 0.960 . S
C510 C508 1.381 . S
C510 C511 1.394 . S
C510 H518 0.930 . S
C511 C510 1.394 . S
C511 C512 1.383 . S
C511 H519 0.929 . S
C512 C511 1.383 . S
C512 C513 1.377 . S
C513 H497 0.930 . S
C513 C512 1.377 . S
C513 C514 1.379 . S
C514 H498 0.931 . S
C514 C508 1.383 . S
C514 C513 1.379 . S
H515 C509 0.959 . S
H516 C509 0.961 . S
H517 C509 0.960 . S
H518 C510 0.930 . S
H519 C511 0.929 . S
H520 C528 0.929 . S
H521 C530 0.930 . S
H522 C532 0.930 . S
H523 C535 0.929 . S
H524 C538 0.930 . S
H525 C540 0.960 . S
H526 C540 0.960 . S
H527 C540 0.960 . S
C528 H520 0.929 . S
C528 C529 1.377 . S
C528 C530 1.384 . S
C529 C528 1.377 . S
C529 C535 1.390 . S
C530 H521 0.930 . S
C530 C528 1.384 . S
C530 C531 1.372 . S
C531 C530 1.372 . S
C531 C532 1.400 . S
C531 C536 1.490 . S
C532 H522 0.930 . S
C532 C531 1.400 . S
C532 C535 1.386 . S
H533 C549 0.930 . S
H534 C550 0.931 . S
C535 H523 0.929 . S
C535 C529 1.390 . S
C535 C532 1.386 . S
C536 C531 1.490 . S
C536 C538 1.395 . S
C536 C539 1.403 . S
H537 C543 0.930 . S
C538 H524 0.930 . S
C538 C536 1.395 . S
C538 C541 1.403 . S
C539 C536 1.403 . S
C539 C540 1.524 . S
C539 C543 1.400 . S
C540 H525 0.960 . S
C540 H526 0.960 . S
C540 H527 0.960 . S
C540 C539 1.524 . S
C541 C538 1.403 . S
C541 C542 1.392 . S
C541 C545 1.495 . S
C542 C541 1.392 . S
C542 C543 1.385 . S
C542 C544 1.478 . S
C543 H537 0.930 . S
C543 C539 1.400 . S
C543 C542 1.385 . S
C544 C542 1.478 . S
C544 C546 1.381 . S
C544 C550 1.383 . S
C545 C541 1.495 . S
C545 H551 0.959 . S
C545 H552 0.961 . S
C545 H553 0.960 . S
C546 C544 1.381 . S
C546 C547 1.394 . S
C546 H554 0.930 . S
C547 C546 1.394 . S
C547 C548 1.383 . S
C547 H555 0.929 . S
C548 C547 1.383 . S
C548 C549 1.377 . S
C549 H533 0.930 . S
C549 C548 1.377 . S
C549 C550 1.379 . S
C550 H534 0.931 . S
C550 C544 1.383 . S
C550 C549 1.379 . S
H551 C545 0.959 . S
H552 C545 0.961 . S
H553 C545 0.960 . S
H554 C546 0.930 . S
H555 C547 0.929 . S
H556 C564 0.929 . S
H557 C566 0.930 . S
H558 C568 0.927 1_554 S
H559 C571 0.929 . S
H560 C574 0.907 1_655 S
H561 C576 0.960 . S
H562 C576 0.960 1_655 S
H563 C576 0.960 1_655 S
C564 H556 0.929 . S
C564 C565 1.377 . S
C564 C566 1.384 . S
C565 C564 1.377 . S
C565 C571 1.390 1_556 S
C566 H557 0.930 . S
C566 C564 1.384 . S
C566 C567 1.372 . S
C567 C566 1.372 . S
C567 C568 1.403 . S
C567 C572 1.490 . S
C568 H558 0.927 1_556 S
C568 C567 1.403 . S
C568 C571 1.385 1_556 S
H569 C585 0.930 . S
H570 C586 0.931 . S
C571 H559 0.929 . S
C571 C565 1.390 1_554 S
C571 C568 1.385 1_554 S
C572 C567 1.490 . S
C572 C574 1.385 1_655 S
C572 C575 1.403 1_655 S
H573 C579 0.930 1_554 S
C574 H560 0.907 1_455 S
C574 C572 1.385 1_455 S
C574 C577 1.436 . S
C575 C572 1.403 1_455 S
C575 C576 1.524 1_556 S
C575 C579 1.400 . S
C576 H561 0.960 . S
C576 H562 0.960 1_455 S
C576 H563 0.960 1_455 S
C576 C575 1.524 1_554 S
C577 C574 1.436 . S
C577 C578 1.392 . S
C577 C581 1.495 . S
C578 C577 1.392 . S
C578 C579 1.385 . S
C578 C580 1.478 . S
C579 H573 0.930 1_556 S
C579 C575 1.400 . S
C579 C578 1.385 . S
C580 C578 1.478 . S
C580 C582 1.381 . S
C580 C586 1.383 . S
C581 C577 1.495 . S
C581 H587 0.959 . S
C581 H588 0.961 . S
C581 H589 0.960 . S
C582 C580 1.381 . S
C582 C583 1.394 . S
C582 H590 0.930 . S
C583 C582 1.394 . S
C583 C584 1.383 . S
C583 H591 0.929 . S
C584 C583 1.383 . S
C584 C585 1.377 . S
C585 H569 0.930 . S
C585 C584 1.377 . S
C585 C586 1.379 . S
C586 H570 0.931 . S
C586 C580 1.383 . S
C586 C585 1.379 . S
H587 C581 0.959 . S
H588 C581 0.961 . S
H589 C581 0.960 . S
H590 C582 0.930 . S
H591 C583 0.929 . S
H592 C600 0.929 . S
H593 C602 0.930 . S
H594 C604 0.930 . S
H595 C607 0.929 . S
H596 C610 0.930 . S
H597 C612 0.960 . S
H598 C612 0.960 . S
H599 C612 0.960 . S
C600 H592 0.929 . S
C600 C601 1.377 . S
C600 C602 1.384 . S
C601 C600 1.377 . S
C601 C607 1.390 . S
C602 H593 0.930 . S
C602 C600 1.384 . S
C602 C603 1.372 . S
C603 C602 1.372 . S
C603 C604 1.400 . S
C603 C608 1.490 . S
C604 H594 0.930 . S
C604 C603 1.400 . S
C604 C607 1.386 . S
H605 C621 0.930 . S
H606 C622 0.931 . S
C607 H595 0.929 . S
C607 C601 1.390 . S
C607 C604 1.386 . S
C608 C603 1.490 . S
C608 C610 1.395 . S
C608 C611 1.403 . S
H609 C615 0.930 . S
C610 H596 0.930 . S
C610 C608 1.395 . S
C610 C613 1.403 . S
C611 C608 1.403 . S
C611 C612 1.524 . S
C611 C615 1.400 . S
C612 H597 0.960 . S
C612 H598 0.960 . S
C612 H599 0.960 . S
C612 C611 1.524 . S
C613 C610 1.403 . S
C613 C614 1.392 . S
C613 C617 1.495 . S
C614 C613 1.392 . S
C614 C615 1.385 . S
C614 C616 1.478 . S
C615 H609 0.930 . S
C615 C611 1.400 . S
C615 C614 1.385 . S
C616 C614 1.478 . S
C616 C618 1.381 . S
C616 C622 1.383 . S
C617 C613 1.495 . S
C617 H623 0.959 . S
C617 H624 0.961 . S
C617 H625 0.960 . S
C618 C616 1.381 . S
C618 C619 1.394 . S
C618 H626 0.930 . S
C619 C618 1.394 . S
C619 C620 1.383 . S
C619 H627 0.929 . S
C620 C619 1.383 . S
C620 C621 1.377 . S
C621 H605 0.930 . S
C621 C620 1.377 . S
C621 C622 1.379 . S
C622 H606 0.931 . S
C622 C616 1.383 . S
C622 C621 1.379 . S
H623 C617 0.959 . S
H624 C617 0.961 . S
H625 C617 0.960 . S
H626 C618 0.930 . S
H627 C619 0.929 . S
H628 C636 0.929 . S
H629 C638 0.930 . S
H630 C640 0.930 . S
H631 C643 0.929 . S
H632 C646 0.930 . S
H633 C648 0.960 . S
H634 C648 0.960 . S
H635 C648 0.960 . S
C636 H628 0.929 . S
C636 C637 1.377 . S
C636 C638 1.384 . S
C637 C636 1.377 . S
C637 C643 1.390 . S
C638 H629 0.930 . S
C638 C636 1.384 . S
C638 C639 1.372 . S
C639 C638 1.372 . S
C639 C640 1.400 . S
C639 C644 1.490 . S
C640 H630 0.930 . S
C640 C639 1.400 . S
C640 C643 1.386 . S
H641 C657 0.930 . S
H642 C658 0.931 . S
C643 H631 0.929 . S
C643 C637 1.390 . S
C643 C640 1.386 . S
C644 C639 1.490 . S
C644 C646 1.395 . S
C644 C647 1.403 . S
H645 C651 0.930 . S
C646 H632 0.930 . S
C646 C644 1.395 . S
C646 C649 1.403 . S
C647 C644 1.403 . S
C647 C648 1.524 . S
C647 C651 1.400 . S
C648 H633 0.960 . S
C648 H634 0.960 . S
C648 H635 0.960 . S
C648 C647 1.524 . S
C649 C646 1.403 . S
C649 C650 1.392 . S
C649 C653 1.495 . S
C650 C649 1.392 . S
C650 C651 1.385 . S
C650 C652 1.478 . S
C651 H645 0.930 . S
C651 C647 1.400 . S
C651 C650 1.385 . S
C652 C650 1.478 . S
C652 C654 1.381 . S
C652 C658 1.383 . S
C653 C649 1.495 . S
C653 H659 0.959 . S
C653 H660 0.961 . S
C653 H661 0.960 . S
C654 C652 1.381 . S
C654 C655 1.394 . S
C654 H662 0.930 . S
C655 C654 1.394 . S
C655 C656 1.383 . S
C655 H663 0.929 . S
C656 C655 1.383 . S
C656 C657 1.377 . S
C657 H641 0.930 . S
C657 C656 1.377 . S
C657 C658 1.379 . S
C658 H642 0.931 . S
C658 C652 1.383 . S
C658 C657 1.379 . S
H659 C653 0.959 . S
H660 C653 0.961 . S
H661 C653 0.960 . S
H662 C654 0.930 . S
H663 C655 0.929 . S
H664 C672 0.929 . S
H665 C674 0.930 . S
H666 C676 0.930 . S
H667 C679 0.929 . S
H668 C682 0.930 . S
H669 C684 0.960 . S
H670 C684 0.960 . S
H671 C684 0.960 . S
C672 H664 0.929 . S
C672 C673 1.377 . S
C672 C674 1.384 . S
C673 C672 1.377 . S
C673 C679 1.390 . S
C674 H665 0.930 . S
C674 C672 1.384 . S
C674 C675 1.372 . S
C675 C674 1.372 . S
C675 C676 1.400 . S
C675 C680 1.490 . S
C676 H666 0.930 . S
C676 C675 1.400 . S
C676 C679 1.386 . S
H677 C693 0.930 . S
H678 C694 0.931 . S
C679 H667 0.929 . S
C679 C673 1.390 . S
C679 C676 1.386 . S
C680 C675 1.490 . S
C680 C682 1.395 . S
C680 C683 1.403 . S
H681 C687 0.930 . S
C682 H668 0.930 . S
C682 C680 1.395 . S
C682 C685 1.403 . S
C683 C680 1.403 . S
C683 C684 1.524 . S
C683 C687 1.400 . S
C684 H669 0.960 . S
C684 H670 0.960 . S
C684 H671 0.960 . S
C684 C683 1.524 . S
C685 C682 1.403 . S
C685 C686 1.392 . S
C685 C689 1.495 . S
C686 C685 1.392 . S
C686 C687 1.385 . S
C686 C688 1.478 . S
C687 H681 0.930 . S
C687 C683 1.400 . S
C687 C686 1.385 . S
C688 C686 1.478 . S
C688 C690 1.381 . S
C688 C694 1.383 1_545 S
C689 C685 1.495 . S
C689 H695 0.959 . S
C689 H696 0.961 1_545 S
C689 H697 0.960 . S
C690 C688 1.381 . S
C690 C691 1.394 1_545 S
C690 H698 0.930 . S
C691 C690 1.394 1_565 S
C691 C692 1.383 . S
C691 H699 0.929 . S
C692 C691 1.383 . S
C692 C693 1.377 . S
C693 H677 0.930 . S
C693 C692 1.377 . S
C693 C694 1.379 . S
C694 H678 0.931 . S
C694 C688 1.383 1_565 S
C694 C693 1.379 . S
H695 C689 0.959 . S
H696 C689 0.961 1_565 S
H697 C689 0.960 . S
H698 C690 0.930 . S
H699 C691 0.929 . S
H700 C708 0.929 . S
H701 C710 0.930 . S
H702 C712 0.930 . S
H703 C715 0.929 . S
H704 C718 0.930 . S
H705 C720 0.960 . S
H706 C720 0.960 . S
H707 C720 0.960 . S
C708 H700 0.929 . S
C708 C709 1.377 . S
C708 C710 1.384 . S
C709 C708 1.377 . S
C709 C715 1.390 . S
C710 H701 0.930 . S
C710 C708 1.384 . S
C710 C711 1.372 . S
C711 C710 1.372 . S
C711 C712 1.400 . S
C711 C716 1.490 . S
C712 H702 0.930 . S
C712 C711 1.400 . S
C712 C715 1.386 . S
H713 C729 0.930 . S
H714 C730 0.931 . S
C715 H703 0.929 . S
C715 C709 1.390 . S
C715 C712 1.386 . S
C716 C711 1.490 . S
C716 C718 1.395 . S
C716 C719 1.403 . S
H717 C723 0.930 . S
C718 H704 0.930 . S
C718 C716 1.395 . S
C718 C721 1.403 . S
C719 C716 1.403 . S
C719 C720 1.524 . S
C719 C723 1.400 . S
C720 H705 0.960 . S
C720 H706 0.960 . S
C720 H707 0.960 . S
C720 C719 1.524 . S
C721 C718 1.403 . S
C721 C722 1.392 . S
C721 C725 1.495 . S
C722 C721 1.392 . S
C722 C723 1.385 . S
C722 C724 1.478 . S
C723 H717 0.930 . S
C723 C719 1.400 . S
C723 C722 1.385 . S
C724 C722 1.478 . S
C724 C726 1.381 . S
C724 C730 1.383 . S
C725 C721 1.495 . S
C725 H731 0.959 . S
C725 H732 0.961 . S
C725 H733 0.960 . S
C726 C724 1.381 . S
C726 C727 1.394 . S
C726 H734 0.930 . S
C727 C726 1.394 . S
C727 C728 1.383 . S
C727 H735 0.929 . S
C728 C727 1.383 . S
C728 C729 1.377 . S
C729 H713 0.930 . S
C729 C728 1.377 . S
C729 C730 1.379 . S
C730 H714 0.931 . S
C730 C724 1.383 . S
C730 C729 1.379 . S
H731 C725 0.959 . S
H732 C725 0.961 . S
H733 C725 0.960 . S
H734 C726 0.930 . S
H735 C727 0.929 . S
H736 C744 0.929 . S
H737 C746 0.930 . S
H738 C748 0.930 1_556 S
H739 C751 0.931 1_556 S
H740 C754 0.930 . S
H741 C756 0.960 1_545 S
H742 C756 0.960 . S
H743 C756 0.960 . S
C744 H736 0.929 . S
C744 C745 1.377 . S
C744 C746 1.384 . S
C745 C744 1.377 . S
C745 C751 1.390 . S
C746 H737 0.930 . S
C746 C744 1.384 . S
C746 C747 1.372 . S
C747 C746 1.372 . S
C747 C748 1.400 . S
C747 C752 1.490 . S
C748 H738 0.930 1_554 S
C748 C747 1.400 . S
C748 C751 1.386 . S
H749 C765 0.930 . S
H750 C766 0.931 . S
C751 H739 0.931 1_554 S
C751 C745 1.390 . S
C751 C748 1.386 . S
C752 C747 1.490 . S
C752 C754 1.394 . S
C752 C755 1.403 . S
H753 C759 0.930 . S
C754 H740 0.930 . S
C754 C752 1.394 . S
C754 C757 1.404 1_554 S
C755 C752 1.403 . S
C755 C756 1.524 . S
C755 C759 1.405 1_565 S
C756 H741 0.960 1_565 S
C756 H742 0.960 . S
C756 H743 0.960 . S
C756 C755 1.524 . S
C757 C754 1.404 1_556 S
C757 C758 1.392 1_565 S
C757 C761 1.495 . S
C758 C757 1.392 1_545 S
C758 C759 1.381 1_556 S
C758 C760 1.478 . S
C759 H753 0.930 . S
C759 C755 1.405 1_545 S
C759 C758 1.381 1_554 S
C760 C758 1.478 . S
C760 C762 1.381 . S
C760 C766 1.383 . S
C761 C757 1.495 . S
C761 H767 0.959 . S
C761 H768 0.961 . S
C761 H769 0.960 . S
C762 C760 1.381 . S
C762 C763 1.394 . S
C762 H770 0.930 1_556 S
C763 C762 1.394 . S
C763 C764 1.383 . S
C763 H771 0.929 1_556 S
C764 C763 1.383 . S
C764 C765 1.377 . S
C765 H749 0.930 . S
C765 C764 1.377 . S
C765 C766 1.379 . S
C766 H750 0.931 . S
C766 C760 1.383 . S
C766 C765 1.379 . S
H767 C761 0.959 . S
H768 C761 0.961 . S
H769 C761 0.960 . S
H770 C762 0.930 1_554 S
H771 C763 0.929 1_554 S
H772 C780 0.929 . S
H773 C782 0.930 . S
H774 C784 0.930 . S
H775 C787 0.929 . S
H776 C790 0.930 . S
H777 C792 0.960 . S
H778 C792 0.960 . S
H779 C792 0.960 . S
C780 H772 0.929 . S
C780 C781 1.377 . S
C780 C782 1.384 . S
C781 C780 1.377 . S
C781 C787 1.390 . S
C782 H773 0.930 . S
C782 C780 1.384 . S
C782 C783 1.372 . S
C783 C782 1.372 . S
C783 C784 1.400 . S
C783 C788 1.490 . S
C784 H774 0.930 . S
C784 C783 1.400 . S
C784 C787 1.386 . S
H785 C801 0.930 . S
H786 C802 0.931 . S
C787 H775 0.929 . S
C787 C781 1.390 . S
C787 C784 1.386 . S
C788 C783 1.490 . S
C788 C790 1.395 . S
C788 C791 1.403 . S
H789 C795 0.930 . S
C790 H776 0.930 . S
C790 C788 1.395 . S
C790 C793 1.403 . S
C791 C788 1.403 . S
C791 C792 1.524 . S
C791 C795 1.400 . S
C792 H777 0.960 . S
C792 H778 0.960 . S
C792 H779 0.960 . S
C792 C791 1.524 . S
C793 C790 1.403 . S
C793 C794 1.392 . S
C793 C797 1.495 . S
C794 C793 1.392 . S
C794 C795 1.385 . S
C794 C796 1.478 . S
C795 H789 0.930 . S
C795 C791 1.400 . S
C795 C794 1.385 . S
C796 C794 1.478 . S
C796 C798 1.381 . S
C796 C802 1.383 . S
C797 C793 1.495 . S
C797 H803 0.959 . S
C797 H804 0.961 . S
C797 H805 0.960 . S
C798 C796 1.381 . S
C798 C799 1.394 . S
C798 H806 0.930 . S
C799 C798 1.394 . S
C799 C800 1.383 . S
C799 H807 0.929 . S
C800 C799 1.383 . S
C800 C801 1.377 . S
C801 H785 0.930 . S
C801 C800 1.377 . S
C801 C802 1.379 . S
C802 H786 0.931 . S
C802 C796 1.383 . S
C802 C801 1.379 . S
H803 C797 0.959 . S
H804 C797 0.961 . S
H805 C797 0.960 . S
H806 C798 0.930 . S
H807 C799 0.929 . S
H808 C816 0.929 . S
H809 C818 0.930 . S
H810 C820 0.930 . S
H811 C823 0.929 . S
H812 C826 0.930 . S
H813 C828 0.960 . S
H814 C828 0.960 . S
H815 C828 0.960 . S
C816 H808 0.929 . S
C816 C817 1.377 . S
C816 C818 1.384 . S
C817 C816 1.377 . S
C817 C823 1.390 . S
C818 H809 0.930 . S
C818 C816 1.384 . S
C818 C819 1.372 . S
C819 C818 1.372 . S
C819 C820 1.400 . S
C819 C824 1.490 . S
C820 H810 0.930 . S
C820 C819 1.400 . S
C820 C823 1.386 . S
H821 C837 0.930 . S
H822 C838 0.931 . S
C823 H811 0.929 . S
C823 C817 1.390 . S
C823 C820 1.386 . S
C824 C819 1.490 . S
C824 C826 1.395 . S
C824 C827 1.403 . S
H825 C831 0.930 . S
C826 H812 0.930 . S
C826 C824 1.395 . S
C826 C829 1.403 . S
C827 C824 1.403 . S
C827 C828 1.524 . S
C827 C831 1.400 . S
C828 H813 0.960 . S
C828 H814 0.960 . S
C828 H815 0.960 . S
C828 C827 1.524 . S
C829 C826 1.403 . S
C829 C830 1.392 . S
C829 C833 1.495 . S
C830 C829 1.392 . S
C830 C831 1.385 . S
C830 C832 1.478 . S
C831 H825 0.930 . S
C831 C827 1.400 . S
C831 C830 1.385 . S
C832 C830 1.478 . S
C832 C834 1.381 . S
C832 C838 1.383 . S
C833 C829 1.495 . S
C833 H839 0.959 . S
C833 H840 0.961 . S
C833 H841 0.960 . S
C834 C832 1.381 . S
C834 C835 1.394 . S
C834 H842 0.930 . S
C835 C834 1.394 . S
C835 C836 1.383 . S
C835 H843 0.929 . S
C836 C835 1.383 . S
C836 C837 1.377 . S
C837 H821 0.930 . S
C837 C836 1.377 . S
C837 C838 1.379 . S
C838 H822 0.931 . S
C838 C832 1.383 . S
C838 C837 1.379 . S
H839 C833 0.959 . S
H840 C833 0.961 . S
H841 C833 0.960 . S
H842 C834 0.930 . S
H843 C835 0.929 . S
H844 C852 0.929 . S
H845 C854 0.930 . S
H846 C856 0.930 . S
H847 C859 0.929 . S
H848 C862 0.964 . S
H849 C864 0.960 . S
H850 C864 0.960 1_455 S
H851 C864 0.960 1_455 S
C852 H844 0.929 . S
C852 C853 1.377 . S
C852 C854 1.384 . S
C853 C852 1.377 . S
C853 C859 1.390 . S
C854 H845 0.930 . S
C854 C852 1.384 . S
C854 C855 1.372 . S
C855 C854 1.372 . S
C855 C856 1.400 . S
C855 C860 1.490 . S
C856 H846 0.930 . S
C856 C855 1.400 . S
C856 C859 1.386 . S
H857 C873 0.930 . S
H858 C874 0.931 . S
C859 H847 0.929 . S
C859 C853 1.390 . S
C859 C856 1.386 . S
C860 C855 1.490 . S
C860 C862 1.408 . S
C860 C863 1.403 1_455 S
H861 C867 0.930 . S
C862 H848 0.964 . S
C862 C860 1.408 . S
C862 C865 1.359 1_455 S
C863 C860 1.403 1_655 S
C863 C864 1.524 . S
C863 C867 1.400 . S
C864 H849 0.960 . S
C864 H850 0.960 1_655 S
C864 H851 0.960 1_655 S
C864 C863 1.524 . S
C865 C862 1.359 1_655 S
C865 C866 1.392 . S
C865 C869 1.495 . S
C866 C865 1.392 . S
C866 C867 1.385 . S
C866 C868 1.478 . S
C867 H861 0.930 . S
C867 C863 1.400 . S
C867 C866 1.385 . S
C868 C866 1.478 . S
C868 C870 1.381 . S
C868 C874 1.383 . S
C869 C865 1.495 . S
C869 H875 0.959 . S
C869 H876 0.961 . S
C869 H877 0.960 . S
C870 C868 1.381 . S
C870 C871 1.394 . S
C870 H878 0.930 . S
C871 C870 1.394 . S
C871 C872 1.383 . S
C871 H879 0.929 . S
C872 C871 1.383 . S
C872 C873 1.377 . S
C873 H857 0.930 . S
C873 C872 1.377 . S
C873 C874 1.379 . S
C874 H858 0.931 . S
C874 C868 1.383 . S
C874 C873 1.379 . S
H875 C869 0.959 . S
H876 C869 0.961 . S
H877 C869 0.960 . S
H878 C870 0.930 . S
H879 C871 0.929 . S
H880 C888 0.929 . S
H881 C890 0.930 . S
H882 C892 0.930 . S
H883 C895 0.929 . S
H884 C898 0.930 . S
H885 C900 0.960 . S
H886 C900 0.960 . S
H887 C900 0.960 . S
C888 H880 0.929 . S
C888 C889 1.377 . S
C888 C890 1.384 . S
C889 C888 1.377 . S
C889 C895 1.390 . S
C890 H881 0.930 . S
C890 C888 1.384 . S
C890 C891 1.372 . S
C891 C890 1.372 . S
C891 C892 1.400 . S
C891 C896 1.490 . S
C892 H882 0.930 . S
C892 C891 1.400 . S
C892 C895 1.386 . S
H893 C909 0.930 . S
H894 C910 0.931 . S
C895 H883 0.929 . S
C895 C889 1.390 . S
C895 C892 1.386 . S
C896 C891 1.490 . S
C896 C898 1.395 . S
C896 C899 1.403 . S
H897 C903 0.930 . S
C898 H884 0.930 . S
C898 C896 1.395 . S
C898 C901 1.403 . S
C899 C896 1.403 . S
C899 C900 1.524 . S
C899 C903 1.400 . S
C900 H885 0.960 . S
C900 H886 0.960 . S
C900 H887 0.960 . S
C900 C899 1.524 . S
C901 C898 1.403 . S
C901 C902 1.392 . S
C901 C905 1.495 . S
C902 C901 1.392 . S
C902 C903 1.385 . S
C902 C904 1.478 . S
C903 H897 0.930 . S
C903 C899 1.400 . S
C903 C902 1.385 . S
C904 C902 1.478 . S
C904 C906 1.381 . S
C904 C910 1.383 . S
C905 C901 1.495 . S
C905 H911 0.959 . S
C905 H912 0.961 . S
C905 H913 0.960 . S
C906 C904 1.381 . S
C906 C907 1.394 . S
C906 H914 0.930 . S
C907 C906 1.394 . S
C907 C908 1.383 . S
C907 H915 0.929 . S
C908 C907 1.383 . S
C908 C909 1.377 . S
C909 H893 0.930 . S
C909 C908 1.377 . S
C909 C910 1.379 . S
C910 H894 0.931 . S
C910 C904 1.383 . S
C910 C909 1.379 . S
H911 C905 0.959 . S
H912 C905 0.961 . S
H913 C905 0.960 . S
H914 C906 0.930 . S
H915 C907 0.929 . S
H916 C924 0.929 . S
H917 C926 0.930 . S
H918 C928 0.930 . S
H919 C931 0.929 . S
H920 C934 0.930 . S
H921 C936 0.960 . S
H922 C936 0.960 . S
H923 C936 0.960 . S
C924 H916 0.929 . S
C924 C925 1.377 . S
C924 C926 1.384 . S
C925 C924 1.377 . S
C925 C931 1.390 . S
C926 H917 0.930 . S
C926 C924 1.384 . S
C926 C927 1.372 . S
C927 C926 1.372 . S
C927 C928 1.400 . S
C927 C932 1.490 . S
C928 H918 0.930 . S
C928 C927 1.400 . S
C928 C931 1.386 . S
H929 C945 0.930 . S
H930 C946 0.931 . S
C931 H919 0.929 . S
C931 C925 1.390 . S
C931 C928 1.386 . S
C932 C927 1.490 . S
C932 C934 1.395 . S
C932 C935 1.403 . S
H933 C939 0.930 . S
C934 H920 0.930 . S
C934 C932 1.395 . S
C934 C937 1.403 . S
C935 C932 1.403 . S
C935 C936 1.524 . S
C935 C939 1.400 . S
C936 H921 0.960 . S
C936 H922 0.960 . S
C936 H923 0.960 . S
C936 C935 1.524 . S
C937 C934 1.403 . S
C937 C938 1.392 . S
C937 C941 1.495 . S
C938 C937 1.392 . S
C938 C939 1.385 . S
C938 C940 1.478 . S
C939 H933 0.930 . S
C939 C935 1.400 . S
C939 C938 1.385 . S
C940 C938 1.478 . S
C940 C942 1.381 . S
C940 C946 1.383 . S
C941 C937 1.495 . S
C941 H947 0.959 . S
C941 H948 0.961 . S
C941 H949 0.960 . S
C942 C940 1.381 . S
C942 C943 1.394 . S
C942 H950 0.930 . S
C943 C942 1.394 . S
C943 C944 1.383 . S
C943 H951 0.929 . S
C944 C943 1.383 . S
C944 C945 1.377 . S
C945 H929 0.930 . S
C945 C944 1.377 . S
C945 C946 1.379 . S
C946 H930 0.931 . S
C946 C940 1.383 . S
C946 C945 1.379 . S
H947 C941 0.959 . S
H948 C941 0.961 . S
H949 C941 0.960 . S
H950 C942 0.930 . S
H951 C943 0.929 . S
H952 C960 0.929 . S
H953 C962 0.930 . S
H954 C964 0.930 . S
H955 C967 0.929 . S
H956 C970 0.930 . S
H957 C972 0.960 . S
H958 C972 0.960 . S
H959 C972 0.960 . S
C960 H952 0.929 . S
C960 C961 1.377 . S
C960 C962 1.384 . S
C961 C960 1.377 . S
C961 C967 1.390 . S
C962 H953 0.930 . S
C962 C960 1.384 . S
C962 C963 1.372 . S
C963 C962 1.372 . S
C963 C964 1.400 . S
C963 C968 1.490 . S
C964 H954 0.930 . S
C964 C963 1.400 . S
C964 C967 1.386 . S
H965 C981 0.930 . S
H966 C982 0.931 . S
C967 H955 0.929 . S
C967 C961 1.390 . S
C967 C964 1.386 . S
C968 C963 1.490 . S
C968 C970 1.395 . S
C968 C971 1.403 . S
H969 C975 0.930 . S
C970 H956 0.930 . S
C970 C968 1.395 . S
C970 C973 1.403 . S
C971 C968 1.403 . S
C971 C972 1.524 . S
C971 C975 1.400 . S
C972 H957 0.960 . S
C972 H958 0.960 . S
C972 H959 0.960 . S
C972 C971 1.524 . S
C973 C970 1.403 . S
C973 C974 1.392 . S
C973 C977 1.495 . S
C974 C973 1.392 . S
C974 C975 1.385 . S
C974 C976 1.478 . S
C975 H969 0.930 . S
C975 C971 1.400 . S
C975 C974 1.385 . S
C976 C974 1.478 . S
C976 C978 1.381 . S
C976 C982 1.383 . S
C977 C973 1.495 . S
C977 H983 0.959 . S
C977 H984 0.961 . S
C977 H985 0.960 . S
C978 C976 1.381 . S
C978 C979 1.394 . S
C978 H986 0.930 . S
C979 C978 1.394 . S
C979 C980 1.383 . S
C979 H987 0.929 . S
C980 C979 1.383 . S
C980 C981 1.377 . S
C981 H965 0.930 . S
C981 C980 1.377 . S
C981 C982 1.379 . S
C982 H966 0.931 . S
C982 C976 1.383 . S
C982 C981 1.379 . S
H983 C977 0.959 . S
H984 C977 0.961 . S
H985 C977 0.960 . S
H986 C978 0.930 . S
H987 C979 0.929 . S
H988 C996 0.929 . S
H989 C998 0.930 . S
H990 C1000 0.930 . S
H991 C1003 0.929 . S
H992 C1006 0.930 . S
H993 C1008 0.960 . S
H994 C1008 0.960 . S
H995 C1008 0.960 . S
C996 H988 0.929 . S
C996 C997 1.377 . S
C996 C998 1.384 . S
C997 C996 1.377 . S
C997 C1003 1.390 . S
C998 H989 0.930 . S
C998 C996 1.384 . S
C998 C999 1.372 . S
C999 C998 1.372 . S
C999 C1000 1.400 . S
C999 C1004 1.490 . S
C1000 H990 0.930 . S
C1000 C999 1.400 . S
C1000 C1003 1.386 . S
H1001 C1017 0.930 . S
H1002 C1018 0.931 . S
C1003 H991 0.929 . S
C1003 C997 1.390 . S
C1003 C1000 1.386 . S
C1004 C999 1.490 . S
C1004 C1006 1.395 . S
C1004 C1007 1.403 . S
H1005 C1011 0.930 . S
C1006 H992 0.930 . S
C1006 C1004 1.395 . S
C1006 C1009 1.403 . S
C1007 C1004 1.403 . S
C1007 C1008 1.524 . S
C1007 C1011 1.400 . S
C1008 H993 0.960 . S
C1008 H994 0.960 . S
C1008 H995 0.960 . S
C1008 C1007 1.524 . S
C1009 C1006 1.403 . S
C1009 C1010 1.392 . S
C1009 C1013 1.495 . S
C1010 C1009 1.392 . S
C1010 C1011 1.385 . S
C1010 C1012 1.478 . S
C1011 H1005 0.930 . S
C1011 C1007 1.400 . S
C1011 C1010 1.385 . S
C1012 C1010 1.478 . S
C1012 C1014 1.381 . S
C1012 C1018 1.383 . S
C1013 C1009 1.495 . S
C1013 H1019 0.959 . S
C1013 H1020 0.961 . S
C1013 H1021 0.960 . S
C1014 C1012 1.381 . S
C1014 C1015 1.394 . S
C1014 H1022 0.930 . S
C1015 C1014 1.394 . S
C1015 C1016 1.383 . S
C1015 H1023 0.929 . S
C1016 C1015 1.383 . S
C1016 C1017 1.377 . S
C1017 H1001 0.930 . S
C1017 C1016 1.377 . S
C1017 C1018 1.379 . S
C1018 H1002 0.931 . S
C1018 C1012 1.383 . S
C1018 C1017 1.379 . S
H1019 C1013 0.959 . S
H1020 C1013 0.961 . S
H1021 C1013 0.960 . S
H1022 C1014 0.930 . S
H1023 C1015 0.929 . S
H1024 C1032 0.929 . S
H1025 C1034 0.930 . S
H1026 C1036 0.930 . S
H1027 C1039 0.929 . S
H1028 C1042 0.930 . S
H1029 C1044 0.960 . S
H1030 C1044 0.960 . S
H1031 C1044 0.960 . S
C1032 H1024 0.929 . S
C1032 C1033 1.377 . S
C1032 C1034 1.384 . S
C1033 C1032 1.377 . S
C1033 C1039 1.390 . S
C1034 H1025 0.930 . S
C1034 C1032 1.384 . S
C1034 C1035 1.372 . S
C1035 C1034 1.372 . S
C1035 C1036 1.400 . S
C1035 C1040 1.490 . S
C1036 H1026 0.930 . S
C1036 C1035 1.400 . S
C1036 C1039 1.386 . S
H1037 C1053 0.930 . S
H1038 C1054 0.931 . S
C1039 H1027 0.929 . S
C1039 C1033 1.390 . S
C1039 C1036 1.386 . S
C1040 C1035 1.490 . S
C1040 C1042 1.395 . S
C1040 C1043 1.403 . S
H1041 C1047 0.930 . S
C1042 H1028 0.930 . S
C1042 C1040 1.395 . S
C1042 C1045 1.403 . S
C1043 C1040 1.403 . S
C1043 C1044 1.524 . S
C1043 C1047 1.400 . S
C1044 H1029 0.960 . S
C1044 H1030 0.960 . S
C1044 H1031 0.960 . S
C1044 C1043 1.524 . S
C1045 C1042 1.403 . S
C1045 C1046 1.392 . S
C1045 C1049 1.495 . S
C1046 C1045 1.392 . S
C1046 C1047 1.385 . S
C1046 C1048 1.478 . S
C1047 H1041 0.930 . S
C1047 C1043 1.400 . S
C1047 C1046 1.385 . S
C1048 C1046 1.478 . S
C1048 C1050 1.381 . S
C1048 C1054 1.383 . S
C1049 C1045 1.495 . S
C1049 H1055 0.959 . S
C1049 H1056 0.961 . S
C1049 H1057 0.960 . S
C1050 C1048 1.381 . S
C1050 C1051 1.394 . S
C1050 H1058 0.930 . S
C1051 C1050 1.394 . S
C1051 C1052 1.383 . S
C1051 H1059 0.929 . S
C1052 C1051 1.383 . S
C1052 C1053 1.377 . S
C1053 H1037 0.930 . S
C1053 C1052 1.377 . S
C1053 C1054 1.379 . S
C1054 H1038 0.931 . S
C1054 C1048 1.383 . S
C1054 C1053 1.379 . S
H1055 C1049 0.959 . S
H1056 C1049 0.961 . S
H1057 C1049 0.960 . S
H1058 C1050 0.930 . S
H1059 C1051 0.929 . S
H1060 C1068 0.929 . S
H1061 C1070 0.930 . S
H1062 C1072 0.930 . S
H1063 C1075 0.929 . S
H1064 C1078 0.930 . S
H1065 C1080 0.960 . S
H1066 C1080 0.960 . S
H1067 C1080 0.960 . S
C1068 H1060 0.929 . S
C1068 C1069 1.377 . S
C1068 C1070 1.384 . S
C1069 C1068 1.377 . S
C1069 C1075 1.390 . S
C1070 H1061 0.930 . S
C1070 C1068 1.384 . S
C1070 C1071 1.372 . S
C1071 C1070 1.372 . S
C1071 C1072 1.400 . S
C1071 C1076 1.490 . S
C1072 H1062 0.930 . S
C1072 C1071 1.400 . S
C1072 C1075 1.386 . S
H1073 C1089 0.930 . S
H1074 C1090 0.931 . S
C1075 H1063 0.929 . S
C1075 C1069 1.390 . S
C1075 C1072 1.386 . S
C1076 C1071 1.490 . S
C1076 C1078 1.395 . S
C1076 C1079 1.403 . S
H1077 C1083 0.930 . S
C1078 H1064 0.930 . S
C1078 C1076 1.395 . S
C1078 C1081 1.403 . S
C1079 C1076 1.403 . S
C1079 C1080 1.524 . S
C1079 C1083 1.400 . S
C1080 H1065 0.960 . S
C1080 H1066 0.960 . S
C1080 H1067 0.960 . S
C1080 C1079 1.524 . S
C1081 C1078 1.403 . S
C1081 C1082 1.392 . S
C1081 C1085 1.495 . S
C1082 C1081 1.392 . S
C1082 C1083 1.385 . S
C1082 C1084 1.478 . S
C1083 H1077 0.930 . S
C1083 C1079 1.400 . S
C1083 C1082 1.385 . S
C1084 C1082 1.478 . S
C1084 C1086 1.381 . S
C1084 C1090 1.383 . S
C1085 C1081 1.495 . S
C1085 H1091 0.959 . S
C1085 H1092 0.961 . S
C1085 H1093 0.960 . S
C1086 C1084 1.381 . S
C1086 C1087 1.394 . S
C1086 H1094 0.930 . S
C1087 C1086 1.394 . S
C1087 C1088 1.383 . S
C1087 H1095 0.929 . S
C1088 C1087 1.383 . S
C1088 C1089 1.377 . S
C1089 H1073 0.930 . S
C1089 C1088 1.377 . S
C1089 C1090 1.379 . S
C1090 H1074 0.931 . S
C1090 C1084 1.383 . S
C1090 C1089 1.379 . S
H1091 C1085 0.959 . S
H1092 C1085 0.961 . S
H1093 C1085 0.960 . S
H1094 C1086 0.930 . S
H1095 C1087 0.929 . S
H1096 C1104 0.929 . S
H1097 C1106 0.930 . S
H1098 C1108 0.930 . S
H1099 C1111 0.929 . S
H1100 C1114 0.930 . S
H1101 C1116 0.960 . S
H1102 C1116 0.960 . S
H1103 C1116 0.960 . S
C1104 H1096 0.929 . S
C1104 C1105 1.377 . S
C1104 C1106 1.384 . S
C1105 C1104 1.377 . S
C1105 C1111 1.390 . S
C1106 H1097 0.930 . S
C1106 C1104 1.384 . S
C1106 C1107 1.372 . S
C1107 C1106 1.372 . S
C1107 C1108 1.400 . S
C1107 C1112 1.490 . S
C1108 H1098 0.930 . S
C1108 C1107 1.400 . S
C1108 C1111 1.386 . S
H1109 C1125 0.930 . S
H1110 C1126 0.931 . S
C1111 H1099 0.929 . S
C1111 C1105 1.390 . S
C1111 C1108 1.386 . S
C1112 C1107 1.490 . S
C1112 C1114 1.395 . S
C1112 C1115 1.403 . S
H1113 C1119 0.930 . S
C1114 H1100 0.930 . S
C1114 C1112 1.395 . S
C1114 C1117 1.403 . S
C1115 C1112 1.403 . S
C1115 C1116 1.524 . S
C1115 C1119 1.400 . S
C1116 H1101 0.960 . S
C1116 H1102 0.960 . S
C1116 H1103 0.960 . S
C1116 C1115 1.524 . S
C1117 C1114 1.403 . S
C1117 C1118 1.392 . S
C1117 C1121 1.495 . S
C1118 C1117 1.392 . S
C1118 C1119 1.385 . S
C1118 C1120 1.478 . S
C1119 H1113 0.930 . S
C1119 C1115 1.400 . S
C1119 C1118 1.385 . S
C1120 C1118 1.478 . S
C1120 C1122 1.381 . S
C1120 C1126 1.383 . S
C1121 C1117 1.495 . S
C1121 H1127 0.959 . S
C1121 H1128 0.961 . S
C1121 H1129 0.960 . S
C1122 C1120 1.381 . S
C1122 C1123 1.394 . S
C1122 H1130 0.930 . S
C1123 C1122 1.394 . S
C1123 C1124 1.383 . S
C1123 H1131 0.929 . S
C1124 C1123 1.383 . S
C1124 C1125 1.377 . S
C1125 H1109 0.930 . S
C1125 C1124 1.377 . S
C1125 C1126 1.379 . S
C1126 H1110 0.931 . S
C1126 C1120 1.383 . S
C1126 C1125 1.379 . S
H1127 C1121 0.959 . S
H1128 C1121 0.961 . S
H1129 C1121 0.960 . S
H1130 C1122 0.930 . S
H1131 C1123 0.929 . S
H1132 C1140 0.929 . S
H1133 C1142 0.930 . S
H1134 C1144 0.930 . S
H1135 C1147 0.929 . S
H1136 C1150 0.930 . S
H1137 C1152 0.960 . S
H1138 C1152 0.960 . S
H1139 C1152 0.960 . S
C1140 H1132 0.929 . S
C1140 C1141 1.377 . S
C1140 C1142 1.384 . S
C1141 C1140 1.377 . S
C1141 C1147 1.390 . S
C1142 H1133 0.930 . S
C1142 C1140 1.384 . S
C1142 C1143 1.372 . S
C1143 C1142 1.372 . S
C1143 C1144 1.400 . S
C1143 C1148 1.490 . S
C1144 H1134 0.930 . S
C1144 C1143 1.400 . S
C1144 C1147 1.386 . S
H1145 C1161 0.930 . S
H1146 C1162 0.931 . S
C1147 H1135 0.929 . S
C1147 C1141 1.390 . S
C1147 C1144 1.386 . S
C1148 C1143 1.490 . S
C1148 C1150 1.395 . S
C1148 C1151 1.403 . S
H1149 C1155 0.930 . S
C1150 H1136 0.930 . S
C1150 C1148 1.395 . S
C1150 C1153 1.403 . S
C1151 C1148 1.403 . S
C1151 C1152 1.524 . S
C1151 C1155 1.400 . S
C1152 H1137 0.960 . S
C1152 H1138 0.960 . S
C1152 H1139 0.960 . S
C1152 C1151 1.524 . S
C1153 C1150 1.403 . S
C1153 C1154 1.392 . S
C1153 C1157 1.495 . S
C1154 C1153 1.392 . S
C1154 C1155 1.385 . S
C1154 C1156 1.478 . S
C1155 H1149 0.930 . S
C1155 C1151 1.400 . S
C1155 C1154 1.385 . S
C1156 C1154 1.478 . S
C1156 C1158 1.381 . S
C1156 C1162 1.383 . S
C1157 C1153 1.495 . S
C1157 H1163 0.959 . S
C1157 H1164 0.961 . S
C1157 H1165 0.960 . S
C1158 C1156 1.381 . S
C1158 C1159 1.394 . S
C1158 H1166 0.930 . S
C1159 C1158 1.394 . S
C1159 C1160 1.383 . S
C1159 H1167 0.929 . S
C1160 C1159 1.383 . S
C1160 C1161 1.377 . S
C1161 H1145 0.930 . S
C1161 C1160 1.377 . S
C1161 C1162 1.379 . S
C1162 H1146 0.931 . S
C1162 C1156 1.383 . S
C1162 C1161 1.379 . S
H1163 C1157 0.959 . S
H1164 C1157 0.961 . S
H1165 C1157 0.960 . S
H1166 C1158 0.930 . S
H1167 C1159 0.929 . S
H1168 C1176 0.929 . S
H1169 C1178 0.930 . S
H1170 C1180 0.930 . S
H1171 C1183 0.929 . S
H1172 C1186 0.930 . S
H1173 C1188 0.960 . S
H1174 C1188 0.960 . S
H1175 C1188 0.960 . S
C1176 H1168 0.929 . S
C1176 C1177 1.377 . S
C1176 C1178 1.384 . S
C1177 C1176 1.377 . S
C1177 C1183 1.390 . S
C1178 H1169 0.930 . S
C1178 C1176 1.384 . S
C1178 C1179 1.372 . S
C1179 C1178 1.372 . S
C1179 C1180 1.400 . S
C1179 C1184 1.490 . S
C1180 H1170 0.930 . S
C1180 C1179 1.400 . S
C1180 C1183 1.386 . S
H1181 C1197 0.930 . S
H1182 C1198 0.931 . S
C1183 H1171 0.929 . S
C1183 C1177 1.390 . S
C1183 C1180 1.386 . S
C1184 C1179 1.490 . S
C1184 C1186 1.395 . S
C1184 C1187 1.403 . S
H1185 C1191 0.930 . S
C1186 H1172 0.930 . S
C1186 C1184 1.395 . S
C1186 C1189 1.403 . S
C1187 C1184 1.403 . S
C1187 C1188 1.524 . S
C1187 C1191 1.400 . S
C1188 H1173 0.960 . S
C1188 H1174 0.960 . S
C1188 H1175 0.960 . S
C1188 C1187 1.524 . S
C1189 C1186 1.403 . S
C1189 C1190 1.392 . S
C1189 C1193 1.495 . S
C1190 C1189 1.392 . S
C1190 C1191 1.385 . S
C1190 C1192 1.478 . S
C1191 H1185 0.930 . S
C1191 C1187 1.400 . S
C1191 C1190 1.385 . S
C1192 C1190 1.478 . S
C1192 C1194 1.381 . S
C1192 C1198 1.383 . S
C1193 C1189 1.495 . S
C1193 H1199 0.959 . S
C1193 H1200 0.961 . S
C1193 H1201 0.960 . S
C1194 C1192 1.381 . S
C1194 C1195 1.394 . S
C1194 H1202 0.930 . S
C1195 C1194 1.394 . S
C1195 C1196 1.383 . S
C1195 H1203 0.929 . S
C1196 C1195 1.383 . S
C1196 C1197 1.377 . S
C1197 H1181 0.930 . S
C1197 C1196 1.377 . S
C1197 C1198 1.379 . S
C1198 H1182 0.931 . S
C1198 C1192 1.383 . S
C1198 C1197 1.379 . S
H1199 C1193 0.959 . S
H1200 C1193 0.961 . S
H1201 C1193 0.960 . S
H1202 C1194 0.930 . S
H1203 C1195 0.929 . S
H1204 C1212 0.947 . S
H1205 C1214 0.930 . S
H1206 C1216 0.930 . S
H1207 C1219 0.929 . S
H1208 C1222 0.930 . S
H1209 C1224 0.960 . S
H1210 C1224 0.960 . S
H1211 C1224 0.960 . S
C1212 H1204 0.947 . S
C1212 C1213 1.349 1_556 S
C1212 C1214 1.395 . S
C1213 C1212 1.349 1_554 S
C1213 C1219 1.390 . S
C1214 H1205 0.930 . S
C1214 C1212 1.395 . S
C1214 C1215 1.372 1_556 S
C1215 C1214 1.372 1_554 S
C1215 C1216 1.400 . S
C1215 C1220 1.490 1_554 S
C1216 H1206 0.930 . S
C1216 C1215 1.400 . S
C1216 C1219 1.386 . S
H1217 C1233 0.930 . S
H1218 C1234 0.931 . S
C1219 H1207 0.929 . S
C1219 C1213 1.390 . S
C1219 C1216 1.386 . S
C1220 C1215 1.490 1_556 S
C1220 C1222 1.395 . S
C1220 C1223 1.403 . S
H1221 C1227 0.930 . S
C1222 H1208 0.930 . S
C1222 C1220 1.395 . S
C1222 C1225 1.403 . S
C1223 C1220 1.403 . S
C1223 C1224 1.524 1_556 S
C1223 C1227 1.400 . S
C1224 H1209 0.960 . S
C1224 H1210 0.960 . S
C1224 H1211 0.960 . S
C1224 C1223 1.524 1_554 S
C1225 C1222 1.403 . S
C1225 C1226 1.392 . S
C1225 C1229 1.495 . S
C1226 C1225 1.392 . S
C1226 C1227 1.385 . S
C1226 C1228 1.478 . S
C1227 H1221 0.930 . S
C1227 C1223 1.400 . S
C1227 C1226 1.385 . S
C1228 C1226 1.478 . S
C1228 C1230 1.381 . S
C1228 C1234 1.383 . S
C1229 C1225 1.495 . S
C1229 H1235 0.959 . S
C1229 H1236 0.961 . S
C1229 H1237 0.960 . S
C1230 C1228 1.381 . S
C1230 C1231 1.394 . S
C1230 H1238 0.930 . S
C1231 C1230 1.394 . S
C1231 C1232 1.383 . S
C1231 H1239 0.929 . S
C1232 C1231 1.383 . S
C1232 C1233 1.377 . S
C1233 H1217 0.930 . S
C1233 C1232 1.377 . S
C1233 C1234 1.379 . S
C1234 H1218 0.931 . S
C1234 C1228 1.383 . S
C1234 C1233 1.379 . S
H1235 C1229 0.959 . S
H1236 C1229 0.961 . S
H1237 C1229 0.960 . S
H1238 C1230 0.930 . S
H1239 C1231 0.929 . S
C385 C7 1.478 . S
C404 C119 1.366 . S
C421 C37 1.333 . S
C440 C155 1.189 . S
C457 C54 1.558 . S
C476 C191 1.486 . S
C512 C221 1.371 . S
C493 C87 1.392 . S
C548 C263 1.332 . S
C529 C30 1.427 . S
C565 C51 1.438 . S
C584 C293 1.437 . S
C601 C84 1.602 . S
C620 C329 1.482 . S
C637 C10 1.292 1_556 S
C656 C371 1.155 . S
C673 C59 1.484 . S
C692 C341 1.410 . S
C728 C233 1.162 . S
C709 C74 1.271 . S
C764 C299 1.564 . S
C745 C18 1.602 . S
C781 C32 1.416 . S
C800 C335 1.419 . S
C836 C125 1.442 . S
C817 C73 1.474 . S
C853 C15 1.418 . S
C872 C185 1.384 . S
C908 C227 1.559 . S
C889 C43 1.644 . S
C944 C89 1.171 . S
C925 C62 1.272 . S
C980 C305 1.425 . S
C961 C21 1.461 . S
C1016 C365 1.209 . S
C997 C29 1.254 . S
C1033 C52 1.196 . S
C1052 C257 1.173 . S
C1088 C269 1.427 . S
C1069 C81 1.445 . S
C1124 C161 1.370 . S
C1105 C40 1.414 . S
C1141 C65 1.435 . S
C1160 C197 1.402 . S
C1196 C113 1.132 . S
C1177 C76 1.213 . S
C1232 C149 1.208 . S
C1213 C8 1.262 . S
