# Generated by pormake.
# Topology zzz, (3,6)-cn, num edge types: 1
# Building blocks:
#     Node 0, Type 0, BuildingBlock: BETDIP_clean_linker_0, # of connection points: 3
#     Node 1, Type 0, BuildingBlock: BETDIP_clean_linker_0, # of connection points: 3
#     Node 2, Type 0, BuildingBlock: BETDIP_clean_linker_0, # of connection points: 3
#     Node 3, Type 0, BuildingBlock: BETDIP_clean_linker_0, # of connection points: 3
#     Node 4, Type 0, BuildingBlock: BETDIP_clean_linker_0, # of connection points: 3
#     Node 5, Type 0, BuildingBlock: BETDIP_clean_linker_0, # of connection points: 3
#     Node 6, Type 0, BuildingBlock: BETDIP_clean_linker_0, # of connection points: 3
#     Node 7, Type 0, BuildingBlock: BETDIP_clean_linker_0, # of connection points: 3
#     Node 8, Type 1, BuildingBlock: KUMBOL_clean_sbu_0, # of connection points: 6
#     Node 9, Type 1, BuildingBlock: KUMBOL_clean_sbu_0, # of connection points: 6
#     Node 10, Type 1, BuildingBlock: KUMBOL_clean_sbu_0, # of connection points: 6
#     Node 11, Type 1, BuildingBlock: KUMBOL_clean_sbu_0, # of connection points: 6
#     Edge 12, Type (0, 1), BuildingBlock: EZIPEK_clean_linker_0, # of connection points: 2
#     Edge 13, Type (0, 1), BuildingBlock: EZIPEK_clean_linker_0, # of connection points: 2
#     Edge 14, Type (0, 1), BuildingBlock: EZIPEK_clean_linker_0, # of connection points: 2
#     Edge 15, Type (0, 1), BuildingBlock: EZIPEK_clean_linker_0, # of connection points: 2
#     Edge 16, Type (0, 1), BuildingBlock: EZIPEK_clean_linker_0, # of connection points: 2
#     Edge 17, Type (0, 1), BuildingBlock: EZIPEK_clean_linker_0, # of connection points: 2
#     Edge 18, Type (0, 1), BuildingBlock: EZIPEK_clean_linker_0, # of connection points: 2
#     Edge 19, Type (0, 1), BuildingBlock: EZIPEK_clean_linker_0, # of connection points: 2
#     Edge 20, Type (0, 1), BuildingBlock: EZIPEK_clean_linker_0, # of connection points: 2
#     Edge 21, Type (0, 1), BuildingBlock: EZIPEK_clean_linker_0, # of connection points: 2
#     Edge 22, Type (0, 1), BuildingBlock: EZIPEK_clean_linker_0, # of connection points: 2
#     Edge 23, Type (0, 1), BuildingBlock: EZIPEK_clean_linker_0, # of connection points: 2
#     Edge 24, Type (0, 1), BuildingBlock: EZIPEK_clean_linker_0, # of connection points: 2
#     Edge 25, Type (0, 1), BuildingBlock: EZIPEK_clean_linker_0, # of connection points: 2
#     Edge 26, Type (0, 1), BuildingBlock: EZIPEK_clean_linker_0, # of connection points: 2
#     Edge 27, Type (0, 1), BuildingBlock: EZIPEK_clean_linker_0, # of connection points: 2
#     Edge 28, Type (0, 1), BuildingBlock: EZIPEK_clean_linker_0, # of connection points: 2
#     Edge 29, Type (0, 1), BuildingBlock: EZIPEK_clean_linker_0, # of connection points: 2
#     Edge 30, Type (0, 1), BuildingBlock: EZIPEK_clean_linker_0, # of connection points: 2
#     Edge 31, Type (0, 1), BuildingBlock: EZIPEK_clean_linker_0, # of connection points: 2
#     Edge 32, Type (0, 1), BuildingBlock: EZIPEK_clean_linker_0, # of connection points: 2
#     Edge 33, Type (0, 1), BuildingBlock: EZIPEK_clean_linker_0, # of connection points: 2
#     Edge 34, Type (0, 1), BuildingBlock: EZIPEK_clean_linker_0, # of connection points: 2
#     Edge 35, Type (0, 1), BuildingBlock: EZIPEK_clean_linker_0, # of connection points: 2
# Relax obj value: 0.234
# Max RMSD: 0.182
# Mean RMSD: 0.118
data_MOF--net-zzz--node1-KUMBOL_clean_sbu_0--node2-BETDIP_clean_linker_0--edge1-EZIPEK_clean_linker_0
_symmetry_space_group_name_H-M    P1
_symmetry_Int_Tables_number       1
_symmetry_cell_setting            triclinic
loop_
_symmetry_equiv_pos_as_xyz
'x, y, z'
_cell_length_a     36.747673
_cell_length_b     36.619629
_cell_length_c     10.96351
_cell_angle_alpha  91.723199
_cell_angle_beta   89.843978
_cell_angle_gamma 89.934177
loop_
_atom_site_label
_atom_site_type_symbol
_atom_site_fract_x
_atom_site_fract_y
_atom_site_fract_z
_atom_type_partial_charge
H0 H 0.78984 0.54615 0.43237 0.0
H1 H 0.76587 0.61588 0.13513 0.0
H2 H 0.87373 0.61356 0.28413 0.0
H3 H 0.74014 0.55684 0.06476 0.0
C4 C 0.72165 0.55743 0.14235 0.0
C5 C 0.7985 0.56623 0.36791 0.0
C6 C 0.83517 0.57947 0.37092 0.0
C7 C 0.7736 0.57824 0.27751 0.0
C8 C 0.78512 0.60528 0.19838 0.0
C9 C 0.82122 0.61745 0.19448 0.0
C10 C 0.8456 0.60481 0.28366 0.0
N11 N 0.7375 0.56313 0.26205 0.0
H12 H 0.05262 0.79771 0.44887 0.0
H13 H 0.97964 0.75073 0.18065 0.0
H14 H 0.95364 0.85319 0.35774 0.0
H15 H 0.05617 0.74276 0.10862 0.0
C16 C 0.04887 0.72263 0.17519 0.0
C17 C 0.02746 0.79896 0.39808 0.0
C18 C 1.00436 0.83059 0.41245 0.0
C19 C 1.01812 0.76951 0.31407 0.0
C20 C 0.98681 0.77277 0.24342 0.0
C21 C 0.96581 0.80453 0.24729 0.0
C22 C 0.97203 0.83037 0.34426 0.0
N23 N 0.03972 0.73683 0.2959 0.0
H24 H 0.77267 0.06188 0.52145 0.0
H25 H 0.81194 1.01828 0.17839 0.0
H26 H 0.70022 1.00404 0.27917 0.0
H27 H 0.86643 1.00733 0.37337 0.0
C28 C 0.86484 0.03458 0.33714 0.0
C29 C 0.76794 0.04603 0.43805 0.0
C30 C 0.7325 0.03185 0.41271 0.0
C31 C 0.79709 0.03988 0.35342 0.0
C32 C 0.79028 1.02076 0.24403 0.0
C33 C 0.75577 1.00789 0.21354 0.0
C34 C 0.72737 1.01287 0.30068 0.0
N35 N 0.83272 0.05503 0.37062 0.0
H36 H 0.53731 0.79787 0.49796 0.0
H37 H 0.59789 0.82774 0.18103 0.0
H38 H 0.61162 0.7212 0.33009 0.0
H39 H 0.54624 0.8749 0.34462 0.0
C40 C 0.56809 0.88571 0.2907 0.0
C41 C 0.55732 0.79111 0.42819 0.0
C42 C 0.57355 0.75582 0.42342 0.0
C43 C 0.56708 0.81761 0.34172 0.0
C44 C 0.59232 0.80826 0.25013 0.0
C45 C 0.6081 0.77344 0.24051 0.0
C46 C 0.59966 0.74823 0.33232 0.0
N47 N 0.55037 0.85419 0.34324 0.0
H48 H 0.29095 0.54298 0.07257 0.0
H49 H 0.31718 0.46422 0.34178 0.0
H50 H 0.21231 0.46222 0.17183 0.0
H51 H 0.33814 0.5201 0.43969 0.0
C52 C 0.35721 0.52398 0.3652 0.0
C53 C 0.28336 0.51973 0.12574 0.0
C54 C 0.24826 0.50333 0.10913 0.0
C55 C 0.30812 0.50623 0.21439 0.0
C56 C 0.29799 0.47555 0.27968 0.0
C57 C 0.26293 0.46087 0.27366 0.0
C58 C 0.23923 0.47382 0.18272 0.0
N59 N 0.34258 0.52339 0.24272 0.0
H60 H 0.06681 0.28367 0.02389 0.0
H61 H 0.99333 0.31657 0.31487 0.0
H62 H 0.9887 0.20752 0.16708 0.0
H63 H 0.05368 0.33518 0.39901 0.0
C64 C 0.0544 0.35397 0.3241 0.0
C65 C 0.04538 0.27712 0.0875 0.0
C66 C 0.02827 0.24178 0.08025 0.0
C67 C 0.03432 0.30375 0.1793 0.0
C68 C 1.00419 0.29588 0.25191 0.0
C69 C 0.98872 0.26128 0.25007 0.0
C70 C 1.0014 0.23427 0.16754 0.0
N71 N 0.05237 0.3383 0.20151 0.0
H72 H 0.29308 0.07213 0.06956 0.0
H73 H 0.25005 0.9751 0.22188 0.0
H74 H 0.34304 0.96837 0.98686 0.0
H75 H 0.19798 0.99883 0.20898 0.0
C76 C 0.20226 0.02681 0.24059 0.0
C77 C 0.2928 0.04265 0.07427 0.0
C78 C 0.32151 1.02162 0.01875 0.0
C79 C 0.26453 0.02508 0.14027 0.0
C80 C 0.26797 0.9873 0.15794 0.0
C81 C 0.29596 0.9659 0.10484 0.0
C82 C 0.3206 0.98344 0.02769 0.0
N83 N 0.2346 0.04505 0.19771 0.0
H84 H 0.52279 0.28549 0.97509 0.0
H85 H 0.46907 0.25933 0.31059 0.0
H86 H 0.48544 0.37106 0.21916 0.0
H87 H 0.46033 0.20045 0.13972 0.0
C88 C 0.48789 0.20113 0.17489 0.0
C89 C 0.50932 0.29461 0.05848 0.0
C90 C 0.50298 0.33262 0.08216 0.0
C91 C 0.49815 0.26818 0.14426 0.0
C92 C 0.47808 0.27954 0.24757 0.0
C93 C 0.4724 0.31656 0.27565 0.0
C94 C 0.48662 0.34233 0.19471 0.0
N95 N 0.50981 0.23086 0.13432 0.0
Gd96 Gd 0.98915 0.05585 0.64177 0.0
Gd97 Gd 0.05615 0.02645 0.84241 0.0
C98 C 0.12086 0.10499 0.09521 0.0
C99 C 0.18293 0.09509 0.02564 0.0
C100 C 0.13289 0.06206 0.92774 0.0
C101 C 0.10837 0.07967 1.00478 0.0
C102 C 0.17055 0.06934 0.938 0.0
C103 C 0.15818 0.11263 0.10486 0.0
C104 C 0.09548 0.12228 0.17241 0.0
C105 C 0.05862 0.11528 0.15554 0.0
N106 N 0.07233 0.07248 0.99053 0.0
C107 C 0.04756 0.09063 0.06323 0.0
H108 H 1.01906 0.08637 0.05165 0.0
C109 C 0.14409 1.01654 0.77506 0.0
N110 N 0.12009 0.03691 0.8454 0.0
C111 C 0.18149 1.02317 0.78073 0.0
C112 C 0.1948 0.04988 0.86204 0.0
H113 H 0.13422 0.99543 0.71268 0.0
H114 H 0.16815 0.13207 0.17327 0.0
H115 H 1.01575 0.0712 0.35122 0.0
H116 H 0.10399 0.14163 0.24336 0.0
H117 H 0.03857 0.12911 0.21289 0.0
H118 H 0.21167 0.10116 0.03434 0.0
H119 H 0.91939 1.01681 0.80221 0.0
H120 H 0.98899 0.97586 0.13848 0.0
H121 H 0.02335 0.03324 0.16476 0.0
H122 H 0.89682 0.92098 0.37686 0.0
H123 H 0.20005 1.00747 0.72298 0.0
H124 H 0.22386 0.0547 0.86732 0.0
H125 H 0.93423 0.94311 0.20779 0.0
H126 H 0.87893 0.96493 0.78428 0.0
N127 N 0.98848 0.02884 0.44575 0.0
C128 C 0.98739 0.9915 0.22334 0.0
C129 C 1.0061 1.02419 0.23644 0.0
C130 C 0.96489 0.98055 0.31765 0.0
C131 C 0.96777 0.99834 0.43203 0.0
C132 C 1.00314 0.04453 0.34497 0.0
N133 N 0.94873 1.00532 0.63712 0.0
C134 C 0.94668 0.98677 0.5286 0.0
C135 C 0.89847 0.96997 0.71265 0.0
C136 C 0.89783 0.94911 0.60503 0.0
C137 C 0.92314 0.99876 0.72512 0.0
C138 C 0.92101 0.95829 0.50988 0.0
H139 H 0.87791 0.92748 0.59371 0.0
O140 O 0.93197 0.06906 0.64304 0.0
O141 O 1.02234 0.07618 0.80222 0.0
O142 O 1.00306 0.02952 0.95374 0.0
O143 O 0.96335 0.06104 0.83177 0.0
O144 O 1.02123 0.10886 0.65391 0.0
O145 O 0.96804 0.09955 0.5298 0.0
O146 O 0.09106 0.9857 0.92337 0.0
O147 O 1.0153 1.00367 0.70358 0.0
O148 O 0.04323 0.05394 0.53538 0.0
O149 O 0.08734 0.05033 0.68339 0.0
O150 O 0.06696 0.98426 0.69312 0.0
O151 O 0.03417 0.98697 0.96611 0.0
C152 C 0.03304 0.1073 0.76469 0.0
C153 C 0.91716 0.94187 0.39419 0.0
C154 C 0.93847 0.95391 0.29843 0.0
C155 C 0.93478 0.0957 0.56902 0.0
C156 C 0.91283 0.12855 0.5995 0.0
C157 C 0.8832 0.12732 0.68122 0.0
C158 C 0.91975 0.16085 0.53955 0.0
C159 C 0.89758 0.1916 0.55927 0.0
C160 C 0.86128 0.1582 0.70219 0.0
C161 C 0.8683 0.19037 0.64088 0.0
C162 C 0.97106 0.04532 0.93565 0.0
C163 C 0.0354 0.97982 0.6455 0.0
C164 C 0.06419 0.96845 0.97151 0.0
C165 C 0.06229 0.9285 0.94723 0.0
C166 C 0.09428 0.90757 0.93871 0.0
C167 C 0.02858 0.91051 0.94612 0.0
C168 C 0.02654 0.87228 0.954 0.0
C169 C 0.09247 0.86944 0.93552 0.0
C170 C 0.05895 0.85185 0.94664 0.0
C171 C 0.07792 0.05361 0.56828 0.0
H172 H 0.87673 0.10253 0.72811 0.0
H173 H 0.94222 0.16212 0.47536 0.0
H174 H 0.8386 0.15703 0.76515 0.0
H175 H 0.85105 0.21406 0.65659 0.0
H176 H 0.12071 0.92064 0.93859 0.0
H177 H 1.00382 0.92638 0.95562 0.0
H178 H 0.11729 0.85351 0.93118 0.0
H179 H 0.05859 0.82247 0.95531 0.0
Gd180 Gd 0.51512 1.00737 0.61639 0.0
Gd181 Gd 0.53853 0.07437 0.84648 0.0
C182 C 0.44742 0.0921 0.1316 0.0
C183 C 0.41128 0.13992 0.0439 0.0
C184 C 0.46704 0.11862 0.9434 0.0
C185 C 0.4714 0.09269 0.03056 0.0
C186 C 0.4377 0.14366 0.95254 0.0
C187 C 0.41633 0.11432 0.13413 0.0
C188 C 0.45553 0.0695 0.22791 0.0
C189 C 0.48646 0.04774 0.22142 0.0
N190 N 0.50056 0.06995 0.02199 0.0
C191 C 0.50907 0.04868 0.11887 0.0
H192 H 0.53281 0.03142 0.11788 0.0
C193 C 0.49644 0.15512 0.80139 0.0
N194 N 0.49399 0.12249 0.85999 0.0
C195 C 0.4676 0.18003 0.80389 0.0
C196 C 0.43735 0.17352 0.87645 0.0
H197 H 0.52066 0.16274 0.75245 0.0
H198 H 0.39687 0.11297 0.20829 0.0
H199 H 0.54292 0.05996 0.37687 0.0
H200 H 0.438 0.06844 0.30727 0.0
H201 H 0.49231 0.02934 0.29393 0.0
H202 H 0.38824 0.15838 0.05056 0.0
H203 H 0.5163 0.91633 0.7017 0.0
H204 H 0.64142 1.01663 0.23991 0.0
H205 H 0.59298 0.06231 0.23507 0.0
H206 H 0.65524 0.90355 0.43982 0.0
H207 H 0.46923 0.20474 0.75239 0.0
H208 H 0.4154 0.19331 0.88078 0.0
H209 H 0.66295 0.9556 0.30861 0.0
H210 H 0.55827 0.86496 0.69347 0.0
N211 N 0.5611 1.01186 0.46532 0.0
C212 C 0.61821 1.01368 0.29842 0.0
C213 C 0.59112 0.03996 0.29704 0.0
C214 C 0.61521 0.98447 0.37637 0.0
C215 C 0.58589 0.98408 0.46006 0.0
C216 C 0.56261 0.03856 0.38065 0.0
N217 N 0.55126 0.95283 0.60627 0.0
C218 C 0.58138 0.95434 0.53438 0.0
C219 C 0.56552 0.89013 0.65015 0.0
C220 C 0.59836 0.89285 0.58826 0.0
C221 C 0.54176 0.91988 0.65487 0.0
C222 C 0.60601 0.92456 0.52547 0.0
H223 H 0.61651 0.8695 0.58303 0.0
O224 O 0.50083 0.96519 0.48153 0.0
O225 O 0.49011 0.04733 0.75606 0.0
O226 O 0.55083 1.01595 0.91652 0.0
O227 O 0.52028 0.97527 0.78793 0.0
O228 O 0.47052 0.99423 0.75064 0.0
O229 O 0.46317 1.00864 0.51906 0.0
O230 O 0.57002 0.12281 0.90114 0.0
O231 O 0.56419 0.03438 0.70829 0.0
O232 O 0.50451 0.06454 0.53862 0.0
O233 O 0.53234 0.10565 0.67304 0.0
O234 O 0.58613 0.0863 0.7238 0.0
O235 O 0.57206 0.07414 1.00649 0.0
C236 C 0.46616 0.02611 0.80233 0.0
C237 C 0.63612 0.92607 0.4473 0.0
C238 C 0.64049 0.95577 0.37221 0.0
C239 C 0.46782 0.9766 0.46771 0.0
C240 C 0.43925 0.94894 0.4867 0.0
C241 C 0.44049 0.92655 0.58847 0.0
C242 C 0.41164 0.94325 0.40028 0.0
C243 C 0.38611 0.91498 0.41394 0.0
C244 C 0.41602 0.89775 0.60019 0.0
C245 C 0.3893 0.8915 0.51209 0.0
C246 C 0.53802 0.98252 0.88952 0.0
C247 C 0.58988 0.05509 0.66795 0.0
C248 C 0.58539 0.10646 0.99109 0.0
C249 C 0.62502 0.10815 1.00029 0.0
C250 C 0.64105 0.1336 0.08119 0.0
C251 C 0.64604 0.07967 0.94846 0.0
C252 C 0.68088 0.07281 0.99286 0.0
C253 C 0.67716 0.12914 0.11649 0.0
C254 C 0.69663 0.09833 0.07583 0.0
C255 C 0.51592 0.0982 0.56879 0.0
H256 H 0.46055 0.93099 0.65847 0.0
H257 H 0.4101 0.96048 0.32208 0.0
H258 H 0.41773 0.88032 0.67797 0.0
H259 H 0.37035 0.86915 0.52238 0.0
H260 H 0.62528 0.15595 0.12061 0.0
H261 H 0.63404 0.06112 0.88185 0.0
H262 H 0.68942 0.14845 0.1807 0.0
H263 H 0.72363 0.0939 0.11204 0.0
Gd264 Gd 0.50331 0.56024 0.84882 0.0
Gd265 Gd 0.57856 0.52803 0.64648 0.0
C266 C 0.69801 0.55916 0.69875 0.0
C267 C 0.70835 0.59943 0.52983 0.0
C268 C 0.64884 0.57225 0.56048 0.0
C269 C 0.66116 0.55576 0.66438 0.0
C270 C 0.67253 0.59338 0.48996 0.0
C271 C 0.72114 0.58218 0.63373 0.0
C272 C 0.71105 0.5376 0.79236 0.0
C273 C 0.68786 0.51243 0.84564 0.0
N274 N 0.63816 0.53336 0.72409 0.0
C275 C 0.65143 0.51042 0.80935 0.0
H276 H 0.63375 0.49052 0.84978 0.0
C277 C 0.60298 0.57524 0.41031 0.0
N278 N 0.61421 0.56547 0.52354 0.0
C279 C 0.62552 0.59577 0.33689 0.0
C280 C 0.66011 0.60592 0.37806 0.0
H281 H 0.57643 0.56733 0.37735 0.0
H282 H 0.74937 0.58557 0.65974 0.0
H283 H 0.46261 0.61224 0.64272 0.0
H284 H 0.73923 0.53917 0.82086 0.0
H285 H 0.69797 0.49466 0.91506 0.0
H286 H 0.72685 0.616 0.4779 0.0
H287 H 0.48085 0.52498 0.11211 0.0
H288 H 0.35259 0.57831 0.59518 0.0
H289 H 0.40347 0.61913 0.54288 0.0
H290 H 0.33755 0.48965 0.90186 0.0
H291 H 0.61635 0.60238 0.24702 0.0
H292 H 0.67768 0.62163 0.31994 0.0
H293 H 0.32895 0.52838 0.72437 0.0
H294 H 0.43193 0.48721 0.20047 0.0
N295 N 0.44752 0.56586 0.74187 0.0
C296 C 0.37897 0.57465 0.63702 0.0
C297 C 0.4076 0.59764 0.60713 0.0
C298 C 0.38433 0.54831 0.72477 0.0
C299 C 0.41911 0.54517 0.77813 0.0
C300 C 0.44161 0.59302 0.66137 0.0
N301 N 0.4558 0.52712 0.93881 0.0
C302 C 0.42378 0.5242 0.87851 0.0
C303 C 0.42938 0.49708 0.10899 0.0
C304 C 0.39815 0.48936 0.04121 0.0
C305 C 0.45736 0.51764 0.05786 0.0
C306 C 0.3941 0.50491 0.92732 0.0
H307 H 0.37639 0.47374 0.08124 0.0
O308 O 0.50548 0.58823 0.02675 0.0
O309 O 0.56381 0.55402 0.82716 0.0
O310 O 0.56387 0.48339 0.78467 0.0
O311 O 0.50669 0.49761 0.86853 0.0
O312 O 0.54368 0.54929 1.0014 0.0
O313 O 0.47583 0.61198 0.87943 0.0
O314 O 0.58287 0.49881 0.47225 0.0
O315 O 0.51868 0.53657 0.66745 0.0
O316 O 0.5235 0.60707 0.72635 0.0
O317 O 0.5785 0.58993 0.63428 0.0
O318 O 0.53587 0.52384 0.49536 0.0
O319 O 0.60799 0.477 0.63303 0.0
C320 C 0.57324 0.54833 0.93727 0.0
C321 C 0.36051 0.50464 0.86658 0.0
C322 C 0.35556 0.52668 0.76581 0.0
C323 C 0.48598 0.61567 0.99209 0.0
C324 C 0.49785 0.6522 0.03005 0.0
C325 C 0.47458 0.67384 0.10325 0.0
C326 C 0.53146 0.66603 0.99237 0.0
C327 C 0.54301 0.70041 0.03583 0.0
C328 C 0.48506 0.70894 0.14057 0.0
C329 C 0.51935 0.72198 0.10909 0.0
C330 C 0.5343 0.47403 0.84788 0.0
C331 C 0.50727 0.53154 0.55846 0.0
C332 C 0.60091 0.4718 0.51768 0.0
C333 C 0.58836 0.43551 0.48071 0.0
C334 C 0.609 0.41487 0.39609 0.0
C335 C 0.55508 0.42223 0.5235 0.0
C336 C 0.54176 0.38881 0.47771 0.0
C337 C 0.59628 0.3811 0.35289 0.0
C338 C 0.56277 0.3682 0.39275 0.0
C339 C 0.5533 0.61477 0.66156 0.0
H340 H 0.44825 0.66362 0.13098 0.0
H341 H 0.54884 0.6498 0.93275 0.0
H342 H 0.46689 0.72579 0.19608 0.0
H343 H 0.52766 0.74872 0.14361 0.0
H344 H 0.63467 0.42509 0.36235 0.0
H345 H 0.53918 0.43829 0.589 0.0
H346 H 0.61207 0.36522 0.28678 0.0
H347 H 0.55289 0.34233 0.3555 0.0
Gd348 Gd 0.02423 0.50415 0.83523 0.0
Gd349 Gd 0.05911 0.57551 0.6332 0.0
C350 C 0.03173 0.69766 0.65469 0.0
C351 C 0.9876 0.70301 0.49162 0.0
C352 C 1.01598 0.64452 0.53005 0.0
C353 C 0.0341 0.65973 0.629 0.0
C354 C 0.99308 0.6661 0.45849 0.0
C355 C 1.0075 0.71899 0.58802 0.0
C356 C 0.05456 0.71313 0.74396 0.0
C357 C 0.0785 0.69078 0.80628 0.0
N358 N 0.05585 0.63789 0.69537 0.0
C359 C 0.07858 0.65308 0.78137 0.0
H360 H 0.0969 0.63609 0.83111 0.0
C361 C 1.00969 0.59433 0.39176 0.0
N362 N 1.02221 0.60887 0.50005 0.0
C363 C 0.98636 0.61433 0.31897 0.0
C364 C 0.97742 0.65024 0.35355 0.0
H365 H 1.01694 0.56701 0.36294 0.0
H366 H 1.00462 0.74799 0.60825 0.0
H367 H 0.98775 0.44774 0.62404 0.0
H368 H 0.05402 0.74223 0.76505 0.0
H369 H 0.09642 0.70244 0.87524 0.0
H370 H 0.96934 0.71979 0.43975 0.0
H371 H 0.05979 0.50623 0.1122 0.0
H372 H 0.0355 0.34175 0.6519 0.0
H373 H 0.99188 0.38317 0.55422 0.0
H374 H 0.10919 0.35484 1.01023 0.0
H375 H 0.97573 0.60191 0.23597 0.0
H376 H 0.9597 0.66596 0.29639 0.0
H377 H 0.08039 0.33173 0.82065 0.0
H378 H 0.09418 0.46721 0.24469 0.0
N379 N 0.0296 0.44362 0.75574 0.0
C380 C 0.03389 0.37013 0.68239 0.0
C381 C 1.0092 0.3934 0.62723 0.0
C382 C 0.05473 0.38336 0.78066 0.0
C383 C 0.05124 0.42049 0.81725 0.0
C384 C 1.00711 0.43009 0.66636 0.0
N385 N 0.05937 0.46787 0.96285 0.0
C386 C 0.06662 0.43306 0.9248 0.0
C387 C 0.08832 0.45741 0.15338 0.0
C388 C 0.09881 0.42248 0.1119 0.0
C389 C 0.06821 0.4796 0.0783 0.0
C390 C 0.08705 0.40949 0.9974 0.0
H391 H 0.1141 0.40508 0.17132 0.0
O392 O 0.99272 0.50032 1.00156 0.0
O393 O 0.03767 0.56369 0.81792 0.0
O394 O 0.10331 0.55906 0.77391 0.0
O395 O 0.08594 0.50412 0.8584 0.0
O396 O 0.0227 0.54868 0.98733 0.0
O397 O 0.97114 0.47853 0.83096 0.0
O398 O 0.0924 0.577 0.4695 0.0
O399 O 0.04652 0.51616 0.65127 0.0
O400 O 0.98007 0.51979 0.69609 0.0
O401 O 0.99615 0.57684 0.62397 0.0
O402 O 0.06111 0.53151 0.4809 0.0
O403 O 0.11235 0.60043 0.6405 0.0
C404 C 0.0333 0.57636 0.92716 0.0
C405 C 0.09327 0.37332 0.95632 0.0
C406 C 0.07696 0.36019 0.84822 0.0
C407 C 0.96522 0.48464 0.94677 0.0
C408 C 0.92966 0.49962 0.97821 0.0
C409 C 0.90536 0.47893 0.04605 0.0
C410 C 0.92029 0.53486 0.9437 0.0
C411 C 0.88738 0.5505 0.98299 0.0
C412 C 0.87182 0.49366 0.08078 0.0
C413 C 0.86304 0.52938 0.05122 0.0
C414 C 0.11082 0.52961 0.83926 0.0
C415 C 0.05137 0.50374 0.54199 0.0
C416 C 0.11951 0.59294 0.52641 0.0
C417 C 0.15575 0.57813 0.50219 0.0
C418 C 0.18217 0.60082 0.45229 0.0
C419 C 0.16433 0.5419 0.52874 0.0
C420 C 0.19835 0.52738 0.49523 0.0
C421 C 0.21679 0.58718 0.42607 0.0
C422 C 0.22469 0.55055 0.4451 0.0
C423 C 0.97186 0.55017 0.63769 0.0
H424 H 0.91241 0.45152 0.07239 0.0
H425 H 0.93902 0.5499 0.88852 0.0
H426 H 0.85286 0.47761 0.13246 0.0
H427 H 0.83731 0.54067 0.08283 0.0
H428 H 0.17596 0.62902 0.43336 0.0
H429 H 0.14421 0.52491 0.57112 0.0
H430 H 0.23721 0.60472 0.38736 0.0
H431 H 0.25121 0.54011 0.41814 0.0
C432 C 0.13503 0.02852 0.27957 0.0
C433 C 0.16984 0.04283 0.31036 0.0
C434 C 0.1406 0.07392 0.48868 0.0
C435 C 0.10802 0.05318 0.47142 0.0
N436 N 0.07812 1.00533 0.35232 0.0
N437 N 0.20596 0.07757 0.45581 0.0
C438 C 0.10606 0.02953 0.36624 0.0
C439 C 0.17271 0.06543 0.41769 0.0
N440 N 0.12935 1.01328 0.16636 0.0
N441 N 0.14032 0.10305 0.56869 0.0
H442 H 0.22978 0.07228 0.40678 0.0
H443 H 0.21005 0.09057 0.54053 0.0
H444 H 0.11617 0.11215 0.60895 0.0
H445 H 0.16223 0.12084 0.5804 0.0
H446 H 0.1033 1.00749 0.13499 0.0
H447 H 0.14948 1.01105 0.09941 0.0
H448 H 0.07753 0.98477 0.2845 0.0
H449 H 0.05781 1.00221 0.4169 0.0
C450 C 0.53194 0.17089 0.32705 0.0
C451 C 0.49624 0.17754 0.28366 0.0
C452 C 0.47262 0.13705 0.44329 0.0
C453 C 0.50855 0.12964 0.48303 0.0
N454 N 0.56658 0.16034 0.50869 0.0
N455 N 0.4328 0.17638 0.32563 0.0
C456 C 0.53671 0.15265 0.43926 0.0
C457 C 0.46653 0.16297 0.34963 0.0
N458 N 0.56168 0.18047 0.26086 0.0
N459 N 0.44427 0.1211 0.50116 0.0
H460 H 0.40919 0.1701 0.37352 0.0
H461 H 0.40919 0.1701 0.37352 0.0
H462 H 0.44791 0.10956 0.58573 0.0
H463 H 0.41784 0.11993 0.46744 0.0
H464 H 0.58804 0.17402 0.28796 0.0
H465 H 0.55997 0.19055 0.17333 0.0
H466 H 0.58588 0.17966 0.48411 0.0
H467 H 0.57004 0.15074 0.5962 0.0
C468 C 0.4223 0.54972 0.3588 0.0
C469 C 0.39731 0.52317 0.39958 0.0
C470 C 0.44439 0.50165 0.54386 0.0
C471 C 0.46919 0.52861 0.50416 0.0
N472 N 0.48513 0.56841 0.33965 0.0
N473 N 0.38799 0.46827 0.51173 0.0
C474 C 0.45925 0.54941 0.40075 0.0
C475 C 0.40942 0.49761 0.48687 0.0
N476 N 0.41053 0.57666 0.28492 0.0
N477 N 0.45455 0.47916 0.63492 0.0
H478 H 0.36296 0.46373 0.47038 0.0
H479 H 0.39613 0.44651 0.56404 0.0
H480 H 0.48122 0.47763 0.6656 0.0
H481 H 0.43664 0.46269 0.68209 0.0
H482 H 0.42623 0.59938 0.2646 0.0
H483 H 0.38398 0.57807 0.25239 0.0
H484 H 0.48013 0.58104 0.25754 0.0
H485 H 0.51234 0.56926 0.36497 0.0
C486 C 0.02933 0.41951 0.32956 0.0
C487 C 0.05681 0.39421 0.36178 0.0
C488 C 0.08081 0.44062 0.51133 0.0
C489 C 0.05206 0.46517 0.48461 0.0
N490 N 1.00771 0.482 0.33411 0.0
N491 N 0.10886 0.3806 0.48526 0.0
C492 C 0.02894 0.45574 0.38364 0.0
C493 C 0.08275 0.40505 0.45241 0.0
N494 N 1.00204 0.40852 0.25255 0.0
N495 N 0.10797 0.45246 0.58682 0.0
H496 H 0.11351 0.35604 0.43699 0.0
H497 H 0.12504 0.38374 0.56257 0.0
H498 H 0.10764 0.47828 0.62885 0.0
H499 H 0.13222 0.43843 0.59939 0.0
H500 H 0.97862 0.42389 0.23857 0.0
H501 H 1.00135 0.38287 0.20909 0.0
H502 H 0.99442 0.47858 0.25076 0.0
H503 H 1.0052 0.50815 0.37245 0.0
C504 C 0.90693 0.07391 0.20536 0.0
C505 C 0.88784 0.04085 0.22413 0.0
C506 C 0.92256 1.01126 0.05448 0.0
C507 C 0.94184 0.04433 0.03444 0.0
N508 N 0.94653 0.10918 0.07549 0.0
N509 N 0.8708 0.98172 0.15223 0.0
C510 C 0.93203 0.07633 0.10491 0.0
C511 C 0.89364 1.01077 0.14228 0.0
N512 N 0.90231 0.10258 0.28639 0.0
N513 N 0.93329 0.97984 0.99418 0.0
H514 H 0.87034 0.95889 0.09328 0.0
H515 H 0.87034 0.95889 0.09328 0.0
H516 H 0.956 0.9788 0.93773 0.0
H517 H 0.92209 0.95415 1.006 0.0
H518 H 0.91831 0.12601 0.28718 0.0
H519 H 0.88362 0.10205 0.35792 0.0
H520 H 0.93791 0.13416 0.11316 0.0
H521 H 0.96558 0.11163 1.00617 0.0
C522 C 0.58668 0.91205 0.08876 0.0
C523 C 0.55873 0.90478 0.17475 0.0
C524 C 0.51535 0.93446 0.03973 0.0
C525 C 0.54431 0.95108 0.97562 0.0
N526 N 0.60386 0.93923 0.89641 0.0
N527 N 0.49652 0.90983 0.23339 0.0
C528 C 0.57917 0.93493 0.98753 0.0
C529 C 0.5229 0.916 0.14954 0.0
N530 N 0.61991 0.89595 0.10178 0.0
N531 N 0.48187 0.9313 0.98765 0.0
H532 H 0.47008 0.91995 0.22651 0.0
H533 H 0.47008 0.91995 0.22651 0.0
H534 H 0.47633 0.94069 0.90098 0.0
H535 H 0.46108 0.9158 0.02482 0.0
H536 H 0.63934 0.89404 0.03297 0.0
H537 H 0.62746 0.88238 0.18005 0.0
H538 H 0.63067 0.9302 0.89782 0.0
H539 H 0.59597 0.94986 0.81371 0.0
C540 C 0.66935 0.58422 0.02255 0.0
C541 C 0.68134 0.55898 0.11057 0.0
C542 C 0.62239 0.52651 0.08585 0.0
C543 C 0.6106 0.55194 0.99737 0.0
N544 N 0.61933 0.61136 0.91563 0.0
N545 N 0.6658 0.51046 0.24397 0.0
C546 C 0.6331 0.58256 0.97592 0.0
C547 C 0.65661 0.53165 0.14841 0.0
N548 N 0.69299 0.60956 0.97955 0.0
N549 N 0.6019 0.49611 0.10482 0.0
H550 H 0.69063 0.51298 0.28906 0.0
H551 H 0.64775 0.49282 0.28562 0.0
H552 H 0.5776 0.49096 0.05903 0.0
H553 H 0.61026 0.4745 0.15757 0.0
H554 H 0.68797 0.62461 0.90217 0.0
H555 H 0.71863 0.61405 0.01633 0.0
H556 H 0.63252 0.63645 0.91159 0.0
H557 H 0.59311 0.6116 0.88086 0.0
C558 C 0.05966 0.65282 0.16627 0.0
C559 C 0.04095 0.68407 0.12407 0.0
C560 C 1.01597 0.64454 0.95521 0.0
C561 C 0.03798 0.61445 0.98856 0.0
N562 N 0.07893 0.59012 0.13846 0.0
N563 N 1.00317 0.70948 0.96808 0.0
C564 C 0.05893 0.61875 0.09803 0.0
C565 C 1.0192 0.67958 0.01685 0.0
N566 N 0.07962 0.65472 0.27065 0.0
N567 N 0.99194 0.63973 0.86231 0.0
H568 H 1.00583 0.7358 1.00473 0.0
H569 H 0.98977 0.70909 0.8847 0.0
H570 H 0.99318 0.61675 0.80531 0.0
H571 H 0.97071 0.65758 0.84398 0.0
H572 H 0.08166 0.67801 0.32705 0.0
H573 H 0.08166 0.67801 0.32705 0.0
H574 H 0.09429 0.59173 0.21841 0.0
H575 H 0.08144 0.56544 0.08959 0.0
C576 C 0.96347 0.2564 0.46307 0.0
C577 C 0.95843 0.25333 0.33453 0.0
C578 C 0.89993 0.22338 0.36408 0.0
C579 C 0.90661 0.22433 0.49088 0.0
N580 N 0.93388 0.25609 0.66079 0.0
N581 N 0.91611 0.24686 0.16705 0.0
C582 C 0.93449 0.24643 0.53993 0.0
C583 C 0.92454 0.24125 0.28622 0.0
N584 N 0.99651 0.26556 0.51204 0.0
N585 N 0.87157 0.20324 0.31854 0.0
H586 H 0.93323 0.26126 0.10966 0.0
H587 H 0.8908 0.24065 0.1293 0.0
H588 H 0.85262 0.1911 0.37574 0.0
H589 H 0.86785 0.19752 0.22575 0.0
H590 H 1.00188 0.26474 0.60522 0.0
H591 H 1.01959 0.27046 0.45972 0.0
H592 H 0.95242 0.27432 0.70072 0.0
H593 H 0.91216 0.24879 0.7166 0.0
C594 C 0.29273 0.92022 0.27023 0.0
C595 C 0.30444 0.92825 0.15175 0.0
C596 C 0.36352 0.90225 0.20035 0.0
C597 C 0.35586 0.91071 0.32543 0.0
N598 N 0.31003 0.92431 0.48125 0.0
N599 N 0.34016 0.90092 0.99128 0.0
C600 C 0.31928 0.91764 0.36207 0.0
C601 C 0.33647 0.91016 0.11195 0.0
N602 N 0.25693 0.91365 0.29246 0.0
N603 N 0.39647 0.88782 0.16762 0.0
H604 H 0.31938 0.90671 0.92981 0.0
H605 H 0.3622 0.88657 0.95416 0.0
H606 H 0.41533 0.87978 0.23259 0.0
H607 H 0.40479 0.88331 0.07767 0.0
H608 H 0.24745 0.90523 0.37686 0.0
H609 H 0.23792 0.91372 0.2217 0.0
H610 H 0.28384 0.93242 0.50727 0.0
H611 H 0.32875 0.92442 0.55237 0.0
C612 C 0.47576 0.31594 0.4993 0.0
C613 C 0.4569 0.32884 0.39764 0.0
C614 C 0.47419 0.39043 0.45128 0.0
C615 C 0.5051 0.37532 0.50945 0.0
N616 N 0.52818 0.32672 0.63037 0.0
N617 N 0.41773 0.37854 0.34683 0.0
C618 C 0.50275 0.33915 0.55161 0.0
C619 C 0.44723 0.36602 0.40688 0.0
N620 N 0.4682 0.28225 0.54157 0.0
N621 N 0.47296 0.4262 0.4213 0.0
H622 H 0.39933 0.36086 0.30317 0.0
H623 H 0.39933 0.36086 0.30317 0.0
H624 H 0.49321 0.4448 0.44581 0.0
H625 H 0.45159 0.43677 0.37054 0.0
H626 H 0.48036 0.27179 0.61882 0.0
H627 H 0.44723 0.26649 0.50322 0.0
H628 H 0.52986 0.2996 0.65591 0.0
H629 H 0.5479 0.34421 0.66763 0.0
C630 C 0.26123 0.45015 0.49417 0.0
C631 C 0.24921 0.43802 0.37752 0.0
C632 C 0.19001 0.46175 0.42109 0.0
C633 C 0.2069 0.48783 0.50223 0.0
N634 N 0.25384 0.49636 0.65425 0.0
N635 N 0.1978 0.40253 0.31496 0.0
C636 C 0.24068 0.47795 0.55442 0.0
C637 C 0.21165 0.43212 0.37628 0.0
N638 N 0.29262 0.43771 0.54243 0.0
N639 N 0.15675 0.46754 0.37232 0.0
H640 H 0.21513 0.38308 0.27401 0.0
H641 H 0.17004 0.39663 0.31361 0.0
H642 H 0.14011 0.48955 0.39672 0.0
H643 H 0.1471 0.4504 0.30274 0.0
H644 H 0.30824 0.41744 0.49808 0.0
H645 H 0.30824 0.41744 0.49808 0.0
H646 H 0.27874 0.48957 0.6931 0.0
H647 H 0.23888 0.51723 0.69799 0.0
C648 C 0.93977 0.85234 0.12765 0.0
C649 C 0.94451 0.81498 0.13533 0.0
C650 C 0.98068 0.81947 0.9485 0.0
C651 C 0.99177 0.85487 0.99346 0.0
N652 N 0.98592 0.89628 0.16934 0.0
N653 N 0.94018 0.76729 0.98308 0.0
C654 C 0.97087 0.87135 0.09007 0.0
C655 C 0.95549 0.79937 0.0214 0.0
N656 N 0.90979 0.8688 0.17569 0.0
N657 N 0.99447 0.80537 0.8417 0.0
H658 H 0.92198 0.75369 0.03936 0.0
H659 H 0.94381 0.75588 0.8958 0.0
H660 H 1.01089 0.82086 0.78516 0.0
H661 H 0.9894 0.77881 0.8099 0.0
H662 H 0.90424 0.8961 0.16091 0.0
H663 H 0.88913 0.85343 0.21491 0.0
H664 H 0.97554 0.89961 0.25693 0.0
H665 H 1.01201 0.90693 0.16171 0.0
C666 C 0.76213 1.01602 0.98972 0.0
C667 C 0.74838 0.99468 0.08439 0.0
C668 C 0.68747 1.0044 0.01409 0.0
C669 C 0.70032 0.03785 0.96526 0.0
N670 N 0.74926 0.06712 0.85996 0.0
N671 N 0.70569 0.9471 0.1064 0.0
C672 C 0.73764 0.04024 0.93383 0.0
C673 C 0.71375 0.98048 0.06311 0.0
N674 N 0.79718 1.01165 0.95199 0.0
N675 N 0.65133 0.99723 0.0254 0.0
H676 H 0.72555 0.93174 0.14986 0.0
H677 H 0.68082 0.9344 0.09277 0.0
H678 H 0.63092 1.01396 0.99354 0.0
H679 H 0.64151 0.97506 0.07246 0.0
H680 H 0.81366 0.99161 0.9892 0.0
H681 H 0.80826 0.02522 0.87847 0.0
H682 H 0.77665 0.07238 0.84314 0.0
H683 H 0.73073 0.08429 0.81768 0.0
C684 C 0.6378 0.72476 0.11799 0.0
C685 C 0.62769 0.7616 0.12406 0.0
C686 C 0.58407 0.74917 0.96393 0.0
C687 C 0.58033 0.71403 0.0139 0.0
N688 N 0.60947 0.66576 0.12581 0.0
N689 N 0.61996 0.8054 0.96816 0.0
C690 C 0.61013 0.69991 0.0811 0.0
C691 C 0.61088 0.77281 0.01587 0.0
N692 N 0.66983 0.71417 0.16751 0.0
N693 N 0.56058 0.76018 0.87654 0.0
H694 H 0.63993 0.82178 1.00967 0.0
H695 H 0.60944 0.81456 0.88638 0.0
H696 H 0.54142 0.74218 0.83829 0.0
H697 H 0.56017 0.78661 0.84396 0.0
H698 H 0.67886 0.68714 0.16336 0.0
H699 H 0.68791 0.73359 0.20399 0.0
H700 H 0.62952 0.65699 0.18486 0.0
H701 H 0.58856 0.64726 0.10785 0.0
C702 C 0.82146 0.62344 0.97175 0.0
C703 C 0.83458 0.63754 0.08439 0.0
C704 C 0.8949 0.61785 0.02794 0.0
C705 C 0.87771 0.58902 0.95958 0.0
N706 N 0.8287 0.57334 0.82285 0.0
N707 N 0.88467 0.67505 0.14539 0.0
C708 C 0.84247 0.59559 0.91296 0.0
C709 C 0.872 0.64519 0.08231 0.0
N710 N 0.7895 0.63576 0.92639 0.0
N711 N 0.93139 0.61764 0.0477 0.0
H712 H 0.86657 0.69281 0.19095 0.0
H713 H 0.91186 0.68301 0.14579 0.0
H714 H 0.94844 0.59758 1.01036 0.0
H715 H 0.94471 0.63797 0.09832 0.0
H716 H 0.77923 0.62712 0.84186 0.0
H717 H 0.77499 0.65651 0.97261 0.0
H718 H 0.80184 0.57478 0.79343 0.0
H719 H 0.84479 0.55312 0.78028 0.0
C720 C 1.00232 0.20027 0.91365 0.0
C721 C 0.03361 0.21233 0.9793 0.0
C722 C 0.06675 0.15936 0.88537 0.0
C723 C 0.03361 0.14323 0.84195 0.0
N724 N 0.96874 0.15045 0.81793 0.0
N725 N 0.09631 0.20175 0.02949 0.0
C726 C 1.00117 0.16451 0.85674 0.0
C727 C 0.06618 0.19163 0.96446 0.0
N728 N 0.97354 0.22366 0.90457 0.0
N729 N 0.09901 0.14438 0.84878 0.0
H730 H 0.09685 0.2249 0.08713 0.0
H731 H 0.11993 0.18606 0.03177 0.0
H732 H 0.10019 0.12004 0.79774 0.0
H733 H 0.1241 0.15687 0.86427 0.0
H734 H 0.95012 0.21771 0.85512 0.0
H735 H 0.97468 0.25069 0.93741 0.0
H736 H 0.94359 0.16212 0.83916 0.0
H737 H 0.96656 0.12487 0.77583 0.0
C738 C 0.36304 0.04858 0.85419 0.0
C739 C 0.35776 0.03669 0.97516 0.0
C740 C 0.42282 1.02114 0.9843 0.0
C741 C 0.42979 0.0351 0.86658 0.0
N742 N 0.40454 0.0608 0.68618 0.0
N743 N 0.38466 1.02122 0.16537 0.0
C744 C 0.39929 0.04924 0.80169 0.0
C745 C 0.38862 0.0268 0.04332 0.0
N746 N 0.33305 0.05698 0.7873 0.0
N747 N 0.44843 1.00049 0.03855 0.0
H748 H 0.36013 0.02606 0.21142 0.0
H749 H 0.40618 1.01516 0.22267 0.0
H750 H 0.47446 0.99787 1.003 0.0
H751 H 0.4434 0.98508 0.11518 0.0
H752 H 0.33354 0.06245 0.69481 0.0
H753 H 0.30698 0.05749 0.82532 0.0
H754 H 0.38516 0.07465 0.63631 0.0
H755 H 0.42915 0.05689 0.64089 0.0
C756 C 0.48825 0.39452 0.99731 0.0
C757 C 0.5123 0.36419 0.99751 0.0
C758 C 0.55401 0.40358 0.87792 0.0
C759 C 0.53123 0.43531 0.90194 0.0
N760 N 0.49913 0.45336 0.08238 0.0
N761 N 0.57455 0.34551 0.9575 0.0
C762 C 0.5032 0.42956 0.98663 0.0
C763 C 0.54707 0.36995 0.94175 0.0
N764 N 0.4522 0.3911 0.02297 0.0
N765 N 0.58282 0.40486 0.80019 0.0
H766 H 0.57178 0.32252 1.01016 0.0
H767 H 0.60121 0.3503 0.92961 0.0
H768 H 0.59202 0.42852 0.76217 0.0
H769 H 0.5969 0.38152 0.77031 0.0
H770 H 0.4352 0.41398 0.02908 0.0
H771 H 0.43967 0.36561 0.02843 0.0
H772 H 0.48285 0.447 0.15706 0.0
H773 H 0.51651 0.4757 0.09391 0.0
C774 C 0.2054 0.48909 0.93353 0.0
C775 C 0.21885 0.51539 0.01941 0.0
C776 C 0.16549 0.55435 0.96971 0.0
C777 C 0.14887 0.52524 0.89874 0.0
N778 N 0.15326 0.46078 0.83911 0.0
N779 N 0.20934 0.57279 0.12637 0.0
C780 C 0.16898 0.49157 0.88769 0.0
C781 C 0.19847 0.54818 0.03796 0.0
N782 N 0.22773 0.4611 0.89562 0.0
N783 N 0.14947 0.58796 0.97588 0.0
H784 H 0.23364 0.57008 0.17388 0.0
H785 H 0.19334 0.59464 0.15768 0.0
H786 H 0.12367 0.59302 0.94246 0.0
H787 H 0.16249 0.6113 1.01037 0.0
H788 H 0.22126 0.44295 0.82391 0.0
H789 H 0.25452 0.45885 0.92615 0.0
H790 H 0.1651 0.43497 0.84294 0.0
H791 H 0.12688 0.45966 0.80758 0.0
C792 C 0.99124 0.88184 0.57665 0.0
C793 C 1.01434 0.8667 0.48262 0.0
C794 C 0.05142 0.9236 0.50169 0.0
C795 C 0.02629 0.94118 0.58652 0.0
N796 N 0.97807 0.92972 0.72942 0.0
N797 N 0.06105 0.87937 0.33559 0.0
C798 C 0.99743 0.91829 0.6293 0.0
C799 C 0.04288 0.88931 0.44042 0.0
N800 N 0.96267 0.86122 0.61516 0.0
N801 N 0.08535 0.93778 0.48394 0.0
H802 H 0.05598 0.85521 0.28595 0.0
H803 H 0.07842 0.89706 0.29068 0.0
H804 H 0.0948 0.96209 0.52278 0.0
H805 H 0.10589 0.92338 0.43758 0.0
H806 H 0.94113 0.87135 0.66779 0.0
H807 H 0.95972 0.8337 0.58979 0.0
H808 H 0.95933 0.91387 0.77524 0.0
H809 H 0.98333 0.95423 0.77527 0.0
C810 C 0.67738 0.07077 0.47379 0.0
C811 C 0.69885 0.03926 0.49276 0.0
C812 C 0.65068 1.01821 0.63514 0.0
C813 C 0.62658 0.04679 0.60176 0.0
N814 N 0.6176 0.09834 0.47436 0.0
N815 N 0.70413 0.98094 0.58613 0.0
C816 C 0.64059 0.0728 0.51853 0.0
C817 C 0.68487 1.01241 0.57192 0.0
N818 N 0.69207 0.09904 0.41176 0.0
N819 N 0.6421 0.99788 0.73258 0.0
H820 H 0.72973 0.97663 0.54676 0.0
H821 H 0.69376 0.9584 0.63031 0.0
H822 H 0.61887 1.00329 0.78422 0.0
H823 H 0.6597 0.97887 0.76937 0.0
H824 H 0.67983 0.12461 0.40716 0.0
H825 H 0.71818 0.09813 0.37433 0.0
H826 H 0.6242 0.11577 0.40437 0.0
H827 H 0.59007 0.09794 0.49495 0.0
C828 C 0.53214 0.70357 0.48704 0.0
C829 C 0.56393 0.72482 0.50739 0.0
C830 C 0.58927 0.67487 0.62917 0.0
C831 C 0.55745 0.65299 0.60851 0.0
N832 N 0.50422 0.64373 0.48474 0.0
N833 N 0.61786 0.73484 0.62558 0.0
C834 C 0.53002 0.66701 0.53051 0.0
C835 C 0.59087 0.71161 0.58728 0.0
N836 N 0.50356 0.71843 0.42668 0.0
N837 N 0.6195 0.65985 0.67923 0.0
H838 H 0.61938 0.76176 0.59721 0.0
H839 H 0.63604 0.72895 0.69504 0.0
H840 H 0.62108 0.63267 0.70169 0.0
H841 H 0.64462 0.6729 0.68446 0.0
H842 H 0.4779 0.70644 0.42194 0.0
H843 H 0.50442 0.74448 0.39119 0.0
H844 H 0.48574 0.65033 0.41705 0.0
H845 H 0.50443 0.61614 0.50388 0.0
C846 C 0.87982 0.59443 0.54323 0.0
C847 C 0.86469 0.56793 0.46039 0.0
C848 C 0.91755 0.52756 0.50187 0.0
C849 C 0.93324 0.55452 0.58333 0.0
N850 N 0.92081 0.60748 0.71097 0.0
N851 N 0.86564 0.50609 0.38107 0.0
C852 C 0.91199 0.58635 0.61137 0.0
C853 C 0.88241 0.53345 0.44687 0.0
N854 N 0.86322 0.62771 0.55737 0.0
N855 N 0.93686 0.49677 0.47207 0.0
H856 H 0.84093 0.50968 0.33682 0.0
H857 H 0.87445 0.47906 0.37812 0.0
H858 H 0.96148 0.49067 0.51246 0.0
H859 H 0.9299 0.47836 0.40187 0.0
H860 H 0.87533 0.65018 0.60122 0.0
H861 H 0.83782 0.63336 0.51992 0.0
H862 H 0.90571 0.62986 0.74297 0.0
H863 H 0.93995 0.59874 0.77256 0.0
loop_
_geom_bond_atom_site_label_1
_geom_bond_atom_site_label_2
_geom_bond_distance
_geom_bond_site_symmetry_2
_ccdc_geom_bond_type
H0 C5 0.930 . S
H1 C8 0.930 . S
H2 C10 0.930 . S
H3 C4 1.016 . S
C4 H3 1.016 . S
C4 N11 1.286 . S
C5 H0 0.930 . S
C5 C6 1.397 . S
C5 C7 1.361 . S
C6 C5 1.397 . S
C6 C10 1.390 . S
C7 C5 1.361 . S
C7 C8 1.393 . S
C7 N11 1.413 . S
C8 H1 0.930 . S
C8 C7 1.393 . S
C8 C9 1.399 . S
C9 C8 1.399 . S
C9 C10 1.381 . S
C10 H2 0.930 . S
C10 C6 1.390 . S
C10 C9 1.381 . S
N11 C4 1.286 . S
N11 C7 1.413 . S
H12 C17 0.930 . S
H13 C20 0.930 . S
H14 C22 0.930 . S
H15 C16 1.016 . S
C16 H15 1.016 . S
C16 N23 1.286 . S
C17 H12 0.930 . S
C17 C18 1.397 . S
C17 C19 1.361 . S
C18 C17 1.397 . S
C18 C22 1.390 . S
C19 C17 1.361 . S
C19 C20 1.393 . S
C19 N23 1.413 . S
C20 H13 0.930 . S
C20 C19 1.393 . S
C20 C21 1.399 . S
C21 C20 1.399 . S
C21 C22 1.381 . S
C22 H14 0.930 . S
C22 C18 1.390 . S
C22 C21 1.381 . S
N23 C16 1.286 . S
N23 C19 1.413 . S
H24 C29 0.930 . S
H25 C32 0.930 . S
H26 C34 0.930 . S
H27 C28 1.016 . S
C28 H27 1.016 . S
C28 N35 1.286 . S
C29 H24 0.930 . S
C29 C30 1.397 . S
C29 C31 1.361 . S
C30 C29 1.397 . S
C30 C34 1.390 . S
C31 C29 1.361 . S
C31 C32 1.393 . S
C31 N35 1.413 . S
C32 H25 0.930 . S
C32 C31 1.393 . S
C32 C33 1.399 . S
C33 C32 1.399 . S
C33 C34 1.381 . S
C34 H26 0.930 . S
C34 C30 1.390 . S
C34 C33 1.381 . S
N35 C28 1.286 . S
N35 C31 1.413 . S
H36 C41 0.930 . S
H37 C44 0.930 . S
H38 C46 0.930 . S
H39 C40 1.016 . S
C40 H39 1.016 . S
C40 N47 1.286 . S
C41 H36 0.930 . S
C41 C42 1.397 . S
C41 C43 1.361 . S
C42 C41 1.397 . S
C42 C46 1.390 . S
C43 C41 1.361 . S
C43 C44 1.393 . S
C43 N47 1.413 . S
C44 H37 0.930 . S
C44 C43 1.393 . S
C44 C45 1.399 . S
C45 C44 1.399 . S
C45 C46 1.381 . S
C46 H38 0.930 . S
C46 C42 1.390 . S
C46 C45 1.381 . S
N47 C40 1.286 . S
N47 C43 1.413 . S
H48 C53 0.930 . S
H49 C56 0.930 . S
H50 C58 0.930 . S
H51 C52 1.016 . S
C52 H51 1.016 . S
C52 N59 1.286 . S
C53 H48 0.930 . S
C53 C54 1.397 . S
C53 C55 1.361 1_556 S
C54 C53 1.397 . S
C54 C58 1.390 . S
C55 C53 1.361 1_554 S
C55 C56 1.393 . S
C55 N59 1.413 . S
C56 H49 0.930 . S
C56 C55 1.393 . S
C56 C57 1.399 . S
C57 C56 1.399 . S
C57 C58 1.381 1_554 S
C58 H50 0.930 . S
C58 C54 1.390 . S
C58 C57 1.381 1_556 S
N59 C52 1.286 . S
N59 C55 1.413 . S
H60 C65 0.930 . S
H61 C68 0.930 . S
H62 C70 0.930 . S
H63 C64 1.016 . S
C64 H63 1.016 . S
C64 N71 1.286 . S
C65 H60 0.930 . S
C65 C66 1.397 . S
C65 C67 1.361 1_556 S
C66 C65 1.397 . S
C66 C70 1.390 . S
C67 C65 1.361 1_554 S
C67 C68 1.393 . S
C67 N71 1.413 . S
C68 H61 0.930 . S
C68 C67 1.393 . S
C68 C69 1.399 . S
C69 C68 1.399 . S
C69 C70 1.381 1_554 S
C70 H62 0.930 . S
C70 C66 1.390 . S
C70 C69 1.381 1_556 S
N71 C64 1.286 . S
N71 C67 1.413 . S
H72 C77 0.930 . S
H73 C80 0.930 . S
H74 C82 0.930 . S
H75 C76 1.016 . S
C76 H75 1.016 . S
C76 N83 1.286 . S
C77 H72 0.930 . S
C77 C78 1.397 . S
C77 C79 1.361 1_556 S
C78 C77 1.397 . S
C78 C82 1.390 . S
C79 C77 1.361 1_554 S
C79 C80 1.393 . S
C79 N83 1.413 . S
C80 H73 0.930 . S
C80 C79 1.393 . S
C80 C81 1.399 . S
C81 C80 1.399 . S
C81 C82 1.381 1_554 S
C82 H74 0.930 . S
C82 C78 1.390 . S
C82 C81 1.381 1_556 S
N83 C76 1.286 . S
N83 C79 1.413 . S
H84 C89 0.930 . S
H85 C92 0.930 . S
H86 C94 0.930 . S
H87 C88 1.016 . S
C88 H87 1.016 . S
C88 N95 1.286 . S
C89 H84 0.930 . S
C89 C90 1.397 . S
C89 C91 1.361 1_556 S
C90 C89 1.397 . S
C90 C94 1.390 . S
C91 C89 1.361 1_554 S
C91 C92 1.393 . S
C91 N95 1.413 . S
C92 H85 0.930 . S
C92 C91 1.393 . S
C92 C93 1.399 . S
C93 C92 1.399 . S
C93 C94 1.381 1_554 S
C94 H86 0.930 . S
C94 C90 1.390 . S
C94 C93 1.381 1_556 S
N95 C88 1.286 . S
N95 C91 1.413 . S
Gd96 N127 2.661 1_545 S
Gd96 N133 2.601 . S
Gd96 O140 2.545 . S
Gd96 O141 2.606 1_655 S
Gd96 O143 2.429 . S
Gd96 O144 2.545 1_655 S
Gd96 O145 2.412 . S
Gd96 O147 2.362 1_545 S
Gd96 O148 2.324 1_655 S
Gd96 C155 2.828 . S
Gd97 N106 2.661 1_566 S
Gd97 N110 2.601 1_565 S
Gd97 O141 2.362 1_565 S
Gd97 O142 2.324 1_455 S
Gd97 O146 2.545 . S
Gd97 O147 2.606 1_455 S
Gd97 O149 2.429 . S
Gd97 O150 2.545 . S
Gd97 O151 2.412 1_556 S
Gd97 C164 2.828 . S
C98 C101 1.417 . S
C98 C103 1.431 . S
C98 C104 1.412 . S
C99 C102 1.437 . S
C99 C103 1.317 . S
C99 H118 0.929 . S
C100 C101 1.426 . S
C100 C102 1.413 . S
C100 N110 1.359 1_554 S
C101 C98 1.417 . S
C101 C100 1.426 . S
C101 N106 1.350 . S
C102 C99 1.437 . S
C102 C100 1.413 . S
C102 C112 1.391 . S
C103 C98 1.431 . S
C103 C99 1.317 . S
C103 H114 0.930 . S
C104 C98 1.412 . S
C104 C105 1.355 . S
C104 H116 0.930 . S
C105 C104 1.355 . S
C105 C107 1.402 . S
C105 H117 0.930 1_455 S
N106 Gd97 2.661 1_544 S
N106 C101 1.350 . S
N106 C107 1.307 . S
C107 C105 1.402 . S
C107 N106 1.307 . S
C107 H108 0.930 1_455 S
H108 C107 0.930 1_655 S
C109 N110 1.334 1_565 S
C109 C111 1.394 . S
C109 H113 0.930 . S
N110 Gd97 2.601 1_545 S
N110 C100 1.359 1_556 S
N110 C109 1.334 1_545 S
C111 C109 1.394 . S
C111 C112 1.359 1_566 S
C111 H123 0.930 . S
C112 C102 1.391 . S
C112 C111 1.359 1_544 S
C112 H124 0.929 . S
H113 C109 0.930 . S
H114 C103 0.930 . S
H115 C132 0.930 . S
H116 C104 0.930 . S
H117 C105 0.930 1_655 S
H118 C99 0.929 . S
H119 C137 0.930 . S
H120 C128 0.930 . S
H121 C129 0.930 . S
H122 C153 0.929 . S
H123 C111 0.930 . S
H124 C112 0.929 . S
H125 C154 0.930 . S
H126 C135 0.930 . S
N127 Gd96 2.661 1_565 S
N127 C131 1.350 . S
N127 C132 1.307 1_655 S
C128 H120 0.930 . S
C128 C129 1.355 1_655 S
C128 C130 1.412 . S
C129 H121 0.930 . S
C129 C128 1.355 1_455 S
C129 C132 1.402 . S
C130 C128 1.412 . S
C130 C131 1.417 . S
C130 C154 1.431 . S
C131 N127 1.350 . S
C131 C130 1.417 . S
C131 C134 1.426 . S
C132 H115 0.930 . S
C132 N127 1.307 1_455 S
C132 C129 1.402 . S
N133 Gd96 2.601 . S
N133 C134 1.359 1_545 S
N133 C137 1.334 . S
C134 C131 1.426 . S
C134 N133 1.359 1_565 S
C134 C138 1.413 . S
C135 H126 0.930 . S
C135 C136 1.359 . S
C135 C137 1.394 . S
C136 C135 1.359 . S
C136 C138 1.391 1_545 S
C136 H139 0.929 . S
C137 H119 0.930 . S
C137 N133 1.334 . S
C137 C135 1.394 . S
C138 C134 1.413 . S
C138 C136 1.391 1_565 S
C138 C153 1.437 . S
H139 C136 0.929 . S
O140 Gd96 2.545 . S
O140 C155 1.258 . S
O141 Gd96 2.606 1_455 S
O141 Gd97 2.362 1_545 S
O141 C152 1.284 . S
O142 Gd97 2.324 1_655 S
O142 C162 1.254 1_565 S
O143 Gd96 2.429 . S
O143 C162 1.268 . S
O144 Gd96 2.545 1_455 S
O144 C152 1.250 . S
O145 Gd96 2.412 . S
O145 C155 1.252 . S
O146 Gd97 2.545 . S
O146 C164 1.258 . S
O147 Gd96 2.362 1_565 S
O147 Gd97 2.606 1_655 S
O147 C163 1.284 . S
O148 Gd96 2.324 1_455 S
O148 C171 1.254 . S
O149 Gd97 2.429 . S
O149 C171 1.268 1_565 S
O150 Gd97 2.545 . S
O150 C163 1.250 1_455 S
O151 Gd97 2.412 1_554 S
O151 C164 1.252 1_554 S
C152 O141 1.284 . S
C152 O144 1.250 . S
C153 H122 0.929 . S
C153 C138 1.437 . S
C153 C154 1.317 . S
C154 H125 0.930 . S
C154 C130 1.431 . S
C154 C153 1.317 . S
C155 Gd96 2.828 . S
C155 O140 1.258 . S
C155 O145 1.252 . S
C155 C156 1.497 . S
C156 C155 1.497 . S
C156 C157 1.395 . S
C156 C158 1.380 . S
C157 C156 1.395 . S
C157 C160 1.398 . S
C157 H172 0.930 . S
C158 C156 1.380 . S
C158 C159 1.391 . S
C158 H173 0.930 1_655 S
C159 C158 1.391 . S
C159 C161 1.387 . S
C160 C157 1.398 . S
C160 C161 1.380 . S
C160 H174 0.930 . S
C161 C159 1.387 . S
C161 C160 1.380 . S
C161 H175 0.930 . S
C162 O142 1.254 1_545 S
C162 O143 1.268 . S
C163 O147 1.284 . S
C163 O150 1.250 1_655 S
C164 Gd97 2.828 . S
C164 O146 1.258 . S
C164 O151 1.252 1_556 S
C164 C165 1.497 1_556 S
C165 C164 1.497 1_554 S
C165 C166 1.395 . S
C165 C167 1.380 . S
C166 C165 1.395 . S
C166 C169 1.398 . S
C166 H176 0.930 . S
C167 C165 1.380 . S
C167 C168 1.391 . S
C167 H177 0.930 . S
C168 C167 1.391 . S
C168 C170 1.387 . S
C169 C166 1.398 . S
C169 C170 1.380 . S
C169 H178 0.930 . S
C170 C168 1.387 . S
C170 C169 1.380 . S
C170 H179 0.930 . S
C171 O148 1.254 . S
C171 O149 1.268 1_545 S
H172 C157 0.930 . S
H173 C158 0.930 1_455 S
H174 C160 0.930 . S
H175 C161 0.930 . S
H176 C166 0.930 . S
H177 C167 0.930 . S
H178 C169 0.930 . S
H179 C170 0.930 . S
Gd180 N211 2.661 . S
Gd180 N217 2.601 . S
Gd180 O224 2.545 . S
Gd180 O225 2.606 1_565 S
Gd180 O227 2.429 . S
Gd180 O228 2.545 1_565 S
Gd180 O229 2.412 . S
Gd180 O231 2.362 . S
Gd180 O232 2.324 1_565 S
Gd180 C239 2.828 . S
Gd181 N190 2.661 1_556 S
Gd181 N194 2.601 . S
Gd181 O225 2.362 . S
Gd181 O226 2.324 1_545 S
Gd181 O230 2.545 . S
Gd181 O231 2.606 1_545 S
Gd181 O233 2.429 . S
Gd181 O234 2.545 . S
Gd181 O235 2.412 1_556 S
Gd181 C248 2.828 . S
C182 C185 1.417 . S
C182 C187 1.431 . S
C182 C188 1.412 . S
C183 C186 1.437 . S
C183 C187 1.317 . S
C183 H202 0.929 . S
C184 C185 1.426 . S
C184 C186 1.413 . S
C184 N194 1.359 1_554 S
C185 C182 1.417 . S
C185 C184 1.426 . S
C185 N190 1.350 . S
C186 C183 1.437 . S
C186 C184 1.413 . S
C186 C196 1.391 . S
C187 C182 1.431 . S
C187 C183 1.317 . S
C187 H198 0.930 . S
C188 C182 1.412 . S
C188 C189 1.355 . S
C188 H200 0.930 . S
C189 C188 1.355 . S
C189 C191 1.402 . S
C189 H201 0.930 1_545 S
N190 Gd181 2.661 1_554 S
N190 C185 1.350 . S
N190 C191 1.307 . S
C191 C189 1.402 . S
C191 N190 1.307 . S
C191 H192 0.930 1_545 S
H192 C191 0.930 1_565 S
C193 N194 1.334 . S
C193 C195 1.394 . S
C193 H197 0.930 . S
N194 Gd181 2.601 . S
N194 C184 1.359 1_556 S
N194 C193 1.334 . S
C195 C193 1.394 . S
C195 C196 1.359 1_556 S
C195 H207 0.930 . S
C196 C186 1.391 . S
C196 C195 1.359 1_554 S
C196 H208 0.929 . S
H197 C193 0.930 . S
H198 C187 0.930 . S
H199 C216 0.930 . S
H200 C188 0.930 . S
H201 C189 0.930 1_565 S
H202 C183 0.929 . S
H203 C221 0.930 . S
H204 C212 0.930 . S
H205 C213 0.930 . S
H206 C237 0.929 . S
H207 C195 0.930 . S
H208 C196 0.929 . S
H209 C238 0.930 . S
H210 C219 0.930 . S
N211 Gd180 2.661 . S
N211 C215 1.350 . S
N211 C216 1.307 1_565 S
C212 H204 0.930 . S
C212 C213 1.355 1_565 S
C212 C214 1.412 . S
C213 H205 0.930 . S
C213 C212 1.355 1_545 S
C213 C216 1.402 . S
C214 C212 1.412 . S
C214 C215 1.417 . S
C214 C238 1.431 . S
C215 N211 1.350 . S
C215 C214 1.417 . S
C215 C218 1.426 . S
C216 H199 0.930 . S
C216 N211 1.307 1_545 S
C216 C213 1.402 . S
N217 Gd180 2.601 . S
N217 C218 1.359 . S
N217 C221 1.334 . S
C218 C215 1.426 . S
C218 N217 1.359 . S
C218 C222 1.413 . S
C219 H210 0.930 . S
C219 C220 1.359 . S
C219 C221 1.394 . S
C220 C219 1.359 . S
C220 C222 1.391 . S
C220 H223 0.929 . S
C221 H203 0.930 . S
C221 N217 1.334 . S
C221 C219 1.394 . S
C222 C218 1.413 . S
C222 C220 1.391 . S
C222 C237 1.437 . S
H223 C220 0.929 . S
O224 Gd180 2.545 . S
O224 C239 1.258 . S
O225 Gd180 2.606 1_545 S
O225 Gd181 2.362 . S
O225 C236 1.284 . S
O226 Gd181 2.324 1_565 S
O226 C246 1.254 . S
O227 Gd180 2.429 . S
O227 C246 1.268 . S
O228 Gd180 2.545 1_545 S
O228 C236 1.250 . S
O229 Gd180 2.412 . S
O229 C239 1.252 . S
O230 Gd181 2.545 . S
O230 C248 1.258 . S
O231 Gd180 2.362 . S
O231 Gd181 2.606 1_565 S
O231 C247 1.284 . S
O232 Gd180 2.324 1_545 S
O232 C255 1.254 . S
O233 Gd181 2.429 . S
O233 C255 1.268 . S
O234 Gd181 2.545 . S
O234 C247 1.250 1_545 S
O235 Gd181 2.412 1_554 S
O235 C248 1.252 1_554 S
C236 O225 1.284 . S
C236 O228 1.250 . S
C237 H206 0.929 . S
C237 C222 1.437 . S
C237 C238 1.317 . S
C238 H209 0.930 . S
C238 C214 1.431 . S
C238 C237 1.317 . S
C239 Gd180 2.828 . S
C239 O224 1.258 . S
C239 O229 1.252 . S
C239 C240 1.497 . S
C240 C239 1.497 . S
C240 C241 1.395 . S
C240 C242 1.380 . S
C241 C240 1.395 . S
C241 C244 1.398 . S
C241 H256 0.930 . S
C242 C240 1.380 . S
C242 C243 1.391 . S
C242 H257 0.930 1_565 S
C243 C242 1.391 . S
C243 C245 1.387 . S
C244 C241 1.398 . S
C244 C245 1.380 . S
C244 H258 0.930 . S
C245 C243 1.387 . S
C245 C244 1.380 . S
C245 H259 0.930 . S
C246 O226 1.254 . S
C246 O227 1.268 . S
C247 O231 1.284 . S
C247 O234 1.250 1_565 S
C248 Gd181 2.828 . S
C248 O230 1.258 . S
C248 O235 1.252 1_556 S
C248 C249 1.497 1_556 S
C249 C248 1.497 1_554 S
C249 C250 1.395 . S
C249 C251 1.380 . S
C250 C249 1.395 . S
C250 C253 1.398 . S
C250 H260 0.930 . S
C251 C249 1.380 . S
C251 C252 1.391 . S
C251 H261 0.930 . S
C252 C251 1.391 . S
C252 C254 1.387 . S
C253 C250 1.398 . S
C253 C254 1.380 . S
C253 H262 0.930 . S
C254 C252 1.387 . S
C254 C253 1.380 . S
C254 H263 0.930 . S
C255 O232 1.254 . S
C255 O233 1.268 . S
H256 C241 0.930 . S
H257 C242 0.930 1_545 S
H258 C244 0.930 . S
H259 C245 0.930 . S
H260 C250 0.930 . S
H261 C251 0.930 . S
H262 C253 0.930 . S
H263 C254 0.930 . S
Gd264 N295 2.661 . S
Gd264 N301 2.601 . S
Gd264 O308 2.545 1_556 S
Gd264 O309 2.606 . S
Gd264 O311 2.429 . S
Gd264 O312 2.545 . S
Gd264 O313 2.412 . S
Gd264 O315 2.362 . S
Gd264 O316 2.324 . S
Gd264 C323 2.828 1_556 S
Gd265 N274 2.661 . S
Gd265 N278 2.601 . S
Gd265 O309 2.362 . S
Gd265 O310 2.324 . S
Gd265 O314 2.545 . S
Gd265 O315 2.606 . S
Gd265 O317 2.429 . S
Gd265 O318 2.545 . S
Gd265 O319 2.412 . S
Gd265 C332 2.828 . S
C266 C269 1.417 . S
C266 C271 1.431 . S
C266 C272 1.412 . S
C267 C270 1.437 . S
C267 C271 1.317 . S
C267 H286 0.929 . S
C268 C269 1.426 . S
C268 C270 1.413 . S
C268 N278 1.359 . S
C269 C266 1.417 . S
C269 C268 1.426 . S
C269 N274 1.350 . S
C270 C267 1.437 . S
C270 C268 1.413 . S
C270 C280 1.391 . S
C271 C266 1.431 . S
C271 C267 1.317 . S
C271 H282 0.930 . S
C272 C266 1.412 . S
C272 C273 1.355 . S
C272 H284 0.930 . S
C273 C272 1.355 . S
C273 C275 1.402 . S
C273 H285 0.930 . S
N274 Gd265 2.661 . S
N274 C269 1.350 . S
N274 C275 1.307 . S
C275 C273 1.402 . S
C275 N274 1.307 . S
C275 H276 0.930 . S
H276 C275 0.930 . S
C277 N278 1.334 . S
C277 C279 1.394 . S
C277 H281 0.930 . S
N278 Gd265 2.601 . S
N278 C268 1.359 . S
N278 C277 1.334 . S
C279 C277 1.394 . S
C279 C280 1.359 . S
C279 H291 0.930 . S
C280 C270 1.391 . S
C280 C279 1.359 . S
C280 H292 0.929 . S
H281 C277 0.930 . S
H282 C271 0.930 . S
H283 C300 0.930 . S
H284 C272 0.930 . S
H285 C273 0.930 . S
H286 C267 0.929 . S
H287 C305 0.930 . S
H288 C296 0.930 . S
H289 C297 0.930 . S
H290 C321 0.929 . S
H291 C279 0.930 . S
H292 C280 0.929 . S
H293 C322 0.930 . S
H294 C303 0.930 . S
N295 Gd264 2.661 . S
N295 C299 1.350 . S
N295 C300 1.307 . S
C296 H288 0.930 . S
C296 C297 1.355 . S
C296 C298 1.412 . S
C297 H289 0.930 . S
C297 C296 1.355 . S
C297 C300 1.402 . S
C298 C296 1.412 . S
C298 C299 1.417 . S
C298 C322 1.431 . S
C299 N295 1.350 . S
C299 C298 1.417 . S
C299 C302 1.426 . S
C300 H283 0.930 . S
C300 N295 1.307 . S
C300 C297 1.402 . S
N301 Gd264 2.601 . S
N301 C302 1.359 . S
N301 C305 1.334 1_556 S
C302 C299 1.426 . S
C302 N301 1.359 . S
C302 C306 1.413 . S
C303 H294 0.930 . S
C303 C304 1.359 . S
C303 C305 1.394 . S
C304 C303 1.359 . S
C304 C306 1.391 1_554 S
C304 H307 0.929 . S
C305 H287 0.930 . S
C305 N301 1.334 1_554 S
C305 C303 1.394 . S
C306 C302 1.413 . S
C306 C304 1.391 1_556 S
C306 C321 1.437 . S
H307 C304 0.929 . S
O308 Gd264 2.545 1_554 S
O308 C323 1.258 . S
O309 Gd264 2.606 . S
O309 Gd265 2.362 . S
O309 C320 1.284 . S
O310 Gd265 2.324 . S
O310 C330 1.254 . S
O311 Gd264 2.429 . S
O311 C330 1.268 . S
O312 Gd264 2.545 . S
O312 C320 1.250 . S
O313 Gd264 2.412 . S
O313 C323 1.252 1_556 S
O314 Gd265 2.545 . S
O314 C332 1.258 . S
O315 Gd264 2.362 . S
O315 Gd265 2.606 . S
O315 C331 1.284 . S
O316 Gd264 2.324 . S
O316 C339 1.254 . S
O317 Gd265 2.429 . S
O317 C339 1.268 . S
O318 Gd265 2.545 . S
O318 C331 1.250 . S
O319 Gd265 2.412 . S
O319 C332 1.252 . S
C320 O309 1.284 . S
C320 O312 1.250 . S
C321 H290 0.929 . S
C321 C306 1.437 . S
C321 C322 1.317 . S
C322 H293 0.930 . S
C322 C298 1.431 . S
C322 C321 1.317 . S
C323 Gd264 2.828 1_554 S
C323 O308 1.258 . S
C323 O313 1.252 1_554 S
C323 C324 1.497 . S
C324 C323 1.497 . S
C324 C325 1.395 . S
C324 C326 1.380 . S
C325 C324 1.395 . S
C325 C328 1.398 . S
C325 H340 0.930 . S
C326 C324 1.380 . S
C326 C327 1.391 . S
C326 H341 0.930 . S
C327 C326 1.391 . S
C327 C329 1.387 . S
C328 C325 1.398 . S
C328 C329 1.380 . S
C328 H342 0.930 . S
C329 C327 1.387 . S
C329 C328 1.380 . S
C329 H343 0.930 . S
C330 O310 1.254 . S
C330 O311 1.268 . S
C331 O315 1.284 . S
C331 O318 1.250 . S
C332 Gd265 2.828 . S
C332 O314 1.258 . S
C332 O319 1.252 . S
C332 C333 1.497 . S
C333 C332 1.497 . S
C333 C334 1.395 . S
C333 C335 1.380 . S
C334 C333 1.395 . S
C334 C337 1.398 . S
C334 H344 0.930 . S
C335 C333 1.380 . S
C335 C336 1.391 . S
C335 H345 0.930 . S
C336 C335 1.391 . S
C336 C338 1.387 . S
C337 C334 1.398 . S
C337 C338 1.380 . S
C337 H346 0.930 . S
C338 C336 1.387 . S
C338 C337 1.380 . S
C338 H347 0.930 . S
C339 O316 1.254 . S
C339 O317 1.268 . S
H340 C325 0.930 . S
H341 C326 0.930 . S
H342 C328 0.930 . S
H343 C329 0.930 . S
H344 C334 0.930 . S
H345 C335 0.930 . S
H346 C337 0.930 . S
H347 C338 0.930 . S
Gd348 N379 2.661 . S
Gd348 N385 2.604 . S
Gd348 O392 2.545 1_556 S
Gd348 O393 2.606 1_655 S
Gd348 O395 2.429 1_655 S
Gd348 O396 2.545 . S
Gd348 O397 2.412 . S
Gd348 O399 2.362 1_655 S
Gd348 O400 2.324 . S
Gd348 C407 2.828 1_556 S
Gd349 N358 2.661 . S
Gd349 N362 2.601 . S
Gd349 O393 2.362 . S
Gd349 O394 2.324 . S
Gd349 O398 2.545 . S
Gd349 O399 2.606 . S
Gd349 O401 2.429 1_455 S
Gd349 O402 2.545 . S
Gd349 O403 2.412 . S
Gd349 C416 2.828 . S
C350 C353 1.417 . S
C350 C355 1.431 . S
C350 C356 1.412 . S
C351 C354 1.437 . S
C351 C355 1.317 . S
C351 H370 0.929 . S
C352 C353 1.426 . S
C352 C354 1.413 . S
C352 N362 1.359 . S
C353 C350 1.417 . S
C353 C352 1.426 . S
C353 N358 1.350 . S
C354 C351 1.437 . S
C354 C352 1.413 . S
C354 C364 1.391 . S
C355 C350 1.431 . S
C355 C351 1.317 . S
C355 H366 0.930 . S
C356 C350 1.412 . S
C356 C357 1.355 . S
C356 H368 0.930 . S
C357 C356 1.355 . S
C357 C359 1.402 . S
C357 H369 0.930 . S
N358 Gd349 2.661 . S
N358 C353 1.350 . S
N358 C359 1.307 . S
C359 C357 1.402 . S
C359 N358 1.307 . S
C359 H360 0.930 . S
H360 C359 0.930 . S
C361 N362 1.334 1_655 S
C361 C363 1.394 . S
C361 H365 0.930 . S
N362 Gd349 2.601 . S
N362 C352 1.359 . S
N362 C361 1.334 1_455 S
C363 C361 1.394 . S
C363 C364 1.359 1_655 S
C363 H375 0.930 . S
C364 C354 1.391 . S
C364 C363 1.359 1_455 S
C364 H376 0.929 1_455 S
H365 C361 0.930 . S
H366 C355 0.930 . S
H367 C384 0.930 . S
H368 C356 0.930 . S
H369 C357 0.930 . S
H370 C351 0.929 . S
H371 C389 0.930 . S
H372 C380 0.930 . S
H373 C381 0.930 . S
H374 C405 0.929 . S
H375 C363 0.930 . S
H376 C364 0.929 1_655 S
H377 C406 0.930 . S
H378 C387 0.930 . S
N379 Gd348 2.661 . S
N379 C383 1.350 . S
N379 C384 1.307 . S
C380 H372 0.930 . S
C380 C381 1.355 . S
C380 C382 1.412 . S
C381 H373 0.930 . S
C381 C380 1.355 . S
C381 C384 1.402 . S
C382 C380 1.412 . S
C382 C383 1.417 . S
C382 C406 1.431 . S
C383 N379 1.350 . S
C383 C382 1.417 . S
C383 C386 1.426 . S
C384 H367 0.930 . S
C384 N379 1.307 . S
C384 C381 1.402 . S
N385 Gd348 2.604 . S
N385 C386 1.365 . S
N385 C389 1.326 1_656 S
C386 C383 1.426 . S
C386 N385 1.365 . S
C386 C390 1.413 . S
C387 H378 0.930 . S
C387 C388 1.359 . S
C387 C389 1.394 . S
C388 C387 1.359 . S
C388 C390 1.391 1_454 S
C388 H391 0.929 . S
C389 H371 0.930 . S
C389 N385 1.326 1_454 S
C389 C387 1.394 . S
C390 C386 1.413 . S
C390 C388 1.391 1_656 S
C390 C405 1.437 . S
H391 C388 0.929 . S
O392 Gd348 2.545 1_554 S
O392 C407 1.258 . S
O393 Gd348 2.606 1_455 S
O393 Gd349 2.362 . S
O393 C404 1.284 1_455 S
O394 Gd349 2.324 . S
O394 C414 1.254 . S
O395 Gd348 2.429 1_455 S
O395 C414 1.268 . S
O396 Gd348 2.545 . S
O396 C404 1.250 . S
O397 Gd348 2.412 . S
O397 C407 1.252 1_556 S
O398 Gd349 2.545 . S
O398 C416 1.258 . S
O399 Gd348 2.362 1_455 S
O399 Gd349 2.606 . S
O399 C415 1.284 . S
O400 Gd348 2.324 . S
O400 C423 1.254 . S
O401 Gd349 2.429 1_655 S
O401 C423 1.268 . S
O402 Gd349 2.545 . S
O402 C415 1.250 . S
O403 Gd349 2.412 . S
O403 C416 1.252 . S
C404 O393 1.284 1_655 S
C404 O396 1.250 . S
C405 H374 0.929 . S
C405 C390 1.437 . S
C405 C406 1.317 . S
C406 H377 0.930 . S
C406 C382 1.431 . S
C406 C405 1.317 . S
C407 Gd348 2.828 1_554 S
C407 O392 1.258 . S
C407 O397 1.252 1_554 S
C407 C408 1.497 . S
C408 C407 1.497 . S
C408 C409 1.395 . S
C408 C410 1.380 . S
C409 C408 1.395 . S
C409 C412 1.398 . S
C409 H424 0.930 . S
C410 C408 1.380 . S
C410 C411 1.391 . S
C410 H425 0.930 . S
C411 C410 1.391 . S
C411 C413 1.387 . S
C412 C409 1.398 . S
C412 C413 1.380 . S
C412 H426 0.930 . S
C413 C411 1.387 . S
C413 C412 1.380 . S
C413 H427 0.930 . S
C414 O394 1.254 . S
C414 O395 1.268 . S
C415 O399 1.284 . S
C415 O402 1.250 . S
C416 Gd349 2.828 . S
C416 O398 1.258 . S
C416 O403 1.252 . S
C416 C417 1.497 . S
C417 C416 1.497 . S
C417 C418 1.395 . S
C417 C419 1.380 . S
C418 C417 1.395 . S
C418 C421 1.398 . S
C418 H428 0.930 . S
C419 C417 1.380 . S
C419 C420 1.391 . S
C419 H429 0.930 . S
C420 C419 1.391 . S
C420 C422 1.387 . S
C421 C418 1.398 . S
C421 C422 1.380 . S
C421 H430 0.930 . S
C422 C420 1.387 . S
C422 C421 1.380 . S
C422 H431 0.930 . S
C423 O400 1.254 . S
C423 O401 1.268 . S
H424 C409 0.930 . S
H425 C410 0.930 . S
H426 C412 0.930 . S
H427 C413 0.930 . S
H428 C418 0.930 . S
H429 C419 0.930 . S
H430 C421 0.930 . S
H431 C422 0.930 . S
C432 C433 1.363 . S
C432 C438 1.379 . S
C432 N440 1.356 1_545 S
C433 C432 1.363 . S
C433 C439 1.363 . S
C434 C435 1.363 . S
C434 C439 1.379 . S
C434 N441 1.356 . S
C435 C434 1.363 . S
C435 C438 1.363 . S
N436 C438 1.356 1_565 S
N436 H448 0.984 . S
N436 H449 0.985 . S
N437 C439 1.356 . S
N437 H442 0.984 . S
N437 H443 0.985 . S
C438 C432 1.379 . S
C438 C435 1.363 . S
C438 N436 1.356 1_545 S
C439 C433 1.363 . S
C439 C434 1.379 . S
C439 N437 1.356 . S
N440 C432 1.356 1_565 S
N440 H446 0.984 . S
N440 H447 0.984 1_565 S
N441 C434 1.356 . S
N441 H444 0.984 . S
N441 H445 0.985 . S
H442 N437 0.984 . S
H443 N437 0.985 . S
H444 N441 0.984 . S
H445 N441 0.985 . S
H446 N440 0.984 . S
H447 N440 0.984 1_545 S
H448 N436 0.984 . S
H449 N436 0.985 . S
C450 C451 1.363 . S
C450 C456 1.379 . S
C450 N458 1.356 . S
C451 C450 1.363 . S
C451 C457 1.363 . S
C452 C453 1.363 . S
C452 C457 1.379 . S
C452 N459 1.356 . S
C453 C452 1.363 . S
C453 C456 1.363 . S
N454 C456 1.356 . S
N454 H466 0.984 . S
N454 H467 0.985 . S
N455 C457 1.356 . S
N455 H460 0.984 . S
N455 H461 0.985 . S
C456 C450 1.379 . S
C456 C453 1.363 . S
C456 N454 1.356 . S
C457 C451 1.363 . S
C457 C452 1.379 . S
C457 N455 1.356 . S
N458 C450 1.356 . S
N458 H464 0.984 . S
N458 H465 0.984 . S
N459 C452 1.356 . S
N459 H462 0.984 . S
N459 H463 0.985 . S
H460 N455 0.984 . S
H461 N455 0.985 . S
H462 N459 0.984 . S
H463 N459 0.985 . S
H464 N458 0.984 . S
H465 N458 0.984 . S
H466 N454 0.984 . S
H467 N454 0.985 . S
C468 C469 1.363 . S
C468 C474 1.379 . S
C468 N476 1.356 . S
C469 C468 1.363 . S
C469 C475 1.363 . S
C470 C471 1.363 . S
C470 C475 1.379 . S
C470 N477 1.356 . S
C471 C470 1.363 . S
C471 C474 1.363 . S
N472 C474 1.356 . S
N472 H484 0.984 . S
N472 H485 0.985 . S
N473 C475 1.356 . S
N473 H478 0.984 . S
N473 H479 0.985 . S
C474 C468 1.379 . S
C474 C471 1.363 . S
C474 N472 1.356 . S
C475 C469 1.363 . S
C475 C470 1.379 . S
C475 N473 1.356 . S
N476 C468 1.356 . S
N476 H482 0.984 . S
N476 H483 0.984 . S
N477 C470 1.356 . S
N477 H480 0.984 . S
N477 H481 0.985 . S
H478 N473 0.984 . S
H479 N473 0.985 . S
H480 N477 0.984 . S
H481 N477 0.985 . S
H482 N476 0.984 . S
H483 N476 0.984 . S
H484 N472 0.984 . S
H485 N472 0.985 . S
C486 C487 1.363 . S
C486 C492 1.379 . S
C486 N494 1.356 . S
C487 C486 1.363 . S
C487 C493 1.363 . S
C488 C489 1.363 . S
C488 C493 1.379 . S
C488 N495 1.356 . S
C489 C488 1.363 . S
C489 C492 1.363 . S
N490 C492 1.356 . S
N490 H502 0.984 . S
N490 H503 0.985 . S
N491 C493 1.356 . S
N491 H496 0.984 . S
N491 H497 0.985 . S
C492 C486 1.379 . S
C492 C489 1.363 . S
C492 N490 1.356 . S
C493 C487 1.363 . S
C493 C488 1.379 . S
C493 N491 1.356 . S
N494 C486 1.356 . S
N494 H500 0.984 . S
N494 H501 0.984 . S
N495 C488 1.356 . S
N495 H498 0.984 . S
N495 H499 0.985 1_455 S
H496 N491 0.984 . S
H497 N491 0.985 . S
H498 N495 0.984 . S
H499 N495 0.985 1_655 S
H500 N494 0.984 . S
H501 N494 0.984 . S
H502 N490 0.984 . S
H503 N490 0.985 . S
C504 C505 1.363 1_545 S
C504 C510 1.379 . S
C504 N512 1.356 . S
C505 C504 1.363 1_565 S
C505 C511 1.363 . S
C506 C507 1.363 . S
C506 C511 1.379 . S
C506 N513 1.356 . S
C507 C506 1.363 . S
C507 C510 1.363 1_565 S
N508 C510 1.356 1_556 S
N508 H520 0.984 . S
N508 H521 0.985 . S
N509 C511 1.356 . S
N509 H514 0.984 . S
N509 H515 0.985 . S
C510 C504 1.379 . S
C510 C507 1.363 1_545 S
C510 N508 1.356 1_554 S
C511 C505 1.363 . S
C511 C506 1.379 . S
C511 N509 1.356 . S
N512 C504 1.356 . S
N512 H518 0.984 . S
N512 H519 0.984 . S
N513 C506 1.356 . S
N513 H516 0.984 1_554 S
N513 H517 0.985 . S
H514 N509 0.984 . S
H515 N509 0.985 . S
H516 N513 0.984 1_556 S
H517 N513 0.985 . S
H518 N512 0.984 . S
H519 N512 0.984 . S
H520 N508 0.984 . S
H521 N508 0.985 . S
C522 C523 1.363 . S
C522 C528 1.379 . S
C522 N530 1.356 . S
C523 C522 1.363 . S
C523 C529 1.363 . S
C524 C525 1.365 . S
C524 C529 1.379 . S
C524 N531 1.356 . S
C525 C524 1.365 . S
C525 C528 1.363 . S
N526 C528 1.356 1_556 S
N526 H538 0.984 . S
N526 H539 0.985 . S
N527 C529 1.356 . S
N527 H532 0.984 . S
N527 H533 0.985 . S
C528 C522 1.379 . S
C528 C525 1.363 . S
C528 N526 1.356 1_554 S
C529 C523 1.363 . S
C529 C524 1.379 . S
C529 N527 1.356 . S
N530 C522 1.356 . S
N530 H536 0.984 . S
N530 H537 0.984 . S
N531 C524 1.356 . S
N531 H534 0.984 1_554 S
N531 H535 0.985 . S
H532 N527 0.984 . S
H533 N527 0.985 . S
H534 N531 0.984 1_556 S
H535 N531 0.985 . S
H536 N530 0.984 . S
H537 N530 0.984 . S
H538 N526 0.984 . S
H539 N526 0.985 . S
C540 C541 1.363 . S
C540 C546 1.379 . S
C540 N548 1.356 . S
C541 C540 1.363 . S
C541 C547 1.363 . S
C542 C543 1.363 1_554 S
C542 C547 1.379 . S
C542 N549 1.356 1_554 S
C543 C542 1.363 1_556 S
C543 C546 1.363 1_556 S
N544 C546 1.356 1_556 S
N544 H556 0.984 . S
N544 H557 0.985 . S
N545 C547 1.356 . S
N545 H550 0.984 . S
N545 H551 0.985 . S
C546 C540 1.379 . S
C546 C543 1.363 1_554 S
C546 N544 1.356 1_554 S
C547 C541 1.363 . S
C547 C542 1.379 . S
C547 N545 1.356 . S
N548 C540 1.356 . S
N548 H554 0.984 . S
N548 H555 0.984 . S
N549 C542 1.356 1_556 S
N549 H552 0.984 . S
N549 H553 0.985 1_556 S
H550 N545 0.984 . S
H551 N545 0.985 . S
H552 N549 0.984 . S
H553 N549 0.985 1_554 S
H554 N548 0.984 . S
H555 N548 0.984 . S
H556 N544 0.984 . S
H557 N544 0.985 . S
C558 C559 1.363 . S
C558 C564 1.381 . S
C558 N566 1.356 1_655 S
C559 C558 1.363 . S
C559 C565 1.363 . S
C560 C561 1.363 1_554 S
C560 C565 1.379 . S
C560 N567 1.356 1_554 S
C561 C560 1.363 1_556 S
C561 C564 1.368 1_556 S
N562 C564 1.351 1_455 S
N562 H574 0.984 . S
N562 H575 0.985 1_554 S
N563 C565 1.356 . S
N563 H568 0.984 . S
N563 H569 0.985 . S
C564 C558 1.381 . S
C564 C561 1.368 1_554 S
C564 N562 1.351 1_655 S
C565 C559 1.363 . S
C565 C560 1.379 . S
C565 N563 1.356 . S
N566 C558 1.356 1_455 S
N566 H572 0.984 . S
N566 H573 0.984 1_455 S
N567 C560 1.356 1_556 S
N567 H570 0.984 . S
N567 H571 0.985 . S
H568 N563 0.984 . S
H569 N563 0.985 . S
H570 N567 0.984 . S
H571 N567 0.985 . S
H572 N566 0.984 . S
H573 N566 0.984 1_655 S
H574 N562 0.984 . S
H575 N562 0.985 1_556 S
C576 C577 1.363 . S
C576 C582 1.379 . S
C576 N584 1.356 . S
C577 C576 1.363 . S
C577 C583 1.363 . S
C578 C579 1.365 . S
C578 C583 1.379 1_655 S
C578 N585 1.356 . S
C579 C578 1.365 . S
C579 C582 1.350 1_655 S
N580 C582 1.356 . S
N580 H592 0.984 . S
N580 H593 0.985 . S
N581 C583 1.356 . S
N581 H586 0.985 . S
N581 H587 0.985 1_554 S
C582 C576 1.379 . S
C582 C579 1.350 1_455 S
C582 N580 1.356 . S
C583 C577 1.363 . S
C583 C578 1.379 1_455 S
C583 N581 1.356 . S
N584 C576 1.356 . S
N584 H590 0.984 . S
N584 H591 0.984 . S
N585 C578 1.356 . S
N585 H588 0.984 . S
N585 H589 0.985 . S
H586 N581 0.985 . S
H587 N581 0.985 1_556 S
H588 N585 0.984 . S
H589 N585 0.985 . S
H590 N584 0.984 . S
H591 N584 0.984 . S
H592 N580 0.984 . S
H593 N580 0.985 . S
C594 C595 1.363 . S
C594 C600 1.379 . S
C594 N602 1.356 . S
C595 C594 1.363 . S
C595 C601 1.363 . S
C596 C597 1.364 . S
C596 C601 1.379 1_565 S
C596 N603 1.356 . S
C597 C596 1.364 . S
C597 C600 1.355 1_565 S
N598 C600 1.356 . S
N598 H610 0.984 . S
N598 H611 0.987 . S
N599 C601 1.356 1_556 S
N599 H604 0.984 . S
N599 H605 0.985 . S
C600 C594 1.379 . S
C600 C597 1.355 1_545 S
C600 N598 1.356 . S
C601 C595 1.363 . S
C601 C596 1.379 1_545 S
C601 N599 1.356 1_554 S
N602 C594 1.356 . S
N602 H608 0.984 . S
N602 H609 0.984 . S
N603 C596 1.356 . S
N603 H606 0.984 . S
N603 H607 0.985 1_554 S
H604 N599 0.984 . S
H605 N599 0.985 . S
H606 N603 0.984 . S
H607 N603 0.985 1_556 S
H608 N602 0.984 . S
H609 N602 0.984 . S
H610 N598 0.984 . S
H611 N598 0.987 . S
C612 C613 1.363 . S
C612 C618 1.379 . S
C612 N620 1.356 . S
C613 C612 1.363 . S
C613 C619 1.363 . S
C614 C615 1.363 . S
C614 C619 1.379 . S
C614 N621 1.356 . S
C615 C614 1.363 . S
C615 C618 1.363 . S
N616 C618 1.356 . S
N616 H628 0.984 . S
N616 H629 0.985 . S
N617 C619 1.356 1_556 S
N617 H622 0.984 . S
N617 H623 0.985 . S
C618 C612 1.379 . S
C618 C615 1.363 . S
C618 N616 1.356 . S
C619 C613 1.363 . S
C619 C614 1.379 . S
C619 N617 1.356 1_554 S
N620 C612 1.356 . S
N620 H626 0.984 . S
N620 H627 0.984 . S
N621 C614 1.356 . S
N621 H624 0.984 . S
N621 H625 0.985 1_554 S
H622 N617 0.984 . S
H623 N617 0.985 . S
H624 N621 0.984 . S
H625 N621 0.985 1_556 S
H626 N620 0.984 . S
H627 N620 0.984 . S
H628 N616 0.984 . S
H629 N616 0.985 . S
C630 C631 1.363 . S
C630 C636 1.379 . S
C630 N638 1.356 . S
C631 C630 1.363 . S
C631 C637 1.363 . S
C632 C633 1.363 . S
C632 C637 1.379 . S
C632 N639 1.356 . S
C633 C632 1.363 . S
C633 C636 1.363 . S
N634 C636 1.356 . S
N634 H646 0.984 . S
N634 H647 0.985 . S
N635 C637 1.356 . S
N635 H640 0.984 . S
N635 H641 0.985 . S
C636 C630 1.379 . S
C636 C633 1.363 . S
C636 N634 1.356 . S
C637 C631 1.363 . S
C637 C632 1.379 . S
C637 N635 1.356 . S
N638 C630 1.356 . S
N638 H644 0.984 1_554 S
N638 H645 0.984 . S
N639 C632 1.356 . S
N639 H642 0.984 . S
N639 H643 0.985 . S
H640 N635 0.984 . S
H641 N635 0.985 . S
H642 N639 0.984 . S
H643 N639 0.985 . S
H644 N638 0.984 1_556 S
H645 N638 0.984 . S
H646 N634 0.984 . S
H647 N634 0.985 . S
C648 C649 1.363 . S
C648 C654 1.379 . S
C648 N656 1.356 . S
C649 C648 1.363 . S
C649 C655 1.363 . S
C650 C651 1.363 . S
C650 C655 1.379 1_455 S
C650 N657 1.356 . S
C651 C650 1.363 . S
C651 C654 1.363 1_455 S
N652 C654 1.356 . S
N652 H664 0.984 . S
N652 H665 0.985 1_655 S
N653 C655 1.356 . S
N653 H658 0.984 . S
N653 H659 0.985 1_655 S
C654 C648 1.379 . S
C654 C651 1.363 1_655 S
C654 N652 1.356 . S
C655 C649 1.363 . S
C655 C650 1.379 1_655 S
C655 N653 1.356 . S
N656 C648 1.356 . S
N656 H662 0.984 . S
N656 H663 0.984 . S
N657 C650 1.356 . S
N657 H660 0.984 . S
N657 H661 0.985 . S
H658 N653 0.984 . S
H659 N653 0.985 1_455 S
H660 N657 0.984 . S
H661 N657 0.985 . S
H662 N656 0.984 . S
H663 N656 0.984 . S
H664 N652 0.984 . S
H665 N652 0.985 1_455 S
C666 C667 1.363 1_545 S
C666 C672 1.379 . S
C666 N674 1.356 . S
C667 C666 1.363 1_565 S
C667 C673 1.363 . S
C668 C669 1.363 1_565 S
C668 C673 1.379 . S
C668 N675 1.356 . S
C669 C668 1.363 1_545 S
C669 C672 1.363 . S
N670 C672 1.356 . S
N670 H682 0.984 . S
N670 H683 0.985 . S
N671 C673 1.356 . S
N671 H676 0.984 . S
N671 H677 0.985 . S
C672 C666 1.379 . S
C672 C669 1.363 . S
C672 N670 1.356 . S
C673 C667 1.363 . S
C673 C668 1.379 . S
C673 N671 1.356 . S
N674 C666 1.356 . S
N674 H680 0.984 . S
N674 H681 0.984 1_545 S
N675 C668 1.356 . S
N675 H678 0.984 1_565 S
N675 H679 0.985 . S
H676 N671 0.984 . S
H677 N671 0.985 . S
H678 N675 0.984 1_545 S
H679 N675 0.985 . S
H680 N674 0.984 . S
H681 N674 0.984 1_565 S
H682 N670 0.984 . S
H683 N670 0.985 . S
C684 C685 1.363 . S
C684 C690 1.379 . S
C684 N692 1.356 . S
C685 C684 1.363 . S
C685 C691 1.363 . S
C686 C687 1.363 . S
C686 C691 1.379 . S
C686 N693 1.356 . S
C687 C686 1.363 . S
C687 C690 1.363 . S
N688 C690 1.356 . S
N688 H700 0.984 . S
N688 H701 0.985 . S
N689 C691 1.356 . S
N689 H694 0.984 . S
N689 H695 0.985 . S
C690 C684 1.379 . S
C690 C687 1.363 . S
C690 N688 1.356 . S
C691 C685 1.363 . S
C691 C686 1.379 . S
C691 N689 1.356 . S
N692 C684 1.356 . S
N692 H698 0.984 . S
N692 H699 0.984 . S
N693 C686 1.356 . S
N693 H696 0.984 . S
N693 H697 0.985 . S
H694 N689 0.984 . S
H695 N689 0.985 . S
H696 N693 0.984 . S
H697 N693 0.985 . S
H698 N692 0.984 . S
H699 N692 0.984 . S
H700 N688 0.984 . S
H701 N688 0.985 . S
C702 C703 1.363 . S
C702 C708 1.379 . S
C702 N710 1.356 . S
C703 C702 1.363 . S
C703 C709 1.363 . S
C704 C705 1.363 . S
C704 C709 1.379 . S
C704 N711 1.356 . S
C705 C704 1.363 . S
C705 C708 1.363 . S
N706 C708 1.356 . S
N706 H718 0.984 . S
N706 H719 0.985 . S
N707 C709 1.356 . S
N707 H712 0.984 . S
N707 H713 0.985 . S
C708 C702 1.379 . S
C708 C705 1.363 . S
C708 N706 1.356 . S
C709 C703 1.363 . S
C709 C704 1.379 . S
C709 N707 1.356 . S
N710 C702 1.356 . S
N710 H716 0.984 . S
N710 H717 0.984 . S
N711 C704 1.356 . S
N711 H714 0.984 . S
N711 H715 0.985 . S
H712 N707 0.984 . S
H713 N707 0.985 . S
H714 N711 0.984 . S
H715 N711 0.985 . S
H716 N710 0.984 . S
H717 N710 0.984 . S
H718 N706 0.984 . S
H719 N706 0.985 . S
C720 C721 1.363 . S
C720 C726 1.379 . S
C720 N728 1.356 . S
C721 C720 1.363 . S
C721 C727 1.363 . S
C722 C723 1.363 . S
C722 C727 1.379 . S
C722 N729 1.356 . S
C723 C722 1.363 . S
C723 C726 1.363 . S
N724 C726 1.356 . S
N724 H736 0.984 1_455 S
N724 H737 0.985 . S
N725 C727 1.356 . S
N725 H730 0.984 . S
N725 H731 0.985 1_556 S
C726 C720 1.379 . S
C726 C723 1.363 . S
C726 N724 1.356 . S
C727 C721 1.363 . S
C727 C722 1.379 . S
C727 N725 1.356 . S
N728 C720 1.356 . S
N728 H734 0.984 . S
N728 H735 0.984 . S
N729 C722 1.356 . S
N729 H732 0.984 . S
N729 H733 0.985 1_556 S
H730 N725 0.984 . S
H731 N725 0.985 1_554 S
H732 N729 0.984 . S
H733 N729 0.985 1_554 S
H734 N728 0.984 . S
H735 N728 0.984 . S
H736 N724 0.984 1_655 S
H737 N724 0.985 . S
C738 C739 1.363 . S
C738 C744 1.379 . S
C738 N746 1.356 . S
C739 C738 1.363 . S
C739 C745 1.363 . S
C740 C741 1.363 . S
C740 C745 1.379 . S
C740 N747 1.356 . S
C741 C740 1.363 . S
C741 C744 1.363 . S
N742 C744 1.356 . S
N742 H754 0.984 . S
N742 H755 0.985 . S
N743 C745 1.356 . S
N743 H748 0.984 . S
N743 H749 0.985 1_556 S
C744 C738 1.379 . S
C744 C741 1.363 . S
C744 N742 1.356 . S
C745 C739 1.363 . S
C745 C740 1.379 . S
C745 N743 1.356 . S
N746 C738 1.356 . S
N746 H752 0.984 . S
N746 H753 0.984 . S
N747 C740 1.356 . S
N747 H750 0.984 . S
N747 H751 0.985 1_556 S
H748 N743 0.984 . S
H749 N743 0.985 1_554 S
H750 N747 0.984 . S
H751 N747 0.985 1_554 S
H752 N746 0.984 . S
H753 N746 0.984 . S
H754 N742 0.984 . S
H755 N742 0.985 . S
C756 C757 1.363 . S
C756 C762 1.379 . S
C756 N764 1.356 . S
C757 C756 1.363 . S
C757 C763 1.363 . S
C758 C759 1.363 . S
C758 C763 1.379 . S
C758 N765 1.356 . S
C759 C758 1.363 . S
C759 C762 1.363 . S
N760 C762 1.356 . S
N760 H772 0.984 1_556 S
N760 H773 0.985 . S
N761 C763 1.356 . S
N761 H766 0.984 . S
N761 H767 0.985 . S
C762 C756 1.379 . S
C762 C759 1.363 . S
C762 N760 1.356 . S
C763 C757 1.363 . S
C763 C758 1.379 . S
C763 N761 1.356 . S
N764 C756 1.356 . S
N764 H770 0.984 1_556 S
N764 H771 0.984 . S
N765 C758 1.356 . S
N765 H768 0.984 . S
N765 H769 0.985 . S
H766 N761 0.984 . S
H767 N761 0.985 . S
H768 N765 0.984 . S
H769 N765 0.985 . S
H770 N764 0.984 1_554 S
H771 N764 0.984 . S
H772 N760 0.984 1_554 S
H773 N760 0.985 . S
C774 C775 1.363 . S
C774 C780 1.379 . S
C774 N782 1.356 . S
C775 C774 1.363 . S
C775 C781 1.363 . S
C776 C777 1.363 . S
C776 C781 1.379 . S
C776 N783 1.356 . S
C777 C776 1.363 . S
C777 C780 1.363 . S
N778 C780 1.356 . S
N778 H790 0.984 1_556 S
N778 H791 0.985 . S
N779 C781 1.356 . S
N779 H784 0.984 . S
N779 H785 0.985 . S
C780 C774 1.379 . S
C780 C777 1.363 . S
C780 N778 1.356 . S
C781 C775 1.363 . S
C781 C776 1.379 . S
C781 N779 1.356 . S
N782 C774 1.356 . S
N782 H788 0.984 1_556 S
N782 H789 0.984 . S
N783 C776 1.356 . S
N783 H786 0.984 . S
N783 H787 0.985 . S
H784 N779 0.984 . S
H785 N779 0.985 . S
H786 N783 0.984 . S
H787 N783 0.985 . S
H788 N782 0.984 1_554 S
H789 N782 0.984 . S
H790 N778 0.984 1_554 S
H791 N778 0.985 . S
C792 C793 1.363 . S
C792 C798 1.379 . S
C792 N800 1.356 . S
C793 C792 1.363 . S
C793 C799 1.363 . S
C794 C795 1.363 . S
C794 C799 1.379 . S
C794 N801 1.356 . S
C795 C794 1.363 . S
C795 C798 1.363 . S
N796 C798 1.356 . S
N796 H808 0.984 . S
N796 H809 0.985 . S
N797 C799 1.356 . S
N797 H802 0.984 . S
N797 H803 0.985 . S
C798 C792 1.379 . S
C798 C795 1.363 . S
C798 N796 1.356 . S
C799 C793 1.363 . S
C799 C794 1.379 . S
C799 N797 1.356 . S
N800 C792 1.356 . S
N800 H806 0.984 . S
N800 H807 0.984 . S
N801 C794 1.356 . S
N801 H804 0.984 . S
N801 H805 0.985 1_655 S
H802 N797 0.984 . S
H803 N797 0.985 . S
H804 N801 0.984 . S
H805 N801 0.985 1_455 S
H806 N800 0.984 . S
H807 N800 0.984 . S
H808 N796 0.984 . S
H809 N796 0.985 . S
C810 C811 1.363 . S
C810 C816 1.379 1_565 S
C810 N818 1.356 1_565 S
C811 C810 1.363 . S
C811 C817 1.363 . S
C812 C813 1.363 . S
C812 C817 1.379 . S
C812 N819 1.356 . S
C813 C812 1.363 . S
C813 C816 1.363 1_565 S
N814 C816 1.356 . S
N814 H826 0.984 . S
N814 H827 0.985 . S
N815 C817 1.356 . S
N815 H820 0.984 . S
N815 H821 0.985 . S
C816 C810 1.379 1_545 S
C816 C813 1.363 1_545 S
C816 N814 1.356 . S
C817 C811 1.363 . S
C817 C812 1.379 . S
C817 N815 1.356 . S
N818 C810 1.356 1_545 S
N818 H824 0.984 . S
N818 H825 0.984 . S
N819 C812 1.356 . S
N819 H822 0.984 . S
N819 H823 0.985 . S
H820 N815 0.984 . S
H821 N815 0.985 . S
H822 N819 0.984 . S
H823 N819 0.985 . S
H824 N818 0.984 . S
H825 N818 0.984 . S
H826 N814 0.984 . S
H827 N814 0.985 . S
C828 C829 1.363 . S
C828 C834 1.379 . S
C828 N836 1.356 . S
C829 C828 1.363 . S
C829 C835 1.363 . S
C830 C831 1.363 . S
C830 C835 1.379 . S
C830 N837 1.356 . S
C831 C830 1.363 . S
C831 C834 1.363 . S
N832 C834 1.356 . S
N832 H844 0.984 . S
N832 H845 0.985 . S
N833 C835 1.356 . S
N833 H838 0.984 . S
N833 H839 0.985 . S
C834 C828 1.379 . S
C834 C831 1.363 . S
C834 N832 1.356 . S
C835 C829 1.363 . S
C835 C830 1.379 . S
C835 N833 1.356 . S
N836 C828 1.356 . S
N836 H842 0.984 . S
N836 H843 0.984 . S
N837 C830 1.356 . S
N837 H840 0.984 . S
N837 H841 0.985 . S
H838 N833 0.984 . S
H839 N833 0.985 . S
H840 N837 0.984 . S
H841 N837 0.985 . S
H842 N836 0.984 . S
H843 N836 0.984 . S
H844 N832 0.984 . S
H845 N832 0.985 . S
C846 C847 1.363 . S
C846 C852 1.379 . S
C846 N854 1.356 . S
C847 C846 1.363 . S
C847 C853 1.363 . S
C848 C849 1.363 . S
C848 C853 1.379 . S
C848 N855 1.356 . S
C849 C848 1.363 . S
C849 C852 1.363 . S
N850 C852 1.356 . S
N850 H862 0.984 . S
N850 H863 0.985 . S
N851 C853 1.356 . S
N851 H856 0.984 . S
N851 H857 0.985 . S
C852 C846 1.379 . S
C852 C849 1.363 . S
C852 N850 1.356 . S
C853 C847 1.363 . S
C853 C848 1.379 . S
C853 N851 1.356 . S
N854 C846 1.356 . S
N854 H860 0.984 . S
N854 H861 0.984 . S
N855 C848 1.356 . S
N855 H858 0.984 . S
N855 H859 0.985 . S
H856 N851 0.984 . S
H857 N851 0.985 . S
H858 N855 0.984 . S
H859 N855 0.985 . S
H860 N854 0.984 . S
H861 N854 0.984 . S
H862 N850 0.984 . S
H863 N850 0.985 . S
C433 C76 1.938 . S
C435 C171 2.101 . S
C453 C255 2.111 . S
C451 C88 1.947 . S
C471 C331 2.010 . S
C469 C52 2.016 . S
C489 C415 2.003 . S
C487 C64 2.008 . S
C507 C162 2.101 1_564 S
C505 C28 1.949 . S
C523 C40 1.957 . S
C525 C246 2.108 1_554 S
C541 C4 2.028 . S
C543 C320 2.010 . S
C559 C16 2.019 . S
C561 C404 2.003 . S
C579 C159 0.946 . S
C577 C69 0.888 . S
C597 C243 0.909 . S
C595 C81 0.863 . S
C615 C336 0.878 . S
C613 C93 0.842 . S
C631 C57 0.865 . S
C633 C420 0.910 . S
C649 C21 0.878 . S
C651 C168 0.934 . S
C669 C252 0.901 . S
C667 C33 0.855 . S
C687 C327 0.878 . S
C685 C45 0.835 . S
C703 C9 0.856 . S
C705 C411 0.910 . S
C721 C66 2.120 . S
C723 C152 2.213 . S
C739 C78 2.100 . S
C741 C236 2.195 . S
C759 C330 2.295 . S
C757 C90 2.025 . S
C777 C414 2.313 . S
C775 C54 2.044 . S
C793 C18 2.109 . S
C795 C163 2.214 . S
C813 C247 2.195 . S
C811 C30 2.090 . S
C831 C339 2.295 . S
C829 C42 2.013 . S
C847 C6 2.030 . S
C849 C423 2.313 . S
