# Generated by pormake.
# Topology zzz, (3,6)-cn, num edge types: 1
# Building blocks:
#     Node 0, Type 0, BuildingBlock: KAKCAD_clean_linker_0, # of connection points: 3
#     Node 1, Type 0, BuildingBlock: KAKCAD_clean_linker_0, # of connection points: 3
#     Node 2, Type 0, BuildingBlock: KAKCAD_clean_linker_0, # of connection points: 3
#     Node 3, Type 0, BuildingBlock: KAKCAD_clean_linker_0, # of connection points: 3
#     Node 4, Type 0, BuildingBlock: KAKCAD_clean_linker_0, # of connection points: 3
#     Node 5, Type 0, BuildingBlock: KAKCAD_clean_linker_0, # of connection points: 3
#     Node 6, Type 0, BuildingBlock: KAKCAD_clean_linker_0, # of connection points: 3
#     Node 7, Type 0, BuildingBlock: KAKCAD_clean_linker_0, # of connection points: 3
#     Node 8, Type 1, BuildingBlock: KUMBOL_clean_sbu_1, # of connection points: 6
#     Node 9, Type 1, BuildingBlock: KUMBOL_clean_sbu_1, # of connection points: 6
#     Node 10, Type 1, BuildingBlock: KUMBOL_clean_sbu_1, # of connection points: 6
#     Node 11, Type 1, BuildingBlock: KUMBOL_clean_sbu_1, # of connection points: 6
#     Edge 12, Type (0, 1), BuildingBlock: AJUNOK_clean_linker_0, # of connection points: 2
#     Edge 13, Type (0, 1), BuildingBlock: AJUNOK_clean_linker_0, # of connection points: 2
#     Edge 14, Type (0, 1), BuildingBlock: AJUNOK_clean_linker_0, # of connection points: 2
#     Edge 15, Type (0, 1), BuildingBlock: AJUNOK_clean_linker_0, # of connection points: 2
#     Edge 16, Type (0, 1), BuildingBlock: AJUNOK_clean_linker_0, # of connection points: 2
#     Edge 17, Type (0, 1), BuildingBlock: AJUNOK_clean_linker_0, # of connection points: 2
#     Edge 18, Type (0, 1), BuildingBlock: AJUNOK_clean_linker_0, # of connection points: 2
#     Edge 19, Type (0, 1), BuildingBlock: AJUNOK_clean_linker_0, # of connection points: 2
#     Edge 20, Type (0, 1), BuildingBlock: AJUNOK_clean_linker_0, # of connection points: 2
#     Edge 21, Type (0, 1), BuildingBlock: AJUNOK_clean_linker_0, # of connection points: 2
#     Edge 22, Type (0, 1), BuildingBlock: AJUNOK_clean_linker_0, # of connection points: 2
#     Edge 23, Type (0, 1), BuildingBlock: AJUNOK_clean_linker_0, # of connection points: 2
#     Edge 24, Type (0, 1), BuildingBlock: AJUNOK_clean_linker_0, # of connection points: 2
#     Edge 25, Type (0, 1), BuildingBlock: AJUNOK_clean_linker_0, # of connection points: 2
#     Edge 26, Type (0, 1), BuildingBlock: AJUNOK_clean_linker_0, # of connection points: 2
#     Edge 27, Type (0, 1), BuildingBlock: AJUNOK_clean_linker_0, # of connection points: 2
#     Edge 28, Type (0, 1), BuildingBlock: AJUNOK_clean_linker_0, # of connection points: 2
#     Edge 29, Type (0, 1), BuildingBlock: AJUNOK_clean_linker_0, # of connection points: 2
#     Edge 30, Type (0, 1), BuildingBlock: AJUNOK_clean_linker_0, # of connection points: 2
#     Edge 31, Type (0, 1), BuildingBlock: AJUNOK_clean_linker_0, # of connection points: 2
#     Edge 32, Type (0, 1), BuildingBlock: AJUNOK_clean_linker_0, # of connection points: 2
#     Edge 33, Type (0, 1), BuildingBlock: AJUNOK_clean_linker_0, # of connection points: 2
#     Edge 34, Type (0, 1), BuildingBlock: AJUNOK_clean_linker_0, # of connection points: 2
#     Edge 35, Type (0, 1), BuildingBlock: AJUNOK_clean_linker_0, # of connection points: 2
# Relax obj value: 0.350
# Max RMSD: 0.205
# Mean RMSD: 0.184
data_MOF--net-zzz--node1-KUMBOL_clean_sbu_1--node2-KAKCAD_clean_linker_0--edge1-AJUNOK_clean_linker_0
_symmetry_space_group_name_H-M    P1
_symmetry_Int_Tables_number       1
_symmetry_cell_setting            triclinic
loop_
_symmetry_equiv_pos_as_xyz
'x, y, z'
_cell_length_a     44.558302
_cell_length_b     44.580073
_cell_length_c     16.546673
_cell_angle_alpha  89.757677
_cell_angle_beta   89.984687
_cell_angle_gamma 90.537369
loop_
_atom_site_label
_atom_site_type_symbol
_atom_site_fract_x
_atom_site_fract_y
_atom_site_fract_z
_atom_type_partial_charge
C0 C 0.80687 0.58691 0.89342 0.0
C1 C 0.83272 0.5694 0.89048 0.0
C2 C 0.79379 0.59344 0.96813 0.0
C3 C 0.80551 0.58097 0.04008 0.0
C4 C 0.83365 0.56694 0.03657 0.0
C5 C 0.84719 0.56151 0.96252 0.0
C6 C 0.78609 0.57632 0.11284 0.0
C7 C 0.75527 0.57125 0.10261 0.0
C8 C 0.73677 0.56057 0.16527 0.0
C9 C 0.75062 0.55277 0.24057 0.0
C10 C 0.78211 0.5581 0.25236 0.0
C11 C 0.7987 0.5713 0.18924 0.0
C12 C 0.80042 0.54764 0.3238 0.0
C13 C 0.80379 0.56536 0.3936 0.0
C14 C 0.82155 0.52475 0.31157 0.0
C15 C 0.84579 0.52043 0.36489 0.0
C16 C 0.84984 0.53853 0.43392 0.0
C17 C 0.70387 0.55678 0.1434 0.0
C18 C 0.68969 0.58003 0.09996 0.0
C19 C 0.68894 0.52884 0.14647 0.0
C20 C 0.66203 0.52386 0.10238 0.0
C21 C 0.64971 0.54633 0.0513 0.0
C22 C 0.66363 0.57484 0.05405 0.0
C23 C 0.82793 0.56074 0.44801 0.0
H24 H 0.79545 0.59326 0.83823 0.0
H25 H 0.77297 0.60574 0.96849 0.0
H26 H 0.84379 0.55686 0.08934 0.0
H27 H 0.86696 0.54755 0.96127 0.0
H28 H 0.74548 0.57382 0.04314 0.0
H29 H 0.82239 0.57581 0.19866 0.0
H30 H 0.73735 0.54263 0.28837 0.0
H31 H 0.78877 0.58393 0.40374 0.0
H32 H 0.82058 0.51149 0.25689 0.0
H33 H 0.86235 0.50392 0.3487 0.0
H34 H 0.70027 0.60197 0.09605 0.0
H35 H 0.69891 0.51031 0.179 0.0
H36 H 0.82993 0.57528 0.50001 0.0
H37 H 0.65552 0.59309 1.01698 0.0
H38 H 0.65147 0.50201 0.10722 0.0
C39 C 0.90849 0.80334 0.93752 0.0
C40 C 0.92272 0.83089 0.92156 0.0
C41 C 0.91035 0.79061 1.01477 0.0
C42 C 0.92761 0.80477 0.07545 0.0
C43 C 0.93699 0.83462 0.06243 0.0
C44 C 0.9342 0.84765 0.9864 0.0
C45 C 0.94204 0.78684 0.14103 0.0
C46 C 0.95068 0.75733 0.12514 0.0
C47 C 0.9697 0.74119 0.17672 0.0
C48 C 0.98212 0.7565 0.24519 0.0
C49 C 0.9734 0.7867 0.26254 0.0
C50 C 0.95233 0.80055 0.21194 0.0
C51 C 0.98699 0.80673 0.32645 0.0
C52 C 0.97559 0.80711 0.40584 0.0
C53 C 1.00462 0.83155 0.30153 0.0
C54 C 1.00933 0.85652 0.35213 0.0
C55 C 0.99655 0.85783 0.43002 0.0
C56 C 0.97614 0.70926 0.15061 0.0
C57 C 0.952 0.69134 0.12274 0.0
C58 C 1.00531 0.69909 0.13391 0.0
C59 C 1.00991 0.67299 0.08665 0.0
C60 C 0.98555 0.65654 0.05262 0.0
C61 C 0.9565 0.66625 0.07326 0.0
C62 C 0.9806 0.83204 0.45712 0.0
H63 H 0.89889 0.79029 0.8887 0.0
H64 H 0.90119 0.76827 0.02396 0.0
H65 H 0.95 0.84678 0.10692 0.0
H66 H 0.94513 0.86916 0.97603 0.0
H67 H 0.94402 0.74705 0.06868 0.0
H68 H 0.94538 0.8232 0.2257 0.0
H69 H 0.99824 0.74533 0.28357 0.0
H70 H 0.96129 0.78889 0.42674 0.0
H71 H 0.01302 0.8326 0.24011 0.0
H72 H 0.02167 0.87559 0.32807 0.0
H73 H 0.92912 0.69833 0.13355 0.0
H74 H 0.02456 0.71224 0.15307 0.0
H75 H 0.97121 0.83135 0.51743 0.0
H76 H 0.93676 0.65592 0.0473 0.0
H77 H 0.03278 0.66643 0.07451 0.0
C78 C 0.6953 0.90285 0.13467 0.0
C79 C 0.68652 0.91972 0.06661 0.0
C80 C 0.72282 0.90902 0.17223 0.0
C81 C 0.74231 0.93081 0.13919 0.0
C82 C 0.73687 0.94115 0.06053 0.0
C83 C 0.70912 0.93582 0.02461 0.0
C84 C 0.76079 0.95016 0.19252 0.0
C85 C 0.78855 0.96144 0.16604 0.0
C86 C 0.80131 0.98734 0.20035 0.0
C87 C 0.78555 1.00212 0.26369 0.0
C88 C 0.75803 0.98985 0.2937 0.0
C89 C 0.74656 0.96367 0.25835 0.0
C90 C 0.73804 1.00447 0.35493 0.0
C91 C 0.73527 0.99194 0.43292 0.0
C92 C 0.71529 0.02393 0.32861 0.0
C93 C 0.69001 0.02971 0.37733 0.0
C94 C 0.6866 0.01624 0.4542 0.0
C95 C 0.82937 0.99921 0.1609 0.0
C96 C 0.85678 0.98426 0.17205 0.0
C97 C 0.82734 0.01972 0.09635 0.0
C98 C 0.85165 0.02449 0.04309 0.0
C99 C 0.87894 1.00896 0.05271 0.0
C100 C 0.88121 0.98919 0.11924 0.0
C101 C 0.71011 0.99788 0.48197 0.0
H102 H 0.67972 0.88772 0.16455 0.0
H103 H 0.72712 0.89968 0.2316 0.0
H104 H 0.75179 0.95742 0.03225 0.0
H105 H 0.70431 0.94836 0.9701 0.0
H106 H 0.79923 0.95125 0.11412 0.0
H107 H 0.72461 0.95554 0.2773 0.0
H108 H 0.79431 0.02289 0.28831 0.0
H109 H 0.75163 0.97586 0.45388 0.0
H110 H 0.716 0.03303 0.26782 0.0
H111 H 0.67253 0.04394 0.35344 0.0
H112 H 0.85884 0.96759 0.2195 0.0
H113 H 0.80622 0.03065 0.08386 0.0
H114 H 0.70822 0.98649 0.53968 0.0
H115 H 0.90169 0.97684 0.12937 0.0
H116 H 0.84838 0.03921 0.99173 0.0
C117 C 0.51679 0.69304 0.38231 0.0
C118 C 0.5383 0.68424 0.44058 0.0
C119 C 0.52156 0.71828 0.33144 0.0
C120 C 0.54794 0.73583 0.33683 0.0
C121 C 0.56916 0.72745 0.39579 0.0
C122 C 0.56442 0.70229 0.4467 0.0
C123 C 0.55726 0.75653 0.26838 0.0
C124 C 0.54831 0.78717 0.25912 0.0
C125 C 0.5598 0.80492 0.19349 0.0
C126 C 0.57964 0.79152 0.13921 0.0
C127 C 0.58544 0.76075 0.14135 0.0
C128 C 0.57515 0.7438 0.20777 0.0
C129 C 0.59623 0.74564 0.06659 0.0
C130 C 0.58644 0.7563 0.99088 0.0
C131 C 0.61083 0.7178 0.06964 0.0
C132 C 0.61071 0.69905 1.00191 0.0
C133 C 0.59567 0.70783 0.9309 0.0
C134 C 0.55066 0.83648 0.1712 0.0
C135 C 0.52219 0.84209 0.13728 0.0
C136 C 0.57334 0.85828 0.15788 0.0
C137 C 0.56854 0.88333 0.10764 0.0
C138 C 0.54067 0.88826 0.07026 0.0
C139 C 0.51719 0.86771 0.08814 0.0
C140 C 0.58642 0.73773 0.92382 0.0
H141 H 0.49683 0.67953 0.37266 0.0
H142 H 0.50532 0.72304 0.28451 0.0
H143 H 0.59027 0.73959 0.3999 0.0
H144 H 0.58172 0.69659 0.48986 0.0
H145 H 0.53305 0.797 0.30225 0.0
H146 H 0.57952 0.71994 0.21055 0.0
H147 H 0.58869 0.80488 0.08985 0.0
H148 H 0.57507 0.7775 0.9845 0.0
H149 H 0.61984 0.70933 0.12596 0.0
H150 H 0.61892 0.67637 1.00845 0.0
H151 H 0.50444 0.82548 0.14338 0.0
H152 H 0.59578 0.85453 0.18079 0.0
H153 H 0.57469 0.74565 0.8707 0.0
H154 H 0.49546 0.87035 0.05988 0.0
H155 H 0.58715 0.8983 0.09522 0.0
C156 C 0.23408 0.4171 0.37783 0.0
C157 C 0.20605 0.40922 0.34503 0.0
C158 C 0.25893 0.41909 0.32699 0.0
C159 C 0.25552 0.41259 0.24427 0.0
C160 C 0.23077 0.3946 0.22154 0.0
C161 C 0.20573 0.3929 0.27255 0.0
C162 C 0.26899 0.43414 0.18487 0.0
C163 C 0.29691 0.44747 0.20038 0.0
C164 C 0.30477 0.47549 0.1674 0.0
C165 C 0.28492 0.48921 0.11036 0.0
C166 C 0.25783 0.47418 0.08642 0.0
C167 C 0.25037 0.44716 0.1261 0.0
C168 C 0.23513 0.48575 0.02521 0.0
C169 C 0.22486 0.51556 0.02383 0.0
C170 C 0.22006 0.46504 0.97464 0.0
C171 C 0.1946 0.47298 0.92964 0.0
C172 C 0.18331 0.5024 0.93024 0.0
C173 C 0.33188 0.49025 0.20475 0.0
C174 C 0.32806 0.50917 0.27176 0.0
C175 C 0.36059 0.47796 0.19262 0.0
C176 C 0.38434 0.48356 0.24717 0.0
C177 C 0.38017 0.50137 0.31655 0.0
C178 C 0.35168 0.51455 0.32676 0.0
C179 C 0.19959 0.52381 0.97656 0.0
H180 H 0.23561 0.42798 0.43615 0.0
H181 H 0.27835 0.43122 0.34935 0.0
H182 H 0.22837 0.38707 0.15971 0.0
H183 H 0.18471 0.38457 0.24813 0.0
H184 H 0.31151 0.43742 0.24522 0.0
H185 H 0.22833 0.43752 0.11569 0.0
H186 H 0.29053 0.51098 0.08505 0.0
H187 H 0.2356 0.5323 0.06153 0.0
H188 H 0.22725 0.44191 0.97235 0.0
H189 H 0.18322 0.45544 0.89624 0.0
H190 H 0.30602 0.51788 0.28538 0.0
H191 H 0.36415 0.46241 0.14347 0.0
H192 H 0.19284 0.54704 0.97706 0.0
H193 H 0.34691 0.52764 0.38008 0.0
H194 H 0.40578 0.47307 0.23629 0.0
C195 C 0.08406 0.25138 0.4392 0.0
C196 C 0.0916 0.2211 0.43175 0.0
C197 C 0.08585 0.27028 0.37231 0.0
C198 C 0.09561 0.25929 0.29681 0.0
C199 C 0.10996 0.23127 0.2959 0.0
C200 C 0.10788 0.21219 0.36316 0.0
C201 C 0.08324 0.27285 0.22078 0.0
C202 C 0.07309 0.30245 0.22205 0.0
C203 C 0.04847 0.31136 0.17554 0.0
C204 C 0.03802 0.29181 0.113 0.0
C205 C 0.05237 0.26361 0.09998 0.0
C206 C 0.07413 0.25436 0.15625 0.0
C207 C 0.04444 0.24148 0.03389 0.0
C208 C 0.01701 0.22548 0.03367 0.0
C209 C 0.06715 0.23142 0.98136 0.0
C210 C 0.06301 0.20599 0.93201 0.0
C211 C 0.036 0.18922 0.93339 0.0
C212 C 0.03213 0.3382 0.2082 0.0
C213 C 0.01917 0.33555 0.28562 0.0
C214 C 0.03752 0.3674 0.17843 0.0
C215 C 0.03127 0.39296 0.22614 0.0
C216 C 0.02068 0.39017 0.30681 0.0
C217 C 0.01391 0.3608 0.33405 0.0
C218 C 0.01288 0.19979 0.98444 0.0
H219 H 0.07192 0.2593 0.49155 0.0
H220 H 0.07524 0.29185 0.37839 0.0
H221 H 0.11957 0.22259 0.24078 0.0
H222 H 0.11496 0.18912 0.35698 0.0
H223 H 0.08151 0.31767 0.26784 0.0
H224 H 0.0821 0.23154 0.15259 0.0
H225 H 0.01906 0.2982 0.07606 0.0
H226 H 0.99934 0.23176 0.07506 0.0
H227 H 0.08881 0.24266 0.98087 0.0
H228 H 0.08136 0.19909 0.89366 0.0
H229 H 0.01556 0.31349 0.3119 0.0
H230 H 0.04812 0.37046 0.12003 0.0
H231 H 0.99197 0.1874 0.98959 0.0
H232 H 1.00613 0.35685 0.39514 0.0
H233 H 0.03558 0.41481 0.19988 0.0
C234 C 0.34389 0.1044 0.38327 0.0
C235 C 0.36775 0.11803 0.34024 0.0
C236 C 0.31533 0.10255 0.34942 0.0
C237 C 0.31022 0.11396 0.27166 0.0
C238 C 0.33222 0.1327 0.23628 0.0
C239 C 0.36085 0.13484 0.27065 0.0
C240 C 0.28763 0.09849 0.22036 0.0
C241 C 0.25898 0.09124 0.24981 0.0
C242 C 0.24015 0.07024 0.21035 0.0
C243 C 0.2517 0.05538 0.14048 0.0
C244 C 0.28068 0.06315 0.10959 0.0
C245 C 0.2976 0.08514 0.14918 0.0
C246 C 0.29677 0.04781 0.0418 0.0
C247 C 0.31653 0.02432 0.06069 0.0
C248 C 0.30158 0.06347 0.96863 0.0
C249 C 0.32637 0.05711 0.91864 0.0
C250 C 0.34741 0.03511 0.9407 0.0
C251 C 0.20956 0.06398 0.24759 0.0
C252 C 0.19764 0.03476 0.2571 0.0
C253 C 0.19353 0.08765 0.28343 0.0
C254 C 0.16794 0.08236 0.33105 0.0
C255 C 0.15629 0.05318 0.34287 0.0
C256 C 0.17144 0.02946 0.30389 0.0
C257 C 0.34145 0.01812 1.01114 0.0
H258 H 0.34785 0.09114 0.43705 0.0
H259 H 0.29882 0.08823 0.3788 0.0
H260 H 0.32854 0.14245 0.17706 0.0
H261 H 0.37845 0.14636 0.23727 0.0
H262 H 0.25199 0.1011 0.30645 0.0
H263 H 0.32022 0.08986 0.12793 0.0
H264 H 0.23843 0.03823 0.11066 0.0
H265 H 0.31432 1.01256 0.11784 0.0
H266 H 0.28768 0.08251 0.95372 0.0
H267 H 0.33028 0.07107 0.8659 0.0
H268 H 0.20921 0.01583 0.23124 0.0
H269 H 0.20142 0.11059 0.27712 0.0
H270 H 0.35696 1.00094 0.03027 0.0
H271 H 0.16332 1.00662 0.31051 0.0
H272 H 0.15809 0.10135 0.36125 0.0
C273 C 0.45666 0.34619 0.97884 0.0
C274 C 0.48518 0.35381 0.94745 0.0
C275 C 0.45225 0.32109 0.02924 0.0
C276 C 0.47634 0.30311 0.05558 0.0
C277 C 0.50487 0.30989 0.02282 0.0
C278 C 0.50915 0.33462 0.96926 0.0
C279 C 0.47172 0.28194 0.12735 0.0
C280 C 0.48532 0.25308 0.13743 0.0
C281 C 0.47993 0.23584 0.20944 0.0
C282 C 0.46231 0.24818 0.27048 0.0
C283 C 0.45001 0.27678 0.26378 0.0
C284 C 0.45383 0.29271 0.19117 0.0
C285 C 0.43891 0.29192 0.33822 0.0
C286 C 0.42745 0.27509 0.40407 0.0
C287 C 0.44624 0.32228 0.35085 0.0
C288 C 0.44688 0.3339 0.42851 0.0
C289 C 0.44087 0.31533 0.49545 0.0
C290 C 0.49326 0.20593 0.23128 0.0
C291 C 0.47589 0.17955 0.22113 0.0
C292 C 0.51595 0.20531 0.2908 0.0
C293 C 0.51949 0.18034 0.34247 0.0
C294 C 0.50081 0.15484 0.33567 0.0
C295 C 0.4798 0.15429 0.27204 0.0
C296 C 0.42909 0.2865 0.48261 0.0
H297 H 0.43751 0.36035 0.96827 0.0
H298 H 0.42977 0.31677 0.05158 0.0
H299 H 0.52417 0.29701 0.04146 0.0
H300 H 0.53153 0.33906 0.94645 0.0
H301 H 0.49968 0.24427 0.09059 0.0
H302 H 0.44402 0.31475 0.18624 0.0
H303 H 0.46014 0.23581 0.32675 0.0
H304 H 0.42003 0.25209 0.39624 0.0
H305 H 0.45506 0.33637 0.30291 0.0
H306 H 0.45595 0.35635 0.43645 0.0
H307 H 0.45739 0.17944 0.17867 0.0
H308 H 0.52895 0.22545 0.30302 0.0
H309 H 0.42373 0.27198 0.53335 0.0
H310 H 0.46494 0.13515 0.26526 0.0
H311 H 0.53576 0.18166 0.39098 0.0
C312 C 0.10089 0.03326 0.84234 0.0
C313 C 0.08566 0.05183 0.97337 0.0
C314 C 0.07908 0.03675 0.90068 0.0
C315 C 0.11438 0.06436 0.98492 0.0
C316 C 0.13017 0.04457 0.85509 0.0
C317 C 0.13661 0.06074 0.92584 0.0
N318 N 0.09396 0.01709 0.7755 0.0
C319 C 0.11597 1.00912 0.72268 0.0
C320 C 0.15231 0.03837 0.7977 0.0
C321 C 0.14528 0.0201 0.73189 0.0
Gd322 Gd 0.98413 0.03926 0.61599 0.0
Gd323 Gd 0.04349 1.00166 0.76085 0.0
N324 N 0.05159 0.02446 0.88726 0.0
C325 C 0.06338 0.05323 0.03286 0.0
C326 C 0.03042 0.02408 0.94702 0.0
C327 C 0.03578 0.03889 0.02005 0.0
H328 H 1.00926 1.01266 0.93801 0.0
H329 H 0.01868 0.03912 0.06652 0.0
H330 H 0.02548 0.03643 0.44143 0.0
H331 H 0.1111 0.99361 0.67469 0.0
H332 H 0.02422 1.00969 0.31306 0.0
H333 H 0.06753 0.0646 0.08957 0.0
H334 H 0.11983 0.07626 0.04005 0.0
H335 H 0.92081 0.0195 0.71193 0.0
H336 H 0.17509 0.04659 0.80525 0.0
H337 H 0.16251 0.01406 0.68897 0.0
H338 H 0.93181 0.9542 0.32079 0.0
H339 H 0.1589 0.06982 0.93641 0.0
H340 H 0.86975 0.96255 0.55556 0.0
H341 H 0.87547 0.98907 0.6857 0.0
N342 N 0.94154 1.0088 0.60009 0.0
C343 C 0.93845 0.9953 0.52689 0.0
C344 C 0.91911 1.00724 0.65612 0.0
C345 C 0.88989 0.97565 0.56708 0.0
C346 C 0.89312 0.9904 0.64086 0.0
C347 C 0.91265 0.97798 0.50897 0.0
H348 H 0.89096 0.94964 0.41992 0.0
N349 N 0.98585 0.01582 0.48828 0.0
C350 C 0.96149 0.99829 0.47035 0.0
C351 C 0.98249 0.98703 0.33924 0.0
C352 C 0.95926 0.98341 0.39536 0.0
C353 C 1.00766 0.02064 0.43157 0.0
C354 C 1.00663 1.00594 0.35719 0.0
O355 O 0.0319 0.04994 0.79424 0.0
O356 O 0.01557 0.07308 0.6772 0.0
O357 O 0.96857 0.06855 0.52026 0.0
O358 O 0.94822 0.07077 0.63858 0.0
O359 O 0.99358 0.99676 0.79266 0.0
O360 O 0.97178 0.0401 0.74847 0.0
O361 O 0.98484 0.98816 0.63524 0.0
O362 O 0.03473 0.98088 0.63816 0.0
O363 O 0.02649 0.96261 0.82399 0.0
O364 O 0.07321 0.96447 0.78965 0.0
O365 O 0.03259 0.04992 0.57839 0.0
O366 O 0.06118 1.01177 0.63355 0.0
C367 C 0.02554 0.07429 0.75237 0.0
C368 C 0.9735 0.01807 0.80109 0.0
C369 C 0.95621 0.11603 0.5703 0.0
C370 C 0.99089 0.15839 0.56484 0.0
C371 C 0.93818 0.16641 0.59389 0.0
C372 C 0.93261 0.13557 0.58757 0.0
C373 C 0.96725 0.17785 0.58284 0.0
C374 C 0.98529 0.12758 0.55936 0.0
C375 C 0.95108 0.08353 0.56818 0.0
C376 C 0.93382 0.96575 0.37805 0.0
C377 C 0.91051 0.96322 0.43441 0.0
H378 H 0.98163 0.97591 0.28116 0.0
C379 C 1.00799 0.97139 0.61709 0.0
C380 C 0.05749 0.03391 0.58099 0.0
C381 C 0.04621 0.91882 0.76819 0.0
C382 C 1.011 0.87884 0.7307 0.0
C383 C 0.0585 0.8843 0.65996 0.0
C384 C 0.06603 0.90908 0.70783 0.0
C385 C 0.03093 0.86947 0.67036 0.0
C386 C 0.01933 0.90295 0.7805 0.0
C387 C 0.05086 0.94735 0.81204 0.0
H388 H 0.91994 0.18147 0.60718 0.0
H389 H 0.91006 0.12695 0.597 0.0
H390 H 0.97109 0.20185 0.58562 0.0
H391 H 1.00367 0.11268 0.54541 0.0
H392 H 0.07371 0.8771 0.61302 0.0
H393 H 0.0869 0.92097 0.69618 0.0
H394 H 0.02512 0.85103 0.63079 0.0
H395 H 1.00443 0.90989 0.82864 0.0
C396 C 0.52496 0.92515 0.70399 0.0
C397 C 0.48607 0.90631 0.79406 0.0
C398 C 0.49755 0.929 0.74261 0.0
C399 C 0.50278 0.88021 0.80762 0.0
C400 C 0.54163 0.89881 0.7167 0.0
C401 C 0.53044 0.87644 0.76892 0.0
N402 N 0.53591 0.94778 0.65664 0.0
C403 C 0.56251 0.9448 0.61671 0.0
C404 C 0.56928 0.89593 0.67745 0.0
C405 C 0.57964 0.91893 0.62681 0.0
Gd406 Gd 0.53284 0.05592 0.78383 0.0
Gd407 Gd 0.50584 0.99055 0.64473 0.0
N408 N 0.48222 0.95493 0.73024 0.0
C409 C 0.45797 0.91038 0.82986 0.0
C410 C 0.45369 0.95763 0.75913 0.0
C411 C 0.44147 0.9359 0.811 0.0
H412 H 0.43973 0.97582 0.74018 0.0
H413 H 0.41908 0.9386 0.83516 0.0
H414 H 0.57929 0.0819 0.638 0.0
H415 H 0.57048 0.96222 0.57651 0.0
H416 H 0.59072 0.12963 0.56909 0.0
H417 H 0.44843 0.89355 0.86996 0.0
H418 H 0.49443 0.86272 0.84759 0.0
H419 H 0.48198 0.07203 0.92648 0.0
H420 H 0.58274 0.87603 0.68564 0.0
H421 H 0.60084 0.91676 0.5955 0.0
H422 H 0.52629 0.20067 0.69756 0.0
H423 H 0.54305 0.85617 0.77993 0.0
H424 H 0.46086 0.16517 0.90773 0.0
H425 H 0.45282 0.11556 0.97215 0.0
N426 N 0.50441 0.09605 0.83286 0.0
C427 C 0.50966 0.12322 0.79783 0.0
C428 C 0.48461 0.09319 0.89547 0.0
C429 C 0.47319 0.14595 0.8862 0.0
C430 C 0.46851 0.11797 0.92253 0.0
C431 C 0.49418 0.14894 0.82363 0.0
H432 H 0.48865 0.19678 0.80593 0.0
N433 N 0.54522 0.10014 0.71261 0.0
C434 C 0.53096 0.12543 0.73677 0.0
C435 C 0.55868 0.15473 0.6382 0.0
C436 C 0.53721 0.15339 0.69986 0.0
C437 C 0.56706 0.10158 0.65481 0.0
C438 C 0.57377 0.12873 0.61591 0.0
O439 O 0.53708 0.98177 0.75288 0.0
O440 O 0.51907 1.01282 0.84837 0.0
O441 O 0.57827 0.05145 0.82802 0.0
O442 O 0.54616 0.07759 0.89573 0.0
O443 O 0.46901 0.02017 0.69995 0.0
O444 O 0.48932 0.03327 0.82204 0.0
O445 O 0.50804 0.07215 0.6709 0.0
O446 O 0.51296 0.03471 0.57636 0.0
O447 O 0.46536 0.97671 0.58236 0.0
O448 O 0.50844 0.96825 0.52814 0.0
O449 O 0.56944 0.03283 0.70814 0.0
O450 O 0.54739 1.0129 0.59395 0.0
C451 C 0.52962 0.98649 0.82863 0.0
C452 C 0.46566 0.02837 0.7762 0.0
C453 C 0.58167 0.05066 0.97076 0.0
C454 C 0.59905 1.00639 0.04421 0.0
C455 C 0.59669 0.05513 0.1107 0.0
C456 C 0.5859 0.06814 0.03997 0.0
C457 C 0.60388 0.02476 0.11246 0.0
C458 C 0.58726 0.01967 0.97385 0.0
C459 C 0.57254 0.06546 0.89533 0.0
C460 C 0.52182 0.17903 0.72533 0.0
C461 C 0.50033 0.1768 0.78693 0.0
H462 H 0.56397 0.17573 0.60798 0.0
C463 C 0.50783 0.06291 0.59528 0.0
C464 C 0.57122 0.02266 0.63316 0.0
C465 C 0.46877 0.98125 0.44182 0.0
C466 C 0.44892 0.02458 0.36865 0.0
C467 C 0.44914 0.97478 0.30691 0.0
C468 C 0.46204 0.96267 0.37635 0.0
C469 C 0.44209 1.00524 0.3035 0.0
C470 C 0.46341 1.01219 0.43632 0.0
C471 C 0.47957 0.96819 0.51783 0.0
H472 H 0.60058 0.06888 0.16351 0.0
H473 H 0.58144 0.09199 0.03875 0.0
H474 H 0.61456 0.01628 0.16646 0.0
H475 H 0.58344 1.0062 0.92054 0.0
H476 H 0.44361 0.96032 0.25656 0.0
H477 H 0.46626 0.9388 0.37954 0.0
H478 H 0.43027 1.01318 0.25059 0.0
H479 H 0.46994 0.02616 0.48612 0.0
C480 C 0.44087 0.49229 0.8641 0.0
C481 C 0.46312 0.48719 0.99716 0.0
C482 C 0.46376 0.4993 0.91816 0.0
C483 C 0.43988 0.46735 0.01982 0.0
C484 C 0.41678 0.47351 0.8879 0.0
C485 C 0.4167 0.46066 0.9655 0.0
N486 N 0.44197 0.5042 0.78833 0.0
C487 C 0.41883 0.50007 0.73544 0.0
C488 C 0.39331 0.46848 0.83318 0.0
C489 C 0.39426 0.48197 0.75681 0.0
Gd490 Gd 0.54272 0.4981 0.62203 0.0
Gd491 Gd 0.48232 0.53646 0.7602 0.0
N492 N 0.4856 0.51919 0.89514 0.0
C493 C 0.4852 0.49626 0.05213 0.0
C494 C 0.50535 0.53014 0.95116 0.0
C495 C 0.50606 0.51824 0.02943 0.0
H496 H 0.51995 0.5488 0.9373 0.0
H497 H 0.52223 0.52661 0.07285 0.0
H498 H 0.51081 0.50175 0.44003 0.0
H499 H 0.41924 0.51091 0.67697 0.0
H500 H 0.5198 0.52628 0.30801 0.0
H501 H 0.48551 0.48746 0.11327 0.0
H502 H 0.43917 0.45774 0.08007 0.0
H503 H 0.60855 0.50419 0.7243 0.0
H504 H 0.37431 0.45435 0.8494 0.0
H505 H 0.37606 0.47848 0.71449 0.0
H506 H 0.61491 0.57635 0.34073 0.0
H507 H 0.39856 0.44589 0.98454 0.0
H508 H 0.66736 0.56175 0.59033 0.0
H509 H 0.65632 0.53164 0.71283 0.0
N510 N 0.59065 0.52119 0.61433 0.0
C511 C 0.59714 0.53597 0.54434 0.0
C512 C 0.6121 0.51852 0.67281 0.0
C513 C 0.64587 0.55036 0.59615 0.0
C514 C 0.63968 0.53351 0.6655 0.0
C515 C 0.62478 0.55122 0.53365 0.0
H516 H 0.65175 0.57821 0.4514 0.0
N517 N 0.55054 0.51937 0.49356 0.0
C518 C 0.57659 0.53478 0.48173 0.0
C519 C 0.56184 0.54628 0.34461 0.0
C520 C 0.5828 0.54901 0.40723 0.0
C521 C 0.5307 0.51537 0.43158 0.0
C522 C 0.53583 0.52908 0.35658 0.0
O523 O 0.48164 0.48537 0.74154 0.0
O524 O 0.53124 0.47604 0.74237 0.0
O525 O 0.53192 0.45644 0.56188 0.0
O526 O 0.57779 0.46571 0.59674 0.0
O527 O 0.5309 0.54693 0.79805 0.0
O528 O 0.5563 0.50542 0.75369 0.0
O529 O 0.52839 0.54524 0.58329 0.0
O530 O 0.51671 0.56844 0.70251 0.0
O531 O 0.46161 0.56646 0.84619 0.0
O532 O 0.44873 0.56837 0.72075 0.0
O533 O 0.49352 0.49144 0.58347 0.0
O534 O 0.46966 0.53387 0.62772 0.0
C535 C 0.50392 0.46775 0.76196 0.0
C536 C 0.55387 0.52845 0.80311 0.0
C537 C 0.55789 0.41705 0.62418 0.0
C538 C 0.52874 0.37317 0.66744 0.0
C539 C 0.57385 0.38743 0.74018 0.0
C540 C 0.5781 0.41196 0.68804 0.0
C541 C 0.54909 0.36821 0.73058 0.0
C542 C 0.53398 0.39693 0.61315 0.0
C543 C 0.5583 0.44518 0.57624 0.0
C544 C 0.6098 0.5651 0.39733 0.0
C545 C 0.63075 0.56619 0.4604 0.0
H546 H 0.56578 0.55685 0.28643 0.0
C547 C 0.5246 0.56983 0.62571 0.0
C548 C 0.47215 0.51169 0.57597 0.0
C549 C 0.45623 0.61368 0.78718 0.0
C550 C 0.49576 0.65161 0.79017 0.0
C551 C 0.44445 0.66556 0.7584 0.0
C552 C 0.43519 0.63562 0.76711 0.0
C553 C 0.47464 0.67357 0.76946 0.0
C554 C 0.48631 0.62185 0.79866 0.0
C555 C 0.44812 0.58184 0.79022 0.0
H556 H 0.5893 0.38385 0.78967 0.0
H557 H 0.59662 0.42729 0.69916 0.0
H558 H 0.5455 0.35004 0.77323 0.0
H559 H 0.51854 0.40053 0.56344 0.0
H560 H 0.42823 0.68256 0.7429 0.0
H561 H 0.4119 0.62956 0.75703 0.0
H562 H 0.48125 0.69695 0.7645 0.0
H563 H 0.50259 0.60497 0.81503 0.0
C564 C 0.0603 0.45942 0.84859 0.0
C565 C 0.0657 0.48283 0.97991 0.0
C566 C 0.05091 0.48043 0.90467 0.0
C567 C 0.09066 0.46479 0.99632 0.0
C568 C 0.08501 0.44086 0.86551 0.0
C569 C 0.10031 0.44389 0.93925 0.0
N570 N 0.04576 0.45771 0.77644 0.0
C571 C 0.05359 0.43662 0.72071 0.0
C572 C 0.09377 0.41993 0.8075 0.0
C573 C 0.07783 0.41764 0.73512 0.0
Gd574 Gd 0.03298 0.55717 0.61676 0.0
Gd575 Gd 1.00572 0.49106 0.75692 0.0
N576 N 0.02708 0.49812 0.88637 0.0
C577 C 0.05472 0.50299 0.03698 0.0
C578 C 0.01501 0.51603 0.9444 0.0
C579 C 0.02895 0.5193 0.01958 0.0
H580 H 0.99405 0.527 0.93441 0.0
H581 H 0.01947 0.53401 0.06456 0.0
H582 H 0.99469 0.53972 0.44725 0.0
H583 H 0.0414 0.43458 0.66464 0.0
H584 H 0.9629 0.56513 0.34665 0.0
H585 H 0.06543 0.50548 0.09539 0.0
H586 H 0.10248 0.46663 0.05334 0.0
H587 H 0.06855 0.61117 0.71641 0.0
H588 H 0.11266 0.40531 0.8182 0.0
H589 H 0.08423 0.40128 0.69031 0.0
H590 H 0.96681 0.66885 0.42395 0.0
H591 H 0.11954 0.43006 0.95291 0.0
H592 H 0.03282 0.69587 0.64165 0.0
H593 H 0.06693 0.66652 0.72904 0.0
N594 N 0.03494 0.60952 0.62572 0.0
C595 C 0.01673 0.6252 0.57581 0.0
C596 C 0.05337 0.62392 0.67895 0.0
C597 C 0.03327 0.67166 0.63656 0.0
C598 C 0.05259 0.65517 0.68589 0.0
C599 C 0.01533 0.65673 0.57971 0.0
H600 H 0.99516 0.6965 0.52798 0.0
N601 N 1.0038 0.57947 0.51427 0.0
C602 C 1.00071 0.60967 0.51784 0.0
C603 C 0.96872 0.6088 0.39999 0.0
C604 C 0.98291 0.62518 0.46128 0.0
C605 C 0.99143 0.56361 0.4518 0.0
C606 C 0.97331 0.57792 0.39469 0.0
O607 O 0.05489 0.49983 0.72284 0.0
O608 O 0.05954 0.54986 0.73225 0.0
O609 O 0.06877 0.52992 0.57142 0.0
O610 O 0.06869 0.57876 0.54654 0.0
O611 O 0.98931 0.53836 0.79246 0.0
O612 O 0.02772 0.56918 0.7491 0.0
O613 O 0.98221 0.55265 0.61291 0.0
O614 O 0.96958 0.50617 0.66735 0.0
O615 O 0.97354 0.47626 0.84779 0.0
O616 O 0.98604 0.44627 0.75235 0.0
O617 O 0.0247 0.51295 0.54847 0.0
O618 O 1.00593 0.47429 0.6289 0.0
C619 C 0.06987 0.52324 0.74983 0.0
C620 C 1.00481 0.56386 0.79758 0.0
C621 C 0.11012 0.54947 0.49212 0.0
C622 C 0.14538 0.51645 0.42566 0.0
C623 C 0.15101 0.57053 0.41275 0.0
C624 C 0.12559 0.5745 0.46074 0.0
C625 C 0.16078 0.54164 0.39465 0.0
C626 C 0.12062 0.52054 0.47602 0.0
C627 C 0.08209 0.55301 0.53738 0.0
C628 C 0.98055 0.65653 0.46647 0.0
C629 C 0.99671 0.67228 0.52567 0.0
H630 H 0.9548 0.61986 0.35543 0.0
C631 C 0.96322 0.53016 0.62341 0.0
C632 C 0.01518 0.48494 0.55886 0.0
C633 C 0.93487 0.44913 0.78176 0.0
C634 C 0.88799 0.47397 0.74508 0.0
C635 C 0.89632 0.42199 0.70766 0.0
C636 C 0.92459 0.42281 0.74433 0.0
C637 C 0.87823 0.44749 0.707 0.0
C638 C 0.91615 0.47424 0.78331 0.0
C639 C 0.96643 0.4521 0.80792 0.0
H640 H 0.16291 0.58985 0.38856 0.0
H641 H 0.11789 0.59704 0.47256 0.0
H642 H 0.18032 0.53894 0.35649 0.0
H643 H 0.10887 0.50103 0.4999 0.0
H644 H 0.88872 0.40176 0.67773 0.0
H645 H 0.93879 0.40325 0.74126 0.0
H646 H 0.857 0.44655 0.67538 0.0
H647 H 0.92378 0.49435 0.81383 0.0
C648 C 0.12854 0.0225 0.45068 0.0
C649 C 0.12964 0.04773 0.39894 0.0
C650 C 0.10509 0.01809 0.50723 0.0
C651 C 0.08181 0.0391 0.51769 0.0
H652 H 0.1462 1.00601 0.44853 0.0
H653 H 0.10521 0.99764 0.54232 0.0
S654 S 0.07113 0.10653 0.38853 0.0
N655 N 0.10236 0.09173 0.35409 0.0
N656 N 0.06022 0.085 0.46456 0.0
C657 C 0.08208 0.06397 0.4645 0.0
C658 C 0.10542 0.06792 0.40478 0.0
C659 C 0.51346 0.10226 0.38675 0.0
C660 C 0.50105 0.13078 0.40034 0.0
C661 C 0.51502 0.08036 0.44912 0.0
C662 C 0.50414 0.08588 0.52806 0.0
H663 H 0.52257 0.09702 0.32785 0.0
H664 H 0.52541 0.05911 0.43558 0.0
S665 S 0.46537 0.15552 0.59093 0.0
N666 N 0.47526 0.16226 0.49638 0.0
N667 N 0.47752 0.12149 0.6121 0.0
C668 C 0.49054 0.11396 0.5409 0.0
C669 C 0.48915 0.1362 0.47765 0.0
C670 C 0.42235 0.48008 0.40422 0.0
C671 C 0.40467 0.50478 0.38006 0.0
C672 C 0.44423 0.48243 0.4662 0.0
C673 C 0.44952 0.50957 0.50776 0.0
H674 H 0.41882 0.45841 0.37628 0.0
H675 H 0.4567 0.46259 0.48266 0.0
S676 S 0.41187 0.5819 0.46264 0.0
N677 N 0.39619 0.55801 0.39918 0.0
N678 N 0.43626 0.56228 0.51547 0.0
C679 C 0.43252 0.53459 0.48279 0.0
C680 C 0.41047 0.53224 0.4194 0.0
C681 C 0.99622 0.41626 0.42741 0.0
C682 C 0.01783 0.41681 0.36455 0.0
C683 C 0.99515 0.43853 0.48785 0.0
C684 C 0.01496 0.46341 0.48816 0.0
H685 H 0.97994 0.39814 0.43115 0.0
H686 H 0.97862 0.436 0.53548 0.0
S687 S 0.07484 0.4777 0.3362 0.0
N688 N 0.05957 0.44561 0.30746 0.0
N689 N 0.05591 0.48814 0.41693 0.0
C690 C 0.03567 0.46532 0.42375 0.0
C691 C 0.03745 0.44207 0.36323 0.0
C692 C 0.91987 0.98654 0.96411 0.0
C693 C 0.90413 1.01201 0.9913 0.0
C694 C 0.94248 0.98862 0.90414 0.0
C695 C 0.95039 0.01626 0.86777 0.0
H696 H 0.91422 0.96455 0.988 0.0
H697 H 0.95336 0.96823 0.88487 0.0
S698 S 0.91881 0.09031 0.92279 0.0
N699 N 0.90038 0.06625 0.98095 0.0
N700 N 0.94198 0.07004 0.86816 0.0
C701 C 0.93543 0.04199 0.89578 0.0
C702 C 0.91261 0.03991 0.9572 0.0
C703 C 0.55852 0.91789 0.94693 0.0
C704 C 0.53714 0.91356 1.00925 0.0
C705 C 0.55592 0.94121 0.88902 0.0
C706 C 0.53217 0.96188 0.89134 0.0
H707 H 0.57735 0.90282 0.94208 0.0
H708 H 0.57287 0.94322 0.84234 0.0
S709 S 0.47022 0.9611 0.04165 0.0
N710 N 0.49121 0.93238 0.06863 0.0
N711 N 0.48675 0.97624 0.96176 0.0
C712 C 0.51082 0.95804 0.95364 0.0
C713 C 0.51312 0.93393 1.01167 0.0
C714 C 0.60375 0.5636 0.96991 0.0
C715 C 0.62377 0.54041 0.99239 0.0
C716 C 0.58134 0.55966 0.90999 0.0
C717 C 0.57709 0.5321 0.86979 0.0
H718 H 0.60535 0.58534 0.9985 0.0
H719 H 0.56738 0.5786 0.89452 0.0
S720 S 0.62135 0.46305 0.90789 0.0
N721 N 0.63689 0.48833 0.96759 0.0
N722 N 0.59353 0.48032 0.86209 0.0
C723 C 0.59594 0.5083 0.89392 0.0
C724 C 0.61935 0.51253 0.9532 0.0
C725 C 0.01536 0.63189 0.93897 0.0
C726 C 0.99027 0.63128 0.99124 0.0
C727 C 0.01966 0.6101 0.87839 0.0
C728 C 0.99882 0.58659 0.86402 0.0
H729 H 0.03188 0.64974 0.94338 0.0
H730 H 0.03983 0.61191 0.8424 0.0
S731 S 0.92967 0.57294 0.98453 0.0
N732 N 0.94523 0.60261 0.02732 0.0
N733 N 0.95171 0.56421 0.90821 0.0
C734 C 0.97349 0.58558 0.91518 0.0
C735 C 0.96963 0.60714 0.97946 0.0
C736 C 0.05491 0.17936 0.42796 0.0
C737 C 0.07247 0.19895 0.47532 0.0
C738 C 0.02936 0.16531 0.45929 0.0
C739 C 0.02028 0.1703 0.53908 0.0
H740 H 0.05932 0.17673 0.36401 0.0
H741 H 0.01561 0.1518 0.4192 0.0
S742 S 0.06066 0.21521 0.69278 0.0
N743 N 0.08092 0.21947 0.60967 0.0
N744 N 0.03224 0.19295 0.66836 0.0
C745 C 0.03856 0.18791 0.5893 0.0
C746 C 0.0649 0.20217 0.55752 0.0
C747 C 0.41419 0.09514 0.28523 0.0
C748 C 0.39864 0.10627 0.35269 0.0
C749 C 0.43395 0.07109 0.29298 0.0
C750 C 0.43795 0.05639 0.36775 0.0
H751 H 0.40867 0.10252 0.22466 0.0
H752 H 0.44384 0.06227 0.23835 0.0
S753 S 0.41228 0.08614 0.5663 0.0
N754 N 0.39742 0.10884 0.49878 0.0
N755 N 0.43123 0.06116 0.51418 0.0
C756 C 0.42677 0.07098 0.43737 0.0
C757 C 0.40799 0.09664 0.42935 0.0
C758 C 0.45093 0.35362 0.59939 0.0
C759 C 0.45462 0.324 0.57326 0.0
C760 C 0.47431 0.36871 0.6384 0.0
C761 C 0.50155 0.35439 0.65574 0.0
H762 H 0.43187 0.36651 0.57879 0.0
H763 H 0.4724 0.39267 0.64633 0.0
S764 S 0.51863 0.27437 0.62125 0.0
N765 N 0.48483 0.27891 0.58239 0.0
N766 N 0.52838 0.30724 0.65929 0.0
C767 C 0.50342 0.32341 0.64258 0.0
C768 C 0.47979 0.30809 0.60111 0.0
C769 C 0.17482 0.43731 0.44423 0.0
C770 C 0.18114 0.43005 0.36327 0.0
C771 C 0.16166 0.46476 0.46416 0.0
C772 C 0.15462 0.48583 0.40376 0.0
H773 H 0.18251 0.42287 0.49266 0.0
H774 H 0.15889 0.47039 0.52735 0.0
S775 S 0.16076 0.47559 0.18244 0.0
N776 N 0.17485 0.44471 0.2218 0.0
N777 N 0.15012 0.49596 0.26019 0.0
C778 C 0.15785 0.47766 0.32265 0.0
C779 C 0.17093 0.44973 0.30212 0.0
C780 C 0.93334 0.86806 0.81362 0.0
C781 C 0.93457 0.83819 0.84033 0.0
C782 C 0.95682 0.88045 0.7681 0.0
C783 C 0.98203 0.86327 0.74702 0.0
H784 H 0.91647 0.88295 0.8376 0.0
H785 H 0.95686 0.90443 0.7576 0.0
S786 S 0.99113 0.78172 0.78203 0.0
N787 N 0.95917 0.78999 0.8268 0.0
N788 N 1.00334 0.81334 0.74088 0.0
C789 C 0.98083 0.83222 0.76133 0.0
C790 C 0.95686 0.81958 0.8078 0.0
C791 C 0.646 0.94076 0.97851 0.0
C792 C 0.6545 0.92884 0.05409 0.0
C793 C 0.62545 0.96427 0.97339 0.0
C794 C 0.61093 0.97511 0.04296 0.0
H795 H 0.65822 0.93489 0.92435 0.0
H796 H 0.62351 0.97571 0.91587 0.0
S797 S 0.61178 0.93927 0.24549 0.0
N798 N 0.63845 0.92224 0.19451 0.0
N799 N 0.59676 0.96325 0.18139 0.0
C800 C 0.61344 0.95802 0.11416 0.0
C801 C 0.63578 0.93539 0.12067 0.0
C802 C 0.56382 0.66231 0.92142 0.0
C803 C 0.57983 0.68516 0.8805 0.0
C804 C 0.53766 0.65003 0.8887 0.0
C805 C 0.52673 0.65984 0.81355 0.0
H806 H 0.56914 0.65641 0.98329 0.0
H807 H 0.52456 0.63473 0.92591 0.0
S808 S 0.56603 0.71055 0.67006 0.0
N809 N 0.58739 0.71076 0.75171 0.0
N810 N 0.53756 0.68775 0.6905 0.0
C811 C 0.54481 0.67907 0.76676 0.0
C812 C 0.57175 0.69143 0.79985 0.0
C813 C 0.86878 0.55455 0.78488 0.0
C814 C 0.84011 0.55159 0.81877 0.0
C815 C 0.88278 0.52984 0.7499 0.0
C816 C 0.86895 0.50119 0.75051 0.0
H817 H 0.88174 0.57496 0.79384 0.0
H818 H 0.90587 0.53253 0.73093 0.0
S819 S 0.79094 0.48424 0.8162 0.0
N820 N 0.79582 0.52021 0.83597 0.0
N821 N 0.82262 0.47312 0.77479 0.0
C822 C 0.83864 0.49921 0.77393 0.0
C823 C 0.8241 0.52469 0.80713 0.0
C824 C 0.05684 0.13965 0.88052 0.0
C825 C 0.0329 0.16029 0.88475 0.0
C826 C 0.05446 0.11233 0.83723 0.0
C827 C 0.02825 0.10431 0.79434 0.0
H828 H 0.07756 0.14429 0.91247 0.0
H829 H 0.07349 0.09743 0.83701 0.0
S830 S 0.95863 0.14926 0.78672 0.0
N831 N 0.98175 0.16988 0.84166 0.0
N832 N 0.97749 0.11903 0.76115 0.0
C833 C 1.00424 0.12466 0.79751 0.0
C834 C 1.00648 0.15232 0.84242 0.0
C835 C 0.40415 0.03134 0.93952 0.0
C836 C 0.37694 0.03212 0.89608 0.0
C837 C 0.43221 0.03002 0.90026 0.0
C838 C 0.43485 0.02949 0.81514 0.0
H839 H 0.40386 0.03226 1.00492 0.0
H840 H 0.45205 0.02917 0.93776 0.0
S841 S 0.37035 0.02763 0.6727 0.0
N842 N 0.35443 0.03 0.76257 0.0
N843 N 0.40693 0.02747 0.68902 0.0
C844 C 0.40773 0.02934 0.77085 0.0
C845 C 0.37902 0.03079 0.81104 0.0
C846 C 0.51681 0.39927 0.9013 0.0
C847 C 0.48987 0.38227 0.89628 0.0
C848 C 0.52114 0.42643 0.85768 0.0
C849 C 0.49864 0.43858 0.80751 0.0
H850 H 0.53475 0.39191 0.94048 0.0
H851 H 0.5423 0.43829 0.86451 0.0
S852 S 0.42462 0.40279 0.7667 0.0
N853 N 0.44108 0.3794 0.82979 0.0
N854 N 0.44873 0.43069 0.75296 0.0
C855 C 0.47172 0.42194 0.80126 0.0
C856 C 0.46749 0.3939 0.84402 0.0
C857 C 0.14785 0.49452 0.81011 0.0
C858 C 0.15477 0.50981 0.88292 0.0
C859 C 0.12071 0.49904 0.76765 0.0
C860 C 0.09922 0.51974 0.79404 0.0
H861 H 0.16353 0.47866 0.78508 0.0
H862 H 0.11657 0.4862 0.71327 0.0
S863 S 0.10453 0.56536 0.98045 0.0
N864 N 0.13594 0.54597 0.98022 0.0
N865 N 0.08638 0.55572 0.89741 0.0
C866 C 0.10583 0.53579 0.86507 0.0
C867 C 0.1331 0.53057 0.90997 0.0
C868 C 0.02576 0.90376 0.48086 0.0
C869 C 0.999 0.88642 0.48015 0.0
C870 C 0.02838 0.93081 0.5251 0.0
C871 C 1.00434 0.94229 0.57079 0.0
H872 H 0.0452 0.8962 0.44768 0.0
H873 H 0.04957 0.94289 0.52312 0.0
S874 S 0.92889 0.90661 0.58827 0.0
N875 N 0.94746 0.88393 0.52811 0.0
N876 N 0.9527 0.93374 0.61235 0.0
C877 C 0.97743 0.92533 0.57055 0.0
C878 C 0.97472 0.89779 0.5254 0.0
C879 C 0.62965 0.01571 0.46267 0.0
C880 C 0.65763 0.01927 0.50162 0.0
C881 C 0.60225 0.017 0.50543 0.0
C882 C 0.60115 0.02217 0.58964 0.0
H883 H 0.62886 1.0112 0.39843 0.0
H884 H 0.58166 0.0138 0.47166 0.0
S885 S 0.6679 0.0344 0.72067 0.0
N886 N 0.68228 0.02922 0.62983 0.0
N887 N 0.63114 0.03162 0.7098 0.0
C888 C 0.62896 0.02627 0.62926 0.0
C889 C 0.65696 0.02475 0.58562 0.0
C890 C 0.55896 0.63641 0.50616 0.0
C891 C 0.53445 0.65571 0.49148 0.0
C892 C 0.55577 0.60924 0.5505 0.0
C893 C 0.52802 0.5999 0.58356 0.0
H894 H 0.58085 0.64192 0.48154 0.0
H895 H 0.57533 0.59544 0.55903 0.0
S896 S 0.45667 0.64158 0.56458 0.0
N897 N 0.48128 0.66306 0.51664 0.0
N898 N 0.47549 0.61228 0.59784 0.0
C899 C 0.50346 0.61901 0.57051 0.0
C900 C 0.5066 0.64663 0.52511 0.0
C901 C 0.89294 0.56135 0.51638 0.0
C902 C 0.87771 0.5356 0.48712 0.0
C903 C 0.92008 0.55942 0.56073 0.0
C904 C 0.93338 0.5316 0.57958 0.0
H905 H 0.88436 0.58344 0.50279 0.0
H906 H 0.93086 0.58005 0.58002 0.0
S907 S 0.9037 0.45717 0.51648 0.0
N908 N 0.87869 0.48105 0.4817 0.0
N909 N 0.92938 0.47766 0.56301 0.0
C910 C 0.91836 0.50566 0.55156 0.0
C911 C 0.8908 0.50759 0.50605 0.0
loop_
_geom_bond_atom_site_label_1
_geom_bond_atom_site_label_2
_geom_bond_distance
_geom_bond_site_symmetry_2
_ccdc_geom_bond_type
C0 C1 1.386 . S
C0 C2 1.397 . S
C0 H24 0.931 . S
C1 C0 1.386 . S
C1 C5 1.397 . S
C2 C0 1.397 . S
C2 C3 1.384 . S
C2 H25 0.930 . S
C3 C2 1.384 . S
C3 C4 1.377 . S
C3 C6 1.481 . S
C4 C3 1.377 . S
C4 C5 1.389 . S
C4 H26 0.929 . S
C5 C1 1.397 . S
C5 C4 1.389 . S
C5 H27 0.931 . S
C6 C3 1.481 . S
C6 C7 1.387 . S
C6 C11 1.390 . S
C7 C6 1.387 . S
C7 C8 1.401 . S
C7 H28 0.930 . S
C8 C7 1.401 . S
C8 C9 1.376 . S
C8 C17 1.511 . S
C9 C8 1.376 . S
C9 C10 1.392 . S
C9 H30 0.931 . S
C10 C9 1.392 . S
C10 C11 1.361 . S
C10 C12 1.500 . S
C11 C6 1.390 . S
C11 C10 1.361 . S
C11 H29 0.931 . S
C12 C10 1.500 . S
C12 C13 1.371 . S
C12 C14 1.365 . S
C13 C12 1.371 . S
C13 C23 1.386 . S
C13 H31 0.931 . S
C14 C12 1.365 . S
C14 C15 1.409 . S
C14 H32 0.929 . S
C15 C14 1.409 . S
C15 C16 1.380 . S
C15 H33 0.930 . S
C16 C15 1.380 . S
C16 C23 1.357 . S
C17 C8 1.511 . S
C17 C18 1.341 . S
C17 C19 1.371 . S
C18 C17 1.341 . S
C18 C22 1.394 . S
C18 H34 0.930 . S
C19 C17 1.371 . S
C19 C20 1.392 . S
C19 H35 0.931 . S
C20 C19 1.392 . S
C20 C21 1.331 . S
C20 H38 0.932 . S
C21 C20 1.331 . S
C21 C22 1.336 . S
C22 C18 1.394 . S
C22 C21 1.336 . S
C22 H37 0.929 . S
C23 C13 1.386 . S
C23 C16 1.357 . S
C23 H36 0.928 . S
H24 C0 0.931 . S
H25 C2 0.930 . S
H26 C4 0.929 . S
H27 C5 0.931 . S
H28 C7 0.930 . S
H29 C11 0.931 . S
H30 C9 0.931 . S
H31 C13 0.931 . S
H32 C14 0.929 . S
H33 C15 0.930 . S
H34 C18 0.930 . S
H35 C19 0.931 . S
H36 C23 0.928 . S
H37 C22 0.929 . S
H38 C20 0.932 . S
C39 C40 1.386 . S
C39 C41 1.397 . S
C39 H63 0.931 . S
C40 C39 1.386 . S
C40 C44 1.397 . S
C41 C39 1.397 . S
C41 C42 1.384 . S
C41 H64 0.930 . S
C42 C41 1.384 . S
C42 C43 1.377 . S
C42 C45 1.481 . S
C43 C42 1.377 . S
C43 C44 1.389 . S
C43 H65 0.929 1_655 S
C44 C40 1.397 . S
C44 C43 1.389 . S
C44 H66 0.931 1_655 S
C45 C42 1.481 . S
C45 C46 1.387 . S
C45 C50 1.390 . S
C46 C45 1.387 . S
C46 C47 1.401 . S
C46 H67 0.930 . S
C47 C46 1.401 . S
C47 C48 1.376 . S
C47 C56 1.511 . S
C48 C47 1.376 . S
C48 C49 1.392 . S
C48 H69 0.931 . S
C49 C48 1.392 . S
C49 C50 1.361 . S
C49 C51 1.500 . S
C50 C45 1.390 . S
C50 C49 1.361 . S
C50 H68 0.931 . S
C51 C49 1.500 . S
C51 C52 1.371 . S
C51 C53 1.365 . S
C52 C51 1.371 . S
C52 C62 1.386 . S
C52 H70 0.931 . S
C53 C51 1.365 . S
C53 C54 1.409 . S
C53 H71 0.929 . S
C54 C53 1.409 . S
C54 C55 1.380 . S
C54 H72 0.930 . S
C55 C54 1.380 . S
C55 C62 1.357 . S
C56 C47 1.511 . S
C56 C57 1.341 . S
C56 C58 1.371 . S
C57 C56 1.341 . S
C57 C61 1.394 . S
C57 H73 0.930 . S
C58 C56 1.371 . S
C58 C59 1.392 . S
C58 H74 0.931 . S
C59 C58 1.392 . S
C59 C60 1.331 . S
C59 H77 0.932 . S
C60 C59 1.331 . S
C60 C61 1.336 . S
C61 C57 1.394 . S
C61 C60 1.336 . S
C61 H76 0.929 . S
C62 C52 1.386 . S
C62 C55 1.357 . S
C62 H75 0.928 . S
H63 C39 0.931 . S
H64 C41 0.930 . S
H65 C43 0.929 1_455 S
H66 C44 0.931 1_455 S
H67 C46 0.930 . S
H68 C50 0.931 . S
H69 C48 0.931 . S
H70 C52 0.931 . S
H71 C53 0.929 . S
H72 C54 0.930 . S
H73 C57 0.930 . S
H74 C58 0.931 . S
H75 C62 0.928 . S
H76 C61 0.929 . S
H77 C59 0.932 . S
C78 C79 1.386 . S
C78 C80 1.397 . S
C78 H102 0.931 . S
C79 C78 1.386 . S
C79 C83 1.397 . S
C80 C78 1.397 . S
C80 C81 1.384 . S
C80 H103 0.930 . S
C81 C80 1.384 . S
C81 C82 1.377 . S
C81 C84 1.481 . S
C82 C81 1.377 . S
C82 C83 1.389 . S
C82 H104 0.929 1_565 S
C83 C79 1.397 . S
C83 C82 1.389 . S
C83 H105 0.931 1_565 S
C84 C81 1.481 . S
C84 C85 1.387 . S
C84 C89 1.390 . S
C85 C84 1.387 . S
C85 C86 1.401 . S
C85 H106 0.930 . S
C86 C85 1.401 . S
C86 C87 1.376 . S
C86 C95 1.511 . S
C87 C86 1.376 . S
C87 C88 1.392 . S
C87 H108 0.931 . S
C88 C87 1.392 . S
C88 C89 1.361 . S
C88 C90 1.500 . S
C89 C84 1.390 . S
C89 C88 1.361 . S
C89 H107 0.931 . S
C90 C88 1.500 . S
C90 C91 1.371 . S
C90 C92 1.365 . S
C91 C90 1.371 . S
C91 C101 1.386 . S
C91 H109 0.931 . S
C92 C90 1.365 . S
C92 C93 1.409 . S
C92 H110 0.929 . S
C93 C92 1.409 . S
C93 C94 1.380 . S
C93 H111 0.930 . S
C94 C93 1.380 . S
C94 C101 1.357 . S
C95 C86 1.511 . S
C95 C96 1.341 . S
C95 C97 1.371 . S
C96 C95 1.341 . S
C96 C100 1.394 . S
C96 H112 0.930 . S
C97 C95 1.371 . S
C97 C98 1.392 . S
C97 H113 0.931 . S
C98 C97 1.392 . S
C98 C99 1.331 . S
C98 H116 0.932 . S
C99 C98 1.331 . S
C99 C100 1.336 . S
C100 C96 1.394 . S
C100 C99 1.336 . S
C100 H115 0.929 . S
C101 C91 1.386 . S
C101 C94 1.357 . S
C101 H114 0.928 . S
H102 C78 0.931 . S
H103 C80 0.930 . S
H104 C82 0.929 1_545 S
H105 C83 0.931 1_545 S
H106 C85 0.930 . S
H107 C89 0.931 . S
H108 C87 0.931 . S
H109 C91 0.931 . S
H110 C92 0.929 . S
H111 C93 0.930 . S
H112 C96 0.930 . S
H113 C97 0.931 . S
H114 C101 0.928 . S
H115 C100 0.929 . S
H116 C98 0.932 . S
C117 C118 1.386 . S
C117 C119 1.397 . S
C117 H141 0.931 . S
C118 C117 1.386 . S
C118 C122 1.397 . S
C119 C117 1.397 . S
C119 C120 1.384 . S
C119 H142 0.930 . S
C120 C119 1.384 . S
C120 C121 1.377 . S
C120 C123 1.481 . S
C121 C120 1.377 . S
C121 C122 1.389 . S
C121 H143 0.929 . S
C122 C118 1.397 . S
C122 C121 1.389 . S
C122 H144 0.931 . S
C123 C120 1.481 . S
C123 C124 1.387 . S
C123 C128 1.390 . S
C124 C123 1.387 . S
C124 C125 1.401 . S
C124 H145 0.930 . S
C125 C124 1.401 . S
C125 C126 1.376 . S
C125 C134 1.511 . S
C126 C125 1.376 . S
C126 C127 1.392 . S
C126 H147 0.931 . S
C127 C126 1.392 . S
C127 C128 1.361 . S
C127 C129 1.500 . S
C128 C123 1.390 . S
C128 C127 1.361 . S
C128 H146 0.931 . S
C129 C127 1.500 . S
C129 C130 1.371 . S
C129 C131 1.365 . S
C130 C129 1.371 . S
C130 C140 1.386 . S
C130 H148 0.931 . S
C131 C129 1.365 . S
C131 C132 1.409 . S
C131 H149 0.929 . S
C132 C131 1.409 . S
C132 C133 1.380 . S
C132 H150 0.930 . S
C133 C132 1.380 . S
C133 C140 1.357 . S
C134 C125 1.511 . S
C134 C135 1.341 . S
C134 C136 1.371 . S
C135 C134 1.341 . S
C135 C139 1.394 . S
C135 H151 0.930 . S
C136 C134 1.371 . S
C136 C137 1.392 . S
C136 H152 0.931 . S
C137 C136 1.392 . S
C137 C138 1.331 . S
C137 H155 0.932 . S
C138 C137 1.331 . S
C138 C139 1.336 . S
C139 C135 1.394 . S
C139 C138 1.336 . S
C139 H154 0.929 . S
C140 C130 1.386 . S
C140 C133 1.357 . S
C140 H153 0.928 . S
H141 C117 0.931 . S
H142 C119 0.930 . S
H143 C121 0.929 . S
H144 C122 0.931 . S
H145 C124 0.930 . S
H146 C128 0.931 . S
H147 C126 0.931 . S
H148 C130 0.931 . S
H149 C131 0.929 . S
H150 C132 0.930 . S
H151 C135 0.930 . S
H152 C136 0.931 . S
H153 C140 0.928 . S
H154 C139 0.929 . S
H155 C137 0.932 . S
C156 C157 1.386 . S
C156 C158 1.397 . S
C156 H180 0.931 . S
C157 C156 1.386 . S
C157 C161 1.397 . S
C158 C156 1.397 . S
C158 C159 1.384 . S
C158 H181 0.930 . S
C159 C158 1.384 . S
C159 C160 1.377 . S
C159 C162 1.481 . S
C160 C159 1.377 . S
C160 C161 1.389 . S
C160 H182 0.929 . S
C161 C157 1.397 . S
C161 C160 1.389 . S
C161 H183 0.931 . S
C162 C159 1.481 . S
C162 C163 1.387 . S
C162 C167 1.390 . S
C163 C162 1.387 . S
C163 C164 1.401 . S
C163 H184 0.930 . S
C164 C163 1.401 . S
C164 C165 1.376 1_554 S
C164 C173 1.511 . S
C165 C164 1.376 1_556 S
C165 C166 1.392 . S
C165 H186 0.931 . S
C166 C165 1.392 . S
C166 C167 1.361 1_556 S
C166 C168 1.500 . S
C167 C162 1.390 . S
C167 C166 1.361 1_554 S
C167 H185 0.931 . S
C168 C166 1.500 . S
C168 C169 1.371 . S
C168 C170 1.365 . S
C169 C168 1.371 . S
C169 C179 1.386 . S
C169 H187 0.931 . S
C170 C168 1.365 . S
C170 C171 1.409 . S
C170 H188 0.929 . S
C171 C170 1.409 . S
C171 C172 1.380 . S
C171 H189 0.930 . S
C172 C171 1.380 . S
C172 C179 1.357 . S
C173 C164 1.511 . S
C173 C174 1.341 . S
C173 C175 1.371 . S
C174 C173 1.341 . S
C174 C178 1.394 . S
C174 H190 0.930 . S
C175 C173 1.371 . S
C175 C176 1.392 . S
C175 H191 0.931 1_554 S
C176 C175 1.392 . S
C176 C177 1.331 . S
C176 H194 0.932 . S
C177 C176 1.331 . S
C177 C178 1.336 . S
C178 C174 1.394 . S
C178 C177 1.336 . S
C178 H193 0.929 . S
C179 C169 1.386 . S
C179 C172 1.357 . S
C179 H192 0.928 . S
H180 C156 0.931 . S
H181 C158 0.930 . S
H182 C160 0.929 . S
H183 C161 0.931 . S
H184 C163 0.930 . S
H185 C167 0.931 . S
H186 C165 0.931 . S
H187 C169 0.931 . S
H188 C170 0.929 . S
H189 C171 0.930 . S
H190 C174 0.930 . S
H191 C175 0.931 1_556 S
H192 C179 0.928 . S
H193 C178 0.929 . S
H194 C176 0.932 . S
C195 C196 1.386 . S
C195 C197 1.397 . S
C195 H219 0.931 . S
C196 C195 1.386 . S
C196 C200 1.397 . S
C197 C195 1.397 . S
C197 C198 1.384 . S
C197 H220 0.930 . S
C198 C197 1.384 . S
C198 C199 1.377 . S
C198 C201 1.481 . S
C199 C198 1.377 . S
C199 C200 1.389 . S
C199 H221 0.929 . S
C200 C196 1.397 . S
C200 C199 1.389 . S
C200 H222 0.931 . S
C201 C198 1.481 . S
C201 C202 1.387 . S
C201 C206 1.390 . S
C202 C201 1.387 . S
C202 C203 1.401 . S
C202 H223 0.930 . S
C203 C202 1.401 . S
C203 C204 1.376 1_554 S
C203 C212 1.511 . S
C204 C203 1.376 1_556 S
C204 C205 1.392 . S
C204 H225 0.931 . S
C205 C204 1.392 . S
C205 C206 1.361 1_556 S
C205 C207 1.500 . S
C206 C201 1.390 . S
C206 C205 1.361 1_554 S
C206 H224 0.931 . S
C207 C205 1.500 . S
C207 C208 1.371 . S
C207 C209 1.365 . S
C208 C207 1.371 . S
C208 C218 1.386 . S
C208 H226 0.931 . S
C209 C207 1.365 . S
C209 C210 1.409 . S
C209 H227 0.929 . S
C210 C209 1.409 . S
C210 C211 1.380 . S
C210 H228 0.930 . S
C211 C210 1.380 . S
C211 C218 1.357 . S
C212 C203 1.511 . S
C212 C213 1.341 . S
C212 C214 1.371 . S
C213 C212 1.341 . S
C213 C217 1.394 . S
C213 H229 0.930 . S
C214 C212 1.371 . S
C214 C215 1.392 . S
C214 H230 0.931 1_554 S
C215 C214 1.392 . S
C215 C216 1.331 . S
C215 H233 0.932 . S
C216 C215 1.331 . S
C216 C217 1.336 . S
C217 C213 1.394 . S
C217 C216 1.336 . S
C217 H232 0.929 . S
C218 C208 1.386 . S
C218 C211 1.357 . S
C218 H231 0.928 . S
H219 C195 0.931 . S
H220 C197 0.930 . S
H221 C199 0.929 . S
H222 C200 0.931 . S
H223 C202 0.930 . S
H224 C206 0.931 . S
H225 C204 0.931 . S
H226 C208 0.931 . S
H227 C209 0.929 . S
H228 C210 0.930 . S
H229 C213 0.930 . S
H230 C214 0.931 1_556 S
H231 C218 0.928 . S
H232 C217 0.929 . S
H233 C215 0.932 . S
C234 C235 1.386 . S
C234 C236 1.397 . S
C234 H258 0.931 . S
C235 C234 1.386 . S
C235 C239 1.397 . S
C236 C234 1.397 . S
C236 C237 1.384 . S
C236 H259 0.930 . S
C237 C236 1.384 . S
C237 C238 1.377 . S
C237 C240 1.481 . S
C238 C237 1.377 . S
C238 C239 1.389 . S
C238 H260 0.929 . S
C239 C235 1.397 . S
C239 C238 1.389 . S
C239 H261 0.931 . S
C240 C237 1.481 . S
C240 C241 1.387 . S
C240 C245 1.390 . S
C241 C240 1.387 . S
C241 C242 1.401 . S
C241 H262 0.930 . S
C242 C241 1.401 . S
C242 C243 1.376 1_554 S
C242 C251 1.511 . S
C243 C242 1.376 1_556 S
C243 C244 1.392 . S
C243 H264 0.931 . S
C244 C243 1.392 . S
C244 C245 1.361 1_556 S
C244 C246 1.500 . S
C245 C240 1.390 . S
C245 C244 1.361 1_554 S
C245 H263 0.931 . S
C246 C244 1.500 . S
C246 C247 1.371 . S
C246 C248 1.365 . S
C247 C246 1.371 . S
C247 C257 1.386 . S
C247 H265 0.931 . S
C248 C246 1.365 . S
C248 C249 1.409 . S
C248 H266 0.929 . S
C249 C248 1.409 . S
C249 C250 1.380 . S
C249 H267 0.930 . S
C250 C249 1.380 . S
C250 C257 1.357 . S
C251 C242 1.511 . S
C251 C252 1.341 . S
C251 C253 1.371 . S
C252 C251 1.341 . S
C252 C256 1.394 . S
C252 H268 0.930 . S
C253 C251 1.371 . S
C253 C254 1.392 . S
C253 H269 0.931 1_554 S
C254 C253 1.392 . S
C254 C255 1.331 . S
C254 H272 0.932 . S
C255 C254 1.331 . S
C255 C256 1.336 . S
C256 C252 1.394 . S
C256 C255 1.336 . S
C256 H271 0.929 . S
C257 C247 1.386 . S
C257 C250 1.357 . S
C257 H270 0.928 . S
H258 C234 0.931 . S
H259 C236 0.930 . S
H260 C238 0.929 . S
H261 C239 0.931 . S
H262 C241 0.930 . S
H263 C245 0.931 . S
H264 C243 0.931 . S
H265 C247 0.931 . S
H266 C248 0.929 . S
H267 C249 0.930 . S
H268 C252 0.930 . S
H269 C253 0.931 1_556 S
H270 C257 0.928 . S
H271 C256 0.929 . S
H272 C254 0.932 . S
C273 C274 1.386 . S
C273 C275 1.397 . S
C273 H297 0.931 . S
C274 C273 1.386 . S
C274 C278 1.397 . S
C275 C273 1.397 . S
C275 C276 1.384 . S
C275 H298 0.930 . S
C276 C275 1.384 . S
C276 C277 1.377 . S
C276 C279 1.481 . S
C277 C276 1.377 . S
C277 C278 1.389 . S
C277 H299 0.929 . S
C278 C274 1.397 . S
C278 C277 1.389 . S
C278 H300 0.931 . S
C279 C276 1.481 . S
C279 C280 1.387 . S
C279 C284 1.390 1_556 S
C280 C279 1.387 . S
C280 C281 1.401 1_556 S
C280 H301 0.930 . S
C281 C280 1.401 1_554 S
C281 C282 1.376 . S
C281 C290 1.511 . S
C282 C281 1.376 . S
C282 C283 1.392 . S
C282 H303 0.931 . S
C283 C282 1.392 . S
C283 C284 1.361 . S
C283 C285 1.500 . S
C284 C279 1.390 1_554 S
C284 C283 1.361 . S
C284 H302 0.931 . S
C285 C283 1.500 . S
C285 C286 1.371 . S
C285 C287 1.365 . S
C286 C285 1.371 . S
C286 C296 1.386 . S
C286 H304 0.931 . S
C287 C285 1.365 . S
C287 C288 1.409 . S
C287 H305 0.929 . S
C288 C287 1.409 . S
C288 C289 1.380 . S
C288 H306 0.930 . S
C289 C288 1.380 . S
C289 C296 1.357 . S
C290 C281 1.511 . S
C290 C291 1.341 . S
C290 C292 1.371 . S
C291 C290 1.341 . S
C291 C295 1.394 . S
C291 H307 0.930 1_554 S
C292 C290 1.371 . S
C292 C293 1.392 . S
C292 H308 0.931 . S
C293 C292 1.392 . S
C293 C294 1.331 . S
C293 H311 0.932 . S
C294 C293 1.331 . S
C294 C295 1.336 . S
C295 C291 1.394 . S
C295 C294 1.336 . S
C295 H310 0.929 . S
C296 C286 1.386 . S
C296 C289 1.357 . S
C296 H309 0.928 . S
H297 C273 0.931 . S
H298 C275 0.930 . S
H299 C277 0.929 . S
H300 C278 0.931 . S
H301 C280 0.930 . S
H302 C284 0.931 . S
H303 C282 0.931 . S
H304 C286 0.931 . S
H305 C287 0.929 . S
H306 C288 0.930 . S
H307 C291 0.930 1_556 S
H308 C292 0.931 . S
H309 C296 0.928 . S
H310 C295 0.929 . S
H311 C293 0.932 . S
C312 C314 1.422 . S
C312 C316 1.415 . S
C312 N318 1.369 . S
C313 C314 1.421 . S
C313 C315 1.417 1_556 S
C313 C325 1.422 1_556 S
C314 C312 1.422 . S
C314 C313 1.421 . S
C314 N324 1.359 . S
C315 C313 1.417 1_554 S
C315 C317 1.329 1_554 S
C315 H334 0.930 . S
C316 C312 1.415 . S
C316 C317 1.437 . S
C316 C320 1.413 . S
C317 C315 1.329 1_556 S
C317 C316 1.437 . S
C317 H339 0.929 . S
N318 C312 1.369 . S
N318 C319 1.338 1_545 S
N318 Gd323 2.622 1_545 S
C319 N318 1.338 1_565 S
C319 C321 1.378 1_565 S
C319 H331 0.929 . S
C320 C316 1.413 . S
C320 C321 1.348 . S
C320 H336 0.931 . S
C321 C319 1.378 1_545 S
C321 C320 1.348 . S
C321 H337 0.930 . S
Gd322 N342 2.622 . S
Gd322 N349 2.570 . S
Gd322 O356 2.353 1_655 S
Gd322 O357 2.468 . S
Gd322 O358 2.427 . S
Gd322 O360 2.388 . S
Gd322 O361 2.386 1_545 S
Gd322 O365 2.307 1_655 S
Gd322 C375 2.805 . S
Gd323 N318 2.622 1_565 S
Gd323 N324 2.570 1_565 S
Gd323 O355 2.386 1_565 S
Gd323 O359 2.305 1_465 S
Gd323 O362 2.353 . S
Gd323 O363 2.468 . S
Gd323 O364 2.427 . S
Gd323 O366 2.388 . S
Gd323 C387 2.805 . S
N324 C314 1.359 . S
N324 Gd323 2.570 1_545 S
N324 C326 1.343 . S
C325 C313 1.422 1_554 S
C325 C327 1.321 . S
C325 H333 0.931 . S
C326 N324 1.343 . S
C326 C327 1.390 1_556 S
C326 H328 0.931 . S
C327 C325 1.321 . S
C327 C326 1.390 1_554 S
C327 H329 0.930 . S
H328 C326 0.931 . S
H329 C327 0.930 . S
H330 C353 0.931 1_455 S
H331 C319 0.929 . S
H332 C354 0.930 1_455 S
H333 C325 0.931 . S
H334 C315 0.930 . S
H335 C344 0.929 . S
H336 C320 0.931 . S
H337 C321 0.930 . S
H338 C376 0.930 . S
H339 C317 0.929 . S
H340 C345 0.931 . S
H341 C346 0.930 . S
N342 Gd322 2.622 . S
N342 C343 1.361 1_545 S
N342 C344 1.338 . S
C343 N342 1.361 1_565 S
C343 C347 1.422 . S
C343 C350 1.424 . S
C344 H335 0.929 . S
C344 N342 1.338 . S
C344 C346 1.378 . S
C345 H340 0.931 . S
C345 C346 1.348 1_565 S
C345 C347 1.413 . S
C346 H341 0.930 . S
C346 C344 1.378 . S
C346 C345 1.348 1_545 S
C347 C343 1.422 . S
C347 C345 1.413 . S
C347 C377 1.437 . S
H348 C377 0.929 . S
N349 Gd322 2.570 . S
N349 C350 1.359 1_545 S
N349 C353 1.343 . S
C350 C343 1.424 . S
C350 N349 1.359 1_565 S
C350 C352 1.421 . S
C351 C352 1.422 . S
C351 C354 1.321 . S
C351 H378 0.931 . S
C352 C350 1.421 . S
C352 C351 1.422 . S
C352 C376 1.417 . S
C353 H330 0.931 1_655 S
C353 N349 1.343 . S
C353 C354 1.390 1_545 S
C354 H332 0.930 1_655 S
C354 C351 1.321 . S
C354 C353 1.390 1_565 S
O355 Gd323 2.386 1_545 S
O355 C367 1.265 . S
O356 Gd322 2.353 1_455 S
O356 C367 1.242 . S
O357 Gd322 2.468 . S
O357 C375 1.263 . S
O358 Gd322 2.427 . S
O358 C375 1.252 . S
O359 Gd323 2.305 1_645 S
O359 C368 1.263 . S
O360 Gd322 2.388 . S
O360 C368 1.252 . S
O361 Gd322 2.386 1_565 S
O361 C379 1.265 . S
O362 Gd323 2.353 . S
O362 C379 1.242 1_455 S
O363 Gd323 2.468 . S
O363 C387 1.263 . S
O364 Gd323 2.427 . S
O364 C387 1.252 . S
O365 Gd322 2.307 1_455 S
O365 C380 1.261 . S
O366 Gd323 2.388 . S
O366 C380 1.252 1_565 S
C367 O355 1.265 . S
C367 O356 1.242 . S
C368 O359 1.263 . S
C368 O360 1.252 . S
C369 C372 1.394 . S
C369 C374 1.370 . S
C369 C375 1.500 . S
C370 C373 1.383 . S
C370 C374 1.395 . S
C371 C372 1.396 . S
C371 C373 1.365 . S
C371 H388 0.929 . S
C372 C369 1.394 . S
C372 C371 1.396 . S
C372 H389 0.930 . S
C373 C370 1.383 . S
C373 C371 1.365 . S
C373 H390 0.931 . S
C374 C369 1.370 . S
C374 C370 1.395 . S
C374 H391 0.930 1_655 S
C375 Gd322 2.805 . S
C375 O357 1.263 . S
C375 O358 1.252 . S
C375 C369 1.500 . S
C376 H338 0.930 . S
C376 C352 1.417 . S
C376 C377 1.329 . S
C377 C347 1.437 . S
C377 H348 0.929 . S
C377 C376 1.329 . S
H378 C351 0.931 . S
C379 O361 1.265 . S
C379 O362 1.242 1_655 S
C380 O365 1.261 . S
C380 O366 1.252 1_545 S
C381 C384 1.394 . S
C381 C386 1.370 . S
C381 C387 1.500 . S
C382 C385 1.383 . S
C382 C386 1.395 . S
C383 C384 1.396 . S
C383 C385 1.365 . S
C383 H392 0.929 . S
C384 C381 1.394 . S
C384 C383 1.396 . S
C384 H393 0.930 . S
C385 C382 1.383 . S
C385 C383 1.365 . S
C385 H394 0.931 . S
C386 C381 1.370 . S
C386 C382 1.395 . S
C386 H395 0.930 . S
C387 Gd323 2.805 . S
C387 O363 1.263 . S
C387 O364 1.252 . S
C387 C381 1.500 . S
H388 C371 0.929 . S
H389 C372 0.930 . S
H390 C373 0.931 . S
H391 C374 0.930 1_455 S
H392 C383 0.929 . S
H393 C384 0.930 . S
H394 C385 0.931 . S
H395 C386 0.930 . S
C396 C398 1.422 . S
C396 C400 1.415 . S
C396 N402 1.369 . S
C397 C398 1.421 . S
C397 C399 1.417 . S
C397 C409 1.422 . S
C398 C396 1.422 . S
C398 C397 1.421 . S
C398 N408 1.359 . S
C399 C397 1.417 . S
C399 C401 1.329 . S
C399 H418 0.930 . S
C400 C396 1.415 . S
C400 C401 1.437 . S
C400 C404 1.413 . S
C401 C399 1.329 . S
C401 C400 1.437 . S
C401 H423 0.929 . S
N402 C396 1.369 . S
N402 C403 1.338 . S
N402 Gd407 2.622 . S
C403 N402 1.338 . S
C403 C405 1.378 . S
C403 H415 0.929 . S
C404 C400 1.413 . S
C404 C405 1.348 . S
C404 H420 0.931 . S
C405 C403 1.378 . S
C405 C404 1.348 . S
C405 H421 0.930 . S
Gd406 N426 2.622 . S
Gd406 N433 2.570 . S
Gd406 O440 2.353 1_545 S
Gd406 O441 2.468 . S
Gd406 O442 2.427 . S
Gd406 O444 2.388 . S
Gd406 O445 2.386 . S
Gd406 O449 2.307 . S
Gd406 C459 2.805 . S
Gd407 N402 2.622 . S
Gd407 N408 2.570 . S
Gd407 O439 2.386 . S
Gd407 O443 2.307 1_565 S
Gd407 O446 2.353 1_565 S
Gd407 O447 2.468 . S
Gd407 O448 2.427 . S
Gd407 O450 2.388 . S
Gd407 C471 2.805 . S
N408 C398 1.359 . S
N408 Gd407 2.570 . S
N408 C410 1.343 . S
C409 C397 1.422 . S
C409 C411 1.321 . S
C409 H417 0.931 . S
C410 N408 1.343 . S
C410 C411 1.390 . S
C410 H412 0.931 . S
C411 C409 1.321 . S
C411 C410 1.390 . S
C411 H413 0.930 . S
H412 C410 0.931 . S
H413 C411 0.930 . S
H414 C437 0.931 . S
H415 C403 0.929 . S
H416 C438 0.930 . S
H417 C409 0.931 . S
H418 C399 0.930 . S
H419 C428 0.929 . S
H420 C404 0.931 . S
H421 C405 0.930 . S
H422 C460 0.930 . S
H423 C401 0.929 . S
H424 C429 0.931 . S
H425 C430 0.930 . S
N426 Gd406 2.622 . S
N426 C427 1.369 . S
N426 C428 1.338 . S
C427 N426 1.369 . S
C427 C431 1.415 . S
C427 C434 1.422 . S
C428 H419 0.929 . S
C428 N426 1.338 . S
C428 C430 1.378 . S
C429 H424 0.931 . S
C429 C430 1.348 . S
C429 C431 1.413 . S
C430 H425 0.930 . S
C430 C428 1.378 . S
C430 C429 1.348 . S
C431 C427 1.415 . S
C431 C429 1.413 . S
C431 C461 1.437 . S
H432 C461 0.929 . S
N433 Gd406 2.570 . S
N433 C434 1.359 . S
N433 C437 1.343 . S
C434 C427 1.422 . S
C434 N433 1.359 . S
C434 C436 1.421 . S
C435 C436 1.422 . S
C435 C438 1.321 . S
C435 H462 0.931 . S
C436 C434 1.421 . S
C436 C435 1.422 . S
C436 C460 1.417 . S
C437 H414 0.931 . S
C437 N433 1.343 . S
C437 C438 1.390 . S
C438 H416 0.930 . S
C438 C435 1.321 . S
C438 C437 1.390 . S
O439 Gd407 2.386 . S
O439 C451 1.265 . S
O440 Gd406 2.353 1_565 S
O440 C451 1.242 . S
O441 Gd406 2.468 . S
O441 C459 1.263 . S
O442 Gd406 2.427 . S
O442 C459 1.252 . S
O443 Gd407 2.307 1_545 S
O443 C452 1.261 . S
O444 Gd406 2.388 . S
O444 C452 1.252 . S
O445 Gd406 2.386 . S
O445 C463 1.265 . S
O446 Gd407 2.353 1_545 S
O446 C463 1.242 . S
O447 Gd407 2.468 . S
O447 C471 1.263 . S
O448 Gd407 2.427 . S
O448 C471 1.252 . S
O449 Gd406 2.307 . S
O449 C464 1.261 1_545 S
O450 Gd407 2.388 . S
O450 C464 1.252 . S
C451 O439 1.265 . S
C451 O440 1.242 . S
C452 O443 1.261 . S
C452 O444 1.252 . S
C453 C456 1.394 1_556 S
C453 C458 1.370 . S
C453 C459 1.500 . S
C454 C457 1.383 1_556 S
C454 C458 1.395 . S
C455 C456 1.396 . S
C455 C457 1.365 . S
C455 H472 0.929 . S
C456 C453 1.394 1_554 S
C456 C455 1.396 . S
C456 H473 0.930 . S
C457 C454 1.383 1_554 S
C457 C455 1.365 . S
C457 H474 0.931 . S
C458 C453 1.370 . S
C458 C454 1.395 . S
C458 H475 0.930 . S
C459 Gd406 2.805 . S
C459 O441 1.263 . S
C459 O442 1.252 . S
C459 C453 1.500 . S
C460 H422 0.930 . S
C460 C436 1.417 . S
C460 C461 1.329 . S
C461 C431 1.437 . S
C461 H432 0.929 . S
C461 C460 1.329 . S
H462 C435 0.931 . S
C463 O445 1.265 . S
C463 O446 1.242 . S
C464 O449 1.261 1_565 S
C464 O450 1.252 . S
C465 C468 1.394 . S
C465 C470 1.370 . S
C465 C471 1.500 . S
C466 C469 1.383 . S
C466 C470 1.395 . S
C467 C468 1.396 . S
C467 C469 1.365 . S
C467 H476 0.929 . S
C468 C465 1.394 . S
C468 C467 1.396 . S
C468 H477 0.930 . S
C469 C466 1.383 . S
C469 C467 1.365 . S
C469 H478 0.931 . S
C470 C465 1.370 . S
C470 C466 1.395 . S
C470 H479 0.930 . S
C471 Gd407 2.805 . S
C471 O447 1.263 . S
C471 O448 1.252 . S
C471 C465 1.500 . S
H472 C455 0.929 . S
H473 C456 0.930 . S
H474 C457 0.931 . S
H475 C458 0.930 . S
H476 C467 0.929 . S
H477 C468 0.930 . S
H478 C469 0.931 . S
H479 C470 0.930 . S
C480 C482 1.422 . S
C480 C484 1.415 . S
C480 N486 1.369 . S
C481 C482 1.421 . S
C481 C483 1.417 1_556 S
C481 C493 1.422 1_556 S
C482 C480 1.422 . S
C482 C481 1.421 . S
C482 N492 1.359 . S
C483 C481 1.417 1_554 S
C483 C485 1.329 1_554 S
C483 H502 0.930 . S
C484 C480 1.415 . S
C484 C485 1.437 . S
C484 C488 1.413 . S
C485 C483 1.329 1_556 S
C485 C484 1.437 . S
C485 H507 0.929 . S
N486 C480 1.369 . S
N486 C487 1.338 . S
N486 Gd491 2.622 . S
C487 N486 1.338 . S
C487 C489 1.378 . S
C487 H499 0.929 . S
C488 C484 1.413 . S
C488 C489 1.348 . S
C488 H504 0.931 . S
C489 C487 1.378 . S
C489 C488 1.348 . S
C489 H505 0.930 . S
Gd490 N510 2.622 . S
Gd490 N517 2.570 . S
Gd490 O524 2.353 . S
Gd490 O525 2.468 . S
Gd490 O526 2.427 . S
Gd490 O528 2.388 . S
Gd490 O529 2.386 . S
Gd490 O533 2.307 . S
Gd490 C543 2.805 . S
Gd491 N486 2.622 . S
Gd491 N492 2.570 . S
Gd491 O523 2.386 . S
Gd491 O527 2.307 . S
Gd491 O530 2.353 . S
Gd491 O531 2.468 . S
Gd491 O532 2.427 . S
Gd491 O534 2.388 . S
Gd491 C555 2.805 . S
N492 C482 1.359 . S
N492 Gd491 2.570 . S
N492 C494 1.343 . S
C493 C481 1.422 1_554 S
C493 C495 1.321 . S
C493 H501 0.931 . S
C494 N492 1.343 . S
C494 C495 1.390 1_556 S
C494 H496 0.931 . S
C495 C493 1.321 . S
C495 C494 1.390 1_554 S
C495 H497 0.930 . S
H496 C494 0.931 . S
H497 C495 0.930 . S
H498 C521 0.931 . S
H499 C487 0.929 . S
H500 C522 0.930 . S
H501 C493 0.931 . S
H502 C483 0.930 . S
H503 C512 0.929 . S
H504 C488 0.931 . S
H505 C489 0.930 . S
H506 C544 0.930 . S
H507 C485 0.929 . S
H508 C513 0.931 . S
H509 C514 0.930 . S
N510 Gd490 2.622 . S
N510 C511 1.369 . S
N510 C512 1.338 . S
C511 N510 1.369 . S
C511 C515 1.415 . S
C511 C518 1.422 . S
C512 H503 0.929 . S
C512 N510 1.338 . S
C512 C514 1.378 . S
C513 H508 0.931 . S
C513 C514 1.348 . S
C513 C515 1.413 . S
C514 H509 0.930 . S
C514 C512 1.378 . S
C514 C513 1.348 . S
C515 C511 1.415 . S
C515 C513 1.413 . S
C515 C545 1.437 . S
H516 C545 0.929 . S
N517 Gd490 2.570 . S
N517 C518 1.359 . S
N517 C521 1.343 . S
C518 C511 1.422 . S
C518 N517 1.359 . S
C518 C520 1.421 . S
C519 C520 1.422 . S
C519 C522 1.321 . S
C519 H546 0.931 . S
C520 C518 1.421 . S
C520 C519 1.422 . S
C520 C544 1.417 . S
C521 H498 0.931 . S
C521 N517 1.343 . S
C521 C522 1.390 . S
C522 H500 0.930 . S
C522 C519 1.321 . S
C522 C521 1.390 . S
O523 Gd491 2.386 . S
O523 C535 1.265 . S
O524 Gd490 2.353 . S
O524 C535 1.242 . S
O525 Gd490 2.468 . S
O525 C543 1.263 . S
O526 Gd490 2.427 . S
O526 C543 1.252 . S
O527 Gd491 2.307 . S
O527 C536 1.261 . S
O528 Gd490 2.388 . S
O528 C536 1.252 . S
O529 Gd490 2.386 . S
O529 C547 1.265 . S
O530 Gd491 2.353 . S
O530 C547 1.242 . S
O531 Gd491 2.468 . S
O531 C555 1.263 . S
O532 Gd491 2.427 . S
O532 C555 1.252 . S
O533 Gd490 2.307 . S
O533 C548 1.261 . S
O534 Gd491 2.388 . S
O534 C548 1.252 . S
C535 O523 1.265 . S
C535 O524 1.242 . S
C536 O527 1.261 . S
C536 O528 1.252 . S
C537 C540 1.394 . S
C537 C542 1.370 . S
C537 C543 1.500 . S
C538 C541 1.383 . S
C538 C542 1.395 . S
C539 C540 1.396 . S
C539 C541 1.365 . S
C539 H556 0.929 . S
C540 C537 1.394 . S
C540 C539 1.396 . S
C540 H557 0.930 . S
C541 C538 1.383 . S
C541 C539 1.365 . S
C541 H558 0.931 . S
C542 C537 1.370 . S
C542 C538 1.395 . S
C542 H559 0.930 . S
C543 Gd490 2.805 . S
C543 O525 1.263 . S
C543 O526 1.252 . S
C543 C537 1.500 . S
C544 H506 0.930 . S
C544 C520 1.417 . S
C544 C545 1.329 . S
C545 C515 1.437 . S
C545 H516 0.929 . S
C545 C544 1.329 . S
H546 C519 0.931 . S
C547 O529 1.265 . S
C547 O530 1.242 . S
C548 O533 1.261 . S
C548 O534 1.252 . S
C549 C552 1.394 . S
C549 C554 1.370 . S
C549 C555 1.500 . S
C550 C553 1.383 . S
C550 C554 1.395 . S
C551 C552 1.396 . S
C551 C553 1.365 . S
C551 H560 0.929 . S
C552 C549 1.394 . S
C552 C551 1.396 . S
C552 H561 0.930 . S
C553 C550 1.383 . S
C553 C551 1.365 . S
C553 H562 0.931 . S
C554 C549 1.370 . S
C554 C550 1.395 . S
C554 H563 0.930 . S
C555 Gd491 2.805 . S
C555 O531 1.263 . S
C555 O532 1.252 . S
C555 C549 1.500 . S
H556 C539 0.929 . S
H557 C540 0.930 . S
H558 C541 0.931 . S
H559 C542 0.930 . S
H560 C551 0.929 . S
H561 C552 0.930 . S
H562 C553 0.931 . S
H563 C554 0.930 . S
C564 C566 1.422 . S
C564 C568 1.415 . S
C564 N570 1.369 1_455 S
C565 C566 1.421 . S
C565 C567 1.417 1_556 S
C565 C577 1.422 1_556 S
C566 C564 1.422 . S
C566 C565 1.421 . S
C566 N576 1.359 . S
C567 C565 1.417 1_554 S
C567 C569 1.329 1_554 S
C567 H586 0.930 . S
C568 C564 1.415 . S
C568 C569 1.437 . S
C568 C572 1.413 . S
C569 C567 1.329 1_556 S
C569 C568 1.437 . S
C569 H591 0.929 . S
N570 C564 1.369 1_655 S
N570 C571 1.338 . S
N570 Gd575 2.622 . S
C571 N570 1.338 . S
C571 C573 1.378 1_655 S
C571 H583 0.929 . S
C572 C568 1.413 . S
C572 C573 1.348 . S
C572 H588 0.931 . S
C573 C571 1.378 1_455 S
C573 C572 1.348 . S
C573 H589 0.930 . S
Gd574 N594 2.622 . S
Gd574 N601 2.570 . S
Gd574 O608 2.353 . S
Gd574 O609 2.468 . S
Gd574 O610 2.427 . S
Gd574 O612 2.388 . S
Gd574 O613 2.386 1_455 S
Gd574 O617 2.307 . S
Gd574 C627 2.805 . S
Gd575 N570 2.622 . S
Gd575 N576 2.570 1_655 S
Gd575 O607 2.386 1_655 S
Gd575 O611 2.307 . S
Gd575 O614 2.353 . S
Gd575 O615 2.468 . S
Gd575 O616 2.427 . S
Gd575 O618 2.388 . S
Gd575 C639 2.805 . S
N576 C566 1.359 . S
N576 Gd575 2.570 1_455 S
N576 C578 1.343 . S
C577 C565 1.422 1_554 S
C577 C579 1.321 . S
C577 H585 0.931 . S
C578 N576 1.343 . S
C578 C579 1.390 1_556 S
C578 H580 0.928 1_455 S
C579 C577 1.321 . S
C579 C578 1.390 1_554 S
C579 H581 0.930 . S
H580 C578 0.928 1_655 S
H581 C579 0.930 . S
H582 C605 0.931 . S
H583 C571 0.929 . S
H584 C606 0.930 . S
H585 C577 0.931 . S
H586 C567 0.930 . S
H587 C596 0.929 . S
H588 C572 0.931 . S
H589 C573 0.930 . S
H590 C628 0.930 . S
H591 C569 0.929 . S
H592 C597 0.931 . S
H593 C598 0.930 . S
N594 Gd574 2.622 . S
N594 C595 1.364 1_455 S
N594 C596 1.338 . S
C595 N594 1.364 1_655 S
C595 C599 1.419 . S
C595 C602 1.424 . S
C596 H587 0.929 . S
C596 N594 1.338 . S
C596 C598 1.378 . S
C597 H592 0.931 . S
C597 C598 1.348 1_655 S
C597 C599 1.413 . S
C598 H593 0.930 . S
C598 C596 1.378 . S
C598 C597 1.348 1_455 S
C599 C595 1.419 . S
C599 C597 1.413 . S
C599 C629 1.437 . S
H600 C629 0.929 . S
N601 Gd574 2.570 . S
N601 C602 1.359 1_455 S
N601 C605 1.343 . S
C602 C595 1.424 . S
C602 N601 1.359 1_655 S
C602 C604 1.421 . S
C603 C604 1.422 . S
C603 C606 1.321 . S
C603 H630 0.931 . S
C604 C602 1.421 . S
C604 C603 1.422 . S
C604 C628 1.417 . S
C605 H582 0.931 . S
C605 N601 1.343 . S
C605 C606 1.390 1_455 S
C606 H584 0.930 . S
C606 C603 1.321 . S
C606 C605 1.390 1_655 S
O607 Gd575 2.386 1_455 S
O607 C619 1.265 . S
O608 Gd574 2.353 . S
O608 C619 1.242 . S
O609 Gd574 2.468 . S
O609 C627 1.263 . S
O610 Gd574 2.427 . S
O610 C627 1.252 . S
O611 Gd575 2.307 . S
O611 C620 1.261 1_655 S
O612 Gd574 2.388 . S
O612 C620 1.252 . S
O613 Gd574 2.386 1_655 S
O613 C631 1.265 . S
O614 Gd575 2.353 . S
O614 C631 1.242 . S
O615 Gd575 2.468 . S
O615 C639 1.263 . S
O616 Gd575 2.427 . S
O616 C639 1.252 . S
O617 Gd574 2.307 . S
O617 C632 1.261 . S
O618 Gd575 2.388 . S
O618 C632 1.252 1_655 S
C619 O607 1.265 . S
C619 O608 1.242 . S
C620 O611 1.261 1_455 S
C620 O612 1.252 . S
C621 C624 1.394 . S
C621 C626 1.370 . S
C621 C627 1.500 . S
C622 C625 1.383 . S
C622 C626 1.395 . S
C623 C624 1.396 . S
C623 C625 1.365 . S
C623 H640 0.929 . S
C624 C621 1.394 . S
C624 C623 1.396 . S
C624 H641 0.930 . S
C625 C622 1.383 . S
C625 C623 1.365 . S
C625 H642 0.931 . S
C626 C621 1.370 . S
C626 C622 1.395 . S
C626 H643 0.930 . S
C627 Gd574 2.805 . S
C627 O609 1.263 . S
C627 O610 1.252 . S
C627 C621 1.500 . S
C628 H590 0.930 . S
C628 C604 1.417 . S
C628 C629 1.329 . S
C629 C599 1.437 . S
C629 H600 0.929 . S
C629 C628 1.329 . S
H630 C603 0.931 . S
C631 O613 1.265 . S
C631 O614 1.242 . S
C632 O617 1.261 . S
C632 O618 1.252 1_455 S
C633 C636 1.394 . S
C633 C638 1.370 . S
C633 C639 1.500 . S
C634 C637 1.383 . S
C634 C638 1.395 . S
C635 C636 1.396 . S
C635 C637 1.365 . S
C635 H644 0.929 . S
C636 C633 1.394 . S
C636 C635 1.396 . S
C636 H645 0.930 . S
C637 C634 1.383 . S
C637 C635 1.365 . S
C637 H646 0.931 . S
C638 C633 1.370 . S
C638 C634 1.395 . S
C638 H647 0.930 . S
C639 Gd575 2.805 . S
C639 O615 1.263 . S
C639 O616 1.252 . S
C639 C633 1.500 . S
H640 C623 0.929 . S
H641 C624 0.930 . S
H642 C625 0.931 . S
H643 C626 0.930 . S
H644 C635 0.929 . S
H645 C636 0.930 . S
H646 C637 0.931 . S
H647 C638 0.930 . S
C648 C649 1.369 . S
C648 C650 1.419 . S
C648 H652 0.930 . S
C649 C648 1.369 . S
C649 C658 1.429 . S
C650 C648 1.419 . S
C650 C651 1.363 . S
C650 H653 0.929 1_545 S
C651 C650 1.363 . S
C651 C657 1.428 . S
H652 C648 0.930 . S
H653 C650 0.929 1_565 S
S654 N655 1.613 . S
S654 N656 1.610 . S
N655 S654 1.613 . S
N655 C658 1.350 . S
N656 S654 1.610 . S
N656 C657 1.351 . S
C657 C651 1.428 . S
C657 N656 1.351 . S
C657 C658 1.434 . S
C658 C649 1.429 . S
C658 N655 1.350 . S
C658 C657 1.434 . S
C659 C660 1.369 . S
C659 C661 1.419 . S
C659 H663 0.930 . S
C660 C659 1.369 . S
C660 C669 1.429 . S
C661 C659 1.419 . S
C661 C662 1.363 . S
C661 H664 0.929 . S
C662 C661 1.363 . S
C662 C668 1.428 . S
H663 C659 0.930 . S
H664 C661 0.929 . S
S665 N666 1.613 . S
S665 N667 1.610 . S
N666 S665 1.613 . S
N666 C669 1.350 . S
N667 S665 1.610 . S
N667 C668 1.351 . S
C668 C662 1.428 . S
C668 N667 1.351 . S
C668 C669 1.434 . S
C669 C660 1.429 . S
C669 N666 1.350 . S
C669 C668 1.434 . S
C670 C671 1.369 . S
C670 C672 1.419 . S
C670 H674 0.930 . S
C671 C670 1.369 . S
C671 C680 1.429 . S
C672 C670 1.419 . S
C672 C673 1.363 . S
C672 H675 0.929 . S
C673 C672 1.363 . S
C673 C679 1.428 . S
H674 C670 0.930 . S
H675 C672 0.929 . S
S676 N677 1.613 . S
S676 N678 1.610 . S
N677 S676 1.613 . S
N677 C680 1.350 . S
N678 S676 1.610 . S
N678 C679 1.351 . S
C679 C673 1.428 . S
C679 N678 1.351 . S
C679 C680 1.434 . S
C680 C671 1.429 . S
C680 N677 1.350 . S
C680 C679 1.434 . S
C681 C682 1.369 . S
C681 C683 1.419 1_455 S
C681 H685 0.930 1_455 S
C682 C681 1.369 . S
C682 C691 1.429 . S
C683 C681 1.419 1_655 S
C683 C684 1.363 1_655 S
C683 H686 0.929 . S
C684 C683 1.363 1_455 S
C684 C690 1.428 . S
H685 C681 0.930 1_655 S
H686 C683 0.929 . S
S687 N688 1.613 . S
S687 N689 1.610 . S
N688 S687 1.613 . S
N688 C691 1.350 . S
N689 S687 1.610 . S
N689 C690 1.351 . S
C690 C684 1.428 . S
C690 N689 1.351 . S
C690 C691 1.434 . S
C691 C682 1.429 . S
C691 N688 1.350 . S
C691 C690 1.434 . S
C692 C693 1.369 . S
C692 C694 1.419 1_554 S
C692 H696 0.930 . S
C693 C692 1.369 . S
C693 C702 1.429 1_565 S
C694 C692 1.419 1_556 S
C694 C695 1.363 . S
C694 H697 0.929 . S
C695 C694 1.363 . S
C695 C701 1.428 1_565 S
H696 C692 0.930 . S
H697 C694 0.929 . S
S698 N699 1.613 . S
S698 N700 1.610 1_554 S
N699 S698 1.613 . S
N699 C702 1.350 . S
N700 S698 1.610 1_556 S
N700 C701 1.351 . S
C701 C695 1.428 1_545 S
C701 N700 1.351 . S
C701 C702 1.434 1_556 S
C702 C693 1.429 1_545 S
C702 N699 1.350 . S
C702 C701 1.434 1_554 S
C703 C704 1.369 . S
C703 C705 1.419 1_554 S
C703 H707 0.930 . S
C704 C703 1.369 . S
C704 C713 1.429 . S
C705 C703 1.419 1_556 S
C705 C706 1.363 . S
C705 H708 0.929 . S
C706 C705 1.363 . S
C706 C712 1.428 . S
H707 C703 0.930 . S
H708 C705 0.929 . S
S709 N710 1.613 . S
S709 N711 1.610 1_554 S
N710 S709 1.613 . S
N710 C713 1.350 . S
N711 S709 1.610 1_556 S
N711 C712 1.351 . S
C712 C706 1.428 . S
C712 N711 1.351 . S
C712 C713 1.434 1_556 S
C713 C704 1.429 . S
C713 N710 1.350 . S
C713 C712 1.434 1_554 S
C714 C715 1.369 . S
C714 C716 1.419 1_554 S
C714 H718 0.930 . S
C715 C714 1.369 . S
C715 C724 1.429 . S
C716 C714 1.419 1_556 S
C716 C717 1.363 . S
C716 H719 0.929 . S
C717 C716 1.363 . S
C717 C723 1.428 . S
H718 C714 0.930 . S
H719 C716 0.929 . S
S720 N721 1.613 . S
S720 N722 1.610 1_554 S
N721 S720 1.613 . S
N721 C724 1.350 . S
N722 S720 1.610 1_556 S
N722 C723 1.351 . S
C723 C717 1.428 . S
C723 N722 1.351 . S
C723 C724 1.434 1_556 S
C724 C715 1.429 . S
C724 N721 1.350 . S
C724 C723 1.434 1_554 S
C725 C726 1.369 . S
C725 C727 1.419 1_554 S
C725 H729 0.930 . S
C726 C725 1.369 . S
C726 C735 1.429 . S
C727 C725 1.419 1_556 S
C727 C728 1.363 . S
C727 H730 0.929 . S
C728 C727 1.363 . S
C728 C734 1.428 . S
H729 C725 0.930 . S
H730 C727 0.929 . S
S731 N732 1.613 . S
S731 N733 1.610 1_554 S
N732 S731 1.613 . S
N732 C735 1.350 . S
N733 S731 1.610 1_556 S
N733 C734 1.351 . S
C734 C728 1.428 . S
C734 N733 1.351 . S
C734 C735 1.434 1_556 S
C735 C726 1.429 . S
C735 N732 1.350 . S
C735 C734 1.434 1_554 S
C736 C737 1.369 . S
C736 C738 1.419 . S
C736 H740 0.930 . S
C737 C736 1.369 . S
C737 C746 1.429 . S
C738 C736 1.419 . S
C738 C739 1.363 1_455 S
C738 H741 0.929 . S
C739 C738 1.363 1_655 S
C739 C745 1.428 . S
H740 C736 0.930 . S
H741 C738 0.929 . S
S742 N743 1.613 1_655 S
S742 N744 1.610 . S
N743 S742 1.613 1_455 S
N743 C746 1.350 . S
N744 S742 1.610 . S
N744 C745 1.351 . S
C745 C739 1.428 . S
C745 N744 1.351 . S
C745 C746 1.434 1_655 S
C746 C737 1.429 . S
C746 N743 1.350 . S
C746 C745 1.434 1_455 S
C747 C748 1.369 . S
C747 C749 1.419 . S
C747 H751 0.930 . S
C748 C747 1.369 . S
C748 C757 1.429 . S
C749 C747 1.419 . S
C749 C750 1.363 1_545 S
C749 H752 0.929 . S
C750 C749 1.363 1_565 S
C750 C756 1.428 . S
H751 C747 0.930 . S
H752 C749 0.929 . S
S753 N754 1.613 1_565 S
S753 N755 1.610 . S
N754 S753 1.613 1_545 S
N754 C757 1.350 . S
N755 S753 1.610 . S
N755 C756 1.351 . S
C756 C750 1.428 . S
C756 N755 1.351 . S
C756 C757 1.434 1_565 S
C757 C748 1.429 . S
C757 N754 1.350 . S
C757 C756 1.434 1_545 S
C758 C759 1.369 . S
C758 C760 1.419 . S
C758 H762 0.930 . S
C759 C758 1.369 . S
C759 C768 1.429 . S
C760 C758 1.419 . S
C760 C761 1.363 . S
C760 H763 0.929 . S
C761 C760 1.363 . S
C761 C767 1.428 . S
H762 C758 0.930 . S
H763 C760 0.929 . S
S764 N765 1.613 . S
S764 N766 1.610 . S
N765 S764 1.613 . S
N765 C768 1.350 . S
N766 S764 1.610 . S
N766 C767 1.351 . S
C767 C761 1.428 . S
C767 N766 1.351 . S
C767 C768 1.434 . S
C768 C759 1.429 . S
C768 N765 1.350 . S
C768 C767 1.434 . S
C769 C770 1.369 . S
C769 C771 1.419 . S
C769 H773 0.930 . S
C770 C769 1.369 . S
C770 C779 1.429 . S
C771 C769 1.419 . S
C771 C772 1.363 . S
C771 H774 0.929 . S
C772 C771 1.363 . S
C772 C778 1.428 . S
H773 C769 0.930 . S
H774 C771 0.929 . S
S775 N776 1.613 . S
S775 N777 1.610 . S
N776 S775 1.613 . S
N776 C779 1.350 . S
N777 S775 1.610 . S
N777 C778 1.351 . S
C778 C772 1.428 . S
C778 N777 1.351 . S
C778 C779 1.434 . S
C779 C770 1.429 . S
C779 N776 1.350 . S
C779 C778 1.434 . S
C780 C781 1.369 1_556 S
C780 C782 1.419 . S
C780 H784 0.930 . S
C781 C780 1.369 1_554 S
C781 C790 1.429 1_655 S
C782 C780 1.419 . S
C782 C783 1.363 1_655 S
C782 H785 0.929 . S
C783 C782 1.363 1_455 S
C783 C789 1.428 1_556 S
H784 C780 0.930 . S
H785 C782 0.929 . S
S786 N787 1.613 . S
S786 N788 1.610 . S
N787 S786 1.613 . S
N787 C790 1.350 . S
N788 S786 1.610 . S
N788 C789 1.351 . S
C789 C783 1.428 1_554 S
C789 N788 1.351 . S
C789 C790 1.434 . S
C790 C781 1.429 1_455 S
C790 N787 1.350 . S
C790 C789 1.434 . S
C791 C792 1.369 1_556 S
C791 C793 1.419 1_565 S
C791 H795 0.930 . S
C792 C791 1.369 1_554 S
C792 C801 1.429 . S
C793 C791 1.419 1_545 S
C793 C794 1.363 . S
C793 H796 0.929 . S
C794 C793 1.363 . S
C794 C800 1.428 1_556 S
H795 C791 0.930 . S
H796 C793 0.929 . S
S797 N798 1.613 . S
S797 N799 1.610 1_565 S
N798 S797 1.613 . S
N798 C801 1.350 . S
N799 S797 1.610 1_545 S
N799 C800 1.351 . S
C800 C794 1.428 1_554 S
C800 N799 1.351 . S
C800 C801 1.434 1_545 S
C801 C792 1.429 . S
C801 N798 1.350 . S
C801 C800 1.434 1_565 S
C802 C803 1.369 . S
C802 C804 1.419 . S
C802 H806 0.930 . S
C803 C802 1.369 . S
C803 C812 1.429 1_554 S
C804 C802 1.419 . S
C804 C805 1.363 1_554 S
C804 H807 0.929 . S
C805 C804 1.363 1_556 S
C805 C811 1.428 . S
H806 C802 0.930 . S
H807 C804 0.929 . S
S808 N809 1.613 . S
S808 N810 1.610 . S
N809 S808 1.613 . S
N809 C812 1.350 . S
N810 S808 1.610 . S
N810 C811 1.351 . S
C811 C805 1.428 . S
C811 N810 1.351 . S
C811 C812 1.434 . S
C812 C803 1.429 1_556 S
C812 N809 1.350 . S
C812 C811 1.434 . S
C813 C814 1.369 1_556 S
C813 C815 1.419 . S
C813 H817 0.930 . S
C814 C813 1.369 1_554 S
C814 C823 1.429 . S
C815 C813 1.419 . S
C815 C816 1.363 . S
C815 H818 0.929 . S
C816 C815 1.363 . S
C816 C822 1.428 1_556 S
H817 C813 0.930 . S
H818 C815 0.929 . S
S819 N820 1.613 . S
S819 N821 1.610 . S
N820 S819 1.613 . S
N820 C823 1.350 . S
N821 S819 1.610 . S
N821 C822 1.351 . S
C822 C816 1.428 1_554 S
C822 N821 1.351 . S
C822 C823 1.434 . S
C823 C814 1.429 . S
C823 N820 1.350 . S
C823 C822 1.434 . S
C824 C825 1.369 . S
C824 C826 1.419 . S
C824 H828 0.930 . S
C825 C824 1.369 . S
C825 C834 1.429 . S
C826 C824 1.419 . S
C826 C827 1.363 . S
C826 H829 0.929 . S
C827 C826 1.363 . S
C827 C833 1.428 . S
H828 C824 0.930 . S
H829 C826 0.929 . S
S830 N831 1.613 . S
S830 N832 1.610 . S
N831 S830 1.613 . S
N831 C834 1.350 1_655 S
N832 S830 1.610 . S
N832 C833 1.351 1_655 S
C833 C827 1.428 . S
C833 N832 1.351 1_455 S
C833 C834 1.434 . S
C834 C825 1.429 . S
C834 N831 1.350 1_455 S
C834 C833 1.434 . S
C835 C836 1.369 . S
C835 C837 1.419 . S
C835 H839 0.930 . S
C836 C835 1.369 . S
C836 C845 1.429 . S
C837 C835 1.419 . S
C837 C838 1.363 . S
C837 H840 0.929 . S
C838 C837 1.363 . S
C838 C844 1.428 . S
H839 C835 0.930 . S
H840 C837 0.929 . S
S841 N842 1.613 1_565 S
S841 N843 1.610 1_565 S
N842 S841 1.613 1_545 S
N842 C845 1.350 . S
N843 S841 1.610 1_545 S
N843 C844 1.351 . S
C844 C838 1.428 . S
C844 N843 1.351 . S
C844 C845 1.434 . S
C845 C836 1.429 . S
C845 N842 1.350 . S
C845 C844 1.434 . S
C846 C847 1.369 . S
C846 C848 1.419 . S
C846 H850 0.930 . S
C847 C846 1.369 . S
C847 C856 1.429 . S
C848 C846 1.419 . S
C848 C849 1.363 . S
C848 H851 0.929 . S
C849 C848 1.363 . S
C849 C855 1.428 . S
H850 C846 0.930 . S
H851 C848 0.929 . S
S852 N853 1.613 . S
S852 N854 1.610 . S
N853 S852 1.613 . S
N853 C856 1.350 . S
N854 S852 1.610 . S
N854 C855 1.351 . S
C855 C849 1.428 . S
C855 N854 1.351 . S
C855 C856 1.434 . S
C856 C847 1.429 . S
C856 N853 1.350 . S
C856 C855 1.434 . S
C857 C858 1.369 . S
C857 C859 1.419 . S
C857 H861 0.930 . S
C858 C857 1.369 . S
C858 C867 1.429 . S
C859 C857 1.419 . S
C859 C860 1.363 . S
C859 H862 0.929 . S
C860 C859 1.363 . S
C860 C866 1.428 . S
H861 C857 0.930 . S
H862 C859 0.929 . S
S863 N864 1.613 . S
S863 N865 1.610 . S
N864 S863 1.613 . S
N864 C867 1.350 . S
N865 S863 1.610 . S
N865 C866 1.351 . S
C866 C860 1.428 . S
C866 N865 1.351 . S
C866 C867 1.434 . S
C867 C858 1.429 . S
C867 N864 1.350 . S
C867 C866 1.434 . S
C868 C869 1.369 1_455 S
C868 C870 1.419 . S
C868 H872 0.930 . S
C869 C868 1.369 1_655 S
C869 C878 1.429 . S
C870 C868 1.419 . S
C870 C871 1.363 1_455 S
C870 H873 0.929 . S
C871 C870 1.363 1_655 S
C871 C877 1.428 . S
H872 C868 0.930 . S
H873 C870 0.929 . S
S874 N875 1.613 . S
S874 N876 1.610 . S
N875 S874 1.613 . S
N875 C878 1.350 . S
N876 S874 1.610 . S
N876 C877 1.351 . S
C877 C871 1.428 . S
C877 N876 1.351 . S
C877 C878 1.434 . S
C878 C869 1.429 . S
C878 N875 1.350 . S
C878 C877 1.434 . S
C879 C880 1.369 . S
C879 C881 1.419 . S
C879 H883 0.930 . S
C880 C879 1.369 . S
C880 C889 1.429 1_565 S
C881 C879 1.419 . S
C881 C882 1.363 . S
C881 H884 0.929 . S
C882 C881 1.363 . S
C882 C888 1.428 1_565 S
H883 C879 0.930 . S
H884 C881 0.929 . S
S885 N886 1.613 . S
S885 N887 1.610 . S
N886 S885 1.613 . S
N886 C889 1.350 . S
N887 S885 1.610 . S
N887 C888 1.351 . S
C888 C882 1.428 1_545 S
C888 N887 1.351 . S
C888 C889 1.434 . S
C889 C880 1.429 1_545 S
C889 N886 1.350 . S
C889 C888 1.434 . S
C890 C891 1.369 . S
C890 C892 1.419 . S
C890 H894 0.930 . S
C891 C890 1.369 . S
C891 C900 1.429 . S
C892 C890 1.419 . S
C892 C893 1.363 . S
C892 H895 0.929 . S
C893 C892 1.363 . S
C893 C899 1.428 . S
H894 C890 0.930 . S
H895 C892 0.929 . S
S896 N897 1.613 . S
S896 N898 1.610 . S
N897 S896 1.613 . S
N897 C900 1.350 . S
N898 S896 1.610 . S
N898 C899 1.351 . S
C899 C893 1.428 . S
C899 N898 1.351 . S
C899 C900 1.434 . S
C900 C891 1.429 . S
C900 N897 1.350 . S
C900 C899 1.434 . S
C901 C902 1.369 . S
C901 C903 1.419 . S
C901 H905 0.930 . S
C902 C901 1.369 . S
C902 C911 1.429 . S
C903 C901 1.419 . S
C903 C904 1.363 . S
C903 H906 0.929 . S
C904 C903 1.363 . S
C904 C910 1.428 . S
H905 C901 0.930 . S
H906 C903 0.929 . S
S907 N908 1.613 . S
S907 N909 1.610 . S
N908 S907 1.613 . S
N908 C911 1.350 . S
N909 S907 1.610 . S
N909 C910 1.351 . S
C910 C904 1.428 . S
C910 N909 1.351 . S
C910 C911 1.434 . S
C911 C902 1.429 . S
C911 N908 1.350 . S
C911 C910 1.434 . S
C649 C255 2.580 . S
C651 C380 2.829 . S
C662 C463 2.843 . S
C660 C294 2.569 . S
C673 C548 2.835 . S
C671 C177 2.580 . S
C684 C632 2.816 . S
C682 C216 2.566 . S
C695 C368 2.826 1_565 S
C693 C99 2.587 . S
C704 C138 2.561 . S
C706 C451 2.842 . S
C715 C21 2.590 . S
C717 C536 2.834 . S
C726 C60 2.580 . S
C728 C620 2.813 1_655 S
C739 C370 0.752 . S
C737 C196 0.756 . S
C750 C466 0.759 . S
C748 C235 0.756 . S
C761 C538 0.773 . S
C759 C289 0.762 . S
C770 C157 0.744 . S
C772 C622 0.757 . S
C781 C40 0.744 . S
C783 C382 0.759 . S
C794 C454 0.743 . S
C792 C79 0.753 . S
C805 C550 0.771 . S
C803 C133 0.769 . S
C814 C1 0.739 . S
C816 C634 0.754 . S
C825 C211 2.895 . S
C827 C367 3.295 . S
C836 C250 2.893 . S
C838 C452 3.392 . S
C849 C535 3.320 . S
C847 C274 2.928 . S
C860 C619 3.316 . S
C858 C172 2.908 . S
C869 C55 2.890 . S
C871 C379 3.298 . S
C882 C464 3.391 . S
C880 C94 2.889 . S
C893 C547 3.319 . S
C891 C118 2.924 . S
C902 C16 2.910 . S
C904 C631 3.316 . S
