# Generated by pormake.
# Topology zzz, (3,6)-cn, num edge types: 1
# Building blocks:
#     Node 0, Type 0, BuildingBlock: VETTIZ_charged_linker_0, # of connection points: 3
#     Node 1, Type 0, BuildingBlock: VETTIZ_charged_linker_0, # of connection points: 3
#     Node 2, Type 0, BuildingBlock: VETTIZ_charged_linker_0, # of connection points: 3
#     Node 3, Type 0, BuildingBlock: VETTIZ_charged_linker_0, # of connection points: 3
#     Node 4, Type 0, BuildingBlock: VETTIZ_charged_linker_0, # of connection points: 3
#     Node 5, Type 0, BuildingBlock: VETTIZ_charged_linker_0, # of connection points: 3
#     Node 6, Type 0, BuildingBlock: VETTIZ_charged_linker_0, # of connection points: 3
#     Node 7, Type 0, BuildingBlock: VETTIZ_charged_linker_0, # of connection points: 3
#     Node 8, Type 1, BuildingBlock: FUNLAD_clean_sbu_0, # of connection points: 6
#     Node 9, Type 1, BuildingBlock: FUNLAD_clean_sbu_0, # of connection points: 6
#     Node 10, Type 1, BuildingBlock: FUNLAD_clean_sbu_0, # of connection points: 6
#     Node 11, Type 1, BuildingBlock: FUNLAD_clean_sbu_0, # of connection points: 6
#     Edge 12, Type (0, 1), BuildingBlock: KIFKEQ_clean_linker_1, # of connection points: 2
#     Edge 13, Type (0, 1), BuildingBlock: KIFKEQ_clean_linker_1, # of connection points: 2
#     Edge 14, Type (0, 1), BuildingBlock: KIFKEQ_clean_linker_1, # of connection points: 2
#     Edge 15, Type (0, 1), BuildingBlock: KIFKEQ_clean_linker_1, # of connection points: 2
#     Edge 16, Type (0, 1), BuildingBlock: KIFKEQ_clean_linker_1, # of connection points: 2
#     Edge 17, Type (0, 1), BuildingBlock: KIFKEQ_clean_linker_1, # of connection points: 2
#     Edge 18, Type (0, 1), BuildingBlock: KIFKEQ_clean_linker_1, # of connection points: 2
#     Edge 19, Type (0, 1), BuildingBlock: KIFKEQ_clean_linker_1, # of connection points: 2
#     Edge 20, Type (0, 1), BuildingBlock: KIFKEQ_clean_linker_1, # of connection points: 2
#     Edge 21, Type (0, 1), BuildingBlock: KIFKEQ_clean_linker_1, # of connection points: 2
#     Edge 22, Type (0, 1), BuildingBlock: KIFKEQ_clean_linker_1, # of connection points: 2
#     Edge 23, Type (0, 1), BuildingBlock: KIFKEQ_clean_linker_1, # of connection points: 2
#     Edge 24, Type (0, 1), BuildingBlock: KIFKEQ_clean_linker_1, # of connection points: 2
#     Edge 25, Type (0, 1), BuildingBlock: KIFKEQ_clean_linker_1, # of connection points: 2
#     Edge 26, Type (0, 1), BuildingBlock: KIFKEQ_clean_linker_1, # of connection points: 2
#     Edge 27, Type (0, 1), BuildingBlock: KIFKEQ_clean_linker_1, # of connection points: 2
#     Edge 28, Type (0, 1), BuildingBlock: KIFKEQ_clean_linker_1, # of connection points: 2
#     Edge 29, Type (0, 1), BuildingBlock: KIFKEQ_clean_linker_1, # of connection points: 2
#     Edge 30, Type (0, 1), BuildingBlock: KIFKEQ_clean_linker_1, # of connection points: 2
#     Edge 31, Type (0, 1), BuildingBlock: KIFKEQ_clean_linker_1, # of connection points: 2
#     Edge 32, Type (0, 1), BuildingBlock: KIFKEQ_clean_linker_1, # of connection points: 2
#     Edge 33, Type (0, 1), BuildingBlock: KIFKEQ_clean_linker_1, # of connection points: 2
#     Edge 34, Type (0, 1), BuildingBlock: KIFKEQ_clean_linker_1, # of connection points: 2
#     Edge 35, Type (0, 1), BuildingBlock: KIFKEQ_clean_linker_1, # of connection points: 2
# Relax obj value: 0.286
# Max RMSD: 0.229
# Mean RMSD: 0.195
data_MOF--net-zzz--node1-FUNLAD_clean_sbu_0--node2-VETTIZ_charged_linker_0--edge1-KIFKEQ_clean_linker_1
_symmetry_space_group_name_H-M    P1
_symmetry_Int_Tables_number       1
_symmetry_cell_setting            triclinic
loop_
_symmetry_equiv_pos_as_xyz
'x, y, z'
_cell_length_a     57.652101
_cell_length_b     62.901286
_cell_length_c     22.789411
_cell_angle_alpha  86.673008
_cell_angle_beta   86.152626
_cell_angle_gamma 92.310863
loop_
_atom_site_label
_atom_site_type_symbol
_atom_site_fract_x
_atom_site_fract_y
_atom_site_fract_z
_atom_type_partial_charge
C0 C 0.82633 0.47937 0.36658 0.0
C1 C 0.84776 0.47442 0.38914 0.0
C2 C 0.86066 0.45814 0.36521 0.0
C3 C 0.83229 0.45312 0.29345 0.0
C4 C 0.81875 0.46822 0.31894 0.0
C5 C 0.79641 0.47076 0.28852 0.0
H6 H 0.7316 0.44416 0.06207 0.0
C7 C 0.82074 0.44538 0.24263 0.0
C8 C 0.79931 0.45515 0.23999 0.0
H9 H 0.71373 0.48762 0.19626 0.0
H10 H 0.74966 0.48043 0.2423 0.0
H11 H 0.78187 0.4609 0.03942 0.0
H12 H 0.75187 0.4072 0.1472 0.0
H13 H 0.77739 0.39874 0.11052 0.0
H14 H 0.75408 0.40812 0.06815 0.0
H15 H 0.77353 0.43637 0.00871 0.0
H16 H 0.80218 0.4411 0.03379 0.0
C17 C 0.7959 0.49407 0.26319 0.0
C18 C 0.77579 0.46391 0.33337 0.0
C19 C 0.86768 0.4061 0.09143 0.0
C20 C 0.86294 0.39952 0.03525 0.0
C21 C 0.83956 0.39837 0.02032 0.0
C22 C 0.8218 0.40596 0.05757 0.0
C23 C 0.82741 0.41475 0.11043 0.0
C24 C 0.84977 0.41363 0.12804 0.0
C25 C 0.85253 0.42333 0.18607 0.0
C26 C 0.82856 0.43206 0.19788 0.0
C27 C 0.81405 0.42718 0.15319 0.0
C28 C 0.87185 0.44134 0.17676 0.0
C29 C 0.85756 0.40524 0.2322 0.0
C30 C 0.73509 0.45182 0.10211 0.0
C31 C 0.71961 0.46622 0.126 0.0
C32 C 0.72537 0.47644 0.17699 0.0
C33 C 0.74618 0.47218 0.20372 0.0
C34 C 0.76151 0.45775 0.17881 0.0
C35 C 0.75571 0.44789 0.1288 0.0
C36 C 0.77429 0.43393 0.10585 0.0
C37 C 0.79205 0.43641 0.1512 0.0
C38 C 0.78464 0.45041 0.19406 0.0
C39 C 0.78346 0.44331 0.04364 0.0
C40 C 0.76399 0.41075 0.10743 0.0
H41 H 0.86391 0.43551 0.30084 0.0
H42 H 0.81602 0.49172 0.3849 0.0
H43 H 0.77993 0.44957 0.36101 0.0
H44 H 0.75987 0.45927 0.31209 0.0
H45 H 0.77183 0.47681 0.36329 0.0
H46 H 0.81328 0.49956 0.24231 0.0
H47 H 0.79127 0.50491 0.29852 0.0
H48 H 0.78369 0.49609 0.2283 0.0
H49 H 0.88528 0.40719 0.10502 0.0
H50 H 0.83513 0.39267 0.97839 0.0
H51 H 0.80458 0.40568 0.04237 0.0
H52 H 0.86956 0.45134 0.13582 0.0
H53 H 0.88937 0.43465 0.1726 0.0
H54 H 0.87175 0.45243 0.21242 0.0
H55 H 0.85285 0.38917 0.21744 0.0
H56 H 0.84705 0.40632 0.27442 0.0
H57 H 0.87629 0.40537 0.24091 0.0
H58 H 0.87712 0.45411 0.38237 0.0
C59 C 0.853 0.44741 0.31781 0.0
C60 C 0.94674 0.82056 0.95636 0.0
C61 C 0.94247 0.84241 0.95981 0.0
C62 C 0.92346 0.8483 0.99695 0.0
C63 C 0.9185 0.81228 0.03835 0.0
C64 C 0.93413 0.80565 0.99566 0.0
C65 C 0.93659 0.78188 1.00185 0.0
H66 H 0.94198 0.69402 0.1702 0.0
C67 C 0.91347 0.79484 0.0833 0.0
C68 C 0.92166 0.77634 0.05948 0.0
H69 H 0.92174 0.69649 0.99054 0.0
H70 H 0.91311 0.73404 0.99774 0.0
H71 H 0.96911 0.74405 0.17012 0.0
H72 H 0.89689 0.72322 0.21175 0.0
H73 H 0.90782 0.73885 0.26683 0.0
H74 H 0.9198 0.71343 0.2544 0.0
H75 H 0.96054 0.72608 0.23277 0.0
H76 H 0.9579 0.75442 0.23595 0.0
C77 C 0.96229 0.77677 0.0082 0.0
C78 C 0.9272 0.77191 0.94741 0.0
C79 C 0.91172 0.81978 0.28955 0.0
C80 C 0.92201 0.81214 0.34003 0.0
C81 C 0.92828 0.79068 0.34422 0.0
C82 C 0.92594 0.77768 0.29625 0.0
C83 C 0.91792 0.7865 0.2434 0.0
C84 C 0.91112 0.80735 0.241 0.0
C85 C 0.90657 0.81568 0.18009 0.0
C86 C 0.91138 0.79618 0.14556 0.0
C87 C 0.91748 0.7789 0.18301 0.0
C88 C 0.92378 0.8351 0.16169 0.0
C89 C 0.88073 0.82124 0.17977 0.0
C90 C 0.93691 0.70292 0.13136 0.0
C91 C 0.93372 0.69273 0.07869 0.0
C92 C 0.92543 0.70433 0.03022 0.0
C93 C 0.92159 0.72602 0.03273 0.0
C94 C 0.92711 0.73628 0.08288 0.0
C95 C 0.93268 0.72479 0.13293 0.0
C96 C 0.93129 0.73838 0.18587 0.0
C97 C 0.92325 0.75935 0.15824 0.0
C98 C 0.92296 0.75799 0.0973 0.0
C99 C 0.95594 0.74086 0.2079 0.0
C100 C 0.91306 0.72796 0.23261 0.0
H101 H 0.89686 0.83809 0.06333 0.0
H102 H 0.96023 0.81536 0.92579 0.0
H103 H 0.93229 0.78199 0.90653 0.0
H104 H 0.90789 0.77008 0.95168 0.0
H105 H 0.93479 0.75629 0.94004 0.0
H106 H 0.96923 0.78479 0.04601 0.0
H107 H 0.97321 0.78212 0.96761 0.0
H108 H 0.96413 0.75934 0.01574 0.0
H109 H 0.90641 0.83612 0.28557 0.0
H110 H 0.93614 0.78437 0.38303 0.0
H111 H 0.93151 0.76164 0.301 0.0
H112 H 0.93199 0.842 0.19938 0.0
H113 H 0.91491 0.84858 0.1408 0.0
H114 H 0.93854 0.83061 0.13176 0.0
H115 H 0.86933 0.80838 0.20357 0.0
H116 H 0.87484 0.82291 0.13465 0.0
H117 H 0.87771 0.83631 0.2017 0.0
H118 H 0.9191 0.8648 0.99967 0.0
C119 C 0.91107 0.83311 0.03527 0.0
C120 C 0.80649 0.00587 0.08299 0.0
C121 C 0.81725 0.01295 0.02715 0.0
C122 C 0.80471 0.02537 0.98823 0.0
C123 C 0.77152 0.02413 0.05944 0.0
C124 C 0.78352 0.01184 0.09847 0.0
C125 C 0.76888 0.00663 0.15602 0.0
H126 H 0.6675 0.02506 0.31965 0.0
C127 C 0.74862 0.02849 0.08799 0.0
C128 C 0.74682 0.01867 0.14549 0.0
H129 H 0.72001 0.98267 0.37379 0.0
H130 H 0.74287 0.99131 0.27994 0.0
H131 H 0.70088 0.06274 0.25806 0.0
H132 H 0.66411 0.00785 0.20316 0.0
H133 H 0.66455 0.02579 0.1416 0.0
H134 H 0.65033 0.03264 0.21052 0.0
H135 H 0.66996 0.06081 0.25301 0.0
H136 H 0.68939 0.07099 0.19144 0.0
C137 C 0.78186 0.0153 0.20717 0.0
C138 C 0.76382 0.98232 0.16277 0.0
C139 C 0.68958 0.06688 0.96871 0.0
C140 C 0.66645 0.07224 0.98326 0.0
C141 C 0.65822 0.07092 0.04315 0.0
C142 C 0.67192 0.06292 0.0868 0.0
C143 C 0.69404 0.05571 0.07088 0.0
C144 C 0.70296 0.05854 0.01316 0.0
C145 C 0.72706 0.05025 0.00523 0.0
C146 C 0.73021 0.04052 0.06693 0.0
C147 C 0.71074 0.0437 0.10465 0.0
C148 C 0.74432 0.06955 0.98804 0.0
C149 C 0.72668 0.03305 0.95921 0.0
C150 C 0.68409 0.0178 0.31193 0.0
C151 C 0.69212 0.00352 0.35439 0.0
C152 C 0.71348 0.99388 0.34167 0.0
C153 C 0.72668 0.9989 0.28732 0.0
C154 C 0.71814 0.01336 0.24502 0.0
C155 C 0.69695 0.02221 0.25829 0.0
C156 C 0.68885 0.03569 0.20842 0.0
C157 C 0.70875 0.03414 0.16261 0.0
C158 C 0.72634 0.02131 0.18347 0.0
C159 C 0.68695 0.05877 0.22846 0.0
C160 C 0.66574 0.02518 0.18989 0.0
H161 H 0.77364 0.04037 0.97179 0.0
H162 H 0.81583 0.99633 0.11382 0.0
H163 H 0.75809 0.9763 0.12091 0.0
H164 H 0.74971 0.97774 0.19674 0.0
H165 H 0.77967 0.97393 0.17411 0.0
H166 H 0.78745 0.03232 0.19706 0.0
H167 H 0.79761 0.00617 0.2146 0.0
H168 H 0.77083 0.01455 0.24878 0.0
H169 H 0.69674 0.06816 0.92344 0.0
H170 H 0.64054 0.07466 0.05639 0.0
H171 H 0.66417 0.06173 0.13097 0.0
H172 H 0.73688 0.08492 0.99983 0.0
H173 H 0.74911 0.07089 0.9399 0.0
H174 H 0.7604 0.06869 0.01201 0.0
H175 H 0.71072 0.02245 0.96715 0.0
H176 H 0.74135 0.02237 0.96115 0.0
H177 H 0.72676 0.0405 0.91378 0.0
H178 H 0.8126 0.03089 0.94523 0.0
C179 C 0.78206 0.03093 1.00389 0.0
C180 C 0.56092 0.68356 0.35956 0.0
C181 C 0.56552 0.66173 0.36907 0.0
C182 C 0.56719 0.64891 0.32054 0.0
C183 C 0.55579 0.67797 0.25664 0.0
C184 C 0.55673 0.6915 0.30208 0.0
C185 C 0.55291 0.7143 0.28032 0.0
H186 H 0.51678 0.78014 0.05767 0.0
C187 C 0.54743 0.68969 0.20513 0.0
C188 C 0.54612 0.71122 0.2175 0.0
H189 H 0.54899 0.7995 0.21282 0.0
H190 H 0.55136 0.76219 0.24718 0.0
H191 H 0.55182 0.74447 0.02796 0.0
H192 H 0.48425 0.74159 0.12152 0.0
H193 H 0.4859 0.71834 0.08273 0.0
H194 H 0.48766 0.74405 0.04258 0.0
H195 H 0.52543 0.74971 0.99308 0.0
H196 H 0.53532 0.72308 1.00291 0.0
C197 C 0.57629 0.72726 0.28087 0.0
C198 C 0.53297 0.72327 0.31864 0.0
C199 C 0.51769 0.64669 0.04287 0.0
C200 C 0.50557 0.65175 0.99299 0.0
C201 C 0.49981 0.67301 0.98065 0.0
C202 C 0.50665 0.68909 0.01717 0.0
C203 C 0.51914 0.68372 0.06666 0.0
C204 C 0.52414 0.66273 0.07891 0.0
C205 C 0.53642 0.65946 0.13439 0.0
C206 C 0.53824 0.68211 0.15371 0.0
C207 C 0.52831 0.69624 0.11381 0.0
C208 C 0.56069 0.65065 0.11839 0.0
C209 C 0.52032 0.64461 0.17766 0.0
C210 C 0.52414 0.77639 0.09936 0.0
C211 C 0.53256 0.7927 0.13275 0.0
C212 C 0.54247 0.78715 0.18625 0.0
C213 C 0.54399 0.76558 0.20582 0.0
C214 C 0.53606 0.74945 0.17074 0.0
C215 C 0.52634 0.75511 0.11847 0.0
C216 C 0.51991 0.73621 0.08481 0.0
C217 C 0.52834 0.71826 0.12383 0.0
C218 C 0.53739 0.72589 0.17499 0.0
C219 C 0.53365 0.73839 0.02375 0.0
C220 C 0.49308 0.73492 0.08217 0.0
H221 H 0.56319 0.64602 0.23027 0.0
H222 H 0.56024 0.69392 0.39588 0.0
H223 H 0.51732 0.71223 0.32133 0.0
H224 H 0.5277 0.73886 0.30049 0.0
H225 H 0.53817 0.72528 0.36412 0.0
H226 H 0.59135 0.71704 0.27284 0.0
H227 H 0.57808 0.7343 0.32402 0.0
H228 H 0.57846 0.74003 0.24533 0.0
H229 H 0.52194 0.63038 0.05403 0.0
H230 H 0.49043 0.67721 0.94233 0.0
H231 H 0.50208 0.70507 0.0053 0.0
H232 H 0.56628 0.65388 0.0709 0.0
H233 H 0.56066 0.63312 0.12785 0.0
H234 H 0.57463 0.6584 0.14199 0.0
H235 H 0.50203 0.64965 0.17783 0.0
H236 H 0.52477 0.64474 0.22381 0.0
H237 H 0.52052 0.62788 0.16451 0.0
H238 H 0.57079 0.63217 0.32645 0.0
C239 C 0.56243 0.6569 0.26465 0.0
C240 C 0.28819 0.53641 0.26371 0.0
C241 C 0.29861 0.54577 0.31082 0.0
C242 C 0.28719 0.56207 0.33943 0.0
C243 C 0.25496 0.55858 0.27761 0.0
C244 C 0.26646 0.54327 0.24737 0.0
C245 C 0.25278 0.53567 0.19768 0.0
H246 H 0.15032 0.53526 0.06523 0.0
C247 C 0.2323 0.56148 0.25271 0.0
C248 C 0.23096 0.54844 0.20481 0.0
H249 H 0.2107 0.50031 0.01584 0.0
H250 H 0.23211 0.51696 0.09128 0.0
H251 H 0.15038 0.52713 0.19248 0.0
H252 H 0.1787 0.58046 0.08216 0.0
H253 H 0.16544 0.59095 0.14532 0.0
H254 H 0.14818 0.5749 0.09989 0.0
H255 H 0.13301 0.54911 0.17341 0.0
H256 H 0.149 0.54829 0.23886 0.0
C257 C 0.24736 0.51145 0.20888 0.0
C258 C 0.26696 0.54186 0.13875 0.0
C259 C 0.17002 0.59958 0.36851 0.0
C260 C 0.14588 0.60051 0.36275 0.0
C261 C 0.13718 0.59569 0.30833 0.0
C262 C 0.15164 0.58798 0.26345 0.0
C263 C 0.17499 0.58452 0.27313 0.0
C264 C 0.18413 0.59115 0.32378 0.0
C265 C 0.20914 0.58542 0.32723 0.0
C266 C 0.21293 0.57318 0.27187 0.0
C267 C 0.19282 0.57266 0.24078 0.0
C268 C 0.21084 0.57098 0.3842 0.0
C269 C 0.22446 0.60636 0.32416 0.0
C270 C 0.16823 0.53131 0.07041 0.0
C271 C 0.17885 0.51642 0.0354 0.0
C272 C 0.20222 0.51174 0.04281 0.0
C273 C 0.2145 0.52136 0.0866 0.0
C274 C 0.20325 0.53582 0.12278 0.0
C275 C 0.1806 0.54077 0.11326 0.0
C276 C 0.1709 0.55611 0.15525 0.0
C277 C 0.19145 0.55984 0.19188 0.0
C278 C 0.2104 0.54786 0.17338 0.0
C279 C 0.14966 0.5448 0.19181 0.0
C280 C 0.16529 0.57669 0.11915 0.0
H281 H 0.25774 0.58087 0.34694 0.0
H282 H 0.29678 0.52412 0.24016 0.0
H283 H 0.27594 0.5578 0.14007 0.0
H284 H 0.25593 0.54329 0.1011 0.0
H285 H 0.28046 0.53016 0.1295 0.0
H286 H 0.24115 0.50761 0.25572 0.0
H287 H 0.26316 0.50235 0.1994 0.0
H288 H 0.23347 0.50544 0.18246 0.0
H289 H 0.17753 0.60377 0.40879 0.0
H290 H 0.11879 0.5961 0.30168 0.0
H291 H 0.14362 0.58365 0.22451 0.0
H292 H 0.19614 0.55884 0.38958 0.0
H293 H 0.21007 0.58051 0.42376 0.0
H294 H 0.22672 0.56184 0.38436 0.0
H295 H 0.21565 0.61994 0.3031 0.0
H296 H 0.24088 0.60523 0.29655 0.0
H297 H 0.2286 0.61088 0.3688 0.0
H298 H 0.29469 0.56946 0.37598 0.0
C299 C 0.26559 0.56859 0.32286 0.0
C300 C 0.07515 0.17936 0.43149 0.0
C301 C 0.07676 0.15744 0.4225 0.0
C302 C 0.09254 0.15118 0.3773 0.0
C303 C 0.10006 0.18789 0.34294 0.0
C304 C 0.0872 0.19434 0.39132 0.0
C305 C 0.08739 0.21831 0.39195 0.0
H306 H 0.08076 0.31028 0.23906 0.0
C307 C 0.10554 0.20646 0.30173 0.0
C308 C 0.09947 0.2246 0.33095 0.0
H309 H 0.09781 0.30182 0.42073 0.0
H310 H 0.10676 0.26494 0.40527 0.0
H311 H 0.12692 0.28231 0.19547 0.0
H312 H 0.05397 0.26227 0.22324 0.0
H313 H 0.06609 0.25369 0.15598 0.0
H314 H 0.06423 0.28179 0.16564 0.0
H315 H 0.10527 0.29353 0.15115 0.0
H316 H 0.11751 0.26846 0.13545 0.0
C317 C 0.10146 0.22516 0.44381 0.0
C318 C 0.06222 0.22583 0.39738 0.0
C319 C 0.11098 0.19002 0.0874 0.0
C320 C 0.10393 0.20065 0.0364 0.0
C321 C 0.09794 0.22215 0.03863 0.0
C322 C 0.09863 0.23264 0.09164 0.0
C323 C 0.10451 0.22123 0.14323 0.0
C324 C 0.11027 0.20018 0.14021 0.0
C325 C 0.11242 0.18914 0.19947 0.0
C326 C 0.10801 0.20732 0.23919 0.0
C327 C 0.10378 0.22625 0.20621 0.0
C328 C 0.1376 0.18174 0.20231 0.0
C329 C 0.09343 0.1706 0.20905 0.0
C330 C 0.08544 0.30022 0.27622 0.0
C331 C 0.08754 0.30857 0.3319 0.0
C332 C 0.09514 0.29546 0.37839 0.0
C333 C 0.09929 0.27404 0.3708 0.0
C334 C 0.095 0.26554 0.31722 0.0
C335 C 0.09005 0.27865 0.2695 0.0
C336 C 0.09204 0.26701 0.21312 0.0
C337 C 0.09895 0.24501 0.23615 0.0
C338 C 0.09889 0.24426 0.29777 0.0
C339 C 0.11136 0.2784 0.17111 0.0
C340 C 0.06789 0.26617 0.1876 0.0
H341 H 0.11642 0.16089 0.30489 0.0
H342 H 0.06425 0.18466 0.46785 0.0
H343 H 0.05217 0.22004 0.36105 0.0
H344 H 0.06198 0.24347 0.39552 0.0
H345 H 0.05316 0.21983 0.44004 0.0
H346 H 0.10126 0.21237 0.47967 0.0
H347 H 0.09383 0.23891 0.46525 0.0
H348 H 0.11997 0.22915 0.4291 0.0
H349 H 0.11478 0.17328 0.08777 0.0
H350 H 0.09216 0.23059 0.99988 0.0
H351 H 0.09366 0.2489 0.09106 0.0
H352 H 0.15035 0.19435 0.18258 0.0
H353 H 0.14008 0.16718 0.17767 0.0
H354 H 0.14236 0.17852 0.24807 0.0
H355 H 0.08364 0.16811 0.16947 0.0
H356 H 0.07987 0.17374 0.24397 0.0
H357 H 0.10109 0.15507 0.21984 0.0
H358 H 0.09472 0.13453 0.36968 0.0
C359 C 0.10459 0.16637 0.33839 0.0
C360 C 0.31431 0.00416 0.1025 0.0
C361 C 0.33727 0.99989 0.08133 0.0
C362 C 0.35143 0.98848 0.11834 0.0
C363 C 0.32058 0.98522 0.19597 0.0
C364 C 0.30628 0.99659 0.16061 0.0
C365 C 0.28266 0.9992 0.1931 0.0
H366 H 0.21219 0.97436 0.44703 0.0
C367 C 0.30775 0.97915 0.25299 0.0
C368 C 0.28529 0.98708 0.25259 0.0
H369 H 0.19415 0.01324 0.29612 0.0
H370 H 0.23254 0.00853 0.24727 0.0
H371 H 0.23897 0.93859 0.37742 0.0
H372 H 0.26116 0.99648 0.4529 0.0
H373 H 0.28259 0.97818 0.46614 0.0
H374 H 0.25326 0.9725 0.49741 0.0
H375 H 0.23837 0.94148 0.45541 0.0
H376 H 0.264 0.93318 0.41476 0.0
C377 C 0.26363 0.98869 0.15864 0.0
C378 C 0.27951 0.02317 0.2001 0.0
C379 C 0.35113 0.93979 0.40796 0.0
C380 C 0.34554 0.93285 0.46709 0.0
C381 C 0.32235 0.93411 0.49039 0.0
C382 C 0.30543 0.94304 0.456 0.0
C383 C 0.31177 0.95096 0.39778 0.0
C384 C 0.3342 0.94877 0.37465 0.0
C385 C 0.33833 0.95838 0.31304 0.0
C386 C 0.3148 0.96731 0.30301 0.0
C387 C 0.29931 0.96297 0.35249 0.0
C388 C 0.34398 0.94002 0.27228 0.0
C389 C 0.35773 0.97633 0.31295 0.0
C390 C 0.21634 0.98173 0.40321 0.0
C391 C 0.2 0.99391 0.37519 0.0
C392 C 0.20644 0.00371 0.31869 0.0
C393 C 0.22868 1.00094 0.29041 0.0
C394 C 0.24482 0.98855 0.31936 0.0
C395 C 0.23837 0.97943 0.37522 0.0
C396 C 0.25755 0.96776 0.40194 0.0
C397 C 0.27658 0.97076 0.35289 0.0
C398 C 0.26936 0.9829 0.30371 0.0
C399 C 0.24941 0.94401 0.41354 0.0
C400 C 0.264 0.97909 0.45774 0.0
H401 H 0.35529 0.97258 0.2 0.0
H402 H 0.30305 0.01295 0.07472 0.0
H403 H 0.2955 0.03076 0.21598 0.0
H404 H 0.26521 0.02616 0.23274 0.0
H405 H 0.27612 0.03143 0.15729 0.0
H406 H 0.26831 0.97229 0.14808 0.0
H407 H 0.26156 0.99801 0.11654 0.0
H408 H 0.24661 0.98717 0.18399 0.0
H409 H 0.36879 0.93963 0.38859 0.0
H410 H 0.31746 0.92873 0.5357 0.0
H411 H 0.28823 0.94396 0.4766 0.0
H412 H 0.3357 0.92454 0.29058 0.0
H413 H 0.36302 0.93791 0.26666 0.0
H414 H 0.33701 0.94238 0.22841 0.0
H415 H 0.35742 0.98384 0.35602 0.0
H416 H 0.35555 0.98975 0.28056 0.0
H417 H 0.37528 0.97 0.30468 0.0
H418 H 0.36904 0.98506 0.10302 0.0
C419 C 0.3433 0.98116 0.17494 0.0
C420 C 0.46327 0.31617 0.04935 0.0
C421 C 0.46088 0.3383 0.03779 0.0
C422 C 0.46323 0.35207 0.0837 0.0
C423 C 0.47415 0.3229 0.14789 0.0
C424 C 0.4693 0.30874 0.10583 0.0
C425 C 0.47132 0.2859 0.12985 0.0
H426 H 0.50914 0.21988 0.34981 0.0
C427 C 0.48331 0.31116 0.19824 0.0
C428 C 0.48125 0.28928 0.18939 0.0
H429 H 0.46917 0.2011 0.20632 0.0
H430 H 0.46903 0.23821 0.16866 0.0
H431 H 0.54292 0.25491 0.27362 0.0
H432 H 0.47944 0.25864 0.38252 0.0
H433 H 0.49841 0.2797 0.3991 0.0
H434 H 0.50672 0.25263 0.41192 0.0
H435 H 0.54233 0.25283 0.35255 0.0
H436 H 0.54565 0.2783 0.31141 0.0
C437 C 0.48829 0.27444 0.08845 0.0
C438 C 0.44657 0.2752 0.13723 0.0
C439 C 0.527 0.35364 0.34081 0.0
C440 C 0.54017 0.34806 0.38849 0.0
C441 C 0.54214 0.32631 0.40525 0.0
C442 C 0.53132 0.31043 0.37425 0.0
C443 C 0.51828 0.31639 0.32627 0.0
C444 C 0.51638 0.33772 0.31052 0.0
C445 C 0.50195 0.3414 0.25889 0.0
C446 C 0.49574 0.31862 0.24513 0.0
C447 C 0.50523 0.30408 0.28473 0.0
C448 C 0.51784 0.35341 0.20905 0.0
C449 C 0.48017 0.35353 0.27941 0.0
C450 C 0.50052 0.22367 0.30995 0.0
C451 C 0.48931 0.20758 0.28079 0.0
C452 C 0.47786 0.21328 0.22968 0.0
C453 C 0.47766 0.23477 0.20817 0.0
C454 C 0.48858 0.25072 0.23888 0.0
C455 C 0.49974 0.24492 0.28892 0.0
C456 C 0.50966 0.26372 0.31785 0.0
C457 C 0.50186 0.2819 0.27863 0.0
C458 C 0.48982 0.27438 0.23155 0.0
C459 C 0.53652 0.26245 0.31428 0.0
C460 C 0.49818 0.26375 0.38136 0.0
H461 H 0.47199 0.35599 0.1706 0.0
H462 H 0.46086 0.30516 0.01525 0.0
H463 H 0.43335 0.28693 0.14898 0.0
H464 H 0.44465 0.26275 0.17361 0.0
H465 H 0.44176 0.26823 0.0958 0.0
H466 H 0.50492 0.28404 0.07971 0.0
H467 H 0.48076 0.27209 0.04557 0.0
H468 H 0.49267 0.2587 0.1075 0.0
H469 H 0.52449 0.3702 0.32796 0.0
H470 H 0.55207 0.32161 0.44219 0.0
H471 H 0.53342 0.29415 0.38903 0.0
H472 H 0.5348 0.34567 0.20351 0.0
H473 H 0.52146 0.3702 0.21955 0.0
H474 H 0.51063 0.35363 0.16557 0.0
H475 H 0.47695 0.3525 0.32821 0.0
H476 H 0.46397 0.34665 0.2631 0.0
H477 H 0.4821 0.37072 0.26496 0.0
H478 H 0.46137 0.36907 0.07617 0.0
C479 C 0.46974 0.3445 0.13845 0.0
C480 C 0.02415 0.96964 0.78237 0.0
N481 N 0.98672 0.96883 0.63323 0.0
C482 C 1.00009 0.95198 0.62212 0.0
C483 C 0.99088 0.9342 0.59658 0.0
C484 C 0.96764 0.93366 0.58189 0.0
C485 C 0.95432 0.95148 0.59233 0.0
C486 C 0.96423 0.96897 0.61849 0.0
Zn487 Zn 1.0011 0.99219 0.68051 0.0
C488 C 0.96887 0.00264 0.78354 0.0
N489 N 0.03333 0.03649 0.78853 0.0
C490 C 0.0563 0.03799 0.79893 0.0
C491 C 0.01893 0.05236 0.80235 0.0
C492 C 0.02745 0.07073 0.8263 0.0
C493 C 0.05115 0.07306 0.83625 0.0
C494 C 0.06564 0.05625 0.82288 0.0
Zn495 Zn 0.01922 0.01283 0.74131 0.0
O496 O 0.0125 0.96809 0.73742 0.0
C497 C 0.05137 0.00208 0.63816 0.0
O498 O 0.03049 0.98794 0.79806 0.0
H499 H 1.00087 0.05126 0.79245 0.0
H500 H 0.01789 0.95205 0.63435 0.0
H501 H 0.06755 0.02535 0.787 0.0
O502 O 0.03289 0.99188 0.62659 0.0
O503 O 0.05107 0.01256 0.68448 0.0
H504 H 0.95383 0.98243 0.62823 0.0
O505 O 1.00742 0.03706 0.68474 0.0
O506 O 0.99034 0.01696 0.62323 0.0
O507 O 0.98743 0.01247 0.79621 0.0
O508 O 0.96915 0.99282 0.73613 0.0
C509 C 0.99632 0.03535 0.6389 0.0
H510 H 1.00192 0.92102 0.58821 0.0
H511 H 0.9363 0.95169 0.58167 0.0
H512 H 0.01568 0.08337 0.83473 0.0
H513 H 0.08399 0.05729 0.83028 0.0
C514 C 0.48465 0.97178 0.65109 0.0
N515 N 0.4977 0.03812 0.61846 0.0
C516 C 0.50071 0.03481 0.55998 0.0
C517 C 0.49759 0.05124 0.51758 0.0
C518 C 0.4912 0.07135 0.53528 0.0
C519 C 0.48756 0.07414 0.59596 0.0
C520 C 0.49098 0.05728 0.63693 0.0
Zn521 Zn 0.50544 0.01415 0.67891 0.0
C522 C 0.46963 0.00687 0.78005 0.0
N523 N 0.52263 0.96311 0.80055 0.0
C524 C 0.53008 0.9442 0.78199 0.0
C525 C 0.51879 0.96612 0.85904 0.0
C526 C 0.52174 0.94959 0.90128 0.0
C527 C 0.5289 0.92973 0.88341 0.0
C528 C 0.53343 0.92728 0.82282 0.0
Zn529 Zn 0.51495 0.98711 0.7401 0.0
O530 O 0.48611 0.99148 0.63452 0.0
C531 C 0.55072 0.99447 0.63868 0.0
O532 O 0.4956 0.96507 0.69454 0.0
H533 H 0.51295 0.98127 0.87306 0.0
H534 H 0.506 0.01948 0.54606 0.0
H535 H 0.53291 0.94206 0.73535 0.0
O536 O 0.5363 0.00853 0.62584 0.0
O537 O 0.54633 0.98227 0.68513 0.0
H538 H 0.4888 0.05966 0.68357 0.0
O539 O 0.53376 0.00978 0.78543 0.0
O540 O 0.52526 0.03612 0.7239 0.0
O541 O 0.48368 0.99241 0.79241 0.0
O542 O 0.47443 0.01939 0.73444 0.0
C543 C 0.53565 0.02942 0.76833 0.0
H544 H 0.5003 0.04824 0.47136 0.0
H545 H 0.48288 0.08941 0.61175 0.0
H546 H 0.51832 0.9523 0.94749 0.0
H547 H 0.53874 0.9122 0.80695 0.0
C548 C 0.53595 0.47317 0.61741 0.0
N549 N 0.46995 0.49936 0.61803 0.0
C550 C 0.47534 0.50265 0.55905 0.0
C551 C 0.45783 0.5051 0.52013 0.0
C552 C 0.43441 0.50444 0.54183 0.0
C553 C 0.42929 0.50056 0.60288 0.0
C554 C 0.44741 0.49803 0.64034 0.0
Zn555 Zn 0.49713 0.498 0.67189 0.0
C556 C 0.4948 0.46014 0.75533 0.0
N557 N 0.55661 0.49603 0.77504 0.0
C558 C 0.56589 0.47678 0.78597 0.0
C559 C 0.56447 0.51367 0.80087 0.0
C560 C 0.58221 0.51226 0.83983 0.0
C561 C 0.59193 0.4925 0.85244 0.0
C562 C 0.58352 0.47464 0.82467 0.0
Zn563 Zn 0.52917 0.4974 0.72197 0.0
O564 O 0.5153 0.47898 0.61175 0.0
C565 C 0.53124 0.53539 0.6387 0.0
O566 O 0.54691 0.47918 0.66041 0.0
H567 H 0.55681 0.52883 0.79177 0.0
H568 H 0.49333 0.50376 0.54204 0.0
H569 H 0.55935 0.4629 0.76537 0.0
O570 O 0.51204 0.52637 0.62753 0.0
O571 O 0.54337 0.52653 0.6771 0.0
H572 H 0.44349 0.49548 0.68737 0.0
O573 O 0.51097 0.51532 0.78316 0.0
O574 O 0.47984 0.51733 0.73279 0.0
O575 O 0.51442 0.46869 0.76513 0.0
O576 O 0.48243 0.46938 0.71813 0.0
C577 C 0.4908 0.52221 0.77703 0.0
H578 H 0.46268 0.50766 0.47344 0.0
H579 H 0.41153 0.50016 0.62183 0.0
H580 H 0.58827 0.52652 0.85961 0.0
H581 H 0.59011 0.459 0.83367 0.0
C582 C 0.03319 0.53218 0.64598 0.0
N583 N 0.03008 0.46618 0.62384 0.0
C584 C 0.03083 0.47127 0.56478 0.0
C585 C 0.03752 0.45631 0.5245 0.0
C586 C 0.04304 0.43582 0.54524 0.0
C587 C 0.04248 0.4311 0.60628 0.0
C588 C 0.03611 0.44663 0.64496 0.0
Zn589 Zn 0.01778 0.48749 0.68232 0.0
C590 C 0.0494 0.49485 0.77801 0.0
N591 N 0.99088 0.53175 0.80322 0.0
C592 C 0.9822 0.55016 0.78154 0.0
C593 C 0.99203 0.52766 0.86227 0.0
C594 C 0.98444 0.54248 0.90197 0.0
C595 C 0.97556 0.56173 0.88077 0.0
C596 C 0.97446 0.56541 0.81958 0.0
Zn597 Zn 1.00335 0.51052 0.74504 0.0
O598 O 0.035 0.5131 0.63128 0.0
C599 C 0.97177 0.50321 0.64931 0.0
O600 O 0.02098 0.53597 0.69237 0.0
H601 H 0.99901 0.51293 0.87864 0.0
H602 H 0.02576 0.4868 0.54877 0.0
H603 H 0.98155 0.55318 0.73449 0.0
O604 O 0.98817 0.49141 0.63354 0.0
O605 O 0.97314 0.51336 0.69575 0.0
H606 H 0.03558 0.44291 0.69197 0.0
O607 O 0.98647 0.48493 0.79692 0.0
O608 O 0.99957 0.46217 0.73443 0.0
O609 O 0.03321 0.50703 0.79272 0.0
O610 O 0.04779 0.48418 0.73252 0.0
C611 C 0.98771 0.46591 0.78143 0.0
H612 H 0.03764 0.46048 0.47769 0.0
H613 H 0.04686 0.41552 0.6239 0.0
H614 H 0.9854 0.53885 0.94875 0.0
H615 H 0.96814 0.58014 0.80101 0.0
H616 H 0.1772 0.03047 0.39873 0.0
H617 H 0.17029 0.96198 0.42388 0.0
H618 H 0.14096 0.03339 0.46067 0.0
H619 H 0.13433 0.9648 0.48519 0.0
H620 H 0.09196 0.02704 0.63626 0.0
H621 H 0.12671 0.02614 0.56827 0.0
H622 H 0.09377 0.97557 0.47923 0.0
H623 H 0.05923 0.97645 0.54664 0.0
C624 C 0.16774 0.01606 0.41664 0.0
C625 C 0.17658 0.99599 0.40622 0.0
C626 C 0.14713 0.01771 0.45267 0.0
C627 C 0.1347 0.99932 0.47821 0.0
C628 C 0.14326 0.9793 0.46604 0.0
C629 C 0.16393 0.97767 0.43094 0.0
C630 C 0.09214 0.01574 0.60217 0.0
C631 C 0.07275 0.00175 0.59732 0.0
C632 C 0.112 0.01534 0.56285 0.0
C633 C 0.11312 1.00076 0.51817 0.0
C634 C 0.09368 0.98687 0.51333 0.0
C635 C 0.07379 0.98743 0.55204 0.0
H636 H 0.52624 0.1856 0.31564 0.0
H637 H 0.45186 0.17944 0.30501 0.0
H638 H 0.52554 0.15133 0.37155 0.0
H639 H 0.4511 0.14482 0.36076 0.0
H640 H 0.45846 0.10193 0.53362 0.0
H641 H 0.45726 0.13301 0.46452 0.0
H642 H 0.51844 0.11282 0.36686 0.0
H643 H 0.51999 0.0821 0.4366 0.0
C644 C 0.50977 0.17669 0.32446 0.0
C645 C 0.4891 0.18522 0.30608 0.0
C646 C 0.50937 0.15699 0.35628 0.0
C647 C 0.48824 0.14534 0.371 0.0
C648 C 0.46763 0.1535 0.35069 0.0
C649 C 0.46808 0.17318 0.31821 0.0
C650 C 0.47164 0.10411 0.49737 0.0
C651 C 0.48939 0.08953 0.49093 0.0
C652 C 0.47079 0.1218 0.45734 0.0
C653 C 0.48778 0.12544 0.41013 0.0
C654 C 0.50519 0.1106 0.40296 0.0
C655 C 0.50596 0.09286 0.44271 0.0
H656 H 0.31136 0.50473 0.33334 0.0
H657 H 0.33582 0.5703 0.33883 0.0
H658 H 0.3455 0.49315 0.38297 0.0
H659 H 0.36931 0.55893 0.38983 0.0
H660 H 0.43581 0.53326 0.4467 0.0
H661 H 0.40511 0.54122 0.38196 0.0
H662 H 0.35918 0.49432 0.48167 0.0
H663 H 0.3904 0.48552 0.54487 0.0
C664 C 0.32423 0.51662 0.34424 0.0
C665 C 0.32085 0.53842 0.33254 0.0
C666 C 0.34361 0.51003 0.37334 0.0
C667 C 0.36008 0.5251 0.39093 0.0
C668 C 0.35716 0.54684 0.37659 0.0
C669 C 0.33784 0.55339 0.34772 0.0
C670 C 0.41935 0.52429 0.45425 0.0
C671 C 0.41565 0.50872 0.50123 0.0
C672 C 0.40161 0.52905 0.41742 0.0
C673 C 0.37959 0.51852 0.4267 0.0
C674 C 0.37599 0.50261 0.47282 0.0
C675 C 0.39381 0.49778 0.50964 0.0
H676 H 0.04515 0.32574 0.32847 0.0
H677 H 0.11622 0.34031 0.36546 0.0
H678 H 0.03333 0.35889 0.37125 0.0
H679 H 0.10458 0.37358 0.40726 0.0
H680 H 0.0751 0.43846 0.4506 0.0
H681 H 0.08566 0.41002 0.3856 0.0
H682 H 0.03389 0.36747 0.48131 0.0
H683 H 0.02363 0.39567 0.54645 0.0
C684 C 0.05832 0.33643 0.34386 0.0
C685 C 0.08156 0.33062 0.34362 0.0
C686 C 0.05157 0.35526 0.36874 0.0
C687 C 0.06803 0.36871 0.39288 0.0
C688 C 0.09156 0.3636 0.38863 0.0
C689 C 0.09823 0.34461 0.36475 0.0
C690 C 0.06588 0.42306 0.45722 0.0
C691 C 0.04868 0.41917 0.50371 0.0
C692 C 0.07193 0.40684 0.4202 0.0
C693 C 0.06049 0.3866 0.42824 0.0
C694 C 0.04279 0.38298 0.47362 0.0
C695 C 0.03708 0.39903 0.51123 0.0
H696 H 0.83398 0.97595 0.98677 0.0
H697 H 0.85462 0.04068 0.01748 0.0
H698 H 0.8715 0.97182 0.93185 0.0
H699 H 0.8918 0.03692 0.96225 0.0
H700 H 0.92567 0.9837 0.77101 0.0
H701 H 0.89062 0.98416 0.8375 0.0
H702 H 0.92866 0.02112 0.95624 0.0
H703 H 0.9634 0.02106 0.88934 0.0
C704 C 0.84687 0.98905 0.98334 0.0
C705 C 0.84162 0.00848 0.00749 0.0
C706 C 0.86822 0.98686 0.95099 0.0
C707 C 0.8848 0.00408 0.94197 0.0
C708 C 0.87978 0.02318 0.96864 0.0
C709 C 0.85847 0.02536 1.00063 0.0
C710 C 0.92656 0.99191 0.81132 0.0
C711 C 0.94741 0.00249 0.82434 0.0
C712 C 0.90647 0.99202 0.84987 0.0
C713 C 0.90663 0.0027 0.90258 0.0
C714 C 0.92763 0.01298 0.91586 0.0
C715 C 0.94767 0.01288 0.87739 0.0
H716 H 0.56843 0.82279 0.11698 0.0
H717 H 0.4953 0.81291 0.09274 0.0
H718 H 0.56846 0.85764 0.06262 0.0
H719 H 0.49526 0.84752 0.03851 0.0
H720 H 0.49862 0.91752 0.97813 0.0
H721 H 0.50008 0.88651 0.04712 0.0
H722 H 0.56412 0.86916 0.95663 0.0
H723 H 0.56286 0.90042 0.88807 0.0
C724 C 0.55227 0.8283 0.1012 0.0
C725 C 0.53186 0.81517 0.10907 0.0
C726 C 0.55233 0.84812 0.06954 0.0
C727 C 0.5319 0.85531 0.04589 0.0
C728 C 0.51126 0.84257 0.05645 0.0
C729 C 0.51128 0.82272 0.08736 0.0
C730 C 0.51322 0.9073 0.97346 0.0
C731 C 0.5306 0.91145 0.92741 0.0
C732 C 0.51395 0.88942 0.01276 0.0
C733 C 0.53219 0.87533 0.00737 0.0
C734 C 0.54994 0.8798 0.96238 0.0
C735 C 0.54909 0.89758 0.92269 0.0
H736 H 0.70114 0.50509 0.10111 0.0
H737 H 0.6897 0.43768 0.08145 0.0
H738 H 0.66937 0.51255 0.0376 0.0
H739 H 0.65834 0.44512 0.01791 0.0
H740 H 0.62986 0.46776 0.84435 0.0
H741 H 0.65875 0.46206 0.91593 0.0
H742 H 0.62571 0.50679 0.02757 0.0
H743 H 0.59625 0.51222 0.95629 0.0
C744 C 0.69156 0.49187 0.08426 0.0
C745 C 0.69816 0.47082 0.09561 0.0
C746 C 0.67344 0.49614 0.04775 0.0
C747 C 0.66168 0.47944 0.02186 0.0
C748 C 0.66745 0.45836 0.03603 0.0
C749 C 0.68539 0.45411 0.07254 0.0
C750 C 0.62852 0.47626 0.88434 0.0
C751 C 0.61048 0.49026 0.8947 0.0
C752 C 0.64514 0.47301 0.92537 0.0
C753 C 0.64433 0.48377 0.97776 0.0
C754 C 0.6268 0.49831 0.98751 0.0
C755 C 0.60999 0.50146 0.94652 0.0
H756 H 0.97589 0.67496 0.0757 0.0
H757 H 0.90282 0.66024 0.06327 0.0
H758 H 0.98514 0.64057 0.03738 0.0
H759 H 0.91172 0.62545 0.02736 0.0
H760 H 0.93795 0.58668 0.87399 0.0
H761 H 0.92729 0.61564 0.93469 0.0
H762 H 0.98425 0.60238 0.04333 0.0
H763 H 0.99569 0.57395 0.98029 0.0
C764 C 0.96179 0.66392 0.06703 0.0
C765 C 0.93869 0.67011 0.07229 0.0
C766 C 0.96703 0.64422 0.04497 0.0
C767 C 0.94919 0.63034 0.02813 0.0
C768 C 0.92594 0.63594 0.03837 0.0
C769 C 0.92077 0.6557 0.05967 0.0
C770 C 0.94827 0.58994 0.91069 0.0
C771 C 0.96785 0.5781 0.92171 0.0
C772 C 0.94193 0.60638 0.94625 0.0
C773 C 0.95486 0.6114 0.99424 0.0
C774 C 0.97401 0.59911 0.00649 0.0
C775 C 0.98043 0.58265 0.97066 0.0
H776 H 0.03088 0.16094 0.46016 0.0
H777 H 0.08663 0.1169 0.46085 0.0
H778 H 1.00389 0.13272 0.50589 0.0
H779 H 0.05936 0.08872 0.50311 0.0
H780 H 1.00384 0.03811 0.51989 0.0
H781 H 0.0196 0.07013 0.4625 0.0
H782 H 1.00473 0.10778 0.61167 0.0
H783 H 0.98943 0.07573 0.66955 0.0
C784 C 0.03747 0.14538 0.47042 0.0
C785 C 0.06096 0.14117 0.45627 0.0
C786 C 0.02191 0.12921 0.49573 0.0
C787 C 0.0295 0.10853 0.50612 0.0
C788 C 0.053 0.10445 0.49366 0.0
C789 C 0.0686 0.12062 0.46959 0.0
C790 C 1.00278 0.05338 0.53938 0.0
C791 C 0.99562 0.05451 0.59913 0.0
C792 C 0.01201 0.07163 0.5068 0.0
C793 C 0.01365 0.0912 0.53329 0.0
C794 C 1.00361 0.09283 0.59047 0.0
C795 C 0.99478 0.07453 0.62339 0.0
H796 H 0.38447 0.91064 0.4394 0.0
H797 H 0.35055 0.94358 0.58045 0.0
H798 H 0.421 0.91309 0.48753 0.0
H799 H 0.38672 0.94478 0.62971 0.0
H800 H 0.45771 0.9393 0.70713 0.0
H801 H 0.42375 0.92124 0.66944 0.0
H802 H 0.43964 0.95434 0.49944 0.0
H803 H 0.47295 0.97299 0.53752 0.0
C804 C 0.38456 0.91774 0.48155 0.0
C805 C 0.36473 0.92751 0.50513 0.0
C806 C 0.40542 0.91896 0.50916 0.0
C807 C 0.40658 0.92931 0.56177 0.0
C808 C 0.38614 0.93662 0.58921 0.0
C809 C 0.36538 0.93584 0.56098 0.0
C810 C 0.45431 0.94221 0.66124 0.0
C811 C 0.46782 0.95755 0.62509 0.0
C812 C 0.43491 0.93193 0.6399 0.0
C813 C 0.42929 0.93637 0.58166 0.0
C814 C 0.44386 0.95048 0.54434 0.0
C815 C 0.46281 0.9612 0.56609 0.0
H816 H 0.53941 0.35013 0.50815 0.0
H817 H 0.56308 0.385 0.34476 0.0
H818 H 0.54686 0.38199 0.56158 0.0
H819 H 0.56994 0.41695 0.39814 0.0
H820 H 0.52593 0.467 0.50477 0.0
H821 H 0.53578 0.43656 0.44791 0.0
H822 H 0.57657 0.41237 0.58714 0.0
H823 H 0.56708 0.44319 0.64383 0.0
C824 C 0.54697 0.36435 0.48393 0.0
C825 C 0.55019 0.36523 0.42219 0.0
C826 C 0.55122 0.38259 0.51451 0.0
C827 C 0.55865 0.40194 0.4837 0.0
C828 C 0.56396 0.40226 0.4227 0.0
C829 C 0.55993 0.38402 0.39226 0.0
C830 C 0.53754 0.45551 0.52246 0.0
C831 C 0.54568 0.45736 0.57864 0.0
C832 C 0.54328 0.43816 0.48986 0.0
C833 C 0.5569 0.42215 0.51334 0.0
C834 C 0.56606 0.42454 0.56821 0.0
C835 C 0.56072 0.44219 0.60037 0.0
H836 H 0.15151 0.58634 0.47701 0.0
H837 H 0.10219 0.61731 0.36909 0.0
H838 H 0.12087 0.57788 0.55347 0.0
H839 H 0.07116 0.60712 0.44493 0.0
H840 H 0.03879 0.53616 0.52713 0.0
H841 H 0.06395 0.56223 0.4667 0.0
H842 H 0.08246 0.59264 0.62298 0.0
H843 H 0.05632 0.56696 0.6837 0.0
C844 C 0.13445 0.59219 0.4701 0.0
C845 C 0.12934 0.60198 0.41552 0.0
C846 C 0.11681 0.58719 0.51426 0.0
C847 C 0.09372 0.59157 0.50442 0.0
C848 C 0.0889 0.60347 0.45309 0.0
C849 C 0.10667 0.60902 0.40946 0.0
C850 C 0.04775 0.54877 0.54836 0.0
C851 C 0.04581 0.54959 0.60982 0.0
C852 C 0.06193 0.56376 0.51387 0.0
C853 C 0.07488 0.57947 0.54038 0.0
C854 C 0.07234 0.58081 0.60174 0.0
C855 C 0.05752 0.56614 0.63624 0.0
H856 H 0.93257 0.8815 0.91015 0.0
H857 H 0.99007 0.84153 0.94488 0.0
H858 H 0.96004 0.91113 0.87942 0.0
H859 H 0.01748 0.87112 0.91058 0.0
H860 H 0.03692 0.93095 0.74959 0.0
H861 H 0.02122 0.89725 0.79823 0.0
H862 H 0.99513 0.93087 0.94675 0.0
H863 H 0.01136 0.96454 0.89881 0.0
C864 C 0.95101 0.87895 0.91102 0.0
C865 C 0.95903 0.85916 0.93082 0.0
C866 C 0.96669 0.89593 0.89355 0.0
C867 C 0.99073 0.8934 0.89431 0.0
C868 C 0.99896 0.87341 0.9106 0.0
C869 C 0.98323 0.85645 0.92929 0.0
C870 C 0.02915 0.93092 0.79424 0.0
C871 C 0.02534 0.95024 0.82067 0.0
C872 C 0.02003 0.91169 0.82177 0.0
C873 C 1.00676 0.9117 0.87554 0.0
C874 C 1.00534 0.93064 0.90512 0.0
C875 C 0.01486 0.94982 0.87808 0.0
H876 H 0.62912 0.09836 0.98413 0.0
H877 H 0.66509 0.05342 0.87795 0.0
H878 H 0.59524 0.09425 0.92615 0.0
H879 H 0.63187 0.05074 0.81814 0.0
H880 H 0.56435 0.0611 0.71427 0.0
H881 H 0.59726 0.07927 0.75668 0.0
H882 H 0.57674 0.04769 0.92633 0.0
H883 H 0.54453 0.02887 0.88377 0.0
C884 C 0.63017 0.08816 0.94746 0.0
C885 C 0.64966 0.07571 0.93706 0.0
C886 C 0.61086 0.08605 0.914 0.0
C887 C 0.61111 0.07213 0.86823 0.0
C888 C 0.63149 0.06171 0.85311 0.0
C889 C 0.65058 0.06337 0.8874 0.0
C890 C 0.56653 0.05854 0.76097 0.0
C891 C 0.55202 0.04361 0.79595 0.0
C892 C 0.5853 0.06889 0.78499 0.0
C893 C 0.58922 0.06492 0.84458 0.0
C894 C 0.57376 0.05114 0.88037 0.0
C895 C 0.55545 0.04036 0.85608 0.0
H896 H 0.46303 0.64128 0.95213 0.0
H897 H 0.53456 0.62322 0.94838 0.0
H898 H 0.4526 0.60865 0.90302 0.0
H899 H 0.52423 0.59096 0.90055 0.0
H900 H 0.49927 0.52559 0.89138 0.0
H901 H 0.4981 0.55817 0.94401 0.0
H902 H 0.46443 0.58945 0.80132 0.0
H903 H 0.46528 0.55654 0.74859 0.0
C904 C 0.47652 0.63055 0.93982 0.0
C905 C 0.49952 0.6345 0.95468 0.0
C906 C 0.47054 0.61192 0.91225 0.0
C907 C 0.48752 0.5971 0.89978 0.0
C908 C 0.5107 0.60184 0.91135 0.0
C909 C 0.51663 0.62033 0.93835 0.0
C910 C 0.49079 0.53914 0.87227 0.0
C911 C 0.48266 0.5387 0.8157 0.0
C912 C 0.49023 0.5578 0.90218 0.0
C913 C 0.48172 0.57638 0.87583 0.0
C914 C 0.47114 0.57531 0.82231 0.0
C915 C 0.47155 0.55647 0.79236 0.0
H916 H 0.90703 0.3851 0.04937 0.0
H917 H 0.86374 0.41107 0.91717 0.0
H918 H 0.94151 0.39477 0.98365 0.0
H919 H 0.89798 0.41921 0.85107 0.0
H920 H 0.96629 0.43072 0.74107 0.0
H921 H 0.93812 0.40571 0.7973 0.0
H922 H 0.95087 0.43728 0.95595 0.0
H923 H 0.97825 0.46261 0.89976 0.0
C924 C 0.9047 0.39221 0.00588 0.0
C925 C 0.88253 0.39796 0.98967 0.0
C926 C 0.92447 0.39751 0.96814 0.0
C927 C 0.92231 0.40794 0.91281 0.0
C928 C 0.90006 0.41107 0.89349 0.0
C929 C 0.88035 0.40627 0.93164 0.0
C930 C 0.96345 0.43192 0.78822 0.0
C931 C 0.9742 0.44863 0.81621 0.0
C932 C 0.94741 0.41764 0.82021 0.0
C933 C 0.94254 0.41953 0.88083 0.0
C934 C 0.95461 0.43531 0.90939 0.0
C935 C 0.97009 0.44989 0.87723 0.0
H936 H 0.06388 0.19756 0.97995 0.0
H937 H 0.13281 0.17338 0.98201 0.0
H938 H 0.05187 0.16819 0.92159 0.0
H939 H 0.12075 0.14373 0.92498 0.0
H940 H 0.0923 0.09537 0.80176 0.0
H941 H 0.10632 0.12949 0.83556 0.0
H942 H 0.04485 0.13061 0.95439 0.0
H943 H 0.031 0.09665 0.92123 0.0
C944 C 0.07671 0.18644 0.96598 0.0
C945 C 0.09923 0.18767 0.98581 0.0
C946 C 0.06975 0.16939 0.93342 0.0
C947 C 0.08519 0.15331 0.91992 0.0
C948 C 0.10839 0.15578 0.93464 0.0
C949 C 0.11533 0.17279 0.96727 0.0
C950 C 0.0819 0.10282 0.8355 0.0
C951 C 0.06048 0.09326 0.85864 0.0
C952 C 0.08986 0.12245 0.85452 0.0
C953 C 0.07653 0.13298 0.89695 0.0
C954 C 0.05525 0.12328 0.92041 0.0
C955 C 0.04737 0.1037 0.90162 0.0
H956 H 0.33939 0.97554 0.98737 0.0
H957 H 0.36139 0.0369 0.0435 0.0
H958 H 0.3696 0.9789 0.90637 0.0
H959 H 0.39163 0.04047 0.96204 0.0
H960 H 0.43971 0.04011 0.78625 0.0
H961 H 0.4033 0.04133 0.84869 0.0
H962 H 0.41294 0.9774 0.91922 0.0
H963 H 0.44913 0.97628 0.85835 0.0
C964 C 0.34988 0.99027 0.9804 0.0
C965 C 0.34768 0.00614 0.02107 0.0
C966 C 0.36748 0.99206 0.93463 0.0
C967 C 0.38331 0.00981 0.92824 0.0
C968 C 0.3797 0.02663 0.96549 0.0
C969 C 0.36219 0.02473 0.01178 0.0
C970 C 0.43401 0.02633 0.8151 0.0
C971 C 0.44746 0.00813 0.81733 0.0
C972 C 0.41316 0.02705 0.85085 0.0
C973 C 0.40503 0.00937 0.88848 0.0
C974 C 0.41843 0.99117 0.8901 0.0
C975 C 0.43936 0.99061 0.85547 0.0
H976 H 0.49086 0.33549 0.94166 0.0
H977 H 0.42813 0.36519 1.00101 0.0
H978 H 0.49697 0.36246 0.85979 0.0
H979 H 0.4343 0.39233 0.91994 0.0
H980 H 0.4516 0.43924 0.76103 0.0
H981 H 0.43977 0.40505 0.81428 0.0
H982 H 0.50941 0.39976 0.87097 0.0
H983 H 0.52112 0.43349 0.81834 0.0
C984 C 0.47778 0.34716 0.93552 0.0
C985 C 0.4591 0.34832 0.9778 0.0
C986 C 0.48146 0.36283 0.88921 0.0
C987 C 0.46645 0.37989 0.88423 0.0
C988 C 0.44623 0.37949 0.9224 0.0
C989 C 0.44262 0.36387 0.96879 0.0
C990 C 0.46436 0.43066 0.78459 0.0
C991 C 0.48724 0.43923 0.78583 0.0
C992 C 0.45761 0.41108 0.81499 0.0
C993 C 0.47369 0.39952 0.84643 0.0
C994 C 0.49666 0.40794 0.8463 0.0
C995 C 0.5033 0.4275 0.81666 0.0
H996 H 0.14141 0.48976 0.06256 0.0
H997 H 0.18324 0.52011 0.91487 0.0
H998 H 0.11132 0.48007 0.99731 0.0
H999 H 0.15289 0.51059 0.84899 0.0
H1000 H 0.09294 0.48088 0.74671 0.0
H1001 H 0.12707 0.48111 0.80597 0.0
H1002 H 0.0858 0.50624 0.94897 0.0
H1003 H 0.05214 0.50617 0.89043 0.0
C1004 C 0.14444 0.49371 0.01567 0.0
C1005 C 0.16455 0.50564 0.99355 0.0
C1006 C 0.12717 0.48833 0.97842 0.0
C1007 C 0.12958 0.49489 0.91824 0.0
C1008 C 0.15061 0.50526 0.89515 0.0
C1009 C 0.16799 0.51065 0.93267 0.0
C1010 C 0.09119 0.48624 0.79103 0.0
C1011 C 0.06986 0.49353 0.81388 0.0
C1012 C 0.11071 0.48645 0.82475 0.0
C1013 C 0.10905 0.49352 0.88225 0.0
C1014 C 0.08758 0.50037 0.9052 0.0
C1015 C 0.0683 0.50048 0.87142 0.0
H1016 H 0.91559 0.80999 0.46187 0.0
H1017 H 0.94519 0.84986 0.31268 0.0
H1018 H 0.92451 0.83874 0.52728 0.0
H1019 H 0.95358 0.8782 0.37679 0.0
H1020 H 0.94048 0.93306 0.48827 0.0
H1021 H 0.92811 0.90219 0.43622 0.0
H1022 H 0.96056 0.86054 0.56047 0.0
H1023 H 0.97267 0.89145 0.61338 0.0
C1024 C 0.92411 0.82475 0.44326 0.0
C1025 C 0.92921 0.82788 0.38213 0.0
C1026 C 0.92912 0.84118 0.48045 0.0
C1027 C 0.93917 0.86088 0.45675 0.0
C1028 C 0.94519 0.86347 0.39609 0.0
C1029 C 0.94042 0.84718 0.35942 0.0
C1030 C 0.94457 0.91731 0.50524 0.0
C1031 C 0.95779 0.91473 0.55448 0.0
C1032 C 0.93763 0.89965 0.47524 0.0
C1033 C 0.94362 0.879 0.49398 0.0
C1034 C 0.95569 0.87625 0.54513 0.0
C1035 C 0.9628 0.89396 0.57496 0.0
H1036 H 0.67881 0.03204 0.43312 0.0
H1037 H 0.67025 0.96565 0.39853 0.0
H1038 H 0.64601 0.02816 0.50687 0.0
H1039 H 0.63709 0.96165 0.47289 0.0
H1040 H 0.58459 0.96444 0.64324 0.0
H1041 H 0.6216 0.96454 0.58263 0.0
H1042 H 0.6039 0.02264 0.48929 0.0
H1043 H 0.56732 0.02252 0.54861 0.0
C1044 C 0.67034 0.01641 0.44276 0.0
C1045 C 0.67718 0.99914 0.41016 0.0
C1046 C 0.65135 0.01423 0.48455 0.0
C1047 C 0.63858 0.99469 0.49504 0.0
C1048 C 0.64654 0.97692 0.46592 0.0
C1049 C 0.66563 0.97915 0.42364 0.0
C1050 C 0.5886 0.97717 0.60959 0.0
C1051 C 0.57289 0.99349 0.60107 0.0
C1052 C 0.60979 0.9772 0.57483 0.0
C1053 C 0.61591 0.99375 0.53157 0.0
C1054 C 0.60002 0.00985 0.52285 0.0
C1055 C 0.57887 0.00967 0.55676 0.0
H1056 H 0.59878 0.6366 0.4119 0.0
H1057 H 0.53145 0.66076 0.45777 0.0
H1058 H 0.59188 0.60808 0.48909 0.0
H1059 H 0.52459 0.63243 0.53586 0.0
H1060 H 0.50565 0.5602 0.5683 0.0
H1061 H 0.51636 0.59474 0.51919 0.0
H1062 H 0.58346 0.5938 0.59268 0.0
H1063 H 0.57266 0.55877 0.64242 0.0
C1064 C 0.58296 0.63639 0.44045 0.0
C1065 C 0.56557 0.65079 0.42856 0.0
C1066 C 0.57895 0.61999 0.48462 0.0
C1067 C 0.55743 0.61764 0.51767 0.0
C1068 C 0.54116 0.63354 0.51027 0.0
C1069 C 0.54522 0.65 0.46618 0.0
C1070 C 0.5227 0.56729 0.57436 0.0
C1071 C 0.53836 0.55656 0.60904 0.0
C1072 C 0.52873 0.58732 0.54671 0.0
C1073 C 0.55067 0.59724 0.5525 0.0
C1074 C 0.56639 0.58661 0.5874 0.0
C1075 C 0.56024 0.56654 0.61575 0.0
H1076 H 0.84514 0.46496 0.50739 0.0
H1077 H 0.8761 0.50966 0.3712 0.0
H1078 H 0.87331 0.47729 0.57541 0.0
H1079 H 0.90445 0.52186 0.43864 0.0
H1080 H 0.97033 0.49786 0.53241 0.0
H1081 H 0.93633 0.49697 0.47449 0.0
H1082 H 0.89246 0.50987 0.6282 0.0
H1083 H 0.92686 0.51127 0.68642 0.0
C1084 C 0.85726 0.47815 0.4931 0.0
C1085 C 0.85834 0.48662 0.43458 0.0
C1086 C 0.87344 0.48514 0.53179 0.0
C1087 C 0.89117 0.50038 0.51202 0.0
C1088 C 0.891 0.51004 0.45488 0.0
C1089 C 0.87467 0.50324 0.41653 0.0
C1090 C 0.9535 0.50082 0.55373 0.0
C1091 C 0.95123 0.50458 0.61393 0.0
C1092 C 0.93405 0.50047 0.52047 0.0
C1093 C 0.91178 0.50348 0.5468 0.0
C1094 C 0.90946 0.50759 0.60685 0.0
C1095 C 0.9291 0.50843 0.64 0.0
loop_
_geom_bond_atom_site_label_1
_geom_bond_atom_site_label_2
_geom_bond_distance
_geom_bond_site_symmetry_2
_ccdc_geom_bond_type
C0 C1 1.391 . S
C0 C4 1.391 . S
C0 H42 0.948 . S
C1 C0 1.391 . S
C1 C2 1.391 . S
C2 C1 1.391 . S
C2 H58 0.947 . S
C2 C59 1.392 . S
C3 C4 1.391 . S
C3 C7 1.397 . S
C3 C59 1.419 . S
C4 C0 1.391 . S
C4 C3 1.391 . S
C4 C5 1.399 . S
C5 C4 1.399 . S
C5 C8 1.396 . S
C5 C17 1.453 . S
C5 C18 1.684 . S
H6 C30 0.948 . S
C7 C3 1.397 . S
C7 C8 1.394 . S
C7 C26 1.723 . S
C8 C5 1.396 . S
C8 C7 1.394 . S
C8 C38 1.723 . S
H9 C32 0.947 . S
H10 C33 0.948 . S
H11 C39 0.982 1_554 S
H12 C40 0.975 1_554 S
H13 C40 0.980 . S
H14 C40 0.983 . S
H15 C39 0.979 . S
H16 C39 0.977 . S
C17 C5 1.453 . S
C17 H46 0.982 . S
C17 H47 0.979 . S
C17 H48 0.977 . S
C18 C5 1.684 . S
C18 H43 0.979 . S
C18 H44 0.980 . S
C18 H45 0.983 . S
C19 C20 1.391 1_554 S
C19 C24 1.391 . S
C19 H49 0.948 . S
C20 C19 1.391 1_556 S
C20 C21 1.391 . S
C21 C20 1.391 . S
C21 C22 1.392 . S
C21 H50 0.947 . S
C22 C21 1.392 . S
C22 C23 1.419 1_556 S
C22 H51 0.948 . S
C23 C22 1.419 1_554 S
C23 C24 1.391 . S
C23 C27 1.397 . S
C24 C19 1.391 . S
C24 C23 1.391 . S
C24 C25 1.399 . S
C25 C24 1.399 . S
C25 C26 1.396 . S
C25 C28 1.453 . S
C25 C29 1.684 . S
C26 C7 1.723 . S
C26 C25 1.396 . S
C26 C27 1.394 . S
C27 C23 1.397 . S
C27 C26 1.394 . S
C27 C37 1.723 . S
C28 C25 1.453 . S
C28 H52 0.982 . S
C28 H53 0.979 . S
C28 H54 0.977 . S
C29 C25 1.684 . S
C29 H55 0.979 . S
C29 H56 0.980 . S
C29 H57 0.983 . S
C30 H6 0.948 . S
C30 C31 1.391 . S
C30 C35 1.391 . S
C31 C30 1.391 . S
C31 C32 1.391 . S
C32 H9 0.947 . S
C32 C31 1.391 . S
C32 C33 1.392 . S
C33 H10 0.948 . S
C33 C32 1.392 . S
C33 C34 1.419 . S
C34 C33 1.419 . S
C34 C35 1.391 . S
C34 C38 1.397 . S
C35 C30 1.391 . S
C35 C34 1.391 . S
C35 C36 1.399 . S
C36 C35 1.399 . S
C36 C37 1.396 . S
C36 C39 1.453 1_554 S
C36 C40 1.684 1_554 S
C37 C27 1.723 . S
C37 C36 1.396 . S
C37 C38 1.394 . S
C38 C8 1.723 . S
C38 C34 1.397 . S
C38 C37 1.394 . S
C39 H11 0.982 1_556 S
C39 H15 0.979 . S
C39 H16 0.977 . S
C39 C36 1.453 1_556 S
C40 H12 0.975 1_556 S
C40 H13 0.980 . S
C40 H14 0.983 . S
C40 C36 1.684 1_556 S
H41 C59 0.948 . S
H42 C0 0.948 . S
H43 C18 0.979 . S
H44 C18 0.980 . S
H45 C18 0.983 . S
H46 C17 0.982 . S
H47 C17 0.979 . S
H48 C17 0.977 . S
H49 C19 0.948 . S
H50 C21 0.947 . S
H51 C22 0.948 . S
H52 C28 0.982 . S
H53 C28 0.979 . S
H54 C28 0.977 . S
H55 C29 0.979 . S
H56 C29 0.980 . S
H57 C29 0.983 . S
H58 C2 0.947 . S
C59 C2 1.392 . S
C59 C3 1.419 . S
C59 H41 0.948 . S
C60 C61 1.391 . S
C60 C64 1.391 . S
C60 H102 0.948 . S
C61 C60 1.391 . S
C61 C62 1.391 . S
C62 C61 1.391 . S
C62 H118 0.947 . S
C62 C119 1.392 . S
C63 C64 1.391 . S
C63 C67 1.397 . S
C63 C119 1.419 . S
C64 C60 1.391 . S
C64 C63 1.391 . S
C64 C65 1.399 . S
C65 C64 1.399 . S
C65 C68 1.396 . S
C65 C77 1.453 . S
C65 C78 1.684 . S
H66 C90 0.948 1_554 S
C67 C63 1.397 . S
C67 C68 1.394 . S
C67 C86 1.723 1_556 S
C68 C65 1.396 . S
C68 C67 1.394 . S
C68 C98 1.723 . S
H69 C92 0.947 . S
H70 C93 0.948 . S
H71 C99 0.982 . S
H72 C100 0.979 . S
H73 C100 0.980 . S
H74 C100 0.983 . S
H75 C99 0.979 . S
H76 C99 0.977 . S
C77 C65 1.453 . S
C77 H106 0.982 . S
C77 H107 0.979 . S
C77 H108 0.977 . S
C78 C65 1.684 . S
C78 H103 0.979 . S
C78 H104 0.980 . S
C78 H105 0.983 . S
C79 C80 1.391 . S
C79 C84 1.391 . S
C79 H109 0.948 . S
C80 C79 1.391 . S
C80 C81 1.391 . S
C81 C80 1.391 . S
C81 C82 1.392 . S
C81 H110 0.947 . S
C82 C81 1.392 . S
C82 C83 1.419 . S
C82 H111 0.948 . S
C83 C82 1.419 . S
C83 C84 1.391 . S
C83 C87 1.397 . S
C84 C79 1.391 . S
C84 C83 1.391 . S
C84 C85 1.399 . S
C85 C84 1.399 . S
C85 C86 1.396 . S
C85 C88 1.453 . S
C85 C89 1.684 . S
C86 C67 1.723 1_554 S
C86 C85 1.396 . S
C86 C87 1.394 . S
C87 C83 1.397 . S
C87 C86 1.394 . S
C87 C97 1.723 . S
C88 C85 1.453 . S
C88 H112 0.982 . S
C88 H113 0.979 . S
C88 H114 0.977 . S
C89 C85 1.684 . S
C89 H115 0.979 . S
C89 H116 0.980 . S
C89 H117 0.983 . S
C90 H66 0.948 1_556 S
C90 C91 1.391 . S
C90 C95 1.391 1_556 S
C91 C90 1.391 . S
C91 C92 1.391 . S
C92 H69 0.947 . S
C92 C91 1.391 . S
C92 C93 1.392 . S
C93 H70 0.948 . S
C93 C92 1.392 . S
C93 C94 1.419 . S
C94 C93 1.419 . S
C94 C95 1.391 1_556 S
C94 C98 1.397 . S
C95 C90 1.391 1_554 S
C95 C94 1.391 1_554 S
C95 C96 1.399 . S
C96 C95 1.399 . S
C96 C97 1.396 . S
C96 C99 1.453 . S
C96 C100 1.684 . S
C97 C87 1.723 . S
C97 C96 1.396 . S
C97 C98 1.394 1_554 S
C98 C68 1.723 . S
C98 C94 1.397 . S
C98 C97 1.394 1_556 S
C99 H71 0.982 . S
C99 H75 0.979 . S
C99 H76 0.977 . S
C99 C96 1.453 . S
C100 H72 0.979 . S
C100 H73 0.980 . S
C100 H74 0.983 . S
C100 C96 1.684 . S
H101 C119 0.948 . S
H102 C60 0.948 . S
H103 C78 0.979 . S
H104 C78 0.980 . S
H105 C78 0.983 . S
H106 C77 0.982 . S
H107 C77 0.979 . S
H108 C77 0.977 . S
H109 C79 0.948 . S
H110 C81 0.947 . S
H111 C82 0.948 . S
H112 C88 0.982 . S
H113 C88 0.979 . S
H114 C88 0.977 . S
H115 C89 0.979 . S
H116 C89 0.980 . S
H117 C89 0.983 . S
H118 C62 0.947 . S
C119 C62 1.392 . S
C119 C63 1.419 . S
C119 H101 0.948 . S
C120 C121 1.391 . S
C120 C124 1.391 . S
C120 H162 0.948 . S
C121 C120 1.391 . S
C121 C122 1.391 1_554 S
C122 C121 1.391 1_556 S
C122 H178 0.947 . S
C122 C179 1.392 . S
C123 C124 1.391 . S
C123 C127 1.397 1_565 S
C123 C179 1.419 1_554 S
C124 C120 1.391 . S
C124 C123 1.391 . S
C124 C125 1.399 . S
C125 C124 1.399 . S
C125 C128 1.386 1_565 S
C125 C137 1.453 1_565 S
C125 C138 1.684 . S
H126 C150 0.948 . S
C127 C123 1.397 1_545 S
C127 C128 1.390 . S
C127 C146 1.722 . S
C128 C125 1.386 1_545 S
C128 C127 1.390 . S
C128 C158 1.725 . S
H129 C152 0.947 . S
H130 C153 0.948 . S
H131 C159 0.982 . S
H132 C160 0.979 . S
H133 C160 0.980 . S
H134 C160 0.983 . S
H135 C159 0.979 . S
H136 C159 0.977 . S
C137 C125 1.453 1_545 S
C137 H166 0.982 . S
C137 H167 0.979 . S
C137 H168 0.977 . S
C138 C125 1.684 . S
C138 H163 0.979 . S
C138 H164 0.980 . S
C138 H165 0.983 . S
C139 C140 1.391 . S
C139 C144 1.391 . S
C139 H169 0.948 . S
C140 C139 1.391 . S
C140 C141 1.391 . S
C141 C140 1.391 . S
C141 C142 1.392 1_556 S
C141 H170 0.947 . S
C142 C141 1.392 1_554 S
C142 C143 1.419 . S
C142 H171 0.948 . S
C143 C142 1.419 . S
C143 C144 1.391 1_554 S
C143 C147 1.397 1_565 S
C144 C139 1.391 . S
C144 C143 1.391 1_556 S
C144 C145 1.399 . S
C145 C144 1.399 . S
C145 C146 1.386 1_566 S
C145 C148 1.453 1_565 S
C145 C149 1.684 . S
C146 C127 1.722 . S
C146 C145 1.386 1_544 S
C146 C147 1.397 . S
C147 C143 1.397 1_545 S
C147 C146 1.397 . S
C147 C157 1.718 . S
C148 C145 1.453 1_545 S
C148 H172 0.982 . S
C148 H173 0.979 . S
C148 H174 0.977 . S
C149 C145 1.684 . S
C149 H175 0.979 . S
C149 H176 0.980 . S
C149 H177 0.983 . S
C150 H126 0.948 . S
C150 C151 1.391 . S
C150 C155 1.391 . S
C151 C150 1.391 . S
C151 C152 1.391 . S
C152 H129 0.947 . S
C152 C151 1.391 . S
C152 C153 1.392 . S
C153 H130 0.948 . S
C153 C152 1.392 . S
C153 C154 1.419 . S
C154 C153 1.419 . S
C154 C155 1.391 . S
C154 C158 1.397 1_565 S
C155 C150 1.391 . S
C155 C154 1.391 . S
C155 C156 1.399 . S
C156 C155 1.399 . S
C156 C157 1.392 1_565 S
C156 C159 1.453 1_565 S
C156 C160 1.684 . S
C157 C147 1.718 . S
C157 C156 1.392 1_545 S
C157 C158 1.392 . S
C158 C128 1.725 . S
C158 C154 1.397 1_545 S
C158 C157 1.392 . S
C159 H131 0.982 . S
C159 H135 0.979 . S
C159 H136 0.977 . S
C159 C156 1.453 1_545 S
C160 H132 0.979 . S
C160 H133 0.980 . S
C160 H134 0.983 . S
C160 C156 1.684 . S
H161 C179 0.948 . S
H162 C120 0.948 . S
H163 C138 0.979 . S
H164 C138 0.980 . S
H165 C138 0.983 . S
H166 C137 0.982 . S
H167 C137 0.979 . S
H168 C137 0.977 . S
H169 C139 0.948 . S
H170 C141 0.947 . S
H171 C142 0.948 . S
H172 C148 0.982 . S
H173 C148 0.979 . S
H174 C148 0.977 . S
H175 C149 0.979 . S
H176 C149 0.980 . S
H177 C149 0.983 . S
H178 C122 0.947 . S
C179 C122 1.392 . S
C179 C123 1.419 1_556 S
C179 H161 0.948 . S
C180 C181 1.391 . S
C180 C184 1.391 . S
C180 H222 0.948 . S
C181 C180 1.391 . S
C181 C182 1.391 . S
C182 C181 1.391 . S
C182 H238 0.947 . S
C182 C239 1.392 . S
C183 C184 1.391 . S
C183 C187 1.397 . S
C183 C239 1.419 . S
C184 C180 1.391 . S
C184 C183 1.391 . S
C184 C185 1.399 . S
C185 C184 1.399 . S
C185 C188 1.396 . S
C185 C197 1.453 . S
C185 C198 1.684 . S
H186 C210 0.948 1_556 S
C187 C183 1.397 . S
C187 C188 1.394 . S
C187 C206 1.723 . S
C188 C185 1.396 . S
C188 C187 1.394 . S
C188 C218 1.723 . S
H189 C212 0.947 . S
H190 C213 0.948 . S
H191 C219 0.982 . S
H192 C220 0.979 . S
H193 C220 0.980 . S
H194 C220 0.983 . S
H195 C219 0.979 . S
H196 C219 0.977 . S
C197 C185 1.453 . S
C197 H226 0.982 . S
C197 H227 0.979 . S
C197 H228 0.977 . S
C198 C185 1.684 . S
C198 H223 0.979 . S
C198 H224 0.980 . S
C198 H225 0.983 . S
C199 C200 1.391 . S
C199 C204 1.391 1_556 S
C199 H229 0.948 . S
C200 C199 1.391 . S
C200 C201 1.391 . S
C201 C200 1.391 . S
C201 C202 1.392 . S
C201 H230 0.947 . S
C202 C201 1.392 . S
C202 C203 1.419 . S
C202 H231 0.948 . S
C203 C202 1.419 . S
C203 C204 1.391 1_556 S
C203 C207 1.397 1_556 S
C204 C199 1.391 1_554 S
C204 C203 1.391 1_554 S
C204 C205 1.399 . S
C205 C204 1.399 . S
C205 C206 1.396 . S
C205 C208 1.453 . S
C205 C209 1.684 . S
C206 C187 1.723 . S
C206 C205 1.396 . S
C206 C207 1.394 . S
C207 C203 1.397 1_554 S
C207 C206 1.394 . S
C207 C217 1.723 . S
C208 C205 1.453 . S
C208 H232 0.982 . S
C208 H233 0.979 . S
C208 H234 0.977 . S
C209 C205 1.684 . S
C209 H235 0.979 . S
C209 H236 0.980 . S
C209 H237 0.983 . S
C210 H186 0.948 1_554 S
C210 C211 1.391 . S
C210 C215 1.391 . S
C211 C210 1.391 . S
C211 C212 1.391 . S
C212 H189 0.947 . S
C212 C211 1.391 . S
C212 C213 1.392 . S
C213 H190 0.948 . S
C213 C212 1.392 . S
C213 C214 1.419 . S
C214 C213 1.419 . S
C214 C215 1.391 . S
C214 C218 1.397 . S
C215 C210 1.391 . S
C215 C214 1.391 . S
C215 C216 1.399 1_554 S
C216 C215 1.399 1_556 S
C216 C217 1.396 1_556 S
C216 C219 1.453 . S
C216 C220 1.684 . S
C217 C207 1.723 . S
C217 C216 1.396 1_554 S
C217 C218 1.394 . S
C218 C188 1.723 . S
C218 C214 1.397 . S
C218 C217 1.394 . S
C219 H191 0.982 . S
C219 H195 0.979 . S
C219 H196 0.977 . S
C219 C216 1.453 . S
C220 H192 0.979 . S
C220 H193 0.980 . S
C220 H194 0.983 . S
C220 C216 1.684 . S
H221 C239 0.948 . S
H222 C180 0.948 . S
H223 C198 0.979 . S
H224 C198 0.980 . S
H225 C198 0.983 . S
H226 C197 0.982 . S
H227 C197 0.979 . S
H228 C197 0.977 . S
H229 C199 0.948 . S
H230 C201 0.947 . S
H231 C202 0.948 . S
H232 C208 0.982 . S
H233 C208 0.979 . S
H234 C208 0.977 . S
H235 C209 0.979 . S
H236 C209 0.980 . S
H237 C209 0.983 . S
H238 C182 0.947 . S
C239 C182 1.392 . S
C239 C183 1.419 . S
C239 H221 0.948 . S
C240 C241 1.391 . S
C240 C244 1.391 . S
C240 H282 0.948 . S
C241 C240 1.391 . S
C241 C242 1.391 . S
C242 C241 1.391 . S
C242 H298 0.947 . S
C242 C299 1.392 . S
C243 C244 1.391 . S
C243 C247 1.397 . S
C243 C299 1.419 . S
C244 C240 1.391 . S
C244 C243 1.391 . S
C244 C245 1.399 . S
C245 C244 1.399 . S
C245 C248 1.396 . S
C245 C257 1.453 . S
C245 C258 1.684 . S
H246 C270 0.948 . S
C247 C243 1.397 . S
C247 C248 1.394 . S
C247 C266 1.723 . S
C248 C245 1.396 . S
C248 C247 1.394 . S
C248 C278 1.723 . S
H249 C272 0.947 . S
H250 C273 0.948 . S
H251 C279 0.982 . S
H252 C280 0.979 . S
H253 C280 0.980 . S
H254 C280 0.983 . S
H255 C279 0.979 . S
H256 C279 0.977 . S
C257 C245 1.453 . S
C257 H286 0.982 . S
C257 H287 0.979 . S
C257 H288 0.977 . S
C258 C245 1.684 . S
C258 H283 0.979 . S
C258 H284 0.980 . S
C258 H285 0.983 . S
C259 C260 1.391 . S
C259 C264 1.391 . S
C259 H289 0.948 . S
C260 C259 1.391 . S
C260 C261 1.391 . S
C261 C260 1.391 . S
C261 C262 1.392 . S
C261 H290 0.947 . S
C262 C261 1.392 . S
C262 C263 1.419 . S
C262 H291 0.948 . S
C263 C262 1.419 . S
C263 C264 1.391 . S
C263 C267 1.397 . S
C264 C259 1.391 . S
C264 C263 1.391 . S
C264 C265 1.399 . S
C265 C264 1.399 . S
C265 C266 1.396 . S
C265 C268 1.453 . S
C265 C269 1.684 . S
C266 C247 1.723 . S
C266 C265 1.396 . S
C266 C267 1.394 . S
C267 C263 1.397 . S
C267 C266 1.394 . S
C267 C277 1.723 . S
C268 C265 1.453 . S
C268 H292 0.982 . S
C268 H293 0.979 . S
C268 H294 0.977 . S
C269 C265 1.684 . S
C269 H295 0.979 . S
C269 H296 0.980 . S
C269 H297 0.983 . S
C270 H246 0.948 . S
C270 C271 1.391 . S
C270 C275 1.391 . S
C271 C270 1.391 . S
C271 C272 1.391 . S
C272 H249 0.947 . S
C272 C271 1.391 . S
C272 C273 1.392 . S
C273 H250 0.948 . S
C273 C272 1.392 . S
C273 C274 1.419 . S
C274 C273 1.419 . S
C274 C275 1.391 . S
C274 C278 1.397 . S
C275 C270 1.391 . S
C275 C274 1.391 . S
C275 C276 1.399 . S
C276 C275 1.399 . S
C276 C277 1.396 . S
C276 C279 1.453 . S
C276 C280 1.684 . S
C277 C267 1.723 . S
C277 C276 1.396 . S
C277 C278 1.394 . S
C278 C248 1.723 . S
C278 C274 1.397 . S
C278 C277 1.394 . S
C279 H251 0.982 . S
C279 H255 0.979 . S
C279 H256 0.977 . S
C279 C276 1.453 . S
C280 H252 0.979 . S
C280 H253 0.980 . S
C280 H254 0.983 . S
C280 C276 1.684 . S
H281 C299 0.948 . S
H282 C240 0.948 . S
H283 C258 0.979 . S
H284 C258 0.980 . S
H285 C258 0.983 . S
H286 C257 0.982 . S
H287 C257 0.979 . S
H288 C257 0.977 . S
H289 C259 0.948 . S
H290 C261 0.947 . S
H291 C262 0.948 . S
H292 C268 0.982 . S
H293 C268 0.979 . S
H294 C268 0.977 . S
H295 C269 0.979 . S
H296 C269 0.980 . S
H297 C269 0.983 . S
H298 C242 0.947 . S
C299 C242 1.392 . S
C299 C243 1.419 . S
C299 H281 0.948 . S
C300 C301 1.391 . S
C300 C304 1.391 . S
C300 H342 0.948 . S
C301 C300 1.391 . S
C301 C302 1.391 . S
C302 C301 1.391 . S
C302 H358 0.947 . S
C302 C359 1.392 . S
C303 C304 1.391 . S
C303 C307 1.397 . S
C303 C359 1.419 . S
C304 C300 1.391 . S
C304 C303 1.391 . S
C304 C305 1.399 . S
C305 C304 1.399 . S
C305 C308 1.396 . S
C305 C317 1.453 . S
C305 C318 1.684 . S
H306 C330 0.948 . S
C307 C303 1.397 . S
C307 C308 1.394 . S
C307 C326 1.723 . S
C308 C305 1.396 . S
C308 C307 1.394 . S
C308 C338 1.723 . S
H309 C332 0.947 . S
H310 C333 0.948 . S
H311 C339 0.982 . S
H312 C340 0.979 . S
H313 C340 0.980 . S
H314 C340 0.983 . S
H315 C339 0.979 . S
H316 C339 0.977 . S
C317 C305 1.453 . S
C317 H346 0.982 . S
C317 H347 0.979 . S
C317 H348 0.977 . S
C318 C305 1.684 . S
C318 H343 0.979 . S
C318 H344 0.980 . S
C318 H345 0.983 . S
C319 C320 1.391 . S
C319 C324 1.391 . S
C319 H349 0.948 . S
C320 C319 1.391 . S
C320 C321 1.391 . S
C321 C320 1.391 . S
C321 C322 1.392 . S
C321 H350 0.947 . S
C322 C321 1.392 . S
C322 C323 1.419 . S
C322 H351 0.948 . S
C323 C322 1.419 . S
C323 C324 1.391 . S
C323 C327 1.397 . S
C324 C319 1.391 . S
C324 C323 1.391 . S
C324 C325 1.399 . S
C325 C324 1.399 . S
C325 C326 1.396 . S
C325 C328 1.453 . S
C325 C329 1.684 . S
C326 C307 1.723 . S
C326 C325 1.396 . S
C326 C327 1.394 . S
C327 C323 1.397 . S
C327 C326 1.394 . S
C327 C337 1.723 . S
C328 C325 1.453 . S
C328 H352 0.982 . S
C328 H353 0.979 . S
C328 H354 0.977 . S
C329 C325 1.684 . S
C329 H355 0.979 . S
C329 H356 0.980 . S
C329 H357 0.983 . S
C330 H306 0.948 . S
C330 C331 1.391 . S
C330 C335 1.391 . S
C331 C330 1.391 . S
C331 C332 1.391 . S
C332 H309 0.947 . S
C332 C331 1.391 . S
C332 C333 1.392 . S
C333 H310 0.948 . S
C333 C332 1.392 . S
C333 C334 1.419 . S
C334 C333 1.419 . S
C334 C335 1.391 . S
C334 C338 1.397 . S
C335 C330 1.391 . S
C335 C334 1.391 . S
C335 C336 1.399 . S
C336 C335 1.399 . S
C336 C337 1.396 . S
C336 C339 1.453 . S
C336 C340 1.684 . S
C337 C327 1.723 . S
C337 C336 1.396 . S
C337 C338 1.394 . S
C338 C308 1.723 . S
C338 C334 1.397 . S
C338 C337 1.394 . S
C339 H311 0.982 . S
C339 H315 0.979 . S
C339 H316 0.977 . S
C339 C336 1.453 . S
C340 H312 0.979 . S
C340 H313 0.980 . S
C340 H314 0.983 . S
C340 C336 1.684 . S
H341 C359 0.948 . S
H342 C300 0.948 . S
H343 C318 0.979 . S
H344 C318 0.980 . S
H345 C318 0.983 . S
H346 C317 0.982 . S
H347 C317 0.979 . S
H348 C317 0.977 . S
H349 C319 0.948 . S
H350 C321 0.947 . S
H351 C322 0.948 . S
H352 C328 0.982 . S
H353 C328 0.979 . S
H354 C328 0.977 . S
H355 C329 0.979 . S
H356 C329 0.980 . S
H357 C329 0.983 . S
H358 C302 0.947 . S
C359 C302 1.392 . S
C359 C303 1.419 . S
C359 H341 0.948 . S
C360 C361 1.391 . S
C360 C364 1.391 . S
C360 H402 0.948 . S
C361 C360 1.391 . S
C361 C362 1.391 . S
C362 C361 1.391 . S
C362 H418 0.947 . S
C362 C419 1.392 . S
C363 C364 1.391 . S
C363 C367 1.397 1_545 S
C363 C419 1.419 . S
C364 C360 1.391 . S
C364 C363 1.391 . S
C364 C365 1.399 . S
C365 C364 1.399 . S
C365 C368 1.390 1_545 S
C365 C377 1.453 1_545 S
C365 C378 1.684 . S
H366 C390 0.948 . S
C367 C363 1.397 1_565 S
C367 C368 1.395 . S
C367 C386 1.723 . S
C368 C365 1.390 1_565 S
C368 C367 1.395 . S
C368 C398 1.718 . S
H369 C392 0.947 . S
H370 C393 0.948 . S
H371 C399 0.982 . S
H372 C400 0.979 . S
H373 C400 0.980 . S
H374 C400 0.983 . S
H375 C399 0.979 . S
H376 C399 0.977 . S
C377 C365 1.453 1_565 S
C377 H406 0.982 . S
C377 H407 0.979 . S
C377 H408 0.977 . S
C378 C365 1.684 . S
C378 H403 0.979 . S
C378 H404 0.980 . S
C378 H405 0.983 . S
C379 C380 1.391 . S
C379 C384 1.391 . S
C379 H409 0.948 . S
C380 C379 1.391 . S
C380 C381 1.391 . S
C381 C380 1.391 . S
C381 C382 1.392 . S
C381 H410 0.947 . S
C382 C381 1.392 . S
C382 C383 1.419 . S
C382 H411 0.948 . S
C383 C382 1.419 . S
C383 C384 1.391 . S
C383 C387 1.397 1_545 S
C384 C379 1.391 . S
C384 C383 1.391 . S
C384 C385 1.399 . S
C385 C384 1.399 . S
C385 C386 1.389 1_545 S
C385 C388 1.453 1_545 S
C385 C389 1.684 . S
C386 C367 1.723 . S
C386 C385 1.389 1_565 S
C386 C387 1.389 . S
C387 C383 1.397 1_565 S
C387 C386 1.389 . S
C387 C397 1.725 . S
C388 C385 1.453 1_565 S
C388 H412 0.982 . S
C388 H413 0.979 . S
C388 H414 0.977 . S
C389 C385 1.684 . S
C389 H415 0.979 . S
C389 H416 0.980 . S
C389 H417 0.983 . S
C390 H366 0.948 . S
C390 C391 1.391 . S
C390 C395 1.391 . S
C391 C390 1.391 . S
C391 C392 1.391 . S
C392 H369 0.947 . S
C392 C391 1.391 . S
C392 C393 1.392 . S
C393 H370 0.948 . S
C393 C392 1.392 . S
C393 C394 1.419 . S
C394 C393 1.419 . S
C394 C395 1.391 . S
C394 C398 1.397 1_545 S
C395 C390 1.391 . S
C395 C394 1.391 . S
C395 C396 1.399 . S
C396 C395 1.399 . S
C396 C397 1.384 1_545 S
C396 C399 1.453 1_545 S
C396 C400 1.684 . S
C397 C387 1.725 . S
C397 C396 1.384 1_565 S
C397 C398 1.395 . S
C398 C368 1.718 . S
C398 C394 1.397 1_565 S
C398 C397 1.395 . S
C399 H371 0.982 . S
C399 H375 0.979 . S
C399 H376 0.977 . S
C399 C396 1.453 1_565 S
C400 H372 0.979 . S
C400 H373 0.980 . S
C400 H374 0.983 . S
C400 C396 1.684 . S
H401 C419 0.948 . S
H402 C360 0.948 . S
H403 C378 0.979 . S
H404 C378 0.980 . S
H405 C378 0.983 . S
H406 C377 0.982 . S
H407 C377 0.979 . S
H408 C377 0.977 . S
H409 C379 0.948 . S
H410 C381 0.947 . S
H411 C382 0.948 . S
H412 C388 0.982 . S
H413 C388 0.979 . S
H414 C388 0.977 . S
H415 C389 0.979 . S
H416 C389 0.980 . S
H417 C389 0.983 . S
H418 C362 0.947 . S
C419 C362 1.392 . S
C419 C363 1.419 . S
C419 H401 0.948 . S
C420 C421 1.391 . S
C420 C424 1.391 . S
C420 H462 0.948 . S
C421 C420 1.391 . S
C421 C422 1.391 . S
C422 C421 1.391 . S
C422 H478 0.947 . S
C422 C479 1.392 . S
C423 C424 1.391 . S
C423 C427 1.397 . S
C423 C479 1.419 . S
C424 C420 1.391 . S
C424 C423 1.391 . S
C424 C425 1.399 . S
C425 C424 1.399 . S
C425 C428 1.396 . S
C425 C437 1.453 . S
C425 C438 1.684 . S
H426 C450 0.948 . S
C427 C423 1.397 . S
C427 C428 1.394 . S
C427 C446 1.723 . S
C428 C425 1.396 . S
C428 C427 1.394 . S
C428 C458 1.723 . S
H429 C452 0.947 . S
H430 C453 0.948 . S
H431 C459 0.982 . S
H432 C460 0.979 . S
H433 C460 0.980 . S
H434 C460 0.983 . S
H435 C459 0.979 . S
H436 C459 0.977 . S
C437 C425 1.453 . S
C437 H466 0.982 . S
C437 H467 0.979 . S
C437 H468 0.977 . S
C438 C425 1.684 . S
C438 H463 0.979 . S
C438 H464 0.980 . S
C438 H465 0.983 . S
C439 C440 1.391 . S
C439 C444 1.391 . S
C439 H469 0.948 . S
C440 C439 1.391 . S
C440 C441 1.391 . S
C441 C440 1.391 . S
C441 C442 1.392 . S
C441 H470 0.947 . S
C442 C441 1.392 . S
C442 C443 1.419 . S
C442 H471 0.948 . S
C443 C442 1.419 . S
C443 C444 1.391 . S
C443 C447 1.397 . S
C444 C439 1.391 . S
C444 C443 1.391 . S
C444 C445 1.399 . S
C445 C444 1.399 . S
C445 C446 1.396 . S
C445 C448 1.453 . S
C445 C449 1.684 . S
C446 C427 1.723 . S
C446 C445 1.396 . S
C446 C447 1.394 . S
C447 C443 1.397 . S
C447 C446 1.394 . S
C447 C457 1.723 . S
C448 C445 1.453 . S
C448 H472 0.982 . S
C448 H473 0.979 . S
C448 H474 0.977 . S
C449 C445 1.684 . S
C449 H475 0.979 . S
C449 H476 0.980 . S
C449 H477 0.983 . S
C450 H426 0.948 . S
C450 C451 1.391 . S
C450 C455 1.391 . S
C451 C450 1.391 . S
C451 C452 1.391 . S
C452 H429 0.947 . S
C452 C451 1.391 . S
C452 C453 1.392 . S
C453 H430 0.948 . S
C453 C452 1.392 . S
C453 C454 1.419 . S
C454 C453 1.419 . S
C454 C455 1.391 . S
C454 C458 1.397 . S
C455 C450 1.391 . S
C455 C454 1.391 . S
C455 C456 1.399 . S
C456 C455 1.399 . S
C456 C457 1.396 . S
C456 C459 1.453 . S
C456 C460 1.684 . S
C457 C447 1.723 . S
C457 C456 1.396 . S
C457 C458 1.394 . S
C458 C428 1.723 . S
C458 C454 1.397 . S
C458 C457 1.394 . S
C459 H431 0.982 . S
C459 H435 0.979 . S
C459 H436 0.977 . S
C459 C456 1.453 . S
C460 H432 0.979 . S
C460 H433 0.980 . S
C460 H434 0.983 . S
C460 C456 1.684 . S
H461 C479 0.948 . S
H462 C420 0.948 . S
H463 C438 0.979 . S
H464 C438 0.980 . S
H465 C438 0.983 . S
H466 C437 0.982 . S
H467 C437 0.979 . S
H468 C437 0.977 . S
H469 C439 0.948 . S
H470 C441 0.947 . S
H471 C442 0.948 . S
H472 C448 0.982 . S
H473 C448 0.979 . S
H474 C448 0.977 . S
H475 C449 0.979 . S
H476 C449 0.980 . S
H477 C449 0.983 . S
H478 C422 0.947 . S
C479 C422 1.392 . S
C479 C423 1.419 . S
C479 H461 0.948 . S
C480 O496 1.251 . S
C480 O498 1.254 1_655 S
N481 C482 1.333 . S
N481 C486 1.307 . S
N481 Zn487 2.020 . S
C482 N481 1.333 . S
C482 C483 1.379 . S
C482 H500 0.952 . S
C483 C482 1.379 . S
C483 C484 1.390 . S
C483 H510 0.949 . S
C484 C483 1.390 . S
C484 C485 1.357 . S
C485 C484 1.357 . S
C485 C486 1.370 . S
C485 H511 0.950 . S
C486 N481 1.307 . S
C486 C485 1.370 . S
C486 H504 0.949 . S
Zn487 N481 2.020 . S
Zn487 O496 2.039 . S
Zn487 O502 2.034 1_655 S
Zn487 O506 2.023 1_665 S
Zn487 O508 2.035 . S
C488 O507 1.246 . S
C488 O508 1.235 1_545 S
N489 C490 1.307 . S
N489 C491 1.333 . S
N489 Zn495 2.020 . S
C490 N489 1.307 . S
C490 C494 1.370 . S
C490 H501 0.962 . S
C491 N489 1.333 . S
C491 C492 1.379 . S
C491 H499 0.952 . S
C492 C491 1.379 . S
C492 C493 1.390 . S
C492 H512 0.949 . S
C493 C492 1.390 . S
C493 C494 1.357 . S
C494 C490 1.370 . S
C494 C493 1.357 . S
C494 H513 0.950 . S
Zn495 N489 2.020 . S
Zn495 O498 2.025 1_545 S
Zn495 O503 2.039 . S
Zn495 O505 2.039 . S
Zn495 O507 2.034 1_455 S
O496 C480 1.251 . S
O496 Zn487 2.039 . S
C497 O502 1.246 . S
C497 O503 1.229 1_565 S
O498 C480 1.254 1_455 S
O498 Zn495 2.025 1_565 S
H499 C491 0.952 . S
H500 C482 0.952 . S
H501 C490 0.962 . S
O502 Zn487 2.034 1_455 S
O502 C497 1.246 . S
O503 Zn495 2.039 . S
O503 C497 1.229 1_545 S
H504 C486 0.949 . S
O505 Zn495 2.039 . S
O505 C509 1.251 . S
O506 Zn487 2.023 1_445 S
O506 C509 1.262 . S
O507 C488 1.246 . S
O507 Zn495 2.034 1_655 S
O508 Zn487 2.035 . S
O508 C488 1.235 1_565 S
C509 O505 1.251 . S
C509 O506 1.262 . S
H510 C483 0.949 . S
H511 C485 0.950 . S
H512 C492 0.949 . S
H513 C494 0.950 . S
C514 O530 1.251 1_565 S
C514 O532 1.254 . S
N515 C516 1.333 . S
N515 C520 1.307 . S
N515 Zn521 2.020 . S
C516 N515 1.333 . S
C516 C517 1.379 . S
C516 H534 0.952 . S
C517 C516 1.379 . S
C517 C518 1.390 . S
C517 H544 0.949 . S
C518 C517 1.390 . S
C518 C519 1.357 . S
C519 C518 1.357 . S
C519 C520 1.370 . S
C519 H545 0.950 . S
C520 N515 1.307 . S
C520 C519 1.370 . S
C520 H538 0.948 . S
Zn521 N515 2.020 . S
Zn521 O530 2.039 . S
Zn521 O536 2.034 . S
Zn521 O540 2.025 . S
Zn521 O542 2.024 . S
C522 O541 1.246 1_545 S
C522 O542 1.249 . S
N523 C524 1.307 . S
N523 C525 1.333 . S
N523 Zn529 2.020 . S
C524 N523 1.307 . S
C524 C528 1.370 . S
C524 H535 0.948 . S
C525 N523 1.333 . S
C525 C526 1.379 . S
C525 H533 0.952 . S
C526 C525 1.379 . S
C526 C527 1.390 . S
C526 H546 0.949 . S
C527 C526 1.390 . S
C527 C528 1.357 . S
C528 C524 1.370 . S
C528 C527 1.357 . S
C528 H547 0.950 . S
Zn529 N523 2.020 . S
Zn529 O532 2.025 . S
Zn529 O537 2.024 . S
Zn529 O539 2.039 . S
Zn529 O541 2.034 . S
O530 C514 1.251 1_545 S
O530 Zn521 2.039 . S
C531 O536 1.246 1_565 S
C531 O537 1.249 . S
O532 C514 1.254 . S
O532 Zn529 2.025 . S
H533 C525 0.952 . S
H534 C516 0.952 . S
H535 C524 0.948 . S
O536 Zn521 2.034 . S
O536 C531 1.246 1_545 S
O537 Zn529 2.024 . S
O537 C531 1.249 . S
H538 C520 0.948 . S
O539 Zn529 2.039 . S
O539 C543 1.251 1_565 S
O540 Zn521 2.025 . S
O540 C543 1.254 . S
O541 C522 1.246 1_565 S
O541 Zn529 2.034 . S
O542 Zn521 2.024 . S
O542 C522 1.249 . S
C543 O539 1.251 1_545 S
C543 O540 1.254 . S
H544 C517 0.949 . S
H545 C519 0.950 . S
H546 C526 0.949 . S
H547 C528 0.950 . S
C548 O564 1.251 . S
C548 O566 1.254 . S
N549 C550 1.333 . S
N549 C554 1.307 . S
N549 Zn555 2.020 . S
C550 N549 1.333 . S
C550 C551 1.379 . S
C550 H568 0.952 . S
C551 C550 1.379 . S
C551 C552 1.390 . S
C551 H578 0.949 . S
C552 C551 1.390 . S
C552 C553 1.357 . S
C553 C552 1.357 . S
C553 C554 1.370 . S
C553 H579 0.950 . S
C554 N549 1.307 . S
C554 C553 1.370 . S
C554 H572 0.948 . S
Zn555 N549 2.020 . S
Zn555 O564 2.039 . S
Zn555 O570 2.034 . S
Zn555 O574 2.025 . S
Zn555 O576 2.024 . S
C556 O575 1.246 . S
C556 O576 1.249 . S
N557 C558 1.307 . S
N557 C559 1.333 . S
N557 Zn563 2.020 . S
C558 N557 1.307 . S
C558 C562 1.370 . S
C558 H569 0.948 . S
C559 N557 1.333 . S
C559 C560 1.379 . S
C559 H567 0.952 . S
C560 C559 1.379 . S
C560 C561 1.390 . S
C560 H580 0.949 . S
C561 C560 1.390 . S
C561 C562 1.357 . S
C562 C558 1.370 . S
C562 C561 1.357 . S
C562 H581 0.950 . S
Zn563 N557 2.020 . S
Zn563 O566 2.025 . S
Zn563 O571 2.024 . S
Zn563 O573 2.039 . S
Zn563 O575 2.034 . S
O564 C548 1.251 . S
O564 Zn555 2.039 . S
C565 O570 1.246 . S
C565 O571 1.249 . S
O566 C548 1.254 . S
O566 Zn563 2.025 . S
H567 C559 0.952 . S
H568 C550 0.952 . S
H569 C558 0.948 . S
O570 Zn555 2.034 . S
O570 C565 1.246 . S
O571 Zn563 2.024 . S
O571 C565 1.249 . S
H572 C554 0.948 . S
O573 Zn563 2.039 . S
O573 C577 1.251 . S
O574 Zn555 2.025 . S
O574 C577 1.254 . S
O575 C556 1.246 . S
O575 Zn563 2.034 . S
O576 Zn555 2.024 . S
O576 C556 1.249 . S
C577 O573 1.251 . S
C577 O574 1.254 . S
H578 C551 0.949 . S
H579 C553 0.950 . S
H580 C560 0.949 . S
H581 C562 0.950 . S
C582 O598 1.251 . S
C582 O600 1.254 . S
N583 C584 1.333 . S
N583 C588 1.307 . S
N583 Zn589 2.020 . S
C584 N583 1.333 . S
C584 C585 1.379 . S
C584 H602 0.952 . S
C585 C584 1.379 . S
C585 C586 1.390 . S
C585 H612 0.949 . S
C586 C585 1.390 . S
C586 C587 1.357 . S
C587 C586 1.357 . S
C587 C588 1.370 . S
C587 H613 0.950 . S
C588 N583 1.307 . S
C588 C587 1.370 . S
C588 H606 0.948 . S
Zn589 N583 2.020 . S
Zn589 O598 2.039 . S
Zn589 O604 2.034 1_455 S
Zn589 O608 2.025 1_455 S
Zn589 O610 2.024 . S
C590 O609 1.246 . S
C590 O610 1.249 . S
N591 C592 1.307 . S
N591 C593 1.333 . S
N591 Zn597 2.020 . S
C592 N591 1.307 . S
C592 C596 1.370 . S
C592 H603 0.948 . S
C593 N591 1.333 . S
C593 C594 1.379 . S
C593 H601 0.952 . S
C594 C593 1.379 . S
C594 C595 1.390 . S
C594 H614 0.949 . S
C595 C594 1.390 . S
C595 C596 1.357 . S
C596 C592 1.370 . S
C596 C595 1.357 . S
C596 H615 0.950 . S
Zn597 N591 2.020 . S
Zn597 O600 2.025 1_655 S
Zn597 O605 2.024 . S
Zn597 O607 2.039 . S
Zn597 O609 2.034 1_655 S
O598 C582 1.251 . S
O598 Zn589 2.039 . S
C599 O604 1.246 . S
C599 O605 1.249 . S
O600 C582 1.254 . S
O600 Zn597 2.025 1_455 S
H601 C593 0.952 . S
H602 C584 0.952 . S
H603 C592 0.948 . S
O604 Zn589 2.034 1_655 S
O604 C599 1.246 . S
O605 Zn597 2.024 . S
O605 C599 1.249 . S
H606 C588 0.948 . S
O607 Zn597 2.039 . S
O607 C611 1.251 . S
O608 Zn589 2.025 1_655 S
O608 C611 1.254 . S
O609 C590 1.246 . S
O609 Zn597 2.034 1_455 S
O610 Zn589 2.024 . S
O610 C590 1.249 . S
C611 O607 1.251 . S
C611 O608 1.254 . S
H612 C585 0.949 . S
H613 C587 0.950 . S
H614 C594 0.949 . S
H615 C596 0.950 . S
H616 C624 0.950 . S
H617 C629 0.950 . S
H618 C626 0.953 . S
H619 C628 0.950 . S
H620 C630 0.950 . S
H621 C632 0.950 . S
H622 C634 0.945 1_545 S
H623 C635 0.947 1_545 S
C624 H616 0.950 . S
C624 C625 1.386 1_545 S
C624 C626 1.391 . S
C625 C624 1.386 1_565 S
C625 C629 1.393 . S
C626 H618 0.953 . S
C626 C624 1.391 . S
C626 C627 1.397 1_545 S
C627 C626 1.397 1_565 S
C627 C628 1.398 . S
C627 C633 1.491 . S
C628 H619 0.950 . S
C628 C627 1.398 . S
C628 C629 1.391 . S
C629 H617 0.950 . S
C629 C625 1.393 . S
C629 C628 1.391 . S
C630 H620 0.950 . S
C630 C631 1.386 . S
C630 C632 1.391 . S
C631 C630 1.386 . S
C631 C635 1.393 . S
C632 H621 0.950 . S
C632 C630 1.391 . S
C632 C633 1.400 . S
C633 C627 1.491 . S
C633 C632 1.400 . S
C633 C634 1.404 . S
C634 H622 0.945 1_565 S
C634 C633 1.404 . S
C634 C635 1.391 . S
C635 H623 0.947 1_565 S
C635 C631 1.393 . S
C635 C634 1.391 . S
H636 C644 0.950 . S
H637 C649 0.950 . S
H638 C646 0.950 . S
H639 C648 0.950 . S
H640 C650 0.950 . S
H641 C652 0.950 . S
H642 C654 0.950 . S
H643 C655 0.950 . S
C644 H636 0.950 . S
C644 C645 1.386 . S
C644 C646 1.391 . S
C645 C644 1.386 . S
C645 C649 1.393 . S
C646 H638 0.950 . S
C646 C644 1.391 . S
C646 C647 1.400 . S
C647 C646 1.400 . S
C647 C648 1.398 . S
C647 C653 1.491 . S
C648 H639 0.950 . S
C648 C647 1.398 . S
C648 C649 1.391 . S
C649 H637 0.950 . S
C649 C645 1.393 . S
C649 C648 1.391 . S
C650 H640 0.950 . S
C650 C651 1.386 . S
C650 C652 1.391 . S
C651 C650 1.386 . S
C651 C655 1.393 . S
C652 H641 0.950 . S
C652 C650 1.391 . S
C652 C653 1.400 . S
C653 C647 1.491 . S
C653 C652 1.400 . S
C653 C654 1.398 . S
C654 H642 0.950 . S
C654 C653 1.398 . S
C654 C655 1.391 . S
C655 H643 0.950 . S
C655 C651 1.393 . S
C655 C654 1.391 . S
H656 C664 0.950 . S
H657 C669 0.950 . S
H658 C666 0.950 . S
H659 C668 0.950 . S
H660 C670 0.950 . S
H661 C672 0.950 . S
H662 C674 0.950 . S
H663 C675 0.950 . S
C664 H656 0.950 . S
C664 C665 1.386 . S
C664 C666 1.391 . S
C665 C664 1.386 . S
C665 C669 1.393 . S
C666 H658 0.950 . S
C666 C664 1.391 . S
C666 C667 1.400 . S
C667 C666 1.400 . S
C667 C668 1.398 . S
C667 C673 1.491 . S
C668 H659 0.950 . S
C668 C667 1.398 . S
C668 C669 1.391 . S
C669 H657 0.950 . S
C669 C665 1.393 . S
C669 C668 1.391 . S
C670 H660 0.950 . S
C670 C671 1.386 . S
C670 C672 1.391 . S
C671 C670 1.386 . S
C671 C675 1.393 . S
C672 H661 0.950 . S
C672 C670 1.391 . S
C672 C673 1.400 . S
C673 C667 1.491 . S
C673 C672 1.400 . S
C673 C674 1.398 . S
C674 H662 0.950 . S
C674 C673 1.398 . S
C674 C675 1.391 . S
C675 H663 0.950 . S
C675 C671 1.393 . S
C675 C674 1.391 . S
H676 C684 0.950 . S
H677 C689 0.950 . S
H678 C686 0.950 . S
H679 C688 0.950 . S
H680 C690 0.950 . S
H681 C692 0.950 . S
H682 C694 0.950 . S
H683 C695 0.950 . S
C684 H676 0.950 . S
C684 C685 1.386 . S
C684 C686 1.391 . S
C685 C684 1.386 . S
C685 C689 1.393 . S
C686 H678 0.950 . S
C686 C684 1.391 . S
C686 C687 1.400 . S
C687 C686 1.400 . S
C687 C688 1.398 . S
C687 C693 1.491 . S
C688 H679 0.950 . S
C688 C687 1.398 . S
C688 C689 1.391 . S
C689 H677 0.950 . S
C689 C685 1.393 . S
C689 C688 1.391 . S
C690 H680 0.950 . S
C690 C691 1.386 . S
C690 C692 1.391 . S
C691 C690 1.386 . S
C691 C695 1.393 . S
C692 H681 0.950 . S
C692 C690 1.391 . S
C692 C693 1.400 . S
C693 C687 1.491 . S
C693 C692 1.400 . S
C693 C694 1.398 . S
C694 H682 0.950 . S
C694 C693 1.398 . S
C694 C695 1.391 . S
C695 H683 0.950 . S
C695 C691 1.393 . S
C695 C694 1.391 . S
H696 C704 0.950 1_554 S
H697 C709 0.950 . S
H698 C706 0.950 . S
H699 C708 0.950 . S
H700 C710 0.950 . S
H701 C712 0.950 . S
H702 C714 0.950 . S
H703 C715 0.950 . S
C704 H696 0.950 1_556 S
C704 C705 1.369 1_565 S
C704 C706 1.391 . S
C705 C704 1.369 1_545 S
C705 C709 1.409 . S
C706 H698 0.950 . S
C706 C704 1.391 . S
C706 C707 1.400 1_565 S
C707 C706 1.400 1_545 S
C707 C708 1.398 . S
C707 C713 1.491 . S
C708 H699 0.950 . S
C708 C707 1.398 . S
C708 C709 1.391 . S
C709 H697 0.950 . S
C709 C705 1.409 . S
C709 C708 1.391 . S
C710 H700 0.950 . S
C710 C711 1.386 . S
C710 C712 1.391 . S
C711 C710 1.386 . S
C711 C715 1.393 1_545 S
C712 H701 0.950 . S
C712 C710 1.391 . S
C712 C713 1.400 . S
C713 C707 1.491 . S
C713 C712 1.400 . S
C713 C714 1.398 1_545 S
C714 H702 0.950 . S
C714 C713 1.398 1_565 S
C714 C715 1.391 . S
C715 H703 0.950 . S
C715 C711 1.393 1_565 S
C715 C714 1.391 . S
H716 C724 0.950 1_554 S
H717 C729 0.950 . S
H718 C726 0.950 . S
H719 C728 0.950 . S
H720 C730 0.950 . S
H721 C732 0.950 . S
H722 C734 0.950 . S
H723 C735 0.950 . S
C724 H716 0.950 1_556 S
C724 C725 1.386 . S
C724 C726 1.391 . S
C725 C724 1.386 . S
C725 C729 1.393 . S
C726 H718 0.950 . S
C726 C724 1.391 . S
C726 C727 1.400 . S
C727 C726 1.400 . S
C727 C728 1.398 . S
C727 C733 1.491 . S
C728 H719 0.950 . S
C728 C727 1.398 . S
C728 C729 1.391 . S
C729 H717 0.950 . S
C729 C725 1.393 . S
C729 C728 1.391 . S
C730 H720 0.950 . S
C730 C731 1.386 . S
C730 C732 1.391 . S
C731 C730 1.386 . S
C731 C735 1.393 . S
C732 H721 0.950 . S
C732 C730 1.391 . S
C732 C733 1.400 . S
C733 C727 1.491 . S
C733 C732 1.400 . S
C733 C734 1.398 . S
C734 H722 0.950 . S
C734 C733 1.398 . S
C734 C735 1.391 . S
C735 H723 0.950 . S
C735 C731 1.393 . S
C735 C734 1.391 . S
H736 C744 0.950 . S
H737 C749 0.950 . S
H738 C746 0.950 . S
H739 C748 0.950 . S
H740 C750 0.950 . S
H741 C752 0.950 . S
H742 C754 0.950 . S
H743 C755 0.950 . S
C744 H736 0.950 . S
C744 C745 1.386 . S
C744 C746 1.391 . S
C745 C744 1.386 . S
C745 C749 1.393 1_554 S
C746 H738 0.950 . S
C746 C744 1.391 . S
C746 C747 1.400 1_554 S
C747 C746 1.400 1_556 S
C747 C748 1.398 . S
C747 C753 1.491 . S
C748 H739 0.950 . S
C748 C747 1.398 . S
C748 C749 1.391 . S
C749 H737 0.950 . S
C749 C745 1.393 1_556 S
C749 C748 1.391 . S
C750 H740 0.950 . S
C750 C751 1.386 . S
C750 C752 1.391 . S
C751 C750 1.386 . S
C751 C755 1.393 . S
C752 H741 0.950 . S
C752 C750 1.391 . S
C752 C753 1.400 . S
C753 C747 1.491 . S
C753 C752 1.400 . S
C753 C754 1.398 . S
C754 H742 0.950 . S
C754 C753 1.398 . S
C754 C755 1.391 . S
C755 H743 0.950 . S
C755 C751 1.393 . S
C755 C754 1.391 . S
H756 C764 0.950 . S
H757 C769 0.950 . S
H758 C766 0.950 . S
H759 C768 0.950 . S
H760 C770 0.950 . S
H761 C772 0.950 . S
H762 C774 0.950 . S
H763 C775 0.950 . S
C764 H756 0.950 . S
C764 C765 1.386 . S
C764 C766 1.391 . S
C765 C764 1.386 . S
C765 C769 1.393 . S
C766 H758 0.950 . S
C766 C764 1.391 . S
C766 C767 1.400 . S
C767 C766 1.400 . S
C767 C768 1.398 . S
C767 C773 1.491 . S
C768 H759 0.950 . S
C768 C767 1.398 . S
C768 C769 1.391 . S
C769 H757 0.950 . S
C769 C765 1.393 . S
C769 C768 1.391 . S
C770 H760 0.950 . S
C770 C771 1.386 . S
C770 C772 1.391 . S
C771 C770 1.386 . S
C771 C775 1.393 . S
C772 H761 0.950 . S
C772 C770 1.391 . S
C772 C773 1.400 . S
C773 C767 1.491 . S
C773 C772 1.400 . S
C773 C774 1.398 . S
C774 H762 0.950 . S
C774 C773 1.398 . S
C774 C775 1.391 . S
C775 H763 0.950 . S
C775 C771 1.393 . S
C775 C774 1.391 . S
H776 C784 0.950 . S
H777 C789 0.950 . S
H778 C786 0.950 . S
H779 C788 0.950 . S
H780 C790 0.950 . S
H781 C792 0.950 . S
H782 C794 0.950 . S
H783 C795 0.950 1_655 S
C784 H776 0.950 . S
C784 C785 1.386 . S
C784 C786 1.391 . S
C785 C784 1.386 . S
C785 C789 1.393 . S
C786 H778 0.950 . S
C786 C784 1.391 . S
C786 C787 1.400 . S
C787 C786 1.400 . S
C787 C788 1.398 . S
C787 C793 1.491 . S
C788 H779 0.950 . S
C788 C787 1.398 . S
C788 C789 1.391 . S
C789 H777 0.950 . S
C789 C785 1.393 . S
C789 C788 1.391 . S
C790 H780 0.950 . S
C790 C791 1.386 . S
C790 C792 1.391 . S
C791 C790 1.386 . S
C791 C795 1.393 . S
C792 H781 0.950 . S
C792 C790 1.391 . S
C792 C793 1.400 . S
C793 C787 1.491 . S
C793 C792 1.400 . S
C793 C794 1.398 . S
C794 H782 0.950 . S
C794 C793 1.398 . S
C794 C795 1.391 . S
C795 H783 0.950 1_455 S
C795 C791 1.393 . S
C795 C794 1.391 . S
H796 C804 0.950 . S
H797 C809 0.950 . S
H798 C806 0.950 . S
H799 C808 0.950 . S
H800 C810 0.950 . S
H801 C812 0.950 . S
H802 C814 0.950 . S
H803 C815 0.950 . S
C804 H796 0.950 . S
C804 C805 1.342 1_565 S
C804 C806 1.391 . S
C805 C804 1.342 1_545 S
C805 C809 1.432 . S
C806 H798 0.950 . S
C806 C804 1.391 . S
C806 C807 1.400 . S
C807 C806 1.400 . S
C807 C808 1.398 1_565 S
C807 C813 1.491 . S
C808 H799 0.950 . S
C808 C807 1.398 1_545 S
C808 C809 1.391 . S
C809 H797 0.950 . S
C809 C805 1.432 . S
C809 C808 1.391 . S
C810 H800 0.950 . S
C810 C811 1.386 1_545 S
C810 C812 1.391 . S
C811 C810 1.386 1_565 S
C811 C815 1.393 . S
C812 H801 0.950 . S
C812 C810 1.391 . S
C812 C813 1.400 1_545 S
C813 C807 1.491 . S
C813 C812 1.400 1_565 S
C813 C814 1.398 . S
C814 H802 0.950 . S
C814 C813 1.398 . S
C814 C815 1.391 . S
C815 H803 0.950 . S
C815 C811 1.393 . S
C815 C814 1.391 . S
H816 C824 0.950 . S
H817 C829 0.950 . S
H818 C826 0.950 . S
H819 C828 0.950 . S
H820 C830 0.950 . S
H821 C832 0.950 . S
H822 C834 0.950 . S
H823 C835 0.950 . S
C824 H816 0.950 . S
C824 C825 1.386 . S
C824 C826 1.391 . S
C825 C824 1.386 . S
C825 C829 1.393 . S
C826 H818 0.950 . S
C826 C824 1.391 . S
C826 C827 1.400 . S
C827 C826 1.400 . S
C827 C828 1.398 . S
C827 C833 1.491 . S
C828 H819 0.950 . S
C828 C827 1.398 . S
C828 C829 1.391 . S
C829 H817 0.950 . S
C829 C825 1.393 . S
C829 C828 1.391 . S
C830 H820 0.950 . S
C830 C831 1.386 . S
C830 C832 1.391 . S
C831 C830 1.386 . S
C831 C835 1.393 . S
C832 H821 0.950 . S
C832 C830 1.391 . S
C832 C833 1.400 . S
C833 C827 1.491 . S
C833 C832 1.400 . S
C833 C834 1.398 . S
C834 H822 0.950 . S
C834 C833 1.398 . S
C834 C835 1.391 . S
C835 H823 0.950 . S
C835 C831 1.393 . S
C835 C834 1.391 . S
H836 C844 0.950 . S
H837 C849 0.950 . S
H838 C846 0.950 . S
H839 C848 0.950 . S
H840 C850 0.950 . S
H841 C852 0.950 . S
H842 C854 0.950 . S
H843 C855 0.950 . S
C844 H836 0.950 . S
C844 C845 1.386 . S
C844 C846 1.391 . S
C845 C844 1.386 . S
C845 C849 1.393 . S
C846 H838 0.950 . S
C846 C844 1.391 . S
C846 C847 1.400 . S
C847 C846 1.400 . S
C847 C848 1.398 . S
C847 C853 1.491 . S
C848 H839 0.950 . S
C848 C847 1.398 . S
C848 C849 1.391 . S
C849 H837 0.950 . S
C849 C845 1.393 . S
C849 C848 1.391 . S
C850 H840 0.950 . S
C850 C851 1.386 . S
C850 C852 1.391 . S
C851 C850 1.386 . S
C851 C855 1.393 . S
C852 H841 0.950 . S
C852 C850 1.391 . S
C852 C853 1.400 . S
C853 C847 1.491 . S
C853 C852 1.400 . S
C853 C854 1.398 . S
C854 H842 0.950 . S
C854 C853 1.398 . S
C854 C855 1.391 . S
C855 H843 0.950 . S
C855 C851 1.393 . S
C855 C854 1.391 . S
H856 C864 0.950 . S
H857 C869 0.950 . S
H858 C866 0.950 . S
H859 C868 0.950 . S
H860 C870 0.950 1_455 S
H861 C872 0.950 . S
H862 C874 0.950 . S
H863 C875 0.950 . S
C864 H856 0.950 . S
C864 C865 1.386 . S
C864 C866 1.391 . S
C865 C864 1.386 . S
C865 C869 1.393 . S
C866 H858 0.950 . S
C866 C864 1.391 . S
C866 C867 1.400 . S
C867 C866 1.400 . S
C867 C868 1.398 . S
C867 C873 1.491 . S
C868 H859 0.950 . S
C868 C867 1.398 . S
C868 C869 1.391 . S
C869 H857 0.950 . S
C869 C865 1.393 . S
C869 C868 1.391 . S
C870 H860 0.950 1_655 S
C870 C871 1.386 . S
C870 C872 1.391 . S
C871 C870 1.386 . S
C871 C875 1.393 . S
C872 H861 0.950 . S
C872 C870 1.391 . S
C872 C873 1.400 . S
C873 C867 1.491 . S
C873 C872 1.400 . S
C873 C874 1.398 . S
C874 H862 0.950 . S
C874 C873 1.398 . S
C874 C875 1.391 . S
C875 H863 0.950 . S
C875 C871 1.393 . S
C875 C874 1.391 . S
H876 C884 0.950 . S
H877 C889 0.944 1_565 S
H878 C886 0.950 . S
H879 C888 0.950 . S
H880 C890 0.950 . S
H881 C892 0.950 . S
H882 C894 0.950 . S
H883 C895 0.950 . S
C884 H876 0.950 . S
C884 C885 1.388 . S
C884 C886 1.391 . S
C885 C884 1.388 . S
C885 C889 1.394 . S
C886 H878 0.950 . S
C886 C884 1.391 . S
C886 C887 1.400 . S
C887 C886 1.400 . S
C887 C888 1.398 . S
C887 C893 1.491 . S
C888 H879 0.950 . S
C888 C887 1.398 . S
C888 C889 1.398 . S
C889 H877 0.944 1_545 S
C889 C885 1.394 . S
C889 C888 1.398 . S
C890 H880 0.950 . S
C890 C891 1.386 . S
C890 C892 1.391 . S
C891 C890 1.386 . S
C891 C895 1.393 . S
C892 H881 0.950 . S
C892 C890 1.391 . S
C892 C893 1.400 . S
C893 C887 1.491 . S
C893 C892 1.400 . S
C893 C894 1.398 . S
C894 H882 0.950 . S
C894 C893 1.398 . S
C894 C895 1.391 . S
C895 H883 0.950 . S
C895 C891 1.393 . S
C895 C894 1.391 . S
H896 C904 0.950 . S
H897 C909 0.950 . S
H898 C906 0.950 . S
H899 C908 0.950 . S
H900 C910 0.950 . S
H901 C912 0.950 . S
H902 C914 0.950 . S
H903 C915 0.950 . S
C904 H896 0.950 . S
C904 C905 1.386 . S
C904 C906 1.391 . S
C905 C904 1.386 . S
C905 C909 1.393 . S
C906 H898 0.950 . S
C906 C904 1.391 . S
C906 C907 1.400 . S
C907 C906 1.400 . S
C907 C908 1.398 . S
C907 C913 1.491 . S
C908 H899 0.950 . S
C908 C907 1.398 . S
C908 C909 1.391 . S
C909 H897 0.950 . S
C909 C905 1.393 . S
C909 C908 1.391 . S
C910 H900 0.950 . S
C910 C911 1.386 . S
C910 C912 1.391 . S
C911 C910 1.386 . S
C911 C915 1.393 . S
C912 H901 0.950 . S
C912 C910 1.391 . S
C912 C913 1.400 . S
C913 C907 1.491 . S
C913 C912 1.400 . S
C913 C914 1.398 . S
C914 H902 0.950 . S
C914 C913 1.398 . S
C914 C915 1.391 . S
C915 H903 0.950 . S
C915 C911 1.393 . S
C915 C914 1.391 . S
H916 C924 0.950 1_554 S
H917 C929 0.950 . S
H918 C926 0.950 . S
H919 C928 0.950 . S
H920 C930 0.950 . S
H921 C932 0.950 . S
H922 C934 0.950 . S
H923 C935 0.950 . S
C924 H916 0.950 1_556 S
C924 C925 1.386 . S
C924 C926 1.391 . S
C925 C924 1.386 . S
C925 C929 1.393 . S
C926 H918 0.950 . S
C926 C924 1.391 . S
C926 C927 1.400 . S
C927 C926 1.400 . S
C927 C928 1.398 . S
C927 C933 1.491 . S
C928 H919 0.950 . S
C928 C927 1.398 . S
C928 C929 1.391 . S
C929 H917 0.950 . S
C929 C925 1.393 . S
C929 C928 1.391 . S
C930 H920 0.950 . S
C930 C931 1.386 . S
C930 C932 1.391 . S
C931 C930 1.386 . S
C931 C935 1.393 . S
C932 H921 0.950 . S
C932 C930 1.391 . S
C932 C933 1.400 . S
C933 C927 1.491 . S
C933 C932 1.400 . S
C933 C934 1.398 . S
C934 H922 0.950 . S
C934 C933 1.398 . S
C934 C935 1.391 . S
C935 H923 0.950 . S
C935 C931 1.393 . S
C935 C934 1.391 . S
H936 C944 0.950 . S
H937 C949 0.950 . S
H938 C946 0.950 . S
H939 C948 0.950 . S
H940 C950 0.950 1_554 S
H941 C952 0.950 . S
H942 C954 0.950 . S
H943 C955 0.950 . S
C944 H936 0.950 . S
C944 C945 1.386 . S
C944 C946 1.391 . S
C945 C944 1.386 . S
C945 C949 1.393 . S
C946 H938 0.950 . S
C946 C944 1.391 . S
C946 C947 1.400 . S
C947 C946 1.400 . S
C947 C948 1.398 . S
C947 C953 1.491 . S
C948 H939 0.950 . S
C948 C947 1.398 . S
C948 C949 1.391 . S
C949 H937 0.950 . S
C949 C945 1.393 . S
C949 C948 1.391 . S
C950 H940 0.950 1_556 S
C950 C951 1.386 . S
C950 C952 1.391 1_556 S
C951 C950 1.386 . S
C951 C955 1.393 . S
C952 H941 0.950 . S
C952 C950 1.391 1_554 S
C952 C953 1.400 . S
C953 C947 1.491 . S
C953 C952 1.400 . S
C953 C954 1.398 1_554 S
C954 H942 0.950 . S
C954 C953 1.398 1_556 S
C954 C955 1.391 . S
C955 H943 0.950 . S
C955 C951 1.393 . S
C955 C954 1.391 . S
H956 C964 0.950 1_554 S
H957 C969 0.954 . S
H958 C966 0.950 . S
H959 C968 0.950 . S
H960 C970 0.950 . S
H961 C972 0.950 . S
H962 C974 0.950 . S
H963 C975 0.950 . S
C964 H956 0.950 1_556 S
C964 C965 1.348 1_566 S
C964 C966 1.391 . S
C965 C964 1.348 1_544 S
C965 C969 1.431 . S
C966 H958 0.950 . S
C966 C964 1.391 . S
C966 C967 1.400 1_565 S
C967 C966 1.400 1_545 S
C967 C968 1.398 . S
C967 C973 1.491 . S
C968 H959 0.950 . S
C968 C967 1.398 . S
C968 C969 1.384 1_556 S
C969 H957 0.954 . S
C969 C965 1.431 . S
C969 C968 1.384 1_554 S
C970 H960 0.950 . S
C970 C971 1.386 . S
C970 C972 1.391 . S
C971 C970 1.386 . S
C971 C975 1.393 1_545 S
C972 H961 0.950 . S
C972 C970 1.391 . S
C972 C973 1.400 . S
C973 C967 1.491 . S
C973 C972 1.400 . S
C973 C974 1.398 1_545 S
C974 H962 0.950 . S
C974 C973 1.398 1_565 S
C974 C975 1.391 . S
C975 H963 0.950 . S
C975 C971 1.393 1_565 S
C975 C974 1.391 . S
H976 C984 0.950 . S
H977 C989 0.950 . S
H978 C986 0.945 1_554 S
H979 C988 0.950 . S
H980 C990 0.950 . S
H981 C992 0.950 . S
H982 C994 0.950 . S
H983 C995 0.950 . S
C984 H976 0.950 . S
C984 C985 1.386 . S
C984 C986 1.391 1_554 S
C985 C984 1.386 . S
C985 C989 1.393 1_554 S
C986 H978 0.945 1_556 S
C986 C984 1.391 1_556 S
C986 C987 1.400 . S
C987 C986 1.400 . S
C987 C988 1.398 . S
C987 C993 1.491 . S
C988 H979 0.950 . S
C988 C987 1.398 . S
C988 C989 1.391 . S
C989 H977 0.950 . S
C989 C985 1.393 1_556 S
C989 C988 1.391 . S
C990 H980 0.950 . S
C990 C991 1.386 . S
C990 C992 1.391 . S
C991 C990 1.386 . S
C991 C995 1.393 . S
C992 H981 0.950 . S
C992 C990 1.391 . S
C992 C993 1.400 . S
C993 C987 1.491 . S
C993 C992 1.400 . S
C993 C994 1.398 . S
C994 H982 0.950 . S
C994 C993 1.398 . S
C994 C995 1.391 . S
C995 H983 0.950 . S
C995 C991 1.393 . S
C995 C994 1.391 . S
H996 C1004 0.950 . S
H997 C1009 0.950 . S
H998 C1006 0.950 . S
H999 C1008 0.950 . S
H1000 C1010 0.950 . S
H1001 C1012 0.950 . S
H1002 C1014 0.950 . S
H1003 C1015 0.950 . S
C1004 H996 0.950 . S
C1004 C1005 1.386 1_554 S
C1004 C1006 1.391 1_554 S
C1005 C1004 1.386 1_556 S
C1005 C1009 1.393 . S
C1006 H998 0.950 . S
C1006 C1004 1.391 1_556 S
C1006 C1007 1.400 . S
C1007 C1006 1.400 . S
C1007 C1008 1.398 . S
C1007 C1013 1.491 . S
C1008 H999 0.950 . S
C1008 C1007 1.398 . S
C1008 C1009 1.391 . S
C1009 H997 0.950 . S
C1009 C1005 1.393 . S
C1009 C1008 1.391 . S
C1010 H1000 0.950 . S
C1010 C1011 1.386 . S
C1010 C1012 1.391 . S
C1011 C1010 1.386 . S
C1011 C1015 1.393 . S
C1012 H1001 0.950 . S
C1012 C1010 1.391 . S
C1012 C1013 1.400 . S
C1013 C1007 1.491 . S
C1013 C1012 1.400 . S
C1013 C1014 1.398 . S
C1014 H1002 0.950 . S
C1014 C1013 1.398 . S
C1014 C1015 1.391 . S
C1015 H1003 0.950 . S
C1015 C1011 1.393 . S
C1015 C1014 1.391 . S
H1016 C1024 0.950 . S
H1017 C1029 0.950 . S
H1018 C1026 0.950 . S
H1019 C1028 0.950 . S
H1020 C1030 0.950 . S
H1021 C1032 0.950 . S
H1022 C1034 0.950 . S
H1023 C1035 0.950 . S
C1024 H1016 0.950 . S
C1024 C1025 1.386 . S
C1024 C1026 1.391 . S
C1025 C1024 1.386 . S
C1025 C1029 1.393 . S
C1026 H1018 0.950 . S
C1026 C1024 1.391 . S
C1026 C1027 1.400 . S
C1027 C1026 1.400 . S
C1027 C1028 1.398 . S
C1027 C1033 1.491 . S
C1028 H1019 0.950 . S
C1028 C1027 1.398 . S
C1028 C1029 1.391 . S
C1029 H1017 0.950 . S
C1029 C1025 1.393 . S
C1029 C1028 1.391 . S
C1030 H1020 0.950 . S
C1030 C1031 1.386 . S
C1030 C1032 1.391 . S
C1031 C1030 1.386 . S
C1031 C1035 1.393 . S
C1032 H1021 0.950 . S
C1032 C1030 1.391 . S
C1032 C1033 1.400 . S
C1033 C1027 1.491 . S
C1033 C1032 1.400 . S
C1033 C1034 1.398 . S
C1034 H1022 0.950 . S
C1034 C1033 1.398 . S
C1034 C1035 1.391 . S
C1035 H1023 0.950 . S
C1035 C1031 1.393 . S
C1035 C1034 1.391 . S
H1036 C1044 0.950 . S
H1037 C1049 0.950 . S
H1038 C1046 0.950 . S
H1039 C1048 0.950 . S
H1040 C1050 0.950 . S
H1041 C1052 0.950 . S
H1042 C1054 0.950 . S
H1043 C1055 0.950 . S
C1044 H1036 0.950 . S
C1044 C1045 1.372 1_545 S
C1044 C1046 1.391 . S
C1045 C1044 1.372 1_565 S
C1045 C1049 1.406 . S
C1046 H1038 0.950 . S
C1046 C1044 1.391 . S
C1046 C1047 1.400 1_545 S
C1047 C1046 1.400 1_565 S
C1047 C1048 1.398 . S
C1047 C1053 1.491 . S
C1048 H1039 0.950 . S
C1048 C1047 1.398 . S
C1048 C1049 1.391 . S
C1049 H1037 0.950 . S
C1049 C1045 1.406 . S
C1049 C1048 1.391 . S
C1050 H1040 0.950 . S
C1050 C1051 1.386 . S
C1050 C1052 1.391 . S
C1051 C1050 1.386 . S
C1051 C1055 1.393 1_565 S
C1052 H1041 0.950 . S
C1052 C1050 1.391 . S
C1052 C1053 1.400 . S
C1053 C1047 1.491 . S
C1053 C1052 1.400 . S
C1053 C1054 1.398 1_565 S
C1054 H1042 0.950 . S
C1054 C1053 1.398 1_545 S
C1054 C1055 1.391 . S
C1055 H1043 0.950 . S
C1055 C1051 1.393 1_545 S
C1055 C1054 1.391 . S
H1056 C1064 0.950 . S
H1057 C1069 0.950 . S
H1058 C1066 0.950 . S
H1059 C1068 0.950 . S
H1060 C1070 0.950 . S
H1061 C1072 0.950 . S
H1062 C1074 0.950 . S
H1063 C1075 0.950 . S
C1064 H1056 0.950 . S
C1064 C1065 1.386 . S
C1064 C1066 1.391 . S
C1065 C1064 1.386 . S
C1065 C1069 1.393 . S
C1066 H1058 0.950 . S
C1066 C1064 1.391 . S
C1066 C1067 1.400 . S
C1067 C1066 1.400 . S
C1067 C1068 1.398 . S
C1067 C1073 1.491 . S
C1068 H1059 0.950 . S
C1068 C1067 1.398 . S
C1068 C1069 1.391 . S
C1069 H1057 0.950 . S
C1069 C1065 1.393 . S
C1069 C1068 1.391 . S
C1070 H1060 0.950 . S
C1070 C1071 1.386 . S
C1070 C1072 1.391 . S
C1071 C1070 1.386 . S
C1071 C1075 1.393 . S
C1072 H1061 0.950 . S
C1072 C1070 1.391 . S
C1072 C1073 1.400 . S
C1073 C1067 1.491 . S
C1073 C1072 1.400 . S
C1073 C1074 1.398 . S
C1074 H1062 0.950 . S
C1074 C1073 1.398 . S
C1074 C1075 1.391 . S
C1075 H1063 0.950 . S
C1075 C1071 1.393 . S
C1075 C1074 1.391 . S
H1076 C1084 0.950 . S
H1077 C1089 0.950 . S
H1078 C1086 0.950 . S
H1079 C1088 0.950 . S
H1080 C1090 0.950 . S
H1081 C1092 0.950 . S
H1082 C1094 0.950 . S
H1083 C1095 0.950 . S
C1084 H1076 0.950 . S
C1084 C1085 1.386 . S
C1084 C1086 1.391 . S
C1085 C1084 1.386 . S
C1085 C1089 1.393 . S
C1086 H1078 0.950 . S
C1086 C1084 1.391 . S
C1086 C1087 1.400 . S
C1087 C1086 1.400 . S
C1087 C1088 1.398 . S
C1087 C1093 1.491 . S
C1088 H1079 0.950 . S
C1088 C1087 1.398 . S
C1088 C1089 1.391 . S
C1089 H1077 0.950 . S
C1089 C1085 1.393 . S
C1089 C1088 1.391 . S
C1090 H1080 0.950 . S
C1090 C1091 1.386 . S
C1090 C1092 1.391 . S
C1091 C1090 1.386 . S
C1091 C1095 1.393 . S
C1092 H1081 0.950 . S
C1092 C1090 1.391 . S
C1092 C1093 1.400 . S
C1093 C1087 1.491 . S
C1093 C1092 1.400 . S
C1093 C1094 1.398 . S
C1094 H1082 0.950 . S
C1094 C1093 1.398 . S
C1094 C1095 1.391 . S
C1095 H1083 0.950 . S
C1095 C1091 1.393 . S
C1095 C1094 1.391 . S
C625 C391 1.909 1_565 S
C631 C497 1.889 . S
C651 C518 1.741 . S
C645 C451 1.763 . S
C671 C552 1.575 . S
C665 C241 1.469 . S
C691 C586 1.707 . S
C685 C331 1.566 . S
C711 C488 1.889 . S
C705 C121 1.768 1_546 S
C725 C211 1.714 1_556 S
C731 C527 1.744 . S
C745 C31 1.598 . S
C751 C561 1.557 . S
C765 C91 1.655 . S
C771 C595 1.718 . S
C791 C509 0.575 . S
C785 C301 0.695 . S
C811 C514 0.405 . S
C805 C380 0.390 . S
C831 C548 0.573 . S
C825 C440 0.565 . S
C845 C260 0.397 . S
C851 C582 0.168 . S
C865 C61 0.643 . S
C871 C480 0.576 . S
C891 C543 0.393 . S
C885 C140 0.540 1_545 S
C911 C577 0.616 . S
C905 C200 0.660 . S
C925 C20 0.247 . S
C931 C611 0.172 . S
C945 C320 1.706 . S
C951 C493 1.764 . S
C965 C361 1.921 . S
C971 C522 2.151 . S
C991 C556 1.895 . S
C985 C421 1.707 . S
C1011 C590 1.943 . S
C1005 C271 1.909 1_556 S
C1025 C80 1.745 . S
C1031 C484 1.767 . S
C1051 C531 2.145 . S
C1045 C151 2.104 . S
C1071 C565 1.895 . S
C1065 C181 1.659 . S
C1085 C1 1.726 . S
C1091 C599 1.944 . S
