# Generated by pormake.
# Topology pyr, (3,6)-cn, num edge types: 1
# Building blocks:
#     Node 0, Type 0, BuildingBlock: CUQRIR_clean_linker_1, # of connection points: 3
#     Node 1, Type 0, BuildingBlock: CUQRIR_clean_linker_1, # of connection points: 3
#     Node 2, Type 0, BuildingBlock: CUQRIR_clean_linker_1, # of connection points: 3
#     Node 3, Type 0, BuildingBlock: CUQRIR_clean_linker_1, # of connection points: 3
#     Node 4, Type 0, BuildingBlock: CUQRIR_clean_linker_1, # of connection points: 3
#     Node 5, Type 0, BuildingBlock: CUQRIR_clean_linker_1, # of connection points: 3
#     Node 6, Type 0, BuildingBlock: CUQRIR_clean_linker_1, # of connection points: 3
#     Node 7, Type 0, BuildingBlock: CUQRIR_clean_linker_1, # of connection points: 3
#     Node 8, Type 1, BuildingBlock: JUFBIX_clean_sbu_0, # of connection points: 6
#     Node 9, Type 1, BuildingBlock: JUFBIX_clean_sbu_0, # of connection points: 6
#     Node 10, Type 1, BuildingBlock: JUFBIX_clean_sbu_0, # of connection points: 6
#     Node 11, Type 1, BuildingBlock: JUFBIX_clean_sbu_0, # of connection points: 6
#     Edge 12, Type (0, 1), BuildingBlock: AJUNOK_clean_linker_0, # of connection points: 2
#     Edge 13, Type (0, 1), BuildingBlock: AJUNOK_clean_linker_0, # of connection points: 2
#     Edge 14, Type (0, 1), BuildingBlock: AJUNOK_clean_linker_0, # of connection points: 2
#     Edge 15, Type (0, 1), BuildingBlock: AJUNOK_clean_linker_0, # of connection points: 2
#     Edge 16, Type (0, 1), BuildingBlock: AJUNOK_clean_linker_0, # of connection points: 2
#     Edge 17, Type (0, 1), BuildingBlock: AJUNOK_clean_linker_0, # of connection points: 2
#     Edge 18, Type (0, 1), BuildingBlock: AJUNOK_clean_linker_0, # of connection points: 2
#     Edge 19, Type (0, 1), BuildingBlock: AJUNOK_clean_linker_0, # of connection points: 2
#     Edge 20, Type (0, 1), BuildingBlock: AJUNOK_clean_linker_0, # of connection points: 2
#     Edge 21, Type (0, 1), BuildingBlock: AJUNOK_clean_linker_0, # of connection points: 2
#     Edge 22, Type (0, 1), BuildingBlock: AJUNOK_clean_linker_0, # of connection points: 2
#     Edge 23, Type (0, 1), BuildingBlock: AJUNOK_clean_linker_0, # of connection points: 2
#     Edge 24, Type (0, 1), BuildingBlock: AJUNOK_clean_linker_0, # of connection points: 2
#     Edge 25, Type (0, 1), BuildingBlock: AJUNOK_clean_linker_0, # of connection points: 2
#     Edge 26, Type (0, 1), BuildingBlock: AJUNOK_clean_linker_0, # of connection points: 2
#     Edge 27, Type (0, 1), BuildingBlock: AJUNOK_clean_linker_0, # of connection points: 2
#     Edge 28, Type (0, 1), BuildingBlock: AJUNOK_clean_linker_0, # of connection points: 2
#     Edge 29, Type (0, 1), BuildingBlock: AJUNOK_clean_linker_0, # of connection points: 2
#     Edge 30, Type (0, 1), BuildingBlock: AJUNOK_clean_linker_0, # of connection points: 2
#     Edge 31, Type (0, 1), BuildingBlock: AJUNOK_clean_linker_0, # of connection points: 2
#     Edge 32, Type (0, 1), BuildingBlock: AJUNOK_clean_linker_0, # of connection points: 2
#     Edge 33, Type (0, 1), BuildingBlock: AJUNOK_clean_linker_0, # of connection points: 2
#     Edge 34, Type (0, 1), BuildingBlock: AJUNOK_clean_linker_0, # of connection points: 2
#     Edge 35, Type (0, 1), BuildingBlock: AJUNOK_clean_linker_0, # of connection points: 2
# Relax obj value: 0.186
# Max RMSD: 0.233
# Mean RMSD: 0.155
data_MOF--net-pyr--node1-JUFBIX_clean_sbu_0--node2-CUQRIR_clean_linker_1--edge1-AJUNOK_clean_linker_0
_symmetry_space_group_name_H-M    P1
_symmetry_Int_Tables_number       1
_symmetry_cell_setting            triclinic
loop_
_symmetry_equiv_pos_as_xyz
'x, y, z'
_cell_length_a     24.178176
_cell_length_b     23.07752
_cell_length_c     23.674512
_cell_angle_alpha  77.530227
_cell_angle_beta   89.788371
_cell_angle_gamma 94.538193
loop_
_atom_site_label
_atom_site_type_symbol
_atom_site_fract_x
_atom_site_fract_y
_atom_site_fract_z
_atom_type_partial_charge
C0 C 0.21635 0.21608 0.24269 0.0
N1 N 0.25255 0.17297 0.25195 0.0
N2 N 0.2284 0.25626 0.19253 0.0
C3 C 0.1663 0.21571 0.28119 0.0
C4 C 0.27385 0.23562 0.17147 0.0
N5 N 0.28899 0.1848 0.20746 0.0
C6 C 0.30443 0.2661 0.1164 0.0
H7 H 0.13661 0.17736 0.27824 0.0
H8 H 0.14408 0.25651 0.26931 0.0
H9 H 0.17911 0.20981 0.32691 0.0
H10 H 0.34963 0.26139 0.12078 0.0
H11 H 0.2969 0.314 0.10474 0.0
H12 H 0.28961 0.24485 0.08084 0.0
C13 C 0.37415 0.71076 0.79549 0.0
N14 N 0.37352 0.75719 0.82184 0.0
N15 N 0.42381 0.68715 0.80123 0.0
C16 C 0.33162 0.69818 0.75222 0.0
C17 C 0.45257 0.71948 0.83465 0.0
N18 N 0.422 0.76199 0.84726 0.0
C19 C 0.51178 0.71147 0.85132 0.0
H20 H 0.32923 0.65069 0.74957 0.0
H21 H 0.34378 0.72578 0.70885 0.0
H22 H 0.28994 0.70921 0.76409 0.0
H23 H 0.53967 0.73174 0.81376 0.0
H24 H 0.51813 0.66326 0.86297 0.0
H25 H 0.52297 0.73244 0.88817 0.0
C26 C 0.67102 0.39905 0.90898 0.0
N27 N 0.70386 0.38272 0.9551 0.0
N28 N 0.69474 0.44674 0.87099 0.0
C29 C 0.6192 0.36323 0.89666 0.0
C30 C 0.74317 0.45989 0.89591 0.0
N31 N 0.74886 0.42128 0.94741 0.0
C32 C 0.78613 0.50856 0.8686 0.0
H33 H 0.63006 0.33479 0.86664 0.0
H34 H 0.58798 0.39292 0.87547 0.0
H35 H 0.6002 0.33435 0.93668 0.0
H36 H 0.76801 0.54144 0.83381 0.0
H37 H 0.82007 0.48863 0.84968 0.0
H38 H 0.80438 0.53139 0.90172 0.0
C39 C 0.95789 0.59605 0.51812 0.0
N40 N 1.00669 0.61919 0.49114 0.0
N41 N 0.94743 0.62073 0.56348 0.0
C42 C 0.9145 0.55873 0.49325 0.0
C43 C 0.99519 0.65361 0.56785 0.0
N44 N 1.03006 0.65633 0.52202 0.0
C45 C 1.00114 0.69454 0.60979 0.0
H46 H 0.88985 0.5883 0.46156 0.0
H47 H 0.88581 0.53294 0.52804 0.0
H48 H 0.9342 0.52792 0.47072 0.0
H49 H 0.9698 0.68092 0.64555 0.0
H50 H 0.99533 0.74091 0.58697 0.0
H51 H 1.04301 0.69348 0.62868 0.0
C52 C 0.8669 0.87593 0.95011 0.0
N53 N 0.90577 0.86508 0.9128 0.0
N54 N 0.8426 0.92662 0.928 0.0
C55 C 0.84899 0.83397 1.0064 0.0
C56 C 0.86773 0.94582 0.87476 0.0
N57 N 0.90578 0.90809 0.86486 0.0
C58 C 0.85911 1.0045 0.83496 0.0
H59 H 0.80449 0.83666 1.01625 0.0
H60 H 0.87379 0.84643 1.04193 0.0
H61 H 0.85558 0.78726 1.00501 0.0
H62 H 0.84485 0.03649 0.85968 0.0
H63 H 0.82698 0.99783 0.80318 0.0
H64 H 0.89806 0.02361 0.81071 0.0
C65 C 0.80603 0.32367 0.4173 0.0
N66 N 0.80761 0.27619 0.39274 0.0
N67 N 0.76889 0.36086 0.39053 0.0
C68 C 0.83374 0.32885 0.47282 0.0
C69 C 0.74855 0.33406 0.34861 0.0
N70 N 0.7711 0.28199 0.35069 0.0
C71 C 0.70319 0.35712 0.30863 0.0
H72 H 0.87538 0.31156 0.47442 0.0
H73 H 0.80825 0.30161 0.5096 0.0
H74 H 0.83757 0.37583 0.47751 0.0
H75 H 0.7108 0.4061 0.29342 0.0
H76 H 0.66273 0.34834 0.33241 0.0
H77 H 0.70087 0.33568 0.27092 0.0
C78 C 0.36955 0.62572 0.21059 0.0
N79 N 0.4141 0.65815 0.22652 0.0
N80 N 0.35407 0.64979 0.15604 0.0
C81 C 0.34062 0.57046 0.2477 0.0
C82 C 0.38993 0.69843 0.13939 0.0
N83 N 0.42702 0.70303 0.1814 0.0
C84 C 0.38476 0.74491 0.08434 0.0
H85 H 0.32115 0.54136 0.22035 0.0
H86 H 0.30722 0.58329 0.27369 0.0
H87 H 0.37004 0.54535 0.27746 0.0
H88 H 0.34207 0.74351 0.06748 0.0
H89 H 0.41308 0.73626 1.05068 0.0
H90 H 0.39635 0.79032 0.09121 0.0
C91 C 0.11017 0.35519 0.65252 0.0
N92 N 0.13755 0.33328 0.61295 0.0
N93 N 0.13707 0.40627 0.66053 0.0
C94 C 0.05862 0.32532 0.68543 0.0
C95 C 0.18118 0.41539 0.62372 0.0
N96 N 0.18162 0.37091 0.59467 0.0
C97 C 0.22897 0.46173 0.62344 0.0
H98 H 1.03415 0.35864 0.69943 0.0
H99 H 0.07034 0.29307 0.72454 0.0
H100 H 1.03281 0.30055 0.65835 0.0
H101 H 0.26724 0.43947 0.63726 0.0
H102 H 0.22125 0.49226 0.65232 0.0
H103 H 0.23661 0.48843 0.5788 0.0
Co104 Co 0.05946 1.00214 0.52771 0.0
C105 C 0.09397 0.88858 0.53083 0.0
Co106 Co 0.13408 0.98311 0.57788 0.0
C107 C 0.95855 0.0552 0.49476 0.0
C108 C 0.98238 1.00363 0.43499 0.0
N109 N 0.99573 0.01722 0.48613 0.0
N110 N 0.92337 0.0669 0.45069 0.0
C111 C 0.93823 0.03489 0.4127 0.0
H112 H 0.96052 0.0785 0.52989 0.0
H113 H 1.00627 0.97711 0.413 0.0
C114 C 0.10191 0.0969 0.57202 0.0
N115 N 0.19742 0.97276 0.61921 0.0
C116 C 0.20912 0.92742 0.66238 0.0
C117 C 0.24071 0.01407 0.61611 0.0
N118 N 0.25786 0.93917 0.68669 0.0
C119 C 0.27802 0.99344 0.65748 0.0
C120 C 0.15662 0.03175 0.4594 0.0
O121 O 0.06448 0.08192 0.53951 0.0
O122 O 0.13543 0.05948 0.5939 0.0
O123 O 0.17878 0.01483 0.50821 0.0
O124 O 0.10388 0.02919 0.45743 0.0
O125 O 0.13309 0.90508 0.56126 0.0
H126 H 0.24445 0.0569 0.58618 0.0
H127 H 0.1829 0.88631 0.67486 0.0
O128 O 0.05591 0.92333 0.51474 0.0
O129 O 1.01486 0.9747 0.5993 0.0
O130 O 0.08948 0.95216 0.64818 0.0
C131 C 1.037 0.95452 0.64779 0.0
H132 H 0.92165 0.03808 0.36982 0.0
H133 H 0.31725 0.01621 0.66517 0.0
Co134 Co 0.54975 0.04306 1.05049 0.0
C135 C 0.53805 0.9344 0.13407 0.0
Co136 Co 0.59345 0.04121 0.13206 0.0
C137 C 0.51551 0.98621 0.96067 0.0
C138 C 0.46313 0.05607 0.96331 0.0
N139 N 0.51044 0.03361 0.98491 0.0
N140 N 0.47339 0.97752 0.92587 0.0
C141 C 0.43984 0.02103 0.92748 0.0
H142 H 0.54596 0.9542 0.97355 0.0
H143 H 0.44404 0.09179 0.97688 0.0
C144 C 0.60891 0.14949 1.0495 0.0
N145 N 0.63356 0.04479 0.19703 0.0
C146 C 0.63915 0.09131 0.22292 0.0
C147 C 0.67212 0.0083 0.22108 0.0
N148 N 0.68042 0.08603 0.26109 0.0
C149 C 0.70164 0.03413 0.26016 0.0
C150 C 0.65755 1.00768 1.04433 0.0
O151 O 0.57623 0.12473 1.01765 0.0
O152 O 0.61985 0.12091 0.09959 0.0
O153 O 0.65889 0.01354 0.09682 0.0
O154 O 0.61325 0.01857 1.01727 0.0
O155 O 0.56785 0.96144 0.16557 0.0
H156 H 0.68087 0.96782 0.20797 0.0
H157 H 0.61679 0.13079 0.21031 0.0
O158 O 0.52576 0.9619 0.08392 0.0
O159 O 0.48491 0.0688 0.08401 0.0
O160 O 0.52737 0.06948 0.16532 0.0
C161 C 0.48358 0.0781 0.13521 0.0
H162 H 0.3997 0.0247 0.90751 0.0
H163 H 0.73761 0.01783 0.28367 0.0
Co164 Co 0.5919 0.59065 0.53857 0.0
C165 C 0.51784 0.59753 0.45067 0.0
Co166 Co 0.53242 0.51158 0.55507 0.0
C167 C 0.69775 0.64031 0.54809 0.0
C168 C 0.64661 0.71254 0.52387 0.0
N169 N 0.64582 0.65264 0.53295 0.0
N170 N 0.73057 0.68876 0.5511 0.0
C171 C 0.69966 0.73523 0.53419 0.0
H172 H 0.71148 0.59573 0.55802 0.0
H173 H 0.61088 0.73769 0.51239 0.0
C174 C 0.60636 0.50583 0.64243 0.0
N175 N 0.48232 0.44579 0.56205 0.0
C176 C 0.42826 0.44389 0.54859 0.0
C177 C 0.49393 0.38826 0.57671 0.0
N178 N 0.40575 0.38751 0.55376 0.0
C179 C 0.44676 0.35231 0.57218 0.0
C180 C 0.62642 0.49931 0.49274 0.0
O181 O 0.62302 0.55547 0.61069 0.0
O182 O 0.56571 0.4756 0.62629 0.0
O183 O 0.58 0.47432 0.51336 0.0
O184 O 0.64008 0.55182 0.49815 0.0
O185 O 0.49867 0.54862 0.48344 0.0
H186 H 0.53429 0.37346 0.58943 0.0
H187 H 0.40558 0.48318 0.53652 0.0
O188 O 0.56034 0.6259 0.4664 0.0
O189 O 0.54443 0.62852 0.58019 0.0
O190 O 0.48583 0.54866 0.59888 0.0
C191 C 0.50149 0.60014 0.60715 0.0
H192 H 0.71396 0.78152 0.53083 0.0
H193 H 0.44266 0.3041 0.58226 0.0
Co194 Co 0.06185 0.54318 1.00833 0.0
C195 C 0.95057 0.49337 1.05 0.0
Co196 Co 1.03337 0.55405 0.09425 0.0
C197 C 0.10668 0.50902 0.90306 0.0
C198 C 1.02708 0.54399 0.89685 0.0
N199 N 0.06893 0.53029 0.93394 0.0
N200 N 0.08953 0.51041 0.84836 0.0
C201 C 1.03963 0.53227 0.84481 0.0
H202 H 0.14539 0.49287 0.92015 0.0
H203 H 0.98865 0.56061 0.90723 0.0
C204 C 0.1445 0.59995 0.05368 0.0
N205 N 1.02424 0.57943 0.16556 0.0
C206 C 1.0179 0.55673 0.22371 0.0
C207 C 1.03296 0.6389 0.16215 0.0
N208 N 1.02145 0.60052 0.25453 0.0
C209 C 1.03085 0.65163 0.21533 0.0
C210 C 0.09076 0.45103 0.09828 0.0
O211 O 0.13638 0.57936 1.0083 0.0
O212 O 0.10482 0.59515 0.08993 0.0
O213 O 0.06814 0.48124 0.13063 0.0
O214 O 0.08879 0.46847 1.04336 0.0
O215 O 0.95996 0.51058 0.09731 0.0
H216 H 1.04379 0.67216 0.12336 0.0
H217 H 1.01175 0.50964 0.24298 0.0
O218 O 0.98815 0.50529 1.01065 0.0
O219 O 1.03636 0.61934 0.97279 0.0
O220 O 1.00036 0.62589 0.0549 0.0
C221 C 1.00865 0.64764 1.00137 0.0
H222 H 1.01309 0.53727 0.80758 0.0
H223 H 1.03737 0.69549 0.22485 0.0
C224 C 0.20034 0.07977 0.29971 0.0
C225 C 0.24596 0.12176 0.29984 0.0
C226 C 0.17307 0.04878 0.35151 0.0
C227 C 0.19144 0.05692 0.40589 0.0
H228 H 0.18161 0.07629 0.25896 0.0
H229 H 0.13565 0.02052 0.34877 0.0
S230 S 0.31364 0.15558 0.43035 0.0
N231 N 0.31088 0.16576 0.35919 0.0
N232 N 0.26226 0.10527 0.45653 0.0
C233 C 0.24051 0.09396 0.40682 0.0
C234 C 0.26731 0.12656 0.3539 0.0
C235 C 0.40743 0.82765 0.91435 0.0
C236 C 0.44012 0.81291 0.87099 0.0
C237 C 0.41777 0.88203 0.93154 0.0
C238 C 0.46092 0.9237 0.90552 0.0
H239 H 0.37286 0.79722 0.93412 0.0
H240 H 0.39211 0.89163 0.96544 0.0
S241 S 0.55569 0.9092 0.7873 0.0
N242 N 0.51538 0.84638 0.8003 0.0
N243 N 0.53552 0.94779 0.83381 0.0
C244 C 0.49396 0.90961 0.86244 0.0
C245 C 0.48338 0.85444 0.84476 0.0
C246 C 0.62808 0.49614 0.80212 0.0
C247 C 0.67719 0.46714 0.81245 0.0
C248 C 0.60463 0.50702 0.74703 0.0
C249 C 0.62951 0.48905 0.70056 0.0
H250 H 0.60701 0.50893 0.83743 0.0
H251 H 0.56681 0.52969 0.74068 0.0
S252 S 0.75886 0.41258 0.70485 0.0
N253 N 0.7499 0.42083 0.77185 0.0
N254 N 0.70675 0.44293 0.66768 0.0
C255 C 0.67925 0.46132 0.70991 0.0
C256 C 0.70288 0.44989 0.76609 0.0
C257 C 0.98295 0.64953 0.38901 0.0
C258 C 1.01748 0.61931 0.43104 0.0
C259 C 0.98224 0.63989 0.33269 0.0
C260 C 1.01579 0.5993 0.31553 0.0
H261 H 0.95435 0.67903 0.4006 0.0
H262 H 0.9554 0.66496 0.30171 0.0
S263 S 0.11244 0.50719 0.40958 0.0
N264 N 0.08459 0.54526 0.45259 0.0
N265 N 0.08471 0.52843 0.34539 0.0
C266 C 0.05034 0.56826 0.35707 0.0
C267 C 0.05088 0.57805 0.415 0.0
C268 C 0.38461 0.1499 0.22576 0.0
C269 C 0.33395 0.14938 0.19622 0.0
C270 C 0.43211 0.12535 0.20738 0.0
C271 C 0.43152 0.09974 0.15804 0.0
H272 H 0.38826 0.17166 0.2619 0.0
H273 H 0.47017 0.12841 0.23091 0.0
S274 S 0.30746 0.08394 0.06805 0.0
N275 N 0.28555 0.11827 0.11726 0.0
N276 N 0.37303 0.07293 0.08259 0.0
C277 C 0.38019 0.09749 0.12957 0.0
C278 C 0.33217 0.12205 0.14853 0.0
C279 C 0.37265 0.85129 0.75223 0.0
C280 C 0.34528 0.8084 0.7966 0.0
C281 C 0.34426 0.89588 0.71858 0.0
C282 C 0.28721 0.89841 0.72759 0.0
H283 H 0.41562 0.84793 0.74133 0.0
H284 H 0.36638 0.92625 0.68291 0.0
S285 S 0.1981 0.79925 0.84235 0.0
N286 N 0.25985 0.7729 0.85125 0.0
N287 N 0.20517 0.85736 0.78727 0.0
C288 C 0.2598 0.85737 0.77377 0.0
C289 C 0.28921 0.81209 0.80855 0.0
C290 C 0.79508 0.45896 1.02757 0.0
C291 C 0.79541 0.42362 0.98571 0.0
C292 C 0.84476 0.4775 0.05277 0.0
C293 C 0.89681 0.46203 1.03635 0.0
H294 H 0.75659 0.47584 1.03774 0.0
H295 H 0.84273 0.50771 0.0818 0.0
S296 S 0.91916 0.3658 0.93215 0.0
N297 N 0.85143 0.37094 0.93223 0.0
N298 N 0.94408 0.40437 0.97893 0.0
C299 C 0.89677 0.42348 0.99723 0.0
C300 C 0.84643 0.40477 0.97204 0.0
C301 C 0.8807 0.69274 0.52321 0.0
C302 C 0.89542 0.64564 0.56777 0.0
C303 C 0.82765 0.71294 0.52155 0.0
C304 C 0.78803 0.6867 0.56454 0.0
H305 H 0.90954 0.71141 0.48767 0.0
H306 H 0.81593 0.745 0.48389 0.0
S307 S 0.81002 0.57118 0.6962 0.0
N308 N 0.86969 0.57992 0.65983 0.0
N309 N 0.76932 0.61815 0.65737 0.0
C310 C 0.80427 0.64407 0.61236 0.0
C311 C 0.85817 0.62321 0.61374 0.0
C312 C 0.18776 0.35147 0.19682 0.0
C313 C 0.19663 0.30625 0.16681 0.0
C314 C 0.15205 0.39665 0.17574 0.0
C315 C 0.12433 0.39943 0.12299 0.0
H316 H 0.20803 0.35119 0.23757 0.0
H317 H 0.14705 0.43036 0.20047 0.0
S318 S 0.13367 0.29182 1.02751 0.0
N319 N 0.17403 0.26688 0.08207 0.0
N320 N 0.10919 0.35236 1.04109 0.0
C321 C 0.13372 0.35491 0.09214 0.0
C322 C 0.16932 0.30845 0.11419 0.0
C323 C 0.66204 0.31129 1.0391 0.0
C324 C 0.69805 0.32326 0.99044 0.0
C325 C 0.6336 0.25467 0.05843 0.0
C326 C 0.63872 0.20883 1.0284 0.0
H327 H 0.65235 0.3473 0.0592 0.0
H328 H 0.60534 0.24756 0.09536 0.0
S329 S 0.7335 0.21499 0.90373 0.0
N330 N 0.74221 0.28234 0.9174 0.0
N331 N 0.68761 0.17681 0.95236 0.0
C332 C 0.67748 0.2189 0.98246 0.0
C333 C 0.70772 0.27571 0.96416 0.0
C334 C 1.03903 0.75859 0.46699 0.0
C335 C 0.06481 0.71039 0.50013 0.0
C336 C 0.05153 0.81682 0.47441 0.0
C337 C 0.09115 0.82943 0.51453 0.0
H338 H 1.00317 0.75039 0.44194 0.0
H339 H 1.02672 0.85129 0.45176 0.0
S340 S 0.18188 0.72112 0.59861 0.0
N341 N 0.14016 0.68083 0.56419 0.0
N342 N 0.16473 0.79034 0.57806 0.0
C343 C 0.12353 0.7832 0.54069 0.0
C344 C 0.11067 0.72381 0.53272 0.0
C345 C 0.47783 0.70053 0.7108 0.0
C346 C 0.44737 0.66248 0.75666 0.0
C347 C 0.4931 0.68063 0.66156 0.0
C348 C 0.47786 0.62198 0.65591 0.0
H349 H 0.48855 0.74658 0.71253 0.0
H350 H 0.5172 0.71153 0.62773 0.0
S351 S 0.39742 0.50523 0.76485 0.0
N352 N 0.40227 0.56422 0.7941 0.0
N353 N 0.43046 0.5259 0.70161 0.0
C354 C 0.44703 0.58353 0.70173 0.0
C355 C 0.43204 0.60394 0.7521 0.0
C356 C 0.99687 0.91859 0.8109 0.0
C357 C 0.93839 0.91314 0.8115 0.0
C358 C 1.02829 0.93023 0.75827 0.0
C359 C 1.00274 0.93725 0.70366 0.0
H360 H 1.01844 0.91571 0.85127 0.0
H361 H 0.0731 0.93543 0.76045 0.0
S362 S 0.85058 0.91966 0.68238 0.0
N363 N 0.85649 0.90979 0.75322 0.0
N364 N 0.91449 0.93278 0.65523 0.0
C365 C 0.94421 0.92951 0.70426 0.0
C366 C 0.91246 0.91721 0.75772 0.0
C367 C 0.78081 0.20564 0.29384 0.0
C368 C 0.74773 0.23328 0.3273 0.0
C369 C 0.75918 0.1558 0.2738 0.0
C370 C 0.70391 0.13277 0.28659 0.0
H371 H 0.82341 0.22286 0.28319 0.0
H372 H 0.78514 0.13602 0.247 0.0
S373 S 0.60282 0.18483 0.37802 0.0
N374 N 0.65919 0.23039 0.37722 0.0
N375 N 0.61787 0.13843 0.33702 0.0
C376 C 0.67099 0.15921 0.32092 0.0
C377 C 0.69311 0.20911 0.342 0.0
C378 C 0.40964 0.63525 0.33434 0.0
C379 C 0.44122 0.64766 0.28226 0.0
C380 C 0.43466 0.61985 0.38861 0.0
C381 C 0.49258 0.6186 0.39328 0.0
H382 H 0.36505 0.63671 0.33312 0.0
H383 H 0.40845 0.60883 0.42728 0.0
S384 S 0.59431 0.64753 0.27085 0.0
N385 N 0.53371 0.65606 0.23943 0.0
N386 N 0.58092 0.63151 0.34124 0.0
C387 C 0.52486 0.63292 0.34184 0.0
C388 C 0.49921 0.64659 0.28647 0.0
C389 C 0.11637 0.49261 0.69876 0.0
C390 C 0.13067 0.43381 0.70849 0.0
C391 C 0.10809 0.51948 0.74521 0.0
C392 C 0.11338 0.4881 0.80274 0.0
H393 H 0.11025 0.51714 0.65508 0.0
H394 H 0.09461 0.56415 0.73639 0.0
S395 S 0.15658 0.33504 0.84964 0.0
N396 N 0.15595 0.34691 0.77827 0.0
N397 N 0.13787 0.39671 0.86637 0.0
C398 C 0.13094 0.43041 0.81268 0.0
C399 C 0.13989 0.40325 0.76523 0.0
C400 C 0.80244 0.96102 1.01168 0.0
C401 C 0.79798 0.95115 0.9549 0.0
C402 C 0.75754 0.97938 1.04038 0.0
C403 C 0.70596 0.98885 1.0136 0.0
H404 H 0.84095 0.95382 1.03433 0.0
H405 H 0.76327 0.98585 0.08401 0.0
S406 S 0.6729 0.96842 0.86508 0.0
N407 N 0.73764 0.95106 0.87377 0.0
N408 N 0.65437 0.98698 0.92552 0.0
C409 C 0.70157 0.97973 0.95633 0.0
C410 C 0.74711 0.96069 0.92761 0.0
C411 C 0.89266 0.22494 0.39424 0.0
C412 C 0.83733 0.22444 0.4123 0.0
C413 C 0.92051 0.17287 0.40671 0.0
C414 C 0.89356 0.11904 0.43735 0.0
H415 H 0.91383 0.26555 0.36925 0.0
H416 H 0.96323 0.17432 0.39221 0.0
S417 S 0.74938 0.09528 0.49504 0.0
N418 N 0.75693 0.1667 0.46319 0.0
N419 N 0.80951 0.06834 0.48649 0.0
C420 C 0.83863 0.11822 0.4564 0.0
C421 C 0.81034 0.17121 0.44384 0.0
C422 C 0.29892 0.60467 0.08588 0.0
C423 C 0.30226 0.63827 0.12896 0.0
C424 C 0.24852 0.59567 0.05781 0.0
C425 C 0.20027 0.62081 0.07155 0.0
H426 H 0.33523 0.58455 0.0747 0.0
H427 H 0.24674 0.56681 1.02723 0.0
S428 S 0.19077 0.71877 0.17644 0.0
N429 N 0.25546 0.70033 0.18071 0.0
N430 N 0.16155 0.68551 0.12765 0.0
C431 C 0.20463 0.65719 0.1125 0.0
C432 C 0.25536 0.66533 0.14133 0.0
C433 C 0.26548 0.3182 0.60485 0.0
C434 C 0.23132 0.35659 0.56942 0.0
C435 C 0.323 0.32429 0.59579 0.0
C436 C 0.34782 0.36935 0.5513 0.0
H437 H 0.24865 0.28885 0.64405 0.0
H438 H 0.34835 0.29815 0.62758 0.0
S439 S 0.27468 0.4703 0.43819 0.0
N440 N 0.22466 0.43246 0.48197 0.0
N441 N 0.33325 0.4443 0.46446 0.0
C442 C 0.31343 0.40226 0.51099 0.0
C443 C 0.25486 0.3955 0.52001 0.0
C444 C 0.97089 0.80795 0.97797 0.0
C445 C 0.94129 0.81638 0.92604 0.0
C446 C 0.99292 0.75362 1.00156 0.0
C447 C 0.9879 0.70589 0.97328 0.0
H448 H 0.97399 0.8427 1.00234 0.0
H449 H 1.01335 0.74874 1.04274 0.0
S450 S 0.91861 0.70659 0.83346 0.0
N451 N 0.9102 0.77318 0.84583 0.0
N452 N 0.95465 0.67221 0.88803 0.0
C453 C 0.96181 0.71507 0.91922 0.0
C454 C 0.93794 0.77006 0.896 0.0
C455 C 0.45827 0.79342 0.21595 0.0
C456 C 0.46616 0.75377 0.17968 0.0
C457 C 0.48495 0.85131 0.20344 0.0
C458 C 0.51915 0.87107 0.15373 0.0
H459 H 0.42831 0.78106 0.25147 0.0
H460 H 0.4757 0.88196 0.23033 0.0
S461 S 0.55896 0.7813 1.05028 0.0
N462 N 0.51627 0.73545 0.0972 0.0
N463 N 0.56404 0.84492 0.07188 0.0
C464 C 0.53026 0.83045 0.11971 0.0
C465 C 0.5045 0.77144 0.13334 0.0
C466 C 0.10862 0.26507 0.5497 0.0
C467 C 0.12845 0.27419 0.60296 0.0
C468 C 0.09799 0.20719 0.54034 0.0
C469 C 0.10818 0.15719 0.58371 0.0
H470 H 0.10104 0.30291 0.51551 0.0
H471 H 0.08317 0.20159 0.49856 0.0
S472 S 0.15942 0.15874 0.73095 0.0
N473 N 0.15657 0.22967 0.69973 0.0
N474 N 0.13831 0.12096 0.68211 0.0
C475 C 0.12794 0.16622 0.63718 0.0
C476 C 0.13767 0.2248 0.64684 0.0
C477 C 0.68843 0.36994 0.44939 0.0
C478 C 0.73669 0.39646 0.41835 0.0
C479 C 0.65303 0.40388 0.47274 0.0
C480 C 0.66493 0.46568 0.46631 0.0
H481 H 0.67769 0.32259 0.45456 0.0
H482 H 0.61609 0.38125 0.49609 0.0
S483 S 0.78815 0.55529 0.38971 0.0
N484 N 0.79588 0.48666 0.38266 0.0
N485 N 0.72987 0.55167 0.42751 0.0
C486 C 0.71406 0.49255 0.43617 0.0
C487 C 0.74989 0.45759 0.41194 0.0
loop_
_geom_bond_atom_site_label_1
_geom_bond_atom_site_label_2
_geom_bond_distance
_geom_bond_site_symmetry_2
_ccdc_geom_bond_type
C0 N1 1.317 . S
C0 N2 1.348 . S
C0 C3 1.485 . S
N1 C0 1.317 . S
N1 N5 1.370 . S
N2 C0 1.348 . S
N2 C4 1.346 . S
C3 C0 1.485 . S
C3 H7 0.960 . S
C3 H8 0.961 . S
C3 H9 0.960 . S
C4 N2 1.346 . S
C4 N5 1.307 . S
C4 C6 1.486 . S
N5 N1 1.370 . S
N5 C4 1.307 . S
C6 C4 1.486 . S
C6 H10 0.960 . S
C6 H11 0.960 . S
C6 H12 0.959 . S
H7 C3 0.960 . S
H8 C3 0.961 . S
H9 C3 0.960 . S
H10 C6 0.960 . S
H11 C6 0.960 . S
H12 C6 0.959 . S
C13 N14 1.317 . S
C13 N15 1.348 . S
C13 C16 1.485 . S
N14 C13 1.317 . S
N14 N18 1.370 . S
N15 C13 1.348 . S
N15 C17 1.346 . S
C16 C13 1.485 . S
C16 H20 0.960 . S
C16 H21 0.961 . S
C16 H22 0.960 . S
C17 N15 1.346 . S
C17 N18 1.307 . S
C17 C19 1.486 . S
N18 N14 1.370 . S
N18 C17 1.307 . S
C19 C17 1.486 . S
C19 H23 0.960 . S
C19 H24 0.960 . S
C19 H25 0.959 . S
H20 C16 0.960 . S
H21 C16 0.961 . S
H22 C16 0.960 . S
H23 C19 0.960 . S
H24 C19 0.960 . S
H25 C19 0.959 . S
C26 N27 1.317 . S
C26 N28 1.348 . S
C26 C29 1.485 . S
N27 C26 1.317 . S
N27 N31 1.370 . S
N28 C26 1.348 . S
N28 C30 1.346 . S
C29 C26 1.485 . S
C29 H33 0.960 . S
C29 H34 0.961 . S
C29 H35 0.960 . S
C30 N28 1.346 . S
C30 N31 1.307 . S
C30 C32 1.486 . S
N31 N27 1.370 . S
N31 C30 1.307 . S
C32 C30 1.486 . S
C32 H36 0.960 . S
C32 H37 0.960 . S
C32 H38 0.959 . S
H33 C29 0.960 . S
H34 C29 0.961 . S
H35 C29 0.960 . S
H36 C32 0.960 . S
H37 C32 0.960 . S
H38 C32 0.959 . S
C39 N40 1.317 . S
C39 N41 1.348 . S
C39 C42 1.485 . S
N40 C39 1.317 . S
N40 N44 1.370 . S
N41 C39 1.348 . S
N41 C43 1.346 . S
C42 C39 1.485 . S
C42 H46 0.960 . S
C42 H47 0.961 . S
C42 H48 0.960 . S
C43 N41 1.346 . S
C43 N44 1.307 . S
C43 C45 1.486 . S
N44 N40 1.370 . S
N44 C43 1.307 . S
C45 C43 1.486 . S
C45 H49 0.960 . S
C45 H50 0.960 . S
C45 H51 0.959 . S
H46 C42 0.960 . S
H47 C42 0.961 . S
H48 C42 0.960 . S
H49 C45 0.960 . S
H50 C45 0.960 . S
H51 C45 0.959 . S
C52 N53 1.317 . S
C52 N54 1.348 . S
C52 C55 1.485 . S
N53 C52 1.317 . S
N53 N57 1.370 . S
N54 C52 1.348 . S
N54 C56 1.346 . S
C55 C52 1.485 . S
C55 H59 0.960 . S
C55 H60 0.961 1_556 S
C55 H61 0.960 1_556 S
C56 N54 1.346 . S
C56 N57 1.307 . S
C56 C58 1.486 1_565 S
N57 N53 1.370 . S
N57 C56 1.307 . S
C58 C56 1.486 1_545 S
C58 H62 0.960 . S
C58 H63 0.960 . S
C58 H64 0.959 . S
H59 C55 0.960 . S
H60 C55 0.961 1_554 S
H61 C55 0.960 1_554 S
H62 C58 0.960 . S
H63 C58 0.960 . S
H64 C58 0.959 . S
C65 N66 1.317 . S
C65 N67 1.348 . S
C65 C68 1.485 . S
N66 C65 1.317 . S
N66 N70 1.370 . S
N67 C65 1.348 . S
N67 C69 1.346 . S
C68 C65 1.485 . S
C68 H72 0.960 . S
C68 H73 0.961 . S
C68 H74 0.960 . S
C69 N67 1.346 . S
C69 N70 1.307 . S
C69 C71 1.486 . S
N70 N66 1.370 . S
N70 C69 1.307 . S
C71 C69 1.486 . S
C71 H75 0.960 . S
C71 H76 0.960 . S
C71 H77 0.959 . S
H72 C68 0.960 . S
H73 C68 0.961 . S
H74 C68 0.960 . S
H75 C71 0.960 . S
H76 C71 0.960 . S
H77 C71 0.959 . S
C78 N79 1.317 . S
C78 N80 1.348 . S
C78 C81 1.485 . S
N79 C78 1.317 . S
N79 N83 1.370 . S
N80 C78 1.348 . S
N80 C82 1.346 . S
C81 C78 1.485 . S
C81 H85 0.960 . S
C81 H86 0.961 . S
C81 H87 0.960 . S
C82 N80 1.346 . S
C82 N83 1.307 . S
C82 C84 1.486 . S
N83 N79 1.370 . S
N83 C82 1.307 . S
C84 C82 1.486 . S
C84 H88 0.960 . S
C84 H89 0.960 . S
C84 H90 0.959 . S
H85 C81 0.960 . S
H86 C81 0.961 . S
H87 C81 0.960 . S
H88 C84 0.960 . S
H89 C84 0.960 . S
H90 C84 0.959 . S
C91 N92 1.317 . S
C91 N93 1.348 . S
C91 C94 1.485 . S
N92 C91 1.317 . S
N92 N96 1.370 . S
N93 C91 1.348 . S
N93 C95 1.346 . S
C94 C91 1.485 . S
C94 H98 0.960 1_455 S
C94 H99 0.961 . S
C94 H100 0.960 . S
C95 N93 1.346 . S
C95 N96 1.307 . S
C95 C97 1.486 . S
N96 N92 1.370 . S
N96 C95 1.307 . S
C97 C95 1.486 . S
C97 H101 0.960 . S
C97 H102 0.960 . S
C97 H103 0.959 . S
H98 C94 0.960 1_655 S
H99 C94 0.961 . S
H100 C94 0.960 . S
H101 C97 0.960 . S
H102 C97 0.960 . S
H103 C97 0.959 . S
Co104 N109 2.057 . S
Co104 O121 2.021 1_655 S
Co104 O124 2.062 1_655 S
Co104 O128 2.117 1_545 S
Co104 O129 2.020 . S
C105 O125 1.259 . S
C105 O128 1.258 1_455 S
Co106 N115 2.057 . S
Co106 O122 2.117 1_565 S
Co106 O123 2.020 1_565 S
Co106 O125 2.021 . S
Co106 O130 2.062 . S
C107 N109 1.316 . S
C107 N110 1.347 . S
C107 H112 0.931 . S
C108 N109 1.375 . S
C108 C111 1.350 . S
C108 H113 0.930 1_545 S
N109 Co104 2.057 . S
N109 C107 1.316 . S
N109 C108 1.375 . S
N110 C107 1.347 . S
N110 C111 1.373 . S
C111 C108 1.350 . S
C111 N110 1.373 . S
C111 H132 0.931 . S
H112 C107 0.931 . S
H113 C108 0.930 1_565 S
C114 O121 1.259 . S
C114 O122 1.258 . S
N115 Co106 2.057 . S
N115 C116 1.316 . S
N115 C117 1.375 1_565 S
C116 N115 1.316 . S
C116 N118 1.347 . S
C116 H127 0.931 . S
C117 N115 1.375 1_545 S
C117 C119 1.350 . S
C117 H126 0.930 . S
N118 C116 1.347 . S
N118 C119 1.373 1_565 S
C119 C117 1.350 . S
C119 N118 1.373 1_545 S
C119 H133 0.931 . S
C120 O123 1.256 . S
C120 O124 1.255 . S
O121 Co104 2.021 1_455 S
O121 C114 1.259 . S
O122 Co106 2.117 1_545 S
O122 C114 1.258 . S
O123 Co106 2.020 1_545 S
O123 C120 1.256 . S
O124 Co104 2.062 1_455 S
O124 C120 1.255 . S
O125 C105 1.259 . S
O125 Co106 2.021 . S
H126 C117 0.930 . S
H127 C116 0.931 . S
O128 Co104 2.117 1_565 S
O128 C105 1.258 1_655 S
O129 Co104 2.020 . S
O129 C131 1.256 1_645 S
O130 Co106 2.062 . S
O130 C131 1.255 . S
C131 O129 1.256 1_465 S
C131 O130 1.255 . S
H132 C111 0.931 . S
H133 C119 0.931 . S
Co134 N139 2.057 1_545 S
Co134 O151 2.021 . S
Co134 O154 2.062 1_545 S
Co134 O158 2.117 1_546 S
Co134 O159 2.020 1_556 S
C135 O155 1.259 . S
C135 O158 1.258 . S
Co136 N145 2.057 . S
Co136 O152 2.117 . S
Co136 O153 2.020 . S
Co136 O155 2.021 1_545 S
Co136 O160 2.062 . S
C137 N139 1.316 . S
C137 N140 1.347 . S
C137 H142 0.931 1_565 S
C138 N139 1.375 . S
C138 C141 1.350 . S
C138 H143 0.930 . S
N139 Co134 2.057 1_565 S
N139 C137 1.316 . S
N139 C138 1.375 . S
N140 C137 1.347 . S
N140 C141 1.373 . S
C141 C138 1.350 . S
C141 N140 1.373 . S
C141 H162 0.931 . S
H142 C137 0.931 1_545 S
H143 C138 0.930 . S
C144 O151 1.259 . S
C144 O152 1.258 1_556 S
N145 Co136 2.057 . S
N145 C146 1.316 . S
N145 C147 1.375 . S
C146 N145 1.316 . S
C146 N148 1.347 . S
C146 H157 0.931 . S
C147 N145 1.375 . S
C147 C149 1.350 . S
C147 H156 0.930 . S
N148 C146 1.347 . S
N148 C149 1.373 . S
C149 C147 1.350 . S
C149 N148 1.373 . S
C149 H163 0.931 . S
C150 O153 1.256 1_565 S
C150 O154 1.255 1_554 S
O151 Co134 2.021 . S
O151 C144 1.259 . S
O152 Co136 2.117 . S
O152 C144 1.258 1_554 S
O153 Co136 2.020 . S
O153 C150 1.256 1_545 S
O154 Co134 2.062 1_565 S
O154 C150 1.255 1_556 S
O155 C135 1.259 . S
O155 Co136 2.021 1_565 S
H156 C147 0.930 . S
H157 C146 0.931 . S
O158 Co134 2.117 1_564 S
O158 C135 1.258 . S
O159 Co134 2.020 1_554 S
O159 C161 1.256 . S
O160 Co136 2.062 . S
O160 C161 1.255 . S
C161 O159 1.256 . S
C161 O160 1.255 . S
H162 C141 0.931 . S
H163 C149 0.931 . S
Co164 N169 2.057 . S
Co164 O181 2.021 . S
Co164 O184 2.062 . S
Co164 O188 2.117 . S
Co164 O189 2.020 . S
C165 O185 1.259 . S
C165 O188 1.258 . S
Co166 N175 2.057 . S
Co166 O182 2.117 . S
Co166 O183 2.020 . S
Co166 O185 2.021 . S
Co166 O190 2.062 . S
C167 N169 1.316 . S
C167 N170 1.347 . S
C167 H172 0.931 . S
C168 N169 1.375 . S
C168 C171 1.350 . S
C168 H173 0.930 . S
N169 Co164 2.057 . S
N169 C167 1.316 . S
N169 C168 1.375 . S
N170 C167 1.347 . S
N170 C171 1.373 . S
C171 C168 1.350 . S
C171 N170 1.373 . S
C171 H192 0.931 . S
H172 C167 0.931 . S
H173 C168 0.930 . S
C174 O181 1.259 . S
C174 O182 1.258 . S
N175 Co166 2.057 . S
N175 C176 1.316 . S
N175 C177 1.375 . S
C176 N175 1.316 . S
C176 N178 1.347 . S
C176 H187 0.931 . S
C177 N175 1.375 . S
C177 C179 1.350 . S
C177 H186 0.930 . S
N178 C176 1.347 . S
N178 C179 1.373 . S
C179 C177 1.350 . S
C179 N178 1.373 . S
C179 H193 0.931 . S
C180 O183 1.256 . S
C180 O184 1.255 . S
O181 Co164 2.021 . S
O181 C174 1.259 . S
O182 Co166 2.117 . S
O182 C174 1.258 . S
O183 Co166 2.020 . S
O183 C180 1.256 . S
O184 Co164 2.062 . S
O184 C180 1.255 . S
O185 C165 1.259 . S
O185 Co166 2.021 . S
H186 C177 0.930 . S
H187 C176 0.931 . S
O188 Co164 2.117 . S
O188 C165 1.258 . S
O189 Co164 2.020 . S
O189 C191 1.256 . S
O190 Co166 2.062 . S
O190 C191 1.255 . S
C191 O189 1.256 . S
C191 O190 1.255 . S
H192 C171 0.931 . S
H193 C179 0.931 . S
Co194 N199 2.057 . S
Co194 O211 2.021 . S
Co194 O214 2.062 . S
Co194 O218 2.117 1_455 S
Co194 O219 2.020 . S
C195 O215 1.259 1_556 S
C195 O218 1.258 . S
Co196 N205 2.057 . S
Co196 O212 2.117 1_655 S
Co196 O213 2.020 1_655 S
Co196 O215 2.021 . S
Co196 O220 2.062 . S
C197 N199 1.316 . S
C197 N200 1.347 . S
C197 H202 0.931 . S
C198 N199 1.375 1_655 S
C198 C201 1.350 1_655 S
C198 H203 0.930 . S
N199 Co194 2.057 . S
N199 C197 1.316 . S
N199 C198 1.375 1_455 S
N200 C197 1.347 . S
N200 C201 1.373 . S
C201 C198 1.350 1_455 S
C201 N200 1.373 . S
C201 H222 0.931 1_455 S
H202 C197 0.931 . S
H203 C198 0.930 . S
C204 O211 1.259 1_554 S
C204 O212 1.258 . S
N205 Co196 2.057 . S
N205 C206 1.316 . S
N205 C207 1.375 1_655 S
C206 N205 1.316 . S
C206 N208 1.347 . S
C206 H217 0.931 . S
C207 N205 1.375 1_455 S
C207 C209 1.350 . S
C207 H216 0.930 . S
N208 C206 1.347 . S
N208 C209 1.373 1_655 S
C209 C207 1.350 . S
C209 N208 1.373 1_455 S
C209 H223 0.931 . S
C210 O213 1.256 . S
C210 O214 1.255 1_554 S
O211 Co194 2.021 . S
O211 C204 1.259 1_556 S
O212 Co196 2.117 1_455 S
O212 C204 1.258 . S
O213 Co196 2.020 1_455 S
O213 C210 1.256 . S
O214 Co194 2.062 . S
O214 C210 1.255 1_556 S
O215 C195 1.259 1_554 S
O215 Co196 2.021 . S
H216 C207 0.930 . S
H217 C206 0.931 . S
O218 Co194 2.117 1_655 S
O218 C195 1.258 . S
O219 Co194 2.020 . S
O219 C221 1.256 1_455 S
O220 Co196 2.062 . S
O220 C221 1.255 1_554 S
C221 O219 1.256 1_655 S
C221 O220 1.255 1_556 S
H222 C201 0.931 1_655 S
H223 C209 0.931 . S
C224 C225 1.369 . S
C224 C226 1.419 . S
C224 H228 0.930 . S
C225 C224 1.369 . S
C225 C234 1.429 . S
C226 C224 1.419 . S
C226 C227 1.363 . S
C226 H229 0.913 1_545 S
C227 C226 1.363 . S
C227 C233 1.428 . S
H228 C224 0.930 . S
H229 C226 0.913 1_565 S
S230 N231 1.613 . S
S230 N232 1.610 . S
N231 S230 1.613 . S
N231 C234 1.350 . S
N232 S230 1.610 . S
N232 C233 1.351 . S
C233 C227 1.428 . S
C233 N232 1.351 . S
C233 C234 1.434 . S
C234 C225 1.429 . S
C234 N231 1.350 . S
C234 C233 1.434 . S
C235 C236 1.369 . S
C235 C237 1.419 . S
C235 H239 0.930 . S
C236 C235 1.369 . S
C236 C245 1.429 . S
C237 C235 1.419 . S
C237 C238 1.363 . S
C237 H240 0.929 . S
C238 C237 1.363 . S
C238 C244 1.428 . S
H239 C235 0.930 . S
H240 C237 0.929 . S
S241 N242 1.613 1_545 S
S241 N243 1.610 . S
N242 S241 1.613 1_565 S
N242 C245 1.350 . S
N243 S241 1.610 . S
N243 C244 1.351 1_545 S
C244 C238 1.428 . S
C244 N243 1.351 1_565 S
C244 C245 1.434 . S
C245 C236 1.429 . S
C245 N242 1.350 . S
C245 C244 1.434 . S
C246 C247 1.369 . S
C246 C248 1.419 . S
C246 H250 0.930 . S
C247 C246 1.369 . S
C247 C256 1.429 . S
C248 C246 1.419 . S
C248 C249 1.363 . S
C248 H251 0.929 . S
C249 C248 1.363 . S
C249 C255 1.428 . S
H250 C246 0.930 . S
H251 C248 0.929 . S
S252 N253 1.613 . S
S252 N254 1.610 . S
N253 S252 1.613 . S
N253 C256 1.350 . S
N254 S252 1.610 . S
N254 C255 1.351 . S
C255 C249 1.428 . S
C255 N254 1.351 . S
C255 C256 1.434 . S
C256 C247 1.429 . S
C256 N253 1.350 . S
C256 C255 1.434 . S
C257 C258 1.369 . S
C257 C259 1.419 . S
C257 H261 0.930 . S
C258 C257 1.369 . S
C258 C267 1.429 1_655 S
C259 C257 1.419 . S
C259 C260 1.363 . S
C259 H262 0.929 . S
C260 C259 1.363 . S
C260 C266 1.428 . S
H261 C257 0.930 . S
H262 C259 0.929 . S
S263 N264 1.613 . S
S263 N265 1.610 . S
N264 S263 1.613 . S
N264 C267 1.350 . S
N265 S263 1.610 . S
N265 C266 1.351 1_455 S
C266 C260 1.428 . S
C266 N265 1.351 1_655 S
C266 C267 1.434 1_655 S
C267 C258 1.429 1_455 S
C267 N264 1.350 . S
C267 C266 1.434 1_455 S
C268 C269 1.369 . S
C268 C270 1.419 . S
C268 H272 0.930 . S
C269 C268 1.369 . S
C269 C278 1.429 . S
C270 C268 1.419 . S
C270 C271 1.363 . S
C270 H273 0.929 . S
C271 C270 1.363 . S
C271 C277 1.428 . S
H272 C268 0.930 . S
H273 C270 0.929 . S
S274 N275 1.613 1_556 S
S274 N276 1.610 . S
N275 S274 1.613 1_554 S
N275 C278 1.350 . S
N276 S274 1.610 . S
N276 C277 1.351 1_556 S
C277 C271 1.428 . S
C277 N276 1.351 1_554 S
C277 C278 1.434 . S
C278 C269 1.429 . S
C278 N275 1.350 . S
C278 C277 1.434 . S
C279 C280 1.369 . S
C279 C281 1.419 . S
C279 H283 0.930 . S
C280 C279 1.369 . S
C280 C289 1.429 . S
C281 C279 1.419 . S
C281 C282 1.363 . S
C281 H284 0.929 . S
C282 C281 1.363 . S
C282 C288 1.428 . S
H283 C279 0.930 . S
H284 C281 0.929 . S
S285 N286 1.613 . S
S285 N287 1.610 . S
N286 S285 1.613 . S
N286 C289 1.350 . S
N287 S285 1.610 . S
N287 C288 1.351 . S
C288 C282 1.428 . S
C288 N287 1.351 . S
C288 C289 1.434 . S
C289 C280 1.429 . S
C289 N286 1.350 . S
C289 C288 1.434 . S
C290 C291 1.369 . S
C290 C292 1.419 . S
C290 H294 0.945 . S
C291 C290 1.369 . S
C291 C300 1.429 . S
C292 C290 1.419 . S
C292 C293 1.363 . S
C292 H295 0.929 1_556 S
C293 C292 1.363 . S
C293 C299 1.428 . S
H294 C290 0.945 . S
H295 C292 0.929 1_554 S
S296 N297 1.613 . S
S296 N298 1.610 . S
N297 S296 1.613 . S
N297 C300 1.350 . S
N298 S296 1.610 . S
N298 C299 1.351 . S
C299 C293 1.428 . S
C299 N298 1.351 . S
C299 C300 1.434 . S
C300 C291 1.429 . S
C300 N297 1.350 . S
C300 C299 1.434 . S
C301 C302 1.369 . S
C301 C303 1.419 . S
C301 H305 0.930 . S
C302 C301 1.369 . S
C302 C311 1.429 . S
C303 C301 1.419 . S
C303 C304 1.363 . S
C303 H306 0.929 . S
C304 C303 1.363 . S
C304 C310 1.428 . S
H305 C301 0.930 . S
H306 C303 0.929 . S
S307 N308 1.613 . S
S307 N309 1.610 . S
N308 S307 1.613 . S
N308 C311 1.350 . S
N309 S307 1.610 . S
N309 C310 1.351 . S
C310 C304 1.428 . S
C310 N309 1.351 . S
C310 C311 1.434 . S
C311 C302 1.429 . S
C311 N308 1.350 . S
C311 C310 1.434 . S
C312 C313 1.369 . S
C312 C314 1.419 . S
C312 H316 0.930 . S
C313 C312 1.369 . S
C313 C322 1.429 . S
C314 C312 1.419 . S
C314 C315 1.363 . S
C314 H317 0.929 . S
C315 C314 1.363 . S
C315 C321 1.428 . S
H316 C312 0.930 . S
H317 C314 0.929 . S
S318 N319 1.613 1_655 S
S318 N320 1.610 . S
N319 S318 1.613 1_455 S
N319 C322 1.350 . S
N320 S318 1.610 . S
N320 C321 1.351 1_655 S
C321 C315 1.428 . S
C321 N320 1.351 1_455 S
C321 C322 1.434 . S
C322 C313 1.429 . S
C322 N319 1.350 . S
C322 C321 1.434 . S
C323 C324 1.369 . S
C323 C325 1.419 . S
C323 H327 0.930 . S
C324 C323 1.369 . S
C324 C333 1.429 . S
C325 C323 1.419 . S
C325 C326 1.363 . S
C325 H328 0.929 . S
C326 C325 1.363 . S
C326 C332 1.428 . S
H327 C323 0.930 . S
H328 C325 0.929 . S
S329 N330 1.613 . S
S329 N331 1.610 . S
N330 S329 1.613 . S
N330 C333 1.350 . S
N331 S329 1.610 . S
N331 C332 1.351 . S
C332 C326 1.428 . S
C332 N331 1.351 . S
C332 C333 1.434 . S
C333 C324 1.429 . S
C333 N330 1.350 . S
C333 C332 1.434 . S
C334 C335 1.369 . S
C334 C336 1.419 . S
C334 H338 0.930 . S
C335 C334 1.369 . S
C335 C344 1.429 1_655 S
C336 C334 1.419 . S
C336 C337 1.363 1_655 S
C336 H339 0.929 . S
C337 C336 1.363 1_455 S
C337 C343 1.428 . S
H338 C334 0.930 . S
H339 C336 0.929 . S
S340 N341 1.613 . S
S340 N342 1.610 . S
N341 S340 1.613 . S
N341 C344 1.350 . S
N342 S340 1.610 . S
N342 C343 1.351 . S
C343 C337 1.428 . S
C343 N342 1.351 . S
C343 C344 1.434 . S
C344 C335 1.429 1_455 S
C344 N341 1.350 . S
C344 C343 1.434 . S
C345 C346 1.369 . S
C345 C347 1.419 . S
C345 H349 0.930 . S
C346 C345 1.369 . S
C346 C355 1.429 . S
C347 C345 1.419 . S
C347 C348 1.363 . S
C347 H350 0.929 . S
C348 C347 1.363 . S
C348 C354 1.428 . S
H349 C345 0.930 . S
H350 C347 0.929 . S
S351 N352 1.613 . S
S351 N353 1.610 . S
N352 S351 1.613 . S
N352 C355 1.350 . S
N353 S351 1.610 . S
N353 C354 1.351 . S
C354 C348 1.428 . S
C354 N353 1.351 . S
C354 C355 1.434 . S
C355 C346 1.429 . S
C355 N352 1.350 . S
C355 C354 1.434 . S
C356 C357 1.369 1_455 S
C356 C358 1.419 . S
C356 H360 0.930 . S
C357 C356 1.369 1_655 S
C357 C366 1.429 . S
C358 C356 1.419 . S
C358 C359 1.363 1_455 S
C358 H361 0.929 1_565 S
C359 C358 1.363 1_655 S
C359 C365 1.428 . S
H360 C356 0.930 . S
H361 C358 0.929 1_545 S
S362 N363 1.613 . S
S362 N364 1.610 . S
N363 S362 1.613 . S
N363 C366 1.350 . S
N364 S362 1.610 . S
N364 C365 1.351 . S
C365 C359 1.428 . S
C365 N364 1.351 . S
C365 C366 1.434 . S
C366 C357 1.429 . S
C366 N363 1.350 . S
C366 C365 1.434 . S
C367 C368 1.369 . S
C367 C369 1.419 . S
C367 H371 0.930 . S
C368 C367 1.369 . S
C368 C377 1.429 . S
C369 C367 1.419 . S
C369 C370 1.363 . S
C369 H372 0.929 . S
C370 C369 1.363 . S
C370 C376 1.428 . S
H371 C367 0.930 . S
H372 C369 0.929 . S
S373 N374 1.613 . S
S373 N375 1.610 . S
N374 S373 1.613 . S
N374 C377 1.350 . S
N375 S373 1.610 . S
N375 C376 1.351 . S
C376 C370 1.428 . S
C376 N375 1.351 . S
C376 C377 1.434 . S
C377 C368 1.429 . S
C377 N374 1.350 . S
C377 C376 1.434 . S
C378 C379 1.369 . S
C378 C380 1.419 . S
C378 H382 0.930 . S
C379 C378 1.369 . S
C379 C388 1.429 . S
C380 C378 1.419 . S
C380 C381 1.363 . S
C380 H383 0.929 . S
C381 C380 1.363 . S
C381 C387 1.428 . S
H382 C378 0.930 . S
H383 C380 0.929 . S
S384 N385 1.613 . S
S384 N386 1.610 . S
N385 S384 1.613 . S
N385 C388 1.350 . S
N386 S384 1.610 . S
N386 C387 1.351 . S
C387 C381 1.428 . S
C387 N386 1.351 . S
C387 C388 1.434 . S
C388 C379 1.429 . S
C388 N385 1.350 . S
C388 C387 1.434 . S
C389 C390 1.369 . S
C389 C391 1.419 . S
C389 H393 0.930 . S
C390 C389 1.369 . S
C390 C399 1.429 . S
C391 C389 1.419 . S
C391 C392 1.363 . S
C391 H394 0.929 . S
C392 C391 1.363 . S
C392 C398 1.428 . S
H393 C389 0.930 . S
H394 C391 0.929 . S
S395 N396 1.613 . S
S395 N397 1.610 . S
N396 S395 1.613 . S
N396 C399 1.350 . S
N397 S395 1.610 . S
N397 C398 1.351 . S
C398 C392 1.428 . S
C398 N397 1.351 . S
C398 C399 1.434 . S
C399 C390 1.429 . S
C399 N396 1.350 . S
C399 C398 1.434 . S
C400 C401 1.369 . S
C400 C402 1.419 1_556 S
C400 H404 0.930 1_556 S
C401 C400 1.369 . S
C401 C410 1.415 1_565 S
C402 C400 1.419 1_554 S
C402 C403 1.363 1_554 S
C402 H405 0.929 . S
C403 C402 1.363 1_556 S
C403 C409 1.428 1_565 S
H404 C400 0.930 1_554 S
H405 C402 0.929 . S
S406 N407 1.613 . S
S406 N408 1.610 . S
N407 S406 1.613 . S
N407 C410 1.360 . S
N408 S406 1.610 . S
N408 C409 1.351 . S
C409 C403 1.428 1_545 S
C409 N408 1.351 . S
C409 C410 1.439 . S
C410 C401 1.415 1_545 S
C410 N407 1.360 . S
C410 C409 1.439 . S
C411 C412 1.369 . S
C411 C413 1.419 . S
C411 H415 0.930 . S
C412 C411 1.369 . S
C412 C421 1.429 . S
C413 C411 1.419 . S
C413 C414 1.363 . S
C413 H416 0.929 . S
C414 C413 1.363 . S
C414 C420 1.428 . S
H415 C411 0.930 . S
H416 C413 0.929 . S
S417 N418 1.613 1_565 S
S417 N419 1.610 1_565 S
N418 S417 1.613 1_545 S
N418 C421 1.350 . S
N419 S417 1.610 1_545 S
N419 C420 1.351 . S
C420 C414 1.428 . S
C420 N419 1.351 . S
C420 C421 1.434 . S
C421 C412 1.429 . S
C421 N418 1.350 . S
C421 C420 1.434 . S
C422 C423 1.369 . S
C422 C424 1.419 . S
C422 H426 0.930 . S
C423 C422 1.369 . S
C423 C432 1.429 . S
C424 C422 1.419 . S
C424 C425 1.363 . S
C424 H427 0.929 1_554 S
C425 C424 1.363 . S
C425 C431 1.428 . S
H426 C422 0.930 . S
H427 C424 0.929 1_556 S
S428 N429 1.613 . S
S428 N430 1.610 . S
N429 S428 1.613 . S
N429 C432 1.350 . S
N430 S428 1.610 . S
N430 C431 1.351 . S
C431 C425 1.428 . S
C431 N430 1.351 . S
C431 C432 1.434 . S
C432 C423 1.429 . S
C432 N429 1.350 . S
C432 C431 1.434 . S
C433 C434 1.369 . S
C433 C435 1.419 . S
C433 H437 0.930 . S
C434 C433 1.369 . S
C434 C443 1.429 . S
C435 C433 1.419 . S
C435 C436 1.363 . S
C435 H438 0.929 . S
C436 C435 1.363 . S
C436 C442 1.428 . S
H437 C433 0.930 . S
H438 C435 0.929 . S
S439 N440 1.613 . S
S439 N441 1.610 . S
N440 S439 1.613 . S
N440 C443 1.350 . S
N441 S439 1.610 . S
N441 C442 1.351 . S
C442 C436 1.428 . S
C442 N441 1.351 . S
C442 C443 1.434 . S
C443 C434 1.429 . S
C443 N440 1.350 . S
C443 C442 1.434 . S
C444 C445 1.369 . S
C444 C446 1.419 . S
C444 H448 0.930 . S
C445 C444 1.369 . S
C445 C454 1.429 . S
C446 C444 1.419 . S
C446 C447 1.363 . S
C446 H449 0.929 1_556 S
C447 C446 1.363 . S
C447 C453 1.428 . S
H448 C444 0.930 . S
H449 C446 0.929 1_554 S
S450 N451 1.613 . S
S450 N452 1.610 . S
N451 S450 1.613 . S
N451 C454 1.350 . S
N452 S450 1.610 . S
N452 C453 1.351 . S
C453 C447 1.428 . S
C453 N452 1.351 . S
C453 C454 1.434 . S
C454 C445 1.429 . S
C454 N451 1.350 . S
C454 C453 1.434 . S
C455 C456 1.369 . S
C455 C457 1.419 . S
C455 H459 0.930 . S
C456 C455 1.369 . S
C456 C465 1.429 . S
C457 C455 1.419 . S
C457 C458 1.363 . S
C457 H460 0.929 . S
C458 C457 1.363 . S
C458 C464 1.428 . S
H459 C455 0.930 . S
H460 C457 0.929 . S
S461 N462 1.613 . S
S461 N463 1.610 . S
N462 S461 1.613 . S
N462 C465 1.350 . S
N463 S461 1.610 . S
N463 C464 1.351 . S
C464 C458 1.428 . S
C464 N463 1.351 . S
C464 C465 1.434 . S
C465 C456 1.429 . S
C465 N462 1.350 . S
C465 C464 1.434 . S
C466 C467 1.369 . S
C466 C468 1.419 . S
C466 H470 0.930 . S
C467 C466 1.369 . S
C467 C476 1.429 . S
C468 C466 1.419 . S
C468 C469 1.363 . S
C468 H471 0.929 . S
C469 C468 1.363 . S
C469 C475 1.428 . S
H470 C466 0.930 . S
H471 C468 0.929 . S
S472 N473 1.613 . S
S472 N474 1.610 . S
N473 S472 1.613 . S
N473 C476 1.350 . S
N474 S472 1.610 . S
N474 C475 1.351 . S
C475 C469 1.428 . S
C475 N474 1.351 . S
C475 C476 1.434 . S
C476 C467 1.429 . S
C476 N473 1.350 . S
C476 C475 1.434 . S
C477 C478 1.369 . S
C477 C479 1.419 . S
C477 H481 0.930 . S
C478 C477 1.369 . S
C478 C487 1.429 . S
C479 C477 1.419 . S
C479 C480 1.363 . S
C479 H482 0.929 . S
C480 C479 1.363 . S
C480 C486 1.428 . S
H481 C477 0.930 . S
H482 C479 0.929 . S
S483 N484 1.613 . S
S483 N485 1.610 . S
N484 S483 1.613 . S
N484 C487 1.350 . S
N485 S483 1.610 . S
N485 C486 1.351 . S
C486 C480 1.428 . S
C486 N485 1.351 . S
C486 C487 1.434 . S
C487 C478 1.429 . S
C487 N484 1.350 . S
C487 C486 1.434 . S
C225 N1 2.018 . S
C227 C120 2.114 . S
C236 N18 1.358 . S
C238 N140 1.324 . S
C249 C174 1.625 . S
C247 N28 1.628 . S
C258 N40 1.361 . S
C260 N208 1.333 . S
C271 C161 2.516 . S
C269 N5 2.468 . S
C282 N118 1.151 . S
C280 N14 1.187 . S
C293 C195 1.996 . S
C291 N31 1.956 . S
C304 N170 0.854 . S
C302 N41 0.852 . S
C313 N2 1.708 . S
C315 C210 1.730 . S
C326 C144 1.755 . S
C324 N27 1.699 . S
C335 N44 1.458 . S
C337 C105 1.517 . S
C346 N15 1.228 . S
C348 C191 1.245 . S
C359 C131 2.343 1_655 S
C357 N57 2.339 . S
C368 N70 1.055 . S
C370 N148 1.035 . S
C379 N79 1.821 . S
C381 C165 1.878 . S
C390 N93 1.177 . S
C392 N200 1.137 . S
C401 N54 2.209 . S
C403 C150 2.209 1_556 S
C414 N110 1.434 . S
C412 N66 1.496 . S
C425 C204 1.607 . S
C423 N80 1.594 . S
C436 N178 1.038 . S
C434 N96 1.022 . S
C445 N53 1.738 . S
C447 C221 1.769 . S
C458 C135 1.673 . S
C456 N83 1.640 . S
C469 C114 1.519 . S
C467 N92 1.490 . S
C478 N67 1.224 . S
C480 C180 1.240 . S
