# Generated by pormake.
# Topology pto, (3,4)-cn, num edge types: 1
# Building blocks:
#     Node 0, Type 0, BuildingBlock: ESEHIV_clean_linker_0, # of connection points: 3
#     Node 1, Type 0, BuildingBlock: ESEHIV_clean_linker_0, # of connection points: 3
#     Node 2, Type 0, BuildingBlock: ESEHIV_clean_linker_0, # of connection points: 3
#     Node 3, Type 0, BuildingBlock: ESEHIV_clean_linker_0, # of connection points: 3
#     Node 4, Type 0, BuildingBlock: ESEHIV_clean_linker_0, # of connection points: 3
#     Node 5, Type 0, BuildingBlock: ESEHIV_clean_linker_0, # of connection points: 3
#     Node 6, Type 0, BuildingBlock: ESEHIV_clean_linker_0, # of connection points: 3
#     Node 7, Type 0, BuildingBlock: ESEHIV_clean_linker_0, # of connection points: 3
#     Node 8, Type 1, BuildingBlock: NAWXER_clean_sbu_0, # of connection points: 4
#     Node 9, Type 1, BuildingBlock: NAWXER_clean_sbu_0, # of connection points: 4
#     Node 10, Type 1, BuildingBlock: NAWXER_clean_sbu_0, # of connection points: 4
#     Node 11, Type 1, BuildingBlock: NAWXER_clean_sbu_0, # of connection points: 4
#     Node 12, Type 1, BuildingBlock: NAWXER_clean_sbu_0, # of connection points: 4
#     Node 13, Type 1, BuildingBlock: NAWXER_clean_sbu_0, # of connection points: 4
#     Edge 14, Type (0, 1), BuildingBlock: ZUJKAS_clean_linker_0, # of connection points: 2
#     Edge 15, Type (0, 1), BuildingBlock: ZUJKAS_clean_linker_0, # of connection points: 2
#     Edge 16, Type (0, 1), BuildingBlock: ZUJKAS_clean_linker_0, # of connection points: 2
#     Edge 17, Type (0, 1), BuildingBlock: ZUJKAS_clean_linker_0, # of connection points: 2
#     Edge 18, Type (0, 1), BuildingBlock: ZUJKAS_clean_linker_0, # of connection points: 2
#     Edge 19, Type (0, 1), BuildingBlock: ZUJKAS_clean_linker_0, # of connection points: 2
#     Edge 20, Type (0, 1), BuildingBlock: ZUJKAS_clean_linker_0, # of connection points: 2
#     Edge 21, Type (0, 1), BuildingBlock: ZUJKAS_clean_linker_0, # of connection points: 2
#     Edge 22, Type (0, 1), BuildingBlock: ZUJKAS_clean_linker_0, # of connection points: 2
#     Edge 23, Type (0, 1), BuildingBlock: ZUJKAS_clean_linker_0, # of connection points: 2
#     Edge 24, Type (0, 1), BuildingBlock: ZUJKAS_clean_linker_0, # of connection points: 2
#     Edge 25, Type (0, 1), BuildingBlock: ZUJKAS_clean_linker_0, # of connection points: 2
#     Edge 26, Type (0, 1), BuildingBlock: ZUJKAS_clean_linker_0, # of connection points: 2
#     Edge 27, Type (0, 1), BuildingBlock: ZUJKAS_clean_linker_0, # of connection points: 2
#     Edge 28, Type (0, 1), BuildingBlock: ZUJKAS_clean_linker_0, # of connection points: 2
#     Edge 29, Type (0, 1), BuildingBlock: ZUJKAS_clean_linker_0, # of connection points: 2
#     Edge 30, Type (0, 1), BuildingBlock: ZUJKAS_clean_linker_0, # of connection points: 2
#     Edge 31, Type (0, 1), BuildingBlock: ZUJKAS_clean_linker_0, # of connection points: 2
#     Edge 32, Type (0, 1), BuildingBlock: ZUJKAS_clean_linker_0, # of connection points: 2
#     Edge 33, Type (0, 1), BuildingBlock: ZUJKAS_clean_linker_0, # of connection points: 2
#     Edge 34, Type (0, 1), BuildingBlock: ZUJKAS_clean_linker_0, # of connection points: 2
#     Edge 35, Type (0, 1), BuildingBlock: ZUJKAS_clean_linker_0, # of connection points: 2
#     Edge 36, Type (0, 1), BuildingBlock: ZUJKAS_clean_linker_0, # of connection points: 2
#     Edge 37, Type (0, 1), BuildingBlock: ZUJKAS_clean_linker_0, # of connection points: 2
# Relax obj value: 0.000
# Max RMSD: 0.005
# Mean RMSD: 0.003
data_MOF--net-pto--node1-NAWXER_clean_sbu_0--node2-ESEHIV_clean_linker_0--edge1-ZUJKAS_clean_linker_0
_symmetry_space_group_name_H-M    P1
_symmetry_Int_Tables_number       1
_symmetry_cell_setting            triclinic
loop_
_symmetry_equiv_pos_as_xyz
'x, y, z'
_cell_length_a     54.444803
_cell_length_b     51.177863
_cell_length_c     47.902124
_cell_angle_alpha  90.446946
_cell_angle_beta   90.005803
_cell_angle_gamma 89.956868
loop_
_atom_site_label
_atom_site_type_symbol
_atom_site_fract_x
_atom_site_fract_y
_atom_site_fract_z
_atom_type_partial_charge
H0 H 0.25813 0.30966 0.22288 0.0
H1 H 0.29721 0.24734 0.2626 0.0
H2 H 0.22281 0.26478 0.28696 0.0
C3 C 0.25881 0.29442 0.23844 0.0
C4 C 0.23805 0.28957 0.25504 0.0
C5 C 0.28015 0.27928 0.24095 0.0
C6 C 0.28057 0.25874 0.2602 0.0
C7 C 0.25995 0.25319 0.27681 0.0
C8 C 0.23875 0.26881 0.27418 0.0
H9 H 0.25457 0.70233 0.79123 0.0
H10 H 0.2966 0.75994 0.74771 0.0
H11 H 0.22083 0.74666 0.7256 0.0
C12 C 0.25559 0.71742 0.77552 0.0
C13 C 0.23487 0.72313 0.75922 0.0
C14 C 0.27792 0.73038 0.77122 0.0
C15 C 0.27952 0.74938 0.75035 0.0
C16 C 0.25901 0.75561 0.73379 0.0
C17 C 0.23674 0.74221 0.73829 0.0
H18 H 0.71784 0.76235 0.25588 0.0
H19 H 0.79319 0.74805 0.27857 0.0
H20 H 0.75846 0.70123 0.2149 0.0
C21 C 0.73483 0.7516 0.25305 0.0
C22 C 0.73582 0.73126 0.23324 0.0
C23 C 0.75536 0.75781 0.26965 0.0
C24 C 0.77709 0.74313 0.26631 0.0
C25 C 0.77842 0.72272 0.24646 0.0
C26 C 0.75763 0.71693 0.23018 0.0
H27 H 0.71762 0.24732 0.75251 0.0
H28 H 0.78967 0.26791 0.72313 0.0
H29 H 0.75672 0.311 0.79097 0.0
C30 C 0.73387 0.25947 0.75405 0.0
C31 C 0.73464 0.28 0.77366 0.0
C32 C 0.75363 0.25499 0.73575 0.0
C33 C 0.77444 0.27124 0.73728 0.0
C34 C 0.77564 0.29167 0.75708 0.0
C35 C 0.75565 0.2958 0.77513 0.0
H36 H 0.73869 0.78494 0.76675 0.0
H37 H 0.75634 0.70584 0.78964 0.0
H38 H 0.79698 0.74407 0.72477 0.0
C39 C 0.74976 0.76749 0.76412 0.0
C40 C 0.76851 0.76718 0.744 0.0
C41 C 0.74513 0.7455 0.78078 0.0
C42 C 0.75959 0.72289 0.77689 0.0
C43 C 0.77824 0.72218 0.75656 0.0
C44 C 0.78255 0.74444 0.74035 0.0
H45 H 0.7415 0.21942 0.24437 0.0
H46 H 0.75796 0.29852 0.22017 0.0
H47 H 0.79859 0.26198 0.28627 0.0
C48 C 0.75244 0.23701 0.24644 0.0
C49 C 0.77065 0.23823 0.26711 0.0
C50 C 0.74749 0.25871 0.22942 0.0
C51 C 0.76143 0.2817 0.2332 0.0
C52 C 0.77972 0.28315 0.25393 0.0
C53 C 0.78415 0.26128 0.27068 0.0
H54 H 0.21428 0.26273 0.73048 0.0
H55 H 0.27341 0.22236 0.77087 0.0
H56 H 0.25855 0.30293 0.79147 0.0
C57 C 0.22931 0.26267 0.74532 0.0
C58 C 0.23456 0.28544 0.76071 0.0
C59 C 0.24328 0.23989 0.74871 0.0
C60 C 0.26285 0.24006 0.76779 0.0
C61 C 0.26861 0.26267 0.78334 0.0
C62 C 0.25414 0.28527 0.77991 0.0
H63 H 0.21115 0.75007 0.27823 0.0
H64 H 0.25 0.71177 0.21107 0.0
H65 H 0.2751 0.786 0.24305 0.0
C66 C 0.22601 0.74968 0.26316 0.0
C67 C 0.24266 0.7705 0.26257 0.0
C68 C 0.22828 0.72847 0.24457 0.0
C69 C 0.24794 0.72808 0.22545 0.0
C70 C 0.26505 0.74871 0.22495 0.0
C71 C 0.26212 0.76994 0.24343 0.0
C72 C 0.97036 0.47337 0.27053 0.0
C73 C 0.04151 0.53224 0.26849 0.0
O74 O 0.98117 0.48309 0.29179 0.0
Zn75 Zn 0.0057 0.50318 0.2714 0.0
O76 O 0.97799 0.47907 0.24602 0.0
Zn77 Zn 0.00545 0.50197 0.22617 0.0
O78 O 0.02503 0.47552 0.20674 0.0
O79 O 0.02734 0.47301 0.2527 0.0
O80 O 0.03361 0.52511 0.24444 0.0
O81 O 0.03051 0.52455 0.29039 0.0
O82 O 0.98356 0.532 0.25204 0.0
O83 O 0.9856 0.52776 0.20625 0.0
C84 C 0.0334 0.46441 0.22846 0.0
C85 C 0.97718 0.53959 0.22769 0.0
C86 C 0.97883 0.46806 0.78298 0.0
C87 C 0.03536 0.54285 0.78246 0.0
O88 O 0.98673 0.4802 0.80448 0.0
Zn89 Zn 0.00689 0.50563 0.78458 0.0
O90 O 0.98538 0.47553 0.75864 0.0
Zn91 Zn 0.00727 0.50469 0.73941 0.0
O92 O 0.03197 0.48365 0.72015 0.0
O93 O 0.03466 0.4817 0.76607 0.0
O94 O 0.02926 0.53431 0.75823 0.0
O95 O 0.02666 0.53193 0.80411 0.0
O96 O 0.97947 0.52873 0.76493 0.0
O97 O 0.98273 0.52499 0.71917 0.0
C98 C 0.04255 0.47488 0.74187 0.0
C99 C 0.97188 0.53459 0.74046 0.0
C100 C 0.26326 0.97025 0.54181 0.0
C101 C 0.26219 0.04142 0.47349 0.0
O102 O 0.24164 0.97752 0.53459 0.0
Zn103 Zn 0.22447 0.00522 0.50742 0.0
O104 O 0.28191 0.98136 0.53112 0.0
Zn105 Zn 0.26394 0.00565 0.50757 0.0
O106 O 0.24664 0.03055 0.53768 0.0
O107 O 0.20638 0.02693 0.53364 0.0
O108 O 0.28111 0.03047 0.48373 0.0
O109 O 0.24081 0.03359 0.48084 0.0
O110 O 0.20713 0.98294 0.48095 0.0
O111 O 0.24751 0.97956 0.47822 0.0
C112 C 0.22497 0.03701 0.54566 0.0
C113 C 0.2261 0.97258 0.46998 0.0
C114 C 0.53669 0.70819 0.04067 0.0
C115 C 0.47457 0.70808 0.96688 0.0
O116 O 0.52727 0.68817 0.02896 0.0
Zn117 Zn 0.50583 0.70692 0.00357 0.0
O118 O 0.52998 0.73106 0.03304 0.0
Zn119 Zn 0.50574 0.7489 0.00378 0.0
O120 O 0.4829 0.76784 0.0277 0.0
O121 O 0.48009 0.72497 0.03168 0.0
O122 O 0.48116 0.73096 0.97491 0.0
O123 O 0.4845 0.68807 0.97773 0.0
O124 O 0.5317 0.72462 0.97601 0.0
O125 O 0.52859 0.76748 0.9797 0.0
C126 C 0.473 0.74796 0.03885 0.0
C127 C 0.53876 0.74747 0.96877 0.0
C128 C 0.787 0.97161 0.54442 0.0
C129 C 0.78828 0.03635 0.47004 0.0
O130 O 0.76558 0.97854 0.53613 0.0
Zn131 Zn 0.74925 1.00392 0.50612 0.0
O132 O 0.80597 0.98142 0.53306 0.0
Zn133 Zn 0.78872 1.00367 0.50702 0.0
O134 O 0.77149 0.0314 0.53453 0.0
O135 O 0.73123 0.02868 0.52949 0.0
O136 O 0.80689 0.02584 0.48145 0.0
O137 O 0.76664 0.02962 0.47759 0.0
O138 O 0.73215 0.97946 0.48138 0.0
O139 O 0.77245 0.97575 0.47932 0.0
C140 C 0.74984 0.03914 0.54115 0.0
C141 C 0.75111 0.9683 0.47129 0.0
C142 C 0.54124 0.25897 0.0417 0.0
C143 C 0.47383 0.26162 0.97359 0.0
O144 O 0.53066 0.23942 0.03036 0.0
Zn145 Zn 0.50762 0.25903 0.00748 0.0
O146 O 0.53434 0.28213 0.03535 0.0
Zn147 Zn 0.50824 0.30101 0.00886 0.0
O148 O 0.48769 0.31967 0.03555 0.0
O149 O 0.48417 0.27677 0.03787 0.0
O150 O 0.48137 0.28421 0.98152 0.0
O151 O 0.48407 0.24125 0.98329 0.0
O152 O 0.53157 0.27708 0.97827 0.0
O153 O 0.5294 0.31991 0.98326 0.0
C154 C 0.47803 0.29961 0.04658 0.0
C155 C 0.53842 0.29997 0.97097 0.0
H156 H 0.1895 0.27455 0.25484 0.0
H157 H 0.15333 0.30227 0.24787 0.0
H158 H 0.2002 0.36971 0.23993 0.0
H159 H 0.23618 0.3425 0.2482 0.0
H160 H 0.16216 0.37988 0.27303 0.0
H161 H 0.12854 0.33307 0.17548 0.0
H162 H 0.13178 0.31077 0.20398 0.0
H163 H 0.15854 0.32642 0.18982 0.0
C164 C 0.19207 0.29532 0.2519 0.0
C165 C 0.21579 0.30624 0.25187 0.0
C166 C 0.1714 0.31108 0.24746 0.0
C167 C 0.17408 0.33799 0.24269 0.0
C168 C 0.19768 0.34896 0.24322 0.0
H169 H 0.06516 0.4518 0.18568 0.0
H170 H 0.09892 0.41983 0.18742 0.0
C171 C 0.21826 0.33332 0.24781 0.0
C172 C 0.15237 0.35509 0.23825 0.0
H173 H 0.10211 0.36466 0.19669 0.0
C174 C 0.14909 0.37656 0.25627 0.0
C175 C 0.13552 0.35103 0.21609 0.0
C176 C 0.13884 0.32924 0.19505 0.0
C177 C 0.12931 0.39382 0.25307 0.0
C178 C 0.11189 0.38915 0.23167 0.0
C179 C 0.11534 0.36801 0.21326 0.0
C180 C 0.08981 0.40591 0.2287 0.0
C181 C 0.12744 0.41714 0.27246 0.0
C182 C 0.07299 0.40782 0.25075 0.0
C183 C 0.05397 0.42604 0.24989 0.0
C184 C 0.05113 0.44252 0.22676 0.0
C185 C 0.06692 0.43936 0.20376 0.0
C186 C 0.08621 0.42117 0.20476 0.0
H187 H 0.14542 0.42193 0.28219 0.0
H188 H 0.12067 0.43464 0.26124 0.0
H189 H 0.1143 0.41269 0.28948 0.0
H190 H 0.07508 0.3958 0.26912 0.0
H191 H 0.04188 0.42774 0.26778 0.0
H192 H 0.20389 0.70213 0.71997 0.0
H193 H 0.16782 0.67464 0.72797 0.0
H194 H 0.17793 0.68259 0.81692 0.0
H195 H 0.21352 0.7107 0.80911 0.0
H196 H 0.1692 0.62721 0.75597 0.0
H197 H 0.10425 0.69576 0.80802 0.0
H198 H 0.13074 0.70683 0.78877 0.0
H199 H 0.13428 0.69431 0.82347 0.0
C200 C 0.19809 0.69855 0.74122 0.0
C201 C 0.21162 0.70855 0.76389 0.0
C202 C 0.17757 0.6827 0.74577 0.0
C203 C 0.17006 0.67674 0.77305 0.0
C204 C 0.18313 0.68726 0.79571 0.0
H205 H 0.06007 0.56178 0.82878 0.0
H206 H 0.09285 0.59496 0.82935 0.0
C207 C 0.20364 0.70309 0.79119 0.0
C208 C 0.14978 0.6579 0.77766 0.0
H209 H 0.0926 0.65109 0.80623 0.0
C210 C 0.15247 0.63246 0.76696 0.0
C211 C 0.12808 0.6647 0.7923 0.0
C212 C 0.12397 0.69193 0.80364 0.0
C213 C 0.13395 0.61371 0.77022 0.0
C214 C 0.11204 0.62065 0.78426 0.0
C215 C 0.1095 0.64586 0.79559 0.0
C216 C 0.0909 0.6025 0.78503 0.0
C217 C 0.13786 0.5866 0.7584 0.0
C218 C 0.07863 0.59643 0.76014 0.0
C219 C 0.06009 0.5777 0.75974 0.0
C220 C 0.05331 0.56458 0.78428 0.0
C221 C 0.0649 0.57149 0.80954 0.0
C222 C 0.08359 0.59039 0.8099 0.0
H223 H 0.15759 0.58256 0.75427 0.0
H224 H 0.13069 0.57157 0.77288 0.0
H225 H 0.12775 0.5847 0.73837 0.0
H226 H 0.08381 0.60582 0.74081 0.0
H227 H 0.05143 0.57314 0.73994 0.0
H228 H 0.79948 0.70665 0.19731 0.0
H229 H 0.83441 0.67711 0.19102 0.0
H230 H 0.8447 0.67475 0.28022 0.0
H231 H 0.8092 0.70357 0.28677 0.0
H232 H 0.88363 0.68006 0.20651 0.0
H233 H 0.83682 0.59773 0.25904 0.0
H234 H 0.82075 0.62688 0.24849 0.0
H235 H 0.83855 0.62681 0.28013 0.0
C236 C 0.80911 0.69976 0.21562 0.0
C237 C 0.80129 0.70713 0.24259 0.0
C238 C 0.82918 0.68304 0.21196 0.0
C239 C 0.84183 0.67331 0.23515 0.0
C240 C 0.83485 0.6816 0.26204 0.0
H241 H 0.96077 0.57079 0.26984 0.0
H242 H 0.92869 0.60378 0.26837 0.0
C243 C 0.81473 0.6983 0.26574 0.0
C244 C 0.86182 0.65387 0.23126 0.0
H245 H 0.87925 0.59208 0.24895 0.0
C246 C 0.88263 0.66075 0.21559 0.0
C247 C 0.86031 0.62856 0.2428 0.0
C248 C 0.83781 0.6194 0.25832 0.0
C249 C 0.90241 0.6433 0.21217 0.0
C250 C 0.90119 0.61837 0.22453 0.0
C251 C 0.88013 0.61128 0.23956 0.0
C252 C 0.92215 0.59989 0.22404 0.0
C253 C 0.92484 0.65187 0.19622 0.0
C254 C 0.92938 0.58692 0.1994 0.0
C255 C 0.94788 0.56779 0.20011 0.0
C256 C 0.95926 0.56135 0.22552 0.0
C257 C 0.95235 0.57504 0.24989 0.0
C258 C 0.93399 0.59399 0.24915 0.0
H259 H 0.92422 0.67298 0.19099 0.0
H260 H 0.94171 0.64797 0.20854 0.0
H261 H 0.92616 0.64046 0.17648 0.0
H262 H 0.92024 0.59103 0.17984 0.0
H263 H 0.95273 0.55756 0.18102 0.0
H264 H 0.77691 0.34466 0.7643 0.0
H265 H 0.81285 0.37245 0.77136 0.0
H266 H 0.86025 0.30542 0.76204 0.0
H267 H 0.8242 0.27721 0.75577 0.0
H268 H 0.87231 0.33842 0.80825 0.0
H269 H 0.86114 0.39456 0.7104 0.0
H270 H 0.83421 0.39411 0.73202 0.0
H271 H 0.84525 0.36421 0.71654 0.0
C272 C 0.79497 0.33577 0.76383 0.0
C273 C 0.79769 0.3087 0.75946 0.0
C274 C 0.8155 0.35173 0.76767 0.0
C275 C 0.83921 0.34104 0.76698 0.0
C276 C 0.84208 0.31405 0.76257 0.0
H277 H 0.97153 0.42975 0.74466 0.0
H278 H 0.93894 0.39723 0.74353 0.0
C279 C 0.8215 0.29802 0.75872 0.0
C280 C 0.86094 0.35814 0.77086 0.0
H281 H 0.89045 0.41055 0.74287 0.0
C282 C 0.8764 0.35414 0.79393 0.0
C283 C 0.86627 0.37851 0.75204 0.0
C284 C 0.851 0.38303 0.72621 0.0
C285 C 0.89694 0.37021 0.79882 0.0
C286 C 0.90192 0.39093 0.78031 0.0
C287 C 0.88652 0.39475 0.75717 0.0
C288 C 0.92354 0.40835 0.78351 0.0
C289 C 0.91338 0.3646 0.82339 0.0
C290 C 0.92618 0.42503 0.8068 0.0
C291 C 0.94508 0.44366 0.80763 0.0
C292 C 0.96132 0.44606 0.78498 0.0
C293 C 0.95918 0.42856 0.76234 0.0
C294 C 0.94055 0.40993 0.76164 0.0
H295 H 0.91035 0.34465 0.83169 0.0
H296 H 0.93302 0.36664 0.81754 0.0
H297 H 0.90942 0.37887 0.84036 0.0
H298 H 0.91302 0.42442 0.82373 0.0
H299 H 0.94619 0.45701 0.82524 0.0
H300 H 0.27951 0.20448 0.26832 0.0
H301 H 0.2822 0.16853 0.30145 0.0
H302 H 0.24462 0.21524 0.36338 0.0
H303 H 0.24253 0.25171 0.3306 0.0
H304 H 0.28621 0.18905 0.3842 0.0
H305 H 0.22525 0.12153 0.3251 0.0
H306 H 0.25056 0.13409 0.30527 0.0
H307 H 0.22706 0.15599 0.31765 0.0
C308 C 0.27194 0.20721 0.28904 0.0
C309 C 0.26078 0.23101 0.29678 0.0
C310 C 0.27329 0.18652 0.30787 0.0
C311 C 0.26336 0.18908 0.33477 0.0
C312 C 0.25231 0.21282 0.34267 0.0
H313 H 0.22473 0.06945 0.45094 0.0
H314 H 0.22704 0.10504 0.41772 0.0
C315 C 0.25094 0.23356 0.32383 0.0
C316 C 0.26457 0.16702 0.35469 0.0
H317 H 0.24563 0.10416 0.36444 0.0
C318 C 0.27736 0.17046 0.37992 0.0
C319 C 0.25288 0.14286 0.34911 0.0
C320 C 0.23797 0.13837 0.32294 0.0
C321 C 0.27876 0.15037 0.39974 0.0
C322 C 0.26732 0.1261 0.39398 0.0
C323 C 0.2546 0.12268 0.3687 0.0
C324 C 0.26666 0.10462 0.41466 0.0
C325 C 0.29182 0.15555 0.427 0.0
C326 C 0.28824 0.09237 0.42401 0.0
C327 C 0.28702 0.07186 0.44326 0.0
C328 C 0.26417 0.06319 0.45329 0.0
C329 C 0.24267 0.07552 0.44371 0.0
C330 C 0.24392 0.09593 0.42464 0.0
H331 H 0.295 0.17675 0.43062 0.0
H332 H 0.28112 0.1477 0.44479 0.0
H333 H 0.30994 0.14561 0.42666 0.0
H334 H 0.30599 0.09846 0.41621 0.0
H335 H 0.3039 0.06273 0.45011 0.0
H336 H 0.27922 0.72722 0.82791 0.0
H337 H 0.31475 0.71821 0.85756 0.0
H338 H 0.36038 0.7099 0.78436 0.0
H339 H 0.32492 0.71969 0.75462 0.0
H340 H 0.34494 0.67672 0.86189 0.0
H341 H 0.39797 0.76373 0.82839 0.0
H342 H 0.36617 0.75905 0.81921 0.0
H343 H 0.38987 0.74182 0.80046 0.0
C344 C 0.29684 0.72341 0.81817 0.0
C345 C 0.29941 0.72435 0.78902 0.0
C346 C 0.3171 0.71823 0.8351 0.0
C347 C 0.34031 0.71374 0.82322 0.0
C348 C 0.34279 0.71393 0.79403 0.0
H349 H 0.46275 0.66554 0.93382 0.0
H350 H 0.4314 0.66373 0.89688 0.0
C351 C 0.32256 0.71947 0.77708 0.0
C352 C 0.36185 0.70954 0.84164 0.0
H353 H 0.41708 0.73575 0.86047 0.0
C354 C 0.36081 0.68951 0.86151 0.0
C355 C 0.38246 0.72636 0.84117 0.0
C356 C 0.38419 0.74909 0.82136 0.0
C357 C 0.37944 0.68636 0.88151 0.0
C358 C 0.39994 0.70331 0.88114 0.0
C359 C 0.40139 0.7227 0.86061 0.0
C360 C 0.41874 0.70343 0.90356 0.0
C361 C 0.37641 0.66581 0.90366 0.0
C362 C 0.42224 0.72635 0.91925 0.0
C363 C 0.44023 0.72754 0.93985 0.0
C364 C 0.45512 0.70575 0.94545 0.0
C365 C 0.45145 0.68257 0.93006 0.0
C366 C 0.43349 0.68149 0.90906 0.0
H367 H 0.35733 0.65817 0.90446 0.0
H368 H 0.38888 0.64919 0.89901 0.0
H369 H 0.38128 0.67376 0.92457 0.0
H370 H 0.41102 0.74347 0.91549 0.0
H371 H 0.44241 0.74565 0.95144 0.0
H372 H 0.73385 0.80573 0.26271 0.0
H373 H 0.73058 0.84144 0.29665 0.0
H374 H 0.77089 0.79601 0.35669 0.0
H375 H 0.77359 0.75975 0.32309 0.0
H376 H 0.72888 0.82074 0.37908 0.0
H377 H 0.78661 0.89034 0.31968 0.0
H378 H 0.76129 0.87691 0.30031 0.0
H379 H 0.7857 0.85584 0.31166 0.0
C380 C 0.74188 0.8032 0.2832 0.0
C381 C 0.75401 0.77983 0.29016 0.0
C382 C 0.74019 0.82377 0.30249 0.0
C383 C 0.75073 0.82152 0.32908 0.0
C384 C 0.76271 0.7982 0.33622 0.0
H385 H 0.7887 0.94122 0.44728 0.0
H386 H 0.78652 0.90588 0.41315 0.0
C387 C 0.76442 0.77758 0.31692 0.0
C388 C 0.74928 0.84351 0.34945 0.0
H389 H 0.76673 0.90691 0.35999 0.0
C390 C 0.73711 0.83961 0.37494 0.0
C391 C 0.76017 0.86805 0.34404 0.0
C392 C 0.77438 0.87307 0.31756 0.0
C393 C 0.73559 0.8596 0.39519 0.0
C394 C 0.74626 0.88422 0.38963 0.0
C395 C 0.75833 0.88811 0.3641 0.0
C396 C 0.74686 0.9056 0.41078 0.0
C397 C 0.72325 0.85398 0.42269 0.0
C398 C 0.72521 0.91739 0.42079 0.0
C399 C 0.72637 0.93778 0.44053 0.0
C400 C 0.74921 0.94675 0.45045 0.0
C401 C 0.77077 0.93489 0.44019 0.0
C402 C 0.76959 0.91463 0.4206 0.0
H403 H 0.72048 0.8327 0.42587 0.0
H404 H 0.73425 0.86189 0.44035 0.0
H405 H 0.70499 0.86362 0.42316 0.0
H406 H 0.70747 0.91101 0.41315 0.0
H407 H 0.70943 0.94654 0.44791 0.0
H408 H 0.71468 0.32712 0.78884 0.0
H409 H 0.68171 0.33533 0.82253 0.0
H410 H 0.67374 0.2524 0.83487 0.0
H411 H 0.70719 0.24403 0.80191 0.0
H412 H 0.63266 0.31849 0.82268 0.0
H413 H 0.6836 0.28098 0.91421 0.0
H414 H 0.69848 0.28846 0.88156 0.0
H415 H 0.68234 0.25807 0.88568 0.0
C416 C 0.70604 0.31063 0.79891 0.0
C417 C 0.71372 0.28492 0.79291 0.0
C418 C 0.68711 0.31537 0.81799 0.0
C419 C 0.67561 0.29451 0.83153 0.0
C420 C 0.68273 0.2688 0.82502 0.0
H421 H 0.559 0.26059 0.94067 0.0
H422 H 0.59207 0.26324 0.90674 0.0
C423 C 0.70165 0.26403 0.80596 0.0
C424 C 0.65615 0.2995 0.85249 0.0
H425 H 0.64037 0.28712 0.92003 0.0
C426 C 0.63442 0.31199 0.84408 0.0
C427 C 0.65867 0.29125 0.88046 0.0
C428 C 0.68213 0.27919 0.89114 0.0
C429 C 0.6146 0.31515 0.8626 0.0
C430 C 0.61675 0.30575 0.89013 0.0
C431 C 0.63882 0.29423 0.89882 0.0
C432 C 0.59564 0.30523 0.9095 0.0
C433 C 0.59109 0.32739 0.85238 0.0
C434 C 0.58656 0.32812 0.92214 0.0
C435 C 0.56751 0.32673 0.94179 0.0
C436 C 0.55741 0.30239 0.94901 0.0
C437 C 0.56635 0.27967 0.93575 0.0
C438 C 0.58528 0.28109 0.9163 0.0
H439 H 0.59164 0.33157 0.82967 0.0
H440 H 0.57532 0.31427 0.85666 0.0
H441 H 0.58781 0.346 0.86385 0.0
H442 H 0.59454 0.34692 0.91726 0.0
H443 H 0.56106 0.34455 0.95167 0.0
H444 H 0.22482 0.79313 0.72109 0.0
H445 H 0.22856 0.8287 0.68762 0.0
H446 H 0.30149 0.80251 0.6661 0.0
H447 H 0.29747 0.76615 0.69852 0.0
H448 H 0.26161 0.86856 0.68807 0.0
H449 H 0.27123 0.81132 0.58973 0.0
H450 H 0.26117 0.79678 0.62197 0.0
H451 H 0.29326 0.80299 0.61609 0.0
C452 C 0.24146 0.79455 0.70881 0.0
C453 C 0.2608 0.77665 0.71249 0.0
C454 C 0.24366 0.81506 0.68985 0.0
C455 C 0.2652 0.81814 0.67408 0.0
C456 C 0.28451 0.80029 0.6776 0.0
H457 H 0.30477 0.94224 0.55553 0.0
H458 H 0.30768 0.90573 0.58851 0.0
C459 C 0.28228 0.77967 0.69645 0.0
C460 C 0.26772 0.84067 0.65487 0.0
H461 H 0.27696 0.85711 0.58661 0.0
C462 C 0.26498 0.86602 0.66589 0.0
C463 C 0.2723 0.83739 0.62594 0.0
C464 C 0.27445 0.81066 0.61262 0.0
C465 C 0.26644 0.88811 0.64878 0.0
C466 C 0.2706 0.88479 0.61985 0.0
C467 C 0.27394 0.85955 0.60886 0.0
C468 C 0.26937 0.90714 0.60039 0.0
C469 C 0.26339 0.91488 0.66173 0.0
C470 C 0.24688 0.9198 0.59609 0.0
C471 C 0.24513 0.94039 0.57729 0.0
C472 C 0.26587 0.94887 0.56235 0.0
C473 C 0.2885 0.93627 0.56681 0.0
C474 C 0.29018 0.9154 0.58555 0.0
H475 H 0.26638 0.91458 0.68467 0.0
H476 H 0.27637 0.92903 0.65229 0.0
H477 H 0.24444 0.92195 0.65781 0.0
H478 H 0.23055 0.91352 0.60708 0.0
H479 H 0.22741 0.94962 0.57442 0.0
H480 H 0.71721 0.68328 0.21862 0.0
H481 H 0.68358 0.6739 0.18601 0.0
H482 H 0.67202 0.75652 0.17483 0.0
H483 H 0.70595 0.76606 0.20672 0.0
H484 H 0.63319 0.68976 0.18731 0.0
H485 H 0.68238 0.72802 0.09492 0.0
H486 H 0.69783 0.72043 0.12723 0.0
H487 H 0.68133 0.7507 0.12368 0.0
C488 C 0.70757 0.69944 0.20909 0.0
C489 C 0.71437 0.72543 0.21507 0.0
C490 C 0.68829 0.69404 0.19063 0.0
C491 C 0.67562 0.71451 0.17771 0.0
C492 C 0.68186 0.74044 0.18427 0.0
H493 H 0.55791 0.74768 0.07019 0.0
H494 H 0.59142 0.74506 0.10359 0.0
C495 C 0.70108 0.74586 0.20271 0.0
C496 C 0.65604 0.70897 0.15707 0.0
H497 H 0.63917 0.72128 0.08986 0.0
C498 C 0.63457 0.69627 0.16588 0.0
C499 C 0.65808 0.71725 0.12908 0.0
C500 C 0.68124 0.72963 0.11803 0.0
C501 C 0.61448 0.693 0.14774 0.0
C502 C 0.61613 0.70249 0.12019 0.0
C503 C 0.63799 0.71413 0.11108 0.0
C504 C 0.59471 0.70301 0.10123 0.0
C505 C 0.59122 0.68062 0.15841 0.0
C506 C 0.58531 0.68009 0.08899 0.0
C507 C 0.566 0.68147 0.06966 0.0
C508 C 0.55596 0.70582 0.06233 0.0
C509 C 0.56521 0.72858 0.0752 0.0
C510 C 0.58439 0.72717 0.09434 0.0
H511 H 0.5921 0.67659 0.18115 0.0
H512 H 0.57526 0.69356 0.1543 0.0
H513 H 0.58799 0.66191 0.14714 0.0
H514 H 0.59325 0.66127 0.09391 0.0
H515 H 0.55931 0.66361 0.06008 0.0
H516 H 0.76151 0.25737 0.67951 0.0
H517 H 0.7575 0.22191 0.64509 0.0
H518 H 0.73977 0.16824 0.71114 0.0
H519 H 0.7427 0.20389 0.74531 0.0
H520 H 0.78154 0.17926 0.63732 0.0
H521 H 0.68558 0.15104 0.6589 0.0
H522 H 0.69913 0.18026 0.67348 0.0
H523 H 0.7039 0.14907 0.68988 0.0
C524 C 0.75669 0.23798 0.68658 0.0
C525 C 0.75225 0.23336 0.71499 0.0
C526 C 0.75433 0.21774 0.66693 0.0
C527 C 0.74772 0.19243 0.67534 0.0
C528 C 0.74397 0.18771 0.70389 0.0
H529 H 0.78177 0.05216 0.58242 0.0
H530 H 0.77979 0.08937 0.6144 0.0
C531 C 0.74589 0.20803 0.72346 0.0
C532 C 0.74587 0.17077 0.65446 0.0
H533 H 0.7097 0.11981 0.63302 0.0
C534 C 0.76569 0.16646 0.63624 0.0
C535 C 0.725 0.15429 0.65247 0.0
C536 C 0.70211 0.15909 0.66952 0.0
C537 C 0.76559 0.14578 0.61682 0.0
C538 C 0.74552 0.12816 0.61627 0.0
C539 C 0.7253 0.13297 0.63376 0.0
C540 C 0.74551 0.10439 0.59812 0.0
C541 C 0.78693 0.14334 0.59683 0.0
C542 C 0.72611 0.09937 0.57943 0.0
C543 C 0.72689 0.07756 0.56151 0.0
C544 C 0.7472 0.06059 0.56185 0.0
C545 C 0.76607 0.06514 0.58132 0.0
C546 C 0.76507 0.08656 0.59948 0.0
H547 H 0.79586 0.16256 0.59335 0.0
H548 H 0.80094 0.1301 0.60584 0.0
H549 H 0.78103 0.13528 0.57632 0.0
H550 H 0.71067 0.11267 0.57821 0.0
H551 H 0.71208 0.07453 0.54674 0.0
H552 H 0.30908 0.24387 0.21334 0.0
H553 H 0.34345 0.2528 0.18197 0.0
H554 H 0.33379 0.33558 0.19543 0.0
H555 H 0.29979 0.32681 0.22748 0.0
H556 H 0.3403 0.2827 0.13259 0.0
H557 H 0.40819 0.32445 0.2075 0.0
H558 H 0.382 0.30559 0.2187 0.0
H559 H 0.37805 0.33885 0.20792 0.0
C560 C 0.31455 0.26396 0.21004 0.0
C561 C 0.30174 0.28463 0.22293 0.0
C562 C 0.33408 0.26903 0.19198 0.0
C563 C 0.34128 0.29483 0.18661 0.0
C564 C 0.32875 0.31552 0.19963 0.0
H565 H 0.45619 0.34417 0.06785 0.0
H566 H 0.42243 0.34642 0.10198 0.0
C567 C 0.30918 0.31048 0.21769 0.0
C568 C 0.36112 0.29989 0.16624 0.0
H569 H 0.41982 0.32273 0.16001 0.0
C570 C 0.35762 0.29161 0.13855 0.0
C571 C 0.38358 0.31176 0.17406 0.0
C572 C 0.38839 0.32055 0.20369 0.0
C573 C 0.37622 0.29427 0.11858 0.0
C574 C 0.399 0.3052 0.12661 0.0
C575 C 0.40226 0.31442 0.15401 0.0
C576 C 0.42029 0.30457 0.1075 0.0
C577 C 0.37155 0.28494 0.08909 0.0
C578 C 0.43052 0.28041 0.10002 0.0
C579 C 0.44963 0.27907 0.08078 0.0
C580 C 0.45903 0.30189 0.06858 0.0
C581 C 0.44931 0.32626 0.07681 0.0
C582 C 0.43007 0.32757 0.09625 0.0
H583 H 0.35158 0.28341 0.08454 0.0
H584 H 0.38009 0.2983 0.07373 0.0
H585 H 0.37982 0.26528 0.0862 0.0
H586 H 0.42341 0.2625 0.10881 0.0
H587 H 0.45676 0.25996 0.07516 0.0
H588 H 0.79187 0.6995 0.70709 0.0
H589 H 0.82139 0.66403 0.6998 0.0
H590 H 0.82975 0.65646 0.78891 0.0
H591 H 0.80025 0.69199 0.79634 0.0
H592 H 0.86974 0.66491 0.71663 0.0
H593 H 0.8215 0.58073 0.76355 0.0
H594 H 0.80588 0.61062 0.75444 0.0
H595 H 0.82305 0.60861 0.78644 0.0
C596 C 0.79984 0.69011 0.72514 0.0
C597 C 0.79382 0.69861 0.75231 0.0
C598 C 0.81664 0.66981 0.72093 0.0
C599 C 0.82761 0.65744 0.74378 0.0
C600 C 0.82112 0.66535 0.77096 0.0
H601 H 0.94652 0.55791 0.78269 0.0
H602 H 0.91101 0.5865 0.77967 0.0
C603 C 0.80427 0.68567 0.7752 0.0
C604 C 0.84723 0.63771 0.73922 0.0
H605 H 0.86477 0.57576 0.75604 0.0
C606 C 0.86854 0.64527 0.72486 0.0
C607 C 0.84556 0.61209 0.74988 0.0
C608 C 0.82267 0.6024 0.7642 0.0
C609 C 0.88874 0.62834 0.72214 0.0
C610 C 0.8874 0.60305 0.73372 0.0
C611 C 0.86575 0.59517 0.74719 0.0
C612 C 0.90902 0.58543 0.7346 0.0
C613 C 0.91177 0.63805 0.70811 0.0
C614 C 0.91976 0.57522 0.71015 0.0
C615 C 0.94034 0.55875 0.71175 0.0
C616 C 0.95037 0.55221 0.73785 0.0
C617 C 0.93938 0.56248 0.76219 0.0
C618 C 0.91897 0.57882 0.76056 0.0
H619 H 0.91127 0.65948 0.70461 0.0
H620 H 0.9282 0.63336 0.72086 0.0
H621 H 0.91385 0.62817 0.68755 0.0
H622 H 0.91214 0.57983 0.68989 0.0
H623 H 0.94827 0.55107 0.69265 0.0
H624 H 0.79212 0.30663 0.30336 0.0
H625 H 0.82088 0.34271 0.31079 0.0
H626 H 0.83037 0.34962 0.22178 0.0
H627 H 0.80165 0.31345 0.21418 0.0
H628 H 0.86956 0.34229 0.29458 0.0
H629 H 0.82054 0.42548 0.24653 0.0
H630 H 0.80525 0.39545 0.25576 0.0
H631 H 0.82266 0.39743 0.22393 0.0
C632 C 0.80017 0.316 0.28534 0.0
C633 C 0.79471 0.30711 0.25816 0.0
C634 C 0.81652 0.33666 0.28964 0.0
C635 C 0.82761 0.349 0.26686 0.0
C636 C 0.82164 0.34073 0.23965 0.0
H637 H 0.94524 0.44973 0.22837 0.0
H638 H 0.90999 0.42089 0.23143 0.0
C639 C 0.80523 0.32005 0.23532 0.0
C640 C 0.84686 0.36905 0.27158 0.0
H641 H 0.86362 0.43117 0.25465 0.0
C642 C 0.86815 0.36187 0.28624 0.0
C643 C 0.8449 0.39458 0.26078 0.0
C644 C 0.82201 0.40383 0.24611 0.0
C645 C 0.88807 0.37911 0.2891 0.0
C646 C 0.88646 0.40432 0.27736 0.0
C647 C 0.86481 0.41182 0.26363 0.0
C648 C 0.90787 0.42219 0.27649 0.0
C649 C 0.91113 0.36978 0.3034 0.0
C650 C 0.91844 0.43262 0.30092 0.0
C651 C 0.93888 0.44924 0.29929 0.0
C652 C 0.94893 0.4557 0.27318 0.0
C653 C 0.93809 0.44524 0.24887 0.0
C654 C 0.91782 0.42875 0.25053 0.0
H655 H 0.91089 0.34837 0.30704 0.0
H656 H 0.92759 0.37463 0.29077 0.0
H657 H 0.91294 0.37981 0.32392 0.0
H658 H 0.91081 0.42805 0.32118 0.0
H659 H 0.94672 0.45707 0.31838 0.0
H660 H 0.21988 0.30658 0.71127 0.0
H661 H 0.1906 0.34217 0.7042 0.0
H662 H 0.18486 0.35305 0.79334 0.0
H663 H 0.21423 0.31742 0.80055 0.0
H664 H 0.14288 0.34228 0.72259 0.0
H665 H 0.19272 0.42775 0.76599 0.0
H666 H 0.20794 0.3974 0.75724 0.0
H667 H 0.19138 0.40071 0.78958 0.0
C668 C 0.21256 0.31674 0.72937 0.0
C669 C 0.21924 0.30913 0.7565 0.0
C670 C 0.19589 0.3371 0.72528 0.0
C671 C 0.18568 0.35041 0.7482 0.0
C672 C 0.19288 0.34341 0.77531 0.0
H673 H 0.06801 0.45388 0.78507 0.0
H674 H 0.10319 0.42467 0.78322 0.0
C675 C 0.20964 0.32304 0.77943 0.0
C676 C 0.16608 0.37013 0.7438 0.0
H677 H 0.14949 0.43299 0.75894 0.0
C678 C 0.14443 0.36223 0.73018 0.0
C679 C 0.16818 0.39614 0.75366 0.0
C680 C 0.1914 0.40612 0.76719 0.0
C681 C 0.1244 0.37931 0.72728 0.0
C682 C 0.12623 0.40508 0.73791 0.0
C683 C 0.14814 0.41321 0.75079 0.0
C684 C 0.10494 0.42317 0.73815 0.0
C685 C 0.10105 0.36929 0.71403 0.0
C686 C 0.09423 0.43219 0.71331 0.0
C687 C 0.07386 0.44899 0.71424 0.0
C688 C 0.064 0.45707 0.74005 0.0
C689 C 0.07501 0.44808 0.76479 0.0
C690 C 0.09523 0.4314 0.76382 0.0
H691 H 0.10112 0.34768 0.71161 0.0
H692 H 0.08482 0.37507 0.72669 0.0
H693 H 0.09897 0.37798 0.69302 0.0
H694 H 0.10168 0.42633 0.69326 0.0
H695 H 0.06591 0.45566 0.69484 0.0
H696 H 0.23671 0.67557 0.24262 0.0
H697 H 0.20637 0.64041 0.24761 0.0
H698 H 0.14863 0.69773 0.25538 0.0
H699 H 0.17852 0.73273 0.24949 0.0
H700 H 0.17413 0.63116 0.29262 0.0
H701 H 0.12289 0.6489 0.19452 0.0
H702 H 0.15282 0.66275 0.20116 0.0
H703 H 0.12583 0.67748 0.21619 0.0
C704 C 0.21749 0.68061 0.24489 0.0
C705 C 0.21002 0.70692 0.24565 0.0
C706 C 0.20023 0.66055 0.24802 0.0
C707 C 0.17524 0.66647 0.25168 0.0
C708 C 0.16776 0.69269 0.25222 0.0
H709 H 0.05574 0.56624 0.31044 0.0
H710 H 0.08954 0.59809 0.30848 0.0
C711 C 0.18492 0.71268 0.24907 0.0
C712 C 0.15687 0.64539 0.25525 0.0
H713 H 0.10416 0.62053 0.22723 0.0
C714 C 0.15889 0.62868 0.27827 0.0
C715 C 0.13711 0.64213 0.23639 0.0
C716 C 0.13459 0.65859 0.21053 0.0
C717 C 0.14145 0.60895 0.2831 0.0
C718 C 0.12133 0.60619 0.26464 0.0
C719 C 0.11949 0.6228 0.24152 0.0
C720 C 0.10248 0.58547 0.26779 0.0
C721 C 0.14495 0.59096 0.30757 0.0
C722 C 0.0986 0.56784 0.24571 0.0
C723 C 0.07928 0.55007 0.24662 0.0
C724 C 0.06336 0.54938 0.26973 0.0
C725 C 0.0678 0.56626 0.29246 0.0
C726 C 0.08714 0.58436 0.29139 0.0
H727 H 0.16409 0.59157 0.31559 0.0
H728 H 0.13249 0.5971 0.32475 0.0
H729 H 0.14037 0.57049 0.30175 0.0
H730 H 0.11023 0.56825 0.22735 0.0
H731 H 0.07654 0.53713 0.22888 0.0
H732 H 0.81306 0.78784 0.72945 0.0
H733 H 0.82095 0.82491 0.69873 0.0
H734 H 0.743 0.83616 0.68831 0.0
H735 H 0.73492 0.79892 0.71862 0.0
H736 H 0.80548 0.8299 0.64255 0.0
H737 H 0.76842 0.90955 0.70941 0.0
H738 H 0.77618 0.87772 0.72289 0.0
H739 H 0.74762 0.88264 0.70481 0.0
C740 C 0.79759 0.79819 0.72058 0.0
C741 C 0.77334 0.79045 0.72648 0.0
C742 C 0.80215 0.81942 0.70318 0.0
C743 C 0.78257 0.83345 0.6916 0.0
C744 C 0.75836 0.82591 0.69755 0.0
H745 H 0.74956 0.94804 0.57202 0.0
H746 H 0.75208 0.91547 0.60857 0.0
C747 C 0.75378 0.80465 0.71489 0.0
C748 C 0.78731 0.85518 0.67215 0.0
H749 H 0.77467 0.91958 0.66125 0.0
C750 C 0.79912 0.84963 0.64674 0.0
C751 C 0.77907 0.88086 0.67783 0.0
C752 C 0.76732 0.88818 0.70533 0.0
C753 C 0.80167 0.86881 0.62615 0.0
C754 C 0.79253 0.89425 0.63141 0.0
C755 C 0.78164 0.90004 0.65729 0.0
C756 C 0.79178 0.91439 0.60943 0.0
C757 C 0.81295 0.8614 0.59842 0.0
C758 C 0.81336 0.92476 0.59788 0.0
C759 C 0.81201 0.94348 0.57674 0.0
C760 C 0.78905 0.95213 0.56698 0.0
C761 C 0.76757 0.94184 0.57893 0.0
C762 C 0.76894 0.92322 0.59992 0.0
H763 H 0.81522 0.83992 0.59605 0.0
H764 H 0.80146 0.86863 0.58095 0.0
H765 H 0.83133 0.87058 0.59665 0.0
H766 H 0.83118 0.91843 0.60526 0.0
H767 H 0.82888 0.95112 0.56805 0.0
H768 H 0.7139 0.29682 0.21674 0.0
H769 H 0.67915 0.2938 0.1846 0.0
H770 H 0.69938 0.21455 0.16377 0.0
H771 H 0.73484 0.21776 0.19495 0.0
H772 H 0.6862 0.2425 0.11764 0.0
H773 H 0.61603 0.25464 0.20048 0.0
H774 H 0.6378 0.28093 0.19985 0.0
H775 H 0.64795 0.24842 0.20817 0.0
C776 C 0.71122 0.27886 0.20503 0.0
C777 C 0.72713 0.25747 0.20863 0.0
C778 C 0.6911 0.27704 0.18695 0.0
C779 C 0.68629 0.25372 0.1723 0.0
C780 C 0.70255 0.23262 0.17512 0.0
H781 H 0.56677 0.2141 0.05464 0.0
H782 H 0.60193 0.21016 0.08658 0.0
C783 C 0.72273 0.23445 0.19311 0.0
C784 C 0.66436 0.25142 0.15396 0.0
H785 H 0.60191 0.25809 0.15345 0.0
C786 C 0.66775 0.24562 0.1255 0.0
C787 C 0.64025 0.25525 0.1643 0.0
C788 C 0.63521 0.25989 0.19492 0.0
C789 C 0.64776 0.24466 0.10692 0.0
C790 C 0.62379 0.24939 0.11714 0.0
C791 C 0.62034 0.25452 0.14568 0.0
C792 C 0.60227 0.25109 0.09826 0.0
C793 C 0.65247 0.2396 0.07632 0.0
C794 C 0.59058 0.27523 0.09474 0.0
C795 C 0.57065 0.27754 0.07663 0.0
C796 C 0.56177 0.25567 0.06176 0.0
C797 C 0.57317 0.2313 0.06576 0.0
C798 C 0.59332 0.22905 0.08385 0.0
H799 H 0.67235 0.24025 0.07114 0.0
H800 H 0.64534 0.21998 0.07055 0.0
H801 H 0.64267 0.25421 0.0634 0.0
H802 H 0.59714 0.29244 0.10575 0.0
H803 H 0.56228 0.29659 0.07421 0.0
H804 H 0.19815 0.21934 0.73571 0.0
H805 H 0.18924 0.182 0.70506 0.0
H806 H 0.26684 0.16968 0.69264 0.0
H807 H 0.27593 0.20715 0.72279 0.0
H808 H 0.20381 0.17682 0.64838 0.0
H809 H 0.24088 0.09661 0.71304 0.0
H810 H 0.23358 0.12848 0.72728 0.0
H811 H 0.26195 0.12326 0.70881 0.0
C812 C 0.21333 0.20866 0.72646 0.0
C813 C 0.23777 0.21622 0.73169 0.0
C814 C 0.20819 0.18728 0.7091 0.0
C815 C 0.22738 0.17292 0.69694 0.0
C816 C 0.25178 0.18019 0.70235 0.0
H817 H 0.26159 0.06121 0.5744 0.0
H818 H 0.25801 0.093 0.61211 0.0
C819 C 0.25694 0.20159 0.71961 0.0
C820 C 0.2221 0.15127 0.67721 0.0
H821 H 0.23488 0.08704 0.66444 0.0
C822 C 0.21017 0.15704 0.65202 0.0
C823 C 0.23033 0.12554 0.68217 0.0
C824 C 0.24219 0.11798 0.70941 0.0
C825 C 0.20765 0.13808 0.63087 0.0
C826 C 0.21697 0.11266 0.63534 0.0
C827 C 0.22779 0.10659 0.66108 0.0
C828 C 0.21829 0.093 0.61259 0.0
C829 C 0.19635 0.14575 0.60336 0.0
C830 C 0.19705 0.08232 0.6004 0.0
C831 C 0.19901 0.06403 0.57857 0.0
C832 C 0.22225 0.05616 0.56877 0.0
C833 C 0.24338 0.06681 0.58133 0.0
C834 C 0.2414 0.08497 0.60298 0.0
H835 H 0.19355 0.1672 0.60182 0.0
H836 H 0.20815 0.13922 0.58573 0.0
H837 H 0.17823 0.13607 0.60103 0.0
H838 H 0.17903 0.08805 0.60781 0.0
H839 H 0.1824 0.0561 0.56941 0.0
H840 H 0.26444 0.74082 0.16842 0.0
H841 H 0.29938 0.74241 0.13617 0.0
H842 H 0.34829 0.75659 0.20556 0.0
H843 H 0.3133 0.75604 0.23758 0.0
H844 H 0.35936 0.78789 0.16441 0.0
H845 H 0.34983 0.68768 0.12124 0.0
H846 H 0.32277 0.70704 0.11616 0.0
H847 H 0.3324 0.69889 0.151 0.0
C848 C 0.28271 0.74404 0.17672 0.0
C849 C 0.28622 0.74821 0.20546 0.0
C850 C 0.30268 0.74484 0.15833 0.0
C851 C 0.32661 0.74917 0.16843 0.0
C852 C 0.33007 0.75321 0.1972 0.0
H853 H 0.45993 0.71319 0.07865 0.0
H854 H 0.42503 0.71545 0.11047 0.0
C855 C 0.31008 0.75285 0.2155 0.0
C856 C 0.34805 0.75006 0.14916 0.0
H857 H 0.37848 0.71536 0.09876 0.0
C858 C 0.36359 0.77198 0.15012 0.0
C859 C 0.35379 0.72919 0.1307 0.0
C860 C 0.33897 0.70427 0.12987 0.0
C861 C 0.38469 0.77357 0.1333 0.0
C862 C 0.39001 0.75304 0.11425 0.0
C863 C 0.37437 0.73121 0.11319 0.0
C864 C 0.41219 0.75305 0.09605 0.0
C865 C 0.40145 0.79683 0.13686 0.0
C866 C 0.41693 0.77362 0.07748 0.0
C867 C 0.4373 0.7726 0.05957 0.0
C868 C 0.45289 0.7507 0.05945 0.0
C869 C 0.4482 0.73029 0.07817 0.0
C870 C 0.42819 0.73153 0.09634 0.0
H871 H 0.39884 0.80648 0.15751 0.0
H872 H 0.42104 0.79109 0.13479 0.0
H873 H 0.3972 0.81142 0.12054 0.0
H874 H 0.40457 0.79014 0.07628 0.0
H875 H 0.4403 0.78846 0.04512 0.0
H876 H 0.778 0.18715 0.25215 0.0
H877 H 0.78631 0.15021 0.28312 0.0
H878 H 0.78161 0.20181 0.35462 0.0
H879 H 0.77403 0.23876 0.32375 0.0
H880 H 0.81991 0.16874 0.35913 0.0
H881 H 0.73567 0.11371 0.32987 0.0
H882 H 0.75583 0.12054 0.30121 0.0
H883 H 0.74076 0.14699 0.31929 0.0
C884 C 0.77865 0.19049 0.27449 0.0
C885 C 0.77528 0.21572 0.28561 0.0
C886 C 0.78336 0.16942 0.29215 0.0
C887 C 0.78425 0.17319 0.32122 0.0
C888 C 0.78107 0.19845 0.33226 0.0
H889 H 0.754 0.07166 0.45457 0.0
H890 H 0.75635 0.10355 0.41735 0.0
C891 C 0.77669 0.21952 0.31464 0.0
C892 C 0.78801 0.15096 0.34042 0.0
H893 H 0.76201 0.09412 0.36247 0.0
C894 C 0.80737 0.1523 0.35979 0.0
C895 C 0.77152 0.12962 0.34128 0.0
C896 C 0.74965 0.12764 0.322 0.0
C897 C 0.81019 0.13337 0.38063 0.0
C898 C 0.79356 0.1122 0.38162 0.0
C899 C 0.7748 0.11033 0.36157 0.0
C900 C 0.79337 0.09332 0.40494 0.0
C901 C 0.83016 0.13692 0.40218 0.0
C902 C 0.81359 0.0771 0.41065 0.0
C903 C 0.81242 0.05891 0.43237 0.0
C904 C 0.79085 0.05644 0.44826 0.0
C905 C 0.77082 0.0729 0.44257 0.0
C906 C 0.77211 0.09115 0.42125 0.0
H907 H 0.83801 0.15695 0.40186 0.0
H908 H 0.82304 0.13303 0.42346 0.0
H909 H 0.84523 0.12286 0.39783 0.0
H910 H 0.83004 0.07814 0.39802 0.0
H911 H 0.82805 0.04635 0.4362 0.0
H912 H 0.27178 0.28375 0.83615 0.0
H913 H 0.30704 0.28258 0.86801 0.0
H914 H 0.34866 0.2393 0.80659 0.0
H915 H 0.31393 0.24107 0.7744 0.0
H916 H 0.33169 0.23881 0.88986 0.0
H917 H 0.3943 0.3001 0.82659 0.0
H918 H 0.36167 0.29843 0.82015 0.0
H919 H 0.38155 0.27269 0.808 0.0
C920 C 0.28855 0.27429 0.82931 0.0
C921 C 0.29002 0.26253 0.80271 0.0
C922 C 0.3086 0.27345 0.8476 0.0
C923 C 0.33055 0.26107 0.83956 0.0
C924 C 0.33204 0.24928 0.81309 0.0
H925 H 0.45193 0.21759 0.95122 0.0
H926 H 0.41718 0.21593 0.91852 0.0
C927 C 0.31206 0.25009 0.79482 0.0
C928 C 0.35184 0.26024 0.8589 0.0
H929 H 0.41173 0.27901 0.86577 0.0
C930 C 0.3492 0.24761 0.88465 0.0
C931 C 0.37461 0.27189 0.85211 0.0
C932 C 0.37823 0.28676 0.82533 0.0
C933 C 0.36877 0.24622 0.90375 0.0
C934 C 0.39166 0.25746 0.89671 0.0
C935 C 0.39425 0.27015 0.87099 0.0
C936 C 0.41272 0.25791 0.91643 0.0
C937 C 0.36458 0.23336 0.93158 0.0
C938 C 0.42207 0.28199 0.9256 0.0
C939 C 0.44191 0.28301 0.94399 0.0
C940 C 0.453 0.25991 0.95365 0.0
C941 C 0.44376 0.23572 0.94428 0.0
C942 C 0.42382 0.23474 0.92574 0.0
H943 H 0.34472 0.2309 0.93617 0.0
H944 H 0.37323 0.21372 0.93137 0.0
H945 H 0.37308 0.24497 0.94871 0.0
H946 H 0.41386 0.30011 0.91866 0.0
H947 H 0.44848 0.30201 0.9507 0.0
H948 H 0.2409 0.8224 0.25021 0.0
H949 H 0.23417 0.859 0.28268 0.0
H950 H 0.23116 0.80507 0.35142 0.0
H951 H 0.23702 0.76847 0.31891 0.0
H952 H 0.1955 0.84078 0.35555 0.0
H953 H 0.28419 0.8903 0.33435 0.0
H954 H 0.26531 0.88606 0.30397 0.0
H955 H 0.27748 0.8579 0.3215 0.0
C956 C 0.23897 0.81848 0.2723 0.0
C957 C 0.23961 0.79272 0.28217 0.0
C958 C 0.23517 0.83935 0.29081 0.0
C959 C 0.23254 0.83481 0.31954 0.0
C960 C 0.23313 0.80904 0.32935 0.0
H961 H 0.26027 0.93619 0.45677 0.0
H962 H 0.25899 0.90371 0.4195 0.0
C963 C 0.23654 0.78818 0.31082 0.0
C964 C 0.22925 0.85675 0.3396 0.0
H965 H 0.25683 0.91186 0.36492 0.0
C966 C 0.20887 0.85639 0.35759 0.0
C967 C 0.24678 0.877 0.34229 0.0
C968 C 0.26979 0.87779 0.3247 0.0
C969 C 0.20587 0.87531 0.3787 0.0
C970 C 0.22339 0.89557 0.38133 0.0
C971 C 0.24335 0.89637 0.36277 0.0
C972 C 0.2229 0.91474 0.4047 0.0
C973 C 0.18462 0.87274 0.39872 0.0
C974 C 0.20285 0.93162 0.40908 0.0
C975 C 0.20337 0.95008 0.43086 0.0
C976 C 0.22417 0.95223 0.44809 0.0
C977 C 0.24405 0.93518 0.4437 0.0
C978 C 0.24337 0.91659 0.42236 0.0
H979 H 0.17632 0.85292 0.39786 0.0
H980 H 0.19055 0.87683 0.4205 0.0
H981 H 0.17017 0.88708 0.39314 0.0
H982 H 0.18705 0.93088 0.39538 0.0
H983 H 0.18788 0.96313 0.43367 0.0
H984 H 0.73233 0.78599 0.81578 0.0
H985 H 0.69775 0.78814 0.8483 0.0
H986 H 0.67781 0.7091 0.82646 0.0
H987 H 0.71201 0.70691 0.79336 0.0
H988 H 0.64631 0.77999 0.83493 0.0
H989 H 0.68158 0.7099 0.91333 0.0
H990 H 0.70123 0.72535 0.88795 0.0
H991 H 0.68207 0.69835 0.8778 0.0
C992 C 0.72054 0.76907 0.81775 0.0
C993 C 0.72497 0.74627 0.80185 0.0
C994 C 0.70085 0.77033 0.83646 0.0
C995 C 0.68535 0.74874 0.83993 0.0
C996 C 0.6898 0.72586 0.82438 0.0
H997 H 0.55817 0.70893 0.93616 0.0
H998 H 0.59324 0.71139 0.90478 0.0
C999 C 0.70942 0.72461 0.80554 0.0
C1000 C 0.66414 0.75036 0.8593 0.0
H1001 H 0.64024 0.72365 0.91841 0.0
C1002 C 0.64499 0.76783 0.85331 0.0
C1003 C 0.66256 0.7345 0.88324 0.0
C1004 C 0.68302 0.7161 0.89121 0.0
C1005 C 0.62385 0.7692 0.87013 0.0
C1006 C 0.62212 0.75307 0.89392 0.0
C1007 C 0.64154 0.73598 0.90015 0.0
C1008 C 0.59992 0.75256 0.91198 0.0
C1009 C 0.60322 0.7872 0.86172 0.0
C1010 C 0.59179 0.77499 0.92641 0.0
C1011 C 0.57146 0.7737 0.94435 0.0
C1012 C 0.55915 0.74987 0.94841 0.0
C1013 C 0.56724 0.72759 0.93366 0.0
C1014 C 0.58735 0.72894 0.91568 0.0
H1015 H 0.60482 0.79326 0.83957 0.0
H1016 H 0.5851 0.7777 0.86474 0.0
H1017 H 0.60379 0.80508 0.87495 0.0
H1018 H 0.60148 0.79333 0.92431 0.0
H1019 H 0.56581 0.79115 0.95556 0.0
loop_
_geom_bond_atom_site_label_1
_geom_bond_atom_site_label_2
_geom_bond_distance
_geom_bond_site_symmetry_2
_ccdc_geom_bond_type
H0 C3 0.931 . S
H1 C6 0.928 . S
H2 C8 0.930 . S
C3 H0 0.931 . S
C3 C4 1.413 . S
C3 C5 1.360 . S
C4 C3 1.413 . S
C4 C8 1.429 . S
C5 C3 1.360 . S
C5 C6 1.372 . S
C6 H1 0.928 . S
C6 C5 1.372 . S
C6 C7 1.404 . S
C7 C6 1.404 . S
C7 C8 1.391 . S
C8 H2 0.930 . S
C8 C4 1.429 . S
C8 C7 1.391 . S
H9 C12 0.931 . S
H10 C15 0.928 . S
H11 C17 0.930 . S
C12 H9 0.931 . S
C12 C13 1.413 . S
C12 C14 1.360 . S
C13 C12 1.413 . S
C13 C17 1.429 . S
C14 C12 1.360 . S
C14 C15 1.372 . S
C15 H10 0.928 . S
C15 C14 1.372 . S
C15 C16 1.404 . S
C16 C15 1.404 . S
C16 C17 1.391 . S
C17 H11 0.930 . S
C17 C13 1.429 . S
C17 C16 1.391 . S
H18 C21 0.931 . S
H19 C24 0.928 . S
H20 C26 0.930 . S
C21 H18 0.931 . S
C21 C22 1.413 . S
C21 C23 1.360 . S
C22 C21 1.413 . S
C22 C26 1.429 . S
C23 C21 1.360 . S
C23 C24 1.372 . S
C24 H19 0.928 . S
C24 C23 1.372 . S
C24 C25 1.404 . S
C25 C24 1.404 . S
C25 C26 1.391 . S
C26 H20 0.930 . S
C26 C22 1.429 . S
C26 C25 1.391 . S
H27 C30 0.931 . S
H28 C33 0.928 . S
H29 C35 0.930 . S
C30 H27 0.931 . S
C30 C31 1.413 . S
C30 C32 1.360 . S
C31 C30 1.413 . S
C31 C35 1.429 . S
C32 C30 1.360 . S
C32 C33 1.372 . S
C33 H28 0.928 . S
C33 C32 1.372 . S
C33 C34 1.404 . S
C34 C33 1.404 . S
C34 C35 1.391 . S
C35 H29 0.930 . S
C35 C31 1.429 . S
C35 C34 1.391 . S
H36 C39 0.931 . S
H37 C42 0.928 . S
H38 C44 0.930 . S
C39 H36 0.931 . S
C39 C40 1.413 . S
C39 C41 1.360 . S
C40 C39 1.413 . S
C40 C44 1.429 . S
C41 C39 1.360 . S
C41 C42 1.372 . S
C42 H37 0.928 . S
C42 C41 1.372 . S
C42 C43 1.404 . S
C43 C42 1.404 . S
C43 C44 1.391 . S
C44 H38 0.930 . S
C44 C40 1.429 . S
C44 C43 1.391 . S
H45 C48 0.931 . S
H46 C51 0.928 . S
H47 C53 0.930 . S
C48 H45 0.931 . S
C48 C49 1.413 . S
C48 C50 1.360 . S
C49 C48 1.413 . S
C49 C53 1.429 . S
C50 C48 1.360 . S
C50 C51 1.372 . S
C51 H46 0.928 . S
C51 C50 1.372 . S
C51 C52 1.404 . S
C52 C51 1.404 . S
C52 C53 1.391 . S
C53 H47 0.930 . S
C53 C49 1.429 . S
C53 C52 1.391 . S
H54 C57 0.931 . S
H55 C60 0.928 . S
H56 C62 0.930 . S
C57 H54 0.931 . S
C57 C58 1.413 . S
C57 C59 1.360 . S
C58 C57 1.413 . S
C58 C62 1.429 . S
C59 C57 1.360 . S
C59 C60 1.372 . S
C60 H55 0.928 . S
C60 C59 1.372 . S
C60 C61 1.404 . S
C61 C60 1.404 . S
C61 C62 1.391 . S
C62 H56 0.930 . S
C62 C58 1.429 . S
C62 C61 1.391 . S
H63 C66 0.931 . S
H64 C69 0.928 . S
H65 C71 0.930 . S
C66 H63 0.931 . S
C66 C67 1.413 . S
C66 C68 1.360 . S
C67 C66 1.413 . S
C67 C71 1.429 . S
C68 C66 1.360 . S
C68 C69 1.372 . S
C69 H64 0.928 . S
C69 C68 1.372 . S
C69 C70 1.404 . S
C70 C69 1.404 . S
C70 C71 1.391 . S
C71 H65 0.930 . S
C71 C67 1.429 . S
C71 C70 1.391 . S
C72 O74 1.247 . S
C72 O76 1.258 . S
C73 O80 1.247 . S
C73 O81 1.258 . S
O74 C72 1.247 . S
O74 Zn75 2.028 1_655 S
Zn75 O74 2.028 1_455 S
Zn75 O79 2.035 . S
Zn75 O81 2.035 . S
Zn75 O82 2.028 1_455 S
O76 C72 1.258 . S
O76 Zn77 2.035 1_655 S
Zn77 O76 2.035 1_455 S
Zn77 O78 2.028 . S
Zn77 O80 2.028 . S
Zn77 O83 2.035 1_455 S
O78 Zn77 2.028 . S
O78 C84 1.247 . S
O79 Zn75 2.035 . S
O79 C84 1.258 . S
O80 C73 1.247 . S
O80 Zn77 2.028 . S
O81 C73 1.258 . S
O81 Zn75 2.035 . S
O82 Zn75 2.028 1_655 S
O82 C85 1.247 . S
O83 Zn77 2.035 1_655 S
O83 C85 1.258 . S
C84 O78 1.247 . S
C84 O79 1.258 . S
C85 O82 1.247 . S
C85 O83 1.258 . S
C86 O88 1.247 . S
C86 O90 1.258 . S
C87 O94 1.247 . S
C87 O95 1.258 . S
O88 C86 1.247 . S
O88 Zn89 2.028 1_655 S
Zn89 O88 2.028 1_455 S
Zn89 O93 2.035 . S
Zn89 O95 2.035 . S
Zn89 O96 2.028 1_455 S
O90 C86 1.258 . S
O90 Zn91 2.035 1_655 S
Zn91 O90 2.035 1_455 S
Zn91 O92 2.028 . S
Zn91 O94 2.028 . S
Zn91 O97 2.035 1_455 S
O92 Zn91 2.028 . S
O92 C98 1.247 . S
O93 Zn89 2.035 . S
O93 C98 1.258 . S
O94 C87 1.247 . S
O94 Zn91 2.028 . S
O95 C87 1.258 . S
O95 Zn89 2.035 . S
O96 Zn89 2.028 1_655 S
O96 C99 1.247 . S
O97 Zn91 2.035 1_655 S
O97 C99 1.258 . S
C98 O92 1.247 . S
C98 O93 1.258 . S
C99 O96 1.247 . S
C99 O97 1.258 . S
C100 O102 1.247 . S
C100 O104 1.258 . S
C101 O108 1.247 . S
C101 O109 1.258 . S
O102 C100 1.247 . S
O102 Zn103 2.017 1_565 S
Zn103 O102 2.017 1_545 S
Zn103 O107 2.046 . S
Zn103 O109 2.046 . S
Zn103 O110 2.017 1_545 S
O104 C100 1.258 . S
O104 Zn105 2.008 1_565 S
Zn105 O104 2.008 1_545 S
Zn105 O106 2.054 . S
Zn105 O108 2.055 . S
Zn105 O111 2.009 1_545 S
O106 Zn105 2.054 . S
O106 C112 1.247 . S
O107 Zn103 2.046 . S
O107 C112 1.258 . S
O108 C101 1.247 . S
O108 Zn105 2.055 . S
O109 C101 1.258 . S
O109 Zn103 2.046 . S
O110 Zn103 2.017 1_565 S
O110 C113 1.247 . S
O111 Zn105 2.009 1_565 S
O111 C113 1.258 . S
C112 O106 1.247 . S
C112 O107 1.258 . S
C113 O110 1.247 . S
C113 O111 1.258 . S
C114 O116 1.247 . S
C114 O118 1.258 . S
C115 O122 1.247 . S
C115 O123 1.258 . S
O116 C114 1.247 . S
O116 Zn117 2.027 . S
Zn117 O116 2.027 . S
Zn117 O121 2.034 . S
Zn117 O123 2.036 1_554 S
Zn117 O124 2.029 1_554 S
O118 C114 1.258 . S
O118 Zn119 2.048 . S
Zn119 O118 2.048 . S
Zn119 O120 2.041 . S
Zn119 O122 2.015 1_554 S
Zn119 O125 2.023 1_554 S
O120 Zn119 2.041 . S
O120 C126 1.247 . S
O121 Zn117 2.034 . S
O121 C126 1.258 . S
O122 C115 1.247 . S
O122 Zn119 2.015 1_556 S
O123 C115 1.258 . S
O123 Zn117 2.036 1_556 S
O124 Zn117 2.029 1_556 S
O124 C127 1.247 . S
O125 Zn119 2.023 1_556 S
O125 C127 1.258 . S
C126 O120 1.247 . S
C126 O121 1.258 . S
C127 O124 1.247 . S
C127 O125 1.258 . S
C128 O130 1.247 . S
C128 O132 1.258 . S
C129 O136 1.247 . S
C129 O137 1.258 . S
O130 C128 1.247 . S
O130 Zn131 2.028 1_565 S
Zn131 O130 2.028 1_545 S
Zn131 O135 2.035 . S
Zn131 O137 2.035 . S
Zn131 O138 2.028 1_545 S
O132 C128 1.258 . S
O132 Zn133 2.019 1_565 S
Zn133 O132 2.019 1_545 S
Zn133 O134 2.044 . S
Zn133 O136 2.044 . S
Zn133 O139 2.019 1_545 S
O134 Zn133 2.044 . S
O134 C140 1.247 . S
O135 Zn131 2.035 . S
O135 C140 1.258 . S
O136 C129 1.247 . S
O136 Zn133 2.044 . S
O137 C129 1.258 . S
O137 Zn131 2.035 . S
O138 Zn131 2.028 1_565 S
O138 C141 1.247 . S
O139 Zn133 2.019 1_565 S
O139 C141 1.258 . S
C140 O134 1.247 . S
C140 O135 1.258 . S
C141 O138 1.247 . S
C141 O139 1.258 . S
C142 O144 1.247 . S
C142 O146 1.258 . S
C143 O150 1.247 . S
C143 O151 1.258 . S
O144 C142 1.247 . S
O144 Zn145 2.028 . S
Zn145 O144 2.028 . S
Zn145 O149 2.035 . S
Zn145 O151 2.035 1_554 S
Zn145 O152 2.028 1_554 S
O146 C142 1.258 . S
O146 Zn147 2.035 . S
Zn147 O146 2.035 . S
Zn147 O148 2.028 . S
Zn147 O150 2.028 1_554 S
Zn147 O153 2.035 1_554 S
O148 Zn147 2.028 . S
O148 C154 1.247 . S
O149 Zn145 2.035 . S
O149 C154 1.258 . S
O150 C143 1.247 . S
O150 Zn147 2.028 1_556 S
O151 C143 1.258 . S
O151 Zn145 2.035 1_556 S
O152 Zn145 2.028 1_556 S
O152 C155 1.247 . S
O153 Zn147 2.035 1_556 S
O153 C155 1.258 . S
C154 O148 1.247 . S
C154 O149 1.258 . S
C155 O152 1.247 . S
C155 O153 1.258 . S
H156 C164 0.929 . S
H157 C166 0.930 . S
H158 C168 0.930 . S
H159 C171 0.929 . S
H160 C174 0.930 . S
H161 C176 0.960 . S
H162 C176 0.960 . S
H163 C176 0.960 . S
C164 H156 0.929 . S
C164 C165 1.377 . S
C164 C166 1.384 . S
C165 C164 1.377 . S
C165 C171 1.390 . S
C166 H157 0.930 . S
C166 C164 1.384 . S
C166 C167 1.372 . S
C167 C166 1.372 . S
C167 C168 1.400 . S
C167 C172 1.490 . S
C168 H158 0.930 . S
C168 C167 1.400 . S
C168 C171 1.386 . S
H169 C185 0.930 . S
H170 C186 0.931 . S
C171 H159 0.929 . S
C171 C165 1.390 . S
C171 C168 1.386 . S
C172 C167 1.490 . S
C172 C174 1.395 . S
C172 C175 1.403 . S
H173 C179 0.930 . S
C174 H160 0.930 . S
C174 C172 1.395 . S
C174 C177 1.403 . S
C175 C172 1.403 . S
C175 C176 1.524 . S
C175 C179 1.400 . S
C176 H161 0.960 . S
C176 H162 0.960 . S
C176 H163 0.960 . S
C176 C175 1.524 . S
C177 C174 1.403 . S
C177 C178 1.392 . S
C177 C181 1.495 . S
C178 C177 1.392 . S
C178 C179 1.385 . S
C178 C180 1.478 . S
C179 H173 0.930 . S
C179 C175 1.400 . S
C179 C178 1.385 . S
C180 C178 1.478 . S
C180 C182 1.381 . S
C180 C186 1.383 . S
C181 C177 1.495 . S
C181 H187 0.959 . S
C181 H188 0.961 . S
C181 H189 0.960 . S
C182 C180 1.381 . S
C182 C183 1.394 . S
C182 H190 0.930 . S
C183 C182 1.394 . S
C183 C184 1.383 . S
C183 H191 0.929 . S
C184 C183 1.383 . S
C184 C185 1.377 . S
C185 H169 0.930 . S
C185 C184 1.377 . S
C185 C186 1.379 . S
C186 H170 0.931 . S
C186 C180 1.383 . S
C186 C185 1.379 . S
H187 C181 0.959 . S
H188 C181 0.961 . S
H189 C181 0.960 . S
H190 C182 0.930 . S
H191 C183 0.929 . S
H192 C200 0.929 . S
H193 C202 0.930 . S
H194 C204 0.930 . S
H195 C207 0.929 . S
H196 C210 0.930 . S
H197 C212 0.960 . S
H198 C212 0.960 . S
H199 C212 0.960 . S
C200 H192 0.929 . S
C200 C201 1.377 . S
C200 C202 1.384 . S
C201 C200 1.377 . S
C201 C207 1.390 . S
C202 H193 0.930 . S
C202 C200 1.384 . S
C202 C203 1.372 . S
C203 C202 1.372 . S
C203 C204 1.400 . S
C203 C208 1.490 . S
C204 H194 0.930 . S
C204 C203 1.400 . S
C204 C207 1.386 . S
H205 C221 0.930 . S
H206 C222 0.931 . S
C207 H195 0.929 . S
C207 C201 1.390 . S
C207 C204 1.386 . S
C208 C203 1.490 . S
C208 C210 1.395 . S
C208 C211 1.403 . S
H209 C215 0.930 . S
C210 H196 0.930 . S
C210 C208 1.395 . S
C210 C213 1.403 . S
C211 C208 1.403 . S
C211 C212 1.524 . S
C211 C215 1.400 . S
C212 H197 0.960 . S
C212 H198 0.960 . S
C212 H199 0.960 . S
C212 C211 1.524 . S
C213 C210 1.403 . S
C213 C214 1.392 . S
C213 C217 1.495 . S
C214 C213 1.392 . S
C214 C215 1.385 . S
C214 C216 1.478 . S
C215 H209 0.930 . S
C215 C211 1.400 . S
C215 C214 1.385 . S
C216 C214 1.478 . S
C216 C218 1.381 . S
C216 C222 1.383 . S
C217 C213 1.495 . S
C217 H223 0.959 . S
C217 H224 0.961 . S
C217 H225 0.960 . S
C218 C216 1.381 . S
C218 C219 1.394 . S
C218 H226 0.930 . S
C219 C218 1.394 . S
C219 C220 1.383 . S
C219 H227 0.929 . S
C220 C219 1.383 . S
C220 C221 1.377 . S
C221 H205 0.930 . S
C221 C220 1.377 . S
C221 C222 1.379 . S
C222 H206 0.931 . S
C222 C216 1.383 . S
C222 C221 1.379 . S
H223 C217 0.959 . S
H224 C217 0.961 . S
H225 C217 0.960 . S
H226 C218 0.930 . S
H227 C219 0.929 . S
H228 C236 0.929 . S
H229 C238 0.930 . S
H230 C240 0.930 . S
H231 C243 0.929 . S
H232 C246 0.930 . S
H233 C248 0.960 . S
H234 C248 0.960 . S
H235 C248 0.960 . S
C236 H228 0.929 . S
C236 C237 1.377 . S
C236 C238 1.384 . S
C237 C236 1.377 . S
C237 C243 1.390 . S
C238 H229 0.930 . S
C238 C236 1.384 . S
C238 C239 1.372 . S
C239 C238 1.372 . S
C239 C240 1.400 . S
C239 C244 1.490 . S
C240 H230 0.930 . S
C240 C239 1.400 . S
C240 C243 1.386 . S
H241 C257 0.930 . S
H242 C258 0.931 . S
C243 H231 0.929 . S
C243 C237 1.390 . S
C243 C240 1.386 . S
C244 C239 1.490 . S
C244 C246 1.395 . S
C244 C247 1.403 . S
H245 C251 0.930 . S
C246 H232 0.930 . S
C246 C244 1.395 . S
C246 C249 1.403 . S
C247 C244 1.403 . S
C247 C248 1.524 . S
C247 C251 1.400 . S
C248 H233 0.960 . S
C248 H234 0.960 . S
C248 H235 0.960 . S
C248 C247 1.524 . S
C249 C246 1.403 . S
C249 C250 1.392 . S
C249 C253 1.495 . S
C250 C249 1.392 . S
C250 C251 1.385 . S
C250 C252 1.478 . S
C251 H245 0.930 . S
C251 C247 1.400 . S
C251 C250 1.385 . S
C252 C250 1.478 . S
C252 C254 1.381 . S
C252 C258 1.383 . S
C253 C249 1.495 . S
C253 H259 0.959 . S
C253 H260 0.961 . S
C253 H261 0.960 . S
C254 C252 1.381 . S
C254 C255 1.394 . S
C254 H262 0.930 . S
C255 C254 1.394 . S
C255 C256 1.383 . S
C255 H263 0.929 . S
C256 C255 1.383 . S
C256 C257 1.377 . S
C257 H241 0.930 . S
C257 C256 1.377 . S
C257 C258 1.379 . S
C258 H242 0.931 . S
C258 C252 1.383 . S
C258 C257 1.379 . S
H259 C253 0.959 . S
H260 C253 0.961 . S
H261 C253 0.960 . S
H262 C254 0.930 . S
H263 C255 0.929 . S
H264 C272 0.929 . S
H265 C274 0.930 . S
H266 C276 0.930 . S
H267 C279 0.929 . S
H268 C282 0.930 . S
H269 C284 0.960 . S
H270 C284 0.960 . S
H271 C284 0.960 . S
C272 H264 0.929 . S
C272 C273 1.377 . S
C272 C274 1.384 . S
C273 C272 1.377 . S
C273 C279 1.390 . S
C274 H265 0.930 . S
C274 C272 1.384 . S
C274 C275 1.372 . S
C275 C274 1.372 . S
C275 C276 1.400 . S
C275 C280 1.490 . S
C276 H266 0.930 . S
C276 C275 1.400 . S
C276 C279 1.386 . S
H277 C293 0.930 . S
H278 C294 0.931 . S
C279 H267 0.929 . S
C279 C273 1.390 . S
C279 C276 1.386 . S
C280 C275 1.490 . S
C280 C282 1.395 . S
C280 C283 1.403 . S
H281 C287 0.930 . S
C282 H268 0.930 . S
C282 C280 1.395 . S
C282 C285 1.403 . S
C283 C280 1.403 . S
C283 C284 1.524 . S
C283 C287 1.400 . S
C284 H269 0.960 . S
C284 H270 0.960 . S
C284 H271 0.960 . S
C284 C283 1.524 . S
C285 C282 1.403 . S
C285 C286 1.392 . S
C285 C289 1.495 . S
C286 C285 1.392 . S
C286 C287 1.385 . S
C286 C288 1.478 . S
C287 H281 0.930 . S
C287 C283 1.400 . S
C287 C286 1.385 . S
C288 C286 1.478 . S
C288 C290 1.381 . S
C288 C294 1.383 . S
C289 C285 1.495 . S
C289 H295 0.959 . S
C289 H296 0.961 . S
C289 H297 0.960 . S
C290 C288 1.381 . S
C290 C291 1.394 . S
C290 H298 0.930 . S
C291 C290 1.394 . S
C291 C292 1.383 . S
C291 H299 0.929 . S
C292 C291 1.383 . S
C292 C293 1.377 . S
C293 H277 0.930 . S
C293 C292 1.377 . S
C293 C294 1.379 . S
C294 H278 0.931 . S
C294 C288 1.383 . S
C294 C293 1.379 . S
H295 C289 0.959 . S
H296 C289 0.961 . S
H297 C289 0.960 . S
H298 C290 0.930 . S
H299 C291 0.929 . S
H300 C308 0.929 . S
H301 C310 0.930 . S
H302 C312 0.930 . S
H303 C315 0.929 . S
H304 C318 0.930 . S
H305 C320 0.960 . S
H306 C320 0.960 . S
H307 C320 0.960 . S
C308 H300 0.929 . S
C308 C309 1.377 . S
C308 C310 1.384 . S
C309 C308 1.377 . S
C309 C315 1.390 . S
C310 H301 0.930 . S
C310 C308 1.384 . S
C310 C311 1.372 . S
C311 C310 1.372 . S
C311 C312 1.400 . S
C311 C316 1.490 . S
C312 H302 0.930 . S
C312 C311 1.400 . S
C312 C315 1.386 . S
H313 C329 0.930 . S
H314 C330 0.931 . S
C315 H303 0.929 . S
C315 C309 1.390 . S
C315 C312 1.386 . S
C316 C311 1.490 . S
C316 C318 1.395 . S
C316 C319 1.403 . S
H317 C323 0.930 . S
C318 H304 0.930 . S
C318 C316 1.395 . S
C318 C321 1.403 . S
C319 C316 1.403 . S
C319 C320 1.524 . S
C319 C323 1.400 . S
C320 H305 0.960 . S
C320 H306 0.960 . S
C320 H307 0.960 . S
C320 C319 1.524 . S
C321 C318 1.403 . S
C321 C322 1.392 . S
C321 C325 1.495 . S
C322 C321 1.392 . S
C322 C323 1.385 . S
C322 C324 1.478 . S
C323 H317 0.930 . S
C323 C319 1.400 . S
C323 C322 1.385 . S
C324 C322 1.478 . S
C324 C326 1.381 . S
C324 C330 1.383 . S
C325 C321 1.495 . S
C325 H331 0.959 . S
C325 H332 0.961 . S
C325 H333 0.960 . S
C326 C324 1.381 . S
C326 C327 1.394 . S
C326 H334 0.930 . S
C327 C326 1.394 . S
C327 C328 1.383 . S
C327 H335 0.929 . S
C328 C327 1.383 . S
C328 C329 1.377 . S
C329 H313 0.930 . S
C329 C328 1.377 . S
C329 C330 1.379 . S
C330 H314 0.931 . S
C330 C324 1.383 . S
C330 C329 1.379 . S
H331 C325 0.959 . S
H332 C325 0.961 . S
H333 C325 0.960 . S
H334 C326 0.930 . S
H335 C327 0.929 . S
H336 C344 0.929 . S
H337 C346 0.930 . S
H338 C348 0.930 . S
H339 C351 0.929 . S
H340 C354 0.930 . S
H341 C356 0.960 . S
H342 C356 0.960 . S
H343 C356 0.960 . S
C344 H336 0.929 . S
C344 C345 1.377 . S
C344 C346 1.384 . S
C345 C344 1.377 . S
C345 C351 1.390 . S
C346 H337 0.930 . S
C346 C344 1.384 . S
C346 C347 1.372 . S
C347 C346 1.372 . S
C347 C348 1.400 . S
C347 C352 1.490 . S
C348 H338 0.930 . S
C348 C347 1.400 . S
C348 C351 1.386 . S
H349 C365 0.930 . S
H350 C366 0.931 . S
C351 H339 0.929 . S
C351 C345 1.390 . S
C351 C348 1.386 . S
C352 C347 1.490 . S
C352 C354 1.395 . S
C352 C355 1.403 . S
H353 C359 0.930 . S
C354 H340 0.930 . S
C354 C352 1.395 . S
C354 C357 1.403 . S
C355 C352 1.403 . S
C355 C356 1.524 . S
C355 C359 1.400 . S
C356 H341 0.960 . S
C356 H342 0.960 . S
C356 H343 0.960 . S
C356 C355 1.524 . S
C357 C354 1.403 . S
C357 C358 1.392 . S
C357 C361 1.495 . S
C358 C357 1.392 . S
C358 C359 1.385 . S
C358 C360 1.478 . S
C359 H353 0.930 . S
C359 C355 1.400 . S
C359 C358 1.385 . S
C360 C358 1.478 . S
C360 C362 1.381 . S
C360 C366 1.383 . S
C361 C357 1.495 . S
C361 H367 0.959 . S
C361 H368 0.961 . S
C361 H369 0.960 . S
C362 C360 1.381 . S
C362 C363 1.394 . S
C362 H370 0.930 . S
C363 C362 1.394 . S
C363 C364 1.383 . S
C363 H371 0.929 . S
C364 C363 1.383 . S
C364 C365 1.377 . S
C365 H349 0.930 . S
C365 C364 1.377 . S
C365 C366 1.379 . S
C366 H350 0.931 . S
C366 C360 1.383 . S
C366 C365 1.379 . S
H367 C361 0.959 . S
H368 C361 0.961 . S
H369 C361 0.960 . S
H370 C362 0.930 . S
H371 C363 0.929 . S
H372 C380 0.929 . S
H373 C382 0.930 . S
H374 C384 0.930 . S
H375 C387 0.929 . S
H376 C390 0.930 . S
H377 C392 0.960 . S
H378 C392 0.960 . S
H379 C392 0.960 . S
C380 H372 0.929 . S
C380 C381 1.377 . S
C380 C382 1.384 . S
C381 C380 1.377 . S
C381 C387 1.390 . S
C382 H373 0.930 . S
C382 C380 1.384 . S
C382 C383 1.372 . S
C383 C382 1.372 . S
C383 C384 1.400 . S
C383 C388 1.490 . S
C384 H374 0.930 . S
C384 C383 1.400 . S
C384 C387 1.386 . S
H385 C401 0.930 . S
H386 C402 0.931 . S
C387 H375 0.929 . S
C387 C381 1.390 . S
C387 C384 1.386 . S
C388 C383 1.490 . S
C388 C390 1.395 . S
C388 C391 1.403 . S
H389 C395 0.930 . S
C390 H376 0.930 . S
C390 C388 1.395 . S
C390 C393 1.403 . S
C391 C388 1.403 . S
C391 C392 1.524 . S
C391 C395 1.400 . S
C392 H377 0.960 . S
C392 H378 0.960 . S
C392 H379 0.960 . S
C392 C391 1.524 . S
C393 C390 1.403 . S
C393 C394 1.392 . S
C393 C397 1.495 . S
C394 C393 1.392 . S
C394 C395 1.385 . S
C394 C396 1.478 . S
C395 H389 0.930 . S
C395 C391 1.400 . S
C395 C394 1.385 . S
C396 C394 1.478 . S
C396 C398 1.381 . S
C396 C402 1.383 . S
C397 C393 1.495 . S
C397 H403 0.959 . S
C397 H404 0.961 . S
C397 H405 0.960 . S
C398 C396 1.381 . S
C398 C399 1.394 . S
C398 H406 0.930 . S
C399 C398 1.394 . S
C399 C400 1.383 . S
C399 H407 0.929 . S
C400 C399 1.383 . S
C400 C401 1.377 . S
C401 H385 0.930 . S
C401 C400 1.377 . S
C401 C402 1.379 . S
C402 H386 0.931 . S
C402 C396 1.383 . S
C402 C401 1.379 . S
H403 C397 0.959 . S
H404 C397 0.961 . S
H405 C397 0.960 . S
H406 C398 0.930 . S
H407 C399 0.929 . S
H408 C416 0.929 . S
H409 C418 0.930 . S
H410 C420 0.930 . S
H411 C423 0.929 . S
H412 C426 0.930 . S
H413 C428 0.960 . S
H414 C428 0.960 . S
H415 C428 0.960 . S
C416 H408 0.929 . S
C416 C417 1.377 . S
C416 C418 1.384 . S
C417 C416 1.377 . S
C417 C423 1.390 . S
C418 H409 0.930 . S
C418 C416 1.384 . S
C418 C419 1.372 . S
C419 C418 1.372 . S
C419 C420 1.400 . S
C419 C424 1.490 . S
C420 H410 0.930 . S
C420 C419 1.400 . S
C420 C423 1.386 . S
H421 C437 0.930 . S
H422 C438 0.931 . S
C423 H411 0.929 . S
C423 C417 1.390 . S
C423 C420 1.386 . S
C424 C419 1.490 . S
C424 C426 1.395 . S
C424 C427 1.403 . S
H425 C431 0.930 . S
C426 H412 0.930 . S
C426 C424 1.395 . S
C426 C429 1.403 . S
C427 C424 1.403 . S
C427 C428 1.524 . S
C427 C431 1.400 . S
C428 H413 0.960 . S
C428 H414 0.960 . S
C428 H415 0.960 . S
C428 C427 1.524 . S
C429 C426 1.403 . S
C429 C430 1.392 . S
C429 C433 1.495 . S
C430 C429 1.392 . S
C430 C431 1.385 . S
C430 C432 1.478 . S
C431 H425 0.930 . S
C431 C427 1.400 . S
C431 C430 1.385 . S
C432 C430 1.478 . S
C432 C434 1.381 . S
C432 C438 1.383 . S
C433 C429 1.495 . S
C433 H439 0.959 . S
C433 H440 0.961 . S
C433 H441 0.960 . S
C434 C432 1.381 . S
C434 C435 1.394 . S
C434 H442 0.930 . S
C435 C434 1.394 . S
C435 C436 1.383 . S
C435 H443 0.929 . S
C436 C435 1.383 . S
C436 C437 1.377 . S
C437 H421 0.930 . S
C437 C436 1.377 . S
C437 C438 1.379 . S
C438 H422 0.931 . S
C438 C432 1.383 . S
C438 C437 1.379 . S
H439 C433 0.959 . S
H440 C433 0.961 . S
H441 C433 0.960 . S
H442 C434 0.930 . S
H443 C435 0.929 . S
H444 C452 0.929 . S
H445 C454 0.930 . S
H446 C456 0.930 . S
H447 C459 0.929 . S
H448 C462 0.930 . S
H449 C464 0.960 . S
H450 C464 0.960 . S
H451 C464 0.960 . S
C452 H444 0.929 . S
C452 C453 1.377 . S
C452 C454 1.384 . S
C453 C452 1.377 . S
C453 C459 1.390 . S
C454 H445 0.930 . S
C454 C452 1.384 . S
C454 C455 1.372 . S
C455 C454 1.372 . S
C455 C456 1.400 . S
C455 C460 1.490 . S
C456 H446 0.930 . S
C456 C455 1.400 . S
C456 C459 1.386 . S
H457 C473 0.930 . S
H458 C474 0.931 . S
C459 H447 0.929 . S
C459 C453 1.390 . S
C459 C456 1.386 . S
C460 C455 1.490 . S
C460 C462 1.395 . S
C460 C463 1.403 . S
H461 C467 0.930 . S
C462 H448 0.930 . S
C462 C460 1.395 . S
C462 C465 1.403 . S
C463 C460 1.403 . S
C463 C464 1.524 . S
C463 C467 1.400 . S
C464 H449 0.960 . S
C464 H450 0.960 . S
C464 H451 0.960 . S
C464 C463 1.524 . S
C465 C462 1.403 . S
C465 C466 1.392 . S
C465 C469 1.495 . S
C466 C465 1.392 . S
C466 C467 1.385 . S
C466 C468 1.478 . S
C467 H461 0.930 . S
C467 C463 1.400 . S
C467 C466 1.385 . S
C468 C466 1.478 . S
C468 C470 1.381 . S
C468 C474 1.383 . S
C469 C465 1.495 . S
C469 H475 0.959 . S
C469 H476 0.961 . S
C469 H477 0.960 . S
C470 C468 1.381 . S
C470 C471 1.394 . S
C470 H478 0.930 . S
C471 C470 1.394 . S
C471 C472 1.383 . S
C471 H479 0.929 . S
C472 C471 1.383 . S
C472 C473 1.377 . S
C473 H457 0.930 . S
C473 C472 1.377 . S
C473 C474 1.379 . S
C474 H458 0.931 . S
C474 C468 1.383 . S
C474 C473 1.379 . S
H475 C469 0.959 . S
H476 C469 0.961 . S
H477 C469 0.960 . S
H478 C470 0.930 . S
H479 C471 0.929 . S
H480 C488 0.929 . S
H481 C490 0.930 . S
H482 C492 0.930 . S
H483 C495 0.929 . S
H484 C498 0.930 . S
H485 C500 0.960 . S
H486 C500 0.960 . S
H487 C500 0.960 . S
C488 H480 0.929 . S
C488 C489 1.377 . S
C488 C490 1.384 . S
C489 C488 1.377 . S
C489 C495 1.390 . S
C490 H481 0.930 . S
C490 C488 1.384 . S
C490 C491 1.372 . S
C491 C490 1.372 . S
C491 C492 1.400 . S
C491 C496 1.490 . S
C492 H482 0.930 . S
C492 C491 1.400 . S
C492 C495 1.386 . S
H493 C509 0.930 . S
H494 C510 0.931 . S
C495 H483 0.929 . S
C495 C489 1.390 . S
C495 C492 1.386 . S
C496 C491 1.490 . S
C496 C498 1.395 . S
C496 C499 1.403 . S
H497 C503 0.930 . S
C498 H484 0.930 . S
C498 C496 1.395 . S
C498 C501 1.403 . S
C499 C496 1.403 . S
C499 C500 1.524 . S
C499 C503 1.400 . S
C500 H485 0.960 . S
C500 H486 0.960 . S
C500 H487 0.960 . S
C500 C499 1.524 . S
C501 C498 1.403 . S
C501 C502 1.392 . S
C501 C505 1.495 . S
C502 C501 1.392 . S
C502 C503 1.385 . S
C502 C504 1.478 . S
C503 H497 0.930 . S
C503 C499 1.400 . S
C503 C502 1.385 . S
C504 C502 1.478 . S
C504 C506 1.381 . S
C504 C510 1.383 . S
C505 C501 1.495 . S
C505 H511 0.959 . S
C505 H512 0.961 . S
C505 H513 0.960 . S
C506 C504 1.381 . S
C506 C507 1.394 . S
C506 H514 0.930 . S
C507 C506 1.394 . S
C507 C508 1.383 . S
C507 H515 0.929 . S
C508 C507 1.383 . S
C508 C509 1.377 . S
C509 H493 0.930 . S
C509 C508 1.377 . S
C509 C510 1.379 . S
C510 H494 0.931 . S
C510 C504 1.383 . S
C510 C509 1.379 . S
H511 C505 0.959 . S
H512 C505 0.961 . S
H513 C505 0.960 . S
H514 C506 0.930 . S
H515 C507 0.929 . S
H516 C524 0.929 . S
H517 C526 0.930 . S
H518 C528 0.930 . S
H519 C531 0.929 . S
H520 C534 0.930 . S
H521 C536 0.960 . S
H522 C536 0.960 . S
H523 C536 0.960 . S
C524 H516 0.929 . S
C524 C525 1.377 . S
C524 C526 1.384 . S
C525 C524 1.377 . S
C525 C531 1.390 . S
C526 H517 0.930 . S
C526 C524 1.384 . S
C526 C527 1.372 . S
C527 C526 1.372 . S
C527 C528 1.400 . S
C527 C532 1.490 . S
C528 H518 0.930 . S
C528 C527 1.400 . S
C528 C531 1.386 . S
H529 C545 0.930 . S
H530 C546 0.931 . S
C531 H519 0.929 . S
C531 C525 1.390 . S
C531 C528 1.386 . S
C532 C527 1.490 . S
C532 C534 1.395 . S
C532 C535 1.403 . S
H533 C539 0.930 . S
C534 H520 0.930 . S
C534 C532 1.395 . S
C534 C537 1.403 . S
C535 C532 1.403 . S
C535 C536 1.524 . S
C535 C539 1.400 . S
C536 H521 0.960 . S
C536 H522 0.960 . S
C536 H523 0.960 . S
C536 C535 1.524 . S
C537 C534 1.403 . S
C537 C538 1.392 . S
C537 C541 1.495 . S
C538 C537 1.392 . S
C538 C539 1.385 . S
C538 C540 1.478 . S
C539 H533 0.930 . S
C539 C535 1.400 . S
C539 C538 1.385 . S
C540 C538 1.478 . S
C540 C542 1.381 . S
C540 C546 1.383 . S
C541 C537 1.495 . S
C541 H547 0.959 . S
C541 H548 0.961 . S
C541 H549 0.960 . S
C542 C540 1.381 . S
C542 C543 1.394 . S
C542 H550 0.930 . S
C543 C542 1.394 . S
C543 C544 1.383 . S
C543 H551 0.929 . S
C544 C543 1.383 . S
C544 C545 1.377 . S
C545 H529 0.930 . S
C545 C544 1.377 . S
C545 C546 1.379 . S
C546 H530 0.931 . S
C546 C540 1.383 . S
C546 C545 1.379 . S
H547 C541 0.959 . S
H548 C541 0.961 . S
H549 C541 0.960 . S
H550 C542 0.930 . S
H551 C543 0.929 . S
H552 C560 0.929 . S
H553 C562 0.930 . S
H554 C564 0.930 . S
H555 C567 0.929 . S
H556 C570 0.930 . S
H557 C572 0.960 . S
H558 C572 0.960 . S
H559 C572 0.960 . S
C560 H552 0.929 . S
C560 C561 1.377 . S
C560 C562 1.384 . S
C561 C560 1.377 . S
C561 C567 1.390 . S
C562 H553 0.930 . S
C562 C560 1.384 . S
C562 C563 1.372 . S
C563 C562 1.372 . S
C563 C564 1.400 . S
C563 C568 1.490 . S
C564 H554 0.930 . S
C564 C563 1.400 . S
C564 C567 1.386 . S
H565 C581 0.930 . S
H566 C582 0.931 . S
C567 H555 0.929 . S
C567 C561 1.390 . S
C567 C564 1.386 . S
C568 C563 1.490 . S
C568 C570 1.395 . S
C568 C571 1.403 . S
H569 C575 0.930 . S
C570 H556 0.930 . S
C570 C568 1.395 . S
C570 C573 1.403 . S
C571 C568 1.403 . S
C571 C572 1.524 . S
C571 C575 1.400 . S
C572 H557 0.960 . S
C572 H558 0.960 . S
C572 H559 0.960 . S
C572 C571 1.524 . S
C573 C570 1.403 . S
C573 C574 1.392 . S
C573 C577 1.495 . S
C574 C573 1.392 . S
C574 C575 1.385 . S
C574 C576 1.478 . S
C575 H569 0.930 . S
C575 C571 1.400 . S
C575 C574 1.385 . S
C576 C574 1.478 . S
C576 C578 1.381 . S
C576 C582 1.383 . S
C577 C573 1.495 . S
C577 H583 0.959 . S
C577 H584 0.961 . S
C577 H585 0.960 . S
C578 C576 1.381 . S
C578 C579 1.394 . S
C578 H586 0.930 . S
C579 C578 1.394 . S
C579 C580 1.383 . S
C579 H587 0.929 . S
C580 C579 1.383 . S
C580 C581 1.377 . S
C581 H565 0.930 . S
C581 C580 1.377 . S
C581 C582 1.379 . S
C582 H566 0.931 . S
C582 C576 1.383 . S
C582 C581 1.379 . S
H583 C577 0.959 . S
H584 C577 0.961 . S
H585 C577 0.960 . S
H586 C578 0.930 . S
H587 C579 0.929 . S
H588 C596 0.929 . S
H589 C598 0.930 . S
H590 C600 0.930 . S
H591 C603 0.929 . S
H592 C606 0.930 . S
H593 C608 0.960 . S
H594 C608 0.960 . S
H595 C608 0.960 . S
C596 H588 0.929 . S
C596 C597 1.377 . S
C596 C598 1.384 . S
C597 C596 1.377 . S
C597 C603 1.390 . S
C598 H589 0.930 . S
C598 C596 1.384 . S
C598 C599 1.372 . S
C599 C598 1.372 . S
C599 C600 1.400 . S
C599 C604 1.490 . S
C600 H590 0.930 . S
C600 C599 1.400 . S
C600 C603 1.386 . S
H601 C617 0.930 . S
H602 C618 0.931 . S
C603 H591 0.929 . S
C603 C597 1.390 . S
C603 C600 1.386 . S
C604 C599 1.490 . S
C604 C606 1.395 . S
C604 C607 1.403 . S
H605 C611 0.930 . S
C606 H592 0.930 . S
C606 C604 1.395 . S
C606 C609 1.403 . S
C607 C604 1.403 . S
C607 C608 1.524 . S
C607 C611 1.400 . S
C608 H593 0.960 . S
C608 H594 0.960 . S
C608 H595 0.960 . S
C608 C607 1.524 . S
C609 C606 1.403 . S
C609 C610 1.392 . S
C609 C613 1.495 . S
C610 C609 1.392 . S
C610 C611 1.385 . S
C610 C612 1.478 . S
C611 H605 0.930 . S
C611 C607 1.400 . S
C611 C610 1.385 . S
C612 C610 1.478 . S
C612 C614 1.381 . S
C612 C618 1.383 . S
C613 C609 1.495 . S
C613 H619 0.959 . S
C613 H620 0.961 . S
C613 H621 0.960 . S
C614 C612 1.381 . S
C614 C615 1.394 . S
C614 H622 0.930 . S
C615 C614 1.394 . S
C615 C616 1.383 . S
C615 H623 0.929 . S
C616 C615 1.383 . S
C616 C617 1.377 . S
C617 H601 0.930 . S
C617 C616 1.377 . S
C617 C618 1.379 . S
C618 H602 0.931 . S
C618 C612 1.383 . S
C618 C617 1.379 . S
H619 C613 0.959 . S
H620 C613 0.961 . S
H621 C613 0.960 . S
H622 C614 0.930 . S
H623 C615 0.929 . S
H624 C632 0.929 . S
H625 C634 0.930 . S
H626 C636 0.930 . S
H627 C639 0.929 . S
H628 C642 0.930 . S
H629 C644 0.960 . S
H630 C644 0.960 . S
H631 C644 0.960 . S
C632 H624 0.929 . S
C632 C633 1.377 . S
C632 C634 1.384 . S
C633 C632 1.377 . S
C633 C639 1.390 . S
C634 H625 0.930 . S
C634 C632 1.384 . S
C634 C635 1.372 . S
C635 C634 1.372 . S
C635 C636 1.400 . S
C635 C640 1.490 . S
C636 H626 0.930 . S
C636 C635 1.400 . S
C636 C639 1.386 . S
H637 C653 0.930 . S
H638 C654 0.931 . S
C639 H627 0.929 . S
C639 C633 1.390 . S
C639 C636 1.386 . S
C640 C635 1.490 . S
C640 C642 1.395 . S
C640 C643 1.403 . S
H641 C647 0.930 . S
C642 H628 0.930 . S
C642 C640 1.395 . S
C642 C645 1.403 . S
C643 C640 1.403 . S
C643 C644 1.524 . S
C643 C647 1.400 . S
C644 H629 0.960 . S
C644 H630 0.960 . S
C644 H631 0.960 . S
C644 C643 1.524 . S
C645 C642 1.403 . S
C645 C646 1.392 . S
C645 C649 1.495 . S
C646 C645 1.392 . S
C646 C647 1.385 . S
C646 C648 1.478 . S
C647 H641 0.930 . S
C647 C643 1.400 . S
C647 C646 1.385 . S
C648 C646 1.478 . S
C648 C650 1.381 . S
C648 C654 1.383 . S
C649 C645 1.495 . S
C649 H655 0.959 . S
C649 H656 0.961 . S
C649 H657 0.960 . S
C650 C648 1.381 . S
C650 C651 1.394 . S
C650 H658 0.930 . S
C651 C650 1.394 . S
C651 C652 1.383 . S
C651 H659 0.929 . S
C652 C651 1.383 . S
C652 C653 1.377 . S
C653 H637 0.930 . S
C653 C652 1.377 . S
C653 C654 1.379 . S
C654 H638 0.931 . S
C654 C648 1.383 . S
C654 C653 1.379 . S
H655 C649 0.959 . S
H656 C649 0.961 . S
H657 C649 0.960 . S
H658 C650 0.930 . S
H659 C651 0.929 . S
H660 C668 0.929 . S
H661 C670 0.930 . S
H662 C672 0.930 . S
H663 C675 0.929 . S
H664 C678 0.930 . S
H665 C680 0.960 . S
H666 C680 0.960 . S
H667 C680 0.960 . S
C668 H660 0.929 . S
C668 C669 1.377 . S
C668 C670 1.384 . S
C669 C668 1.377 . S
C669 C675 1.390 . S
C670 H661 0.930 . S
C670 C668 1.384 . S
C670 C671 1.372 . S
C671 C670 1.372 . S
C671 C672 1.400 . S
C671 C676 1.490 . S
C672 H662 0.930 . S
C672 C671 1.400 . S
C672 C675 1.386 . S
H673 C689 0.930 . S
H674 C690 0.931 . S
C675 H663 0.929 . S
C675 C669 1.390 . S
C675 C672 1.386 . S
C676 C671 1.490 . S
C676 C678 1.395 . S
C676 C679 1.403 . S
H677 C683 0.930 . S
C678 H664 0.930 . S
C678 C676 1.395 . S
C678 C681 1.403 . S
C679 C676 1.403 . S
C679 C680 1.524 . S
C679 C683 1.400 . S
C680 H665 0.960 . S
C680 H666 0.960 . S
C680 H667 0.960 . S
C680 C679 1.524 . S
C681 C678 1.403 . S
C681 C682 1.392 . S
C681 C685 1.495 . S
C682 C681 1.392 . S
C682 C683 1.385 . S
C682 C684 1.478 . S
C683 H677 0.930 . S
C683 C679 1.400 . S
C683 C682 1.385 . S
C684 C682 1.478 . S
C684 C686 1.381 . S
C684 C690 1.383 . S
C685 C681 1.495 . S
C685 H691 0.959 . S
C685 H692 0.961 . S
C685 H693 0.960 . S
C686 C684 1.381 . S
C686 C687 1.394 . S
C686 H694 0.930 . S
C687 C686 1.394 . S
C687 C688 1.383 . S
C687 H695 0.929 . S
C688 C687 1.383 . S
C688 C689 1.377 . S
C689 H673 0.930 . S
C689 C688 1.377 . S
C689 C690 1.379 . S
C690 H674 0.931 . S
C690 C684 1.383 . S
C690 C689 1.379 . S
H691 C685 0.959 . S
H692 C685 0.961 . S
H693 C685 0.960 . S
H694 C686 0.930 . S
H695 C687 0.929 . S
H696 C704 0.929 . S
H697 C706 0.930 . S
H698 C708 0.930 . S
H699 C711 0.929 . S
H700 C714 0.930 . S
H701 C716 0.960 . S
H702 C716 0.960 . S
H703 C716 0.960 . S
C704 H696 0.929 . S
C704 C705 1.377 . S
C704 C706 1.384 . S
C705 C704 1.377 . S
C705 C711 1.390 . S
C706 H697 0.930 . S
C706 C704 1.384 . S
C706 C707 1.372 . S
C707 C706 1.372 . S
C707 C708 1.400 . S
C707 C712 1.490 . S
C708 H698 0.930 . S
C708 C707 1.400 . S
C708 C711 1.386 . S
H709 C725 0.930 . S
H710 C726 0.931 . S
C711 H699 0.929 . S
C711 C705 1.390 . S
C711 C708 1.386 . S
C712 C707 1.490 . S
C712 C714 1.395 . S
C712 C715 1.403 . S
H713 C719 0.930 . S
C714 H700 0.930 . S
C714 C712 1.395 . S
C714 C717 1.403 . S
C715 C712 1.403 . S
C715 C716 1.524 . S
C715 C719 1.400 . S
C716 H701 0.960 . S
C716 H702 0.960 . S
C716 H703 0.960 . S
C716 C715 1.524 . S
C717 C714 1.403 . S
C717 C718 1.392 . S
C717 C721 1.495 . S
C718 C717 1.392 . S
C718 C719 1.385 . S
C718 C720 1.478 . S
C719 H713 0.930 . S
C719 C715 1.400 . S
C719 C718 1.385 . S
C720 C718 1.478 . S
C720 C722 1.381 . S
C720 C726 1.383 . S
C721 C717 1.495 . S
C721 H727 0.959 . S
C721 H728 0.961 . S
C721 H729 0.960 . S
C722 C720 1.381 . S
C722 C723 1.394 . S
C722 H730 0.930 . S
C723 C722 1.394 . S
C723 C724 1.383 . S
C723 H731 0.929 . S
C724 C723 1.383 . S
C724 C725 1.377 . S
C725 H709 0.930 . S
C725 C724 1.377 . S
C725 C726 1.379 . S
C726 H710 0.931 . S
C726 C720 1.383 . S
C726 C725 1.379 . S
H727 C721 0.959 . S
H728 C721 0.961 . S
H729 C721 0.960 . S
H730 C722 0.930 . S
H731 C723 0.929 . S
H732 C740 0.929 . S
H733 C742 0.930 . S
H734 C744 0.930 . S
H735 C747 0.929 . S
H736 C750 0.930 . S
H737 C752 0.960 . S
H738 C752 0.960 . S
H739 C752 0.960 . S
C740 H732 0.929 . S
C740 C741 1.377 . S
C740 C742 1.384 . S
C741 C740 1.377 . S
C741 C747 1.390 . S
C742 H733 0.930 . S
C742 C740 1.384 . S
C742 C743 1.372 . S
C743 C742 1.372 . S
C743 C744 1.400 . S
C743 C748 1.490 . S
C744 H734 0.930 . S
C744 C743 1.400 . S
C744 C747 1.386 . S
H745 C761 0.930 . S
H746 C762 0.931 . S
C747 H735 0.929 . S
C747 C741 1.390 . S
C747 C744 1.386 . S
C748 C743 1.490 . S
C748 C750 1.395 . S
C748 C751 1.403 . S
H749 C755 0.930 . S
C750 H736 0.930 . S
C750 C748 1.395 . S
C750 C753 1.403 . S
C751 C748 1.403 . S
C751 C752 1.524 . S
C751 C755 1.400 . S
C752 H737 0.960 . S
C752 H738 0.960 . S
C752 H739 0.960 . S
C752 C751 1.524 . S
C753 C750 1.403 . S
C753 C754 1.392 . S
C753 C757 1.495 . S
C754 C753 1.392 . S
C754 C755 1.385 . S
C754 C756 1.478 . S
C755 H749 0.930 . S
C755 C751 1.400 . S
C755 C754 1.385 . S
C756 C754 1.478 . S
C756 C758 1.381 . S
C756 C762 1.383 . S
C757 C753 1.495 . S
C757 H763 0.959 . S
C757 H764 0.961 . S
C757 H765 0.960 . S
C758 C756 1.381 . S
C758 C759 1.394 . S
C758 H766 0.930 . S
C759 C758 1.394 . S
C759 C760 1.383 . S
C759 H767 0.929 . S
C760 C759 1.383 . S
C760 C761 1.377 . S
C761 H745 0.930 . S
C761 C760 1.377 . S
C761 C762 1.379 . S
C762 H746 0.931 . S
C762 C756 1.383 . S
C762 C761 1.379 . S
H763 C757 0.959 . S
H764 C757 0.961 . S
H765 C757 0.960 . S
H766 C758 0.930 . S
H767 C759 0.929 . S
H768 C776 0.929 . S
H769 C778 0.930 . S
H770 C780 0.930 . S
H771 C783 0.929 . S
H772 C786 0.930 . S
H773 C788 0.960 . S
H774 C788 0.960 . S
H775 C788 0.960 . S
C776 H768 0.929 . S
C776 C777 1.377 . S
C776 C778 1.384 . S
C777 C776 1.377 . S
C777 C783 1.390 . S
C778 H769 0.930 . S
C778 C776 1.384 . S
C778 C779 1.372 . S
C779 C778 1.372 . S
C779 C780 1.400 . S
C779 C784 1.490 . S
C780 H770 0.930 . S
C780 C779 1.400 . S
C780 C783 1.386 . S
H781 C797 0.930 . S
H782 C798 0.931 . S
C783 H771 0.929 . S
C783 C777 1.390 . S
C783 C780 1.386 . S
C784 C779 1.490 . S
C784 C786 1.395 . S
C784 C787 1.403 . S
H785 C791 0.930 . S
C786 H772 0.930 . S
C786 C784 1.395 . S
C786 C789 1.403 . S
C787 C784 1.403 . S
C787 C788 1.524 . S
C787 C791 1.400 . S
C788 H773 0.960 . S
C788 H774 0.960 . S
C788 H775 0.960 . S
C788 C787 1.524 . S
C789 C786 1.403 . S
C789 C790 1.392 . S
C789 C793 1.495 . S
C790 C789 1.392 . S
C790 C791 1.385 . S
C790 C792 1.478 . S
C791 H785 0.930 . S
C791 C787 1.400 . S
C791 C790 1.385 . S
C792 C790 1.478 . S
C792 C794 1.381 . S
C792 C798 1.383 . S
C793 C789 1.495 . S
C793 H799 0.959 . S
C793 H800 0.961 . S
C793 H801 0.960 . S
C794 C792 1.381 . S
C794 C795 1.394 . S
C794 H802 0.930 . S
C795 C794 1.394 . S
C795 C796 1.383 . S
C795 H803 0.929 . S
C796 C795 1.383 . S
C796 C797 1.377 . S
C797 H781 0.930 . S
C797 C796 1.377 . S
C797 C798 1.379 . S
C798 H782 0.931 . S
C798 C792 1.383 . S
C798 C797 1.379 . S
H799 C793 0.959 . S
H800 C793 0.961 . S
H801 C793 0.960 . S
H802 C794 0.930 . S
H803 C795 0.929 . S
H804 C812 0.929 . S
H805 C814 0.930 . S
H806 C816 0.930 . S
H807 C819 0.929 . S
H808 C822 0.930 . S
H809 C824 0.960 . S
H810 C824 0.960 . S
H811 C824 0.960 . S
C812 H804 0.929 . S
C812 C813 1.377 . S
C812 C814 1.384 . S
C813 C812 1.377 . S
C813 C819 1.390 . S
C814 H805 0.930 . S
C814 C812 1.384 . S
C814 C815 1.372 . S
C815 C814 1.372 . S
C815 C816 1.400 . S
C815 C820 1.490 . S
C816 H806 0.930 . S
C816 C815 1.400 . S
C816 C819 1.386 . S
H817 C833 0.930 . S
H818 C834 0.931 . S
C819 H807 0.929 . S
C819 C813 1.390 . S
C819 C816 1.386 . S
C820 C815 1.490 . S
C820 C822 1.395 . S
C820 C823 1.403 . S
H821 C827 0.930 . S
C822 H808 0.930 . S
C822 C820 1.395 . S
C822 C825 1.403 . S
C823 C820 1.403 . S
C823 C824 1.524 . S
C823 C827 1.400 . S
C824 H809 0.960 . S
C824 H810 0.960 . S
C824 H811 0.960 . S
C824 C823 1.524 . S
C825 C822 1.403 . S
C825 C826 1.392 . S
C825 C829 1.495 . S
C826 C825 1.392 . S
C826 C827 1.385 . S
C826 C828 1.478 . S
C827 H821 0.930 . S
C827 C823 1.400 . S
C827 C826 1.385 . S
C828 C826 1.478 . S
C828 C830 1.381 . S
C828 C834 1.383 . S
C829 C825 1.495 . S
C829 H835 0.959 . S
C829 H836 0.961 . S
C829 H837 0.960 . S
C830 C828 1.381 . S
C830 C831 1.394 . S
C830 H838 0.930 . S
C831 C830 1.394 . S
C831 C832 1.383 . S
C831 H839 0.929 . S
C832 C831 1.383 . S
C832 C833 1.377 . S
C833 H817 0.930 . S
C833 C832 1.377 . S
C833 C834 1.379 . S
C834 H818 0.931 . S
C834 C828 1.383 . S
C834 C833 1.379 . S
H835 C829 0.959 . S
H836 C829 0.961 . S
H837 C829 0.960 . S
H838 C830 0.930 . S
H839 C831 0.929 . S
H840 C848 0.929 . S
H841 C850 0.930 . S
H842 C852 0.930 . S
H843 C855 0.929 . S
H844 C858 0.930 . S
H845 C860 0.960 . S
H846 C860 0.960 . S
H847 C860 0.960 . S
C848 H840 0.929 . S
C848 C849 1.377 . S
C848 C850 1.384 . S
C849 C848 1.377 . S
C849 C855 1.390 . S
C850 H841 0.930 . S
C850 C848 1.384 . S
C850 C851 1.372 . S
C851 C850 1.372 . S
C851 C852 1.400 . S
C851 C856 1.490 . S
C852 H842 0.930 . S
C852 C851 1.400 . S
C852 C855 1.386 . S
H853 C869 0.930 . S
H854 C870 0.931 . S
C855 H843 0.929 . S
C855 C849 1.390 . S
C855 C852 1.386 . S
C856 C851 1.490 . S
C856 C858 1.395 . S
C856 C859 1.403 . S
H857 C863 0.930 . S
C858 H844 0.930 . S
C858 C856 1.395 . S
C858 C861 1.403 . S
C859 C856 1.403 . S
C859 C860 1.524 . S
C859 C863 1.400 . S
C860 H845 0.960 . S
C860 H846 0.960 . S
C860 H847 0.960 . S
C860 C859 1.524 . S
C861 C858 1.403 . S
C861 C862 1.392 . S
C861 C865 1.495 . S
C862 C861 1.392 . S
C862 C863 1.385 . S
C862 C864 1.478 . S
C863 H857 0.930 . S
C863 C859 1.400 . S
C863 C862 1.385 . S
C864 C862 1.478 . S
C864 C866 1.381 . S
C864 C870 1.383 . S
C865 C861 1.495 . S
C865 H871 0.959 . S
C865 H872 0.961 . S
C865 H873 0.960 . S
C866 C864 1.381 . S
C866 C867 1.394 . S
C866 H874 0.930 . S
C867 C866 1.394 . S
C867 C868 1.383 . S
C867 H875 0.929 . S
C868 C867 1.383 . S
C868 C869 1.377 . S
C869 H853 0.930 . S
C869 C868 1.377 . S
C869 C870 1.379 . S
C870 H854 0.931 . S
C870 C864 1.383 . S
C870 C869 1.379 . S
H871 C865 0.959 . S
H872 C865 0.961 . S
H873 C865 0.960 . S
H874 C866 0.930 . S
H875 C867 0.929 . S
H876 C884 0.929 . S
H877 C886 0.930 . S
H878 C888 0.930 . S
H879 C891 0.929 . S
H880 C894 0.930 . S
H881 C896 0.960 . S
H882 C896 0.960 . S
H883 C896 0.960 . S
C884 H876 0.929 . S
C884 C885 1.377 . S
C884 C886 1.384 . S
C885 C884 1.377 . S
C885 C891 1.390 . S
C886 H877 0.930 . S
C886 C884 1.384 . S
C886 C887 1.372 . S
C887 C886 1.372 . S
C887 C888 1.400 . S
C887 C892 1.490 . S
C888 H878 0.930 . S
C888 C887 1.400 . S
C888 C891 1.386 . S
H889 C905 0.930 . S
H890 C906 0.931 . S
C891 H879 0.929 . S
C891 C885 1.390 . S
C891 C888 1.386 . S
C892 C887 1.490 . S
C892 C894 1.395 . S
C892 C895 1.403 . S
H893 C899 0.930 . S
C894 H880 0.930 . S
C894 C892 1.395 . S
C894 C897 1.403 . S
C895 C892 1.403 . S
C895 C896 1.524 . S
C895 C899 1.400 . S
C896 H881 0.960 . S
C896 H882 0.960 . S
C896 H883 0.960 . S
C896 C895 1.524 . S
C897 C894 1.403 . S
C897 C898 1.392 . S
C897 C901 1.495 . S
C898 C897 1.392 . S
C898 C899 1.385 . S
C898 C900 1.478 . S
C899 H893 0.930 . S
C899 C895 1.400 . S
C899 C898 1.385 . S
C900 C898 1.478 . S
C900 C902 1.381 . S
C900 C906 1.383 . S
C901 C897 1.495 . S
C901 H907 0.959 . S
C901 H908 0.961 . S
C901 H909 0.960 . S
C902 C900 1.381 . S
C902 C903 1.394 . S
C902 H910 0.930 . S
C903 C902 1.394 . S
C903 C904 1.383 . S
C903 H911 0.929 . S
C904 C903 1.383 . S
C904 C905 1.377 . S
C905 H889 0.930 . S
C905 C904 1.377 . S
C905 C906 1.379 . S
C906 H890 0.931 . S
C906 C900 1.383 . S
C906 C905 1.379 . S
H907 C901 0.959 . S
H908 C901 0.961 . S
H909 C901 0.960 . S
H910 C902 0.930 . S
H911 C903 0.929 . S
H912 C920 0.929 . S
H913 C922 0.930 . S
H914 C924 0.930 . S
H915 C927 0.929 . S
H916 C930 0.930 . S
H917 C932 0.960 . S
H918 C932 0.960 . S
H919 C932 0.960 . S
C920 H912 0.929 . S
C920 C921 1.377 . S
C920 C922 1.384 . S
C921 C920 1.377 . S
C921 C927 1.390 . S
C922 H913 0.930 . S
C922 C920 1.384 . S
C922 C923 1.372 . S
C923 C922 1.372 . S
C923 C924 1.400 . S
C923 C928 1.490 . S
C924 H914 0.930 . S
C924 C923 1.400 . S
C924 C927 1.386 . S
H925 C941 0.930 . S
H926 C942 0.931 . S
C927 H915 0.929 . S
C927 C921 1.390 . S
C927 C924 1.386 . S
C928 C923 1.490 . S
C928 C930 1.395 . S
C928 C931 1.403 . S
H929 C935 0.930 . S
C930 H916 0.930 . S
C930 C928 1.395 . S
C930 C933 1.403 . S
C931 C928 1.403 . S
C931 C932 1.524 . S
C931 C935 1.400 . S
C932 H917 0.960 . S
C932 H918 0.960 . S
C932 H919 0.960 . S
C932 C931 1.524 . S
C933 C930 1.403 . S
C933 C934 1.392 . S
C933 C937 1.495 . S
C934 C933 1.392 . S
C934 C935 1.385 . S
C934 C936 1.478 . S
C935 H929 0.930 . S
C935 C931 1.400 . S
C935 C934 1.385 . S
C936 C934 1.478 . S
C936 C938 1.381 . S
C936 C942 1.383 . S
C937 C933 1.495 . S
C937 H943 0.959 . S
C937 H944 0.961 . S
C937 H945 0.960 . S
C938 C936 1.381 . S
C938 C939 1.394 . S
C938 H946 0.930 . S
C939 C938 1.394 . S
C939 C940 1.383 . S
C939 H947 0.929 . S
C940 C939 1.383 . S
C940 C941 1.377 . S
C941 H925 0.930 . S
C941 C940 1.377 . S
C941 C942 1.379 . S
C942 H926 0.931 . S
C942 C936 1.383 . S
C942 C941 1.379 . S
H943 C937 0.959 . S
H944 C937 0.961 . S
H945 C937 0.960 . S
H946 C938 0.930 . S
H947 C939 0.929 . S
H948 C956 0.929 . S
H949 C958 0.930 . S
H950 C960 0.930 . S
H951 C963 0.929 . S
H952 C966 0.930 . S
H953 C968 0.960 . S
H954 C968 0.960 . S
H955 C968 0.960 . S
C956 H948 0.929 . S
C956 C957 1.377 . S
C956 C958 1.384 . S
C957 C956 1.377 . S
C957 C963 1.390 . S
C958 H949 0.930 . S
C958 C956 1.384 . S
C958 C959 1.372 . S
C959 C958 1.372 . S
C959 C960 1.400 . S
C959 C964 1.490 . S
C960 H950 0.930 . S
C960 C959 1.400 . S
C960 C963 1.386 . S
H961 C977 0.930 . S
H962 C978 0.931 . S
C963 H951 0.929 . S
C963 C957 1.390 . S
C963 C960 1.386 . S
C964 C959 1.490 . S
C964 C966 1.395 . S
C964 C967 1.403 . S
H965 C971 0.930 . S
C966 H952 0.930 . S
C966 C964 1.395 . S
C966 C969 1.403 . S
C967 C964 1.403 . S
C967 C968 1.524 . S
C967 C971 1.400 . S
C968 H953 0.960 . S
C968 H954 0.960 . S
C968 H955 0.960 . S
C968 C967 1.524 . S
C969 C966 1.403 . S
C969 C970 1.392 . S
C969 C973 1.495 . S
C970 C969 1.392 . S
C970 C971 1.385 . S
C970 C972 1.478 . S
C971 H965 0.930 . S
C971 C967 1.400 . S
C971 C970 1.385 . S
C972 C970 1.478 . S
C972 C974 1.381 . S
C972 C978 1.383 . S
C973 C969 1.495 . S
C973 H979 0.959 . S
C973 H980 0.961 . S
C973 H981 0.960 . S
C974 C972 1.381 . S
C974 C975 1.394 . S
C974 H982 0.930 . S
C975 C974 1.394 . S
C975 C976 1.383 . S
C975 H983 0.929 . S
C976 C975 1.383 . S
C976 C977 1.377 . S
C977 H961 0.930 . S
C977 C976 1.377 . S
C977 C978 1.379 . S
C978 H962 0.931 . S
C978 C972 1.383 . S
C978 C977 1.379 . S
H979 C973 0.959 . S
H980 C973 0.961 . S
H981 C973 0.960 . S
H982 C974 0.930 . S
H983 C975 0.929 . S
H984 C992 0.929 . S
H985 C994 0.930 . S
H986 C996 0.930 . S
H987 C999 0.929 . S
H988 C1002 0.930 . S
H989 C1004 0.960 . S
H990 C1004 0.960 . S
H991 C1004 0.960 . S
C992 H984 0.929 . S
C992 C993 1.377 . S
C992 C994 1.384 . S
C993 C992 1.377 . S
C993 C999 1.390 . S
C994 H985 0.930 . S
C994 C992 1.384 . S
C994 C995 1.372 . S
C995 C994 1.372 . S
C995 C996 1.400 . S
C995 C1000 1.490 . S
C996 H986 0.930 . S
C996 C995 1.400 . S
C996 C999 1.386 . S
H997 C1013 0.930 . S
H998 C1014 0.931 . S
C999 H987 0.929 . S
C999 C993 1.390 . S
C999 C996 1.386 . S
C1000 C995 1.490 . S
C1000 C1002 1.395 . S
C1000 C1003 1.403 . S
H1001 C1007 0.930 . S
C1002 H988 0.930 . S
C1002 C1000 1.395 . S
C1002 C1005 1.403 . S
C1003 C1000 1.403 . S
C1003 C1004 1.524 . S
C1003 C1007 1.400 . S
C1004 H989 0.960 . S
C1004 H990 0.960 . S
C1004 H991 0.960 . S
C1004 C1003 1.524 . S
C1005 C1002 1.403 . S
C1005 C1006 1.392 . S
C1005 C1009 1.495 . S
C1006 C1005 1.392 . S
C1006 C1007 1.385 . S
C1006 C1008 1.478 . S
C1007 H1001 0.930 . S
C1007 C1003 1.400 . S
C1007 C1006 1.385 . S
C1008 C1006 1.478 . S
C1008 C1010 1.381 . S
C1008 C1014 1.383 . S
C1009 C1005 1.495 . S
C1009 H1015 0.959 . S
C1009 H1016 0.961 . S
C1009 H1017 0.960 . S
C1010 C1008 1.381 . S
C1010 C1011 1.394 . S
C1010 H1018 0.930 . S
C1011 C1010 1.394 . S
C1011 C1012 1.383 . S
C1011 H1019 0.929 . S
C1012 C1011 1.383 . S
C1012 C1013 1.377 . S
C1013 H997 0.930 . S
C1013 C1012 1.377 . S
C1013 C1014 1.379 . S
C1014 H998 0.931 . S
C1014 C1008 1.383 . S
C1014 C1013 1.379 . S
H1015 C1009 0.959 . S
H1016 C1009 0.961 . S
H1017 C1009 0.960 . S
H1018 C1010 0.930 . S
H1019 C1011 0.929 . S
C184 C84 1.498 . S
C165 C4 1.504 . S
C220 C87 1.501 . S
C201 C13 1.503 . S
C256 C85 1.499 . S
C237 C25 1.507 . S
C292 C86 1.504 . S
C273 C34 1.506 . S
C328 C101 1.486 . S
C309 C7 1.495 . S
C364 C115 1.510 . S
C345 C14 1.509 . S
C381 C23 1.503 . S
C400 C141 1.500 . S
C436 C155 1.506 . S
C417 C31 1.513 . S
C472 C100 1.486 . S
C453 C16 1.495 . S
C489 C22 1.515 . S
C508 C114 1.504 . S
C544 C140 1.502 . S
C525 C32 1.503 . S
C580 C154 1.507 . S
C561 C5 1.510 . S
C597 C43 1.509 . S
C616 C99 1.499 . S
C652 C72 1.500 . S
C633 C52 1.510 . S
C669 C58 1.504 . S
C688 C98 1.494 . S
C705 C68 1.505 . S
C724 C73 1.500 . S
C760 C128 1.512 . S
C741 C40 1.512 . S
C796 C142 1.505 . S
C777 C50 1.506 . S
C832 C112 1.503 . S
C813 C59 1.502 . S
C849 C70 1.500 . S
C868 C126 1.493 . S
C904 C129 1.509 . S
C885 C49 1.512 . S
C940 C143 1.496 . S
C921 C61 1.499 . S
C976 C113 1.501 . S
C957 C67 1.504 . S
C993 C41 1.506 . S
C1012 C127 1.496 . S
