# Generated by pormake.
# Topology zzz, (3,6)-cn, num edge types: 1
# Building blocks:
#     Node 0, Type 0, BuildingBlock: VETTIZ_charged_linker_0, # of connection points: 3
#     Node 1, Type 0, BuildingBlock: VETTIZ_charged_linker_0, # of connection points: 3
#     Node 2, Type 0, BuildingBlock: VETTIZ_charged_linker_0, # of connection points: 3
#     Node 3, Type 0, BuildingBlock: VETTIZ_charged_linker_0, # of connection points: 3
#     Node 4, Type 0, BuildingBlock: VETTIZ_charged_linker_0, # of connection points: 3
#     Node 5, Type 0, BuildingBlock: VETTIZ_charged_linker_0, # of connection points: 3
#     Node 6, Type 0, BuildingBlock: VETTIZ_charged_linker_0, # of connection points: 3
#     Node 7, Type 0, BuildingBlock: VETTIZ_charged_linker_0, # of connection points: 3
#     Node 8, Type 1, BuildingBlock: BETDIP_clean_sbu_0, # of connection points: 6
#     Node 9, Type 1, BuildingBlock: BETDIP_clean_sbu_0, # of connection points: 6
#     Node 10, Type 1, BuildingBlock: BETDIP_clean_sbu_0, # of connection points: 6
#     Node 11, Type 1, BuildingBlock: BETDIP_clean_sbu_0, # of connection points: 6
#     Edge 12, Type (0, 1), BuildingBlock: CIFDUS_clean_linker_0, # of connection points: 2
#     Edge 13, Type (0, 1), BuildingBlock: CIFDUS_clean_linker_0, # of connection points: 2
#     Edge 14, Type (0, 1), BuildingBlock: CIFDUS_clean_linker_0, # of connection points: 2
#     Edge 15, Type (0, 1), BuildingBlock: CIFDUS_clean_linker_0, # of connection points: 2
#     Edge 16, Type (0, 1), BuildingBlock: CIFDUS_clean_linker_0, # of connection points: 2
#     Edge 17, Type (0, 1), BuildingBlock: CIFDUS_clean_linker_0, # of connection points: 2
#     Edge 18, Type (0, 1), BuildingBlock: CIFDUS_clean_linker_0, # of connection points: 2
#     Edge 19, Type (0, 1), BuildingBlock: CIFDUS_clean_linker_0, # of connection points: 2
#     Edge 20, Type (0, 1), BuildingBlock: CIFDUS_clean_linker_0, # of connection points: 2
#     Edge 21, Type (0, 1), BuildingBlock: CIFDUS_clean_linker_0, # of connection points: 2
#     Edge 22, Type (0, 1), BuildingBlock: CIFDUS_clean_linker_0, # of connection points: 2
#     Edge 23, Type (0, 1), BuildingBlock: CIFDUS_clean_linker_0, # of connection points: 2
#     Edge 24, Type (0, 1), BuildingBlock: CIFDUS_clean_linker_0, # of connection points: 2
#     Edge 25, Type (0, 1), BuildingBlock: CIFDUS_clean_linker_0, # of connection points: 2
#     Edge 26, Type (0, 1), BuildingBlock: CIFDUS_clean_linker_0, # of connection points: 2
#     Edge 27, Type (0, 1), BuildingBlock: CIFDUS_clean_linker_0, # of connection points: 2
#     Edge 28, Type (0, 1), BuildingBlock: CIFDUS_clean_linker_0, # of connection points: 2
#     Edge 29, Type (0, 1), BuildingBlock: CIFDUS_clean_linker_0, # of connection points: 2
#     Edge 30, Type (0, 1), BuildingBlock: CIFDUS_clean_linker_0, # of connection points: 2
#     Edge 31, Type (0, 1), BuildingBlock: CIFDUS_clean_linker_0, # of connection points: 2
#     Edge 32, Type (0, 1), BuildingBlock: CIFDUS_clean_linker_0, # of connection points: 2
#     Edge 33, Type (0, 1), BuildingBlock: CIFDUS_clean_linker_0, # of connection points: 2
#     Edge 34, Type (0, 1), BuildingBlock: CIFDUS_clean_linker_0, # of connection points: 2
#     Edge 35, Type (0, 1), BuildingBlock: CIFDUS_clean_linker_0, # of connection points: 2
# Relax obj value: 0.471
# Max RMSD: 0.265
# Mean RMSD: 0.245
data_MOF--net-zzz--node1-BETDIP_clean_sbu_0--node2-VETTIZ_charged_linker_0--edge1-CIFDUS_clean_linker_0
_symmetry_space_group_name_H-M    P1
_symmetry_Int_Tables_number       1
_symmetry_cell_setting            triclinic
loop_
_symmetry_equiv_pos_as_xyz
'x, y, z'
_cell_length_a     52.517172
_cell_length_b     52.571375
_cell_length_c     16.632779
_cell_angle_alpha  89.737786
_cell_angle_beta   89.783384
_cell_angle_gamma 90.059186
loop_
_atom_site_label
_atom_site_type_symbol
_atom_site_fract_x
_atom_site_fract_y
_atom_site_fract_z
_atom_type_partial_charge
C0 C 0.81847 0.51079 0.40102 0.0
C1 C 0.83678 0.49694 0.44707 0.0
C2 C 0.83421 0.47027 0.45188 0.0
C3 C 0.80072 0.47107 0.35332 0.0
C4 C 0.79981 0.49718 0.35643 0.0
C5 C 0.77666 0.50676 0.3095 0.0
H6 H 0.68095 0.47247 0.04323 0.0
C7 C 0.78266 0.46191 0.29318 0.0
C8 C 0.76699 0.48224 0.2692 0.0
H9 H 0.68872 0.54585 0.15479 0.0
H10 H 0.72724 0.53128 0.22436 0.0
H11 H 0.73489 0.4723 0.99265 0.0
H12 H 0.69752 0.43385 0.18656 0.0
H13 H 0.71747 0.41203 0.13543 0.0
H14 H 0.69286 0.42836 0.081 0.0
H15 H 0.72427 0.44027 0.98147 0.0
H16 H 0.75608 0.4476 0.01562 0.0
C17 C 0.78512 0.5268 0.24719 0.0
C18 C 0.75723 0.51724 0.37051 0.0
C19 C 0.81176 0.38639 0.13309 0.0
C20 C 0.80508 0.37873 0.05522 0.0
C21 C 0.78073 0.38503 0.02602 0.0
C22 C 0.76476 0.40133 0.06983 0.0
C23 C 0.77376 0.4123 0.14139 0.0
C24 C 0.79642 0.4039 0.17368 0.0
C25 C 0.80418 0.41873 0.24672 0.0
C26 C 0.78331 0.43897 0.24869 0.0
C27 C 0.7657 0.43508 0.18699 0.0
C28 C 0.83091 0.43041 0.23101 0.0
C29 C 0.80344 0.40059 0.32065 0.0
C30 C 0.69035 0.48519 0.08477 0.0
C31 C 0.68115 0.50992 0.09586 0.0
C32 C 0.69503 0.52642 0.14669 0.0
C33 C 0.71719 0.51792 0.18753 0.0
C34 C 0.72584 0.4928 0.17644 0.0
C35 C 0.71258 0.47726 0.12397 0.0
C36 C 0.72592 0.45262 0.10879 0.0
C37 C 0.74739 0.45411 0.16911 0.0
C38 C 0.7479 0.47784 0.2088 0.0
C39 C 0.73574 0.453 0.02029 0.0
C40 C 0.70751 0.43042 0.12852 0.0
H41 H 0.8146 0.43729 0.41342 0.0
H42 H 0.8188 0.53137 0.39973 0.0
H43 H 0.75391 0.50326 0.41985 0.0
H44 H 0.73853 0.52102 0.3432 0.0
H45 H 0.76434 0.53515 0.3977 0.0
H46 H 0.80053 0.51907 0.20836 0.0
H47 H 0.79244 0.54412 0.27745 0.0
H48 H 0.76926 0.53251 0.20756 0.0
H49 H 0.83025 0.38162 0.15731 0.0
H50 H 0.77496 0.37899 0.96663 0.0
H51 H 0.74671 0.40599 0.04387 0.0
H52 H 0.83096 0.44173 0.17433 0.0
H53 H 0.84565 0.41539 0.22598 0.0
H54 H 0.83736 0.44303 0.2794 0.0
H55 H 0.78848 0.40631 0.3644 0.0
H56 H 0.82209 0.4 0.35184 0.0
H57 H 0.7991 0.38057 0.30412 0.0
H58 H 0.84714 0.45897 0.48788 0.0
C59 C 0.81596 0.45747 0.40688 0.0
C60 C 0.11492 0.78297 0.99295 0.0
C61 C 0.11655 0.8084 0.96748 0.0
C62 C 0.09936 0.82647 0.99825 0.0
C63 C 0.0808 0.79467 0.08486 0.0
C64 C 0.09632 0.7764 0.05076 0.0
C65 C 0.09057 0.75023 0.08375 0.0
H66 H 0.98965 0.68352 0.16769 0.0
C67 C 0.06467 0.78248 0.14611 0.0
C68 C 0.06933 0.75629 0.14433 0.0
H69 H 0.0636 0.65735 0.08595 0.0
H70 H 0.0829 0.69571 0.13738 0.0
H71 H 0.0204 0.71807 0.35822 0.0
H72 H 0.99313 0.74766 0.12914 0.0
H73 H 0.98041 0.75915 0.22291 0.0
H74 H 0.97205 0.72786 0.18823 0.0
H75 H 0.99153 0.70452 0.31867 0.0
H76 H 0.99147 0.73667 0.35181 0.0
C77 C 0.11465 0.74023 0.12645 0.0
C78 C 0.08178 0.73299 0.01343 0.0
C79 C 0.0176 0.83842 0.34105 0.0
C80 C 1.00835 0.83376 0.41892 0.0
C81 C 1.00541 0.80806 0.44383 0.0
C82 C 1.01118 0.78765 0.39071 0.0
C83 C 0.01982 0.79298 0.31212 0.0
C84 C 0.02424 0.81812 0.29089 0.0
C85 C 0.0411 0.82051 0.21822 0.0
C86 C 0.04707 0.79281 0.2017 0.0
C87 C 0.0328 0.7766 0.25152 0.0
C88 C 0.06522 0.83582 0.24252 0.0
C89 C 0.02527 0.83269 0.14948 0.0
C90 C 1.00996 0.68617 0.16016 0.0
C91 C 0.02485 0.66761 0.11892 0.0
C92 C 0.05144 0.67128 0.11463 0.0
C93 C 0.06262 0.69377 0.14164 0.0
C94 C 0.04719 0.71311 0.17178 0.0
C95 C 0.02196 0.70854 0.18943 0.0
C96 C 1.01079 0.73091 0.23631 0.0
C97 C 0.03323 0.7498 0.23637 0.0
C98 C 0.0532 0.73971 0.18937 0.0
C99 C 1.00324 0.72211 0.32137 0.0
C100 C 0.98773 0.74203 0.19144 0.0
H101 H 0.06938 0.83455 0.07828 0.0
H102 H 0.12772 0.76875 0.9689 0.0
H103 H 0.06068 0.73243 1.00895 0.0
H104 H 0.08915 0.71336 0.01902 0.0
H105 H 0.08906 0.73976 0.95426 0.0
H106 H 0.12322 0.75529 0.16457 0.0
H107 H 0.12918 0.73412 0.08183 0.0
H108 H 0.11043 0.72409 0.16715 0.0
H109 H 0.02155 0.85772 0.32151 0.0
H110 H 0.9992 0.80381 0.50456 0.0
H111 H 1.01062 0.7684 0.41325 0.0
H112 H 0.07139 0.83057 0.30434 0.0
H113 H 0.06144 0.8566 0.24169 0.0
H114 H 0.082 0.83207 0.20457 0.0
H115 H 1.0045 0.82927 0.15782 0.0
H116 H 0.02972 0.82432 0.09005 0.0
H117 H 0.02817 0.8536 0.14653 0.0
H118 H 0.10023 0.84613 0.97837 0.0
C119 C 0.08152 0.81975 0.05643 0.0
C120 C 0.85137 0.98802 0.19729 0.0
C121 C 0.86909 0.97587 0.14408 0.0
C122 C 0.86291 0.95138 0.11524 0.0
C123 C 0.82083 0.95493 0.17031 0.0
C124 C 0.82729 0.97634 0.212 0.0
C125 C 0.80557 0.98295 0.27053 0.0
H126 H 0.6777 0.96008 0.35803 0.0
C127 C 0.79407 0.94939 0.18174 0.0
C128 C 0.78449 0.96405 0.24529 0.0
H129 H 0.72815 1.00625 0.50097 0.0
H130 H 0.76314 0.99707 0.40747 0.0
H131 H 0.68664 0.97696 0.2122 0.0
H132 H 0.71636 0.91301 0.32501 0.0
H133 H 0.71035 0.90516 0.22347 0.0
H134 H 0.68532 0.9189 0.28361 0.0
H135 H 0.68021 0.94726 0.16745 0.0
H136 H 0.706 0.9671 0.13122 0.0
C137 C 0.79731 1.01074 0.25835 0.0
C138 C 0.81494 0.97765 0.35658 0.0
C139 C 0.74532 0.93575 0.92819 0.0
C140 C 0.71891 0.93467 0.91611 0.0
C141 C 0.70325 0.9252 0.97851 0.0
C142 C 0.71308 0.92188 0.05596 0.0
C143 C 0.73847 0.92852 0.07034 0.0
C144 C 0.75477 0.93265 1.00634 0.0
C145 C 0.78157 0.93744 0.0336 0.0
C146 C 0.77756 0.93838 0.12511 0.0
C147 C 0.75189 0.93519 0.14498 0.0
C148 C 0.79109 0.96322 0.99935 0.0
C149 C 0.79832 0.91507 1.00479 0.0
C150 C 0.69631 0.96776 0.37176 0.0
C151 C 0.69985 0.9834 0.43915 0.0
C152 C 0.72453 0.99392 0.45035 0.0
C153 C 0.74498 0.98837 0.39671 0.0
C154 C 0.74092 0.97211 0.33081 0.0
C155 C 0.71664 0.96246 0.31943 0.0
C156 C 0.7146 0.94653 0.2453 0.0
C157 C 0.74204 0.94656 0.21618 0.0
C158 C 0.75783 0.96174 0.26563 0.0
C159 C 0.69601 0.95996 0.18579 0.0
C160 C 0.70606 0.91943 0.27023 0.0
H161 H 0.83515 0.92157 0.11073 0.0
H162 H 0.85601 1.00599 0.22512 0.0
H163 H 0.82277 0.95806 0.36135 0.0
H164 H 0.79953 0.97913 0.40142 0.0
H165 H 0.83025 0.99125 0.37311 0.0
H166 H 0.79189 0.01413 0.19464 0.0
H167 H 0.81308 0.02394 0.27368 0.0
H168 H 0.78071 0.01548 0.29654 0.0
H169 H 0.7577 0.94217 0.88002 0.0
H170 H 0.68286 0.92352 0.97019 0.0
H171 H 0.70033 0.91596 0.10292 0.0
H172 H 0.77826 0.97895 0.01806 0.0
H173 H 0.792 0.96288 0.93268 0.0
H174 H 0.81057 0.96776 0.01992 0.0
H175 H 0.79141 0.90719 0.94688 0.0
H176 H 0.79837 0.8993 0.04953 0.0
H177 H 0.81811 0.92124 0.99204 0.0
H178 H 0.87598 0.94085 0.07752 0.0
C179 C 0.83908 0.94068 0.13004 0.0
C180 C 0.51615 0.70952 0.41029 0.0
C181 C 0.50325 0.69371 0.46768 0.0
C182 C 0.47778 0.69976 0.4875 0.0
C183 C 0.4764 0.73047 0.38029 0.0
C184 C 0.5022 0.72878 0.3692 0.0
C185 C 0.51094 0.75011 0.31221 0.0
H186 H 0.46902 0.84137 0.0384 0.0
C187 C 0.46556 0.74737 0.32003 0.0
C188 C 0.48532 0.76092 0.28218 0.0
H189 H 0.54636 0.8325 0.11943 0.0
H190 H 0.53341 0.79637 0.20428 0.0
H191 H 0.46352 0.78811 1.00083 0.0
H192 H 0.43616 0.82961 0.20177 0.0
H193 H 0.41158 0.80973 0.16437 0.0
H194 H 0.42657 0.83249 0.09841 0.0
H195 H 0.43089 0.79709 1.00593 0.0
H196 H 0.44159 0.76655 0.04291 0.0
C197 C 0.52693 0.73899 0.2432 0.0
C198 C 0.52578 0.76971 0.36224 0.0
C199 C 0.38799 0.71247 0.186 0.0
C200 C 0.37801 0.71772 0.10932 0.0
C201 C 0.38107 0.74256 0.07801 0.0
C202 C 0.39748 0.75996 0.11552 0.0
C203 C 0.41136 0.75214 0.18335 0.0
C204 C 0.40527 0.72941 0.2205 0.0
C205 C 0.42245 0.72341 0.2901 0.0
C206 C 0.44127 0.7456 0.28407 0.0
C207 C 0.43511 0.7618 0.22001 0.0
C208 C 0.43556 0.6974 0.27512 0.0
C209 C 0.40629 0.72339 0.36824 0.0
C210 C 0.48308 0.83228 0.07638 0.0
C211 C 0.50848 0.84049 0.07443 0.0
C212 C 0.5265 0.82698 0.12127 0.0
C213 C 0.51897 0.80626 0.1711 0.0
C214 C 0.49323 0.7987 0.17334 0.0
C215 C 0.47603 0.8114 0.12448 0.0
C216 C 0.45036 0.79894 0.12412 0.0
C217 C 0.45371 0.77899 0.18935 0.0
C218 C 0.479 0.7784 0.21836 0.0
C219 C 0.44619 0.78711 0.03945 0.0
C220 C 0.42994 0.81872 0.1481 0.0
H221 H 0.4456 0.72339 0.46355 0.0
H222 H 0.53618 0.70675 0.39758 0.0
H223 H 0.51461 0.7753 0.41629 0.0
H224 H 0.52978 0.78734 0.32848 0.0
H225 H 0.54416 0.76157 0.38289 0.0
H226 H 0.51613 0.72379 0.21193 0.0
H227 H 0.5449 0.73064 0.26649 0.0
H228 H 0.53193 0.75372 0.19812 0.0
H229 H 0.38543 0.69403 0.21375 0.0
H230 H 0.37264 0.74775 0.02094 0.0
H231 H 0.40001 0.77821 0.08764 0.0
H232 H 0.446 0.69759 0.2168 0.0
H233 H 0.42149 0.68165 0.27419 0.0
H234 H 0.44923 0.69231 0.32268 0.0
H235 H 0.38567 0.72051 0.35614 0.0
H236 H 0.40815 0.74169 0.40091 0.0
H237 H 0.41163 0.70747 0.4088 0.0
H238 H 0.46748 0.68914 0.53312 0.0
C239 C 0.46459 0.71853 0.44536 0.0
C240 C 0.34334 0.51782 0.3225 0.0
C241 C 0.36466 0.53057 0.35691 0.0
C242 C 0.36816 0.55665 0.33936 0.0
C243 C 0.32748 0.55807 0.27327 0.0
C244 C 0.32533 0.53208 0.27755 0.0
C245 C 0.30263 0.52323 0.22724 0.0
H246 H 0.19856 0.56319 1.00328 0.0
C247 C 0.3055 0.56853 0.23195 0.0
C248 C 0.29134 0.54869 0.19792 0.0
H249 H 0.21965 0.48517 0.04795 0.0
H250 H 0.25696 0.49946 0.1235 0.0
H251 H 0.19744 0.58094 0.14256 0.0
H252 H 0.25541 0.58883 0.97703 0.0
H253 H 0.25271 0.61759 0.03142 0.0
H254 H 0.22475 0.60379 0.98669 0.0
H255 H 0.20735 0.61232 0.12351 0.0
H256 H 0.21877 0.59505 0.21083 0.0
C257 C 0.28392 0.50858 0.28183 0.0
C258 C 0.31269 0.5071 0.15696 0.0
C259 C 0.26039 0.64247 0.35382 0.0
C260 C 0.23687 0.6533 0.33094 0.0
C261 C 0.23101 0.65417 0.24798 0.0
C262 C 0.24504 0.63971 0.19311 0.0
C263 C 0.26407 0.62367 0.22232 0.0
C264 C 0.27364 0.62734 0.29827 0.0
C265 C 0.29592 0.61003 0.31437 0.0
C266 C 0.29507 0.59311 0.23927 0.0
C267 C 0.27465 0.59995 0.18999 0.0
C268 C 0.29134 0.59454 0.39236 0.0
C269 C 0.32012 0.62656 0.32064 0.0
C270 C 0.21149 0.549 0.02705 0.0
C271 C 0.20623 0.52306 0.01757 0.0
C272 C 0.22319 0.50538 0.05348 0.0
C273 C 0.24488 0.51366 0.09717 0.0
C274 C 0.24943 0.5399 0.10694 0.0
C275 C 0.2324 0.5569 0.07287 0.0
C276 C 0.23754 0.58388 0.09606 0.0
C277 C 0.26164 0.58082 0.14566 0.0
C278 C 0.26897 0.55497 0.15208 0.0
C279 C 0.2143 0.59368 0.14578 0.0
C280 C 0.24277 0.59951 0.01877 0.0
H281 H 0.35352 0.58976 0.27959 0.0
H282 H 0.34082 0.49753 0.3308 0.0
H283 H 0.32811 0.51741 0.12437 0.0
H284 H 0.29775 0.50289 0.11254 0.0
H285 H 0.32056 0.48879 0.17939 0.0
H286 H 0.27898 0.52011 0.33556 0.0
H287 H 0.2925 0.49043 0.30282 0.0
H288 H 0.26594 0.50415 0.25074 0.0
H289 H 0.26664 0.64324 0.41565 0.0
H290 H 0.21394 0.66335 0.22616 0.0
H291 H 0.23941 0.63979 0.13116 0.0
H292 H 0.27328 0.58355 0.38855 0.0
H293 H 0.29032 0.60718 0.44555 0.0
H294 H 0.30711 0.58099 0.40351 0.0
H295 H 0.31608 0.64465 0.35264 0.0
H296 H 0.32771 0.63148 0.26014 0.0
H297 H 0.33506 0.6171 0.35678 0.0
H298 H 0.38469 0.56676 0.36135 0.0
C299 C 0.34983 0.5703 0.29634 0.0
C300 C 1.01069 0.22885 0.59515 0.0
C301 C 1.00899 0.20268 0.61013 0.0
C302 C 0.02326 0.18562 0.56284 0.0
C303 C 0.03565 0.22016 0.47558 0.0
C304 C 0.02492 0.23723 0.52863 0.0
C305 C 0.02966 0.26421 0.50302 0.0
H306 H 0.02526 0.35255 0.24741 0.0
C307 C 0.0439 0.23408 0.40331 0.0
C308 C 0.04296 0.25986 0.42183 0.0
H309 H 0.06269 0.35563 0.47971 0.0
H310 H 0.0699 0.30996 0.47309 0.0
H311 H 0.07429 0.30305 0.1931 0.0
H312 H 0.99391 0.29315 0.25071 0.0
H313 H 1.00491 0.28062 0.15669 0.0
H314 H 1.00335 0.31446 0.17078 0.0
H315 H 0.05055 0.31994 0.13619 0.0
H316 H 0.05542 0.28651 0.12121 0.0
C317 C 0.04644 0.27705 0.56728 0.0
C318 C 1.00404 0.27826 0.49289 0.0
C319 C 0.03837 0.18461 0.14403 0.0
C320 C 0.03389 0.1905 0.06286 0.0
C321 C 0.03164 0.21669 0.04212 0.0
C322 C 0.03347 0.23613 0.10141 0.0
C323 C 0.03771 0.22949 0.18252 0.0
C324 C 0.03965 0.20389 0.20191 0.0
C325 C 0.04267 0.19924 0.29021 0.0
C326 C 0.04322 0.22629 0.32153 0.0
C327 C 0.04065 0.2445 0.25877 0.0
C328 C 0.06849 0.18585 0.30446 0.0
C329 C 0.01933 0.1836 0.32117 0.0
C330 C 0.03395 0.3433 0.29866 0.0
C331 C 0.04179 0.35778 0.36712 0.0
C332 C 0.05518 0.34521 0.42896 0.0
C333 C 0.05821 0.31897 0.42822 0.0
C334 C 0.04672 0.30499 0.36771 0.0
C335 C 0.03782 0.31641 0.29924 0.0
C336 C 0.03511 0.2961 0.23316 0.0
C337 C 0.04127 0.2712 0.27929 0.0
C338 C 0.04584 0.27773 0.35949 0.0
C339 C 0.05489 0.30164 0.16691 0.0
C340 C 1.00775 0.29606 0.20075 0.0
H341 H 0.04724 0.18079 0.46059 0.0
H342 H 1.00037 0.24223 0.63232 0.0
H343 H 0.9918 0.26839 0.44842 0.0
H344 H 1.00706 0.29809 0.47184 0.0
H345 H 0.99358 0.27927 0.55095 0.0
H346 H 0.04121 0.27063 0.62894 0.0
H347 H 0.04363 0.29793 0.56816 0.0
H348 H 0.06689 0.2725 0.55775 0.0
H349 H 0.04085 0.16508 0.16326 0.0
H350 H 0.02802 0.22214 0.98039 0.0
H351 H 0.0311 0.2556 0.08294 0.0
H352 H 0.08372 0.19465 0.26684 0.0
H353 H 0.06733 0.16535 0.28888 0.0
H354 H 0.07495 0.18757 0.36739 0.0
H355 H 1.00627 0.19534 0.35827 0.0
H356 H 0.02522 0.16666 0.35638 0.0
H357 H 1.00743 0.17599 0.27165 0.0
H358 H 0.02246 0.16534 0.5747 0.0
C359 C 0.03681 0.19433 0.49565 0.0
C360 C 0.313 0.02724 0.05242 0.0
C361 C 0.32924 0.03985 0.99549 0.0
C362 C 0.3232 0.06515 0.97332 0.0
C363 C 0.29191 0.06698 0.07876 0.0
C364 C 0.29326 0.04126 0.09073 0.0
C365 C 0.27289 0.03328 0.15221 0.0
H366 H 0.19068 0.0752 0.44704 0.0
C367 C 0.2766 0.07834 0.14196 0.0
C368 C 0.26129 0.05925 0.17631 0.0
H369 H 0.16971 0.01667 0.27804 0.0
H370 H 0.20875 0.02564 0.20007 0.0
H371 H 0.24688 0.06612 0.46503 0.0
H372 H 0.2045 0.11471 0.31076 0.0
H373 H 0.23075 0.13217 0.34733 0.0
H374 H 0.20854 0.11819 0.4174 0.0
H375 H 0.24281 0.09891 0.48934 0.0
H376 H 0.27014 0.08809 0.4331 0.0
C377 C 0.2855 0.02026 0.22492 0.0
C378 C 0.2536 0.01544 0.11199 0.0
C379 C 0.32878 0.13991 0.30158 0.0
C380 C 0.32812 0.14412 0.38527 0.0
C381 C 0.30391 0.14424 0.42279 0.0
C382 C 0.28266 0.134 0.38345 0.0
C383 C 0.28569 0.1238 0.30605 0.0
C384 C 0.30799 0.1283 0.26429 0.0
C385 C 0.30926 0.1139 0.1863 0.0
C386 C 0.28384 0.09957 0.18913 0.0
C387 C 0.27088 0.10465 0.26122 0.0
C388 C 0.33247 0.09559 0.18949 0.0
C389 C 0.31132 0.13309 0.11587 0.0
C390 C 0.19442 0.06367 0.39454 0.0
C391 C 0.17689 0.04501 0.36999 0.0
C392 C 0.18303 0.03066 0.30037 0.0
C393 C 0.20582 0.0353 0.25619 0.0
C394 C 0.2231 0.0538 0.28317 0.0
C395 C 0.21666 0.06819 0.34975 0.0
C396 C 0.23445 0.09023 0.36173 0.0
C397 C 0.25128 0.08798 0.28777 0.0
C398 C 0.24592 0.06563 0.24471 0.0
C399 C 0.24931 0.0858 0.44128 0.0
C400 C 0.21885 0.11524 0.35976 0.0
H401 H 0.3001 0.09806 0.99769 0.0
H402 H 0.31609 1.00746 0.0679 0.0
H403 H 0.24076 0.02622 0.07124 0.0
H404 H 0.24212 1.00508 0.15755 0.0
H405 H 0.26359 1.0007 0.07606 0.0
H406 H 0.30011 0.03291 0.25193 0.0
H407 H 0.29487 1.00224 0.20665 0.0
H408 H 0.27104 0.01575 0.27183 0.0
H409 H 0.34624 0.14145 0.26772 0.0
H410 H 0.30183 0.14964 0.48515 0.0
H411 H 0.26526 0.13252 0.41711 0.0
H412 H 0.33059 0.08207 0.2408 0.0
H413 H 0.35065 0.10612 0.19605 0.0
H414 H 0.3349 0.08442 0.13417 0.0
H415 H 0.32148 0.15071 0.13403 0.0
H416 H 0.29219 0.13873 0.09376 0.0
H417 H 0.32265 0.12535 0.06534 0.0
H418 H 0.33431 0.07519 0.92827 0.0
C419 C 0.3043 0.07867 0.01429 0.0
C420 C 0.49809 0.30289 0.04041 0.0
C421 C 0.48471 0.32321 1.00192 0.0
C422 C 0.45784 0.32301 1.00472 0.0
C423 C 0.45872 0.28886 0.10136 0.0
C424 C 0.48415 0.285 0.08765 0.0
C425 C 0.49219 0.25989 0.12722 0.0
H426 H 0.46366 0.17684 0.4384 0.0
C427 C 0.4501 0.27222 0.16622 0.0
C428 C 0.4687 0.25344 0.17965 0.0
H429 H 0.52079 0.16318 0.25556 0.0
H430 H 0.50948 0.20342 0.19108 0.0
H431 H 0.47298 0.22778 0.4686 0.0
H432 H 0.41882 0.19253 0.3188 0.0
H433 H 0.40306 0.21772 0.36811 0.0
H434 H 0.41892 0.19359 0.42671 0.0
H435 H 0.44072 0.22591 0.50077 0.0
H436 H 0.45296 0.25379 0.44948 0.0
C437 C 0.5163 0.26363 0.17793 0.0
C438 C 0.49606 0.24035 0.05951 0.0
C439 C 0.40158 0.31813 0.38062 0.0
C440 C 0.40091 0.31237 0.46309 0.0
C441 C 0.40033 0.28668 0.48702 0.0
C442 C 0.40557 0.26753 0.43103 0.0
C443 C 0.41273 0.27447 0.35235 0.0
C444 C 0.40892 0.29916 0.32645 0.0
C445 C 0.41944 0.30378 0.24329 0.0
C446 C 0.43182 0.27794 0.22626 0.0
C447 C 0.42872 0.26144 0.29189 0.0
C448 C 0.43941 0.32555 0.24703 0.0
C449 C 0.39708 0.31024 0.18632 0.0
C450 C 0.47334 0.18137 0.38267 0.0
C451 C 0.49274 0.16568 0.35211 0.0
C452 C 0.50561 0.17435 0.28165 0.0
C453 C 0.4988 0.19757 0.24301 0.0
C454 C 0.47855 0.21221 0.27358 0.0
C455 C 0.46628 0.20366 0.34231 0.0
C456 C 0.44531 0.22091 0.36881 0.0
C457 C 0.44517 0.24018 0.30079 0.0
C458 C 0.46521 0.23587 0.2455 0.0
C459 C 0.45317 0.2327 0.45098 0.0
C460 C 0.42013 0.20547 0.3714 0.0
H461 H 0.42434 0.30538 0.05345 0.0
H462 H 0.51856 0.30133 0.03472 0.0
H463 H 0.47917 0.23987 0.0194 0.0
H464 H 0.49867 0.22088 0.08246 0.0
H465 H 0.51296 0.24545 0.02234 0.0
H466 H 0.51311 0.27855 0.22403 0.0
H467 H 0.53261 0.26955 0.13939 0.0
H468 H 0.52165 0.24581 0.20931 0.0
H469 H 0.40125 0.33778 0.36095 0.0
H470 H 0.39912 0.28172 0.55021 0.0
H471 H 0.40627 0.24836 0.45291 0.0
H472 H 0.45453 0.32097 0.29142 0.0
H473 H 0.43045 0.34384 0.26427 0.0
H474 H 0.44871 0.32927 0.18866 0.0
H475 H 0.38022 0.31752 0.21964 0.0
H476 H 0.3908 0.29324 0.15218 0.0
H477 H 0.40221 0.32567 0.14352 0.0
H478 H 0.44693 0.33733 0.97296 0.0
C479 C 0.44479 0.30555 0.05327 0.0
Tb480 Tb 0.04301 0.99799 0.81035 0.0
Tb481 Tb 1.00542 0.01676 0.70961 0.0
C482 C 0.07642 0.98727 0.91307 0.0
C483 C 0.09913 0.97095 0.91056 0.0
C484 C 0.10655 0.95781 0.97988 0.0
C485 C 0.12571 0.93947 0.97579 0.0
C486 C 0.13768 0.93384 0.902 0.0
C487 C 0.13142 0.94834 0.83379 0.0
C488 C 0.11233 0.96679 0.83807 0.0
C489 C 0.06075 1.00398 0.66104 0.0
C490 C 0.01869 0.9577 0.70118 0.0
C491 C 0.9732 0.02924 0.60521 0.0
C492 C 0.95274 0.04828 0.60986 0.0
C493 C 0.94991 0.06583 0.54708 0.0
C494 C 0.93722 0.08873 0.56065 0.0
C495 C 0.92766 0.09448 0.63772 0.0
C496 C 0.9272 0.07529 0.69659 0.0
C497 C 0.93964 0.05228 0.6827 0.0
C498 C 0.98718 1.00869 0.85785 0.0
C499 C 0.027 0.05605 0.82723 0.0
O500 O 0.05453 0.97548 0.90852 0.0
O501 O 0.07719 1.00749 0.86731 0.0
O502 O 0.04642 0.01956 0.69797 0.0
O503 O 0.06499 0.98499 0.70793 0.0
O504 O 0.02964 0.96063 0.77185 0.0
O505 O 1.01118 0.97806 0.66068 0.0
O506 O 0.9963 0.03855 0.60747 0.0
O507 O 0.97068 1.00947 0.6522 0.0
O508 O 1.00239 0.99438 0.81976 0.0
O509 O 0.98179 0.02777 0.81224 0.0
O510 O 0.01739 0.05415 0.75441 0.0
O511 O 0.03426 0.03515 0.86508 0.0
H512 H 0.09665 0.96081 0.03632 0.0
H513 H 0.12969 0.92836 0.02927 0.0
H514 H 0.14032 0.94447 0.77628 0.0
H515 H 0.1072 0.977 0.7839 0.0
H516 H 0.95968 0.06301 0.49031 0.0
H517 H 0.93798 0.10316 0.51399 0.0
H518 H 0.91985 0.07919 0.75623 0.0
H519 H 0.941 0.03874 0.73168 0.0
Tb520 Tb 0.52306 0.01967 0.78409 0.0
Tb521 Tb 0.50311 0.99155 0.65143 0.0
C522 C 0.54981 0.03608 0.89662 0.0
C523 C 0.5766 0.04382 0.89071 0.0
C524 C 0.59349 0.03691 0.95185 0.0
C525 C 0.61955 0.03552 0.93554 0.0
C526 C 0.62877 0.04078 0.85779 0.0
C527 C 0.6123 0.05066 0.79974 0.0
C528 C 0.58629 0.05229 0.81617 0.0
C529 C 0.5081 0.04926 0.6645 0.0
C530 C 0.56206 0.9949 0.65457 0.0
C531 C 0.47808 0.98439 0.52631 0.0
C532 C 0.4624 1.0042 0.48665 0.0
C533 C 0.47428 0.02424 0.44424 0.0
C534 C 0.461 0.04651 0.42641 0.0
C535 C 0.43543 0.04927 0.44988 0.0
C536 C 0.42293 0.02828 0.48543 0.0
C537 C 0.43629 1.00605 0.5039 0.0
C538 C 0.51501 0.96131 0.77524 0.0
C539 C 0.46492 0.01486 0.78061 0.0
O540 O 0.54604 1.01179 0.88395 0.0
O541 O 0.53362 0.05029 0.85739 0.0
O542 O 0.52015 0.02854 0.65763 0.0
O543 O 0.5046 0.05411 0.73979 0.0
O544 O 0.55891 1.00792 0.72202 0.0
O545 O 0.54231 0.98659 0.61405 0.0
O546 O 0.50256 0.98875 0.52593 0.0
O547 O 0.4702 0.9766 0.59704 0.0
O548 O 0.50509 0.98315 0.77801 0.0
O549 O 0.5163 0.95484 0.70017 0.0
O550 O 0.46941 1.01098 0.70317 0.0
O551 O 0.48428 0.01501 0.83117 0.0
H552 H 0.58638 0.03014 1.00933 0.0
H553 H 0.63205 0.02757 0.98082 0.0
H554 H 0.61921 0.05486 0.73972 0.0
H555 H 0.57357 0.05765 0.76785 0.0
H556 H 0.49436 0.02353 0.4294 0.0
H557 H 0.47134 0.06205 0.39857 0.0
H558 H 0.40295 0.02923 0.50135 0.0
H559 H 0.42652 0.99089 0.53584 0.0
Tb560 Tb 0.49904 0.51723 0.82449 0.0
Tb561 Tb 0.53321 0.50248 0.682 0.0
C562 C 0.48124 0.53428 0.95303 0.0
C563 C 0.45988 0.55167 0.96751 0.0
C564 C 0.44656 0.56213 0.9023 0.0
C565 C 0.42617 0.57863 0.91534 0.0
C566 C 0.41888 0.58527 0.99395 0.0
C567 C 0.43201 0.57426 0.05919 0.0
C568 C 0.45229 0.55753 0.04599 0.0
C569 C 0.47082 0.51 0.69168 0.0
C570 C 0.5183 0.55965 0.69566 0.0
C571 C 0.54934 0.47722 0.56669 0.0
C572 C 0.53956 0.4516 0.54647 0.0
C573 C 0.51972 0.44924 0.49059 0.0
C574 C 0.5041 0.42774 0.49131 0.0
C575 C 0.5081 0.40811 0.54761 0.0
C576 C 0.52962 0.40922 0.59729 0.0
C577 C 0.54528 0.43068 0.59645 0.0
C578 C 0.55784 0.51772 0.81344 0.0
C579 C 0.51031 0.45979 0.80091 0.0
O580 O 0.50112 0.5443 0.9164 0.0
O581 O 0.47471 0.5122 0.92305 0.0
O582 O 0.49438 0.50836 0.70214 0.0
O583 O 0.4616 0.51535 0.76163 0.0
O584 O 0.51006 0.55419 0.7698 0.0
O585 O 0.52639 0.54173 0.64597 0.0
O586 O 0.53289 0.49581 0.55778 0.0
O587 O 0.56173 0.4789 0.6348 0.0
O588 O 0.53776 0.5044 0.81047 0.0
O589 O 0.56507 0.52221 0.73991 0.0
O590 O 0.51684 0.46607 0.72624 0.0
O591 O 0.5062 0.47746 0.85561 0.0
H592 H 0.45212 0.55777 0.84117 0.0
H593 H 0.41637 0.58651 0.86375 0.0
H594 H 0.42728 0.57928 0.12052 0.0
H595 H 0.46231 0.54951 0.09697 0.0
H596 H 0.51498 0.46487 0.45066 0.0
H597 H 0.48824 0.42699 0.44997 0.0
H598 H 0.5334 0.39435 0.64088 0.0
H599 H 0.56054 0.43168 0.63996 0.0
Tb600 Tb 0.01722 0.49459 0.77975 0.0
Tb601 Tb 0.02602 0.53479 0.67151 0.0
C602 C 0.99867 0.4637 0.88011 0.0
C603 C 0.97654 0.4467 0.87607 0.0
C604 C 0.96411 0.44264 0.80262 0.0
C605 C 0.94182 0.42814 0.79994 0.0
C606 C 0.93168 0.41735 0.87064 0.0
C607 C 0.94483 0.42068 0.94353 0.0
C608 C 0.96706 0.43529 0.94617 0.0
C609 C 0.0346 0.47838 0.63875 0.0
C610 C 0.97089 0.51484 0.66989 0.0
C611 C 0.04548 0.56441 0.56904 0.0
C612 C 0.07026 0.5777 0.56348 0.0
C613 C 0.09312 0.56398 0.5577 0.0
C614 C 0.1164 0.57667 0.55283 0.0
C615 C 0.11752 0.60343 0.55419 0.0
C616 C 0.09463 0.61716 0.56073 0.0
C617 C 0.07124 0.6044 0.56512 0.0
C618 C 1.01019 0.55137 0.81496 0.0
C619 C 0.07194 0.5152 0.78433 0.0
O620 O 0.99348 0.48802 0.87961 0.0
O621 O 0.01736 0.45817 0.83143 0.0
O622 O 0.01779 0.49529 0.64929 0.0
O623 O 0.04184 0.47018 0.70811 0.0
O624 O 0.97824 0.50282 0.73607 0.0
O625 O 0.98783 0.52724 0.62615 0.0
O626 O 0.04585 0.53961 0.56294 0.0
O627 O 0.03021 0.57196 0.62617 0.0
O628 O 0.02599 0.53376 0.80136 0.0
O629 O 1.00244 0.55986 0.74614 0.0
O630 O 0.06514 0.52622 0.71569 0.0
O631 O 0.05442 0.50399 0.82907 0.0
H632 H 0.97131 0.45118 0.74767 0.0
H633 H 0.93219 0.42587 0.74294 0.0
H634 H 0.93729 0.41304 0.99933 0.0
H635 H 0.97642 0.43827 1.0033 0.0
H636 H 0.09313 0.54338 0.55641 0.0
H637 H 0.13349 0.56539 0.54588 0.0
H638 H 0.09476 0.63774 0.56244 0.0
H639 H 0.05388 0.61542 0.56983 0.0
H640 H 0.15036 1.0009 0.40605 0.0
H641 H 0.14687 0.08223 0.43728 0.0
H642 H 0.10971 0.07757 0.52424 0.0
H643 H 0.07952 0.05004 0.60138 0.0
H644 H 0.08304 0.96887 0.56789 0.0
H645 H 0.11788 0.97393 0.47196 0.0
C646 C 0.14129 0.01767 0.43071 0.0
C647 C 0.15212 0.04183 0.4158 0.0
C648 C 0.11958 0.01492 0.48104 0.0
C649 C 0.13975 0.06323 0.44902 0.0
C650 C 0.11821 0.06064 0.49867 0.0
C651 C 0.08753 0.03356 0.57164 0.0
C652 C 0.07852 1.00908 0.59218 0.0
C653 C 0.10815 0.03654 0.51666 0.0
C654 C 0.08951 0.98795 0.55351 0.0
C655 C 0.10961 0.99079 0.49867 0.0
H656 H 0.46157 0.13562 0.44766 0.0
H657 H 0.53859 0.13879 0.35555 0.0
H658 H 0.5492 0.10095 0.43439 0.0
H659 H 0.53776 0.06895 0.54104 0.0
H660 H 0.46272 0.07172 0.64634 0.0
H661 H 0.45094 0.10623 0.55527 0.0
C662 C 0.48099 0.1288 0.44553 0.0
C663 C 0.49925 0.14105 0.39567 0.0
C664 C 0.48749 0.10795 0.4949 0.0
C665 C 0.52381 0.1302 0.39212 0.0
C666 C 0.53005 0.10851 0.43818 0.0
C667 C 0.51866 0.07674 0.54235 0.0
C668 C 0.50093 0.06742 0.5995 0.0
C669 C 0.51218 0.09742 0.49104 0.0
C670 C 0.47656 0.07831 0.60244 0.0
C671 C 0.46982 0.09808 0.55032 0.0
H672 H 0.41707 0.53056 0.35783 0.0
H673 H 0.35184 0.50424 0.4926 0.0
H674 H 0.37932 0.49373 0.60657 0.0
H675 H 0.42111 0.49714 0.67417 0.0
H676 H 0.48675 0.52177 0.53863 0.0
H677 H 0.46012 0.5277 0.41905 0.0
C678 C 0.40896 0.52195 0.41148 0.0
C679 C 0.38228 0.5183 0.41647 0.0
C680 C 0.42498 0.51599 0.4772 0.0
C681 C 0.3722 0.50704 0.48649 0.0
C682 C 0.38793 0.50129 0.55218 0.0
C683 C 0.42967 0.50332 0.61793 0.0
C684 C 0.45592 0.50914 0.61552 0.0
C685 C 0.4142 0.50645 0.5492 0.0
C686 C 0.46672 0.517 0.54214 0.0
C687 C 0.4514 0.52056 0.47384 0.0
H688 H 0.07489 0.39615 0.39892 0.0
H689 H 0.99483 0.38038 0.37639 0.0
H690 H 0.98477 0.41952 0.44998 0.0
H691 H 0.99924 0.45393 0.54323 0.0
H692 H 0.07972 0.46634 0.57359 0.0
H693 H 0.08911 0.43327 0.47524 0.0
C694 C 0.0552 0.4018 0.40737 0.0
C695 C 0.03566 0.38528 0.38154 0.0
C696 C 0.04966 0.42364 0.45331 0.0
C697 C 1.01027 0.39281 0.39412 0.0
C698 C 1.00453 0.41504 0.43769 0.0
C699 C 0.01876 0.44994 0.526 0.0
C700 C 0.03882 0.46286 0.56508 0.0
C701 C 0.02409 0.43001 0.4709 0.0
C702 C 0.06401 0.45692 0.54387 0.0
C703 C 0.06938 0.43787 0.48786 0.0
H704 H 0.91626 0.95464 0.11636 0.0
H705 H 0.87517 0.02529 0.09325 0.0
H706 H 0.9093 0.04245 1.00807 0.0
H707 H 0.94807 0.03541 0.92563 0.0
H708 H 0.98761 0.96374 0.9424 0.0
H709 H 0.9567 0.94886 0.04298 0.0
C710 C 0.91478 0.97392 0.09344 0.0
C711 C 0.89274 0.98847 0.11091 0.0
C712 C 0.93406 0.98331 0.04168 0.0
C713 C 0.89177 0.01362 0.08184 0.0
C714 C 0.91119 0.02333 0.03195 0.0
C715 C 0.95011 0.01661 0.9519 0.0
C716 C 0.9701 1.0006 0.92557 0.0
C717 C 0.93198 1.00804 1.00913 0.0
C718 C 0.97244 0.9764 0.9609 0.0
C719 C 0.95471 0.96789 0.0185 0.0
H720 H 0.48858 0.88848 0.06998 0.0
H721 H 0.54403 0.84079 0.95339 0.0
H722 H 0.55143 0.87384 0.85119 0.0
H723 H 0.53998 0.91561 0.78956 0.0
H724 H 0.48652 0.96413 0.91246 0.0
H725 H 0.48059 0.93179 0.01689 0.0
C726 C 0.50255 0.88549 0.0228 0.0
C727 C 0.51572 0.86209 0.01947 0.0
C728 C 0.5069 0.90476 0.96468 0.0
C729 C 0.5338 0.85861 0.95796 0.0
C730 C 0.53788 0.87748 0.89907 0.0
C731 C 0.52721 0.91916 0.83964 0.0
C732 C 0.51354 0.94229 0.84242 0.0
C733 C 0.52424 0.90052 0.90092 0.0
C734 C 0.49728 0.94662 0.90836 0.0
C735 C 0.49381 0.92803 0.96821 0.0
H736 H 0.63386 0.48822 0.09408 0.0
H737 H 0.67728 0.54962 0.98954 0.0
H738 H 0.64251 0.5585 0.89531 0.0
H739 H 0.60108 0.54621 0.83446 0.0
H740 H 0.55695 0.48613 0.94441 0.0
H741 H 0.59032 0.4795 0.04445 0.0
C742 C 0.63549 0.50386 0.05164 0.0
C743 C 0.65822 0.51825 0.04901 0.0
C744 C 0.61528 0.50895 0.9979 0.0
C745 C 0.65998 0.53843 0.99355 0.0
C746 C 0.64014 0.54336 0.93914 0.0
C747 C 0.5986 0.53194 0.88113 0.0
C748 C 0.5765 0.51657 0.88122 0.0
C749 C 0.61789 0.5284 0.9395 0.0
C750 C 0.57363 0.49827 0.94257 0.0
C751 C 0.59283 0.49437 0.99976 0.0
H752 H 0.04064 0.61786 0.1162 0.0
H753 H 0.98465 0.66834 0.01431 0.0
H754 H 0.97349 0.63601 0.91473 0.0
H755 H 0.98353 0.59532 0.84566 0.0
H756 H 0.03995 0.5453 0.94801 0.0
H757 H 0.04703 0.57535 0.05732 0.0
C758 C 0.02563 0.62165 0.07317 0.0
C759 C 0.01363 0.64574 0.07288 0.0
C760 C 0.01968 0.60309 0.01489 0.0
C761 C 0.99408 0.65004 0.01688 0.0
C762 C 0.98791 0.6316 0.95907 0.0
C763 C 0.99708 0.5908 0.89261 0.0
C764 C 1.01137 0.56805 0.88773 0.0
C765 C 1.00117 0.60836 0.95575 0.0
C766 C 0.02874 0.56257 0.9496 0.0
C767 C 0.03287 0.57985 0.01225 0.0
H768 H 0.95937 0.20207 0.57847 0.0
H769 H 0.01459 0.17848 0.75364 0.0
H770 H 0.98574 0.14508 0.80205 0.0
H771 H 0.95307 0.11518 0.76053 0.0
H772 H 0.90255 0.13434 0.56587 0.0
H773 H 0.9202 0.17735 0.56088 0.0
C774 C 0.96436 0.19042 0.63011 0.0
C775 C 0.98896 0.1922 0.66233 0.0
C776 C 0.94857 0.17008 0.65244 0.0
C777 C 0.99568 0.17708 0.7284 0.0
C778 C 0.9793 0.15789 0.75513 0.0
C779 C 0.94492 0.12919 0.71999 0.0
C780 C 0.92709 0.1215 0.66195 0.0
C781 C 0.95677 0.15294 0.71277 0.0
C782 C 0.91658 0.13982 0.61014 0.0
C783 C 0.92697 0.16426 0.60657 0.0
H784 H 0.37918 0.14897 0.34037 0.0
H785 H 0.33227 0.12708 0.54363 0.0
H786 H 0.36483 0.09807 0.58812 0.0
H787 H 0.40019 0.07033 0.55027 0.0
H788 H 0.44141 0.08513 0.32954 0.0
H789 H 0.41711 0.12402 0.30937 0.0
C790 C 0.37569 0.1377 0.39393 0.0
C791 C 0.35179 0.13873 0.43321 0.0
C792 C 0.39319 0.1186 0.41444 0.0
C793 C 0.34954 0.12619 0.50827 0.0
C794 C 0.36812 0.10899 0.53361 0.0
C795 C 0.40372 0.0818 0.49704 0.0
C796 C 0.42206 0.0741 0.44013 0.0
C797 C 0.38878 0.10344 0.48327 0.0
C798 C 0.42727 0.09021 0.37415 0.0
C799 C 0.41333 0.11254 0.36239 0.0
H800 H 0.44431 0.30753 0.54445 0.0
H801 H 0.38415 0.36087 0.4938 0.0
H802 H 0.41249 0.39628 0.52756 0.0
H803 H 0.45642 0.41169 0.54333 0.0
H804 H 0.51743 0.35757 0.57465 0.0
H805 H 0.48672 0.3228 0.57734 0.0
C806 C 0.43699 0.32683 0.54459 0.0
C807 C 0.41218 0.33165 0.51675 0.0
C808 C 0.4539 0.34696 0.55773 0.0
C809 C 0.40311 0.35677 0.51574 0.0
C810 C 0.41947 0.37697 0.53347 0.0
C811 C 0.463 0.39227 0.55062 0.0
C812 C 0.48927 0.38719 0.55652 0.0
C813 C 0.4453 0.37228 0.54942 0.0
C814 C 0.49738 0.36204 0.56926 0.0
C815 C 0.47982 0.34212 0.57072 0.0
H816 H 0.23032 0.62708 0.47163 0.0
H817 H 0.19522 0.68579 0.32695 0.0
H818 H 0.15443 0.67729 0.3923 0.0
H819 H 0.12766 0.64684 0.468 0.0
H820 H 0.16372 0.58978 0.61647 0.0
H821 H 0.20546 0.60447 0.57214 0.0
C822 C 0.21422 0.63896 0.45604 0.0
C823 C 0.21587 0.6563 0.39119 0.0
C824 C 0.19076 0.63382 0.49316 0.0
C825 C 0.19445 0.67147 0.37388 0.0
C826 C 0.17102 0.66662 0.41127 0.0
C827 C 0.1446 0.63812 0.49286 0.0
C828 C 0.14245 0.61654 0.5431 0.0
C829 C 0.16868 0.64672 0.46731 0.0
C830 C 0.16474 0.60573 0.57509 0.0
C831 C 0.18867 0.61423 0.55021 0.0
H832 H 0.16194 0.82752 1.0081 0.0
H833 H 0.11406 0.81282 0.80471 0.0
H834 H 0.12485 0.85418 0.74721 0.0
H835 H 0.13245 0.89833 0.78609 0.0
H836 H 0.17455 0.91468 1.00187 0.0
H837 H 0.18187 0.86932 0.02332 0.0
C838 C 0.15538 0.83276 0.94847 0.0
C839 C 0.13634 0.81797 0.91233 0.0
C840 C 0.15959 0.85763 0.92053 0.0
C841 C 0.12832 0.82431 0.8344 0.0
C842 C 0.13397 0.84831 0.80262 0.0
C843 C 0.1444 0.89211 0.83544 0.0
C844 C 0.15205 0.90968 0.89424 0.0
C845 C 0.14723 0.86597 0.84976 0.0
C846 C 0.16777 0.90135 0.95728 0.0
C847 C 0.17186 0.8754 0.9697 0.0
H848 H 0.72909 0.98398 0.89674 0.0
H849 H 0.68125 0.92389 0.80695 0.0
H850 H 0.6511 0.95547 0.75523 0.0
H851 H 0.63306 0.99795 0.77499 0.0
H852 H 0.67725 0.05593 0.89188 0.0
H853 H 0.71441 0.02779 0.89316 0.0
C854 C 0.71267 0.97784 0.86239 0.0
C855 C 0.70718 0.95172 0.85602 0.0
C856 C 0.69447 0.99589 0.84006 0.0
C857 C 0.68573 0.94392 0.8125 0.0
C858 C 0.66839 0.96197 0.78407 0.0
C859 C 0.65126 1.00472 0.79702 0.0
C860 C 0.65275 0.0288 0.83303 0.0
C861 C 0.67168 0.98776 0.80322 0.0
C862 C 0.67598 0.03745 0.86356 0.0
C863 C 0.69703 0.02127 0.86489 0.0
H864 H 0.35457 0.67216 0.14679 0.0
H865 H 0.38964 0.71297 0.94929 0.0
H866 H 0.40098 0.67319 0.88616 0.0
H867 H 0.41262 0.62883 0.90782 0.0
H868 H 0.38216 0.58783 0.11217 0.0
H869 H 0.35857 0.62561 0.15327 0.0
C870 C 0.3642 0.67237 0.089 0.0
C871 C 0.37243 0.69572 0.05559 0.0
C872 C 0.3727 0.64933 0.056 0.0
C873 C 0.38345 0.69553 0.9782 0.0
C874 C 0.39048 0.67264 0.94238 0.0
C875 C 0.40011 0.62775 0.95975 0.0
C876 C 0.39977 0.60568 1.00803 0.0
C877 C 0.38708 0.64967 0.98409 0.0
C878 C 0.38343 0.60481 0.07526 0.0
C879 C 0.36979 0.62639 0.09858 0.0
H880 H 0.81563 0.40045 0.91218 0.0
H881 H 0.84258 0.34298 0.07669 0.0
H882 H 0.8855 0.34687 0.02046 0.0
H883 H 0.91644 0.37423 0.94925 0.0
H884 H 0.88915 0.43412 0.79364 0.0
H885 H 0.84535 0.4213 0.82012 0.0
C886 C 0.83057 0.38783 0.93306 0.0
C887 C 0.82609 0.37184 0.99965 0.0
C888 C 0.85539 0.39119 0.90346 0.0
C889 C 0.84569 0.35566 0.02603 0.0
C890 C 0.8703 0.35815 0.99465 0.0
C891 C 0.90088 0.3841 0.9199 0.0
C892 C 0.90604 0.40544 0.87104 0.0
C893 C 0.87563 0.37715 0.93746 0.0
C894 C 0.88577 0.41768 0.83172 0.0
C895 C 0.86065 0.41047 0.8473 0.0
H896 H 1.01259 0.14319 0.08517 0.0
H897 H 0.05016 0.18861 0.90354 0.0
H898 H 0.05025 0.15197 0.81253 0.0
H899 H 0.04134 0.10568 0.78631 0.0
H900 H 1.00742 0.06069 0.97599 0.0
H901 H 1.00439 0.0982 0.06108 0.0
C902 C 0.02106 0.14527 0.02599 0.0
C903 C 0.0317 0.16896 1.00263 0.0
C904 C 0.02167 0.12391 0.97468 0.0
C905 C 0.0417 0.17094 0.92404 0.0
C906 C 0.04193 0.1498 0.87187 0.0
C907 C 0.03318 0.10419 0.84611 0.0
C908 C 0.02466 0.08018 0.87459 0.0
C909 C 0.03218 0.12601 0.89664 0.0
C910 C 0.01431 0.07871 0.95254 0.0
C911 C 1.01251 0.10024 1.00139 0.0
H912 H 0.34823 0.04099 0.84127 0.0
H913 H 0.36638 0.01473 0.08007 0.0
H914 H 0.40989 1.00488 0.03627 0.0
H915 H 0.44408 1.00665 0.93161 0.0
H916 H 0.42494 0.0323 0.69259 0.0
H917 H 0.38108 0.03983 0.73515 0.0
C918 C 0.36158 0.0328 0.88368 0.0
C919 C 0.35379 0.02868 0.96425 0.0
C920 C 0.38676 0.02752 0.85822 0.0
C921 C 0.3715 0.01782 0.01764 0.0
C922 C 0.39659 1.0125 0.99275 0.0
C923 C 0.43031 0.01393 0.88892 0.0
C924 C 0.4381 0.01917 0.80897 0.0
C925 C 0.40467 0.01781 0.91358 0.0
C926 C 0.41973 0.02816 0.75439 0.0
C927 C 0.39451 0.03245 0.77872 0.0
H928 H 0.47773 0.34444 0.85238 0.0
H929 H 0.5189 0.35482 0.07335 0.0
H930 H 0.53075 0.398 0.0313 0.0
H931 H 0.52578 0.43458 0.93711 0.0
H932 H 0.48644 0.42332 0.71324 0.0
H933 H 0.47753 0.37905 0.75049 0.0
C934 C 0.48988 0.35592 0.89039 0.0
C935 C 0.49749 0.34621 0.96606 0.0
C936 C 0.49654 0.38088 0.86577 0.0
C937 C 0.5131 0.3615 0.0145 0.0
C938 C 0.51958 0.3864 0.99086 0.0
C939 C 0.51539 0.42235 0.89638 0.0
C940 C 0.50657 0.43239 0.82265 0.0
C941 C 0.51079 0.3966 0.91767 0.0
C942 C 0.49348 0.41614 0.7701 0.0
C943 C 0.48833 0.39079 0.79156 0.0
H944 H 0.186 0.54246 0.87829 0.0
H945 H 0.17125 0.4868 0.06389 0.0
H946 H 0.12893 0.47889 1.00765 0.0
H947 H 0.09471 0.48996 0.91078 0.0
H948 H 0.1101 0.54547 0.72486 0.0
H949 H 0.15315 0.55132 0.77638 0.0
C950 C 0.17363 0.52843 0.90626 0.0
C951 C 0.18199 0.51535 0.97586 0.0
C952 C 0.14914 0.52414 0.87389 0.0
C953 C 0.16564 0.49701 1.01013 0.0
C954 C 0.14124 0.49266 0.97831 0.0
C955 C 0.1075 0.50326 0.8812 0.0
C956 C 0.09884 0.51737 0.81397 0.0
C957 C 0.13256 0.50646 0.91105 0.0
C958 C 0.11597 0.53432 0.77644 0.0
C959 C 0.14071 0.53773 0.80607 0.0
H960 H 0.02829 0.84405 0.5693 0.0
H961 H 0.97908 0.87507 0.38682 0.0
H962 H 0.97726 0.91553 0.45807 0.0
H963 H 0.99208 0.94351 0.5668 0.0
H964 H 0.04131 0.91311 0.75043 0.0
H965 H 0.04065 0.87151 0.68496 0.0
C966 C 0.01667 0.85946 0.54629 0.0
C967 C 1.00372 0.8563 0.47259 0.0
C968 C 0.01602 0.88313 0.58735 0.0
C969 C 0.98917 0.87681 0.44324 0.0
C970 C 0.98824 0.90009 0.48383 0.0
C971 C 1.00256 0.92778 0.593 0.0
C972 C 0.01685 0.93176 0.66364 0.0
C973 C 1.00203 0.90372 0.55499 0.0
C974 C 0.03012 0.91087 0.69637 0.0
C975 C 0.02978 0.88695 0.65872 0.0
H976 H 0.66053 0.95144 0.48243 0.0
H977 H 0.68796 0.02774 0.5217 0.0
H978 H 0.64913 0.03757 0.59773 0.0
H979 H 0.60488 0.02567 0.64181 0.0
H980 H 0.57759 0.95003 0.5932 0.0
H981 H 0.61819 0.93919 0.53039 0.0
C982 C 0.65812 0.97038 0.50672 0.0
C983 C 0.67738 0.98888 0.49417 0.0
C984 C 0.63534 0.97619 0.54828 0.0
C985 C 0.67382 1.01294 0.52969 0.0
C986 C 0.65136 0.0187 0.57279 0.0
C987 C 0.6081 1.0067 0.61903 0.0
C988 C 0.58812 0.98864 0.62312 0.0
C989 C 0.63166 1.00065 0.58104 0.0
C990 C 0.59246 0.96433 0.59101 0.0
C991 C 0.61576 0.95809 0.55501 0.0
H992 H 0.50017 0.67697 0.62385 0.0
H993 H 0.53044 0.65599 0.39228 0.0
H994 H 0.5391 0.61296 0.44284 0.0
H995 H 0.53363 0.57981 0.54902 0.0
H996 H 0.50162 0.60133 0.77843 0.0
H997 H 0.49771 0.64513 0.73202 0.0
C998 C 0.50896 0.66311 0.58446 0.0
C999 C 0.51443 0.66989 0.50379 0.0
C1000 C 0.51311 0.63815 0.61325 0.0
C1001 C 0.52621 0.65161 0.45461 0.0
C1002 C 0.53083 0.6268 0.48333 0.0
C1003 C 0.52599 0.59408 0.58924 0.0
C1004 C 0.51777 0.58687 0.66739 0.0
C1005 C 0.52364 0.61959 0.56189 0.0
C1006 C 0.50804 0.60594 0.71813 0.0
C1007 C 0.50579 0.63116 0.69159 0.0
H1008 H 0.85559 0.48732 0.59735 0.0
H1009 H 0.87038 0.53216 0.38475 0.0
H1010 H 0.91282 0.54291 0.43598 0.0
H1011 H 0.94767 0.53562 0.53517 0.0
H1012 H 0.93225 0.48916 0.74463 0.0
H1013 H 0.8887 0.48265 0.69991 0.0
C1014 C 0.86793 0.49975 0.56247 0.0
C1015 C 0.85964 0.50875 0.4867 0.0
C1016 C 0.89261 0.50513 0.59115 0.0
C1017 C 0.87594 0.52512 0.44339 0.0
C1018 C 0.90044 0.53097 0.4723 0.0
C1019 C 0.93474 0.52425 0.57143 0.0
C1020 C 0.94365 0.51274 0.64321 0.0
C1021 C 0.90932 0.52045 0.54507 0.0
C1022 C 0.92633 0.49817 0.6891 0.0
C1023 C 0.90123 0.49445 0.66359 0.0
loop_
_geom_bond_atom_site_label_1
_geom_bond_atom_site_label_2
_geom_bond_distance
_geom_bond_site_symmetry_2
_ccdc_geom_bond_type
C0 C1 1.391 . S
C0 C4 1.391 . S
C0 H42 0.948 . S
C1 C0 1.391 . S
C1 C2 1.391 . S
C2 C1 1.391 . S
C2 H58 0.947 . S
C2 C59 1.392 . S
C3 C4 1.391 . S
C3 C7 1.397 . S
C3 C59 1.419 . S
C4 C0 1.391 . S
C4 C3 1.391 . S
C4 C5 1.399 . S
C5 C4 1.399 . S
C5 C8 1.396 . S
C5 C17 1.453 . S
C5 C18 1.684 . S
H6 C30 0.948 . S
C7 C3 1.397 . S
C7 C8 1.394 . S
C7 C26 1.723 . S
C8 C5 1.396 . S
C8 C7 1.394 . S
C8 C38 1.723 . S
H9 C32 0.947 . S
H10 C33 0.948 . S
H11 C39 0.982 . S
H12 C40 0.979 . S
H13 C40 0.980 . S
H14 C40 0.983 . S
H15 C39 0.979 . S
H16 C39 0.977 . S
C17 C5 1.453 . S
C17 H46 0.982 . S
C17 H47 0.979 . S
C17 H48 0.977 . S
C18 C5 1.684 . S
C18 H43 0.979 . S
C18 H44 0.980 . S
C18 H45 0.983 . S
C19 C20 1.391 . S
C19 C24 1.391 . S
C19 H49 0.948 . S
C20 C19 1.391 . S
C20 C21 1.391 . S
C21 C20 1.391 . S
C21 C22 1.392 . S
C21 H50 0.947 . S
C22 C21 1.392 . S
C22 C23 1.419 . S
C22 H51 0.948 . S
C23 C22 1.419 . S
C23 C24 1.391 . S
C23 C27 1.397 . S
C24 C19 1.391 . S
C24 C23 1.391 . S
C24 C25 1.399 . S
C25 C24 1.399 . S
C25 C26 1.396 . S
C25 C28 1.453 . S
C25 C29 1.684 . S
C26 C7 1.723 . S
C26 C25 1.396 . S
C26 C27 1.394 . S
C27 C23 1.397 . S
C27 C26 1.394 . S
C27 C37 1.723 . S
C28 C25 1.453 . S
C28 H52 0.982 . S
C28 H53 0.979 . S
C28 H54 0.977 . S
C29 C25 1.684 . S
C29 H55 0.979 . S
C29 H56 0.980 . S
C29 H57 0.983 . S
C30 H6 0.948 . S
C30 C31 1.391 . S
C30 C35 1.391 . S
C31 C30 1.391 . S
C31 C32 1.391 . S
C32 H9 0.947 . S
C32 C31 1.391 . S
C32 C33 1.392 . S
C33 H10 0.948 . S
C33 C32 1.392 . S
C33 C34 1.419 . S
C34 C33 1.419 . S
C34 C35 1.391 . S
C34 C38 1.397 . S
C35 C30 1.391 . S
C35 C34 1.391 . S
C35 C36 1.399 . S
C36 C35 1.399 . S
C36 C37 1.396 . S
C36 C39 1.453 . S
C36 C40 1.684 . S
C37 C27 1.723 . S
C37 C36 1.396 . S
C37 C38 1.394 . S
C38 C8 1.723 . S
C38 C34 1.397 . S
C38 C37 1.394 . S
C39 H11 0.982 . S
C39 H15 0.979 . S
C39 H16 0.977 . S
C39 C36 1.453 . S
C40 H12 0.979 . S
C40 H13 0.980 . S
C40 H14 0.983 . S
C40 C36 1.684 . S
H41 C59 0.948 . S
H42 C0 0.948 . S
H43 C18 0.979 . S
H44 C18 0.980 . S
H45 C18 0.983 . S
H46 C17 0.982 . S
H47 C17 0.979 . S
H48 C17 0.977 . S
H49 C19 0.948 . S
H50 C21 0.947 . S
H51 C22 0.948 . S
H52 C28 0.982 . S
H53 C28 0.979 . S
H54 C28 0.977 . S
H55 C29 0.979 . S
H56 C29 0.980 . S
H57 C29 0.983 . S
H58 C2 0.947 . S
C59 C2 1.392 . S
C59 C3 1.419 . S
C59 H41 0.948 . S
C60 C61 1.391 . S
C60 C64 1.391 . S
C60 H102 0.948 . S
C61 C60 1.391 . S
C61 C62 1.391 . S
C62 C61 1.391 . S
C62 H118 0.947 . S
C62 C119 1.392 . S
C63 C64 1.391 . S
C63 C67 1.397 1_655 S
C63 C119 1.419 . S
C64 C60 1.391 . S
C64 C63 1.391 . S
C64 C65 1.399 . S
C65 C64 1.399 . S
C65 C68 1.396 1_655 S
C65 C77 1.453 1_655 S
C65 C78 1.684 . S
H66 C90 0.948 . S
C67 C63 1.397 1_455 S
C67 C68 1.394 . S
C67 C86 1.723 . S
C68 C65 1.396 1_455 S
C68 C67 1.394 . S
C68 C98 1.723 . S
H69 C92 0.947 . S
H70 C93 0.948 . S
H71 C99 0.982 . S
H72 C100 0.979 . S
H73 C100 0.980 . S
H74 C100 0.983 . S
H75 C99 0.979 . S
H76 C99 0.977 . S
C77 C65 1.453 1_455 S
C77 H106 0.982 . S
C77 H107 0.979 . S
C77 H108 0.977 . S
C78 C65 1.684 . S
C78 H103 0.979 . S
C78 H104 0.980 . S
C78 H105 0.983 . S
C79 C80 1.391 . S
C79 C84 1.391 . S
C79 H109 0.948 . S
C80 C79 1.391 . S
C80 C81 1.391 . S
C81 C80 1.391 . S
C81 C82 1.392 . S
C81 H110 0.947 . S
C82 C81 1.392 . S
C82 C83 1.419 . S
C82 H111 0.948 . S
C83 C82 1.419 . S
C83 C84 1.391 . S
C83 C87 1.397 1_655 S
C84 C79 1.391 . S
C84 C83 1.391 . S
C84 C85 1.399 . S
C85 C84 1.399 . S
C85 C86 1.396 1_655 S
C85 C88 1.453 1_655 S
C85 C89 1.684 . S
C86 C67 1.723 . S
C86 C85 1.396 1_455 S
C86 C87 1.394 . S
C87 C83 1.397 1_455 S
C87 C86 1.394 . S
C87 C97 1.723 . S
C88 C85 1.453 1_455 S
C88 H112 0.982 . S
C88 H113 0.979 . S
C88 H114 0.977 . S
C89 C85 1.684 . S
C89 H115 0.979 . S
C89 H116 0.980 . S
C89 H117 0.983 . S
C90 H66 0.948 . S
C90 C91 1.391 . S
C90 C95 1.391 . S
C91 C90 1.391 . S
C91 C92 1.391 . S
C92 H69 0.947 . S
C92 C91 1.391 . S
C92 C93 1.392 . S
C93 H70 0.948 . S
C93 C92 1.392 . S
C93 C94 1.419 . S
C94 C93 1.419 . S
C94 C95 1.391 . S
C94 C98 1.397 1_655 S
C95 C90 1.391 . S
C95 C94 1.391 . S
C95 C96 1.399 . S
C96 C95 1.399 . S
C96 C97 1.396 1_655 S
C96 C99 1.453 1_655 S
C96 C100 1.684 . S
C97 C87 1.723 . S
C97 C96 1.396 1_455 S
C97 C98 1.394 . S
C98 C68 1.723 . S
C98 C94 1.397 1_455 S
C98 C97 1.394 . S
C99 H71 0.982 . S
C99 H75 0.979 . S
C99 H76 0.977 . S
C99 C96 1.453 1_455 S
C100 H72 0.979 . S
C100 H73 0.980 . S
C100 H74 0.983 . S
C100 C96 1.684 . S
H101 C119 0.948 . S
H102 C60 0.948 . S
H103 C78 0.979 . S
H104 C78 0.980 . S
H105 C78 0.983 . S
H106 C77 0.982 . S
H107 C77 0.979 . S
H108 C77 0.977 . S
H109 C79 0.948 . S
H110 C81 0.947 . S
H111 C82 0.948 . S
H112 C88 0.982 . S
H113 C88 0.979 . S
H114 C88 0.977 . S
H115 C89 0.979 . S
H116 C89 0.980 . S
H117 C89 0.983 . S
H118 C62 0.947 . S
C119 C62 1.392 . S
C119 C63 1.419 . S
C119 H101 0.948 . S
C120 C121 1.391 . S
C120 C124 1.391 . S
C120 H162 0.948 . S
C121 C120 1.391 . S
C121 C122 1.391 . S
C122 C121 1.391 . S
C122 H178 0.947 . S
C122 C179 1.392 . S
C123 C124 1.391 . S
C123 C127 1.397 1_565 S
C123 C179 1.419 . S
C124 C120 1.391 . S
C124 C123 1.391 . S
C124 C125 1.399 . S
C125 C124 1.399 . S
C125 C128 1.396 1_565 S
C125 C137 1.453 1_565 S
C125 C138 1.684 . S
H126 C150 0.948 . S
C127 C123 1.397 1_545 S
C127 C128 1.394 . S
C127 C146 1.723 . S
C128 C125 1.396 1_545 S
C128 C127 1.394 . S
C128 C158 1.723 . S
H129 C152 0.947 . S
H130 C153 0.948 . S
H131 C159 0.982 . S
H132 C160 0.979 . S
H133 C160 0.980 . S
H134 C160 0.983 . S
H135 C159 0.979 . S
H136 C159 0.977 . S
C137 C125 1.453 1_545 S
C137 H166 0.982 . S
C137 H167 0.979 . S
C137 H168 0.977 . S
C138 C125 1.684 . S
C138 H163 0.979 . S
C138 H164 0.980 . S
C138 H165 0.983 . S
C139 C140 1.391 . S
C139 C144 1.391 . S
C139 H169 0.948 . S
C140 C139 1.391 . S
C140 C141 1.391 . S
C141 C140 1.391 . S
C141 C142 1.392 . S
C141 H170 0.947 . S
C142 C141 1.392 . S
C142 C143 1.419 . S
C142 H171 0.948 . S
C143 C142 1.419 . S
C143 C144 1.391 . S
C143 C147 1.397 1_565 S
C144 C139 1.391 . S
C144 C143 1.391 . S
C144 C145 1.399 . S
C145 C144 1.399 . S
C145 C146 1.396 1_565 S
C145 C148 1.453 1_565 S
C145 C149 1.684 . S
C146 C127 1.723 . S
C146 C145 1.396 1_545 S
C146 C147 1.394 . S
C147 C143 1.397 1_545 S
C147 C146 1.394 . S
C147 C157 1.723 . S
C148 C145 1.453 1_545 S
C148 H172 0.982 . S
C148 H173 0.979 . S
C148 H174 0.977 . S
C149 C145 1.684 . S
C149 H175 0.979 . S
C149 H176 0.980 . S
C149 H177 0.983 . S
C150 H126 0.948 . S
C150 C151 1.391 . S
C150 C155 1.391 . S
C151 C150 1.391 . S
C151 C152 1.391 . S
C152 H129 0.947 . S
C152 C151 1.391 . S
C152 C153 1.392 . S
C153 H130 0.948 . S
C153 C152 1.392 . S
C153 C154 1.419 . S
C154 C153 1.419 . S
C154 C155 1.391 . S
C154 C158 1.397 1_565 S
C155 C150 1.391 . S
C155 C154 1.391 . S
C155 C156 1.399 . S
C156 C155 1.399 . S
C156 C157 1.396 1_565 S
C156 C159 1.453 1_565 S
C156 C160 1.684 . S
C157 C147 1.723 . S
C157 C156 1.396 1_545 S
C157 C158 1.394 . S
C158 C128 1.723 . S
C158 C154 1.397 1_545 S
C158 C157 1.394 . S
C159 H131 0.982 . S
C159 H135 0.979 . S
C159 H136 0.977 . S
C159 C156 1.453 1_545 S
C160 H132 0.979 . S
C160 H133 0.980 . S
C160 H134 0.983 . S
C160 C156 1.684 . S
H161 C179 0.948 . S
H162 C120 0.948 . S
H163 C138 0.979 . S
H164 C138 0.980 . S
H165 C138 0.983 . S
H166 C137 0.982 . S
H167 C137 0.979 . S
H168 C137 0.977 . S
H169 C139 0.948 . S
H170 C141 0.947 . S
H171 C142 0.948 . S
H172 C148 0.982 . S
H173 C148 0.979 . S
H174 C148 0.977 . S
H175 C149 0.979 . S
H176 C149 0.980 . S
H177 C149 0.983 . S
H178 C122 0.947 . S
C179 C122 1.392 . S
C179 C123 1.419 . S
C179 H161 0.948 . S
C180 C181 1.391 . S
C180 C184 1.391 . S
C180 H222 0.948 . S
C181 C180 1.391 . S
C181 C182 1.391 . S
C182 C181 1.391 . S
C182 H238 0.947 . S
C182 C239 1.392 . S
C183 C184 1.391 . S
C183 C187 1.397 . S
C183 C239 1.419 . S
C184 C180 1.391 . S
C184 C183 1.391 . S
C184 C185 1.399 . S
C185 C184 1.399 . S
C185 C188 1.396 . S
C185 C197 1.453 . S
C185 C198 1.684 . S
H186 C210 0.948 . S
C187 C183 1.397 . S
C187 C188 1.394 . S
C187 C206 1.723 . S
C188 C185 1.396 . S
C188 C187 1.394 . S
C188 C218 1.723 . S
H189 C212 0.947 . S
H190 C213 0.948 . S
H191 C219 0.982 . S
H192 C220 0.979 . S
H193 C220 0.980 . S
H194 C220 0.983 . S
H195 C219 0.979 . S
H196 C219 0.977 . S
C197 C185 1.453 . S
C197 H226 0.982 . S
C197 H227 0.979 . S
C197 H228 0.977 . S
C198 C185 1.684 . S
C198 H223 0.979 . S
C198 H224 0.980 . S
C198 H225 0.983 . S
C199 C200 1.391 . S
C199 C204 1.391 . S
C199 H229 0.948 . S
C200 C199 1.391 . S
C200 C201 1.391 . S
C201 C200 1.391 . S
C201 C202 1.392 . S
C201 H230 0.947 . S
C202 C201 1.392 . S
C202 C203 1.419 . S
C202 H231 0.948 . S
C203 C202 1.419 . S
C203 C204 1.391 . S
C203 C207 1.397 . S
C204 C199 1.391 . S
C204 C203 1.391 . S
C204 C205 1.399 . S
C205 C204 1.399 . S
C205 C206 1.396 . S
C205 C208 1.453 . S
C205 C209 1.684 . S
C206 C187 1.723 . S
C206 C205 1.396 . S
C206 C207 1.394 . S
C207 C203 1.397 . S
C207 C206 1.394 . S
C207 C217 1.723 . S
C208 C205 1.453 . S
C208 H232 0.982 . S
C208 H233 0.979 . S
C208 H234 0.977 . S
C209 C205 1.684 . S
C209 H235 0.979 . S
C209 H236 0.980 . S
C209 H237 0.983 . S
C210 H186 0.948 . S
C210 C211 1.391 . S
C210 C215 1.391 . S
C211 C210 1.391 . S
C211 C212 1.391 . S
C212 H189 0.947 . S
C212 C211 1.391 . S
C212 C213 1.392 . S
C213 H190 0.948 . S
C213 C212 1.392 . S
C213 C214 1.419 . S
C214 C213 1.419 . S
C214 C215 1.391 . S
C214 C218 1.397 . S
C215 C210 1.391 . S
C215 C214 1.391 . S
C215 C216 1.399 . S
C216 C215 1.399 . S
C216 C217 1.396 . S
C216 C219 1.453 . S
C216 C220 1.684 . S
C217 C207 1.723 . S
C217 C216 1.396 . S
C217 C218 1.394 . S
C218 C188 1.723 . S
C218 C214 1.397 . S
C218 C217 1.394 . S
C219 H191 0.982 . S
C219 H195 0.979 . S
C219 H196 0.977 . S
C219 C216 1.453 . S
C220 H192 0.979 . S
C220 H193 0.980 . S
C220 H194 0.983 . S
C220 C216 1.684 . S
H221 C239 0.948 . S
H222 C180 0.948 . S
H223 C198 0.979 . S
H224 C198 0.980 . S
H225 C198 0.983 . S
H226 C197 0.982 . S
H227 C197 0.979 . S
H228 C197 0.977 . S
H229 C199 0.948 . S
H230 C201 0.947 . S
H231 C202 0.948 . S
H232 C208 0.982 . S
H233 C208 0.979 . S
H234 C208 0.977 . S
H235 C209 0.979 . S
H236 C209 0.980 . S
H237 C209 0.983 . S
H238 C182 0.947 . S
C239 C182 1.392 . S
C239 C183 1.419 . S
C239 H221 0.948 . S
C240 C241 1.391 . S
C240 C244 1.391 . S
C240 H282 0.948 . S
C241 C240 1.391 . S
C241 C242 1.391 . S
C242 C241 1.391 . S
C242 H298 0.947 . S
C242 C299 1.392 . S
C243 C244 1.391 . S
C243 C247 1.397 . S
C243 C299 1.419 . S
C244 C240 1.391 . S
C244 C243 1.391 . S
C244 C245 1.399 1_554 S
C245 C244 1.399 1_556 S
C245 C248 1.396 1_556 S
C245 C257 1.453 . S
C245 C258 1.684 . S
H246 C270 0.948 . S
C247 C243 1.397 . S
C247 C248 1.394 . S
C247 C266 1.723 . S
C248 C245 1.396 1_554 S
C248 C247 1.394 . S
C248 C278 1.723 1_554 S
H249 C272 0.947 . S
H250 C273 0.948 . S
H251 C279 0.982 . S
H252 C280 0.979 . S
H253 C280 0.980 1_554 S
H254 C280 0.983 . S
H255 C279 0.979 . S
H256 C279 0.977 1_554 S
C257 C245 1.453 . S
C257 H286 0.982 . S
C257 H287 0.979 . S
C257 H288 0.977 . S
C258 C245 1.684 . S
C258 H283 0.979 . S
C258 H284 0.980 . S
C258 H285 0.983 . S
C259 C260 1.391 . S
C259 C264 1.391 . S
C259 H289 0.948 . S
C260 C259 1.391 . S
C260 C261 1.391 . S
C261 C260 1.391 . S
C261 C262 1.392 . S
C261 H290 0.947 . S
C262 C261 1.392 . S
C262 C263 1.419 . S
C262 H291 0.948 . S
C263 C262 1.419 . S
C263 C264 1.391 . S
C263 C267 1.397 . S
C264 C259 1.391 . S
C264 C263 1.391 . S
C264 C265 1.399 . S
C265 C264 1.399 . S
C265 C266 1.396 . S
C265 C268 1.453 . S
C265 C269 1.684 . S
C266 C247 1.723 . S
C266 C265 1.396 . S
C266 C267 1.394 . S
C267 C263 1.397 . S
C267 C266 1.394 . S
C267 C277 1.723 . S
C268 C265 1.453 . S
C268 H292 0.982 . S
C268 H293 0.979 . S
C268 H294 0.977 . S
C269 C265 1.684 . S
C269 H295 0.979 . S
C269 H296 0.980 . S
C269 H297 0.983 . S
C270 H246 0.948 . S
C270 C271 1.391 . S
C270 C275 1.391 . S
C271 C270 1.391 . S
C271 C272 1.391 . S
C272 H249 0.947 . S
C272 C271 1.391 . S
C272 C273 1.392 . S
C273 H250 0.948 . S
C273 C272 1.392 . S
C273 C274 1.419 . S
C274 C273 1.419 . S
C274 C275 1.391 . S
C274 C278 1.397 . S
C275 C270 1.391 . S
C275 C274 1.391 . S
C275 C276 1.399 . S
C276 C275 1.399 . S
C276 C277 1.396 1_556 S
C276 C279 1.453 . S
C276 C280 1.684 . S
C277 C267 1.723 . S
C277 C276 1.396 1_554 S
C277 C278 1.394 1_554 S
C278 C248 1.723 1_556 S
C278 C274 1.397 . S
C278 C277 1.394 1_556 S
C279 H251 0.982 . S
C279 H255 0.979 . S
C279 H256 0.977 1_556 S
C279 C276 1.453 . S
C280 H252 0.979 . S
C280 H253 0.980 1_556 S
C280 H254 0.983 . S
C280 C276 1.684 . S
H281 C299 0.948 . S
H282 C240 0.948 . S
H283 C258 0.979 . S
H284 C258 0.980 . S
H285 C258 0.983 . S
H286 C257 0.982 . S
H287 C257 0.979 . S
H288 C257 0.977 . S
H289 C259 0.948 . S
H290 C261 0.947 . S
H291 C262 0.948 . S
H292 C268 0.982 . S
H293 C268 0.979 . S
H294 C268 0.977 . S
H295 C269 0.979 . S
H296 C269 0.980 . S
H297 C269 0.983 . S
H298 C242 0.947 . S
C299 C242 1.392 . S
C299 C243 1.419 . S
C299 H281 0.948 . S
C300 C301 1.391 . S
C300 C304 1.391 . S
C300 H342 0.948 . S
C301 C300 1.391 . S
C301 C302 1.391 . S
C302 C301 1.391 . S
C302 H358 0.947 . S
C302 C359 1.392 . S
C303 C304 1.391 . S
C303 C307 1.396 1_655 S
C303 C359 1.419 . S
C304 C300 1.391 . S
C304 C303 1.391 . S
C304 C305 1.399 . S
C305 C304 1.399 . S
C305 C308 1.396 1_655 S
C305 C317 1.453 1_655 S
C305 C318 1.684 . S
H306 C330 0.948 . S
C307 C303 1.396 1_455 S
C307 C308 1.395 . S
C307 C326 1.723 . S
C308 C305 1.396 1_455 S
C308 C307 1.395 . S
C308 C338 1.723 . S
H309 C332 0.947 . S
H310 C333 0.948 . S
H311 C339 0.982 . S
H312 C340 0.979 . S
H313 C340 0.980 . S
H314 C340 0.983 . S
H315 C339 0.979 . S
H316 C339 0.977 . S
C317 C305 1.453 1_455 S
C317 H346 0.982 . S
C317 H347 0.979 . S
C317 H348 0.977 . S
C318 C305 1.684 . S
C318 H343 0.979 . S
C318 H344 0.980 . S
C318 H345 0.983 . S
C319 C320 1.391 . S
C319 C324 1.391 . S
C319 H349 0.948 . S
C320 C319 1.391 . S
C320 C321 1.391 . S
C321 C320 1.391 . S
C321 C322 1.392 . S
C321 H350 0.947 . S
C322 C321 1.392 . S
C322 C323 1.419 . S
C322 H351 0.948 . S
C323 C322 1.419 . S
C323 C324 1.391 . S
C323 C327 1.396 1_655 S
C324 C319 1.391 . S
C324 C323 1.391 . S
C324 C325 1.399 . S
C325 C324 1.399 . S
C325 C326 1.396 1_656 S
C325 C328 1.453 1_655 S
C325 C329 1.684 . S
C326 C307 1.723 . S
C326 C325 1.396 1_454 S
C326 C327 1.395 1_554 S
C327 C323 1.396 1_455 S
C327 C326 1.395 1_556 S
C327 C337 1.723 1_556 S
C328 C325 1.453 1_455 S
C328 H352 0.982 . S
C328 H353 0.979 . S
C328 H354 0.977 1_556 S
C329 C325 1.684 . S
C329 H355 0.979 . S
C329 H356 0.980 1_556 S
C329 H357 0.983 . S
C330 H306 0.948 . S
C330 C331 1.391 . S
C330 C335 1.391 . S
C331 C330 1.391 . S
C331 C332 1.391 . S
C332 H309 0.947 . S
C332 C331 1.391 . S
C332 C333 1.392 . S
C333 H310 0.948 . S
C333 C332 1.392 . S
C333 C334 1.419 . S
C334 C333 1.419 . S
C334 C335 1.391 . S
C334 C338 1.396 1_655 S
C335 C330 1.391 . S
C335 C334 1.391 . S
C335 C336 1.399 1_554 S
C336 C335 1.399 1_556 S
C336 C337 1.396 1_656 S
C336 C339 1.453 1_655 S
C336 C340 1.684 . S
C337 C327 1.723 1_554 S
C337 C336 1.396 1_454 S
C337 C338 1.395 . S
C338 C308 1.723 . S
C338 C334 1.396 1_455 S
C338 C337 1.395 . S
C339 H311 0.982 . S
C339 H315 0.979 . S
C339 H316 0.977 . S
C339 C336 1.453 1_455 S
C340 H312 0.979 . S
C340 H313 0.980 . S
C340 H314 0.983 . S
C340 C336 1.684 . S
H341 C359 0.948 . S
H342 C300 0.948 . S
H343 C318 0.979 . S
H344 C318 0.980 . S
H345 C318 0.983 . S
H346 C317 0.982 . S
H347 C317 0.979 . S
H348 C317 0.977 . S
H349 C319 0.948 . S
H350 C321 0.947 . S
H351 C322 0.948 . S
H352 C328 0.982 . S
H353 C328 0.979 . S
H354 C328 0.977 1_554 S
H355 C329 0.979 . S
H356 C329 0.980 1_554 S
H357 C329 0.983 . S
H358 C302 0.947 . S
C359 C302 1.392 . S
C359 C303 1.419 . S
C359 H341 0.948 . S
C360 C361 1.391 . S
C360 C364 1.391 . S
C360 H402 0.948 . S
C361 C360 1.391 . S
C361 C362 1.391 . S
C362 C361 1.391 . S
C362 H418 0.947 . S
C362 C419 1.392 . S
C363 C364 1.391 . S
C363 C367 1.397 1_545 S
C363 C419 1.419 . S
C364 C360 1.391 . S
C364 C363 1.391 . S
C364 C365 1.399 . S
C365 C364 1.399 . S
C365 C368 1.396 1_545 S
C365 C377 1.453 1_545 S
C365 C378 1.684 . S
H366 C390 0.948 . S
C367 C363 1.397 1_565 S
C367 C368 1.394 . S
C367 C386 1.723 1_556 S
C368 C365 1.396 1_565 S
C368 C367 1.394 . S
C368 C398 1.723 1_556 S
H369 C392 0.947 1_556 S
H370 C393 0.948 1_556 S
H371 C399 0.982 . S
H372 C400 0.979 . S
H373 C400 0.980 . S
H374 C400 0.983 . S
H375 C399 0.979 . S
H376 C399 0.977 . S
C377 C365 1.453 1_565 S
C377 H406 0.982 . S
C377 H407 0.979 . S
C377 H408 0.977 . S
C378 C365 1.684 . S
C378 H403 0.979 . S
C378 H404 0.980 . S
C378 H405 0.983 . S
C379 C380 1.391 . S
C379 C384 1.391 . S
C379 H409 0.948 . S
C380 C379 1.391 . S
C380 C381 1.391 . S
C381 C380 1.391 . S
C381 C382 1.392 . S
C381 H410 0.947 . S
C382 C381 1.392 . S
C382 C383 1.419 . S
C382 H411 0.948 . S
C383 C382 1.419 . S
C383 C384 1.391 . S
C383 C387 1.397 1_545 S
C384 C379 1.391 . S
C384 C383 1.391 . S
C384 C385 1.399 . S
C385 C384 1.399 . S
C385 C386 1.396 1_545 S
C385 C388 1.453 1_545 S
C385 C389 1.684 . S
C386 C367 1.723 1_554 S
C386 C385 1.396 1_565 S
C386 C387 1.394 . S
C387 C383 1.397 1_565 S
C387 C386 1.394 . S
C387 C397 1.723 . S
C388 C385 1.453 1_565 S
C388 H412 0.982 . S
C388 H413 0.979 . S
C388 H414 0.977 1_554 S
C389 C385 1.684 . S
C389 H415 0.979 . S
C389 H416 0.980 1_554 S
C389 H417 0.983 . S
C390 H366 0.948 . S
C390 C391 1.391 . S
C390 C395 1.391 . S
C391 C390 1.391 . S
C391 C392 1.391 . S
C392 H369 0.947 1_554 S
C392 C391 1.391 . S
C392 C393 1.392 . S
C393 H370 0.948 1_554 S
C393 C392 1.392 . S
C393 C394 1.419 . S
C394 C393 1.419 . S
C394 C395 1.391 . S
C394 C398 1.397 1_545 S
C395 C390 1.391 . S
C395 C394 1.391 . S
C395 C396 1.399 . S
C396 C395 1.399 . S
C396 C397 1.396 1_545 S
C396 C399 1.453 1_545 S
C396 C400 1.684 . S
C397 C387 1.723 . S
C397 C396 1.396 1_565 S
C397 C398 1.394 . S
C398 C368 1.723 1_554 S
C398 C394 1.397 1_565 S
C398 C397 1.394 . S
C399 H371 0.982 . S
C399 H375 0.979 . S
C399 H376 0.977 . S
C399 C396 1.453 1_565 S
C400 H372 0.979 . S
C400 H373 0.980 . S
C400 H374 0.983 . S
C400 C396 1.684 . S
H401 C419 0.948 . S
H402 C360 0.948 . S
H403 C378 0.979 . S
H404 C378 0.980 . S
H405 C378 0.983 . S
H406 C377 0.982 . S
H407 C377 0.979 . S
H408 C377 0.977 . S
H409 C379 0.948 . S
H410 C381 0.947 . S
H411 C382 0.948 . S
H412 C388 0.982 . S
H413 C388 0.979 . S
H414 C388 0.977 1_556 S
H415 C389 0.979 . S
H416 C389 0.980 1_556 S
H417 C389 0.983 . S
H418 C362 0.947 . S
C419 C362 1.392 . S
C419 C363 1.419 . S
C419 H401 0.948 . S
C420 C421 1.391 . S
C420 C424 1.391 . S
C420 H462 0.948 . S
C421 C420 1.391 . S
C421 C422 1.391 . S
C422 C421 1.391 . S
C422 H478 0.947 . S
C422 C479 1.392 . S
C423 C424 1.391 . S
C423 C427 1.397 . S
C423 C479 1.419 . S
C424 C420 1.391 . S
C424 C423 1.391 . S
C424 C425 1.399 . S
C425 C424 1.399 . S
C425 C428 1.396 . S
C425 C437 1.453 . S
C425 C438 1.684 . S
H426 C450 0.948 . S
C427 C423 1.397 . S
C427 C428 1.394 . S
C427 C446 1.723 1_556 S
C428 C425 1.396 . S
C428 C427 1.394 . S
C428 C458 1.723 1_556 S
H429 C452 0.947 1_556 S
H430 C453 0.948 1_556 S
H431 C459 0.982 . S
H432 C460 0.979 . S
H433 C460 0.980 . S
H434 C460 0.983 . S
H435 C459 0.979 . S
H436 C459 0.977 . S
C437 C425 1.453 . S
C437 H466 0.982 . S
C437 H467 0.979 . S
C437 H468 0.977 . S
C438 C425 1.684 . S
C438 H463 0.979 . S
C438 H464 0.980 . S
C438 H465 0.983 . S
C439 C440 1.391 . S
C439 C444 1.391 . S
C439 H469 0.948 . S
C440 C439 1.391 . S
C440 C441 1.391 . S
C441 C440 1.391 . S
C441 C442 1.392 . S
C441 H470 0.947 . S
C442 C441 1.392 . S
C442 C443 1.419 . S
C442 H471 0.948 . S
C443 C442 1.419 . S
C443 C444 1.391 . S
C443 C447 1.397 . S
C444 C439 1.391 . S
C444 C443 1.391 . S
C444 C445 1.399 . S
C445 C444 1.399 . S
C445 C446 1.396 . S
C445 C448 1.453 . S
C445 C449 1.684 . S
C446 C427 1.723 1_554 S
C446 C445 1.396 . S
C446 C447 1.394 . S
C447 C443 1.397 . S
C447 C446 1.394 . S
C447 C457 1.723 . S
C448 C445 1.453 . S
C448 H472 0.982 . S
C448 H473 0.979 . S
C448 H474 0.977 1_554 S
C449 C445 1.684 . S
C449 H475 0.979 . S
C449 H476 0.980 1_554 S
C449 H477 0.983 . S
C450 H426 0.948 . S
C450 C451 1.391 . S
C450 C455 1.391 . S
C451 C450 1.391 . S
C451 C452 1.391 . S
C452 H429 0.947 1_554 S
C452 C451 1.391 . S
C452 C453 1.392 . S
C453 H430 0.948 1_554 S
C453 C452 1.392 . S
C453 C454 1.419 . S
C454 C453 1.419 . S
C454 C455 1.391 . S
C454 C458 1.397 . S
C455 C450 1.391 . S
C455 C454 1.391 . S
C455 C456 1.399 . S
C456 C455 1.399 . S
C456 C457 1.396 . S
C456 C459 1.453 . S
C456 C460 1.684 . S
C457 C447 1.723 . S
C457 C456 1.396 . S
C457 C458 1.394 . S
C458 C428 1.723 1_554 S
C458 C454 1.397 . S
C458 C457 1.394 . S
C459 H431 0.982 . S
C459 H435 0.979 . S
C459 H436 0.977 . S
C459 C456 1.453 . S
C460 H432 0.979 . S
C460 H433 0.980 . S
C460 H434 0.983 . S
C460 C456 1.684 . S
H461 C479 0.948 . S
H462 C420 0.948 . S
H463 C438 0.979 . S
H464 C438 0.980 . S
H465 C438 0.983 . S
H466 C437 0.982 . S
H467 C437 0.979 . S
H468 C437 0.977 . S
H469 C439 0.948 . S
H470 C441 0.947 . S
H471 C442 0.948 . S
H472 C448 0.982 . S
H473 C448 0.979 . S
H474 C448 0.977 1_556 S
H475 C449 0.979 . S
H476 C449 0.980 1_556 S
H477 C449 0.983 . S
H478 C422 0.947 . S
C479 C422 1.392 . S
C479 C423 1.419 . S
C479 H461 0.948 . S
Tb480 C482 2.809 . S
Tb480 O500 2.484 . S
Tb480 O501 2.440 . S
Tb480 O502 2.658 1_565 S
Tb480 O503 2.409 . S
Tb480 O504 2.378 . S
Tb480 O508 2.325 1_455 S
Tb480 O511 2.341 1_565 S
Tb481 C491 2.809 . S
Tb481 O502 2.325 1_655 S
Tb481 O505 2.341 1_545 S
Tb481 O506 2.484 . S
Tb481 O507 2.440 . S
Tb481 O508 2.658 1_545 S
Tb481 O509 2.409 . S
Tb481 O510 2.378 . S
C482 Tb480 2.809 . S
C482 C483 1.514 . S
C482 O500 1.248 . S
C482 O501 1.266 . S
C483 C482 1.514 . S
C483 C484 1.359 . S
C483 C488 1.348 . S
C484 C483 1.359 . S
C484 C485 1.380 . S
C484 H512 0.929 1_455 S
C485 C484 1.380 . S
C485 C486 1.347 . S
C485 H513 0.931 1_456 S
C486 C485 1.347 . S
C486 C487 1.369 . S
C487 C486 1.369 . S
C487 C488 1.408 . S
C487 H514 0.930 . S
C488 C483 1.348 . S
C488 C487 1.408 . S
C488 H515 0.930 . S
C489 O502 1.281 1_565 S
C489 O503 1.254 . S
C490 O504 1.236 1_655 S
C490 O505 1.266 . S
C491 Tb481 2.809 . S
C491 C492 1.514 . S
C491 O506 1.248 . S
C491 O507 1.266 . S
C492 C491 1.514 . S
C492 C493 1.359 . S
C492 C497 1.348 . S
C493 C492 1.359 . S
C493 C494 1.380 . S
C493 H516 0.929 1_655 S
C494 C493 1.380 . S
C494 C495 1.347 . S
C494 H517 0.931 1_655 S
C495 C494 1.347 . S
C495 C496 1.369 . S
C496 C495 1.369 . S
C496 C497 1.408 . S
C496 H518 0.930 . S
C497 C492 1.348 . S
C497 C496 1.408 . S
C497 H519 0.930 . S
C498 O508 1.281 1_545 S
C498 O509 1.254 . S
C499 O510 1.236 1_455 S
C499 O511 1.266 . S
O500 Tb480 2.484 . S
O500 C482 1.248 . S
O501 Tb480 2.440 . S
O501 C482 1.266 . S
O502 Tb480 2.658 1_545 S
O502 Tb481 2.325 1_455 S
O502 C489 1.281 1_545 S
O503 Tb480 2.409 . S
O503 C489 1.254 . S
O504 Tb480 2.378 . S
O504 C490 1.236 1_455 S
O505 Tb481 2.341 1_565 S
O505 C490 1.266 . S
O506 Tb481 2.484 . S
O506 C491 1.248 . S
O507 Tb481 2.440 . S
O507 C491 1.266 . S
O508 Tb480 2.325 1_655 S
O508 Tb481 2.658 1_565 S
O508 C498 1.281 1_565 S
O509 Tb481 2.409 . S
O509 C498 1.254 . S
O510 Tb481 2.378 . S
O510 C499 1.236 1_655 S
O511 Tb480 2.341 1_545 S
O511 C499 1.266 . S
H512 C484 0.929 1_655 S
H513 C485 0.931 1_654 S
H514 C487 0.930 . S
H515 C488 0.930 . S
H516 C493 0.929 1_455 S
H517 C494 0.931 1_455 S
H518 C496 0.930 . S
H519 C497 0.930 . S
Tb520 C522 2.809 . S
Tb520 O540 2.484 . S
Tb520 O541 2.440 . S
Tb520 O542 2.658 . S
Tb520 O543 2.409 . S
Tb520 O544 2.378 . S
Tb520 O548 2.325 1_545 S
Tb520 O551 2.341 . S
Tb521 C531 2.809 . S
Tb521 O542 2.325 1_565 S
Tb521 O545 2.341 . S
Tb521 O546 2.484 . S
Tb521 O547 2.440 . S
Tb521 O548 2.658 . S
Tb521 O549 2.409 . S
Tb521 O550 2.378 . S
C522 Tb520 2.809 . S
C522 C523 1.514 . S
C522 O540 1.248 . S
C522 O541 1.266 . S
C523 C522 1.514 . S
C523 C524 1.359 . S
C523 C528 1.348 . S
C524 C523 1.359 . S
C524 C525 1.380 . S
C524 H552 0.929 1_545 S
C525 C524 1.380 . S
C525 C526 1.347 . S
C525 H553 0.931 1_546 S
C526 C525 1.347 . S
C526 C527 1.369 . S
C527 C526 1.369 . S
C527 C528 1.408 . S
C527 H554 0.930 . S
C528 C523 1.348 . S
C528 C527 1.408 . S
C528 H555 0.930 . S
C529 O542 1.281 . S
C529 O543 1.254 . S
C530 O544 1.236 1_565 S
C530 O545 1.266 . S
C531 Tb521 2.809 . S
C531 C532 1.514 . S
C531 O546 1.248 . S
C531 O547 1.266 . S
C532 C531 1.514 . S
C532 C533 1.359 . S
C532 C537 1.348 . S
C533 C532 1.359 . S
C533 C534 1.380 . S
C533 H556 0.929 1_565 S
C534 C533 1.380 . S
C534 C535 1.347 . S
C534 H557 0.931 1_565 S
C535 C534 1.347 . S
C535 C536 1.369 . S
C536 C535 1.369 . S
C536 C537 1.408 . S
C536 H558 0.930 . S
C537 C532 1.348 . S
C537 C536 1.408 . S
C537 H559 0.930 . S
C538 O548 1.281 . S
C538 O549 1.254 . S
C539 O550 1.236 1_545 S
C539 O551 1.266 . S
O540 Tb520 2.484 . S
O540 C522 1.248 . S
O541 Tb520 2.440 . S
O541 C522 1.266 . S
O542 Tb520 2.658 . S
O542 Tb521 2.325 1_545 S
O542 C529 1.281 . S
O543 Tb520 2.409 . S
O543 C529 1.254 . S
O544 Tb520 2.378 . S
O544 C530 1.236 1_545 S
O545 Tb521 2.341 . S
O545 C530 1.266 . S
O546 Tb521 2.484 . S
O546 C531 1.248 . S
O547 Tb521 2.440 . S
O547 C531 1.266 . S
O548 Tb520 2.325 1_565 S
O548 Tb521 2.658 . S
O548 C538 1.281 . S
O549 Tb521 2.409 . S
O549 C538 1.254 . S
O550 Tb521 2.378 . S
O550 C539 1.236 1_565 S
O551 Tb520 2.341 . S
O551 C539 1.266 . S
H552 C524 0.929 1_565 S
H553 C525 0.931 1_564 S
H554 C527 0.930 . S
H555 C528 0.930 . S
H556 C533 0.929 1_545 S
H557 C534 0.931 1_545 S
H558 C536 0.930 . S
H559 C537 0.930 . S
Tb560 C562 2.809 . S
Tb560 O580 2.484 . S
Tb560 O581 2.440 . S
Tb560 O582 2.658 . S
Tb560 O583 2.409 . S
Tb560 O584 2.378 . S
Tb560 O588 2.325 . S
Tb560 O591 2.341 . S
Tb561 C571 2.809 . S
Tb561 O582 2.325 . S
Tb561 O585 2.341 . S
Tb561 O586 2.484 . S
Tb561 O587 2.440 . S
Tb561 O588 2.658 . S
Tb561 O589 2.409 . S
Tb561 O590 2.378 . S
C562 Tb560 2.809 . S
C562 C563 1.514 . S
C562 O580 1.248 . S
C562 O581 1.266 . S
C563 C562 1.514 . S
C563 C564 1.359 . S
C563 C568 1.348 . S
C564 C563 1.359 . S
C564 C565 1.380 . S
C564 H592 0.929 . S
C565 C564 1.380 . S
C565 C566 1.347 . S
C565 H593 0.931 1_556 S
C566 C565 1.347 . S
C566 C567 1.369 . S
C567 C566 1.369 . S
C567 C568 1.408 . S
C567 H594 0.930 . S
C568 C563 1.348 . S
C568 C567 1.408 . S
C568 H595 0.930 . S
C569 O582 1.281 . S
C569 O583 1.254 . S
C570 O584 1.236 . S
C570 O585 1.266 . S
C571 Tb561 2.809 . S
C571 C572 1.514 . S
C571 O586 1.248 . S
C571 O587 1.266 . S
C572 C571 1.514 . S
C572 C573 1.359 . S
C572 C577 1.348 . S
C573 C572 1.359 . S
C573 C574 1.380 . S
C573 H596 0.929 . S
C574 C573 1.380 . S
C574 C575 1.347 . S
C574 H597 0.931 . S
C575 C574 1.347 . S
C575 C576 1.369 . S
C576 C575 1.369 . S
C576 C577 1.408 . S
C576 H598 0.930 . S
C577 C572 1.348 . S
C577 C576 1.408 . S
C577 H599 0.930 . S
C578 O588 1.281 . S
C578 O589 1.254 . S
C579 O590 1.236 . S
C579 O591 1.266 . S
O580 Tb560 2.484 . S
O580 C562 1.248 . S
O581 Tb560 2.440 . S
O581 C562 1.266 . S
O582 Tb560 2.658 . S
O582 Tb561 2.325 . S
O582 C569 1.281 . S
O583 Tb560 2.409 . S
O583 C569 1.254 . S
O584 Tb560 2.378 . S
O584 C570 1.236 . S
O585 Tb561 2.341 . S
O585 C570 1.266 . S
O586 Tb561 2.484 . S
O586 C571 1.248 . S
O587 Tb561 2.440 . S
O587 C571 1.266 . S
O588 Tb560 2.325 . S
O588 Tb561 2.658 . S
O588 C578 1.281 . S
O589 Tb561 2.409 . S
O589 C578 1.254 . S
O590 Tb561 2.378 . S
O590 C579 1.236 . S
O591 Tb560 2.341 . S
O591 C579 1.266 . S
H592 C564 0.929 . S
H593 C565 0.931 1_554 S
H594 C567 0.930 . S
H595 C568 0.930 . S
H596 C573 0.929 . S
H597 C574 0.931 . S
H598 C576 0.930 . S
H599 C577 0.930 . S
Tb600 C602 2.809 . S
Tb600 O620 2.484 . S
Tb600 O621 2.440 . S
Tb600 O622 2.658 1_655 S
Tb600 O623 2.409 . S
Tb600 O624 2.378 . S
Tb600 O628 2.325 . S
Tb600 O631 2.341 1_655 S
Tb601 C611 2.809 . S
Tb601 O622 2.325 . S
Tb601 O625 2.341 1_455 S
Tb601 O626 2.484 . S
Tb601 O627 2.440 . S
Tb601 O628 2.658 1_455 S
Tb601 O629 2.409 . S
Tb601 O630 2.378 . S
C602 Tb600 2.809 . S
C602 C603 1.514 . S
C602 O620 1.248 . S
C602 O621 1.266 . S
C603 C602 1.514 . S
C603 C604 1.359 . S
C603 C608 1.348 . S
C604 C603 1.359 . S
C604 C605 1.380 . S
C604 H632 0.929 . S
C605 C604 1.380 . S
C605 C606 1.347 . S
C605 H633 0.931 1_556 S
C606 C605 1.347 . S
C606 C607 1.369 . S
C607 C606 1.369 . S
C607 C608 1.408 . S
C607 H634 0.930 . S
C608 C603 1.348 . S
C608 C607 1.408 . S
C608 H635 0.930 . S
C609 O622 1.278 1_655 S
C609 O623 1.258 . S
C610 O624 1.236 . S
C610 O625 1.266 . S
C611 Tb601 2.809 . S
C611 C612 1.514 . S
C611 O626 1.248 . S
C611 O627 1.266 . S
C612 C611 1.514 . S
C612 C613 1.359 . S
C612 C617 1.348 . S
C613 C612 1.359 . S
C613 C614 1.380 . S
C613 H636 0.929 . S
C614 C613 1.380 . S
C614 C615 1.347 . S
C614 H637 0.931 . S
C615 C614 1.347 . S
C615 C616 1.369 . S
C616 C615 1.369 . S
C616 C617 1.408 . S
C616 H638 0.930 . S
C617 C612 1.348 . S
C617 C616 1.408 . S
C617 H639 0.930 . S
C618 O628 1.275 1_455 S
C618 O629 1.263 . S
C619 O630 1.236 . S
C619 O631 1.266 . S
O620 Tb600 2.484 . S
O620 C602 1.248 . S
O621 Tb600 2.440 . S
O621 C602 1.266 . S
O622 Tb600 2.658 1_455 S
O622 Tb601 2.325 . S
O622 C609 1.278 1_455 S
O623 Tb600 2.409 . S
O623 C609 1.258 . S
O624 Tb600 2.378 . S
O624 C610 1.236 . S
O625 Tb601 2.341 1_655 S
O625 C610 1.266 . S
O626 Tb601 2.484 . S
O626 C611 1.248 . S
O627 Tb601 2.440 . S
O627 C611 1.266 . S
O628 Tb600 2.325 . S
O628 Tb601 2.658 1_655 S
O628 C618 1.275 1_655 S
O629 Tb601 2.409 . S
O629 C618 1.263 . S
O630 Tb601 2.378 . S
O630 C619 1.236 . S
O631 Tb600 2.341 1_455 S
O631 C619 1.266 . S
H632 C604 0.929 . S
H633 C605 0.931 1_554 S
H634 C607 0.930 . S
H635 C608 0.930 . S
H636 C613 0.929 . S
H637 C614 0.931 . S
H638 C616 0.930 . S
H639 C617 0.930 . S
H640 C646 0.930 . S
H641 C649 0.930 . S
H642 C650 0.930 . S
H643 C651 0.930 . S
H644 C654 0.930 . S
H645 C655 0.930 . S
C646 H640 0.930 . S
C646 C647 1.335 1_565 S
C646 C648 1.415 . S
C647 C646 1.335 1_545 S
C647 C649 1.445 . S
C648 C646 1.415 . S
C648 C653 1.425 1_565 S
C648 C655 1.409 . S
C649 H641 0.930 . S
C649 C647 1.445 . S
C649 C650 1.362 . S
C650 H642 0.930 . S
C650 C649 1.362 . S
C650 C653 1.409 . S
C651 H643 0.930 . S
C651 C652 1.341 1_545 S
C651 C653 1.415 . S
C652 C651 1.341 1_565 S
C652 C654 1.436 . S
C653 C648 1.425 1_545 S
C653 C650 1.409 . S
C653 C651 1.415 . S
C654 H644 0.930 . S
C654 C652 1.436 . S
C654 C655 1.362 . S
C655 H645 0.930 . S
C655 C648 1.409 . S
C655 C654 1.362 . S
H656 C662 0.930 . S
H657 C665 0.930 . S
H658 C666 0.930 . S
H659 C667 0.930 . S
H660 C670 0.930 . S
H661 C671 0.930 . S
C662 H656 0.930 . S
C662 C663 1.355 . S
C662 C664 1.415 . S
C663 C662 1.355 . S
C663 C665 1.419 . S
C664 C662 1.415 . S
C664 C669 1.425 . S
C664 C671 1.409 . S
C665 H657 0.930 . S
C665 C663 1.419 . S
C665 C666 1.362 . S
C666 H658 0.930 . S
C666 C665 1.362 . S
C666 C669 1.409 . S
C667 H659 0.930 . S
C667 C668 1.355 . S
C667 C669 1.415 . S
C668 C667 1.355 . S
C668 C670 1.419 . S
C669 C664 1.425 . S
C669 C666 1.409 . S
C669 C667 1.415 . S
C670 H660 0.930 . S
C670 C668 1.419 . S
C670 C671 1.362 . S
C671 H661 0.930 . S
C671 C664 1.409 . S
C671 C670 1.362 . S
H672 C678 0.930 . S
H673 C681 0.930 . S
H674 C682 0.930 . S
H675 C683 0.930 . S
H676 C686 0.930 . S
H677 C687 0.930 . S
C678 H672 0.930 . S
C678 C679 1.355 . S
C678 C680 1.415 . S
C679 C678 1.355 . S
C679 C681 1.419 . S
C680 C678 1.415 . S
C680 C685 1.425 . S
C680 C687 1.409 . S
C681 H673 0.930 . S
C681 C679 1.419 . S
C681 C682 1.362 . S
C682 H674 0.930 . S
C682 C681 1.362 . S
C682 C685 1.409 . S
C683 H675 0.930 . S
C683 C684 1.355 . S
C683 C685 1.415 . S
C684 C683 1.355 . S
C684 C686 1.419 . S
C685 C680 1.425 . S
C685 C682 1.409 . S
C685 C683 1.415 . S
C686 H676 0.930 . S
C686 C684 1.419 . S
C686 C687 1.362 . S
C687 H677 0.930 . S
C687 C680 1.409 . S
C687 C686 1.362 . S
H688 C694 0.930 . S
H689 C697 0.930 . S
H690 C698 0.930 . S
H691 C699 0.930 . S
H692 C702 0.930 . S
H693 C703 0.930 . S
C694 H688 0.930 . S
C694 C695 1.355 1_455 S
C694 C696 1.415 . S
C695 C694 1.355 1_655 S
C695 C697 1.419 . S
C696 C694 1.415 . S
C696 C701 1.425 1_455 S
C696 C703 1.409 . S
C697 H689 0.930 . S
C697 C695 1.419 . S
C697 C698 1.362 . S
C698 H690 0.930 . S
C698 C697 1.362 . S
C698 C701 1.409 . S
C699 H691 0.930 . S
C699 C700 1.355 1_655 S
C699 C701 1.415 . S
C700 C699 1.355 1_455 S
C700 C702 1.419 . S
C701 C696 1.425 1_655 S
C701 C698 1.409 . S
C701 C699 1.415 . S
C702 H692 0.930 . S
C702 C700 1.419 . S
C702 C703 1.362 . S
C703 H693 0.930 . S
C703 C696 1.409 . S
C703 C702 1.362 . S
H704 C710 0.930 . S
H705 C713 0.930 . S
H706 C714 0.930 . S
H707 C715 0.930 . S
H708 C718 0.930 . S
H709 C719 0.930 . S
C710 H704 0.930 . S
C710 C711 1.355 1_565 S
C710 C712 1.415 . S
C711 C710 1.355 1_545 S
C711 C713 1.419 . S
C712 C710 1.415 . S
C712 C717 1.425 1_565 S
C712 C719 1.409 . S
C713 H705 0.930 . S
C713 C711 1.419 . S
C713 C714 1.362 . S
C714 H706 0.930 . S
C714 C713 1.362 . S
C714 C717 1.409 . S
C715 H707 0.930 . S
C715 C716 1.355 1_545 S
C715 C717 1.415 1_556 S
C716 C715 1.355 1_565 S
C716 C718 1.419 . S
C717 C712 1.425 1_545 S
C717 C714 1.409 . S
C717 C715 1.415 1_554 S
C718 H708 0.930 . S
C718 C716 1.419 . S
C718 C719 1.362 1_556 S
C719 H709 0.930 . S
C719 C712 1.409 . S
C719 C718 1.362 1_554 S
H720 C726 0.930 . S
H721 C729 0.930 . S
H722 C730 0.930 . S
H723 C731 0.930 . S
H724 C734 0.930 . S
H725 C735 0.930 . S
C726 H720 0.930 . S
C726 C727 1.355 . S
C726 C728 1.415 . S
C727 C726 1.355 . S
C727 C729 1.419 . S
C728 C726 1.415 . S
C728 C733 1.425 . S
C728 C735 1.409 . S
C729 H721 0.930 . S
C729 C727 1.419 . S
C729 C730 1.362 . S
C730 H722 0.930 . S
C730 C729 1.362 . S
C730 C733 1.409 . S
C731 H723 0.930 . S
C731 C732 1.355 . S
C731 C733 1.415 1_556 S
C732 C731 1.355 . S
C732 C734 1.419 . S
C733 C728 1.425 . S
C733 C730 1.409 . S
C733 C731 1.415 1_554 S
C734 H724 0.930 . S
C734 C732 1.419 . S
C734 C735 1.362 1_556 S
C735 H725 0.930 . S
C735 C728 1.409 . S
C735 C734 1.362 1_554 S
H736 C742 0.930 . S
H737 C745 0.930 . S
H738 C746 0.930 . S
H739 C747 0.930 . S
H740 C750 0.930 . S
H741 C751 0.930 . S
C742 H736 0.930 . S
C742 C743 1.355 . S
C742 C744 1.415 . S
C743 C742 1.355 . S
C743 C745 1.419 . S
C744 C742 1.415 . S
C744 C749 1.425 . S
C744 C751 1.409 . S
C745 H737 0.930 . S
C745 C743 1.419 . S
C745 C746 1.362 . S
C746 H738 0.930 . S
C746 C745 1.362 . S
C746 C749 1.409 . S
C747 H739 0.930 . S
C747 C748 1.355 . S
C747 C749 1.415 1_556 S
C748 C747 1.355 . S
C748 C750 1.419 . S
C749 C744 1.425 . S
C749 C746 1.409 . S
C749 C747 1.415 1_554 S
C750 H740 0.930 . S
C750 C748 1.419 . S
C750 C751 1.362 1_556 S
C751 H741 0.930 . S
C751 C744 1.409 . S
C751 C750 1.362 1_554 S
H752 C758 0.930 . S
H753 C761 0.930 . S
H754 C762 0.930 . S
H755 C763 0.930 . S
H756 C766 0.930 . S
H757 C767 0.930 . S
C758 H752 0.930 . S
C758 C759 1.360 . S
C758 C760 1.415 . S
C759 C758 1.360 . S
C759 C761 1.415 1_655 S
C760 C758 1.415 . S
C760 C765 1.421 1_655 S
C760 C767 1.409 1_554 S
C761 H753 0.930 . S
C761 C759 1.415 1_455 S
C761 C762 1.362 . S
C762 H754 0.930 . S
C762 C761 1.362 . S
C762 C765 1.412 . S
C763 H755 0.930 . S
C763 C764 1.352 1_455 S
C763 C765 1.417 1_556 S
C764 C763 1.352 1_655 S
C764 C766 1.423 . S
C765 C760 1.421 1_455 S
C765 C762 1.412 . S
C765 C763 1.417 1_554 S
C766 H756 0.930 . S
C766 C764 1.423 . S
C766 C767 1.362 . S
C767 H757 0.930 . S
C767 C760 1.409 1_556 S
C767 C766 1.362 . S
H768 C774 0.930 . S
H769 C777 0.930 . S
H770 C778 0.930 . S
H771 C779 0.930 . S
H772 C782 0.930 . S
H773 C783 0.930 . S
C774 H768 0.930 . S
C774 C775 1.355 1_655 S
C774 C776 1.415 . S
C775 C774 1.355 1_455 S
C775 C777 1.419 . S
C776 C774 1.415 . S
C776 C781 1.425 . S
C776 C783 1.409 . S
C777 H769 0.930 . S
C777 C775 1.419 . S
C777 C778 1.362 . S
C778 H770 0.930 . S
C778 C777 1.362 . S
C778 C781 1.409 1_455 S
C779 H771 0.930 . S
C779 C780 1.355 . S
C779 C781 1.415 . S
C780 C779 1.355 . S
C780 C782 1.419 . S
C781 C776 1.425 . S
C781 C778 1.409 1_655 S
C781 C779 1.415 . S
C782 H772 0.930 . S
C782 C780 1.419 . S
C782 C783 1.362 . S
C783 H773 0.930 . S
C783 C776 1.409 . S
C783 C782 1.362 . S
H784 C790 0.930 . S
H785 C793 0.930 . S
H786 C794 0.930 . S
H787 C795 0.930 . S
H788 C798 0.930 . S
H789 C799 0.930 1_545 S
C790 H784 0.930 . S
C790 C791 1.357 . S
C790 C792 1.415 1_545 S
C791 C790 1.357 . S
C791 C793 1.410 1_545 S
C792 C790 1.415 1_565 S
C792 C797 1.425 . S
C792 C799 1.409 . S
C793 H785 0.930 . S
C793 C791 1.410 1_565 S
C793 C794 1.362 . S
C794 H786 0.930 . S
C794 C793 1.362 . S
C794 C797 1.409 . S
C795 H787 0.930 . S
C795 C796 1.355 . S
C795 C797 1.415 . S
C796 C795 1.355 . S
C796 C798 1.419 . S
C797 C792 1.425 . S
C797 C794 1.409 . S
C797 C795 1.415 . S
C798 H788 0.930 . S
C798 C796 1.419 . S
C798 C799 1.362 . S
C799 H789 0.930 1_565 S
C799 C792 1.409 . S
C799 C798 1.362 . S
H800 C806 0.930 . S
H801 C809 0.930 . S
H802 C810 0.930 . S
H803 C811 0.930 . S
H804 C814 0.930 . S
H805 C815 0.930 . S
C806 H800 0.930 . S
C806 C807 1.355 . S
C806 C808 1.415 . S
C807 C806 1.355 . S
C807 C809 1.419 . S
C808 C806 1.415 . S
C808 C813 1.425 . S
C808 C815 1.409 . S
C809 H801 0.930 . S
C809 C807 1.419 . S
C809 C810 1.362 . S
C810 H802 0.930 . S
C810 C809 1.362 . S
C810 C813 1.409 . S
C811 H803 0.930 . S
C811 C812 1.355 . S
C811 C813 1.415 . S
C812 C811 1.355 . S
C812 C814 1.419 . S
C813 C808 1.425 . S
C813 C810 1.409 . S
C813 C811 1.415 . S
C814 H804 0.930 . S
C814 C812 1.419 . S
C814 C815 1.362 . S
C815 H805 0.930 . S
C815 C808 1.409 . S
C815 C814 1.362 . S
H816 C822 0.930 . S
H817 C825 0.930 . S
H818 C826 0.930 . S
H819 C827 0.930 . S
H820 C830 0.930 . S
H821 C831 0.930 . S
C822 H816 0.930 . S
C822 C823 1.355 . S
C822 C824 1.415 . S
C823 C822 1.355 . S
C823 C825 1.419 . S
C824 C822 1.415 . S
C824 C829 1.425 . S
C824 C831 1.409 . S
C825 H817 0.930 . S
C825 C823 1.419 . S
C825 C826 1.362 . S
C826 H818 0.930 . S
C826 C825 1.362 . S
C826 C829 1.409 . S
C827 H819 0.930 . S
C827 C828 1.355 . S
C827 C829 1.415 . S
C828 C827 1.355 . S
C828 C830 1.419 . S
C829 C824 1.425 . S
C829 C826 1.409 . S
C829 C827 1.415 . S
C830 H820 0.930 . S
C830 C828 1.419 . S
C830 C831 1.362 . S
C831 H821 0.930 . S
C831 C824 1.409 . S
C831 C830 1.362 . S
H832 C838 0.930 . S
H833 C841 0.930 . S
H834 C842 0.930 . S
H835 C843 0.930 . S
H836 C846 0.930 . S
H837 C847 0.930 . S
C838 H832 0.930 . S
C838 C839 1.355 1_455 S
C838 C840 1.415 . S
C839 C838 1.355 1_655 S
C839 C841 1.419 . S
C840 C838 1.415 . S
C840 C845 1.425 . S
C840 C847 1.409 . S
C841 H833 0.930 . S
C841 C839 1.419 . S
C841 C842 1.362 1_554 S
C842 H834 0.930 . S
C842 C841 1.362 1_556 S
C842 C845 1.409 1_656 S
C843 H835 0.930 . S
C843 C844 1.355 1_556 S
C843 C845 1.415 1_556 S
C844 C843 1.355 1_554 S
C844 C846 1.419 . S
C845 C840 1.425 . S
C845 C842 1.409 1_454 S
C845 C843 1.415 1_554 S
C846 H836 0.930 . S
C846 C844 1.419 . S
C846 C847 1.362 . S
C847 H837 0.930 . S
C847 C840 1.409 . S
C847 C846 1.362 . S
H848 C854 0.930 . S
H849 C857 0.930 . S
H850 C858 0.930 1_556 S
H851 C859 0.930 . S
H852 C862 0.930 . S
H853 C863 0.930 . S
C854 H848 0.930 . S
C854 C855 1.355 1_545 S
C854 C856 1.415 . S
C855 C854 1.355 1_565 S
C855 C857 1.419 . S
C856 C854 1.415 . S
C856 C861 1.425 . S
C856 C863 1.409 . S
C857 H849 0.930 . S
C857 C855 1.419 . S
C857 C858 1.362 . S
C858 H850 0.930 1_554 S
C858 C857 1.362 . S
C858 C861 1.409 1_565 S
C859 H851 0.930 . S
C859 C860 1.355 1_556 S
C859 C861 1.415 1_556 S
C860 C859 1.355 1_554 S
C860 C862 1.419 . S
C861 C856 1.425 . S
C861 C858 1.409 1_545 S
C861 C859 1.415 1_554 S
C862 H852 0.930 . S
C862 C860 1.419 . S
C862 C863 1.362 . S
C863 H853 0.930 . S
C863 C856 1.409 . S
C863 C862 1.362 . S
H864 C870 0.930 . S
H865 C873 0.930 . S
H866 C874 0.930 . S
H867 C875 0.930 . S
H868 C878 0.930 . S
H869 C879 0.930 . S
C870 H864 0.930 . S
C870 C871 1.355 . S
C870 C872 1.415 . S
C871 C870 1.355 . S
C871 C873 1.419 . S
C872 C870 1.415 . S
C872 C877 1.425 . S
C872 C879 1.409 . S
C873 H865 0.930 . S
C873 C871 1.419 . S
C873 C874 1.362 . S
C874 H866 0.930 . S
C874 C873 1.362 . S
C874 C877 1.409 . S
C875 H867 0.930 . S
C875 C876 1.355 . S
C875 C877 1.415 . S
C876 C875 1.355 . S
C876 C878 1.419 1_554 S
C877 C872 1.425 . S
C877 C874 1.409 . S
C877 C875 1.415 . S
C878 H868 0.930 . S
C878 C876 1.419 1_556 S
C878 C879 1.362 1_556 S
C879 H869 0.930 . S
C879 C872 1.409 . S
C879 C878 1.362 1_554 S
H880 C886 0.930 . S
H881 C889 0.930 . S
H882 C890 0.930 1_556 S
H883 C891 0.930 . S
H884 C894 0.930 . S
H885 C895 0.930 . S
C886 H880 0.930 . S
C886 C887 1.355 . S
C886 C888 1.415 . S
C887 C886 1.355 . S
C887 C889 1.419 . S
C888 C886 1.415 . S
C888 C893 1.425 . S
C888 C895 1.409 . S
C889 H881 0.930 . S
C889 C887 1.419 . S
C889 C890 1.362 . S
C890 H882 0.930 1_554 S
C890 C889 1.362 . S
C890 C893 1.409 . S
C891 H883 0.930 . S
C891 C892 1.355 1_556 S
C891 C893 1.415 1_556 S
C892 C891 1.355 1_554 S
C892 C894 1.419 . S
C893 C888 1.425 . S
C893 C890 1.409 . S
C893 C891 1.415 1_554 S
C894 H884 0.930 . S
C894 C892 1.419 . S
C894 C895 1.362 . S
C895 H885 0.930 . S
C895 C888 1.409 . S
C895 C894 1.362 . S
H896 C902 0.930 . S
H897 C905 0.930 . S
H898 C906 0.930 . S
H899 C907 0.930 . S
H900 C910 0.930 . S
H901 C911 0.930 . S
C902 H896 0.930 . S
C902 C903 1.355 1_655 S
C902 C904 1.415 . S
C903 C902 1.355 1_455 S
C903 C905 1.419 . S
C904 C902 1.415 . S
C904 C909 1.425 1_655 S
C904 C911 1.409 . S
C905 H897 0.930 . S
C905 C903 1.419 . S
C905 C906 1.362 . S
C906 H898 0.930 . S
C906 C905 1.362 . S
C906 C909 1.409 . S
C907 H899 0.930 . S
C907 C908 1.355 . S
C907 C909 1.415 . S
C908 C907 1.355 . S
C908 C910 1.419 1_455 S
C909 C904 1.425 1_455 S
C909 C906 1.409 . S
C909 C907 1.415 . S
C910 H900 0.930 . S
C910 C908 1.419 1_655 S
C910 C911 1.362 . S
C911 H901 0.930 . S
C911 C904 1.409 . S
C911 C910 1.362 . S
H912 C918 0.930 . S
H913 C921 0.930 . S
H914 C922 0.930 . S
H915 C923 0.930 . S
H916 C926 0.930 . S
H917 C927 0.930 . S
C918 H912 0.930 . S
C918 C919 1.355 . S
C918 C920 1.415 . S
C919 C918 1.355 . S
C919 C921 1.419 1_545 S
C920 C918 1.415 . S
C920 C925 1.425 . S
C920 C927 1.409 . S
C921 H913 0.930 . S
C921 C919 1.419 1_565 S
C921 C922 1.362 . S
C922 H914 0.930 . S
C922 C921 1.362 . S
C922 C925 1.409 1_565 S
C923 H915 0.930 . S
C923 C924 1.355 . S
C923 C925 1.415 . S
C924 C923 1.355 . S
C924 C926 1.419 . S
C925 C920 1.425 . S
C925 C922 1.409 1_545 S
C925 C923 1.415 . S
C926 H916 0.930 . S
C926 C924 1.419 . S
C926 C927 1.362 . S
C927 H917 0.930 . S
C927 C920 1.409 . S
C927 C926 1.362 . S
H928 C934 0.930 . S
H929 C937 0.930 . S
H930 C938 0.930 . S
H931 C939 0.930 . S
H932 C942 0.930 . S
H933 C943 0.930 . S
C934 H928 0.930 . S
C934 C935 1.355 . S
C934 C936 1.415 . S
C935 C934 1.355 . S
C935 C937 1.419 . S
C936 C934 1.415 . S
C936 C941 1.425 . S
C936 C943 1.409 . S
C937 H929 0.930 . S
C937 C935 1.419 . S
C937 C938 1.362 . S
C938 H930 0.930 . S
C938 C937 1.362 . S
C938 C941 1.409 . S
C939 H931 0.930 . S
C939 C940 1.355 . S
C939 C941 1.415 . S
C940 C939 1.355 . S
C940 C942 1.419 . S
C941 C936 1.425 . S
C941 C938 1.409 . S
C941 C939 1.415 . S
C942 H932 0.930 . S
C942 C940 1.419 . S
C942 C943 1.362 . S
C943 H933 0.930 . S
C943 C936 1.409 . S
C943 C942 1.362 . S
H944 C950 0.930 . S
H945 C953 0.930 . S
H946 C954 0.930 . S
H947 C955 0.930 . S
H948 C958 0.930 . S
H949 C959 0.930 . S
C950 H944 0.930 . S
C950 C951 1.355 . S
C950 C952 1.415 . S
C951 C950 1.355 . S
C951 C953 1.419 . S
C952 C950 1.415 . S
C952 C957 1.425 . S
C952 C959 1.409 . S
C953 H945 0.930 . S
C953 C951 1.419 . S
C953 C954 1.362 . S
C954 H946 0.930 . S
C954 C953 1.362 . S
C954 C957 1.409 . S
C955 H947 0.930 . S
C955 C956 1.355 . S
C955 C957 1.415 . S
C956 C955 1.355 . S
C956 C958 1.419 . S
C957 C952 1.425 . S
C957 C954 1.409 . S
C957 C955 1.415 . S
C958 H948 0.930 . S
C958 C956 1.419 . S
C958 C959 1.362 . S
C959 H949 0.930 . S
C959 C952 1.409 . S
C959 C958 1.362 . S
H960 C966 0.930 . S
H961 C969 0.930 . S
H962 C970 0.930 . S
H963 C971 0.930 . S
H964 C974 0.930 . S
H965 C975 0.930 . S
C966 H960 0.930 . S
C966 C967 1.355 1_455 S
C966 C968 1.415 . S
C967 C966 1.355 1_655 S
C967 C969 1.419 . S
C968 C966 1.415 . S
C968 C973 1.425 1_455 S
C968 C975 1.409 . S
C969 H961 0.930 . S
C969 C967 1.419 . S
C969 C970 1.362 . S
C970 H962 0.930 . S
C970 C969 1.362 . S
C970 C973 1.409 . S
C971 H963 0.930 . S
C971 C972 1.355 . S
C971 C973 1.415 . S
C972 C971 1.355 . S
C972 C974 1.419 1_655 S
C973 C968 1.425 1_655 S
C973 C970 1.409 . S
C973 C971 1.415 . S
C974 H964 0.930 . S
C974 C972 1.419 1_455 S
C974 C975 1.362 . S
C975 H965 0.930 . S
C975 C968 1.409 . S
C975 C974 1.362 . S
H976 C982 0.930 . S
H977 C985 0.930 . S
H978 C986 0.930 . S
H979 C987 0.930 . S
H980 C990 0.930 . S
H981 C991 0.930 . S
C982 H976 0.930 . S
C982 C983 1.380 . S
C982 C984 1.415 . S
C983 C982 1.380 . S
C983 C985 1.390 1_565 S
C984 C982 1.415 . S
C984 C989 1.425 1_565 S
C984 C991 1.409 . S
C985 H977 0.930 . S
C985 C983 1.390 1_545 S
C985 C986 1.362 . S
C986 H978 0.930 . S
C986 C985 1.362 . S
C986 C989 1.409 . S
C987 H979 0.930 . S
C987 C988 1.355 1_545 S
C987 C989 1.415 . S
C988 C987 1.355 1_565 S
C988 C990 1.419 . S
C989 C984 1.425 1_545 S
C989 C986 1.409 . S
C989 C987 1.415 . S
C990 H980 0.930 . S
C990 C988 1.419 . S
C990 C991 1.362 . S
C991 H981 0.930 . S
C991 C984 1.409 . S
C991 C990 1.362 . S
H992 C998 0.930 . S
H993 C1001 0.930 . S
H994 C1002 0.930 . S
H995 C1003 0.930 . S
H996 C1006 0.930 . S
H997 C1007 0.930 . S
C998 H992 0.930 . S
C998 C999 1.355 . S
C998 C1000 1.415 . S
C999 C998 1.355 . S
C999 C1001 1.419 . S
C1000 C998 1.415 . S
C1000 C1005 1.425 . S
C1000 C1007 1.409 . S
C1001 H993 0.930 . S
C1001 C999 1.419 . S
C1001 C1002 1.362 . S
C1002 H994 0.930 . S
C1002 C1001 1.362 . S
C1002 C1005 1.409 . S
C1003 H995 0.930 . S
C1003 C1004 1.355 . S
C1003 C1005 1.415 . S
C1004 C1003 1.355 . S
C1004 C1006 1.419 . S
C1005 C1000 1.425 . S
C1005 C1002 1.409 . S
C1005 C1003 1.415 . S
C1006 H996 0.930 . S
C1006 C1004 1.419 . S
C1006 C1007 1.362 . S
C1007 H997 0.930 . S
C1007 C1000 1.409 . S
C1007 C1006 1.362 . S
H1008 C1014 0.930 . S
H1009 C1017 0.930 . S
H1010 C1018 0.930 . S
H1011 C1019 0.930 . S
H1012 C1022 0.930 . S
H1013 C1023 0.930 . S
C1014 H1008 0.930 . S
C1014 C1015 1.355 . S
C1014 C1016 1.415 . S
C1015 C1014 1.355 . S
C1015 C1017 1.419 . S
C1016 C1014 1.415 . S
C1016 C1021 1.425 . S
C1016 C1023 1.409 . S
C1017 H1009 0.930 . S
C1017 C1015 1.419 . S
C1017 C1018 1.362 . S
C1018 H1010 0.930 . S
C1018 C1017 1.362 . S
C1018 C1021 1.409 . S
C1019 H1011 0.930 . S
C1019 C1020 1.355 . S
C1019 C1021 1.415 . S
C1020 C1019 1.355 . S
C1020 C1022 1.419 . S
C1021 C1016 1.425 . S
C1021 C1018 1.409 . S
C1021 C1019 1.415 . S
C1022 H1012 0.930 . S
C1022 C1020 1.419 . S
C1022 C1023 1.362 . S
C1023 H1013 0.930 . S
C1023 C1016 1.409 . S
C1023 C1022 1.362 . S
C647 C391 2.436 . S
C652 C489 2.550 . S
C668 C529 2.563 . S
C663 C451 2.398 . S
C684 C569 2.575 . S
C679 C241 2.174 . S
C700 C609 2.551 1_455 S
C695 C331 2.069 . S
C716 C498 2.548 1_565 S
C711 C121 2.087 1_545 S
C727 C211 2.442 . S
C732 C538 2.565 . S
C743 C31 2.460 . S
C748 C578 2.570 . S
C759 C91 2.152 . S
C764 C618 2.558 1_655 S
C780 C495 0.629 . S
C775 C301 0.750 1_455 S
C796 C535 0.460 . S
C791 C380 0.458 . S
C812 C575 0.620 . S
C807 C440 0.503 . S
C823 C260 0.547 . S
C828 C615 0.561 . S
C839 C61 0.647 . S
C844 C486 0.648 1_554 S
C860 C526 0.653 1_554 S
C855 C140 0.615 . S
C876 C566 0.585 1_554 S
C871 C200 0.581 . S
C887 C20 0.531 . S
C892 C606 0.540 1_554 S
C903 C320 3.189 1_455 S
C908 C499 3.428 . S
C919 C361 2.693 . S
C924 C539 3.403 . S
C940 C579 3.394 . S
C935 C421 2.684 . S
C956 C619 3.417 . S
C951 C271 3.167 . S
C967 C80 3.190 . S
C972 C490 3.447 . S
C988 C530 3.413 . S
C983 C151 3.134 . S
C1004 C570 3.372 . S
C999 C181 2.730 . S
C1015 C1 2.739 . S
C1020 C610 3.428 . S
