# Generated by pormake.
# Topology csq, (4,8)-cn, num edge types: 1
# Building blocks:
#     Node 0, Type 0, BuildingBlock: MIFKUJ_clean_linker_1, # of connection points: 4
#     Node 1, Type 0, BuildingBlock: MIFKUJ_clean_linker_1, # of connection points: 4
#     Node 2, Type 0, BuildingBlock: MIFKUJ_clean_linker_1, # of connection points: 4
#     Node 3, Type 0, BuildingBlock: MIFKUJ_clean_linker_1, # of connection points: 4
#     Node 4, Type 0, BuildingBlock: MIFKUJ_clean_linker_1, # of connection points: 4
#     Node 5, Type 0, BuildingBlock: MIFKUJ_clean_linker_1, # of connection points: 4
#     Node 6, Type 1, BuildingBlock: TAGTUT_clean_sbu_3, # of connection points: 8
#     Node 7, Type 1, BuildingBlock: TAGTUT_clean_sbu_3, # of connection points: 8
#     Node 8, Type 1, BuildingBlock: TAGTUT_clean_sbu_3, # of connection points: 8
#     Edge 9, Type (0, 1), BuildingBlock: XIVTED_clean_linker_0, # of connection points: 2
#     Edge 10, Type (0, 1), BuildingBlock: XIVTED_clean_linker_0, # of connection points: 2
#     Edge 11, Type (0, 1), BuildingBlock: XIVTED_clean_linker_0, # of connection points: 2
#     Edge 12, Type (0, 1), BuildingBlock: XIVTED_clean_linker_0, # of connection points: 2
#     Edge 13, Type (0, 1), BuildingBlock: XIVTED_clean_linker_0, # of connection points: 2
#     Edge 14, Type (0, 1), BuildingBlock: XIVTED_clean_linker_0, # of connection points: 2
#     Edge 15, Type (0, 1), BuildingBlock: XIVTED_clean_linker_0, # of connection points: 2
#     Edge 16, Type (0, 1), BuildingBlock: XIVTED_clean_linker_0, # of connection points: 2
#     Edge 17, Type (0, 1), BuildingBlock: XIVTED_clean_linker_0, # of connection points: 2
#     Edge 18, Type (0, 1), BuildingBlock: XIVTED_clean_linker_0, # of connection points: 2
#     Edge 19, Type (0, 1), BuildingBlock: XIVTED_clean_linker_0, # of connection points: 2
#     Edge 20, Type (0, 1), BuildingBlock: XIVTED_clean_linker_0, # of connection points: 2
#     Edge 21, Type (0, 1), BuildingBlock: XIVTED_clean_linker_0, # of connection points: 2
#     Edge 22, Type (0, 1), BuildingBlock: XIVTED_clean_linker_0, # of connection points: 2
#     Edge 23, Type (0, 1), BuildingBlock: XIVTED_clean_linker_0, # of connection points: 2
#     Edge 24, Type (0, 1), BuildingBlock: XIVTED_clean_linker_0, # of connection points: 2
#     Edge 25, Type (0, 1), BuildingBlock: XIVTED_clean_linker_0, # of connection points: 2
#     Edge 26, Type (0, 1), BuildingBlock: XIVTED_clean_linker_0, # of connection points: 2
#     Edge 27, Type (0, 1), BuildingBlock: XIVTED_clean_linker_0, # of connection points: 2
#     Edge 28, Type (0, 1), BuildingBlock: XIVTED_clean_linker_0, # of connection points: 2
#     Edge 29, Type (0, 1), BuildingBlock: XIVTED_clean_linker_0, # of connection points: 2
#     Edge 30, Type (0, 1), BuildingBlock: XIVTED_clean_linker_0, # of connection points: 2
#     Edge 31, Type (0, 1), BuildingBlock: XIVTED_clean_linker_0, # of connection points: 2
#     Edge 32, Type (0, 1), BuildingBlock: XIVTED_clean_linker_0, # of connection points: 2
# Relax obj value: 0.028
# Max RMSD: 0.110
# Mean RMSD: 0.043
data_MOF--net-csq--node1-TAGTUT_clean_sbu_3--node2-MIFKUJ_clean_linker_1--edge1-XIVTED_clean_linker_0
_symmetry_space_group_name_H-M    P1
_symmetry_Int_Tables_number       1
_symmetry_cell_setting            triclinic
loop_
_symmetry_equiv_pos_as_xyz
'x, y, z'
_cell_length_a     63.244642
_cell_length_b     62.478314
_cell_length_c     21.52982
_cell_angle_alpha  92.016756
_cell_angle_beta   92.711961
_cell_angle_gamma 119.88993
loop_
_atom_site_label
_atom_site_type_symbol
_atom_site_fract_x
_atom_site_fract_y
_atom_site_fract_z
_atom_type_partial_charge
H0 H 0.26706 0.46102 0.27477 0.0
H1 H 0.30413 0.46225 0.31749 0.0
H2 H 0.3475 0.52199 0.20257 0.0
H3 H 0.31022 0.52097 0.1606 0.0
H4 H 0.24887 0.49341 0.26149 0.0
H5 H 0.27807 0.44888 0.13611 0.0
H6 H 0.3101 0.44711 0.08038 0.0
H7 H 0.31059 0.49994 0.95555 0.0
H8 H 0.27911 0.50226 0.01262 0.0
H9 H 0.20768 0.4883 0.00903 0.0
H10 H 0.16801 0.47249 0.95142 0.0
H11 H 0.13315 0.4218 0.09388 0.0
H12 H 0.17305 0.43734 0.15093 0.0
H13 H 0.23219 0.46624 0.03642 0.0
H14 H 0.19884 0.50725 0.15712 0.0
H15 H 0.16776 0.50928 0.21672 0.0
H16 H 0.17493 0.46312 0.35125 0.0
H17 H 0.20531 0.46054 0.29065 0.0
C18 C 0.28592 0.49073 0.21418 0.0
C19 C 0.2846 0.47484 0.26004 0.0
C20 C 0.30574 0.47533 0.2837 0.0
C21 C 0.32856 0.49184 0.26219 0.0
C22 C 0.33011 0.50903 0.21969 0.0
C23 C 0.30888 0.50848 0.19583 0.0
C24 C 0.26311 0.4861 0.17968 0.0
C25 C 0.24513 0.48751 0.21226 0.0
C26 C 0.25847 0.47862 0.11541 0.0
C27 C 0.27653 0.47604 0.07913 0.0
C28 C 0.28523 0.46024 0.09709 0.0
C29 C 0.30352 0.45926 0.06535 0.0
C30 C 0.31291 0.47354 0.01405 0.0
C31 C 0.30361 0.48872 0.99491 0.0
C32 C 0.28562 0.49 0.02729 0.0
C33 C 0.19332 0.46428 0.08473 0.0
C34 C 0.19153 0.47372 0.02779 0.0
C35 C 0.16888 0.46456 0.99474 0.0
C36 C 0.14754 0.44582 0.01806 0.0
C37 C 0.1493 0.43635 0.07508 0.0
C38 C 0.17205 0.44534 0.10785 0.0
C39 C 0.21762 0.47341 0.11813 0.0
C40 C 0.23592 0.47265 0.08532 0.0
C41 C 0.22245 0.48144 0.18222 0.0
C42 C 0.2042 0.4835 0.21904 0.0
C43 C 0.1936 0.49747 0.1993 0.0
C44 C 0.17601 0.49881 0.23369 0.0
C45 C 0.16876 0.48623 0.2885 0.0
C46 C 0.1798 0.47269 0.3087 0.0
C47 C 0.19734 0.47137 0.27439 0.0
H48 H 0.7699 0.28203 0.00027 0.0
H49 H 0.79381 0.31594 0.93473 0.0
H50 H 0.86 0.31894 0.00763 0.0
H51 H 0.83604 0.28396 0.07033 0.0
H52 H 0.7612 0.23852 0.99639 0.0
H53 H 0.79851 0.30346 0.16874 0.0
H54 H 0.83179 0.3367 0.23681 0.0
H55 H 0.86378 0.29042 0.26508 0.0
H56 H 0.83041 0.25725 0.1975 0.0
H57 H 0.74522 0.16869 0.12454 0.0
H58 H 0.71232 0.13238 0.16869 0.0
H59 H 0.6948 0.18011 0.2775 0.0
H60 H 0.72767 0.2163 0.23318 0.0
H61 H 0.77999 0.23573 0.22143 0.0
H62 H 0.74781 0.18726 0.98055 0.0
H63 H 0.71121 0.15171 0.929 0.0
H64 H 0.66613 0.1663 0.04858 0.0
H65 H 0.70276 0.20236 0.09808 0.0
C66 C 0.8011 0.28046 0.04107 0.0
C67 C 0.78956 0.28985 0.00217 0.0
C68 C 0.80316 0.30923 0.96478 0.0
C69 C 0.82864 0.31997 0.96649 0.0
C70 C 0.84034 0.31104 0.00614 0.0
C71 C 0.82666 0.29121 0.04243 0.0
C72 C 0.78604 0.25855 0.07688 0.0
C73 C 0.76549 0.23817 0.0456 0.0
C74 C 0.79142 0.25744 0.141 0.0
C75 C 0.81222 0.27809 0.178 0.0
C76 C 0.81282 0.30063 0.18927 0.0
C77 C 0.83165 0.31943 0.22842 0.0
C78 C 0.85019 0.31597 0.2562 0.0
C79 C 0.84973 0.29352 0.24393 0.0
C80 C 0.83075 0.27463 0.20554 0.0
C81 C 0.7388 0.19511 0.17567 0.0
C82 C 0.73461 0.17131 0.15895 0.0
C83 C 0.71582 0.15063 0.18404 0.0
C84 C 0.70085 0.15346 0.22585 0.0
C85 C 0.70585 0.17741 0.24465 0.0
C86 C 0.72479 0.19809 0.22005 0.0
C87 C 0.75537 0.21645 0.1409 0.0
C88 C 0.77606 0.2364 0.17215 0.0
C89 C 0.75002 0.21744 0.07711 0.0
C90 C 0.72788 0.19721 0.04312 0.0
C91 C 0.72999 0.1829 0.99498 0.0
C92 C 0.70912 0.16245 0.9663 0.0
C93 C 0.68584 0.15607 0.98536 0.0
C94 C 0.6838 0.17083 0.03276 0.0
C95 C 0.70467 0.19133 0.06118 0.0
H96 H 0.57816 0.75326 0.96678 0.0
H97 H 0.58433 0.72649 0.89234 0.0
H98 H 0.50779 0.67144 0.8916 0.0
H99 H 0.50181 0.69804 0.96641 0.0
H100 H 0.54412 0.76994 0.94185 0.0
H101 H 0.55919 0.72083 0.08454 0.0
H102 H 0.55469 0.68585 0.14206 0.0
H103 H 0.48325 0.67052 0.19032 0.0
H104 H 0.48718 0.70469 0.13051 0.0
H105 H 0.48261 0.76448 0.13878 0.0
H106 H 0.47749 0.78982 0.21932 0.0
H107 H 0.55076 0.84948 0.19843 0.0
H108 H 0.55588 0.82396 0.11844 0.0
H109 H 0.51582 0.75016 0.15394 0.0
H110 H 0.49434 0.78968 0.99914 0.0
H111 H 0.49353 0.82102 0.93561 0.0
H112 H 0.57 0.85059 0.90655 0.0
H113 H 0.57074 0.81923 0.9704 0.0
C114 C 0.5396 0.7274 0.97234 0.0
C115 C 0.56281 0.73532 0.95083 0.0
C116 C 0.56629 0.72014 0.90838 0.0
C117 C 0.54645 0.69715 0.88592 0.0
C118 C 0.52326 0.68929 0.90763 0.0
C119 C 0.51989 0.70427 0.95078 0.0
C120 C 0.53549 0.74415 0.01323 0.0
C121 C 0.53834 0.76586 0.98875 0.0
C122 C 0.52678 0.73799 0.07306 0.0
C123 C 0.52346 0.7154 0.10256 0.0
C124 C 0.54223 0.70953 0.10576 0.0
C125 C 0.53974 0.68965 0.13904 0.0
C126 C 0.51869 0.67565 0.17086 0.0
C127 C 0.49975 0.68119 0.16667 0.0
C128 C 0.50202 0.70072 0.13248 0.0
C129 C 0.51959 0.7924 0.12262 0.0
C130 C 0.4974 0.78318 0.15086 0.0
C131 C 0.49449 0.79765 0.19675 0.0
C132 C 0.51384 0.82146 0.21556 0.0
C133 C 0.53569 0.83102 0.18542 0.0
C134 C 0.53852 0.81661 0.1392 0.0
C135 C 0.52408 0.7757 0.08221 0.0
C136 C 0.52152 0.75414 0.10697 0.0
C137 C 0.53231 0.78151 0.02199 0.0
C138 C 0.53266 0.80228 0.98998 0.0
C139 C 0.51104 0.80318 0.98002 0.0
C140 C 0.51051 0.82087 0.94304 0.0
C141 C 0.53165 0.83808 0.91569 0.0
C142 C 0.55346 0.8376 0.9272 0.0
C143 C 0.55391 0.81973 0.96364 0.0
H144 H 0.81675 0.51214 0.05808 0.0
H145 H 0.8555 0.51572 0.09151 0.0
H146 H 0.87875 0.58767 0.18284 0.0
H147 H 0.8408 0.58506 0.14221 0.0
H148 H 0.7951 0.55545 0.16377 0.0
H149 H 0.78668 0.49801 0.94332 0.0
H150 H 0.81664 0.49441 0.88284 0.0
H151 H 0.8646 0.57375 0.90833 0.0
H152 H 0.83521 0.57678 0.97182 0.0
H153 H 0.73853 0.56871 0.02173 0.0
H154 H 0.69806 0.55958 0.98097 0.0
H155 H 0.67501 0.48159 0.96254 0.0
H156 H 0.71613 0.49132 0.99972 0.0
H157 H 0.76264 0.52786 0.94333 0.0
H158 H 0.77403 0.58631 0.16776 0.0
H159 H 0.74923 0.58956 0.24796 0.0
H160 H 0.69674 0.51166 0.2124 0.0
H161 H 0.72181 0.50847 0.13419 0.0
C162 C 0.82608 0.54863 0.09594 0.0
C163 C 0.8305 0.52907 0.08344 0.0
C164 C 0.8526 0.53095 0.10396 0.0
C165 C 0.87045 0.55195 0.14036 0.0
C166 C 0.86579 0.57141 0.15383 0.0
C167 C 0.84389 0.56982 0.13146 0.0
C168 C 0.80256 0.54648 0.07278 0.0
C169 C 0.78826 0.54999 0.11532 0.0
C170 C 0.79345 0.53913 0.00972 0.0
C171 C 0.80894 0.5376 0.9625 0.0
C172 C 0.80349 0.51462 0.93471 0.0
C173 C 0.82069 0.51263 0.90016 0.0
C174 C 0.84337 0.53372 0.89172 0.0
C175 C 0.84777 0.55697 0.91563 0.0
C176 C 0.83083 0.55884 0.95116 0.0
C177 C 0.73023 0.5307 0.01314 0.0
C178 C 0.72467 0.54968 0.00889 0.0
C179 C 0.70137 0.54431 0.98622 0.0
C180 C 0.68306 0.51976 0.96831 0.0
C181 C 0.68867 0.50073 0.97456 0.0
C182 C 0.71212 0.50621 0.99608 0.0
C183 C 0.75512 0.53646 0.03467 0.0
C184 C 0.76969 0.53377 0.99153 0.0
C185 C 0.76461 0.54503 0.09695 0.0
C186 C 0.74958 0.54721 0.14464 0.0
C187 C 0.75718 0.56998 0.17754 0.0
C188 C 0.74297 0.57183 0.22302 0.0
C189 C 0.7211 0.55085 0.23673 0.0
C190 C 0.71367 0.5281 0.20368 0.0
C191 C 0.72781 0.52628 0.15835 0.0
H192 H 0.23117 0.83741 0.00102 0.0
H193 H 0.25957 0.8719 0.9416 0.0
H194 H 0.31525 0.85246 0.98061 0.0
H195 H 0.28687 0.81792 0.03836 0.0
H196 H 0.21311 0.78603 0.9968 0.0
H197 H 0.26746 0.85829 0.13133 0.0
H198 H 0.30708 0.89153 0.17545 0.0
H199 H 0.32477 0.83722 0.241 0.0
H200 H 0.28596 0.80422 0.1926 0.0
H201 H 0.23 0.74468 0.21486 0.0
H202 H 0.20926 0.71486 0.29207 0.0
H203 H 0.14434 0.72002 0.25319 0.0
H204 H 0.16552 0.75048 0.1767 0.0
H205 H 0.24155 0.79098 0.21822 0.0
H206 H 0.19348 0.71983 0.08578 0.0
H207 H 0.15989 0.68388 0.02706 0.0
H208 H 0.13468 0.73041 0.94781 0.0
H209 H 0.16763 0.76641 0.00941 0.0
C210 C 0.25715 0.82551 0.02516 0.0
C211 C 0.24934 0.84031 0.99554 0.0
C212 C 0.2655 0.85995 0.96179 0.0
C213 C 0.28963 0.86499 0.95771 0.0
C214 C 0.29685 0.84918 0.98411 0.0
C215 C 0.28068 0.82947 0.017 0.0
C216 C 0.24159 0.80716 0.06854 0.0
C217 C 0.21893 0.78726 0.04565 0.0
C218 C 0.24985 0.80842 0.13145 0.0
C219 C 0.27379 0.82877 0.15843 0.0
C220 C 0.28009 0.85359 0.15415 0.0
C221 C 0.30268 0.87257 0.17994 0.0
C222 C 0.31914 0.86709 0.21201 0.0
C223 C 0.31281 0.84219 0.21572 0.0
C224 C 0.29041 0.82325 0.18897 0.0
C225 C 0.19931 0.7498 0.18985 0.0
C226 C 0.21127 0.73937 0.22282 0.0
C227 C 0.19934 0.7222 0.26674 0.0
C228 C 0.17516 0.71509 0.27894 0.0
C229 C 0.16307 0.72535 0.24541 0.0
C230 C 0.17504 0.74254 0.20119 0.0
C231 C 0.21296 0.76931 0.14655 0.0
C232 C 0.2353 0.7897 0.16968 0.0
C233 C 0.20467 0.76799 0.08342 0.0
C234 C 0.18283 0.74581 0.05319 0.0
C235 C 0.18027 0.72228 0.05773 0.0
C236 C 0.16125 0.70178 0.02363 0.0
C237 C 0.14488 0.70456 0.98311 0.0
C238 C 0.14723 0.72796 0.9787 0.0
C239 C 0.16595 0.74842 0.01393 0.0
H240 H 0.52754 0.23814 0.09353 0.0
H241 H 0.54476 0.21506 0.0436 0.0
H242 H 0.48096 0.14638 0.08115 0.0
H243 H 0.46342 0.16943 0.12932 0.0
H244 H 0.4881 0.23748 0.05037 0.0
H245 H 0.5123 0.21572 0.24477 0.0
H246 H 0.51299 0.18679 0.31748 0.0
H247 H 0.4345 0.15179 0.32249 0.0
H248 H 0.43387 0.18017 0.24828 0.0
H249 H 0.41907 0.2352 0.23014 0.0
H250 H 0.40945 0.2632 0.28927 0.0
H251 H 0.47388 0.32595 0.2289 0.0
H252 H 0.48447 0.29828 0.17374 0.0
H253 H 0.45449 0.22924 0.25686 0.0
H254 H 0.43202 0.25582 0.06784 0.0
H255 H 0.43292 0.28445 0.99155 0.0
H256 H 0.50995 0.3115 0.97605 0.0
H257 H 0.50919 0.28396 0.05388 0.0
C258 C 0.49419 0.20551 0.11518 0.0
C259 C 0.5174 0.2181 0.09177 0.0
C260 C 0.52726 0.20497 0.06344 0.0
C261 C 0.51419 0.17902 0.05869 0.0
C262 C 0.49156 0.16641 0.08508 0.0
C263 C 0.48152 0.17956 0.11262 0.0
C264 C 0.48243 0.2196 0.1365 0.0
C265 C 0.481 0.23598 0.0959 0.0
C266 C 0.4722 0.21672 0.19468 0.0
C267 C 0.47298 0.1998 0.2402 0.0
C268 C 0.49524 0.20171 0.26128 0.0
C269 C 0.49564 0.18538 0.3035 0.0
C270 C 0.47378 0.16694 0.32565 0.0
C271 C 0.45161 0.16556 0.30571 0.0
C272 C 0.45123 0.18184 0.26351 0.0
C273 C 0.45236 0.26457 0.19663 0.0
C274 C 0.43096 0.255 0.22889 0.0
C275 C 0.42543 0.27089 0.26252 0.0
C276 C 0.44088 0.29654 0.26293 0.0
C277 C 0.46153 0.30615 0.22825 0.0
C278 C 0.46744 0.29032 0.19616 0.0
C279 C 0.46071 0.24786 0.17136 0.0
C280 C 0.46136 0.23076 0.21104 0.0
C281 C 0.47046 0.2503 0.11238 0.0
C282 C 0.47058 0.26782 0.06709 0.0
C283 C 0.44915 0.26816 0.04852 0.0
C284 C 0.44963 0.28432 0.0043 0.0
C285 C 0.47153 0.30036 0.97768 0.0
C286 C 0.49285 0.29977 0.9962 0.0
C287 C 0.49239 0.2838 0.04042 0.0
C288 C 0.04214 0.48767 0.5507 0.0
C289 C 0.01719 0.44881 0.76902 0.0
C290 C 0.95091 0.44995 0.72473 0.0
Mg291 Mg 0.02533 0.52182 0.47825 0.0
Mg292 Mg 0.01105 0.55868 0.55637 0.0
O293 O 0.00472 0.52623 0.5401 0.0
Mg294 Mg 0.00884 0.50816 0.6098 0.0
O295 O 0.01303 0.4881 0.67449 0.0
Mg296 Mg 0.99442 0.4542 0.62998 0.0
Mg297 Mg 0.00342 0.48981 0.75412 0.0
C298 C 0.9761 0.53113 0.6637 0.0
O299 O 0.03507 0.54353 0.67299 0.0
O300 O 0.00827 0.53746 0.40774 0.0
O301 O 0.02319 0.52953 0.76779 0.0
O302 O 0.05793 0.5614 0.49943 0.0
O303 O -0.00152 0.56191 0.46459 0.0
O304 O 0.04975 0.58421 0.56494 0.0
O305 O 0.98192 0.47192 0.55506 0.0
O306 O 0.99324 0.4825 0.45902 0.0
C307 C 0.97986 0.46653 0.49641 0.0
C308 C -0.00066 0.55196 0.41233 0.0
O309 O 0.97895 0.51218 0.65707 0.0
O310 O 0.01031 0.44143 0.71125 0.0
O311 O 0.98815 0.55089 0.6347 0.0
O312 O 0.95902 0.44153 0.68266 0.0
O313 O 0.01609 0.467 0.79484 0.0
O314 O 0.96467 0.47085 0.75399 0.0
O315 O 0.03859 0.5061 0.55748 0.0
O316 O 0.02886 0.46741 0.5764 0.0
C317 C 0.06455 0.58163 0.53148 0.0
C318 C 0.03512 0.54715 0.73236 0.0
C319 C 0.49839 0.04029 0.52465 0.0
C320 C 0.56352 0.02034 0.4332 0.0
C321 C 0.51669 0.94829 0.50211 0.0
Mg322 Mg 0.46699 0.01853 0.64413 0.0
Mg323 Mg 0.48638 -0.00286 0.75633 0.0
O324 O 0.47725 0.99425 0.67112 0.0
Mg325 Mg 0.50321 0.00164 0.61262 0.0
O326 O 0.52791 0.0096 0.55037 0.0
Mg327 Mg 0.50518 0.99469 0.47312 0.0
Mg328 Mg 0.55097 -0.00074 0.56393 0.0
C329 C 0.50808 0.96409 0.70814 0.0
O330 O 0.5351 0.02535 0.68426 0.0
O331 O 0.43566 -0.00056 0.71173 0.0
O332 O 0.56401 0.01614 0.65832 0.0
O333 O 0.49103 0.04869 0.72238 0.0
O334 O 0.45084 0.98553 0.78714 0.0
O335 O 0.50908 0.03487 0.7878 0.0
O336 O 0.47303 0.97854 0.53703 0.0
O337 O 0.44578 0.98956 0.56384 0.0
C338 C 0.45247 0.97774 0.52717 0.0
C339 C 0.43365 0.9884 0.76239 0.0
O340 O 0.50675 0.96905 0.65099 0.0
O341 O 0.54089 0.01369 0.42007 0.0
O342 O 0.50288 0.97409 0.75359 0.0
O343 O 0.50669 0.95874 0.47266 0.0
O344 O 0.57124 0.01649 0.48543 0.0
O345 O 0.5335 0.95995 0.54558 0.0
O346 O 0.49897 0.03388 0.58036 0.0
O347 O 0.502 0.02944 0.47814 0.0
C348 C 0.50589 0.0522 0.76917 0.0
C349 C 0.55585 0.02659 0.69499 0.0
C350 C 0.51842 0.54429 0.68484 0.0
C351 C 0.43916 0.4673 0.76164 0.0
C352 C 0.47481 0.42716 0.70305 0.0
Mg353 Mg 0.55095 0.54574 0.57283 0.0
Mg354 Mg 0.52747 0.50425 0.45442 0.0
O355 O 0.53315 0.50988 0.54083 0.0
Mg356 Mg 0.50496 0.49627 0.59428 0.0
O357 O 0.47846 0.48442 0.65252 0.0
Mg358 Mg 0.49816 0.48894 0.73281 0.0
Mg359 Mg 0.45138 0.45249 0.6338 0.0
C360 C 0.49061 0.45011 0.49407 0.0
O361 O 0.47709 0.4944 0.51907 0.0
O362 O 0.58273 0.55 0.51248 0.0
O363 O 0.44333 0.4587 0.53851 0.0
O364 O 0.53527 0.55864 0.4916 0.0
O365 O 0.56507 0.5183 0.43864 0.0
O366 O 0.51598 0.52832 0.41701 0.0
O367 O 0.5307 0.4971 0.67339 0.0
O368 O 0.56452 0.5324 0.65533 0.0
C369 C 0.55305 0.51366 0.68784 0.0
C370 C 0.58395 0.53704 0.46637 0.0
O371 O 0.4929 0.45693 0.55224 0.0
O372 O 0.46208 0.47972 0.78017 0.0
O373 O 0.50079 0.46529 0.45185 0.0
O374 O 0.48772 0.44824 0.7326 0.0
O375 O 0.43145 0.45577 0.70764 0.0
O376 O 0.45999 0.42404 0.65673 0.0
O377 O 0.51746 0.53582 0.62921 0.0
O378 O 0.51059 0.53006 0.72988 0.0
C379 C 0.52268 0.55009 0.43928 0.0
C380 C 0.45494 0.47709 0.50468 0.0
H381 H 0.13131 0.4477 0.34101 0.0
H382 H 0.07576 0.52703 0.48841 0.0
H383 H 0.16193 0.52566 0.31665 0.0
H384 H 0.05106 0.45044 0.51954 0.0
H385 H 0.10632 0.52724 0.42163 0.0
H386 H 0.10052 0.44861 0.4027 0.0
C387 C 0.13164 0.46508 0.34894 0.0
C388 C 0.14942 0.48669 0.32414 0.0
C389 C 0.09415 0.51044 0.44316 0.0
C390 C 0.11386 0.48786 0.39456 0.0
C391 C 0.07671 0.5103 0.48124 0.0
C392 C 0.06081 0.48871 0.50985 0.0
C393 C 0.09558 0.48882 0.43361 0.0
C394 C 0.0629 0.46757 0.49882 0.0
C395 C 0.11394 0.46558 0.38398 0.0
C396 C 0.14851 0.50854 0.33471 0.0
N397 N 0.07989 0.46819 0.46174 0.0
N398 N 0.13108 0.50861 0.3694 0.0
H399 H 0.65421 0.14486 0.22933 0.0
H400 H 0.60944 0.02702 0.42694 0.0
H401 H 0.69881 0.11214 0.27166 0.0
H402 H 0.55996 0.04815 0.3419 0.0
H403 H 0.64206 0.05709 0.36789 0.0
H404 H 0.61929 0.10926 0.2692 0.0
C405 C 0.65662 0.13015 0.24716 0.0
C406 C 0.67946 0.13154 0.24796 0.0
C407 C 0.62399 0.05492 0.36143 0.0
C408 C 0.6396 0.09071 0.29328 0.0
C409 C 0.60534 0.03775 0.39514 0.0
C410 C 0.58198 0.03523 0.38976 0.0
C411 C 0.61939 0.06999 0.32278 0.0
C412 C 0.57769 0.04949 0.34752 0.0
C413 C 0.63665 0.10975 0.26936 0.0
C414 C 0.6815 0.11178 0.27033 0.0
N415 N 0.59633 0.06655 0.31636 0.0
N416 N 0.66188 0.09228 0.29277 0.0
H417 H 0.50772 0.67013 0.29237 0.0
H418 H 0.50889 0.54365 0.31464 0.0
H419 H 0.52573 0.63689 0.14011 0.0
H420 H 0.52593 0.59434 0.47543 0.0
H421 H 0.50592 0.5733 0.24897 0.0
H422 H 0.50586 0.63822 0.35893 0.0
C423 C 0.51108 0.65597 0.27291 0.0
C424 C 0.51691 0.65608 0.21079 0.0
C425 C 0.51015 0.57782 0.29868 0.0
C426 C 0.51458 0.61956 0.28619 0.0
C427 C 0.51168 0.56085 0.33635 0.0
C428 C 0.51788 0.56659 0.40068 0.0
C429 C 0.51442 0.60052 0.32555 0.0
C430 C 0.52132 0.58923 0.42602 0.0
C431 C 0.51013 0.6379 0.3109 0.0
C432 C 0.52133 0.63749 0.18789 0.0
N433 N 0.51955 0.6054 0.38836 0.0
N434 N 0.51995 0.61987 0.22553 0.0
H435 H 0.87607 0.51324 0.17723 0.0
H436 H 0.99462 0.59198 0.388 0.0
H437 H 0.9167 0.59262 0.1656 0.0
H438 H 0.97548 0.51924 0.31179 0.0
H439 H 0.96689 0.59356 0.30743 0.0
H440 H 0.91224 0.51515 0.22683 0.0
C441 C 0.89264 0.53107 0.18377 0.0
C442 C 0.89308 0.55284 0.16702 0.0
C443 C 0.96921 0.57751 0.3075 0.0
C444 C 0.93451 0.55508 0.22632 0.0
C445 C 0.98494 0.57656 0.35347 0.0
C446 C 0.98707 0.55533 0.3568 0.0
C447 C 0.95508 0.5568 0.26587 0.0
C448 C 0.97429 0.53592 0.31085 0.0
C449 C 0.91332 0.53209 0.21249 0.0
C450 C 0.91516 0.57539 0.17891 0.0
N451 N 0.95835 0.53687 0.26804 0.0
N452 N 0.93488 0.57598 0.20883 0.0
H453 H 0.32559 0.90898 0.27477 0.0
H454 H 0.45321 0.94233 0.44863 0.0
H455 H 0.36433 0.8706 0.22828 0.0
H456 H 0.41521 0.98286 0.47698 0.0
H457 H 0.42344 0.91818 0.36069 0.0
H458 H 0.36099 0.93896 0.34051 0.0
C459 C 0.3417 0.90706 0.27734 0.0
C460 C 0.34181 0.88703 0.24614 0.0
C461 C 0.42183 0.93254 0.38594 0.0
C462 C 0.3824 0.92108 0.32362 0.0
C463 C 0.43878 0.94628 0.43606 0.0
C464 C 0.43636 0.96425 0.47091 0.0
C465 C 0.40253 0.93698 0.37086 0.0
C466 C 0.41749 0.96881 0.45238 0.0
C467 C 0.36193 0.92414 0.31554 0.0
C468 C 0.3632 0.88541 0.25258 0.0
N469 N 0.40125 0.95515 0.40405 0.0
N470 N 0.38256 0.90205 0.29127 0.0
H471 H 0.44141 0.29847 0.38947 0.0
H472 H 0.4585 0.43347 0.39344 0.0
H473 H 0.43332 0.33374 0.2289 0.0
H474 H 0.48504 0.40797 0.54557 0.0
H475 H 0.43658 0.39157 0.34485 0.0
H476 H 0.44526 0.33296 0.45713 0.0
C477 C 0.43967 0.31313 0.3688 0.0
C478 C 0.43722 0.31357 0.30386 0.0
C479 C 0.44693 0.39498 0.38921 0.0
C480 C 0.44173 0.35277 0.38011 0.0
C481 C 0.45949 0.41887 0.41684 0.0
C482 C 0.47414 0.42413 0.47241 0.0
C483 C 0.44939 0.37626 0.41674 0.0
C484 C 0.47423 0.40457 0.50201 0.0
C485 C 0.44202 0.3328 0.40723 0.0
C486 C 0.43533 0.33294 0.27885 0.0
N487 N 0.46246 0.38143 0.47297 0.0
N488 N 0.43786 0.35191 0.31704 0.0
H489 H 0.49718 0.83009 0.8219 0.0
H490 H 0.54291 0.972 0.79749 0.0
H491 H 0.56437 0.88768 0.9169 0.0
H492 H 0.49201 0.91706 0.65749 0.0
H493 H 0.55191 0.94137 0.83926 0.0
H494 H 0.49501 0.86113 0.75962 0.0
C495 C 0.5115 0.84927 0.82949 0.0
C496 C 0.53085 0.8564 0.87508 0.0
C497 C 0.53906 0.93601 0.79878 0.0
C498 C 0.52852 0.8919 0.80399 0.0
C499 C 0.53394 0.95348 0.77499 0.0
C500 C 0.51661 0.94687 0.72442 0.0
C501 C 0.52628 0.91154 0.77282 0.0
C502 C 0.50551 0.92277 0.6966 0.0
C503 C 0.51037 0.86691 0.79355 0.0
C504 C 0.54915 0.8814 0.88226 0.0
N505 N 0.51018 0.90573 0.72199 0.0
N506 N 0.54737 0.89828 0.84767 0.0
H507 H 0.65374 0.48415 0.87569 0.0
H508 H 0.58433 0.55069 0.77169 0.0
H509 H 0.65686 0.54304 0.99459 0.0
H510 H 0.55218 0.47225 0.72827 0.0
H511 H 0.61147 0.54873 0.85321 0.0
H512 H 0.61676 0.47899 0.82084 0.0
C513 C 0.64649 0.4957 0.89134 0.0
C514 C 0.65885 0.51436 0.93959 0.0
C515 C 0.59817 0.53185 0.82669 0.0
C516 C 0.61678 0.50888 0.87526 0.0
C517 C 0.5828 0.53299 0.78011 0.0
C518 C 0.56628 0.51164 0.74316 0.0
C519 C 0.59749 0.50935 0.83494 0.0
C520 C 0.56478 0.4891 0.75592 0.0
C521 C 0.62536 0.49274 0.85967 0.0
C522 C 0.64855 0.52894 0.95653 0.0
N523 N 0.58067 0.48862 0.79996 0.0
N524 N 0.6284 0.52622 0.92362 0.0
H525 H 0.11081 0.66048 0.02193 0.0
H526 H 0.0714 0.58995 0.68653 0.0
H527 H 0.13658 0.69983 0.85633 0.0
H528 H 0.03047 0.56187 0.84835 0.0
H529 H 0.09619 0.63036 0.74495 0.0
H530 H 0.08193 0.62355 0.95691 0.0
C531 C 0.11016 0.66129 0.97173 0.0
C532 C 0.12594 0.68302 0.94419 0.0
C533 C 0.08158 0.61531 0.7671 0.0
C534 C 0.09332 0.64092 0.86934 0.0
C535 C 0.06747 0.59231 0.73387 0.0
C536 C 0.04915 0.57237 0.76293 0.0
C537 C 0.0773 0.61812 0.82957 0.0
C538 C 0.04474 0.57648 0.82432 0.0
C539 C 0.09369 0.6403 0.93458 0.0
C540 C 0.12449 0.68331 0.879 0.0
N541 N 0.05885 0.59875 0.85562 0.0
N542 N 0.10861 0.66239 0.84348 0.0
H543 H 0.51762 0.13851 0.08771 0.0
H544 H 0.50878 0.09579 0.73909 0.0
H545 H 0.52891 0.18757 0.94096 0.0
H546 H 0.52848 0.06248 0.88665 0.0
H547 H 0.51944 0.13138 0.81106 0.0
H548 H 0.52451 0.11175 0.01568 0.0
C549 C 0.52199 0.14382 0.0406 0.0
C550 C 0.52252 0.16508 0.01993 0.0
C551 C 0.52191 0.1165 0.82732 0.0
C552 C 0.53001 0.13456 0.93727 0.0
C553 C 0.51576 0.09615 0.78628 0.0
C554 C 0.51717 0.07588 0.80732 0.0
C555 C 0.52903 0.1163 0.88999 0.0
C556 C 0.5267 0.07752 0.8687 0.0
C557 C 0.52603 0.12867 0.99962 0.0
C558 C 0.52839 0.17132 0.95865 0.0
N559 N 0.53173 0.09712 0.90835 0.0
N560 N 0.53143 0.15585 0.91903 0.0
H561 H 0.3555 0.47677 0.0616 0.0
H562 H 0.39081 0.44944 0.72956 0.0
H563 H 0.31363 0.46738 0.88851 0.0
H564 H 0.44504 0.48456 0.88501 0.0
H565 H 0.36054 0.45045 0.79263 0.0
H566 H 0.38687 0.47471 0.00253 0.0
C567 C 0.35291 0.47419 0.01122 0.0
C568 C 0.33202 0.47228 0.9797 0.0
C569 C 0.37904 0.45795 0.81308 0.0
C570 C 0.36753 0.4698 0.91241 0.0
C571 C 0.39641 0.45728 0.77716 0.0
C572 C 0.42065 0.46703 0.80185 0.0
C573 C 0.38573 0.46824 0.8746 0.0
C574 C 0.42661 0.47694 0.86396 0.0
C575 C 0.37082 0.47316 0.97768 0.0
C576 C 0.32957 0.46916 0.91451 0.0
N577 N 0.40922 0.47727 0.89837 0.0
N578 N 0.34705 0.46789 0.88308 0.0
H579 H 0.8236 0.31921 0.83967 0.0
H580 H 0.93113 0.45883 0.826 0.0
H581 H 0.86609 0.36636 0.00175 0.0
H582 H 0.91625 0.40264 0.68058 0.0
H583 H 0.89774 0.42791 0.88138 0.0
H584 H 0.84912 0.35246 0.77302 0.0
C585 C 0.83815 0.33669 0.86107 0.0
C586 C 0.84298 0.34015 0.92603 0.0
C587 C 0.90157 0.4225 0.83683 0.0
C588 C 0.87163 0.37809 0.85077 0.0
C589 C 0.92052 0.44015 0.80483 0.0
C590 C 0.92693 0.43324 0.74906 0.0
C591 C 0.88865 0.39783 0.81258 0.0
C592 C 0.91222 0.40874 0.72385 0.0
C593 C 0.85264 0.35553 0.82319 0.0
C594 C 0.862 0.36299 0.95178 0.0
N595 N 0.89391 0.39181 0.75619 0.0
N596 N 0.87562 0.38115 0.91406 0.0
H597 H 0.83855 0.50124 0.79418 0.0
H598 H 0.97796 0.56932 0.73286 0.0
H599 H 0.89297 0.56081 0.92013 0.0
H600 H 0.93243 0.49086 0.68696 0.0
H601 H 0.94573 0.56846 0.79302 0.0
H602 H 0.87138 0.49856 0.74517 0.0
C603 C 0.85728 0.51366 0.81189 0.0
C604 C 0.86289 0.53152 0.86104 0.0
C605 C 0.9429 0.5514 0.77021 0.0
C606 C 0.90042 0.52878 0.80417 0.0
C607 C 0.9612 0.55189 0.73579 0.0
C608 C 0.95772 0.53015 0.70477 0.0
C609 C 0.92075 0.52915 0.77234 0.0
C610 C 0.93577 0.508 0.71037 0.0
C611 C 0.87598 0.5121 0.78376 0.0
C612 C 0.88765 0.54727 0.88123 0.0
N613 N 0.91786 0.50811 0.74276 0.0
N614 N 0.90547 0.54571 0.85228 0.0
H615 H 0.2873 0.88132 0.84191 0.0
H616 H 0.42815 0.98576 0.88614 0.0
H617 H 0.3336 0.8999 0.01169 0.0
H618 H 0.38668 0.96519 0.70791 0.0
H619 H 0.39069 0.96027 0.93621 0.0
H620 H 0.32053 0.91688 0.79515 0.0
C621 C 0.30434 0.8931 0.86944 0.0
C622 C 0.30801 0.88755 0.93017 0.0
C623 C 0.3896 0.96147 0.88622 0.0
C624 C 0.34573 0.92802 0.87774 0.0
C625 C 0.411 0.97611 0.85768 0.0
C626 C 0.41048 0.97726 0.79282 0.0
C627 C 0.36749 0.94741 0.84957 0.0
C628 C 0.38778 0.96467 0.75812 0.0
C629 C 0.32325 0.91331 0.84286 0.0
C630 C 0.33028 0.90332 0.96423 0.0
N631 N 0.36715 0.94981 0.78684 0.0
N632 N 0.34831 0.92269 0.93743 0.0
H633 H 0.50797 0.34809 0.96832 0.0
H634 H 0.43955 0.37769 0.69184 0.0
H635 H 0.43744 0.29312 0.88201 0.0
H636 H 0.51215 0.4286 0.7742 0.0
H637 H 0.43911 0.34509 0.75348 0.0
H638 H 0.51018 0.3767 0.89208 0.0
C639 C 0.49299 0.34191 0.93295 0.0
C640 C 0.47254 0.31802 0.93159 0.0
C641 C 0.45524 0.36333 0.75729 0.0
C642 C 0.47478 0.35113 0.84401 0.0
C643 C 0.45558 0.38186 0.72174 0.0
C644 C 0.4758 0.40596 0.72848 0.0
C645 C 0.47528 0.36904 0.79958 0.0
C646 C 0.49602 0.41038 0.76815 0.0
C647 C 0.49423 0.35836 0.88938 0.0
C648 C 0.45346 0.31141 0.88533 0.0
N649 N 0.49513 0.39222 0.8025 0.0
N650 N 0.455 0.3279 0.84344 0.0
H651 H 0.10519 0.43848 0.06504 0.0
H652 H 0.04062 0.4248 0.72694 0.0
H653 H 0.13536 0.43344 0.8932 0.0
H654 H 0.02171 0.44865 0.89554 0.0
H655 H 0.06804 0.41557 0.78978 0.0
H656 H 0.06758 0.43002 0.00557 0.0
C657 C 0.10369 0.4351 0.0149 0.0
C658 C 0.12352 0.43708 0.9838 0.0
C659 C 0.05751 0.42238 0.813 0.0
C660 C 0.08074 0.4276 0.91561 0.0
C661 C 0.04176 0.42751 0.77723 0.0
C662 C 0.02928 0.43797 0.80606 0.0
C663 C 0.0606 0.42762 0.87787 0.0
C664 C 0.0314 0.44106 0.87137 0.0
C665 C 0.0823 0.43039 0.98098 0.0
C666 C 0.12066 0.43261 0.91876 0.0
N667 N 0.04702 0.43621 0.90503 0.0
N668 N 0.09976 0.42834 0.8867 0.0
H669 H 0.64201 0.15238 0.94944 0.0
H670 H 0.59237 0.02293 0.75776 0.0
H671 H 0.67943 0.11044 0.95188 0.0
H672 H 0.55583 0.06565 0.75496 0.0
H673 H 0.62145 0.05178 0.84066 0.0
H674 H 0.60708 0.11764 0.89098 0.0
C675 C 0.64275 0.13573 0.93838 0.0
C676 C 0.66378 0.13441 0.95471 0.0
C677 C 0.60683 0.05462 0.82256 0.0
C678 C 0.62406 0.09476 0.88698 0.0
C679 C 0.5903 0.03821 0.7752 0.0
C680 C 0.57172 0.04197 0.74958 0.0
C681 C 0.60486 0.07502 0.8438 0.0
C682 C 0.56966 0.06188 0.7741 0.0
C683 C 0.62284 0.11593 0.90474 0.0
C684 C 0.66379 0.11244 0.93884 0.0
N685 N 0.58621 0.07783 0.81943 0.0
N686 N 0.64431 0.09355 0.90527 0.0
H687 H 0.58044 0.68258 0.89626 0.0
H688 H 0.51495 0.57861 0.61636 0.0
H689 H 0.52001 0.67442 0.776 0.0
H690 H 0.5484 0.57041 0.7863 0.0
H691 H 0.52893 0.62178 0.6523 0.0
H692 H 0.58099 0.64964 0.83231 0.0
C693 C 0.56771 0.67424 0.85548 0.0
C694 C 0.54986 0.68075 0.84177 0.0
C695 C 0.5336 0.61059 0.6809 0.0
C696 C 0.5504 0.64339 0.76892 0.0
C697 C 0.5257 0.58611 0.66049 0.0
C698 C 0.53011 0.57103 0.69934 0.0
C699 C 0.54635 0.61988 0.73968 0.0
C700 C 0.5442 0.58144 0.75584 0.0
C701 C 0.56798 0.65548 0.81924 0.0
C702 C 0.53372 0.66947 0.78856 0.0
N703 N 0.55168 0.60522 0.77461 0.0
N704 N 0.53418 0.65107 0.7543 0.0
H705 H 0.4416 0.1172 0.31853 0.0
H706 H 0.51433 0.08639 0.58186 0.0
H707 H 0.50624 0.17399 0.42498 0.0
H708 H 0.46468 0.03463 0.43461 0.0
H709 H 0.50534 0.11794 0.54298 0.0
H710 H 0.44361 0.08611 0.37955 0.0
C711 C 0.45602 0.12321 0.35541 0.0
C712 C 0.47388 0.14826 0.3663 0.0
C713 C 0.49619 0.09954 0.51993 0.0
C714 C 0.4765 0.11257 0.43591 0.0
C715 C 0.50118 0.08159 0.54228 0.0
C716 C 0.49042 0.05814 0.5107 0.0
C717 C 0.48007 0.09364 0.46656 0.0
C718 C 0.47358 0.05267 0.4596 0.0
C719 C 0.45725 0.1054 0.39 0.0
C720 C 0.49233 0.15483 0.41431 0.0
N721 N 0.46902 0.07031 0.43896 0.0
N722 N 0.49328 0.13706 0.44715 0.0
H723 H 0.33183 0.45015 0.26633 0.0
H724 H 0.46419 0.51912 0.44735 0.0
H725 H 0.37475 0.5294 0.30161 0.0
H726 H 0.41428 0.4403 0.43922 0.0
H727 H 0.43631 0.52326 0.37229 0.0
H728 H 0.36631 0.44658 0.30846 0.0
C729 C 0.34859 0.46682 0.28296 0.0
C730 C 0.3503 0.49005 0.28203 0.0
C731 C 0.43169 0.50504 0.38627 0.0
C732 C 0.38991 0.48614 0.32996 0.0
C733 C 0.44764 0.50263 0.42879 0.0
C734 C 0.44122 0.47938 0.45052 0.0
C735 C 0.40935 0.48402 0.3653 0.0
C736 C 0.41965 0.45864 0.42475 0.0
C737 C 0.36831 0.46479 0.30662 0.0
C738 C 0.37266 0.51113 0.30218 0.0
N739 N 0.40436 0.4615 0.38407 0.0
N740 N 0.39155 0.50866 0.32625 0.0
H741 H 0.89924 0.33444 0.25253 0.0
H742 H 0.93663 0.43316 0.5421 0.0
H743 H 0.84603 0.34213 0.35449 0.0
H744 H 0.98261 0.44305 0.39123 0.0
H745 H 0.90512 0.39359 0.48951 0.0
H746 H 0.93199 0.3685 0.31935 0.0
C747 C 0.8945 0.34319 0.28941 0.0
C748 C 0.87002 0.33575 0.29785 0.0
C749 C 0.92224 0.4044 0.46846 0.0
C750 C 0.90716 0.37438 0.37431 0.0
C751 C 0.9402 0.42682 0.49847 0.0
C752 C 0.96201 0.44144 0.47035 0.0
C753 C 0.92647 0.39652 0.41083 0.0
C754 C 0.96584 0.43246 0.4139 0.0
C755 C 0.91313 0.36259 0.3273 0.0
C756 C 0.86476 0.34766 0.34609 0.0
N757 N 0.9482 0.41059 0.38587 0.0
N758 N 0.88323 0.36647 0.38262 0.0
H759 H 0.54716 0.84698 0.31377 0.0
H760 H 0.47684 0.91455 0.42763 0.0
H761 H 0.47534 0.8285 0.23719 0.0
H762 H 0.5439 0.92572 0.52074 0.0
H763 H 0.473 0.87883 0.36757 0.0
H764 H 0.54415 0.87252 0.39747 0.0
C765 C 0.53075 0.84833 0.31466 0.0
C766 C 0.51163 0.83598 0.26801 0.0
C767 C 0.48834 0.8888 0.40191 0.0
C768 C 0.50794 0.86494 0.36388 0.0
C769 C 0.49051 0.90918 0.43635 0.0
C770 C 0.51101 0.92344 0.47825 0.0
C771 C 0.50696 0.88287 0.40882 0.0
C772 C 0.52794 0.91542 0.48839 0.0
C773 C 0.52893 0.8627 0.36277 0.0
C774 C 0.49052 0.83782 0.27216 0.0
N775 N 0.52582 0.89594 0.45289 0.0
N776 N 0.48936 0.85231 0.31885 0.0
H777 H 0.6981 0.51813 0.32462 0.0
H778 H 0.62417 0.58216 0.448 0.0
H779 H 0.70915 0.58711 0.25823 0.0
H780 H 0.59783 0.50372 0.43884 0.0
H781 H 0.66201 0.58875 0.40283 0.0
H782 H 0.66823 0.5176 0.39301 0.0
C783 C 0.69432 0.53324 0.32467 0.0
C784 C 0.70569 0.55238 0.28457 0.0
C785 C 0.64799 0.57019 0.41156 0.0
C786 C 0.67169 0.55201 0.36331 0.0
C787 C 0.62657 0.56646 0.43742 0.0
C788 C 0.60791 0.54236 0.4463 0.0
C789 C 0.65075 0.54969 0.39626 0.0
C790 C 0.6117 0.52256 0.43186 0.0
C791 C 0.67736 0.53298 0.3639 0.0
C792 C 0.70068 0.57192 0.28814 0.0
N793 N 0.63266 0.52666 0.40756 0.0
N794 N 0.68377 0.5711 0.32632 0.0
H795 H 0.17652 0.67276 0.29999 0.0
H796 H 0.07874 0.63053 0.55685 0.0
H797 H 0.14563 0.71641 0.36682 0.0
H798 H 0.10246 0.58331 0.47124 0.0
H799 H 0.10984 0.6654 0.50497 0.0
H800 H 0.15536 0.64292 0.37703 0.0
C801 C 0.16547 0.6762 0.33126 0.0
C802 C 0.16271 0.69706 0.32652 0.0
C803 C 0.10852 0.6475 0.49846 0.0
C804 C 0.13829 0.66282 0.41489 0.0
C805 C 0.09093 0.6276 0.52865 0.0
C806 C 0.08762 0.60379 0.51741 0.0
C807 C 0.12294 0.64358 0.45699 0.0
C808 C 0.10405 0.60122 0.48046 0.0
C809 C 0.15334 0.65911 0.37519 0.0
C810 C 0.14793 0.70038 0.36799 0.0
N811 N 0.12072 0.62076 0.45079 0.0
N812 N 0.13619 0.68339 0.4102 0.0
loop_
_geom_bond_atom_site_label_1
_geom_bond_atom_site_label_2
_geom_bond_distance
_geom_bond_site_symmetry_2
_ccdc_geom_bond_type
H0 C19 0.949 . S
H1 C20 0.950 . S
H2 C22 0.950 . S
H3 C23 0.950 . S
H4 C25 0.950 . S
H5 C28 0.950 . S
H6 C29 0.950 . S
H7 C31 0.951 . S
H8 C32 0.949 . S
H9 C34 0.949 . S
H10 C35 0.950 . S
H11 C37 0.950 . S
H12 C38 0.950 . S
H13 C40 0.950 . S
H14 C43 0.950 . S
H15 C44 0.950 . S
H16 C46 0.951 . S
H17 C47 0.949 . S
C18 C19 1.376 . S
C18 C23 1.386 . S
C18 C24 1.483 . S
C19 H0 0.949 . S
C19 C18 1.376 . S
C19 C20 1.397 . S
C20 H1 0.950 . S
C20 C19 1.397 . S
C20 C21 1.391 . S
C21 C20 1.391 . S
C21 C22 1.405 . S
C22 H2 0.950 . S
C22 C21 1.405 . S
C22 C23 1.367 . S
C23 H3 0.950 . S
C23 C18 1.386 . S
C23 C22 1.367 . S
C24 C18 1.483 . S
C24 C25 1.382 . S
C24 C26 1.403 . S
C25 H4 0.950 . S
C25 C24 1.382 . S
C25 C41 1.411 . S
C26 C24 1.403 . S
C26 C27 1.489 . S
C26 C40 1.411 . S
C27 C26 1.489 . S
C27 C28 1.383 . S
C27 C32 1.382 . S
C28 H5 0.950 . S
C28 C27 1.383 . S
C28 C29 1.395 . S
C29 H6 0.950 . S
C29 C28 1.395 . S
C29 C30 1.288 . S
C30 C29 1.288 . S
C30 C31 1.392 . S
C31 H7 0.951 . S
C31 C30 1.392 . S
C31 C32 1.392 . S
C32 H8 0.949 . S
C32 C27 1.382 . S
C32 C31 1.392 . S
C33 C34 1.376 . S
C33 C38 1.386 . S
C33 C39 1.483 . S
C34 H9 0.949 . S
C34 C33 1.376 . S
C34 C35 1.397 . S
C35 H10 0.950 . S
C35 C34 1.397 . S
C35 C36 1.391 . S
C36 C35 1.391 . S
C36 C37 1.405 . S
C37 H11 0.950 . S
C37 C36 1.405 . S
C37 C38 1.367 . S
C38 H12 0.950 . S
C38 C33 1.386 . S
C38 C37 1.367 . S
C39 C33 1.483 . S
C39 C40 1.382 . S
C39 C41 1.403 . S
C40 H13 0.950 . S
C40 C26 1.411 . S
C40 C39 1.382 . S
C41 C25 1.411 . S
C41 C39 1.403 . S
C41 C42 1.489 . S
C42 C41 1.489 . S
C42 C43 1.383 . S
C42 C47 1.382 . S
C43 H14 0.950 . S
C43 C42 1.383 . S
C43 C44 1.395 . S
C44 H15 0.950 . S
C44 C43 1.395 . S
C44 C45 1.288 . S
C45 C44 1.288 . S
C45 C46 1.392 . S
C46 H16 0.951 . S
C46 C45 1.392 . S
C46 C47 1.392 . S
C47 H17 0.949 . S
C47 C42 1.382 . S
C47 C46 1.392 . S
H48 C67 0.949 . S
H49 C68 0.950 . S
H50 C70 0.950 1_554 S
H51 C71 0.950 . S
H52 C73 0.950 1_556 S
H53 C76 0.950 . S
H54 C77 0.950 . S
H55 C79 0.951 . S
H56 C80 0.949 . S
H57 C82 0.949 . S
H58 C83 0.950 . S
H59 C85 0.950 . S
H60 C86 0.950 . S
H61 C88 0.950 . S
H62 C91 0.950 . S
H63 C92 0.950 . S
H64 C94 0.951 . S
H65 C95 0.949 . S
C66 C67 1.376 1_554 S
C66 C71 1.386 . S
C66 C72 1.483 . S
C67 H48 0.949 . S
C67 C66 1.376 1_556 S
C67 C68 1.397 . S
C68 H49 0.950 . S
C68 C67 1.397 . S
C68 C69 1.391 . S
C69 C68 1.391 . S
C69 C70 1.408 . S
C70 H50 0.950 1_556 S
C70 C69 1.408 . S
C70 C71 1.364 1_556 S
C71 H51 0.950 . S
C71 C66 1.386 . S
C71 C70 1.364 1_554 S
C72 C66 1.483 . S
C72 C73 1.382 . S
C72 C74 1.403 . S
C73 H52 0.950 1_554 S
C73 C72 1.382 . S
C73 C89 1.411 . S
C74 C72 1.403 . S
C74 C75 1.489 . S
C74 C88 1.411 . S
C75 C74 1.489 . S
C75 C76 1.383 . S
C75 C80 1.382 . S
C76 H53 0.950 . S
C76 C75 1.383 . S
C76 C77 1.395 . S
C77 H54 0.950 . S
C77 C76 1.395 . S
C77 C78 1.288 . S
C78 C77 1.288 . S
C78 C79 1.392 . S
C79 H55 0.951 . S
C79 C78 1.392 . S
C79 C80 1.392 . S
C80 H56 0.949 . S
C80 C75 1.382 . S
C80 C79 1.392 . S
C81 C82 1.376 . S
C81 C86 1.386 . S
C81 C87 1.483 . S
C82 H57 0.949 . S
C82 C81 1.376 . S
C82 C83 1.397 . S
C83 H58 0.950 . S
C83 C82 1.397 . S
C83 C84 1.391 . S
C84 C83 1.391 . S
C84 C85 1.405 . S
C85 H59 0.950 . S
C85 C84 1.405 . S
C85 C86 1.367 . S
C86 H60 0.950 . S
C86 C81 1.386 . S
C86 C85 1.367 . S
C87 C81 1.483 . S
C87 C88 1.382 . S
C87 C89 1.403 . S
C88 H61 0.950 . S
C88 C74 1.411 . S
C88 C87 1.382 . S
C89 C73 1.411 . S
C89 C87 1.403 . S
C89 C90 1.489 . S
C90 C89 1.489 . S
C90 C91 1.383 . S
C90 C95 1.382 1_554 S
C91 H62 0.950 . S
C91 C90 1.383 . S
C91 C92 1.395 1_554 S
C92 H63 0.950 . S
C92 C91 1.395 1_556 S
C92 C93 1.288 . S
C93 C92 1.288 . S
C93 C94 1.392 . S
C94 H64 0.951 . S
C94 C93 1.392 . S
C94 C95 1.392 . S
C95 H65 0.949 . S
C95 C90 1.382 1_556 S
C95 C94 1.392 . S
H96 C115 0.949 . S
H97 C116 0.950 . S
H98 C118 0.950 . S
H99 C119 0.950 . S
H100 C121 0.950 . S
H101 C124 0.950 . S
H102 C125 0.950 . S
H103 C127 0.951 . S
H104 C128 0.949 . S
H105 C130 0.949 . S
H106 C131 0.950 . S
H107 C133 0.950 . S
H108 C134 0.950 . S
H109 C136 0.950 . S
H110 C139 0.950 . S
H111 C140 0.950 . S
H112 C142 0.951 . S
H113 C143 0.949 . S
C114 C115 1.376 . S
C114 C119 1.386 . S
C114 C120 1.483 1_556 S
C115 H96 0.949 . S
C115 C114 1.376 . S
C115 C116 1.397 . S
C116 H97 0.950 . S
C116 C115 1.397 . S
C116 C117 1.391 . S
C117 C116 1.391 . S
C117 C118 1.405 . S
C118 H98 0.950 . S
C118 C117 1.405 . S
C118 C119 1.367 . S
C119 H99 0.950 . S
C119 C114 1.386 . S
C119 C118 1.367 . S
C120 C114 1.483 1_554 S
C120 C121 1.382 1_554 S
C120 C122 1.403 . S
C121 H100 0.950 . S
C121 C120 1.382 1_556 S
C121 C137 1.411 1_556 S
C122 C120 1.403 . S
C122 C123 1.489 . S
C122 C136 1.411 . S
C123 C122 1.489 . S
C123 C124 1.383 . S
C123 C128 1.382 . S
C124 H101 0.950 . S
C124 C123 1.383 . S
C124 C125 1.395 . S
C125 H102 0.950 . S
C125 C124 1.395 . S
C125 C126 1.288 . S
C126 C125 1.288 . S
C126 C127 1.392 . S
C127 H103 0.951 . S
C127 C126 1.392 . S
C127 C128 1.392 . S
C128 H104 0.949 . S
C128 C123 1.382 . S
C128 C127 1.392 . S
C129 C130 1.376 . S
C129 C134 1.386 . S
C129 C135 1.483 . S
C130 H105 0.949 . S
C130 C129 1.376 . S
C130 C131 1.397 . S
C131 H106 0.950 . S
C131 C130 1.397 . S
C131 C132 1.391 . S
C132 C131 1.391 . S
C132 C133 1.405 . S
C133 H107 0.950 . S
C133 C132 1.405 . S
C133 C134 1.367 . S
C134 H108 0.950 . S
C134 C129 1.386 . S
C134 C133 1.367 . S
C135 C129 1.483 . S
C135 C136 1.382 . S
C135 C137 1.403 . S
C136 H109 0.950 . S
C136 C122 1.411 . S
C136 C135 1.382 . S
C137 C121 1.411 1_554 S
C137 C135 1.403 . S
C137 C138 1.489 1_554 S
C138 C137 1.489 1_556 S
C138 C139 1.383 . S
C138 C143 1.382 . S
C139 H110 0.950 . S
C139 C138 1.383 . S
C139 C140 1.395 . S
C140 H111 0.950 . S
C140 C139 1.395 . S
C140 C141 1.288 . S
C141 C140 1.288 . S
C141 C142 1.392 . S
C142 H112 0.951 . S
C142 C141 1.392 . S
C142 C143 1.392 . S
C143 H113 0.949 . S
C143 C138 1.382 . S
C143 C142 1.392 . S
H144 C163 0.949 . S
H145 C164 0.950 . S
H146 C166 0.950 . S
H147 C167 0.950 . S
H148 C169 0.950 . S
H149 C172 0.950 . S
H150 C173 0.950 . S
H151 C175 0.951 . S
H152 C176 0.949 . S
H153 C178 0.949 . S
H154 C179 0.950 . S
H155 C181 0.950 . S
H156 C182 0.950 . S
H157 C184 0.950 . S
H158 C187 0.950 . S
H159 C188 0.950 . S
H160 C190 0.951 . S
H161 C191 0.949 . S
C162 C163 1.376 . S
C162 C167 1.386 . S
C162 C168 1.483 . S
C163 H144 0.949 . S
C163 C162 1.376 . S
C163 C164 1.397 . S
C164 H145 0.950 . S
C164 C163 1.397 . S
C164 C165 1.391 . S
C165 C164 1.391 . S
C165 C166 1.405 . S
C166 H146 0.950 . S
C166 C165 1.405 . S
C166 C167 1.367 . S
C167 H147 0.950 . S
C167 C162 1.386 . S
C167 C166 1.367 . S
C168 C162 1.483 . S
C168 C169 1.382 . S
C168 C170 1.403 1_554 S
C169 H148 0.950 . S
C169 C168 1.382 . S
C169 C185 1.411 . S
C170 C168 1.403 1_556 S
C170 C171 1.489 . S
C170 C184 1.411 . S
C171 C170 1.489 . S
C171 C172 1.383 . S
C171 C176 1.382 . S
C172 H149 0.950 . S
C172 C171 1.383 . S
C172 C173 1.395 . S
C173 H150 0.950 . S
C173 C172 1.395 . S
C173 C174 1.288 . S
C174 C173 1.288 . S
C174 C175 1.392 . S
C175 H151 0.951 . S
C175 C174 1.392 . S
C175 C176 1.392 . S
C176 H152 0.949 . S
C176 C171 1.382 . S
C176 C175 1.392 . S
C177 C178 1.376 . S
C177 C182 1.386 . S
C177 C183 1.483 . S
C178 H153 0.949 . S
C178 C177 1.376 . S
C178 C179 1.397 . S
C179 H154 0.950 . S
C179 C178 1.397 . S
C179 C180 1.391 . S
C180 C179 1.391 . S
C180 C181 1.405 . S
C181 H155 0.950 . S
C181 C180 1.405 . S
C181 C182 1.367 . S
C182 H156 0.950 . S
C182 C177 1.386 . S
C182 C181 1.367 . S
C183 C177 1.483 . S
C183 C184 1.382 . S
C183 C185 1.403 1_556 S
C184 H157 0.950 . S
C184 C170 1.411 . S
C184 C183 1.382 . S
C185 C169 1.411 . S
C185 C183 1.403 1_554 S
C185 C186 1.489 . S
C186 C185 1.489 . S
C186 C187 1.383 . S
C186 C191 1.382 . S
C187 H158 0.950 . S
C187 C186 1.383 . S
C187 C188 1.395 . S
C188 H159 0.950 . S
C188 C187 1.395 . S
C188 C189 1.288 . S
C189 C188 1.288 . S
C189 C190 1.392 . S
C190 H160 0.951 . S
C190 C189 1.392 . S
C190 C191 1.392 . S
C191 H161 0.949 . S
C191 C186 1.382 . S
C191 C190 1.392 . S
H192 C211 0.949 . S
H193 C212 0.950 . S
H194 C214 0.950 . S
H195 C215 0.950 . S
H196 C217 0.950 . S
H197 C220 0.950 . S
H198 C221 0.950 . S
H199 C223 0.951 . S
H200 C224 0.949 . S
H201 C226 0.949 . S
H202 C227 0.950 . S
H203 C229 0.950 . S
H204 C230 0.950 . S
H205 C232 0.950 . S
H206 C235 0.950 . S
H207 C236 0.950 1_554 S
H208 C238 0.951 . S
H209 C239 0.949 . S
C210 C211 1.376 . S
C210 C215 1.386 . S
C210 C216 1.483 . S
C211 H192 0.949 . S
C211 C210 1.376 . S
C211 C212 1.397 1_554 S
C212 H193 0.950 . S
C212 C211 1.397 1_556 S
C212 C213 1.391 . S
C213 C212 1.391 . S
C213 C214 1.405 1_556 S
C214 H194 0.950 . S
C214 C213 1.405 1_554 S
C214 C215 1.367 . S
C215 H195 0.950 . S
C215 C210 1.386 . S
C215 C214 1.367 . S
C216 C210 1.483 . S
C216 C217 1.382 . S
C216 C218 1.403 . S
C217 H196 0.950 . S
C217 C216 1.382 . S
C217 C233 1.411 . S
C218 C216 1.403 . S
C218 C219 1.489 . S
C218 C232 1.411 . S
C219 C218 1.489 . S
C219 C220 1.383 . S
C219 C224 1.382 . S
C220 H197 0.950 . S
C220 C219 1.383 . S
C220 C221 1.395 . S
C221 H198 0.950 . S
C221 C220 1.395 . S
C221 C222 1.288 . S
C222 C221 1.288 . S
C222 C223 1.392 . S
C223 H199 0.951 . S
C223 C222 1.392 . S
C223 C224 1.392 . S
C224 H200 0.949 . S
C224 C219 1.382 . S
C224 C223 1.392 . S
C225 C226 1.376 . S
C225 C230 1.386 . S
C225 C231 1.483 . S
C226 H201 0.949 . S
C226 C225 1.376 . S
C226 C227 1.397 . S
C227 H202 0.950 . S
C227 C226 1.397 . S
C227 C228 1.391 . S
C228 C227 1.391 . S
C228 C229 1.405 . S
C229 H203 0.950 . S
C229 C228 1.405 . S
C229 C230 1.367 . S
C230 H204 0.950 . S
C230 C225 1.386 . S
C230 C229 1.367 . S
C231 C225 1.483 . S
C231 C232 1.382 . S
C231 C233 1.403 . S
C232 H205 0.950 . S
C232 C218 1.411 . S
C232 C231 1.382 . S
C233 C217 1.411 . S
C233 C231 1.403 . S
C233 C234 1.489 . S
C234 C233 1.489 . S
C234 C235 1.383 . S
C234 C239 1.382 1_554 S
C235 H206 0.950 . S
C235 C234 1.383 . S
C235 C236 1.395 1_554 S
C236 H207 0.950 1_556 S
C236 C235 1.395 1_556 S
C236 C237 1.288 . S
C237 C236 1.288 . S
C237 C238 1.392 . S
C238 H208 0.951 . S
C238 C237 1.392 . S
C238 C239 1.392 . S
C239 H209 0.949 . S
C239 C234 1.382 1_556 S
C239 C238 1.392 . S
H240 C259 0.949 . S
H241 C260 0.950 . S
H242 C262 0.950 . S
H243 C263 0.950 . S
H244 C265 0.950 . S
H245 C268 0.950 . S
H246 C269 0.950 . S
H247 C271 0.951 . S
H248 C272 0.949 . S
H249 C274 0.949 . S
H250 C275 0.950 . S
H251 C277 0.950 . S
H252 C278 0.950 . S
H253 C280 0.950 . S
H254 C283 0.950 . S
H255 C284 0.950 . S
H256 C286 0.950 . S
H257 C287 0.949 . S
C258 C259 1.376 . S
C258 C263 1.386 . S
C258 C264 1.483 . S
C259 H240 0.949 . S
C259 C258 1.376 . S
C259 C260 1.397 . S
C260 H241 0.950 . S
C260 C259 1.397 . S
C260 C261 1.391 . S
C261 C260 1.391 . S
C261 C262 1.405 . S
C262 H242 0.950 . S
C262 C261 1.405 . S
C262 C263 1.367 . S
C263 H243 0.950 . S
C263 C258 1.386 . S
C263 C262 1.367 . S
C264 C258 1.483 . S
C264 C265 1.382 . S
C264 C266 1.403 . S
C265 H244 0.950 . S
C265 C264 1.382 . S
C265 C281 1.411 . S
C266 C264 1.403 . S
C266 C267 1.489 . S
C266 C280 1.411 . S
C267 C266 1.489 . S
C267 C268 1.383 . S
C267 C272 1.382 . S
C268 H245 0.950 . S
C268 C267 1.383 . S
C268 C269 1.395 . S
C269 H246 0.950 . S
C269 C268 1.395 . S
C269 C270 1.288 . S
C270 C269 1.288 . S
C270 C271 1.392 . S
C271 H247 0.951 . S
C271 C270 1.392 . S
C271 C272 1.392 . S
C272 H248 0.949 . S
C272 C267 1.382 . S
C272 C271 1.392 . S
C273 C274 1.376 . S
C273 C278 1.386 . S
C273 C279 1.483 . S
C274 H249 0.949 . S
C274 C273 1.376 . S
C274 C275 1.397 . S
C275 H250 0.950 . S
C275 C274 1.397 . S
C275 C276 1.391 . S
C276 C275 1.391 . S
C276 C277 1.405 . S
C277 H251 0.950 . S
C277 C276 1.405 . S
C277 C278 1.367 . S
C278 H252 0.950 . S
C278 C273 1.386 . S
C278 C277 1.367 . S
C279 C273 1.483 . S
C279 C280 1.382 . S
C279 C281 1.403 . S
C280 H253 0.950 . S
C280 C266 1.411 . S
C280 C279 1.382 . S
C281 C265 1.411 . S
C281 C279 1.403 . S
C281 C282 1.489 . S
C282 C281 1.489 . S
C282 C283 1.383 . S
C282 C287 1.382 . S
C283 H254 0.950 . S
C283 C282 1.383 . S
C283 C284 1.395 . S
C284 H255 0.950 . S
C284 C283 1.395 . S
C284 C285 1.288 . S
C285 C284 1.288 . S
C285 C286 1.392 . S
C286 H256 0.950 . S
C286 C285 1.392 . S
C286 C287 1.392 . S
C287 H257 0.949 . S
C287 C282 1.382 . S
C287 C286 1.392 . S
C288 O315 1.312 . S
C288 O316 1.208 . S
C289 O310 1.331 . S
C289 O313 1.244 . S
C290 O312 1.264 . S
C290 O314 1.273 . S
Mg291 O293 1.919 1_455 S
Mg291 O300 2.081 1_455 S
Mg291 O302 2.023 . S
Mg291 O306 2.031 1_455 S
Mg291 O315 2.291 . S
Mg292 O293 1.983 . S
Mg292 O303 1.942 . S
Mg292 O304 1.955 1_655 S
Mg292 O311 1.985 . S
O293 Mg291 1.919 1_655 S
O293 Mg292 1.983 . S
O293 Mg294 1.896 1_655 S
Mg294 O293 1.896 1_455 S
Mg294 O295 1.915 . S
Mg294 O299 2.013 . S
Mg294 O305 2.114 1_455 S
Mg294 O309 2.013 1_455 S
Mg294 O315 2.114 . S
O295 Mg294 1.915 . S
O295 Mg296 1.936 . S
O295 Mg297 1.963 . S
Mg296 O295 1.936 . S
Mg296 O305 2.291 1_455 S
Mg296 O310 2.081 . S
Mg296 O312 2.023 1_455 S
Mg296 O316 2.031 . S
Mg297 O295 1.963 . S
Mg297 O301 1.986 . S
Mg297 O313 1.942 . S
Mg297 O314 1.955 1_455 S
C298 O309 1.191 . S
C298 O311 1.307 . S
O299 Mg294 2.013 . S
O299 C318 1.191 . S
O300 Mg291 2.081 1_655 S
O300 C308 1.331 . S
O301 Mg297 1.986 . S
O301 C318 1.307 . S
O302 Mg291 2.023 . S
O302 C317 1.264 . S
O303 Mg292 1.942 . S
O303 C308 1.244 . S
O304 Mg292 1.955 1_455 S
O304 C317 1.273 . S
O305 Mg294 2.114 1_655 S
O305 Mg296 2.291 1_655 S
O305 C307 1.312 . S
O306 Mg291 2.031 1_655 S
O306 C307 1.208 . S
C307 O305 1.312 . S
C307 O306 1.208 . S
C308 O300 1.331 . S
C308 O303 1.244 . S
O309 Mg294 2.013 1_655 S
O309 C298 1.191 . S
O310 C289 1.331 . S
O310 Mg296 2.081 . S
O311 Mg292 1.985 . S
O311 C298 1.307 . S
O312 C290 1.264 . S
O312 Mg296 2.023 1_655 S
O313 C289 1.244 . S
O313 Mg297 1.942 . S
O314 C290 1.273 . S
O314 Mg297 1.955 1_655 S
O315 C288 1.312 . S
O315 Mg291 2.291 . S
O315 Mg294 2.114 . S
O316 C288 1.208 . S
O316 Mg296 2.031 . S
C317 O302 1.264 . S
C317 O304 1.273 . S
C318 O299 1.191 . S
C318 O301 1.307 . S
C319 O346 1.312 . S
C319 O347 1.208 . S
C320 O341 1.331 . S
C320 O344 1.244 . S
C321 O343 1.264 . S
C321 O345 1.273 . S
Mg322 O324 1.936 1_545 S
Mg322 O331 2.081 1_545 S
Mg322 O333 2.023 . S
Mg322 O337 2.031 1_545 S
Mg322 O346 2.291 . S
Mg323 O324 1.963 . S
Mg323 O334 1.942 . S
Mg323 O335 1.955 1_565 S
Mg323 O342 1.986 . S
O324 Mg322 1.936 1_565 S
O324 Mg323 1.963 . S
O324 Mg325 1.915 1_565 S
Mg325 O324 1.915 1_545 S
Mg325 O326 1.915 . S
Mg325 O330 2.013 . S
Mg325 O336 2.114 1_545 S
Mg325 O340 2.013 1_545 S
Mg325 O346 2.114 . S
O326 Mg325 1.915 . S
O326 Mg327 1.936 . S
O326 Mg328 1.963 . S
Mg327 O326 1.936 . S
Mg327 O336 2.291 1_545 S
Mg327 O341 2.081 . S
Mg327 O343 2.023 1_545 S
Mg327 O347 2.031 . S
Mg328 O326 1.963 . S
Mg328 O332 1.986 . S
Mg328 O344 1.942 . S
Mg328 O345 1.955 1_545 S
C329 O340 1.191 . S
C329 O342 1.307 . S
O330 Mg325 2.013 . S
O330 C349 1.191 . S
O331 Mg322 2.081 1_565 S
O331 C339 1.331 . S
O332 Mg328 1.986 . S
O332 C349 1.307 . S
O333 Mg322 2.023 . S
O333 C348 1.264 . S
O334 Mg323 1.942 . S
O334 C339 1.244 . S
O335 Mg323 1.955 1_545 S
O335 C348 1.273 . S
O336 Mg325 2.114 1_565 S
O336 Mg327 2.291 1_565 S
O336 C338 1.312 . S
O337 Mg322 2.031 1_565 S
O337 C338 1.208 . S
C338 O336 1.312 . S
C338 O337 1.208 . S
C339 O331 1.331 . S
C339 O334 1.244 . S
O340 Mg325 2.013 1_565 S
O340 C329 1.191 . S
O341 C320 1.331 . S
O341 Mg327 2.081 . S
O342 Mg323 1.986 . S
O342 C329 1.307 . S
O343 C321 1.264 . S
O343 Mg327 2.023 1_565 S
O344 C320 1.244 . S
O344 Mg328 1.942 . S
O345 C321 1.273 . S
O345 Mg328 1.955 1_565 S
O346 C319 1.312 . S
O346 Mg322 2.291 . S
O346 Mg325 2.114 . S
O347 C319 1.208 . S
O347 Mg327 2.031 . S
C348 O333 1.264 . S
C348 O335 1.273 . S
C349 O330 1.191 . S
C349 O332 1.307 . S
C350 O377 1.312 . S
C350 O378 1.208 . S
C351 O372 1.331 . S
C351 O375 1.244 . S
C352 O374 1.264 . S
C352 O376 1.273 . S
Mg353 O355 1.936 . S
Mg353 O362 2.081 . S
Mg353 O364 2.023 . S
Mg353 O368 2.031 . S
Mg353 O377 2.291 . S
Mg354 O355 1.963 . S
Mg354 O365 1.942 . S
Mg354 O366 1.955 . S
Mg354 O373 1.986 . S
O355 Mg353 1.936 . S
O355 Mg354 1.963 . S
O355 Mg356 1.915 . S
Mg356 O355 1.915 . S
Mg356 O357 1.915 . S
Mg356 O361 2.013 . S
Mg356 O367 2.114 . S
Mg356 O371 2.013 . S
Mg356 O377 2.114 . S
O357 Mg356 1.915 . S
O357 Mg358 1.936 . S
O357 Mg359 1.963 . S
Mg358 O357 1.936 . S
Mg358 O367 2.291 . S
Mg358 O372 2.081 . S
Mg358 O374 2.023 . S
Mg358 O378 2.031 . S
Mg359 O357 1.963 . S
Mg359 O363 1.986 . S
Mg359 O375 1.942 . S
Mg359 O376 1.955 . S
C360 O371 1.191 . S
C360 O373 1.307 . S
O361 Mg356 2.013 . S
O361 C380 1.191 . S
O362 Mg353 2.081 . S
O362 C370 1.331 . S
O363 Mg359 1.986 . S
O363 C380 1.307 . S
O364 Mg353 2.023 . S
O364 C379 1.264 . S
O365 Mg354 1.942 . S
O365 C370 1.244 . S
O366 Mg354 1.955 . S
O366 C379 1.273 . S
O367 Mg356 2.114 . S
O367 Mg358 2.291 . S
O367 C369 1.312 . S
O368 Mg353 2.031 . S
O368 C369 1.208 . S
C369 O367 1.312 . S
C369 O368 1.208 . S
C370 O362 1.331 . S
C370 O365 1.244 . S
O371 Mg356 2.013 . S
O371 C360 1.191 . S
O372 C351 1.331 . S
O372 Mg358 2.081 . S
O373 Mg354 1.986 . S
O373 C360 1.307 . S
O374 C352 1.264 . S
O374 Mg358 2.023 . S
O375 C351 1.244 . S
O375 Mg359 1.942 . S
O376 C352 1.273 . S
O376 Mg359 1.955 . S
O377 C350 1.312 . S
O377 Mg353 2.291 . S
O377 Mg356 2.114 . S
O378 C350 1.208 . S
O378 Mg358 2.031 . S
C379 O364 1.264 . S
C379 O366 1.273 . S
C380 O361 1.191 . S
C380 O363 1.307 . S
H381 C387 0.930 . S
H382 C391 0.930 . S
H383 C396 0.929 . S
H384 C394 0.929 . S
H385 C389 0.929 . S
H386 C395 0.929 . S
C387 H381 0.930 . S
C387 C388 1.367 . S
C387 C395 1.378 . S
C388 C387 1.367 . S
C388 C396 1.433 . S
C389 H385 0.929 . S
C389 C391 1.378 . S
C389 C393 1.350 . S
C390 C393 1.463 . S
C390 C395 1.350 . S
C390 N398 1.427 . S
C391 H382 0.930 . S
C391 C389 1.378 . S
C391 C392 1.367 . S
C392 C391 1.367 . S
C392 C394 1.433 . S
C393 C389 1.350 . S
C393 C390 1.463 . S
C393 N397 1.427 . S
C394 H384 0.929 . S
C394 C392 1.433 . S
C394 N397 1.384 . S
C395 H386 0.929 . S
C395 C387 1.378 . S
C395 C390 1.350 . S
C396 H383 0.929 . S
C396 C388 1.433 . S
C396 N398 1.384 . S
N397 C393 1.427 . S
N397 C394 1.384 . S
N398 C390 1.427 . S
N398 C396 1.384 . S
H399 C405 0.930 . S
H400 C409 0.930 . S
H401 C414 0.929 . S
H402 C412 0.929 . S
H403 C407 0.929 . S
H404 C413 0.929 . S
C405 H399 0.930 . S
C405 C406 1.367 . S
C405 C413 1.378 . S
C406 C405 1.367 . S
C406 C414 1.433 . S
C407 H403 0.929 . S
C407 C409 1.378 . S
C407 C411 1.350 . S
C408 C411 1.463 . S
C408 C413 1.350 . S
C408 N416 1.427 . S
C409 H400 0.930 . S
C409 C407 1.378 . S
C409 C410 1.367 . S
C410 C409 1.367 . S
C410 C412 1.433 . S
C411 C407 1.350 . S
C411 C408 1.463 . S
C411 N415 1.427 . S
C412 H402 0.929 . S
C412 C410 1.433 . S
C412 N415 1.384 . S
C413 H404 0.929 . S
C413 C405 1.378 . S
C413 C408 1.350 . S
C414 H401 0.929 . S
C414 C406 1.433 . S
C414 N416 1.384 . S
N415 C411 1.427 . S
N415 C412 1.384 . S
N416 C408 1.427 . S
N416 C414 1.384 . S
H417 C423 0.930 . S
H418 C427 0.930 . S
H419 C432 0.929 . S
H420 C430 0.929 . S
H421 C425 0.929 . S
H422 C431 0.929 . S
C423 H417 0.930 . S
C423 C424 1.367 . S
C423 C431 1.378 . S
C424 C423 1.367 . S
C424 C432 1.433 . S
C425 H421 0.929 . S
C425 C427 1.378 . S
C425 C429 1.350 . S
C426 C429 1.463 . S
C426 C431 1.350 . S
C426 N434 1.427 . S
C427 H418 0.930 . S
C427 C425 1.378 . S
C427 C428 1.367 . S
C428 C427 1.367 . S
C428 C430 1.433 . S
C429 C425 1.350 . S
C429 C426 1.463 . S
C429 N433 1.427 . S
C430 H420 0.929 . S
C430 C428 1.433 . S
C430 N433 1.384 . S
C431 H422 0.929 . S
C431 C423 1.378 . S
C431 C426 1.350 . S
C432 H419 0.929 . S
C432 C424 1.433 . S
C432 N434 1.384 . S
N433 C429 1.427 . S
N433 C430 1.384 . S
N434 C426 1.427 . S
N434 C432 1.384 . S
H435 C441 0.930 . S
H436 C445 0.930 . S
H437 C450 0.929 . S
H438 C448 0.929 . S
H439 C443 0.929 . S
H440 C449 0.929 . S
C441 H435 0.930 . S
C441 C442 1.367 . S
C441 C449 1.378 . S
C442 C441 1.367 . S
C442 C450 1.433 . S
C443 H439 0.929 . S
C443 C445 1.378 . S
C443 C447 1.350 . S
C444 C447 1.463 . S
C444 C449 1.350 . S
C444 N452 1.427 . S
C445 H436 0.930 . S
C445 C443 1.378 . S
C445 C446 1.367 . S
C446 C445 1.367 . S
C446 C448 1.433 . S
C447 C443 1.350 . S
C447 C444 1.463 . S
C447 N451 1.427 . S
C448 H438 0.929 . S
C448 C446 1.433 . S
C448 N451 1.384 . S
C449 H440 0.929 . S
C449 C441 1.378 . S
C449 C444 1.350 . S
C450 H437 0.929 . S
C450 C442 1.433 . S
C450 N452 1.384 . S
N451 C447 1.427 . S
N451 C448 1.384 . S
N452 C444 1.427 . S
N452 C450 1.384 . S
H453 C459 0.930 . S
H454 C463 0.930 . S
H455 C468 0.929 . S
H456 C466 0.929 . S
H457 C461 0.929 . S
H458 C467 0.929 . S
C459 H453 0.930 . S
C459 C460 1.367 . S
C459 C467 1.378 . S
C460 C459 1.367 . S
C460 C468 1.433 . S
C461 H457 0.929 . S
C461 C463 1.378 . S
C461 C465 1.350 . S
C462 C465 1.463 . S
C462 C467 1.350 . S
C462 N470 1.427 . S
C463 H454 0.930 . S
C463 C461 1.378 . S
C463 C464 1.367 . S
C464 C463 1.367 . S
C464 C466 1.433 . S
C465 C461 1.350 . S
C465 C462 1.463 . S
C465 N469 1.427 . S
C466 H456 0.929 . S
C466 C464 1.433 . S
C466 N469 1.384 . S
C467 H458 0.929 . S
C467 C459 1.378 . S
C467 C462 1.350 . S
C468 H455 0.929 . S
C468 C460 1.433 . S
C468 N470 1.384 . S
N469 C465 1.427 . S
N469 C466 1.384 . S
N470 C462 1.427 . S
N470 C468 1.384 . S
H471 C477 0.930 . S
H472 C481 0.930 . S
H473 C486 0.929 . S
H474 C484 0.929 . S
H475 C479 0.929 . S
H476 C485 0.929 . S
C477 H471 0.930 . S
C477 C478 1.367 . S
C477 C485 1.378 . S
C478 C477 1.367 . S
C478 C486 1.433 . S
C479 H475 0.929 . S
C479 C481 1.378 . S
C479 C483 1.350 . S
C480 C483 1.463 . S
C480 C485 1.350 . S
C480 N488 1.427 . S
C481 H472 0.930 . S
C481 C479 1.378 . S
C481 C482 1.367 . S
C482 C481 1.367 . S
C482 C484 1.433 . S
C483 C479 1.350 . S
C483 C480 1.463 . S
C483 N487 1.427 . S
C484 H474 0.929 . S
C484 C482 1.433 . S
C484 N487 1.384 . S
C485 H476 0.929 . S
C485 C477 1.378 . S
C485 C480 1.350 . S
C486 H473 0.929 . S
C486 C478 1.433 . S
C486 N488 1.384 . S
N487 C483 1.427 . S
N487 C484 1.384 . S
N488 C480 1.427 . S
N488 C486 1.384 . S
H489 C495 0.930 . S
H490 C499 0.930 . S
H491 C504 0.929 . S
H492 C502 0.929 . S
H493 C497 0.929 . S
H494 C503 0.929 . S
C495 H489 0.930 . S
C495 C496 1.367 . S
C495 C503 1.378 . S
C496 C495 1.367 . S
C496 C504 1.433 . S
C497 H493 0.929 . S
C497 C499 1.378 . S
C497 C501 1.350 . S
C498 C501 1.463 . S
C498 C503 1.350 . S
C498 N506 1.427 . S
C499 H490 0.930 . S
C499 C497 1.378 . S
C499 C500 1.367 . S
C500 C499 1.367 . S
C500 C502 1.433 . S
C501 C497 1.350 . S
C501 C498 1.463 . S
C501 N505 1.427 . S
C502 H492 0.929 . S
C502 C500 1.433 . S
C502 N505 1.384 . S
C503 H494 0.929 . S
C503 C495 1.378 . S
C503 C498 1.350 . S
C504 H491 0.929 . S
C504 C496 1.433 . S
C504 N506 1.384 . S
N505 C501 1.427 . S
N505 C502 1.384 . S
N506 C498 1.427 . S
N506 C504 1.384 . S
H507 C513 0.930 . S
H508 C517 0.930 . S
H509 C522 0.929 . S
H510 C520 0.929 . S
H511 C515 0.929 . S
H512 C521 0.929 . S
C513 H507 0.930 . S
C513 C514 1.367 . S
C513 C521 1.378 . S
C514 C513 1.367 . S
C514 C522 1.433 . S
C515 H511 0.929 . S
C515 C517 1.378 . S
C515 C519 1.350 . S
C516 C519 1.463 . S
C516 C521 1.350 . S
C516 N524 1.427 . S
C517 H508 0.930 . S
C517 C515 1.378 . S
C517 C518 1.367 . S
C518 C517 1.367 . S
C518 C520 1.433 . S
C519 C515 1.350 . S
C519 C516 1.463 . S
C519 N523 1.427 . S
C520 H510 0.929 . S
C520 C518 1.433 . S
C520 N523 1.384 . S
C521 H512 0.929 . S
C521 C513 1.378 . S
C521 C516 1.350 . S
C522 H509 0.929 . S
C522 C514 1.433 . S
C522 N524 1.384 . S
N523 C519 1.427 . S
N523 C520 1.384 . S
N524 C516 1.427 . S
N524 C522 1.384 . S
H525 C531 0.930 . S
H526 C535 0.930 . S
H527 C540 0.929 . S
H528 C538 0.929 . S
H529 C533 0.929 . S
H530 C539 0.929 . S
C531 H525 0.930 . S
C531 C532 1.367 . S
C531 C539 1.378 . S
C532 C531 1.367 . S
C532 C540 1.433 . S
C533 H529 0.929 . S
C533 C535 1.378 . S
C533 C537 1.350 . S
C534 C537 1.463 . S
C534 C539 1.350 . S
C534 N542 1.427 . S
C535 H526 0.930 . S
C535 C533 1.378 . S
C535 C536 1.367 . S
C536 C535 1.367 . S
C536 C538 1.433 . S
C537 C533 1.350 . S
C537 C534 1.463 . S
C537 N541 1.427 . S
C538 H528 0.929 . S
C538 C536 1.433 . S
C538 N541 1.384 . S
C539 H530 0.929 . S
C539 C531 1.378 . S
C539 C534 1.350 . S
C540 H527 0.929 . S
C540 C532 1.433 . S
C540 N542 1.384 . S
N541 C537 1.427 . S
N541 C538 1.384 . S
N542 C534 1.427 . S
N542 C540 1.384 . S
H543 C549 0.930 1_554 S
H544 C553 0.930 . S
H545 C558 0.929 . S
H546 C556 0.929 . S
H547 C551 0.929 . S
H548 C557 0.929 . S
C549 H543 0.930 1_556 S
C549 C550 1.367 . S
C549 C557 1.378 . S
C550 C549 1.367 . S
C550 C558 1.433 . S
C551 H547 0.929 . S
C551 C553 1.378 . S
C551 C555 1.350 . S
C552 C555 1.463 . S
C552 C557 1.350 . S
C552 N560 1.427 . S
C553 H544 0.930 . S
C553 C551 1.378 . S
C553 C554 1.367 . S
C554 C553 1.367 . S
C554 C556 1.433 . S
C555 C551 1.350 . S
C555 C552 1.463 . S
C555 N559 1.427 . S
C556 H546 0.929 . S
C556 C554 1.433 . S
C556 N559 1.384 . S
C557 H548 0.929 . S
C557 C549 1.378 . S
C557 C552 1.350 . S
C558 H545 0.929 . S
C558 C550 1.433 . S
C558 N560 1.384 . S
N559 C555 1.427 . S
N559 C556 1.384 . S
N560 C552 1.427 . S
N560 C558 1.384 . S
H561 C567 0.930 1_554 S
H562 C571 0.930 . S
H563 C576 0.929 . S
H564 C574 0.929 . S
H565 C569 0.929 . S
H566 C575 0.929 . S
C567 H561 0.930 1_556 S
C567 C568 1.367 . S
C567 C575 1.378 . S
C568 C567 1.367 . S
C568 C576 1.433 . S
C569 H565 0.929 . S
C569 C571 1.378 . S
C569 C573 1.350 . S
C570 C573 1.463 . S
C570 C575 1.350 . S
C570 N578 1.427 . S
C571 H562 0.930 . S
C571 C569 1.378 . S
C571 C572 1.367 . S
C572 C571 1.367 . S
C572 C574 1.433 . S
C573 C569 1.350 . S
C573 C570 1.463 . S
C573 N577 1.427 . S
C574 H564 0.929 . S
C574 C572 1.433 . S
C574 N577 1.384 . S
C575 H566 0.929 . S
C575 C567 1.378 . S
C575 C570 1.350 . S
C576 H563 0.929 . S
C576 C568 1.433 . S
C576 N578 1.384 . S
N577 C573 1.427 . S
N577 C574 1.384 . S
N578 C570 1.427 . S
N578 C576 1.384 . S
H579 C585 0.930 . S
H580 C589 0.930 . S
H581 C594 0.929 . S
H582 C592 0.929 . S
H583 C587 0.929 . S
H584 C593 0.929 . S
C585 H579 0.930 . S
C585 C586 1.367 . S
C585 C593 1.378 . S
C586 C585 1.367 . S
C586 C594 1.433 . S
C587 H583 0.929 . S
C587 C589 1.378 . S
C587 C591 1.350 . S
C588 C591 1.463 . S
C588 C593 1.350 . S
C588 N596 1.427 . S
C589 H580 0.930 . S
C589 C587 1.378 . S
C589 C590 1.367 . S
C590 C589 1.367 . S
C590 C592 1.433 . S
C591 C587 1.350 . S
C591 C588 1.463 . S
C591 N595 1.427 . S
C592 H582 0.929 . S
C592 C590 1.433 . S
C592 N595 1.384 . S
C593 H584 0.929 . S
C593 C585 1.378 . S
C593 C588 1.350 . S
C594 H581 0.929 . S
C594 C586 1.433 . S
C594 N596 1.384 . S
N595 C591 1.427 . S
N595 C592 1.384 . S
N596 C588 1.427 . S
N596 C594 1.384 . S
H597 C603 0.930 . S
H598 C607 0.930 . S
H599 C612 0.929 . S
H600 C610 0.929 . S
H601 C605 0.929 . S
H602 C611 0.929 . S
C603 H597 0.930 . S
C603 C604 1.367 . S
C603 C611 1.378 . S
C604 C603 1.367 . S
C604 C612 1.433 . S
C605 H601 0.929 . S
C605 C607 1.378 . S
C605 C609 1.350 . S
C606 C609 1.463 . S
C606 C611 1.350 . S
C606 N614 1.427 . S
C607 H598 0.930 . S
C607 C605 1.378 . S
C607 C608 1.367 . S
C608 C607 1.367 . S
C608 C610 1.433 . S
C609 C605 1.350 . S
C609 C606 1.463 . S
C609 N613 1.427 . S
C610 H600 0.929 . S
C610 C608 1.433 . S
C610 N613 1.384 . S
C611 H602 0.929 . S
C611 C603 1.378 . S
C611 C606 1.350 . S
C612 H599 0.929 . S
C612 C604 1.433 . S
C612 N614 1.384 . S
N613 C609 1.427 . S
N613 C610 1.384 . S
N614 C606 1.427 . S
N614 C612 1.384 . S
H615 C621 0.930 . S
H616 C625 0.930 . S
H617 C630 0.919 1_554 S
H618 C628 0.929 . S
H619 C623 0.929 . S
H620 C629 0.929 . S
C621 H615 0.930 . S
C621 C622 1.367 . S
C621 C629 1.378 . S
C622 C621 1.367 . S
C622 C630 1.433 . S
C623 H619 0.929 . S
C623 C625 1.378 . S
C623 C627 1.350 . S
C624 C627 1.463 . S
C624 C629 1.350 . S
C624 N632 1.427 . S
C625 H616 0.930 . S
C625 C623 1.378 . S
C625 C626 1.367 . S
C626 C625 1.367 . S
C626 C628 1.433 . S
C627 C623 1.350 . S
C627 C624 1.463 . S
C627 N631 1.427 . S
C628 H618 0.929 . S
C628 C626 1.433 . S
C628 N631 1.384 . S
C629 H620 0.929 . S
C629 C621 1.378 . S
C629 C624 1.350 . S
C630 H617 0.919 1_556 S
C630 C622 1.433 . S
C630 N632 1.384 . S
N631 C627 1.427 . S
N631 C628 1.384 . S
N632 C624 1.427 . S
N632 C630 1.384 . S
H633 C639 0.930 1_554 S
H634 C643 0.930 . S
H635 C648 0.929 . S
H636 C646 0.929 . S
H637 C641 0.929 . S
H638 C647 0.929 . S
C639 H633 0.930 1_556 S
C639 C640 1.367 . S
C639 C647 1.378 . S
C640 C639 1.367 . S
C640 C648 1.433 . S
C641 H637 0.929 . S
C641 C643 1.378 . S
C641 C645 1.350 . S
C642 C645 1.463 . S
C642 C647 1.350 . S
C642 N650 1.427 . S
C643 H634 0.930 . S
C643 C641 1.378 . S
C643 C644 1.367 . S
C644 C643 1.367 . S
C644 C646 1.433 . S
C645 C641 1.350 . S
C645 C642 1.463 . S
C645 N649 1.427 . S
C646 H636 0.929 . S
C646 C644 1.433 . S
C646 N649 1.384 . S
C647 H638 0.929 . S
C647 C639 1.378 . S
C647 C642 1.350 . S
C648 H635 0.929 . S
C648 C640 1.433 . S
C648 N650 1.384 . S
N649 C645 1.427 . S
N649 C646 1.384 . S
N650 C642 1.427 . S
N650 C648 1.384 . S
H651 C657 0.930 . S
H652 C661 0.930 . S
H653 C666 0.929 . S
H654 C664 0.929 . S
H655 C659 0.929 . S
H656 C665 0.929 . S
C657 H651 0.930 . S
C657 C658 1.367 1_554 S
C657 C665 1.378 1_554 S
C658 C657 1.367 1_556 S
C658 C666 1.433 . S
C659 H655 0.929 . S
C659 C661 1.378 . S
C659 C663 1.350 . S
C660 C663 1.463 . S
C660 C665 1.350 . S
C660 N668 1.427 . S
C661 H652 0.930 . S
C661 C659 1.378 . S
C661 C662 1.367 . S
C662 C661 1.367 . S
C662 C664 1.433 . S
C663 C659 1.350 . S
C663 C660 1.463 . S
C663 N667 1.427 . S
C664 H654 0.929 . S
C664 C662 1.433 . S
C664 N667 1.384 . S
C665 H656 0.929 . S
C665 C657 1.378 1_556 S
C665 C660 1.350 . S
C666 H653 0.929 . S
C666 C658 1.433 . S
C666 N668 1.384 . S
N667 C663 1.427 . S
N667 C664 1.384 . S
N668 C660 1.427 . S
N668 C666 1.384 . S
H669 C675 0.930 . S
H670 C679 0.930 . S
H671 C684 0.929 . S
H672 C682 0.929 . S
H673 C677 0.929 . S
H674 C683 0.929 . S
C675 H669 0.930 . S
C675 C676 1.367 . S
C675 C683 1.378 . S
C676 C675 1.367 . S
C676 C684 1.433 . S
C677 H673 0.929 . S
C677 C679 1.378 . S
C677 C681 1.350 . S
C678 C681 1.463 . S
C678 C683 1.350 . S
C678 N686 1.427 . S
C679 H670 0.930 . S
C679 C677 1.378 . S
C679 C680 1.367 . S
C680 C679 1.367 . S
C680 C682 1.433 . S
C681 C677 1.350 . S
C681 C678 1.463 . S
C681 N685 1.427 . S
C682 H672 0.929 . S
C682 C680 1.433 . S
C682 N685 1.384 . S
C683 H674 0.929 . S
C683 C675 1.378 . S
C683 C678 1.350 . S
C684 H671 0.929 . S
C684 C676 1.433 . S
C684 N686 1.384 . S
N685 C681 1.427 . S
N685 C682 1.384 . S
N686 C678 1.427 . S
N686 C684 1.384 . S
H687 C693 0.930 . S
H688 C697 0.930 . S
H689 C702 0.929 . S
H690 C700 0.929 . S
H691 C695 0.929 . S
H692 C701 0.929 . S
C693 H687 0.930 . S
C693 C694 1.367 . S
C693 C701 1.378 . S
C694 C693 1.367 . S
C694 C702 1.433 . S
C695 H691 0.929 . S
C695 C697 1.378 . S
C695 C699 1.350 . S
C696 C699 1.463 . S
C696 C701 1.350 . S
C696 N704 1.427 . S
C697 H688 0.930 . S
C697 C695 1.378 . S
C697 C698 1.367 . S
C698 C697 1.367 . S
C698 C700 1.433 . S
C699 C695 1.350 . S
C699 C696 1.463 . S
C699 N703 1.427 . S
C700 H690 0.929 . S
C700 C698 1.433 . S
C700 N703 1.384 . S
C701 H692 0.929 . S
C701 C693 1.378 . S
C701 C696 1.350 . S
C702 H689 0.929 . S
C702 C694 1.433 . S
C702 N704 1.384 . S
N703 C699 1.427 . S
N703 C700 1.384 . S
N704 C696 1.427 . S
N704 C702 1.384 . S
H705 C711 0.930 . S
H706 C715 0.930 . S
H707 C720 0.929 . S
H708 C718 0.929 . S
H709 C713 0.929 . S
H710 C719 0.929 . S
C711 H705 0.930 . S
C711 C712 1.367 . S
C711 C719 1.378 . S
C712 C711 1.367 . S
C712 C720 1.433 . S
C713 H709 0.929 . S
C713 C715 1.378 . S
C713 C717 1.350 . S
C714 C717 1.463 . S
C714 C719 1.350 . S
C714 N722 1.427 . S
C715 H706 0.930 . S
C715 C713 1.378 . S
C715 C716 1.367 . S
C716 C715 1.367 . S
C716 C718 1.433 . S
C717 C713 1.350 . S
C717 C714 1.463 . S
C717 N721 1.427 . S
C718 H708 0.929 . S
C718 C716 1.433 . S
C718 N721 1.384 . S
C719 H710 0.929 . S
C719 C711 1.378 . S
C719 C714 1.350 . S
C720 H707 0.929 . S
C720 C712 1.433 . S
C720 N722 1.384 . S
N721 C717 1.427 . S
N721 C718 1.384 . S
N722 C714 1.427 . S
N722 C720 1.384 . S
H723 C729 0.930 . S
H724 C733 0.930 . S
H725 C738 0.929 . S
H726 C736 0.929 . S
H727 C731 0.929 . S
H728 C737 0.929 . S
C729 H723 0.930 . S
C729 C730 1.367 . S
C729 C737 1.378 . S
C730 C729 1.367 . S
C730 C738 1.433 . S
C731 H727 0.929 . S
C731 C733 1.378 . S
C731 C735 1.350 . S
C732 C735 1.463 . S
C732 C737 1.350 . S
C732 N740 1.427 . S
C733 H724 0.930 . S
C733 C731 1.378 . S
C733 C734 1.367 . S
C734 C733 1.367 . S
C734 C736 1.433 . S
C735 C731 1.350 . S
C735 C732 1.463 . S
C735 N739 1.427 . S
C736 H726 0.929 . S
C736 C734 1.433 . S
C736 N739 1.384 . S
C737 H728 0.929 . S
C737 C729 1.378 . S
C737 C732 1.350 . S
C738 H725 0.929 . S
C738 C730 1.433 . S
C738 N740 1.384 . S
N739 C735 1.427 . S
N739 C736 1.384 . S
N740 C732 1.427 . S
N740 C738 1.384 . S
H741 C747 0.930 . S
H742 C751 0.930 . S
H743 C756 0.929 . S
H744 C754 0.929 . S
H745 C749 0.929 . S
H746 C755 0.929 . S
C747 H741 0.930 . S
C747 C748 1.367 . S
C747 C755 1.378 . S
C748 C747 1.367 . S
C748 C756 1.433 . S
C749 H745 0.929 . S
C749 C751 1.378 . S
C749 C753 1.350 . S
C750 C753 1.463 . S
C750 C755 1.350 . S
C750 N758 1.427 . S
C751 H742 0.930 . S
C751 C749 1.378 . S
C751 C752 1.367 . S
C752 C751 1.367 . S
C752 C754 1.433 . S
C753 C749 1.350 . S
C753 C750 1.463 . S
C753 N757 1.427 . S
C754 H744 0.929 . S
C754 C752 1.433 . S
C754 N757 1.384 . S
C755 H746 0.929 . S
C755 C747 1.378 . S
C755 C750 1.350 . S
C756 H743 0.929 . S
C756 C748 1.433 . S
C756 N758 1.384 . S
N757 C753 1.427 . S
N757 C754 1.384 . S
N758 C750 1.427 . S
N758 C756 1.384 . S
H759 C765 0.930 . S
H760 C769 0.930 . S
H761 C774 0.929 . S
H762 C772 0.929 . S
H763 C767 0.929 . S
H764 C773 0.929 . S
C765 H759 0.930 . S
C765 C766 1.367 . S
C765 C773 1.378 . S
C766 C765 1.367 . S
C766 C774 1.433 . S
C767 H763 0.929 . S
C767 C769 1.378 . S
C767 C771 1.350 . S
C768 C771 1.463 . S
C768 C773 1.350 . S
C768 N776 1.427 . S
C769 H760 0.930 . S
C769 C767 1.378 . S
C769 C770 1.367 . S
C770 C769 1.367 . S
C770 C772 1.433 . S
C771 C767 1.350 . S
C771 C768 1.463 . S
C771 N775 1.427 . S
C772 H762 0.929 . S
C772 C770 1.433 . S
C772 N775 1.384 . S
C773 H764 0.929 . S
C773 C765 1.378 . S
C773 C768 1.350 . S
C774 H761 0.929 . S
C774 C766 1.433 . S
C774 N776 1.384 . S
N775 C771 1.427 . S
N775 C772 1.384 . S
N776 C768 1.427 . S
N776 C774 1.384 . S
H777 C783 0.930 . S
H778 C787 0.930 . S
H779 C792 0.929 . S
H780 C790 0.929 . S
H781 C785 0.929 . S
H782 C791 0.929 . S
C783 H777 0.930 . S
C783 C784 1.367 . S
C783 C791 1.378 . S
C784 C783 1.367 . S
C784 C792 1.433 . S
C785 H781 0.929 . S
C785 C787 1.378 . S
C785 C789 1.350 . S
C786 C789 1.463 . S
C786 C791 1.350 . S
C786 N794 1.427 . S
C787 H778 0.930 . S
C787 C785 1.378 . S
C787 C788 1.367 . S
C788 C787 1.367 . S
C788 C790 1.433 . S
C789 C785 1.350 . S
C789 C786 1.463 . S
C789 N793 1.427 . S
C790 H780 0.929 . S
C790 C788 1.433 . S
C790 N793 1.384 . S
C791 H782 0.929 . S
C791 C783 1.378 . S
C791 C786 1.350 . S
C792 H779 0.929 . S
C792 C784 1.433 . S
C792 N794 1.384 . S
N793 C789 1.427 . S
N793 C790 1.384 . S
N794 C786 1.427 . S
N794 C792 1.384 . S
H795 C801 0.930 . S
H796 C805 0.930 . S
H797 C810 0.929 . S
H798 C808 0.929 . S
H799 C803 0.929 . S
H800 C809 0.929 . S
C801 H795 0.930 . S
C801 C802 1.367 . S
C801 C809 1.378 . S
C802 C801 1.367 . S
C802 C810 1.433 . S
C803 H799 0.929 . S
C803 C805 1.378 . S
C803 C807 1.350 . S
C804 C807 1.463 . S
C804 C809 1.350 . S
C804 N812 1.427 . S
C805 H796 0.930 . S
C805 C803 1.378 . S
C805 C806 1.367 . S
C806 C805 1.367 . S
C806 C808 1.433 . S
C807 C803 1.350 . S
C807 C804 1.463 . S
C807 N811 1.427 . S
C808 H798 0.929 . S
C808 C806 1.433 . S
C808 N811 1.384 . S
C809 H800 0.929 . S
C809 C801 1.378 . S
C809 C804 1.350 . S
C810 H797 0.929 . S
C810 C802 1.433 . S
C810 N812 1.384 . S
N811 C807 1.427 . S
N811 C808 1.384 . S
N812 C804 1.427 . S
N812 C810 1.384 . S
C388 C45 1.822 . S
C392 C288 1.715 . S
C406 C84 1.604 . S
C410 C320 1.574 . S
C428 C379 1.916 . S
C424 C126 1.938 . S
C446 C308 1.458 . S
C442 C165 1.488 . S
C460 C222 1.668 . S
C464 C338 1.607 . S
C482 C360 1.254 . S
C478 C276 1.273 . S
C500 C329 1.699 . S
C496 C141 1.745 . S
C514 C180 1.355 . S
C518 C369 1.284 . S
C536 C318 1.608 . S
C532 C237 1.652 . S
C550 C261 1.562 1_556 S
C554 C348 1.535 . S
C568 C30 1.871 1_556 S
C572 C351 1.855 . S
C590 C290 1.637 . S
C586 C69 1.661 . S
C608 C298 1.643 . S
C604 C174 1.721 . S
C626 C339 1.552 . S
C622 C213 1.589 . S
C644 C352 1.935 . S
C640 C285 1.956 1_556 S
C662 C289 1.495 . S
C658 C36 1.519 1_556 S
C680 C349 1.555 . S
C676 C93 1.576 . S
C694 C117 1.289 . S
C698 C350 1.261 . S
C716 C319 1.657 . S
C712 C270 1.727 . S
C734 C380 1.267 . S
C730 C21 1.302 . S
C752 C307 1.572 . S
C748 C78 1.651 . S
C770 C321 1.574 . S
C766 C132 1.605 . S
C784 C189 1.864 . S
C788 C370 1.845 . S
C802 C228 1.671 . S
C806 C317 1.653 . S
