# Generated by pormake.
# Topology pyr, (3,6)-cn, num edge types: 1
# Building blocks:
#     Node 0, Type 0, BuildingBlock: BETDIP_clean_linker_0, # of connection points: 3
#     Node 1, Type 0, BuildingBlock: BETDIP_clean_linker_0, # of connection points: 3
#     Node 2, Type 0, BuildingBlock: BETDIP_clean_linker_0, # of connection points: 3
#     Node 3, Type 0, BuildingBlock: BETDIP_clean_linker_0, # of connection points: 3
#     Node 4, Type 0, BuildingBlock: BETDIP_clean_linker_0, # of connection points: 3
#     Node 5, Type 0, BuildingBlock: BETDIP_clean_linker_0, # of connection points: 3
#     Node 6, Type 0, BuildingBlock: BETDIP_clean_linker_0, # of connection points: 3
#     Node 7, Type 0, BuildingBlock: BETDIP_clean_linker_0, # of connection points: 3
#     Node 8, Type 1, BuildingBlock: INOVEN_clean_sbu_0, # of connection points: 6
#     Node 9, Type 1, BuildingBlock: INOVEN_clean_sbu_0, # of connection points: 6
#     Node 10, Type 1, BuildingBlock: INOVEN_clean_sbu_0, # of connection points: 6
#     Node 11, Type 1, BuildingBlock: INOVEN_clean_sbu_0, # of connection points: 6
#     Edge 12, Type (0, 1), BuildingBlock: EZIPEK_clean_linker_0, # of connection points: 2
#     Edge 13, Type (0, 1), BuildingBlock: EZIPEK_clean_linker_0, # of connection points: 2
#     Edge 14, Type (0, 1), BuildingBlock: EZIPEK_clean_linker_0, # of connection points: 2
#     Edge 15, Type (0, 1), BuildingBlock: EZIPEK_clean_linker_0, # of connection points: 2
#     Edge 16, Type (0, 1), BuildingBlock: EZIPEK_clean_linker_0, # of connection points: 2
#     Edge 17, Type (0, 1), BuildingBlock: EZIPEK_clean_linker_0, # of connection points: 2
#     Edge 18, Type (0, 1), BuildingBlock: EZIPEK_clean_linker_0, # of connection points: 2
#     Edge 19, Type (0, 1), BuildingBlock: EZIPEK_clean_linker_0, # of connection points: 2
#     Edge 20, Type (0, 1), BuildingBlock: EZIPEK_clean_linker_0, # of connection points: 2
#     Edge 21, Type (0, 1), BuildingBlock: EZIPEK_clean_linker_0, # of connection points: 2
#     Edge 22, Type (0, 1), BuildingBlock: EZIPEK_clean_linker_0, # of connection points: 2
#     Edge 23, Type (0, 1), BuildingBlock: EZIPEK_clean_linker_0, # of connection points: 2
#     Edge 24, Type (0, 1), BuildingBlock: EZIPEK_clean_linker_0, # of connection points: 2
#     Edge 25, Type (0, 1), BuildingBlock: EZIPEK_clean_linker_0, # of connection points: 2
#     Edge 26, Type (0, 1), BuildingBlock: EZIPEK_clean_linker_0, # of connection points: 2
#     Edge 27, Type (0, 1), BuildingBlock: EZIPEK_clean_linker_0, # of connection points: 2
#     Edge 28, Type (0, 1), BuildingBlock: EZIPEK_clean_linker_0, # of connection points: 2
#     Edge 29, Type (0, 1), BuildingBlock: EZIPEK_clean_linker_0, # of connection points: 2
#     Edge 30, Type (0, 1), BuildingBlock: EZIPEK_clean_linker_0, # of connection points: 2
#     Edge 31, Type (0, 1), BuildingBlock: EZIPEK_clean_linker_0, # of connection points: 2
#     Edge 32, Type (0, 1), BuildingBlock: EZIPEK_clean_linker_0, # of connection points: 2
#     Edge 33, Type (0, 1), BuildingBlock: EZIPEK_clean_linker_0, # of connection points: 2
#     Edge 34, Type (0, 1), BuildingBlock: EZIPEK_clean_linker_0, # of connection points: 2
#     Edge 35, Type (0, 1), BuildingBlock: EZIPEK_clean_linker_0, # of connection points: 2
# Relax obj value: 0.184
# Max RMSD: 0.177
# Mean RMSD: 0.139
data_MOF--net-pyr--node1-INOVEN_clean_sbu_0--node2-BETDIP_clean_linker_0--edge1-EZIPEK_clean_linker_0
_symmetry_space_group_name_H-M    P1
_symmetry_Int_Tables_number       1
_symmetry_cell_setting            triclinic
loop_
_symmetry_equiv_pos_as_xyz
'x, y, z'
_cell_length_a     27.745177
_cell_length_b     28.766412
_cell_length_c     27.220164
_cell_angle_alpha  91.480817
_cell_angle_beta   86.938594
_cell_angle_gamma 108.51498
loop_
_atom_site_label
_atom_site_type_symbol
_atom_site_fract_x
_atom_site_fract_y
_atom_site_fract_z
_atom_type_partial_charge
H0 H 0.38679 0.3958 0.2084 0.0
H1 H 0.48273 0.32353 0.12994 0.0
H2 H 0.38937 0.25621 0.25625 0.0
H3 H 0.45465 0.47263 0.10167 0.0
C4 C 0.43044 0.43898 0.1186 0.0
C5 C 0.4011 0.36518 0.20292 0.0
C6 C 0.38303 0.32543 0.23487 0.0
C7 C 0.43589 0.36403 0.16378 0.0
C8 C 0.45548 0.32443 0.15971 0.0
C9 C 0.43952 0.28574 0.19357 0.0
C10 C 0.40327 0.28669 0.23102 0.0
N11 N 0.45336 0.4025 0.1289 0.0
H12 H 0.13242 0.89332 0.72381 0.0
H13 H 0.17697 0.78926 0.63045 0.0
H14 H 0.27968 0.87661 0.73483 0.0
H15 H 1.02913 0.83541 0.64265 0.0
C16 C 0.06988 0.85292 0.64445 0.0
C17 C 0.16094 0.87729 0.71006 0.0
C18 C 0.20785 0.89005 0.73233 0.0
C19 C 0.14987 0.8411 0.67279 0.0
C20 C 0.186 0.81818 0.65806 0.0
C21 C 0.233 0.83125 0.68016 0.0
C22 C 0.24386 0.8675 0.71675 0.0
N23 N 0.10083 0.82337 0.65345 0.0
H24 H 0.7609 0.46416 0.89094 0.0
H25 H 0.62532 0.33881 0.88025 0.0
H26 H 0.73211 0.34422 0.99118 0.0
H27 H 0.59993 0.38599 0.82839 0.0
C28 C 0.63161 0.41666 0.81487 0.0
C29 C 0.73696 0.42854 0.90375 0.0
C30 C 0.75204 0.40708 0.94382 0.0
C31 C 0.69117 0.40504 0.88027 0.0
C32 C 0.66044 0.35809 0.89745 0.0
C33 C 0.67517 0.33568 0.93753 0.0
C34 C 0.72082 0.36081 0.96031 0.0
N35 N 0.67841 0.4301 0.83998 0.0
H36 H 0.80954 0.64319 0.40575 0.0
H37 H 0.93953 0.77134 0.37594 0.0
H38 H 0.82713 0.77554 0.48985 0.0
H39 H 0.94834 0.73071 0.30437 0.0
C40 C 0.93076 0.69165 0.30997 0.0
C41 C 0.83122 0.68096 0.41366 0.0
C42 C 0.81313 0.70666 0.45106 0.0
C43 C 0.87637 0.70358 0.38562 0.0
C44 C 0.90424 0.75315 0.39623 0.0
C45 C 0.88665 0.77932 0.43418 0.0
C46 C 0.84109 0.75563 0.46109 0.0
N47 N 0.89204 0.67465 0.34808 0.0
H48 H 0.64706 0.84674 0.9515 0.0
H49 H 0.68608 0.77418 0.82423 0.0
H50 H 0.59883 0.8737 0.81188 0.0
H51 H 0.68753 0.7158 0.88466 0.0
C52 C 0.71201 0.74491 0.90676 0.0
C53 C 0.64386 0.83835 0.91252 0.0
C54 C 0.61892 0.86217 0.88351 0.0
C55 C 0.66676 0.8055 0.89115 0.0
C56 C 0.66469 0.79672 0.84016 0.0
C57 C 0.64054 0.82088 0.80963 0.0
C58 C 0.61682 0.85307 0.83272 0.0
N59 N 0.69731 0.78671 0.92028 0.0
H60 H 0.9418 0.26867 0.39815 0.0
H61 H 0.92583 0.37239 0.50989 0.0
H62 H 0.80875 0.31446 0.40683 0.0
H63 H 0.04808 0.29232 0.47514 0.0
C64 C 1.0071 0.28446 0.47754 0.0
C65 C 0.91974 0.28948 0.41661 0.0
C66 C 0.87303 0.28795 0.39838 0.0
C67 C 0.93867 0.31954 0.45731 0.0
C68 C 0.91085 0.34836 0.47918 0.0
C69 C 0.86363 0.34599 0.46135 0.0
C70 C 0.84492 0.3157 0.42113 0.0
N71 N 0.98742 0.32419 0.47419 0.0
H72 H 0.31565 0.66789 0.26517 0.0
H73 H 0.45115 0.79356 0.27388 0.0
H74 H 0.3433 0.78612 0.16323 0.0
H75 H 0.47596 0.74641 0.32801 0.0
C76 C 0.44471 0.71463 0.34003 0.0
C77 C 0.3394 0.7034 0.25187 0.0
C78 C 0.32428 0.72395 0.21129 0.0
C79 C 0.38515 0.72738 0.27503 0.0
C80 C 0.41593 0.77403 0.25694 0.0
C81 C 0.4006 0.7959 0.21667 0.0
C82 C 0.3549 0.77019 0.19439 0.0
N83 N 0.39738 0.70303 0.31611 0.0
H84 H 0.11964 0.34401 0.76466 0.0
H85 H 0.25115 0.47415 0.75687 0.0
H86 H 0.23838 0.35672 0.65257 0.0
H87 H 0.22202 0.49429 0.82874 0.0
C88 C 0.18279 0.47255 0.83687 0.0
C89 C 0.15599 0.36474 0.74743 0.0
C90 C 0.17571 0.34461 0.70631 0.0
C91 C 0.1825 0.41136 0.76655 0.0
C92 C 0.22993 0.43811 0.74363 0.0
C93 C 0.25029 0.41844 0.70251 0.0
C94 C 0.22287 0.37187 0.68418 0.0
N95 N 0.15952 0.42984 0.80789 0.0
Gd96 Gd 0.05321 0.08859 0.5158 0.0
Gd97 Gd 0.99334 1.04585 0.60887 0.0
C98 C 0.06973 0.15468 0.61714 0.0
C99 C 0.09228 0.14309 0.44058 0.0
C100 C 0.13891 0.18092 0.42232 0.0
C101 C 0.18112 0.16807 0.40345 0.0
C102 C 0.13925 0.22975 0.41871 0.0
C103 C 0.22046 0.25066 0.3732 0.0
C104 C 0.17988 0.26449 0.3943 0.0
C105 C 0.22164 0.2028 0.37913 0.0
C106 C 0.10142 1.04134 0.57161 0.0
C107 C 0.98089 0.97787 0.50946 0.0
C108 C 0.94554 0.99053 0.68072 0.0
C109 C 0.89463 0.95442 0.68485 0.0
C110 C 0.86634 0.93896 0.6427 0.0
C111 C 0.87287 0.93731 0.73115 0.0
C112 C 0.79393 0.89192 0.69364 0.0
C113 C 0.82273 0.90618 0.73552 0.0
C114 C 0.81623 0.9076 0.64705 0.0
C115 C 0.94702 0.0951 0.55246 0.0
O116 O 0.07145 0.15432 0.5684 0.0
O117 O 0.04778 0.114 0.64236 0.0
O118 O 0.09357 0.09826 0.44463 0.0
O119 O 0.066 0.15595 0.47656 0.0
O120 O 0.10616 1.04404 0.52404 0.0
O121 O 0.0746 0.0672 0.58701 0.0
O122 O 0.97977 0.97934 0.55805 0.0
O123 O 1.00053 1.01845 0.48358 0.0
O124 O 0.94651 1.03597 0.67646 0.0
O125 O 0.97782 0.97896 0.65001 0.0
O126 O 0.94352 0.09349 0.59999 0.0
O127 O 0.97214 0.06742 0.53761 0.0
H128 H 0.18197 0.1308 0.4055 0.0
H129 H 0.10715 0.24059 0.43284 0.0
H130 H 0.17845 0.30131 0.38961 0.0
H131 H 0.25276 0.19169 0.36268 0.0
H132 H 0.88262 0.95211 0.60664 0.0
H133 H 0.8942 0.94899 0.76393 0.0
H134 H 0.80585 0.89424 0.77174 0.0
H135 H 0.79436 0.89688 0.61448 0.0
Gd136 Gd 0.58227 0.07332 0.0921 0.0
Gd137 Gd 0.48374 0.05924 0.05591 0.0
C138 C 0.50596 0.11956 0.15267 0.0
C139 C 0.67429 0.10147 0.12228 0.0
C140 C 0.70924 0.13409 0.15602 0.0
C141 C 0.75197 0.1218 0.16863 0.0
C142 C 0.69849 0.174 0.17918 0.0
C143 C 0.77106 0.18666 0.22993 0.0
C144 C 0.72936 0.20025 0.21613 0.0
C145 C 0.78281 0.14799 0.20534 0.0
C146 C 0.5152 0.98471 0.12145 0.0
C147 C 0.55603 1.00731 0.99545 0.0
C148 C 0.39173 1.02989 1.02605 0.0
C149 C 0.36378 1.01868 0.98049 0.0
C150 C 0.32466 1.03886 0.97386 0.0
C151 C 0.37357 0.98623 0.94482 0.0
C152 C 0.30329 0.99182 0.89847 0.0
C153 C 0.34334 0.97281 0.90416 0.0
C154 C 0.29466 1.02567 0.93294 0.0
C155 C 0.55241 0.1467 1.0258 0.0
O156 O 0.55383 0.1276 0.13743 0.0
O157 O 0.47102 0.08337 0.13227 0.0
O158 O 0.63675 0.06698 0.14301 0.0
O159 O 0.66084 0.12071 0.08443 0.0
O160 O 0.5626 0.99328 0.10823 0.0
O161 O 0.50511 1.02497 0.12031 0.0
O162 O 0.51084 1.0131 0.99986 0.0
O163 O 0.59261 1.0313 1.02427 0.0
O164 O 0.41691 0.07587 1.03429 0.0
O165 O 0.41607 1.00005 1.03836 0.0
O166 O 0.5056 0.14017 1.04022 0.0
O167 O 0.56107 0.10585 1.02666 0.0
H168 H 0.76053 0.09087 0.15114 0.0
H169 H 0.66569 0.18388 0.16961 0.0
H170 H 0.71999 0.23015 0.23489 0.0
H171 H 0.81488 0.13719 0.21568 0.0
H172 H 0.31654 0.06393 1.00099 0.0
H173 H 0.40369 0.97037 0.94887 0.0
H174 H 0.35039 0.94665 0.87768 0.0
H175 H 0.26379 1.04055 0.92896 0.0
Gd176 Gd 0.53355 0.5228 0.54505 0.0
Gd177 Gd 0.52958 0.60843 0.61856 0.0
C178 C 0.5749 0.52613 0.65838 0.0
C179 C 0.56872 0.46512 0.49117 0.0
C180 C 0.61507 0.45155 0.49449 0.0
C181 C 0.61992 0.41006 0.46941 0.0
C182 C 0.65501 0.48039 0.52265 0.0
C183 C 0.70481 0.42711 0.49931 0.0
C184 C 0.69967 0.46818 0.52513 0.0
C185 C 0.66463 0.3979 0.47179 0.0
C186 C 0.44265 0.51063 0.59343 0.0
C187 C 0.49226 0.60796 0.50495 0.0
C188 C 0.4922 0.65896 0.68035 0.0
C189 C 0.46217 0.69211 0.67568 0.0
C190 C 0.44949 0.70307 0.62906 0.0
C191 C 0.44106 0.70822 0.71801 0.0
C192 C 0.39132 0.74217 0.66728 0.0
C193 C 0.40593 0.73335 0.71385 0.0
C194 C 0.41396 0.72771 0.62486 0.0
C195 C 0.61974 0.63367 0.56362 0.0
O196 O 0.57145 0.50689 0.61307 0.0
O197 O 0.56042 0.56504 0.66983 0.0
O198 O 0.53401 0.44917 0.52673 0.0
O199 O 0.57644 0.51109 0.48013 0.0
O200 O 0.44764 0.49372 0.54924 0.0
O201 O 0.48621 0.52959 0.61051 0.0
O202 O 0.49132 0.62404 0.55118 0.0
O203 O 0.50953 0.57083 0.49287 0.0
O204 O 0.53937 0.67437 0.66278 0.0
O205 O 0.46845 0.61332 0.66862 0.0
O206 O 0.60912 0.66164 0.59792 0.0
O207 O 0.58248 0.59499 0.56265 0.0
H208 H 0.58941 0.38744 0.44768 0.0
H209 H 0.65183 0.51267 0.54216 0.0
H210 H 0.73041 0.49103 0.54647 0.0
H211 H 0.66824 0.36608 0.45169 0.0
H212 H 0.46555 0.69105 0.596 0.0
H213 H 0.45025 0.69976 0.75422 0.0
H214 H 0.3886 0.74424 0.74691 0.0
H215 H 0.40296 0.73418 0.58871 0.0
Gd216 Gd 0.04049 0.51868 0.10344 0.0
Gd217 Gd 0.03685 0.6079 1.05261 0.0
C218 C 0.13688 0.61844 0.11328 0.0
C219 C 0.06967 0.44812 0.13455 0.0
C220 C 0.12051 0.44167 0.13331 0.0
C221 C 0.13366 0.41573 0.17061 0.0
C222 C 0.15715 0.4634 0.09592 0.0
C223 C 0.21927 0.43357 0.13327 0.0
C224 C 0.20601 0.45919 0.09582 0.0
C225 C 0.18278 0.41178 0.17067 0.0
C226 C 0.98458 0.56885 0.15472 0.0
C227 C 0.94305 0.50907 1.03978 0.0
C228 C 1.02489 0.69019 1.03022 0.0
C229 C 0.98452 0.70371 1.00681 0.0
C230 C 0.96399 0.68141 0.96271 0.0
C231 C 0.9623 0.73555 1.0321 0.0
C232 C 0.89828 0.72079 0.97117 0.0
C233 C 0.91937 0.74385 1.01456 0.0
C234 C 0.92132 0.69021 0.94484 0.0
C235 C 0.06846 0.54465 0.99199 0.0
O236 O 0.11692 0.57133 0.12331 0.0
O237 O 0.11377 0.64122 0.0856 0.0
O238 O 0.06381 0.48323 0.16331 0.0
O239 O 0.04982 0.44718 0.09187 0.0
O240 O 0.97312 0.52138 0.15404 0.0
O241 O 1.02605 0.58647 0.13034 0.0
O242 O 0.95628 0.55736 1.04353 0.0
O243 O 0.97317 0.4853 0.05514 0.0
O244 O 0.05284 0.66953 1.00283 0.0
O245 O 1.01103 0.6693 0.07297 0.0
O246 O 0.03989 0.56991 0.97927 0.0
O247 O 0.08091 0.55603 1.03586 0.0
H248 H 0.10615 0.39908 0.19998 0.0
H249 H 0.14817 0.48415 0.06706 0.0
H250 H 0.23381 0.47664 0.06695 0.0
H251 H 0.19252 0.39215 0.20003 0.0
H252 H 0.97987 0.65613 0.94287 0.0
H253 H 0.97715 0.75267 0.06644 0.0
H254 H 0.90196 0.76747 1.03531 0.0
H255 H 0.9053 0.67203 0.91135 0.0
C256 C 0.34856 0.32779 0.32133 0.0
C257 C 0.33971 0.32128 0.27041 0.0
C258 C 0.24891 0.28084 0.28822 0.0
C259 C 0.25858 0.28346 0.33904 0.0
N260 N 0.31252 0.31895 0.4054 0.0
N261 N 0.28117 0.30344 0.20477 0.0
C262 C 0.30689 0.31051 0.35607 0.0
C263 C 0.28958 0.30222 0.25371 0.0
N264 N 0.39716 0.34864 0.33601 0.0
N265 N 0.20158 0.25494 0.27295 0.0
H266 H 0.3103 0.31611 0.17794 0.0
H267 H 0.24519 0.29527 0.19084 0.0
H268 H 0.17033 0.24031 0.29723 0.0
H269 H 0.19335 0.24588 0.23641 0.0
H270 H 0.4076 0.35001 0.37228 0.0
H271 H 0.42779 0.36381 0.31112 0.0
H272 H 0.34575 0.34111 0.42061 0.0
H273 H 0.28219 0.3064 0.43123 0.0
C274 C 0.20416 0.90259 0.82338 0.0
C275 C 0.2188 0.92292 0.77587 0.0
C276 C 0.28096 0.99508 0.81075 0.0
C277 C 0.26865 0.97322 0.8578 0.0
N278 N 0.21007 0.91416 0.91173 0.0
N279 N 0.25977 0.99259 0.7249 0.0
C280 C 0.22705 0.92971 0.86503 0.0
C281 C 0.25331 0.97088 0.76989 0.0
N282 N 0.17103 0.85604 0.82827 0.0
N283 N 0.32053 1.03768 0.80502 0.0
H284 H 0.23949 0.97517 0.69474 0.0
H285 H 0.28154 1.02885 0.71838 0.0
H286 H 0.34012 1.05706 0.83468 0.0
H287 H 0.33533 1.05287 0.77102 0.0
H288 H 0.16393 0.83654 0.86098 0.0
H289 H 0.1522 0.83567 0.79877 0.0
H290 H 0.17691 0.88538 0.91972 0.0
H291 H 0.22682 0.93277 0.943 0.0
C292 C 0.57593 0.46285 0.78195 0.0
C293 C 0.6207 0.4488 0.77609 0.0
C294 C 0.63917 0.49102 0.69549 0.0
C295 C 0.59157 0.50031 0.6992 0.0
N296 N 0.51017 0.48559 0.74302 0.0
N297 N 0.69111 0.44346 0.72296 0.0
C298 C 0.55889 0.48382 0.74177 0.0
C299 C 0.65148 0.46154 0.73176 0.0
N300 N 0.55019 0.45761 0.82677 0.0
N301 N 0.67347 0.51162 0.65803 0.0
H302 H 0.70106 0.42169 0.74804 0.0
H303 H 0.71135 0.44648 0.68921 0.0
H304 H 0.66611 0.53359 0.63143 0.0
H305 H 0.71072 0.51066 0.65581 0.0
H306 H 0.52065 0.47201 0.83508 0.0
H307 H 0.56169 0.44338 0.85729 0.0
H308 H 0.48271 0.46879 0.77019 0.0
H309 H 0.49538 0.49944 0.71445 0.0
C310 C 0.92912 0.66132 0.22151 0.0
C311 C 0.94079 0.65706 0.27113 0.0
C312 C 0.9816 0.59509 0.24458 0.0
C313 C 0.96711 0.59715 0.19546 0.0
N314 N 0.91868 0.62567 0.13938 0.0
N315 N 0.97167 0.61473 0.33121 0.0
C316 C 0.93853 0.62849 0.18462 0.0
C317 C 0.96466 0.62203 0.28305 0.0
N318 N 0.90934 0.69716 0.2094 0.0
N319 N 1.01393 0.56949 0.25417 0.0
H320 H 0.96267 0.63553 0.36006 0.0
H321 H 0.98308 0.58585 0.34295 0.0
H322 H 1.02748 0.54962 0.22735 0.0
H323 H 0.03078 0.5711 0.2877 0.0
H324 H 0.90618 0.70651 0.17328 0.0
H325 H 0.8988 0.7198 0.23547 0.0
H326 H 0.893 0.64342 0.13044 0.0
H327 H 0.92462 0.60213 0.11178 0.0
C328 C 0.42202 0.19545 0.17992 0.0
C329 C 0.45775 0.24219 0.18897 0.0
C330 C 0.52481 0.2035 0.19464 0.0
C331 C 0.48932 0.15787 0.18117 0.0
N332 N 0.4015 0.10838 0.19207 0.0
N333 N 0.54043 0.28976 0.21612 0.0
C334 C 0.43694 0.15312 0.18373 0.0
C335 C 0.50858 0.24603 0.19972 0.0
N336 N 0.37431 0.19135 0.16575 0.0
N337 N 0.57326 0.20548 0.2039 0.0
H338 H 0.52929 0.32101 0.22095 0.0
H339 H 0.57704 0.29498 0.22728 0.0
H340 H 0.58261 0.17371 0.20953 0.0
H341 H 0.60335 0.23772 0.20782 0.0
H342 H 0.34873 0.15815 0.1545 0.0
H343 H 0.36217 0.22157 0.16042 0.0
H344 H 0.36275 0.10354 0.19762 0.0
H345 H 0.41191 0.07775 0.20041 0.0
C346 C 0.07587 0.94029 0.66282 0.0
C347 C 0.09124 0.90593 0.63275 0.0
C348 C 0.13709 0.97159 0.57584 0.0
C349 C 0.11212 1.00221 0.59995 0.0
N350 N 0.08563 1.02611 0.6792 0.0
N351 N 0.13803 0.88865 0.56069 0.0
C352 C 0.09004 0.9899 0.64769 0.0
C353 C 0.12374 0.92175 0.59006 0.0
N354 N 0.04646 0.92513 0.70492 0.0
N355 N 0.17438 0.99081 0.54042 0.0
H356 H 0.1276 0.85143 0.56842 0.0
H357 H 0.15672 0.89723 0.52634 0.0
H358 H 0.18679 1.02815 0.53236 0.0
H359 H 0.19709 0.97161 0.52383 0.0
H360 H 0.02928 0.94711 0.72544 0.0
H361 H 0.03737 0.88956 0.71829 0.0
H362 H 0.07266 1.02028 0.71582 0.0
H363 H 0.10165 0.06297 0.67013 0.0
C364 C 0.80058 0.46172 1.01194 0.0
C365 C 0.80099 0.43299 0.96868 0.0
C366 C 0.89457 0.45586 0.97061 0.0
C367 C 0.89388 0.48143 1.01606 0.0
N368 N 0.84475 0.50146 0.08412 0.0
N369 N 0.84757 0.39634 0.91119 0.0
C370 C 0.8464 0.48247 1.03775 0.0
C371 C 0.84781 0.42818 0.94941 0.0
N372 N 0.75645 0.47 1.02791 0.0
N373 N 0.94001 0.46007 0.94615 0.0
H374 H 0.8145 0.3765 0.89392 0.0
H375 H 0.87937 0.38664 0.89915 0.0
H376 H 0.97475 0.48072 0.95967 0.0
H377 H 0.9432 0.44702 0.91049 0.0
H378 H 0.75457 0.49502 0.05569 0.0
H379 H 0.72215 0.45457 1.01077 0.0
H380 H 0.81109 0.49914 0.10421 0.0
H381 H 0.87708 0.51552 0.1045 0.0
C382 C 0.76196 0.66518 0.52669 0.0
C383 C 0.76321 0.68322 0.47838 0.0
C384 C 0.66971 0.65929 0.4827 0.0
C385 C 0.6686 0.64602 0.53285 0.0
N386 N 0.71388 0.63918 0.60401 0.0
N387 N 0.71911 0.70247 0.41188 0.0
C388 C 0.71487 0.64966 0.55518 0.0
C389 C 0.71724 0.68118 0.45663 0.0
N390 N 0.80577 0.66197 0.54487 0.0
N391 N 0.62519 0.65128 0.4599 0.0
H392 H 0.75293 0.71822 0.39126 0.0
H393 H 0.68775 0.70788 0.39657 0.0
H394 H 0.59012 0.6382 0.47856 0.0
H395 H 0.6228 0.65428 0.42215 0.0
H396 H 0.80699 0.64457 0.57761 0.0
H397 H 0.84076 0.67345 0.52517 0.0
H398 H 0.74633 0.64661 0.62421 0.0
H399 H 0.68015 0.62522 0.62529 0.0
C400 C 0.33727 0.39508 0.10377 0.0
C401 C 0.37517 0.43357 0.12677 0.0
C402 C 0.31046 0.47128 0.15537 0.0
C403 C 0.27233 0.43176 0.13412 0.0
N404 N 0.24726 0.35157 0.09627 0.0
N405 N 0.39688 0.50287 0.1824 0.0
C406 C 0.28509 0.39211 0.11109 0.0
C407 C 0.36142 0.47015 0.15482 0.0
N408 N 0.35121 0.36314 0.07251 0.0
N409 N 0.29816 0.51052 0.17505 0.0
H410 H 0.43442 0.50285 0.18333 0.0
H411 H 0.38826 0.52711 0.20776 0.0
H412 H 0.26096 0.51182 0.17805 0.0
H413 H 0.32503 0.5431 0.18569 0.0
H414 H 0.3259 0.33765 1.05053 0.0
H415 H 0.38891 0.36468 0.06518 0.0
H416 H 0.25355 0.31919 0.0844 0.0
H417 H 0.20882 0.34878 0.09973 0.0
C418 C 0.64309 0.24176 0.9356 0.0
C419 C 0.64222 0.28673 0.9581 0.0
C420 C 0.58921 0.23981 1.02725 0.0
C421 C 0.58609 0.19445 1.00287 0.0
N422 N 0.60204 0.15385 0.92791 0.0
N423 N 0.60679 0.32786 1.0214 0.0
C424 C 0.61112 0.19582 0.9555 0.0
C425 C 0.61295 0.28541 1.00275 0.0
N426 N 0.67527 0.2428 0.89558 0.0
N427 N 0.57133 0.23964 0.07499 0.0
H428 H 0.62374 0.36186 1.00486 0.0
H429 H 0.58124 0.32884 1.05057 0.0
H430 H 0.55468 0.20756 0.0946 0.0
H431 H 0.5775 0.27115 0.09671 0.0
H432 H 0.68224 0.21163 0.88089 0.0
H433 H 0.69803 0.2754 0.87936 0.0
H434 H 0.61492 0.15328 0.89133 0.0
H435 H 0.5773 0.12016 0.93973 0.0
C436 C 0.95889 0.84283 0.47576 0.0
C437 C 0.9153 0.83173 0.44707 0.0
C438 C 0.91512 0.91726 0.45762 0.0
C439 C 0.96016 0.92887 0.48431 0.0
N440 N 0.03124 0.90538 0.50847 0.0
N441 N 0.85801 0.86059 0.40236 0.0
C442 C 0.98386 0.89236 0.49027 0.0
C443 C 0.89544 0.86979 0.43532 0.0
N444 N 0.97523 0.80576 0.49115 0.0
N445 N 0.88951 0.95059 0.4558 0.0
H446 H 0.84288 0.82639 0.38551 0.0
H447 H 0.84528 0.88773 0.38837 0.0
H448 H 0.90229 0.98517 0.47226 0.0
H449 H 0.85362 0.94262 0.44165 0.0
H450 H 1.0027 0.8107 0.51714 0.0
H451 H 0.95861 0.76921 0.48083 0.0
H452 H 0.05294 0.88178 0.50857 0.0
H453 H 0.0509 0.94133 0.51854 0.0
C454 C 0.31796 0.83078 0.64521 0.0
C455 C 0.2703 0.80498 0.66846 0.0
C456 C 0.29919 0.73408 0.67889 0.0
C457 C 0.34915 0.76285 0.66346 0.0
N458 N 0.40782 0.83996 0.63523 0.0
N459 N 0.21703 0.73406 0.71314 0.0
C460 C 0.35902 0.81149 0.64694 0.0
C461 C 0.26099 0.75689 0.68639 0.0
N462 N 0.32366 0.87357 0.62137 0.0
N463 N 0.28814 0.6848 0.68576 0.0
H464 H 0.18799 0.74945 0.71999 0.0
H465 H 0.21111 0.70152 0.732 0.0
H466 H 0.31517 0.66669 0.68007 0.0
H467 H 0.25126 0.6612 0.69229 0.0
H468 H 0.356 0.89185 0.59987 0.0
H469 H 0.294 0.88837 0.61934 0.0
H470 H 0.41802 0.87734 0.62822 0.0
H471 H 0.43892 0.82709 0.6361 0.0
C472 C 0.67682 0.7896 0.73392 0.0
C473 C 0.64964 0.82003 0.7543 0.0
C474 C 0.7026 0.88802 0.70537 0.0
C475 C 0.73945 0.86325 0.70012 0.0
N476 N 0.75787 0.78673 0.69771 0.0
N477 N 0.61288 0.87689 0.72163 0.0
C478 C 0.72483 0.81218 0.70935 0.0
C479 C 0.65457 0.86289 0.72792 0.0
N480 N 0.65708 0.74023 0.74009 0.0
N481 N 0.71416 0.93572 0.69166 0.0
H482 H 0.57679 0.85516 0.73451 0.0
H483 H 0.61366 0.9062 0.69952 0.0
H484 H 0.74887 0.95497 0.67413 0.0
H485 H 0.68981 0.95632 0.6997 0.0
H486 H 0.67344 0.71517 0.72415 0.0
H487 H 0.62193 0.72505 0.75895 0.0
H488 H 0.75123 0.75047 0.70776 0.0
H489 H 0.79262 0.8028 0.67858 0.0
C490 C 0.81965 0.21089 0.3591 0.0
C491 C 0.85355 0.2592 0.3538 0.0
C492 C 0.8395 0.25669 0.26554 0.0
C493 C 0.80082 0.21099 0.27218 0.0
N494 N 0.75042 0.14565 0.32522 0.0
N495 N 0.89492 0.32996 0.30369 0.0
C496 C 0.79015 0.18809 0.31889 0.0
C497 C 0.86362 0.28253 0.30736 0.0
N498 N 0.81598 0.18688 0.40254 0.0
N499 N 0.85366 0.27483 0.21918 0.0
H500 H 0.91507 0.34926 0.33309 0.0
H501 H 0.89897 0.35116 0.27239 0.0
H502 H 0.83618 0.25708 0.18783 0.0
H503 H 0.88511 0.30538 0.21122 0.0
H504 H 0.79587 0.14988 0.40733 0.0
H505 H 0.83675 0.20294 0.43287 0.0
H506 H 0.73704 0.1301 0.35941 0.0
H507 H 0.72812 0.12755 0.29657 0.0
C508 C 0.43679 0.63395 0.3846 0.0
C509 C 0.45242 0.68623 0.38396 0.0
C510 C 0.49659 0.68718 0.46102 0.0
C511 C 0.47672 0.63505 0.46433 0.0
N512 N 0.41751 0.5604 0.43384 0.0
N513 N 0.48732 0.7617 0.42912 0.0
C514 C 0.44374 0.60896 0.42743 0.0
C515 C 0.47932 0.71243 0.42448 0.0
N516 N 0.41807 0.60777 0.3434 0.0
N517 N 0.53435 0.71294 0.49076 0.0
H518 H 0.47445 0.7815 0.40417 0.0
H519 H 0.50174 0.7818 0.46045 0.0
H520 H 0.55008 0.69663 0.51656 0.0
H521 H 0.55404 0.7501 0.48613 0.0
H522 H 0.41107 0.57006 0.3401 0.0
H523 H 0.41472 0.62413 0.31063 0.0
H524 H 0.3892 0.5406 0.41077 0.0
H525 H 0.42005 0.54131 0.46514 0.0
C526 C 0.12414 0.45808 0.91431 0.0
C527 C 0.15353 0.49039 0.87732 0.0
C528 C 0.13464 0.55917 0.92145 0.0
C529 C 0.09979 0.52588 0.95442 0.0
N530 N 0.05601 0.44212 0.97725 0.0
N531 N 0.18048 0.57124 0.84198 0.0
C532 C 0.09312 0.47491 0.94947 0.0
C533 C 0.15721 0.54088 0.88003 0.0
N534 N 0.12783 0.41204 0.91775 0.0
N535 N 0.1475 0.60847 0.93047 0.0
H536 H 0.19666 0.55943 0.8106 0.0
H537 H 0.17947 0.60697 0.83931 0.0
H538 H 0.13267 0.62328 0.96077 0.0
H539 H 0.17663 0.63435 0.91085 0.0
H540 H 0.1115 0.38875 0.94703 0.0
H541 H 0.15174 0.399 0.89438 0.0
H542 H 0.04537 0.40434 0.97148 0.0
H543 H 0.03278 0.45299 1.00315 0.0
C544 C 0.54826 0.88885 0.92345 0.0
C545 C 0.59956 0.90091 0.9057 0.0
C546 C 0.61443 0.9862 0.9319 0.0
C547 C 0.56658 0.97218 0.95836 0.0
N548 N 0.48729 0.90807 0.98019 0.0
N549 N 0.68262 0.96068 0.893 0.0
C550 C 0.53271 0.92321 0.95361 0.0
C551 C 0.63291 0.94959 0.90962 0.0
N552 N 0.51441 0.8444 0.91155 0.0
N553 N 0.64137 1.03479 0.92662 0.0
H554 H 0.69713 0.93545 0.87446 0.0
H555 H 0.71024 0.99398 0.90031 0.0
H556 H 0.62773 0.0626 0.94052 0.0
H557 H 0.67423 1.04761 0.90401 0.0
H558 H 0.47524 0.83553 0.9182 0.0
H559 H 0.52497 0.81778 0.89098 0.0
H560 H 0.46473 0.87151 0.98281 0.0
H561 H 0.47354 0.93048 1.00364 0.0
C562 C 0.97859 0.19445 0.45774 0.0
C563 C 0.97485 0.23336 0.48944 0.0
C564 C 0.92482 0.17317 0.54978 0.0
C565 C 0.94106 0.13691 0.52438 0.0
N566 N 0.95674 0.10613 0.44461 0.0
N567 N 0.94118 0.25979 0.5653 0.0
C568 C 0.95925 0.14526 0.47491 0.0
C569 C 0.94558 0.22278 0.53471 0.0
N570 N 1.00276 0.20492 0.41236 0.0
N571 N 0.88885 0.15974 0.58744 0.0
H572 H 0.95749 0.29677 0.55721 0.0
H573 H 0.92442 0.25402 0.6007 0.0
H574 H 0.87083 0.12298 0.59625 0.0
H575 H 0.87233 0.18378 0.60527 0.0
H576 H 1.01151 0.17912 0.38919 0.0
H577 H 1.01584 0.2404 0.39835 0.0
H578 H 0.96717 0.10884 0.40727 0.0
H579 H 0.93878 0.0703 0.4563 0.0
C580 C 0.27555 0.65825 0.15187 0.0
C581 C 0.27619 0.69687 0.1859 0.0
C582 C 0.18521 0.68313 0.17314 0.0
C583 C 0.18546 0.64683 0.13669 0.0
N584 N 0.23182 0.60329 0.08715 0.0
N585 N 0.23339 0.74998 0.22498 0.0
C586 C 0.23091 0.63518 0.1251 0.0
C587 C 0.23152 0.71051 0.19517 0.0
N588 N 0.31768 0.64341 0.14537 0.0
N589 N 0.14005 0.68955 0.18885 0.0
H590 H 0.26536 0.76906 0.24422 0.0
H591 H 0.20446 0.76585 0.22833 0.0
H592 H 0.10533 0.67021 0.17413 0.0
H593 H 0.13605 0.71097 0.21923 0.0
H594 H 0.31832 0.61211 0.12569 0.0
H595 H 0.35174 0.66094 0.16213 0.0
H596 H 0.26455 0.59633 0.07331 0.0
H597 H 0.20015 0.58622 0.06665 0.0
C598 C 0.34393 0.43056 0.6861 0.0
C599 C 0.30106 0.4459 0.67844 0.0
C600 C 0.35397 0.50937 0.62154 0.0
C601 C 0.39497 0.4902 0.62492 0.0
N602 N 0.42669 0.4279 0.65534 0.0
N603 N 0.26347 0.49694 0.63544 0.0
C604 C 0.38946 0.44973 0.6561 0.0
C605 C 0.3057 0.4848 0.64546 0.0
N606 N 0.34138 0.39821 0.72282 0.0
N607 N 0.36147 0.5516 0.59606 0.0
H608 H 0.22782 0.48036 0.65266 0.0
H609 H 0.26282 0.52095 0.6077 0.0
H610 H 0.39587 0.56986 0.57747 0.0
H611 H 0.33522 0.57066 0.59654 0.0
H612 H 0.37285 0.38962 0.73398 0.0
H613 H 0.30869 0.3833 0.74531 0.0
H614 H 0.42246 0.39497 0.67282 0.0
H615 H 0.46057 0.44053 0.63407 0.0
C616 C 0.75723 0.6993 0.95441 0.0
C617 C 0.75972 0.73944 0.92409 0.0
C618 C 0.85284 0.76892 0.92692 0.0
C619 C 0.85058 0.72707 0.95456 0.0
N620 N 0.80197 0.64959 0.99076 0.0
N621 N 0.80946 0.80759 0.87401 0.0
C622 C 0.8031 0.69136 0.96712 0.0
C623 C 0.8074 0.77317 0.90851 0.0
N624 N 0.71098 0.66995 0.97264 0.0
N625 N 0.89844 0.80484 0.91865 0.0
H626 H 0.77719 0.81145 0.85896 0.0
H627 H 0.84317 0.82963 0.857 0.0
H628 H 0.93289 0.80198 0.92947 0.0
H629 H 0.90188 0.8389 0.90404 0.0
H630 H 0.7065 0.64336 0.99923 0.0
H631 H 0.67663 0.6746 0.96398 0.0
H632 H 0.76935 0.61949 0.9958 0.0
H633 H 0.83449 0.64352 1.00286 0.0
C634 C 0.46026 0.84555 0.14939 0.0
C635 C 0.43263 0.84476 0.19495 0.0
C636 C 0.45524 0.93561 0.19192 0.0
C637 C 0.48418 0.93669 0.14648 0.0
N638 N 0.51852 0.89125 0.0854 0.0
N639 N 0.40657 0.88859 0.26197 0.0
C640 C 0.48779 0.89121 0.12641 0.0
C641 C 0.4308 0.88975 0.21668 0.0
N642 N 0.45896 0.80203 0.12698 0.0
N643 N 0.45155 0.9784 0.21216 0.0
H644 H 0.3872 0.85601 0.28014 0.0
H645 H 0.40771 0.91943 0.28321 0.0
H646 H 0.47414 1.01291 0.20059 0.0
H647 H 0.42535 0.98021 0.24031 0.0
H648 H 0.47075 0.79888 0.09045 0.0
H649 H 0.44328 0.76814 0.14406 0.0
H650 H 0.52995 0.86141 0.07394 0.0
H651 H 0.53473 0.92159 0.06322 0.0
C652 C 0.10023 0.28722 0.6631 0.0
C653 C 0.14703 0.29482 0.68603 0.0
C654 C 0.1438 0.21033 0.66302 0.0
C655 C 0.09529 0.2018 0.64341 0.0
N656 N 1.0226 0.22878 0.63457 0.0
N657 N 0.20817 0.26021 0.71639 0.0
C658 C 0.07215 0.23931 0.64638 0.0
C659 C 0.1673 0.25531 0.68848 0.0
N660 N 0.08362 0.32619 0.65506 0.0
N661 N 0.16837 0.17622 0.6558 0.0
H662 H 0.22588 0.29216 0.73605 0.0
H663 H 0.22154 0.23127 0.72377 0.0
H664 H 0.15241 0.14302 0.63748 0.0
H665 H 0.20607 0.18247 0.66431 0.0
H666 H 0.05284 0.3238 0.6337 0.0
H667 H 0.10329 0.36193 0.66589 0.0
H668 H 1.00174 0.25274 0.6419 0.0
H669 H 1.00094 0.1942 0.62229 0.0
C670 C 0.7944 0.35511 0.51962 0.0
C671 C 0.83291 0.37576 0.48288 0.0
C672 C 0.79305 0.43753 0.46463 0.0
C673 C 0.75282 0.415 0.49925 0.0
N674 N 0.72115 0.36201 0.56869 0.0
N675 N 0.87737 0.44322 0.43023 0.0
C676 C 0.75566 0.37701 0.52995 0.0
C677 C 0.83516 0.41955 0.45892 0.0
N678 N 0.79354 0.31313 0.54257 0.0
N679 N 0.78953 0.47418 0.43542 0.0
H680 H 0.90848 0.43031 0.42538 0.0
H681 H 0.88362 0.47749 0.41482 0.0
H682 H 0.75985 0.48912 0.43946 0.0
H683 H 0.81449 0.48828 0.40557 0.0
H684 H 0.76332 0.29266 0.56532 0.0
H685 H 0.82267 0.29754 0.5372 0.0
H686 H 0.72345 0.33736 0.59509 0.0
H687 H 0.69233 0.37751 0.5768 0.0
loop_
_geom_bond_atom_site_label_1
_geom_bond_atom_site_label_2
_geom_bond_distance
_geom_bond_site_symmetry_2
_ccdc_geom_bond_type
H0 C5 0.930 . S
H1 C8 0.930 . S
H2 C10 0.930 . S
H3 C4 1.016 . S
C4 H3 1.016 . S
C4 N11 1.286 . S
C5 H0 0.930 . S
C5 C6 1.397 . S
C5 C7 1.361 . S
C6 C5 1.397 . S
C6 C10 1.390 . S
C7 C5 1.361 . S
C7 C8 1.393 . S
C7 N11 1.413 . S
C8 H1 0.930 . S
C8 C7 1.393 . S
C8 C9 1.399 . S
C9 C8 1.399 . S
C9 C10 1.381 . S
C10 H2 0.930 . S
C10 C6 1.390 . S
C10 C9 1.381 . S
N11 C4 1.286 . S
N11 C7 1.413 . S
H12 C17 0.930 . S
H13 C20 0.930 . S
H14 C22 0.930 . S
H15 C16 1.016 . S
C16 H15 1.016 . S
C16 N23 1.286 . S
C17 H12 0.930 . S
C17 C18 1.397 . S
C17 C19 1.361 . S
C18 C17 1.397 . S
C18 C22 1.390 . S
C19 C17 1.361 . S
C19 C20 1.393 . S
C19 N23 1.413 . S
C20 H13 0.930 . S
C20 C19 1.393 . S
C20 C21 1.399 . S
C21 C20 1.399 . S
C21 C22 1.381 . S
C22 H14 0.930 . S
C22 C18 1.390 . S
C22 C21 1.381 . S
N23 C16 1.286 . S
N23 C19 1.413 . S
H24 C29 0.930 . S
H25 C32 0.930 . S
H26 C34 0.930 . S
H27 C28 1.016 . S
C28 H27 1.016 . S
C28 N35 1.286 . S
C29 H24 0.930 . S
C29 C30 1.397 . S
C29 C31 1.361 . S
C30 C29 1.397 . S
C30 C34 1.390 . S
C31 C29 1.361 . S
C31 C32 1.393 . S
C31 N35 1.413 . S
C32 H25 0.930 . S
C32 C31 1.393 . S
C32 C33 1.399 . S
C33 C32 1.399 . S
C33 C34 1.381 . S
C34 H26 0.930 . S
C34 C30 1.390 . S
C34 C33 1.381 . S
N35 C28 1.286 . S
N35 C31 1.413 . S
H36 C41 0.930 . S
H37 C44 0.930 . S
H38 C46 0.930 . S
H39 C40 1.016 . S
C40 H39 1.016 . S
C40 N47 1.286 . S
C41 H36 0.930 . S
C41 C42 1.397 . S
C41 C43 1.361 . S
C42 C41 1.397 . S
C42 C46 1.390 . S
C43 C41 1.361 . S
C43 C44 1.393 . S
C43 N47 1.413 . S
C44 H37 0.930 . S
C44 C43 1.393 . S
C44 C45 1.399 . S
C45 C44 1.399 . S
C45 C46 1.381 . S
C46 H38 0.930 . S
C46 C42 1.390 . S
C46 C45 1.381 . S
N47 C40 1.286 . S
N47 C43 1.413 . S
H48 C53 0.930 . S
H49 C56 0.930 . S
H50 C58 0.930 . S
H51 C52 1.016 . S
C52 H51 1.016 . S
C52 N59 1.286 . S
C53 H48 0.930 . S
C53 C54 1.397 . S
C53 C55 1.361 . S
C54 C53 1.397 . S
C54 C58 1.390 . S
C55 C53 1.361 . S
C55 C56 1.393 . S
C55 N59 1.413 . S
C56 H49 0.930 . S
C56 C55 1.393 . S
C56 C57 1.399 . S
C57 C56 1.399 . S
C57 C58 1.381 . S
C58 H50 0.930 . S
C58 C54 1.390 . S
C58 C57 1.381 . S
N59 C52 1.286 . S
N59 C55 1.413 . S
H60 C65 0.930 . S
H61 C68 0.930 . S
H62 C70 0.930 . S
H63 C64 1.016 . S
C64 H63 1.016 . S
C64 N71 1.286 . S
C65 H60 0.930 . S
C65 C66 1.397 . S
C65 C67 1.361 . S
C66 C65 1.397 . S
C66 C70 1.390 . S
C67 C65 1.361 . S
C67 C68 1.393 . S
C67 N71 1.413 . S
C68 H61 0.930 . S
C68 C67 1.393 . S
C68 C69 1.399 . S
C69 C68 1.399 . S
C69 C70 1.381 . S
C70 H62 0.930 . S
C70 C66 1.390 . S
C70 C69 1.381 . S
N71 C64 1.286 . S
N71 C67 1.413 . S
H72 C77 0.930 . S
H73 C80 0.930 . S
H74 C82 0.930 . S
H75 C76 1.016 . S
C76 H75 1.016 . S
C76 N83 1.286 . S
C77 H72 0.930 . S
C77 C78 1.397 . S
C77 C79 1.361 . S
C78 C77 1.397 . S
C78 C82 1.390 . S
C79 C77 1.361 . S
C79 C80 1.393 . S
C79 N83 1.413 . S
C80 H73 0.930 . S
C80 C79 1.393 . S
C80 C81 1.399 . S
C81 C80 1.399 . S
C81 C82 1.381 . S
C82 H74 0.930 . S
C82 C78 1.390 . S
C82 C81 1.381 . S
N83 C76 1.286 . S
N83 C79 1.413 . S
H84 C89 0.930 . S
H85 C92 0.930 . S
H86 C94 0.930 . S
H87 C88 1.016 . S
C88 H87 1.016 . S
C88 N95 1.286 . S
C89 H84 0.930 . S
C89 C90 1.397 . S
C89 C91 1.361 . S
C90 C89 1.397 . S
C90 C94 1.390 . S
C91 C89 1.361 . S
C91 C92 1.393 . S
C91 N95 1.413 . S
C92 H85 0.930 . S
C92 C91 1.393 . S
C92 C93 1.399 . S
C93 C92 1.399 . S
C93 C94 1.381 . S
C94 H86 0.930 . S
C94 C90 1.390 . S
C94 C93 1.381 . S
N95 C88 1.286 . S
N95 C91 1.413 . S
Gd96 C99 2.818 . S
Gd96 O116 2.377 . S
Gd96 O118 2.448 . S
Gd96 O119 2.506 . S
Gd96 O120 2.435 1_545 S
Gd96 O121 2.717 1_545 S
Gd96 O123 2.395 1_445 S
Gd96 O127 2.327 1_455 S
Gd97 C108 2.818 1_545 S
Gd97 O117 2.395 1_655 S
Gd97 O121 2.327 1_645 S
Gd97 O122 2.377 1_545 S
Gd97 O124 2.448 1_545 S
Gd97 O125 2.506 1_545 S
Gd97 O126 2.435 . S
Gd97 O127 2.717 . S
C98 O116 1.240 . S
C98 O117 1.240 . S
C99 Gd96 2.818 . S
C99 C100 1.510 . S
C99 O118 1.249 . S
C99 O119 1.252 . S
C100 C99 1.510 . S
C100 C101 1.404 . S
C100 C102 1.352 . S
C101 C100 1.404 . S
C101 C105 1.389 . S
C101 H128 0.930 . S
C102 C100 1.352 . S
C102 C104 1.374 . S
C102 H129 0.931 . S
C103 C104 1.359 . S
C103 C105 1.364 . S
C104 C102 1.374 . S
C104 C103 1.359 . S
C104 H130 0.931 . S
C105 C101 1.389 . S
C105 C103 1.364 . S
C105 H131 0.931 . S
C106 O120 1.256 . S
C106 O121 1.257 . S
C107 O122 1.240 . S
C107 O123 1.240 . S
C108 Gd97 2.818 1_565 S
C108 C109 1.510 . S
C108 O124 1.249 . S
C108 O125 1.252 . S
C109 C108 1.510 . S
C109 C110 1.404 . S
C109 C111 1.352 . S
C110 C109 1.404 . S
C110 C114 1.389 . S
C110 H132 0.930 . S
C111 C109 1.352 . S
C111 C113 1.374 . S
C111 H133 0.931 . S
C112 C113 1.359 . S
C112 C114 1.364 . S
C113 C111 1.374 . S
C113 C112 1.359 . S
C113 H134 0.931 . S
C114 C110 1.389 . S
C114 C112 1.364 . S
C114 H135 0.931 . S
C115 O126 1.256 . S
C115 O127 1.257 . S
O116 Gd96 2.377 . S
O116 C98 1.240 . S
O117 Gd97 2.395 1_455 S
O117 C98 1.240 . S
O118 Gd96 2.448 . S
O118 C99 1.249 . S
O119 Gd96 2.506 . S
O119 C99 1.252 . S
O120 Gd96 2.435 1_565 S
O120 C106 1.256 . S
O121 Gd96 2.717 1_565 S
O121 Gd97 2.327 1_465 S
O121 C106 1.257 . S
O122 Gd97 2.377 1_565 S
O122 C107 1.240 . S
O123 Gd96 2.395 1_665 S
O123 C107 1.240 . S
O124 Gd97 2.448 1_565 S
O124 C108 1.249 . S
O125 Gd97 2.506 1_565 S
O125 C108 1.252 . S
O126 Gd97 2.435 . S
O126 C115 1.256 . S
O127 Gd96 2.327 1_655 S
O127 Gd97 2.717 . S
O127 C115 1.257 . S
H128 C101 0.930 . S
H129 C102 0.931 . S
H130 C104 0.931 . S
H131 C105 0.931 . S
H132 C110 0.930 . S
H133 C111 0.931 . S
H134 C113 0.931 . S
H135 C114 0.931 . S
Gd136 C139 2.818 . S
Gd136 O156 2.377 . S
Gd136 O158 2.448 . S
Gd136 O159 2.506 . S
Gd136 O160 2.435 1_545 S
Gd136 O161 2.717 1_545 S
Gd136 O163 2.395 1_544 S
Gd136 O167 2.327 1_554 S
Gd137 C148 2.818 1_545 S
Gd137 O157 2.395 1_556 S
Gd137 O161 2.327 1_546 S
Gd137 O162 2.377 1_545 S
Gd137 O164 2.448 1_545 S
Gd137 O165 2.506 1_545 S
Gd137 O166 2.435 . S
Gd137 O167 2.717 . S
C138 O156 1.240 . S
C138 O157 1.240 . S
C139 Gd136 2.818 . S
C139 C140 1.510 . S
C139 O158 1.249 . S
C139 O159 1.252 . S
C140 C139 1.510 . S
C140 C141 1.404 . S
C140 C142 1.352 . S
C141 C140 1.404 . S
C141 C145 1.389 . S
C141 H168 0.930 . S
C142 C140 1.352 . S
C142 C144 1.374 . S
C142 H169 0.931 . S
C143 C144 1.359 . S
C143 C145 1.364 . S
C144 C142 1.374 . S
C144 C143 1.359 . S
C144 H170 0.931 . S
C145 C141 1.389 . S
C145 C143 1.364 . S
C145 H171 0.931 . S
C146 O160 1.256 . S
C146 O161 1.257 . S
C147 O162 1.240 . S
C147 O163 1.240 . S
C148 Gd137 2.818 1_565 S
C148 C149 1.510 . S
C148 O164 1.249 . S
C148 O165 1.252 . S
C149 C148 1.510 . S
C149 C150 1.404 . S
C149 C151 1.352 . S
C150 C149 1.404 . S
C150 C154 1.389 . S
C150 H172 0.930 . S
C151 C149 1.352 . S
C151 C153 1.374 . S
C151 H173 0.931 . S
C152 C153 1.359 . S
C152 C154 1.364 . S
C153 C151 1.374 . S
C153 C152 1.359 . S
C153 H174 0.931 . S
C154 C150 1.389 . S
C154 C152 1.364 . S
C154 H175 0.931 . S
C155 O166 1.256 . S
C155 O167 1.257 . S
O156 Gd136 2.377 . S
O156 C138 1.240 . S
O157 Gd137 2.395 1_554 S
O157 C138 1.240 . S
O158 Gd136 2.448 . S
O158 C139 1.249 . S
O159 Gd136 2.506 . S
O159 C139 1.252 . S
O160 Gd136 2.435 1_565 S
O160 C146 1.256 . S
O161 Gd136 2.717 1_565 S
O161 Gd137 2.327 1_564 S
O161 C146 1.257 . S
O162 Gd137 2.377 1_565 S
O162 C147 1.240 . S
O163 Gd136 2.395 1_566 S
O163 C147 1.240 . S
O164 Gd137 2.448 1_565 S
O164 C148 1.249 . S
O165 Gd137 2.506 1_565 S
O165 C148 1.252 . S
O166 Gd137 2.435 . S
O166 C155 1.256 . S
O167 Gd136 2.327 1_556 S
O167 Gd137 2.717 . S
O167 C155 1.257 . S
H168 C141 0.930 . S
H169 C142 0.931 . S
H170 C144 0.931 . S
H171 C145 0.931 . S
H172 C150 0.930 . S
H173 C151 0.931 . S
H174 C153 0.931 . S
H175 C154 0.931 . S
Gd176 C179 2.818 . S
Gd176 O196 2.377 . S
Gd176 O198 2.448 . S
Gd176 O199 2.506 . S
Gd176 O200 2.435 . S
Gd176 O201 2.717 . S
Gd176 O203 2.395 . S
Gd176 O207 2.327 . S
Gd177 C188 2.818 . S
Gd177 O197 2.395 . S
Gd177 O201 2.327 . S
Gd177 O202 2.377 . S
Gd177 O204 2.448 . S
Gd177 O205 2.506 . S
Gd177 O206 2.435 . S
Gd177 O207 2.717 . S
C178 O196 1.240 . S
C178 O197 1.240 . S
C179 Gd176 2.818 . S
C179 C180 1.510 . S
C179 O198 1.249 . S
C179 O199 1.252 . S
C180 C179 1.510 . S
C180 C181 1.404 . S
C180 C182 1.352 . S
C181 C180 1.404 . S
C181 C185 1.389 . S
C181 H208 0.930 . S
C182 C180 1.352 . S
C182 C184 1.374 . S
C182 H209 0.931 . S
C183 C184 1.359 . S
C183 C185 1.364 . S
C184 C182 1.374 . S
C184 C183 1.359 . S
C184 H210 0.931 . S
C185 C181 1.389 . S
C185 C183 1.364 . S
C185 H211 0.931 . S
C186 O200 1.256 . S
C186 O201 1.257 . S
C187 O202 1.240 . S
C187 O203 1.240 . S
C188 Gd177 2.818 . S
C188 C189 1.510 . S
C188 O204 1.249 . S
C188 O205 1.252 . S
C189 C188 1.510 . S
C189 C190 1.404 . S
C189 C191 1.352 . S
C190 C189 1.404 . S
C190 C194 1.389 . S
C190 H212 0.930 . S
C191 C189 1.352 . S
C191 C193 1.374 . S
C191 H213 0.931 . S
C192 C193 1.359 . S
C192 C194 1.364 . S
C193 C191 1.374 . S
C193 C192 1.359 . S
C193 H214 0.931 . S
C194 C190 1.389 . S
C194 C192 1.364 . S
C194 H215 0.931 . S
C195 O206 1.256 . S
C195 O207 1.257 . S
O196 Gd176 2.377 . S
O196 C178 1.240 . S
O197 Gd177 2.395 . S
O197 C178 1.240 . S
O198 Gd176 2.448 . S
O198 C179 1.249 . S
O199 Gd176 2.506 . S
O199 C179 1.252 . S
O200 Gd176 2.435 . S
O200 C186 1.256 . S
O201 Gd176 2.717 . S
O201 Gd177 2.327 . S
O201 C186 1.257 . S
O202 Gd177 2.377 . S
O202 C187 1.240 . S
O203 Gd176 2.395 . S
O203 C187 1.240 . S
O204 Gd177 2.448 . S
O204 C188 1.249 . S
O205 Gd177 2.506 . S
O205 C188 1.252 . S
O206 Gd177 2.435 . S
O206 C195 1.256 . S
O207 Gd176 2.327 . S
O207 Gd177 2.717 . S
O207 C195 1.257 . S
H208 C181 0.930 . S
H209 C182 0.931 . S
H210 C184 0.931 . S
H211 C185 0.931 . S
H212 C190 0.930 . S
H213 C191 0.931 . S
H214 C193 0.931 . S
H215 C194 0.931 . S
Gd216 C219 2.818 . S
Gd216 O236 2.377 . S
Gd216 O238 2.448 . S
Gd216 O239 2.506 . S
Gd216 O240 2.435 1_455 S
Gd216 O241 2.717 1_455 S
Gd216 O243 2.385 1_454 S
Gd216 O247 2.327 1_554 S
Gd217 C228 2.818 1_455 S
Gd217 O237 2.395 1_556 S
Gd217 O241 2.327 1_456 S
Gd217 O242 2.377 1_455 S
Gd217 O244 2.448 1_455 S
Gd217 O245 2.506 1_455 S
Gd217 O246 2.435 . S
Gd217 O247 2.717 . S
C218 O236 1.240 . S
C218 O237 1.240 . S
C219 Gd216 2.818 . S
C219 C220 1.510 . S
C219 O238 1.249 . S
C219 O239 1.252 . S
C220 C219 1.510 . S
C220 C221 1.404 . S
C220 C222 1.352 . S
C221 C220 1.404 . S
C221 C225 1.389 . S
C221 H248 0.930 . S
C222 C220 1.352 . S
C222 C224 1.374 . S
C222 H249 0.931 . S
C223 C224 1.359 . S
C223 C225 1.364 . S
C224 C222 1.374 . S
C224 C223 1.359 . S
C224 H250 0.931 . S
C225 C221 1.389 . S
C225 C223 1.364 . S
C225 H251 0.931 . S
C226 O240 1.256 . S
C226 O241 1.257 . S
C227 O242 1.240 . S
C227 O243 1.255 . S
C228 Gd217 2.818 1_655 S
C228 C229 1.510 . S
C228 O244 1.249 . S
C228 O245 1.252 . S
C229 C228 1.510 . S
C229 C230 1.404 . S
C229 C231 1.352 . S
C230 C229 1.404 . S
C230 C234 1.389 . S
C230 H252 0.930 . S
C231 C229 1.352 . S
C231 C233 1.374 . S
C231 H253 0.931 . S
C232 C233 1.359 . S
C232 C234 1.364 . S
C233 C231 1.374 . S
C233 C232 1.359 . S
C233 H254 0.931 . S
C234 C230 1.389 . S
C234 C232 1.364 . S
C234 H255 0.931 . S
C235 O246 1.256 . S
C235 O247 1.257 . S
O236 Gd216 2.377 . S
O236 C218 1.240 . S
O237 Gd217 2.395 1_554 S
O237 C218 1.240 . S
O238 Gd216 2.448 . S
O238 C219 1.249 . S
O239 Gd216 2.506 . S
O239 C219 1.252 . S
O240 Gd216 2.435 1_655 S
O240 C226 1.256 . S
O241 Gd216 2.717 1_655 S
O241 Gd217 2.327 1_654 S
O241 C226 1.257 . S
O242 Gd217 2.377 1_655 S
O242 C227 1.240 . S
O243 Gd216 2.385 1_656 S
O243 C227 1.255 . S
O244 Gd217 2.448 1_655 S
O244 C228 1.249 . S
O245 Gd217 2.506 1_655 S
O245 C228 1.252 . S
O246 Gd217 2.435 . S
O246 C235 1.256 . S
O247 Gd216 2.327 1_556 S
O247 Gd217 2.717 . S
O247 C235 1.257 . S
H248 C221 0.930 . S
H249 C222 0.931 . S
H250 C224 0.931 . S
H251 C225 0.931 . S
H252 C230 0.930 . S
H253 C231 0.931 . S
H254 C233 0.931 . S
H255 C234 0.931 . S
C256 C257 1.363 . S
C256 C262 1.379 . S
C256 N264 1.356 . S
C257 C256 1.363 . S
C257 C263 1.363 . S
C258 C259 1.363 . S
C258 C263 1.379 . S
C258 N265 1.356 . S
C259 C258 1.363 . S
C259 C262 1.363 . S
N260 C262 1.356 . S
N260 H272 0.984 . S
N260 H273 0.985 . S
N261 C263 1.356 . S
N261 H266 0.984 . S
N261 H267 0.985 . S
C262 C256 1.379 . S
C262 C259 1.363 . S
C262 N260 1.356 . S
C263 C257 1.363 . S
C263 C258 1.379 . S
C263 N261 1.356 . S
N264 C256 1.356 . S
N264 H270 0.984 . S
N264 H271 0.984 . S
N265 C258 1.356 . S
N265 H268 0.984 . S
N265 H269 0.985 . S
H266 N261 0.984 . S
H267 N261 0.985 . S
H268 N265 0.984 . S
H269 N265 0.985 . S
H270 N264 0.984 . S
H271 N264 0.984 . S
H272 N260 0.984 . S
H273 N260 0.985 . S
C274 C275 1.363 . S
C274 C280 1.379 . S
C274 N282 1.356 . S
C275 C274 1.363 . S
C275 C281 1.363 . S
C276 C277 1.363 . S
C276 C281 1.379 . S
C276 N283 1.356 . S
C277 C276 1.363 . S
C277 C280 1.363 . S
N278 C280 1.356 . S
N278 H290 0.984 . S
N278 H291 0.985 . S
N279 C281 1.356 . S
N279 H284 0.984 . S
N279 H285 0.985 . S
C280 C274 1.379 . S
C280 C277 1.363 . S
C280 N278 1.356 . S
C281 C275 1.363 . S
C281 C276 1.379 . S
C281 N279 1.356 . S
N282 C274 1.356 . S
N282 H288 0.984 . S
N282 H289 0.984 . S
N283 C276 1.356 . S
N283 H286 0.984 . S
N283 H287 0.985 . S
H284 N279 0.984 . S
H285 N279 0.985 . S
H286 N283 0.984 . S
H287 N283 0.985 . S
H288 N282 0.984 . S
H289 N282 0.984 . S
H290 N278 0.984 . S
H291 N278 0.985 . S
C292 C293 1.363 . S
C292 C298 1.379 . S
C292 N300 1.356 . S
C293 C292 1.363 . S
C293 C299 1.363 . S
C294 C295 1.363 . S
C294 C299 1.379 . S
C294 N301 1.356 . S
C295 C294 1.363 . S
C295 C298 1.363 . S
N296 C298 1.356 . S
N296 H308 0.984 . S
N296 H309 0.985 . S
N297 C299 1.356 . S
N297 H302 0.984 . S
N297 H303 0.985 . S
C298 C292 1.379 . S
C298 C295 1.363 . S
C298 N296 1.356 . S
C299 C293 1.363 . S
C299 C294 1.379 . S
C299 N297 1.356 . S
N300 C292 1.356 . S
N300 H306 0.984 . S
N300 H307 0.984 . S
N301 C294 1.356 . S
N301 H304 0.984 . S
N301 H305 0.985 . S
H302 N297 0.984 . S
H303 N297 0.985 . S
H304 N301 0.984 . S
H305 N301 0.985 . S
H306 N300 0.984 . S
H307 N300 0.984 . S
H308 N296 0.984 . S
H309 N296 0.985 . S
C310 C311 1.363 . S
C310 C316 1.379 . S
C310 N318 1.356 . S
C311 C310 1.363 . S
C311 C317 1.363 . S
C312 C313 1.363 . S
C312 C317 1.379 . S
C312 N319 1.356 . S
C313 C312 1.363 . S
C313 C316 1.363 . S
N314 C316 1.356 . S
N314 H326 0.984 . S
N314 H327 0.985 . S
N315 C317 1.356 . S
N315 H320 0.984 . S
N315 H321 0.985 . S
C316 C310 1.379 . S
C316 C313 1.363 . S
C316 N314 1.356 . S
C317 C311 1.363 . S
C317 C312 1.379 . S
C317 N315 1.356 . S
N318 C310 1.356 . S
N318 H324 0.984 . S
N318 H325 0.984 . S
N319 C312 1.356 . S
N319 H322 0.984 . S
N319 H323 0.985 . S
H320 N315 0.984 . S
H321 N315 0.985 . S
H322 N319 0.984 . S
H323 N319 0.985 . S
H324 N318 0.984 . S
H325 N318 0.984 . S
H326 N314 0.984 . S
H327 N314 0.985 . S
C328 C329 1.363 . S
C328 C334 1.379 . S
C328 N336 1.356 . S
C329 C328 1.363 . S
C329 C335 1.363 . S
C330 C331 1.363 . S
C330 C335 1.379 . S
C330 N337 1.356 . S
C331 C330 1.363 . S
C331 C334 1.363 . S
N332 C334 1.356 . S
N332 H344 0.984 . S
N332 H345 0.985 . S
N333 C335 1.356 . S
N333 H338 0.984 . S
N333 H339 0.985 . S
C334 C328 1.379 . S
C334 C331 1.363 . S
C334 N332 1.356 . S
C335 C329 1.363 . S
C335 C330 1.379 . S
C335 N333 1.356 . S
N336 C328 1.356 . S
N336 H342 0.984 . S
N336 H343 0.984 . S
N337 C330 1.356 . S
N337 H340 0.984 . S
N337 H341 0.985 . S
H338 N333 0.984 . S
H339 N333 0.985 . S
H340 N337 0.984 . S
H341 N337 0.985 . S
H342 N336 0.984 . S
H343 N336 0.984 . S
H344 N332 0.984 . S
H345 N332 0.985 . S
C346 C347 1.363 . S
C346 C352 1.379 . S
C346 N354 1.356 . S
C347 C346 1.363 . S
C347 C353 1.363 . S
C348 C349 1.363 . S
C348 C353 1.379 . S
C348 N355 1.356 . S
C349 C348 1.363 . S
C349 C352 1.363 . S
N350 C352 1.356 . S
N350 H362 0.986 . S
N350 H363 0.985 . S
N351 C353 1.356 . S
N351 H356 0.984 . S
N351 H357 0.985 . S
C352 C346 1.379 . S
C352 C349 1.363 . S
C352 N350 1.356 . S
C353 C347 1.363 . S
C353 C348 1.379 . S
C353 N351 1.356 . S
N354 C346 1.356 . S
N354 H360 0.984 . S
N354 H361 0.984 . S
N355 C348 1.356 . S
N355 H358 0.984 . S
N355 H359 0.985 . S
H356 N351 0.984 . S
H357 N351 0.985 . S
H358 N355 0.984 . S
H359 N355 0.985 . S
H360 N354 0.984 . S
H361 N354 0.984 . S
H362 N350 0.986 . S
H363 N350 0.985 . S
C364 C365 1.363 . S
C364 C370 1.379 . S
C364 N372 1.356 . S
C365 C364 1.363 . S
C365 C371 1.363 . S
C366 C367 1.363 . S
C366 C371 1.379 . S
C366 N373 1.356 . S
C367 C366 1.363 . S
C367 C370 1.363 . S
N368 C370 1.356 1_554 S
N368 H380 0.984 . S
N368 H381 0.985 . S
N369 C371 1.356 . S
N369 H374 0.984 . S
N369 H375 0.985 . S
C370 C364 1.379 . S
C370 C367 1.363 . S
C370 N368 1.356 1_556 S
C371 C365 1.363 . S
C371 C366 1.379 . S
C371 N369 1.356 . S
N372 C364 1.356 . S
N372 H378 0.984 . S
N372 H379 0.984 . S
N373 C366 1.356 . S
N373 H376 0.984 . S
N373 H377 0.985 . S
H374 N369 0.984 . S
H375 N369 0.985 . S
H376 N373 0.984 . S
H377 N373 0.985 . S
H378 N372 0.984 . S
H379 N372 0.984 . S
H380 N368 0.984 . S
H381 N368 0.985 . S
C382 C383 1.363 . S
C382 C388 1.379 . S
C382 N390 1.356 . S
C383 C382 1.363 . S
C383 C389 1.363 . S
C384 C385 1.363 . S
C384 C389 1.379 . S
C384 N391 1.356 . S
C385 C384 1.363 . S
C385 C388 1.363 . S
N386 C388 1.356 . S
N386 H398 0.984 . S
N386 H399 0.985 . S
N387 C389 1.356 . S
N387 H392 0.984 . S
N387 H393 0.985 . S
C388 C382 1.379 . S
C388 C385 1.363 . S
C388 N386 1.356 . S
C389 C383 1.363 . S
C389 C384 1.379 . S
C389 N387 1.356 . S
N390 C382 1.356 . S
N390 H396 0.984 . S
N390 H397 0.984 . S
N391 C384 1.356 . S
N391 H394 0.984 . S
N391 H395 0.985 . S
H392 N387 0.984 . S
H393 N387 0.985 . S
H394 N391 0.984 . S
H395 N391 0.985 . S
H396 N390 0.984 . S
H397 N390 0.984 . S
H398 N386 0.984 . S
H399 N386 0.985 . S
C400 C401 1.363 . S
C400 C406 1.379 . S
C400 N408 1.356 . S
C401 C400 1.363 . S
C401 C407 1.363 . S
C402 C403 1.363 . S
C402 C407 1.379 . S
C402 N409 1.356 . S
C403 C402 1.363 . S
C403 C406 1.363 . S
N404 C406 1.356 . S
N404 H416 0.984 . S
N404 H417 0.985 . S
N405 C407 1.356 . S
N405 H410 0.984 . S
N405 H411 0.985 . S
C406 C400 1.379 . S
C406 C403 1.363 . S
C406 N404 1.356 . S
C407 C401 1.363 . S
C407 C402 1.379 . S
C407 N405 1.356 . S
N408 C400 1.356 . S
N408 H414 0.984 . S
N408 H415 0.984 . S
N409 C402 1.356 . S
N409 H412 0.984 . S
N409 H413 0.985 . S
H410 N405 0.984 . S
H411 N405 0.985 . S
H412 N409 0.984 . S
H413 N409 0.985 . S
H414 N408 0.984 . S
H415 N408 0.984 . S
H416 N404 0.984 . S
H417 N404 0.985 . S
C418 C419 1.363 . S
C418 C424 1.379 . S
C418 N426 1.356 . S
C419 C418 1.363 . S
C419 C425 1.363 . S
C420 C421 1.363 . S
C420 C425 1.379 . S
C420 N427 1.356 . S
C421 C420 1.363 . S
C421 C424 1.363 . S
N422 C424 1.356 . S
N422 H434 0.984 . S
N422 H435 0.985 . S
N423 C425 1.356 . S
N423 H428 0.984 . S
N423 H429 0.985 . S
C424 C418 1.379 . S
C424 C421 1.363 . S
C424 N422 1.356 . S
C425 C419 1.363 . S
C425 C420 1.379 . S
C425 N423 1.356 . S
N426 C418 1.356 . S
N426 H432 0.984 . S
N426 H433 0.984 . S
N427 C420 1.356 . S
N427 H430 0.984 . S
N427 H431 0.985 . S
H428 N423 0.984 . S
H429 N423 0.985 . S
H430 N427 0.984 . S
H431 N427 0.985 . S
H432 N426 0.984 . S
H433 N426 0.984 . S
H434 N422 0.984 . S
H435 N422 0.985 . S
C436 C437 1.363 . S
C436 C442 1.379 . S
C436 N444 1.356 . S
C437 C436 1.363 . S
C437 C443 1.363 . S
C438 C439 1.363 . S
C438 C443 1.379 . S
C438 N445 1.356 . S
C439 C438 1.363 . S
C439 C442 1.363 . S
N440 C442 1.356 . S
N440 H452 0.984 . S
N440 H453 0.985 . S
N441 C443 1.356 . S
N441 H446 0.984 . S
N441 H447 0.985 . S
C442 C436 1.379 . S
C442 C439 1.363 . S
C442 N440 1.356 . S
C443 C437 1.363 . S
C443 C438 1.379 . S
C443 N441 1.356 . S
N444 C436 1.356 . S
N444 H450 0.984 . S
N444 H451 0.984 . S
N445 C438 1.356 . S
N445 H448 0.984 . S
N445 H449 0.985 . S
H446 N441 0.984 . S
H447 N441 0.985 . S
H448 N445 0.984 . S
H449 N445 0.985 . S
H450 N444 0.984 . S
H451 N444 0.984 . S
H452 N440 0.984 . S
H453 N440 0.985 . S
C454 C455 1.363 . S
C454 C460 1.379 . S
C454 N462 1.356 . S
C455 C454 1.363 . S
C455 C461 1.363 . S
C456 C457 1.363 . S
C456 C461 1.379 . S
C456 N463 1.356 . S
C457 C456 1.363 . S
C457 C460 1.363 . S
N458 C460 1.356 . S
N458 H470 0.984 . S
N458 H471 0.985 . S
N459 C461 1.356 . S
N459 H464 0.984 . S
N459 H465 0.985 . S
C460 C454 1.379 . S
C460 C457 1.363 . S
C460 N458 1.356 . S
C461 C455 1.363 . S
C461 C456 1.379 . S
C461 N459 1.356 . S
N462 C454 1.356 . S
N462 H468 0.984 . S
N462 H469 0.984 . S
N463 C456 1.356 . S
N463 H466 0.984 . S
N463 H467 0.985 . S
H464 N459 0.984 . S
H465 N459 0.985 . S
H466 N463 0.984 . S
H467 N463 0.985 . S
H468 N462 0.984 . S
H469 N462 0.984 . S
H470 N458 0.984 . S
H471 N458 0.985 . S
C472 C473 1.363 . S
C472 C478 1.379 . S
C472 N480 1.356 . S
C473 C472 1.363 . S
C473 C479 1.363 . S
C474 C475 1.363 . S
C474 C479 1.379 . S
C474 N481 1.356 . S
C475 C474 1.363 . S
C475 C478 1.363 . S
N476 C478 1.356 . S
N476 H488 0.984 . S
N476 H489 0.985 . S
N477 C479 1.356 . S
N477 H482 0.984 . S
N477 H483 0.985 . S
C478 C472 1.379 . S
C478 C475 1.363 . S
C478 N476 1.356 . S
C479 C473 1.363 . S
C479 C474 1.379 . S
C479 N477 1.356 . S
N480 C472 1.356 . S
N480 H486 0.984 . S
N480 H487 0.984 . S
N481 C474 1.356 . S
N481 H484 0.984 . S
N481 H485 0.985 . S
H482 N477 0.984 . S
H483 N477 0.985 . S
H484 N481 0.984 . S
H485 N481 0.985 . S
H486 N480 0.984 . S
H487 N480 0.984 . S
H488 N476 0.984 . S
H489 N476 0.985 . S
C490 C491 1.363 . S
C490 C496 1.379 . S
C490 N498 1.356 . S
C491 C490 1.363 . S
C491 C497 1.363 . S
C492 C493 1.363 . S
C492 C497 1.379 . S
C492 N499 1.356 . S
C493 C492 1.363 . S
C493 C496 1.363 . S
N494 C496 1.356 . S
N494 H506 0.984 . S
N494 H507 0.985 . S
N495 C497 1.356 . S
N495 H500 0.984 . S
N495 H501 0.985 . S
C496 C490 1.379 . S
C496 C493 1.363 . S
C496 N494 1.356 . S
C497 C491 1.363 . S
C497 C492 1.379 . S
C497 N495 1.356 . S
N498 C490 1.356 . S
N498 H504 0.984 . S
N498 H505 0.984 . S
N499 C492 1.356 . S
N499 H502 0.984 . S
N499 H503 0.985 . S
H500 N495 0.984 . S
H501 N495 0.985 . S
H502 N499 0.984 . S
H503 N499 0.985 . S
H504 N498 0.984 . S
H505 N498 0.984 . S
H506 N494 0.984 . S
H507 N494 0.985 . S
C508 C509 1.363 . S
C508 C514 1.379 . S
C508 N516 1.356 . S
C509 C508 1.363 . S
C509 C515 1.363 . S
C510 C511 1.363 . S
C510 C515 1.379 . S
C510 N517 1.356 . S
C511 C510 1.363 . S
C511 C514 1.363 . S
N512 C514 1.356 . S
N512 H524 0.984 . S
N512 H525 0.985 . S
N513 C515 1.356 . S
N513 H518 0.984 . S
N513 H519 0.985 . S
C514 C508 1.379 . S
C514 C511 1.363 . S
C514 N512 1.356 . S
C515 C509 1.363 . S
C515 C510 1.379 . S
C515 N513 1.356 . S
N516 C508 1.356 . S
N516 H522 0.984 . S
N516 H523 0.984 . S
N517 C510 1.356 . S
N517 H520 0.984 . S
N517 H521 0.985 . S
H518 N513 0.984 . S
H519 N513 0.985 . S
H520 N517 0.984 . S
H521 N517 0.985 . S
H522 N516 0.984 . S
H523 N516 0.984 . S
H524 N512 0.984 . S
H525 N512 0.985 . S
C526 C527 1.363 . S
C526 C532 1.379 . S
C526 N534 1.356 . S
C527 C526 1.363 . S
C527 C533 1.363 . S
C528 C529 1.363 . S
C528 C533 1.379 . S
C528 N535 1.356 . S
C529 C528 1.363 . S
C529 C532 1.363 . S
N530 C532 1.356 . S
N530 H542 0.984 . S
N530 H543 0.985 . S
N531 C533 1.356 . S
N531 H536 0.984 . S
N531 H537 0.985 . S
C532 C526 1.379 . S
C532 C529 1.363 . S
C532 N530 1.356 . S
C533 C527 1.363 . S
C533 C528 1.379 . S
C533 N531 1.356 . S
N534 C526 1.356 . S
N534 H540 0.984 . S
N534 H541 0.984 . S
N535 C528 1.356 . S
N535 H538 0.984 . S
N535 H539 0.985 . S
H536 N531 0.984 . S
H537 N531 0.985 . S
H538 N535 0.984 . S
H539 N535 0.985 . S
H540 N534 0.984 . S
H541 N534 0.984 . S
H542 N530 0.984 . S
H543 N530 0.985 . S
C544 C545 1.363 . S
C544 C550 1.379 . S
C544 N552 1.356 . S
C545 C544 1.363 . S
C545 C551 1.363 . S
C546 C547 1.363 . S
C546 C551 1.379 . S
C546 N553 1.356 . S
C547 C546 1.363 . S
C547 C550 1.363 . S
N548 C550 1.356 . S
N548 H560 0.984 . S
N548 H561 0.985 . S
N549 C551 1.356 . S
N549 H554 0.984 . S
N549 H555 0.985 . S
C550 C544 1.379 . S
C550 C547 1.363 . S
C550 N548 1.356 . S
C551 C545 1.363 . S
C551 C546 1.379 . S
C551 N549 1.356 . S
N552 C544 1.356 . S
N552 H558 0.984 . S
N552 H559 0.984 . S
N553 C546 1.356 . S
N553 H556 0.984 . S
N553 H557 0.985 . S
H554 N549 0.984 . S
H555 N549 0.985 . S
H556 N553 0.984 . S
H557 N553 0.985 . S
H558 N552 0.984 . S
H559 N552 0.984 . S
H560 N548 0.984 . S
H561 N548 0.985 . S
C562 C563 1.363 . S
C562 C568 1.379 . S
C562 N570 1.356 . S
C563 C562 1.363 . S
C563 C569 1.363 . S
C564 C565 1.363 . S
C564 C569 1.379 . S
C564 N571 1.356 . S
C565 C564 1.363 . S
C565 C568 1.363 . S
N566 C568 1.356 . S
N566 H578 0.984 . S
N566 H579 0.985 . S
N567 C569 1.356 . S
N567 H572 0.984 . S
N567 H573 0.985 . S
C568 C562 1.379 . S
C568 C565 1.363 . S
C568 N566 1.356 . S
C569 C563 1.363 . S
C569 C564 1.379 . S
C569 N567 1.356 . S
N570 C562 1.356 . S
N570 H576 0.984 . S
N570 H577 0.984 . S
N571 C564 1.356 . S
N571 H574 0.984 . S
N571 H575 0.985 . S
H572 N567 0.984 . S
H573 N567 0.985 . S
H574 N571 0.984 . S
H575 N571 0.985 . S
H576 N570 0.984 . S
H577 N570 0.984 . S
H578 N566 0.984 . S
H579 N566 0.985 . S
C580 C581 1.363 . S
C580 C586 1.379 . S
C580 N588 1.356 . S
C581 C580 1.363 . S
C581 C587 1.363 . S
C582 C583 1.363 . S
C582 C587 1.379 . S
C582 N589 1.356 . S
C583 C582 1.363 . S
C583 C586 1.363 . S
N584 C586 1.356 . S
N584 H596 0.984 . S
N584 H597 0.985 . S
N585 C587 1.356 . S
N585 H590 0.984 . S
N585 H591 0.985 . S
C586 C580 1.379 . S
C586 C583 1.363 . S
C586 N584 1.356 . S
C587 C581 1.363 . S
C587 C582 1.379 . S
C587 N585 1.356 . S
N588 C580 1.356 . S
N588 H594 0.984 . S
N588 H595 0.984 . S
N589 C582 1.356 . S
N589 H592 0.984 . S
N589 H593 0.985 . S
H590 N585 0.984 . S
H591 N585 0.985 . S
H592 N589 0.984 . S
H593 N589 0.985 . S
H594 N588 0.984 . S
H595 N588 0.984 . S
H596 N584 0.984 . S
H597 N584 0.985 . S
C598 C599 1.363 . S
C598 C604 1.379 . S
C598 N606 1.356 . S
C599 C598 1.363 . S
C599 C605 1.363 . S
C600 C601 1.363 . S
C600 C605 1.379 . S
C600 N607 1.356 . S
C601 C600 1.363 . S
C601 C604 1.363 . S
N602 C604 1.356 . S
N602 H614 0.984 . S
N602 H615 0.985 . S
N603 C605 1.356 . S
N603 H608 0.984 . S
N603 H609 0.985 . S
C604 C598 1.379 . S
C604 C601 1.363 . S
C604 N602 1.356 . S
C605 C599 1.363 . S
C605 C600 1.379 . S
C605 N603 1.356 . S
N606 C598 1.356 . S
N606 H612 0.984 . S
N606 H613 0.984 . S
N607 C600 1.356 . S
N607 H610 0.984 . S
N607 H611 0.985 . S
H608 N603 0.984 . S
H609 N603 0.985 . S
H610 N607 0.984 . S
H611 N607 0.985 . S
H612 N606 0.984 . S
H613 N606 0.984 . S
H614 N602 0.984 . S
H615 N602 0.985 . S
C616 C617 1.363 . S
C616 C622 1.379 . S
C616 N624 1.356 . S
C617 C616 1.363 . S
C617 C623 1.363 . S
C618 C619 1.363 . S
C618 C623 1.379 . S
C618 N625 1.356 . S
C619 C618 1.363 . S
C619 C622 1.363 . S
N620 C622 1.356 . S
N620 H632 0.984 . S
N620 H633 0.985 . S
N621 C623 1.356 . S
N621 H626 0.984 . S
N621 H627 0.985 . S
C622 C616 1.379 . S
C622 C619 1.363 . S
C622 N620 1.356 . S
C623 C617 1.363 . S
C623 C618 1.379 . S
C623 N621 1.356 . S
N624 C616 1.356 . S
N624 H630 0.984 . S
N624 H631 0.984 . S
N625 C618 1.356 . S
N625 H628 0.984 . S
N625 H629 0.985 . S
H626 N621 0.984 . S
H627 N621 0.985 . S
H628 N625 0.984 . S
H629 N625 0.985 . S
H630 N624 0.984 . S
H631 N624 0.984 . S
H632 N620 0.984 . S
H633 N620 0.985 . S
C634 C635 1.363 . S
C634 C640 1.379 . S
C634 N642 1.356 . S
C635 C634 1.363 . S
C635 C641 1.363 . S
C636 C637 1.363 . S
C636 C641 1.379 . S
C636 N643 1.356 . S
C637 C636 1.363 . S
C637 C640 1.363 . S
N638 C640 1.356 . S
N638 H650 0.984 . S
N638 H651 0.985 . S
N639 C641 1.356 . S
N639 H644 0.984 . S
N639 H645 0.985 . S
C640 C634 1.379 . S
C640 C637 1.363 . S
C640 N638 1.356 . S
C641 C635 1.363 . S
C641 C636 1.379 . S
C641 N639 1.356 . S
N642 C634 1.356 . S
N642 H648 0.984 . S
N642 H649 0.984 . S
N643 C636 1.356 . S
N643 H646 0.984 . S
N643 H647 0.985 . S
H644 N639 0.984 . S
H645 N639 0.985 . S
H646 N643 0.984 . S
H647 N643 0.985 . S
H648 N642 0.984 . S
H649 N642 0.984 . S
H650 N638 0.984 . S
H651 N638 0.985 . S
C652 C653 1.363 . S
C652 C658 1.379 . S
C652 N660 1.356 . S
C653 C652 1.363 . S
C653 C659 1.363 . S
C654 C655 1.363 . S
C654 C659 1.379 . S
C654 N661 1.356 . S
C655 C654 1.363 . S
C655 C658 1.363 . S
N656 C658 1.356 . S
N656 H668 0.984 1_455 S
N656 H669 0.985 . S
N657 C659 1.356 . S
N657 H662 0.984 . S
N657 H663 0.985 . S
C658 C652 1.379 . S
C658 C655 1.363 . S
C658 N656 1.356 . S
C659 C653 1.363 . S
C659 C654 1.379 . S
C659 N657 1.356 . S
N660 C652 1.356 . S
N660 H666 0.984 . S
N660 H667 0.984 . S
N661 C654 1.356 . S
N661 H664 0.984 . S
N661 H665 0.985 . S
H662 N657 0.984 . S
H663 N657 0.985 . S
H664 N661 0.984 . S
H665 N661 0.985 . S
H666 N660 0.984 . S
H667 N660 0.984 . S
H668 N656 0.984 1_655 S
H669 N656 0.985 . S
C670 C671 1.363 . S
C670 C676 1.379 . S
C670 N678 1.356 . S
C671 C670 1.363 . S
C671 C677 1.363 . S
C672 C673 1.363 . S
C672 C677 1.379 . S
C672 N679 1.356 . S
C673 C672 1.363 . S
C673 C676 1.363 . S
N674 C676 1.356 . S
N674 H686 0.984 . S
N674 H687 0.985 . S
N675 C677 1.356 . S
N675 H680 0.984 . S
N675 H681 0.985 . S
C676 C670 1.379 . S
C676 C673 1.363 . S
C676 N674 1.356 . S
C677 C671 1.363 . S
C677 C672 1.379 . S
C677 N675 1.356 . S
N678 C670 1.356 . S
N678 H684 0.984 . S
N678 H685 0.984 . S
N679 C672 1.356 . S
N679 H682 0.984 . S
N679 H683 0.985 . S
H680 N675 0.984 . S
H681 N675 0.985 . S
H682 N679 0.984 . S
H683 N679 0.985 . S
H684 N678 0.984 . S
H685 N678 0.984 . S
H686 N674 0.984 . S
H687 N674 0.985 . S
C257 C6 1.059 . S
C259 C103 1.092 . S
C275 C18 1.286 . S
C277 C152 1.274 . S
C295 C178 2.577 . S
C293 C28 2.630 . S
C311 C40 1.964 . S
C313 C226 1.920 . S
C331 C138 2.224 . S
C329 C9 2.055 . S
C349 C106 1.008 . S
C347 C16 1.004 . S
C367 C227 1.937 . S
C365 C30 1.961 . S
C385 C195 1.456 . S
C383 C42 1.481 . S
C401 C4 1.511 . S
C403 C223 1.557 . S
C421 C155 2.516 . S
C419 C33 2.590 . S
C437 C45 2.110 . S
C439 C107 2.105 . S
C455 C21 1.243 . S
C457 C192 1.285 . S
C475 C112 1.100 . S
C473 C57 1.088 . S
C491 C66 1.327 . S
C493 C143 1.308 . S
C509 C76 2.679 . S
C511 C187 2.618 . S
C527 C88 1.904 . S
C529 C235 1.874 . S
C545 C54 2.053 . S
C547 C147 2.221 . S
C565 C115 1.120 . S
C563 C64 1.132 . S
C583 C218 1.863 . S
C581 C78 1.904 . S
C601 C186 1.499 . S
C599 C93 1.525 . S
C617 C52 1.466 . S
C619 C232 1.589 . S
C637 C146 2.503 . S
C635 C81 2.580 . S
C655 C98 2.090 . S
C653 C90 2.090 . S
C671 C69 1.221 . S
C673 C183 1.285 . S
