# Generated by pormake.
# Topology hwx, (6,3)-cn, num edge types: 1
# Building blocks:
#     Node 0, Type 0, BuildingBlock: IZENUY_clean_sbu_0, # of connection points: 6
#     Node 1, Type 0, BuildingBlock: IZENUY_clean_sbu_0, # of connection points: 6
#     Node 2, Type 0, BuildingBlock: IZENUY_clean_sbu_0, # of connection points: 6
#     Node 3, Type 0, BuildingBlock: IZENUY_clean_sbu_0, # of connection points: 6
#     Node 4, Type 1, BuildingBlock: BETDIP_clean_linker_0, # of connection points: 3
#     Node 5, Type 1, BuildingBlock: BETDIP_clean_linker_0, # of connection points: 3
#     Node 6, Type 1, BuildingBlock: BETDIP_clean_linker_0, # of connection points: 3
#     Node 7, Type 1, BuildingBlock: BETDIP_clean_linker_0, # of connection points: 3
#     Node 8, Type 1, BuildingBlock: BETDIP_clean_linker_0, # of connection points: 3
#     Node 9, Type 1, BuildingBlock: BETDIP_clean_linker_0, # of connection points: 3
#     Node 10, Type 1, BuildingBlock: BETDIP_clean_linker_0, # of connection points: 3
#     Node 11, Type 1, BuildingBlock: BETDIP_clean_linker_0, # of connection points: 3
#     Edge 12, Type (0, 1), BuildingBlock: XUDNAN_clean_linker_2, # of connection points: 2
#     Edge 13, Type (0, 1), BuildingBlock: XUDNAN_clean_linker_2, # of connection points: 2
#     Edge 14, Type (0, 1), BuildingBlock: XUDNAN_clean_linker_2, # of connection points: 2
#     Edge 15, Type (0, 1), BuildingBlock: XUDNAN_clean_linker_2, # of connection points: 2
#     Edge 16, Type (0, 1), BuildingBlock: XUDNAN_clean_linker_2, # of connection points: 2
#     Edge 17, Type (0, 1), BuildingBlock: XUDNAN_clean_linker_2, # of connection points: 2
#     Edge 18, Type (0, 1), BuildingBlock: XUDNAN_clean_linker_2, # of connection points: 2
#     Edge 19, Type (0, 1), BuildingBlock: XUDNAN_clean_linker_2, # of connection points: 2
#     Edge 20, Type (0, 1), BuildingBlock: XUDNAN_clean_linker_2, # of connection points: 2
#     Edge 21, Type (0, 1), BuildingBlock: XUDNAN_clean_linker_2, # of connection points: 2
#     Edge 22, Type (0, 1), BuildingBlock: XUDNAN_clean_linker_2, # of connection points: 2
#     Edge 23, Type (0, 1), BuildingBlock: XUDNAN_clean_linker_2, # of connection points: 2
#     Edge 24, Type (0, 1), BuildingBlock: XUDNAN_clean_linker_2, # of connection points: 2
#     Edge 25, Type (0, 1), BuildingBlock: XUDNAN_clean_linker_2, # of connection points: 2
#     Edge 26, Type (0, 1), BuildingBlock: XUDNAN_clean_linker_2, # of connection points: 2
#     Edge 27, Type (0, 1), BuildingBlock: XUDNAN_clean_linker_2, # of connection points: 2
#     Edge 28, Type (0, 1), BuildingBlock: XUDNAN_clean_linker_2, # of connection points: 2
#     Edge 29, Type (0, 1), BuildingBlock: XUDNAN_clean_linker_2, # of connection points: 2
#     Edge 30, Type (0, 1), BuildingBlock: XUDNAN_clean_linker_2, # of connection points: 2
#     Edge 31, Type (0, 1), BuildingBlock: XUDNAN_clean_linker_2, # of connection points: 2
#     Edge 32, Type (0, 1), BuildingBlock: XUDNAN_clean_linker_2, # of connection points: 2
#     Edge 33, Type (0, 1), BuildingBlock: XUDNAN_clean_linker_2, # of connection points: 2
#     Edge 34, Type (0, 1), BuildingBlock: XUDNAN_clean_linker_2, # of connection points: 2
#     Edge 35, Type (0, 1), BuildingBlock: XUDNAN_clean_linker_2, # of connection points: 2
# Relax obj value: 0.003
# Max RMSD: 0.061
# Mean RMSD: 0.048
data_MOF--net-hwx--node1-IZENUY_clean_sbu_0--node2-BETDIP_clean_linker_0--edge1-XUDNAN_clean_linker_2
_symmetry_space_group_name_H-M    P1
_symmetry_Int_Tables_number       1
_symmetry_cell_setting            triclinic
loop_
_symmetry_equiv_pos_as_xyz
'x, y, z'
_cell_length_a     51.499463
_cell_length_b     51.49802
_cell_length_c     20.722612
_cell_angle_alpha  91.518793
_cell_angle_beta   91.531676
_cell_angle_gamma 89.914273
loop_
_atom_site_label
_atom_site_type_symbol
_atom_site_fract_x
_atom_site_fract_y
_atom_site_fract_z
_atom_type_partial_charge
Fe0 Fe 0.2359 0.23887 0.07787 0.0
Fe1 Fe 0.23721 0.23699 0.92968 0.0
O2 O 0.2241 0.22636 0.00243 0.0
Fe3 Fe 0.19903 0.20293 0.9998 0.0
O4 O 0.18366 0.21483 0.07432 0.0
O5 O 0.20414 0.25131 0.09782 0.0
O6 O 0.2431 0.27172 0.0483 0.0
C7 C 0.23494 0.28307 0.99793 0.0
C8 C 0.22871 0.18479 0.09869 0.0
O9 O 0.22833 0.27015 0.94776 0.0
C10 C 0.23185 0.18537 0.90118 0.0
O11 O 0.26813 0.22721 0.06228 0.0
O12 O 0.27071 0.24154 0.9636 0.0
O13 O 0.21913 0.1804 0.043 0.0
O14 O 0.23103 0.20801 0.12091 0.0
C15 C 0.18254 0.23334 0.9022 0.0
O16 O 0.24712 0.20435 0.90729 0.0
O17 O 0.20946 0.18643 0.92476 0.0
C18 C 0.28135 0.23209 0.01384 0.0
O19 O 0.20583 0.23436 0.8829 0.0
O20 O 0.17776 0.22433 0.95646 0.0
C21 C 0.18421 0.23732 0.10045 0.0
Fe22 Fe 0.27501 0.73938 0.58295 0.0
Fe23 Fe 0.30725 0.70606 0.49019 0.0
O24 O 0.28281 0.72981 0.50316 0.0
Fe25 Fe 0.26622 0.74394 0.43678 0.0
O26 O 0.27676 0.77652 0.46188 0.0
O27 O 0.26659 0.77286 0.5634 0.0
O28 O 0.30784 0.75085 0.59949 0.0
C29 C 0.32773 0.73678 0.59436 0.0
C30 C 0.22643 0.73644 0.52656 0.0
O31 O 0.32684 0.71539 0.56281 0.0
C32 C 0.26909 0.69324 0.39371 0.0
O33 O 0.28212 0.7076 0.61773 0.0
O34 O 0.28923 0.68202 0.5335 0.0
O35 O 0.23516 0.74757 0.47778 0.0
O36 O 0.24164 0.72866 0.57082 0.0
C37 C 0.31851 0.74086 0.39753 0.0
O38 O 0.29227 0.69249 0.41544 0.0
O39 O 0.25461 0.71236 0.40685 0.0
C40 C 0.2827 0.68514 0.59142 0.0
O41 O 0.3267 0.72851 0.44581 0.0
O42 O 0.2944 0.74282 0.38449 0.0
C43 C 0.27355 0.78659 0.51724 0.0
Fe44 Fe 0.7702 0.78242 0.96049 0.0
Fe45 Fe 0.76962 0.78215 0.10866 0.0
O46 O 0.78364 0.79257 0.03685 0.0
Fe47 Fe 0.8113 0.81292 0.04121 0.0
O48 O 0.80245 0.83039 0.96768 0.0
O49 O 0.76358 0.81582 0.93861 0.0
O50 O 0.7365 0.78057 0.98804 0.0
C51 C 0.72566 0.79102 0.03648 0.0
C52 C 0.82439 0.78041 0.94162 0.0
O53 O 0.73872 0.79676 0.08714 0.0
C54 C 0.82124 0.77772 0.14134 0.0
O55 O 0.77622 0.74843 0.97771 0.0
O56 O 0.75975 0.75026 0.07456 0.0
O57 O 0.83034 0.78907 0.99745 0.0
O58 O 0.80139 0.7824 0.91902 0.0
C59 C 0.78278 0.83483 0.13758 0.0
O60 O 0.79953 0.76662 0.13478 0.0
O61 O 0.82513 0.79939 0.1159 0.0
C62 C 0.76841 0.73719 0.02704 0.0
O63 O 0.7771 0.81225 0.15575 0.0
O64 O 0.79405 0.83795 0.08516 0.0
C65 C 0.78062 0.83347 0.93913 0.0
Fe66 Fe 0.69714 0.31735 0.49551 0.0
Fe67 Fe 0.73459 0.2806 0.56677 0.0
O68 O 0.72151 0.29314 0.49354 0.0
Fe69 Fe 0.7324 0.28151 0.41769 0.0
O70 O 0.74343 0.31359 0.39607 0.0
O71 O 0.70708 0.33301 0.42183 0.0
O72 O 0.71856 0.33956 0.53928 0.0
C73 C 0.72994 0.33518 0.5925 0.0
C74 C 0.67822 0.28677 0.39629 0.0
O75 O 0.73268 0.31207 0.61209 0.0
C76 C 0.72893 0.23599 0.48301 0.0
O77 O 0.68271 0.30671 0.56958 0.0
O78 O 0.70261 0.27033 0.59255 0.0
O79 O 0.70099 0.28577 0.37472 0.0
O80 O 0.67416 0.2963 0.45171 0.0
C81 C 0.77862 0.28361 0.49494 0.0
O82 O 0.73868 0.24716 0.53349 0.0
O83 O 0.72213 0.24892 0.43445 0.0
C84 C 0.68285 0.28479 0.59526 0.0
O85 O 0.76758 0.28968 0.54688 0.0
O86 O 0.76565 0.27503 0.44627 0.0
C87 C 0.72884 0.33327 0.39503 0.0
H88 H 0.25887 0.52191 0.89034 0.0
H89 H 0.24563 0.52347 0.09445 0.0
H90 H 0.25066 0.59498 0.99425 0.0
H91 H 0.25525 0.48003 0.0865 0.0
C92 C 0.25054 0.47388 0.03709 0.0
C93 C 0.25572 0.533 0.93458 0.0
C94 C 0.25542 0.56031 0.93433 0.0
C95 C 0.25213 0.51945 0.9915 0.0
C96 C 0.24863 0.53345 0.04997 0.0
C97 C 0.24849 0.56075 0.05056 0.0
C98 C 0.2516 0.57395 0.99297 0.0
N99 N 0.25097 0.49188 0.9862 0.0
H100 H 0.98572 0.74915 0.64541 0.0
H101 H 0.98724 0.74188 0.43817 0.0
H102 H 0.91438 0.74154 0.5331 0.0
H103 H 0.02972 0.75116 0.45209 0.0
C104 C 0.0357 0.74597 0.50067 0.0
C105 C 0.97536 0.74688 0.59942 0.0
C106 C 0.94808 0.74584 0.59694 0.0
C107 C 0.98976 0.7453 0.54302 0.0
C108 C 0.97665 0.74323 0.48249 0.0
C109 C 0.9494 0.74209 0.4794 0.0
C110 C 0.93537 0.74305 0.5364 0.0
N111 N 0.01729 0.74478 0.55037 0.0
H112 H 0.77586 0.49592 0.11525 0.0
H113 H 0.77782 0.49807 0.90861 0.0
H114 H 0.7596 0.42674 0.00159 0.0
H115 H 0.78066 0.54131 0.92225 0.0
C116 C 0.78013 0.54668 0.97316 0.0
C117 C 0.774 0.48593 0.06865 0.0
C118 C 0.768 0.45937 0.06517 0.0
C119 C 0.77691 0.50018 0.01283 0.0
C120 C 0.77493 0.48737 0.95195 0.0
C121 C 0.76927 0.46051 0.94719 0.0
C122 C 0.76558 0.4469 0.00433 0.0
N123 N 0.7806 0.52746 0.02125 0.0
H124 H 0.01968 0.27949 0.3856 0.0
H125 H 0.01858 0.27507 0.59249 0.0
H126 H 0.08873 0.25784 0.49074 0.0
H127 H 0.97567 0.27816 0.58188 0.0
C128 C 0.96986 0.28168 0.5322 0.0
C129 C 0.02958 0.27571 0.43124 0.0
C130 C 0.05589 0.26886 0.43217 0.0
C131 C 0.01565 0.27706 0.48838 0.0
C132 C 0.02878 0.27282 0.54785 0.0
C133 C 0.05548 0.26626 0.54965 0.0
C134 C 0.06851 0.26365 0.49103 0.0
N135 N 0.98857 0.28254 0.48291 0.0
H136 H 0.74807 1.00223 0.65231 0.0
H137 H 0.74531 0.99849 0.44481 0.0
H138 H 0.76036 0.92944 0.55062 0.0
H139 H 0.76087 0.03804 0.4544 0.0
C140 C 0.75109 0.04686 0.49523 0.0
C141 C 0.74943 0.99105 0.60749 0.0
C142 C 0.75329 0.96394 0.60856 0.0
C143 C 0.74758 1.00394 0.54867 0.0
C144 C 0.74852 0.98921 0.49048 0.0
C145 C 0.7534 0.96235 0.49042 0.0
C146 C 0.75568 0.94995 0.54982 0.0
N147 N 0.74482 0.03157 0.54897 0.0
H148 H 0.51527 0.24347 0.87216 0.0
H149 H 0.51584 0.24932 0.07883 0.0
H150 H 0.58752 0.25467 0.9783 0.0
H151 H 0.48474 0.21682 0.05886 0.0
C152 C 0.47288 0.22662 0.02277 0.0
C153 C 0.52605 0.24602 0.91749 0.0
C154 C 0.55317 0.24971 0.91799 0.0
C155 C 0.51269 0.24485 0.97535 0.0
C156 C 0.52645 0.24852 0.03449 0.0
C157 C 0.55358 0.25192 0.03652 0.0
C158 C 0.56668 0.25215 0.97775 0.0
N159 N 0.4854 0.24009 0.97326 0.0
H160 H 0.26831 0.02043 0.39103 0.0
H161 H 0.27067 0.02038 0.59868 0.0
H162 H 0.24949 0.08984 0.50163 0.0
H163 H 0.29991 0.98856 0.57965 0.0
C164 C 0.29024 0.97725 0.5411 0.0
C165 C 0.26568 0.03061 0.43679 0.0
C166 C 0.25852 0.05709 0.43856 0.0
C167 C 0.27034 0.01717 0.49401 0.0
C168 C 0.26768 0.03041 0.55384 0.0
C169 C 0.26038 0.05663 0.55643 0.0
C170 C 0.25546 0.06967 0.49893 0.0
N171 N 0.27703 0.9903 0.49022 0.0
H172 H 0.48023 0.77235 0.12439 0.0
H173 H 0.49179 0.76559 0.9191 0.0
H174 H 0.41507 0.76063 0.99288 0.0
H175 H 0.53286 0.75662 0.94824 0.0
C176 C 0.53678 0.76736 0.99321 0.0
C177 C 0.47253 0.76904 0.07568 0.0
C178 C 0.44563 0.76657 0.06473 0.0
C179 C 0.48954 0.76828 0.02377 0.0
C180 C 0.4793 0.76513 0.96018 0.0
C181 C 0.45248 0.76189 0.9492 0.0
C182 C 0.43587 0.76249 0.00156 0.0
N183 N 0.51651 0.77228 0.03725 0.0
H184 H 0.15702 0.20889 0.18499 0.0
H185 H 0.1636 0.28591 0.10765 0.0
H186 H 0.12809 0.30137 0.17729 0.0
H187 H 0.08685 0.20852 0.20834 0.0
H188 H 0.08973 0.19219 0.28407 0.0
H189 H 0.11347 0.18648 0.22295 0.0
H190 H 0.15031 0.19982 0.30481 0.0
H191 H 0.12672 0.20548 0.36615 0.0
H192 H 0.14881 0.23099 0.34628 0.0
H193 H 0.09252 0.30852 0.25682 0.0
H194 H 0.06322 0.30828 0.34977 0.0
H195 H 0.08261 0.22763 0.38139 0.0
C196 C 0.1506 0.22887 0.18203 0.0
C197 C 0.1626 0.24619 0.14051 0.0
C198 C 0.1544 0.2724 0.13908 0.0
C199 C 0.13422 0.28127 0.1781 0.0
C200 C 0.12281 0.26376 0.21896 0.0
C201 C 0.13096 0.2382 0.22189 0.0
C202 C 0.11734 0.22404 0.27442 0.0
C203 C 0.10087 0.20147 0.24571 0.0
C204 C 0.13697 0.21454 0.32596 0.0
C205 C 0.1004 0.24565 0.30087 0.0
C206 C 0.10343 0.26826 0.26735 0.0
C207 C 0.08994 0.29093 0.28335 0.0
C208 C 0.07331 0.29061 0.33585 0.0
C209 C 0.07075 0.26795 0.37218 0.0
C210 C 0.08425 0.24515 0.35402 0.0
H211 H 0.29274 0.681 0.72065 0.0
H212 H 0.26269 0.6379 0.55224 0.0
H213 H 0.25322 0.60057 0.62099 0.0
H214 H 0.32394 0.62558 0.79637 0.0
H215 H 0.31672 0.63702 0.87686 0.0
H216 H 0.32125 0.65993 0.81394 0.0
H217 H 0.27607 0.6799 0.83637 0.0
H218 H 0.27129 0.65696 0.89901 0.0
H219 H 0.24779 0.65925 0.83337 0.0
H220 H 0.24398 0.56948 0.71042 0.0
H221 H 0.23885 0.54567 0.81076 0.0
H222 H 0.27909 0.6078 0.91841 0.0
C223 C 0.28419 0.66368 0.69822 0.0
C224 C 0.27821 0.66232 0.63131 0.0
C225 C 0.26742 0.63923 0.60347 0.0
C226 C 0.26193 0.61802 0.64213 0.0
C227 C 0.26785 0.62009 0.70818 0.0
C228 C 0.27912 0.6422 0.73576 0.0
C229 C 0.28397 0.63944 0.80762 0.0
C230 C 0.31321 0.64055 0.82468 0.0
C231 C 0.26887 0.66011 0.84635 0.0
C232 C 0.27309 0.61252 0.81659 0.0
C233 C 0.26378 0.60172 0.7588 0.0
C234 C 0.25166 0.57755 0.75574 0.0
C235 C 0.24902 0.56406 0.8132 0.0
C236 C 0.25873 0.57457 0.87312 0.0
C237 C 0.27112 0.59913 0.87408 0.0
H238 H 0.86401 0.80189 0.19746 0.0
H239 H 0.82419 0.72766 0.18165 0.0
H240 H 0.85693 0.70882 0.25595 0.0
H241 H 0.93095 0.77615 0.21211 0.0
H242 H 0.94078 0.80093 0.27077 0.0
H243 H 0.91609 0.80785 0.21032 0.0
H244 H 0.88438 0.82178 0.29994 0.0
H245 H 0.90898 0.81508 0.36045 0.0
H246 H 0.87768 0.79959 0.36326 0.0
H247 H 0.89107 0.69917 0.33959 0.0
H248 H 0.92308 0.70012 0.43088 0.0
H249 H 0.94103 0.78027 0.3928 0.0
C250 C 0.86246 0.78154 0.20866 0.0
C251 C 0.8416 0.76621 0.18353 0.0
C252 C 0.83997 0.73979 0.20039 0.0
C253 C 0.85858 0.72886 0.2422 0.0
C254 C 0.87873 0.74457 0.26672 0.0
C255 C 0.88076 0.77037 0.25075 0.0
C256 C 0.90292 0.78361 0.28826 0.0
C257 C 0.92393 0.79266 0.24263 0.0
C258 C 0.89288 0.80635 0.33048 0.0
C259 C 0.91262 0.76141 0.32901 0.0
C260 C 0.8986 0.73896 0.31512 0.0
C261 C 0.90253 0.71644 0.34999 0.0
C262 C 0.92076 0.71709 0.40146 0.0
C263 C 0.93482 0.74003 0.41729 0.0
C264 C 0.93109 0.76228 0.37989 0.0
H265 H 0.75564 0.33551 0.71165 0.0
H266 H 0.72081 0.38641 0.56942 0.0
H267 H 0.73012 0.42419 0.64108 0.0
H268 H 0.73178 0.36796 0.84934 0.0
H269 H 0.76072 0.36392 0.89892 0.0
H270 H 0.75308 0.34074 0.83472 0.0
H271 H 0.79801 0.34859 0.78527 0.0
H272 H 0.80582 0.37176 0.84956 0.0
H273 H 0.80751 0.38116 0.76662 0.0
H274 H 0.73899 0.45603 0.73179 0.0
H275 H 0.74843 0.47984 0.8342 0.0
H276 H 0.78092 0.4094 0.91493 0.0
C277 C 0.75025 0.35462 0.69527 0.0
C278 C 0.73736 0.35784 0.63486 0.0
C279 C 0.73064 0.38327 0.61541 0.0
C280 C 0.73589 0.40496 0.65575 0.0
C281 C 0.74821 0.4011 0.71523 0.0
C282 C 0.75559 0.37664 0.73478 0.0
C283 C 0.76792 0.37792 0.80205 0.0
C284 C 0.75245 0.36167 0.84901 0.0
C285 C 0.79652 0.36935 0.80077 0.0
C286 C 0.76558 0.40676 0.81773 0.0
C287 C 0.75422 0.41977 0.76692 0.0
C288 C 0.74841 0.44618 0.77154 0.0
C289 C 0.75406 0.45962 0.82999 0.0
C290 C 0.76561 0.44672 0.88318 0.0
C291 C 0.77187 0.41998 0.87589 0.0
H292 H 0.67253 0.29715 0.26862 0.0
H293 H 0.63393 0.26131 0.42683 0.0
H294 H 0.59732 0.24846 0.35246 0.0
H295 H 0.61363 0.32367 0.19586 0.0
H296 H 0.62476 0.31899 0.11464 0.0
H297 H 0.64788 0.32463 0.18024 0.0
H298 H 0.67184 0.28204 0.14865 0.0
H299 H 0.64871 0.27619 0.08321 0.0
H300 H 0.654 0.25193 0.14328 0.0
H301 H 0.56678 0.23679 0.25778 0.0
H302 H 0.54247 0.23113 0.15453 0.0
H303 H 0.59858 0.28023 0.06276 0.0
C304 C 0.65636 0.28655 0.28745 0.0
C305 C 0.65603 0.27987 0.35299 0.0
C306 C 0.63442 0.26648 0.37653 0.0
C307 C 0.61366 0.25908 0.33469 0.0
C308 C 0.61463 0.26584 0.27002 0.0
C309 C 0.63521 0.27971 0.24689 0.0
C310 C 0.63114 0.2855 0.17615 0.0
C311 C 0.62923 0.31494 0.16616 0.0
C312 C 0.6527 0.27317 0.13544 0.0
C313 C 0.60529 0.27225 0.1626 0.0
C314 C 0.5962 0.26077 0.21705 0.0
C315 C 0.57344 0.24617 0.21514 0.0
C316 C 0.55961 0.24327 0.15607 0.0
C317 C 0.56824 0.25535 0.09961 0.0
C318 C 0.59136 0.27026 0.10389 0.0
H319 H 0.20276 0.16037 0.80658 0.0
H320 H 0.2784 0.16071 0.90339 0.0
H321 H 0.29235 0.12417 0.83233 0.0
H322 H 0.19767 0.09012 0.77114 0.0
H323 H 0.18312 0.09463 0.69214 0.0
H324 H 0.17792 0.11836 0.75602 0.0
H325 H 0.19538 0.15456 0.68427 0.0
H326 H 0.20059 0.13099 0.62027 0.0
H327 H 0.22712 0.15106 0.65041 0.0
H328 H 0.29853 0.08887 0.74852 0.0
H329 H 0.29834 0.0606 0.65003 0.0
H330 H 0.21993 0.08568 0.60225 0.0
C331 C 0.22204 0.1523 0.8135 0.0
C332 C 0.23945 0.16287 0.86083 0.0
C333 C 0.26482 0.15258 0.86749 0.0
C334 C 0.27283 0.13181 0.82766 0.0
C335 C 0.25532 0.12191 0.78085 0.0
C336 C 0.23056 0.13202 0.77299 0.0
C337 C 0.21656 0.11978 0.71463 0.0
C338 C 0.19239 0.10483 0.73471 0.0
C339 C 0.20951 0.14032 0.66444 0.0
C340 C 0.2374 0.10145 0.69051 0.0
C341 C 0.25939 0.10257 0.7302 0.0
C342 C 0.28139 0.08773 0.71722 0.0
C343 C 0.28109 0.07168 0.66147 0.0
C344 C 0.25912 0.07102 0.61898 0.0
C345 C 0.23693 0.08586 0.63418 0.0
H346 H 0.36804 0.72372 0.37239 0.0
H347 H 0.31038 0.78127 0.31803 0.0
H348 H 0.33932 0.79714 0.23489 0.0
H349 H 0.42649 0.76346 0.3417 0.0
H350 H 0.44407 0.73608 0.30887 0.0
H351 H 0.4204 0.73129 0.36999 0.0
H352 H 0.39629 0.69779 0.29471 0.0
H353 H 0.4198 0.70249 0.23343 0.0
H354 H 0.38574 0.70714 0.21498 0.0
H355 H 0.37181 0.80407 0.15171 0.0
H356 H 0.40605 0.80109 0.07079 0.0
H357 H 0.44317 0.73899 0.1764 0.0
C358 C 0.36182 0.74005 0.34393 0.0
C359 C 0.33704 0.75138 0.35176 0.0
C360 C 0.32928 0.7723 0.31268 0.0
C361 C 0.34563 0.78155 0.26561 0.0
C362 C 0.36969 0.76966 0.2581 0.0
C363 C 0.37785 0.74938 0.29604 0.0
C364 C 0.40369 0.73862 0.27392 0.0
C365 C 0.42492 0.74261 0.32678 0.0
C366 C 0.40122 0.70981 0.25301 0.0
C367 C 0.40839 0.75561 0.21669 0.0
C368 C 0.38863 0.77358 0.20913 0.0
C369 C 0.38758 0.79035 0.15755 0.0
C370 C 0.40702 0.78847 0.11181 0.0
C371 C 0.4272 0.76994 0.1178 0.0
C372 C 0.42817 0.75363 0.17155 0.0
H373 H 0.74908 0.83991 0.83107 0.0
H374 H 0.80306 0.88067 0.96217 0.0
H375 H 0.79854 0.92003 0.89742 0.0
H376 H 0.77342 0.86559 0.68914 0.0
H377 H 0.74235 0.86798 0.64758 0.0
H378 H 0.7474 0.84393 0.70808 0.0
H379 H 0.70796 0.86192 0.7703 0.0
H380 H 0.70277 0.88605 0.70984 0.0
H381 H 0.70695 0.89588 0.79361 0.0
H382 H 0.79053 0.95406 0.81489 0.0
H383 H 0.78133 0.97942 0.71732 0.0
H384 H 0.73301 0.9166 0.63876 0.0
C385 C 0.75953 0.85728 0.84675 0.0
C386 C 0.77632 0.85729 0.90183 0.0
C387 C 0.79013 0.88023 0.92004 0.0
C388 C 0.78759 0.90273 0.88379 0.0
C389 C 0.77123 0.90201 0.82919 0.0
C390 C 0.75749 0.87987 0.81053 0.0
C391 C 0.74286 0.88365 0.74701 0.0
C392 C 0.75207 0.86413 0.69489 0.0
C393 C 0.71338 0.88177 0.75574 0.0
C394 C 0.75091 0.91115 0.73244 0.0
C395 C 0.76698 0.92152 0.78086 0.0
C396 C 0.77772 0.94626 0.77694 0.0
C397 C 0.77227 0.9606 0.72149 0.0
C398 C 0.75641 0.95007 0.67043 0.0
C399 C 0.74527 0.92518 0.67685 0.0
H400 H 0.82726 0.78641 0.81162 0.0
H401 H 0.86884 0.7549 0.97665 0.0
H402 H 0.9047 0.74126 0.90595 0.0
H403 H 0.84671 0.73852 0.69132 0.0
H404 H 0.85024 0.76207 0.62936 0.0
H405 H 0.8272 0.76762 0.69217 0.0
H406 H 0.84888 0.81193 0.7214 0.0
H407 H 0.87197 0.80653 0.65874 0.0
H408 H 0.88321 0.81311 0.74065 0.0
H409 H 0.93573 0.73085 0.81643 0.0
H410 H 0.96081 0.72677 0.717 0.0
H411 H 0.90049 0.76928 0.61369 0.0
C412 C 0.84375 0.77629 0.83262 0.0
C413 C 0.84525 0.77136 0.89925 0.0
C414 C 0.86738 0.75871 0.92551 0.0
C415 C 0.88776 0.75087 0.88578 0.0
C416 C 0.8858 0.75623 0.82024 0.0
C417 C 0.86447 0.76888 0.794 0.0
C418 C 0.8678 0.77378 0.72305 0.0
C419 C 0.84674 0.75965 0.68154 0.0
C420 C 0.86799 0.80307 0.71024 0.0
C421 C 0.89428 0.76176 0.71332 0.0
C422 C 0.90423 0.75151 0.76969 0.0
C423 C 0.92824 0.73903 0.7721 0.0
C424 C 0.94246 0.73702 0.71536 0.0
C425 C 0.93283 0.74779 0.65708 0.0
C426 C 0.90839 0.7604 0.65672 0.0
H427 H 0.76003 0.33542 0.28902 0.0
H428 H 0.71215 0.38264 0.41543 0.0
H429 H 0.71975 0.42071 0.34896 0.0
H430 H 0.80716 0.38671 0.25179 0.0
H431 H 0.8095 0.37592 0.16868 0.0
H432 H 0.80262 0.35287 0.2299 0.0
H433 H 0.76104 0.33846 0.16556 0.0
H434 H 0.76768 0.36155 0.10444 0.0
H435 H 0.73697 0.36242 0.14417 0.0
H436 H 0.72945 0.45263 0.26557 0.0
H437 H 0.74053 0.47672 0.16904 0.0
H438 H 0.78233 0.40938 0.09525 0.0
C439 C 0.75161 0.35392 0.30329 0.0
C440 C 0.73556 0.35614 0.35741 0.0
C441 C 0.72444 0.38052 0.37398 0.0
C442 C 0.72873 0.40228 0.33673 0.0
C443 C 0.74414 0.39937 0.28291 0.0
C444 C 0.75548 0.37587 0.26609 0.0
C445 C 0.76974 0.37776 0.20329 0.0
C446 C 0.799 0.37304 0.21409 0.0
C447 C 0.75816 0.35893 0.15131 0.0
C448 C 0.76421 0.40582 0.18708 0.0
C449 C 0.74964 0.41794 0.23406 0.0
C450 C 0.74119 0.44351 0.22884 0.0
C451 C 0.74772 0.45708 0.17392 0.0
C452 C 0.76253 0.44508 0.12474 0.0
C453 C 0.77097 0.41911 0.1319 0.0
H454 H 0.18201 0.25603 0.78198 0.0
H455 H 0.13163 0.2231 0.92358 0.0
H456 H 0.09389 0.22962 0.85132 0.0
H457 H 0.13537 0.30551 0.72782 0.0
H458 H 0.14466 0.30264 0.64469 0.0
H459 H 0.16807 0.2962 0.70848 0.0
H460 H 0.17661 0.2506 0.6575 0.0
H461 H 0.15314 0.25683 0.5938 0.0
H462 H 0.14975 0.22863 0.64257 0.0
H463 H 0.06184 0.23624 0.76126 0.0
H464 H 0.03729 0.24496 0.66056 0.0
H465 H 0.10702 0.27733 0.58036 0.0
C466 C 0.16303 0.25039 0.79791 0.0
C467 C 0.15999 0.23896 0.85855 0.0
C468 C 0.13469 0.23191 0.87751 0.0
C469 C 0.11298 0.2355 0.83676 0.0
C470 C 0.11664 0.24651 0.77725 0.0
C471 C 0.14092 0.25416 0.75798 0.0
C472 C 0.13925 0.2654 0.6911 0.0
C473 C 0.14731 0.29415 0.69317 0.0
C474 C 0.15566 0.24941 0.64344 0.0
C475 C 0.11041 0.26233 0.67569 0.0
C476 C 0.09777 0.25133 0.72599 0.0
C477 C 0.07139 0.24531 0.72181 0.0
C478 C 0.05753 0.25054 0.66441 0.0
C479 C 0.06998 0.26196 0.61195 0.0
C480 C 0.09677 0.26824 0.61867 0.0
H481 H 0.29868 0.65706 0.33045 0.0
H482 H 0.21894 0.68256 0.35205 0.0
H483 H 0.2043 0.64807 0.27384 0.0
H484 H 0.29397 0.64504 0.16216 0.0
H485 H 0.31533 0.61729 0.16305 0.0
H486 H 0.31894 0.64253 0.22433 0.0
H487 H 0.31422 0.60838 0.31298 0.0
H488 H 0.31038 0.58304 0.25184 0.0
H489 H 0.28595 0.58775 0.31177 0.0
H490 H 0.19883 0.61208 0.18845 0.0
H491 H 0.2034 0.57957 0.09885 0.0
H492 H 0.28663 0.57833 0.13329 0.0
C493 C 0.27807 0.65525 0.31948 0.0
C494 C 0.25992 0.67245 0.34772 0.0
C495 C 0.2332 0.66962 0.33104 0.0
C496 C 0.2247 0.65 0.28694 0.0
C497 C 0.24318 0.63343 0.25989 0.0
C498 C 0.26933 0.63599 0.27534 0.0
C499 C 0.2855 0.61695 0.23658 0.0
C500 C 0.30455 0.63131 0.19401 0.0
C501 C 0.29986 0.5979 0.28096 0.0
C502 C 0.26442 0.60335 0.19629 0.0
C503 C 0.24008 0.61292 0.21082 0.0
C504 C 0.21774 0.60422 0.17736 0.0
C505 C 0.22045 0.58571 0.12694 0.0
C506 C 0.24525 0.57618 0.11076 0.0
C507 C 0.26742 0.58487 0.1463 0.0
H508 H 0.34993 0.7074 0.68759 0.0
H509 H 0.35612 0.7812 0.59384 0.0
H510 H 0.39362 0.79311 0.66621 0.0
H511 H 0.35996 0.73349 0.84384 0.0
H512 H 0.37741 0.70583 0.87432 0.0
H513 H 0.35416 0.70157 0.80861 0.0
H514 H 0.38957 0.67978 0.73902 0.0
H515 H 0.41303 0.68415 0.80451 0.0
H516 H 0.4195 0.69679 0.72627 0.0
H517 H 0.42883 0.79773 0.75246 0.0
H518 H 0.4549 0.79746 0.85473 0.0
H519 H 0.42299 0.72227 0.89757 0.0
C520 C 0.35971 0.72576 0.68148 0.0
C521 C 0.3508 0.74323 0.63461 0.0
C522 C 0.36312 0.76753 0.62916 0.0
C523 C 0.38443 0.77434 0.66973 0.0
C524 C 0.39275 0.75675 0.71603 0.0
C525 C 0.3805 0.73311 0.72272 0.0
C526 C 0.39094 0.71918 0.78138 0.0
C527 C 0.36934 0.71478 0.82989 0.0
C528 C 0.40404 0.69345 0.76158 0.0
C529 C 0.41068 0.73883 0.80728 0.0
C530 C 0.41193 0.76007 0.76803 0.0
C531 C 0.42818 0.78112 0.78329 0.0
C532 C 0.443 0.78077 0.8411 0.0
C533 C 0.44101 0.75976 0.88322 0.0
C534 C 0.42501 0.73838 0.86551 0.0
H535 H 0.75823 0.83681 0.25433 0.0
H536 H 0.79791 0.8849 0.11883 0.0
H537 H 0.79283 0.92287 0.19205 0.0
H538 H 0.71159 0.88642 0.30574 0.0
H539 H 0.71236 0.87635 0.38842 0.0
H540 H 0.7181 0.85298 0.32411 0.0
H541 H 0.7621 0.8407 0.3788 0.0
H542 H 0.75655 0.86409 0.44309 0.0
H543 H 0.78576 0.86576 0.39738 0.0
H544 H 0.78636 0.95488 0.28241 0.0
H545 H 0.77759 0.97937 0.38289 0.0
H546 H 0.73973 0.91153 0.45803 0.0
C547 C 0.7657 0.85535 0.23984 0.0
C548 C 0.77858 0.85777 0.18083 0.0
C549 C 0.78801 0.88245 0.16373 0.0
C550 C 0.78521 0.90419 0.20499 0.0
C551 C 0.77271 0.90107 0.26298 0.0
C552 C 0.76291 0.87736 0.2803 0.0
C553 C 0.7507 0.87932 0.34604 0.0
C554 C 0.72145 0.87342 0.34073 0.0
C555 C 0.76461 0.86141 0.39415 0.0
C556 C 0.75563 0.9077 0.36334 0.0
C557 C 0.76831 0.91986 0.31465 0.0
C558 C 0.77603 0.94571 0.32049 0.0
C559 C 0.77074 0.95955 0.37776 0.0
C560 C 0.75764 0.94762 0.42857 0.0
C561 C 0.74986 0.92132 0.42059 0.0
H562 H 0.67944 0.25351 0.70169 0.0
H563 H 0.6335 0.29965 0.56851 0.0
H564 H 0.59439 0.29147 0.63034 0.0
H565 H 0.62753 0.20544 0.7353 0.0
H566 H 0.63698 0.20385 0.81948 0.0
H567 H 0.66099 0.2104 0.7603 0.0
H568 H 0.67414 0.25257 0.8238 0.0
H569 H 0.65014 0.24623 0.88288 0.0
H570 H 0.64967 0.2766 0.84159 0.0
H571 H 0.5614 0.28277 0.71158 0.0
H572 H 0.5365 0.27411 0.80834 0.0
H573 H 0.60258 0.23225 0.8891 0.0
C574 C 0.66101 0.26133 0.68489 0.0
C575 C 0.6595 0.27721 0.63031 0.0
C576 C 0.63514 0.28755 0.61042 0.0
C577 C 0.61275 0.2829 0.64498 0.0
C578 C 0.61491 0.26779 0.69946 0.0
C579 C 0.63833 0.25703 0.71937 0.0
C580 C 0.63547 0.24328 0.78267 0.0
C581 C 0.64054 0.214 0.77389 0.0
C582 C 0.65342 0.2554 0.83586 0.0
C583 C 0.60708 0.24871 0.79583 0.0
C584 C 0.59556 0.26261 0.74678 0.0
C585 C 0.57002 0.27143 0.74982 0.0
C586 C 0.55594 0.26625 0.80498 0.0
C587 C 0.56738 0.25237 0.85663 0.0
C588 C 0.59319 0.24307 0.85095 0.0
H589 H 0.25064 0.18389 0.2224 0.0
H590 H 0.2179 0.13403 0.06849 0.0
H591 H 0.22351 0.09616 0.13675 0.0
H592 H 0.29909 0.13665 0.27878 0.0
H593 H 0.29579 0.146 0.3626 0.0
H594 H 0.29008 0.16948 0.30083 0.0
H595 H 0.24428 0.17863 0.34507 0.0
H596 H 0.24978 0.15509 0.4067 0.0
H597 H 0.22188 0.15207 0.35265 0.0
H598 H 0.22943 0.06397 0.22338 0.0
H599 H 0.23753 0.03924 0.32201 0.0
H600 H 0.26961 0.10869 0.4176 0.0
C601 C 0.24484 0.16499 0.20296 0.0
C602 C 0.2337 0.16212 0.14005 0.0
C603 C 0.22644 0.13694 0.11646 0.0
C604 C 0.22953 0.11518 0.15487 0.0
C605 C 0.24023 0.11869 0.21671 0.0
C606 C 0.24805 0.14285 0.24054 0.0
C607 C 0.25881 0.14107 0.3091 0.0
C608 C 0.28766 0.14875 0.31303 0.0
C609 C 0.24272 0.1577 0.35614 0.0
C610 C 0.25528 0.11229 0.32014 0.0
C611 C 0.2445 0.09977 0.26624 0.0
C612 C 0.23829 0.07344 0.26569 0.0
C613 C 0.24314 0.05948 0.32196 0.0
C614 C 0.25432 0.07181 0.37802 0.0
C615 C 0.26071 0.09857 0.37628 0.0
H616 H 0.24972 0.31987 0.09274 0.0
H617 H 0.21958 0.3118 0.89522 0.0
H618 H 0.21973 0.35913 0.88582 0.0
H619 H 0.21293 0.37835 0.13395 0.0
H620 H 0.23891 0.39288 0.18237 0.0
H621 H 0.23623 0.35803 0.17511 0.0
H622 H 0.28333 0.35523 0.13475 0.0
H623 H 0.28616 0.39006 0.1418 0.0
H624 H 0.29224 0.37359 0.06585 0.0
H625 H 0.22411 0.40671 0.89469 0.0
H626 H 0.23167 0.45279 0.92279 0.0
H627 H 0.25829 0.43195 0.11522 0.0
C628 C 0.24308 0.32808 0.04765 0.0
C629 C 0.23474 0.3119 0.99471 0.0
C630 C 0.22617 0.32355 0.93657 0.0
C631 C 0.22613 0.35052 0.9306 0.0
C632 C 0.2346 0.36584 0.98322 0.0
C633 C 0.24282 0.3552 0.04078 0.0
C634 C 0.25106 0.37644 0.08944 0.0
C635 C 0.23375 0.37642 0.14873 0.0
C636 C 0.27991 0.37366 0.1091 0.0
C637 C 0.24636 0.40051 0.04979 0.0
C638 C 0.23686 0.39378 0.98868 0.0
C639 C 0.23145 0.41229 0.94247 0.0
C640 C 0.2359 0.43846 0.95893 0.0
C641 C 0.24563 0.446 0.02122 0.0
C642 C 0.25076 0.42673 0.06735 0.0
H643 H 0.18797 0.74909 0.43855 0.0
H644 H 0.2003 0.71999 0.63183 0.0
H645 H 0.15284 0.71859 0.64545 0.0
H646 H 0.13415 0.79012 0.47394 0.0
H647 H 0.11714 0.78332 0.39823 0.0
H648 H 0.15205 0.78141 0.40297 0.0
H649 H 0.15018 0.73405 0.35766 0.0
H650 H 0.11525 0.73582 0.3526 0.0
H651 H 0.1309 0.7104 0.39744 0.0
H652 H 0.10415 0.72186 0.63954 0.0
H653 H 0.05762 0.72824 0.61353 0.0
H654 H 0.07681 0.75448 0.4233 0.0
C655 C 0.18074 0.74234 0.48375 0.0
C656 C 0.19794 0.73475 0.53425 0.0
C657 C 0.18758 0.72594 0.59245 0.0
C658 C 0.16063 0.72508 0.60067 0.0
C659 C 0.14429 0.73293 0.55012 0.0
C660 C 0.15393 0.74125 0.49266 0.0
C661 C 0.13218 0.74876 0.44603 0.0
C662 C 0.134 0.77762 0.42934 0.0
C663 C 0.13213 0.7312 0.38482 0.0
C664 C 0.10877 0.74359 0.48649 0.0
C665 C 0.11621 0.73449 0.54638 0.0
C666 C 0.09809 0.72886 0.59271 0.0
C667 C 0.07169 0.73262 0.57747 0.0
C668 C 0.06362 0.74188 0.51631 0.0
C669 C 0.08246 0.7473 0.47029 0.0
H670 H 0.77675 0.70109 0.92806 0.0
H671 H 0.76095 0.70803 0.13272 0.0
H672 H 0.76259 0.6605 0.14045 0.0
H673 H 0.73799 0.64306 0.89667 0.0
H674 H 0.76019 0.62898 0.83973 0.0
H675 H 0.75788 0.66377 0.8496 0.0
H676 H 0.80738 0.66631 0.87442 0.0
H677 H 0.80984 0.63153 0.86482 0.0
H678 H 0.82134 0.64743 0.93867 0.0
H679 H 0.7669 0.61269 0.12788 0.0
H680 H 0.77162 0.5668 0.09458 0.0
H681 H 0.7835 0.58945 0.89714 0.0
C682 C 0.77356 0.69259 0.97442 0.0
C683 C 0.76863 0.7084 0.02975 0.0
C684 C 0.76456 0.69645 0.08949 0.0
C685 C 0.76555 0.66941 0.09451 0.0
C686 C 0.77048 0.65443 0.03932 0.0
C687 C 0.77425 0.66548 0.98026 0.0
C688 C 0.77893 0.64468 0.92847 0.0
C689 C 0.75746 0.64515 0.87549 0.0
C690 C 0.80598 0.64767 0.89993 0.0
C691 C 0.77732 0.62031 0.96789 0.0
C692 C 0.77256 0.62651 0.03176 0.0
C693 C 0.77055 0.60755 0.07797 0.0
C694 C 0.77334 0.58147 0.05847 0.0
C695 C 0.77796 0.57449 0.99314 0.0
C696 C 0.77996 0.59423 0.94735 0.0
H697 H 0.81639 0.28346 0.59312 0.0
H698 H 0.80564 0.28771 0.38509 0.0
H699 H 0.853 0.28936 0.37318 0.0
H700 H 0.8731 0.32609 0.60835 0.0
H701 H 0.88909 0.30703 0.66939 0.0
H702 H 0.85413 0.30758 0.66272 0.0
H703 H 0.85348 0.25739 0.65115 0.0
H704 H 0.88841 0.25668 0.65768 0.0
H705 H 0.87193 0.24156 0.58869 0.0
H706 H 0.90107 0.28963 0.38219 0.0
H707 H 0.94758 0.28718 0.41153 0.0
H708 H 0.92861 0.28146 0.6136 0.0
C709 C 0.82405 0.285 0.54521 0.0
C710 C 0.80725 0.28546 0.49001 0.0
C711 C 0.81806 0.28717 0.42807 0.0
C712 C 0.84497 0.28823 0.42075 0.0
C713 C 0.86098 0.28743 0.47578 0.0
C714 C 0.85106 0.28577 0.53686 0.0
C715 C 0.87286 0.28412 0.58748 0.0
C716 C 0.87225 0.30761 0.63478 0.0
C717 C 0.87159 0.25841 0.62335 0.0
C718 C 0.89647 0.28498 0.54512 0.0
C719 C 0.88906 0.2871 0.48093 0.0
C720 C 0.90716 0.28802 0.43231 0.0
C721 C 0.9336 0.28661 0.44957 0.0
C722 C 0.94178 0.28414 0.51495 0.0
C723 C 0.9229 0.28341 0.56328 0.0
H724 H 0.74229 0.19961 0.57495 0.0
H725 H 0.71223 0.20686 0.37821 0.0
H726 H 0.71154 0.15941 0.36475 0.0
H727 H 0.78408 0.14641 0.54402 0.0
H728 H 0.77812 0.13012 0.6181 0.0
H729 H 0.77475 0.16486 0.61485 0.0
H730 H 0.72761 0.16151 0.65428 0.0
H731 H 0.73083 0.1267 0.65762 0.0
H732 H 0.7047 0.14076 0.61057 0.0
H733 H 0.71822 0.11211 0.36703 0.0
H734 H 0.72996 0.06654 0.38761 0.0
H735 H 0.75305 0.08787 0.58455 0.0
C736 C 0.7353 0.1912 0.52932 0.0
C737 C 0.72741 0.20716 0.47761 0.0
C738 C 0.71845 0.19526 0.41864 0.0
C739 C 0.7179 0.16823 0.41043 0.0
C740 C 0.72608 0.15313 0.46179 0.0
C741 C 0.73439 0.16404 0.52034 0.0
C742 C 0.74288 0.14306 0.56674 0.0
C743 C 0.77166 0.14631 0.58711 0.0
C744 C 0.72546 0.14301 0.62581 0.0
C745 C 0.73862 0.11879 0.52439 0.0
C746 C 0.7289 0.12523 0.46404 0.0
C747 C 0.72529 0.10671 0.41446 0.0
C748 C 0.73202 0.08093 0.42652 0.0
C749 C 0.74179 0.07376 0.48786 0.0
C750 C 0.74483 0.09283 0.53784 0.0
H751 H 0.32108 0.25284 0.94211 0.0
H752 H 0.30598 0.2 0.0968 0.0
H753 H 0.35271 0.1922 0.11134 0.0
H754 H 0.37653 0.21676 0.87612 0.0
H755 H 0.3946 0.24561 0.85897 0.0
H756 H 0.3596 0.2464 0.85733 0.0
H757 H 0.36061 0.28486 0.9404 0.0
H758 H 0.39559 0.28415 0.94241 0.0
H759 H 0.37814 0.28149 0.0162 0.0
H760 H 0.40027 0.1911 0.11407 0.0
H761 H 0.44745 0.19661 0.10388 0.0
H762 H 0.43389 0.25 0.94785 0.0
C763 C 0.32766 0.23944 0.97847 0.0
C764 C 0.30975 0.22712 0.01844 0.0
C765 C 0.3192 0.20987 0.0659 0.0
C766 C 0.34577 0.20519 0.07447 0.0
C767 C 0.36289 0.21786 0.03528 0.0
C768 C 0.3544 0.2346 0.98812 0.0
C769 C 0.37741 0.24623 0.95447 0.0
C770 C 0.377 0.23827 0.88244 0.0
C771 C 0.37796 0.27595 0.96396 0.0
C772 C 0.39997 0.23354 0.99068 0.0
C773 C 0.39093 0.21719 0.03685 0.0
C774 C 0.40765 0.20369 0.07781 0.0
C775 C 0.4344 0.20697 0.07171 0.0
C776 C 0.44431 0.22356 0.025 0.0
C777 C 0.42685 0.23699 0.98366 0.0
H778 H 0.2675 0.82739 0.43321 0.0
H779 H 0.28954 0.80915 0.63058 0.0
H780 H 0.29714 0.85552 0.65571 0.0
H781 H 0.31304 0.88044 0.41511 0.0
H782 H 0.29049 0.90015 0.3698 0.0
H783 H 0.28775 0.86526 0.36556 0.0
H784 H 0.23999 0.86863 0.40097 0.0
H785 H 0.24258 0.90352 0.40533 0.0
H786 H 0.2326 0.8861 0.47478 0.0
H787 H 0.30302 0.90308 0.66029 0.0
H788 H 0.30406 0.95045 0.64607 0.0
H789 H 0.27578 0.9396 0.44804 0.0
C790 C 0.27406 0.83324 0.48151 0.0
C791 C 0.27795 0.81467 0.53 0.0
C792 C 0.28626 0.82304 0.59285 0.0
C793 C 0.29075 0.84933 0.60756 0.0
C794 C 0.28658 0.86717 0.55912 0.0
C795 C 0.27819 0.85965 0.49752 0.0
C796 C 0.2742 0.88319 0.45562 0.0
C797 C 0.29246 0.88219 0.39812 0.0
C798 C 0.24564 0.88549 0.43284 0.0
C799 C 0.28169 0.90498 0.50342 0.0
C800 C 0.28903 0.89512 0.56254 0.0
C801 C 0.29721 0.91109 0.61435 0.0
C802 C 0.29777 0.93793 0.6058 0.0
C803 C 0.28989 0.94864 0.54628 0.0
C804 C 0.28176 0.93193 0.49427 0.0
H805 H 0.68996 0.77138 0.94687 0.0
H806 H 0.69624 0.81464 0.12942 0.0
H807 H 0.6485 0.81472 0.1363 0.0
H808 H 0.63056 0.80286 0.88669 0.0
H809 H 0.61784 0.77321 0.85013 0.0
H810 H 0.65244 0.77815 0.85739 0.0
H811 H 0.6572 0.73508 0.91851 0.0
H812 H 0.62264 0.73009 0.91187 0.0
H813 H 0.6388 0.73048 0.99012 0.0
H814 H 0.60024 0.80786 0.1268 0.0
H815 H 0.55483 0.7955 0.09994 0.0
H816 H 0.57984 0.75671 0.9238 0.0
C817 C 0.68132 0.78123 0.98783 0.0
C818 C 0.69693 0.79303 0.03758 0.0
C819 C 0.68476 0.80545 0.09068 0.0
C820 C 0.65763 0.80562 0.09504 0.0
C821 C 0.64288 0.79337 0.04586 0.0
C822 C 0.65426 0.78153 0.99306 0.0
C823 C 0.63403 0.7689 0.94804 0.0
C824 C 0.6337 0.78154 0.88163 0.0
C825 C 0.63844 0.73939 0.94181 0.0
C826 C 0.60953 0.77519 0.98421 0.0
C827 C 0.61505 0.7894 0.0404 0.0
C828 C 0.59565 0.79689 0.0827 0.0
C829 C 0.56992 0.78972 0.06711 0.0
C830 C 0.56386 0.77515 0.00974 0.0
C831 C 0.58396 0.76793 0.96784 0.0
loop_
_geom_bond_atom_site_label_1
_geom_bond_atom_site_label_2
_geom_bond_distance
_geom_bond_site_symmetry_2
_ccdc_geom_bond_type
Fe0 O2 1.918 . S
Fe0 O5 1.997 . S
Fe0 O6 2.002 . S
Fe0 O11 1.976 . S
Fe0 O14 1.996 . S
Fe1 O2 1.918 1_556 S
Fe1 O9 1.997 . S
Fe1 O12 1.996 . S
Fe1 O16 1.976 . S
Fe1 O19 2.002 . S
O2 Fe0 1.918 . S
O2 Fe1 1.918 1_554 S
O2 Fe3 1.918 . S
Fe3 O2 1.918 . S
Fe3 O4 2.003 . S
Fe3 O13 1.977 . S
Fe3 O17 1.995 1_554 S
Fe3 O20 1.995 1_554 S
O4 Fe3 2.003 . S
O4 C21 1.295 . S
O5 Fe0 1.997 . S
O5 C21 1.235 . S
O6 Fe0 2.002 . S
O6 C7 1.295 . S
C7 O6 1.295 . S
C7 O9 1.235 1_554 S
C8 O13 1.287 . S
C8 O14 1.255 . S
O9 Fe1 1.997 . S
O9 C7 1.235 1_556 S
C10 O16 1.287 . S
C10 O17 1.255 . S
O11 Fe0 1.976 . S
O11 C18 1.287 . S
O12 Fe1 1.996 . S
O12 C18 1.255 1_556 S
O13 Fe3 1.977 . S
O13 C8 1.287 . S
O14 Fe0 1.996 . S
O14 C8 1.255 . S
C15 O19 1.295 . S
C15 O20 1.235 . S
O16 Fe1 1.976 . S
O16 C10 1.287 . S
O17 Fe3 1.995 1_556 S
O17 C10 1.255 . S
C18 O11 1.287 . S
C18 O12 1.255 1_554 S
O19 Fe1 2.002 . S
O19 C15 1.295 . S
O20 Fe3 1.995 1_556 S
O20 C15 1.235 . S
C21 O4 1.295 . S
C21 O5 1.235 . S
Fe22 O24 1.918 . S
Fe22 O27 1.997 . S
Fe22 O28 2.002 . S
Fe22 O33 1.976 . S
Fe22 O36 1.996 . S
Fe23 O24 1.918 . S
Fe23 O31 1.997 . S
Fe23 O34 1.996 . S
Fe23 O38 1.976 . S
Fe23 O41 2.002 . S
O24 Fe22 1.918 . S
O24 Fe23 1.918 . S
O24 Fe25 1.918 . S
Fe25 O24 1.918 . S
Fe25 O26 2.002 . S
Fe25 O35 1.976 . S
Fe25 O39 1.996 . S
Fe25 O42 1.997 . S
O26 Fe25 2.002 . S
O26 C43 1.295 . S
O27 Fe22 1.997 . S
O27 C43 1.235 . S
O28 Fe22 2.002 . S
O28 C29 1.295 . S
C29 O28 1.295 . S
C29 O31 1.235 . S
C30 O35 1.287 . S
C30 O36 1.255 . S
O31 Fe23 1.997 . S
O31 C29 1.235 . S
C32 O38 1.287 . S
C32 O39 1.255 . S
O33 Fe22 1.976 . S
O33 C40 1.287 . S
O34 Fe23 1.996 . S
O34 C40 1.255 . S
O35 Fe25 1.976 . S
O35 C30 1.287 . S
O36 Fe22 1.996 . S
O36 C30 1.255 . S
C37 O41 1.295 . S
C37 O42 1.235 . S
O38 Fe23 1.976 . S
O38 C32 1.287 . S
O39 Fe25 1.996 . S
O39 C32 1.255 . S
C40 O33 1.287 . S
C40 O34 1.255 . S
O41 Fe23 2.002 . S
O41 C37 1.295 . S
O42 Fe25 1.997 . S
O42 C37 1.235 . S
C43 O26 1.295 . S
C43 O27 1.235 . S
Fe44 O46 1.918 1_556 S
Fe44 O49 1.997 . S
Fe44 O50 2.002 . S
Fe44 O55 1.976 . S
Fe44 O58 1.996 . S
Fe45 O46 1.918 . S
Fe45 O53 1.997 . S
Fe45 O56 1.996 . S
Fe45 O60 1.976 . S
Fe45 O63 2.002 . S
O46 Fe44 1.918 1_554 S
O46 Fe45 1.918 . S
O46 Fe47 1.918 . S
Fe47 O46 1.918 . S
Fe47 O48 2.002 1_554 S
Fe47 O57 1.976 1_554 S
Fe47 O61 1.996 . S
Fe47 O64 1.997 . S
O48 Fe47 2.002 1_556 S
O48 C65 1.295 . S
O49 Fe44 1.997 . S
O49 C65 1.235 . S
O50 Fe44 2.002 . S
O50 C51 1.295 1_556 S
C51 O50 1.295 1_554 S
C51 O53 1.235 . S
C52 O57 1.287 . S
C52 O58 1.255 . S
O53 Fe45 1.997 . S
O53 C51 1.235 . S
C54 O60 1.287 . S
C54 O61 1.255 . S
O55 Fe44 1.976 . S
O55 C62 1.287 1_556 S
O56 Fe45 1.996 . S
O56 C62 1.255 . S
O57 Fe47 1.976 1_556 S
O57 C52 1.287 . S
O58 Fe44 1.996 . S
O58 C52 1.255 . S
C59 O63 1.295 . S
C59 O64 1.235 . S
O60 Fe45 1.976 . S
O60 C54 1.287 . S
O61 Fe47 1.996 . S
O61 C54 1.255 . S
C62 O55 1.287 1_554 S
C62 O56 1.255 . S
O63 Fe45 2.002 . S
O63 C59 1.295 . S
O64 Fe47 1.997 . S
O64 C59 1.235 . S
C65 O48 1.295 . S
C65 O49 1.235 . S
Fe66 O68 1.918 . S
Fe66 O71 1.997 . S
Fe66 O72 2.002 . S
Fe66 O77 1.976 . S
Fe66 O80 1.996 . S
Fe67 O68 1.918 . S
Fe67 O75 1.997 . S
Fe67 O78 1.996 . S
Fe67 O82 1.976 . S
Fe67 O85 2.002 . S
O68 Fe66 1.918 . S
O68 Fe67 1.918 . S
O68 Fe69 1.918 . S
Fe69 O68 1.918 . S
Fe69 O70 2.002 . S
Fe69 O79 1.976 . S
Fe69 O83 1.996 . S
Fe69 O86 1.997 . S
O70 Fe69 2.002 . S
O70 C87 1.295 . S
O71 Fe66 1.997 . S
O71 C87 1.235 . S
O72 Fe66 2.002 . S
O72 C73 1.295 . S
C73 O72 1.295 . S
C73 O75 1.235 . S
C74 O79 1.287 . S
C74 O80 1.255 . S
O75 Fe67 1.997 . S
O75 C73 1.235 . S
C76 O82 1.287 . S
C76 O83 1.255 . S
O77 Fe66 1.976 . S
O77 C84 1.287 . S
O78 Fe67 1.996 . S
O78 C84 1.255 . S
O79 Fe69 1.976 . S
O79 C74 1.287 . S
O80 Fe66 1.996 . S
O80 C74 1.255 . S
C81 O85 1.295 . S
C81 O86 1.235 . S
O82 Fe67 1.976 . S
O82 C76 1.287 . S
O83 Fe69 1.996 . S
O83 C76 1.255 . S
C84 O77 1.287 . S
C84 O78 1.255 . S
O85 Fe67 2.002 . S
O85 C81 1.295 . S
O86 Fe69 1.997 . S
O86 C81 1.235 . S
C87 O70 1.295 . S
C87 O71 1.235 . S
H88 C93 0.930 . S
H89 C96 0.930 . S
H90 C98 0.930 1_554 S
H91 C92 1.016 . S
C92 H91 1.016 . S
C92 N99 1.286 1_554 S
C93 H88 0.930 . S
C93 C94 1.397 . S
C93 C95 1.361 . S
C94 C93 1.397 . S
C94 C98 1.396 . S
C95 C93 1.361 . S
C95 C96 1.393 1_556 S
C95 N99 1.413 . S
C96 H89 0.930 . S
C96 C95 1.393 1_554 S
C96 C97 1.399 . S
C97 C96 1.399 . S
C97 C98 1.375 1_554 S
C98 H90 0.930 1_556 S
C98 C94 1.396 . S
C98 C97 1.375 1_556 S
N99 C92 1.286 1_556 S
N99 C95 1.413 . S
H100 C105 0.930 . S
H101 C108 0.931 . S
H102 C110 0.930 . S
H103 C104 1.016 . S
C104 H103 1.016 . S
C104 N111 1.286 . S
C105 H100 0.930 . S
C105 C106 1.397 . S
C105 C107 1.361 1_655 S
C106 C105 1.397 . S
C106 C110 1.390 . S
C107 C105 1.361 1_455 S
C107 C108 1.393 1_455 S
C107 N111 1.413 . S
C108 H101 0.931 . S
C108 C107 1.393 1_655 S
C108 C109 1.399 . S
C109 C108 1.399 . S
C109 C110 1.381 . S
C110 H102 0.930 . S
C110 C106 1.390 . S
C110 C109 1.381 . S
N111 C104 1.286 . S
N111 C107 1.413 . S
H112 C117 0.930 . S
H113 C120 0.930 . S
H114 C122 0.930 . S
H115 C116 1.016 1_556 S
C116 H115 1.016 1_554 S
C116 N123 1.286 . S
C117 H112 0.930 . S
C117 C118 1.397 . S
C117 C119 1.361 . S
C118 C117 1.397 . S
C118 C122 1.390 . S
C119 C117 1.361 . S
C119 C120 1.393 1_554 S
C119 N123 1.413 . S
C120 H113 0.930 . S
C120 C119 1.393 1_556 S
C120 C121 1.399 . S
C121 C120 1.399 . S
C121 C122 1.381 1_556 S
C122 H114 0.930 . S
C122 C118 1.390 . S
C122 C121 1.381 1_554 S
N123 C116 1.286 . S
N123 C119 1.413 . S
H124 C129 0.930 . S
H125 C132 0.930 . S
H126 C134 0.930 . S
H127 C128 1.016 . S
C128 H127 1.016 . S
C128 N135 1.286 . S
C129 H124 0.930 . S
C129 C130 1.397 . S
C129 C131 1.360 . S
C130 C129 1.397 . S
C130 C134 1.390 . S
C131 C129 1.360 . S
C131 C132 1.392 . S
C131 N135 1.416 1_455 S
C132 H125 0.930 . S
C132 C131 1.392 . S
C132 C133 1.399 . S
C133 C132 1.399 . S
C133 C134 1.381 . S
C134 H126 0.930 . S
C134 C130 1.390 . S
C134 C133 1.381 . S
N135 C128 1.286 . S
N135 C131 1.416 1_655 S
H136 C141 0.930 . S
H137 C144 0.925 1_545 S
H138 C146 0.930 . S
H139 C140 1.016 . S
C140 H139 1.016 . S
C140 N147 1.286 . S
C141 H136 0.930 . S
C141 C142 1.397 . S
C141 C143 1.361 1_565 S
C142 C141 1.397 . S
C142 C146 1.390 . S
C143 C141 1.361 1_545 S
C143 C144 1.393 1_545 S
C143 N147 1.413 . S
C144 H137 0.925 1_565 S
C144 C143 1.393 1_565 S
C144 C145 1.399 . S
C145 C144 1.399 . S
C145 C146 1.381 . S
C146 H138 0.930 . S
C146 C142 1.390 . S
C146 C145 1.381 . S
N147 C140 1.286 . S
N147 C143 1.413 . S
H148 C153 0.930 . S
H149 C156 0.930 . S
H150 C158 0.930 . S
H151 C152 1.016 . S
C152 H151 1.016 . S
C152 N159 1.286 1_554 S
C153 H148 0.930 . S
C153 C154 1.397 . S
C153 C155 1.361 . S
C154 C153 1.397 . S
C154 C158 1.390 1_556 S
C155 C153 1.361 . S
C155 C156 1.393 1_556 S
C155 N159 1.413 . S
C156 H149 0.930 . S
C156 C155 1.393 1_554 S
C156 C157 1.399 . S
C157 C156 1.399 . S
C157 C158 1.381 . S
C158 H150 0.930 . S
C158 C154 1.390 1_554 S
C158 C157 1.381 . S
N159 C152 1.286 1_556 S
N159 C155 1.413 . S
H160 C165 0.930 . S
H161 C168 0.930 1_565 S
H162 C170 0.930 . S
H163 C164 1.016 . S
C164 H163 1.016 . S
C164 N171 1.286 . S
C165 H160 0.930 . S
C165 C166 1.397 . S
C165 C167 1.361 1_545 S
C166 C165 1.397 . S
C166 C170 1.390 . S
C167 C165 1.361 1_565 S
C167 C168 1.393 1_565 S
C167 N171 1.413 . S
C168 H161 0.930 1_545 S
C168 C167 1.393 1_545 S
C168 C169 1.399 . S
C169 C168 1.399 . S
C169 C170 1.381 . S
C170 H162 0.930 . S
C170 C166 1.390 . S
C170 C169 1.381 . S
N171 C164 1.286 . S
N171 C167 1.413 . S
H172 C177 0.930 . S
H173 C180 0.930 . S
H174 C182 0.930 . S
H175 C176 1.020 . S
C176 H175 1.020 . S
C176 N183 1.284 1_556 S
C177 H172 0.930 . S
C177 C178 1.397 . S
C177 C179 1.361 . S
C178 C177 1.397 . S
C178 C182 1.390 . S
C179 C177 1.361 . S
C179 C180 1.393 1_554 S
C179 N183 1.413 . S
C180 H173 0.930 . S
C180 C179 1.393 1_556 S
C180 C181 1.399 . S
C181 C180 1.399 . S
C181 C182 1.381 1_556 S
C182 H174 0.930 . S
C182 C178 1.390 . S
C182 C181 1.381 1_554 S
N183 C176 1.284 1_554 S
N183 C179 1.413 . S
H184 C196 0.930 . S
H185 C198 0.930 . S
H186 C199 0.930 . S
H187 C203 0.959 . S
H188 C203 0.959 . S
H189 C203 0.961 . S
H190 C204 0.960 . S
H191 C204 0.961 . S
H192 C204 0.959 . S
H193 C207 0.929 . S
H194 C208 0.931 . S
H195 C210 0.930 . S
C196 H184 0.930 . S
C196 C197 1.399 . S
C196 C201 1.399 . S
C197 C196 1.399 . S
C197 C198 1.376 . S
C198 H185 0.930 . S
C198 C197 1.376 . S
C198 C199 1.388 . S
C199 H186 0.930 . S
C199 C198 1.388 . S
C199 C200 1.390 . S
C200 C199 1.390 . S
C200 C201 1.394 . S
C200 C206 1.465 . S
C201 C196 1.399 . S
C201 C200 1.394 . S
C201 C202 1.516 . S
C202 C201 1.516 . S
C202 C203 1.502 . S
C202 C204 1.561 . S
C202 C205 1.526 . S
C203 H187 0.959 . S
C203 H188 0.959 . S
C203 H189 0.961 . S
C203 C202 1.502 . S
C204 H190 0.960 . S
C204 H191 0.961 . S
C204 H192 0.959 . S
C204 C202 1.561 . S
C205 C202 1.526 . S
C205 C206 1.396 . S
C205 C210 1.390 . S
C206 C200 1.465 . S
C206 C205 1.396 . S
C206 C207 1.399 . S
C207 H193 0.929 . S
C207 C206 1.399 . S
C207 C208 1.385 . S
C208 H194 0.931 . S
C208 C207 1.385 . S
C208 C209 1.389 . S
C209 C208 1.389 . S
C209 C210 1.387 . S
C210 H195 0.930 . S
C210 C205 1.390 . S
C210 C209 1.387 . S
H211 C223 0.930 . S
H212 C225 0.930 . S
H213 C226 0.930 . S
H214 C230 0.959 . S
H215 C230 0.959 . S
H216 C230 0.961 . S
H217 C231 0.960 . S
H218 C231 0.961 . S
H219 C231 0.959 . S
H220 C234 0.929 . S
H221 C235 0.931 . S
H222 C237 0.930 . S
C223 H211 0.930 . S
C223 C224 1.399 . S
C223 C228 1.399 . S
C224 C223 1.399 . S
C224 C225 1.376 . S
C225 H212 0.930 . S
C225 C224 1.376 . S
C225 C226 1.388 . S
C226 H213 0.930 . S
C226 C225 1.388 . S
C226 C227 1.390 . S
C227 C226 1.390 . S
C227 C228 1.394 . S
C227 C233 1.465 . S
C228 C223 1.399 . S
C228 C227 1.394 . S
C228 C229 1.516 . S
C229 C228 1.516 . S
C229 C230 1.502 . S
C229 C231 1.561 . S
C229 C232 1.526 . S
C230 H214 0.959 . S
C230 H215 0.959 . S
C230 H216 0.961 . S
C230 C229 1.502 . S
C231 H217 0.960 . S
C231 H218 0.961 . S
C231 H219 0.959 . S
C231 C229 1.561 . S
C232 C229 1.526 . S
C232 C233 1.396 . S
C232 C237 1.390 . S
C233 C227 1.465 . S
C233 C232 1.396 . S
C233 C234 1.399 . S
C234 H220 0.929 . S
C234 C233 1.399 . S
C234 C235 1.385 . S
C235 H221 0.931 . S
C235 C234 1.385 . S
C235 C236 1.389 . S
C236 C235 1.389 . S
C236 C237 1.387 . S
C237 H222 0.930 . S
C237 C232 1.390 . S
C237 C236 1.387 . S
H238 C250 0.930 . S
H239 C252 0.930 . S
H240 C253 0.930 . S
H241 C257 0.959 . S
H242 C257 0.959 . S
H243 C257 0.961 . S
H244 C258 0.960 . S
H245 C258 0.961 . S
H246 C258 0.959 . S
H247 C261 0.929 . S
H248 C262 0.931 . S
H249 C264 0.930 . S
C250 H238 0.930 . S
C250 C251 1.399 . S
C250 C255 1.399 . S
C251 C250 1.399 . S
C251 C252 1.376 . S
C252 H239 0.930 . S
C252 C251 1.376 . S
C252 C253 1.388 . S
C253 H240 0.930 . S
C253 C252 1.388 . S
C253 C254 1.390 . S
C254 C253 1.390 . S
C254 C255 1.394 . S
C254 C260 1.465 . S
C255 C250 1.399 . S
C255 C254 1.394 . S
C255 C256 1.516 . S
C256 C255 1.516 . S
C256 C257 1.502 . S
C256 C258 1.561 . S
C256 C259 1.526 . S
C257 H241 0.959 . S
C257 H242 0.959 . S
C257 H243 0.961 . S
C257 C256 1.502 . S
C258 H244 0.960 . S
C258 H245 0.961 . S
C258 H246 0.959 . S
C258 C256 1.561 . S
C259 C256 1.526 . S
C259 C260 1.396 . S
C259 C264 1.390 . S
C260 C254 1.465 . S
C260 C259 1.396 . S
C260 C261 1.399 . S
C261 H247 0.929 . S
C261 C260 1.399 . S
C261 C262 1.385 . S
C262 H248 0.931 . S
C262 C261 1.385 . S
C262 C263 1.389 . S
C263 C262 1.389 . S
C263 C264 1.387 . S
C264 H249 0.930 . S
C264 C259 1.390 . S
C264 C263 1.387 . S
H265 C277 0.930 . S
H266 C279 0.930 . S
H267 C280 0.930 . S
H268 C284 0.959 . S
H269 C284 0.959 . S
H270 C284 0.961 . S
H271 C285 0.960 . S
H272 C285 0.961 . S
H273 C285 0.959 . S
H274 C288 0.929 . S
H275 C289 0.931 . S
H276 C291 0.930 . S
C277 H265 0.930 . S
C277 C278 1.399 . S
C277 C282 1.399 . S
C278 C277 1.399 . S
C278 C279 1.376 . S
C279 H266 0.930 . S
C279 C278 1.376 . S
C279 C280 1.388 . S
C280 H267 0.930 . S
C280 C279 1.388 . S
C280 C281 1.390 . S
C281 C280 1.390 . S
C281 C282 1.394 . S
C281 C287 1.465 . S
C282 C277 1.399 . S
C282 C281 1.394 . S
C282 C283 1.516 . S
C283 C282 1.516 . S
C283 C284 1.502 . S
C283 C285 1.561 . S
C283 C286 1.526 . S
C284 H268 0.959 . S
C284 H269 0.959 . S
C284 H270 0.961 . S
C284 C283 1.502 . S
C285 H271 0.960 . S
C285 H272 0.961 . S
C285 H273 0.959 . S
C285 C283 1.561 . S
C286 C283 1.526 . S
C286 C287 1.396 . S
C286 C291 1.390 . S
C287 C281 1.465 . S
C287 C286 1.396 . S
C287 C288 1.399 . S
C288 H274 0.929 . S
C288 C287 1.399 . S
C288 C289 1.385 . S
C289 H275 0.931 . S
C289 C288 1.385 . S
C289 C290 1.389 . S
C290 C289 1.389 . S
C290 C291 1.387 . S
C291 H276 0.930 . S
C291 C286 1.390 . S
C291 C290 1.387 . S
H292 C304 0.930 . S
H293 C306 0.930 . S
H294 C307 0.930 . S
H295 C311 0.959 . S
H296 C311 0.959 . S
H297 C311 0.961 . S
H298 C312 0.960 . S
H299 C312 0.961 . S
H300 C312 0.959 . S
H301 C315 0.929 . S
H302 C316 0.931 . S
H303 C318 0.930 . S
C304 H292 0.930 . S
C304 C305 1.399 . S
C304 C309 1.399 . S
C305 C304 1.399 . S
C305 C306 1.376 . S
C306 H293 0.930 . S
C306 C305 1.376 . S
C306 C307 1.388 . S
C307 H294 0.930 . S
C307 C306 1.388 . S
C307 C308 1.390 . S
C308 C307 1.390 . S
C308 C309 1.394 . S
C308 C314 1.465 . S
C309 C304 1.399 . S
C309 C308 1.394 . S
C309 C310 1.516 . S
C310 C309 1.516 . S
C310 C311 1.502 . S
C310 C312 1.561 . S
C310 C313 1.526 . S
C311 H295 0.959 . S
C311 H296 0.959 . S
C311 H297 0.961 . S
C311 C310 1.502 . S
C312 H298 0.960 . S
C312 H299 0.961 . S
C312 H300 0.959 . S
C312 C310 1.561 . S
C313 C310 1.526 . S
C313 C314 1.396 . S
C313 C318 1.390 . S
C314 C308 1.465 . S
C314 C313 1.396 . S
C314 C315 1.399 . S
C315 H301 0.929 . S
C315 C314 1.399 . S
C315 C316 1.385 . S
C316 H302 0.931 . S
C316 C315 1.385 . S
C316 C317 1.389 . S
C317 C316 1.389 . S
C317 C318 1.387 . S
C318 H303 0.930 . S
C318 C313 1.390 . S
C318 C317 1.387 . S
H319 C331 0.930 . S
H320 C333 0.930 . S
H321 C334 0.930 . S
H322 C338 0.959 . S
H323 C338 0.959 . S
H324 C338 0.961 . S
H325 C339 0.960 . S
H326 C339 0.961 . S
H327 C339 0.959 . S
H328 C342 0.929 . S
H329 C343 0.931 . S
H330 C345 0.930 . S
C331 H319 0.930 . S
C331 C332 1.399 . S
C331 C336 1.399 . S
C332 C331 1.399 . S
C332 C333 1.376 . S
C333 H320 0.930 . S
C333 C332 1.376 . S
C333 C334 1.388 . S
C334 H321 0.930 . S
C334 C333 1.388 . S
C334 C335 1.390 . S
C335 C334 1.390 . S
C335 C336 1.394 . S
C335 C341 1.465 . S
C336 C331 1.399 . S
C336 C335 1.394 . S
C336 C337 1.516 . S
C337 C336 1.516 . S
C337 C338 1.502 . S
C337 C339 1.561 . S
C337 C340 1.526 . S
C338 H322 0.959 . S
C338 H323 0.959 . S
C338 H324 0.961 . S
C338 C337 1.502 . S
C339 H325 0.960 . S
C339 H326 0.961 . S
C339 H327 0.959 . S
C339 C337 1.561 . S
C340 C337 1.526 . S
C340 C341 1.396 . S
C340 C345 1.390 . S
C341 C335 1.465 . S
C341 C340 1.396 . S
C341 C342 1.399 . S
C342 H328 0.929 . S
C342 C341 1.399 . S
C342 C343 1.385 . S
C343 H329 0.931 . S
C343 C342 1.385 . S
C343 C344 1.389 . S
C344 C343 1.389 . S
C344 C345 1.387 . S
C345 H330 0.930 . S
C345 C340 1.390 . S
C345 C344 1.387 . S
H346 C358 0.930 . S
H347 C360 0.930 . S
H348 C361 0.930 . S
H349 C365 0.959 . S
H350 C365 0.959 . S
H351 C365 0.961 . S
H352 C366 0.960 . S
H353 C366 0.961 . S
H354 C366 0.959 . S
H355 C369 0.929 . S
H356 C370 0.931 . S
H357 C372 0.930 . S
C358 H346 0.930 . S
C358 C359 1.399 . S
C358 C363 1.399 . S
C359 C358 1.399 . S
C359 C360 1.376 . S
C360 H347 0.930 . S
C360 C359 1.376 . S
C360 C361 1.388 . S
C361 H348 0.930 . S
C361 C360 1.388 . S
C361 C362 1.390 . S
C362 C361 1.390 . S
C362 C363 1.394 . S
C362 C368 1.465 . S
C363 C358 1.399 . S
C363 C362 1.394 . S
C363 C364 1.516 . S
C364 C363 1.516 . S
C364 C365 1.502 . S
C364 C366 1.561 . S
C364 C367 1.526 . S
C365 H349 0.959 . S
C365 H350 0.959 . S
C365 H351 0.961 . S
C365 C364 1.502 . S
C366 H352 0.960 . S
C366 H353 0.961 . S
C366 H354 0.959 . S
C366 C364 1.561 . S
C367 C364 1.526 . S
C367 C368 1.396 . S
C367 C372 1.390 . S
C368 C362 1.465 . S
C368 C367 1.396 . S
C368 C369 1.399 . S
C369 H355 0.929 . S
C369 C368 1.399 . S
C369 C370 1.385 . S
C370 H356 0.931 . S
C370 C369 1.385 . S
C370 C371 1.389 . S
C371 C370 1.389 . S
C371 C372 1.387 . S
C372 H357 0.930 . S
C372 C367 1.390 . S
C372 C371 1.387 . S
H373 C385 0.930 . S
H374 C387 0.930 . S
H375 C388 0.930 . S
H376 C392 0.959 . S
H377 C392 0.959 . S
H378 C392 0.961 . S
H379 C393 0.960 . S
H380 C393 0.961 . S
H381 C393 0.959 . S
H382 C396 0.929 . S
H383 C397 0.931 . S
H384 C399 0.930 . S
C385 H373 0.930 . S
C385 C386 1.399 . S
C385 C390 1.399 . S
C386 C385 1.399 . S
C386 C387 1.376 . S
C387 H374 0.930 . S
C387 C386 1.376 . S
C387 C388 1.388 . S
C388 H375 0.930 . S
C388 C387 1.388 . S
C388 C389 1.390 . S
C389 C388 1.390 . S
C389 C390 1.394 . S
C389 C395 1.465 . S
C390 C385 1.399 . S
C390 C389 1.394 . S
C390 C391 1.516 . S
C391 C390 1.516 . S
C391 C392 1.502 . S
C391 C393 1.561 . S
C391 C394 1.526 . S
C392 H376 0.959 . S
C392 H377 0.959 . S
C392 H378 0.961 . S
C392 C391 1.502 . S
C393 H379 0.960 . S
C393 H380 0.961 . S
C393 H381 0.959 . S
C393 C391 1.561 . S
C394 C391 1.526 . S
C394 C395 1.396 . S
C394 C399 1.390 . S
C395 C389 1.465 . S
C395 C394 1.396 . S
C395 C396 1.399 . S
C396 H382 0.929 . S
C396 C395 1.399 . S
C396 C397 1.385 . S
C397 H383 0.931 . S
C397 C396 1.385 . S
C397 C398 1.389 . S
C398 C397 1.389 . S
C398 C399 1.387 . S
C399 H384 0.930 . S
C399 C394 1.390 . S
C399 C398 1.387 . S
H400 C412 0.930 . S
H401 C414 0.930 . S
H402 C415 0.930 . S
H403 C419 0.959 . S
H404 C419 0.959 . S
H405 C419 0.961 . S
H406 C420 0.960 . S
H407 C420 0.961 . S
H408 C420 0.959 . S
H409 C423 0.929 . S
H410 C424 0.931 . S
H411 C426 0.930 . S
C412 H400 0.930 . S
C412 C413 1.399 . S
C412 C417 1.399 . S
C413 C412 1.399 . S
C413 C414 1.376 . S
C414 H401 0.930 . S
C414 C413 1.376 . S
C414 C415 1.388 . S
C415 H402 0.930 . S
C415 C414 1.388 . S
C415 C416 1.390 . S
C416 C415 1.390 . S
C416 C417 1.394 . S
C416 C422 1.465 . S
C417 C412 1.399 . S
C417 C416 1.394 . S
C417 C418 1.516 . S
C418 C417 1.516 . S
C418 C419 1.502 . S
C418 C420 1.561 . S
C418 C421 1.526 . S
C419 H403 0.959 . S
C419 H404 0.959 . S
C419 H405 0.961 . S
C419 C418 1.502 . S
C420 H406 0.960 . S
C420 H407 0.961 . S
C420 H408 0.959 . S
C420 C418 1.561 . S
C421 C418 1.526 . S
C421 C422 1.396 . S
C421 C426 1.390 . S
C422 C416 1.465 . S
C422 C421 1.396 . S
C422 C423 1.399 . S
C423 H409 0.929 . S
C423 C422 1.399 . S
C423 C424 1.385 . S
C424 H410 0.931 . S
C424 C423 1.385 . S
C424 C425 1.389 . S
C425 C424 1.389 . S
C425 C426 1.387 . S
C426 H411 0.930 . S
C426 C421 1.390 . S
C426 C425 1.387 . S
H427 C439 0.930 . S
H428 C441 0.930 . S
H429 C442 0.930 . S
H430 C446 0.959 . S
H431 C446 0.959 . S
H432 C446 0.961 . S
H433 C447 0.960 . S
H434 C447 0.961 . S
H435 C447 0.959 . S
H436 C450 0.929 . S
H437 C451 0.931 . S
H438 C453 0.930 . S
C439 H427 0.930 . S
C439 C440 1.399 . S
C439 C444 1.399 . S
C440 C439 1.399 . S
C440 C441 1.376 . S
C441 H428 0.930 . S
C441 C440 1.376 . S
C441 C442 1.388 . S
C442 H429 0.930 . S
C442 C441 1.388 . S
C442 C443 1.390 . S
C443 C442 1.390 . S
C443 C444 1.394 . S
C443 C449 1.465 . S
C444 C439 1.399 . S
C444 C443 1.394 . S
C444 C445 1.516 . S
C445 C444 1.516 . S
C445 C446 1.502 . S
C445 C447 1.561 . S
C445 C448 1.526 . S
C446 H430 0.959 . S
C446 H431 0.959 . S
C446 H432 0.961 . S
C446 C445 1.502 . S
C447 H433 0.960 . S
C447 H434 0.961 . S
C447 H435 0.959 . S
C447 C445 1.561 . S
C448 C445 1.526 . S
C448 C449 1.396 . S
C448 C453 1.390 . S
C449 C443 1.465 . S
C449 C448 1.396 . S
C449 C450 1.399 . S
C450 H436 0.929 . S
C450 C449 1.399 . S
C450 C451 1.385 . S
C451 H437 0.931 . S
C451 C450 1.385 . S
C451 C452 1.389 . S
C452 C451 1.389 . S
C452 C453 1.387 . S
C453 H438 0.930 . S
C453 C448 1.390 . S
C453 C452 1.387 . S
H454 C466 0.930 . S
H455 C468 0.930 . S
H456 C469 0.930 . S
H457 C473 0.959 . S
H458 C473 0.959 . S
H459 C473 0.961 . S
H460 C474 0.960 . S
H461 C474 0.961 . S
H462 C474 0.959 . S
H463 C477 0.929 . S
H464 C478 0.931 . S
H465 C480 0.930 . S
C466 H454 0.930 . S
C466 C467 1.399 . S
C466 C471 1.399 . S
C467 C466 1.399 . S
C467 C468 1.376 . S
C468 H455 0.930 . S
C468 C467 1.376 . S
C468 C469 1.388 . S
C469 H456 0.930 . S
C469 C468 1.388 . S
C469 C470 1.390 . S
C470 C469 1.390 . S
C470 C471 1.394 . S
C470 C476 1.465 . S
C471 C466 1.399 . S
C471 C470 1.394 . S
C471 C472 1.516 . S
C472 C471 1.516 . S
C472 C473 1.502 . S
C472 C474 1.561 . S
C472 C475 1.526 . S
C473 H457 0.959 . S
C473 H458 0.959 . S
C473 H459 0.961 . S
C473 C472 1.502 . S
C474 H460 0.960 . S
C474 H461 0.961 . S
C474 H462 0.959 . S
C474 C472 1.561 . S
C475 C472 1.526 . S
C475 C476 1.396 . S
C475 C480 1.390 . S
C476 C470 1.465 . S
C476 C475 1.396 . S
C476 C477 1.399 . S
C477 H463 0.929 . S
C477 C476 1.399 . S
C477 C478 1.385 . S
C478 H464 0.931 . S
C478 C477 1.385 . S
C478 C479 1.389 . S
C479 C478 1.389 . S
C479 C480 1.387 . S
C480 H465 0.930 . S
C480 C475 1.390 . S
C480 C479 1.387 . S
H481 C493 0.930 . S
H482 C495 0.930 . S
H483 C496 0.930 . S
H484 C500 0.959 . S
H485 C500 0.959 . S
H486 C500 0.961 . S
H487 C501 0.960 . S
H488 C501 0.961 . S
H489 C501 0.959 . S
H490 C504 0.929 . S
H491 C505 0.931 . S
H492 C507 0.930 . S
C493 H481 0.930 . S
C493 C494 1.399 . S
C493 C498 1.399 . S
C494 C493 1.399 . S
C494 C495 1.376 . S
C495 H482 0.930 . S
C495 C494 1.376 . S
C495 C496 1.388 . S
C496 H483 0.930 . S
C496 C495 1.388 . S
C496 C497 1.390 . S
C497 C496 1.390 . S
C497 C498 1.394 . S
C497 C503 1.465 . S
C498 C493 1.399 . S
C498 C497 1.394 . S
C498 C499 1.516 . S
C499 C498 1.516 . S
C499 C500 1.502 . S
C499 C501 1.561 . S
C499 C502 1.526 . S
C500 H484 0.959 . S
C500 H485 0.959 . S
C500 H486 0.961 . S
C500 C499 1.502 . S
C501 H487 0.960 . S
C501 H488 0.961 . S
C501 H489 0.959 . S
C501 C499 1.561 . S
C502 C499 1.526 . S
C502 C503 1.396 . S
C502 C507 1.390 . S
C503 C497 1.465 . S
C503 C502 1.396 . S
C503 C504 1.399 . S
C504 H490 0.929 . S
C504 C503 1.399 . S
C504 C505 1.385 . S
C505 H491 0.931 . S
C505 C504 1.385 . S
C505 C506 1.389 . S
C506 C505 1.389 . S
C506 C507 1.387 . S
C507 H492 0.930 . S
C507 C502 1.390 . S
C507 C506 1.387 . S
H508 C520 0.930 . S
H509 C522 0.930 . S
H510 C523 0.930 . S
H511 C527 0.959 . S
H512 C527 0.959 . S
H513 C527 0.961 . S
H514 C528 0.960 . S
H515 C528 0.961 . S
H516 C528 0.959 . S
H517 C531 0.929 . S
H518 C532 0.931 . S
H519 C534 0.930 . S
C520 H508 0.930 . S
C520 C521 1.399 . S
C520 C525 1.399 . S
C521 C520 1.399 . S
C521 C522 1.376 . S
C522 H509 0.930 . S
C522 C521 1.376 . S
C522 C523 1.388 . S
C523 H510 0.930 . S
C523 C522 1.388 . S
C523 C524 1.390 . S
C524 C523 1.390 . S
C524 C525 1.394 . S
C524 C530 1.465 . S
C525 C520 1.399 . S
C525 C524 1.394 . S
C525 C526 1.516 . S
C526 C525 1.516 . S
C526 C527 1.502 . S
C526 C528 1.561 . S
C526 C529 1.526 . S
C527 H511 0.959 . S
C527 H512 0.959 . S
C527 H513 0.961 . S
C527 C526 1.502 . S
C528 H514 0.960 . S
C528 H515 0.961 . S
C528 H516 0.959 . S
C528 C526 1.561 . S
C529 C526 1.526 . S
C529 C530 1.396 . S
C529 C534 1.390 . S
C530 C524 1.465 . S
C530 C529 1.396 . S
C530 C531 1.399 . S
C531 H517 0.929 . S
C531 C530 1.399 . S
C531 C532 1.385 . S
C532 H518 0.931 . S
C532 C531 1.385 . S
C532 C533 1.389 . S
C533 C532 1.389 . S
C533 C534 1.387 . S
C534 H519 0.930 . S
C534 C529 1.390 . S
C534 C533 1.387 . S
H535 C547 0.930 . S
H536 C549 0.930 . S
H537 C550 0.930 . S
H538 C554 0.959 . S
H539 C554 0.959 . S
H540 C554 0.961 . S
H541 C555 0.960 . S
H542 C555 0.961 . S
H543 C555 0.959 . S
H544 C558 0.929 . S
H545 C559 0.931 . S
H546 C561 0.930 . S
C547 H535 0.930 . S
C547 C548 1.399 . S
C547 C552 1.399 . S
C548 C547 1.399 . S
C548 C549 1.376 . S
C549 H536 0.930 . S
C549 C548 1.376 . S
C549 C550 1.388 . S
C550 H537 0.930 . S
C550 C549 1.388 . S
C550 C551 1.390 . S
C551 C550 1.390 . S
C551 C552 1.394 . S
C551 C557 1.465 . S
C552 C547 1.399 . S
C552 C551 1.394 . S
C552 C553 1.516 . S
C553 C552 1.516 . S
C553 C554 1.502 . S
C553 C555 1.561 . S
C553 C556 1.526 . S
C554 H538 0.959 . S
C554 H539 0.959 . S
C554 H540 0.961 . S
C554 C553 1.502 . S
C555 H541 0.960 . S
C555 H542 0.961 . S
C555 H543 0.959 . S
C555 C553 1.561 . S
C556 C553 1.526 . S
C556 C557 1.396 . S
C556 C561 1.390 . S
C557 C551 1.465 . S
C557 C556 1.396 . S
C557 C558 1.399 . S
C558 H544 0.929 . S
C558 C557 1.399 . S
C558 C559 1.385 . S
C559 H545 0.931 . S
C559 C558 1.385 . S
C559 C560 1.389 . S
C560 C559 1.389 . S
C560 C561 1.387 . S
C561 H546 0.930 . S
C561 C556 1.390 . S
C561 C560 1.387 . S
H562 C574 0.930 . S
H563 C576 0.930 . S
H564 C577 0.930 . S
H565 C581 0.959 . S
H566 C581 0.959 . S
H567 C581 0.961 . S
H568 C582 0.960 . S
H569 C582 0.961 . S
H570 C582 0.959 . S
H571 C585 0.929 . S
H572 C586 0.931 . S
H573 C588 0.930 . S
C574 H562 0.930 . S
C574 C575 1.399 . S
C574 C579 1.399 . S
C575 C574 1.399 . S
C575 C576 1.376 . S
C576 H563 0.930 . S
C576 C575 1.376 . S
C576 C577 1.388 . S
C577 H564 0.930 . S
C577 C576 1.388 . S
C577 C578 1.390 . S
C578 C577 1.390 . S
C578 C579 1.394 . S
C578 C584 1.465 . S
C579 C574 1.399 . S
C579 C578 1.394 . S
C579 C580 1.516 . S
C580 C579 1.516 . S
C580 C581 1.502 . S
C580 C582 1.561 . S
C580 C583 1.526 . S
C581 H565 0.959 . S
C581 H566 0.959 . S
C581 H567 0.961 . S
C581 C580 1.502 . S
C582 H568 0.960 . S
C582 H569 0.961 . S
C582 H570 0.959 . S
C582 C580 1.561 . S
C583 C580 1.526 . S
C583 C584 1.396 . S
C583 C588 1.390 . S
C584 C578 1.465 . S
C584 C583 1.396 . S
C584 C585 1.399 . S
C585 H571 0.929 . S
C585 C584 1.399 . S
C585 C586 1.385 . S
C586 H572 0.931 . S
C586 C585 1.385 . S
C586 C587 1.389 . S
C587 C586 1.389 . S
C587 C588 1.387 . S
C588 H573 0.930 . S
C588 C583 1.390 . S
C588 C587 1.387 . S
H589 C601 0.930 . S
H590 C603 0.930 . S
H591 C604 0.930 . S
H592 C608 0.959 . S
H593 C608 0.959 . S
H594 C608 0.961 . S
H595 C609 0.960 . S
H596 C609 0.961 . S
H597 C609 0.959 . S
H598 C612 0.929 . S
H599 C613 0.931 . S
H600 C615 0.930 . S
C601 H589 0.930 . S
C601 C602 1.399 . S
C601 C606 1.399 . S
C602 C601 1.399 . S
C602 C603 1.376 . S
C603 H590 0.930 . S
C603 C602 1.376 . S
C603 C604 1.388 . S
C604 H591 0.930 . S
C604 C603 1.388 . S
C604 C605 1.390 . S
C605 C604 1.390 . S
C605 C606 1.394 . S
C605 C611 1.465 . S
C606 C601 1.399 . S
C606 C605 1.394 . S
C606 C607 1.516 . S
C607 C606 1.516 . S
C607 C608 1.502 . S
C607 C609 1.561 . S
C607 C610 1.526 . S
C608 H592 0.959 . S
C608 H593 0.959 . S
C608 H594 0.961 . S
C608 C607 1.502 . S
C609 H595 0.960 . S
C609 H596 0.961 . S
C609 H597 0.959 . S
C609 C607 1.561 . S
C610 C607 1.526 . S
C610 C611 1.396 . S
C610 C615 1.390 . S
C611 C605 1.465 . S
C611 C610 1.396 . S
C611 C612 1.399 . S
C612 H598 0.929 . S
C612 C611 1.399 . S
C612 C613 1.385 . S
C613 H599 0.931 . S
C613 C612 1.385 . S
C613 C614 1.389 . S
C614 C613 1.389 . S
C614 C615 1.387 . S
C615 H600 0.930 . S
C615 C610 1.390 . S
C615 C614 1.387 . S
H616 C628 0.930 . S
H617 C630 0.930 . S
H618 C631 0.930 . S
H619 C635 0.959 . S
H620 C635 0.959 . S
H621 C635 0.961 . S
H622 C636 0.960 . S
H623 C636 0.961 . S
H624 C636 0.959 . S
H625 C639 0.929 . S
H626 C640 0.931 . S
H627 C642 0.930 . S
C628 H616 0.930 . S
C628 C629 1.399 . S
C628 C633 1.399 . S
C629 C628 1.399 . S
C629 C630 1.376 1_554 S
C630 H617 0.930 . S
C630 C629 1.376 1_556 S
C630 C631 1.388 . S
C631 H618 0.930 . S
C631 C630 1.388 . S
C631 C632 1.390 . S
C632 C631 1.390 . S
C632 C633 1.394 1_556 S
C632 C638 1.465 . S
C633 C628 1.399 . S
C633 C632 1.394 1_554 S
C633 C634 1.516 . S
C634 C633 1.516 . S
C634 C635 1.502 . S
C634 C636 1.561 . S
C634 C637 1.526 . S
C635 H619 0.959 . S
C635 H620 0.959 . S
C635 H621 0.961 . S
C635 C634 1.502 . S
C636 H622 0.960 . S
C636 H623 0.961 . S
C636 H624 0.959 . S
C636 C634 1.561 . S
C637 C634 1.526 . S
C637 C638 1.396 1_554 S
C637 C642 1.390 . S
C638 C632 1.465 . S
C638 C637 1.396 1_556 S
C638 C639 1.399 . S
C639 H625 0.929 . S
C639 C638 1.399 . S
C639 C640 1.385 . S
C640 H626 0.931 . S
C640 C639 1.385 . S
C640 C641 1.384 1_556 S
C641 C640 1.384 1_554 S
C641 C642 1.391 . S
C642 H627 0.930 . S
C642 C637 1.390 . S
C642 C641 1.391 . S
H643 C655 0.930 . S
H644 C657 0.930 . S
H645 C658 0.930 . S
H646 C662 0.959 . S
H647 C662 0.959 . S
H648 C662 0.961 . S
H649 C663 0.960 . S
H650 C663 0.961 . S
H651 C663 0.959 . S
H652 C666 0.929 . S
H653 C667 0.931 . S
H654 C669 0.930 . S
C655 H643 0.930 . S
C655 C656 1.399 . S
C655 C660 1.399 . S
C656 C655 1.399 . S
C656 C657 1.376 . S
C657 H644 0.930 . S
C657 C656 1.376 . S
C657 C658 1.388 . S
C658 H645 0.930 . S
C658 C657 1.388 . S
C658 C659 1.390 . S
C659 C658 1.390 . S
C659 C660 1.394 . S
C659 C665 1.465 . S
C660 C655 1.399 . S
C660 C659 1.394 . S
C660 C661 1.516 . S
C661 C660 1.516 . S
C661 C662 1.502 . S
C661 C663 1.561 . S
C661 C664 1.526 . S
C662 H646 0.959 . S
C662 H647 0.959 . S
C662 H648 0.961 . S
C662 C661 1.502 . S
C663 H649 0.960 . S
C663 H650 0.961 . S
C663 H651 0.959 . S
C663 C661 1.561 . S
C664 C661 1.526 . S
C664 C665 1.396 . S
C664 C669 1.390 . S
C665 C659 1.465 . S
C665 C664 1.396 . S
C665 C666 1.399 . S
C666 H652 0.929 . S
C666 C665 1.399 . S
C666 C667 1.385 . S
C667 H653 0.931 . S
C667 C666 1.385 . S
C667 C668 1.389 . S
C668 C667 1.389 . S
C668 C669 1.387 . S
C669 H654 0.930 . S
C669 C664 1.390 . S
C669 C668 1.387 . S
H670 C682 0.930 . S
H671 C684 0.930 . S
H672 C685 0.930 . S
H673 C689 0.959 . S
H674 C689 0.959 . S
H675 C689 0.961 . S
H676 C690 0.960 . S
H677 C690 0.961 . S
H678 C690 0.959 . S
H679 C693 0.929 . S
H680 C694 0.931 . S
H681 C696 0.930 . S
C682 H670 0.930 . S
C682 C683 1.399 1_556 S
C682 C687 1.399 . S
C683 C682 1.399 1_554 S
C683 C684 1.376 . S
C684 H671 0.930 . S
C684 C683 1.376 . S
C684 C685 1.388 . S
C685 H672 0.930 . S
C685 C684 1.388 . S
C685 C686 1.390 . S
C686 C685 1.390 . S
C686 C687 1.394 1_554 S
C686 C692 1.465 . S
C687 C682 1.399 . S
C687 C686 1.394 1_556 S
C687 C688 1.516 . S
C688 C687 1.516 . S
C688 C689 1.502 . S
C688 C690 1.561 . S
C688 C691 1.526 . S
C689 H673 0.959 . S
C689 H674 0.959 . S
C689 H675 0.961 . S
C689 C688 1.502 . S
C690 H676 0.960 . S
C690 H677 0.961 . S
C690 H678 0.959 . S
C690 C688 1.561 . S
C691 C688 1.526 . S
C691 C692 1.396 1_556 S
C691 C696 1.390 . S
C692 C686 1.465 . S
C692 C691 1.396 1_554 S
C692 C693 1.399 . S
C693 H679 0.929 . S
C693 C692 1.399 . S
C693 C694 1.385 . S
C694 H680 0.931 . S
C694 C693 1.385 . S
C694 C695 1.389 . S
C695 C694 1.389 . S
C695 C696 1.387 1_554 S
C696 H681 0.930 . S
C696 C691 1.390 . S
C696 C695 1.387 1_556 S
H697 C709 0.930 . S
H698 C711 0.930 . S
H699 C712 0.930 . S
H700 C716 0.959 . S
H701 C716 0.959 . S
H702 C716 0.961 . S
H703 C717 0.960 . S
H704 C717 0.961 . S
H705 C717 0.959 . S
H706 C720 0.929 . S
H707 C721 0.931 . S
H708 C723 0.930 . S
C709 H697 0.930 . S
C709 C710 1.399 . S
C709 C714 1.399 . S
C710 C709 1.399 . S
C710 C711 1.376 . S
C711 H698 0.930 . S
C711 C710 1.376 . S
C711 C712 1.388 . S
C712 H699 0.930 . S
C712 C711 1.388 . S
C712 C713 1.390 . S
C713 C712 1.390 . S
C713 C714 1.394 . S
C713 C719 1.465 . S
C714 C709 1.399 . S
C714 C713 1.394 . S
C714 C715 1.516 . S
C715 C714 1.516 . S
C715 C716 1.502 . S
C715 C717 1.561 . S
C715 C718 1.526 . S
C716 H700 0.959 . S
C716 H701 0.959 . S
C716 H702 0.961 . S
C716 C715 1.502 . S
C717 H703 0.960 . S
C717 H704 0.961 . S
C717 H705 0.959 . S
C717 C715 1.561 . S
C718 C715 1.526 . S
C718 C719 1.396 . S
C718 C723 1.390 . S
C719 C713 1.465 . S
C719 C718 1.396 . S
C719 C720 1.399 . S
C720 H706 0.929 . S
C720 C719 1.399 . S
C720 C721 1.385 . S
C721 H707 0.931 . S
C721 C720 1.385 . S
C721 C722 1.389 . S
C722 C721 1.389 . S
C722 C723 1.387 . S
C723 H708 0.930 . S
C723 C718 1.390 . S
C723 C722 1.387 . S
H724 C736 0.930 . S
H725 C738 0.930 . S
H726 C739 0.930 . S
H727 C743 0.959 . S
H728 C743 0.959 . S
H729 C743 0.961 . S
H730 C744 0.960 . S
H731 C744 0.961 . S
H732 C744 0.959 . S
H733 C747 0.929 . S
H734 C748 0.931 . S
H735 C750 0.930 . S
C736 H724 0.930 . S
C736 C737 1.399 . S
C736 C741 1.399 . S
C737 C736 1.399 . S
C737 C738 1.376 . S
C738 H725 0.930 . S
C738 C737 1.376 . S
C738 C739 1.388 . S
C739 H726 0.930 . S
C739 C738 1.388 . S
C739 C740 1.390 . S
C740 C739 1.390 . S
C740 C741 1.394 . S
C740 C746 1.465 . S
C741 C736 1.399 . S
C741 C740 1.394 . S
C741 C742 1.516 . S
C742 C741 1.516 . S
C742 C743 1.502 . S
C742 C744 1.561 . S
C742 C745 1.526 . S
C743 H727 0.959 . S
C743 H728 0.959 . S
C743 H729 0.961 . S
C743 C742 1.502 . S
C744 H730 0.960 . S
C744 H731 0.961 . S
C744 H732 0.959 . S
C744 C742 1.561 . S
C745 C742 1.526 . S
C745 C746 1.396 . S
C745 C750 1.390 . S
C746 C740 1.465 . S
C746 C745 1.396 . S
C746 C747 1.399 . S
C747 H733 0.929 . S
C747 C746 1.399 . S
C747 C748 1.385 . S
C748 H734 0.931 . S
C748 C747 1.385 . S
C748 C749 1.389 . S
C749 C748 1.389 . S
C749 C750 1.387 . S
C750 H735 0.930 . S
C750 C745 1.390 . S
C750 C749 1.387 . S
H751 C763 0.930 . S
H752 C765 0.930 . S
H753 C766 0.930 . S
H754 C770 0.959 . S
H755 C770 0.959 . S
H756 C770 0.961 . S
H757 C771 0.960 . S
H758 C771 0.961 . S
H759 C771 0.959 . S
H760 C774 0.929 . S
H761 C775 0.931 . S
H762 C777 0.930 . S
C763 H751 0.930 . S
C763 C764 1.399 1_556 S
C763 C768 1.399 . S
C764 C763 1.399 1_554 S
C764 C765 1.376 . S
C765 H752 0.930 . S
C765 C764 1.376 . S
C765 C766 1.388 . S
C766 H753 0.930 . S
C766 C765 1.388 . S
C766 C767 1.390 . S
C767 C766 1.390 . S
C767 C768 1.394 1_554 S
C767 C773 1.465 . S
C768 C763 1.399 . S
C768 C767 1.394 1_556 S
C768 C769 1.516 . S
C769 C768 1.516 . S
C769 C770 1.502 . S
C769 C771 1.561 . S
C769 C772 1.526 . S
C770 H754 0.959 . S
C770 H755 0.959 . S
C770 H756 0.961 . S
C770 C769 1.502 . S
C771 H757 0.960 . S
C771 H758 0.961 . S
C771 H759 0.959 . S
C771 C769 1.561 . S
C772 C769 1.526 . S
C772 C773 1.396 1_556 S
C772 C777 1.390 . S
C773 C767 1.465 . S
C773 C772 1.396 1_554 S
C773 C774 1.399 . S
C774 H760 0.929 . S
C774 C773 1.399 . S
C774 C775 1.385 . S
C775 H761 0.931 . S
C775 C774 1.385 . S
C775 C776 1.389 . S
C776 C775 1.389 . S
C776 C777 1.387 1_554 S
C777 H762 0.930 . S
C777 C772 1.390 . S
C777 C776 1.387 1_556 S
H778 C790 0.930 . S
H779 C792 0.930 . S
H780 C793 0.930 . S
H781 C797 0.959 . S
H782 C797 0.959 . S
H783 C797 0.961 . S
H784 C798 0.960 . S
H785 C798 0.961 . S
H786 C798 0.959 . S
H787 C801 0.929 . S
H788 C802 0.931 . S
H789 C804 0.930 . S
C790 H778 0.930 . S
C790 C791 1.399 . S
C790 C795 1.399 . S
C791 C790 1.399 . S
C791 C792 1.376 . S
C792 H779 0.930 . S
C792 C791 1.376 . S
C792 C793 1.388 . S
C793 H780 0.930 . S
C793 C792 1.388 . S
C793 C794 1.390 . S
C794 C793 1.390 . S
C794 C795 1.394 . S
C794 C800 1.465 . S
C795 C790 1.399 . S
C795 C794 1.394 . S
C795 C796 1.516 . S
C796 C795 1.516 . S
C796 C797 1.502 . S
C796 C798 1.561 . S
C796 C799 1.526 . S
C797 H781 0.959 . S
C797 H782 0.959 . S
C797 H783 0.961 . S
C797 C796 1.502 . S
C798 H784 0.960 . S
C798 H785 0.961 . S
C798 H786 0.959 . S
C798 C796 1.561 . S
C799 C796 1.526 . S
C799 C800 1.396 . S
C799 C804 1.390 . S
C800 C794 1.465 . S
C800 C799 1.396 . S
C800 C801 1.399 . S
C801 H787 0.929 . S
C801 C800 1.399 . S
C801 C802 1.385 . S
C802 H788 0.931 . S
C802 C801 1.385 . S
C802 C803 1.389 . S
C803 C802 1.389 . S
C803 C804 1.387 . S
C804 H789 0.930 . S
C804 C799 1.390 . S
C804 C803 1.387 . S
H805 C817 0.930 . S
H806 C819 0.930 . S
H807 C820 0.930 . S
H808 C824 0.959 . S
H809 C824 0.959 . S
H810 C824 0.961 . S
H811 C825 0.960 . S
H812 C825 0.961 . S
H813 C825 0.959 . S
H814 C828 0.929 . S
H815 C829 0.931 . S
H816 C831 0.930 . S
C817 H805 0.930 . S
C817 C818 1.399 1_556 S
C817 C822 1.399 . S
C818 C817 1.399 1_554 S
C818 C819 1.376 . S
C819 H806 0.930 . S
C819 C818 1.376 . S
C819 C820 1.388 . S
C820 H807 0.930 . S
C820 C819 1.388 . S
C820 C821 1.390 . S
C821 C820 1.390 . S
C821 C822 1.394 1_554 S
C821 C827 1.465 . S
C822 C817 1.399 . S
C822 C821 1.394 1_556 S
C822 C823 1.516 . S
C823 C822 1.516 . S
C823 C824 1.502 . S
C823 C825 1.561 . S
C823 C826 1.526 . S
C824 H808 0.959 . S
C824 H809 0.959 . S
C824 H810 0.961 . S
C824 C823 1.502 . S
C825 H811 0.960 . S
C825 H812 0.961 . S
C825 H813 0.959 . S
C825 C823 1.561 . S
C826 C823 1.526 . S
C826 C827 1.396 1_556 S
C826 C831 1.390 . S
C827 C821 1.465 . S
C827 C826 1.396 1_554 S
C827 C828 1.399 . S
C828 H814 0.929 . S
C828 C827 1.399 . S
C828 C829 1.385 . S
C829 H815 0.931 . S
C829 C828 1.385 . S
C829 C830 1.389 . S
C830 C829 1.389 . S
C830 C831 1.387 1_554 S
C831 H816 0.930 . S
C831 C826 1.390 . S
C831 C830 1.387 1_556 S
C197 C21 1.481 . S
C209 C130 1.473 . S
C224 C40 1.489 . S
C236 C94 1.491 . S
C263 C109 1.435 . S
C251 C54 1.467 . S
C278 C73 1.532 . S
C290 C121 1.524 . S
C317 C157 1.428 . S
C305 C74 1.460 . S
C344 C169 1.501 . S
C332 C10 1.506 . S
C371 C178 1.481 . S
C359 C37 1.490 . S
C398 C142 1.495 . S
C386 C65 1.484 . S
C413 C52 1.444 . S
C425 C106 1.449 . S
C440 C87 1.497 . S
C452 C118 1.488 . S
C467 C15 1.492 . S
C479 C133 1.498 . S
C506 C97 1.489 . S
C494 C32 1.498 . S
C521 C29 1.518 . S
C533 C181 1.506 . S
C560 C145 1.506 . S
C548 C59 1.512 . S
C587 C154 1.435 . S
C575 C84 1.436 . S
C602 C8 1.476 . S
C614 C166 1.462 . S
C641 C92 1.520 . S
C629 C7 1.511 . S
C668 C104 1.480 . S
C656 C30 1.483 . S
C683 C62 1.525 . S
C695 C116 1.532 . S
C710 C81 1.491 . S
C722 C128 1.516 . S
C749 C140 1.507 . S
C737 C76 1.526 . S
C764 C18 1.480 . S
C776 C152 1.459 . S
C791 C43 1.511 . S
C803 C164 1.509 . S
C818 C51 1.484 . S
C830 C176 1.513 1_554 S
