# Generated by pormake.
# Topology zzz, (3,6)-cn, num edge types: 1
# Building blocks:
#     Node 0, Type 0, BuildingBlock: PAMTOO_clean_linker_0, # of connection points: 3
#     Node 1, Type 0, BuildingBlock: PAMTOO_clean_linker_0, # of connection points: 3
#     Node 2, Type 0, BuildingBlock: PAMTOO_clean_linker_0, # of connection points: 3
#     Node 3, Type 0, BuildingBlock: PAMTOO_clean_linker_0, # of connection points: 3
#     Node 4, Type 0, BuildingBlock: PAMTOO_clean_linker_0, # of connection points: 3
#     Node 5, Type 0, BuildingBlock: PAMTOO_clean_linker_0, # of connection points: 3
#     Node 6, Type 0, BuildingBlock: PAMTOO_clean_linker_0, # of connection points: 3
#     Node 7, Type 0, BuildingBlock: PAMTOO_clean_linker_0, # of connection points: 3
#     Node 8, Type 1, BuildingBlock: PAMTOO_clean_sbu_0, # of connection points: 6
#     Node 9, Type 1, BuildingBlock: PAMTOO_clean_sbu_0, # of connection points: 6
#     Node 10, Type 1, BuildingBlock: PAMTOO_clean_sbu_0, # of connection points: 6
#     Node 11, Type 1, BuildingBlock: PAMTOO_clean_sbu_0, # of connection points: 6
#     Edge 12, Type (0, 1), BuildingBlock: ZUJKAS_clean_linker_0, # of connection points: 2
#     Edge 13, Type (0, 1), BuildingBlock: ZUJKAS_clean_linker_0, # of connection points: 2
#     Edge 14, Type (0, 1), BuildingBlock: ZUJKAS_clean_linker_0, # of connection points: 2
#     Edge 15, Type (0, 1), BuildingBlock: ZUJKAS_clean_linker_0, # of connection points: 2
#     Edge 16, Type (0, 1), BuildingBlock: ZUJKAS_clean_linker_0, # of connection points: 2
#     Edge 17, Type (0, 1), BuildingBlock: ZUJKAS_clean_linker_0, # of connection points: 2
#     Edge 18, Type (0, 1), BuildingBlock: ZUJKAS_clean_linker_0, # of connection points: 2
#     Edge 19, Type (0, 1), BuildingBlock: ZUJKAS_clean_linker_0, # of connection points: 2
#     Edge 20, Type (0, 1), BuildingBlock: ZUJKAS_clean_linker_0, # of connection points: 2
#     Edge 21, Type (0, 1), BuildingBlock: ZUJKAS_clean_linker_0, # of connection points: 2
#     Edge 22, Type (0, 1), BuildingBlock: ZUJKAS_clean_linker_0, # of connection points: 2
#     Edge 23, Type (0, 1), BuildingBlock: ZUJKAS_clean_linker_0, # of connection points: 2
#     Edge 24, Type (0, 1), BuildingBlock: ZUJKAS_clean_linker_0, # of connection points: 2
#     Edge 25, Type (0, 1), BuildingBlock: ZUJKAS_clean_linker_0, # of connection points: 2
#     Edge 26, Type (0, 1), BuildingBlock: ZUJKAS_clean_linker_0, # of connection points: 2
#     Edge 27, Type (0, 1), BuildingBlock: ZUJKAS_clean_linker_0, # of connection points: 2
#     Edge 28, Type (0, 1), BuildingBlock: ZUJKAS_clean_linker_0, # of connection points: 2
#     Edge 29, Type (0, 1), BuildingBlock: ZUJKAS_clean_linker_0, # of connection points: 2
#     Edge 30, Type (0, 1), BuildingBlock: ZUJKAS_clean_linker_0, # of connection points: 2
#     Edge 31, Type (0, 1), BuildingBlock: ZUJKAS_clean_linker_0, # of connection points: 2
#     Edge 32, Type (0, 1), BuildingBlock: ZUJKAS_clean_linker_0, # of connection points: 2
#     Edge 33, Type (0, 1), BuildingBlock: ZUJKAS_clean_linker_0, # of connection points: 2
#     Edge 34, Type (0, 1), BuildingBlock: ZUJKAS_clean_linker_0, # of connection points: 2
#     Edge 35, Type (0, 1), BuildingBlock: ZUJKAS_clean_linker_0, # of connection points: 2
# Relax obj value: 0.185
# Max RMSD: 0.230
# Mean RMSD: 0.118
data_MOF--net-zzz--node1-PAMTOO_clean_sbu_0--node2-PAMTOO_clean_linker_0--edge1-ZUJKAS_clean_linker_0
_symmetry_space_group_name_H-M    P1
_symmetry_Int_Tables_number       1
_symmetry_cell_setting            triclinic
loop_
_symmetry_equiv_pos_as_xyz
'x, y, z'
_cell_length_a     72.140144
_cell_length_b     64.112753
_cell_length_c     20.215415
_cell_angle_alpha  91.082777
_cell_angle_beta   81.413627
_cell_angle_gamma 86.534961
loop_
_atom_site_label
_atom_site_type_symbol
_atom_site_fract_x
_atom_site_fract_y
_atom_site_fract_z
_atom_type_partial_charge
H0 H 0.82916 0.5501 0.40996 0.0
H1 H 0.78063 0.54281 0.31324 0.0
H2 H 0.79164 0.50229 0.47227 0.0
H3 H 0.76437 0.48155 0.37029 0.0
C4 C 0.76757 0.49586 0.34181 0.0
O5 O 0.768 0.51232 0.38691 0.0
H6 H 0.7816 0.49266 0.31058 0.0
C7 C 0.81608 0.54286 0.40717 0.0
C8 C 0.8115 0.52607 0.44842 0.0
C9 C 0.80529 0.54885 0.35757 0.0
C10 C 0.78896 0.53858 0.35192 0.0
C11 C 0.78383 0.52203 0.39374 0.0
C12 C 0.79529 0.51549 0.4414 0.0
H13 H 0.03377 0.78168 0.26273 0.0
H14 H 0.01897 0.722 0.19349 0.0
H15 H 0.99722 0.74447 0.39312 0.0
H16 H 0.99615 0.69009 0.36863 0.0
C17 C 1.00493 0.69505 0.32241 0.0
O18 O 0.99732 0.71395 0.30368 0.0
H19 H 0.01931 0.69654 0.33525 0.0
C20 C 0.02688 0.76726 0.27249 0.0
C21 C 0.01581 0.7649 0.33491 0.0
C22 C 0.02837 0.75185 0.22125 0.0
C23 C 0.01826 0.73394 0.23255 0.0
C24 C 1.0072 0.73122 0.29444 0.0
C25 C 1.00593 0.74667 0.34559 0.0
H26 H 0.72056 0.02614 0.23414 0.0
H27 H 0.77583 0.01609 0.12142 0.0
H28 H 0.76342 0.98997 0.31687 0.0
H29 H 0.80603 1.00245 0.28357 0.0
C30 C 0.80432 0.00636 0.2314 0.0
O31 O 0.79014 0.99488 0.21287 0.0
H32 H 0.80047 0.02344 0.23096 0.0
C33 C 0.73496 0.01976 0.23074 0.0
C34 C 0.74029 0.00784 0.28298 0.0
C35 C 0.74759 0.02266 0.17253 0.0
C36 C 0.76604 0.01396 0.16656 0.0
C37 C 0.77199 1.00262 0.2191 0.0
C38 C 0.75898 0.99916 0.27698 0.0
H39 H 0.49971 0.68749 0.24092 0.0
H40 H 0.5036 0.73994 0.11129 0.0
H41 H 0.53298 0.73836 0.28173 0.0
H42 H 0.51802 0.78269 0.25517 0.0
C43 C 0.5147 0.77911 0.20436 0.0
O44 O 0.52474 0.76078 0.18015 0.0
H45 H 0.49931 0.77725 0.20881 0.0
C46 C 0.50461 0.70286 0.22933 0.0
C47 C 0.51666 0.71173 0.26876 0.0
C48 C 0.49996 0.71275 0.17226 0.0
C49 C 0.50699 0.7322 0.15554 0.0
C50 C 0.51848 0.74172 0.19595 0.0
C51 C 0.52365 0.73127 0.2518 0.0
H52 H 0.20484 0.52341 0.11259 0.0
H53 H 0.25553 0.5125 0.19823 0.0
H54 H 0.24859 0.47939 0.01731 0.0
H55 H 0.28546 0.51039 0.0652 0.0
C56 C 0.28801 0.49384 0.07917 0.0
O57 O 0.27145 0.4854 0.10659 0.0
H58 H 0.29381 0.48498 0.0321 0.0
C59 C 0.21867 0.51557 0.11072 0.0
C60 C 0.22531 0.50107 0.05846 0.0
C61 C 0.22934 0.51971 0.16155 0.0
C62 C 0.24722 0.50962 0.15898 0.0
C63 C 0.25428 0.49528 0.10685 0.0
C64 C 0.24323 0.49076 0.05692 0.0
H65 H 0.03296 0.22558 0.16495 0.0
H66 H 0.02516 0.29193 0.20398 0.0
H67 H 0.03842 0.26784 1.00133 0.0
H68 H 0.04669 0.32446 0.03125 0.0
C69 C 0.04648 0.31462 0.07593 0.0
O70 O 0.03156 0.30193 0.07853 0.0
H71 H 0.06006 0.30502 0.06928 0.0
C72 C 0.03325 0.24139 0.14686 0.0
C73 C 0.0365 0.24449 0.07769 0.0
C74 C 0.02912 0.25833 0.19281 0.0
C75 C 0.0285 0.2787 0.16915 0.0
C76 C 0.03226 0.28214 0.10039 0.0
C77 C 0.03602 0.26506 0.05453 0.0
H78 H 0.31855 0.9872 0.21516 0.0
H79 H 0.26168 0.98544 0.31521 0.0
H80 H 0.27296 0.01399 0.1233 0.0
H81 H 0.23608 0.03464 0.21735 0.0
C82 C 0.23681 0.02227 0.25484 0.0
O83 O 0.24627 0.00458 0.2226 0.0
H84 H 0.24459 0.02834 0.294 0.0
C85 C 0.30359 0.99051 0.2161 0.0
C86 C 0.2974 1.00093 0.16249 0.0
C87 C 0.29091 0.98481 0.27136 0.0
C88 C 0.27164 0.98976 0.27291 0.0
C89 C 0.26506 1.00031 0.21996 0.0
C90 C 0.27799 0.00591 0.16438 0.0
H91 H 0.51031 0.31182 0.26264 0.0
H92 H 0.51746 0.25415 0.36387 0.0
H93 H 0.50627 0.25324 0.16025 0.0
H94 H 0.48978 0.2153 0.23557 0.0
C95 C 0.49556 0.21958 0.28161 0.0
O96 O 0.51169 0.23006 0.26367 0.0
H97 H 0.48452 0.22983 0.31321 0.0
C98 C 0.51048 0.29487 0.26283 0.0
C99 C 0.50782 0.2839 0.20495 0.0
C100 C 0.51406 0.28435 0.32005 0.0
C101 C 0.5147 0.26245 0.31982 0.0
C102 C 0.51152 0.2512 0.26269 0.0
C103 C 0.50836 0.26193 0.20472 0.0
Dy104 Dy 1.0083 0.01407 0.66707 0.0
Dy105 Dy 0.02942 0.99209 0.78117 0.0
C106 C 0.05233 0.00442 0.64333 0.0
O107 O 1.01316 0.98069 0.63083 0.0
O108 O 0.01674 0.96613 0.73144 0.0
O109 O 1.00777 0.02467 0.5664 0.0
O110 O 0.98341 0.0306 0.64236 0.0
O111 O 1.00052 1.00328 0.83153 0.0
O112 O 0.98629 0.99975 0.73907 0.0
O113 O 0.03459 0.02597 0.79281 0.0
O114 O 1.01045 0.03959 0.74173 0.0
O115 O 0.02865 0.97447 0.87122 0.0
O116 O 0.05526 0.98351 0.81913 0.0
C117 C 1.01399 0.96432 0.66881 0.0
O118 O 0.03902 0.01913 0.64048 0.0
O119 O 0.0492 0.98898 0.68433 0.0
C120 C 0.99231 0.05814 0.57418 0.0
C121 C 0.99154 0.10203 0.56967 0.0
C122 C 1.00556 0.09084 0.59825 0.0
C123 C 1.00595 0.06913 0.60036 0.0
C124 C 0.97824 0.06913 0.54578 0.0
C125 C 0.97789 0.09096 0.54331 0.0
C126 C 0.99184 0.03556 0.58379 0.0
C127 C 0.98523 1.00121 0.80443 0.0
C128 C 0.02369 0.04194 0.77872 0.0
C129 C 0.05435 0.9497 0.86149 0.0
C130 C 0.06806 0.90749 0.85659 0.0
C131 C 0.05257 0.91368 0.82515 0.0
C132 C 0.04587 0.93455 0.8273 0.0
C133 C 0.07012 0.94383 0.89129 0.0
C134 C 0.07696 0.92287 0.88882 0.0
C135 C 0.04691 0.97161 0.86433 0.0
H136 H 0.0161 0.0989 0.61984 0.0
H137 H 0.01674 0.06091 0.62363 0.0
H138 H 0.96746 0.06089 0.52629 0.0
H139 H 0.96705 0.09914 0.52021 0.0
H140 H 0.04509 0.90232 0.80101 0.0
H141 H 0.03379 0.93875 0.80331 0.0
H142 H 0.07703 0.95539 0.91696 0.0
H143 H 0.08905 0.91868 0.91289 0.0
Dy144 Dy 0.51388 0.98316 0.67111 0.0
Dy145 Dy 0.52627 0.01171 0.79004 0.0
C146 C 0.51599 0.03203 0.65792 0.0
O147 O 0.5438 0.98903 0.63168 0.0
O148 O 0.55346 0.99849 0.73078 0.0
O149 O 0.50757 0.97836 0.57087 0.0
O150 O 0.50479 0.9534 0.64158 0.0
O151 O 0.51915 0.98077 0.8331 0.0
O152 O 0.52838 0.9619 0.73635 0.0
O153 O 0.49472 0.01618 0.80747 0.0
O154 O 0.48819 0.98726 0.74861 0.0
O155 O 0.54009 0.01386 0.87711 0.0
O156 O 0.52748 0.04178 0.83892 0.0
C157 C 0.55721 0.99313 0.66672 0.0
O158 O 0.50526 0.01647 0.65231 0.0
O159 O 0.52859 0.03083 0.69837 0.0
C160 C 0.48121 0.95815 0.57529 0.0
C161 C 0.44295 0.95263 0.5708 0.0
C162 C 0.4486 0.9715 0.59555 0.0
C163 C 0.46752 0.97418 0.59813 0.0
C164 C 0.47575 0.93934 0.55022 0.0
C165 C 0.45676 0.93659 0.54791 0.0
C166 C 0.50078 0.96027 0.58486 0.0
C167 C 0.52457 0.96283 0.80185 0.0
C168 C 0.48278 1.00287 0.79159 0.0
C169 C 0.55633 0.04418 0.87859 0.0
C170 C 0.59252 0.05795 0.88142 0.0
C171 C 0.58765 0.04987 0.82168 0.0
C172 C 0.56967 0.04309 0.82027 0.0
C173 C 0.56084 0.05303 0.93748 0.0
C174 C 0.57878 0.05995 0.93888 0.0
C175 C 0.53853 0.03424 0.8794 0.0
H176 H 0.43843 0.98433 0.61252 0.0
H177 H 0.47143 0.9887 0.61887 0.0
H178 H 0.48611 0.92665 0.53374 0.0
H179 H 0.45288 0.92177 0.52928 0.0
H180 H 0.59788 0.04826 0.77658 0.0
H181 H 0.56638 0.03629 0.77427 0.0
H182 H 0.55072 0.05385 0.98298 0.0
H183 H 0.58219 0.06583 0.98589 0.0
Dy184 Dy 0.53964 0.50294 0.77565 0.0
Dy185 Dy 0.49874 0.49925 0.71122 0.0
C186 C 0.51013 0.46851 0.82593 0.0
O187 O 0.54174 0.47359 0.71321 0.0
O188 O 0.52229 0.48415 0.63876 0.0
O189 O 0.57036 0.50141 0.76794 0.0
O190 O 0.55215 0.50771 0.86439 0.0
O191 O 0.51221 0.5261 0.65942 0.0
O192 O 0.54203 0.52514 0.69044 0.0
O193 O 0.49211 0.5172 0.80885 0.0
O194 O 0.52076 0.53086 0.80975 0.0
O195 O 0.47224 0.5131 0.68938 0.0
O196 O 0.47964 0.48016 0.66778 0.0
C197 C 0.53501 0.47081 0.65701 0.0
O198 O 0.5223 0.48151 0.8419 0.0
O199 O 0.50124 0.47134 0.77435 0.0
C200 C 0.58573 0.50605 0.8686 0.0
C201 C 0.61685 0.50755 0.93977 0.0
C202 C 0.59848 0.50614 0.97385 0.0
C203 C 0.58318 0.50548 0.93884 0.0
C204 C 0.60402 0.50735 0.83412 0.0
C205 C 0.61939 0.50814 0.86926 0.0
C206 C 0.56926 0.50498 0.83245 0.0
C207 C 0.52918 0.53298 0.65591 0.0
C208 C 0.50256 0.53144 0.82897 0.0
C209 C 0.45689 0.4964 0.60631 0.0
C210 C 0.43159 0.49686 0.51087 0.0
C211 C 0.43706 0.51565 0.53719 0.0
C212 C 0.44949 0.51543 0.58444 0.0
C213 C 0.45192 0.47766 0.57836 0.0
C214 C 0.43951 0.47787 0.53123 0.0
C215 C 0.46729 0.49569 0.66466 0.0
H216 H 0.59588 0.50519 0.02781 0.0
H217 H 0.5693 0.50427 0.96705 0.0
H218 H 0.60646 0.50785 0.78001 0.0
H219 H 0.63324 0.50946 0.84109 0.0
H220 H 0.43151 0.53059 0.52209 0.0
H221 H 0.45282 0.53018 0.60534 0.0
H222 H 0.45705 0.46272 0.595 0.0
H223 H 0.4355 0.46307 0.51304 0.0
Dy224 Dy 0.032 0.51635 0.66017 0.0
Dy225 Dy 0.0173 0.48306 0.77341 0.0
C226 C 0.03082 0.46707 0.62101 0.0
O227 O 1.00405 0.50777 0.63696 0.0
O228 O 0.992 0.50084 0.74448 0.0
O229 O 0.0525 0.52442 0.57757 0.0
O230 O 0.02948 0.54669 0.6159 0.0
O231 O 0.02012 0.51269 0.83003 0.0
O232 O 0.01777 0.53615 0.74759 0.0
O233 O 0.04868 0.47793 0.75456 0.0
O234 O 0.05418 0.51145 0.72611 0.0
O235 O 0.02026 0.46732 0.86527 0.0
O236 O 0.99629 0.46241 0.81551 0.0
C237 C 0.98956 0.5049 0.68271 0.0
O238 O 0.03813 0.4851 0.60717 0.0
O239 O 0.02093 0.46358 0.67933 0.0
C240 C 0.05931 0.55941 0.58282 0.0
C241 C 0.0911 0.58268 0.58246 0.0
C242 C 0.08109 0.58322 0.52779 0.0
C243 C 0.06534 0.57153 0.52785 0.0
C244 C 0.06823 0.56034 0.63989 0.0
C245 C 0.08407 0.57184 0.63963 0.0
C246 C 0.04564 0.5437 0.57734 0.0
C247 C 0.0174 0.53192 0.81096 0.0
C248 C 0.05986 0.49344 0.7485 0.0
C249 C 0.99014 0.46995 0.93065 0.0
C250 C 0.96184 0.49517 0.01124 0.0
C251 C 0.98067 0.50032 0.00452 0.0
C252 C 0.99468 0.48775 0.96512 0.0
C253 C 0.9717 0.46365 0.94255 0.0
C254 C 0.95768 0.47608 0.98288 0.0
C255 C 1.0031 0.46138 0.8717 0.0
H256 H 0.08633 0.59119 0.4827 0.0
H257 H 0.05863 0.57092 0.48342 0.0
H258 H 0.06367 0.5511 0.68293 0.0
H259 H 0.09152 0.57118 0.68235 0.0
H260 H 0.98449 0.51483 0.02552 0.0
H261 H 1.00881 0.49295 0.95751 0.0
H262 H 0.96785 0.44997 0.91673 0.0
H263 H 0.94341 0.47126 0.98891 0.0
H264 H 0.2033 0.04412 0.2464 0.0
H265 H 0.17225 0.03955 0.31032 0.0
H266 H 0.19504 0.98621 0.40527 0.0
H267 H 0.22625 0.99106 0.34224 0.0
H268 H 0.14866 0.00775 0.31794 0.0
H269 H 0.17042 0.0214 0.56613 0.0
H270 H 0.18521 0.02659 0.48886 0.0
H271 H 0.18377 1.0003 0.51788 0.0
C272 C 0.20165 0.03126 0.28033 0.0
C273 C 0.21722 0.01779 0.28862 0.0
C274 C 0.18387 0.02869 0.31707 0.0
C275 C 0.18123 0.01274 0.36367 0.0
C276 C 0.19669 0.99893 0.37082 0.0
H277 H 0.08366 0.97773 0.64139 0.0
H278 H 0.11443 0.97932 0.57245 0.0
C279 C 0.21451 1.00153 0.33416 0.0
C280 C 0.16236 0.0108 0.40486 0.0
H281 H 0.13948 0.01099 0.56608 0.0
C282 C 0.14667 0.00851 0.37219 0.0
C283 C 0.15964 0.01182 0.47584 0.0
C284 C 0.1756 0.01536 0.51437 0.0
C285 C 0.12852 0.00692 0.40822 0.0
C286 C 0.12581 0.00798 0.47911 0.0
C287 C 0.14149 0.01015 0.51182 0.0
C288 C 0.10684 0.00696 0.5203 0.0
C289 C 0.11245 0.00373 0.36996 0.0
C290 C 0.09223 0.02209 0.51478 0.0
C291 C 0.07456 0.02124 0.55432 0.0
C292 C 0.07105 0.00527 0.60059 0.0
C293 C 0.08574 0.99021 0.60622 0.0
C294 C 0.10342 0.99111 0.56682 0.0
H295 H 0.11749 0.99776 0.31804 0.0
H296 H 0.10273 0.9926 0.39551 0.0
H297 H 0.10441 0.01891 0.36701 0.0
H298 H 0.09456 0.03473 0.48037 0.0
H299 H 0.06366 0.03319 0.54877 0.0
H300 H 0.49565 0.21611 0.41652 0.0
H301 H 0.50031 0.18425 0.47931 0.0
H302 H 0.5095 0.14768 0.29473 0.0
H303 H 0.50499 0.17954 0.23197 0.0
H304 H 0.47901 0.14917 0.48383 0.0
H305 H 0.55389 0.12749 0.38684 0.0
H306 H 0.54305 0.15313 0.37679 0.0
H307 H 0.53933 0.13163 0.32296 0.0
C308 C 0.49882 0.20126 0.3895 0.0
C309 C 0.49976 0.2002 0.31958 0.0
C310 C 0.50144 0.18309 0.42531 0.0
C311 C 0.50534 0.16356 0.39179 0.0
C312 C 0.50676 0.16257 0.32168 0.0
H313 H 0.49102 0.04108 0.57048 0.0
H314 H 0.48822 0.07273 0.50557 0.0
C315 C 0.5041 0.18075 0.28588 0.0
C316 C 0.50711 0.14415 0.43042 0.0
H317 H 0.53712 0.10234 0.45213 0.0
C318 C 0.49173 0.13895 0.47699 0.0
C319 C 0.52376 0.1309 0.42194 0.0
C320 C 0.54103 0.1361 0.3749 0.0
C321 C 0.49246 0.12077 0.51468 0.0
C322 C 0.50894 0.10724 0.50501 0.0
C323 C 0.52441 0.11258 0.45904 0.0
C324 C 0.51065 0.08784 0.5437 0.0
C325 C 0.4757 0.11642 0.56553 0.0
C326 C 0.52443 0.08556 0.58566 0.0
C327 C 0.52611 0.06748 0.62263 0.0
C328 C 0.5141 0.05115 0.61818 0.0
C329 C 0.50043 0.05336 0.57546 0.0
C330 C 0.49875 0.0715 0.53852 0.0
H331 H 0.46611 0.13061 0.57827 0.0
H332 H 0.46766 0.10432 0.54467 0.0
H333 H 0.48021 0.11045 0.61221 0.0
H334 H 0.53382 0.0979 0.59033 0.0
H335 H 0.53685 0.06636 0.65477 0.0
H336 H 0.29007 0.52071 0.18487 0.0
H337 H 0.31413 0.52067 0.25913 0.0
H338 H 0.34151 0.4648 0.15777 0.0
H339 H 0.31749 0.46483 0.08354 0.0
H340 H 0.32583 0.48975 0.34652 0.0
H341 H 0.38368 0.5059 0.14395 0.0
H342 H 0.35923 0.50948 0.13416 0.0
H343 H 0.37074 0.48372 0.12811 0.0
C344 C 0.30118 0.50837 0.17883 0.0
C345 C 0.30208 0.49294 0.12789 0.0
C346 C 0.31492 0.50837 0.22116 0.0
C347 C 0.32987 0.49298 0.21322 0.0
C348 C 0.33037 0.4771 0.16395 0.0
H349 H 0.43021 0.47081 0.40189 0.0
H350 H 0.40536 0.4697 0.33194 0.0
C351 C 0.31659 0.47706 0.12181 0.0
C352 C 0.34501 0.49365 0.25601 0.0
H353 H 0.39217 0.49867 0.25018 0.0
C354 C 0.34033 0.49177 0.32552 0.0
C355 C 0.36395 0.49624 0.22865 0.0
C356 C 0.36976 0.49913 0.15471 0.0
C357 C 0.35408 0.49202 0.36816 0.0
C358 C 0.37303 0.49474 0.34084 0.0
C359 C 0.37769 0.4966 0.27128 0.0
C360 C 0.38823 0.49565 0.38344 0.0
C361 C 0.34824 0.48883 0.44191 0.0
C362 C 0.38716 0.51086 0.43507 0.0
C363 C 0.40131 0.51144 0.47558 0.0
C364 C 0.417 0.49693 0.46518 0.0
C365 C 0.41824 0.48204 0.41227 0.0
C366 C 0.40407 0.48145 0.37186 0.0
H367 H 0.33475 0.48111 0.45176 0.0
H368 H 0.35914 0.47921 0.46305 0.0
H369 H 0.34625 0.50426 0.46869 0.0
H370 H 0.37534 0.52231 0.4442 0.0
H371 H 0.3997 0.52303 0.51604 0.0
H372 H 0.07326 0.32338 0.15395 0.0
H373 H 0.07047 0.3481 0.24936 0.0
H374 H 1.01234 0.36287 0.23124 0.0
H375 H 0.01528 0.33855 0.1345 0.0
H376 H 0.03037 0.39761 0.24536 0.0
H377 H 0.04587 0.3424 0.44027 0.0
H378 H 0.06398 0.3414 0.36888 0.0
H379 H 0.04089 0.33372 0.35969 0.0
C380 C 0.05983 0.33173 0.17093 0.0
C381 C 0.04438 0.32879 0.13765 0.0
C382 C 0.05821 0.34576 0.2257 0.0
C383 C 0.04108 0.35706 0.24855 0.0
C384 C 0.02565 0.35421 0.21502 0.0
H385 H 1.0141 0.42972 0.62317 0.0
H386 H 0.0166 0.40324 0.53316 0.0
C387 C 0.02731 0.34027 0.15999 0.0
C388 C 0.03948 0.37264 0.30509 0.0
H389 H 0.0459 0.37872 0.46837 0.0
C390 C 0.03368 0.39344 0.29421 0.0
C391 C 0.04356 0.36719 0.36921 0.0
C392 C 0.04873 0.34493 0.38556 0.0
C393 C 0.03214 0.40897 0.34509 0.0
C394 C 0.03698 0.40371 0.40835 0.0
C395 C 0.04245 0.38283 0.41967 0.0
C396 C 0.03607 0.41957 0.46376 0.0
C397 C 0.02495 0.43078 0.33087 0.0
C398 C 0.04651 0.43739 0.45545 0.0
C399 C 0.04503 0.45266 0.50673 0.0
C400 C 0.03325 0.45032 0.5679 0.0
C401 C 0.0233 0.4321 0.57683 0.0
C402 C 0.0247 0.41691 0.52534 0.0
H403 H 0.01691 0.43082 0.28809 0.0
H404 H 0.01578 0.43808 0.37531 0.0
H405 H 0.03705 0.44058 0.31772 0.0
H406 H 0.05576 0.43955 0.40909 0.0
H407 H 0.05304 0.46636 0.49819 0.0
H408 H 0.8108 0.00524 0.09303 0.0
H409 H 0.84114 1.00218 0.01875 0.0
H410 H 0.86986 0.99701 0.19068 0.0
H411 H 0.83964 0.99959 0.26452 0.0
H412 H 0.86962 0.02783 0.01061 0.0
H413 H 0.89656 0.94938 0.07535 0.0
H414 H 0.87235 0.95873 0.09953 0.0
H415 H 0.89006 0.96642 0.1475 0.0
C416 C 0.82358 1.00291 0.11475 0.0
C417 C 0.82277 1.00205 0.18461 0.0
C418 C 0.84094 1.00131 0.07231 0.0
C419 C 0.85791 0.99891 0.09874 0.0
C420 C 0.85707 0.99817 0.16858 0.0
H421 H 0.97734 1.00135 0.94204 0.0
H422 H 0.94649 1.0008 0.01185 0.0
C423 C 0.83974 0.9997 0.21089 0.0
C424 C 0.87647 0.99846 0.0539 0.0
H425 H 0.9189 0.97066 0.01458 0.0
C426 C 0.8803 0.01521 0.0111 0.0
C427 C 0.89056 0.98207 0.05437 0.0
C428 C 0.88714 0.96303 0.09615 0.0
C429 C 0.89785 0.01627 0.9703 0.0
C430 C 0.91199 1.00001 0.97143 0.0
C431 C 0.90815 0.9832 0.01386 0.0
C432 C 0.9308 1.00013 0.92871 0.0
C433 C 0.90127 0.0351 0.92757 0.0
C434 C 0.93237 0.99964 0.85857 0.0
C435 C 0.94999 0.9999 0.81851 0.0
C436 C 0.96654 1.00062 0.84751 0.0
C437 C 0.96495 1.00087 0.91783 0.0
C438 C 0.94729 1.00052 0.9579 0.0
H439 H 0.89097 0.04841 0.94453 0.0
H440 H 0.91566 0.04027 0.92818 0.0
H441 H 0.89989 0.03091 0.87509 0.0
H442 H 0.91994 0.99895 0.83468 0.0
H443 H 0.9506 0.9996 0.76464 0.0
H444 H 0.51814 0.77947 0.06668 0.0
H445 H 0.52264 0.80956 0.99382 0.0
H446 H 0.52391 0.8496 0.16675 0.0
H447 H 0.51995 0.81955 0.23909 0.0
H448 H 0.50012 0.84428 0.99177 0.0
H449 H 0.56906 0.86761 0.04549 0.0
H450 H 0.56006 0.84279 0.0698 0.0
H451 H 0.55242 0.86605 0.12025 0.0
C452 C 0.51988 0.79462 0.08877 0.0
C453 C 0.51929 0.79705 0.15835 0.0
C454 C 0.52232 0.81183 0.04723 0.0
C455 C 0.52406 0.83185 0.07446 0.0
C456 C 0.52325 0.83428 0.14408 0.0
H457 H 0.52076 0.95908 0.93808 0.0
H458 H 0.52125 0.92688 1.00135 0.0
C459 C 0.52092 0.81709 0.1855 0.0
C460 C 0.52549 0.8504 0.03091 0.0
H461 H 0.55105 0.89293 0.99166 0.0
C462 C 0.51139 0.85476 0.99119 0.0
C463 C 0.54018 0.86417 0.03 0.0
C464 C 0.55638 0.85982 0.06815 0.0
C465 C 0.51126 0.87275 0.95239 0.0
C466 C 0.52569 0.88672 0.9528 0.0
C467 C 0.53993 0.88226 0.99171 0.0
C468 C 0.52605 0.9062 0.9139 0.0
C469 C 0.49539 0.87701 0.91264 0.0
C470 C 0.52889 0.90529 0.84366 0.0
C471 C 0.52872 0.92367 0.80727 0.0
C472 C 0.52565 0.94337 0.84042 0.0
C473 C 0.5231 0.94421 0.91086 0.0
C474 C 0.5234 0.92581 0.94716 0.0
H475 H 0.48353 0.86697 0.92765 0.0
H476 H 0.49005 0.89365 0.91895 0.0
H477 H 0.50063 0.87387 0.85871 0.0
H478 H 0.5312 0.89033 0.81693 0.0
H479 H 0.53076 0.9224 0.75314 0.0
H480 H 0.73111 0.51251 0.3769 0.0
H481 H 0.70625 0.516 0.30602 0.0
H482 H 0.74519 0.49086 0.13673 0.0
H483 H 0.77002 0.48743 0.20713 0.0
H484 H 0.70566 0.53813 0.17924 0.0
H485 H 0.70018 0.4524 0.15175 0.0
H486 H 0.71131 0.46391 0.21668 0.0
H487 H 0.72344 0.46142 0.13237 0.0
C488 C 0.73441 0.50806 0.32432 0.0
C489 C 0.75262 0.50004 0.29736 0.0
C490 C 0.7202 0.50998 0.28392 0.0
C491 C 0.72379 0.50353 0.21612 0.0
C492 C 0.74201 0.49575 0.18898 0.0
H493 H 0.65281 0.48954 0.90522 0.0
H494 H 0.67898 0.48991 0.96944 0.0
C495 C 0.75623 0.49395 0.22917 0.0
C496 C 0.70845 0.50453 0.17404 0.0
H497 H 0.68219 0.47399 0.08869 0.0
C498 C 0.70048 0.52412 0.15955 0.0
C499 C 0.70178 0.48625 0.14794 0.0
C500 C 0.70947 0.46476 0.16321 0.0
C501 C 0.68622 0.52594 0.11893 0.0
C502 C 0.67933 0.50763 0.09349 0.0
C503 C 0.6874 0.48805 0.10792 0.0
C504 C 0.66358 0.50835 0.05287 0.0
C505 C 0.67905 0.54752 0.10233 0.0
C506 C 0.64608 0.51853 0.07803 0.0
C507 C 0.63114 0.51861 0.04093 0.0
C508 C 0.63315 0.50821 0.97794 0.0
C509 C 0.65072 0.498 0.95287 0.0
C510 C 0.6657 0.49804 0.98991 0.0
H511 H 0.68957 0.55923 0.10685 0.0
H512 H 0.67547 0.54784 0.05081 0.0
H513 H 0.66622 0.55233 0.13803 0.0
H514 H 0.64383 0.52619 0.12701 0.0
H515 H 0.61798 0.52687 0.06186 0.0
H516 H 0.97792 0.66828 0.30205 0.0
H517 H 0.97928 0.64118 0.21366 0.0
H518 H 0.03415 0.65921 0.12738 0.0
H519 H 0.03302 0.68581 0.21695 0.0
H520 H 0.98264 0.64273 0.0785 0.0
H521 H 0.04422 0.59723 0.14864 0.0
H522 H 0.0316 0.61801 0.20146 0.0
H523 H 0.04867 0.62395 0.13109 0.0
C524 C 0.9903 0.66631 0.26435 0.0
C525 C 1.00554 0.67879 0.26697 0.0
C526 C 0.99104 0.65091 0.21377 0.0
C527 C 1.007 0.64781 0.1646 0.0
C528 C 0.02192 0.66087 0.16573 0.0
H529 H 1.01398 0.57422 0.7914 0.0
H530 H 1.01075 0.60252 0.87612 0.0
C531 C 0.02123 0.67615 0.2166 0.0
C532 C 1.00804 0.63085 0.1125 0.0
H533 H 0.03436 0.5872 0.04645 0.0
C534 C 0.99393 0.63056 0.07156 0.0
C535 C 0.0226 0.61475 0.10407 0.0
C536 C 0.03753 0.61332 0.14905 0.0
C537 C 0.99411 0.6148 0.02199 0.0
C538 C 1.00903 0.59913 0.01206 0.0
C539 C 0.02302 0.59931 0.05351 0.0
C540 C 1.01026 0.58206 0.96025 0.0
C541 C 0.97807 0.61481 0.98188 0.0
C542 C 1.01144 0.5611 0.97892 0.0
C543 C 1.01355 0.54491 0.93056 0.0
C544 C 1.01447 0.54924 0.86222 0.0
C545 C 1.01315 0.57026 0.84356 0.0
C546 C 1.01118 0.5865 0.89205 0.0
H547 H 0.96545 0.62408 0.00766 0.0
H548 H 0.98241 0.62193 0.93285 0.0
H549 H 0.97415 0.59865 0.97249 0.0
H550 H 1.01086 0.55724 0.03112 0.0
H551 H 1.01468 0.529 0.94692 0.0
H552 H 0.04814 0.23247 0.26786 0.0
H553 H 0.03572 0.21819 0.3752 0.0
H554 H 0.98634 0.26041 0.38818 0.0
H555 H 0.99857 0.27444 0.27927 0.0
H556 H 0.02013 0.23146 0.50948 0.0
H557 H 0.96686 0.20238 0.36189 0.0
H558 H 0.98721 0.21465 0.32153 0.0
H559 H 0.96847 0.2301 0.37162 0.0
C560 C 0.03486 0.23908 0.29443 0.0
C561 C 0.02409 0.25416 0.26474 0.0
C562 C 0.02784 0.23105 0.35599 0.0
C563 C 1.00994 0.23796 0.38884 0.0
C564 C 1.00007 0.25469 0.363 0.0
H565 H 0.96156 0.13109 0.59198 0.0
H566 H 0.96195 0.16877 0.57359 0.0
C567 C 1.0071 0.26274 0.30105 0.0
C568 C 1.00072 0.22481 0.44172 0.0
H569 H 0.97234 0.18404 0.45543 0.0
C570 C 1.00923 0.22149 0.49903 0.0
C571 C 0.98632 0.21199 0.42845 0.0
C572 C 0.97665 0.21479 0.36756 0.0
C573 C 1.00502 0.20439 0.53964 0.0
C574 C 0.99233 0.19012 0.5214 0.0
C575 C 0.98222 0.19488 0.46893 0.0
C576 C 0.99213 0.16848 0.5458 0.0
C577 C 0.01503 0.20111 0.59935 0.0
C578 C 1.00894 0.15584 0.53651 0.0
C579 C 1.00874 0.13441 0.54637 0.0
C580 C 0.99169 0.12508 0.56513 0.0
C581 C 0.97489 0.13782 0.57667 0.0
C582 C 0.97511 0.15936 0.56695 0.0
H583 H 0.01731 0.21635 0.62293 0.0
H584 H 1.00703 0.19151 0.63746 0.0
H585 H 0.02905 0.19307 0.58265 0.0
H586 H 0.02217 0.16231 0.51776 0.0
H587 H 0.02189 0.12501 0.536 0.0
H588 H 0.28106 0.99403 0.40559 0.0
H589 H 0.29858 0.98274 0.49511 0.0
H590 H 0.33565 0.94246 0.35348 0.0
H591 H 0.3177 0.95279 0.26526 0.0
H592 H 0.33102 0.9261 0.478 0.0
H593 H 0.34781 0.00981 0.49027 0.0
H594 H 0.32358 0.00432 0.51185 0.0
H595 H 0.33518 0.99994 0.4272 0.0
C596 C 0.29254 0.98222 0.39423 0.0
C597 C 0.29835 0.97468 0.32815 0.0
C598 C 0.30265 0.97595 0.44523 0.0
C599 C 0.31879 0.96229 0.43043 0.0
C600 C 0.32337 0.95319 0.36598 0.0
H601 H 0.42798 0.93353 0.47068 0.0
H602 H 0.39497 0.93294 0.45797 0.0
C603 C 0.31321 0.95925 0.3154 0.0
C604 C 0.33256 0.95957 0.47761 0.0
H605 H 0.36643 0.98568 0.53925 0.0
C606 C 0.33849 0.93917 0.49288 0.0
C607 C 0.3423 0.97666 0.49717 0.0
C608 C 0.33705 0.99892 0.48061 0.0
C609 C 0.35468 0.93531 0.52273 0.0
C610 C 0.36516 0.95226 0.53736 0.0
C611 C 0.35833 0.97273 0.52772 0.0
C612 C 0.38458 0.9492 0.55225 0.0
C613 C 0.36091 0.91308 0.53552 0.0
C614 C 0.38971 0.95848 0.60966 0.0
C615 C 0.40863 0.95877 0.61726 0.0
C616 C 0.42278 0.95008 0.56698 0.0
C617 C 0.41749 0.94009 0.51081 0.0
C618 C 0.39859 0.93968 0.50354 0.0
H619 H 0.34878 0.90304 0.5432 0.0
H620 H 0.37075 0.90666 0.49138 0.0
H621 H 0.36827 0.91223 0.57999 0.0
H622 H 0.3791 0.96607 0.64751 0.0
H623 H 0.41219 0.96625 0.66177 0.0
H624 H 0.49045 0.31336 0.39331 0.0
H625 H 0.49932 0.34092 0.46568 0.0
H626 H 0.55559 0.31222 0.44521 0.0
H627 H 0.54667 0.28447 0.37263 0.0
H628 H 0.51832 0.34247 0.58667 0.0
H629 H 0.5589 0.37076 0.35245 0.0
H630 H 0.54144 0.35182 0.35098 0.0
H631 H 0.56376 0.34418 0.37506 0.0
C632 C 0.50451 0.31254 0.4064 0.0
C633 C 0.5179 0.29689 0.37778 0.0
C634 C 0.50957 0.32827 0.44751 0.0
C635 C 0.52815 0.32869 0.45996 0.0
C636 C 0.5412 0.31216 0.43578 0.0
H637 H 0.55644 0.43707 0.69049 0.0
H638 H 0.55813 0.40149 0.64349 0.0
C639 C 0.53608 0.29627 0.39492 0.0
C640 C 0.53412 0.34785 0.49029 0.0
H641 H 0.55546 0.39284 0.44772 0.0
C642 C 0.52677 0.35334 0.55693 0.0
C643 C 0.54491 0.36205 0.4507 0.0
C644 C 0.55268 0.35709 0.37818 0.0
C645 C 0.52944 0.373 0.58453 0.0
C646 C 0.53977 0.38742 0.54424 0.0
C647 C 0.54765 0.38166 0.47835 0.0
C648 C 0.54091 0.40925 0.56752 0.0
C649 C 0.52039 0.37863 0.65537 0.0
C650 C 0.53141 0.42552 0.53817 0.0
C651 C 0.53046 0.44591 0.56463 0.0
C652 C 0.53906 0.45037 0.62081 0.0
C653 C 0.54959 0.43421 0.64733 0.0
C654 C 0.55048 0.41381 0.62091 0.0
H655 H 0.51054 0.36691 0.6762 0.0
H656 H 0.53145 0.37956 0.68783 0.0
H657 H 0.5126 0.39417 0.65758 0.0
H658 H 0.52403 0.42228 0.49659 0.0
H659 H 0.52227 0.45795 0.54287 0.0
H660 H 0.1947 0.51903 0.23416 0.0
H661 H 0.17966 0.54393 0.32113 0.0
H662 H 0.23027 0.57714 0.30643 0.0
H663 H 0.24559 0.55204 0.21802 0.0
H664 H 0.20907 0.56931 0.44684 0.0
H665 H 0.1658 0.60675 0.2736 0.0
H666 H 0.16684 0.57876 0.26495 0.0
H667 H 0.18801 0.59236 0.24517 0.0
C668 C 0.20266 0.53162 0.24929 0.0
C669 C 0.22117 0.53386 0.21855 0.0
C670 C 0.19409 0.54578 0.29908 0.0
C671 C 0.20378 0.56253 0.31911 0.0
C672 C 0.22258 0.56436 0.29105 0.0
H673 H 0.10405 0.61982 0.53473 0.0
H674 H 0.13666 0.62562 0.48867 0.0
C675 C 0.23127 0.55005 0.24089 0.0
C676 C 0.19344 0.57812 0.36777 0.0
H677 H 0.15093 0.60503 0.3894 0.0
C678 C 0.19665 0.57783 0.43445 0.0
C679 C 0.17774 0.58997 0.35124 0.0
C680 C 0.1745 0.5922 0.27963 0.0
C681 C 0.18305 0.58666 0.48606 0.0
C682 C 0.16568 0.5951 0.47022 0.0
C683 C 0.16394 0.59816 0.40266 0.0
C684 C 0.14802 0.59585 0.51915 0.0
C685 C 0.18704 0.58571 0.55706 0.0
C686 C 0.14363 0.57795 0.55597 0.0
C687 C 0.12515 0.57491 0.58355 0.0
C688 C 0.11056 0.58944 0.5735 0.0
C689 C 0.11507 0.60832 0.54271 0.0
C690 C 0.13371 0.61161 0.51645 0.0
H691 H 0.20166 0.58989 0.55926 0.0
H692 H 0.17723 0.59642 0.59149 0.0
H693 H 0.18593 0.56946 0.57458 0.0
H694 H 0.15405 0.56517 0.55751 0.0
H695 H 0.12211 0.56009 0.60633 0.0
H696 H 0.01973 0.74318 0.09608 0.0
H697 H 0.03488 0.75616 0.99 0.0
H698 H 0.07645 0.78329 0.09238 0.0
H699 H 0.06237 0.76895 0.19659 0.0
H700 H 0.03339 0.79445 0.9715 0.0
H701 H 0.10846 0.77184 0.92063 0.0
H702 H 0.09272 0.75764 0.97867 0.0
H703 H 0.10374 0.78011 0.00675 0.0
C704 C 0.03261 0.75106 0.09535 0.0
C705 C 0.03959 0.75548 0.1551 0.0
C706 C 0.04125 0.75855 0.03459 0.0
C707 C 0.05688 0.77074 0.03265 0.0
C708 C 0.06473 0.77356 0.09147 0.0
H709 H 0.07884 0.88745 0.96405 0.0
H710 H 0.08055 0.84999 0.98129 0.0
C711 C 0.05636 0.76574 0.15173 0.0
C712 C 0.06229 0.78437 0.97519 0.0
H713 H 0.09987 0.80992 0.90187 0.0
C714 C 0.04796 0.7972 0.9539 0.0
C715 C 0.08127 0.78797 0.95114 0.0
C716 C 0.09734 0.77341 0.96513 0.0
C717 C 0.05204 0.81499 0.91678 0.0
C718 C 0.07093 0.82009 0.90075 0.0
C719 C 0.08537 0.80611 0.91533 0.0
C720 C 0.07528 0.84157 0.88202 0.0
C721 C 0.03603 0.82939 0.9009 0.0
C722 C 0.07266 0.84911 0.81926 0.0
C723 C 0.07184 0.87062 0.8089 0.0
C724 C 0.07341 0.88487 0.86146 0.0
C725 C 0.07769 0.87703 0.92227 0.0
C726 C 0.07866 0.85557 0.93231 0.0
H727 H 0.02208 0.82331 0.91827 0.0
H728 H 0.03653 0.84503 0.92486 0.0
H729 H 0.03742 0.83143 0.84603 0.0
H730 H 0.07007 0.83847 0.77986 0.0
H731 H 0.06896 0.87613 0.76092 0.0
H732 H 0.73661 0.06375 0.16845 0.0
H733 H 0.71582 0.07907 0.09422 0.0
H734 H 0.72013 0.02062 0.98206 0.0
H735 H 0.74144 0.00556 0.05487 0.0
H736 H 0.71446 0.05697 0.90347 0.0
H737 H 0.66383 0.05562 0.13986 0.0
H738 H 0.68353 0.07121 0.14325 0.0
H739 H 0.68722 0.04332 0.13161 0.0
C740 C 0.73376 0.05456 0.12599 0.0
C741 C 0.74049 0.03355 0.11703 0.0
C742 C 0.72184 0.06324 0.08396 0.0
C743 C 0.71613 0.0508 0.03373 0.0
C744 C 0.72436 0.03045 0.02061 0.0
H745 H 0.62407 0.03375 0.83174 0.0
H746 H 0.6557 0.03689 0.85776 0.0
C747 C 0.73653 0.02187 0.06204 0.0
C748 C 0.69929 0.0574 0.00372 0.0
H749 H 0.65175 0.06547 0.04368 0.0
C750 C 0.70075 0.05913 0.93404 0.0
C751 C 0.68141 0.06004 0.04381 0.0
C752 C 0.67877 0.0573 0.11868 0.0
C753 C 0.6847 0.06315 0.90327 0.0
C754 C 0.66681 0.06516 0.94333 0.0
C755 C 0.66549 0.06415 0.01309 0.0
C756 C 0.64901 0.06599 0.91482 0.0
C757 C 0.68704 0.06497 0.82828 0.0
C758 C 0.6347 0.08143 0.93752 0.0
C759 C 0.61649 0.07953 0.92335 0.0
C760 C 0.61229 0.06216 0.88616 0.0
C761 C 0.62691 0.04746 0.85977 0.0
C762 C 0.64507 0.0493 0.87432 0.0
H763 H 0.70106 0.07043 0.80833 0.0
H764 H 0.68596 0.04934 0.8051 0.0
H765 H 0.67602 0.07589 0.81296 0.0
H766 H 0.63741 0.09438 0.96918 0.0
H767 H 0.60554 0.0912 0.94374 0.0
H768 H 0.51144 0.7016 0.04185 0.0
H769 H 0.49955 0.67354 0.98019 0.0
H770 H 0.45341 0.66897 0.14082 0.0
H771 H 0.4658 0.6966 0.20367 0.0
H772 H 0.47238 0.63362 0.12167 0.0
H773 H 0.46001 0.65909 0.8729 0.0
H774 H 0.48262 0.66666 0.88693 0.0
H775 H 0.46179 0.67759 0.93985 0.0
C776 C 0.4983 0.69524 0.06255 0.0
C777 C 0.48954 0.70115 0.12741 0.0
C778 C 0.49143 0.67922 0.02714 0.0
C779 C 0.47547 0.66913 0.05555 0.0
C780 C 0.46571 0.6765 0.11777 0.0
H781 H 0.46663 0.5494 0.83836 0.0
H782 H 0.45427 0.58227 0.89867 0.0
C783 C 0.47274 0.6923 0.15356 0.0
C784 C 0.47152 0.64858 0.02726 0.0
H785 H 0.47181 0.62222 0.87874 0.0
C786 C 0.47163 0.63127 0.06888 0.0
C787 C 0.47026 0.64532 0.95866 0.0
C788 C 0.46845 0.66324 0.91237 0.0
C789 C 0.47236 0.61081 0.04266 0.0
C790 C 0.47332 0.60755 0.97296 0.0
C791 C 0.47136 0.62477 0.93217 0.0
C792 C 0.47962 0.5869 0.94083 0.0
C793 C 0.47322 0.5928 0.0893 0.0
C794 C 0.49785 0.5787 0.945 0.0
C795 C 0.50491 0.56021 0.91066 0.0
C796 C 0.49387 0.54946 0.87144 0.0
C797 C 0.47536 0.55728 0.86883 0.0
C798 C 0.46833 0.57605 0.90282 0.0
H799 H 0.46626 0.59734 0.14078 0.0
H800 H 0.46646 0.57911 0.07131 0.0
H801 H 0.48814 0.58805 0.09187 0.0
H802 H 0.50687 0.58698 0.97328 0.0
H803 H 0.51921 0.55458 0.91369 0.0
H804 H 0.81065 0.54024 0.22412 0.0
H805 H 0.83838 0.54983 0.15045 0.0
H806 H 0.84837 0.59624 0.29584 0.0
H807 H 0.82045 0.58666 0.37027 0.0
H808 H 0.86326 0.58399 0.09879 0.0
H809 H 0.88247 0.5422 0.32165 0.0
H810 H 0.85853 0.54456 0.30591 0.0
H811 H 0.86921 0.56694 0.33467 0.0
C812 C 0.81794 0.55347 0.23868 0.0
C813 C 0.81389 0.56216 0.30389 0.0
C814 C 0.8339 0.55894 0.19639 0.0
C815 C 0.84576 0.57315 0.21906 0.0
C816 C 0.83952 0.58495 0.27815 0.0
H817 H 0.96156 0.52231 0.11881 0.0
H818 H 0.93667 0.54833 0.16525 0.0
C819 C 0.82355 0.57947 0.3206 0.0
C820 C 0.86602 0.5702 0.19334 0.0
H821 H 0.90434 0.54057 0.22538 0.0
C822 C 0.8725 0.57504 0.12691 0.0
C823 C 0.87808 0.55858 0.23043 0.0
C824 C 0.87182 0.55264 0.30201 0.0
C825 C 0.89032 0.56736 0.09513 0.0
C826 C 0.90154 0.55395 0.13022 0.0
C827 C 0.8957 0.55071 0.19833 0.0
C828 C 0.91778 0.54061 0.09593 0.0
C829 C 0.89665 0.57314 0.02373 0.0
C830 C 0.91546 0.52751 0.04178 0.0
C831 C 0.92974 0.51285 0.01453 0.0
C832 C 0.94656 0.51055 0.04184 0.0
C833 C 0.94889 0.52373 0.09608 0.0
C834 C 0.93467 0.53864 0.1227 0.0
H835 H 0.89123 0.58927 0.01465 0.0
H836 H 0.9122 0.57213 0.0111 0.0
H837 H 0.89083 0.5624 0.98954 0.0
H838 H 0.90236 0.52815 0.02163 0.0
H839 H 0.92756 0.50336 0.97184 0.0
H840 H 0.01732 0.23618 0.97396 0.0
H841 H 0.01699 0.2024 0.91469 0.0
H842 H 0.06078 0.17693 0.01908 0.0
H843 H 0.0609 0.21043 0.07903 0.0
H844 H 0.04341 0.17533 0.83365 0.0
H845 H 0.01819 0.13901 0.07463 0.0
H846 H 0.0189 0.16692 0.06635 0.0
H847 H 0.03995 0.15121 0.07417 0.0
C848 C 0.02717 0.2235 0.98296 0.0
C849 C 0.03902 0.22586 0.03149 0.0
C850 C 0.0269 0.20418 0.9494 0.0
C851 C 0.03851 0.18696 0.96378 0.0
C852 C 0.05134 0.18981 0.00848 0.0
H853 H 0.04861 0.05382 0.8607 0.0
H854 H 0.05279 0.08918 0.90176 0.0
C855 C 0.0515 0.20899 0.04233 0.0
C856 C 0.03649 0.16575 0.93535 0.0
H857 H 0.02636 0.11606 0.98017 0.0
C858 C 0.03963 0.16238 0.86561 0.0
C859 C 0.03143 0.14885 0.97707 0.0
C860 C 0.02674 0.15166 0.05216 0.0
C861 C 0.0383 0.14247 0.83661 0.0
C862 C 0.03347 0.12555 0.87849 0.0
C863 C 0.03023 0.12897 0.94813 0.0
C864 C 0.03135 0.1042 0.85139 0.0
C865 C 0.04245 0.13966 0.76148 0.0
C866 C 0.01776 0.10081 0.8101 0.0
C867 C 0.01529 0.08063 0.78676 0.0
C868 C 0.02631 0.06331 0.80442 0.0
C869 C 0.03988 0.06674 0.84604 0.0
C870 C 0.04231 0.08696 0.8695 0.0
H871 H 0.05076 0.15237 0.73819 0.0
H872 H 0.05027 0.12442 0.74678 0.0
H873 H 0.02901 0.13996 0.74088 0.0
H874 H 1.00883 0.11375 0.79664 0.0
H875 H 1.00465 0.07865 0.755 0.0
H876 H 0.31168 0.97704 0.05179 0.0
H877 H 0.34192 0.98061 0.98017 0.0
H878 H 0.34758 0.03934 0.08027 0.0
H879 H 0.31743 0.03562 0.15223 0.0
H880 H 0.35847 0.01123 0.89256 0.0
H881 H 0.39336 1.00277 0.11842 0.0
H882 H 0.3691 0.99739 0.11843 0.0
H883 H 0.37565 0.02391 0.12356 0.0
C884 C 0.31904 0.9911 0.05653 0.0
C885 C 0.31202 0.00628 0.10654 0.0
C886 C 0.33643 0.99304 0.01607 0.0
C887 C 0.34727 0.01006 0.02551 0.0
C888 C 0.33966 0.02591 0.07258 0.0
H889 H 0.46533 0.0325 0.88488 0.0
H890 H 0.43238 0.03538 0.93774 0.0
C891 C 0.32228 0.02397 0.11298 0.0
C892 C 0.36701 0.01038 0.99001 0.0
H893 H 0.41281 0.00876 0.01702 0.0
C894 C 0.37035 0.01073 0.91976 0.0
C895 C 0.3826 0.00963 0.0253 0.0
C896 C 0.38011 0.00821 0.10053 0.0
C897 C 0.38874 0.01068 0.88408 0.0
C898 C 0.40435 0.00978 0.91941 0.0
C899 C 0.40095 0.00955 0.98969 0.0
C900 C 0.4243 0.00852 0.88481 0.0
C901 C 0.39119 0.012 0.80886 0.0
C902 C 0.43097 0.99238 0.83767 0.0
C903 C 0.44981 0.99075 0.80717 0.0
C904 C 0.46263 0.00507 0.82348 0.0
C905 C 0.45595 0.02119 0.87087 0.0
C906 C 0.43705 0.02285 0.90125 0.0
H907 H 0.37839 0.01921 0.79185 0.0
H908 H 0.40331 0.02122 0.78981 0.0
H909 H 0.39375 0.99599 0.78617 0.0
H910 H 0.42169 0.98075 0.82519 0.0
H911 H 0.45434 0.97805 0.77117 0.0
H912 H 0.5345 0.29294 0.10204 0.0
H913 H 0.5326 0.32248 0.02727 0.0
H914 H 0.47369 0.33362 0.104 0.0
H915 H 0.47573 0.30436 0.17966 0.0
H916 H 0.51088 0.33644 0.92885 0.0
H917 H 0.49708 0.38672 0.15989 0.0
H918 H 0.5045 0.35936 0.16063 0.0
H919 H 0.48042 0.36722 0.15544 0.0
C920 C 0.52101 0.30117 0.10071 0.0
C921 C 0.5052 0.29626 0.14571 0.0
C922 C 0.51995 0.31814 0.05848 0.0
C923 C 0.50309 0.33053 0.06104 0.0
C924 C 0.48691 0.3245 0.10195 0.0
H925 H 0.48646 0.43763 0.80815 0.0
H926 H 0.48419 0.40419 0.86381 0.0
C927 C 0.488 0.30762 0.14443 0.0
C928 C 0.50297 0.35087 0.02676 0.0
H929 H 0.49669 0.40364 0.0575 0.0
C930 C 0.5077 0.35114 0.95684 0.0
C931 C 0.49922 0.37009 0.06352 0.0
C932 C 0.49519 0.37096 0.13904 0.0
C933 C 0.50858 0.37009 0.92268 0.0
C934 C 0.50435 0.38927 0.95941 0.0
C935 C 0.49975 0.38896 0.02931 0.0
C936 C 0.50522 0.4099 0.92678 0.0
C937 C 0.51456 0.36939 0.84781 0.0
C938 C 0.51722 0.42468 0.94549 0.0
C939 C 0.51839 0.44398 0.91437 0.0
C940 C 0.50752 0.44898 0.86389 0.0
C941 C 0.4951 0.43435 0.84662 0.0
C942 C 0.49392 0.41508 0.87793 0.0
H943 H 0.52198 0.35418 0.82992 0.0
H944 H 0.50194 0.37152 0.8227 0.0
H945 H 0.52393 0.3821 0.83218 0.0
H946 H 0.52599 0.42111 0.98342 0.0
H947 H 0.52814 0.45477 0.92893 0.0
H948 H 0.21236 0.46348 0.0252 0.0
H949 H 0.18664 0.45799 0.96048 0.0
H950 H 0.18334 0.52365 0.91815 0.0
H951 H 0.2089 0.52912 0.98235 0.0
H952 H 0.15014 0.47803 0.99359 0.0
H953 H 0.18094 0.49607 0.73505 0.0
H954 H 0.19517 0.48965 0.79908 0.0
H955 H 0.18437 0.51558 0.7962 0.0
C956 C 0.20652 0.47657 1.00021 0.0
C957 C 0.21274 0.4967 0.00833 0.0
C958 C 0.19172 0.47347 0.96375 0.0
C959 C 0.18311 0.49037 0.93384 0.0
C960 C 0.18992 0.51028 0.93958 0.0
H961 H 0.08531 0.52334 0.75189 0.0
H962 H 0.11518 0.52057 0.79506 0.0
C963 C 0.20452 0.51341 0.9764 0.0
C964 C 0.16596 0.48781 0.90195 0.0
H965 H 0.14741 0.49664 0.75807 0.0
C966 C 0.1496 0.48177 0.94178 0.0
C967 C 0.16518 0.49286 0.83452 0.0
C968 C 0.18239 0.49872 0.78846 0.0
C969 C 0.13235 0.48153 0.91701 0.0
C970 C 0.13147 0.48698 0.84983 0.0
C971 C 0.14798 0.49248 0.80952 0.0
C972 C 0.11344 0.48812 0.82144 0.0
C973 C 0.11506 0.47641 0.96416 0.0
C974 C 0.10251 0.4707 0.82044 0.0
C975 C 0.08525 0.47227 0.79606 0.0
C976 C 0.07861 0.49125 0.77137 0.0
C977 C 0.08986 0.50847 0.77062 0.0
C978 C 0.10703 0.50691 0.79528 0.0
H979 H 0.11711 0.47795 0.01739 0.0
H980 H 0.10271 0.48678 0.95651 0.0
H981 H 0.11187 0.46002 0.95452 0.0
H982 H 0.10729 0.45585 0.83868 0.0
H983 H 0.07706 0.45863 0.797 0.0
H984 H 0.044 0.78754 0.36919 0.0
H985 H 0.04108 0.81952 0.43777 0.0
H986 H 0.98142 0.81355 0.48736 0.0
H987 H 0.98414 0.78185 0.41562 0.0
H988 H 0.98815 0.85194 0.44923 0.0
H989 H 0.03474 0.83128 0.63409 0.0
H990 H 0.04699 0.82675 0.55078 0.0
H991 H 0.02711 0.81187 0.58006 0.0
C992 C 0.03025 0.79289 0.39516 0.0
C993 C 1.01427 0.78218 0.3864 0.0
C994 C 0.02864 0.8111 0.43516 0.0
C995 C 1.01107 0.81891 0.46869 0.0
C996 C 0.99515 0.80781 0.4623 0.0
H997 H 1.00712 0.92854 0.73748 0.0
H998 H 1.00448 0.89348 0.69201 0.0
C999 C 0.99674 0.78957 0.42175 0.0
C1000 C 1.00927 0.83953 0.50535 0.0
H1001 H 0.02894 0.86818 0.61782 0.0
C1002 C 0.99688 0.85539 0.48683 0.0
C1003 C 0.0204 0.84409 0.55524 0.0
C1004 C 0.03289 0.8275 0.58168 0.0
C1005 C 0.99589 0.87578 0.51467 0.0
C1006 C 1.00804 0.8807 0.56093 0.0
C1007 C 0.01985 0.86462 0.5815 0.0
C1008 C 1.00886 0.90236 0.58832 0.0
C1009 C 0.98169 0.89174 0.49449 0.0
C1010 C 1.01231 0.91917 0.54542 0.0
C1011 C 1.01361 0.93937 0.5714 0.0
C1012 C 1.01186 0.94313 0.64088 0.0
C1013 C 1.00857 0.92625 0.6837 0.0
C1014 C 1.00706 0.90614 0.65774 0.0
H1015 H 0.96966 0.88413 0.47799 0.0
H1016 H 0.9762 0.90297 0.53631 0.0
H1017 H 0.98846 0.90057 0.45177 0.0
H1018 H 1.01436 0.91664 0.49166 0.0
H1019 H 0.01638 0.95193 0.53695 0.0
H1020 H 0.71969 0.03725 0.36596 0.0
H1021 H 0.69039 0.03285 0.4411 0.0
H1022 H 0.69687 0.9663 0.40079 0.0
H1023 H 0.72651 0.97072 0.3264 0.0
H1024 H 0.65973 0.01896 0.40002 0.0
H1025 H 0.67907 0.96805 0.60076 0.0
H1026 H 0.69628 0.98123 0.54525 0.0
H1027 H 0.68724 0.95754 0.51787 0.0
C1028 C 0.7152 0.0216 0.37507 0.0
C1029 C 0.72554 0.0043 0.34095 0.0
C1030 C 0.69835 0.0191 0.41761 0.0
C1031 C 0.69129 0.99923 0.42711 0.0
C1032 C 0.70209 0.98176 0.39563 0.0
H1033 H 0.57119 0.98157 0.53619 0.0
H1034 H 0.60357 0.98211 0.4794 0.0
C1035 C 0.7191 0.98426 0.3532 0.0
C1036 C 0.67188 0.99731 0.46417 0.0
H1037 H 0.64638 0.97347 0.59481 0.0
C1038 C 0.65687 0.00904 0.44274 0.0
C1039 C 0.66802 0.98452 0.52034 0.0
C1040 C 0.6835 0.97226 0.54794 0.0
C1041 C 0.63827 0.00826 0.47525 0.0
C1042 C 0.63431 0.99502 0.53023 0.0
C1043 C 0.64931 0.98345 0.55228 0.0
C1044 C 0.61473 0.99339 0.56604 0.0
C1045 C 0.62307 0.02203 0.45117 0.0
C1046 C 0.61019 0.99883 0.63447 0.0
C1047 C 0.59164 0.99838 0.66737 0.0
C1048 C 0.57715 0.99239 0.63271 0.0
C1049 C 0.58187 0.9864 0.56458 0.0
C1050 C 0.60042 0.98681 0.53181 0.0
H1051 H 0.62896 0.03513 0.42136 0.0
H1052 H 0.61546 0.0126 0.41869 0.0
H1053 H 0.61277 0.02866 0.49386 0.0
H1054 H 0.62093 0.0039 0.66221 0.0
H1055 H 0.58865 1.00308 0.71981 0.0
H1056 H 0.4942 0.69664 0.3746 0.0
H1057 H 0.50262 0.66897 0.44837 0.0
H1058 H 0.56064 0.66953 0.35799 0.0
H1059 H 0.55217 0.69739 0.28384 0.0
H1060 H 0.54568 0.63021 0.35363 0.0
H1061 H 0.53044 0.66444 0.61084 0.0
H1062 H 0.51163 0.66965 0.56332 0.0
H1063 H 0.53401 0.68028 0.53756 0.0
C1064 C 0.50885 0.69138 0.37222 0.0
C1065 C 0.52257 0.69927 0.32404 0.0
C1066 C 0.51367 0.67557 0.41443 0.0
C1067 C 0.5323 0.66725 0.40919 0.0
C1068 C 0.54621 0.67583 0.36331 0.0
H1069 H 0.55625 0.56104 0.66324 0.0
H1070 H 0.56033 0.59355 0.60176 0.0
C1071 C 0.5414 0.69185 0.3214 0.0
C1072 C 0.53658 0.64797 0.44547 0.0
H1073 H 0.53085 0.62687 0.6007 0.0
C1074 C 0.54279 0.62957 0.40775 0.0
C1075 C 0.53292 0.6471 0.51609 0.0
C1076 C 0.52705 0.66647 0.55941 0.0
C1077 C 0.5444 0.61018 0.43844 0.0
C1078 C 0.53957 0.60912 0.50867 0.0
C1079 C 0.53441 0.62767 0.54678 0.0
C1080 C 0.53823 0.58878 0.54268 0.0
C1081 C 0.55081 0.59088 0.39533 0.0
C1082 C 0.52452 0.57528 0.52965 0.0
C1083 C 0.52208 0.55684 0.5648 0.0
C1084 C 0.53336 0.55137 0.61374 0.0
C1085 C 0.54745 0.56464 0.62548 0.0
C1086 C 0.54974 0.58328 0.59067 0.0
H1087 H 0.55872 0.59485 0.34621 0.0
H1088 H 0.55982 0.57999 0.42078 0.0
H1089 H 0.53833 0.58264 0.38581 0.0
H1090 H 0.51531 0.57932 0.4935 0.0
H1091 H 0.51108 0.54704 0.55442 0.0
H1092 H 0.82145 0.54777 0.55291 0.0
H1093 H 0.85027 0.54172 0.60218 0.0
H1094 H 0.8629 0.4839 0.48748 0.0
H1095 H 0.83377 0.48979 0.43902 0.0
H1096 H 0.8739 0.48194 0.61631 0.0
H1097 H 0.89975 0.55158 0.48202 0.0
H1098 H 0.87809 0.55687 0.53777 0.0
H1099 H 0.87881 0.53956 0.46625 0.0
C1100 C 0.83001 0.53337 0.54026 0.0
C1101 C 0.82526 0.51913 0.49273 0.0
C1102 C 0.84663 0.53007 0.56767 0.0
C1103 C 0.85904 0.51262 0.54734 0.0
C1104 C 0.85362 0.49754 0.50376 0.0
H1105 H 0.97954 0.50893 0.55775 0.0
H1106 H 0.94808 0.50969 0.52648 0.0
C1107 C 0.83688 0.50079 0.47657 0.0
C1108 C 0.87822 0.51109 0.56714 0.0
H1109 H 0.91876 0.53672 0.55714 0.0
C1110 C 0.88372 0.4939 0.6034 0.0
C1111 C 0.89126 0.52645 0.54902 0.0
C1112 C 0.88681 0.54455 0.50605 0.0
C1113 C 0.90169 0.4919 0.6232 0.0
C1114 C 0.91444 0.50772 0.60746 0.0
C1115 C 0.909 0.52469 0.57011 0.0
C1116 C 0.93365 0.50682 0.62742 0.0
C1117 C 0.90697 0.47256 0.65931 0.0
C1118 C 0.9362 0.50522 0.69484 0.0
C1119 C 0.95428 0.50467 0.71294 0.0
C1120 C 0.97026 0.50599 0.66413 0.0
C1121 C 0.96763 0.50792 0.59683 0.0
C1122 C 0.94959 0.50833 0.57878 0.0
H1123 H 0.89815 0.45949 0.65014 0.0
H1124 H 0.92195 0.4673 0.64358 0.0
H1125 H 0.90476 0.4761 0.71396 0.0
H1126 H 0.92419 0.5046 0.73372 0.0
H1127 H 0.95571 0.50328 0.76528 0.0
loop_
_geom_bond_atom_site_label_1
_geom_bond_atom_site_label_2
_geom_bond_distance
_geom_bond_site_symmetry_2
_ccdc_geom_bond_type
H0 C7 0.929 . S
H1 C10 0.930 . S
H2 C12 0.929 . S
H3 C4 0.969 . S
C4 H3 0.969 . S
C4 O5 1.550 . S
C4 H6 0.973 . S
O5 C4 1.550 . S
O5 C11 1.412 . S
H6 C4 0.973 . S
C7 H0 0.929 . S
C7 C8 1.400 . S
C7 C9 1.364 . S
C8 C7 1.400 . S
C8 C12 1.377 . S
C9 C7 1.364 . S
C9 C10 1.374 . S
C10 H1 0.930 . S
C10 C9 1.374 . S
C10 C11 1.383 . S
C11 O5 1.412 . S
C11 C10 1.383 . S
C11 C12 1.394 . S
C12 H2 0.929 . S
C12 C8 1.377 . S
C12 C11 1.394 . S
H13 C20 0.929 . S
H14 C23 0.930 . S
H15 C25 0.929 . S
H16 C17 0.969 1_455 S
C17 H16 0.969 1_655 S
C17 O18 1.550 . S
C17 H19 0.973 . S
O18 C17 1.550 . S
O18 C24 1.412 . S
H19 C17 0.973 . S
C20 H13 0.929 . S
C20 C21 1.400 . S
C20 C22 1.364 . S
C21 C20 1.400 . S
C21 C25 1.377 . S
C22 C20 1.364 . S
C22 C23 1.374 . S
C23 H14 0.930 . S
C23 C22 1.374 . S
C23 C24 1.383 . S
C24 O18 1.412 . S
C24 C23 1.383 . S
C24 C25 1.394 . S
C25 H15 0.929 . S
C25 C21 1.377 . S
C25 C24 1.394 . S
H26 C33 0.929 . S
H27 C36 0.930 . S
H28 C38 0.929 . S
H29 C30 0.969 . S
C30 H29 0.969 . S
C30 O31 1.550 1_545 S
C30 H32 0.973 1_545 S
O31 C30 1.550 1_565 S
O31 C37 1.425 . S
H32 C30 0.973 1_565 S
C33 H26 0.929 . S
C33 C34 1.400 . S
C33 C35 1.364 . S
C34 C33 1.400 . S
C34 C38 1.377 . S
C35 C33 1.364 . S
C35 C36 1.374 . S
C36 H27 0.930 . S
C36 C35 1.374 . S
C36 C37 1.387 . S
C37 O31 1.425 . S
C37 C36 1.387 . S
C37 C38 1.399 . S
C38 H28 0.929 . S
C38 C34 1.377 . S
C38 C37 1.399 . S
H39 C46 0.929 . S
H40 C49 0.930 . S
H41 C51 0.929 . S
H42 C43 0.969 . S
C43 H42 0.969 . S
C43 O44 1.550 . S
C43 H45 0.973 . S
O44 C43 1.550 . S
O44 C50 1.412 . S
H45 C43 0.973 . S
C46 H39 0.929 . S
C46 C47 1.400 . S
C46 C48 1.364 . S
C47 C46 1.400 . S
C47 C51 1.377 . S
C48 C46 1.364 . S
C48 C49 1.374 . S
C49 H40 0.930 . S
C49 C48 1.374 . S
C49 C50 1.383 . S
C50 O44 1.412 . S
C50 C49 1.383 . S
C50 C51 1.394 . S
C51 H41 0.929 . S
C51 C47 1.377 . S
C51 C50 1.394 . S
H52 C59 0.929 . S
H53 C62 0.930 . S
H54 C64 0.929 . S
H55 C56 0.969 . S
C56 H55 0.969 . S
C56 O57 1.550 1_554 S
C56 H58 0.973 . S
O57 C56 1.550 1_556 S
O57 C63 1.412 . S
H58 C56 0.973 . S
C59 H52 0.929 . S
C59 C60 1.400 . S
C59 C61 1.364 1_556 S
C60 C59 1.400 . S
C60 C64 1.377 . S
C61 C59 1.364 1_554 S
C61 C62 1.374 . S
C62 H53 0.930 . S
C62 C61 1.374 . S
C62 C63 1.383 1_554 S
C63 O57 1.412 . S
C63 C62 1.383 1_556 S
C63 C64 1.394 . S
C64 H54 0.929 . S
C64 C60 1.377 . S
C64 C63 1.394 . S
H65 C72 0.929 . S
H66 C75 0.930 . S
H67 C77 0.929 . S
H68 C69 0.969 . S
C69 H68 0.969 . S
C69 O70 1.550 . S
C69 H71 0.973 . S
O70 C69 1.550 . S
O70 C76 1.412 . S
H71 C69 0.973 . S
C72 H65 0.929 . S
C72 C73 1.400 . S
C72 C74 1.364 . S
C73 C72 1.400 . S
C73 C77 1.377 . S
C74 C72 1.364 . S
C74 C75 1.374 . S
C75 H66 0.930 . S
C75 C74 1.374 . S
C75 C76 1.383 . S
C76 O70 1.412 . S
C76 C75 1.383 . S
C76 C77 1.394 . S
C77 H67 0.929 . S
C77 C73 1.377 . S
C77 C76 1.394 . S
H78 C85 0.929 . S
H79 C88 0.930 . S
H80 C90 0.929 . S
H81 C82 0.969 . S
C82 H81 0.969 . S
C82 O83 1.550 . S
C82 H84 0.973 . S
O83 C82 1.550 . S
O83 C89 1.412 . S
H84 C82 0.973 . S
C85 H78 0.929 . S
C85 C86 1.400 . S
C85 C87 1.364 . S
C86 C85 1.400 . S
C86 C90 1.377 . S
C87 C85 1.364 . S
C87 C88 1.374 . S
C88 H79 0.930 . S
C88 C87 1.374 . S
C88 C89 1.383 . S
C89 O83 1.412 . S
C89 C88 1.383 . S
C89 C90 1.394 . S
C90 H80 0.929 . S
C90 C86 1.377 . S
C90 C89 1.394 . S
H91 C98 0.929 . S
H92 C101 0.930 . S
H93 C103 0.929 . S
H94 C95 0.969 . S
C95 H94 0.969 . S
C95 O96 1.550 . S
C95 H97 0.973 . S
O96 C95 1.550 . S
O96 C102 1.412 . S
H97 C95 0.973 . S
C98 H91 0.929 . S
C98 C99 1.400 . S
C98 C100 1.364 . S
C99 C98 1.400 . S
C99 C103 1.377 . S
C100 C98 1.364 . S
C100 C101 1.374 . S
C101 H92 0.930 . S
C101 C100 1.374 . S
C101 C102 1.383 . S
C102 O96 1.412 . S
C102 C101 1.383 . S
C102 C103 1.394 . S
C103 H93 0.929 . S
C103 C99 1.377 . S
C103 C102 1.394 . S
Dy104 O107 2.307 1_545 S
Dy104 O109 2.395 1_655 S
Dy104 O110 2.379 . S
Dy104 O112 2.339 . S
Dy104 O114 2.298 1_655 S
Dy104 O118 2.275 1_655 S
Dy104 C126 2.738 . S
Dy105 O108 2.298 . S
Dy105 O111 2.279 1_455 S
Dy105 O113 2.307 1_565 S
Dy105 O115 2.414 . S
Dy105 O116 2.379 . S
Dy105 O119 2.339 . S
Dy105 C135 2.738 . S
C106 O118 1.257 . S
C106 O119 1.251 1_545 S
O107 Dy104 2.307 1_565 S
O107 C117 1.266 1_655 S
O108 Dy105 2.298 . S
O108 C117 1.236 . S
O109 Dy104 2.395 1_455 S
O109 C126 1.255 1_455 S
O110 Dy104 2.379 . S
O110 C126 1.249 . S
O111 Dy105 2.279 1_655 S
O111 C127 1.251 1_565 S
O112 Dy104 2.339 . S
O112 C127 1.257 . S
O113 Dy105 2.307 1_545 S
O113 C128 1.266 . S
O114 Dy104 2.298 1_455 S
O114 C128 1.236 . S
O115 Dy105 2.414 . S
O115 C135 1.291 . S
O116 Dy105 2.379 . S
O116 C135 1.249 . S
C117 O107 1.266 1_455 S
C117 O108 1.236 . S
O118 Dy104 2.275 1_455 S
O118 C106 1.257 . S
O119 Dy105 2.339 . S
O119 C106 1.251 1_565 S
C120 C123 1.344 1_655 S
C120 C124 1.328 . S
C120 C126 1.516 . S
C121 C122 1.304 1_655 S
C121 C125 1.323 . S
C122 C121 1.304 1_455 S
C122 C123 1.371 . S
C122 H136 0.930 . S
C123 C120 1.344 1_455 S
C123 C122 1.371 . S
C123 H137 0.931 . S
C124 C120 1.328 . S
C124 C125 1.433 . S
C124 H138 0.931 . S
C125 C121 1.323 . S
C125 C124 1.433 . S
C125 H139 0.933 . S
C126 Dy104 2.738 . S
C126 O109 1.255 1_655 S
C126 O110 1.249 . S
C126 C120 1.516 . S
C127 O111 1.251 1_545 S
C127 O112 1.257 . S
C128 O113 1.266 . S
C128 O114 1.236 . S
C129 C132 1.340 1_455 S
C129 C133 1.328 . S
C129 C135 1.516 . S
C130 C131 1.296 1_455 S
C130 C134 1.323 . S
C131 C130 1.296 1_655 S
C131 C132 1.371 . S
C131 H140 0.939 . S
C132 C129 1.340 1_655 S
C132 C131 1.371 . S
C132 H141 0.936 . S
C133 C129 1.328 . S
C133 C134 1.433 . S
C133 H142 0.931 . S
C134 C130 1.323 . S
C134 C133 1.433 . S
C134 H143 0.933 . S
C135 Dy105 2.738 . S
C135 O115 1.291 . S
C135 O116 1.249 . S
C135 C129 1.516 . S
H136 C122 0.930 . S
H137 C123 0.931 . S
H138 C124 0.931 . S
H139 C125 0.933 . S
H140 C131 0.939 . S
H141 C132 0.936 . S
H142 C133 0.931 . S
H143 C134 0.933 . S
Dy144 O147 2.307 . S
Dy144 O149 2.395 1_565 S
Dy144 O150 2.379 . S
Dy144 O152 2.339 . S
Dy144 O154 2.298 . S
Dy144 O158 2.275 1_565 S
Dy144 C166 2.738 . S
Dy145 O148 2.298 . S
Dy145 O151 2.275 1_545 S
Dy145 O153 2.307 . S
Dy145 O155 2.395 1_545 S
Dy145 O156 2.379 . S
Dy145 O159 2.339 . S
Dy145 C175 2.738 . S
C146 O158 1.254 . S
C146 O159 1.257 . S
O147 Dy144 2.307 . S
O147 C157 1.266 . S
O148 Dy145 2.298 . S
O148 C157 1.236 1_545 S
O149 Dy144 2.395 1_545 S
O149 C166 1.255 1_545 S
O150 Dy144 2.379 . S
O150 C166 1.249 . S
O151 Dy145 2.275 1_565 S
O151 C167 1.254 . S
O152 Dy144 2.339 . S
O152 C167 1.257 . S
O153 Dy145 2.307 . S
O153 C168 1.266 . S
O154 Dy144 2.298 . S
O154 C168 1.236 1_565 S
O155 Dy145 2.395 1_565 S
O155 C175 1.255 1_565 S
O156 Dy145 2.379 . S
O156 C175 1.249 . S
C157 O147 1.266 . S
C157 O148 1.236 1_565 S
O158 Dy144 2.275 1_545 S
O158 C146 1.254 . S
O159 Dy145 2.339 . S
O159 C146 1.257 . S
C160 C163 1.344 1_565 S
C160 C164 1.328 . S
C160 C166 1.516 . S
C161 C162 1.304 1_565 S
C161 C165 1.323 . S
C162 C161 1.304 1_545 S
C162 C163 1.371 . S
C162 H176 0.930 . S
C163 C160 1.344 1_545 S
C163 C162 1.371 . S
C163 H177 0.931 . S
C164 C160 1.328 . S
C164 C165 1.433 . S
C164 H178 0.931 . S
C165 C161 1.323 . S
C165 C164 1.433 . S
C165 H179 0.933 . S
C166 Dy144 2.738 . S
C166 O149 1.255 1_565 S
C166 O150 1.249 . S
C166 C160 1.516 . S
C167 O151 1.254 . S
C167 O152 1.257 . S
C168 O153 1.266 . S
C168 O154 1.236 1_545 S
C169 C172 1.344 1_545 S
C169 C173 1.328 . S
C169 C175 1.516 . S
C170 C171 1.264 1_545 S
C170 C174 1.323 . S
C171 C170 1.264 1_565 S
C171 C172 1.375 . S
C171 H180 0.969 . S
C172 C169 1.344 1_565 S
C172 C171 1.375 . S
C172 H181 0.931 . S
C173 C169 1.328 . S
C173 C174 1.433 . S
C173 H182 0.931 . S
C174 C170 1.323 . S
C174 C173 1.433 . S
C174 H183 0.933 . S
C175 Dy145 2.738 . S
C175 O155 1.255 1_545 S
C175 O156 1.249 . S
C175 C169 1.516 . S
H176 C162 0.930 . S
H177 C163 0.931 . S
H178 C164 0.931 . S
H179 C165 0.933 . S
H180 C171 0.969 . S
H181 C172 0.931 . S
H182 C173 0.931 . S
H183 C174 0.933 . S
Dy184 O187 2.307 . S
Dy184 O189 2.395 . S
Dy184 O190 2.379 . S
Dy184 O192 2.339 . S
Dy184 O194 2.298 . S
Dy184 O198 2.275 . S
Dy184 C206 2.738 . S
Dy185 O188 2.298 . S
Dy185 O191 2.275 . S
Dy185 O193 2.307 . S
Dy185 O195 2.395 . S
Dy185 O196 2.379 . S
Dy185 O199 2.339 . S
Dy185 C215 2.738 . S
C186 O198 1.254 . S
C186 O199 1.257 . S
O187 Dy184 2.307 . S
O187 C197 1.266 . S
O188 Dy185 2.298 . S
O188 C197 1.236 . S
O189 Dy184 2.395 . S
O189 C206 1.255 . S
O190 Dy184 2.379 . S
O190 C206 1.249 . S
O191 Dy185 2.275 . S
O191 C207 1.254 . S
O192 Dy184 2.339 . S
O192 C207 1.257 . S
O193 Dy185 2.307 . S
O193 C208 1.266 . S
O194 Dy184 2.298 . S
O194 C208 1.236 . S
O195 Dy185 2.395 . S
O195 C215 1.255 . S
O196 Dy185 2.379 . S
O196 C215 1.249 . S
C197 O187 1.266 . S
C197 O188 1.236 . S
O198 Dy184 2.275 . S
O198 C186 1.254 . S
O199 Dy185 2.339 . S
O199 C186 1.257 . S
C200 C203 1.344 . S
C200 C204 1.328 . S
C200 C206 1.516 . S
C201 C202 1.304 . S
C201 C205 1.323 . S
C202 C201 1.304 . S
C202 C203 1.371 . S
C202 H216 0.930 . S
C203 C200 1.344 . S
C203 C202 1.371 . S
C203 H217 0.931 . S
C204 C200 1.328 . S
C204 C205 1.433 . S
C204 H218 0.931 . S
C205 C201 1.323 . S
C205 C204 1.433 . S
C205 H219 0.933 . S
C206 Dy184 2.738 . S
C206 O189 1.255 . S
C206 O190 1.249 . S
C206 C200 1.516 . S
C207 O191 1.254 . S
C207 O192 1.257 . S
C208 O193 1.266 . S
C208 O194 1.236 . S
C209 C212 1.344 . S
C209 C213 1.328 . S
C209 C215 1.516 . S
C210 C211 1.304 . S
C210 C214 1.323 . S
C211 C210 1.304 . S
C211 C212 1.371 . S
C211 H220 0.930 . S
C212 C209 1.344 . S
C212 C211 1.371 . S
C212 H221 0.931 . S
C213 C209 1.328 . S
C213 C214 1.433 . S
C213 H222 0.931 . S
C214 C210 1.323 . S
C214 C213 1.433 . S
C214 H223 0.933 . S
C215 Dy185 2.738 . S
C215 O195 1.255 . S
C215 O196 1.249 . S
C215 C209 1.516 . S
H216 C202 0.930 . S
H217 C203 0.931 . S
H218 C204 0.931 . S
H219 C205 0.933 . S
H220 C211 0.930 . S
H221 C212 0.931 . S
H222 C213 0.931 . S
H223 C214 0.933 . S
Dy224 O227 2.307 1_455 S
Dy224 O229 2.395 . S
Dy224 O230 2.379 . S
Dy224 O232 2.339 . S
Dy224 O234 2.298 . S
Dy224 O238 2.275 . S
Dy224 C246 2.738 . S
Dy225 O228 2.298 . S
Dy225 O231 2.275 1_655 S
Dy225 O233 2.307 1_655 S
Dy225 O235 2.395 . S
Dy225 O236 2.379 . S
Dy225 O239 2.339 . S
Dy225 C255 2.738 . S
C226 O238 1.254 . S
C226 O239 1.257 1_455 S
O227 Dy224 2.307 1_655 S
O227 C237 1.266 . S
O228 Dy225 2.298 . S
O228 C237 1.236 . S
O229 Dy224 2.395 . S
O229 C246 1.255 . S
O230 Dy224 2.379 . S
O230 C246 1.249 . S
O231 Dy225 2.275 1_455 S
O231 C247 1.254 . S
O232 Dy224 2.339 . S
O232 C247 1.257 . S
O233 Dy225 2.307 1_455 S
O233 C248 1.266 . S
O234 Dy224 2.298 . S
O234 C248 1.236 . S
O235 Dy225 2.395 . S
O235 C255 1.255 . S
O236 Dy225 2.379 . S
O236 C255 1.249 . S
C237 O227 1.266 . S
C237 O228 1.236 . S
O238 Dy224 2.275 . S
O238 C226 1.254 . S
O239 Dy225 2.339 . S
O239 C226 1.257 1_655 S
C240 C243 1.344 . S
C240 C244 1.328 . S
C240 C246 1.516 . S
C241 C242 1.304 . S
C241 C245 1.323 . S
C242 C241 1.304 . S
C242 C243 1.371 . S
C242 H256 0.930 . S
C243 C240 1.344 . S
C243 C242 1.371 . S
C243 H257 0.931 . S
C244 C240 1.328 . S
C244 C245 1.433 . S
C244 H258 0.931 . S
C245 C241 1.323 . S
C245 C244 1.433 . S
C245 H259 0.933 . S
C246 Dy224 2.738 . S
C246 O229 1.255 . S
C246 O230 1.249 . S
C246 C240 1.516 . S
C247 O231 1.254 . S
C247 O232 1.257 . S
C248 O233 1.266 . S
C248 O234 1.236 . S
C249 C252 1.344 . S
C249 C253 1.328 . S
C249 C255 1.516 . S
C250 C251 1.304 1_554 S
C250 C254 1.323 1_554 S
C251 C250 1.304 1_556 S
C251 C252 1.371 . S
C251 H260 0.930 1_556 S
C252 C249 1.344 . S
C252 C251 1.371 . S
C252 H261 0.931 . S
C253 C249 1.328 . S
C253 C254 1.433 . S
C253 H262 0.931 . S
C254 C250 1.323 1_556 S
C254 C253 1.433 . S
C254 H263 0.933 . S
C255 Dy225 2.738 . S
C255 O235 1.255 . S
C255 O236 1.249 . S
C255 C249 1.516 . S
H256 C242 0.930 . S
H257 C243 0.931 . S
H258 C244 0.931 . S
H259 C245 0.933 . S
H260 C251 0.930 1_554 S
H261 C252 0.931 . S
H262 C253 0.931 . S
H263 C254 0.933 . S
H264 C272 0.929 . S
H265 C274 0.930 . S
H266 C276 0.930 . S
H267 C279 0.929 . S
H268 C282 0.930 . S
H269 C284 0.960 . S
H270 C284 0.960 1_545 S
H271 C284 0.960 . S
C272 H264 0.929 . S
C272 C273 1.377 . S
C272 C274 1.384 . S
C273 C272 1.377 . S
C273 C279 1.390 1_545 S
C274 H265 0.930 . S
C274 C272 1.384 . S
C274 C275 1.372 . S
C275 C274 1.372 . S
C275 C276 1.400 1_545 S
C275 C280 1.490 . S
C276 H266 0.930 . S
C276 C275 1.400 1_565 S
C276 C279 1.386 . S
H277 C293 0.930 . S
H278 C294 0.931 . S
C279 H267 0.929 . S
C279 C273 1.390 1_565 S
C279 C276 1.386 . S
C280 C275 1.490 . S
C280 C282 1.395 . S
C280 C283 1.403 . S
H281 C287 0.930 1_565 S
C282 H268 0.930 . S
C282 C280 1.395 . S
C282 C285 1.403 . S
C283 C280 1.403 . S
C283 C284 1.524 1_545 S
C283 C287 1.400 . S
C284 H269 0.960 . S
C284 H270 0.960 1_565 S
C284 H271 0.960 . S
C284 C283 1.524 1_565 S
C285 C282 1.403 . S
C285 C286 1.392 . S
C285 C289 1.495 . S
C286 C285 1.392 . S
C286 C287 1.385 . S
C286 C288 1.478 . S
C287 H281 0.930 1_545 S
C287 C283 1.400 . S
C287 C286 1.385 . S
C288 C286 1.478 . S
C288 C290 1.381 . S
C288 C294 1.383 1_545 S
C289 C285 1.495 . S
C289 H295 0.959 . S
C289 H296 0.961 . S
C289 H297 0.960 . S
C290 C288 1.381 . S
C290 C291 1.394 . S
C290 H298 0.930 . S
C291 C290 1.394 . S
C291 C292 1.383 . S
C291 H299 0.929 . S
C292 C291 1.383 . S
C292 C293 1.377 1_545 S
C293 H277 0.930 . S
C293 C292 1.377 1_565 S
C293 C294 1.379 . S
C294 H278 0.931 . S
C294 C288 1.383 1_565 S
C294 C293 1.379 . S
H295 C289 0.959 . S
H296 C289 0.961 . S
H297 C289 0.960 . S
H298 C290 0.930 . S
H299 C291 0.929 . S
H300 C308 0.929 . S
H301 C310 0.930 . S
H302 C312 0.930 . S
H303 C315 0.929 . S
H304 C318 0.930 . S
H305 C320 0.960 . S
H306 C320 0.960 . S
H307 C320 0.960 . S
C308 H300 0.929 . S
C308 C309 1.377 . S
C308 C310 1.384 . S
C309 C308 1.377 . S
C309 C315 1.390 . S
C310 H301 0.930 . S
C310 C308 1.384 . S
C310 C311 1.372 . S
C311 C310 1.372 . S
C311 C312 1.400 . S
C311 C316 1.490 . S
C312 H302 0.930 . S
C312 C311 1.400 . S
C312 C315 1.386 . S
H313 C329 0.930 . S
H314 C330 0.931 . S
C315 H303 0.929 . S
C315 C309 1.390 . S
C315 C312 1.386 . S
C316 C311 1.490 . S
C316 C318 1.395 . S
C316 C319 1.403 . S
H317 C323 0.930 . S
C318 H304 0.930 . S
C318 C316 1.395 . S
C318 C321 1.403 . S
C319 C316 1.403 . S
C319 C320 1.524 . S
C319 C323 1.400 . S
C320 H305 0.960 . S
C320 H306 0.960 . S
C320 H307 0.960 . S
C320 C319 1.524 . S
C321 C318 1.403 . S
C321 C322 1.392 . S
C321 C325 1.495 . S
C322 C321 1.392 . S
C322 C323 1.385 . S
C322 C324 1.478 . S
C323 H317 0.930 . S
C323 C319 1.400 . S
C323 C322 1.385 . S
C324 C322 1.478 . S
C324 C326 1.381 . S
C324 C330 1.383 . S
C325 C321 1.495 . S
C325 H331 0.959 . S
C325 H332 0.961 . S
C325 H333 0.960 . S
C326 C324 1.381 . S
C326 C327 1.394 . S
C326 H334 0.930 . S
C327 C326 1.394 . S
C327 C328 1.383 . S
C327 H335 0.929 . S
C328 C327 1.383 . S
C328 C329 1.377 . S
C329 H313 0.930 . S
C329 C328 1.377 . S
C329 C330 1.379 . S
C330 H314 0.931 . S
C330 C324 1.383 . S
C330 C329 1.379 . S
H331 C325 0.959 . S
H332 C325 0.961 . S
H333 C325 0.960 . S
H334 C326 0.930 . S
H335 C327 0.929 . S
H336 C344 0.929 . S
H337 C346 0.930 . S
H338 C348 0.930 . S
H339 C351 0.929 . S
H340 C354 0.930 . S
H341 C356 0.960 . S
H342 C356 0.960 . S
H343 C356 0.960 . S
C344 H336 0.929 . S
C344 C345 1.377 . S
C344 C346 1.384 . S
C345 C344 1.377 . S
C345 C351 1.390 . S
C346 H337 0.930 . S
C346 C344 1.384 . S
C346 C347 1.372 . S
C347 C346 1.372 . S
C347 C348 1.400 . S
C347 C352 1.490 . S
C348 H338 0.930 . S
C348 C347 1.400 . S
C348 C351 1.386 . S
H349 C365 0.930 . S
H350 C366 0.931 . S
C351 H339 0.929 . S
C351 C345 1.390 . S
C351 C348 1.386 . S
C352 C347 1.490 . S
C352 C354 1.395 . S
C352 C355 1.403 . S
H353 C359 0.930 . S
C354 H340 0.930 . S
C354 C352 1.395 . S
C354 C357 1.403 . S
C355 C352 1.403 . S
C355 C356 1.524 . S
C355 C359 1.400 . S
C356 H341 0.960 . S
C356 H342 0.960 . S
C356 H343 0.960 . S
C356 C355 1.524 . S
C357 C354 1.403 . S
C357 C358 1.392 . S
C357 C361 1.495 . S
C358 C357 1.392 . S
C358 C359 1.385 . S
C358 C360 1.478 . S
C359 H353 0.930 . S
C359 C355 1.400 . S
C359 C358 1.385 . S
C360 C358 1.478 . S
C360 C362 1.381 . S
C360 C366 1.383 . S
C361 C357 1.495 . S
C361 H367 0.959 . S
C361 H368 0.961 . S
C361 H369 0.960 . S
C362 C360 1.381 . S
C362 C363 1.394 . S
C362 H370 0.930 . S
C363 C362 1.394 . S
C363 C364 1.383 . S
C363 H371 0.929 . S
C364 C363 1.383 . S
C364 C365 1.377 . S
C365 H349 0.930 . S
C365 C364 1.377 . S
C365 C366 1.379 . S
C366 H350 0.931 . S
C366 C360 1.383 . S
C366 C365 1.379 . S
H367 C361 0.959 . S
H368 C361 0.961 . S
H369 C361 0.960 . S
H370 C362 0.930 . S
H371 C363 0.929 . S
H372 C380 0.929 . S
H373 C382 0.930 . S
H374 C384 0.927 . S
H375 C387 0.929 . S
H376 C390 0.930 . S
H377 C392 0.960 . S
H378 C392 0.960 . S
H379 C392 0.960 . S
C380 H372 0.929 . S
C380 C381 1.377 . S
C380 C382 1.384 . S
C381 C380 1.377 . S
C381 C387 1.390 . S
C382 H373 0.930 . S
C382 C380 1.384 . S
C382 C383 1.372 . S
C383 C382 1.372 . S
C383 C384 1.400 . S
C383 C388 1.490 . S
C384 H374 0.927 . S
C384 C383 1.400 . S
C384 C387 1.386 . S
H385 C401 0.930 . S
H386 C402 0.931 . S
C387 H375 0.929 . S
C387 C381 1.390 . S
C387 C384 1.386 . S
C388 C383 1.490 . S
C388 C390 1.395 . S
C388 C391 1.403 . S
H389 C395 0.930 . S
C390 H376 0.930 . S
C390 C388 1.395 . S
C390 C393 1.403 . S
C391 C388 1.403 . S
C391 C392 1.524 . S
C391 C395 1.400 . S
C392 H377 0.960 . S
C392 H378 0.960 . S
C392 H379 0.960 . S
C392 C391 1.524 . S
C393 C390 1.403 . S
C393 C394 1.392 . S
C393 C397 1.495 . S
C394 C393 1.392 . S
C394 C395 1.385 . S
C394 C396 1.478 . S
C395 H389 0.930 . S
C395 C391 1.400 . S
C395 C394 1.385 . S
C396 C394 1.478 . S
C396 C398 1.381 . S
C396 C402 1.383 1_455 S
C397 C393 1.495 . S
C397 H403 0.959 . S
C397 H404 0.961 1_455 S
C397 H405 0.960 . S
C398 C396 1.381 . S
C398 C399 1.394 . S
C398 H406 0.930 . S
C399 C398 1.394 . S
C399 C400 1.383 . S
C399 H407 0.929 . S
C400 C399 1.383 . S
C400 C401 1.377 1_455 S
C401 H385 0.930 . S
C401 C400 1.377 1_655 S
C401 C402 1.379 . S
C402 H386 0.931 . S
C402 C396 1.383 1_655 S
C402 C401 1.379 . S
H403 C397 0.959 . S
H404 C397 0.961 1_655 S
H405 C397 0.960 . S
H406 C398 0.930 . S
H407 C399 0.929 . S
H408 C416 0.929 . S
H409 C418 0.930 . S
H410 C420 0.930 . S
H411 C423 0.929 . S
H412 C426 0.930 . S
H413 C428 0.960 . S
H414 C428 0.960 . S
H415 C428 0.960 . S
C416 H408 0.929 . S
C416 C417 1.377 1_545 S
C416 C418 1.384 . S
C417 C416 1.377 1_565 S
C417 C423 1.390 . S
C418 H409 0.930 . S
C418 C416 1.384 . S
C418 C419 1.367 1_545 S
C419 C418 1.367 1_565 S
C419 C420 1.407 . S
C419 C424 1.484 1_565 S
C420 H410 0.930 . S
C420 C419 1.407 . S
C420 C423 1.386 . S
H421 C437 0.930 . S
H422 C438 0.934 . S
C423 H411 0.929 . S
C423 C417 1.390 . S
C423 C420 1.386 . S
C424 C419 1.484 1_545 S
C424 C426 1.430 . S
C424 C427 1.373 1_545 S
H425 C431 0.930 . S
C426 H412 0.930 . S
C426 C424 1.430 . S
C426 C429 1.403 1_554 S
C427 C424 1.373 1_565 S
C427 C428 1.524 . S
C427 C431 1.400 1_554 S
C428 H413 0.960 . S
C428 H414 0.960 . S
C428 H415 0.960 . S
C428 C427 1.524 . S
C429 C426 1.403 1_556 S
C429 C430 1.392 . S
C429 C433 1.495 . S
C430 C429 1.392 . S
C430 C431 1.385 1_545 S
C430 C432 1.478 . S
C431 H425 0.930 . S
C431 C427 1.400 1_556 S
C431 C430 1.385 1_565 S
C432 C430 1.478 . S
C432 C434 1.381 . S
C432 C438 1.380 1_545 S
C433 C429 1.495 . S
C433 H439 0.959 . S
C433 H440 0.961 . S
C433 H441 0.960 . S
C434 C432 1.381 . S
C434 C435 1.394 . S
C434 H442 0.930 . S
C435 C434 1.394 . S
C435 C436 1.383 . S
C435 H443 0.929 . S
C436 C435 1.383 . S
C436 C437 1.377 1_545 S
C437 H421 0.930 . S
C437 C436 1.377 1_565 S
C437 C438 1.379 . S
C438 H422 0.934 . S
C438 C432 1.380 1_565 S
C438 C437 1.379 . S
H439 C433 0.959 . S
H440 C433 0.961 . S
H441 C433 0.960 . S
H442 C434 0.930 . S
H443 C435 0.929 . S
H444 C452 0.929 . S
H445 C454 0.930 . S
H446 C456 0.930 . S
H447 C459 0.929 . S
H448 C462 0.930 . S
H449 C464 0.960 . S
H450 C464 0.960 . S
H451 C464 0.960 . S
C452 H444 0.929 . S
C452 C453 1.377 1_556 S
C452 C454 1.384 . S
C453 C452 1.377 1_554 S
C453 C459 1.390 . S
C454 H445 0.930 . S
C454 C452 1.384 . S
C454 C455 1.372 . S
C455 C454 1.372 . S
C455 C456 1.400 1_556 S
C455 C460 1.490 . S
C456 H446 0.930 . S
C456 C455 1.400 1_554 S
C456 C459 1.386 . S
H457 C473 0.930 . S
H458 C474 0.931 . S
C459 H447 0.929 . S
C459 C453 1.390 . S
C459 C456 1.386 . S
C460 C455 1.490 . S
C460 C462 1.395 . S
C460 C463 1.403 . S
H461 C467 0.930 . S
C462 H448 0.930 . S
C462 C460 1.395 . S
C462 C465 1.403 . S
C463 C460 1.403 . S
C463 C464 1.524 1_556 S
C463 C467 1.400 . S
C464 H449 0.960 . S
C464 H450 0.960 . S
C464 H451 0.960 . S
C464 C463 1.524 1_554 S
C465 C462 1.403 . S
C465 C466 1.392 . S
C465 C469 1.495 . S
C466 C465 1.392 . S
C466 C467 1.385 . S
C466 C468 1.478 . S
C467 H461 0.930 . S
C467 C463 1.400 . S
C467 C466 1.385 . S
C468 C466 1.478 . S
C468 C470 1.381 . S
C468 C474 1.383 . S
C469 C465 1.495 . S
C469 H475 0.959 . S
C469 H476 0.961 . S
C469 H477 0.960 . S
C470 C468 1.381 . S
C470 C471 1.394 . S
C470 H478 0.930 . S
C471 C470 1.394 . S
C471 C472 1.383 . S
C471 H479 0.929 . S
C472 C471 1.383 . S
C472 C473 1.377 . S
C473 H457 0.930 . S
C473 C472 1.377 . S
C473 C474 1.379 . S
C474 H458 0.931 . S
C474 C468 1.383 . S
C474 C473 1.379 . S
H475 C469 0.959 . S
H476 C469 0.961 . S
H477 C469 0.960 . S
H478 C470 0.930 . S
H479 C471 0.929 . S
H480 C488 0.929 . S
H481 C490 0.930 . S
H482 C492 0.930 . S
H483 C495 0.929 . S
H484 C498 0.930 . S
H485 C500 0.960 . S
H486 C500 0.960 . S
H487 C500 0.960 . S
C488 H480 0.929 . S
C488 C489 1.377 . S
C488 C490 1.384 . S
C489 C488 1.377 . S
C489 C495 1.390 . S
C490 H481 0.930 . S
C490 C488 1.384 . S
C490 C491 1.372 . S
C491 C490 1.372 . S
C491 C492 1.400 . S
C491 C496 1.490 . S
C492 H482 0.930 . S
C492 C491 1.400 . S
C492 C495 1.386 . S
H493 C509 0.930 . S
H494 C510 0.931 1_556 S
C495 H483 0.929 . S
C495 C489 1.390 . S
C495 C492 1.386 . S
C496 C491 1.490 . S
C496 C498 1.395 . S
C496 C499 1.403 . S
H497 C503 0.930 . S
C498 H484 0.930 . S
C498 C496 1.395 . S
C498 C501 1.403 . S
C499 C496 1.403 . S
C499 C500 1.524 . S
C499 C503 1.400 . S
C500 H485 0.960 . S
C500 H486 0.960 . S
C500 H487 0.960 . S
C500 C499 1.524 . S
C501 C498 1.403 . S
C501 C502 1.392 . S
C501 C505 1.495 . S
C502 C501 1.392 . S
C502 C503 1.385 . S
C502 C504 1.478 . S
C503 H497 0.930 . S
C503 C499 1.400 . S
C503 C502 1.385 . S
C504 C502 1.478 . S
C504 C506 1.381 . S
C504 C510 1.383 . S
C505 C501 1.495 . S
C505 H511 0.959 . S
C505 H512 0.961 . S
C505 H513 0.960 . S
C506 C504 1.381 . S
C506 C507 1.394 . S
C506 H514 0.930 . S
C507 C506 1.394 . S
C507 C508 1.383 1_554 S
C507 H515 0.929 . S
C508 C507 1.383 1_556 S
C508 C509 1.377 . S
C509 H493 0.930 . S
C509 C508 1.377 . S
C509 C510 1.379 1_556 S
C510 H494 0.931 1_554 S
C510 C504 1.383 . S
C510 C509 1.379 1_554 S
H511 C505 0.959 . S
H512 C505 0.961 . S
H513 C505 0.960 . S
H514 C506 0.930 . S
H515 C507 0.929 . S
H516 C524 0.929 . S
H517 C526 0.930 . S
H518 C528 0.930 . S
H519 C531 0.929 . S
H520 C534 0.930 . S
H521 C536 0.960 1_556 S
H522 C536 0.960 . S
H523 C536 0.960 . S
C524 H516 0.929 . S
C524 C525 1.377 1_455 S
C524 C526 1.384 . S
C525 C524 1.377 1_655 S
C525 C531 1.390 . S
C526 H517 0.930 . S
C526 C524 1.384 . S
C526 C527 1.372 1_455 S
C527 C526 1.372 1_655 S
C527 C528 1.400 . S
C527 C532 1.490 . S
C528 H518 0.930 . S
C528 C527 1.400 . S
C528 C531 1.386 . S
H529 C545 0.930 . S
H530 C546 0.931 . S
C531 H519 0.929 . S
C531 C525 1.390 . S
C531 C528 1.386 . S
C532 C527 1.490 . S
C532 C534 1.395 . S
C532 C535 1.403 1_655 S
H533 C539 0.930 . S
C534 H520 0.930 . S
C534 C532 1.395 . S
C534 C537 1.403 . S
C535 C532 1.403 1_455 S
C535 C536 1.524 . S
C535 C539 1.400 1_554 S
C536 H521 0.960 1_554 S
C536 H522 0.960 . S
C536 H523 0.960 . S
C536 C535 1.524 . S
C537 C534 1.403 . S
C537 C538 1.392 . S
C537 C541 1.495 . S
C538 C537 1.392 . S
C538 C539 1.385 1_654 S
C538 C540 1.478 1_554 S
C539 H533 0.930 . S
C539 C535 1.400 1_556 S
C539 C538 1.385 1_456 S
C540 C538 1.478 1_556 S
C540 C542 1.381 1_655 S
C540 C546 1.383 . S
C541 C537 1.495 . S
C541 H547 0.959 . S
C541 H548 0.961 . S
C541 H549 0.960 . S
C542 C540 1.381 1_455 S
C542 C543 1.394 . S
C542 H550 0.930 . S
C543 C542 1.394 . S
C543 C544 1.383 . S
C543 H551 0.929 . S
C544 C543 1.383 . S
C544 C545 1.377 1_455 S
C545 H529 0.930 . S
C545 C544 1.377 1_655 S
C545 C546 1.379 . S
C546 H530 0.931 . S
C546 C540 1.383 . S
C546 C545 1.379 . S
H547 C541 0.959 . S
H548 C541 0.961 . S
H549 C541 0.960 . S
H550 C542 0.930 . S
H551 C543 0.929 . S
H552 C560 0.929 . S
H553 C562 0.930 . S
H554 C564 0.930 1_655 S
H555 C567 0.929 1_655 S
H556 C570 0.930 . S
H557 C572 0.960 . S
H558 C572 0.924 1_455 S
H559 C572 0.960 . S
C560 H552 0.929 . S
C560 C561 1.377 . S
C560 C562 1.384 . S
C561 C560 1.377 . S
C561 C567 1.390 . S
C562 H553 0.930 . S
C562 C560 1.384 . S
C562 C563 1.372 . S
C563 C562 1.372 . S
C563 C564 1.400 . S
C563 C568 1.490 . S
C564 H554 0.930 1_455 S
C564 C563 1.400 . S
C564 C567 1.386 . S
H565 C581 0.930 . S
H566 C582 0.931 . S
C567 H555 0.929 1_455 S
C567 C561 1.390 . S
C567 C564 1.386 . S
C568 C563 1.490 . S
C568 C570 1.395 . S
C568 C571 1.403 . S
H569 C575 0.978 . S
C570 H556 0.930 . S
C570 C568 1.395 . S
C570 C573 1.403 . S
C571 C568 1.403 . S
C571 C572 1.524 1_455 S
C571 C575 1.396 1_455 S
C572 H557 0.960 . S
C572 H558 0.924 1_655 S
C572 H559 0.960 . S
C572 C571 1.524 1_655 S
C573 C570 1.403 . S
C573 C574 1.392 . S
C573 C577 1.495 . S
C574 C573 1.392 . S
C574 C575 1.348 1_455 S
C574 C576 1.478 . S
C575 H569 0.978 . S
C575 C571 1.396 1_655 S
C575 C574 1.348 1_655 S
C576 C574 1.478 . S
C576 C578 1.381 . S
C576 C582 1.383 1_455 S
C577 C573 1.495 . S
C577 H583 0.959 . S
C577 H584 0.961 . S
C577 H585 0.960 . S
C578 C576 1.381 . S
C578 C579 1.394 . S
C578 H586 0.930 . S
C579 C578 1.394 . S
C579 C580 1.383 1_455 S
C579 H587 0.929 . S
C580 C579 1.383 1_655 S
C580 C581 1.377 . S
C581 H565 0.930 . S
C581 C580 1.377 . S
C581 C582 1.379 . S
C582 H566 0.931 . S
C582 C576 1.383 1_655 S
C582 C581 1.379 . S
H583 C577 0.959 . S
H584 C577 0.961 . S
H585 C577 0.960 . S
H586 C578 0.930 . S
H587 C579 0.929 . S
H588 C596 0.929 . S
H589 C598 0.930 . S
H590 C600 0.928 1_565 S
H591 C603 0.929 . S
H592 C606 0.930 . S
H593 C608 0.960 . S
H594 C608 0.960 . S
H595 C608 0.960 . S
C596 H588 0.929 . S
C596 C597 1.377 . S
C596 C598 1.384 . S
C597 C596 1.377 . S
C597 C603 1.390 . S
C598 H589 0.930 . S
C598 C596 1.384 . S
C598 C599 1.372 . S
C599 C598 1.372 . S
C599 C600 1.400 . S
C599 C604 1.486 1_545 S
C600 H590 0.928 1_545 S
C600 C599 1.400 . S
C600 C603 1.386 . S
H601 C617 0.930 . S
H602 C618 0.931 . S
C603 H591 0.929 . S
C603 C597 1.390 . S
C603 C600 1.386 . S
C604 C599 1.486 1_565 S
C604 C606 1.435 . S
C604 C607 1.369 1_565 S
H605 C611 0.930 . S
C606 H592 0.930 . S
C606 C604 1.435 . S
C606 C609 1.403 . S
C607 C604 1.369 1_545 S
C607 C608 1.524 . S
C607 C611 1.400 . S
C608 H593 0.960 . S
C608 H594 0.960 . S
C608 H595 0.960 . S
C608 C607 1.524 . S
C609 C606 1.403 . S
C609 C610 1.392 . S
C609 C613 1.495 . S
C610 C609 1.392 . S
C610 C611 1.385 1_565 S
C610 C612 1.478 . S
C611 H605 0.930 . S
C611 C607 1.400 . S
C611 C610 1.385 1_545 S
C612 C610 1.478 . S
C612 C614 1.381 . S
C612 C618 1.383 . S
C613 C609 1.495 . S
C613 H619 0.959 . S
C613 H620 0.961 . S
C613 H621 0.960 . S
C614 C612 1.381 . S
C614 C615 1.394 . S
C614 H622 0.930 . S
C615 C614 1.394 . S
C615 C616 1.383 . S
C615 H623 0.929 . S
C616 C615 1.383 . S
C616 C617 1.377 . S
C617 H601 0.930 . S
C617 C616 1.377 . S
C617 C618 1.379 . S
C618 H602 0.931 . S
C618 C612 1.383 . S
C618 C617 1.379 . S
H619 C613 0.959 . S
H620 C613 0.961 . S
H621 C613 0.960 . S
H622 C614 0.930 . S
H623 C615 0.929 . S
H624 C632 0.929 . S
H625 C634 0.930 . S
H626 C636 0.930 . S
H627 C639 0.929 . S
H628 C642 0.930 . S
H629 C644 0.960 . S
H630 C644 0.960 . S
H631 C644 0.960 . S
C632 H624 0.929 . S
C632 C633 1.377 . S
C632 C634 1.384 . S
C633 C632 1.377 . S
C633 C639 1.390 . S
C634 H625 0.930 . S
C634 C632 1.384 . S
C634 C635 1.372 . S
C635 C634 1.372 . S
C635 C636 1.400 . S
C635 C640 1.490 . S
C636 H626 0.930 . S
C636 C635 1.400 . S
C636 C639 1.386 . S
H637 C653 0.930 . S
H638 C654 0.931 . S
C639 H627 0.929 . S
C639 C633 1.390 . S
C639 C636 1.386 . S
C640 C635 1.490 . S
C640 C642 1.395 . S
C640 C643 1.403 . S
H641 C647 0.930 . S
C642 H628 0.930 . S
C642 C640 1.395 . S
C642 C645 1.403 . S
C643 C640 1.403 . S
C643 C644 1.524 . S
C643 C647 1.400 . S
C644 H629 0.960 . S
C644 H630 0.960 . S
C644 H631 0.960 . S
C644 C643 1.524 . S
C645 C642 1.403 . S
C645 C646 1.392 . S
C645 C649 1.495 . S
C646 C645 1.392 . S
C646 C647 1.385 . S
C646 C648 1.478 . S
C647 H641 0.930 . S
C647 C643 1.400 . S
C647 C646 1.385 . S
C648 C646 1.478 . S
C648 C650 1.381 . S
C648 C654 1.383 . S
C649 C645 1.495 . S
C649 H655 0.959 . S
C649 H656 0.961 . S
C649 H657 0.960 . S
C650 C648 1.381 . S
C650 C651 1.394 . S
C650 H658 0.930 . S
C651 C650 1.394 . S
C651 C652 1.383 . S
C651 H659 0.929 . S
C652 C651 1.383 . S
C652 C653 1.377 . S
C653 H637 0.930 . S
C653 C652 1.377 . S
C653 C654 1.379 . S
C654 H638 0.931 . S
C654 C648 1.383 . S
C654 C653 1.379 . S
H655 C649 0.959 . S
H656 C649 0.961 . S
H657 C649 0.960 . S
H658 C650 0.930 . S
H659 C651 0.929 . S
H660 C668 0.929 . S
H661 C670 0.930 . S
H662 C672 0.930 . S
H663 C675 0.929 1_556 S
H664 C678 0.930 . S
H665 C680 0.960 . S
H666 C680 0.960 . S
H667 C680 0.960 . S
C668 H660 0.929 . S
C668 C669 1.377 . S
C668 C670 1.384 . S
C669 C668 1.377 . S
C669 C675 1.390 . S
C670 H661 0.930 . S
C670 C668 1.384 . S
C670 C671 1.372 . S
C671 C670 1.372 . S
C671 C672 1.400 . S
C671 C676 1.490 . S
C672 H662 0.930 . S
C672 C671 1.400 . S
C672 C675 1.386 . S
H673 C689 0.930 . S
H674 C690 0.931 . S
C675 H663 0.929 1_554 S
C675 C669 1.390 . S
C675 C672 1.386 . S
C676 C671 1.490 . S
C676 C678 1.395 . S
C676 C679 1.403 . S
H677 C683 0.930 . S
C678 H664 0.930 . S
C678 C676 1.395 . S
C678 C681 1.403 . S
C679 C676 1.403 . S
C679 C680 1.524 . S
C679 C683 1.400 . S
C680 H665 0.960 . S
C680 H666 0.960 . S
C680 H667 0.960 . S
C680 C679 1.524 . S
C681 C678 1.403 . S
C681 C682 1.392 . S
C681 C685 1.495 . S
C682 C681 1.392 . S
C682 C683 1.385 . S
C682 C684 1.478 . S
C683 H677 0.930 . S
C683 C679 1.400 . S
C683 C682 1.385 . S
C684 C682 1.478 . S
C684 C686 1.381 . S
C684 C690 1.383 . S
C685 C681 1.495 . S
C685 H691 0.959 . S
C685 H692 0.961 . S
C685 H693 0.960 . S
C686 C684 1.381 . S
C686 C687 1.394 . S
C686 H694 0.930 . S
C687 C686 1.394 . S
C687 C688 1.383 . S
C687 H695 0.929 . S
C688 C687 1.383 . S
C688 C689 1.377 . S
C689 H673 0.930 . S
C689 C688 1.377 . S
C689 C690 1.379 . S
C690 H674 0.931 . S
C690 C684 1.383 . S
C690 C689 1.379 . S
H691 C685 0.959 . S
H692 C685 0.961 . S
H693 C685 0.960 . S
H694 C686 0.930 . S
H695 C687 0.929 . S
H696 C704 0.929 . S
H697 C706 0.930 . S
H698 C708 0.930 . S
H699 C711 0.929 . S
H700 C714 0.930 . S
H701 C716 0.960 . S
H702 C716 0.960 . S
H703 C716 0.960 . S
C704 H696 0.929 . S
C704 C705 1.377 . S
C704 C706 1.384 . S
C705 C704 1.377 . S
C705 C711 1.390 1_655 S
C706 H697 0.930 . S
C706 C704 1.384 . S
C706 C707 1.372 . S
C707 C706 1.372 . S
C707 C708 1.400 1_655 S
C707 C712 1.493 . S
C708 H698 0.930 . S
C708 C707 1.400 1_455 S
C708 C711 1.386 . S
H709 C725 0.930 . S
H710 C726 0.931 . S
C711 H699 0.929 . S
C711 C705 1.390 1_455 S
C711 C708 1.386 . S
C712 C707 1.493 . S
C712 C714 1.412 . S
C712 C715 1.384 1_655 S
H713 C719 0.930 . S
C714 H700 0.930 . S
C714 C712 1.412 . S
C714 C717 1.403 . S
C715 C712 1.384 1_455 S
C715 C716 1.524 . S
C715 C719 1.400 . S
C716 H701 0.960 . S
C716 H702 0.960 . S
C716 H703 0.960 . S
C716 C715 1.524 . S
C717 C714 1.403 . S
C717 C718 1.392 1_655 S
C717 C721 1.495 . S
C718 C717 1.392 1_455 S
C718 C719 1.385 . S
C718 C720 1.478 . S
C719 H713 0.930 . S
C719 C715 1.400 . S
C719 C718 1.385 . S
C720 C718 1.478 . S
C720 C722 1.389 1_554 S
C720 C726 1.383 . S
C721 C717 1.495 . S
C721 H727 0.959 . S
C721 H728 0.961 . S
C721 H729 0.960 . S
C722 C720 1.389 1_556 S
C722 C723 1.398 . S
C722 H730 0.919 1_455 S
C723 C722 1.398 . S
C723 C724 1.383 . S
C723 H731 0.933 . S
C724 C723 1.383 . S
C724 C725 1.377 1_556 S
C725 H709 0.930 . S
C725 C724 1.377 1_554 S
C725 C726 1.379 . S
C726 H710 0.931 . S
C726 C720 1.383 . S
C726 C725 1.379 . S
H727 C721 0.959 . S
H728 C721 0.961 . S
H729 C721 0.960 . S
H730 C722 0.919 1_655 S
H731 C723 0.933 . S
H732 C740 0.929 . S
H733 C742 0.930 . S
H734 C744 0.930 . S
H735 C747 0.929 . S
H736 C750 0.944 . S
H737 C752 0.960 . S
H738 C752 0.960 . S
H739 C752 0.960 . S
C740 H732 0.929 . S
C740 C741 1.377 1_545 S
C740 C742 1.384 . S
C741 C740 1.377 1_565 S
C741 C747 1.390 . S
C742 H733 0.930 . S
C742 C740 1.384 . S
C742 C743 1.372 . S
C743 C742 1.372 . S
C743 C744 1.400 1_545 S
C743 C748 1.490 . S
C744 H734 0.930 . S
C744 C743 1.400 1_565 S
C744 C747 1.386 . S
H745 C761 0.930 1_565 S
H746 C762 0.931 1_565 S
C747 H735 0.929 . S
C747 C741 1.390 . S
C747 C744 1.386 . S
C748 C743 1.490 . S
C748 C750 1.383 1_545 S
C748 C751 1.403 . S
H749 C755 0.930 . S
C750 H736 0.944 . S
C750 C748 1.383 1_565 S
C750 C753 1.404 1_565 S
C751 C748 1.403 . S
C751 C752 1.524 . S
C751 C755 1.400 . S
C752 H737 0.960 . S
C752 H738 0.960 . S
C752 H739 0.960 . S
C752 C751 1.524 . S
C753 C750 1.404 1_545 S
C753 C754 1.409 . S
C753 C757 1.481 1_544 S
C754 C753 1.409 . S
C754 C755 1.385 . S
C754 C756 1.478 . S
C755 H749 0.930 . S
C755 C751 1.400 . S
C755 C754 1.385 . S
C756 C754 1.478 . S
C756 C758 1.381 1_554 S
C756 C762 1.383 . S
C757 C753 1.481 1_566 S
C757 H763 0.959 . S
C757 H764 0.961 . S
C757 H765 0.960 1_565 S
C758 C756 1.381 1_556 S
C758 C759 1.394 . S
C758 H766 0.930 . S
C759 C758 1.394 . S
C759 C760 1.383 . S
C759 H767 0.929 . S
C760 C759 1.383 . S
C760 C761 1.377 1_556 S
C761 H745 0.930 1_545 S
C761 C760 1.377 1_554 S
C761 C762 1.379 . S
C762 H746 0.931 1_545 S
C762 C756 1.383 . S
C762 C761 1.379 . S
H763 C757 0.959 . S
H764 C757 0.961 . S
H765 C757 0.960 1_545 S
H766 C758 0.930 . S
H767 C759 0.929 . S
H768 C776 0.929 . S
H769 C778 0.930 . S
H770 C780 0.930 . S
H771 C783 0.932 . S
H772 C786 0.930 . S
H773 C788 0.960 . S
H774 C788 0.960 . S
H775 C788 0.960 . S
C776 H768 0.929 . S
C776 C777 1.377 . S
C776 C778 1.384 . S
C777 C776 1.377 . S
C777 C783 1.390 . S
C778 H769 0.930 . S
C778 C776 1.384 . S
C778 C779 1.372 1_554 S
C779 C778 1.372 1_556 S
C779 C780 1.400 . S
C779 C784 1.490 . S
C780 H770 0.930 . S
C780 C779 1.400 . S
C780 C783 1.386 1_556 S
H781 C797 0.930 . S
H782 C798 0.931 . S
C783 H771 0.932 . S
C783 C777 1.390 . S
C783 C780 1.386 1_554 S
C784 C779 1.490 . S
C784 C786 1.395 1_556 S
C784 C787 1.403 . S
H785 C791 0.930 . S
C786 H772 0.930 . S
C786 C784 1.395 1_554 S
C786 C789 1.403 1_554 S
C787 C784 1.403 . S
C787 C788 1.524 . S
C787 C791 1.400 . S
C788 H773 0.960 . S
C788 H774 0.960 . S
C788 H775 0.960 . S
C788 C787 1.524 . S
C789 C786 1.403 1_556 S
C789 C790 1.392 . S
C789 C793 1.495 1_556 S
C790 C789 1.392 . S
C790 C791 1.385 . S
C790 C792 1.478 . S
C791 H785 0.930 . S
C791 C787 1.400 . S
C791 C790 1.385 . S
C792 C790 1.478 . S
C792 C794 1.381 . S
C792 C798 1.383 . S
C793 C789 1.495 1_554 S
C793 H799 0.959 . S
C793 H800 0.961 . S
C793 H801 0.960 . S
C794 C792 1.381 . S
C794 C795 1.394 . S
C794 H802 0.930 . S
C795 C794 1.394 . S
C795 C796 1.383 . S
C795 H803 0.929 . S
C796 C795 1.383 . S
C796 C797 1.377 . S
C797 H781 0.930 . S
C797 C796 1.377 . S
C797 C798 1.379 . S
C798 H782 0.931 . S
C798 C792 1.383 . S
C798 C797 1.379 . S
H799 C793 0.959 . S
H800 C793 0.961 . S
H801 C793 0.960 . S
H802 C794 0.930 . S
H803 C795 0.929 . S
H804 C812 0.929 . S
H805 C814 0.930 . S
H806 C816 0.930 . S
H807 C819 0.929 . S
H808 C822 0.930 . S
H809 C824 0.960 . S
H810 C824 0.960 . S
H811 C824 0.960 . S
C812 H804 0.929 . S
C812 C813 1.377 . S
C812 C814 1.384 . S
C813 C812 1.377 . S
C813 C819 1.390 . S
C814 H805 0.930 . S
C814 C812 1.384 . S
C814 C815 1.372 . S
C815 C814 1.372 . S
C815 C816 1.400 . S
C815 C820 1.490 . S
C816 H806 0.930 . S
C816 C815 1.400 . S
C816 C819 1.386 . S
H817 C833 0.930 . S
H818 C834 0.931 . S
C819 H807 0.929 . S
C819 C813 1.390 . S
C819 C816 1.386 . S
C820 C815 1.490 . S
C820 C822 1.395 . S
C820 C823 1.403 . S
H821 C827 0.930 . S
C822 H808 0.930 . S
C822 C820 1.395 . S
C822 C825 1.403 . S
C823 C820 1.403 . S
C823 C824 1.524 . S
C823 C827 1.400 . S
C824 H809 0.960 . S
C824 H810 0.960 . S
C824 H811 0.960 . S
C824 C823 1.524 . S
C825 C822 1.403 . S
C825 C826 1.392 . S
C825 C829 1.495 . S
C826 C825 1.392 . S
C826 C827 1.385 . S
C826 C828 1.478 . S
C827 H821 0.930 . S
C827 C823 1.400 . S
C827 C826 1.385 . S
C828 C826 1.478 . S
C828 C830 1.381 . S
C828 C834 1.383 . S
C829 C825 1.495 . S
C829 H835 0.959 . S
C829 H836 0.961 . S
C829 H837 0.960 . S
C830 C828 1.381 . S
C830 C831 1.394 . S
C830 H838 0.930 . S
C831 C830 1.394 . S
C831 C832 1.383 . S
C831 H839 0.929 1_554 S
C832 C831 1.383 . S
C832 C833 1.377 . S
C833 H817 0.930 . S
C833 C832 1.377 . S
C833 C834 1.379 . S
C834 H818 0.931 . S
C834 C828 1.383 . S
C834 C833 1.379 . S
H835 C829 0.959 . S
H836 C829 0.961 . S
H837 C829 0.960 . S
H838 C830 0.930 . S
H839 C831 0.929 1_556 S
H840 C848 0.929 1_655 S
H841 C850 0.930 1_655 S
H842 C852 0.930 . S
H843 C855 0.929 . S
H844 C858 0.930 1_655 S
H845 C860 0.960 . S
H846 C860 0.960 1_554 S
H847 C860 0.960 . S
C848 H840 0.929 1_455 S
C848 C849 1.377 1_554 S
C848 C850 1.384 1_554 S
C849 C848 1.377 1_556 S
C849 C855 1.390 . S
C850 H841 0.930 1_455 S
C850 C848 1.384 1_556 S
C850 C851 1.372 . S
C851 C850 1.372 . S
C851 C852 1.400 . S
C851 C856 1.490 . S
C852 H842 0.930 . S
C852 C851 1.400 . S
C852 C855 1.386 . S
H853 C869 0.930 . S
H854 C870 0.931 . S
C855 H843 0.929 . S
C855 C849 1.390 . S
C855 C852 1.386 . S
C856 C851 1.490 . S
C856 C858 1.395 . S
C856 C859 1.403 . S
H857 C863 0.930 . S
C858 H844 0.930 1_455 S
C858 C856 1.395 . S
C858 C861 1.414 . S
C859 C856 1.403 . S
C859 C860 1.524 . S
C859 C863 1.400 . S
C860 H845 0.960 . S
C860 H846 0.960 1_556 S
C860 H847 0.960 . S
C860 C859 1.524 . S
C861 C858 1.414 . S
C861 C862 1.422 . S
C861 C865 1.457 1_455 S
C862 C861 1.422 . S
C862 C863 1.385 . S
C862 C864 1.478 . S
C863 H857 0.930 . S
C863 C859 1.400 . S
C863 C862 1.385 . S
C864 C862 1.478 . S
C864 C866 1.342 1_455 S
C864 C870 1.383 . S
C865 C861 1.457 1_655 S
C865 H871 0.959 . S
C865 H872 0.961 . S
C865 H873 0.960 . S
C866 C864 1.342 1_655 S
C866 C867 1.397 . S
C866 H874 0.967 . S
C867 C866 1.397 . S
C867 C868 1.365 1_655 S
C867 H875 0.951 . S
C868 C867 1.365 1_455 S
C868 C869 1.377 . S
C869 H853 0.930 . S
C869 C868 1.377 . S
C869 C870 1.379 . S
C870 H854 0.931 . S
C870 C864 1.383 . S
C870 C869 1.379 . S
H871 C865 0.959 . S
H872 C865 0.961 . S
H873 C865 0.960 . S
H874 C866 0.967 . S
H875 C867 0.951 . S
H876 C884 0.929 . S
H877 C886 0.930 1_556 S
H878 C888 0.930 . S
H879 C891 0.929 . S
H880 C894 0.930 1_565 S
H881 C896 0.960 . S
H882 C896 0.960 . S
H883 C896 0.960 . S
C884 H876 0.929 . S
C884 C885 1.377 1_565 S
C884 C886 1.384 . S
C885 C884 1.377 1_545 S
C885 C891 1.390 . S
C886 H877 0.930 1_554 S
C886 C884 1.384 . S
C886 C887 1.372 1_565 S
C887 C886 1.372 1_545 S
C887 C888 1.400 . S
C887 C892 1.490 1_554 S
C888 H878 0.930 . S
C888 C887 1.400 . S
C888 C891 1.386 . S
H889 C905 0.930 . S
H890 C906 0.931 . S
C891 H879 0.929 . S
C891 C885 1.390 . S
C891 C888 1.386 . S
C892 C887 1.490 1_556 S
C892 C894 1.395 . S
C892 C895 1.403 1_556 S
H893 C899 0.930 . S
C894 H880 0.930 1_545 S
C894 C892 1.395 . S
C894 C897 1.403 . S
C895 C892 1.403 1_554 S
C895 C896 1.524 . S
C895 C899 1.400 1_554 S
C896 H881 0.960 . S
C896 H882 0.960 . S
C896 H883 0.960 . S
C896 C895 1.524 . S
C897 C894 1.403 . S
C897 C898 1.392 . S
C897 C901 1.495 1_545 S
C898 C897 1.392 . S
C898 C899 1.385 . S
C898 C900 1.478 . S
C899 H893 0.930 . S
C899 C895 1.400 1_556 S
C899 C898 1.385 . S
C900 C898 1.478 . S
C900 C902 1.381 1_545 S
C900 C906 1.383 . S
C901 C897 1.495 1_565 S
C901 H907 0.959 . S
C901 H908 0.961 1_565 S
C901 H909 0.960 . S
C902 C900 1.381 1_565 S
C902 C903 1.394 . S
C902 H910 0.930 . S
C903 C902 1.394 . S
C903 C904 1.383 1_565 S
C903 H911 0.929 . S
C904 C903 1.383 1_545 S
C904 C905 1.377 . S
C905 H889 0.930 . S
C905 C904 1.377 . S
C905 C906 1.379 . S
C906 H890 0.931 . S
C906 C900 1.383 . S
C906 C905 1.379 . S
H907 C901 0.959 . S
H908 C901 0.961 1_545 S
H909 C901 0.960 . S
H910 C902 0.930 . S
H911 C903 0.929 . S
H912 C920 0.929 . S
H913 C922 0.930 . S
H914 C924 0.930 . S
H915 C927 0.929 . S
H916 C930 0.930 . S
H917 C932 0.960 . S
H918 C932 0.960 . S
H919 C932 0.960 . S
C920 H912 0.929 . S
C920 C921 1.377 . S
C920 C922 1.384 . S
C921 C920 1.377 . S
C921 C927 1.390 . S
C922 H913 0.930 . S
C922 C920 1.384 . S
C922 C923 1.372 . S
C923 C922 1.372 . S
C923 C924 1.400 . S
C923 C928 1.490 . S
C924 H914 0.930 . S
C924 C923 1.400 . S
C924 C927 1.386 . S
H925 C941 0.930 . S
H926 C942 0.931 . S
C927 H915 0.929 . S
C927 C921 1.390 . S
C927 C924 1.386 . S
C928 C923 1.490 . S
C928 C930 1.395 . S
C928 C931 1.403 . S
H929 C935 0.930 1_556 S
C930 H916 0.930 . S
C930 C928 1.395 . S
C930 C933 1.403 . S
C931 C928 1.403 . S
C931 C932 1.524 . S
C931 C935 1.400 . S
C932 H917 0.960 . S
C932 H918 0.960 . S
C932 H919 0.960 . S
C932 C931 1.524 . S
C933 C930 1.403 . S
C933 C934 1.392 . S
C933 C937 1.495 . S
C934 C933 1.392 . S
C934 C935 1.385 . S
C934 C936 1.478 1_554 S
C935 H929 0.930 1_554 S
C935 C931 1.400 . S
C935 C934 1.385 . S
C936 C934 1.478 1_556 S
C936 C938 1.381 . S
C936 C942 1.383 . S
C937 C933 1.495 . S
C937 H943 0.959 . S
C937 H944 0.961 1_554 S
C937 H945 0.960 . S
C938 C936 1.381 . S
C938 C939 1.394 . S
C938 H946 0.930 1_556 S
C939 C938 1.394 . S
C939 C940 1.383 . S
C939 H947 0.929 . S
C940 C939 1.383 . S
C940 C941 1.377 . S
C941 H925 0.930 . S
C941 C940 1.377 . S
C941 C942 1.379 . S
C942 H926 0.931 . S
C942 C936 1.383 . S
C942 C941 1.379 . S
H943 C937 0.959 . S
H944 C937 0.961 1_556 S
H945 C937 0.960 . S
H946 C938 0.930 1_554 S
H947 C939 0.929 . S
H948 C956 0.929 . S
H949 C958 0.930 . S
H950 C960 0.930 . S
H951 C963 0.929 . S
H952 C966 0.930 . S
H953 C968 0.960 . S
H954 C968 0.960 . S
H955 C968 0.960 . S
C956 H948 0.929 . S
C956 C957 1.377 . S
C956 C958 1.384 . S
C957 C956 1.377 . S
C957 C963 1.390 . S
C958 H949 0.930 . S
C958 C956 1.384 . S
C958 C959 1.372 . S
C959 C958 1.372 . S
C959 C960 1.400 . S
C959 C964 1.490 . S
C960 H950 0.930 . S
C960 C959 1.400 . S
C960 C963 1.386 . S
H961 C977 0.930 . S
H962 C978 0.931 . S
C963 H951 0.929 . S
C963 C957 1.390 . S
C963 C960 1.386 . S
C964 C959 1.490 . S
C964 C966 1.395 . S
C964 C967 1.403 . S
H965 C971 0.930 . S
C966 H952 0.930 . S
C966 C964 1.395 . S
C966 C969 1.403 . S
C967 C964 1.403 . S
C967 C968 1.524 . S
C967 C971 1.400 . S
C968 H953 0.960 . S
C968 H954 0.960 . S
C968 H955 0.960 . S
C968 C967 1.524 . S
C969 C966 1.403 . S
C969 C970 1.392 . S
C969 C973 1.495 . S
C970 C969 1.392 . S
C970 C971 1.385 . S
C970 C972 1.478 . S
C971 H965 0.930 . S
C971 C967 1.400 . S
C971 C970 1.385 . S
C972 C970 1.478 . S
C972 C974 1.381 . S
C972 C978 1.383 . S
C973 C969 1.495 . S
C973 H979 0.959 . S
C973 H980 0.961 . S
C973 H981 0.960 . S
C974 C972 1.381 . S
C974 C975 1.394 . S
C974 H982 0.930 . S
C975 C974 1.394 . S
C975 C976 1.383 . S
C975 H983 0.929 . S
C976 C975 1.383 . S
C976 C977 1.377 . S
C977 H961 0.930 . S
C977 C976 1.377 . S
C977 C978 1.379 . S
C978 H962 0.931 . S
C978 C972 1.383 . S
C978 C977 1.379 . S
H979 C973 0.959 . S
H980 C973 0.961 . S
H981 C973 0.960 . S
H982 C974 0.930 . S
H983 C975 0.929 . S
H984 C992 0.929 . S
H985 C994 0.930 . S
H986 C996 0.930 . S
H987 C999 0.929 . S
H988 C1002 0.930 . S
H989 C1004 0.960 . S
H990 C1004 0.960 1_455 S
H991 C1004 0.960 . S
C992 H984 0.929 . S
C992 C993 1.377 1_455 S
C992 C994 1.384 . S
C993 C992 1.377 1_655 S
C993 C999 1.390 . S
C994 H985 0.930 . S
C994 C992 1.384 . S
C994 C995 1.372 1_455 S
C995 C994 1.372 1_655 S
C995 C996 1.400 . S
C995 C1000 1.490 . S
C996 H986 0.930 . S
C996 C995 1.400 . S
C996 C999 1.386 . S
H997 C1013 0.930 . S
H998 C1014 0.931 . S
C999 H987 0.929 . S
C999 C993 1.390 . S
C999 C996 1.386 . S
C1000 C995 1.490 . S
C1000 C1002 1.395 . S
C1000 C1003 1.403 . S
H1001 C1007 0.930 . S
C1002 H988 0.930 . S
C1002 C1000 1.395 . S
C1002 C1005 1.403 . S
C1003 C1000 1.403 . S
C1003 C1004 1.524 . S
C1003 C1007 1.400 . S
C1004 H989 0.960 . S
C1004 H990 0.960 1_655 S
C1004 H991 0.960 . S
C1004 C1003 1.524 . S
C1005 C1002 1.403 . S
C1005 C1006 1.392 . S
C1005 C1009 1.495 . S
C1006 C1005 1.392 . S
C1006 C1007 1.385 . S
C1006 C1008 1.478 . S
C1007 H1001 0.930 . S
C1007 C1003 1.400 . S
C1007 C1006 1.385 . S
C1008 C1006 1.478 . S
C1008 C1010 1.381 1_655 S
C1008 C1014 1.383 . S
C1009 C1005 1.495 . S
C1009 H1015 0.956 . S
C1009 H1016 0.961 . S
C1009 H1017 0.960 1_655 S
C1010 C1008 1.381 1_455 S
C1010 C1011 1.394 . S
C1010 H1018 0.930 . S
C1011 C1010 1.394 . S
C1011 C1012 1.383 1_455 S
C1011 H1019 0.929 . S
C1012 C1011 1.383 1_655 S
C1012 C1013 1.377 . S
C1013 H997 0.930 . S
C1013 C1012 1.377 . S
C1013 C1014 1.379 . S
C1014 H998 0.931 . S
C1014 C1008 1.383 . S
C1014 C1013 1.379 . S
H1015 C1009 0.956 . S
H1016 C1009 0.961 . S
H1017 C1009 0.960 1_455 S
H1018 C1010 0.930 . S
H1019 C1011 0.929 . S
H1020 C1028 0.929 . S
H1021 C1030 0.930 . S
H1022 C1032 0.930 . S
H1023 C1035 0.929 . S
H1024 C1038 0.930 . S
H1025 C1040 0.960 . S
H1026 C1040 0.960 . S
H1027 C1040 0.960 . S
C1028 H1020 0.929 . S
C1028 C1029 1.377 1_545 S
C1028 C1030 1.384 . S
C1029 C1028 1.377 1_565 S
C1029 C1035 1.390 . S
C1030 H1021 0.930 . S
C1030 C1028 1.384 . S
C1030 C1031 1.372 1_545 S
C1031 C1030 1.372 1_565 S
C1031 C1032 1.400 . S
C1031 C1036 1.490 . S
C1032 H1022 0.930 . S
C1032 C1031 1.400 . S
C1032 C1035 1.386 . S
H1033 C1049 0.930 . S
H1034 C1050 0.931 . S
C1035 H1023 0.929 . S
C1035 C1029 1.390 . S
C1035 C1032 1.386 . S
C1036 C1031 1.490 . S
C1036 C1038 1.395 1_565 S
C1036 C1039 1.403 . S
H1037 C1043 0.930 . S
C1038 H1024 0.930 . S
C1038 C1036 1.395 1_545 S
C1038 C1041 1.403 . S
C1039 C1036 1.403 . S
C1039 C1040 1.524 . S
C1039 C1043 1.400 . S
C1040 H1025 0.960 . S
C1040 H1026 0.960 . S
C1040 H1027 0.960 . S
C1040 C1039 1.524 . S
C1041 C1038 1.403 . S
C1041 C1042 1.392 1_545 S
C1041 C1045 1.495 . S
C1042 C1041 1.392 1_565 S
C1042 C1043 1.385 . S
C1042 C1044 1.478 . S
C1043 H1037 0.930 . S
C1043 C1039 1.400 . S
C1043 C1042 1.385 . S
C1044 C1042 1.478 . S
C1044 C1046 1.381 1_565 S
C1044 C1050 1.383 . S
C1045 C1041 1.495 . S
C1045 H1051 0.959 . S
C1045 H1052 0.961 . S
C1045 H1053 0.960 . S
C1046 C1044 1.381 1_545 S
C1046 C1047 1.394 . S
C1046 H1054 0.930 . S
C1047 C1046 1.394 . S
C1047 C1048 1.383 1_545 S
C1047 H1055 0.929 . S
C1048 C1047 1.383 1_565 S
C1048 C1049 1.377 . S
C1049 H1033 0.930 . S
C1049 C1048 1.377 . S
C1049 C1050 1.379 . S
C1050 H1034 0.931 . S
C1050 C1044 1.383 . S
C1050 C1049 1.379 . S
H1051 C1045 0.959 . S
H1052 C1045 0.961 . S
H1053 C1045 0.960 . S
H1054 C1046 0.930 . S
H1055 C1047 0.929 . S
H1056 C1064 0.929 . S
H1057 C1066 0.930 . S
H1058 C1068 0.930 . S
H1059 C1071 0.929 . S
H1060 C1074 0.930 . S
H1061 C1076 0.960 . S
H1062 C1076 0.960 . S
H1063 C1076 0.960 . S
C1064 H1056 0.929 . S
C1064 C1065 1.377 . S
C1064 C1066 1.384 . S
C1065 C1064 1.377 . S
C1065 C1071 1.390 . S
C1066 H1057 0.930 . S
C1066 C1064 1.384 . S
C1066 C1067 1.372 . S
C1067 C1066 1.372 . S
C1067 C1068 1.400 . S
C1067 C1072 1.490 . S
C1068 H1058 0.930 . S
C1068 C1067 1.400 . S
C1068 C1071 1.386 . S
H1069 C1085 0.930 . S
H1070 C1086 0.931 . S
C1071 H1059 0.929 . S
C1071 C1065 1.390 . S
C1071 C1068 1.386 . S
C1072 C1067 1.490 . S
C1072 C1074 1.395 . S
C1072 C1075 1.403 . S
H1073 C1079 0.930 . S
C1074 H1060 0.930 . S
C1074 C1072 1.395 . S
C1074 C1077 1.403 . S
C1075 C1072 1.403 . S
C1075 C1076 1.524 . S
C1075 C1079 1.400 . S
C1076 H1061 0.960 . S
C1076 H1062 0.960 . S
C1076 H1063 0.960 . S
C1076 C1075 1.524 . S
C1077 C1074 1.403 . S
C1077 C1078 1.392 . S
C1077 C1081 1.495 . S
C1078 C1077 1.392 . S
C1078 C1079 1.385 . S
C1078 C1080 1.478 . S
C1079 H1073 0.930 . S
C1079 C1075 1.400 . S
C1079 C1078 1.385 . S
C1080 C1078 1.478 . S
C1080 C1082 1.381 . S
C1080 C1086 1.383 . S
C1081 C1077 1.495 . S
C1081 H1087 0.959 . S
C1081 H1088 0.961 . S
C1081 H1089 0.960 . S
C1082 C1080 1.381 . S
C1082 C1083 1.394 . S
C1082 H1090 0.930 . S
C1083 C1082 1.394 . S
C1083 C1084 1.383 . S
C1083 H1091 0.929 . S
C1084 C1083 1.383 . S
C1084 C1085 1.377 . S
C1085 H1069 0.930 . S
C1085 C1084 1.377 . S
C1085 C1086 1.379 . S
C1086 H1070 0.931 . S
C1086 C1080 1.383 . S
C1086 C1085 1.379 . S
H1087 C1081 0.959 . S
H1088 C1081 0.961 . S
H1089 C1081 0.960 . S
H1090 C1082 0.930 . S
H1091 C1083 0.929 . S
H1092 C1100 0.929 . S
H1093 C1102 0.930 . S
H1094 C1104 0.930 . S
H1095 C1107 0.929 . S
H1096 C1110 0.930 . S
H1097 C1112 0.960 . S
H1098 C1112 0.960 . S
H1099 C1112 0.960 . S
C1100 H1092 0.929 . S
C1100 C1101 1.377 . S
C1100 C1102 1.384 . S
C1101 C1100 1.377 . S
C1101 C1107 1.390 . S
C1102 H1093 0.930 . S
C1102 C1100 1.384 . S
C1102 C1103 1.372 . S
C1103 C1102 1.372 . S
C1103 C1104 1.400 . S
C1103 C1108 1.490 . S
C1104 H1094 0.930 . S
C1104 C1103 1.400 . S
C1104 C1107 1.386 . S
H1105 C1121 0.930 . S
H1106 C1122 0.931 . S
C1107 H1095 0.929 . S
C1107 C1101 1.390 . S
C1107 C1104 1.386 . S
C1108 C1103 1.490 . S
C1108 C1110 1.395 . S
C1108 C1111 1.403 . S
H1109 C1115 0.930 . S
C1110 H1096 0.930 . S
C1110 C1108 1.395 . S
C1110 C1113 1.403 . S
C1111 C1108 1.403 . S
C1111 C1112 1.524 . S
C1111 C1115 1.400 . S
C1112 H1097 0.960 . S
C1112 H1098 0.960 . S
C1112 H1099 0.960 . S
C1112 C1111 1.524 . S
C1113 C1110 1.403 . S
C1113 C1114 1.392 . S
C1113 C1117 1.495 . S
C1114 C1113 1.392 . S
C1114 C1115 1.385 . S
C1114 C1116 1.478 . S
C1115 H1109 0.930 . S
C1115 C1111 1.400 . S
C1115 C1114 1.385 . S
C1116 C1114 1.478 . S
C1116 C1118 1.381 . S
C1116 C1122 1.383 . S
C1117 C1113 1.495 . S
C1117 H1123 0.959 . S
C1117 H1124 0.961 . S
C1117 H1125 0.960 . S
C1118 C1116 1.381 . S
C1118 C1119 1.394 . S
C1118 H1126 0.930 . S
C1119 C1118 1.394 . S
C1119 C1120 1.383 . S
C1119 H1127 0.929 . S
C1120 C1119 1.383 . S
C1120 C1121 1.377 . S
C1121 H1105 0.930 . S
C1121 C1120 1.377 . S
C1121 C1122 1.379 . S
C1122 H1106 0.931 . S
C1122 C1116 1.383 . S
C1122 C1121 1.379 . S
H1123 C1117 0.959 . S
H1124 C1117 0.961 . S
H1125 C1117 0.960 . S
H1126 C1118 0.930 . S
H1127 C1119 0.929 . S
C273 C82 1.745 . S
C292 C106 1.905 . S
C328 C146 2.067 . S
C309 C95 1.965 . S
C364 C210 1.839 . S
C345 C56 1.636 . S
C400 C226 1.439 . S
C381 C69 1.247 . S
C436 C127 1.885 . S
C417 C30 1.743 1_565 S
C453 C43 1.930 . S
C472 C167 2.050 . S
C489 C4 1.596 . S
C508 C201 1.823 . S
C525 C17 1.233 . S
C544 C247 1.453 . S
C580 C121 0.246 . S
C561 C74 0.292 . S
C616 C161 0.610 . S
C597 C87 0.600 . S
C652 C197 0.361 . S
C633 C100 0.446 . S
C669 C61 0.418 . S
C688 C241 0.513 . S
C705 C22 0.324 . S
C724 C130 0.221 . S
C760 C170 0.550 . S
C741 C35 0.590 . S
C796 C208 0.521 . S
C777 C48 0.466 . S
C813 C9 0.404 . S
C832 C250 0.400 . S
C849 C73 1.792 1_556 S
C868 C128 1.938 . S
C885 C86 1.768 . S
C904 C168 1.884 . S
C940 C186 1.500 . S
C921 C99 1.474 . S
C976 C248 2.299 . S
C957 C60 2.115 . S
C993 C21 1.800 . S
C1012 C117 1.948 1_655 S
C1048 C157 1.886 . S
C1029 C34 1.777 . S
C1084 C207 1.479 . S
C1065 C47 1.470 . S
C1101 C8 2.103 . S
C1120 C237 2.288 . S
