# Generated by pormake.
# Topology ctn, (3,4)-cn, num edge types: 1
# Building blocks:
#     Node 0, Type 0, BuildingBlock: ESEHIV_clean_linker_0, # of connection points: 3
#     Node 1, Type 0, BuildingBlock: ESEHIV_clean_linker_0, # of connection points: 3
#     Node 2, Type 0, BuildingBlock: ESEHIV_clean_linker_0, # of connection points: 3
#     Node 3, Type 0, BuildingBlock: ESEHIV_clean_linker_0, # of connection points: 3
#     Node 4, Type 0, BuildingBlock: ESEHIV_clean_linker_0, # of connection points: 3
#     Node 5, Type 0, BuildingBlock: ESEHIV_clean_linker_0, # of connection points: 3
#     Node 6, Type 0, BuildingBlock: ESEHIV_clean_linker_0, # of connection points: 3
#     Node 7, Type 0, BuildingBlock: ESEHIV_clean_linker_0, # of connection points: 3
#     Node 8, Type 0, BuildingBlock: ESEHIV_clean_linker_0, # of connection points: 3
#     Node 9, Type 0, BuildingBlock: ESEHIV_clean_linker_0, # of connection points: 3
#     Node 10, Type 0, BuildingBlock: ESEHIV_clean_linker_0, # of connection points: 3
#     Node 11, Type 0, BuildingBlock: ESEHIV_clean_linker_0, # of connection points: 3
#     Node 12, Type 0, BuildingBlock: ESEHIV_clean_linker_0, # of connection points: 3
#     Node 13, Type 0, BuildingBlock: ESEHIV_clean_linker_0, # of connection points: 3
#     Node 14, Type 0, BuildingBlock: ESEHIV_clean_linker_0, # of connection points: 3
#     Node 15, Type 0, BuildingBlock: ESEHIV_clean_linker_0, # of connection points: 3
#     Node 16, Type 1, BuildingBlock: AZAVOO_clean_sbu_0, # of connection points: 4
#     Node 17, Type 1, BuildingBlock: AZAVOO_clean_sbu_0, # of connection points: 4
#     Node 18, Type 1, BuildingBlock: AZAVOO_clean_sbu_0, # of connection points: 4
#     Node 19, Type 1, BuildingBlock: AZAVOO_clean_sbu_0, # of connection points: 4
#     Node 20, Type 1, BuildingBlock: AZAVOO_clean_sbu_0, # of connection points: 4
#     Node 21, Type 1, BuildingBlock: AZAVOO_clean_sbu_0, # of connection points: 4
#     Node 22, Type 1, BuildingBlock: AZAVOO_clean_sbu_0, # of connection points: 4
#     Node 23, Type 1, BuildingBlock: AZAVOO_clean_sbu_0, # of connection points: 4
#     Node 24, Type 1, BuildingBlock: AZAVOO_clean_sbu_0, # of connection points: 4
#     Node 25, Type 1, BuildingBlock: AZAVOO_clean_sbu_0, # of connection points: 4
#     Node 26, Type 1, BuildingBlock: AZAVOO_clean_sbu_0, # of connection points: 4
#     Node 27, Type 1, BuildingBlock: AZAVOO_clean_sbu_0, # of connection points: 4
#     Edge 28, Type (0, 1), BuildingBlock: EZIPEK_clean_linker_0, # of connection points: 2
#     Edge 29, Type (0, 1), BuildingBlock: EZIPEK_clean_linker_0, # of connection points: 2
#     Edge 30, Type (0, 1), BuildingBlock: EZIPEK_clean_linker_0, # of connection points: 2
#     Edge 31, Type (0, 1), BuildingBlock: EZIPEK_clean_linker_0, # of connection points: 2
#     Edge 32, Type (0, 1), BuildingBlock: EZIPEK_clean_linker_0, # of connection points: 2
#     Edge 33, Type (0, 1), BuildingBlock: EZIPEK_clean_linker_0, # of connection points: 2
#     Edge 34, Type (0, 1), BuildingBlock: EZIPEK_clean_linker_0, # of connection points: 2
#     Edge 35, Type (0, 1), BuildingBlock: EZIPEK_clean_linker_0, # of connection points: 2
#     Edge 36, Type (0, 1), BuildingBlock: EZIPEK_clean_linker_0, # of connection points: 2
#     Edge 37, Type (0, 1), BuildingBlock: EZIPEK_clean_linker_0, # of connection points: 2
#     Edge 38, Type (0, 1), BuildingBlock: EZIPEK_clean_linker_0, # of connection points: 2
#     Edge 39, Type (0, 1), BuildingBlock: EZIPEK_clean_linker_0, # of connection points: 2
#     Edge 40, Type (0, 1), BuildingBlock: EZIPEK_clean_linker_0, # of connection points: 2
#     Edge 41, Type (0, 1), BuildingBlock: EZIPEK_clean_linker_0, # of connection points: 2
#     Edge 42, Type (0, 1), BuildingBlock: EZIPEK_clean_linker_0, # of connection points: 2
#     Edge 43, Type (0, 1), BuildingBlock: EZIPEK_clean_linker_0, # of connection points: 2
#     Edge 44, Type (0, 1), BuildingBlock: EZIPEK_clean_linker_0, # of connection points: 2
#     Edge 45, Type (0, 1), BuildingBlock: EZIPEK_clean_linker_0, # of connection points: 2
#     Edge 46, Type (0, 1), BuildingBlock: EZIPEK_clean_linker_0, # of connection points: 2
#     Edge 47, Type (0, 1), BuildingBlock: EZIPEK_clean_linker_0, # of connection points: 2
#     Edge 48, Type (0, 1), BuildingBlock: EZIPEK_clean_linker_0, # of connection points: 2
#     Edge 49, Type (0, 1), BuildingBlock: EZIPEK_clean_linker_0, # of connection points: 2
#     Edge 50, Type (0, 1), BuildingBlock: EZIPEK_clean_linker_0, # of connection points: 2
#     Edge 51, Type (0, 1), BuildingBlock: EZIPEK_clean_linker_0, # of connection points: 2
#     Edge 52, Type (0, 1), BuildingBlock: EZIPEK_clean_linker_0, # of connection points: 2
#     Edge 53, Type (0, 1), BuildingBlock: EZIPEK_clean_linker_0, # of connection points: 2
#     Edge 54, Type (0, 1), BuildingBlock: EZIPEK_clean_linker_0, # of connection points: 2
#     Edge 55, Type (0, 1), BuildingBlock: EZIPEK_clean_linker_0, # of connection points: 2
#     Edge 56, Type (0, 1), BuildingBlock: EZIPEK_clean_linker_0, # of connection points: 2
#     Edge 57, Type (0, 1), BuildingBlock: EZIPEK_clean_linker_0, # of connection points: 2
#     Edge 58, Type (0, 1), BuildingBlock: EZIPEK_clean_linker_0, # of connection points: 2
#     Edge 59, Type (0, 1), BuildingBlock: EZIPEK_clean_linker_0, # of connection points: 2
#     Edge 60, Type (0, 1), BuildingBlock: EZIPEK_clean_linker_0, # of connection points: 2
#     Edge 61, Type (0, 1), BuildingBlock: EZIPEK_clean_linker_0, # of connection points: 2
#     Edge 62, Type (0, 1), BuildingBlock: EZIPEK_clean_linker_0, # of connection points: 2
#     Edge 63, Type (0, 1), BuildingBlock: EZIPEK_clean_linker_0, # of connection points: 2
#     Edge 64, Type (0, 1), BuildingBlock: EZIPEK_clean_linker_0, # of connection points: 2
#     Edge 65, Type (0, 1), BuildingBlock: EZIPEK_clean_linker_0, # of connection points: 2
#     Edge 66, Type (0, 1), BuildingBlock: EZIPEK_clean_linker_0, # of connection points: 2
#     Edge 67, Type (0, 1), BuildingBlock: EZIPEK_clean_linker_0, # of connection points: 2
#     Edge 68, Type (0, 1), BuildingBlock: EZIPEK_clean_linker_0, # of connection points: 2
#     Edge 69, Type (0, 1), BuildingBlock: EZIPEK_clean_linker_0, # of connection points: 2
#     Edge 70, Type (0, 1), BuildingBlock: EZIPEK_clean_linker_0, # of connection points: 2
#     Edge 71, Type (0, 1), BuildingBlock: EZIPEK_clean_linker_0, # of connection points: 2
#     Edge 72, Type (0, 1), BuildingBlock: EZIPEK_clean_linker_0, # of connection points: 2
#     Edge 73, Type (0, 1), BuildingBlock: EZIPEK_clean_linker_0, # of connection points: 2
#     Edge 74, Type (0, 1), BuildingBlock: EZIPEK_clean_linker_0, # of connection points: 2
#     Edge 75, Type (0, 1), BuildingBlock: EZIPEK_clean_linker_0, # of connection points: 2
# Relax obj value: 0.002
# Max RMSD: 0.039
# Mean RMSD: 0.023
data_MOF--net-ctn--node1-AZAVOO_clean_sbu_0--node2-ESEHIV_clean_linker_0--edge1-EZIPEK_clean_linker_0
_symmetry_space_group_name_H-M    P1
_symmetry_Int_Tables_number       1
_symmetry_cell_setting            triclinic
loop_
_symmetry_equiv_pos_as_xyz
'x, y, z'
_cell_length_a     36.117254
_cell_length_b     36.90575
_cell_length_c     36.773123
_cell_angle_alpha  89.955621
_cell_angle_beta   93.69715
_cell_angle_gamma 93.885136
loop_
_atom_site_label
_atom_site_type_symbol
_atom_site_fract_x
_atom_site_fract_y
_atom_site_fract_z
_atom_type_partial_charge
H0 H 0.98437 0.07491 0.02747 0.0
H1 H 0.02309 0.97052 0.05647 0.0
H2 H 0.06086 0.02552 0.96107 0.0
C3 C 0.99962 0.05168 0.02098 0.0
C4 C 0.02141 0.05298 0.9908 0.0
C5 C 0.99983 0.0218 0.04448 0.0
C6 C 0.02142 0.99279 0.0373 0.0
C7 C 0.04334 0.99398 0.00709 0.0
C8 C 0.04269 0.02377 0.98344 0.0
H9 H 0.31478 0.67899 0.27081 0.0
H10 H 0.34192 0.78667 0.23067 0.0
H11 H 0.2504 0.72045 0.17988 0.0
C12 C 0.30984 0.70073 0.25161 0.0
C13 C 0.27933 0.6967 0.22614 0.0
C14 C 0.3322 0.73342 0.25434 0.0
C15 C 0.32515 0.76116 0.2291 0.0
C16 C 0.29701 0.75563 0.20111 0.0
C17 C 0.27339 0.72387 0.20032 0.0
H18 H 0.98314 0.52878 0.08923 0.0
H19 H 0.03125 0.43169 0.05615 0.0
H20 H 0.93893 0.47199 0.99202 0.0
C21 C 0.98356 0.50625 0.0704 0.0
C22 C 0.95764 0.50303 0.04027 0.0
C23 C 0.01058 0.48087 0.07575 0.0
C24 C 0.01064 0.45156 0.05168 0.0
C25 C 0.98482 0.44804 0.02151 0.0
C26 C 0.95875 0.47432 0.01547 0.0
H27 H 0.68118 0.76608 0.21555 0.0
H28 H 0.78176 0.82219 0.18234 0.0
H29 H 0.72705 0.86236 0.27284 0.0
C30 C 0.70229 0.78836 0.21884 0.0
C31 C 0.70111 0.81344 0.2474 0.0
C32 C 0.73146 0.79125 0.19534 0.0
C33 C 0.75897 0.81984 0.20021 0.0
C34 C 0.75706 0.84575 0.22759 0.0
C35 C 0.72805 0.8427 0.25109 0.0
H36 H 0.99655 0.94055 0.45967 0.0
H37 H 0.05386 0.04615 0.45475 0.0
H38 H 0.08788 0.97056 0.53736 0.0
C39 C 0.01711 0.96081 0.47124 0.0
C40 C 0.04054 0.95196 0.50158 0.0
C41 C 0.02217 0.99447 0.4539 0.0
C42 C 0.04938 0.02032 0.46844 0.0
C43 C 0.07308 0.01184 0.49847 0.0
C44 C 0.06867 0.97763 0.51502 0.0
H45 H 0.14794 0.75045 0.7865 0.0
H46 H 0.25009 0.70347 0.82136 0.0
H47 H 0.19685 0.67632 0.71602 0.0
C48 C 0.16957 0.73244 0.78151 0.0
C49 C 0.16855 0.71326 0.74842 0.0
C50 C 0.19894 0.72875 0.80788 0.0
C51 C 0.22712 0.70587 0.80118 0.0
C52 C 0.22656 0.687 0.76813 0.0
C53 C 0.1971 0.69052 0.74184 0.0
H54 H 0.92051 0.5193 0.50698 0.0
H55 H 0.01728 0.55318 0.45021 0.0
H56 H 0.95692 0.45122 0.42296 0.0
C57 C 0.94005 0.51414 0.48672 0.0
C58 C 0.93531 0.48219 0.46576 0.0
C59 C 0.96964 0.53969 0.48118 0.0
C60 C 0.99462 0.53321 0.45476 0.0
C61 C 0.99012 0.50139 0.43376 0.0
C62 C 0.96045 0.47583 0.43925 0.0
H63 H 0.74271 0.78396 0.82571 0.0
H64 H 0.79157 0.81346 0.7255 0.0
H65 H 0.8187 0.71433 0.77992 0.0
C66 C 0.76021 0.77763 0.80401 0.0
C67 C 0.78029 0.74642 0.80622 0.0
C68 C 0.76408 0.80167 0.77485 0.0
C69 C 0.78788 0.79431 0.74757 0.0
C70 C 0.80736 0.76264 0.74894 0.0
C71 C 0.80315 0.73846 0.77819 0.0
H72 H 0.24746 0.2869 0.33647 0.0
H73 H 0.30153 0.30848 0.23714 0.0
H74 H 0.33045 0.21731 0.30367 0.0
C75 C 0.26687 0.27947 0.31689 0.0
C76 C 0.2881 0.24942 0.32351 0.0
C77 C 0.27157 0.30074 0.28572 0.0
C78 C 0.29738 0.2917 0.26095 0.0
C79 C 0.31865 0.26168 0.26736 0.0
C80 C 0.31373 0.2403 0.29846 0.0
H81 H 0.48202 0.03024 0.59163 0.0
H82 H 0.53704 0.93614 0.56163 0.0
H83 H 0.43387 0.96065 0.50461 0.0
C84 C 0.48322 0.00662 0.57433 0.0
C85 C 0.45516 0.99865 0.54676 0.0
C86 C 0.51268 0.984 0.57976 0.0
C87 C 0.51427 0.9537 0.55726 0.0
C88 C 0.48579 0.94486 0.53035 0.0
C89 C 0.45615 0.96744 0.52514 0.0
H90 H 0.19291 0.26875 0.73058 0.0
H91 H 0.28442 0.32722 0.68227 0.0
H92 H 0.23623 0.37217 0.77467 0.0
C93 C 0.21184 0.29275 0.72927 0.0
C94 C 0.21075 0.3208 0.7548 0.0
C95 C 0.23819 0.29505 0.70286 0.0
C96 C 0.26337 0.32569 0.70205 0.0
C97 C 0.26275 0.3534 0.72797 0.0
C98 C 0.23623 0.35108 0.75415 0.0
H99 H 0.82222 0.18649 0.77883 0.0
H100 H 0.85364 0.28025 0.71521 0.0
H101 H 0.75276 0.21506 0.68542 0.0
C102 C 0.81669 0.20427 0.75589 0.0
C103 C 0.78455 0.19754 0.73297 0.0
C104 C 0.84146 0.23413 0.74974 0.0
C105 C 0.83447 0.25712 0.72001 0.0
C106 C 0.80265 0.24995 0.69641 0.0
C107 C 0.7776 0.22041 0.70331 0.0
H108 H 0.48323 0.56881 0.52104 0.0
H109 H 0.52664 0.46736 0.55343 0.0
H110 H 0.55938 0.51926 0.45452 0.0
C111 C 0.49889 0.54574 0.51494 0.0
C112 C 0.51989 0.54658 0.48429 0.0
C113 C 0.50097 0.5171 0.53975 0.0
C114 C 0.5234 0.48853 0.53324 0.0
C115 C 0.54437 0.48911 0.50232 0.0
C116 C 0.54179 0.51773 0.47737 0.0
H117 H 0.50051 0.44279 0.95921 0.0
H118 H 0.56016 0.54679 0.94995 0.0
H119 H 0.58263 0.48004 0.04361 0.0
C120 C 0.52027 0.46379 0.97073 0.0
C121 C 0.53975 0.45802 0.00439 0.0
C122 C 0.52702 0.49606 0.95131 0.0
C123 C 0.55377 0.52246 0.96555 0.0
C124 C 0.57437 0.51648 0.99834 0.0
C125 C 0.56653 0.48479 0.01835 0.0
H126 H 0.65425 0.26351 0.26621 0.0
H127 H 0.74922 0.21163 0.31215 0.0
H128 H 0.69146 0.16853 0.21438 0.0
C129 C 0.67306 0.24192 0.26518 0.0
C130 C 0.66876 0.21619 0.23651 0.0
C131 C 0.70098 0.23913 0.29329 0.0
C132 C 0.72669 0.21273 0.29126 0.0
C133 C 0.72393 0.18797 0.26241 0.0
C134 C 0.69402 0.18859 0.23606 0.0
H135 H 0.40957 0.02833 0.00286 0.0
H136 H 0.50775 0.06022 0.94739 0.0
H137 H 0.45095 0.95533 0.92602 0.0
C138 C 0.4298 0.02234 0.98355 0.0
C139 C 0.42666 0.98889 0.96504 0.0
C140 C 0.45911 0.04799 0.97729 0.0
C141 C 0.48515 0.0403 0.95231 0.0
C142 C 0.48232 0.00695 0.93383 0.0
C143 C 0.45308 0.9812 0.94021 0.0
Mg144 Mg 0.22443 0.85207 0.01545 0.0
O145 O 0.27673 0.88598 0.99881 0.0
O146 O 0.32214 0.84745 0.99875 0.0
Mg147 Mg 0.29924 0.79094 0.01597 0.0
C148 C 0.31035 0.87909 0.99424 0.0
C149 C 0.15195 0.88694 0.99845 0.0
O150 O 0.14113 0.85313 0.00557 0.0
O151 O 0.2166 0.82491 0.95988 0.0
O152 O 0.26105 0.7855 0.96312 0.0
O153 O 0.23872 0.86586 0.07327 0.0
O154 O 0.25798 0.81787 0.04682 0.0
C155 C 0.23342 0.79941 0.94629 0.0
C156 C 0.25855 0.83805 0.07567 0.0
O157 O 0.18647 0.89593 0.99754 0.0
Mg158 Mg 0.15976 0.50608 0.27431 0.0
O159 O 0.1251 0.49788 0.2205 0.0
O160 O 0.16441 0.49777 0.17596 0.0
Mg161 Mg 0.22403 0.50836 0.20174 0.0
C162 C 0.13153 0.49542 0.18696 0.0
C163 C 0.10508 0.50662 0.33351 0.0
O164 O 0.12977 0.53326 0.34298 0.0
O165 O 0.17871 0.44854 0.27298 0.0
O166 O 0.22141 0.45342 0.23136 0.0
O167 O 0.15689 0.56576 0.26869 0.0
O168 O 0.20259 0.53568 0.24895 0.0
C169 C 0.20396 0.43537 0.2553 0.0
C170 C 0.18792 0.56624 0.25285 0.0
O171 O 0.10921 0.48799 0.30523 0.0
Mg172 Mg 0.7831 0.65732 0.0278 0.0
O173 O 0.7281 0.62188 0.02581 0.0
O174 O 0.68227 0.65919 0.01429 0.0
Mg175 Mg 0.70691 0.71792 0.01333 0.0
C176 C 0.6937 0.62753 0.01977 0.0
C177 C 0.85196 0.6138 0.02861 0.0
O178 O 0.86602 0.64711 0.03506 0.0
O179 O 0.77779 0.66505 0.9663 0.0
O180 O 0.73538 0.70674 0.96056 0.0
O181 O 0.78224 0.66723 0.08776 0.0
O182 O 0.75555 0.70063 0.04538 0.0
C183 C 0.75903 0.68714 0.94718 0.0
C184 C 0.76276 0.6946 0.07939 0.0
O185 O 0.81698 0.60795 0.02303 0.0
Mg186 Mg 0.90487 0.04537 0.24149 0.0
O187 O 0.87103 0.99111 0.23792 0.0
O188 O 0.90873 0.94717 0.22773 0.0
Mg189 Mg 0.96768 0.97384 0.22606 0.0
C190 C 0.87655 0.9579 0.23255 0.0
C191 C 0.85368 0.10502 0.25776 0.0
O192 O 0.88463 0.12364 0.25049 0.0
O193 O 0.92753 0.03215 0.29938 0.0
O194 O 0.96689 0.99029 0.28622 0.0
O195 O 0.899 0.05149 0.181 0.0
O196 O 0.94594 0.02615 0.21046 0.0
C197 C 0.95223 0.01016 0.30908 0.0
C198 C 0.92963 0.03537 0.18008 0.0
O199 O 0.85339 0.07067 0.25944 0.0
Mg200 Mg 0.28007 0.15123 0.54223 0.0
O201 O 0.22423 0.11778 0.53489 0.0
O202 O 0.17976 0.15668 0.52535 0.0
Mg203 Mg 0.20703 0.21476 0.5305 0.0
C204 C 0.19023 0.12441 0.52832 0.0
C205 C 0.34656 0.10606 0.53676 0.0
O206 O 0.36156 0.1393 0.54131 0.0
O207 O 0.27858 0.16496 0.48167 0.0
O208 O 0.23683 0.20735 0.47776 0.0
O209 O 0.27559 0.15475 0.60231 0.0
O210 O 0.25525 0.1954 0.56301 0.0
C211 C 0.26076 0.18859 0.46371 0.0
C212 C 0.26014 0.18504 0.59631 0.0
O213 O 0.31137 0.10071 0.53432 0.0
Mg214 Mg 0.41409 0.55204 0.73865 0.0
O215 O 0.37774 0.49889 0.73578 0.0
O216 O 0.4138 0.4539 0.724 0.0
Mg217 Mg 0.47353 0.47782 0.7212 0.0
C218 C 0.38219 0.4655 0.72974 0.0
C219 C 0.35264 0.60522 0.73892 0.0
O220 O 0.36836 0.61297 0.70839 0.0
O221 O 0.43778 0.53726 0.79578 0.0
O222 O 0.47451 0.49338 0.78167 0.0
O223 O 0.40671 0.55783 0.67801 0.0
O224 O 0.45289 0.5306 0.70648 0.0
C225 C 0.46125 0.51386 0.80492 0.0
C226 C 0.43614 0.53998 0.67644 0.0
O227 O 0.36555 0.58087 0.75971 0.0
Mg228 Mg 0.72786 0.34984 0.50694 0.0
O229 O 0.7821 0.38287 0.49503 0.0
O230 O 0.82513 0.34228 0.49115 0.0
Mg231 Mg 0.79893 0.28524 0.50225 0.0
C232 C 0.81523 0.37484 0.48988 0.0
C233 C 0.65781 0.38696 0.49325 0.0
O234 O 0.64745 0.35249 0.49753 0.0
O235 O 0.72089 0.32972 0.44859 0.0
O236 O 0.76233 0.28731 0.44841 0.0
O237 O 0.74125 0.35632 0.5662 0.0
O238 O 0.7571 0.30977 0.53415 0.0
C239 C 0.73632 0.30461 0.43275 0.0
C240 C 0.75728 0.32604 0.56527 0.0
O241 O 0.69227 0.39663 0.49335 0.0
Mg242 Mg 0.65782 0.01054 0.78142 0.0
O243 O 0.62424 0.00617 0.72647 0.0
O244 O 0.66417 0.00563 0.6825 0.0
Mg245 Mg 0.72337 0.01498 0.70964 0.0
C246 C 0.63109 0.00413 0.69297 0.0
C247 C 0.60513 0.0037 0.84286 0.0
O248 O 0.63482 0.02128 0.85841 0.0
O249 O 0.67498 0.95231 0.77692 0.0
O250 O 0.7186 0.95883 0.73624 0.0
O251 O 0.65803 0.07096 0.77983 0.0
O252 O 0.7019 0.03964 0.75824 0.0
C253 C 0.70018 0.93968 0.75868 0.0
C254 C 0.68908 0.0707 0.7641 0.0
O255 O 0.60559 0.99307 0.81006 0.0
Mg256 Mg 0.04264 0.25694 0.90014 0.0
O257 O 0.99146 0.24874 0.8609 0.0
O258 O 0.94397 0.23284 0.89516 0.0
Mg259 Mg 0.96611 0.22511 0.9545 0.0
C260 C 0.95703 0.24065 0.86442 0.0
C261 C 0.10689 0.29843 0.86668 0.0
O262 O 0.1178 0.29822 0.90146 0.0
O263 O 0.02005 0.30887 0.92035 0.0
O264 O 0.97985 0.28677 0.96 0.0
O265 O 0.05656 0.19947 0.89358 0.0
O266 O 0.02138 0.2187 0.93573 0.0
C267 C 0.99804 0.3134 0.94555 0.0
C268 C 0.03592 0.19225 0.92047 0.0
O269 O 0.07434 0.28578 0.85657 0.0
Mg270 Mg 0.53565 0.75358 0.4031 0.0
O271 O 0.48117 0.74655 0.3675 0.0
O272 O 0.43687 0.73293 0.40555 0.0
Mg273 Mg 0.46314 0.72025 0.46171 0.0
C274 C 0.44695 0.74027 0.37361 0.0
C275 C 0.59459 0.77224 0.35215 0.0
O276 O 0.60447 0.7433 0.37011 0.0
O277 O 0.51803 0.80463 0.43064 0.0
O278 O 0.47686 0.78112 0.46869 0.0
O279 O 0.54659 0.69657 0.39074 0.0
O280 O 0.51654 0.71362 0.43788 0.0
C281 C 0.49593 0.80808 0.45601 0.0
C282 C 0.52845 0.68797 0.41903 0.0
O283 O 0.56454 0.78597 0.35924 0.0
Mg284 Mg 0.97443 0.73649 0.58939 0.0
O285 O 0.02504 0.73031 0.63004 0.0
O286 O 0.0734 0.72028 0.59719 0.0
Mg287 Mg 0.05406 0.71908 0.53676 0.0
C288 C 0.05927 0.72447 0.62769 0.0
C289 C 0.91017 0.7387 0.63823 0.0
O290 O 0.90057 0.71149 0.61583 0.0
O291 O 0.9969 0.79338 0.57314 0.0
O292 O 0.04366 0.77998 0.53942 0.0
O293 O 0.95995 0.67675 0.58896 0.0
O294 O 0.99647 0.70466 0.55023 0.0
C295 C 0.0232 0.80297 0.55272 0.0
C296 C 0.98016 0.67499 0.56134 0.0
O297 O 0.94085 0.75708 0.63476 0.0
Mg298 Mg 0.46545 0.24213 0.09122 0.0
O299 O 0.51814 0.22773 0.12532 0.0
O300 O 0.56304 0.23051 0.0865 0.0
Mg301 Mg 0.53711 0.23077 0.02769 0.0
C302 C 0.55245 0.22734 0.11891 0.0
C303 C 0.42674 0.23384 0.1634 0.0
O304 O 0.43464 0.20026 0.15738 0.0
O305 O 0.49059 0.30013 0.08139 0.0
O306 O 0.52698 0.29073 0.03571 0.0
O307 O 0.44674 0.18357 0.08453 0.0
O308 O 0.48231 0.21416 0.04682 0.0
C309 C 0.51132 0.31198 0.05643 0.0
C310 C 0.46569 0.18385 0.05588 0.0
O311 O 0.43756 0.25887 0.14197 0.0
C312 C 0.21929 0.78514 0.84388 0.0
C313 C 0.20159 0.74961 0.84251 0.0
C314 C 0.20129 0.74828 0.90912 0.0
C315 C 0.21932 0.78373 0.91056 0.0
N316 N 0.2382 0.83907 0.87992 0.0
N317 N 0.16871 0.70017 0.87203 0.0
C318 C 0.2258 0.80326 0.87806 0.0
C319 C 0.19031 0.73209 0.87467 0.0
N320 N 0.23144 0.80081 0.8127 0.0
N321 N 0.19531 0.72991 0.94076 0.0
H322 H 0.16039 0.68769 0.8471 0.0
H323 H 0.15651 0.68749 0.89398 0.0
H324 H 0.20068 0.74175 0.96648 0.0
H325 H 0.18658 0.7025 0.9418 0.0
H326 H 0.24857 0.82462 0.81234 0.0
H327 H 0.22619 0.78883 0.78704 0.0
H328 H 0.23991 0.85589 0.85727 0.0
H329 H 0.24401 0.85292 0.90452 0.0
C330 C 0.05093 0.48078 0.41592 0.0
C331 C 0.01669 0.49569 0.40557 0.0
C332 C 0.03747 0.50835 0.34436 0.0
C333 C 0.07345 0.49833 0.35646 0.0
N334 N 0.11515 0.47419 0.40272 0.0
N335 N 0.97644 0.52397 0.36086 0.0
C336 C 0.08028 0.48395 0.39189 0.0
C337 C 0.00946 0.50904 0.36981 0.0
N338 N 0.05508 0.46346 0.44869 0.0
N339 N 0.03028 0.51755 0.30869 0.0
H340 H 0.95483 0.52372 0.37838 0.0
H341 H 0.97094 0.53823 0.33692 0.0
H342 H 0.05049 0.51863 0.28964 0.0
H343 H 0.00381 0.52159 0.29717 0.0
H344 H 0.07798 0.44907 0.45677 0.0
H345 H 0.03409 0.46105 0.46693 0.0
H346 H 0.12345 0.46769 0.42942 0.0
H347 H 0.1366 0.4739 0.38504 0.0
C348 C 0.80742 0.73061 0.86803 0.0
C349 C 0.77913 0.72406 0.83974 0.0
C350 C 0.74337 0.68401 0.87997 0.0
C351 C 0.76885 0.69492 0.90944 0.0
N352 N 0.82464 0.72917 0.93278 0.0
N353 N 0.72084 0.69414 0.8173 0.0
C354 C 0.8012 0.71774 0.90369 0.0
C355 C 0.74747 0.70021 0.84517 0.0
N356 N 0.83995 0.74967 0.86091 0.0
N357 N 0.71554 0.65798 0.88547 0.0
H358 H 0.72408 0.7041 0.79104 0.0
H359 H 0.69507 0.68048 0.82028 0.0
H360 H 0.71225 0.64574 0.91077 0.0
H361 H 0.6976 0.64643 0.86474 0.0
H362 H 0.86333 0.75174 0.87907 0.0
H363 H 0.84482 0.76136 0.83573 0.0
H364 H 0.84584 0.74955 0.93132 0.0
H365 H 0.82169 0.71983 0.95927 0.0
C366 C 0.02489 0.0049 0.3867 0.0
C367 C 0.00318 0.0005 0.41741 0.0
C368 C 0.94633 0.00251 0.37713 0.0
C369 C 0.96851 0.01033 0.34721 0.0
N370 N 0.02868 0.03019 0.32648 0.0
N371 N 0.94344 0.00201 0.44293 0.0
C372 C 0.00773 0.01508 0.35297 0.0
C373 C 0.96387 0.00143 0.41299 0.0
N374 N 0.06154 0.99745 0.38905 0.0
N375 N 0.90895 0.99445 0.37127 0.0
H376 H 0.95547 0.00157 0.46948 0.0
H377 H 0.91514 0.00619 0.44148 0.0
H378 H 0.89524 0.99458 0.34544 0.0
H379 H 0.89211 0.98479 0.3916 0.0
H380 H 0.07743 0.99702 0.3664 0.0
H381 H 0.0749 0.9876 0.41262 0.0
H382 H 0.05708 0.03718 0.33074 0.0
H383 H 0.01701 0.0396 0.30185 0.0
C384 C 0.21351 0.25456 0.65033 0.0
C385 C 0.24174 0.26403 0.67794 0.0
C386 C 0.2818 0.22077 0.65286 0.0
C387 C 0.25266 0.20946 0.62663 0.0
N388 N 0.18773 0.20886 0.60692 0.0
N389 N 0.298 0.24869 0.71174 0.0
C390 C 0.21752 0.22434 0.62734 0.0
C391 C 0.27436 0.24467 0.68124 0.0
N392 N 0.18363 0.27522 0.64504 0.0
N393 N 0.31724 0.21089 0.64951 0.0
H394 H 0.29308 0.26544 0.7335 0.0
H395 H 0.32028 0.23252 0.71704 0.0
H396 H 0.32485 0.19488 0.62829 0.0
H397 H 0.33998 0.22177 0.66577 0.0
H398 H 0.16428 0.27175 0.62284 0.0
H399 H 0.17986 0.29782 0.66105 0.0
H400 H 0.16065 0.21644 0.60876 0.0
H401 H 0.18965 0.18576 0.59108 0.0
C402 C 0.50322 0.54552 0.60146 0.0
C403 C 0.48495 0.52084 0.57551 0.0
C404 C 0.43596 0.50601 0.61724 0.0
C405 C 0.45236 0.53329 0.64148 0.0
N406 N 0.49825 0.58289 0.65473 0.0
N407 N 0.4323 0.48025 0.55625 0.0
C408 C 0.48515 0.55405 0.63312 0.0
C409 C 0.45085 0.5017 0.58273 0.0
N410 N 0.53825 0.56023 0.59618 0.0
N411 N 0.40696 0.48357 0.62772 0.0
H412 H 0.4429 0.47592 0.531 0.0
H413 H 0.40541 0.4687 0.5583 0.0
H414 H 0.3956 0.48617 0.65283 0.0
H415 H 0.39612 0.46078 0.61298 0.0
H416 H 0.55469 0.57501 0.61603 0.0
H417 H 0.55232 0.55516 0.57305 0.0
H418 H 0.51943 0.60165 0.64772 0.0
H419 H 0.4859 0.59008 0.67832 0.0
C420 C 0.7618 0.29262 0.66328 0.0
C421 C 0.79441 0.27335 0.66449 0.0
C422 C 0.80658 0.29467 0.60307 0.0
C423 C 0.77091 0.30878 0.5997 0.0
N424 N 0.71093 0.31324 0.62487 0.0
N425 N 0.8454 0.25138 0.63334 0.0
C426 C 0.74754 0.30589 0.62942 0.0
C427 C 0.81631 0.27317 0.63384 0.0
N428 N 0.74444 0.29832 0.69452 0.0
N429 N 0.83171 0.30288 0.57769 0.0
H430 H 0.85332 0.23495 0.65516 0.0
H431 H 0.85963 0.24732 0.61008 0.0
H432 H 0.82595 0.31986 0.55581 0.0
H433 H 0.85931 0.2962 0.58059 0.0
H434 H 0.72249 0.31514 0.69564 0.0
H435 H 0.75452 0.28935 0.71997 0.0
H436 H 0.69214 0.30812 0.64491 0.0
H437 H 0.6981 0.32027 0.59991 0.0
C438 C 0.54198 0.96742 0.64059 0.0
C439 C 0.54145 0.9909 0.61002 0.0
C440 C 0.59568 0.02656 0.63729 0.0
C441 C 0.59944 0.00013 0.66515 0.0
N442 N 0.57894 0.94235 0.69051 0.0
N443 N 0.57068 0.03992 0.57645 0.0
C444 C 0.57323 0.96975 0.66618 0.0
C445 C 0.56911 0.01971 0.60755 0.0
N446 N 0.51218 0.9435 0.64563 0.0
N447 N 0.61617 0.05903 0.64012 0.0
H448 H 0.55151 0.03592 0.55412 0.0
H449 H 0.59276 0.05859 0.57164 0.0
H450 H 0.63416 0.06587 0.66265 0.0
H451 H 0.6121 0.08063 0.62239 0.0
H452 H 0.5094 0.92821 0.66924 0.0
H453 H 0.48848 0.94159 0.62778 0.0
H454 H 0.56295 0.91776 0.68975 0.0
H455 H 0.60167 0.94276 0.7095 0.0
C456 C 0.87285 0.26496 0.80514 0.0
C457 C 0.87445 0.2409 0.77537 0.0
C458 C 0.93234 0.21848 0.80223 0.0
C459 C 0.93073 0.24262 0.83205 0.0
N460 N 0.90622 0.29589 0.85664 0.0
N461 N 0.90903 0.20103 0.74086 0.0
C462 C 0.90299 0.26806 0.8319 0.0
C463 C 0.90542 0.21973 0.77238 0.0
N464 N 0.84191 0.28376 0.8086 0.0
N465 N 0.95839 0.19324 0.80321 0.0
H466 H 0.88957 0.20137 0.71863 0.0
H467 H 0.93268 0.18786 0.73545 0.0
H468 H 0.97915 0.192 0.8241 0.0
H469 H 0.95816 0.17205 0.78451 0.0
H470 H 0.83721 0.29823 0.83197 0.0
H471 H 0.81968 0.28303 0.78897 0.0
H472 H 0.88878 0.31726 0.85586 0.0
H473 H 0.92883 0.29966 0.87568 0.0
C474 C 0.48895 0.90974 0.47164 0.0
C475 C 0.4861 0.91015 0.50998 0.0
C476 C 0.49615 0.84553 0.51255 0.0
C477 C 0.49406 0.84385 0.4739 0.0
N478 N 0.48065 0.87362 0.41639 0.0
N479 N 0.47632 0.87611 0.56507 0.0
C480 C 0.48829 0.87576 0.45323 0.0
C481 C 0.48634 0.87729 0.52986 0.0
N482 N 0.49357 0.94156 0.45297 0.0
N483 N 0.50926 0.81757 0.53292 0.0
H484 H 0.46709 0.89853 0.5782 0.0
H485 H 0.4731 0.85195 0.57959 0.0
H486 H 0.51952 0.79474 0.52145 0.0
H487 H 0.51421 0.81916 0.56114 0.0
H488 H 0.49953 0.9426 0.42562 0.0
H489 H 0.49483 0.96697 0.46555 0.0
H490 H 0.47271 0.89566 0.40072 0.0
H491 H 0.47856 0.84915 0.40202 0.0
C492 C 0.15256 0.33661 0.7833 0.0
C493 C 0.18495 0.31684 0.78439 0.0
C494 C 0.16521 0.28401 0.83827 0.0
C495 C 0.13433 0.30581 0.83908 0.0
N496 N 0.10147 0.35666 0.81619 0.0
N497 N 0.2264 0.27767 0.81691 0.0
C498 C 0.12878 0.33325 0.81265 0.0
C499 C 0.19262 0.2924 0.81317 0.0
N500 N 0.14398 0.35765 0.75374 0.0
N501 N 0.1673 0.25394 0.85989 0.0
H502 H 0.24731 0.28312 0.79898 0.0
H503 H 0.23496 0.2628 0.83966 0.0
H504 H 0.14712 0.24572 0.87777 0.0
H505 H 0.18709 0.23497 0.85742 0.0
H506 H 0.11876 0.36959 0.74948 0.0
H507 H 0.161 0.36103 0.73195 0.0
H508 H 0.09843 0.37951 0.79993 0.0
H509 H 0.08369 0.355 0.83748 0.0
C510 C 0.49587 0.59013 0.43741 0.0
C511 C 0.52407 0.58098 0.46385 0.0
C512 C 0.55532 0.64168 0.45971 0.0
C513 C 0.52738 0.65068 0.43303 0.0
N514 N 0.47403 0.63368 0.39256 0.0
N515 N 0.58317 0.5955 0.49707 0.0
C516 C 0.49853 0.62488 0.42058 0.0
C517 C 0.55468 0.60597 0.47391 0.0
N518 N 0.46621 0.56582 0.42924 0.0
N519 N 0.58175 0.66781 0.47241 0.0
H520 H 0.58283 0.57049 0.51017 0.0
H521 H 0.60841 0.61057 0.50179 0.0
H522 H 0.58439 0.69389 0.46152 0.0
H523 H 0.59992 0.66463 0.49513 0.0
H524 H 0.44265 0.57185 0.41322 0.0
H525 H 0.46444 0.53959 0.43989 0.0
H526 H 0.45419 0.61535 0.37985 0.0
H527 H 0.47491 0.65926 0.3804 0.0
C528 C 0.872 0.75557 0.73069 0.0
C529 C 0.83367 0.75604 0.7205 0.0
C530 C 0.8469 0.75215 0.65627 0.0
C531 C 0.88483 0.74741 0.66669 0.0
N532 N 0.93244 0.73825 0.71447 0.0
N533 N 0.7834 0.74785 0.67425 0.0
C534 C 0.89733 0.74763 0.70415 0.0
C535 C 0.8207 0.7524 0.68342 0.0
N536 N 0.88335 0.76398 0.76589 0.0
N537 N 0.83611 0.75779 0.6205 0.0
H538 H 0.76345 0.7469 0.69358 0.0
H539 H 0.77247 0.74142 0.64796 0.0
H540 H 0.85474 0.75916 0.59993 0.0
H541 H 0.80957 0.76492 0.61181 0.0
H542 H 0.91107 0.76723 0.77584 0.0
H543 H 0.91107 0.76723 0.77584 0.0
H544 H 0.9415 0.73365 0.74142 0.0
H545 H 0.95161 0.73166 0.69595 0.0
C546 C 0.02987 0.90706 0.55284 0.0
C547 C 0.03814 0.91417 0.51614 0.0
C548 C 0.03173 0.84906 0.50309 0.0
C549 C 0.02805 0.84148 0.54066 0.0
N550 N 0.03182 0.86395 0.60258 0.0
N551 N 0.05788 0.89087 0.45965 0.0
C552 C 0.02943 0.87069 0.56601 0.0
C553 C 0.04253 0.88482 0.49231 0.0
N554 N 0.02114 0.93467 0.57477 0.0
N555 N 0.02284 0.82274 0.47726 0.0
H556 H 0.0678 0.91657 0.45136 0.0
H557 H 0.06456 0.86985 0.44286 0.0
H558 H 0.01174 0.79679 0.48334 0.0
H559 H 0.02207 0.82813 0.44939 0.0
H560 H 0.01129 0.93034 0.60054 0.0
H561 H 0.02045 0.96149 0.56596 0.0
H562 H 0.03644 0.88446 0.62213 0.0
H563 H 0.03308 0.83787 0.61331 0.0
C564 C 0.10594 0.69438 0.71792 0.0
C565 C 0.13851 0.71824 0.71965 0.0
C566 C 0.11454 0.75064 0.66579 0.0
C567 C 0.08435 0.72399 0.66131 0.0
N568 N 0.05183 0.66916 0.68158 0.0
N569 N 0.17566 0.76762 0.69437 0.0
C570 C 0.0799 0.6957 0.68721 0.0
C571 C 0.14324 0.74611 0.69343 0.0
N572 N 0.09982 0.67071 0.74588 0.0
N573 N 0.11503 0.78094 0.64432 0.0
H574 H 0.1968 0.766 0.71491 0.0
H575 H 0.18275 0.78544 0.67359 0.0
H576 H 0.09407 0.78546 0.62428 0.0
H577 H 0.13417 0.80315 0.64852 0.0
H578 H 0.0749 0.65529 0.74834 0.0
H579 H 0.11875 0.66846 0.7683 0.0
H580 H 0.0497 0.64544 0.69684 0.0
H581 H 0.03164 0.66971 0.66007 0.0
C582 C 0.95444 0.60438 0.4873 0.0
C583 C 0.97333 0.57452 0.50156 0.0
C584 C 0.99764 0.61068 0.55494 0.0
C585 C 0.97982 0.64094 0.54005 0.0
N586 N 0.94437 0.66852 0.49069 0.0
N587 N 0.01609 0.54929 0.54609 0.0
C588 C 0.95928 0.63838 0.50572 0.0
C589 C 0.99587 0.57768 0.53462 0.0
N590 N 0.93087 0.59979 0.45672 0.0
N591 N 0.01591 0.61352 0.58866 0.0
H592 H 0.01453 0.52442 0.53241 0.0
H593 H 0.03602 0.55078 0.56785 0.0
H594 H 0.01966 0.63793 0.6031 0.0
H595 H 0.02599 0.59165 0.60315 0.0
H596 H 0.91269 0.61889 0.44725 0.0
H597 H 0.92757 0.57569 0.4417 0.0
H598 H 0.93336 0.66979 0.46391 0.0
H599 H 0.94469 0.69334 0.50423 0.0
C600 C 0.78262 0.90712 0.2091 0.0
C601 C 0.78601 0.87607 0.23141 0.0
C602 C 0.84562 0.90188 0.25864 0.0
C603 C 0.84456 0.93065 0.23303 0.0
N604 N 0.81363 0.95938 0.1815 0.0
N605 N 0.82181 0.84146 0.27489 0.0
C606 C 0.81332 0.93317 0.20779 0.0
C607 C 0.81777 0.87279 0.25559 0.0
N608 N 0.74981 0.91187 0.18951 0.0
N609 N 0.87232 0.90316 0.28682 0.0
H610 H 0.80154 0.81991 0.27408 0.0
H611 H 0.84631 0.83575 0.28964 0.0
H612 H 0.89259 0.92457 0.29061 0.0
H613 H 0.87226 0.88492 0.30844 0.0
H614 H 0.74407 0.93579 0.17588 0.0
H615 H 0.72697 0.89297 0.18931 0.0
H616 H 0.79387 0.95979 0.15963 0.0
H617 H 0.8351 0.97948 0.17983 0.0
C618 C 0.76017 0.13562 0.28482 0.0
C619 C 0.75452 0.1635 0.25886 0.0
C620 C 0.8092 0.14702 0.22844 0.0
C621 C 0.81837 0.1234 0.25763 0.0
N622 N 0.80456 0.09815 0.31625 0.0
N623 N 0.77848 0.20084 0.21051 0.0
C624 C 0.79422 0.11816 0.28647 0.0
C625 C 0.78026 0.17056 0.23178 0.0
N626 N 0.7329 0.12571 0.30765 0.0
N627 N 0.82717 0.14615 0.19688 0.0
H628 H 0.75887 0.21994 0.21325 0.0
H629 H 0.79895 0.20898 0.19292 0.0
H630 H 0.84718 0.12784 0.19239 0.0
H631 H 0.81903 0.16056 0.17366 0.0
H632 H 0.73389 0.10328 0.3248 0.0
H633 H 0.70766 0.13797 0.30696 0.0
H634 H 0.78985 0.09661 0.33971 0.0
H635 H 0.82961 0.08564 0.31891 0.0
C636 C 0.36573 0.95466 0.94626 0.0
C637 C 0.39601 0.96152 0.9725 0.0
C638 C 0.36586 0.91962 0.0149 0.0
C639 C 0.33801 0.90938 0.98715 0.0
N640 N 0.31276 0.91438 0.92526 0.0
N641 N 0.42797 0.94662 0.02966 0.0
C642 C 0.33817 0.92627 0.9525 0.0
C643 C 0.39691 0.94294 0.00628 0.0
N644 N 0.36281 0.97595 0.9159 0.0
N645 N 0.36187 0.90811 0.04986 0.0
H646 H 0.45145 0.96329 0.02428 0.0
H647 H 0.43177 0.9307 0.05282 0.0
H648 H 0.33867 0.89219 0.05742 0.0
H649 H 0.37939 0.91748 0.07195 0.0
H650 H 0.33949 0.97483 0.89766 0.0
H651 H 0.3825 0.99692 0.91043 0.0
H652 H 0.31396 0.92261 0.89825 0.0
H653 H 0.29175 0.89428 0.92926 0.0
C654 C 0.22167 0.33492 0.253 0.0
C655 C 0.25138 0.33421 0.28016 0.0
C656 C 0.24369 0.39766 0.29582 0.0
C657 C 0.21712 0.39958 0.26586 0.0
N658 N 0.18181 0.3715 0.21439 0.0
N659 N 0.29408 0.36563 0.32457 0.0
C660 C 0.20624 0.36854 0.24405 0.0
C661 C 0.26311 0.36569 0.30108 0.0
N662 N 0.2078 0.30328 0.23639 0.0
N663 N 0.25041 0.42648 0.31925 0.0
H664 H 0.30924 0.34282 0.32922 0.0
H665 H 0.30664 0.38889 0.33734 0.0
H666 H 0.23767 0.45087 0.31569 0.0
H667 H 0.26627 0.42527 0.34384 0.0
H668 H 0.1839 0.30122 0.21891 0.0
H669 H 0.21857 0.27827 0.24232 0.0
H670 H 0.17593 0.35113 0.1949 0.0
H671 H 0.16876 0.39531 0.20815 0.0
C672 C 0.10193 0.06343 0.53765 0.0
C673 C 0.10506 0.03775 0.50958 0.0
C674 C 0.16413 0.06861 0.49386 0.0
C675 C 0.16189 0.09348 0.52297 0.0
N676 N 0.13324 0.10969 0.57759 0.0
N677 N 0.14258 0.01058 0.46656 0.0
C678 C 0.13206 0.08949 0.54636 0.0
C679 C 0.13735 0.03865 0.48951 0.0
N680 N 0.06977 0.06349 0.55531 0.0
N681 N 0.1906 0.07463 0.46917 0.0
H682 H 0.12358 0.98811 0.46284 0.0
H683 H 0.16724 0.00783 0.45395 0.0
H684 H 0.21056 0.09642 0.47102 0.0
H685 H 0.19087 0.05987 0.44508 0.0
H686 H 0.06399 0.08412 0.57297 0.0
H687 H 0.04771 0.04398 0.55053 0.0
H688 H 0.11422 0.10561 0.59755 0.0
H689 H 0.15537 0.12827 0.58529 0.0
C690 C 0.75232 0.13744 0.7145 0.0
C691 C 0.75817 0.16623 0.74008 0.0
C692 C 0.71935 0.13219 0.78224 0.0
C693 C 0.71052 0.10497 0.75512 0.0
N694 N 0.71048 0.08781 0.69194 0.0
N695 N 0.73989 0.19504 0.79443 0.0
C696 C 0.72467 0.10938 0.72019 0.0
C697 C 0.73933 0.16491 0.77277 0.0
N698 N 0.774 0.13602 0.68547 0.0
N699 N 0.71078 0.12618 0.8175 0.0
H700 H 0.75367 0.21976 0.78802 0.0
H701 H 0.72361 0.19648 0.8167 0.0
H702 H 0.69777 0.10201 0.82635 0.0
H703 H 0.72012 0.14379 0.83879 0.0
H704 H 0.77308 0.11359 0.66814 0.0
H705 H 0.79543 0.15551 0.68078 0.0
H706 H 0.71729 0.09196 0.66507 0.0
H707 H 0.68862 0.06857 0.69505 0.0
C708 C 0.39506 0.02093 0.56492 0.0
C709 C 0.42443 0.02312 0.54109 0.0
C710 C 0.39716 0.07435 0.50942 0.0
C711 C 0.37087 0.07535 0.53639 0.0
N712 N 0.34702 0.0522 0.5924 0.0
N713 N 0.45573 0.05315 0.4923 0.0
C714 C 0.37005 0.04907 0.56463 0.0
C715 C 0.42599 0.05001 0.51356 0.0
N716 N 0.39098 0.99177 0.58762 0.0
N717 N 0.39392 0.09607 0.4794 0.0
H718 H 0.47698 0.03532 0.49397 0.0
H719 H 0.46072 0.07482 0.47474 0.0
H720 H 0.37278 0.11384 0.47532 0.0
H721 H 0.40992 0.09411 0.45701 0.0
H722 H 0.36791 0.98662 0.6029 0.0
H723 H 0.40912 0.9709 0.58878 0.0
H724 H 0.34833 0.03641 0.61586 0.0
H725 H 0.32848 0.07255 0.59356 0.0
C726 C 0.60621 0.46694 0.52306 0.0
C727 C 0.57367 0.46323 0.4992 0.0
C728 C 0.5993 0.41299 0.46776 0.0
C729 C 0.6298 0.41427 0.49419 0.0
N730 N 0.65804 0.43736 0.55172 0.0
N731 N 0.53666 0.43022 0.45169 0.0
C732 C 0.63224 0.43993 0.52308 0.0
C733 C 0.56948 0.43555 0.47224 0.0
N734 N 0.61284 0.4968 0.5451 0.0
N735 N 0.59942 0.39103 0.43785 0.0
H736 H 0.51437 0.44642 0.45418 0.0
H737 H 0.53041 0.4081 0.43429 0.0
H738 H 0.62103 0.37446 0.43354 0.0
H739 H 0.57985 0.39154 0.41582 0.0
H740 H 0.63808 0.50286 0.55989 0.0
H741 H 0.59454 0.51734 0.54606 0.0
H742 H 0.65816 0.45286 0.5754 0.0
H743 H 0.67707 0.41732 0.55367 0.0
C744 C 0.68138 0.25373 0.3555 0.0
C745 C 0.70375 0.26285 0.32604 0.0
C746 C 0.74483 0.3036 0.36564 0.0
C747 C 0.72282 0.29397 0.3952 0.0
N748 N 0.66559 0.26719 0.41692 0.0
N749 N 0.75079 0.30224 0.30017 0.0
C750 C 0.68938 0.27167 0.38956 0.0
C751 C 0.7335 0.28989 0.33022 0.0
N752 N 0.65414 0.22616 0.35165 0.0
N753 N 0.7771 0.32491 0.37172 0.0
H754 H 0.74274 0.29258 0.27398 0.0
H755 H 0.77067 0.32403 0.30061 0.0
H756 H 0.78538 0.33654 0.39705 0.0
H757 H 0.79661 0.32965 0.35234 0.0
H758 H 0.64007 0.21502 0.37329 0.0
H759 H 0.6471 0.21261 0.32706 0.0
H760 H 0.63897 0.25452 0.41323 0.0
H761 H 0.67119 0.27869 0.44274 0.0
C762 C 0.54287 0.9821 0.9201 0.0
C763 C 0.51061 -0.00041 0.90785 0.0
C764 C 0.53866 0.01657 0.85087 0.0
C765 C 0.57092 -0.00117 0.86296 0.0
N766 N 0.60047 0.95753 0.90449 0.0
N767 N 0.47376 0.02567 0.85897 0.0
C768 C 0.57197 0.9793 0.89621 0.0
C769 C 0.50717 0.01412 0.87223 0.0
N770 N 0.54628 0.96951 0.95505 0.0
N771 N 0.53891 0.03776 0.82034 0.0
H772 H 0.45032 0.02462 0.87422 0.0
H773 H 0.4683 0.03316 0.83195 0.0
H774 H 0.56143 0.04072 0.80399 0.0
H775 H 0.51792 0.05474 0.81265 0.0
H776 H 0.57087 0.96051 0.96709 0.0
H777 H 0.52501 0.97001 0.97291 0.0
H778 H 0.60112 0.93989 0.92659 0.0
H779 H 0.62194 0.95461 0.88727 0.0
C780 C 0.254 0.2032 0.36152 0.0
C781 C 0.28462 0.22894 0.35802 0.0
C782 C 0.30266 0.22388 0.42316 0.0
C783 C 0.27164 0.19866 0.42678 0.0
N784 N 0.2219 0.15902 0.3997 0.0
N785 N 0.34182 0.25931 0.38315 0.0
C786 C 0.2486 0.18661 0.39593 0.0
C787 C 0.31029 0.23765 0.38811 0.0
N788 N 0.22962 0.19551 0.33209 0.0
N789 N 0.32358 0.23614 0.4536 0.0
H790 H 0.34746 0.27154 0.35837 0.0
H791 H 0.36376 0.26335 0.4028 0.0
H792 H 0.3197 0.22587 0.47961 0.0
H793 H 0.34351 0.25787 0.45368 0.0
H794 H 0.20446 0.18025 0.33342 0.0
H795 H 0.23387 0.20578 0.30612 0.0
H796 H 0.20607 0.14653 0.37802 0.0
H797 H 0.21741 0.14664 0.4247 0.0
C798 C 0.47014 0.50343 0.90866 0.0
C799 C 0.50918 0.50079 0.9141 0.0
C800 C 0.51613 0.51447 0.84976 0.0
C801 C 0.4769 0.5121 0.84317 0.0
N802 N 0.41618 0.49849 0.86569 0.0
N803 N 0.56803 0.49492 0.88761 0.0
C804 C 0.45366 0.50512 0.87246 0.0
C805 C 0.53183 0.50378 0.88399 0.0
N806 N 0.44895 0.50532 0.93798 0.0
N807 N 0.53852 0.52812 0.8237 0.0
H808 H 0.58022 0.48513 0.9118 0.0
H809 H 0.58459 0.49341 0.86555 0.0
H810 H 0.52809 0.53796 0.79876 0.0
H811 H 0.56712 0.53352 0.82853 0.0
H812 H 0.42101 0.51092 0.93567 0.0
H813 H 0.46008 0.50453 0.96483 0.0
H814 H 0.39849 0.48948 0.88558 0.0
H815 H 0.40316 0.49889 0.83956 0.0
C816 C 0.73618 0.77869 0.1291 0.0
C817 C 0.73356 0.76507 0.16492 0.0
C818 C 0.73909 0.70377 0.14149 0.0
C819 C 0.75001 0.71861 0.10785 0.0
N820 N 0.76712 0.77302 0.07369 0.0
N821 N 0.7389 0.71431 0.20627 0.0
C822 C 0.75047 0.75684 0.10245 0.0
C823 C 0.73652 0.72742 0.17152 0.0
N824 N 0.72523 0.81253 0.12052 0.0
N825 N 0.73009 0.66742 0.14461 0.0
H826 H 0.73895 0.73079 0.22927 0.0
H827 H 0.74461 0.68755 0.2122 0.0
H828 H 0.72906 0.64957 0.12253 0.0
H829 H 0.71919 0.65596 0.1679 0.0
H830 H 0.72392 0.82236 0.09391 0.0
H831 H 0.71356 0.82892 0.13923 0.0
H832 H 0.77056 0.80114 0.07092 0.0
H833 H 0.78182 0.75916 0.05534 0.0
C834 C 0.99978 0.04617 0.10784 0.0
C835 C 0.98212 0.02377 0.0796 0.0
C836 C 0.93188 0.00554 0.11891 0.0
C837 C 0.94756 0.03085 0.14554 0.0
N838 N 0.99315 0.07953 0.16338 0.0
N839 N 0.92964 0.9851 0.05601 0.0
C840 C 0.98069 0.05227 0.13953 0.0
C841 C 0.94765 0.00419 0.0845 0.0
N842 N 0.03522 0.06092 0.10474 0.0
N843 N 0.90282 0.98194 0.12706 0.0
H844 H 0.94077 0.98307 0.03067 0.0
H845 H 0.90261 0.97346 0.05662 0.0
H846 H 0.89125 0.98196 0.15228 0.0
H847 H 0.89239 0.96044 0.11025 0.0
H848 H 0.05108 0.074 0.12612 0.0
H849 H 0.05014 0.0574 0.08181 0.0
H850 H 0.01462 0.09874 0.15823 0.0
H851 H 0.97998 0.08507 0.18699 0.0
C852 C 0.31356 0.78018 0.14046 0.0
C853 C 0.29282 0.78268 0.17172 0.0
C854 C 0.262 0.83439 0.14493 0.0
C855 C 0.27734 0.82714 0.11122 0.0
N856 N 0.33128 0.80816 0.08402 0.0
N857 N 0.24743 0.81174 0.20468 0.0
C858 C 0.30721 0.80431 0.11101 0.0
C859 C 0.26737 0.80997 0.17443 0.0
N860 N 0.338 0.75367 0.13822 0.0
N861 N 0.245 0.86581 0.14983 0.0
H862 H 0.25179 0.79528 0.22743 0.0
H863 H 0.22497 0.8278 0.20631 0.0
H864 H 0.2461 0.88715 0.13135 0.0
H865 H 0.23528 0.87345 0.17454 0.0
H866 H 0.35047 0.74763 0.1144 0.0
H867 H 0.34421 0.73608 0.15964 0.0
H868 H 0.35562 0.79465 0.0834 0.0
H869 H 0.329 0.8287 0.06477 0.0
C870 C 0.04176 0.46024 0.13459 0.0
C871 C 0.04023 0.48561 0.10557 0.0
C872 C 0.09495 0.52008 0.13344 0.0
C873 C 0.09953 0.49217 0.15958 0.0
N874 N 0.08004 0.43308 0.18241 0.0
N875 N 0.06956 0.53591 0.07359 0.0
C876 C 0.07358 0.46153 0.15957 0.0
C877 C 0.068 0.51452 0.10391 0.0
N878 N 0.01242 0.43553 0.13874 0.0
N879 N 0.11509 0.55264 0.13773 0.0
H880 H 0.0507 0.5325 0.05096 0.0
H881 H 0.09166 0.5548 0.0695 0.0
H882 H 0.13343 0.55853 0.16028 0.0
H883 H 0.11034 0.57511 0.12133 0.0
H884 H 0.01032 0.41873 0.16139 0.0
H885 H 0.98851 0.43413 0.12116 0.0
H886 H 0.06418 0.40842 0.1809 0.0
H887 H 0.1032 0.43291 0.20086 0.0
C888 C 0.39844 0.75214 0.27899 0.0
C889 C 0.36157 0.73846 0.28484 0.0
C890 C 0.38281 0.72043 0.34585 0.0
C891 C 0.41781 0.74 0.3427 0.0
N892 N 0.45221 0.78539 0.30758 0.0
N893 N 0.31746 0.72311 0.33029 0.0
C894 C 0.42384 0.75924 0.30968 0.0
C895 C 0.35326 0.72715 0.32041 0.0
N896 N 0.41006 0.75691 0.24463 0.0
N897 N 0.37789 0.69353 0.37095 0.0
H898 H 0.29512 0.73082 0.31333 0.0
H899 H 0.31097 0.71651 0.35685 0.0
H900 H 0.39985 0.68275 0.38615 0.0
H901 H 0.35271 0.67807 0.37215 0.0
H902 H 0.43766 0.76444 0.23978 0.0
H903 H 0.39351 0.74918 0.2213 0.0
H904 H 0.45562 0.801 0.28422 0.0
H905 H 0.46867 0.79517 0.33021 0.0
C906 C 0.95527 0.39048 0.99199 0.0
C907 C 0.98589 0.41657 0.9965 0.0
C908 C 0.02504 0.37563 0.96672 0.0
C909 C 0.99366 0.35059 0.95958 0.0
N910 N 0.92654 0.34092 0.95515 0.0
N911 N 0.04601 0.43857 0.97749 0.0
C912 C 0.95796 0.36019 0.96887 0.0
C913 C 0.01943 0.41071 0.98009 0.0
N914 N 0.92444 0.39317 0.01124 0.0
N915 N 0.06042 0.36547 0.96375 0.0
H916 H 0.04235 0.46487 0.98636 0.0
H917 H 0.06964 0.43635 0.963 0.0
H918 H 0.06672 0.33922 0.95736 0.0
H919 H 0.0839 0.38214 0.97203 0.0
H920 H 0.90316 0.37265 0.01144 0.0
H921 H 0.9217 0.414 0.02978 0.0
H922 H 0.89988 0.34892 0.95874 0.0
H923 H 0.92715 0.31954 0.93675 0.0
C924 C 0.63466 0.80847 0.26467 0.0
C925 C 0.67313 0.80744 0.27499 0.0
C926 C 0.65825 0.79499 0.33782 0.0
C927 C 0.62013 0.78932 0.32624 0.0
N928 N 0.57194 0.78713 0.27732 0.0
N929 N 0.72137 0.79329 0.32053 0.0
C930 C 0.60809 0.79552 0.28936 0.0
C931 C 0.68498 0.79922 0.31142 0.0
N932 N 0.62359 0.82222 0.23152 0.0
N933 N 0.66889 0.79694 0.37416 0.0
H934 H 0.74185 0.79439 0.30178 0.0
H935 H 0.73048 0.78356 0.34594 0.0
H936 H 0.6498 0.79532 0.39433 0.0
H937 H 0.69607 0.80429 0.384 0.0
H938 H 0.59603 0.82684 0.22393 0.0
H939 H 0.64241 0.83228 0.213 0.0
H940 H 0.56276 0.78728 0.24988 0.0
H941 H 0.55159 0.77719 0.29428 0.0
C942 C 0.99948 0.09623 0.94259 0.0
C943 C 0.02631 0.08747 0.97054 0.0
C944 C 0.0593 0.14728 0.96512 0.0
C945 C 0.03312 0.15565 0.93647 0.0
N946 N 0.98078 0.13823 0.89492 0.0
N947 N 0.08398 0.10208 0.00608 0.0
C948 C 0.00391 0.13009 0.92425 0.0
C949 C 0.05697 0.11223 0.98102 0.0
N950 N 0.96942 0.07243 0.93432 0.0
N951 N 0.08562 0.17341 0.97799 0.0
H952 H 0.08226 0.0776 0.02017 0.0
H953 H 0.1093 0.11682 0.01155 0.0
H954 H 0.08924 0.19901 0.96617 0.0
H955 H 0.10255 0.17083 0.0017 0.0
H956 H 0.94673 0.0784 0.91702 0.0
H957 H 0.96623 0.04683 0.94622 0.0
H958 H 0.96105 0.11981 0.88215 0.0
H959 H 0.98274 0.16329 0.88186 0.0
C960 C 0.33611 0.23166 0.21056 0.0
C961 C 0.34692 0.25345 0.24164 0.0
C962 C 0.41099 0.2605 0.22278 0.0
C963 C 0.39945 0.24105 0.19033 0.0
N964 N 0.35024 0.21311 0.15009 0.0
N965 N 0.39295 0.29216 0.27605 0.0
C966 C 0.36179 0.22786 0.18337 0.0
C967 C 0.38394 0.26887 0.24744 0.0
N968 N 0.30144 0.21415 0.20736 0.0
N969 N 0.44792 0.26997 0.23046 0.0
H970 H 0.37417 0.29805 0.29526 0.0
H971 H 0.41819 0.30749 0.27954 0.0
H972 H 0.4683 0.2647 0.21268 0.0
H973 H 0.45879 0.28067 0.25538 0.0
H974 H 0.29327 0.19462 0.18751 0.0
H975 H 0.28157 0.217 0.22635 0.0
H976 H 0.32245 0.20672 0.14184 0.0
H977 H 0.36809 0.21006 0.12927 0.0
C978 C 0.4974 0.41175 0.03448 0.0
C979 C 0.53344 0.42267 0.02351 0.0
C980 C 0.55577 0.36538 0.0468 0.0
C981 C 0.51858 0.3517 0.05073 0.0
N982 N 0.45283 0.36127 0.04389 0.0
N983 N 0.59599 0.40667 0.0139 0.0
C984 C 0.48899 0.37482 0.04389 0.0
C985 C 0.56257 0.3988 0.02855 0.0
N986 N 0.4713 0.43671 0.03617 0.0
N987 N 0.58464 0.3465 0.0608 0.0
H988 H 0.60179 0.42988 0.9986 0.0
H989 H 0.61663 0.38826 0.01375 0.0
H990 H 0.58057 0.32246 0.07543 0.0
H991 H 0.61227 0.3568 0.06145 0.0
H992 H 0.44569 0.43099 0.04719 0.0
H993 H 0.47677 0.46409 0.03005 0.0
H994 H 0.43047 0.37613 0.035 0.0
H995 H 0.44507 0.3343 0.04966 0.0
C996 C 0.64594 0.21414 0.16957 0.0
C997 C 0.6384 0.21845 0.20671 0.0
C998 C 0.57559 0.23413 0.18611 0.0
C999 C 0.58123 0.22311 0.1498 0.0
N1000 N 0.61997 0.18881 0.11264 0.0
N1001 N 0.59017 0.22062 0.24939 0.0
C1002 C 0.61583 0.20888 0.14309 0.0
C1003 C 0.60139 0.22474 0.21482 0.0
N1004 N 0.68149 0.21665 0.15891 0.0
N1005 N 0.54741 0.25527 0.19355 0.0
H1006 H 0.60709 0.21063 0.27058 0.0
H1007 H 0.5626 0.22272 0.25556 0.0
H1008 H 0.53063 0.2672 0.1735 0.0
H1009 H 0.54441 0.26526 0.21966 0.0
H1010 H 0.68746 0.21572 0.13155 0.0
H1011 H 0.70423 0.22447 0.17666 0.0
H1012 H 0.64461 0.17667 0.10837 0.0
H1013 H 0.59766 0.17977 0.09482 0.0
C1014 C 0.44421 0.1131 0.98124 0.0
C1015 C 0.46249 0.08338 0.9967 0.0
C1016 C 0.48529 0.12038 0.04998 0.0
C1017 C 0.46746 0.1503 0.03425 0.0
N1018 N 0.43429 0.17741 0.9832 0.0
N1019 N 0.50434 0.059 0.04267 0.0
C1020 C 0.44841 0.14738 0.99923 0.0
C1021 C 0.48423 0.08712 0.03021 0.0
N1022 N 0.42178 0.10808 0.94995 0.0
N1023 N 0.50289 0.12381 0.08401 0.0
H1024 H 0.50328 0.03391 0.02945 0.0
H1025 H 0.5238 0.06091 0.06482 0.0
H1026 H 0.50659 0.14846 0.09807 0.0
H1027 H 0.51266 0.10217 0.09909 0.0
H1028 H 0.40411 0.12715 0.93938 0.0
H1029 H 0.41897 0.0837 0.93539 0.0
H1030 H 0.42401 0.17829 0.95616 0.0
H1031 H 0.43483 0.20255 0.99618 0.0
C1032 C 0.32446 0.38024 0.75327 0.0
C1033 C 0.29216 0.38336 0.72974 0.0
C1034 C 0.31816 0.44121 0.70647 0.0
C1035 C 0.34991 0.43873 0.73107 0.0
N1036 N 0.37893 0.41106 0.7841 0.0
N1037 N 0.25469 0.41903 0.68889 0.0
C1038 C 0.35183 0.40968 0.75627 0.0
C1039 C 0.2879 0.4146 0.70785 0.0
N1040 N 0.32939 0.34877 0.77209 0.0
N1041 N 0.31752 0.46799 0.68078 0.0
H1042 H 0.23225 0.39965 0.68872 0.0
H1043 H 0.2483 0.44298 0.67566 0.0
H1044 H 0.33853 0.48859 0.67932 0.0
H1045 H 0.29733 0.46857 0.65931 0.0
H1046 H 0.3543 0.34327 0.78621 0.0
H1047 H 0.30952 0.32686 0.77145 0.0
H1048 H 0.3795 0.39256 0.8055 0.0
H1049 H 0.3988 0.43281 0.78796 0.0
C1050 C 0.25502 0.62704 0.76209 0.0
C1051 C 0.25849 0.66552 0.76043 0.0
C1052 C 0.32486 0.66393 0.75091 0.0
C1053 C 0.32062 0.62548 0.74871 0.0
N1054 N 0.28043 0.57038 0.74643 0.0
N1055 N 0.29484 0.72065 0.74713 0.0
C1056 C 0.28539 0.60692 0.75291 0.0
C1057 C 0.29291 0.684 0.75309 0.0
N1058 N 0.22306 0.60979 0.77327 0.0
N1059 N 0.35963 0.68123 0.75233 0.0
H1060 H 0.27198 0.73634 0.74829 0.0
H1061 H 0.31819 0.73496 0.73779 0.0
H1062 H 0.38383 0.66739 0.75178 0.0
H1063 H 0.36474 0.70888 0.75773 0.0
H1064 H 0.22037 0.58212 0.77892 0.0
H1065 H 0.20009 0.62363 0.77972 0.0
H1066 H 0.25449 0.55612 0.74508 0.0
H1067 H 0.30181 0.55466 0.73935 0.0
C1068 C 0.90523 0.43357 0.50374 0.0
C1069 C 0.90392 0.45526 0.47191 0.0
C1070 C 0.84382 0.42442 0.45146 0.0
C1071 C 0.84418 0.40438 0.48441 0.0
N1072 N 0.87039 0.3963 0.5456 0.0
N1073 N 0.8695 0.47629 0.41852 0.0
C1074 C 0.87354 0.4108 0.51163 0.0
C1075 C 0.87246 0.45212 0.44659 0.0
N1076 N 0.93716 0.43391 0.52588 0.0
N1077 N 0.81683 0.41618 0.4244 0.0
H1078 H 0.88998 0.49682 0.41403 0.0
H1079 H 0.84554 0.47789 0.40142 0.0
H1080 H 0.79488 0.39678 0.42741 0.0
H1081 H 0.81749 0.42677 0.39818 0.0
H1082 H 0.94108 0.41574 0.54725 0.0
H1083 H 0.96106 0.45022 0.52101 0.0
H1084 H 0.88925 0.40279 0.56763 0.0
H1085 H 0.84673 0.3809 0.5528 0.0
C1086 C 0.76139 0.86633 0.79433 0.0
C1087 C 0.74505 0.83603 0.77398 0.0
C1088 C 0.69427 0.87215 0.75017 0.0
C1089 C 0.71279 0.90325 0.76734 0.0
N1090 N 0.76358 0.93128 0.80545 0.0
N1091 N 0.69687 0.80903 0.73217 0.0
C1092 C 0.74606 0.90061 0.78967 0.0
C1093 C 0.71152 0.83855 0.752 0.0
N1094 N 0.7915 0.8622 0.81817 0.0
N1095 N 0.66017 0.8749 0.73235 0.0
H1096 H 0.70794 0.78366 0.73409 0.0
H1097 H 0.67487 0.8098 0.71256 0.0
H1098 H 0.64728 0.89932 0.73031 0.0
H1099 H 0.6434 0.85286 0.72182 0.0
H1100 H 0.80224 0.88191 0.8369 0.0
H1101 H 0.80475 0.83802 0.82097 0.0
H1102 H 0.79023 0.93245 0.81811 0.0
H1103 H 0.75201 0.95644 0.80461 0.0
C1104 C 0.60526 0.56918 0.03491 0.0
C1105 C 0.60734 0.54151 0.00859 0.0
C1106 C 0.66708 0.56906 0.99076 0.0
C1107 C 0.66571 0.5962 0.01788 0.0
N1108 N 0.63825 0.61743 0.0713 0.0
N1109 N 0.64407 0.50953 0.96835 0.0
C1110 C 0.63619 0.59482 0.0417 0.0
C1111 C 0.63961 0.53964 0.98882 0.0
N1112 N 0.5733 0.57172 0.05243 0.0
N1113 N 0.69316 0.57249 0.96538 0.0
H1114 H 0.62455 0.48735 0.96649 0.0
H1115 H 0.66863 0.505 0.95622 0.0
H1116 H 0.71345 0.59396 0.96521 0.0
H1117 H 0.69269 0.5558 0.94251 0.0
H1118 H 0.56842 0.59372 0.06875 0.0
H1119 H 0.55055 0.5528 0.04879 0.0
H1120 H 0.61939 0.61546 0.09159 0.0
H1121 H 0.66085 0.63605 0.0774 0.0
C1122 C 0.23083 0.66322 0.26065 0.0
C1123 C 0.25189 0.66536 0.22948 0.0
C1124 C 0.22369 0.60612 0.20936 0.0
C1125 C 0.20814 0.6012 0.24372 0.0
N1126 N 0.20442 0.62335 0.30542 0.0
N1127 N 0.27148 0.63733 0.17539 0.0
C1128 C 0.21342 0.62939 0.27027 0.0
C1129 C 0.24912 0.63645 0.20401 0.0
N1130 N 0.22723 0.69362 0.28095 0.0
N1131 N 0.21298 0.58278 0.18138 0.0
H1132 H 0.29017 0.6593 0.17042 0.0
H1133 H 0.27343 0.61515 0.15828 0.0
H1134 H 0.1929 0.56163 0.18405 0.0
H1135 H 0.22076 0.58685 0.15482 0.0
H1136 H 0.20947 0.69411 0.30217 0.0
H1137 H 0.23871 0.71918 0.27391 0.0
H1138 H 0.21124 0.64221 0.32627 0.0
H1139 H 0.19425 0.59825 0.31489 0.0
C1140 C 0.93412 0.55897 0.01038 0.0
C1141 C 0.92896 0.5298 0.03505 0.0
C1142 C 0.87294 0.55537 0.05545 0.0
C1143 C 0.87689 0.5835 0.02932 0.0
N1144 N 0.90642 0.60798 0.97681 0.0
N1145 N 0.89001 0.49584 0.07566 0.0
C1146 C 0.90612 0.58411 0.00527 0.0
C1147 C 0.8972 0.52661 0.05586 0.0
N1148 N 0.9663 0.56329 0.99272 0.0
N1149 N 0.84747 0.55714 0.08124 0.0
H1150 H 0.90744 0.47439 0.07694 0.0
H1151 H 0.86524 0.49018 0.0882 0.0
H1152 H 0.82953 0.57801 0.08244 0.0
H1153 H 0.84627 0.53966 0.10345 0.0
H1154 H 0.97358 0.58629 0.97766 0.0
H1155 H 0.98716 0.54506 0.99531 0.0
H1156 H 0.92483 0.60732 0.95619 0.0
H1157 H 0.88597 0.62634 0.97183 0.0
C1158 C 0.10392 0.96937 0.02776 0.0
C1159 C 0.07154 0.96703 0.00368 0.0
C1160 C 0.09456 0.91501 0.97278 0.0
C1161 C 0.12494 0.9152 0.99927 0.0
N1162 N 0.15424 0.9377 0.0566 0.0
N1163 N 0.03339 0.93568 0.95587 0.0
C1164 C 0.12858 0.94113 0.02797 0.0
C1165 C 0.06612 0.93932 0.97679 0.0
N1166 N 0.11162 -0.00097 0.04992 0.0
N1167 N 0.09351 0.89231 0.94332 0.0
H1168 H 0.01222 0.95332 0.95788 0.0
H1169 H 0.02604 0.91376 0.93848 0.0
H1170 H 0.11397 0.87424 0.9396 0.0
H1171 H 0.07417 0.89337 0.92117 0.0
H1172 H 0.13691 0.0041 0.06491 0.0
H1173 H 0.09419 0.02032 0.05089 0.0
H1174 H 0.15514 0.95342 0.08019 0.0
H1175 H 0.17233 0.91684 0.05861 0.0
loop_
_geom_bond_atom_site_label_1
_geom_bond_atom_site_label_2
_geom_bond_distance
_geom_bond_site_symmetry_2
_ccdc_geom_bond_type
H0 C3 0.931 1_655 S
H1 C6 0.928 1_565 S
H2 C8 0.931 . S
C3 H0 0.931 1_455 S
C3 C4 1.413 . S
C3 C5 1.360 . S
C4 C3 1.413 . S
C4 C8 1.429 1_554 S
C5 C3 1.360 . S
C5 C6 1.372 . S
C6 H1 0.928 1_545 S
C6 C5 1.372 . S
C6 C7 1.404 . S
C7 C6 1.404 . S
C7 C8 1.390 1_554 S
C8 H2 0.931 . S
C8 C4 1.429 1_556 S
C8 C7 1.390 1_556 S
H9 C12 0.931 . S
H10 C15 0.928 . S
H11 C17 0.930 . S
C12 H9 0.931 . S
C12 C13 1.413 . S
C12 C14 1.360 . S
C13 C12 1.413 . S
C13 C17 1.429 . S
C14 C12 1.360 . S
C14 C15 1.372 . S
C15 H10 0.928 . S
C15 C14 1.372 . S
C15 C16 1.404 . S
C16 C15 1.404 . S
C16 C17 1.391 . S
C17 H11 0.930 . S
C17 C13 1.429 . S
C17 C16 1.391 . S
H18 C21 0.931 . S
H19 C24 0.928 . S
H20 C26 0.930 1_556 S
C21 H18 0.931 . S
C21 C22 1.413 . S
C21 C23 1.360 1_655 S
C22 C21 1.413 . S
C22 C26 1.429 . S
C23 C21 1.360 1_455 S
C23 C24 1.372 . S
C24 H19 0.928 . S
C24 C23 1.372 . S
C24 C25 1.404 1_455 S
C25 C24 1.404 1_655 S
C25 C26 1.391 . S
C26 H20 0.930 1_554 S
C26 C22 1.429 . S
C26 C25 1.391 . S
H27 C30 0.931 . S
H28 C33 0.928 . S
H29 C35 0.930 . S
C30 H27 0.931 . S
C30 C31 1.413 . S
C30 C32 1.360 . S
C31 C30 1.413 . S
C31 C35 1.429 . S
C32 C30 1.360 . S
C32 C33 1.372 . S
C33 H28 0.928 . S
C33 C32 1.372 . S
C33 C34 1.404 . S
C34 C33 1.404 . S
C34 C35 1.391 . S
C35 H29 0.930 . S
C35 C31 1.429 . S
C35 C34 1.391 . S
H36 C39 0.931 . S
H37 C42 0.928 . S
H38 C44 0.930 . S
C39 H36 0.931 . S
C39 C40 1.413 . S
C39 C41 1.360 . S
C40 C39 1.413 . S
C40 C44 1.429 . S
C41 C39 1.360 . S
C41 C42 1.372 1_565 S
C42 H37 0.928 . S
C42 C41 1.372 1_545 S
C42 C43 1.404 1_545 S
C43 C42 1.404 1_565 S
C43 C44 1.391 . S
C44 H38 0.930 . S
C44 C40 1.429 . S
C44 C43 1.391 . S
H45 C48 0.931 . S
H46 C51 0.928 . S
H47 C53 0.930 . S
C48 H45 0.931 . S
C48 C49 1.413 . S
C48 C50 1.360 . S
C49 C48 1.413 . S
C49 C53 1.429 . S
C50 C48 1.360 . S
C50 C51 1.372 . S
C51 H46 0.928 . S
C51 C50 1.372 . S
C51 C52 1.404 . S
C52 C51 1.404 . S
C52 C53 1.391 . S
C53 H47 0.930 . S
C53 C49 1.429 . S
C53 C52 1.391 . S
H54 C57 0.931 . S
H55 C60 0.928 1_455 S
H56 C62 0.930 . S
C57 H54 0.931 . S
C57 C58 1.413 . S
C57 C59 1.360 . S
C58 C57 1.413 . S
C58 C62 1.429 . S
C59 C57 1.360 . S
C59 C60 1.372 . S
C60 H55 0.928 1_655 S
C60 C59 1.372 . S
C60 C61 1.404 . S
C61 C60 1.404 . S
C61 C62 1.391 . S
C62 H56 0.930 . S
C62 C58 1.429 . S
C62 C61 1.391 . S
H63 C66 0.931 . S
H64 C69 0.928 . S
H65 C71 0.930 . S
C66 H63 0.931 . S
C66 C67 1.413 . S
C66 C68 1.360 . S
C67 C66 1.413 . S
C67 C71 1.429 . S
C68 C66 1.360 . S
C68 C69 1.372 . S
C69 H64 0.928 . S
C69 C68 1.372 . S
C69 C70 1.404 . S
C70 C69 1.404 . S
C70 C71 1.391 . S
C71 H65 0.930 . S
C71 C67 1.429 . S
C71 C70 1.391 . S
H72 C75 0.931 . S
H73 C78 0.928 . S
H74 C80 0.930 . S
C75 H72 0.931 . S
C75 C76 1.413 . S
C75 C77 1.360 . S
C76 C75 1.413 . S
C76 C80 1.429 . S
C77 C75 1.360 . S
C77 C78 1.372 . S
C78 H73 0.928 . S
C78 C77 1.372 . S
C78 C79 1.404 . S
C79 C78 1.404 . S
C79 C80 1.391 . S
C80 H74 0.930 . S
C80 C76 1.429 . S
C80 C79 1.391 . S
H81 C84 0.931 1_545 S
H82 C87 0.928 . S
H83 C89 0.930 . S
C84 H81 0.931 1_565 S
C84 C85 1.413 . S
C84 C86 1.360 . S
C85 C84 1.413 . S
C85 C89 1.429 . S
C86 C84 1.360 . S
C86 C87 1.372 . S
C87 H82 0.928 . S
C87 C86 1.372 . S
C87 C88 1.404 . S
C88 C87 1.404 . S
C88 C89 1.391 . S
C89 H83 0.930 . S
C89 C85 1.429 . S
C89 C88 1.391 . S
H90 C93 0.931 . S
H91 C96 0.928 . S
H92 C98 0.930 . S
C93 H90 0.931 . S
C93 C94 1.413 . S
C93 C95 1.360 . S
C94 C93 1.413 . S
C94 C98 1.429 . S
C95 C93 1.360 . S
C95 C96 1.372 . S
C96 H91 0.928 . S
C96 C95 1.372 . S
C96 C97 1.404 . S
C97 C96 1.404 . S
C97 C98 1.391 . S
C98 H92 0.930 . S
C98 C94 1.429 . S
C98 C97 1.391 . S
H99 C102 0.931 . S
H100 C105 0.928 . S
H101 C107 0.930 . S
C102 H99 0.931 . S
C102 C103 1.413 . S
C102 C104 1.360 . S
C103 C102 1.413 . S
C103 C107 1.429 . S
C104 C102 1.360 . S
C104 C105 1.372 . S
C105 H100 0.928 . S
C105 C104 1.372 . S
C105 C106 1.404 . S
C106 C105 1.404 . S
C106 C107 1.391 . S
C107 H101 0.930 . S
C107 C103 1.429 . S
C107 C106 1.391 . S
H108 C111 0.931 . S
H109 C114 0.928 . S
H110 C116 0.930 . S
C111 H108 0.931 . S
C111 C112 1.413 . S
C111 C113 1.360 . S
C112 C111 1.413 . S
C112 C116 1.429 . S
C113 C111 1.360 . S
C113 C114 1.372 . S
C114 H109 0.928 . S
C114 C113 1.372 . S
C114 C115 1.404 . S
C115 C114 1.404 . S
C115 C116 1.391 . S
C116 H110 0.930 . S
C116 C112 1.429 . S
C116 C115 1.391 . S
H117 C120 0.931 . S
H118 C123 0.928 . S
H119 C125 0.930 1_554 S
C120 H117 0.931 . S
C120 C121 1.413 . S
C120 C122 1.360 . S
C121 C120 1.413 . S
C121 C125 1.429 . S
C122 C120 1.360 . S
C122 C123 1.372 . S
C123 H118 0.928 . S
C123 C122 1.372 . S
C123 C124 1.404 . S
C124 C123 1.404 . S
C124 C125 1.391 . S
C125 H119 0.930 1_556 S
C125 C121 1.429 . S
C125 C124 1.391 . S
H126 C129 0.931 . S
H127 C132 0.928 . S
H128 C134 0.930 . S
C129 H126 0.931 . S
C129 C130 1.413 . S
C129 C131 1.360 . S
C130 C129 1.413 . S
C130 C134 1.429 . S
C131 C129 1.360 . S
C131 C132 1.372 . S
C132 H127 0.928 . S
C132 C131 1.372 . S
C132 C133 1.404 . S
C133 C132 1.404 . S
C133 C134 1.391 . S
C134 H128 0.930 . S
C134 C130 1.429 . S
C134 C133 1.391 . S
H135 C138 0.948 . S
H136 C141 0.928 . S
H137 C143 0.930 1_565 S
C138 H135 0.948 . S
C138 C139 1.400 1_554 S
C138 C140 1.355 1_554 S
C139 C138 1.400 1_556 S
C139 C143 1.429 . S
C140 C138 1.355 1_556 S
C140 C141 1.372 . S
C141 H136 0.928 . S
C141 C140 1.372 . S
C141 C142 1.404 . S
C142 C141 1.404 . S
C142 C143 1.391 . S
C143 H137 0.930 1_545 S
C143 C139 1.429 . S
C143 C142 1.391 . S
Mg144 O145 2.028 . S
Mg144 O151 1.986 1_554 S
Mg144 O153 2.114 . S
Mg144 O154 2.251 . S
Mg144 O157 2.010 . S
O145 Mg144 2.028 . S
O145 C148 1.250 1_554 S
O146 Mg147 2.028 . S
O146 C148 1.248 . S
Mg147 O146 2.028 . S
Mg147 O152 2.032 . S
Mg147 O154 2.079 1_556 S
C148 O145 1.250 1_556 S
C148 O146 1.248 . S
C149 O150 1.264 . S
C149 O157 1.249 . S
O150 C149 1.264 . S
O151 Mg144 1.986 1_556 S
O151 C155 1.246 . S
O152 Mg147 2.032 . S
O152 C155 1.259 . S
O153 Mg144 2.114 . S
O153 C156 1.252 . S
O154 Mg144 2.251 . S
O154 Mg147 2.079 1_554 S
O154 C156 1.273 . S
C155 O151 1.246 . S
C155 O152 1.259 . S
C156 O153 1.252 . S
C156 O154 1.273 . S
O157 Mg144 2.010 . S
O157 C149 1.249 . S
Mg158 O159 2.028 . S
Mg158 O165 1.986 . S
Mg158 O167 2.114 . S
Mg158 O168 2.251 . S
Mg158 O171 2.010 . S
O159 Mg158 2.028 . S
O159 C162 1.250 . S
O160 Mg161 2.028 . S
O160 C162 1.248 . S
Mg161 O160 2.028 . S
Mg161 O166 2.032 . S
Mg161 O168 2.079 . S
C162 O159 1.250 . S
C162 O160 1.248 . S
C163 O164 1.264 . S
C163 O171 1.249 . S
O164 C163 1.264 . S
O165 Mg158 1.986 . S
O165 C169 1.246 . S
O166 Mg161 2.032 . S
O166 C169 1.259 . S
O167 Mg158 2.114 . S
O167 C170 1.252 . S
O168 Mg158 2.251 . S
O168 Mg161 2.079 . S
O168 C170 1.273 . S
C169 O165 1.246 . S
C169 O166 1.259 . S
C170 O167 1.252 . S
C170 O168 1.273 . S
O171 Mg158 2.010 . S
O171 C163 1.249 . S
Mg172 O173 2.028 . S
Mg172 O179 1.986 1_554 S
Mg172 O181 2.114 . S
Mg172 O182 2.251 . S
Mg172 O185 2.010 . S
O173 Mg172 2.028 . S
O173 C176 1.255 . S
O174 Mg175 2.028 . S
O174 C176 1.245 1_556 S
Mg175 O174 2.028 . S
Mg175 O180 2.032 . S
Mg175 O182 2.079 1_556 S
C176 O173 1.255 . S
C176 O174 1.245 1_554 S
C177 O178 1.264 . S
C177 O185 1.249 . S
O178 C177 1.264 . S
O179 Mg172 1.986 1_556 S
O179 C183 1.246 . S
O180 Mg175 2.032 . S
O180 C183 1.259 . S
O181 Mg172 2.114 . S
O181 C184 1.252 . S
O182 Mg172 2.251 . S
O182 Mg175 2.079 1_554 S
O182 C184 1.273 . S
C183 O179 1.246 . S
C183 O180 1.259 . S
C184 O181 1.252 . S
C184 O182 1.273 . S
O185 Mg172 2.010 . S
O185 C177 1.249 . S
Mg186 O187 2.028 1_545 S
Mg186 O193 1.986 . S
Mg186 O195 2.114 . S
Mg186 O196 2.251 . S
Mg186 O199 2.010 . S
O187 Mg186 2.028 1_565 S
O187 C190 1.250 . S
O188 Mg189 2.028 . S
O188 C190 1.248 . S
Mg189 O188 2.028 . S
Mg189 O194 2.032 . S
Mg189 O196 2.079 1_565 S
C190 O187 1.250 . S
C190 O188 1.248 . S
C191 O192 1.264 . S
C191 O199 1.249 . S
O192 C191 1.264 . S
O193 Mg186 1.986 . S
O193 C197 1.246 1_545 S
O194 Mg189 2.032 . S
O194 C197 1.259 . S
O195 Mg186 2.114 . S
O195 C198 1.252 . S
O196 Mg186 2.251 . S
O196 Mg189 2.079 1_545 S
O196 C198 1.273 . S
C197 O193 1.246 1_565 S
C197 O194 1.259 . S
C198 O195 1.252 . S
C198 O196 1.273 . S
O199 Mg186 2.010 . S
O199 C191 1.249 . S
Mg200 O201 2.028 . S
Mg200 O207 1.986 . S
Mg200 O209 2.114 . S
Mg200 O210 2.251 . S
Mg200 O213 2.010 . S
O201 Mg200 2.028 . S
O201 C204 1.250 . S
O202 Mg203 2.028 . S
O202 C204 1.248 . S
Mg203 O202 2.028 . S
Mg203 O208 2.032 . S
Mg203 O210 2.079 . S
C204 O201 1.250 . S
C204 O202 1.248 . S
C205 O206 1.264 . S
C205 O213 1.249 . S
O206 C205 1.264 . S
O207 Mg200 1.986 . S
O207 C211 1.246 . S
O208 Mg203 2.032 . S
O208 C211 1.259 . S
O209 Mg200 2.114 . S
O209 C212 1.252 . S
O210 Mg200 2.251 . S
O210 Mg203 2.079 . S
O210 C212 1.273 . S
C211 O207 1.246 . S
C211 O208 1.259 . S
C212 O209 1.252 . S
C212 O210 1.273 . S
O213 Mg200 2.010 . S
O213 C205 1.249 . S
Mg214 O215 2.028 . S
Mg214 O221 1.986 . S
Mg214 O223 2.114 . S
Mg214 O224 2.251 . S
Mg214 O227 2.010 . S
O215 Mg214 2.028 . S
O215 C218 1.250 . S
O216 Mg217 2.028 . S
O216 C218 1.248 . S
Mg217 O216 2.028 . S
Mg217 O222 2.032 . S
Mg217 O224 2.079 . S
C218 O215 1.250 . S
C218 O216 1.248 . S
C219 O220 1.264 . S
C219 O227 1.249 . S
O220 C219 1.264 . S
O221 Mg214 1.986 . S
O221 C225 1.246 . S
O222 Mg217 2.032 . S
O222 C225 1.259 . S
O223 Mg214 2.114 . S
O223 C226 1.252 . S
O224 Mg214 2.251 . S
O224 Mg217 2.079 . S
O224 C226 1.273 . S
C225 O221 1.246 . S
C225 O222 1.259 . S
C226 O223 1.252 . S
C226 O224 1.273 . S
O227 Mg214 2.010 . S
O227 C219 1.249 . S
Mg228 O229 2.028 . S
Mg228 O235 1.986 . S
Mg228 O237 2.114 . S
Mg228 O238 2.251 . S
Mg228 O241 2.010 . S
O229 Mg228 2.028 . S
O229 C232 1.250 . S
O230 Mg231 2.028 . S
O230 C232 1.248 . S
Mg231 O230 2.028 . S
Mg231 O236 2.032 . S
Mg231 O238 2.079 . S
C232 O229 1.250 . S
C232 O230 1.248 . S
C233 O234 1.264 . S
C233 O241 1.249 . S
O234 C233 1.264 . S
O235 Mg228 1.986 . S
O235 C239 1.246 . S
O236 Mg231 2.032 . S
O236 C239 1.259 . S
O237 Mg228 2.114 . S
O237 C240 1.252 . S
O238 Mg228 2.251 . S
O238 Mg231 2.079 . S
O238 C240 1.273 . S
C239 O235 1.246 . S
C239 O236 1.259 . S
C240 O237 1.252 . S
C240 O238 1.273 . S
O241 Mg228 2.010 . S
O241 C233 1.249 . S
Mg242 O243 2.028 1_545 S
Mg242 O249 1.986 1_545 S
Mg242 O251 2.114 . S
Mg242 O252 2.251 . S
Mg242 O255 2.010 . S
O243 Mg242 2.028 1_565 S
O243 C246 1.250 . S
O244 Mg245 2.028 . S
O244 C246 1.248 . S
Mg245 O244 2.028 . S
Mg245 O250 2.032 . S
Mg245 O252 2.079 1_565 S
C246 O243 1.250 . S
C246 O244 1.248 . S
C247 O248 1.264 . S
C247 O255 1.249 . S
O248 C247 1.264 . S
O249 Mg242 1.986 1_565 S
O249 C253 1.246 . S
O250 Mg245 2.032 . S
O250 C253 1.259 . S
O251 Mg242 2.114 . S
O251 C254 1.252 . S
O252 Mg242 2.251 . S
O252 Mg245 2.079 1_545 S
O252 C254 1.273 . S
C253 O249 1.246 . S
C253 O250 1.259 . S
C254 O251 1.252 . S
C254 O252 1.273 . S
O255 Mg242 2.010 . S
O255 C247 1.249 . S
Mg256 O257 2.028 1_455 S
Mg256 O263 1.986 . S
Mg256 O265 2.114 . S
Mg256 O266 2.251 1_455 S
Mg256 O269 2.010 . S
O257 Mg256 2.028 1_655 S
O257 C260 1.250 . S
O258 Mg259 2.028 . S
O258 C260 1.248 . S
Mg259 O258 2.028 . S
Mg259 O264 2.032 . S
Mg259 O266 2.079 . S
C260 O257 1.250 . S
C260 O258 1.248 . S
C261 O262 1.264 . S
C261 O269 1.249 . S
O262 C261 1.264 . S
O263 Mg256 1.986 . S
O263 C267 1.246 1_455 S
O264 Mg259 2.032 . S
O264 C267 1.259 . S
O265 Mg256 2.114 . S
O265 C268 1.252 . S
O266 Mg256 2.251 1_655 S
O266 Mg259 2.079 . S
O266 C268 1.273 1_655 S
C267 O263 1.246 1_655 S
C267 O264 1.259 . S
C268 O265 1.252 . S
C268 O266 1.273 1_455 S
O269 Mg256 2.010 . S
O269 C261 1.249 . S
Mg270 O271 2.028 . S
Mg270 O277 1.986 . S
Mg270 O279 2.114 . S
Mg270 O280 2.251 . S
Mg270 O283 2.010 . S
O271 Mg270 2.028 . S
O271 C274 1.250 . S
O272 Mg273 2.028 . S
O272 C274 1.248 . S
Mg273 O272 2.028 . S
Mg273 O278 2.032 . S
Mg273 O280 2.079 . S
C274 O271 1.250 . S
C274 O272 1.248 . S
C275 O276 1.264 . S
C275 O283 1.249 . S
O276 C275 1.264 . S
O277 Mg270 1.986 . S
O277 C281 1.246 . S
O278 Mg273 2.032 . S
O278 C281 1.259 . S
O279 Mg270 2.114 . S
O279 C282 1.252 . S
O280 Mg270 2.251 . S
O280 Mg273 2.079 . S
O280 C282 1.273 . S
C281 O277 1.246 . S
C281 O278 1.259 . S
C282 O279 1.252 . S
C282 O280 1.273 . S
O283 Mg270 2.010 . S
O283 C275 1.249 . S
Mg284 O285 2.028 1_655 S
Mg284 O291 1.986 . S
Mg284 O293 2.114 . S
Mg284 O294 2.251 1_655 S
Mg284 O297 2.010 . S
O285 Mg284 2.028 1_455 S
O285 C288 1.250 . S
O286 Mg287 2.028 . S
O286 C288 1.248 . S
Mg287 O286 2.028 . S
Mg287 O292 2.032 . S
Mg287 O294 2.079 . S
C288 O285 1.250 . S
C288 O286 1.248 . S
C289 O290 1.264 . S
C289 O297 1.249 . S
O290 C289 1.264 . S
O291 Mg284 1.986 . S
O291 C295 1.246 1_655 S
O292 Mg287 2.032 . S
O292 C295 1.259 . S
O293 Mg284 2.114 . S
O293 C296 1.252 . S
O294 Mg284 2.251 1_455 S
O294 Mg287 2.079 . S
O294 C296 1.273 1_455 S
C295 O291 1.246 1_455 S
C295 O292 1.259 . S
C296 O293 1.252 . S
C296 O294 1.273 1_655 S
O297 Mg284 2.010 . S
O297 C289 1.249 . S
Mg298 O299 2.028 . S
Mg298 O305 1.986 . S
Mg298 O307 2.114 . S
Mg298 O308 2.251 . S
Mg298 O311 2.010 . S
O299 Mg298 2.028 . S
O299 C302 1.250 . S
O300 Mg301 2.028 . S
O300 C302 1.248 . S
Mg301 O300 2.028 . S
Mg301 O306 2.032 . S
Mg301 O308 2.079 . S
C302 O299 1.250 . S
C302 O300 1.248 . S
C303 O304 1.264 . S
C303 O311 1.249 . S
O304 C303 1.264 . S
O305 Mg298 1.986 . S
O305 C309 1.246 . S
O306 Mg301 2.032 . S
O306 C309 1.259 . S
O307 Mg298 2.114 . S
O307 C310 1.252 . S
O308 Mg298 2.251 . S
O308 Mg301 2.079 . S
O308 C310 1.273 . S
C309 O305 1.246 . S
C309 O306 1.259 . S
C310 O307 1.252 . S
C310 O308 1.273 . S
O311 Mg298 2.010 . S
O311 C303 1.249 . S
C312 C313 1.363 . S
C312 C318 1.379 . S
C312 N320 1.356 . S
C313 C312 1.363 . S
C313 C319 1.363 . S
C314 C315 1.363 . S
C314 C319 1.379 . S
C314 N321 1.356 . S
C315 C314 1.363 . S
C315 C318 1.363 . S
N316 C318 1.356 . S
N316 H328 0.984 . S
N316 H329 0.985 . S
N317 C319 1.356 . S
N317 H322 0.984 . S
N317 H323 0.985 . S
C318 C312 1.379 . S
C318 C315 1.363 . S
C318 N316 1.356 . S
C319 C313 1.363 . S
C319 C314 1.379 . S
C319 N317 1.356 . S
N320 C312 1.356 . S
N320 H326 0.984 . S
N320 H327 0.984 . S
N321 C314 1.356 . S
N321 H324 0.984 . S
N321 H325 0.985 . S
H322 N317 0.984 . S
H323 N317 0.985 . S
H324 N321 0.984 . S
H325 N321 0.985 . S
H326 N320 0.984 . S
H327 N320 0.984 . S
H328 N316 0.984 . S
H329 N316 0.985 . S
C330 C331 1.363 . S
C330 C336 1.379 . S
C330 N338 1.356 . S
C331 C330 1.363 . S
C331 C337 1.363 . S
C332 C333 1.363 . S
C332 C337 1.379 . S
C332 N339 1.356 . S
C333 C332 1.363 . S
C333 C336 1.363 . S
N334 C336 1.356 . S
N334 H346 0.984 . S
N334 H347 0.985 . S
N335 C337 1.356 1_655 S
N335 H340 0.984 . S
N335 H341 0.985 . S
C336 C330 1.379 . S
C336 C333 1.363 . S
C336 N334 1.356 . S
C337 C331 1.363 . S
C337 C332 1.379 . S
C337 N335 1.356 1_455 S
N338 C330 1.356 . S
N338 H344 0.984 . S
N338 H345 0.984 . S
N339 C332 1.356 . S
N339 H342 0.984 . S
N339 H343 0.985 . S
H340 N335 0.984 . S
H341 N335 0.985 . S
H342 N339 0.984 . S
H343 N339 0.985 . S
H344 N338 0.984 . S
H345 N338 0.984 . S
H346 N334 0.984 . S
H347 N334 0.985 . S
C348 C349 1.363 . S
C348 C354 1.379 . S
C348 N356 1.356 . S
C349 C348 1.363 . S
C349 C355 1.363 . S
C350 C351 1.363 . S
C350 C355 1.379 . S
C350 N357 1.356 . S
C351 C350 1.363 . S
C351 C354 1.363 . S
N352 C354 1.356 . S
N352 H364 0.984 . S
N352 H365 0.985 . S
N353 C355 1.356 . S
N353 H358 0.984 . S
N353 H359 0.985 . S
C354 C348 1.379 . S
C354 C351 1.363 . S
C354 N352 1.356 . S
C355 C349 1.363 . S
C355 C350 1.379 . S
C355 N353 1.356 . S
N356 C348 1.356 . S
N356 H362 0.984 . S
N356 H363 0.984 . S
N357 C350 1.356 . S
N357 H360 0.984 . S
N357 H361 0.985 . S
H358 N353 0.984 . S
H359 N353 0.985 . S
H360 N357 0.984 . S
H361 N357 0.985 . S
H362 N356 0.984 . S
H363 N356 0.984 . S
H364 N352 0.984 . S
H365 N352 0.985 . S
C366 C367 1.363 . S
C366 C372 1.379 1_455 S
C366 N374 1.356 . S
C367 C366 1.363 . S
C367 C373 1.363 1_465 S
C368 C369 1.363 1_545 S
C368 C373 1.379 . S
C368 N375 1.356 . S
C369 C368 1.363 1_565 S
C369 C372 1.363 . S
N370 C372 1.356 . S
N370 H382 0.984 . S
N370 H383 0.985 . S
N371 C373 1.356 . S
N371 H376 0.984 1_655 S
N371 H377 0.985 . S
C372 C366 1.379 1_655 S
C372 C369 1.363 . S
C372 N370 1.356 . S
C373 C367 1.363 1_645 S
C373 C368 1.379 . S
C373 N371 1.356 . S
N374 C366 1.356 . S
N374 H380 0.984 . S
N374 H381 0.984 . S
N375 C368 1.356 . S
N375 H378 0.984 . S
N375 H379 0.985 . S
H376 N371 0.984 1_455 S
H377 N371 0.985 . S
H378 N375 0.984 . S
H379 N375 0.985 . S
H380 N374 0.984 . S
H381 N374 0.984 . S
H382 N370 0.984 . S
H383 N370 0.985 . S
C384 C385 1.363 . S
C384 C390 1.379 . S
C384 N392 1.356 . S
C385 C384 1.363 . S
C385 C391 1.363 . S
C386 C387 1.363 . S
C386 C391 1.379 . S
C386 N393 1.356 . S
C387 C386 1.363 . S
C387 C390 1.363 . S
N388 C390 1.356 . S
N388 H400 0.984 . S
N388 H401 0.985 . S
N389 C391 1.356 . S
N389 H394 0.984 . S
N389 H395 0.985 . S
C390 C384 1.379 . S
C390 C387 1.363 . S
C390 N388 1.356 . S
C391 C385 1.363 . S
C391 C386 1.379 . S
C391 N389 1.356 . S
N392 C384 1.356 . S
N392 H398 0.984 . S
N392 H399 0.984 . S
N393 C386 1.356 . S
N393 H396 0.984 . S
N393 H397 0.985 . S
H394 N389 0.984 . S
H395 N389 0.985 . S
H396 N393 0.984 . S
H397 N393 0.985 . S
H398 N392 0.984 . S
H399 N392 0.984 . S
H400 N388 0.984 . S
H401 N388 0.985 . S
C402 C403 1.363 . S
C402 C408 1.379 . S
C402 N410 1.356 . S
C403 C402 1.363 . S
C403 C409 1.363 . S
C404 C405 1.363 . S
C404 C409 1.379 . S
C404 N411 1.356 . S
C405 C404 1.363 . S
C405 C408 1.363 . S
N406 C408 1.356 . S
N406 H418 0.984 . S
N406 H419 0.985 . S
N407 C409 1.356 . S
N407 H412 0.984 . S
N407 H413 0.985 . S
C408 C402 1.379 . S
C408 C405 1.363 . S
C408 N406 1.356 . S
C409 C403 1.363 . S
C409 C404 1.379 . S
C409 N407 1.356 . S
N410 C402 1.356 . S
N410 H416 0.984 . S
N410 H417 0.984 . S
N411 C404 1.356 . S
N411 H414 0.984 . S
N411 H415 0.985 . S
H412 N407 0.984 . S
H413 N407 0.985 . S
H414 N411 0.984 . S
H415 N411 0.985 . S
H416 N410 0.984 . S
H417 N410 0.984 . S
H418 N406 0.984 . S
H419 N406 0.985 . S
C420 C421 1.363 . S
C420 C426 1.379 . S
C420 N428 1.356 . S
C421 C420 1.363 . S
C421 C427 1.363 . S
C422 C423 1.363 . S
C422 C427 1.379 . S
C422 N429 1.356 . S
C423 C422 1.363 . S
C423 C426 1.363 . S
N424 C426 1.356 . S
N424 H436 0.984 . S
N424 H437 0.985 . S
N425 C427 1.356 . S
N425 H430 0.984 . S
N425 H431 0.985 . S
C426 C420 1.379 . S
C426 C423 1.363 . S
C426 N424 1.356 . S
C427 C421 1.363 . S
C427 C422 1.379 . S
C427 N425 1.356 . S
N428 C420 1.356 . S
N428 H434 0.984 . S
N428 H435 0.984 . S
N429 C422 1.356 . S
N429 H432 0.984 . S
N429 H433 0.985 . S
H430 N425 0.984 . S
H431 N425 0.985 . S
H432 N429 0.984 . S
H433 N429 0.985 . S
H434 N428 0.984 . S
H435 N428 0.984 . S
H436 N424 0.984 . S
H437 N424 0.985 . S
C438 C439 1.363 . S
C438 C444 1.379 . S
C438 N446 1.356 . S
C439 C438 1.363 . S
C439 C445 1.363 1_565 S
C440 C441 1.363 1_545 S
C440 C445 1.379 . S
C440 N447 1.356 . S
C441 C440 1.363 1_565 S
C441 C444 1.363 . S
N442 C444 1.356 . S
N442 H454 0.984 . S
N442 H455 0.985 . S
N443 C445 1.356 . S
N443 H448 0.984 . S
N443 H449 0.985 . S
C444 C438 1.379 . S
C444 C441 1.363 . S
C444 N442 1.356 . S
C445 C439 1.363 1_545 S
C445 C440 1.379 . S
C445 N443 1.356 . S
N446 C438 1.356 . S
N446 H452 0.984 . S
N446 H453 0.984 . S
N447 C440 1.356 . S
N447 H450 0.984 . S
N447 H451 0.985 . S
H448 N443 0.984 . S
H449 N443 0.985 . S
H450 N447 0.984 . S
H451 N447 0.985 . S
H452 N446 0.984 . S
H453 N446 0.984 . S
H454 N442 0.984 . S
H455 N442 0.985 . S
C456 C457 1.363 . S
C456 C462 1.379 . S
C456 N464 1.356 . S
C457 C456 1.363 . S
C457 C463 1.363 . S
C458 C459 1.363 . S
C458 C463 1.379 . S
C458 N465 1.356 . S
C459 C458 1.363 . S
C459 C462 1.363 . S
N460 C462 1.356 . S
N460 H472 0.984 . S
N460 H473 0.985 . S
N461 C463 1.356 . S
N461 H466 0.984 . S
N461 H467 0.985 . S
C462 C456 1.379 . S
C462 C459 1.363 . S
C462 N460 1.356 . S
C463 C457 1.363 . S
C463 C458 1.379 . S
C463 N461 1.356 . S
N464 C456 1.356 . S
N464 H470 0.984 . S
N464 H471 0.984 . S
N465 C458 1.356 . S
N465 H468 0.984 . S
N465 H469 0.985 . S
H466 N461 0.984 . S
H467 N461 0.985 . S
H468 N465 0.984 . S
H469 N465 0.985 . S
H470 N464 0.984 . S
H471 N464 0.984 . S
H472 N460 0.984 . S
H473 N460 0.985 . S
C474 C475 1.363 . S
C474 C480 1.379 . S
C474 N482 1.356 . S
C475 C474 1.363 . S
C475 C481 1.363 . S
C476 C477 1.363 . S
C476 C481 1.379 . S
C476 N483 1.356 . S
C477 C476 1.363 . S
C477 C480 1.363 . S
N478 C480 1.356 . S
N478 H490 0.984 . S
N478 H491 0.985 . S
N479 C481 1.356 . S
N479 H484 0.984 . S
N479 H485 0.985 . S
C480 C474 1.379 . S
C480 C477 1.363 . S
C480 N478 1.356 . S
C481 C475 1.363 . S
C481 C476 1.379 . S
C481 N479 1.356 . S
N482 C474 1.356 . S
N482 H488 0.984 . S
N482 H489 0.984 . S
N483 C476 1.356 . S
N483 H486 0.984 . S
N483 H487 0.985 . S
H484 N479 0.984 . S
H485 N479 0.985 . S
H486 N483 0.984 . S
H487 N483 0.985 . S
H488 N482 0.984 . S
H489 N482 0.984 . S
H490 N478 0.984 . S
H491 N478 0.985 . S
C492 C493 1.363 . S
C492 C498 1.379 . S
C492 N500 1.356 . S
C493 C492 1.363 . S
C493 C499 1.363 . S
C494 C495 1.363 . S
C494 C499 1.379 . S
C494 N501 1.356 . S
C495 C494 1.363 . S
C495 C498 1.363 . S
N496 C498 1.356 . S
N496 H508 0.984 . S
N496 H509 0.985 . S
N497 C499 1.356 . S
N497 H502 0.984 . S
N497 H503 0.985 . S
C498 C492 1.379 . S
C498 C495 1.363 . S
C498 N496 1.356 . S
C499 C493 1.363 . S
C499 C494 1.379 . S
C499 N497 1.356 . S
N500 C492 1.356 . S
N500 H506 0.984 . S
N500 H507 0.984 . S
N501 C494 1.356 . S
N501 H504 0.984 . S
N501 H505 0.985 . S
H502 N497 0.984 . S
H503 N497 0.985 . S
H504 N501 0.984 . S
H505 N501 0.985 . S
H506 N500 0.984 . S
H507 N500 0.984 . S
H508 N496 0.984 . S
H509 N496 0.985 . S
C510 C511 1.363 . S
C510 C516 1.379 . S
C510 N518 1.356 . S
C511 C510 1.363 . S
C511 C517 1.363 . S
C512 C513 1.363 . S
C512 C517 1.379 . S
C512 N519 1.356 . S
C513 C512 1.363 . S
C513 C516 1.363 . S
N514 C516 1.356 . S
N514 H526 0.984 . S
N514 H527 0.985 . S
N515 C517 1.356 . S
N515 H520 0.984 . S
N515 H521 0.985 . S
C516 C510 1.379 . S
C516 C513 1.363 . S
C516 N514 1.356 . S
C517 C511 1.363 . S
C517 C512 1.379 . S
C517 N515 1.356 . S
N518 C510 1.356 . S
N518 H524 0.984 . S
N518 H525 0.984 . S
N519 C512 1.356 . S
N519 H522 0.984 . S
N519 H523 0.985 . S
H520 N515 0.984 . S
H521 N515 0.985 . S
H522 N519 0.984 . S
H523 N519 0.985 . S
H524 N518 0.984 . S
H525 N518 0.984 . S
H526 N514 0.984 . S
H527 N514 0.985 . S
C528 C529 1.363 . S
C528 C534 1.379 . S
C528 N536 1.356 . S
C529 C528 1.363 . S
C529 C535 1.363 . S
C530 C531 1.363 . S
C530 C535 1.379 . S
C530 N537 1.356 . S
C531 C530 1.363 . S
C531 C534 1.363 . S
N532 C534 1.356 . S
N532 H544 0.984 . S
N532 H545 0.985 . S
N533 C535 1.356 . S
N533 H538 0.984 . S
N533 H539 0.985 . S
C534 C528 1.379 . S
C534 C531 1.363 . S
C534 N532 1.356 . S
C535 C529 1.363 . S
C535 C530 1.379 . S
C535 N533 1.356 . S
N536 C528 1.356 . S
N536 H542 0.984 . S
N536 H543 0.984 . S
N537 C530 1.356 . S
N537 H540 0.984 . S
N537 H541 0.985 . S
H538 N533 0.984 . S
H539 N533 0.985 . S
H540 N537 0.984 . S
H541 N537 0.985 . S
H542 N536 0.984 . S
H543 N536 0.984 . S
H544 N532 0.984 . S
H545 N532 0.985 . S
C546 C547 1.363 . S
C546 C552 1.379 . S
C546 N554 1.356 . S
C547 C546 1.363 . S
C547 C553 1.363 . S
C548 C549 1.363 . S
C548 C553 1.379 . S
C548 N555 1.356 1_455 S
C549 C548 1.363 . S
C549 C552 1.363 . S
N550 C552 1.356 . S
N550 H562 0.984 . S
N550 H563 0.985 . S
N551 C553 1.357 . S
N551 H556 0.986 . S
N551 H557 0.983 1_455 S
C552 C546 1.379 . S
C552 C549 1.363 . S
C552 N550 1.356 . S
C553 C547 1.363 . S
C553 C548 1.379 . S
C553 N551 1.357 . S
N554 C546 1.356 . S
N554 H560 0.984 . S
N554 H561 0.984 . S
N555 C548 1.356 1_655 S
N555 H558 0.984 . S
N555 H559 0.985 . S
H556 N551 0.986 . S
H557 N551 0.983 1_655 S
H558 N555 0.984 . S
H559 N555 0.985 . S
H560 N554 0.984 . S
H561 N554 0.984 . S
H562 N550 0.984 . S
H563 N550 0.985 . S
C564 C565 1.363 . S
C564 C570 1.379 . S
C564 N572 1.356 . S
C565 C564 1.363 . S
C565 C571 1.363 . S
C566 C567 1.363 . S
C566 C571 1.379 . S
C566 N573 1.356 . S
C567 C566 1.363 . S
C567 C570 1.363 . S
N568 C570 1.356 . S
N568 H580 0.984 . S
N568 H581 0.985 . S
N569 C571 1.356 . S
N569 H574 0.984 . S
N569 H575 0.985 . S
C570 C564 1.379 . S
C570 C567 1.363 . S
C570 N568 1.356 . S
C571 C565 1.363 . S
C571 C566 1.379 . S
C571 N569 1.356 . S
N572 C564 1.356 . S
N572 H578 0.984 . S
N572 H579 0.984 . S
N573 C566 1.356 . S
N573 H576 0.984 . S
N573 H577 0.985 . S
H574 N569 0.984 . S
H575 N569 0.985 . S
H576 N573 0.984 . S
H577 N573 0.985 . S
H578 N572 0.984 . S
H579 N572 0.984 . S
H580 N568 0.984 . S
H581 N568 0.985 . S
C582 C583 1.363 . S
C582 C588 1.379 . S
C582 N590 1.356 . S
C583 C582 1.363 . S
C583 C589 1.363 . S
C584 C585 1.363 . S
C584 C589 1.379 . S
C584 N591 1.356 . S
C585 C584 1.363 . S
C585 C588 1.363 . S
N586 C588 1.356 1_455 S
N586 H598 0.984 . S
N586 H599 0.985 . S
N587 C589 1.356 . S
N587 H592 0.984 . S
N587 H593 0.985 . S
C588 C582 1.379 . S
C588 C585 1.363 . S
C588 N586 1.356 1_655 S
C589 C583 1.363 . S
C589 C584 1.379 . S
C589 N587 1.356 . S
N590 C582 1.356 . S
N590 H596 0.984 1_655 S
N590 H597 0.984 . S
N591 C584 1.356 . S
N591 H594 0.984 . S
N591 H595 0.985 . S
H592 N587 0.984 . S
H593 N587 0.985 . S
H594 N591 0.984 . S
H595 N591 0.985 . S
H596 N590 0.984 1_455 S
H597 N590 0.984 . S
H598 N586 0.984 . S
H599 N586 0.985 . S
C600 C601 1.363 . S
C600 C606 1.379 . S
C600 N608 1.356 . S
C601 C600 1.363 . S
C601 C607 1.363 . S
C602 C603 1.363 . S
C602 C607 1.379 . S
C602 N609 1.356 . S
C603 C602 1.363 . S
C603 C606 1.363 . S
N604 C606 1.356 . S
N604 H616 0.984 . S
N604 H617 0.985 . S
N605 C607 1.356 . S
N605 H610 0.984 . S
N605 H611 0.985 . S
C606 C600 1.379 . S
C606 C603 1.363 . S
C606 N604 1.356 . S
C607 C601 1.363 . S
C607 C602 1.379 . S
C607 N605 1.356 . S
N608 C600 1.356 . S
N608 H614 0.984 . S
N608 H615 0.984 . S
N609 C602 1.356 . S
N609 H612 0.984 . S
N609 H613 0.985 . S
H610 N605 0.984 . S
H611 N605 0.985 . S
H612 N609 0.984 . S
H613 N609 0.985 . S
H614 N608 0.984 . S
H615 N608 0.984 . S
H616 N604 0.984 . S
H617 N604 0.985 . S
C618 C619 1.363 . S
C618 C624 1.379 . S
C618 N626 1.356 . S
C619 C618 1.363 . S
C619 C625 1.363 . S
C620 C621 1.363 . S
C620 C625 1.379 . S
C620 N627 1.356 . S
C621 C620 1.363 . S
C621 C624 1.363 . S
N622 C624 1.356 . S
N622 H634 0.984 . S
N622 H635 0.985 . S
N623 C625 1.356 . S
N623 H628 0.984 . S
N623 H629 0.985 . S
C624 C618 1.379 . S
C624 C621 1.363 . S
C624 N622 1.356 . S
C625 C619 1.363 . S
C625 C620 1.379 . S
C625 N623 1.356 . S
N626 C618 1.356 . S
N626 H632 0.984 . S
N626 H633 0.984 . S
N627 C620 1.356 . S
N627 H630 0.984 . S
N627 H631 0.985 . S
H628 N623 0.984 . S
H629 N623 0.985 . S
H630 N627 0.984 . S
H631 N627 0.985 . S
H632 N626 0.984 . S
H633 N626 0.984 . S
H634 N622 0.984 . S
H635 N622 0.985 . S
C636 C637 1.363 . S
C636 C642 1.379 . S
C636 N644 1.356 . S
C637 C636 1.363 . S
C637 C643 1.363 1_556 S
C638 C639 1.363 1_554 S
C638 C643 1.379 . S
C638 N645 1.356 . S
C639 C638 1.363 1_556 S
C639 C642 1.363 . S
N640 C642 1.356 . S
N640 H652 0.984 . S
N640 H653 0.985 . S
N641 C643 1.356 . S
N641 H646 0.984 . S
N641 H647 0.985 . S
C642 C636 1.379 . S
C642 C639 1.363 . S
C642 N640 1.356 . S
C643 C637 1.363 1_554 S
C643 C638 1.379 . S
C643 N641 1.356 . S
N644 C636 1.356 . S
N644 H650 0.985 . S
N644 H651 0.984 1_565 S
N645 C638 1.356 . S
N645 H648 0.984 . S
N645 H649 0.985 . S
H646 N641 0.984 . S
H647 N641 0.985 . S
H648 N645 0.984 . S
H649 N645 0.985 . S
H650 N644 0.985 . S
H651 N644 0.984 1_545 S
H652 N640 0.984 . S
H653 N640 0.985 . S
C654 C655 1.363 . S
C654 C660 1.379 . S
C654 N662 1.356 . S
C655 C654 1.363 . S
C655 C661 1.363 . S
C656 C657 1.363 . S
C656 C661 1.379 . S
C656 N663 1.356 . S
C657 C656 1.363 . S
C657 C660 1.363 . S
N658 C660 1.356 . S
N658 H670 0.984 . S
N658 H671 0.985 . S
N659 C661 1.356 . S
N659 H664 0.984 . S
N659 H665 0.985 . S
C660 C654 1.379 . S
C660 C657 1.363 . S
C660 N658 1.356 . S
C661 C655 1.363 . S
C661 C656 1.379 . S
C661 N659 1.356 . S
N662 C654 1.356 . S
N662 H668 0.984 . S
N662 H669 0.984 . S
N663 C656 1.356 . S
N663 H666 0.984 . S
N663 H667 0.985 . S
H664 N659 0.984 . S
H665 N659 0.985 . S
H666 N663 0.984 . S
H667 N663 0.985 . S
H668 N662 0.984 . S
H669 N662 0.984 . S
H670 N658 0.984 . S
H671 N658 0.985 . S
C672 C673 1.363 . S
C672 C678 1.379 . S
C672 N680 1.356 . S
C673 C672 1.363 . S
C673 C679 1.363 . S
C674 C675 1.363 . S
C674 C679 1.379 . S
C674 N681 1.356 . S
C675 C674 1.363 . S
C675 C678 1.363 . S
N676 C678 1.356 . S
N676 H688 0.984 . S
N676 H689 0.985 . S
N677 C679 1.356 . S
N677 H682 0.984 1_545 S
N677 H683 0.985 . S
C678 C672 1.379 . S
C678 C675 1.363 . S
C678 N676 1.356 . S
C679 C673 1.363 . S
C679 C674 1.379 . S
C679 N677 1.356 . S
N680 C672 1.356 . S
N680 H686 0.984 . S
N680 H687 0.984 . S
N681 C674 1.356 . S
N681 H684 0.984 . S
N681 H685 0.985 . S
H682 N677 0.984 1_565 S
H683 N677 0.985 . S
H684 N681 0.984 . S
H685 N681 0.985 . S
H686 N680 0.984 . S
H687 N680 0.984 . S
H688 N676 0.984 . S
H689 N676 0.985 . S
C690 C691 1.363 . S
C690 C696 1.379 . S
C690 N698 1.356 . S
C691 C690 1.363 . S
C691 C697 1.363 . S
C692 C693 1.363 . S
C692 C697 1.379 . S
C692 N699 1.356 . S
C693 C692 1.363 . S
C693 C696 1.363 . S
N694 C696 1.356 . S
N694 H706 0.984 . S
N694 H707 0.985 . S
N695 C697 1.356 . S
N695 H700 0.984 . S
N695 H701 0.985 . S
C696 C690 1.379 . S
C696 C693 1.363 . S
C696 N694 1.356 . S
C697 C691 1.363 . S
C697 C692 1.379 . S
C697 N695 1.356 . S
N698 C690 1.356 . S
N698 H704 0.984 . S
N698 H705 0.984 . S
N699 C692 1.356 . S
N699 H702 0.984 . S
N699 H703 0.985 . S
H700 N695 0.984 . S
H701 N695 0.985 . S
H702 N699 0.984 . S
H703 N699 0.985 . S
H704 N698 0.984 . S
H705 N698 0.984 . S
H706 N694 0.984 . S
H707 N694 0.985 . S
C708 C709 1.363 . S
C708 C714 1.379 . S
C708 N716 1.356 1_545 S
C709 C708 1.363 . S
C709 C715 1.363 . S
C710 C711 1.363 . S
C710 C715 1.379 . S
C710 N717 1.356 . S
C711 C710 1.363 . S
C711 C714 1.363 . S
N712 C714 1.356 . S
N712 H724 0.984 . S
N712 H725 0.985 . S
N713 C715 1.356 . S
N713 H718 0.984 . S
N713 H719 0.985 . S
C714 C708 1.379 . S
C714 C711 1.363 . S
C714 N712 1.356 . S
C715 C709 1.363 . S
C715 C710 1.379 . S
C715 N713 1.356 . S
N716 C708 1.356 1_565 S
N716 H722 0.984 . S
N716 H723 0.984 . S
N717 C710 1.356 . S
N717 H720 0.984 . S
N717 H721 0.985 . S
H718 N713 0.984 . S
H719 N713 0.985 . S
H720 N717 0.984 . S
H721 N717 0.985 . S
H722 N716 0.984 . S
H723 N716 0.984 . S
H724 N712 0.984 . S
H725 N712 0.985 . S
C726 C727 1.363 . S
C726 C732 1.379 . S
C726 N734 1.356 . S
C727 C726 1.363 . S
C727 C733 1.363 . S
C728 C729 1.363 . S
C728 C733 1.379 . S
C728 N735 1.356 . S
C729 C728 1.363 . S
C729 C732 1.363 . S
N730 C732 1.356 . S
N730 H742 0.984 . S
N730 H743 0.985 . S
N731 C733 1.356 . S
N731 H736 0.984 . S
N731 H737 0.985 . S
C732 C726 1.379 . S
C732 C729 1.363 . S
C732 N730 1.356 . S
C733 C727 1.363 . S
C733 C728 1.379 . S
C733 N731 1.356 . S
N734 C726 1.356 . S
N734 H740 0.984 . S
N734 H741 0.984 . S
N735 C728 1.356 . S
N735 H738 0.984 . S
N735 H739 0.985 . S
H736 N731 0.984 . S
H737 N731 0.985 . S
H738 N735 0.984 . S
H739 N735 0.985 . S
H740 N734 0.984 . S
H741 N734 0.984 . S
H742 N730 0.984 . S
H743 N730 0.985 . S
C744 C745 1.363 . S
C744 C750 1.379 . S
C744 N752 1.356 . S
C745 C744 1.363 . S
C745 C751 1.363 . S
C746 C747 1.363 . S
C746 C751 1.379 . S
C746 N753 1.356 . S
C747 C746 1.363 . S
C747 C750 1.363 . S
N748 C750 1.356 . S
N748 H760 0.984 . S
N748 H761 0.985 . S
N749 C751 1.356 . S
N749 H754 0.984 . S
N749 H755 0.985 . S
C750 C744 1.379 . S
C750 C747 1.363 . S
C750 N748 1.356 . S
C751 C745 1.363 . S
C751 C746 1.379 . S
C751 N749 1.356 . S
N752 C744 1.356 . S
N752 H758 0.984 . S
N752 H759 0.984 . S
N753 C746 1.356 . S
N753 H756 0.984 . S
N753 H757 0.985 . S
H754 N749 0.984 . S
H755 N749 0.985 . S
H756 N753 0.984 . S
H757 N753 0.985 . S
H758 N752 0.984 . S
H759 N752 0.984 . S
H760 N748 0.984 . S
H761 N748 0.985 . S
C762 C763 1.363 1_565 S
C762 C768 1.379 . S
C762 N770 1.356 . S
C763 C762 1.363 1_545 S
C763 C769 1.363 . S
C764 C765 1.363 . S
C764 C769 1.379 . S
C764 N771 1.356 . S
C765 C764 1.363 . S
C765 C768 1.363 1_545 S
N766 C768 1.356 . S
N766 H778 0.984 . S
N766 H779 0.985 . S
N767 C769 1.356 . S
N767 H772 0.984 . S
N767 H773 0.985 . S
C768 C762 1.379 . S
C768 C765 1.363 1_565 S
C768 N766 1.356 . S
C769 C763 1.363 . S
C769 C764 1.379 . S
C769 N767 1.356 . S
N770 C762 1.356 . S
N770 H776 0.984 . S
N770 H777 0.984 . S
N771 C764 1.356 . S
N771 H774 0.984 . S
N771 H775 0.985 . S
H772 N767 0.984 . S
H773 N767 0.985 . S
H774 N771 0.984 . S
H775 N771 0.985 . S
H776 N770 0.984 . S
H777 N770 0.984 . S
H778 N766 0.984 . S
H779 N766 0.985 . S
C780 C781 1.363 . S
C780 C786 1.379 . S
C780 N788 1.356 . S
C781 C780 1.363 . S
C781 C787 1.363 . S
C782 C783 1.363 . S
C782 C787 1.379 . S
C782 N789 1.356 . S
C783 C782 1.363 . S
C783 C786 1.363 . S
N784 C786 1.356 . S
N784 H796 0.984 . S
N784 H797 0.985 . S
N785 C787 1.356 . S
N785 H790 0.984 . S
N785 H791 0.985 . S
C786 C780 1.379 . S
C786 C783 1.363 . S
C786 N784 1.356 . S
C787 C781 1.363 . S
C787 C782 1.379 . S
C787 N785 1.356 . S
N788 C780 1.356 . S
N788 H794 0.984 . S
N788 H795 0.984 . S
N789 C782 1.356 . S
N789 H792 0.984 . S
N789 H793 0.985 . S
H790 N785 0.984 . S
H791 N785 0.985 . S
H792 N789 0.984 . S
H793 N789 0.985 . S
H794 N788 0.984 . S
H795 N788 0.984 . S
H796 N784 0.984 . S
H797 N784 0.985 . S
C798 C799 1.363 . S
C798 C804 1.379 . S
C798 N806 1.356 . S
C799 C798 1.363 . S
C799 C805 1.363 . S
C800 C801 1.363 . S
C800 C805 1.379 . S
C800 N807 1.356 . S
C801 C800 1.363 . S
C801 C804 1.363 . S
N802 C804 1.356 . S
N802 H814 0.984 . S
N802 H815 0.985 . S
N803 C805 1.356 . S
N803 H808 0.984 . S
N803 H809 0.985 . S
C804 C798 1.379 . S
C804 C801 1.363 . S
C804 N802 1.356 . S
C805 C799 1.363 . S
C805 C800 1.379 . S
C805 N803 1.356 . S
N806 C798 1.356 . S
N806 H812 0.984 . S
N806 H813 0.984 . S
N807 C800 1.356 . S
N807 H810 0.984 . S
N807 H811 0.985 . S
H808 N803 0.984 . S
H809 N803 0.985 . S
H810 N807 0.984 . S
H811 N807 0.985 . S
H812 N806 0.984 . S
H813 N806 0.984 . S
H814 N802 0.984 . S
H815 N802 0.985 . S
C816 C817 1.363 . S
C816 C822 1.379 . S
C816 N824 1.356 . S
C817 C816 1.363 . S
C817 C823 1.363 . S
C818 C819 1.363 . S
C818 C823 1.379 . S
C818 N825 1.356 . S
C819 C818 1.363 . S
C819 C822 1.363 . S
N820 C822 1.356 . S
N820 H832 0.984 . S
N820 H833 0.985 . S
N821 C823 1.356 . S
N821 H826 0.984 . S
N821 H827 0.985 . S
C822 C816 1.379 . S
C822 C819 1.363 . S
C822 N820 1.356 . S
C823 C817 1.363 . S
C823 C818 1.379 . S
C823 N821 1.356 . S
N824 C816 1.356 . S
N824 H830 0.984 . S
N824 H831 0.984 . S
N825 C818 1.356 . S
N825 H828 0.984 . S
N825 H829 0.985 . S
H826 N821 0.984 . S
H827 N821 0.985 . S
H828 N825 0.984 . S
H829 N825 0.985 . S
H830 N824 0.984 . S
H831 N824 0.984 . S
H832 N820 0.984 . S
H833 N820 0.985 . S
C834 C835 1.363 . S
C834 C840 1.379 . S
C834 N842 1.356 1_655 S
C835 C834 1.363 . S
C835 C841 1.363 . S
C836 C837 1.363 . S
C836 C841 1.379 . S
C836 N843 1.356 1_545 S
C837 C836 1.363 . S
C837 C840 1.363 . S
N838 C840 1.356 . S
N838 H850 0.984 . S
N838 H851 0.985 . S
N839 C841 1.356 1_565 S
N839 H844 0.984 . S
N839 H845 0.985 . S
C840 C834 1.379 . S
C840 C837 1.363 . S
C840 N838 1.356 . S
C841 C835 1.363 . S
C841 C836 1.379 . S
C841 N839 1.356 1_545 S
N842 C834 1.356 1_455 S
N842 H848 0.984 . S
N842 H849 0.984 . S
N843 C836 1.356 1_565 S
N843 H846 0.984 . S
N843 H847 0.985 . S
H844 N839 0.984 . S
H845 N839 0.985 . S
H846 N843 0.984 . S
H847 N843 0.985 . S
H848 N842 0.984 . S
H849 N842 0.984 . S
H850 N838 0.984 . S
H851 N838 0.985 . S
C852 C853 1.363 . S
C852 C858 1.379 . S
C852 N860 1.356 . S
C853 C852 1.363 . S
C853 C859 1.363 . S
C854 C855 1.363 . S
C854 C859 1.379 . S
C854 N861 1.356 . S
C855 C854 1.363 . S
C855 C858 1.363 . S
N856 C858 1.356 . S
N856 H868 0.984 . S
N856 H869 0.985 . S
N857 C859 1.356 . S
N857 H862 0.984 . S
N857 H863 0.985 . S
C858 C852 1.379 . S
C858 C855 1.363 . S
C858 N856 1.356 . S
C859 C853 1.363 . S
C859 C854 1.379 . S
C859 N857 1.356 . S
N860 C852 1.356 . S
N860 H866 0.984 . S
N860 H867 0.984 . S
N861 C854 1.356 . S
N861 H864 0.984 . S
N861 H865 0.985 . S
H862 N857 0.984 . S
H863 N857 0.985 . S
H864 N861 0.984 . S
H865 N861 0.985 . S
H866 N860 0.984 . S
H867 N860 0.984 . S
H868 N856 0.984 . S
H869 N856 0.985 . S
C870 C871 1.363 . S
C870 C876 1.379 . S
C870 N878 1.356 1_455 S
C871 C870 1.363 . S
C871 C877 1.363 . S
C872 C873 1.363 . S
C872 C877 1.379 . S
C872 N879 1.356 . S
C873 C872 1.363 . S
C873 C876 1.363 . S
N874 C876 1.356 . S
N874 H886 0.984 . S
N874 H887 0.985 . S
N875 C877 1.356 . S
N875 H880 0.984 . S
N875 H881 0.985 . S
C876 C870 1.379 . S
C876 C873 1.363 . S
C876 N874 1.356 . S
C877 C871 1.363 . S
C877 C872 1.379 . S
C877 N875 1.356 . S
N878 C870 1.356 1_655 S
N878 H884 0.984 . S
N878 H885 0.984 . S
N879 C872 1.356 . S
N879 H882 0.984 . S
N879 H883 0.985 . S
H880 N875 0.984 . S
H881 N875 0.985 . S
H882 N879 0.984 . S
H883 N879 0.985 . S
H884 N878 0.984 . S
H885 N878 0.984 . S
H886 N874 0.984 . S
H887 N874 0.985 . S
C888 C889 1.363 . S
C888 C894 1.379 . S
C888 N896 1.356 . S
C889 C888 1.363 . S
C889 C895 1.363 . S
C890 C891 1.363 . S
C890 C895 1.379 . S
C890 N897 1.356 . S
C891 C890 1.363 . S
C891 C894 1.363 . S
N892 C894 1.356 . S
N892 H904 0.984 . S
N892 H905 0.985 . S
N893 C895 1.356 . S
N893 H898 0.984 . S
N893 H899 0.985 . S
C894 C888 1.379 . S
C894 C891 1.363 . S
C894 N892 1.356 . S
C895 C889 1.363 . S
C895 C890 1.379 . S
C895 N893 1.356 . S
N896 C888 1.356 . S
N896 H902 0.984 . S
N896 H903 0.984 . S
N897 C890 1.356 . S
N897 H900 0.984 . S
N897 H901 0.985 . S
H898 N893 0.984 . S
H899 N893 0.985 . S
H900 N897 0.984 . S
H901 N897 0.985 . S
H902 N896 0.984 . S
H903 N896 0.984 . S
H904 N892 0.984 . S
H905 N892 0.985 . S
C906 C907 1.370 . S
C906 C912 1.379 . S
C906 N914 1.356 . S
C907 C906 1.370 . S
C907 C913 1.362 1_656 S
C908 C909 1.363 1_455 S
C908 C913 1.379 1_556 S
C908 N915 1.356 . S
C909 C908 1.363 1_655 S
C909 C912 1.363 . S
N910 C912 1.356 . S
N910 H922 0.984 . S
N910 H923 0.985 . S
N911 C913 1.356 . S
N911 H916 0.984 . S
N911 H917 0.985 . S
C912 C906 1.379 . S
C912 C909 1.363 . S
C912 N910 1.356 . S
C913 C907 1.362 1_454 S
C913 C908 1.379 1_554 S
C913 N911 1.356 . S
N914 C906 1.356 . S
N914 H920 0.984 . S
N914 H921 0.984 . S
N915 C908 1.356 . S
N915 H918 0.984 . S
N915 H919 0.985 . S
H916 N911 0.984 . S
H917 N911 0.985 . S
H918 N915 0.984 . S
H919 N915 0.985 . S
H920 N914 0.984 . S
H921 N914 0.984 . S
H922 N910 0.984 . S
H923 N910 0.985 . S
C924 C925 1.363 . S
C924 C930 1.379 . S
C924 N932 1.356 . S
C925 C924 1.363 . S
C925 C931 1.363 . S
C926 C927 1.363 . S
C926 C931 1.379 . S
C926 N933 1.356 . S
C927 C926 1.363 . S
C927 C930 1.363 . S
N928 C930 1.356 . S
N928 H940 0.984 . S
N928 H941 0.985 . S
N929 C931 1.356 . S
N929 H934 0.984 . S
N929 H935 0.985 . S
C930 C924 1.379 . S
C930 C927 1.363 . S
C930 N928 1.356 . S
C931 C925 1.363 . S
C931 C926 1.379 . S
C931 N929 1.356 . S
N932 C924 1.356 . S
N932 H938 0.984 . S
N932 H939 0.984 . S
N933 C926 1.356 . S
N933 H936 0.984 . S
N933 H937 0.985 . S
H934 N929 0.984 . S
H935 N929 0.985 . S
H936 N933 0.984 . S
H937 N933 0.985 . S
H938 N932 0.984 . S
H939 N932 0.984 . S
H940 N928 0.984 . S
H941 N928 0.985 . S
C942 C943 1.363 1_655 S
C942 C948 1.379 . S
C942 N950 1.356 1_556 S
C943 C942 1.363 1_455 S
C943 C949 1.363 . S
C944 C945 1.363 . S
C944 C949 1.379 . S
C944 N951 1.356 . S
C945 C944 1.363 . S
C945 C948 1.363 1_455 S
N946 C948 1.356 . S
N946 H958 0.984 . S
N946 H959 0.985 . S
N947 C949 1.356 . S
N947 H952 0.984 . S
N947 H953 0.985 . S
C948 C942 1.379 . S
C948 C945 1.363 1_655 S
C948 N946 1.356 . S
C949 C943 1.363 . S
C949 C944 1.379 . S
C949 N947 1.356 . S
N950 C942 1.356 1_554 S
N950 H956 0.984 . S
N950 H957 0.984 . S
N951 C944 1.356 . S
N951 H954 0.984 . S
N951 H955 0.985 . S
H952 N947 0.984 . S
H953 N947 0.985 . S
H954 N951 0.984 . S
H955 N951 0.985 . S
H956 N950 0.984 . S
H957 N950 0.984 . S
H958 N946 0.984 . S
H959 N946 0.985 . S
C960 C961 1.363 . S
C960 C966 1.379 . S
C960 N968 1.356 . S
C961 C960 1.363 . S
C961 C967 1.363 . S
C962 C963 1.363 . S
C962 C967 1.379 . S
C962 N969 1.356 . S
C963 C962 1.363 . S
C963 C966 1.363 . S
N964 C966 1.356 . S
N964 H976 0.984 . S
N964 H977 0.985 . S
N965 C967 1.356 . S
N965 H970 0.984 . S
N965 H971 0.985 . S
C966 C960 1.379 . S
C966 C963 1.363 . S
C966 N964 1.356 . S
C967 C961 1.363 . S
C967 C962 1.379 . S
C967 N965 1.356 . S
N968 C960 1.356 . S
N968 H974 0.984 . S
N968 H975 0.984 . S
N969 C962 1.356 . S
N969 H972 0.984 . S
N969 H973 0.985 . S
H970 N965 0.984 . S
H971 N965 0.985 . S
H972 N969 0.984 . S
H973 N969 0.985 . S
H974 N968 0.984 . S
H975 N968 0.984 . S
H976 N964 0.984 . S
H977 N964 0.985 . S
C978 C979 1.363 . S
C978 C984 1.379 . S
C978 N986 1.356 . S
C979 C978 1.363 . S
C979 C985 1.363 . S
C980 C981 1.363 . S
C980 C985 1.379 . S
C980 N987 1.356 . S
C981 C980 1.363 . S
C981 C984 1.363 . S
N982 C984 1.356 . S
N982 H994 0.984 . S
N982 H995 0.985 . S
N983 C985 1.356 . S
N983 H988 0.984 1_554 S
N983 H989 0.985 . S
C984 C978 1.379 . S
C984 C981 1.363 . S
C984 N982 1.356 . S
C985 C979 1.363 . S
C985 C980 1.379 . S
C985 N983 1.356 . S
N986 C978 1.356 . S
N986 H992 0.984 . S
N986 H993 0.984 1_554 S
N987 C980 1.356 . S
N987 H990 0.984 . S
N987 H991 0.985 . S
H988 N983 0.984 1_556 S
H989 N983 0.985 . S
H990 N987 0.984 . S
H991 N987 0.985 . S
H992 N986 0.984 . S
H993 N986 0.984 1_556 S
H994 N982 0.984 . S
H995 N982 0.985 . S
C996 C997 1.363 . S
C996 C1002 1.379 . S
C996 N1004 1.356 . S
C997 C996 1.363 . S
C997 C1003 1.363 . S
C998 C999 1.363 . S
C998 C1003 1.379 . S
C998 N1005 1.356 . S
C999 C998 1.363 . S
C999 C1002 1.363 . S
N1000 C1002 1.356 . S
N1000 H1012 0.984 . S
N1000 H1013 0.985 . S
N1001 C1003 1.356 . S
N1001 H1006 0.984 . S
N1001 H1007 0.985 . S
C1002 C996 1.379 . S
C1002 C999 1.363 . S
C1002 N1000 1.356 . S
C1003 C997 1.363 . S
C1003 C998 1.379 . S
C1003 N1001 1.356 . S
N1004 C996 1.356 . S
N1004 H1010 0.984 . S
N1004 H1011 0.984 . S
N1005 C998 1.356 . S
N1005 H1008 0.984 . S
N1005 H1009 0.985 . S
H1006 N1001 0.984 . S
H1007 N1001 0.985 . S
H1008 N1005 0.984 . S
H1009 N1005 0.985 . S
H1010 N1004 0.984 . S
H1011 N1004 0.984 . S
H1012 N1000 0.984 . S
H1013 N1000 0.985 . S
C1014 C1015 1.363 . S
C1014 C1020 1.379 . S
C1014 N1022 1.356 1_554 S
C1015 C1014 1.363 . S
C1015 C1021 1.363 . S
C1016 C1017 1.363 . S
C1016 C1021 1.379 . S
C1016 N1023 1.356 . S
C1017 C1016 1.363 . S
C1017 C1020 1.363 . S
N1018 C1020 1.356 . S
N1018 H1030 0.984 . S
N1018 H1031 0.985 . S
N1019 C1021 1.356 . S
N1019 H1024 0.984 . S
N1019 H1025 0.985 . S
C1020 C1014 1.379 . S
C1020 C1017 1.363 . S
C1020 N1018 1.356 . S
C1021 C1015 1.363 . S
C1021 C1016 1.379 . S
C1021 N1019 1.356 . S
N1022 C1014 1.356 1_556 S
N1022 H1028 0.984 . S
N1022 H1029 0.984 . S
N1023 C1016 1.356 . S
N1023 H1026 0.984 . S
N1023 H1027 0.985 . S
H1024 N1019 0.984 . S
H1025 N1019 0.985 . S
H1026 N1023 0.984 . S
H1027 N1023 0.985 . S
H1028 N1022 0.984 . S
H1029 N1022 0.984 . S
H1030 N1018 0.984 . S
H1031 N1018 0.985 . S
C1032 C1033 1.363 . S
C1032 C1038 1.379 . S
C1032 N1040 1.356 . S
C1033 C1032 1.363 . S
C1033 C1039 1.363 . S
C1034 C1035 1.363 . S
C1034 C1039 1.379 . S
C1034 N1041 1.356 . S
C1035 C1034 1.363 . S
C1035 C1038 1.363 . S
N1036 C1038 1.356 . S
N1036 H1048 0.984 . S
N1036 H1049 0.985 . S
N1037 C1039 1.356 . S
N1037 H1042 0.984 . S
N1037 H1043 0.985 . S
C1038 C1032 1.379 . S
C1038 C1035 1.363 . S
C1038 N1036 1.356 . S
C1039 C1033 1.363 . S
C1039 C1034 1.379 . S
C1039 N1037 1.356 . S
N1040 C1032 1.356 . S
N1040 H1046 0.984 . S
N1040 H1047 0.984 . S
N1041 C1034 1.356 . S
N1041 H1044 0.984 . S
N1041 H1045 0.985 . S
H1042 N1037 0.984 . S
H1043 N1037 0.985 . S
H1044 N1041 0.984 . S
H1045 N1041 0.985 . S
H1046 N1040 0.984 . S
H1047 N1040 0.984 . S
H1048 N1036 0.984 . S
H1049 N1036 0.985 . S
C1050 C1051 1.363 . S
C1050 C1056 1.379 . S
C1050 N1058 1.356 . S
C1051 C1050 1.363 . S
C1051 C1057 1.363 . S
C1052 C1053 1.363 . S
C1052 C1057 1.379 . S
C1052 N1059 1.356 . S
C1053 C1052 1.363 . S
C1053 C1056 1.363 . S
N1054 C1056 1.356 . S
N1054 H1066 0.984 . S
N1054 H1067 0.985 . S
N1055 C1057 1.356 . S
N1055 H1060 0.984 . S
N1055 H1061 0.985 . S
C1056 C1050 1.379 . S
C1056 C1053 1.363 . S
C1056 N1054 1.356 . S
C1057 C1051 1.363 . S
C1057 C1052 1.379 . S
C1057 N1055 1.356 . S
N1058 C1050 1.356 . S
N1058 H1064 0.984 . S
N1058 H1065 0.984 . S
N1059 C1052 1.356 . S
N1059 H1062 0.984 . S
N1059 H1063 0.985 . S
H1060 N1055 0.984 . S
H1061 N1055 0.985 . S
H1062 N1059 0.984 . S
H1063 N1059 0.985 . S
H1064 N1058 0.984 . S
H1065 N1058 0.984 . S
H1066 N1054 0.984 . S
H1067 N1054 0.985 . S
C1068 C1069 1.363 . S
C1068 C1074 1.379 . S
C1068 N1076 1.356 . S
C1069 C1068 1.363 . S
C1069 C1075 1.363 . S
C1070 C1071 1.363 . S
C1070 C1075 1.379 . S
C1070 N1077 1.356 . S
C1071 C1070 1.363 . S
C1071 C1074 1.363 . S
N1072 C1074 1.356 . S
N1072 H1084 0.984 . S
N1072 H1085 0.985 . S
N1073 C1075 1.356 . S
N1073 H1078 0.984 . S
N1073 H1079 0.985 . S
C1074 C1068 1.379 . S
C1074 C1071 1.363 . S
C1074 N1072 1.356 . S
C1075 C1069 1.363 . S
C1075 C1070 1.379 . S
C1075 N1073 1.356 . S
N1076 C1068 1.356 . S
N1076 H1082 0.984 . S
N1076 H1083 0.984 . S
N1077 C1070 1.356 . S
N1077 H1080 0.984 . S
N1077 H1081 0.985 . S
H1078 N1073 0.984 . S
H1079 N1073 0.985 . S
H1080 N1077 0.984 . S
H1081 N1077 0.985 . S
H1082 N1076 0.984 . S
H1083 N1076 0.984 . S
H1084 N1072 0.984 . S
H1085 N1072 0.985 . S
C1086 C1087 1.363 . S
C1086 C1092 1.379 . S
C1086 N1094 1.356 . S
C1087 C1086 1.363 . S
C1087 C1093 1.363 . S
C1088 C1089 1.363 . S
C1088 C1093 1.379 . S
C1088 N1095 1.356 . S
C1089 C1088 1.363 . S
C1089 C1092 1.363 . S
N1090 C1092 1.356 . S
N1090 H1102 0.984 . S
N1090 H1103 0.985 . S
N1091 C1093 1.356 . S
N1091 H1096 0.984 . S
N1091 H1097 0.985 . S
C1092 C1086 1.379 . S
C1092 C1089 1.363 . S
C1092 N1090 1.356 . S
C1093 C1087 1.363 . S
C1093 C1088 1.379 . S
C1093 N1091 1.356 . S
N1094 C1086 1.356 . S
N1094 H1100 0.984 . S
N1094 H1101 0.984 . S
N1095 C1088 1.356 . S
N1095 H1098 0.984 . S
N1095 H1099 0.985 . S
H1096 N1091 0.984 . S
H1097 N1091 0.985 . S
H1098 N1095 0.984 . S
H1099 N1095 0.985 . S
H1100 N1094 0.984 . S
H1101 N1094 0.984 . S
H1102 N1090 0.984 . S
H1103 N1090 0.985 . S
C1104 C1105 1.363 1_554 S
C1104 C1110 1.379 . S
C1104 N1112 1.356 . S
C1105 C1104 1.363 1_556 S
C1105 C1111 1.363 . S
C1106 C1107 1.363 . S
C1106 C1111 1.379 . S
C1106 N1113 1.356 . S
C1107 C1106 1.363 . S
C1107 C1110 1.363 1_556 S
N1108 C1110 1.356 . S
N1108 H1120 0.984 . S
N1108 H1121 0.985 . S
N1109 C1111 1.356 . S
N1109 H1114 0.984 . S
N1109 H1115 0.985 . S
C1110 C1104 1.379 . S
C1110 C1107 1.363 1_554 S
C1110 N1108 1.356 . S
C1111 C1105 1.363 . S
C1111 C1106 1.379 . S
C1111 N1109 1.356 . S
N1112 C1104 1.356 . S
N1112 H1118 0.984 . S
N1112 H1119 0.984 . S
N1113 C1106 1.356 . S
N1113 H1116 0.984 . S
N1113 H1117 0.985 . S
H1114 N1109 0.984 . S
H1115 N1109 0.985 . S
H1116 N1113 0.984 . S
H1117 N1113 0.985 . S
H1118 N1112 0.984 . S
H1119 N1112 0.984 . S
H1120 N1108 0.984 . S
H1121 N1108 0.985 . S
C1122 C1123 1.363 . S
C1122 C1128 1.379 . S
C1122 N1130 1.356 . S
C1123 C1122 1.363 . S
C1123 C1129 1.363 . S
C1124 C1125 1.363 . S
C1124 C1129 1.379 . S
C1124 N1131 1.356 . S
C1125 C1124 1.363 . S
C1125 C1128 1.363 . S
N1126 C1128 1.356 . S
N1126 H1138 0.984 . S
N1126 H1139 0.985 . S
N1127 C1129 1.356 . S
N1127 H1132 0.984 . S
N1127 H1133 0.985 . S
C1128 C1122 1.379 . S
C1128 C1125 1.363 . S
C1128 N1126 1.356 . S
C1129 C1123 1.363 . S
C1129 C1124 1.379 . S
C1129 N1127 1.356 . S
N1130 C1122 1.356 . S
N1130 H1136 0.984 . S
N1130 H1137 0.984 . S
N1131 C1124 1.356 . S
N1131 H1134 0.984 . S
N1131 H1135 0.985 . S
H1132 N1127 0.984 . S
H1133 N1127 0.985 . S
H1134 N1131 0.984 . S
H1135 N1131 0.985 . S
H1136 N1130 0.984 . S
H1137 N1130 0.984 . S
H1138 N1126 0.984 . S
H1139 N1126 0.985 . S
C1140 C1141 1.363 . S
C1140 C1146 1.379 . S
C1140 N1148 1.356 1_554 S
C1141 C1140 1.363 . S
C1141 C1147 1.363 . S
C1142 C1143 1.363 . S
C1142 C1147 1.379 . S
C1142 N1149 1.356 . S
C1143 C1142 1.363 . S
C1143 C1146 1.363 . S
N1144 C1146 1.356 1_556 S
N1144 H1156 0.984 . S
N1144 H1157 0.985 . S
N1145 C1147 1.356 . S
N1145 H1150 0.984 . S
N1145 H1151 0.985 . S
C1146 C1140 1.379 . S
C1146 C1143 1.363 . S
C1146 N1144 1.356 1_554 S
C1147 C1141 1.363 . S
C1147 C1142 1.379 . S
C1147 N1145 1.356 . S
N1148 C1140 1.356 1_556 S
N1148 H1154 0.984 . S
N1148 H1155 0.984 . S
N1149 C1142 1.356 . S
N1149 H1152 0.984 . S
N1149 H1153 0.985 . S
H1150 N1145 0.984 . S
H1151 N1145 0.985 . S
H1152 N1149 0.984 . S
H1153 N1149 0.985 . S
H1154 N1148 0.984 . S
H1155 N1148 0.984 . S
H1156 N1144 0.984 . S
H1157 N1144 0.985 . S
C1158 C1159 1.363 . S
C1158 C1164 1.379 . S
C1158 N1166 1.356 1_565 S
C1159 C1158 1.363 . S
C1159 C1165 1.363 1_554 S
C1160 C1161 1.363 1_556 S
C1160 C1165 1.379 . S
C1160 N1167 1.356 . S
C1161 C1160 1.363 1_554 S
C1161 C1164 1.363 . S
N1162 C1164 1.356 . S
N1162 H1174 0.984 . S
N1162 H1175 0.985 . S
N1163 C1165 1.356 . S
N1163 H1168 0.984 . S
N1163 H1169 0.985 . S
C1164 C1158 1.379 . S
C1164 C1161 1.363 . S
C1164 N1162 1.356 . S
C1165 C1159 1.363 1_556 S
C1165 C1160 1.379 . S
C1165 N1163 1.356 . S
N1166 C1158 1.356 1_545 S
N1166 H1172 0.984 . S
N1166 H1173 0.984 . S
N1167 C1160 1.356 . S
N1167 H1170 0.984 . S
N1167 H1171 0.985 . S
H1168 N1163 0.984 . S
H1169 N1163 0.985 . S
H1170 N1167 0.984 . S
H1171 N1167 0.985 . S
H1172 N1166 0.984 . S
H1173 N1166 0.984 . S
H1174 N1162 0.984 . S
H1175 N1162 0.985 . S
C315 C155 1.465 . S
C313 C50 1.485 . S
C333 C163 1.266 . S
C331 C61 1.519 1_455 S
C349 C67 1.458 . S
C351 C183 1.435 . S
C369 C197 1.488 . S
C367 C41 1.509 . S
C387 C212 1.514 . S
C385 C95 1.516 . S
C405 C226 1.510 . S
C403 C113 1.506 . S
C421 C106 1.540 . S
C423 C240 1.539 . S
C441 C246 1.447 . S
C439 C86 1.490 . S
C457 C104 1.514 . S
C459 C260 1.479 . S
C477 C281 1.509 . S
C475 C88 1.534 . S
C493 C94 1.488 . S
C495 C261 1.248 . S
C513 C282 1.514 . S
C511 C112 1.512 . S
C529 C70 1.482 . S
C531 C289 1.226 . S
C547 C40 1.508 . S
C549 C295 1.490 . S
C565 C49 1.510 . S
C567 C288 1.468 . S
C583 C59 1.488 . S
C585 C296 1.490 . S
C601 C34 1.497 . S
C603 C190 1.456 . S
C619 C133 1.496 . S
C621 C191 1.253 . S
C639 C148 1.496 . S
C637 C139 1.540 1_565 S
C657 C169 1.453 . S
C655 C77 1.479 . S
C673 C43 1.485 1_545 S
C675 C204 1.449 . S
C693 C254 1.520 . S
C691 C103 1.520 . S
C711 C205 1.237 . S
C709 C85 1.477 1_545 S
C729 C233 1.249 . S
C727 C115 1.520 . S
C747 C239 1.465 . S
C745 C131 1.485 . S
C763 C142 1.519 . S
C765 C247 1.265 . S
C781 C76 1.458 . S
C783 C211 1.435 . S
C801 C225 1.488 . S
C799 C122 1.509 . S
C817 C32 1.516 . S
C819 C184 1.514 . S
C837 C198 1.510 . S
C835 C5 1.506 1_655 S
C855 C156 1.539 . S
C853 C16 1.540 . S
C873 C162 1.447 . S
C871 C23 1.490 . S
C889 C14 1.515 . S
C891 C274 1.479 . S
C907 C25 1.528 1_556 S
C909 C267 1.509 . S
C925 C31 1.488 . S
C927 C275 1.248 . S
C943 C4 1.512 1_556 S
C945 C268 1.514 . S
C963 C303 1.226 . S
C961 C79 1.482 . S
C981 C309 1.490 . S
C979 C121 1.508 1_554 S
C999 C302 1.468 . S
C997 C130 1.510 . S
C1015 C140 1.488 1_554 S
C1017 C310 1.490 . S
C1033 C97 1.497 . S
C1035 C218 1.456 . S
C1053 C219 1.253 . S
C1051 C52 1.496 . S
C1071 C232 1.496 . S
C1069 C58 1.540 . S
C1089 C253 1.453 . S
C1087 C68 1.479 . S
C1105 C124 1.485 . S
C1107 C176 1.446 1_556 S
C1125 C170 1.520 . S
C1123 C13 1.520 . S
C1141 C22 1.477 . S
C1143 C177 1.237 . S
C1161 C149 1.249 . S
C1159 C7 1.520 1_565 S
