# Generated by pormake.
# Topology hwx, (6,3)-cn, num edge types: 1
# Building blocks:
#     Node 0, Type 0, BuildingBlock: OJICUG_clean_sbu_0, # of connection points: 6
#     Node 1, Type 0, BuildingBlock: OJICUG_clean_sbu_0, # of connection points: 6
#     Node 2, Type 0, BuildingBlock: OJICUG_clean_sbu_0, # of connection points: 6
#     Node 3, Type 0, BuildingBlock: OJICUG_clean_sbu_0, # of connection points: 6
#     Node 4, Type 1, BuildingBlock: KAKCAD_clean_linker_0, # of connection points: 3
#     Node 5, Type 1, BuildingBlock: KAKCAD_clean_linker_0, # of connection points: 3
#     Node 6, Type 1, BuildingBlock: KAKCAD_clean_linker_0, # of connection points: 3
#     Node 7, Type 1, BuildingBlock: KAKCAD_clean_linker_0, # of connection points: 3
#     Node 8, Type 1, BuildingBlock: KAKCAD_clean_linker_0, # of connection points: 3
#     Node 9, Type 1, BuildingBlock: KAKCAD_clean_linker_0, # of connection points: 3
#     Node 10, Type 1, BuildingBlock: KAKCAD_clean_linker_0, # of connection points: 3
#     Node 11, Type 1, BuildingBlock: KAKCAD_clean_linker_0, # of connection points: 3
#     Edge 12, Type (0, 1), BuildingBlock: UVAHIK_clean_linker_0, # of connection points: 2
#     Edge 13, Type (0, 1), BuildingBlock: UVAHIK_clean_linker_0, # of connection points: 2
#     Edge 14, Type (0, 1), BuildingBlock: UVAHIK_clean_linker_0, # of connection points: 2
#     Edge 15, Type (0, 1), BuildingBlock: UVAHIK_clean_linker_0, # of connection points: 2
#     Edge 16, Type (0, 1), BuildingBlock: UVAHIK_clean_linker_0, # of connection points: 2
#     Edge 17, Type (0, 1), BuildingBlock: UVAHIK_clean_linker_0, # of connection points: 2
#     Edge 18, Type (0, 1), BuildingBlock: UVAHIK_clean_linker_0, # of connection points: 2
#     Edge 19, Type (0, 1), BuildingBlock: UVAHIK_clean_linker_0, # of connection points: 2
#     Edge 20, Type (0, 1), BuildingBlock: UVAHIK_clean_linker_0, # of connection points: 2
#     Edge 21, Type (0, 1), BuildingBlock: UVAHIK_clean_linker_0, # of connection points: 2
#     Edge 22, Type (0, 1), BuildingBlock: UVAHIK_clean_linker_0, # of connection points: 2
#     Edge 23, Type (0, 1), BuildingBlock: UVAHIK_clean_linker_0, # of connection points: 2
#     Edge 24, Type (0, 1), BuildingBlock: UVAHIK_clean_linker_0, # of connection points: 2
#     Edge 25, Type (0, 1), BuildingBlock: UVAHIK_clean_linker_0, # of connection points: 2
#     Edge 26, Type (0, 1), BuildingBlock: UVAHIK_clean_linker_0, # of connection points: 2
#     Edge 27, Type (0, 1), BuildingBlock: UVAHIK_clean_linker_0, # of connection points: 2
#     Edge 28, Type (0, 1), BuildingBlock: UVAHIK_clean_linker_0, # of connection points: 2
#     Edge 29, Type (0, 1), BuildingBlock: UVAHIK_clean_linker_0, # of connection points: 2
#     Edge 30, Type (0, 1), BuildingBlock: UVAHIK_clean_linker_0, # of connection points: 2
#     Edge 31, Type (0, 1), BuildingBlock: UVAHIK_clean_linker_0, # of connection points: 2
#     Edge 32, Type (0, 1), BuildingBlock: UVAHIK_clean_linker_0, # of connection points: 2
#     Edge 33, Type (0, 1), BuildingBlock: UVAHIK_clean_linker_0, # of connection points: 2
#     Edge 34, Type (0, 1), BuildingBlock: UVAHIK_clean_linker_0, # of connection points: 2
#     Edge 35, Type (0, 1), BuildingBlock: UVAHIK_clean_linker_0, # of connection points: 2
# Relax obj value: 0.076
# Max RMSD: 0.101
# Mean RMSD: 0.093
data_MOF--net-hwx--node1-OJICUG_clean_sbu_0--node2-KAKCAD_clean_linker_0--edge1-UVAHIK_clean_linker_0
_symmetry_space_group_name_H-M    P1
_symmetry_Int_Tables_number       1
_symmetry_cell_setting            triclinic
loop_
_symmetry_equiv_pos_as_xyz
'x, y, z'
_cell_length_a     75.566748
_cell_length_b     75.557495
_cell_length_c     34.062625
_cell_angle_alpha  89.928538
_cell_angle_beta   90.04219
_cell_angle_gamma 90.01481
loop_
_atom_site_label
_atom_site_type_symbol
_atom_site_fract_x
_atom_site_fract_y
_atom_site_fract_z
_atom_type_partial_charge
Sc0 Sc 0.21384 0.21593 0.05412 0.0
Sc1 Sc 0.18807 0.18684 0.99665 0.0
Sc2 Sc 0.21756 0.21684 0.9518 0.0
O3 O 0.20646 0.20649 0.00083 0.0
C4 C 0.21253 0.25134 0.00285 0.0
C5 C 0.17243 0.2116 0.0649 0.0
C6 C 0.17711 0.21206 0.92601 0.0
C7 C 0.21012 0.17438 0.07087 0.0
C8 C 0.25064 0.21427 0.01023 0.0
C9 C 0.21615 0.17596 0.93044 0.0
O10 O 0.21421 0.2432 0.0353 0.0
O11 O 0.17119 0.19874 0.04087 0.0
O12 O 0.19271 0.21798 0.92153 0.0
O13 O 0.2144 0.19008 0.08017 0.0
O14 O 0.2438 0.21704 0.97666 0.0
O15 O 0.20277 0.17271 0.95199 0.0
O16 O 0.24151 0.21257 0.04131 0.0
O17 O 0.2014 0.17071 0.03998 0.0
O18 O 0.22343 0.1911 0.92869 0.0
O19 O 0.18683 0.21983 0.07122 0.0
O20 O 0.2125 0.24353 0.96991 0.0
O21 O 0.17299 0.201 0.95271 0.0
Sc22 Sc 0.27894 0.71471 0.44933 0.0
Sc23 Sc 0.30749 0.68664 0.50317 0.0
Sc24 Sc 0.27695 0.71428 0.55193 0.0
O25 O 0.28784 0.70517 0.50146 0.0
C26 C 0.27955 0.74959 0.50236 0.0
C27 C 0.32047 0.71294 0.4349 0.0
C28 C 0.31791 0.71145 0.57492 0.0
C29 C 0.28498 0.67377 0.42964 0.0
C30 C 0.24305 0.71077 0.49627 0.0
C31 C 0.28069 0.6731 0.56955 0.0
O32 O 0.278 0.74177 0.46951 0.0
O33 O 0.32323 0.70053 0.45956 0.0
O34 O 0.30214 0.71667 0.58038 0.0
O35 O 0.27895 0.68911 0.4224 0.0
O36 O 0.25031 0.71323 0.5295 0.0
O37 O 0.29386 0.67079 0.54681 0.0
O38 O 0.25173 0.71016 0.46441 0.0
O39 O 0.29496 0.67043 0.45882 0.0
O40 O 0.27298 0.68794 0.57357 0.0
O41 O 0.30529 0.71973 0.42926 0.0
O42 O 0.28013 0.74141 0.53488 0.0
O43 O 0.32218 0.70076 0.54774 0.0
Sc44 Sc 0.77885 0.77909 0.94384 0.0
Sc45 Sc 0.80864 0.80817 0.99077 0.0
Sc46 Sc 0.78111 0.7799 0.04655 0.0
O47 O 0.78957 0.78909 0.99376 0.0
C48 C 0.74497 0.78195 -0.00051 0.0
C49 C 0.78151 0.82009 0.92345 0.0
C50 C 0.78574 0.82129 0.06343 0.0
C51 C 0.81974 0.78257 0.921 0.0
C52 C 0.78277 0.74445 0.99556 0.0
C53 C 0.8225 0.78359 0.06118 0.0
O54 O 0.75222 0.77964 0.96625 0.0
O55 O 0.7946 0.82298 0.9461 0.0
O56 O 0.78013 0.80587 0.07155 0.0
O57 O 0.80408 0.77698 0.91562 0.0
O58 O 0.7813 0.75258 0.02805 0.0
O59 O 0.82481 0.79554 0.03528 0.0
O60 O 0.78274 0.75227 0.96257 0.0
O61 O 0.82372 0.79375 0.94744 0.0
O62 O 0.80761 0.7763 0.06748 0.0
O63 O 0.77413 0.80504 0.92039 0.0
O64 O 0.75369 0.78305 0.03127 0.0
O65 O 0.79564 0.82457 0.03411 0.0
Sc66 Sc 0.71326 0.27659 0.55176 0.0
Sc67 Sc 0.68512 0.30691 0.5032 0.0
Sc68 Sc 0.71443 0.27989 0.44902 0.0
O69 O 0.70424 0.28782 0.50132 0.0
C70 C 0.74894 0.28044 0.50243 0.0
C71 C 0.71002 0.31725 0.57569 0.0
C72 C 0.71102 0.32163 0.4367 0.0
C73 C 0.6718 0.27997 0.56894 0.0
C74 C 0.71058 0.24328 0.49513 0.0
C75 C 0.67345 0.28426 0.42837 0.0
O76 O 0.74069 0.27808 0.53449 0.0
O77 O 0.69816 0.32097 0.55043 0.0
O78 O 0.71758 0.30657 0.42889 0.0
O79 O 0.68707 0.27355 0.57523 0.0
O80 O 0.71249 0.25215 0.46366 0.0
O81 O 0.67002 0.29488 0.45632 0.0
O82 O 0.71042 0.25028 0.529 0.0
O83 O 0.66896 0.29211 0.54384 0.0
O84 O 0.68877 0.27788 0.42243 0.0
O85 O 0.71675 0.30191 0.5792 0.0
O86 O 0.74121 0.28153 0.46945 0.0
O87 O 0.69906 0.32391 0.46247 0.0
C88 C 0.20652 0.53541 0.85266 0.0
C89 C 0.2224 0.54492 0.84837 0.0
C90 C 0.20217 0.52764 0.88872 0.0
C91 C 0.2135 0.52954 0.92115 0.0
C92 C 0.22948 0.53878 0.91661 0.0
C93 C 0.23392 0.54634 0.88059 0.0
C94 C 0.20867 0.52226 0.96006 0.0
C95 C 0.20378 0.50447 0.96423 0.0
C96 C 0.20061 0.49717 0.00166 0.0
C97 C 0.2022 0.50815 0.03491 0.0
C98 C 0.2075 0.52589 0.03118 0.0
C99 C 0.21027 0.5329 0.99352 0.0
C100 C 0.21183 0.53664 0.06645 0.0
C101 C 0.20164 0.53556 0.10097 0.0
C102 C 0.2268 0.5477 0.06607 0.0
C103 C 0.23135 0.55758 0.09901 0.0
C104 C 0.2212 0.55655 0.13339 0.0
C105 C 0.19733 0.4778 0.00615 0.0
C106 C 0.18819 0.46822 0.97712 0.0
C107 C 0.20428 0.46851 0.0385 0.0
C108 C 0.20252 0.45019 0.04126 0.0
C109 C 0.19425 0.44049 0.01119 0.0
C110 C 0.18684 0.4498 0.97937 0.0
C111 C 0.20635 0.54536 0.13426 0.0
H112 H 0.19744 0.53408 0.82822 0.0
H113 H 0.18977 0.52055 0.89156 0.0
H114 H 0.23854 0.54026 0.94107 0.0
H115 H 0.24614 0.55376 0.8783 0.0
H116 H 0.20345 0.49615 0.93837 0.0
H117 H 0.214 0.54667 0.99014 0.0
H118 H 0.2 0.50273 0.06392 0.0
H119 H 0.18998 0.52725 0.10219 0.0
H120 H 0.23528 0.54848 0.04051 0.0
H121 H 0.24307 0.56583 0.0978 0.0
H122 H 0.18232 0.47489 0.95215 0.0
H123 H 0.21166 0.47523 0.06128 0.0
H124 H 0.19828 0.5444 0.16044 0.0
H125 H 0.18047 0.44288 0.95542 0.0
H126 H 0.20799 0.44362 0.06679 0.0
C127 C 0.95739 0.71665 0.35432 0.0
C128 C 0.94617 0.73145 0.3564 0.0
C129 C 0.96611 0.71053 0.38801 0.0
C130 C 0.96378 0.71918 0.4242 0.0
C131 C 0.9532 0.73445 0.42564 0.0
C132 C 0.94445 0.74046 0.39219 0.0
C133 C 0.97187 0.71215 0.46076 0.0
C134 C 0.98952 0.70636 0.46142 0.0
C135 C -0.00255 0.70062 0.4967 0.0
C136 C 0.98724 0.70047 0.5313 0.0
C137 C 0.96985 0.70687 0.53126 0.0
C138 C 0.96215 0.71226 0.49582 0.0
C139 C 0.96046 0.71003 0.56869 0.0
C140 C 0.95936 0.69688 0.5978 0.0
C141 C 0.95302 0.72674 0.57586 0.0
C142 C 0.94463 0.73028 0.61136 0.0
C143 C 0.94337 0.71716 0.64043 0.0
C144 C 0.01678 0.69671 0.49824 0.0
C145 C 0.02564 0.68931 0.46584 0.0
C146 C 0.02679 0.70146 0.53146 0.0
C147 C 0.04509 0.69931 0.53192 0.0
C148 C 0.05406 0.69287 0.49875 0.0
C149 C 0.04407 0.68758 0.46593 0.0
C150 C 0.95072 0.70038 0.63331 0.0
H151 H 0.95889 0.70944 0.32706 0.0
H152 H 0.97418 0.69872 0.38602 0.0
H153 H 0.95154 0.74172 0.45278 0.0
H154 H 0.93616 0.75212 0.39441 0.0
H155 H -0.00269 0.7073 0.43482 0.0
H156 H 0.94856 0.71686 0.4958 0.0
H157 H 0.99303 0.69621 0.55882 0.0
H158 H 0.96504 0.68391 0.59293 0.0
H159 H 0.95389 0.73719 0.55413 0.0
H160 H 0.93887 0.74325 0.61585 0.0
H161 H 0.01841 0.68517 0.43999 0.0
H162 H 0.02066 0.70747 0.55685 0.0
H163 H 0.9499 0.69004 0.65531 0.0
H164 H 0.05047 0.68263 0.43973 0.0
H165 H 0.05221 0.70307 0.5582 0.0
C166 C 0.76981 0.46169 0.14472 0.0
C167 C 0.77361 0.4436 0.14937 0.0
C168 C 0.77409 0.47045 0.10991 0.0
C169 C 0.78246 0.46141 0.07899 0.0
C170 C 0.7868 0.44347 0.08413 0.0
C171 C 0.78238 0.43465 0.11885 0.0
C172 C 0.78565 0.47049 0.04088 0.0
C173 C 0.79054 0.4884 0.03999 0.0
C174 C 0.79111 0.49788 0.00446 0.0
C175 C 0.78795 0.48877 0.96911 0.0
C176 C 0.78384 0.47062 0.96923 0.0
C177 C 0.78249 0.46168 0.00531 0.0
C178 C 0.78013 0.46105 0.932 0.0
C179 C 0.77009 0.46898 0.90196 0.0
C180 C 0.78613 0.44361 0.92686 0.0
C181 C 0.7818 0.43414 0.89306 0.0
C182 C 0.77148 0.44191 0.86329 0.0
C183 C 0.79366 0.51745 0.00476 0.0
C184 C 0.78673 0.52765 0.03568 0.0
C185 C 0.80226 0.52623 0.9737 0.0
C186 C 0.80336 0.54472 0.97302 0.0
C187 C 0.79616 0.55487 0.00373 0.0
C188 C 0.7882 0.54602 0.03545 0.0
C189 C 0.76586 0.45953 0.86795 0.0
H190 H 0.76333 0.46907 0.16782 0.0
H191 H 0.77031 0.48421 0.10688 0.0
H192 H 0.79343 0.43615 0.06111 0.0
H193 H 0.78537 0.42067 0.12125 0.0
H194 H 0.79363 0.49504 0.0673 0.0
H195 H 0.77816 0.44801 0.00573 0.0
H196 H 0.78832 0.49584 0.94147 0.0
H197 H 0.76511 0.48233 0.90509 0.0
H198 H 0.79407 0.43718 0.9492 0.0
H199 H 0.78617 0.42053 0.89081 0.0
H200 H 0.7797 0.52154 0.05983 0.0
H201 H 0.80804 0.51888 0.94966 0.0
H202 H 0.75807 0.466 0.84543 0.0
H203 H 0.78289 0.55326 0.06018 0.0
H204 H 0.80948 0.55101 0.9479 0.0
C205 C 0.03669 0.27107 0.63306 0.0
C206 C 0.05486 0.27501 0.63414 0.0
C207 C 0.02666 0.27481 0.59964 0.0
C208 C 0.0345 0.28275 0.56657 0.0
C209 C 0.05253 0.2873 0.5682 0.0
C210 C 0.0626 0.28342 0.60152 0.0
C211 C 0.02412 0.28521 0.52985 0.0
C212 C 0.00619 0.28997 0.5315 0.0
C213 C 0.99559 0.28998 0.49754 0.0
C214 C 0.00354 0.28627 0.4611 0.0
C215 C 0.02166 0.28222 0.45861 0.0
C216 C 0.03176 0.2815 0.49322 0.0
C217 C 0.02999 0.27793 0.42024 0.0
C218 C 0.02113 0.26743 0.3924 0.0
C219 C 0.04719 0.28389 0.41171 0.0
C220 C 0.05548 0.27913 0.37669 0.0
C221 C 0.04675 0.26839 0.34909 0.0
C222 C 0.97607 0.29258 0.50066 0.0
C223 C 0.96682 0.28614 0.53356 0.0
C224 C 0.96638 0.30068 0.47028 0.0
C225 C 0.94792 0.30169 0.47212 0.0
C226 C 0.93869 0.29494 0.50475 0.0
C227 C 0.94846 0.28754 0.53581 0.0
C228 C 0.0294 0.26275 0.3572 0.0
H229 H 0.03023 0.26485 0.65787 0.0
H230 H 0.01287 0.27091 0.59934 0.0
H231 H 0.05894 0.29364 0.54346 0.0
H232 H 0.07659 0.28651 0.60113 0.0
H233 H 0.00043 0.29343 0.55955 0.0
H234 H 0.04544 0.27726 0.49176 0.0
H235 H 0.99559 0.28618 0.43466 0.0
H236 H 0.00795 0.26244 0.39817 0.0
H237 H 0.05432 0.29218 0.43227 0.0
H238 H 0.06894 0.28354 0.37176 0.0
H239 H 0.97366 0.27953 0.55736 0.0
H240 H 0.97299 0.3061 0.44477 0.0
H241 H 0.0222 0.25464 0.33642 0.0
H242 H 0.94195 0.28257 0.5619 0.0
H243 H 0.94091 0.30736 0.4474 0.0
C244 C 0.70678 0.95821 0.64098 0.0
C245 C 0.72279 0.94899 0.64595 0.0
C246 C 0.70278 0.96627 0.60501 0.0
C247 C 0.71459 0.96493 0.57334 0.0
C248 C 0.73072 0.95601 0.57861 0.0
C249 C 0.73481 0.9482 0.61457 0.0
C250 C 0.71006 0.97227 0.53433 0.0
C251 C 0.7051 0.99005 0.5301 0.0
C252 C 0.70213 -0.00263 0.49258 0.0
C253 C 0.70392 0.9864 0.45937 0.0
C254 C 0.7093 0.9687 0.46318 0.0
C255 C 0.71196 0.96169 0.50087 0.0
C256 C 0.71377 0.958 0.42796 0.0
C257 C 0.70358 0.95898 0.39341 0.0
C258 C 0.72888 0.94715 0.42839 0.0
C259 C 0.73361 0.93739 0.39539 0.0
C260 C 0.72346 0.93834 0.36093 0.0
C261 C 0.6988 0.01672 0.48791 0.0
C262 C 0.68942 0.02629 0.51656 0.0
C263 C 0.70583 0.02599 0.45564 0.0
C264 C 0.70385 0.04428 0.45248 0.0
C265 C 0.69525 0.05397 0.48206 0.0
C266 C 0.68784 0.04468 0.5139 0.0
C267 C 0.70844 0.94928 0.36009 0.0
H268 H 0.69732 0.95905 0.66478 0.0
H269 H 0.69026 0.97309 0.60156 0.0
H270 H 0.74011 0.95495 0.55472 0.0
H271 H 0.74715 0.94101 0.6174 0.0
H272 H 0.70454 -0.00167 0.55599 0.0
H273 H 0.71579 0.94794 0.50429 0.0
H274 H 0.7018 0.99181 0.4303 0.0
H275 H 0.69181 0.96713 0.39218 0.0
H276 H 0.73734 0.94645 0.45403 0.0
H277 H 0.74545 0.92933 0.39661 0.0
H278 H 0.68351 0.01963 0.54148 0.0
H279 H 0.71342 0.0193 0.4332 0.0
H280 H 0.70035 0.95016 0.3339 0.0
H281 H 0.68124 0.05161 0.53752 0.0
H282 H 0.70936 0.05082 0.42696 0.0
C283 C 0.5397 0.21345 0.13487 0.0
C284 C 0.55144 0.2278 0.13186 0.0
C285 C 0.53032 0.20761 0.10185 0.0
C286 C 0.53247 0.21612 0.0654 0.0
C287 C 0.54371 0.23091 0.06301 0.0
C288 C 0.55313 0.23662 0.09577 0.0
C289 C 0.52334 0.20957 0.02961 0.0
C290 C 0.50547 0.20446 0.03077 0.0
C291 C 0.49652 0.19936 0.99626 0.0
C292 C 0.50591 0.19909 0.96053 0.0
C293 C 0.52352 0.2048 0.95883 0.0
C294 C 0.53224 0.20958 0.99348 0.0
C295 C 0.53208 0.20817 0.92054 0.0
C296 C 0.53299 0.19504 0.89144 0.0
C297 C 0.53898 0.22506 0.91272 0.0
C298 C 0.54663 0.22882 0.87649 0.0
C299 C 0.54774 0.21572 0.84745 0.0
C300 C 0.47701 0.19635 0.99684 0.0
C301 C 0.46858 0.189 0.02991 0.0
C302 C 0.46647 0.20201 0.96516 0.0
C303 C 0.44809 0.20081 0.96688 0.0
C304 C 0.43961 0.19439 0.00075 0.0
C305 C 0.45011 0.18817 0.03199 0.0
C306 C 0.54098 0.19874 0.85523 0.0
H307 H 0.5382 0.20641 0.1624 0.0
H308 H 0.52178 0.19617 0.10459 0.0
H309 H 0.54527 0.23811 0.03571 0.0
H310 H 0.56183 0.24795 0.09286 0.0
H311 H 0.49832 0.20553 0.05821 0.0
H312 H 0.54597 0.21372 0.99199 0.0
H313 H 0.49931 0.19536 0.93353 0.0
H314 H 0.5277 0.18195 0.89688 0.0
H315 H 0.53824 0.23546 0.93454 0.0
H316 H 0.55192 0.24195 0.87137 0.0
H317 H 0.47622 0.18418 0.05461 0.0
H318 H 0.47228 0.20802 0.93936 0.0
H319 H 0.54172 0.18844 0.8332 0.0
H320 H 0.4441 0.18319 0.05864 0.0
H321 H 0.44053 0.20528 0.94175 0.0
C322 C 0.27063 0.03434 0.36102 0.0
C323 C 0.27719 0.05144 0.35415 0.0
C324 C 0.27498 0.0253 0.39541 0.0
C325 C 0.28594 0.03319 0.4238 0.0
C326 C 0.29285 0.05015 0.41656 0.0
C327 C 0.28859 0.05916 0.38194 0.0
C328 C 0.28922 0.02404 0.46164 0.0
C329 C 0.29274 0.00583 0.46224 0.0
C330 C 0.29329 0.99638 0.49779 0.0
C331 C 0.29123 0.0057 0.53325 0.0
C332 C 0.28827 0.02408 0.5333 0.0
C333 C 0.28724 0.03312 0.49726 0.0
C334 C 0.2851 0.03374 0.57068 0.0
C335 C 0.27471 0.02618 0.60057 0.0
C336 C 0.29187 0.05089 0.57611 0.0
C337 C 0.28795 0.06044 0.61008 0.0
C338 C 0.27727 0.05303 0.63965 0.0
C339 C 0.29467 0.9767 0.49753 0.0
C340 C 0.28659 0.96687 0.46738 0.0
C341 C 0.30337 0.9675 0.52786 0.0
C342 C 0.30354 0.94899 0.52854 0.0
C343 C 0.29528 0.93921 0.49853 0.0
C344 C 0.28712 0.94844 0.46758 0.0
C345 C 0.2709 0.03569 0.63469 0.0
H346 H 0.26193 0.02803 0.33997 0.0
H347 H 0.26928 0.01233 0.40035 0.0
H348 H 0.3014 0.0565 0.43785 0.0
H349 H 0.29373 0.0724 0.37752 0.0
H350 H 0.29473 -0.00101 0.43467 0.0
H351 H 0.28395 0.04708 0.49683 0.0
H352 H 0.29148 -0.00139 0.56087 0.0
H353 H 0.2691 0.01308 0.59722 0.0
H354 H 0.30008 0.05703 0.55388 0.0
H355 H 0.29293 0.07383 0.61263 0.0
H356 H 0.27944 0.97333 0.44384 0.0
H357 H 0.30998 0.97457 0.55129 0.0
H358 H 0.26282 0.02948 0.65706 0.0
H359 H 0.28098 0.94147 0.4434 0.0
H360 H 0.30984 0.94241 0.55309 0.0
C361 C 0.45855 0.77404 0.8632 0.0
C362 C 0.44053 0.77852 0.86072 0.0
C363 C 0.46821 0.77762 0.89721 0.0
C364 C 0.46017 0.78598 0.9295 0.0
C365 C 0.44238 0.79122 0.92631 0.0
C366 C 0.43265 0.78746 0.89242 0.0
C367 C 0.46999 0.78795 0.96714 0.0
C368 C 0.48823 0.79154 0.96715 0.0
C369 C 0.49819 0.79079 0.00206 0.0
C370 C 0.48942 0.78713 0.03757 0.0
C371 C 0.47108 0.78444 0.03831 0.0
C372 C 0.46146 0.78477 0.00311 0.0
C373 C 0.46195 0.7805 0.07565 0.0
C374 C 0.4676 0.76645 0.09953 0.0
C375 C 0.44721 0.79051 0.087 0.0
C376 C 0.43811 0.78642 0.12149 0.0
C377 C 0.44334 0.77199 0.14498 0.0
C378 C 0.5178 0.79278 0.00107 0.0
C379 C 0.52757 0.78628 0.96907 0.0
C380 C 0.52699 0.80058 0.03255 0.0
C381 C 0.54547 0.80132 0.03259 0.0
C382 C 0.55523 0.79457 0.0008 0.0
C383 C 0.54599 0.78736 0.96872 0.0
C384 C 0.45831 0.76214 0.13371 0.0
H385 H 0.46515 0.76743 0.83911 0.0
H386 H 0.48182 0.7732 0.89865 0.0
H387 H 0.43583 0.79792 0.95034 0.0
H388 H 0.41877 0.791 0.89176 0.0
H389 H 0.49471 0.79476 0.93971 0.0
H390 H 0.44746 0.78167 0.00373 0.0
H391 H 0.49682 0.78611 0.06473 0.0
H392 H 0.47889 0.75847 0.09111 0.0
H393 H 0.44275 0.80153 0.06919 0.0
H394 H 0.42694 0.7946 0.12963 0.0
H395 H 0.52109 0.77992 0.9445 0.0
H396 H 0.51994 0.80603 0.05742 0.0
H397 H 0.46261 0.75078 0.15061 0.0
H398 H 0.55295 0.7824 0.94326 0.0
H399 H 0.55206 0.80682 0.05802 0.0
C400 C 0.14214 0.20569 0.09234 0.0
C401 C 0.15655 0.21723 0.08699 0.0
C402 C 0.12767 0.21081 0.11532 0.0
C403 C 0.10485 0.24965 0.15644 0.0
H404 H 0.09178 0.21822 0.24166 0.0
C405 C 0.06763 0.27414 0.29309 0.0
C406 C 0.05604 0.2626 0.3128 0.0
C407 C 0.07751 0.26827 0.26103 0.0
C408 C 0.09494 0.22704 0.21758 0.0
H409 H 0.16675 0.24341 0.10024 0.0
H410 H 0.14148 0.25234 0.13985 0.0
H411 H 0.11316 0.20843 0.19282 0.0
H412 H 0.04538 0.23593 0.31325 0.0
H413 H 0.06208 0.2259 0.25642 0.0
H414 H 0.08677 0.26832 0.18114 0.0
C415 C 0.14139 0.23934 0.12643 0.0
C416 C 0.10724 0.22141 0.18964 0.0
C417 C 0.15592 0.23416 0.104 0.0
C418 C 0.05407 0.24524 0.29864 0.0
C419 C 0.06384 0.2394 0.26633 0.0
C420 C 0.09241 0.25522 0.18411 0.0
C421 C 0.12723 0.22765 0.13276 0.0
C422 C 0.11261 0.23281 0.15934 0.0
C423 C 0.07593 0.25075 0.24755 0.0
C424 C 0.08761 0.24414 0.21558 0.0
H425 H 0.14223 0.19256 0.07964 0.0
H426 H 0.11688 0.20158 0.11965 0.0
H427 H 0.10861 0.25862 0.13304 0.0
H428 H 0.06928 0.28769 0.30276 0.0
H429 H 0.08681 0.27735 0.24765 0.0
C430 C 0.25624 0.65828 0.60619 0.0
C431 C 0.27373 0.65793 0.59227 0.0
C432 C 0.24963 0.6444 0.62885 0.0
C433 C 0.25841 0.59803 0.66042 0.0
H434 H 0.2285 0.61152 0.74789 0.0
C435 C 0.24382 0.55394 0.79591 0.0
C436 C 0.2266 0.55438 0.81141 0.0
C437 C 0.24844 0.56478 0.76429 0.0
C438 C 0.23661 0.6075 0.72325 0.0
H439 H 0.29792 0.64255 0.5905 0.0
H440 H 0.28659 0.6185 0.63138 0.0
H441 H 0.23913 0.63408 0.7029 0.0
H442 H 0.2005 0.56591 0.80496 0.0
H443 H 0.20857 0.58489 0.74964 0.0
H444 H 0.25634 0.57144 0.68217 0.0
C445 C 0.27783 0.62936 0.62404 0.0
C446 C 0.2427 0.62043 0.69735 0.0
C447 C 0.28438 0.64318 0.60081 0.0
C448 C 0.21384 0.56523 0.79348 0.0
C449 C 0.2185 0.57619 0.76208 0.0
C450 C 0.25244 0.58508 0.68667 0.0
C451 C 0.26043 0.62992 0.63875 0.0
C452 C 0.2537 0.6159 0.66561 0.0
C453 C 0.23595 0.57638 0.74782 0.0
C454 C 0.2415 0.58972 0.71837 0.0
H455 H 0.24757 0.66931 0.59953 0.0
H456 H 0.23604 0.64509 0.63874 0.0
H457 H 0.26666 0.59402 0.63602 0.0
H458 H 0.25387 0.54557 0.809 0.0
H459 H 0.262 0.56472 0.75402 0.0
C460 C 0.83399 0.77071 0.12358 0.0
C461 C 0.83745 0.77853 0.0869 0.0
C462 C 0.84778 0.76675 0.14923 0.0
C463 C 0.89322 0.75461 0.15846 0.0
H464 H 0.88937 0.7749 0.26266 0.0
C465 C 0.94305 0.73926 0.28488 0.0
C466 C 0.93545 0.73707 0.32221 0.0
C467 C 0.93278 0.74538 0.2534 0.0
C468 C 0.8906 0.769 0.23383 0.0
H469 H 0.85818 0.7878 0.04789 0.0
H470 H 0.88251 0.78033 0.09295 0.0
H471 H 0.86833 0.78346 0.21193 0.0
H472 H 0.91108 0.73861 0.3555 0.0
H473 H 0.89316 0.74882 0.30085 0.0
H474 H 0.91497 0.73943 0.18093 0.0
C475 C 0.869 0.77755 0.10161 0.0
C476 C 0.87863 0.77403 0.20478 0.0
C477 C 0.85511 0.78185 0.07604 0.0
C478 C 0.91736 0.74056 0.32724 0.0
C479 C 0.90712 0.7465 0.29591 0.0
C480 C 0.90513 0.74937 0.18781 0.0
C481 C 0.86536 0.77023 0.13863 0.0
C482 C 0.87959 0.76659 0.16717 0.0
C483 C 0.91473 0.74928 0.25875 0.0
C484 C 0.90362 0.75617 0.22612 0.0
H485 H 0.82057 0.76803 0.13298 0.0
H486 H 0.84471 0.76099 0.17757 0.0
H487 H 0.89412 0.74869 0.12959 0.0
H488 H 0.95699 0.73666 0.28031 0.0
H489 H 0.93904 0.74741 0.22517 0.0
C490 C 0.73317 0.32953 0.62036 0.0
C491 C 0.71661 0.33136 0.602 0.0
C492 C 0.73945 0.34254 0.64578 0.0
C493 C 0.73253 0.38917 0.67728 0.0
H494 H 0.75838 0.37322 0.76914 0.0
C495 C 0.74883 0.43288 0.81295 0.0
C496 C 0.76603 0.43134 0.82848 0.0
C497 C 0.74323 0.42184 0.78247 0.0
C498 C 0.75135 0.37788 0.74341 0.0
H499 H 0.69373 0.34842 0.59561 0.0
H500 H 0.70442 0.37095 0.6412 0.0
H501 H 0.74735 0.35161 0.72235 0.0
H502 H 0.79113 0.41764 0.82243 0.0
H503 H 0.78117 0.3981 0.76995 0.0
H504 H 0.73615 0.41549 0.69953 0.0
C505 C 0.71275 0.3596 0.63524 0.0
C506 C 0.74505 0.36551 0.71646 0.0
C507 C 0.70655 0.34665 0.60928 0.0
C508 C 0.77767 0.41892 0.81184 0.0
C509 C 0.77201 0.40777 0.78169 0.0
C510 C 0.73866 0.40156 0.7046 0.0
C511 C 0.72923 0.35763 0.65406 0.0
C512 C 0.73566 0.37097 0.68288 0.0
C513 C 0.75466 0.40893 0.76716 0.0
C514 C 0.74822 0.39601 0.73778 0.0
H515 H 0.74139 0.31805 0.61489 0.0
H516 H 0.75239 0.34076 0.65887 0.0
H517 H 0.72555 0.39388 0.65154 0.0
H518 H 0.73944 0.44214 0.82533 0.0
H519 H 0.72974 0.42291 0.77198 0.0
C520 C 0.64124 0.28108 0.41097 0.0
C521 C 0.65919 0.2793 0.40073 0.0
C522 C 0.62794 0.27625 0.38437 0.0
C523 C 0.61979 0.27169 0.27949 0.0
H524 H 0.58346 0.23751 0.30643 0.0
C525 C 0.58064 0.23635 0.16003 0.0
C526 C 0.56249 0.23335 0.16556 0.0
C527 C 0.59112 0.24248 0.19078 0.0
C528 C 0.59332 0.24729 0.29863 0.0
H529 H 0.67722 0.27119 0.35453 0.0
H530 H 0.6541 0.26313 0.30821 0.0
H531 H 0.60398 0.24797 0.35709 0.0
H532 H 0.54108 0.23399 0.20779 0.0
H533 H 0.55943 0.24506 0.26184 0.0
H534 H 0.60932 0.27121 0.22132 0.0
C535 C 0.65032 0.26816 0.33678 0.0
C536 C 0.60505 0.25324 0.3276 0.0
C537 C 0.66354 0.27269 0.36343 0.0
C538 C 0.55507 0.23617 0.20284 0.0
C539 C 0.56558 0.24248 0.23371 0.0
C540 C 0.60801 0.26592 0.25075 0.0
C541 C 0.63241 0.26991 0.34693 0.0
C542 C 0.61864 0.26515 0.31796 0.0
C543 C 0.58368 0.24595 0.22781 0.0
C544 C 0.59494 0.25328 0.25965 0.0
H545 H 0.63748 0.28605 0.43958 0.0
H546 H 0.6142 0.27773 0.39278 0.0
H547 H 0.62999 0.28111 0.27152 0.0
H548 H 0.58676 0.23393 0.13179 0.0
H549 H 0.60511 0.24449 0.18547 0.0
C550 C 0.2407 0.1631 0.89042 0.0
C551 C 0.22347 0.16167 0.9056 0.0
C552 C 0.24741 0.15017 0.8653 0.0
C553 C 0.23973 0.10442 0.82849 0.0
H554 H 0.26773 0.12114 0.74055 0.0
C555 C 0.25496 0.06268 0.68999 0.0
C556 C 0.27222 0.06366 0.67465 0.0
C557 C 0.24984 0.07351 0.7212 0.0
C558 C 0.26012 0.11624 0.76522 0.0
H559 H 0.19989 0.14531 0.90691 0.0
H560 H 0.21141 0.12297 0.86206 0.0
H561 H 0.25706 0.14217 0.78901 0.0
H562 H 0.29784 0.07627 0.68145 0.0
H563 H 0.28876 0.09543 0.7354 0.0
H564 H 0.24241 0.0785 0.80358 0.0
C565 C 0.21989 0.13392 0.87021 0.0
C566 C 0.25403 0.12828 0.79312 0.0
C567 C 0.21324 0.14678 0.89579 0.0
C568 C 0.28435 0.07542 0.69197 0.0
C569 C 0.27918 0.08635 0.72296 0.0
C570 C 0.2457 0.09238 0.80029 0.0
C571 C 0.23699 0.13558 0.85427 0.0
C572 C 0.24374 0.12255 0.82513 0.0
C573 C 0.26181 0.08566 0.73756 0.0
C574 C 0.25595 0.09819 0.76837 0.0
H575 H 0.24904 0.17427 0.89785 0.0
H576 H 0.26079 0.15168 0.85441 0.0
H577 H 0.23207 0.0995 0.85303 0.0
H578 H 0.24517 0.05399 0.67704 0.0
H579 H 0.23631 0.07284 0.73159 0.0
C580 C 0.35291 0.71437 0.41769 0.0
C581 C 0.33536 0.71977 0.41093 0.0
C582 C 0.36671 0.72091 0.39433 0.0
C583 C 0.37702 0.75722 0.32392 0.0
H584 H 0.41265 0.72496 0.28417 0.0
C585 C 0.4143 0.76876 0.18008 0.0
C586 C 0.43283 0.76689 0.18022 0.0
C587 C 0.40432 0.76392 0.21276 0.0
C588 C 0.40292 0.73416 0.29554 0.0
H589 H 0.31862 0.73621 0.37396 0.0
H590 H 0.34235 0.74715 0.33319 0.0
H591 H 0.39159 0.71471 0.33381 0.0
H592 H 0.4553 0.75843 0.21539 0.0
H593 H 0.43761 0.74931 0.27204 0.0
H594 H 0.38778 0.77635 0.28418 0.0
C595 C 0.34564 0.73825 0.35707 0.0
C596 C 0.39091 0.72832 0.32401 0.0
C597 C 0.33194 0.73183 0.38037 0.0
C598 C 0.44106 0.75985 0.21393 0.0
C599 C 0.43098 0.75471 0.24647 0.0
C600 C 0.38885 0.76294 0.29521 0.0
C601 C 0.3632 0.73296 0.36375 0.0
C602 C 0.3775 0.73966 0.33772 0.0
C603 C 0.41254 0.75681 0.24618 0.0
C604 C 0.40162 0.75135 0.2801 0.0
H605 H 0.35602 0.70513 0.44107 0.0
H606 H 0.38012 0.71664 0.40037 0.0
H607 H 0.36717 0.76645 0.3346 0.0
H608 H 0.40739 0.77366 0.15443 0.0
H609 H 0.39006 0.76538 0.21159 0.0
C610 C 0.75708 0.83381 0.88436 0.0
C611 C 0.77429 0.83489 0.89986 0.0
C612 C 0.75021 0.84755 0.86159 0.0
C613 C 0.75739 0.89466 0.83347 0.0
H614 H 0.72928 0.88123 0.74299 0.0
C615 C 0.74359 0.93991 0.69962 0.0
C616 C 0.72665 0.93918 0.68265 0.0
C617 C 0.748 0.92878 0.73091 0.0
C618 C 0.73687 0.88522 0.76848 0.0
H619 H 0.79772 0.85136 0.90394 0.0
H620 H 0.78596 0.87511 0.86297 0.0
H621 H 0.74006 0.85849 0.78744 0.0
H622 H 0.70082 0.9268 0.68609 0.0
H623 H 0.70855 0.9073 0.74082 0.0
H624 H 0.75468 0.92142 0.81318 0.0
C625 C 0.7776 0.86382 0.8692 0.0
C626 C 0.74305 0.87218 0.79406 0.0
C627 C 0.7844 0.85014 0.89247 0.0
C628 C 0.71394 0.92771 0.69875 0.0
C629 C 0.71841 0.91646 0.72981 0.0
C630 C 0.75134 0.90771 0.80756 0.0
C631 C 0.76045 0.86263 0.85321 0.0
C632 C 0.75346 0.8767 0.82682 0.0
C633 C 0.73561 0.9166 0.74557 0.0
C634 C 0.74107 0.90309 0.77473 0.0
H635 H 0.74882 0.82237 0.89001 0.0
H636 H 0.73682 0.84632 0.85058 0.0
H637 H 0.76512 0.89867 0.85871 0.0
H638 H 0.75359 0.94873 0.68793 0.0
H639 H 0.76138 0.92912 0.74235 0.0
C640 C 0.83103 0.75856 0.87766 0.0
C641 C 0.83388 0.77488 0.89638 0.0
C642 C 0.84412 0.75102 0.85432 0.0
C643 C 0.89197 0.75307 0.83015 0.0
H644 H 0.87622 0.73023 0.73436 0.0
C645 C 0.93681 0.73703 0.69722 0.0
C646 C 0.93378 0.72105 0.67726 0.0
C647 C 0.92607 0.74196 0.72868 0.0
C648 C 0.88082 0.73631 0.76131 0.0
H649 H 0.85286 0.79597 0.90577 0.0
H650 H 0.87565 0.78305 0.86364 0.0
H651 H 0.85454 0.74277 0.77891 0.0
H652 H 0.91778 0.69727 0.67567 0.0
H653 H 0.89891 0.70591 0.73075 0.0
H654 H 0.91839 0.74708 0.81132 0.0
C655 C 0.86335 0.77592 0.86774 0.0
C656 C 0.86839 0.74351 0.78691 0.0
C657 C 0.85027 0.78339 0.89164 0.0
C658 C 0.92042 0.70963 0.69063 0.0
C659 C 0.90956 0.71464 0.72189 0.0
C660 C 0.90445 0.74599 0.80424 0.0
C661 C 0.86035 0.7597 0.84855 0.0
C662 C 0.87378 0.75198 0.82167 0.0
C663 C 0.91201 0.73106 0.74053 0.0
C664 C 0.89897 0.73755 0.76956 0.0
H665 H 0.81868 0.75145 0.88133 0.0
H666 H 0.84149 0.7383 0.84088 0.0
H667 H 0.89657 0.75929 0.8569 0.0
H668 H 0.94716 0.74598 0.68768 0.0
H669 H 0.92821 0.75472 0.74237 0.0
C670 C 0.73426 0.33599 0.39554 0.0
C671 C 0.71776 0.33703 0.41444 0.0
C672 C 0.74042 0.35001 0.37272 0.0
C673 C 0.72463 0.38618 0.31219 0.0
H674 H 0.77378 0.401 0.31368 0.0
C675 C 0.7512 0.43763 0.20214 0.0
C676 C 0.76775 0.43395 0.18513 0.0
C677 C 0.74523 0.42799 0.23451 0.0
C678 C 0.76005 0.39693 0.3127 0.0
H679 H 0.69496 0.35379 0.42496 0.0
H680 H 0.70569 0.37833 0.3843 0.0
H681 H 0.76301 0.38027 0.36321 0.0
H682 H 0.79123 0.41757 0.18975 0.0
H683 H 0.78055 0.4003 0.24522 0.0
H684 H 0.72176 0.40217 0.26081 0.0
C685 C 0.71381 0.36659 0.38739 0.0
C686 C 0.75388 0.38513 0.34118 0.0
C687 C 0.70772 0.3526 0.41073 0.0
C688 C 0.77832 0.4206 0.20177 0.0
C689 C 0.77229 0.41086 0.23398 0.0
C690 C 0.73083 0.39786 0.28351 0.0
C691 C 0.73017 0.36535 0.36795 0.0
C692 C 0.73619 0.37942 0.34078 0.0
C693 C 0.75559 0.41432 0.25051 0.0
C694 C 0.74869 0.40314 0.28302 0.0
H695 H 0.7424 0.32424 0.39806 0.0
H696 H 0.75299 0.3486 0.35775 0.0
H697 H 0.71099 0.38182 0.3109 0.0
H698 H 0.74259 0.44767 0.18985 0.0
H699 H 0.7324 0.43116 0.24679 0.0
C700 C 0.14732 0.20963 0.89337 0.0
C701 C 0.16326 0.21883 0.89919 0.0
C702 C 0.13471 0.21599 0.86668 0.0
C703 C 0.13095 0.24606 0.78093 0.0
H704 H 0.08052 0.24241 0.80018 0.0
C705 C 0.07986 0.2803 0.68148 0.0
C706 C 0.06588 0.26956 0.66827 0.0
C707 C 0.09096 0.27455 0.71172 0.0
C708 C 0.09458 0.24343 0.79442 0.0
H709 H 0.17811 0.24235 0.88305 0.0
H710 H 0.1561 0.25358 0.8377 0.0
H711 H 0.10141 0.23131 0.84925 0.0
H712 H 0.05249 0.24442 0.67706 0.0
H713 H 0.07166 0.23462 0.73035 0.0
H714 H 0.12414 0.25834 0.72638 0.0
C715 C 0.15349 0.24116 0.85253 0.0
C716 C 0.10654 0.23702 0.82239 0.0
C717 C 0.16611 0.23474 0.87873 0.0
C718 C 0.06294 0.25318 0.68687 0.0
C719 C 0.07394 0.24751 0.71735 0.0
C720 C 0.11903 0.25261 0.75324 0.0
C721 C 0.13776 0.23175 0.84565 0.0
C722 C 0.12488 0.2383 0.81599 0.0
C723 C 0.08822 0.25801 0.72963 0.0
C724 C 0.10074 0.25138 0.7597 0.0
H725 H 0.14475 0.19733 0.90873 0.0
H726 H 0.12279 0.20833 0.86187 0.0
H727 H 0.14496 0.2469 0.77454 0.0
H728 H 0.08231 0.29313 0.66834 0.0
H729 H 0.10174 0.28301 0.72103 0.0
C730 C 0.27997 0.64158 0.41417 0.0
C731 C 0.28013 0.65941 0.40226 0.0
C732 C 0.27451 0.62833 0.38804 0.0
C733 C 0.27059 0.61901 0.28313 0.0
H734 H 0.23154 0.58787 0.30958 0.0
C735 C 0.23096 0.58503 0.16313 0.0
C736 C 0.22641 0.56716 0.168 0.0
C737 C 0.23779 0.59472 0.1944 0.0
C738 C 0.24263 0.59628 0.30198 0.0
H739 H 0.27512 0.67728 0.35354 0.0
H740 H 0.26599 0.65426 0.30816 0.0
H741 H 0.24427 0.6072 0.36007 0.0
H742 H 0.22473 0.54556 0.2097 0.0
H743 H 0.23687 0.56258 0.26478 0.0
H744 H 0.26899 0.60842 0.2252 0.0
C745 C 0.26995 0.6505 0.3376 0.0
C746 C 0.24991 0.60729 0.33085 0.0
C747 C 0.27508 0.66369 0.3637 0.0
C748 C 0.2281 0.55935 0.20528 0.0
C749 C 0.23505 0.56907 0.23671 0.0
C750 C 0.26343 0.608 0.25449 0.0
C751 C 0.26954 0.63272 0.34949 0.0
C752 C 0.26361 0.6191 0.32128 0.0
C753 C 0.24036 0.58675 0.23127 0.0
C754 C 0.24902 0.59691 0.26322 0.0
H755 H 0.2837 0.63793 0.4438 0.0
H756 H 0.2743 0.61468 0.3978 0.0
H757 H 0.28134 0.62781 0.27521 0.0
H758 H 0.22948 0.59146 0.13486 0.0
H759 H 0.24126 0.60846 0.18954 0.0
C760 C 0.32877 0.73486 0.62043 0.0
C761 C 0.33178 0.71878 0.60086 0.0
C762 C 0.34149 0.74188 0.6456 0.0
C763 C 0.38881 0.73878 0.67433 0.0
H764 H 0.37162 0.76144 0.76905 0.0
C765 C 0.43252 0.75631 0.80881 0.0
C766 C 0.42975 0.77295 0.82632 0.0
C767 C 0.42157 0.75044 0.77845 0.0
C768 C 0.37661 0.75534 0.74251 0.0
H769 H 0.35065 0.69758 0.59185 0.0
H770 H 0.37276 0.70956 0.63709 0.0
H771 H 0.35059 0.74919 0.72239 0.0
H772 H 0.41371 0.79676 0.82421 0.0
H773 H 0.39433 0.78627 0.77184 0.0
H774 H 0.41492 0.74453 0.69557 0.0
C775 C 0.36066 0.71692 0.6323 0.0
C776 C 0.36457 0.74834 0.71566 0.0
C777 C 0.34797 0.70999 0.60656 0.0
C778 C 0.41603 0.78375 0.81198 0.0
C779 C 0.40497 0.77778 0.7819 0.0
C780 C 0.40089 0.74563 0.70151 0.0
C781 C 0.35748 0.73289 0.65241 0.0
C782 C 0.37049 0.74006 0.68109 0.0
C783 C 0.4075 0.76098 0.76522 0.0
C784 C 0.39487 0.75405 0.73575 0.0
H785 H 0.31658 0.74215 0.6161 0.0
H786 H 0.33876 0.75443 0.65967 0.0
H787 H 0.39384 0.7327 0.64782 0.0
H788 H 0.44274 0.74749 0.81948 0.0
H789 H 0.42369 0.73735 0.7664 0.0
C790 C 0.78045 0.85353 0.07803 0.0
C791 C 0.78075 0.83576 0.09037 0.0
C792 C 0.77518 0.8669 0.10405 0.0
C793 C 0.77256 0.87673 0.20873 0.0
H794 H 0.73273 0.90725 0.18466 0.0
C795 C 0.73389 0.91015 0.33089 0.0
C796 C 0.72884 0.92789 0.3262 0.0
C797 C 0.74065 0.90062 0.29932 0.0
C798 C 0.74405 0.89903 0.19157 0.0
H799 H 0.7761 0.81812 0.13969 0.0
H800 H 0.7673 0.84134 0.18481 0.0
H801 H 0.74493 0.88793 0.13356 0.0
H802 H 0.72627 0.94944 0.28454 0.0
H803 H 0.73825 0.93269 0.22896 0.0
H804 H 0.77171 0.88748 0.2666 0.0
C805 C 0.77101 0.84495 0.15513 0.0
C806 C 0.75102 0.88802 0.16235 0.0
C807 C 0.77594 0.83166 0.12917 0.0
C808 C 0.73001 0.93573 0.28885 0.0
C809 C 0.73688 0.92617 0.25713 0.0
C810 C 0.76572 0.88775 0.23771 0.0
C811 C 0.77054 0.86267 0.14288 0.0
C812 C 0.76499 0.87641 0.17114 0.0
C813 C 0.74263 0.90862 0.26232 0.0
C814 C 0.75102 0.89859 0.22987 0.0
H815 H 0.78401 0.85705 0.04823 0.0
H816 H 0.7749 0.88051 0.09403 0.0
H817 H 0.78351 0.86807 0.21601 0.0
H818 H 0.7328 0.90368 0.35919 0.0
H819 H 0.74446 0.88696 0.30403 0.0
C820 C 0.65864 0.25667 0.61224 0.0
C821 C 0.65672 0.27266 0.59146 0.0
C822 C 0.64457 0.24971 0.6338 0.0
C823 C 0.60487 0.26314 0.68616 0.0
H824 H 0.59428 0.2129 0.68673 0.0
C825 C 0.55186 0.23538 0.78922 0.0
C826 C 0.55647 0.21993 0.80975 0.0
C827 C 0.56171 0.24083 0.75677 0.0
C828 C 0.59714 0.22694 0.68708 0.0
H829 H 0.63838 0.29373 0.57665 0.0
H830 H 0.61382 0.28163 0.61492 0.0
H831 H 0.61628 0.22457 0.64099 0.0
H832 H 0.57443 0.19764 0.81169 0.0
H833 H 0.592 0.20734 0.75553 0.0
H834 H 0.5864 0.26555 0.73318 0.0
C835 C 0.62627 0.27453 0.61437 0.0
C836 C 0.60969 0.23362 0.66082 0.0
C837 C 0.64031 0.28143 0.59241 0.0
C838 C 0.57056 0.20955 0.79612 0.0
C839 C 0.58058 0.21511 0.76389 0.0
C840 C 0.59244 0.25647 0.7126 0.0
C841 C 0.6283 0.25863 0.63537 0.0
C842 C 0.61385 0.25175 0.66051 0.0
C843 C 0.57655 0.23108 0.74447 0.0
C844 C 0.58858 0.23825 0.71378 0.0
H845 H 0.67104 0.24948 0.61193 0.0
H846 H 0.64658 0.23755 0.65007 0.0
H847 H 0.60798 0.27714 0.68694 0.0
H848 H 0.54088 0.24349 0.79895 0.0
H849 H 0.55796 0.25295 0.74194 0.0
C850 C 0.21711 0.14232 0.08377 0.0
C851 C 0.21622 0.15993 0.09693 0.0
C852 C 0.22431 0.12911 0.10787 0.0
C853 C 0.25373 0.12396 0.19423 0.0
H854 H 0.23293 0.07721 0.20205 0.0
C855 C 0.25336 0.06203 0.30891 0.0
C856 C 0.27136 0.06157 0.3192 0.0
C857 C 0.24756 0.07243 0.27757 0.0
C858 C 0.23887 0.09023 0.20028 0.0
H859 H 0.2214 0.17729 0.14638 0.0
H860 H 0.23343 0.15436 0.18837 0.0
H861 H 0.22038 0.09876 0.15648 0.0
H862 H 0.29751 0.07104 0.30384 0.0
H863 H 0.28746 0.08902 0.24852 0.0
H864 H 0.27165 0.11586 0.23923 0.0
C865 C 0.22915 0.15078 0.15909 0.0
C866 C 0.23179 0.10251 0.17383 0.0
C867 C 0.22211 0.16392 0.13505 0.0
C868 C 0.28353 0.07134 0.29682 0.0
C869 C 0.27775 0.08164 0.26521 0.0
C870 C 0.26072 0.11176 0.22077 0.0
C871 C 0.23065 0.13328 0.1456 0.0
C872 C 0.23894 0.11964 0.1711 0.0
C873 C 0.25965 0.08254 0.25561 0.0
C874 C 0.25321 0.09483 0.22462 0.0
H875 H 0.21274 0.13883 0.05449 0.0
H876 H 0.22533 0.11576 0.09658 0.0
H877 H 0.25979 0.13692 0.19228 0.0
H878 H 0.24365 0.05481 0.32597 0.0
H879 H 0.23351 0.07304 0.27153 0.0
C880 C 0.21688 0.28089 0.03424 0.0
C881 C 0.20987 0.27067 0.00359 0.0
C882 C 0.21406 0.29915 0.03526 0.0
C883 C 0.19942 0.33697 0.97262 0.0
H884 H 0.19633 0.36074 0.07327 0.0
C885 C 0.18015 0.41099 0.99569 0.0
C886 C 0.19419 0.42077 0.01216 0.0
C887 C 0.18069 0.3925 0.99503 0.0
C888 C 0.19709 0.35419 0.04504 0.0
H889 H 0.19413 0.27138 0.9504 0.0
H890 H 0.18848 0.30304 0.95305 0.0
H891 H 0.1996 0.32863 0.07119 0.0
H892 H 0.2199 0.41843 0.04057 0.0
H893 H 0.22021 0.38626 0.04124 0.0
H894 H 0.19636 0.36271 0.94681 0.0
C895 C 0.19672 0.29719 0.97559 0.0
C896 C 0.19916 0.33584 0.04373 0.0
C897 C 0.19988 0.279 0.97412 0.0
C898 C 0.20859 0.4115 0.02858 0.0
C899 C 0.2089 0.39305 0.02872 0.0
C900 C 0.19695 0.35528 0.974 0.0
C901 C 0.20381 0.30754 0.00613 0.0
C902 C 0.20066 0.327 0.0075 0.0
C903 C 0.19506 0.38345 0.01162 0.0
C904 C 0.19603 0.36401 0.0102 0.0
H905 H 0.22474 0.27481 0.05718 0.0
H906 H 0.22012 0.30666 0.05873 0.0
H907 H 0.20082 0.33077 0.94418 0.0
H908 H 0.1687 0.41758 0.98337 0.0
H909 H 0.16985 0.38524 0.98182 0.0
C910 C 0.21602 0.69817 0.46438 0.0
C911 C 0.22374 0.70796 0.49496 0.0
C912 C 0.19785 0.69478 0.46424 0.0
C913 C 0.15847 0.69548 0.53011 0.0
H914 H 0.13236 0.69493 0.43201 0.0
C915 C 0.08343 0.70593 0.51732 0.0
C916 C 0.07377 0.69261 0.49795 0.0
C917 C 0.10186 0.7059 0.51679 0.0
C918 C 0.13958 0.69485 0.45951 0.0
H919 H 0.21847 0.72232 0.54873 0.0
H920 H 0.18673 0.71718 0.54762 0.0
H921 H 0.1644 0.69922 0.43107 0.0
H922 H 0.07617 0.66882 0.46254 0.0
H923 H 0.10855 0.66937 0.46019 0.0
H924 H 0.13338 0.6921 0.55843 0.0
C925 C 0.19471 0.71148 0.52447 0.0
C926 C 0.15792 0.69725 0.45907 0.0
C927 C 0.21291 0.71459 0.52497 0.0
C928 C 0.08311 0.67941 0.47741 0.0
C929 C 0.10161 0.67962 0.47621 0.0
C930 C 0.14014 0.69343 0.53052 0.0
C931 C 0.18695 0.70136 0.49436 0.0
C932 C 0.16758 0.69783 0.49444 0.0
C933 C 0.11107 0.69281 0.49617 0.0
C934 C 0.13056 0.69328 0.49528 0.0
H935 H 0.22409 0.69274 0.44104 0.0
H936 H 0.19242 0.68672 0.44088 0.0
H937 H 0.16547 0.69536 0.55785 0.0
H938 H 0.07682 0.71665 0.53242 0.0
H939 H 0.10894 0.71635 0.53188 0.0
C940 C 0.79479 0.71669 0.96623 0.0
C941 C 0.78519 0.72508 0.99616 0.0
C942 C 0.79754 0.69843 0.96719 0.0
C943 C 0.79453 0.65936 0.03418 0.0
H944 H 0.79544 0.63313 0.93635 0.0
C945 C 0.78222 0.58432 0.01833 0.0
C946 C 0.79639 0.57458 0.00241 0.0
C947 C 0.7824 0.60276 0.01784 0.0
C948 C 0.79538 0.64038 0.96378 0.0
H949 H 0.77066 0.72099 0.0502 0.0
H950 H 0.77458 0.68903 0.05093 0.0
H951 H 0.79211 0.66525 0.93489 0.0
H952 H 0.82184 0.57689 0.9731 0.0
H953 H 0.82157 0.60926 0.97052 0.0
H954 H 0.79675 0.63416 0.06283 0.0
C955 C 0.78063 0.69654 0.02742 0.0
C956 C 0.79356 0.65878 0.96308 0.0
C957 C 0.77822 0.71486 0.02689 0.0
C958 C 0.81059 0.58386 0.98519 0.0
C959 C 0.81054 0.60237 0.98393 0.0
C960 C 0.79596 0.64095 0.03483 0.0
C961 C 0.79042 0.68807 0.99769 0.0
C962 C 0.79299 0.66852 0.99831 0.0
C963 C 0.79652 0.61189 0.00057 0.0
C964 C 0.79631 0.63136 -0.00033 0.0
H965 H 0.80052 0.72431 0.94243 0.0
H966 H 0.80545 0.69251 0.94421 0.0
H967 H 0.7946 0.66637 0.06188 0.0
H968 H 0.7708 0.57775 0.0308 0.0
H969 H 0.77134 0.60993 0.03036 0.0
C970 C 0.77678 0.29306 0.47481 0.0
C971 C 0.76833 0.28271 0.50347 0.0
C972 C 0.79506 0.29561 0.47595 0.0
C973 C 0.83431 0.29048 0.54163 0.0
H974 H 0.86001 0.29428 0.44341 0.0
C975 C 0.90978 0.28093 0.52406 0.0
C976 C 0.91897 0.29495 0.50591 0.0
C977 C 0.89133 0.28073 0.52499 0.0
C978 C 0.85293 0.29339 0.471 0.0
H979 H 0.77233 0.26672 0.55554 0.0
H980 H 0.80437 0.27035 0.55649 0.0
H981 H 0.82796 0.29069 0.44236 0.0
H982 H 0.91567 0.31985 0.47469 0.0
H983 H 0.88333 0.3189 0.47467 0.0
H984 H 0.85963 0.29224 0.5699 0.0
C985 C 0.79688 0.27707 0.53386 0.0
C986 C 0.83456 0.29142 0.47053 0.0
C987 C 0.77852 0.27485 0.5332 0.0
C988 C 0.90913 0.30869 0.48838 0.0
C989 C 0.89063 0.30825 0.48858 0.0
C990 C 0.85272 0.29207 0.54201 0.0
C991 C 0.8054 0.28754 0.5053 0.0
C992 C 0.82498 0.28991 0.50585 0.0
C993 C 0.88164 0.2943 0.50702 0.0
C994 C 0.86214 0.29352 0.50671 0.0
H995 H 0.7692 0.29951 0.45186 0.0
H996 H 0.801 0.3041 0.45399 0.0
H997 H 0.82743 0.28976 0.56945 0.0
H998 H 0.91677 0.26986 0.53695 0.0
H999 H 0.88462 0.26972 0.53891 0.0
C1000 C 0.69736 0.21527 0.52036 0.0
C1001 C 0.70781 0.22401 0.49233 0.0
C1002 C 0.6944 0.19709 0.51765 0.0
C1003 C 0.69888 0.15881 0.44891 0.0
H1004 H 0.69487 0.13164 0.54522 0.0
C1005 C 0.7091 0.08317 0.46422 0.0
C1006 C 0.69482 0.07369 0.48053 0.0
C1007 C 0.70906 0.10162 0.46368 0.0
C1008 C 0.6958 0.13914 0.51816 0.0
H1009 H 0.72352 0.22065 0.43973 0.0
H1010 H 0.71924 0.18873 0.43609 0.0
H1011 H 0.69869 0.16362 0.5486 0.0
H1012 H 0.66912 0.0765 0.50851 0.0
H1013 H 0.66965 0.10885 0.50941 0.0
H1014 H 0.69704 0.13393 0.41887 0.0
C1015 C 0.71272 0.19594 0.4594 0.0
C1016 C 0.6979 0.15748 0.51996 0.0
C1017 C 0.71533 0.21423 0.46161 0.0
C1018 C 0.68049 0.08326 0.49633 0.0
C1019 C 0.68068 0.10176 0.4966 0.0
C1020 C 0.69718 0.14042 0.44721 0.0
C1021 C 0.70217 0.18711 0.48736 0.0
C1022 C 0.69952 0.16759 0.48535 0.0
C1023 C 0.69496 0.11103 0.48024 0.0
C1024 C 0.69566 0.13049 0.48183 0.0
H1025 H 0.69117 0.22256 0.54404 0.0
H1026 H 0.68586 0.19093 0.53919 0.0
H1027 H 0.69968 0.1661 0.42159 0.0
H1028 H 0.7206 0.07641 0.45271 0.0
H1029 H 0.72031 0.10857 0.45139 0.0
C1030 C 0.27777 0.20184 0.04231 0.0
C1031 C 0.27004 0.21221 0.01262 0.0
C1032 C 0.29601 0.19877 0.04257 0.0
C1033 C 0.33523 0.20105 0.97661 0.0
H1034 H 0.36174 0.19763 0.07389 0.0
C1035 C 0.41054 0.20911 0.98658 0.0
C1036 C 0.41997 0.19504 0.00388 0.0
C1037 C 0.39214 0.20979 0.9887 0.0
C1038 C 0.35441 0.19838 0.04659 0.0
H1039 H 0.27538 0.22811 0.96098 0.0
H1040 H 0.30718 0.2235 0.96239 0.0
H1041 H 0.32973 0.20231 0.07604 0.0
H1042 H 0.41721 0.17079 0.03768 0.0
H1043 H 0.38492 0.1725 0.04272 0.0
H1044 H 0.36011 0.19799 0.94735 0.0
C1045 C 0.29918 0.2171 0.98462 0.0
C1046 C 0.33609 0.20101 0.04773 0.0
C1047 C 0.28095 0.2199 0.98398 0.0
C1048 C 0.41046 0.1819 0.02431 0.0
C1049 C 0.39199 0.1828 0.02708 0.0
C1050 C 0.35352 0.19876 0.97554 0.0
C1051 C 0.30694 0.20623 0.01347 0.0
C1052 C 0.3263 0.20261 0.0127 0.0
C1053 C 0.38274 0.19665 0.00889 0.0
C1054 C 0.36326 0.19759 0.01047 0.0
H1055 H 0.26965 0.19562 0.0646 0.0
H1056 H 0.30145 0.19018 0.06499 0.0
H1057 H 0.32812 0.20169 0.94904 0.0
H1058 H 0.41734 0.21979 0.97169 0.0
H1059 H 0.38525 0.22074 0.97496 0.0
C1060 C 0.29135 0.77729 0.53241 0.0
C1061 C 0.28149 0.76901 0.50268 0.0
C1062 C 0.29386 0.79559 0.53201 0.0
C1063 C 0.28988 0.83499 0.46635 0.0
H1064 H 0.29267 0.86065 0.56475 0.0
C1065 C 0.27988 0.91036 0.48507 0.0
C1066 C 0.29472 0.91951 0.49974 0.0
C1067 C 0.27937 0.89192 0.48529 0.0
C1068 C 0.29205 0.85356 0.53715 0.0
H1069 H 0.2662 0.77333 0.44974 0.0
H1070 H 0.2697 0.80536 0.45008 0.0
H1071 H 0.28886 0.82858 0.56559 0.0
H1072 H 0.32063 0.91615 0.52653 0.0
H1073 H 0.31919 0.88381 0.52868 0.0
H1074 H 0.29209 0.86032 0.43824 0.0
C1075 C 0.27613 0.79774 0.47293 0.0
C1076 C 0.28996 0.8352 0.5375 0.0
C1077 C 0.27397 0.77938 0.47286 0.0
C1078 C 0.30888 0.90964 0.51547 0.0
C1079 C 0.30816 0.89115 0.51648 0.0
C1080 C 0.29157 0.85339 0.46609 0.0
C1081 C 0.28624 0.80609 0.50233 0.0
C1082 C 0.28879 0.82565 0.50207 0.0
C1083 C 0.29347 0.88222 0.50105 0.0
C1084 C 0.29264 0.86276 0.50146 0.0
H1085 H 0.29751 0.76956 0.55549 0.0
H1086 H 0.30203 0.80141 0.55469 0.0
H1087 H 0.28948 0.82814 0.43847 0.0
H1088 H 0.26849 0.91739 0.47376 0.0
H1089 H 0.26782 0.88521 0.4737 0.0
C1090 C 0.71749 0.79374 0.03083 0.0
C1091 C 0.72556 0.78379 0.001 0.0
C1092 C 0.69915 0.79609 0.03122 0.0
C1093 C 0.65942 0.79165 0.96688 0.0
H1094 H 0.63409 0.79392 0.06576 0.0
C1095 C 0.5844 0.78053 0.98403 0.0
C1096 C 0.57493 0.79454 0.0014 0.0
C1097 C 0.60284 0.78046 0.98411 0.0
C1098 C 0.64108 0.79345 0.03802 0.0
H1099 H 0.7208 0.76806 0.9489 0.0
H1100 H 0.68883 0.77135 0.95059 0.0
H1101 H 0.66625 0.79079 0.06598 0.0
H1102 H 0.57772 0.81945 0.03267 0.0
H1103 H 0.61007 0.81875 0.03437 0.0
H1104 H 0.634 0.79339 0.9392 0.0
C1105 C 0.6966 0.77799 0.97285 0.0
C1106 C 0.65949 0.79174 0.03803 0.0
C1107 C 0.71494 0.77595 0.97202 0.0
C1108 C 0.58448 0.80831 0.01951 0.0
C1109 C 0.60298 0.80802 0.02031 0.0
C1110 C 0.64102 0.79298 0.96694 0.0
C1111 C 0.68846 0.78825 0.0022 0.0
C1112 C 0.66891 0.79069 0.00242 0.0
C1113 C 0.61225 0.79416 0.00233 0.0
C1114 C 0.63173 0.7938 0.00248 0.0
H1115 H 0.72539 0.80008 0.05333 0.0
H1116 H 0.69344 0.80431 0.05391 0.0
H1117 H 0.66618 0.79136 0.93888 0.0
H1118 H 0.5776 0.76943 0.97076 0.0
H1119 H 0.60979 0.76953 0.97049 0.0
loop_
_geom_bond_atom_site_label_1
_geom_bond_atom_site_label_2
_geom_bond_distance
_geom_bond_site_symmetry_2
_ccdc_geom_bond_type
Sc0 O3 2.033 . S
Sc0 O10 2.105 . S
Sc0 O13 2.105 . S
Sc0 O16 2.105 . S
Sc0 O19 2.105 . S
Sc1 O3 2.025 . S
Sc1 O11 2.111 . S
Sc1 O15 2.099 1_554 S
Sc1 O17 2.111 . S
Sc1 O21 2.099 1_554 S
Sc2 O3 2.018 1_556 S
Sc2 O12 2.105 . S
Sc2 O14 2.105 . S
Sc2 O18 2.105 . S
Sc2 O20 2.105 . S
O3 Sc0 2.033 . S
O3 Sc1 2.025 . S
O3 Sc2 2.018 1_554 S
C4 O10 1.274 . S
C4 O20 1.262 1_554 S
C5 O11 1.268 . S
C5 O19 1.268 . S
C6 O12 1.268 . S
C6 O21 1.268 . S
C7 O13 1.268 . S
C7 O17 1.268 . S
C8 O14 1.258 1_554 S
C8 O16 1.278 . S
C9 O15 1.268 . S
C9 O18 1.268 . S
O10 Sc0 2.105 . S
O10 C4 1.274 . S
O11 Sc1 2.111 . S
O11 C5 1.268 . S
O12 Sc2 2.105 . S
O12 C6 1.268 . S
O13 Sc0 2.105 . S
O13 C7 1.268 . S
O14 Sc2 2.105 . S
O14 C8 1.258 1_556 S
O15 Sc1 2.099 1_556 S
O15 C9 1.268 . S
O16 Sc0 2.105 . S
O16 C8 1.278 . S
O17 Sc1 2.111 . S
O17 C7 1.268 . S
O18 Sc2 2.105 . S
O18 C9 1.268 . S
O19 Sc0 2.105 . S
O19 C5 1.268 . S
O20 Sc2 2.105 . S
O20 C4 1.262 1_556 S
O21 Sc1 2.099 1_556 S
O21 C6 1.268 . S
Sc22 O25 2.025 . S
Sc22 O32 2.105 . S
Sc22 O35 2.105 . S
Sc22 O38 2.105 . S
Sc22 O41 2.105 . S
Sc23 O25 2.025 . S
Sc23 O33 2.105 . S
Sc23 O37 2.105 . S
Sc23 O39 2.105 . S
Sc23 O43 2.105 . S
Sc24 O25 2.025 . S
Sc24 O34 2.105 . S
Sc24 O36 2.105 . S
Sc24 O40 2.105 . S
Sc24 O42 2.105 . S
O25 Sc22 2.025 . S
O25 Sc23 2.025 . S
O25 Sc24 2.025 . S
C26 O32 1.268 . S
C26 O42 1.268 . S
C27 O33 1.268 . S
C27 O41 1.268 . S
C28 O34 1.268 . S
C28 O43 1.268 . S
C29 O35 1.268 . S
C29 O39 1.268 . S
C30 O36 1.268 . S
C30 O38 1.268 . S
C31 O37 1.268 . S
C31 O40 1.268 . S
O32 Sc22 2.105 . S
O32 C26 1.268 . S
O33 Sc23 2.105 . S
O33 C27 1.268 . S
O34 Sc24 2.105 . S
O34 C28 1.268 . S
O35 Sc22 2.105 . S
O35 C29 1.268 . S
O36 Sc24 2.105 . S
O36 C30 1.268 . S
O37 Sc23 2.105 . S
O37 C31 1.268 . S
O38 Sc22 2.105 . S
O38 C30 1.268 . S
O39 Sc23 2.105 . S
O39 C29 1.268 . S
O40 Sc24 2.105 . S
O40 C31 1.268 . S
O41 Sc22 2.105 . S
O41 C27 1.268 . S
O42 Sc24 2.105 . S
O42 C26 1.268 . S
O43 Sc23 2.105 . S
O43 C28 1.268 . S
Sc44 O47 2.018 1_556 S
Sc44 O54 2.105 . S
Sc44 O57 2.105 . S
Sc44 O60 2.105 . S
Sc44 O63 2.105 . S
Sc45 O47 2.025 . S
Sc45 O55 2.099 1_554 S
Sc45 O59 2.111 . S
Sc45 O61 2.099 1_554 S
Sc45 O65 2.111 . S
Sc46 O47 2.033 . S
Sc46 O56 2.105 . S
Sc46 O58 2.105 . S
Sc46 O62 2.105 . S
Sc46 O64 2.105 . S
O47 Sc44 2.018 1_554 S
O47 Sc45 2.025 . S
O47 Sc46 2.033 . S
C48 O54 1.262 1_554 S
C48 O64 1.274 . S
C49 O55 1.268 . S
C49 O63 1.268 . S
C50 O56 1.268 . S
C50 O65 1.268 . S
C51 O57 1.268 . S
C51 O61 1.268 . S
C52 O58 1.278 . S
C52 O60 1.258 1_554 S
C53 O59 1.268 . S
C53 O62 1.268 . S
O54 Sc44 2.105 . S
O54 C48 1.262 1_556 S
O55 Sc45 2.099 1_556 S
O55 C49 1.268 . S
O56 Sc46 2.105 . S
O56 C50 1.268 . S
O57 Sc44 2.105 . S
O57 C51 1.268 . S
O58 Sc46 2.105 . S
O58 C52 1.278 . S
O59 Sc45 2.111 . S
O59 C53 1.268 . S
O60 Sc44 2.105 . S
O60 C52 1.258 1_556 S
O61 Sc45 2.099 1_556 S
O61 C51 1.268 . S
O62 Sc46 2.105 . S
O62 C53 1.268 . S
O63 Sc44 2.105 . S
O63 C49 1.268 . S
O64 Sc46 2.105 . S
O64 C48 1.274 . S
O65 Sc45 2.111 . S
O65 C50 1.268 . S
Sc66 O69 2.025 . S
Sc66 O76 2.105 . S
Sc66 O79 2.105 . S
Sc66 O82 2.105 . S
Sc66 O85 2.105 . S
Sc67 O69 2.025 . S
Sc67 O77 2.105 . S
Sc67 O81 2.105 . S
Sc67 O83 2.105 . S
Sc67 O87 2.105 . S
Sc68 O69 2.025 . S
Sc68 O78 2.105 . S
Sc68 O80 2.105 . S
Sc68 O84 2.105 . S
Sc68 O86 2.105 . S
O69 Sc66 2.025 . S
O69 Sc67 2.025 . S
O69 Sc68 2.025 . S
C70 O76 1.268 . S
C70 O86 1.268 . S
C71 O77 1.268 . S
C71 O85 1.268 . S
C72 O78 1.268 . S
C72 O87 1.268 . S
C73 O79 1.268 . S
C73 O83 1.268 . S
C74 O80 1.268 . S
C74 O82 1.268 . S
C75 O81 1.268 . S
C75 O84 1.268 . S
O76 Sc66 2.105 . S
O76 C70 1.268 . S
O77 Sc67 2.105 . S
O77 C71 1.268 . S
O78 Sc68 2.105 . S
O78 C72 1.268 . S
O79 Sc66 2.105 . S
O79 C73 1.268 . S
O80 Sc68 2.105 . S
O80 C74 1.268 . S
O81 Sc67 2.105 . S
O81 C75 1.268 . S
O82 Sc66 2.105 . S
O82 C74 1.268 . S
O83 Sc67 2.105 . S
O83 C73 1.268 . S
O84 Sc68 2.105 . S
O84 C75 1.268 . S
O85 Sc66 2.105 . S
O85 C71 1.268 . S
O86 Sc68 2.105 . S
O86 C70 1.268 . S
O87 Sc67 2.105 . S
O87 C72 1.268 . S
C88 C89 1.386 . S
C88 C90 1.397 . S
C88 H112 0.931 . S
C89 C88 1.386 . S
C89 C93 1.397 . S
C90 C88 1.397 . S
C90 C91 1.384 . S
C90 H113 0.930 . S
C91 C90 1.384 . S
C91 C92 1.377 . S
C91 C94 1.481 . S
C92 C91 1.377 . S
C92 C93 1.389 . S
C92 H114 0.929 . S
C93 C89 1.397 . S
C93 C92 1.389 . S
C93 H115 0.931 . S
C94 C91 1.481 . S
C94 C95 1.387 . S
C94 C99 1.390 1_556 S
C95 C94 1.387 . S
C95 C96 1.401 1_556 S
C95 H116 0.930 . S
C96 C95 1.401 1_554 S
C96 C97 1.376 . S
C96 C105 1.511 . S
C97 C96 1.376 . S
C97 C98 1.392 . S
C97 H118 0.931 . S
C98 C97 1.392 . S
C98 C99 1.361 . S
C98 C100 1.500 . S
C99 C94 1.390 1_554 S
C99 C98 1.361 . S
C99 H117 0.932 . S
C100 C98 1.500 . S
C100 C101 1.371 . S
C100 C102 1.365 . S
C101 C100 1.371 . S
C101 C111 1.386 . S
C101 H119 0.931 . S
C102 C100 1.365 . S
C102 C103 1.409 . S
C102 H120 0.929 . S
C103 C102 1.409 . S
C103 C104 1.380 . S
C103 H121 0.930 . S
C104 C103 1.380 . S
C104 C111 1.357 . S
C105 C96 1.511 . S
C105 C106 1.341 1_554 S
C105 C107 1.371 . S
C106 C105 1.341 1_556 S
C106 C110 1.394 . S
C106 H122 0.930 . S
C107 C105 1.371 . S
C107 C108 1.392 . S
C107 H123 0.931 . S
C108 C107 1.392 . S
C108 C109 1.351 . S
C108 H126 0.932 . S
C109 C108 1.351 . S
C109 C110 1.317 1_554 S
C110 C106 1.394 . S
C110 C109 1.317 1_556 S
C110 H125 0.929 . S
C111 C101 1.386 . S
C111 C104 1.357 . S
C111 H124 0.928 . S
H112 C88 0.931 . S
H113 C90 0.930 . S
H114 C92 0.929 . S
H115 C93 0.931 . S
H116 C95 0.930 . S
H117 C99 0.932 . S
H118 C97 0.931 . S
H119 C101 0.931 . S
H120 C102 0.929 . S
H121 C103 0.930 . S
H122 C106 0.930 . S
H123 C107 0.931 . S
H124 C111 0.928 . S
H125 C110 0.929 . S
H126 C108 0.932 . S
C127 C128 1.386 . S
C127 C129 1.397 . S
C127 H151 0.931 . S
C128 C127 1.386 . S
C128 C132 1.397 . S
C129 C127 1.397 . S
C129 C130 1.384 . S
C129 H152 0.930 . S
C130 C129 1.384 . S
C130 C131 1.377 . S
C130 C133 1.481 . S
C131 C130 1.377 . S
C131 C132 1.389 . S
C131 H153 0.929 . S
C132 C128 1.397 . S
C132 C131 1.389 . S
C132 H154 0.931 . S
C133 C130 1.481 . S
C133 C134 1.387 . S
C133 C138 1.390 . S
C134 C133 1.387 . S
C134 C135 1.431 . S
C134 H155 0.930 . S
C135 C134 1.431 . S
C135 C136 1.408 . S
C135 C144 1.454 1_655 S
C136 C135 1.408 . S
C136 C137 1.392 . S
C136 H157 0.931 . S
C137 C136 1.392 . S
C137 C138 1.361 . S
C137 C139 1.500 . S
C138 C133 1.390 . S
C138 C137 1.361 . S
C138 H156 0.931 . S
C139 C137 1.500 . S
C139 C140 1.371 . S
C139 C141 1.365 . S
C140 C139 1.371 . S
C140 C150 1.386 . S
C140 H158 0.931 . S
C141 C139 1.365 . S
C141 C142 1.409 . S
C141 H159 0.929 . S
C142 C141 1.409 . S
C142 C143 1.380 . S
C142 H160 0.930 . S
C143 C142 1.380 . S
C143 C150 1.357 . S
C144 C135 1.454 1_455 S
C144 C145 1.341 . S
C144 C146 1.371 . S
C145 C144 1.341 . S
C145 C149 1.394 . S
C145 H161 0.930 . S
C146 C144 1.371 . S
C146 C147 1.392 . S
C146 H162 0.931 . S
C147 C146 1.392 . S
C147 C148 1.331 . S
C147 H165 0.932 . S
C148 C147 1.331 . S
C148 C149 1.336 . S
C149 C145 1.394 . S
C149 C148 1.336 . S
C149 H164 0.929 . S
C150 C140 1.386 . S
C150 C143 1.357 . S
C150 H163 0.928 . S
H151 C127 0.931 . S
H152 C129 0.930 . S
H153 C131 0.929 . S
H154 C132 0.931 . S
H155 C134 0.930 . S
H156 C138 0.931 . S
H157 C136 0.931 . S
H158 C140 0.931 . S
H159 C141 0.929 . S
H160 C142 0.930 . S
H161 C145 0.930 . S
H162 C146 0.931 . S
H163 C150 0.928 . S
H164 C149 0.929 . S
H165 C147 0.932 . S
C166 C167 1.386 . S
C166 C168 1.397 . S
C166 H190 0.931 . S
C167 C166 1.386 . S
C167 C171 1.397 . S
C168 C166 1.397 . S
C168 C169 1.384 . S
C168 H191 0.930 . S
C169 C168 1.384 . S
C169 C170 1.377 . S
C169 C172 1.481 . S
C170 C169 1.377 . S
C170 C171 1.389 . S
C170 H192 0.929 . S
C171 C167 1.397 . S
C171 C170 1.389 . S
C171 H193 0.931 . S
C172 C169 1.481 . S
C172 C173 1.387 . S
C172 C177 1.383 1_554 S
C173 C172 1.387 . S
C173 C174 1.401 1_554 S
C173 H194 0.930 . S
C174 C173 1.401 1_556 S
C174 C175 1.376 . S
C174 C183 1.511 . S
C175 C174 1.376 . S
C175 C176 1.392 . S
C175 H196 0.931 . S
C176 C175 1.392 . S
C176 C177 1.368 . S
C176 C178 1.500 . S
C177 C172 1.383 1_556 S
C177 C176 1.368 . S
C177 H195 0.931 . S
C178 C176 1.500 . S
C178 C179 1.371 . S
C178 C180 1.365 . S
C179 C178 1.371 . S
C179 C189 1.386 . S
C179 H197 0.931 . S
C180 C178 1.365 . S
C180 C181 1.409 . S
C180 H198 0.929 . S
C181 C180 1.409 . S
C181 C182 1.380 . S
C181 H199 0.930 . S
C182 C181 1.380 . S
C182 C189 1.357 . S
C183 C174 1.511 . S
C183 C184 1.341 1_556 S
C183 C185 1.371 . S
C184 C183 1.341 1_554 S
C184 C188 1.394 . S
C184 H200 0.930 . S
C185 C183 1.371 . S
C185 C186 1.392 . S
C185 H201 0.931 . S
C186 C185 1.392 . S
C186 C187 1.331 . S
C186 H204 0.932 . S
C187 C186 1.331 . S
C187 C188 1.336 1_556 S
C188 C184 1.394 . S
C188 C187 1.336 1_554 S
C188 H203 0.929 . S
C189 C179 1.386 . S
C189 C182 1.357 . S
C189 H202 0.928 . S
H190 C166 0.931 . S
H191 C168 0.930 . S
H192 C170 0.929 . S
H193 C171 0.931 . S
H194 C173 0.930 . S
H195 C177 0.931 . S
H196 C175 0.931 . S
H197 C179 0.931 . S
H198 C180 0.929 . S
H199 C181 0.930 . S
H200 C184 0.930 . S
H201 C185 0.931 . S
H202 C189 0.928 . S
H203 C188 0.929 . S
H204 C186 0.932 . S
C205 C206 1.386 . S
C205 C207 1.397 . S
C205 H229 0.931 . S
C206 C205 1.386 . S
C206 C210 1.397 . S
C207 C205 1.397 . S
C207 C208 1.384 . S
C207 H230 0.930 . S
C208 C207 1.384 . S
C208 C209 1.377 . S
C208 C211 1.481 . S
C209 C208 1.377 . S
C209 C210 1.389 . S
C209 H231 0.929 . S
C210 C206 1.397 . S
C210 C209 1.389 . S
C210 H232 0.931 . S
C211 C208 1.481 . S
C211 C212 1.387 . S
C211 C216 1.390 . S
C212 C211 1.387 . S
C212 C213 1.425 . S
C212 H233 0.930 . S
C213 C212 1.425 . S
C213 C214 1.402 . S
C213 C222 1.463 1_455 S
C214 C213 1.402 . S
C214 C215 1.392 . S
C214 H235 0.931 . S
C215 C214 1.392 . S
C215 C216 1.361 . S
C215 C217 1.500 . S
C216 C211 1.390 . S
C216 C215 1.361 . S
C216 H234 0.931 . S
C217 C215 1.500 . S
C217 C218 1.371 . S
C217 C219 1.365 . S
C218 C217 1.371 . S
C218 C228 1.386 . S
C218 H236 0.931 . S
C219 C217 1.365 . S
C219 C220 1.409 . S
C219 H237 0.929 . S
C220 C219 1.409 . S
C220 C221 1.380 . S
C220 H238 0.930 . S
C221 C220 1.380 . S
C221 C228 1.357 . S
C222 C213 1.463 1_655 S
C222 C223 1.341 . S
C222 C224 1.371 . S
C223 C222 1.341 . S
C223 C227 1.394 . S
C223 H239 0.930 . S
C224 C222 1.371 . S
C224 C225 1.392 . S
C224 H240 0.931 . S
C225 C224 1.392 . S
C225 C226 1.331 . S
C225 H243 0.932 . S
C226 C225 1.331 . S
C226 C227 1.336 . S
C227 C223 1.394 . S
C227 C226 1.336 . S
C227 H242 0.929 . S
C228 C218 1.386 . S
C228 C221 1.357 . S
C228 H241 0.928 . S
H229 C205 0.931 . S
H230 C207 0.930 . S
H231 C209 0.929 . S
H232 C210 0.931 . S
H233 C212 0.930 . S
H234 C216 0.931 . S
H235 C214 0.931 . S
H236 C218 0.931 . S
H237 C219 0.929 . S
H238 C220 0.930 . S
H239 C223 0.930 . S
H240 C224 0.931 . S
H241 C228 0.928 . S
H242 C227 0.929 . S
H243 C225 0.932 . S
C244 C245 1.386 . S
C244 C246 1.397 . S
C244 H268 0.931 . S
C245 C244 1.386 . S
C245 C249 1.397 . S
C246 C244 1.397 . S
C246 C247 1.384 . S
C246 H269 0.930 . S
C247 C246 1.384 . S
C247 C248 1.377 . S
C247 C250 1.481 . S
C248 C247 1.377 . S
C248 C249 1.389 . S
C248 H270 0.929 . S
C249 C245 1.397 . S
C249 C248 1.389 . S
C249 H271 0.931 . S
C250 C247 1.481 . S
C250 C251 1.387 . S
C250 C255 1.390 . S
C251 C250 1.387 . S
C251 C252 1.431 . S
C251 H272 0.930 . S
C252 C251 1.431 . S
C252 C253 1.408 . S
C252 C261 1.454 1_565 S
C253 C252 1.408 . S
C253 C254 1.392 . S
C253 H274 0.931 . S
C254 C253 1.392 . S
C254 C255 1.361 . S
C254 C256 1.500 . S
C255 C250 1.390 . S
C255 C254 1.361 . S
C255 H273 0.931 . S
C256 C254 1.500 . S
C256 C257 1.371 . S
C256 C258 1.365 . S
C257 C256 1.371 . S
C257 C267 1.386 . S
C257 H275 0.931 . S
C258 C256 1.365 . S
C258 C259 1.409 . S
C258 H276 0.929 . S
C259 C258 1.409 . S
C259 C260 1.380 . S
C259 H277 0.930 . S
C260 C259 1.380 . S
C260 C267 1.357 . S
C261 C252 1.454 1_545 S
C261 C262 1.341 . S
C261 C263 1.371 . S
C262 C261 1.341 . S
C262 C266 1.394 . S
C262 H278 0.930 . S
C263 C261 1.371 . S
C263 C264 1.392 . S
C263 H279 0.931 . S
C264 C263 1.392 . S
C264 C265 1.331 . S
C264 H282 0.932 . S
C265 C264 1.331 . S
C265 C266 1.336 . S
C266 C262 1.394 . S
C266 C265 1.336 . S
C266 H281 0.929 . S
C267 C257 1.386 . S
C267 C260 1.357 . S
C267 H280 0.928 . S
H268 C244 0.931 . S
H269 C246 0.930 . S
H270 C248 0.929 . S
H271 C249 0.931 . S
H272 C251 0.930 . S
H273 C255 0.931 . S
H274 C253 0.931 . S
H275 C257 0.931 . S
H276 C258 0.929 . S
H277 C259 0.930 . S
H278 C262 0.930 . S
H279 C263 0.931 . S
H280 C267 0.928 . S
H281 C266 0.929 . S
H282 C264 0.932 . S
C283 C284 1.386 . S
C283 C285 1.397 . S
C283 H307 0.931 . S
C284 C283 1.386 . S
C284 C288 1.397 . S
C285 C283 1.397 . S
C285 C286 1.384 . S
C285 H308 0.930 . S
C286 C285 1.384 . S
C286 C287 1.377 . S
C286 C289 1.481 . S
C287 C286 1.377 . S
C287 C288 1.389 . S
C287 H309 0.929 . S
C288 C284 1.397 . S
C288 C287 1.389 . S
C288 H310 0.931 . S
C289 C286 1.481 . S
C289 C290 1.387 . S
C289 C294 1.383 1_554 S
C290 C289 1.387 . S
C290 C291 1.401 1_554 S
C290 H311 0.930 . S
C291 C290 1.401 1_556 S
C291 C292 1.376 . S
C291 C300 1.511 . S
C292 C291 1.376 . S
C292 C293 1.392 . S
C292 H313 0.931 . S
C293 C292 1.392 . S
C293 C294 1.368 . S
C293 C295 1.500 . S
C294 C289 1.383 1_556 S
C294 C293 1.368 . S
C294 H312 0.931 . S
C295 C293 1.500 . S
C295 C296 1.371 . S
C295 C297 1.365 . S
C296 C295 1.371 . S
C296 C306 1.386 . S
C296 H314 0.931 . S
C297 C295 1.365 . S
C297 C298 1.409 . S
C297 H315 0.929 . S
C298 C297 1.409 . S
C298 C299 1.380 . S
C298 H316 0.930 . S
C299 C298 1.380 . S
C299 C306 1.357 . S
C300 C291 1.511 . S
C300 C301 1.341 1_556 S
C300 C302 1.371 . S
C301 C300 1.341 1_554 S
C301 C305 1.394 . S
C301 H317 0.930 . S
C302 C300 1.371 . S
C302 C303 1.392 . S
C302 H318 0.931 . S
C303 C302 1.392 . S
C303 C304 1.331 . S
C303 H321 0.932 . S
C304 C303 1.331 . S
C304 C305 1.336 1_556 S
C305 C301 1.394 . S
C305 C304 1.336 1_554 S
C305 H320 0.929 . S
C306 C296 1.386 . S
C306 C299 1.357 . S
C306 H319 0.928 . S
H307 C283 0.931 . S
H308 C285 0.930 . S
H309 C287 0.929 . S
H310 C288 0.931 . S
H311 C290 0.930 . S
H312 C294 0.931 . S
H313 C292 0.931 . S
H314 C296 0.931 . S
H315 C297 0.929 . S
H316 C298 0.930 . S
H317 C301 0.930 . S
H318 C302 0.931 . S
H319 C306 0.928 . S
H320 C305 0.929 . S
H321 C303 0.932 . S
C322 C323 1.386 . S
C322 C324 1.397 . S
C322 H346 0.931 . S
C323 C322 1.386 . S
C323 C327 1.397 . S
C324 C322 1.397 . S
C324 C325 1.384 . S
C324 H347 0.930 . S
C325 C324 1.384 . S
C325 C326 1.377 . S
C325 C328 1.481 . S
C326 C325 1.377 . S
C326 C327 1.389 . S
C326 H348 0.929 . S
C327 C323 1.397 . S
C327 C326 1.389 . S
C327 H349 0.931 . S
C328 C325 1.481 . S
C328 C329 1.387 . S
C328 C333 1.390 . S
C329 C328 1.387 . S
C329 C330 1.425 . S
C329 H350 0.930 . S
C330 C329 1.425 . S
C330 C331 1.402 . S
C330 C339 1.463 1_545 S
C331 C330 1.402 . S
C331 C332 1.392 . S
C331 H352 0.931 . S
C332 C331 1.392 . S
C332 C333 1.361 . S
C332 C334 1.500 . S
C333 C328 1.390 . S
C333 C332 1.361 . S
C333 H351 0.931 . S
C334 C332 1.500 . S
C334 C335 1.371 . S
C334 C336 1.365 . S
C335 C334 1.371 . S
C335 C345 1.386 . S
C335 H353 0.931 . S
C336 C334 1.365 . S
C336 C337 1.409 . S
C336 H354 0.929 . S
C337 C336 1.409 . S
C337 C338 1.380 . S
C337 H355 0.930 . S
C338 C337 1.380 . S
C338 C345 1.357 . S
C339 C330 1.463 1_565 S
C339 C340 1.341 . S
C339 C341 1.371 . S
C340 C339 1.341 . S
C340 C344 1.394 . S
C340 H356 0.930 . S
C341 C339 1.371 . S
C341 C342 1.392 . S
C341 H357 0.931 . S
C342 C341 1.392 . S
C342 C343 1.331 . S
C342 H360 0.932 . S
C343 C342 1.331 . S
C343 C344 1.336 . S
C344 C340 1.394 . S
C344 C343 1.336 . S
C344 H359 0.929 . S
C345 C335 1.386 . S
C345 C338 1.357 . S
C345 H358 0.928 . S
H346 C322 0.931 . S
H347 C324 0.930 . S
H348 C326 0.929 . S
H349 C327 0.931 . S
H350 C329 0.930 . S
H351 C333 0.931 . S
H352 C331 0.931 . S
H353 C335 0.931 . S
H354 C336 0.929 . S
H355 C337 0.930 . S
H356 C340 0.930 . S
H357 C341 0.931 . S
H358 C345 0.928 . S
H359 C344 0.929 . S
H360 C342 0.932 . S
C361 C362 1.386 . S
C361 C363 1.397 . S
C361 H385 0.931 . S
C362 C361 1.386 . S
C362 C366 1.397 . S
C363 C361 1.397 . S
C363 C364 1.384 . S
C363 H386 0.930 . S
C364 C363 1.384 . S
C364 C365 1.377 . S
C364 C367 1.481 . S
C365 C364 1.377 . S
C365 C366 1.389 . S
C365 H387 0.929 . S
C366 C362 1.397 . S
C366 C365 1.389 . S
C366 H388 0.931 . S
C367 C364 1.481 . S
C367 C368 1.387 . S
C367 C372 1.390 1_556 S
C368 C367 1.387 . S
C368 C369 1.401 1_556 S
C368 H389 0.930 . S
C369 C368 1.401 1_554 S
C369 C370 1.376 . S
C369 C378 1.511 . S
C370 C369 1.376 . S
C370 C371 1.392 . S
C370 H391 0.931 . S
C371 C370 1.392 . S
C371 C372 1.361 . S
C371 C373 1.500 . S
C372 C367 1.390 1_554 S
C372 C371 1.361 . S
C372 H390 0.932 . S
C373 C371 1.500 . S
C373 C374 1.371 . S
C373 C375 1.365 . S
C374 C373 1.371 . S
C374 C384 1.386 . S
C374 H392 0.931 . S
C375 C373 1.365 . S
C375 C376 1.409 . S
C375 H393 0.929 . S
C376 C375 1.409 . S
C376 C377 1.380 . S
C376 H394 0.930 . S
C377 C376 1.380 . S
C377 C384 1.357 . S
C378 C369 1.511 . S
C378 C379 1.341 1_554 S
C378 C380 1.371 . S
C379 C378 1.341 1_556 S
C379 C383 1.394 . S
C379 H395 0.930 . S
C380 C378 1.371 . S
C380 C381 1.392 . S
C380 H396 0.931 . S
C381 C380 1.392 . S
C381 C382 1.351 . S
C381 H399 0.932 . S
C382 C381 1.351 . S
C382 C383 1.316 1_554 S
C383 C379 1.394 . S
C383 C382 1.316 1_556 S
C383 H398 0.929 . S
C384 C374 1.386 . S
C384 C377 1.357 . S
C384 H397 0.928 . S
H385 C361 0.931 . S
H386 C363 0.930 . S
H387 C365 0.929 . S
H388 C366 0.931 . S
H389 C368 0.930 . S
H390 C372 0.932 . S
H391 C370 0.931 . S
H392 C374 0.931 . S
H393 C375 0.929 . S
H394 C376 0.930 . S
H395 C379 0.930 . S
H396 C380 0.931 . S
H397 C384 0.928 . S
H398 C383 0.929 . S
H399 C381 0.932 . S
C400 C401 1.349 . S
C400 C402 1.327 . S
C400 H425 0.950 . S
C401 C400 1.349 . S
C401 C417 1.349 . S
C402 C400 1.327 . S
C402 C421 1.429 . S
C402 H426 0.950 . S
C403 C420 1.574 . S
C403 C422 1.368 . S
C403 H427 0.949 . S
H404 C408 0.949 . S
C405 C406 1.349 . S
C405 C407 1.327 . S
C405 H428 0.950 . S
C406 C405 1.349 . S
C406 C418 1.349 . S
C407 C405 1.327 . S
C407 C423 1.429 . S
C407 H429 0.950 . S
C408 H404 0.949 . S
C408 C416 1.574 . S
C408 C424 1.368 . S
H409 C417 0.950 . S
H410 C415 0.950 . S
H411 C416 0.949 . S
H412 C418 0.950 . S
H413 C419 0.950 . S
H414 C420 0.949 . S
C415 H410 0.950 . S
C415 C417 1.327 . S
C415 C421 1.429 . S
C416 C408 1.574 . S
C416 H411 0.949 . S
C416 C422 1.368 . S
C417 C401 1.349 . S
C417 H409 0.950 . S
C417 C415 1.327 . S
C418 C406 1.349 . S
C418 H412 0.950 . S
C418 C419 1.327 . S
C419 H413 0.950 . S
C419 C418 1.327 . S
C419 C423 1.429 . S
C420 C403 1.574 . S
C420 H414 0.949 . S
C420 C424 1.368 . S
C421 C402 1.429 . S
C421 C415 1.429 . S
C421 C422 1.523 . S
C422 C403 1.368 . S
C422 C416 1.368 . S
C422 C421 1.523 . S
C423 C407 1.429 . S
C423 C419 1.429 . S
C423 C424 1.523 . S
C424 C408 1.368 . S
C424 C420 1.368 . S
C424 C423 1.523 . S
H425 C400 0.950 . S
H426 C402 0.950 . S
H427 C403 0.949 . S
H428 C405 0.950 . S
H429 C407 0.950 . S
C430 C431 1.349 . S
C430 C432 1.327 . S
C430 H455 0.950 . S
C431 C430 1.349 . S
C431 C447 1.349 . S
C432 C430 1.327 . S
C432 C451 1.429 . S
C432 H456 0.950 . S
C433 C450 1.574 . S
C433 C452 1.368 . S
C433 H457 0.949 . S
H434 C438 0.949 . S
C435 C436 1.349 . S
C435 C437 1.327 . S
C435 H458 0.950 . S
C436 C435 1.349 . S
C436 C448 1.349 . S
C437 C435 1.327 . S
C437 C453 1.429 . S
C437 H459 0.950 . S
C438 H434 0.949 . S
C438 C446 1.574 . S
C438 C454 1.368 . S
H439 C447 0.950 . S
H440 C445 0.950 . S
H441 C446 0.949 . S
H442 C448 0.950 . S
H443 C449 0.950 . S
H444 C450 0.949 . S
C445 H440 0.950 . S
C445 C447 1.327 . S
C445 C451 1.429 . S
C446 C438 1.574 . S
C446 H441 0.949 . S
C446 C452 1.368 . S
C447 C431 1.349 . S
C447 H439 0.950 . S
C447 C445 1.327 . S
C448 C436 1.349 . S
C448 H442 0.950 . S
C448 C449 1.327 . S
C449 H443 0.950 . S
C449 C448 1.327 . S
C449 C453 1.429 . S
C450 C433 1.574 . S
C450 H444 0.949 . S
C450 C454 1.368 . S
C451 C432 1.429 . S
C451 C445 1.429 . S
C451 C452 1.523 . S
C452 C433 1.368 . S
C452 C446 1.368 . S
C452 C451 1.523 . S
C453 C437 1.429 . S
C453 C449 1.429 . S
C453 C454 1.523 . S
C454 C438 1.368 . S
C454 C450 1.368 . S
C454 C453 1.523 . S
H455 C430 0.950 . S
H456 C432 0.950 . S
H457 C433 0.949 . S
H458 C435 0.950 . S
H459 C437 0.950 . S
C460 C461 1.349 . S
C460 C462 1.327 . S
C460 H485 0.950 . S
C461 C460 1.349 . S
C461 C477 1.349 . S
C462 C460 1.327 . S
C462 C481 1.429 . S
C462 H486 0.950 . S
C463 C480 1.574 . S
C463 C482 1.368 . S
C463 H487 0.949 . S
H464 C468 0.949 . S
C465 C466 1.349 . S
C465 C467 1.327 . S
C465 H488 0.950 . S
C466 C465 1.349 . S
C466 C478 1.349 . S
C467 C465 1.327 . S
C467 C483 1.429 . S
C467 H489 0.950 . S
C468 H464 0.949 . S
C468 C476 1.574 . S
C468 C484 1.368 . S
H469 C477 0.950 . S
H470 C475 0.950 . S
H471 C476 0.949 . S
H472 C478 0.950 . S
H473 C479 0.950 . S
H474 C480 0.949 . S
C475 H470 0.950 . S
C475 C477 1.327 . S
C475 C481 1.429 . S
C476 C468 1.574 . S
C476 H471 0.949 . S
C476 C482 1.368 . S
C477 C461 1.349 . S
C477 H469 0.950 . S
C477 C475 1.327 . S
C478 C466 1.349 . S
C478 H472 0.950 . S
C478 C479 1.327 . S
C479 H473 0.950 . S
C479 C478 1.327 . S
C479 C483 1.429 . S
C480 C463 1.574 . S
C480 H474 0.949 . S
C480 C484 1.368 . S
C481 C462 1.429 . S
C481 C475 1.429 . S
C481 C482 1.523 . S
C482 C463 1.368 . S
C482 C476 1.368 . S
C482 C481 1.523 . S
C483 C467 1.429 . S
C483 C479 1.429 . S
C483 C484 1.523 . S
C484 C468 1.368 . S
C484 C480 1.368 . S
C484 C483 1.523 . S
H485 C460 0.950 . S
H486 C462 0.950 . S
H487 C463 0.949 . S
H488 C465 0.950 . S
H489 C467 0.950 . S
C490 C491 1.349 . S
C490 C492 1.327 . S
C490 H515 0.950 . S
C491 C490 1.349 . S
C491 C507 1.349 . S
C492 C490 1.327 . S
C492 C511 1.429 . S
C492 H516 0.950 . S
C493 C510 1.574 . S
C493 C512 1.368 . S
C493 H517 0.949 . S
H494 C498 0.949 . S
C495 C496 1.349 . S
C495 C497 1.327 . S
C495 H518 0.950 . S
C496 C495 1.349 . S
C496 C508 1.349 . S
C497 C495 1.327 . S
C497 C513 1.429 . S
C497 H519 0.950 . S
C498 H494 0.949 . S
C498 C506 1.574 . S
C498 C514 1.368 . S
H499 C507 0.950 . S
H500 C505 0.950 . S
H501 C506 0.949 . S
H502 C508 0.950 . S
H503 C509 0.950 . S
H504 C510 0.949 . S
C505 H500 0.950 . S
C505 C507 1.327 . S
C505 C511 1.429 . S
C506 C498 1.574 . S
C506 H501 0.949 . S
C506 C512 1.368 . S
C507 C491 1.349 . S
C507 H499 0.950 . S
C507 C505 1.327 . S
C508 C496 1.349 . S
C508 H502 0.950 . S
C508 C509 1.327 . S
C509 H503 0.950 . S
C509 C508 1.327 . S
C509 C513 1.429 . S
C510 C493 1.574 . S
C510 H504 0.949 . S
C510 C514 1.368 . S
C511 C492 1.429 . S
C511 C505 1.429 . S
C511 C512 1.523 . S
C512 C493 1.368 . S
C512 C506 1.368 . S
C512 C511 1.523 . S
C513 C497 1.429 . S
C513 C509 1.429 . S
C513 C514 1.523 . S
C514 C498 1.368 . S
C514 C510 1.368 . S
C514 C513 1.523 . S
H515 C490 0.950 . S
H516 C492 0.950 . S
H517 C493 0.949 . S
H518 C495 0.950 . S
H519 C497 0.950 . S
C520 C521 1.349 . S
C520 C522 1.327 . S
C520 H545 0.950 . S
C521 C520 1.349 . S
C521 C537 1.349 . S
C522 C520 1.327 . S
C522 C541 1.429 . S
C522 H546 0.950 . S
C523 C540 1.574 . S
C523 C542 1.368 . S
C523 H547 0.949 . S
H524 C528 0.949 . S
C525 C526 1.349 . S
C525 C527 1.327 . S
C525 H548 0.950 . S
C526 C525 1.349 . S
C526 C538 1.349 . S
C527 C525 1.327 . S
C527 C543 1.429 . S
C527 H549 0.950 . S
C528 H524 0.949 . S
C528 C536 1.574 . S
C528 C544 1.368 . S
H529 C537 0.950 . S
H530 C535 0.950 . S
H531 C536 0.949 . S
H532 C538 0.950 . S
H533 C539 0.950 . S
H534 C540 0.949 . S
C535 H530 0.950 . S
C535 C537 1.327 . S
C535 C541 1.429 . S
C536 C528 1.574 . S
C536 H531 0.949 . S
C536 C542 1.368 . S
C537 C521 1.349 . S
C537 H529 0.950 . S
C537 C535 1.327 . S
C538 C526 1.349 . S
C538 H532 0.950 . S
C538 C539 1.327 . S
C539 H533 0.950 . S
C539 C538 1.327 . S
C539 C543 1.429 . S
C540 C523 1.574 . S
C540 H534 0.949 . S
C540 C544 1.368 . S
C541 C522 1.429 . S
C541 C535 1.429 . S
C541 C542 1.523 . S
C542 C523 1.368 . S
C542 C536 1.368 . S
C542 C541 1.523 . S
C543 C527 1.429 . S
C543 C539 1.429 . S
C543 C544 1.523 . S
C544 C528 1.368 . S
C544 C540 1.368 . S
C544 C543 1.523 . S
H545 C520 0.950 . S
H546 C522 0.950 . S
H547 C523 0.949 . S
H548 C525 0.950 . S
H549 C527 0.950 . S
C550 C551 1.349 . S
C550 C552 1.327 . S
C550 H575 0.950 . S
C551 C550 1.349 . S
C551 C567 1.349 . S
C552 C550 1.327 . S
C552 C571 1.429 . S
C552 H576 0.950 . S
C553 C570 1.574 . S
C553 C572 1.368 . S
C553 H577 0.949 . S
H554 C558 0.949 . S
C555 C556 1.349 . S
C555 C557 1.327 . S
C555 H578 0.950 . S
C556 C555 1.349 . S
C556 C568 1.349 . S
C557 C555 1.327 . S
C557 C573 1.429 . S
C557 H579 0.950 . S
C558 H554 0.949 . S
C558 C566 1.574 . S
C558 C574 1.368 . S
H559 C567 0.950 . S
H560 C565 0.950 . S
H561 C566 0.949 . S
H562 C568 0.950 . S
H563 C569 0.950 . S
H564 C570 0.949 . S
C565 H560 0.950 . S
C565 C567 1.327 . S
C565 C571 1.429 . S
C566 C558 1.574 . S
C566 H561 0.949 . S
C566 C572 1.368 . S
C567 C551 1.349 . S
C567 H559 0.950 . S
C567 C565 1.327 . S
C568 C556 1.349 . S
C568 H562 0.950 . S
C568 C569 1.327 . S
C569 H563 0.950 . S
C569 C568 1.327 . S
C569 C573 1.429 . S
C570 C553 1.574 . S
C570 H564 0.949 . S
C570 C574 1.368 . S
C571 C552 1.429 . S
C571 C565 1.429 . S
C571 C572 1.523 . S
C572 C553 1.368 . S
C572 C566 1.368 . S
C572 C571 1.523 . S
C573 C557 1.429 . S
C573 C569 1.429 . S
C573 C574 1.523 . S
C574 C558 1.368 . S
C574 C570 1.368 . S
C574 C573 1.523 . S
H575 C550 0.950 . S
H576 C552 0.950 . S
H577 C553 0.949 . S
H578 C555 0.950 . S
H579 C557 0.950 . S
C580 C581 1.349 . S
C580 C582 1.327 . S
C580 H605 0.950 . S
C581 C580 1.349 . S
C581 C597 1.349 . S
C582 C580 1.327 . S
C582 C601 1.429 . S
C582 H606 0.950 . S
C583 C600 1.574 . S
C583 C602 1.368 . S
C583 H607 0.949 . S
H584 C588 0.949 . S
C585 C586 1.349 . S
C585 C587 1.327 . S
C585 H608 0.950 . S
C586 C585 1.349 . S
C586 C598 1.349 . S
C587 C585 1.327 . S
C587 C603 1.429 . S
C587 H609 0.950 . S
C588 H584 0.949 . S
C588 C596 1.574 . S
C588 C604 1.368 . S
H589 C597 0.950 . S
H590 C595 0.950 . S
H591 C596 0.949 . S
H592 C598 0.950 . S
H593 C599 0.950 . S
H594 C600 0.949 . S
C595 H590 0.950 . S
C595 C597 1.327 . S
C595 C601 1.429 . S
C596 C588 1.574 . S
C596 H591 0.949 . S
C596 C602 1.368 . S
C597 C581 1.349 . S
C597 H589 0.950 . S
C597 C595 1.327 . S
C598 C586 1.349 . S
C598 H592 0.950 . S
C598 C599 1.327 . S
C599 H593 0.950 . S
C599 C598 1.327 . S
C599 C603 1.429 . S
C600 C583 1.574 . S
C600 H594 0.949 . S
C600 C604 1.368 . S
C601 C582 1.429 . S
C601 C595 1.429 . S
C601 C602 1.523 . S
C602 C583 1.368 . S
C602 C596 1.368 . S
C602 C601 1.523 . S
C603 C587 1.429 . S
C603 C599 1.429 . S
C603 C604 1.523 . S
C604 C588 1.368 . S
C604 C600 1.368 . S
C604 C603 1.523 . S
H605 C580 0.950 . S
H606 C582 0.950 . S
H607 C583 0.949 . S
H608 C585 0.950 . S
H609 C587 0.950 . S
C610 C611 1.349 . S
C610 C612 1.327 . S
C610 H635 0.950 . S
C611 C610 1.349 . S
C611 C627 1.349 . S
C612 C610 1.327 . S
C612 C631 1.429 . S
C612 H636 0.950 . S
C613 C630 1.574 . S
C613 C632 1.368 . S
C613 H637 0.949 . S
H614 C618 0.949 . S
C615 C616 1.349 . S
C615 C617 1.327 . S
C615 H638 0.950 . S
C616 C615 1.349 . S
C616 C628 1.349 . S
C617 C615 1.327 . S
C617 C633 1.429 . S
C617 H639 0.950 . S
C618 H614 0.949 . S
C618 C626 1.574 . S
C618 C634 1.368 . S
H619 C627 0.950 . S
H620 C625 0.950 . S
H621 C626 0.949 . S
H622 C628 0.950 . S
H623 C629 0.950 . S
H624 C630 0.949 . S
C625 H620 0.950 . S
C625 C627 1.327 . S
C625 C631 1.429 . S
C626 C618 1.574 . S
C626 H621 0.949 . S
C626 C632 1.368 . S
C627 C611 1.349 . S
C627 H619 0.950 . S
C627 C625 1.327 . S
C628 C616 1.349 . S
C628 H622 0.950 . S
C628 C629 1.327 . S
C629 H623 0.950 . S
C629 C628 1.327 . S
C629 C633 1.429 . S
C630 C613 1.574 . S
C630 H624 0.949 . S
C630 C634 1.368 . S
C631 C612 1.429 . S
C631 C625 1.429 . S
C631 C632 1.523 . S
C632 C613 1.368 . S
C632 C626 1.368 . S
C632 C631 1.523 . S
C633 C617 1.429 . S
C633 C629 1.429 . S
C633 C634 1.523 . S
C634 C618 1.368 . S
C634 C630 1.368 . S
C634 C633 1.523 . S
H635 C610 0.950 . S
H636 C612 0.950 . S
H637 C613 0.949 . S
H638 C615 0.950 . S
H639 C617 0.950 . S
C640 C641 1.349 . S
C640 C642 1.327 . S
C640 H665 0.950 . S
C641 C640 1.349 . S
C641 C657 1.349 . S
C642 C640 1.327 . S
C642 C661 1.429 . S
C642 H666 0.950 . S
C643 C660 1.574 . S
C643 C662 1.368 . S
C643 H667 0.949 . S
H644 C648 0.949 . S
C645 C646 1.349 . S
C645 C647 1.327 . S
C645 H668 0.950 . S
C646 C645 1.349 . S
C646 C658 1.349 . S
C647 C645 1.327 . S
C647 C663 1.429 . S
C647 H669 0.950 . S
C648 H644 0.949 . S
C648 C656 1.574 . S
C648 C664 1.368 . S
H649 C657 0.950 . S
H650 C655 0.950 . S
H651 C656 0.949 . S
H652 C658 0.950 . S
H653 C659 0.950 . S
H654 C660 0.949 . S
C655 H650 0.950 . S
C655 C657 1.327 . S
C655 C661 1.429 . S
C656 C648 1.574 . S
C656 H651 0.949 . S
C656 C662 1.368 . S
C657 C641 1.349 . S
C657 H649 0.950 . S
C657 C655 1.327 . S
C658 C646 1.349 . S
C658 H652 0.950 . S
C658 C659 1.327 . S
C659 H653 0.950 . S
C659 C658 1.327 . S
C659 C663 1.429 . S
C660 C643 1.574 . S
C660 H654 0.949 . S
C660 C664 1.368 . S
C661 C642 1.429 . S
C661 C655 1.429 . S
C661 C662 1.523 . S
C662 C643 1.368 . S
C662 C656 1.368 . S
C662 C661 1.523 . S
C663 C647 1.429 . S
C663 C659 1.429 . S
C663 C664 1.523 . S
C664 C648 1.368 . S
C664 C660 1.368 . S
C664 C663 1.523 . S
H665 C640 0.950 . S
H666 C642 0.950 . S
H667 C643 0.949 . S
H668 C645 0.950 . S
H669 C647 0.950 . S
C670 C671 1.349 . S
C670 C672 1.327 . S
C670 H695 0.950 . S
C671 C670 1.349 . S
C671 C687 1.349 . S
C672 C670 1.327 . S
C672 C691 1.429 . S
C672 H696 0.950 . S
C673 C690 1.574 . S
C673 C692 1.368 . S
C673 H697 0.949 . S
H674 C678 0.949 . S
C675 C676 1.349 . S
C675 C677 1.327 . S
C675 H698 0.950 . S
C676 C675 1.349 . S
C676 C688 1.349 . S
C677 C675 1.327 . S
C677 C693 1.429 . S
C677 H699 0.950 . S
C678 H674 0.949 . S
C678 C686 1.574 . S
C678 C694 1.368 . S
H679 C687 0.950 . S
H680 C685 0.950 . S
H681 C686 0.949 . S
H682 C688 0.950 . S
H683 C689 0.950 . S
H684 C690 0.949 . S
C685 H680 0.950 . S
C685 C687 1.327 . S
C685 C691 1.429 . S
C686 C678 1.574 . S
C686 H681 0.949 . S
C686 C692 1.368 . S
C687 C671 1.349 . S
C687 H679 0.950 . S
C687 C685 1.327 . S
C688 C676 1.349 . S
C688 H682 0.950 . S
C688 C689 1.327 . S
C689 H683 0.950 . S
C689 C688 1.327 . S
C689 C693 1.429 . S
C690 C673 1.574 . S
C690 H684 0.949 . S
C690 C694 1.368 . S
C691 C672 1.429 . S
C691 C685 1.429 . S
C691 C692 1.523 . S
C692 C673 1.368 . S
C692 C686 1.368 . S
C692 C691 1.523 . S
C693 C677 1.429 . S
C693 C689 1.429 . S
C693 C694 1.523 . S
C694 C678 1.368 . S
C694 C690 1.368 . S
C694 C693 1.523 . S
H695 C670 0.950 . S
H696 C672 0.950 . S
H697 C673 0.949 . S
H698 C675 0.950 . S
H699 C677 0.950 . S
C700 C701 1.349 . S
C700 C702 1.327 . S
C700 H725 0.950 . S
C701 C700 1.349 . S
C701 C717 1.349 . S
C702 C700 1.327 . S
C702 C721 1.429 . S
C702 H726 0.950 . S
C703 C720 1.574 . S
C703 C722 1.368 . S
C703 H727 0.949 . S
H704 C708 0.949 . S
C705 C706 1.349 . S
C705 C707 1.327 . S
C705 H728 0.950 . S
C706 C705 1.349 . S
C706 C718 1.349 . S
C707 C705 1.327 . S
C707 C723 1.429 . S
C707 H729 0.950 . S
C708 H704 0.949 . S
C708 C716 1.574 . S
C708 C724 1.368 . S
H709 C717 0.950 . S
H710 C715 0.950 . S
H711 C716 0.949 . S
H712 C718 0.950 . S
H713 C719 0.950 . S
H714 C720 0.949 . S
C715 H710 0.950 . S
C715 C717 1.327 . S
C715 C721 1.429 . S
C716 C708 1.574 . S
C716 H711 0.949 . S
C716 C722 1.368 . S
C717 C701 1.349 . S
C717 H709 0.950 . S
C717 C715 1.327 . S
C718 C706 1.349 . S
C718 H712 0.950 . S
C718 C719 1.327 . S
C719 H713 0.950 . S
C719 C718 1.327 . S
C719 C723 1.429 . S
C720 C703 1.574 . S
C720 H714 0.949 . S
C720 C724 1.368 . S
C721 C702 1.429 . S
C721 C715 1.429 . S
C721 C722 1.523 . S
C722 C703 1.368 . S
C722 C716 1.368 . S
C722 C721 1.523 . S
C723 C707 1.429 . S
C723 C719 1.429 . S
C723 C724 1.523 . S
C724 C708 1.368 . S
C724 C720 1.368 . S
C724 C723 1.523 . S
H725 C700 0.950 . S
H726 C702 0.950 . S
H727 C703 0.949 . S
H728 C705 0.950 . S
H729 C707 0.950 . S
C730 C731 1.349 . S
C730 C732 1.327 . S
C730 H755 0.950 . S
C731 C730 1.349 . S
C731 C747 1.349 . S
C732 C730 1.327 . S
C732 C751 1.429 . S
C732 H756 0.950 . S
C733 C750 1.574 . S
C733 C752 1.368 . S
C733 H757 0.949 . S
H734 C738 0.949 . S
C735 C736 1.349 . S
C735 C737 1.327 . S
C735 H758 0.950 . S
C736 C735 1.349 . S
C736 C748 1.349 . S
C737 C735 1.327 . S
C737 C753 1.429 . S
C737 H759 0.950 . S
C738 H734 0.949 . S
C738 C746 1.574 . S
C738 C754 1.368 . S
H739 C747 0.950 . S
H740 C745 0.950 . S
H741 C746 0.949 . S
H742 C748 0.950 . S
H743 C749 0.950 . S
H744 C750 0.949 . S
C745 H740 0.950 . S
C745 C747 1.327 . S
C745 C751 1.429 . S
C746 C738 1.574 . S
C746 H741 0.949 . S
C746 C752 1.368 . S
C747 C731 1.349 . S
C747 H739 0.950 . S
C747 C745 1.327 . S
C748 C736 1.349 . S
C748 H742 0.950 . S
C748 C749 1.327 . S
C749 H743 0.950 . S
C749 C748 1.327 . S
C749 C753 1.429 . S
C750 C733 1.574 . S
C750 H744 0.949 . S
C750 C754 1.368 . S
C751 C732 1.429 . S
C751 C745 1.429 . S
C751 C752 1.523 . S
C752 C733 1.368 . S
C752 C746 1.368 . S
C752 C751 1.523 . S
C753 C737 1.429 . S
C753 C749 1.429 . S
C753 C754 1.523 . S
C754 C738 1.368 . S
C754 C750 1.368 . S
C754 C753 1.523 . S
H755 C730 0.950 . S
H756 C732 0.950 . S
H757 C733 0.949 . S
H758 C735 0.950 . S
H759 C737 0.950 . S
C760 C761 1.349 . S
C760 C762 1.327 . S
C760 H785 0.950 . S
C761 C760 1.349 . S
C761 C777 1.349 . S
C762 C760 1.327 . S
C762 C781 1.429 . S
C762 H786 0.950 . S
C763 C780 1.574 . S
C763 C782 1.368 . S
C763 H787 0.949 . S
H764 C768 0.949 . S
C765 C766 1.349 . S
C765 C767 1.327 . S
C765 H788 0.950 . S
C766 C765 1.349 . S
C766 C778 1.349 . S
C767 C765 1.327 . S
C767 C783 1.429 . S
C767 H789 0.950 . S
C768 H764 0.949 . S
C768 C776 1.574 . S
C768 C784 1.368 . S
H769 C777 0.950 . S
H770 C775 0.950 . S
H771 C776 0.949 . S
H772 C778 0.950 . S
H773 C779 0.950 . S
H774 C780 0.949 . S
C775 H770 0.950 . S
C775 C777 1.327 . S
C775 C781 1.429 . S
C776 C768 1.574 . S
C776 H771 0.949 . S
C776 C782 1.368 . S
C777 C761 1.349 . S
C777 H769 0.950 . S
C777 C775 1.327 . S
C778 C766 1.349 . S
C778 H772 0.950 . S
C778 C779 1.327 . S
C779 H773 0.950 . S
C779 C778 1.327 . S
C779 C783 1.429 . S
C780 C763 1.574 . S
C780 H774 0.949 . S
C780 C784 1.368 . S
C781 C762 1.429 . S
C781 C775 1.429 . S
C781 C782 1.523 . S
C782 C763 1.368 . S
C782 C776 1.368 . S
C782 C781 1.523 . S
C783 C767 1.429 . S
C783 C779 1.429 . S
C783 C784 1.523 . S
C784 C768 1.368 . S
C784 C780 1.368 . S
C784 C783 1.523 . S
H785 C760 0.950 . S
H786 C762 0.950 . S
H787 C763 0.949 . S
H788 C765 0.950 . S
H789 C767 0.950 . S
C790 C791 1.349 . S
C790 C792 1.327 . S
C790 H815 0.950 . S
C791 C790 1.349 . S
C791 C807 1.349 . S
C792 C790 1.327 . S
C792 C811 1.429 . S
C792 H816 0.950 . S
C793 C810 1.574 . S
C793 C812 1.368 . S
C793 H817 0.949 . S
H794 C798 0.949 . S
C795 C796 1.349 . S
C795 C797 1.327 . S
C795 H818 0.950 . S
C796 C795 1.349 . S
C796 C808 1.349 . S
C797 C795 1.327 . S
C797 C813 1.429 . S
C797 H819 0.950 . S
C798 H794 0.949 . S
C798 C806 1.574 . S
C798 C814 1.368 . S
H799 C807 0.950 . S
H800 C805 0.950 . S
H801 C806 0.949 . S
H802 C808 0.950 . S
H803 C809 0.950 . S
H804 C810 0.949 . S
C805 H800 0.950 . S
C805 C807 1.327 . S
C805 C811 1.429 . S
C806 C798 1.574 . S
C806 H801 0.949 . S
C806 C812 1.368 . S
C807 C791 1.349 . S
C807 H799 0.950 . S
C807 C805 1.327 . S
C808 C796 1.349 . S
C808 H802 0.950 . S
C808 C809 1.327 . S
C809 H803 0.950 . S
C809 C808 1.327 . S
C809 C813 1.429 . S
C810 C793 1.574 . S
C810 H804 0.949 . S
C810 C814 1.368 . S
C811 C792 1.429 . S
C811 C805 1.429 . S
C811 C812 1.523 . S
C812 C793 1.368 . S
C812 C806 1.368 . S
C812 C811 1.523 . S
C813 C797 1.429 . S
C813 C809 1.429 . S
C813 C814 1.523 . S
C814 C798 1.368 . S
C814 C810 1.368 . S
C814 C813 1.523 . S
H815 C790 0.950 . S
H816 C792 0.950 . S
H817 C793 0.949 . S
H818 C795 0.950 . S
H819 C797 0.950 . S
C820 C821 1.349 . S
C820 C822 1.327 . S
C820 H845 0.950 . S
C821 C820 1.349 . S
C821 C837 1.349 . S
C822 C820 1.327 . S
C822 C841 1.429 . S
C822 H846 0.950 . S
C823 C840 1.574 . S
C823 C842 1.368 . S
C823 H847 0.949 . S
H824 C828 0.949 . S
C825 C826 1.349 . S
C825 C827 1.327 . S
C825 H848 0.950 . S
C826 C825 1.349 . S
C826 C838 1.349 . S
C827 C825 1.327 . S
C827 C843 1.429 . S
C827 H849 0.950 . S
C828 H824 0.949 . S
C828 C836 1.574 . S
C828 C844 1.368 . S
H829 C837 0.950 . S
H830 C835 0.950 . S
H831 C836 0.949 . S
H832 C838 0.950 . S
H833 C839 0.950 . S
H834 C840 0.949 . S
C835 H830 0.950 . S
C835 C837 1.327 . S
C835 C841 1.429 . S
C836 C828 1.574 . S
C836 H831 0.949 . S
C836 C842 1.368 . S
C837 C821 1.349 . S
C837 H829 0.950 . S
C837 C835 1.327 . S
C838 C826 1.349 . S
C838 H832 0.950 . S
C838 C839 1.327 . S
C839 H833 0.950 . S
C839 C838 1.327 . S
C839 C843 1.429 . S
C840 C823 1.574 . S
C840 H834 0.949 . S
C840 C844 1.368 . S
C841 C822 1.429 . S
C841 C835 1.429 . S
C841 C842 1.523 . S
C842 C823 1.368 . S
C842 C836 1.368 . S
C842 C841 1.523 . S
C843 C827 1.429 . S
C843 C839 1.429 . S
C843 C844 1.523 . S
C844 C828 1.368 . S
C844 C840 1.368 . S
C844 C843 1.523 . S
H845 C820 0.950 . S
H846 C822 0.950 . S
H847 C823 0.949 . S
H848 C825 0.950 . S
H849 C827 0.950 . S
C850 C851 1.349 . S
C850 C852 1.327 . S
C850 H875 0.950 . S
C851 C850 1.349 . S
C851 C867 1.349 . S
C852 C850 1.327 . S
C852 C871 1.429 . S
C852 H876 0.950 . S
C853 C870 1.574 . S
C853 C872 1.368 . S
C853 H877 0.949 . S
H854 C858 0.949 . S
C855 C856 1.349 . S
C855 C857 1.327 . S
C855 H878 0.950 . S
C856 C855 1.349 . S
C856 C868 1.349 . S
C857 C855 1.327 . S
C857 C873 1.429 . S
C857 H879 0.950 . S
C858 H854 0.949 . S
C858 C866 1.574 . S
C858 C874 1.368 . S
H859 C867 0.950 . S
H860 C865 0.950 . S
H861 C866 0.949 . S
H862 C868 0.950 . S
H863 C869 0.950 . S
H864 C870 0.949 . S
C865 H860 0.950 . S
C865 C867 1.327 . S
C865 C871 1.429 . S
C866 C858 1.574 . S
C866 H861 0.949 . S
C866 C872 1.368 . S
C867 C851 1.349 . S
C867 H859 0.950 . S
C867 C865 1.327 . S
C868 C856 1.349 . S
C868 H862 0.950 . S
C868 C869 1.327 . S
C869 H863 0.950 . S
C869 C868 1.327 . S
C869 C873 1.429 . S
C870 C853 1.574 . S
C870 H864 0.949 . S
C870 C874 1.368 . S
C871 C852 1.429 . S
C871 C865 1.429 . S
C871 C872 1.523 . S
C872 C853 1.368 . S
C872 C866 1.368 . S
C872 C871 1.523 . S
C873 C857 1.429 . S
C873 C869 1.429 . S
C873 C874 1.523 . S
C874 C858 1.368 . S
C874 C870 1.368 . S
C874 C873 1.523 . S
H875 C850 0.950 . S
H876 C852 0.950 . S
H877 C853 0.949 . S
H878 C855 0.950 . S
H879 C857 0.950 . S
C880 C881 1.353 . S
C880 C882 1.327 . S
C880 H905 0.950 . S
C881 C880 1.353 . S
C881 C897 1.345 1_554 S
C882 C880 1.327 . S
C882 C901 1.432 . S
C882 H906 0.950 . S
C883 C900 1.574 . S
C883 C902 1.365 1_556 S
C883 H907 0.949 . S
H884 C888 0.949 . S
C885 C886 1.347 1_556 S
C885 C887 1.327 . S
C885 H908 0.950 . S
C886 C885 1.347 1_554 S
C886 C898 1.351 . S
C887 C885 1.327 . S
C887 C903 1.426 1_556 S
C887 H909 0.950 . S
C888 H884 0.949 . S
C888 C896 1.574 . S
C888 C904 1.371 . S
H889 C897 0.950 . S
H890 C895 0.950 . S
H891 C896 0.949 . S
H892 C898 0.950 . S
H893 C899 0.950 . S
H894 C900 0.949 . S
C895 H890 0.950 . S
C895 C897 1.327 . S
C895 C901 1.425 1_556 S
C896 C888 1.574 . S
C896 H891 0.949 . S
C896 C902 1.372 . S
C897 C881 1.345 1_556 S
C897 H889 0.950 . S
C897 C895 1.327 . S
C898 C886 1.351 . S
C898 H892 0.950 . S
C898 C899 1.327 . S
C899 H893 0.950 . S
C899 C898 1.327 . S
C899 C903 1.431 . S
C900 C883 1.574 . S
C900 H894 0.949 . S
C900 C904 1.366 1_556 S
C901 C882 1.432 . S
C901 C895 1.425 1_554 S
C901 C902 1.523 . S
C902 C883 1.365 1_554 S
C902 C896 1.372 . S
C902 C901 1.523 . S
C903 C887 1.426 1_554 S
C903 C899 1.431 . S
C903 C904 1.523 . S
C904 C888 1.371 . S
C904 C900 1.366 1_554 S
C904 C903 1.523 . S
H905 C880 0.950 . S
H906 C882 0.950 . S
H907 C883 0.949 . S
H908 C885 0.950 . S
H909 C887 0.950 . S
C910 C911 1.349 . S
C910 C912 1.327 . S
C910 H935 0.950 . S
C911 C910 1.349 . S
C911 C927 1.349 . S
C912 C910 1.327 . S
C912 C931 1.429 . S
C912 H936 0.950 . S
C913 C930 1.574 . S
C913 C932 1.368 . S
C913 H937 0.949 . S
H914 C918 0.949 . S
C915 C916 1.349 . S
C915 C917 1.327 . S
C915 H938 0.950 . S
C916 C915 1.349 . S
C916 C928 1.349 . S
C917 C915 1.327 . S
C917 C933 1.429 . S
C917 H939 0.950 . S
C918 H914 0.949 . S
C918 C926 1.574 . S
C918 C934 1.368 . S
H919 C927 0.950 . S
H920 C925 0.950 . S
H921 C926 0.949 . S
H922 C928 0.950 . S
H923 C929 0.950 . S
H924 C930 0.949 . S
C925 H920 0.950 . S
C925 C927 1.327 . S
C925 C931 1.429 . S
C926 C918 1.574 . S
C926 H921 0.949 . S
C926 C932 1.368 . S
C927 C911 1.349 . S
C927 H919 0.950 . S
C927 C925 1.327 . S
C928 C916 1.349 . S
C928 H922 0.950 . S
C928 C929 1.327 . S
C929 H923 0.950 . S
C929 C928 1.327 . S
C929 C933 1.429 . S
C930 C913 1.574 . S
C930 H924 0.949 . S
C930 C934 1.368 . S
C931 C912 1.429 . S
C931 C925 1.429 . S
C931 C932 1.523 . S
C932 C913 1.368 . S
C932 C926 1.368 . S
C932 C931 1.523 . S
C933 C917 1.429 . S
C933 C929 1.429 . S
C933 C934 1.523 . S
C934 C918 1.368 . S
C934 C930 1.368 . S
C934 C933 1.523 . S
H935 C910 0.950 . S
H936 C912 0.950 . S
H937 C913 0.949 . S
H938 C915 0.950 . S
H939 C917 0.950 . S
C940 C941 1.340 1_556 S
C940 C942 1.327 . S
C940 H965 0.950 . S
C941 C940 1.340 1_554 S
C941 C957 1.358 . S
C942 C940 1.327 . S
C942 C961 1.420 1_556 S
C942 H966 0.950 . S
C943 C960 1.574 . S
C943 C962 1.379 . S
C943 H967 0.949 . S
H944 C948 0.949 . S
C945 C946 1.360 . S
C945 C947 1.327 . S
C945 H968 0.950 . S
C946 C945 1.360 . S
C946 C958 1.338 1_554 S
C947 C945 1.327 . S
C947 C963 1.439 . S
C947 H969 0.950 . S
C948 H944 0.949 . S
C948 C956 1.574 . S
C948 C964 1.358 1_556 S
H949 C957 0.950 . S
H950 C955 0.950 . S
H951 C956 0.949 . S
H952 C958 0.950 . S
H953 C959 0.950 . S
H954 C960 0.949 . S
C955 H950 0.950 . S
C955 C957 1.327 . S
C955 C961 1.438 . S
C956 C948 1.574 . S
C956 H951 0.949 . S
C956 C962 1.358 1_556 S
C957 C941 1.358 . S
C957 H949 0.950 . S
C957 C955 1.327 . S
C958 C946 1.338 1_556 S
C958 H952 0.950 . S
C958 C959 1.327 . S
C959 H953 0.950 . S
C959 C958 1.327 . S
C959 C963 1.419 1_556 S
C960 C943 1.574 . S
C960 H954 0.949 . S
C960 C964 1.379 . S
C961 C942 1.420 1_554 S
C961 C955 1.438 . S
C961 C962 1.523 . S
C962 C943 1.379 . S
C962 C956 1.358 1_554 S
C962 C961 1.523 . S
C963 C947 1.439 . S
C963 C959 1.419 1_554 S
C963 C964 1.523 . S
C964 C948 1.358 1_554 S
C964 C960 1.379 . S
C964 C963 1.523 . S
H965 C940 0.950 . S
H966 C942 0.950 . S
H967 C943 0.949 . S
H968 C945 0.950 . S
H969 C947 0.950 . S
C970 C971 1.349 . S
C970 C972 1.327 . S
C970 H995 0.950 . S
C971 C970 1.349 . S
C971 C987 1.349 . S
C972 C970 1.327 . S
C972 C991 1.429 . S
C972 H996 0.950 . S
C973 C990 1.574 . S
C973 C992 1.368 . S
C973 H997 0.949 . S
H974 C978 0.949 . S
C975 C976 1.349 . S
C975 C977 1.327 . S
C975 H998 0.950 . S
C976 C975 1.349 . S
C976 C988 1.349 . S
C977 C975 1.327 . S
C977 C993 1.429 . S
C977 H999 0.950 . S
C978 H974 0.949 . S
C978 C986 1.574 . S
C978 C994 1.368 . S
H979 C987 0.950 . S
H980 C985 0.950 . S
H981 C986 0.949 . S
H982 C988 0.950 . S
H983 C989 0.950 . S
H984 C990 0.949 . S
C985 H980 0.950 . S
C985 C987 1.327 . S
C985 C991 1.429 . S
C986 C978 1.574 . S
C986 H981 0.949 . S
C986 C992 1.368 . S
C987 C971 1.349 . S
C987 H979 0.950 . S
C987 C985 1.327 . S
C988 C976 1.349 . S
C988 H982 0.950 . S
C988 C989 1.327 . S
C989 H983 0.950 . S
C989 C988 1.327 . S
C989 C993 1.429 . S
C990 C973 1.574 . S
C990 H984 0.949 . S
C990 C994 1.368 . S
C991 C972 1.429 . S
C991 C985 1.429 . S
C991 C992 1.523 . S
C992 C973 1.368 . S
C992 C986 1.368 . S
C992 C991 1.523 . S
C993 C977 1.429 . S
C993 C989 1.429 . S
C993 C994 1.523 . S
C994 C978 1.368 . S
C994 C990 1.368 . S
C994 C993 1.523 . S
H995 C970 0.950 . S
H996 C972 0.950 . S
H997 C973 0.949 . S
H998 C975 0.950 . S
H999 C977 0.950 . S
C1000 C1001 1.349 . S
C1000 C1002 1.327 . S
C1000 H1025 0.950 . S
C1001 C1000 1.349 . S
C1001 C1017 1.349 . S
C1002 C1000 1.327 . S
C1002 C1021 1.429 . S
C1002 H1026 0.950 . S
C1003 C1020 1.574 . S
C1003 C1022 1.368 . S
C1003 H1027 0.949 . S
H1004 C1008 0.949 . S
C1005 C1006 1.349 . S
C1005 C1007 1.327 . S
C1005 H1028 0.950 . S
C1006 C1005 1.349 . S
C1006 C1018 1.349 . S
C1007 C1005 1.327 . S
C1007 C1023 1.429 . S
C1007 H1029 0.950 . S
C1008 H1004 0.949 . S
C1008 C1016 1.574 . S
C1008 C1024 1.368 . S
H1009 C1017 0.950 . S
H1010 C1015 0.950 . S
H1011 C1016 0.949 . S
H1012 C1018 0.950 . S
H1013 C1019 0.950 . S
H1014 C1020 0.949 . S
C1015 H1010 0.950 . S
C1015 C1017 1.327 . S
C1015 C1021 1.429 . S
C1016 C1008 1.574 . S
C1016 H1011 0.949 . S
C1016 C1022 1.368 . S
C1017 C1001 1.349 . S
C1017 H1009 0.950 . S
C1017 C1015 1.327 . S
C1018 C1006 1.349 . S
C1018 H1012 0.950 . S
C1018 C1019 1.327 . S
C1019 H1013 0.950 . S
C1019 C1018 1.327 . S
C1019 C1023 1.429 . S
C1020 C1003 1.574 . S
C1020 H1014 0.949 . S
C1020 C1024 1.368 . S
C1021 C1002 1.429 . S
C1021 C1015 1.429 . S
C1021 C1022 1.523 . S
C1022 C1003 1.368 . S
C1022 C1016 1.368 . S
C1022 C1021 1.523 . S
C1023 C1007 1.429 . S
C1023 C1019 1.429 . S
C1023 C1024 1.523 . S
C1024 C1008 1.368 . S
C1024 C1020 1.368 . S
C1024 C1023 1.523 . S
H1025 C1000 0.950 . S
H1026 C1002 0.950 . S
H1027 C1003 0.949 . S
H1028 C1005 0.950 . S
H1029 C1007 0.950 . S
C1030 C1031 1.358 . S
C1030 C1032 1.327 . S
C1030 H1055 0.950 . S
C1031 C1030 1.358 . S
C1031 C1047 1.340 1_554 S
C1032 C1030 1.327 . S
C1032 C1051 1.438 . S
C1032 H1056 0.950 . S
C1033 C1050 1.574 . S
C1033 C1052 1.358 1_556 S
C1033 H1057 0.949 . S
H1034 C1038 0.949 . S
C1035 C1036 1.338 1_556 S
C1035 C1037 1.327 . S
C1035 H1058 0.950 . S
C1036 C1035 1.338 1_554 S
C1036 C1048 1.360 . S
C1037 C1035 1.327 . S
C1037 C1053 1.419 1_556 S
C1037 H1059 0.950 . S
C1038 H1034 0.949 . S
C1038 C1046 1.574 . S
C1038 C1054 1.379 . S
H1039 C1047 0.950 . S
H1040 C1045 0.950 . S
H1041 C1046 0.949 . S
H1042 C1048 0.950 . S
H1043 C1049 0.950 . S
H1044 C1050 0.949 . S
C1045 H1040 0.950 . S
C1045 C1047 1.327 . S
C1045 C1051 1.420 1_556 S
C1046 C1038 1.574 . S
C1046 H1041 0.949 . S
C1046 C1052 1.379 . S
C1047 C1031 1.340 1_556 S
C1047 H1039 0.950 . S
C1047 C1045 1.327 . S
C1048 C1036 1.360 . S
C1048 H1042 0.950 . S
C1048 C1049 1.327 . S
C1049 H1043 0.950 . S
C1049 C1048 1.327 . S
C1049 C1053 1.439 . S
C1050 C1033 1.574 . S
C1050 H1044 0.949 . S
C1050 C1054 1.358 1_556 S
C1051 C1032 1.438 . S
C1051 C1045 1.420 1_554 S
C1051 C1052 1.523 . S
C1052 C1033 1.358 1_554 S
C1052 C1046 1.379 . S
C1052 C1051 1.523 . S
C1053 C1037 1.419 1_554 S
C1053 C1049 1.439 . S
C1053 C1054 1.523 . S
C1054 C1038 1.379 . S
C1054 C1050 1.358 1_554 S
C1054 C1053 1.523 . S
H1055 C1030 0.950 . S
H1056 C1032 0.950 . S
H1057 C1033 0.949 . S
H1058 C1035 0.950 . S
H1059 C1037 0.950 . S
C1060 C1061 1.349 . S
C1060 C1062 1.327 . S
C1060 H1085 0.950 . S
C1061 C1060 1.349 . S
C1061 C1077 1.349 . S
C1062 C1060 1.327 . S
C1062 C1081 1.429 . S
C1062 H1086 0.950 . S
C1063 C1080 1.574 . S
C1063 C1082 1.368 . S
C1063 H1087 0.949 . S
H1064 C1068 0.949 . S
C1065 C1066 1.349 . S
C1065 C1067 1.327 . S
C1065 H1088 0.950 . S
C1066 C1065 1.349 . S
C1066 C1078 1.349 . S
C1067 C1065 1.327 . S
C1067 C1083 1.429 . S
C1067 H1089 0.950 . S
C1068 H1064 0.949 . S
C1068 C1076 1.574 . S
C1068 C1084 1.368 . S
H1069 C1077 0.950 . S
H1070 C1075 0.950 . S
H1071 C1076 0.949 . S
H1072 C1078 0.950 . S
H1073 C1079 0.950 . S
H1074 C1080 0.949 . S
C1075 H1070 0.950 . S
C1075 C1077 1.327 . S
C1075 C1081 1.429 . S
C1076 C1068 1.574 . S
C1076 H1071 0.949 . S
C1076 C1082 1.368 . S
C1077 C1061 1.349 . S
C1077 H1069 0.950 . S
C1077 C1075 1.327 . S
C1078 C1066 1.349 . S
C1078 H1072 0.950 . S
C1078 C1079 1.327 . S
C1079 H1073 0.950 . S
C1079 C1078 1.327 . S
C1079 C1083 1.429 . S
C1080 C1063 1.574 . S
C1080 H1074 0.949 . S
C1080 C1084 1.368 . S
C1081 C1062 1.429 . S
C1081 C1075 1.429 . S
C1081 C1082 1.523 . S
C1082 C1063 1.368 . S
C1082 C1076 1.368 . S
C1082 C1081 1.523 . S
C1083 C1067 1.429 . S
C1083 C1079 1.429 . S
C1083 C1084 1.523 . S
C1084 C1068 1.368 . S
C1084 C1080 1.368 . S
C1084 C1083 1.523 . S
H1085 C1060 0.950 . S
H1086 C1062 0.950 . S
H1087 C1063 0.949 . S
H1088 C1065 0.950 . S
H1089 C1067 0.950 . S
C1090 C1091 1.353 . S
C1090 C1092 1.327 . S
C1090 H1115 0.950 . S
C1091 C1090 1.353 . S
C1091 C1107 1.345 1_554 S
C1092 C1090 1.327 . S
C1092 C1111 1.432 . S
C1092 H1116 0.950 . S
C1093 C1110 1.574 . S
C1093 C1112 1.365 1_556 S
C1093 H1117 0.949 . S
H1094 C1098 0.949 . S
C1095 C1096 1.347 1_556 S
C1095 C1097 1.327 . S
C1095 H1118 0.950 . S
C1096 C1095 1.347 1_554 S
C1096 C1108 1.351 . S
C1097 C1095 1.327 . S
C1097 C1113 1.426 1_556 S
C1097 H1119 0.950 . S
C1098 H1094 0.949 . S
C1098 C1106 1.574 . S
C1098 C1114 1.371 . S
H1099 C1107 0.950 . S
H1100 C1105 0.950 . S
H1101 C1106 0.949 . S
H1102 C1108 0.950 . S
H1103 C1109 0.950 . S
H1104 C1110 0.949 . S
C1105 H1100 0.950 . S
C1105 C1107 1.327 . S
C1105 C1111 1.425 1_556 S
C1106 C1098 1.574 . S
C1106 H1101 0.949 . S
C1106 C1112 1.372 . S
C1107 C1091 1.345 1_556 S
C1107 H1099 0.950 . S
C1107 C1105 1.327 . S
C1108 C1096 1.351 . S
C1108 H1102 0.950 . S
C1108 C1109 1.327 . S
C1109 H1103 0.950 . S
C1109 C1108 1.327 . S
C1109 C1113 1.431 . S
C1110 C1093 1.574 . S
C1110 H1104 0.949 . S
C1110 C1114 1.366 1_556 S
C1111 C1092 1.432 . S
C1111 C1105 1.425 1_554 S
C1111 C1112 1.523 . S
C1112 C1093 1.365 1_554 S
C1112 C1106 1.372 . S
C1112 C1111 1.523 . S
C1113 C1097 1.426 1_554 S
C1113 C1109 1.431 . S
C1113 C1114 1.523 . S
C1114 C1098 1.371 . S
C1114 C1110 1.366 1_554 S
C1114 C1113 1.523 . S
H1115 C1090 0.950 . S
H1116 C1092 0.950 . S
H1117 C1093 0.949 . S
H1118 C1095 0.950 . S
H1119 C1097 0.950 . S
C401 C5 1.433 . S
C406 C221 1.439 . S
C431 C31 1.436 . S
C436 C89 1.443 . S
C466 C128 1.441 . S
C461 C53 1.434 . S
C491 C71 1.432 . S
C496 C182 1.438 . S
C526 C284 1.442 . S
C521 C75 1.436 . S
C556 C338 1.439 . S
C551 C9 1.433 . S
C586 C377 1.438 . S
C581 C27 1.432 . S
C616 C245 1.442 . S
C611 C49 1.435 . S
C641 C51 1.433 . S
C646 C143 1.437 . S
C671 C72 1.435 . S
C676 C167 1.440 . S
C701 C6 1.435 . S
C706 C206 1.439 . S
C736 C104 1.436 . S
C731 C29 1.432 . S
C761 C28 1.435 . S
C766 C362 1.440 . S
C796 C260 1.437 . S
C791 C50 1.433 . S
C826 C299 1.436 . S
C821 C73 1.432 . S
C851 C7 1.434 . S
C856 C323 1.439 . S
C886 C109 1.491 . S
C881 C4 1.486 . S
C916 C148 1.492 . S
C911 C30 1.486 . S
C941 C52 1.486 . S
C946 C187 1.486 1_554 S
C971 C70 1.485 . S
C976 C226 1.486 . S
C1006 C265 1.491 . S
C1001 C74 1.486 . S
C1031 C8 1.485 . S
C1036 C304 1.491 1_554 S
C1061 C26 1.485 . S
C1066 C343 1.486 . S
C1091 C48 1.486 . S
C1096 C382 1.486 . S
