# Generated by pormake.
# Topology ctn, (3,4)-cn, num edge types: 1
# Building blocks:
#     Node 0, Type 0, BuildingBlock: VETTIZ_charged_linker_0, # of connection points: 3
#     Node 1, Type 0, BuildingBlock: VETTIZ_charged_linker_0, # of connection points: 3
#     Node 2, Type 0, BuildingBlock: VETTIZ_charged_linker_0, # of connection points: 3
#     Node 3, Type 0, BuildingBlock: VETTIZ_charged_linker_0, # of connection points: 3
#     Node 4, Type 0, BuildingBlock: VETTIZ_charged_linker_0, # of connection points: 3
#     Node 5, Type 0, BuildingBlock: VETTIZ_charged_linker_0, # of connection points: 3
#     Node 6, Type 0, BuildingBlock: VETTIZ_charged_linker_0, # of connection points: 3
#     Node 7, Type 0, BuildingBlock: VETTIZ_charged_linker_0, # of connection points: 3
#     Node 8, Type 0, BuildingBlock: VETTIZ_charged_linker_0, # of connection points: 3
#     Node 9, Type 0, BuildingBlock: VETTIZ_charged_linker_0, # of connection points: 3
#     Node 10, Type 0, BuildingBlock: VETTIZ_charged_linker_0, # of connection points: 3
#     Node 11, Type 0, BuildingBlock: VETTIZ_charged_linker_0, # of connection points: 3
#     Node 12, Type 0, BuildingBlock: VETTIZ_charged_linker_0, # of connection points: 3
#     Node 13, Type 0, BuildingBlock: VETTIZ_charged_linker_0, # of connection points: 3
#     Node 14, Type 0, BuildingBlock: VETTIZ_charged_linker_0, # of connection points: 3
#     Node 15, Type 0, BuildingBlock: VETTIZ_charged_linker_0, # of connection points: 3
#     Node 16, Type 1, BuildingBlock: UXUYUI_clean_sbu_0, # of connection points: 4
#     Node 17, Type 1, BuildingBlock: UXUYUI_clean_sbu_0, # of connection points: 4
#     Node 18, Type 1, BuildingBlock: UXUYUI_clean_sbu_0, # of connection points: 4
#     Node 19, Type 1, BuildingBlock: UXUYUI_clean_sbu_0, # of connection points: 4
#     Node 20, Type 1, BuildingBlock: UXUYUI_clean_sbu_0, # of connection points: 4
#     Node 21, Type 1, BuildingBlock: UXUYUI_clean_sbu_0, # of connection points: 4
#     Node 22, Type 1, BuildingBlock: UXUYUI_clean_sbu_0, # of connection points: 4
#     Node 23, Type 1, BuildingBlock: UXUYUI_clean_sbu_0, # of connection points: 4
#     Node 24, Type 1, BuildingBlock: UXUYUI_clean_sbu_0, # of connection points: 4
#     Node 25, Type 1, BuildingBlock: UXUYUI_clean_sbu_0, # of connection points: 4
#     Node 26, Type 1, BuildingBlock: UXUYUI_clean_sbu_0, # of connection points: 4
#     Node 27, Type 1, BuildingBlock: UXUYUI_clean_sbu_0, # of connection points: 4
#     Edge 28, Type (0, 1), BuildingBlock: EZIPEK_clean_linker_0, # of connection points: 2
#     Edge 29, Type (0, 1), BuildingBlock: EZIPEK_clean_linker_0, # of connection points: 2
#     Edge 30, Type (0, 1), BuildingBlock: EZIPEK_clean_linker_0, # of connection points: 2
#     Edge 31, Type (0, 1), BuildingBlock: EZIPEK_clean_linker_0, # of connection points: 2
#     Edge 32, Type (0, 1), BuildingBlock: EZIPEK_clean_linker_0, # of connection points: 2
#     Edge 33, Type (0, 1), BuildingBlock: EZIPEK_clean_linker_0, # of connection points: 2
#     Edge 34, Type (0, 1), BuildingBlock: EZIPEK_clean_linker_0, # of connection points: 2
#     Edge 35, Type (0, 1), BuildingBlock: EZIPEK_clean_linker_0, # of connection points: 2
#     Edge 36, Type (0, 1), BuildingBlock: EZIPEK_clean_linker_0, # of connection points: 2
#     Edge 37, Type (0, 1), BuildingBlock: EZIPEK_clean_linker_0, # of connection points: 2
#     Edge 38, Type (0, 1), BuildingBlock: EZIPEK_clean_linker_0, # of connection points: 2
#     Edge 39, Type (0, 1), BuildingBlock: EZIPEK_clean_linker_0, # of connection points: 2
#     Edge 40, Type (0, 1), BuildingBlock: EZIPEK_clean_linker_0, # of connection points: 2
#     Edge 41, Type (0, 1), BuildingBlock: EZIPEK_clean_linker_0, # of connection points: 2
#     Edge 42, Type (0, 1), BuildingBlock: EZIPEK_clean_linker_0, # of connection points: 2
#     Edge 43, Type (0, 1), BuildingBlock: EZIPEK_clean_linker_0, # of connection points: 2
#     Edge 44, Type (0, 1), BuildingBlock: EZIPEK_clean_linker_0, # of connection points: 2
#     Edge 45, Type (0, 1), BuildingBlock: EZIPEK_clean_linker_0, # of connection points: 2
#     Edge 46, Type (0, 1), BuildingBlock: EZIPEK_clean_linker_0, # of connection points: 2
#     Edge 47, Type (0, 1), BuildingBlock: EZIPEK_clean_linker_0, # of connection points: 2
#     Edge 48, Type (0, 1), BuildingBlock: EZIPEK_clean_linker_0, # of connection points: 2
#     Edge 49, Type (0, 1), BuildingBlock: EZIPEK_clean_linker_0, # of connection points: 2
#     Edge 50, Type (0, 1), BuildingBlock: EZIPEK_clean_linker_0, # of connection points: 2
#     Edge 51, Type (0, 1), BuildingBlock: EZIPEK_clean_linker_0, # of connection points: 2
#     Edge 52, Type (0, 1), BuildingBlock: EZIPEK_clean_linker_0, # of connection points: 2
#     Edge 53, Type (0, 1), BuildingBlock: EZIPEK_clean_linker_0, # of connection points: 2
#     Edge 54, Type (0, 1), BuildingBlock: EZIPEK_clean_linker_0, # of connection points: 2
#     Edge 55, Type (0, 1), BuildingBlock: EZIPEK_clean_linker_0, # of connection points: 2
#     Edge 56, Type (0, 1), BuildingBlock: EZIPEK_clean_linker_0, # of connection points: 2
#     Edge 57, Type (0, 1), BuildingBlock: EZIPEK_clean_linker_0, # of connection points: 2
#     Edge 58, Type (0, 1), BuildingBlock: EZIPEK_clean_linker_0, # of connection points: 2
#     Edge 59, Type (0, 1), BuildingBlock: EZIPEK_clean_linker_0, # of connection points: 2
#     Edge 60, Type (0, 1), BuildingBlock: EZIPEK_clean_linker_0, # of connection points: 2
#     Edge 61, Type (0, 1), BuildingBlock: EZIPEK_clean_linker_0, # of connection points: 2
#     Edge 62, Type (0, 1), BuildingBlock: EZIPEK_clean_linker_0, # of connection points: 2
#     Edge 63, Type (0, 1), BuildingBlock: EZIPEK_clean_linker_0, # of connection points: 2
#     Edge 64, Type (0, 1), BuildingBlock: EZIPEK_clean_linker_0, # of connection points: 2
#     Edge 65, Type (0, 1), BuildingBlock: EZIPEK_clean_linker_0, # of connection points: 2
#     Edge 66, Type (0, 1), BuildingBlock: EZIPEK_clean_linker_0, # of connection points: 2
#     Edge 67, Type (0, 1), BuildingBlock: EZIPEK_clean_linker_0, # of connection points: 2
#     Edge 68, Type (0, 1), BuildingBlock: EZIPEK_clean_linker_0, # of connection points: 2
#     Edge 69, Type (0, 1), BuildingBlock: EZIPEK_clean_linker_0, # of connection points: 2
#     Edge 70, Type (0, 1), BuildingBlock: EZIPEK_clean_linker_0, # of connection points: 2
#     Edge 71, Type (0, 1), BuildingBlock: EZIPEK_clean_linker_0, # of connection points: 2
#     Edge 72, Type (0, 1), BuildingBlock: EZIPEK_clean_linker_0, # of connection points: 2
#     Edge 73, Type (0, 1), BuildingBlock: EZIPEK_clean_linker_0, # of connection points: 2
#     Edge 74, Type (0, 1), BuildingBlock: EZIPEK_clean_linker_0, # of connection points: 2
#     Edge 75, Type (0, 1), BuildingBlock: EZIPEK_clean_linker_0, # of connection points: 2
# Relax obj value: 0.000
# Max RMSD: 0.002
# Mean RMSD: 0.001
data_MOF--net-ctn--node1-UXUYUI_clean_sbu_0--node2-VETTIZ_charged_linker_0--edge1-EZIPEK_clean_linker_0
_symmetry_space_group_name_H-M    P1
_symmetry_Int_Tables_number       1
_symmetry_cell_setting            triclinic
loop_
_symmetry_equiv_pos_as_xyz
'x, y, z'
_cell_length_a     65.044939
_cell_length_b     65.057877
_cell_length_c     65.042702
_cell_angle_alpha  90.025195
_cell_angle_beta   90.036261
_cell_angle_gamma 89.990299
loop_
_atom_site_label
_atom_site_type_symbol
_atom_site_fract_x
_atom_site_fract_y
_atom_site_fract_z
_atom_type_partial_charge
C0 C 0.04418 0.09811 0.9939 0.0
C1 C 0.02771 0.11204 0.99516 0.0
C2 C 0.01265 0.10929 0.01045 0.0
C3 C 0.03076 0.07932 0.02328 0.0
C4 C 0.04531 0.08183 0.00799 0.0
C5 C 0.06153 0.06534 0.00858 0.0
H6 H 0.10176 0.98082 0.05455 0.0
C7 C 0.03663 0.06114 0.03565 0.0
C8 C 0.05459 0.0528 0.02703 0.0
H9 H 0.12309 0.01149 0.99975 0.0
H10 H 0.09541 0.03625 1.00242 0.0
H11 H 0.09194 0.0215 0.08022 0.0
H12 H 0.05318 0.98293 0.04288 0.0
H13 H 0.03954 0.98903 0.0654 0.0
H14 H 0.06328 0.97485 0.06726 0.0
H15 H 0.08323 0.9968 0.08883 0.0
H16 H 0.06812 0.01974 0.09276 0.0
C17 C 0.08259 0.07577 0.0124 0.0
C18 C 0.06022 0.05287 0.9883 0.0
C19 C 0.99421 0.04135 0.09831 0.0
C20 C 0.99652 0.026 0.11332 0.0
C21 C 0.01318 0.01225 0.11197 0.0
C22 C 0.02738 0.01372 0.09583 0.0
C23 C 0.02497 0.02919 0.0809 0.0
C24 C 0.00864 0.04273 0.08236 0.0
C25 C 0.00883 0.0585 0.06545 0.0
C26 C 0.02787 0.05213 0.05352 0.0
C27 C 0.03721 0.03489 0.06259 0.0
C28 C 0.01134 0.07998 0.07545 0.0
C29 C 0.98897 0.05587 0.05255 0.0
C30 C 0.10033 0.99289 0.04317 0.0
C31 C 0.11446 0.99435 0.02692 0.0
C32 C 0.11228 0.01019 0.01235 0.0
C33 C 0.09622 0.02449 0.01395 0.0
C34 C 0.08214 0.0229 0.03029 0.0
C35 C 0.08429 0.00724 0.0445 0.0
C36 C 0.06776 0.00782 0.06067 0.0
C37 C 0.05526 0.0263 0.05375 0.0
C38 C 0.06383 0.03515 0.03601 0.0
C39 C 0.07815 0.01151 0.08181 0.0
C40 C 0.05527 0.9876 0.05921 0.0
H41 H 1.00221 0.09185 0.03589 0.0
H42 H 0.05586 0.09987 0.98217 0.0
H43 H 0.0442 0.05248 0.98229 0.0
H44 H 0.06441 0.03653 0.99033 0.0
H45 H 0.07009 0.05973 0.97618 0.0
H46 H 0.08111 0.08829 0.02397 0.0
H47 H 0.08868 0.08267 0.99802 0.0
H48 H 0.09422 0.06519 0.01875 0.0
H49 H 0.98153 0.05212 0.09911 0.0
H50 H 0.01515 1.00037 0.12347 0.0
H51 H 0.03973 1.00279 0.09563 0.0
H52 H 0.02195 0.07925 0.08886 0.0
H53 H 0.99635 0.08595 0.08104 0.0
H54 H 0.01829 0.09142 0.06504 0.0
H55 H 0.98442 0.03941 0.05162 0.0
H56 H 0.99088 0.06074 0.03639 0.0
H57 H 0.97594 0.06446 0.05948 0.0
H58 H 0.99983 0.11988 0.01154 0.0
C59 C 0.0141 0.09305 0.02454 0.0
C60 C 0.25045 0.66056 0.24066 0.0
C61 C 0.23216 0.65691 0.22935 0.0
C62 C 0.23118 0.66603 0.2095 0.0
C63 C 0.26167 0.68635 0.21617 0.0
C64 C 0.26442 0.67567 0.23424 0.0
C65 C 0.28352 0.68237 0.24551 0.0
H66 H 0.35925 0.75205 0.25714 0.0
C67 C 0.27835 0.7017 0.21437 0.0
C68 C 0.29124 0.69945 0.23155 0.0
H69 H 0.34688 0.69831 0.29412 0.0
H70 H 0.32082 0.6881 0.27069 0.0
H71 H 0.31139 0.76481 0.24624 0.0
H72 H 0.35739 0.72794 0.21607 0.0
H73 H 0.34327 0.74027 0.19664 0.0
H74 H 0.35783 0.75548 0.21478 0.0
H75 H 0.33491 0.77508 0.23607 0.0
H76 H 0.3126 0.77184 0.2201 0.0
C77 C 0.27689 0.69053 0.26686 0.0
C78 C 0.29871 0.66401 0.24637 0.0
C79 C 0.27682 0.7539 0.15613 0.0
C80 C 0.28962 0.77049 0.15103 0.0
C81 C 0.30695 0.77474 0.16327 0.0
C82 C 0.31136 0.76274 0.18063 0.0
C83 C 0.29826 0.74634 0.18583 0.0
C84 C 0.28147 0.742 0.1735 0.0
C85 C 0.26963 0.72361 0.18102 0.0
C86 C 0.28199 0.71771 0.19996 0.0
C87 C 0.29862 0.73122 0.20283 0.0
C88 C 0.24766 0.73087 0.18658 0.0
C89 C 0.27042 0.70671 0.16422 0.0
C90 C 0.34994 0.73908 0.26156 0.0
C91 C 0.35287 0.72852 0.28043 0.0
C92 C 0.34302 0.70908 0.28211 0.0
C93 C 0.32808 0.70264 0.26798 0.0
C94 C 0.32327 0.71516 0.25117 0.0
C95 C 0.33482 0.73253 0.24761 0.0
C96 C 0.32908 0.74278 0.22763 0.0
C97 C 0.31156 0.7291 0.22034 0.0
C98 C 0.30811 0.71305 0.23437 0.0
C99 C 0.32168 0.76485 0.23258 0.0
C100 C 0.34782 0.74177 0.21296 0.0
H101 H 0.24323 0.68757 0.18821 0.0
H102 H 0.25445 0.65184 0.25415 0.0
H103 H 0.29589 0.65291 0.23366 0.0
H104 H 0.31489 0.6689 0.24431 0.0
H105 H 0.29728 0.65545 0.26108 0.0
H106 H 0.26378 0.70141 0.26529 0.0
H107 H 0.27188 0.67771 0.27697 0.0
H108 H 0.28909 0.69907 0.27492 0.0
H109 H 0.26351 0.7503 0.14678 0.0
H110 H 0.31696 0.78748 0.15942 0.0
H111 H 0.32473 0.76676 0.18942 0.0
H112 H 0.24824 0.74547 0.19548 0.0
H113 H 0.23843 0.7337 0.17249 0.0
H114 H 0.23925 0.71992 0.19637 0.0
H115 H 0.28455 0.70805 0.15468 0.0
H116 H 0.27117 0.69104 0.17078 0.0
H117 H 0.257 0.70778 0.15371 0.0
H118 H 0.21965 0.66164 0.19841 0.0
C119 C 0.24543 0.68089 0.20312 0.0
C120 C 0.98546 0.40439 0.0072 0.0
C121 C 0.97344 0.39999 0.98982 0.0
C122 C 0.95678 0.41283 0.98483 0.0
C123 C 0.96417 0.43424 0.01449 0.0
C124 C 0.98059 0.42158 0.01926 0.0
C125 C 0.99192 0.42872 0.03814 0.0
H126 H 1.00216 0.49732 0.11604 0.0
C127 C 0.9633 0.45078 0.0301 0.0
C128 C 0.97956 0.44766 0.04397 0.0
H129 H 0.04004 0.44446 0.10295 0.0
H130 H 0.01894 0.43622 0.0734 0.0
H131 H 0.95894 0.47497 0.10739 0.0
H132 H 0.99753 0.51243 0.06883 0.0
H133 H 0.97193 0.51999 0.06461 0.0
H134 H 0.98301 0.52283 0.08987 0.0
H135 H 0.96098 0.50228 0.11073 0.0
H136 H 0.9427 0.49111 0.09309 0.0
C137 C 0.99032 0.41163 0.05465 0.0
C138 C 0.01421 0.43423 0.03178 0.0
C139 C 0.90694 0.5049 0.0263 0.0
C140 C 0.90214 0.52193 0.03865 0.0
C141 C 0.91443 0.52641 0.05589 0.0
C142 C 0.9314 0.51403 0.0608 0.0
C143 C 0.9361 0.49698 0.04833 0.0
C144 C 0.92393 0.49266 0.03142 0.0
C145 C 0.93119 0.47391 0.01999 0.0
C146 C 0.94968 0.46765 0.03283 0.0
C147 C 0.9525 0.48123 0.0494 0.0
C148 C 0.91386 0.45759 0.02077 0.0
C149 C 0.93747 0.48058 0.998 0.0
C150 C 1.0058 0.48402 0.1067 0.0
C151 C 0.02268 0.47148 0.1116 0.0
C152 C 0.02707 0.45425 0.09929 0.0
C153 C 0.01481 0.44954 0.08219 0.0
C154 C 0.99796 0.46221 0.07735 0.0
C155 C 0.99368 0.47911 0.08954 0.0
C156 C 0.97511 0.49075 0.0821 0.0
C157 C 0.96902 0.47814 0.06339 0.0
C158 C 0.98246 0.46145 0.06069 0.0
C159 C 0.95851 0.48996 0.09916 0.0
C160 C 0.98206 0.51273 0.07613 0.0
H161 H 0.93916 0.43914 0.99251 0.0
H162 H 0.9984 0.3947 0.01122 0.0
H163 H 0.01457 0.44101 0.01608 0.0
H164 H 0.02123 0.44604 0.04175 0.0
H165 H 0.02419 0.42037 0.03165 0.0
H166 H 0.97499 0.40405 0.05408 0.0
H167 H 1.00215 0.39957 0.05218 0.0
H168 H 0.99167 0.41755 0.0705 0.0
H169 H 0.89763 0.50122 0.01298 0.0
H170 H 0.91086 0.53951 0.06552 0.0
H171 H 0.94019 0.51822 0.07411 0.0
H172 H 0.90589 0.45793 0.03591 0.0
H173 H 0.90215 0.46047 0.00868 0.0
H174 H 0.91961 0.4417 0.01924 0.0
H175 H 0.94433 0.49625 0.99809 0.0
H176 H 0.94948 0.47066 0.99124 0.0
H177 H 0.92395 0.48091 0.98756 0.0
H178 H 0.94744 0.40958 0.97142 0.0
C179 C 0.95205 0.42993 0.99708 0.0
C180 C 0.66118 0.79488 0.26535 0.0
C181 C 0.6471 0.7786 0.26376 0.0
C182 C 0.64946 0.76396 0.24802 0.0
C183 C 0.67982 0.78177 0.23573 0.0
C184 C 0.67742 0.79614 0.25123 0.0
C185 C 0.69389 0.81239 0.2507 0.0
H186 H 0.78176 0.84933 0.20849 0.0
C187 C 0.69832 0.78738 0.22375 0.0
C188 C 0.70667 0.80529 0.23248 0.0
H189 H 0.7462 0.87552 0.25801 0.0
H190 H 0.72141 0.84789 0.25523 0.0
H191 H 0.74313 0.84031 0.18015 0.0
H192 H 0.77679 0.80118 0.22157 0.0
H193 H 0.77206 0.78718 0.1989 0.0
H194 H 0.78725 0.81032 0.19772 0.0
H195 H 0.76783 0.82993 0.1736 0.0
H196 H 0.74436 0.81598 0.16857 0.0
C197 C 0.68349 0.83345 0.24665 0.0
C198 C 0.70609 0.81121 0.27112 0.0
C199 C 0.7197 0.7437 0.16249 0.0
C200 C 0.73614 0.74506 0.14859 0.0
C201 C 0.75078 0.76081 0.1509 0.0
C202 C 0.74898 0.77523 0.16683 0.0
C203 C 0.73235 0.77387 0.18058 0.0
C204 C 0.71811 0.75824 0.17832 0.0
C205 C 0.70152 0.75915 0.19441 0.0
C206 C 0.70797 0.77807 0.2065 0.0
C207 C 0.72604 0.78661 0.19835 0.0
C208 C 0.68065 0.76235 0.18337 0.0
C209 C 0.70283 0.73931 0.20753 0.0
C210 C 0.76864 0.84896 0.21874 0.0
C211 C 0.76589 0.8644 0.2336 0.0
C212 C 0.74857 0.86367 0.24655 0.0
C213 C 0.73424 0.84765 0.24488 0.0
C214 C 0.73715 0.83227 0.22995 0.0
C215 C 0.75401 0.83323 0.21705 0.0
C216 C 0.75404 0.81617 0.20142 0.0
C217 C 0.73463 0.80461 0.20729 0.0
C218 C 0.72489 0.814 0.22413 0.0
C219 C 0.75241 0.82593 0.17974 0.0
C220 C 0.77358 0.803 0.20486 0.0
H221 H 0.66672 0.75383 0.22233 0.0
H222 H 0.65956 0.80633 0.27735 0.0
H223 H 0.70876 0.79492 0.2756 0.0
H224 H 0.72154 0.81812 0.27008 0.0
H225 H 0.69752 0.81876 0.28381 0.0
H226 H 0.66946 0.83166 0.23702 0.0
H227 H 0.67881 0.84094 0.26126 0.0
H228 H 0.69339 0.84407 0.23784 0.0
H229 H 0.70833 0.73164 0.16097 0.0
H230 H 0.76354 0.76197 0.14027 0.0
H231 H 0.76058 0.78691 0.16778 0.0
H232 H 0.68239 0.77291 0.17003 0.0
H233 H 0.67449 0.74755 0.17747 0.0
H234 H 0.66895 0.76966 0.19324 0.0
H235 H 0.71902 0.73397 0.20901 0.0
H236 H 0.69761 0.7416 0.22353 0.0
H237 H 0.69385 0.72663 0.20045 0.0
H238 H 0.63866 0.75135 0.24664 0.0
C239 C 0.66574 0.76545 0.23399 0.0
C240 C 0.04517 0.91228 0.51733 0.0
C241 C 0.0295 0.89759 0.51532 0.0
C242 C 0.0156 0.89898 0.49882 0.0
C243 C 0.03301 0.92956 0.48649 0.0
C244 C 0.04667 0.92807 0.50274 0.0
C245 C 0.06258 0.94485 0.50235 0.0
H246 H 0.10255 0.02937 0.45632 0.0
C247 C 0.03892 0.94763 0.47399 0.0
C248 C 0.05629 0.9566 0.48317 0.0
H249 H 0.12345 0.9993 0.51163 0.0
H250 H 0.09628 0.97405 0.50856 0.0
H251 H 0.05358 0.02601 0.46684 0.0
H252 H 0.09441 0.9886 0.4306 0.0
H253 H 0.07081 0.9894 0.41752 0.0
H254 H 0.085 0.01291 0.42158 0.0
H255 H 0.06427 0.03443 0.44284 0.0
H256 H 0.04084 0.0197 0.44384 0.0
C257 C 0.06001 0.95796 0.52208 0.0
C258 C 0.084 0.93471 0.49996 0.0
C259 C 0.99687 0.96682 0.41085 0.0
C260 C 0.9991 0.98222 0.39587 0.0
C261 C 0.01571 0.99602 0.39726 0.0
C262 C 0.02986 0.99465 0.41348 0.0
C263 C 0.02745 0.97922 0.42843 0.0
C264 C 0.01126 0.96552 0.42685 0.0
C265 C 0.01159 0.94967 0.44369 0.0
C266 C 0.03041 0.95631 0.45583 0.0
C267 C 0.03956 0.97371 0.4469 0.0
C268 C 0.99158 0.95196 0.45639 0.0
C269 C 0.01451 0.92823 0.43368 0.0
C270 C 0.10115 0.01729 0.46769 0.0
C271 C 0.11498 0.01614 0.48422 0.0
C272 C 0.11286 1.00033 0.49881 0.0
C273 C 0.0971 0.98574 0.49696 0.0
C274 C 0.0833 0.987 0.48034 0.0
C275 C 0.08545 1.00261 0.46607 0.0
C276 C 0.06934 1.00156 0.44948 0.0
C277 C 0.05716 0.98279 0.45616 0.0
C278 C 0.06543 0.97431 0.47423 0.0
C279 C 0.05631 0.02146 0.45058 0.0
C280 C 0.08031 0.99808 0.42862 0.0
H281 H 1.00617 0.91518 0.47216 0.0
H282 H 0.05603 0.91142 0.52993 0.0
H283 H 0.08315 0.92103 0.48971 0.0
H284 H 0.09541 0.94491 0.49265 0.0
H285 H 0.09006 0.9295 0.51506 0.0
H286 H 0.04352 0.9592 0.52648 0.0
H287 H 0.06837 0.951 0.53524 0.0
H288 H 0.06516 0.97401 0.5201 0.0
H289 H 0.98427 0.95596 0.40998 0.0
H290 H 0.01766 0.00791 0.38577 0.0
H291 H 0.04214 1.00564 0.41373 0.0
H292 H 0.98767 0.96847 0.45856 0.0
H293 H 0.97841 0.94449 0.44848 0.0
H294 H 0.9929 0.94563 0.47207 0.0
H295 H 0.02389 0.9293 0.41941 0.0
H296 H 0.02308 0.91743 0.44361 0.0
H297 H 0.9995 0.92128 0.42945 0.0
H298 H 1.00345 0.8877 0.49714 0.0
C299 C 0.01724 0.91491 0.48439 0.0
C300 C 0.26741 0.66256 0.79482 0.0
C301 C 0.2658 0.64781 0.77912 0.0
C302 C 0.24978 0.64936 0.76466 0.0
C303 C 0.23718 0.68012 0.78158 0.0
C304 C 0.25292 0.6785 0.79579 0.0
C305 C 0.25213 0.69533 0.81166 0.0
H306 H 0.20559 0.78064 0.84962 0.0
C307 C 0.22472 0.69839 0.78695 0.0
C308 C 0.23337 0.70735 0.80461 0.0
H309 H 0.25925 0.74952 0.87316 0.0
H310 H 0.25714 0.72442 0.84574 0.0
H311 H 0.1796 0.73969 0.83969 0.0
H312 H 0.21838 0.77751 0.80166 0.0
H313 H 0.19662 0.77092 0.78707 0.0
H314 H 0.1935 0.78579 0.81027 0.0
H315 H 0.17192 0.76477 0.83113 0.0
H316 H 0.16745 0.74217 0.81569 0.0
C317 C 0.24877 0.68528 0.83299 0.0
C318 C 0.27211 0.70817 0.80986 0.0
C319 C 0.16323 0.71784 0.74265 0.0
C320 C 0.1487 0.73375 0.74391 0.0
C321 C 0.15007 0.74815 0.76001 0.0
C322 C 0.16576 0.74672 0.77475 0.0
C323 C 0.18023 0.7307 0.77338 0.0
C324 C 0.17878 0.71658 0.75753 0.0
C325 C 0.19534 0.70048 0.75865 0.0
C326 C 0.20704 0.7073 0.77768 0.0
C327 C 0.19814 0.72502 0.78625 0.0
C328 C 0.1849 0.67928 0.76172 0.0
C329 C 0.20864 0.70217 0.73896 0.0
C330 C 0.21681 0.76836 0.84874 0.0
C331 C 0.23259 0.76687 0.86342 0.0
C332 C 0.247 0.75081 0.86194 0.0
C333 C 0.24572 0.73631 0.84604 0.0
C334 C 0.22983 0.73788 0.83143 0.0
C335 C 0.21572 0.75373 0.83292 0.0
C336 C 0.19993 0.75297 0.81602 0.0
C337 C 0.20683 0.73406 0.80417 0.0
C338 C 0.22436 0.72528 0.81327 0.0
C339 C 0.17852 0.74989 0.82599 0.0
C340 C 0.20198 0.77284 0.80306 0.0
H341 H 0.22363 0.66579 0.75431 0.0
H342 H 0.27962 0.6616 0.80612 0.0
H343 H 0.27695 0.70961 0.79352 0.0
H344 H 0.27024 0.72415 0.81527 0.0
H345 H 0.28493 0.70084 0.81844 0.0
H346 H 0.23858 0.67159 0.83173 0.0
H347 H 0.26357 0.68011 0.83976 0.0
H348 H 0.24091 0.69552 0.844 0.0
H349 H 0.1624 0.7066 0.73039 0.0
H350 H 0.13894 0.76048 0.76115 0.0
H351 H 0.16599 0.75813 0.78666 0.0
H352 H 0.17069 0.68075 0.77113 0.0
H353 H 0.18047 0.67235 0.74674 0.0
H354 H 0.19461 0.6683 0.77029 0.0
H355 H 0.21067 0.71853 0.73441 0.0
H356 H 0.22439 0.69622 0.74104 0.0
H357 H 0.20129 0.69403 0.72586 0.0
H358 H 0.24838 0.63807 0.75249 0.0
C359 C 0.23548 0.66544 0.76578 0.0
C360 C 0.90462 0.50697 0.48477 0.0
C361 C 0.901 0.48857 0.47401 0.0
C362 C 0.91511 0.48222 0.45887 0.0
C363 C 0.93589 0.51255 0.46511 0.0
C364 C 0.92226 0.51852 0.48028 0.0
C365 C 0.92912 0.53782 0.49107 0.0
H366 H 0.99994 0.61356 0.50258 0.0
C367 C 0.9526 0.52796 0.46421 0.0
C368 C 0.94886 0.54269 0.47956 0.0
H369 H 0.94453 0.6039 0.53773 0.0
H370 H 0.93612 0.57419 0.51693 0.0
H371 H 0.97906 0.60632 0.45952 0.0
H372 H 0.01343 0.56516 0.49825 0.0
H373 H 0.02233 0.56244 0.47281 0.0
H374 H 0.02455 0.58695 0.48547 0.0
H375 H 0.00662 0.60677 0.46025 0.0
H376 H 0.99275 0.59001 0.44297 0.0
C377 C 0.91253 0.55455 0.48766 0.0
C378 C 0.9332 0.53249 0.51394 0.0
C379 C 0.00764 0.52239 0.40893 0.0
C380 C 0.0243 0.53502 0.4036 0.0
C381 C 0.02856 0.55262 0.41542 0.0
C382 C 0.01627 0.55769 0.43239 0.0
C383 C 0.99946 0.54509 0.43749 0.0
C384 C 0.99536 0.52779 0.42581 0.0
C385 C 0.97658 0.5165 0.4332 0.0
C386 C 0.96992 0.53001 0.45106 0.0
C387 C 0.98346 0.54663 0.45359 0.0
C388 C 0.96055 0.51651 0.41557 0.0
C389 C 0.98326 0.4948 0.44043 0.0
C390 C 0.98607 0.60491 0.50575 0.0
C391 C 0.97291 0.61083 0.52182 0.0
C392 C 0.95486 0.59945 0.52545 0.0
C393 C 0.95005 0.58224 0.51338 0.0
C394 C 0.9634 0.57638 0.4974 0.0
C395 C 0.98096 0.58778 0.49369 0.0
C396 C 0.99292 0.57972 0.4756 0.0
C397 C 0.98002 0.56124 0.46949 0.0
C398 C 0.96276 0.55933 0.48233 0.0
C399 C 0.99306 0.59652 0.45867 0.0
C400 C 0.01453 0.5733 0.48325 0.0
H401 H 0.94256 0.48854 0.44253 0.0
H402 H 0.89409 0.51204 0.49664 0.0
H403 H 0.93937 0.5166 0.51551 0.0
H404 H 0.945 0.54239 0.52107 0.0
H405 H 0.91884 0.53339 0.52312 0.0
H406 H 0.90616 0.55363 0.4718 0.0
H407 H 0.89954 0.55262 0.49858 0.0
H408 H 0.91863 0.57032 0.48907 0.0
H409 H 1.00411 0.50881 0.39995 0.0
H410 H 0.04138 0.56246 0.41143 0.0
H411 H 0.02027 0.5713 0.44081 0.0
H412 H 0.96016 0.53175 0.4078 0.0
H413 H 0.96441 0.50477 0.40379 0.0
H414 H 0.9447 0.51385 0.42093 0.0
H415 H 0.9993 0.4949 0.44639 0.0
H416 H 0.97392 0.48906 0.45341 0.0
H417 H 0.9826 0.48353 0.42761 0.0
H418 H 0.91261 0.46802 0.45053 0.0
C419 C 0.93246 0.49415 0.45429 0.0
C420 C 0.79359 0.74517 0.85031 0.0
C421 C 0.77762 0.74692 0.8647 0.0
C422 C 0.76333 0.76304 0.86286 0.0
C423 C 0.78102 0.77553 0.83249 0.0
C424 C 0.79498 0.75959 0.83436 0.0
C425 C 0.81098 0.75996 0.81768 0.0
H426 H 0.85077 0.80519 0.73268 0.0
C427 C 0.78682 0.78781 0.81423 0.0
C428 C 0.80434 0.77872 0.80547 0.0
H429 H 0.87274 0.75114 0.76422 0.0
H430 H 0.84504 0.75388 0.78893 0.0
H431 H 0.84081 0.83146 0.77355 0.0
H432 H 0.80289 0.79348 0.73482 0.0
H433 H 0.78811 0.81499 0.74169 0.0
H434 H 0.8114 0.81853 0.72705 0.0
H435 H 0.83312 0.83909 0.74817 0.0
H436 H 0.81724 0.84424 0.77029 0.0
C437 C 0.83228 0.76307 0.82792 0.0
C438 C 0.80895 0.7399 0.80498 0.0
C439 C 0.74512 0.85116 0.79474 0.0
C440 C 0.74684 0.86539 0.7786 0.0
C441 C 0.76263 0.86305 0.764 0.0
C442 C 0.77665 0.84676 0.76548 0.0
C443 C 0.77487 0.83262 0.78174 0.0
C444 C 0.75924 0.8349 0.79597 0.0
C445 C 0.75963 0.81826 0.81206 0.0
C446 C 0.77813 0.80574 0.80522 0.0
C447 C 0.78702 0.81426 0.78748 0.0
C448 C 0.76319 0.82852 0.83326 0.0
C449 C 0.73936 0.80586 0.81038 0.0
C450 C 0.84947 0.794 0.74494 0.0
C451 C 0.86376 0.77793 0.74667 0.0
C452 C 0.86178 0.76359 0.76274 0.0
C453 C 0.84572 0.76526 0.77701 0.0
C454 C 0.8315 0.78145 0.7752 0.0
C455 C 0.83349 0.79546 0.75933 0.0
C456 C 0.81696 0.81163 0.75983 0.0
C457 C 0.80475 0.80506 0.77862 0.0
C458 C 0.81334 0.78739 0.78756 0.0
C459 C 0.82742 0.8328 0.76298 0.0
C460 C 0.80416 0.8098 0.7398 0.0
H461 H 0.75361 0.78934 0.84624 0.0
H462 H 0.80471 0.73282 0.85147 0.0
H463 H 0.79258 0.73511 0.80371 0.0
H464 H 0.81418 0.74165 0.78892 0.0
H465 H 0.81755 0.72709 0.81229 0.0
H466 H 0.83109 0.77352 0.84142 0.0
H467 H 0.83869 0.74823 0.83342 0.0
H468 H 0.84356 0.77051 0.81766 0.0
H469 H 0.73306 0.8527 0.80611 0.0
H470 H 0.7641 0.87393 0.75148 0.0
H471 H 0.78836 0.84583 0.75391 0.0
H472 H 0.77419 0.84155 0.83192 0.0
H473 H 0.74859 0.83469 0.83962 0.0
H474 H 0.77018 0.81805 0.84463 0.0
H475 H 0.73422 0.80469 0.7941 0.0
H476 H 0.741 0.78977 0.81555 0.0
H477 H 0.72682 0.81333 0.81923 0.0
H478 H 0.75094 0.76452 0.87389 0.0
C479 C 0.76494 0.77737 0.84683 0.0
C480 C 0.30024 0.24466 0.35226 0.0
C481 C 0.28418 0.24481 0.36665 0.0
C482 C 0.26818 0.25925 0.36453 0.0
C483 C 0.28455 0.27319 0.33397 0.0
C484 C 0.30001 0.25874 0.33602 0.0
C485 C 0.31546 0.25984 0.31891 0.0
H486 H 0.34978 0.30504 0.23176 0.0
C487 C 0.28893 0.28542 0.31524 0.0
C488 C 0.30691 0.27746 0.30627 0.0
H489 H 0.37586 0.25329 0.26405 0.0
H490 H 0.34865 0.2549 0.28933 0.0
H491 H 0.33871 0.33159 0.27273 0.0
H492 H 0.30321 0.29051 0.23491 0.0
H493 H 0.28669 0.31057 0.2422 0.0
H494 H 0.30917 0.31622 0.22693 0.0
H495 H 0.33072 0.33793 0.24709 0.0
H496 H 0.31445 0.34285 0.26895 0.0
C497 C 0.33664 0.26519 0.32844 0.0
C498 C 0.31488 0.23919 0.30698 0.0
C499 C 0.24388 0.34671 0.29644 0.0
C500 C 0.24438 0.36069 0.27996 0.0
C501 C 0.25934 0.35835 0.26452 0.0
C502 C 0.27392 0.34254 0.26562 0.0
C503 C 0.27352 0.32883 0.28232 0.0
C504 C 0.2585 0.33085 0.29724 0.0
C505 C 0.26009 0.31437 0.31344 0.0
C506 C 0.27887 0.30255 0.3061 0.0
C507 C 0.28671 0.31119 0.28791 0.0
C508 C 0.26388 0.32491 0.33443 0.0
C509 C 0.24032 0.3011 0.31258 0.0
C510 C 0.34947 0.2941 0.24431 0.0
C511 C 0.3648 0.279 0.24609 0.0
C512 C 0.3641 0.26499 0.26253 0.0
C513 C 0.3483 0.26599 0.27713 0.0
C514 C 0.33304 0.2812 0.27528 0.0
C515 C 0.33375 0.29489 0.25904 0.0
C516 C 0.31618 0.30995 0.25958 0.0
C517 C 0.3048 0.303 0.27877 0.0
C518 C 0.31481 0.28622 0.28791 0.0
C519 C 0.32532 0.3318 0.26208 0.0
C520 C 0.30311 0.30689 0.23987 0.0
H521 H 0.25581 0.28424 0.34751 0.0
H522 H 0.31259 0.23355 0.35348 0.0
H523 H 0.29923 0.2323 0.3073 0.0
H524 H 0.31838 0.241 0.29045 0.0
H525 H 0.32566 0.22782 0.31377 0.0
H526 H 0.33489 0.27646 0.3412 0.0
H527 H 0.34419 0.25127 0.33484 0.0
H528 H 0.34721 0.27263 0.31746 0.0
H529 H 0.2324 0.34817 0.30841 0.0
H530 H 0.25985 0.36897 0.25171 0.0
H531 H 0.28501 0.34168 0.25346 0.0
H532 H 0.27549 0.33737 0.33288 0.0
H533 H 0.24949 0.33189 0.34043 0.0
H534 H 0.27007 0.31436 0.34616 0.0
H535 H 0.2341 0.30031 0.29666 0.0
H536 H 0.24311 0.28492 0.31692 0.0
H537 H 0.2281 0.30759 0.32258 0.0
H538 H 0.25563 0.25945 0.37548 0.0
C539 C 0.26833 0.27353 0.34831 0.0
C540 C 0.48548 0.90392 0.50633 0.0
C541 C 0.47316 0.89929 0.48922 0.0
C542 C 0.45613 0.91181 0.48465 0.0
C543 C 0.46378 0.93333 0.51416 0.0
C544 C 0.48055 0.92099 0.51853 0.0
C545 C 0.49209 0.92824 0.53724 0.0
H546 H 0.5026 0.99679 0.61515 0.0
C547 C 0.46295 0.94984 0.52981 0.0
C548 C 0.47954 0.94697 0.54335 0.0
H549 H 0.54067 0.94416 0.60171 0.0
H550 H 0.5194 0.93586 0.57227 0.0
H551 H 0.45927 0.97399 0.6067 0.0
H552 H 0.49754 0.01199 0.56836 0.0
H553 H 0.4719 0.01903 0.56361 0.0
H554 H 0.4825 0.02235 0.58904 0.0
H555 H 0.46174 1.0012 0.61056 0.0
H556 H 0.44303 0.99067 0.59301 0.0
C557 C 0.49106 0.91107 0.55372 0.0
C558 C 0.51416 0.93413 0.53051 0.0
C559 C 0.40566 1.00306 0.52724 0.0
C560 C 0.40112 0.02031 0.5394 0.0
C561 C 0.41397 0.02521 0.55612 0.0
C562 C 0.43115 0.01302 0.56074 0.0
C563 C 0.43557 0.99577 0.54846 0.0
C564 C 0.42295 0.99109 0.53199 0.0
C565 C 0.43021 0.9724 0.52045 0.0
C566 C 0.44915 0.96652 0.5328 0.0
C567 C 0.45219 0.98023 0.54922 0.0
C568 C 0.4132 0.95579 0.5218 0.0
C569 C 0.43575 0.97905 0.49825 0.0
C570 C 0.50625 0.98353 0.60576 0.0
C571 C 0.52322 0.97106 0.61052 0.0
C572 C 0.52762 0.95389 0.59815 0.0
C573 C 0.51526 0.94914 0.58112 0.0
C574 C 0.49828 0.96171 0.57645 0.0
C575 C 0.494 0.97856 0.58871 0.0
C576 C 0.47526 0.99006 0.5815 0.0
C577 C 0.46901 0.97737 0.56289 0.0
C578 C 0.48257 0.96081 0.56 0.0
C579 C 0.45891 0.98915 0.59879 0.0
C580 C 0.48195 0.01209 0.5754 0.0
H581 H 0.43817 0.93775 0.49278 0.0
H582 H 0.49868 0.89446 0.51005 0.0
H583 H 0.51406 0.94134 0.51499 0.0
H584 H 0.52133 0.94572 0.54063 0.0
H585 H 0.52425 0.92038 0.52976 0.0
H586 H 0.47599 0.90299 0.55316 0.0
H587 H 0.50328 0.89941 0.55123 0.0
H588 H 0.49221 0.91702 0.56958 0.0
H589 H 0.396 0.99908 0.51426 0.0
H590 H 0.41064 0.0385 0.5656 0.0
H591 H 0.44034 0.01753 0.57368 0.0
H592 H 0.40585 0.9559 0.53725 0.0
H593 H 0.40096 0.95856 0.51021 0.0
H594 H 0.41914 0.94001 0.51989 0.0
H595 H 0.44209 0.99494 0.49801 0.0
H596 H 0.44792 0.96946 0.49131 0.0
H597 H 0.42199 0.97883 0.48812 0.0
H598 H 0.44652 0.90837 0.47147 0.0
C599 C 0.45135 0.9288 0.49703 0.0
C600 C 0.16231 0.29438 0.7667 0.0
C601 C 0.1483 0.27804 0.76521 0.0
C602 C 0.1506 0.26343 0.74943 0.0
C603 C 0.18073 0.28144 0.73687 0.0
C604 C 0.1784 0.29576 0.75242 0.0
C605 C 0.19474 0.31212 0.75175 0.0
H606 H 0.28189 0.34981 0.70875 0.0
C607 C 0.19904 0.28723 0.72468 0.0
C608 C 0.20736 0.30518 0.73336 0.0
H609 H 0.24668 0.37556 0.75876 0.0
H610 H 0.22203 0.3478 0.7561 0.0
H611 H 0.24317 0.34084 0.68079 0.0
H612 H 0.27724 0.30143 0.7216 0.0
H613 H 0.27251 0.28773 0.69873 0.0
H614 H 0.2875 0.311 0.69784 0.0
H615 H 0.26767 0.33029 0.67377 0.0
H616 H 0.244 0.31654 0.66912 0.0
C617 C 0.18415 0.33312 0.74789 0.0
C618 C 0.20719 0.31096 0.77202 0.0
C619 C 0.22009 0.2439 0.66303 0.0
C620 C 0.23629 0.24551 0.64886 0.0
C621 C 0.25073 0.26147 0.65098 0.0
C622 C 0.24901 0.2758 0.667 0.0
C623 C 0.23263 0.27418 0.68102 0.0
C624 C 0.21855 0.25838 0.67892 0.0
C625 C 0.20216 0.2591 0.69522 0.0
C626 C 0.20856 0.27805 0.70728 0.0
C627 C 0.22644 0.28679 0.69892 0.0
C628 C 0.18111 0.26209 0.68445 0.0
C629 C 0.20383 0.23924 0.70829 0.0
C630 C 0.26888 0.34932 0.71913 0.0
C631 C 0.26619 0.36467 0.7341 0.0
C632 C 0.249 0.36378 0.74722 0.0
C633 C 0.23475 0.34768 0.74561 0.0
C634 C 0.2376 0.33239 0.73059 0.0
C635 C 0.25432 0.33351 0.71751 0.0
C636 C 0.25427 0.31653 0.70179 0.0
C637 C 0.235 0.30482 0.70783 0.0
C638 C 0.2254 0.31406 0.72482 0.0
C639 C 0.25233 0.3264 0.68018 0.0
C640 C 0.27393 0.30346 0.70493 0.0
H641 H 0.16767 0.25344 0.72355 0.0
H642 H 0.16074 0.30581 0.77872 0.0
H643 H 0.21001 0.29468 0.77643 0.0
H644 H 0.22258 0.31797 0.77082 0.0
H645 H 0.19873 0.31843 0.78483 0.0
H646 H 0.17 0.33126 0.73844 0.0
H647 H 0.17961 0.34055 0.76258 0.0
H648 H 0.19386 0.34384 0.73898 0.0
H649 H 0.20885 0.2317 0.66165 0.0
H650 H 0.26331 0.26283 0.64016 0.0
H651 H 0.26048 0.28763 0.6678 0.0
H652 H 0.18259 0.27264 0.67107 0.0
H653 H 0.175 0.24723 0.67867 0.0
H654 H 0.16949 0.26933 0.69446 0.0
H655 H 0.22012 0.23417 0.70969 0.0
H656 H 0.19862 0.2414 0.7243 0.0
H657 H 0.19503 0.22644 0.70119 0.0
H658 H 0.13985 0.25077 0.74812 0.0
C659 C 0.16673 0.26504 0.73524 0.0
C660 C 0.75025 0.1615 0.73884 0.0
C661 C 0.73175 0.15871 0.72762 0.0
C662 C 0.73071 0.16875 0.70822 0.0
C663 C 0.76184 0.18795 0.71523 0.0
C664 C 0.76454 0.17647 0.73282 0.0
C665 C 0.78395 0.18214 0.74408 0.0
H666 H 0.86698 0.24444 0.75347 0.0
C667 C 0.7791 0.2027 0.71368 0.0
C668 C 0.79215 0.19932 0.73058 0.0
H669 H 0.84928 0.19412 0.79284 0.0
H670 H 0.81995 0.18691 0.77099 0.0
H671 H 0.82116 0.26236 0.74694 0.0
H672 H 0.85879 0.22138 0.71126 0.0
H673 H 0.84544 0.23677 0.69359 0.0
H674 H 0.863 0.24862 0.71154 0.0
H675 H 0.84326 0.27083 0.73278 0.0
H676 H 0.8182 0.26935 0.72104 0.0
C677 C 0.77788 0.18994 0.76576 0.0
C678 C 0.79842 0.16322 0.74411 0.0
C679 C 0.7803 0.25624 0.65635 0.0
C680 C 0.79419 0.2721 0.65162 0.0
C681 C 0.8117 0.27497 0.66399 0.0
C682 C 0.81537 0.26232 0.68099 0.0
C683 C 0.80138 0.24657 0.68573 0.0
C684 C 0.78424 0.24362 0.67346 0.0
C685 C 0.77139 0.22577 0.68071 0.0
C686 C 0.78348 0.21877 0.6995 0.0
C687 C 0.801 0.23107 0.70234 0.0
C688 C 0.74988 0.23408 0.68655 0.0
C689 C 0.77113 0.2092 0.66358 0.0
C690 C 0.8567 0.23191 0.75729 0.0
C691 C 0.86021 0.21982 0.7748 0.0
C692 C 0.84669 0.20358 0.77939 0.0
C693 C 0.82972 0.19948 0.7667 0.0
C694 C 0.82619 0.21185 0.7493 0.0
C695 C 0.83965 0.22767 0.74479 0.0
C696 C 0.8336 0.23909 0.72562 0.0
C697 C 0.81428 0.22755 0.71934 0.0
C698 C 0.80995 0.21169 0.73332 0.0
C699 C 0.82891 0.26165 0.73171 0.0
C700 C 0.85108 0.23656 0.70962 0.0
H701 H 0.74298 0.19094 0.6877 0.0
H702 H 0.75417 0.1522 0.75197 0.0
H703 H 0.79668 0.15415 0.7297 0.0
H704 H 0.81486 0.16749 0.74458 0.0
H705 H 0.79497 0.15283 0.75721 0.0
H706 H 0.76358 0.1993 0.76504 0.0
H707 H 0.775 0.17689 0.77638 0.0
H708 H 0.78948 0.20019 0.77268 0.0
H709 H 0.76681 0.25372 0.64693 0.0
H710 H 0.82253 0.28711 0.66046 0.0
H711 H 0.82897 0.26535 0.68981 0.0
H712 H 0.75132 0.24836 0.69587 0.0
H713 H 0.74081 0.23785 0.67257 0.0
H714 H 0.7409 0.2233 0.69602 0.0
H715 H 0.78543 0.20973 0.65421 0.0
H716 H 0.77068 0.19339 0.66981 0.0
H717 H 0.75793 0.21145 0.65298 0.0
H718 H 0.71898 0.1651 0.69708 0.0
C719 C 0.74522 0.18355 0.70227 0.0
C720 C 0.54379 0.59974 0.49434 0.0
C721 C 0.52675 0.61302 0.49485 0.0
C722 C 0.51132 0.60988 0.5097 0.0
C723 C 0.53017 0.58082 0.52354 0.0
C724 C 0.54507 0.58367 0.50866 0.0
C725 C 0.56171 0.56762 0.50978 0.0
H726 H 0.60137 0.4828 0.55575 0.0
C727 C 0.53621 0.5629 0.53619 0.0
C728 C 0.5546 0.55498 0.52809 0.0
H729 H 0.6245 0.51486 0.50251 0.0
H730 H 0.59675 0.53959 0.50493 0.0
H731 H 0.59163 0.52292 0.5819 0.0
H732 H 0.55295 0.48546 0.54342 0.0
H733 H 0.53941 0.49087 0.5662 0.0
H734 H 0.56322 0.4768 0.56754 0.0
H735 H 0.58178 0.49863 0.59046 0.0
H736 H 0.56741 0.52217 0.59374 0.0
C737 C 0.58237 0.57861 0.51413 0.0
C738 C 0.56128 0.55505 0.48953 0.0
C739 C 0.49309 0.54273 0.59827 0.0
C740 C 0.49548 0.52755 0.61344 0.0
C741 C 0.51233 0.51402 0.61238 0.0
C742 C 0.52668 0.51556 0.59637 0.0
C743 C 0.52423 0.53089 0.58132 0.0
C744 C 0.50768 0.5442 0.58247 0.0
C745 C 0.50784 0.55983 0.56543 0.0
C746 C 0.52722 0.55376 0.55389 0.0
C747 C 0.53668 0.53672 0.56319 0.0
C748 C 0.50974 0.58143 0.57527 0.0
C749 C 0.48825 0.55669 0.55221 0.0
C750 C 0.60034 0.4952 0.54468 0.0
C751 C 0.61493 0.49701 0.52889 0.0
C752 C 0.6133 0.51329 0.51474 0.0
C753 C 0.5972 0.52755 0.51618 0.0
C754 C 0.58255 0.52552 0.53196 0.0
C755 C 0.58433 0.50959 0.54593 0.0
C756 C 0.56748 0.50994 0.56177 0.0
C757 C 0.55506 0.52844 0.55476 0.0
C758 C 0.56397 0.53752 0.53732 0.0
C759 C 0.57744 0.51345 0.58316 0.0
C760 C 0.55509 0.48971 0.55985 0.0
H761 H 0.50078 0.59241 0.53508 0.0
H762 H 0.55574 0.60175 0.48292 0.0
H763 H 0.54538 0.55389 0.48332 0.0
H764 H 0.56623 0.53895 0.49164 0.0
H765 H 0.57097 0.56236 0.47753 0.0
H766 H 0.58021 0.59131 0.52539 0.0
H767 H 0.58882 0.58538 0.49984 0.0
H768 H 0.59399 0.56842 0.52112 0.0
H769 H 0.48025 0.55332 0.59885 0.0
H770 H 0.51435 0.50226 0.624 0.0
H771 H 0.53918 0.5048 0.59639 0.0
H772 H 0.5206 0.58112 0.5885 0.0
H773 H 0.49463 0.58686 0.58109 0.0
H774 H 0.51603 0.59307 0.56469 0.0
H775 H 0.48368 0.54022 0.5518 0.0
H776 H 0.49055 0.5609 0.53591 0.0
H777 H 0.47508 0.56556 0.55848 0.0
H778 H 0.49805 0.61993 0.51021 0.0
C779 C 0.51297 0.59392 0.52409 0.0
C780 C 0.54631 0.41258 0.0164 0.0
C781 C 0.53055 0.39797 0.01452 0.0
C782 C 0.51651 0.39943 0.99813 0.0
C783 C 0.53398 0.42994 0.98567 0.0
C784 C 0.54776 0.42836 1.0018 0.0
C785 C 0.56377 0.44504 1.00128 0.0
H786 H 0.6039 0.52931 0.95494 0.0
C787 C 0.53988 0.44798 0.97313 0.0
C788 C 0.55738 0.45684 0.98216 0.0
H789 H 0.62512 0.49899 0.01 0.0
H790 H 0.59772 0.47396 0.00717 0.0
H791 H 0.555 0.5263 0.96596 0.0
H792 H 0.59516 0.4886 0.92925 0.0
H793 H 0.57145 0.48969 0.91639 0.0
H794 H 0.58592 0.51303 0.92039 0.0
H795 H 0.56548 0.53466 0.94184 0.0
H796 H 0.54197 0.52009 0.9431 0.0
C797 C 0.56145 0.45817 0.02104 0.0
C798 C 0.58511 0.43477 0.9987 0.0
C799 C 0.49739 0.46746 0.91037 0.0
C800 C 0.49955 0.48286 0.8954 0.0
C801 C 0.51623 0.4966 0.89668 0.0
C802 C 0.5305 0.49515 0.91278 0.0
C803 C 0.52816 0.47969 0.92772 0.0
C804 C 0.51191 0.46606 0.92625 0.0
C805 C 0.51229 0.45019 0.94307 0.0
C806 C 0.53125 0.45673 0.95506 0.0
C807 C 0.54041 0.47409 0.94607 0.0
C808 C 0.49241 0.45257 0.95594 0.0
C809 C 0.51504 0.42875 0.93301 0.0
C810 C 0.60252 0.51722 0.96631 0.0
C811 C 0.61651 0.51592 0.9827 0.0
C812 C 0.61441 0.50012 0.99729 0.0
C813 C 0.59852 0.48566 0.99558 0.0
C814 C 0.58456 0.48705 0.97911 0.0
C815 C 0.58668 0.50266 0.96483 0.0
C816 C 0.5704 0.50175 0.9484 0.0
C817 C 0.55815 0.48305 0.95518 0.0
C818 C 0.56654 0.47451 0.97315 0.0
C819 C 0.55752 0.52174 0.94966 0.0
C820 C 0.58114 0.49823 0.92743 0.0
H821 H 0.50694 0.4157 0.97157 0.0
H822 H 0.55727 0.41165 0.02891 0.0
H823 H 0.58407 0.42105 0.98853 0.0
H824 H 0.59648 0.44487 0.99119 0.0
H825 H 0.59132 0.42961 0.01374 0.0
H826 H 0.54501 0.45953 0.02556 0.0
H827 H 0.56985 0.45113 0.03413 0.0
H828 H 0.56672 0.47418 0.01903 0.0
H829 H 0.48474 0.45664 0.90959 0.0
H830 H 0.51812 0.50851 0.8852 0.0
H831 H 0.54283 0.5061 0.91295 0.0
H832 H 0.48858 0.46909 0.95815 0.0
H833 H 0.47914 0.44515 0.94815 0.0
H834 H 0.49383 0.44622 0.97161 0.0
H835 H 0.52432 0.42979 0.91869 0.0
H836 H 0.5236 0.41789 0.94287 0.0
H837 H 0.49995 0.42189 0.92887 0.0
H838 H 0.5043 0.38822 0.99656 0.0
C839 C 0.51811 0.41536 0.9837 0.0
C840 C 0.76843 0.16181 0.29387 0.0
C841 C 0.76665 0.14715 0.27812 0.0
C842 C 0.75058 0.14887 0.26373 0.0
C843 C 0.73824 0.17963 0.28087 0.0
C844 C 0.75405 0.17784 0.29499 0.0
C845 C 0.75343 0.19456 0.31096 0.0
H846 H 0.70694 0.27911 0.35051 0.0
C847 C 0.72589 0.19791 0.28644 0.0
C848 C 0.73468 0.20669 0.30411 0.0
H849 H 0.76124 0.2482 0.37279 0.0
H850 H 0.75902 0.22352 0.345 0.0
H851 H 0.68109 0.2381 0.33977 0.0
H852 H 0.71947 0.2771 0.30253 0.0
H853 H 0.69793 0.27043 0.28768 0.0
H854 H 0.69443 0.2849 0.31108 0.0
H855 H 0.67342 0.26348 0.33212 0.0
H856 H 0.66872 0.24142 0.31598 0.0
C857 C 0.75016 0.18436 0.33224 0.0
C858 C 0.77346 0.20733 0.30913 0.0
C859 C 0.66421 0.21797 0.24269 0.0
C860 C 0.64975 0.23393 0.24417 0.0
C861 C 0.65122 0.24812 0.26043 0.0
C862 C 0.66695 0.24647 0.27511 0.0
C863 C 0.68136 0.23041 0.2735 0.0
C864 C 0.67981 0.21648 0.2575 0.0
C865 C 0.69633 0.20032 0.25836 0.0
C866 C 0.70816 0.20693 0.27739 0.0
C867 C 0.69933 0.22456 0.2862 0.0
C868 C 0.68584 0.17913 0.26129 0.0
C869 C 0.70951 0.20216 0.23862 0.0
C870 C 0.71827 0.26696 0.34927 0.0
C871 C 0.73426 0.26538 0.3637 0.0
C872 C 0.74884 0.24954 0.36175 0.0
C873 C 0.74747 0.23528 0.34564 0.0
C874 C 0.73136 0.23691 0.33129 0.0
C875 C 0.71714 0.25262 0.3332 0.0
C876 C 0.70124 0.25208 0.31638 0.0
C877 C 0.70814 0.2334 0.30417 0.0
C878 C 0.72576 0.22455 0.31301 0.0
C879 C 0.67991 0.24874 0.32643 0.0
C880 C 0.70313 0.27217 0.30374 0.0
H881 H 0.72448 0.16553 0.25358 0.0
H882 H 0.78068 0.16072 0.3051 0.0
H883 H 0.77843 0.20856 0.29281 0.0
H884 H 0.77157 0.22339 0.3143 0.0
H885 H 0.78621 0.20011 0.3179 0.0
H886 H 0.7397 0.17089 0.33097 0.0
H887 H 0.76495 0.17884 0.33876 0.0
H888 H 0.74266 0.19464 0.34346 0.0
H889 H 0.6633 0.20687 0.2303 0.0
H890 H 0.64014 0.26049 0.26174 0.0
H891 H 0.66726 0.25774 0.28714 0.0
H892 H 0.67167 0.18055 0.27076 0.0
H893 H 0.68135 0.17233 0.24627 0.0
H894 H 0.69555 0.16805 0.26973 0.0
H895 H 0.71165 0.21856 0.23427 0.0
H896 H 0.72523 0.19605 0.24052 0.0
H897 H 0.70202 0.19424 0.22546 0.0
H898 H 0.74904 0.13764 0.25152 0.0
C899 C 0.73638 0.16504 0.265 0.0
C900 C 0.40619 0.00801 0.9848 0.0
C901 C 0.40122 0.9911 0.97234 0.0
C902 C 0.41363 0.98642 0.95527 0.0
C903 C 0.43592 0.01521 0.96335 0.0
C904 C 0.42358 0.01982 0.98004 0.0
C905 C 0.4312 0.03831 0.9917 0.0
H906 H 0.50262 0.11332 1.0039 0.0
C907 C 0.45295 0.03028 0.96284 0.0
C908 C 0.45029 0.04385 0.97944 0.0
H909 H 0.4476 0.10322 0.03954 0.0
H910 H 0.43898 0.07375 0.01849 0.0
H911 H 0.48087 0.10607 0.96015 0.0
H912 H 0.51576 0.0656 0.99924 0.0
H913 H 0.52338 0.06078 0.97378 0.0
H914 H 0.52754 0.08591 0.98477 0.0
H915 H 0.50819 0.10843 0.96329 0.0
H916 H 0.49716 0.09154 0.94426 0.0
C917 C 0.41454 0.0553 0.99043 0.0
C918 C 0.43658 0.03142 0.01384 0.0
C919 C 0.50706 0.02585 0.90657 0.0
C920 C 0.52495 0.03722 0.90251 0.0
C921 C 0.53047 0.05344 0.91574 0.0
C922 C 0.51822 0.0584 0.93277 0.0
C923 C 0.50028 0.04697 0.93666 0.0
C924 C 0.49505 0.03091 0.92373 0.0
C925 C 0.47573 0.02017 0.93051 0.0
C926 C 0.47004 0.0326 0.94944 0.0
C927 C 0.48443 0.04833 0.95293 0.0
C928 C 0.45951 0.02241 0.9132 0.0
C929 C 0.48131 0.99765 0.93596 0.0
C930 C 0.48879 0.10463 0.00712 0.0
C931 C 0.47576 0.1104 0.02334 0.0
C932 C 0.45781 0.09892 0.02711 0.0
C933 C 0.45285 0.08188 0.01485 0.0
C934 C 0.46592 0.07633 0.99855 0.0
C935 C 0.4835 0.0877 0.99485 0.0
C936 C 0.49517 0.07998 0.97643 0.0
C937 C 0.48178 0.06205 0.96974 0.0
C938 C 0.46474 0.0599 0.98283 0.0
C939 C 0.49559 0.09734 0.96013 0.0
C940 C 0.51667 0.07278 0.98374 0.0
H941 H 0.43984 0.99402 0.9375 0.0
H942 H 0.39677 0.01186 0.99799 0.0
H943 H 0.44425 0.01612 0.01371 0.0
H944 H 0.44754 0.04179 0.02159 0.0
H945 H 0.42252 0.0301 0.02343 0.0
H946 H 0.40592 0.05441 0.97567 0.0
H947 H 0.40321 0.0538 1.00311 0.0
H948 H 0.42108 0.07098 0.99063 0.0
H949 H 0.5026 0.01325 0.89662 0.0
H950 H 0.54425 0.0623 0.91279 0.0
H951 H 0.5232 0.07095 0.94225 0.0
H952 H 0.46046 0.03788 0.90597 0.0
H953 H 0.46197 0.01079 0.90093 0.0
H954 H 0.44356 0.02119 0.91883 0.0
H955 H 0.4971 0.99663 0.94249 0.0
H956 H 0.47129 0.99107 0.94798 0.0
H957 H 0.48079 0.98764 0.92213 0.0
H958 H 0.40992 0.97341 0.94554 0.0
C959 C 0.43096 0.99838 0.95069 0.0
Li960 Li 0.27663 0.89395 1.00352 0.0
Li961 Li 0.26134 0.868 0.02544 0.0
Li962 Li 0.25357 0.86677 0.98829 0.0
Li963 Li 0.2392 0.89326 0.01099 0.0
C964 C 0.2977 0.85416 0.01054 0.0
N965 N 0.33094 0.83448 0.02832 0.0
C966 C 0.3124 0.86542 0.02146 0.0
C967 C 0.2999 0.83287 0.00873 0.0
C968 C 0.3291 0.85521 0.0303 0.0
C969 C 0.3168 0.8232 0.01782 0.0
C970 C 0.26753 0.90033 0.05027 0.0
C971 C 0.2596 0.89578 0.08622 0.0
N972 N 0.27818 0.90393 0.09126 0.0
C973 C 0.28654 0.90871 0.05582 0.0
C974 C 0.25391 0.89389 0.06559 0.0
C975 C 0.29164 0.91039 0.07662 0.0
C976 C 0.29806 0.93168 1.00384 0.0
N977 N 0.29921 0.91178 0.99753 0.0
C978 C 0.33232 0.91768 0.98271 0.0
C979 C 0.31578 0.90466 0.98692 0.0
C980 C 0.33163 0.93816 0.98934 0.0
C981 C 0.31425 0.94524 0.99992 0.0
H982 H 0.28458 0.93695 0.01204 0.0
H983 H 0.31618 0.88883 0.98184 0.0
C984 C 0.25345 0.83399 0.05152 0.0
N985 N 0.26645 0.85013 0.04865 0.0
C986 C 0.25648 0.82035 0.06787 0.0
C987 C 0.28628 0.84007 0.07802 0.0
C988 C 0.28276 0.85323 0.06144 0.0
C989 C 0.27303 0.82345 0.08132 0.0
H990 H 0.24074 0.83166 0.04105 0.0
H991 H 0.29304 0.86596 0.0589 0.0
C992 C 0.26038 0.90364 0.96547 0.0
N993 N 0.27618 0.91738 0.92854 0.0
C994 C 0.25311 0.92188 0.95676 0.0
C995 C 0.27575 0.89244 0.95546 0.0
C996 C 0.26128 0.92855 0.93805 0.0
C997 C 0.28352 0.89963 0.93679 0.0
C998 C 0.21378 0.86331 0.01356 0.0
C999 C 0.20149 0.86399 0.99594 0.0
C1000 C 0.20461 0.86393 0.03298 0.0
C1001 C 0.18017 0.8655 0.99806 0.0
C1002 C 0.18324 0.86545 0.03444 0.0
N1003 N 0.17156 0.86622 0.0171 0.0
C1004 C 0.25318 0.82922 0.9665 0.0
C1005 C 0.23956 0.85718 0.94752 0.0
C1006 C 0.25008 0.81595 0.94988 0.0
N1007 N 0.24825 0.84947 0.96495 0.0
C1008 C 0.23619 0.84445 0.9305 0.0
C1009 C 0.24165 0.82363 0.9316 0.0
H1010 H 0.25946 0.82335 0.98069 0.0
H1011 H 0.23524 0.8732 0.9468 0.0
C1012 C 0.2102 0.91741 0.03355 0.0
N1013 N 0.21568 0.91071 0.01451 0.0
C1014 C 0.19339 0.93054 0.03603 0.0
C1015 C 0.18812 0.92974 0.99924 0.0
C1016 C 0.20501 0.91654 0.99748 0.0
C1017 C 0.18227 0.93692 0.0187 0.0
H1018 H 0.21895 0.91271 0.04682 0.0
H1019 H 0.2097 0.91101 0.98252 0.0
O1020 O 0.28116 0.86391 1.00185 0.0
O1021 O 0.26229 0.89859 0.02997 0.0
O1022 O 0.25281 0.89712 0.98396 0.0
O1023 O 0.23471 0.86267 0.0118 0.0
H1024 H 0.31074 0.8818 0.02355 0.0
H1025 H 0.2887 0.82383 1.00046 0.0
H1026 H 0.34051 0.86375 0.03888 0.0
H1027 H 0.31867 0.80673 0.01655 0.0
H1028 H 0.24928 0.89067 0.09821 0.0
H1029 H 0.29731 0.91373 0.04421 0.0
H1030 H 0.2393 0.88705 0.0616 0.0
H1031 H 0.30632 0.91677 0.08113 0.0
H1032 H 0.34554 0.91185 0.97442 0.0
H1033 H 0.3133 0.96102 1.00516 0.0
H1034 H 0.24603 0.80758 0.07005 0.0
H1035 H 0.29923 0.84279 0.08814 0.0
H1036 H 0.24132 0.9308 0.9644 0.0
H1037 H 0.28167 0.87837 0.96207 0.0
H1038 H 0.25579 0.94263 0.93111 0.0
H1039 H 0.29541 0.89111 0.92888 0.0
H1040 H 0.20837 0.86366 0.98081 0.0
H1041 H 0.21392 0.86342 0.04676 0.0
H1042 H 0.17047 0.86621 0.98456 0.0
H1043 H 0.17593 0.86608 0.04936 0.0
H1044 H 0.25425 0.79989 0.95123 0.0
H1045 H 0.22947 0.85075 0.91663 0.0
H1046 H 0.18923 0.93588 0.05124 0.0
H1047 H 0.17983 0.93444 0.98558 0.0
Li1048 Li 0.11877 0.50784 0.27589 0.0
Li1049 Li 0.14543 0.48673 0.26091 0.0
Li1050 Li 0.14441 0.52459 0.2535 0.0
Li1051 Li 0.11922 0.50046 0.23756 0.0
C1052 C 0.1512 0.51529 0.30038 0.0
N1053 N 0.15463 0.52597 0.34137 0.0
C1054 C 0.14531 0.50142 0.3157 0.0
C1055 C 0.15906 0.5345 0.30593 0.0
C1056 C 0.14707 0.50714 0.33633 0.0
C1057 C 0.16064 0.53963 0.32674 0.0
C1058 C 0.11532 0.46034 0.26296 0.0
C1059 C 0.11493 0.42664 0.24751 0.0
N1060 N 0.1172 0.41806 0.26645 0.0
C1061 C 0.11744 0.45119 0.28229 0.0
C1062 C 0.11391 0.44799 0.24543 0.0
C1063 C 0.11845 0.42979 0.28372 0.0
C1064 C 0.08659 0.49803 0.30373 0.0
N1065 N 0.10116 0.5123 0.29911 0.0
C1066 C 0.09089 0.53301 0.32773 0.0
C1067 C 0.10341 0.52963 0.31063 0.0
C1068 C 0.07581 0.51853 0.33281 0.0
C1069 C 0.0736 0.50088 0.32063 0.0
H1070 H 0.08502 0.48446 0.29426 0.0
H1071 H 0.11499 0.54082 0.30658 0.0
C1072 C 0.17243 0.46085 0.28387 0.0
N1073 N 0.1631 0.46352 0.26534 0.0
C1074 C 0.18517 0.44388 0.28726 0.0
C1075 C 0.1787 0.43283 0.25236 0.0
C1076 C 0.16592 0.4499 0.24972 0.0
C1077 C 0.18851 0.42975 0.27132 0.0
H1078 H 0.17008 0.4719 0.296 0.0
H1079 H 0.15814 0.45225 0.23522 0.0
C1080 C 0.10523 0.54474 0.24593 0.0
N1081 N 0.08721 0.58102 0.23295 0.0
C1082 C 0.10302 0.54887 0.22493 0.0
C1083 C 0.09783 0.55892 0.26028 0.0
C1084 C 0.09399 0.56732 0.21869 0.0
C1085 C 0.08891 0.57722 0.25343 0.0
C1086 C 0.15571 0.50493 0.21426 0.0
C1087 C 0.15089 0.52365 0.20492 0.0
C1088 C 0.16682 0.49017 0.20327 0.0
C1089 C 0.15692 0.52718 0.18462 0.0
C1090 C 0.17257 0.49426 0.18298 0.0
N1091 N 0.16752 0.51252 0.17415 0.0
C1092 C 0.17847 0.54888 0.23972 0.0
C1093 C 0.1527 0.56705 0.25799 0.0
C1094 C 0.18977 0.56699 0.23696 0.0
N1095 N 0.16014 0.5493 0.24983 0.0
C1096 C 0.16349 0.58544 0.25565 0.0
C1097 C 0.18216 0.58549 0.24494 0.0
H1098 H 0.18432 0.5345 0.23377 0.0
H1099 H 0.13854 0.56689 0.2666 0.0
C1100 C 0.08207 0.50148 0.21535 0.0
N1101 N 0.102 0.49522 0.21422 0.0
C1102 C 0.06865 0.49811 0.1989 0.0
C1103 C 0.09639 0.48156 0.18051 0.0
C1104 C 0.10927 0.48524 0.19732 0.0
C1105 C 0.07586 0.48808 0.18125 0.0
H1106 H 0.07662 0.50914 0.22907 0.0
H1107 H 0.12497 0.47991 0.19695 0.0
O1108 O 0.14932 0.51012 0.28006 0.0
O1109 O 0.115 0.48128 0.26117 0.0
O1110 O 0.11386 0.52664 0.25242 0.0
O1111 O 0.1498 0.50106 0.23409 0.0
H1112 H 0.13913 0.48653 0.31169 0.0
H1113 H 0.1639 0.54535 0.29432 0.0
H1114 H 0.14237 0.49663 0.34832 0.0
H1115 H 0.16662 0.55447 0.33125 0.0
H1116 H 0.11401 0.4169 0.23406 0.0
H1117 H 0.11847 0.46052 0.29601 0.0
H1118 H 0.11231 0.45482 0.23036 0.0
H1119 H 0.12025 0.42251 0.29856 0.0
H1120 H 0.09287 0.54681 0.33684 0.0
H1121 H 0.06201 0.48948 0.3242 0.0
H1122 H 0.19255 0.44191 0.30206 0.0
H1123 H 0.18095 0.42217 0.23977 0.0
H1124 H 0.10797 0.53787 0.21352 0.0
H1125 H 0.0991 0.55595 0.27656 0.0
H1126 H 0.09227 0.57069 0.20249 0.0
H1127 H 0.08331 0.58839 0.26441 0.0
H1128 H 0.14289 0.53547 0.21335 0.0
H1129 H 0.17092 0.47568 0.21027 0.0
H1130 H 0.15326 0.54163 0.17724 0.0
H1131 H 0.18106 0.48293 0.17427 0.0
H1132 H 0.20425 0.56658 0.22876 0.0
H1133 H 0.15737 0.59949 0.26217 0.0
H1134 H 0.05284 0.50322 0.19992 0.0
H1135 H 0.1023 0.47362 0.16712 0.0
Li1136 Li 0.73955 0.6179 1.00288 0.0
Li1137 Li 0.75465 0.6441 0.02446 0.0
Li1138 Li 0.76073 0.64426 0.98763 0.0
Li1139 Li 0.77641 0.61829 0.00905 0.0
C1140 C 0.71552 0.65268 0.01066 0.0
N1141 N 0.67798 0.66233 0.02804 0.0
C1142 C 0.70768 0.64078 0.02674 0.0
C1143 C 0.70427 0.66949 1.00343 0.0
C1144 C 0.68867 0.6459 0.03531 0.0
C1145 C 0.68532 0.67412 0.01241 0.0
C1146 C 0.76256 0.60899 0.04802 0.0
C1147 C 0.78702 0.61551 0.07513 0.0
N1148 N 0.77996 0.59873 0.0854 0.0
C1149 C 0.75553 0.59182 0.05884 0.0
C1150 C 0.77843 0.62094 0.05622 0.0
C1151 C 0.76453 0.58688 0.07771 0.0
C1152 C 0.71785 0.58062 1.0059 0.0
N1153 N 0.71647 0.60018 0.99865 0.0
C1154 C 0.68276 0.59364 0.98545 0.0
C1155 C 0.69942 0.60685 0.9885 0.0
C1156 C 0.68379 0.57344 0.99284 0.0
C1157 C 0.70156 0.56689 1.00315 0.0
H1158 H 0.73165 0.57571 0.01378 0.0
H1159 H 0.69874 0.62243 0.98276 0.0
C1160 C 0.75783 0.68111 0.04645 0.0
N1161 N 0.75048 0.66159 0.04772 0.0
C1162 C 0.75535 0.69472 0.06289 0.0
C1163 C 0.73765 0.66792 0.0816 0.0
C1164 C 0.74045 0.65483 0.06479 0.0
C1165 C 0.74519 0.68808 0.08068 0.0
H1166 H 0.76564 0.68608 0.03264 0.0
H1167 H 0.73464 0.63927 0.06538 0.0
C1168 C 0.75353 0.60916 0.96384 0.0
N1169 N 0.73625 0.59893 0.92639 0.0
C1170 C 0.76093 0.59229 0.95278 0.0
C1171 C 0.73734 0.62083 0.95585 0.0
C1172 C 0.75199 0.58737 0.93387 0.0
C1173 C 0.72882 0.61542 0.93689 0.0
C1174 C 0.79965 0.65358 1.00145 0.0
C1175 C 0.80769 0.64192 0.98528 0.0
C1176 C 0.81058 0.67056 0.00877 0.0
C1177 C 0.82657 0.64747 0.97669 0.0
C1178 C 0.82941 0.67562 0.99977 0.0
N1179 N 0.83695 0.66406 0.98405 0.0
C1180 C 0.75694 0.68147 0.96615 0.0
C1181 C 0.77453 0.65566 0.94731 0.0
C1182 C 0.75918 0.69535 0.94992 0.0
N1183 N 0.76452 0.66205 0.96454 0.0
C1184 C 0.77708 0.66903 0.93069 0.0
C1185 C 0.76931 0.68909 0.93197 0.0
H1186 H 0.74916 0.68615 0.98008 0.0
H1187 H 0.78055 0.64019 0.94646 0.0
C1188 C 0.79896 0.58131 0.00664 0.0
N1189 N 0.79985 0.60105 0.01348 0.0
C1190 C 0.8154 0.5679 0.01009 0.0
C1191 C 0.83339 0.5954 0.02749 0.0
C1192 C 0.81661 0.60826 0.02375 0.0
C1193 C 0.8328 0.57498 0.02067 0.0
H1194 H 0.78538 0.57596 0.99865 0.0
H1195 H 0.81689 0.62396 0.0292 0.0
O1196 O 0.73415 0.64811 1.00204 0.0
O1197 O 0.75396 0.61384 0.02944 0.0
O1198 O 0.76209 0.61399 0.98244 0.0
O1199 O 0.78113 0.6486 0.01008 0.0
H1200 H 0.71612 0.62769 0.03254 0.0
H1201 H 0.71013 0.67885 0.99099 0.0
H1202 H 0.68243 0.63682 0.04775 0.0
H1203 H 0.67645 0.68709 0.00697 0.0
H1204 H 0.79932 0.62462 0.08165 0.0
H1205 H 0.74326 0.5824 0.05269 0.0
H1206 H 0.78408 0.63429 0.0481 0.0
H1207 H 0.75925 0.57363 0.08624 0.0
H1208 H 0.66923 0.59908 0.97739 0.0
H1209 H 0.70276 0.55134 0.00898 0.0
H1210 H 0.76128 0.71023 0.06178 0.0
H1211 H 0.7297 0.66242 0.09515 0.0
H1212 H 0.77344 0.58309 0.95877 0.0
H1213 H 0.7314 0.63394 0.96415 0.0
H1214 H 0.75755 0.57435 0.92515 0.0
H1215 H 0.71629 0.62432 0.93054 0.0
H1216 H 0.7995 0.62871 0.97941 0.0
H1217 H 0.80456 0.67975 0.02127 0.0
H1218 H 0.83296 0.63857 0.96418 0.0
H1219 H 0.83804 0.68873 1.00527 0.0
H1220 H 0.75307 0.71078 0.95131 0.0
H1221 H 0.78502 0.66383 0.91701 0.0
H1222 H 0.81454 0.55217 1.0047 0.0
H1223 H 0.84662 0.60124 0.03576 0.0
Li1224 Li 0.86788 0.02301 0.26115 0.0
Li1225 Li 0.89567 1.00007 0.27343 0.0
Li1226 Li 0.89483 0.00927 0.23742 0.0
Li1227 Li 0.86928 0.98699 0.25196 0.0
C1228 C 0.91013 0.03771 0.2754 0.0
N1229 N 0.93474 0.05501 0.3054 0.0
C1230 C 0.90217 0.04163 0.29498 0.0
C1231 C 0.93054 0.04274 0.27103 0.0
C1232 C 0.91488 0.05034 0.30995 0.0
C1233 C 0.94275 0.05145 0.28642 0.0
C1234 C 0.85402 0.98485 0.28906 0.0
C1235 C 0.84971 0.95108 0.30369 0.0
N1236 N 0.82925 0.95479 0.30591 0.0
C1237 C 0.83298 0.98838 0.29158 0.0
C1238 C 0.8625 0.9661 0.29524 0.0
C1239 C 0.8207 0.97296 0.3001 0.0
C1240 C 0.8296 0.04292 0.26327 0.0
N1241 N 0.8501 0.0458 0.26627 0.0
C1242 C 0.84464 0.08134 0.27398 0.0
C1243 C 0.85781 0.06456 0.27138 0.0
C1244 C 0.82344 0.07874 0.271 0.0
C1245 C 0.81589 0.05929 0.26561 0.0
H1246 H 0.82397 0.02797 0.25867 0.0
H1247 H 0.8742 0.06662 0.27307 0.0
C1248 C 0.93446 0.99356 0.29184 0.0
N1249 N 0.91398 0.99487 0.29583 0.0
C1250 C 0.94849 0.99113 0.30794 0.0
C1251 C 0.92004 0.99085 0.33186 0.0
C1252 C 0.90658 0.99354 0.31534 0.0
C1253 C 0.94127 0.98981 0.32821 0.0
H1254 H 0.93989 0.99482 0.27617 0.0
H1255 H 0.89025 0.99493 0.3181 0.0
C1256 C 0.85843 0.02536 0.21986 0.0
N1257 N 0.84622 0.05586 0.19294 0.0
C1258 C 0.84231 0.02181 0.2061 0.0
C1259 C 0.86831 0.04445 0.21997 0.0
C1260 C 0.83639 0.03741 0.19258 0.0
C1261 C 0.86191 0.05966 0.20624 0.0
C1262 C 0.90337 0.96821 0.23405 0.0
C1263 C 0.89161 0.96851 0.21604 0.0
C1264 C 0.91966 0.95434 0.23586 0.0
C1265 C 0.89635 0.95486 0.20015 0.0
C1266 C 0.92391 0.94092 0.21963 0.0
N1267 N 0.91227 0.94146 0.20226 0.0
C1268 C 0.93276 0.0135 0.21755 0.0
C1269 C 0.90455 0.0166 0.19467 0.0
C1270 C 0.94664 0.01577 0.20132 0.0
N1271 N 0.91215 0.01414 0.21403 0.0
C1272 C 0.91788 0.01908 0.17801 0.0
C1273 C 0.93918 0.01862 0.1813 0.0
H1274 H 0.9384 0.01081 0.23296 0.0
H1275 H 0.88818 0.01622 0.192 0.0
C1276 C 0.83141 0.96802 0.24303 0.0
N1277 N 0.85153 0.96395 0.24702 0.0
C1278 C 0.81738 0.95195 0.24055 0.0
C1279 C 0.84514 0.92777 0.2457 0.0
C1280 C 0.85857 0.9443 0.24844 0.0
C1281 C 0.82424 0.93155 0.24189 0.0
H1282 H 0.82621 0.9838 0.2422 0.0
H1283 H 0.87454 0.94144 0.25205 0.0
O1284 O 0.89809 0.02853 0.26078 0.0
O1285 O 0.86621 0.99952 0.28025 0.0
O1286 O 0.86398 0.01034 0.23349 0.0
O1287 O 0.89938 0.98168 0.24972 0.0
H1288 H 0.88644 0.03765 0.29866 0.0
H1289 H 0.93692 0.03992 0.25595 0.0
H1290 H 0.90899 0.05328 0.32522 0.0
H1291 H 0.95861 0.05535 0.28328 0.0
H1292 H 0.85602 0.93643 0.30839 0.0
H1293 H 0.82618 1.00281 0.28691 0.0
H1294 H 0.87874 0.96307 0.29321 0.0
H1295 H 0.80437 0.97543 0.30204 0.0
H1296 H 0.8509 0.09624 0.27796 0.0
H1297 H 0.79962 0.05689 0.26303 0.0
H1298 H 0.9648 0.99044 0.30466 0.0
H1299 H 0.91403 0.98994 0.34736 0.0
H1300 H 0.83443 0.00715 0.20592 0.0
H1301 H 0.88077 0.04755 0.23053 0.0
H1302 H 0.82394 0.03487 0.18184 0.0
H1303 H 0.8694 0.07451 0.20617 0.0
H1304 H 0.87898 0.97916 0.21427 0.0
H1305 H 0.92897 0.954 0.24966 0.0
H1306 H 0.8874 0.95494 0.18613 0.0
H1307 H 0.93648 0.9301 0.22083 0.0
H1308 H 0.96302 0.0151 0.20429 0.0
H1309 H 0.91168 0.02101 0.16267 0.0
H1310 H 0.80133 0.95536 0.23771 0.0
H1311 H 0.85088 0.91218 0.24691 0.0
Li1312 Li 0.25374 0.14401 0.52474 0.0
Li1313 Li 0.23817 0.11806 0.50389 0.0
Li1314 Li 0.27486 0.11606 0.50937 0.0
Li1315 Li 0.25915 0.14331 0.4879 0.0
C1316 C 0.26136 0.10872 0.54869 0.0
N1317 N 0.27927 0.09838 0.58581 0.0
C1318 C 0.25335 0.09261 0.56041 0.0
C1319 C 0.2785 0.11956 0.55583 0.0
C1320 C 0.26261 0.08763 0.57915 0.0
C1321 C 0.28732 0.1141 0.57464 0.0
C1322 C 0.21472 0.15311 0.51165 0.0
C1323 C 0.18462 0.17465 0.5139 0.0
N1324 N 0.17786 0.16334 0.53013 0.0
C1325 C 0.20748 0.14171 0.52837 0.0
C1326 C 0.20322 0.16972 0.50436 0.0
C1327 C 0.18881 0.14712 0.53749 0.0
C1328 C 0.25506 0.18197 0.54567 0.0
N1329 N 0.25009 0.1618 0.54799 0.0
C1330 C 0.2395 0.16781 0.58272 0.0
C1331 C 0.24212 0.15462 0.56597 0.0
C1332 C 0.24495 0.18856 0.58082 0.0
C1333 C 0.2527 0.1957 0.56203 0.0
H1334 H 0.26069 0.18741 0.53104 0.0
H1335 H 0.23766 0.13869 0.56731 0.0
C1336 C 0.21573 0.08133 0.50809 0.0
N1337 N 0.21455 0.10076 0.50048 0.0
C1338 C 0.19938 0.06766 0.50544 0.0
C1339 C 0.18084 0.09428 0.48726 0.0
C1340 C 0.19757 0.10743 0.49022 0.0
C1341 C 0.18174 0.07415 0.4949 0.0
H1342 H 0.22951 0.0764 0.51599 0.0
H1343 H 0.19713 0.12287 0.48409 0.0
C1344 C 0.29595 0.15563 0.49959 0.0
N1345 N 0.32598 0.175 0.47663 0.0
C1346 C 0.3066 0.1448 0.48438 0.0
C1347 C 0.30065 0.17628 0.50319 0.0
C1348 C 0.32171 0.15487 0.47293 0.0
C1349 C 0.31587 0.1858 0.49141 0.0
C1350 C 0.24916 0.10233 0.46875 0.0
C1351 C 0.25148 0.08101 0.46747 0.0
C1352 C 0.23496 0.11225 0.45602 0.0
C1353 C 0.23948 0.06995 0.4535 0.0
C1354 C 0.22327 0.10065 0.44223 0.0
N1355 N 0.22574 0.07991 0.44128 0.0
C1356 C 0.2954 0.07775 0.51242 0.0
C1357 C 0.31629 0.10667 0.51989 0.0
C1358 C 0.31186 0.06445 0.51619 0.0
N1359 N 0.29795 0.09843 0.51407 0.0
C1360 C 0.33313 0.09395 0.52387 0.0
C1361 C 0.33097 0.0726 0.52195 0.0
H1362 H 0.2805 0.07157 0.50842 0.0
H1363 H 0.31779 0.12311 0.52168 0.0
C1364 C 0.26227 0.18102 0.46592 0.0
N1365 N 0.26431 0.16032 0.46447 0.0
C1366 C 0.26851 0.19366 0.44969 0.0
C1367 C 0.27743 0.16348 0.43031 0.0
C1368 C 0.27127 0.15143 0.44695 0.0
C1369 C 0.27771 0.18519 0.43185 0.0
H1370 H 0.25626 0.18774 0.47989 0.0
H1371 H 0.27241 0.13488 0.44599 0.0
O1372 O 0.25257 0.11348 0.53017 0.0
O1373 O 0.23306 0.14833 0.50251 0.0
O1374 O 0.28047 0.14621 0.5103 0.0
O1375 O 0.26034 0.11341 0.48273 0.0
H1376 H 0.24013 0.08404 0.55507 0.0
H1377 H 0.28495 0.13207 0.54703 0.0
H1378 H 0.25657 0.0752 0.58838 0.0
H1379 H 0.30058 0.12236 0.58035 0.0
H1380 H 0.17557 0.18747 0.50841 0.0
H1381 H 0.21611 0.12881 0.53428 0.0
H1382 H 0.20866 0.17873 0.49147 0.0
H1383 H 0.18303 0.13843 0.55043 0.0
H1384 H 0.23325 0.16194 0.59699 0.0
H1385 H 0.25682 0.21171 0.56007 0.0
H1386 H 0.20049 0.05217 0.51143 0.0
H1387 H 0.16742 0.09965 0.47898 0.0
H1388 H 0.30296 0.12889 0.48118 0.0
H1389 H 0.29262 0.18491 0.51488 0.0
H1390 H 0.32995 0.14672 0.461 0.0
H1391 H 0.3196 0.2018 0.49397 0.0
H1392 H 0.26236 0.07307 0.47718 0.0
H1393 H 0.23274 0.12871 0.45703 0.0
H1394 H 0.24105 0.05343 0.4524 0.0
H1395 H 0.21213 0.10811 0.43239 0.0
H1396 H 0.30971 0.048 0.51479 0.0
H1397 H 0.34766 0.10066 0.52848 0.0
H1398 H 0.26623 0.21005 0.45135 0.0
H1399 H 0.2817 0.15516 0.41676 0.0
Li1400 Li 0.39526 0.50105 0.77374 0.0
Li1401 Li 0.3673 0.52392 0.76165 0.0
Li1402 Li 0.36881 0.48793 0.75238 0.0
Li1403 Li 0.39418 0.51034 0.73776 0.0
C1404 C 0.3537 0.48565 0.78951 0.0
N1405 N 0.32905 0.45546 0.80631 0.0
C1406 C 0.33265 0.4891 0.79204 0.0
C1407 C 0.36225 0.46692 0.79565 0.0
C1408 C 0.32043 0.47361 0.80053 0.0
C1409 C 0.34952 0.45183 0.80407 0.0
C1410 C 0.40959 0.53873 0.77573 0.0
C1411 C 0.44222 0.55257 0.7866 0.0
N1412 N 0.43432 0.55601 0.80565 0.0
C1413 C 0.40174 0.54253 0.79537 0.0
C1414 C 0.42995 0.54387 0.77125 0.0
C1415 C 0.41451 0.55123 0.8103 0.0
C1416 C 0.43417 0.49459 0.79189 0.0
N1417 N 0.41371 0.49584 0.79601 0.0
C1418 C 0.42003 0.49169 0.83199 0.0
C1419 C 0.40645 0.49442 0.81557 0.0
C1420 C 0.44124 0.4907 0.8282 0.0
C1421 C 0.44832 0.49213 0.80788 0.0
H1422 H 0.43949 0.49593 0.77619 0.0
H1423 H 0.39013 0.49575 0.81844 0.0
C1424 C 0.32898 0.5438 0.76399 0.0
N1425 N 0.34949 0.54667 0.76693 0.0
C1426 C 0.31527 0.56015 0.76644 0.0
C1427 C 0.34403 0.58218 0.77479 0.0
C1428 C 0.3572 0.56542 0.77209 0.0
C1429 C 0.32282 0.57959 0.77188 0.0
H1430 H 0.32334 0.52886 0.75935 0.0
H1431 H 0.37359 0.56749 0.77372 0.0
C1432 C 0.40292 0.46933 0.73426 0.0
N1433 N 0.41185 0.4427 0.70238 0.0
C1434 C 0.39107 0.46958 0.71631 0.0
C1435 C 0.41932 0.45557 0.73597 0.0
C1436 C 0.39583 0.45599 0.70037 0.0
C1437 C 0.42358 0.44221 0.7197 0.0
C1438 C 0.35766 0.52632 0.7204 0.0
C1439 C 0.34152 0.52274 0.70667 0.0
C1440 C 0.36748 0.54545 0.72053 0.0
C1441 C 0.33552 0.53834 0.69319 0.0
C1442 C 0.36099 0.56066 0.70683 0.0
N1443 N 0.34529 0.55682 0.69356 0.0
C1444 C 0.33102 0.46872 0.74352 0.0
C1445 C 0.35836 0.44519 0.74883 0.0
C1446 C 0.3171 0.45255 0.74104 0.0
N1447 N 0.35117 0.46479 0.74747 0.0
C1448 C 0.34505 0.42856 0.74608 0.0
C1449 C 0.32412 0.43219 0.74233 0.0
H1450 H 0.3257 0.48446 0.74273 0.0
H1451 H 0.37436 0.44244 0.7524 0.0
C1452 C 0.43198 0.5148 0.71771 0.0
N1453 N 0.41136 0.51531 0.71428 0.0
C1454 C 0.44577 0.51714 0.70141 0.0
C1455 C 0.41688 0.52025 0.67823 0.0
C1456 C 0.40364 0.5177 0.69496 0.0
C1457 C 0.43819 0.51992 0.68142 0.0
H1458 H 0.43771 0.51215 0.73309 0.0
H1459 H 0.38726 0.51722 0.69236 0.0
O1460 O 0.36583 0.50038 0.78071 0.0
O1461 O 0.3975 0.52956 0.76114 0.0
O1462 O 0.39892 0.48275 0.74997 0.0
O1463 O 0.36331 0.51129 0.73398 0.0
H1464 H 0.3258 0.50351 0.7874 0.0
H1465 H 0.3785 0.46396 0.7936 0.0
H1466 H 0.30409 0.47602 0.80249 0.0
H1467 H 0.35589 0.4372 0.80873 0.0
H1468 H 0.45804 0.55655 0.78338 0.0
H1469 H 0.38605 0.53846 0.79914 0.0
H1470 H 0.43625 0.54115 0.75611 0.0
H1471 H 0.4087 0.55407 0.82562 0.0
H1472 H 0.41412 0.4907 0.84753 0.0
H1473 H 0.46461 0.49148 0.80449 0.0
H1474 H 0.29899 0.55775 0.76391 0.0
H1475 H 0.3503 0.59708 0.77881 0.0
H1476 H 0.37836 0.48014 0.71461 0.0
H1477 H 0.4287 0.45528 0.74972 0.0
H1478 H 0.38681 0.45603 0.6864 0.0
H1479 H 0.43623 0.43148 0.72081 0.0
H1480 H 0.33369 0.50805 0.70649 0.0
H1481 H 0.37995 0.54857 0.73106 0.0
H1482 H 0.32306 0.53577 0.68247 0.0
H1483 H 0.36843 0.57553 0.70677 0.0
H1484 H 0.30102 0.45585 0.73825 0.0
H1485 H 0.35091 0.41302 0.74724 0.0
H1486 H 0.46216 0.51658 0.7043 0.0
H1487 H 0.41059 0.52213 0.66292 0.0
Li1488 Li 0.77389 0.39346 0.50371 0.0
Li1489 Li 0.75802 0.36666 0.52592 0.0
Li1490 Li 0.75121 0.36554 0.48922 0.0
Li1491 Li 0.73679 0.39275 0.51197 0.0
C1492 C 0.79347 0.35804 0.48937 0.0
N1493 N 0.82401 0.34843 0.46148 0.0
C1494 C 0.8086 0.34367 0.49446 0.0
C1495 C 0.79384 0.36751 0.47008 0.0
C1496 C 0.82392 0.33903 0.48015 0.0
C1497 C 0.80941 0.36244 0.45619 0.0
C1498 C 0.75391 0.41283 0.54263 0.0
C1499 C 0.73025 0.42745 0.56719 0.0
N1500 N 0.73946 0.44607 0.56485 0.0
C1501 C 0.76327 0.43206 0.54065 0.0
C1502 C 0.7374 0.41045 0.55619 0.0
C1503 C 0.75571 0.44868 0.55196 0.0
C1504 C 0.79356 0.43035 0.4918 0.0
N1505 N 0.79706 0.41082 0.49839 0.0
C1506 C 0.83341 0.41633 0.49739 0.0
C1507 C 0.8165 0.40371 0.50143 0.0
C1508 C 0.83023 0.43658 0.49069 0.0
C1509 C 0.81001 0.44364 0.48802 0.0
H1510 H 0.77794 0.43567 0.48972 0.0
H1511 H 0.81892 0.38825 0.507 0.0
C1512 C 0.77203 0.33047 0.54563 0.0
N1513 N 0.76407 0.34943 0.54906 0.0
C1514 C 0.77846 0.31823 0.5621 0.0
C1515 C 0.76692 0.34443 0.58534 0.0
C1516 C 0.76075 0.35624 0.56848 0.0
C1517 C 0.77806 0.32593 0.58249 0.0
H1518 H 0.77348 0.32486 0.53003 0.0
H1519 H 0.75339 0.3709 0.57094 0.0
C1520 C 0.74205 0.40527 0.46819 0.0
N1521 N 0.72482 0.42471 0.43457 0.0
C1522 C 0.72071 0.40553 0.46561 0.0
C1523 C 0.75462 0.41489 0.45367 0.0
C1524 C 0.7123 0.41546 0.44852 0.0
C1525 C 0.74561 0.42462 0.43677 0.0
C1526 C 0.72409 0.34655 0.5233 0.0
C1527 C 0.72694 0.32648 0.51619 0.0
C1528 C 0.71486 0.34982 0.54243 0.0
C1529 C 0.72072 0.30998 0.52844 0.0
C1530 C 0.70887 0.33292 0.55424 0.0
N1531 N 0.71191 0.31352 0.54707 0.0
C1532 C 0.75725 0.32948 0.46555 0.0
C1533 C 0.73487 0.35352 0.4498 0.0
C1534 C 0.7551 0.31604 0.44891 0.0
N1535 N 0.74726 0.34788 0.4657 0.0
C1536 C 0.73233 0.34058 0.43282 0.0
C1537 C 0.74255 0.32164 0.43233 0.0
H1538 H 0.76681 0.32515 0.47845 0.0
H1539 H 0.72683 0.36798 0.45026 0.0
C1540 C 0.71699 0.43135 0.51124 0.0
N1541 N 0.71399 0.4111 0.51552 0.0
C1542 C 0.70094 0.44542 0.51358 0.0
C1543 C 0.67893 0.41753 0.52451 0.0
C1544 C 0.69541 0.40397 0.52193 0.0
C1545 C 0.68169 0.43849 0.5203 0.0
H1546 H 0.73189 0.43654 0.50599 0.0
H1547 H 0.69337 0.38778 0.52498 0.0
O1548 O 0.77836 0.36267 0.50325 0.0
O1549 O 0.76083 0.39646 0.53132 0.0
O1550 O 0.75064 0.396 0.48501 0.0
O1551 O 0.73058 0.36287 0.51175 0.0
H1552 H 0.8085 0.3362 0.50933 0.0
H1553 H 0.78223 0.3786 0.46583 0.0
H1554 H 0.83575 0.32795 0.48389 0.0
H1555 H 0.80988 0.36964 0.44121 0.0
H1556 H 0.71731 0.42587 0.57751 0.0
H1557 H 0.77624 0.43416 0.53052 0.0
H1558 H 0.72988 0.39575 0.55786 0.0
H1559 H 0.76275 0.46367 0.55048 0.0
H1560 H 0.84883 0.41044 0.49967 0.0
H1561 H 0.80704 0.45922 0.48296 0.0
H1562 H 0.78347 0.30285 0.55848 0.0
H1563 H 0.76262 0.35006 0.60032 0.0
H1564 H 0.71075 0.39791 0.47651 0.0
H1565 H 0.77117 0.41482 0.45539 0.0
H1566 H 0.69581 0.41574 0.44631 0.0
H1567 H 0.75516 0.43211 0.4254 0.0
H1568 H 0.73401 0.32365 0.50144 0.0
H1569 H 0.71255 0.36521 0.54822 0.0
H1570 H 0.72294 0.29437 0.52316 0.0
H1571 H 0.70185 0.33523 0.56914 0.0
H1572 H 0.76312 0.30145 0.44897 0.0
H1573 H 0.72245 0.34524 0.42025 0.0
H1574 H 0.70348 0.46151 0.51016 0.0
H1575 H 0.66418 0.41177 0.52964 0.0
Li1576 Li 0.64718 0.99029 0.75803 0.0
Li1577 Li 0.61905 0.00959 0.77496 0.0
Li1578 Li 0.61923 1.00206 0.73617 0.0
Li1579 Li 0.64356 0.02604 0.75168 0.0
C1580 C 0.61867 0.96253 0.76432 0.0
N1581 N 0.62362 0.92141 0.77353 0.0
C1582 C 0.61912 0.95608 0.7848 0.0
C1583 C 0.62059 0.94811 0.74851 0.0
C1584 C 0.62166 0.9352 0.78914 0.0
C1585 C 0.62313 0.92738 0.7535 0.0
C1586 C 0.66491 0.02418 0.78553 0.0
C1587 C 0.67751 0.05374 0.80402 0.0
N1588 N 0.69697 0.04909 0.79795 0.0
C1589 C 0.68502 0.01967 0.7795 0.0
C1590 C 0.66108 0.04131 0.79793 0.0
C1591 C 0.70103 0.03247 0.78593 0.0
C1592 C 0.67131 0.96288 0.78177 0.0
N1593 N 0.66567 0.96791 0.76227 0.0
C1594 C 0.68557 0.9402 0.7486 0.0
C1595 C 0.67249 0.95701 0.74578 0.0
C1596 C 0.69157 0.93465 0.76855 0.0
C1597 C 0.68432 0.94614 0.78529 0.0
H1598 H 0.66554 0.97178 0.79458 0.0
H1599 H 0.66759 0.96128 0.73048 0.0
C1600 C 0.58116 0.01218 0.79583 0.0
N1601 N 0.6019 0.01229 0.79847 0.0
C1602 C 0.56812 0.01543 0.81259 0.0
C1603 C 0.59804 0.01858 0.83448 0.0
C1604 C 0.6105 0.01514 0.81732 0.0
C1605 C 0.57661 0.0189 0.83212 0.0
H1606 H 0.57479 0.00994 0.78062 0.0
H1607 H 0.62704 0.01507 0.81896 0.0
C1608 C 0.65243 0.01185 0.71176 0.0
N1609 N 0.65822 0.02755 0.67272 0.0
C1610 C 0.64143 0.02914 0.70532 0.0
C1611 C 0.6664 1.00256 0.69835 0.0
C1612 C 0.64457 0.03685 0.68553 0.0
C1613 C 0.66911 0.01072 0.67867 0.0
C1614 C 0.60307 0.04635 0.75219 0.0
C1615 C 0.59446 0.05485 0.73441 0.0
C1616 C 0.60055 0.05642 0.77103 0.0
C1617 C 0.58381 0.07345 0.73572 0.0
C1618 C 0.58978 0.07499 0.7717 0.0
N1619 N 0.58171 0.08305 0.75418 0.0
C1620 C 0.58206 1.00314 0.71382 0.0
C1621 C 0.60903 0.98512 0.69715 0.0
C1622 C 0.56883 0.99936 0.6973 0.0
N1623 N 0.60176 0.99614 0.71337 0.0
C1624 C 0.59634 0.98102 0.68028 0.0
C1625 C 0.57603 0.98823 0.6803 0.0
H1626 H 0.57664 0.01168 0.72702 0.0
H1627 H 0.62468 0.97952 0.6973 0.0
C1628 C 0.67691 0.05076 0.73674 0.0
N1629 N 0.65888 0.0513 0.74741 0.0
C1630 C 0.68841 0.06871 0.73382 0.0
C1631 C 0.66295 0.08738 0.75336 0.0
C1632 C 0.65197 0.06914 0.75586 0.0
C1633 C 0.68132 0.08726 0.74217 0.0
H1634 H 0.68251 0.03634 0.73067 0.0
H1635 H 0.6382 0.06922 0.76499 0.0
O1636 O 0.61688 0.98295 0.75978 0.0
O1637 O 0.649 0.01217 0.7789 0.0
O1638 O 0.6495 1.00385 0.73099 0.0
O1639 O 0.61304 0.02783 0.7513 0.0
H1640 H 0.61775 0.96711 0.79719 0.0
H1641 H 0.62038 0.95294 0.73258 0.0
H1642 H 0.62217 0.92997 0.80492 0.0
H1643 H 0.6248 0.91604 0.74144 0.0
H1644 H 0.67477 0.06713 0.8135 0.0
H1645 H 0.6882 0.00656 0.76975 0.0
H1646 H 0.64555 0.04514 0.80252 0.0
H1647 H 0.71667 0.02923 0.7813 0.0
H1648 H 0.69091 0.93157 0.73539 0.0
H1649 H 0.68868 0.94217 0.80087 0.0
H1650 H 0.55162 0.01559 0.81033 0.0
H1651 H 0.60501 0.02119 0.84938 0.0
H1652 H 0.63071 0.0366 0.71551 0.0
H1653 H 0.67504 0.98916 0.7031 0.0
H1654 H 0.63616 0.05024 0.68037 0.0
H1655 H 0.67986 1.00367 0.66813 0.0
H1656 H 0.59588 0.04713 0.71974 0.0
H1657 H 0.60719 0.05022 0.78494 0.0
H1658 H 0.57714 0.08021 0.72207 0.0
H1659 H 0.58787 0.08299 0.78615 0.0
H1660 H 0.55318 1.00504 0.69774 0.0
H1661 H 0.60226 0.97231 0.66738 0.0
H1662 H 0.70269 0.06814 0.72529 0.0
H1663 H 0.65726 0.10145 0.76022 0.0
Li1664 Li 0.0255 0.25886 0.86811 0.0
Li1665 Li 1.00428 0.27403 0.89366 0.0
Li1666 Li 0.01222 0.23776 0.89516 0.0
Li1667 Li 0.98732 0.25139 0.86868 0.0
C1668 C 0.05175 0.26627 0.8958 0.0
N1669 N 0.09244 0.27679 0.88933 0.0
C1670 C 0.05781 0.2869 0.89618 0.0
C1671 C 0.06644 0.25102 0.89207 0.0
C1672 C 0.07844 0.29189 0.89293 0.0
C1673 C 0.08691 0.25664 0.88883 0.0
C1674 C 0.99491 0.29753 0.86143 0.0
C1675 C 0.96801 0.32161 0.85288 0.0
N1676 N 0.98068 0.33743 0.85801 0.0
C1677 C 0.0077 0.31406 0.86651 0.0
C1678 C 0.97492 0.30134 0.8545 0.0
C1679 C 1.0002 0.3341 0.86474 0.0
C1680 C 0.05437 0.28219 0.84464 0.0
N1681 N 0.04791 0.26281 0.84917 0.0
C1682 C 0.07352 0.24849 0.82697 0.0
C1683 C 0.05702 0.24609 0.84052 0.0
C1684 C 0.08053 0.2683 0.82224 0.0
C1685 C 0.07081 0.2853 0.83119 0.0
H1686 H 0.04687 0.29524 0.85158 0.0
H1687 H 0.05151 0.23087 0.84415 0.0
C1688 C 0.98085 0.30814 0.90904 0.0
N1689 N 0.9987 0.2974 0.91114 0.0
C1690 C 0.9766 0.32479 0.92192 0.0
C1691 C 0.00882 0.31871 0.93941 0.0
C1692 C 0.01241 0.30211 0.92625 0.0
C1693 C 0.99078 0.33025 0.93718 0.0
H1694 H 0.96979 0.30368 0.89749 0.0
H1695 H 0.02604 0.29283 0.92825 0.0
C1696 C 0.01136 0.21094 0.86542 0.0
N1697 N 0.01148 0.16853 0.86816 0.0
C1698 C 0.99323 0.19985 0.86226 0.0
C1699 C 0.0296 0.20042 0.86981 0.0
C1700 C 0.9936 0.17843 0.86372 0.0
C1701 C 0.02932 0.17899 0.8712 0.0
C1702 C 0.97521 0.25638 0.91645 0.0
C1703 C 0.98553 0.25478 0.93524 0.0
C1704 C 0.95534 0.26453 0.91586 0.0
C1705 C 0.9758 0.26149 0.95317 0.0
C1706 C 0.94613 0.27106 0.93414 0.0
N1707 N 0.95647 0.26943 0.95225 0.0
C1708 C 0.03432 0.21165 0.92301 0.0
C1709 C 0.99981 0.20202 0.91626 0.0
C1710 C 0.03685 0.19479 0.93608 0.0
N1711 N 0.01609 0.2148 0.91325 0.0
C1712 C 1.0016 0.18509 0.92935 0.0
C1713 C 0.02033 0.18134 0.93937 0.0
H1714 H 0.04686 0.22227 0.9208 0.0
H1715 H 0.98541 0.20503 0.90849 0.0
C1716 C 0.96513 0.24868 0.83169 0.0
N1717 N 0.96365 0.24582 0.85235 0.0
C1718 C 0.94834 0.24457 0.81894 0.0
C1719 C 0.92885 0.23444 0.84893 0.0
C1720 C 0.94602 0.23878 0.86113 0.0
C1721 C 0.92997 0.23737 0.8276 0.0
H1722 H 0.9794 0.25418 0.82516 0.0
H1723 H 0.94539 0.23635 0.87756 0.0
O1724 O 0.0315 0.26109 0.89843 0.0
O1725 O 1.0019 0.27776 0.86315 0.0
O1726 O 0.01117 0.23198 0.86466 0.0
O1727 O 0.98476 0.25054 0.89867 0.0
H1728 H 0.0467 0.29899 0.89864 0.0
H1729 H 0.06205 0.23504 0.8912 0.0
H1730 H 0.0833 0.30779 0.89311 0.0
H1731 H 0.09838 0.24499 0.88577 0.0
H1732 H 0.95256 0.32476 0.8476 0.0
H1733 H 0.02307 0.31146 0.87222 0.0
H1734 H 0.96476 0.2888 0.85056 0.0
H1735 H 0.00986 0.34701 0.86883 0.0
H1736 H 0.08071 0.23508 0.82021 0.0
H1737 H 0.07589 0.30078 0.82777 0.0
H1738 H 0.96241 0.3333 0.92004 0.0
H1739 H 0.0199 0.32243 0.95128 0.0
H1740 H 0.97896 0.20766 0.85889 0.0
H1741 H 0.04374 0.20871 0.87251 0.0
H1742 H 0.97965 0.16967 0.86141 0.0
H1743 H 0.04328 0.17069 0.8748 0.0
H1744 H 1.00101 0.24872 0.93592 0.0
H1745 H 0.94725 0.26612 0.90141 0.0
H1746 H 0.98365 0.26048 0.9678 0.0
H1747 H 0.93081 0.27752 0.93391 0.0
H1748 H 0.05145 0.19237 0.94373 0.0
H1749 H 0.98854 0.17503 0.93168 0.0
H1750 H 0.94964 0.24693 0.8025 0.0
H1751 H 0.91488 0.2288 0.85601 0.0
Li1752 Li 0.5241 0.75806 0.36612 0.0
Li1753 Li 0.50426 0.77363 0.39306 0.0
Li1754 Li 0.51052 0.73691 0.39233 0.0
Li1755 Li 0.48585 0.75137 0.36729 0.0
C1756 C 0.55143 0.76306 0.39335 0.0
N1757 N 0.59265 0.7708 0.3863 0.0
C1758 C 0.55877 0.78326 0.39305 0.0
C1759 C 0.5651 0.74681 0.38998 0.0
C1760 C 0.57965 0.78685 0.3895 0.0
C1761 C 0.58586 0.75103 0.38645 0.0
C1762 C 0.4943 0.7978 0.3617 0.0
C1763 C 0.46765 0.82265 0.35473 0.0
N1764 N 0.48053 0.838 0.36071 0.0
C1765 C 0.50733 0.81386 0.36758 0.0
C1766 C 0.47434 0.80224 0.35508 0.0
C1767 C 0.50006 0.83406 0.36707 0.0
C1768 C 0.55227 0.78178 0.34231 0.0
N1769 N 0.54626 0.76229 0.34696 0.0
C1770 C 0.57225 0.74842 0.32492 0.0
C1771 C 0.55576 0.74573 0.33842 0.0
C1772 C 0.57887 0.76835 0.32014 0.0
C1773 C 0.5687 0.78519 0.32891 0.0
H1774 H 0.54445 0.7947 0.34917 0.0
H1775 H 0.5506 0.73041 0.34214 0.0
C1776 C 0.48017 0.80527 0.4107 0.0
N1777 N 0.49919 0.79653 0.41099 0.0
C1778 C 0.47571 0.82197 0.42346 0.0
C1779 C 0.51022 0.81995 0.43714 0.0
C1780 C 0.514 0.80325 0.42415 0.0
C1781 C 0.49091 0.82949 0.43673 0.0
H1782 H 0.46849 0.79927 0.40049 0.0
H1783 H 0.52867 0.79551 0.42478 0.0
C1784 C 0.50874 0.71055 0.36233 0.0
N1785 N 0.50827 0.66807 0.364 0.0
C1786 C 0.49036 0.6998 0.35935 0.0
C1787 C 0.52689 0.69964 0.36607 0.0
C1788 C 0.49045 0.67834 0.36023 0.0
C1789 C 0.52633 0.67819 0.36692 0.0
C1790 C 0.47703 0.74596 0.41634 0.0
C1791 C 0.45859 0.73515 0.41845 0.0
C1792 C 0.48875 0.75055 0.43376 0.0
C1793 C 0.45215 0.72912 0.43802 0.0
C1794 C 0.4818 0.74424 0.45307 0.0
N1795 N 0.46379 0.73374 0.45478 0.0
C1796 C 0.53145 0.71205 0.42186 0.0
C1797 C 0.49873 0.69948 0.41191 0.0
C1798 C 0.53411 0.69552 0.43531 0.0
N1799 N 0.51408 0.7136 0.4103 0.0
C1800 C 0.50063 0.68285 0.42537 0.0
C1801 C 0.51853 0.68075 0.4372 0.0
H1802 H 0.54312 0.72379 0.42091 0.0
H1803 H 0.48487 0.70125 0.40291 0.0
C1804 C 0.46141 0.74079 0.3325 0.0
N1805 N 0.46094 0.74787 0.35219 0.0
C1806 C 0.44313 0.73841 0.32139 0.0
C1807 C 0.42437 0.75112 0.35087 0.0
C1808 C 0.44295 0.75303 0.36148 0.0
C1809 C 0.42437 0.74365 0.33063 0.0
H1810 H 0.47598 0.73692 0.32549 0.0
H1811 H 0.44308 0.75886 0.37705 0.0
O1812 O 0.53092 0.75924 0.39632 0.0
O1813 O 0.501 0.77785 0.36245 0.0
O1814 O 0.50888 0.7316 0.36189 0.0
O1815 O 0.48389 0.75141 0.39725 0.0
H1816 H 0.54847 0.7961 0.39516 0.0
H1817 H 0.55973 0.73111 0.38974 0.0
H1818 H 0.58549 0.80241 0.38914 0.0
H1819 H 0.59655 0.73859 0.38371 0.0
H1820 H 0.45222 0.82628 0.34971 0.0
H1821 H 0.52274 0.81075 0.37294 0.0
H1822 H 0.46409 0.79009 0.35026 0.0
H1823 H 0.50991 0.84659 0.37182 0.0
H1824 H 0.57979 0.73513 0.3183 0.0
H1825 H 0.57347 0.80076 0.32545 0.0
H1826 H 0.4606 0.82895 0.42297 0.0
H1827 H 0.52214 0.82529 0.44747 0.0
H1828 H 0.47611 0.7079 0.35671 0.0
H1829 H 0.54122 0.70763 0.36866 0.0
H1830 H 0.47631 0.66986 0.35806 0.0
H1831 H 0.54023 0.6696 0.36998 0.0
H1832 H 0.44946 0.73128 0.40507 0.0
H1833 H 0.50324 0.7586 0.43236 0.0
H1834 H 0.43794 0.72069 0.43989 0.0
H1835 H 0.49076 0.74759 0.46668 0.0
H1836 H 0.54803 0.69442 0.44441 0.0
H1837 H 0.48824 0.67179 0.42662 0.0
H1838 H 0.44359 0.73265 0.30577 0.0
H1839 H 0.41012 0.75536 0.35837 0.0
Li1840 Li 0.00755 0.77493 0.61771 0.0
Li1841 Li 0.98652 0.75998 0.64358 0.0
Li1842 Li 0.02475 0.75295 0.643 0.0
Li1843 Li 0.99991 0.73865 0.61668 0.0
C1844 C 0.01657 0.79912 0.64956 0.0
N1845 N 0.03017 0.83927 0.6525 0.0
C1846 C 1.00347 0.81538 0.64446 0.0
C1847 C 0.03657 0.80331 0.65626 0.0
C1848 C 0.01065 0.83556 0.64599 0.0
C1849 C 0.04315 0.8237 0.65764 0.0
C1850 C 0.96013 0.76684 0.61593 0.0
C1851 C 0.92508 0.7571 0.62332 0.0
N1852 N 0.91938 0.77719 0.62238 0.0
C1853 C 0.95389 0.7874 0.6151 0.0
C1854 C 0.94558 0.75156 0.6201 0.0
C1855 C 0.93324 0.79231 0.61835 0.0
C1856 C 0.02998 0.80959 0.60163 0.0
N1857 N 0.01258 0.79808 0.59979 0.0
C1858 C 1.00171 0.81813 0.57092 0.0
C1859 C 0.99876 0.80179 0.58453 0.0
C1860 C 0.01925 0.83045 0.57285 0.0
C1861 C 0.0336 0.82602 0.58829 0.0
H1862 H 0.04118 0.8059 0.61332 0.0
H1863 H 0.98552 0.79192 0.58275 0.0
C1864 C 0.95724 0.78311 0.66683 0.0
N1865 N 0.96417 0.76383 0.66258 0.0
C1866 C 0.9408 0.78603 0.68033 0.0
C1867 C 0.93906 0.74923 0.68515 0.0
C1868 C 0.95554 0.74703 0.67156 0.0
C1869 C 0.93156 0.76893 0.68959 0.0
H1870 H 0.96436 0.79622 0.65964 0.0
H1871 H 0.96143 0.7319 0.66814 0.0
C1872 C 0.03712 0.75764 0.59544 0.0
N1873 N 0.05631 0.77123 0.56011 0.0
C1874 C 0.02736 0.7556 0.5764 0.0
C1875 C 0.05667 0.76648 0.59652 0.0
C1876 C 0.03731 0.7626 0.55871 0.0
C1877 C 0.06611 0.77328 0.57847 0.0
C1878 C 1.00129 0.71226 0.64686 0.0
C1879 C 0.01962 0.70153 0.65014 0.0
C1880 C 0.98321 0.70137 0.64273 0.0
C1881 C 0.01959 0.68008 0.6491 0.0
C1882 C 0.98383 0.67993 0.64177 0.0
N1883 N 1.00185 0.66982 0.64494 0.0
C1884 C 0.04598 0.7517 0.68031 0.0
C1885 C 0.06647 0.74175 0.65183 0.0
C1886 C 0.06254 0.74891 0.6937 0.0
N1887 N 0.04826 0.74825 0.65982 0.0
C1888 C 0.08345 0.73871 0.66469 0.0
C1889 C 0.08153 0.74242 0.68586 0.0
H1890 H 0.03129 0.75679 0.6862 0.0
H1891 H 0.06777 0.73889 0.6355 0.0
C1892 C 0.9773 0.71313 0.58906 0.0
N1893 N 0.99563 0.71554 0.59883 0.0
C1894 C 0.97389 0.69611 0.57641 0.0
C1895 C 0.00859 0.68477 0.58336 0.0
C1896 C 0.01127 0.70192 0.59605 0.0
C1897 C 0.98964 0.68168 0.57353 0.0
H1898 H 0.96532 0.72443 0.591 0.0
H1899 H 0.0258 0.70437 0.60377 0.0
O1900 O 0.00988 0.77922 0.64811 0.0
O1901 O 0.98041 0.76175 0.61331 0.0
O1902 O 0.02735 0.75148 0.61299 0.0
O1903 O 1.00113 0.73331 0.64726 0.0
H1904 H 0.98809 0.81248 0.63893 0.0
H1905 H 0.04699 0.79098 0.66019 0.0
H1906 H 1.00074 0.84827 0.64189 0.0
H1907 H 0.05861 0.82715 0.66274 0.0
H1908 H 0.91373 0.74544 0.62672 0.0
H1909 H 0.96489 0.79952 0.6123 0.0
H1910 H 0.95011 0.73564 0.62134 0.0
H1911 H 0.92825 0.80816 0.61782 0.0
H1912 H 0.99053 0.82104 0.55892 0.0
H1913 H 0.04744 0.83514 0.58994 0.0
H1914 H 0.93532 0.80143 0.68352 0.0
H1915 H 0.93225 0.73576 0.69216 0.0
H1916 H 0.01215 0.74895 0.57534 0.0
H1917 H 0.06432 0.76839 0.61118 0.0
H1918 H 0.02989 0.76126 0.54388 0.0
H1919 H 0.08118 0.78028 0.57908 0.0
H1920 H 0.03377 0.70965 0.6533 0.0
H1921 H 0.96893 0.70938 0.63992 0.0
H1922 H 0.03369 0.6716 0.65153 0.0
H1923 H 0.97 0.67133 0.63839 0.0
H1924 H 0.06061 0.75185 0.70997 0.0
H1925 H 0.09793 0.73359 0.65825 0.0
H1926 H 0.95915 0.69424 0.56887 0.0
H1927 H 0.02109 0.67395 0.58133 0.0
Li1928 Li 0.50896 0.27575 0.11748 0.0
Li1929 Li 0.48781 0.2611 0.1434 0.0
Li1930 Li 0.52605 0.25408 0.1431 0.0
Li1931 Li 0.50137 0.23945 0.11685 0.0
C1932 C 0.5178 0.30031 0.14915 0.0
N1933 N 0.53133 0.3405 0.15182 0.0
C1934 C 0.50473 0.31651 0.14377 0.0
C1935 C 0.53773 0.30458 0.15599 0.0
C1936 C 0.51187 0.33671 0.14516 0.0
C1937 C 0.54427 0.325 0.15724 0.0
C1938 C 0.46155 0.26758 0.11549 0.0
C1939 C 0.42647 0.25789 0.12279 0.0
N1940 N 0.42074 0.27795 0.12148 0.0
C1941 C 0.45528 0.28811 0.11428 0.0
C1942 C 0.447 0.25235 0.11981 0.0
C1943 C 0.43459 0.29303 0.1173 0.0
C1944 C 0.53134 0.31035 0.1012 0.0
N1945 N 0.51403 0.29871 0.09934 0.0
C1946 C 0.5032 0.31845 0.07024 0.0
C1947 C 0.50029 0.30219 0.08395 0.0
C1948 C 0.52063 0.33093 0.07221 0.0
C1949 C 0.53493 0.32671 0.08776 0.0
H1950 H 0.54249 0.30685 0.11299 0.0
H1951 H 0.48714 0.29221 0.08216 0.0
C1952 C 0.45821 0.28453 0.16592 0.0
N1953 N 0.46534 0.26522 0.1622 0.0
C1954 C 0.44165 0.28764 0.17923 0.0
C1955 C 0.44023 0.25096 0.18497 0.0
C1956 C 0.4568 0.24856 0.17153 0.0
C1957 C 0.43253 0.2707 0.18887 0.0
H1958 H 0.46526 0.29753 0.15845 0.0
H1959 H 0.46284 0.23341 0.16852 0.0
C1960 C 0.53863 0.25829 0.09557 0.0
N1961 N 0.5579 0.27161 0.06017 0.0
C1962 C 0.52897 0.256 0.0765 0.0
C1963 C 0.55813 0.26724 0.09664 0.0
C1964 C 0.53895 0.26287 0.05879 0.0
C1965 C 0.56761 0.2739 0.07856 0.0
C1966 C 0.50253 0.21344 0.14733 0.0
C1967 C 0.52085 0.20272 0.15071 0.0
C1968 C 0.48444 0.20254 0.14332 0.0
C1969 C 0.52078 0.18125 0.14988 0.0
C1970 C 0.48502 0.18109 0.14257 0.0
N1971 N 0.50303 0.17098 0.14583 0.0
C1972 C 0.5472 0.25302 0.18051 0.0
C1973 C 0.56768 0.24285 0.1521 0.0
C1974 C 0.56371 0.25014 0.19394 0.0
N1975 N 0.5495 0.24948 0.16004 0.0
C1976 C 0.58461 0.23972 0.165 0.0
C1977 C 0.58266 0.24348 0.18616 0.0
H1978 H 0.53252 0.2582 0.18636 0.0
H1979 H 0.56899 0.23991 0.13579 0.0
C1980 C 0.47897 0.21331 0.08961 0.0
N1981 N 0.49729 0.21609 0.09931 0.0
C1982 C 0.47578 0.19609 0.07719 0.0
C1983 C 0.51064 0.18529 0.08424 0.0
C1984 C 0.5131 0.20264 0.0967 0.0
C1985 C 0.49172 0.18184 0.07447 0.0
H1986 H 0.46685 0.22448 0.09142 0.0
H1987 H 0.5276 0.20538 0.10437 0.0
O1988 O 0.51114 0.28039 0.14784 0.0
O1989 O 0.48186 0.26249 0.11308 0.0
O1990 O 0.5288 0.25227 0.11313 0.0
O1991 O 0.50241 0.23449 0.1475 0.0
H1992 H 0.4894 0.31353 0.13811 0.0
H1993 H 0.54811 0.2923 0.16015 0.0
H1994 H 0.50198 0.34936 0.14085 0.0
H1995 H 0.55968 0.32851 0.16244 0.0
H1996 H 0.41512 0.24627 0.12631 0.0
H1997 H 0.46627 0.30021 0.11137 0.0
H1998 H 0.45156 0.23645 0.12135 0.0
H1999 H 0.42958 0.30886 0.11648 0.0
H2000 H 0.49208 0.32119 0.05815 0.0
H2001 H 0.54867 0.33596 0.08943 0.0
H2002 H 0.43603 0.30306 0.18201 0.0
H2003 H 0.43351 0.23761 0.19229 0.0
H2004 H 0.51379 0.24926 0.07545 0.0
H2005 H 0.5657 0.26934 0.11131 0.0
H2006 H 0.53161 0.26134 0.04394 0.0
H2007 H 0.58264 0.28099 0.07916 0.0
H2008 H 0.53501 0.21084 0.15376 0.0
H2009 H 0.47016 0.21054 0.14045 0.0
H2010 H 0.53487 0.17277 0.15238 0.0
H2011 H 0.47117 0.17248 0.13928 0.0
H2012 H 0.56176 0.25312 0.21021 0.0
H2013 H 0.59906 0.23447 0.1586 0.0
H2014 H 0.46106 0.19393 0.06968 0.0
H2015 H 0.52328 0.17463 0.08231 0.0
C2016 C 0.24936 0.79773 0.87949 0.0
C2017 C 0.23416 0.78211 0.88041 0.0
C2018 C 0.22211 0.79559 0.91353 0.0
C2019 C 0.23867 0.8098 0.91362 0.0
N2020 N 0.26968 0.82288 0.89808 0.0
N2021 N 0.20761 0.76435 0.8992 0.0
C2022 C 0.25271 0.81051 0.89693 0.0
C2023 C 0.22089 0.78058 0.89766 0.0
N2024 N 0.26023 0.80065 0.86175 0.0
N2025 N 0.20728 0.7968 0.92838 0.0
H2026 H 0.2061 0.75318 0.88779 0.0
H2027 H 0.19922 0.76105 0.91241 0.0
H2028 H 0.20774 0.80753 0.94029 0.0
H2029 H 0.19368 0.78837 0.92798 0.0
H2030 H 0.26993 0.81314 0.85931 0.0
H2031 H 0.25824 0.79152 0.84871 0.0
H2032 H 0.2817 0.82236 0.88753 0.0
H2033 H 0.27258 0.83261 0.9105 0.0
C2034 C 0.03076 0.53684 0.36559 0.0
C2035 C 0.03714 0.53009 0.38534 0.0
C2036 C 0.06783 0.51402 0.37032 0.0
C2037 C 0.0622 0.52203 0.35082 0.0
N2038 N 0.03961 0.54251 0.32976 0.0
N2039 N 0.06217 0.51377 0.40725 0.0
C2040 C 0.04397 0.5338 0.3484 0.0
C2041 C 0.05579 0.51904 0.38791 0.0
N2042 N 0.01191 0.54587 0.36325 0.0
N2043 N 0.08454 0.50133 0.3719 0.0
H2044 H 0.05334 0.51641 0.42037 0.0
H2045 H 0.07664 0.50783 0.41057 0.0
H2046 H 0.09409 0.49789 0.35949 0.0
H2047 H 0.0883 0.49312 0.3851 0.0
H2048 H 1.00524 0.54904 0.34905 0.0
H2049 H 1.00216 0.54909 0.37557 0.0
H2050 H 0.02797 0.55323 0.32743 0.0
H2051 H 0.04847 0.53997 0.31664 0.0
C2052 C 0.7885 0.73384 0.8994 0.0
C2053 C 0.7758 0.73183 0.88175 0.0
C2054 C 0.75816 0.70243 0.89747 0.0
C2055 C 0.77176 0.7036 0.91449 0.0
N2056 N 0.80189 0.71811 0.93048 0.0
N2057 N 0.75085 0.71253 0.8623 0.0
C2058 C 0.78753 0.71866 0.91512 0.0
C2059 C 0.76127 0.71562 0.8803 0.0
N2060 N 0.80104 0.75059 0.90138 0.0
N2061 N 0.74189 0.68912 0.89799 0.0
H2062 H 0.75259 0.72201 0.84948 0.0
H2063 H 0.74175 0.69968 0.85944 0.0
H2064 H 0.7393 0.679 0.91015 0.0
H2065 H 0.7301 0.68913 0.88716 0.0
H2066 H 0.80895 0.75419 0.91483 0.0
H2067 H 0.80238 0.76187 0.89006 0.0
H2068 H 0.81506 0.7272 0.93062 0.0
H2069 H 0.80152 0.70737 0.94238 0.0
C2070 C 0.98306 0.9684 0.3634 0.0
C2071 C 0.98406 0.98396 0.37868 0.0
C2072 C 0.95848 1.00421 0.35976 0.0
C2073 C 0.95597 0.98774 0.34566 0.0
N2074 N 0.96304 0.95256 0.33626 0.0
N2075 N 0.96979 0.01478 0.39363 0.0
C2076 C 0.96746 0.96935 0.3481 0.0
C2077 C 0.97092 1.00135 0.3775 0.0
N2078 N 0.99747 0.9531 0.36304 0.0
N2079 N 0.94959 0.02285 0.35584 0.0
H2080 H 0.97841 0.01304 0.40705 0.0
H2081 H 0.95892 0.0265 0.39452 0.0
H2082 H 0.94062 0.02568 0.34286 0.0
H2083 H 0.95269 0.03601 0.36443 0.0
H2084 H 0.99881 0.94261 0.35101 0.0
H2085 H 0.00932 0.952 0.3738 0.0
H2086 H 0.96941 0.93809 0.33884 0.0
H2087 H 0.95157 0.95257 0.32504 0.0
C2088 C 0.22485 0.23217 0.61441 0.0
C2089 C 0.23814 0.23057 0.63166 0.0
C2090 C 0.25667 0.20225 0.61502 0.0
C2091 C 0.24244 0.20286 0.59848 0.0
N2092 N 0.21094 0.21586 0.58388 0.0
N2093 N 0.26435 0.21204 0.65018 0.0
C2094 C 0.22592 0.21711 0.59859 0.0
C2095 C 0.2534 0.215 0.63248 0.0
N2096 N 0.21168 0.24848 0.61284 0.0
N2097 N 0.27369 0.18997 0.61374 0.0
H2098 H 0.26241 0.22112 0.66326 0.0
H2099 H 0.2741 0.19956 0.65254 0.0
H2100 H 0.27656 0.18031 0.60125 0.0
H2101 H 0.28578 0.19053 0.62421 0.0
H2102 H 0.20326 0.25178 0.59962 0.0
H2103 H 0.21034 0.25976 0.62417 0.0
H2104 H 0.19735 0.22431 0.58439 0.0
H2105 H 0.21125 0.20508 0.57201 0.0
C2106 C 0.47982 0.54124 0.6461 0.0
C2107 C 0.48045 0.52586 0.63062 0.0
C2108 C 0.45459 0.50581 0.64934 0.0
C2109 C 0.45261 0.52206 0.66379 0.0
N2110 N 0.46055 0.55683 0.67392 0.0
N2111 N 0.46578 0.49541 0.61536 0.0
C2112 C 0.46444 0.54025 0.66159 0.0
C2113 C 0.46706 0.50867 0.63163 0.0
N2114 N 0.4944 0.55638 0.64645 0.0
N2115 N 0.44515 0.48738 0.65292 0.0
H2116 H 0.47453 0.49709 0.60203 0.0
H2117 H 0.45474 0.48386 0.61429 0.0
H2118 H 0.43602 0.4846 0.6658 0.0
H2119 H 0.44784 0.47428 0.64411 0.0
H2120 H 0.49607 0.56669 0.65859 0.0
H2121 H 0.50602 0.55757 0.63548 0.0
H2122 H 0.46712 0.57124 0.6716 0.0
H2123 H 0.44934 0.55673 0.68539 0.0
C2124 C 0.79736 0.28009 0.61391 0.0
C2125 C 0.79081 0.28607 0.63384 0.0
C2126 C 0.78554 0.32108 0.62116 0.0
C2127 C 0.78717 0.31393 0.60059 0.0
N2128 N 0.81097 0.29265 0.58185 0.0
N2129 N 0.77793 0.31255 0.65646 0.0
C2130 C 0.79763 0.29493 0.59786 0.0
C2131 C 0.78467 0.30666 0.63747 0.0
N2132 N 0.80352 0.26036 0.61026 0.0
N2133 N 0.78879 0.34134 0.62545 0.0
H2134 H 0.77703 0.30243 0.66887 0.0
H2135 H 0.7716 0.32702 0.65922 0.0
H2136 H 0.79388 0.35156 0.61418 0.0
H2137 H 0.7896 0.3471 0.64039 0.0
H2138 H 0.80643 0.25483 0.5955 0.0
H2139 H 0.80426 0.2492 0.62174 0.0
H2140 H 0.82047 0.27988 0.58005 0.0
H2141 H 0.81479 0.30499 0.57233 0.0
C2142 C 0.53366 0.96481 0.64717 0.0
C2143 C 0.53641 0.97586 0.62857 0.0
C2144 C 0.5638 0.99633 0.64455 0.0
C2145 C 0.56225 0.98407 0.66253 0.0
N2146 N 0.54778 0.95495 0.68027 0.0
N2147 N 0.55556 1.0003 0.60837 0.0
C2148 C 0.54771 0.96785 0.66367 0.0
C2149 C 0.55188 0.99116 0.62694 0.0
N2150 N 0.51726 0.95182 0.64923 0.0
N2151 N 0.57629 0.01325 0.64453 0.0
H2152 H 0.54691 0.99717 0.59522 0.0
H2153 H 0.56809 0.00984 0.60554 0.0
H2154 H 0.58545 0.01735 0.65705 0.0
H2155 H 0.57643 0.02412 0.6328 0.0
H2156 H 0.51306 0.94503 0.66309 0.0
H2157 H 0.50678 0.94905 0.6374 0.0
H2158 H 0.53918 0.94148 0.68102 0.0
H2159 H 0.55766 0.95685 0.69277 0.0
C2160 C 0.8956 0.2113 0.78787 0.0
C2161 C 0.87803 0.22423 0.78845 0.0
C2162 C 0.89514 0.24663 0.81356 0.0
C2163 C 0.91197 0.23275 0.81425 0.0
N2164 N 0.92699 0.20024 0.8047 0.0
N2165 N 0.85953 0.25232 0.80404 0.0
C2166 C 0.91186 0.21461 0.80213 0.0
C2167 C 0.87737 0.2414 0.80192 0.0
N2168 N 0.89702 0.19628 0.77323 0.0
N2169 N 0.89643 0.26511 0.8235 0.0
H2170 H 0.84623 0.24902 0.7957 0.0
H2171 H 0.85736 0.26356 0.81523 0.0
H2172 H 0.90914 0.26944 0.83228 0.0
H2173 H 0.88569 0.27684 0.82172 0.0
H2174 H 0.91036 0.18785 0.77052 0.0
H2175 H 0.8854 0.19335 0.76257 0.0
H2176 H 0.92659 0.18572 0.79799 0.0
H2177 H 0.9392 0.20216 0.81493 0.0
C2178 C 0.4716 0.86138 0.48198 0.0
C2179 C 0.47805 0.88133 0.47597 0.0
C2180 C 0.49182 0.86745 0.44369 0.0
C2181 C 0.48658 0.84734 0.45031 0.0
N2182 N 0.47411 0.82451 0.47667 0.0
N2183 N 0.49685 0.90328 0.45282 0.0
C2184 C 0.47721 0.84412 0.46975 0.0
C2185 C 0.48889 0.88435 0.45728 0.0
N2186 N 0.45958 0.85904 0.49906 0.0
N2187 N 0.49912 0.87042 0.4242 0.0
H2188 H 0.49478 0.91607 0.46228 0.0
H2189 H 0.50681 0.90605 0.44061 0.0
H2190 H 0.50191 0.85836 0.41398 0.0
H2191 H 0.50105 0.88484 0.41757 0.0
H2192 H 0.45242 0.8453 0.50304 0.0
H2193 H 0.45548 0.87127 0.5086 0.0
H2194 H 0.4695 0.82102 0.49159 0.0
H2195 H 0.47758 0.81152 0.46794 0.0
C2196 C 0.13483 0.26857 0.8002 0.0
C2197 C 0.13105 0.27617 0.78009 0.0
C2198 C 0.09404 0.27744 0.78723 0.0
C2199 C 0.09797 0.27123 0.80778 0.0
N2200 N 0.12212 0.26413 0.83499 0.0
N2201 N 0.10781 0.29122 0.75544 0.0
C2202 C 0.1184 0.26772 0.81461 0.0
C2203 C 0.11085 0.28158 0.77388 0.0
N2204 N 0.15398 0.26153 0.80529 0.0
N2205 N 0.07424 0.27873 0.78029 0.0
H2206 H 0.11975 0.29444 0.74523 0.0
H2207 H 0.09381 0.29757 0.751 0.0
H2208 H 0.06151 0.27598 0.78965 0.0
H2209 H 0.07039 0.28092 0.7649 0.0
H2210 H 0.15718 0.2537 0.81888 0.0
H2211 H 0.16644 0.26209 0.79523 0.0
H2212 H 0.13681 0.26368 0.84134 0.0
H2213 H 0.11046 0.26323 0.84595 0.0
C2214 C 0.5224 0.62627 0.45864 0.0
C2215 C 0.52501 0.63034 0.47995 0.0
C2216 C 0.52117 0.66726 0.47338 0.0
C2217 C 0.52077 0.66335 0.45191 0.0
N2218 N 0.52497 0.6394 0.42388 0.0
N2219 N 0.5312 0.65496 0.50703 0.0
C2220 C 0.52252 0.64291 0.44446 0.0
C2221 C 0.52563 0.65093 0.48717 0.0
N2222 N 0.519 0.60662 0.45201 0.0
N2223 N 0.51653 0.68642 0.48068 0.0
H2224 H 0.53504 0.64345 0.51752 0.0
H2225 H 0.53396 0.66975 0.51253 0.0
H2226 H 0.51275 0.69872 0.47112 0.0
H2227 H 0.51448 0.68959 0.49624 0.0
H2228 H 0.51486 0.60305 0.43696 0.0
H2229 H 0.51842 0.59405 0.46194 0.0
H2230 H 0.52848 0.625 0.4178 0.0
H2231 H 0.52541 0.65118 0.41301 0.0
C2232 C 0.90111 0.78209 0.73789 0.0
C2233 C 0.88102 0.77614 0.73181 0.0
C2234 C 0.89375 0.76757 0.69735 0.0
C2235 C 0.91411 0.77165 0.70407 0.0
N2236 N 0.93776 0.78002 0.73138 0.0
N2237 N 0.85836 0.76067 0.70686 0.0
C2238 C 0.91796 0.77818 0.72453 0.0
C2239 C 0.87735 0.76821 0.71181 0.0
N2240 N 0.90398 0.79202 0.75621 0.0
N2241 N 0.89005 0.76363 0.67703 0.0
H2242 H 0.84592 0.76105 0.71698 0.0
H2243 H 0.85529 0.75261 0.69338 0.0
H2244 H 0.9017 0.76287 0.66604 0.0
H2245 H 0.87536 0.76275 0.67073 0.0
H2246 H 0.91785 0.79875 0.76053 0.0
H2247 H 0.89201 0.79509 0.76643 0.0
H2248 H 0.9416 0.78246 0.74673 0.0
H2249 H 0.95051 0.77747 0.722 0.0
C2250 C 0.01587 0.88365 0.54864 0.0
C2251 C 0.02759 0.88062 0.53049 0.0
C2252 C 0.03356 0.84458 0.53991 0.0
C2253 C 0.02264 0.84787 0.55851 0.0
N2254 N 1.00593 0.87086 0.58227 0.0
N2255 N 0.05013 0.85955 0.51 0.0
C2256 C 0.01454 0.86754 0.56338 0.0
C2257 C 0.03719 0.86145 0.52646 0.0
N2258 N 1.00554 0.90174 0.55146 0.0
N2259 N 0.03999 0.82519 0.5349 0.0
H2260 H 0.05281 0.87145 0.4996 0.0
H2261 H 0.05938 0.84675 0.50739 0.0
H2262 H 0.03819 0.8126 0.54467 0.0
H2263 H 0.04593 0.82121 0.52059 0.0
H2264 H 0.99484 0.90414 0.56311 0.0
H2265 H 0.00662 0.91409 0.54129 0.0
H2266 H 1.00177 0.88531 0.58772 0.0
H2267 H 1.00424 0.85929 0.59325 0.0
C2268 C 0.13262 0.75122 0.71341 0.0
C2269 C 0.13194 0.7354 0.72841 0.0
C2270 C 0.0998 0.72247 0.71344 0.0
C2271 C 0.09934 0.7396 0.69995 0.0
N2272 N 0.1137 0.77192 0.68885 0.0
N2273 N 0.11363 0.70759 0.74471 0.0
C2274 C 0.11535 0.75441 0.70036 0.0
C2275 C 0.11521 0.7214 0.72894 0.0
N2276 N 0.15001 0.76283 0.71126 0.0
N2277 N 0.08581 0.70696 0.7111 0.0
H2278 H 0.1246 0.7063 0.75634 0.0
H2279 H 0.10066 0.69856 0.74723 0.0
H2280 H 0.07431 0.70722 0.6999 0.0
H2281 H 0.08666 0.69306 0.71899 0.0
H2282 H 0.1523 0.77309 0.6992 0.0
H2283 H 0.16297 0.76091 0.72053 0.0
H2284 H 0.1237 0.78434 0.69026 0.0
H2285 H 0.10135 0.7748 0.67904 0.0
C2286 C 0.98301 0.62607 0.55593 0.0
C2287 C 0.97793 0.62895 0.5349 0.0
C2288 C 0.98358 0.66605 0.53865 0.0
C2289 C 0.9862 0.66341 0.56016 0.0
N2290 N 0.98499 0.64125 0.58989 0.0
N2291 N 0.97 0.65201 0.50693 0.0
C2292 C 0.98501 0.6435 0.56899 0.0
C2293 C 0.97732 0.64905 0.52641 0.0
N2294 N 0.98655 0.60672 0.56331 0.0
N2295 N 0.98767 0.68466 0.52981 0.0
H2296 H 0.96501 0.64001 0.49754 0.0
H2297 H 0.96713 0.6665 0.50076 0.0
H2298 H 0.99255 0.69741 0.53823 0.0
H2299 H 0.98811 0.68694 0.51397 0.0
H2300 H 0.99239 0.60385 0.57794 0.0
H2301 H 0.98551 0.59359 0.55416 0.0
H2302 H 0.98192 0.62735 0.59721 0.0
H2303 H 0.98621 0.65362 0.60002 0.0
C2304 C 0.79288 0.88345 0.25383 0.0
C2305 C 0.78107 0.88145 0.23557 0.0
C2306 C 0.79948 0.91073 0.22056 0.0
C2307 C 0.80948 0.91418 0.23966 0.0
N2308 N 0.81257 0.90616 0.27578 0.0
N2309 N 0.77032 0.89565 0.203 0.0
C2310 C 0.80532 0.90118 0.25669 0.0
C2311 C 0.78359 0.89578 0.2193 0.0
N2312 N 0.79278 0.86808 0.26816 0.0
N2313 N 0.80562 0.92123 0.20343 0.0
H2314 H 0.75819 0.88524 0.20168 0.0
H2315 H 0.77013 0.90708 0.19178 0.0
H2316 H 0.81746 0.93204 0.20363 0.0
H2317 H 0.80034 0.91781 0.1887 0.0
H2318 H 0.80272 0.86778 0.28073 0.0
H2319 H 0.78423 0.85463 0.26645 0.0
H2320 H 0.8082 0.89842 0.28909 0.0
H2321 H 0.82139 0.91924 0.27863 0.0
C2322 C 0.78072 0.11351 0.29106 0.0
C2323 C 0.78156 0.12987 0.27664 0.0
C2324 C 0.80882 0.11197 0.25769 0.0
C2325 C 0.80917 0.09649 0.27307 0.0
N2326 N 0.79808 0.08422 0.30623 0.0
N2327 N 0.79878 0.14664 0.24843 0.0
C2328 C 0.79586 0.09775 0.2903 0.0
C2329 C 0.79631 0.12966 0.26057 0.0
N2330 N 0.76503 0.11266 0.30501 0.0
N2331 N 0.81987 0.10941 0.24 0.0
H2332 H 0.78996 0.15992 0.25013 0.0
H2333 H 0.81074 0.14826 0.23792 0.0
H2334 H 0.82918 0.09664 0.23727 0.0
H2335 H 0.81848 0.11905 0.22729 0.0
H2336 H 0.76229 0.09999 0.3144 0.0
H2337 H 0.75364 0.12389 0.30605 0.0
H2338 H 0.79036 0.0857 0.32018 0.0
H2339 H 0.80899 0.07247 0.30623 0.0
C2340 C 0.38454 0.96304 0.99297 0.0
C2341 C 0.38312 0.97804 0.97719 0.0
C2342 C 0.3483 0.96623 0.96869 0.0
C2343 C 0.34923 0.95216 0.98533 0.0
N2344 N 0.36663 0.93925 0.01541 0.0
N2345 N 0.3628 0.99639 0.95221 0.0
C2346 C 0.36691 0.95117 0.99809 0.0
C2347 C 0.36473 0.98035 0.96567 0.0
N2348 N 0.40294 0.95968 1.00257 0.0
N2349 N 0.33199 0.96565 0.95542 0.0
H2350 H 0.37457 0.00693 0.94951 0.0
H2351 H 0.34906 1.00026 0.94498 0.0
H2352 H 0.31955 0.95571 0.95731 0.0
H2353 H 0.33146 0.97387 0.9417 0.0
H2354 H 0.40562 0.94743 0.01251 0.0
H2355 H 0.41613 0.96824 0.99944 0.0
H2356 H 0.3781 0.93959 0.02656 0.0
H2357 H 0.35408 0.93015 0.01952 0.0
C2358 C 0.20854 0.37471 0.27486 0.0
C2359 C 0.22969 0.37823 0.27896 0.0
C2360 C 0.22405 0.41543 0.27669 0.0
C2361 C 0.20263 0.41198 0.27432 0.0
N2362 N 0.17391 0.38854 0.27525 0.0
N2363 N 0.25672 0.40185 0.28831 0.0
C2364 C 0.19469 0.39165 0.27461 0.0
C2365 C 0.23719 0.39859 0.28124 0.0
N2366 N 0.20179 0.35531 0.27041 0.0
N2367 N 0.23201 0.43465 0.27375 0.0
H2368 H 0.26671 0.3899 0.29214 0.0
H2369 H 0.26229 0.41632 0.29229 0.0
H2370 H 0.22299 0.44738 0.27004 0.0
H2371 H 0.24773 0.43762 0.27309 0.0
H2372 H 0.18701 0.35216 0.2651 0.0
H2373 H 0.21145 0.34252 0.27031 0.0
H2374 H 0.16726 0.37417 0.27762 0.0
H2375 H 0.1633 0.40057 0.27529 0.0
C2376 C 0.12974 0.04773 0.5008 0.0
C2377 C 0.13177 0.03148 0.48638 0.0
C2378 C 0.16551 0.04471 0.47592 0.0
C2379 C 0.16431 0.05975 0.49168 0.0
N2380 N 0.14666 0.07424 0.52087 0.0
N2381 N 0.15235 0.01273 0.46191 0.0
C2382 C 0.14676 0.06093 0.50459 0.0
C2383 C 0.14986 0.02951 0.47434 0.0
N2384 N 0.11133 0.05084 0.51046 0.0
N2385 N 0.18138 0.04529 0.46214 0.0
H2386 H 0.14111 1.00143 0.46013 0.0
H2387 H 0.16609 0.00916 0.45453 0.0
H2388 H 0.19323 0.05607 0.46297 0.0
H2389 H 0.18201 0.03622 0.44897 0.0
H2390 H 0.10812 0.06369 0.51944 0.0
H2391 H 0.09858 0.04138 0.50818 0.0
H2392 H 0.13538 0.07424 0.53222 0.0
H2393 H 0.15871 0.08436 0.52396 0.0
C2394 C 0.71676 0.13244 0.75333 0.0
C2395 C 0.71498 0.14385 0.7348 0.0
C2396 C 0.68742 0.12062 0.72377 0.0
C2397 C 0.69302 0.10668 0.73956 0.0
N2398 N 0.71288 0.09951 0.77012 0.0
N2399 N 0.6869 0.1564 0.71421 0.0
C2400 C 0.70763 0.11265 0.75461 0.0
C2401 C 0.69694 0.14025 0.72304 0.0
N2402 N 0.72367 0.14188 0.77074 0.0
N2403 N 0.67317 0.11517 0.70935 0.0
H2404 H 0.69148 0.17155 0.71689 0.0
H2405 H 0.67264 0.155 0.70702 0.0
H2406 H 0.66558 0.10104 0.70952 0.0
H2407 H 0.67013 0.12413 0.69641 0.0
H2408 H 0.72358 0.13487 0.78515 0.0
H2409 H 0.72645 0.15768 0.77113 0.0
H2410 H 0.72494 0.10252 0.78025 0.0
H2411 H 0.70619 0.08504 0.77188 0.0
C2412 C 0.36553 0.03286 0.5478 0.0
C2413 C 0.38294 0.03335 0.53465 0.0
C2414 C 0.36521 0.05772 0.51195 0.0
C2415 C 0.34873 0.05881 0.52619 0.0
N2416 N 0.33448 0.05 0.55927 0.0
N2417 N 0.40084 0.04854 0.50596 0.0
C2418 C 0.34922 0.04706 0.54457 0.0
C2419 C 0.38319 0.0464 0.51716 0.0
N2420 N 0.36431 0.01839 0.56299 0.0
N2421 N 0.36345 0.06701 0.49318 0.0
H2422 H 0.41434 0.04056 0.5093 0.0
H2423 H 0.40266 0.0595 0.49444 0.0
H2424 H 0.35052 0.07543 0.4888 0.0
H2425 H 0.37396 0.06492 0.4813 0.0
H2426 H 0.35109 0.01582 0.57163 0.0
H2427 H 0.37591 0.00767 0.56577 0.0
H2428 H 0.33527 0.04358 0.57391 0.0
H2429 H 0.32229 0.06026 0.55749 0.0
C2430 C 0.64867 0.48234 0.5409 0.0
C2431 C 0.63186 0.48175 0.52698 0.0
C2432 C 0.64838 0.45372 0.5079 0.0
C2433 C 0.66437 0.45322 0.52275 0.0
N2434 N 0.67821 0.46461 0.55521 0.0
N2435 N 0.61377 0.46471 0.49945 0.0
C2436 C 0.66408 0.46685 0.53979 0.0
C2437 C 0.63116 0.4668 0.51109 0.0
N2438 N 0.65026 0.49811 0.55472 0.0
N2439 N 0.65 0.44219 0.49038 0.0
H2440 H 0.60084 0.47401 0.50134 0.0
H2441 H 0.61146 0.45267 0.48916 0.0
H2442 H 0.66234 0.43237 0.48751 0.0
H2443 H 0.64001 0.44361 0.47795 0.0
H2444 H 0.66325 0.50068 0.56372 0.0
H2445 H 0.63924 0.50968 0.55605 0.0
H2446 H 0.67749 0.47257 0.56907 0.0
H2447 H 0.68977 0.45349 0.55489 0.0
C2448 C 0.74896 0.29752 0.37924 0.0
C2449 C 0.73579 0.28023 0.381 0.0
C2450 C 0.72552 0.29127 0.4156 0.0
C2451 C 0.74 0.30755 0.4145 0.0
N2452 N 0.76727 0.32506 0.39656 0.0
N2453 N 0.71321 0.25905 0.40134 0.0
C2454 C 0.75219 0.31041 0.39664 0.0
C2455 C 0.72448 0.27668 0.39932 0.0
N2456 N 0.758 0.30186 0.36076 0.0
N2457 N 0.71243 0.29008 0.43201 0.0
H2458 H 0.71166 0.24828 0.38956 0.0
H2459 H 0.70653 0.25434 0.41509 0.0
H2460 H 0.713 0.30028 0.44438 0.0
H2461 H 0.70003 0.28001 0.43273 0.0
H2462 H 0.76595 0.31541 0.35776 0.0
H2463 H 0.75624 0.29256 0.3478 0.0
H2464 H 0.77821 0.32644 0.38498 0.0
H2465 H 0.76982 0.33504 0.40886 0.0
C2466 C 0.53849 0.04607 0.86742 0.0
C2467 C 0.5379 0.03229 0.88431 0.0
C2468 C 0.56082 0.00863 0.86591 0.0
C2469 C 0.56309 0.0234 0.85002 0.0
N2470 N 0.55694 0.05768 0.83723 0.0
N2471 N 0.55101 1.002 0.90124 0.0
C2472 C 0.5527 0.04255 0.85119 0.0
C2473 C 0.54975 0.01396 0.884 0.0
N2474 N 0.52501 0.06218 0.86655 0.0
N2475 N 0.56871 0.98931 0.86345 0.0
H2476 H 0.54321 1.00543 0.91482 0.0
H2477 H 0.56114 0.98969 0.90268 0.0
H2478 H 0.57683 0.98482 0.85037 0.0
H2479 H 0.56566 0.97723 0.87349 0.0
H2480 H 0.52321 0.07144 0.85361 0.0
H2481 H 0.51425 0.06518 0.87805 0.0
H2482 H 0.55154 0.07268 0.83863 0.0
H2483 H 0.56736 0.05579 0.82519 0.0
C2484 C 0.28935 0.23545 0.404 0.0
C2485 C 0.28427 0.22943 0.3836 0.0
C2486 C 0.28636 0.19346 0.39406 0.0
C2487 C 0.28578 0.19939 0.41501 0.0
N2488 N 0.30026 0.22439 0.43801 0.0
N2489 N 0.27637 0.20218 0.35953 0.0
C2490 C 0.29117 0.22008 0.41957 0.0
C2491 C 0.28216 0.20829 0.37876 0.0
N2492 N 0.29222 0.25575 0.40855 0.0
N2493 N 0.29538 0.17544 0.38844 0.0
H2494 H 0.27286 0.21252 0.34778 0.0
H2495 H 0.27333 0.18681 0.35603 0.0
H2496 H 0.30487 0.1675 0.39865 0.0
H2497 H 0.2972 0.17103 0.37312 0.0
H2498 H 0.2935 0.26136 0.42349 0.0
H2499 H 0.29224 0.26726 0.39739 0.0
H2500 H 0.30625 0.23869 0.44192 0.0
H2501 H 0.30395 0.21278 0.44847 0.0
C2502 C 0.47125 0.50207 0.8773 0.0
C2503 C 0.48439 0.48468 0.87833 0.0
C2504 C 0.46756 0.47017 0.84783 0.0
C2505 C 0.45605 0.48857 0.84553 0.0
N2506 N 0.44975 0.52364 0.85588 0.0
N2507 N 0.49766 0.45385 0.8625 0.0
C2508 C 0.45867 0.50499 0.85967 0.0
C2509 C 0.48327 0.46916 0.86301 0.0
N2510 N 0.47027 0.51546 0.89348 0.0
N2511 N 0.46305 0.45342 0.83596 0.0
H2512 H 0.50958 0.4527 0.87318 0.0
H2513 H 0.49891 0.44339 0.85043 0.0
H2514 H 0.4515 0.45348 0.82482 0.0
H2515 H 0.46943 0.43895 0.83843 0.0
H2516 H 0.45941 0.52719 0.89449 0.0
H2517 H 0.47901 0.51369 0.90681 0.0
H2518 H 0.45291 0.53677 0.86449 0.0
H2519 H 0.44066 0.52652 0.84299 0.0
C2520 C 0.72564 0.73239 0.11362 0.0
C2521 C 0.73803 0.73007 0.13144 0.0
C2522 C 0.75579 0.7008 0.1156 0.0
C2523 C 0.74248 0.70229 0.09836 0.0
N2524 N 0.71261 0.7171 0.08217 0.0
N2525 N 0.76247 0.71031 0.15106 0.0
C2526 C 0.72677 0.71741 0.09772 0.0
C2527 C 0.75243 0.71375 0.13291 0.0
N2528 N 0.71328 0.74929 0.11162 0.0
N2529 N 0.77203 0.68746 0.11514 0.0
H2530 H 0.76051 0.71957 0.16401 0.0
H2531 H 0.77146 0.69737 0.15388 0.0
H2532 H 0.77482 0.67754 0.10285 0.0
H2533 H 0.78363 0.68726 0.12617 0.0
H2534 H 0.70564 0.7531 0.09808 0.0
H2535 H 0.71185 0.76046 0.12304 0.0
H2536 H 0.69948 0.72625 0.08199 0.0
H2537 H 0.71308 0.70648 0.07016 0.0
C2538 C 0.98112 0.03962 0.14613 0.0
C2539 C 0.98157 0.02432 0.13056 0.0
C2540 C 0.95551 1.00445 0.14921 0.0
C2541 C 0.95368 0.02065 0.16373 0.0
N2542 N 0.96201 0.05529 0.17402 0.0
N2543 N 0.96653 0.99412 0.11516 0.0
C2544 C 0.96572 0.03873 0.16162 0.0
C2545 C 0.96799 0.00727 0.1315 0.0
N2546 N 0.99587 0.05459 0.14657 0.0
N2547 N 0.94591 0.98609 0.15272 0.0
H2548 H 0.97526 0.99578 0.10182 0.0
H2549 H 0.95535 0.9827 0.11404 0.0
H2550 H 0.93678 0.98333 0.16561 0.0
H2551 H 0.94847 0.973 0.14385 0.0
H2552 H 0.99766 0.06481 0.15876 0.0
H2553 H 0.00751 0.05569 0.13561 0.0
H2554 H 0.96874 0.06964 0.17176 0.0
H2555 H 0.95079 0.05527 0.18547 0.0
C2556 C 0.27268 0.80163 0.1357 0.0
C2557 C 0.28477 0.78365 0.13298 0.0
C2558 C 0.28943 0.79191 0.09644 0.0
C2559 C 0.27657 0.80937 0.09896 0.0
N2560 N 0.25374 0.82967 0.11989 0.0
N2561 N 0.30243 0.75993 0.11068 0.0
C2562 C 0.26754 0.81388 0.1183 0.0
C2563 C 0.29249 0.77827 0.11329 0.0
N2564 N 0.26656 0.80722 0.15503 0.0
N2565 N 0.29915 0.78872 0.07807 0.0
H2566 H 0.30548 0.74986 0.12279 0.0
H2567 H 0.30644 0.75394 0.0964 0.0
H2568 H 0.29677 0.798 0.0652 0.0
H2569 H 0.31055 0.77773 0.07582 0.0
H2570 H 0.2598 0.82129 0.15851 0.0
H2571 H 0.26937 0.79825 0.16802 0.0
H2572 H 0.24485 0.83246 0.13289 0.0
H2573 H 0.25005 0.83932 0.10762 0.0
C2574 C 0.05095 0.49193 0.1283 0.0
C2575 C 0.03583 0.47626 0.12969 0.0
C2576 C 0.04767 0.46763 0.16447 0.0
C2577 C 0.06185 0.48418 0.16359 0.0
N2578 N 0.07492 0.5142 0.14626 0.0
N2579 N 0.01729 0.45147 0.15003 0.0
C2580 C 0.0629 0.49696 0.14594 0.0
C2581 C 0.03346 0.46476 0.14807 0.0
N2582 N 0.05434 0.50153 0.10991 0.0
N2583 N 0.04822 0.45427 0.18068 0.0
H2584 H 0.00667 0.44888 0.13829 0.0
H2585 H 0.01338 0.44429 0.16378 0.0
H2586 H 0.05826 0.45599 0.19308 0.0
H2587 H 0.03991 0.4406 0.18114 0.0
H2588 H 0.06665 0.5114 0.10724 0.0
H2589 H 0.04572 0.49847 0.09673 0.0
H2590 H 0.07466 0.52535 0.13479 0.0
H2591 H 0.08403 0.51825 0.15883 0.0
C2592 C 0.37097 0.72509 0.3155 0.0
C2593 C 0.36763 0.73626 0.29706 0.0
C2594 C 0.39876 0.75626 0.30438 0.0
C2595 C 0.40462 0.74143 0.31929 0.0
N2596 N 0.39595 0.71126 0.33918 0.0
N2597 N 0.36982 0.77182 0.28716 0.0
C2598 C 0.39056 0.72578 0.32502 0.0
C2599 C 0.37912 0.75469 0.29487 0.0
N2600 N 0.35469 0.71673 0.3257 0.0
N2601 N 0.41178 0.77193 0.29934 0.0
H2602 H 0.35405 0.77213 0.28415 0.0
H2603 H 0.37679 0.78624 0.28684 0.0
H2604 H 0.42583 0.77432 0.3067 0.0
H2605 H 0.40906 0.78175 0.28697 0.0
H2606 H 0.35599 0.71002 0.3402 0.0
H2607 H 0.33958 0.7193 0.3209 0.0
H2608 H 0.38675 0.6985 0.34231 0.0
H2609 H 0.41023 0.71105 0.34648 0.0
C2610 C 0.96991 0.36244 0.98149 0.0
C2611 C 0.97833 0.38197 0.97665 0.0
C2612 C 0.99409 0.36779 0.94544 0.0
C2613 C 0.98666 0.34803 0.9509 0.0
N2614 N 0.96986 0.32563 0.97514 0.0
N2615 N 1.00066 0.40301 0.95592 0.0
C2616 C 0.97524 0.34509 0.96925 0.0
C2617 C 0.99107 0.38458 0.95914 0.0
N2618 N 0.95638 0.36063 0.99749 0.0
N2619 N 1.00355 0.37058 0.92687 0.0
H2620 H 0.99846 0.41577 0.96539 0.0
H2621 H 0.01191 0.40533 0.9448 0.0
H2622 H 0.0065 0.35856 0.91667 0.0
H2623 H 0.00724 0.38494 0.92086 0.0
H2624 H 0.94787 0.34742 1.00046 0.0
H2625 H 0.95257 0.37287 0.00712 0.0
H2626 H 0.96353 0.32211 0.9894 0.0
H2627 H 0.97304 0.31264 0.96629 0.0
C2628 C 0.60958 0.78209 0.27214 0.0
C2629 C 0.62975 0.77677 0.27852 0.0
C2630 C 0.61682 0.76822 0.31291 0.0
C2631 C 0.59643 0.77157 0.30588 0.0
N2632 N 0.57292 0.77895 0.27816 0.0
N2633 N 0.65251 0.76224 0.30394 0.0
C2634 C 0.59267 0.7778 0.28531 0.0
C2635 C 0.63338 0.76918 0.29866 0.0
N2636 N 0.60667 0.79175 0.2537 0.0
N2637 N 0.62038 0.76465 0.33332 0.0
H2638 H 0.66508 0.76288 0.294 0.0
H2639 H 0.65563 0.75441 0.31754 0.0
H2640 H 0.60861 0.76369 0.34416 0.0
H2641 H 0.635 0.76432 0.33982 0.0
H2642 H 0.59266 0.79802 0.24913 0.0
H2643 H 0.61869 0.79509 0.24363 0.0
H2644 H 0.56923 0.78114 0.26274 0.0
H2645 H 0.56012 0.77606 0.28737 0.0
C2646 C 0.0221 0.12629 0.95954 0.0
C2647 C 0.02629 0.12973 0.9807 0.0
C2648 C 0.02473 0.16697 0.97503 0.0
C2649 C 0.02252 0.16354 0.95358 0.0
N2650 N 0.02298 0.14001 0.9249 0.0
N2651 N 0.03578 0.15322 0.00781 0.0
C2652 C 0.02231 0.14319 0.94567 0.0
C2653 C 0.02882 0.15006 0.98823 0.0
N2654 N 0.01717 0.107 0.95281 0.0
N2655 N 0.02217 0.18629 0.98291 0.0
H2656 H 0.03927 0.14123 0.01787 0.0
H2657 H 0.03997 0.16763 0.01341 0.0
H2658 H 0.01887 0.19906 0.9738 0.0
H2659 H 0.02142 0.18932 0.99861 0.0
H2660 H 0.01183 0.10396 0.93802 0.0
H2661 H 0.01664 0.09425 0.96251 0.0
H2662 H 0.02505 0.12557 0.9183 0.0
H2663 H 0.02335 0.15199 0.91426 0.0
C2664 C 0.40177 0.28477 0.23672 0.0
C2665 C 0.38188 0.27789 0.23096 0.0
C2666 C 0.39476 0.26878 0.1967 0.0
C2667 C 0.41501 0.27361 0.20324 0.0
N2668 N 0.43844 0.28359 0.2302 0.0
N2669 N 0.35965 0.26098 0.20656 0.0
C2670 C 0.4187 0.28095 0.22345 0.0
C2671 C 0.37839 0.2693 0.2112 0.0
N2672 N 0.40435 0.29544 0.25466 0.0
N2673 N 0.39111 0.26419 0.1765 0.0
H2674 H 0.34724 0.26125 0.2167 0.0
H2675 H 0.35682 0.25244 0.19332 0.0
H2676 H 0.40274 0.26355 0.16549 0.0
H2677 H 0.37643 0.2627 0.17029 0.0
H2678 H 0.418 0.30277 0.25869 0.0
H2679 H 0.39229 0.29853 0.26477 0.0
H2680 H 0.44221 0.28666 0.24546 0.0
H2681 H 0.45126 0.28109 0.2209 0.0
C2682 C 0.51699 0.38405 0.04786 0.0
C2683 C 0.52869 0.38102 0.0297 0.0
C2684 C 0.53484 0.34503 0.03921 0.0
C2685 C 0.52393 0.34833 0.05782 0.0
N2686 N 0.50712 0.3713 0.08153 0.0
N2687 N 0.55125 0.35997 0.0092 0.0
C2688 C 0.51574 0.36797 0.06264 0.0
C2689 C 0.53836 0.36187 0.0257 0.0
N2690 N 0.50661 0.40212 0.05066 0.0
N2691 N 0.54136 0.32565 0.03426 0.0
H2692 H 0.55383 0.37184 0.99874 0.0
H2693 H 0.56055 0.34721 0.00661 0.0
H2694 H 0.53966 0.3131 0.04409 0.0
H2695 H 0.5473 0.32165 0.01996 0.0
H2696 H 0.49592 0.40452 0.06232 0.0
H2697 H 0.50765 0.41445 0.04047 0.0
H2698 H 0.5029 0.38574 0.08695 0.0
H2699 H 0.50547 0.35975 0.09253 0.0
C2700 C 0.61614 0.22197 0.22917 0.0
C2701 C 0.63298 0.23584 0.22872 0.0
C2702 C 0.61653 0.25516 0.20079 0.0
C2703 C 0.60041 0.24047 0.20029 0.0
N2704 N 0.5866 0.20789 0.21126 0.0
N2705 N 0.65124 0.26326 0.21178 0.0
C2706 C 0.60073 0.22326 0.21369 0.0
C2707 C 0.63377 0.25176 0.21383 0.0
N2708 N 0.61447 0.20805 0.24483 0.0
N2709 N 0.61502 0.27274 0.18938 0.0
H2710 H 0.66418 0.2612 0.22104 0.0
H2711 H 0.65361 0.2736 0.19979 0.0
H2712 H 0.6027 0.27576 0.17956 0.0
H2713 H 0.62511 0.28508 0.19085 0.0
H2714 H 0.60144 0.19911 0.24731 0.0
H2715 H 0.62545 0.20659 0.25643 0.0
H2716 H 0.58734 0.19394 0.21906 0.0
H2717 H 0.57509 0.20832 0.20009 0.0
C2718 C 0.47975 0.14868 0.02765 0.0
C2719 C 0.48066 0.12866 0.03628 0.0
C2720 C 0.48765 0.14354 0.07025 0.0
C2721 C 0.48853 0.16341 0.06126 0.0
N2722 N 0.4897 0.18444 0.03074 0.0
N2723 N 0.48961 0.10674 0.06483 0.0
C2724 C 0.48585 0.16585 0.03974 0.0
C2725 C 0.48583 0.126 0.05732 0.0
N2726 N 0.47227 0.15143 0.0082 0.0
N2727 N 0.48772 0.14146 0.09116 0.0
H2728 H 0.4887 0.09354 0.05577 0.0
H2729 H 0.49551 0.10404 0.07947 0.0
H2730 H 0.4888 0.15393 0.10119 0.0
H2731 H 0.48486 0.12757 0.09859 0.0
H2732 H 0.46918 0.16585 1.00196 0.0
H2733 H 0.46735 0.13932 0.99892 0.0
H2734 H 0.49008 0.18658 0.01487 0.0
H2735 H 0.49446 0.19731 0.03904 0.0
C2736 C 0.29319 0.3838 0.75423 0.0
C2737 C 0.2813 0.38179 0.73603 0.0
C2738 C 0.29942 0.41126 0.72103 0.0
C2739 C 0.30948 0.41471 0.7401 0.0
N2740 N 0.3128 0.40658 0.77617 0.0
N2741 N 0.27026 0.39605 0.70357 0.0
C2742 C 0.3055 0.40162 0.75709 0.0
C2743 C 0.28362 0.3962 0.7198 0.0
N2744 N 0.29331 0.36837 0.76848 0.0
N2745 N 0.3054 0.42186 0.70391 0.0
H2746 H 0.2582 0.38558 0.70228 0.0
H2747 H 0.26993 0.40752 0.6924 0.0
H2748 H 0.31718 0.43274 0.70409 0.0
H2749 H 0.30007 0.41844 0.68919 0.0
H2750 H 0.30332 0.36809 0.78099 0.0
H2751 H 0.28487 0.35485 0.76674 0.0
H2752 H 0.30855 0.39875 0.78947 0.0
H2753 H 0.32151 0.41973 0.77904 0.0
C2754 C 0.29561 0.63052 0.76165 0.0
C2755 C 0.28086 0.63064 0.77772 0.0
C2756 C 0.29526 0.59853 0.7913 0.0
C2757 C 0.30855 0.59733 0.77404 0.0
N2758 N 0.3192 0.61038 0.741 0.0
N2759 N 0.26443 0.61335 0.80609 0.0
C2760 C 0.30816 0.61286 0.75871 0.0
C2761 C 0.28009 0.61426 0.79211 0.0
N2762 N 0.29804 0.64753 0.74956 0.0
N2763 N 0.29753 0.58497 0.80719 0.0
H2764 H 0.25303 0.62456 0.80719 0.0
H2765 H 0.26173 0.60065 0.81546 0.0
H2766 H 0.30847 0.57323 0.80714 0.0
H2767 H 0.28983 0.5864 0.82115 0.0
H2768 H 0.30999 0.64921 0.73905 0.0
H2769 H 0.2892 0.6608 0.75131 0.0
H2770 H 0.31778 0.62005 0.72832 0.0
H2771 H 0.32852 0.59763 0.73822 0.0
C2772 C 0.86751 0.47249 0.46302 0.0
C2773 C 0.88251 0.4758 0.47855 0.0
C2774 C 0.86159 0.45591 0.50279 0.0
C2775 C 0.84807 0.45037 0.48655 0.0
N2776 N 0.84059 0.45026 0.45016 0.0
N2777 N 0.89576 0.46724 0.51218 0.0
C2778 C 0.85168 0.45781 0.46635 0.0
C2779 C 0.88009 0.46658 0.49818 0.0
N2780 N 0.86796 0.48384 0.44535 0.0
N2781 N 0.85646 0.45161 0.5227 0.0
H2782 H 0.90979 0.47441 0.50925 0.0
H2783 H 0.89559 0.45896 0.52588 0.0
H2784 H 0.84279 0.44429 0.52677 0.0
H2785 H 0.86475 0.45713 0.53525 0.0
H2786 H 0.85622 0.4835 0.43445 0.0
H2787 H 0.87898 0.49514 0.44255 0.0
H2788 H 0.84406 0.4536 0.43489 0.0
H2789 H 0.82924 0.43907 0.45182 0.0
C2790 C 0.73927 0.90313 0.78167 0.0
C2791 C 0.73232 0.88299 0.77697 0.0
C2792 C 0.69792 0.89652 0.76936 0.0
C2793 C 0.70551 0.91683 0.77187 0.0
N2794 N 0.73408 0.93979 0.77751 0.0
N2795 N 0.70594 0.86056 0.76367 0.0
C2796 C 0.72638 0.92023 0.77729 0.0
C2797 C 0.71185 0.87967 0.77013 0.0
N2798 N 0.75798 0.90585 0.79085 0.0
N2799 N 0.6773 0.89333 0.76679 0.0
H2800 H 0.71566 0.84782 0.76409 0.0
H2801 H 0.69198 0.85765 0.75639 0.0
H2802 H 0.66665 0.9053 0.76613 0.0
H2803 H 0.67053 0.87883 0.76708 0.0
H2804 H 0.76299 0.91991 0.79666 0.0
H2805 H 0.76782 0.89368 0.79437 0.0
H2806 H 0.74967 0.94309 0.77907 0.0
H2807 H 0.72514 0.95273 0.77441 0.0
C2808 C 0.63172 0.5473 0.99927 0.0
C2809 C 0.63344 0.53113 0.98472 0.0
C2810 C 0.66715 0.54416 0.97393 0.0
C2811 C 0.66627 0.5591 0.98981 0.0
N2812 N 0.64911 0.57351 0.01934 0.0
N2813 N 0.65359 0.51237 0.95991 0.0
C2814 C 0.6489 0.56033 1.00295 0.0
C2815 C 0.65137 0.52909 0.97246 0.0
N2816 N 0.61345 0.55052 0.00917 0.0
N2817 N 0.68283 0.54474 0.95994 0.0
H2818 H 0.64225 0.50116 0.95821 0.0
H2819 H 0.66721 0.50874 0.95235 0.0
H2820 H 0.69476 0.55543 0.96066 0.0
H2821 H 0.6832 0.53574 0.9467 0.0
H2822 H 0.61046 0.56334 0.01826 0.0
H2823 H 0.60059 0.54119 0.00695 0.0
H2824 H 0.63797 0.57351 0.03082 0.0
H2825 H 0.66129 0.58349 0.02237 0.0
C2826 C 0.19735 0.63843 0.22529 0.0
C2827 C 0.21547 0.64217 0.2369 0.0
C2828 C 0.20825 0.61125 0.25715 0.0
C2829 C 0.19356 0.60508 0.24225 0.0
N2830 N 0.17347 0.61319 0.21208 0.0
N2831 N 0.2242 0.64075 0.27285 0.0
C2832 C 0.18781 0.61884 0.22635 0.0
C2833 C 0.21734 0.63103 0.25558 0.0
N2834 N 0.18739 0.65445 0.21613 0.0
N2835 N 0.21357 0.59834 0.27282 0.0
H2836 H 0.22673 0.6566 0.27306 0.0
H2837 H 0.2242 0.63392 0.28734 0.0
H2838 H 0.20685 0.58393 0.27487 0.0
H2839 H 0.2257 0.60149 0.28283 0.0
H2840 H 0.17308 0.653 0.20905 0.0
H2841 H 0.19215 0.66962 0.21835 0.0
H2842 H 0.17035 0.62198 0.19905 0.0
H2843 H 0.16589 0.59906 0.21248 0.0
C2844 C 0.88579 0.5501 0.01784 0.0
C2845 C 0.88417 0.53514 0.03363 0.0
C2846 C 0.84923 0.54694 0.04156 0.0
C2847 C 0.85035 0.56096 0.02489 0.0
N2848 N 0.86818 0.57389 0.99511 0.0
N2849 N 0.86351 0.51683 0.05832 0.0
C2850 C 0.86822 0.56196 0.01242 0.0
C2851 C 0.86563 0.53284 0.04487 0.0
N2852 N 0.90433 0.55342 0.00848 0.0
N2853 N 0.83277 0.54756 0.05462 0.0
H2854 H 0.87526 0.50631 0.06127 0.0
H2855 H 0.84966 0.51295 0.06532 0.0
H2856 H 0.82033 0.55748 0.05255 0.0
H2857 H 0.83209 0.5394 0.06837 0.0
H2858 H 0.90714 0.56562 0.99853 0.0
H2859 H 0.91746 0.54486 0.01185 0.0
H2860 H 0.87983 0.5736 0.98415 0.0
H2861 H 0.85567 0.58297 0.99081 0.0
C2862 C 0.12787 0.95893 0.01883 0.0
C2863 C 0.13174 0.97945 0.02518 0.0
C2864 C 0.16881 0.9725 0.02555 0.0
C2865 C 0.16482 0.95155 0.02093 0.0
N2866 N 0.14051 0.92391 0.01653 0.0
N2867 N 0.15538 1.00486 0.03825 0.0
C2868 C 0.14431 0.94449 0.01851 0.0
C2869 C 0.15209 0.98599 0.02959 0.0
N2870 N 0.10861 0.95341 0.01243 0.0
N2871 N 0.18856 0.97969 0.0254 0.0
H2872 H 0.14351 0.01514 0.04153 0.0
H2873 H 0.1696 0.0096 0.04387 0.0
H2874 H 0.20124 0.97032 0.02244 0.0
H2875 H 0.19228 0.99522 0.02641 0.0
H2876 H 0.10532 0.93936 1.00551 0.0
H2877 H 0.09617 0.96354 0.01245 0.0
H2878 H 0.12581 0.9176 0.01695 0.0
H2879 H 0.15216 0.91289 0.0162 0.0
loop_
_geom_bond_atom_site_label_1
_geom_bond_atom_site_label_2
_geom_bond_distance
_geom_bond_site_symmetry_2
_ccdc_geom_bond_type
C0 C1 1.391 . S
C0 C4 1.391 . S
C0 H42 0.948 . S
C1 C0 1.391 . S
C1 C2 1.410 . S
C2 C1 1.410 . S
C2 H58 0.926 1_455 S
C2 C59 1.394 1_556 S
C3 C4 1.391 1_554 S
C3 C7 1.397 . S
C3 C59 1.419 . S
C4 C0 1.391 . S
C4 C3 1.391 1_556 S
C4 C5 1.399 . S
C5 C4 1.399 . S
C5 C8 1.396 1_556 S
C5 C17 1.453 . S
C5 C18 1.684 . S
H6 C30 0.948 . S
C7 C3 1.397 . S
C7 C8 1.394 . S
C7 C26 1.723 . S
C8 C5 1.396 1_554 S
C8 C7 1.394 . S
C8 C38 1.723 . S
H9 C32 0.926 1_556 S
H10 C33 0.948 1_556 S
H11 C39 0.982 1_545 S
H12 C40 0.979 . S
H13 C40 0.980 . S
H14 C40 0.983 . S
H15 C39 0.979 . S
H16 C39 0.977 . S
C17 C5 1.453 . S
C17 H46 0.982 1_556 S
C17 H47 0.979 . S
C17 H48 0.977 . S
C18 C5 1.684 . S
C18 H43 0.979 . S
C18 H44 0.980 . S
C18 H45 0.983 . S
C19 C20 1.391 . S
C19 C24 1.391 . S
C19 H49 0.948 . S
C20 C19 1.391 . S
C20 C21 1.410 . S
C21 C20 1.410 . S
C21 C22 1.394 1_655 S
C21 H50 0.926 1_545 S
C22 C21 1.394 1_455 S
C22 C23 1.419 . S
C22 H51 0.948 1_545 S
C23 C22 1.419 . S
C23 C24 1.391 1_455 S
C23 C27 1.397 . S
C24 C19 1.391 . S
C24 C23 1.391 1_655 S
C24 C25 1.399 . S
C25 C24 1.399 . S
C25 C26 1.396 1_655 S
C25 C28 1.453 . S
C25 C29 1.684 . S
C26 C7 1.723 . S
C26 C25 1.396 1_455 S
C26 C27 1.394 . S
C27 C23 1.397 . S
C27 C26 1.394 . S
C27 C37 1.723 . S
C28 C25 1.453 . S
C28 H52 0.982 1_655 S
C28 H53 0.979 . S
C28 H54 0.977 . S
C29 C25 1.684 . S
C29 H55 0.979 . S
C29 H56 0.980 . S
C29 H57 0.983 . S
C30 H6 0.948 . S
C30 C31 1.391 . S
C30 C35 1.391 . S
C31 C30 1.391 . S
C31 C32 1.410 . S
C32 H9 0.926 1_554 S
C32 C31 1.410 . S
C32 C33 1.394 1_565 S
C33 H10 0.948 1_554 S
C33 C32 1.394 1_545 S
C33 C34 1.419 . S
C34 C33 1.419 . S
C34 C35 1.391 1_545 S
C34 C38 1.397 . S
C35 C30 1.391 . S
C35 C34 1.391 1_565 S
C35 C36 1.399 . S
C36 C35 1.399 . S
C36 C37 1.396 1_565 S
C36 C39 1.453 . S
C36 C40 1.684 . S
C37 C27 1.723 . S
C37 C36 1.396 1_545 S
C37 C38 1.394 . S
C38 C8 1.723 . S
C38 C34 1.397 . S
C38 C37 1.394 . S
C39 H11 0.982 1_565 S
C39 H15 0.979 . S
C39 H16 0.977 . S
C39 C36 1.453 . S
C40 H12 0.979 . S
C40 H13 0.980 . S
C40 H14 0.983 . S
C40 C36 1.684 . S
H41 C59 0.948 1_655 S
H42 C0 0.948 . S
H43 C18 0.979 . S
H44 C18 0.980 . S
H45 C18 0.983 . S
H46 C17 0.982 1_554 S
H47 C17 0.979 . S
H48 C17 0.977 . S
H49 C19 0.948 . S
H50 C21 0.926 1_565 S
H51 C22 0.948 1_565 S
H52 C28 0.982 1_455 S
H53 C28 0.979 . S
H54 C28 0.977 . S
H55 C29 0.979 . S
H56 C29 0.980 . S
H57 C29 0.983 . S
H58 C2 0.926 1_655 S
C59 C2 1.394 1_554 S
C59 C3 1.419 . S
C59 H41 0.948 1_455 S
C60 C61 1.391 . S
C60 C64 1.391 . S
C60 H102 0.948 . S
C61 C60 1.391 . S
C61 C62 1.391 . S
C62 C61 1.391 . S
C62 H118 0.947 . S
C62 C119 1.392 . S
C63 C64 1.391 . S
C63 C67 1.397 . S
C63 C119 1.419 . S
C64 C60 1.391 . S
C64 C63 1.391 . S
C64 C65 1.399 . S
C65 C64 1.399 . S
C65 C68 1.396 . S
C65 C77 1.453 . S
C65 C78 1.684 . S
H66 C90 0.948 . S
C67 C63 1.397 . S
C67 C68 1.394 . S
C67 C86 1.723 . S
C68 C65 1.396 . S
C68 C67 1.394 . S
C68 C98 1.723 . S
H69 C92 0.947 . S
H70 C93 0.948 . S
H71 C99 0.982 . S
H72 C100 0.979 . S
H73 C100 0.980 . S
H74 C100 0.983 . S
H75 C99 0.979 . S
H76 C99 0.977 . S
C77 C65 1.453 . S
C77 H106 0.982 . S
C77 H107 0.979 . S
C77 H108 0.977 . S
C78 C65 1.684 . S
C78 H103 0.979 . S
C78 H104 0.980 . S
C78 H105 0.983 . S
C79 C80 1.391 . S
C79 C84 1.391 . S
C79 H109 0.948 . S
C80 C79 1.391 . S
C80 C81 1.391 . S
C81 C80 1.391 . S
C81 C82 1.392 . S
C81 H110 0.947 . S
C82 C81 1.392 . S
C82 C83 1.419 . S
C82 H111 0.948 . S
C83 C82 1.419 . S
C83 C84 1.391 . S
C83 C87 1.397 . S
C84 C79 1.391 . S
C84 C83 1.391 . S
C84 C85 1.399 . S
C85 C84 1.399 . S
C85 C86 1.396 . S
C85 C88 1.453 . S
C85 C89 1.684 . S
C86 C67 1.723 . S
C86 C85 1.396 . S
C86 C87 1.394 . S
C87 C83 1.397 . S
C87 C86 1.394 . S
C87 C97 1.723 . S
C88 C85 1.453 . S
C88 H112 0.982 . S
C88 H113 0.979 . S
C88 H114 0.977 . S
C89 C85 1.684 . S
C89 H115 0.979 . S
C89 H116 0.980 . S
C89 H117 0.983 . S
C90 H66 0.948 . S
C90 C91 1.391 . S
C90 C95 1.391 . S
C91 C90 1.391 . S
C91 C92 1.391 . S
C92 H69 0.947 . S
C92 C91 1.391 . S
C92 C93 1.392 . S
C93 H70 0.948 . S
C93 C92 1.392 . S
C93 C94 1.419 . S
C94 C93 1.419 . S
C94 C95 1.391 . S
C94 C98 1.397 . S
C95 C90 1.391 . S
C95 C94 1.391 . S
C95 C96 1.399 . S
C96 C95 1.399 . S
C96 C97 1.396 . S
C96 C99 1.453 . S
C96 C100 1.684 . S
C97 C87 1.723 . S
C97 C96 1.396 . S
C97 C98 1.394 . S
C98 C68 1.723 . S
C98 C94 1.397 . S
C98 C97 1.394 . S
C99 H71 0.982 . S
C99 H75 0.979 . S
C99 H76 0.977 . S
C99 C96 1.453 . S
C100 H72 0.979 . S
C100 H73 0.980 . S
C100 H74 0.983 . S
C100 C96 1.684 . S
H101 C119 0.948 . S
H102 C60 0.948 . S
H103 C78 0.979 . S
H104 C78 0.980 . S
H105 C78 0.983 . S
H106 C77 0.982 . S
H107 C77 0.979 . S
H108 C77 0.977 . S
H109 C79 0.948 . S
H110 C81 0.947 . S
H111 C82 0.948 . S
H112 C88 0.982 . S
H113 C88 0.979 . S
H114 C88 0.977 . S
H115 C89 0.979 . S
H116 C89 0.980 . S
H117 C89 0.983 . S
H118 C62 0.947 . S
C119 C62 1.392 . S
C119 C63 1.419 . S
C119 H101 0.948 . S
C120 C121 1.391 . S
C120 C124 1.391 1_556 S
C120 H162 0.948 1_655 S
C121 C120 1.391 . S
C121 C122 1.391 . S
C122 C121 1.391 . S
C122 H178 0.947 . S
C122 C179 1.392 . S
C123 C124 1.401 . S
C123 C127 1.438 . S
C123 C179 1.372 1_554 S
C124 C120 1.391 1_554 S
C124 C123 1.401 . S
C124 C125 1.399 . S
C125 C124 1.399 . S
C125 C128 1.396 . S
C125 C137 1.456 . S
C125 C138 1.684 1_655 S
H126 C150 0.948 . S
C127 C123 1.438 . S
C127 C128 1.394 . S
C127 C146 1.723 . S
C128 C125 1.396 . S
C128 C127 1.394 . S
C128 C158 1.723 . S
H129 C152 0.947 . S
H130 C153 0.948 . S
H131 C159 0.982 . S
H132 C160 0.979 . S
H133 C160 0.980 . S
H134 C160 0.983 . S
H135 C159 0.979 . S
H136 C159 0.977 . S
C137 C125 1.456 . S
C137 H166 1.008 . S
C137 H167 0.963 1_655 S
C137 H168 0.964 1_655 S
C138 C125 1.684 1_455 S
C138 H163 0.979 . S
C138 H164 0.980 . S
C138 H165 0.983 . S
C139 C140 1.391 . S
C139 C144 1.391 . S
C139 H169 0.948 1_554 S
C140 C139 1.391 . S
C140 C141 1.391 . S
C141 C140 1.391 . S
C141 C142 1.392 . S
C141 H170 0.947 . S
C142 C141 1.392 . S
C142 C143 1.419 . S
C142 H171 0.948 . S
C143 C142 1.419 . S
C143 C144 1.391 . S
C143 C147 1.397 . S
C144 C139 1.391 . S
C144 C143 1.391 . S
C144 C145 1.399 . S
C145 C144 1.399 . S
C145 C146 1.396 . S
C145 C148 1.456 . S
C145 C149 1.684 1_554 S
C146 C127 1.723 . S
C146 C145 1.396 . S
C146 C147 1.394 . S
C147 C143 1.397 . S
C147 C146 1.394 . S
C147 C157 1.723 . S
C148 C145 1.456 . S
C148 H172 1.009 . S
C148 H173 0.962 1_554 S
C148 H174 0.964 1_554 S
C149 C145 1.684 1_556 S
C149 H175 0.979 . S
C149 H176 0.980 . S
C149 H177 0.983 . S
C150 H126 0.948 . S
C150 C151 1.391 . S
C150 C155 1.391 1_455 S
C151 C150 1.391 . S
C151 C152 1.391 . S
C152 H129 0.947 . S
C152 C151 1.391 . S
C152 C153 1.392 . S
C153 H130 0.948 . S
C153 C152 1.392 . S
C153 C154 1.372 1_455 S
C154 C153 1.372 1_655 S
C154 C155 1.401 . S
C154 C158 1.437 . S
C155 C150 1.391 1_655 S
C155 C154 1.401 . S
C155 C156 1.399 . S
C156 C155 1.399 . S
C156 C157 1.396 . S
C156 C159 1.453 . S
C156 C160 1.684 . S
C157 C147 1.723 . S
C157 C156 1.396 . S
C157 C158 1.394 . S
C158 C128 1.723 . S
C158 C154 1.437 . S
C158 C157 1.394 . S
C159 H131 0.982 . S
C159 H135 0.979 . S
C159 H136 0.977 . S
C159 C156 1.453 . S
C160 H132 0.979 . S
C160 H133 0.980 . S
C160 H134 0.983 . S
C160 C156 1.684 . S
H161 C179 0.948 . S
H162 C120 0.948 1_455 S
H163 C138 0.979 . S
H164 C138 0.980 . S
H165 C138 0.983 . S
H166 C137 1.008 . S
H167 C137 0.963 1_455 S
H168 C137 0.964 1_455 S
H169 C139 0.948 1_556 S
H170 C141 0.947 . S
H171 C142 0.948 . S
H172 C148 1.009 . S
H173 C148 0.962 1_556 S
H174 C148 0.964 1_556 S
H175 C149 0.979 . S
H176 C149 0.980 . S
H177 C149 0.983 . S
H178 C122 0.947 . S
C179 C122 1.392 . S
C179 C123 1.372 1_556 S
C179 H161 0.948 . S
C180 C181 1.391 . S
C180 C184 1.391 . S
C180 H222 0.948 . S
C181 C180 1.391 . S
C181 C182 1.391 . S
C182 C181 1.391 . S
C182 H238 0.947 . S
C182 C239 1.392 . S
C183 C184 1.391 . S
C183 C187 1.397 . S
C183 C239 1.419 . S
C184 C180 1.391 . S
C184 C183 1.391 . S
C184 C185 1.399 . S
C185 C184 1.399 . S
C185 C188 1.396 . S
C185 C197 1.453 . S
C185 C198 1.684 . S
H186 C210 0.948 . S
C187 C183 1.397 . S
C187 C188 1.394 . S
C187 C206 1.723 . S
C188 C185 1.396 . S
C188 C187 1.394 . S
C188 C218 1.723 . S
H189 C212 0.947 . S
H190 C213 0.948 . S
H191 C219 0.982 . S
H192 C220 0.979 . S
H193 C220 0.980 . S
H194 C220 0.983 . S
H195 C219 0.979 . S
H196 C219 0.977 . S
C197 C185 1.453 . S
C197 H226 0.982 . S
C197 H227 0.979 . S
C197 H228 0.977 . S
C198 C185 1.684 . S
C198 H223 0.979 . S
C198 H224 0.980 . S
C198 H225 0.983 . S
C199 C200 1.391 . S
C199 C204 1.391 . S
C199 H229 0.948 . S
C200 C199 1.391 . S
C200 C201 1.391 . S
C201 C200 1.391 . S
C201 C202 1.392 . S
C201 H230 0.947 . S
C202 C201 1.392 . S
C202 C203 1.419 . S
C202 H231 0.948 . S
C203 C202 1.419 . S
C203 C204 1.391 . S
C203 C207 1.397 . S
C204 C199 1.391 . S
C204 C203 1.391 . S
C204 C205 1.399 . S
C205 C204 1.399 . S
C205 C206 1.396 . S
C205 C208 1.453 . S
C205 C209 1.684 . S
C206 C187 1.723 . S
C206 C205 1.396 . S
C206 C207 1.394 . S
C207 C203 1.397 . S
C207 C206 1.394 . S
C207 C217 1.723 . S
C208 C205 1.453 . S
C208 H232 0.982 . S
C208 H233 0.979 . S
C208 H234 0.977 . S
C209 C205 1.684 . S
C209 H235 0.979 . S
C209 H236 0.980 . S
C209 H237 0.983 . S
C210 H186 0.948 . S
C210 C211 1.391 . S
C210 C215 1.391 . S
C211 C210 1.391 . S
C211 C212 1.391 . S
C212 H189 0.947 . S
C212 C211 1.391 . S
C212 C213 1.392 . S
C213 H190 0.948 . S
C213 C212 1.392 . S
C213 C214 1.419 . S
C214 C213 1.419 . S
C214 C215 1.391 . S
C214 C218 1.397 . S
C215 C210 1.391 . S
C215 C214 1.391 . S
C215 C216 1.399 . S
C216 C215 1.399 . S
C216 C217 1.396 . S
C216 C219 1.453 . S
C216 C220 1.684 . S
C217 C207 1.723 . S
C217 C216 1.396 . S
C217 C218 1.394 . S
C218 C188 1.723 . S
C218 C214 1.397 . S
C218 C217 1.394 . S
C219 H191 0.982 . S
C219 H195 0.979 . S
C219 H196 0.977 . S
C219 C216 1.453 . S
C220 H192 0.979 . S
C220 H193 0.980 . S
C220 H194 0.983 . S
C220 C216 1.684 . S
H221 C239 0.948 . S
H222 C180 0.948 . S
H223 C198 0.979 . S
H224 C198 0.980 . S
H225 C198 0.983 . S
H226 C197 0.982 . S
H227 C197 0.979 . S
H228 C197 0.977 . S
H229 C199 0.948 . S
H230 C201 0.947 . S
H231 C202 0.948 . S
H232 C208 0.982 . S
H233 C208 0.979 . S
H234 C208 0.977 . S
H235 C209 0.979 . S
H236 C209 0.980 . S
H237 C209 0.983 . S
H238 C182 0.947 . S
C239 C182 1.392 . S
C239 C183 1.419 . S
C239 H221 0.948 . S
C240 C241 1.391 . S
C240 C244 1.391 . S
C240 H282 0.948 . S
C241 C240 1.391 . S
C241 C242 1.391 . S
C242 C241 1.391 . S
C242 H298 0.947 1_455 S
C242 C299 1.392 . S
C243 C244 1.391 . S
C243 C247 1.397 . S
C243 C299 1.419 . S
C244 C240 1.391 . S
C244 C243 1.391 . S
C244 C245 1.399 . S
C245 C244 1.399 . S
C245 C248 1.396 . S
C245 C257 1.453 . S
C245 C258 1.684 . S
H246 C270 0.948 . S
C247 C243 1.397 . S
C247 C248 1.394 . S
C247 C266 1.723 . S
C248 C245 1.396 . S
C248 C247 1.394 . S
C248 C278 1.723 . S
H249 C272 0.947 . S
H250 C273 0.948 . S
H251 C279 0.982 . S
H252 C280 0.979 1_565 S
H253 C280 0.980 . S
H254 C280 0.983 . S
H255 C279 0.979 . S
H256 C279 0.977 . S
C257 C245 1.453 . S
C257 H286 0.982 . S
C257 H287 0.979 . S
C257 H288 0.977 . S
C258 C245 1.684 . S
C258 H283 0.979 . S
C258 H284 0.980 . S
C258 H285 0.983 . S
C259 C260 1.391 . S
C259 C264 1.391 . S
C259 H289 0.948 . S
C260 C259 1.391 . S
C260 C261 1.391 . S
C261 C260 1.391 . S
C261 C262 1.392 1_655 S
C261 H290 0.947 1_565 S
C262 C261 1.392 1_455 S
C262 C263 1.419 . S
C262 H291 0.948 1_565 S
C263 C262 1.419 . S
C263 C264 1.391 1_455 S
C263 C267 1.397 . S
C264 C259 1.391 . S
C264 C263 1.391 1_655 S
C264 C265 1.399 . S
C265 C264 1.399 . S
C265 C266 1.396 1_655 S
C265 C268 1.453 . S
C265 C269 1.684 . S
C266 C247 1.723 . S
C266 C265 1.396 1_455 S
C266 C267 1.394 . S
C267 C263 1.397 . S
C267 C266 1.394 . S
C267 C277 1.723 . S
C268 C265 1.453 . S
C268 H292 0.982 . S
C268 H293 0.979 . S
C268 H294 0.977 . S
C269 C265 1.684 . S
C269 H295 0.979 1_655 S
C269 H296 0.980 . S
C269 H297 0.983 . S
C270 H246 0.948 . S
C270 C271 1.391 . S
C270 C275 1.391 . S
C271 C270 1.391 . S
C271 C272 1.391 . S
C272 H249 0.947 . S
C272 C271 1.391 . S
C272 C273 1.392 1_545 S
C273 H250 0.948 . S
C273 C272 1.392 1_565 S
C273 C274 1.419 . S
C274 C273 1.419 . S
C274 C275 1.391 1_565 S
C274 C278 1.397 . S
C275 C270 1.391 . S
C275 C274 1.391 1_545 S
C275 C276 1.399 . S
C276 C275 1.399 . S
C276 C277 1.396 1_545 S
C276 C279 1.453 . S
C276 C280 1.684 . S
C277 C267 1.723 . S
C277 C276 1.396 1_565 S
C277 C278 1.394 . S
C278 C248 1.723 . S
C278 C274 1.397 . S
C278 C277 1.394 . S
C279 H251 0.982 . S
C279 H255 0.979 . S
C279 H256 0.977 . S
C279 C276 1.453 . S
C280 H252 0.979 1_545 S
C280 H253 0.980 . S
C280 H254 0.983 . S
C280 C276 1.684 . S
H281 C299 0.948 1_655 S
H282 C240 0.948 . S
H283 C258 0.979 . S
H284 C258 0.980 . S
H285 C258 0.983 . S
H286 C257 0.982 . S
H287 C257 0.979 . S
H288 C257 0.977 . S
H289 C259 0.948 . S
H290 C261 0.947 1_545 S
H291 C262 0.948 1_545 S
H292 C268 0.982 . S
H293 C268 0.979 . S
H294 C268 0.977 . S
H295 C269 0.979 1_455 S
H296 C269 0.980 . S
H297 C269 0.983 . S
H298 C242 0.947 1_655 S
C299 C242 1.392 . S
C299 C243 1.419 . S
C299 H281 0.948 1_455 S
C300 C301 1.391 . S
C300 C304 1.391 . S
C300 H342 0.948 . S
C301 C300 1.391 . S
C301 C302 1.391 . S
C302 C301 1.391 . S
C302 H358 0.947 . S
C302 C359 1.392 . S
C303 C304 1.391 . S
C303 C307 1.397 . S
C303 C359 1.419 . S
C304 C300 1.391 . S
C304 C303 1.391 . S
C304 C305 1.399 . S
C305 C304 1.399 . S
C305 C308 1.396 . S
C305 C317 1.453 . S
C305 C318 1.684 . S
H306 C330 0.948 . S
C307 C303 1.397 . S
C307 C308 1.394 . S
C307 C326 1.723 . S
C308 C305 1.396 . S
C308 C307 1.394 . S
C308 C338 1.723 . S
H309 C332 0.947 . S
H310 C333 0.948 . S
H311 C339 0.982 . S
H312 C340 0.979 . S
H313 C340 0.980 . S
H314 C340 0.983 . S
H315 C339 0.979 . S
H316 C339 0.977 . S
C317 C305 1.453 . S
C317 H346 0.982 . S
C317 H347 0.979 . S
C317 H348 0.977 . S
C318 C305 1.684 . S
C318 H343 0.979 . S
C318 H344 0.980 . S
C318 H345 0.983 . S
C319 C320 1.391 . S
C319 C324 1.391 . S
C319 H349 0.948 . S
C320 C319 1.391 . S
C320 C321 1.391 . S
C321 C320 1.391 . S
C321 C322 1.392 . S
C321 H350 0.947 . S
C322 C321 1.392 . S
C322 C323 1.419 . S
C322 H351 0.948 . S
C323 C322 1.419 . S
C323 C324 1.391 . S
C323 C327 1.397 . S
C324 C319 1.391 . S
C324 C323 1.391 . S
C324 C325 1.399 . S
C325 C324 1.399 . S
C325 C326 1.396 . S
C325 C328 1.453 . S
C325 C329 1.684 . S
C326 C307 1.723 . S
C326 C325 1.396 . S
C326 C327 1.394 . S
C327 C323 1.397 . S
C327 C326 1.394 . S
C327 C337 1.723 . S
C328 C325 1.453 . S
C328 H352 0.982 . S
C328 H353 0.979 . S
C328 H354 0.977 . S
C329 C325 1.684 . S
C329 H355 0.979 . S
C329 H356 0.980 . S
C329 H357 0.983 . S
C330 H306 0.948 . S
C330 C331 1.391 . S
C330 C335 1.391 . S
C331 C330 1.391 . S
C331 C332 1.391 . S
C332 H309 0.947 . S
C332 C331 1.391 . S
C332 C333 1.392 . S
C333 H310 0.948 . S
C333 C332 1.392 . S
C333 C334 1.419 . S
C334 C333 1.419 . S
C334 C335 1.391 . S
C334 C338 1.397 . S
C335 C330 1.391 . S
C335 C334 1.391 . S
C335 C336 1.399 . S
C336 C335 1.399 . S
C336 C337 1.396 . S
C336 C339 1.453 . S
C336 C340 1.684 . S
C337 C327 1.723 . S
C337 C336 1.396 . S
C337 C338 1.394 . S
C338 C308 1.723 . S
C338 C334 1.397 . S
C338 C337 1.394 . S
C339 H311 0.982 . S
C339 H315 0.979 . S
C339 H316 0.977 . S
C339 C336 1.453 . S
C340 H312 0.979 . S
C340 H313 0.980 . S
C340 H314 0.983 . S
C340 C336 1.684 . S
H341 C359 0.948 . S
H342 C300 0.948 . S
H343 C318 0.979 . S
H344 C318 0.980 . S
H345 C318 0.983 . S
H346 C317 0.982 . S
H347 C317 0.979 . S
H348 C317 0.977 . S
H349 C319 0.948 . S
H350 C321 0.947 . S
H351 C322 0.948 . S
H352 C328 0.982 . S
H353 C328 0.979 . S
H354 C328 0.977 . S
H355 C329 0.979 . S
H356 C329 0.980 . S
H357 C329 0.983 . S
H358 C302 0.947 . S
C359 C302 1.392 . S
C359 C303 1.419 . S
C359 H341 0.948 . S
C360 C361 1.391 . S
C360 C364 1.391 . S
C360 H402 0.948 . S
C361 C360 1.391 . S
C361 C362 1.391 . S
C362 C361 1.391 . S
C362 H418 0.947 . S
C362 C419 1.392 . S
C363 C364 1.391 . S
C363 C367 1.397 . S
C363 C419 1.419 . S
C364 C360 1.391 . S
C364 C363 1.391 . S
C364 C365 1.399 . S
C365 C364 1.399 . S
C365 C368 1.396 . S
C365 C377 1.453 . S
C365 C378 1.684 . S
H366 C390 0.948 1_455 S
C367 C363 1.397 . S
C367 C368 1.394 . S
C367 C386 1.723 . S
C368 C365 1.396 . S
C368 C367 1.394 . S
C368 C398 1.723 . S
H369 C392 0.947 . S
H370 C393 0.948 . S
H371 C399 1.008 . S
H372 C400 0.979 . S
H373 C400 0.980 . S
H374 C400 0.983 . S
H375 C399 0.963 1_455 S
H376 C399 0.964 1_455 S
C377 C365 1.453 . S
C377 H406 0.982 . S
C377 H407 0.979 . S
C377 H408 0.977 . S
C378 C365 1.684 . S
C378 H403 0.979 . S
C378 H404 0.980 . S
C378 H405 0.983 . S
C379 C380 1.391 . S
C379 C384 1.391 1_455 S
C379 H409 0.948 . S
C380 C379 1.391 . S
C380 C381 1.391 . S
C381 C380 1.391 . S
C381 C382 1.392 . S
C381 H410 0.947 . S
C382 C381 1.392 . S
C382 C383 1.372 1_455 S
C382 H411 0.948 . S
C383 C382 1.372 1_655 S
C383 C384 1.401 . S
C383 C387 1.437 . S
C384 C379 1.391 1_655 S
C384 C383 1.401 . S
C384 C385 1.399 . S
C385 C384 1.399 . S
C385 C386 1.396 . S
C385 C388 1.453 . S
C385 C389 1.684 . S
C386 C367 1.723 . S
C386 C385 1.396 . S
C386 C387 1.394 . S
C387 C383 1.437 . S
C387 C386 1.394 . S
C387 C397 1.723 . S
C388 C385 1.453 . S
C388 H412 0.982 . S
C388 H413 0.979 . S
C388 H414 0.977 . S
C389 C385 1.684 . S
C389 H415 0.979 . S
C389 H416 0.980 . S
C389 H417 0.983 . S
C390 H366 0.948 1_655 S
C390 C391 1.391 . S
C390 C395 1.391 . S
C391 C390 1.391 . S
C391 C392 1.391 . S
C392 H369 0.947 . S
C392 C391 1.391 . S
C392 C393 1.392 . S
C393 H370 0.948 . S
C393 C392 1.392 . S
C393 C394 1.419 . S
C394 C393 1.419 . S
C394 C395 1.391 . S
C394 C398 1.397 . S
C395 C390 1.391 . S
C395 C394 1.391 . S
C395 C396 1.399 . S
C396 C395 1.399 . S
C396 C397 1.396 . S
C396 C399 1.456 . S
C396 C400 1.684 1_655 S
C397 C387 1.723 . S
C397 C396 1.396 . S
C397 C398 1.394 . S
C398 C368 1.723 . S
C398 C394 1.397 . S
C398 C397 1.394 . S
C399 H371 1.008 . S
C399 H375 0.963 1_655 S
C399 H376 0.964 1_655 S
C399 C396 1.456 . S
C400 H372 0.979 . S
C400 H373 0.980 . S
C400 H374 0.983 . S
C400 C396 1.684 1_455 S
H401 C419 0.948 . S
H402 C360 0.948 . S
H403 C378 0.979 . S
H404 C378 0.980 . S
H405 C378 0.983 . S
H406 C377 0.982 . S
H407 C377 0.979 . S
H408 C377 0.977 . S
H409 C379 0.948 . S
H410 C381 0.947 . S
H411 C382 0.948 . S
H412 C388 0.982 . S
H413 C388 0.979 . S
H414 C388 0.977 . S
H415 C389 0.979 . S
H416 C389 0.980 . S
H417 C389 0.983 . S
H418 C362 0.947 . S
C419 C362 1.392 . S
C419 C363 1.419 . S
C419 H401 0.948 . S
C420 C421 1.391 . S
C420 C424 1.391 . S
C420 H462 0.948 . S
C421 C420 1.391 . S
C421 C422 1.391 . S
C422 C421 1.391 . S
C422 H478 0.947 . S
C422 C479 1.392 . S
C423 C424 1.391 . S
C423 C427 1.397 . S
C423 C479 1.419 . S
C424 C420 1.391 . S
C424 C423 1.391 . S
C424 C425 1.399 . S
C425 C424 1.399 . S
C425 C428 1.396 . S
C425 C437 1.453 . S
C425 C438 1.684 . S
H426 C450 0.948 . S
C427 C423 1.397 . S
C427 C428 1.394 . S
C427 C446 1.723 . S
C428 C425 1.396 . S
C428 C427 1.394 . S
C428 C458 1.723 . S
H429 C452 0.947 . S
H430 C453 0.948 . S
H431 C459 0.982 . S
H432 C460 0.979 . S
H433 C460 0.980 . S
H434 C460 0.983 . S
H435 C459 0.979 . S
H436 C459 0.977 . S
C437 C425 1.453 . S
C437 H466 0.982 . S
C437 H467 0.979 . S
C437 H468 0.977 . S
C438 C425 1.684 . S
C438 H463 0.979 . S
C438 H464 0.980 . S
C438 H465 0.983 . S
C439 C440 1.391 . S
C439 C444 1.391 . S
C439 H469 0.948 . S
C440 C439 1.391 . S
C440 C441 1.391 . S
C441 C440 1.391 . S
C441 C442 1.392 . S
C441 H470 0.947 . S
C442 C441 1.392 . S
C442 C443 1.419 . S
C442 H471 0.948 . S
C443 C442 1.419 . S
C443 C444 1.391 . S
C443 C447 1.397 . S
C444 C439 1.391 . S
C444 C443 1.391 . S
C444 C445 1.399 . S
C445 C444 1.399 . S
C445 C446 1.396 . S
C445 C448 1.453 . S
C445 C449 1.684 . S
C446 C427 1.723 . S
C446 C445 1.396 . S
C446 C447 1.394 . S
C447 C443 1.397 . S
C447 C446 1.394 . S
C447 C457 1.723 . S
C448 C445 1.453 . S
C448 H472 0.982 . S
C448 H473 0.979 . S
C448 H474 0.977 . S
C449 C445 1.684 . S
C449 H475 0.979 . S
C449 H476 0.980 . S
C449 H477 0.983 . S
C450 H426 0.948 . S
C450 C451 1.391 . S
C450 C455 1.391 . S
C451 C450 1.391 . S
C451 C452 1.391 . S
C452 H429 0.947 . S
C452 C451 1.391 . S
C452 C453 1.392 . S
C453 H430 0.948 . S
C453 C452 1.392 . S
C453 C454 1.419 . S
C454 C453 1.419 . S
C454 C455 1.391 . S
C454 C458 1.397 . S
C455 C450 1.391 . S
C455 C454 1.391 . S
C455 C456 1.399 . S
C456 C455 1.399 . S
C456 C457 1.396 . S
C456 C459 1.453 . S
C456 C460 1.684 . S
C457 C447 1.723 . S
C457 C456 1.396 . S
C457 C458 1.394 . S
C458 C428 1.723 . S
C458 C454 1.397 . S
C458 C457 1.394 . S
C459 H431 0.982 . S
C459 H435 0.979 . S
C459 H436 0.977 . S
C459 C456 1.453 . S
C460 H432 0.979 . S
C460 H433 0.980 . S
C460 H434 0.983 . S
C460 C456 1.684 . S
H461 C479 0.948 . S
H462 C420 0.948 . S
H463 C438 0.979 . S
H464 C438 0.980 . S
H465 C438 0.983 . S
H466 C437 0.982 . S
H467 C437 0.979 . S
H468 C437 0.977 . S
H469 C439 0.948 . S
H470 C441 0.947 . S
H471 C442 0.948 . S
H472 C448 0.982 . S
H473 C448 0.979 . S
H474 C448 0.977 . S
H475 C449 0.979 . S
H476 C449 0.980 . S
H477 C449 0.983 . S
H478 C422 0.947 . S
C479 C422 1.392 . S
C479 C423 1.419 . S
C479 H461 0.948 . S
C480 C481 1.391 . S
C480 C484 1.391 . S
C480 H522 0.948 . S
C481 C480 1.391 . S
C481 C482 1.391 . S
C482 C481 1.391 . S
C482 H538 0.947 . S
C482 C539 1.392 . S
C483 C484 1.391 . S
C483 C487 1.397 . S
C483 C539 1.419 . S
C484 C480 1.391 . S
C484 C483 1.391 . S
C484 C485 1.399 . S
C485 C484 1.399 . S
C485 C488 1.396 . S
C485 C497 1.453 . S
C485 C498 1.684 . S
H486 C510 0.948 . S
C487 C483 1.397 . S
C487 C488 1.394 . S
C487 C506 1.723 . S
C488 C485 1.396 . S
C488 C487 1.394 . S
C488 C518 1.723 . S
H489 C512 0.947 . S
H490 C513 0.948 . S
H491 C519 0.982 . S
H492 C520 0.979 . S
H493 C520 0.980 . S
H494 C520 0.983 . S
H495 C519 0.979 . S
H496 C519 0.977 . S
C497 C485 1.453 . S
C497 H526 0.982 . S
C497 H527 0.979 . S
C497 H528 0.977 . S
C498 C485 1.684 . S
C498 H523 0.979 . S
C498 H524 0.980 . S
C498 H525 0.983 . S
C499 C500 1.391 . S
C499 C504 1.391 . S
C499 H529 0.948 . S
C500 C499 1.391 . S
C500 C501 1.391 . S
C501 C500 1.391 . S
C501 C502 1.392 . S
C501 H530 0.947 . S
C502 C501 1.392 . S
C502 C503 1.419 . S
C502 H531 0.948 . S
C503 C502 1.419 . S
C503 C504 1.391 . S
C503 C507 1.397 . S
C504 C499 1.391 . S
C504 C503 1.391 . S
C504 C505 1.399 . S
C505 C504 1.399 . S
C505 C506 1.396 . S
C505 C508 1.453 . S
C505 C509 1.684 . S
C506 C487 1.723 . S
C506 C505 1.396 . S
C506 C507 1.394 . S
C507 C503 1.397 . S
C507 C506 1.394 . S
C507 C517 1.723 . S
C508 C505 1.453 . S
C508 H532 0.982 . S
C508 H533 0.979 . S
C508 H534 0.977 . S
C509 C505 1.684 . S
C509 H535 0.979 . S
C509 H536 0.980 . S
C509 H537 0.983 . S
C510 H486 0.948 . S
C510 C511 1.391 . S
C510 C515 1.391 . S
C511 C510 1.391 . S
C511 C512 1.391 . S
C512 H489 0.947 . S
C512 C511 1.391 . S
C512 C513 1.392 . S
C513 H490 0.948 . S
C513 C512 1.392 . S
C513 C514 1.419 . S
C514 C513 1.419 . S
C514 C515 1.391 . S
C514 C518 1.397 . S
C515 C510 1.391 . S
C515 C514 1.391 . S
C515 C516 1.399 . S
C516 C515 1.399 . S
C516 C517 1.396 . S
C516 C519 1.453 . S
C516 C520 1.684 . S
C517 C507 1.723 . S
C517 C516 1.396 . S
C517 C518 1.394 . S
C518 C488 1.723 . S
C518 C514 1.397 . S
C518 C517 1.394 . S
C519 H491 0.982 . S
C519 H495 0.979 . S
C519 H496 0.977 . S
C519 C516 1.453 . S
C520 H492 0.979 . S
C520 H493 0.980 . S
C520 H494 0.983 . S
C520 C516 1.684 . S
H521 C539 0.948 . S
H522 C480 0.948 . S
H523 C498 0.979 . S
H524 C498 0.980 . S
H525 C498 0.983 . S
H526 C497 0.982 . S
H527 C497 0.979 . S
H528 C497 0.977 . S
H529 C499 0.948 . S
H530 C501 0.947 . S
H531 C502 0.948 . S
H532 C508 0.982 . S
H533 C508 0.979 . S
H534 C508 0.977 . S
H535 C509 0.979 . S
H536 C509 0.980 . S
H537 C509 0.983 . S
H538 C482 0.947 . S
C539 C482 1.392 . S
C539 C483 1.419 . S
C539 H521 0.948 . S
C540 C541 1.391 . S
C540 C544 1.391 . S
C540 H582 0.948 . S
C541 C540 1.391 . S
C541 C542 1.391 . S
C542 C541 1.391 . S
C542 H598 0.947 . S
C542 C599 1.392 . S
C543 C544 1.391 . S
C543 C547 1.397 . S
C543 C599 1.419 . S
C544 C540 1.391 . S
C544 C543 1.391 . S
C544 C545 1.399 . S
C545 C544 1.399 . S
C545 C548 1.396 . S
C545 C557 1.453 . S
C545 C558 1.684 . S
H546 C570 0.948 1_545 S
C547 C543 1.397 . S
C547 C548 1.394 . S
C547 C566 1.723 . S
C548 C545 1.396 . S
C548 C547 1.394 . S
C548 C578 1.723 . S
H549 C572 0.947 . S
H550 C573 0.948 . S
H551 C579 1.008 . S
H552 C580 0.979 . S
H553 C580 0.980 . S
H554 C580 0.983 . S
H555 C579 0.963 1_545 S
H556 C579 0.964 1_545 S
C557 C545 1.453 . S
C557 H586 0.982 . S
C557 H587 0.979 . S
C557 H588 0.977 . S
C558 C545 1.684 . S
C558 H583 0.979 . S
C558 H584 0.980 . S
C558 H585 0.983 . S
C559 C560 1.391 . S
C559 C564 1.391 1_545 S
C559 H589 0.948 . S
C560 C559 1.391 . S
C560 C561 1.391 . S
C561 C560 1.391 . S
C561 C562 1.392 . S
C561 H590 0.947 . S
C562 C561 1.392 . S
C562 C563 1.372 1_545 S
C562 H591 0.948 . S
C563 C562 1.372 1_565 S
C563 C564 1.401 . S
C563 C567 1.437 . S
C564 C559 1.391 1_565 S
C564 C563 1.401 . S
C564 C565 1.399 . S
C565 C564 1.399 . S
C565 C566 1.396 . S
C565 C568 1.453 . S
C565 C569 1.684 . S
C566 C547 1.723 . S
C566 C565 1.396 . S
C566 C567 1.394 . S
C567 C563 1.437 . S
C567 C566 1.394 . S
C567 C577 1.723 . S
C568 C565 1.453 . S
C568 H592 0.982 . S
C568 H593 0.979 . S
C568 H594 0.977 . S
C569 C565 1.684 . S
C569 H595 0.979 . S
C569 H596 0.980 . S
C569 H597 0.983 . S
C570 H546 0.948 1_565 S
C570 C571 1.391 . S
C570 C575 1.391 . S
C571 C570 1.391 . S
C571 C572 1.391 . S
C572 H549 0.947 . S
C572 C571 1.391 . S
C572 C573 1.392 . S
C573 H550 0.948 . S
C573 C572 1.392 . S
C573 C574 1.419 . S
C574 C573 1.419 . S
C574 C575 1.391 . S
C574 C578 1.397 . S
C575 C570 1.391 . S
C575 C574 1.391 . S
C575 C576 1.399 . S
C576 C575 1.399 . S
C576 C577 1.396 . S
C576 C579 1.456 . S
C576 C580 1.684 1_565 S
C577 C567 1.723 . S
C577 C576 1.396 . S
C577 C578 1.394 . S
C578 C548 1.723 . S
C578 C574 1.397 . S
C578 C577 1.394 . S
C579 H551 1.008 . S
C579 H555 0.963 1_565 S
C579 H556 0.964 1_565 S
C579 C576 1.456 . S
C580 H552 0.979 . S
C580 H553 0.980 . S
C580 H554 0.983 . S
C580 C576 1.684 1_545 S
H581 C599 0.948 . S
H582 C540 0.948 . S
H583 C558 0.979 . S
H584 C558 0.980 . S
H585 C558 0.983 . S
H586 C557 0.982 . S
H587 C557 0.979 . S
H588 C557 0.977 . S
H589 C559 0.948 . S
H590 C561 0.947 . S
H591 C562 0.948 . S
H592 C568 0.982 . S
H593 C568 0.979 . S
H594 C568 0.977 . S
H595 C569 0.979 . S
H596 C569 0.980 . S
H597 C569 0.983 . S
H598 C542 0.947 . S
C599 C542 1.392 . S
C599 C543 1.419 . S
C599 H581 0.948 . S
C600 C601 1.391 . S
C600 C604 1.391 . S
C600 H642 0.948 . S
C601 C600 1.391 . S
C601 C602 1.391 . S
C602 C601 1.391 . S
C602 H658 0.947 . S
C602 C659 1.392 . S
C603 C604 1.391 . S
C603 C607 1.397 . S
C603 C659 1.419 . S
C604 C600 1.391 . S
C604 C603 1.391 . S
C604 C605 1.399 . S
C605 C604 1.399 . S
C605 C608 1.396 . S
C605 C617 1.453 . S
C605 C618 1.684 . S
H606 C630 0.948 . S
C607 C603 1.397 . S
C607 C608 1.394 . S
C607 C626 1.723 . S
C608 C605 1.396 . S
C608 C607 1.394 . S
C608 C638 1.723 . S
H609 C632 0.947 . S
H610 C633 0.948 . S
H611 C639 0.982 . S
H612 C640 0.979 . S
H613 C640 0.980 . S
H614 C640 0.983 . S
H615 C639 0.979 . S
H616 C639 0.977 . S
C617 C605 1.453 . S
C617 H646 0.982 . S
C617 H647 0.979 . S
C617 H648 0.977 . S
C618 C605 1.684 . S
C618 H643 0.979 . S
C618 H644 0.980 . S
C618 H645 0.983 . S
C619 C620 1.391 . S
C619 C624 1.391 . S
C619 H649 0.948 . S
C620 C619 1.391 . S
C620 C621 1.391 . S
C621 C620 1.391 . S
C621 C622 1.392 . S
C621 H650 0.947 . S
C622 C621 1.392 . S
C622 C623 1.419 . S
C622 H651 0.948 . S
C623 C622 1.419 . S
C623 C624 1.391 . S
C623 C627 1.397 . S
C624 C619 1.391 . S
C624 C623 1.391 . S
C624 C625 1.399 . S
C625 C624 1.399 . S
C625 C626 1.396 . S
C625 C628 1.453 . S
C625 C629 1.684 . S
C626 C607 1.723 . S
C626 C625 1.396 . S
C626 C627 1.394 . S
C627 C623 1.397 . S
C627 C626 1.394 . S
C627 C637 1.723 . S
C628 C625 1.453 . S
C628 H652 0.982 . S
C628 H653 0.979 . S
C628 H654 0.977 . S
C629 C625 1.684 . S
C629 H655 0.979 . S
C629 H656 0.980 . S
C629 H657 0.983 . S
C630 H606 0.948 . S
C630 C631 1.391 . S
C630 C635 1.391 . S
C631 C630 1.391 . S
C631 C632 1.391 . S
C632 H609 0.947 . S
C632 C631 1.391 . S
C632 C633 1.392 . S
C633 H610 0.948 . S
C633 C632 1.392 . S
C633 C634 1.419 . S
C634 C633 1.419 . S
C634 C635 1.391 . S
C634 C638 1.397 . S
C635 C630 1.391 . S
C635 C634 1.391 . S
C635 C636 1.399 . S
C636 C635 1.399 . S
C636 C637 1.396 . S
C636 C639 1.453 . S
C636 C640 1.684 . S
C637 C627 1.723 . S
C637 C636 1.396 . S
C637 C638 1.394 . S
C638 C608 1.723 . S
C638 C634 1.397 . S
C638 C637 1.394 . S
C639 H611 0.982 . S
C639 H615 0.979 . S
C639 H616 0.977 . S
C639 C636 1.453 . S
C640 H612 0.979 . S
C640 H613 0.980 . S
C640 H614 0.983 . S
C640 C636 1.684 . S
H641 C659 0.948 . S
H642 C600 0.948 . S
H643 C618 0.979 . S
H644 C618 0.980 . S
H645 C618 0.983 . S
H646 C617 0.982 . S
H647 C617 0.979 . S
H648 C617 0.977 . S
H649 C619 0.948 . S
H650 C621 0.947 . S
H651 C622 0.948 . S
H652 C628 0.982 . S
H653 C628 0.979 . S
H654 C628 0.977 . S
H655 C629 0.979 . S
H656 C629 0.980 . S
H657 C629 0.983 . S
H658 C602 0.947 . S
C659 C602 1.392 . S
C659 C603 1.419 . S
C659 H641 0.948 . S
C660 C661 1.391 . S
C660 C664 1.391 . S
C660 H702 0.948 . S
C661 C660 1.391 . S
C661 C662 1.391 . S
C662 C661 1.391 . S
C662 H718 0.947 . S
C662 C719 1.392 . S
C663 C664 1.391 . S
C663 C667 1.397 . S
C663 C719 1.419 . S
C664 C660 1.391 . S
C664 C663 1.391 . S
C664 C665 1.399 . S
C665 C664 1.399 . S
C665 C668 1.396 . S
C665 C677 1.453 . S
C665 C678 1.684 . S
H666 C690 0.948 . S
C667 C663 1.397 . S
C667 C668 1.394 . S
C667 C686 1.723 . S
C668 C665 1.396 . S
C668 C667 1.394 . S
C668 C698 1.723 . S
H669 C692 0.947 . S
H670 C693 0.948 . S
H671 C699 0.982 . S
H672 C700 0.979 . S
H673 C700 0.980 . S
H674 C700 0.983 . S
H675 C699 0.979 . S
H676 C699 0.977 . S
C677 C665 1.453 . S
C677 H706 0.982 . S
C677 H707 0.979 . S
C677 H708 0.977 . S
C678 C665 1.684 . S
C678 H703 0.979 . S
C678 H704 0.980 . S
C678 H705 0.983 . S
C679 C680 1.391 . S
C679 C684 1.391 . S
C679 H709 0.948 . S
C680 C679 1.391 . S
C680 C681 1.391 . S
C681 C680 1.391 . S
C681 C682 1.392 . S
C681 H710 0.947 . S
C682 C681 1.392 . S
C682 C683 1.419 . S
C682 H711 0.948 . S
C683 C682 1.419 . S
C683 C684 1.391 . S
C683 C687 1.397 . S
C684 C679 1.391 . S
C684 C683 1.391 . S
C684 C685 1.399 . S
C685 C684 1.399 . S
C685 C686 1.396 . S
C685 C688 1.453 . S
C685 C689 1.684 . S
C686 C667 1.723 . S
C686 C685 1.396 . S
C686 C687 1.394 . S
C687 C683 1.397 . S
C687 C686 1.394 . S
C687 C697 1.723 . S
C688 C685 1.453 . S
C688 H712 0.982 . S
C688 H713 0.979 . S
C688 H714 0.977 . S
C689 C685 1.684 . S
C689 H715 0.979 . S
C689 H716 0.980 . S
C689 H717 0.983 . S
C690 H666 0.948 . S
C690 C691 1.391 . S
C690 C695 1.391 . S
C691 C690 1.391 . S
C691 C692 1.391 . S
C692 H669 0.947 . S
C692 C691 1.391 . S
C692 C693 1.392 . S
C693 H670 0.948 . S
C693 C692 1.392 . S
C693 C694 1.419 . S
C694 C693 1.419 . S
C694 C695 1.391 . S
C694 C698 1.397 . S
C695 C690 1.391 . S
C695 C694 1.391 . S
C695 C696 1.399 . S
C696 C695 1.399 . S
C696 C697 1.396 . S
C696 C699 1.453 . S
C696 C700 1.684 . S
C697 C687 1.723 . S
C697 C696 1.396 . S
C697 C698 1.394 . S
C698 C668 1.723 . S
C698 C694 1.397 . S
C698 C697 1.394 . S
C699 H671 0.982 . S
C699 H675 0.979 . S
C699 H676 0.977 . S
C699 C696 1.453 . S
C700 H672 0.979 . S
C700 H673 0.980 . S
C700 H674 0.983 . S
C700 C696 1.684 . S
H701 C719 0.948 . S
H702 C660 0.948 . S
H703 C678 0.979 . S
H704 C678 0.980 . S
H705 C678 0.983 . S
H706 C677 0.982 . S
H707 C677 0.979 . S
H708 C677 0.977 . S
H709 C679 0.948 . S
H710 C681 0.947 . S
H711 C682 0.948 . S
H712 C688 0.982 . S
H713 C688 0.979 . S
H714 C688 0.977 . S
H715 C689 0.979 . S
H716 C689 0.980 . S
H717 C689 0.983 . S
H718 C662 0.947 . S
C719 C662 1.392 . S
C719 C663 1.419 . S
C719 H701 0.948 . S
C720 C721 1.391 . S
C720 C724 1.391 . S
C720 H762 0.948 . S
C721 C720 1.391 . S
C721 C722 1.391 . S
C722 C721 1.391 . S
C722 H778 0.947 . S
C722 C779 1.392 . S
C723 C724 1.391 . S
C723 C727 1.397 . S
C723 C779 1.419 . S
C724 C720 1.391 . S
C724 C723 1.391 . S
C724 C725 1.399 . S
C725 C724 1.399 . S
C725 C728 1.396 . S
C725 C737 1.453 . S
C725 C738 1.684 . S
H726 C750 0.948 . S
C727 C723 1.397 . S
C727 C728 1.394 . S
C727 C746 1.723 . S
C728 C725 1.396 . S
C728 C727 1.394 . S
C728 C758 1.723 . S
H729 C752 0.947 . S
H730 C753 0.948 . S
H731 C759 0.982 . S
H732 C760 0.979 . S
H733 C760 0.980 . S
H734 C760 0.983 . S
H735 C759 0.979 . S
H736 C759 0.977 . S
C737 C725 1.453 . S
C737 H766 0.982 . S
C737 H767 0.979 . S
C737 H768 0.977 . S
C738 C725 1.684 . S
C738 H763 0.979 . S
C738 H764 0.980 . S
C738 H765 0.983 . S
C739 C740 1.391 . S
C739 C744 1.391 . S
C739 H769 0.948 . S
C740 C739 1.391 . S
C740 C741 1.391 . S
C741 C740 1.391 . S
C741 C742 1.392 . S
C741 H770 0.947 . S
C742 C741 1.392 . S
C742 C743 1.419 . S
C742 H771 0.948 . S
C743 C742 1.419 . S
C743 C744 1.391 . S
C743 C747 1.397 . S
C744 C739 1.391 . S
C744 C743 1.391 . S
C744 C745 1.399 . S
C745 C744 1.399 . S
C745 C746 1.396 . S
C745 C748 1.453 . S
C745 C749 1.684 . S
C746 C727 1.723 . S
C746 C745 1.396 . S
C746 C747 1.394 . S
C747 C743 1.397 . S
C747 C746 1.394 . S
C747 C757 1.723 . S
C748 C745 1.453 . S
C748 H772 0.982 . S
C748 H773 0.979 . S
C748 H774 0.977 . S
C749 C745 1.684 . S
C749 H775 0.979 . S
C749 H776 0.980 . S
C749 H777 0.983 . S
C750 H726 0.948 . S
C750 C751 1.391 . S
C750 C755 1.391 . S
C751 C750 1.391 . S
C751 C752 1.391 . S
C752 H729 0.947 . S
C752 C751 1.391 . S
C752 C753 1.392 . S
C753 H730 0.948 . S
C753 C752 1.392 . S
C753 C754 1.419 . S
C754 C753 1.419 . S
C754 C755 1.391 . S
C754 C758 1.397 . S
C755 C750 1.391 . S
C755 C754 1.391 . S
C755 C756 1.399 . S
C756 C755 1.399 . S
C756 C757 1.396 . S
C756 C759 1.453 . S
C756 C760 1.684 . S
C757 C747 1.723 . S
C757 C756 1.396 . S
C757 C758 1.394 . S
C758 C728 1.723 . S
C758 C754 1.397 . S
C758 C757 1.394 . S
C759 H731 0.982 . S
C759 H735 0.979 . S
C759 H736 0.977 . S
C759 C756 1.453 . S
C760 H732 0.979 . S
C760 H733 0.980 . S
C760 H734 0.983 . S
C760 C756 1.684 . S
H761 C779 0.948 . S
H762 C720 0.948 . S
H763 C738 0.979 . S
H764 C738 0.980 . S
H765 C738 0.983 . S
H766 C737 0.982 . S
H767 C737 0.979 . S
H768 C737 0.977 . S
H769 C739 0.948 . S
H770 C741 0.947 . S
H771 C742 0.948 . S
H772 C748 0.982 . S
H773 C748 0.979 . S
H774 C748 0.977 . S
H775 C749 0.979 . S
H776 C749 0.980 . S
H777 C749 0.983 . S
H778 C722 0.947 . S
C779 C722 1.392 . S
C779 C723 1.419 . S
C779 H761 0.948 . S
C780 C781 1.391 . S
C780 C784 1.391 . S
C780 H822 0.948 . S
C781 C780 1.391 . S
C781 C782 1.391 . S
C782 C781 1.391 . S
C782 H838 0.947 . S
C782 C839 1.392 1_554 S
C783 C784 1.391 1_556 S
C783 C787 1.397 . S
C783 C839 1.419 . S
C784 C780 1.391 . S
C784 C783 1.391 1_554 S
C784 C785 1.399 . S
C785 C784 1.399 . S
C785 C788 1.396 1_554 S
C785 C797 1.453 . S
C785 C798 1.684 . S
H786 C810 0.948 . S
C787 C783 1.397 . S
C787 C788 1.394 . S
C787 C806 1.723 . S
C788 C785 1.396 1_556 S
C788 C787 1.394 . S
C788 C818 1.723 . S
H789 C812 0.947 1_554 S
H790 C813 0.948 1_554 S
H791 C819 0.982 . S
H792 C820 0.979 . S
H793 C820 0.980 . S
H794 C820 0.983 . S
H795 C819 0.979 . S
H796 C819 0.977 . S
C797 C785 1.453 . S
C797 H826 0.982 . S
C797 H827 0.979 . S
C797 H828 0.977 . S
C798 C785 1.684 . S
C798 H823 0.979 1_554 S
C798 H824 0.980 . S
C798 H825 0.983 . S
C799 C800 1.391 . S
C799 C804 1.391 . S
C799 H829 0.948 . S
C800 C799 1.391 . S
C800 C801 1.391 . S
C801 C800 1.391 . S
C801 C802 1.392 . S
C801 H830 0.947 . S
C802 C801 1.392 . S
C802 C803 1.419 . S
C802 H831 0.948 . S
C803 C802 1.419 . S
C803 C804 1.391 . S
C803 C807 1.397 . S
C804 C799 1.391 . S
C804 C803 1.391 . S
C804 C805 1.399 . S
C805 C804 1.399 . S
C805 C806 1.396 . S
C805 C808 1.453 . S
C805 C809 1.684 . S
C806 C787 1.723 . S
C806 C805 1.396 . S
C806 C807 1.394 . S
C807 C803 1.397 . S
C807 C806 1.394 . S
C807 C817 1.723 . S
C808 C805 1.453 . S
C808 H832 0.982 . S
C808 H833 0.979 . S
C808 H834 0.977 . S
C809 C805 1.684 . S
C809 H835 0.979 . S
C809 H836 0.980 . S
C809 H837 0.983 . S
C810 H786 0.948 . S
C810 C811 1.391 . S
C810 C815 1.391 . S
C811 C810 1.391 . S
C811 C812 1.391 . S
C812 H789 0.947 1_556 S
C812 C811 1.391 . S
C812 C813 1.392 . S
C813 H790 0.948 1_556 S
C813 C812 1.392 . S
C813 C814 1.419 . S
C814 C813 1.419 . S
C814 C815 1.391 . S
C814 C818 1.397 . S
C815 C810 1.391 . S
C815 C814 1.391 . S
C815 C816 1.399 . S
C816 C815 1.399 . S
C816 C817 1.396 . S
C816 C819 1.453 . S
C816 C820 1.684 . S
C817 C807 1.723 . S
C817 C816 1.396 . S
C817 C818 1.394 . S
C818 C788 1.723 . S
C818 C814 1.397 . S
C818 C817 1.394 . S
C819 H791 0.982 . S
C819 H795 0.979 . S
C819 H796 0.977 . S
C819 C816 1.453 . S
C820 H792 0.979 . S
C820 H793 0.980 . S
C820 H794 0.983 . S
C820 C816 1.684 . S
H821 C839 0.948 . S
H822 C780 0.948 . S
H823 C798 0.979 1_556 S
H824 C798 0.980 . S
H825 C798 0.983 . S
H826 C797 0.982 . S
H827 C797 0.979 . S
H828 C797 0.977 . S
H829 C799 0.948 . S
H830 C801 0.947 . S
H831 C802 0.948 . S
H832 C808 0.982 . S
H833 C808 0.979 . S
H834 C808 0.977 . S
H835 C809 0.979 . S
H836 C809 0.980 . S
H837 C809 0.983 . S
H838 C782 0.947 . S
C839 C782 1.392 1_556 S
C839 C783 1.419 . S
C839 H821 0.948 . S
C840 C841 1.391 . S
C840 C844 1.391 . S
C840 H882 0.948 . S
C841 C840 1.391 . S
C841 C842 1.391 . S
C842 C841 1.391 . S
C842 H898 0.947 . S
C842 C899 1.392 . S
C843 C844 1.391 . S
C843 C847 1.397 . S
C843 C899 1.419 . S
C844 C840 1.391 . S
C844 C843 1.391 . S
C844 C845 1.399 . S
C845 C844 1.399 . S
C845 C848 1.396 . S
C845 C857 1.453 . S
C845 C858 1.684 . S
H846 C870 0.948 . S
C847 C843 1.397 . S
C847 C848 1.394 . S
C847 C866 1.723 . S
C848 C845 1.396 . S
C848 C847 1.394 . S
C848 C878 1.723 . S
H849 C872 0.947 . S
H850 C873 0.948 . S
H851 C879 0.982 . S
H852 C880 0.979 . S
H853 C880 0.980 . S
H854 C880 0.983 . S
H855 C879 0.979 . S
H856 C879 0.977 . S
C857 C845 1.453 . S
C857 H886 0.982 . S
C857 H887 0.979 . S
C857 H888 0.977 . S
C858 C845 1.684 . S
C858 H883 0.979 . S
C858 H884 0.980 . S
C858 H885 0.983 . S
C859 C860 1.391 . S
C859 C864 1.391 . S
C859 H889 0.948 . S
C860 C859 1.391 . S
C860 C861 1.391 . S
C861 C860 1.391 . S
C861 C862 1.392 . S
C861 H890 0.947 . S
C862 C861 1.392 . S
C862 C863 1.419 . S
C862 H891 0.948 . S
C863 C862 1.419 . S
C863 C864 1.391 . S
C863 C867 1.397 . S
C864 C859 1.391 . S
C864 C863 1.391 . S
C864 C865 1.399 . S
C865 C864 1.399 . S
C865 C866 1.396 . S
C865 C868 1.453 . S
C865 C869 1.684 . S
C866 C847 1.723 . S
C866 C865 1.396 . S
C866 C867 1.394 . S
C867 C863 1.397 . S
C867 C866 1.394 . S
C867 C877 1.723 . S
C868 C865 1.453 . S
C868 H892 0.982 . S
C868 H893 0.979 . S
C868 H894 0.977 . S
C869 C865 1.684 . S
C869 H895 0.979 . S
C869 H896 0.980 . S
C869 H897 0.983 . S
C870 H846 0.948 . S
C870 C871 1.391 . S
C870 C875 1.391 . S
C871 C870 1.391 . S
C871 C872 1.391 . S
C872 H849 0.947 . S
C872 C871 1.391 . S
C872 C873 1.392 . S
C873 H850 0.948 . S
C873 C872 1.392 . S
C873 C874 1.419 . S
C874 C873 1.419 . S
C874 C875 1.391 . S
C874 C878 1.397 . S
C875 C870 1.391 . S
C875 C874 1.391 . S
C875 C876 1.399 . S
C876 C875 1.399 . S
C876 C877 1.396 . S
C876 C879 1.453 . S
C876 C880 1.684 . S
C877 C867 1.723 . S
C877 C876 1.396 . S
C877 C878 1.394 . S
C878 C848 1.723 . S
C878 C874 1.397 . S
C878 C877 1.394 . S
C879 H851 0.982 . S
C879 H855 0.979 . S
C879 H856 0.977 . S
C879 C876 1.453 . S
C880 H852 0.979 . S
C880 H853 0.980 . S
C880 H854 0.983 . S
C880 C876 1.684 . S
H881 C899 0.948 . S
H882 C840 0.948 . S
H883 C858 0.979 . S
H884 C858 0.980 . S
H885 C858 0.983 . S
H886 C857 0.982 . S
H887 C857 0.979 . S
H888 C857 0.977 . S
H889 C859 0.948 . S
H890 C861 0.947 . S
H891 C862 0.948 . S
H892 C868 0.982 . S
H893 C868 0.979 . S
H894 C868 0.977 . S
H895 C869 0.979 . S
H896 C869 0.980 . S
H897 C869 0.983 . S
H898 C842 0.947 . S
C899 C842 1.392 . S
C899 C843 1.419 . S
C899 H881 0.948 . S
C900 C901 1.391 . S
C900 C904 1.391 1_565 S
C900 H942 0.948 1_556 S
C901 C900 1.391 . S
C901 C902 1.391 . S
C902 C901 1.391 . S
C902 H958 0.947 . S
C902 C959 1.392 . S
C903 C904 1.401 . S
C903 C907 1.438 . S
C903 C959 1.372 1_545 S
C904 C900 1.391 1_545 S
C904 C903 1.401 . S
C904 C905 1.399 . S
C905 C904 1.399 . S
C905 C908 1.396 . S
C905 C917 1.456 . S
C905 C918 1.684 1_556 S
H906 C930 0.948 . S
C907 C903 1.438 . S
C907 C908 1.394 . S
C907 C926 1.723 . S
C908 C905 1.396 . S
C908 C907 1.394 . S
C908 C938 1.723 . S
H909 C932 0.947 . S
H910 C933 0.948 . S
H911 C939 0.982 . S
H912 C940 0.979 . S
H913 C940 0.980 . S
H914 C940 0.983 . S
H915 C939 0.979 . S
H916 C939 0.977 . S
C917 C905 1.456 . S
C917 H946 1.008 . S
C917 H947 0.963 1_556 S
C917 H948 0.964 1_556 S
C918 C905 1.684 1_554 S
C918 H943 0.979 . S
C918 H944 0.980 . S
C918 H945 0.983 . S
C919 C920 1.391 . S
C919 C924 1.391 . S
C919 H949 0.948 1_545 S
C920 C919 1.391 . S
C920 C921 1.391 . S
C921 C920 1.391 . S
C921 C922 1.392 . S
C921 H950 0.947 . S
C922 C921 1.392 . S
C922 C923 1.419 . S
C922 H951 0.948 . S
C923 C922 1.419 . S
C923 C924 1.391 . S
C923 C927 1.397 . S
C924 C919 1.391 . S
C924 C923 1.391 . S
C924 C925 1.399 . S
C925 C924 1.399 . S
C925 C926 1.396 . S
C925 C928 1.456 . S
C925 C929 1.684 1_545 S
C926 C907 1.723 . S
C926 C925 1.396 . S
C926 C927 1.394 . S
C927 C923 1.397 . S
C927 C926 1.394 . S
C927 C937 1.723 . S
C928 C925 1.456 . S
C928 H952 1.009 . S
C928 H953 0.962 1_545 S
C928 H954 0.964 1_545 S
C929 C925 1.684 1_565 S
C929 H955 0.979 . S
C929 H956 0.980 . S
C929 H957 0.983 . S
C930 H906 0.948 . S
C930 C931 1.391 . S
C930 C935 1.391 1_554 S
C931 C930 1.391 . S
C931 C932 1.391 . S
C932 H909 0.947 . S
C932 C931 1.391 . S
C932 C933 1.392 . S
C933 H910 0.948 . S
C933 C932 1.392 . S
C933 C934 1.372 1_554 S
C934 C933 1.372 1_556 S
C934 C935 1.401 . S
C934 C938 1.437 . S
C935 C930 1.391 1_556 S
C935 C934 1.401 . S
C935 C936 1.399 . S
C936 C935 1.399 . S
C936 C937 1.396 . S
C936 C939 1.453 . S
C936 C940 1.684 . S
C937 C927 1.723 . S
C937 C936 1.396 . S
C937 C938 1.394 . S
C938 C908 1.723 . S
C938 C934 1.437 . S
C938 C937 1.394 . S
C939 H911 0.982 . S
C939 H915 0.979 . S
C939 H916 0.977 . S
C939 C936 1.453 . S
C940 H912 0.979 . S
C940 H913 0.980 . S
C940 H914 0.983 . S
C940 C936 1.684 . S
H941 C959 0.948 . S
H942 C900 0.948 1_554 S
H943 C918 0.979 . S
H944 C918 0.980 . S
H945 C918 0.983 . S
H946 C917 1.008 . S
H947 C917 0.963 1_554 S
H948 C917 0.964 1_554 S
H949 C919 0.948 1_565 S
H950 C921 0.947 . S
H951 C922 0.948 . S
H952 C928 1.009 . S
H953 C928 0.962 1_565 S
H954 C928 0.964 1_565 S
H955 C929 0.979 . S
H956 C929 0.980 . S
H957 C929 0.983 . S
H958 C902 0.947 . S
C959 C902 1.392 . S
C959 C903 1.372 1_565 S
C959 H941 0.948 . S
Li960 N977 1.990 . S
Li960 O1020 1.956 . S
Li960 O1021 1.970 1_556 S
Li960 O1022 1.961 . S
Li961 N985 1.990 . S
Li961 O1020 1.970 1_554 S
Li961 O1021 1.956 . S
Li961 O1023 1.961 . S
Li962 N1007 1.990 . S
Li962 O1020 1.961 . S
Li962 O1022 1.956 . S
Li962 O1023 1.970 1_556 S
Li963 N1013 1.990 . S
Li963 O1021 1.961 . S
Li963 O1022 1.970 1_554 S
Li963 O1023 1.956 . S
C964 C966 1.348 1_556 S
C964 C967 1.356 . S
C964 O1020 1.325 . S
N965 C968 1.314 1_556 S
N965 C969 1.279 . S
C966 C964 1.348 1_554 S
C966 C968 1.353 . S
C966 H1024 0.929 . S
C967 C964 1.356 . S
C967 C969 1.358 . S
C967 H1025 0.930 . S
C968 N965 1.314 1_554 S
C968 C966 1.353 . S
C968 H1026 0.930 . S
C969 N965 1.279 . S
C969 C967 1.358 . S
C969 H1027 0.930 . S
C970 C973 1.348 . S
C970 C974 1.356 . S
C970 O1021 1.325 . S
C971 N972 1.279 . S
C971 C974 1.358 . S
C971 H1028 0.930 . S
N972 C971 1.279 . S
N972 C975 1.314 . S
C973 C970 1.348 . S
C973 C975 1.353 . S
C973 H1029 0.929 . S
C974 C970 1.356 . S
C974 C971 1.358 . S
C974 H1030 0.930 . S
C975 N972 1.314 . S
C975 C973 1.353 . S
C975 H1031 0.930 . S
C976 N977 1.314 . S
C976 C981 1.353 . S
C976 H982 0.930 . S
N977 Li960 1.990 . S
N977 C976 1.314 . S
N977 C979 1.279 . S
C978 C979 1.358 . S
C978 C980 1.356 . S
C978 H1032 0.930 . S
C979 N977 1.279 . S
C979 C978 1.358 . S
C979 H983 0.930 . S
C980 C978 1.356 . S
C980 C981 1.348 . S
C981 C976 1.353 . S
C981 C980 1.348 . S
C981 H1033 0.929 . S
H982 C976 0.930 . S
H983 C979 0.930 . S
C984 N985 1.314 . S
C984 C986 1.353 . S
C984 H990 0.930 . S
N985 Li961 1.990 . S
N985 C984 1.314 . S
N985 C988 1.279 . S
C986 C984 1.353 . S
C986 C989 1.348 . S
C986 H1034 0.929 . S
C987 C988 1.358 . S
C987 C989 1.356 . S
C987 H1035 0.930 . S
C988 N985 1.279 . S
C988 C987 1.358 . S
C988 H991 0.930 . S
C989 C986 1.348 . S
C989 C987 1.356 . S
H990 C984 0.930 . S
H991 C988 0.930 . S
C992 C994 1.348 . S
C992 C995 1.356 . S
C992 O1022 1.325 . S
N993 C996 1.314 . S
N993 C997 1.279 . S
C994 C992 1.348 . S
C994 C996 1.353 . S
C994 H1036 0.929 . S
C995 C992 1.356 . S
C995 C997 1.358 . S
C995 H1037 0.930 . S
C996 N993 1.314 . S
C996 C994 1.353 . S
C996 H1038 0.930 . S
C997 N993 1.279 . S
C997 C995 1.358 . S
C997 H1039 0.930 . S
C998 C999 1.348 1_554 S
C998 C1000 1.356 . S
C998 O1023 1.325 . S
C999 C998 1.348 1_556 S
C999 C1001 1.353 . S
C999 H1040 0.929 . S
C1000 C998 1.356 . S
C1000 C1002 1.358 . S
C1000 H1041 0.930 . S
C1001 C999 1.353 . S
C1001 N1003 1.314 1_556 S
C1001 H1042 0.930 . S
C1002 C1000 1.358 . S
C1002 N1003 1.279 . S
C1002 H1043 0.930 . S
N1003 C1001 1.314 1_554 S
N1003 C1002 1.279 . S
C1004 C1006 1.353 . S
C1004 N1007 1.314 . S
C1004 H1010 0.930 . S
C1005 N1007 1.279 . S
C1005 C1008 1.358 . S
C1005 H1011 0.930 . S
C1006 C1004 1.353 . S
C1006 C1009 1.348 . S
C1006 H1044 0.929 . S
N1007 Li962 1.990 . S
N1007 C1004 1.314 . S
N1007 C1005 1.279 . S
C1008 C1005 1.358 . S
C1008 C1009 1.356 . S
C1008 H1045 0.930 . S
C1009 C1006 1.348 . S
C1009 C1008 1.356 . S
H1010 C1004 0.930 . S
H1011 C1005 0.930 . S
C1012 N1013 1.314 . S
C1012 C1014 1.353 . S
C1012 H1018 0.930 . S
N1013 Li963 1.990 . S
N1013 C1012 1.314 . S
N1013 C1016 1.279 . S
C1014 C1012 1.353 . S
C1014 C1017 1.348 . S
C1014 H1046 0.929 . S
C1015 C1016 1.358 . S
C1015 C1017 1.356 . S
C1015 H1047 0.930 . S
C1016 N1013 1.279 . S
C1016 C1015 1.358 . S
C1016 H1019 0.930 . S
C1017 C1014 1.348 . S
C1017 C1015 1.356 . S
H1018 C1012 0.930 . S
H1019 C1016 0.930 . S
O1020 Li960 1.956 . S
O1020 Li961 1.970 1_556 S
O1020 Li962 1.961 . S
O1020 C964 1.325 . S
O1021 Li960 1.970 1_554 S
O1021 Li961 1.956 . S
O1021 Li963 1.961 . S
O1021 C970 1.325 . S
O1022 Li960 1.961 . S
O1022 Li962 1.956 . S
O1022 Li963 1.970 1_556 S
O1022 C992 1.325 . S
O1023 Li961 1.961 . S
O1023 Li962 1.970 1_554 S
O1023 Li963 1.956 . S
O1023 C998 1.325 . S
H1024 C966 0.929 . S
H1025 C967 0.930 . S
H1026 C968 0.930 . S
H1027 C969 0.930 . S
H1028 C971 0.930 . S
H1029 C973 0.929 . S
H1030 C974 0.930 . S
H1031 C975 0.930 . S
H1032 C978 0.930 . S
H1033 C981 0.929 . S
H1034 C986 0.929 . S
H1035 C987 0.930 . S
H1036 C994 0.929 . S
H1037 C995 0.930 . S
H1038 C996 0.930 . S
H1039 C997 0.930 . S
H1040 C999 0.929 . S
H1041 C1000 0.930 . S
H1042 C1001 0.930 . S
H1043 C1002 0.930 . S
H1044 C1006 0.929 . S
H1045 C1008 0.930 . S
H1046 C1014 0.929 . S
H1047 C1015 0.930 . S
Li1048 N1065 1.990 . S
Li1048 O1108 1.956 . S
Li1048 O1109 1.970 . S
Li1048 O1110 1.961 . S
Li1049 N1073 1.990 . S
Li1049 O1108 1.970 . S
Li1049 O1109 1.956 . S
Li1049 O1111 1.961 . S
Li1050 N1095 1.990 . S
Li1050 O1108 1.961 . S
Li1050 O1110 1.956 . S
Li1050 O1111 1.970 . S
Li1051 N1101 1.990 . S
Li1051 O1109 1.961 . S
Li1051 O1110 1.970 . S
Li1051 O1111 1.956 . S
C1052 C1054 1.348 . S
C1052 C1055 1.356 . S
C1052 O1108 1.325 . S
N1053 C1056 1.314 . S
N1053 C1057 1.279 . S
C1054 C1052 1.348 . S
C1054 C1056 1.353 . S
C1054 H1112 0.929 . S
C1055 C1052 1.356 . S
C1055 C1057 1.358 . S
C1055 H1113 0.930 . S
C1056 N1053 1.314 . S
C1056 C1054 1.353 . S
C1056 H1114 0.930 . S
C1057 N1053 1.279 . S
C1057 C1055 1.358 . S
C1057 H1115 0.930 . S
C1058 C1061 1.348 . S
C1058 C1062 1.356 . S
C1058 O1109 1.325 . S
C1059 N1060 1.279 . S
C1059 C1062 1.358 . S
C1059 H1116 0.930 . S
N1060 C1059 1.279 . S
N1060 C1063 1.314 . S
C1061 C1058 1.348 . S
C1061 C1063 1.353 . S
C1061 H1117 0.929 . S
C1062 C1058 1.356 . S
C1062 C1059 1.358 . S
C1062 H1118 0.930 . S
C1063 N1060 1.314 . S
C1063 C1061 1.353 . S
C1063 H1119 0.930 . S
C1064 N1065 1.314 . S
C1064 C1069 1.353 . S
C1064 H1070 0.930 . S
N1065 Li1048 1.990 . S
N1065 C1064 1.314 . S
N1065 C1067 1.279 . S
C1066 C1067 1.358 . S
C1066 C1068 1.356 . S
C1066 H1120 0.930 . S
C1067 N1065 1.279 . S
C1067 C1066 1.358 . S
C1067 H1071 0.930 . S
C1068 C1066 1.356 . S
C1068 C1069 1.348 . S
C1069 C1064 1.353 . S
C1069 C1068 1.348 . S
C1069 H1121 0.929 . S
H1070 C1064 0.930 . S
H1071 C1067 0.930 . S
C1072 N1073 1.314 . S
C1072 C1074 1.353 . S
C1072 H1078 0.930 . S
N1073 Li1049 1.990 . S
N1073 C1072 1.314 . S
N1073 C1076 1.279 . S
C1074 C1072 1.353 . S
C1074 C1077 1.348 . S
C1074 H1122 0.929 . S
C1075 C1076 1.358 . S
C1075 C1077 1.356 . S
C1075 H1123 0.930 . S
C1076 N1073 1.279 . S
C1076 C1075 1.358 . S
C1076 H1079 0.930 . S
C1077 C1074 1.348 . S
C1077 C1075 1.356 . S
H1078 C1072 0.930 . S
H1079 C1076 0.930 . S
C1080 C1082 1.348 . S
C1080 C1083 1.356 . S
C1080 O1110 1.325 . S
N1081 C1084 1.314 . S
N1081 C1085 1.279 . S
C1082 C1080 1.348 . S
C1082 C1084 1.353 . S
C1082 H1124 0.929 . S
C1083 C1080 1.356 . S
C1083 C1085 1.358 . S
C1083 H1125 0.930 . S
C1084 N1081 1.314 . S
C1084 C1082 1.353 . S
C1084 H1126 0.930 . S
C1085 N1081 1.279 . S
C1085 C1083 1.358 . S
C1085 H1127 0.930 . S
C1086 C1087 1.348 . S
C1086 C1088 1.356 . S
C1086 O1111 1.325 . S
C1087 C1086 1.348 . S
C1087 C1089 1.353 . S
C1087 H1128 0.929 . S
C1088 C1086 1.356 . S
C1088 C1090 1.358 . S
C1088 H1129 0.930 . S
C1089 C1087 1.353 . S
C1089 N1091 1.314 . S
C1089 H1130 0.930 . S
C1090 C1088 1.358 . S
C1090 N1091 1.279 . S
C1090 H1131 0.930 . S
N1091 C1089 1.314 . S
N1091 C1090 1.279 . S
C1092 C1094 1.353 . S
C1092 N1095 1.314 . S
C1092 H1098 0.930 . S
C1093 N1095 1.279 . S
C1093 C1096 1.358 . S
C1093 H1099 0.930 . S
C1094 C1092 1.353 . S
C1094 C1097 1.348 . S
C1094 H1132 0.929 . S
N1095 Li1050 1.990 . S
N1095 C1092 1.314 . S
N1095 C1093 1.279 . S
C1096 C1093 1.358 . S
C1096 C1097 1.356 . S
C1096 H1133 0.930 . S
C1097 C1094 1.348 . S
C1097 C1096 1.356 . S
H1098 C1092 0.930 . S
H1099 C1093 0.930 . S
C1100 N1101 1.314 . S
C1100 C1102 1.353 . S
C1100 H1106 0.930 . S
N1101 Li1051 1.990 . S
N1101 C1100 1.314 . S
N1101 C1104 1.279 . S
C1102 C1100 1.353 . S
C1102 C1105 1.348 . S
C1102 H1134 0.929 . S
C1103 C1104 1.358 . S
C1103 C1105 1.356 . S
C1103 H1135 0.930 . S
C1104 N1101 1.279 . S
C1104 C1103 1.358 . S
C1104 H1107 0.930 . S
C1105 C1102 1.348 . S
C1105 C1103 1.356 . S
H1106 C1100 0.930 . S
H1107 C1104 0.930 . S
O1108 Li1048 1.956 . S
O1108 Li1049 1.970 . S
O1108 Li1050 1.961 . S
O1108 C1052 1.325 . S
O1109 Li1048 1.970 . S
O1109 Li1049 1.956 . S
O1109 Li1051 1.961 . S
O1109 C1058 1.325 . S
O1110 Li1048 1.961 . S
O1110 Li1050 1.956 . S
O1110 Li1051 1.970 . S
O1110 C1080 1.325 . S
O1111 Li1049 1.961 . S
O1111 Li1050 1.970 . S
O1111 Li1051 1.956 . S
O1111 C1086 1.325 . S
H1112 C1054 0.929 . S
H1113 C1055 0.930 . S
H1114 C1056 0.930 . S
H1115 C1057 0.930 . S
H1116 C1059 0.930 . S
H1117 C1061 0.929 . S
H1118 C1062 0.930 . S
H1119 C1063 0.930 . S
H1120 C1066 0.930 . S
H1121 C1069 0.929 . S
H1122 C1074 0.929 . S
H1123 C1075 0.930 . S
H1124 C1082 0.929 . S
H1125 C1083 0.930 . S
H1126 C1084 0.930 . S
H1127 C1085 0.930 . S
H1128 C1087 0.929 . S
H1129 C1088 0.930 . S
H1130 C1089 0.930 . S
H1131 C1090 0.930 . S
H1132 C1094 0.929 . S
H1133 C1096 0.930 . S
H1134 C1102 0.929 . S
H1135 C1103 0.930 . S
Li1136 N1153 1.990 . S
Li1136 O1196 1.956 . S
Li1136 O1197 1.970 1_556 S
Li1136 O1198 1.961 . S
Li1137 N1161 1.990 . S
Li1137 O1196 1.970 1_554 S
Li1137 O1197 1.956 . S
Li1137 O1199 1.961 . S
Li1138 N1183 1.990 . S
Li1138 O1196 1.961 . S
Li1138 O1198 1.956 . S
Li1138 O1199 1.970 1_556 S
Li1139 N1189 1.990 . S
Li1139 O1197 1.961 . S
Li1139 O1198 1.970 1_554 S
Li1139 O1199 1.956 . S
C1140 C1142 1.348 1_556 S
C1140 C1143 1.356 . S
C1140 O1196 1.325 . S
N1141 C1144 1.314 1_556 S
N1141 C1145 1.279 . S
C1142 C1140 1.348 1_554 S
C1142 C1144 1.353 . S
C1142 H1200 0.929 . S
C1143 C1140 1.356 . S
C1143 C1145 1.358 . S
C1143 H1201 0.930 . S
C1144 N1141 1.314 1_554 S
C1144 C1142 1.353 . S
C1144 H1202 0.930 . S
C1145 N1141 1.279 . S
C1145 C1143 1.358 . S
C1145 H1203 0.930 . S
C1146 C1149 1.348 . S
C1146 C1150 1.356 . S
C1146 O1197 1.325 . S
C1147 N1148 1.279 . S
C1147 C1150 1.358 . S
C1147 H1204 0.930 . S
N1148 C1147 1.279 . S
N1148 C1151 1.314 . S
C1149 C1146 1.348 . S
C1149 C1151 1.353 . S
C1149 H1205 0.929 . S
C1150 C1146 1.356 . S
C1150 C1147 1.358 . S
C1150 H1206 0.930 . S
C1151 N1148 1.314 . S
C1151 C1149 1.353 . S
C1151 H1207 0.930 . S
C1152 N1153 1.314 . S
C1152 C1157 1.353 . S
C1152 H1158 0.930 . S
N1153 Li1136 1.990 . S
N1153 C1152 1.314 . S
N1153 C1155 1.279 . S
C1154 C1155 1.358 . S
C1154 C1156 1.356 . S
C1154 H1208 0.930 . S
C1155 N1153 1.279 . S
C1155 C1154 1.358 . S
C1155 H1159 0.930 . S
C1156 C1154 1.356 . S
C1156 C1157 1.348 . S
C1157 C1152 1.353 . S
C1157 C1156 1.348 . S
C1157 H1209 0.929 . S
H1158 C1152 0.930 . S
H1159 C1155 0.930 . S
C1160 N1161 1.314 . S
C1160 C1162 1.353 . S
C1160 H1166 0.930 . S
N1161 Li1137 1.990 . S
N1161 C1160 1.314 . S
N1161 C1164 1.279 . S
C1162 C1160 1.353 . S
C1162 C1165 1.348 . S
C1162 H1210 0.929 . S
C1163 C1164 1.358 . S
C1163 C1165 1.356 . S
C1163 H1211 0.930 . S
C1164 N1161 1.279 . S
C1164 C1163 1.358 . S
C1164 H1167 0.930 . S
C1165 C1162 1.348 . S
C1165 C1163 1.356 . S
H1166 C1160 0.930 . S
H1167 C1164 0.930 . S
C1168 C1170 1.348 . S
C1168 C1171 1.356 . S
C1168 O1198 1.325 . S
N1169 C1172 1.314 . S
N1169 C1173 1.279 . S
C1170 C1168 1.348 . S
C1170 C1172 1.353 . S
C1170 H1212 0.929 . S
C1171 C1168 1.356 . S
C1171 C1173 1.358 . S
C1171 H1213 0.930 . S
C1172 N1169 1.314 . S
C1172 C1170 1.353 . S
C1172 H1214 0.930 . S
C1173 N1169 1.279 . S
C1173 C1171 1.358 . S
C1173 H1215 0.930 . S
C1174 C1175 1.348 1_554 S
C1174 C1176 1.356 . S
C1174 O1199 1.325 . S
C1175 C1174 1.348 1_556 S
C1175 C1177 1.353 . S
C1175 H1216 0.929 . S
C1176 C1174 1.356 . S
C1176 C1178 1.358 . S
C1176 H1217 0.930 . S
C1177 C1175 1.353 . S
C1177 N1179 1.314 1_556 S
C1177 H1218 0.930 . S
C1178 C1176 1.358 . S
C1178 N1179 1.279 . S
C1178 H1219 0.930 . S
N1179 C1177 1.314 1_554 S
N1179 C1178 1.279 . S
C1180 C1182 1.353 . S
C1180 N1183 1.314 . S
C1180 H1186 0.930 . S
C1181 N1183 1.279 . S
C1181 C1184 1.358 . S
C1181 H1187 0.930 . S
C1182 C1180 1.353 . S
C1182 C1185 1.348 . S
C1182 H1220 0.929 . S
N1183 Li1138 1.990 . S
N1183 C1180 1.314 . S
N1183 C1181 1.279 . S
C1184 C1181 1.358 . S
C1184 C1185 1.356 . S
C1184 H1221 0.930 . S
C1185 C1182 1.348 . S
C1185 C1184 1.356 . S
H1186 C1180 0.930 . S
H1187 C1181 0.930 . S
C1188 N1189 1.314 . S
C1188 C1190 1.353 . S
C1188 H1194 0.930 . S
N1189 Li1139 1.990 . S
N1189 C1188 1.314 . S
N1189 C1192 1.279 . S
C1190 C1188 1.353 . S
C1190 C1193 1.348 . S
C1190 H1222 0.929 . S
C1191 C1192 1.358 . S
C1191 C1193 1.356 . S
C1191 H1223 0.930 . S
C1192 N1189 1.279 . S
C1192 C1191 1.358 . S
C1192 H1195 0.930 . S
C1193 C1190 1.348 . S
C1193 C1191 1.356 . S
H1194 C1188 0.930 . S
H1195 C1192 0.930 . S
O1196 Li1136 1.956 . S
O1196 Li1137 1.970 1_556 S
O1196 Li1138 1.961 . S
O1196 C1140 1.325 . S
O1197 Li1136 1.970 1_554 S
O1197 Li1137 1.956 . S
O1197 Li1139 1.961 . S
O1197 C1146 1.325 . S
O1198 Li1136 1.961 . S
O1198 Li1138 1.956 . S
O1198 Li1139 1.970 1_556 S
O1198 C1168 1.325 . S
O1199 Li1137 1.961 . S
O1199 Li1138 1.970 1_554 S
O1199 Li1139 1.956 . S
O1199 C1174 1.325 . S
H1200 C1142 0.929 . S
H1201 C1143 0.930 . S
H1202 C1144 0.930 . S
H1203 C1145 0.930 . S
H1204 C1147 0.930 . S
H1205 C1149 0.929 . S
H1206 C1150 0.930 . S
H1207 C1151 0.930 . S
H1208 C1154 0.930 . S
H1209 C1157 0.929 . S
H1210 C1162 0.929 . S
H1211 C1163 0.930 . S
H1212 C1170 0.929 . S
H1213 C1171 0.930 . S
H1214 C1172 0.930 . S
H1215 C1173 0.930 . S
H1216 C1175 0.929 . S
H1217 C1176 0.930 . S
H1218 C1177 0.930 . S
H1219 C1178 0.930 . S
H1220 C1182 0.929 . S
H1221 C1184 0.930 . S
H1222 C1190 0.929 . S
H1223 C1191 0.930 . S
Li1224 N1241 1.990 . S
Li1224 O1284 1.956 . S
Li1224 O1285 1.970 1_545 S
Li1224 O1286 1.961 . S
Li1225 N1249 1.990 . S
Li1225 O1284 1.970 1_565 S
Li1225 O1285 1.956 . S
Li1225 O1287 1.961 . S
Li1226 N1271 1.990 . S
Li1226 O1284 1.961 . S
Li1226 O1286 1.956 . S
Li1226 O1287 1.970 1_545 S
Li1227 N1277 1.990 . S
Li1227 O1285 1.961 . S
Li1227 O1286 1.970 1_565 S
Li1227 O1287 1.956 . S
C1228 C1230 1.348 . S
C1228 C1231 1.356 . S
C1228 O1284 1.325 . S
N1229 C1232 1.314 . S
N1229 C1233 1.279 . S
C1230 C1228 1.348 . S
C1230 C1232 1.353 . S
C1230 H1288 0.929 . S
C1231 C1228 1.356 . S
C1231 C1233 1.358 . S
C1231 H1289 0.930 . S
C1232 N1229 1.314 . S
C1232 C1230 1.353 . S
C1232 H1290 0.930 . S
C1233 N1229 1.279 . S
C1233 C1231 1.358 . S
C1233 H1291 0.930 . S
C1234 C1237 1.348 1_565 S
C1234 C1238 1.356 . S
C1234 O1285 1.325 . S
C1235 N1236 1.279 . S
C1235 C1238 1.358 . S
C1235 H1292 0.930 . S
N1236 C1235 1.279 . S
N1236 C1239 1.314 1_565 S
C1237 C1234 1.348 1_545 S
C1237 C1239 1.353 . S
C1237 H1293 0.929 . S
C1238 C1234 1.356 . S
C1238 C1235 1.358 . S
C1238 H1294 0.930 . S
C1239 N1236 1.314 1_545 S
C1239 C1237 1.353 . S
C1239 H1295 0.930 . S
C1240 N1241 1.314 . S
C1240 C1245 1.353 . S
C1240 H1246 0.930 . S
N1241 Li1224 1.990 . S
N1241 C1240 1.314 . S
N1241 C1243 1.279 . S
C1242 C1243 1.358 . S
C1242 C1244 1.356 . S
C1242 H1296 0.930 . S
C1243 N1241 1.279 . S
C1243 C1242 1.358 . S
C1243 H1247 0.930 . S
C1244 C1242 1.356 . S
C1244 C1245 1.348 . S
C1245 C1240 1.353 . S
C1245 C1244 1.348 . S
C1245 H1297 0.929 . S
H1246 C1240 0.930 . S
H1247 C1243 0.930 . S
C1248 N1249 1.314 . S
C1248 C1250 1.353 . S
C1248 H1254 0.930 . S
N1249 Li1225 1.990 . S
N1249 C1248 1.314 . S
N1249 C1252 1.279 . S
C1250 C1248 1.353 . S
C1250 C1253 1.348 . S
C1250 H1298 0.929 . S
C1251 C1252 1.358 . S
C1251 C1253 1.356 . S
C1251 H1299 0.930 . S
C1252 N1249 1.279 . S
C1252 C1251 1.358 . S
C1252 H1255 0.930 . S
C1253 C1250 1.348 . S
C1253 C1251 1.356 . S
H1254 C1248 0.930 . S
H1255 C1252 0.930 . S
C1256 C1258 1.348 1_545 S
C1256 C1259 1.356 . S
C1256 O1286 1.325 . S
N1257 C1260 1.314 1_545 S
N1257 C1261 1.279 . S
C1258 C1256 1.348 1_565 S
C1258 C1260 1.353 . S
C1258 H1300 0.929 . S
C1259 C1256 1.356 . S
C1259 C1261 1.358 . S
C1259 H1301 0.930 . S
C1260 N1257 1.314 1_565 S
C1260 C1258 1.353 . S
C1260 H1302 0.930 . S
C1261 N1257 1.279 . S
C1261 C1259 1.358 . S
C1261 H1303 0.930 . S
C1262 C1263 1.348 . S
C1262 C1264 1.356 . S
C1262 O1287 1.325 . S
C1263 C1262 1.348 . S
C1263 C1265 1.353 . S
C1263 H1304 0.929 . S
C1264 C1262 1.356 . S
C1264 C1266 1.358 . S
C1264 H1305 0.930 . S
C1265 C1263 1.353 . S
C1265 N1267 1.314 . S
C1265 H1306 0.930 . S
C1266 C1264 1.358 . S
C1266 N1267 1.279 . S
C1266 H1307 0.930 . S
N1267 C1265 1.314 . S
N1267 C1266 1.279 . S
C1268 C1270 1.353 . S
C1268 N1271 1.314 . S
C1268 H1274 0.930 . S
C1269 N1271 1.279 . S
C1269 C1272 1.358 . S
C1269 H1275 0.930 . S
C1270 C1268 1.353 . S
C1270 C1273 1.348 . S
C1270 H1308 0.929 . S
N1271 Li1226 1.990 . S
N1271 C1268 1.314 . S
N1271 C1269 1.279 . S
C1272 C1269 1.358 . S
C1272 C1273 1.356 . S
C1272 H1309 0.930 . S
C1273 C1270 1.348 . S
C1273 C1272 1.356 . S
H1274 C1268 0.930 . S
H1275 C1269 0.930 . S
C1276 N1277 1.314 . S
C1276 C1278 1.353 . S
C1276 H1282 0.930 . S
N1277 Li1227 1.990 . S
N1277 C1276 1.314 . S
N1277 C1280 1.279 . S
C1278 C1276 1.353 . S
C1278 C1281 1.348 . S
C1278 H1310 0.929 . S
C1279 C1280 1.358 . S
C1279 C1281 1.356 . S
C1279 H1311 0.930 . S
C1280 N1277 1.279 . S
C1280 C1279 1.358 . S
C1280 H1283 0.930 . S
C1281 C1278 1.348 . S
C1281 C1279 1.356 . S
H1282 C1276 0.930 . S
H1283 C1280 0.930 . S
O1284 Li1224 1.956 . S
O1284 Li1225 1.970 1_545 S
O1284 Li1226 1.961 . S
O1284 C1228 1.325 . S
O1285 Li1224 1.970 1_565 S
O1285 Li1225 1.956 . S
O1285 Li1227 1.961 . S
O1285 C1234 1.325 . S
O1286 Li1224 1.961 . S
O1286 Li1226 1.956 . S
O1286 Li1227 1.970 1_545 S
O1286 C1256 1.325 . S
O1287 Li1225 1.961 . S
O1287 Li1226 1.970 1_565 S
O1287 Li1227 1.956 . S
O1287 C1262 1.325 . S
H1288 C1230 0.929 . S
H1289 C1231 0.930 . S
H1290 C1232 0.930 . S
H1291 C1233 0.930 . S
H1292 C1235 0.930 . S
H1293 C1237 0.929 . S
H1294 C1238 0.930 . S
H1295 C1239 0.930 . S
H1296 C1242 0.930 . S
H1297 C1245 0.929 . S
H1298 C1250 0.929 . S
H1299 C1251 0.930 . S
H1300 C1258 0.929 . S
H1301 C1259 0.930 . S
H1302 C1260 0.930 . S
H1303 C1261 0.930 . S
H1304 C1263 0.929 . S
H1305 C1264 0.930 . S
H1306 C1265 0.930 . S
H1307 C1266 0.930 . S
H1308 C1270 0.929 . S
H1309 C1272 0.930 . S
H1310 C1278 0.929 . S
H1311 C1279 0.930 . S
Li1312 N1329 1.990 . S
Li1312 O1372 1.956 . S
Li1312 O1373 1.970 . S
Li1312 O1374 1.961 . S
Li1313 N1337 1.990 . S
Li1313 O1372 1.970 . S
Li1313 O1373 1.956 . S
Li1313 O1375 1.961 . S
Li1314 N1359 1.990 . S
Li1314 O1372 1.961 . S
Li1314 O1374 1.956 . S
Li1314 O1375 1.970 . S
Li1315 N1365 1.990 . S
Li1315 O1373 1.961 . S
Li1315 O1374 1.970 . S
Li1315 O1375 1.956 . S
C1316 C1318 1.348 . S
C1316 C1319 1.356 . S
C1316 O1372 1.325 . S
N1317 C1320 1.314 . S
N1317 C1321 1.279 . S
C1318 C1316 1.348 . S
C1318 C1320 1.353 . S
C1318 H1376 0.929 . S
C1319 C1316 1.356 . S
C1319 C1321 1.358 . S
C1319 H1377 0.930 . S
C1320 N1317 1.314 . S
C1320 C1318 1.353 . S
C1320 H1378 0.930 . S
C1321 N1317 1.279 . S
C1321 C1319 1.358 . S
C1321 H1379 0.930 . S
C1322 C1325 1.348 . S
C1322 C1326 1.356 . S
C1322 O1373 1.325 . S
C1323 N1324 1.279 . S
C1323 C1326 1.358 . S
C1323 H1380 0.930 . S
N1324 C1323 1.279 . S
N1324 C1327 1.314 . S
C1325 C1322 1.348 . S
C1325 C1327 1.353 . S
C1325 H1381 0.929 . S
C1326 C1322 1.356 . S
C1326 C1323 1.358 . S
C1326 H1382 0.930 . S
C1327 N1324 1.314 . S
C1327 C1325 1.353 . S
C1327 H1383 0.930 . S
C1328 N1329 1.314 . S
C1328 C1333 1.353 . S
C1328 H1334 0.930 . S
N1329 Li1312 1.990 . S
N1329 C1328 1.314 . S
N1329 C1331 1.279 . S
C1330 C1331 1.358 . S
C1330 C1332 1.356 . S
C1330 H1384 0.930 . S
C1331 N1329 1.279 . S
C1331 C1330 1.358 . S
C1331 H1335 0.930 . S
C1332 C1330 1.356 . S
C1332 C1333 1.348 . S
C1333 C1328 1.353 . S
C1333 C1332 1.348 . S
C1333 H1385 0.929 . S
H1334 C1328 0.930 . S
H1335 C1331 0.930 . S
C1336 N1337 1.314 . S
C1336 C1338 1.353 . S
C1336 H1342 0.930 . S
N1337 Li1313 1.990 . S
N1337 C1336 1.314 . S
N1337 C1340 1.279 . S
C1338 C1336 1.353 . S
C1338 C1341 1.348 . S
C1338 H1386 0.929 . S
C1339 C1340 1.358 . S
C1339 C1341 1.356 . S
C1339 H1387 0.930 . S
C1340 N1337 1.279 . S
C1340 C1339 1.358 . S
C1340 H1343 0.930 . S
C1341 C1338 1.348 . S
C1341 C1339 1.356 . S
H1342 C1336 0.930 . S
H1343 C1340 0.930 . S
C1344 C1346 1.348 . S
C1344 C1347 1.356 . S
C1344 O1374 1.325 . S
N1345 C1348 1.314 . S
N1345 C1349 1.279 . S
C1346 C1344 1.348 . S
C1346 C1348 1.353 . S
C1346 H1388 0.929 . S
C1347 C1344 1.356 . S
C1347 C1349 1.358 . S
C1347 H1389 0.930 . S
C1348 N1345 1.314 . S
C1348 C1346 1.353 . S
C1348 H1390 0.930 . S
C1349 N1345 1.279 . S
C1349 C1347 1.358 . S
C1349 H1391 0.930 . S
C1350 C1351 1.348 . S
C1350 C1352 1.356 . S
C1350 O1375 1.325 . S
C1351 C1350 1.348 . S
C1351 C1353 1.353 . S
C1351 H1392 0.929 . S
C1352 C1350 1.356 . S
C1352 C1354 1.358 . S
C1352 H1393 0.930 . S
C1353 C1351 1.353 . S
C1353 N1355 1.314 . S
C1353 H1394 0.930 . S
C1354 C1352 1.358 . S
C1354 N1355 1.279 . S
C1354 H1395 0.930 . S
N1355 C1353 1.314 . S
N1355 C1354 1.279 . S
C1356 C1358 1.353 . S
C1356 N1359 1.314 . S
C1356 H1362 0.930 . S
C1357 N1359 1.279 . S
C1357 C1360 1.358 . S
C1357 H1363 0.930 . S
C1358 C1356 1.353 . S
C1358 C1361 1.348 . S
C1358 H1396 0.929 . S
N1359 Li1314 1.990 . S
N1359 C1356 1.314 . S
N1359 C1357 1.279 . S
C1360 C1357 1.358 . S
C1360 C1361 1.356 . S
C1360 H1397 0.930 . S
C1361 C1358 1.348 . S
C1361 C1360 1.356 . S
H1362 C1356 0.930 . S
H1363 C1357 0.930 . S
C1364 N1365 1.314 . S
C1364 C1366 1.353 . S
C1364 H1370 0.930 . S
N1365 Li1315 1.990 . S
N1365 C1364 1.314 . S
N1365 C1368 1.279 . S
C1366 C1364 1.353 . S
C1366 C1369 1.348 . S
C1366 H1398 0.929 . S
C1367 C1368 1.358 . S
C1367 C1369 1.356 . S
C1367 H1399 0.930 . S
C1368 N1365 1.279 . S
C1368 C1367 1.358 . S
C1368 H1371 0.930 . S
C1369 C1366 1.348 . S
C1369 C1367 1.356 . S
H1370 C1364 0.930 . S
H1371 C1368 0.930 . S
O1372 Li1312 1.956 . S
O1372 Li1313 1.970 . S
O1372 Li1314 1.961 . S
O1372 C1316 1.325 . S
O1373 Li1312 1.970 . S
O1373 Li1313 1.956 . S
O1373 Li1315 1.961 . S
O1373 C1322 1.325 . S
O1374 Li1312 1.961 . S
O1374 Li1314 1.956 . S
O1374 Li1315 1.970 . S
O1374 C1344 1.325 . S
O1375 Li1313 1.961 . S
O1375 Li1314 1.970 . S
O1375 Li1315 1.956 . S
O1375 C1350 1.325 . S
H1376 C1318 0.929 . S
H1377 C1319 0.930 . S
H1378 C1320 0.930 . S
H1379 C1321 0.930 . S
H1380 C1323 0.930 . S
H1381 C1325 0.929 . S
H1382 C1326 0.930 . S
H1383 C1327 0.930 . S
H1384 C1330 0.930 . S
H1385 C1333 0.929 . S
H1386 C1338 0.929 . S
H1387 C1339 0.930 . S
H1388 C1346 0.929 . S
H1389 C1347 0.930 . S
H1390 C1348 0.930 . S
H1391 C1349 0.930 . S
H1392 C1351 0.929 . S
H1393 C1352 0.930 . S
H1394 C1353 0.930 . S
H1395 C1354 0.930 . S
H1396 C1358 0.929 . S
H1397 C1360 0.930 . S
H1398 C1366 0.929 . S
H1399 C1367 0.930 . S
Li1400 N1417 1.990 . S
Li1400 O1460 1.956 . S
Li1400 O1461 1.970 . S
Li1400 O1462 1.961 . S
Li1401 N1425 1.990 . S
Li1401 O1460 1.970 . S
Li1401 O1461 1.956 . S
Li1401 O1463 1.961 . S
Li1402 N1447 1.990 . S
Li1402 O1460 1.961 . S
Li1402 O1462 1.956 . S
Li1402 O1463 1.970 . S
Li1403 N1453 1.990 . S
Li1403 O1461 1.961 . S
Li1403 O1462 1.970 . S
Li1403 O1463 1.956 . S
C1404 C1406 1.348 . S
C1404 C1407 1.356 . S
C1404 O1460 1.325 . S
N1405 C1408 1.314 . S
N1405 C1409 1.279 . S
C1406 C1404 1.348 . S
C1406 C1408 1.353 . S
C1406 H1464 0.929 . S
C1407 C1404 1.356 . S
C1407 C1409 1.358 . S
C1407 H1465 0.930 . S
C1408 N1405 1.314 . S
C1408 C1406 1.353 . S
C1408 H1466 0.930 . S
C1409 N1405 1.279 . S
C1409 C1407 1.358 . S
C1409 H1467 0.930 . S
C1410 C1413 1.348 . S
C1410 C1414 1.356 . S
C1410 O1461 1.325 . S
C1411 N1412 1.279 . S
C1411 C1414 1.358 . S
C1411 H1468 0.930 . S
N1412 C1411 1.279 . S
N1412 C1415 1.314 . S
C1413 C1410 1.348 . S
C1413 C1415 1.353 . S
C1413 H1469 0.929 . S
C1414 C1410 1.356 . S
C1414 C1411 1.358 . S
C1414 H1470 0.930 . S
C1415 N1412 1.314 . S
C1415 C1413 1.353 . S
C1415 H1471 0.930 . S
C1416 N1417 1.314 . S
C1416 C1421 1.353 . S
C1416 H1422 0.930 . S
N1417 Li1400 1.990 . S
N1417 C1416 1.314 . S
N1417 C1419 1.279 . S
C1418 C1419 1.358 . S
C1418 C1420 1.356 . S
C1418 H1472 0.930 . S
C1419 N1417 1.279 . S
C1419 C1418 1.358 . S
C1419 H1423 0.930 . S
C1420 C1418 1.356 . S
C1420 C1421 1.348 . S
C1421 C1416 1.353 . S
C1421 C1420 1.348 . S
C1421 H1473 0.929 . S
H1422 C1416 0.930 . S
H1423 C1419 0.930 . S
C1424 N1425 1.314 . S
C1424 C1426 1.353 . S
C1424 H1430 0.930 . S
N1425 Li1401 1.990 . S
N1425 C1424 1.314 . S
N1425 C1428 1.279 . S
C1426 C1424 1.353 . S
C1426 C1429 1.348 . S
C1426 H1474 0.929 . S
C1427 C1428 1.358 . S
C1427 C1429 1.356 . S
C1427 H1475 0.930 . S
C1428 N1425 1.279 . S
C1428 C1427 1.358 . S
C1428 H1431 0.930 . S
C1429 C1426 1.348 . S
C1429 C1427 1.356 . S
H1430 C1424 0.930 . S
H1431 C1428 0.930 . S
C1432 C1434 1.348 . S
C1432 C1435 1.356 . S
C1432 O1462 1.325 . S
N1433 C1436 1.314 . S
N1433 C1437 1.279 . S
C1434 C1432 1.348 . S
C1434 C1436 1.353 . S
C1434 H1476 0.929 . S
C1435 C1432 1.356 . S
C1435 C1437 1.358 . S
C1435 H1477 0.930 . S
C1436 N1433 1.314 . S
C1436 C1434 1.353 . S
C1436 H1478 0.930 . S
C1437 N1433 1.279 . S
C1437 C1435 1.358 . S
C1437 H1479 0.930 . S
C1438 C1439 1.348 . S
C1438 C1440 1.356 . S
C1438 O1463 1.325 . S
C1439 C1438 1.348 . S
C1439 C1441 1.353 . S
C1439 H1480 0.929 . S
C1440 C1438 1.356 . S
C1440 C1442 1.358 . S
C1440 H1481 0.930 . S
C1441 C1439 1.353 . S
C1441 N1443 1.314 . S
C1441 H1482 0.930 . S
C1442 C1440 1.358 . S
C1442 N1443 1.279 . S
C1442 H1483 0.930 . S
N1443 C1441 1.314 . S
N1443 C1442 1.279 . S
C1444 C1446 1.353 . S
C1444 N1447 1.314 . S
C1444 H1450 0.930 . S
C1445 N1447 1.279 . S
C1445 C1448 1.358 . S
C1445 H1451 0.930 . S
C1446 C1444 1.353 . S
C1446 C1449 1.348 . S
C1446 H1484 0.929 . S
N1447 Li1402 1.990 . S
N1447 C1444 1.314 . S
N1447 C1445 1.279 . S
C1448 C1445 1.358 . S
C1448 C1449 1.356 . S
C1448 H1485 0.930 . S
C1449 C1446 1.348 . S
C1449 C1448 1.356 . S
H1450 C1444 0.930 . S
H1451 C1445 0.930 . S
C1452 N1453 1.314 . S
C1452 C1454 1.353 . S
C1452 H1458 0.930 . S
N1453 Li1403 1.990 . S
N1453 C1452 1.314 . S
N1453 C1456 1.279 . S
C1454 C1452 1.353 . S
C1454 C1457 1.348 . S
C1454 H1486 0.929 . S
C1455 C1456 1.358 . S
C1455 C1457 1.356 . S
C1455 H1487 0.930 . S
C1456 N1453 1.279 . S
C1456 C1455 1.358 . S
C1456 H1459 0.930 . S
C1457 C1454 1.348 . S
C1457 C1455 1.356 . S
H1458 C1452 0.930 . S
H1459 C1456 0.930 . S
O1460 Li1400 1.956 . S
O1460 Li1401 1.970 . S
O1460 Li1402 1.961 . S
O1460 C1404 1.325 . S
O1461 Li1400 1.970 . S
O1461 Li1401 1.956 . S
O1461 Li1403 1.961 . S
O1461 C1410 1.325 . S
O1462 Li1400 1.961 . S
O1462 Li1402 1.956 . S
O1462 Li1403 1.970 . S
O1462 C1432 1.325 . S
O1463 Li1401 1.961 . S
O1463 Li1402 1.970 . S
O1463 Li1403 1.956 . S
O1463 C1438 1.325 . S
H1464 C1406 0.929 . S
H1465 C1407 0.930 . S
H1466 C1408 0.930 . S
H1467 C1409 0.930 . S
H1468 C1411 0.930 . S
H1469 C1413 0.929 . S
H1470 C1414 0.930 . S
H1471 C1415 0.930 . S
H1472 C1418 0.930 . S
H1473 C1421 0.929 . S
H1474 C1426 0.929 . S
H1475 C1427 0.930 . S
H1476 C1434 0.929 . S
H1477 C1435 0.930 . S
H1478 C1436 0.930 . S
H1479 C1437 0.930 . S
H1480 C1439 0.929 . S
H1481 C1440 0.930 . S
H1482 C1441 0.930 . S
H1483 C1442 0.930 . S
H1484 C1446 0.929 . S
H1485 C1448 0.930 . S
H1486 C1454 0.929 . S
H1487 C1455 0.930 . S
Li1488 N1505 1.990 . S
Li1488 O1548 1.956 . S
Li1488 O1549 1.970 . S
Li1488 O1550 1.961 . S
Li1489 N1513 1.990 . S
Li1489 O1548 1.970 . S
Li1489 O1549 1.956 . S
Li1489 O1551 1.961 . S
Li1490 N1535 1.990 . S
Li1490 O1548 1.961 . S
Li1490 O1550 1.956 . S
Li1490 O1551 1.970 . S
Li1491 N1541 1.990 . S
Li1491 O1549 1.961 . S
Li1491 O1550 1.970 . S
Li1491 O1551 1.956 . S
C1492 C1494 1.348 . S
C1492 C1495 1.356 . S
C1492 O1548 1.325 . S
N1493 C1496 1.314 . S
N1493 C1497 1.279 . S
C1494 C1492 1.348 . S
C1494 C1496 1.353 . S
C1494 H1552 0.929 . S
C1495 C1492 1.356 . S
C1495 C1497 1.358 . S
C1495 H1553 0.930 . S
C1496 N1493 1.314 . S
C1496 C1494 1.353 . S
C1496 H1554 0.930 . S
C1497 N1493 1.279 . S
C1497 C1495 1.358 . S
C1497 H1555 0.930 . S
C1498 C1501 1.348 . S
C1498 C1502 1.356 . S
C1498 O1549 1.325 . S
C1499 N1500 1.279 . S
C1499 C1502 1.358 . S
C1499 H1556 0.930 . S
N1500 C1499 1.279 . S
N1500 C1503 1.314 . S
C1501 C1498 1.348 . S
C1501 C1503 1.353 . S
C1501 H1557 0.929 . S
C1502 C1498 1.356 . S
C1502 C1499 1.358 . S
C1502 H1558 0.930 . S
C1503 N1500 1.314 . S
C1503 C1501 1.353 . S
C1503 H1559 0.930 . S
C1504 N1505 1.314 . S
C1504 C1509 1.353 . S
C1504 H1510 0.930 . S
N1505 Li1488 1.990 . S
N1505 C1504 1.314 . S
N1505 C1507 1.279 . S
C1506 C1507 1.358 . S
C1506 C1508 1.356 . S
C1506 H1560 0.930 . S
C1507 N1505 1.279 . S
C1507 C1506 1.358 . S
C1507 H1511 0.930 . S
C1508 C1506 1.356 . S
C1508 C1509 1.348 . S
C1509 C1504 1.353 . S
C1509 C1508 1.348 . S
C1509 H1561 0.929 . S
H1510 C1504 0.930 . S
H1511 C1507 0.930 . S
C1512 N1513 1.314 . S
C1512 C1514 1.353 . S
C1512 H1518 0.930 . S
N1513 Li1489 1.990 . S
N1513 C1512 1.314 . S
N1513 C1516 1.279 . S
C1514 C1512 1.353 . S
C1514 C1517 1.348 . S
C1514 H1562 0.929 . S
C1515 C1516 1.358 . S
C1515 C1517 1.356 . S
C1515 H1563 0.930 . S
C1516 N1513 1.279 . S
C1516 C1515 1.358 . S
C1516 H1519 0.930 . S
C1517 C1514 1.348 . S
C1517 C1515 1.356 . S
H1518 C1512 0.930 . S
H1519 C1516 0.930 . S
C1520 C1522 1.348 . S
C1520 C1523 1.356 . S
C1520 O1550 1.325 . S
N1521 C1524 1.314 . S
N1521 C1525 1.279 . S
C1522 C1520 1.348 . S
C1522 C1524 1.353 . S
C1522 H1564 0.929 . S
C1523 C1520 1.356 . S
C1523 C1525 1.358 . S
C1523 H1565 0.930 . S
C1524 N1521 1.314 . S
C1524 C1522 1.353 . S
C1524 H1566 0.930 . S
C1525 N1521 1.279 . S
C1525 C1523 1.358 . S
C1525 H1567 0.930 . S
C1526 C1527 1.348 . S
C1526 C1528 1.356 . S
C1526 O1551 1.325 . S
C1527 C1526 1.348 . S
C1527 C1529 1.353 . S
C1527 H1568 0.929 . S
C1528 C1526 1.356 . S
C1528 C1530 1.358 . S
C1528 H1569 0.930 . S
C1529 C1527 1.353 . S
C1529 N1531 1.314 . S
C1529 H1570 0.930 . S
C1530 C1528 1.358 . S
C1530 N1531 1.279 . S
C1530 H1571 0.930 . S
N1531 C1529 1.314 . S
N1531 C1530 1.279 . S
C1532 C1534 1.353 . S
C1532 N1535 1.314 . S
C1532 H1538 0.930 . S
C1533 N1535 1.279 . S
C1533 C1536 1.358 . S
C1533 H1539 0.930 . S
C1534 C1532 1.353 . S
C1534 C1537 1.348 . S
C1534 H1572 0.929 . S
N1535 Li1490 1.990 . S
N1535 C1532 1.314 . S
N1535 C1533 1.279 . S
C1536 C1533 1.358 . S
C1536 C1537 1.356 . S
C1536 H1573 0.930 . S
C1537 C1534 1.348 . S
C1537 C1536 1.356 . S
H1538 C1532 0.930 . S
H1539 C1533 0.930 . S
C1540 N1541 1.314 . S
C1540 C1542 1.353 . S
C1540 H1546 0.930 . S
N1541 Li1491 1.990 . S
N1541 C1540 1.314 . S
N1541 C1544 1.279 . S
C1542 C1540 1.353 . S
C1542 C1545 1.348 . S
C1542 H1574 0.929 . S
C1543 C1544 1.358 . S
C1543 C1545 1.356 . S
C1543 H1575 0.930 . S
C1544 N1541 1.279 . S
C1544 C1543 1.358 . S
C1544 H1547 0.930 . S
C1545 C1542 1.348 . S
C1545 C1543 1.356 . S
H1546 C1540 0.930 . S
H1547 C1544 0.930 . S
O1548 Li1488 1.956 . S
O1548 Li1489 1.970 . S
O1548 Li1490 1.961 . S
O1548 C1492 1.325 . S
O1549 Li1488 1.970 . S
O1549 Li1489 1.956 . S
O1549 Li1491 1.961 . S
O1549 C1498 1.325 . S
O1550 Li1488 1.961 . S
O1550 Li1490 1.956 . S
O1550 Li1491 1.970 . S
O1550 C1520 1.325 . S
O1551 Li1489 1.961 . S
O1551 Li1490 1.970 . S
O1551 Li1491 1.956 . S
O1551 C1526 1.325 . S
H1552 C1494 0.929 . S
H1553 C1495 0.930 . S
H1554 C1496 0.930 . S
H1555 C1497 0.930 . S
H1556 C1499 0.930 . S
H1557 C1501 0.929 . S
H1558 C1502 0.930 . S
H1559 C1503 0.930 . S
H1560 C1506 0.930 . S
H1561 C1509 0.929 . S
H1562 C1514 0.929 . S
H1563 C1515 0.930 . S
H1564 C1522 0.929 . S
H1565 C1523 0.930 . S
H1566 C1524 0.930 . S
H1567 C1525 0.930 . S
H1568 C1527 0.929 . S
H1569 C1528 0.930 . S
H1570 C1529 0.930 . S
H1571 C1530 0.930 . S
H1572 C1534 0.929 . S
H1573 C1536 0.930 . S
H1574 C1542 0.929 . S
H1575 C1543 0.930 . S
Li1576 N1593 1.990 . S
Li1576 O1636 1.956 . S
Li1576 O1637 1.970 1_565 S
Li1576 O1638 1.961 . S
Li1577 N1601 1.990 . S
Li1577 O1636 1.970 1_545 S
Li1577 O1637 1.956 . S
Li1577 O1639 1.961 . S
Li1578 N1623 1.990 . S
Li1578 O1636 1.961 . S
Li1578 O1638 1.956 . S
Li1578 O1639 1.970 1_565 S
Li1579 N1629 1.990 . S
Li1579 O1637 1.961 . S
Li1579 O1638 1.970 1_545 S
Li1579 O1639 1.956 . S
C1580 C1582 1.348 . S
C1580 C1583 1.356 . S
C1580 O1636 1.325 . S
N1581 C1584 1.314 . S
N1581 C1585 1.279 . S
C1582 C1580 1.348 . S
C1582 C1584 1.353 . S
C1582 H1640 0.929 . S
C1583 C1580 1.356 . S
C1583 C1585 1.358 . S
C1583 H1641 0.930 . S
C1584 N1581 1.314 . S
C1584 C1582 1.353 . S
C1584 H1642 0.930 . S
C1585 N1581 1.279 . S
C1585 C1583 1.358 . S
C1585 H1643 0.930 . S
C1586 C1589 1.348 1_545 S
C1586 C1590 1.356 . S
C1586 O1637 1.325 . S
C1587 N1588 1.279 . S
C1587 C1590 1.358 . S
C1587 H1644 0.930 . S
N1588 C1587 1.279 . S
N1588 C1591 1.314 1_545 S
C1589 C1586 1.348 1_565 S
C1589 C1591 1.353 . S
C1589 H1645 0.929 . S
C1590 C1586 1.356 . S
C1590 C1587 1.358 . S
C1590 H1646 0.930 . S
C1591 N1588 1.314 1_565 S
C1591 C1589 1.353 . S
C1591 H1647 0.930 . S
C1592 N1593 1.314 . S
C1592 C1597 1.353 . S
C1592 H1598 0.930 . S
N1593 Li1576 1.990 . S
N1593 C1592 1.314 . S
N1593 C1595 1.279 . S
C1594 C1595 1.358 . S
C1594 C1596 1.356 . S
C1594 H1648 0.930 . S
C1595 N1593 1.279 . S
C1595 C1594 1.358 . S
C1595 H1599 0.930 . S
C1596 C1594 1.356 . S
C1596 C1597 1.348 . S
C1597 C1592 1.353 . S
C1597 C1596 1.348 . S
C1597 H1649 0.929 . S
H1598 C1592 0.930 . S
H1599 C1595 0.930 . S
C1600 N1601 1.314 . S
C1600 C1602 1.353 . S
C1600 H1606 0.930 . S
N1601 Li1577 1.990 . S
N1601 C1600 1.314 . S
N1601 C1604 1.279 . S
C1602 C1600 1.353 . S
C1602 C1605 1.348 . S
C1602 H1650 0.929 . S
C1603 C1604 1.358 . S
C1603 C1605 1.356 . S
C1603 H1651 0.930 . S
C1604 N1601 1.279 . S
C1604 C1603 1.358 . S
C1604 H1607 0.930 . S
C1605 C1602 1.348 . S
C1605 C1603 1.356 . S
H1606 C1600 0.930 . S
H1607 C1604 0.930 . S
C1608 C1610 1.348 1_565 S
C1608 C1611 1.356 . S
C1608 O1638 1.325 . S
N1609 C1612 1.314 1_565 S
N1609 C1613 1.279 . S
C1610 C1608 1.348 1_545 S
C1610 C1612 1.353 . S
C1610 H1652 0.929 . S
C1611 C1608 1.356 . S
C1611 C1613 1.358 . S
C1611 H1653 0.930 . S
C1612 N1609 1.314 1_545 S
C1612 C1610 1.353 . S
C1612 H1654 0.930 . S
C1613 N1609 1.279 . S
C1613 C1611 1.358 . S
C1613 H1655 0.930 . S
C1614 C1615 1.348 . S
C1614 C1616 1.356 . S
C1614 O1639 1.325 . S
C1615 C1614 1.348 . S
C1615 C1617 1.353 . S
C1615 H1656 0.929 . S
C1616 C1614 1.356 . S
C1616 C1618 1.358 . S
C1616 H1657 0.930 . S
C1617 C1615 1.353 . S
C1617 N1619 1.314 . S
C1617 H1658 0.930 . S
C1618 C1616 1.358 . S
C1618 N1619 1.279 . S
C1618 H1659 0.930 . S
N1619 C1617 1.314 . S
N1619 C1618 1.279 . S
C1620 C1622 1.353 . S
C1620 N1623 1.314 . S
C1620 H1626 0.930 . S
C1621 N1623 1.279 . S
C1621 C1624 1.358 . S
C1621 H1627 0.930 . S
C1622 C1620 1.353 . S
C1622 C1625 1.348 . S
C1622 H1660 0.929 . S
N1623 Li1578 1.990 . S
N1623 C1620 1.314 . S
N1623 C1621 1.279 . S
C1624 C1621 1.358 . S
C1624 C1625 1.356 . S
C1624 H1661 0.930 . S
C1625 C1622 1.348 . S
C1625 C1624 1.356 . S
H1626 C1620 0.930 . S
H1627 C1621 0.930 . S
C1628 N1629 1.314 . S
C1628 C1630 1.353 . S
C1628 H1634 0.930 . S
N1629 Li1579 1.990 . S
N1629 C1628 1.314 . S
N1629 C1632 1.279 . S
C1630 C1628 1.353 . S
C1630 C1633 1.348 . S
C1630 H1662 0.929 . S
C1631 C1632 1.358 . S
C1631 C1633 1.356 . S
C1631 H1663 0.930 . S
C1632 N1629 1.279 . S
C1632 C1631 1.358 . S
C1632 H1635 0.930 . S
C1633 C1630 1.348 . S
C1633 C1631 1.356 . S
H1634 C1628 0.930 . S
H1635 C1632 0.930 . S
O1636 Li1576 1.956 . S
O1636 Li1577 1.970 1_565 S
O1636 Li1578 1.961 . S
O1636 C1580 1.325 . S
O1637 Li1576 1.970 1_545 S
O1637 Li1577 1.956 . S
O1637 Li1579 1.961 . S
O1637 C1586 1.325 . S
O1638 Li1576 1.961 . S
O1638 Li1578 1.956 . S
O1638 Li1579 1.970 1_565 S
O1638 C1608 1.325 . S
O1639 Li1577 1.961 . S
O1639 Li1578 1.970 1_545 S
O1639 Li1579 1.956 . S
O1639 C1614 1.325 . S
H1640 C1582 0.929 . S
H1641 C1583 0.930 . S
H1642 C1584 0.930 . S
H1643 C1585 0.930 . S
H1644 C1587 0.930 . S
H1645 C1589 0.929 . S
H1646 C1590 0.930 . S
H1647 C1591 0.930 . S
H1648 C1594 0.930 . S
H1649 C1597 0.929 . S
H1650 C1602 0.929 . S
H1651 C1603 0.930 . S
H1652 C1610 0.929 . S
H1653 C1611 0.930 . S
H1654 C1612 0.930 . S
H1655 C1613 0.930 . S
H1656 C1615 0.929 . S
H1657 C1616 0.930 . S
H1658 C1617 0.930 . S
H1659 C1618 0.930 . S
H1660 C1622 0.929 . S
H1661 C1624 0.930 . S
H1662 C1630 0.929 . S
H1663 C1631 0.930 . S
Li1664 N1681 1.990 . S
Li1664 O1724 1.956 . S
Li1664 O1725 1.970 1_455 S
Li1664 O1726 1.961 . S
Li1665 N1689 1.990 . S
Li1665 O1724 1.970 1_655 S
Li1665 O1725 1.956 . S
Li1665 O1727 1.961 . S
Li1666 N1711 1.990 . S
Li1666 O1724 1.961 . S
Li1666 O1726 1.956 . S
Li1666 O1727 1.970 1_455 S
Li1667 N1717 1.990 . S
Li1667 O1725 1.961 . S
Li1667 O1726 1.970 1_655 S
Li1667 O1727 1.956 . S
C1668 C1670 1.348 . S
C1668 C1671 1.356 . S
C1668 O1724 1.325 . S
N1669 C1672 1.314 . S
N1669 C1673 1.279 . S
C1670 C1668 1.348 . S
C1670 C1672 1.353 . S
C1670 H1728 0.929 . S
C1671 C1668 1.356 . S
C1671 C1673 1.358 . S
C1671 H1729 0.930 . S
C1672 N1669 1.314 . S
C1672 C1670 1.353 . S
C1672 H1730 0.930 . S
C1673 N1669 1.279 . S
C1673 C1671 1.358 . S
C1673 H1731 0.930 . S
C1674 C1677 1.348 1_655 S
C1674 C1678 1.356 . S
C1674 O1725 1.325 . S
C1675 N1676 1.279 . S
C1675 C1678 1.358 . S
C1675 H1732 0.930 . S
N1676 C1675 1.279 . S
N1676 C1679 1.314 1_655 S
C1677 C1674 1.348 1_455 S
C1677 C1679 1.353 . S
C1677 H1733 0.929 . S
C1678 C1674 1.356 . S
C1678 C1675 1.358 . S
C1678 H1734 0.930 . S
C1679 N1676 1.314 1_455 S
C1679 C1677 1.353 . S
C1679 H1735 0.930 . S
C1680 N1681 1.314 . S
C1680 C1685 1.353 . S
C1680 H1686 0.930 . S
N1681 Li1664 1.990 . S
N1681 C1680 1.314 . S
N1681 C1683 1.279 . S
C1682 C1683 1.358 . S
C1682 C1684 1.356 . S
C1682 H1736 0.930 . S
C1683 N1681 1.279 . S
C1683 C1682 1.358 . S
C1683 H1687 0.930 . S
C1684 C1682 1.356 . S
C1684 C1685 1.348 . S
C1685 C1680 1.353 . S
C1685 C1684 1.348 . S
C1685 H1737 0.929 . S
H1686 C1680 0.930 . S
H1687 C1683 0.930 . S
C1688 N1689 1.314 . S
C1688 C1690 1.353 . S
C1688 H1694 0.930 . S
N1689 Li1665 1.990 . S
N1689 C1688 1.314 . S
N1689 C1692 1.279 . S
C1690 C1688 1.353 . S
C1690 C1693 1.348 . S
C1690 H1738 0.929 . S
C1691 C1692 1.358 . S
C1691 C1693 1.356 . S
C1691 H1739 0.930 . S
C1692 N1689 1.279 . S
C1692 C1691 1.358 . S
C1692 H1695 0.930 . S
C1693 C1690 1.348 . S
C1693 C1691 1.356 . S
H1694 C1688 0.930 . S
H1695 C1692 0.930 . S
C1696 C1698 1.348 1_455 S
C1696 C1699 1.356 . S
C1696 O1726 1.325 . S
N1697 C1700 1.314 1_455 S
N1697 C1701 1.279 . S
C1698 C1696 1.348 1_655 S
C1698 C1700 1.353 . S
C1698 H1740 0.929 . S
C1699 C1696 1.356 . S
C1699 C1701 1.358 . S
C1699 H1741 0.930 . S
C1700 N1697 1.314 1_655 S
C1700 C1698 1.353 . S
C1700 H1742 0.930 . S
C1701 N1697 1.279 . S
C1701 C1699 1.358 . S
C1701 H1743 0.930 . S
C1702 C1703 1.348 . S
C1702 C1704 1.356 . S
C1702 O1727 1.325 . S
C1703 C1702 1.348 . S
C1703 C1705 1.353 . S
C1703 H1744 0.929 . S
C1704 C1702 1.356 . S
C1704 C1706 1.358 . S
C1704 H1745 0.930 . S
C1705 C1703 1.353 . S
C1705 N1707 1.314 . S
C1705 H1746 0.930 . S
C1706 C1704 1.358 . S
C1706 N1707 1.279 . S
C1706 H1747 0.930 . S
N1707 C1705 1.314 . S
N1707 C1706 1.279 . S
C1708 C1710 1.353 . S
C1708 N1711 1.314 . S
C1708 H1714 0.930 . S
C1709 N1711 1.279 . S
C1709 C1712 1.358 . S
C1709 H1715 0.930 . S
C1710 C1708 1.353 . S
C1710 C1713 1.348 . S
C1710 H1748 0.929 . S
N1711 Li1666 1.990 . S
N1711 C1708 1.314 . S
N1711 C1709 1.279 . S
C1712 C1709 1.358 . S
C1712 C1713 1.356 . S
C1712 H1749 0.930 . S
C1713 C1710 1.348 . S
C1713 C1712 1.356 . S
H1714 C1708 0.930 . S
H1715 C1709 0.930 . S
C1716 N1717 1.314 . S
C1716 C1718 1.353 . S
C1716 H1722 0.930 . S
N1717 Li1667 1.990 . S
N1717 C1716 1.314 . S
N1717 C1720 1.279 . S
C1718 C1716 1.353 . S
C1718 C1721 1.348 . S
C1718 H1750 0.929 . S
C1719 C1720 1.358 . S
C1719 C1721 1.356 . S
C1719 H1751 0.930 . S
C1720 N1717 1.279 . S
C1720 C1719 1.358 . S
C1720 H1723 0.930 . S
C1721 C1718 1.348 . S
C1721 C1719 1.356 . S
H1722 C1716 0.930 . S
H1723 C1720 0.930 . S
O1724 Li1664 1.956 . S
O1724 Li1665 1.970 1_455 S
O1724 Li1666 1.961 . S
O1724 C1668 1.325 . S
O1725 Li1664 1.970 1_655 S
O1725 Li1665 1.956 . S
O1725 Li1667 1.961 . S
O1725 C1674 1.325 . S
O1726 Li1664 1.961 . S
O1726 Li1666 1.956 . S
O1726 Li1667 1.970 1_455 S
O1726 C1696 1.325 . S
O1727 Li1665 1.961 . S
O1727 Li1666 1.970 1_655 S
O1727 Li1667 1.956 . S
O1727 C1702 1.325 . S
H1728 C1670 0.929 . S
H1729 C1671 0.930 . S
H1730 C1672 0.930 . S
H1731 C1673 0.930 . S
H1732 C1675 0.930 . S
H1733 C1677 0.929 . S
H1734 C1678 0.930 . S
H1735 C1679 0.930 . S
H1736 C1682 0.930 . S
H1737 C1685 0.929 . S
H1738 C1690 0.929 . S
H1739 C1691 0.930 . S
H1740 C1698 0.929 . S
H1741 C1699 0.930 . S
H1742 C1700 0.930 . S
H1743 C1701 0.930 . S
H1744 C1703 0.929 . S
H1745 C1704 0.930 . S
H1746 C1705 0.930 . S
H1747 C1706 0.930 . S
H1748 C1710 0.929 . S
H1749 C1712 0.930 . S
H1750 C1718 0.929 . S
H1751 C1719 0.930 . S
Li1752 N1769 1.990 . S
Li1752 O1812 1.956 . S
Li1752 O1813 1.970 . S
Li1752 O1814 1.961 . S
Li1753 N1777 1.990 . S
Li1753 O1812 1.970 . S
Li1753 O1813 1.956 . S
Li1753 O1815 1.961 . S
Li1754 N1799 1.990 . S
Li1754 O1812 1.961 . S
Li1754 O1814 1.956 . S
Li1754 O1815 1.970 . S
Li1755 N1805 1.990 . S
Li1755 O1813 1.961 . S
Li1755 O1814 1.970 . S
Li1755 O1815 1.956 . S
C1756 C1758 1.348 . S
C1756 C1759 1.356 . S
C1756 O1812 1.325 . S
N1757 C1760 1.314 . S
N1757 C1761 1.279 . S
C1758 C1756 1.348 . S
C1758 C1760 1.353 . S
C1758 H1816 0.929 . S
C1759 C1756 1.356 . S
C1759 C1761 1.358 . S
C1759 H1817 0.930 . S
C1760 N1757 1.314 . S
C1760 C1758 1.353 . S
C1760 H1818 0.930 . S
C1761 N1757 1.279 . S
C1761 C1759 1.358 . S
C1761 H1819 0.930 . S
C1762 C1765 1.348 . S
C1762 C1766 1.356 . S
C1762 O1813 1.325 . S
C1763 N1764 1.279 . S
C1763 C1766 1.358 . S
C1763 H1820 0.930 . S
N1764 C1763 1.279 . S
N1764 C1767 1.314 . S
C1765 C1762 1.348 . S
C1765 C1767 1.353 . S
C1765 H1821 0.929 . S
C1766 C1762 1.356 . S
C1766 C1763 1.358 . S
C1766 H1822 0.930 . S
C1767 N1764 1.314 . S
C1767 C1765 1.353 . S
C1767 H1823 0.930 . S
C1768 N1769 1.314 . S
C1768 C1773 1.353 . S
C1768 H1774 0.930 . S
N1769 Li1752 1.990 . S
N1769 C1768 1.314 . S
N1769 C1771 1.279 . S
C1770 C1771 1.358 . S
C1770 C1772 1.356 . S
C1770 H1824 0.930 . S
C1771 N1769 1.279 . S
C1771 C1770 1.358 . S
C1771 H1775 0.930 . S
C1772 C1770 1.356 . S
C1772 C1773 1.348 . S
C1773 C1768 1.353 . S
C1773 C1772 1.348 . S
C1773 H1825 0.929 . S
H1774 C1768 0.930 . S
H1775 C1771 0.930 . S
C1776 N1777 1.314 . S
C1776 C1778 1.353 . S
C1776 H1782 0.930 . S
N1777 Li1753 1.990 . S
N1777 C1776 1.314 . S
N1777 C1780 1.279 . S
C1778 C1776 1.353 . S
C1778 C1781 1.348 . S
C1778 H1826 0.929 . S
C1779 C1780 1.358 . S
C1779 C1781 1.356 . S
C1779 H1827 0.930 . S
C1780 N1777 1.279 . S
C1780 C1779 1.358 . S
C1780 H1783 0.930 . S
C1781 C1778 1.348 . S
C1781 C1779 1.356 . S
H1782 C1776 0.930 . S
H1783 C1780 0.930 . S
C1784 C1786 1.348 . S
C1784 C1787 1.356 . S
C1784 O1814 1.325 . S
N1785 C1788 1.314 . S
N1785 C1789 1.279 . S
C1786 C1784 1.348 . S
C1786 C1788 1.353 . S
C1786 H1828 0.929 . S
C1787 C1784 1.356 . S
C1787 C1789 1.358 . S
C1787 H1829 0.930 . S
C1788 N1785 1.314 . S
C1788 C1786 1.353 . S
C1788 H1830 0.930 . S
C1789 N1785 1.279 . S
C1789 C1787 1.358 . S
C1789 H1831 0.930 . S
C1790 C1791 1.348 . S
C1790 C1792 1.356 . S
C1790 O1815 1.325 . S
C1791 C1790 1.348 . S
C1791 C1793 1.353 . S
C1791 H1832 0.929 . S
C1792 C1790 1.356 . S
C1792 C1794 1.358 . S
C1792 H1833 0.930 . S
C1793 C1791 1.353 . S
C1793 N1795 1.314 . S
C1793 H1834 0.930 . S
C1794 C1792 1.358 . S
C1794 N1795 1.279 . S
C1794 H1835 0.930 . S
N1795 C1793 1.314 . S
N1795 C1794 1.279 . S
C1796 C1798 1.353 . S
C1796 N1799 1.314 . S
C1796 H1802 0.930 . S
C1797 N1799 1.279 . S
C1797 C1800 1.358 . S
C1797 H1803 0.930 . S
C1798 C1796 1.353 . S
C1798 C1801 1.348 . S
C1798 H1836 0.929 . S
N1799 Li1754 1.990 . S
N1799 C1796 1.314 . S
N1799 C1797 1.279 . S
C1800 C1797 1.358 . S
C1800 C1801 1.356 . S
C1800 H1837 0.930 . S
C1801 C1798 1.348 . S
C1801 C1800 1.356 . S
H1802 C1796 0.930 . S
H1803 C1797 0.930 . S
C1804 N1805 1.314 . S
C1804 C1806 1.353 . S
C1804 H1810 0.930 . S
N1805 Li1755 1.990 . S
N1805 C1804 1.314 . S
N1805 C1808 1.279 . S
C1806 C1804 1.353 . S
C1806 C1809 1.348 . S
C1806 H1838 0.929 . S
C1807 C1808 1.358 . S
C1807 C1809 1.356 . S
C1807 H1839 0.930 . S
C1808 N1805 1.279 . S
C1808 C1807 1.358 . S
C1808 H1811 0.930 . S
C1809 C1806 1.348 . S
C1809 C1807 1.356 . S
H1810 C1804 0.930 . S
H1811 C1808 0.930 . S
O1812 Li1752 1.956 . S
O1812 Li1753 1.970 . S
O1812 Li1754 1.961 . S
O1812 C1756 1.325 . S
O1813 Li1752 1.970 . S
O1813 Li1753 1.956 . S
O1813 Li1755 1.961 . S
O1813 C1762 1.325 . S
O1814 Li1752 1.961 . S
O1814 Li1754 1.956 . S
O1814 Li1755 1.970 . S
O1814 C1784 1.325 . S
O1815 Li1753 1.961 . S
O1815 Li1754 1.970 . S
O1815 Li1755 1.956 . S
O1815 C1790 1.325 . S
H1816 C1758 0.929 . S
H1817 C1759 0.930 . S
H1818 C1760 0.930 . S
H1819 C1761 0.930 . S
H1820 C1763 0.930 . S
H1821 C1765 0.929 . S
H1822 C1766 0.930 . S
H1823 C1767 0.930 . S
H1824 C1770 0.930 . S
H1825 C1773 0.929 . S
H1826 C1778 0.929 . S
H1827 C1779 0.930 . S
H1828 C1786 0.929 . S
H1829 C1787 0.930 . S
H1830 C1788 0.930 . S
H1831 C1789 0.930 . S
H1832 C1791 0.929 . S
H1833 C1792 0.930 . S
H1834 C1793 0.930 . S
H1835 C1794 0.930 . S
H1836 C1798 0.929 . S
H1837 C1800 0.930 . S
H1838 C1806 0.929 . S
H1839 C1807 0.930 . S
Li1840 N1857 1.990 . S
Li1840 O1900 1.956 . S
Li1840 O1901 1.970 1_455 S
Li1840 O1902 1.961 . S
Li1841 N1865 1.990 . S
Li1841 O1900 1.970 1_655 S
Li1841 O1901 1.956 . S
Li1841 O1903 1.961 . S
Li1842 N1887 1.990 . S
Li1842 O1900 1.961 . S
Li1842 O1902 1.956 . S
Li1842 O1903 1.970 1_455 S
Li1843 N1893 1.990 . S
Li1843 O1901 1.961 . S
Li1843 O1902 1.970 1_655 S
Li1843 O1903 1.956 . S
C1844 C1846 1.348 1_455 S
C1844 C1847 1.356 . S
C1844 O1900 1.325 . S
N1845 C1848 1.314 1_455 S
N1845 C1849 1.279 . S
C1846 C1844 1.348 1_655 S
C1846 C1848 1.353 . S
C1846 H1904 0.929 . S
C1847 C1844 1.356 . S
C1847 C1849 1.358 . S
C1847 H1905 0.930 . S
C1848 N1845 1.314 1_655 S
C1848 C1846 1.353 . S
C1848 H1906 0.930 . S
C1849 N1845 1.279 . S
C1849 C1847 1.358 . S
C1849 H1907 0.930 . S
C1850 C1853 1.348 . S
C1850 C1854 1.356 . S
C1850 O1901 1.325 . S
C1851 N1852 1.279 . S
C1851 C1854 1.358 . S
C1851 H1908 0.930 . S
N1852 C1851 1.279 . S
N1852 C1855 1.314 . S
C1853 C1850 1.348 . S
C1853 C1855 1.353 . S
C1853 H1909 0.929 . S
C1854 C1850 1.356 . S
C1854 C1851 1.358 . S
C1854 H1910 0.930 . S
C1855 N1852 1.314 . S
C1855 C1853 1.353 . S
C1855 H1911 0.930 . S
C1856 N1857 1.314 . S
C1856 C1861 1.353 . S
C1856 H1862 0.930 . S
N1857 Li1840 1.990 . S
N1857 C1856 1.314 . S
N1857 C1859 1.279 . S
C1858 C1859 1.358 . S
C1858 C1860 1.356 . S
C1858 H1912 0.930 . S
C1859 N1857 1.279 . S
C1859 C1858 1.358 . S
C1859 H1863 0.930 . S
C1860 C1858 1.356 . S
C1860 C1861 1.348 . S
C1861 C1856 1.353 . S
C1861 C1860 1.348 . S
C1861 H1913 0.929 . S
H1862 C1856 0.930 . S
H1863 C1859 0.930 . S
C1864 N1865 1.314 . S
C1864 C1866 1.353 . S
C1864 H1870 0.930 . S
N1865 Li1841 1.990 . S
N1865 C1864 1.314 . S
N1865 C1868 1.279 . S
C1866 C1864 1.353 . S
C1866 C1869 1.348 . S
C1866 H1914 0.929 . S
C1867 C1868 1.358 . S
C1867 C1869 1.356 . S
C1867 H1915 0.930 . S
C1868 N1865 1.279 . S
C1868 C1867 1.358 . S
C1868 H1871 0.930 . S
C1869 C1866 1.348 . S
C1869 C1867 1.356 . S
H1870 C1864 0.930 . S
H1871 C1868 0.930 . S
C1872 C1874 1.348 . S
C1872 C1875 1.356 . S
C1872 O1902 1.325 . S
N1873 C1876 1.314 . S
N1873 C1877 1.279 . S
C1874 C1872 1.348 . S
C1874 C1876 1.353 . S
C1874 H1916 0.929 . S
C1875 C1872 1.356 . S
C1875 C1877 1.358 . S
C1875 H1917 0.930 . S
C1876 N1873 1.314 . S
C1876 C1874 1.353 . S
C1876 H1918 0.930 . S
C1877 N1873 1.279 . S
C1877 C1875 1.358 . S
C1877 H1919 0.930 . S
C1878 C1879 1.348 1_655 S
C1878 C1880 1.356 . S
C1878 O1903 1.325 . S
C1879 C1878 1.348 1_455 S
C1879 C1881 1.353 . S
C1879 H1920 0.929 . S
C1880 C1878 1.356 . S
C1880 C1882 1.358 . S
C1880 H1921 0.930 . S
C1881 C1879 1.353 . S
C1881 N1883 1.314 1_455 S
C1881 H1922 0.930 . S
C1882 C1880 1.358 . S
C1882 N1883 1.279 . S
C1882 H1923 0.930 . S
N1883 C1881 1.314 1_655 S
N1883 C1882 1.279 . S
C1884 C1886 1.353 . S
C1884 N1887 1.314 . S
C1884 H1890 0.930 . S
C1885 N1887 1.279 . S
C1885 C1888 1.358 . S
C1885 H1891 0.930 . S
C1886 C1884 1.353 . S
C1886 C1889 1.348 . S
C1886 H1924 0.929 . S
N1887 Li1842 1.990 . S
N1887 C1884 1.314 . S
N1887 C1885 1.279 . S
C1888 C1885 1.358 . S
C1888 C1889 1.356 . S
C1888 H1925 0.930 . S
C1889 C1886 1.348 . S
C1889 C1888 1.356 . S
H1890 C1884 0.930 . S
H1891 C1885 0.930 . S
C1892 N1893 1.314 . S
C1892 C1894 1.353 . S
C1892 H1898 0.930 . S
N1893 Li1843 1.990 . S
N1893 C1892 1.314 . S
N1893 C1896 1.279 . S
C1894 C1892 1.353 . S
C1894 C1897 1.348 . S
C1894 H1926 0.929 . S
C1895 C1896 1.358 . S
C1895 C1897 1.356 . S
C1895 H1927 0.930 . S
C1896 N1893 1.279 . S
C1896 C1895 1.358 . S
C1896 H1899 0.930 . S
C1897 C1894 1.348 . S
C1897 C1895 1.356 . S
H1898 C1892 0.930 . S
H1899 C1896 0.930 . S
O1900 Li1840 1.956 . S
O1900 Li1841 1.970 1_455 S
O1900 Li1842 1.961 . S
O1900 C1844 1.325 . S
O1901 Li1840 1.970 1_655 S
O1901 Li1841 1.956 . S
O1901 Li1843 1.961 . S
O1901 C1850 1.325 . S
O1902 Li1840 1.961 . S
O1902 Li1842 1.956 . S
O1902 Li1843 1.970 1_455 S
O1902 C1872 1.325 . S
O1903 Li1841 1.961 . S
O1903 Li1842 1.970 1_655 S
O1903 Li1843 1.956 . S
O1903 C1878 1.325 . S
H1904 C1846 0.929 . S
H1905 C1847 0.930 . S
H1906 C1848 0.930 . S
H1907 C1849 0.930 . S
H1908 C1851 0.930 . S
H1909 C1853 0.929 . S
H1910 C1854 0.930 . S
H1911 C1855 0.930 . S
H1912 C1858 0.930 . S
H1913 C1861 0.929 . S
H1914 C1866 0.929 . S
H1915 C1867 0.930 . S
H1916 C1874 0.929 . S
H1917 C1875 0.930 . S
H1918 C1876 0.930 . S
H1919 C1877 0.930 . S
H1920 C1879 0.929 . S
H1921 C1880 0.930 . S
H1922 C1881 0.930 . S
H1923 C1882 0.930 . S
H1924 C1886 0.929 . S
H1925 C1888 0.930 . S
H1926 C1894 0.929 . S
H1927 C1895 0.930 . S
Li1928 N1945 1.990 . S
Li1928 O1988 1.956 . S
Li1928 O1989 1.970 . S
Li1928 O1990 1.961 . S
Li1929 N1953 1.990 . S
Li1929 O1988 1.970 . S
Li1929 O1989 1.956 . S
Li1929 O1991 1.961 . S
Li1930 N1975 1.990 . S
Li1930 O1988 1.961 . S
Li1930 O1990 1.956 . S
Li1930 O1991 1.970 . S
Li1931 N1981 1.990 . S
Li1931 O1989 1.961 . S
Li1931 O1990 1.970 . S
Li1931 O1991 1.956 . S
C1932 C1934 1.348 . S
C1932 C1935 1.356 . S
C1932 O1988 1.325 . S
N1933 C1936 1.314 . S
N1933 C1937 1.279 . S
C1934 C1932 1.348 . S
C1934 C1936 1.353 . S
C1934 H1992 0.929 . S
C1935 C1932 1.356 . S
C1935 C1937 1.358 . S
C1935 H1993 0.930 . S
C1936 N1933 1.314 . S
C1936 C1934 1.353 . S
C1936 H1994 0.930 . S
C1937 N1933 1.279 . S
C1937 C1935 1.358 . S
C1937 H1995 0.930 . S
C1938 C1941 1.348 . S
C1938 C1942 1.356 . S
C1938 O1989 1.325 . S
C1939 N1940 1.279 . S
C1939 C1942 1.358 . S
C1939 H1996 0.930 . S
N1940 C1939 1.279 . S
N1940 C1943 1.314 . S
C1941 C1938 1.348 . S
C1941 C1943 1.353 . S
C1941 H1997 0.929 . S
C1942 C1938 1.356 . S
C1942 C1939 1.358 . S
C1942 H1998 0.930 . S
C1943 N1940 1.314 . S
C1943 C1941 1.353 . S
C1943 H1999 0.930 . S
C1944 N1945 1.314 . S
C1944 C1949 1.353 . S
C1944 H1950 0.930 . S
N1945 Li1928 1.990 . S
N1945 C1944 1.314 . S
N1945 C1947 1.279 . S
C1946 C1947 1.358 . S
C1946 C1948 1.356 . S
C1946 H2000 0.930 . S
C1947 N1945 1.279 . S
C1947 C1946 1.358 . S
C1947 H1951 0.930 . S
C1948 C1946 1.356 . S
C1948 C1949 1.348 . S
C1949 C1944 1.353 . S
C1949 C1948 1.348 . S
C1949 H2001 0.929 . S
H1950 C1944 0.930 . S
H1951 C1947 0.930 . S
C1952 N1953 1.314 . S
C1952 C1954 1.353 . S
C1952 H1958 0.930 . S
N1953 Li1929 1.990 . S
N1953 C1952 1.314 . S
N1953 C1956 1.279 . S
C1954 C1952 1.353 . S
C1954 C1957 1.348 . S
C1954 H2002 0.929 . S
C1955 C1956 1.358 . S
C1955 C1957 1.356 . S
C1955 H2003 0.930 . S
C1956 N1953 1.279 . S
C1956 C1955 1.358 . S
C1956 H1959 0.930 . S
C1957 C1954 1.348 . S
C1957 C1955 1.356 . S
H1958 C1952 0.930 . S
H1959 C1956 0.930 . S
C1960 C1962 1.348 . S
C1960 C1963 1.356 . S
C1960 O1990 1.325 . S
N1961 C1964 1.314 . S
N1961 C1965 1.279 . S
C1962 C1960 1.348 . S
C1962 C1964 1.353 . S
C1962 H2004 0.929 . S
C1963 C1960 1.356 . S
C1963 C1965 1.358 . S
C1963 H2005 0.930 . S
C1964 N1961 1.314 . S
C1964 C1962 1.353 . S
C1964 H2006 0.930 . S
C1965 N1961 1.279 . S
C1965 C1963 1.358 . S
C1965 H2007 0.930 . S
C1966 C1967 1.348 . S
C1966 C1968 1.356 . S
C1966 O1991 1.325 . S
C1967 C1966 1.348 . S
C1967 C1969 1.353 . S
C1967 H2008 0.929 . S
C1968 C1966 1.356 . S
C1968 C1970 1.358 . S
C1968 H2009 0.930 . S
C1969 C1967 1.353 . S
C1969 N1971 1.314 . S
C1969 H2010 0.930 . S
C1970 C1968 1.358 . S
C1970 N1971 1.279 . S
C1970 H2011 0.930 . S
N1971 C1969 1.314 . S
N1971 C1970 1.279 . S
C1972 C1974 1.353 . S
C1972 N1975 1.314 . S
C1972 H1978 0.930 . S
C1973 N1975 1.279 . S
C1973 C1976 1.358 . S
C1973 H1979 0.930 . S
C1974 C1972 1.353 . S
C1974 C1977 1.348 . S
C1974 H2012 0.929 . S
N1975 Li1930 1.990 . S
N1975 C1972 1.314 . S
N1975 C1973 1.279 . S
C1976 C1973 1.358 . S
C1976 C1977 1.356 . S
C1976 H2013 0.930 . S
C1977 C1974 1.348 . S
C1977 C1976 1.356 . S
H1978 C1972 0.930 . S
H1979 C1973 0.930 . S
C1980 N1981 1.314 . S
C1980 C1982 1.353 . S
C1980 H1986 0.930 . S
N1981 Li1931 1.990 . S
N1981 C1980 1.314 . S
N1981 C1984 1.279 . S
C1982 C1980 1.353 . S
C1982 C1985 1.348 . S
C1982 H2014 0.929 . S
C1983 C1984 1.358 . S
C1983 C1985 1.356 . S
C1983 H2015 0.930 . S
C1984 N1981 1.279 . S
C1984 C1983 1.358 . S
C1984 H1987 0.930 . S
C1985 C1982 1.348 . S
C1985 C1983 1.356 . S
H1986 C1980 0.930 . S
H1987 C1984 0.930 . S
O1988 Li1928 1.956 . S
O1988 Li1929 1.970 . S
O1988 Li1930 1.961 . S
O1988 C1932 1.325 . S
O1989 Li1928 1.970 . S
O1989 Li1929 1.956 . S
O1989 Li1931 1.961 . S
O1989 C1938 1.325 . S
O1990 Li1928 1.961 . S
O1990 Li1930 1.956 . S
O1990 Li1931 1.970 . S
O1990 C1960 1.325 . S
O1991 Li1929 1.961 . S
O1991 Li1930 1.970 . S
O1991 Li1931 1.956 . S
O1991 C1966 1.325 . S
H1992 C1934 0.929 . S
H1993 C1935 0.930 . S
H1994 C1936 0.930 . S
H1995 C1937 0.930 . S
H1996 C1939 0.930 . S
H1997 C1941 0.929 . S
H1998 C1942 0.930 . S
H1999 C1943 0.930 . S
H2000 C1946 0.930 . S
H2001 C1949 0.929 . S
H2002 C1954 0.929 . S
H2003 C1955 0.930 . S
H2004 C1962 0.929 . S
H2005 C1963 0.930 . S
H2006 C1964 0.930 . S
H2007 C1965 0.930 . S
H2008 C1967 0.929 . S
H2009 C1968 0.930 . S
H2010 C1969 0.930 . S
H2011 C1970 0.930 . S
H2012 C1974 0.929 . S
H2013 C1976 0.930 . S
H2014 C1982 0.929 . S
H2015 C1983 0.930 . S
C2016 C2017 1.363 . S
C2016 C2022 1.379 . S
C2016 N2024 1.356 . S
C2017 C2016 1.363 . S
C2017 C2023 1.363 . S
C2018 C2019 1.363 . S
C2018 C2023 1.379 . S
C2018 N2025 1.356 . S
C2019 C2018 1.363 . S
C2019 C2022 1.363 . S
N2020 C2022 1.356 . S
N2020 H2032 0.984 . S
N2020 H2033 0.985 . S
N2021 C2023 1.356 . S
N2021 H2026 0.984 . S
N2021 H2027 0.985 . S
C2022 C2016 1.379 . S
C2022 C2019 1.363 . S
C2022 N2020 1.356 . S
C2023 C2017 1.363 . S
C2023 C2018 1.379 . S
C2023 N2021 1.356 . S
N2024 C2016 1.356 . S
N2024 H2030 0.984 . S
N2024 H2031 0.984 . S
N2025 C2018 1.356 . S
N2025 H2028 0.984 . S
N2025 H2029 0.985 . S
H2026 N2021 0.984 . S
H2027 N2021 0.985 . S
H2028 N2025 0.984 . S
H2029 N2025 0.985 . S
H2030 N2024 0.984 . S
H2031 N2024 0.984 . S
H2032 N2020 0.984 . S
H2033 N2020 0.985 . S
C2034 C2035 1.363 . S
C2034 C2040 1.379 . S
C2034 N2042 1.356 . S
C2035 C2034 1.363 . S
C2035 C2041 1.363 . S
C2036 C2037 1.363 . S
C2036 C2041 1.379 . S
C2036 N2043 1.356 . S
C2037 C2036 1.363 . S
C2037 C2040 1.363 . S
N2038 C2040 1.356 . S
N2038 H2050 0.984 . S
N2038 H2051 0.985 . S
N2039 C2041 1.356 . S
N2039 H2044 0.984 . S
N2039 H2045 0.985 . S
C2040 C2034 1.379 . S
C2040 C2037 1.363 . S
C2040 N2038 1.356 . S
C2041 C2035 1.363 . S
C2041 C2036 1.379 . S
C2041 N2039 1.356 . S
N2042 C2034 1.356 . S
N2042 H2048 0.984 . S
N2042 H2049 0.984 . S
N2043 C2036 1.356 . S
N2043 H2046 0.984 . S
N2043 H2047 0.985 . S
H2044 N2039 0.984 . S
H2045 N2039 0.985 . S
H2046 N2043 0.984 . S
H2047 N2043 0.985 . S
H2048 N2042 0.984 . S
H2049 N2042 0.984 . S
H2050 N2038 0.984 . S
H2051 N2038 0.985 . S
C2052 C2053 1.363 . S
C2052 C2058 1.379 . S
C2052 N2060 1.356 . S
C2053 C2052 1.363 . S
C2053 C2059 1.363 . S
C2054 C2055 1.363 . S
C2054 C2059 1.379 . S
C2054 N2061 1.356 . S
C2055 C2054 1.363 . S
C2055 C2058 1.363 . S
N2056 C2058 1.356 . S
N2056 H2068 0.984 . S
N2056 H2069 0.985 . S
N2057 C2059 1.356 . S
N2057 H2062 0.984 . S
N2057 H2063 0.985 . S
C2058 C2052 1.379 . S
C2058 C2055 1.363 . S
C2058 N2056 1.356 . S
C2059 C2053 1.363 . S
C2059 C2054 1.379 . S
C2059 N2057 1.356 . S
N2060 C2052 1.356 . S
N2060 H2066 0.984 . S
N2060 H2067 0.984 . S
N2061 C2054 1.356 . S
N2061 H2064 0.984 . S
N2061 H2065 0.985 . S
H2062 N2057 0.984 . S
H2063 N2057 0.985 . S
H2064 N2061 0.984 . S
H2065 N2061 0.985 . S
H2066 N2060 0.984 . S
H2067 N2060 0.984 . S
H2068 N2056 0.984 . S
H2069 N2056 0.985 . S
C2070 C2071 1.363 . S
C2070 C2076 1.379 . S
C2070 N2078 1.356 . S
C2071 C2070 1.363 . S
C2071 C2077 1.363 . S
C2072 C2073 1.363 1_545 S
C2072 C2077 1.379 1_545 S
C2072 N2079 1.356 . S
C2073 C2072 1.363 1_565 S
C2073 C2076 1.363 . S
N2074 C2076 1.356 . S
N2074 H2086 0.984 . S
N2074 H2087 0.985 . S
N2075 C2077 1.356 1_545 S
N2075 H2080 0.984 . S
N2075 H2081 0.985 . S
C2076 C2070 1.379 . S
C2076 C2073 1.363 . S
C2076 N2074 1.356 . S
C2077 C2071 1.363 . S
C2077 C2072 1.379 1_565 S
C2077 N2075 1.356 1_565 S
N2078 C2070 1.356 . S
N2078 H2084 0.984 . S
N2078 H2085 0.984 . S
N2079 C2072 1.356 . S
N2079 H2082 0.984 . S
N2079 H2083 0.985 . S
H2080 N2075 0.984 . S
H2081 N2075 0.985 . S
H2082 N2079 0.984 . S
H2083 N2079 0.985 . S
H2084 N2078 0.984 . S
H2085 N2078 0.984 . S
H2086 N2074 0.984 . S
H2087 N2074 0.985 . S
C2088 C2089 1.363 . S
C2088 C2094 1.379 . S
C2088 N2096 1.356 . S
C2089 C2088 1.363 . S
C2089 C2095 1.363 . S
C2090 C2091 1.363 . S
C2090 C2095 1.379 . S
C2090 N2097 1.356 . S
C2091 C2090 1.363 . S
C2091 C2094 1.363 . S
N2092 C2094 1.356 . S
N2092 H2104 0.984 . S
N2092 H2105 0.985 . S
N2093 C2095 1.356 . S
N2093 H2098 0.984 . S
N2093 H2099 0.985 . S
C2094 C2088 1.379 . S
C2094 C2091 1.363 . S
C2094 N2092 1.356 . S
C2095 C2089 1.363 . S
C2095 C2090 1.379 . S
C2095 N2093 1.356 . S
N2096 C2088 1.356 . S
N2096 H2102 0.984 . S
N2096 H2103 0.984 . S
N2097 C2090 1.356 . S
N2097 H2100 0.984 . S
N2097 H2101 0.985 . S
H2098 N2093 0.984 . S
H2099 N2093 0.985 . S
H2100 N2097 0.984 . S
H2101 N2097 0.985 . S
H2102 N2096 0.984 . S
H2103 N2096 0.984 . S
H2104 N2092 0.984 . S
H2105 N2092 0.985 . S
C2106 C2107 1.363 . S
C2106 C2112 1.379 . S
C2106 N2114 1.356 . S
C2107 C2106 1.363 . S
C2107 C2113 1.363 . S
C2108 C2109 1.363 . S
C2108 C2113 1.379 . S
C2108 N2115 1.356 . S
C2109 C2108 1.363 . S
C2109 C2112 1.363 . S
N2110 C2112 1.356 . S
N2110 H2122 0.984 . S
N2110 H2123 0.985 . S
N2111 C2113 1.356 . S
N2111 H2116 0.984 . S
N2111 H2117 0.985 . S
C2112 C2106 1.379 . S
C2112 C2109 1.363 . S
C2112 N2110 1.356 . S
C2113 C2107 1.363 . S
C2113 C2108 1.379 . S
C2113 N2111 1.356 . S
N2114 C2106 1.356 . S
N2114 H2120 0.984 . S
N2114 H2121 0.984 . S
N2115 C2108 1.356 . S
N2115 H2118 0.984 . S
N2115 H2119 0.985 . S
H2116 N2111 0.984 . S
H2117 N2111 0.985 . S
H2118 N2115 0.984 . S
H2119 N2115 0.985 . S
H2120 N2114 0.984 . S
H2121 N2114 0.984 . S
H2122 N2110 0.984 . S
H2123 N2110 0.985 . S
C2124 C2125 1.363 . S
C2124 C2130 1.379 . S
C2124 N2132 1.356 . S
C2125 C2124 1.363 . S
C2125 C2131 1.363 . S
C2126 C2127 1.363 . S
C2126 C2131 1.379 . S
C2126 N2133 1.356 . S
C2127 C2126 1.363 . S
C2127 C2130 1.363 . S
N2128 C2130 1.356 . S
N2128 H2140 0.984 . S
N2128 H2141 0.985 . S
N2129 C2131 1.356 . S
N2129 H2134 0.984 . S
N2129 H2135 0.985 . S
C2130 C2124 1.379 . S
C2130 C2127 1.363 . S
C2130 N2128 1.356 . S
C2131 C2125 1.363 . S
C2131 C2126 1.379 . S
C2131 N2129 1.356 . S
N2132 C2124 1.356 . S
N2132 H2138 0.984 . S
N2132 H2139 0.984 . S
N2133 C2126 1.356 . S
N2133 H2136 0.984 . S
N2133 H2137 0.985 . S
H2134 N2129 0.984 . S
H2135 N2129 0.985 . S
H2136 N2133 0.984 . S
H2137 N2133 0.985 . S
H2138 N2132 0.984 . S
H2139 N2132 0.984 . S
H2140 N2128 0.984 . S
H2141 N2128 0.985 . S
C2142 C2143 1.363 . S
C2142 C2148 1.379 . S
C2142 N2150 1.356 . S
C2143 C2142 1.363 . S
C2143 C2149 1.363 . S
C2144 C2145 1.364 1_545 S
C2144 C2149 1.379 1_545 S
C2144 N2151 1.355 . S
C2145 C2144 1.364 1_565 S
C2145 C2148 1.363 . S
N2146 C2148 1.356 . S
N2146 H2158 0.984 . S
N2146 H2159 0.985 . S
N2147 C2149 1.356 1_545 S
N2147 H2152 0.984 . S
N2147 H2153 0.985 . S
C2148 C2142 1.379 . S
C2148 C2145 1.363 . S
C2148 N2146 1.356 . S
C2149 C2143 1.363 . S
C2149 C2144 1.379 1_565 S
C2149 N2147 1.356 1_565 S
N2150 C2142 1.356 . S
N2150 H2156 0.984 . S
N2150 H2157 0.984 . S
N2151 C2144 1.355 . S
N2151 H2154 0.984 . S
N2151 H2155 0.985 . S
H2152 N2147 0.984 . S
H2153 N2147 0.985 . S
H2154 N2151 0.984 . S
H2155 N2151 0.985 . S
H2156 N2150 0.984 . S
H2157 N2150 0.984 . S
H2158 N2146 0.984 . S
H2159 N2146 0.985 . S
C2160 C2161 1.363 . S
C2160 C2166 1.379 . S
C2160 N2168 1.356 . S
C2161 C2160 1.363 . S
C2161 C2167 1.363 . S
C2162 C2163 1.363 . S
C2162 C2167 1.379 . S
C2162 N2169 1.356 . S
C2163 C2162 1.363 . S
C2163 C2166 1.363 . S
N2164 C2166 1.356 . S
N2164 H2176 0.984 . S
N2164 H2177 0.985 . S
N2165 C2167 1.356 . S
N2165 H2170 0.984 . S
N2165 H2171 0.985 . S
C2166 C2160 1.379 . S
C2166 C2163 1.363 . S
C2166 N2164 1.356 . S
C2167 C2161 1.363 . S
C2167 C2162 1.379 . S
C2167 N2165 1.356 . S
N2168 C2160 1.356 . S
N2168 H2174 0.984 . S
N2168 H2175 0.984 . S
N2169 C2162 1.356 . S
N2169 H2172 0.984 . S
N2169 H2173 0.985 . S
H2170 N2165 0.984 . S
H2171 N2165 0.985 . S
H2172 N2169 0.984 . S
H2173 N2169 0.985 . S
H2174 N2168 0.984 . S
H2175 N2168 0.984 . S
H2176 N2164 0.984 . S
H2177 N2164 0.985 . S
C2178 C2179 1.363 . S
C2178 C2184 1.379 . S
C2178 N2186 1.356 . S
C2179 C2178 1.363 . S
C2179 C2185 1.363 . S
C2180 C2181 1.363 . S
C2180 C2185 1.379 . S
C2180 N2187 1.356 . S
C2181 C2180 1.363 . S
C2181 C2184 1.363 . S
N2182 C2184 1.356 . S
N2182 H2194 0.984 . S
N2182 H2195 0.985 . S
N2183 C2185 1.356 . S
N2183 H2188 0.984 . S
N2183 H2189 0.985 . S
C2184 C2178 1.379 . S
C2184 C2181 1.363 . S
C2184 N2182 1.356 . S
C2185 C2179 1.363 . S
C2185 C2180 1.379 . S
C2185 N2183 1.356 . S
N2186 C2178 1.356 . S
N2186 H2192 0.984 . S
N2186 H2193 0.984 . S
N2187 C2180 1.356 . S
N2187 H2190 0.984 . S
N2187 H2191 0.985 . S
H2188 N2183 0.984 . S
H2189 N2183 0.985 . S
H2190 N2187 0.984 . S
H2191 N2187 0.985 . S
H2192 N2186 0.984 . S
H2193 N2186 0.984 . S
H2194 N2182 0.984 . S
H2195 N2182 0.985 . S
C2196 C2197 1.363 . S
C2196 C2202 1.379 . S
C2196 N2204 1.356 . S
C2197 C2196 1.363 . S
C2197 C2203 1.363 . S
C2198 C2199 1.363 . S
C2198 C2203 1.379 . S
C2198 N2205 1.356 . S
C2199 C2198 1.363 . S
C2199 C2202 1.363 . S
N2200 C2202 1.356 . S
N2200 H2212 0.984 . S
N2200 H2213 0.985 . S
N2201 C2203 1.356 . S
N2201 H2206 0.984 . S
N2201 H2207 0.985 . S
C2202 C2196 1.379 . S
C2202 C2199 1.363 . S
C2202 N2200 1.356 . S
C2203 C2197 1.363 . S
C2203 C2198 1.379 . S
C2203 N2201 1.356 . S
N2204 C2196 1.356 . S
N2204 H2210 0.984 . S
N2204 H2211 0.984 . S
N2205 C2198 1.356 . S
N2205 H2208 0.984 . S
N2205 H2209 0.985 . S
H2206 N2201 0.984 . S
H2207 N2201 0.985 . S
H2208 N2205 0.984 . S
H2209 N2205 0.985 . S
H2210 N2204 0.984 . S
H2211 N2204 0.984 . S
H2212 N2200 0.984 . S
H2213 N2200 0.985 . S
C2214 C2215 1.363 . S
C2214 C2220 1.379 . S
C2214 N2222 1.356 . S
C2215 C2214 1.363 . S
C2215 C2221 1.363 . S
C2216 C2217 1.363 . S
C2216 C2221 1.379 . S
C2216 N2223 1.356 . S
C2217 C2216 1.363 . S
C2217 C2220 1.363 . S
N2218 C2220 1.356 . S
N2218 H2230 0.984 . S
N2218 H2231 0.985 . S
N2219 C2221 1.356 . S
N2219 H2224 0.984 . S
N2219 H2225 0.985 . S
C2220 C2214 1.379 . S
C2220 C2217 1.363 . S
C2220 N2218 1.356 . S
C2221 C2215 1.363 . S
C2221 C2216 1.379 . S
C2221 N2219 1.356 . S
N2222 C2214 1.356 . S
N2222 H2228 0.984 . S
N2222 H2229 0.984 . S
N2223 C2216 1.356 . S
N2223 H2226 0.984 . S
N2223 H2227 0.985 . S
H2224 N2219 0.984 . S
H2225 N2219 0.985 . S
H2226 N2223 0.984 . S
H2227 N2223 0.985 . S
H2228 N2222 0.984 . S
H2229 N2222 0.984 . S
H2230 N2218 0.984 . S
H2231 N2218 0.985 . S
C2232 C2233 1.363 . S
C2232 C2238 1.379 . S
C2232 N2240 1.356 . S
C2233 C2232 1.363 . S
C2233 C2239 1.363 . S
C2234 C2235 1.363 . S
C2234 C2239 1.379 . S
C2234 N2241 1.356 . S
C2235 C2234 1.363 . S
C2235 C2238 1.363 . S
N2236 C2238 1.356 . S
N2236 H2248 0.984 . S
N2236 H2249 0.985 . S
N2237 C2239 1.356 . S
N2237 H2242 0.984 . S
N2237 H2243 0.985 . S
C2238 C2232 1.379 . S
C2238 C2235 1.363 . S
C2238 N2236 1.356 . S
C2239 C2233 1.363 . S
C2239 C2234 1.379 . S
C2239 N2237 1.356 . S
N2240 C2232 1.356 . S
N2240 H2246 0.984 . S
N2240 H2247 0.984 . S
N2241 C2234 1.356 . S
N2241 H2244 0.984 . S
N2241 H2245 0.985 . S
H2242 N2237 0.984 . S
H2243 N2237 0.985 . S
H2244 N2241 0.984 . S
H2245 N2241 0.985 . S
H2246 N2240 0.984 . S
H2247 N2240 0.984 . S
H2248 N2236 0.984 . S
H2249 N2236 0.985 . S
C2250 C2251 1.363 . S
C2250 C2256 1.379 . S
C2250 N2258 1.356 . S
C2251 C2250 1.363 . S
C2251 C2257 1.363 . S
C2252 C2253 1.363 . S
C2252 C2257 1.379 . S
C2252 N2259 1.356 1_455 S
C2253 C2252 1.363 . S
C2253 C2256 1.363 . S
N2254 C2256 1.356 . S
N2254 H2266 0.984 . S
N2254 H2267 0.985 . S
N2255 C2257 1.356 1_655 S
N2255 H2260 0.973 1_655 S
N2255 H2261 0.985 . S
C2256 C2250 1.379 . S
C2256 C2253 1.363 . S
C2256 N2254 1.356 . S
C2257 C2251 1.363 . S
C2257 C2252 1.379 . S
C2257 N2255 1.356 1_455 S
N2258 C2250 1.356 . S
N2258 H2264 0.984 . S
N2258 H2265 0.984 . S
N2259 C2252 1.356 1_655 S
N2259 H2262 0.984 . S
N2259 H2263 0.985 . S
H2260 N2255 0.973 1_455 S
H2261 N2255 0.985 . S
H2262 N2259 0.984 . S
H2263 N2259 0.985 . S
H2264 N2258 0.984 . S
H2265 N2258 0.984 . S
H2266 N2254 0.984 . S
H2267 N2254 0.985 . S
C2268 C2269 1.363 . S
C2268 C2274 1.379 . S
C2268 N2276 1.356 . S
C2269 C2268 1.363 . S
C2269 C2275 1.363 . S
C2270 C2271 1.363 . S
C2270 C2275 1.379 . S
C2270 N2277 1.356 . S
C2271 C2270 1.363 . S
C2271 C2274 1.363 . S
N2272 C2274 1.356 . S
N2272 H2284 0.984 . S
N2272 H2285 0.985 . S
N2273 C2275 1.356 . S
N2273 H2278 0.984 . S
N2273 H2279 0.985 . S
C2274 C2268 1.379 . S
C2274 C2271 1.363 . S
C2274 N2272 1.356 . S
C2275 C2269 1.363 . S
C2275 C2270 1.379 . S
C2275 N2273 1.356 . S
N2276 C2268 1.356 . S
N2276 H2282 0.984 . S
N2276 H2283 0.984 . S
N2277 C2270 1.356 . S
N2277 H2280 0.984 . S
N2277 H2281 0.985 . S
H2278 N2273 0.984 . S
H2279 N2273 0.985 . S
H2280 N2277 0.984 . S
H2281 N2277 0.985 . S
H2282 N2276 0.984 . S
H2283 N2276 0.984 . S
H2284 N2272 0.984 . S
H2285 N2272 0.985 . S
C2286 C2287 1.363 . S
C2286 C2292 1.379 . S
C2286 N2294 1.356 . S
C2287 C2286 1.363 . S
C2287 C2293 1.363 . S
C2288 C2289 1.363 . S
C2288 C2293 1.379 . S
C2288 N2295 1.374 . S
C2289 C2288 1.363 . S
C2289 C2292 1.363 . S
N2290 C2292 1.356 . S
N2290 H2302 0.984 . S
N2290 H2303 0.985 . S
N2291 C2293 1.356 . S
N2291 H2296 0.984 . S
N2291 H2297 0.985 1_655 S
C2292 C2286 1.379 . S
C2292 C2289 1.363 . S
C2292 N2290 1.356 . S
C2293 C2287 1.363 . S
C2293 C2288 1.379 . S
C2293 N2291 1.356 . S
N2294 C2286 1.356 . S
N2294 H2300 0.984 . S
N2294 H2301 0.984 . S
N2295 C2288 1.374 . S
N2295 H2298 0.989 . S
N2295 H2299 0.966 1_655 S
H2296 N2291 0.984 . S
H2297 N2291 0.985 1_455 S
H2298 N2295 0.989 . S
H2299 N2295 0.966 1_455 S
H2300 N2294 0.984 . S
H2301 N2294 0.984 . S
H2302 N2290 0.984 . S
H2303 N2290 0.985 . S
C2304 C2305 1.363 . S
C2304 C2310 1.379 . S
C2304 N2312 1.356 . S
C2305 C2304 1.363 . S
C2305 C2311 1.363 . S
C2306 C2307 1.363 . S
C2306 C2311 1.379 . S
C2306 N2313 1.356 . S
C2307 C2306 1.363 . S
C2307 C2310 1.363 . S
N2308 C2310 1.356 . S
N2308 H2320 0.984 . S
N2308 H2321 0.985 . S
N2309 C2311 1.356 . S
N2309 H2314 0.984 . S
N2309 H2315 0.985 . S
C2310 C2304 1.379 . S
C2310 C2307 1.363 . S
C2310 N2308 1.356 . S
C2311 C2305 1.363 . S
C2311 C2306 1.379 . S
C2311 N2309 1.356 . S
N2312 C2304 1.356 . S
N2312 H2318 0.984 . S
N2312 H2319 0.984 . S
N2313 C2306 1.356 . S
N2313 H2316 0.984 . S
N2313 H2317 0.985 . S
H2314 N2309 0.984 . S
H2315 N2309 0.985 . S
H2316 N2313 0.984 . S
H2317 N2313 0.985 . S
H2318 N2312 0.984 . S
H2319 N2312 0.984 . S
H2320 N2308 0.984 . S
H2321 N2308 0.985 . S
C2322 C2323 1.363 . S
C2322 C2328 1.379 . S
C2322 N2330 1.356 . S
C2323 C2322 1.363 . S
C2323 C2329 1.363 . S
C2324 C2325 1.363 . S
C2324 C2329 1.379 . S
C2324 N2331 1.356 . S
C2325 C2324 1.363 . S
C2325 C2328 1.363 . S
N2326 C2328 1.356 . S
N2326 H2338 0.984 . S
N2326 H2339 0.985 . S
N2327 C2329 1.356 . S
N2327 H2332 0.984 . S
N2327 H2333 0.985 . S
C2328 C2322 1.379 . S
C2328 C2325 1.363 . S
C2328 N2326 1.356 . S
C2329 C2323 1.363 . S
C2329 C2324 1.379 . S
C2329 N2327 1.356 . S
N2330 C2322 1.356 . S
N2330 H2336 0.984 . S
N2330 H2337 0.984 . S
N2331 C2324 1.356 . S
N2331 H2334 0.984 . S
N2331 H2335 0.985 . S
H2332 N2327 0.984 . S
H2333 N2327 0.985 . S
H2334 N2331 0.984 . S
H2335 N2331 0.985 . S
H2336 N2330 0.984 . S
H2337 N2330 0.984 . S
H2338 N2326 0.984 . S
H2339 N2326 0.985 . S
C2340 C2341 1.345 1_554 S
C2340 C2346 1.380 . S
C2340 N2348 1.369 . S
C2341 C2340 1.345 1_556 S
C2341 C2347 1.363 . S
C2342 C2343 1.363 . S
C2342 C2347 1.379 . S
C2342 N2349 1.356 . S
C2343 C2342 1.363 . S
C2343 C2346 1.363 1_556 S
N2344 C2346 1.356 . S
N2344 H2356 0.984 . S
N2344 H2357 0.985 . S
N2345 C2347 1.356 . S
N2345 H2350 0.984 . S
N2345 H2351 0.985 . S
C2346 C2340 1.380 . S
C2346 C2343 1.363 1_554 S
C2346 N2344 1.356 . S
C2347 C2341 1.363 . S
C2347 C2342 1.379 . S
C2347 N2345 1.356 . S
N2348 C2340 1.369 . S
N2348 H2354 0.984 . S
N2348 H2355 0.984 . S
N2349 C2342 1.356 . S
N2349 H2352 0.984 . S
N2349 H2353 0.985 . S
H2350 N2345 0.984 . S
H2351 N2345 0.985 . S
H2352 N2349 0.984 . S
H2353 N2349 0.985 . S
H2354 N2348 0.984 . S
H2355 N2348 0.984 . S
H2356 N2344 0.984 . S
H2357 N2344 0.985 . S
C2358 C2359 1.363 . S
C2358 C2364 1.379 . S
C2358 N2366 1.356 . S
C2359 C2358 1.363 . S
C2359 C2365 1.363 . S
C2360 C2361 1.363 . S
C2360 C2365 1.379 . S
C2360 N2367 1.356 . S
C2361 C2360 1.363 . S
C2361 C2364 1.363 . S
N2362 C2364 1.356 . S
N2362 H2374 0.984 . S
N2362 H2375 0.985 . S
N2363 C2365 1.356 . S
N2363 H2368 0.984 . S
N2363 H2369 0.985 . S
C2364 C2358 1.379 . S
C2364 C2361 1.363 . S
C2364 N2362 1.356 . S
C2365 C2359 1.363 . S
C2365 C2360 1.379 . S
C2365 N2363 1.356 . S
N2366 C2358 1.356 . S
N2366 H2372 0.984 . S
N2366 H2373 0.984 . S
N2367 C2360 1.356 . S
N2367 H2370 0.984 . S
N2367 H2371 0.985 . S
H2368 N2363 0.984 . S
H2369 N2363 0.985 . S
H2370 N2367 0.984 . S
H2371 N2367 0.985 . S
H2372 N2366 0.984 . S
H2373 N2366 0.984 . S
H2374 N2362 0.984 . S
H2375 N2362 0.985 . S
C2376 C2377 1.363 . S
C2376 C2382 1.379 . S
C2376 N2384 1.356 . S
C2377 C2376 1.363 . S
C2377 C2383 1.363 . S
C2378 C2379 1.363 . S
C2378 C2383 1.379 . S
C2378 N2385 1.356 . S
C2379 C2378 1.363 . S
C2379 C2382 1.363 . S
N2380 C2382 1.356 . S
N2380 H2392 0.984 . S
N2380 H2393 0.985 . S
N2381 C2383 1.356 . S
N2381 H2386 0.984 . S
N2381 H2387 0.985 . S
C2382 C2376 1.379 . S
C2382 C2379 1.363 . S
C2382 N2380 1.356 . S
C2383 C2377 1.363 . S
C2383 C2378 1.379 . S
C2383 N2381 1.356 . S
N2384 C2376 1.356 . S
N2384 H2390 0.984 . S
N2384 H2391 0.984 . S
N2385 C2378 1.356 . S
N2385 H2388 0.984 . S
N2385 H2389 0.985 . S
H2386 N2381 0.984 . S
H2387 N2381 0.985 . S
H2388 N2385 0.984 . S
H2389 N2385 0.985 . S
H2390 N2384 0.984 . S
H2391 N2384 0.984 . S
H2392 N2380 0.984 . S
H2393 N2380 0.985 . S
C2394 C2395 1.363 . S
C2394 C2400 1.379 . S
C2394 N2402 1.356 . S
C2395 C2394 1.363 . S
C2395 C2401 1.363 . S
C2396 C2397 1.363 . S
C2396 C2401 1.379 . S
C2396 N2403 1.356 . S
C2397 C2396 1.363 . S
C2397 C2400 1.363 . S
N2398 C2400 1.356 . S
N2398 H2410 0.984 . S
N2398 H2411 0.985 . S
N2399 C2401 1.356 . S
N2399 H2404 0.984 . S
N2399 H2405 0.985 . S
C2400 C2394 1.379 . S
C2400 C2397 1.363 . S
C2400 N2398 1.356 . S
C2401 C2395 1.363 . S
C2401 C2396 1.379 . S
C2401 N2399 1.356 . S
N2402 C2394 1.356 . S
N2402 H2408 0.984 . S
N2402 H2409 0.984 . S
N2403 C2396 1.356 . S
N2403 H2406 0.984 . S
N2403 H2407 0.985 . S
H2404 N2399 0.984 . S
H2405 N2399 0.985 . S
H2406 N2403 0.984 . S
H2407 N2403 0.985 . S
H2408 N2402 0.984 . S
H2409 N2402 0.984 . S
H2410 N2398 0.984 . S
H2411 N2398 0.985 . S
C2412 C2413 1.363 . S
C2412 C2418 1.379 . S
C2412 N2420 1.356 . S
C2413 C2412 1.363 . S
C2413 C2419 1.363 . S
C2414 C2415 1.363 . S
C2414 C2419 1.379 . S
C2414 N2421 1.356 . S
C2415 C2414 1.363 . S
C2415 C2418 1.363 . S
N2416 C2418 1.356 . S
N2416 H2428 0.984 . S
N2416 H2429 0.985 . S
N2417 C2419 1.356 . S
N2417 H2422 0.984 . S
N2417 H2423 0.985 . S
C2418 C2412 1.379 . S
C2418 C2415 1.363 . S
C2418 N2416 1.356 . S
C2419 C2413 1.363 . S
C2419 C2414 1.379 . S
C2419 N2417 1.356 . S
N2420 C2412 1.356 . S
N2420 H2426 0.984 . S
N2420 H2427 0.984 . S
N2421 C2414 1.356 . S
N2421 H2424 0.984 . S
N2421 H2425 0.985 . S
H2422 N2417 0.984 . S
H2423 N2417 0.985 . S
H2424 N2421 0.984 . S
H2425 N2421 0.985 . S
H2426 N2420 0.984 . S
H2427 N2420 0.984 . S
H2428 N2416 0.984 . S
H2429 N2416 0.985 . S
C2430 C2431 1.363 . S
C2430 C2436 1.379 . S
C2430 N2438 1.356 . S
C2431 C2430 1.363 . S
C2431 C2437 1.363 . S
C2432 C2433 1.363 . S
C2432 C2437 1.379 . S
C2432 N2439 1.356 . S
C2433 C2432 1.363 . S
C2433 C2436 1.363 . S
N2434 C2436 1.356 . S
N2434 H2446 0.984 . S
N2434 H2447 0.985 . S
N2435 C2437 1.356 . S
N2435 H2440 0.984 . S
N2435 H2441 0.985 . S
C2436 C2430 1.379 . S
C2436 C2433 1.363 . S
C2436 N2434 1.356 . S
C2437 C2431 1.363 . S
C2437 C2432 1.379 . S
C2437 N2435 1.356 . S
N2438 C2430 1.356 . S
N2438 H2444 0.984 . S
N2438 H2445 0.984 . S
N2439 C2432 1.356 . S
N2439 H2442 0.984 . S
N2439 H2443 0.985 . S
H2440 N2435 0.984 . S
H2441 N2435 0.985 . S
H2442 N2439 0.984 . S
H2443 N2439 0.985 . S
H2444 N2438 0.984 . S
H2445 N2438 0.984 . S
H2446 N2434 0.984 . S
H2447 N2434 0.985 . S
C2448 C2449 1.363 . S
C2448 C2454 1.379 . S
C2448 N2456 1.356 . S
C2449 C2448 1.363 . S
C2449 C2455 1.363 . S
C2450 C2451 1.363 . S
C2450 C2455 1.379 . S
C2450 N2457 1.356 . S
C2451 C2450 1.363 . S
C2451 C2454 1.363 . S
N2452 C2454 1.356 . S
N2452 H2464 0.984 . S
N2452 H2465 0.985 . S
N2453 C2455 1.356 . S
N2453 H2458 0.984 . S
N2453 H2459 0.985 . S
C2454 C2448 1.379 . S
C2454 C2451 1.363 . S
C2454 N2452 1.356 . S
C2455 C2449 1.363 . S
C2455 C2450 1.379 . S
C2455 N2453 1.356 . S
N2456 C2448 1.356 . S
N2456 H2462 0.984 . S
N2456 H2463 0.984 . S
N2457 C2450 1.356 . S
N2457 H2460 0.984 . S
N2457 H2461 0.985 . S
H2458 N2453 0.984 . S
H2459 N2453 0.985 . S
H2460 N2457 0.984 . S
H2461 N2457 0.985 . S
H2462 N2456 0.984 . S
H2463 N2456 0.984 . S
H2464 N2452 0.984 . S
H2465 N2452 0.985 . S
C2466 C2467 1.363 . S
C2466 C2472 1.379 . S
C2466 N2474 1.356 . S
C2467 C2466 1.363 . S
C2467 C2473 1.363 1_545 S
C2468 C2469 1.363 1_565 S
C2468 C2473 1.379 . S
C2468 N2475 1.356 . S
C2469 C2468 1.363 1_545 S
C2469 C2472 1.363 . S
N2470 C2472 1.356 . S
N2470 H2482 0.984 . S
N2470 H2483 0.985 . S
N2471 C2473 1.356 . S
N2471 H2476 0.984 . S
N2471 H2477 0.985 . S
C2472 C2466 1.379 . S
C2472 C2469 1.363 . S
C2472 N2470 1.356 . S
C2473 C2467 1.363 1_565 S
C2473 C2468 1.379 . S
C2473 N2471 1.356 . S
N2474 C2466 1.356 . S
N2474 H2480 0.984 . S
N2474 H2481 0.984 . S
N2475 C2468 1.356 . S
N2475 H2478 0.984 . S
N2475 H2479 0.985 . S
H2476 N2471 0.984 . S
H2477 N2471 0.985 . S
H2478 N2475 0.984 . S
H2479 N2475 0.985 . S
H2480 N2474 0.984 . S
H2481 N2474 0.984 . S
H2482 N2470 0.984 . S
H2483 N2470 0.985 . S
C2484 C2485 1.363 . S
C2484 C2490 1.379 . S
C2484 N2492 1.356 . S
C2485 C2484 1.363 . S
C2485 C2491 1.363 . S
C2486 C2487 1.363 . S
C2486 C2491 1.379 . S
C2486 N2493 1.356 . S
C2487 C2486 1.363 . S
C2487 C2490 1.363 . S
N2488 C2490 1.356 . S
N2488 H2500 0.984 . S
N2488 H2501 0.985 . S
N2489 C2491 1.356 . S
N2489 H2494 0.984 . S
N2489 H2495 0.985 . S
C2490 C2484 1.379 . S
C2490 C2487 1.363 . S
C2490 N2488 1.356 . S
C2491 C2485 1.363 . S
C2491 C2486 1.379 . S
C2491 N2489 1.356 . S
N2492 C2484 1.356 . S
N2492 H2498 0.984 . S
N2492 H2499 0.984 . S
N2493 C2486 1.356 . S
N2493 H2496 0.984 . S
N2493 H2497 0.985 . S
H2494 N2489 0.984 . S
H2495 N2489 0.985 . S
H2496 N2493 0.984 . S
H2497 N2493 0.985 . S
H2498 N2492 0.984 . S
H2499 N2492 0.984 . S
H2500 N2488 0.984 . S
H2501 N2488 0.985 . S
C2502 C2503 1.363 . S
C2502 C2508 1.379 . S
C2502 N2510 1.356 . S
C2503 C2502 1.363 . S
C2503 C2509 1.363 . S
C2504 C2505 1.363 . S
C2504 C2509 1.379 . S
C2504 N2511 1.356 . S
C2505 C2504 1.363 . S
C2505 C2508 1.363 . S
N2506 C2508 1.356 . S
N2506 H2518 0.984 . S
N2506 H2519 0.985 . S
N2507 C2509 1.356 . S
N2507 H2512 0.984 . S
N2507 H2513 0.985 . S
C2508 C2502 1.379 . S
C2508 C2505 1.363 . S
C2508 N2506 1.356 . S
C2509 C2503 1.363 . S
C2509 C2504 1.379 . S
C2509 N2507 1.356 . S
N2510 C2502 1.356 . S
N2510 H2516 0.984 . S
N2510 H2517 0.984 . S
N2511 C2504 1.356 . S
N2511 H2514 0.984 . S
N2511 H2515 0.985 . S
H2512 N2507 0.984 . S
H2513 N2507 0.985 . S
H2514 N2511 0.984 . S
H2515 N2511 0.985 . S
H2516 N2510 0.984 . S
H2517 N2510 0.984 . S
H2518 N2506 0.984 . S
H2519 N2506 0.985 . S
C2520 C2521 1.363 . S
C2520 C2526 1.379 . S
C2520 N2528 1.356 . S
C2521 C2520 1.363 . S
C2521 C2527 1.363 . S
C2522 C2523 1.363 . S
C2522 C2527 1.379 . S
C2522 N2529 1.356 . S
C2523 C2522 1.363 . S
C2523 C2526 1.363 . S
N2524 C2526 1.356 . S
N2524 H2536 0.984 . S
N2524 H2537 0.985 . S
N2525 C2527 1.356 . S
N2525 H2530 0.984 . S
N2525 H2531 0.985 . S
C2526 C2520 1.379 . S
C2526 C2523 1.363 . S
C2526 N2524 1.356 . S
C2527 C2521 1.363 . S
C2527 C2522 1.379 . S
C2527 N2525 1.356 . S
N2528 C2520 1.356 . S
N2528 H2534 0.984 . S
N2528 H2535 0.984 . S
N2529 C2522 1.356 . S
N2529 H2532 0.984 . S
N2529 H2533 0.985 . S
H2530 N2525 0.984 . S
H2531 N2525 0.985 . S
H2532 N2529 0.984 . S
H2533 N2529 0.985 . S
H2534 N2528 0.984 . S
H2535 N2528 0.984 . S
H2536 N2524 0.984 . S
H2537 N2524 0.985 . S
C2538 C2539 1.363 . S
C2538 C2544 1.379 . S
C2538 N2546 1.356 . S
C2539 C2538 1.363 . S
C2539 C2545 1.363 . S
C2540 C2541 1.397 . S
C2540 C2545 1.383 . S
C2540 N2547 1.327 1_545 S
C2541 C2540 1.397 . S
C2541 C2544 1.363 . S
N2542 C2544 1.356 . S
N2542 H2554 0.984 . S
N2542 H2555 0.985 . S
N2543 C2545 1.356 1_565 S
N2543 H2548 0.984 . S
N2543 H2549 0.985 . S
C2544 C2538 1.379 . S
C2544 C2541 1.363 . S
C2544 N2542 1.356 . S
C2545 C2539 1.363 . S
C2545 C2540 1.383 . S
C2545 N2543 1.356 1_545 S
N2546 C2538 1.356 . S
N2546 H2552 0.984 . S
N2546 H2553 0.984 . S
N2547 C2540 1.327 1_565 S
N2547 H2550 0.984 . S
N2547 H2551 0.985 . S
H2548 N2543 0.984 . S
H2549 N2543 0.985 . S
H2550 N2547 0.984 . S
H2551 N2547 0.985 . S
H2552 N2546 0.984 . S
H2553 N2546 0.984 . S
H2554 N2542 0.984 . S
H2555 N2542 0.985 . S
C2556 C2557 1.363 . S
C2556 C2562 1.379 . S
C2556 N2564 1.356 . S
C2557 C2556 1.363 . S
C2557 C2563 1.363 . S
C2558 C2559 1.363 . S
C2558 C2563 1.379 . S
C2558 N2565 1.356 . S
C2559 C2558 1.363 . S
C2559 C2562 1.363 . S
N2560 C2562 1.356 . S
N2560 H2572 0.984 . S
N2560 H2573 0.985 . S
N2561 C2563 1.356 . S
N2561 H2566 0.984 . S
N2561 H2567 0.985 . S
C2562 C2556 1.379 . S
C2562 C2559 1.363 . S
C2562 N2560 1.356 . S
C2563 C2557 1.363 . S
C2563 C2558 1.379 . S
C2563 N2561 1.356 . S
N2564 C2556 1.356 . S
N2564 H2570 0.984 . S
N2564 H2571 0.984 . S
N2565 C2558 1.356 . S
N2565 H2568 0.984 . S
N2565 H2569 0.985 . S
H2566 N2561 0.984 . S
H2567 N2561 0.985 . S
H2568 N2565 0.984 . S
H2569 N2565 0.985 . S
H2570 N2564 0.984 . S
H2571 N2564 0.984 . S
H2572 N2560 0.984 . S
H2573 N2560 0.985 . S
C2574 C2575 1.363 . S
C2574 C2580 1.379 . S
C2574 N2582 1.356 . S
C2575 C2574 1.363 . S
C2575 C2581 1.363 . S
C2576 C2577 1.363 . S
C2576 C2581 1.379 . S
C2576 N2583 1.356 . S
C2577 C2576 1.363 . S
C2577 C2580 1.363 . S
N2578 C2580 1.356 . S
N2578 H2590 0.984 . S
N2578 H2591 0.985 . S
N2579 C2581 1.356 . S
N2579 H2584 0.984 . S
N2579 H2585 0.985 . S
C2580 C2574 1.379 . S
C2580 C2577 1.363 . S
C2580 N2578 1.356 . S
C2581 C2575 1.363 . S
C2581 C2576 1.379 . S
C2581 N2579 1.356 . S
N2582 C2574 1.356 . S
N2582 H2588 0.984 . S
N2582 H2589 0.984 . S
N2583 C2576 1.356 . S
N2583 H2586 0.984 . S
N2583 H2587 0.985 . S
H2584 N2579 0.984 . S
H2585 N2579 0.985 . S
H2586 N2583 0.984 . S
H2587 N2583 0.985 . S
H2588 N2582 0.984 . S
H2589 N2582 0.984 . S
H2590 N2578 0.984 . S
H2591 N2578 0.985 . S
C2592 C2593 1.363 . S
C2592 C2598 1.379 . S
C2592 N2600 1.356 . S
C2593 C2592 1.363 . S
C2593 C2599 1.363 . S
C2594 C2595 1.363 . S
C2594 C2599 1.379 . S
C2594 N2601 1.356 . S
C2595 C2594 1.363 . S
C2595 C2598 1.363 . S
N2596 C2598 1.356 . S
N2596 H2608 0.984 . S
N2596 H2609 0.985 . S
N2597 C2599 1.356 . S
N2597 H2602 0.984 . S
N2597 H2603 0.985 . S
C2598 C2592 1.379 . S
C2598 C2595 1.363 . S
C2598 N2596 1.356 . S
C2599 C2593 1.363 . S
C2599 C2594 1.379 . S
C2599 N2597 1.356 . S
N2600 C2592 1.356 . S
N2600 H2606 0.984 . S
N2600 H2607 0.984 . S
N2601 C2594 1.356 . S
N2601 H2604 0.984 . S
N2601 H2605 0.985 . S
H2602 N2597 0.984 . S
H2603 N2597 0.985 . S
H2604 N2601 0.984 . S
H2605 N2601 0.985 . S
H2606 N2600 0.984 . S
H2607 N2600 0.984 . S
H2608 N2596 0.984 . S
H2609 N2596 0.985 . S
C2610 C2611 1.363 . S
C2610 C2616 1.379 . S
C2610 N2618 1.356 1_655 S
C2611 C2610 1.363 . S
C2611 C2617 1.363 . S
C2612 C2613 1.363 . S
C2612 C2617 1.379 . S
C2612 N2619 1.356 . S
C2613 C2612 1.363 . S
C2613 C2616 1.363 . S
N2614 C2616 1.356 1_455 S
N2614 H2626 0.984 . S
N2614 H2627 0.985 . S
N2615 C2617 1.356 . S
N2615 H2620 0.984 . S
N2615 H2621 0.985 . S
C2616 C2610 1.379 . S
C2616 C2613 1.363 . S
C2616 N2614 1.356 1_655 S
C2617 C2611 1.363 . S
C2617 C2612 1.379 . S
C2617 N2615 1.356 . S
N2618 C2610 1.356 1_455 S
N2618 H2624 0.984 . S
N2618 H2625 1.000 . S
N2619 C2612 1.356 . S
N2619 H2622 0.984 . S
N2619 H2623 0.985 . S
H2620 N2615 0.984 . S
H2621 N2615 0.985 . S
H2622 N2619 0.984 . S
H2623 N2619 0.985 . S
H2624 N2618 0.984 . S
H2625 N2618 1.000 . S
H2626 N2614 0.984 . S
H2627 N2614 0.985 . S
C2628 C2629 1.363 . S
C2628 C2634 1.379 . S
C2628 N2636 1.356 . S
C2629 C2628 1.363 . S
C2629 C2635 1.363 . S
C2630 C2631 1.363 . S
C2630 C2635 1.379 . S
C2630 N2637 1.356 . S
C2631 C2630 1.363 . S
C2631 C2634 1.363 . S
N2632 C2634 1.356 . S
N2632 H2644 0.984 . S
N2632 H2645 0.985 . S
N2633 C2635 1.356 . S
N2633 H2638 0.984 . S
N2633 H2639 0.985 . S
C2634 C2628 1.379 . S
C2634 C2631 1.363 . S
C2634 N2632 1.356 . S
C2635 C2629 1.363 . S
C2635 C2630 1.379 . S
C2635 N2633 1.356 . S
N2636 C2628 1.356 . S
N2636 H2642 0.984 . S
N2636 H2643 0.984 . S
N2637 C2630 1.356 . S
N2637 H2640 0.984 . S
N2637 H2641 0.985 . S
H2638 N2633 0.984 . S
H2639 N2633 0.985 . S
H2640 N2637 0.984 . S
H2641 N2637 0.985 . S
H2642 N2636 0.984 . S
H2643 N2636 0.984 . S
H2644 N2632 0.984 . S
H2645 N2632 0.985 . S
C2646 C2647 1.363 . S
C2646 C2652 1.379 . S
C2646 N2654 1.356 . S
C2647 C2646 1.363 . S
C2647 C2653 1.363 . S
C2648 C2649 1.363 . S
C2648 C2653 1.379 . S
C2648 N2655 1.356 . S
C2649 C2648 1.363 . S
C2649 C2652 1.363 . S
N2650 C2652 1.356 . S
N2650 H2662 0.984 . S
N2650 H2663 0.985 . S
N2651 C2653 1.356 . S
N2651 H2656 0.984 . S
N2651 H2657 0.985 1_556 S
C2652 C2646 1.379 . S
C2652 C2649 1.363 . S
C2652 N2650 1.356 . S
C2653 C2647 1.363 . S
C2653 C2648 1.379 . S
C2653 N2651 1.356 . S
N2654 C2646 1.356 . S
N2654 H2660 0.984 . S
N2654 H2661 0.984 . S
N2655 C2648 1.356 . S
N2655 H2658 0.984 . S
N2655 H2659 0.994 . S
H2656 N2651 0.984 . S
H2657 N2651 0.985 1_554 S
H2658 N2655 0.984 . S
H2659 N2655 0.994 . S
H2660 N2654 0.984 . S
H2661 N2654 0.984 . S
H2662 N2650 0.984 . S
H2663 N2650 0.985 . S
C2664 C2665 1.363 . S
C2664 C2670 1.379 . S
C2664 N2672 1.356 . S
C2665 C2664 1.363 . S
C2665 C2671 1.363 . S
C2666 C2667 1.363 . S
C2666 C2671 1.379 . S
C2666 N2673 1.356 . S
C2667 C2666 1.363 . S
C2667 C2670 1.363 . S
N2668 C2670 1.356 . S
N2668 H2680 0.984 . S
N2668 H2681 0.985 . S
N2669 C2671 1.356 . S
N2669 H2674 0.984 . S
N2669 H2675 0.985 . S
C2670 C2664 1.379 . S
C2670 C2667 1.363 . S
C2670 N2668 1.356 . S
C2671 C2665 1.363 . S
C2671 C2666 1.379 . S
C2671 N2669 1.356 . S
N2672 C2664 1.356 . S
N2672 H2678 0.984 . S
N2672 H2679 0.984 . S
N2673 C2666 1.356 . S
N2673 H2676 0.984 . S
N2673 H2677 0.985 . S
H2674 N2669 0.984 . S
H2675 N2669 0.985 . S
H2676 N2673 0.984 . S
H2677 N2673 0.985 . S
H2678 N2672 0.984 . S
H2679 N2672 0.984 . S
H2680 N2668 0.984 . S
H2681 N2668 0.985 . S
C2682 C2683 1.363 . S
C2682 C2688 1.379 . S
C2682 N2690 1.356 . S
C2683 C2682 1.363 . S
C2683 C2689 1.363 . S
C2684 C2685 1.363 . S
C2684 C2689 1.379 . S
C2684 N2691 1.356 . S
C2685 C2684 1.363 . S
C2685 C2688 1.363 . S
N2686 C2688 1.356 . S
N2686 H2698 0.984 . S
N2686 H2699 0.985 . S
N2687 C2689 1.356 . S
N2687 H2692 0.984 . S
N2687 H2693 0.985 . S
C2688 C2682 1.379 . S
C2688 C2685 1.363 . S
C2688 N2686 1.356 . S
C2689 C2683 1.363 . S
C2689 C2684 1.379 . S
C2689 N2687 1.356 . S
N2690 C2682 1.356 . S
N2690 H2696 0.984 . S
N2690 H2697 0.984 . S
N2691 C2684 1.356 . S
N2691 H2694 0.984 . S
N2691 H2695 0.985 . S
H2692 N2687 0.984 . S
H2693 N2687 0.985 . S
H2694 N2691 0.984 . S
H2695 N2691 0.985 . S
H2696 N2690 0.984 . S
H2697 N2690 0.984 . S
H2698 N2686 0.984 . S
H2699 N2686 0.985 . S
C2700 C2701 1.363 . S
C2700 C2706 1.379 . S
C2700 N2708 1.356 . S
C2701 C2700 1.363 . S
C2701 C2707 1.363 . S
C2702 C2703 1.363 . S
C2702 C2707 1.379 . S
C2702 N2709 1.356 . S
C2703 C2702 1.363 . S
C2703 C2706 1.363 . S
N2704 C2706 1.356 . S
N2704 H2716 0.984 . S
N2704 H2717 0.985 . S
N2705 C2707 1.356 . S
N2705 H2710 0.984 . S
N2705 H2711 0.985 . S
C2706 C2700 1.379 . S
C2706 C2703 1.363 . S
C2706 N2704 1.356 . S
C2707 C2701 1.363 . S
C2707 C2702 1.379 . S
C2707 N2705 1.356 . S
N2708 C2700 1.356 . S
N2708 H2714 0.984 . S
N2708 H2715 0.984 . S
N2709 C2702 1.356 . S
N2709 H2712 0.984 . S
N2709 H2713 0.985 . S
H2710 N2705 0.984 . S
H2711 N2705 0.985 . S
H2712 N2709 0.984 . S
H2713 N2709 0.985 . S
H2714 N2708 0.984 . S
H2715 N2708 0.984 . S
H2716 N2704 0.984 . S
H2717 N2704 0.985 . S
C2718 C2719 1.363 . S
C2718 C2724 1.379 . S
C2718 N2726 1.356 . S
C2719 C2718 1.363 . S
C2719 C2725 1.363 . S
C2720 C2721 1.363 . S
C2720 C2725 1.379 . S
C2720 N2727 1.356 . S
C2721 C2720 1.363 . S
C2721 C2724 1.363 . S
N2722 C2724 1.356 . S
N2722 H2734 0.984 . S
N2722 H2735 0.985 . S
N2723 C2725 1.356 . S
N2723 H2728 0.984 . S
N2723 H2729 0.985 . S
C2724 C2718 1.379 . S
C2724 C2721 1.363 . S
C2724 N2722 1.356 . S
C2725 C2719 1.363 . S
C2725 C2720 1.379 . S
C2725 N2723 1.356 . S
N2726 C2718 1.356 . S
N2726 H2732 0.984 . S
N2726 H2733 0.984 . S
N2727 C2720 1.356 . S
N2727 H2730 0.984 . S
N2727 H2731 0.985 . S
H2728 N2723 0.984 . S
H2729 N2723 0.985 . S
H2730 N2727 0.984 . S
H2731 N2727 0.985 . S
H2732 N2726 0.984 . S
H2733 N2726 0.984 . S
H2734 N2722 0.984 . S
H2735 N2722 0.985 . S
C2736 C2737 1.363 . S
C2736 C2742 1.379 . S
C2736 N2744 1.356 . S
C2737 C2736 1.363 . S
C2737 C2743 1.363 . S
C2738 C2739 1.363 . S
C2738 C2743 1.379 . S
C2738 N2745 1.356 . S
C2739 C2738 1.363 . S
C2739 C2742 1.363 . S
N2740 C2742 1.356 . S
N2740 H2752 0.984 . S
N2740 H2753 0.985 . S
N2741 C2743 1.356 . S
N2741 H2746 0.984 . S
N2741 H2747 0.985 . S
C2742 C2736 1.379 . S
C2742 C2739 1.363 . S
C2742 N2740 1.356 . S
C2743 C2737 1.363 . S
C2743 C2738 1.379 . S
C2743 N2741 1.356 . S
N2744 C2736 1.356 . S
N2744 H2750 0.984 . S
N2744 H2751 0.984 . S
N2745 C2738 1.356 . S
N2745 H2748 0.984 . S
N2745 H2749 0.985 . S
H2746 N2741 0.984 . S
H2747 N2741 0.985 . S
H2748 N2745 0.984 . S
H2749 N2745 0.985 . S
H2750 N2744 0.984 . S
H2751 N2744 0.984 . S
H2752 N2740 0.984 . S
H2753 N2740 0.985 . S
C2754 C2755 1.363 . S
C2754 C2760 1.379 . S
C2754 N2762 1.356 . S
C2755 C2754 1.363 . S
C2755 C2761 1.363 . S
C2756 C2757 1.363 . S
C2756 C2761 1.379 . S
C2756 N2763 1.356 . S
C2757 C2756 1.363 . S
C2757 C2760 1.363 . S
N2758 C2760 1.356 . S
N2758 H2770 0.984 . S
N2758 H2771 0.985 . S
N2759 C2761 1.356 . S
N2759 H2764 0.984 . S
N2759 H2765 0.985 . S
C2760 C2754 1.379 . S
C2760 C2757 1.363 . S
C2760 N2758 1.356 . S
C2761 C2755 1.363 . S
C2761 C2756 1.379 . S
C2761 N2759 1.356 . S
N2762 C2754 1.356 . S
N2762 H2768 0.984 . S
N2762 H2769 0.984 . S
N2763 C2756 1.356 . S
N2763 H2766 0.984 . S
N2763 H2767 0.985 . S
H2764 N2759 0.984 . S
H2765 N2759 0.985 . S
H2766 N2763 0.984 . S
H2767 N2763 0.985 . S
H2768 N2762 0.984 . S
H2769 N2762 0.984 . S
H2770 N2758 0.984 . S
H2771 N2758 0.985 . S
C2772 C2773 1.363 . S
C2772 C2778 1.379 . S
C2772 N2780 1.356 . S
C2773 C2772 1.363 . S
C2773 C2779 1.363 . S
C2774 C2775 1.363 . S
C2774 C2779 1.379 . S
C2774 N2781 1.356 . S
C2775 C2774 1.363 . S
C2775 C2778 1.363 . S
N2776 C2778 1.356 . S
N2776 H2788 0.984 . S
N2776 H2789 0.985 . S
N2777 C2779 1.356 . S
N2777 H2782 0.984 . S
N2777 H2783 0.985 . S
C2778 C2772 1.379 . S
C2778 C2775 1.363 . S
C2778 N2776 1.356 . S
C2779 C2773 1.363 . S
C2779 C2774 1.379 . S
C2779 N2777 1.356 . S
N2780 C2772 1.356 . S
N2780 H2786 0.984 . S
N2780 H2787 0.984 . S
N2781 C2774 1.356 . S
N2781 H2784 0.984 . S
N2781 H2785 0.985 . S
H2782 N2777 0.984 . S
H2783 N2777 0.985 . S
H2784 N2781 0.984 . S
H2785 N2781 0.985 . S
H2786 N2780 0.984 . S
H2787 N2780 0.984 . S
H2788 N2776 0.984 . S
H2789 N2776 0.985 . S
C2790 C2791 1.363 . S
C2790 C2796 1.379 . S
C2790 N2798 1.356 . S
C2791 C2790 1.363 . S
C2791 C2797 1.363 . S
C2792 C2793 1.363 . S
C2792 C2797 1.379 . S
C2792 N2799 1.356 . S
C2793 C2792 1.363 . S
C2793 C2796 1.363 . S
N2794 C2796 1.356 . S
N2794 H2806 0.984 . S
N2794 H2807 0.985 . S
N2795 C2797 1.356 . S
N2795 H2800 0.984 . S
N2795 H2801 0.985 . S
C2796 C2790 1.379 . S
C2796 C2793 1.363 . S
C2796 N2794 1.356 . S
C2797 C2791 1.363 . S
C2797 C2792 1.379 . S
C2797 N2795 1.356 . S
N2798 C2790 1.356 . S
N2798 H2804 0.984 . S
N2798 H2805 0.984 . S
N2799 C2792 1.356 . S
N2799 H2802 0.984 . S
N2799 H2803 0.985 . S
H2800 N2795 0.984 . S
H2801 N2795 0.985 . S
H2802 N2799 0.984 . S
H2803 N2799 0.985 . S
H2804 N2798 0.984 . S
H2805 N2798 0.984 . S
H2806 N2794 0.984 . S
H2807 N2794 0.985 . S
C2808 C2809 1.363 1_554 S
C2808 C2814 1.379 . S
C2808 N2816 1.356 . S
C2809 C2808 1.363 1_556 S
C2809 C2815 1.363 . S
C2810 C2811 1.363 . S
C2810 C2815 1.379 . S
C2810 N2817 1.356 . S
C2811 C2810 1.363 . S
C2811 C2814 1.363 1_556 S
N2812 C2814 1.356 . S
N2812 H2824 0.984 . S
N2812 H2825 0.985 . S
N2813 C2815 1.356 . S
N2813 H2818 0.984 . S
N2813 H2819 0.985 . S
C2814 C2808 1.379 . S
C2814 C2811 1.363 1_554 S
C2814 N2812 1.356 . S
C2815 C2809 1.363 . S
C2815 C2810 1.379 . S
C2815 N2813 1.356 . S
N2816 C2808 1.356 . S
N2816 H2822 0.984 . S
N2816 H2823 0.984 . S
N2817 C2810 1.356 . S
N2817 H2820 0.984 . S
N2817 H2821 0.985 . S
H2818 N2813 0.984 . S
H2819 N2813 0.985 . S
H2820 N2817 0.984 . S
H2821 N2817 0.985 . S
H2822 N2816 0.984 . S
H2823 N2816 0.984 . S
H2824 N2812 0.984 . S
H2825 N2812 0.985 . S
C2826 C2827 1.363 . S
C2826 C2832 1.379 . S
C2826 N2834 1.356 . S
C2827 C2826 1.363 . S
C2827 C2833 1.363 . S
C2828 C2829 1.363 . S
C2828 C2833 1.379 . S
C2828 N2835 1.356 . S
C2829 C2828 1.363 . S
C2829 C2832 1.363 . S
N2830 C2832 1.356 . S
N2830 H2842 0.984 . S
N2830 H2843 0.985 . S
N2831 C2833 1.356 . S
N2831 H2836 0.984 . S
N2831 H2837 0.985 . S
C2832 C2826 1.379 . S
C2832 C2829 1.363 . S
C2832 N2830 1.356 . S
C2833 C2827 1.363 . S
C2833 C2828 1.379 . S
C2833 N2831 1.356 . S
N2834 C2826 1.356 . S
N2834 H2840 0.984 . S
N2834 H2841 0.984 . S
N2835 C2828 1.356 . S
N2835 H2838 0.984 . S
N2835 H2839 0.985 . S
H2836 N2831 0.984 . S
H2837 N2831 0.985 . S
H2838 N2835 0.984 . S
H2839 N2835 0.985 . S
H2840 N2834 0.984 . S
H2841 N2834 0.984 . S
H2842 N2830 0.984 . S
H2843 N2830 0.985 . S
C2844 C2845 1.389 . S
C2844 C2850 1.376 1_554 S
C2844 N2852 1.339 1_554 S
C2845 C2844 1.389 . S
C2845 C2851 1.363 . S
C2846 C2847 1.363 . S
C2846 C2851 1.379 . S
C2846 N2853 1.356 . S
C2847 C2846 1.363 . S
C2847 C2850 1.336 1_554 S
N2848 C2850 1.382 . S
N2848 H2860 0.984 . S
N2848 H2861 0.985 . S
N2849 C2851 1.356 . S
N2849 H2854 0.984 . S
N2849 H2855 0.985 . S
C2850 C2844 1.376 1_556 S
C2850 C2847 1.336 1_556 S
C2850 N2848 1.382 . S
C2851 C2845 1.363 . S
C2851 C2846 1.379 . S
C2851 N2849 1.356 . S
N2852 C2844 1.339 1_556 S
N2852 H2858 0.984 . S
N2852 H2859 0.984 . S
N2853 C2846 1.356 . S
N2853 H2856 0.984 . S
N2853 H2857 0.985 . S
H2854 N2849 0.984 . S
H2855 N2849 0.985 . S
H2856 N2853 0.984 . S
H2857 N2853 0.985 . S
H2858 N2852 0.984 . S
H2859 N2852 0.984 . S
H2860 N2848 0.984 . S
H2861 N2848 0.985 . S
C2862 C2863 1.363 . S
C2862 C2868 1.379 . S
C2862 N2870 1.356 . S
C2863 C2862 1.363 . S
C2863 C2869 1.363 . S
C2864 C2865 1.363 . S
C2864 C2869 1.379 . S
C2864 N2871 1.356 . S
C2865 C2864 1.363 . S
C2865 C2868 1.363 . S
N2866 C2868 1.356 . S
N2866 H2878 0.984 . S
N2866 H2879 0.985 . S
N2867 C2869 1.356 . S
N2867 H2872 0.984 . S
N2867 H2873 0.985 1_565 S
C2868 C2862 1.379 . S
C2868 C2865 1.363 . S
C2868 N2866 1.356 . S
C2869 C2863 1.363 . S
C2869 C2864 1.379 . S
C2869 N2867 1.356 . S
N2870 C2862 1.356 . S
N2870 H2876 0.984 . S
N2870 H2877 0.984 . S
N2871 C2864 1.356 . S
N2871 H2874 0.984 . S
N2871 H2875 0.986 1_554 S
H2872 N2867 0.984 . S
H2873 N2867 0.985 1_545 S
H2874 N2871 0.984 . S
H2875 N2871 0.986 1_556 S
H2876 N2870 0.984 . S
H2877 N2870 0.984 . S
H2878 N2866 0.984 . S
H2879 N2866 0.985 . S
C2019 C1009 1.512 . S
C2017 C331 1.503 . S
C2037 C1068 1.523 . S
C2035 C380 1.507 . S
C2053 C421 1.498 . S
C2055 C1185 1.517 . S
C2073 C1253 1.523 . S
C2071 C260 1.485 . S
C2091 C1332 1.512 . S
C2089 C620 1.498 . S
C2109 C1457 1.523 . S
C2107 C740 1.507 . S
C2125 C680 1.476 . S
C2127 C1517 1.512 . S
C2145 C1625 1.523 . S
C2143 C571 1.509 . S
C2161 C691 1.476 . S
C2163 C1721 1.518 . S
C2181 C1781 1.523 . S
C2179 C541 1.507 . S
C2197 C601 1.498 . S
C2199 C1684 1.507 . S
C2217 C1801 1.523 . S
C2215 C721 1.507 . S
C2233 C451 1.498 . S
C2235 C1869 1.517 . S
C2251 C241 1.485 . S
C2253 C1860 1.522 . S
C2269 C320 1.498 . S
C2271 C1889 1.507 . S
C2287 C391 1.507 . S
C2289 C1897 1.523 . S
C2305 C211 1.498 . S
C2307 C1281 1.518 . S
C2323 C841 1.498 . S
C2325 C1244 1.507 . S
C2343 C980 1.523 . S
C2341 C901 1.509 . S
C2361 C1077 1.512 . S
C2359 C500 1.498 . S
C2377 C271 1.485 . S
C2379 C1341 1.523 . S
C2397 C1633 1.512 . S
C2395 C661 1.471 . S
C2415 C1361 1.523 . S
C2413 C560 1.507 . S
C2433 C1545 1.523 . S
C2431 C751 1.507 . S
C2451 C1537 1.512 . S
C2449 C871 1.498 . S
C2467 C920 1.507 . S
C2469 C1605 1.522 . S
C2485 C481 1.498 . S
C2487 C1369 1.512 . S
C2505 C1420 1.523 . S
C2503 C800 1.485 . S
C2521 C200 1.498 . S
C2523 C1165 1.507 . S
C2541 C1273 1.523 . S
C2539 C20 1.507 . S
C2559 C989 1.512 . S
C2557 C80 1.471 . S
C2577 C1105 1.523 . S
C2575 C151 1.507 . S
C2593 C91 1.477 . S
C2595 C1809 1.512 . S
C2611 C121 1.507 . S
C2613 C1693 1.523 . S
C2629 C181 1.498 . S
C2631 C1772 1.512 . S
C2647 C1 1.507 . S
C2649 C1713 1.522 . S
C2667 C1957 1.512 . S
C2665 C511 1.498 . S
C2685 C1948 1.523 . S
C2683 C781 1.485 . S
C2703 C1977 1.512 . S
C2701 C860 1.498 . S
C2719 C931 1.507 . S
C2721 C1985 1.523 . S
C2737 C631 1.498 . S
C2739 C1449 1.512 . S
C2757 C1429 1.512 . S
C2755 C301 1.498 . S
C2775 C1508 1.523 . S
C2773 C361 1.507 . S
C2793 C1596 1.512 . S
C2791 C440 1.503 . S
C2809 C811 1.485 . S
C2811 C1156 1.523 . S
C2829 C1097 1.512 . S
C2827 C61 1.476 . S
C2845 C140 1.507 . S
C2847 C1193 1.522 . S
C2865 C1017 1.523 . S
C2863 C31 1.507 . S
