# Generated by pormake.
# Topology ant, (3,6)-cn, num edge types: 1
# Building blocks:
#     Node 0, Type 0, BuildingBlock: ESEHIV_clean_linker_0, # of connection points: 3
#     Node 1, Type 0, BuildingBlock: ESEHIV_clean_linker_0, # of connection points: 3
#     Node 2, Type 0, BuildingBlock: ESEHIV_clean_linker_0, # of connection points: 3
#     Node 3, Type 0, BuildingBlock: ESEHIV_clean_linker_0, # of connection points: 3
#     Node 4, Type 0, BuildingBlock: ESEHIV_clean_linker_0, # of connection points: 3
#     Node 5, Type 0, BuildingBlock: ESEHIV_clean_linker_0, # of connection points: 3
#     Node 6, Type 0, BuildingBlock: ESEHIV_clean_linker_0, # of connection points: 3
#     Node 7, Type 0, BuildingBlock: ESEHIV_clean_linker_0, # of connection points: 3
#     Node 8, Type 1, BuildingBlock: MIDCAF_clean_sbu_0, # of connection points: 6
#     Node 9, Type 1, BuildingBlock: MIDCAF_clean_sbu_0, # of connection points: 6
#     Node 10, Type 1, BuildingBlock: MIDCAF_clean_sbu_0, # of connection points: 6
#     Node 11, Type 1, BuildingBlock: MIDCAF_clean_sbu_0, # of connection points: 6
#     Edge 12, Type (0, 1), BuildingBlock: KIFKEQ_clean_linker_1, # of connection points: 2
#     Edge 13, Type (0, 1), BuildingBlock: KIFKEQ_clean_linker_1, # of connection points: 2
#     Edge 14, Type (0, 1), BuildingBlock: KIFKEQ_clean_linker_1, # of connection points: 2
#     Edge 15, Type (0, 1), BuildingBlock: KIFKEQ_clean_linker_1, # of connection points: 2
#     Edge 16, Type (0, 1), BuildingBlock: KIFKEQ_clean_linker_1, # of connection points: 2
#     Edge 17, Type (0, 1), BuildingBlock: KIFKEQ_clean_linker_1, # of connection points: 2
#     Edge 18, Type (0, 1), BuildingBlock: KIFKEQ_clean_linker_1, # of connection points: 2
#     Edge 19, Type (0, 1), BuildingBlock: KIFKEQ_clean_linker_1, # of connection points: 2
#     Edge 20, Type (0, 1), BuildingBlock: KIFKEQ_clean_linker_1, # of connection points: 2
#     Edge 21, Type (0, 1), BuildingBlock: KIFKEQ_clean_linker_1, # of connection points: 2
#     Edge 22, Type (0, 1), BuildingBlock: KIFKEQ_clean_linker_1, # of connection points: 2
#     Edge 23, Type (0, 1), BuildingBlock: KIFKEQ_clean_linker_1, # of connection points: 2
#     Edge 24, Type (0, 1), BuildingBlock: KIFKEQ_clean_linker_1, # of connection points: 2
#     Edge 25, Type (0, 1), BuildingBlock: KIFKEQ_clean_linker_1, # of connection points: 2
#     Edge 26, Type (0, 1), BuildingBlock: KIFKEQ_clean_linker_1, # of connection points: 2
#     Edge 27, Type (0, 1), BuildingBlock: KIFKEQ_clean_linker_1, # of connection points: 2
#     Edge 28, Type (0, 1), BuildingBlock: KIFKEQ_clean_linker_1, # of connection points: 2
#     Edge 29, Type (0, 1), BuildingBlock: KIFKEQ_clean_linker_1, # of connection points: 2
#     Edge 30, Type (0, 1), BuildingBlock: KIFKEQ_clean_linker_1, # of connection points: 2
#     Edge 31, Type (0, 1), BuildingBlock: KIFKEQ_clean_linker_1, # of connection points: 2
#     Edge 32, Type (0, 1), BuildingBlock: KIFKEQ_clean_linker_1, # of connection points: 2
#     Edge 33, Type (0, 1), BuildingBlock: KIFKEQ_clean_linker_1, # of connection points: 2
#     Edge 34, Type (0, 1), BuildingBlock: KIFKEQ_clean_linker_1, # of connection points: 2
#     Edge 35, Type (0, 1), BuildingBlock: KIFKEQ_clean_linker_1, # of connection points: 2
# Relax obj value: 0.103
# Max RMSD: 0.160
# Mean RMSD: 0.105
data_MOF--net-ant--node1-MIDCAF_clean_sbu_0--node2-ESEHIV_clean_linker_0--edge1-KIFKEQ_clean_linker_1
_symmetry_space_group_name_H-M    P1
_symmetry_Int_Tables_number       1
_symmetry_cell_setting            triclinic
loop_
_symmetry_equiv_pos_as_xyz
'x, y, z'
_cell_length_a     26.523821
_cell_length_b     26.352174
_cell_length_c     73.954213
_cell_angle_alpha  90.126482
_cell_angle_beta   94.699039
_cell_angle_gamma 90.27965
loop_
_atom_site_label
_atom_site_type_symbol
_atom_site_fract_x
_atom_site_fract_y
_atom_site_fract_z
_atom_type_partial_charge
H0 H 0.21657 0.29714 0.03066 0.0
H1 H 0.25122 0.14084 0.04086 0.0
H2 H 0.2754 0.24928 0.0842 0.0
C3 C 0.22994 0.26793 0.04013 0.0
C4 C 0.24539 0.28038 0.05831 0.0
C5 C 0.23113 0.21764 0.03397 0.0
C6 C 0.25007 0.17966 0.04573 0.0
C7 C 0.2673 0.19113 0.0637 0.0
C8 C 0.26379 0.24119 0.07011 0.0
H9 H 0.98485 0.79335 0.27835 0.0
H10 H 0.1458 0.80725 0.28819 0.0
H11 H 0.05114 0.82837 0.33212 0.0
C12 C 0.01778 0.80117 0.28761 0.0
C13 C 0.01192 0.81122 0.306 0.0
C14 C 0.06593 0.79938 0.28117 0.0
C15 C 0.10855 0.80946 0.29316 0.0
C16 C 0.10383 0.82047 0.31155 0.0
C17 C 0.0552 0.8212 0.31789 0.0
H18 H 0.70313 0.79123 0.53278 0.0
H19 H 0.74438 0.63503 0.54077 0.0
H20 H 0.77352 0.74207 0.58442 0.0
C21 C 0.71896 0.76139 0.54155 0.0
C22 C 0.7378 0.77294 0.55943 0.0
C23 C 0.72109 0.71166 0.5348 0.0
C24 C 0.74245 0.6734 0.54601 0.0
C25 C 0.76182 0.68412 0.56383 0.0
C26 C 0.75906 0.73386 0.57058 0.0
H27 H 0.4835 0.31472 0.77903 0.0
H28 H 0.64615 0.31395 0.78476 0.0
H29 H 0.56333 0.32857 0.83195 0.0
C30 C 0.51873 0.31933 0.78741 0.0
C31 C 0.51788 0.3242 0.80632 0.0
C32 C 0.56489 0.31487 0.77956 0.0
C33 C 0.61029 0.31806 0.79069 0.0
C34 C 0.61005 0.32348 0.80953 0.0
C35 C 0.56374 0.32681 0.81731 0.0
H36 H 0.03674 0.6343 0.94426 0.0
H37 H 0.08262 0.78893 0.95484 0.0
H38 H 0.0348 0.7412 0.90032 0.0
C39 C 0.04283 0.67249 0.93941 0.0
C40 C 0.0327 0.68353 0.92093 0.0
C41 C 0.06113 0.71013 0.95167 0.0
C42 C 0.06839 0.75969 0.94539 0.0
C43 C 0.05939 0.77124 0.92687 0.0
C44 C 0.04206 0.73271 0.91464 0.0
H45 H 0.62497 0.84242 0.20025 0.0
H46 H 0.78372 0.81211 0.20797 0.0
H47 H 0.71242 0.83498 0.15393 0.0
C48 C 0.66121 0.83827 0.19461 0.0
C49 C 0.6638 0.84152 0.17578 0.0
C50 C 0.70404 0.8268 0.20618 0.0
C51 C 0.75049 0.81948 0.19885 0.0
C52 C 0.75444 0.82289 0.18001 0.0
C53 C 0.71049 0.83333 0.1685 0.0
H54 H 0.52023 0.13081 0.4449 0.0
H55 H 0.56445 0.28614 0.45372 0.0
H56 H 0.50581 0.23552 0.40041 0.0
C57 C 0.52447 0.1689 0.43967 0.0
C58 C 0.50923 0.17928 0.42148 0.0
C59 C 0.5451 0.20705 0.45121 0.0
C60 C 0.54984 0.25652 0.44453 0.0
C61 C 0.53594 0.26774 0.42617 0.0
C62 C 0.51606 0.22833 0.41465 0.0
H63 H 0.11327 0.32633 0.6946 0.0
H64 H 0.27295 0.29919 0.70336 0.0
H65 H 0.2069 0.33904 0.65006 0.0
C66 C 0.15037 0.32466 0.68945 0.0
C67 C 0.15511 0.335 0.67108 0.0
C68 C 0.19231 0.31078 0.70113 0.0
C69 C 0.24025 0.30989 0.69446 0.0
C70 C 0.2459 0.32018 0.67607 0.0
C71 C 0.20295 0.33167 0.66429 0.0
Zn72 Zn 0.25406 0.68956 0.14153 0.0
Zn73 Zn 0.14588 0.80891 0.09878 0.0
Zn74 Zn 0.20071 0.74918 0.11872 0.0
C75 C 0.14515 0.71644 0.08057 0.0
C76 C 0.23876 0.85496 0.10199 0.0
O77 O 0.16257 0.74188 0.14406 0.0
O78 O 0.20546 0.68399 0.16048 0.0
C79 C 0.2363 0.63485 0.1093 0.0
O80 O 0.17918 0.70609 0.09345 0.0
O81 O 0.12222 0.75825 0.08042 0.0
O82 O 0.19744 0.85806 0.09236 0.0
O83 O 0.24647 0.81808 0.11329 0.0
O84 O 0.26143 0.63244 0.12452 0.0
O85 O 0.20993 0.67463 0.10491 0.0
O86 O 0.27591 0.78608 0.12485 0.0
O87 O 0.31232 0.73662 0.14624 0.0
C88 C 0.3135 0.77559 0.13639 0.0
O89 O 0.12949 0.76929 0.13158 0.0
O90 O 0.09513 0.83162 0.11495 0.0
C91 C 0.16909 0.71475 0.15854 0.0
C92 C 0.09425 0.80256 0.12844 0.0
Zn93 Zn 0.51845 0.68248 0.34609 0.0
Zn94 Zn 0.6206 0.80089 0.38784 0.0
Zn95 Zn 0.56723 0.73763 0.36777 0.0
C96 C 0.52702 0.84477 0.3829 0.0
C97 C 0.67464 0.79255 0.35879 0.0
O98 O 0.56588 0.65971 0.38 0.0
O99 O 0.5453 0.61664 0.35487 0.0
C100 C 0.44724 0.74383 0.35877 0.0
O101 O 0.51874 0.80449 0.37314 0.0
O102 O 0.56932 0.85199 0.39158 0.0
O103 O 0.67538 0.81978 0.37282 0.0
O104 O 0.63792 0.76083 0.35496 0.0
O105 O 0.44957 0.69959 0.35237 0.0
O106 O 0.48848 0.76808 0.36372 0.0
O107 O 0.60327 0.73871 0.34179 0.0
O108 O 0.54024 0.71044 0.32309 0.0
C109 C 0.58341 0.73069 0.32555 0.0
O110 O 0.5895 0.69475 0.39289 0.0
O111 O 0.6376 0.75289 0.4076 0.0
C112 C 0.55941 0.61685 0.37159 0.0
C113 C 0.61848 0.70897 0.40683 0.0
Zn114 Zn 0.63992 0.30476 0.59661 0.0
Zn115 Zn 0.73985 0.19156 0.64314 0.0
Zn116 Zn 0.69223 0.24394 0.6175 0.0
C117 C 0.80396 0.27166 0.63613 0.0
C118 C 0.7251 0.12695 0.61266 0.0
O119 O 0.61927 0.26738 0.62859 0.0
O120 O 0.586 0.32887 0.61124 0.0
C121 C 0.73361 0.34848 0.6003 0.0
O122 O 0.76774 0.28006 0.6238 0.0
O123 O 0.80039 0.23589 0.64729 0.0
O124 O 0.74556 0.12949 0.62866 0.0
O125 O 0.70198 0.16612 0.60558 0.0
O126 O 0.69243 0.35316 0.59069 0.0
O127 O 0.73998 0.31128 0.61155 0.0
O128 O 0.67362 0.19816 0.59279 0.0
O129 O 0.62044 0.25213 0.57854 0.0
C130 C 0.64194 0.20953 0.57929 0.0
O131 O 0.64974 0.24226 0.64223 0.0
O132 O 0.69093 0.19086 0.6618 0.0
C133 C 0.58406 0.30037 0.62482 0.0
C134 C 0.65407 0.21983 0.65776 0.0
Zn135 Zn 0.02585 0.18271 0.84715 0.0
Zn136 Zn 0.11884 0.29737 0.88557 0.0
Zn137 Zn 0.07427 0.24001 0.86668 0.0
C138 C 0.09749 0.22313 0.90819 0.0
C139 C 0.04247 0.35389 0.87235 0.0
O140 O 0.11054 0.24067 0.84077 0.0
O141 O 0.04508 0.21021 0.82375 0.0
C142 C 0.07218 0.11948 0.87196 0.0
O143 O 0.09518 0.20087 0.89263 0.0
O144 O 0.09833 0.27092 0.90898 0.0
O145 O 0.08884 0.36171 0.87648 0.0
O146 O 0.02587 0.30796 0.87043 0.0
O147 O 0.05553 0.11772 0.8555 0.0
O148 O 0.07776 0.16306 0.8799 0.0
O149 O 0.99513 0.26921 0.86326 0.0
O150 O 0.95717 0.19791 0.85432 0.0
C151 C 0.95425 0.2432 0.85965 0.0
O152 O 0.14453 0.26305 0.854 0.0
O153 O 0.18868 0.2841 0.87946 0.0
C154 C 0.08828 0.23078 0.82501 0.0
C155 C 0.18714 0.27514 0.86267 0.0
H156 H 0.17461 0.35318 0.0477 0.0
H157 H 0.30953 0.33039 0.08361 0.0
H158 H 0.1734 0.44178 0.05658 0.0
H159 H 0.30537 0.41743 0.09382 0.0
H160 H 0.31819 0.58314 0.10039 0.0
H161 H 0.32004 0.50006 0.08614 0.0
H162 H 0.15644 0.49958 0.07889 0.0
H163 H 0.1555 0.58476 0.09205 0.0
C164 C 0.20412 0.36686 0.0575 0.0
C165 C 0.24259 0.33418 0.06472 0.0
C166 C 0.20288 0.41782 0.06284 0.0
C167 C 0.23951 0.43754 0.07584 0.0
C168 C 0.27716 0.40447 0.08341 0.0
C169 C 0.27898 0.35383 0.07781 0.0
C170 C 0.28277 0.56568 0.09527 0.0
C171 C 0.23674 0.59014 0.09729 0.0
C172 C 0.28365 0.51759 0.08737 0.0
C173 C 0.23835 0.49188 0.08181 0.0
C174 C 0.19224 0.51787 0.08291 0.0
C175 C 0.19152 0.56679 0.09044 0.0
H176 H 0.93659 0.74217 0.29704 0.0
H177 H 0.97132 0.87462 0.33039 0.0
H178 H 0.85202 0.73903 0.30747 0.0
H179 H 0.88738 0.86992 0.34156 0.0
H180 H 0.71874 0.87695 0.34616 0.0
H181 H 0.79892 0.8822 0.33211 0.0
H182 H 0.81159 0.7188 0.33456 0.0
H183 H 0.73095 0.714 0.34828 0.0
C184 C 0.92613 0.77079 0.30656 0.0
C185 C 0.96069 0.80891 0.31279 0.0
C186 C 0.87778 0.76859 0.3127 0.0
C187 C 0.86281 0.80424 0.32533 0.0
C188 C 0.89739 0.84229 0.33162 0.0
C189 C 0.94577 0.8446 0.32541 0.0
C190 C 0.73835 0.84224 0.3433 0.0
C191 C 0.71843 0.79501 0.34787 0.0
C192 C 0.78443 0.84519 0.33546 0.0
C193 C 0.81187 0.80095 0.3323 0.0
C194 C 0.79116 0.75358 0.33655 0.0
C195 C 0.74499 0.75072 0.34436 0.0
H196 H 0.8403 0.62313 0.55699 0.0
H197 H 0.72983 0.64897 0.59558 0.0
H198 H 0.8597 0.5403 0.57051 0.0
H199 H 0.74773 0.56553 0.60882 0.0
H200 H 0.77005 0.41057 0.62783 0.0
H201 H 0.79924 0.49789 0.62356 0.0
H202 H 0.80482 0.46789 0.56627 0.0
H203 H 0.7758 0.38181 0.57067 0.0
C204 C 0.82133 0.61157 0.56875 0.0
C205 C 0.78318 0.64192 0.57514 0.0
C206 C 0.83224 0.56412 0.57645 0.0
C207 C 0.80457 0.5457 0.59051 0.0
C208 C 0.77007 0.57847 0.5981 0.0
C209 C 0.75957 0.62628 0.59049 0.0
C210 C 0.78022 0.42216 0.61455 0.0
C211 C 0.77068 0.38985 0.59954 0.0
C212 C 0.79626 0.47228 0.61205 0.0
C213 C 0.80346 0.49032 0.59452 0.0
C214 C 0.80002 0.45557 0.57998 0.0
C215 C 0.78344 0.40599 0.58246 0.0
H216 H 0.65944 0.39186 0.83302 0.0
H217 H 0.66819 0.24025 0.81146 0.0
H218 H 0.74227 0.38012 0.8503 0.0
H219 H 0.74951 0.22825 0.8286 0.0
H220 H 0.87005 0.19673 0.86953 0.0
H221 H 0.78305 0.22243 0.86157 0.0
H222 H 0.83595 0.36482 0.84121 0.0
H223 H 0.92374 0.33921 0.84955 0.0
C224 C 0.67888 0.35598 0.83219 0.0
C225 C 0.65787 0.31689 0.82098 0.0
C226 C 0.72609 0.34935 0.84197 0.0
C227 C 0.75202 0.30312 0.84093 0.0
C228 C 0.7301 0.26398 0.82993 0.0
C229 C 0.68375 0.27087 0.82003 0.0
C230 C 0.86307 0.23424 0.86392 0.0
C231 C 0.90349 0.26569 0.85988 0.0
C232 C 0.81331 0.24887 0.85931 0.0
C233 C 0.80287 0.29505 0.85038 0.0
C234 C 0.84299 0.32897 0.84807 0.0
C235 C 0.89317 0.31438 0.85286 0.0
H236 H 0.94937 0.62362 0.92288 0.0
H237 H 0.07591 0.65023 0.89105 0.0
H238 H 0.92819 0.5462 0.90564 0.0
H239 H 0.05709 0.57183 0.87446 0.0
H240 H 0.03337 0.42967 0.84774 0.0
H241 H 0.01126 0.51676 0.85491 0.0
H242 H 0.96255 0.46564 0.90629 0.0
H243 H 0.98163 0.37883 0.89835 0.0
C244 C 0.97215 0.6131 0.91196 0.0
C245 C 0.01451 0.64241 0.90835 0.0
C246 C 0.96028 0.56861 0.90215 0.0
C247 C 0.99127 0.55184 0.88878 0.0
C248 C 0.03167 0.58339 0.88441 0.0
C249 C 0.04288 0.62836 0.894 0.0
C250 C 0.01502 0.43702 0.86004 0.0
C251 C 0.00897 0.39789 0.8725 0.0
C252 C 1.00331 0.48703 0.86437 0.0
C253 C 0.98694 0.49888 0.88151 0.0
C254 C 0.97504 0.45852 0.89296 0.0
C255 C 0.98572 0.4084 0.8884 0.0
H256 H 0.79271 0.87501 0.15209 0.0
H257 H 0.83071 0.75685 0.19123 0.0
H258 H 0.87633 0.86835 0.14117 0.0
H259 H 0.91566 0.75274 0.18116 0.0
H260 H 0.0463 0.72417 0.14426 0.0
H261 H 0.96441 0.72716 0.1572 0.0
H262 H 0.9611 0.88995 0.15 0.0
H263 H 0.04168 0.88634 0.13653 0.0
C264 C 0.81875 0.84745 0.15835 0.0
C265 C 0.80478 0.81672 0.17263 0.0
C266 C 0.86721 0.84424 0.1523 0.0
C267 C 0.9033 0.81059 0.16048 0.0
C268 C 0.88899 0.77901 0.17449 0.0
C269 C 0.84032 0.78185 0.18042 0.0
C270 C 0.02836 0.76059 0.1458 0.0
C271 C 0.05014 0.80499 0.13936 0.0
C272 C 0.98138 0.76239 0.15318 0.0
C273 C 0.95545 0.80872 0.15432 0.0
C274 C 0.97903 0.8534 0.14883 0.0
C275 C 0.02553 0.85147 0.1413 0.0
H276 H 0.47429 0.31787 0.40048 0.0
H277 H 0.61092 0.33797 0.43598 0.0
H278 H 0.48515 0.40279 0.38844 0.0
H279 H 0.61984 0.42413 0.42446 0.0
H280 H 0.5668 0.59633 0.40841 0.0
H281 H 0.56455 0.51241 0.42279 0.0
H282 H 0.55806 0.44137 0.37005 0.0
H283 H 0.56202 0.52398 0.35582 0.0
C284 C 0.50673 0.34007 0.40571 0.0
C285 C 0.54188 0.32045 0.41915 0.0
C286 C 0.51263 0.38897 0.39891 0.0
C287 C 0.55331 0.4199 0.40555 0.0
C288 C 0.58788 0.40115 0.41925 0.0
C289 C 0.58253 0.35179 0.42586 0.0
C290 C 0.56634 0.56282 0.39997 0.0
C291 C 0.56458 0.56712 0.38098 0.0
C292 C 0.56469 0.51484 0.40817 0.0
C293 C 0.56041 0.4706 0.39746 0.0
C294 C 0.56058 0.4749 0.37859 0.0
C295 C 0.56298 0.5224 0.37048 0.0
H296 H 0.08726 0.40976 0.67562 0.0
H297 H 0.11674 0.2836 0.64085 0.0
H298 H 0.99938 0.4115 0.6629 0.0
H299 H 0.02847 0.28495 0.62815 0.0
H300 H 0.86183 0.29908 0.60867 0.0
H301 H 0.94979 0.33033 0.61235 0.0
H302 H 0.93935 0.3417 0.6702 0.0
H303 H 0.85301 0.3097 0.66652 0.0
C304 C 0.07529 0.38363 0.66475 0.0
C305 C 0.10847 0.34617 0.65934 0.0
C306 C 0.02501 0.38451 0.65752 0.0
C307 C 0.00683 0.34781 0.64477 0.0
C308 C 0.04142 0.31387 0.6379 0.0
C309 C 0.09197 0.31305 0.64515 0.0
C310 C 0.87813 0.30983 0.62205 0.0
C311 C 0.85101 0.30191 0.63735 0.0
C312 C 0.9284 0.32734 0.62416 0.0
C313 C 0.9515 0.33841 0.64155 0.0
C314 C 0.92261 0.33413 0.6566 0.0
C315 C 0.87317 0.31563 0.65453 0.0
H316 H 0.33068 0.37068 0.68936 0.0
H317 H 0.27591 0.26372 0.64795 0.0
H318 H 0.41597 0.36499 0.67898 0.0
H319 H 0.36152 0.25723 0.6378 0.0
H320 H 0.53415 0.22222 0.63974 0.0
H321 H 0.45283 0.22633 0.65332 0.0
H322 H 0.4521 0.3891 0.64708 0.0
H323 H 0.53262 0.38494 0.63318 0.0
C324 C 0.33704 0.34593 0.67805 0.0
C325 C 0.29688 0.31785 0.66935 0.0
C326 C 0.38566 0.34267 0.67216 0.0
C327 C 0.39517 0.31041 0.65771 0.0
C328 C 0.35512 0.28198 0.6491 0.0
C329 C 0.30623 0.28605 0.65475 0.0
C330 C 0.51696 0.25888 0.64159 0.0
C331 C 0.53951 0.30329 0.63547 0.0
C332 C 0.47041 0.26117 0.6492 0.0
C333 C 0.44627 0.308 0.65111 0.0
C334 C 0.47007 0.35259 0.64579 0.0
C335 C 0.51599 0.35019 0.63784 0.0
H336 H 0.59345 0.91485 0.17963 0.0
H337 H 0.62599 0.78682 0.14611 0.0
H338 H 0.50633 0.91552 0.16614 0.0
H339 H 0.5386 0.7874 0.13257 0.0
H340 H 0.37529 0.80161 0.11003 0.0
H341 H 0.46317 0.83221 0.11527 0.0
H342 H 0.44322 0.84824 0.17239 0.0
H343 H 0.35682 0.81688 0.16715 0.0
C344 C 0.58228 0.88773 0.169 0.0
C345 C 0.61623 0.85023 0.16414 0.0
C346 C 0.53243 0.88812 0.16129 0.0
C347 C 0.51538 0.85104 0.14851 0.0
C348 C 0.55065 0.81666 0.14232 0.0
C349 C 0.60072 0.81626 0.15007 0.0
C350 C 0.38944 0.8135 0.12355 0.0
C351 C 0.35958 0.80716 0.13822 0.0
C352 C 0.43971 0.83051 0.12658 0.0
C353 C 0.46019 0.84248 0.14425 0.0
C354 C 0.42857 0.83995 0.15859 0.0
C355 C 0.37905 0.82198 0.15562 0.0
H356 H 0.49471 0.25463 0.83119 0.0
H357 H 0.43155 0.3797 0.79955 0.0
H358 H 0.41379 0.24027 0.84355 0.0
H359 H 0.35066 0.36765 0.81271 0.0
H360 H 0.19892 0.30737 0.8281 0.0
H361 H 0.27815 0.31697 0.81364 0.0
H362 H 0.36116 0.27256 0.8639 0.0
H363 H 0.28215 0.2583 0.8774 0.0
C364 C 0.46356 0.27977 0.82722 0.0
C365 C 0.46937 0.31869 0.81465 0.0
C366 C 0.41709 0.27171 0.83431 0.0
C367 C 0.37543 0.30306 0.82931 0.0
C368 C 0.38149 0.34223 0.81672 0.0
C369 C 0.4279 0.34962 0.80932 0.0
C370 C 0.23415 0.29756 0.83565 0.0
C371 C 0.23433 0.28001 0.85354 0.0
C372 C 0.2797 0.30439 0.8276 0.0
C373 C 0.32645 0.29516 0.83751 0.0
C374 C 0.32621 0.27868 0.85559 0.0
C375 C 0.28081 0.27093 0.86343 0.0
H376 H 0.12285 0.78188 0.34588 0.0
H377 H 0.19078 0.87213 0.30559 0.0
H378 H 0.20446 0.77667 0.36344 0.0
H379 H 0.2728 0.8642 0.32245 0.0
H380 H 0.42016 0.84345 0.35328 0.0
H381 H 0.33401 0.87598 0.34749 0.0
H382 H 0.27477 0.72659 0.35789 0.0
H383 H 0.35998 0.69549 0.36434 0.0
C384 C 0.15489 0.8016 0.34095 0.0
C385 C 0.15045 0.82641 0.32409 0.0
C386 C 0.20193 0.79812 0.35093 0.0
C387 C 0.2457 0.81888 0.34418 0.0
C388 C 0.2402 0.84769 0.32816 0.0
C389 C 0.19314 0.85162 0.31831 0.0
C390 C 0.38856 0.81842 0.35508 0.0
C391 C 0.39673 0.76702 0.35922 0.0
C392 C 0.33916 0.83673 0.3515 0.0
C393 C 0.29716 0.80384 0.35197 0.0
C394 C 0.30573 0.75341 0.35755 0.0
C395 C 0.35481 0.73531 0.3611 0.0
H396 H 0.65794 0.83876 0.55667 0.0
H397 H 0.81461 0.8274 0.577 0.0
H398 H 0.65556 0.9259 0.56794 0.0
H399 H 0.81318 0.91483 0.58763 0.0
H400 H 0.77897 0.04435 0.62431 0.0
H401 H 0.78127 0.96142 0.61078 0.0
H402 H 0.68193 0.01231 0.56525 0.0
H403 H 0.67741 0.0958 0.57959 0.0
C404 C 0.692 0.85515 0.56342 0.0
C405 C 0.7363 0.82608 0.56617 0.0
C406 C 0.69079 0.90526 0.56976 0.0
C407 C 0.73405 0.92765 0.57884 0.0
C408 C 0.77869 0.89871 0.58112 0.0
C409 C 0.77964 0.8485 0.57502 0.0
C410 C 0.75753 0.03839 0.61136 0.0
C411 C 0.72805 0.07745 0.603 0.0
C412 C 0.75935 0.99048 0.60347 0.0
C413 C 0.73229 0.97982 0.58677 0.0
C414 C 0.70309 0.0189 0.5782 0.0
C415 C 0.7009 0.06714 0.58627 0.0
H416 H 0.34675 0.13 0.05844 0.0
H417 H 0.2309 0.15679 0.0949 0.0
H418 H 0.3645 0.04754 0.0725 0.0
H419 H 0.24741 0.07371 0.10872 0.0
H420 H 0.27176 0.91939 0.12925 0.0
H421 H 0.2994 1.00713 0.12466 0.0
H422 H 0.30879 0.97494 0.0677 0.0
H423 H 0.28103 0.88846 0.07239 0.0
C424 C 0.32621 0.11875 0.06987 0.0
C425 C 0.28711 0.14925 0.0755 0.0
C426 C 0.33621 0.07153 0.07788 0.0
C427 C 0.30676 0.05354 0.0915 0.0
C428 C 0.27109 0.08642 0.09835 0.0
C429 C 0.26141 0.13399 0.09042 0.0
C430 C 0.28237 0.93067 0.11599 0.0
C431 C 0.27443 0.89752 0.10114 0.0
C432 C 0.29752 0.98098 0.11331 0.0
C433 C 0.30556 0.99836 0.09577 0.0
C434 C 0.30337 0.96304 0.08142 0.0
C435 C 0.28755 0.91328 0.08407 0.0
H436 H 0.54473 0.14297 0.39047 0.0
H437 H 0.42738 0.12037 0.42671 0.0
H438 H 0.52463 0.06082 0.37639 0.0
H439 H 0.40563 0.03886 0.41227 0.0
H440 H 0.47829 0.87592 0.41138 0.0
H441 H 0.4531 0.96287 0.41625 0.0
H442 H 0.47332 0.99732 0.36016 0.0
H443 H 0.49957 0.90963 0.35555 0.0
C444 C 0.51321 0.12125 0.39488 0.0
C445 C 0.48812 0.13737 0.40981 0.0
C446 C 0.50138 0.07419 0.38677 0.0
C447 C 0.46397 0.04264 0.3934 0.0
C448 C 0.43533 0.06161 0.40708 0.0
C449 C 0.4476 0.10832 0.41531 0.0
C450 C 0.4745 0.90139 0.39986 0.0
C451 C 0.49047 0.88625 0.3831 0.0
C452 C 0.46022 0.95151 0.40262 0.0
C453 C 0.4622 0.98761 0.38868 0.0
C454 C 0.47228 0.97072 0.37127 0.0
C455 C 0.48649 0.92036 0.36852 0.0
H456 H 0.11552 0.79977 0.89934 0.0
H457 H 0.02442 0.86031 0.93992 0.0
H458 H 0.12918 0.88517 0.88809 0.0
H459 H 0.03563 0.94581 0.92816 0.0
H460 H 0.08244 0.10048 0.90889 0.0
H461 H 0.0877 0.01737 0.92367 0.0
H462 H 0.08348 0.94507 0.87101 0.0
H463 H 0.08133 0.02701 0.85663 0.0
C464 C 0.09811 0.83148 0.90575 0.0
C465 C 0.06848 0.82345 0.92035 0.0
C466 C 0.10576 0.88052 0.8993 0.0
C467 C 0.08301 0.92274 0.90703 0.0
C468 C 0.05436 0.9146 0.92198 0.0
C469 C 0.0475 0.86554 0.92864 0.0
C470 C 0.08415 0.06684 0.90059 0.0
C471 C 0.08155 0.0706 0.88159 0.0
C472 C 0.0864 0.01904 0.90902 0.0
C473 C 0.08583 0.97409 0.89858 0.0
C474 C 0.08495 0.97839 0.87963 0.0
C475 C 0.08316 0.02576 0.87131 0.0
H476 H 0.15221 0.15515 0.02358 0.0
H477 H 0.2662 0.25066 0.00256 0.0
H478 H 0.11618 0.13746 0.9925 0.0
H479 H 0.23126 0.23188 0.97153 0.0
H480 H 0.04214 0.22442 0.93724 0.0
H481 H 0.07505 0.20765 0.9685 0.0
H482 H 0.21289 0.14994 0.94919 0.0
H483 H 0.17903 0.16519 0.91781 0.0
C484 C 0.16992 0.17157 0.01226 0.0
C485 C 0.21163 0.20444 0.0153 0.0
C486 C 0.14951 0.16135 -0.00543 0.0
C487 C 0.17143 0.18279 0.97971 0.0
C488 C 0.21428 0.2142 0.98279 0.0
C489 C 0.23392 0.22536 0.00046 0.0
C490 C 0.07825 0.20553 0.93968 0.0
C491 C 0.108 0.19561 0.92526 0.0
C492 C 0.09717 0.19617 0.95752 0.0
C493 C 0.14663 0.17807 0.96116 0.0
C494 C 0.17465 0.16397 0.94664 0.0
C495 C 0.15516 0.1722 0.92875 0.0
H496 H 0.01336 0.83281 0.25 0.0
H497 H 0.13223 0.73056 0.26959 0.0
H498 H 0.02607 0.80822 0.21871 0.0
H499 H 0.14585 0.70719 0.23858 0.0
H500 H 0.1426 0.64544 0.18325 0.0
H501 H 0.10707 0.66269 0.21204 0.0
H502 H 0.09354 0.82132 0.19789 0.0
H503 H 0.12895 0.80389 0.16912 0.0
C504 C 0.04194 0.80491 0.24761 0.0
C505 C 0.07218 0.78397 0.2622 0.0
C506 C 0.04936 0.79104 0.22973 0.0
C507 C 0.0868 0.75562 0.22618 0.0
C508 C 0.11614 0.73397 0.24084 0.0
C509 C 0.1089 0.74794 0.25861 0.0
C510 C 0.13086 0.68374 0.18614 0.0
C511 C 0.13828 0.72329 0.17395 0.0
C512 C 0.11076 0.69368 0.20263 0.0
C513 C 0.09821 0.74349 0.20734 0.0
C514 C 0.10244 0.78248 0.1946 0.0
C515 C 0.12255 0.77248 0.17808 0.0
H516 H 0.65481 0.63719 0.52226 0.0
H517 H 0.74827 0.75895 0.50454 0.0
H518 H 0.62791 0.61651 0.49044 0.0
H519 H 0.72221 0.73796 0.47298 0.0
H520 H 0.70836 0.67138 0.41954 0.0
H521 H 0.73329 0.65923 0.45173 0.0
H522 H 0.57703 0.66976 0.46353 0.0
H523 H 0.55219 0.68197 0.43117 0.0
C524 C 0.66963 0.65932 0.51154 0.0
C525 C 0.70338 0.69981 0.51576 0.0
C526 C 0.65435 0.64744 0.49344 0.0
C527 C 0.67367 0.6751 0.47933 0.0
C528 C 0.70749 0.71543 0.48362 0.0
C529 C 0.72192 0.72787 0.50164 0.0
C530 C 0.67912 0.66802 0.42889 0.0
C531 C 0.62844 0.67734 0.42297 0.0
C532 C 0.69341 0.66176 0.44731 0.0
C533 C 0.65715 0.66475 0.46007 0.0
C534 C 0.60566 0.66731 0.45392 0.0
C535 C 0.59137 0.6738 0.43542 0.0
H536 H 0.51225 0.35567 0.74942 0.0
H537 H 0.61954 0.23893 0.76633 0.0
H538 H 0.51747 0.33034 0.71759 0.0
H539 H 0.62565 0.21465 0.735 0.0
H540 H 0.61495 0.15402 0.68098 0.0
H541 H 0.57834 0.1755 0.70919 0.0
H542 H 0.58348 0.33453 0.69532 0.0
H543 H 0.61891 0.31262 0.66684 0.0
C544 C 0.53667 0.32456 0.74632 0.0
C545 C 0.5661 0.29977 0.76028 0.0
C546 C 0.53973 0.31016 0.72817 0.0
C547 C 0.57164 0.27023 0.72378 0.0
C548 C 0.59995 0.2449 0.73787 0.0
C549 C 0.59714 0.25939 0.75584 0.0
C550 C 0.60661 0.19338 0.68372 0.0
C551 C 0.61996 0.23172 0.67188 0.0
C552 C 0.58594 0.20575 0.69988 0.0
C553 C 0.5793 0.2568 0.70469 0.0
C554 C 0.58811 0.29487 0.69201 0.0
C555 C 0.60837 0.28236 0.67569 0.0
H556 H 0.12046 0.63326 0.96606 0.0
H557 H 0.02809 0.75875 0.98081 0.0
H558 H 0.14098 0.61402 -0.00166 0.0
H559 H 0.04797 0.7394 0.01283 0.0
H560 H 0.05408 0.68264 0.06694 0.0
H561 H 0.03188 0.66626 0.03482 0.0
H562 H 0.19027 0.66545 0.02532 0.0
H563 H 0.21245 0.68127 0.0577 0.0
C564 C 0.10421 0.65631 0.97622 0.0
C565 C 0.07276 0.69753 0.97104 0.0
C566 C 0.11598 0.64534 -0.00539 0.0
C567 C 0.09548 0.67473 0.00802 0.0
C568 C 0.06353 0.71548 0.00275 0.0
C569 C 0.05255 0.72695 0.98447 0.0
C570 C 0.08418 0.67612 0.05815 0.0
C571 C 0.13486 0.68363 0.06464 0.0
C572 C 0.07148 0.66732 0.03976 0.0
C573 C 0.10933 0.66614 0.02758 0.0
C574 C 0.16039 0.66644 0.03445 0.0
C575 C 0.17314 0.67509 0.05298 0.0
H576 H 0.65834 0.89004 0.22892 0.0
H577 H 0.73717 0.74739 0.22752 0.0
H578 H 0.63697 0.872 0.25972 0.0
H579 H 0.71482 0.72854 0.2582 0.0
H580 H 0.68093 0.7165 0.31734 0.0
H581 H 0.72037 0.74777 0.29058 0.0
H582 H 0.57722 0.81274 0.2705 0.0
H583 H 0.53962 0.78413 0.29762 0.0
C584 C 0.67157 0.85509 0.23533 0.0
C585 C 0.69882 0.81981 0.22581 0.0
C586 C 0.65922 0.84463 0.25292 0.0
C587 C 0.67336 0.79839 0.26129 0.0
C588 C 0.70356 0.76461 0.2522 0.0
C589 C 0.7163 0.77532 0.23461 0.0
C590 C 0.65892 0.73923 0.3075 0.0
C591 C 0.60798 0.74933 0.30972 0.0
C592 C 0.68099 0.75626 0.29203 0.0
C593 C 0.6521 0.78331 0.27847 0.0
C594 C 0.60098 0.79318 0.28083 0.0
C595 C 0.5792 0.77629 0.29625 0.0
H596 H 0.51533 0.25414 0.48118 0.0
H597 H 0.60962 0.13277 0.46425 0.0
H598 H 0.53969 0.23393 0.5129 0.0
H599 H 0.63481 0.11286 0.49619 0.0
H600 H 0.70894 0.18126 0.55538 0.0
H601 H 0.68487 0.16707 0.52304 0.0
H602 H 0.52814 0.15624 0.53435 0.0
H603 H 0.55226 0.17051 0.56651 0.0
C604 C 0.54134 0.22321 0.4843 0.0
C605 C 0.5607 0.19507 0.47037 0.0
C606 C 0.55486 0.21124 0.5024 0.0
C607 C 0.58855 0.17133 0.50693 0.0
C608 C 0.60847 0.14347 0.49301 0.0
C609 C 0.59413 0.15487 0.47483 0.0
C610 C 0.66981 0.17267 0.55105 0.0
C611 C 0.63234 0.17696 0.5633 0.0
C612 C 0.65596 0.16502 0.53255 0.0
C613 C 0.60456 0.16186 0.52625 0.0
C614 C 0.56794 0.1593 0.53888 0.0
C615 C 0.58177 0.16681 0.55728 0.0
H616 H 0.11863 0.24902 0.71216 0.0
H617 H 0.2493 0.33649 0.73269 0.0
H618 H 0.09935 0.23035 0.74303 0.0
H619 H 0.23023 0.31656 0.7639 0.0
H620 H 0.18495 0.21535 0.81549 0.0
H621 H 0.21735 0.23457 0.78593 0.0
H622 H 0.07142 0.29487 0.76703 0.0
H623 H 0.03994 0.27707 0.7964 0.0
C624 C 0.14332 0.2642 0.72329 0.0
C625 C 0.18478 0.29526 0.72 0.0
C626 C 0.1324 0.25327 0.74094 0.0
C627 C 0.16291 0.27268 0.75577 0.0
C628 C 0.20618 0.30123 0.75263 0.0
C629 C 0.21701 0.31258 0.73483 0.0
C630 C 0.16054 0.23396 0.80511 0.0
C631 C 0.11034 0.24554 0.8082 0.0
C632 C 0.17887 0.24465 0.78825 0.0
C633 C 0.14665 0.26582 0.77425 0.0
C634 C 0.09683 0.27809 0.77756 0.0
C635 C 0.07887 0.26799 0.79434 0.0
loop_
_geom_bond_atom_site_label_1
_geom_bond_atom_site_label_2
_geom_bond_distance
_geom_bond_site_symmetry_2
_ccdc_geom_bond_type
H0 C3 0.931 . S
H1 C6 0.928 . S
H2 C8 0.930 . S
C3 H0 0.931 . S
C3 C4 1.413 . S
C3 C5 1.360 . S
C4 C3 1.413 . S
C4 C8 1.429 . S
C5 C3 1.360 . S
C5 C6 1.372 . S
C6 H1 0.928 . S
C6 C5 1.372 . S
C6 C7 1.404 . S
C7 C6 1.404 . S
C7 C8 1.391 . S
C8 H2 0.930 . S
C8 C4 1.429 . S
C8 C7 1.391 . S
H9 C12 0.931 . S
H10 C15 0.928 . S
H11 C17 0.930 . S
C12 H9 0.931 . S
C12 C13 1.413 . S
C12 C14 1.360 . S
C13 C12 1.413 . S
C13 C17 1.429 . S
C14 C12 1.360 . S
C14 C15 1.372 . S
C15 H10 0.928 . S
C15 C14 1.372 . S
C15 C16 1.404 . S
C16 C15 1.404 . S
C16 C17 1.391 . S
C17 H11 0.930 . S
C17 C13 1.429 . S
C17 C16 1.391 . S
H18 C21 0.931 . S
H19 C24 0.928 . S
H20 C26 0.930 . S
C21 H18 0.931 . S
C21 C22 1.413 . S
C21 C23 1.360 . S
C22 C21 1.413 . S
C22 C26 1.429 . S
C23 C21 1.360 . S
C23 C24 1.372 . S
C24 H19 0.928 . S
C24 C23 1.372 . S
C24 C25 1.404 . S
C25 C24 1.404 . S
C25 C26 1.391 . S
C26 H20 0.930 . S
C26 C22 1.429 . S
C26 C25 1.391 . S
H27 C30 0.931 . S
H28 C33 0.928 . S
H29 C35 0.930 . S
C30 H27 0.931 . S
C30 C31 1.413 . S
C30 C32 1.360 . S
C31 C30 1.413 . S
C31 C35 1.429 . S
C32 C30 1.360 . S
C32 C33 1.372 . S
C33 H28 0.928 . S
C33 C32 1.372 . S
C33 C34 1.404 . S
C34 C33 1.404 . S
C34 C35 1.391 . S
C35 H29 0.930 . S
C35 C31 1.429 . S
C35 C34 1.391 . S
H36 C39 0.931 . S
H37 C42 0.928 . S
H38 C44 0.930 . S
C39 H36 0.931 . S
C39 C40 1.413 . S
C39 C41 1.360 . S
C40 C39 1.413 . S
C40 C44 1.429 . S
C41 C39 1.360 . S
C41 C42 1.372 . S
C42 H37 0.928 . S
C42 C41 1.372 . S
C42 C43 1.404 . S
C43 C42 1.404 . S
C43 C44 1.391 . S
C44 H38 0.930 . S
C44 C40 1.429 . S
C44 C43 1.391 . S
H45 C48 0.931 . S
H46 C51 0.928 . S
H47 C53 0.930 . S
C48 H45 0.931 . S
C48 C49 1.413 . S
C48 C50 1.360 . S
C49 C48 1.413 . S
C49 C53 1.429 . S
C50 C48 1.360 . S
C50 C51 1.372 . S
C51 H46 0.928 . S
C51 C50 1.372 . S
C51 C52 1.404 . S
C52 C51 1.404 . S
C52 C53 1.391 . S
C53 H47 0.930 . S
C53 C49 1.429 . S
C53 C52 1.391 . S
H54 C57 0.931 . S
H55 C60 0.928 . S
H56 C62 0.930 . S
C57 H54 0.931 . S
C57 C58 1.413 . S
C57 C59 1.360 . S
C58 C57 1.413 . S
C58 C62 1.429 . S
C59 C57 1.360 . S
C59 C60 1.372 . S
C60 H55 0.928 . S
C60 C59 1.372 . S
C60 C61 1.404 . S
C61 C60 1.404 . S
C61 C62 1.391 . S
C62 H56 0.930 . S
C62 C58 1.429 . S
C62 C61 1.391 . S
H63 C66 0.931 . S
H64 C69 0.928 . S
H65 C71 0.930 . S
C66 H63 0.931 . S
C66 C67 1.413 . S
C66 C68 1.360 . S
C67 C66 1.413 . S
C67 C71 1.429 . S
C68 C66 1.360 . S
C68 C69 1.372 . S
C69 H64 0.928 . S
C69 C68 1.372 . S
C69 C70 1.404 . S
C70 C69 1.404 . S
C70 C71 1.391 . S
C71 H65 0.930 . S
C71 C67 1.429 . S
C71 C70 1.391 . S
Zn72 O78 1.920 . S
Zn72 O84 1.898 . S
Zn72 O87 1.905 . S
Zn73 O81 1.905 . S
Zn73 O82 1.898 . S
Zn73 O90 1.920 . S
Zn74 O77 2.080 . S
Zn74 O80 2.114 . S
Zn74 O83 2.120 . S
Zn74 O85 2.120 . S
Zn74 O86 2.114 . S
Zn74 O89 2.080 . S
C75 O80 1.166 . S
C75 O81 1.182 . S
C76 O82 1.167 . S
C76 O83 1.299 . S
O77 Zn74 2.080 . S
O77 C91 1.305 . S
O78 Zn72 1.920 . S
O78 C91 1.234 . S
C79 O84 1.167 . S
C79 O85 1.299 . S
O80 Zn74 2.114 . S
O80 C75 1.166 . S
O81 Zn73 1.905 . S
O81 C75 1.182 . S
O82 Zn73 1.898 . S
O82 C76 1.167 . S
O83 Zn74 2.120 . S
O83 C76 1.299 . S
O84 Zn72 1.898 . S
O84 C79 1.167 . S
O85 Zn74 2.120 . S
O85 C79 1.299 . S
O86 Zn74 2.114 . S
O86 C88 1.166 . S
O87 Zn72 1.905 . S
O87 C88 1.182 . S
C88 O86 1.166 . S
C88 O87 1.182 . S
O89 Zn74 2.080 . S
O89 C92 1.305 . S
O90 Zn73 1.920 . S
O90 C92 1.234 . S
C91 O77 1.305 . S
C91 O78 1.234 . S
C92 O89 1.305 . S
C92 O90 1.234 . S
Zn93 O99 1.920 . S
Zn93 O105 1.898 . S
Zn93 O108 1.905 . S
Zn94 O102 1.905 . S
Zn94 O103 1.898 . S
Zn94 O111 1.920 . S
Zn95 O98 2.080 . S
Zn95 O101 2.114 . S
Zn95 O104 2.120 . S
Zn95 O106 2.120 . S
Zn95 O107 2.114 . S
Zn95 O110 2.080 . S
C96 O101 1.166 . S
C96 O102 1.182 . S
C97 O103 1.167 . S
C97 O104 1.299 . S
O98 Zn95 2.080 . S
O98 C112 1.305 . S
O99 Zn93 1.920 . S
O99 C112 1.234 . S
C100 O105 1.167 . S
C100 O106 1.299 . S
O101 Zn95 2.114 . S
O101 C96 1.166 . S
O102 Zn94 1.905 . S
O102 C96 1.182 . S
O103 Zn94 1.898 . S
O103 C97 1.167 . S
O104 Zn95 2.120 . S
O104 C97 1.299 . S
O105 Zn93 1.898 . S
O105 C100 1.167 . S
O106 Zn95 2.120 . S
O106 C100 1.299 . S
O107 Zn95 2.114 . S
O107 C109 1.166 . S
O108 Zn93 1.905 . S
O108 C109 1.182 . S
C109 O107 1.166 . S
C109 O108 1.182 . S
O110 Zn95 2.080 . S
O110 C113 1.305 . S
O111 Zn94 1.920 . S
O111 C113 1.234 . S
C112 O98 1.305 . S
C112 O99 1.234 . S
C113 O110 1.305 . S
C113 O111 1.234 . S
Zn114 O120 1.920 . S
Zn114 O126 1.898 . S
Zn114 O129 1.905 . S
Zn115 O123 1.905 . S
Zn115 O124 1.898 . S
Zn115 O132 1.920 . S
Zn116 O119 2.080 . S
Zn116 O122 2.114 . S
Zn116 O125 2.120 . S
Zn116 O127 2.120 . S
Zn116 O128 2.114 . S
Zn116 O131 2.080 . S
C117 O122 1.166 . S
C117 O123 1.182 . S
C118 O124 1.167 . S
C118 O125 1.299 . S
O119 Zn116 2.080 . S
O119 C133 1.305 . S
O120 Zn114 1.920 . S
O120 C133 1.234 . S
C121 O126 1.167 . S
C121 O127 1.299 . S
O122 Zn116 2.114 . S
O122 C117 1.166 . S
O123 Zn115 1.905 . S
O123 C117 1.182 . S
O124 Zn115 1.898 . S
O124 C118 1.167 . S
O125 Zn116 2.120 . S
O125 C118 1.299 . S
O126 Zn114 1.898 . S
O126 C121 1.167 . S
O127 Zn116 2.120 . S
O127 C121 1.299 . S
O128 Zn116 2.114 . S
O128 C130 1.166 . S
O129 Zn114 1.905 . S
O129 C130 1.182 . S
C130 O128 1.166 . S
C130 O129 1.182 . S
O131 Zn116 2.080 . S
O131 C134 1.305 . S
O132 Zn115 1.920 . S
O132 C134 1.234 . S
C133 O119 1.305 . S
C133 O120 1.234 . S
C134 O131 1.305 . S
C134 O132 1.234 . S
Zn135 O141 1.920 . S
Zn135 O147 1.898 . S
Zn135 O150 1.905 1_455 S
Zn136 O144 1.905 . S
Zn136 O145 1.898 . S
Zn136 O153 1.920 . S
Zn137 O140 2.080 . S
Zn137 O143 2.114 . S
Zn137 O146 2.120 . S
Zn137 O148 2.120 . S
Zn137 O149 2.114 . S
Zn137 O152 2.080 . S
C138 O143 1.166 . S
C138 O144 1.182 . S
C139 O145 1.167 . S
C139 O146 1.299 . S
O140 Zn137 2.080 . S
O140 C154 1.305 . S
O141 Zn135 1.920 . S
O141 C154 1.234 . S
C142 O147 1.167 . S
C142 O148 1.299 . S
O143 Zn137 2.114 . S
O143 C138 1.166 . S
O144 Zn136 1.905 . S
O144 C138 1.182 . S
O145 Zn136 1.898 . S
O145 C139 1.167 . S
O146 Zn137 2.120 . S
O146 C139 1.299 . S
O147 Zn135 1.898 . S
O147 C142 1.167 . S
O148 Zn137 2.120 . S
O148 C142 1.299 . S
O149 Zn137 2.114 . S
O149 C151 1.166 . S
O150 Zn135 1.905 1_655 S
O150 C151 1.182 1_655 S
C151 O149 1.166 . S
C151 O150 1.182 1_455 S
O152 Zn137 2.080 . S
O152 C155 1.305 . S
O153 Zn136 1.920 . S
O153 C155 1.234 . S
C154 O140 1.305 . S
C154 O141 1.234 . S
C155 O152 1.305 . S
C155 O153 1.234 . S
H156 C164 0.950 . S
H157 C169 0.950 . S
H158 C166 0.950 . S
H159 C168 0.950 . S
H160 C170 0.950 . S
H161 C172 0.950 . S
H162 C174 0.950 . S
H163 C175 0.950 . S
C164 H156 0.950 . S
C164 C165 1.386 . S
C164 C166 1.391 . S
C165 C164 1.386 . S
C165 C169 1.393 . S
C166 H158 0.950 . S
C166 C164 1.391 . S
C166 C167 1.400 . S
C167 C166 1.400 . S
C167 C168 1.398 . S
C167 C173 1.491 . S
C168 H159 0.950 . S
C168 C167 1.398 . S
C168 C169 1.391 . S
C169 H157 0.950 . S
C169 C165 1.393 . S
C169 C168 1.391 . S
C170 H160 0.950 . S
C170 C171 1.386 . S
C170 C172 1.391 . S
C171 C170 1.386 . S
C171 C175 1.393 . S
C172 H161 0.950 . S
C172 C170 1.391 . S
C172 C173 1.400 . S
C173 C167 1.491 . S
C173 C172 1.400 . S
C173 C174 1.398 . S
C174 H162 0.950 . S
C174 C173 1.398 . S
C174 C175 1.391 . S
C175 H163 0.950 . S
C175 C171 1.393 . S
C175 C174 1.391 . S
H176 C184 0.954 . S
H177 C189 0.950 . S
H178 C186 0.950 . S
H179 C188 0.950 . S
H180 C190 0.950 . S
H181 C192 0.950 . S
H182 C194 0.950 . S
H183 C195 0.950 . S
C184 H176 0.954 . S
C184 C185 1.386 1_655 S
C184 C186 1.391 . S
C185 C184 1.386 1_455 S
C185 C189 1.393 . S
C186 H178 0.950 . S
C186 C184 1.391 . S
C186 C187 1.400 . S
C187 C186 1.400 . S
C187 C188 1.398 . S
C187 C193 1.491 . S
C188 H179 0.950 . S
C188 C187 1.398 . S
C188 C189 1.391 1_655 S
C189 H177 0.950 . S
C189 C185 1.393 . S
C189 C188 1.391 1_455 S
C190 H180 0.950 . S
C190 C191 1.386 . S
C190 C192 1.391 . S
C191 C190 1.386 . S
C191 C195 1.393 . S
C192 H181 0.950 . S
C192 C190 1.391 . S
C192 C193 1.400 . S
C193 C187 1.491 . S
C193 C192 1.400 . S
C193 C194 1.398 . S
C194 H182 0.950 . S
C194 C193 1.398 . S
C194 C195 1.391 . S
C195 H183 0.950 . S
C195 C191 1.393 . S
C195 C194 1.391 . S
H196 C204 0.950 . S
H197 C209 0.950 . S
H198 C206 0.950 . S
H199 C208 0.950 . S
H200 C210 0.950 . S
H201 C212 0.950 . S
H202 C214 0.950 . S
H203 C215 0.950 . S
C204 H196 0.950 . S
C204 C205 1.386 . S
C204 C206 1.391 . S
C205 C204 1.386 . S
C205 C209 1.393 . S
C206 H198 0.950 . S
C206 C204 1.391 . S
C206 C207 1.400 . S
C207 C206 1.400 . S
C207 C208 1.398 . S
C207 C213 1.491 . S
C208 H199 0.950 . S
C208 C207 1.398 . S
C208 C209 1.391 . S
C209 H197 0.950 . S
C209 C205 1.393 . S
C209 C208 1.391 . S
C210 H200 0.950 . S
C210 C211 1.386 . S
C210 C212 1.391 . S
C211 C210 1.386 . S
C211 C215 1.393 . S
C212 H201 0.950 . S
C212 C210 1.391 . S
C212 C213 1.400 . S
C213 C207 1.491 . S
C213 C212 1.400 . S
C213 C214 1.398 . S
C214 H202 0.950 . S
C214 C213 1.398 . S
C214 C215 1.391 . S
C215 H203 0.950 . S
C215 C211 1.393 . S
C215 C214 1.391 . S
H216 C224 0.950 . S
H217 C229 0.950 . S
H218 C226 0.950 . S
H219 C228 0.950 . S
H220 C230 0.950 . S
H221 C232 0.950 . S
H222 C234 0.950 . S
H223 C235 0.950 . S
C224 H216 0.950 . S
C224 C225 1.386 . S
C224 C226 1.391 . S
C225 C224 1.386 . S
C225 C229 1.393 . S
C226 H218 0.950 . S
C226 C224 1.391 . S
C226 C227 1.400 . S
C227 C226 1.400 . S
C227 C228 1.398 . S
C227 C233 1.491 . S
C228 H219 0.950 . S
C228 C227 1.398 . S
C228 C229 1.391 . S
C229 H217 0.950 . S
C229 C225 1.393 . S
C229 C228 1.391 . S
C230 H220 0.950 . S
C230 C231 1.386 . S
C230 C232 1.391 . S
C231 C230 1.386 . S
C231 C235 1.393 . S
C232 H221 0.950 . S
C232 C230 1.391 . S
C232 C233 1.400 . S
C233 C227 1.491 . S
C233 C232 1.400 . S
C233 C234 1.398 . S
C234 H222 0.950 . S
C234 C233 1.398 . S
C234 C235 1.391 . S
C235 H223 0.950 . S
C235 C231 1.393 . S
C235 C234 1.391 . S
H236 C244 0.950 . S
H237 C249 0.950 . S
H238 C246 0.950 . S
H239 C248 0.950 . S
H240 C250 0.950 . S
H241 C252 0.950 . S
H242 C254 0.950 . S
H243 C255 0.950 . S
C244 H236 0.950 . S
C244 C245 1.386 . S
C244 C246 1.391 . S
C245 C244 1.386 . S
C245 C249 1.393 . S
C246 H238 0.950 . S
C246 C244 1.391 . S
C246 C247 1.400 . S
C247 C246 1.400 . S
C247 C248 1.398 . S
C247 C253 1.491 . S
C248 H239 0.950 . S
C248 C247 1.398 . S
C248 C249 1.391 . S
C249 H237 0.950 . S
C249 C245 1.393 . S
C249 C248 1.391 . S
C250 H240 0.950 . S
C250 C251 1.386 . S
C250 C252 1.391 . S
C251 C250 1.386 . S
C251 C255 1.393 . S
C252 H241 0.950 . S
C252 C250 1.391 . S
C252 C253 1.400 . S
C253 C247 1.491 . S
C253 C252 1.400 . S
C253 C254 1.398 . S
C254 H242 0.950 . S
C254 C253 1.398 . S
C254 C255 1.391 . S
C255 H243 0.950 . S
C255 C251 1.393 . S
C255 C254 1.391 . S
H256 C264 0.950 . S
H257 C269 0.950 . S
H258 C266 0.950 . S
H259 C268 0.950 . S
H260 C270 0.950 . S
H261 C272 0.950 . S
H262 C274 0.950 . S
H263 C275 0.950 . S
C264 H256 0.950 . S
C264 C265 1.386 . S
C264 C266 1.391 . S
C265 C264 1.386 . S
C265 C269 1.393 . S
C266 H258 0.950 . S
C266 C264 1.391 . S
C266 C267 1.400 . S
C267 C266 1.400 . S
C267 C268 1.398 . S
C267 C273 1.491 . S
C268 H259 0.950 . S
C268 C267 1.398 . S
C268 C269 1.391 . S
C269 H257 0.950 . S
C269 C265 1.393 . S
C269 C268 1.391 . S
C270 H260 0.950 . S
C270 C271 1.386 . S
C270 C272 1.391 . S
C271 C270 1.386 . S
C271 C275 1.393 . S
C272 H261 0.950 . S
C272 C270 1.391 . S
C272 C273 1.400 . S
C273 C267 1.491 . S
C273 C272 1.400 . S
C273 C274 1.398 . S
C274 H262 0.950 . S
C274 C273 1.398 . S
C274 C275 1.391 . S
C275 H263 0.950 . S
C275 C271 1.393 . S
C275 C274 1.391 . S
H276 C284 0.950 . S
H277 C289 0.950 . S
H278 C286 0.950 . S
H279 C288 0.950 . S
H280 C290 0.950 . S
H281 C292 0.950 . S
H282 C294 0.950 . S
H283 C295 0.950 . S
C284 H276 0.950 . S
C284 C285 1.386 . S
C284 C286 1.391 . S
C285 C284 1.386 . S
C285 C289 1.393 . S
C286 H278 0.950 . S
C286 C284 1.391 . S
C286 C287 1.400 . S
C287 C286 1.400 . S
C287 C288 1.398 . S
C287 C293 1.491 . S
C288 H279 0.950 . S
C288 C287 1.398 . S
C288 C289 1.391 . S
C289 H277 0.950 . S
C289 C285 1.393 . S
C289 C288 1.391 . S
C290 H280 0.950 . S
C290 C291 1.386 . S
C290 C292 1.391 . S
C291 C290 1.386 . S
C291 C295 1.393 . S
C292 H281 0.950 . S
C292 C290 1.391 . S
C292 C293 1.400 . S
C293 C287 1.491 . S
C293 C292 1.400 . S
C293 C294 1.398 . S
C294 H282 0.950 . S
C294 C293 1.398 . S
C294 C295 1.391 . S
C295 H283 0.950 . S
C295 C291 1.393 . S
C295 C294 1.391 . S
H296 C304 0.950 . S
H297 C309 0.950 . S
H298 C306 0.950 . S
H299 C308 0.950 . S
H300 C310 0.950 . S
H301 C312 0.950 . S
H302 C314 0.950 . S
H303 C315 0.950 . S
C304 H296 0.950 . S
C304 C305 1.386 . S
C304 C306 1.391 1_455 S
C305 C304 1.386 . S
C305 C309 1.393 . S
C306 H298 0.950 . S
C306 C304 1.391 1_655 S
C306 C307 1.400 . S
C307 C306 1.400 . S
C307 C308 1.398 . S
C307 C313 1.491 . S
C308 H299 0.950 . S
C308 C307 1.398 . S
C308 C309 1.391 1_655 S
C309 H297 0.950 . S
C309 C305 1.393 . S
C309 C308 1.391 1_455 S
C310 H300 0.950 . S
C310 C311 1.386 . S
C310 C312 1.391 . S
C311 C310 1.386 . S
C311 C315 1.393 . S
C312 H301 0.950 . S
C312 C310 1.391 . S
C312 C313 1.400 . S
C313 C307 1.491 . S
C313 C312 1.400 . S
C313 C314 1.398 . S
C314 H302 0.950 . S
C314 C313 1.398 . S
C314 C315 1.391 . S
C315 H303 0.950 . S
C315 C311 1.393 . S
C315 C314 1.391 . S
H316 C324 0.950 . S
H317 C329 0.950 . S
H318 C326 0.950 . S
H319 C328 0.950 . S
H320 C330 0.950 . S
H321 C332 0.950 . S
H322 C334 0.950 . S
H323 C335 0.950 . S
C324 H316 0.950 . S
C324 C325 1.386 . S
C324 C326 1.391 . S
C325 C324 1.386 . S
C325 C329 1.393 . S
C326 H318 0.950 . S
C326 C324 1.391 . S
C326 C327 1.400 . S
C327 C326 1.400 . S
C327 C328 1.398 . S
C327 C333 1.491 . S
C328 H319 0.950 . S
C328 C327 1.398 . S
C328 C329 1.391 . S
C329 H317 0.950 . S
C329 C325 1.393 . S
C329 C328 1.391 . S
C330 H320 0.950 . S
C330 C331 1.386 . S
C330 C332 1.391 . S
C331 C330 1.386 . S
C331 C335 1.393 . S
C332 H321 0.950 . S
C332 C330 1.391 . S
C332 C333 1.400 . S
C333 C327 1.491 . S
C333 C332 1.400 . S
C333 C334 1.398 . S
C334 H322 0.950 . S
C334 C333 1.398 . S
C334 C335 1.391 . S
C335 H323 0.950 . S
C335 C331 1.393 . S
C335 C334 1.391 . S
H336 C344 0.950 . S
H337 C349 0.950 . S
H338 C346 0.950 . S
H339 C348 0.950 . S
H340 C350 0.950 . S
H341 C352 0.950 . S
H342 C354 0.950 . S
H343 C355 0.950 . S
C344 H336 0.950 . S
C344 C345 1.386 . S
C344 C346 1.391 . S
C345 C344 1.386 . S
C345 C349 1.393 . S
C346 H338 0.950 . S
C346 C344 1.391 . S
C346 C347 1.400 . S
C347 C346 1.400 . S
C347 C348 1.398 . S
C347 C353 1.491 . S
C348 H339 0.950 . S
C348 C347 1.398 . S
C348 C349 1.391 . S
C349 H337 0.950 . S
C349 C345 1.393 . S
C349 C348 1.391 . S
C350 H340 0.950 . S
C350 C351 1.386 . S
C350 C352 1.391 . S
C351 C350 1.386 . S
C351 C355 1.393 . S
C352 H341 0.950 . S
C352 C350 1.391 . S
C352 C353 1.400 . S
C353 C347 1.491 . S
C353 C352 1.400 . S
C353 C354 1.398 . S
C354 H342 0.950 . S
C354 C353 1.398 . S
C354 C355 1.391 . S
C355 H343 0.950 . S
C355 C351 1.393 . S
C355 C354 1.391 . S
H356 C364 0.950 . S
H357 C369 0.950 . S
H358 C366 0.950 . S
H359 C368 0.950 . S
H360 C370 0.950 . S
H361 C372 0.950 . S
H362 C374 0.950 . S
H363 C375 0.950 . S
C364 H356 0.950 . S
C364 C365 1.386 . S
C364 C366 1.391 . S
C365 C364 1.386 . S
C365 C369 1.393 . S
C366 H358 0.950 . S
C366 C364 1.391 . S
C366 C367 1.400 . S
C367 C366 1.400 . S
C367 C368 1.398 . S
C367 C373 1.491 . S
C368 H359 0.950 . S
C368 C367 1.398 . S
C368 C369 1.391 . S
C369 H357 0.950 . S
C369 C365 1.393 . S
C369 C368 1.391 . S
C370 H360 0.950 . S
C370 C371 1.386 . S
C370 C372 1.391 . S
C371 C370 1.386 . S
C371 C375 1.393 . S
C372 H361 0.950 . S
C372 C370 1.391 . S
C372 C373 1.400 . S
C373 C367 1.491 . S
C373 C372 1.400 . S
C373 C374 1.398 . S
C374 H362 0.950 . S
C374 C373 1.398 . S
C374 C375 1.391 . S
C375 H363 0.950 . S
C375 C371 1.393 . S
C375 C374 1.391 . S
H376 C384 0.950 . S
H377 C389 0.950 . S
H378 C386 0.950 . S
H379 C388 0.950 . S
H380 C390 0.950 . S
H381 C392 0.950 . S
H382 C394 0.950 . S
H383 C395 0.950 . S
C384 H376 0.950 . S
C384 C385 1.386 . S
C384 C386 1.391 . S
C385 C384 1.386 . S
C385 C389 1.393 . S
C386 H378 0.950 . S
C386 C384 1.391 . S
C386 C387 1.400 . S
C387 C386 1.400 . S
C387 C388 1.398 . S
C387 C393 1.491 . S
C388 H379 0.950 . S
C388 C387 1.398 . S
C388 C389 1.391 . S
C389 H377 0.950 . S
C389 C385 1.393 . S
C389 C388 1.391 . S
C390 H380 0.950 . S
C390 C391 1.386 . S
C390 C392 1.391 . S
C391 C390 1.386 . S
C391 C395 1.393 . S
C392 H381 0.950 . S
C392 C390 1.391 . S
C392 C393 1.400 . S
C393 C387 1.491 . S
C393 C392 1.400 . S
C393 C394 1.398 . S
C394 H382 0.950 . S
C394 C393 1.398 . S
C394 C395 1.391 . S
C395 H383 0.950 . S
C395 C391 1.393 . S
C395 C394 1.391 . S
H396 C404 0.950 . S
H397 C409 0.950 . S
H398 C406 0.950 . S
H399 C408 0.950 . S
H400 C410 0.950 . S
H401 C412 0.953 . S
H402 C414 0.950 . S
H403 C415 0.950 . S
C404 H396 0.950 . S
C404 C405 1.386 . S
C404 C406 1.391 . S
C405 C404 1.386 . S
C405 C409 1.393 . S
C406 H398 0.950 . S
C406 C404 1.391 . S
C406 C407 1.400 . S
C407 C406 1.400 . S
C407 C408 1.398 . S
C407 C413 1.491 . S
C408 H399 0.950 . S
C408 C407 1.398 . S
C408 C409 1.391 . S
C409 H397 0.950 . S
C409 C405 1.393 . S
C409 C408 1.391 . S
C410 H400 0.950 . S
C410 C411 1.386 . S
C410 C412 1.387 1_545 S
C411 C410 1.386 . S
C411 C415 1.393 . S
C412 H401 0.953 . S
C412 C410 1.387 1_565 S
C412 C413 1.402 . S
C413 C407 1.491 . S
C413 C412 1.402 . S
C413 C414 1.398 1_565 S
C414 H402 0.950 . S
C414 C413 1.398 1_545 S
C414 C415 1.391 . S
C415 H403 0.950 . S
C415 C411 1.393 . S
C415 C414 1.391 . S
H416 C424 0.950 . S
H417 C429 0.950 . S
H418 C426 0.950 . S
H419 C428 0.950 . S
H420 C430 0.950 . S
H421 C432 0.950 . S
H422 C434 0.950 . S
H423 C435 0.950 . S
C424 H416 0.950 . S
C424 C425 1.386 . S
C424 C426 1.391 . S
C425 C424 1.386 . S
C425 C429 1.393 . S
C426 H418 0.950 . S
C426 C424 1.391 . S
C426 C427 1.400 . S
C427 C426 1.400 . S
C427 C428 1.398 . S
C427 C433 1.491 1_545 S
C428 H419 0.950 . S
C428 C427 1.398 . S
C428 C429 1.391 . S
C429 H417 0.950 . S
C429 C425 1.393 . S
C429 C428 1.391 . S
C430 H420 0.950 . S
C430 C431 1.386 . S
C430 C432 1.391 . S
C431 C430 1.386 . S
C431 C435 1.393 . S
C432 H421 0.950 . S
C432 C430 1.391 . S
C432 C433 1.400 . S
C433 C427 1.491 1_565 S
C433 C432 1.400 . S
C433 C434 1.398 . S
C434 H422 0.950 . S
C434 C433 1.398 . S
C434 C435 1.391 . S
C435 H423 0.950 . S
C435 C431 1.393 . S
C435 C434 1.391 . S
H436 C444 0.950 . S
H437 C449 0.950 . S
H438 C446 0.950 . S
H439 C448 0.950 . S
H440 C450 0.950 . S
H441 C452 0.950 . S
H442 C454 0.950 . S
H443 C455 0.950 . S
C444 H436 0.950 . S
C444 C445 1.386 . S
C444 C446 1.391 . S
C445 C444 1.386 . S
C445 C449 1.393 . S
C446 H438 0.950 . S
C446 C444 1.391 . S
C446 C447 1.400 . S
C447 C446 1.400 . S
C447 C448 1.398 . S
C447 C453 1.491 1_545 S
C448 H439 0.950 . S
C448 C447 1.398 . S
C448 C449 1.391 . S
C449 H437 0.950 . S
C449 C445 1.393 . S
C449 C448 1.391 . S
C450 H440 0.950 . S
C450 C451 1.386 . S
C450 C452 1.391 . S
C451 C450 1.386 . S
C451 C455 1.393 . S
C452 H441 0.950 . S
C452 C450 1.391 . S
C452 C453 1.400 . S
C453 C447 1.491 1_565 S
C453 C452 1.400 . S
C453 C454 1.398 . S
C454 H442 0.950 . S
C454 C453 1.398 . S
C454 C455 1.391 . S
C455 H443 0.950 . S
C455 C451 1.393 . S
C455 C454 1.391 . S
H456 C464 0.950 . S
H457 C469 0.950 . S
H458 C466 0.950 . S
H459 C468 0.950 . S
H460 C470 0.950 . S
H461 C472 0.950 . S
H462 C474 0.950 . S
H463 C475 0.950 . S
C464 H456 0.950 . S
C464 C465 1.386 . S
C464 C466 1.391 . S
C465 C464 1.386 . S
C465 C469 1.393 . S
C466 H458 0.950 . S
C466 C464 1.391 . S
C466 C467 1.400 . S
C467 C466 1.400 . S
C467 C468 1.398 . S
C467 C473 1.491 . S
C468 H459 0.950 . S
C468 C467 1.398 . S
C468 C469 1.391 . S
C469 H457 0.950 . S
C469 C465 1.393 . S
C469 C468 1.391 . S
C470 H460 0.950 . S
C470 C471 1.386 . S
C470 C472 1.391 . S
C471 C470 1.386 . S
C471 C475 1.393 . S
C472 H461 0.950 . S
C472 C470 1.391 . S
C472 C473 1.400 1_545 S
C473 C467 1.491 . S
C473 C472 1.400 1_565 S
C473 C474 1.398 . S
C474 H462 0.950 . S
C474 C473 1.398 . S
C474 C475 1.391 1_565 S
C475 H463 0.950 . S
C475 C471 1.393 . S
C475 C474 1.391 1_545 S
H476 C484 0.950 . S
H477 C489 0.950 . S
H478 C486 0.950 1_556 S
H479 C488 0.985 . S
H480 C490 0.950 . S
H481 C492 0.950 . S
H482 C494 0.950 . S
H483 C495 0.950 . S
C484 H476 0.950 . S
C484 C485 1.386 . S
C484 C486 1.391 . S
C485 C484 1.386 . S
C485 C489 1.393 . S
C486 H478 0.950 1_554 S
C486 C484 1.391 . S
C486 C487 1.400 1_554 S
C487 C486 1.400 1_556 S
C487 C488 1.424 . S
C487 C493 1.491 . S
C488 H479 0.985 . S
C488 C487 1.424 . S
C488 C489 1.333 1_556 S
C489 H477 0.950 . S
C489 C485 1.393 . S
C489 C488 1.333 1_554 S
C490 H480 0.950 . S
C490 C491 1.386 . S
C490 C492 1.391 . S
C491 C490 1.386 . S
C491 C495 1.393 . S
C492 H481 0.950 . S
C492 C490 1.391 . S
C492 C493 1.400 . S
C493 C487 1.491 . S
C493 C492 1.400 . S
C493 C494 1.398 . S
C494 H482 0.950 . S
C494 C493 1.398 . S
C494 C495 1.391 . S
C495 H483 0.950 . S
C495 C491 1.393 . S
C495 C494 1.391 . S
H496 C504 0.950 . S
H497 C509 0.950 . S
H498 C506 0.950 . S
H499 C508 0.950 . S
H500 C510 0.950 . S
H501 C512 0.950 . S
H502 C514 0.950 . S
H503 C515 0.950 . S
C504 H496 0.950 . S
C504 C505 1.386 . S
C504 C506 1.391 . S
C505 C504 1.386 . S
C505 C509 1.393 . S
C506 H498 0.950 . S
C506 C504 1.391 . S
C506 C507 1.400 . S
C507 C506 1.400 . S
C507 C508 1.398 . S
C507 C513 1.491 . S
C508 H499 0.950 . S
C508 C507 1.398 . S
C508 C509 1.391 . S
C509 H497 0.950 . S
C509 C505 1.393 . S
C509 C508 1.391 . S
C510 H500 0.950 . S
C510 C511 1.386 . S
C510 C512 1.391 . S
C511 C510 1.386 . S
C511 C515 1.393 . S
C512 H501 0.950 . S
C512 C510 1.391 . S
C512 C513 1.400 . S
C513 C507 1.491 . S
C513 C512 1.400 . S
C513 C514 1.398 . S
C514 H502 0.950 . S
C514 C513 1.398 . S
C514 C515 1.391 . S
C515 H503 0.950 . S
C515 C511 1.393 . S
C515 C514 1.391 . S
H516 C524 0.950 . S
H517 C529 0.950 . S
H518 C526 0.950 . S
H519 C528 0.950 . S
H520 C530 0.950 . S
H521 C532 0.950 . S
H522 C534 0.950 . S
H523 C535 0.950 . S
C524 H516 0.950 . S
C524 C525 1.386 . S
C524 C526 1.391 . S
C525 C524 1.386 . S
C525 C529 1.393 . S
C526 H518 0.950 . S
C526 C524 1.391 . S
C526 C527 1.400 . S
C527 C526 1.400 . S
C527 C528 1.398 . S
C527 C533 1.491 . S
C528 H519 0.950 . S
C528 C527 1.398 . S
C528 C529 1.391 . S
C529 H517 0.950 . S
C529 C525 1.393 . S
C529 C528 1.391 . S
C530 H520 0.950 . S
C530 C531 1.386 . S
C530 C532 1.391 . S
C531 C530 1.386 . S
C531 C535 1.393 . S
C532 H521 0.950 . S
C532 C530 1.391 . S
C532 C533 1.400 . S
C533 C527 1.491 . S
C533 C532 1.400 . S
C533 C534 1.398 . S
C534 H522 0.950 . S
C534 C533 1.398 . S
C534 C535 1.391 . S
C535 H523 0.950 . S
C535 C531 1.393 . S
C535 C534 1.391 . S
H536 C544 0.950 . S
H537 C549 0.950 . S
H538 C546 0.950 . S
H539 C548 0.950 . S
H540 C550 0.950 . S
H541 C552 0.950 . S
H542 C554 0.950 . S
H543 C555 0.950 . S
C544 H536 0.950 . S
C544 C545 1.386 . S
C544 C546 1.391 . S
C545 C544 1.386 . S
C545 C549 1.393 . S
C546 H538 0.950 . S
C546 C544 1.391 . S
C546 C547 1.400 . S
C547 C546 1.400 . S
C547 C548 1.398 . S
C547 C553 1.491 . S
C548 H539 0.950 . S
C548 C547 1.398 . S
C548 C549 1.391 . S
C549 H537 0.950 . S
C549 C545 1.393 . S
C549 C548 1.391 . S
C550 H540 0.950 . S
C550 C551 1.386 . S
C550 C552 1.391 . S
C551 C550 1.386 . S
C551 C555 1.393 . S
C552 H541 0.950 . S
C552 C550 1.391 . S
C552 C553 1.400 . S
C553 C547 1.491 . S
C553 C552 1.400 . S
C553 C554 1.398 . S
C554 H542 0.950 . S
C554 C553 1.398 . S
C554 C555 1.391 . S
C555 H543 0.950 . S
C555 C551 1.393 . S
C555 C554 1.391 . S
H556 C564 0.950 . S
H557 C569 0.950 . S
H558 C566 0.950 1_554 S
H559 C568 0.950 1_554 S
H560 C570 0.950 . S
H561 C572 0.950 . S
H562 C574 0.950 . S
H563 C575 0.950 . S
C564 H556 0.950 . S
C564 C565 1.386 . S
C564 C566 1.391 . S
C565 C564 1.386 . S
C565 C569 1.393 . S
C566 H558 0.950 1_556 S
C566 C564 1.391 . S
C566 C567 1.400 1_556 S
C567 C566 1.400 1_554 S
C567 C568 1.398 1_554 S
C567 C573 1.491 . S
C568 H559 0.950 1_556 S
C568 C567 1.398 1_556 S
C568 C569 1.391 . S
C569 H557 0.950 . S
C569 C565 1.393 . S
C569 C568 1.391 . S
C570 H560 0.950 . S
C570 C571 1.386 . S
C570 C572 1.391 . S
C571 C570 1.386 . S
C571 C575 1.393 . S
C572 H561 0.950 . S
C572 C570 1.391 . S
C572 C573 1.400 . S
C573 C567 1.491 . S
C573 C572 1.400 . S
C573 C574 1.398 . S
C574 H562 0.950 . S
C574 C573 1.398 . S
C574 C575 1.391 . S
C575 H563 0.950 . S
C575 C571 1.393 . S
C575 C574 1.391 . S
H576 C584 0.950 . S
H577 C589 0.950 . S
H578 C586 0.950 . S
H579 C588 0.950 . S
H580 C590 0.950 . S
H581 C592 0.950 . S
H582 C594 0.950 . S
H583 C595 0.950 . S
C584 H576 0.950 . S
C584 C585 1.386 . S
C584 C586 1.391 . S
C585 C584 1.386 . S
C585 C589 1.393 . S
C586 H578 0.950 . S
C586 C584 1.391 . S
C586 C587 1.400 . S
C587 C586 1.400 . S
C587 C588 1.398 . S
C587 C593 1.491 . S
C588 H579 0.950 . S
C588 C587 1.398 . S
C588 C589 1.391 . S
C589 H577 0.950 . S
C589 C585 1.393 . S
C589 C588 1.391 . S
C590 H580 0.950 . S
C590 C591 1.386 . S
C590 C592 1.391 . S
C591 C590 1.386 . S
C591 C595 1.393 . S
C592 H581 0.950 . S
C592 C590 1.391 . S
C592 C593 1.400 . S
C593 C587 1.491 . S
C593 C592 1.400 . S
C593 C594 1.398 . S
C594 H582 0.950 . S
C594 C593 1.398 . S
C594 C595 1.391 . S
C595 H583 0.950 . S
C595 C591 1.393 . S
C595 C594 1.391 . S
H596 C604 0.950 . S
H597 C609 0.950 . S
H598 C606 0.950 . S
H599 C608 0.950 . S
H600 C610 0.950 . S
H601 C612 0.950 . S
H602 C614 0.950 . S
H603 C615 0.950 . S
C604 H596 0.950 . S
C604 C605 1.386 . S
C604 C606 1.391 . S
C605 C604 1.386 . S
C605 C609 1.393 . S
C606 H598 0.950 . S
C606 C604 1.391 . S
C606 C607 1.400 . S
C607 C606 1.400 . S
C607 C608 1.398 . S
C607 C613 1.491 . S
C608 H599 0.950 . S
C608 C607 1.398 . S
C608 C609 1.391 . S
C609 H597 0.950 . S
C609 C605 1.393 . S
C609 C608 1.391 . S
C610 H600 0.950 . S
C610 C611 1.386 . S
C610 C612 1.391 . S
C611 C610 1.386 . S
C611 C615 1.393 . S
C612 H601 0.950 . S
C612 C610 1.391 . S
C612 C613 1.400 . S
C613 C607 1.491 . S
C613 C612 1.400 . S
C613 C614 1.398 . S
C614 H602 0.950 . S
C614 C613 1.398 . S
C614 C615 1.391 . S
C615 H603 0.950 . S
C615 C611 1.393 . S
C615 C614 1.391 . S
H616 C624 0.950 . S
H617 C629 0.950 . S
H618 C626 0.950 . S
H619 C628 0.950 . S
H620 C630 0.950 . S
H621 C632 0.950 . S
H622 C634 0.950 . S
H623 C635 0.950 . S
C624 H616 0.950 . S
C624 C625 1.386 . S
C624 C626 1.391 . S
C625 C624 1.386 . S
C625 C629 1.393 . S
C626 H618 0.950 . S
C626 C624 1.391 . S
C626 C627 1.400 . S
C627 C626 1.400 . S
C627 C628 1.398 . S
C627 C633 1.491 . S
C628 H619 0.950 . S
C628 C627 1.398 . S
C628 C629 1.391 . S
C629 H617 0.950 . S
C629 C625 1.393 . S
C629 C628 1.391 . S
C630 H620 0.950 . S
C630 C631 1.386 . S
C630 C632 1.391 . S
C631 C630 1.386 . S
C631 C635 1.393 . S
C632 H621 0.950 . S
C632 C630 1.391 . S
C632 C633 1.400 . S
C633 C627 1.491 . S
C633 C632 1.400 . S
C633 C634 1.398 . S
C634 H622 0.950 . S
C634 C633 1.398 . S
C634 C635 1.391 . S
C635 H623 0.950 . S
C635 C631 1.393 . S
C635 C634 1.391 . S
C171 C79 1.452 . S
C165 C4 1.551 . S
C191 C97 1.318 . S
C185 C13 1.393 . S
C205 C25 1.358 . S
C211 C121 1.222 . S
C231 C151 1.235 1_655 S
C225 C34 1.412 . S
C251 C139 1.212 . S
C245 C40 1.370 . S
C265 C52 1.383 . S
C271 C92 1.306 1_655 S
C285 C61 1.540 . S
C291 C112 1.441 . S
C305 C67 1.429 . S
C311 C117 1.242 . S
C325 C70 1.377 . S
C331 C133 1.312 . S
C345 C49 1.436 . S
C351 C88 1.243 . S
C371 C155 1.340 . S
C365 C31 1.399 . S
C391 C100 1.253 . S
C385 C16 1.396 . S
C405 C22 1.535 . S
C411 C118 1.423 . S
C425 C7 1.367 . S
C431 C76 1.231 . S
C451 C96 1.249 . S
C445 C58 1.357 . S
C471 C142 1.455 . S
C465 C43 1.552 . S
C491 C138 1.316 . S
C485 C5 1.475 . S
C511 C91 1.364 . S
C505 C14 1.451 . S
C525 C23 1.467 . S
C531 C113 1.310 . S
C545 C32 1.469 . S
C551 C134 1.374 . S
C571 C75 1.330 . S
C565 C41 1.488 . S
C585 C50 1.493 . S
C591 C109 1.393 . S
C611 C130 1.310 . S
C605 C59 1.504 . S
C631 C154 1.366 . S
C625 C68 1.472 . S
