# Generated by pormake.
# Topology apo, (3,6)-cn, num edge types: 1
# Building blocks:
#     Node 0, Type 0, BuildingBlock: KAKCAD_clean_linker_0, # of connection points: 3
#     Node 1, Type 0, BuildingBlock: KAKCAD_clean_linker_0, # of connection points: 3
#     Node 2, Type 0, BuildingBlock: KAKCAD_clean_linker_0, # of connection points: 3
#     Node 3, Type 0, BuildingBlock: KAKCAD_clean_linker_0, # of connection points: 3
#     Node 4, Type 0, BuildingBlock: KAKCAD_clean_linker_0, # of connection points: 3
#     Node 5, Type 0, BuildingBlock: KAKCAD_clean_linker_0, # of connection points: 3
#     Node 6, Type 0, BuildingBlock: KAKCAD_clean_linker_0, # of connection points: 3
#     Node 7, Type 0, BuildingBlock: KAKCAD_clean_linker_0, # of connection points: 3
#     Node 8, Type 1, BuildingBlock: KUMBUR_clean_sbu_1, # of connection points: 6
#     Node 9, Type 1, BuildingBlock: KUMBUR_clean_sbu_1, # of connection points: 6
#     Node 10, Type 1, BuildingBlock: KUMBUR_clean_sbu_1, # of connection points: 6
#     Node 11, Type 1, BuildingBlock: KUMBUR_clean_sbu_1, # of connection points: 6
#     Edge 12, Type (0, 1), BuildingBlock: KIFKEQ_clean_linker_1, # of connection points: 2
#     Edge 13, Type (0, 1), BuildingBlock: KIFKEQ_clean_linker_1, # of connection points: 2
#     Edge 14, Type (0, 1), BuildingBlock: KIFKEQ_clean_linker_1, # of connection points: 2
#     Edge 15, Type (0, 1), BuildingBlock: KIFKEQ_clean_linker_1, # of connection points: 2
#     Edge 16, Type (0, 1), BuildingBlock: KIFKEQ_clean_linker_1, # of connection points: 2
#     Edge 17, Type (0, 1), BuildingBlock: KIFKEQ_clean_linker_1, # of connection points: 2
#     Edge 18, Type (0, 1), BuildingBlock: KIFKEQ_clean_linker_1, # of connection points: 2
#     Edge 19, Type (0, 1), BuildingBlock: KIFKEQ_clean_linker_1, # of connection points: 2
#     Edge 20, Type (0, 1), BuildingBlock: KIFKEQ_clean_linker_1, # of connection points: 2
#     Edge 21, Type (0, 1), BuildingBlock: KIFKEQ_clean_linker_1, # of connection points: 2
#     Edge 22, Type (0, 1), BuildingBlock: KIFKEQ_clean_linker_1, # of connection points: 2
#     Edge 23, Type (0, 1), BuildingBlock: KIFKEQ_clean_linker_1, # of connection points: 2
#     Edge 24, Type (0, 1), BuildingBlock: KIFKEQ_clean_linker_1, # of connection points: 2
#     Edge 25, Type (0, 1), BuildingBlock: KIFKEQ_clean_linker_1, # of connection points: 2
#     Edge 26, Type (0, 1), BuildingBlock: KIFKEQ_clean_linker_1, # of connection points: 2
#     Edge 27, Type (0, 1), BuildingBlock: KIFKEQ_clean_linker_1, # of connection points: 2
#     Edge 28, Type (0, 1), BuildingBlock: KIFKEQ_clean_linker_1, # of connection points: 2
#     Edge 29, Type (0, 1), BuildingBlock: KIFKEQ_clean_linker_1, # of connection points: 2
#     Edge 30, Type (0, 1), BuildingBlock: KIFKEQ_clean_linker_1, # of connection points: 2
#     Edge 31, Type (0, 1), BuildingBlock: KIFKEQ_clean_linker_1, # of connection points: 2
#     Edge 32, Type (0, 1), BuildingBlock: KIFKEQ_clean_linker_1, # of connection points: 2
#     Edge 33, Type (0, 1), BuildingBlock: KIFKEQ_clean_linker_1, # of connection points: 2
#     Edge 34, Type (0, 1), BuildingBlock: KIFKEQ_clean_linker_1, # of connection points: 2
#     Edge 35, Type (0, 1), BuildingBlock: KIFKEQ_clean_linker_1, # of connection points: 2
# Relax obj value: 0.009
# Max RMSD: 0.097
# Mean RMSD: 0.075
data_MOF--net-apo--node1-KUMBUR_clean_sbu_1--node2-KAKCAD_clean_linker_0--edge1-KIFKEQ_clean_linker_1
_symmetry_space_group_name_H-M    P1
_symmetry_Int_Tables_number       1
_symmetry_cell_setting            triclinic
loop_
_symmetry_equiv_pos_as_xyz
'x, y, z'
_cell_length_a     29.768659
_cell_length_b     53.226199
_cell_length_c     64.790007
_cell_angle_alpha  90.047962
_cell_angle_beta   90.047802
_cell_angle_gamma 90.40477
loop_
_atom_site_label
_atom_site_type_symbol
_atom_site_fract_x
_atom_site_fract_y
_atom_site_fract_z
_atom_type_partial_charge
C0 C 0.30045 0.45866 0.36918 0.0
C1 C 0.34655 0.46359 0.36674 0.0
C2 C 0.2858 0.43834 0.38118 0.0
C3 C 0.31695 0.42297 0.39137 0.0
C4 C 0.36301 0.42828 0.38937 0.0
C5 C 0.3777 0.44825 0.37697 0.0
C6 C 0.30131 0.40088 0.40341 0.0
C7 C 0.2744 0.3825 0.39387 0.0
C8 C 0.25858 0.36145 0.40491 0.0
C9 C 0.26997 0.3593 0.42598 0.0
C10 C 0.29743 0.37743 0.43578 0.0
C11 C 0.31322 0.39809 0.42424 0.0
C12 C 0.30919 0.37499 0.4581 0.0
C13 C 0.27656 0.36766 0.47262 0.0
C14 C 0.35299 0.38028 0.46512 0.0
C15 C 0.36379 0.37846 0.48612 0.0
C16 C 0.33103 0.37139 0.5007 0.0
C17 C 0.23128 0.34158 0.39419 0.0
C18 C 0.20178 0.34788 0.37803 0.0
C19 C 0.23565 0.31605 0.39943 0.0
C20 C 0.21192 0.29742 0.3886 0.0
C21 C 0.18367 0.30366 0.37194 0.0
C22 C 0.17878 0.32924 0.36695 0.0
C23 C 0.28728 0.36594 0.49362 0.0
H24 H 0.27581 0.47015 0.36138 0.0
H25 H 0.2501 0.43461 0.38253 0.0
H26 H 0.38763 0.41661 0.397 0.0
H27 H 0.41342 0.45175 0.37538 0.0
H28 H 0.26703 0.38439 0.37758 0.0
H29 H 0.33372 0.41243 0.4316 0.0
H30 H 0.25766 0.34343 0.43482 0.0
H31 H 0.24233 0.36381 0.46782 0.0
H32 H 0.37913 0.38562 0.45433 0.0
H33 H 0.39798 0.38242 0.49089 0.0
H34 H 0.19653 0.36729 0.37374 0.0
H35 H 0.25826 0.31026 0.41159 0.0
H36 H 0.26088 0.36091 0.50436 0.0
H37 H 0.15796 0.33502 0.35413 0.0
H38 H 0.21603 0.27807 0.39332 0.0
C39 C 0.20543 0.04083 0.86583 0.0
C40 C 0.15913 0.03619 0.86386 0.0
C41 C 0.22111 0.06085 0.87793 0.0
C42 C 0.19082 0.07619 0.88867 0.0
C43 C 0.14456 0.07123 0.88706 0.0
C44 C 0.12882 0.05157 0.87456 0.0
C45 C 0.2076 0.09764 0.90118 0.0
C46 C 0.23478 0.11615 0.89201 0.0
C47 C 0.25194 0.13648 0.90361 0.0
C48 C 0.24185 0.13763 0.92488 0.0
C49 C 0.2139 0.11944 0.93421 0.0
C50 C 0.1966 0.09963 0.92216 0.0
C51 C 0.20281 0.121 0.95657 0.0
C52 C 0.23685 0.12453 0.97136 0.0
C53 C 0.15807 0.11865 0.9633 0.0
C54 C 0.14756 0.11996 0.98434 0.0
C55 C 0.18165 0.1232 0.99915 0.0
C56 C 0.27898 0.15672 0.89325 0.0
C57 C 0.30688 0.15114 0.87634 0.0
C58 C 0.27565 0.18198 0.89952 0.0
C59 C 0.29874 0.20105 0.88896 0.0
C60 C 0.32527 0.19557 0.87154 0.0
C61 C 0.32918 0.17024 0.86553 0.0
C62 C 0.22643 0.1254 0.99243 0.0
H63 H 0.22942 0.02929 0.85766 0.0
H64 H 0.25696 0.06429 0.879 0.0
H65 H 0.12059 0.08287 0.89514 0.0
H66 H 0.09297 0.04828 0.87333 0.0
H67 H 0.24125 0.11495 0.8756 0.0
H68 H 0.1756 0.08533 0.92925 0.0
H69 H 0.25532 0.1528 0.93422 0.0
H70 H 0.27164 0.12623 0.96664 0.0
H71 H 0.13112 0.11605 0.95224 0.0
H72 H 0.1128 0.1181 0.98905 0.0
H73 H 0.31135 0.13196 0.87123 0.0
H74 H 0.25428 0.18724 0.9123 0.0
H75 H 0.25337 0.1281 1.00348 0.0
H76 H 0.34865 0.16503 0.85212 0.0
H77 H 0.29546 0.22015 0.89447 0.0
C78 C 0.79901 0.04536 0.64942 0.0
C79 C 0.84411 0.0378 0.64872 0.0
C80 C 0.7843 0.06568 0.63759 0.0
C81 C 0.81421 0.07866 0.62455 0.0
C82 C 0.85912 0.0708 0.62351 0.0
C83 C 0.87401 0.05071 0.63561 0.0
C84 C 0.79871 0.10082 0.61263 0.0
C85 C 0.77437 0.11978 0.62259 0.0
C86 C 0.75861 0.14084 0.61172 0.0
C87 C 0.76802 0.14269 0.59045 0.0
C88 C 0.79285 0.12398 0.58014 0.0
C89 C 0.80809 0.10313 0.59147 0.0
C90 C 0.80283 0.12624 0.55758 0.0
C91 C 0.77063 0.13589 0.54386 0.0
C92 C 0.8448 0.119 0.54959 0.0
C93 C 0.85448 0.1217 0.52853 0.0
C94 C 0.82258 0.13188 0.51494 0.0
C95 C 0.73308 0.16089 0.62283 0.0
C96 C 0.70435 0.15466 0.63936 0.0
C97 C 0.73821 0.18645 0.61757 0.0
C98 C 0.71599 0.20517 0.62878 0.0
C99 C 0.68879 0.19881 0.64572 0.0
C100 C 0.68294 0.17337 0.65078 0.0
C101 C 0.78041 0.13873 0.52286 0.0
H102 H 0.77527 0.03588 0.65946 0.0
H103 H 0.74944 0.07124 0.63861 0.0
H104 H 0.88293 0.08056 0.61368 0.0
H105 H 0.90889 0.04516 0.63464 0.0
H106 H 0.76881 0.11831 0.63907 0.0
H107 H 0.82629 0.08828 0.58374 0.0
H108 H 0.75614 0.15878 0.58188 0.0
H109 H 0.73762 0.14115 0.54929 0.0
H110 H 0.87068 0.11178 0.55968 0.0
H111 H 0.88746 0.1165 0.523 0.0
H112 H 0.69837 0.13525 0.6436 0.0
H113 H 0.76039 0.19214 0.60518 0.0
H114 H 0.75478 0.14624 0.51277 0.0
H115 H 0.66162 0.16794 0.66359 0.0
H116 H 0.72122 0.22468 0.62463 0.0
C117 C 0.70207 0.45845 0.14877 0.0
C118 C 0.65627 0.46466 0.14888 0.0
C119 C 0.71747 0.43819 0.13701 0.0
C120 C 0.68755 0.42402 0.1248 0.0
C121 C 0.64189 0.43054 0.12457 0.0
C122 C 0.62633 0.45051 0.13666 0.0
C123 C 0.7039 0.40208 0.11281 0.0
C124 C 0.72937 0.38349 0.12262 0.0
C125 C 0.74578 0.36261 0.11166 0.0
C126 C 0.73621 0.36075 0.09035 0.0
C127 C 0.71013 0.37907 0.08024 0.0
C128 C 0.69403 0.39962 0.0917 0.0
C129 C 0.6995 0.37679 0.05774 0.0
C130 C 0.73238 0.36911 0.04352 0.0
C131 C 0.6563 0.3824 0.05028 0.0
C132 C 0.64616 0.38024 0.02922 0.0
C133 C 0.67899 0.37252 0.015 0.0
C134 C 0.77171 0.34264 0.12275 0.0
C135 C 0.79967 0.34887 0.1396 0.0
C136 C 0.76741 0.31708 0.11725 0.0
C137 C 0.78954 0.29839 0.12855 0.0
C138 C 0.81583 0.30473 0.14583 0.0
C139 C 0.82095 0.33017 0.15111 0.0
C140 C 0.7223 0.36707 0.02243 0.0
H141 H 0.72584 0.46896 0.15812 0.0
H142 H 0.75287 0.43362 0.13741 0.0
H143 H 0.6181 0.41985 0.11537 0.0
H144 H 0.59089 0.45498 0.13637 0.0
H145 H 0.73514 0.38507 0.13909 0.0
H146 H 0.67471 0.41411 0.0841 0.0
H147 H 0.74874 0.34494 0.08161 0.0
H148 H 0.76612 0.36489 0.04865 0.0
H149 H 0.63 0.38816 0.06077 0.0
H150 H 0.61258 0.38481 0.02407 0.0
H151 H 0.8051 0.36826 0.14405 0.0
H152 H 0.74585 0.31135 0.10462 0.0
H153 H 0.74832 0.3608 0.01199 0.0
H154 H 0.84158 0.3356 0.16418 0.0
H155 H 0.78488 0.27889 0.1242 0.0
C156 C 0.65524 0.55688 0.65158 0.0
C157 C 0.66878 0.53228 0.647 0.0
C158 C 0.67103 0.57714 0.63989 0.0
C159 C 0.69997 0.57318 0.62311 0.0
C160 C 0.71314 0.54855 0.61831 0.0
C161 C 0.69809 0.52827 0.63034 0.0
C162 C 0.71662 0.59496 0.61101 0.0
C163 C 0.7382 0.61494 0.62117 0.0
C164 C 0.75128 0.63681 0.61048 0.0
C165 C 0.74245 0.63824 0.58912 0.0
C166 C 0.72148 0.61815 0.57855 0.0
C167 C 0.70903 0.59647 0.58967 0.0
C168 C 0.71116 0.62009 0.55607 0.0
C169 C 0.69311 0.64226 0.54777 0.0
C170 C 0.7182 0.59955 0.5428 0.0
C171 C 0.70707 0.60106 0.52184 0.0
C172 C 0.68831 0.62308 0.51361 0.0
C173 C 0.77383 0.65798 0.62179 0.0
C174 C 0.7628 0.66312 0.64252 0.0
C175 C 0.80732 0.67282 0.61227 0.0
C176 C 0.82945 0.69194 0.62327 0.0
C177 C 0.81921 0.69628 0.6441 0.0
C178 C 0.78563 0.68179 0.65359 0.0
C179 C 0.68171 0.64371 0.52683 0.0
H180 H 0.63282 0.56047 0.6644 0.0
H181 H 0.66031 0.59594 0.64385 0.0
H182 H 0.73557 0.54508 0.60548 0.0
H183 H 0.70882 0.50945 0.62647 0.0
H184 H 0.74517 0.61313 0.63751 0.0
H185 H 0.69167 0.58117 0.58192 0.0
H186 H 0.75162 0.65504 0.58066 0.0
H187 H 0.68685 0.65835 0.55757 0.0
H188 H 0.73237 0.58227 0.54864 0.0
H189 H 0.71222 0.58473 0.51217 0.0
H190 H 0.7364 0.65276 0.65031 0.0
H191 H 0.81732 0.66934 0.59647 0.0
H192 H 0.6677 0.66103 0.52098 0.0
H193 H 0.7768 0.68506 0.66959 0.0
H194 H 0.85541 0.70289 0.61568 0.0
C195 C 0.78281 0.86872 0.02063 0.0
C196 C 0.82449 0.87851 0.01408 0.0
C197 C 0.77119 0.86871 0.04165 0.0
C198 C 0.80105 0.87842 0.05657 0.0
C199 C 0.8434 0.88719 0.05001 0.0
C200 C 0.85487 0.8873 0.0291 0.0
C201 C 0.78778 0.88065 0.07876 0.0
C202 C 0.76386 0.8613 0.08894 0.0
C203 C 0.75273 0.86346 0.11006 0.0
C204 C 0.76471 0.88561 0.12069 0.0
C205 C 0.78879 0.90492 0.11088 0.0
C206 C 0.8 0.90233 0.08997 0.0
C207 C 0.80424 0.92724 0.1228 0.0
C208 C 0.77444 0.94056 0.13552 0.0
C209 C 0.84953 0.93481 0.12206 0.0
C210 C 0.86494 0.95489 0.13414 0.0
C211 C 0.83526 0.9681 0.14697 0.0
C212 C 0.73036 0.84243 0.12148 0.0
C213 C 0.69504 0.82839 0.11264 0.0
C214 C 0.74388 0.83659 0.14173 0.0
C215 C 0.72222 0.81769 0.15298 0.0
C216 C 0.68654 0.8038 0.1443 0.0
C217 C 0.67333 0.80934 0.12392 0.0
C218 C 0.78972 0.96095 0.14734 0.0
H219 H 0.75857 0.86187 0.00946 0.0
H220 H 0.73823 0.86192 0.04612 0.0
H221 H 0.86777 0.89418 0.06106 0.0
H222 H 0.88765 0.89441 0.02467 0.0
H223 H 0.75551 0.8442 0.08067 0.0
H224 H 0.81788 0.91751 0.08236 0.0
H225 H 0.75614 0.88767 0.13685 0.0
H226 H 0.73932 0.93517 0.13631 0.0
H227 H 0.8733 0.92478 0.11252 0.0
H228 H 0.90015 0.9601 0.13345 0.0
H229 H 0.6836 0.83241 0.09712 0.0
H230 H 0.77144 0.84665 0.14898 0.0
H231 H 0.76618 0.97075 0.15717 0.0
H232 H 0.64635 0.79887 0.11661 0.0
H233 H 0.7331 0.81428 0.16867 0.0
C234 C 0.15644 0.94396 0.36055 0.0
C235 C 0.15613 0.96789 0.3697 0.0
C236 C 0.17053 0.92296 0.37168 0.0
C237 C 0.18544 0.92526 0.39225 0.0
C238 C 0.18448 0.9492 0.40154 0.0
C239 C 0.16977 0.97025 0.39041 0.0
C240 C 0.20227 0.90267 0.4036 0.0
C241 C 0.22652 0.88415 0.39292 0.0
C242 C 0.23973 0.86168 0.40253 0.0
C243 C 0.23017 0.85847 0.42368 0.0
C244 C 0.20738 0.87711 0.43503 0.0
C245 C 0.19334 0.89907 0.42476 0.0
C246 C 0.19755 0.8734 0.45751 0.0
C247 C 0.18395 0.84975 0.46503 0.0
C248 C 0.20211 0.89334 0.47168 0.0
C249 C 0.19401 0.88961 0.49281 0.0
C250 C 0.18112 0.86584 0.50036 0.0
C251 C 0.26255 0.84158 0.39019 0.0
C252 C 0.25106 0.83763 0.36933 0.0
C253 C 0.29601 0.82629 0.39889 0.0
C254 C 0.31735 0.80776 0.38707 0.0
C255 C 0.3063 0.80413 0.3661 0.0
C256 C 0.27284 0.81946 0.35746 0.0
C257 C 0.17584 0.84604 0.48611 0.0
H258 H 0.14526 0.9414 0.34477 0.0
H259 H 0.16942 0.90483 0.36411 0.0
H260 H 0.19597 0.95181 0.41725 0.0
H261 H 0.17005 0.98847 0.39787 0.0
H262 H 0.23554 0.88739 0.37696 0.0
H263 H 0.1741 0.91296 0.4331 0.0
H264 H 0.24029 0.84135 0.43135 0.0
H265 H 0.17911 0.83407 0.45459 0.0
H266 H 0.21294 0.91175 0.46651 0.0
H267 H 0.19891 0.90526 0.50329 0.0
H268 H 0.2249 0.84853 0.36205 0.0
H269 H 0.30625 0.82879 0.4148 0.0
H270 H 0.16504 0.82759 0.49121 0.0
H271 H 0.26362 0.81774 0.34136 0.0
H272 H 0.34235 0.79619 0.3945 0.0
C273 C 0.28162 0.63908 0.99059 0.0
C274 C 0.32565 0.63515 0.99791 0.0
C275 C 0.27139 0.63651 0.96955 0.0
C276 C 0.30473 0.62957 0.95536 0.0
C277 C 0.34868 0.62582 0.96256 0.0
C278 C 0.35908 0.62876 0.98348 0.0
C279 C 0.2937 0.62546 0.93318 0.0
C280 C 0.26968 0.64354 0.92185 0.0
C281 C 0.26023 0.63983 0.90071 0.0
C282 C 0.27378 0.61725 0.89131 0.0
C283 C 0.29791 0.5991 0.90235 0.0
C284 C 0.30802 0.60345 0.92322 0.0
C285 C 0.31347 0.5759 0.89181 0.0
C286 C 0.28406 0.56194 0.87922 0.0
C287 C 0.35824 0.56806 0.8937 0.0
C288 C 0.3736 0.5471 0.88278 0.0
C289 C 0.3444 0.53329 0.86986 0.0
C290 C 0.23768 0.65965 0.88813 0.0
C291 C 0.20248 0.67411 0.89629 0.0
C292 C 0.25126 0.66416 0.86763 0.0
C293 C 0.22982 0.68222 0.85553 0.0
C294 C 0.19446 0.69651 0.86361 0.0
C295 C 0.18121 0.69236 0.88419 0.0
C296 C 0.29923 0.54082 0.86849 0.0
H297 H 0.25472 0.64367 1.00114 0.0
H298 H 0.23712 0.6393 0.96446 0.0
H299 H 0.37522 0.62078 0.95193 0.0
H300 H 0.3936 0.62622 0.98826 0.0
H301 H 0.25994 0.66088 0.92933 0.0
H302 H 0.3263 0.58939 0.93186 0.0
H303 H 0.26614 0.61389 0.87518 0.0
H304 H 0.2492 0.56735 0.87769 0.0
H305 H 0.38179 0.57861 0.90314 0.0
H306 H 0.40873 0.54221 0.88403 0.0
H307 H 0.19076 0.67103 0.9119 0.0
H308 H 0.27895 0.65391 0.86092 0.0
H309 H 0.27544 0.53041 0.8591 0.0
H310 H 0.15381 0.70292 0.89083 0.0
H311 H 0.24146 0.68525 0.83989 0.0
Tb312 Tb 0.05196 0.13766 0.23866 0.0
C313 C 0.85281 0.11811 0.26498 0.0
N314 N 0.87515 0.14027 0.26258 0.0
C315 C 0.81227 0.15737 0.24433 0.0
C316 C 0.80933 0.11459 0.25679 0.0
C317 C 0.85544 0.15994 0.25263 0.0
C318 C 0.78913 0.13459 0.24637 0.0
C319 C 0.85292 0.07512 0.27728 0.0
C320 C 0.87465 0.09857 0.2749 0.0
C321 C 0.8096 0.07148 0.26912 0.0
C322 C 0.78787 0.09116 0.25891 0.0
Tb323 Tb 0.94475 0.14245 0.27721 0.0
N324 N 0.91697 0.10263 0.28229 0.0
C325 C 0.87507 0.05615 0.28809 0.0
C326 C 0.93692 0.08481 0.29429 0.0
C327 C 0.91694 0.06117 0.29691 0.0
H328 H 0.8725 0.17782 0.25149 0.0
H329 H 0.93341 0.04702 0.30616 0.0
H330 H 0.12085 0.09438 0.25705 0.0
H331 H 0.07487 0.2367 0.22248 0.0
H332 H 0.96717 0.08881 0.3027 0.0
H333 H 0.85953 0.03787 0.29028 0.0
H334 H 0.03404 0.19655 0.22246 0.0
H335 H 0.79678 0.17301 0.23646 0.0
H336 H 0.7925 0.05355 0.27075 0.0
H337 H 0.75451 0.08805 0.25267 0.0
H338 H 0.19806 0.09285 0.2709 0.0
H339 H 0.75576 0.13263 0.23985 0.0
H340 H 0.15231 0.23909 0.23624 0.0
N341 N 0.12309 0.13367 0.25122 0.0
C342 C 0.14837 0.15503 0.25149 0.0
C343 C 0.18441 0.11049 0.26557 0.0
C344 C 0.19284 0.15497 0.25893 0.0
C345 C 0.14048 0.11147 0.25796 0.0
C346 C 0.2107 0.13233 0.2661 0.0
N347 N 0.08574 0.17642 0.23779 0.0
C348 C 0.06676 0.19732 0.22938 0.0
C349 C 0.15436 0.19964 0.24424 0.0
C350 C 0.12925 0.1771 0.24434 0.0
C351 C 0.13415 0.22138 0.23661 0.0
C352 C 0.09033 0.22014 0.22896 0.0
H353 H 0.24475 0.13149 0.27197 0.0
H354 H 0.25213 0.17779 0.26469 0.0
H355 H 0.21851 0.21686 0.25176 0.0
O356 O 0.04731 0.14147 0.20631 0.0
O357 O 0.062 0.15805 0.26806 0.0
O358 O 0.99249 0.17377 0.27593 0.0
O359 O 0.09423 0.11591 0.21973 0.0
O360 O 0.99124 0.15695 0.22744 0.0
O361 O 0.95673 0.17403 0.2562 0.0
O362 O 0.93981 0.14195 0.31028 0.0
O363 O 0.93522 0.123 0.24726 0.0
O364 O 0.00475 0.10635 0.24142 0.0
O365 O 0.89882 0.16637 0.29126 0.0
O366 O 0.00662 0.12439 0.28882 0.0
O367 O 0.03981 0.1064 0.26005 0.0
C368 C 0.036 0.17291 0.27894 0.0
C369 C 0.11508 0.13517 0.18809 0.0
C370 C 0.14177 0.14127 0.15268 0.0
C371 C 0.17947 0.15421 0.16041 0.0
C372 C 0.15368 0.14764 0.19533 0.0
C373 C 0.18547 0.1572 0.1816 0.0
C374 C 0.10953 0.13169 0.16664 0.0
C375 C 0.96313 0.17283 0.2361 0.0
C376 C 0.08031 0.12617 0.20272 0.0
C377 C 0.21789 0.17744 0.25901 0.0
C378 C 0.19872 0.1997 0.25166 0.0
C379 C 0.96162 0.10726 0.23745 0.0
C380 C 0.88644 0.17042 0.32792 0.0
C381 C 0.871 0.17301 0.36502 0.0
C382 C 0.8447 0.1944 0.36136 0.0
C383 C 0.85984 0.19186 0.32488 0.0
C384 C 0.89168 0.16084 0.34813 0.0
C385 C 0.83914 0.20366 0.34147 0.0
C386 C 0.03431 0.10811 0.28024 0.0
C387 C 0.90885 0.1591 0.30975 0.0
H388 H 0.2048 0.16162 0.15002 0.0
H389 H 0.15956 0.14994 0.21158 0.0
H390 H 0.21497 0.16688 0.18742 0.0
H391 H 0.0801 0.12187 0.16082 0.0
H392 H 0.82796 0.20389 0.37397 0.0
H393 H 0.85517 0.19973 0.30962 0.0
H394 H 0.91213 0.14439 0.35075 0.0
H395 H 0.81876 0.22013 0.33889 0.0
Tb396 Tb 0.45023 0.36407 0.73976 0.0
C397 C 0.65005 0.38283 0.76192 0.0
N398 N 0.62788 0.36045 0.76094 0.0
C399 C 0.68815 0.34281 0.74127 0.0
C400 C 0.69188 0.38626 0.75213 0.0
C401 C 0.64651 0.34038 0.75108 0.0
C402 C 0.71086 0.36587 0.74171 0.0
C403 C 0.65093 0.42631 0.77305 0.0
C404 C 0.62944 0.40265 0.77201 0.0
C405 C 0.69262 0.42988 0.76327 0.0
C406 C 0.71302 0.40991 0.75282 0.0
Tb407 Tb 0.55964 0.3588 0.77691 0.0
N408 N 0.5884 0.39867 0.78079 0.0
C409 C 0.63018 0.44556 0.78412 0.0
C410 C 0.57009 0.41681 0.79304 0.0
C411 C 0.58999 0.44063 0.79447 0.0
H412 H 0.62962 0.32238 0.75104 0.0
H413 H 0.57474 0.45504 0.80389 0.0
H414 H 0.37962 0.39891 0.76677 0.0
H415 H 0.43716 0.26912 0.70959 0.0
H416 H 0.54119 0.41297 0.80244 0.0
H417 H 0.6456 0.46401 0.78533 0.0
H418 H 0.47129 0.31075 0.71328 0.0
H419 H 0.70272 0.32688 0.7334 0.0
H420 H 0.70949 0.44798 0.76381 0.0
H421 H 0.74513 0.41296 0.74534 0.0
H422 H 0.30426 0.39405 0.78215 0.0
H423 H 0.74298 0.36772 0.73398 0.0
H424 H 0.36393 0.25982 0.72595 0.0
N425 N 0.38137 0.36165 0.75499 0.0
C426 C 0.35876 0.3396 0.75238 0.0
C427 C 0.3193 0.37854 0.77391 0.0
C428 C 0.3155 0.33605 0.76077 0.0
C429 C 0.36224 0.38115 0.76541 0.0
C430 C 0.29583 0.35589 0.77162 0.0
N431 N 0.42226 0.32428 0.73447 0.0
C432 C 0.44148 0.30666 0.72199 0.0
C433 C 0.35815 0.29683 0.73954 0.0
C434 C 0.38018 0.32017 0.74211 0.0
C435 C 0.37972 0.27801 0.7283 0.0
C436 C 0.42123 0.28311 0.71921 0.0
H437 H 0.26266 0.3539 0.77831 0.0
H438 H 0.2606 0.30957 0.76487 0.0
H439 H 0.29774 0.27531 0.74612 0.0
O440 O 0.44294 0.36385 0.70682 0.0
O441 O 0.44133 0.34495 0.76981 0.0
O442 O 0.51069 0.328 0.77608 0.0
O443 O 0.40369 0.38838 0.7265 0.0
O444 O 0.51107 0.34577 0.72754 0.0
O445 O 0.54447 0.32743 0.75605 0.0
O446 O 0.56644 0.35986 0.8098 0.0
O447 O 0.56699 0.37746 0.74666 0.0
O448 O 0.49817 0.39541 0.74077 0.0
O449 O 0.60608 0.33475 0.79076 0.0
O450 O 0.49952 0.37764 0.78931 0.0
O451 O 0.46411 0.39523 0.76093 0.0
C452 C 0.4675 0.32933 0.77989 0.0
C453 C 0.38825 0.39218 0.68999 0.0
C454 C 0.3657 0.39254 0.65362 0.0
C455 C 0.33823 0.41332 0.65764 0.0
C456 C 0.36058 0.4131 0.69343 0.0
C457 C 0.33596 0.42358 0.67737 0.0
C458 C 0.39128 0.3821 0.66984 0.0
C459 C 0.53805 0.32905 0.73596 0.0
C460 C 0.41201 0.38098 0.70786 0.0
C461 C 0.29379 0.31271 0.75847 0.0
C462 C 0.31505 0.29316 0.74789 0.0
C463 C 0.54183 0.39471 0.73809 0.0
C464 C 0.62004 0.33181 0.82754 0.0
C465 C 0.63646 0.3306 0.86464 0.0
C466 C 0.66194 0.30882 0.86144 0.0
C467 C 0.64603 0.31008 0.82493 0.0
C468 C 0.61566 0.34226 0.84753 0.0
C469 C 0.6668 0.29875 0.84175 0.0
C470 C 0.47183 0.39404 0.78094 0.0
C471 C 0.59706 0.34254 0.80924 0.0
H472 H 0.3186 0.42174 0.6454 0.0
H473 H 0.35766 0.42138 0.70865 0.0
H474 H 0.31476 0.43965 0.68025 0.0
H475 H 0.41226 0.36593 0.6669 0.0
H476 H 0.67853 0.29966 0.87426 0.0
H477 H 0.65004 0.30158 0.80985 0.0
H478 H 0.59572 0.35898 0.84984 0.0
H479 H 0.68662 0.282 0.83952 0.0
Tb480 Tb 0.05275 0.8636 0.7346 0.0
C481 C 0.85785 0.84149 0.75478 0.0
N482 N 0.88115 0.86327 0.75769 0.0
C483 C 0.82153 0.88616 0.74137 0.0
C484 C 0.81646 0.84104 0.74417 0.0
C485 C 0.8619 0.88566 0.75242 0.0
C486 C 0.79914 0.8637 0.73684 0.0
C487 C 0.84903 0.79727 0.76298 0.0
C488 C 0.87379 0.81989 0.76395 0.0
C489 C 0.80897 0.79639 0.75153 0.0
C490 C 0.79279 0.81822 0.74207 0.0
Tb491 Tb 0.94837 0.85939 0.7749 0.0
N492 N 0.91311 0.82133 0.77448 0.0
C493 C 0.86488 0.77644 0.77393 0.0
C494 C 0.9276 0.80155 0.78608 0.0
C495 C 0.90401 0.77871 0.78578 0.0
H496 H 0.87692 0.90332 0.75697 0.0
H497 H 0.91602 0.76289 0.79464 0.0
H498 H 0.13637 0.83924 0.76087 0.0
H499 H 0.03787 0.95318 0.69548 0.0
H500 H 0.9577 0.80339 0.79529 0.0
H501 H 0.84677 0.75871 0.77365 0.0
H502 H 0.02051 0.90854 0.70153 0.0
H503 H 0.80722 0.90393 0.73675 0.0
H504 H 0.78972 0.77909 0.75033 0.0
H505 H 0.76118 0.81746 0.73379 0.0
H506 H 0.20752 0.85389 0.77674 0.0
H507 H 0.76749 0.86418 0.72859 0.0
H508 H 0.101 0.97356 0.71409 0.0
N509 N 0.11896 0.87533 0.74955 0.0
C510 C 0.13222 0.89952 0.74671 0.0
C511 C 0.18645 0.86697 0.76847 0.0
C512 C 0.17239 0.90877 0.75544 0.0
C513 C 0.14607 0.85875 0.75959 0.0
C514 C 0.19944 0.89217 0.76661 0.0
N515 N 0.06845 0.90448 0.7257 0.0
C516 C 0.04601 0.91756 0.71081 0.0
C517 C 0.11822 0.93992 0.73102 0.0
C518 C 0.10544 0.91479 0.73475 0.0
C519 C 0.0924 0.95416 0.71736 0.0
C520 C 0.05667 0.94275 0.70689 0.0
H521 H 0.23064 0.89851 0.77356 0.0
H522 H 0.21479 0.94171 0.75937 0.0
H523 H 0.16734 0.96903 0.73792 0.0
O524 O 0.08386 0.8662 0.70512 0.0
O525 O 0.05957 0.87839 0.76637 0.0
O526 O 0.98967 0.89355 0.77449 0.0
O527 O 0.08282 0.83113 0.72236 0.0
O528 O 0.98719 0.87911 0.72535 0.0
O529 O 0.95398 0.89334 0.75543 0.0
O530 O 0.95872 0.85625 0.80697 0.0
O531 O 0.96233 0.82823 0.75331 0.0
O532 O 0.98757 0.84894 0.72472 0.0
O533 O 0.89712 0.8708 0.79522 0.0
O534 O 0.01212 0.84279 0.78473 0.0
O535 O 0.05219 0.83072 0.75542 0.0
C536 C 0.03374 0.89502 0.77546 0.0
C537 C 0.12016 0.82998 0.68885 0.0
C538 C 0.1423 0.82563 0.65251 0.0
C539 C 0.16584 0.80371 0.65777 0.0
C540 C 0.14376 0.80795 0.69347 0.0
C541 C 0.16664 0.79505 0.67806 0.0
C542 C 0.11998 0.83902 0.6683 0.0
C543 C 0.96141 0.89504 0.73539 0.0
C544 C 0.09502 0.84268 0.70556 0.0
C545 C 0.18432 0.93411 0.75258 0.0
C546 C 0.1572 0.94968 0.74042 0.0
C547 C 0.96736 0.82962 0.7332 0.0
C548 C 0.92165 0.88599 0.82757 0.0
C549 C 0.91266 0.89907 0.86358 0.0
C550 C 0.92684 0.92342 0.85798 0.0
C551 C 0.93523 0.91043 0.82239 0.0
C552 C 0.91005 0.88038 0.84815 0.0
C553 C 0.93791 0.92901 0.83754 0.0
C554 C 0.04146 0.82833 0.77519 0.0
C555 C 0.92038 0.86615 0.81171 0.0
H556 H 0.18394 0.79324 0.64613 0.0
H557 H 0.14462 0.80067 0.70908 0.0
H558 H 0.18489 0.77814 0.68183 0.0
H559 H 0.10142 0.85584 0.6645 0.0
H560 H 0.92877 0.93828 0.86938 0.0
H561 H 0.94364 0.91509 0.80661 0.0
H562 H 0.89976 0.86143 0.85218 0.0
H563 H 0.94853 0.94784 0.83342 0.0
Tb564 Tb 0.44461 0.6391 0.23805 0.0
C565 C 0.64595 0.66028 0.25826 0.0
N566 N 0.62354 0.63818 0.26098 0.0
C567 C 0.68558 0.61566 0.24654 0.0
C568 C 0.68891 0.66095 0.24916 0.0
C569 C 0.64287 0.61595 0.25551 0.0
C570 C 0.70865 0.63826 0.24327 0.0
C571 C 0.64648 0.70574 0.26098 0.0
C572 C 0.62489 0.68239 0.26402 0.0
C573 C 0.68931 0.70653 0.2519 0.0
C574 C 0.71047 0.6842 0.24601 0.0
Tb575 Tb 0.55354 0.64119 0.27506 0.0
N576 N 0.58258 0.68096 0.27196 0.0
C577 C 0.62429 0.72759 0.26711 0.0
C578 C 0.56205 0.7021 0.27909 0.0
C579 C 0.58217 0.72571 0.27646 0.0
H580 H 0.62579 0.59834 0.25838 0.0
H581 H 0.56536 0.74244 0.28186 0.0
H582 H 0.37128 0.68263 0.25197 0.0
H583 H 0.43047 0.53787 0.23194 0.0
H584 H 0.53079 0.70099 0.28725 0.0
H585 H 0.63971 0.74592 0.26504 0.0
H586 H 0.4664 0.57898 0.22674 0.0
H587 H 0.70073 0.598 0.2422 0.0
H588 H 0.70634 0.72432 0.24935 0.0
H589 H 0.74345 0.68512 0.23897 0.0
H590 H 0.29535 0.68396 0.26715 0.0
H591 H 0.74164 0.63797 0.23623 0.0
H592 H 0.35484 0.53518 0.24761 0.0
N593 N 0.37358 0.6428 0.25092 0.0
C594 C 0.35053 0.62093 0.25368 0.0
C595 C 0.31063 0.66608 0.26361 0.0
C596 C 0.30679 0.62075 0.26199 0.0
C597 C 0.35399 0.66527 0.25534 0.0
C598 C 0.28701 0.64371 0.26708 0.0
N599 N 0.41414 0.59961 0.2411 0.0
C600 C 0.43458 0.57822 0.23443 0.0
C601 C 0.34886 0.57546 0.25127 0.0
C602 C 0.37131 0.5986 0.24843 0.0
C603 C 0.37088 0.55336 0.24565 0.0
C604 C 0.4137 0.55479 0.23694 0.0
H605 H 0.25344 0.64439 0.27349 0.0
H606 H 0.2508 0.59718 0.27144 0.0
H607 H 0.28764 0.55753 0.26206 0.0
O608 O 0.44495 0.6284 0.20675 0.0
O609 O 0.43968 0.62183 0.26906 0.0
O610 O 0.51068 0.60775 0.27719 0.0
O611 O 0.39882 0.65611 0.21763 0.0
O612 O 0.50728 0.62088 0.22781 0.0
O613 O 0.54439 0.60674 0.25702 0.0
O614 O 0.55394 0.65053 0.3067 0.0
O615 O 0.55805 0.65716 0.24375 0.0
O616 O 0.48796 0.67253 0.23596 0.0
O617 O 0.60195 0.62476 0.29444 0.0
O618 O 0.49087 0.65908 0.2855 0.0
O619 O 0.45291 0.67334 0.25657 0.0
C620 C 0.46669 0.60633 0.27878 0.0
C621 C 0.42415 0.65986 0.1832 0.0
C622 C 0.42063 0.66629 0.14583 0.0
C623 C 0.44756 0.68793 0.14811 0.0
C624 C 0.45024 0.68177 0.18507 0.0
C625 C 0.46199 0.69566 0.16763 0.0
C626 C 0.40887 0.65231 0.16354 0.0
C627 C 0.53574 0.60566 0.23706 0.0
C628 C 0.41412 0.6444 0.20153 0.0
C629 C 0.28437 0.59772 0.265 0.0
C630 C 0.30535 0.57514 0.25966 0.0
C631 C 0.53188 0.67287 0.23386 0.0
C632 C 0.57815 0.61809 0.32872 0.0
C633 C 0.58336 0.6088 0.36566 0.0
C634 C 0.56034 0.58601 0.36213 0.0
C635 C 0.55595 0.59509 0.32565 0.0
C636 C 0.59222 0.62484 0.34877 0.0
C637 C 0.5469 0.57923 0.34225 0.0
C638 C 0.46184 0.67423 0.27653 0.0
C639 C 0.58623 0.63506 0.31108 0.0
H640 H 0.45694 0.69906 0.13478 0.0
H641 H 0.46148 0.68807 0.20004 0.0
H642 H 0.48237 0.71248 0.16924 0.0
H643 H 0.38868 0.63538 0.16197 0.0
H644 H 0.55349 0.57316 0.37471 0.0
H645 H 0.54595 0.58939 0.31035 0.0
H646 H 0.60952 0.64258 0.35122 0.0
H647 H 0.52965 0.56152 0.33969 0.0
H648 H 0.09804 0.00529 0.38099 0.0
H649 H 0.18172 0.98071 0.33065 0.0
H650 H 0.07045 0.03985 0.35977 0.0
H651 H 0.15556 0.01558 0.30964 0.0
H652 H 0.06115 0.06101 0.26929 0.0
H653 H 0.09191 0.02842 0.29129 0.0
H654 H 0.08624 0.07881 0.34358 0.0
H655 H 0.05394 0.11122 0.3215 0.0
C656 C 0.11105 0.00752 0.36549 0.0
C657 C 0.14172 0.99012 0.35744 0.0
C658 C 0.09536 0.0274 0.3533 0.0
C659 C 0.11034 0.03052 0.33282 0.0
C660 C 0.14224 0.01352 0.3251 0.0
C661 C 0.15747 0.99354 0.33718 0.0
C662 C 0.06687 0.06524 0.28544 0.0
C663 C 0.05533 0.08878 0.29361 0.0
C664 C 0.08472 0.04652 0.29811 0.0
C665 C 0.09193 0.05085 0.31932 0.0
C666 C 0.08068 0.07456 0.32743 0.0
C667 C 0.06243 0.09324 0.31475 0.0
H668 H 0.4077 0.49811 0.88064 0.0
H669 H 0.31968 0.51939 0.83062 0.0
H670 H 0.43808 0.46452 0.85943 0.0
H671 H 0.34772 0.4848 0.81003 0.0
H672 H 0.44276 0.44043 0.7695 0.0
H673 H 0.41176 0.4732 0.79126 0.0
H674 H 0.42355 0.42463 0.84441 0.0
H675 H 0.45622 0.39208 0.82258 0.0
C676 C 0.39463 0.49562 0.86517 0.0
C677 C 0.36129 0.51169 0.85739 0.0
C678 C 0.41165 0.47605 0.85308 0.0
C679 C 0.39557 0.47188 0.83292 0.0
C680 C 0.36157 0.48762 0.82532 0.0
C681 C 0.34489 0.5073 0.83732 0.0
C682 C 0.43855 0.43669 0.78582 0.0
C683 C 0.45183 0.41363 0.79431 0.0
C684 C 0.4205 0.45547 0.79833 0.0
C685 C 0.41478 0.45164 0.81966 0.0
C686 C 0.42796 0.42845 0.82813 0.0
C687 C 0.44645 0.40971 0.81561 0.0
H688 H 0.7174 0.4967 0.66748 0.0
H689 H 0.58179 0.52014 0.65497 0.0
H690 H 0.68901 0.46367 0.69034 0.0
H691 H 0.55293 0.48645 0.67668 0.0
H692 H 0.51159 0.44215 0.73206 0.0
H693 H 0.54417 0.47492 0.71066 0.0
H694 H 0.65217 0.42502 0.69368 0.0
H695 H 0.62036 0.39263 0.71613 0.0
C696 C 0.68145 0.49446 0.6694 0.0
C697 C 0.65175 0.51101 0.65961 0.0
C698 C 0.66506 0.47547 0.68244 0.0
C699 C 0.61851 0.47238 0.68567 0.0
C700 C 0.58897 0.48858 0.6752 0.0
C701 C 0.60541 0.50779 0.66255 0.0
C702 C 0.54237 0.43822 0.72378 0.0
C703 C 0.56321 0.41477 0.72563 0.0
C704 C 0.56098 0.45697 0.71133 0.0
C705 C 0.60052 0.45265 0.69997 0.0
C706 C 0.62193 0.42925 0.70223 0.0
C707 C 0.60363 0.41059 0.71504 0.0
H708 H 0.90718 0.96718 0.17288 0.0
H709 H 0.80146 0.01554 0.15131 0.0
H710 H 0.93589 1.00079 0.19478 0.0
H711 H 0.83129 0.04984 0.17246 0.0
H712 H 0.87298 0.1 0.22645 0.0
H713 H 0.84122 0.06622 0.20565 0.0
H714 H 0.975 0.03848 0.19395 0.0
H715 H 0.00606 0.07095 0.21605 0.0
C716 C 0.89042 0.98518 0.17267 0.0
C717 C 0.85225 0.98879 0.16033 0.0
C718 C 0.907 0.00457 0.18514 0.0
C719 C 0.88636 0.02832 0.18534 0.0
C720 C 0.84786 0.03182 0.17302 0.0
C721 C 0.83082 0.01221 0.16078 0.0
C722 C 0.89547 0.08639 0.21984 0.0
C723 C 0.94194 0.08783 0.22357 0.0
C724 C 0.87732 0.06717 0.20754 0.0
C725 C 0.90534 0.04922 0.1982 0.0
C726 C 0.95202 0.05135 0.20132 0.0
C727 C 0.96998 0.07023 0.21392 0.0
H728 H 0.91869 0.0365 0.67333 0.0
H729 H 0.80506 0.99158 0.65378 0.0
H730 H 0.94443 0.00187 0.6951 0.0
H731 H 0.83085 0.95695 0.67552 0.0
H732 H 0.92874 0.89307 0.69621 0.0
H733 H 0.89868 0.92768 0.67568 0.0
H734 H 0.91721 0.97799 0.72735 0.0
H735 H 0.94694 0.9432 0.74796 0.0
C736 C 0.89934 0.01919 0.67364 0.0
C737 C 0.85993 0.01671 0.66182 0.0
C738 C 0.91383 0.99948 0.68623 0.0
C739 C 0.88957 0.97675 0.68704 0.0
C740 C 0.8503 0.97422 0.67514 0.0
C741 C 0.83544 0.99406 0.66279 0.0
C742 C 0.92598 0.9115 0.7032 0.0
C743 C 0.94016 0.91555 0.72362 0.0
C744 C 0.90867 0.93125 0.6915 0.0
C745 C 0.90578 0.95554 0.69989 0.0
C746 C 0.9194 0.9595 0.72045 0.0
C747 C 0.93603 0.93961 0.73227 0.0
H748 H 0.68883 0.51275 0.15107 0.0
H749 H 0.58661 0.46378 0.17627 0.0
H750 H 0.66155 0.54726 0.17272 0.0
H751 H 0.55982 0.49815 0.19814 0.0
H752 H 0.56285 0.55927 0.24991 0.0
H753 H 0.59302 0.52517 0.22871 0.0
H754 H 0.58607 0.57262 0.17485 0.0
H755 H 0.55515 0.60656 0.19593 0.0
C756 C 0.66067 0.50937 0.1613 0.0
C757 C 0.63974 0.48562 0.16196 0.0
C758 C 0.64499 0.5291 0.17361 0.0
C759 C 0.60867 0.52534 0.18713 0.0
C760 C 0.58807 0.50151 0.18795 0.0
C761 C 0.60317 0.48193 0.17535 0.0
C762 C 0.56814 0.56247 0.23358 0.0
C763 C 0.55671 0.58557 0.22457 0.0
C764 C 0.58509 0.54292 0.22144 0.0
C765 C 0.59182 0.54627 0.20014 0.0
C766 C 0.58144 0.56958 0.19124 0.0
C767 C 0.56361 0.58894 0.20329 0.0
H768 H 0.32389 0.51317 0.36858 0.0
H769 H 0.40391 0.46054 0.33421 0.0
H770 H 0.35145 0.54744 0.34688 0.0
H771 H 0.42943 0.49421 0.31158 0.0
H772 H 0.50603 0.56174 0.28832 0.0
H773 H 0.47663 0.52808 0.30956 0.0
H774 H 0.35065 0.56757 0.31519 0.0
H775 H 0.38224 0.60252 0.29556 0.0
C776 C 0.34702 0.50897 0.35617 0.0
C777 C 0.36216 0.48432 0.35317 0.0
C778 C 0.3626 0.52855 0.34357 0.0
C779 C 0.39303 0.52385 0.32737 0.0
C780 C 0.40709 0.4989 0.32415 0.0
C781 C 0.39227 0.47948 0.33703 0.0
C782 C 0.47237 0.56351 0.29446 0.0
C783 C 0.44695 0.58514 0.29066 0.0
C784 C 0.455 0.54385 0.30634 0.0
C785 C 0.41102 0.54484 0.31429 0.0
C786 C 0.38497 0.5662 0.30984 0.0
C787 C 0.40286 0.58618 0.29832 0.0
H788 H 0.1805 0.98646 0.86551 0.0
H789 H 0.10054 0.03973 0.8318 0.0
H790 H 0.15122 0.95242 0.844 0.0
H791 H 0.07331 0.00625 0.80931 0.0
H792 H 0.99503 0.9394 0.78592 0.0
H793 H 0.02535 0.97264 0.80744 0.0
H794 H 0.1506 0.93229 0.81244 0.0
H795 H 0.11784 0.8977 0.79274 0.0
C796 C 0.15701 0.99085 0.85328 0.0
C797 C 0.14243 0.01561 0.85039 0.0
C798 C 0.14043 0.97138 0.84079 0.0
C799 C 0.10956 0.97633 0.8248 0.0
C800 C 0.09599 0.00138 0.82171 0.0
C801 C 0.1118 0.0207 0.8345 0.0
C802 C 0.02882 0.93744 0.79187 0.0
C803 C 0.05401 0.91584 0.7876 0.0
C804 C 0.04668 0.95682 0.80396 0.0
C805 C 0.09081 0.95552 0.81172 0.0
C806 C 0.11631 0.934 0.80709 0.0
C807 C 0.0979 0.91429 0.79541 0.0
H808 H 0.11688 0.15135 0.01791 0.0
H809 H 0.22145 0.09788 0.03092 0.0
H810 H 0.10052 0.15458 0.05486 0.0
H811 H 0.2049 0.10098 0.06785 0.0
H812 H 0.13555 0.09711 0.13129 0.0
H813 H 0.14088 0.09139 0.09373 0.0
H814 H 0.14517 0.17188 0.08572 0.0
H815 H 0.14053 0.17748 0.12314 0.0
C816 C 0.13604 0.14011 0.02865 0.0
C817 C 0.17057 0.12444 0.02153 0.0
C818 C 0.1268 0.14203 0.04979 0.0
C819 C 0.15134 0.12798 0.06425 0.0
C820 C 0.18513 0.11185 0.05708 0.0
C821 C 0.19488 0.11025 0.03597 0.0
C822 C 0.13671 0.11351 0.12141 0.0
C823 C 0.13752 0.13772 0.13004 0.0
C824 C 0.14016 0.11026 0.09998 0.0
C825 C 0.14362 0.13119 0.0868 0.0
C826 C 0.14224 0.1554 0.09544 0.0
C827 C 0.13964 0.15862 0.11683 0.0
H828 H 0.30102 0.33736 0.5296 0.0
H829 H 0.38576 0.40312 0.52308 0.0
H830 H 0.31421 0.3377 0.56676 0.0
H831 H 0.39939 0.40316 0.56016 0.0
H832 H 0.43689 0.38931 0.62702 0.0
H833 H 0.4334 0.38054 0.5898 0.0
H834 H 0.29113 0.36535 0.59509 0.0
H835 H 0.29492 0.37403 0.63202 0.0
C836 C 0.32251 0.35188 0.53604 0.0
C837 C 0.34193 0.37036 0.52324 0.0
C838 C 0.33024 0.35199 0.55736 0.0
C839 C 0.3578 0.37049 0.56649 0.0
C840 C 0.37852 0.38841 0.55364 0.0
C841 C 0.37062 0.38839 0.53232 0.0
C842 C 0.40527 0.3834 0.62023 0.0
C843 C 0.36621 0.38225 0.63233 0.0
C844 C 0.4031 0.37866 0.59893 0.0
C845 C 0.3619 0.37241 0.58941 0.0
C846 C 0.32347 0.36987 0.60187 0.0
C847 C 0.32557 0.37487 0.62302 0.0
H848 H 0.60232 0.35271 0.99776 0.0
H849 H 0.73038 0.38567 0.98139 0.0
H850 H 0.58535 0.34621 0.9613 0.0
H851 H 0.71386 0.37853 0.9449 0.0
H852 H 0.65889 0.37748 0.87918 0.0
H853 H 0.665 0.39053 0.91548 0.0
H854 H 0.61324 0.31816 0.9345 0.0
H855 H 0.60703 0.30541 0.89847 0.0
C856 C 0.62671 0.35882 0.98639 0.0
C857 C 0.66786 0.3696 0.9926 0.0
C858 C 0.6171 0.3549 0.96546 0.0
C859 C 0.64827 0.36176 0.95011 0.0
C860 C 0.68888 0.37322 0.95626 0.0
C861 C 0.69861 0.37701 0.97722 0.0
C862 C 0.64782 0.36469 0.89117 0.0
C863 C 0.63246 0.34046 0.88604 0.0
C864 C 0.65178 0.37201 0.91194 0.0
C865 C 0.63991 0.35533 0.92796 0.0
C866 C 0.62234 0.33159 0.92265 0.0
C867 C 0.61887 0.32424 0.90199 0.0
H868 H 0.86661 0.10053 0.48794 0.0
H869 H 0.80385 0.17327 0.49177 0.0
H870 H 0.88536 0.10854 0.45165 0.0
H871 H 0.82172 0.18102 0.4557 0.0
H872 H 0.89617 0.20047 0.39843 0.0
H873 H 0.88889 0.18905 0.43469 0.0
H874 H 0.84724 0.11417 0.41706 0.0
H875 H 0.85496 0.12572 0.38051 0.0
C876 C 0.85691 0.11823 0.48106 0.0
C877 C 0.83367 0.13626 0.49277 0.0
C878 C 0.86737 0.12272 0.46025 0.0
C879 C 0.85538 0.1455 0.4508 0.0
C880 C 0.83209 0.16343 0.46255 0.0
C881 C 0.82134 0.15887 0.4832 0.0
C882 C 0.88622 0.18142 0.4023 0.0
C883 C 0.87566 0.16406 0.38665 0.0
C884 C 0.88174 0.17492 0.42307 0.0
C885 C 0.8665 0.15087 0.42878 0.0
C886 C 0.85901 0.13287 0.41317 0.0
C887 C 0.86355 0.13942 0.39225 0.0
H888 H 0.81135 0.84349 0.98325 0.0
H889 H 0.86335 0.91822 0.99417 0.0
H890 H 0.83313 0.84672 0.94692 0.0
H891 H 0.88425 0.92171 0.95806 0.0
H892 H 0.95877 0.91283 0.89828 0.0
H893 H 0.93747 0.90655 0.93416 0.0
H894 H 0.81761 0.86694 0.91453 0.0
H895 H 0.83974 0.87282 0.87848 0.0
C896 C 0.82707 0.86068 0.97787 0.0
C897 C 0.83606 0.88047 0.99171 0.0
C898 C 0.83952 0.86257 0.95701 0.0
C899 C 0.86102 0.88438 0.94947 0.0
C900 C 0.86895 0.90434 0.9633 0.0
C901 C 0.85682 0.90238 0.98408 0.0
C902 C 0.92786 0.90277 0.90162 0.0
C903 C 0.90077 0.89353 0.88549 0.0
C904 C 0.91548 0.89924 0.92223 0.0
C905 C 0.87537 0.88654 0.92738 0.0
C906 C 0.84887 0.87664 0.91124 0.0
C907 C 0.86151 0.88003 0.89054 0.0
H908 H 0.61143 0.64306 0.49739 0.0
H909 H 0.73366 0.60554 0.47971 0.0
H910 H 0.58696 0.64318 0.46143 0.0
H911 H 0.70868 0.60514 0.44378 0.0
H912 H 0.66594 0.62622 0.37822 0.0
H913 H 0.69243 0.63251 0.4137 0.0
H914 H 0.56138 0.61128 0.43662 0.0
H915 H 0.53493 0.60541 0.40131 0.0
C916 C 0.63331 0.63506 0.48581 0.0
C917 C 0.67447 0.62422 0.49149 0.0
C918 C 0.61908 0.63493 0.46521 0.0
C919 C 0.64576 0.62409 0.44971 0.0
C920 C 0.68746 0.61383 0.45529 0.0
C921 C 0.70156 0.61381 0.47593 0.0
C922 C 0.64266 0.62333 0.39085 0.0
C923 C 0.59842 0.61521 0.38697 0.0
C924 C 0.65793 0.62668 0.41117 0.0
C925 C 0.62911 0.62227 0.42802 0.0
C926 C 0.58441 0.61504 0.42404 0.0
C927 C 0.56932 0.61148 0.4038 0.0
H928 H 0.28999 0.66783 0.0266 0.0
H929 H 0.38681 0.60806 0.02059 0.0
H930 H 0.31045 0.67262 0.06289 0.0
H931 H 0.4084 0.61382 0.05656 0.0
H932 H 0.47202 0.65932 0.1116 0.0
H933 H 0.44693 0.64996 0.07645 0.0
H934 H 0.30941 0.64738 0.09744 0.0
H935 H 0.33475 0.65644 0.1328 0.0
C936 C 0.31526 0.65552 0.03295 0.0
C937 C 0.3369 0.63767 0.02039 0.0
C938 C 0.32705 0.65835 0.05378 0.0
C939 C 0.36119 0.64369 0.06253 0.0
C940 C 0.38235 0.62562 0.05017 0.0
C941 C 0.37012 0.62248 0.02946 0.0
C942 C 0.43648 0.65652 0.10872 0.0
C943 C 0.40532 0.6586 0.1249 0.0
C944 C 0.42213 0.65107 0.08864 0.0
C945 C 0.3762 0.648 0.08418 0.0
C946 C 0.345 0.6498 0.10041 0.0
C947 C 0.35948 0.65478 0.12063 0.0
H948 H 0.14129 0.89696 0.52907 0.0
H949 H 0.2053 0.82476 0.52315 0.0
H950 H 0.12843 0.88885 0.56578 0.0
H951 H 0.1925 0.81671 0.55957 0.0
H952 H 0.12453 0.79647 0.61892 0.0
H953 H 0.13172 0.80735 0.58263 0.0
H954 H 0.16553 0.88373 0.59943 0.0
H955 H 0.15763 0.87272 0.63606 0.0
C956 C 0.15292 0.87945 0.53558 0.0
C957 C 0.17394 0.86142 0.52297 0.0
C958 C 0.14552 0.87479 0.55667 0.0
C959 C 0.15887 0.85197 0.56569 0.0
C960 C 0.18064 0.83423 0.55313 0.0
C961 C 0.18803 0.83886 0.53215 0.0
C962 C 0.13329 0.81564 0.6149 0.0
C963 C 0.1411 0.83364 0.63042 0.0
C964 C 0.13766 0.82187 0.59405 0.0
C965 C 0.15017 0.84631 0.58799 0.0
C966 C 0.15582 0.86472 0.60348 0.0
C967 C 0.15125 0.85845 0.62448 0.0
H968 H 0.10136 0.30577 0.35234 0.0
H969 H 0.213 0.25585 0.36296 0.0
H970 H 0.06672 0.27462 0.33008 0.0
H971 H 0.1761 0.22376 0.34249 0.0
H972 H 0.12558 0.1799 0.28762 0.0
H973 H 0.15993 0.21141 0.30951 0.0
H974 H 0.02809 0.23721 0.32744 0.0
H975 H 0.99399 0.20707 0.3039 0.0
C976 C 0.11859 0.28814 0.35007 0.0
C977 C 0.16047 0.28367 0.35947 0.0
C978 C 0.09812 0.26994 0.33752 0.0
C979 C 0.11838 0.24644 0.33427 0.0
C980 C 0.15964 0.24171 0.34414 0.0
C981 C 0.18055 0.2601 0.35633 0.0
C982 C 0.10386 0.19264 0.29579 0.0
C983 C 0.057 0.19134 0.29337 0.0
C984 C 0.12364 0.21053 0.30881 0.0
C985 C 0.09706 0.22718 0.32041 0.0
C986 C 0.04999 0.2253 0.31846 0.0
C987 C 0.03028 0.20778 0.30503 0.0
H988 H 0.29642 0.2441 0.86509 0.0
H989 H 0.40533 0.19397 0.85009 0.0
H990 H 0.33206 0.27703 0.84511 0.0
H991 H 0.43838 0.22599 0.8283 0.0
H992 H 0.51056 0.29357 0.80278 0.0
H993 H 0.47789 0.26288 0.82612 0.0
H994 H 0.34548 0.2916 0.81258 0.0
H995 H 0.37891 0.32374 0.791 0.0
C996 C 0.32799 0.23998 0.8576 0.0
C997 C 0.34768 0.21608 0.85937 0.0
C998 C 0.34813 0.25887 0.84568 0.0
C999 C 0.38817 0.25438 0.83474 0.0
C1000 C 0.40798 0.23054 0.83661 0.0
C1001 C 0.38837 0.21183 0.84889 0.0
C1002 C 0.47445 0.29341 0.80484 0.0
C1003 C 0.44725 0.31081 0.79442 0.0
C1004 C 0.45553 0.27555 0.81815 0.0
C1005 C 0.40869 0.27423 0.8212 0.0
C1006 C 0.38166 0.29194 0.81097 0.0
C1007 C 0.40077 0.31019 0.79809 0.0
H1008 H 0.6948 0.20473 0.6873 0.0
H1009 H 0.63519 0.2374 0.63303 0.0
H1010 H 0.66016 0.23676 0.70872 0.0
H1011 H 0.59796 0.26876 0.65447 0.0
H1012 H 0.56697 0.33533 0.69628 0.0
H1013 H 0.60484 0.30475 0.67438 0.0
H1014 H 0.5937 0.2495 0.72311 0.0
H1015 H 0.5585 0.2806 0.74519 0.0
C1016 C 0.67375 0.21869 0.68002 0.0
C1017 C 0.66755 0.21857 0.65855 0.0
C1018 C 0.65351 0.237 0.6923 0.0
C1019 C 0.62562 0.25543 0.6835 0.0
C1020 C 0.61963 0.25526 0.6619 0.0
C1021 C 0.64072 0.23719 0.64956 0.0
C1022 C 0.57281 0.31662 0.70223 0.0
C1023 C 0.56008 0.31037 0.72245 0.0
C1024 C 0.59428 0.29897 0.68965 0.0
C1025 C 0.60272 0.27445 0.69685 0.0
C1026 C 0.58907 0.26824 0.71706 0.0
C1027 C 0.5685 0.28604 0.72974 0.0
H1028 H 0.87101 0.26665 0.13348 0.0
H1029 H 0.80775 0.29819 0.1873 0.0
H1030 H 0.90737 0.23512 0.15501 0.0
H1031 H 0.84139 0.26591 0.20879 0.0
H1032 H 0.9398 0.22074 0.24628 0.0
H1033 H 0.90568 0.25236 0.22434 0.0
H1034 H 0.90057 0.19885 0.17404 0.0
H1035 H 0.93748 0.16788 0.19582 0.0
C1036 C 0.86449 0.26658 0.14993 0.0
C1037 C 0.83683 0.28494 0.15875 0.0
C1038 C 0.88507 0.24838 0.16233 0.0
C1039 C 0.87771 0.24774 0.18385 0.0
C1040 C 0.84912 0.26596 0.19248 0.0
C1041 C 0.82942 0.28444 0.18014 0.0
C1042 C 0.93135 0.2158 0.23051 0.0
C1043 C 0.94129 0.19184 0.22277 0.0
C1044 C 0.91138 0.2339 0.21789 0.0
C1045 C 0.8998 0.22838 0.19725 0.0
C1046 C 0.90958 0.2042 0.18963 0.0
C1047 C 0.93049 0.18628 0.20216 0.0
H1048 H 0.82313 0.74676 0.63717 0.0
H1049 H 0.87037 0.68906 0.67824 0.0
H1050 H 0.85957 0.7788 0.65848 0.0
H1051 H 0.90963 0.72057 0.69888 0.0
H1052 H 0.9371 0.78293 0.7443 0.0
H1053 H 0.90065 0.75158 0.7228 0.0
H1054 H 0.92501 0.79805 0.66912 0.0
H1055 H 0.95704 0.83049 0.69122 0.0
C1056 C 0.84206 0.74099 0.65062 0.0
C1057 C 0.84387 0.71557 0.65618 0.0
C1058 C 0.86329 0.75929 0.66282 0.0
C1059 C 0.88769 0.75251 0.68062 0.0
C1060 C 0.89034 0.72681 0.68571 0.0
C1061 C 0.86823 0.70863 0.67378 0.0
C1062 C 0.93346 0.78675 0.72803 0.0
C1063 C 0.94851 0.8096 0.7197 0.0
C1064 C 0.91345 0.76844 0.71549 0.0
C1065 C 0.90945 0.77207 0.69402 0.0
C1066 C 0.92622 0.79465 0.68558 0.0
C1067 C 0.94519 0.81322 0.69826 0.0
H1068 H 0.59632 0.79199 0.14537 0.0
H1069 H 0.72392 0.7703 0.17142 0.0
H1070 H 0.55859 0.76012 0.1663 0.0
H1071 H 0.68606 0.73953 0.19308 0.0
H1072 H 0.61197 0.66915 0.21391 0.0
H1073 H 0.64848 0.7001 0.19183 0.0
H1074 H 0.53774 0.75087 0.20141 0.0
H1075 H 0.50102 0.71959 0.22342 0.0
C1076 C 0.61641 0.78041 0.15548 0.0
C1077 C 0.66328 0.78385 0.15666 0.0
C1078 C 0.59464 0.76234 0.16773 0.0
C1079 C 0.61915 0.74723 0.1815 0.0
C1080 C 0.66603 0.75056 0.18253 0.0
C1081 C 0.68775 0.76851 0.17025 0.0
C1082 C 0.59543 0.68694 0.21132 0.0
C1083 C 0.55343 0.69185 0.22028 0.0
C1084 C 0.61646 0.70477 0.1987 0.0
C1085 C 0.59616 0.72808 0.19475 0.0
C1086 C 0.55409 0.733 0.20379 0.0
C1087 C 0.53304 0.7151 0.21644 0.0
H1088 H 0.27144 0.77584 0.33405 0.0
H1089 H 0.3941 0.78783 0.36866 0.0
H1090 H 0.30988 0.74555 0.31225 0.0
H1091 H 0.43149 0.75643 0.34741 0.0
H1092 H 0.45975 0.67689 0.31874 0.0
H1093 H 0.4233 0.70831 0.34036 0.0
H1094 H 0.37662 0.74671 0.2859 0.0
H1095 H 0.41481 0.716 0.26416 0.0
C1096 C 0.3066 0.77225 0.33703 0.0
C1097 C 0.32948 0.78466 0.35321 0.0
C1098 C 0.32853 0.75471 0.32453 0.0
C1099 C 0.3737 0.74865 0.32808 0.0
C1100 C 0.39652 0.76059 0.3444 0.0
C1101 C 0.37486 0.7785 0.35669 0.0
C1102 C 0.44188 0.69205 0.3113 0.0
C1103 C 0.43942 0.69349 0.28962 0.0
C1104 C 0.42107 0.71008 0.32374 0.0
C1105 C 0.39677 0.72984 0.31484 0.0
C1106 C 0.39451 0.73145 0.2932 0.0
C1107 C 0.41611 0.7137 0.28074 0.0
H1108 H 0.16769 0.6922 0.82328 0.0
H1109 H 0.17007 0.7443 0.87435 0.0
H1110 H 0.13121 0.72366 0.80179 0.0
H1111 H 0.1345 0.77599 0.85282 0.0
H1112 H 0.02964 0.81823 0.81625 0.0
H1113 H 0.06557 0.78636 0.83704 0.0
H1114 H 0.14238 0.76246 0.78407 0.0
H1115 H 0.10484 0.79387 0.76289 0.0
C1116 C 0.16077 0.71048 0.82987 0.0
C1117 C 0.17175 0.71571 0.85056 0.0
C1118 C 0.13997 0.72858 0.81751 0.0
C1119 C 0.1298 0.75249 0.82547 0.0
C1120 C 0.14098 0.7577 0.84619 0.0
C1121 C 0.16147 0.73952 0.85858 0.0
C1122 C 0.0541 0.80621 0.80891 0.0
C1123 C 0.06427 0.80879 0.78779 0.0
C1124 C 0.07508 0.78796 0.82097 0.0
C1125 C 0.10724 0.77181 0.81237 0.0
C1126 C 0.11744 0.77433 0.79123 0.0
C1127 C 0.09613 0.79252 0.77908 0.0
loop_
_geom_bond_atom_site_label_1
_geom_bond_atom_site_label_2
_geom_bond_distance
_geom_bond_site_symmetry_2
_ccdc_geom_bond_type
C0 C1 1.386 . S
C0 C2 1.397 . S
C0 H24 0.931 . S
C1 C0 1.386 . S
C1 C5 1.397 . S
C2 C0 1.397 . S
C2 C3 1.384 . S
C2 H25 0.930 . S
C3 C2 1.384 . S
C3 C4 1.377 . S
C3 C6 1.481 . S
C4 C3 1.377 . S
C4 C5 1.389 . S
C4 H26 0.929 . S
C5 C1 1.397 . S
C5 C4 1.389 . S
C5 H27 0.931 . S
C6 C3 1.481 . S
C6 C7 1.387 . S
C6 C11 1.390 . S
C7 C6 1.387 . S
C7 C8 1.401 . S
C7 H28 0.930 . S
C8 C7 1.401 . S
C8 C9 1.376 . S
C8 C17 1.511 . S
C9 C8 1.376 . S
C9 C10 1.392 . S
C9 H30 0.931 . S
C10 C9 1.392 . S
C10 C11 1.361 . S
C10 C12 1.500 . S
C11 C6 1.390 . S
C11 C10 1.361 . S
C11 H29 0.931 . S
C12 C10 1.500 . S
C12 C13 1.371 . S
C12 C14 1.365 . S
C13 C12 1.371 . S
C13 C23 1.386 . S
C13 H31 0.931 . S
C14 C12 1.365 . S
C14 C15 1.409 . S
C14 H32 0.929 . S
C15 C14 1.409 . S
C15 C16 1.380 . S
C15 H33 0.930 . S
C16 C15 1.380 . S
C16 C23 1.357 . S
C17 C8 1.511 . S
C17 C18 1.341 . S
C17 C19 1.371 . S
C18 C17 1.341 . S
C18 C22 1.394 . S
C18 H34 0.930 . S
C19 C17 1.371 . S
C19 C20 1.392 . S
C19 H35 0.931 . S
C20 C19 1.392 . S
C20 C21 1.331 . S
C20 H38 0.932 . S
C21 C20 1.331 . S
C21 C22 1.336 . S
C22 C18 1.394 . S
C22 C21 1.336 . S
C22 H37 0.929 . S
C23 C13 1.386 . S
C23 C16 1.357 . S
C23 H36 0.928 . S
H24 C0 0.931 . S
H25 C2 0.930 . S
H26 C4 0.929 . S
H27 C5 0.931 . S
H28 C7 0.930 . S
H29 C11 0.931 . S
H30 C9 0.931 . S
H31 C13 0.931 . S
H32 C14 0.929 . S
H33 C15 0.930 . S
H34 C18 0.930 . S
H35 C19 0.931 . S
H36 C23 0.928 . S
H37 C22 0.929 . S
H38 C20 0.932 . S
C39 C40 1.386 . S
C39 C41 1.397 . S
C39 H63 0.931 . S
C40 C39 1.386 . S
C40 C44 1.397 . S
C41 C39 1.397 . S
C41 C42 1.384 . S
C41 H64 0.930 . S
C42 C41 1.384 . S
C42 C43 1.377 . S
C42 C45 1.481 . S
C43 C42 1.377 . S
C43 C44 1.389 . S
C43 H65 0.929 . S
C44 C40 1.397 . S
C44 C43 1.389 . S
C44 H66 0.931 . S
C45 C42 1.481 . S
C45 C46 1.387 . S
C45 C50 1.390 . S
C46 C45 1.387 . S
C46 C47 1.401 . S
C46 H67 0.930 . S
C47 C46 1.401 . S
C47 C48 1.376 . S
C47 C56 1.511 . S
C48 C47 1.376 . S
C48 C49 1.392 . S
C48 H69 0.931 . S
C49 C48 1.392 . S
C49 C50 1.361 . S
C49 C51 1.500 . S
C50 C45 1.390 . S
C50 C49 1.361 . S
C50 H68 0.931 . S
C51 C49 1.500 . S
C51 C52 1.371 . S
C51 C53 1.365 . S
C52 C51 1.371 . S
C52 C62 1.386 . S
C52 H70 0.931 . S
C53 C51 1.365 . S
C53 C54 1.409 . S
C53 H71 0.929 . S
C54 C53 1.409 . S
C54 C55 1.380 . S
C54 H72 0.930 . S
C55 C54 1.380 . S
C55 C62 1.357 . S
C56 C47 1.511 . S
C56 C57 1.341 . S
C56 C58 1.371 . S
C57 C56 1.341 . S
C57 C61 1.394 . S
C57 H73 0.930 . S
C58 C56 1.371 . S
C58 C59 1.392 . S
C58 H74 0.931 . S
C59 C58 1.392 . S
C59 C60 1.331 . S
C59 H77 0.932 . S
C60 C59 1.331 . S
C60 C61 1.336 . S
C61 C57 1.394 . S
C61 C60 1.336 . S
C61 H76 0.929 . S
C62 C52 1.386 . S
C62 C55 1.357 . S
C62 H75 0.928 . S
H63 C39 0.931 . S
H64 C41 0.930 . S
H65 C43 0.929 . S
H66 C44 0.931 . S
H67 C46 0.930 . S
H68 C50 0.931 . S
H69 C48 0.931 . S
H70 C52 0.931 . S
H71 C53 0.929 . S
H72 C54 0.930 . S
H73 C57 0.930 . S
H74 C58 0.931 . S
H75 C62 0.928 . S
H76 C61 0.929 . S
H77 C59 0.932 . S
C78 C79 1.386 . S
C78 C80 1.397 . S
C78 H102 0.931 . S
C79 C78 1.386 . S
C79 C83 1.397 . S
C80 C78 1.397 . S
C80 C81 1.384 . S
C80 H103 0.930 . S
C81 C80 1.384 . S
C81 C82 1.377 . S
C81 C84 1.481 . S
C82 C81 1.377 . S
C82 C83 1.389 . S
C82 H104 0.929 . S
C83 C79 1.397 . S
C83 C82 1.389 . S
C83 H105 0.931 . S
C84 C81 1.481 . S
C84 C85 1.387 . S
C84 C89 1.390 . S
C85 C84 1.387 . S
C85 C86 1.401 . S
C85 H106 0.930 . S
C86 C85 1.401 . S
C86 C87 1.376 . S
C86 C95 1.511 . S
C87 C86 1.376 . S
C87 C88 1.392 . S
C87 H108 0.931 . S
C88 C87 1.392 . S
C88 C89 1.361 . S
C88 C90 1.500 . S
C89 C84 1.390 . S
C89 C88 1.361 . S
C89 H107 0.931 . S
C90 C88 1.500 . S
C90 C91 1.371 . S
C90 C92 1.365 . S
C91 C90 1.371 . S
C91 C101 1.386 . S
C91 H109 0.931 . S
C92 C90 1.365 . S
C92 C93 1.409 . S
C92 H110 0.929 . S
C93 C92 1.409 . S
C93 C94 1.380 . S
C93 H111 0.930 . S
C94 C93 1.380 . S
C94 C101 1.357 . S
C95 C86 1.511 . S
C95 C96 1.341 . S
C95 C97 1.371 . S
C96 C95 1.341 . S
C96 C100 1.394 . S
C96 H112 0.930 . S
C97 C95 1.371 . S
C97 C98 1.392 . S
C97 H113 0.931 . S
C98 C97 1.392 . S
C98 C99 1.331 . S
C98 H116 0.932 . S
C99 C98 1.331 . S
C99 C100 1.336 . S
C100 C96 1.394 . S
C100 C99 1.336 . S
C100 H115 0.929 . S
C101 C91 1.386 . S
C101 C94 1.357 . S
C101 H114 0.928 . S
H102 C78 0.931 . S
H103 C80 0.930 . S
H104 C82 0.929 . S
H105 C83 0.931 . S
H106 C85 0.930 . S
H107 C89 0.931 . S
H108 C87 0.931 . S
H109 C91 0.931 . S
H110 C92 0.929 . S
H111 C93 0.930 . S
H112 C96 0.930 . S
H113 C97 0.931 . S
H114 C101 0.928 . S
H115 C100 0.929 . S
H116 C98 0.932 . S
C117 C118 1.386 . S
C117 C119 1.397 . S
C117 H141 0.931 . S
C118 C117 1.386 . S
C118 C122 1.397 . S
C119 C117 1.397 . S
C119 C120 1.384 . S
C119 H142 0.930 . S
C120 C119 1.384 . S
C120 C121 1.377 . S
C120 C123 1.481 . S
C121 C120 1.377 . S
C121 C122 1.389 . S
C121 H143 0.929 . S
C122 C118 1.397 . S
C122 C121 1.389 . S
C122 H144 0.931 . S
C123 C120 1.481 . S
C123 C124 1.387 . S
C123 C128 1.390 . S
C124 C123 1.387 . S
C124 C125 1.401 . S
C124 H145 0.930 . S
C125 C124 1.401 . S
C125 C126 1.376 . S
C125 C134 1.511 . S
C126 C125 1.376 . S
C126 C127 1.392 . S
C126 H147 0.931 . S
C127 C126 1.392 . S
C127 C128 1.361 . S
C127 C129 1.500 . S
C128 C123 1.390 . S
C128 C127 1.361 . S
C128 H146 0.931 . S
C129 C127 1.500 . S
C129 C130 1.371 . S
C129 C131 1.365 . S
C130 C129 1.371 . S
C130 C140 1.386 . S
C130 H148 0.931 . S
C131 C129 1.365 . S
C131 C132 1.409 . S
C131 H149 0.929 . S
C132 C131 1.409 . S
C132 C133 1.380 . S
C132 H150 0.930 . S
C133 C132 1.380 . S
C133 C140 1.357 . S
C134 C125 1.511 . S
C134 C135 1.341 . S
C134 C136 1.371 . S
C135 C134 1.341 . S
C135 C139 1.394 . S
C135 H151 0.930 . S
C136 C134 1.371 . S
C136 C137 1.392 . S
C136 H152 0.931 . S
C137 C136 1.392 . S
C137 C138 1.331 . S
C137 H155 0.932 . S
C138 C137 1.331 . S
C138 C139 1.336 . S
C139 C135 1.394 . S
C139 C138 1.336 . S
C139 H154 0.929 . S
C140 C130 1.386 . S
C140 C133 1.357 . S
C140 H153 0.928 . S
H141 C117 0.931 . S
H142 C119 0.930 . S
H143 C121 0.929 . S
H144 C122 0.931 . S
H145 C124 0.930 . S
H146 C128 0.931 . S
H147 C126 0.931 . S
H148 C130 0.931 . S
H149 C131 0.929 . S
H150 C132 0.930 . S
H151 C135 0.930 . S
H152 C136 0.931 . S
H153 C140 0.928 . S
H154 C139 0.929 . S
H155 C137 0.932 . S
C156 C157 1.386 . S
C156 C158 1.397 . S
C156 H180 0.931 . S
C157 C156 1.386 . S
C157 C161 1.397 . S
C158 C156 1.397 . S
C158 C159 1.384 . S
C158 H181 0.930 . S
C159 C158 1.384 . S
C159 C160 1.377 . S
C159 C162 1.481 . S
C160 C159 1.377 . S
C160 C161 1.389 . S
C160 H182 0.929 . S
C161 C157 1.397 . S
C161 C160 1.389 . S
C161 H183 0.931 . S
C162 C159 1.481 . S
C162 C163 1.387 . S
C162 C167 1.390 . S
C163 C162 1.387 . S
C163 C164 1.401 . S
C163 H184 0.930 . S
C164 C163 1.401 . S
C164 C165 1.376 . S
C164 C173 1.511 . S
C165 C164 1.376 . S
C165 C166 1.392 . S
C165 H186 0.931 . S
C166 C165 1.392 . S
C166 C167 1.361 . S
C166 C168 1.500 . S
C167 C162 1.390 . S
C167 C166 1.361 . S
C167 H185 0.931 . S
C168 C166 1.500 . S
C168 C169 1.371 . S
C168 C170 1.365 . S
C169 C168 1.371 . S
C169 C179 1.386 . S
C169 H187 0.931 . S
C170 C168 1.365 . S
C170 C171 1.409 . S
C170 H188 0.929 . S
C171 C170 1.409 . S
C171 C172 1.380 . S
C171 H189 0.930 . S
C172 C171 1.380 . S
C172 C179 1.357 . S
C173 C164 1.511 . S
C173 C174 1.341 . S
C173 C175 1.371 . S
C174 C173 1.341 . S
C174 C178 1.394 . S
C174 H190 0.930 . S
C175 C173 1.371 . S
C175 C176 1.392 . S
C175 H191 0.931 . S
C176 C175 1.392 . S
C176 C177 1.331 . S
C176 H194 0.932 . S
C177 C176 1.331 . S
C177 C178 1.336 . S
C178 C174 1.394 . S
C178 C177 1.336 . S
C178 H193 0.929 . S
C179 C169 1.386 . S
C179 C172 1.357 . S
C179 H192 0.928 . S
H180 C156 0.931 . S
H181 C158 0.930 . S
H182 C160 0.929 . S
H183 C161 0.931 . S
H184 C163 0.930 . S
H185 C167 0.931 . S
H186 C165 0.931 . S
H187 C169 0.931 . S
H188 C170 0.929 . S
H189 C171 0.930 . S
H190 C174 0.930 . S
H191 C175 0.931 . S
H192 C179 0.928 . S
H193 C178 0.929 . S
H194 C176 0.932 . S
C195 C196 1.386 . S
C195 C197 1.397 . S
C195 H219 0.931 . S
C196 C195 1.386 . S
C196 C200 1.397 . S
C197 C195 1.397 . S
C197 C198 1.384 . S
C197 H220 0.930 . S
C198 C197 1.384 . S
C198 C199 1.377 . S
C198 C201 1.481 . S
C199 C198 1.377 . S
C199 C200 1.389 . S
C199 H221 0.929 . S
C200 C196 1.397 . S
C200 C199 1.389 . S
C200 H222 0.931 . S
C201 C198 1.481 . S
C201 C202 1.387 . S
C201 C206 1.390 . S
C202 C201 1.387 . S
C202 C203 1.401 . S
C202 H223 0.930 . S
C203 C202 1.401 . S
C203 C204 1.376 . S
C203 C212 1.511 . S
C204 C203 1.376 . S
C204 C205 1.392 . S
C204 H225 0.931 . S
C205 C204 1.392 . S
C205 C206 1.361 . S
C205 C207 1.500 . S
C206 C201 1.390 . S
C206 C205 1.361 . S
C206 H224 0.931 . S
C207 C205 1.500 . S
C207 C208 1.371 . S
C207 C209 1.365 . S
C208 C207 1.371 . S
C208 C218 1.386 . S
C208 H226 0.931 . S
C209 C207 1.365 . S
C209 C210 1.409 . S
C209 H227 0.929 . S
C210 C209 1.409 . S
C210 C211 1.380 . S
C210 H228 0.930 . S
C211 C210 1.380 . S
C211 C218 1.357 . S
C212 C203 1.511 . S
C212 C213 1.341 . S
C212 C214 1.371 . S
C213 C212 1.341 . S
C213 C217 1.394 . S
C213 H229 0.930 . S
C214 C212 1.371 . S
C214 C215 1.392 . S
C214 H230 0.931 . S
C215 C214 1.392 . S
C215 C216 1.331 . S
C215 H233 0.932 . S
C216 C215 1.331 . S
C216 C217 1.336 . S
C217 C213 1.394 . S
C217 C216 1.336 . S
C217 H232 0.929 . S
C218 C208 1.386 . S
C218 C211 1.357 . S
C218 H231 0.928 . S
H219 C195 0.931 . S
H220 C197 0.930 . S
H221 C199 0.929 . S
H222 C200 0.931 . S
H223 C202 0.930 . S
H224 C206 0.931 . S
H225 C204 0.931 . S
H226 C208 0.931 . S
H227 C209 0.929 . S
H228 C210 0.930 . S
H229 C213 0.930 . S
H230 C214 0.931 . S
H231 C218 0.928 . S
H232 C217 0.929 . S
H233 C215 0.932 . S
C234 C235 1.386 . S
C234 C236 1.397 . S
C234 H258 0.931 . S
C235 C234 1.386 . S
C235 C239 1.397 . S
C236 C234 1.397 . S
C236 C237 1.384 . S
C236 H259 0.930 . S
C237 C236 1.384 . S
C237 C238 1.377 . S
C237 C240 1.481 . S
C238 C237 1.377 . S
C238 C239 1.389 . S
C238 H260 0.929 . S
C239 C235 1.397 . S
C239 C238 1.389 . S
C239 H261 0.931 . S
C240 C237 1.481 . S
C240 C241 1.387 . S
C240 C245 1.390 . S
C241 C240 1.387 . S
C241 C242 1.401 . S
C241 H262 0.930 . S
C242 C241 1.401 . S
C242 C243 1.376 . S
C242 C251 1.511 . S
C243 C242 1.376 . S
C243 C244 1.392 . S
C243 H264 0.931 . S
C244 C243 1.392 . S
C244 C245 1.361 . S
C244 C246 1.500 . S
C245 C240 1.390 . S
C245 C244 1.361 . S
C245 H263 0.931 . S
C246 C244 1.500 . S
C246 C247 1.371 . S
C246 C248 1.365 . S
C247 C246 1.371 . S
C247 C257 1.386 . S
C247 H265 0.931 . S
C248 C246 1.365 . S
C248 C249 1.409 . S
C248 H266 0.929 . S
C249 C248 1.409 . S
C249 C250 1.380 . S
C249 H267 0.930 . S
C250 C249 1.380 . S
C250 C257 1.357 . S
C251 C242 1.511 . S
C251 C252 1.341 . S
C251 C253 1.371 . S
C252 C251 1.341 . S
C252 C256 1.394 . S
C252 H268 0.930 . S
C253 C251 1.371 . S
C253 C254 1.392 . S
C253 H269 0.931 . S
C254 C253 1.392 . S
C254 C255 1.331 . S
C254 H272 0.932 . S
C255 C254 1.331 . S
C255 C256 1.336 . S
C256 C252 1.394 . S
C256 C255 1.336 . S
C256 H271 0.929 . S
C257 C247 1.386 . S
C257 C250 1.357 . S
C257 H270 0.928 . S
H258 C234 0.931 . S
H259 C236 0.930 . S
H260 C238 0.929 . S
H261 C239 0.931 . S
H262 C241 0.930 . S
H263 C245 0.931 . S
H264 C243 0.931 . S
H265 C247 0.931 . S
H266 C248 0.929 . S
H267 C249 0.930 . S
H268 C252 0.930 . S
H269 C253 0.931 . S
H270 C257 0.928 . S
H271 C256 0.929 . S
H272 C254 0.932 . S
C273 C274 1.386 . S
C273 C275 1.397 . S
C273 H297 0.931 . S
C274 C273 1.386 . S
C274 C278 1.397 . S
C275 C273 1.397 . S
C275 C276 1.384 . S
C275 H298 0.930 . S
C276 C275 1.384 . S
C276 C277 1.377 . S
C276 C279 1.481 . S
C277 C276 1.377 . S
C277 C278 1.389 . S
C277 H299 0.929 . S
C278 C274 1.397 . S
C278 C277 1.389 . S
C278 H300 0.931 . S
C279 C276 1.481 . S
C279 C280 1.387 . S
C279 C284 1.390 . S
C280 C279 1.387 . S
C280 C281 1.401 . S
C280 H301 0.930 . S
C281 C280 1.401 . S
C281 C282 1.376 . S
C281 C290 1.511 . S
C282 C281 1.376 . S
C282 C283 1.392 . S
C282 H303 0.931 . S
C283 C282 1.392 . S
C283 C284 1.361 . S
C283 C285 1.500 . S
C284 C279 1.390 . S
C284 C283 1.361 . S
C284 H302 0.931 . S
C285 C283 1.500 . S
C285 C286 1.371 . S
C285 C287 1.365 . S
C286 C285 1.371 . S
C286 C296 1.386 . S
C286 H304 0.931 . S
C287 C285 1.365 . S
C287 C288 1.409 . S
C287 H305 0.929 . S
C288 C287 1.409 . S
C288 C289 1.380 . S
C288 H306 0.930 . S
C289 C288 1.380 . S
C289 C296 1.357 . S
C290 C281 1.511 . S
C290 C291 1.341 . S
C290 C292 1.371 . S
C291 C290 1.341 . S
C291 C295 1.394 . S
C291 H307 0.930 . S
C292 C290 1.371 . S
C292 C293 1.392 . S
C292 H308 0.931 . S
C293 C292 1.392 . S
C293 C294 1.331 . S
C293 H311 0.932 . S
C294 C293 1.331 . S
C294 C295 1.336 . S
C295 C291 1.394 . S
C295 C294 1.336 . S
C295 H310 0.929 . S
C296 C286 1.386 . S
C296 C289 1.357 . S
C296 H309 0.928 . S
H297 C273 0.931 . S
H298 C275 0.930 . S
H299 C277 0.929 . S
H300 C278 0.931 . S
H301 C280 0.930 . S
H302 C284 0.931 . S
H303 C282 0.931 . S
H304 C286 0.931 . S
H305 C287 0.929 . S
H306 C288 0.930 . S
H307 C291 0.930 . S
H308 C292 0.931 . S
H309 C296 0.928 . S
H310 C295 0.929 . S
H311 C293 0.932 . S
Tb312 N341 2.617 . S
Tb312 N347 2.572 . S
Tb312 O356 2.465 . S
Tb312 O357 2.387 . S
Tb312 O359 2.428 . S
Tb312 O360 2.314 . S
Tb312 O364 2.349 . S
Tb312 O367 2.393 . S
Tb312 C376 2.802 . S
C313 N314 1.379 . S
C313 C316 1.416 . S
C313 C320 1.424 . S
N314 C313 1.379 . S
N314 C317 1.334 . S
N314 Tb323 2.617 . S
C315 C317 1.390 . S
C315 C318 1.339 . S
C315 H335 0.930 . S
C316 C313 1.416 . S
C316 C318 1.416 . S
C316 C322 1.448 . S
C317 N314 1.334 . S
C317 C315 1.390 . S
C317 H328 0.930 . S
C318 C315 1.339 . S
C318 C316 1.416 . S
C318 H339 0.930 . S
C319 C320 1.413 . S
C319 C321 1.427 . S
C319 C325 1.416 . S
C320 C313 1.424 . S
C320 C319 1.413 . S
C320 N324 1.361 . S
C321 C319 1.427 . S
C321 C322 1.328 . S
C321 H336 0.929 . S
C322 C316 1.448 . S
C322 C321 1.328 . S
C322 H337 0.930 . S
Tb323 N314 2.617 . S
Tb323 N324 2.572 . S
Tb323 O358 2.347 1_655 S
Tb323 O361 2.393 . S
Tb323 O362 2.465 . S
Tb323 O363 2.387 . S
Tb323 O365 2.428 . S
Tb323 O366 2.308 1_655 S
Tb323 C387 2.802 . S
N324 C320 1.361 . S
N324 Tb323 2.572 . S
N324 C326 1.340 . S
C325 C319 1.416 . S
C325 C327 1.332 . S
C325 H333 0.931 . S
C326 N324 1.340 . S
C326 C327 1.407 . S
C326 H332 0.930 . S
C327 C325 1.332 . S
C327 C326 1.407 . S
C327 H329 0.929 . S
H328 C317 0.930 . S
H329 C327 0.929 . S
H330 C345 0.930 . S
H331 C352 0.929 . S
H332 C326 0.930 . S
H333 C325 0.931 . S
H334 C348 0.930 . S
H335 C315 0.930 . S
H336 C321 0.929 . S
H337 C322 0.930 . S
H338 C343 0.930 . S
H339 C318 0.930 . S
H340 C351 0.931 . S
N341 Tb312 2.617 . S
N341 C342 1.379 . S
N341 C345 1.334 . S
C342 N341 1.379 . S
C342 C344 1.416 . S
C342 C350 1.424 . S
C343 H338 0.930 . S
C343 C345 1.390 . S
C343 C346 1.339 . S
C344 C342 1.416 . S
C344 C346 1.416 . S
C344 C377 1.448 . S
C345 H330 0.930 . S
C345 N341 1.334 . S
C345 C343 1.390 . S
C346 C343 1.339 . S
C346 C344 1.416 . S
C346 H353 0.930 . S
N347 Tb312 2.572 . S
N347 C348 1.340 . S
N347 C350 1.361 . S
C348 H334 0.930 . S
C348 N347 1.340 . S
C348 C352 1.407 . S
C349 C350 1.413 . S
C349 C351 1.416 . S
C349 C378 1.427 . S
C350 C342 1.424 . S
C350 N347 1.361 . S
C350 C349 1.413 . S
C351 H340 0.931 . S
C351 C349 1.416 . S
C351 C352 1.332 . S
C352 H331 0.929 . S
C352 C348 1.407 . S
C352 C351 1.332 . S
H353 C346 0.930 . S
H354 C377 0.930 . S
H355 C378 0.929 . S
O356 Tb312 2.465 . S
O356 C376 1.264 . S
O357 Tb312 2.387 . S
O357 C368 1.264 . S
O358 Tb323 2.347 1_455 S
O358 C368 1.246 . S
O359 Tb312 2.428 . S
O359 C376 1.256 . S
O360 Tb312 2.314 . S
O360 C375 1.259 1_455 S
O361 Tb323 2.393 . S
O361 C375 1.248 . S
O362 Tb323 2.465 . S
O362 C387 1.264 . S
O363 Tb323 2.387 . S
O363 C379 1.264 . S
O364 Tb312 2.349 . S
O364 C379 1.243 1_455 S
O365 Tb323 2.428 . S
O365 C387 1.256 . S
O366 Tb323 2.308 1_455 S
O366 C386 1.266 . S
O367 Tb312 2.393 . S
O367 C386 1.248 . S
C368 O357 1.264 . S
C368 O358 1.246 . S
C369 C372 1.399 . S
C369 C374 1.383 . S
C369 C376 1.496 . S
C370 C371 1.399 . S
C370 C374 1.389 . S
C371 C370 1.399 . S
C371 C373 1.380 . S
C371 H388 0.929 . S
C372 C369 1.399 . S
C372 C373 1.392 . S
C372 H389 0.929 . S
C373 C371 1.380 . S
C373 C372 1.392 . S
C373 H390 0.929 . S
C374 C369 1.383 . S
C374 C370 1.389 . S
C374 H391 0.931 . S
C375 O360 1.259 1_655 S
C375 O361 1.248 . S
C376 Tb312 2.802 . S
C376 O356 1.264 . S
C376 O359 1.256 . S
C376 C369 1.496 . S
C377 C344 1.448 . S
C377 H354 0.930 . S
C377 C378 1.328 . S
C378 C349 1.427 . S
C378 H355 0.929 . S
C378 C377 1.328 . S
C379 O363 1.264 . S
C379 O364 1.243 1_655 S
C380 C383 1.399 . S
C380 C384 1.383 . S
C380 C387 1.496 . S
C381 C382 1.399 . S
C381 C384 1.389 . S
C382 C381 1.399 . S
C382 C385 1.380 . S
C382 H392 0.929 . S
C383 C380 1.399 . S
C383 C385 1.392 . S
C383 H393 0.929 . S
C384 C380 1.383 . S
C384 C381 1.389 . S
C384 H394 0.931 . S
C385 C382 1.380 . S
C385 C383 1.392 . S
C385 H395 0.929 . S
C386 O366 1.266 . S
C386 O367 1.248 . S
C387 Tb323 2.802 . S
C387 O362 1.264 . S
C387 O365 1.256 . S
C387 C380 1.496 . S
H388 C371 0.929 . S
H389 C372 0.929 . S
H390 C373 0.929 . S
H391 C374 0.931 . S
H392 C382 0.929 . S
H393 C383 0.929 . S
H394 C384 0.931 . S
H395 C385 0.929 . S
Tb396 N425 2.617 . S
Tb396 N431 2.572 . S
Tb396 O440 2.465 . S
Tb396 O441 2.387 . S
Tb396 O443 2.428 . S
Tb396 O444 2.308 . S
Tb396 O448 2.349 . S
Tb396 O451 2.393 . S
Tb396 C460 2.802 . S
C397 N398 1.379 . S
C397 C400 1.416 . S
C397 C404 1.424 . S
N398 C397 1.379 . S
N398 C401 1.334 . S
N398 Tb407 2.617 . S
C399 C401 1.390 . S
C399 C402 1.339 . S
C399 H419 0.930 . S
C400 C397 1.416 . S
C400 C402 1.416 . S
C400 C406 1.448 . S
C401 N398 1.334 . S
C401 C399 1.390 . S
C401 H412 0.930 . S
C402 C399 1.339 . S
C402 C400 1.416 . S
C402 H423 0.930 . S
C403 C404 1.413 . S
C403 C405 1.427 . S
C403 C409 1.416 . S
C404 C397 1.424 . S
C404 C403 1.413 . S
C404 N408 1.361 . S
C405 C403 1.427 . S
C405 C406 1.328 . S
C405 H420 0.929 . S
C406 C400 1.448 . S
C406 C405 1.328 . S
C406 H421 0.930 . S
Tb407 N398 2.617 . S
Tb407 N408 2.572 . S
Tb407 O442 2.349 . S
Tb407 O445 2.393 . S
Tb407 O446 2.465 . S
Tb407 O447 2.387 . S
Tb407 O449 2.428 . S
Tb407 O450 2.308 . S
Tb407 C471 2.802 . S
N408 C404 1.361 . S
N408 Tb407 2.572 . S
N408 C410 1.340 . S
C409 C403 1.416 . S
C409 C411 1.332 . S
C409 H417 0.931 . S
C410 N408 1.340 . S
C410 C411 1.407 . S
C410 H416 0.930 . S
C411 C409 1.332 . S
C411 C410 1.407 . S
C411 H413 0.929 . S
H412 C401 0.930 . S
H413 C411 0.929 . S
H414 C429 0.930 . S
H415 C436 0.929 . S
H416 C410 0.930 . S
H417 C409 0.931 . S
H418 C432 0.930 . S
H419 C399 0.930 . S
H420 C405 0.929 . S
H421 C406 0.930 . S
H422 C427 0.930 . S
H423 C402 0.930 . S
H424 C435 0.931 . S
N425 Tb396 2.617 . S
N425 C426 1.379 . S
N425 C429 1.334 . S
C426 N425 1.379 . S
C426 C428 1.416 . S
C426 C434 1.424 . S
C427 H422 0.930 . S
C427 C429 1.390 . S
C427 C430 1.339 . S
C428 C426 1.416 . S
C428 C430 1.416 . S
C428 C461 1.448 . S
C429 H414 0.930 . S
C429 N425 1.334 . S
C429 C427 1.390 . S
C430 C427 1.339 . S
C430 C428 1.416 . S
C430 H437 0.930 . S
N431 Tb396 2.572 . S
N431 C432 1.340 . S
N431 C434 1.361 . S
C432 H418 0.930 . S
C432 N431 1.340 . S
C432 C436 1.407 . S
C433 C434 1.413 . S
C433 C435 1.416 . S
C433 C462 1.427 . S
C434 C426 1.424 . S
C434 N431 1.361 . S
C434 C433 1.413 . S
C435 H424 0.931 . S
C435 C433 1.416 . S
C435 C436 1.332 . S
C436 H415 0.929 . S
C436 C432 1.407 . S
C436 C435 1.332 . S
H437 C430 0.930 . S
H438 C461 0.930 . S
H439 C462 0.929 . S
O440 Tb396 2.465 . S
O440 C460 1.264 . S
O441 Tb396 2.387 . S
O441 C452 1.264 . S
O442 Tb407 2.349 . S
O442 C452 1.243 . S
O443 Tb396 2.428 . S
O443 C460 1.256 . S
O444 Tb396 2.308 . S
O444 C459 1.266 . S
O445 Tb407 2.393 . S
O445 C459 1.248 . S
O446 Tb407 2.465 . S
O446 C471 1.264 . S
O447 Tb407 2.387 . S
O447 C463 1.264 . S
O448 Tb396 2.349 . S
O448 C463 1.243 . S
O449 Tb407 2.428 . S
O449 C471 1.256 . S
O450 Tb407 2.308 . S
O450 C470 1.266 . S
O451 Tb396 2.393 . S
O451 C470 1.248 . S
C452 O441 1.264 . S
C452 O442 1.243 . S
C453 C456 1.399 . S
C453 C458 1.383 . S
C453 C460 1.496 . S
C454 C455 1.399 . S
C454 C458 1.389 . S
C455 C454 1.399 . S
C455 C457 1.380 . S
C455 H472 0.929 . S
C456 C453 1.399 . S
C456 C457 1.392 . S
C456 H473 0.929 . S
C457 C455 1.380 . S
C457 C456 1.392 . S
C457 H474 0.929 . S
C458 C453 1.383 . S
C458 C454 1.389 . S
C458 H475 0.931 . S
C459 O444 1.266 . S
C459 O445 1.248 . S
C460 Tb396 2.802 . S
C460 O440 1.264 . S
C460 O443 1.256 . S
C460 C453 1.496 . S
C461 C428 1.448 . S
C461 H438 0.930 . S
C461 C462 1.328 . S
C462 C433 1.427 . S
C462 H439 0.929 . S
C462 C461 1.328 . S
C463 O447 1.264 . S
C463 O448 1.243 . S
C464 C467 1.399 . S
C464 C468 1.383 . S
C464 C471 1.496 . S
C465 C466 1.399 . S
C465 C468 1.389 . S
C466 C465 1.399 . S
C466 C469 1.380 . S
C466 H476 0.929 . S
C467 C464 1.399 . S
C467 C469 1.392 . S
C467 H477 0.929 . S
C468 C464 1.383 . S
C468 C465 1.389 . S
C468 H478 0.931 . S
C469 C466 1.380 . S
C469 C467 1.392 . S
C469 H479 0.929 . S
C470 O450 1.266 . S
C470 O451 1.248 . S
C471 Tb407 2.802 . S
C471 O446 1.264 . S
C471 O449 1.256 . S
C471 C464 1.496 . S
H472 C455 0.929 . S
H473 C456 0.929 . S
H474 C457 0.929 . S
H475 C458 0.931 . S
H476 C466 0.929 . S
H477 C467 0.929 . S
H478 C468 0.931 . S
H479 C469 0.929 . S
Tb480 N509 2.617 . S
Tb480 N515 2.572 . S
Tb480 O524 2.465 . S
Tb480 O525 2.387 . S
Tb480 O527 2.428 . S
Tb480 O528 2.308 . S
Tb480 O532 2.349 . S
Tb480 O535 2.393 . S
Tb480 C544 2.802 . S
C481 N482 1.379 . S
C481 C484 1.416 . S
C481 C488 1.424 . S
N482 C481 1.379 . S
N482 C485 1.334 . S
N482 Tb491 2.617 . S
C483 C485 1.390 . S
C483 C486 1.339 . S
C483 H503 0.930 . S
C484 C481 1.416 . S
C484 C486 1.416 . S
C484 C490 1.448 . S
C485 N482 1.334 . S
C485 C483 1.390 . S
C485 H496 0.930 . S
C486 C483 1.339 . S
C486 C484 1.416 . S
C486 H507 0.930 . S
C487 C488 1.413 . S
C487 C489 1.427 . S
C487 C493 1.416 . S
C488 C481 1.424 . S
C488 C487 1.413 . S
C488 N492 1.361 . S
C489 C487 1.427 . S
C489 C490 1.328 . S
C489 H504 0.929 . S
C490 C484 1.448 . S
C490 C489 1.328 . S
C490 H505 0.930 . S
Tb491 N482 2.617 . S
Tb491 N492 2.572 . S
Tb491 O526 2.349 1_655 S
Tb491 O529 2.393 . S
Tb491 O530 2.465 . S
Tb491 O531 2.387 . S
Tb491 O533 2.428 . S
Tb491 O534 2.308 1_655 S
Tb491 C555 2.802 . S
N492 C488 1.361 . S
N492 Tb491 2.572 . S
N492 C494 1.340 . S
C493 C487 1.416 . S
C493 C495 1.332 . S
C493 H501 0.931 . S
C494 N492 1.340 . S
C494 C495 1.407 . S
C494 H500 0.930 . S
C495 C493 1.332 . S
C495 C494 1.407 . S
C495 H497 0.929 . S
H496 C485 0.930 . S
H497 C495 0.929 . S
H498 C513 0.930 . S
H499 C520 0.929 . S
H500 C494 0.930 . S
H501 C493 0.931 . S
H502 C516 0.930 . S
H503 C483 0.930 . S
H504 C489 0.929 . S
H505 C490 0.930 . S
H506 C511 0.930 . S
H507 C486 0.930 . S
H508 C519 0.931 . S
N509 Tb480 2.617 . S
N509 C510 1.379 . S
N509 C513 1.334 . S
C510 N509 1.379 . S
C510 C512 1.416 . S
C510 C518 1.424 . S
C511 H506 0.930 . S
C511 C513 1.390 . S
C511 C514 1.339 . S
C512 C510 1.416 . S
C512 C514 1.416 . S
C512 C545 1.448 . S
C513 H498 0.930 . S
C513 N509 1.334 . S
C513 C511 1.390 . S
C514 C511 1.339 . S
C514 C512 1.416 . S
C514 H521 0.930 . S
N515 Tb480 2.572 . S
N515 C516 1.340 . S
N515 C518 1.361 . S
C516 H502 0.930 . S
C516 N515 1.340 . S
C516 C520 1.407 . S
C517 C518 1.413 . S
C517 C519 1.416 . S
C517 C546 1.427 . S
C518 C510 1.424 . S
C518 N515 1.361 . S
C518 C517 1.413 . S
C519 H508 0.931 . S
C519 C517 1.416 . S
C519 C520 1.332 . S
C520 H499 0.929 . S
C520 C516 1.407 . S
C520 C519 1.332 . S
H521 C514 0.930 . S
H522 C545 0.930 . S
H523 C546 0.929 . S
O524 Tb480 2.465 . S
O524 C544 1.264 . S
O525 Tb480 2.387 . S
O525 C536 1.264 . S
O526 Tb491 2.349 1_455 S
O526 C536 1.243 . S
O527 Tb480 2.428 . S
O527 C544 1.256 . S
O528 Tb480 2.308 . S
O528 C543 1.266 1_455 S
O529 Tb491 2.393 . S
O529 C543 1.248 . S
O530 Tb491 2.465 . S
O530 C555 1.264 . S
O531 Tb491 2.387 . S
O531 C547 1.264 . S
O532 Tb480 2.349 . S
O532 C547 1.243 1_455 S
O533 Tb491 2.428 . S
O533 C555 1.256 . S
O534 Tb491 2.308 1_455 S
O534 C554 1.266 . S
O535 Tb480 2.393 . S
O535 C554 1.248 . S
C536 O525 1.264 . S
C536 O526 1.243 . S
C537 C540 1.399 . S
C537 C542 1.383 . S
C537 C544 1.496 . S
C538 C539 1.399 . S
C538 C542 1.389 . S
C539 C538 1.399 . S
C539 C541 1.380 . S
C539 H556 0.929 . S
C540 C537 1.399 . S
C540 C541 1.392 . S
C540 H557 0.929 . S
C541 C539 1.380 . S
C541 C540 1.392 . S
C541 H558 0.929 . S
C542 C537 1.383 . S
C542 C538 1.389 . S
C542 H559 0.931 . S
C543 O528 1.266 1_655 S
C543 O529 1.248 . S
C544 Tb480 2.802 . S
C544 O524 1.264 . S
C544 O527 1.256 . S
C544 C537 1.496 . S
C545 C512 1.448 . S
C545 H522 0.930 . S
C545 C546 1.328 . S
C546 C517 1.427 . S
C546 H523 0.929 . S
C546 C545 1.328 . S
C547 O531 1.264 . S
C547 O532 1.243 1_655 S
C548 C551 1.399 . S
C548 C552 1.383 . S
C548 C555 1.496 . S
C549 C550 1.399 . S
C549 C552 1.389 . S
C550 C549 1.399 . S
C550 C553 1.380 . S
C550 H560 0.929 . S
C551 C548 1.399 . S
C551 C553 1.392 . S
C551 H561 0.929 . S
C552 C548 1.383 . S
C552 C549 1.389 . S
C552 H562 0.931 . S
C553 C550 1.380 . S
C553 C551 1.392 . S
C553 H563 0.929 . S
C554 O534 1.266 . S
C554 O535 1.248 . S
C555 Tb491 2.802 . S
C555 O530 1.264 . S
C555 O533 1.256 . S
C555 C548 1.496 . S
H556 C539 0.929 . S
H557 C540 0.929 . S
H558 C541 0.929 . S
H559 C542 0.931 . S
H560 C550 0.929 . S
H561 C551 0.929 . S
H562 C552 0.931 . S
H563 C553 0.929 . S
Tb564 N593 2.617 . S
Tb564 N599 2.572 . S
Tb564 O608 2.465 . S
Tb564 O609 2.387 . S
Tb564 O611 2.428 . S
Tb564 O612 2.308 . S
Tb564 O616 2.349 . S
Tb564 O619 2.393 . S
Tb564 C628 2.802 . S
C565 N566 1.379 . S
C565 C568 1.416 . S
C565 C572 1.424 . S
N566 C565 1.379 . S
N566 C569 1.334 . S
N566 Tb575 2.617 . S
C567 C569 1.390 . S
C567 C570 1.339 . S
C567 H587 0.930 . S
C568 C565 1.416 . S
C568 C570 1.416 . S
C568 C574 1.448 . S
C569 N566 1.334 . S
C569 C567 1.390 . S
C569 H580 0.930 . S
C570 C567 1.339 . S
C570 C568 1.416 . S
C570 H591 0.930 . S
C571 C572 1.413 . S
C571 C573 1.427 . S
C571 C577 1.416 . S
C572 C565 1.424 . S
C572 C571 1.413 . S
C572 N576 1.361 . S
C573 C571 1.427 . S
C573 C574 1.328 . S
C573 H588 0.929 . S
C574 C568 1.448 . S
C574 C573 1.328 . S
C574 H589 0.930 . S
Tb575 N566 2.617 . S
Tb575 N576 2.572 . S
Tb575 O610 2.349 . S
Tb575 O613 2.393 . S
Tb575 O614 2.465 . S
Tb575 O615 2.387 . S
Tb575 O617 2.428 . S
Tb575 O618 2.308 . S
Tb575 C639 2.802 . S
N576 C572 1.361 . S
N576 Tb575 2.572 . S
N576 C578 1.340 . S
C577 C571 1.416 . S
C577 C579 1.332 . S
C577 H585 0.931 . S
C578 N576 1.340 . S
C578 C579 1.407 . S
C578 H584 0.930 . S
C579 C577 1.332 . S
C579 C578 1.407 . S
C579 H581 0.929 . S
H580 C569 0.930 . S
H581 C579 0.929 . S
H582 C597 0.930 . S
H583 C604 0.929 . S
H584 C578 0.930 . S
H585 C577 0.931 . S
H586 C600 0.930 . S
H587 C567 0.930 . S
H588 C573 0.929 . S
H589 C574 0.930 . S
H590 C595 0.930 . S
H591 C570 0.930 . S
H592 C603 0.931 . S
N593 Tb564 2.617 . S
N593 C594 1.379 . S
N593 C597 1.334 . S
C594 N593 1.379 . S
C594 C596 1.416 . S
C594 C602 1.424 . S
C595 H590 0.930 . S
C595 C597 1.390 . S
C595 C598 1.339 . S
C596 C594 1.416 . S
C596 C598 1.416 . S
C596 C629 1.448 . S
C597 H582 0.930 . S
C597 N593 1.334 . S
C597 C595 1.390 . S
C598 C595 1.339 . S
C598 C596 1.416 . S
C598 H605 0.930 . S
N599 Tb564 2.572 . S
N599 C600 1.340 . S
N599 C602 1.361 . S
C600 H586 0.930 . S
C600 N599 1.340 . S
C600 C604 1.407 . S
C601 C602 1.413 . S
C601 C603 1.416 . S
C601 C630 1.427 . S
C602 C594 1.424 . S
C602 N599 1.361 . S
C602 C601 1.413 . S
C603 H592 0.931 . S
C603 C601 1.416 . S
C603 C604 1.332 . S
C604 H583 0.929 . S
C604 C600 1.407 . S
C604 C603 1.332 . S
H605 C598 0.930 . S
H606 C629 0.930 . S
H607 C630 0.929 . S
O608 Tb564 2.465 . S
O608 C628 1.264 . S
O609 Tb564 2.387 . S
O609 C620 1.264 . S
O610 Tb575 2.349 . S
O610 C620 1.243 . S
O611 Tb564 2.428 . S
O611 C628 1.256 . S
O612 Tb564 2.308 . S
O612 C627 1.266 . S
O613 Tb575 2.393 . S
O613 C627 1.248 . S
O614 Tb575 2.465 . S
O614 C639 1.264 . S
O615 Tb575 2.387 . S
O615 C631 1.264 . S
O616 Tb564 2.349 . S
O616 C631 1.243 . S
O617 Tb575 2.428 . S
O617 C639 1.256 . S
O618 Tb575 2.308 . S
O618 C638 1.266 . S
O619 Tb564 2.393 . S
O619 C638 1.248 . S
C620 O609 1.264 . S
C620 O610 1.243 . S
C621 C624 1.399 . S
C621 C626 1.383 . S
C621 C628 1.496 . S
C622 C623 1.399 . S
C622 C626 1.389 . S
C623 C622 1.399 . S
C623 C625 1.380 . S
C623 H640 0.929 . S
C624 C621 1.399 . S
C624 C625 1.392 . S
C624 H641 0.929 . S
C625 C623 1.380 . S
C625 C624 1.392 . S
C625 H642 0.929 . S
C626 C621 1.383 . S
C626 C622 1.389 . S
C626 H643 0.931 . S
C627 O612 1.266 . S
C627 O613 1.248 . S
C628 Tb564 2.802 . S
C628 O608 1.264 . S
C628 O611 1.256 . S
C628 C621 1.496 . S
C629 C596 1.448 . S
C629 H606 0.930 . S
C629 C630 1.328 . S
C630 C601 1.427 . S
C630 H607 0.929 . S
C630 C629 1.328 . S
C631 O615 1.264 . S
C631 O616 1.243 . S
C632 C635 1.399 . S
C632 C636 1.383 . S
C632 C639 1.496 . S
C633 C634 1.399 . S
C633 C636 1.389 . S
C634 C633 1.399 . S
C634 C637 1.380 . S
C634 H644 0.929 . S
C635 C632 1.399 . S
C635 C637 1.392 . S
C635 H645 0.929 . S
C636 C632 1.383 . S
C636 C633 1.389 . S
C636 H646 0.931 . S
C637 C634 1.380 . S
C637 C635 1.392 . S
C637 H647 0.929 . S
C638 O618 1.266 . S
C638 O619 1.248 . S
C639 Tb575 2.802 . S
C639 O614 1.264 . S
C639 O617 1.256 . S
C639 C632 1.496 . S
H640 C623 0.929 . S
H641 C624 0.929 . S
H642 C625 0.929 . S
H643 C626 0.931 . S
H644 C634 0.929 . S
H645 C635 0.929 . S
H646 C636 0.931 . S
H647 C637 0.929 . S
H648 C656 0.946 1_565 S
H649 C661 0.950 . S
H650 C658 0.950 . S
H651 C660 0.950 . S
H652 C662 0.950 . S
H653 C664 0.950 . S
H654 C666 0.950 . S
H655 C667 0.950 . S
C656 H648 0.946 1_545 S
C656 C657 1.380 1_545 S
C656 C658 1.401 . S
C657 C656 1.380 1_565 S
C657 C661 1.393 . S
C658 H650 0.950 . S
C658 C656 1.401 . S
C658 C659 1.400 . S
C659 C658 1.400 . S
C659 C660 1.398 . S
C659 C665 1.491 . S
C660 H651 0.950 . S
C660 C659 1.398 . S
C660 C661 1.391 1_545 S
C661 H649 0.950 . S
C661 C657 1.393 . S
C661 C660 1.391 1_565 S
C662 H652 0.950 . S
C662 C663 1.386 . S
C662 C664 1.391 . S
C663 C662 1.386 . S
C663 C667 1.393 . S
C664 H653 0.950 . S
C664 C662 1.391 . S
C664 C665 1.400 . S
C665 C659 1.491 . S
C665 C664 1.400 . S
C665 C666 1.398 . S
C666 H654 0.950 . S
C666 C665 1.398 . S
C666 C667 1.391 . S
C667 H655 0.950 . S
C667 C663 1.393 . S
C667 C666 1.391 . S
H668 C676 0.950 . S
H669 C681 0.950 . S
H670 C678 0.950 . S
H671 C680 0.950 . S
H672 C682 0.950 . S
H673 C684 0.950 . S
H674 C686 0.950 . S
H675 C687 0.950 . S
C676 H668 0.950 . S
C676 C677 1.386 . S
C676 C678 1.391 . S
C677 C676 1.386 . S
C677 C681 1.393 . S
C678 H670 0.950 . S
C678 C676 1.391 . S
C678 C679 1.400 . S
C679 C678 1.400 . S
C679 C680 1.398 . S
C679 C685 1.491 . S
C680 H671 0.950 . S
C680 C679 1.398 . S
C680 C681 1.391 . S
C681 H669 0.950 . S
C681 C677 1.393 . S
C681 C680 1.391 . S
C682 H672 0.950 . S
C682 C683 1.386 . S
C682 C684 1.391 . S
C683 C682 1.386 . S
C683 C687 1.393 . S
C684 H673 0.950 . S
C684 C682 1.391 . S
C684 C685 1.400 . S
C685 C679 1.491 . S
C685 C684 1.400 . S
C685 C686 1.398 . S
C686 H674 0.950 . S
C686 C685 1.398 . S
C686 C687 1.391 . S
C687 H675 0.950 . S
C687 C683 1.393 . S
C687 C686 1.391 . S
H688 C696 0.950 . S
H689 C701 0.950 . S
H690 C698 0.950 . S
H691 C700 0.950 . S
H692 C702 0.950 . S
H693 C704 0.950 . S
H694 C706 0.950 . S
H695 C707 0.950 . S
C696 H688 0.950 . S
C696 C697 1.386 . S
C696 C698 1.391 . S
C697 C696 1.386 . S
C697 C701 1.393 . S
C698 H690 0.950 . S
C698 C696 1.391 . S
C698 C699 1.400 . S
C699 C698 1.400 . S
C699 C700 1.398 . S
C699 C705 1.491 . S
C700 H691 0.950 . S
C700 C699 1.398 . S
C700 C701 1.391 . S
C701 H689 0.950 . S
C701 C697 1.393 . S
C701 C700 1.391 . S
C702 H692 0.950 . S
C702 C703 1.386 . S
C702 C704 1.391 . S
C703 C702 1.386 . S
C703 C707 1.393 . S
C704 H693 0.950 . S
C704 C702 1.391 . S
C704 C705 1.400 . S
C705 C699 1.491 . S
C705 C704 1.400 . S
C705 C706 1.398 . S
C706 H694 0.950 . S
C706 C705 1.398 . S
C706 C707 1.391 . S
C707 H695 0.950 . S
C707 C703 1.393 . S
C707 C706 1.391 . S
H708 C716 0.950 . S
H709 C721 0.950 . S
H710 C718 0.950 . S
H711 C720 0.950 . S
H712 C722 0.950 . S
H713 C724 0.950 . S
H714 C726 0.950 . S
H715 C727 0.950 . S
C716 H708 0.950 . S
C716 C717 1.386 . S
C716 C718 1.391 1_565 S
C717 C716 1.386 . S
C717 C721 1.393 1_565 S
C718 H710 0.950 . S
C718 C716 1.391 1_545 S
C718 C719 1.400 . S
C719 C718 1.400 . S
C719 C720 1.398 . S
C719 C725 1.491 . S
C720 H711 0.950 . S
C720 C719 1.398 . S
C720 C721 1.391 . S
C721 H709 0.950 . S
C721 C717 1.393 1_545 S
C721 C720 1.391 . S
C722 H712 0.950 . S
C722 C723 1.386 . S
C722 C724 1.391 . S
C723 C722 1.386 . S
C723 C727 1.393 . S
C724 H713 0.950 . S
C724 C722 1.391 . S
C724 C725 1.400 . S
C725 C719 1.491 . S
C725 C724 1.400 . S
C725 C726 1.398 . S
C726 H714 0.950 . S
C726 C725 1.398 . S
C726 C727 1.391 . S
C727 H715 0.950 . S
C727 C723 1.393 . S
C727 C726 1.391 . S
H728 C736 0.950 . S
H729 C741 0.950 . S
H730 C738 0.950 1_545 S
H731 C740 0.950 . S
H732 C742 0.950 . S
H733 C744 0.950 . S
H734 C746 0.950 . S
H735 C747 0.950 . S
C736 H728 0.950 . S
C736 C737 1.386 . S
C736 C738 1.391 1_545 S
C737 C736 1.386 . S
C737 C741 1.393 1_545 S
C738 H730 0.950 1_565 S
C738 C736 1.391 1_565 S
C738 C739 1.400 . S
C739 C738 1.400 . S
C739 C740 1.398 . S
C739 C745 1.491 . S
C740 H731 0.950 . S
C740 C739 1.398 . S
C740 C741 1.391 . S
C741 H729 0.950 . S
C741 C737 1.393 1_565 S
C741 C740 1.391 . S
C742 H732 0.950 . S
C742 C743 1.386 . S
C742 C744 1.391 . S
C743 C742 1.386 . S
C743 C747 1.393 . S
C744 H733 0.950 . S
C744 C742 1.391 . S
C744 C745 1.400 . S
C745 C739 1.491 . S
C745 C744 1.400 . S
C745 C746 1.398 . S
C746 H734 0.950 . S
C746 C745 1.398 . S
C746 C747 1.391 . S
C747 H735 0.950 . S
C747 C743 1.393 . S
C747 C746 1.391 . S
H748 C756 0.950 . S
H749 C761 0.950 . S
H750 C758 0.950 . S
H751 C760 0.950 . S
H752 C762 0.950 . S
H753 C764 0.950 . S
H754 C766 0.950 . S
H755 C767 0.950 . S
C756 H748 0.950 . S
C756 C757 1.386 . S
C756 C758 1.391 . S
C757 C756 1.386 . S
C757 C761 1.393 . S
C758 H750 0.950 . S
C758 C756 1.391 . S
C758 C759 1.400 . S
C759 C758 1.400 . S
C759 C760 1.398 . S
C759 C765 1.491 . S
C760 H751 0.950 . S
C760 C759 1.398 . S
C760 C761 1.391 . S
C761 H749 0.950 . S
C761 C757 1.393 . S
C761 C760 1.391 . S
C762 H752 0.950 . S
C762 C763 1.386 . S
C762 C764 1.391 . S
C763 C762 1.386 . S
C763 C767 1.393 . S
C764 H753 0.950 . S
C764 C762 1.391 . S
C764 C765 1.400 . S
C765 C759 1.491 . S
C765 C764 1.400 . S
C765 C766 1.398 . S
C766 H754 0.950 . S
C766 C765 1.398 . S
C766 C767 1.391 . S
C767 H755 0.950 . S
C767 C763 1.393 . S
C767 C766 1.391 . S
H768 C776 0.950 . S
H769 C781 0.950 . S
H770 C778 0.950 . S
H771 C780 0.950 . S
H772 C782 0.950 . S
H773 C784 0.950 . S
H774 C786 0.950 . S
H775 C787 0.950 . S
C776 H768 0.950 . S
C776 C777 1.386 . S
C776 C778 1.391 . S
C777 C776 1.386 . S
C777 C781 1.393 . S
C778 H770 0.950 . S
C778 C776 1.391 . S
C778 C779 1.400 . S
C779 C778 1.400 . S
C779 C780 1.398 . S
C779 C785 1.491 . S
C780 H771 0.950 . S
C780 C779 1.398 . S
C780 C781 1.391 . S
C781 H769 0.950 . S
C781 C777 1.393 . S
C781 C780 1.391 . S
C782 H772 0.950 . S
C782 C783 1.386 . S
C782 C784 1.391 . S
C783 C782 1.386 . S
C783 C787 1.393 . S
C784 H773 0.950 . S
C784 C782 1.391 . S
C784 C785 1.400 . S
C785 C779 1.491 . S
C785 C784 1.400 . S
C785 C786 1.398 . S
C786 H774 0.950 . S
C786 C785 1.398 . S
C786 C787 1.391 . S
C787 H775 0.950 . S
C787 C783 1.393 . S
C787 C786 1.391 . S
H788 C796 0.950 . S
H789 C801 0.950 . S
H790 C798 0.950 . S
H791 C800 0.950 . S
H792 C802 0.950 . S
H793 C804 0.950 . S
H794 C806 0.950 . S
H795 C807 0.950 . S
C796 H788 0.950 . S
C796 C797 1.386 1_565 S
C796 C798 1.391 . S
C797 C796 1.386 1_545 S
C797 C801 1.393 . S
C798 H790 0.950 . S
C798 C796 1.391 . S
C798 C799 1.400 . S
C799 C798 1.400 . S
C799 C800 1.398 . S
C799 C805 1.491 . S
C800 H791 0.950 . S
C800 C799 1.398 . S
C800 C801 1.391 1_565 S
C801 H789 0.950 . S
C801 C797 1.393 . S
C801 C800 1.391 1_545 S
C802 H792 0.950 . S
C802 C803 1.386 . S
C802 C804 1.391 . S
C803 C802 1.386 . S
C803 C807 1.393 . S
C804 H793 0.950 . S
C804 C802 1.391 . S
C804 C805 1.400 . S
C805 C799 1.491 . S
C805 C804 1.400 . S
C805 C806 1.398 . S
C806 H794 0.950 . S
C806 C805 1.398 . S
C806 C807 1.391 . S
C807 H795 0.950 . S
C807 C803 1.393 . S
C807 C806 1.391 . S
H808 C816 0.950 . S
H809 C821 0.950 . S
H810 C818 0.950 . S
H811 C820 0.950 . S
H812 C822 0.950 . S
H813 C824 0.950 . S
H814 C826 0.950 . S
H815 C827 0.950 . S
C816 H808 0.950 . S
C816 C817 1.386 . S
C816 C818 1.391 . S
C817 C816 1.386 . S
C817 C821 1.393 . S
C818 H810 0.950 . S
C818 C816 1.391 . S
C818 C819 1.400 . S
C819 C818 1.400 . S
C819 C820 1.398 . S
C819 C825 1.491 . S
C820 H811 0.950 . S
C820 C819 1.398 . S
C820 C821 1.391 . S
C821 H809 0.950 . S
C821 C817 1.393 . S
C821 C820 1.391 . S
C822 H812 0.950 . S
C822 C823 1.386 . S
C822 C824 1.391 . S
C823 C822 1.386 . S
C823 C827 1.393 . S
C824 H813 0.950 . S
C824 C822 1.391 . S
C824 C825 1.400 . S
C825 C819 1.491 . S
C825 C824 1.400 . S
C825 C826 1.398 . S
C826 H814 0.950 . S
C826 C825 1.398 . S
C826 C827 1.391 . S
C827 H815 0.950 . S
C827 C823 1.393 . S
C827 C826 1.391 . S
H828 C836 0.950 . S
H829 C841 0.950 . S
H830 C838 0.950 . S
H831 C840 0.950 . S
H832 C842 0.950 . S
H833 C844 0.950 . S
H834 C846 0.950 . S
H835 C847 0.950 . S
C836 H828 0.950 . S
C836 C837 1.386 . S
C836 C838 1.391 . S
C837 C836 1.386 . S
C837 C841 1.393 . S
C838 H830 0.950 . S
C838 C836 1.391 . S
C838 C839 1.400 . S
C839 C838 1.400 . S
C839 C840 1.398 . S
C839 C845 1.491 . S
C840 H831 0.950 . S
C840 C839 1.398 . S
C840 C841 1.391 . S
C841 H829 0.950 . S
C841 C837 1.393 . S
C841 C840 1.391 . S
C842 H832 0.950 . S
C842 C843 1.386 . S
C842 C844 1.391 . S
C843 C842 1.386 . S
C843 C847 1.393 . S
C844 H833 0.950 . S
C844 C842 1.391 . S
C844 C845 1.400 . S
C845 C839 1.491 . S
C845 C844 1.400 . S
C845 C846 1.398 . S
C846 H834 0.950 . S
C846 C845 1.398 . S
C846 C847 1.391 . S
C847 H835 0.950 . S
C847 C843 1.393 . S
C847 C846 1.391 . S
H848 C856 0.950 . S
H849 C861 0.950 . S
H850 C858 0.950 . S
H851 C860 0.950 . S
H852 C862 0.950 . S
H853 C864 0.950 . S
H854 C866 0.950 . S
H855 C867 0.950 . S
C856 H848 0.950 . S
C856 C857 1.386 . S
C856 C858 1.391 . S
C857 C856 1.386 . S
C857 C861 1.393 . S
C858 H850 0.950 . S
C858 C856 1.391 . S
C858 C859 1.400 . S
C859 C858 1.400 . S
C859 C860 1.398 . S
C859 C865 1.491 . S
C860 H851 0.950 . S
C860 C859 1.398 . S
C860 C861 1.391 . S
C861 H849 0.950 . S
C861 C857 1.393 . S
C861 C860 1.391 . S
C862 H852 0.950 . S
C862 C863 1.386 . S
C862 C864 1.391 . S
C863 C862 1.386 . S
C863 C867 1.393 . S
C864 H853 0.950 . S
C864 C862 1.391 . S
C864 C865 1.400 . S
C865 C859 1.491 . S
C865 C864 1.400 . S
C865 C866 1.398 . S
C866 H854 0.950 . S
C866 C865 1.398 . S
C866 C867 1.391 . S
C867 H855 0.950 . S
C867 C863 1.393 . S
C867 C866 1.391 . S
H868 C876 0.950 . S
H869 C881 0.950 . S
H870 C878 0.950 . S
H871 C880 0.950 . S
H872 C882 0.950 . S
H873 C884 0.950 . S
H874 C886 0.950 . S
H875 C887 0.950 . S
C876 H868 0.950 . S
C876 C877 1.386 . S
C876 C878 1.391 . S
C877 C876 1.386 . S
C877 C881 1.393 . S
C878 H870 0.950 . S
C878 C876 1.391 . S
C878 C879 1.400 . S
C879 C878 1.400 . S
C879 C880 1.398 . S
C879 C885 1.491 . S
C880 H871 0.950 . S
C880 C879 1.398 . S
C880 C881 1.391 . S
C881 H869 0.950 . S
C881 C877 1.393 . S
C881 C880 1.391 . S
C882 H872 0.950 . S
C882 C883 1.386 . S
C882 C884 1.391 . S
C883 C882 1.386 . S
C883 C887 1.393 . S
C884 H873 0.950 . S
C884 C882 1.391 . S
C884 C885 1.400 . S
C885 C879 1.491 . S
C885 C884 1.400 . S
C885 C886 1.398 . S
C886 H874 0.950 . S
C886 C885 1.398 . S
C886 C887 1.391 . S
C887 H875 0.950 . S
C887 C883 1.393 . S
C887 C886 1.391 . S
H888 C896 0.950 . S
H889 C901 0.950 . S
H890 C898 0.950 . S
H891 C900 0.950 . S
H892 C902 0.950 . S
H893 C904 0.950 . S
H894 C906 0.950 . S
H895 C907 0.950 . S
C896 H888 0.950 . S
C896 C897 1.386 . S
C896 C898 1.391 . S
C897 C896 1.386 . S
C897 C901 1.393 . S
C898 H890 0.950 . S
C898 C896 1.391 . S
C898 C899 1.400 . S
C899 C898 1.400 . S
C899 C900 1.398 . S
C899 C905 1.491 . S
C900 H891 0.950 . S
C900 C899 1.398 . S
C900 C901 1.391 . S
C901 H889 0.950 . S
C901 C897 1.393 . S
C901 C900 1.391 . S
C902 H892 0.950 . S
C902 C903 1.386 . S
C902 C904 1.391 . S
C903 C902 1.386 . S
C903 C907 1.393 . S
C904 H893 0.950 . S
C904 C902 1.391 . S
C904 C905 1.400 . S
C905 C899 1.491 . S
C905 C904 1.400 . S
C905 C906 1.398 . S
C906 H894 0.950 . S
C906 C905 1.398 . S
C906 C907 1.391 . S
C907 H895 0.950 . S
C907 C903 1.393 . S
C907 C906 1.391 . S
H908 C916 0.950 . S
H909 C921 0.950 . S
H910 C918 0.950 . S
H911 C920 0.950 . S
H912 C922 0.950 . S
H913 C924 0.950 . S
H914 C926 0.950 . S
H915 C927 0.950 . S
C916 H908 0.950 . S
C916 C917 1.386 . S
C916 C918 1.391 . S
C917 C916 1.386 . S
C917 C921 1.393 . S
C918 H910 0.950 . S
C918 C916 1.391 . S
C918 C919 1.400 . S
C919 C918 1.400 . S
C919 C920 1.398 . S
C919 C925 1.491 . S
C920 H911 0.950 . S
C920 C919 1.398 . S
C920 C921 1.391 . S
C921 H909 0.950 . S
C921 C917 1.393 . S
C921 C920 1.391 . S
C922 H912 0.950 . S
C922 C923 1.386 . S
C922 C924 1.391 . S
C923 C922 1.386 . S
C923 C927 1.393 . S
C924 H913 0.950 . S
C924 C922 1.391 . S
C924 C925 1.400 . S
C925 C919 1.491 . S
C925 C924 1.400 . S
C925 C926 1.398 . S
C926 H914 0.950 . S
C926 C925 1.398 . S
C926 C927 1.391 . S
C927 H915 0.950 . S
C927 C923 1.393 . S
C927 C926 1.391 . S
H928 C936 0.950 . S
H929 C941 0.950 . S
H930 C938 0.950 . S
H931 C940 0.950 . S
H932 C942 0.950 . S
H933 C944 0.950 . S
H934 C946 0.950 . S
H935 C947 0.950 . S
C936 H928 0.950 . S
C936 C937 1.386 . S
C936 C938 1.391 . S
C937 C936 1.386 . S
C937 C941 1.393 . S
C938 H930 0.950 . S
C938 C936 1.391 . S
C938 C939 1.400 . S
C939 C938 1.400 . S
C939 C940 1.398 . S
C939 C945 1.491 . S
C940 H931 0.950 . S
C940 C939 1.398 . S
C940 C941 1.391 . S
C941 H929 0.950 . S
C941 C937 1.393 . S
C941 C940 1.391 . S
C942 H932 0.950 . S
C942 C943 1.386 . S
C942 C944 1.391 . S
C943 C942 1.386 . S
C943 C947 1.393 . S
C944 H933 0.950 . S
C944 C942 1.391 . S
C944 C945 1.400 . S
C945 C939 1.491 . S
C945 C944 1.400 . S
C945 C946 1.398 . S
C946 H934 0.950 . S
C946 C945 1.398 . S
C946 C947 1.391 . S
C947 H935 0.950 . S
C947 C943 1.393 . S
C947 C946 1.391 . S
H948 C956 0.950 . S
H949 C961 0.950 . S
H950 C958 0.950 . S
H951 C960 0.950 . S
H952 C962 0.950 . S
H953 C964 0.950 . S
H954 C966 0.950 . S
H955 C967 0.950 . S
C956 H948 0.950 . S
C956 C957 1.386 . S
C956 C958 1.391 . S
C957 C956 1.386 . S
C957 C961 1.393 . S
C958 H950 0.950 . S
C958 C956 1.391 . S
C958 C959 1.400 . S
C959 C958 1.400 . S
C959 C960 1.398 . S
C959 C965 1.491 . S
C960 H951 0.950 . S
C960 C959 1.398 . S
C960 C961 1.391 . S
C961 H949 0.950 . S
C961 C957 1.393 . S
C961 C960 1.391 . S
C962 H952 0.950 . S
C962 C963 1.386 . S
C962 C964 1.391 . S
C963 C962 1.386 . S
C963 C967 1.393 . S
C964 H953 0.950 . S
C964 C962 1.391 . S
C964 C965 1.400 . S
C965 C959 1.491 . S
C965 C964 1.400 . S
C965 C966 1.398 . S
C966 H954 0.950 . S
C966 C965 1.398 . S
C966 C967 1.391 . S
C967 H955 0.950 . S
C967 C963 1.393 . S
C967 C966 1.391 . S
H968 C976 0.950 . S
H969 C981 0.950 . S
H970 C978 0.950 . S
H971 C980 0.950 . S
H972 C982 0.950 . S
H973 C984 0.950 . S
H974 C986 0.950 . S
H975 C987 0.959 . S
C976 H968 0.950 . S
C976 C977 1.386 . S
C976 C978 1.391 . S
C977 C976 1.386 . S
C977 C981 1.393 . S
C978 H970 0.950 . S
C978 C976 1.391 . S
C978 C979 1.400 . S
C979 C978 1.400 . S
C979 C980 1.398 . S
C979 C985 1.491 . S
C980 H971 0.950 . S
C980 C979 1.398 . S
C980 C981 1.391 . S
C981 H969 0.950 . S
C981 C977 1.393 . S
C981 C980 1.391 . S
C982 H972 0.950 . S
C982 C983 1.386 . S
C982 C984 1.391 . S
C983 C982 1.386 . S
C983 C987 1.393 . S
C984 H973 0.950 . S
C984 C982 1.391 . S
C984 C985 1.400 . S
C985 C979 1.491 . S
C985 C984 1.400 . S
C985 C986 1.398 . S
C986 H974 0.950 . S
C986 C985 1.398 . S
C986 C987 1.391 . S
C987 H975 0.959 . S
C987 C983 1.393 . S
C987 C986 1.391 . S
H988 C996 0.950 . S
H989 C1001 0.950 . S
H990 C998 0.950 . S
H991 C1000 0.950 . S
H992 C1002 0.950 . S
H993 C1004 0.950 . S
H994 C1006 0.950 . S
H995 C1007 0.950 . S
C996 H988 0.950 . S
C996 C997 1.386 . S
C996 C998 1.391 . S
C997 C996 1.386 . S
C997 C1001 1.393 . S
C998 H990 0.950 . S
C998 C996 1.391 . S
C998 C999 1.400 . S
C999 C998 1.400 . S
C999 C1000 1.398 . S
C999 C1005 1.491 . S
C1000 H991 0.950 . S
C1000 C999 1.398 . S
C1000 C1001 1.391 . S
C1001 H989 0.950 . S
C1001 C997 1.393 . S
C1001 C1000 1.391 . S
C1002 H992 0.950 . S
C1002 C1003 1.386 . S
C1002 C1004 1.391 . S
C1003 C1002 1.386 . S
C1003 C1007 1.393 . S
C1004 H993 0.950 . S
C1004 C1002 1.391 . S
C1004 C1005 1.400 . S
C1005 C999 1.491 . S
C1005 C1004 1.400 . S
C1005 C1006 1.398 . S
C1006 H994 0.950 . S
C1006 C1005 1.398 . S
C1006 C1007 1.391 . S
C1007 H995 0.950 . S
C1007 C1003 1.393 . S
C1007 C1006 1.391 . S
H1008 C1016 0.950 . S
H1009 C1021 0.950 . S
H1010 C1018 0.950 . S
H1011 C1020 0.950 . S
H1012 C1022 0.950 . S
H1013 C1024 0.950 . S
H1014 C1026 0.950 . S
H1015 C1027 0.950 . S
C1016 H1008 0.950 . S
C1016 C1017 1.386 . S
C1016 C1018 1.391 . S
C1017 C1016 1.386 . S
C1017 C1021 1.393 . S
C1018 H1010 0.950 . S
C1018 C1016 1.391 . S
C1018 C1019 1.400 . S
C1019 C1018 1.400 . S
C1019 C1020 1.398 . S
C1019 C1025 1.491 . S
C1020 H1011 0.950 . S
C1020 C1019 1.398 . S
C1020 C1021 1.391 . S
C1021 H1009 0.950 . S
C1021 C1017 1.393 . S
C1021 C1020 1.391 . S
C1022 H1012 0.950 . S
C1022 C1023 1.386 . S
C1022 C1024 1.391 . S
C1023 C1022 1.386 . S
C1023 C1027 1.393 . S
C1024 H1013 0.950 . S
C1024 C1022 1.391 . S
C1024 C1025 1.400 . S
C1025 C1019 1.491 . S
C1025 C1024 1.400 . S
C1025 C1026 1.398 . S
C1026 H1014 0.950 . S
C1026 C1025 1.398 . S
C1026 C1027 1.391 . S
C1027 H1015 0.950 . S
C1027 C1023 1.393 . S
C1027 C1026 1.391 . S
H1028 C1036 0.950 . S
H1029 C1041 0.950 . S
H1030 C1038 0.950 . S
H1031 C1040 0.950 . S
H1032 C1042 0.950 . S
H1033 C1044 0.950 . S
H1034 C1046 0.950 . S
H1035 C1047 0.950 . S
C1036 H1028 0.950 . S
C1036 C1037 1.386 . S
C1036 C1038 1.391 . S
C1037 C1036 1.386 . S
C1037 C1041 1.393 . S
C1038 H1030 0.950 . S
C1038 C1036 1.391 . S
C1038 C1039 1.400 . S
C1039 C1038 1.400 . S
C1039 C1040 1.398 . S
C1039 C1045 1.491 . S
C1040 H1031 0.950 . S
C1040 C1039 1.398 . S
C1040 C1041 1.391 . S
C1041 H1029 0.950 . S
C1041 C1037 1.393 . S
C1041 C1040 1.391 . S
C1042 H1032 0.950 . S
C1042 C1043 1.386 . S
C1042 C1044 1.391 . S
C1043 C1042 1.386 . S
C1043 C1047 1.393 . S
C1044 H1033 0.950 . S
C1044 C1042 1.391 . S
C1044 C1045 1.400 . S
C1045 C1039 1.491 . S
C1045 C1044 1.400 . S
C1045 C1046 1.398 . S
C1046 H1034 0.950 . S
C1046 C1045 1.398 . S
C1046 C1047 1.391 . S
C1047 H1035 0.950 . S
C1047 C1043 1.393 . S
C1047 C1046 1.391 . S
H1048 C1056 0.950 . S
H1049 C1061 0.950 . S
H1050 C1058 0.950 . S
H1051 C1060 0.950 . S
H1052 C1062 0.950 . S
H1053 C1064 0.950 . S
H1054 C1066 0.950 . S
H1055 C1067 0.950 . S
C1056 H1048 0.950 . S
C1056 C1057 1.386 . S
C1056 C1058 1.391 . S
C1057 C1056 1.386 . S
C1057 C1061 1.393 . S
C1058 H1050 0.950 . S
C1058 C1056 1.391 . S
C1058 C1059 1.400 . S
C1059 C1058 1.400 . S
C1059 C1060 1.398 . S
C1059 C1065 1.491 . S
C1060 H1051 0.950 . S
C1060 C1059 1.398 . S
C1060 C1061 1.391 . S
C1061 H1049 0.950 . S
C1061 C1057 1.393 . S
C1061 C1060 1.391 . S
C1062 H1052 0.950 . S
C1062 C1063 1.386 . S
C1062 C1064 1.391 . S
C1063 C1062 1.386 . S
C1063 C1067 1.393 . S
C1064 H1053 0.950 . S
C1064 C1062 1.391 . S
C1064 C1065 1.400 . S
C1065 C1059 1.491 . S
C1065 C1064 1.400 . S
C1065 C1066 1.398 . S
C1066 H1054 0.950 . S
C1066 C1065 1.398 . S
C1066 C1067 1.391 . S
C1067 H1055 0.950 . S
C1067 C1063 1.393 . S
C1067 C1066 1.391 . S
H1068 C1076 0.950 . S
H1069 C1081 0.950 . S
H1070 C1078 0.950 . S
H1071 C1080 0.950 . S
H1072 C1082 0.950 . S
H1073 C1084 0.950 . S
H1074 C1086 0.950 . S
H1075 C1087 0.950 . S
C1076 H1068 0.950 . S
C1076 C1077 1.386 . S
C1076 C1078 1.391 . S
C1077 C1076 1.386 . S
C1077 C1081 1.393 . S
C1078 H1070 0.950 . S
C1078 C1076 1.391 . S
C1078 C1079 1.400 . S
C1079 C1078 1.400 . S
C1079 C1080 1.398 . S
C1079 C1085 1.491 . S
C1080 H1071 0.950 . S
C1080 C1079 1.398 . S
C1080 C1081 1.391 . S
C1081 H1069 0.950 . S
C1081 C1077 1.393 . S
C1081 C1080 1.391 . S
C1082 H1072 0.950 . S
C1082 C1083 1.386 . S
C1082 C1084 1.391 . S
C1083 C1082 1.386 . S
C1083 C1087 1.393 . S
C1084 H1073 0.950 . S
C1084 C1082 1.391 . S
C1084 C1085 1.400 . S
C1085 C1079 1.491 . S
C1085 C1084 1.400 . S
C1085 C1086 1.398 . S
C1086 H1074 0.950 . S
C1086 C1085 1.398 . S
C1086 C1087 1.391 . S
C1087 H1075 0.950 . S
C1087 C1083 1.393 . S
C1087 C1086 1.391 . S
H1088 C1096 0.950 . S
H1089 C1101 0.950 . S
H1090 C1098 0.950 . S
H1091 C1100 0.950 . S
H1092 C1102 0.950 . S
H1093 C1104 0.950 . S
H1094 C1106 0.950 . S
H1095 C1107 0.950 . S
C1096 H1088 0.950 . S
C1096 C1097 1.386 . S
C1096 C1098 1.391 . S
C1097 C1096 1.386 . S
C1097 C1101 1.393 . S
C1098 H1090 0.950 . S
C1098 C1096 1.391 . S
C1098 C1099 1.400 . S
C1099 C1098 1.400 . S
C1099 C1100 1.398 . S
C1099 C1105 1.491 . S
C1100 H1091 0.950 . S
C1100 C1099 1.398 . S
C1100 C1101 1.391 . S
C1101 H1089 0.950 . S
C1101 C1097 1.393 . S
C1101 C1100 1.391 . S
C1102 H1092 0.950 . S
C1102 C1103 1.386 . S
C1102 C1104 1.391 . S
C1103 C1102 1.386 . S
C1103 C1107 1.393 . S
C1104 H1093 0.950 . S
C1104 C1102 1.391 . S
C1104 C1105 1.400 . S
C1105 C1099 1.491 . S
C1105 C1104 1.400 . S
C1105 C1106 1.398 . S
C1106 H1094 0.950 . S
C1106 C1105 1.398 . S
C1106 C1107 1.391 . S
C1107 H1095 0.950 . S
C1107 C1103 1.393 . S
C1107 C1106 1.391 . S
H1108 C1116 0.950 . S
H1109 C1121 0.950 . S
H1110 C1118 0.950 . S
H1111 C1120 0.950 . S
H1112 C1122 0.950 . S
H1113 C1124 0.950 . S
H1114 C1126 0.950 . S
H1115 C1127 0.950 . S
C1116 H1108 0.950 . S
C1116 C1117 1.386 . S
C1116 C1118 1.391 . S
C1117 C1116 1.386 . S
C1117 C1121 1.393 . S
C1118 H1110 0.950 . S
C1118 C1116 1.391 . S
C1118 C1119 1.400 . S
C1119 C1118 1.400 . S
C1119 C1120 1.398 . S
C1119 C1125 1.491 . S
C1120 H1111 0.950 . S
C1120 C1119 1.398 . S
C1120 C1121 1.391 . S
C1121 H1109 0.950 . S
C1121 C1117 1.393 . S
C1121 C1120 1.391 . S
C1122 H1112 0.950 . S
C1122 C1123 1.386 . S
C1122 C1124 1.391 . S
C1123 C1122 1.386 . S
C1123 C1127 1.393 . S
C1124 H1113 0.950 . S
C1124 C1122 1.391 . S
C1124 C1125 1.400 . S
C1125 C1119 1.491 . S
C1125 C1124 1.400 . S
C1125 C1126 1.398 . S
C1126 H1114 0.950 . S
C1126 C1125 1.398 . S
C1126 C1127 1.391 . S
C1127 H1115 0.950 . S
C1127 C1123 1.393 . S
C1127 C1126 1.391 . S
C657 C235 1.483 . S
C663 C386 1.460 . S
C683 C470 1.457 . S
C677 C289 1.480 . S
C703 C463 1.472 . S
C697 C157 1.471 . S
C717 C211 1.472 . S
C723 C379 1.473 . S
C743 C543 1.471 . S
C737 C79 1.479 . S
C763 C627 1.462 . S
C757 C118 1.482 . S
C777 C1 1.475 . S
C783 C620 1.474 . S
C797 C40 1.477 . S
C803 C536 1.477 . S
C823 C370 1.332 . S
C817 C55 1.512 1_554 S
C843 C454 1.322 . S
C837 C16 1.511 . S
C863 C465 1.382 . S
C857 C133 1.534 1_556 S
C883 C381 1.414 . S
C877 C94 1.539 . S
C903 C549 1.356 . S
C897 C196 1.524 1_556 S
C917 C172 1.522 . S
C923 C633 1.343 . S
C943 C622 1.395 . S
C937 C274 1.543 1_554 S
C957 C250 1.537 . S
C963 C538 1.392 . S
C983 C368 1.575 . S
C977 C21 1.573 . S
C1003 C452 1.585 . S
C997 C60 1.585 . S
C1017 C99 1.565 . S
C1023 C459 1.553 . S
C1043 C375 1.559 . S
C1037 C138 1.572 . S
C1063 C547 1.585 . S
C1057 C177 1.573 . S
C1077 C216 1.582 . S
C1083 C631 1.588 . S
C1097 C255 1.571 . S
C1103 C638 1.566 . S
C1117 C294 1.572 . S
C1123 C554 1.557 . S
