# Generated by pormake.
# Topology cml, (3,6)-cn, num edge types: 1
# Building blocks:
#     Node 0, Type 0, BuildingBlock: INOVEN_clean_linker_0, # of connection points: 3
#     Node 1, Type 0, BuildingBlock: INOVEN_clean_linker_0, # of connection points: 3
#     Node 2, Type 0, BuildingBlock: INOVEN_clean_linker_0, # of connection points: 3
#     Node 3, Type 0, BuildingBlock: INOVEN_clean_linker_0, # of connection points: 3
#     Node 4, Type 0, BuildingBlock: INOVEN_clean_linker_0, # of connection points: 3
#     Node 5, Type 0, BuildingBlock: INOVEN_clean_linker_0, # of connection points: 3
#     Node 6, Type 0, BuildingBlock: INOVEN_clean_linker_0, # of connection points: 3
#     Node 7, Type 0, BuildingBlock: INOVEN_clean_linker_0, # of connection points: 3
#     Node 8, Type 1, BuildingBlock: OJICUG_clean_sbu_0, # of connection points: 6
#     Node 9, Type 1, BuildingBlock: OJICUG_clean_sbu_0, # of connection points: 6
#     Node 10, Type 1, BuildingBlock: OJICUG_clean_sbu_0, # of connection points: 6
#     Node 11, Type 1, BuildingBlock: OJICUG_clean_sbu_0, # of connection points: 6
#     Edge 12, Type (0, 1), BuildingBlock: AJUNOK_clean_linker_0, # of connection points: 2
#     Edge 13, Type (0, 1), BuildingBlock: AJUNOK_clean_linker_0, # of connection points: 2
#     Edge 14, Type (0, 1), BuildingBlock: AJUNOK_clean_linker_0, # of connection points: 2
#     Edge 15, Type (0, 1), BuildingBlock: AJUNOK_clean_linker_0, # of connection points: 2
#     Edge 16, Type (0, 1), BuildingBlock: AJUNOK_clean_linker_0, # of connection points: 2
#     Edge 17, Type (0, 1), BuildingBlock: AJUNOK_clean_linker_0, # of connection points: 2
#     Edge 18, Type (0, 1), BuildingBlock: AJUNOK_clean_linker_0, # of connection points: 2
#     Edge 19, Type (0, 1), BuildingBlock: AJUNOK_clean_linker_0, # of connection points: 2
#     Edge 20, Type (0, 1), BuildingBlock: AJUNOK_clean_linker_0, # of connection points: 2
#     Edge 21, Type (0, 1), BuildingBlock: AJUNOK_clean_linker_0, # of connection points: 2
#     Edge 22, Type (0, 1), BuildingBlock: AJUNOK_clean_linker_0, # of connection points: 2
#     Edge 23, Type (0, 1), BuildingBlock: AJUNOK_clean_linker_0, # of connection points: 2
#     Edge 24, Type (0, 1), BuildingBlock: AJUNOK_clean_linker_0, # of connection points: 2
#     Edge 25, Type (0, 1), BuildingBlock: AJUNOK_clean_linker_0, # of connection points: 2
#     Edge 26, Type (0, 1), BuildingBlock: AJUNOK_clean_linker_0, # of connection points: 2
#     Edge 27, Type (0, 1), BuildingBlock: AJUNOK_clean_linker_0, # of connection points: 2
#     Edge 28, Type (0, 1), BuildingBlock: AJUNOK_clean_linker_0, # of connection points: 2
#     Edge 29, Type (0, 1), BuildingBlock: AJUNOK_clean_linker_0, # of connection points: 2
#     Edge 30, Type (0, 1), BuildingBlock: AJUNOK_clean_linker_0, # of connection points: 2
#     Edge 31, Type (0, 1), BuildingBlock: AJUNOK_clean_linker_0, # of connection points: 2
#     Edge 32, Type (0, 1), BuildingBlock: AJUNOK_clean_linker_0, # of connection points: 2
#     Edge 33, Type (0, 1), BuildingBlock: AJUNOK_clean_linker_0, # of connection points: 2
#     Edge 34, Type (0, 1), BuildingBlock: AJUNOK_clean_linker_0, # of connection points: 2
#     Edge 35, Type (0, 1), BuildingBlock: AJUNOK_clean_linker_0, # of connection points: 2
# Relax obj value: 0.008
# Max RMSD: 0.047
# Mean RMSD: 0.042
data_MOF--net-cml--node1-OJICUG_clean_sbu_0--node2-INOVEN_clean_linker_0--edge1-AJUNOK_clean_linker_0
_symmetry_space_group_name_H-M    P1
_symmetry_Int_Tables_number       1
_symmetry_cell_setting            triclinic
loop_
_symmetry_equiv_pos_as_xyz
'x, y, z'
_cell_length_a     29.986841
_cell_length_b     29.451905
_cell_length_c     26.613545
_cell_angle_alpha  89.059491
_cell_angle_beta   90.929919
_cell_angle_gamma 90.950945
loop_
_atom_site_label
_atom_site_type_symbol
_atom_site_fract_x
_atom_site_fract_y
_atom_site_fract_z
_atom_type_partial_charge
H0 H 0.28083 0.32701 0.06012 0.0
H1 H 0.37146 0.44018 0.04371 0.0
H2 H 0.2727 0.41345 0.92823 0.0
N3 N 0.23721 0.33852 0.9752 0.0
N4 N 0.21655 0.34499 0.93478 0.0
C5 C 0.2925 0.35644 0.0388 0.0
C6 C 0.32755 0.38325 0.05769 0.0
C7 C 0.27228 0.36731 -0.0075 0.0
C8 C 0.28793 0.40513 0.96432 0.0
C9 C 0.3239 0.4317 0.98271 0.0
C10 C 0.34299 0.42071 0.02968 0.0
H11 H 0.73538 0.66971 0.55928 0.0
H12 H 0.64409 0.55687 0.54343 0.0
H13 H 0.74163 0.5839 0.4298 0.0
N14 N 0.77983 0.65694 0.47653 0.0
N15 N 0.80033 0.64898 0.43734 0.0
C16 C 0.72314 0.64074 0.53825 0.0
C17 C 0.6879 0.61403 0.55684 0.0
C18 C 0.74318 0.6298 0.49288 0.0
C19 C 0.72688 0.59234 0.46527 0.0
C20 C 0.69145 0.56555 0.48388 0.0
C21 C 0.67231 0.57666 0.52959 0.0
H22 H 0.73676 0.33218 0.05583 0.0
H23 H 0.64799 0.44424 0.03995 0.0
H24 H 0.73836 0.41551 0.92091 0.0
N25 N 0.77651 0.34216 0.9697 0.0
N26 N 0.79494 0.34714 0.92822 0.0
C27 C 0.7244 0.36089 0.03406 0.0
C28 C 0.69112 0.38784 0.05368 0.0
C29 C 0.74214 0.3707 0.98661 0.0
C30 C 0.72547 0.4079 0.95794 0.0
C31 C 0.69193 0.43534 0.97773 0.0
C32 C 0.67512 0.42467 0.02538 0.0
H33 H 0.27681 0.559 0.41928 0.0
H34 H 0.36968 0.54006 0.54223 0.0
H35 H 0.27496 0.64742 0.54651 0.0
N36 N 0.23766 0.63018 0.45515 0.0
N37 N 0.22622 0.66786 0.47042 0.0
C38 C 0.28938 0.56833 0.45619 0.0
C39 C 0.32454 0.54444 0.47862 0.0
C40 C 0.27146 0.60542 0.48028 0.0
C41 C 0.28851 0.61853 0.5276 0.0
C42 C 0.32352 0.59454 0.55036 0.0
C43 C 0.34119 0.5574 0.52579 0.0
H44 H 0.78349 0.82235 0.05619 0.0
H45 H 0.87394 0.93614 0.04167 0.0
H46 H 0.77483 0.91153 0.92642 0.0
N47 N 0.73848 0.83649 0.97249 0.0
N48 N 0.71767 0.8446 0.93253 0.0
C49 C 0.79527 0.85203 0.03538 0.0
C50 C 0.83077 0.87822 0.05441 0.0
C51 C 0.7746 0.86399 -0.01036 0.0
C52 C 0.79009 0.90237 0.96226 0.0
C53 C 0.82554 0.92898 0.98147 0.0
C54 C 0.84553 0.91666 0.02751 0.0
H55 H 0.23791 0.16254 0.56325 0.0
H56 H 0.14486 0.05194 0.54231 0.0
H57 H 0.24668 0.0782 0.43311 0.0
N58 N 0.28287 0.15163 0.48101 0.0
N59 N 0.3036 0.1458 0.44147 0.0
C60 C 0.22585 0.13387 0.54159 0.0
C61 C 0.18937 0.10791 0.55842 0.0
C62 C 0.24684 0.12332 0.49669 0.0
C63 C 0.23096 0.08633 0.46812 0.0
C64 C 0.19424 0.06017 0.48481 0.0
C65 C 0.17408 0.07106 0.53008 0.0
H66 H 0.23899 0.83521 0.05497 0.0
H67 H 0.14805 0.9453 0.03834 0.0
H68 H 0.23963 0.91798 0.91983 0.0
N69 N 0.27771 0.8444 0.96923 0.0
N70 N 0.29663 0.848 0.92796 0.0
C71 C 0.22608 0.86362 0.03312 0.0
C72 C 0.19179 0.88945 0.05225 0.0
C73 C 0.24372 0.87349 0.98574 0.0
C74 C 0.22676 0.91039 0.95687 0.0
C75 C 0.1928 0.93742 0.97663 0.0
C76 C 0.17568 0.92628 0.02407 0.0
H77 H 0.78423 0.06473 0.41441 0.0
H78 H 0.87238 0.0435 0.54125 0.0
H79 H 0.77967 0.153 0.5416 0.0
N80 N 0.74355 0.13489 0.44941 0.0
N81 N 0.72804 0.17033 0.4662 0.0
C82 C 0.79595 0.07394 0.4517 0.0
C83 C 0.82994 0.04937 0.47543 0.0
C84 C 0.77755 0.11101 0.47525 0.0
C85 C 0.79334 0.12392 0.52317 0.0
C86 C 0.82691 0.09893 0.54745 0.0
C87 C 0.84502 0.06166 0.52345 0.0
Sc88 Sc 0.01764 0.78898 0.28806 0.0
Sc89 Sc 0.01379 0.90859 0.2927 0.0
Sc90 Sc 0.0138 0.8444 0.40451 0.0
O91 O 0.0151 0.84724 0.32833 0.0
C92 C 0.94986 0.76078 0.37512 0.0
C93 C 0.94862 0.84868 0.224 0.0
C94 C 0.94584 0.92345 0.38161 0.0
C95 C 0.08178 0.85496 0.22515 0.0
C96 C 0.08424 0.76908 0.37993 0.0
C97 C 0.07992 0.92914 0.38442 0.0
O98 O 0.96668 0.75562 0.33212 0.0
O99 O 0.96271 0.88616 0.24166 0.0
O100 O 0.96118 0.89174 0.40912 0.0
O101 O 0.0684 0.81553 0.23867 0.0
O102 O 0.06611 0.797 0.40853 0.0
O103 O 0.06508 0.93708 0.34029 0.0
O104 O 0.07043 0.76157 0.33531 0.0
O105 O 0.06508 0.891 0.24172 0.0
O106 O 0.06421 0.89731 0.41222 0.0
O107 O 0.96537 0.8106 0.23643 0.0
O108 O 0.9635 0.79138 0.4051 0.0
O109 O 0.96196 0.93399 0.33907 0.0
Sc110 Sc 0.00327 0.20167 0.78076 0.0
Sc111 Sc 0.003 0.08212 0.79302 0.0
Sc112 Sc 0.00342 0.14871 0.90104 0.0
O113 O 0.00318 0.14427 0.82493 0.0
C114 C 0.07123 0.22864 0.86937 0.0
C115 C 0.06924 0.13837 0.72169 0.0
C116 C 0.07122 0.06651 0.88436 0.0
C117 C 0.93524 0.13636 0.72173 0.0
C118 C 0.93677 0.22889 0.86805 0.0
C119 C 0.93641 0.06475 0.88391 0.0
O120 O 0.05571 0.23379 0.82489 0.0
O121 O 0.05364 0.10176 0.74076 0.0
O122 O 0.05566 0.09827 0.91069 0.0
O123 O 0.95092 0.17576 0.73141 0.0
O124 O 0.95169 0.19983 0.89992 0.0
O125 O 0.95217 0.0549 0.84152 0.0
O126 O 0.95229 0.23302 0.824 0.0
O127 O 0.95101 0.10031 0.74116 0.0
O128 O 0.95148 0.09776 0.90966 0.0
O129 O 0.05442 0.1772 0.73227 0.0
O130 O 0.05527 0.19978 0.90049 0.0
O131 O 0.05529 0.05696 0.84128 0.0
Sc132 Sc 0.5146 0.29151 0.28781 0.0
Sc133 Sc 0.51327 0.41133 0.29494 0.0
Sc134 Sc 0.51447 0.34542 0.40533 0.0
O135 O 0.51418 0.34932 0.32923 0.0
C136 C 0.44878 0.26289 0.37655 0.0
C137 C 0.446 0.35352 0.22625 0.0
C138 C 0.44557 0.42416 0.38448 0.0
C139 C 0.58026 0.3576 0.22627 0.0
C140 C 0.58307 0.26938 0.37774 0.0
C141 C 0.58004 0.43063 0.38644 0.0
O142 O 0.4635 0.25813 0.3324 0.0
O143 O 0.4618 0.39035 0.2437 0.0
O144 O 0.46158 0.39231 0.41134 0.0
O145 O 0.56544 0.31814 0.238 0.0
O146 O 0.56698 0.29814 0.40699 0.0
O147 O 0.56491 0.43947 0.3426 0.0
O148 O 0.5675 0.2624 0.33368 0.0
O149 O 0.5644 0.39365 0.24384 0.0
O150 O 0.56454 0.39827 0.41346 0.0
O151 O 0.46187 0.3148 0.23764 0.0
O152 O 0.46466 0.29237 0.40645 0.0
O153 O 0.46144 0.43574 0.34209 0.0
Sc154 Sc 0.50268 0.70158 0.78076 0.0
Sc155 Sc 0.50497 0.58214 0.79232 0.0
Sc156 Sc 0.5051 0.64802 0.90081 0.0
O157 O 0.50421 0.64403 0.82465 0.0
C158 C 0.5706 0.72988 0.86893 0.0
C159 C 0.57076 0.63999 0.72239 0.0
C160 C 0.57311 0.56627 0.88382 0.0
C161 C 0.4366 0.63544 0.72072 0.0
C162 C 0.43669 0.72709 0.86884 0.0
C163 C 0.43845 0.56364 0.88283 0.0
O164 O 0.55404 0.73457 0.82494 0.0
O165 O 0.55569 0.60301 0.74102 0.0
O166 O 0.55759 0.59797 0.9102 0.0
O167 O 0.45107 0.67499 0.73137 0.0
O168 O 0.45317 0.69857 0.90024 0.0
O169 O 0.4543 0.55454 0.84032 0.0
O170 O 0.45097 0.73168 0.82425 0.0
O171 O 0.45301 0.5996 0.73997 0.0
O172 O 0.45333 0.59642 0.90924 0.0
O173 O 0.55461 0.67847 0.73221 0.0
O174 O 0.5566 0.6999 0.90013 0.0
O175 O 0.55722 0.55691 0.84068 0.0
C176 C 0.15493 0.32697 0.87745 0.0
C177 C 0.18188 0.31465 0.91884 0.0
C178 C 0.11948 0.29886 0.86119 0.0
C179 C 0.10973 0.2573 0.88594 0.0
H180 H 0.16107 0.35898 0.85794 0.0
H181 H 0.09916 0.31017 0.82952 0.0
S182 S 0.17333 0.20716 -0.00635 0.0
N183 N 0.19841 0.25645 0.98241 0.0
N184 N 0.13213 0.20379 0.952 0.0
C185 C 0.13735 0.24398 0.92671 0.0
C186 C 0.17338 0.27254 0.94316 0.0
C187 C 0.85311 0.71297 0.45121 0.0
C188 C 0.83732 0.67639 0.42216 0.0
C189 C 0.88965 0.73961 0.43581 0.0
C190 C 0.91188 0.73087 0.39076 0.0
H191 H 0.8372 0.72122 0.48606 0.0
H192 H 0.90024 0.76752 0.45943 0.0
S193 S 0.88295 0.63818 0.3021 0.0
N194 N 0.8461 0.6323 0.3473 0.0
N195 N 0.91493 0.6821 0.31764 0.0
C196 C 0.89626 0.69409 0.36159 0.0
C197 C 0.859 0.667 0.37752 0.0
C198 C 0.84537 0.28242 0.94519 0.0
C199 C 0.82956 0.31767 0.91344 0.0
C200 C 0.87979 0.254 0.93019 0.0
C201 C 0.89989 0.25948 0.88285 0.0
H202 H 0.83121 0.2767 0.98197 0.0
H203 H 0.89064 0.22751 0.95608 0.0
S204 S 0.86981 0.34718 0.78629 0.0
N205 N 0.83605 0.35658 0.83326 0.0
N206 N 0.90053 0.30368 0.8044 0.0
C207 C 0.88402 0.29472 0.85085 0.0
C208 C 0.84902 0.32358 0.86636 0.0
C209 C 0.16784 0.67609 0.40462 0.0
C210 C 0.1925 0.69318 0.44588 0.0
C211 C 0.13353 0.70143 0.38225 0.0
C212 C 0.12286 0.74433 0.40064 0.0
H213 H 0.17455 0.64282 0.39006 0.0
H214 H 0.11452 0.68682 0.35137 0.0
S215 S 0.18102 0.80475 0.50508 0.0
N216 N 0.20623 0.75547 0.50222 0.0
N217 N 0.14225 0.80389 0.46033 0.0
C218 C 0.14853 0.7621 0.44086 0.0
C219 C 0.1832 0.73622 0.46343 0.0
C220 C 0.66744 0.77843 0.94575 0.0
C221 C 0.68144 0.81633 0.9168 0.0
C222 C 0.63156 0.75095 0.92993 0.0
C223 C 0.60829 0.76015 0.88457 0.0
H224 H 0.68421 0.76981 0.98087 0.0
H225 H 0.62229 0.7221 0.95351 0.0
S226 S 0.6324 0.85616 0.79601 0.0
N227 N 0.66991 0.86207 0.84166 0.0
N228 N 0.60221 0.81072 0.81124 0.0
C229 C 0.62217 0.79816 0.85541 0.0
C230 C 0.65876 0.8261 0.87177 0.0
C231 C 0.36335 0.16566 0.38378 0.0
C232 C 0.33915 0.17562 0.42676 0.0
C233 C 0.39866 0.19395 0.36761 0.0
C234 C 0.41113 0.23338 0.39404 0.0
H235 H 0.35488 0.13557 0.36256 0.0
H236 H 0.41645 0.18459 0.33433 0.0
S237 S 0.35658 0.27597 0.50825 0.0
N238 N 0.32908 0.22863 0.49493 0.0
N239 N 0.39495 0.28165 0.46481 0.0
C240 C 0.38668 0.24398 0.43704 0.0
C241 C 0.3508 0.21521 0.45339 0.0
C242 C 0.35302 0.82377 0.86925 0.0
C243 C 0.33043 0.81684 0.91452 0.0
C244 C 0.38692 0.79454 0.85465 0.0
C245 C 0.39978 0.75696 0.88488 0.0
H246 H 0.3445 0.85235 0.84503 0.0
H247 H 0.40345 0.80186 0.81949 0.0
S248 S 0.34933 0.72216 0.00652 0.0
N249 N 0.3223 0.7683 -0.01083 0.0
N250 N 0.38564 0.71371 0.96186 0.0
C251 C 0.37692 0.74926 0.93017 0.0
C252 C 0.34237 0.779 0.945 0.0
C253 C 0.67916 0.23417 0.46242 0.0
C254 C 0.69348 0.19416 0.44101 0.0
C255 C 0.64407 0.25851 0.44097 0.0
C256 C 0.62172 0.24356 0.39706 0.0
H257 H 0.6951 0.24645 0.49653 0.0
H258 H 0.63428 0.28923 0.45942 0.0
S259 S 0.64776 0.14073 0.32506 0.0
N260 N 0.68395 0.14056 0.37247 0.0
N261 N 0.61745 0.18641 0.33203 0.0
C262 C 0.63641 0.2038 0.37442 0.0
C263 C 0.67239 0.17893 0.39643 0.0
C264 C 0.35697 0.50995 0.97505 0.0
C265 C 0.34498 0.46863 0.95227 0.0
C266 C 0.38545 0.54147 0.95133 0.0
C267 C 0.40315 0.53295 0.90377 0.0
H268 H 0.3458 0.51708 0.01259 0.0
H269 H 0.39498 0.57188 0.97145 0.0
S270 S 0.37765 0.43176 0.82572 0.0
N271 N 0.34997 0.42229 0.87802 0.0
N272 N 0.40259 0.4817 0.83257 0.0
C273 C 0.38876 0.49307 0.87905 0.0
C274 C 0.35987 0.46091 0.90346 0.0
C275 C 0.65278 0.53581 0.40722 0.0
C276 C 0.67159 0.52753 0.45505 0.0
C277 C 0.62497 0.50329 0.38412 0.0
C278 C 0.61492 0.46135 0.40814 0.0
H279 H 0.65733 0.56864 0.3889 0.0
H280 H 0.60955 0.51215 0.34829 0.0
S281 S 0.66277 0.42081 0.53021 0.0
N282 N 0.68325 0.47284 0.52299 0.0
N283 N 0.63128 0.41143 0.47986 0.0
C284 C 0.63651 0.45152 0.4544 0.0
C285 C 0.66474 0.48468 0.47778 0.0
C286 C 0.64931 0.46452 0.90247 0.0
C287 C 0.67067 0.47315 0.94874 0.0
C288 C 0.61939 0.49576 0.88082 0.0
C289 C 0.60939 0.53685 0.90469 0.0
H290 H 0.65349 0.43218 0.88446 0.0
H291 H 0.60241 0.48642 0.84619 0.0
S292 S 0.66272 0.57849 0.02252 0.0
N293 N 0.68442 0.52799 0.01463 0.0
N294 N 0.62812 0.5865 0.97441 0.0
C295 C 0.63316 0.5472 0.94922 0.0
C296 C 0.66379 0.51547 0.97104 0.0
C297 C 0.36639 0.52075 0.40398 0.0
C298 C 0.3479 0.50954 0.45077 0.0
C299 C 0.39632 0.49178 0.38144 0.0
C300 C 0.40879 0.45067 0.40507 0.0
H301 H 0.35974 0.55332 0.3861 0.0
H302 H 0.41134 0.50284 0.34647 0.0
S303 S 0.36305 0.40298 0.52421 0.0
N304 N 0.33925 0.45284 0.51713 0.0
N305 N 0.39533 0.39777 0.47505 0.0
C306 C 0.38765 0.43765 0.45019 0.0
C307 C 0.35728 0.46728 0.47301 0.0
C308 C 0.86243 0.96034 0.90481 0.0
C309 C 0.84502 0.9676 0.95258 0.0
C310 C 0.89008 0.99305 0.88169 0.0
C311 C 0.90141 0.03421 0.90559 0.0
H312 H 0.85697 0.92805 0.88658 0.0
H313 H 0.90437 0.98487 0.84591 0.0
S314 S 0.85729 0.07224 0.02736 0.0
N315 N 0.83583 0.02073 0.02024 0.0
N316 N 0.88763 0.08248 0.97709 0.0
C317 C 0.88112 0.04317 0.95172 0.0
C318 C 0.85301 0.0098 0.97513 0.0
C319 C 0.16215 0.98179 0.47742 0.0
C320 C 0.17359 0.02355 0.45425 0.0
C321 C 0.13361 0.95053 0.45356 0.0
C322 C 0.11523 0.9598 0.40551 0.0
H323 H 0.17371 0.97418 0.51537 0.0
H324 H 0.12459 0.91967 0.47392 0.0
S325 S 0.13914 0.06249 0.32654 0.0
N326 N 0.16756 0.07116 0.37923 0.0
N327 N 0.11448 0.01232 0.3336 0.0
C328 C 0.12907 0.00017 0.38047 0.0
C329 C 0.15814 0.03203 0.40499 0.0
C330 C 0.14926 0.96604 0.90185 0.0
C331 C 0.17103 0.97499 0.94778 0.0
C332 C 0.11849 -0.00329 0.88078 0.0
C333 C 0.10798 0.03754 0.90493 0.0
H334 H 0.15379 0.93382 0.8837 0.0
H335 H 0.10129 0.98713 0.84636 0.0
S336 S 0.16161 0.07969 0.02234 0.0
N337 N 0.18433 0.02979 0.0138 0.0
N338 N 0.12638 0.08721 0.97472 0.0
C339 C 0.13203 0.0482 0.94918 0.0
C340 C 0.16356 0.01707 0.97037 0.0
C341 C 0.87276 0.02459 0.40203 0.0
C342 C 0.85305 0.01385 0.4483 0.0
C343 C 0.90094 0.99405 0.37924 0.0
C344 C 0.91035 0.95173 0.40204 0.0
H345 H 0.86822 0.05776 0.38464 0.0
H346 H 0.91706 0.00471 0.34478 0.0
S347 S 0.86032 0.90508 0.51937 0.0
N348 N 0.84008 0.95669 0.51331 0.0
N349 N 0.89273 0.89857 0.47053 0.0
C350 C 0.88807 0.93943 0.44666 0.0
C351 C 0.85956 0.97073 0.46985 0.0
C352 C 0.37502 0.33145 0.10984 0.0
C353 C 0.35032 0.37149 0.10546 0.0
C354 C 0.40414 0.32426 0.1509 0.0
C355 C 0.40937 0.35702 0.18858 0.0
H356 H 0.37379 0.30689 0.07996 0.0
H357 H 0.4245 0.29422 0.15153 0.0
S358 S 0.34572 0.46366 0.19799 0.0
N359 N 0.32848 0.44136 0.14444 0.0
N360 N 0.38248 0.42793 0.22206 0.0
C361 C 0.38199 0.39547 0.1863 0.0
C362 C 0.35266 0.40272 0.14453 0.0
C363 C 0.64088 0.66474 0.60743 0.0
C364 C 0.66574 0.62493 0.60408 0.0
C365 C 0.61191 0.67082 0.64759 0.0
C366 C 0.60693 0.63715 0.68539 0.0
H367 H 0.64183 0.68999 0.57738 0.0
H368 H 0.5915 0.70083 0.64742 0.0
S369 S 0.67094 0.53043 0.69733 0.0
N370 N 0.68794 0.55416 0.64422 0.0
N371 N 0.63416 0.56545 0.72005 0.0
C372 C 0.63441 0.59884 0.68415 0.0
C373 C 0.66365 0.59275 0.64334 0.0
C374 C 0.64812 0.33529 0.11027 0.0
C375 C 0.67065 0.37698 0.10268 0.0
C376 C 0.62081 0.3281 0.15211 0.0
C377 C 0.61514 0.36248 0.18756 0.0
H378 H 0.64949 0.30912 0.08222 0.0
H379 H 0.60215 0.29639 0.15507 0.0
S380 S 0.67365 0.47471 0.18859 0.0
N381 N 0.6903 0.45072 0.13666 0.0
N382 N 0.63945 0.43747 0.21546 0.0
C383 C 0.6404 0.403 0.18214 0.0
C384 C 0.66802 0.4102 0.13963 0.0
C385 C 0.35108 0.57743 0.63697 0.0
C386 C 0.34454 0.60938 0.598 0.0
C387 C 0.37872 0.58741 0.67818 0.0
C388 C 0.40116 0.62968 0.68183 0.0
H389 H 0.33629 0.5437 0.63444 0.0
H390 H 0.384 0.56094 0.70631 0.0
S391 S 0.39137 0.72654 0.59146 0.0
N392 N 0.35954 0.68604 0.56694 0.0
N393 N 0.41167 0.70518 0.64468 0.0
C394 C 0.39236 0.66311 0.6447 0.0
C395 C 0.36403 0.65284 0.60264 0.0
C396 C 0.85881 0.89799 0.13952 0.0
C397 C 0.854 0.86561 0.10171 0.0
C398 C 0.88748 0.89073 0.18058 0.0
C399 C 0.91277 0.85093 0.18518 0.0
H400 H 0.84164 0.93002 0.13623 0.0
H401 H 0.89114 0.91749 0.20786 0.0
S402 S 0.90877 0.75392 0.09779 0.0
N403 N 0.87387 0.79101 0.07262 0.0
N404 N 0.92821 0.77706 0.15003 0.0
C405 C 0.90601 0.81693 0.14912 0.0
C406 C 0.87653 0.82438 0.10724 0.0
C407 C 0.15648 0.08572 0.64058 0.0
C408 C 0.16509 0.11966 0.60423 0.0
C409 C 0.12709 0.09303 0.67971 0.0
C410 C 0.10487 0.13456 0.68397 0.0
H411 H 0.1714 0.05262 0.63766 0.0
H412 H 0.12071 0.06522 0.7059 0.0
S413 S 0.11875 0.23555 0.59986 0.0
N414 N 0.15147 0.1971 0.57606 0.0
N415 N 0.0961 0.21126 0.64989 0.0
C416 C 0.11517 0.16974 0.64931 0.0
C417 C 0.1453 0.16218 0.60936 0.0
C418 C 0.16382 0.91086 0.13609 0.0
C419 C 0.17044 0.87712 0.10042 0.0
C420 C 0.13714 0.90244 0.17789 0.0
C421 C 0.11586 0.85994 0.18561 0.0
H422 H 0.17809 0.9446 0.13061 0.0
H423 H 0.13188 0.9301 0.20336 0.0
S424 S 0.12545 0.75913 0.10464 0.0
N425 N 0.15599 0.7989 0.07661 0.0
N426 N 0.10594 0.78267 0.15552 0.0
C427 C 0.12443 0.82501 0.15169 0.0
C428 C 0.15167 0.83371 0.10899 0.0
C429 C 0.86898 0.15427 0.60089 0.0
C430 C 0.84577 0.11266 0.59649 0.0
C431 C 0.89561 0.16341 0.6435 0.0
C432 C 0.8998 0.13107 0.6828 0.0
H433 H 0.86888 0.17857 0.56988 0.0
H434 H 0.91523 0.19462 0.64405 0.0
S435 S 0.83854 0.02066 0.6926 0.0
N436 N 0.82361 0.04169 0.63707 0.0
N437 N 0.87294 0.05874 0.71753 0.0
C438 C 0.87346 0.09106 0.68045 0.0
C439 C 0.84665 0.08184 0.63712 0.0
loop_
_geom_bond_atom_site_label_1
_geom_bond_atom_site_label_2
_geom_bond_distance
_geom_bond_site_symmetry_2
_ccdc_geom_bond_type
H0 C5 0.929 . S
H1 C10 0.931 . S
H2 C8 0.930 . S
N3 N4 1.234 . S
N3 C7 1.453 1_556 S
N4 N3 1.234 . S
C5 H0 0.929 . S
C5 C6 1.373 . S
C5 C7 1.368 . S
C6 C5 1.373 . S
C6 C10 1.397 . S
C7 N3 1.453 1_554 S
C7 C5 1.368 . S
C7 C8 1.373 1_554 S
C8 H2 0.930 . S
C8 C7 1.373 1_556 S
C8 C9 1.371 . S
C9 C8 1.371 . S
C9 C10 1.383 1_556 S
C10 H1 0.931 . S
C10 C6 1.397 . S
C10 C9 1.383 1_554 S
H11 C16 0.929 . S
H12 C21 0.931 . S
H13 C19 0.930 . S
N14 N15 1.234 . S
N14 C18 1.453 . S
N15 N14 1.234 . S
C16 H11 0.929 . S
C16 C17 1.373 . S
C16 C18 1.368 . S
C17 C16 1.373 . S
C17 C21 1.397 . S
C18 N14 1.453 . S
C18 C16 1.368 . S
C18 C19 1.373 . S
C19 H13 0.930 . S
C19 C18 1.373 . S
C19 C20 1.371 . S
C20 C19 1.371 . S
C20 C21 1.383 . S
C21 H12 0.931 . S
C21 C17 1.397 . S
C21 C20 1.383 . S
H22 C27 0.929 . S
H23 C32 0.931 . S
H24 C30 0.930 . S
N25 N26 1.234 1_554 S
N25 C29 1.453 . S
N26 N25 1.234 1_556 S
C27 H22 0.929 . S
C27 C28 1.373 . S
C27 C29 1.368 . S
C28 C27 1.373 . S
C28 C32 1.397 . S
C29 N25 1.453 . S
C29 C27 1.368 . S
C29 C30 1.373 1_554 S
C30 H24 0.930 . S
C30 C29 1.373 1_556 S
C30 C31 1.371 . S
C31 C30 1.371 . S
C31 C32 1.383 1_556 S
C32 H23 0.931 . S
C32 C28 1.397 . S
C32 C31 1.383 1_554 S
H33 C38 0.929 . S
H34 C43 0.931 . S
H35 C41 0.930 . S
N36 N37 1.234 . S
N36 C40 1.453 . S
N37 N36 1.234 . S
C38 H33 0.929 . S
C38 C39 1.373 . S
C38 C40 1.368 . S
C39 C38 1.373 . S
C39 C43 1.397 . S
C40 N36 1.453 . S
C40 C38 1.368 . S
C40 C41 1.373 . S
C41 H35 0.930 . S
C41 C40 1.373 . S
C41 C42 1.371 . S
C42 C41 1.371 . S
C42 C43 1.383 . S
C43 H34 0.931 . S
C43 C39 1.397 . S
C43 C42 1.383 . S
H44 C49 0.929 . S
H45 C54 0.931 . S
H46 C52 0.930 . S
N47 N48 1.234 . S
N47 C51 1.453 1_556 S
N48 N47 1.234 . S
C49 H44 0.929 . S
C49 C50 1.373 . S
C49 C51 1.368 . S
C50 C49 1.373 . S
C50 C54 1.397 . S
C51 N47 1.453 1_554 S
C51 C49 1.368 . S
C51 C52 1.373 1_554 S
C52 H46 0.930 . S
C52 C51 1.373 1_556 S
C52 C53 1.371 . S
C53 C52 1.371 . S
C53 C54 1.383 1_556 S
C54 H45 0.931 . S
C54 C50 1.397 . S
C54 C53 1.383 1_554 S
H55 C60 0.929 . S
H56 C65 0.931 . S
H57 C63 0.930 . S
N58 N59 1.234 . S
N58 C62 1.453 . S
N59 N58 1.234 . S
C60 H55 0.929 . S
C60 C61 1.373 . S
C60 C62 1.368 . S
C61 C60 1.373 . S
C61 C65 1.397 . S
C62 N58 1.453 . S
C62 C60 1.368 . S
C62 C63 1.373 . S
C63 H57 0.930 . S
C63 C62 1.373 . S
C63 C64 1.371 . S
C64 C63 1.371 . S
C64 C65 1.383 . S
C65 H56 0.931 . S
C65 C61 1.397 . S
C65 C64 1.383 . S
H66 C71 0.929 . S
H67 C76 0.931 . S
H68 C74 0.930 . S
N69 N70 1.234 1_554 S
N69 C73 1.453 . S
N70 N69 1.234 1_556 S
C71 H66 0.929 . S
C71 C72 1.373 . S
C71 C73 1.368 . S
C72 C71 1.373 . S
C72 C76 1.397 . S
C73 N69 1.453 . S
C73 C71 1.368 . S
C73 C74 1.373 1_554 S
C74 H68 0.930 . S
C74 C73 1.373 1_556 S
C74 C75 1.371 . S
C75 C74 1.371 . S
C75 C76 1.383 1_556 S
C76 H67 0.931 . S
C76 C72 1.397 . S
C76 C75 1.383 1_554 S
H77 C82 0.929 . S
H78 C87 0.931 . S
H79 C85 0.930 . S
N80 N81 1.234 . S
N80 C84 1.453 . S
N81 N80 1.234 . S
C82 H77 0.929 . S
C82 C83 1.373 . S
C82 C84 1.368 . S
C83 C82 1.373 . S
C83 C87 1.397 . S
C84 N80 1.453 . S
C84 C82 1.368 . S
C84 C85 1.373 . S
C85 H79 0.930 . S
C85 C84 1.373 . S
C85 C86 1.371 . S
C86 C85 1.371 . S
C86 C87 1.383 . S
C87 H78 0.931 . S
C87 C83 1.397 . S
C87 C86 1.383 . S
Sc88 O91 2.025 . S
Sc88 O98 2.105 1_455 S
Sc88 O101 2.105 . S
Sc88 O104 2.105 . S
Sc88 O107 2.105 1_455 S
Sc89 O91 2.025 . S
Sc89 O99 2.105 1_455 S
Sc89 O103 2.105 . S
Sc89 O105 2.105 . S
Sc89 O109 2.105 1_455 S
Sc90 O91 2.025 . S
Sc90 O100 2.105 1_455 S
Sc90 O102 2.105 . S
Sc90 O106 2.105 . S
Sc90 O108 2.105 1_455 S
O91 Sc88 2.025 . S
O91 Sc89 2.025 . S
O91 Sc90 2.025 . S
C92 O98 1.268 . S
C92 O108 1.268 . S
C93 O99 1.268 . S
C93 O107 1.268 . S
C94 O100 1.268 . S
C94 O109 1.268 . S
C95 O101 1.268 . S
C95 O105 1.268 . S
C96 O102 1.268 . S
C96 O104 1.268 . S
C97 O103 1.268 . S
C97 O106 1.268 . S
O98 Sc88 2.105 1_655 S
O98 C92 1.268 . S
O99 Sc89 2.105 1_655 S
O99 C93 1.268 . S
O100 Sc90 2.105 1_655 S
O100 C94 1.268 . S
O101 Sc88 2.105 . S
O101 C95 1.268 . S
O102 Sc90 2.105 . S
O102 C96 1.268 . S
O103 Sc89 2.105 . S
O103 C97 1.268 . S
O104 Sc88 2.105 . S
O104 C96 1.268 . S
O105 Sc89 2.105 . S
O105 C95 1.268 . S
O106 Sc90 2.105 . S
O106 C97 1.268 . S
O107 Sc88 2.105 1_655 S
O107 C93 1.268 . S
O108 Sc90 2.105 1_655 S
O108 C92 1.268 . S
O109 Sc89 2.105 1_655 S
O109 C94 1.268 . S
Sc110 O113 2.025 . S
Sc110 O120 2.105 . S
Sc110 O123 2.105 1_455 S
Sc110 O126 2.105 1_455 S
Sc110 O129 2.105 . S
Sc111 O113 2.025 . S
Sc111 O121 2.105 . S
Sc111 O125 2.105 1_455 S
Sc111 O127 2.105 1_455 S
Sc111 O131 2.105 . S
Sc112 O113 2.025 . S
Sc112 O122 2.105 . S
Sc112 O124 2.105 1_455 S
Sc112 O128 2.105 1_455 S
Sc112 O130 2.105 . S
O113 Sc110 2.025 . S
O113 Sc111 2.025 . S
O113 Sc112 2.025 . S
C114 O120 1.268 . S
C114 O130 1.268 . S
C115 O121 1.268 . S
C115 O129 1.268 . S
C116 O122 1.268 . S
C116 O131 1.268 . S
C117 O123 1.268 . S
C117 O127 1.268 . S
C118 O124 1.268 . S
C118 O126 1.268 . S
C119 O125 1.268 . S
C119 O128 1.268 . S
O120 Sc110 2.105 . S
O120 C114 1.268 . S
O121 Sc111 2.105 . S
O121 C115 1.268 . S
O122 Sc112 2.105 . S
O122 C116 1.268 . S
O123 Sc110 2.105 1_655 S
O123 C117 1.268 . S
O124 Sc112 2.105 1_655 S
O124 C118 1.268 . S
O125 Sc111 2.105 1_655 S
O125 C119 1.268 . S
O126 Sc110 2.105 1_655 S
O126 C118 1.268 . S
O127 Sc111 2.105 1_655 S
O127 C117 1.268 . S
O128 Sc112 2.105 1_655 S
O128 C119 1.268 . S
O129 Sc110 2.105 . S
O129 C115 1.268 . S
O130 Sc112 2.105 . S
O130 C114 1.268 . S
O131 Sc111 2.105 . S
O131 C116 1.268 . S
Sc132 O135 2.025 . S
Sc132 O142 2.105 . S
Sc132 O145 2.105 . S
Sc132 O148 2.105 . S
Sc132 O151 2.105 . S
Sc133 O135 2.025 . S
Sc133 O143 2.105 . S
Sc133 O147 2.105 . S
Sc133 O149 2.105 . S
Sc133 O153 2.105 . S
Sc134 O135 2.025 . S
Sc134 O144 2.105 . S
Sc134 O146 2.105 . S
Sc134 O150 2.105 . S
Sc134 O152 2.105 . S
O135 Sc132 2.025 . S
O135 Sc133 2.025 . S
O135 Sc134 2.025 . S
C136 O142 1.268 . S
C136 O152 1.268 . S
C137 O143 1.268 . S
C137 O151 1.268 . S
C138 O144 1.268 . S
C138 O153 1.268 . S
C139 O145 1.268 . S
C139 O149 1.268 . S
C140 O146 1.268 . S
C140 O148 1.268 . S
C141 O147 1.268 . S
C141 O150 1.268 . S
O142 Sc132 2.105 . S
O142 C136 1.268 . S
O143 Sc133 2.105 . S
O143 C137 1.268 . S
O144 Sc134 2.105 . S
O144 C138 1.268 . S
O145 Sc132 2.105 . S
O145 C139 1.268 . S
O146 Sc134 2.105 . S
O146 C140 1.268 . S
O147 Sc133 2.105 . S
O147 C141 1.268 . S
O148 Sc132 2.105 . S
O148 C140 1.268 . S
O149 Sc133 2.105 . S
O149 C139 1.268 . S
O150 Sc134 2.105 . S
O150 C141 1.268 . S
O151 Sc132 2.105 . S
O151 C137 1.268 . S
O152 Sc134 2.105 . S
O152 C136 1.268 . S
O153 Sc133 2.105 . S
O153 C138 1.268 . S
Sc154 O157 2.025 . S
Sc154 O164 2.105 . S
Sc154 O167 2.105 . S
Sc154 O170 2.105 . S
Sc154 O173 2.105 . S
Sc155 O157 2.025 . S
Sc155 O165 2.105 . S
Sc155 O169 2.105 . S
Sc155 O171 2.105 . S
Sc155 O175 2.105 . S
Sc156 O157 2.025 . S
Sc156 O166 2.105 . S
Sc156 O168 2.105 . S
Sc156 O172 2.105 . S
Sc156 O174 2.105 . S
O157 Sc154 2.025 . S
O157 Sc155 2.025 . S
O157 Sc156 2.025 . S
C158 O164 1.268 . S
C158 O174 1.268 . S
C159 O165 1.268 . S
C159 O173 1.268 . S
C160 O166 1.268 . S
C160 O175 1.268 . S
C161 O167 1.268 . S
C161 O171 1.268 . S
C162 O168 1.268 . S
C162 O170 1.268 . S
C163 O169 1.268 . S
C163 O172 1.268 . S
O164 Sc154 2.105 . S
O164 C158 1.268 . S
O165 Sc155 2.105 . S
O165 C159 1.268 . S
O166 Sc156 2.105 . S
O166 C160 1.268 . S
O167 Sc154 2.105 . S
O167 C161 1.268 . S
O168 Sc156 2.105 . S
O168 C162 1.268 . S
O169 Sc155 2.105 . S
O169 C163 1.268 . S
O170 Sc154 2.105 . S
O170 C162 1.268 . S
O171 Sc155 2.105 . S
O171 C161 1.268 . S
O172 Sc156 2.105 . S
O172 C163 1.268 . S
O173 Sc154 2.105 . S
O173 C159 1.268 . S
O174 Sc156 2.105 . S
O174 C158 1.268 . S
O175 Sc155 2.105 . S
O175 C160 1.268 . S
C176 C177 1.369 . S
C176 C178 1.419 . S
C176 H180 0.930 . S
C177 C176 1.369 . S
C177 C186 1.429 . S
C178 C176 1.419 . S
C178 C179 1.363 . S
C178 H181 0.929 . S
C179 C178 1.363 . S
C179 C185 1.428 . S
H180 C176 0.930 . S
H181 C178 0.929 . S
S182 N183 1.613 . S
S182 N184 1.610 . S
N183 S182 1.613 . S
N183 C186 1.350 . S
N184 S182 1.610 . S
N184 C185 1.351 . S
C185 C179 1.428 . S
C185 N184 1.351 . S
C185 C186 1.434 . S
C186 C177 1.429 . S
C186 N183 1.350 . S
C186 C185 1.434 . S
C187 C188 1.369 . S
C187 C189 1.419 . S
C187 H191 0.930 . S
C188 C187 1.369 . S
C188 C197 1.429 . S
C189 C187 1.419 . S
C189 C190 1.363 . S
C189 H192 0.929 . S
C190 C189 1.363 . S
C190 C196 1.428 . S
H191 C187 0.930 . S
H192 C189 0.929 . S
S193 N194 1.613 . S
S193 N195 1.610 . S
N194 S193 1.613 . S
N194 C197 1.350 . S
N195 S193 1.610 . S
N195 C196 1.351 . S
C196 C190 1.428 . S
C196 N195 1.351 . S
C196 C197 1.434 . S
C197 C188 1.429 . S
C197 N194 1.350 . S
C197 C196 1.434 . S
C198 C199 1.369 . S
C198 C200 1.419 . S
C198 H202 0.930 . S
C199 C198 1.369 . S
C199 C208 1.429 . S
C200 C198 1.419 . S
C200 C201 1.363 . S
C200 H203 0.929 . S
C201 C200 1.363 . S
C201 C207 1.428 . S
H202 C198 0.930 . S
H203 C200 0.929 . S
S204 N205 1.613 . S
S204 N206 1.610 . S
N205 S204 1.613 . S
N205 C208 1.350 . S
N206 S204 1.610 . S
N206 C207 1.351 . S
C207 C201 1.428 . S
C207 N206 1.351 . S
C207 C208 1.434 . S
C208 C199 1.429 . S
C208 N205 1.350 . S
C208 C207 1.434 . S
C209 C210 1.369 . S
C209 C211 1.419 . S
C209 H213 0.930 . S
C210 C209 1.369 . S
C210 C219 1.429 . S
C211 C209 1.419 . S
C211 C212 1.363 . S
C211 H214 0.929 . S
C212 C211 1.363 . S
C212 C218 1.428 . S
H213 C209 0.930 . S
H214 C211 0.929 . S
S215 N216 1.613 . S
S215 N217 1.610 . S
N216 S215 1.613 . S
N216 C219 1.350 . S
N217 S215 1.610 . S
N217 C218 1.351 . S
C218 C212 1.428 . S
C218 N217 1.351 . S
C218 C219 1.434 . S
C219 C210 1.429 . S
C219 N216 1.350 . S
C219 C218 1.434 . S
C220 C221 1.369 . S
C220 C222 1.419 . S
C220 H224 0.930 . S
C221 C220 1.369 . S
C221 C230 1.429 . S
C222 C220 1.419 . S
C222 C223 1.363 . S
C222 H225 0.929 . S
C223 C222 1.363 . S
C223 C229 1.428 . S
H224 C220 0.930 . S
H225 C222 0.929 . S
S226 N227 1.613 . S
S226 N228 1.610 . S
N227 S226 1.613 . S
N227 C230 1.350 . S
N228 S226 1.610 . S
N228 C229 1.351 . S
C229 C223 1.428 . S
C229 N228 1.351 . S
C229 C230 1.434 . S
C230 C221 1.429 . S
C230 N227 1.350 . S
C230 C229 1.434 . S
C231 C232 1.369 . S
C231 C233 1.419 . S
C231 H235 0.930 . S
C232 C231 1.369 . S
C232 C241 1.429 . S
C233 C231 1.419 . S
C233 C234 1.363 . S
C233 H236 0.929 . S
C234 C233 1.363 . S
C234 C240 1.428 . S
H235 C231 0.930 . S
H236 C233 0.929 . S
S237 N238 1.613 . S
S237 N239 1.610 . S
N238 S237 1.613 . S
N238 C241 1.350 . S
N239 S237 1.610 . S
N239 C240 1.351 . S
C240 C234 1.428 . S
C240 N239 1.351 . S
C240 C241 1.434 . S
C241 C232 1.429 . S
C241 N238 1.350 . S
C241 C240 1.434 . S
C242 C243 1.369 . S
C242 C244 1.419 . S
C242 H246 0.930 . S
C243 C242 1.369 . S
C243 C252 1.429 . S
C244 C242 1.419 . S
C244 C245 1.363 . S
C244 H247 0.929 . S
C245 C244 1.363 . S
C245 C251 1.428 . S
H246 C242 0.930 . S
H247 C244 0.929 . S
S248 N249 1.613 . S
S248 N250 1.610 1_554 S
N249 S248 1.613 . S
N249 C252 1.350 1_554 S
N250 S248 1.610 1_556 S
N250 C251 1.351 . S
C251 C245 1.428 . S
C251 N250 1.351 . S
C251 C252 1.434 . S
C252 C243 1.429 . S
C252 N249 1.350 1_556 S
C252 C251 1.434 . S
C253 C254 1.369 . S
C253 C255 1.419 . S
C253 H257 0.930 . S
C254 C253 1.369 . S
C254 C263 1.429 . S
C255 C253 1.419 . S
C255 C256 1.363 . S
C255 H258 0.929 . S
C256 C255 1.363 . S
C256 C262 1.428 . S
H257 C253 0.930 . S
H258 C255 0.929 . S
S259 N260 1.613 . S
S259 N261 1.610 . S
N260 S259 1.613 . S
N260 C263 1.350 . S
N261 S259 1.610 . S
N261 C262 1.351 . S
C262 C256 1.428 . S
C262 N261 1.351 . S
C262 C263 1.434 . S
C263 C254 1.429 . S
C263 N260 1.350 . S
C263 C262 1.434 . S
C264 C265 1.369 . S
C264 C266 1.419 . S
C264 H268 0.930 . S
C265 C264 1.369 . S
C265 C274 1.429 . S
C266 C264 1.419 . S
C266 C267 1.363 . S
C266 H269 0.929 . S
C267 C266 1.363 . S
C267 C273 1.428 . S
H268 C264 0.930 . S
H269 C266 0.929 . S
S270 N271 1.613 . S
S270 N272 1.610 1_554 S
N271 S270 1.613 . S
N271 C274 1.350 1_554 S
N272 S270 1.610 1_556 S
N272 C273 1.351 . S
C273 C267 1.428 . S
C273 N272 1.351 . S
C273 C274 1.434 . S
C274 C265 1.429 . S
C274 N271 1.350 1_556 S
C274 C273 1.434 . S
C275 C276 1.369 . S
C275 C277 1.419 . S
C275 H279 0.930 . S
C276 C275 1.369 . S
C276 C285 1.429 . S
C277 C275 1.419 . S
C277 C278 1.363 . S
C277 H280 0.929 . S
C278 C277 1.363 . S
C278 C284 1.428 . S
H279 C275 0.930 . S
H280 C277 0.929 . S
S281 N282 1.613 . S
S281 N283 1.610 . S
N282 S281 1.613 . S
N282 C285 1.350 . S
N283 S281 1.610 . S
N283 C284 1.351 . S
C284 C278 1.428 . S
C284 N283 1.351 . S
C284 C285 1.434 . S
C285 C276 1.429 . S
C285 N282 1.350 . S
C285 C284 1.434 . S
C286 C287 1.369 . S
C286 C288 1.419 . S
C286 H290 0.930 . S
C287 C286 1.369 . S
C287 C296 1.429 . S
C288 C286 1.419 . S
C288 C289 1.363 . S
C288 H291 0.929 . S
C289 C288 1.363 . S
C289 C295 1.428 . S
H290 C286 0.930 . S
H291 C288 0.929 . S
S292 N293 1.613 . S
S292 N294 1.610 . S
N293 S292 1.613 . S
N293 C296 1.350 . S
N294 S292 1.610 . S
N294 C295 1.351 . S
C295 C289 1.428 . S
C295 N294 1.351 . S
C295 C296 1.434 . S
C296 C287 1.429 . S
C296 N293 1.350 . S
C296 C295 1.434 . S
C297 C298 1.369 . S
C297 C299 1.419 . S
C297 H301 0.930 . S
C298 C297 1.369 . S
C298 C307 1.429 . S
C299 C297 1.419 . S
C299 C300 1.363 . S
C299 H302 0.929 . S
C300 C299 1.363 . S
C300 C306 1.428 . S
H301 C297 0.930 . S
H302 C299 0.929 . S
S303 N304 1.613 . S
S303 N305 1.610 . S
N304 S303 1.613 . S
N304 C307 1.350 . S
N305 S303 1.610 . S
N305 C306 1.351 . S
C306 C300 1.428 . S
C306 N305 1.351 . S
C306 C307 1.434 . S
C307 C298 1.429 . S
C307 N304 1.350 . S
C307 C306 1.434 . S
C308 C309 1.369 . S
C308 C310 1.419 . S
C308 H312 0.930 . S
C309 C308 1.369 . S
C309 C318 1.429 1_565 S
C310 C308 1.419 . S
C310 C311 1.363 1_565 S
C310 H313 0.929 . S
C311 C310 1.363 1_545 S
C311 C317 1.428 . S
H312 C308 0.930 . S
H313 C310 0.929 . S
S314 N315 1.613 . S
S314 N316 1.610 . S
N315 S314 1.613 . S
N315 C318 1.350 . S
N316 S314 1.610 . S
N316 C317 1.351 . S
C317 C311 1.428 . S
C317 N316 1.351 . S
C317 C318 1.434 . S
C318 C309 1.429 1_545 S
C318 N315 1.350 . S
C318 C317 1.434 . S
C319 C320 1.369 1_565 S
C319 C321 1.419 . S
C319 H323 0.930 . S
C320 C319 1.369 1_545 S
C320 C329 1.429 . S
C321 C319 1.419 . S
C321 C322 1.363 . S
C321 H324 0.929 . S
C322 C321 1.363 . S
C322 C328 1.428 1_565 S
H323 C319 0.930 . S
H324 C321 0.929 . S
S325 N326 1.613 . S
S325 N327 1.610 . S
N326 S325 1.613 . S
N326 C329 1.350 . S
N327 S325 1.610 . S
N327 C328 1.351 . S
C328 C322 1.428 1_545 S
C328 N327 1.351 . S
C328 C329 1.434 . S
C329 C320 1.429 . S
C329 N326 1.350 . S
C329 C328 1.434 . S
C330 C331 1.369 . S
C330 C332 1.419 . S
C330 H334 0.930 . S
C331 C330 1.369 . S
C331 C340 1.429 1_565 S
C332 C330 1.419 . S
C332 C333 1.363 1_565 S
C332 H335 0.929 . S
C333 C332 1.363 1_545 S
C333 C339 1.428 . S
H334 C330 0.930 . S
H335 C332 0.929 . S
S336 N337 1.613 . S
S336 N338 1.610 . S
N337 S336 1.613 . S
N337 C340 1.350 . S
N338 S336 1.610 . S
N338 C339 1.351 . S
C339 C333 1.428 . S
C339 N338 1.351 . S
C339 C340 1.434 . S
C340 C331 1.429 1_545 S
C340 N337 1.350 . S
C340 C339 1.434 . S
C341 C342 1.369 . S
C341 C343 1.419 . S
C341 H345 0.930 . S
C342 C341 1.369 . S
C342 C351 1.429 1_545 S
C343 C341 1.419 . S
C343 C344 1.363 1_545 S
C343 H346 0.929 . S
C344 C343 1.363 1_565 S
C344 C350 1.428 . S
H345 C341 0.930 . S
H346 C343 0.929 . S
S347 N348 1.613 . S
S347 N349 1.610 . S
N348 S347 1.613 . S
N348 C351 1.350 . S
N349 S347 1.610 . S
N349 C350 1.351 . S
C350 C344 1.428 . S
C350 N349 1.351 . S
C350 C351 1.434 . S
C351 C342 1.429 1_565 S
C351 N348 1.350 . S
C351 C350 1.434 . S
C352 C353 1.369 . S
C352 C354 1.419 . S
C352 H356 0.930 . S
C353 C352 1.369 . S
C353 C362 1.429 . S
C354 C352 1.419 . S
C354 C355 1.363 . S
C354 H357 0.929 . S
C355 C354 1.363 . S
C355 C361 1.428 . S
H356 C352 0.930 . S
H357 C354 0.929 . S
S358 N359 1.613 . S
S358 N360 1.610 . S
N359 S358 1.613 . S
N359 C362 1.350 . S
N360 S358 1.610 . S
N360 C361 1.351 . S
C361 C355 1.428 . S
C361 N360 1.351 . S
C361 C362 1.434 . S
C362 C353 1.429 . S
C362 N359 1.350 . S
C362 C361 1.434 . S
C363 C364 1.369 . S
C363 C365 1.419 . S
C363 H367 0.930 . S
C364 C363 1.369 . S
C364 C373 1.429 . S
C365 C363 1.419 . S
C365 C366 1.363 . S
C365 H368 0.929 . S
C366 C365 1.363 . S
C366 C372 1.428 . S
H367 C363 0.930 . S
H368 C365 0.929 . S
S369 N370 1.613 . S
S369 N371 1.610 . S
N370 S369 1.613 . S
N370 C373 1.350 . S
N371 S369 1.610 . S
N371 C372 1.351 . S
C372 C366 1.428 . S
C372 N371 1.351 . S
C372 C373 1.434 . S
C373 C364 1.429 . S
C373 N370 1.350 . S
C373 C372 1.434 . S
C374 C375 1.369 . S
C374 C376 1.419 . S
C374 H378 0.930 . S
C375 C374 1.369 . S
C375 C384 1.429 . S
C376 C374 1.419 . S
C376 C377 1.363 . S
C376 H379 0.929 . S
C377 C376 1.363 . S
C377 C383 1.428 . S
H378 C374 0.930 . S
H379 C376 0.929 . S
S380 N381 1.613 . S
S380 N382 1.610 . S
N381 S380 1.613 . S
N381 C384 1.350 . S
N382 S380 1.610 . S
N382 C383 1.351 . S
C383 C377 1.428 . S
C383 N382 1.351 . S
C383 C384 1.434 . S
C384 C375 1.429 . S
C384 N381 1.350 . S
C384 C383 1.434 . S
C385 C386 1.369 . S
C385 C387 1.419 . S
C385 H389 0.930 . S
C386 C385 1.369 . S
C386 C395 1.429 . S
C387 C385 1.419 . S
C387 C388 1.363 . S
C387 H390 0.929 . S
C388 C387 1.363 . S
C388 C394 1.428 . S
H389 C385 0.930 . S
H390 C387 0.929 . S
S391 N392 1.613 . S
S391 N393 1.610 . S
N392 S391 1.613 . S
N392 C395 1.350 . S
N393 S391 1.610 . S
N393 C394 1.351 . S
C394 C388 1.428 . S
C394 N393 1.351 . S
C394 C395 1.434 . S
C395 C386 1.429 . S
C395 N392 1.350 . S
C395 C394 1.434 . S
C396 C397 1.369 . S
C396 C398 1.419 . S
C396 H400 0.930 . S
C397 C396 1.369 . S
C397 C406 1.429 . S
C398 C396 1.419 . S
C398 C399 1.363 . S
C398 H401 0.929 . S
C399 C398 1.363 . S
C399 C405 1.428 . S
H400 C396 0.930 . S
H401 C398 0.929 . S
S402 N403 1.613 . S
S402 N404 1.610 . S
N403 S402 1.613 . S
N403 C406 1.350 . S
N404 S402 1.610 . S
N404 C405 1.351 . S
C405 C399 1.428 . S
C405 N404 1.351 . S
C405 C406 1.434 . S
C406 C397 1.429 . S
C406 N403 1.350 . S
C406 C405 1.434 . S
C407 C408 1.369 . S
C407 C409 1.419 . S
C407 H411 0.930 . S
C408 C407 1.369 . S
C408 C417 1.429 . S
C409 C407 1.419 . S
C409 C410 1.363 . S
C409 H412 0.929 . S
C410 C409 1.363 . S
C410 C416 1.428 . S
H411 C407 0.930 . S
H412 C409 0.929 . S
S413 N414 1.613 . S
S413 N415 1.610 . S
N414 S413 1.613 . S
N414 C417 1.350 . S
N415 S413 1.610 . S
N415 C416 1.351 . S
C416 C410 1.428 . S
C416 N415 1.351 . S
C416 C417 1.434 . S
C417 C408 1.429 . S
C417 N414 1.350 . S
C417 C416 1.434 . S
C418 C419 1.369 . S
C418 C420 1.419 . S
C418 H422 0.930 . S
C419 C418 1.369 . S
C419 C428 1.429 . S
C420 C418 1.419 . S
C420 C421 1.363 . S
C420 H423 0.929 . S
C421 C420 1.363 . S
C421 C427 1.428 . S
H422 C418 0.930 . S
H423 C420 0.929 . S
S424 N425 1.613 . S
S424 N426 1.610 . S
N425 S424 1.613 . S
N425 C428 1.350 . S
N426 S424 1.610 . S
N426 C427 1.351 . S
C427 C421 1.428 . S
C427 N426 1.351 . S
C427 C428 1.434 . S
C428 C419 1.429 . S
C428 N425 1.350 . S
C428 C427 1.434 . S
C429 C430 1.369 . S
C429 C431 1.419 . S
C429 H433 0.930 . S
C430 C429 1.369 . S
C430 C439 1.429 . S
C431 C429 1.419 . S
C431 C432 1.363 . S
C431 H434 0.929 . S
C432 C431 1.363 . S
C432 C438 1.428 . S
H433 C429 0.930 . S
H434 C431 0.929 . S
S435 N436 1.613 . S
S435 N437 1.610 . S
N436 S435 1.613 . S
N436 C439 1.350 . S
N437 S435 1.610 . S
N437 C438 1.351 . S
C438 C432 1.428 . S
C438 N437 1.351 . S
C438 C439 1.434 . S
C439 C430 1.429 . S
C439 N436 1.350 . S
C439 C438 1.434 . S
C177 N4 1.528 . S
C179 C114 1.510 . S
C190 C92 1.510 . S
C188 N15 1.532 . S
C201 C118 1.569 . S
C199 N26 1.590 . S
C212 C96 1.460 . S
C210 N37 1.491 . S
C223 C158 1.505 . S
C221 N48 1.532 . S
C234 C136 1.514 . S
C232 N59 1.530 . S
C243 N70 1.590 . S
C245 C162 1.572 . S
C256 C140 1.466 . S
C254 N81 1.487 . S
C265 C9 1.499 . S
C267 C163 1.530 . S
C278 C141 1.505 . S
C276 C20 1.478 . S
C287 C31 1.556 . S
C289 C160 1.588 . S
C298 C39 1.429 . S
C300 C138 1.442 . S
C311 C119 1.534 . S
C309 C53 1.506 . S
C320 C64 1.474 . S
C322 C97 1.503 . S
C333 C116 1.587 . S
C331 C75 1.555 . S
C344 C94 1.441 . S
C342 C83 1.427 . S
C355 C137 1.490 . S
C353 C6 1.487 . S
C366 C159 1.491 . S
C364 C17 1.481 . S
C375 C28 1.499 . S
C377 C139 1.485 . S
C388 C161 1.488 . S
C386 C42 1.464 . S
C399 C93 1.488 . S
C397 C50 1.482 . S
C408 C61 1.480 . S
C410 C115 1.492 . S
C419 C72 1.500 . S
C421 C95 1.487 . S
C430 C86 1.470 . S
C432 C117 1.491 . S
