# Generated by pormake.
# Topology hwx, (6,3)-cn, num edge types: 1
# Building blocks:
#     Node 0, Type 0, BuildingBlock: IZENUY_clean_sbu_0, # of connection points: 6
#     Node 1, Type 0, BuildingBlock: IZENUY_clean_sbu_0, # of connection points: 6
#     Node 2, Type 0, BuildingBlock: IZENUY_clean_sbu_0, # of connection points: 6
#     Node 3, Type 0, BuildingBlock: IZENUY_clean_sbu_0, # of connection points: 6
#     Node 4, Type 1, BuildingBlock: BETDAH_clean_linker_0, # of connection points: 3
#     Node 5, Type 1, BuildingBlock: BETDAH_clean_linker_0, # of connection points: 3
#     Node 6, Type 1, BuildingBlock: BETDAH_clean_linker_0, # of connection points: 3
#     Node 7, Type 1, BuildingBlock: BETDAH_clean_linker_0, # of connection points: 3
#     Node 8, Type 1, BuildingBlock: BETDAH_clean_linker_0, # of connection points: 3
#     Node 9, Type 1, BuildingBlock: BETDAH_clean_linker_0, # of connection points: 3
#     Node 10, Type 1, BuildingBlock: BETDAH_clean_linker_0, # of connection points: 3
#     Node 11, Type 1, BuildingBlock: BETDAH_clean_linker_0, # of connection points: 3
#     Edge 12, Type (0, 1), BuildingBlock: XIVTED_clean_linker_0, # of connection points: 2
#     Edge 13, Type (0, 1), BuildingBlock: XIVTED_clean_linker_0, # of connection points: 2
#     Edge 14, Type (0, 1), BuildingBlock: XIVTED_clean_linker_0, # of connection points: 2
#     Edge 15, Type (0, 1), BuildingBlock: XIVTED_clean_linker_0, # of connection points: 2
#     Edge 16, Type (0, 1), BuildingBlock: XIVTED_clean_linker_0, # of connection points: 2
#     Edge 17, Type (0, 1), BuildingBlock: XIVTED_clean_linker_0, # of connection points: 2
#     Edge 18, Type (0, 1), BuildingBlock: XIVTED_clean_linker_0, # of connection points: 2
#     Edge 19, Type (0, 1), BuildingBlock: XIVTED_clean_linker_0, # of connection points: 2
#     Edge 20, Type (0, 1), BuildingBlock: XIVTED_clean_linker_0, # of connection points: 2
#     Edge 21, Type (0, 1), BuildingBlock: XIVTED_clean_linker_0, # of connection points: 2
#     Edge 22, Type (0, 1), BuildingBlock: XIVTED_clean_linker_0, # of connection points: 2
#     Edge 23, Type (0, 1), BuildingBlock: XIVTED_clean_linker_0, # of connection points: 2
#     Edge 24, Type (0, 1), BuildingBlock: XIVTED_clean_linker_0, # of connection points: 2
#     Edge 25, Type (0, 1), BuildingBlock: XIVTED_clean_linker_0, # of connection points: 2
#     Edge 26, Type (0, 1), BuildingBlock: XIVTED_clean_linker_0, # of connection points: 2
#     Edge 27, Type (0, 1), BuildingBlock: XIVTED_clean_linker_0, # of connection points: 2
#     Edge 28, Type (0, 1), BuildingBlock: XIVTED_clean_linker_0, # of connection points: 2
#     Edge 29, Type (0, 1), BuildingBlock: XIVTED_clean_linker_0, # of connection points: 2
#     Edge 30, Type (0, 1), BuildingBlock: XIVTED_clean_linker_0, # of connection points: 2
#     Edge 31, Type (0, 1), BuildingBlock: XIVTED_clean_linker_0, # of connection points: 2
#     Edge 32, Type (0, 1), BuildingBlock: XIVTED_clean_linker_0, # of connection points: 2
#     Edge 33, Type (0, 1), BuildingBlock: XIVTED_clean_linker_0, # of connection points: 2
#     Edge 34, Type (0, 1), BuildingBlock: XIVTED_clean_linker_0, # of connection points: 2
#     Edge 35, Type (0, 1), BuildingBlock: XIVTED_clean_linker_0, # of connection points: 2
# Relax obj value: 0.003
# Max RMSD: 0.059
# Mean RMSD: 0.048
data_MOF--net-hwx--node1-IZENUY_clean_sbu_0--node2-BETDAH_clean_linker_0--edge1-XIVTED_clean_linker_0
_symmetry_space_group_name_H-M    P1
_symmetry_Int_Tables_number       1
_symmetry_cell_setting            triclinic
loop_
_symmetry_equiv_pos_as_xyz
'x, y, z'
_cell_length_a     51.610118
_cell_length_b     51.631445
_cell_length_c     20.886685
_cell_angle_alpha  91.884238
_cell_angle_beta   91.808056
_cell_angle_gamma 90.0586
loop_
_atom_site_label
_atom_site_type_symbol
_atom_site_fract_x
_atom_site_fract_y
_atom_site_fract_z
_atom_type_partial_charge
Fe0 Fe 0.24143 0.23696 0.11591 0.0
Fe1 Fe 0.24297 0.23472 0.96931 0.0
O2 O 0.23175 0.22214 0.04124 0.0
Fe3 Fe 0.21093 0.19466 0.03864 0.0
O4 O 0.1931 0.2048 0.11017 0.0
O5 O 0.20804 0.24384 0.13511 0.0
O6 O 0.24313 0.27014 0.08589 0.0
C7 C 0.23321 0.27989 0.03588 0.0
C8 C 0.24313 0.18318 0.13988 0.0
O9 O 0.22847 0.26595 0.98625 0.0
C10 C 0.24687 0.18262 0.94259 0.0
O11 O 0.27547 0.23096 0.1016 0.0
O12 O 0.27461 0.24535 0.00374 0.0
O13 O 0.234 0.17612 0.08543 0.0
O14 O 0.24153 0.20661 0.15954 0.0
C15 C 0.19049 0.22195 0.93905 0.0
O16 O 0.25826 0.20425 0.94736 0.0
O17 O 0.22499 0.17949 0.96703 0.0
C18 C 0.28714 0.23855 0.05351 0.0
O19 O 0.21332 0.22661 0.92197 0.0
O20 O 0.18643 0.21125 0.99125 0.0
C21 C 0.19048 0.22691 0.13735 0.0
Fe22 Fe 0.27107 0.73758 0.58072 0.0
Fe23 Fe 0.30142 0.69585 0.50535 0.0
O24 O 0.27928 0.72226 0.50693 0.0
Fe25 Fe 0.26521 0.73337 0.43437 0.0
O26 O 0.26268 0.76742 0.46204 0.0
O27 O 0.28263 0.76886 0.55634 0.0
O28 O 0.30305 0.73308 0.61949 0.0
C29 C 0.32499 0.7277 0.59714 0.0
C30 C 0.22307 0.73508 0.5105 0.0
O31 O 0.32699 0.71509 0.54485 0.0
C32 C 0.26594 0.67877 0.41368 0.0
O33 O 0.25887 0.70756 0.61049 0.0
O34 O 0.2914 0.68277 0.58163 0.0
O35 O 0.23272 0.72613 0.4596 0.0
O36 O 0.23749 0.74482 0.55531 0.0
C37 C 0.31528 0.72548 0.39942 0.0
O38 O 0.27765 0.67434 0.46597 0.0
O39 O 0.26494 0.70149 0.3927 0.0
C40 C 0.2712 0.68655 0.61355 0.0
O41 O 0.31536 0.70431 0.42862 0.0
O42 O 0.29681 0.74132 0.40492 0.0
C43 C 0.27428 0.78014 0.50723 0.0
Fe44 Fe 0.76673 0.77323 0.91819 0.0
Fe45 Fe 0.76309 0.77889 0.06425 0.0
O46 O 0.77629 0.78897 0.99189 0.0
Fe47 Fe 0.79899 0.8148 0.9935 0.0
O48 O 0.77823 0.83384 0.94157 0.0
O49 O 0.76919 0.80239 0.8708 0.0
O50 O 0.73286 0.78171 0.92898 0.0
C51 C 0.72011 0.77581 0.97696 0.0
C52 C 0.81889 0.77923 0.90122 0.0
O53 O 0.73162 0.76907 0.02811 0.0
C54 C 0.81555 0.78938 0.09963 0.0
O55 O 0.76259 0.74115 0.95259 0.0
O56 O 0.77619 0.74648 0.053 0.0
O57 O 0.81734 0.80189 0.92586 0.0
O58 O 0.79992 0.76378 0.90206 0.0
C59 C 0.76228 0.83149 0.0844 0.0
O60 O 0.79207 0.78677 0.11391 0.0
O61 O 0.82138 0.7975 0.04565 0.0
C62 C 0.77158 0.73191 0.00424 0.0
O63 O 0.74923 0.81074 0.08021 0.0
O64 O 0.7847 0.83247 0.06152 0.0
C65 C 0.76924 0.82623 0.88733 0.0
Fe66 Fe 0.70705 0.31242 0.48753 0.0
Fe67 Fe 0.74406 0.27439 0.55355 0.0
O68 O 0.73171 0.28852 0.48277 0.0
Fe69 Fe 0.74398 0.27883 0.40742 0.0
O70 O 0.75415 0.31172 0.3919 0.0
O71 O 0.7176 0.33031 0.41842 0.0
O72 O 0.72769 0.3338 0.53786 0.0
C73 C 0.7383 0.32736 0.59024 0.0
C74 C 0.68978 0.28334 0.38293 0.0
O75 O 0.74012 0.30372 0.60421 0.0
C76 C 0.74138 0.23183 0.46427 0.0
O77 O 0.6918 0.29889 0.55733 0.0
O78 O 0.71232 0.26225 0.57263 0.0
O79 O 0.71283 0.28265 0.36355 0.0
O80 O 0.68483 0.29266 0.43777 0.0
C81 C 0.78899 0.28075 0.48969 0.0
O82 O 0.75041 0.24246 0.51573 0.0
O83 O 0.73458 0.24532 0.41743 0.0
C84 C 0.6926 0.27636 0.57956 0.0
O85 O 0.77655 0.28561 0.53962 0.0
O86 O 0.77733 0.27312 0.43808 0.0
C87 C 0.73925 0.33108 0.39171 0.0
H88 H 0.23636 0.58844 0.01811 0.0
H89 H 0.20951 0.51606 0.08827 0.0
H90 H 0.21353 0.52665 0.88531 0.0
C91 C 0.22961 0.56873 0.00877 0.0
C92 C 0.22639 0.55924 0.94543 0.0
C93 C 0.22363 0.55337 0.06044 0.0
C94 C 0.21503 0.52775 0.04875 0.0
C95 C 0.21149 0.51811 0.98523 0.0
C96 C 0.21716 0.53391 0.93406 0.0
N97 N 0.19862 0.49429 0.97123 0.0
C98 C 0.20715 0.4705 0.9927 0.0
H99 H 0.91589 0.7534 0.52286 0.0
H100 H 0.97789 0.78546 0.41771 0.0
H101 H 0.99003 0.769 0.61643 0.0
C102 C 0.93593 0.75948 0.52059 0.0
C103 C 0.95175 0.75979 0.57658 0.0
C104 C 0.94495 0.76889 0.46303 0.0
C105 C 0.97075 0.77731 0.46096 0.0
C106 C 0.98724 0.77652 0.5154 0.0
C107 C 0.9777 0.768 0.57345 0.0
N108 N 0.01209 0.78794 0.51298 0.0
C109 C 0.03493 0.77454 0.52513 0.0
H110 H 0.76128 0.42803 0.01308 0.0
H111 H 0.79816 0.48592 0.90341 0.0
H112 H 0.79635 0.49487 0.10866 0.0
C113 C 0.77113 0.44652 0.01067 0.0
C114 C 0.77744 0.46055 0.06759 0.0
C115 C 0.77867 0.45529 0.95115 0.0
C116 C 0.79163 0.47915 0.94876 0.0
C117 C 0.79746 0.49375 0.0053 0.0
C118 C 0.79069 0.48425 0.06483 0.0
N119 N 0.81316 0.51613 0.00246 0.0
C120 C 0.80333 0.54103 0.01026 0.0
H121 H 0.08849 0.23854 0.53365 0.0
H122 H 0.03243 0.28426 0.63482 0.0
H123 H 0.03075 0.28178 0.42909 0.0
C124 C 0.07117 0.25041 0.53294 0.0
C125 C 0.0606 0.25854 0.47413 0.0
C126 C 0.06124 0.25967 0.59111 0.0
C127 C 0.0398 0.27638 0.59023 0.0
C128 C 0.02827 0.2836 0.53184 0.0
C129 C 0.03887 0.27496 0.47396 0.0
N130 N 0.00831 0.30234 0.5316 0.0
C131 C 0.9823 0.29556 0.52452 0.0
H132 H 0.73056 0.92213 0.47621 0.0
H133 H 0.71298 0.99678 0.40051 0.0
H134 H 0.71369 0.98644 0.6042 0.0
C135 C 0.72554 0.94234 0.48428 0.0
C136 C 0.72308 0.95233 0.54701 0.0
C137 C 0.72176 0.95808 0.43135 0.0
C138 C 0.71628 0.98458 0.44119 0.0
C139 C 0.71333 0.99474 0.50398 0.0
C140 C 0.71656 0.97853 0.55623 0.0
N141 N 0.70471 0.02043 0.51627 0.0
C142 C 0.71382 0.0422 0.48662 0.0
H143 H 0.5972 0.24467 0.9856 0.0
H144 H 0.52144 0.24065 0.06563 0.0
H145 H 0.52972 0.23761 0.86093 0.0
C146 C 0.57636 0.24263 0.97902 0.0
C147 C 0.56542 0.24123 0.91686 0.0
C148 C 0.56077 0.24235 0.03296 0.0
C149 C 0.5336 0.24096 0.02432 0.0
C150 C 0.52246 0.23899 0.96175 0.0
C151 C 0.53845 0.23918 0.90879 0.0
N152 N 0.49545 0.2359 0.94897 0.0
C153 C 0.47571 0.24007 0.99182 0.0
H154 H 0.30192 0.0786 0.53752 0.0
H155 H 0.25632 0.02255 0.63315 0.0
H156 H 0.25445 0.02345 0.42916 0.0
C157 C 0.28839 0.06256 0.53615 0.0
C158 C 0.2778 0.05378 0.47655 0.0
C159 C 0.27907 0.05333 0.59371 0.0
C160 C 0.26404 0.03049 0.5904 0.0
C161 C 0.25713 0.0186 0.53088 0.0
C162 C 0.26294 0.0309 0.47414 0.0
N163 N 0.24042 0.99685 0.52841 0.0
C164 C 0.2499 0.97171 0.52386 0.0
H165 H 0.41915 0.74391 0.99527 0.0
H166 H 0.4862 0.78103 0.92162 0.0
H167 H 0.47329 0.78412 0.12405 0.0
C168 C 0.43728 0.75432 0.00364 0.0
C169 C 0.4447 0.76261 0.06618 0.0
C170 C 0.45187 0.76124 0.95122 0.0
C171 C 0.47499 0.77535 0.96189 0.0
C172 C 0.48293 0.78319 0.02455 0.0
C173 C 0.46741 0.77739 0.07606 0.0
N174 N 0.50552 0.7984 0.03669 0.0
C175 C 0.5292 0.79264 0.00981 0.0
H176 H 0.17307 0.27354 0.1853 0.0
H177 H 0.07841 0.21147 0.43008 0.0
H178 H 0.15696 0.19146 0.18406 0.0
H179 H 0.07545 0.29226 0.38417 0.0
H180 H 0.10727 0.20345 0.34062 0.0
H181 H 0.13777 0.28086 0.25923 0.0
C182 C 0.16204 0.25707 0.20034 0.0
C183 C 0.16812 0.23183 0.17879 0.0
C184 C 0.09999 0.22286 0.34949 0.0
C185 C 0.1278 0.24007 0.26373 0.0
C186 C 0.08355 0.22742 0.40049 0.0
C187 C 0.07455 0.25255 0.41444 0.0
C188 C 0.1079 0.24367 0.313 0.0
C189 C 0.08177 0.27255 0.37468 0.0
C190 C 0.14182 0.26128 0.2423 0.0
C191 C 0.15301 0.21125 0.1995 0.0
N192 N 0.09832 0.26776 0.32633 0.0
N193 N 0.13376 0.21578 0.24139 0.0
H194 H 0.23297 0.6907 0.70123 0.0
H195 H 0.25383 0.54868 0.83715 0.0
H196 H 0.29057 0.63752 0.62943 0.0
H197 H 0.2101 0.60904 0.93176 0.0
H198 H 0.26361 0.57876 0.75236 0.0
H199 H 0.22056 0.65875 0.77801 0.0
C200 C 0.24299 0.67228 0.70143 0.0
C201 C 0.26301 0.66691 0.65903 0.0
C202 C 0.25183 0.58536 0.79165 0.0
C203 C 0.24876 0.63011 0.74701 0.0
C204 C 0.24614 0.56819 0.83974 0.0
C205 C 0.23135 0.57649 0.89174 0.0
C206 C 0.24237 0.61087 0.79537 0.0
C207 C 0.22192 0.60198 0.89301 0.0
C208 C 0.2359 0.65404 0.74543 0.0
C209 C 0.27517 0.6426 0.66151 0.0
N210 N 0.2276 0.61824 0.84565 0.0
N211 N 0.26787 0.6251 0.70483 0.0
H212 H 0.86866 0.78728 0.08791 0.0
H213 H 0.89484 0.78572 0.46568 0.0
H214 H 0.80865 0.78349 0.22688 0.0
H215 H 0.95332 0.76069 0.33388 0.0
H216 H 0.86434 0.79026 0.37604 0.0
H217 H 0.90135 0.78231 0.175 0.0
C218 C 0.86236 0.78541 0.13653 0.0
C219 C 0.83587 0.78587 0.15012 0.0
C220 C 0.88379 0.78363 0.36658 0.0
C221 C 0.87297 0.78043 0.24929 0.0
C222 C 0.90123 0.78084 0.4179 0.0
C223 C 0.9266 0.77223 0.4076 0.0
C224 C 0.89169 0.77813 0.30396 0.0
C225 C 0.93394 0.76731 0.34407 0.0
C226 C 0.88099 0.7825 0.18601 0.0
C227 C 0.82879 0.78323 0.21391 0.0
N228 N 0.91653 0.7703 0.29448 0.0
N229 N 0.8472 0.78079 0.26096 0.0
H230 H 0.7657 0.32002 0.70158 0.0
H231 H 0.75947 0.46763 0.83118 0.0
H232 H 0.72998 0.38028 0.59083 0.0
H233 H 0.78971 0.40396 0.93911 0.0
H234 H 0.75144 0.43753 0.73871 0.0
H235 H 0.77755 0.35201 0.78503 0.0
C236 C 0.76032 0.34003 0.69471 0.0
C237 C 0.74654 0.34737 0.63924 0.0
C238 C 0.75989 0.43024 0.78265 0.0
C239 C 0.76015 0.38442 0.73546 0.0
C240 C 0.76455 0.44739 0.8352 0.0
C241 C 0.7749 0.43817 0.8931 0.0
C242 C 0.76588 0.40382 0.78816 0.0
C243 C 0.78119 0.4118 0.89587 0.0
C244 C 0.76715 0.35837 0.74255 0.0
C245 C 0.74048 0.37373 0.63294 0.0
N246 N 0.77651 0.39562 0.8444 0.0
N247 N 0.74718 0.39132 0.68074 0.0
H248 H 0.69257 0.24911 0.28173 0.0
H249 H 0.55261 0.27685 0.1336 0.0
H250 H 0.63825 0.29733 0.38352 0.0
H251 H 0.59949 0.21151 0.07679 0.0
H252 H 0.58193 0.28453 0.22769 0.0
H253 H 0.65787 0.23558 0.2062 0.0
C254 C 0.67329 0.25687 0.28815 0.0
C255 C 0.66836 0.27455 0.33863 0.0
C256 C 0.58545 0.26821 0.19525 0.0
C257 C 0.62835 0.25915 0.25196 0.0
C258 C 0.56863 0.26373 0.14195 0.0
C259 C 0.57387 0.24371 0.09719 0.0
C260 C 0.60763 0.25266 0.20306 0.0
C261 C 0.595 0.22738 0.10979 0.0
C262 C 0.6534 0.24899 0.24526 0.0
C263 C 0.64289 0.28369 0.34511 0.0
N264 N 0.61128 0.23244 0.16088 0.0
N265 N 0.62385 0.27615 0.30171 0.0
H266 H 0.28459 0.18644 0.85419 0.0
H267 H 0.2765 0.03977 0.72207 0.0
H268 H 0.23352 0.13113 0.93645 0.0
H269 H 0.28494 0.10651 0.60388 0.0
H270 H 0.27288 0.0695 0.81544 0.0
H271 H 0.29827 0.15278 0.77756 0.0
C272 C 0.27651 0.16715 0.85677 0.0
C273 C 0.2575 0.16172 0.90098 0.0
C274 C 0.27606 0.07728 0.7688 0.0
C275 C 0.27335 0.12311 0.81395 0.0
C276 C 0.27798 0.06038 0.71519 0.0
C277 C 0.2811 0.0702 0.65368 0.0
C278 C 0.27794 0.10411 0.76117 0.0
C279 C 0.28337 0.09734 0.64929 0.0
C280 C 0.28433 0.14798 0.81303 0.0
C281 C 0.24787 0.13625 0.90233 0.0
N282 N 0.28176 0.11314 0.70197 0.0
N283 N 0.25577 0.11787 0.85903 0.0
H284 H 0.34865 0.69071 0.34427 0.0
H285 H 0.427 0.79668 0.15773 0.0
H286 H 0.32889 0.77196 0.35052 0.0
H287 H 0.42368 0.71611 0.09666 0.0
H288 H 0.39665 0.78769 0.2423 0.0
H289 H 0.38176 0.69955 0.26639 0.0
C290 C 0.35136 0.71043 0.32955 0.0
C291 C 0.33587 0.73062 0.35368 0.0
C292 C 0.40267 0.77198 0.21054 0.0
C293 C 0.37387 0.74084 0.26514 0.0
C294 C 0.4201 0.77705 0.16268 0.0
C295 C 0.4278 0.75709 0.12022 0.0
C296 C 0.39317 0.7467 0.21655 0.0
C297 C 0.41807 0.73205 0.12821 0.0
C298 C 0.37018 0.71542 0.28495 0.0
C299 C 0.34024 0.75578 0.33276 0.0
N300 N 0.40131 0.72754 0.17555 0.0
N301 N 0.35889 0.7602 0.28985 0.0
H302 H 0.74341 0.81686 0.7728 0.0
H303 H 0.74867 0.96339 0.6622 0.0
H304 H 0.77481 0.8793 0.89424 0.0
H305 H 0.707 0.90211 0.55775 0.0
H306 H 0.75806 0.93354 0.74868 0.0
H307 H 0.73006 0.84822 0.69376 0.0
C308 C 0.74751 0.83719 0.78291 0.0
C309 C 0.76043 0.8454 0.84015 0.0
C310 C 0.74674 0.9267 0.70696 0.0
C311 C 0.74513 0.88157 0.74944 0.0
C312 C 0.74125 0.94377 0.65773 0.0
C313 C 0.72726 0.93519 0.60224 0.0
C314 C 0.73823 0.90086 0.70057 0.0
C315 C 0.71834 0.90946 0.5989 0.0
C316 C 0.73978 0.85513 0.73776 0.0
C317 C 0.76497 0.87207 0.85072 0.0
N318 N 0.72411 0.89321 0.64708 0.0
N319 N 0.75748 0.8892 0.80558 0.0
H320 H 0.86483 0.80552 0.89986 0.0
H321 H 0.91854 0.72087 0.60734 0.0
H322 H 0.82661 0.73673 0.82066 0.0
H323 H 0.95548 0.79033 0.6859 0.0
H324 H 0.88919 0.72173 0.69712 0.0
H325 H 0.90183 0.7961 0.8334 0.0
C326 C 0.86424 0.78832 0.86871 0.0
C327 C 0.84231 0.77213 0.86513 0.0
C328 C 0.90404 0.7365 0.69547 0.0
C329 C 0.88486 0.7612 0.78855 0.0
C330 C 0.92088 0.73594 0.64439 0.0
C331 C 0.93929 0.75574 0.6387 0.0
C332 C 0.90548 0.7571 0.74106 0.0
C333 C 0.94163 0.77466 0.68833 0.0
C334 C 0.88548 0.7829 0.83086 0.0
C335 C 0.84295 0.74991 0.82458 0.0
N336 N 0.92463 0.77513 0.73679 0.0
N337 N 0.86373 0.74527 0.78731 0.0
H338 H 0.70684 0.37014 0.35492 0.0
H339 H 0.81282 0.44407 0.15674 0.0
H340 H 0.78602 0.34408 0.34158 0.0
H341 H 0.73068 0.44795 0.11487 0.0
H342 H 0.80438 0.41517 0.24509 0.0
H343 H 0.71664 0.4061 0.28649 0.0
C344 C 0.72636 0.37207 0.33808 0.0
C345 C 0.74557 0.35384 0.3535 0.0
C346 C 0.78821 0.42276 0.2173 0.0
C347 C 0.75691 0.39522 0.27552 0.0
C348 C 0.79298 0.43944 0.16755 0.0
C349 C 0.77236 0.44843 0.12908 0.0
C350 C 0.76262 0.41532 0.22881 0.0
C351 C 0.74703 0.44149 0.14388 0.0
C352 C 0.7319 0.3926 0.29892 0.0
C353 C 0.77054 0.35748 0.33032 0.0
N354 N 0.74286 0.42526 0.19246 0.0
N355 N 0.77548 0.37773 0.29235 0.0
H356 H 0.14563 0.19411 0.91598 0.0
H357 H 0.08275 0.29498 0.67638 0.0
H358 H 0.18567 0.26298 0.86159 0.0
H359 H 0.07323 0.21272 0.64157 0.0
H360 H 0.11213 0.28625 0.7679 0.0
H361 H 0.11074 0.20346 0.83682 0.0
C362 C 0.14691 0.2113 0.88788 0.0
C363 C 0.16857 0.22772 0.89475 0.0
C364 C 0.10327 0.27015 0.74073 0.0
C365 C 0.12876 0.23873 0.80604 0.0
C366 C 0.08641 0.2751 0.68903 0.0
C367 C 0.07562 0.2545 0.65175 0.0
C368 C 0.10895 0.24445 0.75586 0.0
C369 C 0.08124 0.22907 0.66936 0.0
C370 C 0.12712 0.21654 0.84279 0.0
C371 C 0.16939 0.24971 0.85716 0.0
N372 N 0.09754 0.22471 0.72036 0.0
N373 N 0.1497 0.25467 0.81466 0.0
H374 H 0.27969 0.62729 0.41583 0.0
H375 H 0.19206 0.59138 0.1025 0.0
H376 H 0.22933 0.68059 0.31718 0.0
H377 H 0.25695 0.54473 0.16268 0.0
H378 H 0.19861 0.61925 0.19844 0.0
H379 H 0.26538 0.59261 0.33928 0.0
C380 C 0.26539 0.63162 0.37864 0.0
C381 C 0.25589 0.65694 0.37236 0.0
C382 C 0.2112 0.60269 0.19144 0.0
C383 C 0.23935 0.61742 0.28544 0.0
C384 C 0.20731 0.5867 0.13704 0.0
C385 C 0.22401 0.56586 0.12506 0.0
C386 C 0.23214 0.59798 0.234 0.0
C387 C 0.24363 0.5606 0.17073 0.0
C388 C 0.25732 0.61186 0.33497 0.0
C389 C 0.23743 0.66146 0.32332 0.0
N390 N 0.2474 0.57682 0.22305 0.0
N391 N 0.22984 0.64195 0.28175 0.0
H392 H 0.36858 0.69815 0.61316 0.0
H393 H 0.43757 0.79733 0.86552 0.0
H394 H 0.3343 0.77085 0.67252 0.0
H395 H 0.43942 0.71486 0.89097 0.0
H396 H 0.41029 0.79015 0.76801 0.0
H397 H 0.40493 0.70671 0.69018 0.0
C398 C 0.36899 0.71611 0.6415 0.0
C399 C 0.34842 0.73378 0.63706 0.0
C400 C 0.41719 0.77363 0.79424 0.0
C401 C 0.38986 0.74378 0.72353 0.0
C402 C 0.43288 0.77768 0.84933 0.0
C403 C 0.44069 0.75661 0.88587 0.0
C404 C 0.40969 0.74834 0.77522 0.0
C405 C 0.43376 0.73153 0.86375 0.0
C406 C 0.38959 0.72089 0.68541 0.0
C407 C 0.34971 0.75667 0.67506 0.0
N408 N 0.41853 0.72805 0.80978 0.0
N409 N 0.37012 0.76105 0.7167 0.0
H410 H 0.78597 0.87859 0.10717 0.0
H411 H 0.6888 0.92169 0.38017 0.0
H412 H 0.71751 0.83551 0.15214 0.0
H413 H 0.75726 0.96498 0.33847 0.0
H414 H 0.69544 0.89379 0.28533 0.0
H415 H 0.7727 0.91354 0.18054 0.0
C416 C 0.76803 0.87652 0.13205 0.0
C417 C 0.75303 0.85382 0.12403 0.0
C418 C 0.70881 0.90963 0.296 0.0
C419 C 0.73772 0.89395 0.20832 0.0
C420 C 0.70489 0.92566 0.34984 0.0
C421 C 0.7225 0.94561 0.36673 0.0
C422 C 0.73075 0.91332 0.25922 0.0
C423 C 0.74319 0.94988 0.32654 0.0
C424 C 0.76045 0.89656 0.17393 0.0
C425 C 0.72985 0.85247 0.15717 0.0
N426 N 0.74697 0.9336 0.27502 0.0
N427 N 0.72305 0.87212 0.19824 0.0
H428 H 0.64517 0.29881 0.59486 0.0
H429 H 0.61105 0.21571 0.89606 0.0
H430 H 0.69242 0.23537 0.66026 0.0
H431 H 0.55827 0.27037 0.81059 0.0
H432 H 0.6405 0.22155 0.80819 0.0
H433 H 0.61246 0.28759 0.67109 0.0
C434 C 0.64861 0.28241 0.62499 0.0
C435 C 0.67172 0.26817 0.62154 0.0
C436 C 0.62238 0.23209 0.80828 0.0
C437 C 0.63431 0.25528 0.70935 0.0
C438 C 0.60562 0.22885 0.85856 0.0
C439 C 0.58227 0.24271 0.86082 0.0
C440 C 0.61588 0.24953 0.76016 0.0
C441 C 0.57601 0.2592 0.81055 0.0
C442 C 0.62987 0.27598 0.66846 0.0
C443 C 0.67496 0.24696 0.66141 0.0
N444 N 0.59284 0.26234 0.76262 0.0
N445 N 0.65659 0.24133 0.70412 0.0
H446 H 0.26586 0.19148 0.25836 0.0
H447 H 0.27693 0.04182 0.34507 0.0
H448 H 0.24322 0.12995 0.12289 0.0
H449 H 0.27747 0.10678 0.48131 0.0
H450 H 0.27207 0.07261 0.258 0.0
H451 H 0.27892 0.15923 0.33505 0.0
C452 C 0.26369 0.17116 0.24458 0.0
C453 C 0.25299 0.16347 0.18443 0.0
C454 C 0.2737 0.07991 0.30716 0.0
C455 C 0.26791 0.12622 0.27257 0.0
C456 C 0.27641 0.06238 0.35693 0.0
C457 C 0.27802 0.07147 0.42124 0.0
C458 C 0.27274 0.10665 0.32191 0.0
C459 C 0.27726 0.09847 0.43312 0.0
C460 C 0.27118 0.1527 0.28849 0.0
C461 C 0.2511 0.13677 0.16906 0.0
N462 N 0.27468 0.11489 0.38425 0.0
N463 N 0.25826 0.11904 0.21314 0.0
H464 H 0.23933 0.31705 0.13306 0.0
H465 H 0.21174 0.43457 0.89925 0.0
H466 H 0.21893 0.30778 0.93149 0.0
H467 H 0.21582 0.44542 0.10464 0.0
H468 H 0.21867 0.38813 0.91086 0.0
H469 H 0.23431 0.36411 0.12471 0.0
C470 C 0.23379 0.32485 0.08712 0.0
C471 C 0.22961 0.30836 0.03286 0.0
C472 C 0.21817 0.40056 0.95358 0.0
C473 C 0.22404 0.36214 0.02301 0.0
C474 C 0.21435 0.42705 0.94687 0.0
C475 C 0.21334 0.44357 0.00107 0.0
C476 C 0.221 0.3905 0.01511 0.0
C477 C 0.21663 0.4331 0.06179 0.0
C478 C 0.23092 0.35171 0.08245 0.0
C479 C 0.22239 0.31961 0.97466 0.0
N480 N 0.22032 0.4071 0.06731 0.0
N481 N 0.21996 0.34571 0.97132 0.0
H482 H 0.18531 0.71989 0.4211 0.0
H483 H 0.06929 0.77938 0.62521 0.0
H484 H 0.19556 0.75429 0.61149 0.0
H485 H 0.05886 0.74605 0.43442 0.0
H486 H 0.11499 0.7662 0.62547 0.0
H487 H 0.13844 0.72548 0.42878 0.0
C488 C 0.17774 0.72851 0.46463 0.0
C489 C 0.1945 0.73689 0.51544 0.0
C490 C 0.10267 0.76144 0.5838 0.0
C491 C 0.14078 0.74331 0.52456 0.0
C492 C 0.07662 0.76883 0.5839 0.0
C493 C 0.06056 0.76356 0.5299 0.0
C494 C 0.11263 0.74895 0.52895 0.0
C495 C 0.0708 0.75023 0.47709 0.0
C496 C 0.15095 0.73167 0.46901 0.0
C497 C 0.18348 0.74774 0.57083 0.0
N498 N 0.09628 0.74351 0.4777 0.0
N499 N 0.15738 0.75078 0.57372 0.0
H500 H 0.79125 0.70448 0.1055 0.0
H501 H 0.77635 0.56645 0.91953 0.0
H502 H 0.75942 0.69424 0.91264 0.0
H503 H 0.8134 0.57642 0.10635 0.0
H504 H 0.76693 0.61301 0.91987 0.0
H505 H 0.79692 0.65751 0.11018 0.0
C506 C 0.78538 0.6924 0.06419 0.0
C507 C 0.77486 0.70343 0.00853 0.0
C508 C 0.77694 0.60506 0.96108 0.0
C509 C 0.78129 0.64955 0.01367 0.0
C510 C 0.78218 0.57852 0.96093 0.0
C511 C 0.79548 0.56786 0.0131 0.0
C512 C 0.78521 0.621 0.01378 0.0
C513 C 0.80294 0.58411 0.06543 0.0
C514 C 0.78863 0.66556 0.06692 0.0
C515 C 0.76765 0.68671 0.95654 0.0
N516 N 0.79777 0.60995 0.06442 0.0
N517 N 0.77102 0.66069 0.96039 0.0
H518 H 0.82324 0.27177 0.39309 0.0
H519 H 0.94919 0.29829 0.6213 0.0
H520 H 0.82047 0.29268 0.59465 0.0
H521 H 0.95299 0.28333 0.41778 0.0
H522 H 0.90191 0.29376 0.61297 0.0
H523 H 0.87065 0.27381 0.40122 0.0
C524 C 0.83255 0.27677 0.43905 0.0
C525 C 0.81775 0.28204 0.49326 0.0
C526 C 0.913 0.29133 0.57006 0.0
C527 C 0.87207 0.28434 0.50288 0.0
C528 C 0.93994 0.29382 0.57494 0.0
C529 C 0.9547 0.29105 0.52017 0.0
C530 C 0.90081 0.2861 0.50982 0.0
C531 C 0.94206 0.28546 0.46105 0.0
C532 C 0.85964 0.27792 0.44363 0.0
C533 C 0.83097 0.28845 0.5515 0.0
N534 N 0.91576 0.2832 0.45733 0.0
N535 N 0.8573 0.28939 0.55471 0.0
H536 H 0.71457 0.2016 0.37364 0.0
H537 H 0.75486 0.06848 0.53711 0.0
H538 H 0.76475 0.19658 0.54206 0.0
H539 H 0.69067 0.07417 0.40154 0.0
H540 H 0.76435 0.11451 0.52435 0.0
H541 H 0.71068 0.15419 0.36954 0.0
C542 C 0.72495 0.19055 0.40939 0.0
C543 C 0.7399 0.20314 0.4585 0.0
C544 C 0.7484 0.10567 0.49662 0.0
C545 C 0.73564 0.14893 0.4538 0.0
C546 C 0.74316 0.0794 0.50351 0.0
C547 C 0.72215 0.06773 0.46988 0.0
C548 C 0.73239 0.12036 0.45599 0.0
C549 C 0.70722 0.08261 0.42776 0.0
C550 C 0.72266 0.16351 0.40708 0.0
C551 C 0.75285 0.18779 0.50361 0.0
N552 N 0.71253 0.10828 0.42219 0.0
N553 N 0.7504 0.16158 0.50018 0.0
H554 H 0.32246 0.2138 0.13141 0.0
H555 H 0.44446 0.28085 0.97569 0.0
H556 H 0.31695 0.26942 0.98183 0.0
H557 H 0.45008 0.20753 0.06759 0.0
H558 H 0.39851 0.28319 0.00148 0.0
H559 H 0.36998 0.21697 0.12975 0.0
C560 C 0.33122 0.22685 0.09873 0.0
C561 C 0.31574 0.24122 0.05632 0.0
C562 C 0.40987 0.2668 0.0171 0.0
C563 C 0.36986 0.24516 0.05486 0.0
C564 C 0.43609 0.26561 0.00298 0.0
C565 C 0.45086 0.24409 0.02013 0.0
C566 C 0.39839 0.24623 0.04837 0.0
C567 C 0.4392 0.22456 0.05427 0.0
C568 C 0.35829 0.2286 0.09775 0.0
C569 C 0.32811 0.25778 0.01489 0.0
N570 N 0.41349 0.22597 0.06699 0.0
N571 N 0.35438 0.2593 0.01525 0.0
H572 H 0.25903 0.81093 0.40873 0.0
H573 H 0.27307 0.94371 0.61661 0.0
H574 H 0.29028 0.81503 0.60302 0.0
H575 H 0.24341 0.93889 0.42156 0.0
H576 H 0.28246 0.89703 0.61068 0.0
H577 H 0.25621 0.85808 0.41029 0.0
C578 C 0.26546 0.82173 0.45167 0.0
C579 C 0.27469 0.80888 0.50605 0.0
C580 C 0.27412 0.90618 0.56895 0.0
C581 C 0.27137 0.86313 0.50821 0.0
C582 C 0.26883 0.93276 0.57236 0.0
C583 C 0.25755 0.94486 0.51943 0.0
C584 C 0.26789 0.89174 0.51223 0.0
C585 C 0.25219 0.93008 0.46326 0.0
C586 C 0.26383 0.84872 0.4525 0.0
C587 C 0.28291 0.82403 0.56007 0.0
N588 N 0.2573 0.90423 0.46118 0.0
N589 N 0.28087 0.85032 0.55994 0.0
H590 H 0.68782 0.75062 0.05484 0.0
H591 H 0.5582 0.81713 0.92373 0.0
H592 H 0.68691 0.79976 0.89155 0.0
H593 H 0.55993 0.75608 0.05938 0.0
H594 H 0.60484 0.8106 0.90741 0.0
H595 H 0.64073 0.75197 0.05442 0.0
C596 C 0.67769 0.76164 0.0186 0.0
C597 C 0.69139 0.77522 0.97335 0.0
C598 C 0.59494 0.79838 0.94002 0.0
C599 C 0.63712 0.77701 0.9729 0.0
C600 C 0.5684 0.80206 0.94913 0.0
C601 C 0.5555 0.787 0.99268 0.0
C602 C 0.60849 0.77974 0.97549 0.0
C603 C 0.56935 0.76796 0.02516 0.0
C604 C 0.65072 0.76233 0.01827 0.0
C605 C 0.67712 0.78899 0.92728 0.0
N606 N 0.59515 0.76499 0.01631 0.0
N607 N 0.65074 0.78977 0.92864 0.0
loop_
_geom_bond_atom_site_label_1
_geom_bond_atom_site_label_2
_geom_bond_distance
_geom_bond_site_symmetry_2
_ccdc_geom_bond_type
Fe0 O2 1.918 . S
Fe0 O5 1.997 . S
Fe0 O6 2.002 . S
Fe0 O11 1.976 . S
Fe0 O14 1.996 . S
Fe1 O2 1.918 1_556 S
Fe1 O9 1.997 . S
Fe1 O12 1.996 . S
Fe1 O16 1.976 . S
Fe1 O19 2.002 . S
O2 Fe0 1.918 . S
O2 Fe1 1.918 1_554 S
O2 Fe3 1.918 . S
Fe3 O2 1.918 . S
Fe3 O4 2.006 . S
Fe3 O13 1.980 . S
Fe3 O17 1.991 1_554 S
Fe3 O20 1.992 1_554 S
O4 Fe3 2.006 . S
O4 C21 1.295 . S
O5 Fe0 1.997 . S
O5 C21 1.235 . S
O6 Fe0 2.002 . S
O6 C7 1.295 . S
C7 O6 1.295 . S
C7 O9 1.235 1_554 S
C8 O13 1.287 . S
C8 O14 1.255 . S
O9 Fe1 1.997 . S
O9 C7 1.235 1_556 S
C10 O16 1.287 . S
C10 O17 1.255 . S
O11 Fe0 1.976 . S
O11 C18 1.287 . S
O12 Fe1 1.996 . S
O12 C18 1.255 1_556 S
O13 Fe3 1.980 . S
O13 C8 1.287 . S
O14 Fe0 1.996 . S
O14 C8 1.255 . S
C15 O19 1.295 . S
C15 O20 1.235 . S
O16 Fe1 1.976 . S
O16 C10 1.287 . S
O17 Fe3 1.991 1_556 S
O17 C10 1.255 . S
C18 O11 1.287 . S
C18 O12 1.255 1_554 S
O19 Fe1 2.002 . S
O19 C15 1.295 . S
O20 Fe3 1.992 1_556 S
O20 C15 1.235 . S
C21 O4 1.295 . S
C21 O5 1.235 . S
Fe22 O24 1.918 . S
Fe22 O27 1.997 . S
Fe22 O28 2.002 . S
Fe22 O33 1.976 . S
Fe22 O36 1.996 . S
Fe23 O24 1.918 . S
Fe23 O31 1.997 . S
Fe23 O34 1.996 . S
Fe23 O38 1.976 . S
Fe23 O41 2.002 . S
O24 Fe22 1.918 . S
O24 Fe23 1.918 . S
O24 Fe25 1.918 . S
Fe25 O24 1.918 . S
Fe25 O26 2.002 . S
Fe25 O35 1.976 . S
Fe25 O39 1.996 . S
Fe25 O42 1.997 . S
O26 Fe25 2.002 . S
O26 C43 1.295 . S
O27 Fe22 1.997 . S
O27 C43 1.235 . S
O28 Fe22 2.002 . S
O28 C29 1.295 . S
C29 O28 1.295 . S
C29 O31 1.235 . S
C30 O35 1.287 . S
C30 O36 1.255 . S
O31 Fe23 1.997 . S
O31 C29 1.235 . S
C32 O38 1.287 . S
C32 O39 1.255 . S
O33 Fe22 1.976 . S
O33 C40 1.287 . S
O34 Fe23 1.996 . S
O34 C40 1.255 . S
O35 Fe25 1.976 . S
O35 C30 1.287 . S
O36 Fe22 1.996 . S
O36 C30 1.255 . S
C37 O41 1.295 . S
C37 O42 1.235 . S
O38 Fe23 1.976 . S
O38 C32 1.287 . S
O39 Fe25 1.996 . S
O39 C32 1.255 . S
C40 O33 1.287 . S
C40 O34 1.255 . S
O41 Fe23 2.002 . S
O41 C37 1.295 . S
O42 Fe25 1.997 . S
O42 C37 1.235 . S
C43 O26 1.295 . S
C43 O27 1.235 . S
Fe44 O46 1.918 1_556 S
Fe44 O49 1.997 . S
Fe44 O50 2.002 . S
Fe44 O55 1.976 . S
Fe44 O58 1.996 . S
Fe45 O46 1.918 . S
Fe45 O53 1.997 . S
Fe45 O56 1.996 . S
Fe45 O60 1.976 . S
Fe45 O63 2.002 . S
O46 Fe44 1.918 1_554 S
O46 Fe45 1.918 . S
O46 Fe47 1.918 . S
Fe47 O46 1.918 . S
Fe47 O48 2.002 1_554 S
Fe47 O57 1.976 1_554 S
Fe47 O61 1.996 . S
Fe47 O64 1.997 . S
O48 Fe47 2.002 1_556 S
O48 C65 1.295 . S
O49 Fe44 1.997 . S
O49 C65 1.235 . S
O50 Fe44 2.002 . S
O50 C51 1.295 1_556 S
C51 O50 1.295 1_554 S
C51 O53 1.235 . S
C52 O57 1.287 . S
C52 O58 1.255 . S
O53 Fe45 1.997 . S
O53 C51 1.235 . S
C54 O60 1.287 . S
C54 O61 1.255 . S
O55 Fe44 1.976 . S
O55 C62 1.287 1_556 S
O56 Fe45 1.996 . S
O56 C62 1.255 . S
O57 Fe47 1.976 1_556 S
O57 C52 1.287 . S
O58 Fe44 1.996 . S
O58 C52 1.255 . S
C59 O63 1.295 . S
C59 O64 1.235 . S
O60 Fe45 1.976 . S
O60 C54 1.287 . S
O61 Fe47 1.996 . S
O61 C54 1.255 . S
C62 O55 1.287 1_554 S
C62 O56 1.255 . S
O63 Fe45 2.002 . S
O63 C59 1.295 . S
O64 Fe47 1.997 . S
O64 C59 1.235 . S
C65 O48 1.295 . S
C65 O49 1.235 . S
Fe66 O68 1.918 . S
Fe66 O71 1.997 . S
Fe66 O72 2.002 . S
Fe66 O77 1.976 . S
Fe66 O80 1.996 . S
Fe67 O68 1.918 . S
Fe67 O75 1.997 . S
Fe67 O78 1.996 . S
Fe67 O82 1.976 . S
Fe67 O85 2.002 . S
O68 Fe66 1.918 . S
O68 Fe67 1.918 . S
O68 Fe69 1.918 . S
Fe69 O68 1.918 . S
Fe69 O70 2.002 . S
Fe69 O79 1.976 . S
Fe69 O83 1.996 . S
Fe69 O86 1.997 . S
O70 Fe69 2.002 . S
O70 C87 1.295 . S
O71 Fe66 1.997 . S
O71 C87 1.235 . S
O72 Fe66 2.002 . S
O72 C73 1.295 . S
C73 O72 1.295 . S
C73 O75 1.235 . S
C74 O79 1.287 . S
C74 O80 1.255 . S
O75 Fe67 1.997 . S
O75 C73 1.235 . S
C76 O82 1.287 . S
C76 O83 1.255 . S
O77 Fe66 1.976 . S
O77 C84 1.287 . S
O78 Fe67 1.996 . S
O78 C84 1.255 . S
O79 Fe69 1.976 . S
O79 C74 1.287 . S
O80 Fe66 1.996 . S
O80 C74 1.255 . S
C81 O85 1.295 . S
C81 O86 1.235 . S
O82 Fe67 1.976 . S
O82 C76 1.287 . S
O83 Fe69 1.996 . S
O83 C76 1.255 . S
C84 O77 1.287 . S
C84 O78 1.255 . S
O85 Fe67 2.002 . S
O85 C81 1.295 . S
O86 Fe69 1.997 . S
O86 C81 1.235 . S
C87 O70 1.295 . S
C87 O71 1.235 . S
H88 C91 0.929 1_554 S
H89 C94 0.929 . S
H90 C96 0.930 . S
C91 H88 0.929 1_556 S
C91 C92 1.406 . S
C91 C93 1.388 1_556 S
C92 C91 1.406 . S
C92 C96 1.407 . S
C93 C91 1.388 1_554 S
C93 C94 1.394 . S
C94 H89 0.929 . S
C94 C93 1.394 . S
C94 C95 1.382 1_554 S
C95 C94 1.382 1_556 S
C95 C96 1.392 . S
C95 N97 1.420 . S
C96 H90 0.930 . S
C96 C92 1.407 . S
C96 C95 1.392 . S
N97 C95 1.420 . S
N97 C98 1.244 1_556 S
C98 N97 1.244 1_554 S
H99 C102 0.929 . S
H100 C105 0.928 1_455 S
H101 C107 0.930 . S
C102 H99 0.929 . S
C102 C103 1.398 . S
C102 C104 1.396 . S
C103 C102 1.398 . S
C103 C107 1.407 . S
C104 C102 1.396 . S
C104 C105 1.394 . S
C105 H100 0.928 1_655 S
C105 C104 1.394 . S
C105 C106 1.382 1_655 S
C106 C105 1.382 1_455 S
C106 C107 1.392 1_455 S
C106 N108 1.420 . S
C107 H101 0.930 . S
C107 C103 1.407 . S
C107 C106 1.392 1_655 S
N108 C106 1.420 . S
N108 C109 1.244 . S
C109 N108 1.244 . S
H110 C113 0.929 . S
H111 C116 0.929 . S
H112 C118 0.930 . S
C113 H110 0.929 . S
C113 C114 1.398 . S
C113 C115 1.396 1_554 S
C114 C113 1.398 . S
C114 C118 1.407 . S
C115 C113 1.396 1_556 S
C115 C116 1.394 . S
C116 H111 0.929 . S
C116 C115 1.394 . S
C116 C117 1.382 1_556 S
C117 C116 1.382 1_554 S
C117 C118 1.392 . S
C117 N119 1.420 . S
C118 H112 0.930 . S
C118 C114 1.407 . S
C118 C117 1.392 . S
N119 C117 1.420 . S
N119 C120 1.244 . S
C120 N119 1.244 . S
H121 C124 0.929 . S
H122 C127 0.929 . S
H123 C129 0.930 . S
C124 H121 0.929 . S
C124 C125 1.398 . S
C124 C126 1.396 . S
C125 C124 1.398 . S
C125 C129 1.407 . S
C126 C124 1.396 . S
C126 C127 1.394 . S
C127 H122 0.929 . S
C127 C126 1.394 . S
C127 C128 1.391 . S
C128 C127 1.391 . S
C128 C129 1.406 . S
C128 N130 1.398 1_455 S
C129 H123 0.930 . S
C129 C125 1.407 . S
C129 C128 1.406 . S
N130 C128 1.398 1_655 S
N130 C131 1.244 . S
C131 N130 1.244 . S
H132 C135 0.929 . S
H133 C138 0.904 1_545 S
H134 C140 0.930 . S
C135 H132 0.929 . S
C135 C136 1.398 . S
C135 C137 1.396 . S
C136 C135 1.398 . S
C136 C140 1.407 . S
C137 C135 1.396 . S
C137 C138 1.394 . S
C138 H133 0.904 1_565 S
C138 C137 1.394 . S
C138 C139 1.382 1_565 S
C139 C138 1.382 1_545 S
C139 C140 1.392 1_545 S
C139 N141 1.420 . S
C140 H134 0.930 . S
C140 C136 1.407 . S
C140 C139 1.392 1_565 S
N141 C139 1.420 . S
N141 C142 1.244 . S
C142 N141 1.244 . S
H143 C146 0.929 . S
H144 C149 0.929 . S
H145 C151 0.930 . S
C146 H143 0.929 . S
C146 C147 1.398 1_554 S
C146 C148 1.396 . S
C147 C146 1.398 1_556 S
C147 C151 1.407 . S
C148 C146 1.396 . S
C148 C149 1.394 . S
C149 H144 0.929 . S
C149 C148 1.394 . S
C149 C150 1.382 1_554 S
C150 C149 1.382 1_556 S
C150 C151 1.392 . S
C150 N152 1.420 . S
C151 H145 0.930 . S
C151 C147 1.407 . S
C151 C150 1.392 . S
N152 C150 1.420 . S
N152 C153 1.244 1_556 S
C153 N152 1.244 1_554 S
H154 C157 0.929 . S
H155 C160 0.929 1_565 S
H156 C162 0.930 . S
C157 H154 0.929 . S
C157 C158 1.398 . S
C157 C159 1.396 . S
C158 C157 1.398 . S
C158 C162 1.407 . S
C159 C157 1.396 . S
C159 C160 1.394 . S
C160 H155 0.929 1_545 S
C160 C159 1.394 . S
C160 C161 1.382 1_545 S
C161 C160 1.382 1_565 S
C161 C162 1.392 1_565 S
C161 N163 1.420 . S
C162 H156 0.930 . S
C162 C158 1.407 . S
C162 C161 1.392 1_545 S
N163 C161 1.420 . S
N163 C164 1.244 . S
C164 N163 1.244 . S
H165 C168 0.929 . S
H166 C171 0.929 . S
H167 C173 0.930 . S
C168 H165 0.929 . S
C168 C169 1.398 . S
C168 C170 1.396 1_554 S
C169 C168 1.398 . S
C169 C173 1.407 . S
C170 C168 1.396 1_556 S
C170 C171 1.394 . S
C171 H166 0.929 . S
C171 C170 1.394 . S
C171 C172 1.382 1_556 S
C172 C171 1.382 1_554 S
C172 C173 1.392 . S
C172 N174 1.420 . S
C173 H167 0.930 . S
C173 C169 1.407 . S
C173 C172 1.392 . S
N174 C172 1.420 . S
N174 C175 1.244 . S
C175 N174 1.244 . S
H176 C182 0.930 . S
H177 C186 0.930 . S
H178 C191 0.929 . S
H179 C189 0.929 . S
H180 C184 0.929 . S
H181 C190 0.929 . S
C182 H176 0.930 . S
C182 C183 1.367 . S
C182 C190 1.378 . S
C183 C182 1.367 . S
C183 C191 1.433 . S
C184 H180 0.929 . S
C184 C186 1.378 . S
C184 C188 1.350 . S
C185 C188 1.463 . S
C185 C190 1.350 . S
C185 N193 1.427 . S
C186 H177 0.930 . S
C186 C184 1.378 . S
C186 C187 1.367 . S
C187 C186 1.367 . S
C187 C189 1.433 . S
C188 C184 1.350 . S
C188 C185 1.463 . S
C188 N192 1.427 . S
C189 H179 0.929 . S
C189 C187 1.433 . S
C189 N192 1.384 . S
C190 H181 0.929 . S
C190 C182 1.378 . S
C190 C185 1.350 . S
C191 H178 0.929 . S
C191 C183 1.433 . S
C191 N193 1.384 . S
N192 C188 1.427 . S
N192 C189 1.384 . S
N193 C185 1.427 . S
N193 C191 1.384 . S
H194 C200 0.930 . S
H195 C204 0.930 . S
H196 C209 0.929 . S
H197 C207 0.929 . S
H198 C202 0.929 . S
H199 C208 0.929 . S
C200 H194 0.930 . S
C200 C201 1.367 . S
C200 C208 1.378 . S
C201 C200 1.367 . S
C201 C209 1.433 . S
C202 H198 0.929 . S
C202 C204 1.378 . S
C202 C206 1.350 . S
C203 C206 1.463 . S
C203 C208 1.350 . S
C203 N211 1.427 . S
C204 H195 0.930 . S
C204 C202 1.378 . S
C204 C205 1.367 . S
C205 C204 1.367 . S
C205 C207 1.433 . S
C206 C202 1.350 . S
C206 C203 1.463 . S
C206 N210 1.427 . S
C207 H197 0.929 . S
C207 C205 1.433 . S
C207 N210 1.384 . S
C208 H199 0.929 . S
C208 C200 1.378 . S
C208 C203 1.350 . S
C209 H196 0.929 . S
C209 C201 1.433 . S
C209 N211 1.384 . S
N210 C206 1.427 . S
N210 C207 1.384 . S
N211 C203 1.427 . S
N211 C209 1.384 . S
H212 C218 0.930 . S
H213 C222 0.930 . S
H214 C227 0.929 . S
H215 C225 0.929 . S
H216 C220 0.929 . S
H217 C226 0.929 . S
C218 H212 0.930 . S
C218 C219 1.367 . S
C218 C226 1.378 . S
C219 C218 1.367 . S
C219 C227 1.433 . S
C220 H216 0.929 . S
C220 C222 1.378 . S
C220 C224 1.350 . S
C221 C224 1.463 . S
C221 C226 1.350 . S
C221 N229 1.427 . S
C222 H213 0.930 . S
C222 C220 1.378 . S
C222 C223 1.367 . S
C223 C222 1.367 . S
C223 C225 1.433 . S
C224 C220 1.350 . S
C224 C221 1.463 . S
C224 N228 1.427 . S
C225 H215 0.929 . S
C225 C223 1.433 . S
C225 N228 1.384 . S
C226 H217 0.929 . S
C226 C218 1.378 . S
C226 C221 1.350 . S
C227 H214 0.929 . S
C227 C219 1.433 . S
C227 N229 1.384 . S
N228 C224 1.427 . S
N228 C225 1.384 . S
N229 C221 1.427 . S
N229 C227 1.384 . S
H230 C236 0.930 . S
H231 C240 0.930 . S
H232 C245 0.929 . S
H233 C243 0.929 . S
H234 C238 0.929 . S
H235 C244 0.929 . S
C236 H230 0.930 . S
C236 C237 1.367 . S
C236 C244 1.378 . S
C237 C236 1.367 . S
C237 C245 1.433 . S
C238 H234 0.929 . S
C238 C240 1.378 . S
C238 C242 1.350 . S
C239 C242 1.463 . S
C239 C244 1.350 . S
C239 N247 1.427 . S
C240 H231 0.930 . S
C240 C238 1.378 . S
C240 C241 1.367 . S
C241 C240 1.367 . S
C241 C243 1.433 . S
C242 C238 1.350 . S
C242 C239 1.463 . S
C242 N246 1.427 . S
C243 H233 0.929 . S
C243 C241 1.433 . S
C243 N246 1.384 . S
C244 H235 0.929 . S
C244 C236 1.378 . S
C244 C239 1.350 . S
C245 H232 0.929 . S
C245 C237 1.433 . S
C245 N247 1.384 . S
N246 C242 1.427 . S
N246 C243 1.384 . S
N247 C239 1.427 . S
N247 C245 1.384 . S
H248 C254 0.930 . S
H249 C258 0.930 . S
H250 C263 0.929 . S
H251 C261 0.929 . S
H252 C256 0.929 . S
H253 C262 0.929 . S
C254 H248 0.930 . S
C254 C255 1.367 . S
C254 C262 1.378 . S
C255 C254 1.367 . S
C255 C263 1.433 . S
C256 H252 0.929 . S
C256 C258 1.378 . S
C256 C260 1.350 . S
C257 C260 1.463 . S
C257 C262 1.350 . S
C257 N265 1.427 . S
C258 H249 0.930 . S
C258 C256 1.378 . S
C258 C259 1.367 . S
C259 C258 1.367 . S
C259 C261 1.433 . S
C260 C256 1.350 . S
C260 C257 1.463 . S
C260 N264 1.427 . S
C261 H251 0.929 . S
C261 C259 1.433 . S
C261 N264 1.384 . S
C262 H253 0.929 . S
C262 C254 1.378 . S
C262 C257 1.350 . S
C263 H250 0.929 . S
C263 C255 1.433 . S
C263 N265 1.384 . S
N264 C260 1.427 . S
N264 C261 1.384 . S
N265 C257 1.427 . S
N265 C263 1.384 . S
H266 C272 0.930 . S
H267 C276 0.930 . S
H268 C281 0.929 . S
H269 C279 0.929 . S
H270 C274 0.929 . S
H271 C280 0.929 . S
C272 H266 0.930 . S
C272 C273 1.367 . S
C272 C280 1.378 . S
C273 C272 1.367 . S
C273 C281 1.433 . S
C274 H270 0.929 . S
C274 C276 1.378 . S
C274 C278 1.350 . S
C275 C278 1.463 . S
C275 C280 1.350 . S
C275 N283 1.427 . S
C276 H267 0.930 . S
C276 C274 1.378 . S
C276 C277 1.367 . S
C277 C276 1.367 . S
C277 C279 1.433 . S
C278 C274 1.350 . S
C278 C275 1.463 . S
C278 N282 1.427 . S
C279 H269 0.929 . S
C279 C277 1.433 . S
C279 N282 1.384 . S
C280 H271 0.929 . S
C280 C272 1.378 . S
C280 C275 1.350 . S
C281 H268 0.929 . S
C281 C273 1.433 . S
C281 N283 1.384 . S
N282 C278 1.427 . S
N282 C279 1.384 . S
N283 C275 1.427 . S
N283 C281 1.384 . S
H284 C290 0.930 . S
H285 C294 0.930 . S
H286 C299 0.929 . S
H287 C297 0.929 . S
H288 C292 0.929 . S
H289 C298 0.929 . S
C290 H284 0.930 . S
C290 C291 1.367 . S
C290 C298 1.378 . S
C291 C290 1.367 . S
C291 C299 1.433 . S
C292 H288 0.929 . S
C292 C294 1.378 . S
C292 C296 1.350 . S
C293 C296 1.463 . S
C293 C298 1.350 . S
C293 N301 1.427 . S
C294 H285 0.930 . S
C294 C292 1.378 . S
C294 C295 1.367 . S
C295 C294 1.367 . S
C295 C297 1.433 . S
C296 C292 1.350 . S
C296 C293 1.463 . S
C296 N300 1.427 . S
C297 H287 0.929 . S
C297 C295 1.433 . S
C297 N300 1.384 . S
C298 H289 0.929 . S
C298 C290 1.378 . S
C298 C293 1.350 . S
C299 H286 0.929 . S
C299 C291 1.433 . S
C299 N301 1.384 . S
N300 C296 1.427 . S
N300 C297 1.384 . S
N301 C293 1.427 . S
N301 C299 1.384 . S
H302 C308 0.930 . S
H303 C312 0.930 . S
H304 C317 0.929 . S
H305 C315 0.929 . S
H306 C310 0.929 . S
H307 C316 0.929 . S
C308 H302 0.930 . S
C308 C309 1.367 . S
C308 C316 1.378 . S
C309 C308 1.367 . S
C309 C317 1.433 . S
C310 H306 0.929 . S
C310 C312 1.378 . S
C310 C314 1.350 . S
C311 C314 1.463 . S
C311 C316 1.350 . S
C311 N319 1.427 . S
C312 H303 0.930 . S
C312 C310 1.378 . S
C312 C313 1.367 . S
C313 C312 1.367 . S
C313 C315 1.433 . S
C314 C310 1.350 . S
C314 C311 1.463 . S
C314 N318 1.427 . S
C315 H305 0.929 . S
C315 C313 1.433 . S
C315 N318 1.384 . S
C316 H307 0.929 . S
C316 C308 1.378 . S
C316 C311 1.350 . S
C317 H304 0.929 . S
C317 C309 1.433 . S
C317 N319 1.384 . S
N318 C314 1.427 . S
N318 C315 1.384 . S
N319 C311 1.427 . S
N319 C317 1.384 . S
H320 C326 0.930 . S
H321 C330 0.930 . S
H322 C335 0.929 . S
H323 C333 0.929 . S
H324 C328 0.929 . S
H325 C334 0.929 . S
C326 H320 0.930 . S
C326 C327 1.367 . S
C326 C334 1.378 . S
C327 C326 1.367 . S
C327 C335 1.433 . S
C328 H324 0.929 . S
C328 C330 1.378 . S
C328 C332 1.350 . S
C329 C332 1.463 . S
C329 C334 1.350 . S
C329 N337 1.427 . S
C330 H321 0.930 . S
C330 C328 1.378 . S
C330 C331 1.367 . S
C331 C330 1.367 . S
C331 C333 1.433 . S
C332 C328 1.350 . S
C332 C329 1.463 . S
C332 N336 1.427 . S
C333 H323 0.929 . S
C333 C331 1.433 . S
C333 N336 1.384 . S
C334 H325 0.929 . S
C334 C326 1.378 . S
C334 C329 1.350 . S
C335 H322 0.929 . S
C335 C327 1.433 . S
C335 N337 1.384 . S
N336 C332 1.427 . S
N336 C333 1.384 . S
N337 C329 1.427 . S
N337 C335 1.384 . S
H338 C344 0.930 . S
H339 C348 0.930 . S
H340 C353 0.929 . S
H341 C351 0.929 . S
H342 C346 0.929 . S
H343 C352 0.929 . S
C344 H338 0.930 . S
C344 C345 1.367 . S
C344 C352 1.378 . S
C345 C344 1.367 . S
C345 C353 1.433 . S
C346 H342 0.929 . S
C346 C348 1.378 . S
C346 C350 1.350 . S
C347 C350 1.463 . S
C347 C352 1.350 . S
C347 N355 1.427 . S
C348 H339 0.930 . S
C348 C346 1.378 . S
C348 C349 1.367 . S
C349 C348 1.367 . S
C349 C351 1.433 . S
C350 C346 1.350 . S
C350 C347 1.463 . S
C350 N354 1.427 . S
C351 H341 0.929 . S
C351 C349 1.433 . S
C351 N354 1.384 . S
C352 H343 0.929 . S
C352 C344 1.378 . S
C352 C347 1.350 . S
C353 H340 0.929 . S
C353 C345 1.433 . S
C353 N355 1.384 . S
N354 C350 1.427 . S
N354 C351 1.384 . S
N355 C347 1.427 . S
N355 C353 1.384 . S
H356 C362 0.930 . S
H357 C366 0.930 . S
H358 C371 0.929 . S
H359 C369 0.929 . S
H360 C364 0.929 . S
H361 C370 0.929 . S
C362 H356 0.930 . S
C362 C363 1.367 . S
C362 C370 1.378 . S
C363 C362 1.367 . S
C363 C371 1.433 . S
C364 H360 0.929 . S
C364 C366 1.378 . S
C364 C368 1.350 . S
C365 C368 1.463 . S
C365 C370 1.350 . S
C365 N373 1.427 . S
C366 H357 0.930 . S
C366 C364 1.378 . S
C366 C367 1.367 . S
C367 C366 1.367 . S
C367 C369 1.433 . S
C368 C364 1.350 . S
C368 C365 1.463 . S
C368 N372 1.427 . S
C369 H359 0.929 . S
C369 C367 1.433 . S
C369 N372 1.384 . S
C370 H361 0.929 . S
C370 C362 1.378 . S
C370 C365 1.350 . S
C371 H358 0.929 . S
C371 C363 1.433 . S
C371 N373 1.384 . S
N372 C368 1.427 . S
N372 C369 1.384 . S
N373 C365 1.427 . S
N373 C371 1.384 . S
H374 C380 0.930 . S
H375 C384 0.930 . S
H376 C389 0.929 . S
H377 C387 0.929 . S
H378 C382 0.929 . S
H379 C388 0.929 . S
C380 H374 0.930 . S
C380 C381 1.367 . S
C380 C388 1.378 . S
C381 C380 1.367 . S
C381 C389 1.433 . S
C382 H378 0.929 . S
C382 C384 1.378 . S
C382 C386 1.350 . S
C383 C386 1.463 . S
C383 C388 1.350 . S
C383 N391 1.427 . S
C384 H375 0.930 . S
C384 C382 1.378 . S
C384 C385 1.367 . S
C385 C384 1.367 . S
C385 C387 1.433 . S
C386 C382 1.350 . S
C386 C383 1.463 . S
C386 N390 1.427 . S
C387 H377 0.929 . S
C387 C385 1.433 . S
C387 N390 1.384 . S
C388 H379 0.929 . S
C388 C380 1.378 . S
C388 C383 1.350 . S
C389 H376 0.929 . S
C389 C381 1.433 . S
C389 N391 1.384 . S
N390 C386 1.427 . S
N390 C387 1.384 . S
N391 C383 1.427 . S
N391 C389 1.384 . S
H392 C398 0.930 . S
H393 C402 0.930 . S
H394 C407 0.929 . S
H395 C405 0.929 . S
H396 C400 0.929 . S
H397 C406 0.929 . S
C398 H392 0.930 . S
C398 C399 1.367 . S
C398 C406 1.378 . S
C399 C398 1.367 . S
C399 C407 1.433 . S
C400 H396 0.929 . S
C400 C402 1.378 . S
C400 C404 1.350 . S
C401 C404 1.463 . S
C401 C406 1.350 . S
C401 N409 1.427 . S
C402 H393 0.930 . S
C402 C400 1.378 . S
C402 C403 1.367 . S
C403 C402 1.367 . S
C403 C405 1.433 . S
C404 C400 1.350 . S
C404 C401 1.463 . S
C404 N408 1.427 . S
C405 H395 0.929 . S
C405 C403 1.433 . S
C405 N408 1.384 . S
C406 H397 0.929 . S
C406 C398 1.378 . S
C406 C401 1.350 . S
C407 H394 0.929 . S
C407 C399 1.433 . S
C407 N409 1.384 . S
N408 C404 1.427 . S
N408 C405 1.384 . S
N409 C401 1.427 . S
N409 C407 1.384 . S
H410 C416 0.930 . S
H411 C420 0.930 . S
H412 C425 0.929 . S
H413 C423 0.929 . S
H414 C418 0.929 . S
H415 C424 0.929 . S
C416 H410 0.930 . S
C416 C417 1.367 . S
C416 C424 1.378 . S
C417 C416 1.367 . S
C417 C425 1.433 . S
C418 H414 0.929 . S
C418 C420 1.378 . S
C418 C422 1.350 . S
C419 C422 1.463 . S
C419 C424 1.350 . S
C419 N427 1.427 . S
C420 H411 0.930 . S
C420 C418 1.378 . S
C420 C421 1.367 . S
C421 C420 1.367 . S
C421 C423 1.433 . S
C422 C418 1.350 . S
C422 C419 1.463 . S
C422 N426 1.427 . S
C423 H413 0.929 . S
C423 C421 1.433 . S
C423 N426 1.384 . S
C424 H415 0.929 . S
C424 C416 1.378 . S
C424 C419 1.350 . S
C425 H412 0.929 . S
C425 C417 1.433 . S
C425 N427 1.384 . S
N426 C422 1.427 . S
N426 C423 1.384 . S
N427 C419 1.427 . S
N427 C425 1.384 . S
H428 C434 0.930 . S
H429 C438 0.930 . S
H430 C443 0.929 . S
H431 C441 0.929 . S
H432 C436 0.929 . S
H433 C442 0.929 . S
C434 H428 0.930 . S
C434 C435 1.367 . S
C434 C442 1.378 . S
C435 C434 1.367 . S
C435 C443 1.433 . S
C436 H432 0.929 . S
C436 C438 1.378 . S
C436 C440 1.350 . S
C437 C440 1.463 . S
C437 C442 1.350 . S
C437 N445 1.427 . S
C438 H429 0.930 . S
C438 C436 1.378 . S
C438 C439 1.367 . S
C439 C438 1.367 . S
C439 C441 1.433 . S
C440 C436 1.350 . S
C440 C437 1.463 . S
C440 N444 1.427 . S
C441 H431 0.929 . S
C441 C439 1.433 . S
C441 N444 1.384 . S
C442 H433 0.929 . S
C442 C434 1.378 . S
C442 C437 1.350 . S
C443 H430 0.929 . S
C443 C435 1.433 . S
C443 N445 1.384 . S
N444 C440 1.427 . S
N444 C441 1.384 . S
N445 C437 1.427 . S
N445 C443 1.384 . S
H446 C452 0.930 . S
H447 C456 0.930 . S
H448 C461 0.929 . S
H449 C459 0.929 . S
H450 C454 0.929 . S
H451 C460 0.929 . S
C452 H446 0.930 . S
C452 C453 1.367 . S
C452 C460 1.378 . S
C453 C452 1.367 . S
C453 C461 1.433 . S
C454 H450 0.929 . S
C454 C456 1.378 . S
C454 C458 1.350 . S
C455 C458 1.463 . S
C455 C460 1.350 . S
C455 N463 1.427 . S
C456 H447 0.930 . S
C456 C454 1.378 . S
C456 C457 1.367 . S
C457 C456 1.367 . S
C457 C459 1.433 . S
C458 C454 1.350 . S
C458 C455 1.463 . S
C458 N462 1.427 . S
C459 H449 0.929 . S
C459 C457 1.433 . S
C459 N462 1.384 . S
C460 H451 0.929 . S
C460 C452 1.378 . S
C460 C455 1.350 . S
C461 H448 0.929 . S
C461 C453 1.433 . S
C461 N463 1.384 . S
N462 C458 1.427 . S
N462 C459 1.384 . S
N463 C455 1.427 . S
N463 C461 1.384 . S
H464 C470 0.930 . S
H465 C474 0.930 . S
H466 C479 0.929 . S
H467 C477 0.929 . S
H468 C472 0.929 . S
H469 C478 0.929 . S
C470 H464 0.930 . S
C470 C471 1.367 . S
C470 C478 1.378 . S
C471 C470 1.367 . S
C471 C479 1.433 1_554 S
C472 H468 0.929 . S
C472 C474 1.378 . S
C472 C476 1.350 1_556 S
C473 C476 1.463 . S
C473 C478 1.350 . S
C473 N481 1.427 1_554 S
C474 H465 0.930 . S
C474 C472 1.378 . S
C474 C475 1.367 1_556 S
C475 C474 1.367 1_554 S
C475 C477 1.433 . S
C476 C472 1.350 1_554 S
C476 C473 1.463 . S
C476 N480 1.427 . S
C477 H467 0.929 . S
C477 C475 1.433 . S
C477 N480 1.384 . S
C478 H469 0.929 . S
C478 C470 1.378 . S
C478 C473 1.350 . S
C479 H466 0.929 . S
C479 C471 1.433 1_556 S
C479 N481 1.384 . S
N480 C476 1.427 . S
N480 C477 1.384 . S
N481 C473 1.427 1_556 S
N481 C479 1.384 . S
H482 C488 0.930 . S
H483 C492 0.930 . S
H484 C497 0.929 . S
H485 C495 0.929 . S
H486 C490 0.929 . S
H487 C496 0.929 . S
C488 H482 0.930 . S
C488 C489 1.367 . S
C488 C496 1.378 . S
C489 C488 1.367 . S
C489 C497 1.433 . S
C490 H486 0.929 . S
C490 C492 1.378 . S
C490 C494 1.350 . S
C491 C494 1.463 . S
C491 C496 1.350 . S
C491 N499 1.427 . S
C492 H483 0.930 . S
C492 C490 1.378 . S
C492 C493 1.367 . S
C493 C492 1.367 . S
C493 C495 1.433 . S
C494 C490 1.350 . S
C494 C491 1.463 . S
C494 N498 1.427 . S
C495 H485 0.929 . S
C495 C493 1.433 . S
C495 N498 1.384 . S
C496 H487 0.929 . S
C496 C488 1.378 . S
C496 C491 1.350 . S
C497 H484 0.929 . S
C497 C489 1.433 . S
C497 N499 1.384 . S
N498 C494 1.427 . S
N498 C495 1.384 . S
N499 C491 1.427 . S
N499 C497 1.384 . S
H500 C506 0.930 . S
H501 C510 0.930 . S
H502 C515 0.929 . S
H503 C513 0.929 . S
H504 C508 0.929 . S
H505 C514 0.929 . S
C506 H500 0.930 . S
C506 C507 1.367 . S
C506 C514 1.378 . S
C507 C506 1.367 . S
C507 C515 1.433 1_554 S
C508 H504 0.929 . S
C508 C510 1.378 . S
C508 C512 1.350 1_556 S
C509 C512 1.463 . S
C509 C514 1.350 . S
C509 N517 1.427 1_554 S
C510 H501 0.930 . S
C510 C508 1.378 . S
C510 C511 1.367 1_556 S
C511 C510 1.367 1_554 S
C511 C513 1.433 . S
C512 C508 1.350 1_554 S
C512 C509 1.463 . S
C512 N516 1.427 . S
C513 H503 0.929 . S
C513 C511 1.433 . S
C513 N516 1.384 . S
C514 H505 0.929 . S
C514 C506 1.378 . S
C514 C509 1.350 . S
C515 H502 0.929 . S
C515 C507 1.433 1_556 S
C515 N517 1.384 . S
N516 C512 1.427 . S
N516 C513 1.384 . S
N517 C509 1.427 1_556 S
N517 C515 1.384 . S
H518 C524 0.930 . S
H519 C528 0.930 . S
H520 C533 0.929 . S
H521 C531 0.929 . S
H522 C526 0.929 . S
H523 C532 0.929 . S
C524 H518 0.930 . S
C524 C525 1.367 . S
C524 C532 1.378 . S
C525 C524 1.367 . S
C525 C533 1.433 . S
C526 H522 0.929 . S
C526 C528 1.378 . S
C526 C530 1.350 . S
C527 C530 1.463 . S
C527 C532 1.350 . S
C527 N535 1.427 . S
C528 H519 0.930 . S
C528 C526 1.378 . S
C528 C529 1.367 . S
C529 C528 1.367 . S
C529 C531 1.433 . S
C530 C526 1.350 . S
C530 C527 1.463 . S
C530 N534 1.427 . S
C531 H521 0.929 . S
C531 C529 1.433 . S
C531 N534 1.384 . S
C532 H523 0.929 . S
C532 C524 1.378 . S
C532 C527 1.350 . S
C533 H520 0.929 . S
C533 C525 1.433 . S
C533 N535 1.384 . S
N534 C530 1.427 . S
N534 C531 1.384 . S
N535 C527 1.427 . S
N535 C533 1.384 . S
H536 C542 0.930 . S
H537 C546 0.930 . S
H538 C551 0.929 . S
H539 C549 0.929 . S
H540 C544 0.929 . S
H541 C550 0.929 . S
C542 H536 0.930 . S
C542 C543 1.367 . S
C542 C550 1.378 . S
C543 C542 1.367 . S
C543 C551 1.433 . S
C544 H540 0.929 . S
C544 C546 1.378 . S
C544 C548 1.350 . S
C545 C548 1.463 . S
C545 C550 1.350 . S
C545 N553 1.427 . S
C546 H537 0.930 . S
C546 C544 1.378 . S
C546 C547 1.367 . S
C547 C546 1.367 . S
C547 C549 1.433 . S
C548 C544 1.350 . S
C548 C545 1.463 . S
C548 N552 1.427 . S
C549 H539 0.929 . S
C549 C547 1.433 . S
C549 N552 1.384 . S
C550 H541 0.929 . S
C550 C542 1.378 . S
C550 C545 1.350 . S
C551 H538 0.929 . S
C551 C543 1.433 . S
C551 N553 1.384 . S
N552 C548 1.427 . S
N552 C549 1.384 . S
N553 C545 1.427 . S
N553 C551 1.384 . S
H554 C560 0.930 . S
H555 C564 0.930 . S
H556 C569 0.929 . S
H557 C567 0.929 . S
H558 C562 0.929 . S
H559 C568 0.929 . S
C560 H554 0.930 . S
C560 C561 1.367 . S
C560 C568 1.378 . S
C561 C560 1.367 . S
C561 C569 1.433 1_554 S
C562 H558 0.929 . S
C562 C564 1.378 . S
C562 C566 1.350 1_556 S
C563 C566 1.463 . S
C563 C568 1.350 . S
C563 N571 1.427 1_554 S
C564 H555 0.930 . S
C564 C562 1.378 . S
C564 C565 1.367 1_556 S
C565 C564 1.367 1_554 S
C565 C567 1.433 . S
C566 C562 1.350 1_554 S
C566 C563 1.463 . S
C566 N570 1.427 . S
C567 H557 0.929 . S
C567 C565 1.433 . S
C567 N570 1.384 . S
C568 H559 0.929 . S
C568 C560 1.378 . S
C568 C563 1.350 . S
C569 H556 0.929 . S
C569 C561 1.433 1_556 S
C569 N571 1.384 . S
N570 C566 1.427 . S
N570 C567 1.384 . S
N571 C563 1.427 1_556 S
N571 C569 1.384 . S
H572 C578 0.930 . S
H573 C582 0.930 . S
H574 C587 0.929 . S
H575 C585 0.929 . S
H576 C580 0.929 . S
H577 C586 0.929 . S
C578 H572 0.930 . S
C578 C579 1.367 . S
C578 C586 1.378 . S
C579 C578 1.367 . S
C579 C587 1.433 . S
C580 H576 0.929 . S
C580 C582 1.378 . S
C580 C584 1.350 . S
C581 C584 1.463 . S
C581 C586 1.350 . S
C581 N589 1.427 . S
C582 H573 0.930 . S
C582 C580 1.378 . S
C582 C583 1.367 . S
C583 C582 1.367 . S
C583 C585 1.433 . S
C584 C580 1.350 . S
C584 C581 1.463 . S
C584 N588 1.427 . S
C585 H575 0.929 . S
C585 C583 1.433 . S
C585 N588 1.384 . S
C586 H577 0.929 . S
C586 C578 1.378 . S
C586 C581 1.350 . S
C587 H574 0.929 . S
C587 C579 1.433 . S
C587 N589 1.384 . S
N588 C584 1.427 . S
N588 C585 1.384 . S
N589 C581 1.427 . S
N589 C587 1.384 . S
H590 C596 0.930 . S
H591 C600 0.930 . S
H592 C605 0.929 . S
H593 C603 0.929 . S
H594 C598 0.929 . S
H595 C604 0.929 . S
C596 H590 0.930 . S
C596 C597 1.367 . S
C596 C604 1.378 . S
C597 C596 1.367 . S
C597 C605 1.433 1_554 S
C598 H594 0.929 . S
C598 C600 1.378 . S
C598 C602 1.350 1_556 S
C599 C602 1.463 . S
C599 C604 1.350 . S
C599 N607 1.427 1_554 S
C600 H591 0.930 . S
C600 C598 1.378 . S
C600 C601 1.367 1_556 S
C601 C600 1.367 1_554 S
C601 C603 1.433 . S
C602 C598 1.350 1_554 S
C602 C599 1.463 . S
C602 N606 1.427 . S
C603 H593 0.929 . S
C603 C601 1.433 . S
C603 N606 1.384 . S
C604 H595 0.929 . S
C604 C596 1.378 . S
C604 C599 1.350 . S
C605 H592 0.929 . S
C605 C597 1.433 1_556 S
C605 N607 1.384 . S
N606 C602 1.427 . S
N606 C603 1.384 . S
N607 C599 1.427 1_556 S
N607 C605 1.384 . S
C183 C21 1.489 . S
C187 C125 1.490 . S
C201 C40 1.494 . S
C205 C92 1.487 . S
C223 C104 1.444 . S
C219 C54 1.474 . S
C237 C73 1.525 . S
C241 C115 1.509 . S
C259 C148 1.439 . S
C255 C74 1.465 . S
C277 C159 1.485 . S
C273 C10 1.513 . S
C295 C169 1.498 . S
C291 C37 1.492 . S
C313 C136 1.510 . S
C309 C65 1.509 . S
C327 C52 1.441 . S
C331 C103 1.437 . S
C345 C87 1.513 . S
C349 C114 1.514 . S
C363 C15 1.516 . S
C367 C126 1.497 . S
C385 C93 1.476 . S
C381 C32 1.500 . S
C399 C29 1.505 . S
C403 C170 1.489 . S
C421 C137 1.522 . S
C417 C59 1.533 . S
C439 C147 1.443 . S
C435 C84 1.450 . S
C453 C8 1.479 . S
C457 C158 1.470 . S
C475 C98 1.535 . S
C471 C7 1.535 . S
C493 C109 1.489 . S
C489 C30 1.490 . S
C507 C62 1.540 . S
C511 C120 1.531 . S
C525 C81 1.506 . S
C529 C131 1.513 . S
C547 C142 1.529 . S
C543 C76 1.540 . S
C561 C18 1.490 . S
C565 C153 1.488 . S
C579 C43 1.533 . S
C583 C164 1.537 . S
C597 C51 1.502 . S
C601 C175 1.512 . S
