# Generated by pormake.
# Topology nom, (4,4)-cn, num edge types: 1
# Building blocks:
#     Node 0, Type 0, BuildingBlock: KUFVIS_clean_linker_0, # of connection points: 4
#     Node 1, Type 0, BuildingBlock: KUFVIS_clean_linker_0, # of connection points: 4
#     Node 2, Type 0, BuildingBlock: KUFVIS_clean_linker_0, # of connection points: 4
#     Node 3, Type 0, BuildingBlock: KUFVIS_clean_linker_0, # of connection points: 4
#     Node 4, Type 0, BuildingBlock: KUFVIS_clean_linker_0, # of connection points: 4
#     Node 5, Type 0, BuildingBlock: KUFVIS_clean_linker_0, # of connection points: 4
#     Node 6, Type 1, BuildingBlock: TATPOV_clean_sbu_0, # of connection points: 4
#     Node 7, Type 1, BuildingBlock: TATPOV_clean_sbu_0, # of connection points: 4
#     Node 8, Type 1, BuildingBlock: TATPOV_clean_sbu_0, # of connection points: 4
#     Node 9, Type 1, BuildingBlock: TATPOV_clean_sbu_0, # of connection points: 4
#     Node 10, Type 1, BuildingBlock: TATPOV_clean_sbu_0, # of connection points: 4
#     Node 11, Type 1, BuildingBlock: TATPOV_clean_sbu_0, # of connection points: 4
#     Edge 12, Type (0, 1), BuildingBlock: CIFDUS_clean_linker_0, # of connection points: 2
#     Edge 13, Type (0, 1), BuildingBlock: CIFDUS_clean_linker_0, # of connection points: 2
#     Edge 14, Type (0, 1), BuildingBlock: CIFDUS_clean_linker_0, # of connection points: 2
#     Edge 15, Type (0, 1), BuildingBlock: CIFDUS_clean_linker_0, # of connection points: 2
#     Edge 16, Type (0, 1), BuildingBlock: CIFDUS_clean_linker_0, # of connection points: 2
#     Edge 17, Type (0, 1), BuildingBlock: CIFDUS_clean_linker_0, # of connection points: 2
#     Edge 18, Type (0, 1), BuildingBlock: CIFDUS_clean_linker_0, # of connection points: 2
#     Edge 19, Type (0, 1), BuildingBlock: CIFDUS_clean_linker_0, # of connection points: 2
#     Edge 20, Type (0, 1), BuildingBlock: CIFDUS_clean_linker_0, # of connection points: 2
#     Edge 21, Type (0, 1), BuildingBlock: CIFDUS_clean_linker_0, # of connection points: 2
#     Edge 22, Type (0, 1), BuildingBlock: CIFDUS_clean_linker_0, # of connection points: 2
#     Edge 23, Type (0, 1), BuildingBlock: CIFDUS_clean_linker_0, # of connection points: 2
#     Edge 24, Type (0, 1), BuildingBlock: CIFDUS_clean_linker_0, # of connection points: 2
#     Edge 25, Type (0, 1), BuildingBlock: CIFDUS_clean_linker_0, # of connection points: 2
#     Edge 26, Type (0, 1), BuildingBlock: CIFDUS_clean_linker_0, # of connection points: 2
#     Edge 27, Type (0, 1), BuildingBlock: CIFDUS_clean_linker_0, # of connection points: 2
#     Edge 28, Type (0, 1), BuildingBlock: CIFDUS_clean_linker_0, # of connection points: 2
#     Edge 29, Type (0, 1), BuildingBlock: CIFDUS_clean_linker_0, # of connection points: 2
#     Edge 30, Type (0, 1), BuildingBlock: CIFDUS_clean_linker_0, # of connection points: 2
#     Edge 31, Type (0, 1), BuildingBlock: CIFDUS_clean_linker_0, # of connection points: 2
#     Edge 32, Type (0, 1), BuildingBlock: CIFDUS_clean_linker_0, # of connection points: 2
#     Edge 33, Type (0, 1), BuildingBlock: CIFDUS_clean_linker_0, # of connection points: 2
#     Edge 34, Type (0, 1), BuildingBlock: CIFDUS_clean_linker_0, # of connection points: 2
#     Edge 35, Type (0, 1), BuildingBlock: CIFDUS_clean_linker_0, # of connection points: 2
# Relax obj value: 0.020
# Max RMSD: 0.118
# Mean RMSD: 0.080
data_MOF--net-nom--node1-TATPOV_clean_sbu_0--node2-KUFVIS_clean_linker_0--edge1-CIFDUS_clean_linker_0
_symmetry_space_group_name_H-M    P1
_symmetry_Int_Tables_number       1
_symmetry_cell_setting            triclinic
loop_
_symmetry_equiv_pos_as_xyz
'x, y, z'
_cell_length_a     39.03989
_cell_length_b     39.638992
_cell_length_c     42.213516
_cell_angle_alpha  90.835
_cell_angle_beta   90.587706
_cell_angle_gamma 119.97714
loop_
_atom_site_label
_atom_site_type_symbol
_atom_site_fract_x
_atom_site_fract_y
_atom_site_fract_z
_atom_type_partial_charge
H0 H 0.18078 0.58868 0.31979 0.0
H1 H 0.09313 0.52448 0.24801 0.0
H2 H 0.05948 0.53384 0.3441 0.0
H3 H 1.0036 0.48616 0.33413 0.0
H4 H 0.91314 0.44593 0.26293 0.0
H5 H 0.03365 0.50664 0.23476 0.0
C6 C 0.14995 0.56951 0.31313 0.0
C7 C 0.12085 0.5606 0.33557 0.0
C8 C 0.13979 0.5574 0.28152 0.0
C9 C 0.09971 0.53389 0.27253 0.0
C10 C 0.06926 0.52357 0.29496 0.0
C11 C 0.08092 0.53835 0.32636 0.0
C12 C 1.02576 0.49961 0.28577 0.0
C13 C 0.99623 0.48378 0.3092 0.0
C14 C 0.95587 0.4651 0.30103 0.0
C15 C 0.94431 0.45909 0.26914 0.0
C16 C 0.97235 0.47347 0.24528 0.0
C17 C 1.01284 0.49414 0.25364 0.0
H18 H 0.58801 0.17461 0.48436 0.0
H19 H 0.54838 0.0877 0.41033 0.0
H20 H 0.55341 0.05798 0.50829 0.0
H21 H 0.50647 1.00148 0.49494 0.0
H22 H 0.48513 0.91376 0.42574 0.0
H23 H 0.54776 0.03338 0.39914 0.0
C24 C 0.578 0.14473 0.47693 0.0
C25 C 0.57004 0.1168 0.49972 0.0
C26 C 0.5714 0.13453 0.44471 0.0
C27 C 0.55524 0.0952 0.4352 0.0
C28 C 0.54811 0.06631 0.45788 0.0
C29 C 0.55681 0.07826 0.4901 0.0
C30 C 0.53111 0.02392 0.44866 0.0
C31 C 0.51142 0.99445 0.47123 0.0
C32 C 0.49673 0.95503 0.4634 0.0
C33 C 0.49942 0.94445 0.43227 0.0
C34 C 0.51648 0.97245 0.40885 0.0
C35 C 0.53339 1.01215 0.41732 0.0
H36 H 0.59213 0.47707 0.61102 0.0
H37 H 0.52469 0.50959 0.6702 0.0
H38 H 0.56125 0.56072 0.57802 0.0
H39 H 0.49965 0.56137 0.58502 0.0
H40 H 0.47434 0.62536 0.65495 0.0
H41 H 0.54388 0.574 0.6814 0.0
C42 C 0.57769 0.4941 0.61474 0.0
C43 C 0.57765 0.51802 0.59068 0.0
C44 C 0.55897 0.4911 0.64338 0.0
C45 C 0.54005 0.51286 0.64823 0.0
C46 C 0.54148 0.53912 0.62513 0.0
C47 C 0.56014 0.54115 0.59614 0.0
C48 C 0.52458 0.56495 0.63212 0.0
C49 C 0.50357 0.57334 0.60888 0.0
C50 C 0.48544 0.59527 0.61719 0.0
C51 C 0.48931 0.60953 0.64835 0.0
C52 C 0.50953 0.60126 0.67162 0.0
C53 C 0.52783 0.57983 0.66323 0.0
H54 H 0.15354 0.59905 0.76751 0.0
H55 H 0.06964 0.51853 0.832 0.0
H56 H 0.03248 0.53063 0.73772 0.0
H57 H 0.98318 0.47101 0.74485 0.0
H58 H 0.89433 0.41535 0.81483 0.0
H59 H 1.00916 0.5052 0.84423 0.0
C60 C 0.12319 0.57822 0.77322 0.0
C61 C 0.09389 0.5664 0.74964 0.0
C62 C 0.11464 0.56148 0.80306 0.0
C63 C 0.0756 0.53242 0.80927 0.0
C64 C 0.04482 0.52102 0.78621 0.0
C65 C 0.05477 0.53832 0.75615 0.0
C66 C 1.00281 0.49124 0.79362 0.0
C67 C 0.9749 0.4681 0.76944 0.0
C68 C 0.93564 0.44068 0.77695 0.0
C69 C 0.92476 0.43541 0.80873 0.0
C70 C 0.95131 0.45812 0.83277 0.0
C71 C 0.98985 0.4865 0.82526 0.0
H72 H 0.49712 0.89202 -0.02039 0.0
H73 H 0.55449 0.97822 0.90904 0.0
H74 H 0.54496 1.01231 0.00519 0.0
H75 H 0.60378 0.06619 -0.00702 0.0
H76 H 0.62329 0.15276 0.92479 0.0
H77 H 0.54857 0.03226 0.89937 0.0
C78 C 0.51365 0.92242 0.97321 0.0
C79 C 0.5212 0.95116 -0.00386 0.0
C80 C 0.52542 0.93171 0.94192 0.0
C81 C 0.54503 0.97112 0.93324 0.0
C82 C 0.553 1.00108 0.95606 0.0
C83 C 0.54036 0.99036 -0.01255 0.0
C84 C 0.57349 0.04328 0.9473 0.0
C85 C 0.59807 0.07326 0.96956 0.0
C86 C 0.61584 0.11272 0.96142 0.0
C87 C 0.60956 0.12233 0.93113 0.0
C88 C 0.58584 0.09349 0.90885 0.0
C89 C 0.56772 0.05411 0.91679 0.0
H90 H 0.4724 0.58449 0.12556 0.0
H91 H 0.52676 0.54458 0.19222 0.0
H92 H 0.49549 0.49389 0.09724 0.0
H93 H 0.54701 0.48587 0.10439 0.0
H94 H 0.57408 0.42221 0.17133 0.0
H95 H 0.52063 0.48754 0.2036 0.0
C96 C 0.48466 0.56591 0.1309 0.0
C97 C 0.48396 0.54026 0.10758 0.0
C98 C 0.49962 0.56726 0.16136 0.0
C99 C 0.51425 0.54226 0.16877 0.0
C100 C 0.51353 0.51549 0.14565 0.0
C101 C 0.4975 0.51454 0.11523 0.0
C102 C 0.52954 0.48882 0.15273 0.0
C103 C 0.54505 0.47571 0.12831 0.0
C104 C 0.55985 0.45056 0.13469 0.0
C105 C 0.56003 0.43918 0.16585 0.0
C106 C 0.54722 0.45357 0.19065 0.0
C107 C 0.53106 0.47742 0.18402 0.0
Zn108 Zn 0.73709 0.51298 0.39409 0.0
Zn109 Zn 0.69715 0.43464 0.39238 0.0
O110 O 0.75631 0.45237 0.38708 0.0
O111 O 0.79028 0.51617 0.39164 0.0
O112 O 0.67533 0.37647 0.3956 0.0
O113 O 0.713 0.51429 0.43556 0.0
O114 O 0.67934 0.45014 0.43332 0.0
C115 C 0.7894 0.48405 0.38765 0.0
C116 C 0.67816 0.47661 0.34235 0.0
O117 O 0.6711 0.44422 0.35385 0.0
O118 O 0.70516 0.50848 0.35452 0.0
C119 C 0.64494 0.34659 0.38391 0.0
O120 O 0.61951 0.35086 0.36627 0.0
C121 C 0.68735 0.4823 0.44697 0.0
Zn122 Zn 0.23696 0.72515 0.54589 0.0
Zn123 Zn 0.28124 0.69113 0.55665 0.0
O124 O 0.32308 0.74961 0.5517 0.0
O125 O 0.28651 0.77687 0.54374 0.0
O126 O 0.3126 0.66436 0.56769 0.0
O127 O 0.20979 0.70808 0.58718 0.0
O128 O 0.24254 0.67659 0.59408 0.0
C129 C 0.32019 0.77983 0.54683 0.0
C130 C 0.2264 0.66665 0.49866 0.0
O131 O 0.25275 0.66446 0.51508 0.0
O132 O 0.21455 0.68988 0.50702 0.0
C133 C 0.34088 0.66526 0.55217 0.0
O134 O 0.35283 0.68588 0.52639 0.0
C135 C 0.21698 0.68557 0.60319 0.0
Zn136 Zn 0.55007 0.24119 0.71387 0.0
Zn137 Zn 0.63025 0.27778 0.7217 0.0
O138 O 0.61922 0.3236 0.7198 0.0
O139 O 0.55458 0.29436 0.71248 0.0
O140 O 0.68907 0.3015 0.72988 0.0
O141 O 0.54178 0.2136 0.75525 0.0
O142 O 0.6065 0.23894 0.75803 0.0
C143 C 0.58772 0.3254 0.71562 0.0
C144 C 0.59168 0.22575 0.66382 0.0
O145 O 0.62249 0.2504 0.67922 0.0
O146 O 0.55757 0.21614 0.67389 0.0
C147 C 0.7167 0.32731 0.71351 0.0
O148 O 0.70785 0.34256 0.68956 0.0
C149 C 0.57219 0.21638 0.76876 0.0
Zn150 Zn 0.36127 0.54955 0.88895 0.0
Zn151 Zn 0.39534 0.62658 0.89079 0.0
O152 O 0.33523 0.60896 0.88454 0.0
O153 O 0.30843 0.54509 0.88422 0.0
O154 O 0.42599 0.68589 0.89663 0.0
O155 O 0.38117 0.54607 0.93128 0.0
O156 O 0.41068 0.61006 0.93282 0.0
C157 C 0.30462 0.57489 0.88275 0.0
C158 C 0.41695 0.58489 0.83966 0.0
O159 O 0.42061 0.61632 0.85161 0.0
O160 O 0.39305 0.5524 0.85137 0.0
C161 C 0.42655 0.71317 0.88057 0.0
O162 O 0.40313 0.70445 0.85555 0.0
C163 C 0.40345 0.57814 0.94547 0.0
Zn164 Zn 0.81997 0.48097 0.04526 0.0
Zn165 Zn 0.77958 0.40365 0.03749 0.0
O166 O 0.73623 0.41939 0.04434 0.0
O167 O 0.77051 0.48325 0.05018 0.0
O168 O 0.7486 0.34453 0.02945 0.0
O169 O 0.84427 0.4889 0.00312 0.0
O170 O 0.81425 0.42499 -0.00258 0.0
C171 C 0.73753 0.45199 0.04881 0.0
C172 C 0.84094 0.4415 0.09146 0.0
O173 O 0.8141 0.41089 0.0772 0.0
O174 O 0.8487 0.47485 0.08242 0.0
C175 C 0.71567 0.32229 0.04239 0.0
O176 O 0.70089 0.33767 0.06186 0.0
C177 C 0.83785 0.45899 -0.01279 0.0
Zn178 Zn 0.37486 0.81556 0.20345 0.0
Zn179 Zn 0.41323 0.7745 0.20561 0.0
O180 O 0.35429 0.73142 0.20799 0.0
O181 O 0.32299 0.76456 0.20432 0.0
O182 O 0.44361 0.74553 0.20318 0.0
O183 O 0.39966 0.83969 0.16233 0.0
O184 O 0.43094 0.80646 0.16486 0.0
C185 C 0.32205 0.73228 0.20671 0.0
C186 C 0.43031 0.83654 0.25649 0.0
O187 O 0.4359 0.80971 0.24524 0.0
O188 O 0.40539 0.84381 0.24344 0.0
C189 C 0.43975 0.71769 0.22026 0.0
O190 O 0.41333 0.70482 0.24266 0.0
C191 C 0.42419 0.831 0.15098 0.0
H192 H 0.14697 0.60809 0.23697 0.0
H193 H 0.20532 0.55008 0.27643 0.0
H194 H 0.26748 0.59722 0.25223 0.0
H195 H 0.30742 0.66166 0.22848 0.0
H196 H 0.24913 0.72204 0.19295 0.0
H197 H 0.18506 0.66749 0.20668 0.0
C198 C 0.17292 0.60488 0.23904 0.0
C199 C 0.17165 0.57561 0.25814 0.0
C200 C 0.20894 0.6333 0.2265 0.0
C201 C 0.20564 0.57218 0.26143 0.0
C202 C 0.24128 0.59947 0.24799 0.0
C203 C 0.28064 0.66251 0.22314 0.0
C204 C 0.28324 0.69626 0.21023 0.0
C205 C 0.24372 0.63128 0.23183 0.0
C206 C 0.24814 0.69677 0.20337 0.0
C207 C 0.21138 0.66551 0.21117 0.0
H208 H 0.64222 0.19808 0.43734 0.0
H209 H 0.52139 0.14289 0.40361 0.0
H210 H 0.53429 0.20376 0.37877 0.0
H211 H 0.57805 0.27522 0.3734 0.0
H212 H 0.69792 0.32952 0.41049 0.0
H213 H 0.68728 0.26671 0.42731 0.0
C214 C 0.61905 0.19917 0.42375 0.0
C215 C 0.581 0.16626 0.4222 0.0
C216 C 0.62632 0.23444 0.41079 0.0
C217 C 0.55104 0.16783 0.40476 0.0
C218 C 0.55832 0.20278 0.39098 0.0
C219 C 0.60194 0.27319 0.38482 0.0
C220 C 0.63854 0.30729 0.39112 0.0
C221 C 0.5955 0.23672 0.39492 0.0
C222 C 0.66925 0.30401 0.40577 0.0
C223 C 0.66329 0.26801 0.41533 0.0
H224 H 0.40927 0.57397 0.62568 0.0
H225 H 0.50422 0.63278 0.56039 0.0
H226 H 0.46607 0.65759 0.53232 0.0
H227 H 0.40909 0.66915 0.53107 0.0
H228 H 0.31679 0.61274 0.59944 0.0
H229 H 0.35062 0.58077 0.62175 0.0
C230 C 0.4212 0.59153 0.60484 0.0
C231 C 0.45947 0.6017 0.59511 0.0
C232 C 0.39989 0.60685 0.58986 0.0
C233 C 0.47469 0.62435 0.56811 0.0
C234 C 0.45306 0.63893 0.55238 0.0
C235 C 0.3962 0.64957 0.55064 0.0
C236 C 0.36061 0.64385 0.56379 0.0
C237 C 0.41621 0.6315 0.56378 0.0
C238 C 0.34431 0.61818 0.58907 0.0
C239 C 0.36358 0.59971 0.60182 0.0
H240 H 0.87959 0.3644 0.77446 0.0
H241 H 0.91864 0.47215 0.72602 0.0
H242 H 0.85433 0.4444 0.69852 0.0
H243 H 0.78344 0.39365 0.69596 0.0
H244 H 0.7438 0.28911 0.74967 0.0
H245 H 0.81137 0.31164 0.76786 0.0
C246 C 0.8743 0.38146 0.75725 0.0
C247 C 0.90361 0.42041 0.7526 0.0
C248 C 0.83659 0.36625 0.74327 0.0
C249 C 0.89666 0.44205 0.72995 0.0
C250 C 0.8596 0.42639 0.71465 0.0
C251 C 0.78972 0.37562 0.7113 0.0
C252 C 0.75846 0.34002 0.72186 0.0
C253 C 0.82873 0.38923 0.72239 0.0
C254 C 0.76713 0.31692 0.74163 0.0
C255 C 0.80583 0.32968 0.75193 0.0
H256 H 0.54257 0.87421 0.94815 0.0
H257 H 0.48188 0.91363 0.88644 0.0
H258 H 0.44764 0.84939 0.85959 0.0
H259 H 0.42801 0.77922 0.85925 0.0
H260 H 0.48633 0.74035 0.92457 0.0
H261 H 0.52786 0.80675 0.94462 0.0
C262 C 0.52263 0.86901 0.92821 0.0
C263 C 0.51471 0.89856 0.91931 0.0
C264 C 0.50173 0.83164 0.91414 0.0
C265 C 0.48881 0.89152 0.89351 0.0
C266 C 0.46875 0.85456 0.87853 0.0
C267 C 0.45009 0.78536 0.87763 0.0
C268 C 0.45351 0.75451 0.89065 0.0
C269 C 0.47377 0.8239 0.88954 0.0
C270 C 0.48249 0.76319 0.91437 0.0
C271 C 0.50648 0.80129 0.92581 0.0
H272 H 0.61591 0.50005 0.09492 0.0
H273 H 0.55296 0.37963 0.12153 0.0
H274 H 0.60015 0.36756 0.09299 0.0
H275 H 0.66533 0.3941 0.06801 0.0
H276 H 0.72882 0.51544 0.04349 0.0
H277 H 0.6752 0.52401 0.06303 0.0
C278 C 0.61169 0.47085 0.09352 0.0
C279 C 0.58124 0.44089 0.11054 0.0
C280 C 0.63953 0.46441 0.07785 0.0
C281 C 0.57646 0.40328 0.10883 0.0
C282 C 0.60355 0.39641 0.09265 0.0
C283 C 0.66696 0.42214 0.06628 0.0
C284 C 0.70138 0.45421 0.05487 0.0
C285 C 0.63622 0.42719 0.07825 0.0
C286 C 0.70298 0.49038 0.0527 0.0
C287 C 0.67229 0.49537 0.06387 0.0
H288 H 0.43791 0.94761 0.50151 0.0
H289 H 0.5045 0.89175 0.47571 0.0
H290 H 0.45824 0.83341 0.50393 0.0
H291 H 0.3934 0.79508 0.52876 0.0
H292 H 0.32589 0.8508 0.55236 0.0
H293 H 0.37831 0.91249 0.53295 0.0
C294 C 0.44299 0.92314 0.50292 0.0
C295 C 0.47426 0.92378 0.4863 0.0
C296 C 0.41578 0.88941 0.51852 0.0
C297 C 0.48025 0.89168 0.48805 0.0
C298 C 0.45379 0.8583 0.5041 0.0
C299 C 0.39065 0.82096 0.53038 0.0
C300 C 0.35555 0.8182 0.54149 0.0
C301 C 0.42055 0.85627 0.51835 0.0
C302 C 0.35239 0.85201 0.54344 0.0
C303 C 0.38233 0.88734 0.53229 0.0
H304 H 0.62178 0.48814 0.66762 0.0
H305 H 0.49467 0.4312 0.67066 0.0
H306 H 0.49273 0.376 0.69772 0.0
H307 H 0.52657 0.34001 0.71246 0.0
H308 H 0.65379 0.39641 0.70742 0.0
H309 H 0.65636 0.45587 0.68945 0.0
C310 C 0.59376 0.46399 0.67494 0.0
C311 C 0.55837 0.46341 0.66693 0.0
C312 C 0.59289 0.43204 0.68962 0.0
C313 C 0.52225 0.43228 0.6767 0.0
C314 C 0.52116 0.40058 0.69183 0.0
C315 C 0.55495 0.3655 0.70795 0.0
C316 C 0.58989 0.36344 0.71074 0.0
C317 C 0.55618 0.39947 0.69717 0.0
C318 C 0.62642 0.39699 0.70526 0.0
C319 C 0.62791 0.43101 0.69485 0.0
H320 H 0.12923 0.51281 0.83801 0.0
H321 H 0.17579 0.63436 0.81853 0.0
H322 H 0.23844 0.65054 0.84469 0.0
H323 H 0.28303 0.62863 0.86621 0.0
H324 H 0.2351 0.50667 0.88571 0.0
H325 H 0.17016 0.49256 0.86711 0.0
C326 C 0.15257 0.54298 0.84039 0.0
C327 C 0.14805 0.57217 0.82583 0.0
C328 C 0.18871 0.55205 0.85509 0.0
C329 C 0.17881 0.61117 0.82903 0.0
C330 C 0.2147 0.62048 0.84393 0.0
C331 C 0.25822 0.59914 0.86695 0.0
C332 C 0.26434 0.56874 0.87666 0.0
C333 C 0.22057 0.59093 0.85591 0.0
C334 C 0.23163 0.53068 0.87776 0.0
C335 C 0.19428 0.52244 0.86714 0.0
H336 H 0.59183 0.14771 0.00403 0.0
H337 H 0.69584 0.153 0.96523 0.0
H338 H 0.73711 0.21846 -0.01156 0.0
H339 H 0.74216 0.27723 0.01406 0.0
H340 H 0.63757 0.27186 0.05245 0.0
H341 H 0.59811 0.20375 0.03526 0.0
C342 C 0.62372 0.16271 0.00181 0.0
C343 C 0.64099 0.1454 -0.01642 0.0
C344 C 0.64703 0.20078 0.01446 0.0
C345 C 0.68216 0.16548 -0.02013 0.0
C346 C 0.70562 0.20312 -0.00728 0.0
C347 C 0.71081 0.26105 0.01891 0.0
C348 C 0.69284 0.27993 0.03416 0.0
C349 C 0.68819 0.22162 0.0091 0.0
C350 C 0.65223 0.25827 0.04062 0.0
C351 C 0.62956 0.21922 0.03079 0.0
H352 H 0.53334 0.64495 0.15697 0.0
H353 H 0.4587 0.54945 0.21644 0.0
H354 H 0.43649 0.59015 0.2435 0.0
H355 H 0.42959 0.64895 0.24312 0.0
H356 H 0.50169 0.74232 0.1804 0.0
H357 H 0.53349 0.70654 0.16175 0.0
C358 C 0.51329 0.6336 0.17666 0.0
C359 C 0.49757 0.59439 0.18474 0.0
C360 C 0.49934 0.65649 0.19088 0.0
C361 C 0.47146 0.57971 0.21008 0.0
C362 C 0.4583 0.6028 0.22516 0.0
C363 C 0.45274 0.66174 0.22579 0.0
C364 C 0.46262 0.69798 0.21275 0.0
C365 C 0.47058 0.64061 0.21465 0.0
C366 C 0.49294 0.71423 0.19047 0.0
C367 C 0.51128 0.69383 0.17981 0.0
H368 H 0.95608 0.51746 0.34258 0.0
H369 H 0.88682 0.39755 0.31116 0.0
H370 H 0.82956 0.39129 0.33948 0.0
H371 H 0.79683 0.42299 0.36581 0.0
H372 H 0.86533 0.54456 0.39361 0.0
H373 H 0.92524 0.54702 0.37442 0.0
C374 C 0.92883 0.48961 0.34291 0.0
C375 C 0.92557 0.45797 0.32495 0.0
C376 C 0.89566 0.4868 0.35805 0.0
C377 C 0.88993 0.42222 0.32497 0.0
C378 C 0.85715 0.41878 0.34091 0.0
C379 C 0.82497 0.44985 0.36822 0.0
C380 C 0.82641 0.48369 0.38071 0.0
C381 C 0.85922 0.45135 0.35637 0.0
C382 C 0.86321 0.51819 0.38373 0.0
C383 C 0.89755 0.51965 0.37275 0.0
H384 H 0.17839 0.56277 0.37363 0.0
H385 H 0.09022 0.59799 0.36967 0.0
H386 H 0.11415 0.63246 0.42058 0.0
H387 H 0.16262 0.65599 0.4643 0.0
H388 H 0.25191 0.62211 0.46808 0.0
H389 H 0.22521 0.58395 0.4189 0.0
C390 C 0.16436 0.57788 0.38404 0.0
C391 C 0.13265 0.57788 0.36795 0.0
C392 C 0.17869 0.59817 0.41303 0.0
C393 C 0.11436 0.59715 0.38179 0.0
C394 C 0.12826 0.61716 0.41074 0.0
C395 C 0.17627 0.64023 0.45443 0.0
C396 C 0.20945 0.64222 0.46967 0.0
C397 C 0.16081 0.6184 0.42626 0.0
C398 C 0.22643 0.62121 0.45675 0.0
C399 C 0.2112 0.59939 0.42864 0.0
H400 H 0.62974 0.17887 0.53126 0.0
H401 H 0.51364 0.07949 0.54361 0.0
H402 H 0.51062 0.10378 0.59644 0.0
H403 H 0.53831 0.15645 0.63675 0.0
H404 H 0.65467 0.2557 0.62464 0.0
H405 H 0.66017 0.2285 0.57389 0.0
C406 C 0.60406 0.16236 0.54577 0.0
C407 C 0.57186 0.12768 0.5336 0.0
C408 C 0.6023 0.17678 0.57584 0.0
C409 C 0.5389 0.10616 0.55264 0.0
C410 C 0.53698 0.12024 0.58267 0.0
C411 C 0.56488 0.17204 0.623 0.0
C412 C 0.59574 0.20827 0.63407 0.0
C413 C 0.56802 0.15606 0.59409 0.0
C414 C 0.63039 0.22784 0.61644 0.0
C415 C 0.63357 0.21233 0.58746 0.0
H416 H 0.48817 0.55073 0.71923 0.0
H417 H 0.51882 0.6687 0.69887 0.0
H418 H 0.49585 0.6756 0.75106 0.0
H419 H 0.45929 0.64489 0.79958 0.0
H420 H 0.42659 0.5256 0.81767 0.0
H421 H 0.45848 0.52264 0.76946 0.0
C422 C 0.49104 0.57839 0.72659 0.0
C423 C 0.50505 0.60911 0.70528 0.0
C424 C 0.4767 0.58167 0.75604 0.0
C425 C 0.50791 0.64456 0.71492 0.0
C426 C 0.49459 0.64843 0.74464 0.0
C427 C 0.45961 0.61847 0.79313 0.0
C428 C 0.43997 0.58535 0.81193 0.0
C429 C 0.47759 0.61666 0.76494 0.0
C430 C 0.44086 0.55135 0.80337 0.0
C431 C 0.45922 0.5496 0.77583 0.0
H432 H 0.94388 0.51224 0.86616 0.0
H433 H 0.92189 0.39458 0.86978 0.0
H434 H 0.88363 0.38368 0.91802 0.0
H435 H 0.85317 0.40673 0.95723 0.0
H436 H 0.87403 0.52422 0.95219 0.0
H437 H 0.91537 0.53592 0.90621 0.0
C438 C 0.93155 0.48465 0.87812 0.0
C439 C 0.93605 0.45445 0.86505 0.0
C440 C 0.90857 0.47827 0.90506 0.0
C441 C 0.91914 0.41834 0.87997 0.0
C442 C 0.89695 0.41201 0.90724 0.0
C443 C 0.86652 0.43474 0.94588 0.0
C444 C 0.86028 0.46441 0.95796 0.0
C445 C 0.8907 0.4415 0.91958 0.0
C446 C 0.87826 0.5008 0.9433 0.0
C447 C 0.90209 0.50765 0.91708 0.0
H448 H 0.52983 0.89913 0.03092 0.0
H449 H 0.4796 0.97439 0.03372 0.0
H450 H 0.44561 0.94418 0.08267 0.0
H451 H 0.42583 0.89256 0.12177 0.0
H452 H 0.47427 0.81562 0.11715 0.0
H453 H 0.51253 0.84971 0.07112 0.0
C454 C 0.51165 0.90911 0.04241 0.0
C455 C 0.50688 0.93866 0.02863 0.0
C456 C 0.49123 0.89074 0.06972 0.0
C457 C 0.48391 0.95187 0.044 0.0
C458 C 0.46409 0.93425 0.07172 0.0
C459 C 0.44466 0.88313 0.11067 0.0
C460 C 0.44679 0.85123 0.1227 0.0
C461 C 0.46671 0.90295 0.08426 0.0
C462 C 0.4718 0.83983 0.10826 0.0
C463 C 0.49383 0.85941 0.08202 0.0
H464 H 0.59472 0.51247 0.22998 0.0
H465 H 0.52896 0.38722 0.22248 0.0
H466 H 0.56294 0.38293 0.27017 0.0
H467 H 0.61637 0.41537 0.31058 0.0
H468 H 0.68471 0.54115 0.31483 0.0
H469 H 0.64506 0.54464 0.27169 0.0
C470 C 0.58695 0.48427 0.23946 0.0
C471 C 0.5591 0.45022 0.22323 0.0
C472 C 0.60787 0.48216 0.26578 0.0
C473 C 0.55 0.41377 0.23503 0.0
C474 C 0.56975 0.41137 0.26198 0.0
C475 C 0.62253 0.44351 0.30208 0.0
C476 C 0.6538 0.47788 0.31578 0.0
C477 C 0.59969 0.44544 0.27695 0.0
C478 C 0.66114 0.51414 0.30461 0.0
C479 C 0.63832 0.51626 0.28 0.0
H480 H 0.52606 0.91431 0.38318 0.0
H481 H 0.49195 0.99911 0.35943 0.0
H482 H 0.4644 0.96546 0.30874 0.0
H483 H 0.44169 0.90716 0.27493 0.0
H484 H 0.47286 0.82043 0.2995 0.0
H485 H 0.5091 0.85917 0.34655 0.0
C486 C 0.51319 0.92576 0.36663 0.0
C487 C 0.5106 0.95887 0.37524 0.0
C488 C 0.49587 0.90531 0.33816 0.0
C489 C 0.49457 0.97386 0.35335 0.0
C490 C 0.47822 0.95425 0.32457 0.0
C491 C 0.45646 0.89672 0.29053 0.0
C492 C 0.45388 0.86057 0.28413 0.0
C493 C 0.47723 0.91911 0.31739 0.0
C494 C 0.474 0.84793 0.30414 0.0
C495 C 0.49481 0.87011 0.33097 0.0
H496 H 0.56986 0.4556 0.55757 0.0
H497 H 0.6293 0.58109 0.55637 0.0
H498 H 0.66892 0.58107 0.51168 0.0
H499 H 0.6894 0.54539 0.47552 0.0
H500 H 0.63147 0.41987 0.47892 0.0
H501 H 0.58944 0.42006 0.52122 0.0
C502 C 0.5915 0.48301 0.54751 0.0
C503 C 0.59698 0.51835 0.56047 0.0
C504 C 0.615 0.48277 0.5228 0.0
C505 C 0.62437 0.55352 0.54671 0.0
C506 C 0.64735 0.5535 0.52146 0.0
C507 C 0.66779 0.51805 0.48564 0.0
C508 C 0.66389 0.48265 0.4742 0.0
C509 C 0.6435 0.51833 0.50982 0.0
C510 C 0.63537 0.44753 0.48739 0.0
C511 C 0.61114 0.44758 0.51144 0.0
H512 H 0.1286 0.64147 0.73271 0.0
H513 H 0.08921 0.52559 0.69605 0.0
H514 H 0.1253 0.5524 0.64708 0.0
H515 H 0.17283 0.60939 0.61685 0.0
H516 H 0.2093 0.72504 0.65268 0.0
H517 H 0.17018 0.69802 0.70023 0.0
C518 C 0.12716 0.62222 0.71356 0.0
C519 C 0.1063 0.58177 0.71764 0.0
C520 C 0.14831 0.63785 0.68586 0.0
C521 C 0.10468 0.55684 0.69301 0.0
C522 C 0.12576 0.57217 0.66531 0.0
C523 C 0.17223 0.62847 0.63525 0.0
C524 C 0.19443 0.669 0.63196 0.0
C525 C 0.14861 0.61266 0.6619 0.0
C526 C 0.19276 0.69372 0.65523 0.0
C527 C 0.17028 0.6783 0.68221 0.0
H528 H 0.5347 0.11725 0.89222 0.0
H529 H 0.62869 0.10113 0.85686 0.0
H530 H 0.63319 0.13856 0.8098 0.0
H531 H 0.61421 0.18074 0.78139 0.0
H532 H 0.51864 0.19519 0.81583 0.0
H533 H 0.51095 0.15385 0.86086 0.0
C534 C 0.55519 0.12098 0.8736 0.0
C535 C 0.5809 0.10614 0.87741 0.0
C536 C 0.55796 0.14301 0.84703 0.0
C537 C 0.60813 0.11173 0.85381 0.0
C538 C 0.61104 0.13354 0.82723 0.0
C539 C 0.59179 0.17483 0.79884 0.0
C540 C 0.56753 0.19148 0.79581 0.0
C541 C 0.58688 0.15025 0.82408 0.0
C542 C 0.53787 0.18291 0.81799 0.0
C543 C 0.53339 0.15921 0.84361 0.0
H544 H 0.49825 0.60346 0.07372 0.0
H545 H 0.43419 0.47771 0.06955 0.0
H546 H 0.40413 0.47868 0.01876 0.0
H547 H 0.39384 0.51508 -0.02289 0.0
H548 H 0.45579 0.64088 -0.01777 0.0
H549 H 0.48812 0.63997 0.03186 0.0
C550 C 0.47753 0.57623 0.06178 0.0
C551 C 0.46827 0.54054 0.07549 0.0
C552 C 0.45963 0.57702 0.03311 0.0
C553 C 0.44212 0.50555 0.05938 0.0
C554 C 0.42463 0.5061 0.03052 0.0
C555 C 0.41435 0.54239 -0.01095 0.0
C556 C 0.42224 0.57803 -0.02398 0.0
C557 C 0.43279 0.54165 0.01743 0.0
C558 C 0.44902 0.61306 -0.00819 0.0
C559 C 0.46762 0.61256 0.0201 0.0
H560 H 0.91306 0.4103 0.21432 0.0
H561 H 0.99912 0.5316 0.2023 0.0
H562 H 0.96726 0.53125 0.15217 0.0
H563 H 0.91089 0.49881 0.11524 0.0
H564 H 0.82307 0.37814 0.12773 0.0
H565 H 0.85949 0.37602 0.17453 0.0
C566 C 0.9251 0.43649 0.20046 0.0
C567 C 0.95824 0.47099 0.2121 0.0
C568 C 0.90591 0.4364 0.17216 0.0
C569 C 0.97392 0.50459 0.19376 0.0
C570 C 0.9554 0.50454 0.16529 0.0
C571 C 0.8997 0.47195 0.12811 0.0
C572 C 0.86393 0.43886 0.11839 0.0
C573 C 0.92069 0.471 0.15486 0.0
C574 C 0.85034 0.40409 0.13492 0.0
C575 C 0.87115 0.40288 0.16164 0.0
loop_
_geom_bond_atom_site_label_1
_geom_bond_atom_site_label_2
_geom_bond_distance
_geom_bond_site_symmetry_2
_ccdc_geom_bond_type
H0 C6 0.930 . S
H1 C9 0.931 . S
H2 C11 0.931 . S
H3 C13 0.930 . S
H4 C15 0.930 . S
H5 C17 0.931 . S
C6 H0 0.930 . S
C6 C7 1.380 . S
C6 C8 1.394 . S
C7 C6 1.380 . S
C7 C11 1.382 . S
C8 C6 1.394 . S
C8 C9 1.400 . S
C9 H1 0.931 . S
C9 C8 1.400 . S
C9 C10 1.375 . S
C10 C9 1.375 . S
C10 C11 1.415 . S
C10 C12 1.501 1_455 S
C11 H2 0.931 . S
C11 C7 1.382 . S
C11 C10 1.415 . S
C12 C10 1.501 1_655 S
C12 C13 1.384 . S
C12 C17 1.408 . S
C13 H3 0.930 . S
C13 C12 1.384 . S
C13 C14 1.389 . S
C14 C13 1.389 . S
C14 C15 1.405 . S
C15 H4 0.930 . S
C15 C14 1.405 . S
C15 C16 1.364 . S
C16 C15 1.364 . S
C16 C17 1.400 . S
C17 H5 0.931 . S
C17 C12 1.408 . S
C17 C16 1.400 . S
H18 C24 0.930 . S
H19 C27 0.931 . S
H20 C29 0.931 . S
H21 C31 0.930 . S
H22 C33 0.930 . S
H23 C35 0.931 . S
C24 H18 0.930 . S
C24 C25 1.380 . S
C24 C26 1.394 . S
C25 C24 1.380 . S
C25 C29 1.382 . S
C26 C24 1.394 . S
C26 C27 1.400 . S
C27 H19 0.931 . S
C27 C26 1.400 . S
C27 C28 1.375 . S
C28 C27 1.375 . S
C28 C29 1.415 . S
C28 C30 1.501 1_545 S
C29 H20 0.931 . S
C29 C25 1.382 . S
C29 C28 1.415 . S
C30 C28 1.501 1_565 S
C30 C31 1.384 . S
C30 C35 1.408 . S
C31 H21 0.930 . S
C31 C30 1.384 . S
C31 C32 1.389 . S
C32 C31 1.389 . S
C32 C33 1.405 . S
C33 H22 0.930 . S
C33 C32 1.405 . S
C33 C34 1.364 . S
C34 C33 1.364 . S
C34 C35 1.400 . S
C35 H23 0.931 . S
C35 C30 1.408 . S
C35 C34 1.400 . S
H36 C42 0.930 . S
H37 C45 0.931 . S
H38 C47 0.931 . S
H39 C49 0.930 . S
H40 C51 0.930 . S
H41 C53 0.931 . S
C42 H36 0.930 . S
C42 C43 1.380 . S
C42 C44 1.394 . S
C43 C42 1.380 . S
C43 C47 1.382 . S
C44 C42 1.394 . S
C44 C45 1.400 . S
C45 H37 0.931 . S
C45 C44 1.400 . S
C45 C46 1.375 . S
C46 C45 1.375 . S
C46 C47 1.415 . S
C46 C48 1.501 . S
C47 H38 0.931 . S
C47 C43 1.382 . S
C47 C46 1.415 . S
C48 C46 1.501 . S
C48 C49 1.384 . S
C48 C53 1.408 . S
C49 H39 0.930 . S
C49 C48 1.384 . S
C49 C50 1.389 . S
C50 C49 1.389 . S
C50 C51 1.405 . S
C51 H40 0.930 . S
C51 C50 1.405 . S
C51 C52 1.364 . S
C52 C51 1.364 . S
C52 C53 1.400 . S
C53 H41 0.931 . S
C53 C48 1.408 . S
C53 C52 1.400 . S
H54 C60 0.930 . S
H55 C63 0.931 . S
H56 C65 0.931 . S
H57 C67 0.930 . S
H58 C69 0.930 . S
H59 C71 0.931 . S
C60 H54 0.930 . S
C60 C61 1.380 . S
C60 C62 1.394 . S
C61 C60 1.380 . S
C61 C65 1.382 . S
C62 C60 1.394 . S
C62 C63 1.400 . S
C63 H55 0.931 . S
C63 C62 1.400 . S
C63 C64 1.375 . S
C64 C63 1.375 . S
C64 C65 1.415 . S
C64 C66 1.501 1_455 S
C65 H56 0.931 . S
C65 C61 1.382 . S
C65 C64 1.415 . S
C66 C64 1.501 1_655 S
C66 C67 1.384 . S
C66 C71 1.408 . S
C67 H57 0.930 . S
C67 C66 1.384 . S
C67 C68 1.389 . S
C68 C67 1.389 . S
C68 C69 1.405 . S
C69 H58 0.930 . S
C69 C68 1.405 . S
C69 C70 1.364 . S
C70 C69 1.364 . S
C70 C71 1.400 . S
C71 H59 0.931 . S
C71 C66 1.408 . S
C71 C70 1.400 . S
H72 C78 0.930 . S
H73 C81 0.931 . S
H74 C83 0.950 . S
H75 C85 0.930 . S
H76 C87 0.930 . S
H77 C89 0.931 . S
C78 H72 0.930 . S
C78 C79 1.380 . S
C78 C80 1.394 1_554 S
C79 C78 1.380 . S
C79 C83 1.382 . S
C80 C78 1.394 1_556 S
C80 C81 1.400 . S
C81 H73 0.931 . S
C81 C80 1.400 . S
C81 C82 1.375 . S
C82 C81 1.375 . S
C82 C83 1.415 1_556 S
C82 C84 1.501 1_565 S
C83 H74 0.950 . S
C83 C79 1.382 . S
C83 C82 1.415 1_554 S
C84 C82 1.501 1_545 S
C84 C85 1.384 1_556 S
C84 C89 1.408 . S
C85 H75 0.930 . S
C85 C84 1.384 1_554 S
C85 C86 1.389 1_554 S
C86 C85 1.389 1_556 S
C86 C87 1.405 . S
C87 H76 0.930 . S
C87 C86 1.405 . S
C87 C88 1.364 . S
C88 C87 1.364 . S
C88 C89 1.400 . S
C89 H77 0.931 . S
C89 C84 1.408 . S
C89 C88 1.400 . S
H90 C96 0.930 . S
H91 C99 0.931 . S
H92 C101 0.931 . S
H93 C103 0.930 . S
H94 C105 0.930 . S
H95 C107 0.931 . S
C96 H90 0.930 . S
C96 C97 1.380 . S
C96 C98 1.394 . S
C97 C96 1.380 . S
C97 C101 1.382 . S
C98 C96 1.394 . S
C98 C99 1.400 . S
C99 H91 0.931 . S
C99 C98 1.400 . S
C99 C100 1.375 . S
C100 C99 1.375 . S
C100 C101 1.415 . S
C100 C102 1.501 . S
C101 H92 0.931 . S
C101 C97 1.382 . S
C101 C100 1.415 . S
C102 C100 1.501 . S
C102 C103 1.384 . S
C102 C107 1.408 . S
C103 H93 0.930 . S
C103 C102 1.384 . S
C103 C104 1.389 . S
C104 C103 1.389 . S
C104 C105 1.405 . S
C105 H94 0.930 . S
C105 C104 1.405 . S
C105 C106 1.364 . S
C106 C105 1.364 . S
C106 C107 1.400 . S
C107 H95 0.931 . S
C107 C102 1.408 . S
C107 C106 1.400 . S
Zn108 O111 2.031 . S
Zn108 O113 2.049 . S
Zn108 O118 2.067 . S
Zn109 O110 1.962 . S
Zn109 O112 1.986 . S
Zn109 O114 1.996 . S
Zn109 O117 1.943 . S
O110 Zn109 1.962 . S
O110 C115 1.254 . S
O111 Zn108 2.031 . S
O111 C115 1.269 . S
O112 Zn109 1.986 . S
O112 C119 1.262 . S
O113 Zn108 2.049 . S
O113 C121 1.260 . S
O114 Zn109 1.996 . S
O114 C121 1.257 . S
C115 O110 1.254 . S
C115 O111 1.269 . S
C116 O117 1.249 . S
C116 O118 1.270 . S
O117 Zn109 1.943 . S
O117 C116 1.249 . S
O118 Zn108 2.067 . S
O118 C116 1.270 . S
C119 O112 1.262 . S
C119 O120 1.232 . S
O120 C119 1.232 . S
C121 O113 1.260 . S
C121 O114 1.257 . S
Zn122 O125 2.031 . S
Zn122 O127 2.049 . S
Zn122 O132 2.067 . S
Zn123 O124 1.962 . S
Zn123 O126 1.986 . S
Zn123 O128 1.996 . S
Zn123 O131 1.943 . S
O124 Zn123 1.962 . S
O124 C129 1.254 . S
O125 Zn122 2.031 . S
O125 C129 1.269 . S
O126 Zn123 1.986 . S
O126 C133 1.262 . S
O127 Zn122 2.049 . S
O127 C135 1.260 . S
O128 Zn123 1.996 . S
O128 C135 1.257 . S
C129 O124 1.254 . S
C129 O125 1.269 . S
C130 O131 1.249 . S
C130 O132 1.270 . S
O131 Zn123 1.943 . S
O131 C130 1.249 . S
O132 Zn122 2.067 . S
O132 C130 1.270 . S
C133 O126 1.262 . S
C133 O134 1.232 . S
O134 C133 1.232 . S
C135 O127 1.260 . S
C135 O128 1.257 . S
Zn136 O139 2.031 . S
Zn136 O141 2.049 . S
Zn136 O146 2.067 . S
Zn137 O138 1.962 . S
Zn137 O140 1.986 . S
Zn137 O142 1.996 . S
Zn137 O145 1.943 . S
O138 Zn137 1.962 . S
O138 C143 1.254 . S
O139 Zn136 2.031 . S
O139 C143 1.269 . S
O140 Zn137 1.986 . S
O140 C147 1.262 . S
O141 Zn136 2.049 . S
O141 C149 1.260 . S
O142 Zn137 1.996 . S
O142 C149 1.257 . S
C143 O138 1.254 . S
C143 O139 1.269 . S
C144 O145 1.249 . S
C144 O146 1.270 . S
O145 Zn137 1.943 . S
O145 C144 1.249 . S
O146 Zn136 2.067 . S
O146 C144 1.270 . S
C147 O140 1.262 . S
C147 O148 1.232 . S
O148 C147 1.232 . S
C149 O141 1.260 . S
C149 O142 1.257 . S
Zn150 O153 2.031 . S
Zn150 O155 2.049 . S
Zn150 O160 2.067 . S
Zn151 O152 1.962 . S
Zn151 O154 1.986 . S
Zn151 O156 1.996 . S
Zn151 O159 1.943 . S
O152 Zn151 1.962 . S
O152 C157 1.254 . S
O153 Zn150 2.031 . S
O153 C157 1.269 . S
O154 Zn151 1.986 . S
O154 C161 1.262 . S
O155 Zn150 2.049 . S
O155 C163 1.260 . S
O156 Zn151 1.996 . S
O156 C163 1.257 . S
C157 O152 1.254 . S
C157 O153 1.269 . S
C158 O159 1.249 . S
C158 O160 1.270 . S
O159 Zn151 1.943 . S
O159 C158 1.249 . S
O160 Zn150 2.067 . S
O160 C158 1.270 . S
C161 O154 1.262 . S
C161 O162 1.232 . S
O162 C161 1.232 . S
C163 O155 1.260 . S
C163 O156 1.257 . S
Zn164 O167 2.031 . S
Zn164 O169 2.049 . S
Zn164 O174 2.067 . S
Zn165 O166 1.962 . S
Zn165 O168 1.986 . S
Zn165 O170 1.996 . S
Zn165 O173 1.943 . S
O166 Zn165 1.962 . S
O166 C171 1.254 . S
O167 Zn164 2.031 . S
O167 C171 1.269 . S
O168 Zn165 1.986 . S
O168 C175 1.262 . S
O169 Zn164 2.049 . S
O169 C177 1.260 . S
O170 Zn165 1.996 . S
O170 C177 1.257 . S
C171 O166 1.254 . S
C171 O167 1.269 . S
C172 O173 1.249 . S
C172 O174 1.270 . S
O173 Zn165 1.943 . S
O173 C172 1.249 . S
O174 Zn164 2.067 . S
O174 C172 1.270 . S
C175 O168 1.262 . S
C175 O176 1.232 . S
O176 C175 1.232 . S
C177 O169 1.260 . S
C177 O170 1.257 . S
Zn178 O181 2.031 . S
Zn178 O183 2.049 . S
Zn178 O188 2.067 . S
Zn179 O180 1.962 . S
Zn179 O182 1.986 . S
Zn179 O184 1.996 . S
Zn179 O187 1.943 . S
O180 Zn179 1.962 . S
O180 C185 1.254 . S
O181 Zn178 2.031 . S
O181 C185 1.269 . S
O182 Zn179 1.986 . S
O182 C189 1.262 . S
O183 Zn178 2.049 . S
O183 C191 1.260 . S
O184 Zn179 1.996 . S
O184 C191 1.257 . S
C185 O180 1.254 . S
C185 O181 1.269 . S
C186 O187 1.249 . S
C186 O188 1.270 . S
O187 Zn179 1.943 . S
O187 C186 1.249 . S
O188 Zn178 2.067 . S
O188 C186 1.270 . S
C189 O182 1.262 . S
C189 O190 1.232 . S
O190 C189 1.232 . S
C191 O183 1.260 . S
C191 O184 1.257 . S
H192 C198 0.930 . S
H193 C201 0.930 . S
H194 C202 0.930 . S
H195 C203 0.930 . S
H196 C206 0.930 . S
H197 C207 0.930 . S
C198 H192 0.930 . S
C198 C199 1.355 . S
C198 C200 1.415 . S
C199 C198 1.355 . S
C199 C201 1.419 . S
C200 C198 1.415 . S
C200 C205 1.425 . S
C200 C207 1.409 . S
C201 H193 0.930 . S
C201 C199 1.419 . S
C201 C202 1.362 . S
C202 H194 0.930 . S
C202 C201 1.362 . S
C202 C205 1.409 . S
C203 H195 0.930 . S
C203 C204 1.355 . S
C203 C205 1.415 . S
C204 C203 1.355 . S
C204 C206 1.419 . S
C205 C200 1.425 . S
C205 C202 1.409 . S
C205 C203 1.415 . S
C206 H196 0.930 . S
C206 C204 1.419 . S
C206 C207 1.362 . S
C207 H197 0.930 . S
C207 C200 1.409 . S
C207 C206 1.362 . S
H208 C214 0.930 . S
H209 C217 0.930 . S
H210 C218 0.930 . S
H211 C219 0.930 . S
H212 C222 0.930 . S
H213 C223 0.930 . S
C214 H208 0.930 . S
C214 C215 1.355 . S
C214 C216 1.415 . S
C215 C214 1.355 . S
C215 C217 1.419 . S
C216 C214 1.415 . S
C216 C221 1.425 . S
C216 C223 1.409 . S
C217 H209 0.930 . S
C217 C215 1.419 . S
C217 C218 1.362 . S
C218 H210 0.930 . S
C218 C217 1.362 . S
C218 C221 1.409 . S
C219 H211 0.930 . S
C219 C220 1.355 . S
C219 C221 1.415 . S
C220 C219 1.355 . S
C220 C222 1.419 . S
C221 C216 1.425 . S
C221 C218 1.409 . S
C221 C219 1.415 . S
C222 H212 0.930 . S
C222 C220 1.419 . S
C222 C223 1.362 . S
C223 H213 0.930 . S
C223 C216 1.409 . S
C223 C222 1.362 . S
H224 C230 0.930 . S
H225 C233 0.930 . S
H226 C234 0.930 . S
H227 C235 0.930 . S
H228 C238 0.930 . S
H229 C239 0.930 . S
C230 H224 0.930 . S
C230 C231 1.355 . S
C230 C232 1.415 . S
C231 C230 1.355 . S
C231 C233 1.419 . S
C232 C230 1.415 . S
C232 C237 1.425 . S
C232 C239 1.409 . S
C233 H225 0.930 . S
C233 C231 1.419 . S
C233 C234 1.362 . S
C234 H226 0.930 . S
C234 C233 1.362 . S
C234 C237 1.409 . S
C235 H227 0.930 . S
C235 C236 1.355 . S
C235 C237 1.415 . S
C236 C235 1.355 . S
C236 C238 1.419 . S
C237 C232 1.425 . S
C237 C234 1.409 . S
C237 C235 1.415 . S
C238 H228 0.930 . S
C238 C236 1.419 . S
C238 C239 1.362 . S
C239 H229 0.930 . S
C239 C232 1.409 . S
C239 C238 1.362 . S
H240 C246 0.930 . S
H241 C249 0.930 . S
H242 C250 0.930 . S
H243 C251 0.930 . S
H244 C254 0.930 . S
H245 C255 0.930 . S
C246 H240 0.930 . S
C246 C247 1.355 . S
C246 C248 1.415 . S
C247 C246 1.355 . S
C247 C249 1.419 . S
C248 C246 1.415 . S
C248 C253 1.425 . S
C248 C255 1.409 . S
C249 H241 0.930 . S
C249 C247 1.419 . S
C249 C250 1.362 . S
C250 H242 0.930 . S
C250 C249 1.362 . S
C250 C253 1.409 . S
C251 H243 0.930 . S
C251 C252 1.355 . S
C251 C253 1.415 . S
C252 C251 1.355 . S
C252 C254 1.419 . S
C253 C248 1.425 . S
C253 C250 1.409 . S
C253 C251 1.415 . S
C254 H244 0.930 . S
C254 C252 1.419 . S
C254 C255 1.362 . S
C255 H245 0.930 . S
C255 C248 1.409 . S
C255 C254 1.362 . S
H256 C262 0.930 1_554 S
H257 C265 0.930 . S
H258 C266 0.930 . S
H259 C267 0.930 . S
H260 C270 0.930 . S
H261 C271 0.930 1_554 S
C262 H256 0.930 1_556 S
C262 C263 1.355 . S
C262 C264 1.415 . S
C263 C262 1.355 . S
C263 C265 1.419 . S
C264 C262 1.415 . S
C264 C269 1.425 . S
C264 C271 1.409 . S
C265 H257 0.930 . S
C265 C263 1.419 . S
C265 C266 1.362 . S
C266 H258 0.930 . S
C266 C265 1.362 . S
C266 C269 1.409 . S
C267 H259 0.930 . S
C267 C268 1.355 . S
C267 C269 1.415 . S
C268 C267 1.355 . S
C268 C270 1.419 . S
C269 C264 1.425 . S
C269 C266 1.409 . S
C269 C267 1.415 . S
C270 H260 0.930 . S
C270 C268 1.419 . S
C270 C271 1.362 . S
C271 H261 0.930 1_556 S
C271 C264 1.409 . S
C271 C270 1.362 . S
H272 C278 0.930 . S
H273 C281 0.930 . S
H274 C282 0.930 . S
H275 C283 0.930 . S
H276 C286 0.930 . S
H277 C287 0.930 . S
C278 H272 0.930 . S
C278 C279 1.355 . S
C278 C280 1.415 . S
C279 C278 1.355 . S
C279 C281 1.419 . S
C280 C278 1.415 . S
C280 C285 1.425 . S
C280 C287 1.409 . S
C281 H273 0.930 . S
C281 C279 1.419 . S
C281 C282 1.362 . S
C282 H274 0.930 . S
C282 C281 1.362 . S
C282 C285 1.409 . S
C283 H275 0.930 . S
C283 C284 1.355 . S
C283 C285 1.415 . S
C284 C283 1.355 . S
C284 C286 1.419 . S
C285 C280 1.425 . S
C285 C282 1.409 . S
C285 C283 1.415 . S
C286 H276 0.930 . S
C286 C284 1.419 . S
C286 C287 1.362 . S
C287 H277 0.930 . S
C287 C280 1.409 . S
C287 C286 1.362 . S
H288 C294 0.930 . S
H289 C297 0.930 . S
H290 C298 0.930 . S
H291 C299 0.930 . S
H292 C302 0.930 . S
H293 C303 0.930 . S
C294 H288 0.930 . S
C294 C295 1.355 . S
C294 C296 1.415 . S
C295 C294 1.355 . S
C295 C297 1.419 . S
C296 C294 1.415 . S
C296 C301 1.425 . S
C296 C303 1.409 . S
C297 H289 0.930 . S
C297 C295 1.419 . S
C297 C298 1.362 . S
C298 H290 0.930 . S
C298 C297 1.362 . S
C298 C301 1.409 . S
C299 H291 0.930 . S
C299 C300 1.355 . S
C299 C301 1.415 . S
C300 C299 1.355 . S
C300 C302 1.419 . S
C301 C296 1.425 . S
C301 C298 1.409 . S
C301 C299 1.415 . S
C302 H292 0.930 . S
C302 C300 1.419 . S
C302 C303 1.362 . S
C303 H293 0.930 . S
C303 C296 1.409 . S
C303 C302 1.362 . S
H304 C310 0.930 . S
H305 C313 0.930 . S
H306 C314 0.930 . S
H307 C315 0.930 . S
H308 C318 0.930 . S
H309 C319 0.930 . S
C310 H304 0.930 . S
C310 C311 1.355 . S
C310 C312 1.415 . S
C311 C310 1.355 . S
C311 C313 1.419 . S
C312 C310 1.415 . S
C312 C317 1.425 . S
C312 C319 1.409 . S
C313 H305 0.930 . S
C313 C311 1.419 . S
C313 C314 1.362 . S
C314 H306 0.930 . S
C314 C313 1.362 . S
C314 C317 1.409 . S
C315 H307 0.930 . S
C315 C316 1.355 . S
C315 C317 1.415 . S
C316 C315 1.355 . S
C316 C318 1.419 . S
C317 C312 1.425 . S
C317 C314 1.409 . S
C317 C315 1.415 . S
C318 H308 0.930 . S
C318 C316 1.419 . S
C318 C319 1.362 . S
C319 H309 0.930 . S
C319 C312 1.409 . S
C319 C318 1.362 . S
H320 C326 0.930 . S
H321 C329 0.930 . S
H322 C330 0.930 . S
H323 C331 0.930 . S
H324 C334 0.930 . S
H325 C335 0.930 . S
C326 H320 0.930 . S
C326 C327 1.355 . S
C326 C328 1.415 . S
C327 C326 1.355 . S
C327 C329 1.419 . S
C328 C326 1.415 . S
C328 C333 1.425 . S
C328 C335 1.409 . S
C329 H321 0.930 . S
C329 C327 1.419 . S
C329 C330 1.362 . S
C330 H322 0.930 . S
C330 C329 1.362 . S
C330 C333 1.409 . S
C331 H323 0.930 . S
C331 C332 1.355 . S
C331 C333 1.415 . S
C332 C331 1.355 . S
C332 C334 1.419 . S
C333 C328 1.425 . S
C333 C330 1.409 . S
C333 C331 1.415 . S
C334 H324 0.930 . S
C334 C332 1.419 . S
C334 C335 1.362 . S
C335 H325 0.930 . S
C335 C328 1.409 . S
C335 C334 1.362 . S
H336 C342 0.930 . S
H337 C345 0.930 . S
H338 C346 0.930 . S
H339 C347 0.930 . S
H340 C350 0.930 . S
H341 C351 0.930 . S
C342 H336 0.930 . S
C342 C343 1.355 . S
C342 C344 1.415 . S
C343 C342 1.355 . S
C343 C345 1.419 1_554 S
C344 C342 1.415 . S
C344 C349 1.425 . S
C344 C351 1.409 . S
C345 H337 0.930 . S
C345 C343 1.419 1_556 S
C345 C346 1.362 . S
C346 H338 0.930 . S
C346 C345 1.362 . S
C346 C349 1.409 1_556 S
C347 H339 0.930 . S
C347 C348 1.355 . S
C347 C349 1.415 . S
C348 C347 1.355 . S
C348 C350 1.419 . S
C349 C344 1.425 . S
C349 C346 1.409 1_554 S
C349 C347 1.415 . S
C350 H340 0.930 . S
C350 C348 1.419 . S
C350 C351 1.362 . S
C351 H341 0.930 . S
C351 C344 1.409 . S
C351 C350 1.362 . S
H352 C358 0.930 . S
H353 C361 0.930 . S
H354 C362 0.930 . S
H355 C363 0.930 . S
H356 C366 0.930 . S
H357 C367 0.930 . S
C358 H352 0.930 . S
C358 C359 1.355 . S
C358 C360 1.415 . S
C359 C358 1.355 . S
C359 C361 1.419 . S
C360 C358 1.415 . S
C360 C365 1.425 . S
C360 C367 1.409 . S
C361 H353 0.930 . S
C361 C359 1.419 . S
C361 C362 1.362 . S
C362 H354 0.930 . S
C362 C361 1.362 . S
C362 C365 1.409 . S
C363 H355 0.930 . S
C363 C364 1.355 . S
C363 C365 1.415 . S
C364 C363 1.355 . S
C364 C366 1.419 . S
C365 C360 1.425 . S
C365 C362 1.409 . S
C365 C363 1.415 . S
C366 H356 0.930 . S
C366 C364 1.419 . S
C366 C367 1.362 . S
C367 H357 0.930 . S
C367 C360 1.409 . S
C367 C366 1.362 . S
H368 C374 0.930 . S
H369 C377 0.930 . S
H370 C378 0.930 . S
H371 C379 0.930 . S
H372 C382 0.930 . S
H373 C383 0.930 . S
C374 H368 0.930 . S
C374 C375 1.355 . S
C374 C376 1.415 . S
C375 C374 1.355 . S
C375 C377 1.419 . S
C376 C374 1.415 . S
C376 C381 1.425 . S
C376 C383 1.409 . S
C377 H369 0.930 . S
C377 C375 1.419 . S
C377 C378 1.362 . S
C378 H370 0.930 . S
C378 C377 1.362 . S
C378 C381 1.409 . S
C379 H371 0.930 . S
C379 C380 1.355 . S
C379 C381 1.415 . S
C380 C379 1.355 . S
C380 C382 1.419 . S
C381 C376 1.425 . S
C381 C378 1.409 . S
C381 C379 1.415 . S
C382 H372 0.930 . S
C382 C380 1.419 . S
C382 C383 1.362 . S
C383 H373 0.930 . S
C383 C376 1.409 . S
C383 C382 1.362 . S
H384 C390 0.930 . S
H385 C393 0.930 . S
H386 C394 0.930 . S
H387 C395 0.930 . S
H388 C398 0.930 . S
H389 C399 0.930 . S
C390 H384 0.930 . S
C390 C391 1.355 . S
C390 C392 1.415 . S
C391 C390 1.355 . S
C391 C393 1.419 . S
C392 C390 1.415 . S
C392 C397 1.425 . S
C392 C399 1.409 . S
C393 H385 0.930 . S
C393 C391 1.419 . S
C393 C394 1.362 . S
C394 H386 0.930 . S
C394 C393 1.362 . S
C394 C397 1.409 . S
C395 H387 0.930 . S
C395 C396 1.355 . S
C395 C397 1.415 . S
C396 C395 1.355 . S
C396 C398 1.419 . S
C397 C392 1.425 . S
C397 C394 1.409 . S
C397 C395 1.415 . S
C398 H388 0.930 . S
C398 C396 1.419 . S
C398 C399 1.362 . S
C399 H389 0.930 . S
C399 C392 1.409 . S
C399 C398 1.362 . S
H400 C406 0.930 . S
H401 C409 0.930 . S
H402 C410 0.930 . S
H403 C411 0.930 . S
H404 C414 0.930 . S
H405 C415 0.930 . S
C406 H400 0.930 . S
C406 C407 1.355 . S
C406 C408 1.415 . S
C407 C406 1.355 . S
C407 C409 1.419 . S
C408 C406 1.415 . S
C408 C413 1.425 . S
C408 C415 1.409 . S
C409 H401 0.930 . S
C409 C407 1.419 . S
C409 C410 1.362 . S
C410 H402 0.930 . S
C410 C409 1.362 . S
C410 C413 1.409 . S
C411 H403 0.930 . S
C411 C412 1.355 . S
C411 C413 1.415 . S
C412 C411 1.355 . S
C412 C414 1.419 . S
C413 C408 1.425 . S
C413 C410 1.409 . S
C413 C411 1.415 . S
C414 H404 0.930 . S
C414 C412 1.419 . S
C414 C415 1.362 . S
C415 H405 0.930 . S
C415 C408 1.409 . S
C415 C414 1.362 . S
H416 C422 0.930 . S
H417 C425 0.930 . S
H418 C426 0.930 . S
H419 C427 0.930 . S
H420 C430 0.930 . S
H421 C431 0.930 . S
C422 H416 0.930 . S
C422 C423 1.355 . S
C422 C424 1.415 . S
C423 C422 1.355 . S
C423 C425 1.419 . S
C424 C422 1.415 . S
C424 C429 1.425 . S
C424 C431 1.409 . S
C425 H417 0.930 . S
C425 C423 1.419 . S
C425 C426 1.362 . S
C426 H418 0.930 . S
C426 C425 1.362 . S
C426 C429 1.409 . S
C427 H419 0.930 . S
C427 C428 1.355 . S
C427 C429 1.415 . S
C428 C427 1.355 . S
C428 C430 1.419 . S
C429 C424 1.425 . S
C429 C426 1.409 . S
C429 C427 1.415 . S
C430 H420 0.930 . S
C430 C428 1.419 . S
C430 C431 1.362 . S
C431 H421 0.930 . S
C431 C424 1.409 . S
C431 C430 1.362 . S
H432 C438 0.930 . S
H433 C441 0.930 . S
H434 C442 0.930 . S
H435 C443 0.930 . S
H436 C446 0.930 . S
H437 C447 0.930 . S
C438 H432 0.930 . S
C438 C439 1.355 . S
C438 C440 1.415 . S
C439 C438 1.355 . S
C439 C441 1.419 . S
C440 C438 1.415 . S
C440 C445 1.425 . S
C440 C447 1.409 . S
C441 H433 0.930 . S
C441 C439 1.419 . S
C441 C442 1.362 . S
C442 H434 0.930 . S
C442 C441 1.362 . S
C442 C445 1.409 . S
C443 H435 0.930 . S
C443 C444 1.355 . S
C443 C445 1.415 . S
C444 C443 1.355 . S
C444 C446 1.419 . S
C445 C440 1.425 . S
C445 C442 1.409 . S
C445 C443 1.415 . S
C446 H436 0.930 . S
C446 C444 1.419 . S
C446 C447 1.362 . S
C447 H437 0.930 . S
C447 C440 1.409 . S
C447 C446 1.362 . S
H448 C454 0.930 . S
H449 C457 0.930 . S
H450 C458 0.930 . S
H451 C459 0.930 . S
H452 C462 0.930 . S
H453 C463 0.930 . S
C454 H448 0.930 . S
C454 C455 1.355 . S
C454 C456 1.415 . S
C455 C454 1.355 . S
C455 C457 1.419 . S
C456 C454 1.415 . S
C456 C461 1.425 . S
C456 C463 1.409 . S
C457 H449 0.930 . S
C457 C455 1.419 . S
C457 C458 1.362 . S
C458 H450 0.930 . S
C458 C457 1.362 . S
C458 C461 1.409 . S
C459 H451 0.930 . S
C459 C460 1.355 . S
C459 C461 1.415 . S
C460 C459 1.355 . S
C460 C462 1.419 . S
C461 C456 1.425 . S
C461 C458 1.409 . S
C461 C459 1.415 . S
C462 H452 0.930 . S
C462 C460 1.419 . S
C462 C463 1.362 . S
C463 H453 0.930 . S
C463 C456 1.409 . S
C463 C462 1.362 . S
H464 C470 0.930 . S
H465 C473 0.930 . S
H466 C474 0.930 . S
H467 C475 0.930 . S
H468 C478 0.930 . S
H469 C479 0.930 . S
C470 H464 0.930 . S
C470 C471 1.355 . S
C470 C472 1.415 . S
C471 C470 1.355 . S
C471 C473 1.419 . S
C472 C470 1.415 . S
C472 C477 1.425 . S
C472 C479 1.409 . S
C473 H465 0.930 . S
C473 C471 1.419 . S
C473 C474 1.362 . S
C474 H466 0.930 . S
C474 C473 1.362 . S
C474 C477 1.409 . S
C475 H467 0.930 . S
C475 C476 1.355 . S
C475 C477 1.415 . S
C476 C475 1.355 . S
C476 C478 1.419 . S
C477 C472 1.425 . S
C477 C474 1.409 . S
C477 C475 1.415 . S
C478 H468 0.930 . S
C478 C476 1.419 . S
C478 C479 1.362 . S
C479 H469 0.930 . S
C479 C472 1.409 . S
C479 C478 1.362 . S
H480 C486 0.930 . S
H481 C489 0.930 . S
H482 C490 0.930 . S
H483 C491 0.930 . S
H484 C494 0.930 . S
H485 C495 0.930 . S
C486 H480 0.930 . S
C486 C487 1.355 . S
C486 C488 1.415 . S
C487 C486 1.355 . S
C487 C489 1.419 . S
C488 C486 1.415 . S
C488 C493 1.425 . S
C488 C495 1.409 . S
C489 H481 0.930 . S
C489 C487 1.419 . S
C489 C490 1.362 . S
C490 H482 0.930 . S
C490 C489 1.362 . S
C490 C493 1.409 . S
C491 H483 0.930 . S
C491 C492 1.355 . S
C491 C493 1.415 . S
C492 C491 1.355 . S
C492 C494 1.419 . S
C493 C488 1.425 . S
C493 C490 1.409 . S
C493 C491 1.415 . S
C494 H484 0.930 . S
C494 C492 1.419 . S
C494 C495 1.362 . S
C495 H485 0.930 . S
C495 C488 1.409 . S
C495 C494 1.362 . S
H496 C502 0.930 . S
H497 C505 0.930 . S
H498 C506 0.930 . S
H499 C507 0.930 . S
H500 C510 0.930 . S
H501 C511 0.930 . S
C502 H496 0.930 . S
C502 C503 1.355 . S
C502 C504 1.415 . S
C503 C502 1.355 . S
C503 C505 1.419 . S
C504 C502 1.415 . S
C504 C509 1.425 . S
C504 C511 1.409 . S
C505 H497 0.930 . S
C505 C503 1.419 . S
C505 C506 1.362 . S
C506 H498 0.930 . S
C506 C505 1.362 . S
C506 C509 1.409 . S
C507 H499 0.930 . S
C507 C508 1.355 . S
C507 C509 1.415 . S
C508 C507 1.355 . S
C508 C510 1.419 . S
C509 C504 1.425 . S
C509 C506 1.409 . S
C509 C507 1.415 . S
C510 H500 0.930 . S
C510 C508 1.419 . S
C510 C511 1.362 . S
C511 H501 0.930 . S
C511 C504 1.409 . S
C511 C510 1.362 . S
H512 C518 0.930 . S
H513 C521 0.930 . S
H514 C522 0.930 . S
H515 C523 0.930 . S
H516 C526 0.930 . S
H517 C527 0.930 . S
C518 H512 0.930 . S
C518 C519 1.355 . S
C518 C520 1.415 . S
C519 C518 1.355 . S
C519 C521 1.419 . S
C520 C518 1.415 . S
C520 C525 1.425 . S
C520 C527 1.409 . S
C521 H513 0.930 . S
C521 C519 1.419 . S
C521 C522 1.362 . S
C522 H514 0.930 . S
C522 C521 1.362 . S
C522 C525 1.409 . S
C523 H515 0.930 . S
C523 C524 1.355 . S
C523 C525 1.415 . S
C524 C523 1.355 . S
C524 C526 1.419 . S
C525 C520 1.425 . S
C525 C522 1.409 . S
C525 C523 1.415 . S
C526 H516 0.930 . S
C526 C524 1.419 . S
C526 C527 1.362 . S
C527 H517 0.930 . S
C527 C520 1.409 . S
C527 C526 1.362 . S
H528 C534 0.930 . S
H529 C537 0.930 . S
H530 C538 0.930 . S
H531 C539 0.930 . S
H532 C542 0.930 . S
H533 C543 0.930 . S
C534 H528 0.930 . S
C534 C535 1.355 . S
C534 C536 1.415 . S
C535 C534 1.355 . S
C535 C537 1.419 . S
C536 C534 1.415 . S
C536 C541 1.425 . S
C536 C543 1.409 . S
C537 H529 0.930 . S
C537 C535 1.419 . S
C537 C538 1.362 . S
C538 H530 0.930 . S
C538 C537 1.362 . S
C538 C541 1.409 . S
C539 H531 0.930 . S
C539 C540 1.355 . S
C539 C541 1.415 . S
C540 C539 1.355 . S
C540 C542 1.419 . S
C541 C536 1.425 . S
C541 C538 1.409 . S
C541 C539 1.415 . S
C542 H532 0.930 . S
C542 C540 1.419 . S
C542 C543 1.362 . S
C543 H533 0.930 . S
C543 C536 1.409 . S
C543 C542 1.362 . S
H544 C550 0.930 . S
H545 C553 0.930 . S
H546 C554 0.930 . S
H547 C555 0.930 . S
H548 C558 0.930 . S
H549 C559 0.930 . S
C550 H544 0.930 . S
C550 C551 1.355 . S
C550 C552 1.415 . S
C551 C550 1.355 . S
C551 C553 1.419 . S
C552 C550 1.415 . S
C552 C557 1.425 . S
C552 C559 1.409 . S
C553 H545 0.930 . S
C553 C551 1.419 . S
C553 C554 1.362 . S
C554 H546 0.930 . S
C554 C553 1.362 . S
C554 C557 1.409 . S
C555 H547 0.930 . S
C555 C556 1.355 . S
C555 C557 1.415 1_556 S
C556 C555 1.355 . S
C556 C558 1.419 1_556 S
C557 C552 1.425 . S
C557 C554 1.409 . S
C557 C555 1.415 1_554 S
C558 H548 0.930 . S
C558 C556 1.419 1_554 S
C558 C559 1.362 . S
C559 H549 0.930 . S
C559 C552 1.409 . S
C559 C558 1.362 . S
H560 C566 0.930 . S
H561 C569 0.930 . S
H562 C570 0.930 . S
H563 C571 0.930 . S
H564 C574 0.930 . S
H565 C575 0.930 . S
C566 H560 0.930 . S
C566 C567 1.355 . S
C566 C568 1.415 . S
C567 C566 1.355 . S
C567 C569 1.419 . S
C568 C566 1.415 . S
C568 C573 1.425 . S
C568 C575 1.409 . S
C569 H561 0.930 . S
C569 C567 1.419 . S
C569 C570 1.362 . S
C570 H562 0.930 . S
C570 C569 1.362 . S
C570 C573 1.409 . S
C571 H563 0.930 . S
C571 C572 1.355 . S
C571 C573 1.415 . S
C572 C571 1.355 . S
C572 C574 1.419 . S
C573 C568 1.425 . S
C573 C570 1.409 . S
C573 C571 1.415 . S
C574 H564 0.930 . S
C574 C572 1.419 . S
C574 C575 1.362 . S
C575 H565 0.930 . S
C575 C568 1.409 . S
C575 C574 1.362 . S
C204 C185 1.544 . S
C199 C8 1.520 . S
C215 C26 1.430 . S
C220 C119 1.451 . S
C231 C50 1.423 . S
C236 C133 1.415 . S
C247 C68 1.450 . S
C252 C147 1.472 . S
C268 C161 1.456 . S
C263 C80 1.475 . S
C279 C104 1.471 . S
C284 C171 1.506 . S
C295 C32 1.512 . S
C300 C129 1.552 . S
C311 C44 1.523 . S
C316 C143 1.604 . S
C327 C62 1.475 . S
C332 C157 1.544 . S
C348 C175 1.474 . S
C343 C86 1.406 1_554 S
C364 C189 1.482 . S
C359 C98 1.489 . S
C380 C115 1.531 . S
C375 C14 1.495 . S
C391 C7 1.482 . S
C396 C130 1.483 . S
C407 C25 1.488 . S
C412 C144 1.486 . S
C428 C158 1.475 . S
C423 C52 1.497 . S
C439 C70 1.465 . S
C444 C177 1.412 1_556 S
C460 C191 1.401 . S
C455 C79 1.394 . S
C476 C116 1.391 . S
C471 C106 1.425 . S
C492 C186 1.471 . S
C487 C34 1.477 . S
C503 C43 1.329 . S
C508 C121 1.350 . S
C524 C135 1.316 . S
C519 C61 1.339 . S
C535 C88 1.455 . S
C540 C149 1.407 . S
C551 C97 1.465 . S
C556 C163 1.456 . S
C567 C16 1.452 . S
C572 C172 1.452 . S
