# Generated by pormake.
# Topology zzz, (3,6)-cn, num edge types: 1
# Building blocks:
#     Node 0, Type 0, BuildingBlock: QEWDON_clean_linker_0, # of connection points: 3
#     Node 1, Type 0, BuildingBlock: QEWDON_clean_linker_0, # of connection points: 3
#     Node 2, Type 0, BuildingBlock: QEWDON_clean_linker_0, # of connection points: 3
#     Node 3, Type 0, BuildingBlock: QEWDON_clean_linker_0, # of connection points: 3
#     Node 4, Type 0, BuildingBlock: QEWDON_clean_linker_0, # of connection points: 3
#     Node 5, Type 0, BuildingBlock: QEWDON_clean_linker_0, # of connection points: 3
#     Node 6, Type 0, BuildingBlock: QEWDON_clean_linker_0, # of connection points: 3
#     Node 7, Type 0, BuildingBlock: QEWDON_clean_linker_0, # of connection points: 3
#     Node 8, Type 1, BuildingBlock: CUKXOW_clean_sbu_0, # of connection points: 6
#     Node 9, Type 1, BuildingBlock: CUKXOW_clean_sbu_0, # of connection points: 6
#     Node 10, Type 1, BuildingBlock: CUKXOW_clean_sbu_0, # of connection points: 6
#     Node 11, Type 1, BuildingBlock: CUKXOW_clean_sbu_0, # of connection points: 6
#     Edge 12, Type (0, 1), BuildingBlock: UVAHIK_clean_linker_0, # of connection points: 2
#     Edge 13, Type (0, 1), BuildingBlock: UVAHIK_clean_linker_0, # of connection points: 2
#     Edge 14, Type (0, 1), BuildingBlock: UVAHIK_clean_linker_0, # of connection points: 2
#     Edge 15, Type (0, 1), BuildingBlock: UVAHIK_clean_linker_0, # of connection points: 2
#     Edge 16, Type (0, 1), BuildingBlock: UVAHIK_clean_linker_0, # of connection points: 2
#     Edge 17, Type (0, 1), BuildingBlock: UVAHIK_clean_linker_0, # of connection points: 2
#     Edge 18, Type (0, 1), BuildingBlock: UVAHIK_clean_linker_0, # of connection points: 2
#     Edge 19, Type (0, 1), BuildingBlock: UVAHIK_clean_linker_0, # of connection points: 2
#     Edge 20, Type (0, 1), BuildingBlock: UVAHIK_clean_linker_0, # of connection points: 2
#     Edge 21, Type (0, 1), BuildingBlock: UVAHIK_clean_linker_0, # of connection points: 2
#     Edge 22, Type (0, 1), BuildingBlock: UVAHIK_clean_linker_0, # of connection points: 2
#     Edge 23, Type (0, 1), BuildingBlock: UVAHIK_clean_linker_0, # of connection points: 2
#     Edge 24, Type (0, 1), BuildingBlock: UVAHIK_clean_linker_0, # of connection points: 2
#     Edge 25, Type (0, 1), BuildingBlock: UVAHIK_clean_linker_0, # of connection points: 2
#     Edge 26, Type (0, 1), BuildingBlock: UVAHIK_clean_linker_0, # of connection points: 2
#     Edge 27, Type (0, 1), BuildingBlock: UVAHIK_clean_linker_0, # of connection points: 2
#     Edge 28, Type (0, 1), BuildingBlock: UVAHIK_clean_linker_0, # of connection points: 2
#     Edge 29, Type (0, 1), BuildingBlock: UVAHIK_clean_linker_0, # of connection points: 2
#     Edge 30, Type (0, 1), BuildingBlock: UVAHIK_clean_linker_0, # of connection points: 2
#     Edge 31, Type (0, 1), BuildingBlock: UVAHIK_clean_linker_0, # of connection points: 2
#     Edge 32, Type (0, 1), BuildingBlock: UVAHIK_clean_linker_0, # of connection points: 2
#     Edge 33, Type (0, 1), BuildingBlock: UVAHIK_clean_linker_0, # of connection points: 2
#     Edge 34, Type (0, 1), BuildingBlock: UVAHIK_clean_linker_0, # of connection points: 2
#     Edge 35, Type (0, 1), BuildingBlock: UVAHIK_clean_linker_0, # of connection points: 2
# Relax obj value: 0.029
# Max RMSD: 0.090
# Mean RMSD: 0.035
data_MOF--net-zzz--node1-CUKXOW_clean_sbu_0--node2-QEWDON_clean_linker_0--edge1-UVAHIK_clean_linker_0
_symmetry_space_group_name_H-M    P1
_symmetry_Int_Tables_number       1
_symmetry_cell_setting            triclinic
loop_
_symmetry_equiv_pos_as_xyz
'x, y, z'
_cell_length_a     69.439432
_cell_length_b     71.791007
_cell_length_c     19.569131
_cell_angle_alpha  93.002648
_cell_angle_beta   87.005777
_cell_angle_gamma 93.37155
loop_
_atom_site_label
_atom_site_type_symbol
_atom_site_fract_x
_atom_site_fract_y
_atom_site_fract_z
_atom_type_partial_charge
H0 H 0.77546 0.54055 0.98472 0.0
C1 C 0.78157 0.53492 0.02859 0.0
C2 C 0.79947 0.52682 0.02065 0.0
C3 C 0.77204 0.53656 0.0938 0.0
H4 H 0.8221 0.51497 0.07159 0.0
C5 C 0.80777 0.52028 0.0778 0.0
C6 C 0.7988 0.52221 0.14344 0.0
C7 C 0.78083 0.53029 0.15108 0.0
C8 C 0.75359 0.546 0.10293 0.0
H9 H 0.77379 0.53186 0.20163 0.0
C10 C 0.73832 0.54118 0.05963 0.0
C11 C 0.72095 0.55041 0.06786 0.0
C12 C 0.75129 0.56013 0.15471 0.0
H13 H 0.76288 0.56422 0.18831 0.0
C14 C 0.73414 0.56936 0.16282 0.0
H15 H 0.73995 0.53027 0.01965 0.0
C16 C 0.71906 0.56459 0.11969 0.0
H17 H 0.70579 0.5718 0.12754 0.0
H18 H 0.73252 0.58026 0.20272 0.0
H19 H 0.9591 0.78278 0.92426 0.0
C20 C 0.96164 0.78793 0.97627 0.0
C21 C 0.96865 0.80646 0.98883 0.0
C22 C 0.95653 0.77654 0.03162 0.0
H23 H 0.97638 0.8277 0.0658 0.0
C24 C 0.97134 0.81324 0.05614 0.0
C25 C 0.9662 0.80212 0.1114 0.0
C26 C 0.9586 0.78382 0.09926 0.0
C27 C 0.94711 0.75775 0.01943 0.0
H28 H 0.95401 0.7754 0.14219 0.0
C29 C 0.95678 0.74361 0.9816 0.0
C30 C 0.94757 0.72576 0.97065 0.0
C31 C 0.92822 0.75398 0.04615 0.0
H32 H 0.92055 0.76471 0.07535 0.0
C33 C 0.91898 0.7364 0.03473 0.0
H34 H 0.97141 0.74645 0.96116 0.0
C35 C 0.92855 0.72237 0.99722 0.0
H36 H 0.92119 0.70873 0.99011 0.0
H37 H 0.90438 0.73361 0.05534 0.0
H38 H 0.72823 0.95538 0.96876 0.0
C39 C 0.72124 0.96106 0.01546 0.0
C40 C 0.70264 0.96759 0.01398 0.0
C41 C 0.73025 0.96078 0.07833 0.0
H42 H 0.67916 0.97976 0.07295 0.0
C43 C 0.69358 0.97475 0.07439 0.0
C44 C 0.70235 0.97473 0.13703 0.0
C45 C 0.72058 0.96743 0.13916 0.0
C46 C 0.74915 0.95242 0.08142 0.0
H47 H 0.72726 0.96701 0.18788 0.0
C48 C 0.76516 0.95853 0.03963 0.0
C49 C 0.78307 0.95046 0.04307 0.0
C50 C 0.75118 0.93817 0.12657 0.0
H51 H 0.73903 0.9332 0.15898 0.0
C52 C 0.76883 0.93001 0.12959 0.0
H53 H 0.76369 0.96958 0.00489 0.0
C54 C 0.78468 0.93607 0.08816 0.0
H55 H 0.79832 0.92974 0.09233 0.0
H56 H 0.77025 0.919 0.1644 0.0
H57 H 0.54696 0.73187 0.97547 0.0
C58 C 0.54705 0.72697 0.0269 0.0
C59 C 0.5359 0.71073 0.04393 0.0
C60 C 0.55901 0.73633 0.07532 0.0
H61 H 0.5286 0.69124 0.12256 0.0
C62 C 0.53651 0.7042 0.10999 0.0
C63 C 0.54866 0.71301 0.15798 0.0
C64 C 0.55995 0.72905 0.14057 0.0
C65 C 0.57153 0.75296 0.05656 0.0
H66 H 0.5695 0.73576 0.17766 0.0
C67 C 0.56403 0.76792 0.02449 0.0
C68 C 0.57601 0.78377 0.00783 0.0
C69 C 0.59117 0.75393 0.07119 0.0
H70 H 0.59736 0.74255 0.09511 0.0
C71 C 0.60309 0.76949 0.05444 0.0
H72 H 0.5489 0.76726 0.01298 0.0
C73 C 0.59561 0.78432 0.0232 0.0
H74 H 0.60515 0.79639 0.01214 0.0
H75 H 0.61819 0.7701 0.06607 0.0
H76 H 0.24417 0.50527 0.34101 0.0
C77 C 0.23637 0.49856 0.29905 0.0
C78 C 0.2168 0.49294 0.30974 0.0
C79 C 0.24551 0.49631 0.23329 0.0
H80 H 0.19102 0.48179 0.26323 0.0
C81 C 0.20639 0.48511 0.25504 0.0
C82 C 0.215 0.48328 0.18896 0.0
C83 C 0.23465 0.48864 0.17856 0.0
C84 C 0.26598 0.50299 0.2203 0.0
H85 H 0.24137 0.4871 0.12749 0.0
C86 C 0.28021 0.49969 0.26634 0.0
C87 C 0.29967 0.50549 0.25214 0.0
C88 C 0.27143 0.5126 0.16083 0.0
H89 H 0.26079 0.51573 0.12518 0.0
C90 C 0.29066 0.51848 0.14695 0.0
H91 H 0.27627 0.49215 0.31202 0.0
C92 C 0.30472 0.5149 0.19201 0.0
H93 H 0.31954 0.51973 0.18033 0.0
H94 H 0.29467 0.52588 0.10109 0.0
H95 H 0.01874 0.22845 0.45455 0.0
C96 C 0.02357 0.22425 0.40274 0.0
C97 C 0.03381 0.208 0.39065 0.0
C98 C 0.01817 0.23421 0.34756 0.0
H99 H 0.04545 0.18883 0.31356 0.0
C100 C 0.03887 0.2021 0.32289 0.0
C101 C 0.0333 0.21167 0.26702 0.0
C102 C 0.02315 0.22796 0.28002 0.0
C103 C 0.004 0.24868 0.35942 0.0
H104 H 0.01821 0.23528 0.23775 0.0
C105 C 0.00938 0.26685 0.38462 0.0
C106 C 0.99547 0.28044 0.39406 0.0
C107 C 0.98471 0.24402 0.34475 0.0
H108 H 0.98036 0.23006 0.32545 0.0
C109 C 0.97084 0.25724 0.35541 0.0
H110 H 0.02436 0.27047 0.39499 0.0
C111 C 0.97613 0.27529 0.37993 0.0
H112 H 0.96498 0.28522 0.38825 0.0
H113 H 0.95594 0.2535 0.34458 0.0
H114 H 0.28607 0.0287 0.38914 0.0
C115 C 0.29395 0.03399 0.34428 0.0
C116 C 0.31264 0.04236 0.35076 0.0
C117 C 0.28618 0.03105 0.27924 0.0
H118 H 0.33833 0.05306 0.29652 0.0
C119 C 0.3234 0.04798 0.29205 0.0
C120 C 0.31624 0.04443 0.22687 0.0
C121 C 0.2974 0.03659 0.22094 0.0
C122 C 0.26762 0.01991 0.27067 0.0
H123 H 0.29195 0.03384 0.17028 0.0
C124 C 0.25141 0.02255 0.31597 0.0
C125 C 0.23416 0.01147 0.30766 0.0
C126 C 0.26631 0.00603 0.21729 0.0
H127 H 0.27861 0.00325 0.18272 0.0
C128 C 0.24921 0.99526 0.20843 0.0
H129 H 0.25226 0.03307 0.35766 0.0
C130 C 0.23324 0.99796 0.25302 0.0
H131 H 0.22008 0.98949 0.24444 0.0
H132 H 0.24837 0.9847 0.16695 0.0
H133 H 0.48574 0.28541 0.35212 0.0
C134 C 0.48064 0.29091 0.30622 0.0
C135 C 0.47258 0.30849 0.30976 0.0
C136 C 0.4831 0.28093 0.24263 0.0
H137 H 0.46153 0.32977 0.2512 0.0
C138 C 0.46672 0.31579 0.24947 0.0
C139 C 0.46949 0.30629 0.18581 0.0
C140 C 0.47752 0.2888 0.18272 0.0
C141 C 0.49305 0.26312 0.23692 0.0
H142 H 0.47981 0.28152 0.13328 0.0
C143 C 0.48759 0.24837 0.28003 0.0
C144 C 0.49637 0.23114 0.27026 0.0
C145 C 0.50786 0.26066 0.18596 0.0
H146 H 0.51258 0.27186 0.1529 0.0
C147 C 0.51679 0.24377 0.17712 0.0
H148 H 0.4761 0.25003 0.31916 0.0
C149 C 0.51103 0.22906 0.21857 0.0
H150 H 0.51819 0.21606 0.21065 0.0
H151 H 0.52818 0.24205 0.13775 0.0
Tb152 Tb 0.00428 0.99106 0.62954 0.0
C153 C 0.04543 0.01058 0.63903 0.0
Tb154 Tb 0.01039 0.02263 0.74203 0.0
O155 O 0.00934 0.01147 0.5499 0.0
O156 O 0.99758 0.01921 0.64655 0.0
O157 O 0.03539 0.99507 0.61947 0.0
C158 C 0.01676 0.05606 0.80549 0.0
O159 O 0.03789 0.02398 0.68007 0.0
C160 C 0.01137 0.98831 0.78087 0.0
C161 C 0.9698 0.00164 0.73673 0.0
O162 O 0.02535 0.04106 0.81779 0.0
O163 O 0.00449 0.05211 0.75849 0.0
O164 O 0.00597 0.00209 0.82205 0.0
O165 O 0.01724 0.99462 0.72451 0.0
O166 O 0.97928 0.01751 0.75597 0.0
O167 O 0.9777 0.98871 0.69478 0.0
C168 C 0.99639 0.95863 0.5613 0.0
O169 O 0.98708 0.97368 0.55741 0.0
O170 O 0.01031 0.96193 0.60275 0.0
C171 C 0.0039 0.02535 0.59028 0.0
Tb172 Tb 0.50932 0.02983 0.66043 0.0
C173 C 0.53686 0.00235 0.58147 0.0
Tb174 Tb 0.51106 0.98982 0.71289 0.0
O175 O 0.53947 0.03693 0.68123 0.0
O176 O 0.52355 0.01685 0.73698 0.0
O177 O 0.52655 0.0172 0.57626 0.0
C178 C 0.52032 0.95699 0.75665 0.0
O179 O 0.53414 0.99092 0.63283 0.0
C180 C 0.48005 0.99613 0.64865 0.0
C181 C 0.48504 0.018 0.79574 0.0
O182 O 0.51317 0.95954 0.69808 0.0
O183 O 0.52228 0.97297 0.79066 0.0
O184 O 0.4806 0.98362 0.69389 0.0
O185 O 0.49697 0.00285 0.63615 0.0
O186 O 0.49477 0.00269 0.79907 0.0
O187 O 0.4873 0.02933 0.74407 0.0
C188 C 0.49873 0.06165 0.61241 0.0
O189 O 0.49698 0.04528 0.58094 0.0
O190 O 0.50643 0.06005 0.67071 0.0
C191 C 0.54035 0.02409 0.72517 0.0
Tb192 Tb 0.51459 0.52442 0.61597 0.0
C193 C 0.47168 0.50718 0.61938 0.0
Tb194 Tb 0.50218 0.49487 0.7233 0.0
O195 O 0.51264 0.50272 0.5333 0.0
O196 O 0.51945 0.4962 0.63149 0.0
O197 O 0.48392 0.52084 0.59784 0.0
C198 C 0.49164 0.4626 0.78032 0.0
O199 O 0.47606 0.49513 0.66493 0.0
C200 C 0.50015 0.52988 0.76699 0.0
C201 C 0.54415 0.51286 0.723 0.0
O202 O 0.49307 0.46511 0.71509 0.0
O203 O 0.49605 0.47827 0.81346 0.0
O204 O 0.50075 0.51633 0.80816 0.0
O205 O 0.49768 0.52301 0.70767 0.0
O206 O 0.53329 0.49734 0.73416 0.0
O207 O 0.53839 0.52631 0.68587 0.0
C208 C 0.52485 0.55621 0.55527 0.0
O209 O 0.53476 0.54133 0.55097 0.0
O210 O 0.50917 0.55303 0.59277 0.0
C211 C 0.51551 0.4893 0.57318 0.0
Tb212 Tb 0.99379 0.5117 0.61474 0.0
C213 C 0.00918 0.47278 0.63561 0.0
Tb214 Tb 0.02202 0.50841 0.72943 0.0
O215 O 0.01712 0.50864 0.5351 0.0
O216 O 0.02284 0.5199 0.63239 0.0
O217 O 0.99398 0.48163 0.61918 0.0
C218 C 0.0527 0.50209 0.79968 0.0
O219 O 0.02319 0.4813 0.67147 0.0
C220 C 0.98528 0.50739 0.76646 0.0
C221 C 0.00637 0.54793 0.70866 0.0
O222 O 0.03536 0.49479 0.81133 0.0
O223 O 0.05264 0.51318 0.74956 0.0
O224 O 0.99875 0.514 0.80628 0.0
O225 O 0.9929 0.50043 0.71206 0.0
O226 O 0.01969 0.53866 0.73733 0.0
O227 O 0.99465 0.54002 0.66231 0.0
C228 C 0.9617 0.51539 0.5485 0.0
O229 O 0.96395 0.52 0.61263 0.0
O230 O 0.97761 0.50902 0.52139 0.0
C231 C 0.03056 0.5142 0.57642 0.0
C232 C 0.21026 0.03147 0.37412 0.0
C233 C 0.21692 0.01372 0.35497 0.0
C234 C 0.19251 0.03316 0.41099 0.0
C235 C 0.14623 0.00706 0.43106 0.0
H236 H 0.13575 0.03869 0.59394 0.0
C237 C 0.07535 0.997 0.58738 0.0
C238 C 0.06582 0.01277 0.61337 0.0
C239 C 0.09416 0.9988 0.55929 0.0
C240 C 0.13841 0.02999 0.54791 0.0
H241 H 0.21106 0.98393 0.36451 0.0
H242 H 0.18019 0.98687 0.42776 0.0
H243 H 0.1685 0.03905 0.53987 0.0
H244 H 0.06875 0.04283 0.63166 0.0
H245 H 0.10179 0.04604 0.58113 0.0
H246 H 0.11641 0.99806 0.43779 0.0
C247 C 0.18844 0.99946 0.41326 0.0
C248 C 0.15714 0.03018 0.51718 0.0
C249 C 0.2061 0.99779 0.37697 0.0
C250 C 0.07576 0.03041 0.61218 0.0
C251 C 0.09467 0.03224 0.58339 0.0
C252 C 0.12762 0.00698 0.46118 0.0
C253 C 0.18118 0.01711 0.42891 0.0
C254 C 0.16127 0.01836 0.45938 0.0
C255 C 0.10395 0.01644 0.55558 0.0
C256 C 0.12354 0.01807 0.52095 0.0
H257 H 0.21828 0.044 0.35779 0.0
H258 H 0.18723 0.04692 0.42255 0.0
H259 H 0.14891 0.99815 0.38555 0.0
H260 H 0.06824 0.98317 0.58845 0.0
H261 H 0.10103 0.98627 0.54013 0.0
C262 C 0.48681 0.19728 0.2814 0.0
C263 C 0.49046 0.21509 0.31288 0.0
C264 C 0.48367 0.18161 0.32067 0.0
C265 C 0.49692 0.16455 0.48295 0.0
H266 H 0.46091 0.12293 0.43774 0.0
C267 C 0.49568 0.09614 0.62529 0.0
C268 C 0.49388 0.07945 0.5849 0.0
C269 C 0.49227 0.11322 0.59817 0.0
C270 C 0.47115 0.13436 0.45073 0.0
H271 H 0.49285 0.23062 0.41021 0.0
H272 H 0.48745 0.20308 0.47937 0.0
H273 H 0.45971 0.15214 0.38 0.0
H274 H 0.48664 0.06737 0.48519 0.0
H275 H 0.48114 0.09718 0.437 0.0
H276 H 0.50891 0.14667 0.55154 0.0
C277 C 0.4871 0.20129 0.42414 0.0
C278 C 0.47039 0.15113 0.41785 0.0
C279 C 0.49004 0.21705 0.38472 0.0
C280 C 0.48812 0.08005 0.51742 0.0
C281 C 0.48484 0.09715 0.49005 0.0
C282 C 0.49777 0.14775 0.51547 0.0
C283 C 0.48426 0.18335 0.3924 0.0
C284 C 0.48347 0.16632 0.43282 0.0
C285 C 0.48712 0.114 0.5298 0.0
C286 C 0.4851 0.13233 0.49905 0.0
H287 H 0.48691 0.19541 0.22609 0.0
H288 H 0.48168 0.168 0.29457 0.0
H289 H 0.50739 0.17587 0.49489 0.0
H290 H 0.49996 0.09605 0.67771 0.0
H291 H 0.49381 0.12583 0.63074 0.0
C292 C 0.33244 0.49501 0.27385 0.0
C293 C 0.31486 0.50194 0.29963 0.0
C294 C 0.34749 0.49321 0.31721 0.0
C295 C 0.36682 0.51405 0.47479 0.0
H296 H 0.40081 0.47291 0.45589 0.0
C297 C 0.44521 0.52043 0.55842 0.0
C298 C 0.45215 0.50553 0.59197 0.0
C299 C 0.42699 0.51882 0.53102 0.0
C300 C 0.39133 0.48439 0.46238 0.0
H301 H 0.299 0.51189 0.3913 0.0
H302 H 0.32545 0.50885 0.46741 0.0
H303 H 0.37109 0.47119 0.39361 0.0
H304 H 0.44538 0.47722 0.623 0.0
H305 H 0.41354 0.47437 0.57436 0.0
H306 H 0.38727 0.52745 0.54225 0.0
C307 C 0.32755 0.50484 0.41352 0.0
C308 C 0.37441 0.48347 0.42635 0.0
C309 C 0.31239 0.50645 0.37015 0.0
C310 C 0.44041 0.48899 0.59775 0.0
C311 C 0.42223 0.48731 0.56962 0.0
C312 C 0.38381 0.51504 0.51032 0.0
C313 C 0.34535 0.49845 0.38727 0.0
C314 C 0.36213 0.49843 0.43128 0.0
C315 C 0.41535 0.50222 0.53591 0.0
C316 C 0.39642 0.50037 0.50356 0.0
H317 H 0.33467 0.49125 0.21979 0.0
H318 H 0.36108 0.4884 0.29531 0.0
H319 H 0.35774 0.52587 0.47923 0.0
H320 H 0.45386 0.53338 0.55314 0.0
H321 H 0.42219 0.53046 0.50455 0.0
C322 C 0.99214 0.31486 0.38927 0.0
C323 C 1.00073 0.30002 0.41788 0.0
C324 C 0.99513 0.33312 0.41594 0.0
C325 C 0.02618 0.36573 0.51522 0.0
H326 H 0.97865 0.3908 0.55628 0.0
C327 C 0.02366 0.44146 0.63979 0.0
C328 C 0.01009 0.45273 0.614 0.0
C329 C 0.02385 0.4224 0.61987 0.0
C330 C 0.9921 0.38412 0.5445 0.0
H331 H 0.02018 0.29296 0.49457 0.0
H332 H 0.02571 0.32522 0.5406 0.0
H333 H 0.97726 0.3585 0.51213 0.0
H334 H 0.98663 0.45296 0.545 0.0
H335 H 0.98724 0.42019 0.50956 0.0
H336 H 0.04103 0.39166 0.54581 0.0
C337 C 0.0165 0.3225 0.4978 0.0
C338 C 0.99127 0.36558 0.51946 0.0
C339 C 0.01336 0.30408 0.47135 0.0
C340 C 0.99708 0.44467 0.56683 0.0
C341 C 0.99736 0.42578 0.5467 0.0
C342 C 0.02703 0.38447 0.53978 0.0
C343 C 0.00696 0.33709 0.47145 0.0
C344 C 0.00827 0.35629 0.50329 0.0
C345 C 0.01052 0.4143 0.57361 0.0
C346 C 0.00997 0.39399 0.55332 0.0
H347 H 0.98278 0.31234 0.34679 0.0
H348 H 0.98793 0.34417 0.3937 0.0
H349 H 0.03949 0.35885 0.50315 0.0
H350 H 0.03391 0.44726 0.67613 0.0
H351 H 0.03414 0.41395 0.64175 0.0
C352 C 0.80545 0.97644 -0.00046 0.0
C353 C 0.8003 0.95724 0.00146 0.0
C354 C 0.82269 0.98267 0.96556 0.0
C355 C 0.86023 0.96848 0.83566 0.0
H356 H 0.89405 0.00373 0.93602 0.0
C357 C 0.94084 0.97981 0.75649 0.0
C358 C 0.94971 0.99786 0.76394 0.0
C359 C 0.92194 0.97605 0.78209 0.0
C360 C 0.88469 0.99413 0.90668 0.0
H361 H 0.8087 0.92958 0.96696 0.0
H362 H 0.8387 0.94042 0.90738 0.0
H363 H 0.86183 0.9953 0.98444 0.0
H364 H 0.94559 0.02616 0.804 0.0
H365 H 0.91243 0.01969 0.84763 0.0
H366 H 0.88299 0.96724 0.75793 0.0
C367 C 0.82947 0.95067 0.93219 0.0
C368 C 0.86621 0.98929 0.93453 0.0
C369 C 0.81238 0.94445 0.96672 0.0
C370 C 0.93921 0.01208 0.79764 0.0
C371 C 0.92021 0.00835 0.82291 0.0
C372 C 0.87863 0.97341 0.80758 0.0
C373 C 0.83498 0.96983 0.93212 0.0
C374 C 0.8539 0.97619 0.89981 0.0
C375 C 0.91133 0.99027 0.81544 0.0
C376 C 0.89123 0.98606 0.84324 0.0
H377 H 0.79648 0.98661 0.02625 0.0
H378 H 0.82649 0.99753 0.9659 0.0
H379 H 0.85096 0.95855 0.80725 0.0
H380 H 0.94855 0.96844 0.73154 0.0
H381 H 0.91576 0.96188 0.77667 0.0
C382 C 0.55042 0.80692 -0.00022 0.0
C383 C 0.56822 0.79999 0.97614 0.0
C384 C 0.54396 0.82312 0.97373 0.0
C385 C 0.55176 0.85464 0.82868 0.0
H386 H 0.5295 0.89122 0.95767 0.0
C387 C 0.52138 0.9223 0.74083 0.0
C388 C 0.52515 0.93878 0.7809 0.0
C389 C 0.52577 0.90499 0.76384 0.0
C390 C 0.53581 0.88121 0.92101 0.0
H391 H 0.59276 0.80426 0.90439 0.0
H392 H 0.58172 0.83259 0.85998 0.0
H393 H 0.53853 0.86153 0.99793 0.0
H394 H 0.53656 0.95018 0.87613 0.0
H395 H 0.5445 0.92 0.91612 0.0
H396 H 0.54959 0.87453 0.75213 0.0
C397 C 0.57265 0.82549 0.89834 0.0
C398 C 0.54074 0.86406 0.94395 0.0
C399 C 0.5791 0.80933 0.92438 0.0
C400 C 0.53343 0.93766 0.84436 0.0
C401 C 0.53786 0.92036 0.86739 0.0
C402 C 0.54683 0.87179 0.80575 0.0
C403 C 0.55512 0.83275 0.92326 0.0
C404 C 0.54891 0.8506 0.89817 0.0
C405 C 0.53407 0.90379 0.82744 0.0
C406 C 0.53891 0.88535 0.85168 0.0
H407 H 0.54174 0.80014 0.03992 0.0
H408 H 0.53026 0.82818 0.99345 0.0
H409 H 0.55783 0.84454 0.79183 0.0
H410 H 0.51493 0.92276 0.69176 0.0
H411 H 0.52243 0.89253 0.73212 0.0
C412 C 0.69837 0.52634 0.01192 0.0
C413 C 0.70462 0.54517 0.02344 0.0
C414 C 0.68211 0.52155 0.97402 0.0
C415 C 0.65092 0.53909 0.84777 0.0
H416 H 0.61125 0.50543 0.92764 0.0
C417 C 0.5736 0.53282 0.75285 0.0
C418 C 0.5634 0.51532 0.75257 0.0
C419 C 0.59158 0.53536 0.78188 0.0
C420 C 0.62229 0.51459 0.90386 0.0
H421 H 0.69922 0.57368 0.0023 0.0
H422 H 0.67092 0.56533 0.93579 0.0
H423 H 0.64167 0.51158 0.98374 0.0
H424 H 0.56428 0.48666 0.78172 0.0
H425 H 0.59585 0.49097 0.83103 0.0
H426 H 0.63167 0.54211 0.76778 0.0
C427 C 0.67854 0.55427 0.95615 0.0
C428 C 0.63971 0.51813 0.93617 0.0
C429 C 0.69464 0.55906 0.99465 0.0
C430 C 0.57169 0.50036 0.78144 0.0
C431 C 0.58978 0.50286 0.81004 0.0
C432 C 0.63358 0.53543 0.81511 0.0
C433 C 0.67195 0.53549 0.94615 0.0
C434 C 0.6541 0.53063 0.90899 0.0
C435 C 0.59992 0.52043 0.81092 0.0
C436 C 0.6189 0.52335 0.84328 0.0
H437 H 0.70573 0.51535 0.03387 0.0
H438 H 0.67743 0.50696 0.96672 0.0
H439 H 0.66186 0.54858 0.82514 0.0
H440 H 0.56757 0.54471 0.73157 0.0
H441 H 0.59874 0.54917 0.78275 0.0
C442 C 0.9484 0.699 0.88341 0.0
C443 C 0.95776 0.71036 0.93361 0.0
C444 C 0.95706 0.68332 0.85333 0.0
C445 C 0.99089 0.64856 0.89012 0.0
H446 H 0.98693 0.63395 0.69758 0.0
C447 C 0.01663 0.57758 0.77498 0.0
C448 C 0.00417 0.56792 0.72918 0.0
C449 C 0.01382 0.59623 0.79605 0.0
C450 C 0.98806 0.63775 0.75157 0.0
H451 H 0.98374 0.7145 0.99047 0.0
H452 H 0.99892 0.68691 0.93795 0.0
H453 H 0.97698 0.66459 0.74042 0.0
H454 H 0.97899 0.5704 0.66961 0.0
H455 H 0.97399 0.60253 0.70691 0.0
H456 H 0.00128 0.62147 0.9019 0.0
C457 C 0.98486 0.69019 0.922 0.0
C458 C 0.98241 0.65534 0.77601 0.0
C459 C 0.97626 0.70604 0.9516 0.0
C460 C 0.989 0.57739 0.70448 0.0
C461 C 0.98618 0.59594 0.72559 0.0
C462 C 0.99643 0.63089 0.86574 0.0
C463 C 0.97523 0.67852 0.87319 0.0
C464 C 0.98339 0.6608 0.8458 0.0
C465 C 0.99849 0.60561 0.77184 0.0
C466 C 0.99468 0.62511 0.79642 0.0
H467 H 0.93418 0.70207 0.86829 0.0
H468 H 0.94919 0.67453 0.81635 0.0
H469 H 0.99164 0.65228 0.94431 0.0
H470 H 0.02848 0.57074 0.79498 0.0
H471 H 0.02368 0.60331 0.83126 0.0
C472 C 0.053 0.18518 0.44657 0.0
C473 C 0.03601 0.19487 0.4455 0.0
C474 C 0.053 0.16857 0.48062 0.0
C475 C 0.0254 0.13625 0.59552 0.0
H476 H 0.03904 0.09871 0.45435 0.0
C477 C 0.99787 0.05907 0.61003 0.0
C478 C 0.00934 0.04514 0.58001 0.0
C479 C 0.00345 0.07793 0.6033 0.0
C480 C 0.03557 0.10888 0.49527 0.0
H481 H 0.00643 0.19599 0.48612 0.0
H482 H 0.00656 0.16716 0.54671 0.0
H483 H 0.04602 0.13145 0.43409 0.0
H484 H 0.03581 0.03972 0.52094 0.0
H485 H 0.04599 0.07258 0.51073 0.0
H486 H 0.01493 0.11362 0.65686 0.0
C487 C 0.01982 0.17233 0.52081 0.0
C488 C 0.03958 0.12773 0.48349 0.0
C489 C 0.01978 0.1889 0.48629 0.0
C490 C 0.02656 0.05027 0.54349 0.0
C491 C 0.03235 0.06912 0.53774 0.0
C492 C 0.02168 0.1173 0.6079 0.0
C493 C 0.03607 0.16146 0.51479 0.0
C494 C 0.03423 0.14162 0.53288 0.0
C495 C 0.02079 0.08325 0.56708 0.0
C496 C 0.02634 0.10336 0.55724 0.0
H497 H 0.06579 0.1896 0.41622 0.0
H498 H 0.06581 0.1606 0.47615 0.0
H499 H 0.02116 0.1467 0.63447 0.0
H500 H 0.98449 0.05535 0.63835 0.0
H501 H 0.99395 0.0883 0.62551 0.0
C502 C 0.33404 0.05712 0.43951 0.0
C503 C 0.32308 0.04143 0.41434 0.0
C504 C 0.34878 0.05504 0.48406 0.0
C505 C 0.37263 0.01955 0.58062 0.0
H506 H 0.41911 0.0487 0.52564 0.0
C507 C 0.44601 0.00323 0.67865 0.0
C508 C 0.46212 0.00453 0.63241 0.0
C509 C 0.42865 0.01056 0.66371 0.0
C510 C 0.40632 0.04031 0.54126 0.0
H511 H 0.31788 0.01152 0.4197 0.0
H512 H 0.34368 0.00772 0.49576 0.0
H513 H 0.38836 0.05602 0.48351 0.0
H514 H 0.47294 0.01464 0.53481 0.0
H515 H 0.44227 0.02662 0.50631 0.0
H516 H 0.39075 0.00287 0.63369 0.0
C517 C 0.34084 0.02174 0.48284 0.0
C518 C 0.38852 0.04477 0.51816 0.0
C519 C 0.32593 0.02389 0.43922 0.0
C520 C 0.4607 0.01356 0.57129 0.0
C521 C 0.44313 0.02053 0.55542 0.0
C522 C 0.39046 0.01489 0.60271 0.0
C523 C 0.35308 0.03717 0.50322 0.0
C524 C 0.37146 0.0342 0.53635 0.0
C525 C 0.42678 0.01893 0.60116 0.0
C526 C 0.40763 0.02498 0.58232 0.0
H527 H 0.3321 0.0708 0.42088 0.0
H528 H 0.3575 0.06732 0.50027 0.0
H529 H 0.35982 0.01128 0.5968 0.0
H530 H 0.44684 0.99658 0.72677 0.0
H531 H 0.41666 0.00951 0.70121 0.0
C532 C 0.49054 0.32547 0.40395 0.0
C533 C 0.47299 0.32108 0.37242 0.0
C534 C 0.49291 0.34185 0.44556 0.0
C535 C 0.47937 0.38776 0.43379 0.0
H536 H 0.49931 0.40083 0.61232 0.0
C537 C 0.49389 0.46474 0.51815 0.0
C538 C 0.50961 0.46953 0.55878 0.0
C539 C 0.48772 0.44604 0.5064 0.0
C540 C 0.494 0.39744 0.56189 0.0
H541 H 0.44348 0.32892 0.36692 0.0
H542 H 0.44775 0.35763 0.43851 0.0
H543 H 0.49146 0.36797 0.57885 0.0
H544 H 0.5312 0.45881 0.61965 0.0
H545 H 0.52134 0.42598 0.59561 0.0
H546 H 0.483 0.41661 0.41365 0.0
C547 C 0.45964 0.3485 0.43088 0.0
C548 C 0.48933 0.37863 0.54324 0.0
C549 C 0.45721 0.33208 0.39005 0.0
C550 C 0.5191 0.45536 0.58767 0.0
C551 C 0.51325 0.43657 0.57454 0.0
C552 C 0.48442 0.40638 0.45154 0.0
C553 C 0.47779 0.35401 0.4558 0.0
C554 C 0.48189 0.37371 0.4791 0.0
C555 C 0.49751 0.43161 0.53331 0.0
C556 C 0.49177 0.41159 0.5159 0.0
H557 H 0.50298 0.31733 0.39094 0.0
H558 H 0.50706 0.34589 0.46408 0.0
H559 H 0.47402 0.38424 0.3834 0.0
H560 H 0.48607 0.47549 0.49665 0.0
H561 H 0.47518 0.44296 0.47631 0.0
C562 C 0.19828 0.48322 0.41509 0.0
C563 C 0.20573 0.49761 0.37392 0.0
C564 C 0.18208 0.48589 0.45924 0.0
C565 C 0.13933 0.48851 0.485 0.0
H566 H 0.12143 0.5363 0.55462 0.0
C567 C 0.05854 0.50173 0.50698 0.0
C568 C 0.05151 0.51318 0.56174 0.0
C569 C 0.0784 0.49999 0.49546 0.0
C570 C 0.12619 0.52275 0.53643 0.0
H571 H 0.20324 0.52635 0.34961 0.0
H572 H 0.17479 0.531 0.42482 0.0
H573 H 0.15566 0.53319 0.52626 0.0
H574 H 0.05959 0.5327 0.64478 0.0
H575 H 0.09422 0.52897 0.62722 0.0
H576 H 0.11 0.47796 0.49628 0.0
C577 C 0.18152 0.51778 0.42516 0.0
C578 C 0.14586 0.52101 0.51943 0.0
C579 C 0.19792 0.51519 0.38203 0.0
C580 C 0.06466 0.5233 0.60355 0.0
C581 C 0.08452 0.52138 0.59271 0.0
C582 C 0.11976 0.49018 0.5028 0.0
C583 C 0.17274 0.50283 0.46139 0.0
C584 C 0.15262 0.504 0.49155 0.0
C585 C 0.09167 0.50959 0.53876 0.0
C586 C 0.11282 0.50745 0.52671 0.0
H587 H 0.20399 0.46948 0.40887 0.0
H588 H 0.17609 0.47423 0.48789 0.0
H589 H 0.14378 0.4752 0.46293 0.0
H590 H 0.04867 0.49393 0.47357 0.0
H591 H 0.08333 0.49118 0.45223 0.0
C592 C 0.98786 0.82225 0.89468 0.0
C593 C 0.97064 0.82005 0.93473 0.0
C594 C 0.99181 0.83846 0.85831 0.0
C595 C 0.97041 0.88308 0.81404 0.0
H596 H 0.02265 0.90375 0.83742 0.0
C597 C 0.99162 0.96219 0.83416 0.0
C598 C 0.00736 0.96831 0.79168 0.0
C599 C 0.98704 0.94307 0.83959 0.0
C600 C 0.00807 0.89807 0.82988 0.0
H601 H 0.94362 0.8322 0.9659 0.0
H602 H 0.95046 0.86047 0.90426 0.0
H603 H 0.01448 0.87126 0.86198 0.0
H604 H 0.03088 0.95956 0.72263 0.0
H605 H 0.02324 0.92606 0.73393 0.0
H606 H 0.96389 0.91044 0.78615 0.0
C607 C 0.96085 0.84976 0.89874 0.0
C608 C 0.00338 0.87937 0.84331 0.0
C609 C 0.95688 0.83355 0.93432 0.0
C610 C 0.01867 0.9551 0.75576 0.0
C611 C 0.01432 0.936 0.76218 0.0
C612 C 0.97504 0.90187 0.80187 0.0
C613 C 0.9787 0.85281 0.86245 0.0
C614 C 0.98437 0.87171 0.8371 0.0
C615 C 0.99837 0.92982 0.80368 0.0
C616 C 0.99382 0.9096 0.81098 0.0
H617 H 0.99875 0.81205 0.8951 0.0
H618 H 0.00553 0.84013 0.82977 0.0
H619 H 0.95574 0.87761 0.80709 0.0
H620 H 0.98258 0.97216 0.86171 0.0
H621 H 0.97475 0.93862 0.87236 0.0
C622 C 0.67375 0.95558 0.95357 0.0
C623 C 0.69141 0.96611 0.95183 0.0
C624 C 0.65977 0.95855 0.90744 0.0
C625 C 0.64527 0.99781 0.81263 0.0
H626 H 0.6016 0.96334 0.77413 0.0
C627 C 0.57558 0.02095 0.70154 0.0
C628 C 0.55858 0.01594 0.74003 0.0
C629 C 0.59291 0.01304 0.71327 0.0
C630 C 0.61375 0.97308 0.78441 0.0
H631 H 0.70926 0.98658 0.89674 0.0
H632 H 0.68508 0.99132 0.81341 0.0
H633 H 0.63149 0.95138 0.81012 0.0
H634 H 0.54645 0.99921 0.82202 0.0
H635 H 0.57676 0.98485 0.84157 0.0
H636 H 0.62742 0.01947 0.78695 0.0
C637 C 0.68175 0.98114 0.85181 0.0
C638 C 0.63087 0.96627 0.8051 0.0
C639 C 0.69574 0.97825 0.89869 0.0
C640 C 0.55922 0.00287 0.79049 0.0
C641 C 0.57654 0.99474 0.8017 0.0
C642 C 0.62829 0.00455 0.79078 0.0
C643 C 0.66319 0.97209 0.85813 0.0
C644 C 0.64664 0.97862 0.8219 0.0
C645 C 0.59357 0.99986 0.7634 0.0
C646 C 0.61218 0.99232 0.77857 0.0
H647 H 0.67012 0.9462 0.99456 0.0
H648 H 0.64572 0.95137 0.91472 0.0
H649 H 0.65687 0.00785 0.82608 0.0
H650 H 0.5755 0.03092 0.66187 0.0
H651 H 0.60581 0.01717 0.68296 0.0
C652 C 0.50742 0.6904 0.00831 0.0
C653 C 0.52586 0.69856 0.99186 0.0
C654 C 0.50055 0.67432 0.97208 0.0
C655 C 0.50887 0.64141 0.82298 0.0
H656 H 0.49796 0.60377 0.95695 0.0
C657 C 0.51273 0.56267 0.7517 0.0
C658 C 0.50049 0.5499 0.78728 0.0
C659 C 0.51317 0.5817 0.77088 0.0
C660 C 0.5005 0.61405 0.91847 0.0
H661 H 0.55062 0.69759 0.91998 0.0
H662 H 0.53847 0.66958 0.85581 0.0
H663 H 0.50191 0.63639 0.99489 0.0
H664 H 0.4791 0.54672 0.87072 0.0
H665 H 0.47923 0.58006 0.90332 0.0
H666 H 0.50749 0.61903 0.7464 0.0
C667 C 0.52938 0.67557 0.89692 0.0
C668 C 0.5028 0.63282 0.94037 0.0
C669 C 0.5363 0.69166 0.93344 0.0
C670 C 0.48868 0.55638 0.84262 0.0
C671 C 0.48886 0.57547 0.8613 0.0
C672 C 0.50628 0.6226 0.80084 0.0
C673 C 0.51195 0.66617 0.91848 0.0
C674 C 0.50728 0.64667 0.89306 0.0
C675 C 0.50123 0.58841 0.82598 0.0
C676 C 0.50239 0.60862 0.84846 0.0
H677 H 0.49903 0.69555 0.05284 0.0
H678 H 0.48691 0.66754 0.98896 0.0
H679 H 0.51228 0.65183 0.78543 0.0
H680 H 0.52248 0.55792 0.7105 0.0
H681 H 0.5233 0.59104 0.74358 0.0
C682 C 0.82041 0.54483 0.93829 0.0
C683 C 0.81151 0.52761 0.95639 0.0
C684 C 0.83717 0.54537 0.89546 0.0
C685 C 0.87086 0.51915 0.78175 0.0
H686 H 0.90973 0.53969 0.90404 0.0
C687 C 0.95041 0.49953 0.74862 0.0
C688 C 0.96488 0.51184 0.77519 0.0
C689 C 0.93099 0.50371 0.75768 0.0
C690 C 0.89926 0.53434 0.86784 0.0
H691 H 0.81177 0.49762 0.93914 0.0
H692 H 0.84072 0.49856 0.86218 0.0
H693 H 0.87597 0.54379 0.93392 0.0
H694 H 0.97083 0.53866 0.82778 0.0
H695 H 0.93719 0.54655 0.84039 0.0
H696 H 0.89413 0.50982 0.71509 0.0
C697 C 0.83484 0.5116 0.88116 0.0
C698 C 0.87981 0.53667 0.88535 0.0
C699 C 0.81827 0.51104 0.92497 0.0
C700 C 0.95981 0.52873 0.80841 0.0
C701 C 0.94048 0.53318 0.81575 0.0
C702 C 0.89043 0.51721 0.76317 0.0
C703 C 0.84503 0.5287 0.86941 0.0
C704 C 0.86542 0.52876 0.84335 0.0
C705 C 0.9257 0.52054 0.79201 0.0
C706 C 0.90492 0.52436 0.80693 0.0
H707 H 0.81561 0.55774 0.96284 0.0
H708 H 0.84482 0.55871 0.88709 0.0
H709 H 0.85997 0.51289 0.74867 0.0
H710 H 0.9541 0.48647 0.72228 0.0
H711 H 0.92018 0.49343 0.73941 0.0
C712 C 0.0512 0.19196 0.17769 0.0
C713 C 0.03522 0.20257 0.19691 0.0
C714 C 0.05077 0.17943 0.12062 0.0
C715 C 0.01404 0.15226 0.02039 0.0
H716 H 0.0592 0.13249 0.92394 0.0
C717 C 0.00874 0.08936 0.82525 0.0
C718 C 0.02034 0.07474 0.83884 0.0
C719 C 0.0116 0.10695 0.85834 0.0
C720 C 0.04648 0.13793 0.95047 0.0
H721 H 0.00712 0.2098 0.16607 0.0
H722 H 0.00695 0.18901 0.06427 0.0
H723 H 0.06263 0.16128 0.99569 0.0
H724 H 0.04444 0.06711 0.89543 0.0
H725 H 0.04959 0.09802 0.953 0.0
H726 H 0.99795 0.12892 0.97482 0.0
C727 C 0.01945 0.18962 0.09531 0.0
C728 C 0.04841 0.15439 0.9918 0.0
C729 C 0.01972 0.20188 0.15321 0.0
C730 C 0.03524 0.07814 0.88443 0.0
C731 C 0.03827 0.09583 0.91689 0.0
C732 C 0.01209 0.13604 0.97825 0.0
C733 C 0.03449 0.17749 0.08035 0.0
C734 C 0.03227 0.16156 0.02863 0.0
C735 C 0.02629 0.11031 0.90486 0.0
C736 C 0.02832 0.1285 0.94404 0.0
H737 H 0.06359 0.19246 0.20927 0.0
H738 H 0.06268 0.17043 0.11114 0.0
H739 H 0.0013 0.15697 0.04886 0.0
H740 H 0.99726 0.08713 0.78981 0.0
H741 H 0.00226 0.11791 0.84786 0.0
C742 C 0.34341 0.06005 0.15758 0.0
C743 C 0.33006 0.04478 0.16665 0.0
C744 C 0.35942 0.0584 0.11162 0.0
C745 C 0.39221 0.02382 0.05477 0.0
H746 H 0.40997 0.05562 0.90765 0.0
C747 C 0.45833 0.00696 0.87657 0.0
C748 C 0.46937 0.02177 0.84739 0.0
C749 C 0.44145 0.01037 0.91615 0.0
C750 C 0.40545 0.04681 0.94944 0.0
H751 H 0.32243 0.01619 0.13246 0.0
H752 H 0.35048 0.01332 0.05293 0.0
H753 H 0.37934 0.06118 0.97048 0.0
H754 H 0.47213 0.0518 0.8395 0.0
H755 H 0.44339 0.05792 0.91185 0.0
H756 H 0.41843 0.0099 0.03662 0.0
C757 C 0.34845 0.02655 0.08091 0.0
C758 C 0.38782 0.04993 0.98482 0.0
C759 C 0.33232 0.02828 0.12584 0.0
C760 C 0.4638 0.04011 0.86126 0.0
C761 C 0.44717 0.04358 0.90202 0.0
C762 C 0.40999 0.02094 0.02051 0.0
C763 C 0.36243 0.04137 0.07517 0.0
C764 C 0.38099 0.03832 0.03721 0.0
C765 C 0.43546 0.02872 0.92855 0.0
C766 C 0.41682 0.03228 0.96692 0.0
H767 H 0.34201 0.07286 0.18875 0.0
H768 H 0.37007 0.07 0.10796 0.0
H769 H 0.38733 0.01489 0.09591 0.0
H770 H 0.46212 0.99265 0.86564 0.0
H771 H 0.43272 0.99851 0.93461 0.0
C772 C 0.44979 0.32563 0.11635 0.0
C773 C 0.46671 0.31624 0.12292 0.0
C774 C 0.44894 0.33861 0.06596 0.0
C775 C 0.45775 0.37588 0.00453 0.0
H776 H 0.48765 0.3755 0.8316 0.0
C777 C 0.48564 0.44378 0.88335 0.0
C778 C 0.48623 0.44472 0.81191 0.0
C779 C 0.48081 0.42688 0.91381 0.0
C780 C 0.47899 0.37577 0.87926 0.0
H781 H 0.49555 0.31211 0.07948 0.0
H782 H 0.49432 0.335 0.99259 0.0
H783 H 0.48235 0.34674 0.89281 0.0
H784 H 0.48226 0.42885 0.71591 0.0
H785 H 0.47353 0.39922 0.76926 0.0
H786 H 0.45428 0.4048 0.99106 0.0
C787 C 0.48151 0.33218 0.02517 0.0
C788 C 0.47612 0.35932 0.91474 0.0
C789 C 0.48225 0.31902 0.07505 0.0
C790 C 0.48187 0.42847 0.77125 0.0
C791 C 0.47698 0.4115 0.80178 0.0
C792 C 0.4605 0.39224 0.96895 0.0
C793 C 0.46512 0.34269 0.02179 0.0
C794 C 0.46586 0.35927 0.9787 0.0
C795 C 0.47637 0.41052 0.87352 0.0
C796 C 0.47161 0.39254 0.90685 0.0
H797 H 0.43756 0.32362 0.15244 0.0
H798 H 0.43589 0.34607 0.06373 0.0
H799 H 0.44996 0.37654 0.05392 0.0
H800 H 0.48907 0.45609 0.91582 0.0
H801 H 0.48091 0.42658 0.96906 0.0
C802 C 0.18768 0.46431 0.13626 0.0
C803 C 0.2025 0.47842 0.1307 0.0
C804 C 0.17281 0.46292 0.09062 0.0
C805 C 0.15597 0.48004 0.92945 0.0
H806 H 0.1064 0.47991 0.03049 0.0
C807 C 0.088 0.50652 0.81728 0.0
C808 C 0.07005 0.49744 0.83395 0.0
C809 C 0.1046 0.5018 0.8483 0.0
C810 C 0.12003 0.47962 0.00104 0.0
H811 H 0.21426 0.50111 0.06949 0.0
H812 H 0.18838 0.4986 0.98946 0.0
H813 H 0.13528 0.4744 0.08948 0.0
H814 H 0.0553 0.47615 0.8949 0.0
H815 H 0.0843 0.46765 0.94844 0.0
H816 H 0.14068 0.48554 0.8411 0.0
C817 C 0.18825 0.48859 0.02901 0.0
C818 C 0.13662 0.47642 0.03493 0.0
C819 C 0.20313 0.48999 0.07478 0.0
C820 C 0.06896 0.48348 0.88173 0.0
C821 C 0.08558 0.47866 0.91246 0.0
C822 C 0.13931 0.48312 0.89534 0.0
C823 C 0.17249 0.4756 0.03841 0.0
C824 C 0.15481 0.47686 -0.0002 0.0
C825 C 0.1036 0.48781 0.89631 0.0
C826 C 0.12117 0.48324 0.93102 0.0
H827 H 0.187 0.45503 0.17837 0.0
H828 H 0.16106 0.45251 0.09822 0.0
H829 H 0.16977 0.48033 0.90096 0.0
H830 H 0.08922 0.51731 0.78036 0.0
H831 H 0.11815 0.50936 0.83545 0.0
C832 C 0.98453 0.81584 0.20943 0.0
C833 C 0.96671 0.811 0.18082 0.0
C834 C 0.98567 0.82886 0.26495 0.0
C835 C 0.96336 0.87098 0.32044 0.0
H836 H 0.99276 0.87031 0.48319 0.0
C837 C 0.97363 0.93715 0.49636 0.0
C838 C 0.9915 0.94047 0.52618 0.0
C839 C 0.96891 0.9199 0.46327 0.0
C840 C 0.98469 0.87083 0.43755 0.0
H841 H 0.93606 0.81514 0.18853 0.0
H842 H 0.93804 0.83817 0.2853 0.0
H843 H 0.98749 0.8416 0.41216 0.0
H844 H 0.01846 0.92849 0.54559 0.0
H845 H 0.01077 0.89871 0.48474 0.0
H846 H 0.9615 0.90023 0.34219 0.0
C847 C 0.95105 0.8317 0.2656 0.0
C848 C 0.98153 0.85432 0.39738 0.0
C849 C 0.94988 0.81846 0.21085 0.0
C850 C 0.00457 0.92624 0.52283 0.0
C851 C 1.00003 0.90909 0.48855 0.0
C852 C 0.96681 0.88752 0.35967 0.0
C853 C 0.96905 0.83751 0.29145 0.0
C854 C 0.97092 0.8543 0.33831 0.0
C855 C 0.98215 0.90569 0.45801 0.0
C856 C 0.97764 0.88774 0.41855 0.0
H857 H 0.9977 0.81048 0.18595 0.0
H858 H 0.99973 0.83324 0.28355 0.0
H859 H 0.95546 0.87142 0.27431 0.0
H860 H 0.9632 0.94785 0.49912 0.0
H861 H 0.95483 0.91773 0.44196 0.0
C862 C 0.68582 0.96844 0.2506 0.0
C863 C 0.6912 0.98101 0.19954 0.0
C864 C 0.67099 0.97249 0.29942 0.0
C865 C 0.62724 0.99871 0.31001 0.0
H866 H 0.62294 0.98486 0.49916 0.0
C867 C 0.56011 0.01336 0.4876 0.0
C868 C 0.55378 0.99961 0.53351 0.0
C869 C 0.57751 0.01186 0.44896 0.0
C870 C 0.62386 0.98863 0.44617 0.0
H871 H 0.68679 0.00828 0.16279 0.0
H872 H 0.66127 0.01559 0.24885 0.0
H873 H 0.65353 0.9818 0.43303 0.0
H874 H 0.56056 0.97318 0.57307 0.0
H875 H 0.59057 0.97039 0.50468 0.0
H876 H 0.59756 0.00516 0.32229 0.0
C877 C 0.66807 0.00243 0.25039 0.0
C878 C 0.64141 0.98695 0.40848 0.0
C879 C 0.68278 0.99835 0.20162 0.0
C880 C 0.56497 0.98406 0.5383 0.0
C881 C 0.58232 0.98255 0.49962 0.0
C882 C 0.60972 1.00033 0.34752 0.0
C883 C 0.6614 0.98919 0.2978 0.0
C884 C 0.64327 0.99194 0.3399 0.0
C885 C 0.58895 0.99655 0.45524 0.0
C886 C 0.60777 0.99521 0.41592 0.0
H887 H 0.69198 0.9549 0.24948 0.0
H888 H 0.66615 0.96199 0.3352 0.0
H889 H 0.62805 0.00228 0.25679 0.0
H890 H 0.55197 0.02562 0.48308 0.0
H891 H 0.58228 0.02298 0.41565 0.0
C892 C 0.5685 0.69592 0.23388 0.0
C893 C 0.55093 0.70365 0.22234 0.0
C894 C 0.56931 0.68261 0.2833 0.0
C895 C 0.54265 0.66039 0.42953 0.0
H896 H 0.56168 0.6144 0.34604 0.0
C897 C 0.51787 0.5887 0.53021 0.0
C898 C 0.53062 0.57419 0.52498 0.0
C899 C 0.52309 0.60582 0.50176 0.0
C900 C 0.55667 0.62716 0.37103 0.0
H901 H 0.52083 0.70474 0.2561 0.0
H902 H 0.52229 0.6819 0.34365 0.0
H903 H 0.56682 0.64322 0.28597 0.0
H904 H 0.55901 0.56624 0.48753 0.0
H905 H 0.5684 0.59632 0.43881 0.0
H906 H 0.53228 0.64433 0.51427 0.0
C907 C 0.53544 0.686 0.31468 0.0
C908 C 0.55964 0.64372 0.33647 0.0
C909 C 0.53458 0.69907 0.26468 0.0
C910 C 0.54885 0.57717 0.49168 0.0
C911 C 0.55417 0.59439 0.46363 0.0
C912 C 0.53987 0.64387 0.46451 0.0
C913 C 0.5526 0.67705 0.32248 0.0
C914 C 0.55223 0.6604 0.36454 0.0
C915 C 0.5413 0.60891 0.46795 0.0
C916 C 0.54636 0.62692 0.43483 0.0
H917 H 0.58123 0.69907 0.20116 0.0
H918 H 0.58275 0.67602 0.28861 0.0
H919 H 0.53693 0.67309 0.45264 0.0
H920 H 0.50372 0.58677 0.5557 0.0
H921 H 0.51262 0.61646 0.505 0.0
C922 C 0.81155 0.53085 0.25935 0.0
C923 C 0.8097 0.51783 0.20343 0.0
C924 C 0.82562 0.52904 0.30699 0.0
C925 C 0.87376 0.51494 0.30241 0.0
H926 H 0.8708 0.51507 0.50075 0.0
C927 C 0.9416 0.50636 0.44934 0.0
C928 C 0.9435 0.51576 0.51337 0.0
C929 C 0.92422 0.50602 0.41657 0.0
C930 C 0.87192 0.51533 0.44543 0.0
H931 H 0.81958 0.49166 0.15803 0.0
H932 H 0.8444 0.48882 0.24013 0.0
H933 H 0.84107 0.51492 0.43838 0.0
H934 H 0.92883 0.53219 0.59391 0.0
H935 H 0.89864 0.53247 0.53517 0.0
H936 H 0.90435 0.51629 0.30814 0.0
C937 C 0.83508 0.50043 0.24674 0.0
C938 C 0.85488 0.51509 0.40992 0.0
C939 C 0.82092 0.5021 0.1998 0.0
C940 C 0.92771 0.5249 0.54423 0.0
C941 C 0.91036 0.52488 0.51083 0.0
C942 C 0.89072 0.51557 0.33765 0.0
C943 C 0.83806 0.51427 0.29898 0.0
C944 C 0.85572 0.51463 0.33809 0.0
C945 C 0.90839 0.51544 0.44639 0.0
C946 C 0.8901 0.5155 0.40964 0.0
H947 H 0.80321 0.54318 0.26336 0.0
H948 H 0.82772 0.5399 0.34689 0.0
H949 H 0.87475 0.51499 0.24696 0.0
H950 H 0.95348 0.49896 0.42495 0.0
H951 H 0.92318 0.49816 0.36806 0.0
loop_
_geom_bond_atom_site_label_1
_geom_bond_atom_site_label_2
_geom_bond_distance
_geom_bond_site_symmetry_2
_ccdc_geom_bond_type
H0 C1 0.949 1_556 S
C1 H0 0.949 1_554 S
C1 C2 1.395 . S
C1 C3 1.391 . S
C2 C1 1.395 . S
C2 C5 1.390 . S
C3 C1 1.391 . S
C3 C7 1.387 . S
C3 C8 1.491 . S
H4 C5 0.950 . S
C5 C2 1.390 . S
C5 H4 0.950 . S
C5 C6 1.378 . S
C6 C5 1.378 . S
C6 C7 1.409 . S
C7 C3 1.387 . S
C7 C6 1.409 . S
C7 H9 0.951 . S
C8 C3 1.491 . S
C8 C10 1.382 . S
C8 C12 1.404 . S
H9 C7 0.951 . S
C10 C8 1.382 . S
C10 C11 1.390 . S
C10 H15 0.949 1_554 S
C11 C10 1.390 . S
C11 C16 1.399 . S
C12 C8 1.404 . S
C12 H13 0.950 . S
C12 C14 1.375 . S
H13 C12 0.950 . S
C14 C12 1.375 . S
C14 C16 1.382 . S
C14 H18 0.950 . S
H15 C10 0.949 1_556 S
C16 C11 1.399 . S
C16 C14 1.382 . S
C16 H17 0.952 . S
H17 C16 0.952 . S
H18 C14 0.950 . S
H19 C20 0.949 . S
C20 H19 0.949 . S
C20 C21 1.395 . S
C20 C22 1.391 1_556 S
C21 C20 1.395 . S
C21 C24 1.390 1_556 S
C22 C20 1.391 1_554 S
C22 C26 1.387 . S
C22 C27 1.491 . S
H23 C24 0.950 . S
C24 C21 1.390 1_554 S
C24 H23 0.950 . S
C24 C25 1.378 . S
C25 C24 1.378 . S
C25 C26 1.409 . S
C26 C22 1.387 . S
C26 C25 1.409 . S
C26 H28 0.951 . S
C27 C22 1.491 . S
C27 C29 1.382 1_554 S
C27 C31 1.404 . S
H28 C26 0.951 . S
C29 C27 1.382 1_556 S
C29 C30 1.390 . S
C29 H34 0.949 . S
C30 C29 1.390 . S
C30 C35 1.399 1_556 S
C31 C27 1.404 . S
C31 H32 0.950 . S
C31 C33 1.375 . S
H32 C31 0.950 . S
C33 C31 1.375 . S
C33 C35 1.382 . S
C33 H37 0.950 . S
H34 C29 0.949 . S
C35 C30 1.399 1_554 S
C35 C33 1.382 . S
C35 H36 0.952 . S
H36 C35 0.952 . S
H37 C33 0.950 . S
H38 C39 0.949 1_556 S
C39 H38 0.949 1_554 S
C39 C40 1.395 . S
C39 C41 1.391 . S
C40 C39 1.395 . S
C40 C43 1.390 . S
C41 C39 1.391 . S
C41 C45 1.387 . S
C41 C46 1.491 . S
H42 C43 0.950 . S
C43 C40 1.390 . S
C43 H42 0.950 . S
C43 C44 1.378 . S
C44 C43 1.378 . S
C44 C45 1.409 . S
C45 C41 1.387 . S
C45 C44 1.409 . S
C45 H47 0.951 . S
C46 C41 1.491 . S
C46 C48 1.382 . S
C46 C50 1.404 . S
H47 C45 0.951 . S
C48 C46 1.382 . S
C48 C49 1.389 1_554 S
C48 H53 0.949 1_554 S
C49 C48 1.389 1_556 S
C49 C54 1.393 1_556 S
C50 C46 1.404 . S
C50 H51 0.950 . S
C50 C52 1.375 . S
H51 C50 0.950 . S
C52 C50 1.375 . S
C52 C54 1.382 . S
C52 H56 0.950 . S
H53 C48 0.949 1_556 S
C54 C49 1.393 1_554 S
C54 C52 1.382 . S
C54 H55 0.952 . S
H55 C54 0.952 . S
H56 C52 0.950 . S
H57 C58 0.949 1_556 S
C58 H57 0.949 1_554 S
C58 C59 1.395 . S
C58 C60 1.391 . S
C59 C58 1.395 . S
C59 C62 1.390 . S
C60 C58 1.391 . S
C60 C64 1.387 . S
C60 C65 1.491 . S
H61 C62 0.950 . S
C62 C59 1.390 . S
C62 H61 0.950 . S
C62 C63 1.378 . S
C63 C62 1.378 . S
C63 C64 1.409 . S
C64 C60 1.387 . S
C64 C63 1.409 . S
C64 H66 0.951 . S
C65 C60 1.491 . S
C65 C67 1.382 . S
C65 C69 1.404 . S
H66 C64 0.951 . S
C67 C65 1.382 . S
C67 C68 1.390 . S
C67 H72 0.949 . S
C68 C67 1.390 . S
C68 C73 1.399 . S
C69 C65 1.404 . S
C69 H70 0.950 . S
C69 C71 1.375 . S
H70 C69 0.950 . S
C71 C69 1.375 . S
C71 C73 1.382 . S
C71 H75 0.950 . S
H72 C67 0.949 . S
C73 C68 1.399 . S
C73 C71 1.382 . S
C73 H74 0.952 . S
H74 C73 0.952 . S
H75 C71 0.950 . S
H76 C77 0.949 . S
C77 H76 0.949 . S
C77 C78 1.395 . S
C77 C79 1.391 . S
C78 C77 1.395 . S
C78 C81 1.390 . S
C79 C77 1.391 . S
C79 C83 1.387 . S
C79 C84 1.491 . S
H80 C81 0.950 . S
C81 C78 1.390 . S
C81 H80 0.950 . S
C81 C82 1.378 . S
C82 C81 1.378 . S
C82 C83 1.409 . S
C83 C79 1.387 . S
C83 C82 1.409 . S
C83 H85 0.951 . S
C84 C79 1.491 . S
C84 C86 1.382 . S
C84 C88 1.404 . S
H85 C83 0.951 . S
C86 C84 1.382 . S
C86 C87 1.390 . S
C86 H91 0.949 . S
C87 C86 1.390 . S
C87 C92 1.399 . S
C88 C84 1.404 . S
C88 H89 0.950 . S
C88 C90 1.375 . S
H89 C88 0.950 . S
C90 C88 1.375 . S
C90 C92 1.382 . S
C90 H94 0.950 . S
H91 C86 0.949 . S
C92 C87 1.399 . S
C92 C90 1.382 . S
C92 H93 0.952 . S
H93 C92 0.952 . S
H94 C90 0.950 . S
H95 C96 0.949 . S
C96 H95 0.949 . S
C96 C97 1.395 . S
C96 C98 1.391 . S
C97 C96 1.395 . S
C97 C100 1.390 . S
C98 C96 1.391 . S
C98 C102 1.387 . S
C98 C103 1.491 . S
H99 C100 0.950 . S
C100 C97 1.390 . S
C100 H99 0.950 . S
C100 C101 1.378 . S
C101 C100 1.378 . S
C101 C102 1.409 . S
C102 C98 1.387 . S
C102 C101 1.409 . S
C102 H104 0.951 . S
C103 C98 1.491 . S
C103 C105 1.382 . S
C103 C107 1.404 . S
H104 C102 0.951 . S
C105 C103 1.382 . S
C105 C106 1.390 . S
C105 H110 0.949 . S
C106 C105 1.390 . S
C106 C111 1.399 . S
C107 C103 1.404 . S
C107 H108 0.950 . S
C107 C109 1.375 . S
H108 C107 0.950 . S
C109 C107 1.375 . S
C109 C111 1.382 . S
C109 H113 0.950 . S
H110 C105 0.949 . S
C111 C106 1.399 . S
C111 C109 1.382 . S
C111 H112 0.952 . S
H112 C111 0.952 . S
H113 C109 0.950 . S
H114 C115 0.949 . S
C115 H114 0.949 . S
C115 C116 1.395 . S
C115 C117 1.391 . S
C116 C115 1.395 . S
C116 C119 1.390 . S
C117 C115 1.391 . S
C117 C121 1.387 . S
C117 C122 1.491 . S
H118 C119 0.950 . S
C119 C116 1.390 . S
C119 H118 0.950 . S
C119 C120 1.378 . S
C120 C119 1.378 . S
C120 C121 1.409 . S
C121 C117 1.387 . S
C121 C120 1.409 . S
C121 H123 0.951 . S
C122 C117 1.491 . S
C122 C124 1.382 . S
C122 C126 1.404 . S
H123 C121 0.951 . S
C124 C122 1.382 . S
C124 C125 1.390 . S
C124 H129 0.949 . S
C125 C124 1.390 . S
C125 C130 1.399 . S
C126 C122 1.404 . S
C126 H127 0.950 . S
C126 C128 1.375 . S
H127 C126 0.950 . S
C128 C126 1.375 . S
C128 C130 1.382 . S
C128 H132 0.950 . S
H129 C124 0.949 . S
C130 C125 1.399 . S
C130 C128 1.382 . S
C130 H131 0.952 . S
H131 C130 0.952 . S
H132 C128 0.950 . S
H133 C134 0.949 . S
C134 H133 0.949 . S
C134 C135 1.395 . S
C134 C136 1.391 . S
C135 C134 1.395 . S
C135 C138 1.390 . S
C136 C134 1.391 . S
C136 C140 1.387 . S
C136 C141 1.491 . S
H137 C138 0.950 . S
C138 C135 1.390 . S
C138 H137 0.950 . S
C138 C139 1.378 . S
C139 C138 1.378 . S
C139 C140 1.409 . S
C140 C136 1.387 . S
C140 C139 1.409 . S
C140 H142 0.951 . S
C141 C136 1.491 . S
C141 C143 1.382 . S
C141 C145 1.404 . S
H142 C140 0.951 . S
C143 C141 1.382 . S
C143 C144 1.390 . S
C143 H148 0.949 . S
C144 C143 1.390 . S
C144 C149 1.399 . S
C145 C141 1.404 . S
C145 H146 0.950 . S
C145 C147 1.375 . S
H146 C145 0.950 . S
C147 C145 1.375 . S
C147 C149 1.382 . S
C147 H151 0.950 . S
H148 C143 0.949 . S
C149 C144 1.399 . S
C149 C147 1.382 . S
C149 H150 0.952 . S
H150 C149 0.952 . S
H151 C147 0.950 . S
Tb152 O155 2.409 1_565 S
Tb152 O156 2.564 1_665 S
Tb152 O157 2.372 1_665 S
Tb152 O165 2.364 1_655 S
Tb152 O167 2.348 1_565 S
Tb152 O169 2.463 . S
Tb152 O170 2.552 1_655 S
C153 O157 1.251 . S
C153 O159 1.263 . S
Tb154 O156 2.343 . S
Tb154 O159 2.353 . S
Tb154 O162 2.427 . S
Tb154 O163 2.511 1_455 S
Tb154 O164 2.453 1_545 S
Tb154 O165 2.596 1_545 S
Tb154 O166 2.374 1_455 S
O155 Tb152 2.409 1_545 S
O155 C171 1.245 1_655 S
O156 Tb152 2.564 1_445 S
O156 Tb154 2.343 . S
O156 C171 1.259 . S
O157 Tb152 2.372 1_445 S
O157 C153 1.251 . S
C158 O162 1.275 . S
C158 O163 1.241 1_455 S
O159 C153 1.263 . S
O159 Tb154 2.353 . S
C160 O164 1.245 . S
C160 O165 1.259 . S
C161 O166 1.250 . S
C161 O167 1.263 . S
O162 Tb154 2.427 . S
O162 C158 1.275 . S
O163 Tb154 2.511 1_655 S
O163 C158 1.241 1_655 S
O164 Tb154 2.453 1_565 S
O164 C160 1.245 . S
O165 Tb152 2.364 1_455 S
O165 Tb154 2.596 1_565 S
O165 C160 1.259 . S
O166 Tb154 2.374 1_655 S
O166 C161 1.250 . S
O167 Tb152 2.348 1_545 S
O167 C161 1.263 . S
C168 O169 1.275 . S
C168 O170 1.246 1_655 S
O169 Tb152 2.463 . S
O169 C168 1.275 . S
O170 Tb152 2.552 1_455 S
O170 C168 1.246 1_455 S
C171 O155 1.245 1_455 S
C171 O156 1.259 . S
Tb172 O175 2.453 . S
Tb172 O176 2.546 1_545 S
Tb172 O177 2.374 . S
Tb172 O185 2.343 . S
Tb172 O187 2.353 . S
Tb172 O189 2.427 . S
Tb172 O190 2.513 . S
C173 O177 1.255 . S
C173 O179 1.259 1_545 S
Tb174 O176 2.371 . S
Tb174 O179 2.353 . S
Tb174 O182 2.427 . S
Tb174 O183 2.513 . S
Tb174 O184 2.453 . S
Tb174 O185 2.596 1_565 S
Tb174 O186 2.374 . S
O175 Tb172 2.453 . S
O175 C191 1.245 . S
O176 Tb172 2.546 1_565 S
O176 Tb174 2.371 . S
O176 C191 1.246 1_565 S
O177 Tb172 2.374 . S
O177 C173 1.255 . S
C178 O182 1.275 . S
C178 O183 1.246 . S
O179 C173 1.259 1_565 S
O179 Tb174 2.353 . S
C180 O184 1.245 1_545 S
C180 O185 1.259 . S
C181 O186 1.250 1_545 S
C181 O187 1.263 . S
O182 Tb174 2.427 . S
O182 C178 1.275 . S
O183 Tb174 2.513 . S
O183 C178 1.246 . S
O184 Tb174 2.453 . S
O184 C180 1.245 1_565 S
O185 Tb172 2.343 . S
O185 Tb174 2.596 1_545 S
O185 C180 1.259 . S
O186 Tb174 2.374 . S
O186 C181 1.250 1_565 S
O187 Tb172 2.353 . S
O187 C181 1.263 . S
C188 O189 1.275 . S
C188 O190 1.246 . S
O189 Tb172 2.427 . S
O189 C188 1.275 . S
O190 Tb172 2.513 . S
O190 C188 1.246 . S
C191 O175 1.245 . S
C191 O176 1.246 1_545 S
Tb192 O195 2.453 . S
Tb192 O196 2.596 . S
Tb192 O197 2.374 . S
Tb192 O205 2.343 . S
Tb192 O207 2.353 . S
Tb192 O209 2.427 . S
Tb192 O210 2.513 . S
C193 O197 1.251 . S
C193 O199 1.263 . S
Tb194 O196 2.343 . S
Tb194 O199 2.353 . S
Tb194 O202 2.427 . S
Tb194 O203 2.513 . S
Tb194 O204 2.453 . S
Tb194 O205 2.596 . S
Tb194 O206 2.374 . S
O195 Tb192 2.453 . S
O195 C211 1.245 . S
O196 Tb192 2.596 . S
O196 Tb194 2.343 . S
O196 C211 1.259 . S
O197 Tb192 2.374 . S
O197 C193 1.251 . S
C198 O202 1.275 . S
C198 O203 1.246 . S
O199 C193 1.263 . S
O199 Tb194 2.353 . S
C200 O204 1.245 . S
C200 O205 1.259 . S
C201 O206 1.250 . S
C201 O207 1.263 . S
O202 Tb194 2.427 . S
O202 C198 1.275 . S
O203 Tb194 2.513 . S
O203 C198 1.246 . S
O204 Tb194 2.453 . S
O204 C200 1.245 . S
O205 Tb192 2.343 . S
O205 Tb194 2.596 . S
O205 C200 1.259 . S
O206 Tb194 2.374 . S
O206 C201 1.250 . S
O207 Tb192 2.353 . S
O207 C201 1.263 . S
C208 O209 1.275 . S
C208 O210 1.246 . S
O209 Tb192 2.427 . S
O209 C208 1.275 . S
O210 Tb192 2.513 . S
O210 C208 1.246 . S
C211 O195 1.245 . S
C211 O196 1.259 . S
Tb212 O215 2.450 . S
Tb212 O216 2.593 . S
Tb212 O217 2.373 . S
Tb212 O225 2.344 1_455 S
Tb212 O227 2.353 . S
Tb212 O229 2.430 1_455 S
Tb212 O230 2.516 1_455 S
C213 O217 1.251 . S
C213 O219 1.263 . S
Tb214 O216 2.343 . S
Tb214 O219 2.353 . S
Tb214 O222 2.427 . S
Tb214 O223 2.513 . S
Tb214 O224 2.453 1_455 S
Tb214 O225 2.596 1_455 S
Tb214 O226 2.374 . S
O215 Tb212 2.450 . S
O215 C231 1.245 . S
O216 Tb212 2.593 . S
O216 Tb214 2.343 . S
O216 C231 1.259 . S
O217 Tb212 2.373 . S
O217 C213 1.251 . S
C218 O222 1.275 . S
C218 O223 1.246 . S
O219 C213 1.263 . S
O219 Tb214 2.353 . S
C220 O224 1.245 . S
C220 O225 1.259 . S
C221 O226 1.250 . S
C221 O227 1.263 . S
O222 Tb214 2.427 . S
O222 C218 1.275 . S
O223 Tb214 2.513 . S
O223 C218 1.246 . S
O224 Tb214 2.453 1_655 S
O224 C220 1.245 . S
O225 Tb212 2.344 1_655 S
O225 Tb214 2.596 1_655 S
O225 C220 1.259 . S
O226 Tb214 2.374 . S
O226 C221 1.250 . S
O227 Tb212 2.353 . S
O227 C221 1.263 . S
C228 O229 1.275 . S
C228 O230 1.246 . S
O229 Tb212 2.430 1_655 S
O229 C228 1.275 . S
O230 Tb212 2.516 1_655 S
O230 C228 1.246 . S
C231 O215 1.245 . S
C231 O216 1.259 . S
C232 C233 1.349 . S
C232 C234 1.327 . S
C232 H257 0.950 . S
C233 C232 1.349 . S
C233 C249 1.349 . S
C234 C232 1.327 . S
C234 C253 1.429 . S
C234 H258 0.950 . S
C235 C252 1.574 . S
C235 C254 1.368 . S
C235 H259 0.949 . S
H236 C240 0.949 . S
C237 C238 1.349 . S
C237 C239 1.327 . S
C237 H260 0.950 1_545 S
C238 C237 1.349 . S
C238 C250 1.349 . S
C239 C237 1.327 . S
C239 C255 1.429 . S
C239 H261 0.950 1_545 S
C240 H236 0.949 . S
C240 C248 1.574 . S
C240 C256 1.368 . S
H241 C249 0.950 . S
H242 C247 0.950 . S
H243 C248 0.949 . S
H244 C250 0.950 . S
H245 C251 0.950 . S
H246 C252 0.949 . S
C247 H242 0.950 . S
C247 C249 1.327 . S
C247 C253 1.429 . S
C248 C240 1.574 . S
C248 H243 0.949 . S
C248 C254 1.368 . S
C249 C233 1.349 . S
C249 H241 0.950 . S
C249 C247 1.327 . S
C250 C238 1.349 . S
C250 H244 0.950 . S
C250 C251 1.327 . S
C251 H245 0.950 . S
C251 C250 1.327 . S
C251 C255 1.429 . S
C252 C235 1.574 . S
C252 H246 0.949 . S
C252 C256 1.368 . S
C253 C234 1.429 . S
C253 C247 1.429 . S
C253 C254 1.523 . S
C254 C235 1.368 . S
C254 C248 1.368 . S
C254 C253 1.523 . S
C255 C239 1.429 . S
C255 C251 1.429 . S
C255 C256 1.523 . S
C256 C240 1.368 . S
C256 C252 1.368 . S
C256 C255 1.523 . S
H257 C232 0.950 . S
H258 C234 0.950 . S
H259 C235 0.949 . S
H260 C237 0.950 1_565 S
H261 C239 0.950 1_565 S
C262 C263 1.349 . S
C262 C264 1.327 . S
C262 H287 0.950 . S
C263 C262 1.349 . S
C263 C279 1.349 . S
C264 C262 1.327 . S
C264 C283 1.429 . S
C264 H288 0.950 . S
C265 C282 1.574 . S
C265 C284 1.368 . S
C265 H289 0.949 . S
H266 C270 0.949 . S
C267 C268 1.349 . S
C267 C269 1.327 . S
C267 H290 0.950 . S
C268 C267 1.349 . S
C268 C280 1.349 . S
C269 C267 1.327 . S
C269 C285 1.429 . S
C269 H291 0.950 . S
C270 H266 0.949 . S
C270 C278 1.574 . S
C270 C286 1.368 . S
H271 C279 0.950 . S
H272 C277 0.950 . S
H273 C278 0.949 . S
H274 C280 0.950 . S
H275 C281 0.950 . S
H276 C282 0.949 . S
C277 H272 0.950 . S
C277 C279 1.327 . S
C277 C283 1.429 . S
C278 C270 1.574 . S
C278 H273 0.949 . S
C278 C284 1.368 . S
C279 C263 1.349 . S
C279 H271 0.950 . S
C279 C277 1.327 . S
C280 C268 1.349 . S
C280 H274 0.950 . S
C280 C281 1.327 . S
C281 H275 0.950 . S
C281 C280 1.327 . S
C281 C285 1.429 . S
C282 C265 1.574 . S
C282 H276 0.949 . S
C282 C286 1.368 . S
C283 C264 1.429 . S
C283 C277 1.429 . S
C283 C284 1.523 . S
C284 C265 1.368 . S
C284 C278 1.368 . S
C284 C283 1.523 . S
C285 C269 1.429 . S
C285 C281 1.429 . S
C285 C286 1.523 . S
C286 C270 1.368 . S
C286 C282 1.368 . S
C286 C285 1.523 . S
H287 C262 0.950 . S
H288 C264 0.950 . S
H289 C265 0.949 . S
H290 C267 0.950 . S
H291 C269 0.950 . S
C292 C293 1.349 . S
C292 C294 1.327 . S
C292 H317 0.950 . S
C293 C292 1.349 . S
C293 C309 1.349 . S
C294 C292 1.327 . S
C294 C313 1.429 . S
C294 H318 0.950 . S
C295 C312 1.574 . S
C295 C314 1.368 . S
C295 H319 0.949 . S
H296 C300 0.949 . S
C297 C298 1.349 . S
C297 C299 1.327 . S
C297 H320 0.950 . S
C298 C297 1.349 . S
C298 C310 1.349 . S
C299 C297 1.327 . S
C299 C315 1.429 . S
C299 H321 0.950 . S
C300 H296 0.949 . S
C300 C308 1.574 . S
C300 C316 1.368 . S
H301 C309 0.950 . S
H302 C307 0.950 . S
H303 C308 0.949 . S
H304 C310 0.950 . S
H305 C311 0.950 . S
H306 C312 0.949 . S
C307 H302 0.950 . S
C307 C309 1.327 . S
C307 C313 1.429 . S
C308 C300 1.574 . S
C308 H303 0.949 . S
C308 C314 1.368 . S
C309 C293 1.349 . S
C309 H301 0.950 . S
C309 C307 1.327 . S
C310 C298 1.349 . S
C310 H304 0.950 . S
C310 C311 1.327 . S
C311 H305 0.950 . S
C311 C310 1.327 . S
C311 C315 1.429 . S
C312 C295 1.574 . S
C312 H306 0.949 . S
C312 C316 1.368 . S
C313 C294 1.429 . S
C313 C307 1.429 . S
C313 C314 1.523 . S
C314 C295 1.368 . S
C314 C308 1.368 . S
C314 C313 1.523 . S
C315 C299 1.429 . S
C315 C311 1.429 . S
C315 C316 1.523 . S
C316 C300 1.368 . S
C316 C312 1.368 . S
C316 C315 1.523 . S
H317 C292 0.950 . S
H318 C294 0.950 . S
H319 C295 0.949 . S
H320 C297 0.950 . S
H321 C299 0.950 . S
C322 C323 1.349 . S
C322 C324 1.327 . S
C322 H347 0.950 . S
C323 C322 1.349 . S
C323 C339 1.349 . S
C324 C322 1.327 . S
C324 C343 1.429 . S
C324 H348 0.950 . S
C325 C342 1.574 . S
C325 C344 1.368 . S
C325 H349 0.949 . S
H326 C330 0.949 . S
C327 C328 1.349 . S
C327 C329 1.327 . S
C327 H350 0.950 . S
C328 C327 1.349 . S
C328 C340 1.349 . S
C329 C327 1.327 . S
C329 C345 1.429 . S
C329 H351 0.950 . S
C330 H326 0.949 . S
C330 C338 1.574 . S
C330 C346 1.368 . S
H331 C339 0.950 . S
H332 C337 0.950 . S
H333 C338 0.949 . S
H334 C340 0.950 1_655 S
H335 C341 0.950 . S
H336 C342 0.949 . S
C337 H332 0.950 . S
C337 C339 1.327 . S
C337 C343 1.429 . S
C338 C330 1.574 . S
C338 H333 0.949 . S
C338 C344 1.368 . S
C339 C323 1.349 . S
C339 H331 0.950 . S
C339 C337 1.327 . S
C340 C328 1.349 . S
C340 H334 0.950 1_455 S
C340 C341 1.327 . S
C341 H335 0.950 . S
C341 C340 1.327 . S
C341 C345 1.429 . S
C342 C325 1.574 . S
C342 H336 0.949 . S
C342 C346 1.368 . S
C343 C324 1.429 . S
C343 C337 1.429 . S
C343 C344 1.523 . S
C344 C325 1.368 . S
C344 C338 1.368 . S
C344 C343 1.523 . S
C345 C329 1.429 . S
C345 C341 1.429 . S
C345 C346 1.523 . S
C346 C330 1.368 . S
C346 C342 1.368 . S
C346 C345 1.523 . S
H347 C322 0.950 . S
H348 C324 0.950 . S
H349 C325 0.949 . S
H350 C327 0.950 . S
H351 C329 0.950 . S
C352 C353 1.349 . S
C352 C354 1.327 . S
C352 H377 0.950 1_556 S
C353 C352 1.349 . S
C353 C369 1.349 . S
C354 C352 1.327 . S
C354 C373 1.429 . S
C354 H378 0.950 1_556 S
C355 C372 1.574 . S
C355 C374 1.368 . S
C355 H379 0.949 . S
H356 C360 0.949 . S
C357 C358 1.349 . S
C357 C359 1.327 . S
C357 H380 0.950 . S
C358 C357 1.349 . S
C358 C370 1.349 1_565 S
C359 C357 1.327 . S
C359 C375 1.429 . S
C359 H381 0.950 . S
C360 H356 0.949 . S
C360 C368 1.574 . S
C360 C376 1.368 . S
H361 C369 0.950 . S
H362 C367 0.950 . S
H363 C368 0.949 . S
H364 C370 0.950 . S
H365 C371 0.950 1_545 S
H366 C372 0.949 . S
C367 H362 0.950 . S
C367 C369 1.327 . S
C367 C373 1.429 . S
C368 C360 1.574 . S
C368 H363 0.949 . S
C368 C374 1.368 . S
C369 C353 1.349 . S
C369 H361 0.950 . S
C369 C367 1.327 . S
C370 C358 1.349 1_545 S
C370 H364 0.950 . S
C370 C371 1.327 1_545 S
C371 H365 0.950 1_565 S
C371 C370 1.327 1_565 S
C371 C375 1.429 . S
C372 C355 1.574 . S
C372 H366 0.949 . S
C372 C376 1.368 . S
C373 C354 1.429 . S
C373 C367 1.429 . S
C373 C374 1.523 . S
C374 C355 1.368 . S
C374 C368 1.368 . S
C374 C373 1.523 . S
C375 C359 1.429 . S
C375 C371 1.429 . S
C375 C376 1.523 . S
C376 C360 1.368 . S
C376 C372 1.368 . S
C376 C375 1.523 . S
H377 C352 0.950 1_554 S
H378 C354 0.950 1_554 S
H379 C355 0.949 . S
H380 C357 0.950 . S
H381 C359 0.950 . S
C382 C383 1.349 1_554 S
C382 C384 1.327 . S
C382 H407 0.950 . S
C383 C382 1.349 1_556 S
C383 C399 1.349 . S
C384 C382 1.327 . S
C384 C403 1.429 1_554 S
C384 H408 0.950 . S
C385 C402 1.574 . S
C385 C404 1.368 . S
C385 H409 0.949 . S
H386 C390 0.949 . S
C387 C388 1.349 . S
C387 C389 1.327 . S
C387 H410 0.950 . S
C388 C387 1.349 . S
C388 C400 1.349 . S
C389 C387 1.327 . S
C389 C405 1.429 . S
C389 H411 0.950 . S
C390 H386 0.949 . S
C390 C398 1.574 . S
C390 C406 1.368 . S
H391 C399 0.950 . S
H392 C397 0.950 . S
H393 C398 0.949 . S
H394 C400 0.950 . S
H395 C401 0.950 . S
H396 C402 0.949 . S
C397 H392 0.950 . S
C397 C399 1.327 . S
C397 C403 1.429 . S
C398 C390 1.574 . S
C398 H393 0.949 . S
C398 C404 1.368 . S
C399 C383 1.349 . S
C399 H391 0.950 . S
C399 C397 1.327 . S
C400 C388 1.349 . S
C400 H394 0.950 . S
C400 C401 1.327 . S
C401 H395 0.950 . S
C401 C400 1.327 . S
C401 C405 1.429 . S
C402 C385 1.574 . S
C402 H396 0.949 . S
C402 C406 1.368 . S
C403 C384 1.429 1_556 S
C403 C397 1.429 . S
C403 C404 1.523 . S
C404 C385 1.368 . S
C404 C398 1.368 . S
C404 C403 1.523 . S
C405 C389 1.429 . S
C405 C401 1.429 . S
C405 C406 1.523 . S
C406 C390 1.368 . S
C406 C402 1.368 . S
C406 C405 1.523 . S
H407 C382 0.950 . S
H408 C384 0.950 . S
H409 C385 0.949 . S
H410 C387 0.950 . S
H411 C389 0.950 . S
C412 C413 1.349 . S
C412 C414 1.327 . S
C412 H437 0.950 1_556 S
C413 C412 1.349 . S
C413 C429 1.349 . S
C414 C412 1.327 . S
C414 C433 1.429 . S
C414 H438 0.950 . S
C415 C432 1.574 . S
C415 C434 1.368 . S
C415 H439 0.949 . S
H416 C420 0.949 . S
C417 C418 1.349 . S
C417 C419 1.327 . S
C417 H440 0.950 . S
C418 C417 1.349 . S
C418 C430 1.349 . S
C419 C417 1.327 . S
C419 C435 1.429 . S
C419 H441 0.950 . S
C420 H416 0.949 . S
C420 C428 1.574 . S
C420 C436 1.368 . S
H421 C429 0.950 . S
H422 C427 0.950 . S
H423 C428 0.949 . S
H424 C430 0.950 . S
H425 C431 0.950 . S
H426 C432 0.949 . S
C427 H422 0.950 . S
C427 C429 1.327 . S
C427 C433 1.429 . S
C428 C420 1.574 . S
C428 H423 0.949 . S
C428 C434 1.368 . S
C429 C413 1.349 . S
C429 H421 0.950 . S
C429 C427 1.327 . S
C430 C418 1.349 . S
C430 H424 0.950 . S
C430 C431 1.327 . S
C431 H425 0.950 . S
C431 C430 1.327 . S
C431 C435 1.429 . S
C432 C415 1.574 . S
C432 H426 0.949 . S
C432 C436 1.368 . S
C433 C414 1.429 . S
C433 C427 1.429 . S
C433 C434 1.523 . S
C434 C415 1.368 . S
C434 C428 1.368 . S
C434 C433 1.523 . S
C435 C419 1.429 . S
C435 C431 1.429 . S
C435 C436 1.523 . S
C436 C420 1.368 . S
C436 C432 1.368 . S
C436 C435 1.523 . S
H437 C412 0.950 1_554 S
H438 C414 0.950 . S
H439 C415 0.949 . S
H440 C417 0.950 . S
H441 C419 0.950 . S
C442 C443 1.349 . S
C442 C444 1.327 . S
C442 H467 0.950 . S
C443 C442 1.349 . S
C443 C459 1.349 . S
C444 C442 1.327 . S
C444 C463 1.429 . S
C444 H468 0.950 . S
C445 C462 1.574 . S
C445 C464 1.368 . S
C445 H469 0.949 . S
H446 C450 0.949 1_455 S
C447 C448 1.349 . S
C447 C449 1.327 . S
C447 H470 0.950 . S
C448 C447 1.349 . S
C448 C460 1.349 1_655 S
C449 C447 1.327 . S
C449 C465 1.429 . S
C449 H471 0.950 . S
C450 H446 0.949 1_655 S
C450 C458 1.574 . S
C450 C466 1.368 . S
H451 C459 0.950 1_554 S
H452 C457 0.950 . S
H453 C458 0.949 . S
H454 C460 0.950 . S
H455 C461 0.950 . S
H456 C462 0.949 . S
C457 H452 0.950 . S
C457 C459 1.327 . S
C457 C463 1.429 . S
C458 C450 1.574 . S
C458 H453 0.949 . S
C458 C464 1.368 . S
C459 C443 1.349 . S
C459 H451 0.950 1_556 S
C459 C457 1.327 . S
C460 C448 1.349 1_455 S
C460 H454 0.950 . S
C460 C461 1.327 . S
C461 H455 0.950 . S
C461 C460 1.327 . S
C461 C465 1.429 1_455 S
C462 C445 1.574 . S
C462 H456 0.949 . S
C462 C466 1.368 . S
C463 C444 1.429 . S
C463 C457 1.429 . S
C463 C464 1.523 . S
C464 C445 1.368 . S
C464 C458 1.368 . S
C464 C463 1.523 . S
C465 C449 1.429 . S
C465 C461 1.429 1_655 S
C465 C466 1.523 . S
C466 C450 1.368 . S
C466 C462 1.368 . S
C466 C465 1.523 . S
H467 C442 0.950 . S
H468 C444 0.950 . S
H469 C445 0.949 . S
H470 C447 0.950 . S
H471 C449 0.950 . S
C472 C473 1.349 . S
C472 C474 1.327 . S
C472 H497 0.950 . S
C473 C472 1.349 . S
C473 C489 1.349 . S
C474 C472 1.327 . S
C474 C493 1.429 . S
C474 H498 0.950 . S
C475 C492 1.574 . S
C475 C494 1.368 . S
C475 H499 0.949 . S
H476 C480 0.949 . S
C477 C478 1.349 . S
C477 C479 1.327 . S
C477 H500 0.976 . S
C478 C477 1.349 . S
C478 C490 1.349 . S
C479 C477 1.327 . S
C479 C495 1.429 . S
C479 H501 0.950 . S
C480 H476 0.949 . S
C480 C488 1.574 . S
C480 C496 1.368 . S
H481 C489 0.950 . S
H482 C487 0.950 . S
H483 C488 0.949 . S
H484 C490 0.950 . S
H485 C491 0.950 . S
H486 C492 0.949 . S
C487 H482 0.950 . S
C487 C489 1.327 . S
C487 C493 1.429 . S
C488 C480 1.574 . S
C488 H483 0.949 . S
C488 C494 1.368 . S
C489 C473 1.349 . S
C489 H481 0.950 . S
C489 C487 1.327 . S
C490 C478 1.349 . S
C490 H484 0.950 . S
C490 C491 1.327 . S
C491 H485 0.950 . S
C491 C490 1.327 . S
C491 C495 1.429 . S
C492 C475 1.574 . S
C492 H486 0.949 . S
C492 C496 1.368 . S
C493 C474 1.429 . S
C493 C487 1.429 . S
C493 C494 1.523 . S
C494 C475 1.368 . S
C494 C488 1.368 . S
C494 C493 1.523 . S
C495 C479 1.429 . S
C495 C491 1.429 . S
C495 C496 1.523 . S
C496 C480 1.368 . S
C496 C492 1.368 . S
C496 C495 1.523 . S
H497 C472 0.950 . S
H498 C474 0.950 . S
H499 C475 0.949 . S
H500 C477 0.976 . S
H501 C479 0.950 . S
C502 C503 1.349 . S
C502 C504 1.327 . S
C502 H527 0.950 . S
C503 C502 1.349 . S
C503 C519 1.349 . S
C504 C502 1.327 . S
C504 C523 1.429 . S
C504 H528 0.950 . S
C505 C522 1.574 . S
C505 C524 1.368 . S
C505 H529 0.949 . S
H506 C510 0.949 . S
C507 C508 1.349 . S
C507 C509 1.327 . S
C507 H530 0.950 1_545 S
C508 C507 1.349 . S
C508 C520 1.349 . S
C509 C507 1.327 . S
C509 C525 1.429 . S
C509 H531 0.950 . S
C510 H506 0.949 . S
C510 C518 1.574 . S
C510 C526 1.368 . S
H511 C519 0.950 . S
H512 C517 0.950 . S
H513 C518 0.949 . S
H514 C520 0.950 . S
H515 C521 0.950 . S
H516 C522 0.949 . S
C517 H512 0.950 . S
C517 C519 1.327 . S
C517 C523 1.429 . S
C518 C510 1.574 . S
C518 H513 0.949 . S
C518 C524 1.368 . S
C519 C503 1.349 . S
C519 H511 0.950 . S
C519 C517 1.327 . S
C520 C508 1.349 . S
C520 H514 0.950 . S
C520 C521 1.327 . S
C521 H515 0.950 . S
C521 C520 1.327 . S
C521 C525 1.429 . S
C522 C505 1.574 . S
C522 H516 0.949 . S
C522 C526 1.368 . S
C523 C504 1.429 . S
C523 C517 1.429 . S
C523 C524 1.523 . S
C524 C505 1.368 . S
C524 C518 1.368 . S
C524 C523 1.523 . S
C525 C509 1.429 . S
C525 C521 1.429 . S
C525 C526 1.523 . S
C526 C510 1.368 . S
C526 C522 1.368 . S
C526 C525 1.523 . S
H527 C502 0.950 . S
H528 C504 0.950 . S
H529 C505 0.949 . S
H530 C507 0.950 1_565 S
H531 C509 0.950 . S
C532 C533 1.349 . S
C532 C534 1.327 . S
C532 H557 0.950 . S
C533 C532 1.349 . S
C533 C549 1.349 . S
C534 C532 1.327 . S
C534 C553 1.429 . S
C534 H558 0.950 . S
C535 C552 1.574 . S
C535 C554 1.368 . S
C535 H559 0.949 . S
H536 C540 0.949 . S
C537 C538 1.349 . S
C537 C539 1.327 . S
C537 H560 0.950 . S
C538 C537 1.349 . S
C538 C550 1.349 . S
C539 C537 1.327 . S
C539 C555 1.429 . S
C539 H561 0.950 . S
C540 H536 0.949 . S
C540 C548 1.574 . S
C540 C556 1.368 . S
H541 C549 0.950 . S
H542 C547 0.950 . S
H543 C548 0.949 . S
H544 C550 0.950 . S
H545 C551 0.950 . S
H546 C552 0.949 . S
C547 H542 0.950 . S
C547 C549 1.327 . S
C547 C553 1.429 . S
C548 C540 1.574 . S
C548 H543 0.949 . S
C548 C554 1.368 . S
C549 C533 1.349 . S
C549 H541 0.950 . S
C549 C547 1.327 . S
C550 C538 1.349 . S
C550 H544 0.950 . S
C550 C551 1.327 . S
C551 H545 0.950 . S
C551 C550 1.327 . S
C551 C555 1.429 . S
C552 C535 1.574 . S
C552 H546 0.949 . S
C552 C556 1.368 . S
C553 C534 1.429 . S
C553 C547 1.429 . S
C553 C554 1.523 . S
C554 C535 1.368 . S
C554 C548 1.368 . S
C554 C553 1.523 . S
C555 C539 1.429 . S
C555 C551 1.429 . S
C555 C556 1.523 . S
C556 C540 1.368 . S
C556 C552 1.368 . S
C556 C555 1.523 . S
H557 C532 0.950 . S
H558 C534 0.950 . S
H559 C535 0.949 . S
H560 C537 0.950 . S
H561 C539 0.950 . S
C562 C563 1.349 . S
C562 C564 1.327 . S
C562 H587 0.950 . S
C563 C562 1.349 . S
C563 C579 1.349 . S
C564 C562 1.327 . S
C564 C583 1.429 . S
C564 H588 0.950 . S
C565 C582 1.574 . S
C565 C584 1.368 . S
C565 H589 0.949 . S
H566 C570 0.949 . S
C567 C568 1.349 . S
C567 C569 1.327 . S
C567 H590 0.950 . S
C568 C567 1.349 . S
C568 C580 1.349 . S
C569 C567 1.327 . S
C569 C585 1.429 . S
C569 H591 0.950 . S
C570 H566 0.949 . S
C570 C578 1.574 . S
C570 C586 1.368 . S
H571 C579 0.950 . S
H572 C577 0.950 . S
H573 C578 0.949 . S
H574 C580 0.950 . S
H575 C581 0.950 . S
H576 C582 0.949 . S
C577 H572 0.950 . S
C577 C579 1.327 . S
C577 C583 1.429 . S
C578 C570 1.574 . S
C578 H573 0.949 . S
C578 C584 1.368 . S
C579 C563 1.349 . S
C579 H571 0.950 . S
C579 C577 1.327 . S
C580 C568 1.349 . S
C580 H574 0.950 . S
C580 C581 1.327 . S
C581 H575 0.950 . S
C581 C580 1.327 . S
C581 C585 1.429 . S
C582 C565 1.574 . S
C582 H576 0.949 . S
C582 C586 1.368 . S
C583 C564 1.429 . S
C583 C577 1.429 . S
C583 C584 1.523 . S
C584 C565 1.368 . S
C584 C578 1.368 . S
C584 C583 1.523 . S
C585 C569 1.429 . S
C585 C581 1.429 . S
C585 C586 1.523 . S
C586 C570 1.368 . S
C586 C582 1.368 . S
C586 C585 1.523 . S
H587 C562 0.950 . S
H588 C564 0.950 . S
H589 C565 0.949 . S
H590 C567 0.950 . S
H591 C569 0.950 . S
C592 C593 1.349 . S
C592 C594 1.327 . S
C592 H617 0.950 . S
C593 C592 1.349 . S
C593 C609 1.349 . S
C594 C592 1.327 . S
C594 C613 1.429 . S
C594 H618 0.950 1_655 S
C595 C612 1.574 . S
C595 C614 1.368 . S
C595 H619 0.949 . S
H596 C600 0.949 . S
C597 C598 1.357 . S
C597 C599 1.327 . S
C597 H620 0.950 . S
C598 C597 1.357 . S
C598 C610 1.342 1_655 S
C599 C597 1.327 . S
C599 C615 1.429 . S
C599 H621 0.950 . S
C600 H596 0.949 . S
C600 C608 1.571 1_455 S
C600 C616 1.368 1_455 S
H601 C609 0.950 . S
H602 C607 0.950 . S
H603 C608 0.931 1_455 S
H604 C610 0.950 . S
H605 C611 0.950 . S
H606 C612 0.949 . S
C607 H602 0.950 . S
C607 C609 1.327 . S
C607 C613 1.429 . S
C608 C600 1.571 1_655 S
C608 H603 0.931 1_655 S
C608 C614 1.392 . S
C609 C593 1.349 . S
C609 H601 0.950 . S
C609 C607 1.327 . S
C610 C598 1.342 1_455 S
C610 H604 0.950 . S
C610 C611 1.327 . S
C611 H605 0.950 . S
C611 C610 1.327 . S
C611 C615 1.429 1_455 S
C612 C595 1.574 . S
C612 H606 0.949 . S
C612 C616 1.368 . S
C613 C594 1.429 . S
C613 C607 1.429 . S
C613 C614 1.523 . S
C614 C595 1.368 . S
C614 C608 1.392 . S
C614 C613 1.523 . S
C615 C599 1.429 . S
C615 C611 1.429 1_655 S
C615 C616 1.523 . S
C616 C600 1.368 1_655 S
C616 C612 1.368 . S
C616 C615 1.523 . S
H617 C592 0.950 . S
H618 C594 0.950 1_455 S
H619 C595 0.949 . S
H620 C597 0.950 . S
H621 C599 0.950 . S
C622 C623 1.349 . S
C622 C624 1.327 . S
C622 H647 0.950 . S
C623 C622 1.349 . S
C623 C639 1.349 . S
C624 C622 1.327 . S
C624 C643 1.429 . S
C624 H648 0.950 . S
C625 C642 1.574 . S
C625 C644 1.368 . S
C625 H649 0.949 1_565 S
H626 C630 0.949 . S
C627 C628 1.349 1_545 S
C627 C629 1.327 . S
C627 H650 0.950 . S
C628 C627 1.349 1_565 S
C628 C640 1.349 . S
C629 C627 1.327 . S
C629 C645 1.429 1_545 S
C629 H651 0.950 . S
C630 H626 0.949 . S
C630 C638 1.574 . S
C630 C646 1.368 . S
H631 C639 0.950 . S
H632 C637 0.950 . S
H633 C638 0.949 . S
H634 C640 0.950 . S
H635 C641 0.950 . S
H636 C642 0.949 1_545 S
C637 H632 0.950 . S
C637 C639 1.327 . S
C637 C643 1.429 . S
C638 C630 1.574 . S
C638 H633 0.949 . S
C638 C644 1.368 . S
C639 C623 1.349 . S
C639 H631 0.950 . S
C639 C637 1.327 . S
C640 C628 1.349 . S
C640 H634 0.950 . S
C640 C641 1.327 . S
C641 H635 0.950 . S
C641 C640 1.327 . S
C641 C645 1.429 . S
C642 C625 1.574 . S
C642 H636 0.949 1_565 S
C642 C646 1.368 . S
C643 C624 1.429 . S
C643 C637 1.429 . S
C643 C644 1.523 . S
C644 C625 1.368 . S
C644 C638 1.368 . S
C644 C643 1.523 . S
C645 C629 1.429 1_565 S
C645 C641 1.429 . S
C645 C646 1.523 . S
C646 C630 1.368 . S
C646 C642 1.368 . S
C646 C645 1.523 . S
H647 C622 0.950 . S
H648 C624 0.950 . S
H649 C625 0.949 1_545 S
H650 C627 0.950 . S
H651 C629 0.950 . S
C652 C653 1.349 1_554 S
C652 C654 1.327 1_554 S
C652 H677 0.950 . S
C653 C652 1.349 1_556 S
C653 C669 1.349 . S
C654 C652 1.327 1_556 S
C654 C673 1.429 . S
C654 H678 0.950 1_556 S
C655 C672 1.574 . S
C655 C674 1.368 . S
C655 H679 0.949 . S
H656 C660 0.949 . S
C657 C658 1.349 . S
C657 C659 1.327 . S
C657 H680 0.950 . S
C658 C657 1.349 . S
C658 C670 1.349 . S
C659 C657 1.327 . S
C659 C675 1.429 . S
C659 H681 0.950 . S
C660 H656 0.949 . S
C660 C668 1.574 . S
C660 C676 1.368 . S
H661 C669 0.950 . S
H662 C667 0.950 . S
H663 C668 0.949 . S
H664 C670 0.950 . S
H665 C671 0.950 . S
H666 C672 0.949 . S
C667 H662 0.950 . S
C667 C669 1.327 . S
C667 C673 1.429 . S
C668 C660 1.574 . S
C668 H663 0.949 . S
C668 C674 1.368 . S
C669 C653 1.349 . S
C669 H661 0.950 . S
C669 C667 1.327 . S
C670 C658 1.349 . S
C670 H664 0.950 . S
C670 C671 1.327 . S
C671 H665 0.950 . S
C671 C670 1.327 . S
C671 C675 1.429 . S
C672 C655 1.574 . S
C672 H666 0.949 . S
C672 C676 1.368 . S
C673 C654 1.429 . S
C673 C667 1.429 . S
C673 C674 1.523 . S
C674 C655 1.368 . S
C674 C668 1.368 . S
C674 C673 1.523 . S
C675 C659 1.429 . S
C675 C671 1.429 . S
C675 C676 1.523 . S
C676 C660 1.368 . S
C676 C672 1.368 . S
C676 C675 1.523 . S
H677 C652 0.950 . S
H678 C654 0.950 1_554 S
H679 C655 0.949 . S
H680 C657 0.950 . S
H681 C659 0.950 . S
C682 C683 1.349 . S
C682 C684 1.327 . S
C682 H707 0.947 1_556 S
C683 C682 1.349 . S
C683 C699 1.349 . S
C684 C682 1.327 . S
C684 C703 1.429 . S
C684 H708 0.950 . S
C685 C702 1.574 . S
C685 C704 1.368 . S
C685 H709 0.949 . S
H686 C690 0.949 . S
C687 C688 1.349 . S
C687 C689 1.327 . S
C687 H710 0.950 . S
C688 C687 1.349 . S
C688 C700 1.349 . S
C689 C687 1.327 . S
C689 C705 1.429 . S
C689 H711 0.950 . S
C690 H686 0.949 . S
C690 C698 1.574 . S
C690 C706 1.368 . S
H691 C699 0.950 . S
H692 C697 0.950 . S
H693 C698 0.949 . S
H694 C700 0.950 . S
H695 C701 0.950 . S
H696 C702 0.949 . S
C697 H692 0.950 . S
C697 C699 1.327 . S
C697 C703 1.429 . S
C698 C690 1.574 . S
C698 H693 0.949 . S
C698 C704 1.368 . S
C699 C683 1.349 . S
C699 H691 0.950 . S
C699 C697 1.327 . S
C700 C688 1.349 . S
C700 H694 0.950 . S
C700 C701 1.327 . S
C701 H695 0.950 . S
C701 C700 1.327 . S
C701 C705 1.429 . S
C702 C685 1.574 . S
C702 H696 0.949 . S
C702 C706 1.368 . S
C703 C684 1.429 . S
C703 C697 1.429 . S
C703 C704 1.523 . S
C704 C685 1.368 . S
C704 C698 1.368 . S
C704 C703 1.523 . S
C705 C689 1.429 . S
C705 C701 1.429 . S
C705 C706 1.523 . S
C706 C690 1.368 . S
C706 C702 1.368 . S
C706 C705 1.523 . S
H707 C682 0.947 1_554 S
H708 C684 0.950 . S
H709 C685 0.949 . S
H710 C687 0.950 . S
H711 C689 0.950 . S
C712 C713 1.349 . S
C712 C714 1.327 . S
C712 H737 0.950 . S
C713 C712 1.349 . S
C713 C729 1.349 . S
C714 C712 1.327 . S
C714 C733 1.429 . S
C714 H738 0.950 . S
C715 C732 1.574 . S
C715 C734 1.368 . S
C715 H739 0.949 . S
H716 C720 0.949 . S
C717 C718 1.349 . S
C717 C719 1.327 . S
C717 H740 0.950 1_455 S
C718 C717 1.349 . S
C718 C730 1.349 . S
C719 C717 1.327 . S
C719 C735 1.429 . S
C719 H741 0.911 1_455 S
C720 H716 0.949 . S
C720 C728 1.574 1_556 S
C720 C736 1.368 . S
H721 C729 0.950 . S
H722 C727 0.950 . S
H723 C728 0.949 . S
H724 C730 0.950 . S
H725 C731 0.950 . S
H726 C732 0.949 . S
C727 H722 0.950 . S
C727 C729 1.327 . S
C727 C733 1.429 . S
C728 C720 1.574 1_554 S
C728 H723 0.949 . S
C728 C734 1.368 . S
C729 C713 1.349 . S
C729 H721 0.950 . S
C729 C727 1.327 . S
C730 C718 1.349 . S
C730 H724 0.950 . S
C730 C731 1.327 . S
C731 H725 0.950 . S
C731 C730 1.327 . S
C731 C735 1.429 . S
C732 C715 1.574 . S
C732 H726 0.949 . S
C732 C736 1.368 1_554 S
C733 C714 1.429 . S
C733 C727 1.429 . S
C733 C734 1.523 . S
C734 C715 1.368 . S
C734 C728 1.368 . S
C734 C733 1.523 . S
C735 C719 1.429 . S
C735 C731 1.429 . S
C735 C736 1.523 . S
C736 C720 1.368 . S
C736 C732 1.368 1_556 S
C736 C735 1.523 . S
H737 C712 0.950 . S
H738 C714 0.950 . S
H739 C715 0.949 . S
H740 C717 0.950 1_655 S
H741 C719 0.911 1_655 S
C742 C743 1.349 . S
C742 C744 1.327 . S
C742 H767 0.950 . S
C743 C742 1.349 . S
C743 C759 1.349 . S
C744 C742 1.327 . S
C744 C763 1.429 . S
C744 H768 0.950 . S
C745 C762 1.574 . S
C745 C764 1.368 . S
C745 H769 0.949 . S
H746 C750 0.949 . S
C747 C748 1.349 . S
C747 C749 1.327 . S
C747 H770 0.950 . S
C748 C747 1.349 . S
C748 C760 1.349 . S
C749 C747 1.327 . S
C749 C765 1.429 . S
C749 H771 0.950 . S
C750 H746 0.949 . S
C750 C758 1.574 . S
C750 C766 1.368 . S
H751 C759 0.950 . S
H752 C757 0.950 . S
H753 C758 0.949 . S
H754 C760 0.950 . S
H755 C761 0.950 . S
H756 C762 0.949 . S
C757 H752 0.950 . S
C757 C759 1.327 . S
C757 C763 1.429 . S
C758 C750 1.574 . S
C758 H753 0.949 . S
C758 C764 1.368 1_556 S
C759 C743 1.349 . S
C759 H751 0.950 . S
C759 C757 1.327 . S
C760 C748 1.349 . S
C760 H754 0.950 . S
C760 C761 1.327 . S
C761 H755 0.950 . S
C761 C760 1.327 . S
C761 C765 1.429 . S
C762 C745 1.574 . S
C762 H756 0.949 . S
C762 C766 1.368 1_554 S
C763 C744 1.429 . S
C763 C757 1.429 . S
C763 C764 1.523 . S
C764 C745 1.368 . S
C764 C758 1.368 1_554 S
C764 C763 1.523 . S
C765 C749 1.429 . S
C765 C761 1.429 . S
C765 C766 1.523 . S
C766 C750 1.368 . S
C766 C762 1.368 1_556 S
C766 C765 1.523 . S
H767 C742 0.950 . S
H768 C744 0.950 . S
H769 C745 0.949 . S
H770 C747 0.950 . S
H771 C749 0.950 . S
C772 C773 1.349 . S
C772 C774 1.327 . S
C772 H797 0.950 . S
C773 C772 1.349 . S
C773 C789 1.349 . S
C774 C772 1.327 . S
C774 C793 1.429 . S
C774 H798 0.950 1_554 S
C775 C792 1.574 . S
C775 C794 1.368 . S
C775 H799 0.949 . S
H776 C780 0.949 . S
C777 C778 1.349 . S
C777 C779 1.327 . S
C777 H800 0.950 . S
C778 C777 1.349 . S
C778 C790 1.349 . S
C779 C777 1.327 . S
C779 C795 1.429 . S
C779 H801 0.950 . S
C780 H776 0.949 . S
C780 C788 1.574 . S
C780 C796 1.368 . S
H781 C789 0.950 . S
H782 C787 0.950 . S
H783 C788 0.949 . S
H784 C790 0.950 . S
H785 C791 0.950 . S
H786 C792 0.949 . S
C787 H782 0.950 . S
C787 C789 1.327 . S
C787 C793 1.429 . S
C788 C780 1.574 . S
C788 H783 0.949 . S
C788 C794 1.368 1_556 S
C789 C773 1.349 . S
C789 H781 0.950 . S
C789 C787 1.327 . S
C790 C778 1.349 . S
C790 H784 0.950 . S
C790 C791 1.327 . S
C791 H785 0.950 . S
C791 C790 1.327 . S
C791 C795 1.429 . S
C792 C775 1.574 . S
C792 H786 0.949 . S
C792 C796 1.368 1_554 S
C793 C774 1.429 . S
C793 C787 1.429 . S
C793 C794 1.523 . S
C794 C775 1.368 . S
C794 C788 1.368 1_554 S
C794 C793 1.523 . S
C795 C779 1.429 . S
C795 C791 1.429 . S
C795 C796 1.523 . S
C796 C780 1.368 . S
C796 C792 1.368 1_556 S
C796 C795 1.523 . S
H797 C772 0.950 . S
H798 C774 0.950 1_556 S
H799 C775 0.949 . S
H800 C777 0.950 . S
H801 C779 0.950 . S
C802 C803 1.349 . S
C802 C804 1.327 . S
C802 H827 0.950 . S
C803 C802 1.349 . S
C803 C819 1.349 . S
C804 C802 1.327 . S
C804 C823 1.429 . S
C804 H828 0.950 . S
C805 C822 1.574 1_554 S
C805 C824 1.368 . S
C805 H829 0.949 . S
H806 C810 0.949 1_556 S
C807 C808 1.349 . S
C807 C809 1.327 . S
C807 H830 0.950 . S
C808 C807 1.349 . S
C808 C820 1.349 . S
C809 C807 1.327 . S
C809 C825 1.429 . S
C809 H831 0.950 . S
C810 H806 0.949 1_554 S
C810 C818 1.578 . S
C810 C826 1.365 1_554 S
H811 C819 0.950 . S
H812 C817 0.950 . S
H813 C818 0.949 . S
H814 C820 0.950 . S
H815 C821 0.950 . S
H816 C822 0.949 . S
C817 H812 0.950 . S
C817 C819 1.327 . S
C817 C823 1.429 . S
C818 C810 1.578 . S
C818 H813 0.949 . S
C818 C824 1.368 . S
C819 C803 1.349 . S
C819 H811 0.950 . S
C819 C817 1.327 . S
C820 C808 1.349 . S
C820 H814 0.950 . S
C820 C821 1.327 . S
C821 H815 0.950 . S
C821 C820 1.327 . S
C821 C825 1.429 . S
C822 C805 1.574 1_556 S
C822 H816 0.949 . S
C822 C826 1.368 . S
C823 C804 1.429 . S
C823 C817 1.429 . S
C823 C824 1.523 . S
C824 C805 1.368 . S
C824 C818 1.368 . S
C824 C823 1.523 . S
C825 C809 1.429 . S
C825 C821 1.429 . S
C825 C826 1.523 . S
C826 C810 1.365 1_556 S
C826 C822 1.368 . S
C826 C825 1.523 . S
H827 C802 0.950 . S
H828 C804 0.950 . S
H829 C805 0.949 . S
H830 C807 0.950 . S
H831 C809 0.950 . S
C832 C833 1.349 . S
C832 C834 1.327 . S
C832 H857 0.950 . S
C833 C832 1.349 . S
C833 C849 1.349 . S
C834 C832 1.327 . S
C834 C853 1.429 . S
C834 H858 0.950 . S
C835 C852 1.574 . S
C835 C854 1.368 . S
C835 H859 0.949 . S
H836 C840 0.949 . S
C837 C838 1.349 . S
C837 C839 1.327 . S
C837 H860 0.950 . S
C838 C837 1.349 . S
C838 C850 1.363 . S
C839 C837 1.327 . S
C839 C855 1.429 . S
C839 H861 0.950 . S
C840 H836 0.949 . S
C840 C848 1.574 . S
C840 C856 1.368 . S
H841 C849 0.950 . S
H842 C847 0.950 . S
H843 C848 0.949 . S
H844 C850 0.933 1_455 S
H845 C851 0.950 1_455 S
H846 C852 0.949 . S
C847 H842 0.950 . S
C847 C849 1.327 . S
C847 C853 1.429 . S
C848 C840 1.574 . S
C848 H843 0.949 . S
C848 C854 1.368 . S
C849 C833 1.349 . S
C849 H841 0.950 . S
C849 C847 1.327 . S
C850 C838 1.363 . S
C850 H844 0.933 1_655 S
C850 C851 1.331 . S
C851 H845 0.950 1_655 S
C851 C850 1.331 . S
C851 C855 1.429 . S
C852 C835 1.574 . S
C852 H846 0.949 . S
C852 C856 1.368 . S
C853 C834 1.429 . S
C853 C847 1.429 . S
C853 C854 1.523 . S
C854 C835 1.368 . S
C854 C848 1.368 . S
C854 C853 1.523 . S
C855 C839 1.429 . S
C855 C851 1.429 . S
C855 C856 1.523 . S
C856 C840 1.368 . S
C856 C852 1.368 . S
C856 C855 1.523 . S
H857 C832 0.950 . S
H858 C834 0.950 . S
H859 C835 0.949 . S
H860 C837 0.950 . S
H861 C839 0.950 . S
C862 C863 1.349 . S
C862 C864 1.327 . S
C862 H887 0.950 . S
C863 C862 1.349 . S
C863 C879 1.349 . S
C864 C862 1.327 . S
C864 C883 1.429 . S
C864 H888 0.950 . S
C865 C882 1.574 . S
C865 C884 1.368 . S
C865 H889 0.949 . S
H866 C870 0.949 . S
C867 C868 1.358 . S
C867 C869 1.335 . S
C867 H890 0.934 1_565 S
C868 C867 1.358 . S
C868 C880 1.349 . S
C869 C867 1.335 . S
C869 C885 1.429 . S
C869 H891 0.950 . S
C870 H866 0.949 . S
C870 C878 1.574 . S
C870 C886 1.368 . S
H871 C879 0.950 . S
H872 C877 0.950 . S
H873 C878 0.949 . S
H874 C880 0.950 . S
H875 C881 0.950 . S
H876 C882 0.949 . S
C877 H872 0.950 . S
C877 C879 1.327 . S
C877 C883 1.429 . S
C878 C870 1.574 . S
C878 H873 0.949 . S
C878 C884 1.368 . S
C879 C863 1.349 . S
C879 H871 0.950 . S
C879 C877 1.327 . S
C880 C868 1.349 . S
C880 H874 0.950 . S
C880 C881 1.327 . S
C881 H875 0.950 . S
C881 C880 1.327 . S
C881 C885 1.429 . S
C882 C865 1.574 . S
C882 H876 0.949 . S
C882 C886 1.368 . S
C883 C864 1.429 . S
C883 C877 1.429 . S
C883 C884 1.523 . S
C884 C865 1.368 . S
C884 C878 1.368 . S
C884 C883 1.523 . S
C885 C869 1.429 . S
C885 C881 1.429 . S
C885 C886 1.523 . S
C886 C870 1.368 . S
C886 C882 1.368 . S
C886 C885 1.523 . S
H887 C862 0.950 . S
H888 C864 0.950 . S
H889 C865 0.949 . S
H890 C867 0.934 1_545 S
H891 C869 0.950 . S
C892 C893 1.349 . S
C892 C894 1.327 . S
C892 H917 0.950 . S
C893 C892 1.349 . S
C893 C909 1.349 . S
C894 C892 1.327 . S
C894 C913 1.429 . S
C894 H918 0.950 . S
C895 C912 1.574 . S
C895 C914 1.368 . S
C895 H919 0.949 . S
H896 C900 0.949 . S
C897 C898 1.349 . S
C897 C899 1.327 . S
C897 H920 0.950 . S
C898 C897 1.349 . S
C898 C910 1.349 . S
C899 C897 1.327 . S
C899 C915 1.429 . S
C899 H921 0.950 . S
C900 H896 0.949 . S
C900 C908 1.574 . S
C900 C916 1.368 . S
H901 C909 0.950 . S
H902 C907 0.950 . S
H903 C908 0.949 . S
H904 C910 0.950 . S
H905 C911 0.950 . S
H906 C912 0.949 . S
C907 H902 0.950 . S
C907 C909 1.327 . S
C907 C913 1.429 . S
C908 C900 1.574 . S
C908 H903 0.949 . S
C908 C914 1.368 . S
C909 C893 1.349 . S
C909 H901 0.950 . S
C909 C907 1.327 . S
C910 C898 1.349 . S
C910 H904 0.950 . S
C910 C911 1.327 . S
C911 H905 0.950 . S
C911 C910 1.327 . S
C911 C915 1.429 . S
C912 C895 1.574 . S
C912 H906 0.949 . S
C912 C916 1.368 . S
C913 C894 1.429 . S
C913 C907 1.429 . S
C913 C914 1.523 . S
C914 C895 1.368 . S
C914 C908 1.368 . S
C914 C913 1.523 . S
C915 C899 1.429 . S
C915 C911 1.429 . S
C915 C916 1.523 . S
C916 C900 1.368 . S
C916 C912 1.368 . S
C916 C915 1.523 . S
H917 C892 0.950 . S
H918 C894 0.950 . S
H919 C895 0.949 . S
H920 C897 0.950 . S
H921 C899 0.950 . S
C922 C923 1.349 . S
C922 C924 1.327 . S
C922 H947 0.950 . S
C923 C922 1.349 . S
C923 C939 1.349 . S
C924 C922 1.327 . S
C924 C943 1.429 . S
C924 H948 0.950 . S
C925 C942 1.574 . S
C925 C944 1.368 . S
C925 H949 0.949 . S
H926 C930 0.949 . S
C927 C928 1.349 . S
C927 C929 1.327 . S
C927 H950 0.950 . S
C928 C927 1.349 . S
C928 C940 1.349 . S
C929 C927 1.327 . S
C929 C945 1.429 . S
C929 H951 0.950 . S
C930 H926 0.949 . S
C930 C938 1.574 . S
C930 C946 1.368 . S
H931 C939 0.950 . S
H932 C937 0.950 . S
H933 C938 0.949 . S
H934 C940 0.950 . S
H935 C941 0.950 . S
H936 C942 0.949 . S
C937 H932 0.950 . S
C937 C939 1.327 . S
C937 C943 1.429 . S
C938 C930 1.574 . S
C938 H933 0.949 . S
C938 C944 1.368 . S
C939 C923 1.349 . S
C939 H931 0.950 . S
C939 C937 1.327 . S
C940 C928 1.349 . S
C940 H934 0.950 . S
C940 C941 1.327 . S
C941 H935 0.950 . S
C941 C940 1.327 . S
C941 C945 1.429 . S
C942 C925 1.574 . S
C942 H936 0.949 . S
C942 C946 1.368 . S
C943 C924 1.429 . S
C943 C937 1.429 . S
C943 C944 1.523 . S
C944 C925 1.368 . S
C944 C938 1.368 . S
C944 C943 1.523 . S
C945 C929 1.429 . S
C945 C941 1.429 . S
C945 C946 1.523 . S
C946 C930 1.368 . S
C946 C942 1.368 . S
C946 C945 1.523 . S
H947 C922 0.950 . S
H948 C924 0.950 . S
H949 C925 0.949 . S
H950 C927 0.950 . S
H951 C929 0.950 . S
C233 C125 1.543 . S
C238 C153 1.685 . S
C268 C188 1.638 . S
C263 C144 1.506 . S
C298 C193 1.360 . S
C293 C87 1.274 . S
C328 C213 1.446 . S
C323 C106 1.319 . S
C358 C161 1.684 1_565 S
C353 C49 1.636 . S
C383 C68 1.609 1_556 S
C388 C178 1.638 . S
C413 C11 1.317 1_556 S
C418 C201 1.361 . S
C443 C30 1.386 . S
C448 C221 1.446 1_655 S
C478 C171 1.233 . S
C473 C97 1.204 . S
C508 C180 0.935 . S
C503 C116 0.921 . S
C538 C211 1.316 . S
C533 C135 1.290 . S
C563 C78 0.945 . S
C568 C231 0.953 . S
C593 C21 1.205 . S
C598 C160 1.231 1_655 S
C628 C191 0.936 1_565 S
C623 C40 0.922 1_556 S
C658 C200 1.316 . S
C653 C59 1.292 1_556 S
C683 C2 0.945 1_556 S
C688 C220 0.953 . S
C713 C101 1.448 . S
C718 C158 1.460 . S
C743 C120 1.432 . S
C748 C181 1.479 . S
C778 C198 1.583 . S
C773 C139 1.544 . S
C808 C218 1.627 . S
C803 C82 1.605 . S
C833 C25 1.451 . S
C838 C168 1.460 . S
C868 C173 1.478 1_565 S
C863 C44 1.436 . S
C898 C208 1.583 . S
C893 C63 1.549 . S
C923 C6 1.607 . S
C928 C228 1.627 . S
