# Generated by pormake.
# Topology tsx, (6,3)-cn, num edge types: 1
# Building blocks:
#     Node 0, Type 0, BuildingBlock: FUNLAD_clean_sbu_0, # of connection points: 6
#     Node 1, Type 0, BuildingBlock: FUNLAD_clean_sbu_0, # of connection points: 6
#     Node 2, Type 1, BuildingBlock: PAMTOO_clean_linker_0, # of connection points: 3
#     Node 3, Type 1, BuildingBlock: PAMTOO_clean_linker_0, # of connection points: 3
#     Node 4, Type 1, BuildingBlock: PAMTOO_clean_linker_0, # of connection points: 3
#     Node 5, Type 1, BuildingBlock: PAMTOO_clean_linker_0, # of connection points: 3
#     Edge 6, Type (0, 1), BuildingBlock: CIFDUS_clean_linker_0, # of connection points: 2
#     Edge 7, Type (0, 1), BuildingBlock: CIFDUS_clean_linker_0, # of connection points: 2
#     Edge 8, Type (0, 1), BuildingBlock: CIFDUS_clean_linker_0, # of connection points: 2
#     Edge 9, Type (0, 1), BuildingBlock: CIFDUS_clean_linker_0, # of connection points: 2
#     Edge 10, Type (0, 1), BuildingBlock: CIFDUS_clean_linker_0, # of connection points: 2
#     Edge 11, Type (0, 1), BuildingBlock: CIFDUS_clean_linker_0, # of connection points: 2
#     Edge 12, Type (0, 1), BuildingBlock: CIFDUS_clean_linker_0, # of connection points: 2
#     Edge 13, Type (0, 1), BuildingBlock: CIFDUS_clean_linker_0, # of connection points: 2
#     Edge 14, Type (0, 1), BuildingBlock: CIFDUS_clean_linker_0, # of connection points: 2
#     Edge 15, Type (0, 1), BuildingBlock: CIFDUS_clean_linker_0, # of connection points: 2
#     Edge 16, Type (0, 1), BuildingBlock: CIFDUS_clean_linker_0, # of connection points: 2
#     Edge 17, Type (0, 1), BuildingBlock: CIFDUS_clean_linker_0, # of connection points: 2
# Relax obj value: 0.128
# Max RMSD: 0.133
# Mean RMSD: 0.121
data_MOF--net-tsx--node1-FUNLAD_clean_sbu_0--node2-PAMTOO_clean_linker_0--edge1-CIFDUS_clean_linker_0
_symmetry_space_group_name_H-M    P1
_symmetry_Int_Tables_number       1
_symmetry_cell_setting            triclinic
loop_
_symmetry_equiv_pos_as_xyz
'x, y, z'
_cell_length_a     16.63725
_cell_length_b     18.49071
_cell_length_c     35.922309
_cell_angle_alpha  82.541251
_cell_angle_beta   91.027052
_cell_angle_gamma 90.387652
loop_
_atom_site_label
_atom_site_type_symbol
_atom_site_fract_x
_atom_site_fract_y
_atom_site_fract_z
_atom_type_partial_charge
C0 C 0.9715 1.00001 0.9735 0.0
N1 N 0.08462 0.07875 0.06377 0.0
C2 C 1.00835 0.07461 0.07707 0.0
C3 C 0.99496 0.06222 0.11545 0.0
C4 C 0.06052 0.05533 0.14047 0.0
C5 C 0.13875 0.06211 0.12646 0.0
C6 C 0.14959 0.07355 0.08755 0.0
Zn7 Zn 0.09417 0.09216 0.00667 0.0
C8 C 0.20597 0.99131 0.97665 0.0
N9 N 0.09823 0.1228 0.88729 0.0
C10 C 0.02821 0.13246 0.86714 0.0
C11 C 0.16921 0.1134 0.8703 0.0
C12 C 0.17081 0.10937 0.83181 0.0
C13 C 0.09901 0.11689 0.81074 0.0
C14 C 0.0274 0.13047 0.82848 0.0
Zn15 Zn 0.09386 0.11103 0.94433 0.0
O16 O 1.00172 0.01579 0.00402 0.0
C17 C 0.98193 0.21177 0.97247 0.0
O18 O 0.99825 0.03116 0.94251 0.0
H19 H 0.22425 0.10629 0.8868 0.0
H20 H 0.95734 0.07987 0.05788 0.0
H21 H 0.97235 0.13891 0.88126 0.0
O22 O 1.00623 0.17736 0.00353 0.0
O23 O 1.00987 0.1957 0.94201 0.0
H24 H 0.20961 0.07726 0.07635 0.0
O25 O 0.18911 0.18872 0.94714 0.0
O26 O 0.1876 0.16962 0.00877 0.0
O27 O 0.17783 0.02761 0.94698 0.0
O28 O 0.18179 1.00515 0.00845 0.0
C29 C 0.21705 0.2025 0.97874 0.0
H30 H 0.9339 0.05716 0.12552 0.0
H31 H 0.19053 0.05644 0.1453 0.0
H32 H 0.22712 0.09922 0.81875 0.0
H33 H 0.97092 0.13603 0.81291 0.0
C34 C 0.34229 0.40477 0.48251 0.0
N35 N 0.45008 0.48123 0.57571 0.0
C36 C 0.37674 0.49447 0.58961 0.0
C37 C 0.36762 0.49628 0.62798 0.0
C38 C 0.43413 0.4824 0.65217 0.0
C39 C 0.50798 0.46472 0.63752 0.0
C40 C 0.5149 0.4651 0.59884 0.0
Zn41 Zn 0.46342 0.49507 0.519 0.0
C42 C 0.57404 0.38713 0.49207 0.0
N43 N 0.48204 0.52512 0.4007 0.0
C44 C 0.41637 0.53775 0.37771 0.0
C45 C 0.55774 0.52927 0.38688 0.0
C46 C 0.56981 0.54795 0.3486 0.0
C47 C 0.50333 0.56284 0.32431 0.0
C48 C 0.42574 0.55706 0.33916 0.0
Zn49 Zn 0.46985 0.50739 0.45724 0.0
O50 O 0.36419 0.4264 0.51328 0.0
C51 C 0.35642 0.61265 0.48281 0.0
O52 O 0.37911 0.42727 0.45251 0.0
H53 H 0.6091 0.51975 0.40571 0.0
H54 H 0.32574 0.50636 0.57079 0.0
H55 H 0.35678 0.53418 0.38936 0.0
O56 O 0.38471 0.58683 0.51478 0.0
O57 O 0.38116 0.58821 0.45371 0.0
H58 H 0.57266 0.45523 0.58716 0.0
O59 O 0.56113 0.58746 0.46277 0.0
O60 O 0.56242 0.56465 0.52416 0.0
O61 O 0.5564 0.42532 0.46111 0.0
O62 O 0.54235 0.40253 0.52209 0.0
C63 C 0.59067 0.59912 0.49434 0.0
H64 H 0.30986 0.51003 0.63855 0.0
H65 H 0.56064 0.45446 0.65557 0.0
H66 H 0.63062 0.55256 0.33825 0.0
H67 H 0.37299 0.56736 0.32119 0.0
H68 H 0.07094 0.90714 0.35769 0.0
H69 H 0.92384 0.09026 0.37405 0.0
H70 H 0.97169 0.92184 0.4659 0.0
H71 H 0.80467 0.99694 0.47413 0.0
C72 C 0.81697 0.03674 0.44902 0.0
O73 O 0.89893 0.04678 0.44541 0.0
H74 H 0.79036 0.01375 0.42435 0.0
C75 C 0.03405 0.93534 0.37577 0.0
C76 C 0.02587 0.90656 0.41353 0.0
C77 C 0.99705 1.00094 0.36109 0.0
C78 C 0.95265 0.03931 0.38491 0.0
C79 C 0.94317 1.01053 0.42272 0.0
C80 C 0.97967 0.94422 0.43691 0.0
H81 H 0.16781 0.08984 0.58947 0.0
H82 H 0.02482 0.89598 0.61544 0.0
H83 H 0.06145 0.98596 0.50044 0.0
H84 H 0.8949 0.9454 0.51876 0.0
C85 C 0.90508 0.90268 0.54301 0.0
O86 O 0.98566 0.88517 0.54571 0.0
H87 H 0.88599 0.92595 0.56855 0.0
C88 C 0.13308 0.04532 0.58028 0.0
C89 C 0.12023 0.04288 0.54183 0.0
C90 C 0.09923 0.9927 0.60703 0.0
C91 C 0.05392 0.93558 0.59508 0.0
C92 C 0.03973 0.93329 0.55665 0.0
C93 C 0.07416 0.98627 0.52999 0.0
H94 H 0.62624 0.43191 0.86614 0.0
H95 H 0.43194 0.58151 0.87516 0.0
H96 H 0.62848 0.56653 0.9548 0.0
H97 H 0.44043 0.57542 0.98249 0.0
C98 C 0.4244 0.61594 0.95811 0.0
O99 O 0.49017 0.63014 0.93524 0.0
H100 H 0.37475 0.59247 0.94226 0.0
C101 C 0.59674 0.47195 0.88066 0.0
C102 C 0.6342 0.49367 0.91255 0.0
C103 C 0.52387 0.50321 0.86663 0.0
C104 C 0.48826 0.55666 0.88539 0.0
C105 C 0.52483 0.57818 0.91771 0.0
C106 C 0.59866 0.54765 0.93084 0.0
H107 H 0.67655 0.72234 0.10851 0.0
H108 H 0.54271 0.52669 0.09879 0.0
H109 H 0.62772 0.65586 -0.00074 0.0
H110 H 0.61529 0.44893 0.05122 0.0
C111 C 0.57857 0.46746 0.02554 0.0
O112 O 0.54862 0.53659 0.02645 0.0
H113 H 0.61902 0.46828 0.00154 0.0
C114 C 0.64947 0.68525 0.09084 0.0
C115 C 0.65636 0.69849 0.05145 0.0
C116 C 0.60943 0.62319 0.10783 0.0
C117 C 0.5749 0.57428 0.08575 0.0
C118 C 0.58299 0.58509 0.04689 0.0
C119 C 0.62382 0.64695 0.02955 0.0
H120 H 0.28651 0.24496 0.04151 0.0
H121 H 0.29845 0.27911 0.92052 0.0
H122 H 0.4108 0.36404 0.92423 0.0
H123 H 0.50685 0.42726 0.96208 0.0
H124 H 0.49395 0.39352 0.08273 0.0
H125 H 0.38039 0.3097 0.07901 0.0
C126 C 0.31349 0.27094 0.01589 0.0
C127 C 0.28403 0.25539 0.98079 0.0
C128 C 0.37809 0.31953 0.01822 0.0
C129 C 0.31982 0.28992 0.94793 0.0
C130 C 0.38416 0.33848 0.95001 0.0
C131 C 0.47937 0.40126 -0.01254 0.0
C132 C 0.50963 0.41516 0.02265 0.0
C133 C 0.41404 0.35338 -0.01498 0.0
C134 C 0.47244 0.38237 0.0554 0.0
C135 C 0.40751 0.33471 0.05325 0.0
H136 H 0.23967 0.86732 0.02554 0.0
H137 H 0.30118 0.98271 0.91743 0.0
H138 H 0.37903 0.87934 0.9034 0.0
H139 H 0.41779 0.75188 0.91843 0.0
H140 H 0.35836 0.63343 0.02575 0.0
H141 H 0.29174 0.7416 0.04344 0.0
C142 C 0.27156 0.87019 -0.00068 0.0
C143 C 0.26369 0.93237 0.97244 0.0
C144 C 0.31592 0.8096 -0.00897 0.0
C145 C 0.30522 0.9352 0.93847 0.0
C146 C 0.34982 0.87602 0.93031 0.0
C147 C 0.39198 0.75025 0.94605 0.0
C148 C 0.39395 0.68518 0.97095 0.0
C149 C 0.35371 0.81227 0.95586 0.0
C150 C 0.35841 0.68335 0.00629 0.0
C151 C 0.32012 0.74509 0.01634 0.0
H152 H 0.84238 0.99575 0.01691 0.0
H153 H 0.95686 0.88108 0.93553 0.0
H154 H 0.86367 0.77784 0.9501 0.0
H155 H 0.7606 0.71503 -0.00781 0.0
H156 H 0.64435 0.83498 0.07144 0.0
H157 H 0.72702 0.94134 0.05142 0.0
C158 C 0.84564 0.9487 0.0018 0.0
C159 C 0.90624 0.94541 0.97542 0.0
C160 C 0.79237 0.89014 0.01039 0.0
C161 C 0.91009 0.8847 0.9558 0.0
C162 C 0.85732 0.82555 0.9644 0.0
C163 C 0.75216 0.76491 0.00449 0.0
C164 C 0.6979 0.76603 0.03417 0.0
C165 C 0.79974 0.82676 -0.00746 0.0
C166 C 0.68751 0.83153 0.04953 0.0
C167 C 0.73443 0.8927 0.03794 0.0
H168 H 0.97015 0.34017 0.92721 0.0
H169 H 0.84769 0.20238 0.01459 0.0
H170 H 0.72932 0.28122 0.00562 0.0
H171 H 0.65596 0.38033 0.96724 0.0
H172 H 0.7814 0.52454 0.88378 0.0
H173 H 0.90376 0.45157 0.89629 0.0
C174 C 0.91795 0.32841 0.94469 0.0
C175 C 0.91686 0.26557 0.97125 0.0
C176 C 0.85095 0.37464 0.93984 0.0
C177 C 0.84958 0.25075 -0.00595 0.0
C178 C 0.78188 0.29548 -0.01123 0.0
C179 C 0.71125 0.39805 0.95334 0.0
C180 C 0.71093 0.45899 0.92562 0.0
C181 C 0.7813 0.35661 0.96117 0.0
C182 C 0.78137 0.47863 0.90584 0.0
C183 C 0.8509 0.43671 0.91282 0.0
H184 H 0.6748 0.62801 0.55634 0.0
H185 H 0.65149 0.69389 0.43686 0.0
H186 H 0.75092 0.79045 0.44091 0.0
H187 H 0.83821 0.86102 0.47905 0.0
H188 H 0.86115 0.79564 0.59831 0.0
H189 H 0.7688 0.69325 0.59369 0.0
C190 C 0.69172 0.66321 0.53113 0.0
C191 C 0.65508 0.65416 0.49643 0.0
C192 C 0.74875 0.71873 0.53365 0.0
C193 C 0.67841 0.69983 0.46398 0.0
C194 C 0.73523 0.75515 0.46625 0.0
C195 C 0.82334 0.82393 0.5039 0.0
C196 C 0.85495 0.83616 0.53908 0.0
C197 C 0.76983 0.76581 0.50102 0.0
C198 C 0.83643 0.78736 0.57106 0.0
C199 C 0.78366 0.72913 0.56842 0.0
H200 H 0.64848 0.34415 0.43236 0.0
H201 H 0.61625 0.28433 0.55139 0.0
H202 H 0.69177 0.17179 0.54898 0.0
H203 H 0.76049 0.08717 0.51201 0.0
H204 H 0.78828 0.14723 0.39293 0.0
H205 H 0.721 0.2634 0.39636 0.0
C206 C 0.65829 0.3069 0.45793 0.0
C207 C 0.62624 0.32253 0.492 0.0
C208 C 0.70047 0.24213 0.45621 0.0
C209 C 0.64012 0.27364 0.5248 0.0
C210 C 0.68304 0.20916 0.5234 0.0
C211 C 0.75165 0.12593 0.48692 0.0
C212 C 0.77779 0.10864 0.45211 0.0
C213 C 0.71232 0.19229 0.48912 0.0
C214 C 0.76753 0.1594 0.41984 0.0
C215 C 0.72923 0.22563 0.42183 0.0
H216 H 0.34353 0.27507 0.45491 0.0
H217 H 0.19765 0.41372 0.51358 0.0
H218 H 0.10327 0.31365 0.53031 0.0
H219 H 0.07832 0.1826 0.53897 0.0
H220 H 0.23039 0.03937 0.48651 0.0
H221 H 0.30551 0.14484 0.45577 0.0
C222 C 0.28947 0.28358 0.47019 0.0
C223 C 0.27702 0.35103 0.48317 0.0
C224 C 0.23756 0.22463 0.48126 0.0
C225 C 0.2079 0.36187 0.50347 0.0
C226 C 0.15434 0.30469 0.51318 0.0
C227 C 0.12651 0.17496 0.51989 0.0
C228 C 0.14999 0.1041 0.5152 0.0
C229 C 0.17088 0.23515 0.50386 0.0
C230 C 0.21184 0.0939 0.49041 0.0
C231 C 0.25505 0.15406 0.4732 0.0
H232 H 0.23621 0.62519 0.43179 0.0
H233 H 0.33205 0.72164 0.52625 0.0
H234 H 0.23022 0.81813 0.51602 0.0
H235 H 0.1229 0.88103 0.47572 0.0
H236 H 0.02634 0.78035 0.38265 0.0
H237 H 0.11881 0.67843 0.3972 0.0
C238 C 0.23456 0.66724 0.45022 0.0
C239 C 0.29227 0.66766 0.47913 0.0
C240 C 0.1757 0.72138 0.44446 0.0
C241 C 0.28847 0.721 0.50352 0.0
C242 C 0.23039 0.77599 0.49767 0.0
C243 C 0.12071 0.83577 0.45936 0.0
C244 C 0.06888 0.83855 0.42784 0.0
C245 C 0.17472 0.77753 0.46769 0.0
C246 C 0.06673 0.77974 0.40669 0.0
C247 C 0.11967 0.72166 0.4149 0.0
H248 H 0.08262 0.13984 0.19636 0.0
H249 H 1.00305 0.92738 0.17371 0.0
H250 H 0.97143 0.89348 0.23991 0.0
H251 H 0.96815 0.92354 0.30399 0.0
H252 H 0.04508 0.13587 0.32798 0.0
H253 H 0.07415 0.17183 0.2613 0.0
C254 C 0.05891 0.08613 0.20625 0.0
C255 C 0.04599 0.03554 0.18076 0.0
C256 C 0.03947 0.06761 0.24425 0.0
C257 C 0.01395 0.96653 0.19325 0.0
C258 C 0.9956 0.94737 0.23091 0.0
C259 C 0.99097 0.97782 0.29452 0.0
C260 C 1.00506 0.02693 0.32064 0.0
C261 C 1.00817 0.99742 0.25659 0.0
C262 C 0.03344 0.09744 0.30817 0.0
C263 C 0.05071 0.11764 0.27021 0.0
H264 H 0.14474 0.99669 0.78156 0.0
H265 H 0.04767 0.21228 0.75142 0.0
H266 H 0.03995 0.19256 0.68531 0.0
H267 H 0.05896 0.11331 0.63664 0.0
H268 H 0.14919 0.89518 0.66658 0.0
H269 H 0.16075 0.91581 0.73264 0.0
C270 C 0.12262 0.03933 0.76031 0.0
C271 C 0.09756 0.10605 0.77086 0.0
C272 C 0.11658 0.02682 0.72269 0.0
C273 C 0.06748 0.16072 0.74358 0.0
C274 C 0.063 0.14939 0.70596 0.0
C275 C 0.08153 0.0705 0.65769 0.0
C276 C 0.10404 1.00315 0.64704 0.0
C277 C 0.08706 0.08259 0.69529 0.0
C278 C 0.13162 0.94739 0.6744 0.0
C279 C 0.13848 0.95933 0.71199 0.0
H280 H 0.46196 0.383 0.71314 0.0
H281 H 0.39642 0.60723 0.67941 0.0
H282 H 0.40895 0.63234 0.74451 0.0
H283 H 0.45586 0.59381 0.80906 0.0
H284 H 0.51528 0.36785 0.84362 0.0
H285 H 0.48718 0.33983 0.78015 0.0
C286 C 0.44915 0.43688 0.72036 0.0
C287 C 0.4292 0.49346 0.6919 0.0
C288 C 0.45612 0.4507 0.75776 0.0
C289 C 0.41189 0.56305 0.70117 0.0
C290 C 0.41939 0.57742 0.73825 0.0
C291 C 0.4604 0.53801 0.80308 0.0
C292 C 0.48972 0.48346 0.83082 0.0
C293 C 0.44377 0.52214 0.76659 0.0
C294 C 0.49523 0.41138 0.82244 0.0
C295 C 0.47897 0.3952 0.7862 0.0
H296 H 0.60329 0.50128 0.27901 0.0
H297 H 0.43037 0.67407 0.27895 0.0
H298 H 0.45172 0.71132 0.21197 0.0
H299 H 0.51816 0.69288 0.15305 0.0
H300 H 0.68702 0.51737 0.15311 0.0
H301 H 0.67035 0.48371 0.22078 0.0
C302 C 0.57084 0.54747 0.26437 0.0
C303 C 0.51542 0.58491 0.28375 0.0
C304 C 0.58324 0.56829 0.22603 0.0
C305 C 0.47272 0.64394 0.26441 0.0
C306 C 0.48528 0.66554 0.22625 0.0
C307 C 0.55176 0.64796 0.16822 0.0
C308 C 0.60418 0.60784 0.1488 0.0
C309 C 0.54024 0.62798 0.20676 0.0
C310 C 0.64683 0.54894 0.16803 0.0
C311 C 0.63703 0.52964 0.20649 0.0
loop_
_geom_bond_atom_site_label_1
_geom_bond_atom_site_label_2
_geom_bond_distance
_geom_bond_site_symmetry_2
_ccdc_geom_bond_type
C0 O16 1.251 . S
C0 O18 1.254 1_554 S
N1 C2 1.333 1_445 S
N1 C6 1.307 . S
N1 Zn7 2.020 . S
C2 N1 1.333 1_665 S
C2 C3 1.379 . S
C2 H20 0.952 . S
C3 C2 1.379 . S
C3 C4 1.393 1_655 S
C3 H30 0.949 . S
C4 C3 1.393 1_455 S
C4 C5 1.355 1_565 S
C5 C4 1.355 1_545 S
C5 C6 1.370 . S
C5 H31 0.950 . S
C6 N1 1.307 . S
C6 C5 1.370 . S
C6 H24 0.948 . S
Zn7 N1 2.020 . S
Zn7 O16 2.039 1_445 S
Zn7 O22 2.034 1_455 S
Zn7 O26 2.025 . S
Zn7 O28 2.024 1_545 S
C8 O27 1.246 1_554 S
C8 O28 1.249 . S
N9 C10 1.307 1_455 S
N9 C11 1.333 . S
N9 Zn15 2.020 . S
C10 N9 1.307 1_655 S
C10 C14 1.370 . S
C10 H21 0.948 . S
C11 N9 1.333 . S
C11 C12 1.379 . S
C11 H19 0.952 . S
C12 C11 1.379 . S
C12 C13 1.390 . S
C12 H32 0.949 . S
C13 C12 1.390 . S
C13 C14 1.357 1_455 S
C14 C10 1.370 . S
C14 C13 1.357 1_655 S
C14 H33 0.950 . S
Zn15 N9 2.020 . S
Zn15 O18 2.025 1_445 S
Zn15 O23 2.024 1_455 S
Zn15 O25 2.039 . S
Zn15 O27 2.034 1_545 S
O16 C0 1.251 . S
O16 Zn7 2.039 1_665 S
C17 O22 1.246 1_556 S
C17 O23 1.249 . S
O18 C0 1.254 1_556 S
O18 Zn15 2.025 1_665 S
H19 C11 0.952 . S
H20 C2 0.952 . S
H21 C10 0.948 . S
O22 Zn7 2.034 1_655 S
O22 C17 1.246 1_554 S
O23 Zn15 2.024 1_655 S
O23 C17 1.249 . S
H24 C6 0.948 . S
O25 Zn15 2.039 . S
O25 C29 1.251 . S
O26 Zn7 2.025 . S
O26 C29 1.254 1_554 S
O27 C8 1.246 1_556 S
O27 Zn15 2.034 1_565 S
O28 Zn7 2.024 1_565 S
O28 C8 1.249 . S
C29 O25 1.251 . S
C29 O26 1.254 1_556 S
H30 C3 0.949 . S
H31 C5 0.950 . S
H32 C12 0.949 . S
H33 C14 0.950 . S
C34 O50 1.251 . S
C34 O52 1.254 . S
N35 C36 1.333 . S
N35 C40 1.307 . S
N35 Zn41 2.020 . S
C36 N35 1.333 . S
C36 C37 1.379 . S
C36 H54 0.952 . S
C37 C36 1.379 . S
C37 C38 1.390 . S
C37 H64 0.949 . S
C38 C37 1.390 . S
C38 C39 1.357 . S
C39 C38 1.357 . S
C39 C40 1.370 . S
C39 H65 0.950 . S
C40 N35 1.307 . S
C40 C39 1.370 . S
C40 H58 0.948 . S
Zn41 N35 2.020 . S
Zn41 O50 2.039 . S
Zn41 O56 2.034 . S
Zn41 O60 2.025 . S
Zn41 O62 2.024 . S
C42 O61 1.246 . S
C42 O62 1.249 . S
N43 C44 1.307 . S
N43 C45 1.333 . S
N43 Zn49 2.020 . S
C44 N43 1.307 . S
C44 C48 1.370 . S
C44 H55 0.948 . S
C45 N43 1.333 . S
C45 C46 1.379 . S
C45 H53 0.952 . S
C46 C45 1.379 . S
C46 C47 1.390 . S
C46 H66 0.949 . S
C47 C46 1.390 . S
C47 C48 1.357 . S
C48 C44 1.370 . S
C48 C47 1.357 . S
C48 H67 0.950 . S
Zn49 N43 2.020 . S
Zn49 O52 2.025 . S
Zn49 O57 2.024 . S
Zn49 O59 2.039 . S
Zn49 O61 2.034 . S
O50 C34 1.251 . S
O50 Zn41 2.039 . S
C51 O56 1.246 . S
C51 O57 1.249 . S
O52 C34 1.254 . S
O52 Zn49 2.025 . S
H53 C45 0.952 . S
H54 C36 0.952 . S
H55 C44 0.948 . S
O56 Zn41 2.034 . S
O56 C51 1.246 . S
O57 Zn49 2.024 . S
O57 C51 1.249 . S
H58 C40 0.948 . S
O59 Zn49 2.039 . S
O59 C63 1.251 . S
O60 Zn41 2.025 . S
O60 C63 1.254 . S
O61 C42 1.246 . S
O61 Zn49 2.034 . S
O62 Zn41 2.024 . S
O62 C42 1.249 . S
C63 O59 1.251 . S
C63 O60 1.254 . S
H64 C37 0.949 . S
H65 C39 0.950 . S
H66 C46 0.949 . S
H67 C48 0.950 . S
H68 C75 0.929 . S
H69 C78 0.930 . S
H70 C80 0.929 . S
H71 C72 0.969 . S
C72 H71 0.969 . S
C72 O73 1.550 . S
C72 H74 0.973 . S
O73 C72 1.550 . S
O73 C79 1.412 . S
H74 C72 0.973 . S
C75 H68 0.929 . S
C75 C76 1.400 . S
C75 C77 1.364 . S
C76 C75 1.400 . S
C76 C80 1.377 . S
C77 C75 1.364 . S
C77 C78 1.374 1_465 S
C78 H69 0.930 . S
C78 C77 1.374 1_645 S
C78 C79 1.383 . S
C79 O73 1.412 . S
C79 C78 1.383 . S
C79 C80 1.394 1_645 S
C80 H70 0.929 . S
C80 C76 1.377 . S
C80 C79 1.394 1_465 S
H81 C88 0.929 . S
H82 C91 0.930 1_565 S
H83 C93 0.929 . S
H84 C85 0.969 . S
C85 H84 0.969 . S
C85 O86 1.550 . S
C85 H87 0.973 . S
O86 C85 1.550 . S
O86 C92 1.412 1_565 S
H87 C85 0.973 . S
C88 H81 0.929 . S
C88 C89 1.400 . S
C88 C90 1.364 . S
C89 C88 1.400 . S
C89 C93 1.377 . S
C90 C88 1.364 . S
C90 C91 1.374 1_455 S
C91 H82 0.930 1_545 S
C91 C90 1.374 1_655 S
C91 C92 1.383 . S
C92 O86 1.412 1_545 S
C92 C91 1.383 . S
C92 C93 1.394 1_655 S
C93 H83 0.929 . S
C93 C89 1.377 . S
C93 C92 1.394 1_455 S
H94 C101 0.929 . S
H95 C104 0.930 . S
H96 C106 0.929 1_554 S
H97 C98 0.969 . S
C98 H97 0.969 . S
C98 O99 1.550 . S
C98 H100 0.973 . S
O99 C98 1.550 . S
O99 C105 1.412 . S
H100 C98 0.973 . S
C101 H94 0.929 . S
C101 C102 1.400 . S
C101 C103 1.364 . S
C102 C101 1.400 . S
C102 C106 1.377 . S
C103 C101 1.364 . S
C103 C104 1.374 . S
C104 H95 0.930 . S
C104 C103 1.374 . S
C104 C105 1.383 . S
C105 O99 1.412 . S
C105 C104 1.383 . S
C105 C106 1.394 . S
C106 H96 0.929 1_556 S
C106 C102 1.377 . S
C106 C105 1.394 . S
H107 C114 0.929 . S
H108 C117 0.930 . S
H109 C119 0.929 1_556 S
H110 C111 0.969 . S
C111 H110 0.969 . S
C111 O112 1.550 . S
C111 H113 0.973 . S
O112 C111 1.550 . S
O112 C118 1.412 . S
H113 C111 0.973 . S
C114 H107 0.929 . S
C114 C115 1.400 . S
C114 C116 1.364 . S
C115 C114 1.400 . S
C115 C119 1.377 . S
C116 C114 1.364 . S
C116 C117 1.374 . S
C117 H108 0.930 . S
C117 C116 1.374 . S
C117 C118 1.383 . S
C118 O112 1.412 . S
C118 C117 1.383 . S
C118 C119 1.394 . S
C119 H109 0.929 1_554 S
C119 C115 1.377 . S
C119 C118 1.394 . S
H120 C126 0.930 . S
H121 C129 0.930 . S
H122 C130 0.930 . S
H123 C131 0.930 . S
H124 C134 0.930 . S
H125 C135 0.930 . S
C126 H120 0.930 . S
C126 C127 1.355 1_554 S
C126 C128 1.415 . S
C127 C126 1.355 1_556 S
C127 C129 1.419 . S
C128 C126 1.415 . S
C128 C133 1.425 1_554 S
C128 C135 1.409 . S
C129 H121 0.930 . S
C129 C127 1.419 . S
C129 C130 1.362 . S
C130 H122 0.930 . S
C130 C129 1.362 . S
C130 C133 1.409 . S
C131 H123 0.930 . S
C131 C132 1.355 1_556 S
C131 C133 1.415 . S
C132 C131 1.355 1_554 S
C132 C134 1.419 . S
C133 C128 1.425 1_556 S
C133 C130 1.409 . S
C133 C131 1.415 . S
C134 H124 0.930 . S
C134 C132 1.419 . S
C134 C135 1.362 . S
C135 H125 0.930 . S
C135 C128 1.409 . S
C135 C134 1.362 . S
H136 C142 0.930 . S
H137 C145 0.930 . S
H138 C146 0.930 . S
H139 C147 0.930 . S
H140 C150 0.930 . S
H141 C151 0.930 . S
C142 H136 0.930 . S
C142 C143 1.355 . S
C142 C144 1.415 . S
C143 C142 1.355 . S
C143 C145 1.419 1_554 S
C144 C142 1.415 . S
C144 C149 1.425 1_554 S
C144 C151 1.409 . S
C145 H137 0.930 . S
C145 C143 1.419 1_556 S
C145 C146 1.362 . S
C146 H138 0.930 . S
C146 C145 1.362 . S
C146 C149 1.409 . S
C147 H139 0.930 . S
C147 C148 1.355 1_556 S
C147 C149 1.415 . S
C148 C147 1.355 1_554 S
C148 C150 1.419 . S
C149 C144 1.425 1_556 S
C149 C146 1.409 . S
C149 C147 1.415 . S
C150 H140 0.930 . S
C150 C148 1.419 . S
C150 C151 1.362 . S
C151 H141 0.930 . S
C151 C144 1.409 . S
C151 C150 1.362 . S
H152 C158 0.930 . S
H153 C161 0.930 . S
H154 C162 0.930 . S
H155 C163 0.930 . S
H156 C166 0.930 . S
H157 C167 0.930 . S
C158 H152 0.930 . S
C158 C159 1.355 . S
C158 C160 1.415 . S
C159 C158 1.355 . S
C159 C161 1.419 1_554 S
C160 C158 1.415 . S
C160 C165 1.425 1_554 S
C160 C167 1.409 . S
C161 H153 0.930 . S
C161 C159 1.419 1_556 S
C161 C162 1.362 . S
C162 H154 0.930 . S
C162 C161 1.362 . S
C162 C165 1.409 . S
C163 H155 0.930 . S
C163 C164 1.355 1_556 S
C163 C165 1.415 . S
C164 C163 1.355 1_554 S
C164 C166 1.419 . S
C165 C160 1.425 1_556 S
C165 C162 1.409 . S
C165 C163 1.415 . S
C166 H156 0.930 . S
C166 C164 1.419 . S
C166 C167 1.362 . S
C167 H157 0.930 . S
C167 C160 1.409 . S
C167 C166 1.362 . S
H168 C174 0.930 . S
H169 C177 0.930 . S
H170 C178 0.930 . S
H171 C179 0.930 . S
H172 C182 0.930 . S
H173 C183 0.930 . S
C174 H168 0.930 . S
C174 C175 1.355 1_554 S
C174 C176 1.415 . S
C175 C174 1.355 1_556 S
C175 C177 1.419 . S
C176 C174 1.415 . S
C176 C181 1.425 1_554 S
C176 C183 1.409 . S
C177 H169 0.930 . S
C177 C175 1.419 . S
C177 C178 1.362 . S
C178 H170 0.930 . S
C178 C177 1.362 . S
C178 C181 1.409 . S
C179 H171 0.930 . S
C179 C180 1.355 . S
C179 C181 1.415 . S
C180 C179 1.355 . S
C180 C182 1.419 1_556 S
C181 C176 1.425 1_556 S
C181 C178 1.409 . S
C181 C179 1.415 . S
C182 H172 0.930 . S
C182 C180 1.419 1_554 S
C182 C183 1.362 . S
C183 H173 0.930 . S
C183 C176 1.409 . S
C183 C182 1.362 . S
H184 C190 0.930 . S
H185 C193 0.930 . S
H186 C194 0.930 . S
H187 C195 0.930 . S
H188 C198 0.930 . S
H189 C199 0.930 . S
C190 H184 0.930 . S
C190 C191 1.355 . S
C190 C192 1.415 . S
C191 C190 1.355 . S
C191 C193 1.419 . S
C192 C190 1.415 . S
C192 C197 1.425 . S
C192 C199 1.409 . S
C193 H185 0.930 . S
C193 C191 1.419 . S
C193 C194 1.362 . S
C194 H186 0.930 . S
C194 C193 1.362 . S
C194 C197 1.409 . S
C195 H187 0.930 . S
C195 C196 1.355 . S
C195 C197 1.415 . S
C196 C195 1.355 . S
C196 C198 1.419 . S
C197 C192 1.425 . S
C197 C194 1.409 . S
C197 C195 1.415 . S
C198 H188 0.930 . S
C198 C196 1.419 . S
C198 C199 1.362 . S
C199 H189 0.930 . S
C199 C192 1.409 . S
C199 C198 1.362 . S
H200 C206 0.930 . S
H201 C209 0.930 . S
H202 C210 0.930 . S
H203 C211 0.930 . S
H204 C214 0.930 . S
H205 C215 0.930 . S
C206 H200 0.930 . S
C206 C207 1.355 . S
C206 C208 1.415 . S
C207 C206 1.355 . S
C207 C209 1.419 . S
C208 C206 1.415 . S
C208 C213 1.425 . S
C208 C215 1.409 . S
C209 H201 0.930 . S
C209 C207 1.419 . S
C209 C210 1.362 . S
C210 H202 0.930 . S
C210 C209 1.362 . S
C210 C213 1.409 . S
C211 H203 0.930 . S
C211 C212 1.355 . S
C211 C213 1.415 . S
C212 C211 1.355 . S
C212 C214 1.419 . S
C213 C208 1.425 . S
C213 C210 1.409 . S
C213 C211 1.415 . S
C214 H204 0.930 . S
C214 C212 1.419 . S
C214 C215 1.362 . S
C215 H205 0.930 . S
C215 C208 1.409 . S
C215 C214 1.362 . S
H216 C222 0.930 . S
H217 C225 0.930 . S
H218 C226 0.930 . S
H219 C227 0.930 . S
H220 C230 0.930 . S
H221 C231 0.930 . S
C222 H216 0.930 . S
C222 C223 1.355 . S
C222 C224 1.415 . S
C223 C222 1.355 . S
C223 C225 1.419 . S
C224 C222 1.415 . S
C224 C229 1.425 . S
C224 C231 1.409 . S
C225 H217 0.930 . S
C225 C223 1.419 . S
C225 C226 1.362 . S
C226 H218 0.930 . S
C226 C225 1.362 . S
C226 C229 1.409 . S
C227 H219 0.930 . S
C227 C228 1.355 . S
C227 C229 1.415 . S
C228 C227 1.355 . S
C228 C230 1.419 . S
C229 C224 1.425 . S
C229 C226 1.409 . S
C229 C227 1.415 . S
C230 H220 0.930 . S
C230 C228 1.419 . S
C230 C231 1.362 . S
C231 H221 0.930 . S
C231 C224 1.409 . S
C231 C230 1.362 . S
H232 C238 0.930 . S
H233 C241 0.930 . S
H234 C242 0.930 . S
H235 C243 0.930 . S
H236 C246 0.930 . S
H237 C247 0.930 . S
C238 H232 0.930 . S
C238 C239 1.355 . S
C238 C240 1.415 . S
C239 C238 1.355 . S
C239 C241 1.419 . S
C240 C238 1.415 . S
C240 C245 1.425 . S
C240 C247 1.409 . S
C241 H233 0.930 . S
C241 C239 1.419 . S
C241 C242 1.362 . S
C242 H234 0.930 . S
C242 C241 1.362 . S
C242 C245 1.409 . S
C243 H235 0.930 . S
C243 C244 1.355 . S
C243 C245 1.415 . S
C244 C243 1.355 . S
C244 C246 1.419 . S
C245 C240 1.425 . S
C245 C242 1.409 . S
C245 C243 1.415 . S
C246 H236 0.930 . S
C246 C244 1.419 . S
C246 C247 1.362 . S
C247 H237 0.930 . S
C247 C240 1.409 . S
C247 C246 1.362 . S
H248 C254 0.930 1_655 S
H249 C257 0.930 . S
H250 C258 0.930 . S
H251 C259 0.930 . S
H252 C262 0.930 . S
H253 C263 0.930 . S
C254 H248 0.930 1_455 S
C254 C255 1.355 1_545 S
C254 C256 1.415 . S
C255 C254 1.355 1_565 S
C255 C257 1.419 . S
C256 C254 1.415 . S
C256 C261 1.425 1_545 S
C256 C263 1.409 1_455 S
C257 H249 0.930 . S
C257 C255 1.419 . S
C257 C258 1.362 . S
C258 H250 0.930 . S
C258 C257 1.362 . S
C258 C261 1.409 . S
C259 H251 0.930 . S
C259 C260 1.355 . S
C259 C261 1.415 . S
C260 C259 1.355 . S
C260 C262 1.419 1_465 S
C261 C256 1.425 1_565 S
C261 C258 1.409 . S
C261 C259 1.415 . S
C262 H252 0.930 . S
C262 C260 1.419 1_645 S
C262 C263 1.362 . S
C263 H253 0.930 . S
C263 C256 1.409 1_655 S
C263 C262 1.362 . S
H264 C270 0.930 1_565 S
H265 C273 0.930 . S
H266 C274 0.930 . S
H267 C275 0.930 . S
H268 C278 0.930 . S
H269 C279 0.930 . S
C270 H264 0.930 1_545 S
C270 C271 1.355 . S
C270 C272 1.415 . S
C271 C270 1.355 . S
C271 C273 1.419 . S
C272 C270 1.415 . S
C272 C277 1.425 . S
C272 C279 1.409 1_545 S
C273 H265 0.930 . S
C273 C271 1.419 . S
C273 C274 1.362 . S
C274 H266 0.930 . S
C274 C273 1.362 . S
C274 C277 1.409 . S
C275 H267 0.930 . S
C275 C276 1.355 . S
C275 C277 1.415 . S
C276 C275 1.355 . S
C276 C278 1.419 1_545 S
C277 C272 1.425 . S
C277 C274 1.409 . S
C277 C275 1.415 . S
C278 H268 0.930 . S
C278 C276 1.419 1_565 S
C278 C279 1.362 . S
C279 H269 0.930 . S
C279 C272 1.409 1_565 S
C279 C278 1.362 . S
H280 C286 0.930 . S
H281 C289 0.930 . S
H282 C290 0.930 . S
H283 C291 0.930 . S
H284 C294 0.930 . S
H285 C295 0.930 . S
C286 H280 0.930 . S
C286 C287 1.355 . S
C286 C288 1.415 . S
C287 C286 1.355 . S
C287 C289 1.419 . S
C288 C286 1.415 . S
C288 C293 1.425 . S
C288 C295 1.409 . S
C289 H281 0.930 . S
C289 C287 1.419 . S
C289 C290 1.362 . S
C290 H282 0.930 . S
C290 C289 1.362 . S
C290 C293 1.409 . S
C291 H283 0.930 . S
C291 C292 1.355 . S
C291 C293 1.415 . S
C292 C291 1.355 . S
C292 C294 1.419 . S
C293 C288 1.425 . S
C293 C290 1.409 . S
C293 C291 1.415 . S
C294 H284 0.930 . S
C294 C292 1.419 . S
C294 C295 1.362 . S
C295 H285 0.930 . S
C295 C288 1.409 . S
C295 C294 1.362 . S
H296 C302 0.930 . S
H297 C305 0.930 . S
H298 C306 0.930 . S
H299 C307 0.930 . S
H300 C310 0.930 . S
H301 C311 0.930 . S
C302 H296 0.930 . S
C302 C303 1.355 . S
C302 C304 1.415 . S
C303 C302 1.355 . S
C303 C305 1.419 . S
C304 C302 1.415 . S
C304 C309 1.425 . S
C304 C311 1.409 . S
C305 H297 0.930 . S
C305 C303 1.419 . S
C305 C306 1.362 . S
C306 H298 0.930 . S
C306 C305 1.362 . S
C306 C309 1.409 . S
C307 H299 0.930 . S
C307 C308 1.355 . S
C307 C309 1.415 . S
C308 C307 1.355 . S
C308 C310 1.419 . S
C309 C304 1.425 . S
C309 C306 1.409 . S
C309 C307 1.415 . S
C310 H300 0.930 . S
C310 C308 1.419 . S
C310 C311 1.362 . S
C311 H301 0.930 . S
C311 C304 1.409 . S
C311 C310 1.362 . S
C132 C111 1.237 . S
C127 C29 1.441 . S
C143 C8 1.442 . S
C148 C98 1.336 1_554 S
C159 C0 1.509 . S
C164 C115 1.460 . S
C175 C17 1.480 . S
C180 C102 1.484 . S
C191 C63 1.440 . S
C196 C85 1.239 . S
C207 C42 1.442 . S
C212 C72 1.361 . S
C228 C89 1.492 . S
C223 C34 1.498 . S
C244 C76 1.482 . S
C239 C51 1.510 . S
C255 C4 1.515 . S
C260 C77 1.519 . S
C271 C13 1.532 . S
C276 C90 1.532 . S
C292 C103 1.499 . S
C287 C38 1.497 . S
C303 C47 1.528 . S
C308 C116 1.528 . S
