# Generated by pormake.
# Topology pyr, (3,6)-cn, num edge types: 1
# Building blocks:
#     Node 0, Type 0, BuildingBlock: CUQRIR_clean_linker_1, # of connection points: 3
#     Node 1, Type 0, BuildingBlock: CUQRIR_clean_linker_1, # of connection points: 3
#     Node 2, Type 0, BuildingBlock: CUQRIR_clean_linker_1, # of connection points: 3
#     Node 3, Type 0, BuildingBlock: CUQRIR_clean_linker_1, # of connection points: 3
#     Node 4, Type 0, BuildingBlock: CUQRIR_clean_linker_1, # of connection points: 3
#     Node 5, Type 0, BuildingBlock: CUQRIR_clean_linker_1, # of connection points: 3
#     Node 6, Type 0, BuildingBlock: CUQRIR_clean_linker_1, # of connection points: 3
#     Node 7, Type 0, BuildingBlock: CUQRIR_clean_linker_1, # of connection points: 3
#     Node 8, Type 1, BuildingBlock: BETFAJ_clean_sbu_0, # of connection points: 6
#     Node 9, Type 1, BuildingBlock: BETFAJ_clean_sbu_0, # of connection points: 6
#     Node 10, Type 1, BuildingBlock: BETFAJ_clean_sbu_0, # of connection points: 6
#     Node 11, Type 1, BuildingBlock: BETFAJ_clean_sbu_0, # of connection points: 6
#     Edge 12, Type (0, 1), BuildingBlock: CIFDUS_clean_linker_0, # of connection points: 2
#     Edge 13, Type (0, 1), BuildingBlock: CIFDUS_clean_linker_0, # of connection points: 2
#     Edge 14, Type (0, 1), BuildingBlock: CIFDUS_clean_linker_0, # of connection points: 2
#     Edge 15, Type (0, 1), BuildingBlock: CIFDUS_clean_linker_0, # of connection points: 2
#     Edge 16, Type (0, 1), BuildingBlock: CIFDUS_clean_linker_0, # of connection points: 2
#     Edge 17, Type (0, 1), BuildingBlock: CIFDUS_clean_linker_0, # of connection points: 2
#     Edge 18, Type (0, 1), BuildingBlock: CIFDUS_clean_linker_0, # of connection points: 2
#     Edge 19, Type (0, 1), BuildingBlock: CIFDUS_clean_linker_0, # of connection points: 2
#     Edge 20, Type (0, 1), BuildingBlock: CIFDUS_clean_linker_0, # of connection points: 2
#     Edge 21, Type (0, 1), BuildingBlock: CIFDUS_clean_linker_0, # of connection points: 2
#     Edge 22, Type (0, 1), BuildingBlock: CIFDUS_clean_linker_0, # of connection points: 2
#     Edge 23, Type (0, 1), BuildingBlock: CIFDUS_clean_linker_0, # of connection points: 2
#     Edge 24, Type (0, 1), BuildingBlock: CIFDUS_clean_linker_0, # of connection points: 2
#     Edge 25, Type (0, 1), BuildingBlock: CIFDUS_clean_linker_0, # of connection points: 2
#     Edge 26, Type (0, 1), BuildingBlock: CIFDUS_clean_linker_0, # of connection points: 2
#     Edge 27, Type (0, 1), BuildingBlock: CIFDUS_clean_linker_0, # of connection points: 2
#     Edge 28, Type (0, 1), BuildingBlock: CIFDUS_clean_linker_0, # of connection points: 2
#     Edge 29, Type (0, 1), BuildingBlock: CIFDUS_clean_linker_0, # of connection points: 2
#     Edge 30, Type (0, 1), BuildingBlock: CIFDUS_clean_linker_0, # of connection points: 2
#     Edge 31, Type (0, 1), BuildingBlock: CIFDUS_clean_linker_0, # of connection points: 2
#     Edge 32, Type (0, 1), BuildingBlock: CIFDUS_clean_linker_0, # of connection points: 2
#     Edge 33, Type (0, 1), BuildingBlock: CIFDUS_clean_linker_0, # of connection points: 2
#     Edge 34, Type (0, 1), BuildingBlock: CIFDUS_clean_linker_0, # of connection points: 2
#     Edge 35, Type (0, 1), BuildingBlock: CIFDUS_clean_linker_0, # of connection points: 2
# Relax obj value: 0.241
# Max RMSD: 0.265
# Mean RMSD: 0.172
data_MOF--net-pyr--node1-BETFAJ_clean_sbu_0--node2-CUQRIR_clean_linker_1--edge1-CIFDUS_clean_linker_0
_symmetry_space_group_name_H-M    P1
_symmetry_Int_Tables_number       1
_symmetry_cell_setting            triclinic
loop_
_symmetry_equiv_pos_as_xyz
'x, y, z'
_cell_length_a     30.632015
_cell_length_b     32.335942
_cell_length_c     29.115778
_cell_angle_alpha  90.783341
_cell_angle_beta   90.185494
_cell_angle_gamma 106.09809
loop_
_atom_site_label
_atom_site_type_symbol
_atom_site_fract_x
_atom_site_fract_y
_atom_site_fract_z
_atom_type_partial_charge
C0 C 0.38529 0.41879 0.23067 0.0
N1 N 0.40185 0.38611 0.24431 0.0
N2 N 0.39013 0.42526 0.18481 0.0
C3 C 0.3543 0.43704 0.26003 0.0
C4 C 0.41533 0.39856 0.17205 0.0
N5 N 0.42252 0.37508 0.20797 0.0
C6 C 0.42612 0.39013 0.1231 0.0
H7 H 0.31834 0.42026 0.25148 0.0
H8 H 0.36016 0.47181 0.25329 0.0
H9 H 0.36022 0.43302 0.29711 0.0
H10 H 0.46306 0.39386 0.11972 0.0
H11 H 0.41616 0.41257 0.09938 0.0
H12 H 0.40798 0.35642 0.11333 0.0
C13 C 0.19259 0.8772 0.68406 0.0
N14 N 0.18381 0.91402 0.6985 0.0
N15 N 0.20586 0.8569 0.71958 0.0
C16 C 0.19595 0.86502 0.63423 0.0
C17 C 0.20351 0.88226 0.75627 0.0
N18 N 0.191 0.91749 0.74365 0.0
C19 C 0.22194 0.87663 0.8031 0.0
H20 H 0.16129 0.85025 0.62034 0.0
H21 H 0.21578 0.84135 0.62959 0.0
H22 H 0.21169 0.89407 0.61389 0.0
H23 H 0.25818 0.8955 0.80544 0.0
H24 H 0.21967 0.84225 0.80899 0.0
H25 H 0.20297 0.88859 0.83025 0.0
C26 C 0.62103 0.41701 0.87698 0.0
N27 N 0.64868 0.41103 0.91197 0.0
N28 N 0.63764 0.45589 0.85668 0.0
C29 C 0.57757 0.38479 0.86226 0.0
C30 C 0.6763 0.47381 0.88108 0.0
N31 N 0.6841 0.44655 0.91384 0.0
C32 C 0.70441 0.51971 0.87499 0.0
H33 H 0.58003 0.35146 0.86651 0.0
H34 H 0.5693 0.38957 0.82593 0.0
H35 H 0.54947 0.38915 0.88402 0.0
H36 H 0.68377 0.53989 0.86092 0.0
H37 H 0.73197 0.52031 0.85018 0.0
H38 H 0.71967 0.53424 0.90808 0.0
C39 C 0.8566 0.73102 0.37909 0.0
N40 N 0.89578 0.76057 0.36545 0.0
N41 N 0.83597 0.74644 0.41404 0.0
C42 C 0.8385 0.6865 0.35848 0.0
C43 C 0.86341 0.78678 0.42106 0.0
N44 N 0.8999 0.796 0.39232 0.0
C45 C 0.85346 0.81804 0.45571 0.0
H46 H 0.84284 0.68721 0.32065 0.0
H47 H 0.80214 0.67228 0.36627 0.0
H48 H 0.85767 0.66515 0.37296 0.0
H49 H 0.8166 0.81006 0.46322 0.0
H50 H 0.86484 0.85153 0.44312 0.0
H51 H 0.87193 0.81635 0.48816 0.0
C52 C 0.66026 0.86768 0.92518 0.0
N53 N 0.68816 0.84989 0.90079 0.0
N54 N 0.65193 0.9009 0.90232 0.0
C55 C 0.64541 0.85627 0.97362 0.0
C56 C 0.67577 0.90254 0.86303 0.0
N57 N 0.69784 0.87167 0.86203 0.0
C58 C 0.68476 0.93949 0.8303 0.0
H59 H 0.64516 0.82264 0.98111 0.0
H60 H 0.61106 0.86047 0.97922 0.0
H61 H 0.66926 0.87837 0.99774 0.0
H62 H 0.71692 0.96361 0.84046 0.0
H63 H 0.65681 0.95518 0.83116 0.0
H64 H 0.68864 0.92816 0.79481 0.0
C65 C 0.8229 0.30588 0.56649 0.0
N66 N 0.83445 0.27545 0.54031 0.0
N67 N 0.80186 0.32914 0.54055 0.0
C68 C 0.83408 0.31492 0.61656 0.0
C69 C 0.80066 0.31182 0.49791 0.0
N70 N 0.821 0.27982 0.49762 0.0
C71 C 0.77487 0.32287 0.45773 0.0
H72 H 0.80598 0.2951 0.63746 0.0
H73 H 0.83763 0.34928 0.62501 0.0
H74 H 0.866 0.30705 0.62576 0.0
H75 H 0.79585 0.3528 0.44193 0.0
H76 H 0.7426 0.32872 0.46933 0.0
H77 H 0.76675 0.29705 0.43104 0.0
C78 C 0.36137 0.75654 0.27242 0.0
N79 N 0.39815 0.78726 0.28998 0.0
N80 N 0.33836 0.77315 0.24085 0.0
C81 C 0.3486 0.70977 0.28555 0.0
C82 C 0.36195 0.81527 0.24004 0.0
N83 N 0.3983 0.82442 0.2693 0.0
C84 C 0.34911 0.84808 0.21044 0.0
H85 H 0.37463 0.69474 0.27246 0.0
H86 H 0.3155 0.69115 0.27104 0.0
H87 H 0.34769 0.707 0.32351 0.0
H88 H 0.31225 0.83823 0.20222 0.0
H89 H 0.36835 0.85125 0.17785 0.0
H90 H 0.35768 0.88009 0.22776 0.0
C91 C 0.13903 0.43544 0.77226 0.0
N92 N 0.16637 0.42766 0.73759 0.0
N93 N 0.15662 0.47498 0.79287 0.0
C94 C 0.09307 0.4061 0.78332 0.0
C95 C 0.19595 0.49079 0.76915 0.0
N96 N 0.20154 0.46321 0.73507 0.0
C97 C 0.23179 0.53144 0.78282 0.0
H98 H 0.07727 0.38703 0.75261 0.0
H99 H 0.07016 0.42475 0.79637 0.0
H100 H 0.09697 0.38356 0.81041 0.0
H101 H 0.22922 0.53925 0.81976 0.0
H102 H 0.22733 0.55863 0.76226 0.0
H103 H 0.26633 0.5281 0.77632 0.0
Sm104 Sm 0.0654 0.12634 0.52054 0.0
Sm105 Sm 0.05095 0.08376 0.61259 0.0
C106 C 0.07315 0.17495 0.44712 0.0
C107 C 0.11275 0.20147 0.42346 0.0
C108 C 0.10706 0.22594 0.38592 0.0
C109 C 0.14478 0.24801 0.36073 0.0
C110 C 0.18859 0.24551 0.37261 0.0
C111 C 0.1942 0.22223 0.41148 0.0
C112 C 0.15647 0.20039 0.43679 0.0
C113 C 0.13893 0.10104 0.55315 0.0
C114 C 0.09146 0.18859 0.61612 0.0
C115 C 0.04936 1.03404 0.6843 0.0
C116 C 1.01329 0.99924 0.70364 0.0
C117 C 1.02111 0.97842 0.74336 0.0
C118 C 0.9846 0.95087 0.76622 0.0
C119 C 0.9398 0.94432 0.74985 0.0
C120 C 0.93286 0.96306 0.70809 0.0
C121 C 0.96932 0.99015 0.68514 0.0
C122 C 0.97806 0.1106 0.5834 0.0
C123 C 1.02185 1.02143 0.51693 0.0
O124 O 0.06591 0.18836 0.48813 0.0
O125 O 0.06897 0.13371 0.44514 0.0
O126 O 0.11405 0.1186 0.57558 0.0
O127 O 0.12615 0.09726 0.51056 0.0
O128 O 0.07818 0.18651 0.57226 0.0
O129 O 0.09103 0.15246 0.63744 0.0
O130 O 0.06439 1.02619 0.64408 0.0
O131 O 0.04198 0.07192 0.68705 0.0
O132 O 1.0021 0.09385 0.55843 0.0
O133 O 0.98875 0.10909 0.6263 0.0
O134 O 0.03365 1.02445 0.56116 0.0
O135 O 1.02448 1.05723 0.49389 0.0
H136 H 0.07347 0.22719 0.3755 0.0
H137 H 0.13957 0.26647 0.33147 0.0
H138 H 0.22742 0.21953 0.42129 0.0
H139 H 0.16122 0.18156 0.46593 0.0
H140 H 0.05504 0.98499 0.75782 0.0
H141 H 0.99122 0.93629 0.79781 0.0
H142 H 0.89897 0.95936 0.69464 0.0
H143 H 0.96285 1.00608 0.65436 0.0
Sm144 Sm 0.57421 0.12725 0.1169 0.0
Sm145 Sm 0.49043 0.11226 0.09047 0.0
C146 C 0.65752 0.15382 0.15247 0.0
C147 C 0.67885 0.14874 0.19638 0.0
C148 C 0.72535 0.15195 0.19824 0.0
C149 C 0.74679 0.1512 0.24054 0.0
C150 C 0.72201 0.14764 0.28164 0.0
C151 C 0.67476 0.14174 0.27914 0.0
C152 C 0.65335 0.14209 0.23686 0.0
C153 C 0.52567 1.04606 0.15051 0.0
C154 C 0.50804 0.16761 0.17711 0.0
C155 C 0.40509 0.08309 0.06032 0.0
C156 C 0.37888 0.07893 1.01742 0.0
C157 C 0.33665 1.04809 1.01425 0.0
C158 C 0.31273 1.04074 0.97268 0.0
C159 C 0.33065 1.06422 0.93341 0.0
C160 C 0.37225 0.09652 0.93736 0.0
C161 C 0.39628 0.1037 0.97902 0.0
C162 C 0.53927 0.19376 0.05674 0.0
C163 C 0.55579 0.07603 1.02488 0.0
O164 O 0.62845 0.17657 0.15365 0.0
O165 O 0.64353 0.11929 0.12704 0.0
O166 O 0.51229 0.07997 0.15324 0.0
O167 O 0.5629 1.0544 0.12762 0.0
O168 O 0.54841 0.17743 0.15837 0.0
O169 O 0.47942 0.1315 0.16381 0.0
O170 O 0.43288 1.05916 0.06349 0.0
O171 O 0.42256 0.1219 0.0766 0.0
O172 O 0.55313 0.16007 0.05477 0.0
O173 O 0.50045 0.18447 0.07711 0.0
O174 O 0.51461 0.06697 1.04143 0.0
O175 O 0.58721 0.10777 1.0437 0.0
H176 H 0.74535 0.15641 0.16714 0.0
H177 H 0.78306 0.1551 0.2412 0.0
H178 H 0.65461 0.13945 0.30998 0.0
H179 H 0.6172 0.13893 0.23595 0.0
H180 H 0.32283 1.02863 1.0436 0.0
H181 H 0.28133 1.01507 0.97082 0.0
H182 H 0.38683 0.11542 0.90793 0.0
H183 H 0.42891 0.12775 0.98095 0.0
Sm184 Sm 0.50188 0.57081 0.53668 0.0
Sm185 Sm 0.52151 0.64317 0.59162 0.0
C186 C 0.50926 0.50176 0.49206 0.0
C187 C 0.55056 0.48725 0.49157 0.0
C188 C 0.5931 0.51796 0.49579 0.0
C189 C 0.63216 0.50516 0.50408 0.0
C190 C 0.62945 0.46141 0.50864 0.0
C191 C 0.587 0.43058 0.50331 0.0
C192 C 0.54777 0.44346 0.49495 0.0
C193 C 0.42273 0.57208 0.58333 0.0
C194 C 0.55179 0.56553 0.63671 0.0
C195 C 0.52294 0.71209 0.6427 0.0
C196 C 0.48949 0.73536 0.65243 0.0
C197 C 0.44742 0.7235 0.62962 0.0
C198 C 0.41422 0.74378 0.64079 0.0
C199 C 0.42257 0.77598 0.67517 0.0
C200 C 0.46503 0.78798 0.69767 0.0
C201 C 0.49832 0.7677 0.68634 0.0
C202 C 0.5989 0.64047 0.54186 0.0
C203 C 0.48032 0.65295 0.48822 0.0
O204 O 0.51218 0.53808 0.47159 0.0
O205 O 0.49014 0.49986 0.53219 0.0
O206 O 0.46246 0.58191 0.60068 0.0
O207 O 0.42441 0.56196 0.54028 0.0
O208 O 0.54914 0.55338 0.59299 0.0
O209 O 0.53786 0.59925 0.6478 0.0
O210 O 0.51284 0.67319 0.65857 0.0
O211 O 0.53774 0.71418 0.60067 0.0
O212 O 0.55866 0.63191 0.5268 0.0
O213 O 0.59916 0.64975 0.58531 0.0
O214 O 0.48167 0.66663 0.53155 0.0
O215 O 0.49051 0.61647 0.47992 0.0
H216 H 0.59596 0.55209 0.49457 0.0
H217 H 0.66426 0.52963 0.50844 0.0
H218 H 0.58409 0.39654 0.50601 0.0
H219 H 0.51517 0.41941 0.4927 0.0
H220 H 0.4401 0.69822 0.60357 0.0
H221 H 0.3821 0.73436 0.6224 0.0
H222 H 0.47217 0.81243 0.72459 0.0
H223 H 0.53061 0.77676 0.70447 0.0
Sm224 Sm 1.00766 0.56993 0.10746 0.0
Sm225 Sm 1.01547 0.64201 0.05319 0.0
C226 C 0.03097 0.50371 0.14219 0.0
C227 C 0.0761 0.49586 0.13991 0.0
C228 C 0.10867 0.5198 0.10944 0.0
C229 C 0.1528 0.51561 0.10912 0.0
C230 C 0.16493 0.48655 0.13844 0.0
C231 C 0.13195 0.46134 0.16777 0.0
C232 C 0.08787 0.46627 0.16881 0.0
C233 C 0.97115 0.62857 0.15663 0.0
C234 C 0.10323 0.64893 0.11605 0.0
C235 C 1.00141 0.71087 1.01366 0.0
C236 C 0.96235 0.72675 1.00182 0.0
C237 C 0.9191 0.69835 0.99362 0.0
C238 C 0.88167 0.71436 0.98634 0.0
C239 C 0.88691 0.75898 0.98749 0.0
C240 C 0.9305 0.7872 0.99489 0.0
C241 C 0.96782 0.77119 1.00204 0.0
C242 C 0.05721 0.58618 1.00778 0.0
C243 C 0.91887 0.56138 1.04576 0.0
O244 O 1.01015 0.50194 0.10279 0.0
O245 O 0.0288 0.537 0.16697 0.0
O246 O 1.00674 0.6381 0.13175 0.0
O247 O 0.95401 0.58685 0.15478 0.0
O248 O 0.08231 0.60822 0.12329 0.0
O249 O 0.08404 0.67195 0.0901 0.0
O250 O 1.00899 0.70862 0.05748 0.0
O251 O 1.00635 0.67761 0.99058 0.0
O252 O 1.01988 0.57524 1.02981 0.0
O253 O 0.07332 0.62784 1.00967 0.0
O254 O 0.94062 0.60178 1.03632 0.0
O255 O 0.93754 0.53952 0.07375 0.0
H256 H 0.10014 0.54224 0.08615 0.0
H257 H 0.17751 0.5351 0.086 0.0
H258 H 0.14072 0.43881 0.19082 0.0
H259 H 0.06327 0.44748 0.19249 0.0
H260 H 0.91409 0.66388 0.99363 0.0
H261 H 0.8485 0.69183 0.98096 0.0
H262 H 0.93577 0.82174 0.99519 0.0
H263 H 1.00092 0.79356 1.00848 0.0
H264 H 0.3269 0.32866 0.21946 0.0
H265 H 0.41321 0.37704 0.33593 0.0
H266 H 0.35434 0.33496 0.38776 0.0
H267 H 0.27483 0.29048 0.39881 0.0
H268 H 0.19025 0.24356 0.2796 0.0
H269 H 0.25209 0.2792 0.22939 0.0
C270 C 0.33317 0.32858 0.25616 0.0
C271 C 0.37426 0.35459 0.27415 0.0
C272 C 0.29925 0.30545 0.28492 0.0
C273 C 0.38213 0.35604 0.32163 0.0
C274 C 0.34832 0.33252 0.351 0.0
C275 C 0.27026 0.28759 0.36184 0.0
C276 C 0.2277 0.26521 0.34293 0.0
C277 C 0.30622 0.30801 0.33297 0.0
C278 C 0.22219 0.26167 0.295 0.0
C279 C 0.25761 0.28164 0.26625 0.0
H280 H 0.27306 0.97169 0.74472 0.0
H281 H 0.14058 0.94768 0.80441 0.0
H282 H 0.17199 0.99877 0.86747 0.0
H283 H 0.23979 1.03939 0.91169 0.0
H284 H 0.37285 1.058 0.85241 0.0
H285 H 0.33867 1.02158 0.78219 0.0
C286 C 0.25093 0.97957 0.77041 0.0
C287 C 0.20465 0.95699 0.76981 0.0
C288 C 0.2696 1.00747 0.80691 0.0
C289 C 0.17612 0.96566 0.80391 0.0
C290 C 0.19427 0.99431 0.84015 0.0
C291 C 0.26123 1.03606 0.88311 0.0
C292 C 0.30892 1.05088 0.88777 0.0
C293 C 0.24138 1.01372 0.84309 0.0
C294 C 0.33614 1.04718 0.84997 0.0
C295 C 0.31664 1.02593 0.80982 0.0
H296 H 0.64125 0.44798 0.7631 0.0
H297 H 0.58771 0.51169 0.87072 0.0
H298 H 0.55743 0.55176 0.81343 0.0
H299 H 0.54702 0.57022 0.73203 0.0
H300 H 0.59849 0.50476 0.62384 0.0
H301 H 0.62829 0.46463 0.681 0.0
C302 C 0.62252 0.47031 0.77388 0.0
C303 C 0.61661 0.47651 0.82155 0.0
C304 C 0.60497 0.49345 0.74026 0.0
C305 C 0.59249 0.50596 0.8346 0.0
C306 C 0.57534 0.52909 0.80166 0.0
C307 C 0.56485 0.54729 0.72077 0.0
C308 C 0.57048 0.54123 0.67294 0.0
C309 C 0.58155 0.52346 0.75427 0.0
C310 C 0.59344 0.51068 0.65988 0.0
C311 C 0.61059 0.48747 0.69282 0.0
H312 H 0.9379 0.69704 0.3582 0.0
H313 H 0.91217 0.80119 0.28278 0.0
H314 H 0.93592 0.77209 0.21136 0.0
H315 H 0.95597 0.7111 0.16775 0.0
H316 H 0.97241 0.60359 0.2451 0.0
H317 H 0.95971 0.63874 0.31649 0.0
C318 C 0.93864 0.71419 0.32637 0.0
C319 C 0.92385 0.75227 0.32703 0.0
C320 C 0.94955 0.69546 0.2847 0.0
C321 C 0.92449 0.77295 0.28456 0.0
C322 C 0.93724 0.75552 0.24319 0.0
C323 C 0.95725 0.69552 0.20023 0.0
C324 C 0.96542 0.65405 0.20007 0.0
C325 C 0.94858 0.71591 0.24232 0.0
C326 C 0.96622 0.63493 0.24319 0.0
C327 C 0.95901 0.65527 0.28449 0.0
H328 H 0.38716 0.28908 0.22084 0.0
H329 H 0.51081 0.38633 0.19035 0.0
H330 H 0.5513 0.33077 0.18383 0.0
H331 H 0.54935 0.25397 0.18174 0.0
H332 H 0.42519 0.15808 0.21602 0.0
H333 H 0.38757 0.21437 0.22947 0.0
C334 C 0.42319 0.29868 0.21472 0.0
C335 C 0.44609 0.34204 0.2068 0.0
C336 C 0.44622 0.26677 0.21222 0.0
C337 C 0.49257 0.35307 0.1964 0.0
C338 C 0.51567 0.32139 0.19297 0.0
C339 C 0.51445 0.24542 0.19345 0.0
C340 C 0.49005 0.20174 0.1975 0.0
C341 C 0.49265 0.27799 0.20029 0.0
C342 C 0.44477 0.19135 0.21248 0.0
C343 C 0.42306 0.22352 0.21975 0.0
H344 H 0.22654 0.99928 0.68933 0.0
H345 H 0.11377 0.89636 0.6397 0.0
H346 H 0.09717 0.94361 0.58146 0.0
H347 H 0.1125 1.015 0.54748 0.0
H348 H 0.21168 0.1219 0.61058 0.0
H349 H 0.23689 0.0725 0.66083 0.0
C350 C 0.1973 0.98748 0.66726 0.0
C351 C 0.17113 0.94436 0.66918 0.0
C352 C 0.18638 1.0155 0.63571 0.0
C353 C 0.13451 0.92941 0.6385 0.0
C354 C 0.12507 0.95633 0.60526 0.0
C355 C 0.13981 1.02729 0.57204 0.0
C356 C 0.16067 0.0716 0.57534 0.0
C357 C 0.15075 0.99944 0.60362 0.0
C358 C 0.19585 0.08759 0.60725 0.0
C359 C 0.2097 1.0595 0.63629 0.0
H360 H 0.77221 0.47957 0.89116 0.0
H361 H 0.68596 0.43705 1.00742 0.0
H362 H 0.75122 0.46579 0.05952 0.0
H363 H 0.833 0.5095 0.0722 0.0
H364 H 0.91257 0.56174 0.95384 0.0
H365 H 0.85007 0.52485 0.90306 0.0
C366 C 0.76739 0.47681 0.92793 0.0
C367 C 0.7236 0.45636 0.94493 0.0
C368 C 0.80421 0.49634 0.95763 0.0
C369 C 0.71893 0.45206 0.99289 0.0
C370 C 0.75634 0.46922 1.02281 0.0
C371 C 0.83651 0.51281 1.03531 0.0
C372 C 0.87791 0.53873 1.01704 0.0
C373 C 0.79911 0.49249 1.00571 0.0
C374 C 0.88139 0.54257 0.96906 0.0
C375 C 0.84559 0.52117 0.93984 0.0
H376 H 0.74767 0.71125 0.38742 0.0
H377 H 0.83703 0.7326 0.50497 0.0
H378 H 0.77261 0.7011 0.55513 0.0
H379 H 0.68969 0.66943 0.56641 0.0
H380 H 0.60066 0.6452 0.44818 0.0
H381 H 0.66535 0.67464 0.39799 0.0
C382 C 0.75309 0.70818 0.42386 0.0
C383 C 0.79747 0.72411 0.44226 0.0
C384 C 0.71559 0.68944 0.45265 0.0
C385 C 0.80346 0.72065 0.48986 0.0
C386 C 0.76651 0.70258 0.51859 0.0
C387 C 0.68446 0.67025 0.52963 0.0
C388 C 0.63988 0.65519 0.51145 0.0
C389 C 0.72222 0.68716 0.50057 0.0
C390 C 0.63423 0.65651 0.46349 0.0
C391 C 0.67138 0.67353 0.43459 0.0
H392 H 0.37191 0.50121 0.17344 0.0
H393 H 0.3247 0.36611 0.1398 0.0
H394 H 0.25007 0.37357 0.11906 0.0
H395 H 0.19486 0.41627 0.12244 0.0
H396 H 0.24106 0.55139 0.15702 0.0
H397 H 0.31901 0.54644 0.16608 0.0
C398 C 0.34566 0.47396 0.15985 0.0
C399 C 0.35375 0.43329 0.15796 0.0
C400 C 0.30218 0.47825 0.1497 0.0
C401 C 0.31945 0.39788 0.14079 0.0
C402 C 0.27649 0.40197 0.1298 0.0
C403 C 0.2222 0.44461 0.13148 0.0
C404 C 0.21241 0.48394 0.13977 0.0
C405 C 0.26689 0.44157 0.13614 0.0
C406 C 0.24799 0.52072 0.15077 0.0
C407 C 0.29249 0.5179 0.15589 0.0
H408 H 0.57501 0.37889 0.965 0.0
H409 H 0.70093 0.35574 0.9243 0.0
H410 H 0.67988 0.28632 0.96443 0.0
H411 H 0.62246 0.22926 1.00915 0.0
H412 H 0.49754 0.2566 1.04913 0.0
H413 H 0.5209 0.32552 1.01156 0.0
C414 C 0.5981 0.35886 0.96522 0.0
C415 C 0.63968 0.37301 0.94143 0.0
C416 C 0.58543 0.31871 0.98808 0.0
C417 C 0.66903 0.34629 0.94252 0.0
C418 C 0.65664 0.30619 0.96525 0.0
C419 C 0.60033 0.25023 1.0096 0.0
C420 C 0.55757 0.23643 1.03208 0.0
C421 C 0.61443 0.29145 0.98777 0.0
C422 C 0.53022 0.26513 1.03225 0.0
C423 C 0.54364 0.30513 1.01066 0.0
H424 H 0.95862 0.82007 0.46315 0.0
H425 H 0.91708 0.86641 0.33759 0.0
H426 H 0.95221 0.94109 0.36338 0.0
H427 H 0.98699 0.99456 0.42713 0.0
H428 H 1.02073 0.94461 0.55517 0.0
H429 H 0.99641 0.87187 0.52375 0.0
C430 C 0.95924 0.84642 0.44032 0.0
C431 C 0.93634 0.83654 0.39726 0.0
C432 C 0.97683 0.88961 0.45705 0.0
C433 C 0.93581 0.87199 0.36972 0.0
C434 C 0.95498 0.91511 0.38528 0.0
C435 C 0.98933 0.96788 0.44819 0.0
C436 C 1.00617 0.97643 0.49423 0.0
C437 C 0.97426 0.92461 0.42975 0.0
C438 C 1.00833 0.94038 0.52009 0.0
C439 C 0.99437 0.89816 0.50193 0.0
H440 H 0.29414 0.8931 0.71766 0.0
H441 H 0.19244 0.77109 0.71073 0.0
H442 H 0.2518 0.73404 0.698 0.0
H443 H 0.33249 0.73783 0.68655 0.0
H444 H 0.43326 0.86142 0.69067 0.0
H445 H 0.37442 0.89687 0.70784 0.0
C446 C 0.28544 0.85832 0.71389 0.0
C447 C 0.23977 0.83436 0.71539 0.0
C448 C 0.31935 0.83793 0.70617 0.0
C449 C 0.22779 0.78958 0.70993 0.0
C450 C 0.26156 0.76872 0.70258 0.0
C451 C 0.34147 0.77253 0.69099 0.0
C452 C 0.38705 0.79705 0.68724 0.0
C453 C 0.30742 0.79272 0.70016 0.0
C454 C 0.39845 0.84187 0.69388 0.0
C455 C 0.36487 0.86216 0.7034 0.0
H456 H 0.78194 0.9042 0.89302 0.0
H457 H 0.70395 0.8479 0.77367 0.0
H458 H 0.77411 0.85999 0.72847 0.0
H459 H 0.85685 0.89217 0.72255 0.0
H460 H 0.93313 0.95144 0.84286 0.0
H461 H 0.86483 0.93022 0.88897 0.0
C462 C 0.78074 0.89374 0.85738 0.0
C463 C 0.73858 0.87508 0.83633 0.0
C464 C 0.82081 0.90092 0.83217 0.0
C465 C 0.73651 0.8623 0.79007 0.0
C466 C 0.77643 0.86919 0.76452 0.0
C467 C 0.8586 0.90018 0.75892 0.0
C468 C 0.90016 0.92376 0.77895 0.0
C469 C 0.81873 0.88932 0.78507 0.0
C470 C 0.90194 0.93294 0.82641 0.0
C471 C 0.8627 0.92136 0.85282 0.0
H472 H 0.7687 0.19918 0.48704 0.0
H473 H 0.87099 0.29927 0.42204 0.0
H474 H 0.85504 0.26094 0.34807 0.0
H475 H 0.80122 0.20786 0.30072 0.0
H476 H 0.69546 0.10883 0.36439 0.0
H477 H 0.72347 0.13746 0.44034 0.0
C478 C 0.78844 0.21136 0.45682 0.0
C479 C 0.82079 0.25161 0.45919 0.0
C480 C 0.77765 0.18993 0.41429 0.0
C481 C 0.84611 0.26807 0.42029 0.0
C482 C 0.83666 0.2464 0.37819 0.0
C483 C 0.78524 0.19137 0.33108 0.0
C484 C 0.74569 0.15679 0.3268 0.0
C485 C 0.80089 0.2085 0.37442 0.0
C486 C 0.72531 0.1362 0.36673 0.0
C487 C 0.74132 0.15251 0.41017 0.0
H488 H 0.45079 0.73236 0.29338 0.0
H489 H 0.40145 0.81974 0.37723 0.0
H490 H 0.42305 0.78758 0.44699 0.0
H491 H 0.44896 0.7281 0.48505 0.0
H492 H 0.49105 0.63754 0.39745 0.0
H493 H 0.47832 0.67595 0.33 0.0
C494 C 0.44583 0.74523 0.3269 0.0
C495 C 0.42499 0.77933 0.32927 0.0
C496 C 0.45575 0.72457 0.36701 0.0
C497 C 0.41846 0.79467 0.37359 0.0
C498 C 0.42998 0.77541 0.41376 0.0
C499 C 0.45541 0.7167 0.45127 0.0
C500 C 0.47081 0.67894 0.44749 0.0
C501 C 0.44739 0.73923 0.41115 0.0
C502 C 0.47886 0.66564 0.40265 0.0
C503 C 0.47181 0.68798 0.36347 0.0
H504 H 0.11523 0.44718 0.8765 0.0
H505 H 0.1513 0.55696 0.78787 0.0
H506 H 0.12683 0.6006 0.84588 0.0
H507 H 0.09613 0.6095 0.92295 0.0
H508 H 0.05139 0.49916 1.00954 0.0
H509 H 0.07735 0.45474 0.95221 0.0
C510 C 0.1173 0.48048 0.86955 0.0
C511 C 0.13674 0.49858 0.82734 0.0
C512 C 0.10147 0.50581 0.90331 0.0
C513 C 0.13832 0.54202 0.81991 0.0
C514 C 0.12387 0.56719 0.85327 0.0
C515 C 0.09192 0.5757 0.92948 0.0
C516 C 0.0719 0.55825 0.97144 0.0
C517 C 0.10582 0.5498 0.8954 0.0
C518 C 0.0665 0.51397 0.97811 0.0
C519 C 0.08152 0.4884 0.94504 0.0
H520 H 0.57099 0.91755 0.90395 0.0
H521 H 0.71035 0.96512 0.94759 0.0
H522 H 0.69421 1.02754 0.98522 0.0
H523 H 0.63934 0.06584 1.00939 0.0
H524 H 0.49863 1.01685 0.96884 0.0
H525 H 0.51618 0.95825 0.92546 0.0
C526 C 0.59748 0.94184 0.9217 0.0
C527 C 0.64154 0.9372 0.9237 0.0
C528 C 0.58774 0.97735 0.94335 0.0
C529 C 0.67617 0.96851 0.94631 0.0
C530 C 0.66695 1.00404 0.96753 0.0
C531 C 0.61269 1.04289 0.99027 0.0
C532 C 0.56781 1.04571 0.99221 0.0
C533 C 0.62276 1.00858 0.96667 0.0
C534 C 0.53351 1.01534 0.9678 0.0
C535 C 0.54344 0.98168 0.94323 0.0
H536 H 0.89979 0.25068 0.49576 0.0
H537 H 0.81631 0.22658 0.61673 0.0
H538 H 0.85423 0.17344 0.64177 0.0
H539 H 0.91193 0.13427 0.62894 0.0
H540 H 0.98192 0.14693 0.49954 0.0
H541 H 0.94655 0.20259 0.47641 0.0
C542 C 0.88888 0.23299 0.52692 0.0
C543 C 0.85588 0.24325 0.55473 0.0
C544 C 0.9081 0.20016 0.53915 0.0
C545 C 0.84296 0.22062 0.59562 0.0
C546 C 0.86405 0.18969 0.60954 0.0
C547 C 0.91889 0.14892 0.59547 0.0
C548 C 0.95051 0.13784 0.56647 0.0
C549 C 0.89683 0.17934 0.58161 0.0
C550 C 0.9586 0.15602 0.52279 0.0
C551 C 0.93838 0.18772 0.5096 0.0
H552 H 0.25532 0.72441 0.26744 0.0
H553 H 0.3342 0.77369 0.14815 0.0
H554 H 0.26836 0.74221 0.09832 0.0
H555 H 0.18711 0.70015 0.08844 0.0
H556 H 0.11197 0.64364 0.20758 0.0
H557 H 0.17698 0.6773 0.25715 0.0
C558 C 0.25833 0.72745 0.23048 0.0
C559 C 0.29985 0.75138 0.21166 0.0
C560 C 0.22063 0.70786 0.20182 0.0
C561 C 0.30267 0.75573 0.16362 0.0
C562 C 0.26498 0.7376 0.13506 0.0
C563 C 0.18514 0.69528 0.12523 0.0
C564 C 0.1445 0.66963 0.14428 0.0
C565 C 0.22356 0.71366 0.15369 0.0
C566 C 0.14276 0.66316 0.192 0.0
C567 C 0.17998 0.68249 0.22046 0.0
H568 H 0.23018 0.53367 0.68217 0.0
H569 H 0.26048 0.41554 0.71618 0.0
H570 H 0.33201 0.43847 0.67303 0.0
H571 H 0.38889 0.49488 0.62867 0.0
H572 H 0.35796 0.61353 0.59735 0.0
H573 H 0.28514 0.58858 0.63709 0.0
C574 C 0.25228 0.51274 0.67987 0.0
C575 C 0.23952 0.47269 0.70264 0.0
C576 C 0.29411 0.52692 0.65616 0.0
C577 C 0.26871 0.44606 0.69874 0.0
C578 C 0.31007 0.45958 0.67448 0.0
C579 C 0.3663 0.51536 0.63091 0.0
C580 C 0.37952 0.5566 0.61048 0.0
C581 C 0.32372 0.50038 0.65373 0.0
C582 C 0.34923 0.58213 0.61307 0.0
C583 C 0.30732 0.56767 0.63565 0.0
H584 H 0.74212 0.86392 0.97511 0.0
H585 H 0.69483 0.77645 0.86154 0.0
H586 H 0.75084 0.73759 0.8803 0.0
H587 H 0.81824 0.7337 0.92455 0.0
H588 H 0.86663 0.82338 1.03684 0.0
H589 H 0.80517 0.85632 1.02332 0.0
C590 C 0.74297 0.83529 0.95578 0.0
C591 C 0.71391 0.82216 0.91777 0.0
C592 C 0.77609 0.81426 0.96596 0.0
C593 C 0.71653 0.78631 0.89144 0.0
C594 C 0.74876 0.76453 0.90191 0.0
C595 C 0.81482 0.75994 0.94654 0.0
C596 C 0.84725 0.77636 0.98132 0.0
C597 C 0.7795 0.77893 0.93841 0.0
C598 C 0.84263 0.81069 1.00927 0.0
C599 C 0.80734 0.82937 1.00177 0.0
H600 H 0.4624 0.84752 0.20472 0.0
H601 H 0.40755 0.89596 0.32253 0.0
H602 H 0.43998 0.97016 0.29642 0.0
H603 H 0.47753 1.0219 0.23405 0.0
H604 H 0.53067 0.97015 0.11623 0.0
H605 H 0.50501 0.89808 0.14732 0.0
C606 C 0.45966 0.87442 0.22605 0.0
C607 C 0.43366 0.86545 0.26674 0.0
C608 C 0.47654 0.91705 0.20933 0.0
C609 C 0.42876 0.90128 0.29231 0.0
C610 C 0.44634 0.94393 0.27647 0.0
C611 C 0.48325 0.99485 0.21507 0.0
C612 C 0.50572 1.00219 0.17195 0.0
C613 C 0.46897 0.95237 0.23397 0.0
C614 C 0.51336 0.96619 0.14896 0.0
C615 C 0.49886 0.92459 0.16696 0.0
H616 H 0.14652 0.34406 0.76449 0.0
H617 H 0.16489 0.42187 0.64369 0.0
H618 H 0.1434 0.35644 0.59494 0.0
H619 H 0.11646 0.27527 0.58627 0.0
H620 H 0.10057 0.19935 0.70905 0.0
H621 H 0.12301 0.26456 0.75609 0.0
C622 C 0.14598 0.34682 0.72746 0.0
C623 C 0.1575 0.38854 0.70822 0.0
C624 C 0.1334 0.30869 0.69945 0.0
C625 C 0.15681 0.39076 0.65989 0.0
C626 C 0.14406 0.35301 0.63187 0.0
C627 C 0.11789 0.27286 0.62329 0.0
C628 C 0.10632 0.23122 0.64337 0.0
C629 C 0.13179 0.31149 0.6511 0.0
C630 C 0.10905 0.22996 0.69175 0.0
C631 C 0.122 0.26766 0.71911 0.0
H632 H 0.81118 0.40789 0.50914 0.0
H633 H 0.73422 0.31347 0.60204 0.0
H634 H 0.67474 0.35077 0.60544 0.0
H635 H 0.63886 0.40192 0.57005 0.0
H636 H 0.71309 0.49144 0.47017 0.0
H637 H 0.77933 0.46461 0.48099 0.0
C638 C 0.78199 0.39662 0.53126 0.0
C639 C 0.77653 0.35815 0.55502 0.0
C640 C 0.74691 0.41659 0.53051 0.0
C641 C 0.73898 0.34333 0.5838 0.0
C642 C 0.7047 0.36418 0.585 0.0
C643 C 0.66964 0.41562 0.55084 0.0
C644 C 0.67084 0.44798 0.51873 0.0
C645 C 0.70723 0.39938 0.55645 0.0
C646 C 0.7113 0.46638 0.49498 0.0
C647 C 0.74915 0.45102 0.50107 0.0
loop_
_geom_bond_atom_site_label_1
_geom_bond_atom_site_label_2
_geom_bond_distance
_geom_bond_site_symmetry_2
_ccdc_geom_bond_type
C0 N1 1.317 . S
C0 N2 1.348 . S
C0 C3 1.485 . S
N1 C0 1.317 . S
N1 N5 1.370 . S
N2 C0 1.348 . S
N2 C4 1.346 . S
C3 C0 1.485 . S
C3 H7 0.960 . S
C3 H8 0.961 . S
C3 H9 0.960 . S
C4 N2 1.346 . S
C4 N5 1.307 . S
C4 C6 1.486 . S
N5 N1 1.370 . S
N5 C4 1.307 . S
C6 C4 1.486 . S
C6 H10 0.960 . S
C6 H11 0.960 . S
C6 H12 0.959 . S
H7 C3 0.960 . S
H8 C3 0.961 . S
H9 C3 0.960 . S
H10 C6 0.960 . S
H11 C6 0.960 . S
H12 C6 0.959 . S
C13 N14 1.317 . S
C13 N15 1.348 . S
C13 C16 1.485 . S
N14 C13 1.317 . S
N14 N18 1.370 . S
N15 C13 1.348 . S
N15 C17 1.346 . S
C16 C13 1.485 . S
C16 H20 0.960 . S
C16 H21 0.961 . S
C16 H22 0.960 . S
C17 N15 1.346 . S
C17 N18 1.307 . S
C17 C19 1.486 . S
N18 N14 1.370 . S
N18 C17 1.307 . S
C19 C17 1.486 . S
C19 H23 0.960 . S
C19 H24 0.960 . S
C19 H25 0.959 . S
H20 C16 0.960 . S
H21 C16 0.961 . S
H22 C16 0.960 . S
H23 C19 0.960 . S
H24 C19 0.960 . S
H25 C19 0.959 . S
C26 N27 1.317 . S
C26 N28 1.348 . S
C26 C29 1.485 . S
N27 C26 1.317 . S
N27 N31 1.370 . S
N28 C26 1.348 . S
N28 C30 1.346 . S
C29 C26 1.485 . S
C29 H33 0.960 . S
C29 H34 0.961 . S
C29 H35 0.960 . S
C30 N28 1.346 . S
C30 N31 1.307 . S
C30 C32 1.486 . S
N31 N27 1.370 . S
N31 C30 1.307 . S
C32 C30 1.486 . S
C32 H36 0.960 . S
C32 H37 0.960 . S
C32 H38 0.959 . S
H33 C29 0.960 . S
H34 C29 0.961 . S
H35 C29 0.960 . S
H36 C32 0.960 . S
H37 C32 0.960 . S
H38 C32 0.959 . S
C39 N40 1.317 . S
C39 N41 1.348 . S
C39 C42 1.485 . S
N40 C39 1.317 . S
N40 N44 1.370 . S
N41 C39 1.348 . S
N41 C43 1.346 . S
C42 C39 1.485 . S
C42 H46 0.960 . S
C42 H47 0.961 . S
C42 H48 0.960 . S
C43 N41 1.346 . S
C43 N44 1.307 . S
C43 C45 1.486 . S
N44 N40 1.370 . S
N44 C43 1.307 . S
C45 C43 1.486 . S
C45 H49 0.960 . S
C45 H50 0.960 . S
C45 H51 0.959 . S
H46 C42 0.960 . S
H47 C42 0.961 . S
H48 C42 0.960 . S
H49 C45 0.960 . S
H50 C45 0.960 . S
H51 C45 0.959 . S
C52 N53 1.317 . S
C52 N54 1.348 . S
C52 C55 1.485 . S
N53 C52 1.317 . S
N53 N57 1.370 . S
N54 C52 1.348 . S
N54 C56 1.346 . S
C55 C52 1.485 . S
C55 H59 0.960 . S
C55 H60 0.961 . S
C55 H61 0.960 . S
C56 N54 1.346 . S
C56 N57 1.307 . S
C56 C58 1.486 . S
N57 N53 1.370 . S
N57 C56 1.307 . S
C58 C56 1.486 . S
C58 H62 0.960 . S
C58 H63 0.960 . S
C58 H64 0.959 . S
H59 C55 0.960 . S
H60 C55 0.961 . S
H61 C55 0.960 . S
H62 C58 0.960 . S
H63 C58 0.960 . S
H64 C58 0.959 . S
C65 N66 1.317 . S
C65 N67 1.348 . S
C65 C68 1.485 . S
N66 C65 1.317 . S
N66 N70 1.370 . S
N67 C65 1.348 . S
N67 C69 1.346 . S
C68 C65 1.485 . S
C68 H72 0.960 . S
C68 H73 0.961 . S
C68 H74 0.960 . S
C69 N67 1.346 . S
C69 N70 1.307 . S
C69 C71 1.486 . S
N70 N66 1.370 . S
N70 C69 1.307 . S
C71 C69 1.486 . S
C71 H75 0.960 . S
C71 H76 0.960 . S
C71 H77 0.959 . S
H72 C68 0.960 . S
H73 C68 0.961 . S
H74 C68 0.960 . S
H75 C71 0.960 . S
H76 C71 0.960 . S
H77 C71 0.959 . S
C78 N79 1.317 . S
C78 N80 1.348 . S
C78 C81 1.485 . S
N79 C78 1.317 . S
N79 N83 1.370 . S
N80 C78 1.348 . S
N80 C82 1.346 . S
C81 C78 1.485 . S
C81 H85 0.960 . S
C81 H86 0.961 . S
C81 H87 0.960 . S
C82 N80 1.346 . S
C82 N83 1.307 . S
C82 C84 1.486 . S
N83 N79 1.370 . S
N83 C82 1.307 . S
C84 C82 1.486 . S
C84 H88 0.960 . S
C84 H89 0.960 . S
C84 H90 0.959 . S
H85 C81 0.960 . S
H86 C81 0.961 . S
H87 C81 0.960 . S
H88 C84 0.960 . S
H89 C84 0.960 . S
H90 C84 0.959 . S
C91 N92 1.317 . S
C91 N93 1.348 . S
C91 C94 1.485 . S
N92 C91 1.317 . S
N92 N96 1.370 . S
N93 C91 1.348 . S
N93 C95 1.346 . S
C94 C91 1.485 . S
C94 H98 0.960 . S
C94 H99 0.961 . S
C94 H100 0.960 . S
C95 N93 1.346 . S
C95 N96 1.307 . S
C95 C97 1.486 . S
N96 N92 1.370 . S
N96 C95 1.307 . S
C97 C95 1.486 . S
C97 H101 0.960 . S
C97 H102 0.960 . S
C97 H103 0.959 . S
H98 C94 0.960 . S
H99 C94 0.961 . S
H100 C94 0.960 . S
H101 C97 0.960 . S
H102 C97 0.960 . S
H103 C97 0.959 . S
Sm104 C106 2.846 . S
Sm104 O124 2.543 . S
Sm104 O125 2.450 . S
Sm104 O126 2.685 . S
Sm104 O127 2.464 . S
Sm104 O128 2.396 . S
Sm104 O132 2.386 . S
Sm104 O135 2.408 1_545 S
Sm105 C115 2.846 1_545 S
Sm105 O126 2.390 1_655 S
Sm105 O129 2.408 1_655 S
Sm105 O130 2.543 1_545 S
Sm105 O131 2.450 1_545 S
Sm105 O132 2.681 1_655 S
Sm105 O133 2.464 . S
Sm105 O134 2.396 1_545 S
C106 Sm104 2.846 . S
C106 C107 1.506 . S
C106 O124 1.261 . S
C106 O125 1.242 . S
C107 C106 1.506 . S
C107 C108 1.358 . S
C107 C112 1.382 . S
C108 C107 1.358 . S
C108 C109 1.385 . S
C108 H136 0.930 . S
C109 C108 1.385 . S
C109 C110 1.395 . S
C109 H137 0.929 . S
C110 C109 1.395 . S
C110 C111 1.335 . S
C111 C110 1.335 . S
C111 C112 1.398 . S
C111 H138 0.930 . S
C112 C107 1.382 . S
C112 C111 1.398 . S
C112 H139 0.929 . S
C113 O126 1.268 1_565 S
C113 O127 1.251 1_565 S
C114 O128 1.252 . S
C114 O129 1.272 . S
C115 Sm105 2.846 1_565 S
C115 C116 1.506 . S
C115 O130 1.261 . S
C115 O131 1.242 . S
C116 C115 1.506 . S
C116 C117 1.358 . S
C116 C121 1.382 . S
C117 C116 1.358 . S
C117 C118 1.385 . S
C117 H140 0.930 . S
C118 C117 1.385 . S
C118 C119 1.395 . S
C118 H141 0.929 . S
C119 C118 1.395 . S
C119 C120 1.335 . S
C120 C119 1.335 . S
C120 C121 1.398 . S
C120 H142 0.930 . S
C121 C116 1.382 . S
C121 C120 1.398 . S
C121 H143 0.929 . S
C122 O132 1.271 1_655 S
C122 O133 1.251 . S
C123 O134 1.252 . S
C123 O135 1.272 1_655 S
O124 Sm104 2.543 . S
O124 C106 1.261 . S
O125 Sm104 2.450 . S
O125 C106 1.242 . S
O126 Sm104 2.685 . S
O126 Sm105 2.390 1_455 S
O126 C113 1.268 1_545 S
O127 Sm104 2.464 . S
O127 C113 1.251 1_545 S
O128 Sm104 2.396 . S
O128 C114 1.252 . S
O129 Sm105 2.408 1_455 S
O129 C114 1.272 . S
O130 Sm105 2.543 1_565 S
O130 C115 1.261 . S
O131 Sm105 2.450 1_565 S
O131 C115 1.242 . S
O132 Sm104 2.386 . S
O132 Sm105 2.681 1_455 S
O132 C122 1.271 1_455 S
O133 Sm105 2.464 . S
O133 C122 1.251 . S
O134 Sm105 2.396 1_565 S
O134 C123 1.252 . S
O135 Sm104 2.408 1_565 S
O135 C123 1.272 1_455 S
H136 C108 0.930 . S
H137 C109 0.929 . S
H138 C111 0.930 . S
H139 C112 0.929 . S
H140 C117 0.930 . S
H141 C118 0.929 . S
H142 C120 0.930 . S
H143 C121 0.929 . S
Sm144 C146 2.846 . S
Sm144 O164 2.543 . S
Sm144 O165 2.450 . S
Sm144 O166 2.681 . S
Sm144 O167 2.464 1_545 S
Sm144 O168 2.396 . S
Sm144 O172 2.386 . S
Sm144 O175 2.408 . S
Sm145 C155 2.846 1_554 S
Sm145 O166 2.386 . S
Sm145 O169 2.408 . S
Sm145 O170 2.543 1_544 S
Sm145 O171 2.450 1_554 S
Sm145 O172 2.681 . S
Sm145 O173 2.464 1_554 S
Sm145 O174 2.396 1_554 S
C146 Sm144 2.846 . S
C146 C147 1.506 . S
C146 O164 1.261 . S
C146 O165 1.242 . S
C147 C146 1.506 . S
C147 C148 1.358 . S
C147 C152 1.382 . S
C148 C147 1.358 . S
C148 C149 1.385 . S
C148 H176 0.930 . S
C149 C148 1.385 . S
C149 C150 1.395 . S
C149 H177 0.929 . S
C150 C149 1.395 . S
C150 C151 1.335 . S
C151 C150 1.335 . S
C151 C152 1.398 . S
C151 H178 0.930 . S
C152 C147 1.382 . S
C152 C151 1.398 . S
C152 H179 0.929 . S
C153 O166 1.271 1_565 S
C153 O167 1.251 . S
C154 O168 1.252 . S
C154 O169 1.272 . S
C155 Sm145 2.846 1_556 S
C155 C156 1.506 1_545 S
C155 O170 1.261 1_545 S
C155 O171 1.242 . S
C156 C155 1.506 1_565 S
C156 C157 1.358 . S
C156 C161 1.382 . S
C157 C156 1.358 . S
C157 C158 1.385 . S
C157 H180 0.930 . S
C158 C157 1.385 . S
C158 C159 1.395 . S
C158 H181 0.929 . S
C159 C158 1.395 . S
C159 C160 1.335 . S
C160 C159 1.335 . S
C160 C161 1.398 . S
C160 H182 0.930 . S
C161 C156 1.382 . S
C161 C160 1.398 . S
C161 H183 0.929 1_565 S
C162 O172 1.271 . S
C162 O173 1.251 1_554 S
C163 O174 1.257 . S
C163 O175 1.259 1_556 S
O164 Sm144 2.543 . S
O164 C146 1.261 . S
O165 Sm144 2.450 . S
O165 C146 1.242 . S
O166 Sm144 2.681 . S
O166 Sm145 2.386 . S
O166 C153 1.271 1_545 S
O167 Sm144 2.464 1_565 S
O167 C153 1.251 . S
O168 Sm144 2.396 . S
O168 C154 1.252 . S
O169 Sm145 2.408 . S
O169 C154 1.272 . S
O170 Sm145 2.543 1_566 S
O170 C155 1.261 1_565 S
O171 Sm145 2.450 1_556 S
O171 C155 1.242 . S
O172 Sm144 2.386 . S
O172 Sm145 2.681 . S
O172 C162 1.271 . S
O173 Sm145 2.464 1_556 S
O173 C162 1.251 1_556 S
O174 Sm145 2.396 1_556 S
O174 C163 1.257 . S
O175 Sm144 2.408 . S
O175 C163 1.259 1_554 S
H176 C148 0.930 . S
H177 C149 0.929 . S
H178 C151 0.930 . S
H179 C152 0.929 . S
H180 C157 0.930 . S
H181 C158 0.929 . S
H182 C160 0.930 . S
H183 C161 0.929 1_545 S
Sm184 C186 2.846 . S
Sm184 O204 2.543 . S
Sm184 O205 2.450 . S
Sm184 O206 2.681 . S
Sm184 O207 2.464 . S
Sm184 O208 2.396 . S
Sm184 O212 2.386 . S
Sm184 O215 2.408 . S
Sm185 C195 2.846 . S
Sm185 O206 2.386 . S
Sm185 O209 2.408 . S
Sm185 O210 2.543 . S
Sm185 O211 2.450 . S
Sm185 O212 2.681 . S
Sm185 O213 2.464 . S
Sm185 O214 2.396 . S
C186 Sm184 2.846 . S
C186 C187 1.506 . S
C186 O204 1.261 . S
C186 O205 1.242 . S
C187 C186 1.506 . S
C187 C188 1.358 . S
C187 C192 1.382 . S
C188 C187 1.358 . S
C188 C189 1.385 . S
C188 H216 0.930 . S
C189 C188 1.385 . S
C189 C190 1.395 . S
C189 H217 0.929 . S
C190 C189 1.395 . S
C190 C191 1.335 . S
C191 C190 1.335 . S
C191 C192 1.398 . S
C191 H218 0.930 . S
C192 C187 1.382 . S
C192 C191 1.398 . S
C192 H219 0.929 . S
C193 O206 1.271 . S
C193 O207 1.251 . S
C194 O208 1.252 . S
C194 O209 1.272 . S
C195 Sm185 2.846 . S
C195 C196 1.506 . S
C195 O210 1.261 . S
C195 O211 1.242 . S
C196 C195 1.506 . S
C196 C197 1.358 . S
C196 C201 1.382 . S
C197 C196 1.358 . S
C197 C198 1.385 . S
C197 H220 0.930 . S
C198 C197 1.385 . S
C198 C199 1.395 . S
C198 H221 0.929 . S
C199 C198 1.395 . S
C199 C200 1.335 . S
C200 C199 1.335 . S
C200 C201 1.398 . S
C200 H222 0.930 . S
C201 C196 1.382 . S
C201 C200 1.398 . S
C201 H223 0.929 . S
C202 O212 1.271 . S
C202 O213 1.251 . S
C203 O214 1.252 . S
C203 O215 1.272 . S
O204 Sm184 2.543 . S
O204 C186 1.261 . S
O205 Sm184 2.450 . S
O205 C186 1.242 . S
O206 Sm184 2.681 . S
O206 Sm185 2.386 . S
O206 C193 1.271 . S
O207 Sm184 2.464 . S
O207 C193 1.251 . S
O208 Sm184 2.396 . S
O208 C194 1.252 . S
O209 Sm185 2.408 . S
O209 C194 1.272 . S
O210 Sm185 2.543 . S
O210 C195 1.261 . S
O211 Sm185 2.450 . S
O211 C195 1.242 . S
O212 Sm184 2.386 . S
O212 Sm185 2.681 . S
O212 C202 1.271 . S
O213 Sm185 2.464 . S
O213 C202 1.251 . S
O214 Sm185 2.396 . S
O214 C203 1.252 . S
O215 Sm184 2.408 . S
O215 C203 1.272 . S
H216 C188 0.930 . S
H217 C189 0.929 . S
H218 C191 0.930 . S
H219 C192 0.929 . S
H220 C197 0.930 . S
H221 C198 0.929 . S
H222 C200 0.930 . S
H223 C201 0.929 . S
Sm224 C226 2.846 . S
Sm224 O244 2.543 . S
Sm224 O245 2.450 . S
Sm224 O246 2.681 1_455 S
Sm224 O247 2.464 1_455 S
Sm224 O248 2.396 . S
Sm224 O252 2.386 1_554 S
Sm224 O255 2.408 1_455 S
Sm225 C235 2.846 . S
Sm225 O246 2.386 1_556 S
Sm225 O249 2.408 1_656 S
Sm225 O250 2.543 . S
Sm225 O251 2.450 . S
Sm225 O252 2.681 1_655 S
Sm225 O253 2.464 1_655 S
Sm225 O254 2.396 . S
C226 Sm224 2.846 . S
C226 C227 1.506 . S
C226 O244 1.261 . S
C226 O245 1.242 . S
C227 C226 1.506 . S
C227 C228 1.358 . S
C227 C232 1.382 . S
C228 C227 1.358 . S
C228 C229 1.385 . S
C228 H256 0.930 . S
C229 C228 1.385 . S
C229 C230 1.395 . S
C229 H257 0.929 . S
C230 C229 1.395 . S
C230 C231 1.335 . S
C231 C230 1.335 . S
C231 C232 1.398 . S
C231 H258 0.930 . S
C232 C227 1.382 . S
C232 C231 1.398 . S
C232 H259 0.929 . S
C233 O246 1.271 . S
C233 O247 1.251 . S
C234 O248 1.252 . S
C234 O249 1.272 . S
C235 Sm225 2.846 . S
C235 C236 1.506 . S
C235 O250 1.261 . S
C235 O251 1.242 . S
C236 C235 1.506 . S
C236 C237 1.358 . S
C236 C241 1.382 . S
C237 C236 1.358 . S
C237 C238 1.385 . S
C237 H260 0.930 . S
C238 C237 1.385 . S
C238 C239 1.395 . S
C238 H261 0.929 . S
C239 C238 1.395 . S
C239 C240 1.335 . S
C240 C239 1.335 . S
C240 C241 1.398 . S
C240 H262 0.930 . S
C241 C236 1.382 . S
C241 C240 1.398 . S
C241 H263 0.929 . S
C242 O252 1.271 . S
C242 O253 1.251 . S
C243 O254 1.252 . S
C243 O255 1.272 1_556 S
O244 Sm224 2.543 . S
O244 C226 1.261 . S
O245 Sm224 2.450 . S
O245 C226 1.242 . S
O246 Sm224 2.681 1_655 S
O246 Sm225 2.386 1_554 S
O246 C233 1.271 . S
O247 Sm224 2.464 1_655 S
O247 C233 1.251 . S
O248 Sm224 2.396 . S
O248 C234 1.252 . S
O249 Sm225 2.408 1_454 S
O249 C234 1.272 . S
O250 Sm225 2.543 . S
O250 C235 1.261 . S
O251 Sm225 2.450 . S
O251 C235 1.242 . S
O252 Sm224 2.386 1_556 S
O252 Sm225 2.681 1_455 S
O252 C242 1.271 . S
O253 Sm225 2.464 1_455 S
O253 C242 1.251 . S
O254 Sm225 2.396 . S
O254 C243 1.252 . S
O255 Sm224 2.408 1_655 S
O255 C243 1.272 1_554 S
H256 C228 0.930 . S
H257 C229 0.929 . S
H258 C231 0.930 . S
H259 C232 0.929 . S
H260 C237 0.930 . S
H261 C238 0.929 . S
H262 C240 0.930 . S
H263 C241 0.929 . S
H264 C270 0.930 . S
H265 C273 0.930 . S
H266 C274 0.930 . S
H267 C275 0.930 . S
H268 C278 0.930 . S
H269 C279 0.930 . S
C270 H264 0.930 . S
C270 C271 1.355 . S
C270 C272 1.415 . S
C271 C270 1.355 . S
C271 C273 1.419 . S
C272 C270 1.415 . S
C272 C277 1.425 . S
C272 C279 1.409 . S
C273 H265 0.930 . S
C273 C271 1.419 . S
C273 C274 1.362 . S
C274 H266 0.930 . S
C274 C273 1.362 . S
C274 C277 1.409 . S
C275 H267 0.930 . S
C275 C276 1.355 . S
C275 C277 1.415 . S
C276 C275 1.355 . S
C276 C278 1.419 . S
C277 C272 1.425 . S
C277 C274 1.409 . S
C277 C275 1.415 . S
C278 H268 0.930 . S
C278 C276 1.419 . S
C278 C279 1.362 . S
C279 H269 0.930 . S
C279 C272 1.409 . S
C279 C278 1.362 . S
H280 C286 0.930 . S
H281 C289 0.930 . S
H282 C290 0.930 . S
H283 C291 0.930 . S
H284 C294 0.930 . S
H285 C295 0.930 . S
C286 H280 0.930 . S
C286 C287 1.355 . S
C286 C288 1.415 . S
C287 C286 1.355 . S
C287 C289 1.419 . S
C288 C286 1.415 . S
C288 C293 1.425 . S
C288 C295 1.409 . S
C289 H281 0.930 . S
C289 C287 1.419 . S
C289 C290 1.362 . S
C290 H282 0.930 . S
C290 C289 1.362 . S
C290 C293 1.409 . S
C291 H283 0.930 . S
C291 C292 1.355 . S
C291 C293 1.415 . S
C292 C291 1.355 . S
C292 C294 1.419 . S
C293 C288 1.425 . S
C293 C290 1.409 . S
C293 C291 1.415 . S
C294 H284 0.930 . S
C294 C292 1.419 . S
C294 C295 1.362 . S
C295 H285 0.930 . S
C295 C288 1.409 . S
C295 C294 1.362 . S
H296 C302 0.930 . S
H297 C305 0.930 . S
H298 C306 0.930 . S
H299 C307 0.930 . S
H300 C310 0.930 . S
H301 C311 0.930 . S
C302 H296 0.930 . S
C302 C303 1.355 . S
C302 C304 1.415 . S
C303 C302 1.355 . S
C303 C305 1.419 . S
C304 C302 1.415 . S
C304 C309 1.425 . S
C304 C311 1.409 . S
C305 H297 0.930 . S
C305 C303 1.419 . S
C305 C306 1.362 . S
C306 H298 0.930 . S
C306 C305 1.362 . S
C306 C309 1.409 . S
C307 H299 0.930 . S
C307 C308 1.355 . S
C307 C309 1.415 . S
C308 C307 1.355 . S
C308 C310 1.419 . S
C309 C304 1.425 . S
C309 C306 1.409 . S
C309 C307 1.415 . S
C310 H300 0.930 . S
C310 C308 1.419 . S
C310 C311 1.362 . S
C311 H301 0.930 . S
C311 C304 1.409 . S
C311 C310 1.362 . S
H312 C318 0.930 . S
H313 C321 0.930 . S
H314 C322 0.930 . S
H315 C323 0.930 . S
H316 C326 0.930 . S
H317 C327 0.930 . S
C318 H312 0.930 . S
C318 C319 1.355 . S
C318 C320 1.415 . S
C319 C318 1.355 . S
C319 C321 1.419 . S
C320 C318 1.415 . S
C320 C325 1.425 . S
C320 C327 1.409 . S
C321 H313 0.930 . S
C321 C319 1.419 . S
C321 C322 1.362 . S
C322 H314 0.930 . S
C322 C321 1.362 . S
C322 C325 1.409 . S
C323 H315 0.930 . S
C323 C324 1.355 . S
C323 C325 1.415 . S
C324 C323 1.355 . S
C324 C326 1.419 . S
C325 C320 1.425 . S
C325 C322 1.409 . S
C325 C323 1.415 . S
C326 H316 0.930 . S
C326 C324 1.419 . S
C326 C327 1.362 . S
C327 H317 0.930 . S
C327 C320 1.409 . S
C327 C326 1.362 . S
H328 C334 0.930 . S
H329 C337 0.930 . S
H330 C338 0.930 . S
H331 C339 0.930 . S
H332 C342 0.930 . S
H333 C343 0.930 . S
C334 H328 0.930 . S
C334 C335 1.355 . S
C334 C336 1.415 . S
C335 C334 1.355 . S
C335 C337 1.419 . S
C336 C334 1.415 . S
C336 C341 1.425 . S
C336 C343 1.409 . S
C337 H329 0.930 . S
C337 C335 1.419 . S
C337 C338 1.362 . S
C338 H330 0.930 . S
C338 C337 1.362 . S
C338 C341 1.409 . S
C339 H331 0.930 . S
C339 C340 1.355 . S
C339 C341 1.415 . S
C340 C339 1.355 . S
C340 C342 1.419 . S
C341 C336 1.425 . S
C341 C338 1.409 . S
C341 C339 1.415 . S
C342 H332 0.930 . S
C342 C340 1.419 . S
C342 C343 1.362 . S
C343 H333 0.930 . S
C343 C336 1.409 . S
C343 C342 1.362 . S
H344 C350 0.930 . S
H345 C353 0.930 . S
H346 C354 0.930 . S
H347 C355 0.930 . S
H348 C358 0.930 . S
H349 C359 0.930 1_545 S
C350 H344 0.930 . S
C350 C351 1.355 . S
C350 C352 1.415 . S
C351 C350 1.355 . S
C351 C353 1.419 . S
C352 C350 1.415 . S
C352 C357 1.425 . S
C352 C359 1.409 . S
C353 H345 0.930 . S
C353 C351 1.419 . S
C353 C354 1.362 . S
C354 H346 0.930 . S
C354 C353 1.362 . S
C354 C357 1.409 . S
C355 H347 0.930 . S
C355 C356 1.355 . S
C355 C357 1.415 . S
C356 C355 1.355 . S
C356 C358 1.419 1_565 S
C357 C352 1.425 . S
C357 C354 1.409 . S
C357 C355 1.415 . S
C358 H348 0.930 . S
C358 C356 1.419 1_545 S
C358 C359 1.362 1_545 S
C359 H349 0.930 1_565 S
C359 C352 1.409 . S
C359 C358 1.362 1_565 S
H360 C366 0.930 . S
H361 C369 0.930 . S
H362 C370 0.930 . S
H363 C371 0.957 . S
H364 C374 0.930 . S
H365 C375 0.930 . S
C366 H360 0.930 . S
C366 C367 1.355 . S
C366 C368 1.415 . S
C367 C366 1.355 . S
C367 C369 1.419 . S
C368 C366 1.415 . S
C368 C373 1.425 . S
C368 C375 1.409 . S
C369 H361 0.930 . S
C369 C367 1.419 . S
C369 C370 1.362 . S
C370 H362 0.930 . S
C370 C369 1.362 . S
C370 C373 1.409 . S
C371 H363 0.957 . S
C371 C372 1.355 . S
C371 C373 1.415 . S
C372 C371 1.355 . S
C372 C374 1.419 . S
C373 C368 1.425 . S
C373 C370 1.409 . S
C373 C371 1.415 . S
C374 H364 0.930 . S
C374 C372 1.419 . S
C374 C375 1.362 . S
C375 H365 0.930 . S
C375 C368 1.409 . S
C375 C374 1.362 . S
H376 C382 0.930 . S
H377 C385 0.930 . S
H378 C386 0.930 . S
H379 C387 0.930 . S
H380 C390 0.930 . S
H381 C391 0.930 . S
C382 H376 0.930 . S
C382 C383 1.355 . S
C382 C384 1.415 . S
C383 C382 1.355 . S
C383 C385 1.419 . S
C384 C382 1.415 . S
C384 C389 1.425 . S
C384 C391 1.409 . S
C385 H377 0.930 . S
C385 C383 1.419 . S
C385 C386 1.362 . S
C386 H378 0.930 . S
C386 C385 1.362 . S
C386 C389 1.409 . S
C387 H379 0.930 . S
C387 C388 1.355 . S
C387 C389 1.415 . S
C388 C387 1.355 . S
C388 C390 1.419 . S
C389 C384 1.425 . S
C389 C386 1.409 . S
C389 C387 1.415 . S
C390 H380 0.930 . S
C390 C388 1.419 . S
C390 C391 1.362 . S
C391 H381 0.930 . S
C391 C384 1.409 . S
C391 C390 1.362 . S
H392 C398 0.930 . S
H393 C401 0.930 . S
H394 C402 0.930 . S
H395 C403 0.930 . S
H396 C406 0.930 . S
H397 C407 0.930 . S
C398 H392 0.930 . S
C398 C399 1.355 . S
C398 C400 1.415 . S
C399 C398 1.355 . S
C399 C401 1.419 . S
C400 C398 1.415 . S
C400 C405 1.425 . S
C400 C407 1.409 . S
C401 H393 0.930 . S
C401 C399 1.419 . S
C401 C402 1.362 . S
C402 H394 0.930 . S
C402 C401 1.362 . S
C402 C405 1.409 . S
C403 H395 0.930 . S
C403 C404 1.355 . S
C403 C405 1.415 . S
C404 C403 1.355 . S
C404 C406 1.419 . S
C405 C400 1.425 . S
C405 C402 1.409 . S
C405 C403 1.415 . S
C406 H396 0.930 . S
C406 C404 1.419 . S
C406 C407 1.362 . S
C407 H397 0.930 . S
C407 C400 1.409 . S
C407 C406 1.362 . S
H408 C414 0.930 . S
H409 C417 0.930 . S
H410 C418 0.930 . S
H411 C419 0.930 . S
H412 C422 0.916 1_554 S
H413 C423 0.930 . S
C414 H408 0.930 . S
C414 C415 1.355 . S
C414 C416 1.415 . S
C415 C414 1.355 . S
C415 C417 1.419 . S
C416 C414 1.415 . S
C416 C421 1.425 . S
C416 C423 1.409 . S
C417 H409 0.930 . S
C417 C415 1.419 . S
C417 C418 1.362 . S
C418 H410 0.930 . S
C418 C417 1.362 . S
C418 C421 1.409 . S
C419 H411 0.930 . S
C419 C420 1.355 . S
C419 C421 1.415 . S
C420 C419 1.355 . S
C420 C422 1.419 . S
C421 C416 1.425 . S
C421 C418 1.409 . S
C421 C419 1.415 . S
C422 H412 0.916 1_556 S
C422 C420 1.419 . S
C422 C423 1.362 . S
C423 H413 0.930 . S
C423 C416 1.409 . S
C423 C422 1.362 . S
H424 C430 0.930 . S
H425 C433 0.930 . S
H426 C434 0.930 . S
H427 C435 0.930 . S
H428 C438 0.930 1_455 S
H429 C439 0.930 . S
C430 H424 0.930 . S
C430 C431 1.355 . S
C430 C432 1.415 . S
C431 C430 1.355 . S
C431 C433 1.419 . S
C432 C430 1.415 . S
C432 C437 1.425 . S
C432 C439 1.409 . S
C433 H425 0.930 . S
C433 C431 1.419 . S
C433 C434 1.362 . S
C434 H426 0.930 . S
C434 C433 1.362 . S
C434 C437 1.409 . S
C435 H427 0.930 . S
C435 C436 1.355 . S
C435 C437 1.415 . S
C436 C435 1.355 . S
C436 C438 1.419 . S
C437 C432 1.425 . S
C437 C434 1.409 . S
C437 C435 1.415 . S
C438 H428 0.930 1_655 S
C438 C436 1.419 . S
C438 C439 1.362 . S
C439 H429 0.930 . S
C439 C432 1.409 . S
C439 C438 1.362 . S
H440 C446 0.930 . S
H441 C449 0.930 . S
H442 C450 0.930 . S
H443 C451 0.930 . S
H444 C454 0.930 . S
H445 C455 0.930 . S
C446 H440 0.930 . S
C446 C447 1.355 . S
C446 C448 1.415 . S
C447 C446 1.355 . S
C447 C449 1.419 . S
C448 C446 1.415 . S
C448 C453 1.425 . S
C448 C455 1.409 . S
C449 H441 0.930 . S
C449 C447 1.419 . S
C449 C450 1.362 . S
C450 H442 0.930 . S
C450 C449 1.362 . S
C450 C453 1.409 . S
C451 H443 0.930 . S
C451 C452 1.355 . S
C451 C453 1.415 . S
C452 C451 1.355 . S
C452 C454 1.419 . S
C453 C448 1.425 . S
C453 C450 1.409 . S
C453 C451 1.415 . S
C454 H444 0.930 . S
C454 C452 1.419 . S
C454 C455 1.362 . S
C455 H445 0.930 . S
C455 C448 1.409 . S
C455 C454 1.362 . S
H456 C462 0.930 . S
H457 C465 0.930 . S
H458 C466 0.930 . S
H459 C467 0.930 . S
H460 C470 0.930 . S
H461 C471 0.930 . S
C462 H456 0.930 . S
C462 C463 1.355 . S
C462 C464 1.415 . S
C463 C462 1.355 . S
C463 C465 1.419 . S
C464 C462 1.415 . S
C464 C469 1.425 . S
C464 C471 1.409 . S
C465 H457 0.930 . S
C465 C463 1.419 . S
C465 C466 1.362 . S
C466 H458 0.930 . S
C466 C465 1.362 . S
C466 C469 1.409 . S
C467 H459 0.930 . S
C467 C468 1.355 . S
C467 C469 1.415 . S
C468 C467 1.355 . S
C468 C470 1.419 . S
C469 C464 1.425 . S
C469 C466 1.409 . S
C469 C467 1.415 . S
C470 H460 0.930 . S
C470 C468 1.419 . S
C470 C471 1.362 . S
C471 H461 0.930 . S
C471 C464 1.409 . S
C471 C470 1.362 . S
H472 C478 0.930 . S
H473 C481 0.930 . S
H474 C482 0.930 . S
H475 C483 0.930 . S
H476 C486 0.930 . S
H477 C487 0.930 . S
C478 H472 0.930 . S
C478 C479 1.355 . S
C478 C480 1.415 . S
C479 C478 1.355 . S
C479 C481 1.419 . S
C480 C478 1.415 . S
C480 C485 1.425 . S
C480 C487 1.409 . S
C481 H473 0.930 . S
C481 C479 1.419 . S
C481 C482 1.362 . S
C482 H474 0.930 . S
C482 C481 1.362 . S
C482 C485 1.409 . S
C483 H475 0.930 . S
C483 C484 1.355 . S
C483 C485 1.415 . S
C484 C483 1.355 . S
C484 C486 1.419 . S
C485 C480 1.425 . S
C485 C482 1.409 . S
C485 C483 1.415 . S
C486 H476 0.930 . S
C486 C484 1.419 . S
C486 C487 1.362 . S
C487 H477 0.930 . S
C487 C480 1.409 . S
C487 C486 1.362 . S
H488 C494 0.930 . S
H489 C497 0.930 . S
H490 C498 0.930 . S
H491 C499 0.930 . S
H492 C502 0.930 . S
H493 C503 0.930 . S
C494 H488 0.930 . S
C494 C495 1.355 . S
C494 C496 1.415 . S
C495 C494 1.355 . S
C495 C497 1.419 . S
C496 C494 1.415 . S
C496 C501 1.425 . S
C496 C503 1.409 . S
C497 H489 0.930 . S
C497 C495 1.419 . S
C497 C498 1.362 . S
C498 H490 0.930 . S
C498 C497 1.362 . S
C498 C501 1.409 . S
C499 H491 0.930 . S
C499 C500 1.355 . S
C499 C501 1.415 . S
C500 C499 1.355 . S
C500 C502 1.419 . S
C501 C496 1.425 . S
C501 C498 1.409 . S
C501 C499 1.415 . S
C502 H492 0.930 . S
C502 C500 1.419 . S
C502 C503 1.362 . S
C503 H493 0.930 . S
C503 C496 1.409 . S
C503 C502 1.362 . S
H504 C510 0.930 . S
H505 C513 0.930 . S
H506 C514 0.930 . S
H507 C515 0.930 . S
H508 C518 0.930 . S
H509 C519 0.930 . S
C510 H504 0.930 . S
C510 C511 1.355 . S
C510 C512 1.415 . S
C511 C510 1.355 . S
C511 C513 1.419 . S
C512 C510 1.415 . S
C512 C517 1.425 . S
C512 C519 1.409 . S
C513 H505 0.930 . S
C513 C511 1.419 . S
C513 C514 1.362 . S
C514 H506 0.930 . S
C514 C513 1.362 . S
C514 C517 1.409 . S
C515 H507 0.930 . S
C515 C516 1.355 . S
C515 C517 1.415 . S
C516 C515 1.355 . S
C516 C518 1.419 . S
C517 C512 1.425 . S
C517 C514 1.409 . S
C517 C515 1.415 . S
C518 H508 0.930 . S
C518 C516 1.419 . S
C518 C519 1.362 . S
C519 H509 0.930 . S
C519 C512 1.409 . S
C519 C518 1.362 . S
H520 C526 0.930 . S
H521 C529 0.930 . S
H522 C530 0.930 . S
H523 C531 0.930 . S
H524 C534 0.930 . S
H525 C535 0.930 . S
C526 H520 0.930 . S
C526 C527 1.355 . S
C526 C528 1.415 . S
C527 C526 1.355 . S
C527 C529 1.419 . S
C528 C526 1.415 . S
C528 C533 1.425 . S
C528 C535 1.409 . S
C529 H521 0.930 . S
C529 C527 1.419 . S
C529 C530 1.362 . S
C530 H522 0.930 . S
C530 C529 1.362 . S
C530 C533 1.409 . S
C531 H523 0.930 . S
C531 C532 1.355 . S
C531 C533 1.415 . S
C532 C531 1.355 . S
C532 C534 1.419 . S
C533 C528 1.425 . S
C533 C530 1.409 . S
C533 C531 1.415 . S
C534 H524 0.930 . S
C534 C532 1.419 . S
C534 C535 1.362 . S
C535 H525 0.930 . S
C535 C528 1.409 . S
C535 C534 1.362 . S
H536 C542 0.930 . S
H537 C545 0.930 . S
H538 C546 0.930 . S
H539 C547 0.930 . S
H540 C550 0.930 . S
H541 C551 0.930 . S
C542 H536 0.930 . S
C542 C543 1.355 . S
C542 C544 1.415 . S
C543 C542 1.355 . S
C543 C545 1.419 . S
C544 C542 1.415 . S
C544 C549 1.425 . S
C544 C551 1.409 . S
C545 H537 0.930 . S
C545 C543 1.419 . S
C545 C546 1.362 . S
C546 H538 0.930 . S
C546 C545 1.362 . S
C546 C549 1.409 . S
C547 H539 0.930 . S
C547 C548 1.355 . S
C547 C549 1.415 . S
C548 C547 1.355 . S
C548 C550 1.419 . S
C549 C544 1.425 . S
C549 C546 1.409 . S
C549 C547 1.415 . S
C550 H540 0.930 . S
C550 C548 1.419 . S
C550 C551 1.362 . S
C551 H541 0.930 . S
C551 C544 1.409 . S
C551 C550 1.362 . S
H552 C558 0.930 . S
H553 C561 0.930 . S
H554 C562 0.930 . S
H555 C563 0.930 . S
H556 C566 0.930 . S
H557 C567 0.930 . S
C558 H552 0.930 . S
C558 C559 1.355 . S
C558 C560 1.415 . S
C559 C558 1.355 . S
C559 C561 1.419 . S
C560 C558 1.415 . S
C560 C565 1.425 . S
C560 C567 1.409 . S
C561 H553 0.930 . S
C561 C559 1.419 . S
C561 C562 1.362 . S
C562 H554 0.930 . S
C562 C561 1.362 . S
C562 C565 1.409 . S
C563 H555 0.930 . S
C563 C564 1.355 . S
C563 C565 1.415 . S
C564 C563 1.355 . S
C564 C566 1.419 . S
C565 C560 1.425 . S
C565 C562 1.409 . S
C565 C563 1.415 . S
C566 H556 0.930 . S
C566 C564 1.419 . S
C566 C567 1.362 . S
C567 H557 0.930 . S
C567 C560 1.409 . S
C567 C566 1.362 . S
H568 C574 0.930 . S
H569 C577 0.930 . S
H570 C578 0.930 . S
H571 C579 0.930 . S
H572 C582 0.930 . S
H573 C583 0.930 . S
C574 H568 0.930 . S
C574 C575 1.355 . S
C574 C576 1.415 . S
C575 C574 1.355 . S
C575 C577 1.419 . S
C576 C574 1.415 . S
C576 C581 1.425 . S
C576 C583 1.409 . S
C577 H569 0.930 . S
C577 C575 1.419 . S
C577 C578 1.362 . S
C578 H570 0.930 . S
C578 C577 1.362 . S
C578 C581 1.409 . S
C579 H571 0.930 . S
C579 C580 1.355 . S
C579 C581 1.415 . S
C580 C579 1.355 . S
C580 C582 1.419 . S
C581 C576 1.425 . S
C581 C578 1.409 . S
C581 C579 1.415 . S
C582 H572 0.930 . S
C582 C580 1.419 . S
C582 C583 1.362 . S
C583 H573 0.930 . S
C583 C576 1.409 . S
C583 C582 1.362 . S
H584 C590 0.930 . S
H585 C593 0.930 . S
H586 C594 0.930 . S
H587 C595 0.930 . S
H588 C598 0.930 . S
H589 C599 0.930 . S
C590 H584 0.930 . S
C590 C591 1.355 . S
C590 C592 1.415 . S
C591 C590 1.355 . S
C591 C593 1.419 . S
C592 C590 1.415 . S
C592 C597 1.425 . S
C592 C599 1.409 . S
C593 H585 0.930 . S
C593 C591 1.419 . S
C593 C594 1.362 . S
C594 H586 0.930 . S
C594 C593 1.362 . S
C594 C597 1.409 . S
C595 H587 0.930 . S
C595 C596 1.355 . S
C595 C597 1.415 . S
C596 C595 1.355 . S
C596 C598 1.419 . S
C597 C592 1.425 . S
C597 C594 1.409 . S
C597 C595 1.415 . S
C598 H588 0.930 . S
C598 C596 1.419 . S
C598 C599 1.362 . S
C599 H589 0.930 . S
C599 C592 1.409 . S
C599 C598 1.362 . S
H600 C606 0.930 . S
H601 C609 0.930 . S
H602 C610 0.930 . S
H603 C611 0.930 . S
H604 C614 0.930 . S
H605 C615 0.930 . S
C606 H600 0.930 . S
C606 C607 1.355 . S
C606 C608 1.415 . S
C607 C606 1.355 . S
C607 C609 1.419 . S
C608 C606 1.415 . S
C608 C613 1.425 . S
C608 C615 1.409 . S
C609 H601 0.930 . S
C609 C607 1.419 . S
C609 C610 1.362 . S
C610 H602 0.930 . S
C610 C609 1.362 . S
C610 C613 1.409 . S
C611 H603 0.930 . S
C611 C612 1.355 . S
C611 C613 1.415 . S
C612 C611 1.355 . S
C612 C614 1.419 . S
C613 C608 1.425 . S
C613 C610 1.409 . S
C613 C611 1.415 . S
C614 H604 0.930 . S
C614 C612 1.419 . S
C614 C615 1.362 . S
C615 H605 0.930 . S
C615 C608 1.409 . S
C615 C614 1.362 . S
H616 C622 0.930 . S
H617 C625 0.930 . S
H618 C626 0.930 . S
H619 C627 0.930 . S
H620 C630 0.930 . S
H621 C631 0.930 . S
C622 H616 0.930 . S
C622 C623 1.355 . S
C622 C624 1.415 . S
C623 C622 1.355 . S
C623 C625 1.419 . S
C624 C622 1.415 . S
C624 C629 1.425 . S
C624 C631 1.409 . S
C625 H617 0.930 . S
C625 C623 1.419 . S
C625 C626 1.362 . S
C626 H618 0.930 . S
C626 C625 1.362 . S
C626 C629 1.409 . S
C627 H619 0.930 . S
C627 C628 1.355 . S
C627 C629 1.415 . S
C628 C627 1.355 . S
C628 C630 1.419 . S
C629 C624 1.425 . S
C629 C626 1.409 . S
C629 C627 1.415 . S
C630 H620 0.930 . S
C630 C628 1.419 . S
C630 C631 1.362 . S
C631 H621 0.930 . S
C631 C624 1.409 . S
C631 C630 1.362 . S
H632 C638 0.930 . S
H633 C641 0.930 . S
H634 C642 0.930 . S
H635 C643 0.930 . S
H636 C646 0.930 . S
H637 C647 0.930 . S
C638 H632 0.930 . S
C638 C639 1.355 . S
C638 C640 1.415 . S
C639 C638 1.355 . S
C639 C641 1.419 . S
C640 C638 1.415 . S
C640 C645 1.425 . S
C640 C647 1.409 . S
C641 H633 0.930 . S
C641 C639 1.419 . S
C641 C642 1.362 . S
C642 H634 0.930 . S
C642 C641 1.362 . S
C642 C645 1.409 . S
C643 H635 0.930 . S
C643 C644 1.355 . S
C643 C645 1.415 . S
C644 C643 1.355 . S
C644 C646 1.419 . S
C645 C640 1.425 . S
C645 C642 1.409 . S
C645 C643 1.415 . S
C646 H636 0.930 . S
C646 C644 1.419 . S
C646 C647 1.362 . S
C647 H637 0.930 . S
C647 C640 1.409 . S
C647 C646 1.362 . S
C271 N1 0.979 . S
C276 C110 0.962 . S
C287 N18 1.087 . S
C292 C159 1.111 . S
C308 C194 2.147 . S
C303 N28 2.178 . S
C319 N40 2.629 . S
C324 C233 2.614 . S
C340 C154 2.332 . S
C335 N5 2.270 . S
C356 C113 0.618 . S
C351 N14 0.616 . S
C372 C243 2.021 . S
C367 N31 2.050 . S
C388 C202 1.488 . S
C383 N41 1.505 . S
C399 N2 1.282 . S
C404 C230 1.333 . S
C420 C162 2.430 1_556 S
C415 N27 2.536 . S
C431 N44 2.391 . S
C436 C123 2.453 . S
C447 N15 0.791 . S
C452 C199 0.825 . S
C468 C119 1.496 . S
C463 N57 1.519 . S
C479 N70 0.858 . S
C484 C150 0.937 . S
C495 N79 2.319 . S
C500 C203 2.342 . S
C511 N93 2.450 . S
C516 C242 2.434 . S
C527 N54 1.846 . S
C532 C163 2.015 1_565 S
C548 C122 1.345 . S
C543 N66 1.469 . S
C564 C234 1.466 . S
C559 N80 1.545 . S
C580 C193 1.771 . S
C575 N96 1.768 . S
C591 N53 1.503 . S
C596 C239 1.511 . S
C612 C153 2.188 . S
C607 N83 2.195 . S
C628 C114 2.636 . S
C623 N92 2.632 . S
C639 N67 0.977 . S
C644 C190 0.978 . S
