# Generated by pormake.
# Topology eea, (3,6)-cn, num edge types: 1
# Building blocks:
#     Node 0, Type 0, BuildingBlock: PAMTOO_clean_linker_0, # of connection points: 3
#     Node 1, Type 0, BuildingBlock: PAMTOO_clean_linker_0, # of connection points: 3
#     Node 2, Type 0, BuildingBlock: PAMTOO_clean_linker_0, # of connection points: 3
#     Node 3, Type 0, BuildingBlock: PAMTOO_clean_linker_0, # of connection points: 3
#     Node 4, Type 0, BuildingBlock: PAMTOO_clean_linker_0, # of connection points: 3
#     Node 5, Type 0, BuildingBlock: PAMTOO_clean_linker_0, # of connection points: 3
#     Node 6, Type 0, BuildingBlock: PAMTOO_clean_linker_0, # of connection points: 3
#     Node 7, Type 0, BuildingBlock: PAMTOO_clean_linker_0, # of connection points: 3
#     Node 8, Type 0, BuildingBlock: PAMTOO_clean_linker_0, # of connection points: 3
#     Node 9, Type 0, BuildingBlock: PAMTOO_clean_linker_0, # of connection points: 3
#     Node 10, Type 0, BuildingBlock: PAMTOO_clean_linker_0, # of connection points: 3
#     Node 11, Type 0, BuildingBlock: PAMTOO_clean_linker_0, # of connection points: 3
#     Node 12, Type 0, BuildingBlock: PAMTOO_clean_linker_0, # of connection points: 3
#     Node 13, Type 0, BuildingBlock: PAMTOO_clean_linker_0, # of connection points: 3
#     Node 14, Type 0, BuildingBlock: PAMTOO_clean_linker_0, # of connection points: 3
#     Node 15, Type 0, BuildingBlock: PAMTOO_clean_linker_0, # of connection points: 3
#     Node 16, Type 0, BuildingBlock: PAMTOO_clean_linker_0, # of connection points: 3
#     Node 17, Type 0, BuildingBlock: PAMTOO_clean_linker_0, # of connection points: 3
#     Node 18, Type 1, BuildingBlock: LEVNOQ01_clean_sbu_1, # of connection points: 6
#     Node 19, Type 1, BuildingBlock: LEVNOQ01_clean_sbu_1, # of connection points: 6
#     Node 20, Type 1, BuildingBlock: LEVNOQ01_clean_sbu_1, # of connection points: 6
#     Node 21, Type 1, BuildingBlock: LEVNOQ01_clean_sbu_1, # of connection points: 6
#     Node 22, Type 1, BuildingBlock: LEVNOQ01_clean_sbu_1, # of connection points: 6
#     Node 23, Type 1, BuildingBlock: LEVNOQ01_clean_sbu_1, # of connection points: 6
#     Node 24, Type 1, BuildingBlock: LEVNOQ01_clean_sbu_1, # of connection points: 6
#     Node 25, Type 1, BuildingBlock: LEVNOQ01_clean_sbu_1, # of connection points: 6
#     Node 26, Type 1, BuildingBlock: LEVNOQ01_clean_sbu_1, # of connection points: 6
#     Edge 27, Type (0, 1), None
#     Edge 28, Type (0, 1), None
#     Edge 29, Type (0, 1), None
#     Edge 30, Type (0, 1), None
#     Edge 31, Type (0, 1), None
#     Edge 32, Type (0, 1), None
#     Edge 33, Type (0, 1), None
#     Edge 34, Type (0, 1), None
#     Edge 35, Type (0, 1), None
#     Edge 36, Type (0, 1), None
#     Edge 37, Type (0, 1), None
#     Edge 38, Type (0, 1), None
#     Edge 39, Type (0, 1), None
#     Edge 40, Type (0, 1), None
#     Edge 41, Type (0, 1), None
#     Edge 42, Type (0, 1), None
#     Edge 43, Type (0, 1), None
#     Edge 44, Type (0, 1), None
#     Edge 45, Type (0, 1), None
#     Edge 46, Type (0, 1), None
#     Edge 47, Type (0, 1), None
#     Edge 48, Type (0, 1), None
#     Edge 49, Type (0, 1), None
#     Edge 50, Type (0, 1), None
#     Edge 51, Type (0, 1), None
#     Edge 52, Type (0, 1), None
#     Edge 53, Type (0, 1), None
#     Edge 54, Type (0, 1), None
#     Edge 55, Type (0, 1), None
#     Edge 56, Type (0, 1), None
#     Edge 57, Type (0, 1), None
#     Edge 58, Type (0, 1), None
#     Edge 59, Type (0, 1), None
#     Edge 60, Type (0, 1), None
#     Edge 61, Type (0, 1), None
#     Edge 62, Type (0, 1), None
#     Edge 63, Type (0, 1), None
#     Edge 64, Type (0, 1), None
#     Edge 65, Type (0, 1), None
#     Edge 66, Type (0, 1), None
#     Edge 67, Type (0, 1), None
#     Edge 68, Type (0, 1), None
#     Edge 69, Type (0, 1), None
#     Edge 70, Type (0, 1), None
#     Edge 71, Type (0, 1), None
#     Edge 72, Type (0, 1), None
#     Edge 73, Type (0, 1), None
#     Edge 74, Type (0, 1), None
#     Edge 75, Type (0, 1), None
#     Edge 76, Type (0, 1), None
#     Edge 77, Type (0, 1), None
#     Edge 78, Type (0, 1), None
#     Edge 79, Type (0, 1), None
#     Edge 80, Type (0, 1), None
# Relax obj value: 0.089
# Max RMSD: 0.114
# Mean RMSD: 0.086
data_MOF--net-eea--node1-LEVNOQ01_clean_sbu_1--node2-PAMTOO_clean_linker_0--edge1-none
_symmetry_space_group_name_H-M    P1
_symmetry_Int_Tables_number       1
_symmetry_cell_setting            triclinic
loop_
_symmetry_equiv_pos_as_xyz
'x, y, z'
_cell_length_a     25.993376
_cell_length_b     25.105623
_cell_length_c     18.818636
_cell_angle_alpha  90.209615
_cell_angle_beta   92.40348
_cell_angle_gamma 120.07345
loop_
_atom_site_label
_atom_site_type_symbol
_atom_site_fract_x
_atom_site_fract_y
_atom_site_fract_z
_atom_type_partial_charge
H0 H 0.30146 0.08107 0.42522 0.0
H1 H 0.19783 0.16896 0.45174 0.0
H2 H 0.16254 0.04984 0.26903 0.0
H3 H 0.11765 0.18496 0.38129 0.0
C4 C 0.12735 0.17116 0.32959 0.0
O5 O 0.12742 0.11634 0.33728 0.0
H6 H 0.08991 0.16289 0.29193 0.0
C7 C 0.26547 0.08861 0.40701 0.0
C8 C 0.23236 0.05992 0.34394 0.0
C9 C 0.255 0.12989 0.44423 0.0
C10 C 0.20787 0.13882 0.42133 0.0
C11 C 0.17446 0.11006 0.35811 0.0
C12 C 0.18764 0.07146 0.31841 0.0
H13 H 0.95254 0.26505 0.40418 0.0
H14 H 0.87173 0.07775 0.46749 0.0
H15 H 0.95881 0.13039 0.26926 0.0
H16 H 0.83018 0.97866 0.41398 0.0
C17 C 0.84075 0.98273 0.35726 0.0
O18 O 0.89387 0.0369 0.34782 0.0
H19 H 0.84698 0.94309 0.34501 0.0
C20 C 0.93961 0.21765 0.39186 0.0
C21 C 0.96104 0.20399 0.33158 0.0
C22 C 0.91052 0.17378 0.44316 0.0
C23 C 0.89284 0.11197 0.42764 0.0
C24 C 0.90575 0.09529 0.36152 0.0
C25 C 0.94218 0.14202 0.31515 0.0
H26 H 0.7785 0.70572 0.42247 0.0
H27 H 0.96905 0.79062 0.42604 0.0
H28 H 0.87722 0.82766 0.25593 0.0
H29 H 0.02739 0.85985 0.21842 0.0
C30 C 1.00383 0.82473 0.25886 0.0
O31 O 0.98065 0.84796 0.3066 0.0
H32 H 0.96805 0.78285 0.22984 0.0
C33 C 0.82042 0.73586 0.39897 0.0
C34 C 0.82148 0.76577 0.33461 0.0
C35 C 0.87339 0.74471 0.43321 0.0
C36 C 0.92744 0.78293 0.40113 0.0
C37 C 0.92853 0.812 0.33711 0.0
C38 C 0.87578 0.80419 0.30469 0.0
H39 H 0.05911 0.31038 0.60621 0.0
H40 H 0.16901 0.2334 0.5637 0.0
H41 H 0.0696 0.18729 0.75463 0.0
H42 H 0.19727 0.18016 0.78242 0.0
C43 C 0.20522 0.21085 0.73678 0.0
O44 O 0.15579 0.18265 0.68973 0.0
H45 H 0.21216 0.25574 0.75755 0.0
C46 C 0.07492 0.27944 0.62062 0.0
C47 C 0.0558 0.24648 0.68292 0.0
C48 C 0.11066 0.271 0.57353 0.0
C49 C 0.13873 0.23841 0.59719 0.0
C50 C 0.12634 0.21111 0.66474 0.0
C51 C 0.08194 0.2118 0.70535 0.0
H52 H 0.77541 0.77019 0.58689 0.0
H53 H 0.81111 0.94948 0.5281 0.0
H54 H 0.8501 0.91706 0.74337 0.0
H55 H 0.83077 0.03661 0.58125 0.0
C56 C 0.85375 0.04605 0.6346 0.0
O57 O 0.87075 1.0034 0.65123 0.0
H58 H 0.89488 0.09155 0.63193 0.0
C59 C 0.79352 0.81871 0.59995 0.0
C60 C 0.81391 0.83914 0.66945 0.0
C61 C 0.78604 0.85622 0.55137 0.0
C62 C 0.81208 0.91916 0.56785 0.0
C63 C 0.83802 0.9421 0.63662 0.0
C64 C 0.83479 0.90086 0.68893 0.0
H65 H 0.23139 0.95834 0.57235 0.0
H66 H 0.04355 0.82994 0.58093 0.0
H67 H 0.13653 0.95763 0.75459 0.0
H68 H 1.00527 0.8174 0.79824 0.0
C69 C 0.02253 0.81336 0.74669 0.0
O70 O 0.03512 0.86488 0.70816 0.0
H71 H 0.06309 0.8097 0.75795 0.0
C72 C 0.18948 0.94216 0.5975 0.0
C73 C 0.18906 0.96665 0.66483 0.0
C74 C 0.13761 0.89143 0.56737 0.0
C75 C 0.08436 0.8689 0.60296 0.0
C76 C 0.08403 0.89329 0.66982 0.0
C77 C 0.13624 0.94214 0.70062 0.0
H78 H 0.9685 0.41509 0.75878 0.0
H79 H 0.86422 0.50228 0.78507 0.0
H80 H 0.82917 0.38288 0.60273 0.0
H81 H 0.78348 0.51776 0.71413 0.0
C82 C 0.79354 0.50398 0.66267 0.0
O83 O 0.7938 0.44928 0.67077 0.0
H84 H 0.75628 0.49553 0.62461 0.0
C85 C 0.93239 0.42243 0.74052 0.0
C86 C 0.89926 0.39349 0.67754 0.0
C87 C 0.92171 0.4636 0.77766 0.0
C88 C 0.87441 0.47224 0.75473 0.0
C89 C 0.84099 0.44325 0.6916 0.0
C90 C 0.85431 0.4047 0.65202 0.0
H91 H 0.61884 0.59805 0.73781 0.0
H92 H 0.53784 0.41065 0.8008 0.0
H93 H 0.62517 0.46354 0.6027 0.0
H94 H 0.4965 0.31167 0.74712 0.0
C95 C 0.50721 0.31569 0.69047 0.0
O96 O 0.56024 0.36996 0.68109 0.0
H97 H 0.51363 0.27614 0.67844 0.0
C98 C 0.60585 0.55065 0.72539 0.0
C99 C 0.62733 0.53706 0.6651 0.0
C100 C 0.57664 0.50671 0.77658 0.0
C101 C 0.55899 0.4449 0.76098 0.0
C102 C 0.572 0.42831 0.69486 0.0
C103 C 0.60847 0.47511 0.64858 0.0
H104 H 0.44515 0.03807 0.75527 0.0
H105 H 0.63577 0.1238 0.75895 0.0
H106 H 0.54356 0.16022 0.58871 0.0
H107 H 0.69458 0.19354 0.55205 0.0
C108 C 0.67076 0.15798 0.59197 0.0
O109 O 0.64714 0.18099 0.6394 0.0
H110 H 0.63491 0.1158 0.56348 0.0
C111 C 0.48703 0.06836 0.73177 0.0
C112 C 0.48795 0.09822 0.66741 0.0
C113 C 0.54009 0.07747 0.76605 0.0
C114 C 0.5941 0.1159 0.73399 0.0
C115 C 0.59506 0.14486 0.66992 0.0
C116 C 0.54222 0.1368 0.63747 0.0
H117 H 0.72536 0.64344 0.93981 0.0
H118 H 0.83526 0.56657 0.89705 0.0
H119 H 0.73543 0.51978 0.08768 0.0
H120 H 0.86347 0.51388 0.11634 0.0
C121 C 0.87119 0.54405 0.07023 0.0
O122 O 0.82195 0.51566 0.02296 0.0
H123 H 0.87792 0.58868 0.09162 0.0
C124 C 0.74101 0.61235 0.95406 0.0
C125 C 0.7217 0.57913 0.01617 0.0
C126 C 0.77683 0.60407 0.90695 0.0
C127 C 0.80487 0.57143 0.93051 0.0
C128 C 0.79237 0.54394 -0.00207 0.0
C129 C 0.74782 0.54441 0.03849 0.0
H130 H 0.44477 0.10385 0.91894 0.0
H131 H 0.47747 0.28214 0.86066 0.0
H132 H 0.51551 0.24992 0.07636 0.0
H133 H 0.49358 0.36714 0.91444 0.0
C134 C 0.51788 0.37831 0.96709 0.0
O135 O 0.53558 0.33632 0.98448 0.0
H136 H 0.55839 0.42397 0.96203 0.0
C137 C 0.46199 0.15217 0.93225 0.0
C138 C 0.48134 0.17241 0.00205 0.0
C139 C 0.45376 0.18927 0.88379 0.0
C140 C 0.47884 0.25206 0.90043 0.0
C141 C 0.50401 0.27502 0.96945 0.0
C142 C 0.50105 0.23387 0.02172 0.0
H143 H 0.89798 0.29165 0.90581 0.0
H144 H 0.71022 0.16278 0.91419 0.0
H145 H 0.80274 0.29073 0.08775 0.0
H146 H 0.67242 0.15006 0.13195 0.0
C147 C 0.68915 0.14629 0.07989 0.0
O148 O 0.70156 0.19771 0.04127 0.0
H149 H 0.72968 0.14263 0.09131 0.0
C150 C 0.85603 0.27535 0.93088 0.0
C151 C 0.85544 0.29986 -0.00187 0.0
C152 C 0.80427 0.22449 0.90074 0.0
C153 C 0.75096 0.20184 0.93623 0.0
C154 C 0.75049 0.22623 0.00302 0.0
C155 C 0.80258 0.27522 0.03383 0.0
H156 H 0.63593 0.74904 0.09155 0.0
H157 H 0.53167 0.83623 0.11829 0.0
H158 H 0.49567 0.71602 0.9365 0.0
H159 H 0.44859 0.85057 0.0448 0.0
C160 C 0.45983 0.83673 -0.0058 0.0
O161 O 0.46047 0.78247 0.00502 0.0
H162 H 0.42364 0.82743 0.954 0.0
C163 C 0.59976 0.75633 0.07346 0.0
C164 C 0.56631 0.72714 0.01072 0.0
C165 C 0.5892 0.79758 0.11063 0.0
C166 C 0.54182 0.80616 0.08793 0.0
C167 C 0.50805 0.77688 0.02512 0.0
C168 C 0.52116 0.73816 0.98551 0.0
H169 H 0.28598 0.93147 0.07063 0.0
H170 H 0.20462 0.74416 0.13402 0.0
H171 H 0.29171 0.79648 0.93575 0.0
H172 H 0.16296 0.64514 0.08073 0.0
C173 C 0.17346 0.64902 0.024 0.0
O174 O 0.22659 0.7031 0.01433 0.0
H175 H 0.17961 0.6093 0.01192 0.0
C176 C 0.27292 0.88403 0.05836 0.0
C177 C 0.29423 0.87023 -0.00194 0.0
C178 C 0.2437 0.84021 0.10967 0.0
C179 C 0.22584 0.77835 0.09416 0.0
C180 C 0.23865 0.76156 0.02804 0.0
C181 C 0.27517 0.80821 0.98165 0.0
H182 H 0.11165 0.37206 0.08902 0.0
H183 H 0.30231 0.45817 0.09275 0.0
H184 H 0.20992 0.49436 0.92252 0.0
H185 H 0.36111 0.5281 0.88589 0.0
C186 C 0.33714 0.49241 0.92563 0.0
O187 O 0.31355 0.51535 0.97319 0.0
H188 H 0.30126 0.45038 0.89693 0.0
C189 C 0.15352 0.4024 0.06552 0.0
C190 C 0.1544 0.43224 0.00118 0.0
C191 C 0.20662 0.41161 0.09979 0.0
C192 C 0.26061 0.45017 0.06778 0.0
C193 C 0.26151 0.47914 0.00373 0.0
C194 C 0.20863 0.47094 0.97127 0.0
H195 H 0.39219 0.97701 0.27259 0.0
H196 H 0.50207 0.9 0.23023 0.0
H197 H 0.40275 0.85411 0.42123 0.0
H198 H 0.53082 0.84772 0.44913 0.0
C199 C 0.53856 0.87817 0.4033 0.0
O200 O 0.48905 0.8496 0.35643 0.0
H201 H 0.54537 0.92308 0.42381 0.0
C202 C 0.40796 0.94605 0.28704 0.0
C203 C 0.38887 0.91316 0.34939 0.0
C204 C 0.44367 0.93756 0.23997 0.0
C205 C 0.47175 0.90501 0.26368 0.0
C206 C 0.45942 0.87782 0.33128 0.0
C207 C 0.41503 0.87853 0.37188 0.0
H208 H 0.10889 0.43683 0.25361 0.0
H209 H 0.14401 0.61589 0.19472 0.0
H210 H 0.18329 0.58377 0.40999 0.0
H211 H 0.16331 0.70288 0.24787 0.0
C212 C 0.18652 0.71252 0.30111 0.0
O213 O 0.20366 0.66999 0.31778 0.0
H214 H 0.22759 0.75803 0.29813 0.0
C215 C 0.12687 0.48533 0.26664 0.0
C216 C 0.14725 0.50583 0.33613 0.0
C217 C 0.11922 0.52271 0.21806 0.0
C218 C 0.14511 0.58565 0.23448 0.0
C219 C 0.17107 0.60868 0.30322 0.0
C220 C 0.16799 0.56753 0.35556 0.0
H221 H 0.56456 0.62538 0.23894 0.0
H222 H 0.37673 0.49704 0.24782 0.0
H223 H 0.46991 0.62482 0.42133 0.0
H224 H 0.33877 0.48411 0.46504 0.0
C225 C 0.35604 0.48029 0.41341 0.0
O226 O 0.36851 0.53191 0.37514 0.0
H227 H 0.39667 0.47672 0.42452 0.0
C228 C 0.52268 0.60922 0.26415 0.0
C229 C 0.52232 0.6338 0.33146 0.0
C230 C 0.47079 0.55845 0.23414 0.0
C231 C 0.41757 0.53601 0.26978 0.0
C232 C 0.41733 0.56041 0.33666 0.0
C233 C 0.46956 0.6093 0.36736 0.0
O234 O 0.57766 0.02685 0.83923 0.0
Mg235 Mg 0.6016 0.98574 0.92596 0.0
O236 O 0.50729 0.04215 0.88462 0.0
Mg237 Mg 0.49424 1.00647 0.00482 0.0
O238 O 0.52516 0.94446 0.97494 0.0
O239 O 0.55691 0.88512 0.93835 0.0
O240 O 0.48506 0.97064 0.12309 0.0
O241 O 0.3958 0.92475 0.97834 0.0
Mg242 Mg 0.38618 0.01927 0.06908 0.0
O243 O 0.46796 0.07682 0.03983 0.0
O244 O 0.40352 0.97226 0.15029 0.0
O245 O 0.34656 0.97338 0.96862 0.0
O246 O 0.41403 0.11249 0.08561 0.0
C247 C 0.64241 0.09037 0.03969 0.0
C248 C 0.54057 0.04615 0.8334 0.0
C249 C 0.51668 0.89022 0.96998 0.0
C250 C 0.44473 0.96054 0.16658 0.0
C251 C 0.34617 0.92283 0.96631 0.0
C252 C 0.46031 0.12296 0.05233 0.0
O253 O 0.65692 0.05603 0.00585 0.0
O254 O 0.58937 0.08083 0.03779 0.0
O255 O 0.97957 0.55646 0.84266 0.0
Mg256 Mg 0.0234 0.62264 0.92835 0.0
O257 O 0.9708 0.46993 0.88874 0.0
Mg258 Mg 0.01418 0.49189 0.00245 0.0
O259 O 0.07179 0.58975 0.97648 0.0
O260 O 0.11831 0.68658 0.95115 0.0
O261 O 0.06052 0.51942 0.11452 0.0
O262 O 0.09231 0.473 0.9768 0.0
Mg263 Mg 0.01225 0.37128 0.06337 0.0
O264 O 0.94989 0.39027 0.02742 0.0
O265 O 0.06718 0.43705 0.14116 0.0
O266 O 0.05381 0.37269 0.97105 0.0
O267 O 0.9282 0.30075 0.07632 0.0
C268 C 0.92608 0.55468 0.03484 0.0
C269 C 0.96053 0.49872 0.83922 0.0
C270 C 0.1204 0.64143 0.9802 0.0
C271 C 0.08132 0.49253 0.1535 0.0
C272 C 0.09872 0.42591 0.96926 0.0
C273 C 0.91171 0.33326 0.0393 0.0
O274 O 0.9561 0.60473 0.00228 0.0
O275 O 0.93998 0.51239 0.03611 0.0
O276 O 0.43188 0.46806 0.16164 0.0
Mg277 Mg 0.40462 0.4017 0.07449 0.0
O278 O 0.51042 0.55348 0.12264 0.0
Mg279 Mg 0.52559 0.53072 0.00669 0.0
O280 O 0.48341 0.43479 0.03258 0.0
O281 O 0.43347 0.33634 0.04372 0.0
O282 O 0.53449 0.50344 0.89005 0.0
O283 O 0.61999 0.53703 0.0355 0.0
Mg284 Mg 0.64048 0.64307 0.95563 0.0
O285 O 0.56373 0.6334 0.98338 0.0
O286 O 0.62235 0.5828 0.86697 0.0
O287 O 0.67884 0.63471 0.05429 0.0
O288 O 0.63536 0.72092 0.94071 0.0
C289 C 0.3793 0.47784 0.96524 0.0
C290 C 0.47194 0.52489 0.16955 0.0
C291 C 0.47939 0.38322 0.02011 0.0
C292 C 0.57748 0.53092 0.84894 0.0
C293 C 0.67257 0.58159 0.05142 0.0
C294 C 0.58509 0.69111 0.97035 0.0
O295 O 0.35855 0.42615 -0.00457 0.0
O296 O 0.43449 0.51875 0.96984 0.0
O297 O 0.24425 0.36095 0.17281 0.0
Mg298 Mg 0.26837 0.31979 0.25938 0.0
O299 O 0.17389 0.37624 0.21834 0.0
Mg300 Mg 0.16104 0.34046 0.33844 0.0
O301 O 0.19183 0.27857 0.30797 0.0
O302 O 0.22395 0.21922 0.27254 0.0
O303 O 0.15212 0.30447 0.45669 0.0
O304 O 0.06262 0.25868 0.31206 0.0
Mg305 Mg 0.05298 0.35279 0.40301 0.0
O306 O 0.13472 0.41065 0.37387 0.0
O307 O 0.0703 0.30551 0.48389 0.0
O308 O 0.0133 0.30721 0.30242 0.0
O309 O 0.08062 0.44589 0.42016 0.0
C310 C 0.30934 0.42473 0.37259 0.0
C311 C 0.20715 0.38026 0.16708 0.0
C312 C 0.18331 0.22433 0.30315 0.0
C313 C 0.11166 0.29401 0.50015 0.0
C314 C 0.01297 0.2567 0.29998 0.0
C315 C 0.12688 0.45663 0.38666 0.0
O316 O 0.32372 0.39003 0.33929 0.0
O317 O 0.25623 0.41496 0.3711 0.0
O318 O 0.64712 0.89042 0.17565 0.0
Mg319 Mg 0.69083 0.95652 0.26142 0.0
O320 O 0.63822 0.80382 0.22173 0.0
Mg321 Mg 0.68137 0.8257 0.33558 0.0
O322 O 0.7391 0.92355 0.3097 0.0
O323 O 0.78572 0.02038 0.28434 0.0
O324 O 0.72746 0.85312 0.44779 0.0
O325 O 0.75956 0.80676 0.31027 0.0
Mg326 Mg 0.67924 0.70503 0.39639 0.0
O327 O 0.61691 0.72409 0.3605 0.0
O328 O 0.7341 0.77071 0.47427 0.0
O329 O 0.72092 0.70644 0.30417 0.0
O330 O 0.59518 0.63453 0.40932 0.0
C331 C 0.59296 0.88834 0.36705 0.0
C332 C 0.62808 0.83268 0.17217 0.0
C333 C 0.78773 0.97521 0.31346 0.0
C334 C 0.74822 0.82616 0.48674 0.0
C335 C 0.7659 0.75964 0.30261 0.0
C336 C 0.5787 0.6671 0.37242 0.0
O337 O 0.62343 0.93868 0.33516 0.0
O338 O 0.60708 0.84622 0.36885 0.0
O339 O 0.09896 0.80109 0.49479 0.0
Mg340 Mg 0.07207 0.73473 0.40764 0.0
O341 O 0.17729 0.88673 0.45582 0.0
Mg342 Mg 0.19268 0.86408 0.33992 0.0
O343 O 0.15103 0.7683 0.36601 0.0
O344 O 0.10172 0.66992 0.37713 0.0
O345 O 0.2018 0.83681 0.22336 0.0
O346 O 0.28724 0.87099 0.36896 0.0
Mg347 Mg 0.30732 0.97687 0.2884 0.0
O348 O 0.23039 0.96658 0.31636 0.0
O349 O 0.28921 0.91664 0.19975 0.0
O350 O 0.34593 0.9688 0.38704 0.0
O351 O 0.30151 0.05434 0.27355 0.0
C352 C 0.04633 0.81018 0.29767 0.0
C353 C 0.13885 0.85798 0.50272 0.0
C354 C 0.14779 0.71702 0.35414 0.0
C355 C 0.24455 0.86454 0.18198 0.0
C356 C 0.33978 0.91572 0.38458 0.0
C357 C 0.25135 0.02423 0.30335 0.0
O358 O 0.02576 0.75875 0.32842 0.0
O359 O 0.10136 0.85154 0.30283 0.0
O360 O 0.91076 0.69392 0.50637 0.0
Mg361 Mg 0.93472 0.65273 0.59298 0.0
O362 O 0.8404 0.70932 0.55171 0.0
Mg363 Mg 0.82741 0.67355 0.67186 0.0
O364 O 0.8581 0.61149 0.64149 0.0
O365 O 0.89026 0.55219 0.60594 0.0
O366 O 0.81835 0.63756 0.79014 0.0
O367 O 0.72893 0.59182 0.64552 0.0
Mg368 Mg 0.71943 0.68612 0.73646 0.0
O369 O 0.80118 0.74387 0.70719 0.0
O370 O 0.73671 0.63893 0.81745 0.0
O371 O 0.67956 0.64033 0.63603 0.0
O372 O 0.74716 0.77925 0.75342 0.0
C373 C 0.97577 0.75772 0.70603 0.0
C374 C 0.87372 0.7133 0.50052 0.0
C375 C 0.84959 0.55725 0.63652 0.0
C376 C 0.77796 0.62727 0.83366 0.0
C377 C 0.67926 0.58983 0.63354 0.0
C378 C 0.79341 0.7899 0.71994 0.0
O379 O 0.9901 0.72295 0.67285 0.0
O380 O 0.92267 0.748 0.70452 0.0
O381 O 0.31321 0.22276 0.50902 0.0
Mg382 Mg 0.3572 0.28899 0.59456 0.0
O383 O 0.3043 0.13618 0.55516 0.0
Mg384 Mg 0.34799 0.15825 0.66874 0.0
O385 O 0.40564 0.25614 0.64264 0.0
O386 O 0.45203 0.353 0.61731 0.0
O387 O 0.39465 0.18575 0.7806 0.0
O388 O 0.42601 0.13916 0.64291 0.0
Mg389 Mg 0.34596 0.03736 0.72989 0.0
O390 O 0.28379 0.05673 0.6941 0.0
O391 O 0.40123 0.10334 0.80737 0.0
O392 O 0.38732 0.03881 0.63736 0.0
O393 O 0.2617 0.96709 0.74285 0.0
C394 C 0.25963 0.22099 0.70058 0.0
C395 C 0.294 0.16499 0.50568 0.0
C396 C 0.45419 0.30791 0.64642 0.0
C397 C 0.41559 0.15891 0.81948 0.0
C398 C 0.4323 0.09198 0.63548 0.0
C399 C 0.24539 0.99979 0.70594 0.0
O400 O 0.28998 0.27124 0.66849 0.0
O401 O 0.27381 0.1789 0.70245 0.0
O402 O 0.76576 0.13423 0.82804 0.0
Mg403 Mg 0.73896 0.06793 0.74084 0.0
O404 O 0.84416 0.21994 0.78932 0.0
Mg405 Mg 0.85956 0.19747 0.67342 0.0
O406 O 0.81795 0.10164 0.69929 0.0
O407 O 0.76876 1.00325 0.71034 0.0
O408 O 0.86863 0.17031 0.55684 0.0
O409 O 0.95414 0.20433 0.70235 0.0
Mg410 Mg 0.97414 0.31021 0.62215 0.0
O411 O 0.89724 0.30006 0.65013 0.0
O412 O 0.95607 0.25012 0.53335 0.0
O413 O 0.01286 0.30209 0.72068 0.0
O414 O 0.96852 0.3878 0.60744 0.0
C415 C 0.71313 0.14374 0.63166 0.0
C416 C 0.80565 0.19112 0.83612 0.0
C417 C 0.81483 0.05042 0.68745 0.0
C418 C 0.9114 0.19805 0.5155 0.0
C419 C 0.00668 0.249 0.7181 0.0
C420 C 0.91831 0.35774 0.63714 0.0
O421 O 0.69265 0.09199 0.66166 0.0
O422 O 0.76822 0.18494 0.63647 0.0
loop_
_geom_bond_atom_site_label_1
_geom_bond_atom_site_label_2
_geom_bond_distance
_geom_bond_site_symmetry_2
_ccdc_geom_bond_type
H0 C7 0.929 . S
H1 C10 0.930 . S
H2 C12 0.929 . S
H3 C4 0.969 . S
C4 H3 0.969 . S
C4 O5 1.550 . S
C4 H6 0.973 . S
O5 C4 1.550 . S
O5 C11 1.412 . S
H6 C4 0.973 . S
C7 H0 0.929 . S
C7 C8 1.400 . S
C7 C9 1.364 . S
C8 C7 1.400 . S
C8 C12 1.377 . S
C9 C7 1.364 . S
C9 C10 1.374 . S
C10 H1 0.930 . S
C10 C9 1.374 . S
C10 C11 1.383 . S
C11 O5 1.412 . S
C11 C10 1.383 . S
C11 C12 1.394 . S
C12 H2 0.929 . S
C12 C8 1.377 . S
C12 C11 1.394 . S
H13 C20 0.929 . S
H14 C23 0.930 . S
H15 C25 0.929 . S
H16 C17 0.969 1_545 S
C17 H16 0.969 1_565 S
C17 O18 1.550 1_565 S
C17 H19 0.973 . S
O18 C17 1.550 1_545 S
O18 C24 1.412 . S
H19 C17 0.973 . S
C20 H13 0.929 . S
C20 C21 1.400 . S
C20 C22 1.364 . S
C21 C20 1.400 . S
C21 C25 1.377 . S
C22 C20 1.364 . S
C22 C23 1.374 . S
C23 H14 0.930 . S
C23 C22 1.374 . S
C23 C24 1.383 . S
C24 O18 1.412 . S
C24 C23 1.383 . S
C24 C25 1.394 . S
C25 H15 0.929 . S
C25 C21 1.377 . S
C25 C24 1.394 . S
H26 C33 0.929 . S
H27 C36 0.930 . S
H28 C38 0.929 . S
H29 C30 0.969 . S
C30 H29 0.969 . S
C30 O31 1.550 . S
C30 H32 0.973 1_655 S
O31 C30 1.550 . S
O31 C37 1.412 . S
H32 C30 0.973 1_455 S
C33 H26 0.929 . S
C33 C34 1.400 . S
C33 C35 1.364 . S
C34 C33 1.400 . S
C34 C38 1.377 . S
C35 C33 1.364 . S
C35 C36 1.374 . S
C36 H27 0.930 . S
C36 C35 1.374 . S
C36 C37 1.383 . S
C37 O31 1.412 . S
C37 C36 1.383 . S
C37 C38 1.394 . S
C38 H28 0.929 . S
C38 C34 1.377 . S
C38 C37 1.394 . S
H39 C46 0.929 . S
H40 C49 0.930 . S
H41 C51 0.929 . S
H42 C43 0.969 . S
C43 H42 0.969 . S
C43 O44 1.550 . S
C43 H45 0.973 . S
O44 C43 1.550 . S
O44 C50 1.412 . S
H45 C43 0.973 . S
C46 H39 0.929 . S
C46 C47 1.400 . S
C46 C48 1.364 . S
C47 C46 1.400 . S
C47 C51 1.377 . S
C48 C46 1.364 . S
C48 C49 1.374 . S
C49 H40 0.930 . S
C49 C48 1.374 . S
C49 C50 1.383 . S
C50 O44 1.412 . S
C50 C49 1.383 . S
C50 C51 1.394 . S
C51 H41 0.929 . S
C51 C47 1.377 . S
C51 C50 1.394 . S
H52 C59 0.929 . S
H53 C62 0.930 . S
H54 C64 0.929 . S
H55 C56 0.969 1_565 S
C56 H55 0.969 1_545 S
C56 O57 1.550 1_545 S
C56 H58 0.973 . S
O57 C56 1.550 1_565 S
O57 C63 1.412 . S
H58 C56 0.973 . S
C59 H52 0.929 . S
C59 C60 1.400 . S
C59 C61 1.364 . S
C60 C59 1.400 . S
C60 C64 1.377 . S
C61 C59 1.364 . S
C61 C62 1.374 . S
C62 H53 0.930 . S
C62 C61 1.374 . S
C62 C63 1.383 . S
C63 O57 1.412 . S
C63 C62 1.383 . S
C63 C64 1.394 . S
C64 H54 0.929 . S
C64 C60 1.377 . S
C64 C63 1.394 . S
H65 C72 0.929 . S
H66 C75 0.930 . S
H67 C77 0.929 . S
H68 C69 0.969 . S
C69 H68 0.969 . S
C69 O70 1.550 . S
C69 H71 0.973 . S
O70 C69 1.550 . S
O70 C76 1.412 . S
H71 C69 0.973 . S
C72 H65 0.929 . S
C72 C73 1.400 . S
C72 C74 1.364 . S
C73 C72 1.400 . S
C73 C77 1.377 . S
C74 C72 1.364 . S
C74 C75 1.374 . S
C75 H66 0.930 . S
C75 C74 1.374 . S
C75 C76 1.383 . S
C76 O70 1.412 . S
C76 C75 1.383 . S
C76 C77 1.394 . S
C77 H67 0.929 . S
C77 C73 1.377 . S
C77 C76 1.394 . S
H78 C85 0.929 . S
H79 C88 0.930 . S
H80 C90 0.929 . S
H81 C82 0.969 . S
C82 H81 0.969 . S
C82 O83 1.550 . S
C82 H84 0.973 . S
O83 C82 1.550 . S
O83 C89 1.412 . S
H84 C82 0.973 . S
C85 H78 0.929 . S
C85 C86 1.400 . S
C85 C87 1.364 . S
C86 C85 1.400 . S
C86 C90 1.377 . S
C87 C85 1.364 . S
C87 C88 1.374 . S
C88 H79 0.930 . S
C88 C87 1.374 . S
C88 C89 1.383 . S
C89 O83 1.412 . S
C89 C88 1.383 . S
C89 C90 1.394 . S
C90 H80 0.929 . S
C90 C86 1.377 . S
C90 C89 1.394 . S
H91 C98 0.929 . S
H92 C101 0.930 . S
H93 C103 0.929 . S
H94 C95 0.969 . S
C95 H94 0.969 . S
C95 O96 1.550 . S
C95 H97 0.973 . S
O96 C95 1.550 . S
O96 C102 1.412 . S
H97 C95 0.973 . S
C98 H91 0.929 . S
C98 C99 1.400 . S
C98 C100 1.364 . S
C99 C98 1.400 . S
C99 C103 1.377 . S
C100 C98 1.364 . S
C100 C101 1.374 . S
C101 H92 0.930 . S
C101 C100 1.374 . S
C101 C102 1.383 . S
C102 O96 1.412 . S
C102 C101 1.383 . S
C102 C103 1.394 . S
C103 H93 0.929 . S
C103 C99 1.377 . S
C103 C102 1.394 . S
H104 C111 0.929 . S
H105 C114 0.930 . S
H106 C116 0.929 . S
H107 C108 0.969 . S
C108 H107 0.969 . S
C108 O109 1.550 . S
C108 H110 0.973 . S
O109 C108 1.550 . S
O109 C115 1.412 . S
H110 C108 0.973 . S
C111 H104 0.929 . S
C111 C112 1.400 . S
C111 C113 1.364 . S
C112 C111 1.400 . S
C112 C116 1.377 . S
C113 C111 1.364 . S
C113 C114 1.374 . S
C114 H105 0.930 . S
C114 C113 1.374 . S
C114 C115 1.383 . S
C115 O109 1.412 . S
C115 C114 1.383 . S
C115 C116 1.394 . S
C116 H106 0.929 . S
C116 C112 1.377 . S
C116 C115 1.394 . S
H117 C124 0.929 . S
H118 C127 0.930 . S
H119 C129 0.929 . S
H120 C121 0.969 . S
C121 H120 0.969 . S
C121 O122 1.550 . S
C121 H123 0.973 1_554 S
O122 C121 1.550 . S
O122 C128 1.412 . S
H123 C121 0.973 1_556 S
C124 H117 0.929 . S
C124 C125 1.400 1_556 S
C124 C126 1.364 . S
C125 C124 1.400 1_554 S
C125 C129 1.377 . S
C126 C124 1.364 . S
C126 C127 1.374 . S
C127 H118 0.930 . S
C127 C126 1.374 . S
C127 C128 1.383 1_556 S
C128 O122 1.412 . S
C128 C127 1.383 1_554 S
C128 C129 1.394 . S
C129 H119 0.929 . S
C129 C125 1.377 . S
C129 C128 1.394 . S
H130 C137 0.929 . S
H131 C140 0.930 . S
H132 C142 0.929 . S
H133 C134 0.969 . S
C134 H133 0.969 . S
C134 O135 1.550 . S
C134 H136 0.973 1_554 S
O135 C134 1.550 . S
O135 C141 1.412 . S
H136 C134 0.973 1_556 S
C137 H130 0.929 . S
C137 C138 1.400 1_556 S
C137 C139 1.364 . S
C138 C137 1.400 1_554 S
C138 C142 1.377 . S
C139 C137 1.364 . S
C139 C140 1.374 . S
C140 H131 0.930 . S
C140 C139 1.374 . S
C140 C141 1.383 1_556 S
C141 O135 1.412 . S
C141 C140 1.383 1_554 S
C141 C142 1.394 . S
C142 H132 0.929 . S
C142 C138 1.377 . S
C142 C141 1.394 . S
H143 C150 0.929 . S
H144 C153 0.930 . S
H145 C155 0.929 . S
H146 C147 0.969 . S
C147 H146 0.969 . S
C147 O148 1.550 . S
C147 H149 0.973 1_554 S
O148 C147 1.550 . S
O148 C154 1.412 . S
H149 C147 0.973 1_556 S
C150 H143 0.929 . S
C150 C151 1.400 1_556 S
C150 C152 1.364 . S
C151 C150 1.400 1_554 S
C151 C155 1.377 . S
C152 C150 1.364 . S
C152 C153 1.374 . S
C153 H144 0.930 . S
C153 C152 1.374 . S
C153 C154 1.383 1_556 S
C154 O148 1.412 . S
C154 C153 1.383 1_554 S
C154 C155 1.394 . S
C155 H145 0.929 . S
C155 C151 1.377 . S
C155 C154 1.394 . S
H156 C163 0.929 . S
H157 C166 0.930 . S
H158 C168 0.929 . S
H159 C160 0.969 1_556 S
C160 H159 0.969 1_554 S
C160 O161 1.550 1_554 S
C160 H162 0.973 . S
O161 C160 1.550 1_556 S
O161 C167 1.412 1_556 S
H162 C160 0.973 . S
C163 H156 0.929 . S
C163 C164 1.400 . S
C163 C165 1.364 . S
C164 C163 1.400 . S
C164 C168 1.377 1_554 S
C165 C163 1.364 . S
C165 C166 1.374 . S
C166 H157 0.930 . S
C166 C165 1.374 . S
C166 C167 1.383 . S
C167 O161 1.412 1_554 S
C167 C166 1.383 . S
C167 C168 1.394 1_554 S
C168 H158 0.929 . S
C168 C164 1.377 1_556 S
C168 C167 1.394 1_556 S
H169 C176 0.929 . S
H170 C179 0.930 . S
H171 C181 0.929 . S
H172 C173 0.969 . S
C173 H172 0.969 . S
C173 O174 1.550 . S
C173 H175 0.973 1_556 S
O174 C173 1.550 . S
O174 C180 1.412 1_556 S
H175 C173 0.973 1_554 S
C176 H169 0.929 . S
C176 C177 1.400 . S
C176 C178 1.364 . S
C177 C176 1.400 . S
C177 C181 1.377 1_554 S
C178 C176 1.364 . S
C178 C179 1.374 . S
C179 H170 0.930 . S
C179 C178 1.374 . S
C179 C180 1.383 . S
C180 O174 1.412 1_554 S
C180 C179 1.383 . S
C180 C181 1.394 1_554 S
C181 H171 0.929 . S
C181 C177 1.377 1_556 S
C181 C180 1.394 1_556 S
H182 C189 0.929 . S
H183 C192 0.930 . S
H184 C194 0.929 . S
H185 C186 0.969 1_556 S
C186 H185 0.969 1_554 S
C186 O187 1.550 1_554 S
C186 H188 0.973 . S
O187 C186 1.550 1_556 S
O187 C193 1.412 1_556 S
H188 C186 0.973 . S
C189 H182 0.929 . S
C189 C190 1.400 . S
C189 C191 1.364 . S
C190 C189 1.400 . S
C190 C194 1.377 1_554 S
C191 C189 1.364 . S
C191 C192 1.374 . S
C192 H183 0.930 . S
C192 C191 1.374 . S
C192 C193 1.383 . S
C193 O187 1.412 1_554 S
C193 C192 1.383 . S
C193 C194 1.394 1_554 S
C194 H184 0.929 . S
C194 C190 1.377 1_556 S
C194 C193 1.394 1_556 S
H195 C202 0.929 . S
H196 C205 0.930 . S
H197 C207 0.929 . S
H198 C199 0.969 . S
C199 H198 0.969 . S
C199 O200 1.550 . S
C199 H201 0.973 . S
O200 C199 1.550 . S
O200 C206 1.412 . S
H201 C199 0.973 . S
C202 H195 0.929 . S
C202 C203 1.400 . S
C202 C204 1.364 . S
C203 C202 1.400 . S
C203 C207 1.377 . S
C204 C202 1.364 . S
C204 C205 1.374 . S
C205 H196 0.930 . S
C205 C204 1.374 . S
C205 C206 1.383 . S
C206 O200 1.412 . S
C206 C205 1.383 . S
C206 C207 1.394 . S
C207 H197 0.929 . S
C207 C203 1.377 . S
C207 C206 1.394 . S
H208 C215 0.929 . S
H209 C218 0.930 . S
H210 C220 0.929 . S
H211 C212 0.969 . S
C212 H211 0.969 . S
C212 O213 1.550 . S
C212 H214 0.973 . S
O213 C212 1.550 . S
O213 C219 1.412 . S
H214 C212 0.973 . S
C215 H208 0.929 . S
C215 C216 1.400 . S
C215 C217 1.364 . S
C216 C215 1.400 . S
C216 C220 1.377 . S
C217 C215 1.364 . S
C217 C218 1.374 . S
C218 H209 0.930 . S
C218 C217 1.374 . S
C218 C219 1.383 . S
C219 O213 1.412 . S
C219 C218 1.383 . S
C219 C220 1.394 . S
C220 H210 0.929 . S
C220 C216 1.377 . S
C220 C219 1.394 . S
H221 C228 0.929 . S
H222 C231 0.930 . S
H223 C233 0.929 . S
H224 C225 0.969 . S
C225 H224 0.969 . S
C225 O226 1.550 . S
C225 H227 0.973 . S
O226 C225 1.550 . S
O226 C232 1.412 . S
H227 C225 0.973 . S
C228 H221 0.929 . S
C228 C229 1.400 . S
C228 C230 1.364 . S
C229 C228 1.400 . S
C229 C233 1.377 . S
C230 C228 1.364 . S
C230 C231 1.374 . S
C231 H222 0.930 . S
C231 C230 1.374 . S
C231 C232 1.383 . S
C232 O226 1.412 . S
C232 C231 1.383 . S
C232 C233 1.394 . S
C233 H223 0.929 . S
C233 C229 1.377 . S
C233 C232 1.394 . S
O234 Mg235 1.990 1_545 S
O234 C248 1.253 . S
Mg235 O234 1.990 1_565 S
Mg235 O238 2.180 1_556 S
Mg235 O239 2.117 . S
Mg235 O253 2.030 1_565 S
O236 Mg237 2.072 1_556 S
O236 C248 1.260 . S
Mg237 O236 2.072 1_554 S
Mg237 O238 2.099 1_545 S
Mg237 O240 2.079 1_545 S
Mg237 O241 2.072 1_545 S
Mg237 O243 2.099 . S
Mg237 O254 2.079 . S
O238 Mg235 2.180 1_554 S
O238 Mg237 2.099 1_565 S
O238 C249 1.279 1_554 S
O239 Mg235 2.117 . S
O239 C249 1.250 . S
O240 Mg237 2.079 1_565 S
O240 C250 1.264 . S
O241 Mg237 2.072 1_565 S
O241 C251 1.260 . S
Mg242 O243 2.180 . S
Mg242 O244 2.030 1_545 S
Mg242 O245 1.990 1_545 S
Mg242 O246 2.117 . S
O243 Mg237 2.099 . S
O243 Mg242 2.180 . S
O243 C252 1.279 . S
O244 Mg242 2.030 1_565 S
O244 C250 1.248 . S
O245 Mg242 1.990 1_565 S
O245 C251 1.253 . S
O246 Mg242 2.117 . S
O246 C252 1.250 . S
C247 O253 1.248 1_554 S
C247 O254 1.264 . S
C248 O234 1.253 . S
C248 O236 1.260 . S
C249 O238 1.279 1_556 S
C249 O239 1.250 . S
C250 O240 1.264 . S
C250 O244 1.248 . S
C251 O241 1.260 . S
C251 O245 1.253 . S
C252 O243 1.279 . S
C252 O246 1.250 . S
O253 Mg235 2.030 1_545 S
O253 C247 1.248 1_556 S
O254 Mg237 2.079 . S
O254 C247 1.264 . S
O255 Mg256 1.990 1_655 S
O255 C269 1.253 . S
Mg256 O255 1.990 1_455 S
Mg256 O259 2.180 1_556 S
Mg256 O260 2.117 . S
Mg256 O274 2.030 1_455 S
O257 Mg258 2.072 1_656 S
O257 C269 1.260 . S
Mg258 O257 2.072 1_454 S
Mg258 O259 2.099 . S
Mg258 O261 2.079 . S
Mg258 O262 2.072 . S
Mg258 O264 2.099 1_455 S
Mg258 O275 2.079 1_455 S
O259 Mg256 2.180 1_554 S
O259 Mg258 2.099 . S
O259 C270 1.279 1_554 S
O260 Mg256 2.117 . S
O260 C270 1.250 . S
O261 Mg258 2.079 . S
O261 C271 1.264 . S
O262 Mg258 2.072 . S
O262 C272 1.260 . S
Mg263 O264 2.180 . S
Mg263 O265 2.030 1_655 S
Mg263 O266 1.990 1_655 S
Mg263 O267 2.117 . S
O264 Mg258 2.099 1_655 S
O264 Mg263 2.180 . S
O264 C273 1.279 . S
O265 Mg263 2.030 1_455 S
O265 C271 1.248 . S
O266 Mg263 1.990 1_455 S
O266 C272 1.253 . S
O267 Mg263 2.117 . S
O267 C273 1.250 . S
C268 O274 1.248 1_554 S
C268 O275 1.264 . S
C269 O255 1.253 . S
C269 O257 1.260 . S
C270 O259 1.279 1_556 S
C270 O260 1.250 . S
C271 O261 1.264 . S
C271 O265 1.248 . S
C272 O262 1.260 . S
C272 O266 1.253 . S
C273 O264 1.279 . S
C273 O267 1.250 . S
O274 Mg256 2.030 1_655 S
O274 C268 1.248 1_556 S
O275 Mg258 2.079 1_655 S
O275 C268 1.264 . S
O276 Mg277 1.990 . S
O276 C290 1.253 . S
Mg277 O276 1.990 . S
Mg277 O280 2.180 . S
Mg277 O281 2.117 . S
Mg277 O295 2.030 . S
O278 Mg279 2.072 . S
O278 C290 1.260 . S
Mg279 O278 2.072 . S
Mg279 O280 2.099 . S
Mg279 O282 2.079 1_554 S
Mg279 O283 2.072 . S
Mg279 O285 2.099 1_554 S
Mg279 O296 2.079 1_554 S
O280 Mg277 2.180 . S
O280 Mg279 2.099 . S
O280 C291 1.279 . S
O281 Mg277 2.117 . S
O281 C291 1.250 . S
O282 Mg279 2.079 1_556 S
O282 C292 1.264 . S
O283 Mg279 2.072 . S
O283 C293 1.260 . S
Mg284 O285 2.180 . S
Mg284 O286 2.030 . S
Mg284 O287 1.990 . S
Mg284 O288 2.117 . S
O285 Mg279 2.099 1_556 S
O285 Mg284 2.180 . S
O285 C294 1.279 1_556 S
O286 Mg284 2.030 . S
O286 C292 1.248 . S
O287 Mg284 1.990 . S
O287 C293 1.253 1_556 S
O288 Mg284 2.117 . S
O288 C294 1.250 1_556 S
C289 O295 1.248 . S
C289 O296 1.264 1_554 S
C290 O276 1.253 . S
C290 O278 1.260 . S
C291 O280 1.279 . S
C291 O281 1.250 . S
C292 O282 1.264 . S
C292 O286 1.248 . S
C293 O283 1.260 . S
C293 O287 1.253 1_554 S
C294 O285 1.279 1_554 S
C294 O288 1.250 1_554 S
O295 Mg277 2.030 . S
O295 C289 1.248 . S
O296 Mg279 2.079 1_556 S
O296 C289 1.264 1_556 S
O297 Mg298 1.990 . S
O297 C311 1.253 . S
Mg298 O297 1.990 . S
Mg298 O301 2.180 . S
Mg298 O302 2.117 . S
Mg298 O316 2.030 . S
O299 Mg300 2.072 . S
O299 C311 1.260 . S
Mg300 O299 2.072 . S
Mg300 O301 2.099 . S
Mg300 O303 2.079 . S
Mg300 O304 2.072 . S
Mg300 O306 2.099 . S
Mg300 O317 2.079 . S
O301 Mg298 2.180 . S
O301 Mg300 2.099 . S
O301 C312 1.279 . S
O302 Mg298 2.117 . S
O302 C312 1.250 . S
O303 Mg300 2.079 . S
O303 C313 1.264 . S
O304 Mg300 2.072 . S
O304 C314 1.260 . S
Mg305 O306 2.180 . S
Mg305 O307 2.030 . S
Mg305 O308 1.990 1_455 S
Mg305 O309 2.117 . S
O306 Mg300 2.099 . S
O306 Mg305 2.180 . S
O306 C315 1.279 . S
O307 Mg305 2.030 . S
O307 C313 1.248 . S
O308 Mg305 1.990 1_655 S
O308 C314 1.253 1_655 S
O309 Mg305 2.117 . S
O309 C315 1.250 . S
C310 O316 1.248 . S
C310 O317 1.264 . S
C311 O297 1.253 . S
C311 O299 1.260 . S
C312 O301 1.279 . S
C312 O302 1.250 . S
C313 O303 1.264 . S
C313 O307 1.248 . S
C314 O304 1.260 . S
C314 O308 1.253 1_455 S
C315 O306 1.279 . S
C315 O309 1.250 . S
O316 Mg298 2.030 . S
O316 C310 1.248 . S
O317 Mg300 2.079 . S
O317 C310 1.264 . S
O318 Mg319 1.990 . S
O318 C332 1.253 . S
Mg319 O318 1.990 . S
Mg319 O322 2.180 . S
Mg319 O323 2.117 . S
Mg319 O337 2.030 . S
O320 Mg321 2.072 . S
O320 C332 1.260 . S
Mg321 O320 2.072 . S
Mg321 O322 2.099 . S
Mg321 O324 2.079 . S
Mg321 O325 2.072 . S
Mg321 O327 2.099 . S
Mg321 O338 2.079 . S
O322 Mg319 2.180 . S
O322 Mg321 2.099 . S
O322 C333 1.279 . S
O323 Mg319 2.117 . S
O323 C333 1.250 . S
O324 Mg321 2.079 . S
O324 C334 1.264 . S
O325 Mg321 2.072 . S
O325 C335 1.260 . S
Mg326 O327 2.180 . S
Mg326 O328 2.030 . S
Mg326 O329 1.990 . S
Mg326 O330 2.117 . S
O327 Mg321 2.099 . S
O327 Mg326 2.180 . S
O327 C336 1.279 . S
O328 Mg326 2.030 . S
O328 C334 1.248 . S
O329 Mg326 1.990 . S
O329 C335 1.253 . S
O330 Mg326 2.117 . S
O330 C336 1.250 . S
C331 O337 1.248 . S
C331 O338 1.264 . S
C332 O318 1.253 . S
C332 O320 1.260 . S
C333 O322 1.279 . S
C333 O323 1.250 . S
C334 O324 1.264 . S
C334 O328 1.248 . S
C335 O325 1.260 . S
C335 O329 1.253 . S
C336 O327 1.279 . S
C336 O330 1.250 . S
O337 Mg319 2.030 . S
O337 C331 1.248 . S
O338 Mg321 2.079 . S
O338 C331 1.264 . S
O339 Mg340 1.990 . S
O339 C353 1.253 . S
Mg340 O339 1.990 . S
Mg340 O343 2.180 . S
Mg340 O344 2.117 . S
Mg340 O358 2.030 . S
O341 Mg342 2.072 . S
O341 C353 1.260 . S
Mg342 O341 2.072 . S
Mg342 O343 2.099 . S
Mg342 O345 2.079 . S
Mg342 O346 2.072 . S
Mg342 O348 2.099 . S
Mg342 O359 2.079 . S
O343 Mg340 2.180 . S
O343 Mg342 2.099 . S
O343 C354 1.279 . S
O344 Mg340 2.117 . S
O344 C354 1.250 . S
O345 Mg342 2.079 . S
O345 C355 1.264 . S
O346 Mg342 2.072 . S
O346 C356 1.260 . S
Mg347 O348 2.180 . S
Mg347 O349 2.030 . S
Mg347 O350 1.990 . S
Mg347 O351 2.117 1_565 S
O348 Mg342 2.099 . S
O348 Mg347 2.180 . S
O348 C357 1.279 1_565 S
O349 Mg347 2.030 . S
O349 C355 1.248 . S
O350 Mg347 1.990 . S
O350 C356 1.253 . S
O351 Mg347 2.117 1_545 S
O351 C357 1.250 . S
C352 O358 1.248 . S
C352 O359 1.264 . S
C353 O339 1.253 . S
C353 O341 1.260 . S
C354 O343 1.279 . S
C354 O344 1.250 . S
C355 O345 1.264 . S
C355 O349 1.248 . S
C356 O346 1.260 . S
C356 O350 1.253 . S
C357 O348 1.279 1_545 S
C357 O351 1.250 . S
O358 Mg340 2.030 . S
O358 C352 1.248 . S
O359 Mg342 2.079 . S
O359 C352 1.264 . S
O360 Mg361 1.990 . S
O360 C374 1.253 . S
Mg361 O360 1.990 . S
Mg361 O364 2.180 . S
Mg361 O365 2.117 . S
Mg361 O379 2.030 . S
O362 Mg363 2.072 . S
O362 C374 1.260 . S
Mg363 O362 2.072 . S
Mg363 O364 2.099 . S
Mg363 O366 2.079 . S
Mg363 O367 2.072 . S
Mg363 O369 2.099 . S
Mg363 O380 2.079 . S
O364 Mg361 2.180 . S
O364 Mg363 2.099 . S
O364 C375 1.279 . S
O365 Mg361 2.117 . S
O365 C375 1.250 . S
O366 Mg363 2.079 . S
O366 C376 1.264 . S
O367 Mg363 2.072 . S
O367 C377 1.260 . S
Mg368 O369 2.180 . S
Mg368 O370 2.030 . S
Mg368 O371 1.990 . S
Mg368 O372 2.117 . S
O369 Mg363 2.099 . S
O369 Mg368 2.180 . S
O369 C378 1.279 . S
O370 Mg368 2.030 . S
O370 C376 1.248 . S
O371 Mg368 1.990 . S
O371 C377 1.253 . S
O372 Mg368 2.117 . S
O372 C378 1.250 . S
C373 O379 1.248 . S
C373 O380 1.264 . S
C374 O360 1.253 . S
C374 O362 1.260 . S
C375 O364 1.279 . S
C375 O365 1.250 . S
C376 O366 1.264 . S
C376 O370 1.248 . S
C377 O367 1.260 . S
C377 O371 1.253 . S
C378 O369 1.279 . S
C378 O372 1.250 . S
O379 Mg361 2.030 . S
O379 C373 1.248 . S
O380 Mg363 2.079 . S
O380 C373 1.264 . S
O381 Mg382 1.990 . S
O381 C395 1.253 . S
Mg382 O381 1.990 . S
Mg382 O385 2.180 . S
Mg382 O386 2.117 . S
Mg382 O400 2.030 . S
O383 Mg384 2.072 . S
O383 C395 1.260 . S
Mg384 O383 2.072 . S
Mg384 O385 2.099 . S
Mg384 O387 2.079 . S
Mg384 O388 2.072 . S
Mg384 O390 2.099 . S
Mg384 O401 2.079 . S
O385 Mg382 2.180 . S
O385 Mg384 2.099 . S
O385 C396 1.279 . S
O386 Mg382 2.117 . S
O386 C396 1.250 . S
O387 Mg384 2.079 . S
O387 C397 1.264 . S
O388 Mg384 2.072 . S
O388 C398 1.260 . S
Mg389 O390 2.180 . S
Mg389 O391 2.030 . S
Mg389 O392 1.990 . S
Mg389 O393 2.117 1_545 S
O390 Mg384 2.099 . S
O390 Mg389 2.180 . S
O390 C399 1.278 . S
O391 Mg389 2.030 . S
O391 C397 1.248 . S
O392 Mg389 1.990 . S
O392 C398 1.253 . S
O393 Mg389 2.117 1_565 S
O393 C399 1.252 1_565 S
C394 O400 1.248 . S
C394 O401 1.264 . S
C395 O381 1.253 . S
C395 O383 1.260 . S
C396 O385 1.279 . S
C396 O386 1.250 . S
C397 O387 1.264 . S
C397 O391 1.248 . S
C398 O388 1.260 . S
C398 O392 1.253 . S
C399 O390 1.278 . S
C399 O393 1.252 1_545 S
O400 Mg382 2.030 . S
O400 C394 1.248 . S
O401 Mg384 2.079 . S
O401 C394 1.264 . S
O402 Mg403 1.990 . S
O402 C416 1.253 . S
Mg403 O402 1.990 . S
Mg403 O406 2.180 . S
Mg403 O407 2.117 . S
Mg403 O421 2.030 . S
O404 Mg405 2.072 . S
O404 C416 1.260 . S
Mg405 O404 2.072 . S
Mg405 O406 2.099 . S
Mg405 O408 2.079 . S
Mg405 O409 2.072 . S
Mg405 O411 2.099 . S
Mg405 O422 2.079 . S
O406 Mg403 2.180 . S
O406 Mg405 2.099 . S
O406 C417 1.279 . S
O407 Mg403 2.117 . S
O407 C417 1.250 . S
O408 Mg405 2.079 . S
O408 C418 1.264 . S
O409 Mg405 2.072 . S
O409 C419 1.260 . S
Mg410 O411 2.180 . S
Mg410 O412 2.030 . S
Mg410 O413 1.990 1_655 S
Mg410 O414 2.117 . S
O411 Mg405 2.099 . S
O411 Mg410 2.180 . S
O411 C420 1.279 . S
O412 Mg410 2.030 . S
O412 C418 1.248 . S
O413 Mg410 1.990 1_455 S
O413 C419 1.253 1_455 S
O414 Mg410 2.117 . S
O414 C420 1.250 . S
C415 O421 1.248 . S
C415 O422 1.264 . S
C416 O402 1.253 . S
C416 O404 1.260 . S
C417 O406 1.279 . S
C417 O407 1.250 . S
C418 O408 1.264 . S
C418 O412 1.248 . S
C419 O409 1.260 . S
C419 O413 1.253 1_655 S
C420 O411 1.279 . S
C420 O414 1.250 . S
O421 Mg403 2.030 . S
O421 C415 1.248 . S
O422 Mg405 2.079 . S
O422 C415 1.264 . S
C177 C251 1.422 . S
C190 C272 1.347 . S
C164 C294 1.219 . S
C151 C273 1.151 . S
C293 C125 1.382 . S
C138 C252 1.208 . S
C247 C147 1.449 . S
C268 C121 1.454 . S
C134 C291 1.161 . S
C173 C270 1.112 . S
C186 C289 1.412 . S
C249 C160 1.244 1_556 S
C314 C21 1.422 1_455 S
C34 C335 1.347 . S
C8 C357 1.219 . S
C229 C336 1.151 . S
C203 C356 1.382 . S
C216 C315 1.208 . S
C225 C310 1.449 . S
C199 C331 1.454 . S
C354 C212 1.161 . S
C17 C333 1.113 . S
C352 C30 1.412 1_455 S
C4 C312 1.244 . S
C377 C99 1.422 . S
C112 C398 1.347 . S
C420 C86 1.219 . S
C399 C73 1.152 1_545 S
C419 C47 1.382 1_655 S
C60 C378 1.207 . S
C69 C373 1.449 1_455 S
C43 C394 1.454 . S
C417 C56 1.161 . S
C95 C396 1.112 . S
C108 C415 1.412 . S
C82 C375 1.244 . S
C204 C250 1.483 . S
C271 C217 1.547 . S
C230 C290 1.536 . S
C87 C269 1.621 . S
C100 C292 1.586 . S
C248 C113 1.590 . S
C48 C313 1.483 . S
C61 C334 1.547 . S
C74 C353 1.536 . S
C165 C332 1.621 . S
C355 C178 1.586 . S
C191 C311 1.590 . S
C126 C376 1.484 . S
C139 C397 1.547 . S
C416 C152 1.536 . S
C9 C395 1.621 . S
C22 C418 1.586 . S
C35 C374 1.590 . S
