# Generated by pormake.
# Topology anh, (6,3)-cn, num edge types: 1
# Building blocks:
#     Node 0, Type 0, BuildingBlock: PAMTUU_clean_sbu_0, # of connection points: 6
#     Node 1, Type 0, BuildingBlock: PAMTUU_clean_sbu_0, # of connection points: 6
#     Node 2, Type 0, BuildingBlock: PAMTUU_clean_sbu_0, # of connection points: 6
#     Node 3, Type 1, BuildingBlock: QEWDON_clean_linker_0, # of connection points: 3
#     Node 4, Type 1, BuildingBlock: QEWDON_clean_linker_0, # of connection points: 3
#     Node 5, Type 1, BuildingBlock: QEWDON_clean_linker_0, # of connection points: 3
#     Node 6, Type 1, BuildingBlock: QEWDON_clean_linker_0, # of connection points: 3
#     Node 7, Type 1, BuildingBlock: QEWDON_clean_linker_0, # of connection points: 3
#     Node 8, Type 1, BuildingBlock: QEWDON_clean_linker_0, # of connection points: 3
#     Edge 9, Type (0, 1), BuildingBlock: OJICUG_clean_linker_0, # of connection points: 2
#     Edge 10, Type (0, 1), BuildingBlock: OJICUG_clean_linker_0, # of connection points: 2
#     Edge 11, Type (0, 1), BuildingBlock: OJICUG_clean_linker_0, # of connection points: 2
#     Edge 12, Type (0, 1), BuildingBlock: OJICUG_clean_linker_0, # of connection points: 2
#     Edge 13, Type (0, 1), BuildingBlock: OJICUG_clean_linker_0, # of connection points: 2
#     Edge 14, Type (0, 1), BuildingBlock: OJICUG_clean_linker_0, # of connection points: 2
#     Edge 15, Type (0, 1), BuildingBlock: OJICUG_clean_linker_0, # of connection points: 2
#     Edge 16, Type (0, 1), BuildingBlock: OJICUG_clean_linker_0, # of connection points: 2
#     Edge 17, Type (0, 1), BuildingBlock: OJICUG_clean_linker_0, # of connection points: 2
#     Edge 18, Type (0, 1), BuildingBlock: OJICUG_clean_linker_0, # of connection points: 2
#     Edge 19, Type (0, 1), BuildingBlock: OJICUG_clean_linker_0, # of connection points: 2
#     Edge 20, Type (0, 1), BuildingBlock: OJICUG_clean_linker_0, # of connection points: 2
#     Edge 21, Type (0, 1), BuildingBlock: OJICUG_clean_linker_0, # of connection points: 2
#     Edge 22, Type (0, 1), BuildingBlock: OJICUG_clean_linker_0, # of connection points: 2
#     Edge 23, Type (0, 1), BuildingBlock: OJICUG_clean_linker_0, # of connection points: 2
#     Edge 24, Type (0, 1), BuildingBlock: OJICUG_clean_linker_0, # of connection points: 2
#     Edge 25, Type (0, 1), BuildingBlock: OJICUG_clean_linker_0, # of connection points: 2
#     Edge 26, Type (0, 1), BuildingBlock: OJICUG_clean_linker_0, # of connection points: 2
# Relax obj value: 0.336
# Max RMSD: 0.148
# Mean RMSD: 0.116
data_MOF--net-anh--node1-PAMTUU_clean_sbu_0--node2-QEWDON_clean_linker_0--edge1-OJICUG_clean_linker_0
_symmetry_space_group_name_H-M    P1
_symmetry_Int_Tables_number       1
_symmetry_cell_setting            triclinic
loop_
_symmetry_equiv_pos_as_xyz
'x, y, z'
_cell_length_a     22.736263
_cell_length_b     22.869052
_cell_length_c     35.866777
_cell_angle_alpha  96.497969
_cell_angle_beta   91.389675
_cell_angle_gamma 120.26811
loop_
_atom_site_label
_atom_site_type_symbol
_atom_site_fract_x
_atom_site_fract_y
_atom_site_fract_z
_atom_type_partial_charge
Tb0 Tb 0.21296 0.72713 0.15725 0.0
Tb1 Tb 0.28273 0.63945 0.17698 0.0
C2 C 0.26129 0.66616 0.09471 0.0
C3 C 1.16882 0.86443 0.15808 0.0
C4 C 1.17564 0.99166 0.16739 0.0
C5 C 1.11761 0.93253 0.17626 0.0
C6 C 1.11432 0.86975 0.17154 0.0
C7 C 0.22976 0.92406 0.15303 0.0
C8 C 0.23322 0.98738 0.15783 0.0
C9 C 1.1575 0.79564 0.14629 0.0
O10 O 1.12836 0.62785 0.16788 0.0
O11 O 1.17565 0.55909 0.16329 0.0
O12 O 0.22925 0.64932 0.22568 0.0
O13 O 0.25328 0.75396 0.21525 0.0
O14 O 0.30802 0.56437 0.15988 0.0
O15 O 0.34328 0.62404 0.21531 0.0
O16 O 0.36391 0.74626 0.19126 0.0
O17 O 0.32309 0.80092 0.15823 0.0
O18 O 1.20698 0.66631 0.10543 0.0
O19 O 0.30522 0.6678 0.11995 0.0
C20 C 1.12237 0.56703 0.16625 0.0
O21 O 1.19956 0.79 0.12404 0.0
O22 O 1.14184 0.75614 0.17233 0.0
C23 C 0.23015 0.70655 0.23694 0.0
C24 C 0.42679 0.6218 0.17902 0.0
C25 C 0.54949 0.73257 0.16149 0.0
C26 C 0.54083 0.71945 0.19889 0.0
C27 C 0.47982 0.66428 0.2076 0.0
C28 C 0.44046 0.6291 0.1412 0.0
C29 C 0.50096 0.68443 0.13258 0.0
C30 C 0.35484 0.58852 0.18844 0.0
C31 C 0.37356 0.80073 0.1771 0.0
H32 H 1.07169 0.9327 0.18334 0.0
H33 H 1.06715 0.8244 0.17598 0.0
H34 H 0.27322 0.92133 0.1434 0.0
H35 H 0.27919 1.03195 0.15153 0.0
H36 H 0.57791 0.75556 0.22169 0.0
H37 H 0.47111 0.65977 0.23698 0.0
H38 H 0.40153 0.5968 0.11827 0.0
H39 H 0.50745 0.69248 0.1034 0.0
Tb40 Tb 0.65105 1.04258 0.47205 0.0
Tb41 Tb 0.80113 1.11436 0.51566 0.0
C42 C 0.77379 1.09615 0.42941 0.0
C43 C 0.48306 1.01079 0.4371 0.0
C44 C 0.36556 1.02132 0.44309 0.0
C45 C 0.38231 1.00344 0.40768 0.0
C46 C 0.44045 0.998 0.40479 0.0
C47 C 0.47026 1.03481 0.47201 0.0
C48 C 0.41167 1.03973 0.47501 0.0
C49 C 0.53798 0.99502 0.43441 0.0
O50 O 0.65633 0.95665 0.4907 0.0
O51 O 0.77267 1.00675 0.50385 0.0
O52 O 0.72974 1.0704 0.55845 0.0
O53 O 0.63604 1.06571 0.52915 0.0
O54 O 0.90212 0.13656 0.51104 0.0
O55 O 0.87416 0.1726 0.56185 0.0
O56 O 0.77686 0.19469 0.52616 0.0
O57 O 0.68491 0.15323 0.48207 0.0
O58 O 0.72214 1.03807 0.43493 0.0
O59 O 0.80393 0.14355 0.45881 0.0
C60 C 0.71081 0.95218 0.49905 0.0
O61 O 0.59551 1.04268 0.42438 0.0
O62 O 0.5473 0.96772 0.46237 0.0
C63 C 0.66837 1.06322 0.55897 0.0
C64 C 0.97113 0.25354 0.53648 0.0
C65 C 1.00537 0.38488 0.52176 0.0
C66 C 1.0046 0.37136 0.55913 0.0
C67 C 0.98744 0.30607 0.56643 0.0
C68 C 0.98266 0.27028 0.4998 0.0
C69 C 0.99888 0.33497 0.49247 0.0
C70 C 0.92419 0.18162 0.54157 0.0
C71 C 0.73168 0.20276 0.50757 0.0
H72 H 0.34752 0.98779 0.38255 0.0
H73 H 0.45007 0.98019 0.3776 0.0
H74 H 0.50355 1.04624 0.49725 0.0
H75 H 0.40017 1.05371 0.50258 0.0
H76 H 1.01192 0.40941 0.58255 0.0
H77 H 0.9799 0.29486 0.59507 0.0
H78 H 0.97158 0.23148 0.47598 0.0
H79 H 0.9992 0.34285 0.46327 0.0
Tb80 Tb 0.8379 0.66997 0.85762 0.0
Tb81 Tb 0.91005 0.80101 0.81434 0.0
C82 C 0.84046 0.6584 0.76867 0.0
C83 C 0.74993 0.49218 0.87842 0.0
C84 C 0.67907 0.35319 0.84811 0.0
C85 C 0.73574 0.40061 0.83126 0.0
C86 C 0.77075 0.46967 0.84622 0.0
C87 C 0.69541 0.44487 0.89631 0.0
C88 C 0.66003 0.37563 0.88121 0.0
C89 C 0.77795 0.56518 0.89012 0.0
O90 O 0.9324 0.67623 0.84129 0.0
O91 O 0.99541 0.79056 0.83632 0.0
O92 O 0.89633 0.83826 0.86937 0.0
O93 O 0.89752 0.75829 0.9015 0.0
O94 O 0.91397 0.84051 0.76383 0.0
O95 O 0.97803 0.90633 0.81382 0.0
O96 O 0.79832 0.76135 0.80984 0.0
O97 O 0.77464 0.71588 0.86445 0.0
O98 O 0.80285 0.63379 0.79675 0.0
O99 O 0.89824 0.71665 0.77505 0.0
C100 C 0.99197 0.7325 0.84129 0.0
O101 O 0.84425 0.60433 0.89199 0.0
O102 O 0.74685 0.59043 0.8728 0.0
C103 C 0.90463 0.81894 0.90097 0.0
C104 C 0.90682 0.93695 0.78253 0.0
C105 C 0.77884 0.92823 0.78305 0.0
C106 C 0.81796 0.94087 0.81709 0.0
C107 C 0.88185 0.94651 0.81682 0.0
C108 C 0.87267 0.93453 0.74878 0.0
C109 C 0.80926 0.93054 0.74904 0.0
C110 C 0.94739 0.90298 0.78163 0.0
C111 C 0.7579 0.73951 0.83714 0.0
H112 H 0.75083 0.38496 0.80534 0.0
H113 H 0.81198 0.50588 0.83169 0.0
H114 H 0.67841 0.4619 0.92098 0.0
H115 H 0.61675 0.34 0.89478 0.0
H116 H 0.79709 0.94014 0.84394 0.0
H117 H 0.90732 0.94965 0.84349 0.0
H118 H 0.89087 0.92746 0.72195 0.0
H119 H 0.78198 0.92417 0.72233 0.0
H120 H 0.8048 0.22014 0.26688 0.0
C121 C 0.75952 0.17308 0.25427 0.0
C122 C 0.72994 1.11675 0.27447 0.0
C123 C 0.72945 0.16925 0.21841 0.0
H124 H 0.64482 1.01462 0.2747 0.0
C125 C 0.66951 1.05654 0.25845 0.0
C126 C 0.63833 1.05074 0.22286 0.0
C127 C 0.6691 1.10727 0.20312 0.0
C128 C 0.75641 0.23069 0.19787 0.0
H129 H 0.64584 1.10254 0.17542 0.0
C130 C 0.82737 0.28056 0.19857 0.0
C131 C 0.84889 0.33792 0.17902 0.0
C132 C 0.70881 0.2402 0.17748 0.0
H133 H 0.6543 0.20566 0.17728 0.0
C134 C 0.73003 0.29497 0.15744 0.0
H135 H 0.86526 0.2754 0.2144 0.0
C136 C 0.79907 0.34304 0.15803 0.0
H137 H 0.8136 0.38516 0.14213 0.0
H138 H 0.69247 0.30069 0.14167 0.0
H139 H 0.72797 0.62187 0.59722 0.0
C140 C 0.73055 0.57755 0.58549 0.0
C141 C 0.74877 0.54374 0.61 0.0
C142 C 0.71275 0.55276 0.54658 0.0
H143 H 0.76191 0.4578 0.61424 0.0
C144 C 0.74891 0.48405 0.59524 0.0
C145 C 0.7333 0.4584 0.55642 0.0
C146 C 0.71638 0.49389 0.53247 0.0
C147 C 0.68503 0.58394 0.52107 0.0
H148 H 0.70668 0.47554 0.50254 0.0
C149 C 0.70269 0.65431 0.52696 0.0
C150 C 0.67149 0.67887 0.5029 0.0
C151 C 0.63629 0.54043 0.49071 0.0
H152 H 0.61828 0.48626 0.4857 0.0
C153 C 0.60777 0.5649 0.46657 0.0
H154 H 0.73932 0.68937 0.55016 0.0
C155 C 0.6251 0.63298 0.47246 0.0
H156 H 0.6015 0.64982 0.453 0.0
H157 H 0.57091 0.53034 0.44331 0.0
H158 H 0.37832 0.69272 0.92605 0.0
C159 C 0.33978 0.70192 0.91445 0.0
C160 C 0.29406 0.70847 0.93824 0.0
C161 C 0.3337 0.70388 0.87533 0.0
H162 H 1.20428 0.7184 0.93957 0.0
C163 C 0.24193 0.7168 0.92218 0.0
C164 C 0.23539 0.72048 0.8837 0.0
C165 C 0.28206 0.715 0.86052 0.0
C166 C 0.37266 0.68302 0.84895 0.0
H167 H 0.27588 0.71578 0.83055 0.0
C168 C 0.44427 0.70806 0.85501 0.0
C169 C 0.47723 0.68466 0.82904 0.0
C170 C 0.33527 0.6336 0.81738 0.0
H171 H 0.28058 0.61203 0.8122 0.0
C172 C 0.36684 0.60936 0.79262 0.0
H173 H 0.47408 0.74623 0.87911 0.0
C174 C 0.43666 0.63424 0.79836 0.0
H175 H 0.45882 0.61309 0.77866 0.0
H176 H 0.3368 0.57061 0.7688 0.0
H177 H 1.01364 0.64928 0.36702 0.0
C178 C 1.03762 0.70324 0.37791 0.0
C179 C 1.09063 0.75182 0.35969 0.0
C180 C 1.01673 0.72416 0.41095 0.0
H181 H 1.16727 0.85792 0.3629 0.0
C182 C 1.12274 0.82106 0.37521 0.0
C183 C 1.10424 0.84242 0.40886 0.0
C184 C 1.04983 0.79369 0.42618 0.0
C185 C 0.96909 0.6727 0.43317 0.0
H186 H 1.03718 0.80902 0.4531 0.0
C187 C 0.98921 0.63163 0.44905 0.0
C188 C 0.94581 0.58204 0.47074 0.0
C189 C 0.90577 0.66616 0.43997 0.0
H190 H 0.89006 0.69842 0.42834 0.0
C191 C 0.86211 0.61721 0.46159 0.0
H192 H 1.03974 0.63981 0.44496 0.0
C193 C 0.88161 0.57503 0.47668 0.0
H194 H 0.84597 0.53644 0.49248 0.0
H195 H 0.81282 0.61159 0.46648 0.0
H196 H 0.46349 0.93053 0.68289 0.0
C197 C 0.47571 0.97716 0.70115 0.0
C198 C 0.52434 1.04034 0.69118 0.0
C199 C 0.45377 0.97315 0.73758 0.0
H200 H 0.5853 0.14881 0.70932 0.0
C201 C 0.54609 1.10005 0.71648 0.0
C202 C 0.52269 1.09689 0.75234 0.0
C203 C 0.47509 1.03363 0.76254 0.0
C204 C 0.43985 0.91171 0.75372 0.0
H205 H 0.46279 1.03063 0.79156 0.0
C206 C 0.4967 0.91458 0.77157 0.0
C207 C 0.49691 0.85489 0.77587 0.0
C208 C 0.37948 0.8484 0.74373 0.0
H209 H 0.33558 0.8452 0.729 0.0
C210 C 0.37736 0.78842 0.75102 0.0
H211 H 0.54439 0.9634 0.77725 0.0
C212 C 0.43661 0.79137 0.76584 0.0
H213 H 0.43629 0.74446 0.76795 0.0
H214 H 0.33117 0.7393 0.7429 0.0
H215 H 0.86049 0.99644 0.03337 0.0
C216 C 0.91061 1.02242 0.049 0.0
C217 C 0.96124 1.00935 0.03638 0.0
C218 C 0.92217 1.06431 0.08332 0.0
H219 H 1.06114 1.02565 0.04927 0.0
C220 C 1.02395 1.03925 0.05833 0.0
C221 C 1.03654 1.08143 0.09301 0.0
C222 C 0.98568 1.09543 0.10464 0.0
C223 C 0.86342 1.06273 0.1005 0.0
H224 H 0.99301 1.12562 0.13176 0.0
C225 C 0.81332 1.00135 0.11163 0.0
C226 C 0.75519 0.99648 0.12692 0.0
C227 C 0.85643 1.12051 0.10568 0.0
H228 H 0.89515 0.16844 0.09756 0.0
C229 C 0.79817 1.11585 0.12062 0.0
H230 H 0.81917 0.95686 0.10775 0.0
C231 C 0.74729 1.05387 0.13068 0.0
H232 H 0.70199 1.05061 0.14148 0.0
H233 H 0.7921 0.16011 0.12411 0.0
C234 C 0.67125 0.82986 0.16772 0.0
C235 C 0.60291 0.80028 0.1531 0.0
H236 H 0.77338 0.91564 0.17071 0.0
C237 C 0.58447 0.83712 0.1314 0.0
H238 H 0.68655 0.80276 0.18481 0.0
C239 C 0.63356 0.90186 0.12397 0.0
C240 C 0.70225 0.93057 0.13756 0.0
H241 H 0.53174 0.81613 0.12056 0.0
H242 H 0.61807 0.92875 0.10683 0.0
C243 C 0.72067 0.89422 0.15968 0.0
C244 C 1.0261 0.47272 0.47956 0.0
C245 C 1.00091 0.44447 0.51249 0.0
H246 H 1.02561 0.53428 0.4395 0.0
C247 C 0.96229 0.4666 0.53339 0.0
H248 H 1.05722 0.45823 0.46307 0.0
C249 C 0.94607 0.51267 0.52055 0.0
C250 C 0.96731 0.53716 0.4862 0.0
H251 H 0.94153 0.44591 0.55879 0.0
H252 H 0.91573 0.52791 0.53727 0.0
C253 C 1.00861 0.51743 0.46626 0.0
C254 C 0.68021 0.93008 0.81274 0.0
C255 C 0.70488 0.90568 0.78288 0.0
H256 H 0.59347 0.93016 0.83478 0.0
C257 C 0.6576 0.85672 0.7535 0.0
H258 H 0.71476 0.96819 0.8357 0.0
C259 C 0.58823 0.83533 0.75305 0.0
C260 C 0.56433 0.86139 0.78226 0.0
H261 H 0.67395 0.83478 0.73065 0.0
H262 H 0.55372 0.80064 0.729 0.0
C263 C 0.61064 0.90792 0.81248 0.0
C264 C 1.12074 1.06277 0.17734 0.0
C265 C 1.16814 1.05007 0.15916 0.0
H266 H 1.039 1.0816 0.16992 0.0
C267 C 1.19034 1.07719 0.12549 0.0
H268 H 1.10538 1.0463 0.20442 0.0
C269 C 1.1543 1.10098 0.10631 0.0
C270 C 1.0946 1.09564 0.12 0.0
H271 H 0.22853 1.07103 0.11104 0.0
H272 H 1.16723 1.11385 0.07833 0.0
C273 C 1.08296 1.084 0.15754 0.0
C274 C 0.25747 1.01289 0.41828 0.0
C275 C 0.29398 1.00392 0.44706 0.0
H276 H 1.16261 0.96731 0.38388 0.0
C277 C 0.25713 0.95869 0.47245 0.0
H278 H 0.28442 1.049 0.39902 0.0
C279 C 1.18734 0.9121 0.46384 0.0
C280 C 1.15451 0.91049 0.42975 0.0
H281 H 0.28347 0.95139 0.49542 0.0
H282 H 1.16284 0.87047 0.4803 0.0
C283 C 1.18753 0.96639 0.40977 0.0
C284 C 0.56543 0.25079 0.82329 0.0
C285 C 0.63707 0.28208 0.82897 0.0
H286 H 0.47227 0.16635 0.7941 0.0
C287 C 0.66903 0.24806 0.81257 0.0
H288 H 0.53961 0.27624 0.83546 0.0
C289 C 0.63083 0.1863 0.78881 0.0
C290 C 0.56001 0.15735 0.7812 0.0
H291 H 0.72395 0.27047 0.81704 0.0
H292 H 0.65688 0.16206 0.77537 0.0
C293 C 0.52699 0.18845 0.79956 0.0
C294 C 0.75877 0.87436 0.50856 0.0
C295 C 0.70209 0.88341 0.50337 0.0
H296 H 0.79426 0.80352 0.51307 0.0
C297 C 0.63639 0.82553 0.50233 0.0
H298 H 0.81034 0.91756 0.50985 0.0
C299 C 0.62744 0.76071 0.50478 0.0
C300 C 0.68372 0.75078 0.50813 0.0
H301 H 0.59134 0.82989 0.49899 0.0
H302 H 0.57574 0.71744 0.50287 0.0
C303 C 0.74971 0.80896 0.51087 0.0
C304 C 1.12193 0.78505 0.84651 0.0
C305 C 1.05568 0.72916 0.84855 0.0
H306 H 0.23091 0.82589 0.85519 0.0
C307 C 1.05031 0.66943 0.8595 0.0
H308 H 1.12844 0.83191 0.83826 0.0
C309 C 1.10867 0.66635 0.86936 0.0
C310 C 1.17464 0.72239 0.86811 0.0
H311 H 1.0007 0.62517 0.8616 0.0
H312 H 1.10222 0.62031 0.87885 0.0
C313 C 1.18073 0.78154 0.856 0.0
C314 C 0.49719 0.86234 0.20327 0.0
C315 C 0.4426 0.86455 0.18544 0.0
H316 H 0.60113 0.91744 0.22752 0.0
C317 C 0.45453 0.92841 0.17752 0.0
H318 H 0.49063 0.81436 0.20959 0.0
C319 C 0.51842 0.98847 0.18846 0.0
C320 C 0.57224 0.98633 0.20751 0.0
H321 H 0.41394 0.93239 0.16387 0.0
H322 H 0.52472 1.0369 0.18319 0.0
C323 C 0.56085 0.92193 0.21388 0.0
C324 C 0.68376 0.28186 0.5018 0.0
C325 C 0.73344 0.26962 0.51735 0.0
H326 H 0.64442 0.35011 0.50159 0.0
C327 C 0.78465 0.32174 0.54424 0.0
H328 H 0.64345 0.24334 0.48109 0.0
C329 C 0.78503 0.38261 0.55607 0.0
C330 C 0.7346 0.39447 0.54139 0.0
H331 H 0.82448 0.31535 0.5568 0.0
H332 H 0.8252 0.42061 0.577 0.0
C333 C 0.6845 0.34345 0.51353 0.0
C334 C 0.65545 0.72946 0.869 0.0
C335 C 0.69001 0.73562 0.83613 0.0
H336 H 0.56248 0.7105 0.893 0.0
C337 C 0.65633 0.73215 0.80196 0.0
H338 H 0.67989 0.73217 0.89596 0.0
C339 C 0.58873 0.71858 0.80026 0.0
C340 C 0.55288 0.70984 0.83277 0.0
H341 H 0.68093 0.73654 0.77609 0.0
H342 H 0.56361 0.71269 0.77294 0.0
C343 C 0.58812 0.71749 0.86742 0.0
C344 C 1.04067 0.43914 0.16644 0.0
C345 C 1.05385 0.50703 0.17118 0.0
H346 H 0.96588 0.33206 0.16554 0.0
C347 C 1.00074 0.51798 0.18204 0.0
H348 H 1.08042 0.4286 0.15851 0.0
C349 C 0.9362 0.46323 0.18671 0.0
C350 C 0.92177 0.39516 0.18041 0.0
H351 H 1.00867 0.56918 0.1868 0.0
H352 H 0.89657 0.47416 0.19442 0.0
C353 C 0.97528 0.38378 0.17093 0.0
C354 C 0.30055 0.64394 0.03173 0.0
C355 C 0.2792 0.68099 0.05596 0.0
H356 H 0.32109 0.62246 0.97509 0.0
C357 C 0.2709 0.73178 0.04232 0.0
H358 H 0.30767 0.6047 0.04163 0.0
C359 C 0.28032 0.74332 0.00497 0.0
C360 C 0.29656 0.70313 0.97956 0.0
H361 H 0.25604 0.7623 0.06054 0.0
H362 H 0.2728 0.78275 -0.00428 0.0
C363 C 0.3086 0.6545 -0.00629 0.0
C364 C 0.78813 0.17111 0.37977 0.0
C365 C 0.78184 1.1107 0.38995 0.0
H366 H 0.77624 0.22062 0.33499 0.0
C367 C 0.76949 1.05763 0.36125 0.0
H368 H 0.79676 0.21253 0.40134 0.0
C369 C 0.7585 1.06242 0.32349 0.0
C370 C 0.7582 1.11994 0.31333 0.0
H371 H 0.76451 1.01054 0.36822 0.0
H372 H 0.7463 1.01916 0.30236 0.0
C373 C 0.7762 0.17563 0.34174 0.0
C374 C 0.84219 0.66792 0.69974 0.0
C375 C 0.81542 0.62671 0.72845 0.0
H376 H 0.84162 0.67458 0.64062 0.0
C377 C 0.76485 0.55751 0.71789 0.0
H378 H 0.88067 0.72164 0.70657 0.0
C379 C 0.74296 0.5302 0.67951 0.0
C380 C 0.76986 0.57194 0.65098 0.0
H381 H 0.74292 0.5244 0.73917 0.0
H382 H 0.70453 0.47657 0.67213 0.0
C383 C 0.81938 0.64116 0.66174 0.0
C384 C 0.56066 1.0173 0.59025 0.0
C385 C 0.63271 1.05218 0.59348 0.0
H386 H 0.46991 0.98599 0.61879 0.0
C387 C 0.66878 1.08035 0.62922 0.0
H388 H 0.53148 0.99455 0.56295 0.0
C389 C 0.6333 1.07624 0.66105 0.0
C390 C 0.56133 1.04307 0.65756 0.0
H391 H 0.72418 1.10757 0.6324 0.0
H392 H 0.66207 1.09926 0.68843 0.0
C393 C 0.52529 1.01229 0.62205 0.0
C394 C 0.94602 0.85961 0.96981 0.0
C395 C 0.91784 0.86572 0.93626 0.0
H396 H 0.98235 0.90083 0.02794 0.0
C397 C 0.90321 0.91866 0.93613 0.0
H398 H 0.95773 0.81936 0.97076 0.0
C399 C 0.91697 0.96485 0.96865 0.0
C400 C 0.94637 0.95973 0.00199 0.0
H401 H 0.88076 0.92444 0.91085 0.0
H402 H 0.90546 1.00523 0.96758 0.0
C403 C 0.96058 0.90653 0.00236 0.0
C404 C 1.16934 0.66978 0.29584 0.0
C405 C 1.19134 0.71338 0.26814 0.0
H406 H 1.11981 0.64764 0.3471 0.0
C407 C 1.17354 0.76421 0.2691 0.0
H408 H 1.1814 0.62958 0.29554 0.0
C409 C 1.13685 0.77289 0.29737 0.0
C410 C 1.11805 0.73231 0.32634 0.0
H411 H 1.18807 0.79809 0.24794 0.0
H412 H 1.1249 0.81313 0.29717 0.0
C413 C 1.1333 0.67951 0.32497 0.0
loop_
_geom_bond_atom_site_label_1
_geom_bond_atom_site_label_2
_geom_bond_distance
_geom_bond_site_symmetry_2
_ccdc_geom_bond_type
Tb0 C9 2.764 1_455 S
Tb0 O10 2.325 1_455 S
Tb0 O13 2.303 . S
Tb0 O17 2.322 . S
Tb0 O18 2.349 . S
Tb0 O21 2.415 1_455 S
Tb0 O22 2.399 1_455 S
Tb1 O11 2.322 1_455 S
Tb1 O12 2.349 . S
Tb1 O14 2.415 . S
Tb1 O15 2.399 . S
Tb1 O16 2.325 . S
Tb1 O19 2.303 . S
Tb1 C30 2.764 . S
C2 O18 1.261 . S
C2 O19 1.257 . S
C3 C6 1.358 . S
C3 C7 1.332 . S
C3 C9 1.504 . S
C4 C5 1.373 . S
C4 C8 1.308 . S
C5 C4 1.373 . S
C5 C6 1.429 . S
C5 H32 0.932 . S
C6 C3 1.358 . S
C6 C5 1.429 . S
C6 H33 0.930 . S
C7 C3 1.332 . S
C7 C8 1.394 . S
C7 H34 0.932 . S
C8 C4 1.308 . S
C8 C7 1.394 . S
C8 H35 0.929 . S
C9 Tb0 2.764 1_655 S
C9 C3 1.504 . S
C9 O21 1.239 . S
C9 O22 1.263 . S
O10 Tb0 2.325 1_655 S
O10 C20 1.236 . S
O11 Tb1 2.322 1_655 S
O11 C20 1.257 . S
O12 Tb1 2.349 . S
O12 C23 1.261 . S
O13 Tb0 2.303 . S
O13 C23 1.257 . S
O14 Tb1 2.415 . S
O14 C30 1.239 . S
O15 Tb1 2.399 . S
O15 C30 1.263 . S
O16 Tb1 2.325 . S
O16 C31 1.236 . S
O17 Tb0 2.322 . S
O17 C31 1.257 . S
O18 Tb0 2.349 . S
O18 C2 1.261 . S
O19 Tb1 2.303 . S
O19 C2 1.257 . S
C20 O10 1.236 . S
C20 O11 1.257 . S
O21 Tb0 2.415 1_655 S
O21 C9 1.239 . S
O22 Tb0 2.399 1_655 S
O22 C9 1.263 . S
C23 O12 1.261 . S
C23 O13 1.257 . S
C24 C27 1.358 . S
C24 C28 1.332 . S
C24 C30 1.504 . S
C25 C26 1.373 . S
C25 C29 1.308 . S
C26 C25 1.373 . S
C26 C27 1.429 . S
C26 H36 0.932 . S
C27 C24 1.358 . S
C27 C26 1.429 . S
C27 H37 0.930 . S
C28 C24 1.332 . S
C28 C29 1.394 . S
C28 H38 0.932 . S
C29 C25 1.308 . S
C29 C28 1.394 . S
C29 H39 0.929 . S
C30 Tb1 2.764 . S
C30 O14 1.239 . S
C30 O15 1.263 . S
C30 C24 1.504 . S
C31 O16 1.236 . S
C31 O17 1.257 . S
H32 C5 0.932 . S
H33 C6 0.930 . S
H34 C7 0.932 . S
H35 C8 0.929 . S
H36 C26 0.932 . S
H37 C27 0.930 . S
H38 C28 0.932 . S
H39 C29 0.929 . S
Tb40 C49 2.764 1_545 S
Tb40 O50 2.325 1_545 S
Tb40 O53 2.303 . S
Tb40 O57 2.322 . S
Tb40 O58 2.349 . S
Tb40 O61 2.415 1_545 S
Tb40 O62 2.399 1_545 S
Tb41 O51 2.322 . S
Tb41 O52 2.349 . S
Tb41 O54 2.415 . S
Tb41 O55 2.399 . S
Tb41 O56 2.325 . S
Tb41 O59 2.303 . S
Tb41 C70 2.764 . S
C42 O58 1.261 . S
C42 O59 1.257 . S
C43 C46 1.358 . S
C43 C47 1.332 . S
C43 C49 1.504 . S
C44 C45 1.373 . S
C44 C48 1.308 . S
C45 C44 1.373 . S
C45 C46 1.429 . S
C45 H72 0.932 . S
C46 C43 1.358 . S
C46 C45 1.429 . S
C46 H73 0.930 . S
C47 C43 1.332 . S
C47 C48 1.394 . S
C47 H74 0.932 . S
C48 C44 1.308 . S
C48 C47 1.394 . S
C48 H75 0.929 . S
C49 Tb40 2.764 1_565 S
C49 C43 1.504 . S
C49 O61 1.239 . S
C49 O62 1.263 . S
O50 Tb40 2.325 1_565 S
O50 C60 1.236 . S
O51 Tb41 2.322 . S
O51 C60 1.257 1_545 S
O52 Tb41 2.349 . S
O52 C63 1.261 . S
O53 Tb40 2.303 . S
O53 C63 1.257 . S
O54 Tb41 2.415 . S
O54 C70 1.239 . S
O55 Tb41 2.399 . S
O55 C70 1.263 . S
O56 Tb41 2.325 . S
O56 C71 1.236 . S
O57 Tb40 2.322 . S
O57 C71 1.257 . S
O58 Tb40 2.349 . S
O58 C42 1.261 . S
O59 Tb41 2.303 . S
O59 C42 1.257 . S
C60 O50 1.236 . S
C60 O51 1.257 1_565 S
O61 Tb40 2.415 1_565 S
O61 C49 1.239 . S
O62 Tb40 2.399 1_565 S
O62 C49 1.263 . S
C63 O52 1.261 . S
C63 O53 1.257 . S
C64 C67 1.358 . S
C64 C68 1.332 . S
C64 C70 1.504 . S
C65 C66 1.373 . S
C65 C69 1.308 . S
C66 C65 1.373 . S
C66 C67 1.429 . S
C66 H76 0.932 . S
C67 C64 1.358 . S
C67 C66 1.429 . S
C67 H77 0.930 . S
C68 C64 1.332 . S
C68 C69 1.394 . S
C68 H78 0.932 . S
C69 C65 1.308 . S
C69 C68 1.394 . S
C69 H79 0.929 . S
C70 Tb41 2.764 . S
C70 O54 1.239 . S
C70 O55 1.263 . S
C70 C64 1.504 . S
C71 O56 1.236 . S
C71 O57 1.257 . S
H72 C45 0.932 . S
H73 C46 0.930 . S
H74 C47 0.932 . S
H75 C48 0.929 . S
H76 C66 0.932 . S
H77 C67 0.930 . S
H78 C68 0.932 . S
H79 C69 0.929 . S
Tb80 C89 2.764 . S
Tb80 O90 2.325 . S
Tb80 O93 2.303 . S
Tb80 O97 2.322 . S
Tb80 O98 2.349 . S
Tb80 O101 2.415 . S
Tb80 O102 2.399 . S
Tb81 O91 2.322 . S
Tb81 O92 2.349 . S
Tb81 O94 2.415 . S
Tb81 O95 2.399 . S
Tb81 O96 2.325 . S
Tb81 O99 2.303 . S
Tb81 C110 2.764 . S
C82 O98 1.261 . S
C82 O99 1.257 . S
C83 C86 1.358 . S
C83 C87 1.332 . S
C83 C89 1.504 . S
C84 C85 1.373 . S
C84 C88 1.308 . S
C85 C84 1.373 . S
C85 C86 1.429 . S
C85 H112 0.932 . S
C86 C83 1.358 . S
C86 C85 1.429 . S
C86 H113 0.930 . S
C87 C83 1.332 . S
C87 C88 1.394 . S
C87 H114 0.932 . S
C88 C84 1.308 . S
C88 C87 1.394 . S
C88 H115 0.929 . S
C89 Tb80 2.764 . S
C89 C83 1.504 . S
C89 O101 1.239 . S
C89 O102 1.263 . S
O90 Tb80 2.325 . S
O90 C100 1.236 . S
O91 Tb81 2.322 . S
O91 C100 1.257 . S
O92 Tb81 2.349 . S
O92 C103 1.261 . S
O93 Tb80 2.303 . S
O93 C103 1.257 . S
O94 Tb81 2.415 . S
O94 C110 1.239 . S
O95 Tb81 2.399 . S
O95 C110 1.263 . S
O96 Tb81 2.325 . S
O96 C111 1.236 . S
O97 Tb80 2.322 . S
O97 C111 1.257 . S
O98 Tb80 2.349 . S
O98 C82 1.261 . S
O99 Tb81 2.303 . S
O99 C82 1.257 . S
C100 O90 1.236 . S
C100 O91 1.257 . S
O101 Tb80 2.415 . S
O101 C89 1.239 . S
O102 Tb80 2.399 . S
O102 C89 1.263 . S
C103 O92 1.261 . S
C103 O93 1.257 . S
C104 C107 1.358 . S
C104 C108 1.332 . S
C104 C110 1.504 . S
C105 C106 1.373 . S
C105 C109 1.308 . S
C106 C105 1.373 . S
C106 C107 1.429 . S
C106 H116 0.932 . S
C107 C104 1.358 . S
C107 C106 1.429 . S
C107 H117 0.930 . S
C108 C104 1.332 . S
C108 C109 1.394 . S
C108 H118 0.932 . S
C109 C105 1.308 . S
C109 C108 1.394 . S
C109 H119 0.929 . S
C110 Tb81 2.764 . S
C110 O94 1.239 . S
C110 O95 1.263 . S
C110 C104 1.504 . S
C111 O96 1.236 . S
C111 O97 1.257 . S
H112 C85 0.932 . S
H113 C86 0.930 . S
H114 C87 0.932 . S
H115 C88 0.929 . S
H116 C106 0.932 . S
H117 C107 0.930 . S
H118 C108 0.932 . S
H119 C109 0.929 . S
H120 C121 0.949 . S
C121 H120 0.949 . S
C121 C122 1.395 . S
C121 C123 1.391 . S
C122 C121 1.395 . S
C122 C125 1.390 . S
C123 C121 1.391 . S
C123 C127 1.387 . S
C123 C128 1.491 . S
H124 C125 0.950 1_565 S
C125 C122 1.390 . S
C125 H124 0.950 1_545 S
C125 C126 1.378 1_545 S
C126 C125 1.378 1_565 S
C126 C127 1.409 1_565 S
C127 C123 1.387 . S
C127 C126 1.409 1_545 S
C127 H129 0.951 . S
C128 C123 1.491 . S
C128 C130 1.382 . S
C128 C132 1.404 . S
H129 C127 0.951 . S
C130 C128 1.382 . S
C130 C131 1.390 . S
C130 H135 0.949 . S
C131 C130 1.390 . S
C131 C136 1.399 . S
C132 C128 1.404 . S
C132 H133 0.950 . S
C132 C134 1.375 . S
H133 C132 0.950 . S
C134 C132 1.375 . S
C134 C136 1.382 . S
C134 H138 0.950 . S
H135 C130 0.949 . S
C136 C131 1.399 . S
C136 C134 1.382 . S
C136 H137 0.952 . S
H137 C136 0.952 . S
H138 C134 0.950 . S
H139 C140 0.949 . S
C140 H139 0.949 . S
C140 C141 1.395 . S
C140 C142 1.391 . S
C141 C140 1.395 . S
C141 C144 1.390 . S
C142 C140 1.391 . S
C142 C146 1.387 . S
C142 C147 1.491 . S
H143 C144 0.950 . S
C144 C141 1.390 . S
C144 H143 0.950 . S
C144 C145 1.378 . S
C145 C144 1.378 . S
C145 C146 1.409 . S
C146 C142 1.387 . S
C146 C145 1.409 . S
C146 H148 0.951 . S
C147 C142 1.491 . S
C147 C149 1.382 . S
C147 C151 1.404 . S
H148 C146 0.951 . S
C149 C147 1.382 . S
C149 C150 1.390 . S
C149 H154 0.949 . S
C150 C149 1.390 . S
C150 C155 1.399 . S
C151 C147 1.404 . S
C151 H152 0.950 . S
C151 C153 1.375 . S
H152 C151 0.950 . S
C153 C151 1.375 . S
C153 C155 1.382 . S
C153 H157 0.950 . S
H154 C149 0.949 . S
C155 C150 1.399 . S
C155 C153 1.382 . S
C155 H156 0.952 . S
H156 C155 0.952 . S
H157 C153 0.950 . S
H158 C159 0.949 . S
C159 H158 0.949 . S
C159 C160 1.395 . S
C159 C161 1.391 . S
C160 C159 1.395 . S
C160 C163 1.390 1_455 S
C161 C159 1.391 . S
C161 C165 1.387 . S
C161 C166 1.491 . S
H162 C163 0.950 . S
C163 C160 1.390 1_655 S
C163 H162 0.950 . S
C163 C164 1.378 . S
C164 C163 1.378 . S
C164 C165 1.409 1_655 S
C165 C161 1.387 . S
C165 C164 1.409 1_455 S
C165 H167 0.951 . S
C166 C161 1.491 . S
C166 C168 1.382 . S
C166 C170 1.404 . S
H167 C165 0.951 . S
C168 C166 1.382 . S
C168 C169 1.390 . S
C168 H173 0.949 . S
C169 C168 1.390 . S
C169 C174 1.399 . S
C170 C166 1.404 . S
C170 H171 0.950 . S
C170 C172 1.375 . S
H171 C170 0.950 . S
C172 C170 1.375 . S
C172 C174 1.382 . S
C172 H176 0.950 . S
H173 C168 0.949 . S
C174 C169 1.399 . S
C174 C172 1.382 . S
C174 H175 0.952 . S
H175 C174 0.952 . S
H176 C172 0.950 . S
H177 C178 0.949 . S
C178 H177 0.949 . S
C178 C179 1.395 1_655 S
C178 C180 1.391 1_655 S
C179 C178 1.395 1_455 S
C179 C182 1.390 . S
C180 C178 1.391 1_455 S
C180 C184 1.387 . S
C180 C185 1.491 1_455 S
H181 C182 0.950 . S
C182 C179 1.390 . S
C182 H181 0.950 . S
C182 C183 1.378 . S
C183 C182 1.378 . S
C183 C184 1.409 . S
C184 C180 1.387 . S
C184 C183 1.409 . S
C184 H186 0.951 . S
C185 C180 1.491 1_655 S
C185 C187 1.382 . S
C185 C189 1.404 . S
H186 C184 0.951 . S
C187 C185 1.382 . S
C187 C188 1.390 . S
C187 H192 0.949 . S
C188 C187 1.390 . S
C188 C193 1.399 . S
C189 C185 1.404 . S
C189 H190 0.950 . S
C189 C191 1.375 . S
H190 C189 0.950 . S
C191 C189 1.375 . S
C191 C193 1.382 . S
C191 H195 0.950 . S
H192 C187 0.949 . S
C193 C188 1.399 . S
C193 C191 1.382 . S
C193 H194 0.952 . S
H194 C193 0.952 . S
H195 C191 0.950 . S
H196 C197 0.949 1_565 S
C197 H196 0.949 1_545 S
C197 C198 1.395 . S
C197 C199 1.391 . S
C198 C197 1.395 . S
C198 C201 1.390 . S
C199 C197 1.391 . S
C199 C203 1.387 . S
C199 C204 1.491 1_545 S
H200 C201 0.950 . S
C201 C198 1.390 . S
C201 H200 0.950 . S
C201 C202 1.378 . S
C202 C201 1.378 . S
C202 C203 1.409 . S
C203 C199 1.387 . S
C203 C202 1.409 . S
C203 H205 0.951 . S
C204 C199 1.491 1_565 S
C204 C206 1.382 . S
C204 C208 1.404 . S
H205 C203 0.951 . S
C206 C204 1.382 . S
C206 C207 1.390 . S
C206 H211 0.949 . S
C207 C206 1.390 . S
C207 C212 1.399 . S
C208 C204 1.404 . S
C208 H209 0.950 . S
C208 C210 1.375 . S
H209 C208 0.950 . S
C210 C208 1.375 . S
C210 C212 1.382 . S
C210 H214 0.950 . S
H211 C206 0.949 . S
C212 C207 1.399 . S
C212 C210 1.382 . S
C212 H213 0.952 . S
H213 C212 0.952 . S
H214 C210 0.950 . S
H215 C216 0.949 . S
C216 H215 0.949 . S
C216 C217 1.395 . S
C216 C218 1.391 . S
C217 C216 1.395 . S
C217 C220 1.390 . S
C218 C216 1.391 . S
C218 C222 1.387 . S
C218 C223 1.491 . S
H219 C220 0.950 . S
C220 C217 1.390 . S
C220 H219 0.950 . S
C220 C221 1.378 . S
C221 C220 1.378 . S
C221 C222 1.409 . S
C222 C218 1.387 . S
C222 C221 1.409 . S
C222 H224 0.951 . S
C223 C218 1.491 . S
C223 C225 1.382 . S
C223 C227 1.404 . S
H224 C222 0.951 . S
C225 C223 1.382 . S
C225 C226 1.390 . S
C225 H230 0.949 . S
C226 C225 1.390 . S
C226 C231 1.399 . S
C227 C223 1.404 . S
C227 H228 0.950 . S
C227 C229 1.375 . S
H228 C227 0.950 . S
C229 C227 1.375 . S
C229 C231 1.382 . S
C229 H233 0.950 . S
H230 C225 0.949 . S
C231 C226 1.399 . S
C231 C229 1.382 . S
C231 H232 0.952 . S
H232 C231 0.952 . S
H233 C229 0.950 . S
C234 C235 1.387 . S
C234 H238 0.950 . S
C234 C243 1.390 . S
C235 C234 1.387 . S
C235 C237 1.387 . S
H236 C243 0.950 . S
C237 C235 1.387 . S
C237 C239 1.390 . S
C237 H241 0.950 . S
H238 C234 0.950 . S
C239 C237 1.390 . S
C239 C240 1.387 . S
C239 H242 0.950 . S
C240 C239 1.387 . S
C240 C243 1.387 . S
H241 C237 0.950 . S
H242 C239 0.950 . S
C243 C234 1.390 . S
C243 H236 0.950 . S
C243 C240 1.387 . S
C244 C245 1.387 . S
C244 H248 0.950 . S
C244 C253 1.390 . S
C245 C244 1.387 . S
C245 C247 1.387 . S
H246 C253 0.950 . S
C247 C245 1.387 . S
C247 C249 1.390 . S
C247 H251 0.950 . S
H248 C244 0.950 . S
C249 C247 1.390 . S
C249 C250 1.387 . S
C249 H252 0.950 . S
C250 C249 1.387 . S
C250 C253 1.387 . S
H251 C247 0.950 . S
H252 C249 0.950 . S
C253 C244 1.390 . S
C253 H246 0.950 . S
C253 C250 1.387 . S
C254 C255 1.387 . S
C254 H258 0.950 . S
C254 C263 1.390 . S
C255 C254 1.387 . S
C255 C257 1.387 . S
H256 C263 0.950 . S
C257 C255 1.387 . S
C257 C259 1.390 . S
C257 H261 0.950 . S
H258 C254 0.950 . S
C259 C257 1.390 . S
C259 C260 1.387 . S
C259 H262 0.950 . S
C260 C259 1.387 . S
C260 C263 1.387 . S
H261 C257 0.950 . S
H262 C259 0.950 . S
C263 C254 1.390 . S
C263 H256 0.950 . S
C263 C260 1.387 . S
C264 C265 1.387 . S
C264 H268 0.950 . S
C264 C273 1.390 . S
C265 C264 1.387 . S
C265 C267 1.387 . S
H266 C273 0.950 . S
C267 C265 1.387 . S
C267 C269 1.390 . S
C267 H271 0.950 . S
H268 C264 0.950 . S
C269 C267 1.390 . S
C269 C270 1.387 . S
C269 H272 0.950 . S
C270 C269 1.387 . S
C270 C273 1.387 . S
H271 C267 0.950 . S
H272 C269 0.950 . S
C273 C264 1.390 . S
C273 H266 0.950 . S
C273 C270 1.387 . S
C274 C275 1.387 . S
C274 H278 0.950 . S
C274 C283 1.390 . S
C275 C274 1.387 . S
C275 C277 1.387 . S
H276 C283 0.950 . S
C277 C275 1.387 . S
C277 C279 1.390 . S
C277 H281 0.950 . S
H278 C274 0.950 . S
C279 C277 1.390 . S
C279 C280 1.387 . S
C279 H282 0.950 . S
C280 C279 1.387 . S
C280 C283 1.387 . S
H281 C277 0.950 . S
H282 C279 0.950 . S
C283 C274 1.390 . S
C283 H276 0.950 . S
C283 C280 1.387 . S
C284 C285 1.387 . S
C284 H288 0.950 . S
C284 C293 1.390 . S
C285 C284 1.387 . S
C285 C287 1.387 . S
H286 C293 0.950 . S
C287 C285 1.387 . S
C287 C289 1.390 . S
C287 H291 0.950 . S
H288 C284 0.950 . S
C289 C287 1.390 . S
C289 C290 1.387 . S
C289 H292 0.950 . S
C290 C289 1.387 . S
C290 C293 1.387 . S
H291 C287 0.950 . S
H292 C289 0.950 . S
C293 C284 1.390 . S
C293 H286 0.950 . S
C293 C290 1.387 . S
C294 C295 1.387 . S
C294 H298 0.950 . S
C294 C303 1.390 . S
C295 C294 1.387 . S
C295 C297 1.387 . S
H296 C303 0.950 . S
C297 C295 1.387 . S
C297 C299 1.390 . S
C297 H301 0.950 . S
H298 C294 0.950 . S
C299 C297 1.390 . S
C299 C300 1.387 . S
C299 H302 0.950 . S
C300 C299 1.387 . S
C300 C303 1.387 . S
H301 C297 0.950 . S
H302 C299 0.950 . S
C303 C294 1.390 . S
C303 H296 0.950 . S
C303 C300 1.387 . S
C304 C305 1.387 . S
C304 H308 0.950 . S
C304 C313 1.390 . S
C305 C304 1.387 . S
C305 C307 1.387 . S
H306 C313 0.950 . S
C307 C305 1.387 . S
C307 C309 1.390 . S
C307 H311 0.950 . S
H308 C304 0.950 . S
C309 C307 1.390 . S
C309 C310 1.387 . S
C309 H312 0.950 . S
C310 C309 1.387 . S
C310 C313 1.387 . S
H311 C307 0.950 . S
H312 C309 0.950 . S
C313 C304 1.390 . S
C313 H306 0.950 . S
C313 C310 1.387 . S
C314 C315 1.387 . S
C314 H318 0.950 . S
C314 C323 1.390 . S
C315 C314 1.387 . S
C315 C317 1.387 . S
H316 C323 0.950 . S
C317 C315 1.387 . S
C317 C319 1.390 . S
C317 H321 0.950 . S
H318 C314 0.950 . S
C319 C317 1.390 . S
C319 C320 1.387 . S
C319 H322 0.950 . S
C320 C319 1.387 . S
C320 C323 1.387 . S
H321 C317 0.950 . S
H322 C319 0.950 . S
C323 C314 1.390 . S
C323 H316 0.950 . S
C323 C320 1.387 . S
C324 C325 1.387 . S
C324 H328 0.950 . S
C324 C333 1.390 . S
C325 C324 1.387 . S
C325 C327 1.387 . S
H326 C333 0.950 . S
C327 C325 1.387 . S
C327 C329 1.390 . S
C327 H331 0.950 . S
H328 C324 0.950 . S
C329 C327 1.390 . S
C329 C330 1.387 . S
C329 H332 0.950 . S
C330 C329 1.387 . S
C330 C333 1.387 . S
H331 C327 0.950 . S
H332 C329 0.950 . S
C333 C324 1.390 . S
C333 H326 0.950 . S
C333 C330 1.387 . S
C334 C335 1.387 . S
C334 H338 0.950 . S
C334 C343 1.390 . S
C335 C334 1.387 . S
C335 C337 1.387 . S
H336 C343 0.950 . S
C337 C335 1.387 . S
C337 C339 1.390 . S
C337 H341 0.950 . S
H338 C334 0.950 . S
C339 C337 1.390 . S
C339 C340 1.387 . S
C339 H342 0.950 . S
C340 C339 1.387 . S
C340 C343 1.387 . S
H341 C337 0.950 . S
H342 C339 0.950 . S
C343 C334 1.390 . S
C343 H336 0.950 . S
C343 C340 1.387 . S
C344 C345 1.387 . S
C344 H348 0.950 . S
C344 C353 1.390 . S
C345 C344 1.387 . S
C345 C347 1.387 . S
H346 C353 0.950 . S
C347 C345 1.387 . S
C347 C349 1.390 . S
C347 H351 0.950 . S
H348 C344 0.950 . S
C349 C347 1.390 . S
C349 C350 1.387 . S
C349 H352 0.950 . S
C350 C349 1.387 . S
C350 C353 1.387 . S
H351 C347 0.950 . S
H352 C349 0.950 . S
C353 C344 1.390 . S
C353 H346 0.950 . S
C353 C350 1.387 . S
C354 C355 1.387 . S
C354 H358 0.952 . S
C354 C363 1.390 1_554 S
C355 C354 1.387 . S
C355 C357 1.387 . S
H356 C363 0.950 1_655 S
C357 C355 1.387 . S
C357 C359 1.390 . S
C357 H361 0.950 . S
H358 C354 0.952 . S
C359 C357 1.390 . S
C359 C360 1.387 1_554 S
C359 H362 0.950 1_554 S
C360 C359 1.387 1_556 S
C360 C363 1.387 . S
H361 C357 0.950 . S
H362 C359 0.950 1_556 S
C363 C354 1.390 1_556 S
C363 H356 0.950 1_455 S
C363 C360 1.387 . S
C364 C365 1.387 . S
C364 H368 0.950 . S
C364 C373 1.390 . S
C365 C364 1.387 . S
C365 C367 1.387 . S
H366 C373 0.950 . S
C367 C365 1.387 . S
C367 C369 1.390 . S
C367 H371 0.950 1_545 S
H368 C364 0.950 . S
C369 C367 1.390 . S
C369 C370 1.387 . S
C369 H372 0.950 1_545 S
C370 C369 1.387 . S
C370 C373 1.387 . S
H371 C367 0.950 1_565 S
H372 C369 0.950 1_565 S
C373 C364 1.390 . S
C373 H366 0.950 . S
C373 C370 1.387 . S
C374 C375 1.387 . S
C374 H378 0.950 . S
C374 C383 1.390 . S
C375 C374 1.387 . S
C375 C377 1.387 . S
H376 C383 0.950 . S
C377 C375 1.387 . S
C377 C379 1.390 . S
C377 H381 0.950 . S
H378 C374 0.950 . S
C379 C377 1.390 . S
C379 C380 1.387 . S
C379 H382 0.950 . S
C380 C379 1.387 . S
C380 C383 1.387 . S
H381 C377 0.950 . S
H382 C379 0.950 . S
C383 C374 1.390 . S
C383 H376 0.950 . S
C383 C380 1.387 . S
C384 C385 1.387 . S
C384 H388 0.950 1_545 S
C384 C393 1.390 . S
C385 C384 1.387 . S
C385 C387 1.387 . S
H386 C393 0.950 1_565 S
C387 C385 1.387 . S
C387 C389 1.390 . S
C387 H391 0.950 . S
H388 C384 0.950 1_565 S
C389 C387 1.390 . S
C389 C390 1.387 . S
C389 H392 0.950 . S
C390 C389 1.387 . S
C390 C393 1.387 . S
H391 C387 0.950 . S
H392 C389 0.950 . S
C393 C384 1.390 . S
C393 H386 0.950 1_545 S
C393 C390 1.387 . S
C394 C395 1.387 . S
C394 H398 0.950 . S
C394 C403 1.390 1_556 S
C395 C394 1.387 . S
C395 C397 1.387 . S
H396 C403 0.950 . S
C397 C395 1.387 . S
C397 C399 1.390 1_556 S
C397 H401 0.950 . S
H398 C394 0.950 . S
C399 C397 1.390 1_554 S
C399 C400 1.387 . S
C399 H402 0.950 . S
C400 C399 1.387 . S
C400 C403 1.387 . S
H401 C397 0.950 . S
H402 C399 0.950 . S
C403 C394 1.390 1_554 S
C403 H396 0.950 . S
C403 C400 1.387 . S
C404 C405 1.387 . S
C404 H408 0.950 . S
C404 C413 1.390 . S
C405 C404 1.387 . S
C405 C407 1.387 1_455 S
H406 C413 0.950 . S
C407 C405 1.387 1_655 S
C407 C409 1.390 . S
C407 H411 0.950 . S
H408 C404 0.950 . S
C409 C407 1.390 . S
C409 C410 1.387 1_655 S
C409 H412 0.950 . S
C410 C409 1.387 1_455 S
C410 C413 1.387 . S
H411 C407 0.950 . S
H412 C409 0.950 . S
C413 C404 1.390 . S
C413 H406 0.950 . S
C413 C410 1.387 . S
C235 C25 0.811 . S
C240 C226 0.773 . S
C245 C65 0.602 . S
C250 C188 0.686 . S
C255 C105 0.639 . S
C260 C207 0.672 . S
C265 C4 0.752 . S
C270 C221 0.752 . S
C280 C183 0.370 . S
C275 C44 0.522 . S
C290 C202 0.322 . S
C285 C84 0.473 . S
C295 C60 3.117 . S
C300 C150 3.033 . S
C305 C100 3.092 . S
C310 C164 3.046 . S
C315 C31 3.085 . S
C320 C126 3.028 . S
C330 C145 3.033 . S
C325 C71 3.081 . S
C340 C169 3.030 . S
C335 C111 3.098 . S
C345 C20 3.123 . S
C350 C131 3.040 . S
C360 C160 1.767 . S
C355 C2 1.748 . S
C365 C42 1.787 . S
C370 C122 1.788 . S
C375 C82 1.763 . S
C380 C141 1.777 . S
C390 C198 1.175 . S
C385 C63 1.159 . S
C400 C217 1.267 . S
C395 C103 1.281 . S
C405 C23 1.138 . S
C410 C179 1.157 . S
