# Generated by pormake.
# Topology rtl, (3,6)-cn, num edge types: 1
# Building blocks:
#     Node 0, Type 0, BuildingBlock: BETDAH_clean_linker_0, # of connection points: 3
#     Node 1, Type 0, BuildingBlock: BETDAH_clean_linker_0, # of connection points: 3
#     Node 2, Type 0, BuildingBlock: BETDAH_clean_linker_0, # of connection points: 3
#     Node 3, Type 0, BuildingBlock: BETDAH_clean_linker_0, # of connection points: 3
#     Node 4, Type 1, BuildingBlock: KUMBUR_clean_sbu_1, # of connection points: 6
#     Node 5, Type 1, BuildingBlock: KUMBUR_clean_sbu_1, # of connection points: 6
#     Edge 6, Type (0, 1), BuildingBlock: ZUJKAS_clean_linker_0, # of connection points: 2
#     Edge 7, Type (0, 1), BuildingBlock: ZUJKAS_clean_linker_0, # of connection points: 2
#     Edge 8, Type (0, 1), BuildingBlock: ZUJKAS_clean_linker_0, # of connection points: 2
#     Edge 9, Type (0, 1), BuildingBlock: ZUJKAS_clean_linker_0, # of connection points: 2
#     Edge 10, Type (0, 1), BuildingBlock: ZUJKAS_clean_linker_0, # of connection points: 2
#     Edge 11, Type (0, 1), BuildingBlock: ZUJKAS_clean_linker_0, # of connection points: 2
#     Edge 12, Type (0, 1), BuildingBlock: ZUJKAS_clean_linker_0, # of connection points: 2
#     Edge 13, Type (0, 1), BuildingBlock: ZUJKAS_clean_linker_0, # of connection points: 2
#     Edge 14, Type (0, 1), BuildingBlock: ZUJKAS_clean_linker_0, # of connection points: 2
#     Edge 15, Type (0, 1), BuildingBlock: ZUJKAS_clean_linker_0, # of connection points: 2
#     Edge 16, Type (0, 1), BuildingBlock: ZUJKAS_clean_linker_0, # of connection points: 2
#     Edge 17, Type (0, 1), BuildingBlock: ZUJKAS_clean_linker_0, # of connection points: 2
# Relax obj value: 0.047
# Max RMSD: 0.205
# Mean RMSD: 0.150
data_MOF--net-rtl--node1-KUMBUR_clean_sbu_1--node2-BETDAH_clean_linker_0--edge1-ZUJKAS_clean_linker_0
_symmetry_space_group_name_H-M    P1
_symmetry_Int_Tables_number       1
_symmetry_cell_setting            triclinic
loop_
_symmetry_equiv_pos_as_xyz
'x, y, z'
_cell_length_a     45.438429
_cell_length_b     45.237706
_cell_length_c     34.136099
_cell_angle_alpha  81.088339
_cell_angle_beta   100.71584
_cell_angle_gamma 90.812647
loop_
_atom_site_label
_atom_site_type_symbol
_atom_site_fract_x
_atom_site_fract_y
_atom_site_fract_z
_atom_type_partial_charge
H0 H 0.1617 0.86751 1.00773 0.0
H1 H 0.23473 0.83211 0.10176 0.0
H2 H 0.23589 0.82242 0.97885 0.0
C3 C 0.18266 0.85505 0.01742 0.0
C4 C 0.19679 0.84509 0.9884 0.0
C5 C 0.19597 0.85049 0.05846 0.0
C6 C 0.22401 0.83593 0.07025 0.0
C7 C 0.23826 0.8254 0.04198 0.0
C8 C 0.22464 0.82997 1.00092 0.0
N9 N 0.26692 0.81165 0.05596 0.0
C10 C 0.27836 0.78916 0.03931 0.0
H11 H 0.65543 0.66212 0.61975 0.0
H12 H 0.71534 0.72959 0.5785 0.0
H13 H 0.695 0.72392 0.69742 0.0
C14 C 0.66997 0.68084 0.62509 0.0
C15 C 0.67357 0.69103 0.66247 0.0
C16 C 0.68488 0.69453 0.59451 0.0
C17 C 0.70367 0.71894 0.60173 0.0
C18 C 0.7074 0.72937 0.63912 0.0
C19 C 0.69226 0.71542 0.66898 0.0
N20 N 0.72584 0.75394 0.64811 0.0
C21 C 0.74526 0.76825 0.62453 0.0
H22 H 0.85906 0.14141 0.06466 0.0
H23 H 0.79302 0.19578 0.09705 0.0
H24 H 0.79314 0.19128 0.9723 0.0
C25 C 0.84022 0.15698 0.05583 0.0
C26 C 0.82794 0.16513 0.01471 0.0
C27 C 0.82794 0.16793 0.08582 0.0
C28 C 0.80268 0.18723 0.07425 0.0
C29 C 0.79011 0.19546 0.03309 0.0
C30 C 0.80277 0.18431 1.00385 0.0
N31 N 0.76463 0.21466 0.01934 0.0
C32 C 0.75156 0.23162 0.04236 0.0
H33 H 0.37853 0.35893 0.46118 0.0
H34 H 0.31634 0.29188 0.4972 0.0
H35 H 0.33768 0.30123 0.37845 0.0
C36 C 0.36317 0.34112 0.45423 0.0
C37 C 0.35987 0.33206 0.4162 0.0
C38 C 0.34757 0.32689 0.48374 0.0
C39 C 0.32859 0.30291 0.47485 0.0
C40 C 0.32518 0.29366 0.43671 0.0
C41 C 0.34084 0.30827 0.40788 0.0
N42 N 0.30615 0.27001 0.42556 0.0
C43 C 0.28846 0.25304 0.44941 0.0
Tb44 Tb 0.03464 0.98441 0.50946 0.0
C45 C 0.94917 0.08549 0.51386 0.0
N46 N 0.97905 0.08327 0.52832 0.0
C47 C 0.98546 0.13337 0.49626 0.0
C48 C 0.93632 0.11126 0.48814 0.0
C49 C 0.99713 0.10719 0.52156 0.0
C50 C 0.95499 0.13523 0.47889 0.0
C51 C 0.90013 0.06406 0.51381 0.0
C52 C 0.93148 0.06229 0.52657 0.0
C53 C 0.88721 0.08887 0.48621 0.0
C54 C 0.90528 0.11251 0.47352 0.0
Tb55 Tb 0.99624 0.03957 0.5684 0.0
N56 N 0.94483 0.03916 0.55402 0.0
C57 C 0.8827 0.04156 0.53059 0.0
C58 C 0.92767 0.01885 0.57331 0.0
C59 C 0.89651 0.01918 0.5611 0.0
H60 H 0.02065 0.10573 0.53498 0.0
H61 H 0.88314 1.00248 0.5757 0.0
H62 H 0.98791 0.92626 0.50361 0.0
H63 H 0.15379 0.98459 0.56279 0.0
H64 H 0.93786 1.00244 0.59843 0.0
H65 H 0.85853 0.04203 0.52159 0.0
H66 H 0.1049 1.00528 0.52421 0.0
H67 H 0.99994 0.15203 0.49009 0.0
H68 H 0.86319 0.0905 0.47566 0.0
H69 H 0.89495 0.13196 0.45331 0.0
H70 H 0.98587 0.87492 0.53924 0.0
H71 H 0.946 0.15547 0.45923 0.0
H72 H 0.15659 0.93404 0.60354 0.0
N73 N 0.03068 0.93522 0.5372 0.0
C74 C 0.05582 0.92262 0.56175 0.0
C75 C 1.00551 0.88827 0.5465 0.0
C76 C 0.05637 0.89271 0.58117 0.0
C77 C 1.00644 0.91779 0.52715 0.0
C78 C 0.03039 0.87584 0.57431 0.0
N79 N 0.08046 0.96742 0.5445 0.0
C80 C 0.106 0.98337 0.54224 0.0
C81 C 0.10908 0.92622 0.58697 0.0
C82 C 0.0818 0.93905 0.56473 0.0
C83 C 0.13516 0.94309 0.58681 0.0
C84 C 0.13366 0.97164 0.56388 0.0
H85 H 0.02984 0.8528 0.5887 0.0
H86 H 0.08396 0.85733 0.62054 0.0
H87 H 0.13022 0.88663 0.62522 0.0
O88 O 0.05073 1.00115 0.4565 0.0
O89 O 0.05456 0.99267 0.57068 0.0
O90 O 0.01482 0.99671 0.60188 0.0
O91 O 0.0413 0.95458 0.47022 0.0
O92 O 0.05141 0.0304 0.50447 0.0
O93 O 0.04227 0.05022 0.56037 0.0
O94 O 0.97747 0.05609 0.61387 0.0
O95 O 0.99676 0.05041 0.50338 0.0
O96 O 0.99163 1.00567 0.4797 0.0
O97 O 0.02503 0.05931 0.61187 0.0
O98 O 0.98246 0.99236 0.57398 0.0
O99 O 0.98711 0.97721 0.51364 0.0
C100 C 0.04189 0.98669 0.60247 0.0
C101 C 0.03497 0.9752 0.4017 0.0
C102 C 0.03814 0.96374 0.33496 0.0
C103 C 0.00811 0.97331 0.32129 0.0
C104 C 1.00508 0.9845 0.38759 0.0
C105 C 0.99179 0.98367 0.34747 0.0
C106 C 0.0514 0.96499 0.37539 0.0
C107 C 0.05697 0.04948 0.53055 0.0
C108 C 0.04934 0.97543 0.44389 0.0
C109 C 0.08315 0.88021 0.60512 0.0
C110 C 0.10951 0.89687 0.60778 0.0
C111 C 0.98519 0.03431 0.47568 0.0
C112 C 0.00947 0.08062 0.66561 0.0
C113 C 0.99474 0.0956 0.72518 0.0
C114 C 0.02219 0.1104 0.73293 0.0
C115 C 0.03675 0.09543 0.67429 0.0
C116 C 0.98838 0.08091 0.69104 0.0
C117 C 0.04296 0.11026 0.70766 0.0
C118 C 0.97411 0.97578 0.54538 0.0
C119 C 1.00358 0.06509 0.63001 0.0
H120 H 0.99704 0.9723 0.29058 0.0
H121 H 0.99204 0.99222 0.40756 0.0
H122 H 0.96868 0.99084 0.33672 0.0
H123 H 0.07462 0.95819 0.38648 0.0
H124 H 0.0275 0.12244 0.75835 0.0
H125 H 0.0533 0.09573 0.65512 0.0
H126 H 0.96742 0.06928 0.68475 0.0
H127 H 0.06396 0.12177 0.71392 0.0
Tb128 Tb 0.48389 0.49136 1.00246 0.0
C129 C 0.59698 0.56411 0.02777 0.0
N130 N 0.59218 0.53752 0.05015 0.0
C131 C 0.64005 0.51906 0.04398 0.0
C132 C 0.62332 0.56892 0.01161 0.0
C133 C 0.61339 0.5152 0.05898 0.0
C134 C 0.64498 0.54597 0.02001 0.0
C135 C 0.57857 0.61367 0.99595 0.0
C136 C 0.57464 0.58596 0.01965 0.0
C137 C 0.60456 0.61846 0.97919 0.0
C138 C 0.6269 0.59615 0.98704 0.0
Tb139 Tb 0.54765 0.53324 0.07216 0.0
N140 N 0.54942 0.58026 0.03561 0.0
C141 C 0.55659 0.63599 0.99062 0.0
C142 C 0.52978 0.6032 0.0342 0.0
C143 C 0.53245 0.63096 0.01066 0.0
H144 H 0.60979 0.49448 0.07772 0.0
H145 H 0.51626 0.64869 0.00877 0.0
H146 H 0.42536 0.53759 0.97029 0.0
H147 H 0.49583 0.38058 0.0916 0.0
H148 H 0.51255 0.60087 0.05219 0.0
H149 H 0.55873 0.65758 0.97265 0.0
H150 H 0.51186 0.4236 0.04806 0.0
H151 H 0.65673 0.50125 0.05083 0.0
H152 H 0.60778 0.63948 0.96053 0.0
H153 H 0.64685 0.60019 0.97399 0.0
H154 H 0.37333 0.54036 0.98119 0.0
H155 H 0.66553 0.54878 0.00812 0.0
H156 H 0.44479 0.37973 0.10722 0.0
N157 N 0.4348 0.49543 1.00769 0.0
C158 C 0.42372 0.4719 0.0301 0.0
C159 C 0.38733 0.52105 0.99535 0.0
C160 C 0.39407 0.47234 0.03682 0.0
C161 C 0.41695 0.51963 0.98971 0.0
C162 C 0.37587 0.49738 0.01919 0.0
N163 N 0.47145 0.44868 0.0414 0.0
C164 C 0.49006 0.42442 0.05566 0.0
C165 C 0.43221 0.42309 0.07161 0.0
C166 C 0.44259 0.44764 0.04735 0.0
C167 C 0.45186 0.399 0.08833 0.0
C168 C 0.48076 0.39951 0.07984 0.0
H169 H 0.35294 0.4986 0.02364 0.0
H170 H 0.361 0.44798 0.06686 0.0
H171 H 0.3944 0.40486 0.09734 0.0
O172 O 0.49294 0.4623 0.96344 0.0
O173 O 0.47829 0.49479 0.06408 0.0
O174 O 0.52545 0.49582 0.10335 0.0
O175 O 0.45245 0.48869 0.9495 0.0
O176 O 0.52952 0.47151 0.01877 0.0
O177 O 0.55362 0.48464 0.08007 0.0
O178 O 0.54667 0.56033 0.11694 0.0
O179 O 0.55314 0.5247 0.01215 0.0
O180 O 0.50602 0.52981 0.97374 0.0
O181 O 0.58406 0.53122 0.12068 0.0
O182 O 0.5006 0.54897 0.06124 0.0
O183 O 0.48055 0.54008 0.9968 0.0
C184 C 0.49692 0.48898 0.09869 0.0
C185 C 0.47218 0.47726 0.89464 0.0
C186 C 0.46168 0.46544 0.82591 0.0
C187 C 0.47735 0.4912 0.8133 0.0
C188 C 0.48769 0.50273 0.88137 0.0
C189 C 0.49031 0.50959 0.84092 0.0
C190 C 0.45932 0.45864 0.86694 0.0
C191 C 0.55035 0.46719 0.05195 0.0
C192 C 0.46869 0.47007 0.93702 0.0
C193 C 0.38368 0.448 0.06118 0.0
C194 C 0.40271 0.42344 0.07854 0.0
C195 C 0.53506 0.53343 0.97779 0.0
C196 C 0.57168 0.53969 0.18196 0.0
C197 C 0.58206 0.54984 0.25149 0.0
C198 C 0.57156 0.52116 0.26421 0.0
C199 C 0.56158 0.51117 0.19544 0.0
C200 C 0.58189 0.55897 0.21002 0.0
C201 C 0.56135 0.50206 0.23631 0.0
C202 C 0.48066 0.55462 0.0274 0.0
C203 C 0.57181 0.54953 0.13881 0.0
H204 H 0.47919 0.49749 0.78194 0.0
H205 H 0.49755 0.51739 0.90214 0.0
H206 H 0.50221 0.52939 0.83087 0.0
H207 H 0.44765 0.43878 0.8775 0.0
H208 H 0.57178 0.5132 0.29585 0.0
H209 H 0.55414 0.49585 0.17446 0.0
H210 H 0.5895 0.58108 0.19945 0.0
H211 H 0.55351 0.47999 0.24646 0.0
H212 H 0.25458 0.26121 0.50483 0.0
H213 H 0.21694 0.22642 0.52828 0.0
H214 H 0.2385 0.16433 0.45333 0.0
H215 H 0.27626 0.19859 0.43088 0.0
H216 H 0.16718 0.20683 0.48298 0.0
H217 H 0.23903 0.10909 0.55769 0.0
H218 H 0.25419 0.14562 0.54461 0.0
H219 H 0.24507 0.12114 0.50731 0.0
C220 C 0.25155 0.23981 0.49421 0.0
C221 C 0.26833 0.23215 0.46662 0.0
C222 C 0.23007 0.22005 0.50741 0.0
C223 C 0.22528 0.19247 0.49317 0.0
C224 C 0.24235 0.18499 0.4657 0.0
H225 H 0.09407 0.05544 0.47495 0.0
H226 H 0.13469 0.09094 0.46919 0.0
C227 C 0.26379 0.20461 0.45272 0.0
C228 C 0.20107 0.1723 0.5044 0.0
H229 H 0.18656 0.09923 0.53724 0.0
C230 C 0.17147 0.18343 0.49552 0.0
C231 C 0.20665 0.14174 0.52082 0.0
C232 C 0.23801 0.12878 0.53355 0.0
C233 C 0.14725 0.16452 0.50083 0.0
C234 C 0.15282 0.13377 0.51547 0.0
C235 C 0.1824 0.1228 0.5256 0.0
C236 C 0.12813 0.11244 0.5193 0.0
C237 C 0.11576 0.17721 0.48937 0.0
C238 C 0.11116 0.11271 0.54958 0.0
C239 C 0.08806 0.09229 0.55323 0.0
C240 C 0.0814 0.07127 0.5265 0.0
C241 C 0.09851 0.07121 0.49611 0.0
C242 C 0.12176 0.09148 0.49273 0.0
H243 H 0.115 0.20067 0.47362 0.0
H244 H 0.10142 0.16333 0.46952 0.0
H245 H 0.10609 0.17672 0.51701 0.0
H246 H 0.11594 0.12858 0.57057 0.0
H247 H 0.07548 0.09303 0.57708 0.0
H248 H 0.29691 0.78335 0.96954 0.0
H249 H 0.32729 0.74169 0.95856 0.0
H250 H 0.32593 0.69794 0.07991 0.0
H251 H 0.29523 0.73898 0.09033 0.0
H252 H 0.38274 0.72376 0.99883 0.0
H253 H 0.30568 0.62929 0.01829 0.0
H254 H 0.2932 0.66781 0.01079 0.0
H255 H 0.31047 0.64945 0.06024 0.0
C256 C 0.30267 0.76443 0.99337 0.0
C257 C 0.2936 0.7639 0.03054 0.0
C258 C 0.32005 0.74077 0.98721 0.0
C259 C 0.32844 0.71636 0.01816 0.0
C260 C 0.31905 0.71599 0.05517 0.0
H261 H 0.45736 0.57319 0.08763 0.0
H262 H 0.41958 0.61266 0.08136 0.0
C263 C 0.30166 0.73949 0.0612 0.0
C264 C 0.34885 0.69232 0.01329 0.0
H265 H 0.3581 0.6163 0.02734 0.0
C266 C 0.37715 0.70029 1.00434 0.0
C267 C 0.34157 0.66164 0.02042 0.0
C268 C 0.31095 0.65156 0.02754 0.0
C269 C 0.3988 0.67841 1.00427 0.0
C270 C 0.39191 0.64784 0.01324 0.0
C271 C 0.36336 0.63981 0.02085 0.0
C272 C 0.41452 0.62388 0.01651 0.0
C273 C 0.42932 0.68804 0.9962 0.0
C274 C 0.424 0.61709 0.98205 0.0
C275 C 0.44548 0.5945 0.98553 0.0
C276 C 0.45782 0.57839 0.02355 0.0
C277 C 0.4483 0.58531 0.05799 0.0
C278 C 0.42667 0.60773 0.05444 0.0
H279 H 0.43239 0.71255 0.99495 0.0
H280 H 0.44713 0.6762 0.01997 0.0
H281 H 0.43225 0.68194 0.96688 0.0
H282 H 0.41474 0.62922 0.9525 0.0
H283 H 0.4526 0.58978 0.95853 0.0
H284 H 0.80483 0.75891 0.64161 0.0
H285 H 0.843 0.79381 0.62095 0.0
H286 H 0.77344 0.85285 0.54759 0.0
H287 H 0.73525 0.81807 0.56881 0.0
H288 H 0.85708 0.81984 0.54621 0.0
H289 H 0.81817 0.90458 0.62775 0.0
H290 H 0.80618 0.86622 0.63392 0.0
H291 H 0.78987 0.89203 0.58999 0.0
C292 C 0.79783 0.77906 0.62038 0.0
C293 C 0.76734 0.78596 0.60655 0.0
C294 C 0.81957 0.79897 0.60868 0.0
C295 C 0.81104 0.82615 0.58326 0.0
C296 C 0.78048 0.83224 0.56774 0.0
H297 H 0.93492 0.95489 0.48538 0.0
H298 H 0.89514 0.91839 0.49271 0.0
C299 C 0.75874 0.81232 0.57953 0.0
C300 C 0.83403 0.84882 0.57532 0.0
H301 H 0.85731 0.91864 0.59227 0.0
C302 C 0.85708 0.84151 0.55606 0.0
C303 C 0.83425 0.87688 0.58887 0.0
C304 C 0.81098 0.88541 0.61161 0.0
C305 C 0.88028 0.86158 0.54983 0.0
C306 C 0.88018 0.88981 0.5628 0.0
C307 C 0.85717 0.89708 0.58209 0.0
C308 C 0.90432 0.91177 0.55802 0.0
C309 C 0.90517 0.85211 0.53049 0.0
C310 C 0.92225 0.92061 0.59224 0.0
C311 C 0.9449 0.94146 0.58813 0.0
C312 C 0.9499 0.954 0.54967 0.0
C313 C 0.93174 0.94535 0.5154 0.0
C314 C 0.9091 0.92445 0.51954 0.0
H315 H 0.90557 0.82754 0.53067 0.0
H316 H 0.90184 0.86329 0.49865 0.0
H317 H 0.92729 0.85884 0.54626 0.0
H318 H 0.91888 0.91116 0.62221 0.0
H319 H 0.95869 0.94755 0.61507 0.0
H320 H 0.69267 0.22882 0.04286 0.0
H321 H 0.66089 0.26878 0.05442 0.0
H322 H 0.73931 0.32133 0.08566 0.0
H323 H 0.77107 0.28145 0.07327 0.0
H324 H 0.6574 0.29968 0.11814 0.0
H325 H 0.69016 0.37437 0.98842 0.0
H326 H 0.69921 0.33491 0.99917 0.0
H327 H 0.7207 0.36044 0.02819 0.0
C328 C 0.70309 0.24863 0.05319 0.0
C329 C 0.73414 0.25223 0.05744 0.0
C330 C 0.68497 0.27145 0.05967 0.0
C331 C 0.69766 0.29827 0.07022 0.0
C332 C 0.729 0.30105 0.07686 0.0
H333 H 0.59115 0.44454 0.11964 0.0
H334 H 0.62764 0.40384 0.12686 0.0
C335 C 0.74713 0.27822 0.0702 0.0
C336 C 0.67783 0.32393 0.07102 0.0
H337 H 0.65643 0.39428 0.02244 0.0
C338 C 0.65732 0.32047 0.09747 0.0
C339 C 0.67743 0.35087 0.04352 0.0
C340 C 0.69784 0.35542 0.01294 0.0
C341 C 0.6363 0.34313 0.09697 0.0
C342 C 0.63606 0.37009 0.06963 0.0
C343 C 0.65677 0.37365 0.04352 0.0
C344 C 0.61358 0.39436 0.06601 0.0
C345 C 0.61384 0.33762 0.12467 0.0
C346 C 0.59385 0.40288 0.02924 0.0
C347 C 0.57316 0.42626 0.02487 0.0
C348 C 0.57183 0.4418 0.05717 0.0
C349 C 0.59155 0.43311 0.0941 0.0
C350 C 0.6123 0.40969 0.09841 0.0
H351 H 0.61268 0.31353 0.13713 0.0
H352 H 0.62048 0.35016 0.15033 0.0
H353 H 0.59115 0.34561 0.10859 0.0
H354 H 0.5945 0.39142 1.00379 0.0
H355 H 0.55842 0.43233 0.99597 0.0
H356 H 0.22116 0.8768 0.12388 0.0
H357 H 0.19584 0.89452 0.1733 0.0
H358 H 0.11085 0.86821 0.10967 0.0
H359 H 0.13608 0.84908 0.06137 0.0
H360 H 0.15379 0.93799 0.1627 0.0
H361 H 0.10818 0.83004 0.22382 0.0
H362 H 0.13618 0.83235 0.19233 0.0
H363 H 0.09727 0.83903 0.17005 0.0
C364 C 0.19715 0.87426 0.12079 0.0
C365 C 0.18071 0.86132 0.08871 0.0
C366 C 0.18268 0.88464 0.1489 0.0
C367 C 0.1515 0.88227 0.14558 0.0
C368 C 0.13499 0.86968 0.11339 0.0
H369 H 0.03714 0.9843 0.25466 0.0
H370 H 0.06504 0.96459 0.20946 0.0
C371 C 0.14944 0.85912 0.08544 0.0
C372 C 0.13612 0.89379 0.17503 0.0
H373 H 0.08839 0.87402 0.24068 0.0
C374 C 0.13964 0.92396 0.17995 0.0
C375 C 0.11803 0.87537 0.19801 0.0
C376 C 0.11491 0.84233 0.19615 0.0
C377 C 0.12503 0.93638 0.20654 0.0
C378 C 0.10579 0.91831 0.22805 0.0
C379 C 0.10282 0.88797 0.2238 0.0
C380 C 0.08869 0.93029 0.25537 0.0
C381 C 0.13076 0.96861 0.21178 0.0
C382 C 0.09193 0.91697 0.29592 0.0
C383 C 0.07553 0.92777 0.32165 0.0
C384 C 0.05551 0.9522 0.30741 0.0
C385 C 0.05216 0.96535 0.26664 0.0
C386 C 0.06844 0.95437 0.24085 0.0
H387 H 0.15227 0.97638 0.20302 0.0
H388 H 0.11253 0.98294 0.19209 0.0
H389 H 0.13129 0.97184 0.24349 0.0
H390 H 0.10721 0.89817 0.30771 0.0
H391 H 0.07827 0.91669 0.35262 0.0
H392 H 0.61581 0.67102 0.65458 0.0
H393 H 0.59079 0.64528 0.70752 0.0
H394 H 0.67076 0.65154 0.79615 0.0
H395 H 0.69611 0.67694 0.74339 0.0
H396 H 0.60843 0.59111 0.75917 0.0
H397 H 0.60457 0.68502 0.84546 0.0
H398 H 0.61176 0.69053 0.79456 0.0
H399 H 0.64108 0.67698 0.83632 0.0
C400 C 0.62814 0.66682 0.6853 0.0
C401 C 0.65798 0.67609 0.69473 0.0
C402 C 0.61374 0.65225 0.71553 0.0
C403 C 0.62879 0.64686 0.75581 0.0
C404 C 0.65854 0.65605 0.76538 0.0
H405 H 0.58903 0.52318 0.9585 0.0
H406 H 0.61105 0.55087 0.90362 0.0
C407 C 0.67298 0.67058 0.73517 0.0
C408 C 0.6137 0.63066 0.78757 0.0
H409 H 0.59119 0.63708 0.87604 0.0
C410 C 0.60453 0.60119 0.78462 0.0
C411 C 0.60844 0.64398 0.82056 0.0
C412 C 0.61671 0.67596 0.82439 0.0
C413 C 0.59079 0.58447 0.81426 0.0
C414 C 0.58629 0.59752 0.84773 0.0
C415 C 0.5949 0.62715 0.85037 0.0
C416 C 0.57281 0.58062 0.88046 0.0
C417 C 0.581 0.55299 0.8096 0.0
C418 C 0.54415 0.58838 0.88562 0.0
C419 C 0.53152 0.57254 0.9168 0.0
C420 C 0.54761 0.54905 0.94357 0.0
C421 C 0.57626 0.54128 0.93827 0.0
C422 C 0.58878 0.55697 0.90694 0.0
H423 H 0.58107 0.54815 0.77869 0.0
H424 H 0.59652 0.53689 0.83135 0.0
H425 H 0.55816 0.5492 0.81643 0.0
H426 H 0.53158 0.60666 0.8655 0.0
H427 H 0.50948 0.57907 0.92053 0.0
H428 H 0.88727 0.16586 0.11981 0.0
H429 H 0.91047 0.14423 0.18853 0.0
H430 H 0.82312 0.12661 0.21837 0.0
H431 H 0.79962 0.14831 0.14929 0.0
H432 H 0.8653 0.14875 0.28008 0.0
H433 H 0.91147 0.05303 0.22584 0.0
H434 H 0.92125 0.0889 0.20143 0.0
H435 H 0.88269 0.07786 0.19464 0.0
C436 C 0.87297 0.1575 0.14103 0.0
C437 C 0.84161 0.1584 0.12898 0.0
C438 C 0.88626 0.14512 0.18027 0.0
C439 C 0.86854 0.13321 0.20826 0.0
C440 C 0.8372 0.13549 0.19709 0.0
H441 H 0.94072 0.00915 0.42687 0.0
H442 H 0.90988 0.03303 0.3634 0.0
C443 C 0.82382 0.14799 0.15772 0.0
C444 C 0.88293 0.11742 0.24855 0.0
H445 H 0.92985 0.05871 0.29417 0.0
C446 C 0.87927 0.12897 0.28325 0.0
C447 C 0.9007 0.09127 0.25267 0.0
C448 C 0.90408 0.07681 0.21672 0.0
C449 C 0.89382 0.11564 0.32187 0.0
C450 C 0.91276 0.09037 0.32571 0.0
C451 C 0.91557 0.07827 0.29113 0.0
C452 C 0.93036 0.0764 0.36517 0.0
C453 C 0.88859 0.12843 0.3583 0.0
C454 C 0.95237 0.09274 0.38693 0.0
C455 C 0.97014 0.07907 0.42293 0.0
C456 C 0.96619 0.04886 0.43788 0.0
C457 C 0.94423 0.03249 0.41603 0.0
C458 C 0.92653 0.04613 0.37992 0.0
H459 H 0.86811 0.14284 0.35134 0.0
H460 H 0.88642 0.11024 0.38343 0.0
H461 H 0.90796 0.14228 0.36872 0.0
H462 H 0.9563 0.11588 0.37559 0.0
H463 H 0.98744 0.09196 0.43857 0.0
H464 H 0.35527 0.29289 0.5591 0.0
H465 H 0.36785 0.31058 0.62453 0.0
H466 H 0.36378 0.40182 0.56364 0.0
H467 H 0.34997 0.38448 0.49875 0.0
H468 H 0.41683 0.33985 0.65127 0.0
H469 H 0.31884 0.41025 0.65152 0.0
H470 H 0.31822 0.38424 0.61626 0.0
H471 H 0.33332 0.42113 0.60613 0.0
C472 C 0.35625 0.31674 0.55979 0.0
C473 C 0.35179 0.33726 0.5237 0.0
C474 C 0.36364 0.32682 0.59717 0.0
C475 C 0.36642 0.35758 0.59912 0.0
C476 C 0.36111 0.37805 0.56313 0.0
H477 H 0.48366 0.45015 0.76205 0.0
H478 H 0.45931 0.42107 0.71106 0.0
C479 C 0.35362 0.36805 0.52593 0.0
C480 C 0.37754 0.36841 0.6381 0.0
H481 H 0.36532 0.42221 0.69346 0.0
C482 C 0.40528 0.35748 0.6609 0.0
C483 C 0.36232 0.39103 0.65124 0.0
C484 C 0.33137 0.40207 0.63019 0.0
C485 C 0.41898 0.36975 0.69501 0.0
C486 C 0.40496 0.39417 0.70601 0.0
C487 C 0.3764 0.40387 0.68467 0.0
C488 C 0.42011 0.41098 0.73806 0.0
C489 C 0.44845 0.35649 0.7187 0.0
C490 C 0.40585 0.41585 0.76969 0.0
C491 C 0.41945 0.43317 0.79848 0.0
C492 C 0.4476 0.44605 0.7962 0.0
C493 C 0.46187 0.4409 0.7646 0.0
C494 C 0.44817 0.42381 0.73571 0.0
H495 H 0.45061 0.33253 0.71576 0.0
H496 H 0.46707 0.36858 0.70663 0.0
H497 H 0.45099 0.35834 0.75121 0.0
H498 H 0.38405 0.40646 0.77192 0.0
H499 H 0.40753 0.43703 0.82194 0.0
H500 H 0.67568 0.72712 0.51819 0.0
H501 H 0.66252 0.70801 0.45381 0.0
H502 H 0.66887 0.61759 0.51765 0.0
H503 H 0.68321 0.63637 0.58164 0.0
H504 H 0.69287 0.62253 0.44966 0.0
H505 H 0.57974 0.67613 0.41565 0.0
H506 H 0.6105 0.70134 0.42254 0.0
H507 H 0.60394 0.67422 0.46428 0.0
C508 C 0.67481 0.70316 0.51841 0.0
C509 C 0.68006 0.68328 0.5551 0.0
C510 C 0.66692 0.69228 0.48164 0.0
C511 C 0.66401 0.66139 0.48097 0.0
C512 C 0.6707 0.64152 0.51741 0.0
H513 H 0.55945 0.55841 0.31796 0.0
H514 H 0.58073 0.58774 0.37043 0.0
C515 C 0.67867 0.65232 0.55402 0.0
C516 C 0.65301 0.6494 0.44283 0.0
H517 H 0.59151 0.64752 0.3685 0.0
C518 C 0.67083 0.62819 0.43165 0.0
C519 C 0.62406 0.65655 0.41969 0.0
C520 C 0.60328 0.67809 0.4312 0.0
C521 C 0.66027 0.61342 0.39859 0.0
C522 C 0.63132 0.62055 0.37547 0.0
C523 C 0.61377 0.64226 0.38608 0.0
C524 C 0.61793 0.60409 0.34219 0.0
C525 C 0.67968 0.58932 0.38991 0.0
C526 C 0.63139 0.60399 0.30837 0.0
C527 C 0.61947 0.58687 0.27848 0.0
C528 C 0.59368 0.56972 0.28169 0.0
C529 C 0.57966 0.57083 0.3149 0.0
C530 C 0.59166 0.58781 0.34478 0.0
H531 H 0.69805 0.58185 0.41583 0.0
H532 H 0.66618 0.56957 0.38262 0.0
H533 H 0.68997 0.59818 0.36351 0.0
H534 H 0.65134 0.61686 0.30531 0.0
H535 H 0.63094 0.58646 0.25346 0.0
H536 H 0.88758 0.15775 0.01368 0.0
H537 H 0.90997 0.14039 0.96135 0.0
H538 H 0.82211 0.1309 0.89127 0.0
H539 H 0.7993 0.14731 0.94405 0.0
H540 H 0.8936 0.08164 0.92432 0.0
H541 H 0.87437 0.18958 0.81871 0.0
H542 H 0.87692 0.18791 0.87246 0.0
H543 H 0.84437 0.17406 0.84297 0.0
C544 C 0.87292 0.15154 0.98749 0.0
C545 C 0.84158 0.15399 0.98316 0.0
C546 C 0.88579 0.14179 0.95752 0.0
C547 C 0.86766 0.13455 0.92248 0.0
C548 C 0.83644 0.13663 0.91804 0.0
H549 H 0.93369 0.10424 0.70573 0.0
H550 H 0.89924 0.10936 0.75186 0.0
C551 C 0.82349 0.14619 0.94814 0.0
C552 C 0.88165 0.12532 0.89038 0.0
H553 H 0.90115 0.15184 0.79972 0.0
C554 C 0.89505 0.09682 0.89687 0.0
C555 C 0.88313 0.14509 0.85449 0.0
C556 C 0.86907 0.17596 0.84645 0.0
C557 C 0.91057 0.08779 0.86867 0.0
C558 C 0.91344 0.10815 0.83367 0.0
C559 C 0.899 0.13625 0.82654 0.0
C560 C 0.93338 0.10187 0.80594 0.0
C561 C 0.92376 0.05654 0.87676 0.0
C562 C 0.96393 0.09577 0.82099 0.0
C563 C 0.9835 0.09259 0.79485 0.0
C564 C 0.9731 0.0959 0.75291 0.0
C565 C 0.94235 0.1013 0.73788 0.0
C566 C 0.92269 0.1044 0.76417 0.0
H567 H 0.91097 0.04097 0.8956 0.0
H568 H 0.92409 0.04768 0.84826 0.0
H569 H 0.94711 0.05688 0.8936 0.0
H570 H 0.97288 0.09439 0.85292 0.0
H571 H 1.00697 0.08809 0.80749 0.0
H572 H 0.36711 0.39231 0.39614 0.0
H573 H 0.39242 0.41801 0.34349 0.0
H574 H 0.41448 0.33296 0.31326 0.0
H575 H 0.38918 0.30707 0.36584 0.0
H576 H 0.45133 0.41424 0.333 0.0
H577 H 0.37244 0.37829 0.20482 0.0
H578 H 0.36434 0.3743 0.25515 0.0
H579 H 0.3891 0.34807 0.2426 0.0
C580 C 0.37755 0.37906 0.37849 0.0
C581 C 0.37598 0.34765 0.38499 0.0
C582 C 0.39191 0.39378 0.34835 0.0
C583 C 0.40492 0.37742 0.32406 0.0
C584 C 0.404 0.34605 0.33104 0.0
H585 H 0.52633 0.45014 0.16297 0.0
H586 H 0.50521 0.42276 0.21887 0.0
C587 C 0.38955 0.3313 0.36109 0.0
C588 C 0.41937 0.39327 0.2914 0.0
H589 H 0.41539 0.40431 0.18929 0.0
C590 C 0.44352 0.41208 0.30156 0.0
C591 C 0.40888 0.39066 0.25039 0.0
C592 C 0.3821 0.37197 0.23741 0.0
C593 C 0.45755 0.4283 0.2718 0.0
C594 C 0.44742 0.42521 0.23089 0.0
C595 C 0.42325 0.40644 0.22074 0.0
C596 C 0.46071 0.44216 0.19787 0.0
C597 C 0.48255 0.44918 0.2843 0.0
C598 C 0.44262 0.46176 0.16726 0.0
C599 C 0.45463 0.4774 0.1355 0.0
C600 C 0.48494 0.47363 0.13363 0.0
C601 C 0.50308 0.45401 0.16424 0.0
C602 C 0.49102 0.43831 0.19608 0.0
H603 H 0.48262 0.45453 0.31501 0.0
H604 H 0.50437 0.43837 0.2846 0.0
H605 H 0.48068 0.47042 0.2627 0.0
H606 H 0.41914 0.46496 0.16795 0.0
H607 H 0.44013 0.49241 0.11231 0.0
H608 H 0.22333 0.8694 0.92524 0.0
H609 H 0.19804 0.88994 0.85658 0.0
H610 H 0.1134 0.85875 0.88554 0.0
H611 H 0.13844 0.83823 0.95398 0.0
H612 H 0.1583 0.86493 0.79298 0.0
H613 H 0.10242 0.95081 0.85508 0.0
H614 H 0.13394 0.92849 0.8842 0.0
H615 H 0.0971 0.91286 0.87711 0.0
C616 C 0.19945 0.8663 0.91662 0.0
C617 C 0.18279 0.85253 0.94508 0.0
C618 C 0.18502 0.87817 0.8775 0.0
C619 C 0.15378 0.87642 0.86635 0.0
C620 C 0.13744 0.86088 0.89385 0.0
H621 H 0.01916 0.95163 0.66176 0.0
H622 H 0.04699 0.92358 0.72468 0.0
C623 C 0.15178 0.84912 0.93286 0.0
C624 C 0.13792 0.89239 0.82702 0.0
H625 H 0.08703 0.94866 0.78544 0.0
C626 C 0.14284 0.88334 0.79123 0.0
C627 C 0.11778 0.91642 0.82492 0.0
C628 C 0.11261 0.92797 0.86231 0.0
C629 C 0.12756 0.8973 0.75335 0.0
C630 C 0.10725 0.92114 0.75133 0.0
C631 C 0.10252 0.93028 0.78711 0.0
C632 C 0.09066 0.93709 0.71241 0.0
C633 C 0.13246 0.88589 0.71582 0.0
C634 C 0.10598 0.9543 0.68498 0.0
C635 C 0.09012 0.97053 0.64927 0.0
C636 C 0.0587 0.9697 0.64028 0.0
C637 C 0.04339 0.95265 0.66792 0.0
C638 C 0.05924 0.93652 0.70371 0.0
H639 H 0.14461 0.86402 0.72289 0.0
H640 H 0.11064 0.88338 0.69579 0.0
H641 H 0.14584 0.90226 0.69905 0.0
H642 H 0.13017 0.95566 0.69155 0.0
H643 H 0.10242 0.98413 0.62902 0.0
loop_
_geom_bond_atom_site_label_1
_geom_bond_atom_site_label_2
_geom_bond_distance
_geom_bond_site_symmetry_2
_ccdc_geom_bond_type
H0 C3 0.929 . S
H1 C6 0.929 . S
H2 C8 0.930 . S
C3 H0 0.929 . S
C3 C4 1.398 1_554 S
C3 C5 1.396 . S
C4 C3 1.398 1_556 S
C4 C8 1.407 . S
C5 C3 1.396 . S
C5 C6 1.394 . S
C6 H1 0.929 . S
C6 C5 1.394 . S
C6 C7 1.382 . S
C7 C6 1.382 . S
C7 C8 1.392 1_554 S
C7 N9 1.420 . S
C8 H2 0.930 . S
C8 C4 1.407 . S
C8 C7 1.392 1_556 S
N9 C7 1.420 . S
N9 C10 1.244 . S
C10 N9 1.244 . S
H11 C14 0.929 . S
H12 C17 0.929 . S
H13 C19 0.930 . S
C14 H11 0.929 . S
C14 C15 1.398 . S
C14 C16 1.396 . S
C15 C14 1.398 . S
C15 C19 1.407 . S
C16 C14 1.396 . S
C16 C17 1.394 . S
C17 H12 0.929 . S
C17 C16 1.394 . S
C17 C18 1.382 . S
C18 C17 1.382 . S
C18 C19 1.392 . S
C18 N20 1.420 . S
C19 H13 0.930 . S
C19 C15 1.407 . S
C19 C18 1.392 . S
N20 C18 1.420 . S
N20 C21 1.244 . S
C21 N20 1.244 . S
H22 C25 0.929 . S
H23 C28 0.929 . S
H24 C30 0.930 . S
C25 H22 0.929 . S
C25 C26 1.398 1_554 S
C25 C27 1.396 . S
C26 C25 1.398 1_556 S
C26 C30 1.407 . S
C27 C25 1.396 . S
C27 C28 1.394 . S
C28 H23 0.929 . S
C28 C27 1.394 . S
C28 C29 1.382 . S
C29 C28 1.382 . S
C29 C30 1.392 1_554 S
C29 N31 1.420 . S
C30 H24 0.930 . S
C30 C26 1.407 . S
C30 C29 1.392 1_556 S
N31 C29 1.420 . S
N31 C32 1.244 . S
C32 N31 1.244 . S
H33 C36 0.929 . S
H34 C39 0.929 . S
H35 C41 0.930 . S
C36 H33 0.929 . S
C36 C37 1.398 . S
C36 C38 1.396 . S
C37 C36 1.398 . S
C37 C41 1.407 . S
C38 C36 1.396 . S
C38 C39 1.394 . S
C39 H34 0.929 . S
C39 C38 1.394 . S
C39 C40 1.382 . S
C40 C39 1.382 . S
C40 C41 1.392 . S
C40 N42 1.420 . S
C41 H35 0.930 . S
C41 C37 1.407 . S
C41 C40 1.392 . S
N42 C40 1.420 . S
N42 C43 1.244 . S
C43 N42 1.244 . S
Tb44 N73 2.617 . S
Tb44 N79 2.572 . S
Tb44 O88 2.465 . S
Tb44 O89 2.387 . S
Tb44 O91 2.428 . S
Tb44 O92 2.308 1_565 S
Tb44 O96 2.349 1_465 S
Tb44 O99 2.393 1_455 S
Tb44 C108 2.802 . S
C45 N46 1.379 . S
C45 C48 1.416 . S
C45 C52 1.424 . S
N46 C45 1.379 . S
N46 C49 1.334 1_655 S
N46 Tb55 2.617 . S
C47 C49 1.390 . S
C47 C50 1.339 1_455 S
C47 H67 0.930 . S
C48 C45 1.416 . S
C48 C50 1.416 . S
C48 C54 1.448 . S
C49 N46 1.334 1_455 S
C49 C47 1.390 . S
C49 H60 0.930 . S
C50 C47 1.339 1_655 S
C50 C48 1.416 . S
C50 H71 0.930 . S
C51 C52 1.413 . S
C51 C53 1.427 . S
C51 C57 1.416 . S
C52 C45 1.424 . S
C52 C51 1.413 . S
C52 N56 1.361 . S
C53 C51 1.427 . S
C53 C54 1.328 . S
C53 H68 0.929 . S
C54 C48 1.448 . S
C54 C53 1.328 . S
C54 H69 0.930 . S
Tb55 N46 2.617 . S
Tb55 N56 2.572 . S
Tb55 O90 2.349 1_655 S
Tb55 O93 2.393 1_655 S
Tb55 O94 2.465 . S
Tb55 O95 2.387 . S
Tb55 O97 2.428 . S
Tb55 O98 2.308 1_545 S
Tb55 C119 2.802 . S
N56 C52 1.361 . S
N56 Tb55 2.572 . S
N56 C58 1.340 . S
C57 C51 1.416 . S
C57 C59 1.332 . S
C57 H65 0.931 . S
C58 N56 1.340 . S
C58 C59 1.407 . S
C58 H64 0.930 . S
C59 C57 1.332 . S
C59 C58 1.407 . S
C59 H61 0.929 . S
H60 C49 0.930 . S
H61 C59 0.929 . S
H62 C77 0.930 1_655 S
H63 C84 0.929 . S
H64 C58 0.930 . S
H65 C57 0.931 . S
H66 C80 0.930 . S
H67 C47 0.930 . S
H68 C53 0.929 . S
H69 C54 0.930 . S
H70 C75 0.930 1_655 S
H71 C50 0.930 . S
H72 C83 0.931 . S
N73 Tb44 2.617 . S
N73 C74 1.379 . S
N73 C77 1.334 . S
C74 N73 1.379 . S
C74 C76 1.416 . S
C74 C82 1.424 . S
C75 H70 0.930 1_455 S
C75 C77 1.390 . S
C75 C78 1.339 . S
C76 C74 1.416 . S
C76 C78 1.416 . S
C76 C109 1.448 . S
C77 H62 0.930 1_455 S
C77 N73 1.334 . S
C77 C75 1.390 . S
C78 C75 1.339 . S
C78 C76 1.416 . S
C78 H85 0.930 . S
N79 Tb44 2.572 . S
N79 C80 1.340 . S
N79 C82 1.361 . S
C80 H66 0.930 . S
C80 N79 1.340 . S
C80 C84 1.407 . S
C81 C82 1.413 . S
C81 C83 1.416 . S
C81 C110 1.427 . S
C82 C74 1.424 . S
C82 N79 1.361 . S
C82 C81 1.413 . S
C83 H72 0.931 . S
C83 C81 1.416 . S
C83 C84 1.332 . S
C84 H63 0.929 . S
C84 C80 1.407 . S
C84 C83 1.332 . S
H85 C78 0.930 . S
H86 C109 0.930 . S
H87 C110 0.929 . S
O88 Tb44 2.465 . S
O88 C108 1.264 . S
O89 Tb44 2.387 . S
O89 C100 1.264 . S
O90 Tb55 2.349 1_455 S
O90 C100 1.243 1_545 S
O91 Tb44 2.428 . S
O91 C108 1.256 . S
O92 Tb44 2.308 1_545 S
O92 C107 1.266 . S
O93 Tb55 2.393 1_455 S
O93 C107 1.248 . S
O94 Tb55 2.465 . S
O94 C119 1.264 . S
O95 Tb55 2.387 . S
O95 C111 1.264 . S
O96 Tb44 2.349 1_645 S
O96 C111 1.243 . S
O97 Tb55 2.428 . S
O97 C119 1.256 . S
O98 Tb55 2.308 1_565 S
O98 C118 1.266 . S
O99 Tb44 2.393 1_655 S
O99 C118 1.248 . S
C100 O89 1.264 . S
C100 O90 1.243 1_565 S
C101 C104 1.399 . S
C101 C106 1.383 . S
C101 C108 1.496 . S
C102 C103 1.399 . S
C102 C106 1.389 . S
C103 C102 1.399 . S
C103 C105 1.380 . S
C103 H120 0.929 . S
C104 C101 1.399 . S
C104 C105 1.392 . S
C104 H121 0.929 . S
C105 C103 1.380 . S
C105 C104 1.392 . S
C105 H122 0.929 . S
C106 C101 1.383 . S
C106 C102 1.389 . S
C106 H123 0.931 . S
C107 O92 1.266 . S
C107 O93 1.248 . S
C108 Tb44 2.802 . S
C108 O88 1.264 . S
C108 O91 1.256 . S
C108 C101 1.496 . S
C109 C76 1.448 . S
C109 H86 0.930 . S
C109 C110 1.328 . S
C110 C81 1.427 . S
C110 H87 0.929 . S
C110 C109 1.328 . S
C111 O95 1.264 . S
C111 O96 1.243 . S
C112 C115 1.399 . S
C112 C116 1.383 . S
C112 C119 1.496 . S
C113 C114 1.399 . S
C113 C116 1.389 . S
C114 C113 1.399 . S
C114 C117 1.380 . S
C114 H124 0.929 . S
C115 C112 1.399 . S
C115 C117 1.392 . S
C115 H125 0.929 . S
C116 C112 1.383 . S
C116 C113 1.389 . S
C116 H126 0.931 . S
C117 C114 1.380 . S
C117 C115 1.392 . S
C117 H127 0.929 . S
C118 O98 1.266 . S
C118 O99 1.248 . S
C119 Tb55 2.802 . S
C119 O94 1.264 . S
C119 O97 1.256 . S
C119 C112 1.496 . S
H120 C103 0.929 . S
H121 C104 0.929 . S
H122 C105 0.929 . S
H123 C106 0.931 . S
H124 C114 0.929 . S
H125 C115 0.929 . S
H126 C116 0.931 . S
H127 C117 0.929 . S
Tb128 N157 2.617 1_556 S
Tb128 N163 2.572 1_556 S
Tb128 O172 2.465 . S
Tb128 O173 2.387 1_556 S
Tb128 O175 2.428 . S
Tb128 O176 2.308 1_556 S
Tb128 O180 2.349 . S
Tb128 O183 2.393 1_556 S
Tb128 C192 2.802 . S
C129 N130 1.379 . S
C129 C132 1.416 . S
C129 C136 1.424 . S
N130 C129 1.379 . S
N130 C133 1.334 . S
N130 Tb139 2.617 . S
C131 C133 1.390 . S
C131 C134 1.339 . S
C131 H151 0.930 . S
C132 C129 1.416 . S
C132 C134 1.416 . S
C132 C138 1.448 . S
C133 N130 1.334 . S
C133 C131 1.390 . S
C133 H144 0.930 . S
C134 C131 1.339 . S
C134 C132 1.416 . S
C134 H155 0.930 . S
C135 C136 1.413 . S
C135 C137 1.427 . S
C135 C141 1.416 . S
C136 C129 1.424 . S
C136 C135 1.413 . S
C136 N140 1.361 . S
C137 C135 1.427 . S
C137 C138 1.328 . S
C137 H152 0.929 . S
C138 C132 1.448 . S
C138 C137 1.328 . S
C138 H153 0.930 . S
Tb139 N130 2.617 . S
Tb139 N140 2.572 . S
Tb139 O174 2.349 . S
Tb139 O177 2.393 . S
Tb139 O178 2.465 . S
Tb139 O179 2.387 . S
Tb139 O181 2.428 . S
Tb139 O182 2.308 . S
Tb139 C203 2.802 . S
N140 C136 1.361 . S
N140 Tb139 2.572 . S
N140 C142 1.340 . S
C141 C135 1.416 . S
C141 C143 1.332 . S
C141 H149 0.931 . S
C142 N140 1.340 . S
C142 C143 1.407 . S
C142 H148 0.930 . S
C143 C141 1.332 . S
C143 C142 1.407 . S
C143 H145 0.929 . S
H144 C133 0.930 . S
H145 C143 0.929 . S
H146 C161 0.930 . S
H147 C168 0.929 . S
H148 C142 0.930 . S
H149 C141 0.931 . S
H150 C164 0.930 . S
H151 C131 0.930 . S
H152 C137 0.929 . S
H153 C138 0.930 . S
H154 C159 0.930 . S
H155 C134 0.930 . S
H156 C167 0.931 . S
N157 Tb128 2.617 1_554 S
N157 C158 1.380 . S
N157 C161 1.335 1_554 S
C158 N157 1.380 . S
C158 C160 1.416 . S
C158 C166 1.424 . S
C159 H154 0.930 . S
C159 C161 1.392 . S
C159 C162 1.337 1_556 S
C160 C158 1.416 . S
C160 C162 1.416 . S
C160 C193 1.448 . S
C161 H146 0.930 . S
C161 N157 1.335 1_556 S
C161 C159 1.392 . S
C162 C159 1.337 1_554 S
C162 C160 1.416 . S
C162 H169 0.930 . S
N163 Tb128 2.572 1_554 S
N163 C164 1.340 . S
N163 C166 1.361 . S
C164 H150 0.930 . S
C164 N163 1.340 . S
C164 C168 1.407 . S
C165 C166 1.413 . S
C165 C167 1.416 . S
C165 C194 1.427 . S
C166 C158 1.424 . S
C166 N163 1.361 . S
C166 C165 1.413 . S
C167 H156 0.931 . S
C167 C165 1.416 . S
C167 C168 1.332 . S
C168 H147 0.929 . S
C168 C164 1.407 . S
C168 C167 1.332 . S
H169 C162 0.930 . S
H170 C193 0.930 . S
H171 C194 0.929 . S
O172 Tb128 2.465 . S
O172 C192 1.264 . S
O173 Tb128 2.387 1_554 S
O173 C184 1.264 . S
O174 Tb139 2.349 . S
O174 C184 1.243 . S
O175 Tb128 2.428 . S
O175 C192 1.256 . S
O176 Tb128 2.308 1_554 S
O176 C191 1.266 . S
O177 Tb139 2.393 . S
O177 C191 1.248 . S
O178 Tb139 2.465 . S
O178 C203 1.264 . S
O179 Tb139 2.387 . S
O179 C195 1.264 1_554 S
O180 Tb128 2.349 . S
O180 C195 1.243 . S
O181 Tb139 2.428 . S
O181 C203 1.256 . S
O182 Tb139 2.308 . S
O182 C202 1.266 . S
O183 Tb128 2.393 1_554 S
O183 C202 1.248 . S
C184 O173 1.264 . S
C184 O174 1.243 . S
C185 C188 1.399 . S
C185 C190 1.383 . S
C185 C192 1.496 . S
C186 C187 1.399 . S
C186 C190 1.389 . S
C187 C186 1.399 . S
C187 C189 1.380 . S
C187 H204 0.929 . S
C188 C185 1.399 . S
C188 C189 1.392 . S
C188 H205 0.929 . S
C189 C187 1.380 . S
C189 C188 1.392 . S
C189 H206 0.929 . S
C190 C185 1.383 . S
C190 C186 1.389 . S
C190 H207 0.931 . S
C191 O176 1.266 . S
C191 O177 1.248 . S
C192 Tb128 2.802 . S
C192 O172 1.264 . S
C192 O175 1.256 . S
C192 C185 1.496 . S
C193 C160 1.448 . S
C193 H170 0.930 . S
C193 C194 1.328 . S
C194 C165 1.427 . S
C194 H171 0.929 . S
C194 C193 1.328 . S
C195 O179 1.264 1_556 S
C195 O180 1.243 . S
C196 C199 1.399 . S
C196 C200 1.383 . S
C196 C203 1.496 . S
C197 C198 1.399 . S
C197 C200 1.389 . S
C198 C197 1.399 . S
C198 C201 1.380 . S
C198 H208 0.929 . S
C199 C196 1.399 . S
C199 C201 1.392 . S
C199 H209 0.929 . S
C200 C196 1.383 . S
C200 C197 1.389 . S
C200 H210 0.931 . S
C201 C198 1.380 . S
C201 C199 1.392 . S
C201 H211 0.929 . S
C202 O182 1.266 . S
C202 O183 1.248 . S
C203 Tb139 2.802 . S
C203 O178 1.264 . S
C203 O181 1.256 . S
C203 C196 1.496 . S
H204 C187 0.929 . S
H205 C188 0.929 . S
H206 C189 0.929 . S
H207 C190 0.931 . S
H208 C198 0.929 . S
H209 C199 0.929 . S
H210 C200 0.931 . S
H211 C201 0.929 . S
H212 C220 0.929 . S
H213 C222 0.930 . S
H214 C224 0.930 . S
H215 C227 0.929 . S
H216 C230 0.930 . S
H217 C232 0.960 . S
H218 C232 0.960 . S
H219 C232 0.960 . S
C220 H212 0.929 . S
C220 C221 1.377 . S
C220 C222 1.384 . S
C221 C220 1.377 . S
C221 C227 1.390 . S
C222 H213 0.930 . S
C222 C220 1.384 . S
C222 C223 1.372 . S
C223 C222 1.372 . S
C223 C224 1.400 . S
C223 C228 1.490 . S
C224 H214 0.930 . S
C224 C223 1.400 . S
C224 C227 1.386 . S
H225 C241 0.930 . S
H226 C242 0.931 . S
C227 H215 0.929 . S
C227 C221 1.390 . S
C227 C224 1.386 . S
C228 C223 1.490 . S
C228 C230 1.395 . S
C228 C231 1.403 . S
H229 C235 0.930 . S
C230 H216 0.930 . S
C230 C228 1.395 . S
C230 C233 1.403 . S
C231 C228 1.403 . S
C231 C232 1.524 . S
C231 C235 1.400 . S
C232 H217 0.960 . S
C232 H218 0.960 . S
C232 H219 0.960 . S
C232 C231 1.524 . S
C233 C230 1.403 . S
C233 C234 1.392 . S
C233 C237 1.495 . S
C234 C233 1.392 . S
C234 C235 1.385 . S
C234 C236 1.478 . S
C235 H229 0.930 . S
C235 C231 1.400 . S
C235 C234 1.385 . S
C236 C234 1.478 . S
C236 C238 1.381 . S
C236 C242 1.383 . S
C237 C233 1.495 . S
C237 H243 0.959 . S
C237 H244 0.961 . S
C237 H245 0.960 . S
C238 C236 1.381 . S
C238 C239 1.394 . S
C238 H246 0.930 . S
C239 C238 1.394 . S
C239 C240 1.383 . S
C239 H247 0.929 . S
C240 C239 1.383 . S
C240 C241 1.377 . S
C241 H225 0.930 . S
C241 C240 1.377 . S
C241 C242 1.379 . S
C242 H226 0.931 . S
C242 C236 1.383 . S
C242 C241 1.379 . S
H243 C237 0.959 . S
H244 C237 0.961 . S
H245 C237 0.960 . S
H246 C238 0.930 . S
H247 C239 0.929 . S
H248 C256 0.929 1_556 S
H249 C258 0.930 1_556 S
H250 C260 0.930 . S
H251 C263 0.929 . S
H252 C266 0.930 . S
H253 C268 0.960 . S
H254 C268 0.960 . S
H255 C268 0.960 . S
C256 H248 0.929 1_554 S
C256 C257 1.377 . S
C256 C258 1.384 . S
C257 C256 1.377 . S
C257 C263 1.390 . S
C258 H249 0.930 1_554 S
C258 C256 1.384 . S
C258 C259 1.372 . S
C259 C258 1.372 . S
C259 C260 1.400 . S
C259 C264 1.490 . S
C260 H250 0.930 . S
C260 C259 1.400 . S
C260 C263 1.386 . S
H261 C277 0.930 . S
H262 C278 0.931 . S
C263 H251 0.929 . S
C263 C257 1.390 . S
C263 C260 1.386 . S
C264 C259 1.490 . S
C264 C266 1.395 . S
C264 C267 1.403 . S
H265 C271 0.930 . S
C266 H252 0.930 . S
C266 C264 1.395 . S
C266 C269 1.403 . S
C267 C264 1.403 . S
C267 C268 1.524 . S
C267 C271 1.400 . S
C268 H253 0.960 . S
C268 H254 0.960 . S
C268 H255 0.960 . S
C268 C267 1.524 . S
C269 C266 1.403 . S
C269 C270 1.392 . S
C269 C273 1.495 . S
C270 C269 1.392 . S
C270 C271 1.385 . S
C270 C272 1.478 . S
C271 H265 0.930 . S
C271 C267 1.400 . S
C271 C270 1.385 . S
C272 C270 1.478 . S
C272 C274 1.381 . S
C272 C278 1.383 . S
C273 C269 1.495 . S
C273 H279 0.959 . S
C273 H280 0.961 . S
C273 H281 0.960 . S
C274 C272 1.381 . S
C274 C275 1.394 . S
C274 H282 0.930 1_554 S
C275 C274 1.394 . S
C275 C276 1.383 . S
C275 H283 0.929 1_554 S
C276 C275 1.383 . S
C276 C277 1.377 . S
C277 H261 0.930 . S
C277 C276 1.377 . S
C277 C278 1.379 . S
C278 H262 0.931 . S
C278 C272 1.383 . S
C278 C277 1.379 . S
H279 C273 0.959 . S
H280 C273 0.961 . S
H281 C273 0.960 . S
H282 C274 0.930 1_556 S
H283 C275 0.929 1_556 S
H284 C292 0.929 . S
H285 C294 0.930 . S
H286 C296 0.930 . S
H287 C299 0.929 . S
H288 C302 0.930 . S
H289 C304 0.960 . S
H290 C304 0.960 . S
H291 C304 0.960 . S
C292 H284 0.929 . S
C292 C293 1.377 . S
C292 C294 1.384 . S
C293 C292 1.377 . S
C293 C299 1.390 . S
C294 H285 0.930 . S
C294 C292 1.384 . S
C294 C295 1.372 . S
C295 C294 1.372 . S
C295 C296 1.400 . S
C295 C300 1.490 . S
C296 H286 0.930 . S
C296 C295 1.400 . S
C296 C299 1.386 . S
H297 C313 0.930 . S
H298 C314 0.931 . S
C299 H287 0.929 . S
C299 C293 1.390 . S
C299 C296 1.386 . S
C300 C295 1.490 . S
C300 C302 1.395 . S
C300 C303 1.403 . S
H301 C307 0.930 . S
C302 H288 0.930 . S
C302 C300 1.395 . S
C302 C305 1.403 . S
C303 C300 1.403 . S
C303 C304 1.524 . S
C303 C307 1.400 . S
C304 H289 0.960 . S
C304 H290 0.960 . S
C304 H291 0.960 . S
C304 C303 1.524 . S
C305 C302 1.403 . S
C305 C306 1.392 . S
C305 C309 1.495 . S
C306 C305 1.392 . S
C306 C307 1.385 . S
C306 C308 1.478 . S
C307 H301 0.930 . S
C307 C303 1.400 . S
C307 C306 1.385 . S
C308 C306 1.478 . S
C308 C310 1.381 . S
C308 C314 1.383 . S
C309 C305 1.495 . S
C309 H315 0.959 . S
C309 H316 0.961 . S
C309 H317 0.960 . S
C310 C308 1.381 . S
C310 C311 1.394 . S
C310 H318 0.930 . S
C311 C310 1.394 . S
C311 C312 1.383 . S
C311 H319 0.929 . S
C312 C311 1.383 . S
C312 C313 1.377 . S
C313 H297 0.930 . S
C313 C312 1.377 . S
C313 C314 1.379 . S
C314 H298 0.931 . S
C314 C308 1.383 . S
C314 C313 1.379 . S
H315 C309 0.959 . S
H316 C309 0.961 . S
H317 C309 0.960 . S
H318 C310 0.930 . S
H319 C311 0.929 . S
H320 C328 0.929 1_556 S
H321 C330 0.930 1_556 S
H322 C332 0.930 . S
H323 C335 0.929 . S
H324 C338 0.930 . S
H325 C340 0.960 . S
H326 C340 0.960 . S
H327 C340 0.960 1_554 S
C328 H320 0.929 1_554 S
C328 C329 1.377 . S
C328 C330 1.384 . S
C329 C328 1.377 . S
C329 C335 1.390 . S
C330 H321 0.930 1_554 S
C330 C328 1.384 . S
C330 C331 1.372 . S
C331 C330 1.372 . S
C331 C332 1.400 . S
C331 C336 1.490 . S
C332 H322 0.930 . S
C332 C331 1.400 . S
C332 C335 1.386 . S
H333 C349 0.930 . S
H334 C350 0.931 . S
C335 H323 0.929 . S
C335 C329 1.390 . S
C335 C332 1.386 . S
C336 C331 1.490 . S
C336 C338 1.395 . S
C336 C339 1.403 . S
H337 C343 0.930 . S
C338 H324 0.930 . S
C338 C336 1.395 . S
C338 C341 1.403 . S
C339 C336 1.403 . S
C339 C340 1.524 1_554 S
C339 C343 1.400 . S
C340 H325 0.960 . S
C340 H326 0.960 . S
C340 H327 0.960 1_556 S
C340 C339 1.524 1_556 S
C341 C338 1.403 . S
C341 C342 1.392 . S
C341 C345 1.495 . S
C342 C341 1.392 . S
C342 C343 1.385 . S
C342 C344 1.478 . S
C343 H337 0.930 . S
C343 C339 1.400 . S
C343 C342 1.385 . S
C344 C342 1.478 . S
C344 C346 1.381 . S
C344 C350 1.383 . S
C345 C341 1.495 . S
C345 H351 0.959 . S
C345 H352 0.961 . S
C345 H353 0.960 . S
C346 C344 1.381 . S
C346 C347 1.394 . S
C346 H354 0.920 1_554 S
C347 C346 1.394 . S
C347 C348 1.383 . S
C347 H355 0.929 1_554 S
C348 C347 1.383 . S
C348 C349 1.377 . S
C349 H333 0.930 . S
C349 C348 1.377 . S
C349 C350 1.379 . S
C350 H334 0.931 . S
C350 C344 1.383 . S
C350 C349 1.379 . S
H351 C345 0.959 . S
H352 C345 0.961 . S
H353 C345 0.960 . S
H354 C346 0.920 1_556 S
H355 C347 0.929 1_556 S
H356 C364 0.929 . S
H357 C366 0.930 . S
H358 C368 0.930 . S
H359 C371 0.929 . S
H360 C374 0.930 . S
H361 C376 0.960 . S
H362 C376 0.960 . S
H363 C376 0.960 . S
C364 H356 0.929 . S
C364 C365 1.377 . S
C364 C366 1.384 . S
C365 C364 1.377 . S
C365 C371 1.390 . S
C366 H357 0.930 . S
C366 C364 1.384 . S
C366 C367 1.372 . S
C367 C366 1.372 . S
C367 C368 1.400 . S
C367 C372 1.490 . S
C368 H358 0.930 . S
C368 C367 1.400 . S
C368 C371 1.386 . S
H369 C385 0.930 . S
H370 C386 0.931 . S
C371 H359 0.929 . S
C371 C365 1.390 . S
C371 C368 1.386 . S
C372 C367 1.490 . S
C372 C374 1.395 . S
C372 C375 1.403 . S
H373 C379 0.930 . S
C374 H360 0.930 . S
C374 C372 1.395 . S
C374 C377 1.403 . S
C375 C372 1.403 . S
C375 C376 1.524 . S
C375 C379 1.400 . S
C376 H361 0.960 . S
C376 H362 0.960 . S
C376 H363 0.960 . S
C376 C375 1.524 . S
C377 C374 1.403 . S
C377 C378 1.392 . S
C377 C381 1.495 . S
C378 C377 1.392 . S
C378 C379 1.385 . S
C378 C380 1.478 . S
C379 H373 0.930 . S
C379 C375 1.400 . S
C379 C378 1.385 . S
C380 C378 1.478 . S
C380 C382 1.381 . S
C380 C386 1.383 . S
C381 C377 1.495 . S
C381 H387 0.959 . S
C381 H388 0.961 . S
C381 H389 0.960 . S
C382 C380 1.381 . S
C382 C383 1.394 . S
C382 H390 0.930 . S
C383 C382 1.394 . S
C383 C384 1.383 . S
C383 H391 0.929 . S
C384 C383 1.383 . S
C384 C385 1.377 . S
C385 H369 0.930 . S
C385 C384 1.377 . S
C385 C386 1.379 . S
C386 H370 0.931 . S
C386 C380 1.383 . S
C386 C385 1.379 . S
H387 C381 0.959 . S
H388 C381 0.961 . S
H389 C381 0.960 . S
H390 C382 0.930 . S
H391 C383 0.929 . S
H392 C400 0.929 . S
H393 C402 0.930 . S
H394 C404 0.930 . S
H395 C407 0.929 . S
H396 C410 0.930 . S
H397 C412 0.960 . S
H398 C412 0.960 . S
H399 C412 0.960 . S
C400 H392 0.929 . S
C400 C401 1.377 . S
C400 C402 1.384 . S
C401 C400 1.377 . S
C401 C407 1.390 . S
C402 H393 0.930 . S
C402 C400 1.384 . S
C402 C403 1.372 . S
C403 C402 1.372 . S
C403 C404 1.400 . S
C403 C408 1.490 . S
C404 H394 0.930 . S
C404 C403 1.400 . S
C404 C407 1.386 . S
H405 C421 0.930 . S
H406 C422 0.931 . S
C407 H395 0.929 . S
C407 C401 1.390 . S
C407 C404 1.386 . S
C408 C403 1.490 . S
C408 C410 1.395 . S
C408 C411 1.403 . S
H409 C415 0.930 . S
C410 H396 0.930 . S
C410 C408 1.395 . S
C410 C413 1.403 . S
C411 C408 1.403 . S
C411 C412 1.524 . S
C411 C415 1.400 . S
C412 H397 0.960 . S
C412 H398 0.960 . S
C412 H399 0.960 . S
C412 C411 1.524 . S
C413 C410 1.403 . S
C413 C414 1.392 . S
C413 C417 1.495 . S
C414 C413 1.392 . S
C414 C415 1.385 . S
C414 C416 1.478 . S
C415 H409 0.930 . S
C415 C411 1.400 . S
C415 C414 1.385 . S
C416 C414 1.478 . S
C416 C418 1.381 . S
C416 C422 1.383 . S
C417 C413 1.495 . S
C417 H423 0.959 . S
C417 H424 0.961 . S
C417 H425 0.960 . S
C418 C416 1.381 . S
C418 C419 1.394 . S
C418 H426 0.930 . S
C419 C418 1.394 . S
C419 C420 1.383 . S
C419 H427 0.929 . S
C420 C419 1.383 . S
C420 C421 1.377 . S
C421 H405 0.930 . S
C421 C420 1.377 . S
C421 C422 1.379 . S
C422 H406 0.931 . S
C422 C416 1.383 . S
C422 C421 1.379 . S
H423 C417 0.959 . S
H424 C417 0.961 . S
H425 C417 0.960 . S
H426 C418 0.930 . S
H427 C419 0.929 . S
H428 C436 0.929 . S
H429 C438 0.930 . S
H430 C440 0.930 . S
H431 C443 0.929 . S
H432 C446 0.930 . S
H433 C448 0.960 . S
H434 C448 0.960 . S
H435 C448 0.960 . S
C436 H428 0.929 . S
C436 C437 1.377 . S
C436 C438 1.384 . S
C437 C436 1.377 . S
C437 C443 1.390 . S
C438 H429 0.930 . S
C438 C436 1.384 . S
C438 C439 1.372 . S
C439 C438 1.372 . S
C439 C440 1.400 . S
C439 C444 1.490 . S
C440 H430 0.930 . S
C440 C439 1.400 . S
C440 C443 1.386 . S
H441 C457 0.930 . S
H442 C458 0.931 . S
C443 H431 0.929 . S
C443 C437 1.390 . S
C443 C440 1.386 . S
C444 C439 1.490 . S
C444 C446 1.395 . S
C444 C447 1.403 . S
H445 C451 0.930 . S
C446 H432 0.930 . S
C446 C444 1.395 . S
C446 C449 1.403 . S
C447 C444 1.403 . S
C447 C448 1.524 . S
C447 C451 1.400 . S
C448 H433 0.960 . S
C448 H434 0.960 . S
C448 H435 0.960 . S
C448 C447 1.524 . S
C449 C446 1.403 . S
C449 C450 1.392 . S
C449 C453 1.495 . S
C450 C449 1.392 . S
C450 C451 1.385 . S
C450 C452 1.478 . S
C451 H445 0.930 . S
C451 C447 1.400 . S
C451 C450 1.385 . S
C452 C450 1.478 . S
C452 C454 1.381 . S
C452 C458 1.383 . S
C453 C449 1.495 . S
C453 H459 0.959 . S
C453 H460 0.961 . S
C453 H461 0.960 . S
C454 C452 1.381 . S
C454 C455 1.394 . S
C454 H462 0.930 . S
C455 C454 1.394 . S
C455 C456 1.383 . S
C455 H463 0.929 . S
C456 C455 1.383 . S
C456 C457 1.377 . S
C457 H441 0.930 . S
C457 C456 1.377 . S
C457 C458 1.379 . S
C458 H442 0.931 . S
C458 C452 1.383 . S
C458 C457 1.379 . S
H459 C453 0.959 . S
H460 C453 0.961 . S
H461 C453 0.960 . S
H462 C454 0.930 . S
H463 C455 0.929 . S
H464 C472 0.929 . S
H465 C474 0.930 . S
H466 C476 0.930 . S
H467 C479 0.929 . S
H468 C482 0.930 . S
H469 C484 0.960 . S
H470 C484 0.960 . S
H471 C484 0.960 . S
C472 H464 0.929 . S
C472 C473 1.377 . S
C472 C474 1.384 . S
C473 C472 1.377 . S
C473 C479 1.390 . S
C474 H465 0.930 . S
C474 C472 1.384 . S
C474 C475 1.372 . S
C475 C474 1.372 . S
C475 C476 1.400 . S
C475 C480 1.490 . S
C476 H466 0.930 . S
C476 C475 1.400 . S
C476 C479 1.386 . S
H477 C493 0.930 . S
H478 C494 0.931 . S
C479 H467 0.929 . S
C479 C473 1.390 . S
C479 C476 1.386 . S
C480 C475 1.490 . S
C480 C482 1.395 . S
C480 C483 1.403 . S
H481 C487 0.930 . S
C482 H468 0.930 . S
C482 C480 1.395 . S
C482 C485 1.403 . S
C483 C480 1.403 . S
C483 C484 1.524 . S
C483 C487 1.400 . S
C484 H469 0.960 . S
C484 H470 0.960 . S
C484 H471 0.960 . S
C484 C483 1.524 . S
C485 C482 1.403 . S
C485 C486 1.392 . S
C485 C489 1.495 . S
C486 C485 1.392 . S
C486 C487 1.385 . S
C486 C488 1.478 . S
C487 H481 0.930 . S
C487 C483 1.400 . S
C487 C486 1.385 . S
C488 C486 1.478 . S
C488 C490 1.381 . S
C488 C494 1.383 . S
C489 C485 1.495 . S
C489 H495 0.959 . S
C489 H496 0.961 . S
C489 H497 0.960 . S
C490 C488 1.381 . S
C490 C491 1.394 . S
C490 H498 0.930 . S
C491 C490 1.394 . S
C491 C492 1.383 . S
C491 H499 0.929 . S
C492 C491 1.383 . S
C492 C493 1.377 . S
C493 H477 0.930 . S
C493 C492 1.377 . S
C493 C494 1.379 . S
C494 H478 0.931 . S
C494 C488 1.383 . S
C494 C493 1.379 . S
H495 C489 0.959 . S
H496 C489 0.961 . S
H497 C489 0.960 . S
H498 C490 0.930 . S
H499 C491 0.929 . S
H500 C508 0.929 . S
H501 C510 0.930 . S
H502 C512 0.930 . S
H503 C515 0.929 . S
H504 C518 0.930 . S
H505 C520 0.960 . S
H506 C520 0.960 . S
H507 C520 0.960 . S
C508 H500 0.929 . S
C508 C509 1.377 . S
C508 C510 1.384 . S
C509 C508 1.377 . S
C509 C515 1.390 . S
C510 H501 0.930 . S
C510 C508 1.384 . S
C510 C511 1.372 . S
C511 C510 1.372 . S
C511 C512 1.400 . S
C511 C516 1.490 . S
C512 H502 0.930 . S
C512 C511 1.400 . S
C512 C515 1.386 . S
H513 C529 0.930 . S
H514 C530 0.931 . S
C515 H503 0.929 . S
C515 C509 1.390 . S
C515 C512 1.386 . S
C516 C511 1.490 . S
C516 C518 1.395 . S
C516 C519 1.403 . S
H517 C523 0.930 . S
C518 H504 0.930 . S
C518 C516 1.395 . S
C518 C521 1.403 . S
C519 C516 1.403 . S
C519 C520 1.524 . S
C519 C523 1.400 . S
C520 H505 0.960 . S
C520 H506 0.960 . S
C520 H507 0.960 . S
C520 C519 1.524 . S
C521 C518 1.403 . S
C521 C522 1.392 . S
C521 C525 1.495 . S
C522 C521 1.392 . S
C522 C523 1.385 . S
C522 C524 1.478 . S
C523 H517 0.930 . S
C523 C519 1.400 . S
C523 C522 1.385 . S
C524 C522 1.478 . S
C524 C526 1.381 . S
C524 C530 1.383 . S
C525 C521 1.495 . S
C525 H531 0.959 . S
C525 H532 0.961 . S
C525 H533 0.960 . S
C526 C524 1.381 . S
C526 C527 1.394 . S
C526 H534 0.930 . S
C527 C526 1.394 . S
C527 C528 1.383 . S
C527 H535 0.929 . S
C528 C527 1.383 . S
C528 C529 1.377 . S
C529 H513 0.930 . S
C529 C528 1.377 . S
C529 C530 1.379 . S
C530 H514 0.931 . S
C530 C524 1.383 . S
C530 C529 1.379 . S
H531 C525 0.959 . S
H532 C525 0.961 . S
H533 C525 0.960 . S
H534 C526 0.930 . S
H535 C527 0.929 . S
H536 C544 0.929 1_554 S
H537 C546 0.930 . S
H538 C548 0.930 . S
H539 C551 0.929 . S
H540 C554 0.930 . S
H541 C556 0.960 . S
H542 C556 0.960 . S
H543 C556 0.960 . S
C544 H536 0.929 1_556 S
C544 C545 1.377 . S
C544 C546 1.384 . S
C545 C544 1.377 . S
C545 C551 1.390 . S
C546 H537 0.930 . S
C546 C544 1.384 . S
C546 C547 1.372 . S
C547 C546 1.372 . S
C547 C548 1.400 . S
C547 C552 1.490 . S
C548 H538 0.930 . S
C548 C547 1.400 . S
C548 C551 1.386 . S
H549 C565 0.930 . S
H550 C566 0.931 . S
C551 H539 0.929 . S
C551 C545 1.390 . S
C551 C548 1.386 . S
C552 C547 1.490 . S
C552 C554 1.395 . S
C552 C555 1.403 . S
H553 C559 0.930 . S
C554 H540 0.930 . S
C554 C552 1.395 . S
C554 C557 1.403 . S
C555 C552 1.403 . S
C555 C556 1.524 . S
C555 C559 1.400 . S
C556 H541 0.960 . S
C556 H542 0.960 . S
C556 H543 0.960 . S
C556 C555 1.524 . S
C557 C554 1.403 . S
C557 C558 1.392 . S
C557 C561 1.495 . S
C558 C557 1.392 . S
C558 C559 1.385 . S
C558 C560 1.478 . S
C559 H553 0.930 . S
C559 C555 1.400 . S
C559 C558 1.385 . S
C560 C558 1.478 . S
C560 C562 1.381 . S
C560 C566 1.383 . S
C561 C557 1.495 . S
C561 H567 0.959 . S
C561 H568 0.961 . S
C561 H569 0.960 . S
C562 C560 1.381 . S
C562 C563 1.394 . S
C562 H570 0.930 . S
C563 C562 1.394 . S
C563 C564 1.383 . S
C563 H571 0.929 . S
C564 C563 1.383 . S
C564 C565 1.377 . S
C565 H549 0.930 . S
C565 C564 1.377 . S
C565 C566 1.379 . S
C566 H550 0.931 . S
C566 C560 1.383 . S
C566 C565 1.379 . S
H567 C561 0.959 . S
H568 C561 0.961 . S
H569 C561 0.960 . S
H570 C562 0.930 . S
H571 C563 0.929 . S
H572 C580 0.929 . S
H573 C582 0.930 . S
H574 C584 0.930 . S
H575 C587 0.929 . S
H576 C590 0.930 . S
H577 C592 0.960 . S
H578 C592 0.960 . S
H579 C592 0.960 . S
C580 H572 0.929 . S
C580 C581 1.377 . S
C580 C582 1.384 . S
C581 C580 1.377 . S
C581 C587 1.390 . S
C582 H573 0.930 . S
C582 C580 1.384 . S
C582 C583 1.372 . S
C583 C582 1.372 . S
C583 C584 1.400 . S
C583 C588 1.490 . S
C584 H574 0.930 . S
C584 C583 1.400 . S
C584 C587 1.386 . S
H585 C601 0.930 . S
H586 C602 0.931 . S
C587 H575 0.929 . S
C587 C581 1.390 . S
C587 C584 1.386 . S
C588 C583 1.490 . S
C588 C590 1.395 . S
C588 C591 1.403 . S
H589 C595 0.930 . S
C590 H576 0.930 . S
C590 C588 1.395 . S
C590 C593 1.403 . S
C591 C588 1.403 . S
C591 C592 1.524 . S
C591 C595 1.400 . S
C592 H577 0.960 . S
C592 H578 0.960 . S
C592 H579 0.960 . S
C592 C591 1.524 . S
C593 C590 1.403 . S
C593 C594 1.392 . S
C593 C597 1.495 . S
C594 C593 1.392 . S
C594 C595 1.385 . S
C594 C596 1.478 . S
C595 H589 0.930 . S
C595 C591 1.400 . S
C595 C594 1.385 . S
C596 C594 1.478 . S
C596 C598 1.381 . S
C596 C602 1.383 . S
C597 C593 1.495 . S
C597 H603 0.959 . S
C597 H604 0.961 . S
C597 H605 0.960 . S
C598 C596 1.381 . S
C598 C599 1.394 . S
C598 H606 0.930 . S
C599 C598 1.394 . S
C599 C600 1.383 . S
C599 H607 0.929 . S
C600 C599 1.383 . S
C600 C601 1.377 . S
C601 H585 0.930 . S
C601 C600 1.377 . S
C601 C602 1.379 . S
C602 H586 0.931 . S
C602 C596 1.383 . S
C602 C601 1.379 . S
H603 C597 0.959 . S
H604 C597 0.961 . S
H605 C597 0.960 . S
H606 C598 0.930 . S
H607 C599 0.929 . S
H608 C616 0.929 . S
H609 C618 0.930 . S
H610 C620 0.930 . S
H611 C623 0.929 . S
H612 C626 0.930 . S
H613 C628 0.960 . S
H614 C628 0.960 . S
H615 C628 0.960 . S
C616 H608 0.929 . S
C616 C617 1.377 . S
C616 C618 1.384 . S
C617 C616 1.377 . S
C617 C623 1.390 . S
C618 H609 0.930 . S
C618 C616 1.384 . S
C618 C619 1.372 . S
C619 C618 1.372 . S
C619 C620 1.400 . S
C619 C624 1.490 . S
C620 H610 0.930 . S
C620 C619 1.400 . S
C620 C623 1.386 . S
H621 C637 0.930 . S
H622 C638 0.931 . S
C623 H611 0.929 . S
C623 C617 1.390 . S
C623 C620 1.386 . S
C624 C619 1.490 . S
C624 C626 1.395 . S
C624 C627 1.403 . S
H625 C631 0.930 . S
C626 H612 0.930 . S
C626 C624 1.395 . S
C626 C629 1.403 . S
C627 C624 1.403 . S
C627 C628 1.524 . S
C627 C631 1.400 . S
C628 H613 0.960 . S
C628 H614 0.960 . S
C628 H615 0.960 . S
C628 C627 1.524 . S
C629 C626 1.403 . S
C629 C630 1.392 . S
C629 C633 1.495 . S
C630 C629 1.392 . S
C630 C631 1.385 . S
C630 C632 1.478 . S
C631 H625 0.930 . S
C631 C627 1.400 . S
C631 C630 1.385 . S
C632 C630 1.478 . S
C632 C634 1.381 . S
C632 C638 1.383 . S
C633 C629 1.495 . S
C633 H639 0.959 . S
C633 H640 0.961 . S
C633 H641 0.960 . S
C634 C632 1.381 . S
C634 C635 1.394 . S
C634 H642 0.930 . S
C635 C634 1.394 . S
C635 C636 1.383 . S
C635 H643 0.929 . S
C636 C635 1.383 . S
C636 C637 1.377 . S
C637 H621 0.930 . S
C637 C636 1.377 . S
C637 C638 1.379 . S
C638 H622 0.931 . S
C638 C632 1.383 . S
C638 C637 1.379 . S
H639 C633 0.959 . S
H640 C633 0.961 . S
H641 C633 0.960 . S
H642 C634 0.930 . S
H643 C635 0.929 . S
C240 C107 1.660 . S
C221 C43 1.687 . S
C257 C10 1.686 . S
C276 C202 1.667 . S
C293 C21 1.695 . S
C312 C118 1.674 . S
C329 C32 1.663 . S
C348 C191 1.641 . S
C384 C102 1.502 . S
C365 C5 1.632 . S
C420 C195 1.731 . S
C401 C15 1.734 . S
C437 C27 1.656 . S
C456 C111 1.662 . S
C473 C38 1.625 . S
C492 C186 1.480 . S
C528 C197 1.372 . S
C509 C16 1.569 . S
C564 C113 1.441 . S
C545 C26 1.573 . S
C600 C184 1.644 . S
C581 C37 1.639 . S
C617 C4 1.582 . S
C636 C100 1.583 . S
