# Generated by pormake.
# Topology anh, (6,3)-cn, num edge types: 1
# Building blocks:
#     Node 0, Type 0, BuildingBlock: BETFAJ_clean_sbu_0, # of connection points: 6
#     Node 1, Type 0, BuildingBlock: BETFAJ_clean_sbu_0, # of connection points: 6
#     Node 2, Type 0, BuildingBlock: BETFAJ_clean_sbu_0, # of connection points: 6
#     Node 3, Type 1, BuildingBlock: BELTOD_clean_linker_0, # of connection points: 3
#     Node 4, Type 1, BuildingBlock: BELTOD_clean_linker_0, # of connection points: 3
#     Node 5, Type 1, BuildingBlock: BELTOD_clean_linker_0, # of connection points: 3
#     Node 6, Type 1, BuildingBlock: BELTOD_clean_linker_0, # of connection points: 3
#     Node 7, Type 1, BuildingBlock: BELTOD_clean_linker_0, # of connection points: 3
#     Node 8, Type 1, BuildingBlock: BELTOD_clean_linker_0, # of connection points: 3
#     Edge 9, Type (0, 1), BuildingBlock: XUDNAN_clean_linker_2, # of connection points: 2
#     Edge 10, Type (0, 1), BuildingBlock: XUDNAN_clean_linker_2, # of connection points: 2
#     Edge 11, Type (0, 1), BuildingBlock: XUDNAN_clean_linker_2, # of connection points: 2
#     Edge 12, Type (0, 1), BuildingBlock: XUDNAN_clean_linker_2, # of connection points: 2
#     Edge 13, Type (0, 1), BuildingBlock: XUDNAN_clean_linker_2, # of connection points: 2
#     Edge 14, Type (0, 1), BuildingBlock: XUDNAN_clean_linker_2, # of connection points: 2
#     Edge 15, Type (0, 1), BuildingBlock: XUDNAN_clean_linker_2, # of connection points: 2
#     Edge 16, Type (0, 1), BuildingBlock: XUDNAN_clean_linker_2, # of connection points: 2
#     Edge 17, Type (0, 1), BuildingBlock: XUDNAN_clean_linker_2, # of connection points: 2
#     Edge 18, Type (0, 1), BuildingBlock: XUDNAN_clean_linker_2, # of connection points: 2
#     Edge 19, Type (0, 1), BuildingBlock: XUDNAN_clean_linker_2, # of connection points: 2
#     Edge 20, Type (0, 1), BuildingBlock: XUDNAN_clean_linker_2, # of connection points: 2
#     Edge 21, Type (0, 1), BuildingBlock: XUDNAN_clean_linker_2, # of connection points: 2
#     Edge 22, Type (0, 1), BuildingBlock: XUDNAN_clean_linker_2, # of connection points: 2
#     Edge 23, Type (0, 1), BuildingBlock: XUDNAN_clean_linker_2, # of connection points: 2
#     Edge 24, Type (0, 1), BuildingBlock: XUDNAN_clean_linker_2, # of connection points: 2
#     Edge 25, Type (0, 1), BuildingBlock: XUDNAN_clean_linker_2, # of connection points: 2
#     Edge 26, Type (0, 1), BuildingBlock: XUDNAN_clean_linker_2, # of connection points: 2
# Relax obj value: 0.180
# Max RMSD: 0.207
# Mean RMSD: 0.149
data_MOF--net-anh--node1-BETFAJ_clean_sbu_0--node2-BELTOD_clean_linker_0--edge1-XUDNAN_clean_linker_2
_symmetry_space_group_name_H-M    P1
_symmetry_Int_Tables_number       1
_symmetry_cell_setting            triclinic
loop_
_symmetry_equiv_pos_as_xyz
'x, y, z'
_cell_length_a     34.650605
_cell_length_b     40.970692
_cell_length_c     60.867239
_cell_angle_alpha  92.044635
_cell_angle_beta   89.840653
_cell_angle_gamma 128.6437
loop_
_atom_site_label
_atom_site_type_symbol
_atom_site_fract_x
_atom_site_fract_y
_atom_site_fract_z
_atom_type_partial_charge
Sm0 Sm 0.12651 0.56362 0.14145 0.0
Sm1 Sm 0.07603 0.60491 0.1567 0.0
C2 C 0.16124 0.5322 0.11781 0.0
C3 C 0.16457 0.49876 0.12101 0.0
C4 C 0.15368 0.48031 0.14144 0.0
C5 C 0.15841 0.44939 0.14474 0.0
C6 C 0.17377 0.43626 0.1276 0.0
C7 C 0.18334 0.45409 0.10697 0.0
C8 C 0.17882 0.48519 0.10372 0.0
C9 C 0.12312 0.56733 0.18691 0.0
C10 C 0.19326 0.66591 0.15126 0.0
C11 C 1.01882 0.62024 0.17406 0.0
C12 C 0.965 0.59098 0.17722 0.0
C13 C 0.94496 0.58886 0.19769 0.0
C14 C 0.89412 0.55858 0.20093 0.0
C15 C 0.86274 0.52991 0.18372 0.0
C16 C 0.88309 0.53271 0.1632 0.0
C17 C 0.93351 0.56256 0.16004 0.0
C18 C 0.09762 0.60852 0.11294 0.0
C19 C 1.00832 0.50056 0.15163 0.0
O20 O 0.18907 0.5653 0.13114 0.0
O21 O 0.11644 0.52 0.11505 0.0
O22 O 0.10917 0.57995 0.17294 0.0
O23 O 0.14189 0.55199 0.17666 0.0
O24 O 0.18613 0.6354 0.13855 0.0
O25 O 0.15801 0.65981 0.16374 0.0
O26 O 1.04519 0.61452 0.18612 0.0
O27 O 1.03278 0.6276 0.15362 0.0
O28 O 0.08078 0.57776 0.12478 0.0
O29 O 0.10119 0.63815 0.12389 0.0
O30 O 1.0107 0.53372 0.15611 0.0
O31 O 1.04703 0.50363 0.14534 0.0
H32 H 0.14206 0.49016 0.15489 0.0
H33 H 0.15032 0.43592 0.16072 0.0
H34 H 0.1958 0.44494 0.09354 0.0
H35 H 0.1871 0.49904 0.08783 0.0
H36 H 0.96871 0.61016 0.21124 0.0
H37 H 0.87954 0.55717 0.21693 0.0
H38 H 0.86 0.51195 0.14939 0.0
H39 H 0.94779 0.56294 0.14412 0.0
Sm40 Sm 0.62041 0.0348 0.48115 0.0
Sm41 Sm 0.54395 0.04733 0.476 0.0
C42 C 0.67101 0.00907 0.4926 0.0
C43 C 0.66031 0.97109 0.50115 0.0
C44 C 0.61709 0.94268 0.51272 0.0
C45 C 0.60728 0.90651 0.52055 0.0
C46 C 0.64055 0.8981 0.51696 0.0
C47 C 0.68361 0.9266 0.50518 0.0
C48 C 0.69333 0.96272 0.49735 0.0
C49 C 0.6048 0.04538 0.43868 0.0
C50 C 0.50162 0.95275 0.47663 0.0
C51 C 0.49408 0.07431 0.46593 0.0
C52 C 0.50311 0.11473 0.46846 0.0
C53 C 0.54177 0.15028 0.45759 0.0
C54 C 0.55074 0.18851 0.46084 0.0
C55 C 0.52157 0.19216 0.47516 0.0
C56 C 0.48282 0.15659 0.48594 0.0
C57 C 0.47354 0.11827 0.48252 0.0
C58 C 0.55694 0.03417 0.51825 0.0
C59 C 0.66427 0.13036 0.47914 0.0
O60 O 0.66392 0.0306 0.50592 0.0
O61 O 0.65547 1.00568 0.47248 0.0
O62 O 0.57143 0.02326 0.45234 0.0
O63 O 0.64819 0.06159 0.44691 0.0
O64 O 0.5452 0.96942 0.48587 0.0
O65 O 0.49317 0.9766 0.46752 0.0
O66 O 0.52076 0.07179 0.45178 0.0
O67 O 0.48787 0.05561 0.4841 0.0
O68 O 0.59164 0.05756 0.50526 0.0
O69 O 0.51432 0.01864 0.50945 0.0
O70 O 0.61822 0.11463 0.47433 0.0
O71 O 0.67547 0.10624 0.48457 0.0
H72 H 0.59099 0.9485 0.51572 0.0
H73 H 0.57349 0.88502 0.52931 0.0
H74 H 0.71035 0.92146 0.50238 0.0
H75 H 0.72683 0.98426 0.48841 0.0
H76 H 0.56551 0.14878 0.44674 0.0
H77 H 0.5812 0.21546 0.45249 0.0
H78 H 0.45942 0.15833 0.49689 0.0
H79 H 0.44344 0.09138 0.49105 0.0
Sm80 Sm 0.63563 0.55852 0.84671 0.0
Sm81 Sm 0.55712 0.45651 0.84661 0.0
C82 C 0.6963 0.63792 0.83618 0.0
C83 C 0.69045 0.67019 0.83329 0.0
C84 C 0.72812 0.70802 0.82391 0.0
C85 C 0.72197 0.73817 0.82041 0.0
C86 C 0.67795 0.73101 0.82626 0.0
C87 C 0.64026 0.69289 0.83566 0.0
C88 C 0.64642 0.66277 0.83909 0.0
C89 C 0.59562 0.5245 0.88645 0.0
C90 C 0.5152 0.51043 0.84637 0.0
C91 C 0.50563 0.37668 0.85553 0.0
C92 C 0.50804 0.34346 0.84748 0.0
C93 C 0.55377 0.35155 0.84565 0.0
C94 C 0.55626 0.32084 0.83703 0.0
C95 C 0.5131 0.28126 0.82994 0.0
C96 C 0.46726 0.27302 0.83203 0.0
C97 C 0.46479 0.30382 0.84073 0.0
C98 C 0.58055 0.48604 0.80441 0.0
C99 C 0.67899 0.50474 0.84627 0.0
O100 O 0.67281 0.60666 0.82157 0.0
O101 O 0.69265 0.6259 0.85628 0.0
O102 O 0.60706 0.50932 0.87185 0.0
O103 O 0.60901 0.56063 0.88099 0.0
O104 O 0.55966 0.54279 0.83979 0.0
O105 O 0.50664 0.47581 0.85313 0.0
O106 O 0.54336 0.40727 0.86757 0.0
O107 O 0.49015 0.38974 0.84132 0.0
O108 O 0.59514 0.5058 0.82253 0.0
O109 O 0.55156 0.44646 0.80809 0.0
O110 O 0.63262 0.46937 0.84582 0.0
O111 O 0.68974 0.54223 0.84681 0.0
H112 H 0.76225 0.7142 0.81922 0.0
H113 H 0.75192 0.7673 0.81336 0.0
H114 H 0.60562 0.68602 0.84006 0.0
H115 H 0.61664 0.63351 0.84612 0.0
H116 H 0.58783 0.38187 0.85061 0.0
H117 H 0.59224 0.32858 0.83537 0.0
H118 H 0.43324 0.24274 0.82694 0.0
H119 H 0.42913 0.29682 0.84197 0.0
P120 P 0.64636 0.06934 0.20574 0.0
H121 H 0.62915 0.0084 0.17226 0.0
H122 H 0.55393 0.94458 0.15619 0.0
H123 H 0.46795 0.97634 0.18681 0.0
H124 H 0.54408 0.04033 0.20328 0.0
H125 H 0.75203 0.13752 0.20566 0.0
H126 H 0.80197 0.20939 0.19446 0.0
H127 H 0.66981 0.18899 0.17216 0.0
H128 H 0.61962 0.11664 0.18404 0.0
H129 H 0.57195 1.00118 0.23296 0.0
H130 H 0.6848 0.13497 0.2409 0.0
O131 O 0.68331 0.05627 0.20654 0.0
H132 H 0.55203 0.99803 0.27165 0.0
H133 H 0.66545 0.13178 0.27988 0.0
C134 C 0.59229 0.02894 0.18923 0.0
C135 C 0.59432 1.0022 0.1752 0.0
C136 C 0.55101 0.96555 0.16593 0.0
C137 C 0.50452 0.95483 0.17038 0.0
C138 C 0.50294 0.98314 0.18336 0.0
C139 C 0.5465 0.02001 0.19258 0.0
C140 C 0.68209 0.12133 0.19527 0.0
C141 C 0.73369 0.14818 0.19804 0.0
C142 C 0.76238 0.18946 0.19153 0.0
C143 C 0.74021 0.20519 0.18214 0.0
C144 C 0.68825 0.17813 0.17941 0.0
C145 C 0.65945 0.13661 0.18602 0.0
C146 C 0.62875 0.06848 0.23376 0.0
C147 C 0.59169 0.03006 0.24286 0.0
C148 C 0.58039 0.02824 0.26504 0.0
C149 C 0.60686 0.06472 0.27874 0.0
C150 C 0.64437 0.10319 0.26968 0.0
C151 C 0.65521 0.10505 0.24735 0.0
P152 P 0.6711 0.57723 0.57502 0.0
H153 H 0.69586 0.56394 0.53169 0.0
H154 H 0.66415 0.50096 0.50919 0.0
H155 H 0.54904 0.42618 0.55594 0.0
H156 H 0.58174 0.48944 0.57857 0.0
H157 H 0.70203 0.65452 0.59618 0.0
H158 H 0.68581 0.70315 0.58871 0.0
H159 H 0.60143 0.62919 0.5302 0.0
H160 H 0.617 0.57967 0.53806 0.0
H161 H 0.70529 0.55155 0.60914 0.0
H162 H 0.59684 0.57069 0.60254 0.0
O163 O 0.73196 0.60323 0.57398 0.0
H164 H 0.68792 0.53989 0.64842 0.0
H165 H 0.58027 0.56005 0.64179 0.0
C166 C 0.64163 0.53134 0.55692 0.0
C167 C 0.66341 0.53404 0.53694 0.0
C168 C 0.64503 0.49792 0.52404 0.0
C169 C 0.60424 0.45831 0.53083 0.0
C170 C 0.58106 0.45604 0.55041 0.0
C171 C 0.59953 0.49227 0.56332 0.0
C172 C 0.66022 0.61325 0.56785 0.0
C173 C 0.67997 0.64865 0.58174 0.0
C174 C 0.67058 0.67635 0.5775 0.0
C175 C 0.64196 0.66967 0.55901 0.0
C176 C 0.62356 0.63495 0.54459 0.0
C177 C 0.63234 0.60668 0.54908 0.0
C178 C 0.65344 0.5632 0.6031 0.0
C179 C 0.67759 0.55301 0.61611 0.0
C180 C 0.66754 0.54623 0.63849 0.0
C181 C 0.63336 0.54978 0.64816 0.0
C182 C 0.60745 0.55791 0.63481 0.0
C183 C 0.61696 0.56402 0.61239 0.0
P184 P 0.13126 0.55226 0.88088 0.0
H185 H 0.16068 0.54023 0.83764 0.0
H186 H 0.22024 0.52924 0.82751 0.0
H187 H 0.2271 0.50252 0.89468 0.0
H188 H 0.16631 0.51203 0.90447 0.0
H189 H 0.07865 0.58142 0.8975 0.0
H190 H 1.00044 0.56615 0.88898 0.0
H191 H 0.97 0.4754 0.83855 0.0
H192 H 1.04879 0.49011 0.84799 0.0
H193 H 0.21376 0.61621 0.91017 0.0
H194 H 1.0639 0.50399 0.91692 0.0
O195 O 0.16957 0.60003 0.87104 0.0
H196 H 0.22046 0.63123 0.94975 0.0
H197 H 0.0697 0.51946 0.95658 0.0
C198 C 0.15811 0.52699 0.87185 0.0
C199 C 0.17332 0.53035 0.85006 0.0
C200 C 0.20852 0.52482 0.84438 0.0
C201 C 0.23024 0.51605 0.86034 0.0
C202 C 0.21185 0.5093 0.8818 0.0
C203 C 0.17652 0.51473 0.88744 0.0
C204 C 0.06961 0.53606 0.87396 0.0
C205 C 1.05494 0.55757 0.88481 0.0
C206 C 1.01002 0.54927 0.87961 0.0
C207 C 0.97782 0.51946 0.86295 0.0
C208 C 0.99285 0.49813 0.85177 0.0
C209 C 1.0382 0.50647 0.85712 0.0
C210 C 0.13785 0.5597 0.91052 0.0
C211 C 0.18227 0.59474 0.92019 0.0
C212 C 0.18597 0.60336 0.94285 0.0
C213 C 0.14525 0.57707 0.95634 0.0
C214 C 0.10178 0.54041 0.94674 0.0
C215 C 0.09826 0.53169 0.92403 0.0
P216 P 0.11796 0.51692 0.42008 0.0
H217 H 0.22299 0.5672 0.43054 0.0
H218 H 0.28452 0.63793 0.44586 0.0
H219 H 0.17186 0.65212 0.45393 0.0
H220 H 0.10923 0.57986 0.43899 0.0
H221 H 0.08809 0.46845 0.45939 0.0
H222 H 1.00718 0.41046 0.47296 0.0
H223 H 0.93616 0.42788 0.42178 0.0
H224 H 1.01698 0.48595 0.40851 0.0
H225 H 0.11192 0.47403 0.37921 0.0
H226 H 0.10648 0.57351 0.39815 0.0
O227 O 0.1436 0.4934 0.42036 0.0
H228 H 0.10445 0.48372 0.34054 0.0
H229 H 0.09998 0.58393 0.35953 0.0
C230 C 0.16118 0.56778 0.43393 0.0
C231 C 0.21098 0.58494 0.43597 0.0
C232 C 0.24634 0.62561 0.44466 0.0
C233 C 0.23305 0.65057 0.45114 0.0
C234 C 0.18316 0.6336 0.44899 0.0
C235 C 0.14738 0.59231 0.44062 0.0
C236 C 1.05876 0.48152 0.43288 0.0
C237 C 1.05508 0.46035 0.45138 0.0
C238 C 1.00874 0.42684 0.45898 0.0
C239 C 0.965 0.41401 0.44831 0.0
C240 C 0.96894 0.43692 0.4305 0.0
C241 C 1.01534 0.47029 0.42285 0.0
C242 C 0.11086 0.52364 0.39161 0.0
C243 C 0.1095 0.49819 0.37508 0.0
C244 C 0.10543 0.50387 0.35293 0.0
C245 C 0.10212 0.53489 0.3469 0.0
C246 C 0.10224 0.55964 0.36359 0.0
C247 C 0.10641 0.55395 0.38573 0.0
P248 P 0.69092 0.06531 0.7456 0.0
H249 H 0.72366 0.13924 0.77295 0.0
H250 H 0.68164 0.16632 0.78589 0.0
H251 H 0.54291 0.054 0.75973 0.0
H252 H 0.58608 0.02822 0.74579 0.0
H253 H 0.75217 0.03955 0.74755 0.0
H254 H 0.74276 0.98208 0.76463 0.0
H255 H 0.5998 0.93687 0.78805 0.0
H256 H 0.6104 0.99541 0.77147 0.0
H257 H 0.71276 0.11764 0.709 0.0
H258 H 0.62721 0.98583 0.71934 0.0
O259 O 0.75124 0.10577 0.7469 0.0
H260 H 0.6847 0.1021 0.6705 0.0
H261 H 0.6 0.96999 0.68075 0.0
C262 C 0.65806 0.08173 0.75833 0.0
C263 C 0.68412 0.12022 0.77016 0.0
C264 C 0.65982 0.1356 0.77772 0.0
C265 C 0.60869 0.11259 0.77381 0.0
C266 C 0.5824 0.0731 0.76271 0.0
C267 C 0.60692 0.058 0.75493 0.0
C268 C 0.68251 0.02236 0.7586 0.0
C269 C 0.71895 0.01745 0.75652 0.0
C270 C 0.71324 0.9842 0.76611 0.0
C271 C 0.67053 0.95469 0.77782 0.0
C272 C 0.63358 0.95934 0.77952 0.0
C273 C 0.63949 0.9928 0.76996 0.0
C274 C 0.67258 0.05297 0.71695 0.0
C275 C 0.68856 0.08536 0.70286 0.0
C276 C 0.67269 0.07642 0.68081 0.0
C277 C 0.64021 0.03478 0.67245 0.0
C278 C 0.62465 1.00239 0.68666 0.0
C279 C 0.64048 0.01141 0.70874 0.0
P280 P 0.40844 0.27504 0.07829 0.0
H281 H 0.45572 0.24705 0.10272 0.0
H282 H 0.51868 0.28074 0.13237 0.0
H283 H 0.525 0.38949 0.13111 0.0
H284 H 0.4612 0.35509 0.10231 0.0
H285 H 0.33023 0.27306 0.05786 0.0
H286 H 0.27291 0.28154 0.07395 0.0
H287 H 0.30311 0.25822 0.13807 0.0
H288 H 0.36458 0.25441 0.12189 0.0
H289 H 0.46573 0.28549 0.0398 0.0
H290 H 0.41208 0.34694 0.06955 0.0
O291 O 0.39415 0.2296 0.06938 0.0
H292 H 0.50379 0.33633 0.01102 0.0
H293 H 0.44513 0.39485 0.04 0.0
C294 C 0.45454 0.29894 0.10007 0.0
C295 C 0.47064 0.27808 0.10893 0.0
C296 C 0.50661 0.29738 0.12587 0.0
C297 C 0.52693 0.33784 0.13419 0.0
C298 C 0.50968 0.35808 0.12546 0.0
C299 C 0.47369 0.3387 0.10868 0.0
C300 C 0.35411 0.26612 0.0889 0.0
C301 C 0.3245 0.26981 0.0754 0.0
C302 C 0.29084 0.27397 0.08471 0.0
C303 C 0.28444 0.27237 0.10766 0.0
C304 C 0.30883 0.262 0.12056 0.0
C305 C 0.34376 0.25936 0.11129 0.0
C306 C 0.43429 0.31125 0.05635 0.0
C307 C 0.46108 0.30929 0.03983 0.0
C308 C 0.48261 0.33836 0.02327 0.0
C309 C 0.47736 0.36983 0.02283 0.0
C310 C 0.45094 0.37178 0.03973 0.0
C311 C 0.43079 0.34354 0.05652 0.0
H312 H 0.14786 0.3696 0.10088 0.0
H313 H 0.2218 0.43584 0.1629 0.0
H314 H 0.24559 0.39097 0.16771 0.0
H315 H 0.10615 0.26407 0.11726 0.0
H316 H 0.1172 0.25254 0.0902 0.0
H317 H 0.09828 0.28461 0.0935 0.0
H318 H 0.17524 0.34336 0.07252 0.0
H319 H 0.19436 0.31162 0.0692 0.0
H320 H 0.23585 0.36325 0.08211 0.0
H321 H 0.27434 0.34919 0.16249 0.0
H322 H 0.30509 0.31303 0.14814 0.0
H323 H 0.20716 0.26836 0.09072 0.0
C324 C 0.16812 0.37398 0.11569 0.0
C325 C 0.18276 0.40601 0.13158 0.0
C326 C 0.20948 0.41103 0.15071 0.0
C327 C 0.22317 0.38569 0.15358 0.0
C328 C 0.20916 0.35504 0.13736 0.0
C329 C 0.18169 0.34868 0.11891 0.0
C330 C 0.17549 0.31635 0.10298 0.0
C331 C 0.12103 0.27706 0.10087 0.0
C332 C 0.19651 0.33477 0.08038 0.0
C333 C 0.2063 0.30745 0.11474 0.0
C334 C 0.22471 0.32961 0.13469 0.0
C335 C 0.25889 0.33056 0.14725 0.0
C336 C 0.2759 0.30941 0.13893 0.0
C337 C 0.25856 0.2872 0.1182 0.0
C338 C 0.22171 0.28506 0.1065 0.0
H339 H 0.76518 0.17354 0.47831 0.0
H340 H 0.65383 0.19078 0.47463 0.0
H341 H 0.71882 0.26562 0.4683 0.0
H342 H 0.86251 0.27517 0.50558 0.0
H343 H 0.91111 0.28164 0.49007 0.0
H344 H 0.85622 0.22993 0.49587 0.0
H345 H 0.84202 0.20938 0.45423 0.0
H346 H 0.89675 0.26099 0.4483 0.0
H347 H 0.83835 0.24047 0.43547 0.0
H348 H 0.79557 0.33815 0.46038 0.0
H349 H 0.87814 0.40261 0.45155 0.0
H350 H 0.93973 0.33839 0.45975 0.0
C351 C 0.75451 0.19317 0.47656 0.0
C352 C 0.70422 0.1761 0.47712 0.0
C353 C 0.69195 0.20291 0.47433 0.0
C354 C 0.72869 0.2456 0.47075 0.0
C355 C 0.77774 0.26126 0.46997 0.0
C356 C 0.79076 0.23591 0.47284 0.0
C357 C 0.84595 0.26022 0.47022 0.0
C358 C 0.87039 0.26183 0.49172 0.0
C359 C 0.85636 0.24166 0.45091 0.0
C360 C 0.86182 0.30305 0.46523 0.0
C361 C 0.82193 0.30301 0.46526 0.0
C362 C 0.82711 0.33857 0.46042 0.0
C363 C 0.87416 0.37502 0.4553 0.0
C364 C 0.91567 0.37582 0.45499 0.0
C365 C 0.90911 0.33921 0.46022 0.0
H366 H 0.70477 0.77994 0.79045 0.0
H367 H 0.63641 0.75502 0.85403 0.0
H368 H 0.62525 0.80804 0.84824 0.0
H369 H 0.77168 0.89113 0.7935 0.0
H370 H 0.7625 0.89414 0.76474 0.0
H371 H 0.76422 0.85364 0.77371 0.0
H372 H 0.67829 0.79733 0.75517 0.0
H373 H 0.67629 0.83766 0.74616 0.0
H374 H 0.62701 0.79629 0.76229 0.0
H375 H 0.62323 0.86513 0.83585 0.0
H376 H 0.63043 0.92169 0.81786 0.0
H377 H 0.69886 0.90859 0.76205 0.0
C378 C 0.68774 0.78579 0.80323 0.0
C379 C 0.6714 0.76315 0.8227 0.0
C380 C 0.64867 0.77148 0.83886 0.0
C381 C 0.64238 0.80172 0.83577 0.0
C382 C 0.65888 0.8234 0.8164 0.0
C383 C 0.68103 0.81579 0.80039 0.0
C384 C 0.69557 0.84349 0.78109 0.0
C385 C 0.75183 0.87231 0.77809 0.0
C386 C 0.66761 0.81711 0.75993 0.0
C387 C 0.67852 0.86812 0.78882 0.0
C388 C 0.65738 0.85602 0.80921 0.0
C389 C 0.63944 0.87466 0.81982 0.0
C390 C 0.64339 0.90662 0.80936 0.0
C391 C 0.66508 0.91973 0.78845 0.0
C392 C 0.68258 0.89982 0.77811 0.0
H393 H 0.80308 0.44911 0.16729 0.0
H394 H 0.79996 0.53889 0.20541 0.0
H395 H 0.70876 0.49 0.20336 0.0
H396 H 0.7194 0.42695 0.12945 0.0
H397 H 0.69023 0.37223 0.1249 0.0
H398 H 0.75314 0.40781 0.13481 0.0
H399 H 0.73108 0.36274 0.16843 0.0
H400 H 0.66775 0.32656 0.15863 0.0
H401 H 0.68188 0.35023 0.18599 0.0
H402 H 0.62025 0.43844 0.19103 0.0
H403 H 0.54337 0.39058 0.1688 0.0
H404 H 0.60575 0.33771 0.13617 0.0
C405 C 0.7832 0.45807 0.17571 0.0
C406 C 0.80865 0.49786 0.18647 0.0
C407 C 0.78132 0.50835 0.19734 0.0
C408 C 0.72944 0.48074 0.19623 0.0
C409 C 0.70556 0.44271 0.18435 0.0
C410 C 0.73166 0.43126 0.17441 0.0
C411 C 0.69847 0.39224 0.15968 0.0
C412 C 0.71637 0.40034 0.13581 0.0
C413 C 0.69453 0.35576 0.16874 0.0
C414 C 0.65018 0.38503 0.1617 0.0
C415 C 0.65457 0.41359 0.17656 0.0
C416 C 0.61617 0.41551 0.17964 0.0
C417 C 0.5728 0.38846 0.16676 0.0
C418 C 0.56854 0.36046 0.15063 0.0
C419 C 0.60727 0.35797 0.14867 0.0
H420 H 0.41309 0.90177 0.45251 0.0
H421 H 0.50119 0.89901 0.50188 0.0
H422 H 0.43909 0.82257 0.50242 0.0
H423 H 0.29148 0.81591 0.47362 0.0
H424 H 0.26359 0.79479 0.4466 0.0
H425 H 0.31336 0.85003 0.45089 0.0
H426 H 0.363 0.84628 0.42046 0.0
H427 H 0.31338 0.79112 0.41604 0.0
H428 H 0.375 0.80951 0.42235 0.0
H429 H 0.37078 0.74658 0.49655 0.0
H430 H 0.30038 0.67478 0.48385 0.0
H431 H 0.25438 0.72428 0.43827 0.0
C432 C 0.41895 0.88508 0.46361 0.0
C433 C 0.46222 0.90665 0.47717 0.0
C434 C 0.46867 0.88348 0.49126 0.0
C435 C 0.43339 0.8399 0.49178 0.0
C436 C 0.39153 0.81958 0.47814 0.0
C437 C 0.38397 0.84122 0.46428 0.0
C438 C 0.33665 0.81112 0.45057 0.0
C439 C 0.29904 0.81841 0.45574 0.0
C440 C 0.34769 0.81473 0.42589 0.0
C441 C 0.31936 0.76932 0.4587 0.0
C442 C 0.35157 0.77515 0.47471 0.0
C443 C 0.34506 0.74158 0.48415 0.0
C444 C 0.30504 0.70092 0.4768 0.0
C445 C 0.27181 0.69394 0.46018 0.0
C446 C 0.27871 0.72868 0.45127 0.0
H447 H 0.57286 0.26196 0.84261 0.0
H448 H 0.46152 0.22914 0.79373 0.0
H449 H 0.47027 0.17943 0.77537 0.0
H450 H 0.65173 0.26098 0.80597 0.0
H451 H 0.66898 0.23906 0.82496 0.0
H452 H 0.65147 0.26982 0.83518 0.0
H453 H 0.58396 0.20852 0.85862 0.0
H454 H 0.60136 0.17757 0.84851 0.0
H455 H 0.53824 0.15774 0.84548 0.0
H456 H 0.49557 0.13713 0.76075 0.0
H457 H 0.534 0.10444 0.7514 0.0
H458 H 0.62739 0.16317 0.81041 0.0
C459 C 0.55016 0.24423 0.82809 0.0
C460 C 0.51633 0.24944 0.81968 0.0
C461 C 0.48711 0.2253 0.80072 0.0
C462 C 0.49201 0.19712 0.79009 0.0
C463 C 0.52611 0.19316 0.79867 0.0
C464 C 0.55447 0.21586 0.81731 0.0
C465 C 0.5894 0.20666 0.8228 0.0
C466 C 0.6436 0.2465 0.82218 0.0
C467 C 0.57751 0.18641 0.84518 0.0
C468 C 0.57691 0.17582 0.80409 0.0
C469 C 0.54019 0.16834 0.7904 0.0
C470 C 0.52383 0.14227 0.77155 0.0
C471 C 0.54574 0.12353 0.76646 0.0
C472 C 0.58363 0.13072 0.7802 0.0
C473 C 0.59886 0.15704 0.7994 0.0
H474 H 0.65652 0.84581 0.49734 0.0
H475 H 0.60466 0.86589 0.55738 0.0
H476 H 0.59308 0.80592 0.57336 0.0
H477 H 0.57456 0.73124 0.49776 0.0
H478 H 0.62112 0.72814 0.48757 0.0
H479 H 0.62172 0.77062 0.48009 0.0
H480 H 0.71184 0.82406 0.49509 0.0
H481 H 0.71156 0.7818 0.50257 0.0
H482 H 0.7263 0.8212 0.52304 0.0
H483 H 0.59349 0.74781 0.58401 0.0
H484 H 0.60489 0.69458 0.58844 0.0
H485 H 0.656 0.71134 0.5216 0.0
C486 C 0.64252 0.8375 0.51382 0.0
C487 C 0.63128 0.86055 0.52606 0.0
C488 C 0.61275 0.84839 0.54752 0.0
C489 C 0.60624 0.81444 0.55678 0.0
C490 C 0.61813 0.79272 0.54436 0.0
C491 C 0.63566 0.80359 0.52331 0.0
C492 C 0.64753 0.77608 0.51384 0.0
C493 C 0.61424 0.74997 0.49362 0.0
C494 C 0.70258 0.80236 0.50832 0.0
C495 C 0.63501 0.74869 0.53306 0.0
C496 C 0.61786 0.75873 0.55045 0.0
C497 C 0.60635 0.73936 0.57043 0.0
C498 C 0.61308 0.70931 0.57282 0.0
C499 C 0.63104 0.69878 0.55533 0.0
C500 C 0.64141 0.71832 0.53509 0.0
H501 H 0.78086 0.56567 0.85643 0.0
H502 H 0.67039 0.43477 0.83621 0.0
H503 H 0.73354 0.42511 0.83752 0.0
H504 H 0.88271 0.58226 0.82565 0.0
H505 H 0.92885 0.61618 0.84677 0.0
H506 H 0.87529 0.61364 0.8438 0.0
H507 H 0.85477 0.59486 0.88455 0.0
H508 H 0.9082 0.59724 0.88762 0.0
H509 H 0.84794 0.55049 0.89429 0.0
H510 H 0.80868 0.42835 0.84178 0.0
H511 H 0.88901 0.4444 0.84889 0.0
H512 H 0.95362 0.57353 0.86564 0.0
C513 C 0.76998 0.53505 0.8521 0.0
C514 C 0.71982 0.50096 0.84629 0.0
C515 C 0.70785 0.46147 0.84093 0.0
C516 C 0.74377 0.4556 0.84154 0.0
C517 C 0.79239 0.48945 0.84753 0.0
C518 C 0.80572 0.5285 0.85269 0.0
C519 C 0.86072 0.55933 0.85895 0.0
C520 C 0.88854 0.59497 0.84283 0.0
C521 C 0.86835 0.57649 0.88277 0.0
C522 C 0.87594 0.53148 0.85661 0.0
C523 C 0.83586 0.49131 0.84993 0.0
C524 C 0.84036 0.45986 0.84688 0.0
C525 C 0.88665 0.46945 0.85082 0.0
C526 C 0.9288 0.51036 0.85782 0.0
C527 C 0.92273 0.54172 0.86059 0.0
H528 H 0.2359 0.73258 0.18152 0.0
H529 H 0.25886 0.6963 0.11799 0.0
H530 H 0.33792 0.76725 0.11508 0.0
H531 H 0.29021 0.83956 0.16915 0.0
H532 H 0.31921 0.86088 0.19597 0.0
H533 H 0.26298 0.80774 0.19279 0.0
H534 H 0.30577 0.78136 0.21114 0.0
H535 H 0.36197 0.83441 0.21451 0.0
H536 H 0.36253 0.79546 0.20016 0.0
H537 H 0.4147 0.84186 0.11892 0.0
H538 H 0.48706 0.91356 0.13051 0.0
H539 H 0.41721 0.90135 0.19238 0.0
C540 C 0.25745 0.73968 0.16695 0.0
C541 C 0.24103 0.70878 0.14996 0.0
C542 C 0.27066 0.71924 0.13128 0.0
C543 C 0.31556 0.7596 0.1294 0.0
C544 C 0.33073 0.78928 0.1464 0.0
C545 C 0.30286 0.77981 0.16491 0.0
C546 C 0.32904 0.81704 0.18126 0.0
C547 C 0.29853 0.8322 0.18501 0.0
C548 C 0.34051 0.80643 0.20305 0.0
C549 C 0.37597 0.84875 0.16906 0.0
C550 C 0.37586 0.83216 0.14889 0.0
C551 C 0.4153 0.85514 0.13473 0.0
C552 C 0.45641 0.89585 0.14153 0.0
C553 C 0.45827 0.91329 0.16244 0.0
C554 C 0.41692 0.88938 0.17619 0.0
H555 H 0.52659 0.22943 0.51462 0.0
H556 H 0.54034 0.24739 0.4444 0.0
H557 H 0.55893 0.31594 0.45078 0.0
H558 H 0.46973 0.27826 0.52666 0.0
H559 H 0.50315 0.30211 0.55245 0.0
H560 H 0.48877 0.2537 0.54226 0.0
H561 H 0.58159 0.28738 0.54476 0.0
H562 H 0.59621 0.3358 0.55502 0.0
H563 H 0.62602 0.33506 0.53092 0.0
H564 H 0.57739 0.38315 0.46497 0.0
H565 H 0.59789 0.44513 0.48589 0.0
H566 H 0.57429 0.38395 0.54695 0.0
C567 C 0.53287 0.24756 0.50057 0.0
C568 C 0.5318 0.233 0.47899 0.0
C569 C 0.54125 0.25804 0.46107 0.0
C570 C 0.55154 0.29688 0.46453 0.0
C571 C 0.55244 0.31035 0.48602 0.0
C572 C 0.54357 0.28652 0.50375 0.0
C573 C 0.54889 0.30896 0.52526 0.0
C574 C 0.4997 0.28428 0.53737 0.0
C575 C 0.59067 0.3173 0.53984 0.0
C576 C 0.56235 0.34922 0.51689 0.0
C577 C 0.56387 0.34929 0.4942 0.0
C578 C 0.57634 0.38343 0.48275 0.0
C579 C 0.58819 0.41861 0.49479 0.0
C580 C 0.58781 0.41961 0.51811 0.0
C581 C 0.57417 0.38408 0.52917 0.0
H582 H 0.42354 0.46486 0.86786 0.0
H583 H 0.5141 0.56541 0.82306 0.0
H584 H 0.4515 0.57559 0.82143 0.0
H585 H 0.30339 0.42318 0.84312 0.0
H586 H 0.27295 0.41232 0.86901 0.0
H587 H 0.32393 0.41117 0.8664 0.0
H588 H 0.36964 0.46519 0.89907 0.0
H589 H 0.31882 0.46652 0.90176 0.0
H590 H 0.3805 0.51427 0.89816 0.0
H591 H 0.38009 0.57643 0.82443 0.0
H592 H 0.30595 0.56939 0.83283 0.0
H593 H 0.2581 0.46913 0.87632 0.0
C594 C 0.42998 0.48876 0.85757 0.0
C595 C 0.47439 0.51416 0.8455 0.0
C596 C 0.48104 0.54541 0.83252 0.0
C597 C 0.44539 0.55148 0.83142 0.0
C598 C 0.40255 0.52636 0.8435 0.0
C599 C 0.39455 0.49569 0.85643 0.0
C600 C 0.34549 0.47412 0.86822 0.0
C601 C 0.30929 0.42741 0.86127 0.0
C602 C 0.35414 0.4804 0.89329 0.0
C603 C 0.32747 0.49747 0.85985 0.0
C604 C 0.3611 0.52727 0.84549 0.0
C605 C 0.35336 0.55296 0.83555 0.0
C606 C 0.31047 0.54837 0.84033 0.0
C607 C 0.27482 0.51826 0.85505 0.0
C608 C 0.28405 0.49254 0.86498 0.0
H609 H 0.98866 0.42422 0.14677 0.0
H610 H 0.91963 0.48056 0.16403 0.0
H611 H 0.84209 0.41085 0.17156 0.0
H612 H 0.87905 0.32775 0.12056 0.0
H613 H 0.89359 0.29592 0.13111 0.0
H614 H 0.94256 0.34994 0.12566 0.0
H615 H 0.97553 0.36328 0.16578 0.0
H616 H 0.92663 0.30941 0.1714 0.0
H617 H 0.93464 0.3505 0.18816 0.0
H618 H 0.77339 0.33498 0.1797 0.0
H619 H 0.71934 0.25979 0.18718 0.0
H620 H 0.83267 0.25283 0.16388 0.0
C621 C 0.95713 0.42198 0.15184 0.0
C622 C 0.9605 0.45815 0.15469 0.0
C623 C 0.91822 0.45353 0.1616 0.0
C624 C 0.87387 0.41395 0.16594 0.0
C625 C 0.87211 0.37909 0.16325 0.0
C626 C 0.91258 0.38273 0.15626 0.0
C627 C 0.90166 0.34062 0.15544 0.0
C628 C 0.90437 0.32781 0.13178 0.0
C629 C 0.93669 0.34099 0.17113 0.0
C630 C 0.84903 0.31282 0.16342 0.0
C631 C 0.83251 0.33552 0.16773 0.0
C632 C 0.78567 0.3168 0.17603 0.0
C633 C 0.75508 0.27391 0.18014 0.0
C634 C 0.77138 0.25 0.17608 0.0
C635 C 0.81896 0.27 0.16735 0.0
H636 H 0.07869 0.54584 0.08442 0.0
H637 H 0.15084 0.67858 0.08952 0.0
H638 H 0.17455 0.68517 0.05074 0.0
H639 H 0.16757 0.55348 0.04711 0.0
H640 H 0.1205 0.50595 0.03165 0.0
H641 H 0.11194 0.51197 0.06031 0.0
H642 H 1.02908 0.49642 0.0504 0.0
H643 H 1.03746 0.49055 0.02173 0.0
H644 H 1.02813 0.52758 0.03057 0.0
H645 H 0.1869 0.67732 0.01136 0.0
H646 H 0.18645 0.65546 0.97316 0.0
H647 H 0.10664 0.52745 0.99264 0.0
C648 C 0.10002 0.57632 0.0774 0.0
C649 C 0.11308 0.61177 0.08995 0.0
C650 C 0.1404 0.65104 0.08017 0.0
C651 C 0.15418 0.65513 0.05818 0.0
C652 C 0.14034 0.61962 0.04614 0.0
C653 C 0.11391 0.58093 0.05532 0.0
C654 C 0.10203 0.54756 0.03833 0.0
C655 C 0.127 0.52862 0.04473 0.0
C656 C 1.04584 0.51353 0.03507 0.0
C657 C 0.12508 0.57347 0.01811 0.0
C658 C 0.14738 0.61501 0.02314 0.0
C659 C 0.17009 0.64497 0.00724 0.0
C660 C 0.1699 0.63223 0.98557 0.0
C661 C 0.14705 0.58979 0.97982 0.0
C662 C 0.12444 0.56011 0.99644 0.0
H663 H 0.67263 0.0879 0.4066 0.0
H664 H 0.51515 1.00722 0.41821 0.0
H665 H 0.49867 1.00751 0.37874 0.0
H666 H 0.67251 0.15007 0.36462 0.0
H667 H 0.71887 0.15363 0.3487 0.0
H668 H 0.71832 0.14947 0.3781 0.0
H669 H 0.71424 0.08431 0.37286 0.0
H670 H 0.71479 0.08826 0.3435 0.0
H671 H 0.66551 0.04029 0.35584 0.0
H672 H 0.49919 0.0122 0.33764 0.0
H673 H 0.51671 0.02185 0.29796 0.0
H674 H 0.67389 0.10018 0.31324 0.0
C675 C 0.63472 0.0707 0.40086 0.0
C676 C 0.59511 0.0475 0.41539 0.0
C677 C 0.546 0.02521 0.40731 0.0
C678 C 0.53631 0.02526 0.38495 0.0
C679 C 0.57618 0.04801 0.37096 0.0
C680 C 0.62443 0.07052 0.37861 0.0
C681 C 0.66049 0.09094 0.36002 0.0
C682 C 0.69455 0.13887 0.36305 0.0
C683 C 0.6905 0.07498 0.35794 0.0
C684 C 0.62494 0.07568 0.34064 0.0
C685 C 0.5765 0.05114 0.34731 0.0
C686 C 0.53699 0.03174 0.33225 0.0
C687 C 0.54726 0.03724 0.30977 0.0
C688 C 0.59662 0.06197 0.30257 0.0
C689 C 0.63586 0.08181 0.31829 0.0
H690 H 0.58485 0.45215 0.7661 0.0
H691 H 0.60065 0.55909 0.79351 0.0
H692 H 0.6169 0.58765 0.75647 0.0
H693 H 0.68142 0.50888 0.72589 0.0
H694 H 0.64826 0.46674 0.70529 0.0
H695 H 0.63901 0.45547 0.73403 0.0
H696 H 0.54482 0.41436 0.72813 0.0
H697 H 0.55379 0.42568 0.6994 0.0
H698 H 0.52281 0.43979 0.71612 0.0
H699 H 0.62683 0.60228 0.7162 0.0
H700 H 0.63579 0.60483 0.67584 0.0
H701 H 0.61608 0.48931 0.67474 0.0
C702 C 0.59216 0.48175 0.76425 0.0
C703 C 0.59251 0.50399 0.78259 0.0
C704 C 0.60182 0.5424 0.77969 0.0
C705 C 0.61049 0.55853 0.75871 0.0
C706 C 0.60996 0.53587 0.7409 0.0
C707 C 0.60151 0.49851 0.74347 0.0
C708 C 0.60316 0.48042 0.72167 0.0
C709 C 0.64549 0.47774 0.72173 0.0
C710 C 0.55316 0.43753 0.716 0.0
C711 C 0.61333 0.51322 0.70637 0.0
C712 C 0.61677 0.54477 0.71777 0.0
C713 C 0.62453 0.57789 0.70712 0.0
C714 C 0.62927 0.57895 0.68422 0.0
C715 C 0.62666 0.5473 0.67226 0.0
C716 C 0.61866 0.51409 0.68354 0.0
H717 H 0.64173 0.0762 0.54444 0.0
H718 H 0.48449 0.97218 0.54293 0.0
H719 H 0.49032 0.95813 0.58127 0.0
H720 H 0.67897 0.02874 0.58042 0.0
H721 H 0.72541 0.07759 0.59508 0.0
H722 H 0.71015 0.07733 0.56675 0.0
H723 H 0.6913 0.12776 0.57751 0.0
H724 H 0.70628 0.12806 0.60585 0.0
H725 H 0.64686 0.11346 0.59843 0.0
H726 H 0.51106 0.95792 0.62016 0.0
H727 H 0.54555 0.97213 0.65777 0.0
H728 H 0.68984 0.07631 0.63498 0.0
C729 C 0.60881 0.05015 0.55215 0.0
C730 C 0.56264 0.02525 0.54077 0.0
C731 C 0.52018 0.99172 0.5514 0.0
C732 C 0.52312 0.98336 0.57315 0.0
C733 C 0.56884 0.00884 0.5841 0.0
C734 C 0.61101 0.04152 0.57404 0.0
C735 C 0.65485 0.06545 0.5901 0.0
C736 C 0.69471 0.06206 0.58264 0.0
C737 C 0.67605 0.1114 0.59315 0.0
C738 C 0.63034 0.04168 0.6108 0.0
C739 C 0.58086 0.00886 0.60684 0.0
C740 C 0.54993 0.98319 0.62345 0.0
C741 C 0.56998 0.9914 0.64477 0.0
C742 C 0.62052 0.02513 0.6494 0.0
C743 C 0.65104 0.05036 0.63204 0.0
H744 H 0.56444 0.44919 0.90096 0.0
H745 H 0.5903 0.56349 0.92224 0.0
H746 H 0.56569 0.53751 0.9598 0.0
H747 H 0.45366 0.381 0.93237 0.0
H748 H 0.46659 0.34574 0.938 0.0
H749 H 0.48825 0.37438 0.91318 0.0
H750 H 0.57761 0.40433 0.92356 0.0
H751 H 0.55644 0.37621 0.94856 0.0
H752 H 0.60457 0.4321 0.9497 0.0
H753 H 0.54269 0.50036 0.99536 0.0
H754 H 0.51332 0.45201 0.02538 0.0
H755 H 0.49154 0.35775 0.97936 0.0
C756 C 0.56419 0.46841 0.91336 0.0
C757 C 0.57899 0.50815 0.90863 0.0
C758 C 0.579 0.53284 0.92551 0.0
C759 C 0.56523 0.51841 0.94689 0.0
C760 C 0.55077 0.47895 0.95097 0.0
C761 C 0.5493 0.45398 0.93458 0.0
C762 C 0.53025 0.41206 0.943 0.0
C763 C 0.48181 0.37618 0.93092 0.0
C764 C 0.56958 0.40583 0.94109 0.0
C765 C 0.52163 0.41747 0.96679 0.0
C766 C 0.53441 0.4565 0.9711 0.0
C767 C 0.53156 0.46937 0.99208 0.0
C768 C 0.51429 0.44134 0.00903 0.0
C769 C 0.49883 0.40032 0.00489 0.0
C770 C 0.50312 0.38868 0.98338 0.0
H771 H 0.16611 0.55401 0.21918 0.0
H772 H 1.05897 0.57395 0.20828 0.0
H773 H 1.0431 0.56953 0.24805 0.0
H774 H 0.09847 0.47822 0.2603 0.0
H775 H 0.15251 0.49633 0.27647 0.0
H776 H 0.15697 0.50295 0.24724 0.0
H777 H 0.22655 0.58267 0.25379 0.0
H778 H 0.22245 0.57626 0.28304 0.0
H779 H 0.21573 0.61238 0.27143 0.0
H780 H 1.03786 0.56145 0.28895 0.0
H781 H 1.0431 0.54999 0.32802 0.0
H782 H 0.15336 0.53459 0.31239 0.0
C783 C 0.13962 0.55777 0.22524 0.0
C784 C 0.11459 0.56549 0.21077 0.0
C785 C 0.07973 0.56962 0.2192 0.0
C786 C 0.07013 0.56665 0.24174 0.0
C787 C 0.09561 0.55929 0.25562 0.0
C788 C 0.12962 0.55485 0.24772 0.0
C789 C 0.15126 0.54631 0.2661 0.0
C790 C 0.13906 0.5034 0.2623 0.0
C791 C 0.20732 0.58151 0.26874 0.0
C792 C 0.12395 0.54647 0.28554 0.0
C793 C 0.0921 0.55409 0.27914 0.0
C794 C 1.06282 0.55563 0.29418 0.0
C795 C 0.06625 0.5493 0.31636 0.0
C796 C 0.09868 0.54145 0.32332 0.0
C797 C 0.1278 0.54004 0.30759 0.0
loop_
_geom_bond_atom_site_label_1
_geom_bond_atom_site_label_2
_geom_bond_distance
_geom_bond_site_symmetry_2
_ccdc_geom_bond_type
Sm0 C2 2.846 . S
Sm0 O20 2.543 . S
Sm0 O21 2.450 . S
Sm0 O22 2.681 . S
Sm0 O23 2.464 . S
Sm0 O24 2.396 . S
Sm0 O28 2.386 . S
Sm0 O31 2.408 1_455 S
Sm1 C11 2.846 . S
Sm1 O22 2.386 1_655 S
Sm1 O25 2.408 1_655 S
Sm1 O26 2.543 . S
Sm1 O27 2.450 . S
Sm1 O28 2.681 1_655 S
Sm1 O29 2.464 . S
Sm1 O30 2.396 . S
C2 Sm0 2.846 . S
C2 C3 1.506 . S
C2 O20 1.261 . S
C2 O21 1.242 . S
C3 C2 1.506 . S
C3 C4 1.358 . S
C3 C8 1.382 . S
C4 C3 1.358 . S
C4 C5 1.385 . S
C4 H32 0.930 . S
C5 C4 1.385 . S
C5 C6 1.395 . S
C5 H33 0.929 . S
C6 C5 1.395 . S
C6 C7 1.335 . S
C7 C6 1.335 . S
C7 C8 1.398 . S
C7 H34 0.930 . S
C8 C3 1.382 . S
C8 C7 1.398 . S
C8 H35 0.929 . S
C9 O22 1.271 . S
C9 O23 1.251 . S
C10 O24 1.252 . S
C10 O25 1.272 . S
C11 Sm1 2.846 . S
C11 C12 1.506 . S
C11 O26 1.261 . S
C11 O27 1.242 . S
C12 C11 1.506 . S
C12 C13 1.358 . S
C12 C17 1.382 . S
C13 C12 1.358 . S
C13 C14 1.385 . S
C13 H36 0.930 . S
C14 C13 1.385 . S
C14 C15 1.395 . S
C14 H37 0.929 . S
C15 C14 1.395 . S
C15 C16 1.335 . S
C16 C15 1.335 . S
C16 C17 1.398 . S
C16 H38 0.930 . S
C17 C12 1.382 . S
C17 C16 1.398 . S
C17 H39 0.929 . S
C18 O28 1.271 . S
C18 O29 1.251 1_455 S
C19 O30 1.252 . S
C19 O31 1.272 . S
O20 Sm0 2.543 . S
O20 C2 1.261 . S
O21 Sm0 2.450 . S
O21 C2 1.242 . S
O22 Sm0 2.681 . S
O22 Sm1 2.386 1_455 S
O22 C9 1.271 . S
O23 Sm0 2.464 . S
O23 C9 1.251 . S
O24 Sm0 2.396 . S
O24 C10 1.252 . S
O25 Sm1 2.408 1_455 S
O25 C10 1.272 . S
O26 Sm1 2.543 . S
O26 C11 1.261 . S
O27 Sm1 2.450 . S
O27 C11 1.242 . S
O28 Sm0 2.386 . S
O28 Sm1 2.681 1_455 S
O28 C18 1.271 . S
O29 Sm1 2.464 . S
O29 C18 1.251 1_655 S
O30 Sm1 2.396 . S
O30 C19 1.252 . S
O31 Sm0 2.408 1_655 S
O31 C19 1.272 . S
H32 C4 0.930 . S
H33 C5 0.929 . S
H34 C7 0.930 . S
H35 C8 0.929 . S
H36 C13 0.930 . S
H37 C14 0.929 . S
H38 C16 0.930 . S
H39 C17 0.929 . S
Sm40 C42 2.846 . S
Sm40 O60 2.543 . S
Sm40 O61 2.450 . S
Sm40 O62 2.681 1_565 S
Sm40 O63 2.464 . S
Sm40 O64 2.396 . S
Sm40 O68 2.386 . S
Sm40 O71 2.408 1_565 S
Sm41 C51 2.846 . S
Sm41 O62 2.386 . S
Sm41 O65 2.408 1_545 S
Sm41 O66 2.543 . S
Sm41 O67 2.450 . S
Sm41 O68 2.681 1_545 S
Sm41 O69 2.464 . S
Sm41 O70 2.396 . S
C42 Sm40 2.846 . S
C42 C43 1.506 . S
C42 O60 1.261 . S
C42 O61 1.242 . S
C43 C42 1.506 . S
C43 C44 1.358 . S
C43 C48 1.382 . S
C44 C43 1.358 . S
C44 C45 1.385 . S
C44 H72 0.930 . S
C45 C44 1.385 . S
C45 C46 1.395 . S
C45 H73 0.929 . S
C46 C45 1.395 . S
C46 C47 1.335 . S
C47 C46 1.335 . S
C47 C48 1.398 . S
C47 H74 0.930 . S
C48 C43 1.382 . S
C48 C47 1.398 . S
C48 H75 0.929 . S
C49 O62 1.271 . S
C49 O63 1.251 1_545 S
C50 O64 1.252 . S
C50 O65 1.272 . S
C51 Sm41 2.846 . S
C51 C52 1.506 . S
C51 O66 1.261 . S
C51 O67 1.242 . S
C52 C51 1.506 . S
C52 C53 1.358 . S
C52 C57 1.382 . S
C53 C52 1.358 . S
C53 C54 1.385 . S
C53 H76 0.930 . S
C54 C53 1.385 . S
C54 C55 1.395 . S
C54 H77 0.929 . S
C55 C54 1.395 . S
C55 C56 1.335 . S
C56 C55 1.335 . S
C56 C57 1.398 . S
C56 H78 0.930 . S
C57 C52 1.382 . S
C57 C56 1.398 . S
C57 H79 0.929 . S
C58 O68 1.271 1_545 S
C58 O69 1.251 . S
C59 O70 1.252 . S
C59 O71 1.272 . S
O60 Sm40 2.543 . S
O60 C42 1.261 . S
O61 Sm40 2.450 . S
O61 C42 1.242 . S
O62 Sm40 2.681 1_545 S
O62 Sm41 2.386 . S
O62 C49 1.271 . S
O63 Sm40 2.464 . S
O63 C49 1.251 1_565 S
O64 Sm40 2.396 . S
O64 C50 1.252 . S
O65 Sm41 2.408 1_565 S
O65 C50 1.272 . S
O66 Sm41 2.543 . S
O66 C51 1.261 . S
O67 Sm41 2.450 . S
O67 C51 1.242 . S
O68 Sm40 2.386 . S
O68 Sm41 2.681 1_565 S
O68 C58 1.271 1_565 S
O69 Sm41 2.464 . S
O69 C58 1.251 . S
O70 Sm41 2.396 . S
O70 C59 1.252 . S
O71 Sm40 2.408 1_545 S
O71 C59 1.272 . S
H72 C44 0.930 . S
H73 C45 0.929 . S
H74 C47 0.930 . S
H75 C48 0.929 . S
H76 C53 0.930 . S
H77 C54 0.929 . S
H78 C56 0.930 . S
H79 C57 0.929 . S
Sm80 C82 2.846 . S
Sm80 O100 2.543 . S
Sm80 O101 2.450 . S
Sm80 O102 2.681 . S
Sm80 O103 2.464 . S
Sm80 O104 2.396 . S
Sm80 O108 2.386 . S
Sm80 O111 2.408 . S
Sm81 C91 2.846 . S
Sm81 O102 2.386 . S
Sm81 O105 2.408 . S
Sm81 O106 2.543 . S
Sm81 O107 2.450 . S
Sm81 O108 2.681 . S
Sm81 O109 2.464 . S
Sm81 O110 2.396 . S
C82 Sm80 2.846 . S
C82 C83 1.506 . S
C82 O100 1.261 . S
C82 O101 1.242 . S
C83 C82 1.506 . S
C83 C84 1.358 . S
C83 C88 1.382 . S
C84 C83 1.358 . S
C84 C85 1.385 . S
C84 H112 0.930 . S
C85 C84 1.385 . S
C85 C86 1.395 . S
C85 H113 0.929 . S
C86 C85 1.395 . S
C86 C87 1.335 . S
C87 C86 1.335 . S
C87 C88 1.398 . S
C87 H114 0.930 . S
C88 C83 1.382 . S
C88 C87 1.398 . S
C88 H115 0.929 . S
C89 O102 1.271 . S
C89 O103 1.251 . S
C90 O104 1.252 . S
C90 O105 1.272 . S
C91 Sm81 2.846 . S
C91 C92 1.506 . S
C91 O106 1.261 . S
C91 O107 1.242 . S
C92 C91 1.506 . S
C92 C93 1.358 . S
C92 C97 1.382 . S
C93 C92 1.358 . S
C93 C94 1.385 . S
C93 H116 0.930 . S
C94 C93 1.385 . S
C94 C95 1.395 . S
C94 H117 0.929 . S
C95 C94 1.395 . S
C95 C96 1.335 . S
C96 C95 1.335 . S
C96 C97 1.398 . S
C96 H118 0.930 . S
C97 C92 1.382 . S
C97 C96 1.398 . S
C97 H119 0.929 . S
C98 O108 1.271 . S
C98 O109 1.251 . S
C99 O110 1.252 . S
C99 O111 1.272 . S
O100 Sm80 2.543 . S
O100 C82 1.261 . S
O101 Sm80 2.450 . S
O101 C82 1.242 . S
O102 Sm80 2.681 . S
O102 Sm81 2.386 . S
O102 C89 1.271 . S
O103 Sm80 2.464 . S
O103 C89 1.251 . S
O104 Sm80 2.396 . S
O104 C90 1.252 . S
O105 Sm81 2.408 . S
O105 C90 1.272 . S
O106 Sm81 2.543 . S
O106 C91 1.261 . S
O107 Sm81 2.450 . S
O107 C91 1.242 . S
O108 Sm80 2.386 . S
O108 Sm81 2.681 . S
O108 C98 1.271 . S
O109 Sm81 2.464 . S
O109 C98 1.251 . S
O110 Sm81 2.396 . S
O110 C99 1.252 . S
O111 Sm80 2.408 . S
O111 C99 1.272 . S
H112 C84 0.930 . S
H113 C85 0.929 . S
H114 C87 0.930 . S
H115 C88 0.929 . S
H116 C93 0.930 . S
H117 C94 0.929 . S
H118 C96 0.930 . S
H119 C97 0.929 . S
P120 O131 1.491 . S
P120 C134 1.812 . S
P120 C140 1.802 1_565 S
P120 C146 1.818 1_565 S
H121 C135 0.941 . S
H122 C136 0.939 . S
H123 C138 0.940 . S
H124 C139 0.940 . S
H125 C141 0.939 . S
H126 C142 0.942 . S
H127 C144 0.940 . S
H128 C145 0.939 . S
H129 C147 0.941 . S
H130 C151 0.939 . S
O131 P120 1.491 . S
H132 C148 0.939 . S
H133 C150 0.940 . S
C134 P120 1.812 . S
C134 C135 1.389 . S
C134 C139 1.391 . S
C135 H121 0.941 . S
C135 C134 1.389 . S
C135 C136 1.397 . S
C136 H122 0.939 . S
C136 C135 1.397 . S
C136 C137 1.378 . S
C137 C136 1.378 . S
C137 C138 1.378 . S
C138 H123 0.940 . S
C138 C137 1.378 . S
C138 C139 1.396 . S
C139 H124 0.940 . S
C139 C134 1.391 . S
C139 C138 1.396 . S
C140 P120 1.802 1_545 S
C140 C141 1.378 . S
C140 C145 1.400 . S
C141 H125 0.939 . S
C141 C140 1.378 . S
C141 C142 1.361 . S
C142 H126 0.942 . S
C142 C141 1.361 . S
C142 C143 1.369 . S
C143 C142 1.369 . S
C143 C144 1.404 . S
C144 H127 0.940 . S
C144 C143 1.404 . S
C144 C145 1.389 . S
C145 H128 0.939 . S
C145 C140 1.400 . S
C145 C144 1.389 . S
C146 P120 1.818 1_545 S
C146 C147 1.391 1_545 S
C146 C151 1.391 . S
C147 H129 0.941 . S
C147 C146 1.391 1_565 S
C147 C148 1.396 . S
C148 H132 0.939 . S
C148 C147 1.396 . S
C148 C149 1.397 1_565 S
C149 C148 1.397 1_545 S
C149 C150 1.385 . S
C150 H133 0.940 . S
C150 C149 1.385 . S
C150 C151 1.388 . S
C151 H130 0.939 . S
C151 C146 1.391 . S
C151 C150 1.388 . S
P152 O163 1.490 . S
P152 C166 1.812 . S
P152 C172 1.803 . S
P152 C178 1.819 . S
H153 C167 0.941 . S
H154 C168 0.939 . S
H155 C170 0.940 . S
H156 C171 0.940 . S
H157 C173 0.939 . S
H158 C174 0.942 . S
H159 C176 0.940 . S
H160 C177 0.939 . S
H161 C179 0.941 . S
H162 C183 0.939 . S
O163 P152 1.490 . S
H164 C180 0.939 . S
H165 C182 0.940 . S
C166 P152 1.812 . S
C166 C167 1.389 . S
C166 C171 1.391 . S
C167 H153 0.941 . S
C167 C166 1.389 . S
C167 C168 1.397 . S
C168 H154 0.939 . S
C168 C167 1.397 . S
C168 C169 1.378 . S
C169 C168 1.378 . S
C169 C170 1.378 . S
C170 H155 0.940 . S
C170 C169 1.378 . S
C170 C171 1.396 . S
C171 H156 0.940 . S
C171 C166 1.391 . S
C171 C170 1.396 . S
C172 P152 1.803 . S
C172 C173 1.378 . S
C172 C177 1.400 . S
C173 H157 0.939 . S
C173 C172 1.378 . S
C173 C174 1.361 . S
C174 H158 0.942 . S
C174 C173 1.361 . S
C174 C175 1.369 . S
C175 C174 1.369 . S
C175 C176 1.404 . S
C176 H159 0.940 . S
C176 C175 1.404 . S
C176 C177 1.389 . S
C177 H160 0.939 . S
C177 C172 1.400 . S
C177 C176 1.389 . S
C178 P152 1.819 . S
C178 C179 1.391 . S
C178 C183 1.391 . S
C179 H161 0.941 . S
C179 C178 1.391 . S
C179 C180 1.396 . S
C180 H164 0.939 . S
C180 C179 1.396 . S
C180 C181 1.397 . S
C181 C180 1.397 . S
C181 C182 1.385 . S
C182 H165 0.940 . S
C182 C181 1.385 . S
C182 C183 1.388 . S
C183 H162 0.939 . S
C183 C178 1.391 . S
C183 C182 1.388 . S
P184 O195 1.490 . S
P184 C198 1.812 . S
P184 C204 1.803 . S
P184 C210 1.819 . S
H185 C199 0.941 . S
H186 C200 0.939 . S
H187 C202 0.940 . S
H188 C203 0.940 . S
H189 C205 0.939 . S
H190 C206 0.942 . S
H191 C208 0.940 . S
H192 C209 0.939 . S
H193 C211 0.941 . S
H194 C215 0.927 1_655 S
O195 P184 1.490 . S
H196 C212 0.939 . S
H197 C214 0.940 1_655 S
C198 P184 1.812 . S
C198 C199 1.389 . S
C198 C203 1.391 . S
C199 H185 0.941 . S
C199 C198 1.389 . S
C199 C200 1.397 . S
C200 H186 0.939 . S
C200 C199 1.397 . S
C200 C201 1.378 . S
C201 C200 1.378 . S
C201 C202 1.378 . S
C202 H187 0.940 . S
C202 C201 1.378 . S
C202 C203 1.396 . S
C203 H188 0.940 . S
C203 C198 1.391 . S
C203 C202 1.396 . S
C204 P184 1.803 . S
C204 C205 1.378 . S
C204 C209 1.400 . S
C205 H189 0.939 . S
C205 C204 1.378 . S
C205 C206 1.361 1_455 S
C206 H190 0.942 . S
C206 C205 1.361 1_655 S
C206 C207 1.369 . S
C207 C206 1.369 . S
C207 C208 1.404 . S
C208 H191 0.940 . S
C208 C207 1.404 . S
C208 C209 1.389 1_655 S
C209 H192 0.939 . S
C209 C204 1.400 . S
C209 C208 1.389 1_455 S
C210 P184 1.819 . S
C210 C211 1.391 . S
C210 C215 1.391 . S
C211 H193 0.941 . S
C211 C210 1.391 . S
C211 C212 1.396 . S
C212 H196 0.939 . S
C212 C211 1.396 . S
C212 C213 1.397 . S
C213 C212 1.397 . S
C213 C214 1.385 . S
C214 H197 0.940 1_455 S
C214 C213 1.385 . S
C214 C215 1.388 . S
C215 H194 0.927 1_455 S
C215 C210 1.391 . S
C215 C214 1.388 . S
P216 O227 1.490 . S
P216 C230 1.812 . S
P216 C236 1.803 1_455 S
P216 C242 1.819 . S
H217 C231 0.941 . S
H218 C232 0.939 . S
H219 C234 0.940 . S
H220 C235 0.940 . S
H221 C237 0.939 . S
H222 C238 0.942 . S
H223 C240 0.940 . S
H224 C241 0.939 . S
H225 C243 0.941 . S
H226 C247 0.939 . S
O227 P216 1.490 . S
H228 C244 0.939 . S
H229 C246 0.940 . S
C230 P216 1.812 . S
C230 C231 1.389 . S
C230 C235 1.391 . S
C231 H217 0.941 . S
C231 C230 1.389 . S
C231 C232 1.397 . S
C232 H218 0.939 . S
C232 C231 1.397 . S
C232 C233 1.378 . S
C233 C232 1.378 . S
C233 C234 1.378 . S
C234 H219 0.940 . S
C234 C233 1.378 . S
C234 C235 1.396 . S
C235 H220 0.940 . S
C235 C230 1.391 . S
C235 C234 1.396 . S
C236 P216 1.803 1_655 S
C236 C237 1.378 . S
C236 C241 1.400 . S
C237 H221 0.939 . S
C237 C236 1.378 . S
C237 C238 1.361 . S
C238 H222 0.942 . S
C238 C237 1.361 . S
C238 C239 1.369 . S
C239 C238 1.369 . S
C239 C240 1.404 . S
C240 H223 0.940 . S
C240 C239 1.404 . S
C240 C241 1.389 . S
C241 H224 0.939 . S
C241 C236 1.400 . S
C241 C240 1.389 . S
C242 P216 1.819 . S
C242 C243 1.391 . S
C242 C247 1.391 1_455 S
C243 H225 0.941 . S
C243 C242 1.391 . S
C243 C244 1.396 . S
C244 H228 0.939 . S
C244 C243 1.396 . S
C244 C245 1.397 . S
C245 C244 1.397 . S
C245 C246 1.385 1_455 S
C246 H229 0.940 . S
C246 C245 1.385 1_655 S
C246 C247 1.388 . S
C247 H226 0.939 . S
C247 C242 1.391 1_655 S
C247 C246 1.388 . S
P248 O259 1.490 . S
P248 C262 1.812 . S
P248 C268 1.803 1_545 S
P248 C274 1.819 . S
H249 C263 0.941 . S
H250 C264 0.939 . S
H251 C266 0.940 . S
H252 C267 0.940 . S
H253 C269 0.939 . S
H254 C270 0.942 . S
H255 C272 0.940 . S
H256 C273 0.939 . S
H257 C275 0.941 . S
H258 C279 0.939 . S
O259 P248 1.490 . S
H260 C276 0.939 . S
H261 C278 0.940 . S
C262 P248 1.812 . S
C262 C263 1.389 . S
C262 C267 1.391 . S
C263 H249 0.941 . S
C263 C262 1.389 . S
C263 C264 1.397 . S
C264 H250 0.939 . S
C264 C263 1.397 . S
C264 C265 1.378 . S
C265 C264 1.378 . S
C265 C266 1.378 . S
C266 H251 0.940 . S
C266 C265 1.378 . S
C266 C267 1.396 . S
C267 H252 0.940 . S
C267 C262 1.391 . S
C267 C266 1.396 . S
C268 P248 1.803 1_565 S
C268 C269 1.378 . S
C268 C273 1.400 . S
C269 H253 0.939 . S
C269 C268 1.378 . S
C269 C270 1.361 . S
C270 H254 0.942 . S
C270 C269 1.361 . S
C270 C271 1.369 . S
C271 C270 1.369 . S
C271 C272 1.404 . S
C272 H255 0.940 . S
C272 C271 1.404 . S
C272 C273 1.389 . S
C273 H256 0.939 . S
C273 C268 1.400 . S
C273 C272 1.389 . S
C274 P248 1.819 . S
C274 C275 1.391 . S
C274 C279 1.391 1_545 S
C275 H257 0.941 . S
C275 C274 1.391 . S
C275 C276 1.396 . S
C276 H260 0.939 . S
C276 C275 1.396 . S
C276 C277 1.397 . S
C277 C276 1.397 . S
C277 C278 1.385 1_545 S
C278 H261 0.940 . S
C278 C277 1.385 1_565 S
C278 C279 1.388 . S
C279 H258 0.939 . S
C279 C274 1.391 1_565 S
C279 C278 1.388 . S
P280 O291 1.490 . S
P280 C294 1.812 . S
P280 C300 1.803 . S
P280 C306 1.819 . S
H281 C295 0.941 . S
H282 C296 0.939 . S
H283 C298 0.940 . S
H284 C299 0.940 . S
H285 C301 0.939 . S
H286 C302 0.942 . S
H287 C304 0.940 . S
H288 C305 0.939 . S
H289 C307 0.941 . S
H290 C311 0.939 . S
O291 P280 1.490 . S
H292 C308 0.939 . S
H293 C310 0.940 . S
C294 P280 1.812 . S
C294 C295 1.389 . S
C294 C299 1.391 . S
C295 H281 0.941 . S
C295 C294 1.389 . S
C295 C296 1.397 . S
C296 H282 0.939 . S
C296 C295 1.397 . S
C296 C297 1.378 . S
C297 C296 1.378 . S
C297 C298 1.378 . S
C298 H283 0.940 . S
C298 C297 1.378 . S
C298 C299 1.396 . S
C299 H284 0.940 . S
C299 C294 1.391 . S
C299 C298 1.396 . S
C300 P280 1.803 . S
C300 C301 1.378 . S
C300 C305 1.400 . S
C301 H285 0.939 . S
C301 C300 1.378 . S
C301 C302 1.361 . S
C302 H286 0.942 . S
C302 C301 1.361 . S
C302 C303 1.369 . S
C303 C302 1.369 . S
C303 C304 1.404 . S
C304 H287 0.940 . S
C304 C303 1.404 . S
C304 C305 1.389 . S
C305 H288 0.939 . S
C305 C300 1.400 . S
C305 C304 1.389 . S
C306 P280 1.819 . S
C306 C307 1.391 . S
C306 C311 1.391 . S
C307 H289 0.941 . S
C307 C306 1.391 . S
C307 C308 1.396 . S
C308 H292 0.939 . S
C308 C307 1.396 . S
C308 C309 1.397 . S
C309 C308 1.397 . S
C309 C310 1.385 . S
C310 H293 0.940 . S
C310 C309 1.385 . S
C310 C311 1.388 . S
C311 H290 0.939 . S
C311 C306 1.391 . S
C311 C310 1.388 . S
H312 C324 0.930 . S
H313 C326 0.930 . S
H314 C327 0.930 . S
H315 C331 0.959 . S
H316 C331 0.959 . S
H317 C331 0.961 . S
H318 C332 0.960 . S
H319 C332 0.961 . S
H320 C332 0.959 . S
H321 C335 0.929 . S
H322 C336 0.931 . S
H323 C338 0.930 . S
C324 H312 0.930 . S
C324 C325 1.399 . S
C324 C329 1.399 . S
C325 C324 1.399 . S
C325 C326 1.376 . S
C326 H313 0.930 . S
C326 C325 1.376 . S
C326 C327 1.388 . S
C327 H314 0.930 . S
C327 C326 1.388 . S
C327 C328 1.390 . S
C328 C327 1.390 . S
C328 C329 1.394 . S
C328 C334 1.465 . S
C329 C324 1.399 . S
C329 C328 1.394 . S
C329 C330 1.516 . S
C330 C329 1.516 . S
C330 C331 1.502 . S
C330 C332 1.561 . S
C330 C333 1.526 . S
C331 H315 0.959 . S
C331 H316 0.959 . S
C331 H317 0.961 . S
C331 C330 1.502 . S
C332 H318 0.960 . S
C332 H319 0.961 . S
C332 H320 0.959 . S
C332 C330 1.561 . S
C333 C330 1.526 . S
C333 C334 1.396 . S
C333 C338 1.390 . S
C334 C328 1.465 . S
C334 C333 1.396 . S
C334 C335 1.399 . S
C335 H321 0.929 . S
C335 C334 1.399 . S
C335 C336 1.385 . S
C336 H322 0.931 . S
C336 C335 1.385 . S
C336 C337 1.389 . S
C337 C336 1.389 . S
C337 C338 1.387 . S
C338 H323 0.930 . S
C338 C333 1.390 . S
C338 C337 1.387 . S
H339 C351 0.930 . S
H340 C353 0.930 . S
H341 C354 0.930 . S
H342 C358 0.959 . S
H343 C358 0.959 . S
H344 C358 0.961 . S
H345 C359 0.960 . S
H346 C359 0.961 . S
H347 C359 0.959 . S
H348 C362 0.929 . S
H349 C363 0.931 . S
H350 C365 0.930 . S
C351 H339 0.930 . S
C351 C352 1.399 . S
C351 C356 1.399 . S
C352 C351 1.399 . S
C352 C353 1.376 . S
C353 H340 0.930 . S
C353 C352 1.376 . S
C353 C354 1.388 . S
C354 H341 0.930 . S
C354 C353 1.388 . S
C354 C355 1.390 . S
C355 C354 1.390 . S
C355 C356 1.394 . S
C355 C361 1.465 . S
C356 C351 1.399 . S
C356 C355 1.394 . S
C356 C357 1.516 . S
C357 C356 1.516 . S
C357 C358 1.502 . S
C357 C359 1.561 . S
C357 C360 1.526 . S
C358 H342 0.959 . S
C358 H343 0.959 . S
C358 H344 0.961 . S
C358 C357 1.502 . S
C359 H345 0.960 . S
C359 H346 0.961 . S
C359 H347 0.959 . S
C359 C357 1.561 . S
C360 C357 1.526 . S
C360 C361 1.396 . S
C360 C365 1.390 . S
C361 C355 1.465 . S
C361 C360 1.396 . S
C361 C362 1.399 . S
C362 H348 0.929 . S
C362 C361 1.399 . S
C362 C363 1.385 . S
C363 H349 0.931 . S
C363 C362 1.385 . S
C363 C364 1.389 . S
C364 C363 1.389 . S
C364 C365 1.387 . S
C365 H350 0.930 . S
C365 C360 1.390 . S
C365 C364 1.387 . S
H366 C378 0.930 . S
H367 C380 0.930 . S
H368 C381 0.930 . S
H369 C385 0.959 . S
H370 C385 0.959 . S
H371 C385 0.961 . S
H372 C386 0.960 . S
H373 C386 0.961 . S
H374 C386 0.959 . S
H375 C389 0.929 . S
H376 C390 0.931 . S
H377 C392 0.930 . S
C378 H366 0.930 . S
C378 C379 1.399 . S
C378 C383 1.399 . S
C379 C378 1.399 . S
C379 C380 1.376 . S
C380 H367 0.930 . S
C380 C379 1.376 . S
C380 C381 1.388 . S
C381 H368 0.930 . S
C381 C380 1.388 . S
C381 C382 1.390 . S
C382 C381 1.390 . S
C382 C383 1.394 . S
C382 C388 1.465 . S
C383 C378 1.399 . S
C383 C382 1.394 . S
C383 C384 1.516 . S
C384 C383 1.516 . S
C384 C385 1.502 . S
C384 C386 1.561 . S
C384 C387 1.526 . S
C385 H369 0.959 . S
C385 H370 0.959 . S
C385 H371 0.961 . S
C385 C384 1.502 . S
C386 H372 0.960 . S
C386 H373 0.961 . S
C386 H374 0.959 . S
C386 C384 1.561 . S
C387 C384 1.526 . S
C387 C388 1.396 . S
C387 C392 1.390 . S
C388 C382 1.465 . S
C388 C387 1.396 . S
C388 C389 1.399 . S
C389 H375 0.929 . S
C389 C388 1.399 . S
C389 C390 1.385 . S
C390 H376 0.931 . S
C390 C389 1.385 . S
C390 C391 1.389 . S
C391 C390 1.389 . S
C391 C392 1.387 . S
C392 H377 0.930 . S
C392 C387 1.390 . S
C392 C391 1.387 . S
H393 C405 0.930 . S
H394 C407 0.930 . S
H395 C408 0.930 . S
H396 C412 0.959 . S
H397 C412 0.959 . S
H398 C412 0.961 . S
H399 C413 0.960 . S
H400 C413 0.961 . S
H401 C413 0.959 . S
H402 C416 0.929 . S
H403 C417 0.931 . S
H404 C419 0.930 . S
C405 H393 0.930 . S
C405 C406 1.399 . S
C405 C410 1.399 . S
C406 C405 1.399 . S
C406 C407 1.376 . S
C407 H394 0.930 . S
C407 C406 1.376 . S
C407 C408 1.388 . S
C408 H395 0.930 . S
C408 C407 1.388 . S
C408 C409 1.390 . S
C409 C408 1.390 . S
C409 C410 1.394 . S
C409 C415 1.465 . S
C410 C405 1.399 . S
C410 C409 1.394 . S
C410 C411 1.516 . S
C411 C410 1.516 . S
C411 C412 1.502 . S
C411 C413 1.561 . S
C411 C414 1.526 . S
C412 H396 0.959 . S
C412 H397 0.959 . S
C412 H398 0.961 . S
C412 C411 1.502 . S
C413 H399 0.960 . S
C413 H400 0.961 . S
C413 H401 0.959 . S
C413 C411 1.561 . S
C414 C411 1.526 . S
C414 C415 1.396 . S
C414 C419 1.390 . S
C415 C409 1.465 . S
C415 C414 1.396 . S
C415 C416 1.399 . S
C416 H402 0.929 . S
C416 C415 1.399 . S
C416 C417 1.385 . S
C417 H403 0.931 . S
C417 C416 1.385 . S
C417 C418 1.389 . S
C418 C417 1.389 . S
C418 C419 1.387 . S
C419 H404 0.930 . S
C419 C414 1.390 . S
C419 C418 1.387 . S
H420 C432 0.930 . S
H421 C434 0.930 . S
H422 C435 0.930 . S
H423 C439 0.959 . S
H424 C439 0.959 . S
H425 C439 0.961 . S
H426 C440 0.960 . S
H427 C440 0.961 . S
H428 C440 0.959 . S
H429 C443 0.929 . S
H430 C444 0.931 . S
H431 C446 0.930 . S
C432 H420 0.930 . S
C432 C433 1.399 . S
C432 C437 1.399 . S
C433 C432 1.399 . S
C433 C434 1.376 . S
C434 H421 0.930 . S
C434 C433 1.376 . S
C434 C435 1.388 . S
C435 H422 0.930 . S
C435 C434 1.388 . S
C435 C436 1.390 . S
C436 C435 1.390 . S
C436 C437 1.394 . S
C436 C442 1.465 . S
C437 C432 1.399 . S
C437 C436 1.394 . S
C437 C438 1.516 . S
C438 C437 1.516 . S
C438 C439 1.502 . S
C438 C440 1.561 . S
C438 C441 1.526 . S
C439 H423 0.959 . S
C439 H424 0.959 . S
C439 H425 0.961 . S
C439 C438 1.502 . S
C440 H426 0.960 . S
C440 H427 0.961 . S
C440 H428 0.959 . S
C440 C438 1.561 . S
C441 C438 1.526 . S
C441 C442 1.396 . S
C441 C446 1.390 . S
C442 C436 1.465 . S
C442 C441 1.396 . S
C442 C443 1.399 . S
C443 H429 0.929 . S
C443 C442 1.399 . S
C443 C444 1.385 . S
C444 H430 0.931 . S
C444 C443 1.385 . S
C444 C445 1.389 . S
C445 C444 1.389 . S
C445 C446 1.387 . S
C446 H431 0.930 . S
C446 C441 1.390 . S
C446 C445 1.387 . S
H447 C459 0.930 . S
H448 C461 0.930 . S
H449 C462 0.930 . S
H450 C466 0.959 . S
H451 C466 0.959 . S
H452 C466 0.961 . S
H453 C467 0.960 . S
H454 C467 0.961 . S
H455 C467 0.959 . S
H456 C470 0.929 . S
H457 C471 0.931 . S
H458 C473 0.930 . S
C459 H447 0.930 . S
C459 C460 1.399 . S
C459 C464 1.399 . S
C460 C459 1.399 . S
C460 C461 1.376 . S
C461 H448 0.930 . S
C461 C460 1.376 . S
C461 C462 1.388 . S
C462 H449 0.930 . S
C462 C461 1.388 . S
C462 C463 1.390 . S
C463 C462 1.390 . S
C463 C464 1.394 . S
C463 C469 1.465 . S
C464 C459 1.399 . S
C464 C463 1.394 . S
C464 C465 1.516 . S
C465 C464 1.516 . S
C465 C466 1.502 . S
C465 C467 1.561 . S
C465 C468 1.526 . S
C466 H450 0.959 . S
C466 H451 0.959 . S
C466 H452 0.961 . S
C466 C465 1.502 . S
C467 H453 0.960 . S
C467 H454 0.961 . S
C467 H455 0.959 . S
C467 C465 1.561 . S
C468 C465 1.526 . S
C468 C469 1.396 . S
C468 C473 1.390 . S
C469 C463 1.465 . S
C469 C468 1.396 . S
C469 C470 1.399 . S
C470 H456 0.929 . S
C470 C469 1.399 . S
C470 C471 1.385 . S
C471 H457 0.931 . S
C471 C470 1.385 . S
C471 C472 1.389 . S
C472 C471 1.389 . S
C472 C473 1.387 . S
C473 H458 0.930 . S
C473 C468 1.390 . S
C473 C472 1.387 . S
H474 C486 0.930 . S
H475 C488 0.930 . S
H476 C489 0.930 . S
H477 C493 0.959 . S
H478 C493 0.959 . S
H479 C493 0.961 . S
H480 C494 0.960 . S
H481 C494 0.961 . S
H482 C494 0.959 . S
H483 C497 0.929 . S
H484 C498 0.931 . S
H485 C500 0.930 . S
C486 H474 0.930 . S
C486 C487 1.399 . S
C486 C491 1.399 . S
C487 C486 1.399 . S
C487 C488 1.376 . S
C488 H475 0.930 . S
C488 C487 1.376 . S
C488 C489 1.388 . S
C489 H476 0.930 . S
C489 C488 1.388 . S
C489 C490 1.390 . S
C490 C489 1.390 . S
C490 C491 1.394 . S
C490 C496 1.465 . S
C491 C486 1.399 . S
C491 C490 1.394 . S
C491 C492 1.516 . S
C492 C491 1.516 . S
C492 C493 1.502 . S
C492 C494 1.561 . S
C492 C495 1.526 . S
C493 H477 0.959 . S
C493 H478 0.959 . S
C493 H479 0.961 . S
C493 C492 1.502 . S
C494 H480 0.960 . S
C494 H481 0.961 . S
C494 H482 0.959 . S
C494 C492 1.561 . S
C495 C492 1.526 . S
C495 C496 1.396 . S
C495 C500 1.390 . S
C496 C490 1.465 . S
C496 C495 1.396 . S
C496 C497 1.399 . S
C497 H483 0.929 . S
C497 C496 1.399 . S
C497 C498 1.385 . S
C498 H484 0.931 . S
C498 C497 1.385 . S
C498 C499 1.389 . S
C499 C498 1.389 . S
C499 C500 1.387 . S
C500 H485 0.930 . S
C500 C495 1.390 . S
C500 C499 1.387 . S
H501 C513 0.930 . S
H502 C515 0.930 . S
H503 C516 0.930 . S
H504 C520 0.959 . S
H505 C520 0.959 . S
H506 C520 0.961 . S
H507 C521 0.960 . S
H508 C521 0.961 . S
H509 C521 0.959 . S
H510 C524 0.929 . S
H511 C525 0.931 . S
H512 C527 0.930 . S
C513 H501 0.930 . S
C513 C514 1.399 . S
C513 C518 1.399 . S
C514 C513 1.399 . S
C514 C515 1.376 . S
C515 H502 0.930 . S
C515 C514 1.376 . S
C515 C516 1.388 . S
C516 H503 0.930 . S
C516 C515 1.388 . S
C516 C517 1.390 . S
C517 C516 1.390 . S
C517 C518 1.394 . S
C517 C523 1.465 . S
C518 C513 1.399 . S
C518 C517 1.394 . S
C518 C519 1.516 . S
C519 C518 1.516 . S
C519 C520 1.502 . S
C519 C521 1.561 . S
C519 C522 1.526 . S
C520 H504 0.959 . S
C520 H505 0.959 . S
C520 H506 0.961 . S
C520 C519 1.502 . S
C521 H507 0.960 . S
C521 H508 0.961 . S
C521 H509 0.959 . S
C521 C519 1.561 . S
C522 C519 1.526 . S
C522 C523 1.396 . S
C522 C527 1.390 . S
C523 C517 1.465 . S
C523 C522 1.396 . S
C523 C524 1.399 . S
C524 H510 0.929 . S
C524 C523 1.399 . S
C524 C525 1.385 . S
C525 H511 0.931 . S
C525 C524 1.385 . S
C525 C526 1.389 . S
C526 C525 1.389 . S
C526 C527 1.387 . S
C527 H512 0.930 . S
C527 C522 1.390 . S
C527 C526 1.387 . S
H528 C540 0.930 . S
H529 C542 0.930 . S
H530 C543 0.930 . S
H531 C547 0.959 . S
H532 C547 0.959 . S
H533 C547 0.961 . S
H534 C548 0.960 . S
H535 C548 0.961 . S
H536 C548 0.959 . S
H537 C551 0.929 . S
H538 C552 0.931 . S
H539 C554 0.930 . S
C540 H528 0.930 . S
C540 C541 1.399 . S
C540 C545 1.399 . S
C541 C540 1.399 . S
C541 C542 1.376 . S
C542 H529 0.930 . S
C542 C541 1.376 . S
C542 C543 1.388 . S
C543 H530 0.930 . S
C543 C542 1.388 . S
C543 C544 1.390 . S
C544 C543 1.390 . S
C544 C545 1.394 . S
C544 C550 1.465 . S
C545 C540 1.399 . S
C545 C544 1.394 . S
C545 C546 1.516 . S
C546 C545 1.516 . S
C546 C547 1.502 . S
C546 C548 1.561 . S
C546 C549 1.526 . S
C547 H531 0.959 . S
C547 H532 0.959 . S
C547 H533 0.961 . S
C547 C546 1.502 . S
C548 H534 0.960 . S
C548 H535 0.961 . S
C548 H536 0.959 . S
C548 C546 1.561 . S
C549 C546 1.526 . S
C549 C550 1.396 . S
C549 C554 1.390 . S
C550 C544 1.465 . S
C550 C549 1.396 . S
C550 C551 1.399 . S
C551 H537 0.929 . S
C551 C550 1.399 . S
C551 C552 1.385 . S
C552 H538 0.931 . S
C552 C551 1.385 . S
C552 C553 1.389 . S
C553 C552 1.389 . S
C553 C554 1.387 . S
C554 H539 0.930 . S
C554 C549 1.390 . S
C554 C553 1.387 . S
H555 C567 0.930 . S
H556 C569 0.930 . S
H557 C570 0.930 . S
H558 C574 0.959 . S
H559 C574 0.959 . S
H560 C574 0.961 . S
H561 C575 0.960 . S
H562 C575 0.961 . S
H563 C575 0.959 . S
H564 C578 0.929 . S
H565 C579 0.931 . S
H566 C581 0.930 . S
C567 H555 0.930 . S
C567 C568 1.399 . S
C567 C572 1.399 . S
C568 C567 1.399 . S
C568 C569 1.376 . S
C569 H556 0.930 . S
C569 C568 1.376 . S
C569 C570 1.388 . S
C570 H557 0.930 . S
C570 C569 1.388 . S
C570 C571 1.390 . S
C571 C570 1.390 . S
C571 C572 1.394 . S
C571 C577 1.465 . S
C572 C567 1.399 . S
C572 C571 1.394 . S
C572 C573 1.516 . S
C573 C572 1.516 . S
C573 C574 1.502 . S
C573 C575 1.561 . S
C573 C576 1.526 . S
C574 H558 0.959 . S
C574 H559 0.959 . S
C574 H560 0.961 . S
C574 C573 1.502 . S
C575 H561 0.960 . S
C575 H562 0.961 . S
C575 H563 0.959 . S
C575 C573 1.561 . S
C576 C573 1.526 . S
C576 C577 1.396 . S
C576 C581 1.390 . S
C577 C571 1.465 . S
C577 C576 1.396 . S
C577 C578 1.399 . S
C578 H564 0.929 . S
C578 C577 1.399 . S
C578 C579 1.385 . S
C579 H565 0.931 . S
C579 C578 1.385 . S
C579 C580 1.389 . S
C580 C579 1.389 . S
C580 C581 1.387 . S
C581 H566 0.930 . S
C581 C576 1.390 . S
C581 C580 1.387 . S
H582 C594 0.930 . S
H583 C596 0.930 . S
H584 C597 0.930 . S
H585 C601 0.959 . S
H586 C601 0.959 . S
H587 C601 0.961 . S
H588 C602 0.960 . S
H589 C602 0.961 . S
H590 C602 0.959 . S
H591 C605 0.929 . S
H592 C606 0.931 . S
H593 C608 0.930 . S
C594 H582 0.930 . S
C594 C595 1.399 . S
C594 C599 1.399 . S
C595 C594 1.399 . S
C595 C596 1.376 . S
C596 H583 0.930 . S
C596 C595 1.376 . S
C596 C597 1.388 . S
C597 H584 0.930 . S
C597 C596 1.388 . S
C597 C598 1.390 . S
C598 C597 1.390 . S
C598 C599 1.394 . S
C598 C604 1.465 . S
C599 C594 1.399 . S
C599 C598 1.394 . S
C599 C600 1.516 . S
C600 C599 1.516 . S
C600 C601 1.502 . S
C600 C602 1.561 . S
C600 C603 1.526 . S
C601 H585 0.959 . S
C601 H586 0.959 . S
C601 H587 0.961 . S
C601 C600 1.502 . S
C602 H588 0.960 . S
C602 H589 0.961 . S
C602 H590 0.959 . S
C602 C600 1.561 . S
C603 C600 1.526 . S
C603 C604 1.396 . S
C603 C608 1.390 . S
C604 C598 1.465 . S
C604 C603 1.396 . S
C604 C605 1.399 . S
C605 H591 0.929 . S
C605 C604 1.399 . S
C605 C606 1.385 . S
C606 H592 0.931 . S
C606 C605 1.385 . S
C606 C607 1.389 . S
C607 C606 1.389 . S
C607 C608 1.387 . S
C608 H593 0.930 . S
C608 C603 1.390 . S
C608 C607 1.387 . S
H609 C621 0.930 . S
H610 C623 0.930 . S
H611 C624 0.930 . S
H612 C628 0.959 . S
H613 C628 0.959 . S
H614 C628 0.961 . S
H615 C629 0.960 . S
H616 C629 0.961 . S
H617 C629 0.959 . S
H618 C632 0.929 . S
H619 C633 0.931 . S
H620 C635 0.930 . S
C621 H609 0.930 . S
C621 C622 1.399 . S
C621 C626 1.399 . S
C622 C621 1.399 . S
C622 C623 1.376 . S
C623 H610 0.930 . S
C623 C622 1.376 . S
C623 C624 1.388 . S
C624 H611 0.930 . S
C624 C623 1.388 . S
C624 C625 1.390 . S
C625 C624 1.390 . S
C625 C626 1.394 . S
C625 C631 1.465 . S
C626 C621 1.399 . S
C626 C625 1.394 . S
C626 C627 1.516 . S
C627 C626 1.516 . S
C627 C628 1.502 . S
C627 C629 1.561 . S
C627 C630 1.526 . S
C628 H612 0.959 . S
C628 H613 0.959 . S
C628 H614 0.961 . S
C628 C627 1.502 . S
C629 H615 0.960 . S
C629 H616 0.961 . S
C629 H617 0.959 . S
C629 C627 1.561 . S
C630 C627 1.526 . S
C630 C631 1.396 . S
C630 C635 1.390 . S
C631 C625 1.465 . S
C631 C630 1.396 . S
C631 C632 1.399 . S
C632 H618 0.929 . S
C632 C631 1.399 . S
C632 C633 1.385 . S
C633 H619 0.931 . S
C633 C632 1.385 . S
C633 C634 1.389 . S
C634 C633 1.389 . S
C634 C635 1.387 . S
C635 H620 0.930 . S
C635 C630 1.390 . S
C635 C634 1.387 . S
H636 C648 0.930 . S
H637 C650 0.930 . S
H638 C651 0.930 . S
H639 C655 0.959 . S
H640 C655 0.959 . S
H641 C655 0.961 . S
H642 C656 0.960 . S
H643 C656 0.961 . S
H644 C656 0.959 . S
H645 C659 0.929 . S
H646 C660 0.931 . S
H647 C662 0.930 . S
C648 H636 0.930 . S
C648 C649 1.399 . S
C648 C653 1.399 . S
C649 C648 1.399 . S
C649 C650 1.376 . S
C650 H637 0.930 . S
C650 C649 1.376 . S
C650 C651 1.388 . S
C651 H638 0.930 . S
C651 C650 1.388 . S
C651 C652 1.390 . S
C652 C651 1.390 . S
C652 C653 1.394 . S
C652 C658 1.465 . S
C653 C648 1.399 . S
C653 C652 1.394 . S
C653 C654 1.516 . S
C654 C653 1.516 . S
C654 C655 1.502 . S
C654 C656 1.561 1_455 S
C654 C657 1.526 . S
C655 H639 0.959 . S
C655 H640 0.959 . S
C655 H641 0.961 . S
C655 C654 1.502 . S
C656 H642 0.960 . S
C656 H643 0.961 . S
C656 H644 0.959 . S
C656 C654 1.561 1_655 S
C657 C654 1.526 . S
C657 C658 1.396 . S
C657 C662 1.390 1_554 S
C658 C652 1.465 . S
C658 C657 1.396 . S
C658 C659 1.399 . S
C659 H645 0.929 . S
C659 C658 1.399 . S
C659 C660 1.385 1_554 S
C660 H646 0.931 . S
C660 C659 1.385 1_556 S
C660 C661 1.389 . S
C661 C660 1.389 . S
C661 C662 1.387 . S
C662 H647 0.930 . S
C662 C657 1.390 1_556 S
C662 C661 1.387 . S
H663 C675 0.930 . S
H664 C677 0.930 . S
H665 C678 0.930 . S
H666 C682 0.959 . S
H667 C682 0.959 . S
H668 C682 0.961 . S
H669 C683 0.960 . S
H670 C683 0.961 . S
H671 C683 0.959 . S
H672 C686 0.929 . S
H673 C687 0.931 . S
H674 C689 0.930 . S
C675 H663 0.930 . S
C675 C676 1.399 . S
C675 C680 1.399 . S
C676 C675 1.399 . S
C676 C677 1.376 1_545 S
C677 H664 0.930 . S
C677 C676 1.376 1_565 S
C677 C678 1.388 . S
C678 H665 0.930 . S
C678 C677 1.388 . S
C678 C679 1.390 . S
C679 C678 1.390 . S
C679 C680 1.394 1_565 S
C679 C685 1.467 . S
C680 C675 1.399 . S
C680 C679 1.394 1_545 S
C680 C681 1.516 . S
C681 C680 1.516 . S
C681 C682 1.502 . S
C681 C683 1.561 . S
C681 C684 1.526 . S
C682 H666 0.959 . S
C682 H667 0.959 . S
C682 H668 0.961 . S
C682 C681 1.502 . S
C683 H669 0.960 . S
C683 H670 0.961 . S
C683 H671 0.959 . S
C683 C681 1.561 . S
C684 C681 1.526 . S
C684 C685 1.370 1_545 S
C684 C689 1.390 . S
C685 C679 1.467 . S
C685 C684 1.370 1_565 S
C685 C686 1.418 . S
C686 H672 0.929 . S
C686 C685 1.418 . S
C686 C687 1.385 . S
C687 H673 0.931 . S
C687 C686 1.385 . S
C687 C688 1.389 1_565 S
C688 C687 1.389 1_545 S
C688 C689 1.387 . S
C689 H674 0.930 . S
C689 C684 1.390 . S
C689 C688 1.387 . S
H690 C702 0.930 . S
H691 C704 0.930 . S
H692 C705 0.930 . S
H693 C709 0.959 . S
H694 C709 0.959 . S
H695 C709 0.961 . S
H696 C710 0.960 . S
H697 C710 0.961 . S
H698 C710 0.959 . S
H699 C713 0.929 . S
H700 C714 0.931 . S
H701 C716 0.930 . S
C702 H690 0.930 . S
C702 C703 1.399 . S
C702 C707 1.399 . S
C703 C702 1.399 . S
C703 C704 1.376 . S
C704 H691 0.930 . S
C704 C703 1.376 . S
C704 C705 1.388 . S
C705 H692 0.930 . S
C705 C704 1.388 . S
C705 C706 1.390 . S
C706 C705 1.390 . S
C706 C707 1.394 . S
C706 C712 1.465 . S
C707 C702 1.399 . S
C707 C706 1.394 . S
C707 C708 1.516 . S
C708 C707 1.516 . S
C708 C709 1.502 . S
C708 C710 1.561 . S
C708 C711 1.526 . S
C709 H693 0.959 . S
C709 H694 0.959 . S
C709 H695 0.961 . S
C709 C708 1.502 . S
C710 H696 0.960 . S
C710 H697 0.961 . S
C710 H698 0.959 . S
C710 C708 1.561 . S
C711 C708 1.526 . S
C711 C712 1.396 . S
C711 C716 1.390 . S
C712 C706 1.465 . S
C712 C711 1.396 . S
C712 C713 1.399 . S
C713 H699 0.929 . S
C713 C712 1.399 . S
C713 C714 1.385 . S
C714 H700 0.931 . S
C714 C713 1.385 . S
C714 C715 1.389 . S
C715 C714 1.389 . S
C715 C716 1.387 . S
C716 H701 0.930 . S
C716 C711 1.390 . S
C716 C715 1.387 . S
H717 C729 0.930 . S
H718 C731 0.930 . S
H719 C732 0.930 . S
H720 C736 0.959 . S
H721 C736 0.959 . S
H722 C736 0.961 . S
H723 C737 0.960 . S
H724 C737 0.961 . S
H725 C737 0.959 . S
H726 C740 0.929 . S
H727 C741 0.931 . S
H728 C743 0.930 . S
C729 H717 0.930 . S
C729 C730 1.399 . S
C729 C734 1.399 . S
C730 C729 1.399 . S
C730 C731 1.376 1_545 S
C731 H718 0.930 . S
C731 C730 1.376 1_565 S
C731 C732 1.388 . S
C732 H719 0.930 . S
C732 C731 1.388 . S
C732 C733 1.390 . S
C733 C732 1.390 . S
C733 C734 1.394 1_565 S
C733 C739 1.465 . S
C734 C729 1.399 . S
C734 C733 1.394 1_545 S
C734 C735 1.516 . S
C735 C734 1.516 . S
C735 C736 1.502 . S
C735 C737 1.561 . S
C735 C738 1.526 . S
C736 H720 0.959 . S
C736 H721 0.959 . S
C736 H722 0.961 . S
C736 C735 1.502 . S
C737 H723 0.960 . S
C737 H724 0.961 . S
C737 H725 0.959 . S
C737 C735 1.561 . S
C738 C735 1.526 . S
C738 C739 1.396 1_545 S
C738 C743 1.390 . S
C739 C733 1.465 . S
C739 C738 1.396 1_565 S
C739 C740 1.399 . S
C740 H726 0.929 . S
C740 C739 1.399 . S
C740 C741 1.385 . S
C741 H727 0.931 . S
C741 C740 1.385 . S
C741 C742 1.389 . S
C742 C741 1.389 . S
C742 C743 1.387 1_565 S
C743 H728 0.930 . S
C743 C738 1.390 . S
C743 C742 1.387 1_545 S
H744 C756 0.930 . S
H745 C758 0.930 . S
H746 C759 0.930 . S
H747 C763 0.959 . S
H748 C763 0.959 . S
H749 C763 0.961 . S
H750 C764 0.960 . S
H751 C764 0.961 . S
H752 C764 0.959 . S
H753 C767 0.929 . S
H754 C768 0.963 . S
H755 C770 0.930 . S
C756 H744 0.930 . S
C756 C757 1.399 . S
C756 C761 1.399 . S
C757 C756 1.399 . S
C757 C758 1.376 . S
C758 H745 0.930 . S
C758 C757 1.376 . S
C758 C759 1.388 . S
C759 H746 0.930 . S
C759 C758 1.388 . S
C759 C760 1.390 . S
C760 C759 1.390 . S
C760 C761 1.394 . S
C760 C766 1.465 . S
C761 C756 1.399 . S
C761 C760 1.394 . S
C761 C762 1.516 . S
C762 C761 1.516 . S
C762 C763 1.502 . S
C762 C764 1.561 . S
C762 C765 1.526 . S
C763 H747 0.959 . S
C763 H748 0.959 . S
C763 H749 0.961 . S
C763 C762 1.502 . S
C764 H750 0.960 . S
C764 H751 0.961 . S
C764 H752 0.959 . S
C764 C762 1.561 . S
C765 C762 1.526 . S
C765 C766 1.396 . S
C765 C770 1.390 . S
C766 C760 1.465 . S
C766 C765 1.396 . S
C766 C767 1.399 . S
C767 H753 0.929 . S
C767 C766 1.399 . S
C767 C768 1.346 1_556 S
C768 H754 0.963 . S
C768 C767 1.346 1_554 S
C768 C769 1.398 . S
C769 C768 1.398 . S
C769 C770 1.387 1_554 S
C770 H755 0.930 . S
C770 C765 1.390 . S
C770 C769 1.387 1_556 S
H771 C783 0.930 . S
H772 C785 0.930 . S
H773 C786 0.930 . S
H774 C790 0.959 . S
H775 C790 0.959 . S
H776 C790 0.961 . S
H777 C791 0.960 . S
H778 C791 0.961 . S
H779 C791 0.959 . S
H780 C794 0.929 . S
H781 C795 0.931 . S
H782 C797 0.930 . S
C783 H771 0.930 . S
C783 C784 1.399 . S
C783 C788 1.399 . S
C784 C783 1.399 . S
C784 C785 1.376 1_455 S
C785 H772 0.930 . S
C785 C784 1.376 1_655 S
C785 C786 1.388 . S
C786 H773 0.930 . S
C786 C785 1.388 . S
C786 C787 1.390 . S
C787 C786 1.390 . S
C787 C788 1.394 1_655 S
C787 C793 1.465 . S
C788 C783 1.399 . S
C788 C787 1.394 1_455 S
C788 C789 1.516 . S
C789 C788 1.516 . S
C789 C790 1.502 . S
C789 C791 1.561 . S
C789 C792 1.526 . S
C790 H774 0.959 . S
C790 H775 0.959 . S
C790 H776 0.961 . S
C790 C789 1.502 . S
C791 H777 0.960 . S
C791 H778 0.961 . S
C791 H779 0.959 . S
C791 C789 1.561 . S
C792 C789 1.526 . S
C792 C793 1.396 1_455 S
C792 C797 1.390 . S
C793 C787 1.465 . S
C793 C792 1.396 1_655 S
C793 C794 1.399 . S
C794 H780 0.929 . S
C794 C793 1.399 . S
C794 C795 1.385 . S
C795 H781 0.931 . S
C795 C794 1.385 . S
C795 C796 1.389 . S
C796 C795 1.389 . S
C796 C797 1.387 1_655 S
C797 H782 0.930 . S
C797 C792 1.390 . S
C797 C796 1.387 1_455 S
C325 C6 0.510 . S
C337 C303 0.523 . S
C352 C59 1.891 . S
C364 C239 1.867 . S
C379 C86 1.268 . S
C391 C271 1.198 . S
C406 C15 0.462 . S
C418 C297 0.540 . S
C445 C233 1.908 . S
C433 C50 1.964 . S
C472 C265 1.269 . S
C460 C95 1.246 . S
C487 C46 1.199 . S
C499 C175 1.198 . S
C514 C99 3.046 . S
C526 C207 2.989 . S
C541 C10 1.996 . S
C553 C137 1.941 . S
C580 C169 1.268 . S
C568 C55 1.301 . S
C607 C201 2.953 . S
C595 C90 2.986 . S
C622 C19 1.885 . S
C634 C143 1.822 . S
C661 C213 1.709 . S
C649 C18 1.668 . S
C676 C49 1.293 . S
C688 C149 1.322 . S
C703 C98 1.474 . S
C715 C181 1.469 . S
C742 C277 1.474 1_565 S
C730 C58 1.424 . S
C769 C309 1.112 . S
C757 C89 1.041 . S
C784 C9 1.354 . S
C796 C245 1.353 1_655 S
