# Generated by pormake.
# Topology zzz, (3,6)-cn, num edge types: 1
# Building blocks:
#     Node 0, Type 0, BuildingBlock: QEWDON_clean_linker_0, # of connection points: 3
#     Node 1, Type 0, BuildingBlock: QEWDON_clean_linker_0, # of connection points: 3
#     Node 2, Type 0, BuildingBlock: QEWDON_clean_linker_0, # of connection points: 3
#     Node 3, Type 0, BuildingBlock: QEWDON_clean_linker_0, # of connection points: 3
#     Node 4, Type 0, BuildingBlock: QEWDON_clean_linker_0, # of connection points: 3
#     Node 5, Type 0, BuildingBlock: QEWDON_clean_linker_0, # of connection points: 3
#     Node 6, Type 0, BuildingBlock: QEWDON_clean_linker_0, # of connection points: 3
#     Node 7, Type 0, BuildingBlock: QEWDON_clean_linker_0, # of connection points: 3
#     Node 8, Type 1, BuildingBlock: HISSIN_clean_sbu_0, # of connection points: 6
#     Node 9, Type 1, BuildingBlock: HISSIN_clean_sbu_0, # of connection points: 6
#     Node 10, Type 1, BuildingBlock: HISSIN_clean_sbu_0, # of connection points: 6
#     Node 11, Type 1, BuildingBlock: HISSIN_clean_sbu_0, # of connection points: 6
#     Edge 12, Type (0, 1), BuildingBlock: ZUJKAS_clean_linker_0, # of connection points: 2
#     Edge 13, Type (0, 1), BuildingBlock: ZUJKAS_clean_linker_0, # of connection points: 2
#     Edge 14, Type (0, 1), BuildingBlock: ZUJKAS_clean_linker_0, # of connection points: 2
#     Edge 15, Type (0, 1), BuildingBlock: ZUJKAS_clean_linker_0, # of connection points: 2
#     Edge 16, Type (0, 1), BuildingBlock: ZUJKAS_clean_linker_0, # of connection points: 2
#     Edge 17, Type (0, 1), BuildingBlock: ZUJKAS_clean_linker_0, # of connection points: 2
#     Edge 18, Type (0, 1), BuildingBlock: ZUJKAS_clean_linker_0, # of connection points: 2
#     Edge 19, Type (0, 1), BuildingBlock: ZUJKAS_clean_linker_0, # of connection points: 2
#     Edge 20, Type (0, 1), BuildingBlock: ZUJKAS_clean_linker_0, # of connection points: 2
#     Edge 21, Type (0, 1), BuildingBlock: ZUJKAS_clean_linker_0, # of connection points: 2
#     Edge 22, Type (0, 1), BuildingBlock: ZUJKAS_clean_linker_0, # of connection points: 2
#     Edge 23, Type (0, 1), BuildingBlock: ZUJKAS_clean_linker_0, # of connection points: 2
#     Edge 24, Type (0, 1), BuildingBlock: ZUJKAS_clean_linker_0, # of connection points: 2
#     Edge 25, Type (0, 1), BuildingBlock: ZUJKAS_clean_linker_0, # of connection points: 2
#     Edge 26, Type (0, 1), BuildingBlock: ZUJKAS_clean_linker_0, # of connection points: 2
#     Edge 27, Type (0, 1), BuildingBlock: ZUJKAS_clean_linker_0, # of connection points: 2
#     Edge 28, Type (0, 1), BuildingBlock: ZUJKAS_clean_linker_0, # of connection points: 2
#     Edge 29, Type (0, 1), BuildingBlock: ZUJKAS_clean_linker_0, # of connection points: 2
#     Edge 30, Type (0, 1), BuildingBlock: ZUJKAS_clean_linker_0, # of connection points: 2
#     Edge 31, Type (0, 1), BuildingBlock: ZUJKAS_clean_linker_0, # of connection points: 2
#     Edge 32, Type (0, 1), BuildingBlock: ZUJKAS_clean_linker_0, # of connection points: 2
#     Edge 33, Type (0, 1), BuildingBlock: ZUJKAS_clean_linker_0, # of connection points: 2
#     Edge 34, Type (0, 1), BuildingBlock: ZUJKAS_clean_linker_0, # of connection points: 2
#     Edge 35, Type (0, 1), BuildingBlock: ZUJKAS_clean_linker_0, # of connection points: 2
# Relax obj value: 0.153
# Max RMSD: 0.182
# Mean RMSD: 0.061
data_MOF--net-zzz--node1-HISSIN_clean_sbu_0--node2-QEWDON_clean_linker_0--edge1-ZUJKAS_clean_linker_0
_symmetry_space_group_name_H-M    P1
_symmetry_Int_Tables_number       1
_symmetry_cell_setting            triclinic
loop_
_symmetry_equiv_pos_as_xyz
'x, y, z'
_cell_length_a     68.422977
_cell_length_b     68.525343
_cell_length_c     20.434382
_cell_angle_alpha  90.168094
_cell_angle_beta   91.392952
_cell_angle_gamma 90.558119
loop_
_atom_site_label
_atom_site_type_symbol
_atom_site_fract_x
_atom_site_fract_y
_atom_site_fract_z
_atom_type_partial_charge
H0 H 0.75837 0.55653 0.18134 0.0
C1 C 0.7686 0.55516 0.22215 0.0
C2 C 0.78845 0.55721 0.20924 0.0
C3 C 0.7622 0.55184 0.28643 0.0
H4 H 0.81769 0.55814 0.2498 0.0
C5 C 0.80227 0.55672 0.2605 0.0
C6 C 0.79671 0.55339 0.32482 0.0
C7 C 0.7767 0.55048 0.3377 0.0
C8 C 0.74056 0.5507 0.29926 0.0
H9 H 0.77264 0.54733 0.38741 0.0
C10 C 0.72656 0.54597 0.24877 0.0
C11 C 0.70624 0.54727 0.25904 0.0
C12 C 0.73351 0.55571 0.36125 0.0
H13 H 0.74331 0.55998 0.40114 0.0
C14 C 0.71349 0.55602 0.37257 0.0
H15 H 0.73125 0.54173 0.20075 0.0
C16 C 0.69998 0.55199 0.32206 0.0
H17 H 0.68455 0.55266 0.33241 0.0
H18 H 0.70839 0.55986 0.42061 0.0
H19 H 0.99356 0.75948 0.16885 0.0
C20 C 0.99722 0.76942 0.20856 0.0
C21 C 0.99066 0.78862 0.20329 0.0
C22 C 1.00812 0.76324 0.2642 0.0
H23 H 0.98962 0.8168 0.24934 0.0
C24 C 0.99431 0.80179 0.2546 0.0
C25 C 1.00517 0.79645 0.31035 0.0
C26 C 1.01249 0.77727 0.31445 0.0
C27 C 1.01415 0.74216 0.27023 0.0
H28 H 0.02141 0.77344 0.35681 0.0
C29 C 1.01604 0.72982 0.21446 0.0
C30 C 1.01952 0.7096 0.22131 0.0
C31 C 1.01681 0.73375 0.33262 0.0
H32 H 1.015 0.74216 0.37686 0.0
C33 C 0.02118 0.71402 0.33945 0.0
H34 H 1.01438 0.73566 0.1656 0.0
C35 C 0.0224 0.70202 0.28457 0.0
H36 H 0.02555 0.68671 0.29176 0.0
H37 H 0.0232 0.70786 0.38785 0.0
H38 H 0.78595 0.03128 0.10382 0.0
C39 C 0.77632 0.0295 0.14446 0.0
C40 C 0.75904 0.04034 0.14437 0.0
C41 C 0.78094 1.01622 0.19499 0.0
H42 H 0.73203 0.04519 0.19359 0.0
C43 C 0.74588 0.03764 0.19523 0.0
C44 C 0.74975 0.02467 0.24671 0.0
C45 C 0.76737 1.01402 0.24654 0.0
C46 C 0.7994 1.00425 0.19145 0.0
H47 H 0.77043 1.00435 0.28712 0.0
C48 C 0.81571 1.01026 0.1538 0.0
C49 C 0.8323 0.99828 0.14741 0.0
C50 C 0.80053 0.98604 0.22316 0.0
H51 H 0.78846 0.98028 0.25049 0.0
C52 C 0.81712 0.97447 0.21856 0.0
H53 H 0.81587 0.02429 0.12982 0.0
C54 C 0.83282 0.98046 0.18105 0.0
H55 H 0.8452 0.97084 0.17699 0.0
H56 H 0.81763 0.96052 0.24321 0.0
H57 H 0.51482 0.78334 0.15164 0.0
C58 C 0.52066 0.77206 0.18331 0.0
C59 C 0.51405 0.75282 0.17374 0.0
C60 C 0.53415 0.77683 0.23424 0.0
H61 H 0.516 0.72318 0.20798 0.0
C62 C 0.52091 0.73813 0.21571 0.0
C63 C 0.53405 0.74232 0.2675 0.0
C64 C 0.54065 0.76171 0.27677 0.0
C65 C 0.54084 0.79764 0.24347 0.0
H66 H 0.55113 0.76479 0.31607 0.0
C67 C 0.54217 0.81065 0.18972 0.0
C68 C 0.5474 0.83049 0.19915 0.0
C69 C 0.54522 0.8049 0.30667 0.0
H70 H 0.54393 0.79573 0.34939 0.0
C71 C 0.55078 0.82437 0.31612 0.0
H72 H 0.53935 0.8054 0.14035 0.0
C73 C 0.5518 0.83707 0.2631 0.0
H74 H 0.55558 0.85222 0.27253 0.0
H75 H 0.55397 0.82974 0.36513 0.0
H76 H 0.29499 0.5074 0.12259 0.0
C77 C 0.28598 0.50593 0.07856 0.0
C78 C 0.26749 0.49727 0.08372 0.0
C79 C 0.29227 0.5136 0.01857 0.0
H80 H 0.24017 0.49075 0.03422 0.0
C81 C 0.25491 0.4964 0.02882 0.0
C82 C 0.26012 0.50466 0.96915 0.0
C83 C 0.27895 0.51307 0.96383 0.0
C84 C 0.31205 0.52337 0.01575 0.0
H85 H 0.28301 0.51917 0.91726 0.0
C86 C 0.32764 0.51802 0.05916 0.0
C87 C 0.34561 0.52838 0.06073 0.0
C88 C 0.31522 0.53895 0.9724 0.0
H89 H 0.30373 0.54403 0.9396 0.0
C90 C 0.33315 0.54882 0.97225 0.0
H91 H 0.32595 0.50576 0.09183 0.0
C92 C 0.34816 0.54372 0.01614 0.0
H93 H 0.3616 0.5522 0.01629 0.0
H94 H 0.33527 0.56086 0.93891 0.0
H95 H 0.0675 0.28874 0.14377 0.0
C96 C 0.06449 0.27866 0.10391 0.0
C97 C 0.07152 0.25964 0.11024 0.0
C98 C 0.05375 0.28443 0.04751 0.0
H99 H 0.07386 0.23148 0.06449 0.0
C100 C 0.06875 0.24634 0.05875 0.0
C101 C 0.05801 0.25131 1.00232 0.0
C102 C 0.05015 0.27025 0.99728 0.0
C103 C 0.04674 0.3052 0.04133 0.0
H104 H 0.04127 0.27371 0.95443 0.0
C105 C 0.04379 0.31724 0.09713 0.0
C106 C 0.03862 0.33708 0.09055 0.0
C107 C 0.04387 0.31356 0.97898 0.0
H108 H 0.04648 0.30538 0.93477 0.0
C109 C 0.03819 0.33296 0.97228 0.0
H110 H 0.04528 0.31133 0.14598 0.0
C111 C 0.03567 0.34465 0.02731 0.0
H112 H 0.03191 0.35983 0.02018 0.0
H113 H 0.03615 0.33913 0.92391 0.0
H114 H 0.27074 0.06053 0.16618 0.0
C115 C 0.28129 0.05696 0.1296 0.0
C116 C 0.3004 0.06385 0.13958 0.0
C117 C 0.27592 0.04592 0.07353 0.0
H118 H 0.32932 0.06547 0.1018 0.0
C119 C 0.31442 0.06048 0.09236 0.0
C120 C 0.30993 0.04972 0.03546 0.0
C121 C 0.29071 0.04203 0.02697 0.0
C122 C 0.25485 0.0394 0.06336 0.0
H123 H 0.28744 0.03321 0.98406 0.0
C124 C 0.24169 0.03765 0.11637 0.0
C125 C 0.22148 0.03392 0.10519 0.0
C126 C 0.24724 0.0362 0.99951 0.0
H127 H 0.25625 0.0378 0.95713 0.0
C128 C 0.22754 0.03152 0.9886 0.0
H129 H 0.24684 0.03962 0.16636 0.0
C130 C 0.21477 0.03054 0.04059 0.0
H131 H 0.19951 0.02717 0.03006 0.0
H132 H 0.22202 0.02909 0.93912 0.0
H133 H 0.55012 0.25982 0.16543 0.0
C134 C 0.54506 0.27099 0.13203 0.0
C135 C 0.55267 0.28998 0.14002 0.0
C136 C 0.53165 0.26637 0.08042 0.0
H137 H 0.55293 0.31916 0.10062 0.0
C138 C 0.54736 0.30438 0.09454 0.0
C139 C 0.53452 0.30031 0.04196 0.0
C140 C 0.52615 0.28152 0.03629 0.0
C141 C 0.52428 0.24569 0.07088 0.0
H142 H 0.51567 0.27882 0.99675 0.0
C143 C 0.52366 0.23208 0.12337 0.0
C144 C 0.51807 0.21237 0.11242 0.0
C145 C 0.51865 0.23904 0.00777 0.0
H146 H 0.51952 0.24838 0.96542 0.0
C147 C 0.51227 0.21989 0.99738 0.0
H148 H 0.52783 0.23657 0.17254 0.0
C149 C 0.51197 0.20668 0.04894 0.0
H150 H 0.50702 0.1919 0.03884 0.0
H151 H 0.50786 0.21514 0.9486 0.0
Eu152 Eu 1.01887 0.03208 0.59114 0.0
Eu153 Eu 0.04589 1.01674 0.71253 0.0
C154 C 0.03925 0.06258 0.69481 0.0
C155 C 1.00374 0.06856 0.47071 0.0
C156 C 1.00242 0.08496 0.51201 0.0
C157 C 0.02206 0.0882 0.39429 0.0
C158 C 1.01156 0.10252 0.49591 0.0
C159 C 1.01287 0.07063 0.41031 0.0
C160 C 0.02216 0.10403 0.43821 0.0
C161 C 0.99969 0.04881 0.49613 0.0
O162 O 1.01585 0.02223 0.75308 0.0
O163 O 0.99709 1.01855 0.6599 0.0
C164 C 0.99871 0.01933 0.72408 0.0
O165 O 0.02342 1.00026 0.56711 0.0
O166 O 0.05543 1.01834 0.81522 0.0
O167 O 0.06648 0.99557 0.75304 0.0
O168 O 0.03063 0.98974 0.67097 0.0
C169 C 0.02606 0.98603 0.60928 0.0
O170 O 0.05001 0.03931 0.56307 0.0
O171 O 0.06668 1.01769 0.62812 0.0
O172 O 0.05214 0.04925 0.71143 0.0
O173 O 1.01341 0.0361 0.48637 0.0
O174 O 0.9932 0.04787 0.55559 0.0
O175 O 0.02372 0.05801 0.65872 0.0
C176 C 0.0553 0.9861 0.85498 0.0
C177 C 0.03523 0.98644 0.86772 0.0
C178 C 0.05664 0.95293 0.89598 0.0
C179 C 0.02582 0.97004 0.89234 0.0
C180 C 0.06606 0.9694 0.87088 0.0
C181 C 0.03629 0.95289 0.90494 0.0
C182 C 0.06367 1.00125 0.81298 0.0
C183 C 0.06591 0.02938 0.57727 0.0
H184 H 0.99548 0.08393 0.55897 0.0
H185 H 0.02975 0.08915 0.34867 0.0
H186 H 1.01135 0.1145 0.53062 0.0
H187 H 1.01408 0.05826 0.37754 0.0
H188 H 0.02649 0.99898 0.85483 0.0
H189 H 0.06518 0.94003 0.90634 0.0
H190 H 1.01012 0.97051 0.89779 0.0
H191 H 0.0815 0.96874 0.86058 0.0
Eu192 Eu 0.54202 0.03682 0.71755 0.0
Eu193 Eu 0.52296 1.00866 0.60476 0.0
C194 C 0.53812 0.99043 0.73955 0.0
C195 C 0.57623 0.07242 0.80139 0.0
C196 C 0.59083 0.06761 0.75739 0.0
C197 C 0.59709 0.09821 0.84636 0.0
C198 C 0.60874 0.07747 0.7596 0.0
C199 C 0.5792 0.08812 0.84459 0.0
C200 C 0.61233 0.09255 0.80538 0.0
C201 C 0.55819 0.06072 0.80281 0.0
O202 O 0.49866 1.01253 0.67666 0.0
O203 O 0.50924 0.04031 0.72949 0.0
C204 C 0.49538 0.0274 0.7154 0.0
O205 O 0.54263 0.05359 0.62307 0.0
O206 O 0.50476 0.9837 0.57461 0.0
O207 O 0.5175 1.00224 0.50133 0.0
O208 O 0.51513 0.03981 0.57872 0.0
C209 C 0.52781 0.05429 0.58151 0.0
O210 O 0.56864 0.02527 0.6658 0.0
O211 O 0.55424 1.0121 0.57264 0.0
O212 O 0.5381 0.98822 0.67563 0.0
O213 O 0.54442 0.06588 0.76136 0.0
O214 O 0.5606 0.04183 0.80403 0.0
O215 O 0.5358 1.00778 0.76584 0.0
C216 C 0.48393 0.99497 0.48896 0.0
C217 C 0.48214 1.00776 0.43553 0.0
C218 C 0.45004 1.00131 0.51518 0.0
C219 C 0.46493 1.01811 0.42468 0.0
C220 C 0.46735 0.99108 0.52655 0.0
C221 C 0.44907 1.01558 0.46621 0.0
C222 C 0.50364 0.98967 0.51401 0.0
C223 C 0.5699 1.0178 0.60652 0.0
H224 H 0.58866 0.05571 0.72296 0.0
H225 H 0.5992 0.10997 0.88138 0.0
H226 H 0.62011 0.07242 0.7279 0.0
H227 H 0.5679 0.09223 0.8781 0.0
H228 H 0.49454 1.01094 0.40522 0.0
H229 H 0.4379 0.99897 0.5474 0.0
H230 H 0.46429 0.02871 0.38546 0.0
H231 H 0.46814 0.98122 0.56785 0.0
Eu232 Eu 0.51224 0.52927 0.69938 0.0
Eu233 Eu 0.54486 0.51225 0.60039 0.0
C234 C 0.55704 0.52638 0.74549 0.0
C235 C 0.47995 0.56469 0.78499 0.0
C236 C 0.49177 0.57994 0.7624 0.0
C237 C 0.45731 0.58837 0.82718 0.0
C238 C 0.48642 0.59929 0.77205 0.0
C239 C 0.46264 0.56895 0.81707 0.0
C240 C 0.46916 0.60373 0.80473 0.0
C241 C 0.48529 0.54443 0.77183 0.0
O242 O 0.52997 0.4855 0.64265 0.0
O243 O 0.51751 0.4987 0.73599 0.0
C244 C 0.52268 0.48349 0.70134 0.0
O245 O 0.49629 0.51343 0.61641 0.0
O246 O 0.57537 0.50791 0.57449 0.0
O247 O 0.552 0.49602 0.51266 0.0
O248 O 0.51834 0.52004 0.53808 0.0
C249 C 0.50034 0.51602 0.5546 0.0
O250 O 0.51935 0.55476 0.63404 0.0
O251 O 0.54839 0.54503 0.59048 0.0
O252 O 0.55864 0.51241 0.70195 0.0
O253 O 0.48227 0.5388 0.71151 0.0
O254 O 0.50231 0.53897 0.79484 0.0
O255 O 0.54175 0.53786 0.74404 0.0
C256 C 0.58014 0.47709 0.52632 0.0
C257 C 0.57142 0.46147 0.55923 0.0
C258 C 0.60496 0.45517 0.48716 0.0
C259 C 0.57895 0.44271 0.5542 0.0
C260 C 0.59722 0.47396 0.49161 0.0
C261 C 0.59557 0.43918 0.51677 0.0
C262 C 0.57076 0.49629 0.52575 0.0
C263 C 0.53526 0.55852 0.60127 0.0
H264 H 0.50519 0.57685 0.7375 0.0
H265 H 0.44392 0.59137 0.85238 0.0
H266 H 0.49606 0.61078 0.75535 0.0
H267 H 0.45327 0.55729 0.83417 0.0
H268 H 0.55831 0.46367 0.58672 0.0
H269 H 0.61799 0.4531 0.45899 0.0
H270 H 0.57105 0.43087 0.57693 0.0
H271 H 0.60427 0.48592 0.46653 0.0
Eu272 Eu 0.03594 0.54046 0.58506 0.0
Eu273 Eu 0.02061 0.51241 0.70048 0.0
C274 C 0.06681 0.51974 0.6851 0.0
C275 C 0.06724 0.55157 0.44949 0.0
C276 C 0.07147 0.53162 0.45395 0.0
C277 C 0.09694 0.55663 0.38924 0.0
C278 C 0.0884 0.52427 0.42749 0.0
C279 C 0.07992 0.56405 0.41637 0.0
C280 C 0.10151 0.5367 0.39566 0.0
C281 C 0.05128 0.55914 0.48833 0.0
O282 O 1.01375 0.54325 0.73272 0.0
O283 O 0.03626 0.56012 0.67392 0.0
C284 C 0.02429 0.55907 0.72301 0.0
O285 O 1.00365 0.54705 0.58963 0.0
O286 O 1.01518 0.5065 0.8035 0.0
O287 O 1.00438 0.48637 0.72923 0.0
O288 O 0.99558 0.51694 0.62761 0.0
C289 C 0.99045 0.53345 0.60007 0.0
O290 O 0.02972 0.51066 0.54003 0.0
O291 O 0.03441 0.49149 0.63001 0.0
O292 O 0.05274 0.51655 0.72661 0.0
O293 O 0.03479 0.54947 0.48262 0.0
O294 O 0.0562 0.56253 0.54935 0.0
O295 O 0.06287 0.52504 0.62445 0.0
C296 C 0.98268 0.49619 0.80852 0.0
C297 C 0.97231 0.51072 0.77475 0.0
C298 C 0.95469 0.49085 0.87701 0.0
C299 C 0.95336 0.51526 0.79138 0.0
C300 C 0.97376 0.48609 0.85944 0.0
C301 C 0.94444 0.5057 0.84354 0.0
C302 C 1.0028 0.49243 0.78939 0.0
C303 C 0.03317 0.49349 0.56616 0.0
H304 H 0.06212 0.5218 0.48067 0.0
H305 H 0.10667 0.56654 0.36438 0.0
H306 H 0.09159 0.50897 0.43472 0.0
H307 H 0.077 0.57953 0.41339 0.0
H308 H 0.979 0.51884 0.73586 0.0
H309 H 0.94821 0.48336 0.91785 0.0
H310 H 0.94579 0.52649 0.76382 0.0
H311 H 0.98161 0.47486 0.8861 0.0
H312 H 0.22448 1.01804 0.22977 0.0
H313 H 0.19937 1.01721 0.31401 0.0
H314 H 0.16077 0.05024 0.18782 0.0
H315 H 0.18552 0.05102 0.10404 0.0
H316 H 0.17979 0.04574 0.38212 0.0
H317 H 0.12645 1.00379 0.22867 0.0
H318 H 0.15171 1.00665 0.20697 0.0
H319 H 0.13447 0.02574 0.18956 0.0
C320 C 0.21068 0.02521 0.22016 0.0
C321 C 0.20698 0.03429 0.15937 0.0
C322 C 0.19628 0.02468 0.26835 0.0
C323 C 0.17785 0.03321 0.2569 0.0
C324 C 0.17452 0.04297 0.19739 0.0
H325 H 0.06884 0.04928 0.46102 0.0
H326 H 0.09646 0.05033 0.38707 0.0
C327 C 0.18879 0.04343 0.14936 0.0
C328 C 0.16203 0.03199 0.30649 0.0
H329 H 0.11414 1.01846 0.32504 0.0
C330 C 0.1655 0.03961 0.36977 0.0
C331 C 0.14329 0.02396 0.2909 0.0
C332 C 0.13878 1.01439 0.22557 0.0
C333 C 0.15067 0.03999 0.4167 0.0
C334 C 0.13183 0.03235 0.40047 0.0
C335 C 0.12846 0.02449 0.33758 0.0
C336 C 0.11536 0.03238 0.44765 0.0
C337 C 0.15512 0.04911 0.48272 0.0
C338 C 0.11659 0.0219 0.50665 0.0
C339 C 0.10074 0.02121 0.54914 0.0
C340 C 0.08319 0.03099 0.53379 0.0
C341 C 0.08207 0.04163 0.47491 0.0
C342 C 0.09789 0.04221 0.43232 0.0
H343 H 0.16851 0.05841 0.48222 0.0
H344 H 0.14271 0.0581 0.49885 0.0
H345 H 0.15751 0.03739 0.51932 0.0
H346 H 0.1297 1.01387 0.5193 0.0
H347 H 0.10219 1.01278 0.5937 0.0
H348 H 0.53057 0.17469 0.10263 0.0
H349 H 0.53092 0.14934 0.18571 0.0
H350 H 0.50989 0.19035 0.32742 0.0
H351 H 0.50859 0.21579 0.24307 0.0
H352 H 0.55104 0.14622 0.29727 0.0
H353 H 0.47196 0.14552 0.35115 0.0
H354 H 0.48172 0.15837 0.28208 0.0
H355 H 0.48364 0.16889 0.36274 0.0
C356 C 0.52569 0.17835 0.15112 0.0
C357 C 0.51921 0.19732 0.16551 0.0
C358 C 0.52606 0.1638 0.19892 0.0
C359 C 0.52008 0.16771 0.2628 0.0
C360 C 0.51413 0.18676 0.27816 0.0
H361 H 0.54875 0.08848 0.58563 0.0
H362 H 0.54636 0.11621 0.51128 0.0
C363 C 0.51365 0.2014 0.23001 0.0
C364 C 0.52059 0.15179 0.31281 0.0
H365 H 0.49232 0.12549 0.41757 0.0
C366 C 0.53818 0.14174 0.3236 0.0
C367 C 0.50377 0.14564 0.34661 0.0
C368 C 0.48415 0.15502 0.33476 0.0
C369 C 0.53945 0.12584 0.36687 0.0
C370 C 0.52279 0.12003 0.40207 0.0
C371 C 0.50515 0.13001 0.39117 0.0
C372 C 0.52339 0.1035 0.44969 0.0
C373 C 0.55855 0.11507 0.3728 0.0
C374 C 0.51071 0.08732 0.44187 0.0
C375 C 0.51187 0.07144 0.48506 0.0
C376 C 0.52575 0.0714 0.53707 0.0
C377 C 0.53805 0.08785 0.54573 0.0
C378 C 0.53678 0.10373 0.50292 0.0
H379 H 0.56776 0.11753 0.32949 0.0
H380 H 0.56687 0.12046 0.41661 0.0
H381 H 0.55606 0.09913 0.37829 0.0
H382 H 0.50016 0.0868 0.40151 0.0
H383 H 0.50212 0.05907 0.47699 0.0
H384 H 0.34185 0.51942 0.19113 0.0
H385 H 0.36793 0.51556 0.27437 0.0
H386 H 0.41122 0.52383 0.12703 0.0
H387 H 0.38533 0.52759 0.04361 0.0
H388 H 0.39951 0.48966 0.28698 0.0
H389 H 0.42612 0.56592 0.26192 0.0
H390 H 0.40293 0.55766 0.22752 0.0
H391 H 0.42524 0.55243 0.18644 0.0
C392 C 0.35691 0.52013 0.17616 0.0
C393 C 0.36141 0.52402 0.11052 0.0
C394 C 0.37183 0.51802 0.22398 0.0
C395 C 0.39158 0.51983 0.20739 0.0
C396 C 0.39612 0.52289 0.14151 0.0
H397 H 0.50328 0.52068 0.42178 0.0
H398 H 0.4769 0.52055 0.33873 0.0
C399 C 0.38125 0.52501 0.09375 0.0
C400 C 0.40743 0.51886 0.25888 0.0
H401 H 0.44552 0.54497 0.32814 0.0
C402 C 0.40952 0.50178 0.29619 0.0
C403 C 0.42053 0.53468 0.27112 0.0
C404 C 0.41854 0.55379 0.23514 0.0
C405 C 0.42456 0.49992 0.34411 0.0
C406 C 0.43772 0.51571 0.35606 0.0
C407 C 0.43555 0.53282 0.31894 0.0
C408 C 0.45381 0.51491 0.40684 0.0
C409 C 0.42653 0.48086 0.38028 0.0
C410 C 0.44972 0.51187 0.47314 0.0
C411 C 0.46481 0.51189 0.52087 0.0
C412 C 0.48438 0.51509 0.50354 0.0
C413 C 0.48843 0.5181 0.43707 0.0
C414 C 0.47333 0.51806 0.38941 0.0
H415 H 0.41905 0.46869 0.35337 0.0
H416 H 0.44213 0.47704 0.38839 0.0
H417 H 0.41969 0.48222 0.42874 0.0
H418 H 0.43478 0.50986 0.48828 0.0
H419 H 0.46108 0.50969 0.57153 0.0
H420 H 1.01086 0.36478 0.11374 0.0
H421 H 1.01077 0.38921 0.20131 0.0
H422 H 0.06289 0.36413 0.28703 0.0
H423 H 0.06327 0.33977 0.19875 0.0
H424 H 1.0099 0.38615 0.33966 0.0
H425 H 0.07835 0.42185 0.25798 0.0
H426 H 0.0647 0.40462 0.20743 0.0
H427 H 0.07995 0.39613 0.27397 0.0
C428 C 0.0223 0.36439 0.1513 0.0
C429 C 0.03718 0.35036 0.14866 0.0
C430 C 0.02217 0.37835 0.20158 0.0
C431 C 0.037 0.37878 0.2503 0.0
C432 C 0.05145 0.36433 0.24945 0.0
H433 H 0.03504 0.45465 0.60023 0.0
H434 H 0.03649 0.42629 0.52706 0.0
C435 C 0.05153 0.35026 0.19928 0.0
C436 C 0.03756 0.39475 0.30042 0.0
H437 H 0.06411 0.43471 0.35259 0.0
C438 C 0.02181 0.39669 0.34279 0.0
C439 C 0.05298 0.4087 0.30405 0.0
C440 C 0.06991 0.40792 0.25819 0.0
C441 C 0.02107 0.41212 0.38846 0.0
C442 C 0.03656 0.42599 0.39241 0.0
C443 C 0.05231 0.42403 0.35006 0.0
C444 C 0.03623 0.44317 0.43771 0.0
C445 C 1.00339 0.41381 0.43074 0.0
C446 C 0.03613 0.46219 0.41228 0.0
C447 C 0.03534 0.47844 0.45397 0.0
C448 C 0.03479 0.47611 0.52239 0.0
C449 C 0.03536 0.45704 0.54791 0.0
C450 C 0.03606 0.44077 0.50603 0.0
H451 H 0.99097 0.40465 0.41203 0.0
H452 H 1.00725 0.4089 0.48106 0.0
H453 H 0.99852 0.4292 0.43363 0.0
H454 H 0.03637 0.46448 0.35987 0.0
H455 H 0.03506 0.49285 0.43237 0.0
H456 H 0.87164 0.99669 0.17539 0.0
H457 H 0.89873 1.00177 0.1012 0.0
H458 H 0.85767 1.01569 0.94518 0.0
H459 H 0.83055 1.01121 0.02012 0.0
H460 H 0.90781 0.98234 0.99671 0.0
H461 H 0.89593 0.05877 0.91938 0.0
H462 H 0.88304 0.04797 0.98637 0.0
H463 H 0.87498 0.04346 0.90308 0.0
C464 C 0.86839 1.00114 0.12552 0.0
C465 C 0.84887 1.00364 0.10394 0.0
C466 C 0.88393 1.004 0.08291 0.0
C467 C 0.88047 1.00935 0.01724 0.0
C468 C 0.86096 1.01211 0.99578 0.0
H469 H 0.95993 1.01652 0.68397 0.0
H470 H 0.93104 1.01386 0.75268 0.0
C471 C 0.84539 1.0095 0.03874 0.0
C472 C 0.89723 1.0109 0.97108 0.0
H473 H 0.91936 0.04083 0.86014 0.0
C474 C 0.91031 0.99521 0.96721 0.0
C475 C 0.90067 0.02761 0.93191 0.0
C476 C 0.88803 0.04548 0.93576 0.0
C477 C 0.92648 0.99574 0.92575 0.0
C478 C 0.92987 1.0124 0.88674 0.0
C479 C 0.91673 0.028 0.88972 0.0
C480 C 0.9474 1.01413 0.84457 0.0
C481 C 0.93979 0.97834 0.92355 0.0
C482 C 0.96626 1.01536 0.87308 0.0
C483 C 0.98277 1.01703 0.83403 0.0
C484 C 0.98094 1.01738 0.76517 0.0
C485 C 0.96199 1.01619 0.73666 0.0
C486 C 0.94542 1.01472 0.77594 0.0
H487 H 0.93296 0.96514 0.94511 0.0
H488 H 0.94379 0.97501 0.87239 0.0
H489 H 0.95347 0.9817 0.95185 0.0
H490 H 0.96821 1.0152 0.92584 0.0
H491 H 0.997 1.01813 0.85812 0.0
H492 H 0.57411 0.85973 0.17652 0.0
H493 H 0.57249 0.88515 0.09295 0.0
H494 H 0.51995 0.85876 0.01071 0.0
H495 H 0.52114 0.83353 0.0955 0.0
H496 H 0.57229 0.8842 0.95698 0.0
H497 H 0.503 0.91479 0.04697 0.0
H498 H 0.51726 0.89742 0.09352 0.0
H499 H 0.50185 0.88931 0.02612 0.0
C500 C 0.56216 0.85931 0.14078 0.0
C501 C 0.54762 0.84465 0.14345 0.0
C502 C 0.56133 0.87383 0.09269 0.0
C503 C 0.5459 0.87415 0.04613 0.0
C504 C 0.5318 0.85909 0.04683 0.0
H505 H 0.54188 0.95191 0.70393 0.0
H506 H 0.54386 0.92338 0.77557 0.0
C507 C 0.53263 0.84451 0.09495 0.0
C508 C 0.54442 0.89055 0.99831 0.0
H509 H 0.51577 0.92898 0.95171 0.0
C510 C 0.55989 0.89394 0.95563 0.0
C511 C 0.52838 0.90348 0.99708 0.0
C512 C 0.51174 0.90125 0.04369 0.0
C513 C 0.55974 0.9098 0.91185 0.0
C514 C 0.54356 0.92255 0.90998 0.0
C515 C 0.52811 0.91917 0.95271 0.0
C516 C 0.54263 0.93988 0.86581 0.0
C517 C 0.57718 0.91308 0.86932 0.0
C518 C 0.54091 0.95871 0.89229 0.0
C519 C 0.53967 0.97507 0.85143 0.0
C520 C 0.54002 0.97302 0.78288 0.0
C521 C 0.54171 0.95412 0.75641 0.0
C522 C 0.54294 0.93775 0.7974 0.0
H523 H 0.59023 0.90511 0.88793 0.0
H524 H 0.57365 0.90771 0.81909 0.0
H525 H 0.58093 0.92885 0.86629 0.0
H526 H 0.54057 0.96078 0.94483 0.0
H527 H 0.53833 0.98934 0.87374 0.0
H528 H 0.67328 0.56869 0.23439 0.0
H529 H 0.64873 0.56444 0.14679 0.0
H530 H 0.68141 0.51663 0.06855 0.0
H531 H 0.70582 0.52034 0.15776 0.0
H532 H 0.65211 0.56711 0.01384 0.0
H533 H 0.62697 0.49264 0.07995 0.0
H534 H 0.64203 0.5075 0.13447 0.0
H535 H 0.65278 0.49479 0.06741 0.0
C536 C 0.67516 0.55704 0.19925 0.0
C537 C 0.6915 0.54469 0.20401 0.0
C538 C 0.66114 0.55474 0.14869 0.0
C539 C 0.66295 0.54002 0.1014 0.0
C540 C 0.6794 0.52786 0.1051 0.0
H541 H 0.59039 0.50497 0.76292 0.0
H542 H 0.61599 0.50874 0.84755 0.0
C543 C 0.6935 0.53014 0.15583 0.0
C544 C 0.64774 0.53774 0.048 0.0
H545 H 0.61395 0.50581 0.98139 0.0
C546 C 0.64375 0.5537 1.00688 0.0
C547 C 0.63676 0.52027 0.03866 0.0
C548 C 0.63967 0.50286 0.08274 0.0
C549 C 0.62935 0.55262 0.95646 0.0
C550 C 0.61829 0.53519 0.94739 0.0
C551 C 0.62236 0.51918 0.98823 0.0
C552 C 0.60256 0.53319 0.89555 0.0
C553 C 0.62642 0.57004 0.91244 0.0
C554 C 0.58625 0.54554 0.89434 0.0
C555 C 0.5715 0.54344 0.8457 0.0
C556 C 0.57266 0.52885 0.79731 0.0
C557 C 0.58895 0.51641 0.7991 0.0
C558 C 0.60365 0.51852 0.84766 0.0
H559 H 0.63933 0.58001 0.91412 0.0
H560 H 0.62359 0.56541 0.86092 0.0
H561 H 0.61361 0.57838 0.92888 0.0
H562 H 0.58479 0.5567 0.93146 0.0
H563 H 0.55915 0.5532 0.84626 0.0
H564 H 1.00211 0.67361 0.21085 0.0
H565 H 1.00298 0.6504 0.12017 0.0
H566 H 0.03673 0.69142 0.00886 0.0
H567 H 0.03628 0.71473 0.10053 0.0
H568 H 0.98956 0.65394 0.98992 0.0
H569 H 0.06973 0.64151 1.00285 0.0
H570 H 0.0569 0.65329 0.068 0.0
H571 H 0.06231 0.6665 0.99476 0.0
C572 C 1.00989 0.67771 0.16737 0.0
C573 C 1.01936 0.69601 0.16359 0.0
C574 C 1.01025 0.66442 0.11525 0.0
C575 C 1.02017 0.66895 0.05787 0.0
C576 C 0.02927 0.68739 0.05302 0.0
H577 H 0.04237 0.595 0.71581 0.0
H578 H 0.04071 0.62229 0.79296 0.0
C579 C 0.02884 0.7008 0.10527 0.0
C580 C 0.02084 0.65424 1.00373 0.0
H581 H 0.05175 0.6247 0.92026 0.0
C582 C 1.00317 0.6476 0.97455 0.0
C583 C 0.03858 0.64595 0.98332 0.0
C584 C 0.05798 0.65201 0.01403 0.0
C585 C 1.00275 0.63299 0.92584 0.0
C586 C 1.02045 0.62431 0.90662 0.0
C587 C 0.03815 0.63123 0.93489 0.0
C588 C 0.02091 0.6078 0.85844 0.0
C589 C 0.9833 0.62722 0.8948 0.0
C590 C 1.01047 0.59037 0.86932 0.0
C591 C 1.01129 0.57473 0.82497 0.0
C592 C 0.02278 0.57601 0.76885 0.0
C593 C 0.03331 0.59344 0.75822 0.0
C594 C 0.03241 0.6091 0.80249 0.0
H595 H 0.97243 0.63907 0.8991 0.0
H596 H 0.98477 0.62353 0.84222 0.0
H597 H 0.97746 0.61422 0.92031 0.0
H598 H 1.00189 0.58869 0.91281 0.0
H599 H 1.00312 0.56153 0.8353 0.0
H600 H 0.10586 0.24105 0.13893 0.0
H601 H 0.11023 0.21754 0.22809 0.0
H602 H 0.05613 0.2364 0.31069 0.0
H603 H 0.05224 0.26041 0.22381 0.0
H604 H 0.081 0.21895 0.40398 0.0
H605 H 0.07169 0.17426 0.17632 0.0
H606 H 0.09354 0.18887 0.18278 0.0
H607 H 0.0701 0.20044 0.17534 0.0
C608 C 0.09553 0.24088 0.17828 0.0
C609 C 0.07852 0.25216 0.17413 0.0
C610 C 0.09796 0.22741 0.22894 0.0
C611 C 0.08309 0.22475 0.27428 0.0
C612 C 0.06768 0.23809 0.27574 0.0
H613 H 1.01229 0.14235 0.45354 0.0
H614 H 0.03199 0.17113 0.42735 0.0
C615 C 0.06546 0.25183 0.22601 0.0
C616 C 0.08064 0.20584 0.30798 0.0
H617 H 0.06737 0.15865 0.27516 0.0
C618 C 0.07845 0.20563 0.37614 0.0
C619 C 0.07708 0.18852 0.27128 0.0
C620 C 0.07805 0.18794 0.19742 0.0
C621 C 0.07201 0.18872 0.4082 0.0
C622 C 0.06754 0.17179 0.37087 0.0
C623 C 0.0709 0.17168 0.30355 0.0
C624 C 0.05721 0.1547 0.398 0.0
C625 C 0.06952 0.18927 0.48129 0.0
C626 C 0.0648 0.13594 0.38966 0.0
C627 C 0.05347 0.11951 0.40359 0.0
C628 C 0.03432 0.12156 0.42588 0.0
C629 C 0.02701 0.14036 0.43658 0.0
C630 C 0.03834 0.1568 0.42236 0.0
H631 H 0.07942 0.20031 0.50483 0.0
H632 H 0.05426 0.19338 0.49184 0.0
H633 H 0.07241 0.1748 0.50367 0.0
H634 H 0.07926 0.13402 0.37034 0.0
H635 H 0.05963 0.10519 0.39628 0.0
H636 H 0.29816 0.04657 0.25748 0.0
H637 H 0.3198 0.05336 0.35065 0.0
H638 H 0.33914 0.10665 0.25905 0.0
H639 H 0.31815 0.09911 0.16349 0.0
H640 H 0.36721 0.08353 0.26689 0.0
H641 H 0.33601 0.08164 0.51056 0.0
H642 H 0.32513 0.06175 0.46557 0.0
H643 H 0.321 0.08651 0.43855 0.0
C644 C 0.30628 0.06024 0.25877 0.0
C645 C 0.30684 0.07216 0.20323 0.0
C646 C 0.31857 0.06427 0.3126 0.0
C647 C 0.3313 0.0805 0.31205 0.0
C648 C 0.32956 0.09399 0.26052 0.0
H649 H 0.44961 0.0552 0.46044 0.0
H650 H 0.42179 0.07685 0.44105 0.0
C651 C 0.3176 0.08969 0.20591 0.0
C652 C 0.34963 0.07979 0.35232 0.0
H653 H 0.367 0.06242 0.49862 0.0
C654 C 0.36725 0.07972 0.31836 0.0
C655 C 0.34986 0.07485 0.4195 0.0
C656 C 0.33193 0.07642 0.46049 0.0
C657 C 0.38446 0.07253 0.3471 0.0
C658 C 0.38412 0.06554 0.41208 0.0
C659 C 0.3671 0.06751 0.44842 0.0
C660 C 0.40026 0.05351 0.43836 0.0
C661 C 0.40232 0.07071 0.30544 0.0
C662 C 0.39718 0.03338 0.44632 0.0
C663 C 0.41299 0.02102 0.45766 0.0
C664 C 0.43209 0.02865 0.46057 0.0
C665 C 0.43502 0.04895 0.45668 0.0
C666 C 0.41918 0.06132 0.44617 0.0
H667 H 0.39923 0.07442 0.25333 0.0
H668 H 0.41395 0.08077 0.32431 0.0
H669 H 0.40806 0.05562 0.30761 0.0
H670 H 0.38265 0.0271 0.44018 0.0
H671 H 0.41039 1.00544 0.46099 0.0
H672 H 0.54971 0.27838 0.26822 0.0
H673 H 0.56603 0.29348 0.3638 0.0
H674 H 0.59981 0.33003 0.23634 0.0
H675 H 0.58493 0.31389 0.14132 0.0
H676 H 0.61995 0.32393 0.34532 0.0
H677 H 0.54415 0.34507 0.40887 0.0
H678 H 0.54928 0.31949 0.41179 0.0
H679 H 0.54916 0.3321 0.33461 0.0
C680 C 0.56114 0.28912 0.2606 0.0
C681 C 0.56551 0.29545 0.19712 0.0
C682 C 0.57027 0.29793 0.31536 0.0
C683 C 0.58348 0.31353 0.30733 0.0
C684 C 0.58941 0.31828 0.24403 0.0
H685 H 0.60938 0.42451 0.40212 0.0
H686 H 0.61192 0.39044 0.37103 0.0
C687 C 0.58068 0.3092 0.18956 0.0
C688 C 0.58913 0.32687 0.36224 0.0
H689 H 0.56975 0.36182 0.46017 0.0
C690 C 0.60898 0.33191 0.37161 0.0
C691 C 0.57483 0.33732 0.39686 0.0
C692 C 0.55317 0.33338 0.38743 0.0
C693 C 0.61475 0.34806 0.41019 0.0
C694 C 0.60033 0.35924 0.44067 0.0
C695 C 0.58074 0.35311 0.43665 0.0
C696 C 0.60434 0.37916 0.46594 0.0
C697 C 0.63607 0.35371 0.41521 0.0
C698 C 0.59984 0.38416 0.53038 0.0
C699 C 0.59865 0.40377 0.54883 0.0
C700 C 0.60144 0.41872 0.50262 0.0
C701 C 0.60736 0.41355 0.43945 0.0
C702 C 0.60883 0.39398 0.42143 0.0
H703 H 0.64559 0.34094 0.40697 0.0
H704 H 0.63926 0.36476 0.37721 0.0
H705 H 0.63979 0.3602 0.46386 0.0
H706 H 0.5962 0.37291 0.5653 0.0
H707 H 0.59453 0.40718 0.59837 0.0
H708 H 0.26661 0.52061 0.19093 0.0
H709 H 0.24193 0.51863 0.27444 0.0
H710 H 0.22448 0.46155 0.20368 0.0
H711 H 0.24914 0.46359 0.11935 0.0
H712 H 0.19807 0.49062 0.17694 0.0
H713 H 0.22009 0.49354 0.43921 0.0
H714 H 0.23398 0.50997 0.38982 0.0
H715 H 0.23583 0.48407 0.37698 0.0
C716 C 0.25834 0.50715 0.19568 0.0
C717 C 0.25943 0.4924 0.1481 0.0
C718 C 0.24424 0.50599 0.24373 0.0
C719 C 0.23126 0.49001 0.24483 0.0
C720 C 0.23437 0.47399 0.20356 0.0
H721 H 0.10793 0.50128 0.33821 0.0
H722 H 0.13917 0.48734 0.30889 0.0
C723 C 0.24841 0.47518 0.15534 0.0
C724 C 0.21178 0.49276 0.27281 0.0
H725 H 0.18856 0.50721 0.41025 0.0
C726 C 0.19587 0.49375 0.22831 0.0
C727 C 0.20911 0.49726 0.3394 0.0
C728 C 0.22565 0.49599 0.38923 0.0
C729 C 0.17756 0.50013 0.24779 0.0
C730 C 0.17495 0.50509 0.31416 0.0
C731 C 0.19065 0.5034 0.35935 0.0
C732 C 0.15623 0.51295 0.33652 0.0
C733 C 0.16157 0.50259 0.19623 0.0
C734 C 0.15556 0.53178 0.36337 0.0
C735 C 0.13774 0.53968 0.38149 0.0
C736 C 0.12029 0.52886 0.37285 0.0
C737 C 0.12109 0.50996 0.34599 0.0
C738 C 0.13892 0.50201 0.32873 0.0
H739 H 0.16747 0.50304 0.14605 0.0
H740 H 0.15123 0.49005 0.19848 0.0
H741 H 0.15328 0.5162 0.20445 0.0
H742 H 0.1688 0.54044 0.36978 0.0
H743 H 0.1377 0.5541 0.4033 0.0
H744 H 1.00829 0.78839 0.08645 0.0
H745 H 1.00465 0.81454 1.00657 0.0
H746 H 0.9525 0.83369 0.10088 0.0
H747 H 0.95629 0.80768 0.18174 0.0
H748 H 0.97569 0.83867 0.92448 0.0
H749 H 1.00031 0.86919 0.16669 0.0
H750 H 0.99958 0.84333 0.15082 0.0
H751 H 0.97731 0.8563 0.1635 0.0
C752 C 0.99535 0.79737 0.08761 0.0
C753 C 0.98283 0.79644 0.14092 0.0
C754 C 0.99329 0.81235 0.04191 0.0
C755 C 0.97863 0.82629 0.04923 0.0
C756 C 0.96401 0.82312 0.09504 0.0
H757 H 1.00537 0.94914 0.98692 0.0
H758 H 0.98719 0.91947 0.01289 0.0
C759 C 0.96617 0.80826 0.14114 0.0
C760 C 0.98233 0.8462 0.02495 0.0
H761 H 1.00196 0.88965 0.07662 0.0
C762 C 0.9811 0.84999 0.95761 0.0
C763 C 0.98956 0.86082 0.06857 0.0
C764 C 0.99194 0.85729 0.14137 0.0
C765 C 0.98727 0.86805 0.93254 0.0
C766 C 0.99526 0.88232 0.97602 0.0
C767 C 0.99577 0.87871 0.04347 0.0
C768 C 1.00465 0.90054 0.95328 0.0
C769 C 0.98534 0.87158 0.85988 0.0
C770 C 0.0206 0.89973 0.91152 0.0
C771 C 0.03092 0.9167 0.89607 0.0
C772 C 0.02568 0.93477 0.92295 0.0
C773 C 1.00968 0.93551 0.96482 0.0
C774 C 0.99926 0.91857 0.9797 0.0
H775 H 0.97323 0.86271 0.83759 0.0
H776 H 0.98268 0.88722 0.84904 0.0
H777 H 0.99907 0.86723 0.83624 0.0
H778 H 0.0254 0.8859 0.89212 0.0
H779 H 0.04294 0.91565 0.86279 0.0
H780 H 0.76591 0.03562 0.01289 0.0
H781 H 0.75327 0.05528 0.92265 0.0
H782 H 0.72631 0.09384 0.06066 0.0
H783 H 0.74058 0.07554 0.15074 0.0
H784 H 0.71814 0.0559 0.89501 0.0
H785 H 0.73684 0.13299 0.92796 0.0
H786 H 0.7502 0.11428 0.97154 0.0
H787 H 0.72848 0.12479 1.00545 0.0
C788 C 0.75808 0.0488 0.02426 0.0
C789 C 0.75399 0.05377 0.08939 0.0
C790 C 0.75074 0.06002 0.97234 0.0
C791 C 0.73886 0.0762 0.98433 0.0
C792 C 0.73583 0.08183 0.04943 0.0
H793 H 0.63033 0.10181 0.92235 0.0
H794 H 0.66522 0.1045 0.94414 0.0
C795 C 0.74359 0.07096 0.10126 0.0
C796 C 0.72635 0.08453 0.93106 0.0
H797 H 0.70171 0.1262 0.8926 0.0
C798 C 0.71518 0.07139 0.89233 0.0
C799 C 0.72251 0.10476 0.92625 0.0
C800 C 0.73538 0.11994 0.95965 0.0
C801 C 0.69879 0.07759 0.85609 0.0
C802 C 0.69339 0.09742 0.85898 0.0
C803 C 0.70575 0.11094 0.89137 0.0
C804 C 0.67309 0.10297 0.84245 0.0
C805 C 0.68615 0.06251 0.82075 0.0
C806 C 0.66595 0.10256 0.77761 0.0
C807 C 0.64581 0.10122 0.76469 0.0
C808 C 0.63263 0.10003 0.81657 0.0
C809 C 0.63988 0.10274 0.881 0.0
C810 C 0.65993 0.10427 0.8937 0.0
H811 H 0.69229 0.0476 0.82448 0.0
H812 H 0.67127 0.0623 0.84128 0.0
H813 H 0.68469 0.06635 0.76816 0.0
H814 H 0.67594 0.10165 0.73743 0.0
H815 H 0.64068 0.09972 0.71436 0.0
H816 H 0.51608 0.76442 0.04602 0.0
H817 H 0.4986 0.74977 0.95188 0.0
H818 H 0.46531 0.71378 0.08264 0.0
H819 H 0.48197 0.72898 0.17622 0.0
H820 H 0.50448 0.71336 0.9283 0.0
H821 H 0.425 0.72093 0.9424 0.0
H822 H 0.44168 0.73689 0.98746 0.0
H823 H 0.43417 0.71377 0.02139 0.0
C824 C 0.50442 0.754 0.05461 0.0
C825 C 0.50062 0.74755 0.11832 0.0
C826 C 0.49446 0.74562 1.00078 0.0
C827 C 0.48054 0.73071 0.00994 0.0
C828 C 0.4756 0.72554 0.07393 0.0
H829 H 0.45687 0.61881 0.92002 0.0
H830 H 0.45539 0.65319 0.95058 0.0
C831 C 0.48542 0.73399 0.12756 0.0
C832 C 0.47454 0.71757 0.95508 0.0
H833 H 0.43639 0.68852 0.90341 0.0
C834 C 0.48948 0.70843 0.92085 0.0
C835 C 0.45498 0.71116 0.945 0.0
C836 C 0.43808 0.72142 0.97566 0.0
C837 C 0.48573 0.69167 0.88304 0.0
C838 C 0.46645 0.68406 0.87865 0.0
C839 C 0.4512 0.69428 0.90749 0.0
C840 C 0.46273 0.66396 0.85471 0.0
C841 C 0.50275 0.68123 0.85337 0.0
C842 C 0.46647 0.65869 0.78988 0.0
C843 C 0.46744 0.639 0.77236 0.0
C844 C 0.46451 0.62435 0.81933 0.0
C845 C 0.45911 0.62974 0.88269 0.0
C846 C 0.45825 0.64939 0.90021 0.0
H847 H 0.51706 0.68794 0.8679 0.0
H848 H 0.50283 0.66567 0.86842 0.0
H849 H 0.5013 0.68171 0.79921 0.0
H850 H 0.4697 0.66976 0.75389 0.0
H851 H 0.47126 0.63524 0.7228 0.0
H852 H 0.8098 0.58586 0.15248 0.0
H853 H 0.83104 0.58127 0.05922 0.0
H854 H 0.80568 0.52408 0.02579 0.0
H855 H 0.78398 0.52902 0.11736 0.0
H856 H 0.85627 0.55246 0.08273 0.0
H857 H 0.81991 0.53914 0.84144 0.0
H858 H 0.80796 0.55152 0.90745 0.0
H859 H 0.80911 0.5253 0.90585 0.0
C860 C 0.80806 0.57281 0.12276 0.0
C861 C 0.79545 0.55773 0.14179 0.0
C862 C 0.82018 0.57016 0.06966 0.0
C863 C 0.82001 0.55229 0.0358 0.0
C864 C 0.80584 0.53811 0.05034 0.0
H865 H 0.91331 0.48322 0.88192 0.0
H866 H 0.88181 0.4948 0.92153 0.0
C867 C 0.79348 0.5409 0.10286 0.0
C868 C 0.83737 0.54664 0.99877 0.0
H869 H 0.85253 0.52637 0.85602 0.0
C870 C 0.85545 0.5471 0.03272 0.0
C871 C 0.83621 0.53926 0.93409 0.0
C872 C 0.81726 0.53893 0.89487 0.0
C873 C 0.87236 0.54008 1.0043 0.0
C874 C 0.87119 0.53251 0.94009 0.0
C875 C 0.85322 0.53213 0.90552 0.0
C876 C 0.88883 0.52536 0.90855 0.0
C877 C 0.89136 0.54046 0.04353 0.0
C878 C 0.90294 0.53879 0.88823 0.0
C879 C 0.92089 0.53231 0.86675 0.0
C880 C 0.92501 0.51223 0.86473 0.0
C881 C 0.9106 0.49876 0.88361 0.0
C882 C 0.89258 0.5053 0.90535 0.0
H883 H 0.88917 0.54404 0.0959 0.0
H884 H 0.89872 0.52613 0.04044 0.0
H885 H 0.9013 0.55164 0.02293 0.0
H886 H 0.90029 0.55433 0.89116 0.0
H887 H 0.93177 0.54309 0.85357 0.0
H888 H 0.02318 0.23429 0.96335 0.0
H889 H 1.01878 0.20356 0.90161 0.0
H890 H 0.0808 0.2017 0.87042 0.0
H891 H 0.08522 0.2322 0.93238 0.0
H892 H 0.05502 0.19004 0.75644 0.0
H893 H 0.03931 0.1513 0.98855 0.0
H894 H 0.02515 0.17271 0.9706 0.0
H895 H 0.05093 0.17506 0.98733 0.0
C896 C 0.03575 0.22763 0.94147 0.0
C897 C 0.05451 0.23575 0.95206 0.0
C898 C 0.03327 0.20996 0.90685 0.0
C899 C 0.0495 0.20017 0.88189 0.0
C900 C 0.06807 0.20892 0.88911 0.0
H901 H 0.0655 0.07717 0.78755 0.0
H902 H 0.06808 0.11067 0.82989 0.0
C903 C 0.07056 0.22641 0.92422 0.0
C904 C 0.0475 0.18021 0.85256 0.0
H905 H 0.03875 0.13244 0.89197 0.0
C906 C 0.05133 0.17746 0.78592 0.0
C907 C 0.04304 0.16371 0.89123 0.0
C908 C 0.03948 0.16567 0.96353 0.0
C909 C 0.05062 0.15874 0.75691 0.0
C910 C 0.04595 0.14225 0.7955 0.0
C911 C 0.04228 0.14502 0.86225 0.0
C912 C 0.04482 0.12201 0.76776 0.0
C913 C 0.05531 0.15669 0.68547 0.0
C914 C 0.03085 0.11709 0.71882 0.0
C915 C 0.02927 0.09792 0.69474 0.0
C916 C 0.04165 0.08312 0.71888 0.0
C917 C 0.05577 0.08813 0.7675 0.0
C918 C 0.05724 0.10731 0.79193 0.0
H919 H 0.06309 0.16978 0.66684 0.0
H920 H 0.06445 0.14365 0.67714 0.0
H921 H 0.0415 0.15485 0.6564 0.0
H922 H 0.02087 0.128 0.69999 0.0
H923 H 1.0182 0.0947 0.65744 0.0
H924 H 0.33587 0.07673 0.9903 0.0
H925 H 0.36581 0.0712 0.93061 0.0
H926 H 0.35113 1.01012 0.91267 0.0
H927 H 0.32107 1.01551 0.97422 0.0
H928 H 0.39587 0.04211 0.97818 0.0
H929 H 0.36851 0.02959 0.72258 0.0
H930 H 0.35479 0.04347 0.78083 0.0
H931 H 0.35623 1.01748 0.78839 0.0
C932 C 0.33882 0.06211 0.97311 0.0
C933 C 0.32603 0.04654 0.98776 0.0
C934 C 0.35601 0.05899 0.93887 0.0
C935 C 0.36087 0.04025 0.91717 0.0
C936 C 0.34769 0.02476 0.92853 0.0
H937 H 0.46424 1.00176 0.70598 0.0
H938 H 0.43218 1.00433 0.75532 0.0
C939 C 0.33042 0.02787 0.96342 0.0
C940 C 0.38033 0.03702 0.88693 0.0
H941 H 0.40257 0.02846 0.74141 0.0
C942 C 0.39733 0.03905 0.92642 0.0
C943 C 0.38231 0.0329 0.81955 0.0
C944 C 0.36457 0.03078 0.77485 0.0
C945 C 0.41616 0.03707 0.90065 0.0
C946 C 0.41826 0.03362 0.83264 0.0
C947 C 0.40117 0.03126 0.79333 0.0
C948 C 0.43796 0.03231 0.80161 0.0
C949 C 0.43359 0.03825 0.94726 0.0
C950 C 0.45208 0.04729 0.80967 0.0
C951 C 0.47064 0.04576 0.78197 0.0
C952 C 0.47553 0.02933 0.7444 0.0
C953 C 0.46118 1.0146 0.73484 0.0
C954 C 0.44271 1.01607 0.76301 0.0
H955 H 0.42948 0.03455 0.99806 0.0
H956 H 0.44535 0.02825 0.93225 0.0
H957 H 0.43948 0.05339 0.94787 0.0
H958 H 0.44875 0.0603 0.83727 0.0
H959 H 0.48112 0.05752 0.78986 0.0
H960 H 0.49935 0.31631 1.00255 0.0
H961 H 0.49462 0.34612 0.93721 0.0
H962 H 0.55676 0.34971 0.90767 0.0
H963 H 0.56147 0.32036 0.97349 0.0
H964 H 0.54291 0.3835 0.95394 0.0
H965 H 0.49638 0.35883 0.74279 0.0
H966 H 0.48684 0.35291 0.82151 0.0
H967 H 0.50919 0.34199 0.79597 0.0
C968 C 0.51187 0.32323 0.98058 0.0
C969 C 0.53077 0.31602 0.99306 0.0
C970 C 0.50919 0.34027 0.94322 0.0
C971 C 0.52534 0.35022 0.9171 0.0
C972 C 0.54406 0.34241 0.92726 0.0
H973 H 0.53199 0.44807 0.64658 0.0
H974 H 0.53161 0.41593 0.69854 0.0
C975 C 0.54674 0.32558 0.96472 0.0
C976 C 0.52324 0.36956 0.88407 0.0
H977 H 0.50191 0.393 0.75337 0.0
C978 C 0.53392 0.38553 0.91008 0.0
C979 C 0.51166 0.37228 0.82646 0.0
C980 C 0.50049 0.35558 0.79454 0.0
C981 C 0.5334 0.40401 0.88038 0.0
C982 C 0.52153 0.40686 0.82356 0.0
C983 C 0.51087 0.3909 0.79722 0.0
C984 C 0.52041 0.42623 0.79036 0.0
C985 C 0.54604 0.42019 0.9093 0.0
C986 C 0.51381 0.44274 0.82391 0.0
C987 C 0.51415 0.46119 0.79452 0.0
C988 C 0.52097 0.4636 0.73053 0.0
C989 C 0.52685 0.44689 0.69608 0.0
C990 C 0.52655 0.42843 0.72566 0.0
H991 H 0.55792 0.41443 0.94163 0.0
H992 H 0.55272 0.4291 0.87026 0.0
H993 H 0.53689 0.4299 0.93917 0.0
H994 H 0.50862 0.4414 0.87336 0.0
H995 H 0.50935 0.47361 0.82255 0.0
H996 H 0.24727 0.53736 0.9046 0.0
H997 H 0.21616 0.5408 0.84314 0.0
H998 H 0.20572 0.47887 0.85925 0.0
H999 H 0.23686 0.47537 0.91917 0.0
H1000 H 0.19261 0.49286 0.74055 0.0
H1001 H 0.16532 0.53864 0.94283 0.0
H1002 H 0.18679 0.54808 0.90473 0.0
H1003 H 0.18801 0.52554 0.94936 0.0
C1004 C 0.23866 0.52441 0.89296 0.0
C1005 C 0.24453 0.5061 0.9169 0.0
C1006 C 0.2207 0.52642 0.85877 0.0
C1007 C 0.20825 0.51017 0.84804 0.0
C1008 C 0.21489 0.49168 0.86728 0.0
H1009 H 0.08142 0.50779 0.80502 0.0
H1010 H 0.1157 0.50533 0.84099 0.0
C1011 C 0.23276 0.48967 0.90136 0.0
C1012 C 0.18783 0.51238 0.8211 0.0
H1013 H 0.14371 0.5331 0.85299 0.0
C1014 C 0.18195 0.50176 0.76491 0.0
C1015 C 0.17371 0.52365 0.85356 0.0
C1016 C 0.17864 0.5345 0.91629 0.0
C1017 C 0.16251 0.50213 0.74032 0.0
C1018 C 0.14849 0.51371 0.77205 0.0
C1019 C 0.15438 0.52431 0.82826 0.0
C1020 C 0.12757 0.51472 0.7489 0.0
C1021 C 0.15706 0.48957 0.68177 0.0
C1022 C 0.12262 0.5209 0.68514 0.0
C1023 C 0.10298 0.5222 0.66425 0.0
C1024 C 0.08771 0.51754 0.7068 0.0
C1025 C 0.0927 0.51143 0.77072 0.0
C1026 C 0.11236 0.51006 0.79147 0.0
H1027 H 0.1677 0.47763 0.67494 0.0
H1028 H 0.14226 0.48302 0.68662 0.0
H1029 H 0.15702 0.49871 0.63703 0.0
H1030 H 0.13394 0.52505 0.65166 0.0
H1031 H 0.09979 0.52714 0.61486 0.0
H1032 H 0.97842 0.8188 0.37091 0.0
H1033 H 0.98426 0.84898 0.43245 0.0
H1034 H 0.04643 0.83979 0.42538 0.0
H1035 H 0.04056 0.8096 0.36189 0.0
H1036 H 1.00196 0.85986 0.54649 0.0
H1037 H 0.04128 0.89269 0.33861 0.0
H1038 H 0.02818 0.86979 0.33147 0.0
H1039 H 0.05198 0.87078 0.3707 0.0
C1040 C 0.99335 0.82299 0.38363 0.0
C1041 C 1.00903 0.81182 0.36127 0.0
C1042 C 0.99669 0.84032 0.41875 0.0
C1043 C 1.0158 0.84705 0.43242 0.0
C1044 C 0.03153 0.83522 0.41418 0.0
H1045 H 0.03575 0.95263 0.67652 0.0
H1046 H 0.03423 0.91889 0.63715 0.0
C1047 C 0.02818 0.81778 0.3788 0.0
C1048 C 1.01892 0.86689 0.46231 0.0
H1049 H 0.03799 0.91229 0.4324 0.0
C1050 C 1.00997 0.87128 0.52175 0.0
C1051 C 0.02904 0.882 0.42961 0.0
C1052 C 0.03803 0.87872 0.3638 0.0
C1053 C 1.01068 0.89024 0.54893 0.0
C1054 C 0.02102 0.9053 0.51664 0.0
C1055 C 0.03015 0.90083 0.45755 0.0
C1056 C 0.02193 0.92593 0.54156 0.0
C1057 C 0.99965 0.89407 0.61066 0.0
C1058 C 1.01605 0.94142 0.50079 0.0
C1059 C 1.01717 0.96082 0.52291 0.0
C1060 C 0.02418 0.96531 0.58659 0.0
C1061 C 0.03005 0.94979 0.62746 0.0
C1062 C 0.02908 0.93039 0.60506 0.0
H1063 H 0.98816 0.88281 0.61851 0.0
H1064 H 1.00998 0.89369 0.65332 0.0
H1065 H 0.99265 0.90861 0.60927 0.0
H1066 H 1.01051 0.9385 0.45157 0.0
H1067 H 1.01256 0.97231 0.48988 0.0
H1068 H 0.73121 0.0534 0.31343 0.0
H1069 H 0.70251 0.05043 0.38164 0.0
H1070 H 0.70428 0.98781 0.36284 0.0
H1071 H 0.73328 0.99075 0.29451 0.0
H1072 H 0.66737 0.03589 0.34267 0.0
H1073 H 0.69442 0.99388 0.55736 0.0
H1074 H 0.71069 1.00534 0.50044 0.0
H1075 H 0.69887 0.98252 0.47986 0.0
C1076 C 0.72574 0.03894 0.32479 0.0
C1077 C 0.73462 0.02231 0.29831 0.0
C1078 C 0.70923 0.03726 0.36376 0.0
C1079 C 0.70107 0.0189 0.37792 0.0
C1080 C 0.71037 1.00216 0.35385 0.0
H1081 H 0.57844 1.00342 0.48479 0.0
H1082 H 0.60999 1.0029 0.43137 0.0
C1083 C 0.72702 1.00384 0.31477 0.0
C1084 C 0.68209 1.01764 0.41345 0.0
H1085 H 0.6601 0.99884 0.54884 0.0
C1086 C 0.66585 0.02777 0.38778 0.0
C1087 C 0.67996 1.00725 0.47281 0.0
C1088 C 0.69693 0.99676 0.50473 0.0
C1089 C 0.64771 0.02771 0.4191 0.0
C1090 C 0.64541 1.01694 0.4776 0.0
C1091 C 0.66169 1.00696 0.5038 0.0
C1092 C 0.62629 1.01612 0.51227 0.0
C1093 C 0.63125 0.0396 0.38981 0.0
C1094 C 0.62482 0.02309 0.57679 0.0
C1095 C 0.60668 0.02332 0.6079 0.0
C1096 C 0.58951 1.01647 0.57544 0.0
C1097 C 0.59119 1.00896 0.51151 0.0
C1098 C 0.6093 1.00874 0.48054 0.0
H1099 H 0.63673 0.05096 0.35597 0.0
H1100 H 0.62116 0.02982 0.36145 0.0
H1101 H 0.62281 0.04684 0.42859 0.0
H1102 H 0.63765 0.0288 0.60268 0.0
H1103 H 0.6061 0.02916 0.6571 0.0
H1104 H 0.55057 0.70795 0.23262 0.0
H1105 H 0.55404 0.67843 0.29925 0.0
H1106 H 0.5335 0.70967 0.46705 0.0
H1107 H 0.53015 0.73942 0.4004 0.0
H1108 H 0.57396 0.67372 0.44894 0.0
H1109 H 0.49435 0.65949 0.40511 0.0
H1110 H 0.50858 0.67296 0.34684 0.0
H1111 H 0.50294 0.68391 0.42371 0.0
C1112 C 0.5473 0.70866 0.28418 0.0
C1113 C 0.54015 0.72601 0.31138 0.0
C1114 C 0.54926 0.69179 0.32213 0.0
C1115 C 0.54395 0.69182 0.38798 0.0
C1116 C 0.53774 0.70936 0.41632 0.0
H1117 H 0.51485 0.59155 0.6302 0.0
H1118 H 0.51827 0.62407 0.58347 0.0
C1119 C 0.53594 0.72636 0.37839 0.0
C1120 C 0.54321 0.6731 0.4247 0.0
H1121 H 0.51208 0.63581 0.46319 0.0
C1122 C 0.56044 0.66544 0.45253 0.0
C1123 C 0.52557 0.66236 0.42932 0.0
C1124 C 0.50672 0.66994 0.3997 0.0
C1125 C 0.56045 0.64731 0.48511 0.0
C1126 C 0.54285 0.63625 0.48829 0.0
C1127 C 0.5256 0.64413 0.46088 0.0
C1128 C 0.54182 0.61652 0.51955 0.0
C1129 C 0.57927 0.64043 0.51687 0.0
C1130 C 0.5539 0.6012 0.4996 0.0
C1131 C 0.55214 0.58251 0.52705 0.0
C1132 C 0.538 0.57857 0.57428 0.0
C1133 C 0.52593 0.59393 0.59406 0.0
C1134 C 0.52785 0.61263 0.56721 0.0
H1135 H 0.58936 0.65284 0.52831 0.0
H1136 H 0.57652 0.63233 0.56278 0.0
H1137 H 0.58676 0.63056 0.48262 0.0
H1138 H 0.56442 0.60354 0.46164 0.0
H1139 H 0.56155 0.57103 0.51004 0.0
H1140 H 0.82165 0.5827 0.36046 0.0
H1141 H 0.85311 0.57975 0.41908 0.0
H1142 H 0.84037 0.51926 0.45847 0.0
H1143 H 0.80865 0.52224 0.3997 0.0
H1144 H 0.86125 0.54189 0.56636 0.0
H1145 H 0.8962 0.54795 0.32465 0.0
H1146 H 0.87943 0.56708 0.3433 0.0
H1147 H 0.87051 0.54251 0.33275 0.0
C1148 C 0.82526 0.56895 0.38358 0.0
C1149 C 0.81261 0.55274 0.37595 0.0
C1150 C 0.84334 0.56722 0.4165 0.0
C1151 C 0.8493 0.5492 0.44222 0.0
C1152 C 0.83612 0.5333 0.43889 0.0
H1153 H 0.95967 0.50814 0.61571 0.0
H1154 H 0.92561 0.51211 0.58071 0.0
C1155 C 0.81792 0.53504 0.40584 0.0
C1156 C 0.86985 0.54672 0.46716 0.0
H1157 H 0.91729 0.54788 0.41785 0.0
C1158 C 0.87351 0.54311 0.53394 0.0
C1159 C 0.8859 0.54835 0.4249 0.0
C1160 C 0.88291 0.55152 0.35229 0.0
C1161 C 0.89277 0.54153 0.55975 0.0
C1162 C 0.90884 0.54319 0.51738 0.0
C1163 C 0.90509 0.5467 0.45056 0.0
C1164 C 0.92964 0.54104 0.54073 0.0
C1165 C 0.89569 0.53865 0.6325 0.0
C1166 C 0.94362 0.55572 0.52863 0.0
C1167 C 0.96331 0.5534 0.54803 0.0
C1168 C 0.96954 0.53625 0.57964 0.0
C1169 C 0.9555 0.52158 0.59163 0.0
C1170 C 0.93587 0.5239 0.57217 0.0
H1171 H 0.88282 0.5436 0.65996 0.0
H1172 H 0.89768 0.52288 0.64265 0.0
H1173 H 0.90886 0.54666 0.65135 0.0
H1174 H 0.93928 0.56904 0.50408 0.0
H1175 H 0.97364 0.56502 0.53795 0.0
loop_
_geom_bond_atom_site_label_1
_geom_bond_atom_site_label_2
_geom_bond_distance
_geom_bond_site_symmetry_2
_ccdc_geom_bond_type
H0 C1 0.949 . S
C1 H0 0.949 . S
C1 C2 1.395 . S
C1 C3 1.391 . S
C2 C1 1.395 . S
C2 C5 1.390 . S
C3 C1 1.391 . S
C3 C7 1.387 . S
C3 C8 1.491 . S
H4 C5 0.950 . S
C5 C2 1.390 . S
C5 H4 0.950 . S
C5 C6 1.378 . S
C6 C5 1.378 . S
C6 C7 1.409 . S
C7 C3 1.387 . S
C7 C6 1.409 . S
C7 H9 0.951 . S
C8 C3 1.491 . S
C8 C10 1.382 . S
C8 C12 1.404 . S
H9 C7 0.951 . S
C10 C8 1.382 . S
C10 C11 1.390 . S
C10 H15 0.949 . S
C11 C10 1.390 . S
C11 C16 1.399 . S
C12 C8 1.404 . S
C12 H13 0.950 . S
C12 C14 1.375 . S
H13 C12 0.950 . S
C14 C12 1.375 . S
C14 C16 1.382 . S
C14 H18 0.950 . S
H15 C10 0.949 . S
C16 C11 1.399 . S
C16 C14 1.382 . S
C16 H17 0.952 . S
H17 C16 0.952 . S
H18 C14 0.950 . S
H19 C20 0.949 . S
C20 H19 0.949 . S
C20 C21 1.395 . S
C20 C22 1.391 . S
C21 C20 1.395 . S
C21 C24 1.390 . S
C22 C20 1.391 . S
C22 C26 1.387 . S
C22 C27 1.491 . S
H23 C24 0.950 . S
C24 C21 1.390 . S
C24 H23 0.950 . S
C24 C25 1.378 . S
C25 C24 1.378 . S
C25 C26 1.409 . S
C26 C22 1.387 . S
C26 C25 1.409 . S
C26 H28 0.951 . S
C27 C22 1.491 . S
C27 C29 1.382 . S
C27 C31 1.404 . S
H28 C26 0.951 . S
C29 C27 1.382 . S
C29 C30 1.390 . S
C29 H34 0.949 . S
C30 C29 1.390 . S
C30 C35 1.399 . S
C31 C27 1.404 . S
C31 H32 0.950 . S
C31 C33 1.375 . S
H32 C31 0.950 . S
C33 C31 1.375 . S
C33 C35 1.382 . S
C33 H37 0.950 . S
H34 C29 0.949 . S
C35 C30 1.399 . S
C35 C33 1.382 . S
C35 H36 0.952 . S
H36 C35 0.952 . S
H37 C33 0.950 . S
H38 C39 0.949 . S
C39 H38 0.949 . S
C39 C40 1.395 . S
C39 C41 1.391 . S
C40 C39 1.395 . S
C40 C43 1.390 . S
C41 C39 1.391 . S
C41 C45 1.387 . S
C41 C46 1.491 . S
H42 C43 0.950 . S
C43 C40 1.390 . S
C43 H42 0.950 . S
C43 C44 1.378 . S
C44 C43 1.378 . S
C44 C45 1.409 . S
C45 C41 1.387 . S
C45 C44 1.409 . S
C45 H47 0.951 . S
C46 C41 1.491 . S
C46 C48 1.382 . S
C46 C50 1.404 . S
H47 C45 0.951 . S
C48 C46 1.382 . S
C48 C49 1.390 . S
C48 H53 0.949 . S
C49 C48 1.390 . S
C49 C54 1.399 . S
C50 C46 1.404 . S
C50 H51 0.950 . S
C50 C52 1.375 . S
H51 C50 0.950 . S
C52 C50 1.375 . S
C52 C54 1.382 . S
C52 H56 0.950 . S
H53 C48 0.949 . S
C54 C49 1.399 . S
C54 C52 1.382 . S
C54 H55 0.952 . S
H55 C54 0.952 . S
H56 C52 0.950 . S
H57 C58 0.949 . S
C58 H57 0.949 . S
C58 C59 1.395 . S
C58 C60 1.391 . S
C59 C58 1.395 . S
C59 C62 1.390 . S
C60 C58 1.391 . S
C60 C64 1.387 . S
C60 C65 1.491 . S
H61 C62 0.950 . S
C62 C59 1.390 . S
C62 H61 0.950 . S
C62 C63 1.378 . S
C63 C62 1.378 . S
C63 C64 1.409 . S
C64 C60 1.387 . S
C64 C63 1.409 . S
C64 H66 0.951 . S
C65 C60 1.491 . S
C65 C67 1.382 . S
C65 C69 1.404 . S
H66 C64 0.951 . S
C67 C65 1.382 . S
C67 C68 1.390 . S
C67 H72 0.949 . S
C68 C67 1.390 . S
C68 C73 1.399 . S
C69 C65 1.404 . S
C69 H70 0.950 . S
C69 C71 1.375 . S
H70 C69 0.950 . S
C71 C69 1.375 . S
C71 C73 1.382 . S
C71 H75 0.950 . S
H72 C67 0.949 . S
C73 C68 1.399 . S
C73 C71 1.382 . S
C73 H74 0.952 . S
H74 C73 0.952 . S
H75 C71 0.950 . S
H76 C77 0.949 . S
C77 H76 0.949 . S
C77 C78 1.395 . S
C77 C79 1.391 . S
C78 C77 1.395 . S
C78 C81 1.390 . S
C79 C77 1.391 . S
C79 C83 1.387 . S
C79 C84 1.491 . S
H80 C81 0.950 . S
C81 C78 1.390 . S
C81 H80 0.950 . S
C81 C82 1.378 1_554 S
C82 C81 1.378 1_556 S
C82 C83 1.409 1_556 S
C83 C79 1.387 . S
C83 C82 1.409 1_554 S
C83 H85 0.951 1_554 S
C84 C79 1.491 . S
C84 C86 1.382 . S
C84 C88 1.404 . S
H85 C83 0.951 1_556 S
C86 C84 1.382 . S
C86 C87 1.390 . S
C86 H91 0.949 . S
C87 C86 1.390 . S
C87 C92 1.399 . S
C88 C84 1.404 . S
C88 H89 0.950 1_554 S
C88 C90 1.375 . S
H89 C88 0.950 1_556 S
C90 C88 1.375 . S
C90 C92 1.382 . S
C90 H94 0.960 . S
H91 C86 0.949 . S
C92 C87 1.399 . S
C92 C90 1.382 . S
C92 H93 0.952 . S
H93 C92 0.952 . S
H94 C90 0.960 . S
H95 C96 0.949 . S
C96 H95 0.949 . S
C96 C97 1.395 . S
C96 C98 1.391 . S
C97 C96 1.395 . S
C97 C100 1.390 . S
C98 C96 1.391 . S
C98 C102 1.387 1_554 S
C98 C103 1.491 . S
H99 C100 0.950 . S
C100 C97 1.390 . S
C100 H99 0.950 . S
C100 C101 1.378 1_554 S
C101 C100 1.378 1_556 S
C101 C102 1.409 . S
C102 C98 1.387 1_556 S
C102 C101 1.409 . S
C102 H104 0.951 . S
C103 C98 1.491 . S
C103 C105 1.382 . S
C103 C107 1.404 1_554 S
H104 C102 0.951 . S
C105 C103 1.382 . S
C105 C106 1.390 . S
C105 H110 0.949 . S
C106 C105 1.390 . S
C106 C111 1.399 . S
C107 C103 1.404 1_556 S
C107 H108 0.950 . S
C107 C109 1.375 . S
H108 C107 0.950 . S
C109 C107 1.375 . S
C109 C111 1.382 1_556 S
C109 H113 0.950 . S
H110 C105 0.949 . S
C111 C106 1.399 . S
C111 C109 1.382 1_554 S
C111 H112 0.952 . S
H112 C111 0.952 . S
H113 C109 0.950 . S
H114 C115 0.949 . S
C115 H114 0.949 . S
C115 C116 1.395 . S
C115 C117 1.391 1_554 S
C116 C115 1.395 . S
C116 C119 1.390 1_554 S
C117 C115 1.391 1_556 S
C117 C121 1.387 . S
C117 C122 1.491 . S
H118 C119 0.950 . S
C119 C116 1.390 1_556 S
C119 H118 0.950 . S
C119 C120 1.378 . S
C120 C119 1.378 . S
C120 C121 1.409 . S
C121 C117 1.387 . S
C121 C120 1.409 . S
C121 H123 0.951 . S
C122 C117 1.491 . S
C122 C124 1.382 1_556 S
C122 C126 1.404 . S
H123 C121 0.951 . S
C124 C122 1.382 1_554 S
C124 C125 1.390 . S
C124 H129 0.949 . S
C125 C124 1.390 . S
C125 C130 1.399 1_554 S
C126 C122 1.404 . S
C126 H127 0.950 . S
C126 C128 1.375 . S
H127 C126 0.950 . S
C128 C126 1.375 . S
C128 C130 1.382 . S
C128 H132 0.950 . S
H129 C124 0.949 . S
C130 C125 1.399 1_556 S
C130 C128 1.382 . S
C130 H131 0.952 . S
H131 C130 0.952 . S
H132 C128 0.950 . S
H133 C134 0.949 . S
C134 H133 0.949 . S
C134 C135 1.395 . S
C134 C136 1.391 . S
C135 C134 1.395 . S
C135 C138 1.390 . S
C136 C134 1.391 . S
C136 C140 1.387 1_554 S
C136 C141 1.491 . S
H137 C138 0.950 . S
C138 C135 1.390 . S
C138 H137 0.950 . S
C138 C139 1.378 1_554 S
C139 C138 1.378 1_556 S
C139 C140 1.409 . S
C140 C136 1.387 1_556 S
C140 C139 1.409 . S
C140 H142 0.951 . S
C141 C136 1.491 . S
C141 C143 1.382 . S
C141 C145 1.404 . S
H142 C140 0.951 . S
C143 C141 1.382 . S
C143 C144 1.390 . S
C143 H148 0.949 . S
C144 C143 1.390 . S
C144 C149 1.399 . S
C145 C141 1.404 . S
C145 H146 0.950 1_554 S
C145 C147 1.375 . S
H146 C145 0.950 1_556 S
C147 C145 1.375 . S
C147 C149 1.382 . S
C147 H151 0.950 1_554 S
H148 C143 0.949 . S
C149 C144 1.399 . S
C149 C147 1.382 . S
C149 H150 0.952 . S
H150 C149 0.952 . S
H151 C147 0.950 1_556 S
Eu152 C161 2.824 1_655 S
Eu152 O163 2.392 . S
Eu152 O165 2.418 1_545 S
Eu152 O170 2.373 1_655 S
Eu152 O173 2.488 . S
Eu152 O174 2.471 1_655 S
Eu152 O175 2.349 1_655 S
Eu153 O162 2.379 1_455 S
Eu153 O166 2.488 . S
Eu153 O167 2.471 . S
Eu153 O168 2.349 . S
Eu153 O171 2.392 1_565 S
Eu153 O172 2.418 1_565 S
Eu153 C182 2.828 . S
C154 O172 1.244 . S
C154 O175 1.265 . S
C155 C156 1.379 . S
C155 C159 1.373 1_455 S
C155 C161 1.510 . S
C156 C155 1.379 . S
C156 C158 1.369 . S
C156 H184 0.930 . S
C157 C159 1.383 1_455 S
C157 C160 1.382 . S
C157 H185 0.930 1_455 S
C158 C156 1.369 . S
C158 C160 1.392 . S
C158 H186 0.930 . S
C159 C155 1.373 1_655 S
C159 C157 1.383 1_655 S
C159 H187 0.931 . S
C160 C157 1.382 . S
C160 C158 1.392 . S
C161 Eu152 2.824 1_455 S
C161 C155 1.510 . S
C161 O173 1.242 1_455 S
C161 O174 1.247 . S
O162 Eu153 2.379 1_655 S
O162 C164 1.250 1_565 S
O163 Eu152 2.392 . S
O163 C164 1.242 . S
C164 O162 1.250 1_545 S
C164 O163 1.242 . S
O165 Eu152 2.418 1_565 S
O165 C169 1.266 . S
O166 Eu153 2.488 . S
O166 C182 1.249 . S
O167 Eu153 2.471 . S
O167 C182 1.244 . S
O168 Eu153 2.349 . S
O168 C169 1.246 1_455 S
C169 O165 1.266 . S
C169 O168 1.246 1_655 S
O170 Eu152 2.373 1_455 S
O170 C183 1.258 . S
O171 Eu153 2.392 1_545 S
O171 C183 1.242 . S
O172 Eu153 2.418 1_545 S
O172 C154 1.244 . S
O173 Eu152 2.488 . S
O173 C161 1.242 1_655 S
O174 Eu152 2.471 1_455 S
O174 C161 1.247 . S
O175 Eu152 2.349 1_455 S
O175 C154 1.265 . S
C176 C177 1.379 . S
C176 C180 1.373 . S
C176 C182 1.505 . S
C177 C176 1.379 . S
C177 C179 1.369 1_455 S
C177 H188 0.930 1_455 S
C178 C180 1.383 . S
C178 C181 1.382 . S
C178 H189 0.930 1_556 S
C179 C177 1.369 1_655 S
C179 C181 1.392 1_655 S
C179 H190 0.930 . S
C180 C176 1.373 . S
C180 C178 1.383 . S
C180 H191 0.931 . S
C181 C178 1.382 . S
C181 C179 1.392 1_455 S
C182 Eu153 2.828 . S
C182 O166 1.249 . S
C182 O167 1.244 . S
C182 C176 1.505 . S
C183 O170 1.258 . S
C183 O171 1.242 . S
H184 C156 0.930 . S
H185 C157 0.930 1_655 S
H186 C158 0.930 . S
H187 C159 0.931 . S
H188 C177 0.930 1_655 S
H189 C178 0.930 1_554 S
H190 C179 0.930 . S
H191 C180 0.931 . S
Eu192 C201 2.828 . S
Eu192 O203 2.392 . S
Eu192 O205 2.418 . S
Eu192 O210 2.373 . S
Eu192 O213 2.488 . S
Eu192 O214 2.471 . S
Eu192 O215 2.349 1_545 S
Eu193 O202 2.373 1_565 S
Eu193 O206 2.488 . S
Eu193 O207 2.471 1_565 S
Eu193 O208 2.349 1_565 S
Eu193 O211 2.392 . S
Eu193 O212 2.418 . S
Eu193 C222 2.828 . S
C194 O212 1.244 . S
C194 O215 1.265 . S
C195 C196 1.434 . S
C195 C199 1.373 . S
C195 C201 1.505 . S
C196 C195 1.434 . S
C196 C198 1.364 1_545 S
C196 H224 0.881 1_545 S
C197 C199 1.383 . S
C197 C200 1.382 . S
C197 H225 0.930 . S
C198 C196 1.364 1_565 S
C198 C200 1.362 1_565 S
C198 H226 0.965 . S
C199 C195 1.373 . S
C199 C197 1.383 . S
C199 H227 0.931 . S
C200 C197 1.382 . S
C200 C198 1.362 1_545 S
C201 Eu192 2.828 . S
C201 C195 1.505 . S
C201 O213 1.249 . S
C201 O214 1.244 . S
O202 Eu193 2.373 1_545 S
O202 C204 1.258 . S
O203 Eu192 2.392 . S
O203 C204 1.242 . S
C204 O202 1.258 . S
C204 O203 1.242 . S
O205 Eu192 2.418 . S
O205 C209 1.244 . S
O206 Eu193 2.488 . S
O206 C222 1.249 . S
O207 Eu193 2.471 1_545 S
O207 C222 1.244 1_545 S
O208 Eu193 2.349 1_545 S
O208 C209 1.265 . S
C209 O205 1.244 . S
C209 O208 1.265 . S
O210 Eu192 2.373 . S
O210 C223 1.234 1_545 S
O211 Eu193 2.392 . S
O211 C223 1.258 . S
O212 Eu193 2.418 . S
O212 C194 1.244 . S
O213 Eu192 2.488 . S
O213 C201 1.249 . S
O214 Eu192 2.471 . S
O214 C201 1.244 . S
O215 Eu192 2.349 1_565 S
O215 C194 1.265 . S
C216 C217 1.380 1_565 S
C216 C220 1.372 . S
C216 C222 1.505 . S
C217 C216 1.380 1_545 S
C217 C219 1.369 . S
C217 H228 0.930 . S
C218 C220 1.383 . S
C218 C221 1.382 1_565 S
C218 H229 0.930 . S
C219 C217 1.369 . S
C219 C221 1.392 . S
C219 H230 0.930 . S
C220 C216 1.372 . S
C220 C218 1.383 . S
C220 H231 0.931 . S
C221 C218 1.382 1_545 S
C221 C219 1.392 . S
C222 Eu193 2.828 . S
C222 O206 1.249 . S
C222 O207 1.244 1_565 S
C222 C216 1.505 . S
C223 O210 1.234 1_565 S
C223 O211 1.258 . S
H224 C196 0.881 1_565 S
H225 C197 0.930 . S
H226 C198 0.965 . S
H227 C199 0.931 . S
H228 C217 0.930 . S
H229 C218 0.930 . S
H230 C219 0.930 . S
H231 C220 0.931 . S
Eu232 C241 2.828 . S
Eu232 O243 2.392 . S
Eu232 O245 2.418 . S
Eu232 O250 2.373 . S
Eu232 O253 2.488 . S
Eu232 O254 2.471 . S
Eu232 O255 2.349 . S
Eu233 O242 2.373 . S
Eu233 O246 2.488 . S
Eu233 O247 2.471 . S
Eu233 O248 2.349 . S
Eu233 O251 2.392 . S
Eu233 O252 2.418 . S
Eu233 C262 2.828 . S
C234 O252 1.244 . S
C234 O255 1.265 . S
C235 C236 1.379 . S
C235 C239 1.373 . S
C235 C241 1.505 . S
C236 C235 1.379 . S
C236 C238 1.369 . S
C236 H264 0.930 . S
C237 C239 1.383 . S
C237 C240 1.382 . S
C237 H265 0.930 . S
C238 C236 1.369 . S
C238 C240 1.392 . S
C238 H266 0.930 . S
C239 C235 1.373 . S
C239 C237 1.383 . S
C239 H267 0.931 . S
C240 C237 1.382 . S
C240 C238 1.392 . S
C241 Eu232 2.828 . S
C241 C235 1.505 . S
C241 O253 1.249 . S
C241 O254 1.244 . S
O242 Eu233 2.373 . S
O242 C244 1.258 . S
O243 Eu232 2.392 . S
O243 C244 1.242 . S
C244 O242 1.258 . S
C244 O243 1.242 . S
O245 Eu232 2.418 . S
O245 C249 1.244 . S
O246 Eu233 2.488 . S
O246 C262 1.249 . S
O247 Eu233 2.471 . S
O247 C262 1.244 . S
O248 Eu233 2.349 . S
O248 C249 1.265 . S
C249 O245 1.244 . S
C249 O248 1.265 . S
O250 Eu232 2.373 . S
O250 C263 1.258 . S
O251 Eu233 2.392 . S
O251 C263 1.242 . S
O252 Eu233 2.418 . S
O252 C234 1.244 . S
O253 Eu232 2.488 . S
O253 C241 1.249 . S
O254 Eu232 2.471 . S
O254 C241 1.244 . S
O255 Eu232 2.349 . S
O255 C234 1.265 . S
C256 C257 1.379 . S
C256 C260 1.373 . S
C256 C262 1.505 . S
C257 C256 1.379 . S
C257 C259 1.369 . S
C257 H268 0.930 . S
C258 C260 1.383 . S
C258 C261 1.382 . S
C258 H269 0.930 . S
C259 C257 1.369 . S
C259 C261 1.392 . S
C259 H270 0.930 . S
C260 C256 1.373 . S
C260 C258 1.383 . S
C260 H271 0.931 . S
C261 C258 1.382 . S
C261 C259 1.392 . S
C262 Eu233 2.828 . S
C262 O246 1.249 . S
C262 O247 1.244 . S
C262 C256 1.505 . S
C263 O250 1.258 . S
C263 O251 1.242 . S
H264 C236 0.930 . S
H265 C237 0.930 . S
H266 C238 0.930 . S
H267 C239 0.931 . S
H268 C257 0.930 . S
H269 C258 0.930 . S
H270 C259 0.930 . S
H271 C260 0.931 . S
Eu272 C281 2.828 . S
Eu272 O283 2.392 . S
Eu272 O285 2.418 1_455 S
Eu272 O290 2.373 . S
Eu272 O293 2.488 . S
Eu272 O294 2.471 . S
Eu272 O295 2.349 . S
Eu273 O282 2.374 . S
Eu273 O286 2.488 . S
Eu273 O287 2.471 . S
Eu273 O288 2.349 . S
Eu273 O291 2.392 1_655 S
Eu273 O292 2.418 1_655 S
Eu273 C302 2.828 . S
C274 O292 1.244 . S
C274 O295 1.265 . S
C275 C276 1.379 . S
C275 C279 1.373 . S
C275 C281 1.505 . S
C276 C275 1.379 . S
C276 C278 1.369 . S
C276 H304 0.930 . S
C277 C279 1.383 . S
C277 C280 1.382 . S
C277 H305 0.930 . S
C278 C276 1.369 . S
C278 C280 1.392 . S
C278 H306 0.930 . S
C279 C275 1.373 . S
C279 C277 1.383 . S
C279 H307 0.931 . S
C280 C277 1.382 . S
C280 C278 1.392 . S
C281 Eu272 2.828 . S
C281 C275 1.505 . S
C281 O293 1.249 . S
C281 O294 1.244 . S
O282 Eu273 2.374 . S
O282 C284 1.255 1_655 S
O283 Eu272 2.392 . S
O283 C284 1.242 . S
C284 O282 1.255 1_455 S
C284 O283 1.242 . S
O285 Eu272 2.418 1_655 S
O285 C289 1.244 . S
O286 Eu273 2.488 . S
O286 C302 1.249 . S
O287 Eu273 2.471 . S
O287 C302 1.244 . S
O288 Eu273 2.349 . S
O288 C289 1.265 . S
C289 O285 1.244 . S
C289 O288 1.265 . S
O290 Eu272 2.373 . S
O290 C303 1.258 . S
O291 Eu273 2.392 1_455 S
O291 C303 1.242 . S
O292 Eu273 2.418 1_455 S
O292 C274 1.244 . S
O293 Eu272 2.488 . S
O293 C281 1.249 . S
O294 Eu272 2.471 . S
O294 C281 1.244 . S
O295 Eu272 2.349 . S
O295 C274 1.265 . S
C296 C297 1.379 . S
C296 C300 1.373 . S
C296 C302 1.505 . S
C297 C296 1.379 . S
C297 C299 1.369 . S
C297 H308 0.930 . S
C298 C300 1.383 . S
C298 C301 1.382 . S
C298 H309 0.930 . S
C299 C297 1.369 . S
C299 C301 1.392 . S
C299 H310 0.930 . S
C300 C296 1.373 . S
C300 C298 1.383 . S
C300 H311 0.931 . S
C301 C298 1.382 . S
C301 C299 1.392 . S
C302 Eu273 2.828 . S
C302 O286 1.249 . S
C302 O287 1.244 . S
C302 C296 1.505 . S
C303 O290 1.258 . S
C303 O291 1.242 . S
H304 C276 0.930 . S
H305 C277 0.930 . S
H306 C278 0.930 . S
H307 C279 0.931 . S
H308 C297 0.930 . S
H309 C298 0.930 . S
H310 C299 0.930 . S
H311 C300 0.931 . S
H312 C320 0.929 . S
H313 C322 0.930 . S
H314 C324 0.930 . S
H315 C327 0.929 . S
H316 C330 0.930 . S
H317 C332 0.960 . S
H318 C332 0.960 . S
H319 C332 0.960 . S
C320 H312 0.929 . S
C320 C321 1.377 . S
C320 C322 1.384 . S
C321 C320 1.377 . S
C321 C327 1.390 . S
C322 H313 0.930 . S
C322 C320 1.384 . S
C322 C323 1.372 . S
C323 C322 1.372 . S
C323 C324 1.400 . S
C323 C328 1.490 . S
C324 H314 0.930 . S
C324 C323 1.400 . S
C324 C327 1.386 . S
H325 C341 0.930 . S
H326 C342 0.931 . S
C327 H315 0.929 . S
C327 C321 1.390 . S
C327 C324 1.386 . S
C328 C323 1.490 . S
C328 C330 1.395 . S
C328 C331 1.403 . S
H329 C335 0.930 . S
C330 H316 0.930 . S
C330 C328 1.395 . S
C330 C333 1.403 . S
C331 C328 1.403 . S
C331 C332 1.524 . S
C331 C335 1.400 . S
C332 H317 0.960 . S
C332 H318 0.960 . S
C332 H319 0.960 . S
C332 C331 1.524 . S
C333 C330 1.403 . S
C333 C334 1.392 . S
C333 C337 1.495 . S
C334 C333 1.392 . S
C334 C335 1.385 . S
C334 C336 1.478 . S
C335 H329 0.930 . S
C335 C331 1.400 . S
C335 C334 1.385 . S
C336 C334 1.478 . S
C336 C338 1.381 . S
C336 C342 1.383 . S
C337 C333 1.495 . S
C337 H343 0.959 . S
C337 H344 0.961 . S
C337 H345 0.960 . S
C338 C336 1.381 . S
C338 C339 1.394 . S
C338 H346 0.930 . S
C339 C338 1.394 . S
C339 C340 1.383 . S
C339 H347 0.929 1_545 S
C340 C339 1.383 . S
C340 C341 1.377 . S
C341 H325 0.930 . S
C341 C340 1.377 . S
C341 C342 1.379 . S
C342 H326 0.931 . S
C342 C336 1.383 . S
C342 C341 1.379 . S
H343 C337 0.959 . S
H344 C337 0.961 . S
H345 C337 0.960 . S
H346 C338 0.930 . S
H347 C339 0.929 1_565 S
H348 C356 0.929 . S
H349 C358 0.930 . S
H350 C360 0.930 . S
H351 C363 0.929 . S
H352 C366 0.930 . S
H353 C368 0.960 . S
H354 C368 0.960 . S
H355 C368 0.960 . S
C356 H348 0.929 . S
C356 C357 1.377 . S
C356 C358 1.384 . S
C357 C356 1.377 . S
C357 C363 1.390 . S
C358 H349 0.930 . S
C358 C356 1.384 . S
C358 C359 1.372 . S
C359 C358 1.372 . S
C359 C360 1.400 . S
C359 C364 1.490 . S
C360 H350 0.930 . S
C360 C359 1.400 . S
C360 C363 1.386 . S
H361 C377 0.930 . S
H362 C378 0.931 . S
C363 H351 0.929 . S
C363 C357 1.390 . S
C363 C360 1.386 . S
C364 C359 1.490 . S
C364 C366 1.395 . S
C364 C367 1.403 . S
H365 C371 0.930 . S
C366 H352 0.930 . S
C366 C364 1.395 . S
C366 C369 1.403 . S
C367 C364 1.403 . S
C367 C368 1.524 . S
C367 C371 1.400 . S
C368 H353 0.960 . S
C368 H354 0.960 . S
C368 H355 0.960 . S
C368 C367 1.524 . S
C369 C366 1.403 . S
C369 C370 1.392 . S
C369 C373 1.495 . S
C370 C369 1.392 . S
C370 C371 1.385 . S
C370 C372 1.478 . S
C371 H365 0.930 . S
C371 C367 1.400 . S
C371 C370 1.385 . S
C372 C370 1.478 . S
C372 C374 1.381 . S
C372 C378 1.383 . S
C373 C369 1.495 . S
C373 H379 0.959 . S
C373 H380 0.961 . S
C373 H381 0.960 . S
C374 C372 1.381 . S
C374 C375 1.394 . S
C374 H382 0.930 . S
C375 C374 1.394 . S
C375 C376 1.383 . S
C375 H383 0.929 . S
C376 C375 1.383 . S
C376 C377 1.377 . S
C377 H361 0.930 . S
C377 C376 1.377 . S
C377 C378 1.379 . S
C378 H362 0.931 . S
C378 C372 1.383 . S
C378 C377 1.379 . S
H379 C373 0.959 . S
H380 C373 0.961 . S
H381 C373 0.960 . S
H382 C374 0.930 . S
H383 C375 0.929 . S
H384 C392 0.929 . S
H385 C394 0.930 . S
H386 C396 0.930 . S
H387 C399 0.929 . S
H388 C402 0.930 . S
H389 C404 0.960 . S
H390 C404 0.960 . S
H391 C404 0.960 . S
C392 H384 0.929 . S
C392 C393 1.377 . S
C392 C394 1.384 . S
C393 C392 1.377 . S
C393 C399 1.390 . S
C394 H385 0.930 . S
C394 C392 1.384 . S
C394 C395 1.372 . S
C395 C394 1.372 . S
C395 C396 1.400 . S
C395 C400 1.490 . S
C396 H386 0.930 . S
C396 C395 1.400 . S
C396 C399 1.386 . S
H397 C413 0.930 . S
H398 C414 0.931 . S
C399 H387 0.929 . S
C399 C393 1.390 . S
C399 C396 1.386 . S
C400 C395 1.490 . S
C400 C402 1.395 . S
C400 C403 1.403 . S
H401 C407 0.930 . S
C402 H388 0.930 . S
C402 C400 1.395 . S
C402 C405 1.403 . S
C403 C400 1.403 . S
C403 C404 1.524 . S
C403 C407 1.400 . S
C404 H389 0.960 . S
C404 H390 0.960 . S
C404 H391 0.960 . S
C404 C403 1.524 . S
C405 C402 1.403 . S
C405 C406 1.392 . S
C405 C409 1.495 . S
C406 C405 1.392 . S
C406 C407 1.385 . S
C406 C408 1.478 . S
C407 H401 0.930 . S
C407 C403 1.400 . S
C407 C406 1.385 . S
C408 C406 1.478 . S
C408 C410 1.381 . S
C408 C414 1.383 . S
C409 C405 1.495 . S
C409 H415 0.959 . S
C409 H416 0.961 . S
C409 H417 0.960 . S
C410 C408 1.381 . S
C410 C411 1.394 . S
C410 H418 0.930 . S
C411 C410 1.394 . S
C411 C412 1.383 . S
C411 H419 0.929 . S
C412 C411 1.383 . S
C412 C413 1.377 . S
C413 H397 0.930 . S
C413 C412 1.377 . S
C413 C414 1.379 . S
C414 H398 0.931 . S
C414 C408 1.383 . S
C414 C413 1.379 . S
H415 C409 0.959 . S
H416 C409 0.961 . S
H417 C409 0.960 . S
H418 C410 0.930 . S
H419 C411 0.929 . S
H420 C428 0.929 . S
H421 C430 0.930 . S
H422 C432 0.930 . S
H423 C435 0.929 . S
H424 C438 0.930 . S
H425 C440 0.960 . S
H426 C440 0.960 . S
H427 C440 0.960 . S
C428 H420 0.929 . S
C428 C429 1.377 . S
C428 C430 1.384 . S
C429 C428 1.377 . S
C429 C435 1.390 . S
C430 H421 0.930 . S
C430 C428 1.384 . S
C430 C431 1.372 . S
C431 C430 1.372 . S
C431 C432 1.400 . S
C431 C436 1.490 . S
C432 H422 0.930 . S
C432 C431 1.400 . S
C432 C435 1.386 . S
H433 C449 0.930 . S
H434 C450 0.931 . S
C435 H423 0.929 . S
C435 C429 1.390 . S
C435 C432 1.386 . S
C436 C431 1.490 . S
C436 C438 1.395 . S
C436 C439 1.403 . S
H437 C443 0.930 . S
C438 H424 0.930 . S
C438 C436 1.395 . S
C438 C441 1.403 . S
C439 C436 1.403 . S
C439 C440 1.524 . S
C439 C443 1.400 . S
C440 H425 0.960 . S
C440 H426 0.960 . S
C440 H427 0.960 . S
C440 C439 1.524 . S
C441 C438 1.403 . S
C441 C442 1.392 . S
C441 C445 1.491 . S
C442 C441 1.392 . S
C442 C443 1.385 . S
C442 C444 1.478 . S
C443 H437 0.930 . S
C443 C439 1.400 . S
C443 C442 1.385 . S
C444 C442 1.478 . S
C444 C446 1.381 . S
C444 C450 1.383 . S
C445 C441 1.491 . S
C445 H451 0.961 1_455 S
C445 H452 0.960 . S
C445 H453 0.963 1_455 S
C446 C444 1.381 . S
C446 C447 1.394 . S
C446 H454 0.930 . S
C447 C446 1.394 . S
C447 C448 1.383 . S
C447 H455 0.929 1_455 S
C448 C447 1.383 . S
C448 C449 1.377 . S
C449 H433 0.930 . S
C449 C448 1.377 . S
C449 C450 1.379 . S
C450 H434 0.931 . S
C450 C444 1.383 . S
C450 C449 1.379 . S
H451 C445 0.961 1_655 S
H452 C445 0.960 . S
H453 C445 0.963 1_655 S
H454 C446 0.930 . S
H455 C447 0.929 1_655 S
H456 C464 0.929 . S
H457 C466 0.930 . S
H458 C468 0.930 . S
H459 C471 0.929 . S
H460 C474 0.930 . S
H461 C476 0.960 . S
H462 C476 0.960 1_554 S
H463 C476 0.960 . S
C464 H456 0.929 . S
C464 C465 1.377 . S
C464 C466 1.384 . S
C465 C464 1.377 . S
C465 C471 1.390 . S
C466 H457 0.930 . S
C466 C464 1.384 . S
C466 C467 1.372 . S
C467 C466 1.372 . S
C467 C468 1.400 . S
C467 C472 1.490 . S
C468 H458 0.930 . S
C468 C467 1.400 . S
C468 C471 1.386 . S
H469 C485 0.930 . S
H470 C486 0.931 . S
C471 H459 0.929 . S
C471 C465 1.390 . S
C471 C468 1.386 . S
C472 C467 1.490 . S
C472 C474 1.395 . S
C472 C475 1.440 1_554 S
H473 C479 0.931 1_545 S
C474 H460 0.930 . S
C474 C472 1.395 . S
C474 C477 1.403 1_554 S
C475 C472 1.440 1_556 S
C475 C476 1.489 1_565 S
C475 C479 1.399 . S
C476 H461 0.960 . S
C476 H462 0.960 1_556 S
C476 H463 0.960 . S
C476 C475 1.489 1_545 S
C477 C474 1.403 1_556 S
C477 C478 1.392 . S
C477 C481 1.495 . S
C478 C477 1.392 . S
C478 C479 1.385 . S
C478 C480 1.478 . S
C479 H473 0.931 1_565 S
C479 C475 1.399 . S
C479 C478 1.385 . S
C480 C478 1.478 . S
C480 C482 1.381 . S
C480 C486 1.383 . S
C481 C477 1.495 . S
C481 H487 0.959 1_556 S
C481 H488 0.961 . S
C481 H489 0.960 . S
C482 C480 1.381 . S
C482 C483 1.394 1_565 S
C482 H490 0.930 1_565 S
C483 C482 1.394 1_545 S
C483 C484 1.383 1_545 S
C483 H491 0.929 . S
C484 C483 1.383 1_565 S
C484 C485 1.377 . S
C485 H469 0.930 . S
C485 C484 1.377 . S
C485 C486 1.379 . S
C486 H470 0.931 . S
C486 C480 1.383 . S
C486 C485 1.379 . S
H487 C481 0.959 1_554 S
H488 C481 0.961 . S
H489 C481 0.960 . S
H490 C482 0.930 1_545 S
H491 C483 0.929 . S
H492 C500 0.929 . S
H493 C502 0.930 . S
H494 C504 0.930 . S
H495 C507 0.929 . S
H496 C510 0.930 . S
H497 C512 0.960 . S
H498 C512 0.960 . S
H499 C512 0.960 . S
C500 H492 0.929 . S
C500 C501 1.377 . S
C500 C502 1.384 . S
C501 C500 1.377 . S
C501 C507 1.390 . S
C502 H493 0.930 . S
C502 C500 1.384 . S
C502 C503 1.372 . S
C503 C502 1.372 . S
C503 C504 1.400 . S
C503 C508 1.490 1_554 S
C504 H494 0.930 . S
C504 C503 1.400 . S
C504 C507 1.386 . S
H505 C521 0.930 . S
H506 C522 0.931 . S
C507 H495 0.929 . S
C507 C501 1.390 . S
C507 C504 1.386 . S
C508 C503 1.490 1_556 S
C508 C510 1.395 . S
C508 C511 1.403 . S
H509 C515 0.930 . S
C510 H496 0.930 . S
C510 C508 1.395 . S
C510 C513 1.403 . S
C511 C508 1.403 . S
C511 C512 1.524 1_556 S
C511 C515 1.400 . S
C512 H497 0.960 . S
C512 H498 0.960 . S
C512 H499 0.960 . S
C512 C511 1.524 1_554 S
C513 C510 1.403 . S
C513 C514 1.392 . S
C513 C517 1.495 . S
C514 C513 1.392 . S
C514 C515 1.385 . S
C514 C516 1.478 . S
C515 H509 0.930 . S
C515 C511 1.400 . S
C515 C514 1.385 . S
C516 C514 1.478 . S
C516 C518 1.381 . S
C516 C522 1.383 . S
C517 C513 1.495 . S
C517 H523 0.959 . S
C517 H524 0.961 . S
C517 H525 0.960 . S
C518 C516 1.381 . S
C518 C519 1.394 . S
C518 H526 0.930 . S
C519 C518 1.394 . S
C519 C520 1.383 . S
C519 H527 0.929 . S
C520 C519 1.383 . S
C520 C521 1.377 . S
C521 H505 0.930 . S
C521 C520 1.377 . S
C521 C522 1.379 . S
C522 H506 0.931 . S
C522 C516 1.383 . S
C522 C521 1.379 . S
H523 C517 0.959 . S
H524 C517 0.961 . S
H525 C517 0.960 . S
H526 C518 0.930 . S
H527 C519 0.929 . S
H528 C536 0.929 . S
H529 C538 0.930 . S
H530 C540 0.930 1_556 S
H531 C543 0.929 . S
H532 C546 0.930 . S
H533 C548 0.961 . S
H534 C548 0.960 . S
H535 C548 0.960 . S
C536 H528 0.929 . S
C536 C537 1.377 . S
C536 C538 1.384 . S
C537 C536 1.377 . S
C537 C543 1.390 . S
C538 H529 0.930 . S
C538 C536 1.384 . S
C538 C539 1.372 . S
C539 C538 1.372 . S
C539 C540 1.400 . S
C539 C544 1.490 1_554 S
C540 H530 0.930 1_554 S
C540 C539 1.400 . S
C540 C543 1.386 . S
H541 C557 0.930 . S
H542 C558 0.931 . S
C543 H531 0.929 . S
C543 C537 1.390 . S
C543 C540 1.386 . S
C544 C539 1.490 1_556 S
C544 C546 1.395 . S
C544 C547 1.403 . S
H545 C551 0.930 . S
C546 H532 0.930 . S
C546 C544 1.395 . S
C546 C549 1.403 . S
C547 C544 1.403 . S
C547 C548 1.524 1_556 S
C547 C551 1.400 . S
C548 H533 0.961 . S
C548 H534 0.960 . S
C548 H535 0.960 . S
C548 C547 1.524 1_554 S
C549 C546 1.403 . S
C549 C550 1.392 . S
C549 C553 1.495 . S
C550 C549 1.392 . S
C550 C551 1.385 . S
C550 C552 1.478 . S
C551 H545 0.930 . S
C551 C547 1.400 . S
C551 C550 1.385 . S
C552 C550 1.478 . S
C552 C554 1.381 . S
C552 C558 1.383 . S
C553 C549 1.495 . S
C553 H559 0.959 . S
C553 H560 0.961 . S
C553 H561 0.960 . S
C554 C552 1.381 . S
C554 C555 1.394 . S
C554 H562 0.930 . S
C555 C554 1.394 . S
C555 C556 1.383 . S
C555 H563 0.929 . S
C556 C555 1.383 . S
C556 C557 1.377 . S
C557 H541 0.930 . S
C557 C556 1.377 . S
C557 C558 1.379 . S
C558 H542 0.931 . S
C558 C552 1.383 . S
C558 C557 1.379 . S
H559 C553 0.959 . S
H560 C553 0.961 . S
H561 C553 0.960 . S
H562 C554 0.930 . S
H563 C555 0.929 . S
H564 C572 0.929 . S
H565 C574 0.930 . S
H566 C576 0.930 1_455 S
H567 C579 0.929 . S
H568 C582 0.930 . S
H569 C584 0.960 . S
H570 C584 0.984 . S
H571 C584 0.960 . S
C572 H564 0.929 . S
C572 C573 1.377 . S
C572 C574 1.384 . S
C573 C572 1.377 . S
C573 C579 1.390 . S
C574 H565 0.930 . S
C574 C572 1.384 . S
C574 C575 1.372 . S
C575 C574 1.372 . S
C575 C576 1.400 . S
C575 C580 1.490 . S
C576 H566 0.930 1_655 S
C576 C575 1.400 . S
C576 C579 1.386 . S
H577 C593 0.930 . S
H578 C594 0.931 . S
C579 H567 0.929 . S
C579 C573 1.390 . S
C579 C576 1.386 . S
C580 C575 1.490 . S
C580 C582 1.395 1_554 S
C580 C583 1.403 . S
H581 C587 0.930 1_455 S
C582 H568 0.930 . S
C582 C580 1.395 1_556 S
C582 C585 1.403 . S
C583 C580 1.403 . S
C583 C584 1.524 1_655 S
C583 C587 1.400 1_554 S
C584 H569 0.960 . S
C584 H570 0.984 . S
C584 H571 0.960 . S
C584 C583 1.524 1_455 S
C585 C582 1.403 . S
C585 C586 1.392 . S
C585 C589 1.495 . S
C586 C585 1.392 . S
C586 C587 1.385 . S
C586 C588 1.478 . S
C587 H581 0.930 1_655 S
C587 C583 1.400 1_556 S
C587 C586 1.385 . S
C588 C586 1.478 . S
C588 C590 1.381 . S
C588 C594 1.383 1_655 S
C589 C585 1.495 . S
C589 H595 0.959 . S
C589 H596 0.961 . S
C589 H597 0.960 . S
C590 C588 1.381 . S
C590 C591 1.394 . S
C590 H598 0.930 . S
C591 C590 1.394 . S
C591 C592 1.383 . S
C591 H599 0.929 . S
C592 C591 1.383 . S
C592 C593 1.377 1_655 S
C593 H577 0.930 . S
C593 C592 1.377 1_455 S
C593 C594 1.379 . S
C594 H578 0.931 . S
C594 C588 1.383 1_455 S
C594 C593 1.379 . S
H595 C589 0.959 . S
H596 C589 0.961 . S
H597 C589 0.960 . S
H598 C590 0.930 . S
H599 C591 0.929 . S
H600 C608 0.929 . S
H601 C610 0.930 . S
H602 C612 0.930 . S
H603 C615 0.929 . S
H604 C618 0.930 . S
H605 C620 0.960 1_655 S
H606 C620 0.960 . S
H607 C620 0.960 . S
C608 H600 0.929 . S
C608 C609 1.377 . S
C608 C610 1.384 . S
C609 C608 1.377 . S
C609 C615 1.390 . S
C610 H601 0.930 . S
C610 C608 1.384 . S
C610 C611 1.372 . S
C611 C610 1.372 . S
C611 C612 1.400 . S
C611 C616 1.490 . S
C612 H602 0.930 . S
C612 C611 1.400 . S
C612 C615 1.386 . S
H613 C629 0.930 . S
H614 C630 0.931 . S
C615 H603 0.929 . S
C615 C609 1.390 . S
C615 C612 1.386 . S
C616 C611 1.490 . S
C616 C618 1.395 . S
C616 C619 1.403 . S
H617 C623 0.930 . S
C618 H604 0.930 . S
C618 C616 1.395 . S
C618 C621 1.403 . S
C619 C616 1.403 . S
C619 C620 1.524 . S
C619 C623 1.400 . S
C620 H605 0.960 1_455 S
C620 H606 0.960 . S
C620 H607 0.960 . S
C620 C619 1.524 . S
C621 C618 1.403 . S
C621 C622 1.392 . S
C621 C625 1.495 . S
C622 C621 1.392 . S
C622 C623 1.385 . S
C622 C624 1.478 . S
C623 H617 0.930 . S
C623 C619 1.400 . S
C623 C622 1.385 . S
C624 C622 1.478 . S
C624 C626 1.381 . S
C624 C630 1.383 . S
C625 C621 1.495 . S
C625 H631 0.959 . S
C625 H632 0.961 . S
C625 H633 0.960 . S
C626 C624 1.381 . S
C626 C627 1.394 . S
C626 H634 0.930 . S
C627 C626 1.394 . S
C627 C628 1.383 . S
C627 H635 0.929 . S
C628 C627 1.383 . S
C628 C629 1.377 . S
C629 H613 0.930 . S
C629 C628 1.377 . S
C629 C630 1.379 . S
C630 H614 0.931 . S
C630 C624 1.383 . S
C630 C629 1.379 . S
H631 C625 0.959 . S
H632 C625 0.961 . S
H633 C625 0.960 . S
H634 C626 0.930 . S
H635 C627 0.929 . S
H636 C644 0.929 . S
H637 C646 0.930 . S
H638 C648 0.930 . S
H639 C651 0.929 . S
H640 C654 0.930 . S
H641 C656 0.960 . S
H642 C656 0.960 . S
H643 C656 0.960 . S
C644 H636 0.929 . S
C644 C645 1.377 . S
C644 C646 1.384 . S
C645 C644 1.377 . S
C645 C651 1.390 . S
C646 H637 0.930 . S
C646 C644 1.384 . S
C646 C647 1.372 . S
C647 C646 1.372 . S
C647 C648 1.400 . S
C647 C652 1.490 . S
C648 H638 0.930 . S
C648 C647 1.400 . S
C648 C651 1.386 . S
H649 C665 0.930 . S
H650 C666 0.931 . S
C651 H639 0.929 . S
C651 C645 1.390 . S
C651 C648 1.386 . S
C652 C647 1.490 . S
C652 C654 1.395 . S
C652 C655 1.403 . S
H653 C659 0.930 . S
C654 H640 0.930 . S
C654 C652 1.395 . S
C654 C657 1.403 . S
C655 C652 1.403 . S
C655 C656 1.524 . S
C655 C659 1.400 . S
C656 H641 0.960 . S
C656 H642 0.960 . S
C656 H643 0.960 . S
C656 C655 1.524 . S
C657 C654 1.403 . S
C657 C658 1.392 . S
C657 C661 1.495 . S
C658 C657 1.392 . S
C658 C659 1.385 . S
C658 C660 1.478 . S
C659 H653 0.930 . S
C659 C655 1.400 . S
C659 C658 1.385 . S
C660 C658 1.478 . S
C660 C662 1.428 . S
C660 C666 1.383 . S
C661 C657 1.495 . S
C661 H667 0.959 . S
C661 H668 0.961 . S
C661 H669 0.960 . S
C662 C660 1.428 . S
C662 C663 1.378 1_545 S
C662 H670 0.903 1_545 S
C663 C662 1.378 1_565 S
C663 C664 1.383 1_565 S
C663 H671 0.929 . S
C664 C663 1.383 1_545 S
C664 C665 1.377 . S
C665 H649 0.930 . S
C665 C664 1.377 . S
C665 C666 1.379 . S
C666 H650 0.931 . S
C666 C660 1.383 . S
C666 C665 1.379 . S
H667 C661 0.959 . S
H668 C661 0.961 . S
H669 C661 0.960 . S
H670 C662 0.903 1_565 S
H671 C663 0.929 . S
H672 C680 0.929 . S
H673 C682 0.930 . S
H674 C684 0.930 . S
H675 C687 0.929 . S
H676 C690 0.930 . S
H677 C692 0.960 . S
H678 C692 0.960 . S
H679 C692 0.960 . S
C680 H672 0.929 . S
C680 C681 1.377 . S
C680 C682 1.384 . S
C681 C680 1.377 . S
C681 C687 1.390 . S
C682 H673 0.930 . S
C682 C680 1.384 . S
C682 C683 1.372 . S
C683 C682 1.372 . S
C683 C684 1.400 . S
C683 C688 1.490 . S
C684 H674 0.930 . S
C684 C683 1.400 . S
C684 C687 1.386 . S
H685 C701 0.930 . S
H686 C702 0.931 . S
C687 H675 0.929 . S
C687 C681 1.390 . S
C687 C684 1.386 . S
C688 C683 1.490 . S
C688 C690 1.395 . S
C688 C691 1.403 . S
H689 C695 0.930 . S
C690 H676 0.930 . S
C690 C688 1.395 . S
C690 C693 1.403 . S
C691 C688 1.403 . S
C691 C692 1.524 . S
C691 C695 1.400 . S
C692 H677 0.960 . S
C692 H678 0.960 . S
C692 H679 0.960 . S
C692 C691 1.524 . S
C693 C690 1.403 . S
C693 C694 1.392 . S
C693 C697 1.495 . S
C694 C693 1.392 . S
C694 C695 1.385 . S
C694 C696 1.478 . S
C695 H689 0.930 . S
C695 C691 1.400 . S
C695 C694 1.385 . S
C696 C694 1.478 . S
C696 C698 1.381 . S
C696 C702 1.383 . S
C697 C693 1.495 . S
C697 H703 0.959 . S
C697 H704 0.961 . S
C697 H705 0.960 . S
C698 C696 1.381 . S
C698 C699 1.394 . S
C698 H706 0.930 . S
C699 C698 1.394 . S
C699 C700 1.383 . S
C699 H707 0.929 . S
C700 C699 1.383 . S
C700 C701 1.377 . S
C701 H685 0.930 . S
C701 C700 1.377 . S
C701 C702 1.379 . S
C702 H686 0.931 . S
C702 C696 1.383 . S
C702 C701 1.379 . S
H703 C697 0.959 . S
H704 C697 0.961 . S
H705 C697 0.960 . S
H706 C698 0.930 . S
H707 C699 0.929 . S
H708 C716 0.929 . S
H709 C718 0.930 . S
H710 C720 0.930 . S
H711 C723 0.929 . S
H712 C726 0.930 . S
H713 C728 0.960 . S
H714 C728 0.960 . S
H715 C728 0.960 . S
C716 H708 0.929 . S
C716 C717 1.377 . S
C716 C718 1.384 . S
C717 C716 1.377 . S
C717 C723 1.390 . S
C718 H709 0.930 . S
C718 C716 1.384 . S
C718 C719 1.372 . S
C719 C718 1.372 . S
C719 C720 1.400 . S
C719 C724 1.490 . S
C720 H710 0.930 . S
C720 C719 1.400 . S
C720 C723 1.386 . S
H721 C737 0.930 . S
H722 C738 0.931 . S
C723 H711 0.929 . S
C723 C717 1.390 . S
C723 C720 1.386 . S
C724 C719 1.490 . S
C724 C726 1.395 . S
C724 C727 1.403 . S
H725 C731 0.930 . S
C726 H712 0.930 . S
C726 C724 1.395 . S
C726 C729 1.403 . S
C727 C724 1.403 . S
C727 C728 1.524 . S
C727 C731 1.400 . S
C728 H713 0.960 . S
C728 H714 0.960 . S
C728 H715 0.960 . S
C728 C727 1.524 . S
C729 C726 1.403 . S
C729 C730 1.392 . S
C729 C733 1.495 . S
C730 C729 1.392 . S
C730 C731 1.385 . S
C730 C732 1.478 . S
C731 H725 0.930 . S
C731 C727 1.400 . S
C731 C730 1.385 . S
C732 C730 1.478 . S
C732 C734 1.381 . S
C732 C738 1.383 . S
C733 C729 1.495 . S
C733 H739 0.959 . S
C733 H740 0.961 . S
C733 H741 0.960 . S
C734 C732 1.381 . S
C734 C735 1.394 . S
C734 H742 0.930 . S
C735 C734 1.394 . S
C735 C736 1.383 . S
C735 H743 0.929 . S
C736 C735 1.383 . S
C736 C737 1.377 . S
C737 H721 0.930 . S
C737 C736 1.377 . S
C737 C738 1.379 . S
C738 H722 0.931 . S
C738 C732 1.383 . S
C738 C737 1.379 . S
H739 C733 0.959 . S
H740 C733 0.961 . S
H741 C733 0.960 . S
H742 C734 0.930 . S
H743 C735 0.929 . S
H744 C752 0.929 . S
H745 C754 0.930 1_455 S
H746 C756 0.930 . S
H747 C759 0.929 . S
H748 C762 0.930 . S
H749 C764 0.960 . S
H750 C764 0.960 . S
H751 C764 0.960 . S
C752 H744 0.929 . S
C752 C753 1.377 . S
C752 C754 1.384 . S
C753 C752 1.377 . S
C753 C759 1.390 . S
C754 H745 0.930 1_655 S
C754 C752 1.384 . S
C754 C755 1.372 . S
C755 C754 1.372 . S
C755 C756 1.400 . S
C755 C760 1.490 . S
C756 H746 0.930 . S
C756 C755 1.400 . S
C756 C759 1.386 . S
H757 C773 0.930 . S
H758 C774 0.931 1_554 S
C759 H747 0.929 . S
C759 C753 1.390 . S
C759 C756 1.386 . S
C760 C755 1.490 . S
C760 C762 1.395 . S
C760 C763 1.403 . S
H761 C767 0.930 . S
C762 H748 0.930 . S
C762 C760 1.395 . S
C762 C765 1.403 . S
C763 C760 1.403 . S
C763 C764 1.524 . S
C763 C767 1.400 . S
C764 H749 0.960 . S
C764 H750 0.960 . S
C764 H751 0.960 . S
C764 C763 1.524 . S
C765 C762 1.403 . S
C765 C766 1.392 . S
C765 C769 1.495 1_654 S
C766 C765 1.392 . S
C766 C767 1.385 . S
C766 C768 1.478 . S
C767 H761 0.930 . S
C767 C763 1.400 . S
C767 C766 1.385 . S
C768 C766 1.478 . S
C768 C770 1.381 1_655 S
C768 C774 1.383 1_554 S
C769 C765 1.495 1_456 S
C769 H775 0.959 . S
C769 H776 0.961 1_455 S
C769 H777 0.960 . S
C770 C768 1.381 1_455 S
C770 C771 1.394 1_554 S
C770 H778 0.930 . S
C771 C770 1.394 1_556 S
C771 C772 1.383 . S
C771 H779 0.929 . S
C772 C771 1.383 . S
C772 C773 1.377 1_455 S
C773 H757 0.930 . S
C773 C772 1.377 1_655 S
C773 C774 1.379 . S
C774 H758 0.931 1_556 S
C774 C768 1.383 1_556 S
C774 C773 1.379 . S
H775 C769 0.959 . S
H776 C769 0.961 1_655 S
H777 C769 0.960 . S
H778 C770 0.930 . S
H779 C771 0.929 . S
H780 C788 0.929 . S
H781 C790 0.930 . S
H782 C792 0.930 . S
H783 C795 0.929 . S
H784 C798 0.930 . S
H785 C800 0.960 . S
H786 C800 0.960 . S
H787 C800 0.960 . S
C788 H780 0.929 . S
C788 C789 1.377 . S
C788 C790 1.384 . S
C789 C788 1.377 . S
C789 C795 1.390 . S
C790 H781 0.930 . S
C790 C788 1.384 . S
C790 C791 1.372 . S
C791 C790 1.372 . S
C791 C792 1.400 . S
C791 C796 1.490 . S
C792 H782 0.930 . S
C792 C791 1.400 . S
C792 C795 1.386 . S
H793 C809 0.930 . S
H794 C810 0.931 1_554 S
C795 H783 0.929 . S
C795 C789 1.390 . S
C795 C792 1.386 . S
C796 C791 1.490 . S
C796 C798 1.395 . S
C796 C799 1.403 1_565 S
H797 C803 0.930 . S
C798 H784 0.930 . S
C798 C796 1.395 . S
C798 C801 1.403 . S
C799 C796 1.403 1_545 S
C799 C800 1.524 . S
C799 C803 1.400 . S
C800 H785 0.960 . S
C800 H786 0.960 . S
C800 H787 0.960 . S
C800 C799 1.524 . S
C801 C798 1.403 . S
C801 C802 1.392 . S
C801 C805 1.495 1_554 S
C802 C801 1.392 . S
C802 C803 1.385 1_565 S
C802 C804 1.478 1_564 S
C803 H797 0.930 . S
C803 C799 1.400 . S
C803 C802 1.385 1_545 S
C804 C802 1.478 1_546 S
C804 C806 1.381 . S
C804 C810 1.383 . S
C805 C801 1.495 1_556 S
C805 H811 0.959 . S
C805 H812 0.961 . S
C805 H813 0.960 . S
C806 C804 1.381 . S
C806 C807 1.394 . S
C806 H814 0.930 . S
C807 C806 1.394 . S
C807 C808 1.383 . S
C807 H815 0.929 . S
C808 C807 1.383 . S
C808 C809 1.377 . S
C809 H793 0.930 . S
C809 C808 1.377 . S
C809 C810 1.379 . S
C810 H794 0.931 1_556 S
C810 C804 1.383 . S
C810 C809 1.379 . S
H811 C805 0.959 . S
H812 C805 0.961 . S
H813 C805 0.960 . S
H814 C806 0.930 . S
H815 C807 0.929 . S
H816 C824 0.929 . S
H817 C826 0.930 . S
H818 C828 0.930 . S
H819 C831 0.929 . S
H820 C834 0.930 . S
H821 C836 0.960 . S
H822 C836 0.960 . S
H823 C836 0.960 . S
C824 H816 0.929 . S
C824 C825 1.377 . S
C824 C826 1.384 . S
C825 C824 1.377 . S
C825 C831 1.390 . S
C826 H817 0.930 . S
C826 C824 1.384 . S
C826 C827 1.372 . S
C827 C826 1.372 . S
C827 C828 1.400 . S
C827 C832 1.490 . S
C828 H818 0.930 . S
C828 C827 1.400 . S
C828 C831 1.386 . S
H829 C845 0.930 . S
H830 C846 0.931 . S
C831 H819 0.929 . S
C831 C825 1.390 . S
C831 C828 1.386 . S
C832 C827 1.490 . S
C832 C834 1.395 . S
C832 C835 1.403 1_554 S
H833 C839 0.930 . S
C834 H820 0.930 . S
C834 C832 1.395 . S
C834 C837 1.403 . S
C835 C832 1.403 1_556 S
C835 C836 1.524 . S
C835 C839 1.400 . S
C836 H821 0.960 . S
C836 H822 0.960 . S
C836 H823 0.960 . S
C836 C835 1.524 . S
C837 C834 1.403 . S
C837 C838 1.392 1_554 S
C837 C841 1.495 . S
C838 C837 1.392 1_556 S
C838 C839 1.385 . S
C838 C840 1.478 . S
C839 H833 0.930 . S
C839 C835 1.400 . S
C839 C838 1.385 . S
C840 C838 1.478 . S
C840 C842 1.381 . S
C840 C846 1.383 . S
C841 C837 1.495 . S
C841 H847 0.959 . S
C841 H848 0.961 . S
C841 H849 0.960 . S
C842 C840 1.381 . S
C842 C843 1.394 . S
C842 H850 0.930 . S
C843 C842 1.394 . S
C843 C844 1.383 . S
C843 H851 0.929 . S
C844 C843 1.383 . S
C844 C845 1.377 . S
C845 H829 0.930 . S
C845 C844 1.377 . S
C845 C846 1.379 . S
C846 H830 0.931 . S
C846 C840 1.383 . S
C846 C845 1.379 . S
H847 C841 0.959 . S
H848 C841 0.961 . S
H849 C841 0.960 . S
H850 C842 0.930 . S
H851 C843 0.929 . S
H852 C860 0.929 . S
H853 C862 0.930 . S
H854 C864 0.930 . S
H855 C867 0.929 . S
H856 C870 0.930 . S
H857 C872 0.960 . S
H858 C872 0.960 . S
H859 C872 0.960 . S
C860 H852 0.929 . S
C860 C861 1.377 . S
C860 C862 1.384 . S
C861 C860 1.377 . S
C861 C867 1.390 . S
C862 H853 0.930 . S
C862 C860 1.384 . S
C862 C863 1.372 . S
C863 C862 1.372 . S
C863 C864 1.400 . S
C863 C868 1.490 . S
C864 H854 0.930 . S
C864 C863 1.400 . S
C864 C867 1.386 . S
H865 C881 0.930 . S
H866 C882 0.931 . S
C867 H855 0.929 . S
C867 C861 1.390 . S
C867 C864 1.386 . S
C868 C863 1.490 . S
C868 C870 1.395 . S
C868 C871 1.403 . S
H869 C875 0.930 . S
C870 H856 0.930 . S
C870 C868 1.395 . S
C870 C873 1.403 . S
C871 C868 1.403 . S
C871 C872 1.524 . S
C871 C875 1.400 . S
C872 H857 0.960 . S
C872 H858 0.960 . S
C872 H859 0.960 . S
C872 C871 1.524 . S
C873 C870 1.403 . S
C873 C874 1.392 . S
C873 C877 1.495 . S
C874 C873 1.392 . S
C874 C875 1.385 . S
C874 C876 1.478 1_554 S
C875 H869 0.930 . S
C875 C871 1.400 . S
C875 C874 1.385 . S
C876 C874 1.478 1_556 S
C876 C878 1.381 . S
C876 C882 1.383 1_556 S
C877 C873 1.495 . S
C877 H883 0.959 . S
C877 H884 0.961 . S
C877 H885 0.960 . S
C878 C876 1.381 . S
C878 C879 1.394 . S
C878 H886 0.930 . S
C879 C878 1.394 . S
C879 C880 1.383 . S
C879 H887 0.929 . S
C880 C879 1.383 . S
C880 C881 1.377 1_556 S
C881 H865 0.930 . S
C881 C880 1.377 1_554 S
C881 C882 1.379 . S
C882 H866 0.931 . S
C882 C876 1.383 1_554 S
C882 C881 1.379 . S
H883 C877 0.959 . S
H884 C877 0.961 . S
H885 C877 0.960 . S
H886 C878 0.930 . S
H887 C879 0.929 . S
H888 C896 0.929 . S
H889 C898 0.930 . S
H890 C900 0.930 . S
H891 C903 0.929 . S
H892 C906 0.930 . S
H893 C908 0.960 . S
H894 C908 0.960 . S
H895 C908 0.960 . S
C896 H888 0.929 . S
C896 C897 1.377 . S
C896 C898 1.384 . S
C897 C896 1.377 . S
C897 C903 1.390 . S
C898 H889 0.930 . S
C898 C896 1.384 . S
C898 C899 1.372 . S
C899 C898 1.372 . S
C899 C900 1.400 . S
C899 C904 1.490 . S
C900 H890 0.930 . S
C900 C899 1.400 . S
C900 C903 1.386 . S
H901 C917 0.930 . S
H902 C918 0.931 . S
C903 H891 0.929 . S
C903 C897 1.390 . S
C903 C900 1.386 . S
C904 C899 1.490 . S
C904 C906 1.395 . S
C904 C907 1.403 . S
H905 C911 0.930 . S
C906 H892 0.930 . S
C906 C904 1.395 . S
C906 C909 1.403 . S
C907 C904 1.403 . S
C907 C908 1.524 . S
C907 C911 1.400 . S
C908 H893 0.960 . S
C908 H894 0.960 . S
C908 H895 0.960 . S
C908 C907 1.524 . S
C909 C906 1.403 . S
C909 C910 1.392 . S
C909 C913 1.495 . S
C910 C909 1.392 . S
C910 C911 1.385 . S
C910 C912 1.478 . S
C911 H905 0.930 . S
C911 C907 1.400 . S
C911 C910 1.385 . S
C912 C910 1.478 . S
C912 C914 1.381 . S
C912 C918 1.383 . S
C913 C909 1.495 . S
C913 H919 0.959 . S
C913 H920 0.961 . S
C913 H921 0.960 . S
C914 C912 1.381 . S
C914 C915 1.394 . S
C914 H922 0.930 . S
C915 C914 1.394 . S
C915 C916 1.383 . S
C915 H923 0.929 . S
C916 C915 1.383 . S
C916 C917 1.377 . S
C917 H901 0.930 . S
C917 C916 1.377 . S
C917 C918 1.379 . S
C918 H902 0.931 . S
C918 C912 1.383 . S
C918 C917 1.379 . S
H919 C913 0.959 . S
H920 C913 0.961 . S
H921 C913 0.960 . S
H922 C914 0.930 . S
H923 C915 0.929 . S
H924 C932 0.929 . S
H925 C934 0.930 . S
H926 C936 0.930 . S
H927 C939 0.929 . S
H928 C942 0.930 . S
H929 C944 0.960 . S
H930 C944 0.960 . S
H931 C944 0.960 . S
C932 H924 0.929 . S
C932 C933 1.377 . S
C932 C934 1.384 . S
C933 C932 1.377 . S
C933 C939 1.390 . S
C934 H925 0.930 . S
C934 C932 1.384 . S
C934 C935 1.372 . S
C935 C934 1.372 . S
C935 C936 1.400 . S
C935 C940 1.490 . S
C936 H926 0.930 . S
C936 C935 1.400 . S
C936 C939 1.386 . S
H937 C953 0.930 1_565 S
H938 C954 0.931 . S
C939 H927 0.929 . S
C939 C933 1.390 . S
C939 C936 1.386 . S
C940 C935 1.490 . S
C940 C942 1.395 . S
C940 C943 1.403 . S
H941 C947 0.930 . S
C942 H928 0.930 . S
C942 C940 1.395 . S
C942 C945 1.403 . S
C943 C940 1.403 . S
C943 C944 1.524 . S
C943 C947 1.400 . S
C944 H929 0.960 . S
C944 H930 0.960 . S
C944 H931 0.960 . S
C944 C943 1.524 . S
C945 C942 1.403 . S
C945 C946 1.392 . S
C945 C949 1.495 . S
C946 C945 1.392 . S
C946 C947 1.385 . S
C946 C948 1.478 . S
C947 H941 0.930 . S
C947 C943 1.400 . S
C947 C946 1.385 . S
C948 C946 1.478 . S
C948 C950 1.381 . S
C948 C954 1.383 . S
C949 C945 1.495 . S
C949 H955 0.959 . S
C949 H956 0.961 . S
C949 H957 0.960 . S
C950 C948 1.381 . S
C950 C951 1.394 . S
C950 H958 0.930 . S
C951 C950 1.394 . S
C951 C952 1.383 . S
C951 H959 0.929 . S
C952 C951 1.383 . S
C952 C953 1.377 . S
C953 H937 0.930 1_545 S
C953 C952 1.377 . S
C953 C954 1.379 . S
C954 H938 0.931 . S
C954 C948 1.383 . S
C954 C953 1.379 . S
H955 C949 0.959 . S
H956 C949 0.961 . S
H957 C949 0.960 . S
H958 C950 0.930 . S
H959 C951 0.929 . S
H960 C968 0.929 1_554 S
H961 C970 0.930 . S
H962 C972 0.930 . S
H963 C975 0.929 . S
H964 C978 0.930 . S
H965 C980 0.960 . S
H966 C980 0.960 . S
H967 C980 0.960 . S
C968 H960 0.929 1_556 S
C968 C969 1.377 . S
C968 C970 1.384 . S
C969 C968 1.377 . S
C969 C975 1.390 . S
C970 H961 0.930 . S
C970 C968 1.384 . S
C970 C971 1.372 . S
C971 C970 1.372 . S
C971 C972 1.400 . S
C971 C976 1.490 . S
C972 H962 0.930 . S
C972 C971 1.400 . S
C972 C975 1.386 . S
H973 C989 0.930 . S
H974 C990 0.931 . S
C975 H963 0.929 . S
C975 C969 1.390 . S
C975 C972 1.386 . S
C976 C971 1.490 . S
C976 C978 1.395 . S
C976 C979 1.403 . S
H977 C983 0.930 . S
C978 H964 0.930 . S
C978 C976 1.395 . S
C978 C981 1.403 . S
C979 C976 1.403 . S
C979 C980 1.524 . S
C979 C983 1.400 . S
C980 H965 0.960 . S
C980 H966 0.960 . S
C980 H967 0.960 . S
C980 C979 1.524 . S
C981 C978 1.403 . S
C981 C982 1.392 . S
C981 C985 1.495 . S
C982 C981 1.392 . S
C982 C983 1.385 . S
C982 C984 1.478 . S
C983 H977 0.930 . S
C983 C979 1.400 . S
C983 C982 1.385 . S
C984 C982 1.478 . S
C984 C986 1.381 . S
C984 C990 1.383 . S
C985 C981 1.495 . S
C985 H991 0.959 . S
C985 H992 0.961 . S
C985 H993 0.960 . S
C986 C984 1.381 . S
C986 C987 1.394 . S
C986 H994 0.930 . S
C987 C986 1.394 . S
C987 C988 1.383 . S
C987 H995 0.929 . S
C988 C987 1.383 . S
C988 C989 1.377 . S
C989 H973 0.930 . S
C989 C988 1.377 . S
C989 C990 1.379 . S
C990 H974 0.931 . S
C990 C984 1.383 . S
C990 C989 1.379 . S
H991 C985 0.959 . S
H992 C985 0.961 . S
H993 C985 0.960 . S
H994 C986 0.930 . S
H995 C987 0.929 . S
H996 C1004 0.929 . S
H997 C1006 0.930 . S
H998 C1008 0.930 . S
H999 C1011 0.929 . S
H1000 C1014 0.930 . S
H1001 C1016 0.960 . S
H1002 C1016 0.960 1_554 S
H1003 C1016 0.960 . S
C1004 H996 0.929 . S
C1004 C1005 1.377 . S
C1004 C1006 1.384 . S
C1005 C1004 1.377 . S
C1005 C1011 1.390 . S
C1006 H997 0.930 . S
C1006 C1004 1.384 . S
C1006 C1007 1.372 . S
C1007 C1006 1.372 . S
C1007 C1008 1.400 . S
C1007 C1012 1.490 . S
C1008 H998 0.930 . S
C1008 C1007 1.400 . S
C1008 C1011 1.386 . S
H1009 C1025 0.930 . S
H1010 C1026 0.931 . S
C1011 H999 0.929 . S
C1011 C1005 1.390 . S
C1011 C1008 1.386 . S
C1012 C1007 1.490 . S
C1012 C1014 1.395 . S
C1012 C1015 1.403 . S
H1013 C1019 0.930 . S
C1014 H1000 0.930 . S
C1014 C1012 1.395 . S
C1014 C1017 1.403 . S
C1015 C1012 1.403 . S
C1015 C1016 1.524 . S
C1015 C1019 1.400 . S
C1016 H1001 0.960 . S
C1016 H1002 0.960 1_556 S
C1016 H1003 0.960 . S
C1016 C1015 1.524 . S
C1017 C1014 1.403 . S
C1017 C1018 1.392 . S
C1017 C1021 1.495 . S
C1018 C1017 1.392 . S
C1018 C1019 1.385 . S
C1018 C1020 1.478 . S
C1019 H1013 0.930 . S
C1019 C1015 1.400 . S
C1019 C1018 1.385 . S
C1020 C1018 1.478 . S
C1020 C1022 1.381 . S
C1020 C1026 1.383 . S
C1021 C1017 1.495 . S
C1021 H1027 0.959 . S
C1021 H1028 0.961 . S
C1021 H1029 0.960 . S
C1022 C1020 1.381 . S
C1022 C1023 1.394 . S
C1022 H1030 0.930 . S
C1023 C1022 1.394 . S
C1023 C1024 1.383 . S
C1023 H1031 0.929 . S
C1024 C1023 1.383 . S
C1024 C1025 1.377 . S
C1025 H1009 0.930 . S
C1025 C1024 1.377 . S
C1025 C1026 1.379 . S
C1026 H1010 0.931 . S
C1026 C1020 1.383 . S
C1026 C1025 1.379 . S
H1027 C1021 0.959 . S
H1028 C1021 0.961 . S
H1029 C1021 0.960 . S
H1030 C1022 0.930 . S
H1031 C1023 0.929 . S
H1032 C1040 0.929 . S
H1033 C1042 0.930 . S
H1034 C1044 0.930 1_455 S
H1035 C1047 0.929 . S
H1036 C1050 0.930 . S
H1037 C1052 0.960 . S
H1038 C1052 0.960 . S
H1039 C1052 0.960 . S
C1040 H1032 0.929 . S
C1040 C1041 1.377 . S
C1040 C1042 1.384 . S
C1041 C1040 1.377 . S
C1041 C1047 1.390 . S
C1042 H1033 0.930 . S
C1042 C1040 1.384 . S
C1042 C1043 1.372 . S
C1043 C1042 1.372 . S
C1043 C1044 1.400 . S
C1043 C1048 1.490 . S
C1044 H1034 0.930 1_655 S
C1044 C1043 1.400 . S
C1044 C1047 1.386 . S
H1045 C1061 0.930 . S
H1046 C1062 0.931 . S
C1047 H1035 0.929 . S
C1047 C1041 1.390 . S
C1047 C1044 1.386 . S
C1048 C1043 1.490 . S
C1048 C1050 1.395 . S
C1048 C1051 1.403 . S
H1049 C1055 0.930 . S
C1050 H1036 0.930 . S
C1050 C1048 1.395 . S
C1050 C1053 1.403 . S
C1051 C1048 1.403 . S
C1051 C1052 1.524 . S
C1051 C1055 1.400 . S
C1052 H1037 0.960 . S
C1052 H1038 0.960 . S
C1052 H1039 0.960 . S
C1052 C1051 1.524 . S
C1053 C1050 1.403 . S
C1053 C1054 1.392 . S
C1053 C1057 1.495 . S
C1054 C1053 1.392 . S
C1054 C1055 1.385 . S
C1054 C1056 1.478 . S
C1055 H1049 0.930 . S
C1055 C1051 1.400 . S
C1055 C1054 1.385 . S
C1056 C1054 1.478 . S
C1056 C1058 1.381 . S
C1056 C1062 1.383 1_655 S
C1057 C1053 1.495 . S
C1057 H1063 0.959 . S
C1057 H1064 0.961 . S
C1057 H1065 0.960 . S
C1058 C1056 1.381 . S
C1058 C1059 1.394 . S
C1058 H1066 0.930 . S
C1059 C1058 1.394 . S
C1059 C1060 1.383 . S
C1059 H1067 0.929 . S
C1060 C1059 1.383 . S
C1060 C1061 1.377 1_655 S
C1061 H1045 0.930 . S
C1061 C1060 1.377 1_455 S
C1061 C1062 1.379 . S
C1062 H1046 0.931 . S
C1062 C1056 1.383 1_455 S
C1062 C1061 1.379 . S
H1063 C1057 0.959 . S
H1064 C1057 0.961 . S
H1065 C1057 0.960 . S
H1066 C1058 0.930 . S
H1067 C1059 0.929 . S
H1068 C1076 0.929 1_545 S
H1069 C1078 0.930 1_545 S
H1070 C1080 0.930 . S
H1071 C1083 0.929 . S
H1072 C1086 0.930 . S
H1073 C1088 0.960 . S
H1074 C1088 0.960 . S
H1075 C1088 0.960 . S
C1076 H1068 0.929 1_565 S
C1076 C1077 1.377 . S
C1076 C1078 1.384 . S
C1077 C1076 1.377 . S
C1077 C1083 1.390 . S
C1078 H1069 0.930 1_565 S
C1078 C1076 1.384 . S
C1078 C1079 1.372 . S
C1079 C1078 1.372 . S
C1079 C1080 1.400 . S
C1079 C1084 1.490 . S
C1080 H1070 0.930 . S
C1080 C1079 1.400 . S
C1080 C1083 1.386 . S
H1081 C1097 0.930 . S
H1082 C1098 0.931 . S
C1083 H1071 0.929 . S
C1083 C1077 1.390 . S
C1083 C1080 1.386 . S
C1084 C1079 1.490 . S
C1084 C1086 1.395 . S
C1084 C1087 1.403 . S
H1085 C1091 0.930 . S
C1086 H1072 0.930 . S
C1086 C1084 1.395 . S
C1086 C1089 1.403 . S
C1087 C1084 1.403 . S
C1087 C1088 1.524 . S
C1087 C1091 1.400 . S
C1088 H1073 0.960 . S
C1088 H1074 0.960 . S
C1088 H1075 0.960 . S
C1088 C1087 1.524 . S
C1089 C1086 1.403 . S
C1089 C1090 1.392 . S
C1089 C1093 1.495 . S
C1090 C1089 1.392 . S
C1090 C1091 1.385 . S
C1090 C1092 1.478 . S
C1091 H1085 0.930 . S
C1091 C1087 1.400 . S
C1091 C1090 1.385 . S
C1092 C1090 1.478 . S
C1092 C1094 1.381 1_565 S
C1092 C1098 1.383 . S
C1093 C1089 1.495 . S
C1093 H1099 0.964 . S
C1093 H1100 0.961 . S
C1093 H1101 0.960 1_565 S
C1094 C1092 1.381 1_545 S
C1094 C1095 1.394 . S
C1094 H1102 0.930 . S
C1095 C1094 1.394 . S
C1095 C1096 1.383 1_545 S
C1095 H1103 0.929 . S
C1096 C1095 1.383 1_565 S
C1096 C1097 1.377 . S
C1097 H1081 0.930 . S
C1097 C1096 1.377 . S
C1097 C1098 1.379 . S
C1098 H1082 0.931 . S
C1098 C1092 1.383 . S
C1098 C1097 1.379 . S
H1099 C1093 0.964 . S
H1100 C1093 0.961 . S
H1101 C1093 0.960 1_545 S
H1102 C1094 0.930 . S
H1103 C1095 0.929 . S
H1104 C1112 0.929 . S
H1105 C1114 0.930 . S
H1106 C1116 0.930 . S
H1107 C1119 0.929 . S
H1108 C1122 0.930 . S
H1109 C1124 0.960 . S
H1110 C1124 0.960 . S
H1111 C1124 0.960 . S
C1112 H1104 0.929 . S
C1112 C1113 1.377 . S
C1112 C1114 1.384 . S
C1113 C1112 1.377 . S
C1113 C1119 1.390 . S
C1114 H1105 0.930 . S
C1114 C1112 1.384 . S
C1114 C1115 1.372 . S
C1115 C1114 1.372 . S
C1115 C1116 1.400 . S
C1115 C1120 1.490 . S
C1116 H1106 0.930 . S
C1116 C1115 1.400 . S
C1116 C1119 1.386 . S
H1117 C1133 0.930 . S
H1118 C1134 0.931 . S
C1119 H1107 0.929 . S
C1119 C1113 1.390 . S
C1119 C1116 1.386 . S
C1120 C1115 1.490 . S
C1120 C1122 1.395 . S
C1120 C1123 1.403 . S
H1121 C1127 0.930 . S
C1122 H1108 0.930 . S
C1122 C1120 1.395 . S
C1122 C1125 1.403 . S
C1123 C1120 1.403 . S
C1123 C1124 1.524 . S
C1123 C1127 1.400 . S
C1124 H1109 0.960 . S
C1124 H1110 0.960 . S
C1124 H1111 0.960 . S
C1124 C1123 1.524 . S
C1125 C1122 1.403 . S
C1125 C1126 1.392 . S
C1125 C1129 1.495 . S
C1126 C1125 1.392 . S
C1126 C1127 1.385 . S
C1126 C1128 1.478 . S
C1127 H1121 0.930 . S
C1127 C1123 1.400 . S
C1127 C1126 1.385 . S
C1128 C1126 1.478 . S
C1128 C1130 1.381 . S
C1128 C1134 1.383 . S
C1129 C1125 1.495 . S
C1129 H1135 0.959 . S
C1129 H1136 0.961 . S
C1129 H1137 0.960 . S
C1130 C1128 1.381 . S
C1130 C1131 1.394 . S
C1130 H1138 0.930 . S
C1131 C1130 1.394 . S
C1131 C1132 1.383 . S
C1131 H1139 0.929 . S
C1132 C1131 1.383 . S
C1132 C1133 1.377 . S
C1133 H1117 0.930 . S
C1133 C1132 1.377 . S
C1133 C1134 1.379 . S
C1134 H1118 0.931 . S
C1134 C1128 1.383 . S
C1134 C1133 1.379 . S
H1135 C1129 0.959 . S
H1136 C1129 0.961 . S
H1137 C1129 0.960 . S
H1138 C1130 0.930 . S
H1139 C1131 0.929 . S
H1140 C1148 0.929 . S
H1141 C1150 0.930 . S
H1142 C1152 0.930 . S
H1143 C1155 0.929 . S
H1144 C1158 0.930 . S
H1145 C1160 0.960 . S
H1146 C1160 0.960 . S
H1147 C1160 0.960 . S
C1148 H1140 0.929 . S
C1148 C1149 1.377 . S
C1148 C1150 1.384 . S
C1149 C1148 1.377 . S
C1149 C1155 1.390 . S
C1150 H1141 0.930 . S
C1150 C1148 1.384 . S
C1150 C1151 1.372 . S
C1151 C1150 1.372 . S
C1151 C1152 1.400 . S
C1151 C1156 1.490 . S
C1152 H1142 0.930 . S
C1152 C1151 1.400 . S
C1152 C1155 1.386 . S
H1153 C1169 0.930 . S
H1154 C1170 0.931 . S
C1155 H1143 0.929 . S
C1155 C1149 1.390 . S
C1155 C1152 1.386 . S
C1156 C1151 1.490 . S
C1156 C1158 1.395 . S
C1156 C1159 1.403 . S
H1157 C1163 0.930 . S
C1158 H1144 0.930 . S
C1158 C1156 1.395 . S
C1158 C1161 1.403 . S
C1159 C1156 1.403 . S
C1159 C1160 1.524 . S
C1159 C1163 1.400 . S
C1160 H1145 0.960 . S
C1160 H1146 0.960 . S
C1160 H1147 0.960 . S
C1160 C1159 1.524 . S
C1161 C1158 1.403 . S
C1161 C1162 1.392 . S
C1161 C1165 1.495 . S
C1162 C1161 1.392 . S
C1162 C1163 1.385 . S
C1162 C1164 1.478 . S
C1163 H1157 0.930 . S
C1163 C1159 1.400 . S
C1163 C1162 1.385 . S
C1164 C1162 1.478 . S
C1164 C1166 1.381 . S
C1164 C1170 1.383 . S
C1165 C1161 1.495 . S
C1165 H1171 0.959 . S
C1165 H1172 0.961 . S
C1165 H1173 0.960 . S
C1166 C1164 1.381 . S
C1166 C1167 1.394 . S
C1166 H1174 0.930 . S
C1167 C1166 1.394 . S
C1167 C1168 1.383 . S
C1167 H1175 0.929 . S
C1168 C1167 1.383 . S
C1168 C1169 1.377 . S
C1169 H1153 0.930 . S
C1169 C1168 1.377 . S
C1169 C1170 1.379 . S
C1170 H1154 0.931 . S
C1170 C1164 1.383 . S
C1170 C1169 1.379 . S
H1171 C1165 0.959 . S
H1172 C1165 0.961 . S
H1173 C1165 0.960 . S
H1174 C1166 0.930 . S
H1175 C1167 0.929 . S
C321 C125 2.209 . S
C340 C183 2.298 . S
C376 C209 1.676 . S
C357 C144 1.667 . S
C412 C249 1.844 . S
C393 C87 1.761 . S
C448 C303 2.397 . S
C429 C106 2.293 . S
C484 C164 2.288 1_565 S
C465 C49 2.276 . S
C501 C68 1.629 . S
C520 C194 1.689 . S
C537 C11 1.824 . S
C556 C234 1.846 . S
C573 C30 2.373 . S
C592 C284 2.399 1_655 S
C628 C160 0.383 . S
C609 C97 0.450 . S
C664 C221 0.566 . S
C645 C116 0.603 . S
C700 C261 0.524 . S
C681 C135 0.506 . S
C717 C78 0.425 . S
C736 C280 0.383 . S
C753 C21 0.450 . S
C772 C181 0.330 . S
C808 C200 0.590 . S
C789 C40 0.610 . S
C844 C240 0.454 . S
C825 C59 0.517 . S
C861 C2 0.447 . S
C880 C301 0.355 . S
C897 C101 1.821 . S
C916 C154 1.970 . S
C933 C120 2.419 . S
C952 C204 2.580 . S
C988 C244 2.299 . S
C969 C139 2.166 . S
C1024 C274 1.698 . S
C1005 C82 1.573 . S
C1041 C25 1.823 . S
C1060 C169 1.978 . S
C1096 C223 2.584 . S
C1077 C44 2.422 . S
C1132 C263 2.306 . S
C1113 C63 2.160 . S
C1149 C6 1.582 . S
C1168 C289 1.697 . S
