# Generated by pormake.
# Topology zzz, (3,6)-cn, num edge types: 1
# Building blocks:
#     Node 0, Type 0, BuildingBlock: QEWDON_clean_linker_0, # of connection points: 3
#     Node 1, Type 0, BuildingBlock: QEWDON_clean_linker_0, # of connection points: 3
#     Node 2, Type 0, BuildingBlock: QEWDON_clean_linker_0, # of connection points: 3
#     Node 3, Type 0, BuildingBlock: QEWDON_clean_linker_0, # of connection points: 3
#     Node 4, Type 0, BuildingBlock: QEWDON_clean_linker_0, # of connection points: 3
#     Node 5, Type 0, BuildingBlock: QEWDON_clean_linker_0, # of connection points: 3
#     Node 6, Type 0, BuildingBlock: QEWDON_clean_linker_0, # of connection points: 3
#     Node 7, Type 0, BuildingBlock: QEWDON_clean_linker_0, # of connection points: 3
#     Node 8, Type 1, BuildingBlock: MIFKUJ_clean_sbu_0, # of connection points: 6
#     Node 9, Type 1, BuildingBlock: MIFKUJ_clean_sbu_0, # of connection points: 6
#     Node 10, Type 1, BuildingBlock: MIFKUJ_clean_sbu_0, # of connection points: 6
#     Node 11, Type 1, BuildingBlock: MIFKUJ_clean_sbu_0, # of connection points: 6
#     Edge 12, Type (0, 1), BuildingBlock: OJICUG_clean_linker_0, # of connection points: 2
#     Edge 13, Type (0, 1), BuildingBlock: OJICUG_clean_linker_0, # of connection points: 2
#     Edge 14, Type (0, 1), BuildingBlock: OJICUG_clean_linker_0, # of connection points: 2
#     Edge 15, Type (0, 1), BuildingBlock: OJICUG_clean_linker_0, # of connection points: 2
#     Edge 16, Type (0, 1), BuildingBlock: OJICUG_clean_linker_0, # of connection points: 2
#     Edge 17, Type (0, 1), BuildingBlock: OJICUG_clean_linker_0, # of connection points: 2
#     Edge 18, Type (0, 1), BuildingBlock: OJICUG_clean_linker_0, # of connection points: 2
#     Edge 19, Type (0, 1), BuildingBlock: OJICUG_clean_linker_0, # of connection points: 2
#     Edge 20, Type (0, 1), BuildingBlock: OJICUG_clean_linker_0, # of connection points: 2
#     Edge 21, Type (0, 1), BuildingBlock: OJICUG_clean_linker_0, # of connection points: 2
#     Edge 22, Type (0, 1), BuildingBlock: OJICUG_clean_linker_0, # of connection points: 2
#     Edge 23, Type (0, 1), BuildingBlock: OJICUG_clean_linker_0, # of connection points: 2
#     Edge 24, Type (0, 1), BuildingBlock: OJICUG_clean_linker_0, # of connection points: 2
#     Edge 25, Type (0, 1), BuildingBlock: OJICUG_clean_linker_0, # of connection points: 2
#     Edge 26, Type (0, 1), BuildingBlock: OJICUG_clean_linker_0, # of connection points: 2
#     Edge 27, Type (0, 1), BuildingBlock: OJICUG_clean_linker_0, # of connection points: 2
#     Edge 28, Type (0, 1), BuildingBlock: OJICUG_clean_linker_0, # of connection points: 2
#     Edge 29, Type (0, 1), BuildingBlock: OJICUG_clean_linker_0, # of connection points: 2
#     Edge 30, Type (0, 1), BuildingBlock: OJICUG_clean_linker_0, # of connection points: 2
#     Edge 31, Type (0, 1), BuildingBlock: OJICUG_clean_linker_0, # of connection points: 2
#     Edge 32, Type (0, 1), BuildingBlock: OJICUG_clean_linker_0, # of connection points: 2
#     Edge 33, Type (0, 1), BuildingBlock: OJICUG_clean_linker_0, # of connection points: 2
#     Edge 34, Type (0, 1), BuildingBlock: OJICUG_clean_linker_0, # of connection points: 2
#     Edge 35, Type (0, 1), BuildingBlock: OJICUG_clean_linker_0, # of connection points: 2
# Relax obj value: 0.054
# Max RMSD: 0.102
# Mean RMSD: 0.040
data_MOF--net-zzz--node1-MIFKUJ_clean_sbu_0--node2-QEWDON_clean_linker_0--edge1-OJICUG_clean_linker_0
_symmetry_space_group_name_H-M    P1
_symmetry_Int_Tables_number       1
_symmetry_cell_setting            triclinic
loop_
_symmetry_equiv_pos_as_xyz
'x, y, z'
_cell_length_a     39.366003
_cell_length_b     39.765509
_cell_length_c     12.474265
_cell_angle_alpha  89.929853
_cell_angle_beta   90.530736
_cell_angle_gamma 89.933243
loop_
_atom_site_label
_atom_site_type_symbol
_atom_site_fract_x
_atom_site_fract_y
_atom_site_fract_z
_atom_type_partial_charge
H0 H 0.77339 0.51175 0.9069 0.0
C1 C 0.78545 0.50775 -0.0158 0.0
C2 C 0.81842 0.49439 -0.0132 0.0
C3 C 0.76929 0.51806 0.07935 0.0
H4 H 0.86166 0.48269 0.08671 0.0
C5 C 0.83546 0.49128 0.08473 0.0
C6 C 0.821 0.50265 0.17924 0.0
C7 C 0.7877 0.51548 0.17768 0.0
C8 C 0.73471 0.53405 0.07331 0.0
H9 H 0.77668 0.52365 0.2524 0.0
C10 C 0.7113 0.52583 -0.00984 0.0
C11 C 0.6801 0.54309 -0.0211 0.0
C12 C 0.72552 0.5592 0.147 0.0
H13 H 0.74276 0.56718 0.20998 0.0
C14 C 0.69419 0.5754 0.13871 0.0
H15 H 0.7175 0.50648 0.93267 0.0
C16 C 0.67171 0.56757 0.0555 0.0
H17 H 0.64762 0.58072 0.05145 0.0
H18 H 0.68749 0.59459 0.1963 0.0
H19 H 0.03195 0.7621 0.90584 0.0
C20 C 0.03824 0.77448 -0.01923 0.0
C21 C 0.05226 0.80688 -0.02223 0.0
C22 C 0.02926 0.75954 0.07908 0.0
H23 H 0.06813 0.84937 0.07221 0.0
C24 C 0.05898 0.82363 0.07389 0.0
C25 C 0.04906 0.81012 0.17169 0.0
C26 C 0.03437 0.77798 0.17494 0.0
C27 C 1.01089 0.72672 0.07879 0.0
H28 H 0.02634 0.76791 0.25132 0.0
C29 C 0.01884 0.70143 0.00343 0.0
C30 C 0.99945 0.6717 -0.0036 0.0
C31 C 0.98364 0.72138 0.14891 0.0
H32 H 0.97615 0.74044 0.20593 0.0
C33 C 0.96467 0.69186 0.14348 0.0
H34 H 0.04025 0.70483 0.95059 0.0
C35 C 0.97224 0.66735 0.06756 0.0
H36 H 0.95625 0.64525 0.06339 0.0
H37 H 0.94349 0.68825 0.19702 0.0
H38 H 0.76963 0.01686 0.91058 0.0
C39 C 0.75809 0.02384 -0.0142 0.0
C40 C 0.72531 0.03759 -0.01666 0.0
C41 C 0.77472 0.01692 0.08415 0.0
H42 H 0.68302 0.05373 0.07805 0.0
C43 C 0.70913 0.04489 0.0794 0.0
C44 C 0.72398 0.03658 0.1775 0.0
C45 C 0.75694 0.02295 0.18072 0.0
C46 C 0.80918 1.00087 0.08383 0.0
H47 H 0.76816 0.01677 0.25779 0.0
C48 C 0.83218 1.00719 -0.00038 0.0
C49 C 0.86342 0.98997 -0.00662 0.0
C50 C 0.81869 0.97767 0.16399 0.0
H51 H 0.80168 0.9713 0.22851 0.0
C52 C 0.85007 0.96137 0.16026 0.0
H53 H 0.82557 0.02507 0.93739 0.0
C54 C 0.87221 0.9673 0.07569 0.0
H55 H 0.89634 0.9542 0.07516 0.0
H56 H 0.85706 0.94364 0.22259 0.0
H57 H 0.51373 0.76628 0.90486 0.0
C58 C 0.50666 0.75472 -0.01995 0.0
C59 C 0.49343 0.72203 -0.02199 0.0
C60 C 0.51304 0.77129 0.07822 0.0
H61 H 0.47765 0.67991 0.07332 0.0
C62 C 0.48605 0.70591 0.07423 0.0
C63 C 0.49388 0.72076 0.17225 0.0
C64 C 0.50698 0.75361 0.17504 0.0
C65 C 0.52871 0.80559 0.07777 0.0
H66 H 0.5128 0.76482 0.25205 0.0
C67 C 0.5221 0.82839 -0.00715 0.0
C68 C 0.53909 0.8595 -0.01325 0.0
C69 C 0.55191 0.81516 0.15867 0.0
H70 H 0.5585 0.7983 0.22374 0.0
C71 C 0.56794 0.84641 0.15499 0.0
H72 H 0.50422 0.82173 0.92999 0.0
C73 C 0.56176 0.86836 0.06975 0.0
H74 H 0.57469 0.89239 0.06916 0.0
H75 H 0.58568 0.85344 0.21785 0.0
H76 H 0.28312 0.55086 0.21524 0.0
C77 C 0.26846 0.5447 0.14405 0.0
C78 C 0.23301 0.54406 0.15052 0.0
C79 C 0.2846 0.53849 0.04525 0.0
H80 H 0.186 0.53586 0.06646 0.0
C81 C 0.21351 0.5364 0.06024 0.0
C82 C 0.22851 0.5302 0.96178 0.0
C83 C 0.2641 0.53151 0.95355 0.0
C84 C 0.32249 0.54038 0.03775 0.0
H85 H 0.27553 0.52679 0.8764 0.0
C86 C 0.34371 0.53079 0.1249 0.0
C87 C 0.37934 0.53331 0.11807 0.0
C88 C 0.33779 0.5526 0.94387 0.0
H89 H 0.32259 0.56113 0.8764 0.0
C90 C 0.37306 0.55479 0.93648 0.0
H91 H 0.33271 0.52075 0.19744 0.0
C92 C 0.39372 0.54522 0.02264 0.0
H93 H 0.421 0.54772 0.01532 0.0
H94 H 0.38445 0.56434 0.86389 0.0
H95 H 0.99421 0.28119 0.2104 0.0
C96 C 1.00204 0.2666 0.14161 0.0
C97 C 1.00311 0.23155 0.15007 0.0
C98 C 1.00989 0.28244 0.04346 0.0
H99 H 1.01343 0.18501 0.07023 0.0
C100 C 1.01288 0.21223 0.06263 0.0
C101 C 0.02063 0.22706 0.96478 0.0
C102 C 0.01895 0.26222 0.95465 0.0
C103 C 1.00739 0.31977 0.03315 0.0
H104 H 0.02473 0.27355 0.87799 0.0
C105 C 1.01593 0.34098 0.12004 0.0
C106 C 1.01263 0.37613 0.1113 0.0
C107 C 0.99563 0.33448 0.93701 0.0
H108 H 0.98798 0.31911 0.86943 0.0
C109 C 0.99274 0.36932 0.92758 0.0
H110 H 0.02567 0.33029 0.1941 0.0
C111 C 1.00112 0.39005 0.01389 0.0
H112 H 0.99794 0.41697 0.00507 0.0
H113 H 0.98351 0.3803 0.85337 0.0
H114 H 0.24672 0.97939 0.20088 0.0
C115 C 0.2599 0.9872 0.12919 0.0
C116 C 0.29502 0.99201 0.13421 0.0
C117 C 0.24224 0.99136 0.03095 0.0
H118 H 0.33993 1.00516 0.04841 0.0
C119 C 0.31258 1.00182 0.0432 0.0
C120 C 0.29599 1.00584 0.94501 0.0
C121 C 0.26076 1.00032 0.93825 0.0
C122 C 0.20487 0.98537 0.0255 0.0
H123 H 0.24802 1.00313 0.86143 0.0
C124 C 0.18384 0.99449 0.11179 0.0
C125 C 0.14871 0.98807 0.10857 0.0
C126 C 0.19002 0.96982 0.93533 0.0
H127 H 0.20539 0.9618 0.86852 0.0
C128 C 0.15511 0.96366 0.93136 0.0
H129 H 0.19463 1.00722 0.18086 0.0
C130 C 0.13455 0.97269 0.0172 0.0
H131 H 0.10762 0.9672 0.01278 0.0
H132 H 0.14399 0.95152 0.86179 0.0
H133 H 0.55241 0.24687 0.2171 0.0
C134 C 0.54495 0.26065 0.14569 0.0
C135 C 0.54129 0.29557 0.15169 0.0
C136 C 0.54009 0.24395 0.04681 0.0
H137 H 0.52943 0.34101 0.06689 0.0
C138 C 0.53194 0.31386 0.061 0.0
C139 C 0.52719 0.2982 0.96234 0.0
C140 C 0.53152 0.2632 0.95464 0.0
C141 C 0.54494 0.20679 0.03975 0.0
H142 H 0.52806 0.25121 0.87741 0.0
C143 C 0.53546 0.18553 0.12518 0.0
C144 C 0.54039 0.15053 0.11913 0.0
C145 C 0.55958 0.19229 0.94821 0.0
H146 H 0.56797 0.20777 0.88211 0.0
C147 C 0.56429 0.15756 0.94165 0.0
H148 H 0.52353 0.19601 0.19559 0.0
C149 C 0.55472 0.13677 0.02626 0.0
H150 H 0.55902 0.10993 0.01977 0.0
H151 H 0.57566 0.14673 0.87093 0.0
Zn152 Zn 1.00382 0.06576 0.54561 0.0
Zn153 Zn 0.02987 0.97374 0.5861 0.0
C154 C 1.00469 0.11499 0.69369 0.0
O155 O 0.97277 0.11112 0.66452 0.0
C156 C 0.05103 0.926 0.44112 0.0
O157 O 0.07902 0.9341 0.49308 0.0
O158 O 0.98507 0.1031 0.45269 0.0
O159 O 0.03596 0.04183 0.44588 0.0
O160 O 0.0651 1.0089 0.55423 0.0
C161 C 1.00802 0.12505 0.43712 0.0
O162 O 0.03931 0.11853 0.46847 0.0
O163 O 0.0265 0.09349 0.66255 0.0
C164 C 0.02814 0.91454 0.6924 0.0
O165 O 0.99905 0.91606 0.64002 0.0
O166 O 0.04771 0.93998 0.69131 0.0
O167 O 0.98506 0.98878 0.6486 0.0
O168 O 0.96578 0.04033 0.61654 0.0
O169 O 0.02432 0.9434 0.45679 0.0
C170 C 0.06141 0.02293 0.4635 0.0
C171 C 0.96239 1.01137 0.65845 0.0
Zn172 Zn 0.46228 1.00066 0.5379 0.0
Zn173 Zn 0.5571 0.02478 0.5821 0.0
C174 C 0.40917 0.9964 0.67364 0.0
O175 O 0.41509 0.96558 0.64071 0.0
C176 C 0.60694 0.04481 0.44053 0.0
O177 O 0.60006 0.07263 0.49276 0.0
O178 O 0.4275 0.98213 0.43482 0.0
O179 O 0.48642 0.03573 0.44816 0.0
O180 O 0.52285 0.0614 0.55485 0.0
C181 C 0.40516 1.00461 0.41604 0.0
O182 O 0.41065 0.03545 0.44971 0.0
O183 O 0.43041 0.01943 0.65035 0.0
C184 C 0.61645 0.01928 0.69104 0.0
O185 O 0.61404 0.99116 0.63629 0.0
O186 O 0.59163 0.03981 0.68944 0.0
O187 O 0.54058 0.98063 0.64181 0.0
O188 O 0.48806 0.96286 0.61062 0.0
O189 O 0.58773 0.01936 0.45366 0.0
C190 C 0.50687 0.05978 0.46627 0.0
C191 C 0.51742 0.95864 0.65178 0.0
Zn192 Zn 0.53392 0.46196 0.5457 0.0
Zn193 Zn 0.50945 0.55566 0.5823 0.0
C194 C 0.53825 0.41066 0.68824 0.0
O195 O 0.56938 0.41599 0.6551 0.0
C196 C 0.48816 0.60496 0.43993 0.0
O197 O 0.46025 0.59761 0.49193 0.0
O198 O 0.55214 0.42632 0.44711 0.0
O199 O 0.49799 0.48505 0.4527 0.0
O200 O 0.47199 0.52218 0.55406 0.0
C201 C 0.52957 0.4039 0.43139 0.0
O202 O 0.49853 0.40941 0.46512 0.0
O203 O 0.51509 0.43167 0.66217 0.0
C204 C 0.51457 0.61442 0.69058 0.0
O205 O 0.54294 0.61253 0.6362 0.0
O206 O 0.49424 0.58957 0.68915 0.0
O207 O 0.55464 0.53965 0.64173 0.0
O208 O 0.57282 0.48762 0.61482 0.0
O209 O 0.51427 0.5864 0.45387 0.0
C210 C 0.47347 0.50527 0.46802 0.0
C211 C 0.57713 0.51693 0.65315 0.0
Zn212 Zn 0.06417 0.53548 0.53265 0.0
Zn213 Zn 0.9876 0.5018 0.60189 0.0
C214 C 0.11352 0.54206 0.68643 0.0
O215 O 0.10807 0.57266 0.65013 0.0
C216 C 0.93771 0.49145 0.45001 0.0
O217 O 0.9451 0.46142 0.48772 0.0
O218 O 0.10146 0.55401 0.44057 0.0
O219 O 0.04436 0.49875 0.43838 0.0
O220 O 0.01848 0.46494 0.55101 0.0
C221 C 0.12528 0.53249 0.43217 0.0
O222 O 0.12055 0.50195 0.46946 0.0
O223 O 0.09309 0.51874 0.65831 0.0
C224 C 0.92829 0.50502 0.70595 0.0
O225 O 0.93361 0.53531 0.6674 0.0
O226 O 0.95148 0.48288 0.69684 0.0
O227 O 1.00605 0.53973 0.69365 0.0
O228 O 0.03467 0.57341 0.58687 0.0
O229 O 0.95693 0.516 0.47629 0.0
C230 C 0.03223 0.47001 0.46077 0.0
C231 C 0.01885 0.56834 0.67371 0.0
C232 C 0.13673 0.99004 0.30629 0.0
C233 C 0.1268 0.99745 0.20022 0.0
H234 H 0.12385 0.99214 0.47289 0.0
C235 C 0.09557 0.01366 0.18195 0.0
H236 H 0.16057 0.97733 0.32272 0.0
C237 C 0.07468 0.02222 0.2676 0.0
C238 C 0.08432 0.01446 0.3737 0.0
H239 H 0.0874 0.02001 0.10126 0.0
H240 H 0.05074 0.03464 0.25032 0.0
C241 C 0.11564 0.99835 0.39215 0.0
C242 C 0.54056 0.1357 0.31522 0.0
C243 C 0.53065 0.12822 0.20932 0.0
H244 H 0.54108 0.11986 0.4797 0.0
C245 C 0.51207 0.09874 0.18941 0.0
H246 H 0.5551 0.15818 0.3327 0.0
C247 C 0.50382 0.077 0.27325 0.0
C248 C 0.51434 0.08399 0.379 0.0
H249 H 0.50384 0.09249 0.10875 0.0
H250 H 0.48967 0.05437 0.25463 0.0
C251 C 0.53267 0.11369 0.39918 0.0
C252 C 0.39547 0.53631 0.31384 0.0
C253 C 0.40183 0.52407 0.21019 0.0
H254 H 0.41314 0.54023 0.47663 0.0
C255 C 0.43094 0.50436 0.19362 0.0
H256 H 0.37335 0.55176 0.32886 0.0
C257 C 0.45358 0.4976 0.27797 0.0
C258 C 0.44792 0.5107 0.38102 0.0
H259 H 0.43637 0.49433 0.1149 0.0
H260 H 0.47597 0.48268 0.26154 0.0
C261 C 0.41838 0.52986 0.39825 0.0
C262 C 0.03849 0.42845 0.18854 0.0
C263 C 0.02039 0.39845 0.20389 0.0
H264 H 0.05688 0.47413 0.25746 0.0
C265 C 1.0083 0.39087 0.30692 0.0
H266 H 0.04857 0.43475 0.11054 0.0
C267 C 1.01303 0.41353 0.39169 0.0
C268 C 0.03008 0.44415 0.37519 0.0
H269 H 0.99409 0.36801 0.32107 0.0
H270 H 1.00249 0.40747 0.46923 0.0
C271 C 0.04336 0.45096 0.2731 0.0
C272 C 0.89138 0.02731 0.85603 0.0
C273 C 0.88665 0.99517 0.90079 0.0
H274 H 0.91848 0.05759 0.74351 0.0
C275 C 0.90484 0.96795 0.85755 0.0
H276 H 0.87807 0.04893 0.88758 0.0
C277 C 0.92823 0.97295 0.77535 0.0
C278 C 0.9339 1.00527 0.7334 0.0
H279 H 0.90129 0.94269 0.88797 0.0
H280 H 0.94248 0.95152 0.74649 0.0
C281 C 0.91461 0.03228 0.77313 0.0
C282 C 0.50123 0.88758 0.84851 0.0
C283 C 0.53375 0.88257 0.89355 0.0
H284 H 0.47056 0.9151 0.73593 0.0
C285 C 0.56127 0.90045 0.85037 0.0
H286 H 0.47941 0.87441 0.87997 0.0
C287 C 0.55619 0.92388 0.76814 0.0
C288 C 0.52347 0.92997 0.72623 0.0
H289 H 0.58681 0.89666 0.88108 0.0
H290 H 0.57787 0.93788 0.73945 0.0
C291 C 0.49616 0.91094 0.76567 0.0
C292 C 0.63836 0.56291 0.83812 0.0
C293 C 0.65632 0.53629 0.88713 0.0
H294 H 0.59987 0.57783 0.72559 0.0
C295 C 0.65038 0.50338 0.85 0.0
H296 H 0.64284 0.58869 0.86229 0.0
C297 C 0.62596 0.49718 0.76971 0.0
C298 C 0.60678 0.52372 0.72496 0.0
H299 H 0.66357 0.48222 0.88591 0.0
H300 H 0.62107 0.4714 0.74625 0.0
C301 C 0.61387 0.55672 0.75868 0.0
C302 C 1.01677 0.65411 0.80948 0.0
C303 C 1.0068 0.64543 0.91421 0.0
H304 H 0.02854 0.63667 0.65099 0.0
C305 C 1.00248 0.61122 0.9391 0.0
H306 H 0.02006 0.6802 0.78693 0.0
C307 C 1.00666 0.58653 0.861 0.0
C308 C 1.01582 0.59516 0.7558 0.0
H309 H 0.99569 0.60339 0.01925 0.0
H310 H 1.00267 0.56052 0.88349 0.0
C311 C 0.02142 0.6292 0.73122 0.0
C312 C 0.97009 0.18911 0.24918 0.0
C313 C 0.99597 0.21345 0.24982 0.0
H314 H 0.9537 0.1413 0.30879 0.0
C315 C 0.02163 0.21192 0.32794 0.0
H316 H 0.95029 0.18981 0.18829 0.0
C317 C 0.024 0.18396 0.39499 0.0
C318 C 1.00061 0.15741 0.38482 0.0
H319 H 0.04196 0.23027 0.32882 0.0
H320 H 0.04556 0.18206 0.4493 0.0
C321 C 0.97234 0.16118 0.31678 0.0
C322 C 0.31693 0.01539 0.3031 0.0
C323 C 0.315 0.98805 0.23299 0.0
H324 H 0.34757 0.04218 0.41611 0.0
C325 C 0.34023 0.96304 0.23673 0.0
H326 H 0.29797 0.03516 0.29992 0.0
C327 C 0.36896 0.96722 0.30169 0.0
C328 C 0.37275 0.99661 0.36253 0.0
H329 H 0.3393 0.94204 0.1815 0.0
H330 H 0.38921 0.9488 0.29794 0.0
C331 C 0.34569 0.0197 0.36746 0.0
C332 C 0.51823 0.31665 0.32088 0.0
C333 C 0.54577 0.31462 0.25123 0.0
H334 H 0.49138 0.34708 0.43263 0.0
C335 C 0.5713 0.33928 0.25561 0.0
H336 H 0.49807 0.29812 0.31734 0.0
C337 C 0.56728 0.36768 0.31989 0.0
C338 C 0.53757 0.37167 0.3797 0.0
H339 H 0.59249 0.33827 0.20087 0.0
H340 H 0.58603 0.38755 0.31616 0.0
C341 C 0.5141 0.34506 0.38471 0.0
C342 C 0.18958 0.57417 0.25474 0.0
C343 C 0.21462 0.54897 0.25098 0.0
H344 H 0.14092 0.58849 0.31499 0.0
C345 C 0.21337 0.52209 0.32318 0.0
H346 H 0.19007 0.59495 0.19851 0.0
C347 C 0.18505 0.51801 0.38807 0.0
C348 C 0.15779 0.54088 0.3815 0.0
H349 H 0.23226 0.50226 0.32057 0.0
H350 H 0.18349 0.49567 0.43753 0.0
C351 C 0.16124 0.57015 0.31982 0.0
C352 C 0.07668 0.85182 0.86162 0.0
C353 C 0.05148 0.82737 0.87891 0.0
H354 H 0.08869 0.89942 0.79112 0.0
C355 C 0.02103 0.82912 0.81979 0.0
H356 H 0.10055 0.8508 0.90544 0.0
C357 C 1.01424 0.85685 0.75494 0.0
C358 C 0.03772 0.88333 0.74833 0.0
H359 H 1.001 0.81087 0.83169 0.0
H360 H 0.98965 0.85845 0.71557 0.0
C361 C 0.06972 0.87982 0.79756 0.0
C362 C 0.70125 1.0073 0.82699 0.0
C363 C 0.70425 0.03735 0.88501 0.0
H364 H 0.67066 0.97791 0.72092 0.0
C365 C 0.68086 0.06348 0.86591 0.0
H366 H 0.7187 0.98662 0.84077 0.0
C367 C 0.65269 0.05815 0.79961 0.0
C368 C 0.64792 0.0268 0.75032 0.0
H369 H 0.68288 0.087 0.90925 0.0
H370 H 0.63395 0.07796 0.79105 0.0
C371 C 0.67331 1.0021 0.75995 0.0
C372 C 0.52506 0.69846 0.82479 0.0
C373 C 0.49441 0.70114 0.88054 0.0
H374 H 0.55561 0.66847 0.72187 0.0
C375 C 0.46843 0.67767 0.8606 0.0
H376 H 0.54564 0.71599 0.83935 0.0
C377 C 0.47448 0.64982 0.79574 0.0
C378 C 0.5064 0.64544 0.7487 0.0
H379 H 0.44446 0.67941 0.90225 0.0
H380 H 0.45474 0.63106 0.78645 0.0
C381 C 0.53098 0.67084 0.75916 0.0
C382 C 0.8415 0.51855 0.82018 0.0
C383 C 0.8388 0.49079 0.88884 0.0
H384 H 0.87234 0.5448 0.70853 0.0
C385 C 0.86246 0.46436 0.88066 0.0
H386 H 0.82374 0.53932 0.8248 0.0
C387 C 0.89097 0.46787 0.81591 0.0
C388 C 0.89579 0.49769 0.758 0.0
H389 H 0.86062 0.44251 0.93226 0.0
H390 H 0.91021 0.44838 0.81718 0.0
C391 C 0.86981 0.52197 0.75526 0.0
C392 C 1.00001 0.20424 0.79214 0.0
C393 C 0.02502 0.20428 0.87258 0.0
H394 H 0.97386 0.17543 0.67311 0.0
C395 C 0.04738 0.17666 0.88125 0.0
H396 H 0.98231 0.22502 0.78451 0.0
C397 C 0.04237 0.14798 0.81812 0.0
C398 C 1.01473 0.14657 0.74677 0.0
H399 H 0.06676 0.17614 0.94348 0.0
H400 H 0.05841 0.12617 0.83095 0.0
C401 C 0.99477 0.17553 0.7302 0.0
C402 C 0.34301 0.0357 0.85231 0.0
C403 C 0.31773 1.01062 0.85043 0.0
H404 H 0.39235 0.05077 0.79819 0.0
C405 C 0.32033 0.98423 0.77691 0.0
H406 H 0.34157 0.05621 0.90922 0.0
C407 C 0.34958 0.98073 0.71565 0.0
C408 C 0.37656 1.00375 0.72616 0.0
H409 H 0.30143 0.96444 0.77471 0.0
H410 H 0.35175 0.95892 0.6642 0.0
C411 C 0.37224 0.03234 0.79021 0.0
C412 C 0.49812 0.34608 0.87024 0.0
C413 C 0.52282 0.32041 0.86828 0.0
H414 H 0.4837 0.3953 0.81498 0.0
C415 C 0.54932 0.32249 0.7946 0.0
H416 H 0.47757 0.34505 0.92735 0.0
C417 C 0.55325 0.35143 0.73269 0.0
C418 C 0.53055 0.37862 0.74263 0.0
H419 H 0.56884 0.30328 0.79241 0.0
H420 H 0.5751 0.35311 0.68081 0.0
C421 C 0.50187 0.37499 0.80735 0.0
C422 C 0.17914 0.50242 0.87181 0.0
C423 C 0.20525 0.52662 0.86881 0.0
H424 H 0.12927 0.48832 0.81668 0.0
C425 C 0.20269 0.55323 0.7957 0.0
H426 H 0.1804 0.48192 0.92902 0.0
C427 C 0.17318 0.5574 0.73413 0.0
C428 C 0.1458 0.53484 0.74369 0.0
H429 H 0.22213 0.57248 0.79317 0.0
H430 H 0.17131 0.57917 0.68207 0.0
C431 C 0.1497 0.50636 0.80905 0.0
C432 C 0.0798 0.84709 0.29927 0.0
C433 C 0.04891 0.83344 0.26342 0.0
H434 H 0.10466 0.88733 0.38162 0.0
C435 C 0.01838 0.84942 0.29091 0.0
H436 H 0.10366 0.8357 0.2762 0.0
C437 C 0.01886 0.87959 0.34869 0.0
C438 C 0.04992 0.89414 0.38012 0.0
H439 H 0.99432 0.83986 0.26113 0.0
H440 H 0.995 0.89186 0.3666 0.0
C441 C 0.0803 0.87702 0.35755 0.0
C442 C 0.6893 0.06879 0.30617 0.0
C443 C 0.70127 0.03754 0.27065 0.0
H444 H 0.64981 0.0956 0.38591 0.0
C445 C 0.68315 1.00831 0.29697 0.0
H446 H 0.70226 0.09173 0.28366 0.0
C447 C 0.65248 1.01049 0.35246 0.0
C448 C 0.63951 0.04198 0.38288 0.0
H449 H 0.69135 0.98405 0.26722 0.0
H450 H 0.63853 0.98763 0.36896 0.0
C451 C 0.65885 0.07098 0.36237 0.0
C452 C 0.52322 0.68114 0.29476 0.0
C453 C 0.49325 0.69827 0.26612 0.0
H454 H 0.54517 0.63761 0.36987 0.0
C455 C 0.46194 0.68567 0.3006 0.0
H456 H 0.54756 0.68986 0.26592 0.0
C457 C 0.46045 0.65556 0.35817 0.0
C458 C 0.49023 0.63721 0.38104 0.0
H459 H 0.43847 0.69787 0.27633 0.0
H460 H 0.43579 0.646 0.38093 0.0
C461 C 0.52174 0.65081 0.35156 0.0
C462 C 0.86522 0.53109 0.28961 0.0
C463 C 0.84366 0.50328 0.27414 0.0
H464 H 0.91227 0.54927 0.35632 0.0
C465 C 0.85192 0.4727 0.32366 0.0
H466 H 0.8599 0.55464 0.24901 0.0
C467 C 0.88213 0.46933 0.38221 0.0
C468 C 0.90492 0.49647 0.39231 0.0
H469 H 0.83629 0.45067 0.31005 0.0
H470 H 0.88815 0.44495 0.41619 0.0
C471 C 0.89555 0.52778 0.34877 0.0
loop_
_geom_bond_atom_site_label_1
_geom_bond_atom_site_label_2
_geom_bond_distance
_geom_bond_site_symmetry_2
_ccdc_geom_bond_type
H0 C1 0.949 . S
C1 H0 0.949 . S
C1 C2 1.395 . S
C1 C3 1.391 1_556 S
C2 C1 1.395 . S
C2 C5 1.390 1_556 S
C3 C1 1.391 1_554 S
C3 C7 1.387 . S
C3 C8 1.491 . S
H4 C5 0.950 . S
C5 C2 1.390 1_554 S
C5 H4 0.950 . S
C5 C6 1.378 . S
C6 C5 1.378 . S
C6 C7 1.409 . S
C7 C3 1.387 . S
C7 C6 1.409 . S
C7 H9 0.951 . S
C8 C3 1.491 . S
C8 C10 1.382 1_554 S
C8 C12 1.404 . S
H9 C7 0.951 . S
C10 C8 1.382 1_556 S
C10 C11 1.390 . S
C10 H15 0.949 . S
C11 C10 1.390 . S
C11 C16 1.399 1_556 S
C12 C8 1.404 . S
C12 H13 0.950 . S
C12 C14 1.375 . S
H13 C12 0.950 . S
C14 C12 1.375 . S
C14 C16 1.382 . S
C14 H18 0.950 . S
H15 C10 0.949 . S
C16 C11 1.399 1_554 S
C16 C14 1.382 . S
C16 H17 0.952 . S
H17 C16 0.952 . S
H18 C14 0.950 . S
H19 C20 0.949 . S
C20 H19 0.949 . S
C20 C21 1.395 . S
C20 C22 1.391 1_556 S
C21 C20 1.395 . S
C21 C24 1.390 1_556 S
C22 C20 1.391 1_554 S
C22 C26 1.387 . S
C22 C27 1.491 . S
H23 C24 0.950 . S
C24 C21 1.390 1_554 S
C24 H23 0.950 . S
C24 C25 1.378 . S
C25 C24 1.378 . S
C25 C26 1.409 . S
C26 C22 1.387 . S
C26 C25 1.409 . S
C26 H28 0.951 . S
C27 C22 1.491 . S
C27 C29 1.382 1_554 S
C27 C31 1.404 . S
H28 C26 0.951 . S
C29 C27 1.382 1_556 S
C29 C30 1.390 . S
C29 H34 0.949 . S
C30 C29 1.390 . S
C30 C35 1.399 1_556 S
C31 C27 1.404 . S
C31 H32 0.950 . S
C31 C33 1.375 . S
H32 C31 0.950 . S
C33 C31 1.375 . S
C33 C35 1.382 . S
C33 H37 0.950 . S
H34 C29 0.949 . S
C35 C30 1.399 1_554 S
C35 C33 1.382 . S
C35 H36 0.952 . S
H36 C35 0.952 . S
H37 C33 0.950 . S
H38 C39 0.949 . S
C39 H38 0.949 . S
C39 C40 1.395 . S
C39 C41 1.391 1_556 S
C40 C39 1.395 . S
C40 C43 1.390 1_556 S
C41 C39 1.391 1_554 S
C41 C45 1.387 . S
C41 C46 1.491 . S
H42 C43 0.950 . S
C43 C40 1.390 1_554 S
C43 H42 0.950 . S
C43 C44 1.378 . S
C44 C43 1.378 . S
C44 C45 1.409 . S
C45 C41 1.387 . S
C45 C44 1.409 . S
C45 H47 0.951 . S
C46 C41 1.491 . S
C46 C48 1.382 1_554 S
C46 C50 1.404 . S
H47 C45 0.951 . S
C48 C46 1.382 1_556 S
C48 C49 1.390 . S
C48 H53 0.949 . S
C49 C48 1.390 . S
C49 C54 1.399 1_556 S
C50 C46 1.404 . S
C50 H51 0.950 . S
C50 C52 1.375 . S
H51 C50 0.950 . S
C52 C50 1.375 . S
C52 C54 1.382 . S
C52 H56 0.950 . S
H53 C48 0.949 . S
C54 C49 1.399 1_554 S
C54 C52 1.382 . S
C54 H55 0.952 . S
H55 C54 0.952 . S
H56 C52 0.950 . S
H57 C58 0.949 . S
C58 H57 0.949 . S
C58 C59 1.395 . S
C58 C60 1.391 1_556 S
C59 C58 1.395 . S
C59 C62 1.390 1_556 S
C60 C58 1.391 1_554 S
C60 C64 1.387 . S
C60 C65 1.491 . S
H61 C62 0.950 . S
C62 C59 1.390 1_554 S
C62 H61 0.950 . S
C62 C63 1.378 . S
C63 C62 1.378 . S
C63 C64 1.409 . S
C64 C60 1.387 . S
C64 C63 1.409 . S
C64 H66 0.951 . S
C65 C60 1.491 . S
C65 C67 1.382 1_554 S
C65 C69 1.404 . S
H66 C64 0.951 . S
C67 C65 1.382 1_556 S
C67 C68 1.390 . S
C67 H72 0.949 . S
C68 C67 1.390 . S
C68 C73 1.399 1_556 S
C69 C65 1.404 . S
C69 H70 0.950 . S
C69 C71 1.375 . S
H70 C69 0.950 . S
C71 C69 1.375 . S
C71 C73 1.382 . S
C71 H75 0.950 . S
H72 C67 0.949 . S
C73 C68 1.399 1_554 S
C73 C71 1.382 . S
C73 H74 0.952 . S
H74 C73 0.952 . S
H75 C71 0.950 . S
H76 C77 0.949 . S
C77 H76 0.949 . S
C77 C78 1.395 . S
C77 C79 1.391 . S
C78 C77 1.395 . S
C78 C81 1.390 . S
C79 C77 1.391 . S
C79 C83 1.387 . S
C79 C84 1.491 . S
H80 C81 0.950 . S
C81 C78 1.390 . S
C81 H80 0.950 . S
C81 C82 1.378 . S
C82 C81 1.378 . S
C82 C83 1.409 . S
C83 C79 1.387 . S
C83 C82 1.409 . S
C83 H85 0.951 1_554 S
C84 C79 1.491 . S
C84 C86 1.382 . S
C84 C88 1.404 . S
H85 C83 0.951 1_556 S
C86 C84 1.382 . S
C86 C87 1.390 . S
C86 H91 0.949 . S
C87 C86 1.390 . S
C87 C92 1.399 . S
C88 C84 1.404 . S
C88 H89 0.950 . S
C88 C90 1.375 . S
H89 C88 0.950 . S
C90 C88 1.375 . S
C90 C92 1.382 . S
C90 H94 0.950 . S
H91 C86 0.949 . S
C92 C87 1.399 . S
C92 C90 1.382 . S
C92 H93 0.952 . S
H93 C92 0.952 . S
H94 C90 0.950 . S
H95 C96 0.949 . S
C96 H95 0.949 . S
C96 C97 1.395 . S
C96 C98 1.391 . S
C97 C96 1.395 . S
C97 C100 1.390 . S
C98 C96 1.391 . S
C98 C102 1.387 . S
C98 C103 1.491 . S
H99 C100 0.950 . S
C100 C97 1.390 . S
C100 H99 0.950 . S
C100 C101 1.378 . S
C101 C100 1.378 . S
C101 C102 1.409 . S
C102 C98 1.387 . S
C102 C101 1.409 . S
C102 H104 0.951 1_554 S
C103 C98 1.491 . S
C103 C105 1.382 . S
C103 C107 1.404 1_455 S
H104 C102 0.951 1_556 S
C105 C103 1.382 . S
C105 C106 1.390 . S
C105 H110 0.949 . S
C106 C105 1.390 . S
C106 C111 1.399 1_455 S
C107 C103 1.404 1_655 S
C107 H108 0.950 . S
C107 C109 1.375 . S
H108 C107 0.950 . S
C109 C107 1.375 . S
C109 C111 1.382 . S
C109 H113 0.950 . S
H110 C105 0.949 . S
C111 C106 1.399 1_655 S
C111 C109 1.382 . S
C111 H112 0.952 . S
H112 C111 0.952 . S
H113 C109 0.950 . S
H114 C115 0.949 . S
C115 H114 0.949 . S
C115 C116 1.395 . S
C115 C117 1.391 . S
C116 C115 1.395 . S
C116 C119 1.390 . S
C117 C115 1.391 . S
C117 C121 1.387 . S
C117 C122 1.491 . S
H118 C119 0.950 . S
C119 C116 1.390 . S
C119 H118 0.950 . S
C119 C120 1.378 . S
C120 C119 1.378 . S
C120 C121 1.409 . S
C121 C117 1.387 . S
C121 C120 1.409 . S
C121 H123 0.951 1_554 S
C122 C117 1.491 . S
C122 C124 1.382 . S
C122 C126 1.404 1_545 S
H123 C121 0.951 1_556 S
C124 C122 1.382 . S
C124 C125 1.390 . S
C124 H129 0.949 . S
C125 C124 1.390 . S
C125 C130 1.399 1_545 S
C126 C122 1.404 1_565 S
C126 H127 0.950 . S
C126 C128 1.375 . S
H127 C126 0.950 . S
C128 C126 1.375 . S
C128 C130 1.382 . S
C128 H132 0.950 . S
H129 C124 0.949 . S
C130 C125 1.399 1_565 S
C130 C128 1.382 . S
C130 H131 0.952 . S
H131 C130 0.952 . S
H132 C128 0.950 . S
H133 C134 0.949 . S
C134 H133 0.949 . S
C134 C135 1.395 . S
C134 C136 1.391 . S
C135 C134 1.395 . S
C135 C138 1.390 . S
C136 C134 1.391 . S
C136 C140 1.387 . S
C136 C141 1.491 . S
H137 C138 0.950 . S
C138 C135 1.390 . S
C138 H137 0.950 . S
C138 C139 1.378 . S
C139 C138 1.378 . S
C139 C140 1.409 . S
C140 C136 1.387 . S
C140 C139 1.409 . S
C140 H142 0.951 1_554 S
C141 C136 1.491 . S
C141 C143 1.382 . S
C141 C145 1.404 . S
H142 C140 0.951 1_556 S
C143 C141 1.382 . S
C143 C144 1.390 . S
C143 H148 0.949 . S
C144 C143 1.390 . S
C144 C149 1.399 . S
C145 C141 1.404 . S
C145 H146 0.950 . S
C145 C147 1.375 . S
H146 C145 0.950 . S
C147 C145 1.375 . S
C147 C149 1.382 . S
C147 H151 0.950 . S
H148 C143 0.949 . S
C149 C144 1.399 . S
C149 C147 1.382 . S
C149 H150 0.952 . S
H150 C149 0.952 . S
H151 C147 0.950 . S
Zn152 O158 1.969 1_455 S
Zn152 O159 1.965 . S
Zn152 O163 2.024 . S
Zn152 O168 1.969 1_455 S
Zn153 O160 1.969 . S
Zn153 O166 1.969 . S
Zn153 O167 1.965 1_455 S
Zn153 O169 2.024 1_455 S
C154 O155 1.229 1_455 S
C154 O163 1.058 . S
O155 C154 1.229 1_655 S
C156 O157 1.229 1_655 S
C156 O169 1.058 . S
O157 C156 1.229 1_455 S
O158 Zn152 1.969 1_655 S
O158 C161 1.267 1_655 S
O159 Zn152 1.965 . S
O159 C170 1.260 . S
O160 Zn153 1.969 . S
O160 C170 1.258 1_565 S
C161 O158 1.267 1_455 S
C161 O162 1.228 . S
O162 C161 1.228 . S
O163 Zn152 2.024 . S
O163 C154 1.058 . S
C164 O165 1.197 1_455 S
C164 O166 1.290 . S
O165 C164 1.197 1_655 S
O166 Zn153 1.969 . S
O166 C164 1.290 . S
O167 Zn153 1.965 1_655 S
O167 C171 1.260 1_565 S
O168 Zn152 1.969 1_655 S
O168 C171 1.258 . S
O169 Zn153 2.024 1_655 S
O169 C156 1.058 . S
C170 O159 1.260 . S
C170 O160 1.258 1_545 S
C171 O167 1.260 1_545 S
C171 O168 1.258 . S
Zn172 O178 1.969 1_545 S
Zn172 O179 1.965 . S
Zn172 O183 2.024 . S
Zn172 O188 1.969 1_545 S
Zn173 O180 1.969 . S
Zn173 O186 1.969 . S
Zn173 O187 1.965 1_545 S
Zn173 O189 2.024 1_545 S
C174 O175 1.229 1_545 S
C174 O183 1.058 . S
O175 C174 1.229 1_565 S
C176 O177 1.229 1_565 S
C176 O189 1.058 . S
O177 C176 1.229 1_545 S
O178 Zn172 1.969 1_565 S
O178 C181 1.267 1_565 S
O179 Zn172 1.965 . S
O179 C190 1.260 . S
O180 Zn173 1.969 . S
O180 C190 1.258 . S
C181 O178 1.267 1_545 S
C181 O182 1.228 . S
O182 C181 1.228 . S
O183 Zn172 2.024 . S
O183 C174 1.058 . S
C184 O185 1.228 1_545 S
C184 O186 1.267 . S
O185 C184 1.228 1_565 S
O186 Zn173 1.969 . S
O186 C184 1.267 . S
O187 Zn173 1.965 1_565 S
O187 C191 1.260 . S
O188 Zn172 1.969 1_565 S
O188 C191 1.258 . S
O189 Zn173 2.024 1_565 S
O189 C176 1.058 . S
C190 O179 1.260 . S
C190 O180 1.258 . S
C191 O187 1.260 . S
C191 O188 1.258 . S
Zn192 O198 1.969 . S
Zn192 O199 1.965 . S
Zn192 O203 2.024 . S
Zn192 O208 1.969 . S
Zn193 O200 1.969 . S
Zn193 O206 1.969 . S
Zn193 O207 1.965 . S
Zn193 O209 2.024 . S
C194 O195 1.229 . S
C194 O203 1.058 . S
O195 C194 1.229 . S
C196 O197 1.229 . S
C196 O209 1.058 . S
O197 C196 1.229 . S
O198 Zn192 1.969 . S
O198 C201 1.267 . S
O199 Zn192 1.965 . S
O199 C210 1.260 . S
O200 Zn193 1.969 . S
O200 C210 1.258 . S
C201 O198 1.267 . S
C201 O202 1.228 . S
O202 C201 1.228 . S
O203 Zn192 2.024 . S
O203 C194 1.058 . S
C204 O205 1.228 . S
C204 O206 1.267 . S
O205 C204 1.228 . S
O206 Zn193 1.969 . S
O206 C204 1.267 . S
O207 Zn193 1.965 . S
O207 C211 1.260 . S
O208 Zn192 1.969 . S
O208 C211 1.258 . S
O209 Zn193 2.024 . S
O209 C196 1.058 . S
C210 O199 1.260 . S
C210 O200 1.258 . S
C211 O207 1.260 . S
C211 O208 1.258 . S
Zn212 O218 1.969 . S
Zn212 O219 1.965 . S
Zn212 O223 2.024 . S
Zn212 O228 1.969 . S
Zn213 O220 1.969 . S
Zn213 O226 1.969 . S
Zn213 O227 1.965 . S
Zn213 O229 2.024 . S
C214 O215 1.229 . S
C214 O223 1.058 . S
O215 C214 1.229 . S
C216 O217 1.229 . S
C216 O229 1.058 . S
O217 C216 1.229 . S
O218 Zn212 1.969 . S
O218 C221 1.267 . S
O219 Zn212 1.965 . S
O219 C230 1.277 . S
O220 Zn213 1.969 . S
O220 C230 1.233 1_655 S
C221 O218 1.267 . S
C221 O222 1.228 . S
O222 C221 1.228 . S
O223 Zn212 2.024 . S
O223 C214 1.058 . S
C224 O225 1.228 . S
C224 O226 1.267 . S
O225 C224 1.228 . S
O226 Zn213 1.969 . S
O226 C224 1.267 . S
O227 Zn213 1.965 . S
O227 C231 1.260 1_655 S
O228 Zn212 1.969 . S
O228 C231 1.258 . S
O229 Zn213 2.024 . S
O229 C216 1.058 . S
C230 O219 1.277 . S
C230 O220 1.233 1_455 S
C231 O227 1.260 1_455 S
C231 O228 1.258 . S
C232 C233 1.387 . S
C232 H236 0.950 . S
C232 C241 1.390 . S
C233 C232 1.387 . S
C233 C235 1.387 . S
H234 C241 0.950 . S
C235 C233 1.387 . S
C235 C237 1.390 . S
C235 H239 0.950 . S
H236 C232 0.950 . S
C237 C235 1.390 . S
C237 C238 1.387 . S
C237 H240 0.946 1_545 S
C238 C237 1.387 . S
C238 C241 1.387 . S
H239 C235 0.950 . S
H240 C237 0.946 1_565 S
C241 C232 1.390 . S
C241 H234 0.950 . S
C241 C238 1.387 . S
C242 C243 1.387 . S
C242 H246 0.950 . S
C242 C251 1.390 . S
C243 C242 1.387 . S
C243 C245 1.387 . S
H244 C251 0.950 . S
C245 C243 1.387 . S
C245 C247 1.390 . S
C245 H249 0.950 . S
H246 C242 0.950 . S
C247 C245 1.390 . S
C247 C248 1.387 . S
C247 H250 0.950 . S
C248 C247 1.387 . S
C248 C251 1.387 . S
H249 C245 0.950 . S
H250 C247 0.950 . S
C251 C242 1.390 . S
C251 H244 0.950 . S
C251 C248 1.387 . S
C252 C253 1.387 . S
C252 H256 0.950 . S
C252 C261 1.390 . S
C253 C252 1.387 . S
C253 C255 1.387 . S
H254 C261 0.950 . S
C255 C253 1.387 . S
C255 C257 1.390 . S
C255 H259 0.950 . S
H256 C252 0.950 . S
C257 C255 1.390 . S
C257 C258 1.387 . S
C257 H260 0.950 . S
C258 C257 1.387 . S
C258 C261 1.387 . S
H259 C255 0.950 . S
H260 C257 0.950 . S
C261 C252 1.390 . S
C261 H254 0.950 . S
C261 C258 1.387 . S
C262 C263 1.387 . S
C262 H266 0.950 . S
C262 C271 1.390 . S
C263 C262 1.387 . S
C263 C265 1.387 1_455 S
H264 C271 0.950 . S
C265 C263 1.387 1_655 S
C265 C267 1.390 . S
C265 H269 0.950 . S
H266 C262 0.950 . S
C267 C265 1.390 . S
C267 C268 1.387 1_655 S
C267 H270 0.950 . S
C268 C267 1.387 1_455 S
C268 C271 1.387 . S
H269 C265 0.950 . S
H270 C267 0.950 . S
C271 C262 1.390 . S
C271 H264 0.950 . S
C271 C268 1.387 . S
C272 C273 1.387 1_545 S
C272 H276 0.950 . S
C272 C281 1.390 . S
C273 C272 1.387 1_565 S
C273 C275 1.387 . S
H274 C281 0.950 . S
C275 C273 1.387 . S
C275 C277 1.390 . S
C275 H279 0.950 . S
H276 C272 0.950 . S
C277 C275 1.390 . S
C277 C278 1.387 . S
C277 H280 0.950 . S
C278 C277 1.387 . S
C278 C281 1.387 1_565 S
H279 C275 0.950 . S
H280 C277 0.950 . S
C281 C272 1.390 . S
C281 H274 0.950 . S
C281 C278 1.387 1_545 S
C282 C283 1.387 . S
C282 H286 0.950 . S
C282 C291 1.390 . S
C283 C282 1.387 . S
C283 C285 1.387 . S
H284 C291 0.950 . S
C285 C283 1.387 . S
C285 C287 1.390 . S
C285 H289 0.950 . S
H286 C282 0.950 . S
C287 C285 1.390 . S
C287 C288 1.387 . S
C287 H290 0.950 . S
C288 C287 1.387 . S
C288 C291 1.387 . S
H289 C285 0.950 . S
H290 C287 0.950 . S
C291 C282 1.390 . S
C291 H284 0.950 . S
C291 C288 1.387 . S
C292 C293 1.387 . S
C292 H296 0.950 . S
C292 C301 1.390 . S
C293 C292 1.387 . S
C293 C295 1.387 . S
H294 C301 0.950 . S
C295 C293 1.387 . S
C295 C297 1.390 . S
C295 H299 0.950 . S
H296 C292 0.950 . S
C297 C295 1.390 . S
C297 C298 1.387 . S
C297 H300 0.950 . S
C298 C297 1.387 . S
C298 C301 1.387 . S
H299 C295 0.950 . S
H300 C297 0.950 . S
C301 C292 1.390 . S
C301 H294 0.950 . S
C301 C298 1.387 . S
C302 C303 1.387 . S
C302 H306 0.950 1_655 S
C302 C311 1.390 1_655 S
C303 C302 1.387 . S
C303 C305 1.387 . S
H304 C311 0.950 . S
C305 C303 1.387 . S
C305 C307 1.390 . S
C305 H309 0.950 . S
H306 C302 0.950 1_455 S
C307 C305 1.390 . S
C307 C308 1.387 . S
C307 H310 0.950 . S
C308 C307 1.387 . S
C308 C311 1.387 1_655 S
H309 C305 0.950 . S
H310 C307 0.950 . S
C311 C302 1.390 1_455 S
C311 H304 0.950 . S
C311 C308 1.387 1_455 S
C312 C313 1.387 . S
C312 H316 0.950 . S
C312 C321 1.390 1_455 S
C313 C312 1.387 . S
C313 C315 1.387 . S
H314 C321 0.950 . S
C315 C313 1.387 . S
C315 C317 1.390 . S
C315 H319 0.950 . S
H316 C312 0.950 . S
C317 C315 1.390 . S
C317 C318 1.387 . S
C317 H320 0.950 . S
C318 C317 1.387 . S
C318 C321 1.387 1_455 S
H319 C315 0.950 . S
H320 C317 0.950 . S
C321 C312 1.390 1_655 S
C321 H314 0.950 . S
C321 C318 1.387 1_655 S
C322 C323 1.387 . S
C322 H326 0.950 . S
C322 C331 1.390 . S
C323 C322 1.387 . S
C323 C325 1.387 1_545 S
H324 C331 0.950 . S
C325 C323 1.387 1_565 S
C325 C327 1.390 . S
C325 H329 0.950 . S
H326 C322 0.950 . S
C327 C325 1.390 . S
C327 C328 1.387 1_565 S
C327 H330 0.950 . S
C328 C327 1.387 1_545 S
C328 C331 1.387 . S
H329 C325 0.950 . S
H330 C327 0.950 . S
C331 C322 1.390 . S
C331 H324 0.950 . S
C331 C328 1.387 . S
C332 C333 1.387 . S
C332 H336 0.950 . S
C332 C341 1.390 . S
C333 C332 1.387 . S
C333 C335 1.387 . S
H334 C341 0.950 . S
C335 C333 1.387 . S
C335 C337 1.390 . S
C335 H339 0.950 . S
H336 C332 0.950 . S
C337 C335 1.390 . S
C337 C338 1.387 . S
C337 H340 0.950 . S
C338 C337 1.387 . S
C338 C341 1.387 . S
H339 C335 0.950 . S
H340 C337 0.950 . S
C341 C332 1.390 . S
C341 H334 0.950 . S
C341 C338 1.387 . S
C342 C343 1.387 . S
C342 H346 0.950 . S
C342 C351 1.390 . S
C343 C342 1.387 . S
C343 C345 1.387 . S
H344 C351 0.950 . S
C345 C343 1.387 . S
C345 C347 1.390 . S
C345 H349 0.950 . S
H346 C342 0.950 . S
C347 C345 1.390 . S
C347 C348 1.387 . S
C347 H350 0.950 . S
C348 C347 1.387 . S
C348 C351 1.387 . S
H349 C345 0.950 . S
H350 C347 0.950 . S
C351 C342 1.390 . S
C351 H344 0.950 . S
C351 C348 1.387 . S
C352 C353 1.387 1_455 S
C352 H356 0.950 . S
C352 C361 1.390 . S
C353 C352 1.387 1_655 S
C353 C355 1.387 . S
H354 C361 0.950 . S
C355 C353 1.387 . S
C355 C357 1.390 . S
C355 H359 0.950 . S
H356 C352 0.950 . S
C357 C355 1.390 . S
C357 C358 1.387 1_655 S
C357 H360 0.950 . S
C358 C357 1.387 1_455 S
C358 C361 1.387 . S
H359 C355 0.950 . S
H360 C357 0.950 . S
C361 C352 1.390 . S
C361 H354 0.950 . S
C361 C358 1.387 . S
C362 C363 1.387 . S
C362 H366 0.950 . S
C362 C371 1.390 . S
C363 C362 1.387 . S
C363 C365 1.387 1_565 S
H364 C371 0.950 . S
C365 C363 1.387 1_545 S
C365 C367 1.390 . S
C365 H369 0.950 . S
H366 C362 0.950 . S
C367 C365 1.390 . S
C367 C368 1.387 . S
C367 H370 0.950 . S
C368 C367 1.387 . S
C368 C371 1.387 1_545 S
H369 C365 0.950 . S
H370 C367 0.950 . S
C371 C362 1.390 . S
C371 H364 0.950 . S
C371 C368 1.387 1_565 S
C372 C373 1.387 . S
C372 H376 0.950 . S
C372 C381 1.390 . S
C373 C372 1.387 . S
C373 C375 1.387 . S
H374 C381 0.950 . S
C375 C373 1.387 . S
C375 C377 1.390 . S
C375 H379 0.950 1_556 S
H376 C372 0.950 . S
C377 C375 1.390 . S
C377 C378 1.387 . S
C377 H380 0.950 . S
C378 C377 1.387 . S
C378 C381 1.387 . S
H379 C375 0.950 1_554 S
H380 C377 0.950 . S
C381 C372 1.390 . S
C381 H374 0.950 . S
C381 C378 1.387 . S
C382 C383 1.387 . S
C382 H386 0.950 . S
C382 C391 1.390 . S
C383 C382 1.387 . S
C383 C385 1.387 . S
H384 C391 0.950 . S
C385 C383 1.387 . S
C385 C387 1.390 . S
C385 H389 0.950 . S
H386 C382 0.950 . S
C387 C385 1.390 . S
C387 C388 1.387 . S
C387 H390 0.950 . S
C388 C387 1.387 . S
C388 C391 1.387 . S
H389 C385 0.950 . S
H390 C387 0.950 . S
C391 C382 1.390 . S
C391 H384 0.950 . S
C391 C388 1.387 . S
C392 C393 1.387 1_655 S
C392 H396 0.950 . S
C392 C401 1.390 . S
C393 C392 1.387 1_455 S
C393 C395 1.387 . S
H394 C401 0.950 . S
C395 C393 1.387 . S
C395 C397 1.390 . S
C395 H399 0.950 . S
H396 C392 0.950 . S
C397 C395 1.390 . S
C397 C398 1.387 . S
C397 H400 0.950 . S
C398 C397 1.387 . S
C398 C401 1.387 1_455 S
H399 C395 0.950 . S
H400 C397 0.950 . S
C401 C392 1.390 . S
C401 H394 0.950 . S
C401 C398 1.387 1_655 S
C402 C403 1.387 . S
C402 H406 0.950 . S
C402 C411 1.390 . S
C403 C402 1.387 . S
C403 C405 1.387 1_545 S
H404 C411 0.950 . S
C405 C403 1.387 1_565 S
C405 C407 1.390 . S
C405 H409 0.950 . S
H406 C402 0.950 . S
C407 C405 1.390 . S
C407 C408 1.387 1_565 S
C407 H410 0.950 . S
C408 C407 1.387 1_545 S
C408 C411 1.387 . S
H409 C405 0.950 . S
H410 C407 0.950 . S
C411 C402 1.390 . S
C411 H404 0.950 . S
C411 C408 1.387 . S
C412 C413 1.387 . S
C412 H416 0.950 . S
C412 C421 1.390 . S
C413 C412 1.387 . S
C413 C415 1.387 . S
H414 C421 0.950 . S
C415 C413 1.387 . S
C415 C417 1.390 . S
C415 H419 0.950 . S
H416 C412 0.950 . S
C417 C415 1.390 . S
C417 C418 1.387 . S
C417 H420 0.950 . S
C418 C417 1.387 . S
C418 C421 1.387 . S
H419 C415 0.950 . S
H420 C417 0.950 . S
C421 C412 1.390 . S
C421 H414 0.950 . S
C421 C418 1.387 . S
C422 C423 1.387 . S
C422 H426 0.950 . S
C422 C431 1.390 . S
C423 C422 1.387 . S
C423 C425 1.387 . S
H424 C431 0.950 . S
C425 C423 1.387 . S
C425 C427 1.390 . S
C425 H429 0.950 . S
H426 C422 0.950 . S
C427 C425 1.390 . S
C427 C428 1.387 . S
C427 H430 0.950 . S
C428 C427 1.387 . S
C428 C431 1.387 . S
H429 C425 0.950 . S
H430 C427 0.950 . S
C431 C422 1.390 . S
C431 H424 0.950 . S
C431 C428 1.387 . S
C432 C433 1.387 1_455 S
C432 H436 0.950 . S
C432 C441 1.390 . S
C433 C432 1.387 1_655 S
C433 C435 1.387 . S
H434 C441 0.950 . S
C435 C433 1.387 . S
C435 C437 1.390 . S
C435 H439 0.950 . S
H436 C432 0.950 . S
C437 C435 1.390 . S
C437 C438 1.387 . S
C437 H440 0.950 . S
C438 C437 1.387 . S
C438 C441 1.387 1_655 S
H439 C435 0.950 . S
H440 C437 0.950 . S
C441 C432 1.390 . S
C441 H434 0.950 . S
C441 C438 1.387 1_455 S
C442 C443 1.387 1_545 S
C442 H446 0.950 . S
C442 C451 1.390 . S
C443 C442 1.387 1_565 S
C443 C445 1.387 . S
H444 C451 0.950 . S
C445 C443 1.387 . S
C445 C447 1.390 . S
C445 H449 0.950 . S
H446 C442 0.950 . S
C447 C445 1.390 . S
C447 C448 1.387 . S
C447 H450 0.950 . S
C448 C447 1.387 . S
C448 C451 1.387 1_565 S
H449 C445 0.950 . S
H450 C447 0.950 . S
C451 C442 1.390 . S
C451 H444 0.950 . S
C451 C448 1.387 1_545 S
C452 C453 1.387 . S
C452 H456 0.950 . S
C452 C461 1.390 . S
C453 C452 1.387 . S
C453 C455 1.387 . S
H454 C461 0.950 . S
C455 C453 1.387 . S
C455 C457 1.390 . S
C455 H459 0.950 . S
H456 C452 0.950 . S
C457 C455 1.390 . S
C457 C458 1.387 . S
C457 H460 0.950 . S
C458 C457 1.387 . S
C458 C461 1.387 . S
H459 C455 0.950 . S
H460 C457 0.950 . S
C461 C452 1.390 . S
C461 H454 0.950 . S
C461 C458 1.387 . S
C462 C463 1.387 . S
C462 H466 0.950 . S
C462 C471 1.390 . S
C463 C462 1.387 . S
C463 C465 1.387 . S
H464 C471 0.950 . S
C465 C463 1.387 . S
C465 C467 1.390 . S
C465 H469 0.950 . S
H466 C462 0.950 . S
C467 C465 1.390 . S
C467 C468 1.387 . S
C467 H470 0.950 . S
C468 C467 1.387 . S
C468 C471 1.387 . S
H469 C465 0.950 . S
H470 C467 0.950 . S
C471 C462 1.390 . S
C471 H464 0.950 . S
C471 C468 1.387 . S
C233 C125 1.515 . S
C238 C170 1.542 . S
C248 C190 1.544 . S
C243 C144 1.515 . S
C258 C210 1.543 . S
C253 C87 1.516 . S
C268 C230 1.547 . S
C263 C106 1.518 . S
C278 C171 1.541 1_565 S
C273 C49 1.575 . S
C283 C68 1.575 . S
C288 C191 1.541 . S
C293 C11 1.574 . S
C298 C211 1.544 . S
C303 C30 1.574 . S
C308 C231 1.542 1_655 S
C318 C161 1.051 . S
C313 C97 1.067 . S
C328 C181 1.053 . S
C323 C116 1.066 . S
C338 C201 1.054 . S
C333 C135 1.067 . S
C343 C78 1.069 . S
C348 C221 1.053 . S
C353 C21 1.067 . S
C358 C164 1.056 . S
C368 C184 1.053 . S
C363 C40 1.070 . S
C378 C204 1.052 . S
C373 C59 1.068 . S
C383 C2 1.070 . S
C388 C224 1.055 . S
C393 C101 1.516 1_556 S
C398 C154 1.434 . S
C403 C120 1.520 1_556 S
C408 C174 1.439 . S
C418 C194 1.439 . S
C413 C139 1.521 1_556 S
C428 C214 1.439 . S
C423 C82 1.520 1_556 S
C433 C25 1.521 . S
C438 C156 1.439 . S
C448 C176 1.439 . S
C443 C44 1.521 . S
C458 C196 1.434 . S
C453 C63 1.517 . S
C463 C6 1.517 . S
C468 C216 1.434 . S
