# Generated by pormake.
# Topology pyr, (3,6)-cn, num edge types: 1
# Building blocks:
#     Node 0, Type 0, BuildingBlock: CUQRIR_clean_linker_1, # of connection points: 3
#     Node 1, Type 0, BuildingBlock: CUQRIR_clean_linker_1, # of connection points: 3
#     Node 2, Type 0, BuildingBlock: CUQRIR_clean_linker_1, # of connection points: 3
#     Node 3, Type 0, BuildingBlock: CUQRIR_clean_linker_1, # of connection points: 3
#     Node 4, Type 0, BuildingBlock: CUQRIR_clean_linker_1, # of connection points: 3
#     Node 5, Type 0, BuildingBlock: CUQRIR_clean_linker_1, # of connection points: 3
#     Node 6, Type 0, BuildingBlock: CUQRIR_clean_linker_1, # of connection points: 3
#     Node 7, Type 0, BuildingBlock: CUQRIR_clean_linker_1, # of connection points: 3
#     Node 8, Type 1, BuildingBlock: BETGAK_clean_sbu_0, # of connection points: 6
#     Node 9, Type 1, BuildingBlock: BETGAK_clean_sbu_0, # of connection points: 6
#     Node 10, Type 1, BuildingBlock: BETGAK_clean_sbu_0, # of connection points: 6
#     Node 11, Type 1, BuildingBlock: BETGAK_clean_sbu_0, # of connection points: 6
#     Edge 12, Type (0, 1), BuildingBlock: OJICUG_clean_linker_0, # of connection points: 2
#     Edge 13, Type (0, 1), BuildingBlock: OJICUG_clean_linker_0, # of connection points: 2
#     Edge 14, Type (0, 1), BuildingBlock: OJICUG_clean_linker_0, # of connection points: 2
#     Edge 15, Type (0, 1), BuildingBlock: OJICUG_clean_linker_0, # of connection points: 2
#     Edge 16, Type (0, 1), BuildingBlock: OJICUG_clean_linker_0, # of connection points: 2
#     Edge 17, Type (0, 1), BuildingBlock: OJICUG_clean_linker_0, # of connection points: 2
#     Edge 18, Type (0, 1), BuildingBlock: OJICUG_clean_linker_0, # of connection points: 2
#     Edge 19, Type (0, 1), BuildingBlock: OJICUG_clean_linker_0, # of connection points: 2
#     Edge 20, Type (0, 1), BuildingBlock: OJICUG_clean_linker_0, # of connection points: 2
#     Edge 21, Type (0, 1), BuildingBlock: OJICUG_clean_linker_0, # of connection points: 2
#     Edge 22, Type (0, 1), BuildingBlock: OJICUG_clean_linker_0, # of connection points: 2
#     Edge 23, Type (0, 1), BuildingBlock: OJICUG_clean_linker_0, # of connection points: 2
#     Edge 24, Type (0, 1), BuildingBlock: OJICUG_clean_linker_0, # of connection points: 2
#     Edge 25, Type (0, 1), BuildingBlock: OJICUG_clean_linker_0, # of connection points: 2
#     Edge 26, Type (0, 1), BuildingBlock: OJICUG_clean_linker_0, # of connection points: 2
#     Edge 27, Type (0, 1), BuildingBlock: OJICUG_clean_linker_0, # of connection points: 2
#     Edge 28, Type (0, 1), BuildingBlock: OJICUG_clean_linker_0, # of connection points: 2
#     Edge 29, Type (0, 1), BuildingBlock: OJICUG_clean_linker_0, # of connection points: 2
#     Edge 30, Type (0, 1), BuildingBlock: OJICUG_clean_linker_0, # of connection points: 2
#     Edge 31, Type (0, 1), BuildingBlock: OJICUG_clean_linker_0, # of connection points: 2
#     Edge 32, Type (0, 1), BuildingBlock: OJICUG_clean_linker_0, # of connection points: 2
#     Edge 33, Type (0, 1), BuildingBlock: OJICUG_clean_linker_0, # of connection points: 2
#     Edge 34, Type (0, 1), BuildingBlock: OJICUG_clean_linker_0, # of connection points: 2
#     Edge 35, Type (0, 1), BuildingBlock: OJICUG_clean_linker_0, # of connection points: 2
# Relax obj value: 0.311
# Max RMSD: 0.276
# Mean RMSD: 0.178
data_MOF--net-pyr--node1-BETGAK_clean_sbu_0--node2-CUQRIR_clean_linker_1--edge1-OJICUG_clean_linker_0
_symmetry_space_group_name_H-M    P1
_symmetry_Int_Tables_number       1
_symmetry_cell_setting            triclinic
loop_
_symmetry_equiv_pos_as_xyz
'x, y, z'
_cell_length_a     24.951629
_cell_length_b     26.402843
_cell_length_c     23.85981
_cell_angle_alpha  89.419708
_cell_angle_beta   89.737448
_cell_angle_gamma 107.81226
loop_
_atom_site_label
_atom_site_type_symbol
_atom_site_fract_x
_atom_site_fract_y
_atom_site_fract_z
_atom_type_partial_charge
C0 C 0.44522 0.46697 0.29643 0.0
N1 N 0.4766 0.43323 0.29995 0.0
N2 N 0.44062 0.48177 0.24257 0.0
C3 C 0.40874 0.47561 0.34386 0.0
C4 C 0.47206 0.45693 0.21362 0.0
N5 N 0.49407 0.42739 0.24828 0.0
C6 C 0.47732 0.45868 0.15084 0.0
H7 H 0.37514 0.4378 0.35338 0.0
H8 H 0.38891 0.50678 0.334 0.0
H9 H 0.43436 0.48764 0.38209 0.0
H10 H 0.51552 0.4489 0.13712 0.0
H11 H 0.47902 0.49877 0.13484 0.0
H12 H 0.43967 0.42961 0.1326 0.0
C13 C 0.14391 0.88986 0.73364 0.0
N14 N 0.1418 0.92882 0.76919 0.0
N15 N 0.16794 0.85578 0.75825 0.0
C16 C 0.13277 0.89094 0.67173 0.0
C17 C 0.1765 0.87374 0.81147 0.0
N18 N 0.16319 0.91938 0.81763 0.0
C19 C 0.20905 0.85278 0.85418 0.0
H20 H 0.1357 0.85432 0.65123 0.0
H21 H 0.16373 0.92623 0.65208 0.0
H22 H 0.09017 0.89458 0.66479 0.0
H23 H 0.25455 0.86701 0.84324 0.0
H24 H 0.19516 0.80866 0.85395 0.0
H25 H 0.20306 0.86643 0.89693 0.0
C26 C 0.64762 0.45093 0.90405 0.0
N27 N 0.67911 0.44383 0.94925 0.0
N28 N 0.66773 0.50068 0.8804 0.0
C29 C 0.59386 0.41077 0.88561 0.0
C30 C 0.71293 0.52392 0.9133 0.0
N31 N 0.7199 0.49065 0.95552 0.0
C32 C 0.75376 0.57807 0.90043 0.0
H33 H 0.60377 0.3848 0.85352 0.0
H34 H 0.56511 0.4308 0.86656 0.0
H35 H 0.57198 0.38565 0.92143 0.0
H36 H 0.74121 0.60857 0.92422 0.0
H37 H 0.75362 0.5879 0.85513 0.0
H38 H 0.79724 0.57996 0.9124 0.0
C39 C 0.86942 0.76096 0.40604 0.0
N40 N 0.91983 0.79677 0.38873 0.0
N41 N 0.84197 0.78151 0.44504 0.0
C42 C 0.84781 0.70438 0.38613 0.0
C43 C 0.87666 0.8319 0.45057 0.0
N44 N 0.92448 0.84234 0.41808 0.0
C45 C 0.86304 0.87183 0.48857 0.0
H46 H 0.85102 0.70326 0.33979 0.0
H47 H 0.80364 0.68468 0.39913 0.0
H48 H 0.87406 0.6812 0.40414 0.0
H49 H 0.88327 0.87129 0.52979 0.0
H50 H 0.81698 0.86208 0.49545 0.0
H51 H 0.87885 0.91267 0.47075 0.0
C52 C 0.62203 0.86306 0.99096 0.0
N53 N 0.65705 0.84648 0.95724 0.0
N54 N 0.60029 0.89737 0.96353 0.0
C55 C 0.61259 0.85021 1.05242 0.0
C56 C 0.62142 0.899 0.911 0.0
N57 N 0.65685 0.86924 0.90729 0.0
C58 C 0.61778 0.93944 0.86729 0.0
H59 H 0.56857 0.84713 1.06404 0.0
H60 H 0.64069 0.883 0.07711 0.0
H61 H 0.62113 0.81243 1.0632 0.0
H62 H 0.65698 0.97364 0.86786 0.0
H63 H 0.58131 0.95411 0.8754 0.0
H64 H 0.61356 0.9217 0.82499 0.0
C65 C 0.93813 0.4109 0.51291 0.0
N66 N 0.96163 0.38429 0.47673 0.0
N67 N 0.91131 0.44095 0.48505 0.0
C68 C 0.93777 0.40498 0.57562 0.0
C69 C 0.91988 0.43203 0.43037 0.0
N70 N 0.95002 0.39737 0.42517 0.0
C71 C 0.88881 0.44789 0.38236 0.0
H72 H 0.89886 0.37372 0.5892 0.0
H73 H 0.93779 0.4428 0.59555 0.0
H74 H 0.97476 0.39351 0.58992 0.0
H75 H 0.86417 0.47432 0.39515 0.0
H76 H 0.85974 0.41172 0.36332 0.0
H77 H 0.91941 0.46889 0.34958 0.0
C78 C 0.39069 0.78043 0.2931 0.0
N79 N 0.43451 0.81736 0.3187 0.0
N80 N 0.35361 0.80261 0.26936 0.0
C81 C 0.38421 0.72175 0.29139 0.0
C82 C 0.37625 0.85479 0.2814 0.0
N83 N 0.42664 0.86539 0.30845 0.0
C84 C 0.34942 0.8969 0.26568 0.0
H85 H 0.35536 0.70143 0.25778 0.0
H86 H 0.36775 0.70313 0.33242 0.0
H87 H 0.42538 0.71532 0.28347 0.0
H88 H 0.30288 0.88011 0.265 0.0
H89 H 0.36436 0.91317 0.2234 0.0
H90 H 0.36128 0.93012 0.29586 0.0
C91 C 0.14862 0.46093 0.81365 0.0
N92 N 0.18129 0.45367 0.7688 0.0
N93 N 0.16948 0.51002 0.83836 0.0
C94 C 0.09551 0.41978 0.8336 0.0
C95 C 0.21711 0.53219 0.80667 0.0
N96 N 0.2253 0.49883 0.76542 0.0
C97 C 0.25461 0.58842 0.81481 0.0
H98 H 0.05931 0.42476 0.80986 0.0
H99 H 0.08694 0.42418 0.87842 0.0
H100 H 0.09794 0.379 0.82722 0.0
H101 H 0.25311 0.60074 0.85894 0.0
H102 H 0.23958 0.61547 0.78753 0.0
H103 H 0.29898 0.59374 0.80349 0.0
La104 La 0.12827 0.161 0.55468 0.0
La105 La 1.02196 0.13519 0.60577 0.0
C106 C 0.21434 0.17903 0.49349 0.0
C107 C 0.27217 0.2149 0.49321 0.0
C108 C 0.31588 0.19432 0.47906 0.0
C109 C 0.36937 0.22867 0.46685 0.0
C110 C 0.37916 0.28393 0.46773 0.0
C111 C 0.33759 0.30409 0.48975 0.0
C112 C 0.28408 0.26965 0.5023 0.0
C113 C 0.12119 0.10815 0.65017 0.0
C114 C 0.11776 0.24816 0.64132 0.0
C115 C 0.94149 0.11001 0.67464 0.0
C116 C 0.90477 1.06022 0.69977 0.0
C117 C 0.84717 1.04359 0.68727 0.0
C118 C 0.81063 0.99958 0.71483 0.0
C119 C 0.83108 0.97156 0.75559 0.0
C120 C 0.88923 0.98629 0.76561 0.0
C121 C 0.92573 1.03043 0.73824 0.0
C122 C 1.02607 0.196 0.51589 0.0
C123 C 1.03511 1.05099 0.51691 0.0
O124 O 0.20211 0.1434 0.53356 0.0
O125 O 0.17381 0.2 0.48437 0.0
O126 O 0.16357 0.14839 0.63551 0.0
O127 O 0.08557 0.09876 0.61165 0.0
O128 O 0.1508 0.2369 0.60255 0.0
O129 O 0.06657 0.21292 0.64997 0.0
O130 O 0.9352 0.11682 0.62098 0.0
O131 O 0.99452 0.1249 0.68932 0.0
O132 O 0.98609 0.15276 0.52804 0.0
O133 O 0.06449 0.20018 0.55127 0.0
O134 O 1.00952 1.05646 0.56448 0.0
O135 O 0.07856 0.09234 0.5004 0.0
H136 H 0.30757 0.15198 0.47311 0.0
H137 H 0.4009 0.21237 0.44993 0.0
H138 H 0.34409 0.34659 0.49052 0.0
H139 H 0.25113 0.28617 0.51475 0.0
H140 H 0.83002 1.06596 0.65784 0.0
H141 H 0.76592 0.98976 0.70688 0.0
H142 H 0.90611 0.96524 0.79669 0.0
H143 H 0.9699 1.04227 0.74896 0.0
La144 La 0.61475 0.1628 0.16505 0.0
La145 La 0.51632 0.15571 0.11893 0.0
C146 C 0.71693 0.17026 0.18086 0.0
C147 C 0.77174 0.20927 0.19022 0.0
C148 C 0.77736 0.2634 0.1958 0.0
C149 C 0.82693 0.29769 0.21761 0.0
C150 C 0.87054 0.27771 0.23456 0.0
C151 C 0.86708 0.22491 0.22262 0.0
C152 C 0.81776 0.1908 0.20051 0.0
C153 C 0.53566 1.08057 0.21648 0.0
C154 C 0.55311 0.23623 0.21431 0.0
C155 C 0.41487 0.14827 0.09635 0.0
C156 C 0.37006 0.11204 1.0636 0.0
C157 C 0.37707 1.0652 1.04236 0.0
C158 C 0.3384 1.03479 1.00449 0.0
C159 C 0.29212 1.05073 0.98728 0.0
C160 C 0.28342 0.09604 1.01099 0.0
C161 C 0.32247 0.12675 1.04879 0.0
C162 C 0.59945 0.23497 1.06693 0.0
C163 C 0.57394 1.08452 1.06316 0.0
O164 O 0.67975 0.16446 0.22107 0.0
O165 O 0.69493 0.17083 0.13153 0.0
O166 O 0.57439 0.11776 0.24083 0.0
O167 O 0.53971 0.09265 0.16431 0.0
O168 O 0.6041 0.23589 0.2003 0.0
O169 O 0.51136 0.1959 0.19751 0.0
O170 O 0.45816 0.17611 1.06713 0.0
O171 O 0.43042 0.12858 0.14153 0.0
O172 O 0.56053 0.19774 1.04274 0.0
O173 O 0.59288 0.2249 0.11907 0.0
O174 O 0.52371 1.08766 0.07417 0.0
O175 O 0.61744 0.11722 0.08861 0.0
H176 H 0.74206 0.27812 0.18761 0.0
H177 H 0.82843 0.3381 0.2274 0.0
H178 H 0.89993 0.20867 0.23613 0.0
H179 H 0.81394 0.14905 0.19589 0.0
H180 H 0.41345 1.05318 1.05346 0.0
H181 H 0.3456 0.99959 0.98726 0.0
H182 H 0.24815 0.10912 0.99817 0.0
H183 H 0.31669 0.16301 1.06476 0.0
La184 La 0.52601 0.60167 0.5666 0.0
La185 La 0.53789 0.68869 0.63511 0.0
C186 C 0.55078 0.52917 0.51385 0.0
C187 C 0.6044 0.51647 0.51519 0.0
C188 C 0.60737 0.46702 0.49747 0.0
C189 C 0.65855 0.4555 0.49925 0.0
C190 C 0.70771 0.49305 0.51951 0.0
C191 C 0.7041 0.54231 0.53807 0.0
C192 C 0.65309 0.55387 0.53582 0.0
C193 C 0.42753 0.59092 0.6216 0.0
C194 C 0.58218 0.60209 0.69051 0.0
C195 C 0.51453 0.75912 0.69181 0.0
C196 C 0.4618 0.77258 0.6931 0.0
C197 C 0.46019 0.82096 0.71508 0.0
C198 C 0.40921 0.83249 0.71764 0.0
C199 C 0.3592 0.79562 0.69843 0.0
C200 C 0.36117 0.74736 0.67598 0.0
C201 C 0.41217 0.73608 0.673 0.0
C202 C 0.63548 0.69578 0.58097 0.0
C203 C 0.49402 0.69836 0.50998 0.0
O204 O 0.52217 0.52095 0.56061 0.0
O205 O 0.55367 0.57537 0.49209 0.0
O206 O 0.43263 0.5785 0.56968 0.0
O207 O 0.47751 0.6092 0.64021 0.0
O208 O 0.57688 0.58362 0.63833 0.0
O209 O 0.56615 0.64424 0.70089 0.0
O210 O 0.54274 0.76923 0.64472 0.0
O211 O 0.51022 0.71163 0.71094 0.0
O212 O 0.63126 0.71153 0.63168 0.0
O213 O 0.58591 0.67953 0.56228 0.0
O214 O 0.49164 0.71168 0.56329 0.0
O215 O 0.51008 0.65566 0.49974 0.0
H216 H 0.5703 0.43734 0.48215 0.0
H217 H 0.65968 0.41745 0.48374 0.0
H218 H 0.7406 0.57195 0.55468 0.0
H219 H 0.65169 0.59215 0.55031 0.0
H220 H 0.4981 0.84943 0.7308 0.0
H221 H 0.40867 0.86974 0.73586 0.0
H222 H 0.32338 0.71846 0.66065 0.0
H223 H 0.41276 0.6985 0.65562 0.0
La224 La 1.03396 0.60737 0.1509 0.0
La225 La 1.03828 0.68657 0.07797 0.0
C226 C 0.06308 0.53784 0.20597 0.0
C227 C 0.11877 0.5281 0.20811 0.0
C228 C 0.15707 0.55026 0.25094 0.0
C229 C 0.21148 0.54555 0.25032 0.0
C230 C 0.22888 0.51802 0.20717 0.0
C231 C 0.1902 0.49492 0.16494 0.0
C232 C 0.1359 0.4999 0.16538 0.0
C233 C 0.99065 0.68049 0.2024 0.0
C234 C 0.14732 0.70147 0.14569 0.0
C235 C 1.01241 0.75733 1.02198 0.0
C236 C 0.95749 0.76656 1.01476 0.0
C237 C 0.94188 0.78105 0.96205 0.0
C238 C 0.88888 0.78785 0.95459 0.0
C239 C 0.85097 0.78072 0.99992 0.0
C240 C 0.86648 0.76571 1.0525 0.0
C241 C 0.91901 0.75815 1.05973 0.0
C242 C 0.08963 0.62108 1.02752 0.0
C243 C 0.92481 0.58724 0.08333 0.0
O244 O 0.06075 0.5824 0.22711 0.0
O245 O 1.03626 0.52847 0.15859 0.0
O246 O 0.97186 0.62881 0.20648 0.0
O247 O 1.03305 0.68907 0.16909 0.0
O248 O 0.12444 0.64987 0.15206 0.0
O249 O 0.11882 0.72845 0.11844 0.0
O250 O 1.01658 0.71361 1.00045 0.0
O251 O 1.03359 0.76458 1.07218 0.0
O252 O 0.10553 0.67265 1.02589 0.0
O253 O 0.04502 0.60737 1.05889 0.0
O254 O 0.94693 0.63924 0.07535 0.0
O255 O 0.95458 0.56227 0.1113 0.0
H256 H 0.14525 0.57199 0.28465 0.0
H257 H 0.2397 0.56293 0.28415 0.0
H258 H 0.20215 0.47358 0.13097 0.0
H259 H 0.10767 0.48229 0.13163 0.0
H260 H 0.97064 0.78703 0.9267 0.0
H261 H 0.878 0.79988 0.91373 0.0
H262 H 0.83783 0.75962 0.08796 0.0
H263 H 0.92945 0.74559 0.10049 0.0
C264 C 0.47917 0.40542 0.39898 0.0
C265 C 0.46638 0.39246 0.34266 0.0
H266 H 0.46051 0.38042 0.48492 0.0
C267 C 0.43338 0.34086 0.32932 0.0
H268 H 0.50379 0.44543 0.40991 0.0
C269 C 0.41191 0.30337 0.37104 0.0
C270 C 0.4198 0.31754 0.42753 0.0
H271 H 0.41957 0.3307 0.28694 0.0
H272 H 0.38342 0.26515 0.35898 0.0
C273 C 0.45493 0.36839 0.44153 0.0
C274 C 0.16559 0.97183 0.90334 0.0
C275 C 0.1926 0.95984 0.85595 0.0
H276 H 0.17647 1.01086 0.98314 0.0
C277 C 0.25114 0.98139 0.85016 0.0
H278 H 0.1205 0.95475 0.90859 0.0
C279 C 0.2828 1.01243 0.89211 0.0
C280 C 0.25658 1.02246 0.94103 0.0
H281 H 0.2725 0.97193 0.81396 0.0
H282 H 0.32812 1.0274 0.88702 0.0
C283 C 0.19751 1.00343 0.94573 0.0
C284 C 0.63618 0.57488 0.83766 0.0
C285 C 0.64564 0.52496 0.83272 0.0
H286 H 0.60964 0.63733 0.79903 0.0
C287 C 0.63445 0.5007 0.7795 0.0
H288 H 0.64368 0.59518 0.87739 0.0
C289 C 0.61512 0.52546 0.73351 0.0
C290 C 0.60545 0.57545 0.73864 0.0
H291 H 0.64137 0.46265 0.77313 0.0
H292 H 0.6073 0.50503 0.69384 0.0
C293 C 0.6164 0.59927 0.79209 0.0
C294 C 0.97722 0.73905 0.35259 0.0
C295 C 0.95481 0.78212 0.34367 0.0
H296 H 1.00425 0.6746 0.31895 0.0
C297 C 0.94853 0.79323 0.28585 0.0
H298 H 0.98084 0.72622 0.39526 0.0
C299 C 0.96287 0.76319 0.24084 0.0
C300 C 0.98257 0.7185 0.25034 0.0
H301 H 0.92894 0.82335 0.27517 0.0
H302 H 0.95536 0.77342 0.1982 0.0
C303 C 0.98995 0.70817 0.30792 0.0
C304 C 0.56143 0.37596 0.26207 0.0
C305 C 0.51609 0.38462 0.23261 0.0
H306 H 0.60944 0.32215 0.2795 0.0
C307 C 0.48547 0.34521 0.19602 0.0
H308 H 0.58511 0.40548 0.29119 0.0
C309 C 0.49764 0.29731 0.19128 0.0
C310 C 0.54152 0.28759 0.22213 0.0
H311 H 0.44913 0.34955 0.17438 0.0
H312 H 0.47206 0.26751 0.16346 0.0
C313 C 0.5747 0.32813 0.25616 0.0
C314 C 0.08194 0.9797 0.73285 0.0
C315 C 0.13474 0.97856 0.75145 0.0
H316 H 1.03648 1.02184 0.68501 0.0
C317 C 0.182 1.02319 0.74213 0.0
H318 H 0.04532 0.94514 0.73868 0.0
C319 C 0.17688 1.06758 0.71296 0.0
C320 C 0.1247 1.06712 0.69094 0.0
H321 H 0.22351 1.02234 0.75366 0.0
H322 H 0.21445 0.10045 0.7041 0.0
C323 C 0.077 1.02342 0.70231 0.0
C324 C 0.77391 0.55629 1.02556 0.0
C325 C 0.7643 0.50689 0.99834 0.0
H326 H 0.83093 0.62059 1.07092 0.0
C327 C 0.80607 0.48138 1.00506 0.0
H328 H 0.74304 0.57736 1.02195 0.0
C329 C 0.85646 0.5058 1.03526 0.0
C330 C 0.86768 0.55727 1.05845 0.0
H331 H 0.8013 0.44399 0.98434 0.0
H332 H 0.88821 0.48562 1.03759 0.0
C333 C 0.82477 0.58142 1.05371 0.0
C334 C 0.73746 0.73389 0.45315 0.0
C335 C 0.79063 0.75565 0.47828 0.0
H336 H 0.6478 0.69762 0.4648 0.0
C337 C 0.79188 0.75557 0.53748 0.0
H338 H 0.73419 0.73395 0.40793 0.0
C339 C 0.74219 0.73563 0.57021 0.0
C340 C 0.68893 0.71448 0.54527 0.0
H341 H 0.83164 0.77188 0.55863 0.0
H342 H 0.74552 0.7373 0.61544 0.0
C343 C 0.68766 0.71331 0.48599 0.0
C344 C 0.34576 0.45367 0.2024 0.0
C345 C 0.39216 0.49465 0.22165 0.0
H346 H 0.25795 0.42863 0.18329 0.0
C347 C 0.38617 0.54508 0.23067 0.0
H348 H 0.34919 0.41416 0.19647 0.0
C349 C 0.33368 0.55343 0.22394 0.0
C350 C 0.28625 0.51147 0.20773 0.0
H351 H 0.42128 0.57694 0.24629 0.0
H352 H 0.32983 0.59228 0.23305 0.0
C353 C 0.29347 0.46197 0.19531 0.0
C354 C 0.66033 0.38928 1.04042 0.0
C355 C 0.6689 0.39321 0.98155 0.0
H356 H 0.63278 0.33794 0.11353 0.0
C357 C 0.65858 0.34432 0.95315 0.0
H358 H 0.6668 0.42524 1.06435 0.0
C359 C 0.63764 0.29429 0.981 0.0
C360 C 0.62709 0.28993 1.03931 0.0
H361 H 0.66492 0.34473 0.90823 0.0
H362 H 0.62879 0.25854 0.95627 0.0
C363 C 0.64024 0.33872 1.06873 0.0
C364 C 0.99671 0.89824 0.48334 0.0
C365 C 0.97158 0.89194 0.42928 0.0
H366 H 1.03281 0.94942 0.55291 0.0
C367 C 0.97346 0.94095 0.40245 0.0
H368 H 0.99439 0.86284 0.50777 0.0
C369 C 0.99644 0.99191 0.42875 0.0
C370 C 1.01716 0.99713 0.48454 0.0
H371 H 0.95257 0.93965 0.3626 0.0
H372 H 0.99444 1.02718 0.40643 0.0
C373 C 1.01767 0.94869 0.51036 0.0
C374 C 0.20941 0.78373 0.74083 0.0
C375 C 0.20845 0.83579 0.73051 0.0
H376 H 0.25868 0.72995 0.73878 0.0
C377 C 0.25446 0.87213 0.70305 0.0
H378 H 0.17464 0.75553 0.7627 0.0
C379 C 0.30221 0.85796 0.68967 0.0
C380 C 0.30506 0.80719 0.70375 0.0
H381 H 0.25513 0.91289 0.69586 0.0
H382 H 0.33799 0.88757 0.67076 0.0
C383 C 0.25744 0.76939 0.72737 0.0
C384 C 0.69757 0.87307 0.81238 0.0
C385 C 0.70445 0.88349 0.86979 0.0
H386 H 0.73349 0.8926 0.7301 0.0
C387 C 0.75613 0.91622 0.88948 0.0
H388 H 0.65764 0.84814 0.79671 0.0
C389 C 0.79926 0.94098 0.85217 0.0
C390 C 0.79112 0.9343 0.79421 0.0
H391 H 0.76152 0.92593 0.93348 0.0
H392 H 0.83708 0.96898 0.86862 0.0
C393 C 0.74068 0.89855 0.77462 0.0
C394 C 0.91136 0.31056 0.38164 0.0
C395 C 0.9453 0.36365 0.37725 0.0
H396 H 0.864 0.24111 0.33903 0.0
C397 C 0.96343 0.38564 0.32395 0.0
H398 H 0.89384 0.29347 0.42148 0.0
C399 C 0.94288 0.35645 0.2757 0.0
C400 C 0.90639 0.30429 0.28084 0.0
H401 H 0.98922 0.42675 0.31977 0.0
H402 H 0.95256 0.37546 0.23487 0.0
C403 C 0.89341 0.28077 0.33406 0.0
C404 C 0.4377 0.79988 0.42353 0.0
C405 C 0.46048 0.80007 0.36882 0.0
H406 H 0.42989 0.76989 0.50927 0.0
C407 C 0.49626 0.76765 0.36276 0.0
H408 H 0.40841 0.82211 0.43075 0.0
C409 C 0.50635 0.73513 0.40737 0.0
C410 C 0.48242 0.73378 0.46162 0.0
H411 H 0.5142 0.76501 0.32191 0.0
H412 H 0.53298 0.71046 0.39898 0.0
C413 C 0.44917 0.76848 0.4688 0.0
C414 C 0.13216 0.51167 0.93975 0.0
C415 C 0.14598 0.53516 0.88529 0.0
H416 H 0.10291 0.51739 1.02504 0.0
C417 C 0.13879 0.58626 0.87935 0.0
H418 H 0.13859 0.4737 0.94856 0.0
C419 C 0.12007 0.61235 0.92442 0.0
C420 C 0.10558 0.5889 0.97856 0.0
H421 H 0.14824 0.60682 0.83934 0.0
H422 H 0.11692 0.65179 0.91648 0.0
C423 C 0.1118 0.53736 0.98465 0.0
C424 C 0.53909 0.95073 0.99177 0.0
C425 C 0.59228 0.94344 0.98927 0.0
H426 H 0.49141 1.00203 1.01663 0.0
C427 C 0.63954 0.98389 1.00764 0.0
H428 H 0.50251 0.92017 0.97669 0.0
C429 C 0.6338 1.03072 1.02934 0.0
C430 C 0.58049 1.03802 1.03324 0.0
H431 H 0.68104 0.97904 1.00473 0.0
H432 H 0.67107 1.06073 1.04403 0.0
C433 C 0.53313 0.99771 1.01386 0.0
C434 C 1.03095 0.3347 0.46636 0.0
C435 C 0.98078 0.33912 0.48988 0.0
H436 H 0.08527 0.2856 0.45642 0.0
C437 C 0.94555 0.29578 0.52016 0.0
H438 H 0.05827 0.36746 0.44214 0.0
C439 C 0.95947 0.24877 0.52609 0.0
C440 C 1.00958 0.24405 0.50273 0.0
H441 H 0.90577 0.29737 0.53698 0.0
H442 H 0.93118 0.21629 0.54994 0.0
C443 C 0.04583 0.28782 0.47367 0.0
C444 C 0.29148 0.79868 0.1857 0.0
C445 C 0.30243 0.77726 0.23747 0.0
H446 H 0.23425 0.7929 0.11661 0.0
C447 C 0.26182 0.73097 0.25774 0.0
H448 H 0.32193 0.83374 0.16808 0.0
C449 C 0.21284 0.70641 0.22706 0.0
C450 C 0.20147 0.72809 0.17578 0.0
H451 H 0.26774 0.71384 0.29775 0.0
H452 H 0.18287 0.67087 0.24449 0.0
C453 C 0.24133 0.775 0.1558 0.0
C454 C 0.27042 0.52594 0.66947 0.0
C455 C 0.27457 0.51268 0.72657 0.0
H456 H 0.31356 0.55985 0.59234 0.0
C457 C 0.33003 0.52392 0.74756 0.0
H458 H 0.22918 0.51929 0.65137 0.0
C459 C 0.37862 0.54939 0.71437 0.0
C460 C 0.37468 0.56375 0.65763 0.0
H461 H 0.33573 0.51525 0.79118 0.0
H462 H 0.41965 0.55802 0.73352 0.0
C463 C 0.31931 0.55019 0.63565 0.0
C464 C 0.71211 0.78497 0.93965 0.0
C465 C 0.6994 0.82255 0.97426 0.0
H466 H 0.77052 0.74234 0.92034 0.0
C467 C 0.73483 0.84314 1.01964 0.0
H468 H 0.68585 0.76924 0.90396 0.0
C469 C 0.7826 0.82748 1.02937 0.0
C470 C 0.79673 0.79192 0.99314 0.0
H471 H 0.7279 0.87404 1.04537 0.0
H472 H 0.81026 0.84553 1.06339 0.0
C473 C 0.76059 0.77004 0.94871 0.0
C474 C 0.47791 0.96262 0.32382 0.0
C475 C 0.46959 0.91611 0.29159 0.0
H476 H 0.5048 1.04876 0.32685 0.0
C477 C 0.48614 0.92532 0.23425 0.0
H478 H 0.46377 0.95861 0.36707 0.0
C479 C 0.50668 0.97746 0.21005 0.0
C480 C 0.51333 1.02377 0.24205 0.0
H481 H 0.47855 0.89155 0.2067 0.0
H482 H 0.5166 0.98139 0.16566 0.0
C483 C 0.50021 1.0149 0.3 0.0
C484 C 0.20821 0.37976 0.71645 0.0
C485 C 0.16805 0.40548 0.732 0.0
H486 H 0.22532 0.31254 0.67646 0.0
C487 C 0.11214 0.37929 0.7141 0.0
H488 H 0.25167 0.39715 0.72853 0.0
C489 C 0.09645 0.32919 0.68639 0.0
C490 C 0.13597 0.30268 0.67209 0.0
H491 H 0.0795 0.39743 0.72191 0.0
H492 H 0.05273 0.31147 0.67524 0.0
C493 C 0.19269 0.33018 0.68668 0.0
C494 C 0.86354 0.50904 0.49872 0.0
C495 C 0.86436 0.4565 0.50564 0.0
H496 H 0.81332 0.56173 0.49616 0.0
C497 C 0.81501 0.41724 0.52302 0.0
H498 H 0.90107 0.53961 0.48448 0.0
C499 C 0.76481 0.4296 0.53015 0.0
C500 C 0.76269 0.48146 0.51938 0.0
H501 H 0.81464 0.3763 0.52781 0.0
H502 H 0.72724 0.39803 0.54235 0.0
C503 C 0.81317 0.52143 0.50527 0.0
loop_
_geom_bond_atom_site_label_1
_geom_bond_atom_site_label_2
_geom_bond_distance
_geom_bond_site_symmetry_2
_ccdc_geom_bond_type
C0 N1 1.317 . S
C0 N2 1.348 . S
C0 C3 1.485 . S
N1 C0 1.317 . S
N1 N5 1.370 . S
N2 C0 1.348 . S
N2 C4 1.346 . S
C3 C0 1.485 . S
C3 H7 0.960 . S
C3 H8 0.961 . S
C3 H9 0.960 . S
C4 N2 1.346 . S
C4 N5 1.307 . S
C4 C6 1.486 . S
N5 N1 1.370 . S
N5 C4 1.307 . S
C6 C4 1.486 . S
C6 H10 0.960 . S
C6 H11 0.960 . S
C6 H12 0.959 . S
H7 C3 0.960 . S
H8 C3 0.961 . S
H9 C3 0.960 . S
H10 C6 0.960 . S
H11 C6 0.960 . S
H12 C6 0.959 . S
C13 N14 1.317 . S
C13 N15 1.348 . S
C13 C16 1.485 . S
N14 C13 1.317 . S
N14 N18 1.370 . S
N15 C13 1.348 . S
N15 C17 1.346 . S
C16 C13 1.485 . S
C16 H20 0.960 . S
C16 H21 0.961 . S
C16 H22 0.960 . S
C17 N15 1.346 . S
C17 N18 1.307 . S
C17 C19 1.486 . S
N18 N14 1.370 . S
N18 C17 1.307 . S
C19 C17 1.486 . S
C19 H23 0.960 . S
C19 H24 0.960 . S
C19 H25 0.959 . S
H20 C16 0.960 . S
H21 C16 0.961 . S
H22 C16 0.960 . S
H23 C19 0.960 . S
H24 C19 0.960 . S
H25 C19 0.959 . S
C26 N27 1.317 . S
C26 N28 1.348 . S
C26 C29 1.485 . S
N27 C26 1.317 . S
N27 N31 1.370 . S
N28 C26 1.348 . S
N28 C30 1.346 . S
C29 C26 1.485 . S
C29 H33 0.960 . S
C29 H34 0.961 . S
C29 H35 0.960 . S
C30 N28 1.346 . S
C30 N31 1.307 . S
C30 C32 1.486 . S
N31 N27 1.370 . S
N31 C30 1.307 . S
C32 C30 1.486 . S
C32 H36 0.960 . S
C32 H37 0.960 . S
C32 H38 0.959 . S
H33 C29 0.960 . S
H34 C29 0.961 . S
H35 C29 0.960 . S
H36 C32 0.960 . S
H37 C32 0.960 . S
H38 C32 0.959 . S
C39 N40 1.317 . S
C39 N41 1.348 . S
C39 C42 1.485 . S
N40 C39 1.317 . S
N40 N44 1.370 . S
N41 C39 1.348 . S
N41 C43 1.346 . S
C42 C39 1.485 . S
C42 H46 0.960 . S
C42 H47 0.961 . S
C42 H48 0.960 . S
C43 N41 1.346 . S
C43 N44 1.307 . S
C43 C45 1.486 . S
N44 N40 1.370 . S
N44 C43 1.307 . S
C45 C43 1.486 . S
C45 H49 0.960 . S
C45 H50 0.960 . S
C45 H51 0.959 . S
H46 C42 0.960 . S
H47 C42 0.961 . S
H48 C42 0.960 . S
H49 C45 0.960 . S
H50 C45 0.960 . S
H51 C45 0.959 . S
C52 N53 1.317 . S
C52 N54 1.348 . S
C52 C55 1.485 . S
N53 C52 1.317 . S
N53 N57 1.370 . S
N54 C52 1.348 . S
N54 C56 1.346 . S
C55 C52 1.485 . S
C55 H59 0.960 . S
C55 H60 0.961 . S
C55 H61 0.960 . S
C56 N54 1.346 . S
C56 N57 1.307 . S
C56 C58 1.486 . S
N57 N53 1.370 . S
N57 C56 1.307 . S
C58 C56 1.486 . S
C58 H62 0.960 . S
C58 H63 0.960 . S
C58 H64 0.959 . S
H59 C55 0.960 . S
H60 C55 0.961 . S
H61 C55 0.960 . S
H62 C58 0.960 . S
H63 C58 0.960 . S
H64 C58 0.959 . S
C65 N66 1.317 . S
C65 N67 1.348 . S
C65 C68 1.485 . S
N66 C65 1.317 . S
N66 N70 1.370 . S
N67 C65 1.348 . S
N67 C69 1.346 . S
C68 C65 1.485 . S
C68 H72 0.960 . S
C68 H73 0.961 . S
C68 H74 0.960 . S
C69 N67 1.346 . S
C69 N70 1.307 . S
C69 C71 1.486 . S
N70 N66 1.370 . S
N70 C69 1.307 . S
C71 C69 1.486 . S
C71 H75 0.960 . S
C71 H76 0.960 . S
C71 H77 0.959 . S
H72 C68 0.960 . S
H73 C68 0.961 . S
H74 C68 0.960 . S
H75 C71 0.960 . S
H76 C71 0.960 . S
H77 C71 0.959 . S
C78 N79 1.317 . S
C78 N80 1.348 . S
C78 C81 1.485 . S
N79 C78 1.317 . S
N79 N83 1.370 . S
N80 C78 1.348 . S
N80 C82 1.346 . S
C81 C78 1.485 . S
C81 H85 0.960 . S
C81 H86 0.961 . S
C81 H87 0.960 . S
C82 N80 1.346 . S
C82 N83 1.307 . S
C82 C84 1.486 . S
N83 N79 1.370 . S
N83 C82 1.307 . S
C84 C82 1.486 . S
C84 H88 0.960 . S
C84 H89 0.960 . S
C84 H90 0.959 . S
H85 C81 0.960 . S
H86 C81 0.961 . S
H87 C81 0.960 . S
H88 C84 0.960 . S
H89 C84 0.960 . S
H90 C84 0.959 . S
C91 N92 1.317 . S
C91 N93 1.348 . S
C91 C94 1.485 . S
N92 C91 1.317 . S
N92 N96 1.370 . S
N93 C91 1.348 . S
N93 C95 1.346 . S
C94 C91 1.485 . S
C94 H98 0.960 . S
C94 H99 0.961 . S
C94 H100 0.960 . S
C95 N93 1.346 . S
C95 N96 1.307 . S
C95 C97 1.486 . S
N96 N92 1.370 . S
N96 C95 1.307 . S
C97 C95 1.486 . S
C97 H101 0.960 . S
C97 H102 0.960 . S
C97 H103 0.959 . S
H98 C94 0.960 . S
H99 C94 0.961 . S
H100 C94 0.960 . S
H101 C97 0.960 . S
H102 C97 0.960 . S
H103 C97 0.959 . S
La104 C106 2.928 . S
La104 O124 2.521 . S
La104 O125 2.628 . S
La104 O126 2.554 . S
La104 O127 2.757 . S
La104 O128 2.470 . S
La104 O133 2.482 . S
La104 O135 2.503 1_545 S
La105 C115 2.928 1_545 S
La105 O127 2.482 1_655 S
La105 O129 2.503 1_655 S
La105 O130 2.521 1_545 S
La105 O131 2.628 1_545 S
La105 O132 2.554 . S
La105 O133 2.757 1_655 S
La105 O134 2.470 1_545 S
C106 La104 2.928 . S
C106 C107 1.503 . S
C106 O124 1.261 . S
C106 O125 1.243 . S
C107 C106 1.503 . S
C107 C108 1.394 . S
C107 C112 1.373 . S
C108 C107 1.394 . S
C108 C109 1.380 . S
C108 H136 0.930 . S
C109 C108 1.380 . S
C109 C110 1.376 . S
C109 H137 0.930 . S
C110 C109 1.376 . S
C110 C111 1.370 . S
C111 C110 1.370 . S
C111 C112 1.396 . S
C111 H138 0.929 . S
C112 C107 1.373 . S
C112 C111 1.396 . S
C112 H139 0.929 . S
C113 O126 1.240 1_565 S
C113 O127 1.289 1_565 S
C114 O128 1.258 . S
C114 O129 1.256 . S
C115 La105 2.928 1_565 S
C115 C116 1.503 . S
C115 O130 1.261 . S
C115 O131 1.243 . S
C116 C115 1.503 . S
C116 C117 1.394 . S
C116 C121 1.373 . S
C117 C116 1.394 . S
C117 C118 1.380 . S
C117 H140 0.930 . S
C118 C117 1.380 . S
C118 C119 1.376 . S
C118 H141 0.930 . S
C119 C118 1.376 . S
C119 C120 1.370 . S
C120 C119 1.370 . S
C120 C121 1.396 . S
C120 H142 0.929 . S
C121 C116 1.373 . S
C121 C120 1.396 . S
C121 H143 0.929 . S
C122 O132 1.240 . S
C122 O133 1.289 1_655 S
C123 O134 1.258 . S
C123 O135 1.256 1_655 S
O124 La104 2.521 . S
O124 C106 1.261 . S
O125 La104 2.628 . S
O125 C106 1.243 . S
O126 La104 2.554 . S
O126 C113 1.240 1_545 S
O127 La104 2.757 . S
O127 La105 2.482 1_455 S
O127 C113 1.289 1_545 S
O128 La104 2.470 . S
O128 C114 1.258 . S
O129 La105 2.503 1_455 S
O129 C114 1.256 . S
O130 La105 2.521 1_565 S
O130 C115 1.261 . S
O131 La105 2.628 1_565 S
O131 C115 1.243 . S
O132 La105 2.554 . S
O132 C122 1.240 . S
O133 La104 2.482 . S
O133 La105 2.757 1_455 S
O133 C122 1.289 1_455 S
O134 La105 2.470 1_565 S
O134 C123 1.258 . S
O135 La104 2.503 1_565 S
O135 C123 1.256 1_455 S
H136 C108 0.930 . S
H137 C109 0.930 . S
H138 C111 0.929 . S
H139 C112 0.929 . S
H140 C117 0.930 . S
H141 C118 0.930 . S
H142 C120 0.929 . S
H143 C121 0.929 . S
La144 C146 2.928 . S
La144 O164 2.521 . S
La144 O165 2.628 . S
La144 O166 2.554 1_545 S
La144 O167 2.757 . S
La144 O168 2.470 . S
La144 O173 2.482 . S
La144 O175 2.503 . S
La145 C155 2.928 1_554 S
La145 O167 2.482 . S
La145 O169 2.503 . S
La145 O170 2.521 1_554 S
La145 O171 2.628 1_544 S
La145 O172 2.554 1_554 S
La145 O173 2.757 . S
La145 O174 2.470 1_554 S
C146 La144 2.928 . S
C146 C147 1.503 . S
C146 O164 1.261 . S
C146 O165 1.243 . S
C147 C146 1.503 . S
C147 C148 1.394 . S
C147 C152 1.373 . S
C148 C147 1.394 . S
C148 C149 1.380 . S
C148 H176 0.930 . S
C149 C148 1.380 . S
C149 C150 1.376 . S
C149 H177 0.930 . S
C150 C149 1.376 . S
C150 C151 1.370 . S
C151 C150 1.370 . S
C151 C152 1.396 . S
C151 H178 0.929 . S
C152 C147 1.373 . S
C152 C151 1.396 . S
C152 H179 0.929 . S
C153 O166 1.240 . S
C153 O167 1.289 1_565 S
C154 O168 1.258 . S
C154 O169 1.256 . S
C155 La145 2.928 1_556 S
C155 C156 1.503 1_545 S
C155 O170 1.261 . S
C155 O171 1.243 1_545 S
C156 C155 1.503 1_565 S
C156 C157 1.394 1_565 S
C156 C161 1.373 . S
C157 C156 1.394 1_545 S
C157 C158 1.380 1_545 S
C157 H180 0.930 . S
C158 C157 1.380 1_565 S
C158 C159 1.376 . S
C158 H181 0.930 . S
C159 C158 1.376 . S
C159 C160 1.370 . S
C160 C159 1.370 . S
C160 C161 1.396 . S
C160 H182 0.929 . S
C161 C156 1.373 . S
C161 C160 1.396 . S
C161 H183 0.929 . S
C162 O172 1.240 1_554 S
C162 O173 1.289 . S
C163 O174 1.258 . S
C163 O175 1.256 1_556 S
O164 La144 2.521 . S
O164 C146 1.261 . S
O165 La144 2.628 . S
O165 C146 1.243 . S
O166 La144 2.554 1_565 S
O166 C153 1.240 . S
O167 La144 2.757 . S
O167 La145 2.482 . S
O167 C153 1.289 1_545 S
O168 La144 2.470 . S
O168 C154 1.258 . S
O169 La145 2.503 . S
O169 C154 1.256 . S
O170 La145 2.521 1_556 S
O170 C155 1.261 . S
O171 La145 2.628 1_566 S
O171 C155 1.243 1_565 S
O172 La145 2.554 1_556 S
O172 C162 1.240 1_556 S
O173 La144 2.482 . S
O173 La145 2.757 . S
O173 C162 1.289 . S
O174 La145 2.470 1_556 S
O174 C163 1.258 . S
O175 La144 2.503 . S
O175 C163 1.256 1_554 S
H176 C148 0.930 . S
H177 C149 0.930 . S
H178 C151 0.929 . S
H179 C152 0.929 . S
H180 C157 0.930 . S
H181 C158 0.930 . S
H182 C160 0.929 . S
H183 C161 0.929 . S
La184 C186 2.928 . S
La184 O204 2.521 . S
La184 O205 2.628 . S
La184 O206 2.554 . S
La184 O207 2.757 . S
La184 O208 2.470 . S
La184 O213 2.482 . S
La184 O215 2.503 . S
La185 C195 2.928 . S
La185 O207 2.482 . S
La185 O209 2.503 . S
La185 O210 2.521 . S
La185 O211 2.628 . S
La185 O212 2.554 . S
La185 O213 2.757 . S
La185 O214 2.470 . S
C186 La184 2.928 . S
C186 C187 1.503 . S
C186 O204 1.261 . S
C186 O205 1.243 . S
C187 C186 1.503 . S
C187 C188 1.394 . S
C187 C192 1.373 . S
C188 C187 1.394 . S
C188 C189 1.380 . S
C188 H216 0.930 . S
C189 C188 1.380 . S
C189 C190 1.376 . S
C189 H217 0.930 . S
C190 C189 1.376 . S
C190 C191 1.370 . S
C191 C190 1.370 . S
C191 C192 1.396 . S
C191 H218 0.929 . S
C192 C187 1.373 . S
C192 C191 1.396 . S
C192 H219 0.929 . S
C193 O206 1.240 . S
C193 O207 1.289 . S
C194 O208 1.258 . S
C194 O209 1.256 . S
C195 La185 2.928 . S
C195 C196 1.503 . S
C195 O210 1.261 . S
C195 O211 1.243 . S
C196 C195 1.503 . S
C196 C197 1.394 . S
C196 C201 1.373 . S
C197 C196 1.394 . S
C197 C198 1.380 . S
C197 H220 0.930 . S
C198 C197 1.380 . S
C198 C199 1.376 . S
C198 H221 0.930 . S
C199 C198 1.376 . S
C199 C200 1.370 . S
C200 C199 1.370 . S
C200 C201 1.396 . S
C200 H222 0.929 . S
C201 C196 1.373 . S
C201 C200 1.396 . S
C201 H223 0.929 . S
C202 O212 1.240 . S
C202 O213 1.289 . S
C203 O214 1.258 . S
C203 O215 1.256 . S
O204 La184 2.521 . S
O204 C186 1.261 . S
O205 La184 2.628 . S
O205 C186 1.243 . S
O206 La184 2.554 . S
O206 C193 1.240 . S
O207 La184 2.757 . S
O207 La185 2.482 . S
O207 C193 1.289 . S
O208 La184 2.470 . S
O208 C194 1.258 . S
O209 La185 2.503 . S
O209 C194 1.256 . S
O210 La185 2.521 . S
O210 C195 1.261 . S
O211 La185 2.628 . S
O211 C195 1.243 . S
O212 La185 2.554 . S
O212 C202 1.240 . S
O213 La184 2.482 . S
O213 La185 2.757 . S
O213 C202 1.289 . S
O214 La185 2.470 . S
O214 C203 1.258 . S
O215 La184 2.503 . S
O215 C203 1.256 . S
H216 C188 0.930 . S
H217 C189 0.930 . S
H218 C191 0.929 . S
H219 C192 0.929 . S
H220 C197 0.930 . S
H221 C198 0.930 . S
H222 C200 0.929 . S
H223 C201 0.929 . S
La224 C226 2.928 . S
La224 O244 2.521 . S
La224 O245 2.628 . S
La224 O246 2.554 1_455 S
La224 O247 2.757 1_455 S
La224 O248 2.470 . S
La224 O253 2.482 1_554 S
La224 O255 2.503 1_455 S
La225 C235 2.928 1_455 S
La225 O247 2.482 1_456 S
La225 O249 2.503 1_556 S
La225 O250 2.521 1_455 S
La225 O251 2.628 1_455 S
La225 O252 2.554 . S
La225 O253 2.757 . S
La225 O254 2.470 1_455 S
C226 La224 2.928 . S
C226 C227 1.503 . S
C226 O244 1.261 . S
C226 O245 1.243 . S
C227 C226 1.503 . S
C227 C228 1.394 . S
C227 C232 1.373 . S
C228 C227 1.394 . S
C228 C229 1.380 . S
C228 H256 0.930 . S
C229 C228 1.380 . S
C229 C230 1.376 . S
C229 H257 0.930 . S
C230 C229 1.376 . S
C230 C231 1.370 . S
C231 C230 1.370 . S
C231 C232 1.396 . S
C231 H258 0.929 . S
C232 C227 1.373 . S
C232 C231 1.396 . S
C232 H259 0.929 . S
C233 O246 1.240 . S
C233 O247 1.289 . S
C234 O248 1.258 . S
C234 O249 1.256 . S
C235 La225 2.928 1_655 S
C235 C236 1.503 . S
C235 O250 1.261 . S
C235 O251 1.243 . S
C236 C235 1.503 . S
C236 C237 1.394 . S
C236 C241 1.373 . S
C237 C236 1.394 . S
C237 C238 1.380 . S
C237 H260 0.930 . S
C238 C237 1.380 . S
C238 C239 1.376 . S
C238 H261 0.930 . S
C239 C238 1.376 . S
C239 C240 1.370 . S
C240 C239 1.370 . S
C240 C241 1.396 . S
C240 H262 0.929 . S
C241 C236 1.373 . S
C241 C240 1.396 . S
C241 H263 0.929 . S
C242 O252 1.240 . S
C242 O253 1.289 . S
C243 O254 1.258 . S
C243 O255 1.256 1_556 S
O244 La224 2.521 . S
O244 C226 1.261 . S
O245 La224 2.628 . S
O245 C226 1.243 . S
O246 La224 2.554 1_655 S
O246 C233 1.240 . S
O247 La224 2.757 1_655 S
O247 La225 2.482 1_654 S
O247 C233 1.289 . S
O248 La224 2.470 . S
O248 C234 1.258 . S
O249 La225 2.503 1_554 S
O249 C234 1.256 . S
O250 La225 2.521 1_655 S
O250 C235 1.261 . S
O251 La225 2.628 1_655 S
O251 C235 1.243 . S
O252 La225 2.554 . S
O252 C242 1.240 . S
O253 La224 2.482 1_556 S
O253 La225 2.757 . S
O253 C242 1.289 . S
O254 La225 2.470 1_655 S
O254 C243 1.258 . S
O255 La224 2.503 1_655 S
O255 C243 1.256 1_554 S
H256 C228 0.930 . S
H257 C229 0.930 . S
H258 C231 0.929 . S
H259 C232 0.929 . S
H260 C237 0.930 . S
H261 C238 0.930 . S
H262 C240 0.929 . S
H263 C241 0.929 . S
C264 C265 1.387 . S
C264 H268 0.950 . S
C264 C273 1.390 . S
C265 C264 1.387 . S
C265 C267 1.387 . S
H266 C273 0.950 . S
C267 C265 1.387 . S
C267 C269 1.390 . S
C267 H271 0.950 . S
H268 C264 0.950 . S
C269 C267 1.390 . S
C269 C270 1.387 . S
C269 H272 0.950 . S
C270 C269 1.387 . S
C270 C273 1.387 . S
H271 C267 0.950 . S
H272 C269 0.950 . S
C273 C264 1.390 . S
C273 H266 0.950 . S
C273 C270 1.387 . S
C274 C275 1.387 . S
C274 H278 0.950 . S
C274 C283 1.390 . S
C275 C274 1.387 . S
C275 C277 1.387 . S
H276 C283 0.950 . S
C277 C275 1.387 . S
C277 C279 1.390 . S
C277 H281 0.950 . S
H278 C274 0.950 . S
C279 C277 1.390 . S
C279 C280 1.387 . S
C279 H282 0.950 . S
C280 C279 1.387 . S
C280 C283 1.387 . S
H281 C277 0.950 . S
H282 C279 0.950 . S
C283 C274 1.390 . S
C283 H276 0.950 . S
C283 C280 1.387 . S
C284 C285 1.387 . S
C284 H288 0.950 . S
C284 C293 1.390 . S
C285 C284 1.387 . S
C285 C287 1.387 . S
H286 C293 0.950 . S
C287 C285 1.387 . S
C287 C289 1.390 . S
C287 H291 0.950 . S
H288 C284 0.950 . S
C289 C287 1.390 . S
C289 C290 1.387 . S
C289 H292 0.950 . S
C290 C289 1.387 . S
C290 C293 1.387 . S
H291 C287 0.950 . S
H292 C289 0.950 . S
C293 C284 1.390 . S
C293 H286 0.950 . S
C293 C290 1.387 . S
C294 C295 1.387 . S
C294 H298 0.950 . S
C294 C303 1.390 . S
C295 C294 1.387 . S
C295 C297 1.387 . S
H296 C303 0.950 . S
C297 C295 1.387 . S
C297 C299 1.390 . S
C297 H301 0.950 . S
H298 C294 0.950 . S
C299 C297 1.390 . S
C299 C300 1.387 . S
C299 H302 0.950 . S
C300 C299 1.387 . S
C300 C303 1.387 . S
H301 C297 0.950 . S
H302 C299 0.950 . S
C303 C294 1.390 . S
C303 H296 0.950 . S
C303 C300 1.387 . S
C304 C305 1.387 . S
C304 H308 0.950 . S
C304 C313 1.390 . S
C305 C304 1.387 . S
C305 C307 1.387 . S
H306 C313 0.950 . S
C307 C305 1.387 . S
C307 C309 1.390 . S
C307 H311 0.950 . S
H308 C304 0.950 . S
C309 C307 1.390 . S
C309 C310 1.387 . S
C309 H312 0.950 . S
C310 C309 1.387 . S
C310 C313 1.387 . S
H311 C307 0.950 . S
H312 C309 0.950 . S
C313 C304 1.390 . S
C313 H306 0.950 . S
C313 C310 1.387 . S
C314 C315 1.387 . S
C314 H318 0.950 . S
C314 C323 1.390 . S
C315 C314 1.387 . S
C315 C317 1.387 . S
H316 C323 0.950 . S
C317 C315 1.387 . S
C317 C319 1.390 . S
C317 H321 0.950 . S
H318 C314 0.950 . S
C319 C317 1.390 . S
C319 C320 1.387 . S
C319 H322 0.950 . S
C320 C319 1.387 . S
C320 C323 1.387 . S
H321 C317 0.950 . S
H322 C319 0.950 . S
C323 C314 1.390 . S
C323 H316 0.950 . S
C323 C320 1.387 . S
C324 C325 1.387 . S
C324 H328 0.950 . S
C324 C333 1.390 . S
C325 C324 1.387 . S
C325 C327 1.387 . S
H326 C333 0.950 . S
C327 C325 1.387 . S
C327 C329 1.390 . S
C327 H331 0.950 . S
H328 C324 0.950 . S
C329 C327 1.390 . S
C329 C330 1.387 . S
C329 H332 0.950 1_556 S
C330 C329 1.387 . S
C330 C333 1.387 . S
H331 C327 0.950 . S
H332 C329 0.950 1_554 S
C333 C324 1.390 . S
C333 H326 0.950 . S
C333 C330 1.387 . S
C334 C335 1.387 . S
C334 H338 0.950 . S
C334 C343 1.390 . S
C335 C334 1.387 . S
C335 C337 1.387 . S
H336 C343 0.950 . S
C337 C335 1.387 . S
C337 C339 1.390 . S
C337 H341 0.950 . S
H338 C334 0.950 . S
C339 C337 1.390 . S
C339 C340 1.387 . S
C339 H342 0.950 . S
C340 C339 1.387 . S
C340 C343 1.387 . S
H341 C337 0.950 . S
H342 C339 0.950 . S
C343 C334 1.390 . S
C343 H336 0.950 . S
C343 C340 1.387 . S
C344 C345 1.387 . S
C344 H348 0.950 . S
C344 C353 1.390 . S
C345 C344 1.387 . S
C345 C347 1.387 . S
H346 C353 0.950 . S
C347 C345 1.387 . S
C347 C349 1.390 . S
C347 H351 0.950 . S
H348 C344 0.950 . S
C349 C347 1.390 . S
C349 C350 1.387 . S
C349 H352 0.950 . S
C350 C349 1.387 . S
C350 C353 1.387 . S
H351 C347 0.950 . S
H352 C349 0.950 . S
C353 C344 1.390 . S
C353 H346 0.950 . S
C353 C350 1.387 . S
C354 C355 1.387 . S
C354 H358 0.950 . S
C354 C363 1.390 . S
C355 C354 1.387 . S
C355 C357 1.387 . S
H356 C363 0.950 . S
C357 C355 1.387 . S
C357 C359 1.390 . S
C357 H361 0.950 . S
H358 C354 0.950 . S
C359 C357 1.390 . S
C359 C360 1.387 . S
C359 H362 0.950 . S
C360 C359 1.387 . S
C360 C363 1.387 . S
H361 C357 0.950 . S
H362 C359 0.950 . S
C363 C354 1.390 . S
C363 H356 0.950 . S
C363 C360 1.387 . S
C364 C365 1.387 . S
C364 H368 0.950 . S
C364 C373 1.390 . S
C365 C364 1.387 . S
C365 C367 1.387 . S
H366 C373 0.950 . S
C367 C365 1.387 . S
C367 C369 1.390 . S
C367 H371 0.950 . S
H368 C364 0.950 . S
C369 C367 1.390 . S
C369 C370 1.387 . S
C369 H372 0.950 . S
C370 C369 1.387 . S
C370 C373 1.387 . S
H371 C367 0.950 . S
H372 C369 0.950 . S
C373 C364 1.390 . S
C373 H366 0.950 . S
C373 C370 1.387 . S
C374 C375 1.387 . S
C374 H378 0.950 . S
C374 C383 1.390 . S
C375 C374 1.387 . S
C375 C377 1.387 . S
H376 C383 0.950 . S
C377 C375 1.387 . S
C377 C379 1.390 . S
C377 H381 0.950 . S
H378 C374 0.950 . S
C379 C377 1.390 . S
C379 C380 1.387 . S
C379 H382 0.950 . S
C380 C379 1.387 . S
C380 C383 1.387 . S
H381 C377 0.950 . S
H382 C379 0.950 . S
C383 C374 1.390 . S
C383 H376 0.950 . S
C383 C380 1.387 . S
C384 C385 1.387 . S
C384 H388 0.950 . S
C384 C393 1.390 . S
C385 C384 1.387 . S
C385 C387 1.387 . S
H386 C393 0.950 . S
C387 C385 1.387 . S
C387 C389 1.390 . S
C387 H391 0.950 . S
H388 C384 0.950 . S
C389 C387 1.390 . S
C389 C390 1.387 . S
C389 H392 0.950 . S
C390 C389 1.387 . S
C390 C393 1.387 . S
H391 C387 0.950 . S
H392 C389 0.950 . S
C393 C384 1.390 . S
C393 H386 0.950 . S
C393 C390 1.387 . S
C394 C395 1.387 . S
C394 H398 0.950 . S
C394 C403 1.390 . S
C395 C394 1.387 . S
C395 C397 1.387 . S
H396 C403 0.950 . S
C397 C395 1.387 . S
C397 C399 1.390 . S
C397 H401 0.950 . S
H398 C394 0.950 . S
C399 C397 1.390 . S
C399 C400 1.387 . S
C399 H402 0.950 . S
C400 C399 1.387 . S
C400 C403 1.387 . S
H401 C397 0.950 . S
H402 C399 0.950 . S
C403 C394 1.390 . S
C403 H396 0.950 . S
C403 C400 1.387 . S
C404 C405 1.387 . S
C404 H408 0.950 . S
C404 C413 1.390 . S
C405 C404 1.387 . S
C405 C407 1.387 . S
H406 C413 0.950 . S
C407 C405 1.387 . S
C407 C409 1.390 . S
C407 H411 0.950 . S
H408 C404 0.950 . S
C409 C407 1.390 . S
C409 C410 1.387 . S
C409 H412 0.950 . S
C410 C409 1.387 . S
C410 C413 1.387 . S
H411 C407 0.950 . S
H412 C409 0.950 . S
C413 C404 1.390 . S
C413 H406 0.950 . S
C413 C410 1.387 . S
C414 C415 1.387 . S
C414 H418 0.950 . S
C414 C423 1.390 . S
C415 C414 1.387 . S
C415 C417 1.387 . S
H416 C423 0.950 . S
C417 C415 1.387 . S
C417 C419 1.390 . S
C417 H421 0.950 . S
H418 C414 0.950 . S
C419 C417 1.390 . S
C419 C420 1.387 . S
C419 H422 0.950 . S
C420 C419 1.387 . S
C420 C423 1.387 . S
H421 C417 0.950 . S
H422 C419 0.950 . S
C423 C414 1.390 . S
C423 H416 0.950 . S
C423 C420 1.387 . S
C424 C425 1.387 . S
C424 H428 0.950 . S
C424 C433 1.390 . S
C425 C424 1.387 . S
C425 C427 1.387 . S
H426 C433 0.950 . S
C427 C425 1.387 . S
C427 C429 1.390 . S
C427 H431 0.950 . S
H428 C424 0.950 . S
C429 C427 1.390 . S
C429 C430 1.387 . S
C429 H432 0.950 . S
C430 C429 1.387 . S
C430 C433 1.387 . S
H431 C427 0.950 . S
H432 C429 0.950 . S
C433 C424 1.390 . S
C433 H426 0.950 . S
C433 C430 1.387 . S
C434 C435 1.387 . S
C434 H438 0.950 . S
C434 C443 1.390 . S
C435 C434 1.387 . S
C435 C437 1.387 . S
H436 C443 0.950 . S
C437 C435 1.387 . S
C437 C439 1.390 . S
C437 H441 0.950 . S
H438 C434 0.950 . S
C439 C437 1.390 . S
C439 C440 1.387 . S
C439 H442 0.950 . S
C440 C439 1.387 . S
C440 C443 1.387 . S
H441 C437 0.950 . S
H442 C439 0.950 . S
C443 C434 1.390 . S
C443 H436 0.950 . S
C443 C440 1.387 . S
C444 C445 1.387 . S
C444 H448 0.950 . S
C444 C453 1.390 . S
C445 C444 1.387 . S
C445 C447 1.387 . S
H446 C453 0.950 . S
C447 C445 1.387 . S
C447 C449 1.390 . S
C447 H451 0.950 . S
H448 C444 0.950 . S
C449 C447 1.390 . S
C449 C450 1.387 . S
C449 H452 0.950 . S
C450 C449 1.387 . S
C450 C453 1.387 . S
H451 C447 0.950 . S
H452 C449 0.950 . S
C453 C444 1.390 . S
C453 H446 0.950 . S
C453 C450 1.387 . S
C454 C455 1.387 . S
C454 H458 0.950 . S
C454 C463 1.390 . S
C455 C454 1.387 . S
C455 C457 1.387 . S
H456 C463 0.950 . S
C457 C455 1.387 . S
C457 C459 1.390 . S
C457 H461 0.950 . S
H458 C454 0.950 . S
C459 C457 1.390 . S
C459 C460 1.387 . S
C459 H462 0.950 . S
C460 C459 1.387 . S
C460 C463 1.387 . S
H461 C457 0.950 . S
H462 C459 0.950 . S
C463 C454 1.390 . S
C463 H456 0.950 . S
C463 C460 1.387 . S
C464 C465 1.387 . S
C464 H468 0.950 . S
C464 C473 1.390 . S
C465 C464 1.387 . S
C465 C467 1.387 . S
H466 C473 0.950 . S
C467 C465 1.387 . S
C467 C469 1.390 . S
C467 H471 0.950 . S
H468 C464 0.950 . S
C469 C467 1.390 . S
C469 C470 1.387 . S
C469 H472 0.950 . S
C470 C469 1.387 . S
C470 C473 1.387 . S
H471 C467 0.950 . S
H472 C469 0.950 . S
C473 C464 1.390 . S
C473 H466 0.950 . S
C473 C470 1.387 . S
C474 C475 1.387 . S
C474 H478 0.950 . S
C474 C483 1.390 . S
C475 C474 1.387 . S
C475 C477 1.387 . S
H476 C483 0.950 . S
C477 C475 1.387 . S
C477 C479 1.390 . S
C477 H481 0.950 . S
H478 C474 0.950 . S
C479 C477 1.390 . S
C479 C480 1.387 . S
C479 H482 0.950 . S
C480 C479 1.387 . S
C480 C483 1.387 . S
H481 C477 0.950 . S
H482 C479 0.950 . S
C483 C474 1.390 . S
C483 H476 0.950 . S
C483 C480 1.387 . S
C484 C485 1.387 . S
C484 H488 0.950 . S
C484 C493 1.390 . S
C485 C484 1.387 . S
C485 C487 1.387 . S
H486 C493 0.950 . S
C487 C485 1.387 . S
C487 C489 1.390 . S
C487 H491 0.950 . S
H488 C484 0.950 . S
C489 C487 1.390 . S
C489 C490 1.387 . S
C489 H492 0.950 . S
C490 C489 1.387 . S
C490 C493 1.387 . S
H491 C487 0.950 . S
H492 C489 0.950 . S
C493 C484 1.390 . S
C493 H486 0.950 . S
C493 C490 1.387 . S
C494 C495 1.387 . S
C494 H498 0.950 . S
C494 C503 1.390 . S
C495 C494 1.387 . S
C495 C497 1.387 . S
H496 C503 0.950 . S
C497 C495 1.387 . S
C497 C499 1.390 . S
C497 H501 0.950 . S
H498 C494 0.950 . S
C499 C497 1.390 . S
C499 C500 1.387 . S
C499 H502 0.950 . S
C500 C499 1.387 . S
C500 C503 1.387 . S
H501 C497 0.950 . S
H502 C499 0.950 . S
C503 C494 1.390 . S
C503 H496 0.950 . S
C503 C500 1.387 . S
C265 N1 0.962 . S
C270 C110 0.992 . S
C275 N18 1.109 . S
C280 C159 1.164 . S
C290 C194 2.193 . S
C285 N28 2.269 . S
C295 N40 2.696 . S
C300 C233 2.708 . S
C310 C154 2.264 . S
C305 N5 2.163 . S
C320 C113 0.574 . S
C315 N14 0.516 . S
C330 C243 2.041 . S
C325 N31 2.064 . S
C340 C202 1.600 . S
C335 N41 1.616 . S
C345 N2 1.310 . S
C350 C230 1.357 . S
C360 C162 2.480 1_556 S
C355 N27 2.568 . S
C365 N44 2.455 . S
C370 C123 2.513 . S
C375 N15 0.957 . S
C380 C199 0.964 . S
C390 C119 1.500 . S
C385 N57 1.576 . S
C395 N70 0.975 . S
C400 C150 1.059 . S
C405 N79 2.404 . S
C410 C203 2.419 . S
C415 N93 2.531 . S
C420 C242 2.514 . S
C425 N54 1.846 . S
C430 C163 2.040 1_565 S
C440 C122 1.308 . S
C435 N66 1.408 . S
C450 C234 1.585 . S
C445 N80 1.671 . S
C460 C193 1.838 . S
C455 N96 1.847 . S
C465 N53 1.540 . S
C470 C239 1.549 . S
C480 C153 2.209 . S
C475 N83 2.231 . S
C490 C114 2.690 . S
C485 N92 2.683 . S
C495 N67 1.179 . S
C500 C190 1.224 . S
