# Generated by pormake.
# Topology ssa, (4,4)-cn, num edge types: 1
# Building blocks:
#     Node 0, Type 0, BuildingBlock: NAWXER_clean_sbu_0, # of connection points: 4
#     Node 1, Type 0, BuildingBlock: NAWXER_clean_sbu_0, # of connection points: 4
#     Node 2, Type 0, BuildingBlock: NAWXER_clean_sbu_0, # of connection points: 4
#     Node 3, Type 0, BuildingBlock: NAWXER_clean_sbu_0, # of connection points: 4
#     Node 4, Type 0, BuildingBlock: NAWXER_clean_sbu_0, # of connection points: 4
#     Node 5, Type 0, BuildingBlock: NAWXER_clean_sbu_0, # of connection points: 4
#     Node 6, Type 1, BuildingBlock: NAHDIM_clean_linker_0, # of connection points: 4
#     Node 7, Type 1, BuildingBlock: NAHDIM_clean_linker_0, # of connection points: 4
#     Node 8, Type 1, BuildingBlock: NAHDIM_clean_linker_0, # of connection points: 4
#     Node 9, Type 1, BuildingBlock: NAHDIM_clean_linker_0, # of connection points: 4
#     Node 10, Type 1, BuildingBlock: NAHDIM_clean_linker_0, # of connection points: 4
#     Node 11, Type 1, BuildingBlock: NAHDIM_clean_linker_0, # of connection points: 4
#     Edge 12, Type (0, 1), BuildingBlock: XIVTED_clean_linker_0, # of connection points: 2
#     Edge 13, Type (0, 1), BuildingBlock: XIVTED_clean_linker_0, # of connection points: 2
#     Edge 14, Type (0, 1), BuildingBlock: XIVTED_clean_linker_0, # of connection points: 2
#     Edge 15, Type (0, 1), BuildingBlock: XIVTED_clean_linker_0, # of connection points: 2
#     Edge 16, Type (0, 1), BuildingBlock: XIVTED_clean_linker_0, # of connection points: 2
#     Edge 17, Type (0, 1), BuildingBlock: XIVTED_clean_linker_0, # of connection points: 2
#     Edge 18, Type (0, 1), BuildingBlock: XIVTED_clean_linker_0, # of connection points: 2
#     Edge 19, Type (0, 1), BuildingBlock: XIVTED_clean_linker_0, # of connection points: 2
#     Edge 20, Type (0, 1), BuildingBlock: XIVTED_clean_linker_0, # of connection points: 2
#     Edge 21, Type (0, 1), BuildingBlock: XIVTED_clean_linker_0, # of connection points: 2
#     Edge 22, Type (0, 1), BuildingBlock: XIVTED_clean_linker_0, # of connection points: 2
#     Edge 23, Type (0, 1), BuildingBlock: XIVTED_clean_linker_0, # of connection points: 2
#     Edge 24, Type (0, 1), BuildingBlock: XIVTED_clean_linker_0, # of connection points: 2
#     Edge 25, Type (0, 1), BuildingBlock: XIVTED_clean_linker_0, # of connection points: 2
#     Edge 26, Type (0, 1), BuildingBlock: XIVTED_clean_linker_0, # of connection points: 2
#     Edge 27, Type (0, 1), BuildingBlock: XIVTED_clean_linker_0, # of connection points: 2
#     Edge 28, Type (0, 1), BuildingBlock: XIVTED_clean_linker_0, # of connection points: 2
#     Edge 29, Type (0, 1), BuildingBlock: XIVTED_clean_linker_0, # of connection points: 2
#     Edge 30, Type (0, 1), BuildingBlock: XIVTED_clean_linker_0, # of connection points: 2
#     Edge 31, Type (0, 1), BuildingBlock: XIVTED_clean_linker_0, # of connection points: 2
#     Edge 32, Type (0, 1), BuildingBlock: XIVTED_clean_linker_0, # of connection points: 2
#     Edge 33, Type (0, 1), BuildingBlock: XIVTED_clean_linker_0, # of connection points: 2
#     Edge 34, Type (0, 1), BuildingBlock: XIVTED_clean_linker_0, # of connection points: 2
#     Edge 35, Type (0, 1), BuildingBlock: XIVTED_clean_linker_0, # of connection points: 2
# Relax obj value: 0.028
# Max RMSD: 0.056
# Mean RMSD: 0.044
data_MOF--net-ssa--node1-NAWXER_clean_sbu_0--node2-NAHDIM_clean_linker_0--edge1-XIVTED_clean_linker_0
_symmetry_space_group_name_H-M    P1
_symmetry_Int_Tables_number       1
_symmetry_cell_setting            triclinic
loop_
_symmetry_equiv_pos_as_xyz
'x, y, z'
_cell_length_a     60.81728
_cell_length_b     60.809067
_cell_length_c     51.975546
_cell_angle_alpha  89.775278
_cell_angle_beta   90.447459
_cell_angle_gamma 119.9968
loop_
_atom_site_label
_atom_site_type_symbol
_atom_site_fract_x
_atom_site_fract_y
_atom_site_fract_z
_atom_type_partial_charge
C0 C 0.01837 0.53271 0.04825 0.0
C1 C 0.97352 0.45659 0.99549 0.0
O2 O 0.99622 0.51393 0.05181 0.0
Zn3 Zn 0.99577 0.49433 0.02239 0.0
O4 O 0.03162 0.53241 0.02932 0.0
Zn5 Zn 0.02783 0.50785 0.99788 0.0
O6 O 0.03156 0.52916 0.96864 0.0
O7 O 0.99709 0.51836 0.99138 0.0
O8 O 0.99585 0.47183 0.98697 0.0
O9 O 0.96572 0.46227 0.01561 0.0
O10 O 0.02255 0.48284 0.03291 0.0
O11 O 0.05441 0.49998 0.00551 0.0
C12 C 0.01168 0.53056 0.97255 0.0
C13 C 0.04396 0.48622 0.02512 0.0
C14 C 0.4752 0.0055 0.55328 0.0
C15 C 0.50076 0.95398 0.50461 0.0
O16 O 0.47187 0.98368 0.55876 0.0
Zn17 Zn 0.48858 0.97989 0.52923 0.0
O18 O 0.48774 0.01703 0.5331 0.0
Zn19 Zn 0.50711 0.0099 0.50255 0.0
O20 O 0.48979 0.01251 0.47255 0.0
O21 O 0.46543 0.97979 0.49739 0.0
O22 O 0.5086 0.9758 0.49417 0.0
O23 O 0.48823 0.94839 0.52539 0.0
O24 O 0.52783 0.00513 0.53717 0.0
O25 O 0.54245 0.03564 0.50807 0.0
C26 C 0.46825 0.99323 0.47725 0.0
C27 C 0.54614 0.02555 0.52783 0.0
C28 C 0.50017 0.48577 0.98157 0.0
C29 C 0.54296 0.55874 0.03908 0.0
O30 O 0.50143 0.50718 0.97904 0.0
Zn31 Zn 0.5225 0.52304 0.00905 0.0
O32 O 0.51197 0.48219 0.0002 0.0
Zn33 Zn 0.5355 0.5029 0.03233 0.0
O34 O 0.51557 0.48154 0.06033 0.0
O35 O 0.49781 0.50088 0.04013 0.0
O36 O 0.5455 0.53989 0.04607 0.0
O37 O 0.53139 0.55748 0.01818 0.0
O38 O 0.55799 0.52704 0.99748 0.0
O39 O 0.56806 0.50585 0.02516 0.0
C40 C 0.4973 0.48596 0.05797 0.0
C41 C 0.57334 0.51973 0.00526 0.0
C42 C 0.02089 0.53966 0.47131 0.0
C43 C 0.9834 0.46364 0.52523 0.0
O44 O 0.0355 0.53996 0.48932 0.0
Zn45 Zn 0.03481 0.51753 0.5209 0.0
O46 O 0.99831 0.52111 0.4695 0.0
Zn47 Zn 0.00061 0.50162 0.49841 0.0
O48 O 0.00122 0.52336 0.53088 0.0
O49 O 0.03834 0.53852 0.55037 0.0
O50 O 0.97227 0.46826 0.50693 0.0
O51 O 0.00605 0.48028 0.53181 0.0
O52 O 0.06205 0.51154 0.5123 0.0
O53 O 0.02904 0.49244 0.48598 0.0
C54 C 0.01653 0.53649 0.549 0.0
C55 C 0.05137 0.49734 0.4929 0.0
C56 C 0.54207 0.00514 0.05295 0.0
C57 C 0.5078 0.045 0.99572 0.0
O58 O 0.5455 0.0275 0.05503 0.0
Zn59 Zn 0.52471 0.02554 0.02562 0.0
O60 O 0.52783 0.99059 0.03484 0.0
Zn61 Zn 0.50575 0.99164 0.00291 0.0
O62 O 0.52282 0.98644 0.97427 0.0
O63 O 0.54654 0.02256 0.99493 0.0
O64 O 0.50132 0.02223 0.98931 0.0
O65 O 0.52108 0.05461 0.01592 0.0
O66 O 0.48761 0.99828 0.03846 0.0
O67 O 0.47132 0.9658 0.01162 0.0
C68 C 0.54392 0.00694 0.97703 0.0
C69 C 0.46925 0.97652 0.03166 0.0
C70 C 0.55664 0.51297 0.53107 0.0
C71 C 0.47526 0.46846 0.48553 0.0
O72 O 0.54037 0.51897 0.53882 0.0
Zn73 Zn 0.50184 0.50904 0.53101 0.0
O74 O 0.5506 0.49632 0.51355 0.0
Zn75 Zn 0.51636 0.4901 0.50802 0.0
O76 O 0.52315 0.5262 0.49348 0.0
O77 O 0.50598 0.54134 0.52032 0.0
O78 O 0.49463 0.46614 0.48173 0.0
O79 O 0.47611 0.48371 0.50295 0.0
O80 O 0.48437 0.49362 0.56286 0.0
O81 O 0.49854 0.47116 0.543 0.0
C82 C 0.51838 0.54375 0.49989 0.0
C83 C 0.48709 0.47423 0.56205 0.0
C84 C 0.11871 0.37833 0.43179 0.0
C85 C 0.12966 0.40201 0.4148 0.0
C86 C 0.14015 0.39624 0.37161 0.0
C87 C 0.16151 0.41959 0.36569 0.0
C88 C 0.1798 0.42095 0.34846 0.0
C89 C 0.17685 0.39834 0.33744 0.0
C90 C 0.15483 0.3748 0.34287 0.0
C91 C 0.13649 0.37414 0.35961 0.0
C92 C 0.20257 0.44649 0.3426 0.0
C93 C 0.15107 0.35031 0.33164 0.0
C94 C 0.36088 0.41178 0.3904 0.0
C95 C 0.33876 0.40227 0.37283 0.0
C96 C 0.30608 0.41297 0.36105 0.0
C97 C 0.2881 0.38882 0.35184 0.0
C98 C 0.26562 0.38486 0.33982 0.0
C99 C 0.26148 0.40563 0.33631 0.0
C100 C 0.27948 0.42988 0.34588 0.0
C101 C 0.30136 0.43309 0.35845 0.0
C102 C 0.24652 0.35861 0.33049 0.0
C103 C 0.27583 0.45251 0.34259 0.0
C104 C 0.30513 0.41371 0.17395 0.0
C105 C 0.28658 0.38928 0.18181 0.0
C106 C 0.26399 0.38524 0.19325 0.0
C107 C 0.26014 0.4061 0.1972 0.0
C108 C 0.27839 0.4305 0.18834 0.0
C109 C 0.3005 0.43387 0.17653 0.0
C110 C 0.24456 0.35883 0.20176 0.0
C111 C 0.27487 0.45318 0.19183 0.0
C112 C 0.08657 0.40869 0.18172 0.0
C113 C 0.10927 0.42126 0.16348 0.0
C114 C 0.13762 0.40416 0.17069 0.0
C115 C 0.1357 0.38067 0.17574 0.0
C116 C 0.15498 0.37908 0.18917 0.0
C117 C 0.17675 0.40162 0.19749 0.0
C118 C 0.17925 0.42548 0.19157 0.0
C119 C 0.1598 0.42652 0.17795 0.0
C120 C 0.15195 0.35337 0.19483 0.0
C121 C 0.20243 0.44992 0.19977 0.0
C122 C 0.19755 0.39918 0.32169 0.0
C123 C 0.21846 0.40063 0.33472 0.0
C124 C 0.23916 0.40246 0.32135 0.0
C125 C 0.23899 0.40255 0.29414 0.0
C126 C 0.25975 0.40495 0.2801 0.0
C127 C 0.25947 0.40499 0.25338 0.0
C128 C 0.23847 0.40275 0.23958 0.0
C129 C 0.23813 0.40292 0.21236 0.0
C130 C 0.21738 0.40164 0.19923 0.0
C131 C 0.19692 0.4004 0.21259 0.0
C132 C 0.19669 0.39972 0.23981 0.0
C133 C 0.17638 0.39841 0.25386 0.0
C134 C 0.17657 0.39821 0.28066 0.0
C135 C 0.19705 0.39922 0.29445 0.0
C136 C 0.21778 0.4007 0.28066 0.0
C137 C 0.21755 0.40085 0.25333 0.0
C138 C 0.34698 0.4038 0.19473 0.0
C139 C 0.34004 0.40492 0.16648 0.0
O140 O 0.12323 0.39467 0.38935 0.0
O141 O 0.11796 0.40453 0.1585 0.0
O142 O 0.32781 0.4189 0.164 0.0
O143 O 0.32812 0.41779 0.37262 0.0
H144 H 0.1507 0.41222 0.41744 0.0
H145 H 0.12663 0.36613 0.42595 0.0
H146 H 0.0977 0.36716 0.42985 0.0
H147 H 0.12382 0.38374 0.45229 0.0
H148 H 0.16391 0.43667 0.37477 0.0
H149 H 0.11974 0.35624 0.36426 0.0
H150 H 0.21928 0.4483 0.35322 0.0
H151 H 0.19963 0.46237 0.34851 0.0
H152 H 0.20695 0.4483 0.32174 0.0
H153 H 0.13353 0.33348 0.33879 0.0
H154 H 0.16761 0.34798 0.3365 0.0
H155 H 0.14989 0.3509 0.31036 0.0
H156 H 0.34113 0.39609 0.3534 0.0
H157 H 0.37747 0.41636 0.37746 0.0
H158 H 0.34782 0.38234 0.4214 0.0
H159 H 0.36738 0.43235 0.39479 0.0
H160 H 0.29145 0.37302 0.35404 0.0
H161 H 0.31527 0.45158 0.36586 0.0
H162 H 0.22707 0.35371 0.33637 0.0
H163 H 0.25063 0.34391 0.33805 0.0
H164 H 0.2468 0.35816 0.30916 0.0
H165 H 0.29305 0.47059 0.34811 0.0
H166 H 0.25991 0.44997 0.35489 0.0
H167 H 0.27081 0.45404 0.32232 0.0
H168 H 0.32749 0.38535 0.15908 0.0
H169 H 0.28968 0.37339 0.17928 0.0
H170 H 0.31478 0.45255 0.16999 0.0
H171 H 0.24464 0.35779 0.22308 0.0
H172 H 0.24851 0.34418 0.19393 0.0
H173 H 0.22524 0.35435 0.19554 0.0
H174 H 0.29199 0.47125 0.18625 0.0
H175 H 0.2703 0.45465 0.21217 0.0
H176 H 0.25867 0.4507 0.17974 0.0
H177 H 0.12381 0.43855 0.17361 0.0
H178 H 0.07855 0.42135 0.18487 0.0
H179 H 0.09285 0.40509 0.20062 0.0
H180 H 0.07148 0.39022 0.17397 0.0
H181 H 0.11873 0.36353 0.1696 0.0
H182 H 0.16223 0.44485 0.17279 0.0
H183 H 0.15186 0.35062 0.21597 0.0
H184 H 0.16834 0.35235 0.18697 0.0
H185 H 0.13415 0.33765 0.18651 0.0
H186 H 0.2012 0.46694 0.19424 0.0
H187 H 0.21956 0.45129 0.19081 0.0
H188 H 0.20494 0.45002 0.22096 0.0
H189 H 0.21882 0.40077 0.3556 0.0
H190 H 0.27652 0.40684 0.28957 0.0
H191 H 0.27604 0.40691 0.24372 0.0
H192 H 0.21749 0.40236 0.17837 0.0
H193 H 0.1601 0.39757 0.24429 0.0
H194 H 0.16049 0.39729 0.29044 0.0
H195 H 0.35758 0.39336 0.19648 0.0
H196 H 0.32963 0.39369 0.20661 0.0
H197 H 0.35891 0.42328 0.20259 0.0
C198 C 0.85107 0.26746 0.92767 0.0
C199 C 0.8745 0.28515 0.91157 0.0
C200 C 0.85583 0.26804 0.86911 0.0
C201 C 0.86131 0.24821 0.86769 0.0
C202 C 0.84896 0.22863 0.84956 0.0
C203 C 0.83037 0.22857 0.83295 0.0
C204 C 0.82493 0.24864 0.83433 0.0
C205 C 0.83824 0.26842 0.85198 0.0
C206 C 0.8556 0.20782 0.84842 0.0
C207 C 0.80467 0.24901 0.81765 0.0
C208 C 0.69916 0.03524 0.85511 0.0
C209 C 0.69867 0.05694 0.86953 0.0
C210 C 0.71901 0.09585 0.8433 0.0
C211 C 0.71459 0.11415 0.83198 0.0
C212 C 0.73456 0.1367 0.82195 0.0
C213 C 0.75955 0.14064 0.82256 0.0
C214 C 0.76425 0.12225 0.83407 0.0
C215 C 0.74395 0.10007 0.84447 0.0
C216 C 0.72885 0.15613 0.8104 0.0
C217 C 0.79065 0.12584 0.83497 0.0
C218 C 0.73294 0.11292 0.65621 0.0
C219 C 0.72974 0.13306 0.66451 0.0
C220 C 0.74874 0.15313 0.67886 0.0
C221 C 0.77158 0.15324 0.6846 0.0
C222 C 0.77549 0.13378 0.67487 0.0
C223 C 0.75608 0.11386 0.66062 0.0
C224 C 0.74418 0.17392 0.68838 0.0
C225 C 0.7998 0.13362 0.68031 0.0
C226 C 0.93459 0.32909 0.66909 0.0
C227 C 0.9167 0.31638 0.64613 0.0
C228 C 0.87692 0.28495 0.66695 0.0
C229 C 0.85284 0.28005 0.67423 0.0
C230 C 0.83632 0.25797 0.68779 0.0
C231 C 0.84404 0.24015 0.69396 0.0
C232 C 0.86846 0.245 0.68687 0.0
C233 C 0.88475 0.26742 0.67355 0.0
C234 C 0.81048 0.25352 0.69524 0.0
C235 C 0.87722 0.22634 0.69322 0.0
C236 C 0.8156 0.20687 0.81519 0.0
C237 C 0.79631 0.18428 0.82577 0.0
C238 C 0.78053 0.16353 0.81021 0.0
C239 C 0.78389 0.16526 0.78325 0.0
C240 C 0.76822 0.14479 0.76702 0.0
C241 C 0.77057 0.14716 0.74044 0.0
C242 C 0.78894 0.16997 0.72904 0.0
C243 C 0.7906 0.17296 0.70202 0.0
C244 C 0.80919 0.19576 0.69127 0.0
C245 C 0.8261 0.21598 0.70685 0.0
C246 C 0.82459 0.21347 0.73395 0.0
C247 C 0.84116 0.23347 0.75021 0.0
C248 C 0.8387 0.23115 0.77685 0.0
C249 C 0.81937 0.20888 0.78823 0.0
C250 C 0.80314 0.18812 0.77222 0.0
C251 C 0.80574 0.19043 0.74506 0.0
C252 C 0.68238 0.05542 0.66576 0.0
C253 C 0.68872 0.08 0.65152 0.0
O254 O 0.8668 0.28697 0.88683 0.0
O255 O 0.89173 0.30672 0.65365 0.0
O256 O 0.71398 0.09229 0.64418 0.0
O257 O 0.69863 0.07434 0.85228 0.0
H258 H 0.88763 0.27743 0.91098 0.0
H259 H 0.85664 0.26474 0.94729 0.0
H260 H 0.83816 0.27538 0.92919 0.0
H261 H 0.84048 0.24841 0.91858 0.0
H262 H 0.87527 0.24796 0.8805 0.0
H263 H 0.83425 0.28388 0.85318 0.0
H264 H 0.83983 0.19017 0.85672 0.0
H265 H 0.87324 0.21279 0.85938 0.0
H266 H 0.85805 0.20378 0.82815 0.0
H267 H 0.79969 0.2633 0.82431 0.0
H268 H 0.78719 0.23005 0.81745 0.0
H269 H 0.81157 0.25375 0.79758 0.0
H270 H 0.71581 0.06625 0.88216 0.0
H271 H 0.69779 0.02063 0.86894 0.0
H272 H 0.71722 0.04256 0.84443 0.0
H273 H 0.68329 0.02621 0.84102 0.0
H274 H 0.69532 0.11074 0.83116 0.0
H275 H 0.74768 0.08599 0.85295 0.0
H276 H 0.73087 0.15635 0.78918 0.0
H277 H 0.74257 0.17541 0.81766 0.0
H278 H 0.70929 0.15196 0.81481 0.0
H279 H 0.79099 0.10917 0.84335 0.0
H280 H 0.8032 0.14284 0.84671 0.0
H281 H 0.79864 0.12923 0.81526 0.0
H282 H 0.68499 0.09146 0.66561 0.0
H283 H 0.71234 0.13306 0.65994 0.0
H284 H 0.75854 0.09845 0.65367 0.0
H285 H 0.74499 0.17456 0.70973 0.0
H286 H 0.72551 0.17121 0.682 0.0
H287 H 0.75937 0.19256 0.68123 0.0
H288 H 0.80044 0.11783 0.67031 0.0
H289 H 0.80174 0.1317 0.70134 0.0
H290 H 0.81632 0.15192 0.67418 0.0
H291 H 0.91943 0.30084 0.63853 0.0
H292 H 0.95466 0.33674 0.66326 0.0
H293 H 0.93043 0.31514 0.68477 0.0
H294 H 0.93227 0.34486 0.67669 0.0
H295 H 0.847 0.2937 0.66917 0.0
H296 H 0.90338 0.27089 0.66832 0.0
H297 H 0.80733 0.24932 0.71613 0.0
H298 H 0.79563 0.23677 0.68468 0.0
H299 H 0.80812 0.27011 0.6908 0.0
H300 H 0.89688 0.23296 0.68662 0.0
H301 H 0.86425 0.20776 0.68404 0.0
H302 H 0.87639 0.2232 0.71433 0.0
H303 H 0.79319 0.183 0.84639 0.0
H304 H 0.75366 0.1268 0.77466 0.0
H305 H 0.75767 0.13091 0.72894 0.0
H306 H 0.81004 0.19805 0.67052 0.0
H307 H 0.85606 0.25123 0.74249 0.0
H308 H 0.8519 0.2472 0.78843 0.0
H309 H 0.68761 0.04341 0.65422 0.0
H310 H 0.6618 0.04444 0.67027 0.0
H311 H 0.69323 0.06011 0.68415 0.0
C312 C 0.63531 0.72286 0.41847 0.0
C313 C 0.60854 0.71077 0.40689 0.0
C314 C 0.60939 0.72585 0.3639 0.0
C315 C 0.58643 0.72174 0.35342 0.0
C316 C 0.58562 0.74015 0.33771 0.0
C317 C 0.60836 0.76313 0.33257 0.0
C318 C 0.63175 0.76684 0.34239 0.0
C319 C 0.632 0.74798 0.35783 0.0
C320 C 0.5604 0.73545 0.32732 0.0
C321 C 0.65631 0.79108 0.33729 0.0
C322 C 0.5578 0.88531 0.42857 0.0
C323 C 0.57031 0.87287 0.41569 0.0
C324 C 0.57727 0.86121 0.37356 0.0
C325 C 0.60197 0.86513 0.37503 0.0
C326 C 0.60972 0.85209 0.35851 0.0
C327 C 0.5921 0.83434 0.34068 0.0
C328 C 0.567 0.83015 0.33952 0.0
C329 C 0.56017 0.84424 0.35551 0.0
C330 C 0.63672 0.85737 0.36009 0.0
C331 C 0.54723 0.81067 0.32162 0.0
C332 C 0.59673 0.89248 0.18191 0.0
C333 C 0.62107 0.89952 0.19141 0.0
C334 C 0.62627 0.8812 0.20177 0.0
C335 C 0.6066 0.85554 0.2032 0.0
C336 C 0.58218 0.84845 0.19339 0.0
C337 C 0.57768 0.86702 0.18265 0.0
C338 C 0.65267 0.88928 0.21153 0.0
C339 C 0.5607 0.8213 0.19463 0.0
C340 C 0.65587 0.71573 0.15538 0.0
C341 C 0.62902 0.7118 0.15366 0.0
C342 C 0.62698 0.74989 0.16048 0.0
C343 C 0.64731 0.77422 0.16523 0.0
C344 C 0.64471 0.79073 0.18211 0.0
C345 C 0.62094 0.78285 0.19379 0.0
C346 C 0.60002 0.7585 0.18811 0.0
C347 C 0.60343 0.74212 0.1718 0.0
C348 C 0.66742 0.81648 0.18762 0.0
C349 C 0.57406 0.74977 0.19919 0.0
C350 C 0.60726 0.78424 0.31934 0.0
C351 C 0.60166 0.79976 0.33442 0.0
C352 C 0.59972 0.81978 0.32361 0.0
C353 C 0.60367 0.82471 0.29694 0.0
C354 C 0.60228 0.84496 0.28549 0.0
C355 C 0.60473 0.8488 0.25906 0.0
C356 C 0.60924 0.83288 0.24307 0.0
C357 C 0.61104 0.83623 0.21608 0.0
C358 C 0.6153 0.81993 0.20072 0.0
C359 C 0.61782 0.8002 0.21155 0.0
C360 C 0.61627 0.79666 0.23857 0.0
C361 C 0.61897 0.77721 0.25024 0.0
C362 C 0.61617 0.77315 0.27671 0.0
C363 C 0.61087 0.78858 0.29255 0.0
C364 C 0.60889 0.80882 0.28131 0.0
C365 C 0.61166 0.8129 0.25431 0.0
C366 C 0.59575 0.94781 0.15399 0.0
C367 C 0.60566 0.93567 0.17174 0.0
O368 O 0.60956 0.7087 0.38042 0.0
O369 O 0.63034 0.73399 0.14498 0.0
O370 O 0.59071 0.90944 0.1718 0.0
O371 O 0.56969 0.87393 0.38908 0.0
H372 H 0.6005 0.72323 0.41162 0.0
H373 H 0.64697 0.74266 0.4115 0.0
H374 H 0.64471 0.71193 0.41299 0.0
H375 H 0.6345 0.72345 0.4398 0.0
H376 H 0.56911 0.70437 0.35814 0.0
H377 H 0.64973 0.7507 0.36569 0.0
H378 H 0.55525 0.74857 0.33679 0.0
H379 H 0.54496 0.71563 0.3307 0.0
H380 H 0.56179 0.73942 0.30634 0.0
H381 H 0.67297 0.79077 0.34577 0.0
H382 H 0.65534 0.80742 0.34548 0.0
H383 H 0.65916 0.79425 0.31624 0.0
H384 H 0.58882 0.87673 0.42409 0.0
H385 H 0.5731 0.90097 0.44063 0.0
H386 H 0.52327 0.85296 0.44638 0.0
H387 H 0.55689 0.89871 0.41403 0.0
H388 H 0.61528 0.87872 0.38874 0.0
H389 H 0.54117 0.84154 0.35448 0.0
H390 H 0.64505 0.86058 0.34055 0.0
H391 H 0.6369 0.84062 0.36843 0.0
H392 H 0.64891 0.87417 0.37227 0.0
H393 H 0.52771 0.80597 0.32698 0.0
H394 H 0.5482 0.79291 0.32167 0.0
H395 H 0.5508 0.81824 0.3017 0.0
H396 H 0.61159 0.9443 0.19123 0.0
H397 H 0.63603 0.91918 0.19078 0.0
H398 H 0.55902 0.8618 0.17512 0.0
H399 H 0.65234 0.88741 0.2328 0.0
H400 H 0.66651 0.90925 0.20639 0.0
H401 H 0.65929 0.87669 0.20354 0.0
H402 H 0.54249 0.81917 0.1874 0.0
H403 H 0.55805 0.81432 0.21477 0.0
H404 H 0.56548 0.80906 0.18291 0.0
H405 H 0.62076 0.70706 0.17338 0.0
H406 H 0.65534 0.69828 0.16272 0.0
H407 H 0.66756 0.73155 0.16884 0.0
H408 H 0.66503 0.7205 0.13618 0.0
H409 H 0.66538 0.77997 0.15618 0.0
H410 H 0.58772 0.7233 0.16762 0.0
H411 H 0.67003 0.81975 0.20871 0.0
H412 H 0.66416 0.83145 0.17927 0.0
H413 H 0.68517 0.81856 0.17939 0.0
H414 H 0.55911 0.73235 0.18953 0.0
H415 H 0.56904 0.76493 0.19738 0.0
H416 H 0.57417 0.74555 0.21996 0.0
H417 H 0.59837 0.79595 0.35487 0.0
H418 H 0.59893 0.85789 0.29681 0.0
H419 H 0.60294 0.86439 0.25134 0.0
H420 H 0.61611 0.8223 0.17998 0.0
H421 H 0.62301 0.76471 0.23898 0.0
H422 H 0.61805 0.75766 0.28461 0.0
H423 H 0.62531 0.96472 0.12334 0.0
H424 H 0.59071 0.95956 0.16683 0.0
H425 H 0.57533 0.93336 0.14937 0.0
C426 C 0.75444 0.57664 0.92292 0.0
C427 C 0.73801 0.58636 0.91019 0.0
C428 C 0.75233 0.58735 0.86623 0.0
C429 C 0.7714 0.61287 0.86416 0.0
C430 C 0.79099 0.62039 0.84616 0.0
C431 C 0.79178 0.60189 0.83032 0.0
C432 C 0.77217 0.57619 0.83202 0.0
C433 C 0.75234 0.56942 0.84955 0.0
C434 C 0.81119 0.64803 0.84458 0.0
C435 C 0.77257 0.55567 0.81612 0.0
C436 C 0.98659 0.6658 0.85812 0.0
C437 C 0.96518 0.64311 0.87228 0.0
C438 C 0.92561 0.62452 0.84688 0.0
C439 C 0.90725 0.60171 0.83587 0.0
C440 C 0.88446 0.59891 0.8261 0.0
C441 C 0.88034 0.61984 0.82666 0.0
C442 C 0.89858 0.64287 0.83831 0.0
C443 C 0.92103 0.64496 0.84846 0.0
C444 C 0.86519 0.57383 0.81439 0.0
C445 C 0.89473 0.66551 0.83916 0.0
C446 C 0.92361 0.62954 0.66898 0.0
C447 C 0.90416 0.60539 0.67632 0.0
C448 C 0.88128 0.60202 0.68621 0.0
C449 C 0.87785 0.62327 0.68879 0.0
C450 C 0.8967 0.64729 0.67966 0.0
C451 C 0.91933 0.65006 0.6696 0.0
C452 C 0.86126 0.57595 0.69502 0.0
C453 C 0.89347 0.67024 0.68182 0.0
C454 C 0.69944 0.60315 0.66557 0.0
C455 C 0.71185 0.59968 0.64151 0.0
C456 C 0.74474 0.59245 0.6611 0.0
C457 C 0.75039 0.57365 0.66821 0.0
C458 C 0.77218 0.57951 0.68273 0.0
C459 C 0.78892 0.60497 0.69006 0.0
C460 C 0.78353 0.62421 0.68275 0.0
C461 C 0.76145 0.61778 0.66842 0.0
C462 C 0.77732 0.5585 0.69026 0.0
C463 C 0.80114 0.65157 0.6901 0.0
C464 C 0.81438 0.60899 0.81404 0.0
C465 C 0.83645 0.61262 0.82652 0.0
C466 C 0.85824 0.61829 0.81268 0.0
C467 C 0.85827 0.62058 0.78564 0.0
C468 C 0.88007 0.62662 0.77125 0.0
C469 C 0.87954 0.62717 0.74458 0.0
C470 C 0.85724 0.62183 0.7312 0.0
C471 C 0.85618 0.62088 0.70402 0.0
C472 C 0.83386 0.61586 0.69124 0.0
C473 C 0.81231 0.61148 0.70495 0.0
C474 C 0.81292 0.61205 0.7322 0.0
C475 C 0.79157 0.60751 0.74667 0.0
C476 C 0.79216 0.60714 0.7735 0.0
C477 C 0.81395 0.61085 0.78686 0.0
C478 C 0.83593 0.61634 0.77264 0.0
C479 C 0.83542 0.61697 0.74533 0.0
C480 C 0.98173 0.6456 0.69021 0.0
C481 C 0.96045 0.62423 0.67437 0.0
O482 O 0.734 0.57929 0.88444 0.0
O483 O 0.72304 0.58521 0.64735 0.0
O484 O 0.94673 0.6336 0.66159 0.0
O485 O 0.94767 0.62611 0.85486 0.0
H486 H 0.74791 0.60739 0.91184 0.0
H487 H 0.77311 0.58487 0.91321 0.0
H488 H 0.74485 0.55561 0.9216 0.0
H489 H 0.75816 0.58233 0.94347 0.0
H490 H 0.77106 0.62697 0.87653 0.0
H491 H 0.73738 0.54979 0.85123 0.0
H492 H 0.82886 0.65073 0.8539 0.0
H493 H 0.80539 0.66051 0.8544 0.0
H494 H 0.8156 0.65409 0.82418 0.0
H495 H 0.75804 0.53634 0.82247 0.0
H496 H 0.79154 0.55723 0.81726 0.0
H497 H 0.76878 0.55793 0.79566 0.0
H498 H 0.95595 0.65046 0.88541 0.0
H499 H 0.00136 0.67867 0.87204 0.0
H500 H 0.97899 0.67675 0.84805 0.0
H501 H 0.99548 0.65947 0.84353 0.0
H502 H 0.91094 0.58604 0.83482 0.0
H503 H 0.93517 0.66281 0.85678 0.0
H504 H 0.86544 0.5757 0.79313 0.0
H505 H 0.84578 0.56829 0.82101 0.0
H506 H 0.86923 0.55839 0.81932 0.0
H507 H 0.91073 0.68213 0.84883 0.0
H508 H 0.87692 0.66041 0.84954 0.0
H509 H 0.89268 0.67104 0.81927 0.0
H510 H 0.94847 0.60944 0.68868 0.0
H511 H 0.90698 0.58923 0.67473 0.0
H512 H 0.93428 0.66854 0.66336 0.0
H513 H 0.86027 0.57563 0.71635 0.0
H514 H 0.86537 0.56093 0.68874 0.0
H515 H 0.84235 0.57144 0.68743 0.0
H516 H 0.90915 0.68725 0.67244 0.0
H517 H 0.89284 0.67459 0.70245 0.0
H518 H 0.87516 0.66616 0.6729 0.0
H519 H 0.72644 0.61855 0.63409 0.0
H520 H 0.69041 0.61469 0.66097 0.0
H521 H 0.71383 0.61315 0.68089 0.0
H522 H 0.68477 0.58441 0.67316 0.0
H523 H 0.73746 0.5542 0.66248 0.0
H524 H 0.75752 0.63267 0.66306 0.0
H525 H 0.77986 0.55848 0.71145 0.0
H526 H 0.79524 0.56188 0.68125 0.0
H527 H 0.76175 0.5395 0.68423 0.0
H528 H 0.79456 0.66442 0.68251 0.0
H529 H 0.82047 0.65791 0.68264 0.0
H530 H 0.80263 0.65333 0.71138 0.0
H531 H 0.83649 0.61047 0.84725 0.0
H532 H 0.89775 0.6307 0.78042 0.0
H533 H 0.89685 0.63161 0.73462 0.0
H534 H 0.83308 0.61482 0.67039 0.0
H535 H 0.77411 0.60402 0.73739 0.0
H536 H 0.77518 0.60349 0.78365 0.0
H537 H 0.9944 0.63919 0.69873 0.0
H538 H 0.97332 0.65102 0.70616 0.0
H539 H 0.99305 0.66276 0.67824 0.0
C540 C 0.10465 0.72682 0.40895 0.0
C541 C 0.10196 0.70969 0.38616 0.0
C542 C 0.14117 0.73556 0.3612 0.0
C543 C 0.13513 0.75372 0.35211 0.0
C544 C 0.15193 0.77359 0.33602 0.0
C545 C 0.17498 0.77509 0.32862 0.0
C546 C 0.18112 0.75689 0.33782 0.0
C547 C 0.16414 0.73743 0.35407 0.0
C548 C 0.14496 0.79285 0.32664 0.0
C549 C 0.20543 0.75779 0.33012 0.0
C550 C 0.31699 0.96358 0.34779 0.0
C551 C 0.31552 0.94131 0.36318 0.0
C552 C 0.29332 0.90248 0.33694 0.0
C553 C 0.29612 0.88306 0.32612 0.0
C554 C 0.27529 0.86131 0.31572 0.0
C555 C 0.25108 0.85936 0.31538 0.0
C556 C 0.24807 0.87901 0.32615 0.0
C557 C 0.26917 0.90031 0.337 0.0
C558 C 0.27921 0.84045 0.30512 0.0
C559 C 0.22258 0.87761 0.32599 0.0
C560 C 0.27309 0.87692 0.14409 0.0
C561 C 0.27999 0.86204 0.15893 0.0
C562 C 0.26239 0.84316 0.17534 0.0
C563 C 0.23762 0.8397 0.17741 0.0
C564 C 0.23054 0.85444 0.16199 0.0
C565 C 0.24834 0.87264 0.14516 0.0
C566 C 0.27037 0.82709 0.19058 0.0
C567 C 0.20436 0.8513 0.16363 0.0
C568 C 0.0742 0.64851 0.14371 0.0
C569 C 0.0855 0.6715 0.16007 0.0
C570 C 0.1281 0.7054 0.17245 0.0
C571 C 0.15322 0.71142 0.17646 0.0
C572 C 0.17145 0.73527 0.18595 0.0
C573 C 0.16436 0.75369 0.19115 0.0
C574 C 0.13908 0.74798 0.18653 0.0
C575 C 0.12109 0.72376 0.17749 0.0
C576 C 0.19819 0.74065 0.1908 0.0
C577 C 0.13103 0.76736 0.1915 0.0
C578 C 0.1921 0.79491 0.31022 0.0
C579 C 0.21199 0.81759 0.32004 0.0
C580 C 0.22905 0.83675 0.30365 0.0
C581 C 0.22591 0.83349 0.27666 0.0
C582 C 0.242 0.85277 0.25959 0.0
C583 C 0.23954 0.84889 0.2331 0.0
C584 C 0.22104 0.82551 0.22267 0.0
C585 C 0.21925 0.82084 0.19585 0.0
C586 C 0.20033 0.7975 0.18616 0.0
C587 C 0.18317 0.77847 0.20255 0.0
C588 C 0.18486 0.78265 0.22942 0.0
C589 C 0.16815 0.76373 0.24646 0.0
C590 C 0.17024 0.76783 0.27288 0.0
C591 C 0.18933 0.79089 0.28333 0.0
C592 C 0.20629 0.81027 0.26651 0.0
C593 C 0.20395 0.8062 0.2395 0.0
C594 C 0.31002 0.93981 0.13749 0.0
C595 C 0.31257 0.91604 0.13785 0.0
O596 O 0.12571 0.71601 0.37686 0.0
O597 O 0.11141 0.68176 0.16366 0.0
O598 O 0.2902 0.89563 0.12876 0.0
O599 O 0.31442 0.92294 0.34669 0.0
H600 H 0.09043 0.71178 0.37063 0.0
H601 H 0.11416 0.74702 0.40296 0.0
H602 H 0.11612 0.72489 0.42462 0.0
H603 H 0.08563 0.72163 0.41657 0.0
H604 H 0.11742 0.75257 0.3574 0.0
H605 H 0.16862 0.72333 0.36117 0.0
H606 H 0.16039 0.8123 0.33155 0.0
H607 H 0.12694 0.78982 0.3351 0.0
H608 H 0.14294 0.79173 0.30536 0.0
H609 H 0.20756 0.74238 0.33921 0.0
H610 H 0.22196 0.77637 0.33568 0.0
H611 H 0.20585 0.75605 0.30889 0.0
H612 H 0.29819 0.93319 0.37531 0.0
H613 H 0.31905 0.97879 0.36106 0.0
H614 H 0.2994 0.95722 0.33627 0.0
H615 H 0.33329 0.97157 0.33436 0.0
H616 H 0.31479 0.88489 0.32615 0.0
H617 H 0.26666 0.91524 0.34511 0.0
H618 H 0.27771 0.84021 0.28382 0.0
H619 H 0.26431 0.82165 0.3123 0.0
H620 H 0.29813 0.84311 0.31041 0.0
H621 H 0.22382 0.89546 0.33293 0.0
H622 H 0.20928 0.86177 0.33855 0.0
H623 H 0.21443 0.87359 0.30623 0.0
H624 H 0.31615 0.91275 0.1582 0.0
H625 H 0.29912 0.86519 0.15753 0.0
H626 H 0.24326 0.8842 0.13338 0.0
H627 H 0.27299 0.83295 0.21108 0.0
H628 H 0.28849 0.82912 0.18352 0.0
H629 H 0.25544 0.80675 0.18963 0.0
H630 H 0.20265 0.86586 0.1522 0.0
H631 H 0.19969 0.85257 0.18399 0.0
H632 H 0.19012 0.83223 0.15636 0.0
H633 H 0.07498 0.67042 0.17793 0.0
H634 H 0.06046 0.63274 0.15669 0.0
H635 H 0.08814 0.64137 0.14302 0.0
H636 H 0.06203 0.66055 0.10811 0.0
H637 H 0.15843 0.69715 0.17243 0.0
H638 H 0.10168 0.71934 0.17442 0.0
H639 H 0.20368 0.74649 0.21113 0.0
H640 H 0.21157 0.75663 0.17843 0.0
H641 H 0.20037 0.7239 0.18679 0.0
H642 H 0.11143 0.76094 0.18448 0.0
H643 H 0.14429 0.7856 0.18196 0.0
H644 H 0.13184 0.77107 0.21247 0.0
H645 H 0.21449 0.82017 0.34072 0.0
H646 H 0.25679 0.87104 0.26653 0.0
H647 H 0.25255 0.86438 0.22091 0.0
H648 H 0.19921 0.79394 0.16562 0.0
H649 H 0.1533 0.74547 0.23961 0.0
H650 H 0.15686 0.75253 0.28501 0.0
H651 H 0.30642 0.94407 0.11759 0.0
H652 H 0.3276 0.9564 0.1451 0.0
H653 H 0.2939 0.9368 0.14982 0.0
C654 C 0.3708 0.06192 0.67458 0.0
C655 C 0.3916 0.08222 0.6575 0.0
C656 C 0.40982 0.12268 0.68122 0.0
C657 C 0.43236 0.14221 0.69166 0.0
C658 C 0.43372 0.16432 0.70145 0.0
C659 C 0.41161 0.16651 0.70168 0.0
C660 C 0.3887 0.14687 0.69103 0.0
C661 C 0.38811 0.1253 0.6806 0.0
C662 C 0.4588 0.18523 0.71168 0.0
C663 C 0.36475 0.14851 0.69094 0.0
C664 C 0.42157 0.34679 0.63222 0.0
C665 C 0.40923 0.32109 0.64373 0.0
C666 C 0.42096 0.2897 0.65722 0.0
C667 C 0.39777 0.27282 0.66893 0.0
C668 C 0.3954 0.2526 0.68412 0.0
C669 C 0.41687 0.24972 0.68837 0.0
C670 C 0.44008 0.26641 0.67614 0.0
C671 C 0.44167 0.28596 0.66042 0.0
C672 C 0.37007 0.23461 0.69604 0.0
C673 C 0.4634 0.26402 0.68021 0.0
C674 C 0.42321 0.31293 0.84334 0.0
C675 C 0.3999 0.29011 0.8411 0.0
C676 C 0.39898 0.26781 0.8325 0.0
C677 C 0.42178 0.26827 0.82614 0.0
C678 C 0.44529 0.29098 0.82902 0.0
C679 C 0.44565 0.31306 0.83742 0.0
C680 C 0.37358 0.24387 0.82954 0.0
C681 C 0.46996 0.29206 0.82257 0.0
C682 C 0.39612 0.08976 0.8806 0.0
C683 C 0.42278 0.11307 0.88126 0.0
C684 C 0.42118 0.15139 0.87413 0.0
C685 C 0.39955 0.15379 0.87262 0.0
C686 C 0.39833 0.17096 0.85534 0.0
C687 C 0.41964 0.18661 0.83987 0.0
C688 C 0.44199 0.18489 0.84221 0.0
C689 C 0.44234 0.167 0.8591 0.0
C690 C 0.37416 0.17214 0.85342 0.0
C691 C 0.46548 0.20185 0.82687 0.0
C692 C 0.41242 0.18916 0.71341 0.0
C693 C 0.41351 0.20799 0.697 0.0
C694 C 0.41548 0.2303 0.70679 0.0
C695 C 0.41672 0.23418 0.73371 0.0
C696 C 0.41936 0.25666 0.74421 0.0
C697 C 0.42038 0.26027 0.77066 0.0
C698 C 0.41938 0.24178 0.78771 0.0
C699 C 0.42077 0.24548 0.81464 0.0
C700 C 0.42077 0.22722 0.83106 0.0
C701 C 0.41864 0.20479 0.82133 0.0
C702 C 0.4161 0.20028 0.79446 0.0
C703 C 0.41262 0.17744 0.78402 0.0
C704 C 0.41103 0.17358 0.75752 0.0
C705 C 0.41295 0.19245 0.74041 0.0
C706 C 0.41546 0.21519 0.75055 0.0
C707 C 0.41696 0.21907 0.7776 0.0
C708 C 0.39099 0.34246 0.83834 0.0
C709 C 0.40604 0.33905 0.86032 0.0
O710 O 0.40994 0.10169 0.6724 0.0
O711 O 0.42135 0.13379 0.89004 0.0
O712 O 0.42503 0.33526 0.8506 0.0
O713 O 0.42417 0.3098 0.64285 0.0
H714 H 0.38257 0.0898 0.64416 0.0
H715 H 0.36019 0.06976 0.68458 0.0
H716 H 0.37904 0.05498 0.68949 0.0
H717 H 0.35705 0.0456 0.66266 0.0
H718 H 0.44905 0.14013 0.69193 0.0
H719 H 0.37052 0.1105 0.67244 0.0
H720 H 0.46241 0.20404 0.70474 0.0
H721 H 0.47491 0.18264 0.70587 0.0
H722 H 0.45826 0.18538 0.73301 0.0
H723 H 0.34791 0.13057 0.68443 0.0
H724 H 0.36715 0.16405 0.67789 0.0
H725 H 0.36106 0.15312 0.71053 0.0
H726 H 0.38897 0.30837 0.63822 0.0
H727 H 0.40895 0.34522 0.61544 0.0
H728 H 0.43754 0.34867 0.6197 0.0
H729 H 0.42864 0.37247 0.66583 0.0
H730 H 0.38146 0.27526 0.66623 0.0
H731 H 0.45942 0.29898 0.65113 0.0
H732 H 0.3656 0.21464 0.69372 0.0
H733 H 0.35442 0.23665 0.68739 0.0
H734 H 0.37088 0.23853 0.71696 0.0
H735 H 0.48043 0.27958 0.67076 0.0
H736 H 0.45994 0.24562 0.67229 0.0
H737 H 0.46741 0.26415 0.70111 0.0
H738 H 0.39253 0.32233 0.87191 0.0
H739 H 0.38229 0.28956 0.84547 0.0
H740 H 0.46354 0.33069 0.83924 0.0
H741 H 0.37049 0.23778 0.80909 0.0
H742 H 0.35758 0.24644 0.8358 0.0
H743 H 0.37339 0.22835 0.84104 0.0
H744 H 0.48675 0.3106 0.82776 0.0
H745 H 0.4705 0.28889 0.80162 0.0
H746 H 0.47126 0.27669 0.83283 0.0
H747 H 0.43029 0.11653 0.86124 0.0
H748 H 0.3968 0.07295 0.87331 0.0
H749 H 0.3837 0.09334 0.86754 0.0
H750 H 0.38767 0.0855 0.90013 0.0
H751 H 0.38337 0.14165 0.88452 0.0
H752 H 0.45915 0.16519 0.86075 0.0
H753 H 0.36844 0.17144 0.83296 0.0
H754 H 0.37748 0.19038 0.86163 0.0
H755 H 0.35828 0.15635 0.864 0.0
H756 H 0.4824 0.2013 0.83422 0.0
H757 H 0.46953 0.2218 0.82732 0.0
H758 H 0.46235 0.19556 0.8065 0.0
H759 H 0.41307 0.20535 0.67633 0.0
H760 H 0.42064 0.27179 0.73211 0.0
H761 H 0.42225 0.27791 0.77754 0.0
H762 H 0.42241 0.23049 0.85167 0.0
H763 H 0.41117 0.1623 0.79622 0.0
H764 H 0.40842 0.15565 0.75063 0.0
H765 H 0.38016 0.3245 0.82739 0.0
H766 H 0.37722 0.34762 0.84618 0.0
H767 H 0.40381 0.35739 0.82468 0.0
H768 H 0.09472 0.50571 0.03493 0.0
H769 H 0.07208 0.39138 0.12812 0.0
H770 H 0.02103 0.44057 0.04914 0.0
H771 H 0.13124 0.46873 0.14145 0.0
H772 H 0.05851 0.40549 0.09003 0.0
H773 H 0.11354 0.4883 0.06514 0.0
C774 C 0.08265 0.48752 0.04398 0.0
C775 C 0.05632 0.4746 0.03982 0.0
C776 C 0.07457 0.4193 0.10125 0.0
C777 C 0.07755 0.45464 0.07387 0.0
C778 C 0.08224 0.4113 0.12299 0.0
C779 C 0.10225 0.42907 0.13845 0.0
C780 C 0.08737 0.44512 0.09458 0.0
C781 C 0.11533 0.45453 0.1304 0.0
C782 C 0.09332 0.47771 0.06126 0.0
C783 C 0.0414 0.4512 0.05209 0.0
N784 N 0.10755 0.46186 0.10909 0.0
N785 N 0.05221 0.44198 0.06861 0.0
H786 H 0.57972 0.07567 0.53825 0.0
H787 H 0.67836 0.04636 0.61114 0.0
H788 H 0.5691 0.00036 0.54612 0.0
H789 H 0.6618 0.10357 0.63798 0.0
H790 H 0.6471 0.03575 0.57653 0.0
H791 H 0.61873 0.09226 0.56458 0.0
C792 C 0.58592 0.06278 0.54508 0.0
C793 C 0.57124 0.03665 0.5403 0.0
C794 C 0.6505 0.05073 0.58994 0.0
C795 C 0.61557 0.05535 0.56972 0.0
C796 C 0.66818 0.0567 0.60977 0.0
C797 C 0.67182 0.07509 0.62818 0.0
C798 C 0.63696 0.06378 0.58804 0.0
C799 C 0.65896 0.08871 0.62467 0.0
C800 C 0.60799 0.07219 0.56012 0.0
C801 C 0.57985 0.02062 0.54965 0.0
N802 N 0.6419 0.08263 0.60512 0.0
N803 N 0.60148 0.03021 0.56391 0.0
H804 H 0.55477 0.56145 0.08989 0.0
H805 H 0.62284 0.71171 0.10059 0.0
H806 H 0.55446 0.60746 0.02661 0.0
H807 H 0.59965 0.66178 0.16634 0.0
H808 H 0.59952 0.67463 0.07246 0.0
H809 H 0.5731 0.59873 0.11753 0.0
C810 C 0.55857 0.57945 0.08179 0.0
C811 C 0.55321 0.58138 0.05585 0.0
C812 C 0.59924 0.67187 0.09307 0.0
C813 C 0.5744 0.62433 0.0875 0.0
C814 C 0.61246 0.69299 0.10912 0.0
C815 C 0.61277 0.68981 0.1359 0.0
C816 C 0.58678 0.64741 0.10384 0.0
C817 C 0.59958 0.66509 0.14586 0.0
C818 C 0.56893 0.60073 0.09765 0.0
C819 C 0.55831 0.60517 0.04651 0.0
N820 N 0.58727 0.64487 0.12985 0.0
N821 N 0.56889 0.62584 0.06229 0.0
H822 H 0.96822 0.52349 0.56187 0.0
H823 H 0.00574 0.64591 0.64602 0.0
H824 H 0.04643 0.57831 0.57888 0.0
H825 H 0.93599 0.57514 0.65775 0.0
H826 H 0.01963 0.62438 0.61627 0.0
H827 H 0.95479 0.54511 0.59209 0.0
C828 C 0.98258 0.54009 0.57198 0.0
C829 C 0.00849 0.54912 0.56791 0.0
C830 C 0.00138 0.61359 0.62556 0.0
C831 C 0.99321 0.57411 0.60221 0.0
C832 C 0.99338 0.62583 0.64263 0.0
C833 C 0.9699 0.6121 0.65521 0.0
C834 C 0.98548 0.58769 0.62031 0.0
C835 C 0.95442 0.58632 0.64897 0.0
C836 C 0.97488 0.55235 0.58926 0.0
C837 C 0.02627 0.57066 0.58159 0.0
N838 N 0.96246 0.57496 0.63198 0.0
N839 N 0.01829 0.5826 0.598 0.0
H840 H 0.46512 0.98574 0.08193 0.0
H841 H 0.31454 0.90888 0.08533 0.0
H842 H 0.42076 0.93985 0.01768 0.0
H843 H 0.36162 0.93429 0.15349 0.0
H844 H 0.35245 0.9205 0.0595 0.0
H845 H 0.42683 0.96786 0.10783 0.0
C846 C 0.44727 0.97182 0.07327 0.0
C847 C 0.44609 0.96437 0.04755 0.0
C848 C 0.35438 0.92313 0.08016 0.0
C849 C 0.40199 0.9439 0.07715 0.0
C850 C 0.33278 0.91645 0.0949 0.0
C851 C 0.33493 0.92024 0.12166 0.0
C852 C 0.37831 0.93421 0.09222 0.0
C853 C 0.3591 0.93074 0.13298 0.0
C854 C 0.42541 0.96152 0.08813 0.0
C855 C 0.42247 0.94608 0.03744 0.0
N856 N 0.37983 0.93749 0.11821 0.0
N857 N 0.40123 0.93665 0.0522 0.0
H858 H 0.50625 0.44476 0.57857 0.0
H859 H 0.37246 0.3388 0.65886 0.0
H860 H 0.44437 0.4589 0.59117 0.0
H861 H 0.46137 0.34907 0.67197 0.0
H862 H 0.39824 0.38588 0.63044 0.0
H863 H 0.48738 0.4098 0.60953 0.0
C864 C 0.48876 0.44059 0.58802 0.0
C865 C 0.47683 0.45471 0.58239 0.0
C866 C 0.4089 0.37798 0.63934 0.0
C867 C 0.45502 0.41458 0.61734 0.0
C868 C 0.39297 0.34986 0.65815 0.0
C869 C 0.41378 0.33627 0.66542 0.0
C870 C 0.44238 0.3924 0.63441 0.0
C871 C 0.44901 0.35623 0.66606 0.0
C872 C 0.47809 0.42073 0.60571 0.0
C873 C 0.45422 0.44856 0.59516 0.0
N874 N 0.4593 0.38142 0.6481 0.0
N875 N 0.44377 0.42861 0.61183 0.0
H876 H 0.5113 0.92037 0.5288 0.0
H877 H 0.51714 0.84828 0.38916 0.0
H878 H 0.50433 0.94649 0.45352 0.0
H879 H 0.56934 0.85615 0.47097 0.0
H880 H 0.50126 0.8793 0.41631 0.0
H881 H 0.52309 0.89132 0.50845 0.0
C882 C 0.51205 0.9198 0.50801 0.0
C883 C 0.50688 0.93577 0.49274 0.0
C884 C 0.51385 0.87383 0.42542 0.0
C885 C 0.51983 0.90257 0.46961 0.0
C886 C 0.52224 0.85351 0.40909 0.0
C887 C 0.54874 0.85202 0.42572 0.0
C888 C 0.52661 0.88538 0.45678 0.0
C889 C 0.55502 0.85839 0.46072 0.0
C890 C 0.51891 0.90341 0.49649 0.0
C891 C 0.5083 0.93451 0.46591 0.0
N892 N 0.54477 0.87663 0.47177 0.0
N893 N 0.51438 0.91794 0.45512 0.0
H894 H 0.58089 0.5282 0.95382 0.0
H895 H 0.73005 0.59739 0.95904 0.0
H896 H 0.6196 0.52988 0.02432 0.0
H897 H 0.68873 0.55135 0.89351 0.0
H898 H 0.69001 0.5797 0.98272 0.0
H899 H 0.6208 0.54349 0.93043 0.0
C900 C 0.59781 0.53177 0.96434 0.0
C901 C 0.59703 0.52776 0.991 0.0
C902 C 0.68986 0.57352 0.96317 0.0
C903 C 0.64262 0.54571 0.96452 0.0
C904 C 0.71261 0.5836 0.94964 0.0
C905 C 0.71291 0.57585 0.92426 0.0
C906 C 0.66711 0.55606 0.95103 0.0
C907 C 0.68962 0.55805 0.91295 0.0
C908 C 0.62047 0.54038 0.95099 0.0
C909 C 0.61943 0.53259 0.00373 0.0
N910 N 0.66765 0.54896 0.92634 0.0
N911 N 0.64147 0.54167 0.99041 0.0
H912 H 0.06964 0.56844 0.45672 0.0
H913 H 0.05065 0.67474 0.38557 0.0
H914 H 0.99561 0.56036 0.44544 0.0
H915 H 0.12276 0.68285 0.4081 0.0
H916 H 0.0293 0.631 0.40227 0.0
H917 H 0.08844 0.60787 0.43258 0.0
C918 C 0.05729 0.57495 0.44894 0.0
C919 C 0.03109 0.56133 0.45334 0.0
C920 C 0.04981 0.6423 0.40321 0.0
C921 C 0.0526 0.60692 0.42592 0.0
C922 C 0.06197 0.66717 0.39367 0.0
C923 C 0.08855 0.68226 0.39492 0.0
C924 C 0.06438 0.63258 0.41416 0.0
C925 C 0.10231 0.6718 0.40618 0.0
C926 C 0.06806 0.59753 0.43518 0.0
C927 C 0.01593 0.57039 0.44247 0.0
N928 N 0.09008 0.64768 0.41525 0.0
N929 N 0.02698 0.59291 0.42949 0.0
H930 H 0.49952 0.0841 0.00917 0.0
H931 H 0.45335 0.09432 0.86708 0.0
H932 H 0.49701 0.03838 0.94471 0.0
H933 H 0.43017 0.11879 0.93423 0.0
H934 H 0.47758 0.08141 0.89474 0.0
H935 H 0.48187 0.10445 0.98127 0.0
C936 C 0.49557 0.0786 0.98912 0.0
C937 C 0.49952 0.05941 0.97925 0.0
C938 C 0.46745 0.08989 0.90343 0.0
C939 C 0.47968 0.0826 0.94742 0.0
C940 C 0.45376 0.09738 0.88764 0.0
C941 C 0.44004 0.10797 0.89832 0.0
C942 C 0.46739 0.09285 0.9302 0.0
C943 C 0.4408 0.11105 0.92518 0.0
C944 C 0.4854 0.09009 0.9733 0.0
C945 C 0.494 0.0529 0.95319 0.0
N946 N 0.45424 0.10349 0.94024 0.0
N947 N 0.48439 0.06444 0.93822 0.0
H948 H 0.43217 0.47133 0.48891 0.0
H949 H 0.34955 0.35856 0.37163 0.0
H950 H 0.46383 0.43182 0.44831 0.0
H951 H 0.31716 0.40818 0.42455 0.0
H952 H 0.39502 0.3841 0.40304 0.0
H953 H 0.3926 0.44678 0.46546 0.0
C954 C 0.43085 0.45747 0.47503 0.0
C955 C 0.45145 0.45365 0.47062 0.0
C956 C 0.37931 0.38732 0.4062 0.0
C957 C 0.40584 0.42528 0.44366 0.0
C958 C 0.35079 0.37021 0.38787 0.0
C959 C 0.32941 0.38366 0.3919 0.0
C960 C 0.38192 0.41035 0.42926 0.0
C961 C 0.33058 0.40178 0.42105 0.0
C962 C 0.40814 0.44339 0.46165 0.0
C963 C 0.44846 0.4354 0.45231 0.0
N964 N 0.35819 0.41508 0.43522 0.0
N965 N 0.42599 0.42182 0.43944 0.0
H966 H 0.97225 0.44595 0.94438 0.0
H967 H 0.89723 0.29752 0.95926 0.0
H968 H 0.93915 0.41145 0.01719 0.0
H969 H 0.8859 0.33271 0.89189 0.0
H970 H 0.9198 0.33927 0.97992 0.0
H971 H 0.94739 0.40433 0.92352 0.0
C972 C 0.95968 0.42962 0.95592 0.0
C973 C 0.9576 0.43205 0.98249 0.0
C974 C 0.91217 0.33766 0.96068 0.0
C975 C 0.92984 0.38463 0.95898 0.0
C976 C 0.89925 0.3139 0.94887 0.0
C977 C 0.88901 0.31129 0.92398 0.0
C978 C 0.91571 0.35917 0.9472 0.0
C979 C 0.89306 0.33347 0.91118 0.0
C980 C 0.94552 0.406 0.94403 0.0
C981 C 0.94109 0.41035 0.99662 0.0
N982 N 0.90625 0.35649 0.92288 0.0
N983 N 0.92806 0.38741 0.98474 0.0
H984 H 0.03268 0.55382 0.92644 0.0
H985 H 0.96003 0.63294 0.92416 0.0
H986 H 0.97804 0.5463 0.98343 0.0
H987 H 0.99197 0.62016 0.85585 0.0
H988 H 0.97259 0.60647 0.94853 0.0
H989 H 0.02342 0.58305 0.90219 0.0
C990 C 0.01873 0.55825 0.93381 0.0
C991 C 0.00601 0.54749 0.9569 0.0
C992 C 0.97706 0.60967 0.92825 0.0
C993 C 0.99571 0.58108 0.92961 0.0
C994 C 0.97004 0.62489 0.91439 0.0
C995 C 0.97527 0.62906 0.88803 0.0
C996 C 0.98944 0.59853 0.91569 0.0
C997 C 0.98798 0.61782 0.87624 0.0
C998 C 0.01348 0.5749 0.91999 0.0
C999 C 0.98817 0.55395 0.96562 0.0
N1000 N 0.99466 0.60307 0.89017 0.0
N1001 N 0.98365 0.57039 0.95204 0.0
H1002 H 0.46828 0.00989 0.42806 0.0
H1003 H 0.31707 0.93826 0.41598 0.0
H1004 H 0.41814 0.96106 0.48735 0.0
H1005 H 0.36609 0.96366 0.34981 0.0
H1006 H 0.3543 0.95138 0.4437 0.0
H1007 H 0.43127 0.99797 0.40018 0.0
C1008 C 0.44951 0.99671 0.43522 0.0
C1009 C 0.44629 0.98639 0.46003 0.0
C1010 C 0.3569 0.95417 0.42312 0.0
C1011 C 0.40399 0.9729 0.42841 0.0
C1012 C 0.33569 0.94677 0.40731 0.0
C1013 C 0.33851 0.95014 0.38058 0.0
C1014 C 0.38116 0.96518 0.41215 0.0
C1015 C 0.3631 0.96106 0.37036 0.0
C1016 C 0.42844 0.98987 0.4193 0.0
C1017 C 0.42154 0.96937 0.46832 0.0
N1018 N 0.38349 0.9683 0.38616 0.0
N1019 N 0.40134 0.96325 0.45259 0.0
H1020 H 0.48001 0.43538 0.99097 0.0
H1021 H 0.43739 0.38979 0.84769 0.0
H1022 H 0.48538 0.48787 0.93187 0.0
H1023 H 0.40372 0.34032 0.91298 0.0
H1024 H 0.4585 0.426 0.87704 0.0
H1025 H 0.45558 0.40017 0.96148 0.0
C1026 C 0.47605 0.43949 0.97174 0.0
C1027 C 0.48479 0.46459 0.96379 0.0
C1028 C 0.44619 0.40725 0.88485 0.0
C1029 C 0.45699 0.42433 0.9299 0.0
C1030 C 0.43404 0.38658 0.86814 0.0
C1031 C 0.41818 0.36202 0.87785 0.0
C1032 C 0.44309 0.40324 0.91149 0.0
C1033 C 0.4154 0.35894 0.90463 0.0
C1034 C 0.46199 0.41937 0.95499 0.0
C1035 C 0.47893 0.46879 0.93874 0.0
N1036 N 0.42783 0.37926 0.9205 0.0
N1037 N 0.46558 0.44883 0.92252 0.0
H1038 H 0.03264 0.46411 0.45246 0.0
H1039 H 0.15269 0.44358 0.44639 0.0
H1040 H 0.0988 0.50359 0.50138 0.0
H1041 H 0.08347 0.39849 0.40342 0.0
H1042 H 0.13496 0.46881 0.46347 0.0
H1043 H 0.05265 0.44298 0.43112 0.0
C1044 C 0.05145 0.46847 0.45864 0.0
C1045 C 0.064 0.48558 0.47888 0.0
C1046 C 0.12372 0.45358 0.4501 0.0
C1047 C 0.08701 0.46134 0.45447 0.0
C1048 C 0.13389 0.43927 0.44026 0.0
C1049 C 0.11968 0.41918 0.42317 0.0
C1050 C 0.09903 0.44764 0.44299 0.0
C1051 C 0.0952 0.41406 0.41624 0.0
C1052 C 0.06284 0.45634 0.44644 0.0
C1053 C 0.08835 0.49047 0.48597 0.0
N1054 N 0.08564 0.42817 0.4262 0.0
N1055 N 0.09902 0.47835 0.47384 0.0
H1056 H 0.54468 0.98537 0.93076 0.0
H1057 H 0.69614 0.06269 0.92169 0.0
H1058 H 0.5935 0.04153 0.98638 0.0
H1059 H 0.64809 0.02991 0.85495 0.0
H1060 H 0.65829 0.04922 0.94788 0.0
H1061 H 0.5822 0.99591 0.90459 0.0
C1062 C 0.56323 0.99985 0.93747 0.0
C1063 C 0.56595 0.01269 0.96069 0.0
C1064 C 0.65603 0.04481 0.92753 0.0
C1065 C 0.60875 0.02453 0.93118 0.0
C1066 C 0.67761 0.05239 0.91261 0.0
C1067 C 0.67528 0.04711 0.88616 0.0
C1068 C 0.63188 0.03176 0.91598 0.0
C1069 C 0.65075 0.03397 0.87534 0.0
C1070 C 0.58458 0.00587 0.92254 0.0
C1071 C 0.59045 0.03128 0.96851 0.0
N1072 N 0.62998 0.02667 0.89031 0.0
N1073 N 0.61087 0.03655 0.95385 0.0
H1074 H 0.5447 0.55403 0.4549 0.0
H1075 H 0.5742 0.69773 0.44613 0.0
H1076 H 0.51568 0.58691 0.50894 0.0
H1077 H 0.6061 0.66535 0.3952 0.0
H1078 H 0.54982 0.65645 0.46734 0.0
H1079 H 0.56427 0.59364 0.43071 0.0
C1080 C 0.54229 0.56953 0.46163 0.0
C1081 C 0.52861 0.56714 0.48412 0.0
C1082 C 0.56194 0.65828 0.45136 0.0
C1083 C 0.55118 0.61277 0.45643 0.0
C1084 C 0.57577 0.6818 0.43921 0.0
C1085 C 0.59187 0.68484 0.41863 0.0
C1086 C 0.56439 0.63767 0.44303 0.0
C1087 C 0.59361 0.66372 0.41073 0.0
C1088 C 0.55353 0.5922 0.44778 0.0
C1089 C 0.5261 0.5879 0.49177 0.0
N1090 N 0.58007 0.64106 0.42296 0.0
N1091 N 0.5374 0.60989 0.47802 0.0
H1092 H 0.45798 0.9935 0.6028 0.0
H1093 H 0.39607 0.0819 0.60481 0.0
H1094 H 0.46641 0.04399 0.54025 0.0
H1095 H 0.41698 0.05772 0.67441 0.0
H1096 H 0.41715 0.06386 0.57965 0.0
H1097 H 0.43813 0.01255 0.62844 0.0
C1098 C 0.45568 0.0086 0.59448 0.0
C1099 C 0.46389 0.01721 0.56938 0.0
C1100 C 0.41704 0.06246 0.60044 0.0
C1101 C 0.44096 0.03878 0.59842 0.0
C1102 C 0.40494 0.07264 0.61478 0.0
C1103 C 0.40434 0.07088 0.64173 0.0
C1104 C 0.42842 0.05022 0.6131 0.0
C1105 C 0.4165 0.05901 0.65366 0.0
C1106 C 0.44444 0.01949 0.60913 0.0
C1107 C 0.46049 0.03687 0.55957 0.0
N1108 N 0.42784 0.04892 0.63926 0.0
N1109 N 0.4491 0.04685 0.57403 0.0
H1110 H 0.48014 0.44225 0.08635 0.0
H1111 H 0.37092 0.45581 0.15489 0.0
H1112 H 0.46428 0.50244 0.06899 0.0
H1113 H 0.36475 0.38264 0.14369 0.0
H1114 H 0.40973 0.47537 0.12955 0.0
H1115 H 0.44216 0.42217 0.11359 0.0
C1116 C 0.46879 0.45131 0.08842 0.0
C1117 C 0.47529 0.47399 0.07537 0.0
C1118 C 0.39979 0.455 0.13249 0.0
C1119 C 0.43225 0.45137 0.1065 0.0
C1120 C 0.37757 0.44379 0.14685 0.0
C1121 C 0.36408 0.41738 0.15064 0.0
C1122 C 0.40907 0.43988 0.12241 0.0
C1123 C 0.37425 0.40296 0.14063 0.0
C1124 C 0.44711 0.43979 0.10381 0.0
C1125 C 0.45988 0.48488 0.07859 0.0
N1126 N 0.39618 0.41439 0.12692 0.0
N1127 N 0.43916 0.47354 0.09392 0.0
H1128 H 0.00622 0.43824 0.54299 0.0
H1129 H 0.89563 0.34688 0.63494 0.0
H1130 H 0.93324 0.43375 0.53883 0.0
H1131 H 0.95331 0.33046 0.60957 0.0
H1132 H 0.90936 0.38001 0.60197 0.0
H1133 H 0.98773 0.40001 0.56945 0.0
C1134 C 0.98619 0.42902 0.54754 0.0
C1135 C 0.9712 0.43912 0.53885 0.0
C1136 C 0.91868 0.36883 0.60338 0.0
C1137 C 0.95 0.3956 0.56948 0.0
C1138 C 0.91089 0.34993 0.62217 0.0
C1139 C 0.92311 0.33557 0.62471 0.0
C1140 C 0.93928 0.3739 0.58757 0.0
C1141 C 0.94319 0.34086 0.60804 0.0
C1142 C 0.97564 0.40716 0.56254 0.0
C1143 C 0.94535 0.42642 0.54513 0.0
N1144 N 0.95079 0.35972 0.59035 0.0
N1145 N 0.93558 0.40544 0.56048 0.0
H1146 H 0.53588 0.95764 0.05432 0.0
H1147 H 0.64843 0.99068 0.17334 0.0
H1148 H 0.57811 0.03114 0.0907 0.0
H1149 H 0.60072 0.90829 0.12002 0.0
H1150 H 0.6222 0.00954 0.14145 0.0
H1151 H 0.55905 0.9426 0.08026 0.0
C1152 C 0.54999 0.97066 0.06785 0.0
C1153 C 0.55512 0.99579 0.0702 0.0
C1154 C 0.61942 0.99074 0.13837 0.0
C1155 C 0.58192 0.97855 0.09998 0.0
C1156 C 0.63698 0.98003 0.15699 0.0
C1157 C 0.62436 0.94531 0.15289 0.0
C1158 C 0.59678 0.9699 0.11507 0.0
C1159 C 0.60663 0.92801 0.12355 0.0
C1160 C 0.56328 0.96202 0.08264 0.0
C1161 C 0.57356 0.01164 0.08824 0.0
N1162 N 0.59282 0.9417 0.10914 0.0
N1163 N 0.58642 0.00276 0.10245 0.0
H1164 H 0.58846 0.49386 0.54052 0.0
H1165 H 0.69514 0.62196 0.60683 0.0
H1166 H 0.58265 0.56135 0.54845 0.0
H1167 H 0.68229 0.54822 0.62985 0.0
H1168 H 0.65982 0.60136 0.57617 0.0
H1169 H 0.62904 0.51519 0.56443 0.0
C1170 C 0.59593 0.51325 0.54695 0.0
C1171 C 0.58221 0.52585 0.54277 0.0
C1172 C 0.66499 0.58974 0.5877 0.0
C1173 C 0.62831 0.55024 0.56958 0.0
C1174 C 0.68517 0.60147 0.60507 0.0
C1175 C 0.6919 0.58685 0.62066 0.0
C1176 C 0.65141 0.56316 0.58582 0.0
C1177 C 0.67803 0.56027 0.61795 0.0
C1178 C 0.61891 0.52531 0.56065 0.0
C1179 C 0.59255 0.5509 0.55155 0.0
N1180 N 0.65843 0.54926 0.60083 0.0
N1181 N 0.61498 0.56228 0.56451 0.0
H1182 H 0.0668 0.57267 0.04946 0.0
H1183 H 0.03196 0.66233 0.15263 0.0
H1184 H 0.99314 0.54546 0.08364 0.0
H1185 H 0.11864 0.68965 0.11093 0.0
H1186 H 0.01382 0.61523 0.12475 0.0
H1187 H 0.08269 0.61236 0.07298 0.0
C1188 C 0.05398 0.57496 0.06206 0.0
C1189 C 0.02854 0.55571 0.06448 0.0
C1190 C 0.03331 0.63031 0.12295 0.0
C1191 C 0.04664 0.60133 0.09128 0.0
C1192 C 0.04374 0.65983 0.13881 0.0
C1193 C 0.07893 0.68018 0.13809 0.0
C1194 C 0.05542 0.62575 0.10441 0.0
C1195 C 0.09842 0.67687 0.1127 0.0
C1196 C 0.06309 0.59769 0.07545 0.0
C1197 C 0.01288 0.55978 0.08121 0.0
N1198 N 0.08475 0.64856 0.10023 0.0
N1199 N 0.02216 0.58228 0.09388 0.0
loop_
_geom_bond_atom_site_label_1
_geom_bond_atom_site_label_2
_geom_bond_distance
_geom_bond_site_symmetry_2
_ccdc_geom_bond_type
C0 O2 1.247 . S
C0 O4 1.258 . S
C1 O8 1.247 . S
C1 O9 1.258 1_455 S
O2 C0 1.247 . S
O2 Zn3 2.028 . S
Zn3 O2 2.028 . S
Zn3 O7 2.035 1_454 S
Zn3 O9 2.035 1_454 S
Zn3 O10 2.028 . S
O4 C0 1.258 . S
O4 Zn5 2.035 1_554 S
Zn5 O4 2.035 1_556 S
Zn5 O6 2.028 . S
Zn5 O8 2.028 . S
Zn5 O11 2.035 1_556 S
O6 Zn5 2.028 . S
O6 C12 1.247 . S
O7 Zn3 2.035 1_656 S
O7 C12 1.258 1_655 S
O8 C1 1.247 . S
O8 Zn5 2.028 . S
O9 C1 1.258 1_655 S
O9 Zn3 2.035 1_656 S
O10 Zn3 2.028 . S
O10 C13 1.247 . S
O11 Zn5 2.035 1_554 S
O11 C13 1.258 . S
C12 O6 1.247 . S
C12 O7 1.258 1_455 S
C13 O10 1.247 . S
C13 O11 1.258 . S
C14 O16 1.247 . S
C14 O18 1.258 . S
C15 O22 1.247 1_565 S
C15 O23 1.258 . S
O16 C14 1.247 . S
O16 Zn17 2.028 1_545 S
Zn17 O16 2.028 1_565 S
Zn17 O21 2.035 . S
Zn17 O23 2.035 . S
Zn17 O24 2.028 1_565 S
O18 C14 1.258 . S
O18 Zn19 2.035 . S
Zn19 O18 2.035 . S
Zn19 O20 2.028 . S
Zn19 O22 2.028 . S
Zn19 O25 2.035 . S
O20 Zn19 2.028 . S
O20 C26 1.247 1_545 S
O21 Zn17 2.035 . S
O21 C26 1.258 . S
O22 C15 1.247 1_545 S
O22 Zn19 2.028 . S
O23 C15 1.258 . S
O23 Zn17 2.035 . S
O24 Zn17 2.028 1_545 S
O24 C27 1.247 . S
O25 Zn19 2.035 . S
O25 C27 1.258 . S
C26 O20 1.247 1_565 S
C26 O21 1.258 . S
C27 O24 1.247 . S
C27 O25 1.258 . S
C28 O30 1.247 . S
C28 O32 1.258 1_556 S
C29 O36 1.247 . S
C29 O37 1.258 . S
O30 C28 1.247 . S
O30 Zn31 2.027 1_556 S
Zn31 O30 2.027 1_554 S
Zn31 O35 2.037 . S
Zn31 O37 2.036 . S
Zn31 O38 2.027 1_554 S
O32 C28 1.258 1_554 S
O32 Zn33 2.035 . S
Zn33 O32 2.035 . S
Zn33 O34 2.028 . S
Zn33 O36 2.028 . S
Zn33 O39 2.035 . S
O34 Zn33 2.028 . S
O34 C40 1.247 . S
O35 Zn31 2.037 . S
O35 C40 1.258 . S
O36 C29 1.247 . S
O36 Zn33 2.028 . S
O37 C29 1.258 . S
O37 Zn31 2.036 . S
O38 Zn31 2.027 1_556 S
O38 C41 1.247 . S
O39 Zn33 2.035 . S
O39 C41 1.258 1_554 S
C40 O34 1.247 . S
C40 O35 1.258 . S
C41 O38 1.247 . S
C41 O39 1.258 1_556 S
C42 O44 1.247 . S
C42 O46 1.258 . S
C43 O50 1.247 . S
C43 O51 1.258 1_655 S
O44 C42 1.247 . S
O44 Zn45 2.028 . S
Zn45 O44 2.028 . S
Zn45 O49 2.035 . S
Zn45 O51 2.035 . S
Zn45 O52 2.028 . S
O46 C42 1.258 . S
O46 Zn47 2.035 1_455 S
Zn47 O46 2.035 1_655 S
Zn47 O48 2.028 . S
Zn47 O50 2.028 . S
Zn47 O53 2.035 1_655 S
O48 Zn47 2.028 . S
O48 C54 1.247 . S
O49 Zn45 2.035 . S
O49 C54 1.258 1_455 S
O50 C43 1.247 . S
O50 Zn47 2.028 . S
O51 C43 1.258 1_455 S
O51 Zn45 2.035 . S
O52 Zn45 2.028 . S
O52 C55 1.247 . S
O53 Zn47 2.035 1_455 S
O53 C55 1.258 . S
C54 O48 1.247 . S
C54 O49 1.258 1_655 S
C55 O52 1.247 . S
C55 O53 1.258 . S
C56 O58 1.247 1_565 S
C56 O60 1.258 . S
C57 O64 1.247 . S
C57 O65 1.258 1_556 S
O58 C56 1.247 1_545 S
O58 Zn59 2.028 . S
Zn59 O58 2.028 . S
Zn59 O63 2.035 . S
Zn59 O65 2.035 . S
Zn59 O66 2.028 . S
O60 C56 1.258 . S
O60 Zn61 2.019 1_554 S
Zn61 O60 2.019 1_556 S
Zn61 O62 2.039 1_565 S
Zn61 O64 2.039 1_565 S
Zn61 O67 2.019 1_556 S
O62 Zn61 2.039 1_545 S
O62 C68 1.247 . S
O63 Zn59 2.035 . S
O63 C68 1.258 1_554 S
O64 C57 1.247 . S
O64 Zn61 2.039 1_545 S
O65 C57 1.258 1_554 S
O65 Zn59 2.035 . S
O66 Zn59 2.028 . S
O66 C69 1.247 1_545 S
O67 Zn61 2.019 1_554 S
O67 C69 1.258 . S
C68 O62 1.247 . S
C68 O63 1.258 1_556 S
C69 O66 1.247 1_565 S
C69 O67 1.258 . S
C70 O72 1.247 . S
C70 O74 1.258 . S
C71 O78 1.247 . S
C71 O79 1.258 . S
O72 C70 1.247 . S
O72 Zn73 2.028 . S
Zn73 O72 2.028 . S
Zn73 O77 2.035 . S
Zn73 O79 2.035 . S
Zn73 O80 2.028 . S
O74 C70 1.258 . S
O74 Zn75 2.035 . S
Zn75 O74 2.035 . S
Zn75 O76 2.028 . S
Zn75 O78 2.028 . S
Zn75 O81 2.035 . S
O76 Zn75 2.028 . S
O76 C82 1.247 . S
O77 Zn73 2.035 . S
O77 C82 1.258 . S
O78 C71 1.247 . S
O78 Zn75 2.028 . S
O79 C71 1.258 . S
O79 Zn73 2.035 . S
O80 Zn73 2.028 . S
O80 C83 1.247 . S
O81 Zn75 2.035 . S
O81 C83 1.258 . S
C82 O76 1.247 . S
C82 O77 1.258 . S
C83 O80 1.247 . S
C83 O81 1.258 . S
C84 C85 1.560 . S
C84 H145 0.959 . S
C84 H146 0.959 . S
C84 H147 0.960 . S
C85 C84 1.560 . S
C85 O140 1.426 . S
C85 H144 0.980 . S
C86 C87 1.407 . S
C86 C91 1.418 . S
C86 O140 1.334 . S
C87 C86 1.407 . S
C87 C88 1.360 . S
C87 H148 0.929 . S
C88 C87 1.360 . S
C88 C89 1.401 . S
C88 C92 1.527 . S
C89 C88 1.401 . S
C89 C90 1.405 . S
C89 C122 1.587 . S
C90 C89 1.405 . S
C90 C91 1.332 . S
C90 C93 1.496 . S
C91 C86 1.418 . S
C91 C90 1.332 . S
C91 H149 0.929 . S
C92 C88 1.527 . S
C92 H150 0.959 . S
C92 H151 0.961 . S
C92 H152 0.961 . S
C93 C90 1.496 . S
C93 H153 0.960 . S
C93 H154 0.960 . S
C93 H155 0.961 . S
C94 C95 1.517 . S
C94 H157 0.961 . S
C94 H158 0.960 . S
C94 H159 0.959 . S
C95 C94 1.517 . S
C95 O143 1.468 . S
C95 H156 0.980 . S
C96 C97 1.349 . S
C96 C101 1.367 . S
C96 O143 1.408 . S
C97 C96 1.349 . S
C97 C98 1.407 . S
C97 H160 0.930 . S
C98 C97 1.407 . S
C98 C99 1.449 . S
C98 C102 1.535 . S
C99 C98 1.449 . S
C99 C100 1.384 . S
C99 C124 1.553 . S
C100 C99 1.384 . S
C100 C101 1.364 . S
C100 C103 1.450 . S
C101 C96 1.367 . S
C101 C100 1.364 . S
C101 H161 0.931 . S
C102 C98 1.535 . S
C102 H162 0.959 . S
C102 H163 0.961 . S
C102 H164 0.959 . S
C103 C100 1.450 . S
C103 H165 0.960 . S
C103 H166 0.960 . S
C103 H167 0.960 . S
C104 C105 1.309 . S
C104 C109 1.304 . S
C104 O142 1.435 . S
C105 C104 1.309 . S
C105 C106 1.476 . S
C105 H169 0.930 . S
C106 C105 1.476 . S
C106 C107 1.400 . S
C106 C110 1.567 . S
C107 C106 1.400 . S
C107 C108 1.373 . S
C107 C129 1.432 . S
C108 C107 1.373 . S
C108 C109 1.339 . S
C108 C111 1.530 . S
C109 C104 1.304 . S
C109 C108 1.339 . S
C109 H170 0.930 . S
C110 C106 1.567 . S
C110 H171 0.961 . S
C110 H172 0.960 . S
C110 H173 0.958 . S
C111 C108 1.530 . S
C111 H174 0.961 . S
C111 H175 0.960 . S
C111 H176 0.960 . S
C112 C113 1.530 . S
C112 H178 0.961 . S
C112 H179 0.961 . S
C112 H180 0.959 . S
C113 C112 1.530 . S
C113 O141 1.412 . S
C113 H177 0.980 . S
C114 C115 1.288 . S
C114 C119 1.377 . S
C114 O141 1.393 . S
C115 C114 1.288 . S
C115 C116 1.369 . S
C115 H181 0.932 . S
C116 C115 1.369 . S
C116 C117 1.398 . S
C116 C120 1.527 . S
C117 C116 1.398 . S
C117 C118 1.380 . S
C117 C131 1.497 . S
C118 C117 1.380 . S
C118 C119 1.383 . S
C118 C121 1.603 . S
C119 C114 1.377 . S
C119 C118 1.383 . S
C119 H182 0.929 . S
C120 C116 1.527 . S
C120 H183 0.961 . S
C120 H184 0.959 . S
C120 H185 0.959 . S
C121 C118 1.603 . S
C121 H186 0.960 . S
C121 H187 0.962 . S
C121 H188 0.961 . S
C122 C89 1.587 . S
C122 C123 1.360 . S
C122 C135 1.412 . S
C123 C122 1.360 . S
C123 C124 1.365 . S
C123 H189 0.929 . S
C124 C99 1.553 . S
C124 C123 1.365 . S
C124 C125 1.404 . S
C125 C124 1.404 . S
C125 C126 1.395 . S
C125 C136 1.451 . S
C126 C125 1.395 . S
C126 C127 1.322 . S
C126 H190 0.930 . S
C127 C126 1.322 . S
C127 C128 1.459 . S
C127 H191 0.929 . S
C128 C127 1.459 . S
C128 C129 1.445 . S
C128 C137 1.395 . S
C129 C107 1.432 . S
C129 C128 1.445 . S
C129 C130 1.370 . S
C130 C129 1.370 . S
C130 C131 1.438 . S
C130 H192 0.930 . S
C131 C117 1.497 . S
C131 C130 1.438 . S
C131 C132 1.360 . S
C132 C131 1.360 . S
C132 C133 1.401 . S
C132 C137 1.446 . S
C133 C132 1.401 . S
C133 C134 1.347 . S
C133 H193 0.929 . S
C134 C133 1.347 . S
C134 C135 1.455 . S
C134 H194 0.930 . S
C135 C122 1.412 . S
C135 C134 1.455 . S
C135 C136 1.331 . S
C136 C125 1.451 . S
C136 C135 1.331 . S
C136 C137 1.497 . S
C137 C128 1.395 . S
C137 C132 1.446 . S
C137 C136 1.497 . S
C138 C139 1.582 . S
C138 H195 0.962 . S
C138 H196 0.959 . S
C138 H197 0.958 . S
C139 C138 1.582 . S
C139 O142 1.458 . S
C139 H168 0.980 . S
O140 C85 1.426 . S
O140 C86 1.334 . S
O141 C113 1.412 . S
O141 C114 1.393 . S
O142 C104 1.435 . S
O142 C139 1.458 . S
O143 C95 1.468 . S
O143 C96 1.408 . S
H144 C85 0.980 . S
H145 C84 0.959 . S
H146 C84 0.959 . S
H147 C84 0.960 . S
H148 C87 0.929 . S
H149 C91 0.929 . S
H150 C92 0.959 . S
H151 C92 0.961 . S
H152 C92 0.961 . S
H153 C93 0.960 . S
H154 C93 0.960 . S
H155 C93 0.961 . S
H156 C95 0.980 . S
H157 C94 0.961 . S
H158 C94 0.960 . S
H159 C94 0.959 . S
H160 C97 0.930 . S
H161 C101 0.931 . S
H162 C102 0.959 . S
H163 C102 0.961 . S
H164 C102 0.959 . S
H165 C103 0.960 . S
H166 C103 0.960 . S
H167 C103 0.960 . S
H168 C139 0.980 . S
H169 C105 0.930 . S
H170 C109 0.930 . S
H171 C110 0.961 . S
H172 C110 0.960 . S
H173 C110 0.958 . S
H174 C111 0.961 . S
H175 C111 0.960 . S
H176 C111 0.960 . S
H177 C113 0.980 . S
H178 C112 0.961 . S
H179 C112 0.961 . S
H180 C112 0.959 . S
H181 C115 0.932 . S
H182 C119 0.929 . S
H183 C120 0.961 . S
H184 C120 0.959 . S
H185 C120 0.959 . S
H186 C121 0.960 . S
H187 C121 0.962 . S
H188 C121 0.961 . S
H189 C123 0.929 . S
H190 C126 0.930 . S
H191 C127 0.929 . S
H192 C130 0.930 . S
H193 C133 0.929 . S
H194 C134 0.930 . S
H195 C138 0.962 . S
H196 C138 0.959 . S
H197 C138 0.958 . S
C198 C199 1.560 . S
C198 H259 0.959 . S
C198 H260 0.959 . S
C198 H261 0.960 . S
C199 C198 1.560 . S
C199 O254 1.426 . S
C199 H258 0.980 . S
C200 C201 1.407 . S
C200 C205 1.418 . S
C200 O254 1.334 . S
C201 C200 1.407 . S
C201 C202 1.360 . S
C201 H262 0.929 . S
C202 C201 1.360 . S
C202 C203 1.401 . S
C202 C206 1.527 . S
C203 C202 1.401 . S
C203 C204 1.405 . S
C203 C236 1.587 . S
C204 C203 1.405 . S
C204 C205 1.332 . S
C204 C207 1.496 . S
C205 C200 1.418 . S
C205 C204 1.332 . S
C205 H263 0.929 . S
C206 C202 1.527 . S
C206 H264 0.959 . S
C206 H265 0.961 . S
C206 H266 0.961 . S
C207 C204 1.496 . S
C207 H267 0.960 . S
C207 H268 0.960 . S
C207 H269 0.961 . S
C208 C209 1.517 . S
C208 H271 0.961 . S
C208 H272 0.960 . S
C208 H273 0.959 . S
C209 C208 1.517 . S
C209 O257 1.468 . S
C209 H270 0.980 . S
C210 C211 1.349 . S
C210 C215 1.367 . S
C210 O257 1.408 . S
C211 C210 1.349 . S
C211 C212 1.407 . S
C211 H274 0.930 . S
C212 C211 1.407 . S
C212 C213 1.449 . S
C212 C216 1.535 . S
C213 C212 1.449 . S
C213 C214 1.384 . S
C213 C238 1.553 . S
C214 C213 1.384 . S
C214 C215 1.364 . S
C214 C217 1.450 . S
C215 C210 1.367 . S
C215 C214 1.364 . S
C215 H275 0.931 . S
C216 C212 1.535 . S
C216 H276 0.959 . S
C216 H277 0.961 . S
C216 H278 0.959 . S
C217 C214 1.450 . S
C217 H279 0.960 . S
C217 H280 0.960 . S
C217 H281 0.960 . S
C218 C219 1.309 . S
C218 C223 1.304 . S
C218 O256 1.435 . S
C219 C218 1.309 . S
C219 C220 1.476 . S
C219 H283 0.930 . S
C220 C219 1.476 . S
C220 C221 1.400 . S
C220 C224 1.567 . S
C221 C220 1.400 . S
C221 C222 1.373 . S
C221 C243 1.432 . S
C222 C221 1.373 . S
C222 C223 1.339 . S
C222 C225 1.530 . S
C223 C218 1.304 . S
C223 C222 1.339 . S
C223 H284 0.930 . S
C224 C220 1.567 . S
C224 H285 0.961 . S
C224 H286 0.960 . S
C224 H287 0.958 . S
C225 C222 1.530 . S
C225 H288 0.961 . S
C225 H289 0.960 . S
C225 H290 0.960 . S
C226 C227 1.530 . S
C226 H292 0.961 . S
C226 H293 0.961 . S
C226 H294 0.959 . S
C227 C226 1.530 . S
C227 O255 1.412 . S
C227 H291 0.980 . S
C228 C229 1.288 . S
C228 C233 1.377 . S
C228 O255 1.393 . S
C229 C228 1.288 . S
C229 C230 1.369 . S
C229 H295 0.932 . S
C230 C229 1.369 . S
C230 C231 1.398 . S
C230 C234 1.527 . S
C231 C230 1.398 . S
C231 C232 1.380 . S
C231 C245 1.497 . S
C232 C231 1.380 . S
C232 C233 1.383 . S
C232 C235 1.603 . S
C233 C228 1.377 . S
C233 C232 1.383 . S
C233 H296 0.929 . S
C234 C230 1.527 . S
C234 H297 0.961 . S
C234 H298 0.959 . S
C234 H299 0.959 . S
C235 C232 1.603 . S
C235 H300 0.960 . S
C235 H301 0.962 . S
C235 H302 0.961 . S
C236 C203 1.587 . S
C236 C237 1.360 . S
C236 C249 1.412 . S
C237 C236 1.360 . S
C237 C238 1.365 . S
C237 H303 0.929 . S
C238 C213 1.553 . S
C238 C237 1.365 . S
C238 C239 1.404 . S
C239 C238 1.404 . S
C239 C240 1.395 . S
C239 C250 1.451 . S
C240 C239 1.395 . S
C240 C241 1.322 . S
C240 H304 0.930 . S
C241 C240 1.322 . S
C241 C242 1.459 . S
C241 H305 0.929 . S
C242 C241 1.459 . S
C242 C243 1.445 . S
C242 C251 1.395 . S
C243 C221 1.432 . S
C243 C242 1.445 . S
C243 C244 1.370 . S
C244 C243 1.370 . S
C244 C245 1.438 . S
C244 H306 0.930 . S
C245 C231 1.497 . S
C245 C244 1.438 . S
C245 C246 1.360 . S
C246 C245 1.360 . S
C246 C247 1.401 . S
C246 C251 1.446 . S
C247 C246 1.401 . S
C247 C248 1.347 . S
C247 H307 0.929 . S
C248 C247 1.347 . S
C248 C249 1.455 . S
C248 H308 0.930 . S
C249 C236 1.412 . S
C249 C248 1.455 . S
C249 C250 1.331 . S
C250 C239 1.451 . S
C250 C249 1.331 . S
C250 C251 1.497 . S
C251 C242 1.395 . S
C251 C246 1.446 . S
C251 C250 1.497 . S
C252 C253 1.582 . S
C252 H309 0.962 . S
C252 H310 0.959 . S
C252 H311 0.958 . S
C253 C252 1.582 . S
C253 O256 1.458 . S
C253 H282 0.980 . S
O254 C199 1.426 . S
O254 C200 1.334 . S
O255 C227 1.412 . S
O255 C228 1.393 . S
O256 C218 1.435 . S
O256 C253 1.458 . S
O257 C209 1.468 . S
O257 C210 1.408 . S
H258 C199 0.980 . S
H259 C198 0.959 . S
H260 C198 0.959 . S
H261 C198 0.960 . S
H262 C201 0.929 . S
H263 C205 0.929 . S
H264 C206 0.959 . S
H265 C206 0.961 . S
H266 C206 0.961 . S
H267 C207 0.960 . S
H268 C207 0.960 . S
H269 C207 0.961 . S
H270 C209 0.980 . S
H271 C208 0.961 . S
H272 C208 0.960 . S
H273 C208 0.959 . S
H274 C211 0.930 . S
H275 C215 0.931 . S
H276 C216 0.959 . S
H277 C216 0.961 . S
H278 C216 0.959 . S
H279 C217 0.960 . S
H280 C217 0.960 . S
H281 C217 0.960 . S
H282 C253 0.980 . S
H283 C219 0.930 . S
H284 C223 0.930 . S
H285 C224 0.961 . S
H286 C224 0.960 . S
H287 C224 0.958 . S
H288 C225 0.961 . S
H289 C225 0.960 . S
H290 C225 0.960 . S
H291 C227 0.980 . S
H292 C226 0.961 . S
H293 C226 0.961 . S
H294 C226 0.959 . S
H295 C229 0.932 . S
H296 C233 0.929 . S
H297 C234 0.961 . S
H298 C234 0.959 . S
H299 C234 0.959 . S
H300 C235 0.960 . S
H301 C235 0.962 . S
H302 C235 0.961 . S
H303 C237 0.929 . S
H304 C240 0.930 . S
H305 C241 0.929 . S
H306 C244 0.930 . S
H307 C247 0.929 . S
H308 C248 0.930 . S
H309 C252 0.962 . S
H310 C252 0.959 . S
H311 C252 0.958 . S
C312 C313 1.560 . S
C312 H373 0.959 . S
C312 H374 0.959 . S
C312 H375 0.960 . S
C313 C312 1.560 . S
C313 O368 1.426 . S
C313 H372 0.980 . S
C314 C315 1.407 . S
C314 C319 1.418 . S
C314 O368 1.334 . S
C315 C314 1.407 . S
C315 C316 1.360 . S
C315 H376 0.929 . S
C316 C315 1.360 . S
C316 C317 1.401 . S
C316 C320 1.527 . S
C317 C316 1.401 . S
C317 C318 1.405 . S
C317 C350 1.587 . S
C318 C317 1.405 . S
C318 C319 1.332 . S
C318 C321 1.496 . S
C319 C314 1.418 . S
C319 C318 1.332 . S
C319 H377 0.929 . S
C320 C316 1.527 . S
C320 H378 0.959 . S
C320 H379 0.961 . S
C320 H380 0.961 . S
C321 C318 1.496 . S
C321 H381 0.960 . S
C321 H382 0.960 . S
C321 H383 0.961 . S
C322 C323 1.517 . S
C322 H385 0.961 . S
C322 H386 0.960 . S
C322 H387 0.959 . S
C323 C322 1.517 . S
C323 O371 1.468 . S
C323 H384 0.980 . S
C324 C325 1.349 . S
C324 C329 1.367 . S
C324 O371 1.408 . S
C325 C324 1.349 . S
C325 C326 1.407 . S
C325 H388 0.930 . S
C326 C325 1.407 . S
C326 C327 1.449 . S
C326 C330 1.535 . S
C327 C326 1.449 . S
C327 C328 1.384 . S
C327 C352 1.553 . S
C328 C327 1.384 . S
C328 C329 1.364 . S
C328 C331 1.450 . S
C329 C324 1.367 . S
C329 C328 1.364 . S
C329 H389 0.931 . S
C330 C326 1.535 . S
C330 H390 0.959 . S
C330 H391 0.961 . S
C330 H392 0.959 . S
C331 C328 1.450 . S
C331 H393 0.960 . S
C331 H394 0.960 . S
C331 H395 0.960 . S
C332 C333 1.309 . S
C332 C337 1.304 . S
C332 O370 1.435 . S
C333 C332 1.309 . S
C333 C334 1.476 . S
C333 H397 0.930 . S
C334 C333 1.476 . S
C334 C335 1.400 . S
C334 C338 1.567 . S
C335 C334 1.400 . S
C335 C336 1.373 . S
C335 C357 1.432 . S
C336 C335 1.373 . S
C336 C337 1.339 . S
C336 C339 1.530 . S
C337 C332 1.304 . S
C337 C336 1.339 . S
C337 H398 0.930 . S
C338 C334 1.567 . S
C338 H399 0.961 . S
C338 H400 0.960 . S
C338 H401 0.958 . S
C339 C336 1.530 . S
C339 H402 0.961 . S
C339 H403 0.960 . S
C339 H404 0.960 . S
C340 C341 1.530 . S
C340 H406 0.961 . S
C340 H407 0.961 . S
C340 H408 0.959 . S
C341 C340 1.530 . S
C341 O369 1.412 . S
C341 H405 0.980 . S
C342 C343 1.288 . S
C342 C347 1.377 . S
C342 O369 1.393 . S
C343 C342 1.288 . S
C343 C344 1.369 . S
C343 H409 0.932 . S
C344 C343 1.369 . S
C344 C345 1.398 . S
C344 C348 1.527 . S
C345 C344 1.398 . S
C345 C346 1.380 . S
C345 C359 1.497 . S
C346 C345 1.380 . S
C346 C347 1.383 . S
C346 C349 1.603 . S
C347 C342 1.377 . S
C347 C346 1.383 . S
C347 H410 0.929 . S
C348 C344 1.527 . S
C348 H411 0.961 . S
C348 H412 0.959 . S
C348 H413 0.959 . S
C349 C346 1.603 . S
C349 H414 0.960 . S
C349 H415 0.962 . S
C349 H416 0.961 . S
C350 C317 1.587 . S
C350 C351 1.360 . S
C350 C363 1.412 . S
C351 C350 1.360 . S
C351 C352 1.365 . S
C351 H417 0.929 . S
C352 C327 1.553 . S
C352 C351 1.365 . S
C352 C353 1.404 . S
C353 C352 1.404 . S
C353 C354 1.395 . S
C353 C364 1.451 . S
C354 C353 1.395 . S
C354 C355 1.322 . S
C354 H418 0.930 . S
C355 C354 1.322 . S
C355 C356 1.459 . S
C355 H419 0.929 . S
C356 C355 1.459 . S
C356 C357 1.445 . S
C356 C365 1.395 . S
C357 C335 1.432 . S
C357 C356 1.445 . S
C357 C358 1.370 . S
C358 C357 1.370 . S
C358 C359 1.438 . S
C358 H420 0.930 . S
C359 C345 1.497 . S
C359 C358 1.438 . S
C359 C360 1.360 . S
C360 C359 1.360 . S
C360 C361 1.401 . S
C360 C365 1.446 . S
C361 C360 1.401 . S
C361 C362 1.347 . S
C361 H421 0.929 . S
C362 C361 1.347 . S
C362 C363 1.455 . S
C362 H422 0.930 . S
C363 C350 1.412 . S
C363 C362 1.455 . S
C363 C364 1.331 . S
C364 C353 1.451 . S
C364 C363 1.331 . S
C364 C365 1.497 . S
C365 C356 1.395 . S
C365 C360 1.446 . S
C365 C364 1.497 . S
C366 C367 1.582 . S
C366 H423 0.962 . S
C366 H424 0.959 . S
C366 H425 0.958 . S
C367 C366 1.582 . S
C367 O370 1.458 . S
C367 H396 0.980 . S
O368 C313 1.426 . S
O368 C314 1.334 . S
O369 C341 1.412 . S
O369 C342 1.393 . S
O370 C332 1.435 . S
O370 C367 1.458 . S
O371 C323 1.468 . S
O371 C324 1.408 . S
H372 C313 0.980 . S
H373 C312 0.959 . S
H374 C312 0.959 . S
H375 C312 0.960 . S
H376 C315 0.929 . S
H377 C319 0.929 . S
H378 C320 0.959 . S
H379 C320 0.961 . S
H380 C320 0.961 . S
H381 C321 0.960 . S
H382 C321 0.960 . S
H383 C321 0.961 . S
H384 C323 0.980 . S
H385 C322 0.961 . S
H386 C322 0.960 . S
H387 C322 0.959 . S
H388 C325 0.930 . S
H389 C329 0.931 . S
H390 C330 0.959 . S
H391 C330 0.961 . S
H392 C330 0.959 . S
H393 C331 0.960 . S
H394 C331 0.960 . S
H395 C331 0.960 . S
H396 C367 0.980 . S
H397 C333 0.930 . S
H398 C337 0.930 . S
H399 C338 0.961 . S
H400 C338 0.960 . S
H401 C338 0.958 . S
H402 C339 0.961 . S
H403 C339 0.960 . S
H404 C339 0.960 . S
H405 C341 0.980 . S
H406 C340 0.961 . S
H407 C340 0.961 . S
H408 C340 0.959 . S
H409 C343 0.932 . S
H410 C347 0.929 . S
H411 C348 0.961 . S
H412 C348 0.959 . S
H413 C348 0.959 . S
H414 C349 0.960 . S
H415 C349 0.962 . S
H416 C349 0.961 . S
H417 C351 0.929 . S
H418 C354 0.930 . S
H419 C355 0.929 . S
H420 C358 0.930 . S
H421 C361 0.929 . S
H422 C362 0.930 . S
H423 C366 0.962 . S
H424 C366 0.959 . S
H425 C366 0.958 . S
C426 C427 1.560 . S
C426 H487 0.959 . S
C426 H488 0.959 . S
C426 H489 0.960 . S
C427 C426 1.560 . S
C427 O482 1.426 . S
C427 H486 0.980 . S
C428 C429 1.407 . S
C428 C433 1.418 . S
C428 O482 1.334 . S
C429 C428 1.407 . S
C429 C430 1.360 . S
C429 H490 0.929 . S
C430 C429 1.360 . S
C430 C431 1.401 . S
C430 C434 1.527 . S
C431 C430 1.401 . S
C431 C432 1.405 . S
C431 C464 1.587 . S
C432 C431 1.405 . S
C432 C433 1.332 . S
C432 C435 1.496 . S
C433 C428 1.418 . S
C433 C432 1.332 . S
C433 H491 0.929 . S
C434 C430 1.527 . S
C434 H492 0.959 . S
C434 H493 0.961 . S
C434 H494 0.961 . S
C435 C432 1.496 . S
C435 H495 0.960 . S
C435 H496 0.960 . S
C435 H497 0.961 . S
C436 C437 1.517 . S
C436 H499 0.961 . S
C436 H500 0.960 . S
C436 H501 0.959 . S
C437 C436 1.517 . S
C437 O485 1.468 . S
C437 H498 0.980 . S
C438 C439 1.349 . S
C438 C443 1.367 . S
C438 O485 1.408 . S
C439 C438 1.349 . S
C439 C440 1.407 . S
C439 H502 0.930 . S
C440 C439 1.407 . S
C440 C441 1.449 . S
C440 C444 1.535 . S
C441 C440 1.449 . S
C441 C442 1.384 . S
C441 C466 1.553 . S
C442 C441 1.384 . S
C442 C443 1.364 . S
C442 C445 1.450 . S
C443 C438 1.367 . S
C443 C442 1.364 . S
C443 H503 0.931 . S
C444 C440 1.535 . S
C444 H504 0.959 . S
C444 H505 0.961 . S
C444 H506 0.959 . S
C445 C442 1.450 . S
C445 H507 0.960 . S
C445 H508 0.960 . S
C445 H509 0.960 . S
C446 C447 1.309 . S
C446 C451 1.304 . S
C446 O484 1.435 . S
C447 C446 1.309 . S
C447 C448 1.476 . S
C447 H511 0.930 . S
C448 C447 1.476 . S
C448 C449 1.400 . S
C448 C452 1.567 . S
C449 C448 1.400 . S
C449 C450 1.373 . S
C449 C471 1.432 . S
C450 C449 1.373 . S
C450 C451 1.339 . S
C450 C453 1.530 . S
C451 C446 1.304 . S
C451 C450 1.339 . S
C451 H512 0.930 . S
C452 C448 1.567 . S
C452 H513 0.961 . S
C452 H514 0.960 . S
C452 H515 0.958 . S
C453 C450 1.530 . S
C453 H516 0.961 . S
C453 H517 0.960 . S
C453 H518 0.960 . S
C454 C455 1.530 . S
C454 H520 0.961 . S
C454 H521 0.961 . S
C454 H522 0.959 . S
C455 C454 1.530 . S
C455 O483 1.412 . S
C455 H519 0.980 . S
C456 C457 1.288 . S
C456 C461 1.377 . S
C456 O483 1.393 . S
C457 C456 1.288 . S
C457 C458 1.369 . S
C457 H523 0.932 . S
C458 C457 1.369 . S
C458 C459 1.398 . S
C458 C462 1.527 . S
C459 C458 1.398 . S
C459 C460 1.380 . S
C459 C473 1.497 . S
C460 C459 1.380 . S
C460 C461 1.383 . S
C460 C463 1.603 . S
C461 C456 1.377 . S
C461 C460 1.383 . S
C461 H524 0.929 . S
C462 C458 1.527 . S
C462 H525 0.961 . S
C462 H526 0.959 . S
C462 H527 0.959 . S
C463 C460 1.603 . S
C463 H528 0.960 . S
C463 H529 0.962 . S
C463 H530 0.961 . S
C464 C431 1.587 . S
C464 C465 1.360 . S
C464 C477 1.412 . S
C465 C464 1.360 . S
C465 C466 1.365 . S
C465 H531 0.929 . S
C466 C441 1.553 . S
C466 C465 1.365 . S
C466 C467 1.404 . S
C467 C466 1.404 . S
C467 C468 1.395 . S
C467 C478 1.451 . S
C468 C467 1.395 . S
C468 C469 1.322 . S
C468 H532 0.930 . S
C469 C468 1.322 . S
C469 C470 1.459 . S
C469 H533 0.929 . S
C470 C469 1.459 . S
C470 C471 1.445 . S
C470 C479 1.395 . S
C471 C449 1.432 . S
C471 C470 1.445 . S
C471 C472 1.370 . S
C472 C471 1.370 . S
C472 C473 1.438 . S
C472 H534 0.930 . S
C473 C459 1.497 . S
C473 C472 1.438 . S
C473 C474 1.360 . S
C474 C473 1.360 . S
C474 C475 1.401 . S
C474 C479 1.446 . S
C475 C474 1.401 . S
C475 C476 1.347 . S
C475 H535 0.929 . S
C476 C475 1.347 . S
C476 C477 1.455 . S
C476 H536 0.930 . S
C477 C464 1.412 . S
C477 C476 1.455 . S
C477 C478 1.331 . S
C478 C467 1.451 . S
C478 C477 1.331 . S
C478 C479 1.497 . S
C479 C470 1.395 . S
C479 C474 1.446 . S
C479 C478 1.497 . S
C480 C481 1.582 . S
C480 H537 0.962 . S
C480 H538 0.959 . S
C480 H539 0.958 . S
C481 C480 1.582 . S
C481 O484 1.458 . S
C481 H510 0.980 . S
O482 C427 1.426 . S
O482 C428 1.334 . S
O483 C455 1.412 . S
O483 C456 1.393 . S
O484 C446 1.435 . S
O484 C481 1.458 . S
O485 C437 1.468 . S
O485 C438 1.408 . S
H486 C427 0.980 . S
H487 C426 0.959 . S
H488 C426 0.959 . S
H489 C426 0.960 . S
H490 C429 0.929 . S
H491 C433 0.929 . S
H492 C434 0.959 . S
H493 C434 0.961 . S
H494 C434 0.961 . S
H495 C435 0.960 . S
H496 C435 0.960 . S
H497 C435 0.961 . S
H498 C437 0.980 . S
H499 C436 0.961 . S
H500 C436 0.960 . S
H501 C436 0.959 . S
H502 C439 0.930 . S
H503 C443 0.931 . S
H504 C444 0.959 . S
H505 C444 0.961 . S
H506 C444 0.959 . S
H507 C445 0.960 . S
H508 C445 0.960 . S
H509 C445 0.960 . S
H510 C481 0.980 . S
H511 C447 0.930 . S
H512 C451 0.930 . S
H513 C452 0.961 . S
H514 C452 0.960 . S
H515 C452 0.958 . S
H516 C453 0.961 . S
H517 C453 0.960 . S
H518 C453 0.960 . S
H519 C455 0.980 . S
H520 C454 0.961 . S
H521 C454 0.961 . S
H522 C454 0.959 . S
H523 C457 0.932 . S
H524 C461 0.929 . S
H525 C462 0.961 . S
H526 C462 0.959 . S
H527 C462 0.959 . S
H528 C463 0.960 . S
H529 C463 0.962 . S
H530 C463 0.961 . S
H531 C465 0.929 . S
H532 C468 0.930 . S
H533 C469 0.929 . S
H534 C472 0.930 . S
H535 C475 0.929 . S
H536 C476 0.930 . S
H537 C480 0.962 . S
H538 C480 0.959 . S
H539 C480 0.958 . S
C540 C541 1.560 . S
C540 H601 0.959 . S
C540 H602 0.959 . S
C540 H603 0.960 . S
C541 C540 1.560 . S
C541 O596 1.426 . S
C541 H600 0.980 . S
C542 C543 1.407 . S
C542 C547 1.418 . S
C542 O596 1.334 . S
C543 C542 1.407 . S
C543 C544 1.360 . S
C543 H604 0.929 . S
C544 C543 1.360 . S
C544 C545 1.401 . S
C544 C548 1.527 . S
C545 C544 1.401 . S
C545 C546 1.405 . S
C545 C578 1.587 . S
C546 C545 1.405 . S
C546 C547 1.332 . S
C546 C549 1.496 . S
C547 C542 1.418 . S
C547 C546 1.332 . S
C547 H605 0.929 . S
C548 C544 1.527 . S
C548 H606 0.959 . S
C548 H607 0.961 . S
C548 H608 0.961 . S
C549 C546 1.496 . S
C549 H609 0.960 . S
C549 H610 0.960 . S
C549 H611 0.961 . S
C550 C551 1.517 . S
C550 H613 0.961 . S
C550 H614 0.960 . S
C550 H615 0.959 . S
C551 C550 1.517 . S
C551 O599 1.468 . S
C551 H612 0.980 . S
C552 C553 1.349 . S
C552 C557 1.367 . S
C552 O599 1.408 . S
C553 C552 1.349 . S
C553 C554 1.407 . S
C553 H616 0.930 . S
C554 C553 1.407 . S
C554 C555 1.449 . S
C554 C558 1.535 . S
C555 C554 1.449 . S
C555 C556 1.384 . S
C555 C580 1.553 . S
C556 C555 1.384 . S
C556 C557 1.364 . S
C556 C559 1.450 . S
C557 C552 1.367 . S
C557 C556 1.364 . S
C557 H617 0.931 . S
C558 C554 1.535 . S
C558 H618 0.959 . S
C558 H619 0.961 . S
C558 H620 0.959 . S
C559 C556 1.450 . S
C559 H621 0.960 . S
C559 H622 0.960 . S
C559 H623 0.960 . S
C560 C561 1.309 . S
C560 C565 1.304 . S
C560 O598 1.435 . S
C561 C560 1.309 . S
C561 C562 1.476 . S
C561 H625 0.930 . S
C562 C561 1.476 . S
C562 C563 1.400 . S
C562 C566 1.567 . S
C563 C562 1.400 . S
C563 C564 1.373 . S
C563 C585 1.432 . S
C564 C563 1.373 . S
C564 C565 1.339 . S
C564 C567 1.530 . S
C565 C560 1.304 . S
C565 C564 1.339 . S
C565 H626 0.930 . S
C566 C562 1.567 . S
C566 H627 0.961 . S
C566 H628 0.960 . S
C566 H629 0.958 . S
C567 C564 1.530 . S
C567 H630 0.961 . S
C567 H631 0.960 . S
C567 H632 0.960 . S
C568 C569 1.530 . S
C568 H634 0.961 . S
C568 H635 0.961 . S
C568 H636 0.959 . S
C569 C568 1.530 . S
C569 O597 1.412 . S
C569 H633 0.980 . S
C570 C571 1.288 . S
C570 C575 1.377 . S
C570 O597 1.393 . S
C571 C570 1.288 . S
C571 C572 1.369 . S
C571 H637 0.932 . S
C572 C571 1.369 . S
C572 C573 1.398 . S
C572 C576 1.527 . S
C573 C572 1.398 . S
C573 C574 1.380 . S
C573 C587 1.497 . S
C574 C573 1.380 . S
C574 C575 1.383 . S
C574 C577 1.603 . S
C575 C570 1.377 . S
C575 C574 1.383 . S
C575 H638 0.929 . S
C576 C572 1.527 . S
C576 H639 0.961 . S
C576 H640 0.959 . S
C576 H641 0.959 . S
C577 C574 1.603 . S
C577 H642 0.960 . S
C577 H643 0.962 . S
C577 H644 0.961 . S
C578 C545 1.587 . S
C578 C579 1.360 . S
C578 C591 1.412 . S
C579 C578 1.360 . S
C579 C580 1.365 . S
C579 H645 0.929 . S
C580 C555 1.553 . S
C580 C579 1.365 . S
C580 C581 1.404 . S
C581 C580 1.404 . S
C581 C582 1.395 . S
C581 C592 1.451 . S
C582 C581 1.395 . S
C582 C583 1.322 . S
C582 H646 0.930 . S
C583 C582 1.322 . S
C583 C584 1.459 . S
C583 H647 0.929 . S
C584 C583 1.459 . S
C584 C585 1.445 . S
C584 C593 1.395 . S
C585 C563 1.432 . S
C585 C584 1.445 . S
C585 C586 1.370 . S
C586 C585 1.370 . S
C586 C587 1.438 . S
C586 H648 0.930 . S
C587 C573 1.497 . S
C587 C586 1.438 . S
C587 C588 1.360 . S
C588 C587 1.360 . S
C588 C589 1.401 . S
C588 C593 1.446 . S
C589 C588 1.401 . S
C589 C590 1.347 . S
C589 H649 0.929 . S
C590 C589 1.347 . S
C590 C591 1.455 . S
C590 H650 0.930 . S
C591 C578 1.412 . S
C591 C590 1.455 . S
C591 C592 1.331 . S
C592 C581 1.451 . S
C592 C591 1.331 . S
C592 C593 1.497 . S
C593 C584 1.395 . S
C593 C588 1.446 . S
C593 C592 1.497 . S
C594 C595 1.582 . S
C594 H651 0.962 . S
C594 H652 0.959 . S
C594 H653 0.958 . S
C595 C594 1.582 . S
C595 O598 1.458 . S
C595 H624 0.980 . S
O596 C541 1.426 . S
O596 C542 1.334 . S
O597 C569 1.412 . S
O597 C570 1.393 . S
O598 C560 1.435 . S
O598 C595 1.458 . S
O599 C551 1.468 . S
O599 C552 1.408 . S
H600 C541 0.980 . S
H601 C540 0.959 . S
H602 C540 0.959 . S
H603 C540 0.960 . S
H604 C543 0.929 . S
H605 C547 0.929 . S
H606 C548 0.959 . S
H607 C548 0.961 . S
H608 C548 0.961 . S
H609 C549 0.960 . S
H610 C549 0.960 . S
H611 C549 0.961 . S
H612 C551 0.980 . S
H613 C550 0.961 . S
H614 C550 0.960 . S
H615 C550 0.959 . S
H616 C553 0.930 . S
H617 C557 0.931 . S
H618 C558 0.959 . S
H619 C558 0.961 . S
H620 C558 0.959 . S
H621 C559 0.960 . S
H622 C559 0.960 . S
H623 C559 0.960 . S
H624 C595 0.980 . S
H625 C561 0.930 . S
H626 C565 0.930 . S
H627 C566 0.961 . S
H628 C566 0.960 . S
H629 C566 0.958 . S
H630 C567 0.961 . S
H631 C567 0.960 . S
H632 C567 0.960 . S
H633 C569 0.980 . S
H634 C568 0.961 . S
H635 C568 0.961 . S
H636 C568 0.959 . S
H637 C571 0.932 . S
H638 C575 0.929 . S
H639 C576 0.961 . S
H640 C576 0.959 . S
H641 C576 0.959 . S
H642 C577 0.960 . S
H643 C577 0.962 . S
H644 C577 0.961 . S
H645 C579 0.929 . S
H646 C582 0.930 . S
H647 C583 0.929 . S
H648 C586 0.930 . S
H649 C589 0.929 . S
H650 C590 0.930 . S
H651 C594 0.962 . S
H652 C594 0.959 . S
H653 C594 0.958 . S
C654 C655 1.560 . S
C654 H715 0.959 . S
C654 H716 0.959 . S
C654 H717 0.960 . S
C655 C654 1.560 . S
C655 O710 1.426 . S
C655 H714 0.980 . S
C656 C657 1.407 . S
C656 C661 1.418 . S
C656 O710 1.334 . S
C657 C656 1.407 . S
C657 C658 1.360 . S
C657 H718 0.929 . S
C658 C657 1.360 . S
C658 C659 1.401 . S
C658 C662 1.527 . S
C659 C658 1.401 . S
C659 C660 1.405 . S
C659 C692 1.587 . S
C660 C659 1.405 . S
C660 C661 1.332 . S
C660 C663 1.496 . S
C661 C656 1.418 . S
C661 C660 1.332 . S
C661 H719 0.929 . S
C662 C658 1.527 . S
C662 H720 0.959 . S
C662 H721 0.961 . S
C662 H722 0.961 . S
C663 C660 1.496 . S
C663 H723 0.960 . S
C663 H724 0.960 . S
C663 H725 0.961 . S
C664 C665 1.517 . S
C664 H727 0.961 . S
C664 H728 0.960 . S
C664 H729 0.959 . S
C665 C664 1.517 . S
C665 O713 1.468 . S
C665 H726 0.980 . S
C666 C667 1.349 . S
C666 C671 1.367 . S
C666 O713 1.408 . S
C667 C666 1.349 . S
C667 C668 1.407 . S
C667 H730 0.930 . S
C668 C667 1.407 . S
C668 C669 1.449 . S
C668 C672 1.535 . S
C669 C668 1.449 . S
C669 C670 1.384 . S
C669 C694 1.553 . S
C670 C669 1.384 . S
C670 C671 1.364 . S
C670 C673 1.450 . S
C671 C666 1.367 . S
C671 C670 1.364 . S
C671 H731 0.931 . S
C672 C668 1.535 . S
C672 H732 0.959 . S
C672 H733 0.961 . S
C672 H734 0.959 . S
C673 C670 1.450 . S
C673 H735 0.960 . S
C673 H736 0.960 . S
C673 H737 0.960 . S
C674 C675 1.309 . S
C674 C679 1.304 . S
C674 O712 1.435 . S
C675 C674 1.309 . S
C675 C676 1.476 . S
C675 H739 0.930 . S
C676 C675 1.476 . S
C676 C677 1.400 . S
C676 C680 1.567 . S
C677 C676 1.400 . S
C677 C678 1.373 . S
C677 C699 1.432 . S
C678 C677 1.373 . S
C678 C679 1.339 . S
C678 C681 1.530 . S
C679 C674 1.304 . S
C679 C678 1.339 . S
C679 H740 0.930 . S
C680 C676 1.567 . S
C680 H741 0.961 . S
C680 H742 0.960 . S
C680 H743 0.958 . S
C681 C678 1.530 . S
C681 H744 0.961 . S
C681 H745 0.960 . S
C681 H746 0.960 . S
C682 C683 1.530 . S
C682 H748 0.961 . S
C682 H749 0.961 . S
C682 H750 0.959 . S
C683 C682 1.530 . S
C683 O711 1.412 . S
C683 H747 0.980 . S
C684 C685 1.288 . S
C684 C689 1.377 . S
C684 O711 1.393 . S
C685 C684 1.288 . S
C685 C686 1.369 . S
C685 H751 0.932 . S
C686 C685 1.369 . S
C686 C687 1.398 . S
C686 C690 1.527 . S
C687 C686 1.398 . S
C687 C688 1.380 . S
C687 C701 1.497 . S
C688 C687 1.380 . S
C688 C689 1.383 . S
C688 C691 1.603 . S
C689 C684 1.377 . S
C689 C688 1.383 . S
C689 H752 0.929 . S
C690 C686 1.527 . S
C690 H753 0.961 . S
C690 H754 0.959 . S
C690 H755 0.959 . S
C691 C688 1.603 . S
C691 H756 0.960 . S
C691 H757 0.962 . S
C691 H758 0.961 . S
C692 C659 1.587 . S
C692 C693 1.360 . S
C692 C705 1.412 . S
C693 C692 1.360 . S
C693 C694 1.365 . S
C693 H759 0.929 . S
C694 C669 1.553 . S
C694 C693 1.365 . S
C694 C695 1.404 . S
C695 C694 1.404 . S
C695 C696 1.395 . S
C695 C706 1.451 . S
C696 C695 1.395 . S
C696 C697 1.322 . S
C696 H760 0.930 . S
C697 C696 1.322 . S
C697 C698 1.459 . S
C697 H761 0.929 . S
C698 C697 1.459 . S
C698 C699 1.445 . S
C698 C707 1.395 . S
C699 C677 1.432 . S
C699 C698 1.445 . S
C699 C700 1.370 . S
C700 C699 1.370 . S
C700 C701 1.438 . S
C700 H762 0.930 . S
C701 C687 1.497 . S
C701 C700 1.438 . S
C701 C702 1.360 . S
C702 C701 1.360 . S
C702 C703 1.401 . S
C702 C707 1.446 . S
C703 C702 1.401 . S
C703 C704 1.347 . S
C703 H763 0.929 . S
C704 C703 1.347 . S
C704 C705 1.455 . S
C704 H764 0.930 . S
C705 C692 1.412 . S
C705 C704 1.455 . S
C705 C706 1.331 . S
C706 C695 1.451 . S
C706 C705 1.331 . S
C706 C707 1.497 . S
C707 C698 1.395 . S
C707 C702 1.446 . S
C707 C706 1.497 . S
C708 C709 1.582 . S
C708 H765 0.962 . S
C708 H766 0.959 . S
C708 H767 0.958 . S
C709 C708 1.582 . S
C709 O712 1.458 . S
C709 H738 0.980 . S
O710 C655 1.426 . S
O710 C656 1.334 . S
O711 C683 1.412 . S
O711 C684 1.393 . S
O712 C674 1.435 . S
O712 C709 1.458 . S
O713 C665 1.468 . S
O713 C666 1.408 . S
H714 C655 0.980 . S
H715 C654 0.959 . S
H716 C654 0.959 . S
H717 C654 0.960 . S
H718 C657 0.929 . S
H719 C661 0.929 . S
H720 C662 0.959 . S
H721 C662 0.961 . S
H722 C662 0.961 . S
H723 C663 0.960 . S
H724 C663 0.960 . S
H725 C663 0.961 . S
H726 C665 0.980 . S
H727 C664 0.961 . S
H728 C664 0.960 . S
H729 C664 0.959 . S
H730 C667 0.930 . S
H731 C671 0.931 . S
H732 C672 0.959 . S
H733 C672 0.961 . S
H734 C672 0.959 . S
H735 C673 0.960 . S
H736 C673 0.960 . S
H737 C673 0.960 . S
H738 C709 0.980 . S
H739 C675 0.930 . S
H740 C679 0.930 . S
H741 C680 0.961 . S
H742 C680 0.960 . S
H743 C680 0.958 . S
H744 C681 0.961 . S
H745 C681 0.960 . S
H746 C681 0.960 . S
H747 C683 0.980 . S
H748 C682 0.961 . S
H749 C682 0.961 . S
H750 C682 0.959 . S
H751 C685 0.932 . S
H752 C689 0.929 . S
H753 C690 0.961 . S
H754 C690 0.959 . S
H755 C690 0.959 . S
H756 C691 0.960 . S
H757 C691 0.962 . S
H758 C691 0.961 . S
H759 C693 0.929 . S
H760 C696 0.930 . S
H761 C697 0.929 . S
H762 C700 0.930 . S
H763 C703 0.929 . S
H764 C704 0.930 . S
H765 C708 0.962 . S
H766 C708 0.959 . S
H767 C708 0.958 . S
H768 C774 0.930 . S
H769 C778 0.930 . S
H770 C783 0.929 . S
H771 C781 0.929 . S
H772 C776 0.929 . S
H773 C782 0.929 . S
C774 H768 0.930 . S
C774 C775 1.367 . S
C774 C782 1.378 . S
C775 C774 1.367 . S
C775 C783 1.433 . S
C776 H772 0.929 . S
C776 C778 1.378 . S
C776 C780 1.350 . S
C777 C780 1.463 . S
C777 C782 1.350 . S
C777 N785 1.427 . S
C778 H769 0.930 . S
C778 C776 1.378 . S
C778 C779 1.367 . S
C779 C778 1.367 . S
C779 C781 1.433 . S
C780 C776 1.350 . S
C780 C777 1.463 . S
C780 N784 1.427 . S
C781 H771 0.929 . S
C781 C779 1.433 . S
C781 N784 1.384 . S
C782 H773 0.929 . S
C782 C774 1.378 . S
C782 C777 1.350 . S
C783 H770 0.929 . S
C783 C775 1.433 . S
C783 N785 1.384 . S
N784 C780 1.427 . S
N784 C781 1.384 . S
N785 C777 1.427 . S
N785 C783 1.384 . S
H786 C792 0.930 . S
H787 C796 0.930 . S
H788 C801 0.929 . S
H789 C799 0.929 . S
H790 C794 0.929 . S
H791 C800 0.929 . S
C792 H786 0.930 . S
C792 C793 1.367 . S
C792 C800 1.378 . S
C793 C792 1.367 . S
C793 C801 1.433 . S
C794 H790 0.929 . S
C794 C796 1.378 . S
C794 C798 1.350 . S
C795 C798 1.463 . S
C795 C800 1.350 . S
C795 N803 1.427 . S
C796 H787 0.930 . S
C796 C794 1.378 . S
C796 C797 1.367 . S
C797 C796 1.367 . S
C797 C799 1.433 . S
C798 C794 1.350 . S
C798 C795 1.463 . S
C798 N802 1.427 . S
C799 H789 0.929 . S
C799 C797 1.433 . S
C799 N802 1.384 . S
C800 H791 0.929 . S
C800 C792 1.378 . S
C800 C795 1.350 . S
C801 H788 0.929 . S
C801 C793 1.433 . S
C801 N803 1.384 . S
N802 C798 1.427 . S
N802 C799 1.384 . S
N803 C795 1.427 . S
N803 C801 1.384 . S
H804 C810 0.930 . S
H805 C814 0.930 . S
H806 C819 0.929 . S
H807 C817 0.929 . S
H808 C812 0.929 . S
H809 C818 0.929 . S
C810 H804 0.930 . S
C810 C811 1.367 . S
C810 C818 1.378 . S
C811 C810 1.367 . S
C811 C819 1.433 . S
C812 H808 0.929 . S
C812 C814 1.378 . S
C812 C816 1.350 . S
C813 C816 1.463 . S
C813 C818 1.350 . S
C813 N821 1.427 . S
C814 H805 0.930 . S
C814 C812 1.378 . S
C814 C815 1.367 . S
C815 C814 1.367 . S
C815 C817 1.433 . S
C816 C812 1.350 . S
C816 C813 1.463 . S
C816 N820 1.427 . S
C817 H807 0.929 . S
C817 C815 1.433 . S
C817 N820 1.384 . S
C818 H809 0.929 . S
C818 C810 1.378 . S
C818 C813 1.350 . S
C819 H806 0.929 . S
C819 C811 1.433 . S
C819 N821 1.384 . S
N820 C816 1.427 . S
N820 C817 1.384 . S
N821 C813 1.427 . S
N821 C819 1.384 . S
H822 C828 0.930 . S
H823 C832 0.930 . S
H824 C837 0.929 . S
H825 C835 0.929 . S
H826 C830 0.929 . S
H827 C836 0.929 . S
C828 H822 0.930 . S
C828 C829 1.367 . S
C828 C836 1.378 . S
C829 C828 1.367 . S
C829 C837 1.433 . S
C830 H826 0.929 . S
C830 C832 1.378 . S
C830 C834 1.350 . S
C831 C834 1.463 . S
C831 C836 1.350 . S
C831 N839 1.427 . S
C832 H823 0.930 . S
C832 C830 1.378 . S
C832 C833 1.367 . S
C833 C832 1.367 . S
C833 C835 1.433 . S
C834 C830 1.350 . S
C834 C831 1.463 . S
C834 N838 1.427 . S
C835 H825 0.929 . S
C835 C833 1.433 . S
C835 N838 1.384 . S
C836 H827 0.929 . S
C836 C828 1.378 . S
C836 C831 1.350 . S
C837 H824 0.929 . S
C837 C829 1.433 . S
C837 N839 1.384 . S
N838 C834 1.427 . S
N838 C835 1.384 . S
N839 C831 1.427 . S
N839 C837 1.384 . S
H840 C846 0.930 1_545 S
H841 C850 0.930 . S
H842 C855 0.929 . S
H843 C853 0.929 . S
H844 C848 0.929 . S
H845 C854 0.929 . S
C846 H840 0.930 1_565 S
C846 C847 1.367 . S
C846 C854 1.378 . S
C847 C846 1.367 . S
C847 C855 1.433 . S
C848 H844 0.929 . S
C848 C850 1.378 . S
C848 C852 1.350 . S
C849 C852 1.463 . S
C849 C854 1.350 . S
C849 N857 1.427 . S
C850 H841 0.930 . S
C850 C848 1.378 . S
C850 C851 1.367 . S
C851 C850 1.367 . S
C851 C853 1.433 . S
C852 C848 1.350 . S
C852 C849 1.463 . S
C852 N856 1.427 . S
C853 H843 0.929 . S
C853 C851 1.433 . S
C853 N856 1.384 . S
C854 H845 0.929 . S
C854 C846 1.378 . S
C854 C849 1.350 . S
C855 H842 0.929 . S
C855 C847 1.433 . S
C855 N857 1.384 . S
N856 C852 1.427 . S
N856 C853 1.384 . S
N857 C849 1.427 . S
N857 C855 1.384 . S
H858 C864 0.930 . S
H859 C868 0.930 . S
H860 C873 0.929 . S
H861 C871 0.929 . S
H862 C866 0.929 . S
H863 C872 0.929 . S
C864 H858 0.930 . S
C864 C865 1.367 . S
C864 C872 1.378 . S
C865 C864 1.367 . S
C865 C873 1.433 . S
C866 H862 0.929 . S
C866 C868 1.378 . S
C866 C870 1.350 . S
C867 C870 1.463 . S
C867 C872 1.350 . S
C867 N875 1.427 . S
C868 H859 0.930 . S
C868 C866 1.378 . S
C868 C869 1.367 . S
C869 C868 1.367 . S
C869 C871 1.433 . S
C870 C866 1.350 . S
C870 C867 1.463 . S
C870 N874 1.427 . S
C871 H861 0.929 . S
C871 C869 1.433 . S
C871 N874 1.384 . S
C872 H863 0.929 . S
C872 C864 1.378 . S
C872 C867 1.350 . S
C873 H860 0.929 . S
C873 C865 1.433 . S
C873 N875 1.384 . S
N874 C870 1.427 . S
N874 C871 1.384 . S
N875 C867 1.427 . S
N875 C873 1.384 . S
H876 C882 0.930 . S
H877 C886 0.930 . S
H878 C891 0.929 . S
H879 C889 0.929 . S
H880 C884 0.929 . S
H881 C890 0.929 . S
C882 H876 0.930 . S
C882 C883 1.367 . S
C882 C890 1.378 . S
C883 C882 1.367 . S
C883 C891 1.433 . S
C884 H880 0.929 . S
C884 C886 1.378 . S
C884 C888 1.350 . S
C885 C888 1.463 . S
C885 C890 1.350 . S
C885 N893 1.427 . S
C886 H877 0.930 . S
C886 C884 1.378 . S
C886 C887 1.367 . S
C887 C886 1.367 . S
C887 C889 1.433 . S
C888 C884 1.350 . S
C888 C885 1.463 . S
C888 N892 1.427 . S
C889 H879 0.929 . S
C889 C887 1.433 . S
C889 N892 1.384 . S
C890 H881 0.929 . S
C890 C882 1.378 . S
C890 C885 1.350 . S
C891 H878 0.929 . S
C891 C883 1.433 . S
C891 N893 1.384 . S
N892 C888 1.427 . S
N892 C889 1.384 . S
N893 C885 1.427 . S
N893 C891 1.384 . S
H894 C900 0.930 . S
H895 C904 0.930 . S
H896 C909 0.929 1_554 S
H897 C907 0.929 . S
H898 C902 0.929 . S
H899 C908 0.929 . S
C900 H894 0.930 . S
C900 C901 1.367 . S
C900 C908 1.378 . S
C901 C900 1.367 . S
C901 C909 1.433 . S
C902 H898 0.929 . S
C902 C904 1.378 . S
C902 C906 1.350 . S
C903 C906 1.463 . S
C903 C908 1.350 . S
C903 N911 1.427 . S
C904 H895 0.930 . S
C904 C902 1.378 . S
C904 C905 1.367 . S
C905 C904 1.367 . S
C905 C907 1.433 . S
C906 C902 1.350 . S
C906 C903 1.463 . S
C906 N910 1.427 . S
C907 H897 0.929 . S
C907 C905 1.433 . S
C907 N910 1.384 . S
C908 H899 0.929 . S
C908 C900 1.378 . S
C908 C903 1.350 . S
C909 H896 0.929 1_556 S
C909 C901 1.433 . S
C909 N911 1.384 . S
N910 C906 1.427 . S
N910 C907 1.384 . S
N911 C903 1.427 . S
N911 C909 1.384 . S
H912 C918 0.930 . S
H913 C922 0.930 . S
H914 C927 0.929 . S
H915 C925 0.929 . S
H916 C920 0.929 . S
H917 C926 0.929 . S
C918 H912 0.930 . S
C918 C919 1.367 . S
C918 C926 1.378 . S
C919 C918 1.367 . S
C919 C927 1.433 . S
C920 H916 0.929 . S
C920 C922 1.378 . S
C920 C924 1.350 . S
C921 C924 1.463 . S
C921 C926 1.350 . S
C921 N929 1.427 . S
C922 H913 0.930 . S
C922 C920 1.378 . S
C922 C923 1.367 . S
C923 C922 1.367 . S
C923 C925 1.433 . S
C924 C920 1.350 . S
C924 C921 1.463 . S
C924 N928 1.427 . S
C925 H915 0.929 . S
C925 C923 1.433 . S
C925 N928 1.384 . S
C926 H917 0.929 . S
C926 C918 1.378 . S
C926 C921 1.350 . S
C927 H914 0.929 . S
C927 C919 1.433 . S
C927 N929 1.384 . S
N928 C924 1.427 . S
N928 C925 1.384 . S
N929 C921 1.427 . S
N929 C927 1.384 . S
H930 C936 0.930 . S
H931 C940 0.930 . S
H932 C945 0.929 . S
H933 C943 0.929 . S
H934 C938 0.929 . S
H935 C944 0.929 . S
C936 H930 0.930 . S
C936 C937 1.367 . S
C936 C944 1.378 . S
C937 C936 1.367 . S
C937 C945 1.433 . S
C938 H934 0.929 . S
C938 C940 1.378 . S
C938 C942 1.350 . S
C939 C942 1.463 . S
C939 C944 1.350 . S
C939 N947 1.427 . S
C940 H931 0.930 . S
C940 C938 1.378 . S
C940 C941 1.367 . S
C941 C940 1.367 . S
C941 C943 1.433 . S
C942 C938 1.350 . S
C942 C939 1.463 . S
C942 N946 1.427 . S
C943 H933 0.929 . S
C943 C941 1.433 . S
C943 N946 1.384 . S
C944 H935 0.929 . S
C944 C936 1.378 . S
C944 C939 1.350 . S
C945 H932 0.929 . S
C945 C937 1.433 . S
C945 N947 1.384 . S
N946 C942 1.427 . S
N946 C943 1.384 . S
N947 C939 1.427 . S
N947 C945 1.384 . S
H948 C954 0.930 . S
H949 C958 0.930 . S
H950 C963 0.929 . S
H951 C961 0.929 . S
H952 C956 0.929 . S
H953 C962 0.929 . S
C954 H948 0.930 . S
C954 C955 1.367 . S
C954 C962 1.378 . S
C955 C954 1.367 . S
C955 C963 1.433 . S
C956 H952 0.929 . S
C956 C958 1.378 . S
C956 C960 1.350 . S
C957 C960 1.463 . S
C957 C962 1.350 . S
C957 N965 1.427 . S
C958 H949 0.930 . S
C958 C956 1.378 . S
C958 C959 1.367 . S
C959 C958 1.367 . S
C959 C961 1.433 . S
C960 C956 1.350 . S
C960 C957 1.463 . S
C960 N964 1.427 . S
C961 H951 0.929 . S
C961 C959 1.433 . S
C961 N964 1.384 . S
C962 H953 0.929 . S
C962 C954 1.378 . S
C962 C957 1.350 . S
C963 H950 0.929 . S
C963 C955 1.433 . S
C963 N965 1.384 . S
N964 C960 1.427 . S
N964 C961 1.384 . S
N965 C957 1.427 . S
N965 C963 1.384 . S
H966 C972 0.930 . S
H967 C976 0.930 . S
H968 C981 0.929 . S
H969 C979 0.929 . S
H970 C974 0.929 . S
H971 C980 0.929 1_455 S
C972 H966 0.930 . S
C972 C973 1.367 1_455 S
C972 C980 1.378 1_455 S
C973 C972 1.367 1_655 S
C973 C981 1.433 . S
C974 H970 0.929 . S
C974 C976 1.378 . S
C974 C978 1.350 . S
C975 C978 1.463 . S
C975 C980 1.350 . S
C975 N983 1.427 . S
C976 H967 0.930 . S
C976 C974 1.378 . S
C976 C977 1.367 . S
C977 C976 1.367 . S
C977 C979 1.433 . S
C978 C974 1.350 . S
C978 C975 1.463 . S
C978 N982 1.427 . S
C979 H969 0.929 . S
C979 C977 1.433 . S
C979 N982 1.384 . S
C980 H971 0.929 1_655 S
C980 C972 1.378 1_655 S
C980 C975 1.350 . S
C981 H968 0.929 . S
C981 C973 1.433 . S
C981 N983 1.384 . S
N982 C978 1.427 . S
N982 C979 1.384 . S
N983 C975 1.427 . S
N983 C981 1.384 . S
H984 C990 0.941 . S
H985 C994 0.930 . S
H986 C999 0.929 . S
H987 C997 0.929 . S
H988 C992 0.929 . S
H989 C998 0.929 . S
C990 H984 0.941 . S
C990 C991 1.367 . S
C990 C998 1.378 . S
C991 C990 1.367 . S
C991 C999 1.433 . S
C992 H988 0.929 . S
C992 C994 1.378 . S
C992 C996 1.350 . S
C993 C996 1.463 . S
C993 C998 1.350 . S
C993 N1001 1.427 . S
C994 H985 0.930 . S
C994 C992 1.378 . S
C994 C995 1.367 . S
C995 C994 1.367 . S
C995 C997 1.433 . S
C996 C992 1.350 . S
C996 C993 1.463 . S
C996 N1000 1.427 . S
C997 H987 0.929 . S
C997 C995 1.433 . S
C997 N1000 1.384 . S
C998 H989 0.929 . S
C998 C990 1.378 . S
C998 C993 1.350 . S
C999 H986 0.929 . S
C999 C991 1.433 . S
C999 N1001 1.384 . S
N1000 C996 1.427 . S
N1000 C997 1.384 . S
N1001 C993 1.427 . S
N1001 C999 1.384 . S
H1002 C1008 0.930 . S
H1003 C1012 0.930 . S
H1004 C1017 0.929 . S
H1005 C1015 0.929 . S
H1006 C1010 0.929 . S
H1007 C1016 0.929 . S
C1008 H1002 0.930 . S
C1008 C1009 1.367 . S
C1008 C1016 1.378 . S
C1009 C1008 1.367 . S
C1009 C1017 1.433 . S
C1010 H1006 0.929 . S
C1010 C1012 1.378 . S
C1010 C1014 1.350 . S
C1011 C1014 1.463 . S
C1011 C1016 1.350 . S
C1011 N1019 1.427 . S
C1012 H1003 0.930 . S
C1012 C1010 1.378 . S
C1012 C1013 1.367 . S
C1013 C1012 1.367 . S
C1013 C1015 1.433 . S
C1014 C1010 1.350 . S
C1014 C1011 1.463 . S
C1014 N1018 1.427 . S
C1015 H1005 0.929 . S
C1015 C1013 1.433 . S
C1015 N1018 1.384 . S
C1016 H1007 0.929 . S
C1016 C1008 1.378 . S
C1016 C1011 1.350 . S
C1017 H1004 0.929 . S
C1017 C1009 1.433 . S
C1017 N1019 1.384 . S
N1018 C1014 1.427 . S
N1018 C1015 1.384 . S
N1019 C1011 1.427 . S
N1019 C1017 1.384 . S
H1020 C1026 0.930 . S
H1021 C1030 0.930 . S
H1022 C1035 0.929 . S
H1023 C1033 0.929 . S
H1024 C1028 0.929 . S
H1025 C1034 0.929 . S
C1026 H1020 0.930 . S
C1026 C1027 1.367 . S
C1026 C1034 1.378 . S
C1027 C1026 1.367 . S
C1027 C1035 1.433 . S
C1028 H1024 0.929 . S
C1028 C1030 1.378 . S
C1028 C1032 1.350 . S
C1029 C1032 1.463 . S
C1029 C1034 1.350 . S
C1029 N1037 1.427 . S
C1030 H1021 0.930 . S
C1030 C1028 1.378 . S
C1030 C1031 1.367 . S
C1031 C1030 1.367 . S
C1031 C1033 1.433 . S
C1032 C1028 1.350 . S
C1032 C1029 1.463 . S
C1032 N1036 1.427 . S
C1033 H1023 0.929 . S
C1033 C1031 1.433 . S
C1033 N1036 1.384 . S
C1034 H1025 0.929 . S
C1034 C1026 1.378 . S
C1034 C1029 1.350 . S
C1035 H1022 0.929 . S
C1035 C1027 1.433 . S
C1035 N1037 1.384 . S
N1036 C1032 1.427 . S
N1036 C1033 1.384 . S
N1037 C1029 1.427 . S
N1037 C1035 1.384 . S
H1038 C1044 0.930 . S
H1039 C1048 0.930 . S
H1040 C1053 0.929 . S
H1041 C1051 0.929 . S
H1042 C1046 0.929 . S
H1043 C1052 0.929 . S
C1044 H1038 0.930 . S
C1044 C1045 1.367 . S
C1044 C1052 1.378 . S
C1045 C1044 1.367 . S
C1045 C1053 1.433 . S
C1046 H1042 0.929 . S
C1046 C1048 1.378 . S
C1046 C1050 1.350 . S
C1047 C1050 1.463 . S
C1047 C1052 1.350 . S
C1047 N1055 1.427 . S
C1048 H1039 0.930 . S
C1048 C1046 1.378 . S
C1048 C1049 1.367 . S
C1049 C1048 1.367 . S
C1049 C1051 1.433 . S
C1050 C1046 1.350 . S
C1050 C1047 1.463 . S
C1050 N1054 1.427 . S
C1051 H1041 0.929 . S
C1051 C1049 1.433 . S
C1051 N1054 1.384 . S
C1052 H1043 0.929 . S
C1052 C1044 1.378 . S
C1052 C1047 1.350 . S
C1053 H1040 0.929 . S
C1053 C1045 1.433 . S
C1053 N1055 1.384 . S
N1054 C1050 1.427 . S
N1054 C1051 1.384 . S
N1055 C1047 1.427 . S
N1055 C1053 1.384 . S
H1056 C1062 0.930 . S
H1057 C1066 0.930 . S
H1058 C1071 0.929 . S
H1059 C1069 0.929 . S
H1060 C1064 0.929 . S
H1061 C1070 0.929 . S
C1062 H1056 0.930 . S
C1062 C1063 1.367 . S
C1062 C1070 1.378 . S
C1063 C1062 1.367 . S
C1063 C1071 1.433 . S
C1064 H1060 0.929 . S
C1064 C1066 1.378 . S
C1064 C1068 1.350 . S
C1065 C1068 1.463 . S
C1065 C1070 1.350 . S
C1065 N1073 1.427 . S
C1066 H1057 0.930 . S
C1066 C1064 1.378 . S
C1066 C1067 1.367 . S
C1067 C1066 1.367 . S
C1067 C1069 1.433 . S
C1068 C1064 1.350 . S
C1068 C1065 1.463 . S
C1068 N1072 1.427 . S
C1069 H1059 0.929 . S
C1069 C1067 1.433 . S
C1069 N1072 1.384 . S
C1070 H1061 0.929 . S
C1070 C1062 1.378 . S
C1070 C1065 1.350 . S
C1071 H1058 0.929 . S
C1071 C1063 1.433 . S
C1071 N1073 1.384 . S
N1072 C1068 1.427 . S
N1072 C1069 1.384 . S
N1073 C1065 1.427 . S
N1073 C1071 1.384 . S
H1074 C1080 0.930 . S
H1075 C1084 0.930 . S
H1076 C1089 0.929 . S
H1077 C1087 0.929 . S
H1078 C1082 0.929 . S
H1079 C1088 0.929 . S
C1080 H1074 0.930 . S
C1080 C1081 1.367 . S
C1080 C1088 1.378 . S
C1081 C1080 1.367 . S
C1081 C1089 1.433 . S
C1082 H1078 0.929 . S
C1082 C1084 1.378 . S
C1082 C1086 1.350 . S
C1083 C1086 1.463 . S
C1083 C1088 1.350 . S
C1083 N1091 1.427 . S
C1084 H1075 0.930 . S
C1084 C1082 1.378 . S
C1084 C1085 1.367 . S
C1085 C1084 1.367 . S
C1085 C1087 1.433 . S
C1086 C1082 1.350 . S
C1086 C1083 1.463 . S
C1086 N1090 1.427 . S
C1087 H1077 0.929 . S
C1087 C1085 1.433 . S
C1087 N1090 1.384 . S
C1088 H1079 0.929 . S
C1088 C1080 1.378 . S
C1088 C1083 1.350 . S
C1089 H1076 0.929 . S
C1089 C1081 1.433 . S
C1089 N1091 1.384 . S
N1090 C1086 1.427 . S
N1090 C1087 1.384 . S
N1091 C1083 1.427 . S
N1091 C1089 1.384 . S
H1092 C1098 0.930 . S
H1093 C1102 0.930 . S
H1094 C1107 0.929 . S
H1095 C1105 0.929 . S
H1096 C1100 0.929 . S
H1097 C1106 0.929 . S
C1098 H1092 0.930 . S
C1098 C1099 1.367 . S
C1098 C1106 1.378 . S
C1099 C1098 1.367 . S
C1099 C1107 1.433 . S
C1100 H1096 0.929 . S
C1100 C1102 1.378 . S
C1100 C1104 1.350 . S
C1101 C1104 1.463 . S
C1101 C1106 1.350 . S
C1101 N1109 1.427 . S
C1102 H1093 0.930 . S
C1102 C1100 1.378 . S
C1102 C1103 1.367 . S
C1103 C1102 1.367 . S
C1103 C1105 1.433 . S
C1104 C1100 1.350 . S
C1104 C1101 1.463 . S
C1104 N1108 1.427 . S
C1105 H1095 0.929 . S
C1105 C1103 1.433 . S
C1105 N1108 1.384 . S
C1106 H1097 0.929 . S
C1106 C1098 1.378 . S
C1106 C1101 1.350 . S
C1107 H1094 0.929 . S
C1107 C1099 1.433 . S
C1107 N1109 1.384 . S
N1108 C1104 1.427 . S
N1108 C1105 1.384 . S
N1109 C1101 1.427 . S
N1109 C1107 1.384 . S
H1110 C1116 0.930 . S
H1111 C1120 0.930 . S
H1112 C1125 0.929 . S
H1113 C1123 0.929 . S
H1114 C1118 0.929 . S
H1115 C1124 0.929 . S
C1116 H1110 0.930 . S
C1116 C1117 1.367 . S
C1116 C1124 1.378 . S
C1117 C1116 1.367 . S
C1117 C1125 1.433 . S
C1118 H1114 0.929 . S
C1118 C1120 1.378 . S
C1118 C1122 1.350 . S
C1119 C1122 1.463 . S
C1119 C1124 1.350 . S
C1119 N1127 1.427 . S
C1120 H1111 0.930 . S
C1120 C1118 1.378 . S
C1120 C1121 1.367 . S
C1121 C1120 1.367 . S
C1121 C1123 1.433 . S
C1122 C1118 1.350 . S
C1122 C1119 1.463 . S
C1122 N1126 1.427 . S
C1123 H1113 0.929 . S
C1123 C1121 1.433 . S
C1123 N1126 1.384 . S
C1124 H1115 0.929 . S
C1124 C1116 1.378 . S
C1124 C1119 1.350 . S
C1125 H1112 0.929 . S
C1125 C1117 1.433 . S
C1125 N1127 1.384 . S
N1126 C1122 1.427 . S
N1126 C1123 1.384 . S
N1127 C1119 1.427 . S
N1127 C1125 1.384 . S
H1128 C1134 0.930 1_455 S
H1129 C1138 0.930 . S
H1130 C1143 0.929 . S
H1131 C1141 0.929 . S
H1132 C1136 0.929 . S
H1133 C1142 0.929 . S
C1134 H1128 0.930 1_655 S
C1134 C1135 1.367 . S
C1134 C1142 1.378 . S
C1135 C1134 1.367 . S
C1135 C1143 1.433 . S
C1136 H1132 0.929 . S
C1136 C1138 1.378 . S
C1136 C1140 1.350 . S
C1137 C1140 1.463 . S
C1137 C1142 1.350 . S
C1137 N1145 1.427 . S
C1138 H1129 0.930 . S
C1138 C1136 1.378 . S
C1138 C1139 1.367 . S
C1139 C1138 1.367 . S
C1139 C1141 1.433 . S
C1140 C1136 1.350 . S
C1140 C1137 1.463 . S
C1140 N1144 1.427 . S
C1141 H1131 0.929 . S
C1141 C1139 1.433 . S
C1141 N1144 1.384 . S
C1142 H1133 0.929 . S
C1142 C1134 1.378 . S
C1142 C1137 1.350 . S
C1143 H1130 0.929 . S
C1143 C1135 1.433 . S
C1143 N1145 1.384 . S
N1144 C1140 1.427 . S
N1144 C1141 1.384 . S
N1145 C1137 1.427 . S
N1145 C1143 1.384 . S
H1146 C1152 0.930 . S
H1147 C1156 0.930 . S
H1148 C1161 0.929 . S
H1149 C1159 0.929 . S
H1150 C1154 0.929 . S
H1151 C1160 0.929 . S
C1152 H1146 0.930 . S
C1152 C1153 1.367 . S
C1152 C1160 1.378 . S
C1153 C1152 1.367 . S
C1153 C1161 1.433 . S
C1154 H1150 0.929 . S
C1154 C1156 1.378 . S
C1154 C1158 1.350 . S
C1155 C1158 1.463 . S
C1155 C1160 1.350 . S
C1155 N1163 1.427 . S
C1156 H1147 0.930 . S
C1156 C1154 1.378 . S
C1156 C1157 1.367 . S
C1157 C1156 1.367 . S
C1157 C1159 1.433 . S
C1158 C1154 1.350 . S
C1158 C1155 1.463 . S
C1158 N1162 1.427 . S
C1159 H1149 0.929 . S
C1159 C1157 1.433 . S
C1159 N1162 1.384 . S
C1160 H1151 0.929 . S
C1160 C1152 1.378 . S
C1160 C1155 1.350 . S
C1161 H1148 0.929 . S
C1161 C1153 1.433 . S
C1161 N1163 1.384 . S
N1162 C1158 1.427 . S
N1162 C1159 1.384 . S
N1163 C1155 1.427 . S
N1163 C1161 1.384 . S
H1164 C1170 0.930 . S
H1165 C1174 0.930 . S
H1166 C1179 0.929 . S
H1167 C1177 0.929 . S
H1168 C1172 0.929 . S
H1169 C1178 0.929 . S
C1170 H1164 0.930 . S
C1170 C1171 1.367 . S
C1170 C1178 1.378 . S
C1171 C1170 1.367 . S
C1171 C1179 1.433 . S
C1172 H1168 0.929 . S
C1172 C1174 1.378 . S
C1172 C1176 1.350 . S
C1173 C1176 1.463 . S
C1173 C1178 1.350 . S
C1173 N1181 1.427 . S
C1174 H1165 0.930 . S
C1174 C1172 1.378 . S
C1174 C1175 1.367 . S
C1175 C1174 1.367 . S
C1175 C1177 1.433 . S
C1176 C1172 1.350 . S
C1176 C1173 1.463 . S
C1176 N1180 1.427 . S
C1177 H1167 0.929 . S
C1177 C1175 1.433 . S
C1177 N1180 1.384 . S
C1178 H1169 0.929 . S
C1178 C1170 1.378 . S
C1178 C1173 1.350 . S
C1179 H1166 0.929 . S
C1179 C1171 1.433 . S
C1179 N1181 1.384 . S
N1180 C1176 1.427 . S
N1180 C1177 1.384 . S
N1181 C1173 1.427 . S
N1181 C1179 1.384 . S
H1182 C1188 0.930 . S
H1183 C1192 0.930 . S
H1184 C1197 0.929 . S
H1185 C1195 0.929 . S
H1186 C1190 0.929 . S
H1187 C1196 0.929 . S
C1188 H1182 0.930 . S
C1188 C1189 1.367 . S
C1188 C1196 1.378 . S
C1189 C1188 1.367 . S
C1189 C1197 1.433 . S
C1190 H1186 0.929 . S
C1190 C1192 1.378 . S
C1190 C1194 1.350 . S
C1191 C1194 1.463 . S
C1191 C1196 1.350 . S
C1191 N1199 1.427 . S
C1192 H1183 0.930 . S
C1192 C1190 1.378 . S
C1192 C1193 1.367 . S
C1193 C1192 1.367 . S
C1193 C1195 1.433 . S
C1194 C1190 1.350 . S
C1194 C1191 1.463 . S
C1194 N1198 1.427 . S
C1195 H1185 0.929 . S
C1195 C1193 1.433 . S
C1195 N1198 1.384 . S
C1196 H1187 0.929 . S
C1196 C1188 1.378 . S
C1196 C1191 1.350 . S
C1197 H1184 0.929 . S
C1197 C1189 1.433 . S
C1197 N1199 1.384 . S
N1198 C1194 1.427 . S
N1198 C1195 1.384 . S
N1199 C1191 1.427 . S
N1199 C1197 1.384 . S
C775 C13 1.935 . S
C779 C113 1.775 . S
C793 C27 1.944 . S
C797 C253 1.712 . S
C815 C341 1.720 . S
C811 C29 1.889 . S
C833 C481 1.724 . S
C829 C54 1.954 . S
C851 C595 1.699 . S
C847 C69 1.924 . S
C869 C665 1.034 . S
C865 C83 1.937 . S
C883 C15 1.931 . S
C887 C323 1.043 . S
C901 C41 1.837 . S
C905 C427 1.291 . S
C923 C541 1.310 . S
C919 C42 1.865 . S
C941 C683 1.710 . S
C937 C57 1.884 . S
C955 C71 2.011 . S
C959 C95 1.088 . S
C977 C199 1.278 . S
C973 C1 1.795 1_655 S
C995 C437 1.614 . S
C991 C12 2.056 1_655 S
C1009 C26 2.065 . S
C1013 C551 1.635 . S
C1031 C709 1.314 . S
C1027 C28 2.136 . S
C1045 C55 1.947 . S
C1049 C85 1.733 . S
C1063 C68 2.168 . S
C1067 C209 1.706 . S
C1081 C82 1.927 . S
C1085 C313 1.723 . S
C1099 C14 1.996 . S
C1103 C655 1.762 . S
C1121 C139 1.269 . S
C1117 C40 2.057 . S
C1135 C43 2.009 . S
C1139 C227 1.367 . S
C1153 C56 2.069 . S
C1157 C367 1.240 . S
C1171 C70 1.979 . S
C1175 C455 1.378 . S
C1189 C0 2.041 . S
C1193 C569 1.439 . S
