# Generated by pormake.
# Topology ctn, (3,4)-cn, num edge types: 1
# Building blocks:
#     Node 0, Type 0, BuildingBlock: CUQRIR_clean_linker_1, # of connection points: 3
#     Node 1, Type 0, BuildingBlock: CUQRIR_clean_linker_1, # of connection points: 3
#     Node 2, Type 0, BuildingBlock: CUQRIR_clean_linker_1, # of connection points: 3
#     Node 3, Type 0, BuildingBlock: CUQRIR_clean_linker_1, # of connection points: 3
#     Node 4, Type 0, BuildingBlock: CUQRIR_clean_linker_1, # of connection points: 3
#     Node 5, Type 0, BuildingBlock: CUQRIR_clean_linker_1, # of connection points: 3
#     Node 6, Type 0, BuildingBlock: CUQRIR_clean_linker_1, # of connection points: 3
#     Node 7, Type 0, BuildingBlock: CUQRIR_clean_linker_1, # of connection points: 3
#     Node 8, Type 0, BuildingBlock: CUQRIR_clean_linker_1, # of connection points: 3
#     Node 9, Type 0, BuildingBlock: CUQRIR_clean_linker_1, # of connection points: 3
#     Node 10, Type 0, BuildingBlock: CUQRIR_clean_linker_1, # of connection points: 3
#     Node 11, Type 0, BuildingBlock: CUQRIR_clean_linker_1, # of connection points: 3
#     Node 12, Type 0, BuildingBlock: CUQRIR_clean_linker_1, # of connection points: 3
#     Node 13, Type 0, BuildingBlock: CUQRIR_clean_linker_1, # of connection points: 3
#     Node 14, Type 0, BuildingBlock: CUQRIR_clean_linker_1, # of connection points: 3
#     Node 15, Type 0, BuildingBlock: CUQRIR_clean_linker_1, # of connection points: 3
#     Node 16, Type 1, BuildingBlock: UXUYUI_clean_sbu_0, # of connection points: 4
#     Node 17, Type 1, BuildingBlock: UXUYUI_clean_sbu_0, # of connection points: 4
#     Node 18, Type 1, BuildingBlock: UXUYUI_clean_sbu_0, # of connection points: 4
#     Node 19, Type 1, BuildingBlock: UXUYUI_clean_sbu_0, # of connection points: 4
#     Node 20, Type 1, BuildingBlock: UXUYUI_clean_sbu_0, # of connection points: 4
#     Node 21, Type 1, BuildingBlock: UXUYUI_clean_sbu_0, # of connection points: 4
#     Node 22, Type 1, BuildingBlock: UXUYUI_clean_sbu_0, # of connection points: 4
#     Node 23, Type 1, BuildingBlock: UXUYUI_clean_sbu_0, # of connection points: 4
#     Node 24, Type 1, BuildingBlock: UXUYUI_clean_sbu_0, # of connection points: 4
#     Node 25, Type 1, BuildingBlock: UXUYUI_clean_sbu_0, # of connection points: 4
#     Node 26, Type 1, BuildingBlock: UXUYUI_clean_sbu_0, # of connection points: 4
#     Node 27, Type 1, BuildingBlock: UXUYUI_clean_sbu_0, # of connection points: 4
#     Edge 28, Type (0, 1), BuildingBlock: KIFKEQ_clean_linker_1, # of connection points: 2
#     Edge 29, Type (0, 1), BuildingBlock: KIFKEQ_clean_linker_1, # of connection points: 2
#     Edge 30, Type (0, 1), BuildingBlock: KIFKEQ_clean_linker_1, # of connection points: 2
#     Edge 31, Type (0, 1), BuildingBlock: KIFKEQ_clean_linker_1, # of connection points: 2
#     Edge 32, Type (0, 1), BuildingBlock: KIFKEQ_clean_linker_1, # of connection points: 2
#     Edge 33, Type (0, 1), BuildingBlock: KIFKEQ_clean_linker_1, # of connection points: 2
#     Edge 34, Type (0, 1), BuildingBlock: KIFKEQ_clean_linker_1, # of connection points: 2
#     Edge 35, Type (0, 1), BuildingBlock: KIFKEQ_clean_linker_1, # of connection points: 2
#     Edge 36, Type (0, 1), BuildingBlock: KIFKEQ_clean_linker_1, # of connection points: 2
#     Edge 37, Type (0, 1), BuildingBlock: KIFKEQ_clean_linker_1, # of connection points: 2
#     Edge 38, Type (0, 1), BuildingBlock: KIFKEQ_clean_linker_1, # of connection points: 2
#     Edge 39, Type (0, 1), BuildingBlock: KIFKEQ_clean_linker_1, # of connection points: 2
#     Edge 40, Type (0, 1), BuildingBlock: KIFKEQ_clean_linker_1, # of connection points: 2
#     Edge 41, Type (0, 1), BuildingBlock: KIFKEQ_clean_linker_1, # of connection points: 2
#     Edge 42, Type (0, 1), BuildingBlock: KIFKEQ_clean_linker_1, # of connection points: 2
#     Edge 43, Type (0, 1), BuildingBlock: KIFKEQ_clean_linker_1, # of connection points: 2
#     Edge 44, Type (0, 1), BuildingBlock: KIFKEQ_clean_linker_1, # of connection points: 2
#     Edge 45, Type (0, 1), BuildingBlock: KIFKEQ_clean_linker_1, # of connection points: 2
#     Edge 46, Type (0, 1), BuildingBlock: KIFKEQ_clean_linker_1, # of connection points: 2
#     Edge 47, Type (0, 1), BuildingBlock: KIFKEQ_clean_linker_1, # of connection points: 2
#     Edge 48, Type (0, 1), BuildingBlock: KIFKEQ_clean_linker_1, # of connection points: 2
#     Edge 49, Type (0, 1), BuildingBlock: KIFKEQ_clean_linker_1, # of connection points: 2
#     Edge 50, Type (0, 1), BuildingBlock: KIFKEQ_clean_linker_1, # of connection points: 2
#     Edge 51, Type (0, 1), BuildingBlock: KIFKEQ_clean_linker_1, # of connection points: 2
#     Edge 52, Type (0, 1), BuildingBlock: KIFKEQ_clean_linker_1, # of connection points: 2
#     Edge 53, Type (0, 1), BuildingBlock: KIFKEQ_clean_linker_1, # of connection points: 2
#     Edge 54, Type (0, 1), BuildingBlock: KIFKEQ_clean_linker_1, # of connection points: 2
#     Edge 55, Type (0, 1), BuildingBlock: KIFKEQ_clean_linker_1, # of connection points: 2
#     Edge 56, Type (0, 1), BuildingBlock: KIFKEQ_clean_linker_1, # of connection points: 2
#     Edge 57, Type (0, 1), BuildingBlock: KIFKEQ_clean_linker_1, # of connection points: 2
#     Edge 58, Type (0, 1), BuildingBlock: KIFKEQ_clean_linker_1, # of connection points: 2
#     Edge 59, Type (0, 1), BuildingBlock: KIFKEQ_clean_linker_1, # of connection points: 2
#     Edge 60, Type (0, 1), BuildingBlock: KIFKEQ_clean_linker_1, # of connection points: 2
#     Edge 61, Type (0, 1), BuildingBlock: KIFKEQ_clean_linker_1, # of connection points: 2
#     Edge 62, Type (0, 1), BuildingBlock: KIFKEQ_clean_linker_1, # of connection points: 2
#     Edge 63, Type (0, 1), BuildingBlock: KIFKEQ_clean_linker_1, # of connection points: 2
#     Edge 64, Type (0, 1), BuildingBlock: KIFKEQ_clean_linker_1, # of connection points: 2
#     Edge 65, Type (0, 1), BuildingBlock: KIFKEQ_clean_linker_1, # of connection points: 2
#     Edge 66, Type (0, 1), BuildingBlock: KIFKEQ_clean_linker_1, # of connection points: 2
#     Edge 67, Type (0, 1), BuildingBlock: KIFKEQ_clean_linker_1, # of connection points: 2
#     Edge 68, Type (0, 1), BuildingBlock: KIFKEQ_clean_linker_1, # of connection points: 2
#     Edge 69, Type (0, 1), BuildingBlock: KIFKEQ_clean_linker_1, # of connection points: 2
#     Edge 70, Type (0, 1), BuildingBlock: KIFKEQ_clean_linker_1, # of connection points: 2
#     Edge 71, Type (0, 1), BuildingBlock: KIFKEQ_clean_linker_1, # of connection points: 2
#     Edge 72, Type (0, 1), BuildingBlock: KIFKEQ_clean_linker_1, # of connection points: 2
#     Edge 73, Type (0, 1), BuildingBlock: KIFKEQ_clean_linker_1, # of connection points: 2
#     Edge 74, Type (0, 1), BuildingBlock: KIFKEQ_clean_linker_1, # of connection points: 2
#     Edge 75, Type (0, 1), BuildingBlock: KIFKEQ_clean_linker_1, # of connection points: 2
# Relax obj value: 0.078
# Max RMSD: 0.211
# Mean RMSD: 0.130
data_MOF--net-ctn--node1-UXUYUI_clean_sbu_0--node2-CUQRIR_clean_linker_1--edge1-KIFKEQ_clean_linker_1
_symmetry_space_group_name_H-M    P1
_symmetry_Int_Tables_number       1
_symmetry_cell_setting            triclinic
loop_
_symmetry_equiv_pos_as_xyz
'x, y, z'
_cell_length_a     66.644736
_cell_length_b     62.05199
_cell_length_c     63.44852
_cell_angle_alpha  96.359549
_cell_angle_beta   88.748217
_cell_angle_gamma 92.34305
loop_
_atom_site_label
_atom_site_type_symbol
_atom_site_fract_x
_atom_site_fract_y
_atom_site_fract_z
_atom_type_partial_charge
C0 C 0.04799 0.02626 0.07291 0.0
N1 N 0.05789 0.03407 0.05626 0.0
N2 N 0.03309 0.03943 0.08027 0.0
C3 C 0.05387 1.0067 0.08309 0.0
C4 C 0.03435 0.05565 0.06763 0.0
N5 N 0.04958 0.0526 0.05319 0.0
C6 C 0.01975 0.07363 0.06841 0.0
H7 H 0.04661 0.99195 0.07453 0.0
H8 H 0.04894 0.00781 0.09997 0.0
H9 H 0.07038 1.00494 0.08213 0.0
H10 H 1.00516 0.06886 0.07564 0.0
H11 H 0.01711 0.07808 0.05226 0.0
H12 H 0.02616 0.08815 0.07813 0.0
C13 C 0.28608 0.73068 0.22961 0.0
N14 N 0.29505 0.72018 0.24429 0.0
N15 N 0.2989 0.74567 0.22216 0.0
C16 C 0.26528 0.72514 0.22134 0.0
C17 C 0.31611 0.74376 0.23269 0.0
N18 N 0.31387 0.72813 0.24605 0.0
C19 C 0.33467 0.7581 0.23083 0.0
H20 H 0.2617 0.70748 0.22093 0.0
H21 H 0.26368 0.73 0.20518 0.0
H22 H 0.25424 0.73388 0.2321 0.0
H23 H 0.33101 0.77367 0.225 0.0
H24 H 0.34534 0.74965 0.2194 0.0
H25 H 0.34214 0.76152 0.24637 0.0
C26 C 0.97311 0.49319 0.0755 0.0
N27 N 0.98441 0.47546 0.07552 0.0
N28 N 0.95731 0.48891 0.06233 0.0
C29 C 0.97728 0.51461 0.08857 0.0
C30 C 0.95937 0.46786 0.05449 0.0
N31 N 0.97572 0.45965 0.06259 0.0
C32 C 0.94549 0.45537 0.0387 0.0
H33 H 0.96978 0.51423 0.10431 0.0
H34 H 0.97132 0.52815 0.08085 0.0
H35 H 0.99355 0.51779 0.09113 0.0
H36 H 0.93025 0.46197 0.03987 0.0
H37 H 0.94423 0.43796 0.04111 0.0
H38 H 0.95165 0.4566 0.02247 0.0
C39 C 0.70217 0.77698 0.2364 0.0
N40 N 0.71783 0.78756 0.22748 0.0
N41 N 0.69415 0.78966 0.25294 0.0
C42 C 0.69379 0.75487 0.22803 0.0
C43 C 0.70541 0.80839 0.25372 0.0
N44 N 0.71969 0.80725 0.23809 0.0
C45 C 0.70341 0.82707 0.27082 0.0
H46 H 0.67773 0.75277 0.2326 0.0
H47 H 0.70236 0.74237 0.23477 0.0
H48 H 0.69534 0.75224 0.21049 0.0
H49 H 0.6963 0.82161 0.28538 0.0
H50 H 0.69383 0.83931 0.26504 0.0
H51 H 0.71831 0.83491 0.27482 0.0
C52 C 0.04072 0.96964 0.48005 0.0
N53 N 0.05678 0.97272 0.49297 0.0
N54 N 0.03914 0.98658 0.46856 0.0
C55 C 0.02595 0.95059 0.47938 0.0
C56 C 0.05475 1.00019 0.47498 0.0
N57 N 0.06541 0.99192 0.48999 0.0
C58 C 0.06026 0.02096 0.4657 0.0
H59 H 0.03252 0.93652 0.46971 0.0
H60 H 0.0116 0.95419 0.4722 0.0
H61 H 0.02288 0.946 0.49559 0.0
H62 H 0.0559 0.03487 0.47718 0.0
H63 H 0.05248 0.02188 0.45056 0.0
H64 H 0.07674 0.02242 0.46294 0.0
C65 C 0.20809 0.7359 0.80453 0.0
N66 N 0.22223 0.72577 0.81438 0.0
N67 N 0.20139 0.72325 0.78715 0.0
C68 C 0.19977 0.75748 0.81276 0.0
C69 C 0.21186 0.70495 0.78689 0.0
N70 N 0.22443 0.70634 0.80361 0.0
C71 C 0.21099 0.68659 0.76928 0.0
H72 H 0.20017 0.7601 0.83033 0.0
H73 H 0.18407 0.75865 0.80765 0.0
H74 H 0.20911 0.77057 0.8064 0.0
H75 H 0.20606 0.69225 0.75431 0.0
H76 H 0.20001 0.67387 0.77374 0.0
H77 H 0.22587 0.67928 0.76656 0.0
C78 C 0.96641 0.53869 0.46164 0.0
N79 N 0.98071 0.55496 0.46373 0.0
N80 N 0.95434 0.5393 0.47916 0.0
C81 C 0.96503 0.52131 0.44315 0.0
C82 C 0.96185 0.55648 0.49201 0.0
N83 N 0.97797 0.56586 0.48276 0.0
C84 C 0.95288 0.56468 0.51323 0.0
H85 H 0.95601 0.52716 0.4306 0.0
H86 H 0.95763 0.50622 0.44793 0.0
H87 H 0.98017 0.51762 0.43643 0.0
H88 H 0.95998 0.55655 0.52571 0.0
H89 H 0.93647 0.56092 0.51374 0.0
H90 H 0.95565 0.58244 0.51687 0.0
C91 C 0.78935 0.80407 0.81845 0.0
N92 N 0.80601 0.79207 0.81668 0.0
N93 N 0.79142 0.82105 0.80674 0.0
C94 C 0.77158 0.80006 0.83274 0.0
C95 C 0.81001 0.81901 0.79786 0.0
N96 N 0.81901 0.80158 0.80405 0.0
C97 C 0.81888 0.83322 0.782 0.0
H98 H 0.761 0.7881 0.82412 0.0
H99 H 0.76359 0.81522 0.83747 0.0
H100 H 0.77634 0.79327 0.84722 0.0
H101 H 0.82847 0.8463 0.79047 0.0
H102 H 0.80696 0.84077 0.7737 0.0
H103 H 0.8284 0.82379 0.77005 0.0
C104 C 0.29196 0.30718 0.32143 0.0
N105 N 0.30796 0.29423 0.31891 0.0
N106 N 0.29067 0.31905 0.30488 0.0
C107 C 0.27713 0.30764 0.33968 0.0
C108 C 0.30644 0.31285 0.29215 0.0
N109 N 0.31692 0.29765 0.30055 0.0
C110 C 0.31191 0.32228 0.27183 0.0
H111 H 0.26253 0.31374 0.33535 0.0
H112 H 0.28328 0.31857 0.35324 0.0
H113 H 0.27469 0.29121 0.34485 0.0
H114 H 0.30865 0.33979 0.27329 0.0
H115 H 0.30258 0.31387 0.25892 0.0
H116 H 0.32793 0.32021 0.2673 0.0
C117 C 0.47269 0.99411 0.57661 0.0
N118 N 0.48439 0.97663 0.57617 0.0
N119 N 0.4567 0.98963 0.56377 0.0
C120 C 0.47599 0.01502 0.59073 0.0
C121 C 0.45902 0.96877 0.55558 0.0
N122 N 0.47569 0.96079 0.56323 0.0
C123 C 0.44557 0.95653 0.53925 0.0
H124 H 0.48253 0.01199 0.60601 0.0
H125 H 0.46172 0.0235 0.59395 0.0
H126 H 0.48666 0.02578 0.58273 0.0
H127 H 0.43785 0.96777 0.52998 0.0
H128 H 0.43403 0.94693 0.54747 0.0
H129 H 0.45423 0.9451 0.52822 0.0
C130 C 0.19827 0.28239 0.73203 0.0
N131 N 0.21563 0.29147 0.72496 0.0
N132 N 0.19309 0.29194 0.75155 0.0
C133 C 0.18716 0.2632 0.72043 0.0
C134 C 0.20809 0.3071 0.7561 0.0
N135 N 0.22191 0.30665 0.74005 0.0
C136 C 0.20833 0.32364 0.77535 0.0
H137 H 0.176 0.26913 0.70993 0.0
H138 H 0.17913 0.25328 0.7317 0.0
H139 H 0.19759 0.25281 0.7104 0.0
H140 H 0.21704 0.31746 0.78796 0.0
H141 H 0.19288 0.32671 0.78149 0.0
H142 H 0.21561 0.33919 0.77159 0.0
C143 C 0.79188 0.22476 0.72247 0.0
N144 N 0.79927 0.21569 0.73902 0.0
N145 N 0.80107 0.24433 0.72059 0.0
C146 C 0.77477 0.21514 0.70894 0.0
C147 C 0.81423 0.24695 0.73675 0.0
N148 N 0.81305 0.22961 0.74815 0.0
C149 C 0.82929 0.26566 0.74034 0.0
H150 H 0.78081 0.2036 0.69597 0.0
H151 H 0.76689 0.22789 0.70181 0.0
H152 H 0.7638 0.2061 0.7184 0.0
H153 H 0.83217 0.27349 0.72561 0.0
H154 H 0.84367 0.26018 0.74597 0.0
H155 H 0.82327 0.27791 0.75268 0.0
C156 C 0.54873 0.52605 0.57412 0.0
N157 N 0.55835 0.53346 0.55711 0.0
N158 N 0.53372 0.53918 0.58127 0.0
C159 C 0.55497 0.50692 0.58476 0.0
C160 C 0.53465 0.55497 0.56812 0.0
N161 N 0.54975 0.55168 0.55359 0.0
C162 C 0.51994 0.57281 0.56856 0.0
H163 H 0.54769 0.49192 0.57672 0.0
H164 H 0.55032 0.50851 0.60173 0.0
H165 H 0.57148 0.50528 0.58355 0.0
H166 H 0.52629 0.58751 0.57804 0.0
H167 H 0.50538 0.56808 0.57587 0.0
H168 H 0.51728 0.57697 0.55231 0.0
C169 C 0.54101 0.46908 0.97934 0.0
N170 N 0.55712 0.4722 0.99218 0.0
N171 N 0.54039 0.485 0.96639 0.0
C172 C 0.52513 0.45125 0.98041 0.0
C173 C 0.55668 0.49802 0.97194 0.0
N174 N 0.56676 0.4904 0.98774 0.0
C175 C 0.56341 0.51753 0.96111 0.0
H176 H 0.52991 0.43662 0.97017 0.0
H177 H 0.51051 0.45609 0.97476 0.0
H178 H 0.52314 0.44692 0.99686 0.0
H179 H 0.55728 0.53225 0.97009 0.0
H180 H 0.55789 0.51619 0.94463 0.0
H181 H 0.58003 0.51951 0.9608 0.0
C182 C 0.70916 0.23738 0.30359 0.0
N183 N 0.7235 0.2276 0.31352 0.0
N184 N 0.70163 0.22393 0.28715 0.0
C185 C 0.70134 0.25942 0.31099 0.0
C186 C 0.71175 0.20548 0.28757 0.0
N187 N 0.72495 0.20761 0.30374 0.0
C188 C 0.70964 0.18595 0.27136 0.0
H189 H 0.68571 0.26083 0.30581 0.0
H190 H 0.71101 0.27196 0.30414 0.0
H191 H 0.70176 0.26269 0.32853 0.0
H192 H 0.70369 0.1904 0.2563 0.0
H193 H 0.69903 0.17388 0.27764 0.0
H194 H 0.72432 0.1783 0.26814 0.0
C195 C 0.46469 0.0396 0.96142 0.0
N196 N 0.47911 0.05571 0.96398 0.0
N197 N 0.45237 0.04005 0.97873 0.0
C198 C 0.46347 0.02257 0.94263 0.0
C199 C 0.45985 0.05699 0.99193 0.0
N200 N 0.47627 0.06634 0.98312 0.0
C201 C 0.45005 0.06557 0.01262 0.0
H202 H 0.45448 0.02866 0.93018 0.0
H203 H 0.45613 1.00731 0.94707 0.0
H204 H 0.47865 0.01909 0.93589 0.0
H205 H 0.43373 0.06125 0.01277 0.0
H206 H 0.45214 0.08348 0.0155 0.0
H207 H 0.45708 0.05837 0.02575 0.0
Li208 Li 0.27369 0.90181 0.02426 0.0
Li209 Li 0.25812 0.87741 0.04705 0.0
Li210 Li 0.25376 0.87065 0.00904 0.0
Li211 Li 0.23573 0.90154 0.03065 0.0
C212 C 0.29931 0.87195 0.02268 0.0
N213 N 0.34062 0.8761 0.01834 0.0
C214 C 0.3114 0.87385 0.04059 0.0
C215 C 0.30827 0.8722 1.00258 0.0
C216 C 0.33224 0.87587 0.03805 0.0
C217 C 0.32916 0.87434 1.00071 0.0
C218 C 0.25769 0.91463 0.07257 0.0
C219 C 0.24004 0.9261 0.10523 0.0
N220 N 0.25708 0.92415 0.11617 0.0
C221 C 0.27504 0.9128 0.08413 0.0
C222 C 0.24003 0.92135 0.08318 0.0
C223 C 0.27441 0.91765 0.10616 0.0
C224 C 0.29825 0.92871 0.99985 0.0
N225 N 0.29641 0.921 0.01907 0.0
C226 C 0.32752 0.93908 0.02999 0.0
C227 C 0.31049 0.92622 0.03418 0.0
C228 C 0.33003 0.94697 0.01011 0.0
C229 C 0.31497 0.94173 0.99501 0.0
H230 H 0.28675 0.92472 0.98819 0.0
H231 H 0.30873 0.92007 0.04939 0.0
C232 C 0.27453 0.84488 0.06854 0.0
N233 N 0.26159 0.86139 0.07156 0.0
C234 C 0.2784 0.8324 0.08493 0.0
C235 C 0.25473 0.85319 0.10718 0.0
C236 C 0.25143 0.86542 0.09036 0.0
C237 C 0.26853 0.83646 0.10471 0.0
H238 H 0.28194 0.84133 0.05332 0.0
H239 H 0.24059 0.87797 0.09231 0.0
C240 C 0.24634 0.89936 0.98255 0.0
N241 N 0.23494 0.8935 0.9406 0.0
C242 C 0.22669 0.90327 0.97715 0.0
C243 C 0.26022 0.89263 0.96657 0.0
C244 C 0.22122 0.9002 0.95586 0.0
C245 C 0.25416 0.88969 0.94548 0.0
C246 C 0.22311 0.85614 0.0442 0.0
C247 C 0.22763 0.83421 0.04196 0.0
C248 C 0.20965 0.86409 0.06009 0.0
C249 C 0.21868 0.82056 0.05586 0.0
C250 C 0.20098 0.84991 0.07364 0.0
N251 N 0.20566 0.82863 0.07128 0.0
C252 C 0.26658 0.83524 0.98029 0.0
C253 C 0.2335 0.84562 0.97465 0.0
C254 C 0.26541 0.81935 0.96289 0.0
N255 N 0.25092 0.84827 0.98559 0.0
C256 C 0.23165 0.82988 0.95713 0.0
C257 C 0.24783 0.8166 0.95089 0.0
H258 H 0.28004 0.83714 0.98959 0.0
H259 H 0.22112 0.85593 0.97936 0.0
C260 C 0.21592 0.94137 0.03647 0.0
N261 N 0.21264 0.91952 0.03251 0.0
C262 C 0.19991 0.95536 0.03694 0.0
C263 C 0.17738 0.9242 0.02898 0.0
C264 C 0.19382 0.91077 0.02886 0.0
C265 C 0.18029 0.94687 0.03303 0.0
H266 H 0.23105 0.94795 0.0391 0.0
H267 H 0.1916 0.89337 0.02553 0.0
O268 O 0.27881 0.87036 0.02486 0.0
O269 O 0.258 0.91007 0.05098 0.0
O270 O 0.25188 0.90195 1.00335 0.0
O271 O 0.23213 0.86986 0.03114 0.0
H272 H 0.30479 0.87415 0.05632 0.0
H273 H 0.2992 0.87102 0.98855 0.0
H274 H 0.34175 0.87745 0.05178 0.0
H275 H 0.33626 0.87466 0.98525 0.0
H276 H 0.22647 0.93126 0.11365 0.0
H277 H 0.28874 0.90735 0.07624 0.0
H278 H 0.22643 0.92273 0.07454 0.0
H279 H 0.28769 0.91616 0.11532 0.0
H280 H 0.33877 0.94242 0.04209 0.0
H281 H 0.31596 0.94778 0.97964 0.0
H282 H 0.28926 0.81986 0.08211 0.0
H283 H 0.24632 0.85666 0.12187 0.0
H284 H 0.21575 0.90854 0.98924 0.0
H285 H 0.27545 0.88943 0.97043 0.0
H286 H 0.20605 0.9031 0.95148 0.0
H287 H 0.26472 0.88433 0.93299 0.0
H288 H 0.23811 0.82788 0.02976 0.0
H289 H 0.20614 0.88109 0.0621 0.0
H290 H 0.22213 0.80357 0.05443 0.0
H291 H 0.19061 0.85584 0.0861 0.0
H292 H 0.2781 0.80921 0.95896 0.0
H293 H 0.21784 0.82846 0.94831 0.0
H294 H 0.20295 0.9727 0.0399 0.0
H295 H 0.16253 0.91688 0.02609 0.0
Li296 Li 0.12846 0.52154 0.28902 0.0
Li297 Li 0.15452 0.49548 0.2718 0.0
Li298 Li 0.15627 0.53405 0.26687 0.0
Li299 Li 0.13079 0.51036 0.2486 0.0
C300 C 0.17316 0.532 0.30389 0.0
N301 N 0.20514 0.55632 0.32219 0.0
C302 C 0.19283 0.52599 0.29892 0.0
C303 C 0.16972 0.55028 0.31825 0.0
C304 C 0.2088 0.53853 0.30832 0.0
C305 C 0.18611 0.56238 0.32732 0.0
C306 C 0.11976 0.47179 0.27743 0.0
C307 C 0.11757 0.43302 0.26823 0.0
N308 N 0.11103 0.4305 0.2883 0.0
C309 C 0.11288 0.46885 0.29792 0.0
C310 C 0.122 0.45377 0.2624 0.0
C311 C 0.10859 0.44783 0.30312 0.0
C312 C 0.09167 0.53398 0.30933 0.0
N313 N 0.11074 0.52847 0.31289 0.0
C314 C 0.10461 0.53316 0.35044 0.0
C315 C 0.11736 0.52791 0.33294 0.0
C316 C 0.0848 0.53903 0.34732 0.0
C317 C 0.07842 0.53936 0.32635 0.0
H318 H 0.08675 0.5342 0.29322 0.0
H319 H 0.13258 0.5234 0.33536 0.0
C320 C 0.18661 0.46701 0.26298 0.0
N321 N 0.17047 0.47102 0.27611 0.0
C322 C 0.19925 0.45013 0.2658 0.0
C323 C 0.17852 0.44169 0.29567 0.0
C324 C 0.16642 0.45893 0.29242 0.0
C325 C 0.19531 0.43706 0.28231 0.0
H326 H 0.18993 0.47721 0.2505 0.0
H327 H 0.1539 0.46274 0.30309 0.0
C328 C 0.12628 0.56058 0.26101 0.0
N329 N 0.12517 0.60344 0.25326 0.0
C330 C 0.13393 0.56699 0.2419 0.0
C331 C 0.11797 0.57593 0.27616 0.0
C332 C 0.13328 0.58875 0.2383 0.0
C333 C 0.11756 0.59753 0.27193 0.0
C334 C 0.16324 0.50223 0.22443 0.0
C335 C 0.16898 0.51716 0.21025 0.0
C336 C 0.15997 0.48037 0.21691 0.0
C337 C 0.17116 0.50996 0.1887 0.0
C338 C 0.16229 0.47381 0.19525 0.0
N339 N 0.16778 0.48862 0.1817 0.0
C340 C 0.19307 0.55453 0.25434 0.0
C341 C 0.17249 0.57797 0.27646 0.0
C342 C 0.20804 0.57098 0.25381 0.0
N343 N 0.17561 0.55828 0.26541 0.0
C344 C 0.187 0.59492 0.27628 0.0
C345 C 0.20516 0.5916 0.26486 0.0
H346 H 0.19557 0.53857 0.24625 0.0
H347 H 0.15888 0.58049 0.28579 0.0
C348 C 0.09885 0.48835 0.2246 0.0
N349 N 0.11406 0.50356 0.2237 0.0
C350 C 0.08594 0.48322 0.20746 0.0
C351 C 0.10453 0.5094 0.18857 0.0
C352 C 0.11699 0.51412 0.20613 0.0
C353 C 0.08859 0.49384 0.18905 0.0
H354 H 0.09647 0.48038 0.23881 0.0
H355 H 0.12893 0.52634 0.20568 0.0
O356 O 0.15737 0.52033 0.29435 0.0
O357 O 0.12413 0.49224 0.27209 0.0
O358 O 0.12688 0.5394 0.26491 0.0
O359 O 0.16081 0.50899 0.24555 0.0
H360 H 0.19571 0.51194 0.28773 0.0
H361 H 0.15458 0.55526 0.32209 0.0
H362 H 0.22412 0.53416 0.30452 0.0
H363 H 0.1837 0.57666 0.33835 0.0
H364 H 0.11932 0.41892 0.25679 0.0
H365 H 0.11101 0.48262 0.30972 0.0
H366 H 0.12709 0.45579 0.24642 0.0
H367 H 0.10335 0.4453 0.31894 0.0
H368 H 0.11031 0.53285 0.36625 0.0
H369 H 0.06324 0.54341 0.32308 0.0
H370 H 0.21223 0.44772 0.25538 0.0
H371 H 0.17465 0.43209 0.30851 0.0
H372 H 0.14063 0.55537 0.23015 0.0
H373 H 0.11204 0.57124 0.29106 0.0
H374 H 0.13928 0.59398 0.22363 0.0
H375 H 0.11124 0.60961 0.28353 0.0
H376 H 0.17148 0.53416 0.21578 0.0
H377 H 0.15568 0.4686 0.2277 0.0
H378 H 0.17548 0.52134 0.17752 0.0
H379 H 0.15974 0.45695 0.1892 0.0
H380 H 0.2219 0.56739 0.24516 0.0
H381 H 0.1839 0.61049 0.28493 0.0
H382 H 0.07371 0.47142 0.20889 0.0
H383 H 0.10744 0.51789 0.17474 0.0
Li384 Li 0.75355 0.6264 1.00596 0.0
Li385 Li 0.77011 0.65707 0.02833 0.0
Li386 Li 0.77702 0.65208 0.98844 0.0
Li387 Li 0.79155 0.62764 0.0124 0.0
C388 C 0.73315 0.66144 0.99564 0.0
N389 N 0.6966 0.66721 0.97776 0.0
C390 C 0.71835 0.67299 0.00745 0.0
C391 C 0.72942 0.65299 0.97471 0.0
C392 C 0.69995 0.67568 0.99813 0.0
C393 C 0.71084 0.65604 0.96595 0.0
C394 C 0.76558 0.62534 0.05412 0.0
C395 C 0.77871 0.62658 0.08937 0.0
N396 N 0.75965 0.62537 0.09736 0.0
C397 C 0.74613 0.62385 0.06265 0.0
C398 C 0.78202 0.6265 0.06754 0.0
C399 C 0.74343 0.62399 0.08456 0.0
C400 C 0.73006 0.58717 0.9937 0.0
N401 N 0.7294 0.6077 1.00372 0.0
C402 C 0.69473 0.60166 0.01315 0.0
C403 C 0.71217 0.61504 0.01339 0.0
C404 C 0.69489 0.58032 1.00298 0.0
C405 C 0.71293 0.57318 0.99313 0.0
H406 H 0.74395 0.58155 0.98631 0.0
H407 H 0.71205 0.63119 0.02173 0.0
C408 C 0.78073 0.6914 0.06105 0.0
N409 N 0.76564 0.67767 0.05303 0.0
C410 C 0.77759 0.70557 0.07948 0.0
C411 C 0.74321 0.69186 0.08071 0.0
C412 C 0.74707 0.67785 0.06236 0.0
C413 C 0.75863 0.70588 0.08964 0.0
H414 H 0.79523 0.69144 0.05317 0.0
H415 H 0.73525 0.66691 0.05566 0.0
C416 C 0.78096 0.6111 0.9653 0.0
N417 N 0.79027 0.59405 0.92434 0.0
C418 C 0.80089 0.60722 0.95929 0.0
C419 C 0.76571 0.60595 0.9506 0.0
C420 C 0.80531 0.5987 0.93847 0.0
C421 C 0.77074 0.59744 0.92994 0.0
C422 C 0.81565 0.66554 0.01663 0.0
C423 C 0.82813 0.67375 1.00118 0.0
C424 C 0.8234 0.66313 0.0365 0.0
C425 C 0.84822 0.67924 1.0058 0.0
C426 C 0.84357 0.66879 0.0405 0.0
N427 N 0.85546 0.67665 0.02519 0.0
C428 C 0.77061 0.68414 0.96013 0.0
C429 C 0.79838 0.66248 0.9503 0.0
C430 C 0.77436 0.6961 0.94287 0.0
N431 N 0.78243 0.6675 0.96348 0.0
C432 C 0.80276 0.67412 0.9329 0.0
C433 C 0.79065 0.69121 0.9289 0.0
H434 H 0.75839 0.68842 0.97106 0.0
H435 H 0.80803 0.64973 0.9535 0.0
C436 C 0.80981 0.59215 0.02774 0.0
N437 N 0.81389 0.60985 0.0173 0.0
C438 C 0.82524 0.5789 0.03249 0.0
C439 C 0.84891 0.60222 0.01558 0.0
C440 C 0.83297 0.61477 0.01083 0.0
C441 C 0.84526 0.58394 0.02666 0.0
H442 H 0.7945 0.58831 0.03245 0.0
H443 H 0.83594 0.62853 1.00206 0.0
O444 O 0.75113 0.6583 1.0046 0.0
O445 O 0.7685 0.62556 0.03273 0.0
O446 O 0.77636 0.61936 0.98564 0.0
O447 O 0.79599 0.65986 0.01228 0.0
H448 H 0.72102 0.67974 0.02365 0.0
H449 H 0.74081 0.64427 0.96531 0.0
H450 H 0.68833 0.68451 0.00711 0.0
H451 H 0.70775 0.64955 0.94977 0.0
H452 H 0.79131 0.62756 0.09995 0.0
H453 H 0.73324 0.62282 0.0525 0.0
H454 H 0.79718 0.62723 0.06119 0.0
H455 H 0.72845 0.62303 0.09139 0.0
H456 H 0.68136 0.60785 0.0213 0.0
H457 H 0.71381 0.55697 0.98494 0.0
H458 H 0.78982 0.71632 0.08559 0.0
H459 H 0.72841 0.6914 0.08807 0.0
H460 H 0.81285 0.61098 0.9705 0.0
H461 H 0.75015 0.60835 0.95512 0.0
H462 H 0.82069 0.59579 0.93354 0.0
H463 H 0.7591 0.59346 0.91837 0.0
H464 H 0.82237 0.6759 0.98579 0.0
H465 H 0.81396 0.65692 0.04867 0.0
H466 H 0.85805 0.68557 0.99396 0.0
H467 H 0.84976 0.66692 0.05578 0.0
H468 H 0.76481 0.70938 0.94078 0.0
H469 H 0.81545 0.66966 0.92263 0.0
H470 H 0.82138 0.56475 0.04052 0.0
H471 H 0.86397 0.6071 0.01086 0.0
Li472 Li 0.86772 0.03063 0.285 0.0
Li473 Li 0.89313 0.00908 0.30008 0.0
Li474 Li 0.89355 0.01459 0.26139 0.0
Li475 Li 0.8677 0.98964 0.27531 0.0
C476 C 0.89843 0.05822 0.29293 0.0
N477 N 0.89954 0.1022 0.30615 0.0
C478 C 0.90374 0.06579 0.3137 0.0
C479 C 0.89386 0.07302 0.27883 0.0
C480 C 0.90419 0.08809 0.32009 0.0
C481 C 0.89444 0.09519 0.28584 0.0
C482 C 0.8567 1.00016 0.32241 0.0
C483 C 0.84713 0.97159 0.34394 0.0
N484 N 0.84306 0.98675 0.36048 0.0
C485 C 0.85212 0.01544 0.33953 0.0
C486 C 0.85392 0.97805 0.32453 0.0
C487 C 0.84538 0.00835 0.35868 0.0
C488 C 0.83724 0.05817 0.27498 0.0
N489 N 0.8501 0.05476 0.29052 0.0
C490 C 0.83727 0.085 0.31291 0.0
C491 C 0.85033 0.06778 0.30926 0.0
C492 C 0.82372 0.08885 0.29717 0.0
C493 C 0.82396 0.07517 0.27794 0.0
H494 H 0.83721 0.04761 0.26026 0.0
H495 H 0.86064 0.06482 0.32143 0.0
C496 C 0.92827 0.99672 0.31916 0.0
N497 N 0.91056 1.00655 0.32372 0.0
C498 C 0.9417 0.9942 0.33524 0.0
C499 C 0.91917 0.01317 0.36046 0.0
C500 C 0.90593 0.01492 0.34391 0.0
C501 C 0.93724 1.00249 0.35622 0.0
H502 H 0.93207 0.99089 0.30295 0.0
H503 H 0.89215 0.02331 0.34718 0.0
C504 C 0.86326 0.01314 0.23538 0.0
N505 N 0.86289 0.01276 0.1918 0.0
C506 C 0.85986 0.99364 0.22246 0.0
C507 C 0.86632 0.03247 0.22615 0.0
C508 C 0.85975 0.99378 0.20046 0.0
C509 C 0.86614 0.03193 0.20408 0.0
C510 C 0.90413 0.96717 0.27631 0.0
C511 C 0.91505 0.95623 0.25966 0.0
C512 C 0.90024 0.95735 0.29485 0.0
C513 C 0.92169 0.93552 0.26175 0.0
C514 C 0.90717 0.93664 0.29634 0.0
N515 N 0.91764 0.92623 0.27989 0.0
C516 C 0.92232 0.03673 0.23677 0.0
C517 C 0.91176 1.00175 0.22125 0.0
C518 C 0.93523 0.03942 0.2195 0.0
N519 N 0.91088 0.01814 0.23731 0.0
C520 C 0.92448 1.00373 0.20369 0.0
C521 C 0.9365 0.02276 0.20265 0.0
H522 H 0.92161 0.0494 0.24985 0.0
H523 H 0.90258 0.98709 0.22207 0.0
C524 C 0.83021 0.96793 0.26918 0.0
N525 N 0.8502 0.96428 0.26851 0.0
C526 C 0.81615 0.95092 0.26393 0.0
C527 C 0.84341 0.92649 0.25754 0.0
C528 C 0.85695 0.94404 0.26265 0.0
C529 C 0.82261 0.92973 0.25809 0.0
H530 H 0.82519 0.98421 0.27359 0.0
H531 H 0.87283 0.94136 0.26176 0.0
O532 O 0.89764 0.03643 0.28647 0.0
O533 O 0.86312 1.00684 0.30346 0.0
O534 O 0.86381 0.01327 0.25693 0.0
O535 O 0.8975 0.98745 0.27449 0.0
H536 H 0.90741 0.05459 0.32479 0.0
H537 H 0.88969 0.06744 0.26271 0.0
H538 H 0.90821 0.09417 0.33615 0.0
H539 H 0.8908 0.10681 0.27513 0.0
H540 H 0.84501 0.95453 0.34581 0.0
H541 H 0.85395 0.03261 0.33812 0.0
H542 H 0.85684 0.96596 0.31132 0.0
H543 H 0.84196 0.02001 0.37211 0.0
H544 H 0.83755 0.09491 0.32807 0.0
H545 H 0.81407 0.07762 0.26518 0.0
H546 H 0.95566 0.98623 0.33123 0.0
H547 H 0.91523 0.01991 0.37643 0.0
H548 H 0.85754 0.97851 0.22931 0.0
H549 H 0.86896 0.0477 0.23591 0.0
H550 H 0.85724 0.97879 0.19026 0.0
H551 H 0.86861 0.04675 0.19672 0.0
H552 H 0.91835 0.96363 0.24527 0.0
H553 H 0.8922 0.96573 0.30804 0.0
H554 H 0.9301 0.92684 0.24896 0.0
H555 H 0.90427 0.92887 0.3106 0.0
H556 H 0.94442 0.05423 0.21957 0.0
H557 H 0.92478 0.99055 0.191 0.0
H558 H 0.80038 0.95449 0.26419 0.0
H559 H 0.84925 0.91053 0.25341 0.0
Li560 Li 0.2695 0.15664 0.52871 0.0
Li561 Li 0.25336 0.1259 0.50581 0.0
Li562 Li 0.29122 0.12719 0.51268 0.0
Li563 Li 0.27679 0.15158 0.4887 0.0
C564 C 0.26618 0.1227 0.55387 0.0
N565 N 0.26256 0.11777 0.59656 0.0
C566 C 0.24745 0.11756 0.56274 0.0
C567 C 0.28311 0.12496 0.56664 0.0
C568 C 0.24591 0.11525 0.58438 0.0
C569 C 0.28097 0.1225 0.5882 0.0
C570 C 0.23193 0.1609 0.49823 0.0
C571 C 0.2066 0.1566 0.47137 0.0
N572 N 0.19332 0.16656 0.48545 0.0
C573 C 0.2181 0.17124 0.51239 0.0
C574 C 0.22621 0.15365 0.47752 0.0
C575 C 0.19862 0.17389 0.50564 0.0
C576 C 0.27767 0.19443 0.5584 0.0
N577 N 0.26477 0.17715 0.55331 0.0
C578 C 0.2439 0.18804 0.58351 0.0
C579 C 0.24801 0.17393 0.56533 0.0
C580 C 0.25703 0.20593 0.58937 0.0
C581 C 0.27412 0.20902 0.57647 0.0
H582 H 0.29064 0.19705 0.54836 0.0
H583 H 0.23772 0.1604 0.56074 0.0
C584 C 0.22952 0.08728 0.49207 0.0
N585 N 0.22924 0.10713 0.50358 0.0
C586 C 0.21259 0.07303 0.49171 0.0
C587 C 0.19525 0.09993 0.51484 0.0
C588 C 0.21252 0.11356 0.51485 0.0
C589 C 0.19508 0.07917 0.50333 0.0
H590 H 0.24306 0.08231 0.48348 0.0
H591 H 0.21268 0.12916 0.52429 0.0
C592 C 0.31474 0.16584 0.51837 0.0
N593 N 0.35365 0.17859 0.52951 0.0
C594 C 0.32841 0.17246 0.50312 0.0
C595 C 0.32079 0.166 0.53934 0.0
C596 C 0.34803 0.17877 0.50905 0.0
C597 C 0.34054 0.17242 0.54464 0.0
C598 C 0.28111 0.112 0.46502 0.0
C599 C 0.30095 0.10753 0.45911 0.0
C600 C 0.26612 0.10914 0.4498 0.0
C601 C 0.30555 0.10065 0.4379 0.0
C602 C 0.27132 0.10223 0.42875 0.0
N603 N 0.29076 0.09819 0.42328 0.0
C604 C 0.30933 0.09177 0.52829 0.0
C605 C 0.3327 0.11468 0.51197 0.0
C606 C 0.32473 0.07867 0.5334 0.0
N607 N 0.31353 0.10956 0.51801 0.0
C608 C 0.34859 0.10211 0.51687 0.0
C609 C 0.34479 0.08384 0.52788 0.0
H610 H 0.29396 0.08776 0.53264 0.0
H611 H 0.33575 0.12853 0.50335 0.0
C612 C 0.27009 0.18356 0.46056 0.0
N613 N 0.28234 0.16733 0.46401 0.0
C614 C 0.27423 0.19637 0.444 0.0
C615 C 0.30356 0.17567 0.43463 0.0
C616 C 0.29883 0.16322 0.45136 0.0
C617 C 0.29131 0.19273 0.43082 0.0
H618 H 0.25725 0.1869 0.47092 0.0
H619 H 0.30874 0.15071 0.45463 0.0
O620 O 0.26795 0.12516 0.53272 0.0
O621 O 0.25098 0.15791 0.50462 0.0
O622 O 0.29551 0.15942 0.51279 0.0
O623 O 0.27634 0.11878 0.48569 0.0
H624 H 0.23421 0.11554 0.55308 0.0
H625 H 0.29779 0.12838 0.55997 0.0
H626 H 0.23147 0.11144 0.59148 0.0
H627 H 0.29395 0.12427 0.59827 0.0
H628 H 0.20195 0.151 0.4554 0.0
H629 H 0.22233 0.17706 0.52844 0.0
H630 H 0.23682 0.14587 0.46632 0.0
H631 H 0.18772 0.18176 0.51645 0.0
H632 H 0.23063 0.1848 0.59297 0.0
H633 H 0.28449 0.22276 0.58007 0.0
H634 H 0.21344 0.05716 0.48283 0.0
H635 H 0.18215 0.10569 0.5238 0.0
H636 H 0.32397 0.17263 0.48687 0.0
H637 H 0.31032 0.16139 0.55142 0.0
H638 H 0.3588 0.18382 0.49738 0.0
H639 H 0.34543 0.17255 0.5608 0.0
H640 H 0.31271 0.10955 0.47073 0.0
H641 H 0.25063 0.1121 0.4542 0.0
H642 H 0.32087 0.09728 0.43306 0.0
H643 H 0.25989 0.10002 0.41678 0.0
H644 H 0.32087 0.06452 0.54144 0.0
H645 H 0.36373 0.10694 0.51235 0.0
H646 H 0.26413 0.20908 0.44164 0.0
H647 H 0.31707 0.17237 0.42524 0.0
Li648 Li 0.39357 0.50898 0.79917 0.0
Li649 Li 0.36774 0.53027 0.78585 0.0
Li650 Li 0.36771 0.49094 0.77639 0.0
Li651 Li 0.39338 0.51408 0.76162 0.0
C652 C 0.35989 0.51642 0.82519 0.0
N653 N 0.35144 0.53543 0.8657 0.0
C654 C 0.37073 0.53509 0.83351 0.0
C655 C 0.34477 0.50741 0.83748 0.0
C656 C 0.36622 0.54446 0.85401 0.0
C657 C 0.34072 0.51726 0.85793 0.0
C658 C 0.40236 0.55611 0.77887 0.0
C659 C 0.39658 0.58328 0.75552 0.0
N660 N 0.41263 0.59527 0.76384 0.0
C661 C 0.41879 0.56869 0.78719 0.0
C662 C 0.39115 0.56343 0.7629 0.0
C663 C 0.42374 0.58846 0.77939 0.0
C664 C 0.43035 0.51482 0.82057 0.0
N665 N 0.41135 0.50625 0.82218 0.0
C666 C 0.41892 0.4935 0.8553 0.0
C667 C 0.40543 0.49574 0.83913 0.0
C668 C 0.4387 0.50216 0.85407 0.0
C669 C 0.4443 0.513 0.83639 0.0
H670 H 0.43474 0.5229 0.80684 0.0
H671 H 0.39027 0.48899 0.84007 0.0
C672 C 0.33044 0.54997 0.7876 0.0
N673 N 0.35012 0.55419 0.79218 0.0
C674 C 0.31656 0.56636 0.79111 0.0
C675 C 0.3434 0.59127 0.80411 0.0
C676 C 0.35671 0.57427 0.80067 0.0
C677 C 0.32296 0.58755 0.79918 0.0
H678 H 0.32551 0.5338 0.78116 0.0
H679 H 0.37236 0.57724 0.80457 0.0
C680 C 0.40178 0.46752 0.78137 0.0
N681 N 0.41124 0.42877 0.79567 0.0
C682 C 0.41796 0.45597 0.77232 0.0
C683 C 0.39038 0.45935 0.79767 0.0
C684 C 0.42251 0.43641 0.77977 0.0
C685 C 0.39541 0.43974 0.80469 0.0
C686 C 0.35817 0.50455 0.73785 0.0
C687 C 0.3695 0.48825 0.72697 0.0
C688 C 0.34091 0.51115 0.72868 0.0
C689 C 0.36333 0.47881 0.70704 0.0
C690 C 0.33524 0.50131 0.70871 0.0
N691 N 0.34647 0.48548 0.69839 0.0
C692 C 0.33187 0.46511 0.77932 0.0
C693 C 0.35681 0.44821 0.75679 0.0
C694 C 0.31871 0.44706 0.77507 0.0
N695 N 0.35052 0.46536 0.77022 0.0
C696 C 0.34407 0.4299 0.75198 0.0
C697 C 0.32472 0.42911 0.7612 0.0
H698 H 0.32719 0.479 0.78983 0.0
H699 H 0.37173 0.44872 0.74978 0.0
C700 C 0.42943 0.51022 0.73792 0.0
N701 N 0.41066 0.51793 0.7376 0.0
C702 C 0.4429 0.51236 0.72101 0.0
C703 C 0.41754 0.53054 0.70377 0.0
C704 C 0.40453 0.52798 0.72099 0.0
C705 C 0.43703 0.52263 0.70358 0.0
H706 H 0.43396 0.50244 0.7514 0.0
H707 H 0.38951 0.53396 0.72107 0.0
O708 O 0.36394 0.5069 0.80515 0.0
O709 O 0.3975 0.53663 0.78626 0.0
O710 O 0.39724 0.48672 0.77422 0.0
O711 O 0.36379 0.51398 0.75745 0.0
H712 H 0.38252 0.54229 0.8243 0.0
H713 H 0.33626 0.49295 0.83127 0.0
H714 H 0.37448 0.55891 0.86064 0.0
H715 H 0.32906 0.51046 0.86762 0.0
H716 H 0.38803 0.58914 0.74317 0.0
H717 H 0.42763 0.56323 0.79955 0.0
H718 H 0.37834 0.55397 0.75631 0.0
H719 H 0.43643 0.59837 0.78568 0.0
H720 H 0.41383 0.48522 0.8687 0.0
H721 H 0.45943 0.51967 0.83456 0.0
H722 H 0.30096 0.56235 0.78757 0.0
H723 H 0.34925 0.60723 0.81017 0.0
H724 H 0.42691 0.46206 0.75965 0.0
H725 H 0.37777 0.468 0.80485 0.0
H726 H 0.43501 0.4273 0.77292 0.0
H727 H 0.38673 0.43325 0.81731 0.0
H728 H 0.38289 0.48291 0.73385 0.0
H729 H 0.33198 0.52374 0.73693 0.0
H730 H 0.37194 0.46616 0.69846 0.0
H731 H 0.3219 0.50625 0.70141 0.0
H732 H 0.30387 0.4473 0.78237 0.0
H733 H 0.34945 0.41637 0.74141 0.0
H734 H 0.45784 0.50629 0.72172 0.0
H735 H 0.41228 0.53836 0.6906 0.0
Li736 Li 0.77479 0.40233 0.52468 0.0
Li737 Li 0.75846 0.37753 0.5479 0.0
Li738 Li 0.75457 0.37178 0.50904 0.0
Li739 Li 0.73676 0.40164 0.52986 0.0
C740 C 0.79985 0.3707 0.52435 0.0
N741 N 0.84134 0.37114 0.52207 0.0
C742 C 0.81091 0.36819 0.54233 0.0
C743 C 0.80993 0.37332 0.50518 0.0
C744 C 0.83187 0.36846 0.54086 0.0
C745 C 0.8309 0.37355 0.50436 0.0
C746 C 0.76304 0.41847 0.57114 0.0
C747 C 0.75465 0.44027 0.60376 0.0
N748 N 0.77232 0.43533 0.61207 0.0
C749 C 0.78105 0.41353 0.58004 0.0
C750 C 0.74967 0.43187 0.58312 0.0
C751 C 0.78549 0.42223 0.60074 0.0
C752 C 0.7981 0.43209 0.50248 0.0
N753 N 0.79784 0.42135 0.52005 0.0
C754 C 0.83067 0.43619 0.52918 0.0
C755 C 0.81363 0.42341 0.53347 0.0
C756 C 0.83154 0.44713 0.51091 0.0
C757 C 0.81484 0.44507 0.49757 0.0
H758 H 0.78538 0.4304 0.49208 0.0
H759 H 0.81326 0.41484 0.54734 0.0
C760 C 0.76933 0.34197 0.56796 0.0
N761 N 0.76146 0.36187 0.57238 0.0
C762 C 0.77349 0.32948 0.58425 0.0
C763 C 0.76059 0.3577 0.60954 0.0
C764 C 0.75656 0.36963 0.59268 0.0
C765 C 0.76948 0.33741 0.6055 0.0
H766 H 0.77272 0.33592 0.55167 0.0
H767 H 0.74979 0.3852 0.59592 0.0
C768 C 0.7486 0.39999 0.48232 0.0
N769 N 0.73881 0.39327 0.43993 0.0
C770 C 0.7288 0.4019 0.47617 0.0
C771 C 0.76345 0.39484 0.46689 0.0
C772 C 0.72415 0.39842 0.45466 0.0
C773 C 0.75819 0.39143 0.44555 0.0
C774 C 0.71779 0.36508 0.54507 0.0
C775 C 0.70594 0.34604 0.54097 0.0
C776 C 0.71397 0.3793 0.56325 0.0
C777 C 0.69039 0.34155 0.55515 0.0
C778 C 0.6983 0.37423 0.57705 0.0
N779 N 0.68693 0.35561 0.57275 0.0
C780 C 0.76855 0.33825 0.47865 0.0
C781 C 0.7344 0.34608 0.47507 0.0
C782 C 0.76757 0.32272 0.46094 0.0
N783 N 0.7522 0.34979 0.48518 0.0
C784 C 0.73273 0.33068 0.45727 0.0
C785 C 0.74952 0.31883 0.44986 0.0
H786 H 0.78239 0.34104 0.4872 0.0
H787 H 0.72154 0.35529 0.48071 0.0
C788 C 0.71669 0.44137 0.53614 0.0
N789 N 0.71355 0.41957 0.5316 0.0
C790 C 0.70063 0.45532 0.53673 0.0
C791 C 0.67832 0.42419 0.52768 0.0
C792 C 0.69481 0.41083 0.52738 0.0
C793 C 0.68108 0.44682 0.53238 0.0
H794 H 0.73177 0.44798 0.5391 0.0
H795 H 0.69267 0.39349 0.52351 0.0
O796 O 0.7793 0.37074 0.52551 0.0
O797 O 0.75831 0.40999 0.55095 0.0
O798 O 0.75336 0.40287 0.50334 0.0
O799 O 0.73313 0.3696 0.53139 0.0
H800 H 0.80347 0.36627 0.55734 0.0
H801 H 0.80167 0.37544 0.49114 0.0
H802 H 0.8406 0.36663 0.55468 0.0
H803 H 0.83887 0.37572 0.48967 0.0
H804 H 0.74446 0.45068 0.6132 0.0
H805 H 0.7912 0.40259 0.5713 0.0
H806 H 0.73555 0.43568 0.57658 0.0
H807 H 0.79934 0.41843 0.60785 0.0
H808 H 0.84301 0.43753 0.54013 0.0
H809 H 0.81484 0.45303 0.48322 0.0
H810 H 0.77978 0.31372 0.58016 0.0
H811 H 0.7572 0.36458 0.62559 0.0
H812 H 0.71711 0.40587 0.48786 0.0
H813 H 0.77884 0.3933 0.47135 0.0
H814 H 0.70886 0.39975 0.44969 0.0
H815 H 0.76951 0.38728 0.43347 0.0
H816 H 0.70874 0.33487 0.52696 0.0
H817 H 0.72298 0.39409 0.56667 0.0
H818 H 0.68109 0.32687 0.55218 0.0
H819 H 0.69518 0.38509 0.59117 0.0
H820 H 0.78078 0.31372 0.4561 0.0
H821 H 0.71855 0.32839 0.44917 0.0
H822 H 0.70358 0.47263 0.54014 0.0
H823 H 0.66355 0.41683 0.52443 0.0
Li824 Li 0.6532 0.9949 0.77341 0.0
Li825 Li 0.62839 0.02066 0.79032 0.0
Li826 Li 0.62952 0.00957 0.7504 0.0
Li827 Li 0.65605 0.03467 0.76761 0.0
C828 C 0.62036 0.97085 0.77942 0.0
N829 N 0.61543 0.92911 0.79047 0.0
C830 C 0.61421 0.96738 0.80001 0.0
C831 C 0.62382 0.95311 0.76439 0.0
C832 C 0.61183 0.94614 0.8053 0.0
C833 C 0.62131 0.93213 0.77031 0.0
C834 C 0.66391 0.0301 0.81392 0.0
C835 C 0.66951 0.06176 0.83908 0.0
N836 N 0.67598 0.04891 0.85337 0.0
C837 C 0.67083 0.01723 0.82877 0.0
C838 C 0.66341 0.05257 0.81904 0.0
C839 C 0.67678 0.02703 0.84866 0.0
C840 C 0.68308 0.96413 0.76237 0.0
N841 N 0.66916 0.97045 0.77756 0.0
C842 C 0.67965 0.94358 0.79895 0.0
C843 C 0.66724 0.96051 0.79561 0.0
C844 C 0.69436 0.93687 0.78365 0.0
C845 C 0.69583 0.94732 0.76507 0.0
H846 H 0.68452 0.97236 0.74824 0.0
H847 H 0.65628 0.96597 0.80763 0.0
C848 C 0.59272 0.03629 0.81036 0.0
N849 N 0.61064 0.02797 0.81438 0.0
C850 C 0.57895 0.04177 0.82686 0.0
C851 C 0.60218 0.02997 0.85147 0.0
C852 C 0.61548 0.02463 0.83447 0.0
C853 C 0.58355 0.03862 0.8478 0.0
H854 H 0.5891 0.03865 0.79426 0.0
H855 H 0.62952 0.01747 0.83733 0.0
C856 C 0.66152 1.00441 0.72526 0.0
N857 N 0.66495 0.99659 0.68165 0.0
C858 C 0.66775 0.02115 0.71331 0.0
C859 C 0.65721 0.98365 0.71507 0.0
C860 C 0.66937 0.01688 0.69126 0.0
C861 C 0.65897 0.98004 0.693 0.0
C862 C 0.62217 0.06036 0.76668 0.0
C863 C 0.61725 0.06867 0.74795 0.0
C864 C 0.62222 0.07395 0.78579 0.0
C865 C 0.61289 0.09056 0.74856 0.0
C866 C 0.61776 0.09574 0.78576 0.0
N867 N 0.61326 0.10354 0.76729 0.0
C868 C 0.59874 0.98625 0.72574 0.0
C869 C 0.61463 0.01453 0.70868 0.0
C870 C 0.58597 0.98091 0.70852 0.0
N871 N 0.61273 1.00283 0.72558 0.0
C872 C 0.60216 0.00976 0.69112 0.0
C873 C 0.58744 0.99279 0.69086 0.0
H874 H 0.59735 0.97719 0.73933 0.0
H875 H 0.62575 0.02771 0.70883 0.0
C876 C 0.69295 0.05792 0.77569 0.0
N877 N 0.67547 0.05841 0.76507 0.0
C878 C 0.70787 0.07434 0.77466 0.0
C879 C 0.68686 0.09132 0.75131 0.0
C880 C 0.67227 0.07465 0.75293 0.0
C881 C 0.70499 0.09136 0.76229 0.0
H882 H 0.6954 0.04465 0.7849 0.0
H883 H 0.65853 0.07456 0.74423 0.0
O884 O 0.62302 0.99152 0.77403 0.0
O885 O 0.65796 0.02074 0.79438 0.0
O886 O 0.65957 0.00834 0.74683 0.0
O887 O 0.62645 0.03894 0.76636 0.0
H888 H 0.61142 0.98092 0.81182 0.0
H889 H 0.62853 0.95552 0.74838 0.0
H890 H 0.60717 0.94321 0.8212 0.0
H891 H 0.62405 0.91824 0.75888 0.0
H892 H 0.66917 0.07913 0.84325 0.0
H893 H 0.6715 0.99986 0.82504 0.0
H894 H 0.65863 0.06284 0.80758 0.0
H895 H 0.68205 0.01725 0.86035 0.0
H896 H 0.6781 0.93625 0.81364 0.0
H897 H 0.70673 0.94258 0.7527 0.0
H898 H 0.56487 0.04855 0.82323 0.0
H899 H 0.60625 0.02687 0.86726 0.0
H900 H 0.67117 0.03729 0.72095 0.0
H901 H 0.65243 0.97051 0.72411 0.0
H902 H 0.67408 0.0297 0.68179 0.0
H903 H 0.65557 0.96409 0.68488 0.0
H904 H 0.61694 0.05837 0.73306 0.0
H905 H 0.62545 0.06772 0.80053 0.0
H906 H 0.60921 0.09723 0.73414 0.0
H907 H 0.6178 0.10644 0.80043 0.0
H908 H 0.57512 0.96751 0.70906 0.0
H909 H 0.60377 0.01963 0.6781 0.0
H910 H 0.7217 0.07345 0.78311 0.0
H911 H 0.68392 0.10412 0.74163 0.0
Li912 Li 0.02036 0.24464 0.8924 0.0
Li913 Li 1.00113 0.25855 0.92283 0.0
Li914 Li 0.00685 0.22007 0.9176 0.0
Li915 Li 0.98337 0.23725 0.89399 0.0
C916 C 0.04549 0.23552 0.92428 0.0
N917 N 0.08239 0.21748 0.92746 0.0
C918 C 0.05875 0.24403 0.94012 0.0
C919 C 0.05101 0.2178 0.91006 0.0
C920 C 0.07734 0.2347 0.94146 0.0
C921 C 0.06973 0.20892 0.91193 0.0
C922 C 0.00616 0.28559 0.89027 0.0
C923 C 0.00569 0.31822 0.87291 0.0
N924 N 0.02216 0.32619 0.88393 0.0
C925 C 0.02307 0.2941 0.90143 0.0
C926 C 0.99738 0.29772 0.87589 0.0
C927 C 0.03093 0.31466 0.898 0.0
C928 C 0.03989 0.24575 0.85211 0.0
N929 N 0.04236 0.2506 0.87337 0.0
C930 C 0.07613 0.26367 0.86764 0.0
C931 C 0.05994 0.25974 0.88124 0.0
C932 C 0.07407 0.2587 0.84567 0.0
C933 C 0.05559 0.24985 0.83788 0.0
H934 H 0.02571 0.23867 0.84623 0.0
H935 H 0.06148 0.26406 0.8981 0.0
C936 C 0.011 0.28508 0.96127 0.0
N937 N 0.9989 0.28328 0.94412 0.0
C938 C 0.01019 0.30318 0.97653 0.0
C939 C 0.9842 0.31708 0.95643 0.0
C940 C 0.9857 0.29887 0.94143 0.0
C941 C 0.99662 0.31949 0.97424 0.0
H942 H 0.02134 0.27246 0.96307 0.0
H943 H 0.97637 0.2972 0.92757 0.0
C944 C 0.99732 0.19701 0.87699 0.0
N945 N 0.98062 0.15788 0.85927 0.0
C946 C 0.98006 0.18807 0.8861 0.0
C947 C 0.00604 0.18612 0.85884 0.0
C948 C 0.97185 0.16825 0.8769 0.0
C949 C 0.9974 0.16632 0.85014 0.0
C950 C 0.96905 0.24353 0.94087 0.0
C951 C 0.97329 0.24136 0.96198 0.0
C952 C 0.95323 0.25626 0.93623 0.0
C953 C 0.96168 0.25209 0.97816 0.0
C954 C 0.94195 0.2667 0.95286 0.0
N955 N 0.94639 0.26444 0.97331 0.0
C956 C 0.01882 0.19988 0.95269 0.0
C957 C 0.01457 0.17459 0.92222 0.0
C958 C 0.02548 0.18366 0.96423 0.0
N959 N 0.01345 0.19518 0.93207 0.0
C960 C 0.0209 0.1578 0.93327 0.0
C961 C 0.02661 0.16224 0.95455 0.0
H962 H 0.01838 0.21642 0.96008 0.0
H963 H 0.01108 0.17113 0.90565 0.0
C964 C 0.96111 0.23905 0.85665 0.0
N965 N 0.95955 0.2333 0.87672 0.0
C966 C 0.94452 0.23662 0.84328 0.0
C967 C 0.92491 0.22236 0.87137 0.0
C968 C 0.94192 0.22497 0.88419 0.0
C969 C 0.92602 0.22822 0.85055 0.0
H970 H 0.97528 0.24561 0.85105 0.0
H971 H 0.94104 0.2203 0.90012 0.0
O972 O 0.02714 0.24441 0.92301 0.0
O973 O 0.99819 0.26547 0.89325 0.0
O974 O 0.0054 0.21659 0.88543 0.0
O975 O 0.98059 0.23367 0.92482 0.0
H976 H 0.05472 0.25772 0.95126 0.0
H977 H 0.04101 0.21093 0.89769 0.0
H978 H 0.08774 0.24113 0.95364 0.0
H979 H 0.07418 0.19522 0.90104 0.0
H980 H 0.99906 0.32779 0.86182 0.0
H981 H 0.03007 0.28497 0.91263 0.0
H982 H 0.98428 0.29132 0.86712 0.0
H983 H 0.04402 0.32144 0.90652 0.0
H984 H 0.09005 0.27081 0.87423 0.0
H985 H 0.05345 0.24581 0.82101 0.0
H986 H 0.01991 0.30428 0.99009 0.0
H987 H 0.97369 0.32935 0.95389 0.0
H988 H 0.97314 0.19625 0.90018 0.0
H989 H 0.01935 0.19292 0.85157 0.0
H990 H 0.95852 0.16112 0.88378 0.0
H991 H 1.004 0.15769 0.83611 0.0
H992 H 0.9855 0.23163 0.96584 0.0
H993 H 0.94993 0.25837 0.91999 0.0
H994 H 0.96486 0.25064 0.99458 0.0
H995 H 0.92975 0.27671 0.94952 0.0
H996 H 0.02964 0.18786 0.98062 0.0
H997 H 0.02184 0.14161 0.92505 0.0
H998 H 0.94612 0.24165 0.8275 0.0
H999 H 0.9111 0.21557 0.87764 0.0
Li1000 Li 0.51995 0.74316 0.39231 0.0
Li1001 Li 0.49978 0.75891 0.42327 0.0
Li1002 Li 0.50603 0.7184 0.41713 0.0
Li1003 Li 0.483 0.73512 0.3941 0.0
C1004 C 0.54547 0.74538 0.4262 0.0
N1005 N 0.58645 0.74924 0.43215 0.0
C1006 C 0.55427 0.76501 0.43514 0.0
C1007 C 0.55745 0.72763 0.42056 0.0
C1008 C 0.57503 0.76666 0.43794 0.0
C1009 C 0.57816 0.72992 0.42362 0.0
C1010 C 0.48412 0.77943 0.3906 0.0
C1011 C 0.4534 0.7971 0.40137 0.0
N1012 N 0.45639 0.81033 0.38578 0.0
C1013 C 0.48689 0.79318 0.37469 0.0
C1014 C 0.46725 0.78138 0.40407 0.0
C1015 C 0.4727 0.80871 0.37251 0.0
C1016 C 0.54524 0.73617 0.35555 0.0
N1017 N 0.54238 0.74915 0.374 0.0
C1018 C 0.57159 0.77104 0.3667 0.0
C1019 C 0.55497 0.76655 0.37956 0.0
C1020 C 0.57516 0.75775 0.34764 0.0
C1021 C 0.56158 0.74016 0.34212 0.0
H1022 H 0.53474 0.72278 0.35115 0.0
H1023 H 0.55211 0.77698 0.39401 0.0
C1024 C 0.48771 0.78267 0.46259 0.0
N1025 N 0.49812 0.78393 0.44406 0.0
C1026 C 0.48665 0.80087 0.47769 0.0
C1027 C 0.50735 0.82124 0.45458 0.0
C1028 C 0.50783 0.80272 0.43983 0.0
C1029 C 0.4966 0.82053 0.47383 0.0
H1030 H 0.4803 0.76749 0.46569 0.0
H1031 H 0.51602 0.80329 0.42498 0.0
C1032 C 0.50793 0.69427 0.37716 0.0
N1033 N 0.5139 0.65192 0.36046 0.0
C1034 C 0.4916 0.68069 0.37013 0.0
C1035 C 0.5273 0.68637 0.37549 0.0
C1036 C 0.49493 0.65932 0.36178 0.0
C1037 C 0.53001 0.66489 0.36707 0.0
C1038 C 0.46335 0.72187 0.43016 0.0
C1039 C 0.46063 0.70036 0.42129 0.0
C1040 C 0.44839 0.73148 0.44337 0.0
C1041 C 0.44297 0.68873 0.42584 0.0
C1042 C 0.43094 0.71931 0.44755 0.0
N1043 N 0.42861 0.69836 0.43877 0.0
C1044 C 0.5228 0.69888 0.45039 0.0
C1045 C 0.50809 0.67275 0.42475 0.0
C1046 C 0.52929 0.68252 0.46187 0.0
N1047 N 0.51259 0.69384 0.43205 0.0
C1048 C 0.51429 0.65586 0.43574 0.0
C1049 C 0.5252 0.66058 0.45455 0.0
H1050 H 0.52608 0.7157 0.45608 0.0
H1051 H 0.49982 0.66887 0.41033 0.0
C1052 C 0.46255 0.7253 0.35545 0.0
N1053 N 0.45929 0.73107 0.37652 0.0
C1054 C 0.44653 0.72281 0.34137 0.0
C1055 C 0.42387 0.73232 0.37079 0.0
C1056 C 0.44037 0.73464 0.38434 0.0
C1057 C 0.42679 0.72644 0.3489 0.0
H1058 H 0.47771 0.72272 0.34954 0.0
H1059 H 0.43805 0.7397 0.40102 0.0
O1060 O 0.52519 0.74352 0.42318 0.0
O1061 O 0.49782 0.76405 0.39281 0.0
O1062 O 0.50495 0.71525 0.38537 0.0
O1063 O 0.48036 0.73365 0.42558 0.0
H1064 H 0.54518 0.77887 0.43972 0.0
H1065 H 0.55083 0.71223 0.41397 0.0
H1066 H 0.58207 0.7818 0.44471 0.0
H1067 H 0.58763 0.71633 0.41925 0.0
H1068 H 0.44028 0.79877 0.41166 0.0
H1069 H 0.49987 0.79184 0.36413 0.0
H1070 H 0.46483 0.77084 0.41644 0.0
H1071 H 0.47464 0.81947 0.36025 0.0
H1072 H 0.58163 0.78468 0.37181 0.0
H1073 H 0.56334 0.72974 0.32739 0.0
H1074 H 0.47835 0.79949 0.49238 0.0
H1075 H 0.51505 0.83607 0.4508 0.0
H1076 H 0.4765 0.68652 0.37124 0.0
H1077 H 0.54013 0.69672 0.38056 0.0
H1078 H 0.48243 0.64861 0.35638 0.0
H1079 H 0.54492 0.65855 0.36574 0.0
H1080 H 0.47193 0.69283 0.41084 0.0
H1081 H 0.45015 0.74821 0.45016 0.0
H1082 H 0.44066 0.67206 0.41904 0.0
H1083 H 0.41921 0.72654 0.45771 0.0
H1084 H 0.53726 0.68709 0.47648 0.0
H1085 H 0.51084 0.63925 0.42933 0.0
H1086 H 0.4496 0.71801 0.32472 0.0
H1087 H 0.40905 0.73566 0.37735 0.0
Li1088 Li 0.01905 0.80303 0.63371 0.0
Li1089 Li 0.99485 0.78404 0.65987 0.0
Li1090 Li 0.0324 0.77812 0.65793 0.0
Li1091 Li 0.01062 0.76318 0.62862 0.0
C1092 C 0.02382 0.81934 0.68303 0.0
N1093 N 0.03536 0.84629 0.71868 0.0
C1094 C 0.0144 0.81715 0.70263 0.0
C1095 C 0.03892 0.83543 0.68152 0.0
C1096 C 0.0205 0.83088 0.72048 0.0
C1097 C 0.04459 0.84884 0.69974 0.0
C1098 C 0.9762 0.78577 0.61573 0.0
C1099 C 0.94217 0.77363 0.60745 0.0
N1100 N 0.94427 0.78161 0.58837 0.0
C1101 C 0.978 0.79399 0.59611 0.0
C1102 C 0.95812 0.77562 0.62154 0.0
C1103 C 0.96169 0.79167 0.58247 0.0
C1104 C 0.03274 0.82336 0.59829 0.0
N1105 N 0.02552 0.82786 0.61845 0.0
C1106 C 0.0295 0.86606 0.61565 0.0
C1107 C 0.02373 0.84873 0.62724 0.0
C1108 C 0.03726 0.8619 0.59481 0.0
C1109 C 0.0387 0.84012 0.5862 0.0
H1110 H 0.03394 0.80666 0.59159 0.0
H1111 H 0.01799 0.85196 0.64331 0.0
C1112 C 0.97069 0.77106 0.69369 0.0
N1113 N 0.97183 0.78565 0.67915 0.0
C1114 C 0.95472 0.77102 0.70838 0.0
C1115 C 0.94121 0.80112 0.69306 0.0
C1116 C 0.95748 0.80055 0.67858 0.0
C1117 C 0.93963 0.78621 0.7083 0.0
H1118 H 0.98236 0.75951 0.69403 0.0
H1119 H 0.95864 0.81198 0.66687 0.0
C1120 C 0.05647 0.78216 0.62092 0.0
N1121 N 0.09605 0.78964 0.60911 0.0
C1122 C 0.0656 0.76801 0.60527 0.0
C1123 C 0.06743 0.8001 0.63056 0.0
C1124 C 0.08564 0.77206 0.59952 0.0
C1125 C 0.08743 0.80362 0.62437 0.0
C1126 C 1.00453 0.73522 0.65773 0.0
C1127 C 0.01886 0.72038 0.66157 0.0
C1128 C 0.98503 0.72782 0.65232 0.0
C1129 C 0.01348 0.69826 0.6597 0.0
C1130 C 0.98025 0.70558 0.65059 0.0
N1131 N 0.99446 0.69138 0.65427 0.0
C1132 C 0.05766 0.78078 0.6945 0.0
C1133 C 0.06881 0.75798 0.66452 0.0
C1134 C 0.07412 0.77577 0.70609 0.0
N1135 N 0.05537 0.77205 0.67402 0.0
C1136 C 0.08549 0.75248 0.67554 0.0
C1137 C 0.08835 0.76142 0.69665 0.0
H1138 H 0.04661 0.79135 0.70206 0.0
H1139 H 0.06649 0.75081 0.6484 0.0
C1140 C 0.99331 0.73598 0.59242 0.0
N1141 N 0.00789 0.73831 0.6073 0.0
C1142 C 0.99258 0.71789 0.57715 0.0
C1143 C 0.02162 0.70457 0.59287 0.0
C1144 C 0.02202 0.72312 0.60759 0.0
C1145 C 0.00681 0.70183 0.57731 0.0
H1146 H 0.98223 0.74808 0.5922 0.0
H1147 H 0.03372 0.72546 0.61927 0.0
O1148 O 0.01789 0.80616 0.66536 0.0
O1149 O 0.99193 0.78801 0.62933 0.0
O1150 O 0.03695 0.77826 0.62691 0.0
O1151 O 0.00959 0.75689 0.65913 0.0
H1152 H 1.00266 0.80484 0.70411 0.0
H1153 H 0.04612 0.83767 0.66645 0.0
H1154 H 0.01344 0.82927 0.73577 0.0
H1155 H 0.0563 0.86131 0.6988 0.0
H1156 H 0.92811 0.76575 0.61169 0.0
H1157 H 0.99187 0.80198 0.59145 0.0
H1158 H 0.95644 0.76935 0.63675 0.0
H1159 H 0.96288 0.79787 0.5672 0.0
H1160 H 0.02822 0.88253 0.62307 0.0
H1161 H 0.04417 0.83598 0.57012 0.0
H1162 H 0.95443 0.75944 0.71996 0.0
H1163 H 0.92989 0.81299 0.69217 0.0
H1164 H 0.05729 0.75401 0.59768 0.0
H1165 H 0.06058 0.8111 0.64276 0.0
H1166 H 0.09292 0.76123 0.58745 0.0
H1167 H 0.09611 0.81744 0.63172 0.0
H1168 H 0.03401 0.72588 0.66581 0.0
H1169 H 0.97378 0.73913 0.64933 0.0
H1170 H 0.02444 0.68656 0.66253 0.0
H1171 H 0.96525 0.6996 0.6463 0.0
H1172 H 0.07542 0.78271 0.72245 0.0
H1173 H 0.09607 0.74142 0.66755 0.0
H1174 H 0.9808 0.71631 0.56552 0.0
H1175 H 0.03298 0.69266 0.59344 0.0
Li1176 Li 0.51844 0.30327 0.13337 0.0
Li1177 Li 0.49571 0.28337 0.15928 0.0
Li1178 Li 0.53239 0.27855 0.15771 0.0
Li1179 Li 0.51041 0.26301 0.12785 0.0
C1180 C 0.52734 0.32233 0.17786 0.0
N1181 N 0.54675 0.35527 0.20346 0.0
C1182 C 0.5192 0.32957 0.19776 0.0
C1183 C 0.54528 0.33188 0.17094 0.0
C1184 C 0.52926 0.34623 0.21048 0.0
C1185 C 0.55488 0.34851 0.18412 0.0
C1186 C 0.47909 0.28115 0.11215 0.0
C1187 C 0.45266 0.25753 0.09621 0.0
N1188 N 0.4549 0.26732 0.07811 0.0
C1189 C 0.48104 0.2911 0.09347 0.0
C1190 C 0.46469 0.26434 0.11363 0.0
C1191 C 0.4687 0.28383 0.0764 0.0
C1192 C 0.53292 0.32383 0.09853 0.0
N1193 N 0.52483 0.32826 0.11833 0.0
C1194 C 0.52801 0.36647 0.11528 0.0
C1195 C 0.52221 0.3491 0.12681 0.0
C1196 C 0.53663 0.36238 0.09481 0.0
C1197 C 0.53891 0.34062 0.0865 0.0
H1198 H 0.53478 0.30714 0.09207 0.0
H1199 H 0.51581 0.35228 0.14261 0.0
C1200 C 0.47628 0.28292 0.19974 0.0
N1201 N 0.47288 0.28501 0.17901 0.0
C1202 C 0.4603 0.28226 0.21439 0.0
C1203 C 0.43751 0.28716 0.18647 0.0
C1204 C 0.45394 0.28728 0.17224 0.0
C1205 C 0.44043 0.28436 0.20795 0.0
H1206 H 0.49146 0.28136 0.20488 0.0
H1207 H 0.45153 0.28911 0.15574 0.0
C1208 C 0.55546 0.27507 0.11895 0.0
N1209 N 0.59385 0.26668 0.10376 0.0
C1210 C 0.56016 0.25414 0.11028 0.0
C1211 C 0.57021 0.29178 0.11964 0.0
C1212 C 0.57968 0.25021 0.10276 0.0
C1213 C 0.58955 0.2872 0.11195 0.0
C1214 C 0.50149 0.24375 0.17172 0.0
C1215 C 0.5104 0.24225 0.19121 0.0
C1216 C 0.48304 0.23294 0.16708 0.0
C1217 C 0.50053 0.23017 0.2059 0.0
C1218 C 0.47363 0.22105 0.18221 0.0
N1219 N 0.48249 0.21993 0.20115 0.0
C1220 C 0.55959 0.28431 0.19291 0.0
C1221 C 0.56661 0.25564 0.16633 0.0
C1222 C 0.57584 0.27917 0.20476 0.0
N1223 N 0.5554 0.27274 0.17392 0.0
C1224 C 0.58306 0.25001 0.17759 0.0
C1225 C 0.58791 0.26181 0.19715 0.0
H1226 H 0.5501 0.29722 0.19921 0.0
H1227 H 0.56258 0.2461 0.15167 0.0
C1228 C 0.50761 0.24197 0.08537 0.0
N1229 N 0.50753 0.23878 0.10626 0.0
C1230 C 0.50667 0.22424 0.06966 0.0
C1231 C 0.50632 0.20027 0.09718 0.0
C1232 C 0.50693 0.21843 0.11235 0.0
C1233 C 0.5062 0.20303 0.0755 0.0
H1234 H 0.50877 0.25827 0.08087 0.0
H1235 H 0.50731 0.21627 0.129 0.0
O1236 O 0.51774 0.30595 0.1653 0.0
O1237 O 0.4912 0.28785 0.12892 0.0
O1238 O 0.5364 0.27923 0.12631 0.0
O1239 O 0.51079 0.25575 0.15725 0.0
H1240 H 0.50529 0.32236 0.20332 0.0
H1241 H 0.55172 0.3265 0.1556 0.0
H1242 H 0.52317 0.35197 0.22594 0.0
H1243 H 0.5688 0.35604 0.17898 0.0
H1244 H 0.44153 0.24445 0.09708 0.0
H1245 H 0.49204 0.3042 0.09212 0.0
H1246 H 0.46291 0.25659 0.12803 0.0
H1247 H 0.47011 0.2913 0.0618 0.0
H1248 H 0.52607 0.38291 0.12248 0.0
H1249 H 0.54506 0.33652 0.0707 0.0
H1250 H 0.46359 0.27972 0.23053 0.0
H1251 H 0.42271 0.28941 0.1806 0.0
H1252 H 0.54893 0.24101 0.10956 0.0
H1253 H 0.56678 0.30814 0.12592 0.0
H1254 H 0.58356 0.23407 0.09614 0.0
H1255 H 0.60113 0.29997 0.11244 0.0
H1256 H 0.52469 0.25049 0.19504 0.0
H1257 H 0.47602 0.2338 0.15201 0.0
H1258 H 0.50719 0.22897 0.22111 0.0
H1259 H 0.45929 0.2127 0.17889 0.0
H1260 H 0.57859 0.2884 0.21999 0.0
H1261 H 0.59189 0.23655 0.17096 0.0
H1262 H 0.50685 0.22708 0.05312 0.0
H1263 H 0.50586 0.1842 0.10237 0.0
H1264 H 0.21646 0.71054 0.85224 0.0
H1265 H 0.24745 0.76046 0.82083 0.0
H1266 H 0.2251 0.73009 0.88689 0.0
H1267 H 0.25606 0.78023 0.85514 0.0
H1268 H 0.27679 0.80695 0.92034 0.0
H1269 H 0.27422 0.78139 0.88831 0.0
H1270 H 0.21315 0.76416 0.90582 0.0
H1271 H 0.21591 0.78926 0.93815 0.0
C1272 C 0.22572 0.72534 0.85287 0.0
C1273 C 0.23148 0.73402 0.83408 0.0
C1274 C 0.23043 0.7367 0.8726 0.0
C1275 C 0.24109 0.75687 0.87382 0.0
C1276 C 0.248 0.7647 0.85486 0.0
C1277 C 0.24315 0.75342 0.83522 0.0
C1278 C 0.26292 0.79745 0.91756 0.0
C1279 C 0.24652 0.80026 0.93181 0.0
C1280 C 0.2614 0.7829 0.8991 0.0
C1281 C 0.24348 0.7707 0.89446 0.0
C1282 C 0.22727 0.77308 0.909 0.0
C1283 C 0.22875 0.78771 0.92741 0.0
H1284 H 0.97681 0.56265 0.42318 0.0
H1285 H 0.0205 0.55443 0.47029 0.0
H1286 H 1.0032 0.56132 0.39574 0.0
H1287 H 0.04727 0.55358 0.44304 0.0
H1288 H 0.0809 0.51974 0.38422 0.0
H1289 H 0.05709 0.52752 0.41348 0.0
H1290 H 0.03298 0.57842 0.38151 0.0
H1291 H 0.05686 0.57069 0.35223 0.0
C1292 C 0.99223 0.56113 0.42766 0.0
C1293 C 0.99671 0.55865 0.44874 0.0
C1294 C 0.00739 0.56041 0.41201 0.0
C1295 C 0.02741 0.55712 0.41709 0.0
C1296 C 0.03199 0.5558 0.43848 0.0
C1297 C 0.01678 0.5566 0.45415 0.0
C1298 C 0.07076 0.53283 0.38354 0.0
C1299 C 0.0708 0.54448 0.36572 0.0
C1300 C 0.05709 0.53734 0.40039 0.0
C1301 C 0.04305 0.55361 0.39991 0.0
C1302 C 0.04336 0.56557 0.38231 0.0
C1303 C 0.05704 0.56108 0.36546 0.0
H1304 H 0.78585 0.75359 0.8121 0.0
H1305 H 0.83213 0.79007 0.84823 0.0
H1306 H 0.78398 0.72688 0.83776 0.0
H1307 H 0.83022 0.76365 0.87438 0.0
H1308 H 0.82737 0.70533 0.91354 0.0
H1309 H 0.83412 0.72684 0.8839 0.0
H1310 H 0.77042 0.72812 0.87333 0.0
H1311 H 0.76375 0.70621 0.90239 0.0
C1312 C 0.79609 0.75542 0.82525 0.0
C1313 C 0.80925 0.7737 0.82814 0.0
C1314 C 0.79483 0.74036 0.84017 0.0
C1315 C 0.80665 0.74327 0.85847 0.0
C1316 C 0.82092 0.76077 0.8605 0.0
C1317 C 0.82217 0.77585 0.84548 0.0
C1318 C 0.81481 0.70996 0.90471 0.0
C1319 C 0.79498 0.70399 0.91047 0.0
C1320 C 0.81869 0.72248 0.8878 0.0
C1321 C 0.80286 0.72921 0.87605 0.0
C1322 C 0.78307 0.72301 0.88171 0.0
C1323 C 0.77919 0.71064 0.89863 0.0
H1324 H 0.0362 0.96398 0.43009 0.0
H1325 H 0.00943 0.01486 0.47151 0.0
H1326 H 0.01169 0.96819 0.40287 0.0
H1327 H 0.98393 0.01852 0.44506 0.0
H1328 H 0.95208 0.03407 0.38598 0.0
H1329 H 0.97695 0.03062 0.41293 0.0
H1330 H 0.97883 0.96179 0.39275 0.0
H1331 H 0.95484 0.96571 0.36515 0.0
C1332 C 0.02484 0.97595 0.4333 0.0
C1333 C 0.02458 0.98914 0.45268 0.0
C1334 C 0.01063 0.9783 0.41785 0.0
C1335 C 0.99555 0.99365 0.42162 0.0
C1336 C 0.9954 1.00678 0.44126 0.0
C1337 C 0.00986 1.00465 0.45653 0.0
C1338 C 0.95781 0.01822 0.38742 0.0
C1339 C 0.95158 1.00018 0.37342 0.0
C1340 C 0.97204 0.01616 0.40296 0.0
C1341 C 0.98014 0.9959 0.40517 0.0
C1342 C 0.97346 0.97779 0.39135 0.0
C1343 C 0.95954 0.97995 0.37558 0.0
H1344 H 0.24936 0.269 0.71892 0.0
H1345 H 0.20336 0.29814 0.68643 0.0
H1346 H 0.2612 0.25023 0.68513 0.0
H1347 H 0.21536 0.28025 0.65246 0.0
H1348 H 0.22052 0.22062 0.60401 0.0
H1349 H 0.21301 0.24406 0.63616 0.0
H1350 H 0.27623 0.25073 0.65032 0.0
H1351 H 0.28367 0.22625 0.61849 0.0
C1352 C 0.24234 0.27197 0.70434 0.0
C1353 C 0.2256 0.28501 0.70505 0.0
C1354 C 0.24901 0.26122 0.68499 0.0
C1355 C 0.23904 0.26339 0.666 0.0
C1356 C 0.22312 0.27773 0.66674 0.0
C1357 C 0.2164 0.28826 0.68608 0.0
C1358 C 0.23285 0.2269 0.61401 0.0
C1359 C 0.2527 0.22132 0.60863 0.0
C1360 C 0.22857 0.2407 0.63236 0.0
C1361 C 0.24401 0.2495 0.6459 0.0
C1362 C 0.26392 0.24418 0.6404 0.0
C1363 C 0.26822 0.23029 0.622 0.0
H1364 H 0.526 0.56909 0.61432 0.0
H1365 H 0.51023 0.50396 0.5875 0.0
H1366 H 0.50242 0.56521 0.64395 0.0
H1367 H 0.48661 0.49984 0.61703 0.0
H1368 H 0.46283 0.49285 0.68449 0.0
H1369 H 0.48637 0.49699 0.65511 0.0
H1370 H 0.46637 0.56181 0.65157 0.0
H1371 H 0.44326 0.55791 0.68141 0.0
C1372 C 0.51735 0.55399 0.61479 0.0
C1373 C 0.51986 0.53681 0.59873 0.0
C1374 C 0.50383 0.55174 0.63167 0.0
C1375 C 0.49259 0.5322 0.6329 0.0
C1376 C 0.4952 0.515 0.61676 0.0
C1377 C 0.50867 0.51731 0.59985 0.0
C1378 C 0.46357 0.50806 0.67757 0.0
C1379 C 0.45116 0.52506 0.68537 0.0
C1380 C 0.47691 0.51035 0.66056 0.0
C1381 C 0.47827 0.52973 0.65094 0.0
C1382 C 0.46587 0.54674 0.65873 0.0
C1383 C 0.45245 0.54441 0.67569 0.0
H1384 H 0.7901 0.28601 0.7268 0.0
H1385 H 0.80449 0.23454 0.67832 0.0
H1386 H 0.7829 0.30956 0.6994 0.0
H1387 H 0.79721 0.25775 0.65084 0.0
H1388 H 0.80228 0.31248 0.60811 0.0
H1389 H 0.81051 0.29073 0.63615 0.0
H1390 H 0.75748 0.31192 0.6715 0.0
H1391 H 0.74892 0.33341 0.6432 0.0
C1392 C 0.79183 0.27987 0.71024 0.0
C1393 C 0.79783 0.25856 0.70457 0.0
C1394 C 0.78757 0.29321 0.69456 0.0
C1395 C 0.78945 0.28555 0.67289 0.0
C1396 C 0.79579 0.26427 0.66734 0.0
C1397 C 0.79986 0.25093 0.683 0.0
C1398 C 0.79218 0.31237 0.6217 0.0
C1399 C 0.77479 0.32464 0.62316 0.0
C1400 C 0.79698 0.29992 0.63786 0.0
C1401 C 0.78463 0.29949 0.65607 0.0
C1402 C 0.76745 0.31206 0.6578 0.0
C1403 C 0.76256 0.32442 0.64154 0.0
H1404 H 0.51816 1.00212 0.57788 0.0
H1405 H 0.48907 0.94786 0.60444 0.0
H1406 H 0.54421 1.00407 0.60466 0.0
H1407 H 0.51535 0.94926 0.63113 0.0
H1408 H 0.54735 0.9804 0.69192 0.0
H1409 H 0.52432 0.97352 0.6625 0.0
H1410 H 0.57243 0.98728 0.61873 0.0
H1411 H 0.59561 0.99403 0.6482 0.0
C1412 C 0.51769 0.99028 0.58922 0.0
C1413 C 0.50165 0.97488 0.58918 0.0
C1414 C 0.53262 0.99131 0.60455 0.0
C1415 C 0.53185 0.97697 0.62029 0.0
C1416 C 0.51629 0.9608 0.6195 0.0
C1417 C 0.50139 0.95975 0.60407 0.0
C1418 C 0.55318 0.98163 0.67602 0.0
C1419 C 0.57345 0.98785 0.67259 0.0
C1420 C 0.5399 0.97764 0.65907 0.0
C1421 C 0.54644 0.97979 0.63813 0.0
C1422 C 0.56676 0.98572 0.63463 0.0
C1423 C 0.58007 0.98966 0.65159 0.0
H1424 H 0.83752 0.1962 0.74956 0.0
H1425 H 0.81843 0.25529 0.78485 0.0
H1426 H 0.86381 0.19345 0.77555 0.0
H1427 H 0.8448 0.25303 0.81065 0.0
H1428 H 0.88666 0.23647 0.86148 0.0
H1429 H 0.85759 0.23388 0.83845 0.0
H1430 H 0.89554 0.21269 0.78473 0.0
H1431 H 0.92446 0.21464 0.80784 0.0
C1432 C 0.83872 0.20832 0.76318 0.0
C1433 C 0.82602 0.22594 0.76526 0.0
C1434 C 0.85392 0.20696 0.77791 0.0
C1435 C 0.85665 0.22315 0.79516 0.0
C1436 C 0.84315 0.24017 0.79774 0.0
C1437 C 0.82806 0.24154 0.78295 0.0
C1438 C 0.88878 0.23095 0.84481 0.0
C1439 C 0.90802 0.22586 0.83658 0.0
C1440 C 0.8721 0.22965 0.83154 0.0
C1441 C 0.87413 0.22311 0.80964 0.0
C1442 C 0.89328 0.21757 0.8015 0.0
C1443 C 0.90997 0.21897 0.81475 0.0
H1444 H 0.46168 0.92205 0.57337 0.0
H1445 H 0.5062 0.95288 0.53555 0.0
H1446 H 0.46886 0.88669 0.55423 0.0
H1447 H 0.51299 0.91788 0.51549 0.0
H1448 H 0.52703 0.84981 0.48698 0.0
H1449 H 0.52498 0.8825 0.51205 0.0
H1450 H 0.4614 0.86881 0.52078 0.0
H1451 H 0.46369 0.83595 0.49628 0.0
C1452 C 0.47345 0.92102 0.56131 0.0
C1453 C 0.48364 0.93996 0.55608 0.0
C1454 C 0.47735 0.90088 0.55002 0.0
C1455 C 0.49126 0.89929 0.53291 0.0
C1456 C 0.50232 0.91824 0.52861 0.0
C1457 C 0.49855 0.93834 0.54013 0.0
C1458 C 0.51263 0.8538 0.49431 0.0
C1459 C 0.49552 0.84023 0.48959 0.0
C1460 C 0.51143 0.8726 0.5087 0.0
C1461 C 0.49303 0.87847 0.51863 0.0
C1462 C 0.47597 0.86472 0.51396 0.0
C1463 C 0.47723 0.84585 0.49976 0.0
H1464 H 0.19313 0.28535 0.79291 0.0
H1465 H 0.15421 0.28707 0.73987 0.0
H1466 H 0.16425 0.27787 0.81547 0.0
H1467 H 0.12532 0.27759 0.76173 0.0
H1468 H 0.0745 0.28145 0.81116 0.0
H1469 H 0.10315 0.28975 0.78842 0.0
H1470 H 0.14071 0.25213 0.82409 0.0
H1471 H 0.11226 0.24511 0.84742 0.0
C1472 C 0.17833 0.28401 0.78609 0.0
C1473 C 0.17591 0.28687 0.76467 0.0
C1474 C 0.16172 0.27934 0.79891 0.0
C1475 C 0.14223 0.27692 0.79055 0.0
C1476 C 0.13992 0.27962 0.76897 0.0
C1477 C 0.15652 0.28472 0.75627 0.0
C1478 C 0.08892 0.27497 0.81402 0.0
C1479 C 0.09121 0.26274 0.83109 0.0
C1480 C 0.10538 0.27959 0.80092 0.0
C1481 C 0.12448 0.27173 0.8043 0.0
C1482 C 0.12651 0.25901 0.82117 0.0
C1483 C 0.11015 0.25479 0.8345 0.0
H1484 H 0.56458 0.59265 0.55666 0.0
H1485 H 0.54218 0.54027 0.5123 0.0
H1486 H 0.56137 0.61809 0.53026 0.0
H1487 H 0.53907 0.56551 0.48544 0.0
H1488 H 0.5053 0.62208 0.46105 0.0
H1489 H 0.51573 0.59413 0.48209 0.0
H1490 H 0.57112 0.63077 0.49662 0.0
H1491 H 0.56074 0.65873 0.47544 0.0
C1492 C 0.55981 0.58651 0.54085 0.0
C1493 C 0.55387 0.56456 0.53634 0.0
C1494 C 0.55783 0.60104 0.52572 0.0
C1495 C 0.54969 0.59396 0.50573 0.0
C1496 C 0.5451 0.57161 0.50076 0.0
C1497 C 0.5472 0.55706 0.51593 0.0
C1498 C 0.51986 0.62406 0.46839 0.0
C1499 C 0.53207 0.64285 0.46659 0.0
C1500 C 0.5259 0.60794 0.48047 0.0
C1501 C 0.54431 0.61011 0.49112 0.0
C1502 C 0.55674 0.62864 0.48889 0.0
C1503 C 0.55072 0.64475 0.47679 0.0
H1504 H 0.85499 0.82104 0.81256 0.0
H1505 H 0.82581 0.76652 0.77623 0.0
H1506 H 0.88562 0.81563 0.79097 0.0
H1507 H 0.85623 0.76108 0.7541 0.0
H1508 H 0.91881 0.75163 0.72339 0.0
H1509 H 0.89151 0.75241 0.74976 0.0
H1510 H 0.89413 0.82245 0.75517 0.0
H1511 H 0.92179 0.82169 0.72943 0.0
C1512 C 0.85549 0.80736 0.8004 0.0
C1513 C 0.83823 0.794 0.7962 0.0
C1514 C 0.87286 0.80448 0.78773 0.0
C1515 C 0.87335 0.7882 0.77042 0.0
C1516 C 0.85651 0.77374 0.7673 0.0
C1517 C 0.83912 0.77667 0.78006 0.0
C1518 C 0.91372 0.76722 0.73037 0.0
C1519 C 0.92261 0.78661 0.72419 0.0
C1520 C 0.89791 0.76765 0.7454 0.0
C1521 C 0.89061 0.78748 0.75481 0.0
C1522 C 0.89952 0.80684 0.74862 0.0
C1523 C 0.91525 0.80642 0.73356 0.0
H1524 H 0.06763 0.93123 0.48708 0.0
H1525 H 0.05436 0.98329 0.53524 0.0
H1526 H 0.06559 0.90541 0.51353 0.0
H1527 H 0.05257 0.95766 0.56214 0.0
H1528 H 0.01943 0.90092 0.59305 0.0
H1529 H 0.02851 0.92914 0.57033 0.0
H1530 H 0.07864 0.89219 0.54457 0.0
H1531 H 0.06958 0.864 0.56731 0.0
C1532 C 0.06502 0.9372 0.50356 0.0
C1533 C 0.06129 0.95919 0.50921 0.0
C1534 C 0.06378 0.92244 0.51877 0.0
C1535 C 0.05865 0.92932 0.54004 0.0
C1536 C 0.05623 0.95168 0.54589 0.0
C1537 C 0.05759 0.96645 0.53062 0.0
C1538 C 0.03259 0.89894 0.58282 0.0
C1539 C 0.04361 0.87997 0.58195 0.0
C1540 C 0.03785 0.91521 0.56977 0.0
C1541 C 0.05431 0.91301 0.55547 0.0
C1542 C 0.06568 0.89435 0.55508 0.0
C1543 C 0.06043 0.87811 0.56813 0.0
H1544 H 0.20037 0.75829 0.76566 0.0
H1545 H 0.16794 0.69896 0.77646 0.0
H1546 H 0.17364 0.76736 0.74266 0.0
H1547 H 0.141 0.70789 0.75363 0.0
H1548 H 0.10467 0.72151 0.6967 0.0
H1549 H 0.13286 0.71194 0.71725 0.0
H1550 H 0.13922 0.77838 0.7456 0.0
H1551 H 0.11156 0.7881 0.72448 0.0
C1552 C 0.18745 0.74723 0.76304 0.0
C1553 C 0.1861 0.72798 0.77278 0.0
C1554 C 0.17211 0.75241 0.74997 0.0
C1555 C 0.15508 0.73841 0.74634 0.0
C1556 C 0.15399 0.71892 0.75584 0.0
C1557 C 0.16934 0.71378 0.76892 0.0
C1558 C 0.11225 0.73414 0.7071 0.0
C1559 C 0.1058 0.75559 0.70892 0.0
C1560 C 0.12828 0.72859 0.71908 0.0
C1561 C 0.13833 0.74436 0.73314 0.0
C1562 C 0.132 0.76585 0.73478 0.0
C1563 C 0.11596 0.77138 0.72284 0.0
H1564 H 0.00806 0.57059 0.51051 0.0
H1565 H 0.96897 0.60578 0.47497 0.0
H1566 H 0.01881 0.60435 0.53162 0.0
H1567 H 0.97851 0.63952 0.49658 0.0
H1568 H 1.0031 0.70001 0.53427 0.0
H1569 H 1.0007 0.66782 0.50847 0.0
H1570 H 1.0053 0.62722 0.55922 0.0
H1571 H 0.00865 0.65946 0.58465 0.0
C1572 C 1.00228 0.58579 0.50688 0.0
C1573 C 0.98805 0.58585 0.49098 0.0
C1574 C 0.00806 0.60509 0.5192 0.0
C1575 C 0.9993 0.62482 0.5162 0.0
C1576 C 0.98586 0.62488 0.49934 0.0
C1577 C 0.98038 0.60559 0.48684 0.0
C1578 C 1.00371 0.68416 0.53981 0.0
C1579 C 0.00601 0.68225 0.56148 0.0
C1580 C 1.00227 0.66565 0.52503 0.0
C1581 C 1.00274 0.64471 0.53159 0.0
C1582 C 1.00532 0.64293 0.55332 0.0
C1583 C 0.00709 0.66145 0.56802 0.0
H1584 H 0.71405 0.8489 0.2325 0.0
H1585 H 0.75988 0.80283 0.2372 0.0
H1586 H 0.73952 0.87859 0.23517 0.0
H1587 H 0.78564 0.83248 0.23952 0.0
H1588 H 0.82652 0.89368 0.2287 0.0
H1589 H 0.8023 0.86342 0.22054 0.0
H1590 H 0.76063 0.89368 0.26651 0.0
H1591 H 0.78491 0.92341 0.27537 0.0
C1592 C 0.72968 0.84517 0.23368 0.0
C1593 C 0.73505 0.82371 0.23489 0.0
C1594 C 0.74424 0.86211 0.23532 0.0
C1595 C 0.76455 0.85792 0.23794 0.0
C1596 C 0.77012 0.83622 0.23751 0.0
C1597 C 0.75545 0.81925 0.23608 0.0
C1598 C 0.81231 0.89382 0.23731 0.0
C1599 C 0.80778 0.91121 0.25272 0.0
C1600 C 0.79839 0.87649 0.2325 0.0
C1601 C 0.77949 0.87625 0.24272 0.0
C1602 C 0.77493 0.89358 0.25804 0.0
C1603 C 0.78889 0.91072 0.26306 0.0
H1604 H 0.71685 0.16682 0.31289 0.0
H1605 H 0.76528 0.21299 0.30362 0.0
H1606 H 0.7409 0.13827 0.31415 0.0
H1607 H 0.7896 0.18447 0.30425 0.0
H1608 H 0.82982 0.12996 0.31797 0.0
H1609 H 0.80606 0.15909 0.32335 0.0
H1610 H 0.7613 0.11767 0.28902 0.0
H1611 H 0.78459 0.08838 0.2846 0.0
C1612 C 0.73275 0.17082 0.3114 0.0
C1613 C 0.73929 0.19195 0.30808 0.0
C1614 C 0.74654 0.15449 0.3119 0.0
C1615 C 0.76726 0.15888 0.3089 0.0
C1616 C 0.77383 0.18043 0.30674 0.0
C1617 C 0.75997 0.1968 0.30639 0.0
C1618 C 0.81481 0.12696 0.31184 0.0
C1619 C 0.80922 0.10675 0.30077 0.0
C1620 C 0.80123 0.14379 0.31474 0.0
C1621 C 0.78166 0.14084 0.30668 0.0
C1622 C 0.77607 0.12055 0.29578 0.0
C1623 C 0.7896 0.10377 0.29293 0.0
H1624 H 0.44581 0.01804 0.01267 0.0
H1625 H 0.42053 0.03004 0.95337 0.0
H1626 H 0.41624 0.99521 0.02013 0.0
H1627 H 0.39092 1.00702 0.96056 0.0
H1628 H 0.35114 0.94652 0.97236 0.0
H1629 H 0.38083 0.96863 0.96431 0.0
H1630 H 0.38018 0.99988 0.02857 0.0
H1631 H 0.3503 0.97813 0.03658 0.0
C1632 C 0.43385 0.01574 1.00127 0.0
C1633 C 0.43534 0.02579 0.98251 0.0
C1634 C 0.41693 1.00274 1.00551 0.0
C1635 C 0.40116 0.99937 0.99098 0.0
C1636 C 0.40287 0.00912 0.97198 0.0
C1637 C 0.41977 0.02226 0.96783 0.0
C1638 C 0.35715 0.95828 0.98474 0.0
C1639 C 0.34823 0.96048 1.00515 0.0
C1640 C 0.37422 0.97092 0.98011 0.0
C1641 C 0.38292 0.98598 0.9958 0.0
C1642 C 0.37405 0.98819 0.0162 0.0
C1643 C 0.35691 0.97566 0.0208 0.0
H1644 H 0.28435 0.35568 0.33068 0.0
H1645 H 0.26522 0.31919 0.27249 0.0
H1646 H 0.26124 0.38414 0.32529 0.0
H1647 H 0.24141 0.34702 0.26721 0.0
H1648 H 0.21572 0.41025 0.25239 0.0
H1649 H 0.23874 0.3822 0.25803 0.0
H1650 H 0.22765 0.39369 0.32563 0.0
H1651 H 0.20581 0.42286 0.3201 0.0
C1652 C 0.27494 0.35374 0.31685 0.0
C1653 C 0.27649 0.33538 0.30197 0.0
C1654 C 0.2616 0.36993 0.31375 0.0
C1655 C 0.2493 0.36803 0.29577 0.0
C1656 C 0.25081 0.34938 0.28103 0.0
C1657 C 0.26434 0.33334 0.28405 0.0
C1658 C 0.21837 0.40707 0.26851 0.0
C1659 C 0.20883 0.41908 0.28576 0.0
C1660 C 0.2314 0.39064 0.27174 0.0
C1661 C 0.23518 0.38548 0.29232 0.0
C1662 C 0.22545 0.3973 0.30955 0.0
C1663 C 0.21258 0.41389 0.30634 0.0
H1664 H 0.07225 0.02943 0.51472 0.0
H1665 H 0.10158 0.97498 0.48139 0.0
H1666 H 0.10472 0.04902 0.51997 0.0
H1667 H 0.1343 0.99437 0.48653 0.0
H1668 H 0.18021 0.04979 0.47104 0.0
H1669 H 0.15006 0.02624 0.47133 0.0
H1670 H 0.13799 0.05087 0.53647 0.0
H1671 H 0.16838 0.07409 0.53642 0.0
C1672 C 0.08582 0.02142 0.50921 0.0
C1673 C 0.08453 1.00066 0.4979 0.0
C1674 C 0.10442 0.03262 0.51209 0.0
C1675 C 0.12218 0.0234 0.50347 0.0
C1676 C 0.12093 1.00208 0.49315 0.0
C1677 C 0.1023 0.99081 0.49049 0.0
C1678 C 0.17139 0.04998 0.48558 0.0
C1679 C 0.17685 0.06411 0.50365 0.0
C1680 C 0.15403 0.0364 0.48574 0.0
C1681 C 0.14152 0.03661 0.50393 0.0
C1682 C 0.14711 0.05045 0.52209 0.0
C1683 C 0.16454 0.0639 0.522 0.0
H1684 H 0.77945 0.21093 0.77579 0.0
H1685 H 0.80082 0.17587 0.71793 0.0
H1686 H 0.75813 0.17928 0.78309 0.0
H1687 H 0.77986 0.1441 0.72506 0.0
H1688 H 0.71768 0.1094 0.72662 0.0
H1689 H 0.7435 0.13782 0.72341 0.0
H1690 H 0.75488 0.14079 0.79043 0.0
H1691 H 0.72861 0.11254 0.79374 0.0
C1692 C 0.78015 0.19608 0.76512 0.0
C1693 C 0.79172 0.19568 0.74636 0.0
C1694 C 0.76787 0.17801 0.76917 0.0
C1695 C 0.76695 0.15926 0.75443 0.0
C1696 C 0.77984 0.1584 0.73652 0.0
C1697 C 0.79206 0.17642 0.73255 0.0
C1698 C 0.72558 0.11617 0.74072 0.0
C1699 C 0.72097 0.10869 0.76044 0.0
C1700 C 0.74061 0.13229 0.73883 0.0
C1701 C 0.75145 0.14151 0.75663 0.0
C1702 C 0.74683 0.1341 0.7764 0.0
C1703 C 0.73186 0.1178 0.77826 0.0
H1704 H 0.4609 0.02854 0.54865 0.0
H1705 H 0.4169 0.98231 0.56933 0.0
H1706 H 0.43398 0.05193 0.54033 0.0
H1707 H 0.38985 1.00541 0.56091 0.0
H1708 H 0.34849 0.06339 0.56388 0.0
H1709 H 0.37553 0.04099 0.57295 0.0
H1710 H 0.40655 0.05147 0.51433 0.0
H1711 H 0.37932 0.07347 0.50492 0.0
C1712 C 0.44542 0.02352 0.55149 0.0
C1713 C 0.44088 1.00372 0.5596 0.0
C1714 C 0.43001 0.03676 0.54659 0.0
C1715 C 0.40972 0.03054 0.5499 0.0
C1716 C 0.40528 0.0108 0.55833 0.0
C1717 C 0.4207 0.99751 0.56304 0.0
C1718 C 0.36092 0.06075 0.55274 0.0
C1719 C 0.36155 0.0703 0.53358 0.0
C1720 C 0.37649 0.04793 0.55801 0.0
C1721 C 0.39324 0.04442 0.54439 0.0
C1722 C 0.39401 0.05408 0.52533 0.0
C1723 C 0.37836 0.06676 0.51997 0.0
H1724 H 0.5957 0.55172 0.55561 0.0
H1725 H 0.56045 0.49362 0.53616 0.0
H1726 H 0.62664 0.53235 0.54636 0.0
H1727 H 0.591 0.47391 0.52743 0.0
H1728 H 0.64939 0.44431 0.50507 0.0
H1729 H 0.62053 0.4674 0.50641 0.0
H1730 H 0.64444 0.50549 0.56202 0.0
H1731 H 0.67334 0.48256 0.5605 0.0
C1732 C 0.59464 0.53498 0.54867 0.0
C1733 C 0.57581 0.52413 0.54645 0.0
C1734 C 0.6123 0.52373 0.54372 0.0
C1735 C 0.61144 0.50138 0.53644 0.0
C1736 C 0.59241 0.49107 0.53281 0.0
C1737 C 0.57485 0.50233 0.53775 0.0
C1738 C 0.64848 0.45759 0.51762 0.0
C1739 C 0.6637 0.46143 0.53276 0.0
C1740 C 0.63191 0.47091 0.51836 0.0
C1741 C 0.63002 0.48841 0.53434 0.0
C1742 C 0.64547 0.49248 0.54922 0.0
C1743 C 0.66207 0.47923 0.54842 0.0
H1744 H 0.71983 0.21212 0.35144 0.0
H1745 H 0.74747 0.26347 0.31929 0.0
H1746 H 0.72883 0.23195 0.38582 0.0
H1747 H 0.75626 0.28362 0.35336 0.0
H1748 H 0.77765 0.3116 0.41791 0.0
H1749 H 0.77526 0.2862 0.38577 0.0
H1750 H 0.71601 0.26479 0.40553 0.0
H1751 H 0.71868 0.28963 0.43801 0.0
C1752 C 0.72842 0.22735 0.35182 0.0
C1753 C 0.73306 0.23634 0.33291 0.0
C1754 C 0.73331 0.23887 0.37142 0.0
C1755 C 0.74303 0.25955 0.37239 0.0
C1756 C 0.74892 0.26772 0.35328 0.0
C1757 C 0.74394 0.25623 0.33376 0.0
C1758 C 0.76424 0.30121 0.41559 0.0
C1759 C 0.74832 0.30276 0.43056 0.0
C1760 C 0.76281 0.28676 0.39706 0.0
C1761 C 0.74545 0.27342 0.39301 0.0
C1762 C 0.72972 0.27459 0.40822 0.0
C1763 C 0.73113 0.28909 0.42673 0.0
H1764 H 0.47578 0.06756 0.92488 0.0
H1765 H 0.51855 0.05082 0.96955 0.0
H1766 H 0.50184 0.06635 0.89708 0.0
H1767 H 0.54478 0.04875 0.94172 0.0
H1768 H 0.59073 0.05784 0.88829 0.0
H1769 H 0.56639 0.0658 0.91722 0.0
H1770 H 0.51867 0.03835 0.87637 0.0
H1771 H 0.54285 0.03075 0.84759 0.0
C1772 C 0.49097 0.06405 0.92873 0.0
C1773 C 0.4953 0.05937 0.94922 0.0
C1774 C 0.50585 0.06303 0.91281 0.0
C1775 C 0.52542 0.057 0.91695 0.0
C1776 C 0.52997 0.05355 0.93789 0.0
C1777 C 0.51504 0.05478 0.95388 0.0
C1778 C 0.57503 0.05349 0.88553 0.0
C1779 C 0.56877 0.04373 0.86553 0.0
C1780 C 0.56105 0.05806 0.90214 0.0
C1781 C 0.54045 0.05291 0.8992 0.0
C1782 C 0.53428 0.0431 0.87918 0.0
C1783 C 0.5482 0.03865 0.86261 0.0
H1784 H 0.30328 0.25081 0.31126 0.0
H1785 H 0.32168 0.30238 0.35859 0.0
H1786 H 0.30147 0.22527 0.33816 0.0
H1787 H 0.32062 0.27704 0.38555 0.0
H1788 H 0.28688 0.23667 0.43179 0.0
H1789 H 0.29448 0.25989 0.40408 0.0
H1790 H 0.31646 0.20508 0.36345 0.0
H1791 H 0.30791 0.18151 0.39098 0.0
C1792 C 0.3078 0.25639 0.3273 0.0
C1793 C 0.31283 0.27843 0.33287 0.0
C1794 C 0.30664 0.24184 0.3428 0.0
C1795 C 0.31052 0.24907 0.36426 0.0
C1796 C 0.31702 0.27089 0.36938 0.0
C1797 C 0.31802 0.28538 0.35391 0.0
C1798 C 0.29314 0.22942 0.41691 0.0
C1799 C 0.29658 0.20705 0.41373 0.0
C1800 C 0.29786 0.24289 0.40103 0.0
C1801 C 0.3063 0.23453 0.38141 0.0
C1802 C 0.30989 0.21217 0.37824 0.0
C1803 C 0.30514 0.19865 0.39417 0.0
H1804 H 0.52892 0.45532 0.93414 0.0
H1805 H 0.51892 0.52031 0.96271 0.0
H1806 H 0.50413 0.45942 0.90706 0.0
H1807 H 0.49407 0.52463 0.93575 0.0
H1808 H 0.4669 0.53221 0.8712 0.0
H1809 H 0.49155 0.52796 0.89813 0.0
H1810 H 0.46828 0.46263 0.90272 0.0
H1811 H 0.44407 0.46662 0.87526 0.0
C1812 C 0.52126 0.47044 0.93463 0.0
C1813 C 0.52578 0.4875 0.95044 0.0
C1814 C 0.50705 0.47281 0.91919 0.0
C1815 C 0.49705 0.49237 0.91918 0.0
C1816 C 0.50165 0.50946 0.93506 0.0
C1817 C 0.51584 0.50702 0.95052 0.0
C1818 C 0.46713 0.51686 0.87781 0.0
C1819 C 0.45347 0.49975 0.87097 0.0
C1820 C 0.48114 0.51451 0.89346 0.0
C1821 C 0.48195 0.49495 0.90265 0.0
C1822 C 0.46826 0.47785 0.89585 0.0
C1823 C 0.45419 0.48023 0.88026 0.0
H1824 H 0.71822 0.80433 0.19011 0.0
H1825 H 0.74055 0.75256 0.22171 0.0
H1826 H 0.73044 0.78672 0.15589 0.0
H1827 H 0.75276 0.73475 0.18773 0.0
H1828 H 0.78304 0.71428 0.12406 0.0
H1829 H 0.77642 0.737 0.15729 0.0
H1830 H 0.71924 0.75296 0.13365 0.0
H1831 H 0.72598 0.73053 0.10034 0.0
C1832 C 0.72627 0.78948 0.1897 0.0
C1833 C 0.72858 0.77976 0.20838 0.0
C1834 C 0.73304 0.77925 0.17017 0.0
C1835 C 0.74242 0.7592 0.16903 0.0
C1836 C 0.74576 0.75022 0.18801 0.0
C1837 C 0.73881 0.76036 0.20745 0.0
C1838 C 0.76918 0.72288 0.12584 0.0
C1839 C 0.75501 0.7205 0.10954 0.0
C1840 C 0.76533 0.73578 0.14494 0.0
C1841 C 0.74731 0.74683 0.14815 0.0
C1842 C 0.73337 0.74489 0.13164 0.0
C1843 C 0.73713 0.73182 0.11263 0.0
H1844 H 0.0265 0.06852 0.11423 0.0
H1845 H 0.00854 1.00475 0.08546 0.0
H1846 H 1.00299 0.06449 0.14385 0.0
H1847 H 0.98476 1.00054 0.11486 0.0
H1848 H 0.96041 0.99204 0.1818 0.0
H1849 H 0.98366 0.996 0.15217 0.0
H1850 H 0.96751 0.06272 0.15222 0.0
H1851 H 0.94432 0.05878 0.18192 0.0
C1852 C 0.01735 0.0537 0.11427 0.0
C1853 C 0.01924 0.03694 0.09769 0.0
C1854 C 1.00385 0.05137 0.13114 0.0
C1855 C 0.99191 0.03219 0.13177 0.0
C1856 C 0.99389 0.01541 0.11508 0.0
C1857 C 0.00742 0.01778 0.09823 0.0
C1858 C 0.96166 0.0075 0.17536 0.0
C1859 C 0.95047 0.02509 0.18429 0.0
C1860 C 0.97501 0.00977 0.15835 0.0
C1861 C 0.97752 0.02969 0.14977 0.0
C1862 C 0.96624 0.04725 0.15863 0.0
C1863 C 0.95291 0.04498 0.17567 0.0
H1864 H 0.27011 0.77503 0.22278 0.0
H1865 H 0.31919 0.74753 0.18514 0.0
H1866 H 0.26262 0.79749 0.19462 0.0
H1867 H 0.31192 0.76994 0.15689 0.0
H1868 H 0.27657 0.79306 0.10232 0.0
H1869 H 0.28459 0.772 0.13098 0.0
H1870 H 0.27733 0.82842 0.17633 0.0
H1871 H 0.26986 0.8498 0.14761 0.0
C1872 C 0.27933 0.77396 0.20847 0.0
C1873 C 0.29521 0.75966 0.20604 0.0
C1874 C 0.27514 0.78683 0.19241 0.0
C1875 C 0.28663 0.78547 0.17345 0.0
C1876 C 0.30265 0.77123 0.17118 0.0
C1877 C 0.30695 0.75855 0.18735 0.0
C1878 C 0.27693 0.80116 0.11833 0.0
C1879 C 0.27266 0.8233 0.12248 0.0
C1880 C 0.2815 0.789 0.1348 0.0
C1881 C 0.28171 0.79852 0.15596 0.0
C1882 C 0.27713 0.82053 0.16023 0.0
C1883 C 0.27275 0.83277 0.14372 0.0
H1884 H 0.98555 0.45303 0.10937 0.0
H1885 H 0.02125 0.49428 0.07184 0.0
H1886 H 0.01204 0.45565 0.13595 0.0
H1887 H 0.04794 0.49696 0.09811 0.0
H1888 H 0.07473 0.5224 0.16303 0.0
H1889 H 0.05141 0.5152 0.13394 0.0
H1890 H 0.04655 0.44765 0.14453 0.0
H1891 H 0.07022 0.45474 0.17356 0.0
C1892 C 0.99937 0.46217 0.10663 0.0
C1893 C 1.00145 0.47353 0.08874 0.0
C1894 C 0.01453 0.46376 0.12181 0.0
C1895 C 0.03207 0.47681 0.11939 0.0
C1896 C 0.03452 0.48713 0.10075 0.0
C1897 C 0.01939 0.48545 0.08559 0.0
C1898 C 0.06903 0.5059 0.15901 0.0
C1899 C 0.07453 0.48919 0.17079 0.0
C1900 C 0.05558 0.50176 0.14224 0.0
C1901 C 0.04709 0.4808 0.13674 0.0
C1902 C 0.0526 0.46403 0.14843 0.0
C1903 C 0.06617 0.46815 0.16515 0.0
H1904 H 0.35116 0.71433 0.23682 0.0
H1905 H 0.30989 0.73061 0.28867 0.0
H1906 H 0.37811 0.71167 0.26185 0.0
H1907 H 0.33683 0.72846 0.31402 0.0
H1908 H 0.38829 0.70981 0.35487 0.0
H1909 H 0.36035 0.70708 0.33026 0.0
H1910 H 0.39825 0.73657 0.28446 0.0
H1911 H 0.42603 0.73919 0.30889 0.0
C1912 C 0.34788 0.71704 0.25367 0.0
C1913 C 0.32855 0.72275 0.26087 0.0
C1914 C 0.36332 0.71576 0.26805 0.0
C1915 C 0.35986 0.72026 0.29006 0.0
C1916 C 0.34013 0.72478 0.29726 0.0
C1917 C 0.32465 0.72597 0.28279 0.0
C1918 C 0.39064 0.7158 0.33958 0.0
C1919 C 0.40955 0.72462 0.33391 0.0
C1920 C 0.37458 0.71422 0.32542 0.0
C1921 C 0.37696 0.72142 0.3052 0.0
C1922 C 0.39587 0.73032 0.29963 0.0
C1923 C 0.41188 0.73187 0.31372 0.0
H1924 H 0.00685 0.45108 0.03583 0.0
H1925 H 0.96121 0.42116 0.07308 0.0
H1926 H 0.01398 0.41557 0.01664 0.0
H1927 H 0.9681 0.38555 0.05406 0.0
H1928 H 0.96292 0.33836 0.99184 0.0
H1929 H 0.96077 0.37114 0.01672 0.0
H1930 H 0.02549 0.37763 0.01783 0.0
H1931 H 0.02763 0.34479 0.99272 0.0
C1932 C 0.99892 0.43669 0.0404 0.0
C1933 C 0.98357 0.43867 0.05587 0.0
C1934 C 1.00287 0.4164 0.02939 0.0
C1935 C 0.99138 0.39774 0.03357 0.0
C1936 C 0.97701 0.39962 0.05021 0.0
C1937 C 0.97322 0.41988 0.06129 0.0
C1938 C 0.9767 0.34674 0.99741 0.0
C1939 C 0.99544 0.33898 0.99021 0.0
C1940 C 0.97548 0.36542 0.01187 0.0
C1941 C 0.99297 0.37698 0.01938 0.0
C1942 C 0.01174 0.36914 0.01233 0.0
C1943 C 0.01296 0.35026 0.99805 0.0
H1944 H 0.66037 0.81199 0.25886 0.0
H1945 H 0.68961 0.75637 0.27676 0.0
H1946 H 0.63136 0.80405 0.28139 0.0
H1947 H 0.66098 0.74852 0.29994 0.0
H1948 H 0.59873 0.72851 0.32379 0.0
H1949 H 0.62695 0.73597 0.30037 0.0
H1950 H 0.62066 0.80481 0.31714 0.0
H1951 H 0.59168 0.79738 0.33946 0.0
C1952 C 0.66054 0.79813 0.26782 0.0
C1953 C 0.67709 0.78477 0.26618 0.0
C1954 C 0.64402 0.7936 0.28083 0.0
C1955 C 0.64376 0.77565 0.29265 0.0
C1956 C 0.66044 0.76227 0.29088 0.0
C1957 C 0.67688 0.76675 0.27772 0.0
C1958 C 0.60316 0.74526 0.32228 0.0
C1959 C 0.59277 0.76231 0.33357 0.0
C1960 C 0.61959 0.74955 0.30904 0.0
C1961 C 0.62622 0.77102 0.30679 0.0
C1962 C 0.61589 0.78806 0.31818 0.0
C1963 C 0.59939 0.78378 0.33129 0.0
H1964 H 0.06183 0.09445 0.0583 0.0
H1965 H 0.04616 0.04171 0.01103 0.0
H1966 H 0.05918 0.12026 0.03234 0.0
H1967 H 0.04417 0.06732 0.98437 0.0
H1968 H 0.01066 0.12089 0.95541 0.0
H1969 H 0.02093 0.09318 0.9769 0.0
H1970 H 0.06956 0.13604 1.00194 0.0
H1971 H 0.05882 0.16392 0.9809 0.0
C1972 C 0.05866 0.08838 0.042 0.0
C1973 C 0.05425 0.06619 0.03659 0.0
C1974 C 0.05707 0.10315 0.02704 0.0
C1975 C 0.05112 0.09605 1.00616 0.0
C1976 C 0.04834 0.07352 1.00036 0.0
C1977 C 0.04986 0.05875 0.01546 0.0
C1978 C 0.02368 0.12429 0.96534 0.0
C1979 C 0.03376 0.14474 0.9666 0.0
C1980 C 0.02969 0.10831 0.97761 0.0
C1981 C 0.0461 0.11224 0.99135 0.0
C1982 C 0.05662 0.13246 0.99195 0.0
C1983 C 0.05047 0.1485 0.97985 0.0
H1984 H 0.32429 0.26249 0.27304 0.0
H1985 H 0.35249 0.31782 0.30897 0.0
H1986 H 0.35535 0.25628 0.25227 0.0
H1987 H 0.38318 0.31286 0.28773 0.0
H1988 H 0.43971 0.29735 0.25115 0.0
H1989 H 0.41181 0.29592 0.27609 0.0
H1990 H 0.37288 0.27026 0.22495 0.0
H1991 H 0.4012 0.26966 0.20039 0.0
C1992 C 0.33745 0.27288 0.27687 0.0
C1993 C 0.33625 0.29032 0.29283 0.0
C1994 C 0.35515 0.26972 0.26469 0.0
C1995 C 0.37195 0.28428 0.26786 0.0
C1996 C 0.37092 0.30102 0.28478 0.0
C1997 C 0.35334 0.30389 0.29713 0.0
C1998 C 0.42536 0.29089 0.24517 0.0
C1999 C 0.42301 0.28367 0.22346 0.0
C2000 C 0.40911 0.29041 0.25957 0.0
C2001 C 0.38977 0.28309 0.25278 0.0
C2002 C 0.38745 0.27571 0.23111 0.0
C2003 C 0.40378 0.27582 0.21677 0.0
H2004 H 0.56852 0.43101 0.98717 0.0
H2005 H 0.55349 0.48335 0.03431 0.0
H2006 H 0.56624 0.40556 0.01398 0.0
H2007 H 0.55132 0.45806 0.06156 0.0
H2008 H 0.51811 0.40083 0.09196 0.0
H2009 H 0.52736 0.42901 0.06924 0.0
H2010 H 0.57899 0.39328 0.04577 0.0
H2011 H 0.56981 0.36516 0.06855 0.0
C2012 C 0.56553 0.43713 1.00354 0.0
C2013 C 0.56146 0.4591 0.00881 0.0
C2014 C 0.5641 0.42259 0.01893 0.0
C2015 C 0.55838 0.42964 0.04 0.0
C2016 C 0.55549 0.45197 0.04548 0.0
C2017 C 0.55706 0.46655 0.03002 0.0
C2018 C 0.53163 0.39912 0.08225 0.0
C2019 C 0.54305 0.38049 0.08202 0.0
C2020 C 0.53698 0.41536 0.0692 0.0
C2021 C 0.55391 0.41347 0.05552 0.0
C2022 C 0.56567 0.39518 0.0558 0.0
C2023 C 0.56035 0.37897 0.06885 0.0
H2024 H 0.66668 0.2012 0.27992 0.0
H2025 H 0.70161 0.25662 0.26263 0.0
H2026 H 0.63927 0.21002 0.25764 0.0
H2027 H 0.6746 0.26539 0.23987 0.0
H2028 H 0.61432 0.28895 0.22106 0.0
H2029 H 0.64179 0.2792 0.24231 0.0
H2030 H 0.62888 0.21134 0.22212 0.0
H2031 H 0.60067 0.22104 0.20182 0.0
C2032 C 0.66851 0.21509 0.27103 0.0
C2033 C 0.68611 0.22828 0.27292 0.0
C2034 C 0.65289 0.22016 0.25823 0.0
C2035 C 0.65461 0.23851 0.24696 0.0
C2036 C 0.67253 0.2514 0.24859 0.0
C2037 C 0.68806 0.24636 0.26147 0.0
C2038 C 0.61717 0.27192 0.22131 0.0
C2039 C 0.60516 0.25582 0.20969 0.0
C2040 C 0.63315 0.26632 0.23329 0.0
C2041 C 0.63768 0.24445 0.23394 0.0
C2042 C 0.62575 0.22834 0.22222 0.0
C2043 C 0.6097 0.23394 0.21031 0.0
H2044 H 0.48127 0.10495 0.96745 0.0
H2045 H 0.49518 0.07063 0.02025 0.0
H2046 H 0.49249 0.1393 0.98744 0.0
H2047 H 0.5055 0.10459 0.04074 0.0
H2048 H 0.52917 0.16734 0.07323 0.0
H2049 H 0.52704 0.1349 0.0478 0.0
H2050 H 0.47932 0.16269 0.01586 0.0
H2051 H 0.48212 0.19542 0.04087 0.0
C2052 C 0.48729 0.10478 0.98314 0.0
C2053 C 0.48739 0.0853 0.99241 0.0
C2054 C 0.49339 0.12443 0.99477 0.0
C2055 C 0.49961 0.12493 0.01595 0.0
C2056 C 0.50103 0.10505 0.0245 0.0
C2057 C 0.49508 0.08552 0.01282 0.0
C2058 C 0.51831 0.16652 0.06067 0.0
C2059 C 0.50567 0.18384 0.05918 0.0
C2060 C 0.51705 0.14789 0.04608 0.0
C2061 C 0.50287 0.14592 0.02976 0.0
C2062 C 0.49065 0.16361 0.02793 0.0
C2063 C 0.49213 0.18238 0.04237 0.0
H2064 H 0.25187 0.31021 0.7679 0.0
H2065 H 0.2317 0.33477 0.71151 0.0
H2066 H 0.27849 0.33862 0.7717 0.0
H2067 H 0.25831 0.36351 0.71518 0.0
H2068 H 0.31774 0.40492 0.72288 0.0
H2069 H 0.29503 0.37304 0.71562 0.0
H2070 H 0.27765 0.37775 0.78188 0.0
H2071 H 0.30055 0.40916 0.78917 0.0
C2072 C 0.25348 0.32153 0.7561 0.0
C2073 C 0.2398 0.32046 0.73949 0.0
C2074 C 0.26856 0.3379 0.75834 0.0
C2075 C 0.27032 0.35362 0.74397 0.0
C2076 C 0.25741 0.35165 0.7265 0.0
C2077 C 0.24225 0.33521 0.7243 0.0
C2078 C 0.3092 0.399 0.73591 0.0
C2079 C 0.31097 0.40963 0.75662 0.0
C2080 C 0.29607 0.38084 0.73171 0.0
C2081 C 0.28458 0.37273 0.74817 0.0
C2082 C 0.28647 0.38333 0.76886 0.0
C2083 C 0.29943 0.40153 0.77302 0.0
H2084 H 0.21587 0.66405 0.80694 0.0
H2085 H 0.26441 0.71223 0.80998 0.0
H2086 H 0.23995 0.63542 0.80772 0.0
H2087 H 0.28867 0.68363 0.81139 0.0
H2088 H 0.32274 0.62323 0.82958 0.0
H2089 H 0.29921 0.65269 0.83347 0.0
H2090 H 0.26637 0.62205 0.7797 0.0
H2091 H 0.2902 0.59325 0.77502 0.0
C2092 C 0.23172 0.66848 0.8081 0.0
C2093 C 0.23834 0.69025 0.8081 0.0
C2094 C 0.24549 0.65215 0.80852 0.0
C2095 C 0.26622 0.65725 0.80931 0.0
C2096 C 0.27279 0.67921 0.81081 0.0
C2097 C 0.25895 0.69558 0.8101 0.0
C2098 C 0.31069 0.62283 0.81837 0.0
C2099 C 0.30847 0.60558 0.80202 0.0
C2100 C 0.29714 0.63971 0.82072 0.0
C2101 C 0.28083 0.63957 0.80703 0.0
C2102 C 0.27857 0.6224 0.79075 0.0
C2103 C 0.29225 0.60578 0.78817 0.0
H2104 H 0.92182 0.53098 0.45465 0.0
H2105 H 0.94815 0.51639 0.51253 0.0
H2106 H 0.89212 0.50807 0.4617 0.0
H2107 H 0.91836 0.49391 0.52009 0.0
H2108 H 0.87102 0.43804 0.51556 0.0
H2109 H 0.90086 0.45984 0.50744 0.0
H2110 H 0.86336 0.50804 0.48625 0.0
H2111 H 0.83348 0.48631 0.49448 0.0
C2112 C 0.92119 0.52275 0.46884 0.0
C2113 C 0.93715 0.52536 0.48307 0.0
C2114 C 0.90417 0.50982 0.47302 0.0
C2115 C 0.9028 0.49918 0.49151 0.0
C2116 C 0.91896 0.50167 0.5056 0.0
C2117 C 0.93594 0.51465 0.50142 0.0
C2118 C 0.8691 0.45339 0.50937 0.0
C2119 C 0.84979 0.46042 0.50576 0.0
C2120 C 0.88624 0.46588 0.50468 0.0
C2121 C 0.88454 0.48572 0.4962 0.0
C2122 C 0.86524 0.49269 0.49246 0.0
C2123 C 0.84809 0.48022 0.49719 0.0
H2124 H 0.79793 0.86441 0.81332 0.0
H2125 H 0.75289 0.81471 0.79446 0.0
H2126 H 0.77426 0.89243 0.80813 0.0
H2127 H 0.72904 0.84258 0.78911 0.0
H2128 H 0.68607 0.89897 0.80146 0.0
H2129 H 0.70933 0.87108 0.80785 0.0
H2130 H 0.75768 0.90731 0.77979 0.0
H2131 H 0.73465 0.9355 0.77411 0.0
C2132 C 0.78293 0.85956 0.80798 0.0
C2133 C 0.7772 0.83748 0.80423 0.0
C2134 C 0.76937 0.87555 0.80494 0.0
C2135 C 0.74971 0.86981 0.7981 0.0
C2136 C 0.74395 0.84763 0.79462 0.0
C2137 C 0.75756 0.83165 0.79763 0.0
C2138 C 0.7017 0.90108 0.79681 0.0
C2139 C 0.70843 0.91953 0.78724 0.0
C2140 C 0.71501 0.88495 0.80028 0.0
C2141 C 0.73543 0.8869 0.79436 0.0
C2142 C 0.74213 0.90535 0.78479 0.0
C2143 C 0.72884 0.92142 0.78128 0.0
H2144 H 0.57185 0.5275 0.01331 0.0
H2145 H 0.60364 0.475 0.97974 0.0
H2146 H 0.60349 0.5484 0.01958 0.0
H2147 H 0.63548 0.49595 0.98521 0.0
H2148 H 0.69179 0.5366 0.00752 0.0
H2149 H 0.66141 0.51316 0.00766 0.0
H2150 H 0.62565 0.5676 0.99793 0.0
H2151 H 0.65585 0.5909 0.99796 0.0
C2152 C 0.5858 0.52022 0.0079 0.0
C2153 C 0.58545 0.49959 0.99637 0.0
C2154 C 0.60391 0.5323 0.01108 0.0
C2155 C 0.62214 0.52414 1.00252 0.0
C2156 C 0.62186 0.5028 0.99216 0.0
C2157 C 0.60368 0.49068 0.98912 0.0
C2158 C 0.67745 0.54354 1.0053 0.0
C2159 C 0.67636 0.56574 1.0028 0.0
C2160 C 0.65998 0.53007 1.00542 0.0
C2161 C 0.64091 0.53842 1.00303 0.0
C2162 C 0.63991 0.5606 1.0004 0.0
C2163 C 0.65732 0.57403 1.00033 0.0
H2164 H 0.26308 0.71917 0.27067 0.0
H2165 H 0.30698 0.6791 0.23682 0.0
H2166 H 0.24313 0.68679 0.27814 0.0
H2167 H 0.28722 0.64641 0.24425 0.0
H2168 H 0.23012 0.60088 0.23169 0.0
H2169 H 0.25474 0.63082 0.23054 0.0
H2170 H 0.24047 0.65335 0.29574 0.0
H2171 H 0.21604 0.62313 0.2971 0.0
C2172 C 0.26875 0.7033 0.26553 0.0
C2173 C 0.28654 0.70149 0.25335 0.0
C2174 C 0.25735 0.68475 0.26971 0.0
C2175 C 0.26343 0.66395 0.26158 0.0
C2176 C 0.28196 0.66217 0.2505 0.0
C2177 C 0.29343 0.68079 0.24651 0.0
C2178 C 0.23244 0.61193 0.24595 0.0
C2179 C 0.22089 0.60952 0.26445 0.0
C2180 C 0.24663 0.62914 0.24528 0.0
C2181 C 0.24964 0.64454 0.26306 0.0
C2182 C 0.23839 0.64194 0.28169 0.0
C2183 C 0.22428 0.62464 0.2824 0.0
H2184 H 0.93355 0.5129 0.09012 0.0
H2185 H 0.94641 0.49752 0.02349 0.0
H2186 H 0.90741 0.53696 0.08189 0.0
H2187 H 0.91923 0.51996 0.0149 0.0
H2188 H 0.88065 0.57545 1.00433 0.0
H2189 H 0.90824 0.55434 0.01362 0.0
H2190 H 0.87527 0.53843 0.06963 0.0
H2191 H 0.84854 0.56128 0.06144 0.0
C2192 C 0.93071 0.5147 0.07369 0.0
C2193 C 0.94199 0.50336 0.05745 0.0
C2194 C 0.91549 0.52822 0.06888 0.0
C2195 C 0.9109 0.53048 0.04765 0.0
C2196 C 0.92236 0.51908 0.03144 0.0
C2197 C 0.9378 0.50591 0.0363 0.0
C2198 C 0.87936 0.56787 0.01888 0.0
C2199 C 0.86214 0.57031 0.03208 0.0
C2200 C 0.89517 0.55531 0.02405 0.0
C2201 C 0.89418 0.5444 0.0424 0.0
C2202 C 0.87692 0.54675 0.05554 0.0
C2203 C 0.86126 0.55962 0.05057 0.0
H2204 H 0.06005 0.99456 0.03466 0.0
H2205 H 0.09536 0.0522 0.05556 0.0
H2206 H 0.09055 0.9747 0.02633 0.0
H2207 H 0.12628 0.03274 0.04658 0.0
H2208 H 0.17262 0.98283 0.06082 0.0
H2209 H 0.14387 1.00594 0.06195 0.0
H2210 H 0.1202 0.96767 1.00631 0.0
H2211 H 0.14882 0.94429 1.00551 0.0
C2212 C 0.07448 1.00315 0.03664 0.0
C2213 C 0.07544 0.02485 0.04568 0.0
C2214 C 0.09203 0.99181 0.03191 0.0
C2215 C 0.11105 1.00193 0.03605 0.0
C2216 C 0.11195 0.02422 0.04359 0.0
C2217 C 0.0943 0.03554 0.04837 0.0
C2218 C 0.1614 0.97948 0.04868 0.0
C2219 C 0.16301 0.96155 0.03317 0.0
C2220 C 0.14489 0.99285 0.04924 0.0
C2221 C 0.12955 0.9888 0.03422 0.0
C2222 C 0.13146 0.97116 0.01838 0.0
C2223 C 0.1479 0.9577 0.01792 0.0
loop_
_geom_bond_atom_site_label_1
_geom_bond_atom_site_label_2
_geom_bond_distance
_geom_bond_site_symmetry_2
_ccdc_geom_bond_type
C0 N1 1.317 1_565 S
C0 N2 1.348 1_565 S
C0 C3 1.485 . S
N1 C0 1.317 1_545 S
N1 N5 1.370 . S
N2 C0 1.348 1_545 S
N2 C4 1.350 . S
C3 C0 1.485 . S
C3 H7 0.960 . S
C3 H8 0.961 . S
C3 H9 0.960 . S
C4 N2 1.350 . S
C4 N5 1.334 . S
C4 C6 1.460 1_455 S
N5 N1 1.370 . S
N5 C4 1.334 . S
C6 C4 1.460 1_655 S
C6 H10 0.960 . S
C6 H11 0.960 . S
C6 H12 0.959 . S
H7 C3 0.960 . S
H8 C3 0.961 . S
H9 C3 0.960 . S
H10 C6 0.960 . S
H11 C6 0.960 . S
H12 C6 0.959 . S
C13 N14 1.317 . S
C13 N15 1.348 . S
C13 C16 1.485 . S
N14 C13 1.317 . S
N14 N18 1.370 . S
N15 C13 1.348 . S
N15 C17 1.346 . S
C16 C13 1.485 . S
C16 H20 0.960 . S
C16 H21 0.961 . S
C16 H22 0.960 . S
C17 N15 1.346 . S
C17 N18 1.307 . S
C17 C19 1.486 . S
N18 N14 1.370 . S
N18 C17 1.307 . S
C19 C17 1.486 . S
C19 H23 0.960 . S
C19 H24 0.960 . S
C19 H25 0.959 . S
H20 C16 0.960 . S
H21 C16 0.961 . S
H22 C16 0.960 . S
H23 C19 0.960 . S
H24 C19 0.960 . S
H25 C19 0.959 . S
C26 N27 1.317 . S
C26 N28 1.348 . S
C26 C29 1.485 . S
N27 C26 1.317 . S
N27 N31 1.370 . S
N28 C26 1.348 . S
N28 C30 1.346 . S
C29 C26 1.485 . S
C29 H33 0.960 . S
C29 H34 0.961 . S
C29 H35 0.960 . S
C30 N28 1.346 . S
C30 N31 1.307 . S
C30 C32 1.486 . S
N31 N27 1.370 . S
N31 C30 1.307 . S
C32 C30 1.486 . S
C32 H36 0.960 . S
C32 H37 0.960 . S
C32 H38 0.959 . S
H33 C29 0.960 . S
H34 C29 0.961 . S
H35 C29 0.960 . S
H36 C32 0.960 . S
H37 C32 0.960 . S
H38 C32 0.959 . S
C39 N40 1.317 . S
C39 N41 1.348 . S
C39 C42 1.485 . S
N40 C39 1.317 . S
N40 N44 1.370 . S
N41 C39 1.348 . S
N41 C43 1.346 . S
C42 C39 1.485 . S
C42 H46 0.960 . S
C42 H47 0.961 . S
C42 H48 0.960 . S
C43 N41 1.346 . S
C43 N44 1.307 . S
C43 C45 1.486 . S
N44 N40 1.370 . S
N44 C43 1.307 . S
C45 C43 1.486 . S
C45 H49 0.960 . S
C45 H50 0.960 . S
C45 H51 0.959 . S
H46 C42 0.960 . S
H47 C42 0.961 . S
H48 C42 0.960 . S
H49 C45 0.960 . S
H50 C45 0.960 . S
H51 C45 0.959 . S
C52 N53 1.317 . S
C52 N54 1.348 . S
C52 C55 1.485 . S
N53 C52 1.317 . S
N53 N57 1.370 . S
N54 C52 1.348 . S
N54 C56 1.347 . S
C55 C52 1.485 . S
C55 H59 0.960 . S
C55 H60 0.961 1_455 S
C55 H61 0.960 . S
C56 N54 1.347 . S
C56 N57 1.307 . S
C56 C58 1.485 1_565 S
N57 N53 1.370 . S
N57 C56 1.307 . S
C58 C56 1.485 1_545 S
C58 H62 0.960 . S
C58 H63 0.960 . S
C58 H64 0.959 . S
H59 C55 0.960 . S
H60 C55 0.961 1_655 S
H61 C55 0.960 . S
H62 C58 0.960 . S
H63 C58 0.960 . S
H64 C58 0.959 . S
C65 N66 1.317 . S
C65 N67 1.348 . S
C65 C68 1.485 . S
N66 C65 1.317 . S
N66 N70 1.370 . S
N67 C65 1.348 . S
N67 C69 1.346 . S
C68 C65 1.485 . S
C68 H72 0.960 . S
C68 H73 0.961 . S
C68 H74 0.960 . S
C69 N67 1.346 . S
C69 N70 1.307 . S
C69 C71 1.486 . S
N70 N66 1.370 . S
N70 C69 1.307 . S
C71 C69 1.486 . S
C71 H75 0.960 . S
C71 H76 0.960 . S
C71 H77 0.959 . S
H72 C68 0.960 . S
H73 C68 0.961 . S
H74 C68 0.960 . S
H75 C71 0.960 . S
H76 C71 0.960 . S
H77 C71 0.959 . S
C78 N79 1.317 . S
C78 N80 1.348 . S
C78 C81 1.485 . S
N79 C78 1.317 . S
N79 N83 1.370 . S
N80 C78 1.348 . S
N80 C82 1.346 . S
C81 C78 1.485 . S
C81 H85 0.960 . S
C81 H86 0.961 . S
C81 H87 0.960 . S
C82 N80 1.346 . S
C82 N83 1.307 . S
C82 C84 1.486 . S
N83 N79 1.370 . S
N83 C82 1.307 . S
C84 C82 1.486 . S
C84 H88 0.960 . S
C84 H89 0.960 . S
C84 H90 0.959 . S
H85 C81 0.960 . S
H86 C81 0.961 . S
H87 C81 0.960 . S
H88 C84 0.960 . S
H89 C84 0.960 . S
H90 C84 0.959 . S
C91 N92 1.317 . S
C91 N93 1.348 . S
C91 C94 1.485 . S
N92 C91 1.317 . S
N92 N96 1.370 . S
N93 C91 1.348 . S
N93 C95 1.346 . S
C94 C91 1.485 . S
C94 H98 0.960 . S
C94 H99 0.961 . S
C94 H100 0.960 . S
C95 N93 1.346 . S
C95 N96 1.307 . S
C95 C97 1.486 . S
N96 N92 1.370 . S
N96 C95 1.307 . S
C97 C95 1.486 . S
C97 H101 0.960 . S
C97 H102 0.960 . S
C97 H103 0.959 . S
H98 C94 0.960 . S
H99 C94 0.961 . S
H100 C94 0.960 . S
H101 C97 0.960 . S
H102 C97 0.960 . S
H103 C97 0.959 . S
C104 N105 1.317 . S
C104 N106 1.348 . S
C104 C107 1.485 . S
N105 C104 1.317 . S
N105 N109 1.370 . S
N106 C104 1.348 . S
N106 C108 1.346 . S
C107 C104 1.485 . S
C107 H111 0.960 . S
C107 H112 0.961 . S
C107 H113 0.960 . S
C108 N106 1.346 . S
C108 N109 1.307 . S
C108 C110 1.486 . S
N109 N105 1.370 . S
N109 C108 1.307 . S
C110 C108 1.486 . S
C110 H114 0.960 . S
C110 H115 0.960 . S
C110 H116 0.959 . S
H111 C107 0.960 . S
H112 C107 0.961 . S
H113 C107 0.960 . S
H114 C110 0.960 . S
H115 C110 0.960 . S
H116 C110 0.959 . S
C117 N118 1.317 . S
C117 N119 1.348 . S
C117 C120 1.485 1_565 S
N118 C117 1.317 . S
N118 N122 1.370 . S
N119 C117 1.348 . S
N119 C121 1.346 . S
C120 C117 1.485 1_545 S
C120 H124 0.960 . S
C120 H125 0.961 . S
C120 H126 0.960 . S
C121 N119 1.346 . S
C121 N122 1.307 . S
C121 C123 1.486 . S
N122 N118 1.370 . S
N122 C121 1.307 . S
C123 C121 1.486 . S
C123 H127 0.960 . S
C123 H128 0.960 . S
C123 H129 0.959 . S
H124 C120 0.960 . S
H125 C120 0.961 . S
H126 C120 0.960 . S
H127 C123 0.960 . S
H128 C123 0.960 . S
H129 C123 0.959 . S
C130 N131 1.317 . S
C130 N132 1.348 . S
C130 C133 1.485 . S
N131 C130 1.317 . S
N131 N135 1.370 . S
N132 C130 1.348 . S
N132 C134 1.346 . S
C133 C130 1.485 . S
C133 H137 0.960 . S
C133 H138 0.961 . S
C133 H139 0.960 . S
C134 N132 1.346 . S
C134 N135 1.307 . S
C134 C136 1.486 . S
N135 N131 1.370 . S
N135 C134 1.307 . S
C136 C134 1.486 . S
C136 H140 0.960 . S
C136 H141 0.960 . S
C136 H142 0.959 . S
H137 C133 0.960 . S
H138 C133 0.961 . S
H139 C133 0.960 . S
H140 C136 0.960 . S
H141 C136 0.960 . S
H142 C136 0.959 . S
C143 N144 1.317 . S
C143 N145 1.348 . S
C143 C146 1.485 . S
N144 C143 1.317 . S
N144 N148 1.370 . S
N145 C143 1.348 . S
N145 C147 1.346 . S
C146 C143 1.485 . S
C146 H150 0.960 . S
C146 H151 0.961 . S
C146 H152 0.960 . S
C147 N145 1.346 . S
C147 N148 1.307 . S
C147 C149 1.486 . S
N148 N144 1.370 . S
N148 C147 1.307 . S
C149 C147 1.486 . S
C149 H153 0.960 . S
C149 H154 0.960 . S
C149 H155 0.959 . S
H150 C146 0.960 . S
H151 C146 0.961 . S
H152 C146 0.960 . S
H153 C149 0.960 . S
H154 C149 0.960 . S
H155 C149 0.959 . S
C156 N157 1.317 . S
C156 N158 1.348 . S
C156 C159 1.485 . S
N157 C156 1.317 . S
N157 N161 1.370 . S
N158 C156 1.348 . S
N158 C160 1.346 . S
C159 C156 1.485 . S
C159 H163 0.960 . S
C159 H164 0.961 . S
C159 H165 0.960 . S
C160 N158 1.346 . S
C160 N161 1.307 . S
C160 C162 1.486 . S
N161 N157 1.370 . S
N161 C160 1.307 . S
C162 C160 1.486 . S
C162 H166 0.960 . S
C162 H167 0.960 . S
C162 H168 0.959 . S
H163 C159 0.960 . S
H164 C159 0.961 . S
H165 C159 0.960 . S
H166 C162 0.960 . S
H167 C162 0.960 . S
H168 C162 0.959 . S
C169 N170 1.317 . S
C169 N171 1.348 . S
C169 C172 1.485 . S
N170 C169 1.317 . S
N170 N174 1.370 . S
N171 C169 1.348 . S
N171 C173 1.346 . S
C172 C169 1.485 . S
C172 H176 0.960 . S
C172 H177 0.961 . S
C172 H178 0.960 . S
C173 N171 1.346 . S
C173 N174 1.307 . S
C173 C175 1.486 . S
N174 N170 1.370 . S
N174 C173 1.307 . S
C175 C173 1.486 . S
C175 H179 0.960 . S
C175 H180 0.960 . S
C175 H181 0.959 . S
H176 C172 0.960 . S
H177 C172 0.961 . S
H178 C172 0.960 . S
H179 C175 0.960 . S
H180 C175 0.960 . S
H181 C175 0.959 . S
C182 N183 1.317 . S
C182 N184 1.348 . S
C182 C185 1.485 . S
N183 C182 1.317 . S
N183 N187 1.370 . S
N184 C182 1.348 . S
N184 C186 1.346 . S
C185 C182 1.485 . S
C185 H189 0.960 . S
C185 H190 0.961 . S
C185 H191 0.960 . S
C186 N184 1.346 . S
C186 N187 1.307 . S
C186 C188 1.486 . S
N187 N183 1.370 . S
N187 C186 1.307 . S
C188 C186 1.486 . S
C188 H192 0.960 . S
C188 H193 0.960 . S
C188 H194 0.959 . S
H189 C185 0.960 . S
H190 C185 0.961 . S
H191 C185 0.960 . S
H192 C188 0.960 . S
H193 C188 0.960 . S
H194 C188 0.959 . S
C195 N196 1.317 . S
C195 N197 1.348 . S
C195 C198 1.485 . S
N196 C195 1.317 . S
N196 N200 1.370 . S
N197 C195 1.348 . S
N197 C199 1.346 . S
C198 C195 1.485 . S
C198 H202 0.960 . S
C198 H203 0.961 1_545 S
C198 H204 0.960 . S
C199 N197 1.346 . S
C199 N200 1.307 . S
C199 C201 1.486 1_556 S
N200 N196 1.370 . S
N200 C199 1.307 . S
C201 C199 1.486 1_554 S
C201 H205 0.960 . S
C201 H206 0.960 . S
C201 H207 0.959 . S
H202 C198 0.960 . S
H203 C198 0.961 1_565 S
H204 C198 0.960 . S
H205 C201 0.960 . S
H206 C201 0.960 . S
H207 C201 0.959 . S
Li208 N225 1.990 . S
Li208 O268 1.956 . S
Li208 O269 1.970 . S
Li208 O270 1.961 1_554 S
Li209 N233 1.990 . S
Li209 O268 1.970 . S
Li209 O269 1.956 . S
Li209 O271 1.961 . S
Li210 N255 1.990 . S
Li210 O268 1.961 1_556 S
Li210 O270 1.956 . S
Li210 O271 1.970 1_556 S
Li211 N261 1.990 . S
Li211 O269 1.961 . S
Li211 O270 1.970 1_554 S
Li211 O271 1.956 . S
C212 C214 1.354 . S
C212 C215 1.348 1_554 S
C212 O268 1.326 . S
N213 C216 1.314 1_556 S
N213 C217 1.279 . S
C214 C212 1.354 . S
C214 C216 1.353 . S
C214 H272 0.929 . S
C215 C212 1.348 1_556 S
C215 C217 1.358 . S
C215 H273 0.930 . S
C216 N213 1.314 1_554 S
C216 C214 1.353 . S
C216 H274 0.930 . S
C217 N213 1.279 . S
C217 C215 1.358 . S
C217 H275 0.930 . S
C218 C221 1.348 . S
C218 C222 1.356 . S
C218 O269 1.325 . S
C219 N220 1.279 . S
C219 C222 1.358 . S
C219 H276 0.930 . S
N220 C219 1.279 . S
N220 C223 1.314 . S
C221 C218 1.348 . S
C221 C223 1.353 . S
C221 H277 0.929 . S
C222 C218 1.356 . S
C222 C219 1.358 . S
C222 H278 0.930 . S
C223 N220 1.314 . S
C223 C221 1.353 . S
C223 H279 0.930 . S
C224 N225 1.308 1_556 S
C224 C229 1.357 . S
C224 H230 0.933 . S
N225 Li208 1.990 . S
N225 C224 1.308 1_554 S
N225 C227 1.279 . S
C226 C227 1.358 . S
C226 C228 1.357 . S
C226 H280 0.930 . S
C227 N225 1.279 . S
C227 C226 1.358 . S
C227 H231 0.930 . S
C228 C226 1.357 . S
C228 C229 1.347 1_554 S
C229 C224 1.357 . S
C229 C228 1.347 1_556 S
C229 H281 0.929 . S
H230 C224 0.933 . S
H231 C227 0.930 . S
C232 N233 1.314 . S
C232 C234 1.353 . S
C232 H238 0.930 . S
N233 Li209 1.990 . S
N233 C232 1.314 . S
N233 C236 1.279 . S
C234 C232 1.353 . S
C234 C237 1.348 . S
C234 H282 0.929 . S
C235 C236 1.358 . S
C235 C237 1.356 . S
C235 H283 0.930 . S
C236 N233 1.279 . S
C236 C235 1.358 . S
C236 H239 0.930 . S
C237 C234 1.348 . S
C237 C235 1.356 . S
H238 C232 0.930 . S
H239 C236 0.930 . S
C240 C242 1.348 . S
C240 C243 1.356 . S
C240 O270 1.325 . S
N241 C244 1.314 . S
N241 C245 1.279 . S
C242 C240 1.348 . S
C242 C244 1.353 . S
C242 H284 0.929 . S
C243 C240 1.356 . S
C243 C245 1.358 . S
C243 H285 0.930 . S
C244 N241 1.314 . S
C244 C242 1.353 . S
C244 H286 0.930 . S
C245 N241 1.279 . S
C245 C243 1.358 . S
C245 H287 0.930 . S
C246 C247 1.348 1_554 S
C246 C248 1.356 . S
C246 O271 1.325 . S
C247 C246 1.348 1_556 S
C247 C249 1.346 1_556 S
C247 H288 0.929 . S
C248 C246 1.356 . S
C248 C250 1.358 . S
C248 H289 0.930 . S
C249 C247 1.346 1_554 S
C249 N251 1.346 . S
C249 H290 0.903 1_554 S
C250 C248 1.358 . S
C250 N251 1.279 . S
C250 H291 0.930 . S
N251 C249 1.346 . S
N251 C250 1.279 . S
C252 C254 1.353 . S
C252 N255 1.314 . S
C252 H258 0.930 . S
C253 N255 1.279 . S
C253 C256 1.358 . S
C253 H259 0.930 . S
C254 C252 1.353 . S
C254 C257 1.348 . S
C254 H292 0.929 . S
N255 Li210 1.990 . S
N255 C252 1.314 . S
N255 C253 1.279 . S
C256 C253 1.358 . S
C256 C257 1.356 . S
C256 H293 0.930 . S
C257 C254 1.348 . S
C257 C256 1.356 . S
H258 C252 0.930 . S
H259 C253 0.930 . S
C260 N261 1.314 . S
C260 C262 1.353 . S
C260 H266 0.930 . S
N261 Li211 1.990 . S
N261 C260 1.314 . S
N261 C264 1.279 . S
C262 C260 1.353 . S
C262 C265 1.348 . S
C262 H294 0.929 . S
C263 C264 1.358 . S
C263 C265 1.356 . S
C263 H295 0.930 . S
C264 N261 1.279 . S
C264 C263 1.358 . S
C264 H267 0.930 . S
C265 C262 1.348 . S
C265 C263 1.356 . S
H266 C260 0.930 . S
H267 C264 0.930 . S
O268 Li208 1.956 . S
O268 Li209 1.970 . S
O268 Li210 1.961 1_554 S
O268 C212 1.326 . S
O269 Li208 1.970 . S
O269 Li209 1.956 . S
O269 Li211 1.961 . S
O269 C218 1.325 . S
O270 Li208 1.961 1_556 S
O270 Li210 1.956 . S
O270 Li211 1.970 1_556 S
O270 C240 1.325 . S
O271 Li209 1.961 . S
O271 Li210 1.970 1_554 S
O271 Li211 1.956 . S
O271 C246 1.325 . S
H272 C214 0.929 . S
H273 C215 0.930 . S
H274 C216 0.930 . S
H275 C217 0.930 . S
H276 C219 0.930 . S
H277 C221 0.929 . S
H278 C222 0.930 . S
H279 C223 0.930 . S
H280 C226 0.930 . S
H281 C229 0.929 . S
H282 C234 0.929 . S
H283 C235 0.930 . S
H284 C242 0.929 . S
H285 C243 0.930 . S
H286 C244 0.930 . S
H287 C245 0.930 . S
H288 C247 0.929 . S
H289 C248 0.930 . S
H290 C249 0.903 1_556 S
H291 C250 0.930 . S
H292 C254 0.929 . S
H293 C256 0.930 . S
H294 C262 0.929 . S
H295 C263 0.930 . S
Li296 N313 1.990 . S
Li296 O356 1.956 . S
Li296 O357 1.970 . S
Li296 O358 1.961 . S
Li297 N321 1.990 . S
Li297 O356 1.970 . S
Li297 O357 1.956 . S
Li297 O359 1.961 . S
Li298 N343 1.990 . S
Li298 O356 1.961 . S
Li298 O358 1.956 . S
Li298 O359 1.970 . S
Li299 N349 1.990 . S
Li299 O357 1.961 . S
Li299 O358 1.970 . S
Li299 O359 1.956 . S
C300 C302 1.348 . S
C300 C303 1.356 . S
C300 O356 1.325 . S
N301 C304 1.314 . S
N301 C305 1.279 . S
C302 C300 1.348 . S
C302 C304 1.353 . S
C302 H360 0.929 . S
C303 C300 1.356 . S
C303 C305 1.358 . S
C303 H361 0.930 . S
C304 N301 1.314 . S
C304 C302 1.353 . S
C304 H362 0.930 . S
C305 N301 1.279 . S
C305 C303 1.358 . S
C305 H363 0.930 . S
C306 C309 1.348 . S
C306 C310 1.356 . S
C306 O357 1.325 . S
C307 N308 1.279 . S
C307 C310 1.358 . S
C307 H364 0.930 . S
N308 C307 1.279 . S
N308 C311 1.314 . S
C309 C306 1.348 . S
C309 C311 1.353 . S
C309 H365 0.929 . S
C310 C306 1.356 . S
C310 C307 1.358 . S
C310 H366 0.930 . S
C311 N308 1.314 . S
C311 C309 1.353 . S
C311 H367 0.930 . S
C312 N313 1.314 . S
C312 C317 1.353 . S
C312 H318 0.930 . S
N313 Li296 1.990 . S
N313 C312 1.314 . S
N313 C315 1.279 . S
C314 C315 1.358 . S
C314 C316 1.356 . S
C314 H368 0.930 . S
C315 N313 1.279 . S
C315 C314 1.358 . S
C315 H319 0.930 . S
C316 C314 1.356 . S
C316 C317 1.348 . S
C317 C312 1.353 . S
C317 C316 1.348 . S
C317 H369 0.929 . S
H318 C312 0.930 . S
H319 C315 0.930 . S
C320 N321 1.314 . S
C320 C322 1.353 . S
C320 H326 0.930 . S
N321 Li297 1.990 . S
N321 C320 1.314 . S
N321 C324 1.279 . S
C322 C320 1.353 . S
C322 C325 1.348 . S
C322 H370 0.929 . S
C323 C324 1.358 . S
C323 C325 1.356 . S
C323 H371 0.930 . S
C324 N321 1.279 . S
C324 C323 1.358 . S
C324 H327 0.930 . S
C325 C322 1.348 . S
C325 C323 1.356 . S
H326 C320 0.930 . S
H327 C324 0.930 . S
C328 C330 1.348 . S
C328 C331 1.356 . S
C328 O358 1.325 . S
N329 C332 1.314 . S
N329 C333 1.279 . S
C330 C328 1.348 . S
C330 C332 1.353 . S
C330 H372 0.929 . S
C331 C328 1.356 . S
C331 C333 1.358 . S
C331 H373 0.930 . S
C332 N329 1.314 . S
C332 C330 1.353 . S
C332 H374 0.930 . S
C333 N329 1.279 . S
C333 C331 1.358 . S
C333 H375 0.930 . S
C334 C335 1.348 . S
C334 C336 1.356 . S
C334 O359 1.325 . S
C335 C334 1.348 . S
C335 C337 1.353 . S
C335 H376 0.929 . S
C336 C334 1.356 . S
C336 C338 1.358 . S
C336 H377 0.930 . S
C337 C335 1.353 . S
C337 N339 1.314 . S
C337 H378 0.930 . S
C338 C336 1.358 . S
C338 N339 1.279 . S
C338 H379 0.930 . S
N339 C337 1.314 . S
N339 C338 1.279 . S
C340 C342 1.353 . S
C340 N343 1.314 . S
C340 H346 0.930 . S
C341 N343 1.279 . S
C341 C344 1.358 . S
C341 H347 0.930 . S
C342 C340 1.353 . S
C342 C345 1.348 . S
C342 H380 0.929 . S
N343 Li298 1.990 . S
N343 C340 1.314 . S
N343 C341 1.279 . S
C344 C341 1.358 . S
C344 C345 1.356 . S
C344 H381 0.930 . S
C345 C342 1.348 . S
C345 C344 1.356 . S
H346 C340 0.930 . S
H347 C341 0.930 . S
C348 N349 1.314 . S
C348 C350 1.353 . S
C348 H354 0.930 . S
N349 Li299 1.990 . S
N349 C348 1.314 . S
N349 C352 1.279 . S
C350 C348 1.353 . S
C350 C353 1.348 . S
C350 H382 0.929 . S
C351 C352 1.358 . S
C351 C353 1.356 . S
C351 H383 0.930 . S
C352 N349 1.279 . S
C352 C351 1.358 . S
C352 H355 0.930 . S
C353 C350 1.348 . S
C353 C351 1.356 . S
H354 C348 0.930 . S
H355 C352 0.930 . S
O356 Li296 1.956 . S
O356 Li297 1.970 . S
O356 Li298 1.961 . S
O356 C300 1.325 . S
O357 Li296 1.970 . S
O357 Li297 1.956 . S
O357 Li299 1.961 . S
O357 C306 1.325 . S
O358 Li296 1.961 . S
O358 Li298 1.956 . S
O358 Li299 1.970 . S
O358 C328 1.325 . S
O359 Li297 1.961 . S
O359 Li298 1.970 . S
O359 Li299 1.956 . S
O359 C334 1.325 . S
H360 C302 0.929 . S
H361 C303 0.930 . S
H362 C304 0.930 . S
H363 C305 0.930 . S
H364 C307 0.930 . S
H365 C309 0.929 . S
H366 C310 0.930 . S
H367 C311 0.930 . S
H368 C314 0.930 . S
H369 C317 0.929 . S
H370 C322 0.929 . S
H371 C323 0.930 . S
H372 C330 0.929 . S
H373 C331 0.930 . S
H374 C332 0.930 . S
H375 C333 0.930 . S
H376 C335 0.929 . S
H377 C336 0.930 . S
H378 C337 0.930 . S
H379 C338 0.930 . S
H380 C342 0.929 . S
H381 C344 0.930 . S
H382 C350 0.929 . S
H383 C351 0.930 . S
Li384 N401 1.990 1_554 S
Li384 O444 1.956 . S
Li384 O445 1.970 . S
Li384 O446 1.961 1_554 S
Li385 N409 1.990 . S
Li385 O444 1.970 . S
Li385 O445 1.956 . S
Li385 O447 1.961 . S
Li386 N431 1.990 . S
Li386 O444 1.961 1_556 S
Li386 O446 1.956 . S
Li386 O447 1.970 1_556 S
Li387 N437 1.990 . S
Li387 O445 1.961 . S
Li387 O446 1.970 1_554 S
Li387 O447 1.956 . S
C388 C390 1.348 . S
C388 C391 1.356 1_554 S
C388 O444 1.325 . S
N389 C392 1.354 . S
N389 C393 1.248 1_554 S
C390 C388 1.348 . S
C390 C392 1.353 . S
C390 H448 0.929 . S
C391 C388 1.356 1_556 S
C391 C393 1.358 . S
C391 H449 0.930 . S
C392 N389 1.354 . S
C392 C390 1.353 . S
C392 H450 0.930 . S
C393 N389 1.248 1_556 S
C393 C391 1.358 . S
C393 H451 0.930 . S
C394 C397 1.348 . S
C394 C398 1.356 . S
C394 O445 1.325 . S
C395 N396 1.279 . S
C395 C398 1.358 . S
C395 H452 0.930 . S
N396 C395 1.279 . S
N396 C399 1.314 . S
C397 C394 1.348 . S
C397 C399 1.353 . S
C397 H453 0.929 . S
C398 C394 1.356 . S
C398 C395 1.358 . S
C398 H454 0.930 . S
C399 N396 1.314 . S
C399 C397 1.353 . S
C399 H455 0.930 . S
C400 N401 1.314 . S
C400 C405 1.353 . S
C400 H406 0.930 . S
N401 Li384 1.990 1_556 S
N401 C400 1.314 . S
N401 C403 1.279 . S
C402 C403 1.358 . S
C402 C404 1.356 . S
C402 H456 0.930 . S
C403 N401 1.279 . S
C403 C402 1.358 . S
C403 H407 0.921 1_556 S
C404 C402 1.356 . S
C404 C405 1.348 . S
C405 C400 1.353 . S
C405 C404 1.348 . S
C405 H457 0.929 . S
H406 C400 0.930 . S
H407 C403 0.921 1_554 S
C408 N409 1.314 . S
C408 C410 1.353 . S
C408 H414 0.930 . S
N409 Li385 1.990 . S
N409 C408 1.314 . S
N409 C412 1.279 . S
C410 C408 1.353 . S
C410 C413 1.348 . S
C410 H458 0.929 . S
C411 C412 1.358 . S
C411 C413 1.356 . S
C411 H459 0.930 . S
C412 N409 1.279 . S
C412 C411 1.358 . S
C412 H415 0.930 . S
C413 C410 1.348 . S
C413 C411 1.356 . S
H414 C408 0.930 . S
H415 C412 0.930 . S
C416 C418 1.348 . S
C416 C419 1.356 . S
C416 O446 1.325 . S
N417 C420 1.314 . S
N417 C421 1.279 . S
C418 C416 1.348 . S
C418 C420 1.353 . S
C418 H460 0.929 . S
C419 C416 1.356 . S
C419 C421 1.358 . S
C419 H461 0.930 . S
C420 N417 1.314 . S
C420 C418 1.353 . S
C420 H462 0.930 . S
C421 N417 1.279 . S
C421 C419 1.358 . S
C421 H463 0.930 . S
C422 C423 1.348 . S
C422 C424 1.356 . S
C422 O447 1.325 . S
C423 C422 1.348 . S
C423 C425 1.353 . S
C423 H464 0.929 1_554 S
C424 C422 1.356 . S
C424 C426 1.358 . S
C424 H465 0.930 . S
C425 C423 1.353 . S
C425 N427 1.314 . S
C425 H466 0.937 . S
C426 C424 1.358 . S
C426 N427 1.279 . S
C426 H467 0.930 . S
N427 C425 1.314 . S
N427 C426 1.279 . S
C428 C430 1.353 . S
C428 N431 1.314 . S
C428 H434 0.930 . S
C429 N431 1.279 . S
C429 C432 1.358 . S
C429 H435 0.930 . S
C430 C428 1.353 . S
C430 C433 1.348 . S
C430 H468 0.929 . S
N431 Li386 1.990 . S
N431 C428 1.314 . S
N431 C429 1.279 . S
C432 C429 1.358 . S
C432 C433 1.356 . S
C432 H469 0.930 . S
C433 C430 1.348 . S
C433 C432 1.356 . S
H434 C428 0.930 . S
H435 C429 0.930 . S
C436 N437 1.314 . S
C436 C438 1.353 . S
C436 H442 0.930 . S
N437 Li387 1.990 . S
N437 C436 1.314 . S
N437 C440 1.279 . S
C438 C436 1.353 . S
C438 C441 1.348 . S
C438 H470 0.929 . S
C439 C440 1.358 . S
C439 C441 1.356 . S
C439 H471 0.930 . S
C440 N437 1.279 . S
C440 C439 1.358 . S
C440 H443 0.930 . S
C441 C438 1.348 . S
C441 C439 1.356 . S
H442 C436 0.930 . S
H443 C440 0.930 . S
O444 Li384 1.956 . S
O444 Li385 1.970 . S
O444 Li386 1.961 1_554 S
O444 C388 1.325 . S
O445 Li384 1.970 . S
O445 Li385 1.956 . S
O445 Li387 1.961 . S
O445 C394 1.325 . S
O446 Li384 1.961 1_556 S
O446 Li386 1.956 . S
O446 Li387 1.970 1_556 S
O446 C416 1.325 . S
O447 Li385 1.961 . S
O447 Li386 1.970 1_554 S
O447 Li387 1.956 . S
O447 C422 1.325 . S
H448 C390 0.929 . S
H449 C391 0.930 . S
H450 C392 0.930 . S
H451 C393 0.930 . S
H452 C395 0.930 . S
H453 C397 0.929 . S
H454 C398 0.930 . S
H455 C399 0.930 . S
H456 C402 0.930 . S
H457 C405 0.929 . S
H458 C410 0.929 . S
H459 C411 0.930 . S
H460 C418 0.929 . S
H461 C419 0.930 . S
H462 C420 0.930 . S
H463 C421 0.930 . S
H464 C423 0.929 1_556 S
H465 C424 0.930 . S
H466 C425 0.937 . S
H467 C426 0.930 . S
H468 C430 0.929 . S
H469 C432 0.930 . S
H470 C438 0.929 . S
H471 C439 0.930 . S
Li472 N489 1.990 . S
Li472 O532 1.956 . S
Li472 O533 1.970 . S
Li472 O534 1.961 . S
Li473 N497 1.990 . S
Li473 O532 1.970 . S
Li473 O533 1.956 . S
Li473 O535 1.961 1_545 S
Li474 N519 1.990 . S
Li474 O532 1.961 . S
Li474 O534 1.956 . S
Li474 O535 1.970 1_545 S
Li475 N525 1.990 . S
Li475 O533 1.961 1_565 S
Li475 O534 1.970 1_565 S
Li475 O535 1.956 . S
C476 C478 1.348 . S
C476 C479 1.356 . S
C476 O532 1.325 . S
N477 C480 1.314 . S
N477 C481 1.279 . S
C478 C476 1.348 . S
C478 C480 1.353 . S
C478 H536 0.929 . S
C479 C476 1.356 . S
C479 C481 1.358 . S
C479 H537 0.930 . S
C480 N477 1.314 . S
C480 C478 1.353 . S
C480 H538 0.930 . S
C481 N477 1.279 . S
C481 C479 1.358 . S
C481 H539 0.930 . S
C482 C485 1.348 . S
C482 C486 1.356 1_545 S
C482 O533 1.325 . S
C483 N484 1.274 1_565 S
C483 C486 1.358 . S
C483 H540 0.930 . S
N484 C483 1.274 1_545 S
N484 C487 1.321 . S
C485 C482 1.348 . S
C485 C487 1.353 . S
C485 H541 0.929 . S
C486 C482 1.356 1_565 S
C486 C483 1.358 . S
C486 H542 0.930 . S
C487 N484 1.321 . S
C487 C485 1.353 . S
C487 H543 0.930 . S
C488 N489 1.314 . S
C488 C493 1.353 . S
C488 H494 0.930 . S
N489 Li472 1.990 . S
N489 C488 1.314 . S
N489 C491 1.279 . S
C490 C491 1.358 . S
C490 C492 1.356 . S
C490 H544 0.930 . S
C491 N489 1.279 . S
C491 C490 1.358 . S
C491 H495 0.930 . S
C492 C490 1.356 . S
C492 C493 1.348 . S
C493 C488 1.353 . S
C493 C492 1.348 . S
C493 H545 0.929 . S
H494 C488 0.930 . S
H495 C491 0.930 . S
C496 N497 1.314 1_565 S
C496 C498 1.353 . S
C496 H502 0.930 . S
N497 Li473 1.990 . S
N497 C496 1.314 1_545 S
N497 C500 1.279 . S
C498 C496 1.353 . S
C498 C501 1.348 1_565 S
C498 H546 0.929 . S
C499 C500 1.358 . S
C499 C501 1.356 . S
C499 H547 0.930 . S
C500 N497 1.279 . S
C500 C499 1.358 . S
C500 H503 0.930 . S
C501 C498 1.348 1_545 S
C501 C499 1.356 . S
H502 C496 0.930 . S
H503 C500 0.930 . S
C504 C506 1.348 1_545 S
C504 C507 1.356 . S
C504 O534 1.325 . S
N505 C508 1.314 1_545 S
N505 C509 1.279 . S
C506 C504 1.348 1_565 S
C506 C508 1.353 . S
C506 H548 0.929 . S
C507 C504 1.356 . S
C507 C509 1.358 . S
C507 H549 0.930 . S
C508 N505 1.314 1_565 S
C508 C506 1.353 . S
C508 H550 0.930 . S
C509 N505 1.279 . S
C509 C507 1.358 . S
C509 H551 0.930 . S
C510 C511 1.348 . S
C510 C512 1.356 . S
C510 O535 1.325 . S
C511 C510 1.348 . S
C511 C513 1.353 . S
C511 H552 0.929 . S
C512 C510 1.356 . S
C512 C514 1.358 . S
C512 H553 0.930 . S
C513 C511 1.353 . S
C513 N515 1.314 . S
C513 H554 0.930 . S
C514 C512 1.358 . S
C514 N515 1.279 . S
C514 H555 0.930 . S
N515 C513 1.314 . S
N515 C514 1.279 . S
C516 C518 1.353 . S
C516 N519 1.314 . S
C516 H522 0.930 . S
C517 N519 1.274 1_565 S
C517 C520 1.357 . S
C517 H523 0.942 . S
C518 C516 1.353 . S
C518 C521 1.348 . S
C518 H556 0.929 . S
N519 Li474 1.990 . S
N519 C516 1.314 . S
N519 C517 1.274 1_545 S
C520 C517 1.357 . S
C520 C521 1.356 1_565 S
C520 H557 0.930 . S
C521 C518 1.348 . S
C521 C520 1.356 1_545 S
H522 C516 0.930 . S
H523 C517 0.942 . S
C524 N525 1.314 . S
C524 C526 1.353 . S
C524 H530 0.930 . S
N525 Li475 1.990 . S
N525 C524 1.314 . S
N525 C528 1.279 . S
C526 C524 1.353 . S
C526 C529 1.348 . S
C526 H558 0.929 . S
C527 C528 1.358 . S
C527 C529 1.356 . S
C527 H559 0.930 . S
C528 N525 1.279 . S
C528 C527 1.358 . S
C528 H531 0.930 . S
C529 C526 1.348 . S
C529 C527 1.356 . S
H530 C524 0.930 . S
H531 C528 0.930 . S
O532 Li472 1.956 . S
O532 Li473 1.970 . S
O532 Li474 1.961 . S
O532 C476 1.325 . S
O533 Li472 1.970 . S
O533 Li473 1.956 . S
O533 Li475 1.961 1_545 S
O533 C482 1.325 . S
O534 Li472 1.961 . S
O534 Li474 1.956 . S
O534 Li475 1.970 1_545 S
O534 C504 1.325 . S
O535 Li473 1.961 1_565 S
O535 Li474 1.970 1_565 S
O535 Li475 1.956 . S
O535 C510 1.325 . S
H536 C478 0.929 . S
H537 C479 0.930 . S
H538 C480 0.930 . S
H539 C481 0.930 . S
H540 C483 0.930 . S
H541 C485 0.929 . S
H542 C486 0.930 . S
H543 C487 0.930 . S
H544 C490 0.930 . S
H545 C493 0.929 . S
H546 C498 0.929 . S
H547 C499 0.930 . S
H548 C506 0.929 . S
H549 C507 0.930 . S
H550 C508 0.930 . S
H551 C509 0.930 . S
H552 C511 0.929 . S
H553 C512 0.930 . S
H554 C513 0.930 . S
H555 C514 0.930 . S
H556 C518 0.929 . S
H557 C520 0.930 . S
H558 C526 0.929 . S
H559 C527 0.930 . S
Li560 N577 1.990 . S
Li560 O620 1.956 . S
Li560 O621 1.970 . S
Li560 O622 1.961 . S
Li561 N585 1.990 . S
Li561 O620 1.970 . S
Li561 O621 1.956 . S
Li561 O623 1.961 . S
Li562 N607 1.990 . S
Li562 O620 1.961 . S
Li562 O622 1.956 . S
Li562 O623 1.970 . S
Li563 N613 1.990 . S
Li563 O621 1.961 . S
Li563 O622 1.970 . S
Li563 O623 1.956 . S
C564 C566 1.348 . S
C564 C567 1.356 . S
C564 O620 1.325 . S
N565 C568 1.314 . S
N565 C569 1.279 . S
C566 C564 1.348 . S
C566 C568 1.353 . S
C566 H624 0.929 . S
C567 C564 1.356 . S
C567 C569 1.358 . S
C567 H625 0.930 . S
C568 N565 1.314 . S
C568 C566 1.353 . S
C568 H626 0.930 . S
C569 N565 1.279 . S
C569 C567 1.358 . S
C569 H627 0.930 . S
C570 C573 1.348 . S
C570 C574 1.356 . S
C570 O621 1.325 . S
C571 N572 1.279 . S
C571 C574 1.358 . S
C571 H628 0.930 . S
N572 C571 1.279 . S
N572 C575 1.314 . S
C573 C570 1.348 . S
C573 C575 1.353 . S
C573 H629 0.929 . S
C574 C570 1.356 . S
C574 C571 1.358 . S
C574 H630 0.930 . S
C575 N572 1.314 . S
C575 C573 1.353 . S
C575 H631 0.930 . S
C576 N577 1.314 . S
C576 C581 1.353 . S
C576 H582 0.930 . S
N577 Li560 1.990 . S
N577 C576 1.314 . S
N577 C579 1.279 . S
C578 C579 1.358 . S
C578 C580 1.356 . S
C578 H632 0.930 . S
C579 N577 1.279 . S
C579 C578 1.358 . S
C579 H583 0.930 . S
C580 C578 1.356 . S
C580 C581 1.348 . S
C581 C576 1.353 . S
C581 C580 1.348 . S
C581 H633 0.929 . S
H582 C576 0.930 . S
H583 C579 0.930 . S
C584 N585 1.314 . S
C584 C586 1.353 . S
C584 H590 0.930 . S
N585 Li561 1.990 . S
N585 C584 1.314 . S
N585 C588 1.279 . S
C586 C584 1.353 . S
C586 C589 1.348 . S
C586 H634 0.929 . S
C587 C588 1.358 . S
C587 C589 1.356 . S
C587 H635 0.930 . S
C588 N585 1.279 . S
C588 C587 1.358 . S
C588 H591 0.930 . S
C589 C586 1.348 . S
C589 C587 1.356 . S
H590 C584 0.930 . S
H591 C588 0.930 . S
C592 C594 1.348 . S
C592 C595 1.356 . S
C592 O622 1.325 . S
N593 C596 1.314 . S
N593 C597 1.279 . S
C594 C592 1.348 . S
C594 C596 1.353 . S
C594 H636 0.929 . S
C595 C592 1.356 . S
C595 C597 1.358 . S
C595 H637 0.930 . S
C596 N593 1.314 . S
C596 C594 1.353 . S
C596 H638 0.930 . S
C597 N593 1.279 . S
C597 C595 1.358 . S
C597 H639 0.930 . S
C598 C599 1.348 . S
C598 C600 1.356 . S
C598 O623 1.325 . S
C599 C598 1.348 . S
C599 C601 1.353 . S
C599 H640 0.929 . S
C600 C598 1.356 . S
C600 C602 1.358 . S
C600 H641 0.930 . S
C601 C599 1.353 . S
C601 N603 1.314 . S
C601 H642 0.930 . S
C602 C600 1.358 . S
C602 N603 1.279 . S
C602 H643 0.930 . S
N603 C601 1.314 . S
N603 C602 1.279 . S
C604 C606 1.353 . S
C604 N607 1.314 . S
C604 H610 0.930 . S
C605 N607 1.279 . S
C605 C608 1.358 . S
C605 H611 0.930 . S
C606 C604 1.353 . S
C606 C609 1.348 . S
C606 H644 0.929 . S
N607 Li562 1.990 . S
N607 C604 1.314 . S
N607 C605 1.279 . S
C608 C605 1.358 . S
C608 C609 1.356 . S
C608 H645 0.930 . S
C609 C606 1.348 . S
C609 C608 1.356 . S
H610 C604 0.930 . S
H611 C605 0.930 . S
C612 N613 1.314 . S
C612 C614 1.353 . S
C612 H618 0.930 . S
N613 Li563 1.990 . S
N613 C612 1.314 . S
N613 C616 1.279 . S
C614 C612 1.353 . S
C614 C617 1.348 . S
C614 H646 0.929 . S
C615 C616 1.358 . S
C615 C617 1.356 . S
C615 H647 0.930 . S
C616 N613 1.279 . S
C616 C615 1.358 . S
C616 H619 0.930 . S
C617 C614 1.348 . S
C617 C615 1.356 . S
H618 C612 0.930 . S
H619 C616 0.930 . S
O620 Li560 1.956 . S
O620 Li561 1.970 . S
O620 Li562 1.961 . S
O620 C564 1.325 . S
O621 Li560 1.970 . S
O621 Li561 1.956 . S
O621 Li563 1.961 . S
O621 C570 1.325 . S
O622 Li560 1.961 . S
O622 Li562 1.956 . S
O622 Li563 1.970 . S
O622 C592 1.325 . S
O623 Li561 1.961 . S
O623 Li562 1.970 . S
O623 Li563 1.956 . S
O623 C598 1.325 . S
H624 C566 0.929 . S
H625 C567 0.930 . S
H626 C568 0.930 . S
H627 C569 0.930 . S
H628 C571 0.930 . S
H629 C573 0.929 . S
H630 C574 0.930 . S
H631 C575 0.930 . S
H632 C578 0.930 . S
H633 C581 0.929 . S
H634 C586 0.929 . S
H635 C587 0.930 . S
H636 C594 0.929 . S
H637 C595 0.930 . S
H638 C596 0.930 . S
H639 C597 0.930 . S
H640 C599 0.929 . S
H641 C600 0.930 . S
H642 C601 0.930 . S
H643 C602 0.930 . S
H644 C606 0.929 . S
H645 C608 0.930 . S
H646 C614 0.929 . S
H647 C615 0.930 . S
Li648 N665 1.990 . S
Li648 O708 1.956 . S
Li648 O709 1.970 . S
Li648 O710 1.961 . S
Li649 N673 1.990 . S
Li649 O708 1.970 . S
Li649 O709 1.956 . S
Li649 O711 1.961 . S
Li650 N695 1.990 . S
Li650 O708 1.961 . S
Li650 O710 1.956 . S
Li650 O711 1.970 . S
Li651 N701 1.990 . S
Li651 O709 1.961 . S
Li651 O710 1.970 . S
Li651 O711 1.956 . S
C652 C654 1.348 . S
C652 C655 1.356 . S
C652 O708 1.325 . S
N653 C656 1.314 . S
N653 C657 1.279 . S
C654 C652 1.348 . S
C654 C656 1.353 . S
C654 H712 0.929 . S
C655 C652 1.356 . S
C655 C657 1.358 . S
C655 H713 0.930 . S
C656 N653 1.314 . S
C656 C654 1.353 . S
C656 H714 0.930 . S
C657 N653 1.279 . S
C657 C655 1.358 . S
C657 H715 0.930 . S
C658 C661 1.348 . S
C658 C662 1.356 . S
C658 O709 1.325 . S
C659 N660 1.279 . S
C659 C662 1.358 . S
C659 H716 0.930 . S
N660 C659 1.279 . S
N660 C663 1.314 . S
C661 C658 1.348 . S
C661 C663 1.353 . S
C661 H717 0.929 . S
C662 C658 1.356 . S
C662 C659 1.358 . S
C662 H718 0.930 . S
C663 N660 1.314 . S
C663 C661 1.353 . S
C663 H719 0.930 . S
C664 N665 1.314 . S
C664 C669 1.353 . S
C664 H670 0.930 . S
N665 Li648 1.990 . S
N665 C664 1.314 . S
N665 C667 1.279 . S
C666 C667 1.358 . S
C666 C668 1.356 . S
C666 H720 0.930 . S
C667 N665 1.279 . S
C667 C666 1.358 . S
C667 H671 0.930 . S
C668 C666 1.356 . S
C668 C669 1.348 . S
C669 C664 1.353 . S
C669 C668 1.348 . S
C669 H721 0.929 . S
H670 C664 0.930 . S
H671 C667 0.930 . S
C672 N673 1.314 . S
C672 C674 1.353 . S
C672 H678 0.930 . S
N673 Li649 1.990 . S
N673 C672 1.314 . S
N673 C676 1.279 . S
C674 C672 1.353 . S
C674 C677 1.348 . S
C674 H722 0.929 . S
C675 C676 1.358 . S
C675 C677 1.356 . S
C675 H723 0.930 . S
C676 N673 1.279 . S
C676 C675 1.358 . S
C676 H679 0.930 . S
C677 C674 1.348 . S
C677 C675 1.356 . S
H678 C672 0.930 . S
H679 C676 0.930 . S
C680 C682 1.348 . S
C680 C683 1.356 . S
C680 O710 1.325 . S
N681 C684 1.314 . S
N681 C685 1.279 . S
C682 C680 1.348 . S
C682 C684 1.353 . S
C682 H724 0.929 . S
C683 C680 1.356 . S
C683 C685 1.358 . S
C683 H725 0.930 . S
C684 N681 1.314 . S
C684 C682 1.353 . S
C684 H726 0.930 . S
C685 N681 1.279 . S
C685 C683 1.358 . S
C685 H727 0.930 . S
C686 C687 1.348 . S
C686 C688 1.356 . S
C686 O711 1.325 . S
C687 C686 1.348 . S
C687 C689 1.353 . S
C687 H728 0.929 . S
C688 C686 1.356 . S
C688 C690 1.358 . S
C688 H729 0.930 . S
C689 C687 1.353 . S
C689 N691 1.314 . S
C689 H730 0.930 . S
C690 C688 1.358 . S
C690 N691 1.279 . S
C690 H731 0.930 . S
N691 C689 1.314 . S
N691 C690 1.279 . S
C692 C694 1.353 . S
C692 N695 1.314 . S
C692 H698 0.930 . S
C693 N695 1.279 . S
C693 C696 1.358 . S
C693 H699 0.930 . S
C694 C692 1.353 . S
C694 C697 1.348 . S
C694 H732 0.929 . S
N695 Li650 1.990 . S
N695 C692 1.314 . S
N695 C693 1.279 . S
C696 C693 1.358 . S
C696 C697 1.356 . S
C696 H733 0.930 . S
C697 C694 1.348 . S
C697 C696 1.356 . S
H698 C692 0.930 . S
H699 C693 0.930 . S
C700 N701 1.314 . S
C700 C702 1.353 . S
C700 H706 0.930 . S
N701 Li651 1.990 . S
N701 C700 1.314 . S
N701 C704 1.279 . S
C702 C700 1.353 . S
C702 C705 1.348 . S
C702 H734 0.929 . S
C703 C704 1.358 . S
C703 C705 1.356 . S
C703 H735 0.930 . S
C704 N701 1.279 . S
C704 C703 1.358 . S
C704 H707 0.930 . S
C705 C702 1.348 . S
C705 C703 1.356 . S
H706 C700 0.930 . S
H707 C704 0.930 . S
O708 Li648 1.956 . S
O708 Li649 1.970 . S
O708 Li650 1.961 . S
O708 C652 1.325 . S
O709 Li648 1.970 . S
O709 Li649 1.956 . S
O709 Li651 1.961 . S
O709 C658 1.325 . S
O710 Li648 1.961 . S
O710 Li650 1.956 . S
O710 Li651 1.970 . S
O710 C680 1.325 . S
O711 Li649 1.961 . S
O711 Li650 1.970 . S
O711 Li651 1.956 . S
O711 C686 1.325 . S
H712 C654 0.929 . S
H713 C655 0.930 . S
H714 C656 0.930 . S
H715 C657 0.930 . S
H716 C659 0.930 . S
H717 C661 0.929 . S
H718 C662 0.930 . S
H719 C663 0.930 . S
H720 C666 0.930 . S
H721 C669 0.929 . S
H722 C674 0.929 . S
H723 C675 0.930 . S
H724 C682 0.929 . S
H725 C683 0.930 . S
H726 C684 0.930 . S
H727 C685 0.930 . S
H728 C687 0.929 . S
H729 C688 0.930 . S
H730 C689 0.930 . S
H731 C690 0.930 . S
H732 C694 0.929 . S
H733 C696 0.930 . S
H734 C702 0.929 . S
H735 C703 0.930 . S
Li736 N753 1.990 . S
Li736 O796 1.956 . S
Li736 O797 1.970 . S
Li736 O798 1.961 . S
Li737 N761 1.990 . S
Li737 O796 1.970 . S
Li737 O797 1.956 . S
Li737 O799 1.961 . S
Li738 N783 1.990 . S
Li738 O796 1.961 . S
Li738 O798 1.956 . S
Li738 O799 1.970 . S
Li739 N789 1.990 . S
Li739 O797 1.961 . S
Li739 O798 1.970 . S
Li739 O799 1.956 . S
C740 C742 1.348 . S
C740 C743 1.356 . S
C740 O796 1.325 . S
N741 C744 1.314 . S
N741 C745 1.279 . S
C742 C740 1.348 . S
C742 C744 1.353 . S
C742 H800 0.929 . S
C743 C740 1.356 . S
C743 C745 1.358 . S
C743 H801 0.930 . S
C744 N741 1.314 . S
C744 C742 1.353 . S
C744 H802 0.930 . S
C745 N741 1.279 . S
C745 C743 1.358 . S
C745 H803 0.930 . S
C746 C749 1.348 . S
C746 C750 1.356 . S
C746 O797 1.325 . S
C747 N748 1.279 . S
C747 C750 1.358 . S
C747 H804 0.930 . S
N748 C747 1.279 . S
N748 C751 1.314 . S
C749 C746 1.348 . S
C749 C751 1.353 . S
C749 H805 0.929 . S
C750 C746 1.356 . S
C750 C747 1.358 . S
C750 H806 0.930 . S
C751 N748 1.314 . S
C751 C749 1.353 . S
C751 H807 0.930 . S
C752 N753 1.314 . S
C752 C757 1.353 . S
C752 H758 0.930 . S
N753 Li736 1.990 . S
N753 C752 1.314 . S
N753 C755 1.279 . S
C754 C755 1.358 . S
C754 C756 1.356 . S
C754 H808 0.930 . S
C755 N753 1.279 . S
C755 C754 1.358 . S
C755 H759 0.930 . S
C756 C754 1.356 . S
C756 C757 1.348 . S
C757 C752 1.353 . S
C757 C756 1.348 . S
C757 H809 0.929 . S
H758 C752 0.930 . S
H759 C755 0.930 . S
C760 N761 1.314 . S
C760 C762 1.353 . S
C760 H766 0.930 . S
N761 Li737 1.990 . S
N761 C760 1.314 . S
N761 C764 1.279 . S
C762 C760 1.353 . S
C762 C765 1.348 . S
C762 H810 0.929 . S
C763 C764 1.358 . S
C763 C765 1.356 . S
C763 H811 0.930 . S
C764 N761 1.279 . S
C764 C763 1.358 . S
C764 H767 0.930 . S
C765 C762 1.348 . S
C765 C763 1.356 . S
H766 C760 0.930 . S
H767 C764 0.930 . S
C768 C770 1.348 . S
C768 C771 1.356 . S
C768 O798 1.325 . S
N769 C772 1.314 . S
N769 C773 1.279 . S
C770 C768 1.348 . S
C770 C772 1.353 . S
C770 H812 0.929 . S
C771 C768 1.356 . S
C771 C773 1.358 . S
C771 H813 0.930 . S
C772 N769 1.314 . S
C772 C770 1.353 . S
C772 H814 0.930 . S
C773 N769 1.279 . S
C773 C771 1.358 . S
C773 H815 0.930 . S
C774 C775 1.348 . S
C774 C776 1.356 . S
C774 O799 1.325 . S
C775 C774 1.348 . S
C775 C777 1.353 . S
C775 H816 0.929 . S
C776 C774 1.356 . S
C776 C778 1.358 . S
C776 H817 0.930 . S
C777 C775 1.353 . S
C777 N779 1.314 . S
C777 H818 0.930 . S
C778 C776 1.358 . S
C778 N779 1.279 . S
C778 H819 0.930 . S
N779 C777 1.314 . S
N779 C778 1.279 . S
C780 C782 1.353 . S
C780 N783 1.314 . S
C780 H786 0.930 . S
C781 N783 1.279 . S
C781 C784 1.358 . S
C781 H787 0.930 . S
C782 C780 1.353 . S
C782 C785 1.348 . S
C782 H820 0.929 . S
N783 Li738 1.990 . S
N783 C780 1.314 . S
N783 C781 1.279 . S
C784 C781 1.358 . S
C784 C785 1.356 . S
C784 H821 0.930 . S
C785 C782 1.348 . S
C785 C784 1.356 . S
H786 C780 0.930 . S
H787 C781 0.930 . S
C788 N789 1.314 . S
C788 C790 1.353 . S
C788 H794 0.930 . S
N789 Li739 1.990 . S
N789 C788 1.314 . S
N789 C792 1.279 . S
C790 C788 1.353 . S
C790 C793 1.348 . S
C790 H822 0.929 . S
C791 C792 1.358 . S
C791 C793 1.356 . S
C791 H823 0.930 . S
C792 N789 1.279 . S
C792 C791 1.358 . S
C792 H795 0.930 . S
C793 C790 1.348 . S
C793 C791 1.356 . S
H794 C788 0.930 . S
H795 C792 0.930 . S
O796 Li736 1.956 . S
O796 Li737 1.970 . S
O796 Li738 1.961 . S
O796 C740 1.325 . S
O797 Li736 1.970 . S
O797 Li737 1.956 . S
O797 Li739 1.961 . S
O797 C746 1.325 . S
O798 Li736 1.961 . S
O798 Li738 1.956 . S
O798 Li739 1.970 . S
O798 C768 1.325 . S
O799 Li737 1.961 . S
O799 Li738 1.970 . S
O799 Li739 1.956 . S
O799 C774 1.325 . S
H800 C742 0.929 . S
H801 C743 0.930 . S
H802 C744 0.930 . S
H803 C745 0.930 . S
H804 C747 0.930 . S
H805 C749 0.929 . S
H806 C750 0.930 . S
H807 C751 0.930 . S
H808 C754 0.930 . S
H809 C757 0.929 . S
H810 C762 0.929 . S
H811 C763 0.930 . S
H812 C770 0.929 . S
H813 C771 0.930 . S
H814 C772 0.930 . S
H815 C773 0.930 . S
H816 C775 0.929 . S
H817 C776 0.930 . S
H818 C777 0.930 . S
H819 C778 0.930 . S
H820 C782 0.929 . S
H821 C784 0.930 . S
H822 C790 0.929 . S
H823 C791 0.930 . S
Li824 N841 1.990 . S
Li824 O884 1.956 . S
Li824 O885 1.970 1_565 S
Li824 O886 1.961 1_565 S
Li825 N849 1.990 . S
Li825 O884 1.970 1_545 S
Li825 O885 1.956 . S
Li825 O887 1.961 . S
Li826 N871 1.989 1_545 S
Li826 O884 1.961 1_545 S
Li826 O886 1.956 . S
Li826 O887 1.970 . S
Li827 N877 1.990 . S
Li827 O885 1.961 . S
Li827 O886 1.970 . S
Li827 O887 1.956 . S
C828 C830 1.348 . S
C828 C831 1.356 . S
C828 O884 1.325 . S
N829 C832 1.314 . S
N829 C833 1.279 . S
C830 C828 1.348 . S
C830 C832 1.353 . S
C830 H888 0.929 . S
C831 C828 1.356 . S
C831 C833 1.358 . S
C831 H889 0.930 . S
C832 N829 1.314 . S
C832 C830 1.353 . S
C832 H890 0.930 . S
C833 N829 1.279 . S
C833 C831 1.358 . S
C833 H891 0.930 . S
C834 C837 1.348 . S
C834 C838 1.356 . S
C834 O885 1.325 . S
C835 N836 1.279 . S
C835 C838 1.358 . S
C835 H892 0.930 . S
N836 C835 1.279 . S
N836 C839 1.314 . S
C837 C834 1.348 . S
C837 C839 1.353 . S
C837 H893 0.929 1_545 S
C838 C834 1.356 . S
C838 C835 1.358 . S
C838 H894 0.930 . S
C839 N836 1.314 . S
C839 C837 1.353 . S
C839 H895 0.930 . S
C840 N841 1.314 . S
C840 C845 1.353 . S
C840 H846 0.930 . S
N841 Li824 1.990 . S
N841 C840 1.314 . S
N841 C843 1.279 . S
C842 C843 1.358 . S
C842 C844 1.356 . S
C842 H896 0.930 . S
C843 N841 1.279 . S
C843 C842 1.358 . S
C843 H847 0.930 . S
C844 C842 1.356 . S
C844 C845 1.348 . S
C845 C840 1.353 . S
C845 C844 1.348 . S
C845 H897 0.929 . S
H846 C840 0.930 . S
H847 C843 0.930 . S
C848 N849 1.314 . S
C848 C850 1.353 . S
C848 H854 0.930 . S
N849 Li825 1.990 . S
N849 C848 1.314 . S
N849 C852 1.279 . S
C850 C848 1.353 . S
C850 C853 1.348 . S
C850 H898 0.929 . S
C851 C852 1.358 . S
C851 C853 1.356 . S
C851 H899 0.930 . S
C852 N849 1.279 . S
C852 C851 1.358 . S
C852 H855 0.930 . S
C853 C850 1.348 . S
C853 C851 1.356 . S
H854 C848 0.930 . S
H855 C852 0.930 . S
C856 C858 1.348 . S
C856 C859 1.356 1_545 S
C856 O886 1.325 . S
N857 C860 1.314 1_565 S
N857 C861 1.279 . S
C858 C856 1.348 . S
C858 C860 1.353 . S
C858 H900 0.929 . S
C859 C856 1.356 1_565 S
C859 C861 1.358 . S
C859 H901 0.930 . S
C860 N857 1.314 1_545 S
C860 C858 1.353 . S
C860 H902 0.930 . S
C861 N857 1.279 . S
C861 C859 1.358 . S
C861 H903 0.930 . S
C862 C863 1.348 . S
C862 C864 1.356 . S
C862 O887 1.325 . S
C863 C862 1.348 . S
C863 C865 1.353 . S
C863 H904 0.929 . S
C864 C862 1.356 . S
C864 C866 1.358 . S
C864 H905 0.930 . S
C865 C863 1.353 . S
C865 N867 1.314 . S
C865 H906 0.930 . S
C866 C864 1.358 . S
C866 N867 1.279 . S
C866 H907 0.930 . S
N867 C865 1.314 . S
N867 C866 1.279 . S
C868 C870 1.353 . S
C868 N871 1.317 . S
C868 H874 0.930 . S
C869 N871 1.275 1_545 S
C869 C872 1.357 1_545 S
C869 H875 0.936 . S
C870 C868 1.353 . S
C870 C873 1.348 . S
C870 H908 0.929 . S
N871 Li826 1.989 1_565 S
N871 C868 1.317 . S
N871 C869 1.275 1_565 S
C872 C869 1.357 1_565 S
C872 C873 1.356 . S
C872 H909 0.930 . S
C873 C870 1.348 . S
C873 C872 1.356 . S
H874 C868 0.930 . S
H875 C869 0.936 . S
C876 N877 1.314 . S
C876 C878 1.353 . S
C876 H882 0.930 . S
N877 Li827 1.990 . S
N877 C876 1.314 . S
N877 C880 1.279 . S
C878 C876 1.353 . S
C878 C881 1.348 . S
C878 H910 0.929 . S
C879 C880 1.358 . S
C879 C881 1.356 . S
C879 H911 0.930 . S
C880 N877 1.279 . S
C880 C879 1.358 . S
C880 H883 0.930 . S
C881 C878 1.348 . S
C881 C879 1.356 . S
H882 C876 0.930 . S
H883 C880 0.930 . S
O884 Li824 1.956 . S
O884 Li825 1.970 1_565 S
O884 Li826 1.961 1_565 S
O884 C828 1.325 . S
O885 Li824 1.970 1_545 S
O885 Li825 1.956 . S
O885 Li827 1.961 . S
O885 C834 1.325 . S
O886 Li824 1.961 1_545 S
O886 Li826 1.956 . S
O886 Li827 1.970 . S
O886 C856 1.325 . S
O887 Li825 1.961 . S
O887 Li826 1.970 . S
O887 Li827 1.956 . S
O887 C862 1.325 . S
H888 C830 0.929 . S
H889 C831 0.930 . S
H890 C832 0.930 . S
H891 C833 0.930 . S
H892 C835 0.930 . S
H893 C837 0.929 1_565 S
H894 C838 0.930 . S
H895 C839 0.930 . S
H896 C842 0.930 . S
H897 C845 0.929 . S
H898 C850 0.929 . S
H899 C851 0.930 . S
H900 C858 0.929 . S
H901 C859 0.930 . S
H902 C860 0.930 . S
H903 C861 0.930 . S
H904 C863 0.929 . S
H905 C864 0.930 . S
H906 C865 0.930 . S
H907 C866 0.930 . S
H908 C870 0.929 . S
H909 C872 0.930 . S
H910 C878 0.929 . S
H911 C879 0.930 . S
Li912 N929 1.990 . S
Li912 O972 1.956 . S
Li912 O973 1.970 . S
Li912 O974 1.961 . S
Li913 N937 1.990 1_455 S
Li913 O972 1.970 . S
Li913 O973 1.956 . S
Li913 O975 1.961 1_455 S
Li914 N959 1.990 . S
Li914 O972 1.961 . S
Li914 O974 1.956 . S
Li914 O975 1.970 1_455 S
Li915 N965 1.990 . S
Li915 O973 1.961 1_655 S
Li915 O974 1.970 1_655 S
Li915 O975 1.956 . S
C916 C918 1.348 . S
C916 C919 1.356 . S
C916 O972 1.325 . S
N917 C920 1.314 . S
N917 C921 1.279 . S
C918 C916 1.348 . S
C918 C920 1.353 . S
C918 H976 0.929 . S
C919 C916 1.356 . S
C919 C921 1.358 . S
C919 H977 0.930 . S
C920 N917 1.314 . S
C920 C918 1.353 . S
C920 H978 0.930 . S
C921 N917 1.279 . S
C921 C919 1.358 . S
C921 H979 0.930 . S
C922 C925 1.348 . S
C922 C926 1.356 1_455 S
C922 O973 1.325 . S
C923 N924 1.279 1_655 S
C923 C926 1.358 . S
C923 H980 0.930 . S
N924 C923 1.279 1_455 S
N924 C927 1.314 . S
C925 C922 1.348 . S
C925 C927 1.353 . S
C925 H981 0.929 . S
C926 C922 1.356 1_655 S
C926 C923 1.358 . S
C926 H982 0.930 . S
C927 N924 1.314 . S
C927 C925 1.353 . S
C927 H983 0.930 . S
C928 N929 1.314 . S
C928 C933 1.353 . S
C928 H934 0.930 . S
N929 Li912 1.990 . S
N929 C928 1.314 . S
N929 C931 1.279 . S
C930 C931 1.358 . S
C930 C932 1.356 . S
C930 H984 0.930 . S
C931 N929 1.279 . S
C931 C930 1.358 . S
C931 H935 0.930 . S
C932 C930 1.356 . S
C932 C933 1.348 . S
C933 C928 1.353 . S
C933 C932 1.348 . S
C933 H985 0.929 . S
H934 C928 0.930 . S
H935 C931 0.930 . S
C936 N937 1.314 . S
C936 C938 1.353 . S
C936 H942 0.930 . S
N937 Li913 1.990 1_655 S
N937 C936 1.314 . S
N937 C940 1.279 1_655 S
C938 C936 1.353 . S
C938 C941 1.348 . S
C938 H986 0.929 . S
C939 C940 1.358 . S
C939 C941 1.356 1_455 S
C939 H987 0.930 . S
C940 N937 1.279 1_455 S
C940 C939 1.358 . S
C940 H943 0.930 . S
C941 C938 1.348 . S
C941 C939 1.356 1_655 S
H942 C936 0.930 . S
H943 C940 0.930 . S
C944 C946 1.348 1_455 S
C944 C947 1.356 . S
C944 O974 1.325 . S
N945 C948 1.314 1_455 S
N945 C949 1.279 . S
C946 C944 1.348 1_655 S
C946 C948 1.353 . S
C946 H988 0.929 . S
C947 C944 1.356 . S
C947 C949 1.358 . S
C947 H989 0.930 . S
C948 N945 1.314 1_655 S
C948 C946 1.353 . S
C948 H990 0.930 . S
C949 N945 1.279 . S
C949 C947 1.358 . S
C949 H991 0.930 . S
C950 C951 1.348 . S
C950 C952 1.356 . S
C950 O975 1.325 . S
C951 C950 1.348 . S
C951 C953 1.353 . S
C951 H992 0.929 . S
C952 C950 1.356 . S
C952 C954 1.358 . S
C952 H993 0.930 . S
C953 C951 1.353 . S
C953 N955 1.314 . S
C953 H994 0.930 . S
C954 C952 1.358 . S
C954 N955 1.279 . S
C954 H995 0.930 . S
N955 C953 1.314 . S
N955 C954 1.279 . S
C956 C958 1.353 . S
C956 N959 1.314 . S
C956 H962 0.930 . S
C957 N959 1.279 . S
C957 C960 1.358 . S
C957 H963 0.930 . S
C958 C956 1.353 . S
C958 C961 1.348 . S
C958 H996 0.929 . S
N959 Li914 1.990 . S
N959 C956 1.314 . S
N959 C957 1.279 . S
C960 C957 1.358 . S
C960 C961 1.356 . S
C960 H997 0.930 . S
C961 C958 1.348 . S
C961 C960 1.356 . S
H962 C956 0.930 . S
H963 C957 0.930 . S
C964 N965 1.314 . S
C964 C966 1.353 . S
C964 H970 0.930 . S
N965 Li915 1.990 . S
N965 C964 1.314 . S
N965 C968 1.279 . S
C966 C964 1.353 . S
C966 C969 1.348 . S
C966 H998 0.929 . S
C967 C968 1.358 . S
C967 C969 1.356 . S
C967 H999 0.930 . S
C968 N965 1.279 . S
C968 C967 1.358 . S
C968 H971 0.930 . S
C969 C966 1.348 . S
C969 C967 1.356 . S
H970 C964 0.930 . S
H971 C968 0.930 . S
O972 Li912 1.956 . S
O972 Li913 1.970 . S
O972 Li914 1.961 . S
O972 C916 1.325 . S
O973 Li912 1.970 . S
O973 Li913 1.956 . S
O973 Li915 1.961 1_455 S
O973 C922 1.325 . S
O974 Li912 1.961 . S
O974 Li914 1.956 . S
O974 Li915 1.970 1_455 S
O974 C944 1.325 . S
O975 Li913 1.961 1_655 S
O975 Li914 1.970 1_655 S
O975 Li915 1.956 . S
O975 C950 1.325 . S
H976 C918 0.929 . S
H977 C919 0.930 . S
H978 C920 0.930 . S
H979 C921 0.930 . S
H980 C923 0.930 . S
H981 C925 0.929 . S
H982 C926 0.930 . S
H983 C927 0.930 . S
H984 C930 0.930 . S
H985 C933 0.929 . S
H986 C938 0.929 . S
H987 C939 0.930 . S
H988 C946 0.929 . S
H989 C947 0.930 . S
H990 C948 0.930 . S
H991 C949 0.930 . S
H992 C951 0.929 . S
H993 C952 0.930 . S
H994 C953 0.930 . S
H995 C954 0.930 . S
H996 C958 0.929 . S
H997 C960 0.930 . S
H998 C966 0.929 . S
H999 C967 0.930 . S
Li1000 N1017 1.990 . S
Li1000 O1060 1.956 . S
Li1000 O1061 1.970 . S
Li1000 O1062 1.961 . S
Li1001 N1025 1.990 . S
Li1001 O1060 1.970 . S
Li1001 O1061 1.956 . S
Li1001 O1063 1.961 . S
Li1002 N1047 1.990 . S
Li1002 O1060 1.961 . S
Li1002 O1062 1.956 . S
Li1002 O1063 1.970 . S
Li1003 N1053 1.990 . S
Li1003 O1061 1.961 . S
Li1003 O1062 1.970 . S
Li1003 O1063 1.956 . S
C1004 C1006 1.348 . S
C1004 C1007 1.356 . S
C1004 O1060 1.325 . S
N1005 C1008 1.314 . S
N1005 C1009 1.279 . S
C1006 C1004 1.348 . S
C1006 C1008 1.353 . S
C1006 H1064 0.929 . S
C1007 C1004 1.356 . S
C1007 C1009 1.358 . S
C1007 H1065 0.930 . S
C1008 N1005 1.314 . S
C1008 C1006 1.353 . S
C1008 H1066 0.930 . S
C1009 N1005 1.279 . S
C1009 C1007 1.358 . S
C1009 H1067 0.930 . S
C1010 C1013 1.348 . S
C1010 C1014 1.356 . S
C1010 O1061 1.325 . S
C1011 N1012 1.279 . S
C1011 C1014 1.358 . S
C1011 H1068 0.930 . S
N1012 C1011 1.279 . S
N1012 C1015 1.314 . S
C1013 C1010 1.348 . S
C1013 C1015 1.353 . S
C1013 H1069 0.929 . S
C1014 C1010 1.356 . S
C1014 C1011 1.358 . S
C1014 H1070 0.930 . S
C1015 N1012 1.314 . S
C1015 C1013 1.353 . S
C1015 H1071 0.930 . S
C1016 N1017 1.314 . S
C1016 C1021 1.353 . S
C1016 H1022 0.930 . S
N1017 Li1000 1.990 . S
N1017 C1016 1.314 . S
N1017 C1019 1.279 . S
C1018 C1019 1.358 . S
C1018 C1020 1.356 . S
C1018 H1072 0.930 . S
C1019 N1017 1.279 . S
C1019 C1018 1.358 . S
C1019 H1023 0.930 . S
C1020 C1018 1.356 . S
C1020 C1021 1.348 . S
C1021 C1016 1.353 . S
C1021 C1020 1.348 . S
C1021 H1073 0.929 . S
H1022 C1016 0.930 . S
H1023 C1019 0.930 . S
C1024 N1025 1.314 . S
C1024 C1026 1.353 . S
C1024 H1030 0.930 . S
N1025 Li1001 1.990 . S
N1025 C1024 1.314 . S
N1025 C1028 1.279 . S
C1026 C1024 1.353 . S
C1026 C1029 1.348 . S
C1026 H1074 0.929 . S
C1027 C1028 1.358 . S
C1027 C1029 1.356 . S
C1027 H1075 0.930 . S
C1028 N1025 1.279 . S
C1028 C1027 1.358 . S
C1028 H1031 0.930 . S
C1029 C1026 1.348 . S
C1029 C1027 1.356 . S
H1030 C1024 0.930 . S
H1031 C1028 0.930 . S
C1032 C1034 1.348 . S
C1032 C1035 1.356 . S
C1032 O1062 1.325 . S
N1033 C1036 1.314 . S
N1033 C1037 1.279 . S
C1034 C1032 1.348 . S
C1034 C1036 1.353 . S
C1034 H1076 0.929 . S
C1035 C1032 1.356 . S
C1035 C1037 1.358 . S
C1035 H1077 0.930 . S
C1036 N1033 1.314 . S
C1036 C1034 1.353 . S
C1036 H1078 0.930 . S
C1037 N1033 1.279 . S
C1037 C1035 1.358 . S
C1037 H1079 0.930 . S
C1038 C1039 1.348 . S
C1038 C1040 1.356 . S
C1038 O1063 1.325 . S
C1039 C1038 1.348 . S
C1039 C1041 1.353 . S
C1039 H1080 0.929 . S
C1040 C1038 1.356 . S
C1040 C1042 1.358 . S
C1040 H1081 0.930 . S
C1041 C1039 1.353 . S
C1041 N1043 1.314 . S
C1041 H1082 0.930 . S
C1042 C1040 1.358 . S
C1042 N1043 1.279 . S
C1042 H1083 0.930 . S
N1043 C1041 1.314 . S
N1043 C1042 1.279 . S
C1044 C1046 1.353 . S
C1044 N1047 1.314 . S
C1044 H1050 0.930 . S
C1045 N1047 1.279 . S
C1045 C1048 1.358 . S
C1045 H1051 0.930 . S
C1046 C1044 1.353 . S
C1046 C1049 1.348 . S
C1046 H1084 0.929 . S
N1047 Li1002 1.990 . S
N1047 C1044 1.314 . S
N1047 C1045 1.279 . S
C1048 C1045 1.358 . S
C1048 C1049 1.356 . S
C1048 H1085 0.930 . S
C1049 C1046 1.348 . S
C1049 C1048 1.356 . S
H1050 C1044 0.930 . S
H1051 C1045 0.930 . S
C1052 N1053 1.314 . S
C1052 C1054 1.353 . S
C1052 H1058 0.930 . S
N1053 Li1003 1.990 . S
N1053 C1052 1.314 . S
N1053 C1056 1.279 . S
C1054 C1052 1.353 . S
C1054 C1057 1.348 . S
C1054 H1086 0.929 . S
C1055 C1056 1.358 . S
C1055 C1057 1.356 . S
C1055 H1087 0.930 . S
C1056 N1053 1.279 . S
C1056 C1055 1.358 . S
C1056 H1059 0.930 . S
C1057 C1054 1.348 . S
C1057 C1055 1.356 . S
H1058 C1052 0.930 . S
H1059 C1056 0.930 . S
O1060 Li1000 1.956 . S
O1060 Li1001 1.970 . S
O1060 Li1002 1.961 . S
O1060 C1004 1.325 . S
O1061 Li1000 1.970 . S
O1061 Li1001 1.956 . S
O1061 Li1003 1.961 . S
O1061 C1010 1.325 . S
O1062 Li1000 1.961 . S
O1062 Li1002 1.956 . S
O1062 Li1003 1.970 . S
O1062 C1032 1.325 . S
O1063 Li1001 1.961 . S
O1063 Li1002 1.970 . S
O1063 Li1003 1.956 . S
O1063 C1038 1.325 . S
H1064 C1006 0.929 . S
H1065 C1007 0.930 . S
H1066 C1008 0.930 . S
H1067 C1009 0.930 . S
H1068 C1011 0.930 . S
H1069 C1013 0.929 . S
H1070 C1014 0.930 . S
H1071 C1015 0.930 . S
H1072 C1018 0.930 . S
H1073 C1021 0.929 . S
H1074 C1026 0.929 . S
H1075 C1027 0.930 . S
H1076 C1034 0.929 . S
H1077 C1035 0.930 . S
H1078 C1036 0.930 . S
H1079 C1037 0.930 . S
H1080 C1039 0.929 . S
H1081 C1040 0.930 . S
H1082 C1041 0.930 . S
H1083 C1042 0.930 . S
H1084 C1046 0.929 . S
H1085 C1048 0.930 . S
H1086 C1054 0.929 . S
H1087 C1055 0.930 . S
Li1088 N1105 1.990 . S
Li1088 O1148 1.956 . S
Li1088 O1149 1.984 . S
Li1088 O1150 1.961 . S
Li1089 N1113 1.990 1_455 S
Li1089 O1148 1.970 . S
Li1089 O1149 1.957 . S
Li1089 O1151 1.961 . S
Li1090 N1135 1.990 . S
Li1090 O1148 1.961 . S
Li1090 O1150 1.956 . S
Li1090 O1151 1.970 . S
Li1091 N1141 1.990 . S
Li1091 O1149 1.971 . S
Li1091 O1150 1.970 . S
Li1091 O1151 1.956 . S
C1092 C1094 1.348 . S
C1092 C1095 1.356 . S
C1092 O1148 1.325 . S
N1093 C1096 1.314 . S
N1093 C1097 1.279 . S
C1094 C1092 1.348 . S
C1094 C1096 1.353 . S
C1094 H1152 0.929 . S
C1095 C1092 1.356 . S
C1095 C1097 1.358 . S
C1095 H1153 0.930 . S
C1096 N1093 1.314 . S
C1096 C1094 1.353 . S
C1096 H1154 0.930 . S
C1097 N1093 1.279 . S
C1097 C1095 1.358 . S
C1097 H1155 0.930 . S
C1098 C1101 1.348 . S
C1098 C1102 1.356 . S
C1098 O1149 1.311 1_655 S
C1099 N1100 1.279 . S
C1099 C1102 1.358 . S
C1099 H1156 0.930 . S
N1100 C1099 1.279 . S
N1100 C1103 1.314 . S
C1101 C1098 1.348 . S
C1101 C1103 1.353 . S
C1101 H1157 0.929 . S
C1102 C1098 1.356 . S
C1102 C1099 1.358 . S
C1102 H1158 0.930 . S
C1103 N1100 1.314 . S
C1103 C1101 1.353 . S
C1103 H1159 0.930 . S
C1104 N1105 1.314 . S
C1104 C1109 1.353 . S
C1104 H1110 0.930 . S
N1105 Li1088 1.990 . S
N1105 C1104 1.314 . S
N1105 C1107 1.279 . S
C1106 C1107 1.358 . S
C1106 C1108 1.356 . S
C1106 H1160 0.930 . S
C1107 N1105 1.279 . S
C1107 C1106 1.358 . S
C1107 H1111 0.930 . S
C1108 C1106 1.356 . S
C1108 C1109 1.348 . S
C1109 C1104 1.353 . S
C1109 C1108 1.348 . S
C1109 H1161 0.929 . S
H1110 C1104 0.930 . S
H1111 C1107 0.930 . S
C1112 N1113 1.314 . S
C1112 C1114 1.353 . S
C1112 H1118 0.930 . S
N1113 Li1089 1.990 1_655 S
N1113 C1112 1.314 . S
N1113 C1116 1.279 . S
C1114 C1112 1.353 . S
C1114 C1117 1.348 . S
C1114 H1162 0.929 . S
C1115 C1116 1.358 . S
C1115 C1117 1.356 . S
C1115 H1163 0.930 . S
C1116 N1113 1.279 . S
C1116 C1115 1.358 . S
C1116 H1119 0.930 . S
C1117 C1114 1.348 . S
C1117 C1115 1.356 . S
H1118 C1112 0.930 . S
H1119 C1116 0.930 . S
C1120 C1122 1.348 . S
C1120 C1123 1.356 . S
C1120 O1150 1.325 . S
N1121 C1124 1.314 . S
N1121 C1125 1.279 . S
C1122 C1120 1.348 . S
C1122 C1124 1.353 . S
C1122 H1164 0.929 . S
C1123 C1120 1.356 . S
C1123 C1125 1.358 . S
C1123 H1165 0.930 . S
C1124 N1121 1.314 . S
C1124 C1122 1.353 . S
C1124 H1166 0.930 . S
C1125 N1121 1.279 . S
C1125 C1123 1.358 . S
C1125 H1167 0.930 . S
C1126 C1127 1.348 . S
C1126 C1128 1.356 1_455 S
C1126 O1151 1.325 . S
C1127 C1126 1.348 . S
C1127 C1129 1.353 . S
C1127 H1168 0.929 . S
C1128 C1126 1.356 1_655 S
C1128 C1130 1.358 . S
C1128 H1169 0.930 . S
C1129 C1127 1.353 . S
C1129 N1131 1.314 . S
C1129 H1170 0.930 . S
C1130 C1128 1.358 . S
C1130 N1131 1.279 1_655 S
C1130 H1171 0.930 . S
N1131 C1129 1.314 . S
N1131 C1130 1.279 1_455 S
C1132 C1134 1.353 . S
C1132 N1135 1.314 . S
C1132 H1138 0.930 . S
C1133 N1135 1.279 . S
C1133 C1136 1.358 . S
C1133 H1139 0.930 . S
C1134 C1132 1.353 . S
C1134 C1137 1.348 . S
C1134 H1172 0.929 . S
N1135 Li1090 1.990 . S
N1135 C1132 1.314 . S
N1135 C1133 1.279 . S
C1136 C1133 1.358 . S
C1136 C1137 1.356 . S
C1136 H1173 0.930 . S
C1137 C1134 1.348 . S
C1137 C1136 1.356 . S
H1138 C1132 0.930 . S
H1139 C1133 0.930 . S
C1140 N1141 1.314 . S
C1140 C1142 1.357 . S
C1140 H1146 0.930 . S
N1141 Li1091 1.990 . S
N1141 C1140 1.314 . S
N1141 C1144 1.279 . S
C1142 C1140 1.357 . S
C1142 C1145 1.351 . S
C1142 H1174 0.923 1_455 S
C1143 C1144 1.358 . S
C1143 C1145 1.356 . S
C1143 H1175 0.930 . S
C1144 N1141 1.279 . S
C1144 C1143 1.358 . S
C1144 H1147 0.930 . S
C1145 C1142 1.351 . S
C1145 C1143 1.356 . S
H1146 C1140 0.930 . S
H1147 C1144 0.930 . S
O1148 Li1088 1.956 . S
O1148 Li1089 1.970 . S
O1148 Li1090 1.961 . S
O1148 C1092 1.325 . S
O1149 Li1088 1.984 . S
O1149 Li1089 1.957 . S
O1149 Li1091 1.971 . S
O1149 C1098 1.311 1_455 S
O1150 Li1088 1.961 . S
O1150 Li1090 1.956 . S
O1150 Li1091 1.970 . S
O1150 C1120 1.325 . S
O1151 Li1089 1.961 . S
O1151 Li1090 1.970 . S
O1151 Li1091 1.956 . S
O1151 C1126 1.325 . S
H1152 C1094 0.929 . S
H1153 C1095 0.930 . S
H1154 C1096 0.930 . S
H1155 C1097 0.930 . S
H1156 C1099 0.930 . S
H1157 C1101 0.929 . S
H1158 C1102 0.930 . S
H1159 C1103 0.930 . S
H1160 C1106 0.930 . S
H1161 C1109 0.929 . S
H1162 C1114 0.929 . S
H1163 C1115 0.930 . S
H1164 C1122 0.929 . S
H1165 C1123 0.930 . S
H1166 C1124 0.930 . S
H1167 C1125 0.930 . S
H1168 C1127 0.929 . S
H1169 C1128 0.930 . S
H1170 C1129 0.930 . S
H1171 C1130 0.930 . S
H1172 C1134 0.929 . S
H1173 C1136 0.930 . S
H1174 C1142 0.923 1_655 S
H1175 C1143 0.930 . S
Li1176 N1193 1.990 . S
Li1176 O1236 1.956 . S
Li1176 O1237 1.970 . S
Li1176 O1238 1.961 . S
Li1177 N1201 1.990 . S
Li1177 O1236 1.970 . S
Li1177 O1237 1.956 . S
Li1177 O1239 1.961 . S
Li1178 N1223 1.990 . S
Li1178 O1236 1.961 . S
Li1178 O1238 1.956 . S
Li1178 O1239 1.970 . S
Li1179 N1229 1.990 . S
Li1179 O1237 1.961 . S
Li1179 O1238 1.970 . S
Li1179 O1239 1.956 . S
C1180 C1182 1.348 . S
C1180 C1183 1.356 . S
C1180 O1236 1.325 . S
N1181 C1184 1.314 . S
N1181 C1185 1.279 . S
C1182 C1180 1.348 . S
C1182 C1184 1.353 . S
C1182 H1240 0.929 . S
C1183 C1180 1.356 . S
C1183 C1185 1.358 . S
C1183 H1241 0.930 . S
C1184 N1181 1.314 . S
C1184 C1182 1.353 . S
C1184 H1242 0.930 . S
C1185 N1181 1.279 . S
C1185 C1183 1.358 . S
C1185 H1243 0.930 . S
C1186 C1189 1.348 . S
C1186 C1190 1.356 . S
C1186 O1237 1.325 . S
C1187 N1188 1.279 . S
C1187 C1190 1.358 . S
C1187 H1244 0.930 . S
N1188 C1187 1.279 . S
N1188 C1191 1.314 . S
C1189 C1186 1.348 . S
C1189 C1191 1.353 . S
C1189 H1245 0.929 . S
C1190 C1186 1.356 . S
C1190 C1187 1.358 . S
C1190 H1246 0.930 . S
C1191 N1188 1.314 . S
C1191 C1189 1.353 . S
C1191 H1247 0.930 . S
C1192 N1193 1.314 . S
C1192 C1197 1.353 . S
C1192 H1198 0.930 . S
N1193 Li1176 1.990 . S
N1193 C1192 1.314 . S
N1193 C1195 1.279 . S
C1194 C1195 1.358 . S
C1194 C1196 1.356 . S
C1194 H1248 0.930 . S
C1195 N1193 1.279 . S
C1195 C1194 1.358 . S
C1195 H1199 0.930 . S
C1196 C1194 1.356 . S
C1196 C1197 1.348 . S
C1197 C1192 1.353 . S
C1197 C1196 1.348 . S
C1197 H1249 0.929 . S
H1198 C1192 0.930 . S
H1199 C1195 0.930 . S
C1200 N1201 1.314 . S
C1200 C1202 1.353 . S
C1200 H1206 0.930 . S
N1201 Li1177 1.990 . S
N1201 C1200 1.314 . S
N1201 C1204 1.279 . S
C1202 C1200 1.353 . S
C1202 C1205 1.348 . S
C1202 H1250 0.929 . S
C1203 C1204 1.358 . S
C1203 C1205 1.356 . S
C1203 H1251 0.930 . S
C1204 N1201 1.279 . S
C1204 C1203 1.358 . S
C1204 H1207 0.930 . S
C1205 C1202 1.348 . S
C1205 C1203 1.356 . S
H1206 C1200 0.930 . S
H1207 C1204 0.930 . S
C1208 C1210 1.348 . S
C1208 C1211 1.356 . S
C1208 O1238 1.325 . S
N1209 C1212 1.314 . S
N1209 C1213 1.279 . S
C1210 C1208 1.348 . S
C1210 C1212 1.353 . S
C1210 H1252 0.929 . S
C1211 C1208 1.356 . S
C1211 C1213 1.358 . S
C1211 H1253 0.930 . S
C1212 N1209 1.314 . S
C1212 C1210 1.353 . S
C1212 H1254 0.930 . S
C1213 N1209 1.279 . S
C1213 C1211 1.358 . S
C1213 H1255 0.930 . S
C1214 C1215 1.348 . S
C1214 C1216 1.356 . S
C1214 O1239 1.325 . S
C1215 C1214 1.348 . S
C1215 C1217 1.353 . S
C1215 H1256 0.929 . S
C1216 C1214 1.356 . S
C1216 C1218 1.358 . S
C1216 H1257 0.930 . S
C1217 C1215 1.353 . S
C1217 N1219 1.314 . S
C1217 H1258 0.930 . S
C1218 C1216 1.358 . S
C1218 N1219 1.279 . S
C1218 H1259 0.930 . S
N1219 C1217 1.314 . S
N1219 C1218 1.279 . S
C1220 C1222 1.353 . S
C1220 N1223 1.314 . S
C1220 H1226 0.930 . S
C1221 N1223 1.279 . S
C1221 C1224 1.358 . S
C1221 H1227 0.930 . S
C1222 C1220 1.353 . S
C1222 C1225 1.348 . S
C1222 H1260 0.929 . S
N1223 Li1178 1.990 . S
N1223 C1220 1.314 . S
N1223 C1221 1.279 . S
C1224 C1221 1.358 . S
C1224 C1225 1.356 . S
C1224 H1261 0.930 . S
C1225 C1222 1.348 . S
C1225 C1224 1.356 . S
H1226 C1220 0.930 . S
H1227 C1221 0.930 . S
C1228 N1229 1.314 . S
C1228 C1230 1.353 . S
C1228 H1234 0.930 . S
N1229 Li1179 1.990 . S
N1229 C1228 1.314 . S
N1229 C1232 1.279 . S
C1230 C1228 1.353 . S
C1230 C1233 1.348 . S
C1230 H1262 0.929 . S
C1231 C1232 1.358 . S
C1231 C1233 1.356 . S
C1231 H1263 0.930 . S
C1232 N1229 1.279 . S
C1232 C1231 1.358 . S
C1232 H1235 0.930 . S
C1233 C1230 1.348 . S
C1233 C1231 1.356 . S
H1234 C1228 0.930 . S
H1235 C1232 0.930 . S
O1236 Li1176 1.956 . S
O1236 Li1177 1.970 . S
O1236 Li1178 1.961 . S
O1236 C1180 1.325 . S
O1237 Li1176 1.970 . S
O1237 Li1177 1.956 . S
O1237 Li1179 1.961 . S
O1237 C1186 1.325 . S
O1238 Li1176 1.961 . S
O1238 Li1178 1.956 . S
O1238 Li1179 1.970 . S
O1238 C1208 1.325 . S
O1239 Li1177 1.961 . S
O1239 Li1178 1.970 . S
O1239 Li1179 1.956 . S
O1239 C1214 1.325 . S
H1240 C1182 0.929 . S
H1241 C1183 0.930 . S
H1242 C1184 0.930 . S
H1243 C1185 0.930 . S
H1244 C1187 0.930 . S
H1245 C1189 0.929 . S
H1246 C1190 0.930 . S
H1247 C1191 0.930 . S
H1248 C1194 0.930 . S
H1249 C1197 0.929 . S
H1250 C1202 0.929 . S
H1251 C1203 0.930 . S
H1252 C1210 0.929 . S
H1253 C1211 0.930 . S
H1254 C1212 0.930 . S
H1255 C1213 0.930 . S
H1256 C1215 0.929 . S
H1257 C1216 0.930 . S
H1258 C1217 0.930 . S
H1259 C1218 0.930 . S
H1260 C1222 0.929 . S
H1261 C1224 0.930 . S
H1262 C1230 0.929 . S
H1263 C1231 0.930 . S
H1264 C1272 0.950 . S
H1265 C1277 0.950 . S
H1266 C1274 0.950 . S
H1267 C1276 0.950 . S
H1268 C1278 0.950 . S
H1269 C1280 0.950 . S
H1270 C1282 0.950 . S
H1271 C1283 0.950 . S
C1272 H1264 0.950 . S
C1272 C1273 1.386 . S
C1272 C1274 1.391 . S
C1273 C1272 1.386 . S
C1273 C1277 1.393 . S
C1274 H1266 0.950 . S
C1274 C1272 1.391 . S
C1274 C1275 1.400 . S
C1275 C1274 1.400 . S
C1275 C1276 1.398 . S
C1275 C1281 1.491 . S
C1276 H1267 0.950 . S
C1276 C1275 1.398 . S
C1276 C1277 1.391 . S
C1277 H1265 0.950 . S
C1277 C1273 1.393 . S
C1277 C1276 1.391 . S
C1278 H1268 0.950 . S
C1278 C1279 1.386 . S
C1278 C1280 1.391 . S
C1279 C1278 1.386 . S
C1279 C1283 1.393 . S
C1280 H1269 0.950 . S
C1280 C1278 1.391 . S
C1280 C1281 1.400 . S
C1281 C1275 1.491 . S
C1281 C1280 1.400 . S
C1281 C1282 1.398 . S
C1282 H1270 0.950 . S
C1282 C1281 1.398 . S
C1282 C1283 1.391 . S
C1283 H1271 0.950 . S
C1283 C1279 1.393 . S
C1283 C1282 1.391 . S
H1284 C1292 0.950 . S
H1285 C1297 0.950 . S
H1286 C1294 0.950 . S
H1287 C1296 0.950 . S
H1288 C1298 0.950 . S
H1289 C1300 0.950 . S
H1290 C1302 0.950 . S
H1291 C1303 0.950 . S
C1292 H1284 0.950 . S
C1292 C1293 1.386 . S
C1292 C1294 1.391 1_655 S
C1293 C1292 1.386 . S
C1293 C1297 1.393 1_655 S
C1294 H1286 0.950 . S
C1294 C1292 1.391 1_455 S
C1294 C1295 1.400 . S
C1295 C1294 1.400 . S
C1295 C1296 1.398 . S
C1295 C1301 1.491 . S
C1296 H1287 0.950 . S
C1296 C1295 1.398 . S
C1296 C1297 1.391 . S
C1297 H1285 0.950 . S
C1297 C1293 1.393 1_455 S
C1297 C1296 1.391 . S
C1298 H1288 0.950 . S
C1298 C1299 1.386 . S
C1298 C1300 1.391 . S
C1299 C1298 1.386 . S
C1299 C1303 1.393 . S
C1300 H1289 0.950 . S
C1300 C1298 1.391 . S
C1300 C1301 1.400 . S
C1301 C1295 1.491 . S
C1301 C1300 1.400 . S
C1301 C1302 1.398 . S
C1302 H1290 0.950 . S
C1302 C1301 1.398 . S
C1302 C1303 1.391 . S
C1303 H1291 0.950 . S
C1303 C1299 1.393 . S
C1303 C1302 1.391 . S
H1304 C1312 0.950 . S
H1305 C1317 0.950 . S
H1306 C1314 0.950 . S
H1307 C1316 0.950 . S
H1308 C1318 0.950 . S
H1309 C1320 0.950 . S
H1310 C1322 0.950 . S
H1311 C1323 0.950 . S
C1312 H1304 0.950 . S
C1312 C1313 1.386 . S
C1312 C1314 1.391 . S
C1313 C1312 1.386 . S
C1313 C1317 1.393 . S
C1314 H1306 0.950 . S
C1314 C1312 1.391 . S
C1314 C1315 1.400 . S
C1315 C1314 1.400 . S
C1315 C1316 1.398 . S
C1315 C1321 1.491 . S
C1316 H1307 0.950 . S
C1316 C1315 1.398 . S
C1316 C1317 1.391 . S
C1317 H1305 0.950 . S
C1317 C1313 1.393 . S
C1317 C1316 1.391 . S
C1318 H1308 0.950 . S
C1318 C1319 1.386 . S
C1318 C1320 1.391 . S
C1319 C1318 1.386 . S
C1319 C1323 1.393 . S
C1320 H1309 0.950 . S
C1320 C1318 1.391 . S
C1320 C1321 1.400 . S
C1321 C1315 1.491 . S
C1321 C1320 1.400 . S
C1321 C1322 1.398 . S
C1322 H1310 0.950 . S
C1322 C1321 1.398 . S
C1322 C1323 1.391 . S
C1323 H1311 0.950 . S
C1323 C1319 1.393 . S
C1323 C1322 1.391 . S
H1324 C1332 0.950 . S
H1325 C1337 0.950 . S
H1326 C1334 0.950 . S
H1327 C1336 0.950 . S
H1328 C1338 0.950 . S
H1329 C1340 0.950 . S
H1330 C1342 0.950 . S
H1331 C1343 0.950 . S
C1332 H1324 0.950 . S
C1332 C1333 1.386 . S
C1332 C1334 1.391 1_455 S
C1333 C1332 1.386 . S
C1333 C1337 1.393 1_565 S
C1334 H1326 0.950 . S
C1334 C1332 1.391 1_655 S
C1334 C1335 1.400 . S
C1335 C1334 1.400 . S
C1335 C1336 1.398 1_565 S
C1335 C1341 1.491 . S
C1336 H1327 0.950 . S
C1336 C1335 1.398 1_545 S
C1336 C1337 1.391 1_655 S
C1337 H1325 0.950 . S
C1337 C1333 1.393 1_545 S
C1337 C1336 1.391 1_455 S
C1338 H1328 0.950 . S
C1338 C1339 1.386 . S
C1338 C1340 1.391 . S
C1339 C1338 1.386 . S
C1339 C1343 1.393 1_545 S
C1340 H1329 0.950 . S
C1340 C1338 1.391 . S
C1340 C1341 1.400 1_545 S
C1341 C1335 1.491 . S
C1341 C1340 1.400 1_565 S
C1341 C1342 1.398 . S
C1342 H1330 0.950 . S
C1342 C1341 1.398 . S
C1342 C1343 1.391 . S
C1343 H1331 0.950 . S
C1343 C1339 1.393 1_565 S
C1343 C1342 1.391 . S
H1344 C1352 0.950 . S
H1345 C1357 0.950 . S
H1346 C1354 0.950 . S
H1347 C1356 0.950 . S
H1348 C1358 0.950 . S
H1349 C1360 0.950 . S
H1350 C1362 0.950 . S
H1351 C1363 0.950 . S
C1352 H1344 0.950 . S
C1352 C1353 1.386 . S
C1352 C1354 1.391 . S
C1353 C1352 1.386 . S
C1353 C1357 1.393 . S
C1354 H1346 0.950 . S
C1354 C1352 1.391 . S
C1354 C1355 1.400 . S
C1355 C1354 1.400 . S
C1355 C1356 1.398 . S
C1355 C1361 1.491 . S
C1356 H1347 0.950 . S
C1356 C1355 1.398 . S
C1356 C1357 1.391 . S
C1357 H1345 0.950 . S
C1357 C1353 1.393 . S
C1357 C1356 1.391 . S
C1358 H1348 0.950 . S
C1358 C1359 1.386 . S
C1358 C1360 1.391 . S
C1359 C1358 1.386 . S
C1359 C1363 1.393 . S
C1360 H1349 0.950 . S
C1360 C1358 1.391 . S
C1360 C1361 1.400 . S
C1361 C1355 1.491 . S
C1361 C1360 1.400 . S
C1361 C1362 1.398 . S
C1362 H1350 0.950 . S
C1362 C1361 1.398 . S
C1362 C1363 1.391 . S
C1363 H1351 0.950 . S
C1363 C1359 1.393 . S
C1363 C1362 1.391 . S
H1364 C1372 0.950 . S
H1365 C1377 0.950 . S
H1366 C1374 0.950 . S
H1367 C1376 0.950 . S
H1368 C1378 0.950 . S
H1369 C1380 0.950 . S
H1370 C1382 0.950 . S
H1371 C1383 0.950 . S
C1372 H1364 0.950 . S
C1372 C1373 1.386 . S
C1372 C1374 1.391 . S
C1373 C1372 1.386 . S
C1373 C1377 1.393 . S
C1374 H1366 0.950 . S
C1374 C1372 1.391 . S
C1374 C1375 1.400 . S
C1375 C1374 1.400 . S
C1375 C1376 1.398 . S
C1375 C1381 1.491 . S
C1376 H1367 0.950 . S
C1376 C1375 1.398 . S
C1376 C1377 1.391 . S
C1377 H1365 0.950 . S
C1377 C1373 1.393 . S
C1377 C1376 1.391 . S
C1378 H1368 0.950 . S
C1378 C1379 1.386 . S
C1378 C1380 1.391 . S
C1379 C1378 1.386 . S
C1379 C1383 1.393 . S
C1380 H1369 0.950 . S
C1380 C1378 1.391 . S
C1380 C1381 1.400 . S
C1381 C1375 1.491 . S
C1381 C1380 1.400 . S
C1381 C1382 1.398 . S
C1382 H1370 0.950 . S
C1382 C1381 1.398 . S
C1382 C1383 1.391 . S
C1383 H1371 0.950 . S
C1383 C1379 1.393 . S
C1383 C1382 1.391 . S
H1384 C1392 0.950 . S
H1385 C1397 0.950 . S
H1386 C1394 0.950 . S
H1387 C1396 0.950 . S
H1388 C1398 0.950 . S
H1389 C1400 0.950 . S
H1390 C1402 0.950 . S
H1391 C1403 0.950 . S
C1392 H1384 0.950 . S
C1392 C1393 1.386 . S
C1392 C1394 1.391 . S
C1393 C1392 1.386 . S
C1393 C1397 1.393 . S
C1394 H1386 0.950 . S
C1394 C1392 1.391 . S
C1394 C1395 1.400 . S
C1395 C1394 1.400 . S
C1395 C1396 1.398 . S
C1395 C1401 1.491 . S
C1396 H1387 0.950 . S
C1396 C1395 1.398 . S
C1396 C1397 1.391 . S
C1397 H1385 0.950 . S
C1397 C1393 1.393 . S
C1397 C1396 1.391 . S
C1398 H1388 0.950 . S
C1398 C1399 1.386 . S
C1398 C1400 1.391 . S
C1399 C1398 1.386 . S
C1399 C1403 1.393 . S
C1400 H1389 0.950 . S
C1400 C1398 1.391 . S
C1400 C1401 1.400 . S
C1401 C1395 1.491 . S
C1401 C1400 1.400 . S
C1401 C1402 1.398 . S
C1402 H1390 0.950 . S
C1402 C1401 1.398 . S
C1402 C1403 1.391 . S
C1403 H1391 0.950 . S
C1403 C1399 1.393 . S
C1403 C1402 1.391 . S
H1404 C1412 0.950 . S
H1405 C1417 0.950 . S
H1406 C1414 0.950 . S
H1407 C1416 0.950 . S
H1408 C1418 0.950 . S
H1409 C1420 0.950 . S
H1410 C1422 0.950 . S
H1411 C1423 0.950 . S
C1412 H1404 0.950 . S
C1412 C1413 1.386 . S
C1412 C1414 1.391 . S
C1413 C1412 1.386 . S
C1413 C1417 1.393 . S
C1414 H1406 0.950 . S
C1414 C1412 1.391 . S
C1414 C1415 1.400 . S
C1415 C1414 1.400 . S
C1415 C1416 1.398 . S
C1415 C1421 1.491 . S
C1416 H1407 0.950 . S
C1416 C1415 1.398 . S
C1416 C1417 1.391 . S
C1417 H1405 0.950 . S
C1417 C1413 1.393 . S
C1417 C1416 1.391 . S
C1418 H1408 0.950 . S
C1418 C1419 1.386 . S
C1418 C1420 1.391 . S
C1419 C1418 1.386 . S
C1419 C1423 1.393 . S
C1420 H1409 0.950 . S
C1420 C1418 1.391 . S
C1420 C1421 1.400 . S
C1421 C1415 1.491 . S
C1421 C1420 1.400 . S
C1421 C1422 1.398 . S
C1422 H1410 0.950 . S
C1422 C1421 1.398 . S
C1422 C1423 1.391 . S
C1423 H1411 0.950 . S
C1423 C1419 1.393 . S
C1423 C1422 1.391 . S
H1424 C1432 0.950 . S
H1425 C1437 0.950 . S
H1426 C1434 0.950 . S
H1427 C1436 0.950 . S
H1428 C1438 0.950 . S
H1429 C1440 0.950 . S
H1430 C1442 0.950 . S
H1431 C1443 0.950 . S
C1432 H1424 0.950 . S
C1432 C1433 1.386 . S
C1432 C1434 1.391 . S
C1433 C1432 1.386 . S
C1433 C1437 1.393 . S
C1434 H1426 0.950 . S
C1434 C1432 1.391 . S
C1434 C1435 1.400 . S
C1435 C1434 1.400 . S
C1435 C1436 1.398 . S
C1435 C1441 1.491 . S
C1436 H1427 0.950 . S
C1436 C1435 1.398 . S
C1436 C1437 1.391 . S
C1437 H1425 0.950 . S
C1437 C1433 1.393 . S
C1437 C1436 1.391 . S
C1438 H1428 0.950 . S
C1438 C1439 1.386 . S
C1438 C1440 1.391 . S
C1439 C1438 1.386 . S
C1439 C1443 1.393 . S
C1440 H1429 0.950 . S
C1440 C1438 1.391 . S
C1440 C1441 1.400 . S
C1441 C1435 1.491 . S
C1441 C1440 1.400 . S
C1441 C1442 1.398 . S
C1442 H1430 0.950 . S
C1442 C1441 1.398 . S
C1442 C1443 1.391 . S
C1443 H1431 0.950 . S
C1443 C1439 1.393 . S
C1443 C1442 1.391 . S
H1444 C1452 0.950 . S
H1445 C1457 0.950 . S
H1446 C1454 0.950 . S
H1447 C1456 0.950 . S
H1448 C1458 0.950 . S
H1449 C1460 0.950 . S
H1450 C1462 0.950 . S
H1451 C1463 0.950 . S
C1452 H1444 0.950 . S
C1452 C1453 1.386 . S
C1452 C1454 1.391 . S
C1453 C1452 1.386 . S
C1453 C1457 1.393 . S
C1454 H1446 0.950 . S
C1454 C1452 1.391 . S
C1454 C1455 1.400 . S
C1455 C1454 1.400 . S
C1455 C1456 1.398 . S
C1455 C1461 1.491 . S
C1456 H1447 0.950 . S
C1456 C1455 1.398 . S
C1456 C1457 1.391 . S
C1457 H1445 0.950 . S
C1457 C1453 1.393 . S
C1457 C1456 1.391 . S
C1458 H1448 0.950 . S
C1458 C1459 1.386 . S
C1458 C1460 1.391 . S
C1459 C1458 1.386 . S
C1459 C1463 1.393 . S
C1460 H1449 0.950 . S
C1460 C1458 1.391 . S
C1460 C1461 1.400 . S
C1461 C1455 1.491 . S
C1461 C1460 1.400 . S
C1461 C1462 1.398 . S
C1462 H1450 0.950 . S
C1462 C1461 1.398 . S
C1462 C1463 1.391 . S
C1463 H1451 0.950 . S
C1463 C1459 1.393 . S
C1463 C1462 1.391 . S
H1464 C1472 0.950 . S
H1465 C1477 0.950 . S
H1466 C1474 0.950 . S
H1467 C1476 0.950 . S
H1468 C1478 0.950 . S
H1469 C1480 0.950 . S
H1470 C1482 0.950 . S
H1471 C1483 0.950 . S
C1472 H1464 0.950 . S
C1472 C1473 1.386 . S
C1472 C1474 1.391 . S
C1473 C1472 1.386 . S
C1473 C1477 1.393 . S
C1474 H1466 0.950 . S
C1474 C1472 1.391 . S
C1474 C1475 1.400 . S
C1475 C1474 1.400 . S
C1475 C1476 1.398 . S
C1475 C1481 1.491 . S
C1476 H1467 0.950 . S
C1476 C1475 1.398 . S
C1476 C1477 1.391 . S
C1477 H1465 0.950 . S
C1477 C1473 1.393 . S
C1477 C1476 1.391 . S
C1478 H1468 0.950 . S
C1478 C1479 1.386 . S
C1478 C1480 1.391 . S
C1479 C1478 1.386 . S
C1479 C1483 1.393 . S
C1480 H1469 0.950 . S
C1480 C1478 1.391 . S
C1480 C1481 1.400 . S
C1481 C1475 1.491 . S
C1481 C1480 1.400 . S
C1481 C1482 1.398 . S
C1482 H1470 0.950 . S
C1482 C1481 1.398 . S
C1482 C1483 1.391 . S
C1483 H1471 0.950 . S
C1483 C1479 1.393 . S
C1483 C1482 1.391 . S
H1484 C1492 0.950 . S
H1485 C1497 0.950 . S
H1486 C1494 0.950 . S
H1487 C1496 0.950 . S
H1488 C1498 0.950 . S
H1489 C1500 0.950 . S
H1490 C1502 0.950 . S
H1491 C1503 0.950 . S
C1492 H1484 0.950 . S
C1492 C1493 1.386 . S
C1492 C1494 1.391 . S
C1493 C1492 1.386 . S
C1493 C1497 1.393 . S
C1494 H1486 0.950 . S
C1494 C1492 1.391 . S
C1494 C1495 1.400 . S
C1495 C1494 1.400 . S
C1495 C1496 1.398 . S
C1495 C1501 1.491 . S
C1496 H1487 0.950 . S
C1496 C1495 1.398 . S
C1496 C1497 1.391 . S
C1497 H1485 0.950 . S
C1497 C1493 1.393 . S
C1497 C1496 1.391 . S
C1498 H1488 0.950 . S
C1498 C1499 1.386 . S
C1498 C1500 1.391 . S
C1499 C1498 1.386 . S
C1499 C1503 1.393 . S
C1500 H1489 0.950 . S
C1500 C1498 1.391 . S
C1500 C1501 1.400 . S
C1501 C1495 1.491 . S
C1501 C1500 1.400 . S
C1501 C1502 1.398 . S
C1502 H1490 0.950 . S
C1502 C1501 1.398 . S
C1502 C1503 1.391 . S
C1503 H1491 0.950 . S
C1503 C1499 1.393 . S
C1503 C1502 1.391 . S
H1504 C1512 0.950 . S
H1505 C1517 0.950 . S
H1506 C1514 0.950 . S
H1507 C1516 0.950 . S
H1508 C1518 0.950 . S
H1509 C1520 0.950 . S
H1510 C1522 0.950 . S
H1511 C1523 0.950 . S
C1512 H1504 0.950 . S
C1512 C1513 1.386 . S
C1512 C1514 1.391 . S
C1513 C1512 1.386 . S
C1513 C1517 1.393 . S
C1514 H1506 0.950 . S
C1514 C1512 1.391 . S
C1514 C1515 1.400 . S
C1515 C1514 1.400 . S
C1515 C1516 1.398 . S
C1515 C1521 1.491 . S
C1516 H1507 0.950 . S
C1516 C1515 1.398 . S
C1516 C1517 1.391 . S
C1517 H1505 0.950 . S
C1517 C1513 1.393 . S
C1517 C1516 1.391 . S
C1518 H1508 0.950 . S
C1518 C1519 1.386 . S
C1518 C1520 1.391 . S
C1519 C1518 1.386 . S
C1519 C1523 1.393 . S
C1520 H1509 0.950 . S
C1520 C1518 1.391 . S
C1520 C1521 1.400 . S
C1521 C1515 1.491 . S
C1521 C1520 1.400 . S
C1521 C1522 1.398 . S
C1522 H1510 0.950 . S
C1522 C1521 1.398 . S
C1522 C1523 1.391 . S
C1523 H1511 0.950 . S
C1523 C1519 1.393 . S
C1523 C1522 1.391 . S
H1524 C1532 0.950 . S
H1525 C1537 0.950 . S
H1526 C1534 0.950 . S
H1527 C1536 0.950 . S
H1528 C1538 0.950 . S
H1529 C1540 0.950 . S
H1530 C1542 0.950 . S
H1531 C1543 0.950 . S
C1532 H1524 0.950 . S
C1532 C1533 1.386 . S
C1532 C1534 1.391 . S
C1533 C1532 1.386 . S
C1533 C1537 1.393 . S
C1534 H1526 0.950 . S
C1534 C1532 1.391 . S
C1534 C1535 1.400 . S
C1535 C1534 1.400 . S
C1535 C1536 1.398 . S
C1535 C1541 1.491 . S
C1536 H1527 0.950 . S
C1536 C1535 1.398 . S
C1536 C1537 1.391 . S
C1537 H1525 0.950 . S
C1537 C1533 1.393 . S
C1537 C1536 1.391 . S
C1538 H1528 0.950 . S
C1538 C1539 1.386 . S
C1538 C1540 1.391 . S
C1539 C1538 1.386 . S
C1539 C1543 1.393 . S
C1540 H1529 0.950 . S
C1540 C1538 1.391 . S
C1540 C1541 1.400 . S
C1541 C1535 1.491 . S
C1541 C1540 1.400 . S
C1541 C1542 1.398 . S
C1542 H1530 0.950 . S
C1542 C1541 1.398 . S
C1542 C1543 1.391 . S
C1543 H1531 0.950 . S
C1543 C1539 1.393 . S
C1543 C1542 1.391 . S
H1544 C1552 0.950 . S
H1545 C1557 0.950 . S
H1546 C1554 0.950 . S
H1547 C1556 0.950 . S
H1548 C1558 0.950 . S
H1549 C1560 0.950 . S
H1550 C1562 0.950 . S
H1551 C1563 0.950 . S
C1552 H1544 0.950 . S
C1552 C1553 1.386 . S
C1552 C1554 1.391 . S
C1553 C1552 1.386 . S
C1553 C1557 1.393 . S
C1554 H1546 0.950 . S
C1554 C1552 1.391 . S
C1554 C1555 1.400 . S
C1555 C1554 1.400 . S
C1555 C1556 1.398 . S
C1555 C1561 1.491 . S
C1556 H1547 0.950 . S
C1556 C1555 1.398 . S
C1556 C1557 1.391 . S
C1557 H1545 0.950 . S
C1557 C1553 1.393 . S
C1557 C1556 1.391 . S
C1558 H1548 0.950 . S
C1558 C1559 1.386 . S
C1558 C1560 1.391 . S
C1559 C1558 1.386 . S
C1559 C1563 1.393 . S
C1560 H1549 0.950 . S
C1560 C1558 1.391 . S
C1560 C1561 1.400 . S
C1561 C1555 1.491 . S
C1561 C1560 1.400 . S
C1561 C1562 1.398 . S
C1562 H1550 0.950 . S
C1562 C1561 1.398 . S
C1562 C1563 1.391 . S
C1563 H1551 0.950 . S
C1563 C1559 1.393 . S
C1563 C1562 1.391 . S
H1564 C1572 0.950 . S
H1565 C1577 0.950 . S
H1566 C1574 0.950 . S
H1567 C1576 0.950 . S
H1568 C1578 0.950 . S
H1569 C1580 0.950 . S
H1570 C1582 0.950 . S
H1571 C1583 0.950 . S
C1572 H1564 0.950 . S
C1572 C1573 1.386 . S
C1572 C1574 1.391 . S
C1573 C1572 1.386 . S
C1573 C1577 1.393 . S
C1574 H1566 0.950 . S
C1574 C1572 1.391 . S
C1574 C1575 1.400 . S
C1575 C1574 1.400 . S
C1575 C1576 1.398 . S
C1575 C1581 1.491 . S
C1576 H1567 0.950 . S
C1576 C1575 1.398 . S
C1576 C1577 1.391 . S
C1577 H1565 0.950 . S
C1577 C1573 1.393 . S
C1577 C1576 1.391 . S
C1578 H1568 0.950 . S
C1578 C1579 1.386 . S
C1578 C1580 1.391 . S
C1579 C1578 1.386 . S
C1579 C1583 1.393 . S
C1580 H1569 0.950 . S
C1580 C1578 1.391 . S
C1580 C1581 1.400 . S
C1581 C1575 1.491 . S
C1581 C1580 1.400 . S
C1581 C1582 1.398 . S
C1582 H1570 0.950 . S
C1582 C1581 1.398 . S
C1582 C1583 1.391 . S
C1583 H1571 0.950 . S
C1583 C1579 1.393 . S
C1583 C1582 1.391 . S
H1584 C1592 0.950 . S
H1585 C1597 0.950 . S
H1586 C1594 0.950 . S
H1587 C1596 0.950 . S
H1588 C1598 0.950 . S
H1589 C1600 0.950 . S
H1590 C1602 0.950 . S
H1591 C1603 0.950 . S
C1592 H1584 0.950 . S
C1592 C1593 1.386 . S
C1592 C1594 1.391 . S
C1593 C1592 1.386 . S
C1593 C1597 1.393 . S
C1594 H1586 0.950 . S
C1594 C1592 1.391 . S
C1594 C1595 1.400 . S
C1595 C1594 1.400 . S
C1595 C1596 1.398 . S
C1595 C1601 1.491 . S
C1596 H1587 0.950 . S
C1596 C1595 1.398 . S
C1596 C1597 1.391 . S
C1597 H1585 0.950 . S
C1597 C1593 1.393 . S
C1597 C1596 1.391 . S
C1598 H1588 0.950 . S
C1598 C1599 1.386 . S
C1598 C1600 1.391 . S
C1599 C1598 1.386 . S
C1599 C1603 1.393 . S
C1600 H1589 0.950 . S
C1600 C1598 1.391 . S
C1600 C1601 1.400 . S
C1601 C1595 1.491 . S
C1601 C1600 1.400 . S
C1601 C1602 1.398 . S
C1602 H1590 0.950 . S
C1602 C1601 1.398 . S
C1602 C1603 1.391 . S
C1603 H1591 0.950 . S
C1603 C1599 1.393 . S
C1603 C1602 1.391 . S
H1604 C1612 0.950 . S
H1605 C1617 0.950 . S
H1606 C1614 0.950 . S
H1607 C1616 0.950 . S
H1608 C1618 0.950 . S
H1609 C1620 0.950 . S
H1610 C1622 0.950 . S
H1611 C1623 0.950 . S
C1612 H1604 0.950 . S
C1612 C1613 1.386 . S
C1612 C1614 1.391 . S
C1613 C1612 1.386 . S
C1613 C1617 1.393 . S
C1614 H1606 0.950 . S
C1614 C1612 1.391 . S
C1614 C1615 1.400 . S
C1615 C1614 1.400 . S
C1615 C1616 1.398 . S
C1615 C1621 1.491 . S
C1616 H1607 0.950 . S
C1616 C1615 1.398 . S
C1616 C1617 1.391 . S
C1617 H1605 0.950 . S
C1617 C1613 1.393 . S
C1617 C1616 1.391 . S
C1618 H1608 0.950 . S
C1618 C1619 1.386 . S
C1618 C1620 1.391 . S
C1619 C1618 1.386 . S
C1619 C1623 1.393 . S
C1620 H1609 0.950 . S
C1620 C1618 1.391 . S
C1620 C1621 1.400 . S
C1621 C1615 1.491 . S
C1621 C1620 1.400 . S
C1621 C1622 1.398 . S
C1622 H1610 0.950 . S
C1622 C1621 1.398 . S
C1622 C1623 1.391 . S
C1623 H1611 0.950 . S
C1623 C1619 1.393 . S
C1623 C1622 1.391 . S
H1624 C1632 0.964 . S
H1625 C1637 0.950 . S
H1626 C1634 0.950 1_554 S
H1627 C1636 0.950 . S
H1628 C1638 0.950 . S
H1629 C1640 0.950 . S
H1630 C1642 0.950 . S
H1631 C1643 0.950 . S
C1632 H1624 0.964 . S
C1632 C1633 1.352 1_565 S
C1632 C1634 1.412 . S
C1633 C1632 1.352 1_545 S
C1633 C1637 1.393 . S
C1634 H1626 0.950 1_556 S
C1634 C1632 1.412 . S
C1634 C1635 1.400 . S
C1635 C1634 1.400 . S
C1635 C1636 1.398 1_565 S
C1635 C1641 1.491 . S
C1636 H1627 0.950 . S
C1636 C1635 1.398 1_545 S
C1636 C1637 1.391 . S
C1637 H1625 0.950 . S
C1637 C1633 1.393 . S
C1637 C1636 1.391 . S
C1638 H1628 0.950 . S
C1638 C1639 1.386 . S
C1638 C1640 1.391 . S
C1639 C1638 1.386 . S
C1639 C1643 1.393 1_556 S
C1640 H1629 0.950 . S
C1640 C1638 1.391 . S
C1640 C1641 1.400 . S
C1641 C1635 1.491 . S
C1641 C1640 1.400 . S
C1641 C1642 1.398 1_556 S
C1642 H1630 0.950 . S
C1642 C1641 1.398 1_554 S
C1642 C1643 1.391 . S
C1643 H1631 0.950 . S
C1643 C1639 1.393 1_554 S
C1643 C1642 1.391 . S
H1644 C1652 0.950 . S
H1645 C1657 0.950 . S
H1646 C1654 0.950 . S
H1647 C1656 0.950 . S
H1648 C1658 0.950 . S
H1649 C1660 0.950 . S
H1650 C1662 0.950 . S
H1651 C1663 0.950 . S
C1652 H1644 0.950 . S
C1652 C1653 1.386 . S
C1652 C1654 1.391 . S
C1653 C1652 1.386 . S
C1653 C1657 1.393 . S
C1654 H1646 0.950 . S
C1654 C1652 1.391 . S
C1654 C1655 1.400 . S
C1655 C1654 1.400 . S
C1655 C1656 1.398 . S
C1655 C1661 1.491 . S
C1656 H1647 0.950 . S
C1656 C1655 1.398 . S
C1656 C1657 1.391 . S
C1657 H1645 0.950 . S
C1657 C1653 1.393 . S
C1657 C1656 1.391 . S
C1658 H1648 0.950 . S
C1658 C1659 1.386 . S
C1658 C1660 1.391 . S
C1659 C1658 1.386 . S
C1659 C1663 1.393 . S
C1660 H1649 0.950 . S
C1660 C1658 1.391 . S
C1660 C1661 1.400 . S
C1661 C1655 1.491 . S
C1661 C1660 1.400 . S
C1661 C1662 1.398 . S
C1662 H1650 0.950 . S
C1662 C1661 1.398 . S
C1662 C1663 1.391 . S
C1663 H1651 0.950 . S
C1663 C1659 1.393 . S
C1663 C1662 1.391 . S
H1664 C1672 0.950 . S
H1665 C1677 0.950 . S
H1666 C1674 0.950 . S
H1667 C1676 0.950 . S
H1668 C1678 0.950 . S
H1669 C1680 0.950 . S
H1670 C1682 0.950 . S
H1671 C1683 0.950 . S
C1672 H1664 0.950 . S
C1672 C1673 1.386 . S
C1672 C1674 1.391 . S
C1673 C1672 1.386 . S
C1673 C1677 1.393 1_545 S
C1674 H1666 0.950 . S
C1674 C1672 1.391 . S
C1674 C1675 1.400 . S
C1675 C1674 1.400 . S
C1675 C1676 1.398 . S
C1675 C1681 1.491 . S
C1676 H1667 0.950 . S
C1676 C1675 1.398 . S
C1676 C1677 1.391 1_545 S
C1677 H1665 0.950 . S
C1677 C1673 1.393 1_565 S
C1677 C1676 1.391 1_565 S
C1678 H1668 0.950 . S
C1678 C1679 1.386 . S
C1678 C1680 1.391 . S
C1679 C1678 1.386 . S
C1679 C1683 1.393 . S
C1680 H1669 0.950 . S
C1680 C1678 1.391 . S
C1680 C1681 1.400 . S
C1681 C1675 1.491 . S
C1681 C1680 1.400 . S
C1681 C1682 1.398 . S
C1682 H1670 0.950 . S
C1682 C1681 1.398 . S
C1682 C1683 1.391 . S
C1683 H1671 0.950 . S
C1683 C1679 1.393 . S
C1683 C1682 1.391 . S
H1684 C1692 0.950 . S
H1685 C1697 0.950 . S
H1686 C1694 0.950 . S
H1687 C1696 0.950 . S
H1688 C1698 0.950 . S
H1689 C1700 0.950 . S
H1690 C1702 0.950 . S
H1691 C1703 0.950 . S
C1692 H1684 0.950 . S
C1692 C1693 1.386 . S
C1692 C1694 1.391 . S
C1693 C1692 1.386 . S
C1693 C1697 1.393 . S
C1694 H1686 0.950 . S
C1694 C1692 1.391 . S
C1694 C1695 1.400 . S
C1695 C1694 1.400 . S
C1695 C1696 1.398 . S
C1695 C1701 1.491 . S
C1696 H1687 0.950 . S
C1696 C1695 1.398 . S
C1696 C1697 1.391 . S
C1697 H1685 0.950 . S
C1697 C1693 1.393 . S
C1697 C1696 1.391 . S
C1698 H1688 0.950 . S
C1698 C1699 1.386 . S
C1698 C1700 1.391 . S
C1699 C1698 1.386 . S
C1699 C1703 1.393 . S
C1700 H1689 0.950 . S
C1700 C1698 1.391 . S
C1700 C1701 1.400 . S
C1701 C1695 1.491 . S
C1701 C1700 1.400 . S
C1701 C1702 1.398 . S
C1702 H1690 0.950 . S
C1702 C1701 1.398 . S
C1702 C1703 1.391 . S
C1703 H1691 0.950 . S
C1703 C1699 1.393 . S
C1703 C1702 1.391 . S
H1704 C1712 0.950 . S
H1705 C1717 0.950 . S
H1706 C1714 0.950 . S
H1707 C1716 0.950 . S
H1708 C1718 0.950 . S
H1709 C1720 0.950 . S
H1710 C1722 0.950 . S
H1711 C1723 0.950 . S
C1712 H1704 0.950 . S
C1712 C1713 1.398 . S
C1712 C1714 1.391 . S
C1713 C1712 1.398 . S
C1713 C1717 1.390 1_545 S
C1714 H1706 0.950 . S
C1714 C1712 1.391 . S
C1714 C1715 1.400 . S
C1715 C1714 1.400 . S
C1715 C1716 1.398 . S
C1715 C1721 1.491 . S
C1716 H1707 0.950 . S
C1716 C1715 1.398 . S
C1716 C1717 1.391 1_545 S
C1717 H1705 0.950 . S
C1717 C1713 1.390 1_565 S
C1717 C1716 1.391 1_565 S
C1718 H1708 0.950 . S
C1718 C1719 1.386 . S
C1718 C1720 1.391 . S
C1719 C1718 1.386 . S
C1719 C1723 1.393 . S
C1720 H1709 0.950 . S
C1720 C1718 1.391 . S
C1720 C1721 1.400 . S
C1721 C1715 1.491 . S
C1721 C1720 1.400 . S
C1721 C1722 1.398 . S
C1722 H1710 0.950 . S
C1722 C1721 1.398 . S
C1722 C1723 1.391 . S
C1723 H1711 0.950 . S
C1723 C1719 1.393 . S
C1723 C1722 1.391 . S
H1724 C1732 0.950 . S
H1725 C1737 0.950 . S
H1726 C1734 0.950 . S
H1727 C1736 0.950 . S
H1728 C1738 0.950 . S
H1729 C1740 0.950 . S
H1730 C1742 0.950 . S
H1731 C1743 0.950 . S
C1732 H1724 0.950 . S
C1732 C1733 1.386 . S
C1732 C1734 1.391 . S
C1733 C1732 1.386 . S
C1733 C1737 1.393 . S
C1734 H1726 0.950 . S
C1734 C1732 1.391 . S
C1734 C1735 1.400 . S
C1735 C1734 1.400 . S
C1735 C1736 1.398 . S
C1735 C1741 1.491 . S
C1736 H1727 0.950 . S
C1736 C1735 1.398 . S
C1736 C1737 1.391 . S
C1737 H1725 0.950 . S
C1737 C1733 1.393 . S
C1737 C1736 1.391 . S
C1738 H1728 0.950 . S
C1738 C1739 1.386 . S
C1738 C1740 1.391 . S
C1739 C1738 1.386 . S
C1739 C1743 1.393 . S
C1740 H1729 0.950 . S
C1740 C1738 1.391 . S
C1740 C1741 1.400 . S
C1741 C1735 1.491 . S
C1741 C1740 1.400 . S
C1741 C1742 1.398 . S
C1742 H1730 0.950 . S
C1742 C1741 1.398 . S
C1742 C1743 1.391 . S
C1743 H1731 0.950 . S
C1743 C1739 1.393 . S
C1743 C1742 1.391 . S
H1744 C1752 0.950 . S
H1745 C1757 0.950 . S
H1746 C1754 0.950 . S
H1747 C1756 0.950 . S
H1748 C1758 0.950 . S
H1749 C1760 0.950 . S
H1750 C1762 0.950 . S
H1751 C1763 0.950 . S
C1752 H1744 0.950 . S
C1752 C1753 1.386 . S
C1752 C1754 1.391 . S
C1753 C1752 1.386 . S
C1753 C1757 1.393 . S
C1754 H1746 0.950 . S
C1754 C1752 1.391 . S
C1754 C1755 1.400 . S
C1755 C1754 1.400 . S
C1755 C1756 1.398 . S
C1755 C1761 1.491 . S
C1756 H1747 0.950 . S
C1756 C1755 1.398 . S
C1756 C1757 1.391 . S
C1757 H1745 0.950 . S
C1757 C1753 1.393 . S
C1757 C1756 1.391 . S
C1758 H1748 0.950 . S
C1758 C1759 1.386 . S
C1758 C1760 1.391 . S
C1759 C1758 1.386 . S
C1759 C1763 1.393 . S
C1760 H1749 0.950 . S
C1760 C1758 1.391 . S
C1760 C1761 1.400 . S
C1761 C1755 1.491 . S
C1761 C1760 1.400 . S
C1761 C1762 1.398 . S
C1762 H1750 0.950 . S
C1762 C1761 1.398 . S
C1762 C1763 1.391 . S
C1763 H1751 0.950 . S
C1763 C1759 1.393 . S
C1763 C1762 1.391 . S
H1764 C1772 0.950 . S
H1765 C1777 0.950 . S
H1766 C1774 0.950 . S
H1767 C1776 0.950 . S
H1768 C1778 0.950 . S
H1769 C1780 0.950 . S
H1770 C1782 0.950 . S
H1771 C1783 0.950 . S
C1772 H1764 0.950 . S
C1772 C1773 1.386 . S
C1772 C1774 1.391 . S
C1773 C1772 1.386 . S
C1773 C1777 1.393 . S
C1774 H1766 0.950 . S
C1774 C1772 1.391 . S
C1774 C1775 1.400 . S
C1775 C1774 1.400 . S
C1775 C1776 1.398 . S
C1775 C1781 1.491 . S
C1776 H1767 0.950 . S
C1776 C1775 1.398 . S
C1776 C1777 1.391 . S
C1777 H1765 0.950 . S
C1777 C1773 1.393 . S
C1777 C1776 1.391 . S
C1778 H1768 0.950 . S
C1778 C1779 1.386 . S
C1778 C1780 1.391 . S
C1779 C1778 1.386 . S
C1779 C1783 1.393 . S
C1780 H1769 0.950 . S
C1780 C1778 1.391 . S
C1780 C1781 1.400 . S
C1781 C1775 1.491 . S
C1781 C1780 1.400 . S
C1781 C1782 1.398 . S
C1782 H1770 0.950 . S
C1782 C1781 1.398 . S
C1782 C1783 1.391 . S
C1783 H1771 0.950 . S
C1783 C1779 1.393 . S
C1783 C1782 1.391 . S
H1784 C1792 0.950 . S
H1785 C1797 0.950 . S
H1786 C1794 0.950 . S
H1787 C1796 0.950 . S
H1788 C1798 0.950 . S
H1789 C1800 0.950 . S
H1790 C1802 0.950 . S
H1791 C1803 0.950 . S
C1792 H1784 0.950 . S
C1792 C1793 1.386 . S
C1792 C1794 1.391 . S
C1793 C1792 1.386 . S
C1793 C1797 1.393 . S
C1794 H1786 0.950 . S
C1794 C1792 1.391 . S
C1794 C1795 1.400 . S
C1795 C1794 1.400 . S
C1795 C1796 1.398 . S
C1795 C1801 1.491 . S
C1796 H1787 0.950 . S
C1796 C1795 1.398 . S
C1796 C1797 1.391 . S
C1797 H1785 0.950 . S
C1797 C1793 1.393 . S
C1797 C1796 1.391 . S
C1798 H1788 0.950 . S
C1798 C1799 1.386 . S
C1798 C1800 1.391 . S
C1799 C1798 1.386 . S
C1799 C1803 1.393 . S
C1800 H1789 0.950 . S
C1800 C1798 1.391 . S
C1800 C1801 1.400 . S
C1801 C1795 1.491 . S
C1801 C1800 1.400 . S
C1801 C1802 1.398 . S
C1802 H1790 0.950 . S
C1802 C1801 1.398 . S
C1802 C1803 1.391 . S
C1803 H1791 0.950 . S
C1803 C1799 1.393 . S
C1803 C1802 1.391 . S
H1804 C1812 0.950 . S
H1805 C1817 0.950 . S
H1806 C1814 0.950 . S
H1807 C1816 0.950 . S
H1808 C1818 0.950 . S
H1809 C1820 0.950 . S
H1810 C1822 0.950 . S
H1811 C1823 0.950 . S
C1812 H1804 0.950 . S
C1812 C1813 1.386 . S
C1812 C1814 1.391 . S
C1813 C1812 1.386 . S
C1813 C1817 1.393 . S
C1814 H1806 0.950 . S
C1814 C1812 1.391 . S
C1814 C1815 1.400 . S
C1815 C1814 1.400 . S
C1815 C1816 1.398 . S
C1815 C1821 1.491 . S
C1816 H1807 0.950 . S
C1816 C1815 1.398 . S
C1816 C1817 1.391 . S
C1817 H1805 0.950 . S
C1817 C1813 1.393 . S
C1817 C1816 1.391 . S
C1818 H1808 0.950 . S
C1818 C1819 1.386 . S
C1818 C1820 1.391 . S
C1819 C1818 1.386 . S
C1819 C1823 1.393 . S
C1820 H1809 0.950 . S
C1820 C1818 1.391 . S
C1820 C1821 1.400 . S
C1821 C1815 1.491 . S
C1821 C1820 1.400 . S
C1821 C1822 1.398 . S
C1822 H1810 0.950 . S
C1822 C1821 1.398 . S
C1822 C1823 1.391 . S
C1823 H1811 0.950 . S
C1823 C1819 1.393 . S
C1823 C1822 1.391 . S
H1824 C1832 0.950 . S
H1825 C1837 0.950 . S
H1826 C1834 0.950 . S
H1827 C1836 0.950 . S
H1828 C1838 0.950 . S
H1829 C1840 0.950 . S
H1830 C1842 0.950 . S
H1831 C1843 0.950 . S
C1832 H1824 0.950 . S
C1832 C1833 1.386 . S
C1832 C1834 1.391 . S
C1833 C1832 1.386 . S
C1833 C1837 1.393 . S
C1834 H1826 0.950 . S
C1834 C1832 1.391 . S
C1834 C1835 1.400 . S
C1835 C1834 1.400 . S
C1835 C1836 1.398 . S
C1835 C1841 1.491 . S
C1836 H1827 0.950 . S
C1836 C1835 1.398 . S
C1836 C1837 1.391 . S
C1837 H1825 0.950 . S
C1837 C1833 1.393 . S
C1837 C1836 1.391 . S
C1838 H1828 0.950 . S
C1838 C1839 1.386 . S
C1838 C1840 1.391 . S
C1839 C1838 1.386 . S
C1839 C1843 1.393 . S
C1840 H1829 0.950 . S
C1840 C1838 1.391 . S
C1840 C1841 1.400 . S
C1841 C1835 1.491 . S
C1841 C1840 1.400 . S
C1841 C1842 1.398 . S
C1842 H1830 0.950 . S
C1842 C1841 1.398 . S
C1842 C1843 1.391 . S
C1843 H1831 0.950 . S
C1843 C1839 1.393 . S
C1843 C1842 1.391 . S
H1844 C1852 0.950 . S
H1845 C1857 0.950 . S
H1846 C1854 0.950 . S
H1847 C1856 0.950 . S
H1848 C1858 0.950 . S
H1849 C1860 0.950 . S
H1850 C1862 0.950 . S
H1851 C1863 0.950 . S
C1852 H1844 0.950 . S
C1852 C1853 1.386 . S
C1852 C1854 1.391 . S
C1853 C1852 1.386 . S
C1853 C1857 1.393 1_545 S
C1854 H1846 0.950 . S
C1854 C1852 1.391 . S
C1854 C1855 1.400 . S
C1855 C1854 1.400 . S
C1855 C1856 1.398 1_545 S
C1855 C1861 1.491 . S
C1856 H1847 0.950 . S
C1856 C1855 1.398 1_565 S
C1856 C1857 1.391 . S
C1857 H1845 0.950 . S
C1857 C1853 1.393 1_565 S
C1857 C1856 1.391 . S
C1858 H1848 0.950 . S
C1858 C1859 1.386 1_565 S
C1858 C1860 1.391 . S
C1859 C1858 1.386 1_545 S
C1859 C1863 1.393 . S
C1860 H1849 0.950 . S
C1860 C1858 1.391 . S
C1860 C1861 1.400 1_565 S
C1861 C1855 1.491 . S
C1861 C1860 1.400 1_545 S
C1861 C1862 1.398 . S
C1862 H1850 0.950 . S
C1862 C1861 1.398 . S
C1862 C1863 1.391 . S
C1863 H1851 0.950 . S
C1863 C1859 1.393 . S
C1863 C1862 1.391 . S
H1864 C1872 0.950 . S
H1865 C1877 0.950 . S
H1866 C1874 0.950 . S
H1867 C1876 0.950 . S
H1868 C1878 0.950 . S
H1869 C1880 0.950 . S
H1870 C1882 0.950 . S
H1871 C1883 0.950 . S
C1872 H1864 0.950 . S
C1872 C1873 1.386 . S
C1872 C1874 1.391 . S
C1873 C1872 1.386 . S
C1873 C1877 1.393 . S
C1874 H1866 0.950 . S
C1874 C1872 1.391 . S
C1874 C1875 1.400 . S
C1875 C1874 1.400 . S
C1875 C1876 1.398 . S
C1875 C1881 1.491 . S
C1876 H1867 0.950 . S
C1876 C1875 1.398 . S
C1876 C1877 1.391 . S
C1877 H1865 0.950 . S
C1877 C1873 1.393 . S
C1877 C1876 1.391 . S
C1878 H1868 0.950 . S
C1878 C1879 1.386 . S
C1878 C1880 1.391 . S
C1879 C1878 1.386 . S
C1879 C1883 1.393 . S
C1880 H1869 0.950 . S
C1880 C1878 1.391 . S
C1880 C1881 1.400 . S
C1881 C1875 1.491 . S
C1881 C1880 1.400 . S
C1881 C1882 1.398 . S
C1882 H1870 0.950 . S
C1882 C1881 1.398 . S
C1882 C1883 1.391 . S
C1883 H1871 0.950 . S
C1883 C1879 1.393 . S
C1883 C1882 1.391 . S
H1884 C1892 0.950 1_655 S
H1885 C1897 0.950 . S
H1886 C1894 0.950 . S
H1887 C1896 0.950 . S
H1888 C1898 0.950 . S
H1889 C1900 0.950 . S
H1890 C1902 0.950 . S
H1891 C1903 0.950 . S
C1892 H1884 0.950 1_455 S
C1892 C1893 1.386 . S
C1892 C1894 1.391 . S
C1893 C1892 1.386 . S
C1893 C1897 1.393 . S
C1894 H1886 0.950 . S
C1894 C1892 1.391 . S
C1894 C1895 1.400 . S
C1895 C1894 1.400 . S
C1895 C1896 1.398 . S
C1895 C1901 1.491 . S
C1896 H1887 0.950 . S
C1896 C1895 1.398 . S
C1896 C1897 1.391 . S
C1897 H1885 0.950 . S
C1897 C1893 1.393 . S
C1897 C1896 1.391 . S
C1898 H1888 0.950 . S
C1898 C1899 1.386 . S
C1898 C1900 1.391 . S
C1899 C1898 1.386 . S
C1899 C1903 1.393 . S
C1900 H1889 0.950 . S
C1900 C1898 1.391 . S
C1900 C1901 1.400 . S
C1901 C1895 1.491 . S
C1901 C1900 1.400 . S
C1901 C1902 1.398 . S
C1902 H1890 0.950 . S
C1902 C1901 1.398 . S
C1902 C1903 1.391 . S
C1903 H1891 0.950 . S
C1903 C1899 1.393 . S
C1903 C1902 1.391 . S
H1904 C1912 0.950 . S
H1905 C1917 0.950 . S
H1906 C1914 0.950 . S
H1907 C1916 0.950 . S
H1908 C1918 0.950 . S
H1909 C1920 0.950 . S
H1910 C1922 0.950 . S
H1911 C1923 0.950 . S
C1912 H1904 0.950 . S
C1912 C1913 1.386 . S
C1912 C1914 1.391 . S
C1913 C1912 1.386 . S
C1913 C1917 1.393 . S
C1914 H1906 0.950 . S
C1914 C1912 1.391 . S
C1914 C1915 1.400 . S
C1915 C1914 1.400 . S
C1915 C1916 1.398 . S
C1915 C1921 1.491 . S
C1916 H1907 0.950 . S
C1916 C1915 1.398 . S
C1916 C1917 1.391 . S
C1917 H1905 0.950 . S
C1917 C1913 1.393 . S
C1917 C1916 1.391 . S
C1918 H1908 0.950 . S
C1918 C1919 1.386 . S
C1918 C1920 1.391 . S
C1919 C1918 1.386 . S
C1919 C1923 1.393 . S
C1920 H1909 0.950 . S
C1920 C1918 1.391 . S
C1920 C1921 1.400 . S
C1921 C1915 1.491 . S
C1921 C1920 1.400 . S
C1921 C1922 1.398 . S
C1922 H1910 0.950 . S
C1922 C1921 1.398 . S
C1922 C1923 1.391 . S
C1923 H1911 0.950 . S
C1923 C1919 1.393 . S
C1923 C1922 1.391 . S
H1924 C1932 0.944 1_455 S
H1925 C1937 0.950 . S
H1926 C1934 0.950 . S
H1927 C1936 0.950 1_556 S
H1928 C1938 0.950 . S
H1929 C1940 0.950 . S
H1930 C1942 0.950 . S
H1931 C1943 0.950 . S
C1932 H1924 0.944 1_655 S
C1932 C1933 1.392 . S
C1932 C1934 1.390 1_655 S
C1933 C1932 1.392 . S
C1933 C1937 1.393 . S
C1934 H1926 0.950 . S
C1934 C1932 1.390 1_455 S
C1934 C1935 1.400 1_455 S
C1935 C1934 1.400 1_655 S
C1935 C1936 1.398 . S
C1935 C1941 1.491 . S
C1936 H1927 0.950 1_554 S
C1936 C1935 1.398 . S
C1936 C1937 1.391 . S
C1937 H1925 0.950 . S
C1937 C1933 1.393 . S
C1937 C1936 1.391 . S
C1938 H1928 0.950 . S
C1938 C1939 1.386 . S
C1938 C1940 1.391 . S
C1939 C1938 1.386 . S
C1939 C1943 1.393 1_655 S
C1940 H1929 0.950 . S
C1940 C1938 1.391 . S
C1940 C1941 1.400 1_556 S
C1941 C1935 1.491 . S
C1941 C1940 1.400 1_554 S
C1941 C1942 1.398 1_655 S
C1942 H1930 0.950 . S
C1942 C1941 1.398 1_455 S
C1942 C1943 1.391 1_554 S
C1943 H1931 0.950 . S
C1943 C1939 1.393 1_455 S
C1943 C1942 1.391 1_556 S
H1944 C1952 0.950 . S
H1945 C1957 0.950 . S
H1946 C1954 0.950 . S
H1947 C1956 0.950 . S
H1948 C1958 0.950 . S
H1949 C1960 0.950 . S
H1950 C1962 0.950 . S
H1951 C1963 0.950 . S
C1952 H1944 0.950 . S
C1952 C1953 1.386 . S
C1952 C1954 1.391 . S
C1953 C1952 1.386 . S
C1953 C1957 1.393 . S
C1954 H1946 0.950 . S
C1954 C1952 1.391 . S
C1954 C1955 1.400 . S
C1955 C1954 1.400 . S
C1955 C1956 1.398 . S
C1955 C1961 1.491 . S
C1956 H1947 0.950 . S
C1956 C1955 1.398 . S
C1956 C1957 1.391 . S
C1957 H1945 0.950 . S
C1957 C1953 1.393 . S
C1957 C1956 1.391 . S
C1958 H1948 0.950 . S
C1958 C1959 1.386 . S
C1958 C1960 1.391 . S
C1959 C1958 1.386 . S
C1959 C1963 1.393 . S
C1960 H1949 0.950 . S
C1960 C1958 1.391 . S
C1960 C1961 1.400 . S
C1961 C1955 1.491 . S
C1961 C1960 1.400 . S
C1961 C1962 1.398 . S
C1962 H1950 0.950 . S
C1962 C1961 1.398 . S
C1962 C1963 1.391 . S
C1963 H1951 0.950 . S
C1963 C1959 1.393 . S
C1963 C1962 1.391 . S
H1964 C1972 0.950 . S
H1965 C1977 0.950 . S
H1966 C1974 0.950 1_556 S
H1967 C1976 0.950 . S
H1968 C1978 0.950 . S
H1969 C1980 0.950 . S
H1970 C1982 0.950 . S
H1971 C1983 0.950 . S
C1972 H1964 0.950 . S
C1972 C1973 1.386 . S
C1972 C1974 1.391 . S
C1973 C1972 1.386 . S
C1973 C1977 1.393 1_455 S
C1974 H1966 0.950 1_554 S
C1974 C1972 1.391 . S
C1974 C1975 1.400 . S
C1975 C1974 1.400 . S
C1975 C1976 1.398 1_455 S
C1975 C1981 1.491 1_554 S
C1976 H1967 0.950 . S
C1976 C1975 1.398 1_655 S
C1976 C1977 1.391 . S
C1977 H1965 0.950 . S
C1977 C1973 1.393 1_655 S
C1977 C1976 1.391 . S
C1978 H1968 0.950 . S
C1978 C1979 1.386 1_655 S
C1978 C1980 1.391 . S
C1979 C1978 1.386 1_455 S
C1979 C1983 1.393 . S
C1980 H1969 0.950 . S
C1980 C1978 1.391 . S
C1980 C1981 1.400 1_655 S
C1981 C1975 1.491 1_556 S
C1981 C1980 1.400 1_455 S
C1981 C1982 1.398 . S
C1982 H1970 0.950 . S
C1982 C1981 1.398 . S
C1982 C1983 1.391 . S
C1983 H1971 0.950 . S
C1983 C1979 1.393 . S
C1983 C1982 1.391 . S
H1984 C1992 0.950 . S
H1985 C1997 0.950 . S
H1986 C1994 0.950 . S
H1987 C1996 0.950 . S
H1988 C1998 0.950 . S
H1989 C2000 0.950 . S
H1990 C2002 0.950 . S
H1991 C2003 0.950 . S
C1992 H1984 0.950 . S
C1992 C1993 1.386 . S
C1992 C1994 1.391 . S
C1993 C1992 1.386 . S
C1993 C1997 1.393 . S
C1994 H1986 0.950 . S
C1994 C1992 1.391 . S
C1994 C1995 1.400 . S
C1995 C1994 1.400 . S
C1995 C1996 1.398 . S
C1995 C2001 1.491 . S
C1996 H1987 0.950 . S
C1996 C1995 1.398 . S
C1996 C1997 1.391 . S
C1997 H1985 0.950 . S
C1997 C1993 1.393 . S
C1997 C1996 1.391 . S
C1998 H1988 0.950 . S
C1998 C1999 1.386 . S
C1998 C2000 1.391 . S
C1999 C1998 1.386 . S
C1999 C2003 1.393 . S
C2000 H1989 0.950 . S
C2000 C1998 1.391 . S
C2000 C2001 1.400 . S
C2001 C1995 1.491 . S
C2001 C2000 1.400 . S
C2001 C2002 1.398 . S
C2002 H1990 0.950 . S
C2002 C2001 1.398 . S
C2002 C2003 1.391 . S
C2003 H1991 0.950 . S
C2003 C1999 1.393 . S
C2003 C2002 1.391 . S
H2004 C2012 0.950 . S
H2005 C2017 0.950 . S
H2006 C2014 0.950 . S
H2007 C2016 0.950 . S
H2008 C2018 0.950 . S
H2009 C2020 0.950 . S
H2010 C2022 0.950 . S
H2011 C2023 0.950 . S
C2012 H2004 0.950 . S
C2012 C2013 1.386 . S
C2012 C2014 1.391 1_556 S
C2013 C2012 1.386 . S
C2013 C2017 1.393 1_556 S
C2014 H2006 0.950 . S
C2014 C2012 1.391 1_554 S
C2014 C2015 1.400 . S
C2015 C2014 1.400 . S
C2015 C2016 1.398 . S
C2015 C2021 1.491 . S
C2016 H2007 0.950 . S
C2016 C2015 1.398 . S
C2016 C2017 1.391 . S
C2017 H2005 0.950 . S
C2017 C2013 1.393 1_554 S
C2017 C2016 1.391 . S
C2018 H2008 0.950 . S
C2018 C2019 1.386 . S
C2018 C2020 1.391 . S
C2019 C2018 1.386 . S
C2019 C2023 1.393 . S
C2020 H2009 0.950 . S
C2020 C2018 1.391 . S
C2020 C2021 1.400 . S
C2021 C2015 1.491 . S
C2021 C2020 1.400 . S
C2021 C2022 1.398 . S
C2022 H2010 0.950 . S
C2022 C2021 1.398 . S
C2022 C2023 1.391 . S
C2023 H2011 0.950 . S
C2023 C2019 1.393 . S
C2023 C2022 1.391 . S
H2024 C2032 0.950 . S
H2025 C2037 0.950 . S
H2026 C2034 0.950 . S
H2027 C2036 0.950 . S
H2028 C2038 0.950 . S
H2029 C2040 0.950 . S
H2030 C2042 0.950 . S
H2031 C2043 0.950 . S
C2032 H2024 0.950 . S
C2032 C2033 1.386 . S
C2032 C2034 1.391 . S
C2033 C2032 1.386 . S
C2033 C2037 1.393 . S
C2034 H2026 0.950 . S
C2034 C2032 1.391 . S
C2034 C2035 1.400 . S
C2035 C2034 1.400 . S
C2035 C2036 1.398 . S
C2035 C2041 1.491 . S
C2036 H2027 0.950 . S
C2036 C2035 1.398 . S
C2036 C2037 1.391 . S
C2037 H2025 0.950 . S
C2037 C2033 1.393 . S
C2037 C2036 1.391 . S
C2038 H2028 0.950 . S
C2038 C2039 1.386 . S
C2038 C2040 1.391 . S
C2039 C2038 1.386 . S
C2039 C2043 1.393 . S
C2040 H2029 0.950 . S
C2040 C2038 1.391 . S
C2040 C2041 1.400 . S
C2041 C2035 1.491 . S
C2041 C2040 1.400 . S
C2041 C2042 1.398 . S
C2042 H2030 0.950 . S
C2042 C2041 1.398 . S
C2042 C2043 1.391 . S
C2043 H2031 0.950 . S
C2043 C2039 1.393 . S
C2043 C2042 1.391 . S
H2044 C2052 0.950 . S
H2045 C2057 0.950 . S
H2046 C2054 0.950 . S
H2047 C2056 0.950 . S
H2048 C2058 0.950 . S
H2049 C2060 0.950 . S
H2050 C2062 0.950 . S
H2051 C2063 0.950 . S
C2052 H2044 0.950 . S
C2052 C2053 1.386 . S
C2052 C2054 1.391 1_556 S
C2053 C2052 1.386 . S
C2053 C2057 1.393 1_556 S
C2054 H2046 0.950 . S
C2054 C2052 1.391 1_554 S
C2054 C2055 1.400 . S
C2055 C2054 1.400 . S
C2055 C2056 1.398 . S
C2055 C2061 1.491 . S
C2056 H2047 0.950 . S
C2056 C2055 1.398 . S
C2056 C2057 1.391 . S
C2057 H2045 0.950 . S
C2057 C2053 1.393 1_554 S
C2057 C2056 1.391 . S
C2058 H2048 0.950 . S
C2058 C2059 1.386 . S
C2058 C2060 1.391 . S
C2059 C2058 1.386 . S
C2059 C2063 1.393 . S
C2060 H2049 0.950 . S
C2060 C2058 1.391 . S
C2060 C2061 1.400 . S
C2061 C2055 1.491 . S
C2061 C2060 1.400 . S
C2061 C2062 1.398 . S
C2062 H2050 0.950 . S
C2062 C2061 1.398 . S
C2062 C2063 1.391 . S
C2063 H2051 0.950 . S
C2063 C2059 1.393 . S
C2063 C2062 1.391 . S
H2064 C2072 0.950 . S
H2065 C2077 0.950 . S
H2066 C2074 0.950 . S
H2067 C2076 0.950 . S
H2068 C2078 0.950 . S
H2069 C2080 0.950 . S
H2070 C2082 0.950 . S
H2071 C2083 0.950 . S
C2072 H2064 0.950 . S
C2072 C2073 1.386 . S
C2072 C2074 1.391 . S
C2073 C2072 1.386 . S
C2073 C2077 1.393 . S
C2074 H2066 0.950 . S
C2074 C2072 1.391 . S
C2074 C2075 1.400 . S
C2075 C2074 1.400 . S
C2075 C2076 1.398 . S
C2075 C2081 1.491 . S
C2076 H2067 0.950 . S
C2076 C2075 1.398 . S
C2076 C2077 1.391 . S
C2077 H2065 0.950 . S
C2077 C2073 1.393 . S
C2077 C2076 1.391 . S
C2078 H2068 0.950 . S
C2078 C2079 1.386 . S
C2078 C2080 1.391 . S
C2079 C2078 1.386 . S
C2079 C2083 1.393 . S
C2080 H2069 0.950 . S
C2080 C2078 1.391 . S
C2080 C2081 1.400 . S
C2081 C2075 1.491 . S
C2081 C2080 1.400 . S
C2081 C2082 1.398 . S
C2082 H2070 0.950 . S
C2082 C2081 1.398 . S
C2082 C2083 1.391 . S
C2083 H2071 0.950 . S
C2083 C2079 1.393 . S
C2083 C2082 1.391 . S
H2084 C2092 0.950 . S
H2085 C2097 0.950 . S
H2086 C2094 0.950 . S
H2087 C2096 0.950 . S
H2088 C2098 0.950 . S
H2089 C2100 0.950 . S
H2090 C2102 0.950 . S
H2091 C2103 0.950 . S
C2092 H2084 0.950 . S
C2092 C2093 1.386 . S
C2092 C2094 1.391 . S
C2093 C2092 1.386 . S
C2093 C2097 1.393 . S
C2094 H2086 0.950 . S
C2094 C2092 1.391 . S
C2094 C2095 1.400 . S
C2095 C2094 1.400 . S
C2095 C2096 1.398 . S
C2095 C2101 1.491 . S
C2096 H2087 0.950 . S
C2096 C2095 1.398 . S
C2096 C2097 1.391 . S
C2097 H2085 0.950 . S
C2097 C2093 1.393 . S
C2097 C2096 1.391 . S
C2098 H2088 0.950 . S
C2098 C2099 1.386 . S
C2098 C2100 1.391 . S
C2099 C2098 1.386 . S
C2099 C2103 1.393 . S
C2100 H2089 0.950 . S
C2100 C2098 1.391 . S
C2100 C2101 1.400 . S
C2101 C2095 1.491 . S
C2101 C2100 1.400 . S
C2101 C2102 1.398 . S
C2102 H2090 0.950 . S
C2102 C2101 1.398 . S
C2102 C2103 1.391 . S
C2103 H2091 0.950 . S
C2103 C2099 1.393 . S
C2103 C2102 1.391 . S
H2104 C2112 0.950 . S
H2105 C2117 0.950 . S
H2106 C2114 0.950 . S
H2107 C2116 0.950 . S
H2108 C2118 0.950 . S
H2109 C2120 0.950 . S
H2110 C2122 0.950 . S
H2111 C2123 0.950 . S
C2112 H2104 0.950 . S
C2112 C2113 1.386 . S
C2112 C2114 1.391 . S
C2113 C2112 1.386 . S
C2113 C2117 1.393 . S
C2114 H2106 0.950 . S
C2114 C2112 1.391 . S
C2114 C2115 1.400 . S
C2115 C2114 1.400 . S
C2115 C2116 1.398 . S
C2115 C2121 1.491 . S
C2116 H2107 0.950 . S
C2116 C2115 1.398 . S
C2116 C2117 1.391 . S
C2117 H2105 0.950 . S
C2117 C2113 1.393 . S
C2117 C2116 1.391 . S
C2118 H2108 0.950 . S
C2118 C2119 1.386 . S
C2118 C2120 1.391 . S
C2119 C2118 1.386 . S
C2119 C2123 1.393 . S
C2120 H2109 0.950 . S
C2120 C2118 1.391 . S
C2120 C2121 1.400 . S
C2121 C2115 1.491 . S
C2121 C2120 1.400 . S
C2121 C2122 1.398 . S
C2122 H2110 0.950 . S
C2122 C2121 1.398 . S
C2122 C2123 1.391 . S
C2123 H2111 0.950 . S
C2123 C2119 1.393 . S
C2123 C2122 1.391 . S
H2124 C2132 0.950 . S
H2125 C2137 0.950 . S
H2126 C2134 0.950 . S
H2127 C2136 0.950 . S
H2128 C2138 0.950 . S
H2129 C2140 0.950 . S
H2130 C2142 0.950 . S
H2131 C2143 0.950 . S
C2132 H2124 0.950 . S
C2132 C2133 1.386 . S
C2132 C2134 1.391 . S
C2133 C2132 1.386 . S
C2133 C2137 1.393 . S
C2134 H2126 0.950 . S
C2134 C2132 1.391 . S
C2134 C2135 1.400 . S
C2135 C2134 1.400 . S
C2135 C2136 1.398 . S
C2135 C2141 1.491 . S
C2136 H2127 0.950 . S
C2136 C2135 1.398 . S
C2136 C2137 1.391 . S
C2137 H2125 0.950 . S
C2137 C2133 1.393 . S
C2137 C2136 1.391 . S
C2138 H2128 0.950 . S
C2138 C2139 1.386 . S
C2138 C2140 1.391 . S
C2139 C2138 1.386 . S
C2139 C2143 1.393 . S
C2140 H2129 0.950 . S
C2140 C2138 1.391 . S
C2140 C2141 1.400 . S
C2141 C2135 1.491 . S
C2141 C2140 1.400 . S
C2141 C2142 1.398 . S
C2142 H2130 0.950 . S
C2142 C2141 1.398 . S
C2142 C2143 1.391 . S
C2143 H2131 0.950 . S
C2143 C2139 1.393 . S
C2143 C2142 1.391 . S
H2144 C2152 0.950 . S
H2145 C2157 0.950 . S
H2146 C2154 0.950 . S
H2147 C2156 0.950 . S
H2148 C2158 0.950 . S
H2149 C2160 0.950 . S
H2150 C2162 0.950 . S
H2151 C2163 0.950 . S
C2152 H2144 0.950 . S
C2152 C2153 1.386 . S
C2152 C2154 1.391 . S
C2153 C2152 1.386 . S
C2153 C2157 1.393 . S
C2154 H2146 0.950 . S
C2154 C2152 1.391 . S
C2154 C2155 1.400 . S
C2155 C2154 1.400 . S
C2155 C2156 1.398 . S
C2155 C2161 1.491 . S
C2156 H2147 0.950 . S
C2156 C2155 1.398 . S
C2156 C2157 1.391 . S
C2157 H2145 0.950 . S
C2157 C2153 1.393 . S
C2157 C2156 1.391 . S
C2158 H2148 0.950 . S
C2158 C2159 1.386 . S
C2158 C2160 1.391 . S
C2159 C2158 1.386 . S
C2159 C2163 1.393 . S
C2160 H2149 0.950 . S
C2160 C2158 1.391 . S
C2160 C2161 1.400 . S
C2161 C2155 1.491 . S
C2161 C2160 1.400 . S
C2161 C2162 1.398 . S
C2162 H2150 0.950 . S
C2162 C2161 1.398 . S
C2162 C2163 1.391 . S
C2163 H2151 0.950 . S
C2163 C2159 1.393 . S
C2163 C2162 1.391 . S
H2164 C2172 0.950 . S
H2165 C2177 0.950 . S
H2166 C2174 0.950 . S
H2167 C2176 0.950 . S
H2168 C2178 0.950 . S
H2169 C2180 0.950 . S
H2170 C2182 0.950 . S
H2171 C2183 0.950 . S
C2172 H2164 0.950 . S
C2172 C2173 1.386 . S
C2172 C2174 1.391 . S
C2173 C2172 1.386 . S
C2173 C2177 1.393 . S
C2174 H2166 0.950 . S
C2174 C2172 1.391 . S
C2174 C2175 1.400 . S
C2175 C2174 1.400 . S
C2175 C2176 1.398 . S
C2175 C2181 1.491 . S
C2176 H2167 0.950 . S
C2176 C2175 1.398 . S
C2176 C2177 1.391 . S
C2177 H2165 0.950 . S
C2177 C2173 1.393 . S
C2177 C2176 1.391 . S
C2178 H2168 0.950 . S
C2178 C2179 1.386 . S
C2178 C2180 1.391 . S
C2179 C2178 1.386 . S
C2179 C2183 1.393 . S
C2180 H2169 0.950 . S
C2180 C2178 1.391 . S
C2180 C2181 1.400 . S
C2181 C2175 1.491 . S
C2181 C2180 1.400 . S
C2181 C2182 1.398 . S
C2182 H2170 0.950 . S
C2182 C2181 1.398 . S
C2182 C2183 1.391 . S
C2183 H2171 0.950 . S
C2183 C2179 1.393 . S
C2183 C2182 1.391 . S
H2184 C2192 0.950 . S
H2185 C2197 0.950 . S
H2186 C2194 0.950 . S
H2187 C2196 0.950 . S
H2188 C2198 0.950 1_556 S
H2189 C2200 0.965 . S
H2190 C2202 0.950 . S
H2191 C2203 0.950 . S
C2192 H2184 0.950 . S
C2192 C2193 1.386 . S
C2192 C2194 1.391 . S
C2193 C2192 1.386 . S
C2193 C2197 1.393 . S
C2194 H2186 0.950 . S
C2194 C2192 1.391 . S
C2194 C2195 1.400 . S
C2195 C2194 1.400 . S
C2195 C2196 1.398 . S
C2195 C2201 1.491 . S
C2196 H2187 0.950 . S
C2196 C2195 1.398 . S
C2196 C2197 1.391 . S
C2197 H2185 0.950 . S
C2197 C2193 1.393 . S
C2197 C2196 1.391 . S
C2198 H2188 0.950 1_554 S
C2198 C2199 1.386 . S
C2198 C2200 1.391 . S
C2199 C2198 1.386 . S
C2199 C2203 1.393 . S
C2200 H2189 0.965 . S
C2200 C2198 1.391 . S
C2200 C2201 1.400 . S
C2201 C2195 1.491 . S
C2201 C2200 1.400 . S
C2201 C2202 1.398 . S
C2202 H2190 0.950 . S
C2202 C2201 1.398 . S
C2202 C2203 1.391 . S
C2203 H2191 0.950 . S
C2203 C2199 1.393 . S
C2203 C2202 1.391 . S
H2204 C2212 0.950 . S
H2205 C2217 0.950 1_545 S
H2206 C2214 0.950 . S
H2207 C2216 0.950 . S
H2208 C2218 0.950 . S
H2209 C2220 0.950 . S
H2210 C2222 0.950 . S
H2211 C2223 0.950 . S
C2212 H2204 0.950 . S
C2212 C2213 1.386 . S
C2212 C2214 1.391 . S
C2213 C2212 1.386 . S
C2213 C2217 1.393 . S
C2214 H2206 0.950 . S
C2214 C2212 1.391 . S
C2214 C2215 1.400 . S
C2215 C2214 1.400 . S
C2215 C2216 1.398 . S
C2215 C2221 1.491 . S
C2216 H2207 0.950 . S
C2216 C2215 1.398 . S
C2216 C2217 1.391 . S
C2217 H2205 0.950 1_565 S
C2217 C2213 1.393 . S
C2217 C2216 1.391 . S
C2218 H2208 0.950 . S
C2218 C2219 1.386 . S
C2218 C2220 1.391 . S
C2219 C2218 1.386 . S
C2219 C2223 1.393 . S
C2220 H2209 0.950 . S
C2220 C2218 1.391 . S
C2220 C2221 1.400 . S
C2221 C2215 1.491 . S
C2221 C2220 1.400 . S
C2221 C2222 1.398 . S
C2222 H2210 0.950 . S
C2222 C2221 1.398 . S
C2222 C2223 1.391 . S
C2223 H2211 0.950 . S
C2223 C2219 1.393 . S
C2223 C2222 1.391 . S
C1279 C257 1.241 . S
C1273 N66 1.236 . S
C1299 C316 1.583 . S
C1293 N79 1.579 . S
C1313 N92 1.846 . S
C1319 C433 1.865 . S
C1339 C501 1.337 . S
C1333 N54 1.342 . S
C1359 C580 1.558 . S
C1353 N131 1.554 . S
C1379 C705 1.144 . S
C1373 N158 1.146 . S
C1393 N145 1.551 . S
C1399 C765 1.552 . S
C1419 C873 1.842 . S
C1413 N118 1.815 . S
C1433 N148 2.043 . S
C1439 C969 2.044 . S
C1459 C1029 1.631 . S
C1453 N122 1.607 . S
C1473 N132 1.226 . S
C1479 C932 1.226 . S
C1499 C1049 1.503 . S
C1493 N161 1.478 . S
C1513 N96 1.929 . S
C1519 C1117 1.966 . S
C1533 N53 1.785 . S
C1539 C1108 1.802 . S
C1553 N67 1.001 . S
C1559 C1137 0.999 . S
C1573 N83 1.313 . S
C1579 C1145 1.316 1_655 S
C1593 N44 1.441 . S
C1599 C529 1.464 . S
C1613 N187 1.528 . S
C1619 C492 1.541 . S
C1639 C228 1.128 1_556 S
C1633 N197 1.136 . S
C1659 C325 1.249 . S
C1653 N106 1.248 . S
C1673 N57 1.888 1_545 S
C1679 C589 1.902 . S
C1699 C881 1.425 . S
C1693 N144 1.407 . S
C1719 C609 1.358 . S
C1713 N119 1.359 1_545 S
C1739 C793 1.867 . S
C1733 N157 1.819 . S
C1759 C785 1.240 . S
C1753 N183 1.235 . S
C1773 N196 1.581 . S
C1779 C853 1.585 . S
C1793 N105 1.845 . S
C1799 C617 1.863 . S
C1819 C668 1.336 . S
C1813 N171 1.342 . S
C1833 N40 1.557 . S
C1839 C413 1.550 . S
C1859 C521 1.144 . S
C1853 N2 1.145 1_655 S
C1879 C237 1.549 . S
C1873 N15 1.549 . S
C1899 C353 1.839 . S
C1893 N27 1.825 1_455 S
C1913 N18 2.047 . S
C1919 C1057 2.044 . S
C1933 N31 1.609 . S
C1939 C941 1.623 . S
C1953 N41 1.222 . S
C1959 C1020 1.223 . S
C1973 N5 1.474 . S
C1979 C961 1.501 . S
C1999 C1205 1.967 . S
C1993 N109 1.923 . S
C2019 C1196 1.802 . S
C2013 N170 1.785 . S
C2039 C1225 0.998 . S
C2033 N184 0.993 . S
C2053 N200 1.299 . S
C2059 C1233 1.321 . S
C2073 N135 1.449 . S
C2079 C697 1.465 . S
C2099 C677 1.541 . S
C2093 N70 1.530 . S
C2119 C756 1.137 . S
C2113 N80 1.139 . S
C2139 C844 1.245 . S
C2133 N93 1.248 . S
C2153 N174 1.886 . S
C2159 C404 1.906 . S
C2179 C345 1.428 . S
C2173 N14 1.401 . S
C2193 N28 1.371 . S
C2199 C441 1.366 . S
C2219 C265 1.865 . S
C2213 N1 1.831 1_565 S
