# Generated by pormake.
# Topology ant, (3,6)-cn, num edge types: 1
# Building blocks:
#     Node 0, Type 0, BuildingBlock: MIDCAF_clean_linker_0, # of connection points: 3
#     Node 1, Type 0, BuildingBlock: MIDCAF_clean_linker_0, # of connection points: 3
#     Node 2, Type 0, BuildingBlock: MIDCAF_clean_linker_0, # of connection points: 3
#     Node 3, Type 0, BuildingBlock: MIDCAF_clean_linker_0, # of connection points: 3
#     Node 4, Type 0, BuildingBlock: MIDCAF_clean_linker_0, # of connection points: 3
#     Node 5, Type 0, BuildingBlock: MIDCAF_clean_linker_0, # of connection points: 3
#     Node 6, Type 0, BuildingBlock: MIDCAF_clean_linker_0, # of connection points: 3
#     Node 7, Type 0, BuildingBlock: MIDCAF_clean_linker_0, # of connection points: 3
#     Node 8, Type 1, BuildingBlock: MIDCAF_clean_sbu_0, # of connection points: 6
#     Node 9, Type 1, BuildingBlock: MIDCAF_clean_sbu_0, # of connection points: 6
#     Node 10, Type 1, BuildingBlock: MIDCAF_clean_sbu_0, # of connection points: 6
#     Node 11, Type 1, BuildingBlock: MIDCAF_clean_sbu_0, # of connection points: 6
#     Edge 12, Type (0, 1), BuildingBlock: ZUJKAS_clean_linker_0, # of connection points: 2
#     Edge 13, Type (0, 1), BuildingBlock: ZUJKAS_clean_linker_0, # of connection points: 2
#     Edge 14, Type (0, 1), BuildingBlock: ZUJKAS_clean_linker_0, # of connection points: 2
#     Edge 15, Type (0, 1), BuildingBlock: ZUJKAS_clean_linker_0, # of connection points: 2
#     Edge 16, Type (0, 1), BuildingBlock: ZUJKAS_clean_linker_0, # of connection points: 2
#     Edge 17, Type (0, 1), BuildingBlock: ZUJKAS_clean_linker_0, # of connection points: 2
#     Edge 18, Type (0, 1), BuildingBlock: ZUJKAS_clean_linker_0, # of connection points: 2
#     Edge 19, Type (0, 1), BuildingBlock: ZUJKAS_clean_linker_0, # of connection points: 2
#     Edge 20, Type (0, 1), BuildingBlock: ZUJKAS_clean_linker_0, # of connection points: 2
#     Edge 21, Type (0, 1), BuildingBlock: ZUJKAS_clean_linker_0, # of connection points: 2
#     Edge 22, Type (0, 1), BuildingBlock: ZUJKAS_clean_linker_0, # of connection points: 2
#     Edge 23, Type (0, 1), BuildingBlock: ZUJKAS_clean_linker_0, # of connection points: 2
#     Edge 24, Type (0, 1), BuildingBlock: ZUJKAS_clean_linker_0, # of connection points: 2
#     Edge 25, Type (0, 1), BuildingBlock: ZUJKAS_clean_linker_0, # of connection points: 2
#     Edge 26, Type (0, 1), BuildingBlock: ZUJKAS_clean_linker_0, # of connection points: 2
#     Edge 27, Type (0, 1), BuildingBlock: ZUJKAS_clean_linker_0, # of connection points: 2
#     Edge 28, Type (0, 1), BuildingBlock: ZUJKAS_clean_linker_0, # of connection points: 2
#     Edge 29, Type (0, 1), BuildingBlock: ZUJKAS_clean_linker_0, # of connection points: 2
#     Edge 30, Type (0, 1), BuildingBlock: ZUJKAS_clean_linker_0, # of connection points: 2
#     Edge 31, Type (0, 1), BuildingBlock: ZUJKAS_clean_linker_0, # of connection points: 2
#     Edge 32, Type (0, 1), BuildingBlock: ZUJKAS_clean_linker_0, # of connection points: 2
#     Edge 33, Type (0, 1), BuildingBlock: ZUJKAS_clean_linker_0, # of connection points: 2
#     Edge 34, Type (0, 1), BuildingBlock: ZUJKAS_clean_linker_0, # of connection points: 2
#     Edge 35, Type (0, 1), BuildingBlock: ZUJKAS_clean_linker_0, # of connection points: 2
# Relax obj value: 0.104
# Max RMSD: 0.159
# Mean RMSD: 0.105
data_MOF--net-ant--node1-MIDCAF_clean_sbu_0--node2-MIDCAF_clean_linker_0--edge1-ZUJKAS_clean_linker_0
_symmetry_space_group_name_H-M    P1
_symmetry_Int_Tables_number       1
_symmetry_cell_setting            triclinic
loop_
_symmetry_equiv_pos_as_xyz
'x, y, z'
_cell_length_a     43.182804
_cell_length_b     42.565082
_cell_length_c     117.21745
_cell_angle_alpha  90.212703
_cell_angle_beta   94.352526
_cell_angle_gamma 90.018215
loop_
_atom_site_label
_atom_site_type_symbol
_atom_site_fract_x
_atom_site_fract_y
_atom_site_fract_z
_atom_type_partial_charge
C0 C 0.15589 0.34136 0.0595 0.0
C1 C 0.16778 0.3505 0.0705 0.0
C2 C 0.18009 0.32714 0.07803 0.0
C3 C 0.18091 0.29555 0.07456 0.0
H4 H 0.18946 0.19497 0.08586 0.0
H5 H 0.20613 0.14876 0.09722 0.0
H6 H 0.22547 0.09967 0.06625 0.0
H7 H 0.20933 0.14528 0.05505 0.0
H8 H 0.16957 0.16146 0.03262 0.0
H9 H 0.15327 0.14974 0.01275 0.0
H10 H 0.11422 0.24287 0.00879 0.0
H11 H 0.13129 0.25497 0.02858 0.0
H12 H 0.1473 0.30413 0.04746 0.0
H13 H 0.14569 0.35851 0.05354 0.0
H14 H 0.18964 0.33336 0.08655 0.0
H15 H 0.1909 0.27829 0.08053 0.0
N16 N 0.18288 0.22995 0.06639 0.0
N17 N 0.1749 0.1938 0.05125 0.0
N18 N 0.16088 0.24634 0.04842 0.0
C19 C 0.18497 0.20002 0.06228 0.0
C20 C 0.16272 0.21666 0.04427 0.0
C21 C 0.17093 0.25335 0.05942 0.0
C22 C 0.19782 0.1738 0.06953 0.0
C23 C 0.19773 0.17444 0.08153 0.0
C24 C 0.2071 0.14792 0.08802 0.0
C25 C 0.21719 0.12048 0.08265 0.0
C26 C 0.21829 0.12045 0.07071 0.0
C27 C 0.20869 0.14663 0.06426 0.0
C28 C 0.15193 0.20926 0.03223 0.0
C29 C 0.15745 0.17948 0.02754 0.0
C30 C 0.14789 0.17264 0.01614 0.0
C31 C 0.13245 0.19535 0.00913 0.0
C32 C 0.1265 0.22497 0.01387 0.0
C33 C 0.13619 0.23187 0.02526 0.0
C34 C 0.16935 0.28655 0.06348 0.0
C35 C 0.15665 0.30994 0.05605 0.0
C36 C 0.18807 0.8147 0.31981 0.0
C37 C 0.19322 0.80151 0.33075 0.0
C38 C 0.16801 0.78756 0.33578 0.0
C39 C 0.13845 0.78649 0.3299 0.0
H40 H 0.03374 0.79581 0.3327 0.0
H41 H 0.98286 0.78737 0.34024 0.0
H42 H 0.94657 0.75353 0.30711 0.0
H43 H -0.00325 0.76161 0.29966 0.0
H44 H 0.02626 0.81077 0.27888 0.0
H45 H 0.02452 0.81211 0.25809 0.0
H46 H 0.12089 0.78358 0.25953 0.0
H47 H 0.12294 0.78406 0.28029 0.0
H48 H 0.15599 0.8233 0.30541 0.0
H49 H 0.20698 0.82527 0.31561 0.0
H50 H 0.17121 0.77734 0.34423 0.0
H51 H 0.11964 0.77518 0.33392 0.0
N52 N 0.07643 0.78969 0.31703 0.0
N53 N 0.04893 0.78943 0.29894 0.0
N54 N 0.10247 0.79829 0.3004 0.0
C55 C 0.04908 0.78649 0.31048 0.0
C56 C 0.0754 0.79529 0.29384 0.0
C57 C 0.1033 0.79572 0.31198 0.0
C58 C 0.01934 0.77959 0.31556 0.0
C59 C 0.01495 0.78626 0.32709 0.0
C60 C 0.98579 0.78161 0.33138 0.0
C61 C 0.96068 0.76974 0.32427 0.0
C62 C 0.96544 0.76233 0.31286 0.0
C63 C -0.00573 0.76726 0.30857 0.0
C64 C 0.07474 0.79728 0.28122 0.0
C65 C 0.04712 0.80503 0.27473 0.0
C66 C 0.04609 0.80558 0.26278 0.0
C67 C 0.0725 0.79781 0.25702 0.0
C68 C 0.1002 0.79035 0.26359 0.0
C69 C 0.10138 0.7904 0.27553 0.0
C70 C 0.13363 0.79889 0.3188 0.0
C71 C 0.15877 0.81331 0.31391 0.0
C72 C 0.65514 0.83949 0.56109 0.0
C73 C 0.66721 0.84848 0.57208 0.0
C74 C 0.68053 0.82524 0.57943 0.0
C75 C 0.6819 0.79382 0.57583 0.0
H76 H 0.69203 0.6956 0.58707 0.0
H77 H 0.70725 0.6498 0.59885 0.0
H78 H 0.72058 0.5963 0.56822 0.0
H79 H 0.70611 0.64151 0.55662 0.0
H80 H 0.67194 0.66022 0.53365 0.0
H81 H 0.65796 0.64929 0.51352 0.0
H82 H 0.62495 0.74454 0.50892 0.0
H83 H 0.63954 0.75578 0.52897 0.0
H84 H 0.64722 0.80254 0.54889 0.0
H85 H 0.64513 0.85676 0.55513 0.0
H86 H 0.68978 0.8313 0.58801 0.0
H87 H 0.69247 0.7766 0.58168 0.0
N88 N 0.68345 0.72844 0.56761 0.0
N89 N 0.67738 0.69276 0.55226 0.0
N90 N 0.66391 0.74542 0.54941 0.0
C91 C 0.686 0.69864 0.56346 0.0
C92 C 0.66626 0.71589 0.54518 0.0
C93 C 0.67245 0.75205 0.56056 0.0
C94 C 0.69759 0.67225 0.57088 0.0
C95 C 0.69865 0.67416 0.58289 0.0
C96 C 0.70722 0.64788 0.58964 0.0
C97 C 0.71526 0.61935 0.5845 0.0
C98 C 0.7151 0.61794 0.57252 0.0
C99 C 0.70641 0.64393 0.56583 0.0
C100 C 0.65703 0.70897 0.53297 0.0
C101 C 0.66166 0.67888 0.52837 0.0
C102 C 0.65346 0.67251 0.51682 0.0
C103 C 0.6404 0.69604 0.50958 0.0
C104 C 0.63542 0.726 0.51421 0.0
C105 C 0.64367 0.7324 0.52574 0.0
C106 C 0.67013 0.78498 0.56476 0.0
C107 C 0.65658 0.80826 0.55748 0.0
C108 C 0.69416 0.28153 0.81989 0.0
C109 C 0.69779 0.29152 0.83134 0.0
C110 C 0.67115 0.2998 0.83689 0.0
C111 C 0.64152 0.29795 0.83107 0.0
H112 H 0.54158 0.27545 0.83468 0.0
H113 H 0.49114 0.27319 0.84301 0.0
H114 H 0.44504 0.29553 0.81006 0.0
H115 H 0.49467 0.29819 0.80185 0.0
H116 H 0.52679 0.27785 0.78006 0.0
H117 H 0.52464 0.27518 0.75925 0.0
H118 H 0.62423 0.2863 0.76044 0.0
H119 H 0.62652 0.28931 0.78124 0.0
H120 H 0.66317 0.27236 0.80523 0.0
H121 H 0.71419 0.27537 0.81532 0.0
H122 H 0.67321 0.30746 0.84573 0.0
H123 H 0.62145 0.30456 0.83554 0.0
N124 N 0.58018 0.28774 0.81837 0.0
N125 N 0.55162 0.28567 0.80051 0.0
N126 N 0.6058 0.28612 0.80137 0.0
C127 C 0.55223 0.28689 0.8121 0.0
C128 C 0.57817 0.28528 0.79506 0.0
C129 C 0.60715 0.28737 0.813 0.0
C130 C 0.52229 0.28694 0.81759 0.0
C131 C 0.52066 0.28015 0.82927 0.0
C132 C 0.49178 0.27865 0.83401 0.0
C133 C 0.46407 0.2843 0.8272 0.0
C134 C 0.46589 0.29151 0.8156 0.0
C135 C 0.4945 0.29279 0.81087 0.0
C136 C 0.57686 0.2838 0.78237 0.0
C137 C 0.54828 0.27982 0.77591 0.0
C138 C 0.547 0.27813 0.76397 0.0
C139 C 0.57423 0.2806 0.7582 0.0
C140 C 0.60278 0.28475 0.76463 0.0
C141 C 0.6041 0.28625 0.77658 0.0
C142 C 0.63805 0.28826 0.81955 0.0
C143 C 0.6648 0.28002 0.81407 0.0
C144 C 0.0563 0.61615 0.90808 0.0
C145 C 0.0407 0.61886 0.89718 0.0
C146 C 0.03048 0.64872 0.8934 0.0
C147 C 0.03585 0.6753 0.90043 0.0
H148 H 0.06241 0.7768 0.90152 0.0
H149 H 0.06512 0.83185 0.89571 0.0
H150 H 0.05797 0.86114 0.93071 0.0
H151 H 0.05502 0.80658 0.93652 0.0
H152 H 0.07262 0.75897 0.95638 0.0
H153 H 0.08358 0.74713 0.97659 0.0
H154 H 0.08321 0.64788 0.96876 0.0
H155 H 0.07161 0.65954 0.9486 0.0
H156 H 0.07327 0.63908 0.92347 0.0
H157 H 0.06406 0.59348 0.91134 0.0
H158 H 0.01843 0.65151 0.88502 0.0
H159 H 0.02753 0.69798 0.89737 0.0
N160 N 0.05429 0.72967 0.91569 0.0
N161 N 0.06382 0.74737 0.93467 0.0
N162 N 0.06072 0.69358 0.93078 0.0
C163 C 0.05858 0.75386 0.92333 0.0
C164 C 0.06493 0.71731 0.93847 0.0
C165 C 0.05533 0.69936 0.91942 0.0
C166 C 0.05857 0.78714 0.9195 0.0
C167 C 0.06117 0.79498 0.90796 0.0
C168 C 0.06296 0.82652 0.90464 0.0
C169 C 0.06182 0.85088 0.91275 0.0
C170 C 0.05862 0.843 0.92423 0.0
C171 C 0.05712 0.8116 0.92756 0.0
C172 C 0.07125 0.71026 0.95082 0.0
C173 C 0.07481 0.73461 0.95895 0.0
C174 C 0.08128 0.72782 0.97054 0.0
C175 C 0.0844 0.69654 0.97429 0.0
C176 C 0.08061 0.6722 0.96618 0.0
C177 C 0.07411 0.67896 0.95459 0.0
C178 C 0.05105 0.6723 0.91142 0.0
C179 C 0.06136 0.6424 0.91509 0.0
C180 C 0.55055 0.81661 0.16566 0.0
C181 C 0.5456 0.80659 0.15423 0.0
C182 C 0.57105 0.79478 0.14871 0.0
C183 C 0.60052 0.79235 0.15459 0.0
H184 H 0.70274 0.78986 0.15171 0.0
H185 H 0.75277 0.77979 0.14379 0.0
H186 H 0.79104 0.74947 0.17704 0.0
H187 H 0.7416 0.75891 0.18485 0.0
H188 H 0.71115 0.77641 0.2065 0.0
H189 H 0.71177 0.77633 0.22726 0.0
H190 H 0.61808 0.81259 0.2251 0.0
H191 H 0.61707 0.81192 0.20431 0.0
H192 H 0.58233 0.82146 0.18039 0.0
H193 H 0.53151 0.8254 0.17026 0.0
H194 H 0.56811 0.7871 0.13988 0.0
H195 H 0.61944 0.78257 0.15016 0.0
N196 N 0.66168 0.78887 0.16774 0.0
N197 N 0.68909 0.78521 0.18578 0.0
N198 N 0.63642 0.79823 0.18451 0.0
C199 C 0.68876 0.78331 0.1742 0.0
C200 C 0.66317 0.79268 0.19101 0.0
C201 C 0.63532 0.79636 0.17289 0.0
C202 C 0.71808 0.77541 0.16894 0.0
C203 C 0.72176 0.78072 0.15728 0.0
C204 C 0.75047 0.77513 0.15276 0.0
C205 C 0.77595 0.7638 0.15978 0.0
C206 C 0.77189 0.75777 0.17134 0.0
C207 C 0.74345 0.76351 0.17585 0.0
C208 C 0.66398 0.794 0.20369 0.0
C209 C 0.69068 0.7845 0.21043 0.0
C210 C 0.69113 0.78464 0.22236 0.0
C211 C 0.66496 0.79439 0.22787 0.0
C212 C 0.63848 0.80445 0.22114 0.0
C213 C 0.63796 0.8042 0.2092 0.0
C214 C 0.60511 0.80141 0.16615 0.0
C215 C 0.5798 0.81404 0.17152 0.0
C216 C 0.56494 0.1083 0.41269 0.0
C217 C 0.54651 0.11081 0.40234 0.0
C218 C 0.53875 0.141 0.39814 0.0
C219 C 0.54837 0.16798 0.40441 0.0
H220 H 0.56743 0.2691 0.40325 0.0
H221 H 0.56567 0.32363 0.39669 0.0
H222 H 0.58958 0.3554 0.43127 0.0
H223 H 0.59091 0.30149 0.43784 0.0
H224 H 0.61783 0.25407 0.45658 0.0
H225 H 0.6336 0.24399 0.47662 0.0
H226 H 0.60515 0.14708 0.47222 0.0
H227 H 0.59035 0.15683 0.45215 0.0
H228 H 0.58834 0.13174 0.4269 0.0
H229 H 0.57219 0.08555 0.41602 0.0
H230 H 0.52462 0.14374 0.39017 0.0
H231 H 0.54146 0.19088 0.40112 0.0
N232 N 0.57278 0.2229 0.41823 0.0
N233 N 0.59078 0.24206 0.43639 0.0
N234 N 0.58446 0.1881 0.43344 0.0
C235 C 0.58094 0.24767 0.42528 0.0
C236 C 0.59257 0.21236 0.44054 0.0
C237 C 0.57464 0.19292 0.42231 0.0
C238 C 0.57931 0.28069 0.42109 0.0
C239 C 0.57219 0.28771 0.40946 0.0
C240 C 0.57135 0.31898 0.40569 0.0
C241 C 0.5774 0.34395 0.41346 0.0
C242 C 0.58434 0.33687 0.42507 0.0
C243 C 0.58531 0.30576 0.42882 0.0
C244 C 0.60272 0.20632 0.45272 0.0
C245 C 0.61503 0.23058 0.45987 0.0
C246 C 0.62396 0.22482 0.47139 0.0
C247 C 0.62059 0.19471 0.47608 0.0
C248 C 0.60856 0.17042 0.46889 0.0
C249 C 0.59984 0.17611 0.45737 0.0
C250 C 0.5659 0.1652 0.41499 0.0
C251 C 0.5744 0.13499 0.41891 0.0
C252 C 0.04745 0.30662 0.6653 0.0
C253 C 0.04462 0.30725 0.65329 0.0
C254 C 0.07177 0.30426 0.64741 0.0
C255 C 0.10103 0.30109 0.65345 0.0
H256 H 0.20197 0.27911 0.65149 0.0
H257 H 0.25349 0.27417 0.64407 0.0
H258 H 0.29644 0.29823 0.67743 0.0
H259 H 0.24586 0.30354 0.68472 0.0
H260 H 0.21176 0.28682 0.70608 0.0
H261 H 0.21175 0.2828 0.72679 0.0
H262 H 0.11177 0.2909 0.72424 0.0
H263 H 0.11166 0.29547 0.70355 0.0
H264 H 0.07716 0.30301 0.68054 0.0
H265 H 0.02711 0.30807 0.67015 0.0
H266 H 0.07043 0.30469 0.63815 0.0
H267 H 0.12146 0.29897 0.64869 0.0
N268 N 0.16165 0.29564 0.66717 0.0
N269 N 0.18861 0.29185 0.68531 0.0
N270 N 0.13463 0.2959 0.68386 0.0
C271 C 0.18906 0.29307 0.67375 0.0
C272 C 0.16162 0.29318 0.69045 0.0
C273 C 0.1342 0.29721 0.67225 0.0
C274 C 0.21965 0.29163 0.66871 0.0
C275 C 0.22245 0.28363 0.65718 0.0
C276 C 0.25194 0.28058 0.65296 0.0
C277 C 0.27911 0.2859 0.66015 0.0
C278 C 0.2761 0.29439 0.67159 0.0
C279 C 0.24691 0.29718 0.6758 0.0
C280 C 0.16169 0.2914 0.70309 0.0
C281 C 0.18973 0.28788 0.70991 0.0
C282 C 0.18976 0.28542 0.72179 0.0
C283 C 0.16178 0.28649 0.72716 0.0
C284 C 0.13378 0.2904 0.72038 0.0
C285 C 0.13372 0.2928 0.70849 0.0
C286 C 0.10368 0.3006 0.6655 0.0
C287 C 0.0764 0.3034 0.67129 0.0
Zn288 Zn 0.18192 0.70465 0.13073 0.0
Zn289 Zn 0.12295 0.77753 0.10482 0.0
Zn290 Zn 0.15398 0.74145 0.11747 0.0
C291 C 0.14019 0.72932 0.09097 0.0
C292 C 0.17175 0.81342 0.11355 0.0
O293 O 0.1294 0.74076 0.13348 0.0
O294 O 0.16473 0.71771 0.14517 0.0
C295 C 0.16009 0.66657 0.11335 0.0
O296 O 0.14591 0.71681 0.10089 0.0
O297 O 0.13305 0.75801 0.09015 0.0
O298 O 0.14399 0.81696 0.10962 0.0
O299 O 0.18213 0.78558 0.11595 0.0
O300 O 0.1676 0.66422 0.12392 0.0
O301 O 0.15677 0.69409 0.1088 0.0
O302 O 0.20124 0.76205 0.12092 0.0
O303 O 0.22435 0.71909 0.12774 0.0
C304 C 0.22622 0.74692 0.12417 0.0
O305 O 0.10807 0.74985 0.12476 0.0
O306 O 0.081 0.77124 0.11006 0.0
C307 C 0.13938 0.73241 0.14367 0.0
C308 C 0.08194 0.75978 0.11999 0.0
Zn309 Zn 0.55834 0.69514 0.35135 0.0
Zn310 Zn 0.61706 0.77085 0.38053 0.0
Zn311 Zn 0.58403 0.73383 0.36615 0.0
C312 C 0.56032 0.80141 0.37428 0.0
C313 C 0.65375 0.7626 0.36264 0.0
O314 O 0.5813 0.6861 0.3742 0.0
O315 O 0.57112 0.65554 0.35908 0.0
C316 C 0.51252 0.73823 0.35771 0.0
O317 O 0.55484 0.77618 0.36833 0.0
O318 O 0.58545 0.80456 0.38042 0.0
O319 O 0.65435 0.7773 0.37202 0.0
O320 O 0.62952 0.74632 0.35918 0.0
O321 O 0.51566 0.71149 0.35321 0.0
O322 O 0.53654 0.75292 0.36225 0.0
O323 O 0.60938 0.73428 0.35037 0.0
O324 O 0.57982 0.70702 0.33768 0.0
C325 C 0.60322 0.72426 0.34004 0.0
O326 O 0.59258 0.70811 0.38257 0.0
O327 O 0.62071 0.74155 0.39356 0.0
C328 C 0.57813 0.65845 0.36967 0.0
C329 C 0.60726 0.71534 0.39222 0.0
Zn330 Zn 0.6227 0.27216 0.60396 0.0
Zn331 Zn 0.68799 0.20161 0.6335 0.0
Zn332 Zn 0.65654 0.23803 0.61861 0.0
C333 C 0.72608 0.25357 0.62962 0.0
C334 C 0.67628 0.16492 0.61407 0.0
O335 O 0.61075 0.24911 0.62568 0.0
O336 O 0.58621 0.27968 0.61274 0.0
C337 C 0.67803 0.30524 0.60917 0.0
O338 O 0.70248 0.26124 0.62278 0.0
O339 O 0.7253 0.22882 0.63551 0.0
O340 O 0.69009 0.16338 0.62393 0.0
O341 O 0.66282 0.19068 0.61067 0.0
O342 O 0.65315 0.30643 0.6028 0.0
O343 O 0.68364 0.28156 0.61584 0.0
O344 O 0.64924 0.21118 0.60231 0.0
O345 O 0.61825 0.24161 0.59127 0.0
C346 C 0.63362 0.21655 0.59269 0.0
O347 O 0.63069 0.23484 0.63424 0.0
O348 O 0.65852 0.20247 0.64562 0.0
C349 C 0.58665 0.2654 0.62216 0.0
C350 C 0.63521 0.22013 0.64383 0.0
Zn351 Zn 0.05346 0.20395 0.8525 0.0
Zn352 Zn 0.11795 0.27418 0.8822 0.0
Zn353 Zn 0.08529 0.23989 0.86731 0.0
C354 C 0.10787 0.21832 0.89322 0.0
C355 C 0.06368 0.3078 0.87658 0.0
O356 O 0.11133 0.23654 0.85169 0.0
O357 O 0.08303 0.20396 0.84045 0.0
C358 C 0.06427 0.16722 0.87176 0.0
O359 O 0.09273 0.21273 0.88351 0.0
O360 O 0.12228 0.2439 0.89488 0.0
O361 O 0.08809 0.30896 0.88322 0.0
O362 O 0.05839 0.28378 0.86998 0.0
O363 O 0.05023 0.16593 0.86193 0.0
O364 O 0.07848 0.19266 0.87517 0.0
O365 O 0.03938 0.26312 0.86316 0.0
O366 O 0.01637 0.23112 0.85024 0.0
C367 C 0.01576 0.25574 0.85626 0.0
O368 O 0.13112 0.25093 0.86035 0.0
O369 O 0.15473 0.28143 0.87361 0.0
C370 C 0.10652 0.22149 0.84215 0.0
C371 C 0.15493 0.26735 0.86413 0.0
H372 H 0.15409 0.37554 0.09118 0.0
H373 H 0.15206 0.43108 0.09659 0.0
H374 H 0.17833 0.45755 0.0632 0.0
H375 H 0.18054 0.40217 0.05773 0.0
H376 H 0.1985 0.47594 0.09742 0.0
H377 H 0.10141 0.51148 0.06635 0.0
H378 H 0.11045 0.47086 0.06946 0.0
H379 H 0.13338 0.4928 0.06009 0.0
C380 C 0.15962 0.39314 0.085 0.0
C381 C 0.16727 0.38429 0.07398 0.0
C382 C 0.15827 0.42492 0.08809 0.0
C383 C 0.16443 0.44858 0.08023 0.0
C384 C 0.17263 0.43982 0.06931 0.0
H385 H 0.17643 0.65402 0.09149 0.0
H386 H 0.17693 0.60204 0.08213 0.0
C387 C 0.17394 0.40808 0.0662 0.0
C388 C 0.16324 0.48229 0.08364 0.0
H389 H 0.12621 0.55206 0.07753 0.0
C390 C 0.18271 0.49253 0.09305 0.0
C391 C 0.1428 0.5041 0.07788 0.0
C392 C 0.12061 0.49431 0.06794 0.0
C393 C 0.18214 0.52378 0.09692 0.0
C394 C 0.16124 0.54538 0.09134 0.0
C395 C 0.14227 0.53546 0.08176 0.0
C396 C 0.15728 0.5775 0.09602 0.0
C397 C 0.20381 0.53345 0.10703 0.0
C398 C 0.14494 0.58104 0.10667 0.0
C399 C 0.14441 0.61046 0.11192 0.0
C400 C 0.15595 0.63715 0.10662 0.0
C401 C 0.16682 0.63398 0.09566 0.0
C402 C 0.16737 0.6043 0.09037 0.0
H403 H 0.22343 0.51672 0.10853 0.0
H404 H 0.21335 0.55732 0.10577 0.0
H405 H 0.19076 0.53401 0.11483 0.0
H406 H 0.13668 0.56077 0.11111 0.0
H407 H 0.13582 0.61218 0.12035 0.0
H408 H 0.92943 0.81116 0.33717 0.0
H409 H 0.87565 0.80731 0.34241 0.0
H410 H 0.86643 0.71716 0.32561 0.0
H411 H 0.92025 0.72057 0.32052 0.0
H412 H 0.82173 0.80026 0.32636 0.0
H413 H 0.83386 0.70177 0.35744 0.0
H414 H 0.86674 0.72425 0.3534 0.0
H415 H 0.84947 0.69494 0.34386 0.0
C416 C 0.91615 0.79024 0.3348 0.0
C417 C 0.92914 0.76616 0.32844 0.0
C418 C 0.88536 0.7882 0.33771 0.0
C419 C 0.86709 0.76189 0.33444 0.0
C420 C 0.88018 0.73752 0.32832 0.0
H421 H 0.67479 0.7172 0.34843 0.0
H422 H 0.7248 0.71641 0.33971 0.0
C423 C 0.91089 0.73961 0.32536 0.0
C424 C 0.83402 0.7605 0.33708 0.0
H425 H 0.78317 0.72072 0.35269 0.0
C426 C 0.81328 0.78285 0.33211 0.0
C427 C 0.82297 0.73751 0.34445 0.0
C428 C 0.84437 0.71334 0.35018 0.0
C429 C 0.78181 0.78302 0.33442 0.0
C430 C 0.77097 0.76065 0.34207 0.0
C431 C 0.79152 0.73779 0.3468 0.0
C432 C 0.73923 0.76231 0.3461 0.0
C433 C 0.76037 0.80708 0.32863 0.0
C434 C 0.73066 0.78847 0.35245 0.0
C435 C 0.70225 0.78897 0.35739 0.0
C436 C 0.68174 0.76333 0.35608 0.0
C437 C 0.6899 0.73749 0.34943 0.0
C438 C 0.71851 0.73693 0.34452 0.0
H439 H 0.76963 0.81612 0.32069 0.0
H440 H 0.7369 0.79703 0.32647 0.0
H441 H 0.75799 0.82726 0.33452 0.0
H442 H 0.74647 0.80806 0.35396 0.0
H443 H 0.69669 0.80917 0.3625 0.0
H444 H 0.75953 0.5744 0.58165 0.0
H445 H 0.76218 0.52179 0.58993 0.0
H446 H 0.68875 0.54572 0.61134 0.0
H447 H 0.68501 0.59803 0.60275 0.0
H448 H 0.76949 0.49351 0.61189 0.0
H449 H 0.65114 0.47579 0.59057 0.0
H450 H 0.67448 0.50963 0.58781 0.0
H451 H 0.65465 0.50749 0.60073 0.0
C452 C 0.74413 0.56862 0.58821 0.0
C453 C 0.72155 0.59023 0.59133 0.0
C454 C 0.74591 0.5386 0.59302 0.0
C455 C 0.72525 0.52961 0.60108 0.0
C456 C 0.70459 0.55202 0.60498 0.0
H457 H 0.70328 0.33834 0.62767 0.0
H458 H 0.72081 0.39333 0.62717 0.0
C459 C 0.70265 0.58204 0.60012 0.0
C460 C 0.72267 0.49591 0.60416 0.0
H461 H 0.67412 0.43285 0.6003 0.0
C462 C 0.74856 0.48024 0.60948 0.0
C463 C 0.69548 0.47855 0.60085 0.0
C464 C 0.66741 0.49355 0.59459 0.0
C465 C 0.748 0.44758 0.61143 0.0
C466 C 0.72091 0.43036 0.60798 0.0
C467 C 0.69489 0.44618 0.60293 0.0
C468 C 0.71906 0.39561 0.60869 0.0
C469 C 0.77656 0.43143 0.61675 0.0
C470 C 0.71367 0.37833 0.59852 0.0
C471 C 0.70343 0.34731 0.5988 0.0
C472 C 0.69867 0.33284 0.60926 0.0
C473 C 0.70716 0.34893 0.61951 0.0
C474 C 0.71709 0.38034 0.61923 0.0
H475 H 0.79689 0.44748 0.61773 0.0
H476 H 0.7718 0.42252 0.62533 0.0
H477 H 0.78252 0.41091 0.61146 0.0
H478 H 0.71507 0.38964 0.5903 0.0
H479 H 0.69695 0.33539 0.59078 0.0
H480 H 0.72319 0.33934 0.84485 0.0
H481 H 0.77727 0.34422 0.85288 0.0
H482 H 0.79798 0.25333 0.83901 0.0
H483 H 0.74419 0.24811 0.83116 0.0
H484 H 0.82383 0.26413 0.86195 0.0
H485 H 0.84973 0.36078 0.83217 0.0
H486 H 0.81737 0.36589 0.84081 0.0
H487 H 0.81564 0.33636 0.82982 0.0
C488 C 0.7392 0.32022 0.84368 0.0
C489 C 0.7295 0.29347 0.83727 0.0
C490 C 0.77012 0.32315 0.84819 0.0
C491 C 0.79175 0.29932 0.8464 0.0
C492 C 0.78174 0.27208 0.84044 0.0
H493 H 0.97601 0.26457 0.83762 0.0
H494 H 0.92252 0.28302 0.83718 0.0
C495 C 0.75102 0.2692 0.8359 0.0
C496 C 0.8252 0.30278 0.85023 0.0
H497 H 0.89177 0.33909 0.84327 0.0
C498 C 0.83867 0.28097 0.85807 0.0
C499 C 0.84447 0.32468 0.84511 0.0
C500 C 0.83129 0.34822 0.83646 0.0
C501 C 0.87103 0.27936 0.86047 0.0
C502 C 0.89044 0.30036 0.85495 0.0
C503 C 0.87684 0.32325 0.84757 0.0
C504 C 0.92452 0.29518 0.85515 0.0
C505 C 0.88432 0.25378 0.86827 0.0
C506 C 0.944 0.29729 0.86531 0.0
C507 C 0.97489 0.2868 0.86557 0.0
C508 C 0.98654 0.27402 0.85568 0.0
C509 C 0.96762 0.27417 0.84538 0.0
C510 C 0.93703 0.28477 0.84511 0.0
H511 H 0.86623 0.23714 0.87077 0.0
H512 H 0.90228 0.24032 0.86403 0.0
H513 H 0.89559 0.26451 0.87617 0.0
H514 H 0.93492 0.30564 0.87313 0.0
H515 H 0.98891 0.28676 0.87363 0.0
H516 H 0.98653 0.60072 0.88505 0.0
H517 H 0.97519 0.54925 0.8761 0.0
H518 H 0.06965 0.52028 0.88499 0.0
H519 H 0.08129 0.57164 0.89349 0.0
H520 H 0.04808 0.49867 0.86389 0.0
H521 H 0.96318 0.47313 0.89615 0.0
H522 H 0.95553 0.50658 0.88707 0.0
H523 H 0.98847 0.50687 0.89739 0.0
C524 C 0.00501 0.58358 0.88484 0.0
C525 C 0.03469 0.59004 0.89014 0.0
C526 C -0.00158 0.55407 0.87984 0.0
C527 C 0.02137 0.53061 0.88011 0.0
C528 C 0.05147 0.53786 0.88474 0.0
H529 H 0.05363 0.34774 0.89386 0.0
H530 H 0.03315 0.40085 0.8922 0.0
C531 C 0.05806 0.5672 0.88967 0.0
C532 C 0.01432 0.49772 0.87645 0.0
H533 H 0.97932 0.43102 0.88529 0.0
C534 C 0.03249 0.48392 0.86835 0.0
C535 C -0.00609 0.47856 0.88229 0.0
C536 C 0.97423 0.49183 0.89126 0.0
C537 C 0.03285 0.45123 0.86664 0.0
C538 C 0.0139 0.43183 0.87302 0.0
C539 C -0.00628 0.44593 0.88038 0.0
C540 C 0.01963 0.39746 0.87407 0.0
C541 C 0.05557 0.43762 0.85878 0.0
C542 C 0.0173 0.3771 0.86456 0.0
C543 C 0.02926 0.34646 0.86549 0.0
C544 C 0.04347 0.33587 0.87597 0.0
C545 C 0.04303 0.35534 0.88565 0.0
C546 C 0.03123 0.38574 0.88472 0.0
H547 H 0.07129 0.45575 0.85562 0.0
H548 H 0.06999 0.41918 0.86326 0.0
H549 H 0.04261 0.42664 0.85126 0.0
H550 H 0.00782 0.38542 0.8563 0.0
H551 H 0.02941 0.33199 0.85788 0.0
H552 H 0.80566 0.80268 0.14555 0.0
H553 H 0.85882 0.79809 0.1398 0.0
H554 H 0.87059 0.7117 0.15871 0.0
H555 H 0.81723 0.71562 0.16422 0.0
H556 H 0.91274 0.79652 0.15479 0.0
H557 H 0.90297 0.68873 0.12784 0.0
H558 H 0.86943 0.71056 0.13166 0.0
H559 H 0.88936 0.68481 0.14187 0.0
C560 C 0.8193 0.78233 0.14827 0.0
C561 C 0.80714 0.75953 0.15535 0.0
C562 C 0.84978 0.77988 0.14506 0.0
C563 C 0.86864 0.75445 0.14876 0.0
C564 C 0.85637 0.73129 0.15562 0.0
H565 H 0.06479 0.71769 0.1362 0.0
H566 H 0.01443 0.71516 0.14475 0.0
C567 C 0.82593 0.73374 0.15885 0.0
C568 C 0.90159 0.7531 0.14592 0.0
H569 H 0.95323 0.71032 0.13151 0.0
C570 C 0.92159 0.77763 0.14972 0.0
C571 C 0.91323 0.72824 0.13942 0.0
C572 C 0.89264 0.70168 0.13487 0.0
C573 C 0.95274 0.77822 0.14706 0.0
C574 C 0.96412 0.75389 0.14028 0.0
C575 C 0.94445 0.72886 0.13676 0.0
C576 C -0.00478 0.75585 0.13575 0.0
C577 C 0.97327 0.80502 0.15144 0.0
C578 C 0.00097 0.77945 0.12788 0.0
C579 C 0.0294 0.78086 0.12301 0.0
C580 C 0.05284 0.75876 0.12591 0.0
C581 C 0.04728 0.73524 0.13391 0.0
C582 C 0.01854 0.7337 0.13874 0.0
H583 H 0.96392 0.81685 0.15891 0.0
H584 H -0.00281 0.79667 0.15393 0.0
H585 H 0.97464 0.82269 0.14455 0.0
H586 H 0.98317 0.7965 0.12533 0.0
H587 H 0.03294 0.79923 0.11687 0.0
H588 H 0.60068 0.36832 0.39422 0.0
H589 H 0.60166 0.4234 0.3883 0.0
H590 H 0.55419 0.45011 0.4179 0.0
H591 H 0.55309 0.39517 0.42388 0.0
H592 H 0.55317 0.46414 0.38314 0.0
H593 H 0.62806 0.50984 0.42012 0.0
H594 H 0.62385 0.46839 0.41708 0.0
H595 H 0.59411 0.4892 0.42394 0.0
C596 C 0.59026 0.38587 0.39943 0.0
C597 C 0.57698 0.37729 0.40957 0.0
C598 C 0.59101 0.41739 0.39608 0.0
C599 C 0.57859 0.44102 0.40278 0.0
C600 C 0.56472 0.43247 0.41276 0.0
H601 H 0.55347 0.64295 0.38978 0.0
H602 H 0.55466 0.59099 0.39896 0.0
C603 C 0.56403 0.40099 0.41614 0.0
C604 C 0.57929 0.47442 0.39909 0.0
H605 H 0.60619 0.54759 0.40701 0.0
C606 C 0.56482 0.48233 0.38836 0.0
C607 C 0.59432 0.49826 0.40594 0.0
C608 C 0.61121 0.49106 0.41737 0.0
C609 C 0.56495 0.51331 0.38429 0.0
C610 C 0.58038 0.53703 0.39105 0.0
C611 C 0.5944 0.52935 0.40187 0.0
C612 C 0.5832 0.56953 0.38668 0.0
C613 C 0.5484 0.52046 0.37279 0.0
C614 C 0.59985 0.57496 0.37707 0.0
C615 C 0.5995 0.60455 0.37197 0.0
C616 C 0.58283 0.62946 0.37646 0.0
C617 C 0.56742 0.62451 0.38643 0.0
C618 C 0.56774 0.59473 0.39155 0.0
H619 H 0.53137 0.50185 0.37004 0.0
H620 H 0.53605 0.54332 0.37298 0.0
H621 H 0.5657 0.52198 0.36628 0.0
H622 H 0.61224 0.55596 0.37325 0.0
H623 H 0.61145 0.60773 0.36425 0.0
H624 H 0.02104 0.27558 0.63404 0.0
H625 H 0.96719 0.27518 0.62577 0.0
H626 H 0.9428 0.34333 0.65089 0.0
H627 H -0.00344 0.34496 0.65879 0.0
H628 H 0.92 0.25512 0.63639 0.0
H629 H 0.89347 0.3772 0.62354 0.0
H630 H 0.93279 0.36363 0.62672 0.0
H631 H 0.90958 0.37608 0.63807 0.0
C632 C 0.00442 0.29123 0.63756 0.0
C633 C 0.01315 0.31008 0.64715 0.0
C634 C 0.97355 0.29086 0.63286 0.0
C635 C 0.9508 0.30947 0.6376 0.0
C636 C 0.95984 0.32929 0.64686 0.0
H637 H 0.76635 0.26126 0.64822 0.0
H638 H 0.82024 0.2786 0.6486 0.0
C639 C 0.99062 0.3298 0.65151 0.0
C640 C 0.91719 0.30523 0.63396 0.0
H641 H 0.84908 0.34518 0.62795 0.0
C642 C 0.9047 0.27482 0.63431 0.0
C643 C 0.89697 0.33076 0.63111 0.0
C644 C 0.909 0.36368 0.62971 0.0
C645 C 0.87262 0.26949 0.63258 0.0
C646 C 0.85224 0.29529 0.63067 0.0
C647 C 0.86469 0.32549 0.62961 0.0
C648 C 0.81809 0.29104 0.63069 0.0
C649 C 0.86069 0.23623 0.63314 0.0
C650 C 0.79839 0.2942 0.62064 0.0
C651 C 0.76719 0.28456 0.62043 0.0
C652 C 0.75554 0.27154 0.63026 0.0
C653 C 0.77474 0.27092 0.64049 0.0
C654 C 0.80559 0.28072 0.64071 0.0
H655 H 0.87899 0.21881 0.63149 0.0
H656 H 0.85307 0.23178 0.64182 0.0
H657 H 0.84049 0.23241 0.62684 0.0
H658 H 0.80757 0.30231 0.61283 0.0
H659 H 0.75298 0.28511 0.61241 0.0
H660 H 0.30031 0.23917 0.64649 0.0
H661 H 0.35361 0.23108 0.64114 0.0
H662 H 0.38255 0.31586 0.65917 0.0
H663 H 0.32958 0.32411 0.66449 0.0
H664 H 0.39109 0.26813 0.62888 0.0
H665 H 0.44516 0.25225 0.67284 0.0
H666 H 0.40365 0.25083 0.66952 0.0
H667 H 0.42333 0.28802 0.67122 0.0
C668 C 0.31798 0.25623 0.64921 0.0
C669 C 0.31072 0.28212 0.65601 0.0
C670 C 0.34848 0.25145 0.64623 0.0
C671 C 0.37229 0.2724 0.65002 0.0
C672 C 0.36484 0.29882 0.65646 0.0
H673 H 0.54506 0.31296 0.62248 0.0
H674 H 0.49385 0.31205 0.62997 0.0
C675 C 0.33447 0.30358 0.65945 0.0
C676 C 0.40473 0.26744 0.64693 0.0
H677 H 0.47998 0.26228 0.65826 0.0
C678 C 0.41046 0.2665 0.63531 0.0
C679 C 0.43004 0.26481 0.65531 0.0
C680 C 0.42527 0.26369 0.66792 0.0
C681 C 0.44083 0.26446 0.63186 0.0
C682 C 0.46623 0.26378 0.64024 0.0
C683 C 0.46051 0.26323 0.65185 0.0
C684 C 0.49878 0.26525 0.63699 0.0
C685 C 0.44554 0.26338 0.61924 0.0
C686 C 0.51919 0.23978 0.63894 0.0
C687 C 0.54871 0.24028 0.63467 0.0
C688 C 0.55826 0.26639 0.62851 0.0
C689 C 0.53833 0.29245 0.62715 0.0
C690 C 0.509 0.29193 0.63138 0.0
H691 H 0.42415 0.25568 0.61412 0.0
H692 H 0.45161 0.28723 0.61633 0.0
H693 H 0.46481 0.24723 0.61746 0.0
H694 H 0.51177 0.21902 0.6433 0.0
H695 H 0.56332 0.21966 0.63568 0.0
H696 H 0.50051 0.85193 0.1552 0.0
H697 H 0.44573 0.84809 0.14818 0.0
H698 H 0.46321 0.75788 0.13315 0.0
H699 H 0.51774 0.76107 0.14039 0.0
H700 H 0.41342 0.83711 0.12565 0.0
H701 H 0.39765 0.74098 0.15658 0.0
H702 H 0.4313 0.76628 0.15755 0.0
H703 H 0.42848 0.73449 0.14739 0.0
C704 C 0.49275 0.83133 0.15035 0.0
C705 C 0.51352 0.80661 0.1485 0.0
C706 C 0.46147 0.82931 0.14627 0.0
C707 C 0.45031 0.80251 0.14029 0.0
C708 C 0.47128 0.77863 0.13786 0.0
H709 H 0.27763 0.71774 0.11798 0.0
H710 H 0.33127 0.7357 0.1209 0.0
C711 C 0.50255 0.78061 0.14193 0.0
C712 C 0.41646 0.79826 0.1374 0.0
H713 H 0.35561 0.75098 0.14295 0.0
C714 C 0.40066 0.81841 0.12946 0.0
C715 C 0.39979 0.77415 0.14251 0.0
C716 C 0.41503 0.75289 0.15156 0.0
C717 C 0.36885 0.81411 0.12613 0.0
C718 C 0.35253 0.7893 0.13098 0.0
C719 C 0.36821 0.76985 0.13916 0.0
C720 C 0.31966 0.78153 0.12736 0.0
C721 C 0.35317 0.83538 0.1172 0.0
C722 C 0.29509 0.80175 0.12967 0.0
C723 C 0.26412 0.79151 0.1279 0.0
C724 C 0.2575 0.76088 0.12391 0.0
C725 C 0.28208 0.74146 0.12108 0.0
C726 C 0.31275 0.75168 0.12275 0.0
H727 H 0.37017 0.8498 0.11285 0.0
H728 H 0.33913 0.82141 0.11067 0.0
H729 H 0.33718 0.85148 0.12135 0.0
H730 H 0.29986 0.82471 0.1334 0.0
H731 H 0.24561 0.8067 0.13034 0.0
H732 H 0.41474 0.32403 0.82338 0.0
H733 H 0.36227 0.31791 0.82951 0.0
H734 H 0.39035 0.23351 0.8477 0.0
H735 H 0.4431 0.23942 0.84154 0.0
H736 H 0.32236 0.26683 0.82462 0.0
H737 H 0.34598 0.28453 0.87149 0.0
H738 H 0.37343 0.29558 0.86134 0.0
H739 H 0.36916 0.25508 0.86516 0.0
C740 C 0.40982 0.30419 0.82872 0.0
C741 C 0.4331 0.28213 0.83194 0.0
C742 C 0.37982 0.30077 0.83222 0.0
C743 C 0.37239 0.27533 0.83908 0.0
C744 C 0.39567 0.25358 0.84254 0.0
H745 H 0.17932 0.22238 0.85044 0.0
H746 H 0.23174 0.22204 0.84359 0.0
C747 C 0.42582 0.25702 0.83904 0.0
C748 C 0.33994 0.2713 0.84223 0.0
H749 H 0.29455 0.27179 0.86485 0.0
C750 C 0.31626 0.26775 0.83342 0.0
C751 C 0.33205 0.27264 0.85371 0.0
C752 C 0.35638 0.27741 0.86349 0.0
C753 C 0.28487 0.26603 0.83576 0.0
C754 C 0.27693 0.26751 0.84722 0.0
C755 C 0.30067 0.27052 0.85605 0.0
C756 C 0.24411 0.26825 0.85026 0.0
C757 C 0.2604 0.26373 0.82594 0.0
C758 C 0.23346 0.29446 0.85609 0.0
C759 C 0.20369 0.29471 0.85994 0.0
C760 C 0.18379 0.26874 0.85808 0.0
C761 C 0.19389 0.24296 0.85181 0.0
C762 C 0.2239 0.24269 0.84795 0.0
H763 H 0.2698 0.26957 0.81764 0.0
H764 H 0.25133 0.23934 0.82539 0.0
H765 H 0.24068 0.2797 0.8273 0.0
H766 H 0.24851 0.31452 0.8579 0.0
H767 H 0.19659 0.31493 0.86474 0.0
H768 H 0.22318 0.75247 0.34187 0.0
H769 H 0.27761 0.74983 0.34923 0.0
H770 H 0.29037 0.8466 0.33985 0.0
H771 H 0.23597 0.84926 0.33235 0.0
H772 H 0.33446 0.81037 0.33209 0.0
H773 H 0.32497 0.78227 0.37766 0.0
H774 H 0.30321 0.75513 0.36848 0.0
H775 H 0.29227 0.79598 0.36852 0.0
C776 C 0.23736 0.77342 0.34162 0.0
C777 C 0.2252 0.80107 0.33651 0.0
C778 C 0.26852 0.77192 0.34587 0.0
C779 C 0.28811 0.79816 0.34526 0.0
C780 C 0.27576 0.82607 0.34046 0.0
H781 H 0.49381 0.80022 0.3571 0.0
H782 H 0.44011 0.82007 0.35543 0.0
C783 C 0.24467 0.82752 0.33614 0.0
C784 C 0.32197 0.79557 0.34869 0.0
H785 H 0.37405 0.77009 0.37008 0.0
C786 C 0.34315 0.80218 0.34048 0.0
C787 C 0.33343 0.78502 0.35965 0.0
C788 C 0.31227 0.77952 0.36911 0.0
C789 C 0.37516 0.79679 0.3427 0.0
C790 C 0.38637 0.78471 0.35346 0.0
C791 C 0.36541 0.77934 0.36183 0.0
C792 C 0.419 0.77394 0.35563 0.0
C793 C 0.39658 0.80241 0.33333 0.0
C794 C 0.42491 0.74167 0.35663 0.0
C795 C 0.45534 0.73048 0.35762 0.0
C796 C 0.48069 0.75129 0.35775 0.0
C797 C 0.47483 0.78374 0.3572 0.0
C798 C 0.44417 0.79502 0.35612 0.0
H799 H 0.38368 0.80801 0.32502 0.0
H800 H 0.41225 0.8224 0.33576 0.0
H801 H 0.41127 0.7814 0.33216 0.0
H802 H 0.40589 0.725 0.35629 0.0
H803 H 0.45903 0.70532 0.35811 0.0
H804 H 0.61975 0.89081 0.56811 0.0
H805 H 0.61964 0.94676 0.57297 0.0
H806 H 0.71213 0.9382 0.58928 0.0
H807 H 0.71282 0.88244 0.58416 0.0
H808 H 0.62648 0.97593 0.59421 0.0
H809 H 0.72076 0.01199 0.56749 0.0
H810 H 0.70149 0.97442 0.56582 0.0
H811 H 0.73154 0.98044 0.57711 0.0
C812 C 0.64021 0.90087 0.57264 0.0
C813 C 0.66641 0.88212 0.57566 0.0
C814 C 0.64003 0.93284 0.57546 0.0
C815 C 0.66609 0.94683 0.58129 0.0
C816 C 0.692 0.92808 0.58456 0.0
H817 H 0.71989 0.11926 0.61376 0.0
H818 H 0.71538 0.06812 0.60428 0.0
C819 C 0.6922 0.89608 0.58175 0.0
C820 C 0.66594 0.98086 0.58419 0.0
H821 H 0.70565 0.04945 0.58123 0.0
C822 C 0.64354 0.99213 0.59126 0.0
C823 C 0.68808 0.002 0.58028 0.0
C824 C 0.71165 0.99172 0.57216 0.0
C825 C 0.6436 0.02358 0.59497 0.0
C826 C 0.66638 0.04448 0.59134 0.0
C827 C 0.68819 0.03343 0.58399 0.0
C828 C 0.66979 0.07696 0.59597 0.0
C829 C 0.6202 0.03383 0.60316 0.0
C830 C 0.64603 0.09938 0.59417 0.0
C831 C 0.64854 0.12876 0.59963 0.0
C832 C 0.67497 0.13621 0.60688 0.0
C833 C 0.69923 0.11419 0.60823 0.0
C834 C 0.69672 0.08497 0.6028 0.0
H835 H 0.60811 0.01353 0.60678 0.0
H836 H 0.63162 0.04776 0.61033 0.0
H837 H 0.60245 0.04894 0.59857 0.0
H838 H 0.6252 0.09385 0.5888 0.0
H839 H 0.62925 0.14499 0.5986 0.0
H840 H 0.18562 0.09456 0.09973 0.0
H841 H 0.19281 0.04236 0.10815 0.0
H842 H 0.27205 0.02705 0.08855 0.0
H843 H 0.26505 0.0793 0.08012 0.0
H844 H 0.22915 0.98066 0.08541 0.0
H845 H 0.25353 0.00156 0.13179 0.0
H846 H 0.21972 0.02231 0.12607 0.0
H847 H 0.25718 0.03203 0.12128 0.0
C848 C 0.20515 0.08051 0.09747 0.0
C849 C 0.22464 0.09109 0.0892 0.0
C850 C 0.20929 0.05061 0.10231 0.0
C851 C 0.23317 0.03079 0.09908 0.0
C852 C 0.25352 0.04189 0.09121 0.0
H853 H 0.23091 0.82377 0.10707 0.0
H854 H 0.25521 0.87566 0.10502 0.0
C855 C 0.24938 0.07173 0.08636 0.0
C856 C 0.23448 0.99737 0.1028 0.0
H857 H 0.23379 0.95015 0.12629 0.0
C858 C 0.23088 0.97389 0.09435 0.0
C859 C 0.2368 0.98854 0.11446 0.0
C860 C 0.24234 0.01244 0.12392 0.0
C861 C 0.22733 0.94213 0.09722 0.0
C862 C 0.22808 0.93342 0.10889 0.0
C863 C 0.23336 0.95673 0.11735 0.0
C864 C 0.21829 0.90153 0.11236 0.0
C865 C 0.2206 0.91853 0.0877 0.0
C866 C 0.19077 0.89864 0.11789 0.0
C867 C 0.17725 0.86926 0.11918 0.0
C868 C 0.19103 0.84201 0.11504 0.0
C869 C 0.22 0.8444 0.11042 0.0
C870 C 0.23363 0.87405 0.10912 0.0
H871 H 0.21585 0.92998 0.07924 0.0
H872 H 0.24095 0.90284 0.08717 0.0
H873 H 0.20026 0.90378 0.08941 0.0
H874 H 0.17853 0.91936 0.12052 0.0
H875 H 0.1549 0.86804 0.12278 0.0
H876 H 0.52457 0.05722 0.41157 0.0
H877 H 0.51404 0.00684 0.40216 0.0
H878 H 0.53139 0.04778 0.36966 0.0
H879 H 0.54351 0.09828 0.37917 0.0
H880 H 0.47334 0.98477 0.38517 0.0
H881 H 0.59439 0.97755 0.37198 0.0
H882 H 0.58252 0.0074 0.38167 0.0
H883 H 0.572 0.01056 0.36659 0.0
C884 C 0.52626 0.05558 0.40241 0.0
C885 C 0.53567 0.08164 0.39617 0.0
C886 C 0.51989 0.02677 0.39702 0.0
C887 C 0.52256 0.02325 0.38523 0.0
C888 C 0.52989 0.04972 0.37881 0.0
H889 H 0.54555 0.83643 0.35536 0.0
H890 H 0.52773 0.89124 0.35537 0.0
C891 C 0.5365 0.07867 0.38424 0.0
C892 C 0.51981 0.99127 0.38007 0.0
H893 H 0.56311 0.93319 0.3689 0.0
C894 C 0.49279 0.97364 0.38143 0.0
C895 C 0.54515 0.97667 0.37516 0.0
C896 C 0.57527 0.99383 0.37381 0.0
C897 C 0.491 0.94157 0.37853 0.0
C898 C 0.51695 0.92666 0.37422 0.0
C899 C 0.54317 0.9447 0.37217 0.0
C900 C 0.51951 0.89192 0.37335 0.0
C901 C 0.46169 0.92369 0.38042 0.0
C902 C 0.51972 0.87376 0.38334 0.0
C903 C 0.52988 0.8426 0.38333 0.0
C904 C 0.53968 0.82891 0.37331 0.0
C905 C 0.53726 0.84624 0.36311 0.0
C906 C 0.52734 0.87758 0.36314 0.0
H907 H 0.44117 0.93949 0.37995 0.0
H908 H 0.4576 0.90451 0.37403 0.0
H909 H 0.46386 0.91309 0.38908 0.0
H910 H 0.51455 0.88443 0.39138 0.0
H911 H 0.53237 0.82995 0.39135 0.0
H912 H 0.10208 0.87689 0.89846 0.0
H913 H 0.10705 0.93229 0.89333 0.0
H914 H 0.03222 0.95596 0.91417 0.0
H915 H 0.02741 0.90076 0.91943 0.0
H916 H 0.06629 0.96987 0.88216 0.0
H917 H 0.09581 0.02078 0.9251 0.0
H918 H 0.09667 0.97903 0.92238 0.0
H919 H 0.06051 0.99843 0.92454 0.0
C920 C 0.08666 0.89391 0.90193 0.0
C921 C 0.06442 0.88442 0.90939 0.0
C922 C 0.08965 0.9256 0.89906 0.0
C923 C 0.07049 0.94848 0.90356 0.0
C924 C 0.04797 0.93898 0.91087 0.0
H925 H 0.01825 0.12453 0.87287 0.0
H926 H 0.02157 0.07258 0.88163 0.0
C927 C 0.0451 0.90735 0.91381 0.0
C928 C 0.07269 0.98193 0.90004 0.0
H929 H 0.07916 0.05727 0.91027 0.0
C930 C 0.06943 0.9889 0.88832 0.0
C931 C 0.07729 0.00686 0.90805 0.0
C932 C 0.08311 0.00091 0.92071 0.0
C933 C 0.06945 0.02 0.88441 0.0
C934 C 0.07208 0.04498 0.89244 0.0
C935 C 0.07664 0.03811 0.90414 0.0
C936 C 0.06898 0.07821 0.88872 0.0
C937 C 0.0666 0.02583 0.87168 0.0
C938 C 0.09394 0.09936 0.89038 0.0
C939 C 0.09197 0.12937 0.88545 0.0
C940 C 0.06495 0.13855 0.87886 0.0
C941 C 0.03943 0.11799 0.87784 0.0
C942 C 0.04134 0.08825 0.8828 0.0
H943 H 0.0738 0.00495 0.86681 0.0
H944 H 0.042 0.03097 0.86889 0.0
H945 H 0.08095 0.04623 0.86943 0.0
H946 H 0.11543 0.09212 0.89499 0.0
H947 H 0.11211 0.14461 0.88624 0.0
H948 H 0.13615 0.23465 0.99089 0.0
H949 H 0.1225 0.22348 0.97073 0.0
H950 H 0.09588 0.12924 0.97914 0.0
H951 H 0.10895 0.1404 -0.00052 0.0
H952 H 0.13521 0.13266 0.96088 0.0
H953 H 0.03557 0.21368 0.95412 0.0
H954 H 0.06888 0.23272 0.96115 0.0
H955 H 0.05043 0.20102 0.96818 0.0
C956 C 0.12682 0.21172 0.98852 0.0
C957 C 0.12344 0.18853 -0.00315 0.0
C958 C 0.11907 0.20535 0.97697 0.0
C959 C 0.10768 0.1757 0.97346 0.0
C960 C 0.10444 0.15234 0.98169 0.0
H961 H 0.0581 0.18507 0.89986 0.0
H962 H 0.05359 0.1621 0.91888 0.0
C963 C 0.1121 0.15873 -0.0067 0.0
C964 C 0.10068 0.16916 0.96111 0.0
H965 H 0.06229 0.20044 0.93734 0.0
C966 C 0.11872 0.14691 0.95574 0.0
C967 C 0.07861 0.18712 0.95442 0.0
C968 C 0.05702 0.20973 0.95978 0.0
C969 C 0.11732 0.14434 0.94375 0.0
C970 C 0.09773 0.16484 0.93703 0.0
C971 C 0.07756 0.18488 0.94246 0.0
C972 C 0.1017 0.17024 0.92473 0.0
C973 C 0.13778 0.12064 0.93839 0.0
C974 C 0.13043 0.18132 0.92157 0.0
C975 C 0.13294 0.19446 0.91082 0.0
C976 C 0.10682 0.19672 0.90298 0.0
C977 C 0.07864 0.18327 0.90572 0.0
C978 C 0.07604 0.17028 0.91658 0.0
H979 H 0.14135 0.09961 0.94392 0.0
H980 H 0.12773 0.11308 0.92982 0.0
H981 H 0.1609 0.13129 0.93745 0.0
H982 H 0.15038 0.18225 0.92775 0.0
H983 H 0.15489 0.2048 0.90891 0.0
H984 H 0.02325 0.77988 0.24207 0.0
H985 H 0.02214 0.77477 0.22133 0.0
H986 H 0.11766 0.80493 0.2223 0.0
H987 H 0.11822 0.81283 0.24288 0.0
H988 H 0.08617 0.82847 0.20422 0.0
H989 H 0.05923 0.70103 0.20654 0.0
H990 H 0.03025 0.72629 0.2118 0.0
H991 H 0.06835 0.72453 0.21915 0.0
C992 C 0.04386 0.78618 0.23788 0.0
C993 C 0.07102 0.79638 0.24427 0.0
C994 C 0.04329 0.78272 0.226 0.0
C995 C 0.07007 0.78856 0.22027 0.0
C996 C 0.09676 0.79995 0.22653 0.0
H997 H 0.14718 0.70595 0.16468 0.0
H998 H 0.12389 0.72152 0.18202 0.0
C999 C 0.09717 0.80403 0.23836 0.0
C1000 C 0.07117 0.78159 0.20787 0.0
H1001 H 0.06668 0.72147 0.18845 0.0
C1002 C 0.08165 0.80515 0.20073 0.0
C1003 C 0.06522 0.75111 0.20332 0.0
C1004 C 0.0554 0.7242 0.2106 0.0
C1005 C 0.08814 0.79866 0.18939 0.0
C1006 C 0.08294 0.76797 0.18495 0.0
C1007 C 0.07055 0.74499 0.19186 0.0
C1008 C 0.09475 0.75776 0.17395 0.0
C1009 C 0.10243 0.82418 0.18258 0.0
C1010 C 0.0858 0.77258 0.16352 0.0
C1011 C 0.09977 0.76412 0.15353 0.0
C1012 C 0.12224 0.74016 0.15379 0.0
C1013 C 0.13004 0.72458 0.16415 0.0
C1014 C 0.11656 0.73334 0.1741 0.0
H1015 H 0.11042 0.84446 0.18803 0.0
H1016 H 0.12254 0.81499 0.17823 0.0
H1017 H 0.08489 0.8329 0.17593 0.0
H1018 H 0.06855 0.79107 0.16313 0.0
H1019 H 0.09366 0.77696 0.14574 0.0
H1020 H 0.64966 0.73448 0.49154 0.0
H1021 H 0.63645 0.72454 0.47124 0.0
H1022 H 0.60117 0.63302 0.47912 0.0
H1023 H 0.61392 0.64295 0.49957 0.0
H1024 H 0.64069 0.63355 0.46064 0.0
H1025 H 0.54814 0.72327 0.45515 0.0
H1026 H 0.58345 0.73877 0.46205 0.0
H1027 H 0.56248 0.70877 0.46903 0.0
C1028 C 0.63868 0.7124 0.489 0.0
C1029 C 0.63256 0.68966 0.49721 0.0
C1030 C 0.63121 0.70672 0.47739 0.0
C1031 C 0.61736 0.67827 0.47371 0.0
C1032 C 0.61169 0.65521 0.48181 0.0
H1033 H 0.55687 0.68983 0.40121 0.0
H1034 H 0.5551 0.66917 0.42066 0.0
C1035 C 0.61912 0.66089 0.49347 0.0
C1036 C 0.60943 0.67283 0.46134 0.0
H1037 H 0.57129 0.70694 0.43807 0.0
C1038 C 0.62504 0.64915 0.4557 0.0
C1039 C 0.58843 0.69264 0.45495 0.0
C1040 C 0.5694 0.71708 0.46062 0.0
C1041 C 0.62204 0.64644 0.44371 0.0
C1042 C 0.60333 0.66828 0.43725 0.0
C1043 C 0.58585 0.69029 0.44298 0.0
C1044 C 0.60479 0.67196 0.42471 0.0
C1045 C 0.63957 0.62078 0.43808 0.0
C1046 C 0.63335 0.67922 0.42037 0.0
C1047 C 0.63434 0.69058 0.40925 0.0
C1048 C 0.60683 0.69484 0.40227 0.0
C1049 C 0.57845 0.68565 0.4063 0.0
C1050 C 0.57743 0.67421 0.41745 0.0
H1051 H 0.64228 0.59981 0.44368 0.0
H1052 H 0.62771 0.61362 0.42973 0.0
H1053 H 0.66319 0.62936 0.43659 0.0
H1054 H 0.65468 0.67859 0.42585 0.0
H1055 H 0.65642 0.69813 0.40639 0.0
H1056 H 0.60491 0.31688 0.7435 0.0
H1057 H 0.60586 0.31062 0.72278 0.0
H1058 H 0.54229 0.23261 0.72354 0.0
H1059 H 0.5411 0.23885 0.74426 0.0
H1060 H 0.62689 0.25894 0.71252 0.0
H1061 H 0.50521 0.28142 0.69602 0.0
H1062 H 0.52008 0.29256 0.71028 0.0
H1063 H 0.50869 0.2526 0.70718 0.0
C1064 C 0.59096 0.29854 0.73924 0.0
C1065 C 0.57303 0.27828 0.74552 0.0
C1066 C 0.59135 0.29513 0.7274 0.0
C1067 C 0.5738 0.27144 0.72158 0.0
C1068 C 0.55536 0.25158 0.72779 0.0
H1069 H 0.62161 0.17932 0.66044 0.0
H1070 H 0.60106 0.19243 0.67872 0.0
C1071 C 0.55483 0.25508 0.73964 0.0
C1072 C 0.57754 0.26541 0.70928 0.0
H1073 H 0.53822 0.25713 0.68298 0.0
C1074 C 0.6075 0.25886 0.70607 0.0
C1075 C 0.55225 0.26541 0.70084 0.0
C1076 C 0.51978 0.27367 0.70371 0.0
C1077 C 0.61282 0.25165 0.69472 0.0
C1078 C 0.58744 0.25045 0.68637 0.0
C1079 C 0.55752 0.25774 0.68946 0.0
C1080 C 0.59219 0.24114 0.67447 0.0
C1081 C 0.64564 0.24517 0.69174 0.0
C1082 C 0.59236 0.26385 0.66582 0.0
C1083 C 0.60403 0.25638 0.65532 0.0
C1084 C 0.61562 0.22612 0.65339 0.0
C1085 C 0.61294 0.20285 0.66173 0.0
C1086 C 0.60119 0.21027 0.67216 0.0
H1087 H 0.66309 0.25335 0.69856 0.0
H1088 H 0.64871 0.21949 0.69061 0.0
H1089 H 0.65037 0.25682 0.68359 0.0
H1090 H 0.58555 0.28783 0.66749 0.0
H1091 H 0.60614 0.27484 0.64909 0.0
H1092 H 0.06038 0.6497 0.98705 0.0
H1093 H 0.07225 0.63885 0.00742 0.0
H1094 H 0.13642 0.71666 0.00977 0.0
H1095 H 0.12556 0.72699 0.98938 0.0
H1096 H 0.15898 0.66147 0.02123 0.0
H1097 H 0.04035 0.69435 0.03281 0.0
H1098 H 0.04303 0.66432 0.02211 0.0
H1099 H 0.0541 0.7039 0.01909 0.0
C1100 C 0.07729 0.66427 0.99187 0.0
C1101 C 0.09183 0.6894 0.9866 0.0
C1102 C 0.08385 0.65817 0.00353 0.0
C1103 C 0.10493 0.67718 0.01012 0.0
C1104 C 0.12 0.70176 0.00483 0.0
H1105 H 0.16979 0.74567 0.07254 0.0
H1106 H 0.16367 0.72226 0.05349 0.0
C1107 C 0.11351 0.70785 -0.0068 0.0
C1108 C 0.11074 0.67257 0.02261 0.0
H1109 H 0.07786 0.68465 0.04783 0.0
C1110 C 0.14113 0.66596 0.02706 0.0
C1111 C 0.08732 0.67807 0.03019 0.0
C1112 C 0.05437 0.68575 0.02588 0.0
C1113 C 0.14911 0.66653 0.03889 0.0
C1114 C 0.12621 0.67433 0.04641 0.0
C1115 C 0.09535 0.6786 0.04203 0.0
C1116 C 0.13454 0.68395 0.05841 0.0
C1117 C 0.18226 0.66001 0.04321 0.0
C1118 C 0.12045 0.66999 0.06756 0.0
C1119 C 0.12409 0.68339 0.07852 0.0
C1120 C 0.14149 0.71105 0.08036 0.0
C1121 C 0.15655 0.72413 0.07132 0.0
C1122 C 0.15322 0.71064 0.06046 0.0
H1123 H 0.19369 0.64398 0.03732 0.0
H1124 H 0.19547 0.68241 0.04367 0.0
H1125 H 0.18357 0.64944 0.05188 0.0
H1126 H 0.1056 0.64963 0.0661 0.0
H1127 H 0.11184 0.6733 0.08536 0.0
H1128 H 0.61764 0.7756 0.2405 0.0
H1129 H 0.61775 0.7718 0.26125 0.0
H1130 H 0.71236 0.80492 0.26485 0.0
H1131 H 0.71234 0.80937 0.244 0.0
H1132 H 0.7018 0.75067 0.27776 0.0
H1133 H 0.61511 0.84288 0.28497 0.0
H1134 H 0.60162 0.81573 0.27394 0.0
H1135 H 0.63474 0.84021 0.27193 0.0
C1136 C 0.63831 0.7827 0.24568 0.0
C1137 C 0.6649 0.79301 0.24056 0.0
C1138 C 0.63834 0.78046 0.25755 0.0
C1139 C 0.66489 0.78857 0.26459 0.0
C1140 C 0.69157 0.79874 0.25956 0.0
H1141 H 0.63273 0.78049 0.33764 0.0
H1142 H 0.65685 0.79925 0.32062 0.0
C1143 C 0.69154 0.8011 0.24765 0.0
C1144 C 0.66487 0.78482 0.27715 0.0
H1145 H 0.62252 0.80334 0.29963 0.0
C1146 C 0.68491 0.76264 0.28262 0.0
C1147 C 0.64335 0.80095 0.28354 0.0
C1148 C 0.62271 0.82652 0.27833 0.0
C1149 C 0.68223 0.75439 0.29409 0.0
C1150 C 0.65869 0.7684 0.30014 0.0
C1151 C 0.64037 0.79236 0.29495 0.0
C1152 C 0.64972 0.75574 0.31118 0.0
C1153 C 0.70395 0.73007 0.29954 0.0
C1154 C 0.63822 0.72497 0.31156 0.0
C1155 C 0.62448 0.71429 0.32121 0.0
C1156 C 0.62206 0.73414 0.33069 0.0
C1157 C 0.6348 0.76452 0.33053 0.0
C1158 C 0.64843 0.7753 0.32081 0.0
H1159 H 0.72629 0.72954 0.29543 0.0
H1160 H 0.70878 0.73464 0.30885 0.0
H1161 H 0.69308 0.70652 0.29845 0.0
H1162 H 0.63832 0.70971 0.30414 0.0
H1163 H 0.61473 0.69082 0.3211 0.0
H1164 H 0.61086 0.23362 0.4941 0.0
H1165 H 0.62251 0.22365 0.51445 0.0
H1166 H 0.65873 0.13232 0.50671 0.0
H1167 H 0.64794 0.14236 0.48622 0.0
H1168 H 0.61454 0.13323 0.52406 0.0
H1169 H 0.70888 0.2202 0.53263 0.0
H1170 H 0.67533 0.23636 0.52475 0.0
H1171 H 0.69726 0.20584 0.51841 0.0
C1172 C 0.6219 0.21165 0.49667 0.0
C1173 C 0.62861 0.18889 0.48848 0.0
C1174 C 0.62845 0.20595 0.50832 0.0
C1175 C 0.64183 0.17742 0.51206 0.0
C1176 C 0.64851 0.15454 0.50397 0.0
H1177 H 0.68457 0.18508 0.58615 0.0
H1178 H 0.69096 0.16382 0.56696 0.0
C1179 C 0.64215 0.16029 0.49228 0.0
C1180 C 0.64742 0.17138 0.52448 0.0
H1181 H 0.68173 0.20411 0.54883 0.0
C1182 C 0.62976 0.14821 0.52948 0.0
C1183 C 0.66777 0.19044 0.53152 0.0
C1184 C 0.68865 0.2144 0.52655 0.0
C1185 C 0.62995 0.14549 0.54143 0.0
C1186 C 0.64801 0.16667 0.54848 0.0
C1187 C 0.66771 0.18795 0.54344 0.0
C1188 C 0.64301 0.17112 0.56076 0.0
C1189 C 0.60988 0.12082 0.5464 0.0
C1190 C 0.61375 0.18116 0.56375 0.0
C1191 C 0.61016 0.19339 0.57461 0.0
C1192 C 0.63572 0.19572 0.58271 0.0
C1193 C 0.66444 0.18323 0.58008 0.0
C1194 C 0.66813 0.17121 0.56912 0.0
H1195 H 0.60717 0.10001 0.54066 0.0
H1196 H 0.61972 0.11311 0.55496 0.0
H1197 H 0.5864 0.1307 0.54729 0.0
H1198 H 0.59418 0.18197 0.5574 0.0
H1199 H 0.5878 0.20298 0.57643 0.0
H1200 H 0.19574 0.24515 0.74086 0.0
H1201 H 0.19311 0.23669 0.7614 0.0
H1202 H 0.12491 0.31039 0.76249 0.0
H1203 H 0.12752 0.31918 0.74195 0.0
H1204 H 0.2024 0.27796 0.78071 0.0
H1205 H 0.08167 0.23219 0.77466 0.0
H1206 H 0.10598 0.23693 0.76293 0.0
H1207 H 0.08735 0.27047 0.76876 0.0
C1208 C 0.18051 0.25988 0.7455 0.0
C1209 C 0.16163 0.28267 0.73976 0.0
C1210 C 0.17899 0.25496 0.75722 0.0
C1211 C 0.15853 0.27263 0.76341 0.0
C1212 C 0.14046 0.29614 0.75781 0.0
H1213 H 0.13583 0.27584 0.83663 0.0
H1214 H 0.1539 0.28859 0.81785 0.0
C1215 C 0.14191 0.30105 0.74608 0.0
C1216 C 0.15506 0.26543 0.77559 0.0
H1217 H 0.10308 0.238 0.79368 0.0
C1218 C 0.18071 0.26927 0.78358 0.0
C1219 C 0.12682 0.25373 0.77925 0.0
C1220 C 0.09892 0.24778 0.77096 0.0
C1221 C 0.17874 0.26186 0.79518 0.0
C1222 C 0.1504 0.25058 0.79885 0.0
C1223 C 0.12481 0.24674 0.79084 0.0
C1224 C 0.14648 0.24178 0.81088 0.0
C1225 C 0.20708 0.26535 0.80338 0.0
C1226 C 0.13747 0.21103 0.81333 0.0
C1227 C 0.12712 0.20377 0.82398 0.0
C1228 C 0.1256 0.22713 0.83242 0.0
C1229 C 0.13711 0.2573 0.83033 0.0
C1230 C 0.14738 0.26462 0.81959 0.0
H1231 H 0.2286 0.26822 0.79886 0.0
H1232 H 0.20436 0.2864 0.80883 0.0
H1233 H 0.20969 0.24454 0.80905 0.0
H1234 H 0.13672 0.19304 0.80674 0.0
H1235 H 0.11847 0.18031 0.82538 0.0
loop_
_geom_bond_atom_site_label_1
_geom_bond_atom_site_label_2
_geom_bond_distance
_geom_bond_site_symmetry_2
_ccdc_geom_bond_type
C0 C1 1.384 . S
C0 H13 0.947 . S
C0 C35 1.382 . S
C1 C0 1.384 . S
C1 C2 1.378 . S
C2 C1 1.378 . S
C2 C3 1.378 . S
C2 H14 0.952 . S
C3 C2 1.378 . S
C3 H15 0.950 . S
C3 C34 1.383 . S
H4 C23 0.947 . S
H5 C24 0.946 . S
H6 C26 0.953 . S
H7 C27 0.945 . S
H8 C29 0.952 . S
H9 C30 0.949 . S
H10 C32 0.950 . S
H11 C33 0.948 . S
H12 C35 0.951 . S
H13 C0 0.947 . S
H14 C2 0.952 . S
H15 C3 0.950 . S
N16 C19 1.382 . S
N16 C21 1.363 . S
N17 C19 1.371 . S
N17 C20 1.372 . S
N18 C20 1.361 . S
N18 C21 1.377 . S
C19 N16 1.382 . S
C19 N17 1.371 . S
C19 C22 1.480 . S
C20 N17 1.372 . S
C20 N18 1.361 . S
C20 C28 1.457 . S
C21 N16 1.363 . S
C21 N18 1.377 . S
C21 C34 1.479 . S
C22 C19 1.480 . S
C22 C23 1.383 . S
C22 C27 1.385 . S
C23 H4 0.947 . S
C23 C22 1.383 . S
C23 C24 1.388 . S
C24 H5 0.946 . S
C24 C23 1.388 . S
C24 C25 1.384 . S
C25 C24 1.384 . S
C25 C26 1.377 . S
C26 H6 0.953 . S
C26 C25 1.377 . S
C26 C27 1.369 . S
C27 H7 0.945 . S
C27 C22 1.385 . S
C27 C26 1.369 . S
C28 C20 1.457 . S
C28 C29 1.372 . S
C28 C33 1.364 . S
C29 H8 0.952 . S
C29 C28 1.372 . S
C29 C30 1.389 . S
C30 H9 0.949 . S
C30 C29 1.389 . S
C30 C31 1.387 . S
C31 C30 1.387 . S
C31 C32 1.372 . S
C32 H10 0.950 . S
C32 C31 1.372 . S
C32 C33 1.379 . S
C33 H11 0.948 . S
C33 C28 1.364 . S
C33 C32 1.379 . S
C34 C3 1.383 . S
C34 C21 1.479 . S
C34 C35 1.398 . S
C35 C0 1.382 . S
C35 H12 0.951 . S
C35 C34 1.398 . S
C36 C37 1.384 . S
C36 H49 0.947 . S
C36 C71 1.382 . S
C37 C36 1.384 . S
C37 C38 1.378 . S
C38 C37 1.378 . S
C38 C39 1.378 . S
C38 H50 0.952 . S
C39 C38 1.378 . S
C39 H51 0.950 . S
C39 C70 1.383 . S
H40 C59 0.947 . S
H41 C60 0.946 . S
H42 C62 0.924 1_655 S
H43 C63 0.945 . S
H44 C65 0.952 . S
H45 C66 0.949 . S
H46 C68 0.950 . S
H47 C69 0.948 . S
H48 C71 0.951 . S
H49 C36 0.947 . S
H50 C38 0.952 . S
H51 C39 0.950 . S
N52 C55 1.382 . S
N52 C57 1.363 . S
N53 C55 1.371 . S
N53 C56 1.372 . S
N54 C56 1.361 . S
N54 C57 1.377 . S
C55 N52 1.382 . S
C55 N53 1.371 . S
C55 C58 1.480 . S
C56 N53 1.372 . S
C56 N54 1.361 . S
C56 C64 1.457 . S
C57 N52 1.363 . S
C57 N54 1.377 . S
C57 C70 1.479 . S
C58 C55 1.480 . S
C58 C59 1.383 . S
C58 C63 1.385 . S
C59 H40 0.947 . S
C59 C58 1.383 . S
C59 C60 1.388 . S
C60 H41 0.946 . S
C60 C59 1.388 . S
C60 C61 1.384 . S
C61 C60 1.384 . S
C61 C62 1.376 . S
C62 H42 0.924 1_455 S
C62 C61 1.376 . S
C62 C63 1.399 . S
C63 H43 0.945 . S
C63 C58 1.385 . S
C63 C62 1.399 . S
C64 C56 1.457 . S
C64 C65 1.372 . S
C64 C69 1.364 . S
C65 H44 0.952 . S
C65 C64 1.372 . S
C65 C66 1.389 . S
C66 H45 0.949 . S
C66 C65 1.389 . S
C66 C67 1.387 . S
C67 C66 1.387 . S
C67 C68 1.372 . S
C68 H46 0.950 . S
C68 C67 1.372 . S
C68 C69 1.379 . S
C69 H47 0.948 . S
C69 C64 1.364 . S
C69 C68 1.379 . S
C70 C39 1.383 . S
C70 C57 1.479 . S
C70 C71 1.398 . S
C71 C36 1.382 . S
C71 H48 0.951 . S
C71 C70 1.398 . S
C72 C73 1.384 . S
C72 H85 0.947 . S
C72 C107 1.382 . S
C73 C72 1.384 . S
C73 C74 1.378 . S
C74 C73 1.378 . S
C74 C75 1.378 . S
C74 H86 0.952 . S
C75 C74 1.378 . S
C75 H87 0.950 . S
C75 C106 1.383 . S
H76 C95 0.947 . S
H77 C96 0.946 . S
H78 C98 0.953 . S
H79 C99 0.945 . S
H80 C101 0.952 . S
H81 C102 0.949 . S
H82 C104 0.950 . S
H83 C105 0.948 . S
H84 C107 0.951 . S
H85 C72 0.947 . S
H86 C74 0.952 . S
H87 C75 0.950 . S
N88 C91 1.382 . S
N88 C93 1.363 . S
N89 C91 1.371 . S
N89 C92 1.372 . S
N90 C92 1.361 . S
N90 C93 1.377 . S
C91 N88 1.382 . S
C91 N89 1.371 . S
C91 C94 1.480 . S
C92 N89 1.372 . S
C92 N90 1.361 . S
C92 C100 1.457 . S
C93 N88 1.363 . S
C93 N90 1.377 . S
C93 C106 1.479 . S
C94 C91 1.480 . S
C94 C95 1.383 . S
C94 C99 1.385 . S
C95 H76 0.947 . S
C95 C94 1.383 . S
C95 C96 1.388 . S
C96 H77 0.946 . S
C96 C95 1.388 . S
C96 C97 1.384 . S
C97 C96 1.384 . S
C97 C98 1.377 . S
C98 H78 0.953 . S
C98 C97 1.377 . S
C98 C99 1.369 . S
C99 H79 0.945 . S
C99 C94 1.385 . S
C99 C98 1.369 . S
C100 C92 1.457 . S
C100 C101 1.372 . S
C100 C105 1.364 . S
C101 H80 0.952 . S
C101 C100 1.372 . S
C101 C102 1.389 . S
C102 H81 0.949 . S
C102 C101 1.389 . S
C102 C103 1.387 . S
C103 C102 1.387 . S
C103 C104 1.372 . S
C104 H82 0.950 . S
C104 C103 1.372 . S
C104 C105 1.379 . S
C105 H83 0.948 . S
C105 C100 1.364 . S
C105 C104 1.379 . S
C106 C75 1.383 . S
C106 C93 1.479 . S
C106 C107 1.398 . S
C107 C72 1.382 . S
C107 H84 0.951 . S
C107 C106 1.398 . S
C108 C109 1.384 . S
C108 H121 0.947 . S
C108 C143 1.382 . S
C109 C108 1.384 . S
C109 C110 1.378 . S
C110 C109 1.378 . S
C110 C111 1.378 . S
C110 H122 0.952 . S
C111 C110 1.378 . S
C111 H123 0.950 . S
C111 C142 1.383 . S
H112 C131 0.947 . S
H113 C132 0.946 . S
H114 C134 0.953 . S
H115 C135 0.945 . S
H116 C137 0.952 . S
H117 C138 0.949 . S
H118 C140 0.950 . S
H119 C141 0.948 . S
H120 C143 0.951 . S
H121 C108 0.947 . S
H122 C110 0.952 . S
H123 C111 0.950 . S
N124 C127 1.382 . S
N124 C129 1.363 . S
N125 C127 1.371 . S
N125 C128 1.372 . S
N126 C128 1.361 . S
N126 C129 1.377 . S
C127 N124 1.382 . S
C127 N125 1.371 . S
C127 C130 1.480 . S
C128 N125 1.372 . S
C128 N126 1.361 . S
C128 C136 1.457 . S
C129 N124 1.363 . S
C129 N126 1.377 . S
C129 C142 1.479 . S
C130 C127 1.480 . S
C130 C131 1.383 . S
C130 C135 1.385 . S
C131 H112 0.947 . S
C131 C130 1.383 . S
C131 C132 1.388 . S
C132 H113 0.946 . S
C132 C131 1.388 . S
C132 C133 1.384 . S
C133 C132 1.384 . S
C133 C134 1.377 . S
C134 H114 0.953 . S
C134 C133 1.377 . S
C134 C135 1.369 . S
C135 H115 0.945 . S
C135 C130 1.385 . S
C135 C134 1.369 . S
C136 C128 1.457 . S
C136 C137 1.372 . S
C136 C141 1.364 . S
C137 H116 0.952 . S
C137 C136 1.372 . S
C137 C138 1.389 . S
C138 H117 0.949 . S
C138 C137 1.389 . S
C138 C139 1.387 . S
C139 C138 1.387 . S
C139 C140 1.372 . S
C140 H118 0.950 . S
C140 C139 1.372 . S
C140 C141 1.379 . S
C141 H119 0.948 . S
C141 C136 1.364 . S
C141 C140 1.379 . S
C142 C111 1.383 . S
C142 C129 1.479 . S
C142 C143 1.398 . S
C143 C108 1.382 . S
C143 H120 0.951 . S
C143 C142 1.398 . S
C144 C145 1.384 . S
C144 H157 0.947 . S
C144 C179 1.382 . S
C145 C144 1.384 . S
C145 C146 1.378 . S
C146 C145 1.378 . S
C146 C147 1.378 . S
C146 H158 0.952 . S
C147 C146 1.378 . S
C147 H159 0.950 . S
C147 C178 1.383 . S
H148 C167 0.947 . S
H149 C168 0.946 . S
H150 C170 0.953 . S
H151 C171 0.945 . S
H152 C173 0.952 . S
H153 C174 0.949 . S
H154 C176 0.950 . S
H155 C177 0.948 . S
H156 C179 0.951 . S
H157 C144 0.947 . S
H158 C146 0.952 . S
H159 C147 0.950 . S
N160 C163 1.382 . S
N160 C165 1.363 . S
N161 C163 1.371 . S
N161 C164 1.372 . S
N162 C164 1.361 . S
N162 C165 1.377 . S
C163 N160 1.382 . S
C163 N161 1.371 . S
C163 C166 1.480 . S
C164 N161 1.372 . S
C164 N162 1.361 . S
C164 C172 1.457 . S
C165 N160 1.363 . S
C165 N162 1.377 . S
C165 C178 1.479 . S
C166 C163 1.480 . S
C166 C167 1.383 . S
C166 C171 1.385 . S
C167 H148 0.947 . S
C167 C166 1.383 . S
C167 C168 1.388 . S
C168 H149 0.946 . S
C168 C167 1.388 . S
C168 C169 1.384 . S
C169 C168 1.384 . S
C169 C170 1.377 . S
C170 H150 0.953 . S
C170 C169 1.377 . S
C170 C171 1.369 . S
C171 H151 0.945 . S
C171 C166 1.385 . S
C171 C170 1.369 . S
C172 C164 1.457 . S
C172 C173 1.372 . S
C172 C177 1.364 . S
C173 H152 0.952 . S
C173 C172 1.372 . S
C173 C174 1.389 . S
C174 H153 0.949 . S
C174 C173 1.389 . S
C174 C175 1.387 . S
C175 C174 1.387 . S
C175 C176 1.372 . S
C176 H154 0.950 . S
C176 C175 1.372 . S
C176 C177 1.379 . S
C177 H155 0.948 . S
C177 C172 1.364 . S
C177 C176 1.379 . S
C178 C147 1.383 . S
C178 C165 1.479 . S
C178 C179 1.398 . S
C179 C144 1.382 . S
C179 H156 0.951 . S
C179 C178 1.398 . S
C180 C181 1.384 . S
C180 H193 0.947 . S
C180 C215 1.382 . S
C181 C180 1.384 . S
C181 C182 1.378 . S
C182 C181 1.378 . S
C182 C183 1.378 . S
C182 H194 0.952 . S
C183 C182 1.378 . S
C183 H195 0.950 . S
C183 C214 1.383 . S
H184 C203 0.947 . S
H185 C204 0.946 . S
H186 C206 0.953 . S
H187 C207 0.945 . S
H188 C209 0.952 . S
H189 C210 0.949 . S
H190 C212 0.950 . S
H191 C213 0.948 . S
H192 C215 0.951 . S
H193 C180 0.947 . S
H194 C182 0.952 . S
H195 C183 0.950 . S
N196 C199 1.382 . S
N196 C201 1.363 . S
N197 C199 1.371 . S
N197 C200 1.372 . S
N198 C200 1.361 . S
N198 C201 1.377 . S
C199 N196 1.382 . S
C199 N197 1.371 . S
C199 C202 1.480 . S
C200 N197 1.372 . S
C200 N198 1.361 . S
C200 C208 1.457 . S
C201 N196 1.363 . S
C201 N198 1.377 . S
C201 C214 1.479 . S
C202 C199 1.480 . S
C202 C203 1.383 . S
C202 C207 1.385 . S
C203 H184 0.947 . S
C203 C202 1.383 . S
C203 C204 1.388 . S
C204 H185 0.946 . S
C204 C203 1.388 . S
C204 C205 1.384 . S
C205 C204 1.384 . S
C205 C206 1.377 . S
C206 H186 0.953 . S
C206 C205 1.377 . S
C206 C207 1.369 . S
C207 H187 0.945 . S
C207 C202 1.385 . S
C207 C206 1.369 . S
C208 C200 1.457 . S
C208 C209 1.372 . S
C208 C213 1.364 . S
C209 H188 0.952 . S
C209 C208 1.372 . S
C209 C210 1.389 . S
C210 H189 0.949 . S
C210 C209 1.389 . S
C210 C211 1.387 . S
C211 C210 1.387 . S
C211 C212 1.372 . S
C212 H190 0.950 . S
C212 C211 1.372 . S
C212 C213 1.379 . S
C213 H191 0.948 . S
C213 C208 1.364 . S
C213 C212 1.379 . S
C214 C183 1.383 . S
C214 C201 1.479 . S
C214 C215 1.398 . S
C215 C180 1.382 . S
C215 H192 0.951 . S
C215 C214 1.398 . S
C216 C217 1.384 . S
C216 H229 0.947 . S
C216 C251 1.382 . S
C217 C216 1.384 . S
C217 C218 1.378 . S
C218 C217 1.378 . S
C218 C219 1.378 . S
C218 H230 0.952 . S
C219 C218 1.378 . S
C219 H231 0.950 . S
C219 C250 1.383 . S
H220 C239 0.947 . S
H221 C240 0.946 . S
H222 C242 0.953 . S
H223 C243 0.945 . S
H224 C245 0.952 . S
H225 C246 0.949 . S
H226 C248 0.950 . S
H227 C249 0.948 . S
H228 C251 0.951 . S
H229 C216 0.947 . S
H230 C218 0.952 . S
H231 C219 0.950 . S
N232 C235 1.382 . S
N232 C237 1.363 . S
N233 C235 1.371 . S
N233 C236 1.372 . S
N234 C236 1.361 . S
N234 C237 1.377 . S
C235 N232 1.382 . S
C235 N233 1.371 . S
C235 C238 1.480 . S
C236 N233 1.372 . S
C236 N234 1.361 . S
C236 C244 1.457 . S
C237 N232 1.363 . S
C237 N234 1.377 . S
C237 C250 1.479 . S
C238 C235 1.480 . S
C238 C239 1.383 . S
C238 C243 1.385 . S
C239 H220 0.947 . S
C239 C238 1.383 . S
C239 C240 1.388 . S
C240 H221 0.946 . S
C240 C239 1.388 . S
C240 C241 1.384 . S
C241 C240 1.384 . S
C241 C242 1.377 . S
C242 H222 0.953 . S
C242 C241 1.377 . S
C242 C243 1.369 . S
C243 H223 0.945 . S
C243 C238 1.385 . S
C243 C242 1.369 . S
C244 C236 1.457 . S
C244 C245 1.372 . S
C244 C249 1.364 . S
C245 H224 0.952 . S
C245 C244 1.372 . S
C245 C246 1.389 . S
C246 H225 0.949 . S
C246 C245 1.389 . S
C246 C247 1.387 . S
C247 C246 1.387 . S
C247 C248 1.372 . S
C248 H226 0.950 . S
C248 C247 1.372 . S
C248 C249 1.379 . S
C249 H227 0.948 . S
C249 C244 1.364 . S
C249 C248 1.379 . S
C250 C219 1.383 . S
C250 C237 1.479 . S
C250 C251 1.398 . S
C251 C216 1.382 . S
C251 H228 0.951 . S
C251 C250 1.398 . S
C252 C253 1.384 . S
C252 H265 0.947 . S
C252 C287 1.382 . S
C253 C252 1.384 . S
C253 C254 1.378 . S
C254 C253 1.378 . S
C254 C255 1.378 . S
C254 H266 0.952 . S
C255 C254 1.378 . S
C255 H267 0.950 . S
C255 C286 1.383 . S
H256 C275 0.947 . S
H257 C276 0.946 . S
H258 C278 0.953 . S
H259 C279 0.945 . S
H260 C281 0.952 . S
H261 C282 0.949 . S
H262 C284 0.950 . S
H263 C285 0.948 . S
H264 C287 0.951 . S
H265 C252 0.947 . S
H266 C254 0.952 . S
H267 C255 0.950 . S
N268 C271 1.382 . S
N268 C273 1.363 . S
N269 C271 1.371 . S
N269 C272 1.372 . S
N270 C272 1.361 . S
N270 C273 1.377 . S
C271 N268 1.382 . S
C271 N269 1.371 . S
C271 C274 1.480 . S
C272 N269 1.372 . S
C272 N270 1.361 . S
C272 C280 1.457 . S
C273 N268 1.363 . S
C273 N270 1.377 . S
C273 C286 1.479 . S
C274 C271 1.480 . S
C274 C275 1.383 . S
C274 C279 1.385 . S
C275 H256 0.947 . S
C275 C274 1.383 . S
C275 C276 1.388 . S
C276 H257 0.946 . S
C276 C275 1.388 . S
C276 C277 1.384 . S
C277 C276 1.384 . S
C277 C278 1.377 . S
C278 H258 0.953 . S
C278 C277 1.377 . S
C278 C279 1.369 . S
C279 H259 0.945 . S
C279 C274 1.385 . S
C279 C278 1.369 . S
C280 C272 1.457 . S
C280 C281 1.372 . S
C280 C285 1.364 . S
C281 H260 0.952 . S
C281 C280 1.372 . S
C281 C282 1.389 . S
C282 H261 0.949 . S
C282 C281 1.389 . S
C282 C283 1.387 . S
C283 C282 1.387 . S
C283 C284 1.372 . S
C284 H262 0.950 . S
C284 C283 1.372 . S
C284 C285 1.379 . S
C285 H263 0.948 . S
C285 C280 1.364 . S
C285 C284 1.379 . S
C286 C255 1.383 . S
C286 C273 1.479 . S
C286 C287 1.398 . S
C287 C252 1.382 . S
C287 H264 0.951 . S
C287 C286 1.398 . S
Zn288 O294 1.920 . S
Zn288 O300 1.898 . S
Zn288 O303 1.905 . S
Zn289 O297 1.905 . S
Zn289 O298 1.898 . S
Zn289 O306 1.920 . S
Zn290 O293 2.080 . S
Zn290 O296 2.114 . S
Zn290 O299 2.120 . S
Zn290 O301 2.120 . S
Zn290 O302 2.114 . S
Zn290 O305 2.080 . S
C291 O296 1.166 . S
C291 O297 1.182 . S
C292 O298 1.167 . S
C292 O299 1.299 . S
O293 Zn290 2.080 . S
O293 C307 1.305 . S
O294 Zn288 1.920 . S
O294 C307 1.234 . S
C295 O300 1.167 . S
C295 O301 1.299 . S
O296 Zn290 2.114 . S
O296 C291 1.166 . S
O297 Zn289 1.905 . S
O297 C291 1.182 . S
O298 Zn289 1.898 . S
O298 C292 1.167 . S
O299 Zn290 2.120 . S
O299 C292 1.299 . S
O300 Zn288 1.898 . S
O300 C295 1.167 . S
O301 Zn290 2.120 . S
O301 C295 1.299 . S
O302 Zn290 2.114 . S
O302 C304 1.166 . S
O303 Zn288 1.905 . S
O303 C304 1.182 . S
C304 O302 1.166 . S
C304 O303 1.182 . S
O305 Zn290 2.080 . S
O305 C308 1.305 . S
O306 Zn289 1.920 . S
O306 C308 1.234 . S
C307 O293 1.305 . S
C307 O294 1.234 . S
C308 O305 1.305 . S
C308 O306 1.234 . S
Zn309 O315 1.920 . S
Zn309 O321 1.898 . S
Zn309 O324 1.905 . S
Zn310 O318 1.905 . S
Zn310 O319 1.898 . S
Zn310 O327 1.920 . S
Zn311 O314 2.080 . S
Zn311 O317 2.114 . S
Zn311 O320 2.120 . S
Zn311 O322 2.120 . S
Zn311 O323 2.114 . S
Zn311 O326 2.080 . S
C312 O317 1.166 . S
C312 O318 1.182 . S
C313 O319 1.167 . S
C313 O320 1.299 . S
O314 Zn311 2.080 . S
O314 C328 1.305 . S
O315 Zn309 1.920 . S
O315 C328 1.234 . S
C316 O321 1.167 . S
C316 O322 1.299 . S
O317 Zn311 2.114 . S
O317 C312 1.166 . S
O318 Zn310 1.905 . S
O318 C312 1.182 . S
O319 Zn310 1.898 . S
O319 C313 1.167 . S
O320 Zn311 2.120 . S
O320 C313 1.299 . S
O321 Zn309 1.898 . S
O321 C316 1.167 . S
O322 Zn311 2.120 . S
O322 C316 1.299 . S
O323 Zn311 2.114 . S
O323 C325 1.166 . S
O324 Zn309 1.905 . S
O324 C325 1.182 . S
C325 O323 1.166 . S
C325 O324 1.182 . S
O326 Zn311 2.080 . S
O326 C329 1.305 . S
O327 Zn310 1.920 . S
O327 C329 1.234 . S
C328 O314 1.305 . S
C328 O315 1.234 . S
C329 O326 1.305 . S
C329 O327 1.234 . S
Zn330 O336 1.920 . S
Zn330 O342 1.898 . S
Zn330 O345 1.905 . S
Zn331 O339 1.905 . S
Zn331 O340 1.898 . S
Zn331 O348 1.920 . S
Zn332 O335 2.080 . S
Zn332 O338 2.114 . S
Zn332 O341 2.120 . S
Zn332 O343 2.120 . S
Zn332 O344 2.114 . S
Zn332 O347 2.080 . S
C333 O338 1.166 . S
C333 O339 1.182 . S
C334 O340 1.167 . S
C334 O341 1.299 . S
O335 Zn332 2.080 . S
O335 C349 1.305 . S
O336 Zn330 1.920 . S
O336 C349 1.234 . S
C337 O342 1.167 . S
C337 O343 1.299 . S
O338 Zn332 2.114 . S
O338 C333 1.166 . S
O339 Zn331 1.905 . S
O339 C333 1.182 . S
O340 Zn331 1.898 . S
O340 C334 1.167 . S
O341 Zn332 2.120 . S
O341 C334 1.299 . S
O342 Zn330 1.898 . S
O342 C337 1.167 . S
O343 Zn332 2.120 . S
O343 C337 1.299 . S
O344 Zn332 2.114 . S
O344 C346 1.166 . S
O345 Zn330 1.905 . S
O345 C346 1.182 . S
C346 O344 1.166 . S
C346 O345 1.182 . S
O347 Zn332 2.080 . S
O347 C350 1.305 . S
O348 Zn331 1.920 . S
O348 C350 1.234 . S
C349 O335 1.305 . S
C349 O336 1.234 . S
C350 O347 1.305 . S
C350 O348 1.234 . S
Zn351 O357 1.920 . S
Zn351 O363 1.898 . S
Zn351 O366 1.905 . S
Zn352 O360 1.905 . S
Zn352 O361 1.898 . S
Zn352 O369 1.920 . S
Zn353 O356 2.080 . S
Zn353 O359 2.114 . S
Zn353 O362 2.120 . S
Zn353 O364 2.120 . S
Zn353 O365 2.114 . S
Zn353 O368 2.080 . S
C354 O359 1.166 . S
C354 O360 1.182 . S
C355 O361 1.167 . S
C355 O362 1.299 . S
O356 Zn353 2.080 . S
O356 C370 1.305 . S
O357 Zn351 1.920 . S
O357 C370 1.234 . S
C358 O363 1.167 . S
C358 O364 1.299 . S
O359 Zn353 2.114 . S
O359 C354 1.166 . S
O360 Zn352 1.905 . S
O360 C354 1.182 . S
O361 Zn352 1.898 . S
O361 C355 1.167 . S
O362 Zn353 2.120 . S
O362 C355 1.299 . S
O363 Zn351 1.898 . S
O363 C358 1.167 . S
O364 Zn353 2.120 . S
O364 C358 1.299 . S
O365 Zn353 2.114 . S
O365 C367 1.166 . S
O366 Zn351 1.905 . S
O366 C367 1.182 . S
C367 O365 1.166 . S
C367 O366 1.182 . S
O368 Zn353 2.080 . S
O368 C371 1.305 . S
O369 Zn352 1.920 . S
O369 C371 1.234 . S
C370 O356 1.305 . S
C370 O357 1.234 . S
C371 O368 1.305 . S
C371 O369 1.234 . S
H372 C380 0.929 . S
H373 C382 0.930 . S
H374 C384 0.930 . S
H375 C387 0.929 . S
H376 C390 0.930 . S
H377 C392 0.960 . S
H378 C392 0.960 . S
H379 C392 0.960 . S
C380 H372 0.929 . S
C380 C381 1.377 . S
C380 C382 1.384 . S
C381 C380 1.377 . S
C381 C387 1.390 . S
C382 H373 0.930 . S
C382 C380 1.384 . S
C382 C383 1.372 . S
C383 C382 1.372 . S
C383 C384 1.400 . S
C383 C388 1.490 . S
C384 H374 0.930 . S
C384 C383 1.400 . S
C384 C387 1.386 . S
H385 C401 0.930 . S
H386 C402 0.931 . S
C387 H375 0.929 . S
C387 C381 1.390 . S
C387 C384 1.386 . S
C388 C383 1.490 . S
C388 C390 1.395 . S
C388 C391 1.403 . S
H389 C395 0.930 . S
C390 H376 0.930 . S
C390 C388 1.395 . S
C390 C393 1.403 . S
C391 C388 1.403 . S
C391 C392 1.524 . S
C391 C395 1.400 . S
C392 H377 0.960 . S
C392 H378 0.960 . S
C392 H379 0.960 . S
C392 C391 1.524 . S
C393 C390 1.403 . S
C393 C394 1.392 . S
C393 C397 1.495 . S
C394 C393 1.392 . S
C394 C395 1.385 . S
C394 C396 1.478 . S
C395 H389 0.930 . S
C395 C391 1.400 . S
C395 C394 1.385 . S
C396 C394 1.478 . S
C396 C398 1.381 . S
C396 C402 1.383 . S
C397 C393 1.495 . S
C397 H403 0.959 . S
C397 H404 0.961 . S
C397 H405 0.960 . S
C398 C396 1.381 . S
C398 C399 1.394 . S
C398 H406 0.930 . S
C399 C398 1.394 . S
C399 C400 1.383 . S
C399 H407 0.929 . S
C400 C399 1.383 . S
C400 C401 1.377 . S
C401 H385 0.930 . S
C401 C400 1.377 . S
C401 C402 1.379 . S
C402 H386 0.931 . S
C402 C396 1.383 . S
C402 C401 1.379 . S
H403 C397 0.959 . S
H404 C397 0.961 . S
H405 C397 0.960 . S
H406 C398 0.930 . S
H407 C399 0.929 . S
H408 C416 0.929 . S
H409 C418 0.930 . S
H410 C420 0.930 . S
H411 C423 0.929 . S
H412 C426 0.930 . S
H413 C428 0.960 . S
H414 C428 0.960 . S
H415 C428 0.960 . S
C416 H408 0.929 . S
C416 C417 1.377 . S
C416 C418 1.384 . S
C417 C416 1.377 . S
C417 C423 1.390 . S
C418 H409 0.930 . S
C418 C416 1.384 . S
C418 C419 1.372 . S
C419 C418 1.372 . S
C419 C420 1.400 . S
C419 C424 1.490 . S
C420 H410 0.930 . S
C420 C419 1.400 . S
C420 C423 1.386 . S
H421 C437 0.930 . S
H422 C438 0.931 . S
C423 H411 0.929 . S
C423 C417 1.390 . S
C423 C420 1.386 . S
C424 C419 1.490 . S
C424 C426 1.395 . S
C424 C427 1.403 . S
H425 C431 0.930 . S
C426 H412 0.930 . S
C426 C424 1.395 . S
C426 C429 1.403 . S
C427 C424 1.403 . S
C427 C428 1.524 . S
C427 C431 1.400 . S
C428 H413 0.960 . S
C428 H414 0.960 . S
C428 H415 0.960 . S
C428 C427 1.524 . S
C429 C426 1.403 . S
C429 C430 1.392 . S
C429 C433 1.495 . S
C430 C429 1.392 . S
C430 C431 1.385 . S
C430 C432 1.478 . S
C431 H425 0.930 . S
C431 C427 1.400 . S
C431 C430 1.385 . S
C432 C430 1.478 . S
C432 C434 1.381 . S
C432 C438 1.383 . S
C433 C429 1.495 . S
C433 H439 0.959 . S
C433 H440 0.961 . S
C433 H441 0.960 . S
C434 C432 1.381 . S
C434 C435 1.394 . S
C434 H442 0.930 . S
C435 C434 1.394 . S
C435 C436 1.383 . S
C435 H443 0.929 . S
C436 C435 1.383 . S
C436 C437 1.377 . S
C437 H421 0.930 . S
C437 C436 1.377 . S
C437 C438 1.379 . S
C438 H422 0.931 . S
C438 C432 1.383 . S
C438 C437 1.379 . S
H439 C433 0.959 . S
H440 C433 0.961 . S
H441 C433 0.960 . S
H442 C434 0.930 . S
H443 C435 0.929 . S
H444 C452 0.929 . S
H445 C454 0.930 . S
H446 C456 0.930 . S
H447 C459 0.929 . S
H448 C462 0.930 . S
H449 C464 0.960 . S
H450 C464 0.960 . S
H451 C464 0.960 . S
C452 H444 0.929 . S
C452 C453 1.377 . S
C452 C454 1.384 . S
C453 C452 1.377 . S
C453 C459 1.390 . S
C454 H445 0.930 . S
C454 C452 1.384 . S
C454 C455 1.372 . S
C455 C454 1.372 . S
C455 C456 1.400 . S
C455 C460 1.490 . S
C456 H446 0.930 . S
C456 C455 1.400 . S
C456 C459 1.386 . S
H457 C473 0.930 . S
H458 C474 0.931 . S
C459 H447 0.929 . S
C459 C453 1.390 . S
C459 C456 1.386 . S
C460 C455 1.490 . S
C460 C462 1.395 . S
C460 C463 1.403 . S
H461 C467 0.930 . S
C462 H448 0.930 . S
C462 C460 1.395 . S
C462 C465 1.403 . S
C463 C460 1.403 . S
C463 C464 1.524 . S
C463 C467 1.400 . S
C464 H449 0.960 . S
C464 H450 0.960 . S
C464 H451 0.960 . S
C464 C463 1.524 . S
C465 C462 1.403 . S
C465 C466 1.392 . S
C465 C469 1.495 . S
C466 C465 1.392 . S
C466 C467 1.385 . S
C466 C468 1.478 . S
C467 H461 0.930 . S
C467 C463 1.400 . S
C467 C466 1.385 . S
C468 C466 1.478 . S
C468 C470 1.381 . S
C468 C474 1.383 . S
C469 C465 1.495 . S
C469 H475 0.959 . S
C469 H476 0.961 . S
C469 H477 0.960 . S
C470 C468 1.381 . S
C470 C471 1.394 . S
C470 H478 0.930 . S
C471 C470 1.394 . S
C471 C472 1.383 . S
C471 H479 0.929 . S
C472 C471 1.383 . S
C472 C473 1.377 . S
C473 H457 0.930 . S
C473 C472 1.377 . S
C473 C474 1.379 . S
C474 H458 0.931 . S
C474 C468 1.383 . S
C474 C473 1.379 . S
H475 C469 0.959 . S
H476 C469 0.961 . S
H477 C469 0.960 . S
H478 C470 0.930 . S
H479 C471 0.929 . S
H480 C488 0.929 . S
H481 C490 0.930 . S
H482 C492 0.930 . S
H483 C495 0.929 . S
H484 C498 0.930 . S
H485 C500 0.960 . S
H486 C500 0.960 . S
H487 C500 0.960 . S
C488 H480 0.929 . S
C488 C489 1.377 . S
C488 C490 1.384 . S
C489 C488 1.377 . S
C489 C495 1.390 . S
C490 H481 0.930 . S
C490 C488 1.384 . S
C490 C491 1.372 . S
C491 C490 1.372 . S
C491 C492 1.400 . S
C491 C496 1.490 . S
C492 H482 0.930 . S
C492 C491 1.400 . S
C492 C495 1.386 . S
H493 C509 0.930 . S
H494 C510 0.931 . S
C495 H483 0.929 . S
C495 C489 1.390 . S
C495 C492 1.386 . S
C496 C491 1.490 . S
C496 C498 1.395 . S
C496 C499 1.403 . S
H497 C503 0.930 . S
C498 H484 0.930 . S
C498 C496 1.395 . S
C498 C501 1.403 . S
C499 C496 1.403 . S
C499 C500 1.524 . S
C499 C503 1.400 . S
C500 H485 0.960 . S
C500 H486 0.960 . S
C500 H487 0.960 . S
C500 C499 1.524 . S
C501 C498 1.403 . S
C501 C502 1.392 . S
C501 C505 1.495 . S
C502 C501 1.392 . S
C502 C503 1.385 . S
C502 C504 1.478 . S
C503 H497 0.930 . S
C503 C499 1.400 . S
C503 C502 1.385 . S
C504 C502 1.478 . S
C504 C506 1.381 . S
C504 C510 1.383 . S
C505 C501 1.495 . S
C505 H511 0.959 . S
C505 H512 0.961 . S
C505 H513 0.960 . S
C506 C504 1.381 . S
C506 C507 1.394 1_655 S
C506 H514 0.930 . S
C507 C506 1.394 1_455 S
C507 C508 1.383 . S
C507 H515 0.929 . S
C508 C507 1.383 . S
C508 C509 1.377 . S
C509 H493 0.930 . S
C509 C508 1.377 . S
C509 C510 1.379 1_455 S
C510 H494 0.931 . S
C510 C504 1.383 . S
C510 C509 1.379 1_655 S
H511 C505 0.959 . S
H512 C505 0.961 . S
H513 C505 0.960 . S
H514 C506 0.930 . S
H515 C507 0.929 . S
H516 C524 0.929 . S
H517 C526 0.930 . S
H518 C528 0.930 . S
H519 C531 0.929 . S
H520 C534 0.930 . S
H521 C536 0.960 . S
H522 C536 0.960 . S
H523 C536 0.960 . S
C524 H516 0.929 . S
C524 C525 1.377 . S
C524 C526 1.384 . S
C525 C524 1.377 . S
C525 C531 1.390 . S
C526 H517 0.930 . S
C526 C524 1.384 . S
C526 C527 1.372 . S
C527 C526 1.372 . S
C527 C528 1.400 . S
C527 C532 1.490 . S
C528 H518 0.930 . S
C528 C527 1.400 . S
C528 C531 1.386 . S
H529 C545 0.930 . S
H530 C546 0.931 . S
C531 H519 0.929 . S
C531 C525 1.390 . S
C531 C528 1.386 . S
C532 C527 1.490 . S
C532 C534 1.395 . S
C532 C535 1.403 . S
H533 C539 0.930 . S
C534 H520 0.930 . S
C534 C532 1.395 . S
C534 C537 1.403 . S
C535 C532 1.403 . S
C535 C536 1.524 . S
C535 C539 1.400 . S
C536 H521 0.960 . S
C536 H522 0.960 . S
C536 H523 0.960 . S
C536 C535 1.524 . S
C537 C534 1.403 . S
C537 C538 1.392 . S
C537 C541 1.495 . S
C538 C537 1.392 . S
C538 C539 1.385 . S
C538 C540 1.478 . S
C539 H533 0.930 . S
C539 C535 1.400 . S
C539 C538 1.385 . S
C540 C538 1.478 . S
C540 C542 1.381 . S
C540 C546 1.383 . S
C541 C537 1.495 . S
C541 H547 0.959 . S
C541 H548 0.961 . S
C541 H549 0.960 . S
C542 C540 1.381 . S
C542 C543 1.394 . S
C542 H550 0.930 . S
C543 C542 1.394 . S
C543 C544 1.383 . S
C543 H551 0.929 . S
C544 C543 1.383 . S
C544 C545 1.377 . S
C545 H529 0.930 . S
C545 C544 1.377 . S
C545 C546 1.379 . S
C546 H530 0.931 . S
C546 C540 1.383 . S
C546 C545 1.379 . S
H547 C541 0.959 . S
H548 C541 0.961 . S
H549 C541 0.960 . S
H550 C542 0.930 . S
H551 C543 0.929 . S
H552 C560 0.929 . S
H553 C562 0.930 . S
H554 C564 0.930 . S
H555 C567 0.929 . S
H556 C570 0.930 . S
H557 C572 0.960 . S
H558 C572 0.960 . S
H559 C572 0.960 . S
C560 H552 0.929 . S
C560 C561 1.377 . S
C560 C562 1.384 . S
C561 C560 1.377 . S
C561 C567 1.390 . S
C562 H553 0.930 . S
C562 C560 1.384 . S
C562 C563 1.372 . S
C563 C562 1.372 . S
C563 C564 1.400 . S
C563 C568 1.490 . S
C564 H554 0.930 . S
C564 C563 1.400 . S
C564 C567 1.386 . S
H565 C581 0.930 . S
H566 C582 0.931 . S
C567 H555 0.929 . S
C567 C561 1.390 . S
C567 C564 1.386 . S
C568 C563 1.490 . S
C568 C570 1.395 . S
C568 C571 1.403 . S
H569 C575 0.930 . S
C570 H556 0.930 . S
C570 C568 1.395 . S
C570 C573 1.403 . S
C571 C568 1.403 . S
C571 C572 1.524 . S
C571 C575 1.400 . S
C572 H557 0.960 . S
C572 H558 0.960 . S
C572 H559 0.960 . S
C572 C571 1.524 . S
C573 C570 1.403 . S
C573 C574 1.392 . S
C573 C577 1.495 . S
C574 C573 1.392 . S
C574 C575 1.385 . S
C574 C576 1.478 . S
C575 H569 0.930 . S
C575 C571 1.400 . S
C575 C574 1.385 . S
C576 C574 1.478 . S
C576 C578 1.381 . S
C576 C582 1.383 . S
C577 C573 1.495 . S
C577 H583 0.959 . S
C577 H584 0.961 . S
C577 H585 0.960 . S
C578 C576 1.381 . S
C578 C579 1.394 1_655 S
C578 H586 0.930 . S
C579 C578 1.394 1_455 S
C579 C580 1.383 . S
C579 H587 0.929 . S
C580 C579 1.383 . S
C580 C581 1.377 . S
C581 H565 0.930 . S
C581 C580 1.377 . S
C581 C582 1.379 1_455 S
C582 H566 0.931 . S
C582 C576 1.383 . S
C582 C581 1.379 1_655 S
H583 C577 0.959 . S
H584 C577 0.961 . S
H585 C577 0.960 . S
H586 C578 0.930 . S
H587 C579 0.929 . S
H588 C596 0.929 . S
H589 C598 0.930 . S
H590 C600 0.930 . S
H591 C603 0.929 . S
H592 C606 0.930 . S
H593 C608 0.960 . S
H594 C608 0.960 . S
H595 C608 0.960 . S
C596 H588 0.929 . S
C596 C597 1.377 . S
C596 C598 1.384 . S
C597 C596 1.377 . S
C597 C603 1.390 . S
C598 H589 0.930 . S
C598 C596 1.384 . S
C598 C599 1.372 . S
C599 C598 1.372 . S
C599 C600 1.400 . S
C599 C604 1.490 . S
C600 H590 0.930 . S
C600 C599 1.400 . S
C600 C603 1.386 . S
H601 C617 0.930 . S
H602 C618 0.931 . S
C603 H591 0.929 . S
C603 C597 1.390 . S
C603 C600 1.386 . S
C604 C599 1.490 . S
C604 C606 1.395 . S
C604 C607 1.403 . S
H605 C611 0.930 . S
C606 H592 0.930 . S
C606 C604 1.395 . S
C606 C609 1.403 . S
C607 C604 1.403 . S
C607 C608 1.524 . S
C607 C611 1.400 . S
C608 H593 0.960 . S
C608 H594 0.960 . S
C608 H595 0.960 . S
C608 C607 1.524 . S
C609 C606 1.403 . S
C609 C610 1.392 . S
C609 C613 1.495 . S
C610 C609 1.392 . S
C610 C611 1.385 . S
C610 C612 1.478 . S
C611 H605 0.930 . S
C611 C607 1.400 . S
C611 C610 1.385 . S
C612 C610 1.478 . S
C612 C614 1.381 . S
C612 C618 1.383 . S
C613 C609 1.495 . S
C613 H619 0.959 . S
C613 H620 0.961 . S
C613 H621 0.960 . S
C614 C612 1.381 . S
C614 C615 1.394 . S
C614 H622 0.930 . S
C615 C614 1.394 . S
C615 C616 1.383 . S
C615 H623 0.929 . S
C616 C615 1.383 . S
C616 C617 1.377 . S
C617 H601 0.930 . S
C617 C616 1.377 . S
C617 C618 1.379 . S
C618 H602 0.931 . S
C618 C612 1.383 . S
C618 C617 1.379 . S
H619 C613 0.959 . S
H620 C613 0.961 . S
H621 C613 0.960 . S
H622 C614 0.930 . S
H623 C615 0.929 . S
H624 C632 0.929 . S
H625 C634 0.930 . S
H626 C636 0.930 . S
H627 C639 0.929 . S
H628 C642 0.930 . S
H629 C644 0.960 . S
H630 C644 0.960 . S
H631 C644 0.960 . S
C632 H624 0.929 . S
C632 C633 1.377 . S
C632 C634 1.384 . S
C633 C632 1.377 . S
C633 C639 1.390 . S
C634 H625 0.930 . S
C634 C632 1.384 . S
C634 C635 1.372 . S
C635 C634 1.372 . S
C635 C636 1.400 . S
C635 C640 1.490 . S
C636 H626 0.930 . S
C636 C635 1.400 . S
C636 C639 1.386 . S
H637 C653 0.930 . S
H638 C654 0.931 . S
C639 H627 0.929 . S
C639 C633 1.390 . S
C639 C636 1.386 . S
C640 C635 1.490 . S
C640 C642 1.395 . S
C640 C643 1.403 . S
H641 C647 0.930 . S
C642 H628 0.930 . S
C642 C640 1.395 . S
C642 C645 1.403 . S
C643 C640 1.403 . S
C643 C644 1.524 . S
C643 C647 1.400 . S
C644 H629 0.960 . S
C644 H630 0.960 . S
C644 H631 0.960 . S
C644 C643 1.524 . S
C645 C642 1.403 . S
C645 C646 1.392 . S
C645 C649 1.495 . S
C646 C645 1.392 . S
C646 C647 1.385 . S
C646 C648 1.478 . S
C647 H641 0.930 . S
C647 C643 1.400 . S
C647 C646 1.385 . S
C648 C646 1.478 . S
C648 C650 1.381 . S
C648 C654 1.383 . S
C649 C645 1.495 . S
C649 H655 0.959 . S
C649 H656 0.961 . S
C649 H657 0.960 . S
C650 C648 1.381 . S
C650 C651 1.394 . S
C650 H658 0.930 . S
C651 C650 1.394 . S
C651 C652 1.383 . S
C651 H659 0.929 . S
C652 C651 1.383 . S
C652 C653 1.377 . S
C653 H637 0.930 . S
C653 C652 1.377 . S
C653 C654 1.379 . S
C654 H638 0.931 . S
C654 C648 1.383 . S
C654 C653 1.379 . S
H655 C649 0.959 . S
H656 C649 0.961 . S
H657 C649 0.960 . S
H658 C650 0.930 . S
H659 C651 0.929 . S
H660 C668 0.929 . S
H661 C670 0.930 . S
H662 C672 0.930 . S
H663 C675 0.929 . S
H664 C678 0.930 . S
H665 C680 0.960 . S
H666 C680 0.960 . S
H667 C680 0.960 . S
C668 H660 0.929 . S
C668 C669 1.377 . S
C668 C670 1.384 . S
C669 C668 1.377 . S
C669 C675 1.390 . S
C670 H661 0.930 . S
C670 C668 1.384 . S
C670 C671 1.372 . S
C671 C670 1.372 . S
C671 C672 1.400 . S
C671 C676 1.490 . S
C672 H662 0.930 . S
C672 C671 1.400 . S
C672 C675 1.386 . S
H673 C689 0.930 . S
H674 C690 0.931 . S
C675 H663 0.929 . S
C675 C669 1.390 . S
C675 C672 1.386 . S
C676 C671 1.490 . S
C676 C678 1.395 . S
C676 C679 1.403 . S
H677 C683 0.930 . S
C678 H664 0.930 . S
C678 C676 1.395 . S
C678 C681 1.403 . S
C679 C676 1.403 . S
C679 C680 1.524 . S
C679 C683 1.400 . S
C680 H665 0.960 . S
C680 H666 0.960 . S
C680 H667 0.960 . S
C680 C679 1.524 . S
C681 C678 1.403 . S
C681 C682 1.392 . S
C681 C685 1.495 . S
C682 C681 1.392 . S
C682 C683 1.385 . S
C682 C684 1.478 . S
C683 H677 0.930 . S
C683 C679 1.400 . S
C683 C682 1.385 . S
C684 C682 1.478 . S
C684 C686 1.381 . S
C684 C690 1.383 . S
C685 C681 1.495 . S
C685 H691 0.959 . S
C685 H692 0.961 . S
C685 H693 0.960 . S
C686 C684 1.381 . S
C686 C687 1.394 . S
C686 H694 0.930 . S
C687 C686 1.394 . S
C687 C688 1.383 . S
C687 H695 0.929 . S
C688 C687 1.383 . S
C688 C689 1.377 . S
C689 H673 0.930 . S
C689 C688 1.377 . S
C689 C690 1.379 . S
C690 H674 0.931 . S
C690 C684 1.383 . S
C690 C689 1.379 . S
H691 C685 0.959 . S
H692 C685 0.961 . S
H693 C685 0.960 . S
H694 C686 0.930 . S
H695 C687 0.929 . S
H696 C704 0.929 . S
H697 C706 0.930 . S
H698 C708 0.930 . S
H699 C711 0.929 . S
H700 C714 0.930 . S
H701 C716 0.960 . S
H702 C716 0.960 . S
H703 C716 0.960 . S
C704 H696 0.929 . S
C704 C705 1.377 . S
C704 C706 1.384 . S
C705 C704 1.377 . S
C705 C711 1.390 . S
C706 H697 0.930 . S
C706 C704 1.384 . S
C706 C707 1.372 . S
C707 C706 1.372 . S
C707 C708 1.400 . S
C707 C712 1.490 . S
C708 H698 0.930 . S
C708 C707 1.400 . S
C708 C711 1.386 . S
H709 C725 0.930 . S
H710 C726 0.931 . S
C711 H699 0.929 . S
C711 C705 1.390 . S
C711 C708 1.386 . S
C712 C707 1.490 . S
C712 C714 1.395 . S
C712 C715 1.403 . S
H713 C719 0.930 . S
C714 H700 0.930 . S
C714 C712 1.395 . S
C714 C717 1.403 . S
C715 C712 1.403 . S
C715 C716 1.524 . S
C715 C719 1.400 . S
C716 H701 0.960 . S
C716 H702 0.960 . S
C716 H703 0.960 . S
C716 C715 1.524 . S
C717 C714 1.403 . S
C717 C718 1.392 . S
C717 C721 1.495 . S
C718 C717 1.392 . S
C718 C719 1.385 . S
C718 C720 1.478 . S
C719 H713 0.930 . S
C719 C715 1.400 . S
C719 C718 1.385 . S
C720 C718 1.478 . S
C720 C722 1.381 . S
C720 C726 1.383 . S
C721 C717 1.495 . S
C721 H727 0.959 . S
C721 H728 0.961 . S
C721 H729 0.960 . S
C722 C720 1.381 . S
C722 C723 1.394 . S
C722 H730 0.930 . S
C723 C722 1.394 . S
C723 C724 1.383 . S
C723 H731 0.929 . S
C724 C723 1.383 . S
C724 C725 1.377 . S
C725 H709 0.930 . S
C725 C724 1.377 . S
C725 C726 1.379 . S
C726 H710 0.931 . S
C726 C720 1.383 . S
C726 C725 1.379 . S
H727 C721 0.959 . S
H728 C721 0.961 . S
H729 C721 0.960 . S
H730 C722 0.930 . S
H731 C723 0.929 . S
H732 C740 0.929 . S
H733 C742 0.930 . S
H734 C744 0.930 . S
H735 C747 0.929 . S
H736 C750 0.930 . S
H737 C752 0.960 . S
H738 C752 0.960 . S
H739 C752 0.960 . S
C740 H732 0.929 . S
C740 C741 1.377 . S
C740 C742 1.384 . S
C741 C740 1.377 . S
C741 C747 1.390 . S
C742 H733 0.930 . S
C742 C740 1.384 . S
C742 C743 1.372 . S
C743 C742 1.372 . S
C743 C744 1.400 . S
C743 C748 1.490 . S
C744 H734 0.930 . S
C744 C743 1.400 . S
C744 C747 1.386 . S
H745 C761 0.930 . S
H746 C762 0.931 . S
C747 H735 0.929 . S
C747 C741 1.390 . S
C747 C744 1.386 . S
C748 C743 1.490 . S
C748 C750 1.395 . S
C748 C751 1.403 . S
H749 C755 0.930 . S
C750 H736 0.930 . S
C750 C748 1.395 . S
C750 C753 1.403 . S
C751 C748 1.403 . S
C751 C752 1.524 . S
C751 C755 1.400 . S
C752 H737 0.960 . S
C752 H738 0.960 . S
C752 H739 0.960 . S
C752 C751 1.524 . S
C753 C750 1.403 . S
C753 C754 1.392 . S
C753 C757 1.495 . S
C754 C753 1.392 . S
C754 C755 1.385 . S
C754 C756 1.478 . S
C755 H749 0.930 . S
C755 C751 1.400 . S
C755 C754 1.385 . S
C756 C754 1.478 . S
C756 C758 1.381 . S
C756 C762 1.383 . S
C757 C753 1.495 . S
C757 H763 0.959 . S
C757 H764 0.961 . S
C757 H765 0.960 . S
C758 C756 1.381 . S
C758 C759 1.394 . S
C758 H766 0.930 . S
C759 C758 1.394 . S
C759 C760 1.383 . S
C759 H767 0.929 . S
C760 C759 1.383 . S
C760 C761 1.377 . S
C761 H745 0.930 . S
C761 C760 1.377 . S
C761 C762 1.379 . S
C762 H746 0.931 . S
C762 C756 1.383 . S
C762 C761 1.379 . S
H763 C757 0.959 . S
H764 C757 0.961 . S
H765 C757 0.960 . S
H766 C758 0.930 . S
H767 C759 0.929 . S
H768 C776 0.929 . S
H769 C778 0.930 . S
H770 C780 0.930 . S
H771 C783 0.929 . S
H772 C786 0.930 . S
H773 C788 0.960 . S
H774 C788 0.960 . S
H775 C788 0.960 . S
C776 H768 0.929 . S
C776 C777 1.377 . S
C776 C778 1.384 . S
C777 C776 1.377 . S
C777 C783 1.390 . S
C778 H769 0.930 . S
C778 C776 1.384 . S
C778 C779 1.372 . S
C779 C778 1.372 . S
C779 C780 1.400 . S
C779 C784 1.490 . S
C780 H770 0.930 . S
C780 C779 1.400 . S
C780 C783 1.386 . S
H781 C797 0.930 . S
H782 C798 0.931 . S
C783 H771 0.929 . S
C783 C777 1.390 . S
C783 C780 1.386 . S
C784 C779 1.490 . S
C784 C786 1.395 . S
C784 C787 1.403 . S
H785 C791 0.930 . S
C786 H772 0.930 . S
C786 C784 1.395 . S
C786 C789 1.403 . S
C787 C784 1.403 . S
C787 C788 1.524 . S
C787 C791 1.400 . S
C788 H773 0.960 . S
C788 H774 0.960 . S
C788 H775 0.960 . S
C788 C787 1.524 . S
C789 C786 1.403 . S
C789 C790 1.392 . S
C789 C793 1.495 . S
C790 C789 1.392 . S
C790 C791 1.385 . S
C790 C792 1.478 . S
C791 H785 0.930 . S
C791 C787 1.400 . S
C791 C790 1.385 . S
C792 C790 1.478 . S
C792 C794 1.381 . S
C792 C798 1.383 . S
C793 C789 1.495 . S
C793 H799 0.959 . S
C793 H800 0.961 . S
C793 H801 0.960 . S
C794 C792 1.381 . S
C794 C795 1.394 . S
C794 H802 0.930 . S
C795 C794 1.394 . S
C795 C796 1.383 . S
C795 H803 0.929 . S
C796 C795 1.383 . S
C796 C797 1.377 . S
C797 H781 0.930 . S
C797 C796 1.377 . S
C797 C798 1.379 . S
C798 H782 0.931 . S
C798 C792 1.383 . S
C798 C797 1.379 . S
H799 C793 0.959 . S
H800 C793 0.961 . S
H801 C793 0.960 . S
H802 C794 0.930 . S
H803 C795 0.929 . S
H804 C812 0.929 . S
H805 C814 0.930 . S
H806 C816 0.930 . S
H807 C819 0.929 . S
H808 C822 0.930 . S
H809 C824 0.960 . S
H810 C824 0.960 1_565 S
H811 C824 0.960 1_565 S
C812 H804 0.929 . S
C812 C813 1.377 . S
C812 C814 1.384 . S
C813 C812 1.377 . S
C813 C819 1.390 . S
C814 H805 0.930 . S
C814 C812 1.384 . S
C814 C815 1.372 . S
C815 C814 1.372 . S
C815 C816 1.400 . S
C815 C820 1.490 . S
C816 H806 0.930 . S
C816 C815 1.400 . S
C816 C819 1.386 . S
H817 C833 0.930 . S
H818 C834 0.931 . S
C819 H807 0.929 . S
C819 C813 1.390 . S
C819 C816 1.386 . S
C820 C815 1.490 . S
C820 C822 1.395 . S
C820 C823 1.403 1_565 S
H821 C827 0.930 . S
C822 H808 0.930 . S
C822 C820 1.395 . S
C822 C825 1.403 1_565 S
C823 C820 1.403 1_545 S
C823 C824 1.524 . S
C823 C827 1.400 . S
C824 H809 0.960 . S
C824 H810 0.960 1_545 S
C824 H811 0.960 1_545 S
C824 C823 1.524 . S
C825 C822 1.403 1_545 S
C825 C826 1.392 . S
C825 C829 1.495 . S
C826 C825 1.392 . S
C826 C827 1.385 . S
C826 C828 1.478 . S
C827 H821 0.930 . S
C827 C823 1.400 . S
C827 C826 1.385 . S
C828 C826 1.478 . S
C828 C830 1.381 . S
C828 C834 1.383 . S
C829 C825 1.495 . S
C829 H835 0.959 1_545 S
C829 H836 0.961 . S
C829 H837 0.960 . S
C830 C828 1.381 . S
C830 C831 1.394 . S
C830 H838 0.930 . S
C831 C830 1.394 . S
C831 C832 1.383 . S
C831 H839 0.929 . S
C832 C831 1.383 . S
C832 C833 1.377 . S
C833 H817 0.930 . S
C833 C832 1.377 . S
C833 C834 1.379 . S
C834 H818 0.931 . S
C834 C828 1.383 . S
C834 C833 1.379 . S
H835 C829 0.959 1_565 S
H836 C829 0.961 . S
H837 C829 0.960 . S
H838 C830 0.930 . S
H839 C831 0.929 . S
H840 C848 0.929 . S
H841 C850 0.930 . S
H842 C852 0.930 . S
H843 C855 0.929 . S
H844 C858 0.930 . S
H845 C860 0.960 1_565 S
H846 C860 0.960 . S
H847 C860 0.960 . S
C848 H840 0.929 . S
C848 C849 1.377 . S
C848 C850 1.384 . S
C849 C848 1.377 . S
C849 C855 1.390 . S
C850 H841 0.930 . S
C850 C848 1.384 . S
C850 C851 1.372 . S
C851 C850 1.372 . S
C851 C852 1.400 . S
C851 C856 1.509 . S
C852 H842 0.930 . S
C852 C851 1.400 . S
C852 C855 1.386 . S
H853 C869 0.930 . S
H854 C870 0.931 . S
C855 H843 0.929 . S
C855 C849 1.390 . S
C855 C852 1.386 . S
C856 C851 1.509 . S
C856 C858 1.384 1_545 S
C856 C859 1.395 1_545 S
H857 C863 0.930 . S
C858 H844 0.930 . S
C858 C856 1.384 1_565 S
C858 C861 1.403 . S
C859 C856 1.395 1_565 S
C859 C860 1.524 1_565 S
C859 C863 1.400 . S
C860 H845 0.960 1_545 S
C860 H846 0.960 . S
C860 H847 0.960 . S
C860 C859 1.524 1_545 S
C861 C858 1.403 . S
C861 C862 1.392 . S
C861 C865 1.495 . S
C862 C861 1.392 . S
C862 C863 1.385 . S
C862 C864 1.478 . S
C863 H857 0.930 . S
C863 C859 1.400 . S
C863 C862 1.385 . S
C864 C862 1.478 . S
C864 C866 1.381 . S
C864 C870 1.383 . S
C865 C861 1.495 . S
C865 H871 0.959 . S
C865 H872 0.961 . S
C865 H873 0.960 . S
C866 C864 1.381 . S
C866 C867 1.394 . S
C866 H874 0.930 . S
C867 C866 1.394 . S
C867 C868 1.383 . S
C867 H875 0.929 . S
C868 C867 1.383 . S
C868 C869 1.377 . S
C869 H853 0.930 . S
C869 C868 1.377 . S
C869 C870 1.379 . S
C870 H854 0.931 . S
C870 C864 1.383 . S
C870 C869 1.379 . S
H871 C865 0.959 . S
H872 C865 0.961 . S
H873 C865 0.960 . S
H874 C866 0.930 . S
H875 C867 0.929 . S
H876 C884 0.929 . S
H877 C886 0.930 . S
H878 C888 0.930 . S
H879 C891 0.929 . S
H880 C894 0.930 . S
H881 C896 0.960 1_565 S
H882 C896 0.960 . S
H883 C896 0.960 . S
C884 H876 0.929 . S
C884 C885 1.377 . S
C884 C886 1.384 . S
C885 C884 1.377 . S
C885 C891 1.390 . S
C886 H877 0.930 . S
C886 C884 1.384 . S
C886 C887 1.372 . S
C887 C886 1.372 . S
C887 C888 1.400 . S
C887 C892 1.490 1_545 S
C888 H878 0.930 . S
C888 C887 1.400 . S
C888 C891 1.386 . S
H889 C905 0.930 . S
H890 C906 0.931 . S
C891 H879 0.929 . S
C891 C885 1.390 . S
C891 C888 1.386 . S
C892 C887 1.490 1_565 S
C892 C894 1.395 . S
C892 C895 1.403 . S
H893 C899 0.930 . S
C894 H880 0.930 . S
C894 C892 1.395 . S
C894 C897 1.403 . S
C895 C892 1.403 . S
C895 C896 1.524 1_565 S
C895 C899 1.400 . S
C896 H881 0.960 1_545 S
C896 H882 0.960 . S
C896 H883 0.960 . S
C896 C895 1.524 1_545 S
C897 C894 1.403 . S
C897 C898 1.392 . S
C897 C901 1.495 . S
C898 C897 1.392 . S
C898 C899 1.385 . S
C898 C900 1.478 . S
C899 H893 0.930 . S
C899 C895 1.400 . S
C899 C898 1.385 . S
C900 C898 1.478 . S
C900 C902 1.381 . S
C900 C906 1.383 . S
C901 C897 1.495 . S
C901 H907 0.959 . S
C901 H908 0.961 . S
C901 H909 0.960 . S
C902 C900 1.381 . S
C902 C903 1.394 . S
C902 H910 0.930 . S
C903 C902 1.394 . S
C903 C904 1.383 . S
C903 H911 0.929 . S
C904 C903 1.383 . S
C904 C905 1.377 . S
C905 H889 0.930 . S
C905 C904 1.377 . S
C905 C906 1.379 . S
C906 H890 0.931 . S
C906 C900 1.383 . S
C906 C905 1.379 . S
H907 C901 0.959 . S
H908 C901 0.961 . S
H909 C901 0.960 . S
H910 C902 0.930 . S
H911 C903 0.929 . S
H912 C920 0.929 . S
H913 C922 0.930 . S
H914 C924 0.930 . S
H915 C927 0.929 . S
H916 C930 0.930 . S
H917 C932 0.990 . S
H918 C932 0.938 1_565 S
H919 C932 0.947 1_565 S
C920 H912 0.929 . S
C920 C921 1.377 . S
C920 C922 1.384 . S
C921 C920 1.377 . S
C921 C927 1.390 . S
C922 H913 0.930 . S
C922 C920 1.384 . S
C922 C923 1.372 . S
C923 C922 1.372 . S
C923 C924 1.400 . S
C923 C928 1.490 . S
C924 H914 0.930 . S
C924 C923 1.400 . S
C924 C927 1.386 . S
H925 C941 0.930 . S
H926 C942 0.931 . S
C927 H915 0.929 . S
C927 C921 1.390 . S
C927 C924 1.386 . S
C928 C923 1.490 . S
C928 C930 1.395 . S
C928 C931 1.403 1_565 S
H929 C935 0.930 . S
C930 H916 0.930 . S
C930 C928 1.395 . S
C930 C933 1.403 1_565 S
C931 C928 1.403 1_545 S
C931 C932 1.530 . S
C931 C935 1.400 . S
C932 H917 0.990 . S
C932 H918 0.938 1_545 S
C932 H919 0.947 1_545 S
C932 C931 1.530 . S
C933 C930 1.403 1_545 S
C933 C934 1.392 . S
C933 C937 1.495 . S
C934 C933 1.392 . S
C934 C935 1.385 . S
C934 C936 1.478 . S
C935 H929 0.930 . S
C935 C931 1.400 . S
C935 C934 1.385 . S
C936 C934 1.478 . S
C936 C938 1.381 . S
C936 C942 1.383 . S
C937 C933 1.495 . S
C937 H943 0.959 . S
C937 H944 0.961 . S
C937 H945 0.960 . S
C938 C936 1.381 . S
C938 C939 1.394 . S
C938 H946 0.930 . S
C939 C938 1.394 . S
C939 C940 1.383 . S
C939 H947 0.929 . S
C940 C939 1.383 . S
C940 C941 1.377 . S
C941 H925 0.930 . S
C941 C940 1.377 . S
C941 C942 1.379 . S
C942 H926 0.931 . S
C942 C936 1.383 . S
C942 C941 1.379 . S
H943 C937 0.959 . S
H944 C937 0.961 . S
H945 C937 0.960 . S
H946 C938 0.930 . S
H947 C939 0.929 . S
H948 C956 0.933 . S
H949 C958 0.930 . S
H950 C960 0.930 . S
H951 C963 0.929 . S
H952 C966 0.930 . S
H953 C968 0.960 . S
H954 C968 0.960 . S
H955 C968 0.960 . S
C956 H948 0.933 . S
C956 C957 1.386 . S
C956 C958 1.372 1_554 S
C957 C956 1.386 . S
C957 C963 1.390 . S
C958 H949 0.930 . S
C958 C956 1.372 1_556 S
C958 C959 1.372 . S
C959 C958 1.372 . S
C959 C960 1.400 . S
C959 C964 1.490 . S
C960 H950 0.930 . S
C960 C959 1.400 . S
C960 C963 1.386 1_556 S
H961 C977 0.930 . S
H962 C978 0.931 . S
C963 H951 0.929 . S
C963 C957 1.390 . S
C963 C960 1.386 1_554 S
C964 C959 1.490 . S
C964 C966 1.395 . S
C964 C967 1.403 . S
H965 C971 0.930 . S
C966 H952 0.930 . S
C966 C964 1.395 . S
C966 C969 1.403 . S
C967 C964 1.403 . S
C967 C968 1.524 . S
C967 C971 1.400 . S
C968 H953 0.960 . S
C968 H954 0.960 . S
C968 H955 0.960 . S
C968 C967 1.524 . S
C969 C966 1.403 . S
C969 C970 1.392 . S
C969 C973 1.495 . S
C970 C969 1.392 . S
C970 C971 1.385 . S
C970 C972 1.478 . S
C971 H965 0.930 . S
C971 C967 1.400 . S
C971 C970 1.385 . S
C972 C970 1.478 . S
C972 C974 1.381 . S
C972 C978 1.383 . S
C973 C969 1.495 . S
C973 H979 0.959 . S
C973 H980 0.961 . S
C973 H981 0.960 . S
C974 C972 1.381 . S
C974 C975 1.394 . S
C974 H982 0.930 . S
C975 C974 1.394 . S
C975 C976 1.383 . S
C975 H983 0.929 . S
C976 C975 1.383 . S
C976 C977 1.377 . S
C977 H961 0.930 . S
C977 C976 1.377 . S
C977 C978 1.379 . S
C978 H962 0.931 . S
C978 C972 1.383 . S
C978 C977 1.379 . S
H979 C973 0.959 . S
H980 C973 0.961 . S
H981 C973 0.960 . S
H982 C974 0.930 . S
H983 C975 0.929 . S
H984 C992 0.929 . S
H985 C994 0.930 . S
H986 C996 0.930 . S
H987 C999 0.929 . S
H988 C1002 0.930 . S
H989 C1004 0.960 . S
H990 C1004 0.960 . S
H991 C1004 0.960 . S
C992 H984 0.929 . S
C992 C993 1.377 . S
C992 C994 1.384 . S
C993 C992 1.377 . S
C993 C999 1.390 . S
C994 H985 0.930 . S
C994 C992 1.384 . S
C994 C995 1.372 . S
C995 C994 1.372 . S
C995 C996 1.400 . S
C995 C1000 1.490 . S
C996 H986 0.930 . S
C996 C995 1.400 . S
C996 C999 1.386 . S
H997 C1013 0.930 . S
H998 C1014 0.931 . S
C999 H987 0.929 . S
C999 C993 1.390 . S
C999 C996 1.386 . S
C1000 C995 1.490 . S
C1000 C1002 1.395 . S
C1000 C1003 1.403 . S
H1001 C1007 0.930 . S
C1002 H988 0.930 . S
C1002 C1000 1.395 . S
C1002 C1005 1.403 . S
C1003 C1000 1.403 . S
C1003 C1004 1.524 . S
C1003 C1007 1.400 . S
C1004 H989 0.960 . S
C1004 H990 0.960 . S
C1004 H991 0.960 . S
C1004 C1003 1.524 . S
C1005 C1002 1.403 . S
C1005 C1006 1.392 . S
C1005 C1009 1.495 . S
C1006 C1005 1.392 . S
C1006 C1007 1.385 . S
C1006 C1008 1.478 . S
C1007 H1001 0.930 . S
C1007 C1003 1.400 . S
C1007 C1006 1.385 . S
C1008 C1006 1.478 . S
C1008 C1010 1.381 . S
C1008 C1014 1.383 . S
C1009 C1005 1.495 . S
C1009 H1015 0.959 . S
C1009 H1016 0.961 . S
C1009 H1017 0.960 . S
C1010 C1008 1.381 . S
C1010 C1011 1.394 . S
C1010 H1018 0.930 . S
C1011 C1010 1.394 . S
C1011 C1012 1.383 . S
C1011 H1019 0.929 . S
C1012 C1011 1.383 . S
C1012 C1013 1.377 . S
C1013 H997 0.930 . S
C1013 C1012 1.377 . S
C1013 C1014 1.379 . S
C1014 H998 0.931 . S
C1014 C1008 1.383 . S
C1014 C1013 1.379 . S
H1015 C1009 0.959 . S
H1016 C1009 0.961 . S
H1017 C1009 0.960 . S
H1018 C1010 0.930 . S
H1019 C1011 0.929 . S
H1020 C1028 0.929 . S
H1021 C1030 0.930 . S
H1022 C1032 0.930 . S
H1023 C1035 0.929 . S
H1024 C1038 0.930 . S
H1025 C1040 0.960 . S
H1026 C1040 0.960 . S
H1027 C1040 0.960 . S
C1028 H1020 0.929 . S
C1028 C1029 1.377 . S
C1028 C1030 1.384 . S
C1029 C1028 1.377 . S
C1029 C1035 1.390 . S
C1030 H1021 0.930 . S
C1030 C1028 1.384 . S
C1030 C1031 1.372 . S
C1031 C1030 1.372 . S
C1031 C1032 1.400 . S
C1031 C1036 1.490 . S
C1032 H1022 0.930 . S
C1032 C1031 1.400 . S
C1032 C1035 1.386 . S
H1033 C1049 0.930 . S
H1034 C1050 0.931 . S
C1035 H1023 0.929 . S
C1035 C1029 1.390 . S
C1035 C1032 1.386 . S
C1036 C1031 1.490 . S
C1036 C1038 1.395 . S
C1036 C1039 1.403 . S
H1037 C1043 0.930 . S
C1038 H1024 0.930 . S
C1038 C1036 1.395 . S
C1038 C1041 1.403 . S
C1039 C1036 1.403 . S
C1039 C1040 1.524 . S
C1039 C1043 1.400 . S
C1040 H1025 0.960 . S
C1040 H1026 0.960 . S
C1040 H1027 0.960 . S
C1040 C1039 1.524 . S
C1041 C1038 1.403 . S
C1041 C1042 1.392 . S
C1041 C1045 1.495 . S
C1042 C1041 1.392 . S
C1042 C1043 1.385 . S
C1042 C1044 1.478 . S
C1043 H1037 0.930 . S
C1043 C1039 1.400 . S
C1043 C1042 1.385 . S
C1044 C1042 1.478 . S
C1044 C1046 1.381 . S
C1044 C1050 1.383 . S
C1045 C1041 1.495 . S
C1045 H1051 0.959 . S
C1045 H1052 0.961 . S
C1045 H1053 0.960 . S
C1046 C1044 1.381 . S
C1046 C1047 1.394 . S
C1046 H1054 0.930 . S
C1047 C1046 1.394 . S
C1047 C1048 1.383 . S
C1047 H1055 0.929 . S
C1048 C1047 1.383 . S
C1048 C1049 1.377 . S
C1049 H1033 0.930 . S
C1049 C1048 1.377 . S
C1049 C1050 1.379 . S
C1050 H1034 0.931 . S
C1050 C1044 1.383 . S
C1050 C1049 1.379 . S
H1051 C1045 0.959 . S
H1052 C1045 0.961 . S
H1053 C1045 0.960 . S
H1054 C1046 0.930 . S
H1055 C1047 0.929 . S
H1056 C1064 0.929 . S
H1057 C1066 0.930 . S
H1058 C1068 0.930 . S
H1059 C1071 0.929 . S
H1060 C1074 0.930 . S
H1061 C1076 0.960 . S
H1062 C1076 0.960 . S
H1063 C1076 0.960 . S
C1064 H1056 0.929 . S
C1064 C1065 1.377 . S
C1064 C1066 1.384 . S
C1065 C1064 1.377 . S
C1065 C1071 1.390 . S
C1066 H1057 0.930 . S
C1066 C1064 1.384 . S
C1066 C1067 1.372 . S
C1067 C1066 1.372 . S
C1067 C1068 1.400 . S
C1067 C1072 1.490 . S
C1068 H1058 0.930 . S
C1068 C1067 1.400 . S
C1068 C1071 1.386 . S
H1069 C1085 0.930 . S
H1070 C1086 0.931 . S
C1071 H1059 0.929 . S
C1071 C1065 1.390 . S
C1071 C1068 1.386 . S
C1072 C1067 1.490 . S
C1072 C1074 1.395 . S
C1072 C1075 1.403 . S
H1073 C1079 0.930 . S
C1074 H1060 0.930 . S
C1074 C1072 1.395 . S
C1074 C1077 1.403 . S
C1075 C1072 1.403 . S
C1075 C1076 1.524 . S
C1075 C1079 1.400 . S
C1076 H1061 0.960 . S
C1076 H1062 0.960 . S
C1076 H1063 0.960 . S
C1076 C1075 1.524 . S
C1077 C1074 1.403 . S
C1077 C1078 1.392 . S
C1077 C1081 1.495 . S
C1078 C1077 1.392 . S
C1078 C1079 1.385 . S
C1078 C1080 1.478 . S
C1079 H1073 0.930 . S
C1079 C1075 1.400 . S
C1079 C1078 1.385 . S
C1080 C1078 1.478 . S
C1080 C1082 1.381 . S
C1080 C1086 1.383 . S
C1081 C1077 1.495 . S
C1081 H1087 0.959 . S
C1081 H1088 0.961 . S
C1081 H1089 0.960 . S
C1082 C1080 1.381 . S
C1082 C1083 1.394 . S
C1082 H1090 0.930 . S
C1083 C1082 1.394 . S
C1083 C1084 1.383 . S
C1083 H1091 0.929 . S
C1084 C1083 1.383 . S
C1084 C1085 1.377 . S
C1085 H1069 0.930 . S
C1085 C1084 1.377 . S
C1085 C1086 1.379 . S
C1086 H1070 0.931 . S
C1086 C1080 1.383 . S
C1086 C1085 1.379 . S
H1087 C1081 0.959 . S
H1088 C1081 0.961 . S
H1089 C1081 0.960 . S
H1090 C1082 0.930 . S
H1091 C1083 0.929 . S
H1092 C1100 0.929 . S
H1093 C1102 0.930 . S
H1094 C1104 0.930 . S
H1095 C1107 0.929 . S
H1096 C1110 0.930 . S
H1097 C1112 0.960 . S
H1098 C1112 0.960 . S
H1099 C1112 0.960 . S
C1100 H1092 0.929 . S
C1100 C1101 1.377 . S
C1100 C1102 1.384 1_556 S
C1101 C1100 1.377 . S
C1101 C1107 1.390 . S
C1102 H1093 0.930 . S
C1102 C1100 1.384 1_554 S
C1102 C1103 1.372 . S
C1103 C1102 1.372 . S
C1103 C1104 1.400 . S
C1103 C1108 1.490 . S
C1104 H1094 0.930 . S
C1104 C1103 1.400 . S
C1104 C1107 1.386 1_554 S
H1105 C1121 0.930 . S
H1106 C1122 0.931 . S
C1107 H1095 0.929 . S
C1107 C1101 1.390 . S
C1107 C1104 1.386 1_556 S
C1108 C1103 1.490 . S
C1108 C1110 1.395 . S
C1108 C1111 1.403 . S
H1109 C1115 0.930 . S
C1110 H1096 0.930 . S
C1110 C1108 1.395 . S
C1110 C1113 1.403 . S
C1111 C1108 1.403 . S
C1111 C1112 1.524 . S
C1111 C1115 1.400 . S
C1112 H1097 0.960 . S
C1112 H1098 0.960 . S
C1112 H1099 0.960 . S
C1112 C1111 1.524 . S
C1113 C1110 1.403 . S
C1113 C1114 1.392 . S
C1113 C1117 1.495 . S
C1114 C1113 1.392 . S
C1114 C1115 1.385 . S
C1114 C1116 1.478 . S
C1115 H1109 0.930 . S
C1115 C1111 1.400 . S
C1115 C1114 1.385 . S
C1116 C1114 1.478 . S
C1116 C1118 1.381 . S
C1116 C1122 1.383 . S
C1117 C1113 1.495 . S
C1117 H1123 0.959 . S
C1117 H1124 0.961 . S
C1117 H1125 0.960 . S
C1118 C1116 1.381 . S
C1118 C1119 1.394 . S
C1118 H1126 0.930 . S
C1119 C1118 1.394 . S
C1119 C1120 1.383 . S
C1119 H1127 0.929 . S
C1120 C1119 1.383 . S
C1120 C1121 1.377 . S
C1121 H1105 0.930 . S
C1121 C1120 1.377 . S
C1121 C1122 1.379 . S
C1122 H1106 0.931 . S
C1122 C1116 1.383 . S
C1122 C1121 1.379 . S
H1123 C1117 0.959 . S
H1124 C1117 0.961 . S
H1125 C1117 0.960 . S
H1126 C1118 0.930 . S
H1127 C1119 0.929 . S
H1128 C1136 0.929 . S
H1129 C1138 0.930 . S
H1130 C1140 0.930 . S
H1131 C1143 0.929 . S
H1132 C1146 0.930 . S
H1133 C1148 0.960 . S
H1134 C1148 0.960 . S
H1135 C1148 0.960 . S
C1136 H1128 0.929 . S
C1136 C1137 1.377 . S
C1136 C1138 1.384 . S
C1137 C1136 1.377 . S
C1137 C1143 1.390 . S
C1138 H1129 0.930 . S
C1138 C1136 1.384 . S
C1138 C1139 1.372 . S
C1139 C1138 1.372 . S
C1139 C1140 1.400 . S
C1139 C1144 1.490 . S
C1140 H1130 0.930 . S
C1140 C1139 1.400 . S
C1140 C1143 1.386 . S
H1141 C1157 0.930 . S
H1142 C1158 0.931 . S
C1143 H1131 0.929 . S
C1143 C1137 1.390 . S
C1143 C1140 1.386 . S
C1144 C1139 1.490 . S
C1144 C1146 1.395 . S
C1144 C1147 1.403 . S
H1145 C1151 0.930 . S
C1146 H1132 0.930 . S
C1146 C1144 1.395 . S
C1146 C1149 1.403 . S
C1147 C1144 1.403 . S
C1147 C1148 1.524 . S
C1147 C1151 1.400 . S
C1148 H1133 0.960 . S
C1148 H1134 0.960 . S
C1148 H1135 0.960 . S
C1148 C1147 1.524 . S
C1149 C1146 1.403 . S
C1149 C1150 1.392 . S
C1149 C1153 1.495 . S
C1150 C1149 1.392 . S
C1150 C1151 1.385 . S
C1150 C1152 1.478 . S
C1151 H1145 0.930 . S
C1151 C1147 1.400 . S
C1151 C1150 1.385 . S
C1152 C1150 1.478 . S
C1152 C1154 1.381 . S
C1152 C1158 1.383 . S
C1153 C1149 1.495 . S
C1153 H1159 0.959 . S
C1153 H1160 0.961 . S
C1153 H1161 0.960 . S
C1154 C1152 1.381 . S
C1154 C1155 1.394 . S
C1154 H1162 0.930 . S
C1155 C1154 1.394 . S
C1155 C1156 1.383 . S
C1155 H1163 0.929 . S
C1156 C1155 1.383 . S
C1156 C1157 1.377 . S
C1157 H1141 0.930 . S
C1157 C1156 1.377 . S
C1157 C1158 1.379 . S
C1158 H1142 0.931 . S
C1158 C1152 1.383 . S
C1158 C1157 1.379 . S
H1159 C1153 0.959 . S
H1160 C1153 0.961 . S
H1161 C1153 0.960 . S
H1162 C1154 0.930 . S
H1163 C1155 0.929 . S
H1164 C1172 0.929 . S
H1165 C1174 0.930 . S
H1166 C1176 0.930 . S
H1167 C1179 0.929 . S
H1168 C1182 0.930 . S
H1169 C1184 0.960 . S
H1170 C1184 0.960 . S
H1171 C1184 0.960 . S
C1172 H1164 0.929 . S
C1172 C1173 1.377 . S
C1172 C1174 1.384 . S
C1173 C1172 1.377 . S
C1173 C1179 1.390 . S
C1174 H1165 0.930 . S
C1174 C1172 1.384 . S
C1174 C1175 1.372 . S
C1175 C1174 1.372 . S
C1175 C1176 1.400 . S
C1175 C1180 1.490 . S
C1176 H1166 0.930 . S
C1176 C1175 1.400 . S
C1176 C1179 1.386 . S
H1177 C1193 0.930 . S
H1178 C1194 0.931 . S
C1179 H1167 0.929 . S
C1179 C1173 1.390 . S
C1179 C1176 1.386 . S
C1180 C1175 1.490 . S
C1180 C1182 1.395 . S
C1180 C1183 1.403 . S
H1181 C1187 0.930 . S
C1182 H1168 0.930 . S
C1182 C1180 1.395 . S
C1182 C1185 1.403 . S
C1183 C1180 1.403 . S
C1183 C1184 1.524 . S
C1183 C1187 1.400 . S
C1184 H1169 0.960 . S
C1184 H1170 0.960 . S
C1184 H1171 0.960 . S
C1184 C1183 1.524 . S
C1185 C1182 1.403 . S
C1185 C1186 1.392 . S
C1185 C1189 1.495 . S
C1186 C1185 1.392 . S
C1186 C1187 1.385 . S
C1186 C1188 1.478 . S
C1187 H1181 0.930 . S
C1187 C1183 1.400 . S
C1187 C1186 1.385 . S
C1188 C1186 1.478 . S
C1188 C1190 1.381 . S
C1188 C1194 1.383 . S
C1189 C1185 1.495 . S
C1189 H1195 0.959 . S
C1189 H1196 0.961 . S
C1189 H1197 0.960 . S
C1190 C1188 1.381 . S
C1190 C1191 1.394 . S
C1190 H1198 0.930 . S
C1191 C1190 1.394 . S
C1191 C1192 1.383 . S
C1191 H1199 0.929 . S
C1192 C1191 1.383 . S
C1192 C1193 1.377 . S
C1193 H1177 0.930 . S
C1193 C1192 1.377 . S
C1193 C1194 1.379 . S
C1194 H1178 0.931 . S
C1194 C1188 1.383 . S
C1194 C1193 1.379 . S
H1195 C1189 0.959 . S
H1196 C1189 0.961 . S
H1197 C1189 0.960 . S
H1198 C1190 0.930 . S
H1199 C1191 0.929 . S
H1200 C1208 0.929 . S
H1201 C1210 0.930 . S
H1202 C1212 0.930 . S
H1203 C1215 0.929 . S
H1204 C1218 0.930 . S
H1205 C1220 0.960 . S
H1206 C1220 0.960 . S
H1207 C1220 0.960 . S
C1208 H1200 0.929 . S
C1208 C1209 1.377 . S
C1208 C1210 1.384 . S
C1209 C1208 1.377 . S
C1209 C1215 1.390 . S
C1210 H1201 0.930 . S
C1210 C1208 1.384 . S
C1210 C1211 1.372 . S
C1211 C1210 1.372 . S
C1211 C1212 1.400 . S
C1211 C1216 1.490 . S
C1212 H1202 0.930 . S
C1212 C1211 1.400 . S
C1212 C1215 1.386 . S
H1213 C1229 0.930 . S
H1214 C1230 0.931 . S
C1215 H1203 0.929 . S
C1215 C1209 1.390 . S
C1215 C1212 1.386 . S
C1216 C1211 1.490 . S
C1216 C1218 1.395 . S
C1216 C1219 1.403 . S
H1217 C1223 0.930 . S
C1218 H1204 0.930 . S
C1218 C1216 1.395 . S
C1218 C1221 1.403 . S
C1219 C1216 1.403 . S
C1219 C1220 1.524 . S
C1219 C1223 1.400 . S
C1220 H1205 0.960 . S
C1220 H1206 0.960 . S
C1220 H1207 0.960 . S
C1220 C1219 1.524 . S
C1221 C1218 1.403 . S
C1221 C1222 1.392 . S
C1221 C1225 1.495 . S
C1222 C1221 1.392 . S
C1222 C1223 1.385 . S
C1222 C1224 1.478 . S
C1223 H1217 0.930 . S
C1223 C1219 1.400 . S
C1223 C1222 1.385 . S
C1224 C1222 1.478 . S
C1224 C1226 1.381 . S
C1224 C1230 1.383 . S
C1225 C1221 1.495 . S
C1225 H1231 0.959 . S
C1225 H1232 0.961 . S
C1225 H1233 0.960 . S
C1226 C1224 1.381 . S
C1226 C1227 1.394 . S
C1226 H1234 0.930 . S
C1227 C1226 1.394 . S
C1227 C1228 1.383 . S
C1227 H1235 0.929 . S
C1228 C1227 1.383 . S
C1228 C1229 1.377 . S
C1229 H1213 0.930 . S
C1229 C1228 1.377 . S
C1229 C1230 1.379 . S
C1230 H1214 0.931 . S
C1230 C1224 1.383 . S
C1230 C1229 1.379 . S
H1231 C1225 0.959 . S
H1232 C1225 0.961 . S
H1233 C1225 0.960 . S
H1234 C1226 0.930 . S
H1235 C1227 0.929 . S
C400 C295 1.488 . S
C381 C1 1.658 . S
C436 C313 1.289 . S
C417 C61 1.342 1_655 S
C453 C97 1.332 . S
C472 C337 1.283 . S
C508 C367 1.274 . S
C489 C109 1.414 . S
C544 C355 1.273 . S
C525 C145 1.345 . S
C561 C205 1.354 . S
C580 C308 1.296 . S
C597 C241 1.594 . S
C616 C328 1.484 . S
C633 C253 1.414 1_655 S
C652 C333 1.220 . S
C669 C277 1.338 . S
C688 C349 1.233 . S
C705 C181 1.410 . S
C724 C304 1.304 . S
C760 C371 1.305 . S
C741 C133 1.341 . S
C796 C316 1.228 . S
C777 C37 1.418 . S
C813 C73 1.651 . S
C832 C334 1.505 . S
C849 C25 1.353 . S
C868 C292 1.217 . S
C904 C312 1.274 . S
C885 C217 1.321 . S
C940 C358 1.486 . S
C921 C169 1.614 . S
C976 C354 1.334 . S
C957 C31 1.493 . S
C1012 C307 1.346 . S
C993 C67 1.403 . S
C1029 C103 1.473 . S
C1048 C329 1.322 . S
C1065 C139 1.433 . S
C1084 C350 1.298 . S
C1120 C291 1.350 . S
C1101 C175 1.473 . S
C1137 C211 1.454 . S
C1156 C325 1.379 . S
C1192 C346 1.353 . S
C1173 C247 1.493 . S
C1228 C370 1.366 . S
C1209 C283 1.429 . S
