# Generated by pormake.
# Topology eea, (3,6)-cn, num edge types: 1
# Building blocks:
#     Node 0, Type 0, BuildingBlock: BETDIP_clean_linker_0, # of connection points: 3
#     Node 1, Type 0, BuildingBlock: BETDIP_clean_linker_0, # of connection points: 3
#     Node 2, Type 0, BuildingBlock: BETDIP_clean_linker_0, # of connection points: 3
#     Node 3, Type 0, BuildingBlock: BETDIP_clean_linker_0, # of connection points: 3
#     Node 4, Type 0, BuildingBlock: BETDIP_clean_linker_0, # of connection points: 3
#     Node 5, Type 0, BuildingBlock: BETDIP_clean_linker_0, # of connection points: 3
#     Node 6, Type 0, BuildingBlock: BETDIP_clean_linker_0, # of connection points: 3
#     Node 7, Type 0, BuildingBlock: BETDIP_clean_linker_0, # of connection points: 3
#     Node 8, Type 0, BuildingBlock: BETDIP_clean_linker_0, # of connection points: 3
#     Node 9, Type 0, BuildingBlock: BETDIP_clean_linker_0, # of connection points: 3
#     Node 10, Type 0, BuildingBlock: BETDIP_clean_linker_0, # of connection points: 3
#     Node 11, Type 0, BuildingBlock: BETDIP_clean_linker_0, # of connection points: 3
#     Node 12, Type 0, BuildingBlock: BETDIP_clean_linker_0, # of connection points: 3
#     Node 13, Type 0, BuildingBlock: BETDIP_clean_linker_0, # of connection points: 3
#     Node 14, Type 0, BuildingBlock: BETDIP_clean_linker_0, # of connection points: 3
#     Node 15, Type 0, BuildingBlock: BETDIP_clean_linker_0, # of connection points: 3
#     Node 16, Type 0, BuildingBlock: BETDIP_clean_linker_0, # of connection points: 3
#     Node 17, Type 0, BuildingBlock: BETDIP_clean_linker_0, # of connection points: 3
#     Node 18, Type 1, BuildingBlock: CUKXOW_clean_sbu_0, # of connection points: 6
#     Node 19, Type 1, BuildingBlock: CUKXOW_clean_sbu_0, # of connection points: 6
#     Node 20, Type 1, BuildingBlock: CUKXOW_clean_sbu_0, # of connection points: 6
#     Node 21, Type 1, BuildingBlock: CUKXOW_clean_sbu_0, # of connection points: 6
#     Node 22, Type 1, BuildingBlock: CUKXOW_clean_sbu_0, # of connection points: 6
#     Node 23, Type 1, BuildingBlock: CUKXOW_clean_sbu_0, # of connection points: 6
#     Node 24, Type 1, BuildingBlock: CUKXOW_clean_sbu_0, # of connection points: 6
#     Node 25, Type 1, BuildingBlock: CUKXOW_clean_sbu_0, # of connection points: 6
#     Node 26, Type 1, BuildingBlock: CUKXOW_clean_sbu_0, # of connection points: 6
#     Edge 27, Type (0, 1), BuildingBlock: AJUNOK_clean_linker_0, # of connection points: 2
#     Edge 28, Type (0, 1), BuildingBlock: AJUNOK_clean_linker_0, # of connection points: 2
#     Edge 29, Type (0, 1), BuildingBlock: AJUNOK_clean_linker_0, # of connection points: 2
#     Edge 30, Type (0, 1), BuildingBlock: AJUNOK_clean_linker_0, # of connection points: 2
#     Edge 31, Type (0, 1), BuildingBlock: AJUNOK_clean_linker_0, # of connection points: 2
#     Edge 32, Type (0, 1), BuildingBlock: AJUNOK_clean_linker_0, # of connection points: 2
#     Edge 33, Type (0, 1), BuildingBlock: AJUNOK_clean_linker_0, # of connection points: 2
#     Edge 34, Type (0, 1), BuildingBlock: AJUNOK_clean_linker_0, # of connection points: 2
#     Edge 35, Type (0, 1), BuildingBlock: AJUNOK_clean_linker_0, # of connection points: 2
#     Edge 36, Type (0, 1), BuildingBlock: AJUNOK_clean_linker_0, # of connection points: 2
#     Edge 37, Type (0, 1), BuildingBlock: AJUNOK_clean_linker_0, # of connection points: 2
#     Edge 38, Type (0, 1), BuildingBlock: AJUNOK_clean_linker_0, # of connection points: 2
#     Edge 39, Type (0, 1), BuildingBlock: AJUNOK_clean_linker_0, # of connection points: 2
#     Edge 40, Type (0, 1), BuildingBlock: AJUNOK_clean_linker_0, # of connection points: 2
#     Edge 41, Type (0, 1), BuildingBlock: AJUNOK_clean_linker_0, # of connection points: 2
#     Edge 42, Type (0, 1), BuildingBlock: AJUNOK_clean_linker_0, # of connection points: 2
#     Edge 43, Type (0, 1), BuildingBlock: AJUNOK_clean_linker_0, # of connection points: 2
#     Edge 44, Type (0, 1), BuildingBlock: AJUNOK_clean_linker_0, # of connection points: 2
#     Edge 45, Type (0, 1), BuildingBlock: AJUNOK_clean_linker_0, # of connection points: 2
#     Edge 46, Type (0, 1), BuildingBlock: AJUNOK_clean_linker_0, # of connection points: 2
#     Edge 47, Type (0, 1), BuildingBlock: AJUNOK_clean_linker_0, # of connection points: 2
#     Edge 48, Type (0, 1), BuildingBlock: AJUNOK_clean_linker_0, # of connection points: 2
#     Edge 49, Type (0, 1), BuildingBlock: AJUNOK_clean_linker_0, # of connection points: 2
#     Edge 50, Type (0, 1), BuildingBlock: AJUNOK_clean_linker_0, # of connection points: 2
#     Edge 51, Type (0, 1), BuildingBlock: AJUNOK_clean_linker_0, # of connection points: 2
#     Edge 52, Type (0, 1), BuildingBlock: AJUNOK_clean_linker_0, # of connection points: 2
#     Edge 53, Type (0, 1), BuildingBlock: AJUNOK_clean_linker_0, # of connection points: 2
#     Edge 54, Type (0, 1), BuildingBlock: AJUNOK_clean_linker_0, # of connection points: 2
#     Edge 55, Type (0, 1), BuildingBlock: AJUNOK_clean_linker_0, # of connection points: 2
#     Edge 56, Type (0, 1), BuildingBlock: AJUNOK_clean_linker_0, # of connection points: 2
#     Edge 57, Type (0, 1), BuildingBlock: AJUNOK_clean_linker_0, # of connection points: 2
#     Edge 58, Type (0, 1), BuildingBlock: AJUNOK_clean_linker_0, # of connection points: 2
#     Edge 59, Type (0, 1), BuildingBlock: AJUNOK_clean_linker_0, # of connection points: 2
#     Edge 60, Type (0, 1), BuildingBlock: AJUNOK_clean_linker_0, # of connection points: 2
#     Edge 61, Type (0, 1), BuildingBlock: AJUNOK_clean_linker_0, # of connection points: 2
#     Edge 62, Type (0, 1), BuildingBlock: AJUNOK_clean_linker_0, # of connection points: 2
#     Edge 63, Type (0, 1), BuildingBlock: AJUNOK_clean_linker_0, # of connection points: 2
#     Edge 64, Type (0, 1), BuildingBlock: AJUNOK_clean_linker_0, # of connection points: 2
#     Edge 65, Type (0, 1), BuildingBlock: AJUNOK_clean_linker_0, # of connection points: 2
#     Edge 66, Type (0, 1), BuildingBlock: AJUNOK_clean_linker_0, # of connection points: 2
#     Edge 67, Type (0, 1), BuildingBlock: AJUNOK_clean_linker_0, # of connection points: 2
#     Edge 68, Type (0, 1), BuildingBlock: AJUNOK_clean_linker_0, # of connection points: 2
#     Edge 69, Type (0, 1), BuildingBlock: AJUNOK_clean_linker_0, # of connection points: 2
#     Edge 70, Type (0, 1), BuildingBlock: AJUNOK_clean_linker_0, # of connection points: 2
#     Edge 71, Type (0, 1), BuildingBlock: AJUNOK_clean_linker_0, # of connection points: 2
#     Edge 72, Type (0, 1), BuildingBlock: AJUNOK_clean_linker_0, # of connection points: 2
#     Edge 73, Type (0, 1), BuildingBlock: AJUNOK_clean_linker_0, # of connection points: 2
#     Edge 74, Type (0, 1), BuildingBlock: AJUNOK_clean_linker_0, # of connection points: 2
#     Edge 75, Type (0, 1), BuildingBlock: AJUNOK_clean_linker_0, # of connection points: 2
#     Edge 76, Type (0, 1), BuildingBlock: AJUNOK_clean_linker_0, # of connection points: 2
#     Edge 77, Type (0, 1), BuildingBlock: AJUNOK_clean_linker_0, # of connection points: 2
#     Edge 78, Type (0, 1), BuildingBlock: AJUNOK_clean_linker_0, # of connection points: 2
#     Edge 79, Type (0, 1), BuildingBlock: AJUNOK_clean_linker_0, # of connection points: 2
#     Edge 80, Type (0, 1), BuildingBlock: AJUNOK_clean_linker_0, # of connection points: 2
# Relax obj value: 0.036
# Max RMSD: 0.166
# Mean RMSD: 0.090
data_MOF--net-eea--node1-CUKXOW_clean_sbu_0--node2-BETDIP_clean_linker_0--edge1-AJUNOK_clean_linker_0
_symmetry_space_group_name_H-M    P1
_symmetry_Int_Tables_number       1
_symmetry_cell_setting            triclinic
loop_
_symmetry_equiv_pos_as_xyz
'x, y, z'
_cell_length_a     45.161237
_cell_length_b     41.304137
_cell_length_c     35.84995
_cell_angle_alpha  93.188926
_cell_angle_beta   93.334397
_cell_angle_gamma 119.98878
loop_
_atom_site_label
_atom_site_type_symbol
_atom_site_fract_x
_atom_site_fract_y
_atom_site_fract_z
_atom_type_partial_charge
H0 H 0.214 0.10009 0.37496 0.0
H1 H 0.25493 0.16466 0.48263 0.0
H2 H 0.27104 0.07247 0.45412 0.0
H3 H 0.26086 0.21226 0.44494 0.0
C4 C 0.236 0.1981 0.42842 0.0
C5 C 0.22836 0.10543 0.40208 0.0
C6 C 0.24135 0.0821 0.41195 0.0
C7 C 0.23432 0.13619 0.42674 0.0
C8 C 0.25199 0.1424 0.46261 0.0
C9 C 0.26459 0.11882 0.47322 0.0
C10 C 0.26035 0.08992 0.44693 0.0
N11 N 0.22123 0.15951 0.41518 0.0
H12 H 0.91687 0.12481 0.37891 0.0
H13 H 0.84402 0.09954 0.45931 0.0
H14 H 0.94044 0.20409 0.47505 0.0
H15 H 0.85509 0.04405 0.45063 0.0
C16 C 0.84462 0.03986 0.42153 0.0
C17 C 0.90988 0.13308 0.40464 0.0
C18 C 0.93255 0.16784 0.42532 0.0
C19 C 0.87872 0.10809 0.41783 0.0
C20 C 0.86894 0.11875 0.45047 0.0
C21 C 0.89089 0.15314 0.47192 0.0
C22 C 0.92269 0.17781 0.45877 0.0
N23 N 0.85825 0.07109 0.39984 0.0
H24 H 0.89167 0.78419 0.39414 0.0
H25 H 0.91621 0.73792 0.48768 0.0
H26 H 0.81286 0.71332 0.46146 0.0
H27 H 0.96779 0.76502 0.47109 0.0
C28 C 0.96917 0.77439 0.4433 0.0
C29 C 0.88337 0.76633 0.41684 0.0
C30 C 0.8494 0.75045 0.42617 0.0
C31 C 0.90739 0.76048 0.43756 0.0
C32 C 0.89762 0.74032 0.46961 0.0
C33 C 0.86357 0.72408 0.47908 0.0
C34 C 0.83952 0.72742 0.45559 0.0
N35 N 0.94088 0.7756 0.4252 0.0
H36 H 0.10436 0.24055 0.64236 0.0
H37 H 0.17989 0.29036 0.56424 0.0
H38 H 0.08864 0.29804 0.55344 0.0
H39 H 0.21549 0.29303 0.61111 0.0
C40 C 0.20047 0.26677 0.62331 0.0
C41 C 0.11332 0.25681 0.61856 0.0
C42 C 0.09251 0.26794 0.59911 0.0
C43 C 0.14532 0.26569 0.60696 0.0
C44 C 0.15635 0.2855 0.5752 0.0
C45 C 0.13633 0.29775 0.55611 0.0
C46 C 0.10432 0.28878 0.56814 0.0
N47 N 0.16495 0.25251 0.62636 0.0
H48 H 0.82032 0.88176 0.64484 0.0
H49 H 0.77133 0.91359 0.5601 0.0
H50 H 0.74577 0.79847 0.55932 0.0
H51 H 0.82129 0.96824 0.57042 0.0
C52 C 0.82543 0.97152 0.60087 0.0
C53 C 0.80226 0.87411 0.62016 0.0
C54 C 0.78339 0.8365 0.60428 0.0
C55 C 0.79853 0.90217 0.60413 0.0
C56 C 0.77473 0.89224 0.57251 0.0
C57 C 0.75517 0.85489 0.55646 0.0
C58 C 0.75996 0.82716 0.57223 0.0
N59 N 0.81818 0.93996 0.62081 0.0
H60 H 0.14275 0.92086 0.64589 0.0
H61 H 0.11264 0.84321 0.54674 0.0
H62 H 0.2166 0.93367 0.56883 0.0
H63 H 0.06 0.82903 0.55698 0.0
C64 C 0.05942 0.83441 0.58681 0.0
C65 C 0.14923 0.91117 0.6206 0.0
C66 C 0.183 0.93052 0.6106 0.0
C67 C 0.12349 0.87978 0.59781 0.0
C68 C 0.13185 0.86749 0.56472 0.0
C69 C 0.16557 0.88658 0.55466 0.0
C70 C 0.19096 0.91792 0.57766 0.0
N71 N 0.08979 0.86135 0.6094 0.0
H72 H 0.86992 0.41884 0.71358 0.0
H73 H 0.92569 0.50079 0.80839 0.0
H74 H 0.93387 0.4016 0.79402 0.0
H75 H 0.92748 0.53946 0.76048 0.0
C76 C 0.90059 0.5243 0.74936 0.0
C77 C 0.88731 0.42818 0.73906 0.0
C78 C 0.90124 0.40641 0.7512 0.0
C79 C 0.8966 0.46267 0.7589 0.0
C80 C 0.91913 0.47476 0.79218 0.0
C81 C 0.93297 0.45297 0.8048 0.0
C82 C 0.92397 0.419 0.784 0.0
N83 N 0.88276 0.4844 0.74484 0.0
H84 H 0.59325 0.44885 0.72898 0.0
H85 H 0.51479 0.42808 0.80147 0.0
H86 H 0.6055 0.5375 0.80948 0.0
H87 H 0.48546 0.40399 0.73639 0.0
C88 C 0.49492 0.38444 0.73408 0.0
C89 C 0.58385 0.45905 0.75121 0.0
C90 C 0.60335 0.49656 0.76729 0.0
C91 C 0.5515 0.4349 0.76251 0.0
C92 C 0.53926 0.44742 0.79174 0.0
C93 C 0.55849 0.48425 0.80895 0.0
C94 C 0.59073 0.50877 0.79674 0.0
N95 N 0.53054 0.39857 0.74321 0.0
H96 H 0.54908 0.09983 0.71592 0.0
H97 H 0.57798 0.05371 0.80652 0.0
H98 H 0.48054 0.04749 0.80059 0.0
H99 H 0.63009 0.10002 0.79875 0.0
C100 C 0.63066 0.1016 0.76867 0.0
C101 C 0.54296 0.08508 0.74095 0.0
C102 C 0.51104 0.07332 0.75505 0.0
C103 C 0.5677 0.07914 0.75973 0.0
C104 C 0.55975 0.05957 0.792 0.0
C105 C 0.52803 0.04751 0.80605 0.0
C106 C 0.50404 0.05479 0.7879 0.0
N107 N 0.6005 0.0938 0.74605 0.0
H108 H 0.76859 0.57562 0.97172 0.0
H109 H 0.84798 0.63159 0.90054 0.0
H110 H 0.74812 0.61765 0.87176 0.0
H111 H 0.84688 0.57436 0.90374 0.0
C112 C 0.84833 0.5742 0.9341 0.0
C113 C 0.77699 0.59006 0.94673 0.0
C114 C 0.75515 0.59795 0.9244 0.0
C115 C 0.80947 0.59981 0.93647 0.0
C116 C 0.8214 0.62055 0.90567 0.0
C117 C 0.79913 0.62535 0.88064 0.0
C118 C 0.76587 0.61432 0.89055 0.0
N119 N 0.82869 0.58564 0.95487 0.0
H120 H 0.47996 0.21883 0.98613 0.0
H121 H 0.43047 0.24709 0.899 0.0
H122 H 0.42545 0.13996 0.88901 0.0
H123 H 0.4242 0.27663 0.95608 0.0
C124 C 0.45191 0.29279 0.96297 0.0
C125 C 0.46474 0.21123 0.95923 0.0
C126 C 0.45189 0.1753 0.94027 0.0
C127 C 0.45705 0.23707 0.94437 0.0
C128 C 0.43668 0.22709 0.90998 0.0
C129 C 0.4249 0.19214 0.88937 0.0
C130 C 0.43296 0.16645 0.90481 0.0
N131 N 0.47049 0.27338 0.96376 0.0
H132 H 0.81259 0.25776 0.9764 0.0
H133 H 0.78075 0.18342 0.87442 0.0
H134 H 0.88399 0.27627 0.89478 0.0
H135 H 0.73756 0.14505 0.90357 0.0
C136 C 0.73346 0.15983 0.92674 0.0
C137 C 0.81843 0.24929 0.94996 0.0
C138 C 0.85132 0.27061 0.93818 0.0
C139 C 0.79299 0.2169 0.92803 0.0
C140 C 0.80043 0.20677 0.89294 0.0
C141 C 0.83332 0.22805 0.88074 0.0
C142 C 0.8586 0.25955 0.90391 0.0
N143 N 0.76026 0.19609 0.94193 0.0
H144 H 0.54445 0.76382 0.04295 0.0
H145 H 0.58601 0.83303 0.14804 0.0
H146 H 0.60152 0.73946 0.12543 0.0
H147 H 0.59546 0.87848 0.10685 0.0
C148 C 0.57077 0.86528 0.09009 0.0
C149 C 0.559 0.77046 0.07017 0.0
C150 C 0.57238 0.74798 0.08159 0.0
C151 C 0.56531 0.80226 0.09321 0.0
C152 C 0.58325 0.81011 0.12916 0.0
C153 C 0.59647 0.78757 0.14119 0.0
C154 C 0.59132 0.757 0.11676 0.0
N155 N 0.55343 0.82593 0.07963 0.0
H156 H 0.25193 0.79573 0.04863 0.0
H157 H 0.18047 0.78055 0.12936 0.0
H158 H 0.27767 0.88242 0.13852 0.0
H159 H 0.16069 0.72133 0.11611 0.0
C160 C 0.16561 0.71656 0.08769 0.0
C161 C 0.24574 0.80615 0.07363 0.0
C162 C 0.26902 0.84226 0.09158 0.0
C163 C 0.2144 0.78289 0.0878 0.0
C164 C 0.20507 0.79713 0.1187 0.0
C165 C 0.2277 0.83293 0.13691 0.0
C166 C 0.25984 0.85519 0.12367 0.0
N167 N 0.19303 0.74543 0.0706 0.0
H168 H 0.22259 0.44493 0.05756 0.0
H169 H 0.25424 0.41493 0.15867 0.0
H170 H 0.15227 0.39868 0.14103 0.0
H171 H 0.3074 0.46783 0.14347 0.0
C172 C 0.30565 0.45869 0.11401 0.0
C173 C 0.21677 0.43394 0.0846 0.0
C174 C 0.18507 0.42419 0.09785 0.0
C175 C 0.2417 0.43083 0.10647 0.0
C176 C 0.2345 0.41639 0.14159 0.0
C177 C 0.20177 0.40356 0.15413 0.0
C178 C 0.1774 0.40777 0.1318 0.0
N179 N 0.27356 0.44189 0.09189 0.0
H180 H 0.44714 0.92137 0.31292 0.0
H181 H 0.51742 0.97334 0.23022 0.0
H182 H 0.42277 0.97377 0.22457 0.0
H183 H 0.5266 0.92568 0.23682 0.0
C184 C 0.52594 0.92175 0.26652 0.0
C185 C 0.45368 0.93681 0.28837 0.0
C186 C 0.4314 0.94789 0.27185 0.0
C187 C 0.484 0.94438 0.27271 0.0
C188 C 0.4935 0.96587 0.2419 0.0
C189 C 0.47166 0.97688 0.22495 0.0
C190 C 0.44033 0.96704 0.23931 0.0
N191 N 0.5038 0.92909 0.28765 0.0
H192 H 0.14375 0.5475 0.32167 0.0
H193 H 0.09051 0.57657 0.23991 0.0
H194 H 0.09033 0.47277 0.22135 0.0
H195 H 0.13684 0.63385 0.25266 0.0
C196 C 0.14158 0.63593 0.28297 0.0
C197 C 0.12833 0.54083 0.29502 0.0
C198 C 0.11601 0.50583 0.2742 0.0
C199 C 0.121 0.56745 0.28156 0.0
C200 C 0.09954 0.55795 0.24807 0.0
C201 C 0.0899 0.52503 0.22477 0.0
C202 C 0.09772 0.49857 0.23853 0.0
N203 N 0.13595 0.60391 0.30135 0.0
H204 H 0.4698 0.59358 0.30245 0.0
H205 H 0.44245 0.52049 0.2005 0.0
H206 H 0.54667 0.6106 0.2293 0.0
H207 H 0.4173 0.5585 0.31389 0.0
C208 C 0.40239 0.53503 0.29276 0.0
C209 C 0.47654 0.58473 0.277 0.0
C210 C 0.51068 0.60522 0.26845 0.0
C211 C 0.452 0.55333 0.25276 0.0
C212 C 0.46187 0.54371 0.2195 0.0
C213 C 0.4959 0.56433 0.21028 0.0
C214 C 0.52019 0.59454 0.23556 0.0
N215 N 0.41723 0.53054 0.2604 0.0
Tb216 Tb 0.54149 0.0456 0.01795 0.0
C217 C 0.52318 0.96233 0.03225 0.0
Tb218 Tb 0.46435 0.98246 0.01535 0.0
O219 O 0.5424 0.0659 0.07668 0.0
O220 O 0.50742 0.01153 0.05504 0.0
O221 O 0.54621 0.99571 0.02251 0.0
C222 C 0.40083 0.93872 0.03461 0.0
O223 O 0.49058 0.95284 0.0354 0.0
C224 C 0.49115 0.99312 0.95075 0.0
C225 C 0.48415 0.06731 1.00207 0.0
O226 O 0.41704 0.92792 0.01304 0.0
O227 O 0.42014 0.97446 0.04473 0.0
O228 O 0.46384 0.96211 0.95691 0.0
O229 O 0.49816 0.01653 0.97834 0.0
O230 O 0.46021 0.03342 0.01057 0.0
O231 O 0.51672 0.07653 0.99982 0.0
C232 C 0.60328 0.08191 0.99233 0.0
O233 O 0.5934 0.09518 0.01973 0.0
O234 O 0.57869 0.04833 0.98039 0.0
C235 C 0.5147 0.03502 0.08267 0.0
Tb236 Tb 0.98575 0.50579 0.01399 0.0
C237 C 0.06358 0.56642 0.02504 0.0
Tb238 Tb 0.03822 0.479 0.01523 0.0
O239 O 1.00187 0.52879 0.07293 0.0
O240 O 1.0055 0.48266 0.05299 0.0
O241 O 0.03253 0.55881 0.01205 0.0
C242 C 0.08535 0.46101 0.03584 0.0
O243 O 0.07071 0.53963 0.03221 0.0
C244 C 0.01204 0.47851 0.94796 0.0
C245 C 0.95946 0.41849 1.00127 0.0
O246 O 0.089 0.485 0.01203 0.0
O247 O 0.05537 0.44739 0.04815 0.0
O248 O 0.02615 0.45855 0.95541 0.0
O249 O 0.01789 0.50107 0.97631 0.0
O250 O 0.99067 0.42513 0.0128 0.0
O251 O 0.95255 0.44586 0.99688 0.0
C252 C 0.94101 0.5271 0.99357 0.0
O253 O 0.93859 0.50752 0.02161 0.0
O254 O 0.96827 0.53434 0.97743 0.0
C255 C 0.0128 0.50606 0.08098 0.0
Tb256 Tb 0.48624 0.51425 0.00921 0.0
C257 C 0.50695 0.45351 0.99615 0.0
Tb258 Tb 0.56331 0.54049 1.00378 0.0
O259 O 0.47282 0.49656 0.94845 0.0
O260 O 0.52234 0.5373 0.9695 0.0
O261 O 0.48637 0.46231 0.01346 0.0
C262 C 0.62498 0.56044 0.98101 0.0
O263 O 0.53667 0.4797 0.98522 0.0
C264 C 0.54461 0.53788 0.07172 0.0
C265 C 0.54082 0.60168 0.01621 0.0
O266 O 0.60678 0.53117 0.99865 0.0
O267 O 0.60847 0.57828 0.97635 0.0
O268 O 0.57583 0.55969 0.06383 0.0
O269 O 0.52719 0.51637 0.043 0.0
O270 O 0.56523 0.59455 0.00694 0.0
O271 O 0.50877 0.57483 0.01906 0.0
C272 C 0.42921 0.50039 0.04021 0.0
O273 O 0.43005 0.48586 0.00744 0.0
O274 O 0.46038 0.52285 0.05507 0.0
C275 C 0.50442 0.51648 0.94049 0.0
Tb276 Tb 0.20581 0.37511 0.35118 0.0
C277 C 0.18718 0.29547 0.37367 0.0
Tb278 Tb 0.12862 0.31603 0.35413 0.0
O279 O 0.2172 0.37782 0.41167 0.0
O280 O 0.16783 0.3627 0.38892 0.0
O281 O 0.21018 0.32581 0.35882 0.0
C282 C 0.06613 0.2681 0.37416 0.0
O283 O 0.15545 0.28849 0.3782 0.0
C284 C 0.15027 0.32585 0.28686 0.0
C285 C 0.14856 0.39729 0.33361 0.0
O286 O 0.08593 0.25871 0.35752 0.0
O287 O 0.08145 0.30443 0.37921 0.0
O288 O 0.11852 0.31352 0.29312 0.0
O289 O 0.16672 0.32789 0.31721 0.0
O290 O 0.12493 0.36608 0.34662 0.0
O291 O 0.18049 0.40481 0.33056 0.0
C292 C 0.26666 0.42464 0.32979 0.0
O293 O 0.25432 0.42844 0.36045 0.0
O294 O 0.24475 0.39268 0.31114 0.0
C295 C 0.18553 0.36505 0.41863 0.0
Tb296 Tb 0.65317 0.83822 0.34655 0.0
C297 C 0.732 0.89184 0.36511 0.0
Tb298 Tb 0.69997 0.80371 0.34942 0.0
O299 O 0.66571 0.85856 0.40607 0.0
O300 O 0.66854 0.81167 0.38638 0.0
O301 O 0.70329 0.88914 0.34973 0.0
C302 C 0.74564 0.78199 0.36458 0.0
O303 O 0.73483 0.86208 0.3714 0.0
C304 C 0.67653 0.80777 0.28228 0.0
C305 C 0.62064 0.74909 0.3369 0.0
O306 O 0.74854 0.80552 0.34057 0.0
O307 O 0.71709 0.77061 0.37966 0.0
O308 O 0.68393 0.78225 0.29024 0.0
O309 O 0.68526 0.8311 0.31063 0.0
O310 O 0.65053 0.75302 0.34975 0.0
O311 O 0.61675 0.77832 0.3308 0.0
C312 C 0.61088 0.86233 0.32295 0.0
O313 O 0.63477 0.86227 0.30458 0.0
O314 O 0.61064 0.84853 0.35469 0.0
C315 C 0.67538 0.83487 0.41473 0.0
Tb316 Tb 0.15579 0.84763 0.34326 0.0
C317 C 0.17947 0.78677 0.33801 0.0
Tb318 Tb 0.23395 0.87444 0.34554 0.0
O319 O 0.15249 0.85554 0.28297 0.0
O320 O 0.19009 0.84625 0.30677 0.0
O321 O 0.15478 0.79421 0.34515 0.0
C322 C 0.29796 0.90161 0.32638 0.0
O323 O 0.21098 0.81353 0.33214 0.0
C324 C 0.20895 0.86659 0.41089 0.0
C325 C 0.20877 0.93488 0.34877 0.0
O326 O 0.2833 0.87598 0.34915 0.0
O327 O 0.27665 0.91211 0.31452 0.0
O328 O 0.23709 0.86635 0.40559 0.0
O329 O 0.20001 0.8763 0.38185 0.0
O330 O 0.23392 0.92778 0.34215 0.0
O331 O 0.17744 0.90793 0.3545 0.0
C332 C 0.09479 0.81989 0.37086 0.0
O333 O 0.10276 0.83711 0.34047 0.0
O334 O 0.12079 0.81762 0.38466 0.0
C335 C 0.18096 0.85579 0.27771 0.0
Tb336 Tb 0.86913 0.6996 0.67389 0.0
C337 C 0.84928 0.61811 0.69154 0.0
Tb338 Tb 0.79281 0.64379 0.68253 0.0
O339 O 0.88224 0.70049 0.73367 0.0
O340 O 0.83398 0.69123 0.71411 0.0
O341 O 0.87221 0.64915 0.67771 0.0
C342 C 0.73314 0.59757 0.70917 0.0
O343 O 0.81798 0.61155 0.69782 0.0
C344 C 0.81056 0.65107 0.61375 0.0
C345 C 0.81314 0.72487 0.66161 0.0
O346 O 0.73995 0.59643 0.67459 0.0
O347 O 0.7601 0.62468 0.72888 0.0
O348 O 0.78011 0.64266 0.62239 0.0
O349 O 0.828 0.65204 0.64284 0.0
O350 O 0.78997 0.69465 0.67659 0.0
O351 O 0.84422 0.7307 0.65594 0.0
C352 C 0.92856 0.74532 0.64711 0.0
O353 O 0.92072 0.74929 0.68069 0.0
O354 O 0.90288 0.71569 0.6287 0.0
C355 C 0.85189 0.69191 0.74277 0.0
Tb356 Tb 0.3169 0.16614 0.6798 0.0
C357 C 0.39448 0.22656 0.69218 0.0
Tb358 Tb 0.36903 0.13926 0.68357 0.0
O359 O 0.33345 0.1908 0.7383 0.0
O360 O 0.33582 0.14342 0.72004 0.0
O361 O 0.36384 0.21836 0.6771 0.0
C362 C 0.41496 0.11948 0.70374 0.0
O363 O 0.40152 0.2 0.70081 0.0
C364 C 0.34291 0.13813 0.61588 0.0
C365 C 0.29031 0.07893 0.67154 0.0
O366 O 0.41866 0.14254 0.67882 0.0
O367 O 0.38592 0.10829 0.71766 0.0
O368 O 0.35398 0.1157 0.62462 0.0
O369 O 0.3501 0.16179 0.64349 0.0
O370 O 0.32146 0.08597 0.68381 0.0
O371 O 0.28352 0.10598 0.66483 0.0
C372 C 0.27237 0.18744 0.65818 0.0
O373 O 0.27204 0.17184 0.68878 0.0
O374 O 0.29727 0.19028 0.63974 0.0
C375 C 0.34329 0.16741 0.74743 0.0
Tb376 Tb 0.82023 0.17043 0.67859 0.0
C377 C 0.84725 0.11494 0.66316 0.0
Tb378 Tb 0.89754 0.20445 0.67216 0.0
O379 O 0.809 0.14912 0.61921 0.0
O380 O 0.85487 0.19814 0.63852 0.0
O381 O 0.82155 0.11863 0.67448 0.0
C382 C 0.95857 0.22494 0.64784 0.0
O383 O 0.87812 0.14407 0.65938 0.0
C384 C 0.87944 0.20118 0.74047 0.0
C385 C 0.86989 0.25948 0.68661 0.0
O386 O 0.95217 0.22308 0.6827 0.0
O387 O 0.93064 0.21545 0.62666 0.0
O388 O 0.90896 0.2267 0.73112 0.0
O389 O 0.8631 0.17742 0.71254 0.0
O390 O 0.8946 0.25552 0.67239 0.0
O391 O 0.84039 0.23032 0.69398 0.0
C392 C 0.76029 0.14872 0.70623 0.0
O393 O 0.76759 0.16048 0.67326 0.0
O394 O 0.78665 0.14918 0.72322 0.0
C395 C 0.83863 0.17495 0.61027 0.0
C396 C 0.31539 0.90505 0.07504 0.0
C397 C 0.30292 0.8664 0.07701 0.0
C398 C 0.34707 0.9283 0.06126 0.0
C399 C 0.36722 0.91369 0.04832 0.0
H400 H 0.30041 0.91745 0.08387 0.0
H401 H 0.35566 0.95785 0.06036 0.0
S402 S 0.34817 0.81549 0.05039 0.0
N403 N 0.315 0.81547 0.06747 0.0
N404 N 0.37355 0.85878 0.04002 0.0
C405 C 0.35533 0.8753 0.05032 0.0
C406 C 0.32344 0.85176 0.06502 0.0
C407 C 0.12487 0.40659 0.0748 0.0
C408 C 0.16038 0.43272 0.07769 0.0
C409 C 0.10079 0.41585 0.06067 0.0
C410 C 0.11131 0.45121 0.04801 0.0
H411 H 0.11553 0.37898 0.08429 0.0
H412 H 0.0737 0.39524 0.05988 0.0
S413 S 0.20078 0.52964 0.04875 0.0
N414 N 0.20462 0.49583 0.06675 0.0
N415 N 0.15918 0.51225 0.03828 0.0
C416 C 0.14657 0.47711 0.04923 0.0
C417 C 0.17117 0.46808 0.06445 0.0
C418 C 0.53111 0.68481 0.04837 0.0
C419 C 0.56521 0.71356 0.05829 0.0
C420 C 0.52355 0.64928 0.03282 0.0
C421 C 0.54982 0.6412 0.02639 0.0
H422 H 0.51007 0.68912 0.05463 0.0
H423 H 0.49678 0.62761 0.02725 0.0
S424 S 0.64364 0.70911 0.04304 0.0
N425 N 0.62557 0.73325 0.05725 0.0
N426 N 0.61164 0.66665 0.02798 0.0
C427 C 0.58415 0.67069 0.03388 0.0
C428 C 0.59176 0.70679 0.0499 0.0
C429 C 0.87114 0.33546 0.96709 0.0
C430 C 0.8778 0.30606 0.95996 0.0
C431 C 0.89744 0.37133 0.98189 0.0
C432 C 0.93141 0.3791 0.99038 0.0
H433 H 0.84578 0.33122 0.95947 0.0
H434 H 0.89119 0.39336 0.98558 0.0
S435 S 0.96093 0.30991 0.98054 0.0
N436 N 0.91974 0.28577 0.96514 0.0
N437 N 0.9693 0.35294 0.99316 0.0
C438 C 0.93785 0.34916 0.98528 0.0
C439 C 0.91105 0.31274 0.96997 0.0
C440 C 0.7004 0.5532 0.95033 0.0
C441 C 0.72099 0.58813 0.93647 0.0
C442 C 0.66942 0.54451 0.96487 0.0
C443 C 0.65777 0.57029 0.96579 0.0
H444 H 0.70837 0.53244 0.95011 0.0
H445 H 0.65447 0.51736 0.97535 0.0
S446 S 0.70191 0.66553 0.93309 0.0
N447 N 0.72754 0.64874 0.92496 0.0
N448 N 0.66884 0.632 0.95138 0.0
C449 C 0.6777 0.60502 0.95146 0.0
C450 C 0.70939 0.61401 0.93693 0.0
C451 C 0.49239 0.15808 0.97203 0.0
C452 C 0.45887 0.14738 0.95739 0.0
C453 C 0.49985 0.13227 0.9876 0.0
C454 C 0.47411 0.0946 0.98951 0.0
H455 H 0.51325 0.18649 0.97069 0.0
H456 H 0.52629 0.14193 0.99771 0.0
S457 S 0.38158 0.05295 0.95716 0.0
N458 N 0.39924 0.09706 0.94745 0.0
N459 N 0.41323 0.0484 0.9765 0.0
C460 C 0.44021 0.08377 0.97595 0.0
C461 C 0.43265 0.11011 0.95984 0.0
C462 C 0.69479 0.15542 0.97683 0.0
C463 C 0.70011 0.14048 0.94325 0.0
C464 C 0.66337 0.13646 0.99267 0.0
C465 C 0.63627 0.10196 0.9755 0.0
H466 H 0.71504 0.18174 0.9912 0.0
H467 H 0.66039 0.14878 0.01863 0.0
S468 S 0.63648 0.05226 0.88601 0.0
N469 N 0.67518 0.0899 0.89281 0.0
N470 N 0.61634 0.05459 0.92212 0.0
C471 C 0.64113 0.08713 0.94163 0.0
C472 C 0.67301 0.10632 0.92565 0.0
C473 C 0.89567 0.5613 0.9297 0.0
C474 C 0.87131 0.56237 0.95152 0.0
C475 C 0.91804 0.5499 0.94387 0.0
C476 C 0.91653 0.53853 0.98023 0.0
H477 H 0.89762 0.56956 0.90136 0.0
H478 H 0.93647 0.54968 0.92595 0.0
S479 S 0.85687 0.53534 0.04861 0.0
N480 N 0.84665 0.55087 0.01133 0.0
N481 N 0.88861 0.52861 0.03788 0.0
C482 C 0.89209 0.53904 1.0024 0.0
C483 C 0.86949 0.55125 0.98807 0.0
C484 C 0.44676 0.34811 0.98175 0.0
C485 C 0.46815 0.33384 0.97291 0.0
C486 C 0.45984 0.38665 0.98953 0.0
C487 C 0.49496 0.41287 0.98829 0.0
H488 H 0.41945 0.32926 0.98253 0.0
H489 H 0.44191 0.39586 0.99596 0.0
S490 S 0.56203 0.38999 0.96588 0.0
N491 N 0.52633 0.34871 0.96316 0.0
N492 N 0.55104 0.4216 0.97731 0.0
C493 C 0.51681 0.39903 0.97935 0.0
C494 C 0.50342 0.35942 0.97186 0.0
C495 C 0.15015 0.65533 0.05212 0.0
C496 C 0.14036 0.68058 0.06645 0.0
C497 C 0.12522 0.61853 0.03757 0.0
C498 C 0.08989 0.60636 0.03604 0.0
H499 H 0.17704 0.66342 0.05392 0.0
H500 H 0.13361 0.59928 0.02824 0.0
S501 S 0.05186 0.66323 0.06902 0.0
N502 N 0.09372 0.69167 0.07787 0.0
N503 N 0.04688 0.62353 0.04928 0.0
C504 C 0.08016 0.63228 0.04884 0.0
C505 C 0.10543 0.66913 0.06448 0.0
C506 C 0.33612 0.45071 0.06121 0.0
C507 C 0.33737 0.46979 0.09555 0.0
C508 C 0.36594 0.46107 0.04323 0.0
C509 C 0.39796 0.49098 0.05889 0.0
H510 H 0.31202 0.42731 0.04827 0.0
H511 H 0.3639 0.4453 0.01709 0.0
S512 S 0.41419 0.55222 0.14637 0.0
N513 N 0.3727 0.52117 0.14344 0.0
N514 N 0.42878 0.54099 0.10958 0.0
C515 C 0.39942 0.51073 0.09287 0.0
C516 C 0.3691 0.49999 0.11125 0.0
C517 C 0.52471 0.87482 0.05827 0.0
C518 C 0.55872 0.88964 0.07434 0.0
C519 C 0.51332 0.89839 0.04447 0.0
C520 C 0.53572 0.93745 0.04556 0.0
H521 H 0.50662 0.84495 0.05689 0.0
H522 H 0.48683 0.88593 0.03278 0.0
S523 S 0.62729 0.98988 0.08513 0.0
N524 N 0.61447 0.94559 0.0909 0.0
N525 N 0.59356 0.98971 0.06453 0.0
C526 C 0.56988 0.9524 0.06129 0.0
C527 C 0.58122 0.92854 0.0758 0.0
C528 C 0.97908 0.23162 0.41163 0.0
C529 C 0.96702 0.19302 0.41272 0.0
C530 C 0.01116 0.25565 0.39908 0.0
C531 C 0.03234 0.242 0.38701 0.0
H532 H 0.96341 0.24327 0.42007 0.0
H533 H 0.01927 0.28512 0.39856 0.0
S534 S 0.01436 0.14408 0.38772 0.0
N535 N 0.98017 0.14291 0.40326 0.0
N536 N 0.03992 0.1879 0.3789 0.0
C537 C 0.02094 0.20367 0.38855 0.0
C538 C 0.98843 0.17925 0.40159 0.0
C539 C 0.80352 0.76684 0.4319 0.0
C540 C 0.82443 0.76016 0.40861 0.0
C541 C 0.77796 0.77338 0.41706 0.0
C542 C 0.77298 0.77495 0.37844 0.0
H543 H 0.80674 0.76687 0.46208 0.0
H544 H 0.76227 0.77779 0.43614 0.0
S545 S 0.82099 0.76104 0.30497 0.0
N546 N 0.83811 0.75569 0.34449 0.0
N547 N 0.79119 0.77061 0.3169 0.0
C548 C 0.79429 0.76989 0.35471 0.0
C549 C 0.81984 0.76202 0.36973 0.0
C550 C 0.25928 0.03903 0.38181 0.0
C551 C 0.23326 0.04755 0.38781 0.0
C552 C 0.25141 1.00327 0.36646 0.0
C553 C 0.21714 0.97451 0.35671 0.0
H554 H 0.28589 0.05965 0.39076 0.0
H555 H 0.27226 0.9976 0.36442 0.0
S556 S 0.13982 0.98402 0.36199 0.0
N557 N 0.17212 0.02541 0.37943 0.0
N558 N 0.15724 0.9586 0.34989 0.0
C559 C 0.19109 0.98365 0.35979 0.0
C560 C 0.19916 0.02005 0.37546 0.0
C561 C 0.53201 0.67068 0.29654 0.0
C562 C 0.53653 0.63948 0.29223 0.0
C563 C 0.55885 0.70564 0.31277 0.0
C564 C 0.59114 0.71061 0.32552 0.0
H565 H 0.5082 0.66854 0.28545 0.0
H566 H 0.55455 0.72922 0.31396 0.0
S567 S 0.61409 0.63572 0.32441 0.0
N568 N 0.57415 0.61443 0.30465 0.0
N569 N 0.62463 0.67976 0.33554 0.0
C570 C 0.59508 0.67877 0.32341 0.0
C571 C 0.56779 0.64332 0.30662 0.0
C572 C 0.37809 0.90174 0.29993 0.0
C573 C 0.39797 0.93747 0.2872 0.0
C574 C 0.34615 0.89074 0.31336 0.0
C575 C 0.33243 0.91467 0.31386 0.0
H576 H 0.38687 0.88167 0.29881 0.0
H577 H 0.33167 0.86286 0.32247 0.0
S578 S 0.37472 0.01203 0.28687 0.0
N579 N 0.40233 0.99785 0.27913 0.0
N580 N 0.34143 0.97612 0.30233 0.0
C581 C 0.35192 0.95049 0.3017 0.0
C582 C 0.38486 0.96212 0.28886 0.0
C583 C 0.15727 0.48791 0.30241 0.0
C584 C 0.12344 0.47755 0.28938 0.0
C585 C 0.16494 0.46191 0.31715 0.0
C586 C 0.13903 0.42458 0.32004 0.0
H587 H 0.1781 0.51628 0.30072 0.0
H588 H 0.1915 0.47126 0.32635 0.0
S589 S 0.04609 0.38351 0.29029 0.0
N590 N 0.06369 0.42762 0.2806 0.0
N591 N 0.07796 0.37868 0.30846 0.0
C592 C 0.10498 0.41395 0.30745 0.0
C593 C 0.09725 0.4404 0.29201 0.0
C594 C 0.35598 0.50969 0.33524 0.0
C595 C 0.3671 0.50655 0.30013 0.0
C596 C 0.32337 0.48314 0.34435 0.0
C597 C 0.30057 0.45234 0.3187 0.0
H598 H 0.37278 0.53275 0.3561 0.0
H599 H 0.31613 0.48666 0.37192 0.0
S600 S 0.31609 0.43215 0.22196 0.0
N601 N 0.35193 0.47083 0.23872 0.0
N602 N 0.29061 0.42085 0.25607 0.0
C603 C 0.311 0.44904 0.28319 0.0
C604 C 0.34429 0.47618 0.27382 0.0
C605 C 0.5693 0.90214 0.25992 0.0
C606 C 0.54683 0.90634 0.28262 0.0
C607 C 0.58975 0.88777 0.27325 0.0
C608 C 0.58839 0.87676 0.30979 0.0
H609 H 0.57123 0.91019 0.23151 0.0
H610 H 0.60674 0.88525 0.25467 0.0
S611 S 0.53354 0.8814 0.38059 0.0
N612 N 0.52427 0.898 0.3436 0.0
N613 N 0.56259 0.87069 0.36855 0.0
C614 C 0.56588 0.88049 0.33282 0.0
C615 C 0.54513 0.89539 0.31929 0.0
C616 C 0.12663 0.68435 0.30024 0.0
C617 C 0.15023 0.6718 0.30367 0.0
C618 C 0.13588 0.72104 0.31346 0.0
C619 C 0.16948 0.7469 0.3295 0.0
H620 H 0.10112 0.666 0.28611 0.0
H621 H 0.11701 0.72971 0.30918 0.0
S622 S 0.24043 0.72699 0.34593 0.0
N623 N 0.20795 0.68695 0.32564 0.0
N624 N 0.22597 0.75661 0.34957 0.0
C625 C 0.19309 0.73427 0.33398 0.0
C626 C 0.18331 0.6965 0.32125 0.0
C627 C 0.79746 0.99617 0.37169 0.0
C628 C 0.81677 1.00199 0.4062 0.0
C629 C 0.76983 0.9604 0.35842 0.0
C630 C 0.76122 0.92929 0.37887 0.0
H631 H 0.80326 0.01942 0.35514 0.0
H632 H 0.75531 0.957 0.33191 0.0
S633 S 0.80306 0.93009 0.47141 0.0
N634 N 0.82468 0.97397 0.46099 0.0
N635 N 0.77352 0.90684 0.43571 0.0
C636 C 0.78046 0.9348 0.41328 0.0
C637 C 0.80806 0.97116 0.42703 0.0
C638 C 1.00463 0.79839 0.3886 0.0
C639 C 1.00121 0.78607 0.42482 0.0
C640 C 0.03488 0.8091 0.37112 0.0
C641 C 0.06266 0.80765 0.38911 0.0
H642 H 0.9839 0.79984 0.37356 0.0
H643 H 0.03649 0.81856 0.34333 0.0
S644 S 0.06683 0.77816 0.48438 0.0
N645 N 0.02839 0.77364 0.47819 0.0
N646 N 0.08491 0.79342 0.44547 0.0
C647 C 0.05953 0.79544 0.42533 0.0
C648 C 0.02889 0.78476 0.44312 0.0
C649 C 0.24472 0.2602 0.41311 0.0
C650 C 0.22214 0.22152 0.41412 0.0
C651 C 0.23316 0.28359 0.39959 0.0
C652 C 0.19831 0.26948 0.38734 0.0
H653 H 0.27174 0.27248 0.42248 0.0
H654 H 0.2517 0.31317 0.39929 0.0
S655 S 0.12829 0.17033 0.38569 0.0
N656 N 0.16308 0.17008 0.40225 0.0
N657 N 0.14111 0.21423 0.3778 0.0
C658 C 0.17526 0.2309 0.38882 0.0
C659 C 0.18722 0.20686 0.4019 0.0
C660 C 0.66605 0.54654 0.77654 0.0
C661 C 0.63615 0.52307 0.75219 0.0
C662 C 0.69735 0.57079 0.76248 0.0
C663 C 0.69988 0.57232 0.72358 0.0
H664 H 0.6654 0.54571 0.80664 0.0
H665 H 0.7198 0.58809 0.7822 0.0
S666 S 0.62853 0.51952 0.64813 0.0
N667 N 0.61066 0.50532 0.68736 0.0
N668 N 0.66946 0.54995 0.6611 0.0
C669 C 0.67009 0.54962 0.69903 0.0
C670 C 0.63825 0.52526 0.71328 0.0
C671 C 0.49784 0.11964 0.72699 0.0
C672 C 0.48618 0.08321 0.73782 0.0
C673 C 0.47462 0.13095 0.71476 0.0
C674 C 0.43906 0.1065 0.71378 0.0
H675 H 0.52505 0.14005 0.72927 0.0
H676 H 0.48457 0.15944 0.70747 0.0
S677 S 0.39511 1.00686 0.73388 0.0
N678 N 0.43645 0.02142 0.74201 0.0
N679 N 0.39303 0.04353 0.72113 0.0
C680 C 0.42699 0.06973 0.72311 0.0
C681 C 0.45051 0.05786 0.7346 0.0
C682 C 0.9183 0.36345 0.71991 0.0
C683 C 0.89213 0.37014 0.73028 0.0
C684 C 0.9107 0.32809 0.70386 0.0
C685 C 0.87663 0.29788 0.69802 0.0
H686 H 0.94497 0.38555 0.72506 0.0
H687 H 0.93189 0.32409 0.69755 0.0
S688 S 0.79863 0.30166 0.7186 0.0
N689 N 0.83082 0.34444 0.73216 0.0
N690 N 0.81627 0.27786 0.70204 0.0
C691 C 0.8501 0.30468 0.70703 0.0
C692 C 0.85791 0.34083 0.72311 0.0
C693 C 0.20243 0.99548 0.63847 0.0
C694 C 0.20932 0.96614 0.63211 0.0
C695 C 0.22849 0.03145 0.65304 0.0
C696 C 0.26242 0.0394 0.66198 0.0
H697 H 0.17713 0.99113 0.63032 0.0
H698 H 0.22214 0.05345 0.65599 0.0
S699 S 0.29254 0.97062 0.65441 0.0
N700 N 0.25141 0.94612 0.63876 0.0
N701 N 0.30061 0.01368 0.6662 0.0
C702 C 0.26911 0.00958 0.65781 0.0
C703 C 0.24253 0.973 0.64277 0.0
C704 C 0.05439 0.26447 0.64847 0.0
C705 C 0.05814 0.2571 0.61081 0.0
C706 C 0.02199 0.25397 0.66017 0.0
C707 C 0.9923 0.23586 0.6346 0.0
H708 H 0.0767 0.27866 0.66896 0.0
H709 H 0.02024 0.26028 0.68943 0.0
S710 S 0.98813 0.20714 0.53375 0.0
N711 N 0.02938 0.2285 0.54858 0.0
N712 N 0.96842 0.20922 0.57042 0.0
C713 C 0.99564 0.22796 0.59697 0.0
C714 C 0.0286 0.23849 0.58511 0.0
C715 C 0.82372 0.81523 0.62722 0.0
C716 C 0.7898 0.80768 0.62015 0.0
C717 C 0.83082 0.78858 0.64128 0.0
C718 C 0.80433 0.75318 0.64925 0.0
H719 H 0.84506 0.84178 0.62113 0.0
H720 H 0.85746 0.79587 0.64567 0.0
S721 S 0.71093 0.71991 0.63682 0.0
N722 N 0.72934 0.76266 0.62309 0.0
N723 N 0.74256 0.71236 0.64941 0.0
C724 C 0.77021 0.74544 0.64287 0.0
C725 C 0.76299 0.77264 0.62826 0.0
C726 C 0.99773 0.78454 0.58038 0.0
C727 C 0.02624 0.81334 0.60315 0.0
C728 C 0.96611 0.76293 0.59476 0.0
C729 C 0.96179 0.76951 0.63242 0.0
H730 H 0.99998 0.77832 0.55127 0.0
H731 H 0.94497 0.74077 0.57625 0.0
S732 S 0.02778 0.84254 0.70355 0.0
N733 N 0.04769 0.84797 0.6652 0.0
N734 N 0.98821 0.80744 0.69201 0.0
C735 C 0.98981 0.79865 0.65536 0.0
C736 C 0.02209 0.82057 0.6408 0.0
C737 C 0.24647 0.25189 0.61507 0.0
C738 C 0.21701 0.24477 0.63244 0.0
C739 C 0.26338 0.23208 0.62268 0.0
C740 C 0.25187 0.20501 0.6486 0.0
H741 H 0.2565 0.27291 0.59529 0.0
H742 H 0.28618 0.23879 0.60882 0.0
S743 S 0.17585 0.17579 0.70169 0.0
N744 N 0.17656 0.2083 0.67629 0.0
N745 N 0.20909 0.17168 0.69142 0.0
C746 C 0.22235 0.19742 0.66612 0.0
C747 C 0.20469 0.21716 0.65783 0.0
C748 C 0.86079 0.03237 0.64104 0.0
C749 C 0.82965 1.00614 0.62027 0.0
C750 C 0.86621 0.06742 0.65573 0.0
C751 C 0.84028 0.07675 0.65088 0.0
H752 H 0.88146 0.02632 0.64474 0.0
H753 H 0.89093 0.08748 0.67057 0.0
S754 S 0.75401 0.01681 0.59882 0.0
N755 N 0.77279 0.99138 0.59539 0.0
N756 N 0.78216 0.05635 0.62406 0.0
C757 C 0.80866 0.05002 0.63105 0.0
C758 C 0.80358 0.01492 0.61539 0.0
C759 C 0.47972 0.3168 0.72173 0.0
C760 C 0.47011 0.3444 0.72205 0.0
C761 C 0.45527 0.27865 0.71178 0.0
C762 C 0.42052 0.26696 0.70154 0.0
H763 H 0.50611 0.32456 0.72965 0.0
H764 H 0.46365 0.25825 0.71221 0.0
S765 S 0.38269 0.32901 0.69865 0.0
N766 N 0.42389 0.35774 0.71168 0.0
N767 N 0.37806 0.28679 0.69304 0.0
C768 C 0.41088 0.29466 0.70168 0.0
C769 C 0.43565 0.33317 0.71191 0.0
C770 C 0.66796 0.12318 0.71545 0.0
C771 C 0.66355 0.11342 0.75254 0.0
C772 C 0.69947 0.1348 0.70059 0.0
C773 C 0.72739 0.13671 0.72223 0.0
H774 H 0.64714 0.12215 0.69785 0.0
H775 H 0.70191 0.14222 0.67196 0.0
S776 S 0.72848 0.11319 0.82048 0.0
N777 N 0.68943 0.10602 0.81027 0.0
N778 N 0.74839 0.12748 0.78241 0.0
C779 C 0.72315 0.12682 0.75923 0.0
C780 C 0.69127 0.11527 0.77435 0.0
C781 C 0.90839 0.58204 0.72287 0.0
C782 C 0.88587 0.5459 0.73266 0.0
C783 C 0.8961 0.60425 0.70807 0.0
C784 C 0.86064 0.59161 0.70316 0.0
H785 H 0.93592 0.59342 0.72685 0.0
H786 H 0.91481 0.63215 0.70169 0.0
S787 S 0.79073 0.49868 0.72463 0.0
N788 N 0.82633 0.49792 0.73601 0.0
N789 N 0.80304 0.53999 0.709 0.0
C790 C 0.8377 0.55521 0.71253 0.0
C791 C 0.85033 0.53228 0.72708 0.0
C792 C 0.46224 0.97383 0.15563 0.0
C793 C 0.48022 0.99493 0.18963 0.0
C794 C 0.47306 0.98783 0.12127 0.0
C795 C 0.5018 0.02377 0.11957 0.0
H796 H 0.44071 0.94554 0.15559 0.0
H797 H 0.45955 0.96961 0.09587 0.0
S798 S 0.55622 0.09092 0.20124 0.0
N799 N 0.52729 0.05378 0.22009 0.0
N800 N 0.54703 0.08085 0.15528 0.0
C801 C 0.51907 0.04584 0.15352 0.0
C802 C 0.50842 0.0312 0.18862 0.0
C803 C 0.04582 0.48372 0.1704 0.0
C804 C 0.07239 0.51946 0.18612 0.0
C805 C 0.02736 0.47914 0.13553 0.0
C806 C 0.034 0.51026 0.11591 0.0
H807 H 0.03849 0.45926 0.18553 0.0
H808 H 1.00683 0.45134 0.12465 0.0
S809 S 0.10367 0.60864 0.14135 0.0
N810 N 0.10778 0.58538 0.17527 0.0
N811 N 0.07005 0.57723 0.11311 0.0
C812 C 0.06087 0.54573 0.13066 0.0
C813 C 0.08086 0.55019 0.16483 0.0
C814 C 0.52981 0.58617 0.1548 0.0
C815 C 0.50631 0.55609 0.17378 0.0
C816 C 0.54212 0.57991 0.12189 0.0
C817 C 0.53055 0.54336 0.10586 0.0
H818 H 0.53897 0.61499 0.16545 0.0
H819 H 0.56055 0.60392 0.10864 0.0
S820 S 0.46836 0.45468 0.14235 0.0
N821 N 0.47206 0.48796 0.1733 0.0
N822 N 0.49356 0.47662 0.10972 0.0
C823 C 0.50612 0.51297 0.12323 0.0
C824 C 0.49431 0.51921 0.15754 0.0
C825 C 0.94437 0.47119 0.87429 0.0
C826 C 0.95559 0.46424 0.84056 0.0
C827 C 0.96318 0.47672 0.90901 0.0
C828 C 0.99407 0.47611 0.91118 0.0
H829 H 0.92005 0.47048 0.87401 0.0
H830 H 0.95235 0.47922 0.93426 0.0
S831 S 0.03574 0.46166 0.83093 0.0
N832 N 1.00043 0.45894 0.8114 0.0
N833 N 0.03568 0.46945 0.87661 0.0
C834 C 1.00598 0.47018 0.87764 0.0
C835 C 0.98687 0.46442 0.84234 0.0
C836 C 0.56543 0.51129 0.87508 0.0
C837 C 0.54506 0.496 0.84068 0.0
C838 C 0.55195 0.51812 0.90681 0.0
C839 C 0.51795 0.51055 0.90561 0.0
H840 H 0.59148 0.51641 0.87798 0.0
H841 H 0.56774 0.52754 0.93294 0.0
S842 S 0.45443 0.47252 0.82162 0.0
N843 N 0.48931 0.47494 0.80657 0.0
N844 N 0.46432 0.48802 0.86665 0.0
C845 C 0.49743 0.496 0.8712 0.0
C846 C 0.51099 0.48884 0.83867 0.0
C847 C 0.53815 0.05455 0.8754 0.0
C848 C 0.5212 0.03116 0.84221 0.0
C849 C 0.52882 0.04147 0.91039 0.0
C850 C 0.50283 1.00424 0.91347 0.0
H851 H 0.55762 0.08369 0.87424 0.0
H852 H 0.5412 0.06126 0.93507 0.0
S853 S 0.45224 0.93139 0.83428 0.0
N854 N 0.47809 0.9691 0.81391 0.0
N855 N 0.46137 0.94372 0.87997 0.0
C856 C 0.4867 0.98011 0.88034 0.0
C857 C 0.49571 0.99378 0.84459 0.0
C858 C 0.1265 0.30553 0.48865 0.0
C859 C 0.14827 0.31804 0.52232 0.0
C860 C 0.13846 0.32175 0.45542 0.0
C861 C 0.1724 0.35097 0.45458 0.0
H862 H 0.10049 0.28203 0.4876 0.0
H863 H 0.12157 0.31003 0.42994 0.0
S864 S 0.23873 0.39624 0.5359 0.0
N865 N 0.20471 0.36331 0.55349 0.0
N866 N 0.22715 0.39333 0.49072 0.0
C867 C 0.19411 0.36455 0.48827 0.0
C868 C 0.18201 0.34822 0.5222 0.0
C869 C 0.73287 0.82547 0.4902 0.0
C870 C 0.73125 0.84583 0.522 0.0
C871 C 0.71373 0.82083 0.45599 0.0
C872 C 0.69244 0.83639 0.45204 0.0
H873 H 0.75019 0.81447 0.49125 0.0
H874 H 0.71695 0.80654 0.43214 0.0
S875 S 0.67597 0.88839 0.52802 0.0
N876 N 0.70391 0.87859 0.54837 0.0
N877 N 0.66881 0.87061 0.48384 0.0
C878 C 0.68954 0.85553 0.48403 0.0
C879 C 0.70869 0.85999 0.519 0.0
C880 C 0.15864 0.88015 0.48493 0.0
C881 C 0.174 0.87642 0.51831 0.0
C882 C 0.16977 0.87621 0.45025 0.0
C883 C 0.19606 0.86752 0.44764 0.0
H884 H 0.139 0.88787 0.4858 0.0
H885 H 0.15838 0.88125 0.42548 0.0
S886 S 0.24282 0.85254 0.52709 0.0
N887 N 0.21585 0.86247 0.547 0.0
N888 N 0.23602 0.85362 0.48151 0.0
C889 C 0.21069 0.8623 0.4808 0.0
C890 C 0.19979 0.86707 0.51623 0.0
C891 C 0.60908 0.76387 0.19939 0.0
C892 C 0.61505 0.79464 0.1793 0.0
C893 C 0.62878 0.76863 0.23298 0.0
C894 C 0.65457 0.80445 0.24856 0.0
H895 H 0.58939 0.7356 0.18872 0.0
H896 H 0.62386 0.74396 0.24679 0.0
S897 S 0.67947 0.89465 0.2093 0.0
N898 N 0.64848 0.86264 0.17857 0.0
N899 N 0.68423 0.87147 0.24302 0.0
C900 C 0.65979 0.83573 0.23019 0.0
C901 C 0.64025 0.83088 0.19532 0.0
C902 C 0.23652 0.84835 0.20628 0.0
C903 C 0.21837 0.84503 0.17182 0.0
C904 C 0.22464 0.853 0.24029 0.0
C905 C 0.19456 0.85525 0.24115 0.0
H906 H 0.25903 0.84531 0.20699 0.0
H907 H 0.23851 0.85337 0.26611 0.0
S908 S 0.13926 0.85089 0.15814 0.0
N909 N 0.16979 0.84589 0.1402 0.0
N910 N 0.148 0.85589 0.20421 0.0
C911 C 0.1771 0.85378 0.20677 0.0
C912 C 0.18888 0.84835 0.17208 0.0
C913 C 0.16933 0.39157 0.21121 0.0
C914 C 0.19217 0.38593 0.19024 0.0
C915 C 0.15557 0.37149 0.24189 0.0
C916 C 0.16577 0.3468 0.25471 0.0
H917 H 0.16128 0.41119 0.20356 0.0
H918 H 0.13683 0.37552 0.25574 0.0
S919 S 0.22626 0.32304 0.21275 0.0
N920 N 0.22425 0.35292 0.18542 0.0
N921 N 0.2011 0.31865 0.24608 0.0
C922 C 0.18998 0.34227 0.23589 0.0
C923 C 0.20275 0.36121 0.20317 0.0
C924 C 0.80142 0.66501 0.82819 0.0
C925 C 0.81075 0.64041 0.84391 0.0
C926 C 0.81436 0.68125 0.79503 0.0
C927 C 0.83795 0.67448 0.77724 0.0
H928 H 0.78461 0.67243 0.84193 0.0
H929 H 0.80657 0.69996 0.78378 0.0
S930 S 0.86781 0.60936 0.80397 0.0
N931 N 0.84122 0.60604 0.83511 0.0
N932 N 0.86915 0.64081 0.77666 0.0
C933 C 0.84721 0.64983 0.7923 0.0
C934 C 0.83262 0.63165 0.82455 0.0
C935 C 0.41292 0.21297 0.82841 0.0
C936 C 0.40487 0.18369 0.85169 0.0
C937 C 0.39277 0.20742 0.79486 0.0
C938 C 0.36469 0.17198 0.78215 0.0
H939 H 0.43484 0.24075 0.83624 0.0
H940 H 0.39944 0.23106 0.77859 0.0
S941 S 0.3328 0.08528 0.83028 0.0
N942 N 0.36588 0.1175 0.85873 0.0
N943 N 0.33016 0.10672 0.79377 0.0
C944 C 0.35709 0.14195 0.8037 0.0
C945 C 0.37673 0.14783 0.83881 0.0
C946 C 0.86019 0.24846 0.82091 0.0
C947 C 0.84161 0.21909 0.84324 0.0
C948 C 0.87183 0.24213 0.78749 0.0
C949 C 0.86454 0.20599 0.7744 0.0
H950 H 0.8664 0.27687 0.82968 0.0
H951 H 0.88683 0.26584 0.77186 0.0
S952 S 0.81673 0.11925 0.82143 0.0
N953 N 0.81676 0.15231 0.84965 0.0
N954 N 0.8372 0.14024 0.78547 0.0
C955 C 0.84493 0.17603 0.7954 0.0
C956 C 0.83371 0.18259 0.83009 0.0
C957 C 0.30632 0.15974 0.52887 0.0
C958 C 0.28203 0.12368 0.5116 0.0
C959 C 0.32528 0.1644 0.56331 0.0
C960 C 0.32125 0.13317 0.58113 0.0
H961 H 0.31151 0.18452 0.51517 0.0
H962 H 0.34409 0.19254 0.57537 0.0
S963 S 0.2575 0.03326 0.5514 0.0
N964 N 0.25154 0.05653 0.51862 0.0
N965 N 0.28935 0.06539 0.58116 0.0
C966 C 0.29636 0.09718 0.56505 0.0
C967 C 0.27618 0.09241 0.53088 0.0
C968 C 0.86215 0.13109 0.53073 0.0
C969 C 0.88059 0.16107 0.50882 0.0
C970 C 0.84856 0.13593 0.56322 0.0
C971 C 0.85414 0.17129 0.57638 0.0
H972 H 0.85769 0.10325 0.52257 0.0
H973 H 0.83376 0.11175 0.57831 0.0
S974 S 0.90253 0.25986 0.53233 0.0
N975 N 0.90411 0.22802 0.50387 0.0
N976 N 0.88081 0.23737 0.56699 0.0
C977 C 0.874 0.20204 0.55639 0.0
C978 C 0.88685 0.19694 0.52227 0.0
C979 C 0.82956 0.71273 0.53451 0.0
C980 C 0.85252 0.70619 0.51471 0.0
C981 C 0.8157 0.69415 0.56594 0.0
C982 C 0.82534 0.66949 0.5801 0.0
H983 H 0.82185 0.73226 0.52551 0.0
H984 H 0.79766 0.69965 0.57958 0.0
S985 S 0.88578 0.64371 0.54116 0.0
N986 N 0.88445 0.67303 0.51249 0.0
N987 N 0.86006 0.64019 0.5736 0.0
C988 C 0.84925 0.66365 0.56197 0.0
C989 C 0.86263 0.68168 0.52897 0.0
loop_
_geom_bond_atom_site_label_1
_geom_bond_atom_site_label_2
_geom_bond_distance
_geom_bond_site_symmetry_2
_ccdc_geom_bond_type
H0 C5 0.930 . S
H1 C8 0.930 . S
H2 C10 0.930 . S
H3 C4 1.016 . S
C4 H3 1.016 . S
C4 N11 1.286 . S
C5 H0 0.930 . S
C5 C6 1.397 . S
C5 C7 1.361 . S
C6 C5 1.397 . S
C6 C10 1.390 . S
C7 C5 1.361 . S
C7 C8 1.393 . S
C7 N11 1.413 . S
C8 H1 0.930 . S
C8 C7 1.393 . S
C8 C9 1.399 . S
C9 C8 1.399 . S
C9 C10 1.381 . S
C10 H2 0.930 . S
C10 C6 1.390 . S
C10 C9 1.381 . S
N11 C4 1.286 . S
N11 C7 1.413 . S
H12 C17 0.930 . S
H13 C20 0.930 . S
H14 C22 0.930 . S
H15 C16 1.016 . S
C16 H15 1.016 . S
C16 N23 1.286 . S
C17 H12 0.930 . S
C17 C18 1.397 . S
C17 C19 1.361 . S
C18 C17 1.397 . S
C18 C22 1.390 . S
C19 C17 1.361 . S
C19 C20 1.393 . S
C19 N23 1.413 . S
C20 H13 0.930 . S
C20 C19 1.393 . S
C20 C21 1.399 . S
C21 C20 1.399 . S
C21 C22 1.381 . S
C22 H14 0.930 . S
C22 C18 1.390 . S
C22 C21 1.381 . S
N23 C16 1.286 . S
N23 C19 1.413 . S
H24 C29 0.930 . S
H25 C32 0.930 . S
H26 C34 0.930 . S
H27 C28 1.016 . S
C28 H27 1.016 . S
C28 N35 1.286 . S
C29 H24 0.930 . S
C29 C30 1.397 . S
C29 C31 1.361 . S
C30 C29 1.397 . S
C30 C34 1.390 . S
C31 C29 1.361 . S
C31 C32 1.393 . S
C31 N35 1.413 . S
C32 H25 0.930 . S
C32 C31 1.393 . S
C32 C33 1.399 . S
C33 C32 1.399 . S
C33 C34 1.381 . S
C34 H26 0.930 . S
C34 C30 1.390 . S
C34 C33 1.381 . S
N35 C28 1.286 . S
N35 C31 1.413 . S
H36 C41 0.930 . S
H37 C44 0.930 . S
H38 C46 0.930 . S
H39 C40 1.016 . S
C40 H39 1.016 . S
C40 N47 1.286 . S
C41 H36 0.930 . S
C41 C42 1.397 . S
C41 C43 1.361 . S
C42 C41 1.397 . S
C42 C46 1.390 . S
C43 C41 1.361 . S
C43 C44 1.393 . S
C43 N47 1.413 . S
C44 H37 0.930 . S
C44 C43 1.393 . S
C44 C45 1.399 . S
C45 C44 1.399 . S
C45 C46 1.381 . S
C46 H38 0.930 . S
C46 C42 1.390 . S
C46 C45 1.381 . S
N47 C40 1.286 . S
N47 C43 1.413 . S
H48 C53 0.930 . S
H49 C56 0.930 . S
H50 C58 0.930 . S
H51 C52 1.016 . S
C52 H51 1.016 . S
C52 N59 1.286 . S
C53 H48 0.930 . S
C53 C54 1.397 . S
C53 C55 1.361 . S
C54 C53 1.397 . S
C54 C58 1.390 . S
C55 C53 1.361 . S
C55 C56 1.393 . S
C55 N59 1.413 . S
C56 H49 0.930 . S
C56 C55 1.393 . S
C56 C57 1.399 . S
C57 C56 1.399 . S
C57 C58 1.381 . S
C58 H50 0.930 . S
C58 C54 1.390 . S
C58 C57 1.381 . S
N59 C52 1.286 . S
N59 C55 1.413 . S
H60 C65 0.930 . S
H61 C68 0.930 . S
H62 C70 0.930 . S
H63 C64 1.016 . S
C64 H63 1.016 . S
C64 N71 1.286 . S
C65 H60 0.930 . S
C65 C66 1.397 . S
C65 C67 1.361 . S
C66 C65 1.397 . S
C66 C70 1.390 . S
C67 C65 1.361 . S
C67 C68 1.393 . S
C67 N71 1.413 . S
C68 H61 0.930 . S
C68 C67 1.393 . S
C68 C69 1.399 . S
C69 C68 1.399 . S
C69 C70 1.381 . S
C70 H62 0.930 . S
C70 C66 1.390 . S
C70 C69 1.381 . S
N71 C64 1.286 . S
N71 C67 1.413 . S
H72 C77 0.930 . S
H73 C80 0.930 . S
H74 C82 0.930 . S
H75 C76 1.016 . S
C76 H75 1.016 . S
C76 N83 1.286 . S
C77 H72 0.930 . S
C77 C78 1.397 . S
C77 C79 1.361 . S
C78 C77 1.397 . S
C78 C82 1.390 . S
C79 C77 1.361 . S
C79 C80 1.393 . S
C79 N83 1.413 . S
C80 H73 0.930 . S
C80 C79 1.393 . S
C80 C81 1.399 . S
C81 C80 1.399 . S
C81 C82 1.381 . S
C82 H74 0.930 . S
C82 C78 1.390 . S
C82 C81 1.381 . S
N83 C76 1.286 . S
N83 C79 1.413 . S
H84 C89 0.930 . S
H85 C92 0.930 . S
H86 C94 0.930 . S
H87 C88 1.016 . S
C88 H87 1.016 . S
C88 N95 1.286 . S
C89 H84 0.930 . S
C89 C90 1.397 . S
C89 C91 1.361 . S
C90 C89 1.397 . S
C90 C94 1.390 . S
C91 C89 1.361 . S
C91 C92 1.393 . S
C91 N95 1.413 . S
C92 H85 0.930 . S
C92 C91 1.393 . S
C92 C93 1.399 . S
C93 C92 1.399 . S
C93 C94 1.381 . S
C94 H86 0.930 . S
C94 C90 1.390 . S
C94 C93 1.381 . S
N95 C88 1.286 . S
N95 C91 1.413 . S
H96 C101 0.930 . S
H97 C104 0.930 . S
H98 C106 0.930 . S
H99 C100 1.016 . S
C100 H99 1.016 . S
C100 N107 1.286 . S
C101 H96 0.930 . S
C101 C102 1.397 . S
C101 C103 1.361 . S
C102 C101 1.397 . S
C102 C106 1.390 . S
C103 C101 1.361 . S
C103 C104 1.393 . S
C103 N107 1.413 . S
C104 H97 0.930 . S
C104 C103 1.393 . S
C104 C105 1.399 . S
C105 C104 1.399 . S
C105 C106 1.381 . S
C106 H98 0.930 . S
C106 C102 1.390 . S
C106 C105 1.381 . S
N107 C100 1.286 . S
N107 C103 1.413 . S
H108 C113 0.930 . S
H109 C116 0.930 . S
H110 C118 0.930 . S
H111 C112 1.016 . S
C112 H111 1.016 . S
C112 N119 1.286 . S
C113 H108 0.930 . S
C113 C114 1.397 . S
C113 C115 1.361 . S
C114 C113 1.397 . S
C114 C118 1.390 . S
C115 C113 1.361 . S
C115 C116 1.393 . S
C115 N119 1.413 . S
C116 H109 0.930 . S
C116 C115 1.393 . S
C116 C117 1.399 . S
C117 C116 1.399 . S
C117 C118 1.381 . S
C118 H110 0.930 . S
C118 C114 1.390 . S
C118 C117 1.381 . S
N119 C112 1.286 . S
N119 C115 1.413 . S
H120 C125 0.930 1_554 S
H121 C128 0.930 . S
H122 C130 0.930 . S
H123 C124 1.016 . S
C124 H123 1.016 . S
C124 N131 1.286 . S
C125 H120 0.930 1_556 S
C125 C126 1.397 . S
C125 C127 1.361 . S
C126 C125 1.397 . S
C126 C130 1.390 . S
C127 C125 1.361 . S
C127 C128 1.393 . S
C127 N131 1.413 . S
C128 H121 0.930 . S
C128 C127 1.393 . S
C128 C129 1.399 . S
C129 C128 1.399 . S
C129 C130 1.381 . S
C130 H122 0.930 . S
C130 C126 1.390 . S
C130 C129 1.381 . S
N131 C124 1.286 . S
N131 C127 1.413 . S
H132 C137 0.930 . S
H133 C140 0.930 . S
H134 C142 0.930 . S
H135 C136 1.016 . S
C136 H135 1.016 . S
C136 N143 1.286 . S
C137 H132 0.930 . S
C137 C138 1.397 . S
C137 C139 1.361 . S
C138 C137 1.397 . S
C138 C142 1.390 . S
C139 C137 1.361 . S
C139 C140 1.393 . S
C139 N143 1.413 . S
C140 H133 0.930 . S
C140 C139 1.393 . S
C140 C141 1.399 . S
C141 C140 1.399 . S
C141 C142 1.381 . S
C142 H134 0.930 . S
C142 C138 1.390 . S
C142 C141 1.381 . S
N143 C136 1.286 . S
N143 C139 1.413 . S
H144 C149 0.930 . S
H145 C152 0.930 . S
H146 C154 0.930 . S
H147 C148 1.016 . S
C148 H147 1.016 . S
C148 N155 1.286 . S
C149 H144 0.930 . S
C149 C150 1.397 . S
C149 C151 1.361 . S
C150 C149 1.397 . S
C150 C154 1.390 . S
C151 C149 1.361 . S
C151 C152 1.393 . S
C151 N155 1.413 . S
C152 H145 0.930 . S
C152 C151 1.393 . S
C152 C153 1.399 . S
C153 C152 1.399 . S
C153 C154 1.381 . S
C154 H146 0.930 . S
C154 C150 1.390 . S
C154 C153 1.381 . S
N155 C148 1.286 . S
N155 C151 1.413 . S
H156 C161 0.930 . S
H157 C164 0.930 . S
H158 C166 0.930 . S
H159 C160 1.016 . S
C160 H159 1.016 . S
C160 N167 1.286 . S
C161 H156 0.930 . S
C161 C162 1.397 . S
C161 C163 1.361 . S
C162 C161 1.397 . S
C162 C166 1.390 . S
C163 C161 1.361 . S
C163 C164 1.393 . S
C163 N167 1.413 . S
C164 H157 0.930 . S
C164 C163 1.393 . S
C164 C165 1.399 . S
C165 C164 1.399 . S
C165 C166 1.381 . S
C166 H158 0.930 . S
C166 C162 1.390 . S
C166 C165 1.381 . S
N167 C160 1.286 . S
N167 C163 1.413 . S
H168 C173 0.930 . S
H169 C176 0.930 . S
H170 C178 0.930 . S
H171 C172 1.016 . S
C172 H171 1.016 . S
C172 N179 1.286 . S
C173 H168 0.930 . S
C173 C174 1.397 . S
C173 C175 1.361 . S
C174 C173 1.397 . S
C174 C178 1.390 . S
C175 C173 1.361 . S
C175 C176 1.393 . S
C175 N179 1.413 . S
C176 H169 0.930 . S
C176 C175 1.393 . S
C176 C177 1.399 . S
C177 C176 1.399 . S
C177 C178 1.381 . S
C178 H170 0.930 . S
C178 C174 1.390 . S
C178 C177 1.381 . S
N179 C172 1.286 . S
N179 C175 1.413 . S
H180 C185 0.930 . S
H181 C188 0.930 . S
H182 C190 0.930 . S
H183 C184 1.016 . S
C184 H183 1.016 . S
C184 N191 1.286 . S
C185 H180 0.930 . S
C185 C186 1.397 . S
C185 C187 1.361 . S
C186 C185 1.397 . S
C186 C190 1.390 . S
C187 C185 1.361 . S
C187 C188 1.393 . S
C187 N191 1.413 . S
C188 H181 0.930 . S
C188 C187 1.393 . S
C188 C189 1.399 . S
C189 C188 1.399 . S
C189 C190 1.381 . S
C190 H182 0.930 . S
C190 C186 1.390 . S
C190 C189 1.381 . S
N191 C184 1.286 . S
N191 C187 1.413 . S
H192 C197 0.930 . S
H193 C200 0.930 . S
H194 C202 0.930 . S
H195 C196 1.016 . S
C196 H195 1.016 . S
C196 N203 1.286 . S
C197 H192 0.930 . S
C197 C198 1.397 . S
C197 C199 1.361 . S
C198 C197 1.397 . S
C198 C202 1.390 . S
C199 C197 1.361 . S
C199 C200 1.393 . S
C199 N203 1.413 . S
C200 H193 0.930 . S
C200 C199 1.393 . S
C200 C201 1.399 . S
C201 C200 1.399 . S
C201 C202 1.381 . S
C202 H194 0.930 . S
C202 C198 1.390 . S
C202 C201 1.381 . S
N203 C196 1.286 . S
N203 C199 1.413 . S
H204 C209 0.930 . S
H205 C212 0.930 . S
H206 C214 0.930 . S
H207 C208 1.016 . S
C208 H207 1.016 . S
C208 N215 1.286 . S
C209 H204 0.930 . S
C209 C210 1.397 . S
C209 C211 1.361 . S
C210 C209 1.397 . S
C210 C214 1.390 . S
C211 C209 1.361 . S
C211 C212 1.393 . S
C211 N215 1.413 . S
C212 H205 0.930 . S
C212 C211 1.393 . S
C212 C213 1.399 . S
C213 C212 1.399 . S
C213 C214 1.381 . S
C214 H206 0.930 . S
C214 C210 1.390 . S
C214 C213 1.381 . S
N215 C208 1.286 . S
N215 C211 1.413 . S
Tb216 O219 2.453 . S
Tb216 O220 2.596 1_545 S
Tb216 O221 2.374 1_545 S
Tb216 O229 2.343 1_554 S
Tb216 O231 2.353 . S
Tb216 O233 2.427 . S
Tb216 O234 2.513 1_554 S
C217 O221 1.251 . S
C217 O223 1.263 1_554 S
Tb218 O220 2.343 1_556 S
Tb218 O223 2.353 . S
Tb218 O226 2.427 1_556 S
Tb218 O227 2.513 1_556 S
Tb218 O228 2.453 . S
Tb218 O229 2.596 1_565 S
Tb218 O230 2.374 1_565 S
O219 Tb216 2.453 . S
O219 C235 1.245 1_545 S
O220 Tb216 2.596 1_565 S
O220 Tb218 2.343 1_554 S
O220 C235 1.259 . S
O221 Tb216 2.374 1_565 S
O221 C217 1.251 . S
C222 O226 1.275 . S
C222 O227 1.246 . S
O223 C217 1.263 1_556 S
O223 Tb218 2.353 . S
C224 O228 1.245 1_545 S
C224 O229 1.259 . S
C225 O230 1.250 1_554 S
C225 O231 1.263 . S
O226 Tb218 2.427 1_554 S
O226 C222 1.275 . S
O227 Tb218 2.513 1_554 S
O227 C222 1.246 . S
O228 Tb218 2.453 . S
O228 C224 1.245 1_565 S
O229 Tb216 2.343 1_556 S
O229 Tb218 2.596 1_545 S
O229 C224 1.259 . S
O230 Tb218 2.374 1_545 S
O230 C225 1.250 1_556 S
O231 Tb216 2.353 . S
O231 C225 1.263 . S
C232 O233 1.275 1_556 S
C232 O234 1.246 . S
O233 Tb216 2.427 . S
O233 C232 1.275 1_554 S
O234 Tb216 2.513 1_556 S
O234 C232 1.246 . S
C235 O219 1.245 1_565 S
C235 O220 1.259 . S
Tb236 O239 2.453 . S
Tb236 O240 2.596 1_655 S
Tb236 O241 2.374 1_655 S
Tb236 O249 2.343 1_554 S
Tb236 O251 2.353 . S
Tb236 O253 2.427 1_554 S
Tb236 O254 2.513 1_554 S
C237 O241 1.251 . S
C237 O243 1.263 1_554 S
Tb238 O240 2.343 1_556 S
Tb238 O243 2.353 . S
Tb238 O246 2.427 1_556 S
Tb238 O247 2.513 1_556 S
Tb238 O248 2.453 . S
Tb238 O249 2.596 1_455 S
Tb238 O250 2.374 1_455 S
O239 Tb236 2.453 . S
O239 C255 1.245 1_655 S
O240 Tb236 2.596 1_455 S
O240 Tb238 2.343 1_554 S
O240 C255 1.259 . S
O241 Tb236 2.374 1_455 S
O241 C237 1.251 . S
C242 O246 1.275 . S
C242 O247 1.246 . S
O243 C237 1.263 1_556 S
O243 Tb238 2.353 . S
C244 O248 1.245 1_655 S
C244 O249 1.259 . S
C245 O250 1.250 . S
C245 O251 1.263 1_556 S
O246 Tb238 2.427 1_554 S
O246 C242 1.275 . S
O247 Tb238 2.513 1_554 S
O247 C242 1.246 . S
O248 Tb238 2.453 . S
O248 C244 1.245 1_455 S
O249 Tb236 2.343 1_556 S
O249 Tb238 2.596 1_655 S
O249 C244 1.259 . S
O250 Tb238 2.374 1_655 S
O250 C245 1.250 . S
O251 Tb236 2.353 . S
O251 C245 1.263 1_554 S
C252 O253 1.275 . S
C252 O254 1.246 . S
O253 Tb236 2.427 1_556 S
O253 C252 1.275 . S
O254 Tb236 2.513 1_556 S
O254 C252 1.246 . S
C255 O239 1.245 1_455 S
C255 O240 1.259 . S
Tb256 O259 2.453 . S
Tb256 O260 2.596 . S
Tb256 O261 2.374 . S
Tb256 O269 2.343 1_556 S
Tb256 O271 2.353 . S
Tb256 O273 2.427 1_556 S
Tb256 O274 2.513 1_556 S
C257 O261 1.251 1_554 S
C257 O263 1.263 . S
Tb258 O260 2.343 1_554 S
Tb258 O263 2.353 . S
Tb258 O266 2.427 1_554 S
Tb258 O267 2.513 1_554 S
Tb258 O268 2.453 . S
Tb258 O269 2.596 . S
Tb258 O270 2.374 . S
O259 Tb256 2.453 . S
O259 C275 1.245 . S
O260 Tb256 2.596 . S
O260 Tb258 2.343 1_556 S
O260 C275 1.259 . S
O261 Tb256 2.374 . S
O261 C257 1.251 1_556 S
C262 O266 1.275 . S
C262 O267 1.246 . S
O263 C257 1.263 . S
O263 Tb258 2.353 . S
C264 O268 1.245 . S
C264 O269 1.259 . S
C265 O270 1.250 . S
C265 O271 1.263 1_554 S
O266 Tb258 2.427 1_556 S
O266 C262 1.275 . S
O267 Tb258 2.513 1_556 S
O267 C262 1.246 . S
O268 Tb258 2.453 . S
O268 C264 1.245 . S
O269 Tb256 2.343 1_554 S
O269 Tb258 2.596 . S
O269 C264 1.259 . S
O270 Tb258 2.374 . S
O270 C265 1.250 . S
O271 Tb256 2.353 . S
O271 C265 1.263 1_556 S
C272 O273 1.275 . S
C272 O274 1.246 . S
O273 Tb256 2.427 1_554 S
O273 C272 1.275 . S
O274 Tb256 2.513 1_554 S
O274 C272 1.246 . S
C275 O259 1.245 . S
C275 O260 1.259 . S
Tb276 O279 2.453 . S
Tb276 O280 2.596 . S
Tb276 O281 2.374 . S
Tb276 O289 2.343 . S
Tb276 O291 2.353 . S
Tb276 O293 2.427 . S
Tb276 O294 2.513 . S
C277 O281 1.251 . S
C277 O283 1.263 . S
Tb278 O280 2.343 . S
Tb278 O283 2.353 . S
Tb278 O286 2.427 . S
Tb278 O287 2.513 . S
Tb278 O288 2.453 . S
Tb278 O289 2.596 . S
Tb278 O290 2.374 . S
O279 Tb276 2.453 . S
O279 C295 1.245 . S
O280 Tb276 2.596 . S
O280 Tb278 2.343 . S
O280 C295 1.259 . S
O281 Tb276 2.374 . S
O281 C277 1.251 . S
C282 O286 1.275 . S
C282 O287 1.246 . S
O283 C277 1.263 . S
O283 Tb278 2.353 . S
C284 O288 1.245 . S
C284 O289 1.259 . S
C285 O290 1.250 . S
C285 O291 1.263 . S
O286 Tb278 2.427 . S
O286 C282 1.275 . S
O287 Tb278 2.513 . S
O287 C282 1.246 . S
O288 Tb278 2.453 . S
O288 C284 1.245 . S
O289 Tb276 2.343 . S
O289 Tb278 2.596 . S
O289 C284 1.259 . S
O290 Tb278 2.374 . S
O290 C285 1.250 . S
O291 Tb276 2.353 . S
O291 C285 1.263 . S
C292 O293 1.275 . S
C292 O294 1.246 . S
O293 Tb276 2.427 . S
O293 C292 1.275 . S
O294 Tb276 2.513 . S
O294 C292 1.246 . S
C295 O279 1.245 . S
C295 O280 1.259 . S
Tb296 O299 2.453 . S
Tb296 O300 2.596 . S
Tb296 O301 2.374 . S
Tb296 O309 2.343 . S
Tb296 O311 2.353 . S
Tb296 O313 2.427 . S
Tb296 O314 2.513 . S
C297 O301 1.251 . S
C297 O303 1.263 . S
Tb298 O300 2.343 . S
Tb298 O303 2.353 . S
Tb298 O306 2.427 . S
Tb298 O307 2.513 . S
Tb298 O308 2.453 . S
Tb298 O309 2.596 . S
Tb298 O310 2.374 . S
O299 Tb296 2.453 . S
O299 C315 1.245 . S
O300 Tb296 2.596 . S
O300 Tb298 2.343 . S
O300 C315 1.259 . S
O301 Tb296 2.374 . S
O301 C297 1.251 . S
C302 O306 1.275 . S
C302 O307 1.246 . S
O303 C297 1.263 . S
O303 Tb298 2.353 . S
C304 O308 1.245 . S
C304 O309 1.259 . S
C305 O310 1.250 . S
C305 O311 1.263 . S
O306 Tb298 2.427 . S
O306 C302 1.275 . S
O307 Tb298 2.513 . S
O307 C302 1.246 . S
O308 Tb298 2.453 . S
O308 C304 1.245 . S
O309 Tb296 2.343 . S
O309 Tb298 2.596 . S
O309 C304 1.259 . S
O310 Tb298 2.374 . S
O310 C305 1.250 . S
O311 Tb296 2.353 . S
O311 C305 1.263 . S
C312 O313 1.275 . S
C312 O314 1.246 . S
O313 Tb296 2.427 . S
O313 C312 1.275 . S
O314 Tb296 2.513 . S
O314 C312 1.246 . S
C315 O299 1.245 . S
C315 O300 1.259 . S
Tb316 O319 2.453 . S
Tb316 O320 2.596 . S
Tb316 O321 2.374 . S
Tb316 O329 2.343 . S
Tb316 O331 2.353 . S
Tb316 O333 2.427 . S
Tb316 O334 2.513 . S
C317 O321 1.251 . S
C317 O323 1.263 . S
Tb318 O320 2.343 . S
Tb318 O323 2.353 . S
Tb318 O326 2.427 . S
Tb318 O327 2.513 . S
Tb318 O328 2.453 . S
Tb318 O329 2.596 . S
Tb318 O330 2.374 . S
O319 Tb316 2.453 . S
O319 C335 1.245 . S
O320 Tb316 2.596 . S
O320 Tb318 2.343 . S
O320 C335 1.259 . S
O321 Tb316 2.374 . S
O321 C317 1.251 . S
C322 O326 1.275 . S
C322 O327 1.246 . S
O323 C317 1.263 . S
O323 Tb318 2.353 . S
C324 O328 1.245 . S
C324 O329 1.259 . S
C325 O330 1.250 . S
C325 O331 1.263 . S
O326 Tb318 2.427 . S
O326 C322 1.275 . S
O327 Tb318 2.513 . S
O327 C322 1.246 . S
O328 Tb318 2.453 . S
O328 C324 1.245 . S
O329 Tb316 2.343 . S
O329 Tb318 2.596 . S
O329 C324 1.259 . S
O330 Tb318 2.374 . S
O330 C325 1.250 . S
O331 Tb316 2.353 . S
O331 C325 1.263 . S
C332 O333 1.275 . S
C332 O334 1.246 . S
O333 Tb316 2.427 . S
O333 C332 1.275 . S
O334 Tb316 2.513 . S
O334 C332 1.246 . S
C335 O319 1.245 . S
C335 O320 1.259 . S
Tb336 O339 2.453 . S
Tb336 O340 2.596 . S
Tb336 O341 2.374 . S
Tb336 O349 2.343 . S
Tb336 O351 2.353 . S
Tb336 O353 2.427 . S
Tb336 O354 2.513 . S
C337 O341 1.251 . S
C337 O343 1.263 . S
Tb338 O340 2.343 . S
Tb338 O343 2.353 . S
Tb338 O346 2.427 . S
Tb338 O347 2.513 . S
Tb338 O348 2.453 . S
Tb338 O349 2.596 . S
Tb338 O350 2.374 . S
O339 Tb336 2.453 . S
O339 C355 1.245 . S
O340 Tb336 2.596 . S
O340 Tb338 2.343 . S
O340 C355 1.259 . S
O341 Tb336 2.374 . S
O341 C337 1.251 . S
C342 O346 1.275 . S
C342 O347 1.246 . S
O343 C337 1.263 . S
O343 Tb338 2.353 . S
C344 O348 1.245 . S
C344 O349 1.259 . S
C345 O350 1.250 . S
C345 O351 1.263 . S
O346 Tb338 2.427 . S
O346 C342 1.275 . S
O347 Tb338 2.513 . S
O347 C342 1.246 . S
O348 Tb338 2.453 . S
O348 C344 1.245 . S
O349 Tb336 2.343 . S
O349 Tb338 2.596 . S
O349 C344 1.259 . S
O350 Tb338 2.374 . S
O350 C345 1.250 . S
O351 Tb336 2.353 . S
O351 C345 1.263 . S
C352 O353 1.275 . S
C352 O354 1.246 . S
O353 Tb336 2.427 . S
O353 C352 1.275 . S
O354 Tb336 2.513 . S
O354 C352 1.246 . S
C355 O339 1.245 . S
C355 O340 1.259 . S
Tb356 O359 2.453 . S
Tb356 O360 2.596 . S
Tb356 O361 2.374 . S
Tb356 O369 2.343 . S
Tb356 O371 2.353 . S
Tb356 O373 2.427 . S
Tb356 O374 2.513 . S
C357 O361 1.251 . S
C357 O363 1.263 . S
Tb358 O360 2.343 . S
Tb358 O363 2.353 . S
Tb358 O366 2.427 . S
Tb358 O367 2.513 . S
Tb358 O368 2.453 . S
Tb358 O369 2.596 . S
Tb358 O370 2.374 . S
O359 Tb356 2.453 . S
O359 C375 1.245 . S
O360 Tb356 2.596 . S
O360 Tb358 2.343 . S
O360 C375 1.259 . S
O361 Tb356 2.374 . S
O361 C357 1.251 . S
C362 O366 1.275 . S
C362 O367 1.246 . S
O363 C357 1.263 . S
O363 Tb358 2.353 . S
C364 O368 1.245 . S
C364 O369 1.259 . S
C365 O370 1.250 . S
C365 O371 1.263 . S
O366 Tb358 2.427 . S
O366 C362 1.275 . S
O367 Tb358 2.513 . S
O367 C362 1.246 . S
O368 Tb358 2.453 . S
O368 C364 1.245 . S
O369 Tb356 2.343 . S
O369 Tb358 2.596 . S
O369 C364 1.259 . S
O370 Tb358 2.374 . S
O370 C365 1.250 . S
O371 Tb356 2.353 . S
O371 C365 1.263 . S
C372 O373 1.275 . S
C372 O374 1.246 . S
O373 Tb356 2.427 . S
O373 C372 1.275 . S
O374 Tb356 2.513 . S
O374 C372 1.246 . S
C375 O359 1.245 . S
C375 O360 1.259 . S
Tb376 O379 2.453 . S
Tb376 O380 2.596 . S
Tb376 O381 2.374 . S
Tb376 O389 2.343 . S
Tb376 O391 2.353 . S
Tb376 O393 2.427 . S
Tb376 O394 2.513 . S
C377 O381 1.251 . S
C377 O383 1.263 . S
Tb378 O380 2.343 . S
Tb378 O383 2.353 . S
Tb378 O386 2.427 . S
Tb378 O387 2.513 . S
Tb378 O388 2.453 . S
Tb378 O389 2.596 . S
Tb378 O390 2.374 . S
O379 Tb376 2.453 . S
O379 C395 1.245 . S
O380 Tb376 2.596 . S
O380 Tb378 2.343 . S
O380 C395 1.259 . S
O381 Tb376 2.374 . S
O381 C377 1.251 . S
C382 O386 1.275 . S
C382 O387 1.246 . S
O383 C377 1.263 . S
O383 Tb378 2.353 . S
C384 O388 1.245 . S
C384 O389 1.259 . S
C385 O390 1.250 . S
C385 O391 1.263 . S
O386 Tb378 2.427 . S
O386 C382 1.275 . S
O387 Tb378 2.513 . S
O387 C382 1.246 . S
O388 Tb378 2.453 . S
O388 C384 1.245 . S
O389 Tb376 2.343 . S
O389 Tb378 2.596 . S
O389 C384 1.259 . S
O390 Tb378 2.374 . S
O390 C385 1.250 . S
O391 Tb376 2.353 . S
O391 C385 1.263 . S
C392 O393 1.275 . S
C392 O394 1.246 . S
O393 Tb376 2.427 . S
O393 C392 1.275 . S
O394 Tb376 2.513 . S
O394 C392 1.246 . S
C395 O379 1.245 . S
C395 O380 1.259 . S
C396 C397 1.369 . S
C396 C398 1.419 . S
C396 H400 0.930 . S
C397 C396 1.369 . S
C397 C406 1.429 . S
C398 C396 1.419 . S
C398 C399 1.363 . S
C398 H401 0.929 . S
C399 C398 1.363 . S
C399 C405 1.428 . S
H400 C396 0.930 . S
H401 C398 0.929 . S
S402 N403 1.613 . S
S402 N404 1.610 . S
N403 S402 1.613 . S
N403 C406 1.350 . S
N404 S402 1.610 . S
N404 C405 1.351 . S
C405 C399 1.428 . S
C405 N404 1.351 . S
C405 C406 1.434 . S
C406 C397 1.429 . S
C406 N403 1.350 . S
C406 C405 1.434 . S
C407 C408 1.369 . S
C407 C409 1.419 . S
C407 H411 0.930 . S
C408 C407 1.369 . S
C408 C417 1.429 . S
C409 C407 1.419 . S
C409 C410 1.363 . S
C409 H412 0.929 . S
C410 C409 1.363 . S
C410 C416 1.428 . S
H411 C407 0.930 . S
H412 C409 0.929 . S
S413 N414 1.613 1_556 S
S413 N415 1.610 1_556 S
N414 S413 1.613 1_554 S
N414 C417 1.350 . S
N415 S413 1.610 1_554 S
N415 C416 1.351 . S
C416 C410 1.428 . S
C416 N415 1.351 . S
C416 C417 1.434 . S
C417 C408 1.429 . S
C417 N414 1.350 . S
C417 C416 1.434 . S
C418 C419 1.369 . S
C418 C420 1.419 . S
C418 H422 0.930 . S
C419 C418 1.369 . S
C419 C428 1.429 . S
C420 C418 1.419 . S
C420 C421 1.363 . S
C420 H423 0.929 . S
C421 C420 1.363 . S
C421 C427 1.428 . S
H422 C418 0.930 . S
H423 C420 0.929 . S
S424 N425 1.613 . S
S424 N426 1.610 . S
N425 S424 1.613 . S
N425 C428 1.350 . S
N426 S424 1.610 . S
N426 C427 1.351 . S
C427 C421 1.428 . S
C427 N426 1.351 . S
C427 C428 1.434 . S
C428 C419 1.429 . S
C428 N425 1.350 . S
C428 C427 1.434 . S
C429 C430 1.369 . S
C429 C431 1.419 . S
C429 H433 0.930 . S
C430 C429 1.369 . S
C430 C439 1.429 . S
C431 C429 1.419 . S
C431 C432 1.363 . S
C431 H434 0.929 . S
C432 C431 1.363 . S
C432 C438 1.428 1_556 S
H433 C429 0.930 . S
H434 C431 0.929 . S
S435 N436 1.613 . S
S435 N437 1.610 . S
N436 S435 1.613 . S
N436 C439 1.350 1_554 S
N437 S435 1.610 . S
N437 C438 1.351 . S
C438 C432 1.428 1_554 S
C438 N437 1.351 . S
C438 C439 1.434 1_554 S
C439 C430 1.429 . S
C439 N436 1.350 1_556 S
C439 C438 1.434 1_556 S
C440 C441 1.369 . S
C440 C442 1.419 . S
C440 H444 0.930 . S
C441 C440 1.369 . S
C441 C450 1.429 . S
C442 C440 1.419 . S
C442 C443 1.363 . S
C442 H445 0.929 . S
C443 C442 1.363 . S
C443 C449 1.428 . S
H444 C440 0.930 . S
H445 C442 0.929 . S
S446 N447 1.613 . S
S446 N448 1.610 . S
N447 S446 1.613 . S
N447 C450 1.350 . S
N448 S446 1.610 . S
N448 C449 1.351 . S
C449 C443 1.428 . S
C449 N448 1.351 . S
C449 C450 1.434 . S
C450 C441 1.429 . S
C450 N447 1.350 . S
C450 C449 1.434 . S
C451 C452 1.369 1_554 S
C451 C453 1.419 . S
C451 H455 0.930 . S
C452 C451 1.369 1_556 S
C452 C461 1.429 . S
C453 C451 1.419 . S
C453 C454 1.363 1_554 S
C453 H456 0.929 . S
C454 C453 1.363 1_556 S
C454 C460 1.428 . S
H455 C451 0.930 . S
H456 C453 0.929 . S
S457 N458 1.613 . S
S457 N459 1.610 . S
N458 S457 1.613 . S
N458 C461 1.350 . S
N459 S457 1.610 . S
N459 C460 1.351 . S
C460 C454 1.428 . S
C460 N459 1.351 . S
C460 C461 1.434 . S
C461 C452 1.429 . S
C461 N458 1.350 . S
C461 C460 1.434 . S
C462 C463 1.369 . S
C462 C464 1.419 1_556 S
C462 H466 0.930 1_556 S
C463 C462 1.369 . S
C463 C472 1.429 . S
C464 C462 1.419 1_554 S
C464 C465 1.363 1_554 S
C464 H467 0.929 . S
C465 C464 1.363 1_556 S
C465 C471 1.428 . S
H466 C462 0.930 1_554 S
H467 C464 0.929 . S
S468 N469 1.613 . S
S468 N470 1.610 . S
N469 S468 1.613 . S
N469 C472 1.350 . S
N470 S468 1.610 . S
N470 C471 1.351 . S
C471 C465 1.428 . S
C471 N470 1.351 . S
C471 C472 1.434 . S
C472 C463 1.429 . S
C472 N469 1.350 . S
C472 C471 1.434 . S
C473 C474 1.369 . S
C473 C475 1.419 . S
C473 H477 0.930 . S
C474 C473 1.369 . S
C474 C483 1.429 . S
C475 C473 1.419 . S
C475 C476 1.363 . S
C475 H478 0.929 . S
C476 C475 1.363 . S
C476 C482 1.428 . S
H477 C473 0.930 . S
H478 C475 0.929 . S
S479 N480 1.630 . S
S479 N481 1.610 . S
N480 S479 1.630 . S
N480 C483 1.331 1_554 S
N481 S479 1.610 . S
N481 C482 1.351 1_554 S
C482 C476 1.428 . S
C482 N481 1.351 1_556 S
C482 C483 1.434 . S
C483 C474 1.429 . S
C483 N480 1.331 1_556 S
C483 C482 1.434 . S
C484 C485 1.369 1_554 S
C484 C486 1.419 . S
C484 H488 0.930 . S
C485 C484 1.369 1_556 S
C485 C494 1.429 . S
C486 C484 1.419 . S
C486 C487 1.363 1_554 S
C486 H489 0.929 . S
C487 C486 1.363 1_556 S
C487 C493 1.428 . S
H488 C484 0.930 . S
H489 C486 0.929 . S
S490 N491 1.613 . S
S490 N492 1.610 . S
N491 S490 1.613 . S
N491 C494 1.350 . S
N492 S490 1.610 . S
N492 C493 1.351 . S
C493 C487 1.428 . S
C493 N492 1.351 . S
C493 C494 1.434 . S
C494 C485 1.429 . S
C494 N491 1.350 . S
C494 C493 1.434 . S
C495 C496 1.369 . S
C495 C497 1.419 . S
C495 H499 0.930 1_554 S
C496 C495 1.369 . S
C496 C505 1.429 . S
C497 C495 1.419 . S
C497 C498 1.363 . S
C497 H500 0.929 1_554 S
C498 C497 1.363 . S
C498 C504 1.428 . S
H499 C495 0.930 1_556 S
H500 C497 0.929 1_556 S
S501 N502 1.613 . S
S501 N503 1.610 . S
N502 S501 1.613 . S
N502 C505 1.350 . S
N503 S501 1.610 . S
N503 C504 1.351 . S
C504 C498 1.428 . S
C504 N503 1.351 . S
C504 C505 1.434 . S
C505 C496 1.429 . S
C505 N502 1.350 . S
C505 C504 1.434 . S
C506 C507 1.369 . S
C506 C508 1.419 . S
C506 H510 0.930 . S
C507 C506 1.369 . S
C507 C516 1.429 . S
C508 C506 1.419 . S
C508 C509 1.363 . S
C508 H511 0.929 . S
C509 C508 1.363 . S
C509 C515 1.428 . S
H510 C506 0.930 . S
H511 C508 0.929 . S
S512 N513 1.613 . S
S512 N514 1.610 . S
N513 S512 1.613 . S
N513 C516 1.350 . S
N514 S512 1.610 . S
N514 C515 1.351 . S
C515 C509 1.428 . S
C515 N514 1.351 . S
C515 C516 1.434 . S
C516 C507 1.429 . S
C516 N513 1.350 . S
C516 C515 1.434 . S
C517 C518 1.369 . S
C517 C519 1.419 . S
C517 H521 0.930 1_554 S
C518 C517 1.369 . S
C518 C527 1.429 . S
C519 C517 1.419 . S
C519 C520 1.363 . S
C519 H522 0.929 1_554 S
C520 C519 1.363 . S
C520 C526 1.428 . S
H521 C517 0.930 1_556 S
H522 C519 0.929 1_556 S
S523 N524 1.613 . S
S523 N525 1.610 . S
N524 S523 1.613 . S
N524 C527 1.350 . S
N525 S523 1.610 . S
N525 C526 1.351 . S
C526 C520 1.428 . S
C526 N525 1.351 . S
C526 C527 1.434 . S
C527 C518 1.429 . S
C527 N524 1.350 . S
C527 C526 1.434 . S
C528 C529 1.369 . S
C528 C530 1.419 . S
C528 H532 0.930 . S
C529 C528 1.369 . S
C529 C538 1.429 . S
C530 C528 1.419 . S
C530 C531 1.363 1_655 S
C530 H533 0.929 . S
C531 C530 1.363 1_455 S
C531 C537 1.428 . S
H532 C528 0.930 . S
H533 C530 0.929 . S
S534 N535 1.613 1_455 S
S534 N536 1.610 . S
N535 S534 1.613 1_655 S
N535 C538 1.350 . S
N536 S534 1.610 . S
N536 C537 1.351 . S
C537 C531 1.428 . S
C537 N536 1.351 . S
C537 C538 1.434 1_455 S
C538 C529 1.429 . S
C538 N535 1.350 . S
C538 C537 1.434 1_655 S
C539 C540 1.369 . S
C539 C541 1.419 . S
C539 H543 0.930 . S
C540 C539 1.369 . S
C540 C549 1.429 . S
C541 C539 1.419 . S
C541 C542 1.363 . S
C541 H544 0.929 . S
C542 C541 1.363 . S
C542 C548 1.428 . S
H543 C539 0.930 . S
H544 C541 0.929 . S
S545 N546 1.613 . S
S545 N547 1.610 . S
N546 S545 1.613 . S
N546 C549 1.350 . S
N547 S545 1.610 . S
N547 C548 1.351 . S
C548 C542 1.428 . S
C548 N547 1.351 . S
C548 C549 1.434 . S
C549 C540 1.429 . S
C549 N546 1.350 . S
C549 C548 1.434 . S
C550 C551 1.369 . S
C550 C552 1.419 1_545 S
C550 H554 0.930 . S
C551 C550 1.369 . S
C551 C560 1.429 . S
C552 C550 1.419 1_565 S
C552 C553 1.363 . S
C552 H555 0.929 . S
C553 C552 1.363 . S
C553 C559 1.428 . S
H554 C550 0.930 . S
H555 C552 0.929 . S
S556 N557 1.613 1_565 S
S556 N558 1.610 . S
N557 S556 1.613 1_545 S
N557 C560 1.350 . S
N558 S556 1.610 . S
N558 C559 1.351 . S
C559 C553 1.428 . S
C559 N558 1.351 . S
C559 C560 1.434 1_565 S
C560 C551 1.429 . S
C560 N557 1.350 . S
C560 C559 1.434 1_545 S
C561 C562 1.369 . S
C561 C563 1.419 . S
C561 H565 0.930 . S
C562 C561 1.369 . S
C562 C571 1.429 . S
C563 C561 1.419 . S
C563 C564 1.363 . S
C563 H566 0.929 . S
C564 C563 1.363 . S
C564 C570 1.428 . S
H565 C561 0.930 . S
H566 C563 0.929 . S
S567 N568 1.613 . S
S567 N569 1.610 . S
N568 S567 1.613 . S
N568 C571 1.350 . S
N569 S567 1.610 . S
N569 C570 1.351 . S
C570 C564 1.428 . S
C570 N569 1.351 . S
C570 C571 1.434 . S
C571 C562 1.429 . S
C571 N568 1.350 . S
C571 C570 1.434 . S
C572 C573 1.369 . S
C572 C574 1.419 . S
C572 H576 0.930 . S
C573 C572 1.369 . S
C573 C582 1.429 . S
C574 C572 1.419 . S
C574 C575 1.363 . S
C574 H577 0.929 . S
C575 C574 1.363 . S
C575 C581 1.428 . S
H576 C572 0.930 . S
H577 C574 0.929 . S
S578 N579 1.613 . S
S578 N580 1.610 . S
N579 S578 1.613 . S
N579 C582 1.350 . S
N580 S578 1.610 . S
N580 C581 1.351 . S
C581 C575 1.428 . S
C581 N580 1.351 . S
C581 C582 1.434 . S
C582 C573 1.429 . S
C582 N579 1.350 . S
C582 C581 1.434 . S
C583 C584 1.369 . S
C583 C585 1.419 . S
C583 H587 0.930 . S
C584 C583 1.369 . S
C584 C593 1.429 . S
C585 C583 1.419 . S
C585 C586 1.363 . S
C585 H588 0.929 . S
C586 C585 1.363 . S
C586 C592 1.428 . S
H587 C583 0.930 . S
H588 C585 0.929 . S
S589 N590 1.613 . S
S589 N591 1.610 . S
N590 S589 1.613 . S
N590 C593 1.350 . S
N591 S589 1.610 . S
N591 C592 1.351 . S
C592 C586 1.428 . S
C592 N591 1.351 . S
C592 C593 1.434 . S
C593 C584 1.429 . S
C593 N590 1.350 . S
C593 C592 1.434 . S
C594 C595 1.369 . S
C594 C596 1.419 . S
C594 H598 0.930 . S
C595 C594 1.369 . S
C595 C604 1.429 . S
C596 C594 1.419 . S
C596 C597 1.363 . S
C596 H599 0.929 . S
C597 C596 1.363 . S
C597 C603 1.428 . S
H598 C594 0.930 . S
H599 C596 0.929 . S
S600 N601 1.613 . S
S600 N602 1.610 . S
N601 S600 1.613 . S
N601 C604 1.350 . S
N602 S600 1.610 . S
N602 C603 1.351 . S
C603 C597 1.428 . S
C603 N602 1.351 . S
C603 C604 1.434 . S
C604 C595 1.429 . S
C604 N601 1.350 . S
C604 C603 1.434 . S
C605 C606 1.369 . S
C605 C607 1.419 . S
C605 H609 0.930 . S
C606 C605 1.369 . S
C606 C615 1.429 . S
C607 C605 1.419 . S
C607 C608 1.363 . S
C607 H610 0.929 . S
C608 C607 1.363 . S
C608 C614 1.428 . S
H609 C605 0.930 . S
H610 C607 0.929 . S
S611 N612 1.613 . S
S611 N613 1.610 . S
N612 S611 1.613 . S
N612 C615 1.350 . S
N613 S611 1.610 . S
N613 C614 1.351 . S
C614 C608 1.428 . S
C614 N613 1.351 . S
C614 C615 1.434 . S
C615 C606 1.429 . S
C615 N612 1.350 . S
C615 C614 1.434 . S
C616 C617 1.369 . S
C616 C618 1.419 . S
C616 H620 0.930 . S
C617 C616 1.369 . S
C617 C626 1.429 . S
C618 C616 1.419 . S
C618 C619 1.363 . S
C618 H621 0.929 . S
C619 C618 1.363 . S
C619 C625 1.428 . S
H620 C616 0.930 . S
H621 C618 0.929 . S
S622 N623 1.613 . S
S622 N624 1.610 . S
N623 S622 1.613 . S
N623 C626 1.350 . S
N624 S622 1.610 . S
N624 C625 1.351 . S
C625 C619 1.428 . S
C625 N624 1.351 . S
C625 C626 1.434 . S
C626 C617 1.429 . S
C626 N623 1.350 . S
C626 C625 1.434 . S
C627 C628 1.369 . S
C627 C629 1.419 . S
C627 H631 0.930 . S
C628 C627 1.369 . S
C628 C637 1.429 . S
C629 C627 1.419 . S
C629 C630 1.363 . S
C629 H632 0.929 . S
C630 C629 1.363 . S
C630 C636 1.428 . S
H631 C627 0.930 . S
H632 C629 0.929 . S
S633 N634 1.613 . S
S633 N635 1.610 . S
N634 S633 1.613 . S
N634 C637 1.350 . S
N635 S633 1.610 . S
N635 C636 1.351 . S
C636 C630 1.428 . S
C636 N635 1.351 . S
C636 C637 1.434 . S
C637 C628 1.429 . S
C637 N634 1.350 . S
C637 C636 1.434 . S
C638 C639 1.369 1_455 S
C638 C640 1.419 . S
C638 H642 0.930 1_455 S
C639 C638 1.369 1_655 S
C639 C648 1.429 1_655 S
C640 C638 1.419 . S
C640 C641 1.363 . S
C640 H643 0.929 . S
C641 C640 1.363 . S
C641 C647 1.428 . S
H642 C638 0.930 1_655 S
H643 C640 0.929 . S
S644 N645 1.613 . S
S644 N646 1.610 . S
N645 S644 1.613 . S
N645 C648 1.350 . S
N646 S644 1.610 . S
N646 C647 1.351 . S
C647 C641 1.428 . S
C647 N646 1.351 . S
C647 C648 1.434 . S
C648 C639 1.429 1_455 S
C648 N645 1.350 . S
C648 C647 1.434 . S
C649 C650 1.369 . S
C649 C651 1.419 . S
C649 H653 0.930 . S
C650 C649 1.369 . S
C650 C659 1.429 . S
C651 C649 1.419 . S
C651 C652 1.363 . S
C651 H654 0.929 . S
C652 C651 1.363 . S
C652 C658 1.428 . S
H653 C649 0.930 . S
H654 C651 0.929 . S
S655 N656 1.613 . S
S655 N657 1.610 . S
N656 S655 1.613 . S
N656 C659 1.350 . S
N657 S655 1.610 . S
N657 C658 1.351 . S
C658 C652 1.428 . S
C658 N657 1.351 . S
C658 C659 1.434 . S
C659 C650 1.429 . S
C659 N656 1.350 . S
C659 C658 1.434 . S
C660 C661 1.369 . S
C660 C662 1.419 . S
C660 H664 0.930 . S
C661 C660 1.369 . S
C661 C670 1.429 . S
C662 C660 1.419 . S
C662 C663 1.363 . S
C662 H665 0.929 . S
C663 C662 1.363 . S
C663 C669 1.428 . S
H664 C660 0.930 . S
H665 C662 0.929 . S
S666 N667 1.613 . S
S666 N668 1.610 . S
N667 S666 1.613 . S
N667 C670 1.350 . S
N668 S666 1.610 . S
N668 C669 1.351 . S
C669 C663 1.428 . S
C669 N668 1.351 . S
C669 C670 1.434 . S
C670 C661 1.429 . S
C670 N667 1.350 . S
C670 C669 1.434 . S
C671 C672 1.369 . S
C671 C673 1.419 . S
C671 H675 0.930 . S
C672 C671 1.369 . S
C672 C681 1.429 . S
C673 C671 1.419 . S
C673 C674 1.363 . S
C673 H676 0.929 . S
C674 C673 1.363 . S
C674 C680 1.428 . S
H675 C671 0.930 . S
H676 C673 0.929 . S
S677 N678 1.613 . S
S677 N679 1.610 . S
N678 S677 1.613 . S
N678 C681 1.350 . S
N679 S677 1.610 . S
N679 C680 1.351 . S
C680 C674 1.428 . S
C680 N679 1.351 . S
C680 C681 1.434 . S
C681 C672 1.429 . S
C681 N678 1.350 . S
C681 C680 1.434 . S
C682 C683 1.369 . S
C682 C684 1.419 . S
C682 H686 0.930 . S
C683 C682 1.369 . S
C683 C692 1.429 . S
C684 C682 1.419 . S
C684 C685 1.363 . S
C684 H687 0.929 . S
C685 C684 1.363 . S
C685 C691 1.428 . S
H686 C682 0.930 . S
H687 C684 0.929 . S
S688 N689 1.613 . S
S688 N690 1.610 . S
N689 S688 1.613 . S
N689 C692 1.350 . S
N690 S688 1.610 . S
N690 C691 1.351 . S
C691 C685 1.428 . S
C691 N690 1.351 . S
C691 C692 1.434 . S
C692 C683 1.429 . S
C692 N689 1.350 . S
C692 C691 1.434 . S
C693 C694 1.369 . S
C693 C695 1.419 1_565 S
C693 H697 0.930 . S
C694 C693 1.369 . S
C694 C703 1.429 . S
C695 C693 1.419 1_545 S
C695 C696 1.363 . S
C695 H698 0.929 . S
C696 C695 1.363 . S
C696 C702 1.428 . S
H697 C693 0.930 . S
H698 C695 0.929 . S
S699 N700 1.613 . S
S699 N701 1.610 1_565 S
N700 S699 1.613 . S
N700 C703 1.350 . S
N701 S699 1.610 1_545 S
N701 C702 1.351 . S
C702 C696 1.428 . S
C702 N701 1.351 . S
C702 C703 1.434 1_545 S
C703 C694 1.429 . S
C703 N700 1.350 . S
C703 C702 1.434 1_565 S
C704 C705 1.369 . S
C704 C706 1.419 . S
C704 H708 0.930 . S
C705 C704 1.369 . S
C705 C714 1.429 . S
C706 C704 1.419 . S
C706 C707 1.363 1_455 S
C706 H709 0.929 . S
C707 C706 1.363 1_655 S
C707 C713 1.428 . S
H708 C704 0.930 . S
H709 C706 0.929 . S
S710 N711 1.613 1_655 S
S710 N712 1.610 . S
N711 S710 1.613 1_455 S
N711 C714 1.350 . S
N712 S710 1.610 . S
N712 C713 1.351 . S
C713 C707 1.428 . S
C713 N712 1.351 . S
C713 C714 1.434 1_655 S
C714 C705 1.429 . S
C714 N711 1.350 . S
C714 C713 1.434 1_455 S
C715 C716 1.369 . S
C715 C717 1.419 . S
C715 H719 0.930 . S
C716 C715 1.369 . S
C716 C725 1.429 . S
C717 C715 1.419 . S
C717 C718 1.363 . S
C717 H720 0.929 . S
C718 C717 1.363 . S
C718 C724 1.428 . S
H719 C715 0.930 . S
H720 C717 0.929 . S
S721 N722 1.613 . S
S721 N723 1.610 . S
N722 S721 1.613 . S
N722 C725 1.350 . S
N723 S721 1.610 . S
N723 C724 1.351 . S
C724 C718 1.428 . S
C724 N723 1.351 . S
C724 C725 1.434 . S
C725 C716 1.429 . S
C725 N722 1.350 . S
C725 C724 1.434 . S
C726 C727 1.369 1_655 S
C726 C728 1.419 . S
C726 H730 0.930 1_655 S
C727 C726 1.369 1_455 S
C727 C736 1.429 . S
C728 C726 1.419 . S
C728 C729 1.363 . S
C728 H731 0.929 . S
C729 C728 1.363 . S
C729 C735 1.428 . S
H730 C726 0.930 1_455 S
H731 C728 0.929 . S
S732 N733 1.613 . S
S732 N734 1.610 1_455 S
N733 S732 1.613 . S
N733 C736 1.350 . S
N734 S732 1.610 1_655 S
N734 C735 1.351 . S
C735 C729 1.428 . S
C735 N734 1.351 . S
C735 C736 1.434 1_655 S
C736 C727 1.429 . S
C736 N733 1.350 . S
C736 C735 1.434 1_455 S
C737 C738 1.369 . S
C737 C739 1.419 . S
C737 H741 0.930 . S
C738 C737 1.369 . S
C738 C747 1.429 . S
C739 C737 1.419 . S
C739 C740 1.363 . S
C739 H742 0.929 . S
C740 C739 1.363 . S
C740 C746 1.428 . S
H741 C737 0.930 . S
H742 C739 0.929 . S
S743 N744 1.613 . S
S743 N745 1.610 . S
N744 S743 1.613 . S
N744 C747 1.350 . S
N745 S743 1.610 . S
N745 C746 1.351 . S
C746 C740 1.428 . S
C746 N745 1.351 . S
C746 C747 1.434 . S
C747 C738 1.429 . S
C747 N744 1.350 . S
C747 C746 1.434 . S
C748 C749 1.369 1_545 S
C748 C750 1.419 . S
C748 H752 0.930 . S
C749 C748 1.369 1_565 S
C749 C758 1.429 1_565 S
C750 C748 1.419 . S
C750 C751 1.363 . S
C750 H753 0.929 . S
C751 C750 1.363 . S
C751 C757 1.428 . S
H752 C748 0.930 . S
H753 C750 0.929 . S
S754 N755 1.613 1_545 S
S754 N756 1.610 . S
N755 S754 1.613 1_565 S
N755 C758 1.350 1_565 S
N756 S754 1.610 . S
N756 C757 1.351 . S
C757 C751 1.428 . S
C757 N756 1.351 . S
C757 C758 1.434 . S
C758 C749 1.429 1_545 S
C758 N755 1.350 1_545 S
C758 C757 1.434 . S
C759 C760 1.369 . S
C759 C761 1.419 . S
C759 H763 0.930 . S
C760 C759 1.369 . S
C760 C769 1.429 . S
C761 C759 1.419 . S
C761 C762 1.363 . S
C761 H764 0.929 . S
C762 C761 1.363 . S
C762 C768 1.428 . S
H763 C759 0.930 . S
H764 C761 0.929 . S
S765 N766 1.613 . S
S765 N767 1.610 . S
N766 S765 1.613 . S
N766 C769 1.350 . S
N767 S765 1.610 . S
N767 C768 1.351 . S
C768 C762 1.428 . S
C768 N767 1.351 . S
C768 C769 1.434 . S
C769 C760 1.429 . S
C769 N766 1.350 . S
C769 C768 1.434 . S
C770 C771 1.369 . S
C770 C772 1.419 . S
C770 H774 0.930 . S
C771 C770 1.369 . S
C771 C780 1.429 . S
C772 C770 1.419 . S
C772 C773 1.363 . S
C772 H775 0.929 . S
C773 C772 1.363 . S
C773 C779 1.428 . S
H774 C770 0.930 . S
H775 C772 0.929 . S
S776 N777 1.613 . S
S776 N778 1.610 . S
N777 S776 1.613 . S
N777 C780 1.350 . S
N778 S776 1.610 . S
N778 C779 1.351 . S
C779 C773 1.428 . S
C779 N778 1.351 . S
C779 C780 1.434 . S
C780 C771 1.429 . S
C780 N777 1.350 . S
C780 C779 1.434 . S
C781 C782 1.369 . S
C781 C783 1.419 . S
C781 H785 0.930 . S
C782 C781 1.369 . S
C782 C791 1.429 . S
C783 C781 1.419 . S
C783 C784 1.363 . S
C783 H786 0.929 . S
C784 C783 1.363 . S
C784 C790 1.428 . S
H785 C781 0.930 . S
H786 C783 0.929 . S
S787 N788 1.613 . S
S787 N789 1.610 . S
N788 S787 1.613 . S
N788 C791 1.350 . S
N789 S787 1.610 . S
N789 C790 1.351 . S
C790 C784 1.428 . S
C790 N789 1.351 . S
C790 C791 1.434 . S
C791 C782 1.429 . S
C791 N788 1.350 . S
C791 C790 1.434 . S
C792 C793 1.369 . S
C792 C794 1.419 . S
C792 H796 0.930 . S
C793 C792 1.369 . S
C793 C802 1.429 . S
C794 C792 1.419 . S
C794 C795 1.363 . S
C794 H797 0.929 . S
C795 C794 1.363 . S
C795 C801 1.428 . S
H796 C792 0.930 . S
H797 C794 0.929 . S
S798 N799 1.613 1_545 S
S798 N800 1.610 . S
N799 S798 1.613 1_565 S
N799 C802 1.350 . S
N800 S798 1.610 . S
N800 C801 1.351 1_545 S
C801 C795 1.428 . S
C801 N800 1.351 1_565 S
C801 C802 1.434 . S
C802 C793 1.429 . S
C802 N799 1.350 . S
C802 C801 1.434 . S
C803 C804 1.369 . S
C803 C805 1.419 . S
C803 H807 0.930 . S
C804 C803 1.369 . S
C804 C813 1.429 . S
C805 C803 1.419 . S
C805 C806 1.363 . S
C805 H808 0.929 . S
C806 C805 1.363 . S
C806 C812 1.428 . S
H807 C803 0.930 . S
H808 C805 0.929 . S
S809 N810 1.613 . S
S809 N811 1.610 . S
N810 S809 1.613 . S
N810 C813 1.350 . S
N811 S809 1.610 . S
N811 C812 1.351 . S
C812 C806 1.428 . S
C812 N811 1.351 . S
C812 C813 1.434 . S
C813 C804 1.429 . S
C813 N810 1.350 . S
C813 C812 1.434 . S
C814 C815 1.369 . S
C814 C816 1.419 . S
C814 H818 0.930 . S
C815 C814 1.369 . S
C815 C824 1.429 . S
C816 C814 1.419 . S
C816 C817 1.363 . S
C816 H819 0.929 . S
C817 C816 1.363 . S
C817 C823 1.428 . S
H818 C814 0.930 . S
H819 C816 0.929 . S
S820 N821 1.613 . S
S820 N822 1.610 . S
N821 S820 1.613 . S
N821 C824 1.350 . S
N822 S820 1.610 . S
N822 C823 1.351 . S
C823 C817 1.428 . S
C823 N822 1.351 . S
C823 C824 1.434 . S
C824 C815 1.429 . S
C824 N821 1.350 . S
C824 C823 1.434 . S
C825 C826 1.369 . S
C825 C827 1.419 . S
C825 H829 0.930 . S
C826 C825 1.369 . S
C826 C835 1.429 . S
C827 C825 1.419 . S
C827 C828 1.363 . S
C827 H830 0.929 . S
C828 C827 1.363 . S
C828 C834 1.428 . S
H829 C825 0.930 . S
H830 C827 0.929 . S
S831 N832 1.613 1_455 S
S831 N833 1.610 . S
N832 S831 1.613 1_655 S
N832 C835 1.350 . S
N833 S831 1.610 . S
N833 C834 1.351 1_455 S
C834 C828 1.428 . S
C834 N833 1.351 1_655 S
C834 C835 1.434 . S
C835 C826 1.429 . S
C835 N832 1.350 . S
C835 C834 1.434 . S
C836 C837 1.369 . S
C836 C838 1.419 . S
C836 H840 0.930 . S
C837 C836 1.369 . S
C837 C846 1.429 . S
C838 C836 1.419 . S
C838 C839 1.363 . S
C838 H841 0.929 . S
C839 C838 1.363 . S
C839 C845 1.428 . S
H840 C836 0.930 . S
H841 C838 0.929 . S
S842 N843 1.613 . S
S842 N844 1.610 . S
N843 S842 1.613 . S
N843 C846 1.350 . S
N844 S842 1.610 . S
N844 C845 1.351 . S
C845 C839 1.428 . S
C845 N844 1.351 . S
C845 C846 1.434 . S
C846 C837 1.429 . S
C846 N843 1.350 . S
C846 C845 1.434 . S
C847 C848 1.369 . S
C847 C849 1.419 . S
C847 H851 0.930 . S
C848 C847 1.369 . S
C848 C857 1.429 . S
C849 C847 1.419 . S
C849 C850 1.363 . S
C849 H852 0.929 . S
C850 C849 1.363 . S
C850 C856 1.428 . S
H851 C847 0.930 . S
H852 C849 0.929 . S
S853 N854 1.613 . S
S853 N855 1.610 . S
N854 S853 1.613 . S
N854 C857 1.350 . S
N855 S853 1.610 . S
N855 C856 1.351 . S
C856 C850 1.428 . S
C856 N855 1.351 . S
C856 C857 1.434 . S
C857 C848 1.429 . S
C857 N854 1.350 . S
C857 C856 1.434 . S
C858 C859 1.369 . S
C858 C860 1.419 . S
C858 H862 0.930 . S
C859 C858 1.369 . S
C859 C868 1.429 . S
C860 C858 1.419 . S
C860 C861 1.363 . S
C860 H863 0.929 . S
C861 C860 1.363 . S
C861 C867 1.428 . S
H862 C858 0.930 . S
H863 C860 0.929 . S
S864 N865 1.613 . S
S864 N866 1.610 . S
N865 S864 1.613 . S
N865 C868 1.350 . S
N866 S864 1.610 . S
N866 C867 1.351 . S
C867 C861 1.428 . S
C867 N866 1.351 . S
C867 C868 1.434 . S
C868 C859 1.429 . S
C868 N865 1.350 . S
C868 C867 1.434 . S
C869 C870 1.369 . S
C869 C871 1.419 . S
C869 H873 0.930 . S
C870 C869 1.369 . S
C870 C879 1.429 . S
C871 C869 1.419 . S
C871 C872 1.363 . S
C871 H874 0.929 . S
C872 C871 1.363 . S
C872 C878 1.428 . S
H873 C869 0.930 . S
H874 C871 0.929 . S
S875 N876 1.613 . S
S875 N877 1.610 . S
N876 S875 1.613 . S
N876 C879 1.350 . S
N877 S875 1.610 . S
N877 C878 1.351 . S
C878 C872 1.428 . S
C878 N877 1.351 . S
C878 C879 1.434 . S
C879 C870 1.429 . S
C879 N876 1.350 . S
C879 C878 1.434 . S
C880 C881 1.369 . S
C880 C882 1.419 . S
C880 H884 0.930 . S
C881 C880 1.369 . S
C881 C890 1.429 . S
C882 C880 1.419 . S
C882 C883 1.363 . S
C882 H885 0.929 . S
C883 C882 1.363 . S
C883 C889 1.428 . S
H884 C880 0.930 . S
H885 C882 0.929 . S
S886 N887 1.613 . S
S886 N888 1.610 . S
N887 S886 1.613 . S
N887 C890 1.350 . S
N888 S886 1.610 . S
N888 C889 1.351 . S
C889 C883 1.428 . S
C889 N888 1.351 . S
C889 C890 1.434 . S
C890 C881 1.429 . S
C890 N887 1.350 . S
C890 C889 1.434 . S
C891 C892 1.369 . S
C891 C893 1.419 . S
C891 H895 0.930 . S
C892 C891 1.369 . S
C892 C901 1.429 . S
C893 C891 1.419 . S
C893 C894 1.363 . S
C893 H896 0.929 . S
C894 C893 1.363 . S
C894 C900 1.428 . S
H895 C891 0.930 . S
H896 C893 0.929 . S
S897 N898 1.613 . S
S897 N899 1.610 . S
N898 S897 1.613 . S
N898 C901 1.350 . S
N899 S897 1.610 . S
N899 C900 1.351 . S
C900 C894 1.428 . S
C900 N899 1.351 . S
C900 C901 1.434 . S
C901 C892 1.429 . S
C901 N898 1.350 . S
C901 C900 1.434 . S
C902 C903 1.369 . S
C902 C904 1.419 . S
C902 H906 0.930 . S
C903 C902 1.369 . S
C903 C912 1.429 . S
C904 C902 1.419 . S
C904 C905 1.363 . S
C904 H907 0.929 . S
C905 C904 1.363 . S
C905 C911 1.428 . S
H906 C902 0.930 . S
H907 C904 0.929 . S
S908 N909 1.613 . S
S908 N910 1.610 . S
N909 S908 1.613 . S
N909 C912 1.350 . S
N910 S908 1.610 . S
N910 C911 1.351 . S
C911 C905 1.428 . S
C911 N910 1.351 . S
C911 C912 1.434 . S
C912 C903 1.429 . S
C912 N909 1.350 . S
C912 C911 1.434 . S
C913 C914 1.369 . S
C913 C915 1.419 . S
C913 H917 0.930 . S
C914 C913 1.369 . S
C914 C923 1.429 . S
C915 C913 1.419 . S
C915 C916 1.363 . S
C915 H918 0.929 . S
C916 C915 1.363 . S
C916 C922 1.428 . S
H917 C913 0.930 . S
H918 C915 0.929 . S
S919 N920 1.613 . S
S919 N921 1.610 . S
N920 S919 1.613 . S
N920 C923 1.350 . S
N921 S919 1.610 . S
N921 C922 1.351 . S
C922 C916 1.428 . S
C922 N921 1.351 . S
C922 C923 1.434 . S
C923 C914 1.429 . S
C923 N920 1.350 . S
C923 C922 1.434 . S
C924 C925 1.369 . S
C924 C926 1.419 . S
C924 H928 0.930 . S
C925 C924 1.369 . S
C925 C934 1.429 . S
C926 C924 1.419 . S
C926 C927 1.363 . S
C926 H929 0.929 . S
C927 C926 1.363 . S
C927 C933 1.428 . S
H928 C924 0.930 . S
H929 C926 0.929 . S
S930 N931 1.613 . S
S930 N932 1.610 . S
N931 S930 1.613 . S
N931 C934 1.350 . S
N932 S930 1.610 . S
N932 C933 1.351 . S
C933 C927 1.428 . S
C933 N932 1.351 . S
C933 C934 1.434 . S
C934 C925 1.429 . S
C934 N931 1.350 . S
C934 C933 1.434 . S
C935 C936 1.369 . S
C935 C937 1.419 . S
C935 H939 0.930 . S
C936 C935 1.369 . S
C936 C945 1.429 . S
C937 C935 1.419 . S
C937 C938 1.363 . S
C937 H940 0.929 . S
C938 C937 1.363 . S
C938 C944 1.428 . S
H939 C935 0.930 . S
H940 C937 0.929 . S
S941 N942 1.613 . S
S941 N943 1.610 . S
N942 S941 1.613 . S
N942 C945 1.350 . S
N943 S941 1.610 . S
N943 C944 1.351 . S
C944 C938 1.428 . S
C944 N943 1.351 . S
C944 C945 1.434 . S
C945 C936 1.429 . S
C945 N942 1.350 . S
C945 C944 1.434 . S
C946 C947 1.369 . S
C946 C948 1.419 . S
C946 H950 0.930 . S
C947 C946 1.369 . S
C947 C956 1.429 . S
C948 C946 1.419 . S
C948 C949 1.363 . S
C948 H951 0.929 . S
C949 C948 1.363 . S
C949 C955 1.428 . S
H950 C946 0.930 . S
H951 C948 0.929 . S
S952 N953 1.613 . S
S952 N954 1.610 . S
N953 S952 1.613 . S
N953 C956 1.350 . S
N954 S952 1.610 . S
N954 C955 1.351 . S
C955 C949 1.428 . S
C955 N954 1.351 . S
C955 C956 1.434 . S
C956 C947 1.429 . S
C956 N953 1.350 . S
C956 C955 1.434 . S
C957 C958 1.369 . S
C957 C959 1.419 . S
C957 H961 0.930 . S
C958 C957 1.369 . S
C958 C967 1.429 . S
C959 C957 1.419 . S
C959 C960 1.363 . S
C959 H962 0.929 . S
C960 C959 1.363 . S
C960 C966 1.428 . S
H961 C957 0.930 . S
H962 C959 0.929 . S
S963 N964 1.613 . S
S963 N965 1.610 . S
N964 S963 1.613 . S
N964 C967 1.350 . S
N965 S963 1.610 . S
N965 C966 1.351 . S
C966 C960 1.428 . S
C966 N965 1.351 . S
C966 C967 1.434 . S
C967 C958 1.429 . S
C967 N964 1.350 . S
C967 C966 1.434 . S
C968 C969 1.369 . S
C968 C970 1.419 . S
C968 H972 0.930 . S
C969 C968 1.369 . S
C969 C978 1.429 . S
C970 C968 1.419 . S
C970 C971 1.363 . S
C970 H973 0.929 . S
C971 C970 1.363 . S
C971 C977 1.428 . S
H972 C968 0.930 . S
H973 C970 0.929 . S
S974 N975 1.613 . S
S974 N976 1.610 . S
N975 S974 1.613 . S
N975 C978 1.350 . S
N976 S974 1.610 . S
N976 C977 1.351 . S
C977 C971 1.428 . S
C977 N976 1.351 . S
C977 C978 1.434 . S
C978 C969 1.429 . S
C978 N975 1.350 . S
C978 C977 1.434 . S
C979 C980 1.369 . S
C979 C981 1.419 . S
C979 H983 0.930 . S
C980 C979 1.369 . S
C980 C989 1.429 . S
C981 C979 1.419 . S
C981 C982 1.363 . S
C981 H984 0.929 . S
C982 C981 1.363 . S
C982 C988 1.428 . S
H983 C979 0.930 . S
H984 C981 0.929 . S
S985 N986 1.613 . S
S985 N987 1.610 . S
N986 S985 1.613 . S
N986 C989 1.350 . S
N987 S985 1.610 . S
N987 C988 1.351 . S
C988 C982 1.428 . S
C988 N987 1.351 . S
C988 C989 1.434 . S
C989 C980 1.429 . S
C989 N986 1.350 . S
C989 C988 1.434 . S
C397 C162 1.551 . S
C399 C222 1.532 . S
C408 C174 1.494 . S
C410 C242 1.469 . S
C419 C150 1.508 . S
C421 C265 1.512 . S
C430 C138 1.445 . S
C432 C245 1.445 . S
C443 C262 1.452 . S
C441 C114 1.467 . S
C452 C126 1.504 . S
C454 C225 1.502 1_556 S
C465 C232 1.544 . S
C463 C136 1.560 . S
C476 C252 1.421 . S
C474 C112 1.446 . S
C485 C124 1.517 . S
C487 C257 1.551 1_556 S
C496 C160 1.449 . S
C498 C237 1.477 . S
C507 C172 1.468 . S
C509 C272 1.450 . S
C520 C217 1.559 . S
C518 C148 1.547 . S
C531 C282 1.533 . S
C529 C18 1.551 . S
C540 C30 1.495 . S
C542 C302 1.468 . S
C551 C6 1.506 . S
C553 C325 1.514 . S
C562 C210 1.445 . S
C564 C305 1.445 . S
C573 C186 1.467 . S
C575 C322 1.450 . S
C584 C198 1.504 . S
C586 C285 1.502 . S
C595 C208 1.565 . S
C597 C292 1.539 . S
C606 C184 1.444 . S
C608 C312 1.421 . S
C619 C317 1.547 . S
C617 C196 1.526 . S
C628 C16 1.451 1_565 S
C630 C297 1.478 . S
C641 C332 1.448 . S
C639 C28 1.469 . S
C650 C4 1.552 . S
C652 C277 1.559 . S
C663 C342 1.529 . S
C661 C90 1.552 . S
C672 C102 1.492 . S
C674 C362 1.472 . S
C685 C385 1.514 . S
C683 C78 1.506 . S
C696 C365 1.445 . S
C694 C66 1.445 . S
C707 C382 1.453 . S
C705 C42 1.467 . S
C716 C54 1.505 . S
C718 C345 1.502 . S
C727 C64 1.566 . S
C729 C352 1.539 . S
C738 C40 1.444 . S
C740 C372 1.423 . S
C751 C377 1.551 . S
C749 C52 1.517 . S
C760 C88 1.451 . S
C762 C357 1.475 . S
C771 C100 1.470 . S
C773 C392 1.447 . S
C782 C76 1.553 . S
C784 C337 1.557 . S
C793 C189 1.411 . S
C795 C235 1.351 . S
C806 C255 1.589 . S
C804 C201 1.676 . S
C815 C213 1.519 . S
C817 C264 1.480 . S
C826 C81 1.638 . S
C828 C244 1.585 . S
C837 C93 1.580 . S
C839 C275 1.506 . S
C850 C224 1.355 . S
C848 C105 1.382 . S
C859 C45 1.410 . S
C861 C295 1.352 . S
C870 C57 1.676 . S
C872 C315 1.590 . S
C881 C69 1.519 . S
C883 C324 1.480 . S
C892 C153 1.639 . S
C894 C304 1.586 . S
C905 C335 1.504 . S
C903 C165 1.581 . S
C914 C177 1.382 . S
C916 C284 1.355 . S
C925 C117 1.411 . S
C927 C355 1.354 . S
C936 C129 1.675 . S
C938 C375 1.593 . S
C949 C384 1.480 . S
C947 C141 1.519 . S
C958 C9 1.634 . S
C960 C364 1.588 . S
C969 C21 1.579 . S
C971 C395 1.507 . S
C980 C33 1.382 . S
C982 C344 1.355 . S
