# Generated by pormake.
# Topology rtl, (3,6)-cn, num edge types: 1
# Building blocks:
#     Node 0, Type 0, BuildingBlock: PAMTOO_clean_linker_0, # of connection points: 3
#     Node 1, Type 0, BuildingBlock: PAMTOO_clean_linker_0, # of connection points: 3
#     Node 2, Type 0, BuildingBlock: PAMTOO_clean_linker_0, # of connection points: 3
#     Node 3, Type 0, BuildingBlock: PAMTOO_clean_linker_0, # of connection points: 3
#     Node 4, Type 1, BuildingBlock: KUMJIN_clean_sbu_1, # of connection points: 6
#     Node 5, Type 1, BuildingBlock: KUMJIN_clean_sbu_1, # of connection points: 6
#     Edge 6, Type (0, 1), BuildingBlock: EZIPEK_clean_linker_0, # of connection points: 2
#     Edge 7, Type (0, 1), BuildingBlock: EZIPEK_clean_linker_0, # of connection points: 2
#     Edge 8, Type (0, 1), BuildingBlock: EZIPEK_clean_linker_0, # of connection points: 2
#     Edge 9, Type (0, 1), BuildingBlock: EZIPEK_clean_linker_0, # of connection points: 2
#     Edge 10, Type (0, 1), BuildingBlock: EZIPEK_clean_linker_0, # of connection points: 2
#     Edge 11, Type (0, 1), BuildingBlock: EZIPEK_clean_linker_0, # of connection points: 2
#     Edge 12, Type (0, 1), BuildingBlock: EZIPEK_clean_linker_0, # of connection points: 2
#     Edge 13, Type (0, 1), BuildingBlock: EZIPEK_clean_linker_0, # of connection points: 2
#     Edge 14, Type (0, 1), BuildingBlock: EZIPEK_clean_linker_0, # of connection points: 2
#     Edge 15, Type (0, 1), BuildingBlock: EZIPEK_clean_linker_0, # of connection points: 2
#     Edge 16, Type (0, 1), BuildingBlock: EZIPEK_clean_linker_0, # of connection points: 2
#     Edge 17, Type (0, 1), BuildingBlock: EZIPEK_clean_linker_0, # of connection points: 2
# Relax obj value: 0.053
# Max RMSD: 0.238
# Mean RMSD: 0.175
data_MOF--net-rtl--node1-KUMJIN_clean_sbu_1--node2-PAMTOO_clean_linker_0--edge1-EZIPEK_clean_linker_0
_symmetry_space_group_name_H-M    P1
_symmetry_Int_Tables_number       1
_symmetry_cell_setting            triclinic
loop_
_symmetry_equiv_pos_as_xyz
'x, y, z'
_cell_length_a     26.012879
_cell_length_b     26.459895
_cell_length_c     20.631216
_cell_angle_alpha  75.128454
_cell_angle_beta   99.116436
_cell_angle_gamma 91.947932
loop_
_atom_site_label
_atom_site_type_symbol
_atom_site_fract_x
_atom_site_fract_y
_atom_site_fract_z
_atom_type_partial_charge
H0 H 0.12847 0.89873 0.01077 0.0
H1 H 0.25741 0.79936 0.12273 0.0
H2 H 0.22993 0.83513 0.90485 0.0
H3 H 0.26231 0.72733 0.96404 0.0
C4 C 0.28126 0.73013 0.0152 0.0
O5 O 0.28839 0.78201 0.01571 0.0
H6 H 0.25317 0.71124 0.04931 0.0
C7 C 0.16214 0.8754 0.01153 0.0
C8 C 0.17565 0.8701 0.95025 0.0
C9 C 0.19187 0.85046 0.07381 0.0
C10 C 0.23473 0.81938 0.07479 0.0
C11 C 0.24813 0.81351 0.01404 0.0
C12 C 0.21934 0.83974 0.95176 0.0
H13 H 0.62909 0.61738 0.69765 0.0
H14 H 0.73683 0.71728 0.58782 0.0
H15 H 0.72108 0.72676 0.78909 0.0
H16 H 0.73518 0.83406 0.68202 0.0
C17 C 0.75857 0.81712 0.65212 0.0
O18 O 0.7697 0.76506 0.68375 0.0
H19 H 0.73247 0.82085 0.60283 0.0
C20 C 0.6578 0.64827 0.6948 0.0
C21 C 0.67227 0.66986 0.75022 0.0
C22 C 0.68078 0.66544 0.63623 0.0
C23 C 0.71865 0.70458 0.63288 0.0
C24 C 0.73271 0.7275 0.6874 0.0
C25 C 0.70953 0.70998 0.74633 0.0
H26 H 0.90764 0.13068 0.13146 0.0
H27 H 0.79279 0.24407 0.01114 0.0
H28 H 0.80922 0.20605 0.22873 0.0
H29 H 0.69595 0.21998 0.14364 0.0
C30 C 0.70646 0.25345 0.10319 0.0
O31 O 0.75888 0.26419 0.11542 0.0
H32 H 0.6974 0.2397 0.056 0.0
C33 C 0.87627 0.15762 0.12808 0.0
C34 C 0.86114 0.16476 0.18761 0.0
C35 C 0.85136 0.18589 0.0642 0.0
C36 C 0.81163 0.22165 0.06026 0.0
C37 C 0.7961 0.22855 0.1195 0.0
C38 C 0.82068 0.19991 0.18303 0.0
H39 H 0.41589 0.40477 0.43646 0.0
H40 H 0.32477 0.29767 0.56619 0.0
H41 H 0.32804 0.2843 0.36317 0.0
H42 H 0.2226 0.26532 0.41344 0.0
C43 C 0.23739 0.24849 0.46817 0.0
O44 O 0.29099 0.24385 0.47784 0.0
H45 H 0.22542 0.27736 0.49379 0.0
C46 C 0.38999 0.37147 0.44465 0.0
C47 C 0.37423 0.34679 0.39247 0.0
C48 C 0.37211 0.35418 0.50696 0.0
C49 C 0.33854 0.31128 0.51782 0.0
C50 C 0.32253 0.28595 0.46613 0.0
C51 C 0.34033 0.3038 0.40317 0.0
Eu52 Eu 0.04641 0.95736 0.53428 0.0
C53 C 0.92674 0.16431 0.49009 0.0
N54 N 0.97558 0.15337 0.52516 0.0
C55 C 1.0065 0.23451 0.46169 0.0
C56 C 0.9163 0.21044 0.43758 0.0
C57 C 0.01508 0.18817 0.51312 0.0
C58 C 0.95704 0.24544 0.42325 0.0
C59 C 0.83593 0.14001 0.4725 0.0
C60 C 0.88735 0.12887 0.50658 0.0
C61 C 0.8256 0.18512 0.41877 0.0
C62 C 0.86573 0.22014 0.40118 0.0
Eu63 Eu 0.98842 0.0713 0.60521 0.0
N64 N 0.89878 0.08476 0.5577 0.0
C65 C 0.79617 0.10617 0.49452 0.0
C66 C 0.85929 0.05463 0.5834 0.0
C67 C 0.80776 0.06401 0.55123 0.0
H68 H 0.05346 0.17972 0.54241 0.0
H69 H 0.77693 0.03905 0.57075 0.0
H70 H 0.96342 0.85754 0.5369 0.0
H71 H 0.24294 0.96147 0.67735 0.0
H72 H 0.86679 0.02363 0.62936 0.0
H73 H 0.75618 0.11339 0.46978 0.0
H74 H 0.16727 0.9974 0.59349 0.0
H75 H 0.03809 0.2616 0.45145 0.0
H76 H 0.78651 0.19377 0.3913 0.0
H77 H 0.85707 0.25504 0.36009 0.0
H78 H 0.95884 0.76418 0.59654 0.0
H79 H 0.9506 0.28122 0.38312 0.0
H80 H 0.24442 0.86873 0.74176 0.0
N81 N 0.03958 0.86751 0.58679 0.0
C82 C 0.08144 0.84464 0.63179 0.0
C83 C 0.9935 0.78637 0.607 0.0
C84 C 0.0806 0.79134 0.6667 0.0
C85 C 0.99603 0.83932 0.57373 0.0
C86 C 0.03594 0.76225 0.65371 0.0
N87 N 0.1237 0.92691 0.61156 0.0
C88 C 0.16613 0.95737 0.62173 0.0
C89 C 0.16795 0.85271 0.69268 0.0
C90 C 0.12467 0.87511 0.64462 0.0
C91 C 0.21056 0.88442 0.70502 0.0
C92 C 0.20977 0.93684 0.669 0.0
H93 H 0.03377 0.72125 0.67963 0.0
H94 H 0.12376 0.72816 0.74163 0.0
H95 H 0.20011 0.78187 0.76449 0.0
O96 O 0.09594 0.96786 0.45549 0.0
O97 O 0.0448 0.93934 0.64744 0.0
O98 O 0.05745 0.01997 0.66297 0.0
O99 O 0.03679 0.90865 0.46207 0.0
O100 O 0.08961 0.0349 0.51893 0.0
O101 O 0.07364 0.083 0.59357 0.0
O102 O 0.9584 0.06618 0.70015 0.0
O103 O 0.99346 0.08635 0.49368 0.0
O104 O 0.97805 0.00734 0.46822 0.0
O105 O 1.00456 0.13227 0.65977 0.0
O106 O 0.94856 0.99161 0.62318 0.0
O107 O 0.9603 0.95275 0.53849 0.0
C108 C 0.05431 0.96961 0.68902 0.0
C109 C 0.11171 0.8932 0.41855 0.0
C110 C 0.15145 0.86002 0.33814 0.0
C111 C 0.18 0.82355 0.39243 0.0
C112 C 0.14081 0.85673 0.47228 0.0
C113 C 0.17471 0.82205 0.45919 0.0
C114 C 0.11725 0.89487 0.35135 0.0
C115 C 0.09976 0.07423 0.54732 0.0
C116 C 0.07537 0.92946 0.4317 0.0
C117 C 0.1238 0.769 0.71419 0.0
C118 C 0.16728 0.7996 0.72724 0.0
C119 C 0.97356 0.05864 0.45191 0.0
C120 C 0.93885 0.14673 0.72031 0.0
C121 C 0.8974 0.17681 0.80202 0.0
C122 C 0.86906 0.21401 0.74838 0.0
C123 C 0.90992 0.18401 0.66728 0.0
C124 C 0.93221 0.14298 0.78778 0.0
C125 C 0.87524 0.21742 0.68138 0.0
C126 C 0.93608 0.95604 0.5887 0.0
C127 C 0.97592 0.11168 0.70589 0.0
H128 H 0.20648 0.79645 0.38301 0.0
H129 H 0.13736 0.855 0.52417 0.0
H130 H 0.19695 0.79395 0.50093 0.0
H131 H 0.09505 0.92301 0.30947 0.0
H132 H 0.84205 0.24026 0.75849 0.0
H133 H 0.91429 0.18748 0.61506 0.0
H134 H 0.95419 0.11418 0.82907 0.0
H135 H 0.85315 0.24612 0.64024 0.0
Eu136 Eu 0.45957 0.49312 0.9907 0.0
C137 C 0.68044 0.56751 0.07717 0.0
N138 N 0.65575 0.52413 0.109 0.0
C139 C 0.73163 0.47191 0.11874 0.0
C140 C 0.73105 0.56395 0.06199 0.0
C141 C 0.68167 0.47735 0.1331 0.0
C142 C 0.75615 0.51521 0.08219 0.0
C143 C 0.68039 0.6615 0.02795 0.0
C144 C 0.65569 0.61601 0.06083 0.0
C145 C 0.7298 0.65758 0.01037 0.0
C146 C 0.75512 0.60899 0.02754 0.0
Eu147 Eu 0.57117 0.53887 0.12959 0.0
N148 N 0.60746 0.61881 0.07724 0.0
C149 C 0.65491 0.70975 0.01443 0.0
C150 C 0.58384 0.66595 0.06821 0.0
C151 C 0.60675 0.71205 0.03549 0.0
H152 H 0.66451 0.44413 0.16451 0.0
H153 H 0.58733 0.74928 0.02662 0.0
H154 H 0.36593 0.5861 0.95698 0.0
H155 H 0.44558 0.28045 0.07536 0.0
H156 H 0.54672 0.66755 0.08493 0.0
H157 H 0.67258 0.74554 0.98907 0.0
H158 H 0.48896 0.36424 0.03443 0.0
H159 H 0.75144 0.43444 0.13663 0.0
H160 H 0.74914 0.69203 0.98444 0.0
H161 H 0.7936 0.60676 0.01459 0.0
H162 H 0.27404 0.59176 0.96976 0.0
H163 H 0.79491 0.51086 0.07128 0.0
H164 H 0.35311 0.27948 0.0906 0.0
N165 N 0.3716 0.50387 0.99992 0.0
C166 C 0.34501 0.45875 0.02007 0.0
C167 C 0.29369 0.55418 0.98496 0.0
C168 C 0.29181 0.46009 0.02613 0.0
C169 C 0.34623 0.55095 0.97929 0.0
C170 C 0.26648 0.50863 0.00915 0.0
N171 N 0.42233 0.41045 0.02899 0.0
C172 C 0.44888 0.36445 0.0418 0.0
C173 C 0.34459 0.36376 0.0578 0.0
C174 C 0.37096 0.41087 0.03506 0.0
C175 C 0.37202 0.31648 0.07291 0.0
C176 C 0.42428 0.31685 0.06454 0.0
H177 H 0.22571 0.51127 0.01331 0.0
H178 H 0.22486 0.41357 0.05438 0.0
H179 H 0.27109 0.32939 0.08248 0.0
O180 O 0.43797 0.45398 0.9093 0.0
O181 O 0.45232 0.45504 0.10115 0.0
O182 O 0.50917 0.48865 0.17899 0.0
O183 O 0.42714 0.53767 0.8887 0.0
O184 O 0.5352 0.44878 0.01276 0.0
O185 O 0.5736 0.45402 0.12057 0.0
O186 O 0.57662 0.58633 0.20299 0.0
O187 O 0.55639 0.58159 0.01749 0.0
O188 O 0.53808 0.51904 0.95957 0.0
O189 O 0.62325 0.51646 0.22666 0.0
O190 O 0.49108 0.57396 0.11799 0.0
O191 O 0.45704 0.57463 0.00741 0.0
C192 C 0.47053 0.45853 0.16314 0.0
C193 C 0.44727 0.50371 0.79985 0.0
C194 C 0.44774 0.47773 0.69514 0.0
C195 C 0.48727 0.51396 0.67854 0.0
C196 C 0.48732 0.53938 0.78327 0.0
C197 C 0.5071 0.54451 0.72275 0.0
C198 C 0.42793 0.47268 0.75581 0.0
C199 C 0.5699 0.43348 0.06765 0.0
C200 C 0.42566 0.49728 0.86311 0.0
C201 C 0.26559 0.41318 0.04897 0.0
C202 C 0.29191 0.36521 0.06491 0.0
C203 C 0.56343 0.56095 0.96831 0.0
C204 C 0.59581 0.54107 0.31809 0.0
C205 C 0.60498 0.55761 0.43009 0.0
C206 C 0.57097 0.51626 0.45013 0.0
C207 C 0.5615 0.50008 0.33864 0.0
C208 C 0.6173 0.56999 0.36397 0.0
C209 C 0.54925 0.4877 0.40438 0.0
C210 C 0.45547 0.5888 0.06387 0.0
C211 C 0.60878 0.55469 0.24886 0.0
H212 H 0.50288 0.51821 0.63177 0.0
H213 H 0.50329 0.5631 0.81697 0.0
H214 H 0.53786 0.57218 0.71017 0.0
H215 H 0.39734 0.44469 0.76852 0.0
H216 H 0.56107 0.50641 0.50094 0.0
H217 H 0.54416 0.47777 0.30396 0.0
H218 H 0.6435 0.60203 0.34843 0.0
H219 H 0.52278 0.45599 0.4198 0.0
C220 C 0.19743 0.16377 0.44801 0.0
C221 C 0.21262 0.19537 0.49354 0.0
C222 C 0.17385 0.13106 0.58074 0.0
C223 C 0.14532 0.10928 0.52967 0.0
N224 N 0.13555 0.10336 0.4117 0.0
N225 N 0.22289 0.20424 0.60842 0.0
C226 C 0.15928 0.12431 0.46274 0.0
C227 C 0.20341 0.17737 0.56169 0.0
N228 N 0.22058 0.17053 0.39134 0.0
N229 N 0.17544 0.10545 0.64763 0.0
H230 H 0.2497 0.2344 0.59901 0.0
H231 H 0.2113 0.19739 0.65598 0.0
H232 H 0.15868 0.0688 0.66308 0.0
H233 H 0.19883 0.11691 0.68716 0.0
H234 H 0.21544 0.14502 0.3599 0.0
H235 H 0.24995 0.19776 0.38034 0.0
H236 H 0.13872 0.11967 0.36086 0.0
H237 H 0.11011 0.07219 0.41725 0.0
C238 C 0.36732 0.70646 0.98546 0.0
C239 C 0.33337 0.70146 0.03423 0.0
C240 C 0.38745 0.6299 0.1115 0.0
C241 C 0.41918 0.63238 0.06058 0.0
N242 N 0.45289 0.68797 0.9651 0.0
N243 N 0.32573 0.67548 0.15328 0.0
C244 C 0.41322 0.6753 1.00225 0.0
C245 C 0.34802 0.66857 0.10047 0.0
N246 N 0.35573 0.74051 0.92288 0.0
N247 N 0.39334 0.59009 0.16931 0.0
H248 H 0.29952 0.70578 0.14793 0.0
H249 H 0.33809 0.65563 0.20366 0.0
H250 H 0.42313 0.56244 0.182 0.0
H251 H 0.36655 0.58268 0.20314 0.0
H252 H 0.37531 0.74038 0.88259 0.0
H253 H 0.32525 0.76757 0.91013 0.0
H254 H 0.45298 0.72144 0.92533 0.0
H255 H 0.48855 0.66839 0.97998 0.0
C256 C 0.82765 0.85377 0.57841 0.0
C257 C 0.80874 0.84764 0.64051 0.0
C258 C 0.88057 0.90294 0.67533 0.0
C259 C 0.89232 0.91817 0.60714 0.0
N260 N 0.86509 0.91263 0.48993 0.0
N261 N 0.81891 0.86513 0.75087 0.0
C262 C 0.86278 0.89474 0.55771 0.0
C263 C 0.83565 0.87197 0.68966 0.0
N264 N 0.81286 0.81987 0.539 0.0
N265 N 0.91349 0.91466 0.72808 0.0
H266 H 0.79189 0.83692 0.76817 0.0
H267 H 0.83075 0.88883 0.78372 0.0
H268 H 0.94808 0.9349 0.72385 0.0
H269 H 0.90979 0.8988 0.77881 0.0
H270 H 0.82987 0.81949 0.49662 0.0
H271 H 0.78871 0.78813 0.55326 0.0
H272 H 0.83941 0.90023 0.45298 0.0
H273 H 0.88768 0.94342 0.46863 0.0
C274 C 0.66794 0.34142 0.03255 0.0
C275 C 0.67419 0.30236 0.09505 0.0
C276 C 0.60788 0.34586 0.13395 0.0
C277 C 0.60274 0.38642 0.07316 0.0
N278 N 0.61719 0.41286 0.95539 0.0
N279 N 0.66328 0.27908 0.21318 0.0
C280 C 0.6298 0.38169 0.01976 0.0
C281 C 0.64815 0.30802 0.14818 0.0
N282 N 0.70061 0.34186 0.98655 0.0
N283 N 0.57058 0.34001 0.17483 0.0
H284 H 0.69549 0.25405 0.22719 0.0
H285 H 0.64815 0.28524 0.25442 0.0
H286 H 0.53663 0.36261 0.16067 0.0
H287 H 0.56957 0.30825 0.21673 0.0
H288 H 0.70343 0.37321 0.94481 0.0
H289 H 0.72912 0.3135 0.99339 0.0
H290 H 0.62985 0.40559 0.91321 0.0
H291 H 0.59064 0.44348 0.9413 0.0
C292 C 0.20257 0.89498 0.16881 0.0
C293 C 0.17788 0.85611 0.13869 0.0
C294 C 0.12902 0.82644 0.23394 0.0
C295 C 0.15793 0.8614 0.2674 0.0
N296 N 0.22488 0.92637 0.27039 0.0
N297 N 0.12061 0.78217 0.14328 0.0
C298 C 0.19523 0.89526 0.23564 0.0
C299 C 0.14163 0.82127 0.17127 0.0
N300 N 0.23239 0.93208 0.13292 0.0
N301 N 0.08897 0.79885 0.26176 0.0
H302 H 0.12774 0.77812 0.0965 0.0
H303 H 0.09873 0.75174 0.16806 0.0
H304 H 0.07921 0.80121 0.30804 0.0
H305 H 0.0628 0.77683 0.23684 0.0
H306 H 0.24705 0.96475 0.14878 0.0
H307 H 0.2393 0.93246 0.08434 0.0
H308 H 0.25691 0.94733 0.25362 0.0
H309 H 0.2195 0.92882 0.31855 0.0
C310 C 0.60097 0.66738 0.81972 0.0
C311 C 0.64905 0.64745 0.81272 0.0
C312 C 0.64194 0.57162 0.90848 0.0
C313 C 0.5929 0.5906 0.91439 0.0
N314 N 0.52064 0.65003 0.86682 0.0
N315 N 0.72055 0.58681 0.8565 0.0
C316 C 0.57134 0.63728 0.86831 0.0
C317 C 0.67103 0.60126 0.85895 0.0
N318 N 0.58394 0.71534 0.77992 0.0
N319 N 0.65968 0.52409 0.94853 0.0
H320 H 0.74269 0.60773 0.82066 0.0
H321 H 0.74152 0.55689 0.89286 0.0
H322 H 0.64095 0.50291 0.98779 0.0
H323 H 0.69147 0.50438 0.94158 0.0
H324 H 0.55204 0.73492 0.78688 0.0
H325 H 0.60453 0.7378 0.74323 0.0
H326 H 0.50061 0.68075 0.83073 0.0
H327 H 0.4965 0.62608 0.89728 0.0
C328 C 0.86797 0.09352 0.29593 0.0
C329 C 0.88981 0.13782 0.2552 0.0
C330 C 0.96727 0.13015 0.34207 0.0
C331 C 0.94443 0.0869 0.38448 0.0
N332 N 0.8656 0.04088 0.40978 0.0
N333 N 0.95451 0.20556 0.24504 0.0
C334 C 0.89274 0.07206 0.36354 0.0
C335 C 0.93782 0.15827 0.27991 0.0
N336 N 0.82371 0.07162 0.26997 0.0
N337 N 0.01755 0.14385 0.36001 0.0
H338 H 0.93453 0.22693 0.19872 0.0
H339 H 0.98564 0.22581 0.26464 0.0
H340 H 0.0399 0.1265 0.40619 0.0
H341 H 0.03836 0.17027 0.32734 0.0
H342 H 0.80918 0.03602 0.29509 0.0
H343 H 0.80397 0.08681 0.22095 0.0
H344 H 0.82612 0.03285 0.39914 0.0
H345 H 0.88092 0.02857 0.46108 0.0
C346 C 0.36172 0.42961 0.55629 0.0
C347 C 0.38821 0.38273 0.55985 0.0
C348 C 0.45397 0.39828 0.6517 0.0
C349 C 0.42691 0.44466 0.64903 0.0
N350 N 0.35221 0.50183 0.60617 0.0
N351 N 0.45478 0.31807 0.61507 0.0
C352 C 0.37982 0.45947 0.60354 0.0
C353 C 0.43292 0.36569 0.609 0.0
N354 N 0.32017 0.44626 0.50625 0.0
N355 N 0.50036 0.38614 0.69413 0.0
H356 H 0.44115 0.29391 0.58335 0.0
H357 H 0.48413 0.30059 0.65403 0.0
H358 H 0.51578 0.40777 0.72832 0.0
H359 H 0.52522 0.35641 0.69336 0.0
H360 H 0.30297 0.48303 0.4951 0.0
H361 H 0.3041 0.42406 0.47302 0.0
H362 H 0.31474 0.51136 0.58023 0.0
H363 H 0.36552 0.52623 0.63765 0.0
C364 C 0.69227 0.597 0.57499 0.0
C365 C 0.66489 0.6414 0.57867 0.0
C366 C 0.59899 0.6319 0.48354 0.0
C367 C 0.62712 0.58834 0.47867 0.0
N368 N 0.70424 0.53414 0.51104 0.0
N369 N 0.5978 0.70686 0.53092 0.0
C370 C 0.67504 0.57242 0.52171 0.0
C371 C 0.61993 0.66066 0.53108 0.0
N372 N 0.73356 0.57726 0.62398 0.0
N373 N 0.55152 0.64472 0.44407 0.0
H374 H 0.61175 0.72847 0.56574 0.0
H375 H 0.56824 0.72597 0.49342 0.0
H376 H 0.53584 0.62581 0.40691 0.0
H377 H 0.52611 0.6719 0.45061 0.0
H378 H 0.7514 0.54154 0.62914 0.0
H379 H 0.74827 0.59518 0.66253 0.0
H380 H 0.74205 0.52449 0.53569 0.0
H381 H 0.69212 0.51433 0.47366 0.0
C382 C 0.90895 0.20847 0.97376 0.0
C383 C 0.86712 0.17891 1.00072 0.0
C384 C 0.84761 0.14464 0.89963 0.0
C385 C 0.88984 0.1737 0.87302 0.0
N386 N 0.96629 0.2259 0.88842 0.0
N387 N 0.80257 0.11192 0.99658 0.0
C388 C 0.92238 0.20321 0.91146 0.0
C389 C 0.83828 0.14478 0.96579 0.0
N390 N 0.93449 0.24308 0.00654 0.0
N391 N 0.81553 0.11814 0.86066 0.0
H392 H 0.79436 0.11156 0.04459 0.0
H393 H 0.7839 0.0823 0.97726 0.0
H394 H 0.8226 0.1151 0.81341 0.0
H395 H 0.78046 0.10146 0.87317 0.0
H396 H 0.96117 0.2703 0.98601 0.0
H397 H 0.92672 0.24691 0.05314 0.0
H398 H 0.99469 0.24328 0.91699 0.0
H399 H 0.9765 0.22401 0.8422 0.0
C400 C 0.44577 0.35532 0.32305 0.0
C401 C 0.39416 0.36781 0.32711 0.0
C402 C 0.39054 0.43626 0.22037 0.0
C403 C 0.44416 0.42713 0.21973 0.0
N404 N 0.52525 0.38398 0.27868 0.0
N405 N 0.31739 0.42133 0.28323 0.0
C406 C 0.47244 0.3882 0.27321 0.0
C407 C 0.36625 0.40818 0.27616 0.0
N408 N 0.46922 0.31157 0.36704 0.0
N409 N 0.36327 0.47318 0.16883 0.0
H410 H 0.29779 0.40011 0.32181 0.0
H411 H 0.29691 0.4544 0.25327 0.0
H412 H 0.38077 0.49864 0.13141 0.0
H413 H 0.32308 0.47797 0.16167 0.0
H414 H 0.50474 0.29691 0.3624 0.0
H415 H 0.45064 0.28691 0.4043 0.0
H416 H 0.54845 0.36077 0.32089 0.0
H417 H 0.54699 0.40718 0.24427 0.0
C418 C 0.10917 0.86443 0.84942 0.0
C419 C 0.1426 0.89533 0.88472 0.0
C420 C 0.10539 0.97506 0.80352 0.0
C421 C 0.07726 0.9446 0.76207 0.0
N422 N 0.03607 0.86079 0.76251 0.0
N423 N 0.17883 0.97945 0.8899 0.0
C424 C 0.07469 0.88922 0.78951 0.0
C425 C 0.14243 0.95043 0.86021 0.0
N426 N 0.11096 0.8111 0.87265 0.0
N427 N 0.09313 0.02653 0.79355 0.0
H428 H 0.20679 0.96296 0.93154 0.0
H429 H 0.18447 0.01912 0.86909 0.0
H430 H 0.05988 0.04373 0.7618 0.0
H431 H 0.11004 0.04949 0.82526 0.0
H432 H 0.09418 0.78576 0.84431 0.0
H433 H 0.13198 0.79153 0.91917 0.0
H434 H 0.02859 0.82175 0.78412 0.0
H435 H 1.00703 0.8769 0.72258 0.0
loop_
_geom_bond_atom_site_label_1
_geom_bond_atom_site_label_2
_geom_bond_distance
_geom_bond_site_symmetry_2
_ccdc_geom_bond_type
H0 C7 0.929 . S
H1 C10 0.930 . S
H2 C12 0.929 . S
H3 C4 0.969 . S
C4 H3 0.969 . S
C4 O5 1.550 . S
C4 H6 0.973 . S
O5 C4 1.550 . S
O5 C11 1.412 . S
H6 C4 0.973 . S
C7 H0 0.929 . S
C7 C8 1.400 1_554 S
C7 C9 1.364 . S
C8 C7 1.400 1_556 S
C8 C12 1.377 . S
C9 C7 1.364 . S
C9 C10 1.374 . S
C10 H1 0.930 . S
C10 C9 1.374 . S
C10 C11 1.383 . S
C11 O5 1.412 . S
C11 C10 1.383 . S
C11 C12 1.394 1_554 S
C12 H2 0.929 . S
C12 C8 1.377 . S
C12 C11 1.394 1_556 S
H13 C20 0.929 . S
H14 C23 0.930 . S
H15 C25 0.929 . S
H16 C17 0.969 . S
C17 H16 0.969 . S
C17 O18 1.550 . S
C17 H19 0.973 . S
O18 C17 1.550 . S
O18 C24 1.412 . S
H19 C17 0.973 . S
C20 H13 0.929 . S
C20 C21 1.400 . S
C20 C22 1.364 . S
C21 C20 1.400 . S
C21 C25 1.377 . S
C22 C20 1.364 . S
C22 C23 1.374 . S
C23 H14 0.930 . S
C23 C22 1.374 . S
C23 C24 1.383 . S
C24 O18 1.412 . S
C24 C23 1.383 . S
C24 C25 1.394 . S
C25 H15 0.929 . S
C25 C21 1.377 . S
C25 C24 1.394 . S
H26 C33 0.929 . S
H27 C36 0.930 . S
H28 C38 0.929 . S
H29 C30 0.969 . S
C30 H29 0.969 . S
C30 O31 1.550 . S
C30 H32 0.973 . S
O31 C30 1.550 . S
O31 C37 1.412 . S
H32 C30 0.973 . S
C33 H26 0.929 . S
C33 C34 1.400 . S
C33 C35 1.364 . S
C34 C33 1.400 . S
C34 C38 1.377 . S
C35 C33 1.364 . S
C35 C36 1.374 . S
C36 H27 0.930 . S
C36 C35 1.374 . S
C36 C37 1.383 . S
C37 O31 1.412 . S
C37 C36 1.383 . S
C37 C38 1.394 . S
C38 H28 0.929 . S
C38 C34 1.377 . S
C38 C37 1.394 . S
H39 C46 0.929 . S
H40 C49 0.930 . S
H41 C51 0.929 . S
H42 C43 0.969 . S
C43 H42 0.969 . S
C43 O44 1.550 . S
C43 H45 0.973 . S
O44 C43 1.550 . S
O44 C50 1.412 . S
H45 C43 0.973 . S
C46 H39 0.929 . S
C46 C47 1.400 . S
C46 C48 1.364 . S
C47 C46 1.400 . S
C47 C51 1.377 . S
C48 C46 1.364 . S
C48 C49 1.374 . S
C49 H40 0.930 . S
C49 C48 1.374 . S
C49 C50 1.383 . S
C50 O44 1.412 . S
C50 C49 1.383 . S
C50 C51 1.394 . S
C51 H41 0.929 . S
C51 C47 1.377 . S
C51 C50 1.394 . S
Eu52 N81 2.600 . S
Eu52 N87 2.562 . S
Eu52 O96 2.462 . S
Eu52 O97 2.373 . S
Eu52 O99 2.432 . S
Eu52 O100 2.291 1_565 S
Eu52 O104 2.335 1_465 S
Eu52 O107 2.372 1_455 S
Eu52 C116 2.787 . S
C53 N54 1.365 . S
C53 C56 1.405 . S
C53 C60 1.448 . S
N54 C53 1.365 . S
N54 C57 1.319 1_655 S
N54 Eu63 2.600 . S
C55 C57 1.397 . S
C55 C58 1.367 1_455 S
C55 H75 0.931 . S
C56 C53 1.405 . S
C56 C58 1.403 . S
C56 C62 1.439 . S
C57 N54 1.319 1_455 S
C57 C55 1.397 . S
C57 H68 0.930 . S
C58 C55 1.367 1_655 S
C58 C56 1.403 . S
C58 H79 0.929 . S
C59 C60 1.430 . S
C59 C61 1.387 . S
C59 C65 1.404 . S
C60 C53 1.448 . S
C60 C59 1.430 . S
C60 N64 1.351 . S
C61 C59 1.387 . S
C61 C62 1.374 . S
C61 H76 0.931 . S
C62 C56 1.439 . S
C62 C61 1.374 . S
C62 H77 0.931 . S
Eu63 N54 2.600 . S
Eu63 N64 2.562 . S
Eu63 O98 2.335 1_655 S
Eu63 O101 2.372 1_655 S
Eu63 O102 2.462 . S
Eu63 O103 2.373 . S
Eu63 O105 2.432 . S
Eu63 O106 2.291 1_545 S
Eu63 C127 2.787 . S
N64 C60 1.351 . S
N64 Eu63 2.562 . S
N64 C66 1.325 . S
C65 C59 1.404 . S
C65 C67 1.366 . S
C65 H73 0.930 . S
C66 N64 1.325 . S
C66 C67 1.416 . S
C66 H72 0.929 . S
C67 C65 1.366 . S
C67 C66 1.416 . S
C67 H69 0.930 . S
H68 C57 0.930 . S
H69 C67 0.930 . S
H70 C85 0.930 1_655 S
H71 C92 0.930 . S
H72 C66 0.929 . S
H73 C65 0.930 . S
H74 C88 0.929 . S
H75 C55 0.931 . S
H76 C61 0.931 . S
H77 C62 0.931 . S
H78 C83 0.931 1_655 S
H79 C58 0.929 . S
H80 C91 0.930 . S
N81 Eu52 2.600 . S
N81 C82 1.365 . S
N81 C85 1.319 . S
C82 N81 1.365 . S
C82 C84 1.405 . S
C82 C90 1.448 . S
C83 H78 0.931 1_455 S
C83 C85 1.397 . S
C83 C86 1.367 . S
C84 C82 1.405 . S
C84 C86 1.403 . S
C84 C117 1.439 . S
C85 H70 0.930 1_455 S
C85 N81 1.319 . S
C85 C83 1.397 . S
C86 C83 1.367 . S
C86 C84 1.403 . S
C86 H93 0.929 . S
N87 Eu52 2.562 . S
N87 C88 1.325 . S
N87 C90 1.351 . S
C88 H74 0.929 . S
C88 N87 1.325 . S
C88 C92 1.416 . S
C89 C90 1.430 . S
C89 C91 1.404 . S
C89 C118 1.387 . S
C90 C82 1.448 . S
C90 N87 1.351 . S
C90 C89 1.430 . S
C91 H80 0.930 . S
C91 C89 1.404 . S
C91 C92 1.366 . S
C92 H71 0.930 . S
C92 C88 1.416 . S
C92 C91 1.366 . S
H93 C86 0.929 . S
H94 C117 0.931 . S
H95 C118 0.931 . S
O96 Eu52 2.462 . S
O96 C116 1.252 . S
O97 Eu52 2.373 . S
O97 C108 1.249 . S
O98 Eu63 2.335 1_455 S
O98 C108 1.264 1_545 S
O99 Eu52 2.432 . S
O99 C116 1.268 . S
O100 Eu52 2.291 1_545 S
O100 C115 1.255 . S
O101 Eu63 2.372 1_455 S
O101 C115 1.257 . S
O102 Eu63 2.462 . S
O102 C127 1.252 . S
O103 Eu63 2.373 . S
O103 C119 1.249 . S
O104 Eu52 2.335 1_645 S
O104 C119 1.264 . S
O105 Eu63 2.432 . S
O105 C127 1.268 . S
O106 Eu63 2.291 1_565 S
O106 C126 1.255 . S
O107 Eu52 2.372 1_655 S
O107 C126 1.257 . S
C108 O97 1.249 . S
C108 O98 1.264 1_565 S
C109 C112 1.382 . S
C109 C114 1.390 . S
C109 C116 1.506 . S
C110 C111 1.398 . S
C110 C114 1.392 . S
C111 C110 1.398 . S
C111 C113 1.372 . S
C111 H128 0.931 . S
C112 C109 1.382 . S
C112 C113 1.390 . S
C112 H129 0.931 . S
C113 C111 1.372 . S
C113 C112 1.390 . S
C113 H130 0.929 . S
C114 C109 1.390 . S
C114 C110 1.392 . S
C114 H131 0.930 . S
C115 O100 1.255 . S
C115 O101 1.257 . S
C116 Eu52 2.787 . S
C116 O96 1.252 . S
C116 O99 1.268 . S
C116 C109 1.506 . S
C117 C84 1.439 . S
C117 H94 0.931 . S
C117 C118 1.374 . S
C118 C89 1.387 . S
C118 H95 0.931 . S
C118 C117 1.374 . S
C119 O103 1.249 . S
C119 O104 1.264 . S
C120 C123 1.382 . S
C120 C124 1.390 . S
C120 C127 1.506 . S
C121 C122 1.398 . S
C121 C124 1.392 . S
C122 C121 1.398 . S
C122 C125 1.372 . S
C122 H132 0.931 . S
C123 C120 1.382 . S
C123 C125 1.390 . S
C123 H133 0.931 . S
C124 C120 1.390 . S
C124 C121 1.392 . S
C124 H134 0.930 . S
C125 C122 1.372 . S
C125 C123 1.390 . S
C125 H135 0.929 . S
C126 O106 1.255 . S
C126 O107 1.257 . S
C127 Eu63 2.787 . S
C127 O102 1.252 . S
C127 O105 1.268 . S
C127 C120 1.506 . S
H128 C111 0.931 . S
H129 C112 0.931 . S
H130 C113 0.929 . S
H131 C114 0.930 . S
H132 C122 0.931 . S
H133 C123 0.931 . S
H134 C124 0.930 . S
H135 C125 0.929 . S
Eu136 N165 2.600 . S
Eu136 N171 2.562 1_556 S
Eu136 O180 2.462 . S
Eu136 O181 2.373 1_556 S
Eu136 O183 2.432 . S
Eu136 O184 2.291 1_556 S
Eu136 O188 2.335 . S
Eu136 O191 2.372 1_556 S
Eu136 C200 2.787 . S
C137 N138 1.365 . S
C137 C140 1.405 . S
C137 C144 1.448 . S
N138 C137 1.365 . S
N138 C141 1.319 . S
N138 Eu147 2.600 . S
C139 C141 1.397 . S
C139 C142 1.367 . S
C139 H159 0.931 . S
C140 C137 1.405 . S
C140 C142 1.403 . S
C140 C146 1.439 . S
C141 N138 1.319 . S
C141 C139 1.397 . S
C141 H152 0.930 . S
C142 C139 1.367 . S
C142 C140 1.403 . S
C142 H163 0.929 . S
C143 C144 1.430 . S
C143 C145 1.387 . S
C143 C149 1.404 . S
C144 C137 1.448 . S
C144 C143 1.430 . S
C144 N148 1.351 . S
C145 C143 1.387 . S
C145 C146 1.374 . S
C145 H160 0.931 . S
C146 C140 1.439 . S
C146 C145 1.374 . S
C146 H161 0.931 . S
Eu147 N138 2.600 . S
Eu147 N148 2.562 . S
Eu147 O182 2.335 . S
Eu147 O185 2.372 . S
Eu147 O186 2.462 . S
Eu147 O187 2.373 . S
Eu147 O189 2.432 . S
Eu147 O190 2.291 . S
Eu147 C211 2.787 . S
N148 C144 1.351 . S
N148 Eu147 2.562 . S
N148 C150 1.325 . S
C149 C143 1.404 . S
C149 C151 1.366 . S
C149 H157 0.930 . S
C150 N148 1.325 . S
C150 C151 1.416 . S
C150 H156 0.929 . S
C151 C149 1.366 . S
C151 C150 1.416 . S
C151 H153 0.930 . S
H152 C141 0.930 . S
H153 C151 0.930 . S
H154 C169 0.930 . S
H155 C176 0.930 . S
H156 C150 0.929 . S
H157 C149 0.930 . S
H158 C172 0.929 . S
H159 C139 0.931 . S
H160 C145 0.931 . S
H161 C146 0.931 . S
H162 C167 0.931 . S
H163 C142 0.929 . S
H164 C175 0.930 . S
N165 Eu136 2.600 . S
N165 C166 1.365 1_556 S
N165 C169 1.319 . S
C166 N165 1.365 1_554 S
C166 C168 1.405 . S
C166 C174 1.448 . S
C167 H162 0.931 . S
C167 C169 1.397 . S
C167 C170 1.367 1_556 S
C168 C166 1.405 . S
C168 C170 1.403 . S
C168 C201 1.439 . S
C169 H154 0.930 . S
C169 N165 1.319 . S
C169 C167 1.397 . S
C170 C167 1.367 1_554 S
C170 C168 1.403 . S
C170 H177 0.929 . S
N171 Eu136 2.562 1_554 S
N171 C172 1.325 . S
N171 C174 1.351 . S
C172 H158 0.929 . S
C172 N171 1.325 . S
C172 C176 1.416 . S
C173 C174 1.430 . S
C173 C175 1.404 . S
C173 C202 1.387 . S
C174 C166 1.448 . S
C174 N171 1.351 . S
C174 C173 1.430 . S
C175 H164 0.930 . S
C175 C173 1.404 . S
C175 C176 1.366 . S
C176 H155 0.930 . S
C176 C172 1.416 . S
C176 C175 1.366 . S
H177 C170 0.929 . S
H178 C201 0.931 . S
H179 C202 0.931 . S
O180 Eu136 2.462 . S
O180 C200 1.252 . S
O181 Eu136 2.373 1_554 S
O181 C192 1.249 . S
O182 Eu147 2.335 . S
O182 C192 1.264 . S
O183 Eu136 2.432 . S
O183 C200 1.268 . S
O184 Eu136 2.291 1_554 S
O184 C199 1.255 . S
O185 Eu147 2.372 . S
O185 C199 1.257 . S
O186 Eu147 2.462 . S
O186 C211 1.252 . S
O187 Eu147 2.373 . S
O187 C203 1.249 1_554 S
O188 Eu136 2.335 . S
O188 C203 1.264 . S
O189 Eu147 2.432 . S
O189 C211 1.268 . S
O190 Eu147 2.291 . S
O190 C210 1.255 . S
O191 Eu136 2.372 1_554 S
O191 C210 1.257 . S
C192 O181 1.249 . S
C192 O182 1.264 . S
C193 C196 1.382 . S
C193 C198 1.390 . S
C193 C200 1.506 . S
C194 C195 1.398 . S
C194 C198 1.392 . S
C195 C194 1.398 . S
C195 C197 1.372 . S
C195 H212 0.931 . S
C196 C193 1.382 . S
C196 C197 1.390 . S
C196 H213 0.931 . S
C197 C195 1.372 . S
C197 C196 1.390 . S
C197 H214 0.929 . S
C198 C193 1.390 . S
C198 C194 1.392 . S
C198 H215 0.930 . S
C199 O184 1.255 . S
C199 O185 1.257 . S
C200 Eu136 2.787 . S
C200 O180 1.252 . S
C200 O183 1.268 . S
C200 C193 1.506 . S
C201 C168 1.439 . S
C201 H178 0.931 . S
C201 C202 1.374 . S
C202 C173 1.387 . S
C202 H179 0.931 . S
C202 C201 1.374 . S
C203 O187 1.249 1_556 S
C203 O188 1.264 . S
C204 C207 1.382 . S
C204 C208 1.390 . S
C204 C211 1.506 . S
C205 C206 1.398 . S
C205 C208 1.392 . S
C206 C205 1.398 . S
C206 C209 1.372 . S
C206 H216 0.931 . S
C207 C204 1.382 . S
C207 C209 1.390 . S
C207 H217 0.931 . S
C208 C204 1.390 . S
C208 C205 1.392 . S
C208 H218 0.930 . S
C209 C206 1.372 . S
C209 C207 1.390 . S
C209 H219 0.929 . S
C210 O190 1.255 . S
C210 O191 1.257 . S
C211 Eu147 2.787 . S
C211 O186 1.252 . S
C211 O189 1.268 . S
C211 C204 1.506 . S
H212 C195 0.931 . S
H213 C196 0.931 . S
H214 C197 0.929 . S
H215 C198 0.930 . S
H216 C206 0.931 . S
H217 C207 0.931 . S
H218 C208 0.930 . S
H219 C209 0.929 . S
C220 C221 1.363 . S
C220 C226 1.379 . S
C220 N228 1.356 . S
C221 C220 1.363 . S
C221 C227 1.363 . S
C222 C223 1.363 . S
C222 C227 1.379 . S
C222 N229 1.356 . S
C223 C222 1.363 . S
C223 C226 1.363 . S
N224 C226 1.356 . S
N224 H236 0.984 . S
N224 H237 0.985 . S
N225 C227 1.356 . S
N225 H230 0.984 . S
N225 H231 0.985 . S
C226 C220 1.379 . S
C226 C223 1.363 . S
C226 N224 1.356 . S
C227 C221 1.363 . S
C227 C222 1.379 . S
C227 N225 1.356 . S
N228 C220 1.356 . S
N228 H234 0.984 . S
N228 H235 0.984 . S
N229 C222 1.356 . S
N229 H232 0.984 . S
N229 H233 0.985 . S
H230 N225 0.984 . S
H231 N225 0.985 . S
H232 N229 0.984 . S
H233 N229 0.985 . S
H234 N228 0.984 . S
H235 N228 0.984 . S
H236 N224 0.984 . S
H237 N224 0.985 . S
C238 C239 1.363 . S
C238 C244 1.379 . S
C238 N246 1.356 1_554 S
C239 C238 1.363 . S
C239 C245 1.363 . S
C240 C241 1.363 . S
C240 C245 1.379 . S
C240 N247 1.356 . S
C241 C240 1.363 . S
C241 C244 1.363 . S
N242 C244 1.356 1_556 S
N242 H254 0.984 . S
N242 H255 0.985 . S
N243 C245 1.356 . S
N243 H248 0.984 . S
N243 H249 0.985 . S
C244 C238 1.379 . S
C244 C241 1.363 . S
C244 N242 1.356 1_554 S
C245 C239 1.363 . S
C245 C240 1.379 . S
C245 N243 1.356 . S
N246 C238 1.356 1_556 S
N246 H252 0.984 . S
N246 H253 0.984 . S
N247 C240 1.356 . S
N247 H250 0.984 . S
N247 H251 0.985 . S
H248 N243 0.984 . S
H249 N243 0.985 . S
H250 N247 0.984 . S
H251 N247 0.985 . S
H252 N246 0.984 . S
H253 N246 0.984 . S
H254 N242 0.984 . S
H255 N242 0.985 . S
C256 C257 1.363 . S
C256 C262 1.379 . S
C256 N264 1.356 . S
C257 C256 1.363 . S
C257 C263 1.363 . S
C258 C259 1.363 . S
C258 C263 1.379 . S
C258 N265 1.356 . S
C259 C258 1.363 . S
C259 C262 1.363 . S
N260 C262 1.356 . S
N260 H272 0.984 . S
N260 H273 0.985 . S
N261 C263 1.356 . S
N261 H266 0.984 . S
N261 H267 0.985 . S
C262 C256 1.379 . S
C262 C259 1.363 . S
C262 N260 1.356 . S
C263 C257 1.363 . S
C263 C258 1.379 . S
C263 N261 1.356 . S
N264 C256 1.356 . S
N264 H270 0.984 . S
N264 H271 0.984 . S
N265 C258 1.356 . S
N265 H268 0.984 . S
N265 H269 0.985 . S
H266 N261 0.984 . S
H267 N261 0.985 . S
H268 N265 0.984 . S
H269 N265 0.985 . S
H270 N264 0.984 . S
H271 N264 0.984 . S
H272 N260 0.984 . S
H273 N260 0.985 . S
C274 C275 1.363 . S
C274 C280 1.379 . S
C274 N282 1.356 1_554 S
C275 C274 1.363 . S
C275 C281 1.363 . S
C276 C277 1.363 . S
C276 C281 1.379 . S
C276 N283 1.356 . S
C277 C276 1.363 . S
C277 C280 1.363 . S
N278 C280 1.356 1_556 S
N278 H290 0.984 . S
N278 H291 0.985 . S
N279 C281 1.356 . S
N279 H284 0.984 . S
N279 H285 0.985 . S
C280 C274 1.379 . S
C280 C277 1.363 . S
C280 N278 1.356 1_554 S
C281 C275 1.363 . S
C281 C276 1.379 . S
C281 N279 1.356 . S
N282 C274 1.356 1_556 S
N282 H288 0.984 . S
N282 H289 0.984 . S
N283 C276 1.356 . S
N283 H286 0.984 . S
N283 H287 0.985 . S
H284 N279 0.984 . S
H285 N279 0.985 . S
H286 N283 0.984 . S
H287 N283 0.985 . S
H288 N282 0.984 . S
H289 N282 0.984 . S
H290 N278 0.984 . S
H291 N278 0.985 . S
C292 C293 1.363 . S
C292 C298 1.379 . S
C292 N300 1.356 . S
C293 C292 1.363 . S
C293 C299 1.363 . S
C294 C295 1.363 . S
C294 C299 1.379 . S
C294 N301 1.356 . S
C295 C294 1.363 . S
C295 C298 1.363 . S
N296 C298 1.356 . S
N296 H308 0.984 1_565 S
N296 H309 0.985 1_565 S
N297 C299 1.356 . S
N297 H302 0.984 . S
N297 H303 0.985 . S
C298 C292 1.379 . S
C298 C295 1.363 . S
C298 N296 1.356 . S
C299 C293 1.363 . S
C299 C294 1.379 . S
C299 N297 1.356 . S
N300 C292 1.356 . S
N300 H306 0.984 . S
N300 H307 0.984 . S
N301 C294 1.356 . S
N301 H304 0.984 . S
N301 H305 0.985 . S
H302 N297 0.984 . S
H303 N297 0.985 . S
H304 N301 0.984 . S
H305 N301 0.985 . S
H306 N300 0.984 . S
H307 N300 0.984 . S
H308 N296 0.984 1_545 S
H309 N296 0.985 1_545 S
C310 C311 1.363 . S
C310 C316 1.379 . S
C310 N318 1.356 . S
C311 C310 1.363 . S
C311 C317 1.363 . S
C312 C313 1.363 . S
C312 C317 1.379 . S
C312 N319 1.356 . S
C313 C312 1.363 . S
C313 C316 1.363 . S
N314 C316 1.356 . S
N314 H326 0.984 . S
N314 H327 0.985 . S
N315 C317 1.356 . S
N315 H320 0.984 . S
N315 H321 0.985 . S
C316 C310 1.379 . S
C316 C313 1.363 . S
C316 N314 1.356 . S
C317 C311 1.363 . S
C317 C312 1.379 . S
C317 N315 1.356 . S
N318 C310 1.356 . S
N318 H324 0.984 . S
N318 H325 0.984 . S
N319 C312 1.356 . S
N319 H322 0.984 . S
N319 H323 0.985 . S
H320 N315 0.984 . S
H321 N315 0.985 . S
H322 N319 0.984 . S
H323 N319 0.985 . S
H324 N318 0.984 . S
H325 N318 0.984 . S
H326 N314 0.984 . S
H327 N314 0.985 . S
C328 C329 1.363 . S
C328 C334 1.379 . S
C328 N336 1.356 . S
C329 C328 1.363 . S
C329 C335 1.363 . S
C330 C331 1.363 . S
C330 C335 1.379 . S
C330 N337 1.356 . S
C331 C330 1.363 . S
C331 C334 1.363 . S
N332 C334 1.356 1_565 S
N332 H344 0.984 . S
N332 H345 0.985 . S
N333 C335 1.356 . S
N333 H338 0.984 . S
N333 H339 0.985 . S
C334 C328 1.379 . S
C334 C331 1.363 . S
C334 N332 1.356 1_545 S
C335 C329 1.363 . S
C335 C330 1.379 . S
C335 N333 1.356 . S
N336 C328 1.356 . S
N336 H342 0.984 1_545 S
N336 H343 0.984 . S
N337 C330 1.356 . S
N337 H340 0.984 . S
N337 H341 0.985 . S
H338 N333 0.984 . S
H339 N333 0.985 . S
H340 N337 0.984 . S
H341 N337 0.985 . S
H342 N336 0.984 1_565 S
H343 N336 0.984 . S
H344 N332 0.984 . S
H345 N332 0.985 . S
C346 C347 1.363 . S
C346 C352 1.379 . S
C346 N354 1.356 . S
C347 C346 1.363 . S
C347 C353 1.363 . S
C348 C349 1.363 . S
C348 C353 1.379 . S
C348 N355 1.356 . S
C349 C348 1.363 . S
C349 C352 1.363 . S
N350 C352 1.356 . S
N350 H362 0.984 . S
N350 H363 0.985 . S
N351 C353 1.356 . S
N351 H356 0.984 . S
N351 H357 0.985 . S
C352 C346 1.379 . S
C352 C349 1.363 . S
C352 N350 1.356 . S
C353 C347 1.363 . S
C353 C348 1.379 . S
C353 N351 1.356 . S
N354 C346 1.356 . S
N354 H360 0.984 . S
N354 H361 0.984 . S
N355 C348 1.356 . S
N355 H358 0.984 . S
N355 H359 0.985 . S
H356 N351 0.984 . S
H357 N351 0.985 . S
H358 N355 0.984 . S
H359 N355 0.985 . S
H360 N354 0.984 . S
H361 N354 0.984 . S
H362 N350 0.984 . S
H363 N350 0.985 . S
C364 C365 1.363 . S
C364 C370 1.379 . S
C364 N372 1.356 . S
C365 C364 1.363 . S
C365 C371 1.363 . S
C366 C367 1.363 . S
C366 C371 1.379 . S
C366 N373 1.356 . S
C367 C366 1.363 . S
C367 C370 1.363 . S
N368 C370 1.356 . S
N368 H380 0.984 . S
N368 H381 0.985 . S
N369 C371 1.356 . S
N369 H374 0.984 . S
N369 H375 0.985 . S
C370 C364 1.379 . S
C370 C367 1.363 . S
C370 N368 1.356 . S
C371 C365 1.363 . S
C371 C366 1.379 . S
C371 N369 1.356 . S
N372 C364 1.356 . S
N372 H378 0.984 . S
N372 H379 0.984 . S
N373 C366 1.356 . S
N373 H376 0.984 . S
N373 H377 0.985 . S
H374 N369 0.984 . S
H375 N369 0.985 . S
H376 N373 0.984 . S
H377 N373 0.985 . S
H378 N372 0.984 . S
H379 N372 0.984 . S
H380 N368 0.984 . S
H381 N368 0.985 . S
C382 C383 1.363 1_554 S
C382 C388 1.379 1_554 S
C382 N390 1.356 . S
C383 C382 1.363 1_556 S
C383 C389 1.363 . S
C384 C385 1.363 . S
C384 C389 1.379 . S
C384 N391 1.356 . S
C385 C384 1.363 . S
C385 C388 1.363 . S
N386 C388 1.356 . S
N386 H398 0.984 1_556 S
N386 H399 0.985 . S
N387 C389 1.356 . S
N387 H392 0.984 . S
N387 H393 0.985 . S
C388 C382 1.379 1_556 S
C388 C385 1.363 . S
C388 N386 1.356 . S
C389 C383 1.363 . S
C389 C384 1.379 . S
C389 N387 1.356 . S
N390 C382 1.356 . S
N390 H396 0.984 . S
N390 H397 0.984 . S
N391 C384 1.356 . S
N391 H394 0.984 . S
N391 H395 0.985 . S
H392 N387 0.984 . S
H393 N387 0.985 . S
H394 N391 0.984 . S
H395 N391 0.985 . S
H396 N390 0.984 . S
H397 N390 0.984 . S
H398 N386 0.984 1_554 S
H399 N386 0.985 . S
C400 C401 1.363 . S
C400 C406 1.379 . S
C400 N408 1.356 . S
C401 C400 1.363 . S
C401 C407 1.363 . S
C402 C403 1.363 . S
C402 C407 1.379 . S
C402 N409 1.356 . S
C403 C402 1.363 . S
C403 C406 1.363 . S
N404 C406 1.356 . S
N404 H416 0.984 . S
N404 H417 0.985 . S
N405 C407 1.356 . S
N405 H410 0.984 . S
N405 H411 0.985 . S
C406 C400 1.379 . S
C406 C403 1.363 . S
C406 N404 1.356 . S
C407 C401 1.363 . S
C407 C402 1.379 . S
C407 N405 1.356 . S
N408 C400 1.356 . S
N408 H414 0.984 . S
N408 H415 0.984 . S
N409 C402 1.356 . S
N409 H412 0.984 . S
N409 H413 0.985 . S
H410 N405 0.984 . S
H411 N405 0.985 . S
H412 N409 0.984 . S
H413 N409 0.985 . S
H414 N408 0.984 . S
H415 N408 0.984 . S
H416 N404 0.984 . S
H417 N404 0.985 . S
C418 C419 1.363 . S
C418 C424 1.379 . S
C418 N426 1.356 . S
C419 C418 1.363 . S
C419 C425 1.363 . S
C420 C421 1.363 . S
C420 C425 1.379 . S
C420 N427 1.356 1_565 S
C421 C420 1.363 . S
C421 C424 1.363 . S
N422 C424 1.356 . S
N422 H434 0.984 . S
N422 H435 0.985 . S
N423 C425 1.356 . S
N423 H428 0.984 . S
N423 H429 0.985 1_565 S
C424 C418 1.379 . S
C424 C421 1.363 . S
C424 N422 1.356 . S
C425 C419 1.363 . S
C425 C420 1.379 . S
C425 N423 1.356 . S
N426 C418 1.356 . S
N426 H432 0.984 . S
N426 H433 0.984 . S
N427 C420 1.356 1_545 S
N427 H430 0.984 . S
N427 H431 0.985 . S
H428 N423 0.984 . S
H429 N423 0.985 1_545 S
H430 N427 0.984 . S
H431 N427 0.985 . S
H432 N426 0.984 . S
H433 N426 0.984 . S
H434 N422 0.984 . S
H435 N422 0.985 . S
C223 C115 1.636 . S
C221 C43 1.537 . S
C239 C4 1.579 . S
C241 C210 1.630 . S
C257 C17 1.576 . S
C259 C126 1.636 . S
C275 C30 1.634 . S
C277 C199 1.630 . S
C295 C110 1.383 . S
C293 C9 1.559 . S
C313 C203 1.653 . S
C311 C21 1.646 . S
C329 C34 1.616 . S
C331 C119 1.630 . S
C347 C48 1.571 . S
C349 C194 1.398 . S
C367 C205 1.398 . S
C365 C22 1.571 . S
C385 C121 1.383 . S
C383 C35 1.560 1_556 S
C403 C192 1.653 . S
C401 C47 1.642 . S
C419 C8 1.609 . S
C421 C108 1.630 . S
