# Generated by pormake.
# Topology cml, (3,6)-cn, num edge types: 1
# Building blocks:
#     Node 0, Type 0, BuildingBlock: BETDIP_clean_linker_0, # of connection points: 3
#     Node 1, Type 0, BuildingBlock: BETDIP_clean_linker_0, # of connection points: 3
#     Node 2, Type 0, BuildingBlock: BETDIP_clean_linker_0, # of connection points: 3
#     Node 3, Type 0, BuildingBlock: BETDIP_clean_linker_0, # of connection points: 3
#     Node 4, Type 0, BuildingBlock: BETDIP_clean_linker_0, # of connection points: 3
#     Node 5, Type 0, BuildingBlock: BETDIP_clean_linker_0, # of connection points: 3
#     Node 6, Type 0, BuildingBlock: BETDIP_clean_linker_0, # of connection points: 3
#     Node 7, Type 0, BuildingBlock: BETDIP_clean_linker_0, # of connection points: 3
#     Node 8, Type 1, BuildingBlock: IZENUY_clean_sbu_0, # of connection points: 6
#     Node 9, Type 1, BuildingBlock: IZENUY_clean_sbu_0, # of connection points: 6
#     Node 10, Type 1, BuildingBlock: IZENUY_clean_sbu_0, # of connection points: 6
#     Node 11, Type 1, BuildingBlock: IZENUY_clean_sbu_0, # of connection points: 6
#     Edge 12, Type (0, 1), BuildingBlock: XUDNAN_clean_linker_2, # of connection points: 2
#     Edge 13, Type (0, 1), BuildingBlock: XUDNAN_clean_linker_2, # of connection points: 2
#     Edge 14, Type (0, 1), BuildingBlock: XUDNAN_clean_linker_2, # of connection points: 2
#     Edge 15, Type (0, 1), BuildingBlock: XUDNAN_clean_linker_2, # of connection points: 2
#     Edge 16, Type (0, 1), BuildingBlock: XUDNAN_clean_linker_2, # of connection points: 2
#     Edge 17, Type (0, 1), BuildingBlock: XUDNAN_clean_linker_2, # of connection points: 2
#     Edge 18, Type (0, 1), BuildingBlock: XUDNAN_clean_linker_2, # of connection points: 2
#     Edge 19, Type (0, 1), BuildingBlock: XUDNAN_clean_linker_2, # of connection points: 2
#     Edge 20, Type (0, 1), BuildingBlock: XUDNAN_clean_linker_2, # of connection points: 2
#     Edge 21, Type (0, 1), BuildingBlock: XUDNAN_clean_linker_2, # of connection points: 2
#     Edge 22, Type (0, 1), BuildingBlock: XUDNAN_clean_linker_2, # of connection points: 2
#     Edge 23, Type (0, 1), BuildingBlock: XUDNAN_clean_linker_2, # of connection points: 2
#     Edge 24, Type (0, 1), BuildingBlock: XUDNAN_clean_linker_2, # of connection points: 2
#     Edge 25, Type (0, 1), BuildingBlock: XUDNAN_clean_linker_2, # of connection points: 2
#     Edge 26, Type (0, 1), BuildingBlock: XUDNAN_clean_linker_2, # of connection points: 2
#     Edge 27, Type (0, 1), BuildingBlock: XUDNAN_clean_linker_2, # of connection points: 2
#     Edge 28, Type (0, 1), BuildingBlock: XUDNAN_clean_linker_2, # of connection points: 2
#     Edge 29, Type (0, 1), BuildingBlock: XUDNAN_clean_linker_2, # of connection points: 2
#     Edge 30, Type (0, 1), BuildingBlock: XUDNAN_clean_linker_2, # of connection points: 2
#     Edge 31, Type (0, 1), BuildingBlock: XUDNAN_clean_linker_2, # of connection points: 2
#     Edge 32, Type (0, 1), BuildingBlock: XUDNAN_clean_linker_2, # of connection points: 2
#     Edge 33, Type (0, 1), BuildingBlock: XUDNAN_clean_linker_2, # of connection points: 2
#     Edge 34, Type (0, 1), BuildingBlock: XUDNAN_clean_linker_2, # of connection points: 2
#     Edge 35, Type (0, 1), BuildingBlock: XUDNAN_clean_linker_2, # of connection points: 2
# Relax obj value: 0.003
# Max RMSD: 0.066
# Mean RMSD: 0.052
data_MOF--net-cml--node1-IZENUY_clean_sbu_0--node2-BETDIP_clean_linker_0--edge1-XUDNAN_clean_linker_2
_symmetry_space_group_name_H-M    P1
_symmetry_Int_Tables_number       1
_symmetry_cell_setting            triclinic
loop_
_symmetry_equiv_pos_as_xyz
'x, y, z'
_cell_length_a     37.005189
_cell_length_b     41.004824
_cell_length_c     36.556271
_cell_angle_alpha  90.082725
_cell_angle_beta   89.947657
_cell_angle_gamma 90.009451
loop_
_atom_site_label
_atom_site_type_symbol
_atom_site_fract_x
_atom_site_fract_y
_atom_site_fract_z
_atom_type_partial_charge
H0 H 0.29753 0.34381 0.05673 0.0
H1 H 0.27154 0.39786 0.95907 0.0
H2 H 0.35997 0.42792 0.02675 0.0
H3 H 0.22384 0.36691 0.95521 0.0
C4 C 0.22692 0.3455 0.97227 0.0
C5 C 0.30224 0.36437 0.03874 0.0
C6 C 0.33127 0.38554 0.04551 0.0
C7 C 0.28023 0.36852 0.00779 0.0
C8 C 0.28739 0.39455 0.98356 0.0
C9 C 0.31591 0.41637 0.99054 0.0
C10 C 0.33735 0.41173 0.02169 0.0
N11 N 0.25281 0.34485 1.00107 0.0
H12 H 0.73651 0.66762 0.55675 0.0
H13 H 0.7472 0.60727 0.4612 0.0
H14 H 0.66007 0.59044 0.53673 0.0
H15 H 0.79027 0.64441 0.44355 0.0
C16 C 0.79421 0.66241 0.46496 0.0
C17 C 0.72635 0.64784 0.53997 0.0
C18 C 0.69571 0.63023 0.55105 0.0
C19 C 0.74459 0.6405 0.50746 0.0
C20 C 0.73298 0.61391 0.48598 0.0
C21 C 0.70254 0.59568 0.49692 0.0
C22 C 0.68383 0.60428 0.52898 0.0
N23 N 0.77418 0.661 0.49814 0.0
H24 H 0.74596 0.35399 0.06123 0.0
H25 H 0.73969 0.39881 0.9553 0.0
H26 H 0.67319 0.43377 0.04396 0.0
H27 H 0.74385 0.34488 0.9386 0.0
C28 C 0.76616 0.33675 0.95562 0.0
C29 C 0.73474 0.37236 0.04323 0.0
C30 C 0.70963 0.39499 0.05679 0.0
C31 C 0.74466 0.37283 0.00621 0.0
C32 C 0.73023 0.3972 0.98321 0.0
C33 C 0.704 0.41947 0.99608 0.0
C34 C 0.69401 0.41789 0.03318 0.0
N35 N 0.76828 0.34818 0.99236 0.0
H36 H 0.30952 0.6748 0.54269 0.0
H37 H 0.30018 0.61744 0.44407 0.0
H38 H 0.34891 0.57657 0.54057 0.0
H39 H 0.25982 0.65647 0.42667 0.0
C40 C 0.26087 0.67709 0.44528 0.0
C41 C 0.31422 0.65226 0.52787 0.0
C42 C 0.33036 0.62591 0.54572 0.0
C43 C 0.30227 0.64936 0.49164 0.0
C44 C 0.30842 0.61996 0.4723 0.0
C45 C 0.32531 0.59347 0.49001 0.0
C46 C 0.33575 0.59672 0.52674 0.0
N47 N 0.28343 0.67647 0.47674 0.0
H48 H 0.77971 0.84719 0.06675 0.0
H49 H 0.77301 0.90062 0.96635 0.0
H50 H 0.86023 0.91944 0.04118 0.0
H51 H 0.72843 0.86726 0.95156 0.0
C52 C 0.72405 0.84932 0.97287 0.0
C53 C 0.79077 0.86553 0.04861 0.0
C54 C 0.82212 0.88276 0.0585 0.0
C55 C 0.77338 0.87113 0.01527 0.0
C56 C 0.78669 0.89546 0.99176 0.0
C57 C 0.8178 0.91353 1.00118 0.0
C58 C 0.83538 0.90681 0.03453 0.0
N59 N 0.74348 0.85073 0.00642 0.0
H60 H 0.24534 0.16991 0.56735 0.0
H61 H 0.23501 0.12606 0.46075 0.0
H62 H 0.16661 0.09449 0.54887 0.0
H63 H 0.2962 0.13312 0.46355 0.0
C64 C 0.29722 0.15859 0.47179 0.0
C65 C 0.23216 0.15287 0.54902 0.0
C66 C 0.20465 0.13233 0.56222 0.0
C67 C 0.24402 0.15016 0.51259 0.0
C68 C 0.22665 0.1278 0.48905 0.0
C69 C 0.19874 0.10745 0.50176 0.0
C70 C 0.18817 0.10985 0.53853 0.0
N71 N 0.27362 0.16956 0.50006 0.0
H72 H 0.23696 0.84526 0.06301 0.0
H73 H 0.2294 0.88947 0.9569 0.0
H74 H 0.16416 0.92516 0.04618 0.0
H75 H 0.23323 0.83479 0.9409 0.0
C76 C 0.25611 0.82743 0.95761 0.0
C77 C 0.22541 0.86347 0.04503 0.0
C78 C 0.20045 0.88612 0.05873 0.0
C79 C 0.23493 0.86383 0.00794 0.0
C80 C 0.22025 0.88803 0.98494 0.0
C81 C 0.19429 0.91044 0.99802 0.0
C82 C 0.18467 0.90904 0.03522 0.0
N83 N 0.25867 0.83936 0.99408 0.0
H84 H 0.79092 0.17743 0.54738 0.0
H85 H 0.79257 0.11586 0.45157 0.0
H86 H 0.85088 0.08775 0.54803 0.0
H87 H 0.78382 0.16473 0.42344 0.0
C88 C 0.76425 0.17678 0.44104 0.0
C89 C 0.80009 0.15562 0.53338 0.0
C90 C 0.82243 0.13335 0.55157 0.0
C91 C 0.78979 0.15004 0.49698 0.0
C92 C 0.80141 0.1213 0.47912 0.0
C93 C 0.82314 0.09855 0.49754 0.0
C94 C 0.83378 0.10498 0.53366 0.0
N95 N 0.76681 0.17312 0.47958 0.0
Fe96 Fe 0.01688 0.84102 0.32741 0.0
Fe97 Fe 0.01717 0.88184 0.39857 0.0
O98 O 0.0144 0.87941 0.35017 0.0
Fe99 Fe 0.00922 0.91582 0.32435 0.0
O100 O 0.98387 0.89702 0.28676 0.0
O101 O 0.97354 0.8471 0.3052 0.0
O102 O 0.99221 0.81832 0.36314 0.0
C103 C 0.97328 0.82799 0.38999 0.0
C104 C 0.06002 0.88332 0.2839 0.0
O105 O 0.97824 0.85571 0.40406 0.0
C106 C 0.05722 0.93548 0.38033 0.0
O107 O 0.06042 0.83137 0.34746 0.0
O108 O 0.04858 0.84759 0.40357 0.0
O109 O 0.05184 0.90877 0.30149 0.0
O110 O 0.04204 0.85715 0.28773 0.0
C111 C 0.96222 0.92731 0.38042 0.0
O112 O 0.05654 0.90856 0.39696 0.0
O113 O 0.03373 0.94197 0.35639 0.0
C114 C 0.06825 0.83233 0.38098 0.0
O115 O 0.9858 0.91629 0.40229 0.0
O116 O 0.9663 0.92522 0.34618 0.0
C117 C 0.9661 0.87078 0.28464 0.0
Fe118 Fe 1.00253 0.13246 0.89264 0.0
Fe119 Fe 1.00576 0.09833 0.81779 0.0
O120 O 1.00609 0.1345 0.84414 0.0
Fe121 Fe 0.00958 0.1727 0.82137 0.0
O122 O 0.03436 0.19323 0.85852 0.0
O123 O 0.04448 0.15443 0.89852 0.0
O124 O 0.02961 0.09448 0.89651 0.0
C125 C 0.04988 0.07967 0.87372 0.0
C126 C 0.95687 0.18548 0.8725 0.0
O127 O 0.04612 0.08373 0.83976 0.0
C128 C 0.96203 0.13678 0.77645 0.0
O129 O 0.96021 0.10986 0.8912 0.0
O130 O 0.97693 0.07506 0.84886 0.0
O131 O 0.96653 0.18528 0.83943 0.0
O132 O 0.97474 0.17011 0.89672 0.0
C133 C 0.05803 0.13724 0.78191 0.0
O134 O 0.96491 0.11087 0.79463 0.0
O135 O 0.985 0.15949 0.77996 0.0
C136 C 0.95555 0.08351 0.87407 0.0
O137 O 0.03513 0.1143 0.7815 0.0
O138 O 0.05306 0.16225 0.80137 0.0
C139 C 0.05207 0.1819 0.88527 0.0
Fe140 Fe 0.51554 0.3405 0.31085 0.0
Fe141 Fe 0.5156 0.36679 0.38971 0.0
O142 O 0.51464 0.37365 0.3418 0.0
Fe143 Fe 0.51348 0.41396 0.3242 0.0
O144 O 0.48912 0.40296 0.28211 0.0
O145 O 0.47259 0.35237 0.29083 0.0
O146 O 0.49041 0.31252 0.34044 0.0
C147 C 0.47067 0.31685 0.3683 0.0
C148 C 0.56284 0.38635 0.27833 0.0
O149 O 0.47517 0.34139 0.38861 0.0
C150 C 0.55932 0.42079 0.38532 0.0
O151 O 0.5582 0.32678 0.32837 0.0
O152 O 0.54614 0.33093 0.38718 0.0
O153 O 0.55696 0.40836 0.30182 0.0
O154 O 0.5417 0.36213 0.27561 0.0
C155 C 0.46444 0.41848 0.37957 0.0
O156 O 0.55627 0.39144 0.39506 0.0
O157 O 0.53756 0.43291 0.36252 0.0
C158 C 0.56601 0.32073 0.36116 0.0
O159 O 0.48516 0.40149 0.39984 0.0
O160 O 0.47041 0.42174 0.34574 0.0
C161 C 0.46893 0.37903 0.27421 0.0
Fe162 Fe 0.5024 0.63403 0.89177 0.0
Fe163 Fe 0.50868 0.60121 0.81659 0.0
O164 O 0.50584 0.63702 0.84341 0.0
Fe165 Fe 0.50583 0.67559 0.82147 0.0
O166 O 0.52994 0.69689 0.85877 0.0
O167 O 0.54276 0.65804 0.89813 0.0
O168 O 0.53177 0.59737 0.89489 0.0
C169 C 0.55382 0.58471 0.87216 0.0
C170 C 0.45308 0.68449 0.87341 0.0
O171 O 0.55039 0.58953 0.83828 0.0
C172 C 0.4611 0.63664 0.77619 0.0
O173 O 0.46149 0.60967 0.88907 0.0
O174 O 0.48195 0.57574 0.84759 0.0
O175 O 0.46219 0.6852 0.84026 0.0
O176 O 0.47249 0.6701 0.89706 0.0
C177 C 0.55572 0.6448 0.77928 0.0
O178 O 0.46688 0.61084 0.79383 0.0
O179 O 0.48137 0.66135 0.78027 0.0
C180 C 0.45863 0.58345 0.87133 0.0
O181 O 0.5359 0.61964 0.77997 0.0
O182 O 0.54954 0.66833 0.80059 0.0
C183 C 0.5484 0.68612 0.88539 0.0
H184 H 0.17642 0.33919 0.91851 0.0
H185 H 0.22433 0.28737 0.00982 0.0
H186 H 0.18515 0.24 0.99701 0.0
H187 H 0.08561 0.3098 0.93115 0.0
H188 H 0.07633 0.30642 0.8829 0.0
H189 H 0.10827 0.33625 0.89913 0.0
H190 H 0.15722 0.31231 0.85605 0.0
H191 H 0.12543 0.28238 0.83972 0.0
H192 H 0.16805 0.26951 0.85866 0.0
H193 H 0.14083 0.19831 0.97438 0.0
H194 H 0.09412 0.16519 0.94394 0.0
H195 H 0.07471 0.24393 0.86701 0.0
C196 C 0.17857 0.31785 0.9358 0.0
C197 C 0.20335 0.31697 0.96516 0.0
C198 C 0.20554 0.28865 0.98718 0.0
C199 C 0.1834 0.26159 0.9801 0.0
C200 C 0.15928 0.26322 0.9509 0.0
C201 C 0.15671 0.2906 0.92908 0.0
C202 C 0.12852 0.28603 0.89941 0.0
C203 C 0.09787 0.31111 0.90341 0.0
C204 C 0.14585 0.28765 0.8612 0.0
C205 C 0.11551 0.25186 0.90809 0.0
C206 C 0.13368 0.23914 0.93784 0.0
C207 C 0.1264 0.20801 0.95107 0.0
C208 C 0.09976 0.18938 0.93354 0.0
C209 C 0.08056 0.2019 0.90306 0.0
C210 C 0.08878 0.23359 0.89022 0.0
H211 H 0.84183 0.67209 0.40786 0.0
H212 H 0.80464 0.71514 0.50983 0.0
H213 H 0.84622 0.76107 0.5012 0.0
H214 H 0.93599 0.69531 0.41855 0.0
H215 H 0.94279 0.70412 0.37074 0.0
H216 H 0.90985 0.67413 0.38437 0.0
H217 H 0.86031 0.70535 0.34871 0.0
H218 H 0.8931 0.73543 0.335 0.0
H219 H 0.85255 0.74788 0.35853 0.0
H220 H 0.89034 0.80285 0.48195 0.0
H221 H 0.93631 0.83792 0.45364 0.0
H222 H 0.9475 0.76868 0.36419 0.0
C223 C 0.84257 0.6912 0.42832 0.0
C224 C 0.81994 0.68985 0.45953 0.0
C225 C 0.82167 0.71534 0.48574 0.0
C226 C 0.84523 0.7417 0.48109 0.0
C227 C 0.86713 0.74233 0.45017 0.0
C228 C 0.86625 0.7178 0.42422 0.0
C229 C 0.89308 0.72471 0.39366 0.0
C230 C 0.92216 0.69798 0.39173 0.0
C231 C 0.87359 0.72858 0.35679 0.0
C232 C 0.90895 0.75692 0.40658 0.0
C233 C 0.89338 0.76655 0.43919 0.0
C234 C 0.90289 0.79555 0.45647 0.0
C235 C 0.92909 0.81534 0.44008 0.0
C236 C 0.94581 0.80611 0.4067 0.0
C237 C 0.9355 0.77638 0.38981 0.0
H238 H 0.82753 0.30758 0.98649 0.0
H239 H 0.76092 0.31027 0.88884 0.0
H240 H 0.80071 0.27003 0.85932 0.0
H241 H 0.91267 0.30119 0.93982 0.0
H242 H 0.9328 0.27344 0.97212 0.0
H243 H 0.89831 0.3015 0.98696 0.0
H244 H 0.86042 0.25331 0.01187 0.0
H245 H 0.8948 0.22508 0.99704 0.0
H246 H 0.84882 0.22004 0.9818 0.0
H247 H 0.84747 0.232 0.83899 0.0
H248 H 0.90051 0.19751 0.82783 0.0
H249 H 0.93907 0.21711 0.93791 0.0
C250 C 0.82129 0.29945 0.95902 0.0
C251 C 0.79099 0.31197 0.93991 0.0
C252 C 0.78387 0.30095 0.90395 0.0
C253 C 0.80628 0.27804 0.88696 0.0
C254 C 0.83586 0.2662 0.90626 0.0
C255 C 0.84362 0.27636 0.94145 0.0
C256 C 0.87802 0.26003 0.95517 0.0
C257 C 0.90717 0.28557 0.96404 0.0
C258 C 0.87003 0.23832 0.98845 0.0
C259 C 0.88846 0.23962 0.92196 0.0
C260 C 0.86344 0.24364 0.89428 0.0
C261 C 0.8672 0.2285 0.86046 0.0
C262 C 0.89756 0.20901 0.85438 0.0
C263 C 0.92405 0.20459 0.88193 0.0
C264 C 0.91912 0.21976 0.91646 0.0
H265 H 0.2143 0.68777 0.38802 0.0
H266 H 0.25045 0.72942 0.49097 0.0
H267 H 0.20671 0.7741 0.48422 0.0
H268 H 0.19967 0.76603 0.34159 0.0
H269 H 0.16007 0.75201 0.31759 0.0
H270 H 0.19519 0.72355 0.32962 0.0
H271 H 0.14827 0.68782 0.36369 0.0
H272 H 0.11306 0.71619 0.35184 0.0
H273 H 0.12079 0.70585 0.39909 0.0
H274 H 0.15679 0.81233 0.46889 0.0
H275 H 0.10539 0.8435 0.44406 0.0
H276 H 0.10225 0.77927 0.34959 0.0
C277 C 0.21317 0.70651 0.4089 0.0
C278 C 0.23585 0.70502 0.43997 0.0
C279 C 0.23352 0.72992 0.46684 0.0
C280 C 0.20869 0.75548 0.4633 0.0
C281 C 0.18651 0.7561 0.43259 0.0
C282 C 0.18864 0.7325 0.40564 0.0
C283 C 0.16122 0.7389 0.37562 0.0
C284 C 0.18018 0.74552 0.33893 0.0
C285 C 0.13424 0.7105 0.37239 0.0
C286 C 0.14305 0.76946 0.39026 0.0
C287 C 0.15809 0.77885 0.42321 0.0
C288 C 0.14501 0.80544 0.44292 0.0
C289 C 0.11571 0.82292 0.42865 0.0
C290 C 0.0999 0.81396 0.39482 0.0
C291 C 0.11405 0.78698 0.37529 0.0
H292 H 0.67982 0.84029 0.91351 0.0
H293 H 0.71018 0.7969 0.01732 0.0
H294 H 0.66863 0.7512 0.00579 0.0
H295 H 0.58495 0.81792 0.91789 0.0
H296 H 0.58137 0.80944 0.86964 0.0
H297 H 0.61354 0.83911 0.8858 0.0
H298 H 0.66513 0.80773 0.85322 0.0
H299 H 0.63312 0.77794 0.83701 0.0
H300 H 0.67188 0.7651 0.8631 0.0
H301 H 0.62548 0.70956 0.98293 0.0
H302 H 0.58122 0.67506 0.95104 0.0
H303 H 0.57658 0.74516 0.86212 0.0
C304 C 0.67755 0.82118 0.9338 0.0
C305 C 0.69824 0.82223 0.9663 0.0
C306 C 0.69462 0.79679 0.99225 0.0
C307 C 0.67109 0.77063 0.98594 0.0
C308 C 0.65119 0.77025 0.95364 0.0
C309 C 0.65394 0.79487 0.92803 0.0
C310 C 0.62923 0.78836 0.89566 0.0
C311 C 0.60057 0.81531 0.89205 0.0
C312 C 0.65116 0.78456 0.86015 0.0
C313 C 0.61231 0.75623 0.90713 0.0
C314 C 0.62557 0.74626 0.94061 0.0
C315 C 0.61474 0.71716 0.95676 0.0
C316 C 0.58958 0.69768 0.93832 0.0
C317 C 0.57519 0.70736 0.90405 0.0
C318 C 0.58681 0.73714 0.88835 0.0
H319 H 0.32114 0.22163 0.48894 0.0
H320 H 0.33022 0.14391 0.40874 0.0
H321 H 0.37311 0.17693 0.37306 0.0
H322 H 0.32846 0.2898 0.42448 0.0
H323 H 0.35576 0.31449 0.45451 0.0
H324 H 0.32399 0.28572 0.47337 0.0
H325 H 0.37547 0.25862 0.51039 0.0
H326 H 0.40736 0.28729 0.49163 0.0
H327 H 0.41515 0.24411 0.4868 0.0
H328 H 0.41516 0.21665 0.34642 0.0
H329 H 0.45692 0.26086 0.33065 0.0
H330 H 0.42392 0.31404 0.42811 0.0
C331 C 0.33198 0.21182 0.4637 0.0
C332 C 0.32222 0.18024 0.45139 0.0
C333 C 0.33731 0.16802 0.41855 0.0
C334 C 0.36163 0.18662 0.39805 0.0
C335 C 0.37094 0.21746 0.41081 0.0
C336 C 0.35687 0.23009 0.44288 0.0
C337 C 0.37301 0.26353 0.45076 0.0
C338 C 0.34354 0.28995 0.45078 0.0
C339 C 0.39399 0.26336 0.48705 0.0
C340 C 0.39836 0.26742 0.41823 0.0
C341 C 0.39632 0.24053 0.39554 0.0
C342 C 0.41704 0.23788 0.36393 0.0
C343 C 0.44079 0.26325 0.35524 0.0
C344 C 0.444 0.29108 0.37811 0.0
C345 C 0.4222 0.29317 0.41 0.0
H346 H 0.32003 0.80251 0.98713 0.0
H347 H 0.24919 0.79752 0.89271 0.0
H348 H 0.29005 0.75782 0.86366 0.0
H349 H 0.40284 0.79869 0.93703 0.0
H350 H 0.42638 0.77366 0.96975 0.0
H351 H 0.39059 0.80028 0.98475 0.0
H352 H 0.35746 0.75116 0.01399 0.0
H353 H 0.39316 0.72436 0.999 0.0
H354 H 0.34702 0.71599 0.9863 0.0
H355 H 0.33861 0.72164 0.8431 0.0
H356 H 0.39401 0.69048 0.83099 0.0
H357 H 0.43544 0.71688 0.93812 0.0
C358 C 0.31305 0.79273 0.96054 0.0
C359 C 0.2813 0.80293 0.94215 0.0
C360 C 0.27327 0.78994 0.90724 0.0
C361 C 0.29626 0.76732 0.89056 0.0
C362 C 0.32731 0.75782 0.90913 0.0
C363 C 0.33593 0.76998 0.94329 0.0
C364 C 0.372 0.75635 0.95621 0.0
C365 C 0.39958 0.78389 0.96228 0.0
C366 C 0.36711 0.73574 0.99094 0.0
C367 C 0.38239 0.73515 0.92365 0.0
C368 C 0.35591 0.73639 0.89704 0.0
C369 C 0.35945 0.72024 0.86378 0.0
C370 C 0.39112 0.70269 0.85714 0.0
C371 C 0.41903 0.7012 0.88359 0.0
C372 C 0.41435 0.71724 0.91762 0.0
H373 H 0.70769 0.21065 0.47386 0.0
H374 H 0.76003 0.19201 0.36959 0.0
H375 H 0.71581 0.22763 0.33887 0.0
H376 H 0.61661 0.21076 0.43939 0.0
H377 H 0.60116 0.24313 0.46892 0.0
H378 H 0.63749 0.21694 0.4834 0.0
H379 H 0.67839 0.26738 0.49365 0.0
H380 H 0.64216 0.29374 0.47921 0.0
H381 H 0.68545 0.29574 0.45668 0.0
H382 H 0.66686 0.26401 0.31922 0.0
H383 H 0.6142 0.29918 0.31043 0.0
H384 H 0.59115 0.29506 0.42704 0.0
C385 C 0.70989 0.21425 0.44461 0.0
C386 C 0.73739 0.19872 0.42398 0.0
C387 C 0.73924 0.20378 0.38579 0.0
C388 C 0.71429 0.22396 0.36814 0.0
C389 C 0.68753 0.23888 0.38909 0.0
C390 C 0.68498 0.23434 0.42643 0.0
C391 C 0.65292 0.25297 0.44203 0.0
C392 C 0.62542 0.22955 0.45946 0.0
C393 C 0.66549 0.27901 0.46952 0.0
C394 C 0.63788 0.26849 0.40753 0.0
C395 C 0.65853 0.25999 0.37748 0.0
C396 C 0.65041 0.27086 0.34249 0.0
C397 C 0.62025 0.29086 0.33786 0.0
C398 C 0.59818 0.29991 0.36802 0.0
C399 C 0.60735 0.28863 0.40343 0.0
H400 H 0.33632 0.47927 0.00571 0.0
H401 H 0.32051 0.41149 0.9159 0.0
H402 H 0.34856 0.45095 0.87357 0.0
H403 H 0.32507 0.55653 0.95182 0.0
H404 H 0.36023 0.57664 0.97743 0.0
H405 H 0.33262 0.54598 0.99906 0.0
H406 H 0.39031 0.51402 0.01703 0.0
H407 H 0.41804 0.54429 0.99521 0.0
H408 H 0.42189 0.5021 0.98189 0.0
H409 H 0.38742 0.493 0.84356 0.0
H410 H 0.43126 0.53595 0.82723 0.0
H411 H 0.42228 0.57661 0.93649 0.0
C412 C 0.33791 0.47308 0.97694 0.0
C413 C 0.32605 0.44233 0.96408 0.0
C414 C 0.32876 0.43509 0.92629 0.0
C415 C 0.34485 0.45731 0.90207 0.0
C416 C 0.35774 0.48678 0.916 0.0
C417 C 0.35399 0.49491 0.95249 0.0
C418 C 0.37325 0.52659 0.96131 0.0
C419 C 0.34617 0.553 0.97309 0.0
C420 C 0.40261 0.52142 0.99058 0.0
C421 C 0.38969 0.53435 0.9244 0.0
C422 C 0.38009 0.51126 0.89855 0.0
C423 C 0.3945 0.51158 0.86334 0.0
C424 C 0.41956 0.53594 0.85441 0.0
C425 C 0.42999 0.55968 0.88054 0.0
C426 C 0.4143 0.55915 0.91576 0.0
H427 H 0.64079 0.58952 0.45684 0.0
H428 H 0.7356 0.53654 0.49243 0.0
H429 H 0.71012 0.48549 0.46659 0.0
H430 H 0.5766 0.52957 0.47628 0.0
H431 H 0.54892 0.53677 0.43655 0.0
H432 H 0.57574 0.56934 0.45533 0.0
H433 H 0.60694 0.57784 0.39256 0.0
H434 H 0.57981 0.54556 0.37343 0.0
H435 H 0.62837 0.54372 0.37018 0.0
H436 H 0.67065 0.43927 0.44271 0.0
H437 H 0.62399 0.40289 0.41616 0.0
H438 H 0.55683 0.48708 0.3931 0.0
C439 C 0.65648 0.56726 0.45828 0.0
C440 C 0.69027 0.56678 0.47611 0.0
C441 C 0.70993 0.53729 0.47825 0.0
C442 C 0.69555 0.50823 0.46389 0.0
C443 C 0.66171 0.50931 0.44708 0.0
C444 C 0.64278 0.53823 0.44355 0.0
C445 C 0.60682 0.53281 0.42474 0.0
C446 C 0.57516 0.54271 0.44973 0.0
C447 C 0.60542 0.55106 0.38805 0.0
C448 C 0.60802 0.49625 0.41901 0.0
C449 C 0.63976 0.48303 0.43225 0.0
C450 C 0.64596 0.44945 0.43172 0.0
C451 C 0.61925 0.42895 0.41682 0.0
C452 C 0.58695 0.44216 0.4023 0.0
C453 C 0.58146 0.47627 0.40351 0.0
H454 H 0.67295 0.47992 0.01218 0.0
H455 H 0.69164 0.41262 0.92185 0.0
H456 H 0.66016 0.45002 0.8806 0.0
H457 H 0.5818 0.49686 0.98615 0.0
H458 H 0.58311 0.5388 1.0009 0.0
H459 H 0.61133 0.50895 0.02295 0.0
H460 H 0.66787 0.54394 0.00861 0.0
H461 H 0.63983 0.57387 0.98639 0.0
H462 H 0.67711 0.55567 0.96202 0.0
H463 H 0.62562 0.49361 0.84892 0.0
H464 H 0.58529 0.53798 0.8298 0.0
H465 H 0.58168 0.57409 0.94154 0.0
C466 C 0.67045 0.47264 0.98386 0.0
C467 C 0.68575 0.44306 0.97066 0.0
C468 C 0.6817 0.43536 0.93297 0.0
C469 C 0.6634 0.4564 0.90915 0.0
C470 C 0.64846 0.4849 0.92329 0.0
C471 C 0.65128 0.49287 0.95983 0.0
C472 C 0.63006 0.52366 0.96851 0.0
C473 C 0.59978 0.51664 0.99626 0.0
C474 C 0.65523 0.55089 0.98219 0.0
C475 C 0.61478 0.53163 0.93106 0.0
C476 C 0.62636 0.50919 0.90535 0.0
C477 C 0.61629 0.51129 0.8688 0.0
C478 C 0.5934 0.53674 0.85823 0.0
C479 C 0.58015 0.55959 0.88417 0.0
C480 C 0.59121 0.55699 0.9211 0.0
H481 H 0.36253 0.5843 0.42576 0.0
H482 H 0.3084 0.53235 0.51324 0.0
H483 H 0.33384 0.48044 0.49075 0.0
H484 H 0.35446 0.51713 0.35502 0.0
H485 H 0.39857 0.52615 0.33667 0.0
H486 H 0.37142 0.55834 0.35605 0.0
H487 H 0.42396 0.57316 0.39982 0.0
H488 H 0.45101 0.54077 0.38106 0.0
H489 H 0.44225 0.54224 0.42954 0.0
H490 H 0.3738 0.43636 0.46626 0.0
H491 H 0.41994 0.40171 0.43615 0.0
H492 H 0.44567 0.48094 0.36218 0.0
C493 C 0.35485 0.56179 0.43914 0.0
C494 C 0.33336 0.56224 0.47109 0.0
C495 C 0.32475 0.53244 0.48864 0.0
C496 C 0.33909 0.50286 0.47609 0.0
C497 C 0.36165 0.50335 0.4456 0.0
C498 C 0.36889 0.5319 0.4268 0.0
C499 C 0.39613 0.52598 0.39649 0.0
C500 C 0.37912 0.53227 0.35882 0.0
C501 C 0.43035 0.54677 0.40209 0.0
C502 C 0.40393 0.49001 0.40205 0.0
C503 C 0.38378 0.47742 0.43055 0.0
C504 C 0.38901 0.44567 0.44323 0.0
C505 C 0.41537 0.42624 0.42619 0.0
C506 C 0.43578 0.4385 0.39654 0.0
C507 C 0.42968 0.47069 0.38417 0.0
H508 H 0.84909 0.97301 0.01782 0.0
H509 H 0.82175 0.91001 0.92628 0.0
H510 H 0.84829 0.9499 0.88377 0.0
H511 H 0.83465 0.05107 0.97131 0.0
H512 H 0.87287 0.07031 0.99296 0.0
H513 H 0.84867 0.03836 0.01631 0.0
H514 H 0.90817 1.00576 0.02386 0.0
H515 H 0.93254 0.03767 1.00077 0.0
H516 H 0.93495 0.99637 0.98399 0.0
H517 H 0.88182 0.99388 0.8515 0.0
H518 H 0.92162 0.03872 0.8316 0.0
H519 H 0.92825 0.07368 0.94347 0.0
C520 C 0.84852 0.96762 0.98883 0.0
C521 C 0.83286 0.93837 0.9755 0.0
C522 C 0.83272 0.93246 0.93727 0.0
C523 C 0.84791 0.95494 0.91284 0.0
C524 C 0.86322 0.98333 0.92692 0.0
C525 C 0.86371 0.98978 0.96399 0.0
C526 C 0.88383 0.02126 0.97205 0.0
C527 C 0.85848 0.04676 0.98917 0.0
C528 C 0.91683 0.01487 0.99661 0.0
C529 C 0.89518 0.03113 0.93373 0.0
C530 C 0.8827 0.00897 0.90814 0.0
C531 C 0.89139 0.0116 0.8712 0.0
C532 C 0.91404 0.03713 0.86018 0.0
C533 C 0.92775 0.05982 0.88592 0.0
C534 C 0.91754 0.05712 0.92308 0.0
H535 H 0.17553 0.04472 0.51678 0.0
H536 H 0.17994 0.11685 0.42995 0.0
H537 H 0.149 0.07856 0.38854 0.0
H538 H 0.18752 0.97267 0.45946 0.0
H539 H 0.15584 0.94841 0.48519 0.0
H540 H 0.18088 0.98042 0.50755 0.0
H541 H 0.12104 1.00671 0.52963 0.0
H542 H 0.09585 0.97471 0.50752 0.0
H543 H 0.08665 0.01675 0.4966 0.0
H544 H 0.11481 0.03429 0.35753 0.0
H545 H 0.07772 0.98724 0.33908 0.0
H546 H 0.0937 0.94345 0.44592 0.0
C547 C 0.17 0.05253 0.48907 0.0
C548 C 0.18055 0.08387 0.47664 0.0
C549 C 0.17292 0.09286 0.44002 0.0
C550 C 0.15517 0.0713 0.41629 0.0
C551 C 0.14509 0.04076 0.42947 0.0
C552 C 0.15211 0.03134 0.465 0.0
C553 C 0.13678 0.99767 0.47268 0.0
C554 C 0.16707 0.97336 0.48175 0.0
C555 C 0.10839 0.99906 0.50342 0.0
C556 C 0.11953 0.98989 0.43605 0.0
C557 C 0.12497 0.01506 0.41151 0.0
C558 C 0.11054 0.01435 0.3764 0.0
C559 C 0.08943 0.98751 0.36623 0.0
C560 C 0.08279 0.96163 0.39103 0.0
C561 C 0.09864 0.96263 0.42622 0.0
H562 H 0.16506 0.97157 0.01417 0.0
H563 H 0.18061 0.90328 0.92417 0.0
H564 H 0.14996 0.94127 0.88293 0.0
H565 H 0.07425 0.99145 0.98862 0.0
H566 H 0.07746 0.03342 0.00299 0.0
H567 H 0.10451 1.00275 0.02512 0.0
H568 H 0.16242 0.03564 0.01012 0.0
H569 H 0.13555 0.06637 0.9878 0.0
H570 H 0.17185 0.04671 0.96336 0.0
H571 H 0.11701 0.98563 0.8512 0.0
H572 H 0.07875 0.03131 0.83183 0.0
H573 H 0.0774 0.06848 0.94322 0.0
C574 C 0.162 0.96422 0.98592 0.0
C575 C 0.1762 0.9342 0.97275 0.0
C576 C 0.17148 0.92635 0.9352 0.0
C577 C 0.15366 0.94771 0.9114 0.0
C578 C 0.13989 0.97671 0.92547 0.0
C579 C 0.14333 0.98484 0.96191 0.0
C580 C 0.12351 0.01642 0.97044 0.0
C581 C 0.09313 0.01065 0.99845 0.0
C582 C 0.14992 0.04285 0.98371 0.0
C583 C 0.10834 0.02465 0.93302 0.0
C584 C 0.11872 1.0016 0.90747 0.0
C585 C 0.10859 1.00378 0.87096 0.0
C586 C 0.08686 0.02998 0.86025 0.0
C587 C 0.07486 0.05355 0.886 0.0
C588 C 0.08597 0.05084 0.92292 0.0
H589 H 0.85687 0.0899 0.43111 0.0
H590 H 0.81558 0.03747 0.5252 0.0
H591 H 0.84006 0.98608 0.50025 0.0
H592 H 0.84364 0.02262 0.36252 0.0
H593 H 0.88523 0.03215 0.33916 0.0
H594 H 0.85985 0.06406 0.36142 0.0
H595 H 0.91644 0.07992 0.39914 0.0
H596 H 0.9419 0.04811 0.37709 0.0
H597 H 0.93879 0.04929 0.42628 0.0
H598 H 0.87573 0.94258 0.47059 0.0
H599 H 0.92028 0.90902 0.43718 0.0
H600 H 0.93793 0.98806 0.36065 0.0
C601 C 0.85213 0.06738 0.44579 0.0
C602 C 0.83422 0.0675 0.47997 0.0
C603 C 0.82928 0.0378 0.499 0.0
C604 C 0.8429 0.0085 0.48495 0.0
C605 C 0.86126 0.00924 0.45169 0.0
C606 C 0.86577 0.03781 0.43216 0.0
C607 C 0.88955 0.03223 0.39885 0.0
C608 C 0.86829 0.03811 0.36338 0.0
C609 C 0.92368 0.05365 0.40047 0.0
C610 C 0.89866 0.99638 0.40348 0.0
C611 C 0.88167 0.9836 0.43399 0.0
C612 C 0.8885 0.95202 0.44616 0.0
C613 C 0.91385 0.93318 0.42711 0.0
C614 C 0.93182 0.94582 0.39607 0.0
C615 C 0.92359 0.97756 0.38362 0.0
H616 H 0.31672 0.37244 0.11832 0.0
H617 H 0.40446 0.38563 0.04083 0.0
H618 H 0.44851 0.38284 0.09105 0.0
H619 H 0.35269 0.42054 0.18875 0.0
H620 H 0.33868 0.39475 0.22605 0.0
H621 H 0.31348 0.39478 0.18395 0.0
H622 H 0.32188 0.3323 0.17802 0.0
H623 H 0.3468 0.332 0.22037 0.0
H624 H 0.36676 0.31523 0.17946 0.0
H625 H 0.48231 0.38518 0.1486 0.0
H626 H 0.50556 0.38712 0.21165 0.0
H627 H 0.39778 0.36901 0.25375 0.0
C628 C 0.34526 0.37399 0.11198 0.0
C629 C 0.35719 0.37966 0.07575 0.0
C630 C 0.39472 0.38187 0.06846 0.0
C631 C 0.41996 0.38015 0.09675 0.0
C632 C 0.40737 0.37571 0.13224 0.0
C633 C 0.37105 0.37211 0.14008 0.0
C634 C 0.3651 0.36867 0.18105 0.0
C635 C 0.34107 0.39634 0.19581 0.0
C636 C 0.3492 0.33504 0.19026 0.0
C637 C 0.40365 0.37184 0.19485 0.0
C638 C 0.42743 0.37591 0.16602 0.0
C639 C 0.46412 0.38149 0.17141 0.0
C640 C 0.477 0.38277 0.20727 0.0
C641 C 0.45339 0.37816 0.23726 0.0
C642 C 0.41628 0.37232 0.2311 0.0
H643 H 0.66278 0.58889 0.60061 0.0
H644 H 0.6847 0.6914 0.58019 0.0
H645 H 0.65573 0.70565 0.6387 0.0
H646 H 0.57398 0.60211 0.6378 0.0
H647 H 0.57771 0.56957 0.67067 0.0
H648 H 0.60226 0.56733 0.6282 0.0
H649 H 0.66198 0.55984 0.66425 0.0
H650 H 0.63763 0.56246 0.70686 0.0
H651 H 0.6748 0.58976 0.69802 0.0
H652 H 0.62429 0.70894 0.69964 0.0
H653 H 0.58714 0.70148 0.75516 0.0
H654 H 0.58227 0.59738 0.73372 0.0
C655 C 0.66128 0.61439 0.60812 0.0
C656 C 0.67665 0.63891 0.58574 0.0
C657 C 0.67414 0.67196 0.59711 0.0
C658 C 0.65752 0.68038 0.63029 0.0
C659 C 0.64309 0.65558 0.65175 0.0
C660 C 0.64434 0.62331 0.6409 0.0
C661 C 0.62512 0.60152 0.66811 0.0
C662 C 0.59285 0.58412 0.65012 0.0
C663 C 0.65147 0.57695 0.68533 0.0
C664 C 0.61273 0.62662 0.69584 0.0
C665 C 0.62379 0.6576 0.68617 0.0
C666 C 0.61542 0.68479 0.70748 0.0
C667 C 0.59444 0.68028 0.73908 0.0
C668 C 0.58169 0.64887 0.74878 0.0
C669 C 0.59154 0.62172 0.72705 0.0
H670 H 0.66182 0.35308 0.0882 0.0
H671 H 0.72878 0.43734 0.11047 0.0
H672 H 0.70177 0.44205 0.17235 0.0
H673 H 0.58387 0.38415 0.12885 0.0
H674 H 0.56809 0.34593 0.14715 0.0
H675 H 0.59612 0.34632 0.10692 0.0
H676 H 0.64207 0.30786 0.13852 0.0
H677 H 0.61393 0.30705 0.17877 0.0
H678 H 0.66065 0.31906 0.18235 0.0
H679 H 0.66304 0.44067 0.22916 0.0
H680 H 0.61647 0.43279 0.27692 0.0
H681 H 0.5743 0.34973 0.21673 0.0
C682 C 0.67153 0.37177 0.10671 0.0
C683 C 0.69788 0.3944 0.09532 0.0
C684 C 0.70911 0.41945 0.11935 0.0
C685 C 0.69386 0.42232 0.15437 0.0
C686 C 0.6673 0.40002 0.16468 0.0
C687 C 0.65634 0.37511 0.14161 0.0
C688 C 0.62527 0.35605 0.15802 0.0
C689 C 0.59135 0.35826 0.13379 0.0
C690 C 0.63614 0.32039 0.16483 0.0
C691 C 0.62014 0.37435 0.19364 0.0
C692 C 0.64471 0.39953 0.19711 0.0
C693 C 0.64393 0.42079 0.22693 0.0
C694 C 0.6173 0.4162 0.25385 0.0
C695 C 0.59177 0.39061 0.25069 0.0
C696 C 0.59359 0.36935 0.22024 0.0
H697 H 0.3797 0.66707 0.57731 0.0
H698 H 0.30506 0.58842 0.60097 0.0
H699 H 0.32583 0.58758 0.66519 0.0
H700 H 0.45129 0.63555 0.628 0.0
H701 H 0.46807 0.67415 0.64442 0.0
H702 H 0.44373 0.67219 0.6019 0.0
H703 H 0.39822 0.71524 0.62588 0.0
H704 H 0.42254 0.71739 0.66854 0.0
H705 H 0.3749 0.7082 0.66847 0.0
H706 H 0.35842 0.59097 0.72391 0.0
H707 H 0.40215 0.59734 0.77413 0.0
H708 H 0.4571 0.67353 0.71332 0.0
C709 C 0.36718 0.65036 0.59642 0.0
C710 C 0.34055 0.62804 0.58466 0.0
C711 C 0.32534 0.60578 0.60982 0.0
C712 C 0.33685 0.60525 0.64626 0.0
C713 C 0.36366 0.62709 0.65699 0.0
C714 C 0.3787 0.64927 0.63292 0.0
C715 C 0.40957 0.66778 0.65071 0.0
C716 C 0.44527 0.66206 0.63003 0.0
C717 C 0.40077 0.70432 0.65357 0.0
C718 C 0.41011 0.65188 0.68814 0.0
C719 C 0.38304 0.6288 0.69121 0.0
C720 C 0.37942 0.60927 0.72208 0.0
C721 C 0.40449 0.61298 0.75038 0.0
C722 C 0.43291 0.63599 0.74764 0.0
C723 C 0.43528 0.65615 0.7164 0.0
H724 H 0.85763 0.92463 0.1058 0.0
H725 H 0.83126 0.82234 0.08975 0.0
H726 H 0.8615 0.80887 0.14769 0.0
H727 H 0.94683 0.90996 0.14112 0.0
H728 H 0.94509 0.9434 0.17313 0.0
H729 H 0.9195 0.94528 0.13132 0.0
H730 H 0.86101 0.95533 0.16873 0.0
H731 H 0.8864 0.95319 0.21069 0.0
H732 H 0.84813 0.92669 0.20378 0.0
H733 H 0.89502 0.80618 0.20741 0.0
H734 H 0.93339 0.81409 0.26195 0.0
H735 H 0.94067 0.91752 0.23753 0.0
C736 C 0.85833 0.89935 0.11426 0.0
C737 C 0.8414 0.87469 0.09322 0.0
C738 C 0.84301 0.84193 0.10566 0.0
C739 C 0.86037 0.83393 0.13852 0.0
C740 C 0.87641 0.85885 0.15864 0.0
C741 C 0.8759 0.89084 0.14683 0.0
C742 C 0.89657 0.91277 0.17285 0.0
C743 C 0.92892 0.92879 0.15344 0.0
C744 C 0.87152 0.93851 0.19002 0.0
C745 C 0.90887 0.88806 0.20101 0.0
C746 C 0.89666 0.85715 0.19251 0.0
C747 C 0.90477 0.83029 0.21435 0.0
C748 C 0.9265 0.83505 0.24536 0.0
C749 C 0.94017 0.8664 0.25407 0.0
C750 C 0.93073 0.89323 0.2317 0.0
H751 H 0.16658 0.17915 0.5999 0.0
H752 H 0.21631 0.08407 0.6109 0.0
H753 H 0.19005 0.07846 0.67273 0.0
H754 H 0.17339 0.20366 0.6993 0.0
H755 H 0.12978 0.22322 0.69852 0.0
H756 H 0.15726 0.2223 0.65777 0.0
H757 H 0.10454 0.19548 0.62216 0.0
H758 H 0.07704 0.19612 0.66275 0.0
H759 H 0.08493 0.15818 0.63911 0.0
H760 H 0.15133 0.07897 0.72781 0.0
H761 H 0.10404 0.08665 0.77479 0.0
H762 H 0.07978 0.18218 0.73066 0.0
C763 C 0.17293 0.1578 0.61606 0.0
C764 C 0.19397 0.13225 0.60121 0.0
C765 C 0.20071 0.10402 0.62227 0.0
C766 C 0.18591 0.10066 0.65733 0.0
C767 C 0.16444 0.12581 0.67097 0.0
C768 C 0.15816 0.15401 0.65124 0.0
C769 C 0.13124 0.17583 0.67095 0.0
C770 C 0.14899 0.20817 0.68232 0.0
C771 C 0.09745 0.18173 0.64733 0.0
C772 C 0.12251 0.15499 0.70411 0.0
C773 C 0.14223 0.12633 0.70359 0.0
C774 C 0.13641 0.10165 0.72909 0.0
C775 C 0.10949 0.10615 0.75557 0.0
C776 C 0.08901 0.13522 0.75666 0.0
C777 C 0.09599 0.16019 0.73102 0.0
H778 H 0.15509 0.84355 0.09309 0.0
H779 H 0.21995 0.93011 0.11028 0.0
H780 H 0.19535 0.93544 0.17301 0.0
H781 H 0.07793 0.87319 0.13555 0.0
H782 H 0.06407 0.83519 0.15593 0.0
H783 H 0.09079 0.835 0.1148 0.0
H784 H 0.13893 0.79888 0.14644 0.0
H785 H 0.11216 0.79873 0.18767 0.0
H786 H 0.15856 0.81207 0.18909 0.0
H787 H 0.15884 0.93517 0.23017 0.0
H788 H 0.11329 0.92909 0.27895 0.0
H789 H 0.07125 0.84265 0.22501 0.0
C790 C 0.16488 0.8629 0.11068 0.0
C791 C 0.18988 0.88608 0.09757 0.0
C792 C 0.20127 0.91189 0.12044 0.0
C793 C 0.18744 0.91507 0.15595 0.0
C794 C 0.16218 0.89225 0.16798 0.0
C795 C 0.15109 0.86654 0.14617 0.0
C796 C 0.12117 0.84724 0.16447 0.0
C797 C 0.08645 0.8477 0.1413 0.0
C798 C 0.13345 0.81215 0.17239 0.0
C799 C 0.11657 0.86659 0.19951 0.0
C800 C 0.14072 0.89227 0.20108 0.0
C801 C 0.14014 0.91488 0.22954 0.0
C802 C 0.11404 0.91131 0.25702 0.0
C803 C 0.0888 0.88534 0.25587 0.0
C804 C 0.09051 0.86246 0.22694 0.0
H805 H 0.88449 0.16187 0.57554 0.0
H806 H 0.78649 0.11459 0.61257 0.0
H807 H 0.80953 0.11508 0.6762 0.0
H808 H 0.9438 0.11869 0.63002 0.0
H809 H 0.97396 0.15208 0.63988 0.0
H810 H 0.94792 0.15216 0.59836 0.0
H811 H 0.92076 0.20838 0.61549 0.0
H812 H 0.94703 0.20862 0.657 0.0
H813 H 0.89866 0.21356 0.65909 0.0
H814 H 0.84667 0.11331 0.73312 0.0
H815 H 0.8937 0.1131 0.78112 0.0
H816 H 0.96683 0.16414 0.70826 0.0
C817 C 0.86756 0.15267 0.5974 0.0
C818 C 0.83356 0.13873 0.58974 0.0
C819 C 0.81233 0.12588 0.61841 0.0
C820 C 0.82524 0.12601 0.65445 0.0
C821 C 0.85928 0.13932 0.66118 0.0
C822 C 0.87998 0.15286 0.63357 0.0
C823 C 0.91661 0.16358 0.64774 0.0
C824 C 0.94737 0.14554 0.62781 0.0
C825 C 0.92101 0.20075 0.64465 0.0
C826 C 0.91373 0.153 0.68732 0.0
C827 C 0.88041 0.13909 0.69448 0.0
C828 C 0.87253 0.1248 0.72811 0.0
C829 C 0.89941 0.12463 0.75509 0.0
C830 C 0.93356 0.13896 0.74841 0.0
C831 C 0.9406 0.15372 0.71428 0.0
loop_
_geom_bond_atom_site_label_1
_geom_bond_atom_site_label_2
_geom_bond_distance
_geom_bond_site_symmetry_2
_ccdc_geom_bond_type
H0 C5 0.930 . S
H1 C8 0.930 . S
H2 C10 0.930 . S
H3 C4 1.016 . S
C4 H3 1.016 . S
C4 N11 1.286 . S
C5 H0 0.930 . S
C5 C6 1.397 . S
C5 C7 1.361 . S
C6 C5 1.397 . S
C6 C10 1.390 . S
C7 C5 1.361 . S
C7 C8 1.393 1_554 S
C7 N11 1.413 1_554 S
C8 H1 0.930 . S
C8 C7 1.393 1_556 S
C8 C9 1.399 . S
C9 C8 1.399 . S
C9 C10 1.381 1_556 S
C10 H2 0.930 . S
C10 C6 1.390 . S
C10 C9 1.381 1_554 S
N11 C4 1.286 . S
N11 C7 1.413 1_556 S
H12 C17 0.930 . S
H13 C20 0.930 . S
H14 C22 0.930 . S
H15 C16 1.016 . S
C16 H15 1.016 . S
C16 N23 1.286 . S
C17 H12 0.930 . S
C17 C18 1.397 . S
C17 C19 1.361 . S
C18 C17 1.397 . S
C18 C22 1.390 . S
C19 C17 1.361 . S
C19 C20 1.393 . S
C19 N23 1.413 . S
C20 H13 0.930 . S
C20 C19 1.393 . S
C20 C21 1.399 . S
C21 C20 1.399 . S
C21 C22 1.381 . S
C22 H14 0.930 . S
C22 C18 1.390 . S
C22 C21 1.381 . S
N23 C16 1.286 . S
N23 C19 1.413 . S
H24 C29 0.930 . S
H25 C32 0.930 . S
H26 C34 0.930 . S
H27 C28 1.016 . S
C28 H27 1.016 . S
C28 N35 1.286 1_556 S
C29 H24 0.930 . S
C29 C30 1.397 . S
C29 C31 1.361 . S
C30 C29 1.397 . S
C30 C34 1.390 . S
C31 C29 1.361 . S
C31 C32 1.393 1_554 S
C31 N35 1.413 . S
C32 H25 0.930 . S
C32 C31 1.393 1_556 S
C32 C33 1.399 . S
C33 C32 1.399 . S
C33 C34 1.381 1_556 S
C34 H26 0.930 . S
C34 C30 1.390 . S
C34 C33 1.381 1_554 S
N35 C28 1.286 1_554 S
N35 C31 1.413 . S
H36 C41 0.930 . S
H37 C44 0.930 . S
H38 C46 0.930 . S
H39 C40 1.016 . S
C40 H39 1.016 . S
C40 N47 1.286 . S
C41 H36 0.930 . S
C41 C42 1.397 . S
C41 C43 1.361 . S
C42 C41 1.397 . S
C42 C46 1.390 . S
C43 C41 1.361 . S
C43 C44 1.393 . S
C43 N47 1.413 . S
C44 H37 0.930 . S
C44 C43 1.393 . S
C44 C45 1.399 . S
C45 C44 1.399 . S
C45 C46 1.381 . S
C46 H38 0.930 . S
C46 C42 1.390 . S
C46 C45 1.381 . S
N47 C40 1.286 . S
N47 C43 1.413 . S
H48 C53 0.930 . S
H49 C56 0.930 . S
H50 C58 0.930 . S
H51 C52 1.016 . S
C52 H51 1.016 . S
C52 N59 1.286 . S
C53 H48 0.930 . S
C53 C54 1.397 . S
C53 C55 1.361 . S
C54 C53 1.397 . S
C54 C58 1.390 . S
C55 C53 1.361 . S
C55 C56 1.393 1_554 S
C55 N59 1.413 1_554 S
C56 H49 0.930 . S
C56 C55 1.393 1_556 S
C56 C57 1.399 . S
C57 C56 1.399 . S
C57 C58 1.381 1_556 S
C58 H50 0.930 . S
C58 C54 1.390 . S
C58 C57 1.381 1_554 S
N59 C52 1.286 . S
N59 C55 1.413 1_556 S
H60 C65 0.930 . S
H61 C68 0.930 . S
H62 C70 0.930 . S
H63 C64 1.016 . S
C64 H63 1.016 . S
C64 N71 1.286 . S
C65 H60 0.930 . S
C65 C66 1.397 . S
C65 C67 1.361 . S
C66 C65 1.397 . S
C66 C70 1.390 . S
C67 C65 1.361 . S
C67 C68 1.393 . S
C67 N71 1.413 . S
C68 H61 0.930 . S
C68 C67 1.393 . S
C68 C69 1.399 . S
C69 C68 1.399 . S
C69 C70 1.381 . S
C70 H62 0.930 . S
C70 C66 1.390 . S
C70 C69 1.381 . S
N71 C64 1.286 . S
N71 C67 1.413 . S
H72 C77 0.930 . S
H73 C80 0.930 . S
H74 C82 0.930 . S
H75 C76 1.016 . S
C76 H75 1.016 . S
C76 N83 1.286 1_556 S
C77 H72 0.930 . S
C77 C78 1.397 . S
C77 C79 1.361 . S
C78 C77 1.397 . S
C78 C82 1.390 . S
C79 C77 1.361 . S
C79 C80 1.393 1_554 S
C79 N83 1.413 . S
C80 H73 0.930 . S
C80 C79 1.393 1_556 S
C80 C81 1.399 . S
C81 C80 1.399 . S
C81 C82 1.381 1_556 S
C82 H74 0.930 . S
C82 C78 1.390 . S
C82 C81 1.381 1_554 S
N83 C76 1.286 1_554 S
N83 C79 1.413 . S
H84 C89 0.930 . S
H85 C92 0.930 . S
H86 C94 0.930 . S
H87 C88 1.016 . S
C88 H87 1.016 . S
C88 N95 1.286 . S
C89 H84 0.930 . S
C89 C90 1.397 . S
C89 C91 1.361 . S
C90 C89 1.397 . S
C90 C94 1.390 . S
C91 C89 1.361 . S
C91 C92 1.393 . S
C91 N95 1.413 . S
C92 H85 0.930 . S
C92 C91 1.393 . S
C92 C93 1.399 . S
C93 C92 1.399 . S
C93 C94 1.381 . S
C94 H86 0.930 . S
C94 C90 1.390 . S
C94 C93 1.381 . S
N95 C88 1.286 . S
N95 C91 1.413 . S
Fe96 O98 1.918 . S
Fe96 O101 1.997 1_455 S
Fe96 O102 2.002 1_455 S
Fe96 O107 1.976 . S
Fe96 O110 1.996 . S
Fe97 O98 1.918 . S
Fe97 O105 1.997 1_455 S
Fe97 O108 1.996 . S
Fe97 O112 1.976 . S
Fe97 O115 2.002 1_455 S
O98 Fe96 1.918 . S
O98 Fe97 1.918 . S
O98 Fe99 1.918 . S
Fe99 O98 1.918 . S
Fe99 O100 2.002 1_455 S
Fe99 O109 1.976 . S
Fe99 O113 1.996 . S
Fe99 O116 1.997 1_455 S
O100 Fe99 2.002 1_655 S
O100 C117 1.295 . S
O101 Fe96 1.997 1_655 S
O101 C117 1.235 . S
O102 Fe96 2.002 1_655 S
O102 C103 1.295 . S
C103 O102 1.295 . S
C103 O105 1.235 . S
C104 O109 1.287 . S
C104 O110 1.255 . S
O105 Fe97 1.997 1_655 S
O105 C103 1.235 . S
C106 O112 1.287 . S
C106 O113 1.255 . S
O107 Fe96 1.976 . S
O107 C114 1.287 . S
O108 Fe97 1.996 . S
O108 C114 1.255 . S
O109 Fe99 1.976 . S
O109 C104 1.287 . S
O110 Fe96 1.996 . S
O110 C104 1.255 . S
C111 O115 1.295 . S
C111 O116 1.235 . S
O112 Fe97 1.976 . S
O112 C106 1.287 . S
O113 Fe99 1.996 . S
O113 C106 1.255 . S
C114 O107 1.287 . S
C114 O108 1.255 . S
O115 Fe97 2.002 1_655 S
O115 C111 1.295 . S
O116 Fe99 1.997 1_655 S
O116 C111 1.235 . S
C117 O100 1.295 . S
C117 O101 1.235 . S
Fe118 O120 1.919 . S
Fe118 O123 1.976 1_655 S
Fe118 O124 1.981 1_655 S
Fe118 O129 1.997 . S
Fe118 O132 2.016 . S
Fe119 O120 1.919 . S
Fe119 O127 1.976 1_655 S
Fe119 O130 2.016 . S
Fe119 O134 1.997 . S
Fe119 O137 1.981 1_655 S
O120 Fe118 1.919 . S
O120 Fe119 1.919 . S
O120 Fe121 1.919 . S
Fe121 O120 1.919 . S
Fe121 O122 1.981 1_655 S
Fe121 O131 1.997 . S
Fe121 O135 2.017 . S
Fe121 O138 1.975 1_655 S
O122 Fe121 1.981 1_455 S
O122 C139 1.295 . S
O123 Fe118 1.976 1_455 S
O123 C139 1.235 . S
O124 Fe118 1.981 1_455 S
O124 C125 1.295 . S
C125 O124 1.295 . S
C125 O127 1.235 . S
C126 O131 1.287 . S
C126 O132 1.255 . S
O127 Fe119 1.976 1_455 S
O127 C125 1.235 . S
C128 O134 1.287 . S
C128 O135 1.255 . S
O129 Fe118 1.997 . S
O129 C136 1.287 . S
O130 Fe119 2.016 . S
O130 C136 1.255 . S
O131 Fe121 1.997 . S
O131 C126 1.287 . S
O132 Fe118 2.016 . S
O132 C126 1.255 . S
C133 O137 1.295 . S
C133 O138 1.235 . S
O134 Fe119 1.997 . S
O134 C128 1.287 . S
O135 Fe121 2.017 . S
O135 C128 1.255 . S
C136 O129 1.287 . S
C136 O130 1.255 . S
O137 Fe119 1.981 1_455 S
O137 C133 1.295 . S
O138 Fe121 1.975 1_455 S
O138 C133 1.235 . S
C139 O122 1.295 . S
C139 O123 1.235 . S
Fe140 O142 1.918 . S
Fe140 O145 1.997 . S
Fe140 O146 2.002 . S
Fe140 O151 1.976 . S
Fe140 O154 1.996 . S
Fe141 O142 1.918 . S
Fe141 O149 1.997 . S
Fe141 O152 1.996 . S
Fe141 O156 1.976 . S
Fe141 O159 2.002 . S
O142 Fe140 1.918 . S
O142 Fe141 1.918 . S
O142 Fe143 1.918 . S
Fe143 O142 1.918 . S
Fe143 O144 2.002 . S
Fe143 O153 1.976 . S
Fe143 O157 1.996 . S
Fe143 O160 1.997 . S
O144 Fe143 2.002 . S
O144 C161 1.295 . S
O145 Fe140 1.997 . S
O145 C161 1.235 . S
O146 Fe140 2.002 . S
O146 C147 1.295 . S
C147 O146 1.295 . S
C147 O149 1.235 . S
C148 O153 1.287 . S
C148 O154 1.255 . S
O149 Fe141 1.997 . S
O149 C147 1.235 . S
C150 O156 1.287 . S
C150 O157 1.255 . S
O151 Fe140 1.976 . S
O151 C158 1.287 . S
O152 Fe141 1.996 . S
O152 C158 1.255 . S
O153 Fe143 1.976 . S
O153 C148 1.287 . S
O154 Fe140 1.996 . S
O154 C148 1.255 . S
C155 O159 1.295 . S
C155 O160 1.235 . S
O156 Fe141 1.976 . S
O156 C150 1.287 . S
O157 Fe143 1.996 . S
O157 C150 1.255 . S
C158 O151 1.287 . S
C158 O152 1.255 . S
O159 Fe141 2.002 . S
O159 C155 1.295 . S
O160 Fe143 1.997 . S
O160 C155 1.235 . S
C161 O144 1.295 . S
C161 O145 1.235 . S
Fe162 O164 1.918 . S
Fe162 O167 1.997 . S
Fe162 O168 2.002 . S
Fe162 O173 1.976 . S
Fe162 O176 1.996 . S
Fe163 O164 1.918 . S
Fe163 O171 1.997 . S
Fe163 O174 1.996 . S
Fe163 O178 1.976 . S
Fe163 O181 2.002 . S
O164 Fe162 1.918 . S
O164 Fe163 1.918 . S
O164 Fe165 1.918 . S
Fe165 O164 1.918 . S
Fe165 O166 2.002 . S
Fe165 O175 1.976 . S
Fe165 O179 1.996 . S
Fe165 O182 1.997 . S
O166 Fe165 2.002 . S
O166 C183 1.295 . S
O167 Fe162 1.997 . S
O167 C183 1.235 . S
O168 Fe162 2.002 . S
O168 C169 1.295 . S
C169 O168 1.295 . S
C169 O171 1.235 . S
C170 O175 1.287 . S
C170 O176 1.255 . S
O171 Fe163 1.997 . S
O171 C169 1.235 . S
C172 O178 1.287 . S
C172 O179 1.255 . S
O173 Fe162 1.976 . S
O173 C180 1.287 . S
O174 Fe163 1.996 . S
O174 C180 1.255 . S
O175 Fe165 1.976 . S
O175 C170 1.287 . S
O176 Fe162 1.996 . S
O176 C170 1.255 . S
C177 O181 1.295 . S
C177 O182 1.235 . S
O178 Fe163 1.976 . S
O178 C172 1.287 . S
O179 Fe165 1.996 . S
O179 C172 1.255 . S
C180 O173 1.287 . S
C180 O174 1.255 . S
O181 Fe163 2.002 . S
O181 C177 1.295 . S
O182 Fe165 1.997 . S
O182 C177 1.235 . S
C183 O166 1.295 . S
C183 O167 1.235 . S
H184 C196 0.930 . S
H185 C198 0.930 . S
H186 C199 0.930 . S
H187 C203 0.959 . S
H188 C203 0.959 . S
H189 C203 0.961 . S
H190 C204 0.960 . S
H191 C204 0.961 . S
H192 C204 0.959 . S
H193 C207 0.929 . S
H194 C208 0.931 . S
H195 C210 0.930 . S
C196 H184 0.930 . S
C196 C197 1.399 . S
C196 C201 1.399 . S
C197 C196 1.399 . S
C197 C198 1.376 . S
C198 H185 0.930 . S
C198 C197 1.376 . S
C198 C199 1.388 . S
C199 H186 0.930 . S
C199 C198 1.388 . S
C199 C200 1.390 . S
C200 C199 1.390 . S
C200 C201 1.394 . S
C200 C206 1.465 . S
C201 C196 1.399 . S
C201 C200 1.394 . S
C201 C202 1.516 . S
C202 C201 1.516 . S
C202 C203 1.502 . S
C202 C204 1.561 . S
C202 C205 1.526 . S
C203 H187 0.959 . S
C203 H188 0.959 . S
C203 H189 0.961 . S
C203 C202 1.502 . S
C204 H190 0.960 . S
C204 H191 0.961 . S
C204 H192 0.959 . S
C204 C202 1.561 . S
C205 C202 1.526 . S
C205 C206 1.396 . S
C205 C210 1.390 . S
C206 C200 1.465 . S
C206 C205 1.396 . S
C206 C207 1.399 . S
C207 H193 0.929 . S
C207 C206 1.399 . S
C207 C208 1.385 . S
C208 H194 0.931 . S
C208 C207 1.385 . S
C208 C209 1.389 . S
C209 C208 1.389 . S
C209 C210 1.387 . S
C210 H195 0.930 . S
C210 C205 1.390 . S
C210 C209 1.387 . S
H211 C223 0.930 . S
H212 C225 0.930 . S
H213 C226 0.930 . S
H214 C230 0.959 . S
H215 C230 0.959 . S
H216 C230 0.961 . S
H217 C231 0.960 . S
H218 C231 0.961 . S
H219 C231 0.959 . S
H220 C234 0.929 . S
H221 C235 0.931 . S
H222 C237 0.930 . S
C223 H211 0.930 . S
C223 C224 1.399 . S
C223 C228 1.399 . S
C224 C223 1.399 . S
C224 C225 1.376 . S
C225 H212 0.930 . S
C225 C224 1.376 . S
C225 C226 1.388 . S
C226 H213 0.930 . S
C226 C225 1.388 . S
C226 C227 1.390 . S
C227 C226 1.390 . S
C227 C228 1.394 . S
C227 C233 1.465 . S
C228 C223 1.399 . S
C228 C227 1.394 . S
C228 C229 1.516 . S
C229 C228 1.516 . S
C229 C230 1.502 . S
C229 C231 1.561 . S
C229 C232 1.526 . S
C230 H214 0.959 . S
C230 H215 0.959 . S
C230 H216 0.961 . S
C230 C229 1.502 . S
C231 H217 0.960 . S
C231 H218 0.961 . S
C231 H219 0.959 . S
C231 C229 1.561 . S
C232 C229 1.526 . S
C232 C233 1.396 . S
C232 C237 1.390 . S
C233 C227 1.465 . S
C233 C232 1.396 . S
C233 C234 1.399 . S
C234 H220 0.929 . S
C234 C233 1.399 . S
C234 C235 1.385 . S
C235 H221 0.931 . S
C235 C234 1.385 . S
C235 C236 1.389 . S
C236 C235 1.389 . S
C236 C237 1.387 . S
C237 H222 0.930 . S
C237 C232 1.390 . S
C237 C236 1.387 . S
H238 C250 0.930 . S
H239 C252 0.930 . S
H240 C253 0.930 . S
H241 C257 0.959 . S
H242 C257 0.959 . S
H243 C257 0.950 1_554 S
H244 C258 0.960 . S
H245 C258 0.961 . S
H246 C258 0.959 . S
H247 C261 0.929 . S
H248 C262 0.931 . S
H249 C264 0.930 . S
C250 H238 0.930 . S
C250 C251 1.399 . S
C250 C255 1.399 . S
C251 C250 1.399 . S
C251 C252 1.376 . S
C252 H239 0.930 . S
C252 C251 1.376 . S
C252 C253 1.388 . S
C253 H240 0.930 . S
C253 C252 1.388 . S
C253 C254 1.390 . S
C254 C253 1.390 . S
C254 C255 1.394 . S
C254 C260 1.465 . S
C255 C250 1.399 . S
C255 C254 1.394 . S
C255 C256 1.516 . S
C256 C255 1.516 . S
C256 C257 1.502 . S
C256 C258 1.561 . S
C256 C259 1.526 . S
C257 H241 0.959 . S
C257 H242 0.959 . S
C257 H243 0.950 1_556 S
C257 C256 1.502 . S
C258 H244 0.960 . S
C258 H245 0.961 . S
C258 H246 0.959 . S
C258 C256 1.561 . S
C259 C256 1.526 . S
C259 C260 1.396 . S
C259 C264 1.390 . S
C260 C254 1.465 . S
C260 C259 1.396 . S
C260 C261 1.399 . S
C261 H247 0.929 . S
C261 C260 1.399 . S
C261 C262 1.385 . S
C262 H248 0.931 . S
C262 C261 1.385 . S
C262 C263 1.389 . S
C263 C262 1.389 . S
C263 C264 1.387 . S
C264 H249 0.930 . S
C264 C259 1.390 . S
C264 C263 1.387 . S
H265 C277 0.930 . S
H266 C279 0.930 . S
H267 C280 0.930 . S
H268 C284 0.959 . S
H269 C284 0.959 . S
H270 C284 0.961 . S
H271 C285 0.960 . S
H272 C285 0.961 . S
H273 C285 0.959 . S
H274 C288 0.929 . S
H275 C289 0.931 . S
H276 C291 0.930 . S
C277 H265 0.930 . S
C277 C278 1.399 . S
C277 C282 1.399 . S
C278 C277 1.399 . S
C278 C279 1.376 . S
C279 H266 0.930 . S
C279 C278 1.376 . S
C279 C280 1.388 . S
C280 H267 0.930 . S
C280 C279 1.388 . S
C280 C281 1.390 . S
C281 C280 1.390 . S
C281 C282 1.394 . S
C281 C287 1.465 . S
C282 C277 1.399 . S
C282 C281 1.394 . S
C282 C283 1.516 . S
C283 C282 1.516 . S
C283 C284 1.502 . S
C283 C285 1.561 . S
C283 C286 1.526 . S
C284 H268 0.959 . S
C284 H269 0.959 . S
C284 H270 0.961 . S
C284 C283 1.502 . S
C285 H271 0.960 . S
C285 H272 0.961 . S
C285 H273 0.959 . S
C285 C283 1.561 . S
C286 C283 1.526 . S
C286 C287 1.396 . S
C286 C291 1.390 . S
C287 C281 1.465 . S
C287 C286 1.396 . S
C287 C288 1.399 . S
C288 H274 0.929 . S
C288 C287 1.399 . S
C288 C289 1.385 . S
C289 H275 0.931 . S
C289 C288 1.385 . S
C289 C290 1.389 . S
C290 C289 1.389 . S
C290 C291 1.387 . S
C291 H276 0.930 . S
C291 C286 1.390 . S
C291 C290 1.387 . S
H292 C304 0.930 . S
H293 C306 0.930 1_554 S
H294 C307 0.938 . S
H295 C311 0.959 . S
H296 C311 0.959 . S
H297 C311 0.961 . S
H298 C312 0.960 . S
H299 C312 0.961 . S
H300 C312 0.959 . S
H301 C315 0.929 . S
H302 C316 0.931 . S
H303 C318 0.930 . S
C304 H292 0.930 . S
C304 C305 1.399 . S
C304 C309 1.399 . S
C305 C304 1.399 . S
C305 C306 1.376 . S
C306 H293 0.930 1_556 S
C306 C305 1.376 . S
C306 C307 1.388 . S
C307 H294 0.938 . S
C307 C306 1.388 . S
C307 C308 1.390 . S
C308 C307 1.390 . S
C308 C309 1.394 . S
C308 C314 1.465 . S
C309 C304 1.399 . S
C309 C308 1.394 . S
C309 C310 1.516 . S
C310 C309 1.516 . S
C310 C311 1.502 . S
C310 C312 1.561 . S
C310 C313 1.526 . S
C311 H295 0.959 . S
C311 H296 0.959 . S
C311 H297 0.961 . S
C311 C310 1.502 . S
C312 H298 0.960 . S
C312 H299 0.961 . S
C312 H300 0.959 . S
C312 C310 1.561 . S
C313 C310 1.526 . S
C313 C314 1.396 . S
C313 C318 1.390 . S
C314 C308 1.465 . S
C314 C313 1.396 . S
C314 C315 1.399 . S
C315 H301 0.929 . S
C315 C314 1.399 . S
C315 C316 1.385 . S
C316 H302 0.931 . S
C316 C315 1.385 . S
C316 C317 1.389 . S
C317 C316 1.389 . S
C317 C318 1.387 . S
C318 H303 0.930 . S
C318 C313 1.390 . S
C318 C317 1.387 . S
H319 C331 0.930 . S
H320 C333 0.930 . S
H321 C334 0.930 . S
H322 C338 0.959 . S
H323 C338 0.959 . S
H324 C338 0.961 . S
H325 C339 0.960 . S
H326 C339 0.961 . S
H327 C339 0.959 . S
H328 C342 0.929 . S
H329 C343 0.931 . S
H330 C345 0.930 . S
C331 H319 0.930 . S
C331 C332 1.399 . S
C331 C336 1.399 . S
C332 C331 1.399 . S
C332 C333 1.376 . S
C333 H320 0.930 . S
C333 C332 1.376 . S
C333 C334 1.388 . S
C334 H321 0.930 . S
C334 C333 1.388 . S
C334 C335 1.390 . S
C335 C334 1.390 . S
C335 C336 1.394 . S
C335 C341 1.465 . S
C336 C331 1.399 . S
C336 C335 1.394 . S
C336 C337 1.516 . S
C337 C336 1.516 . S
C337 C338 1.502 . S
C337 C339 1.561 . S
C337 C340 1.526 . S
C338 H322 0.959 . S
C338 H323 0.959 . S
C338 H324 0.961 . S
C338 C337 1.502 . S
C339 H325 0.960 . S
C339 H326 0.961 . S
C339 H327 0.959 . S
C339 C337 1.561 . S
C340 C337 1.526 . S
C340 C341 1.396 . S
C340 C345 1.390 . S
C341 C335 1.465 . S
C341 C340 1.396 . S
C341 C342 1.399 . S
C342 H328 0.929 . S
C342 C341 1.399 . S
C342 C343 1.385 . S
C343 H329 0.931 . S
C343 C342 1.385 . S
C343 C344 1.389 . S
C344 C343 1.389 . S
C344 C345 1.387 . S
C345 H330 0.930 . S
C345 C340 1.390 . S
C345 C344 1.387 . S
H346 C358 0.930 . S
H347 C360 0.930 . S
H348 C361 0.930 . S
H349 C365 0.959 . S
H350 C365 0.959 . S
H351 C365 0.961 1_554 S
H352 C366 0.960 . S
H353 C366 0.961 . S
H354 C366 0.959 . S
H355 C369 0.929 . S
H356 C370 0.931 . S
H357 C372 0.930 . S
C358 H346 0.930 . S
C358 C359 1.399 . S
C358 C363 1.399 . S
C359 C358 1.399 . S
C359 C360 1.376 . S
C360 H347 0.930 . S
C360 C359 1.376 . S
C360 C361 1.388 . S
C361 H348 0.930 . S
C361 C360 1.388 . S
C361 C362 1.390 . S
C362 C361 1.390 . S
C362 C363 1.394 . S
C362 C368 1.465 . S
C363 C358 1.399 . S
C363 C362 1.394 . S
C363 C364 1.516 . S
C364 C363 1.516 . S
C364 C365 1.502 . S
C364 C366 1.561 . S
C364 C367 1.526 . S
C365 H349 0.959 . S
C365 H350 0.959 . S
C365 H351 0.961 1_556 S
C365 C364 1.502 . S
C366 H352 0.960 . S
C366 H353 0.961 . S
C366 H354 0.959 . S
C366 C364 1.561 . S
C367 C364 1.526 . S
C367 C368 1.396 . S
C367 C372 1.390 . S
C368 C362 1.465 . S
C368 C367 1.396 . S
C368 C369 1.399 . S
C369 H355 0.929 . S
C369 C368 1.399 . S
C369 C370 1.385 . S
C370 H356 0.931 . S
C370 C369 1.385 . S
C370 C371 1.389 . S
C371 C370 1.389 . S
C371 C372 1.387 . S
C372 H357 0.930 . S
C372 C367 1.390 . S
C372 C371 1.387 . S
H373 C385 0.930 . S
H374 C387 0.930 . S
H375 C388 0.930 . S
H376 C392 0.959 . S
H377 C392 0.959 . S
H378 C392 0.961 . S
H379 C393 0.960 . S
H380 C393 0.961 . S
H381 C393 0.959 . S
H382 C396 0.929 . S
H383 C397 0.931 . S
H384 C399 0.930 . S
C385 H373 0.930 . S
C385 C386 1.399 . S
C385 C390 1.399 . S
C386 C385 1.399 . S
C386 C387 1.376 . S
C387 H374 0.930 . S
C387 C386 1.376 . S
C387 C388 1.388 . S
C388 H375 0.930 . S
C388 C387 1.388 . S
C388 C389 1.390 . S
C389 C388 1.390 . S
C389 C390 1.394 . S
C389 C395 1.465 . S
C390 C385 1.399 . S
C390 C389 1.394 . S
C390 C391 1.516 . S
C391 C390 1.516 . S
C391 C392 1.502 . S
C391 C393 1.561 . S
C391 C394 1.526 . S
C392 H376 0.959 . S
C392 H377 0.959 . S
C392 H378 0.961 . S
C392 C391 1.502 . S
C393 H379 0.960 . S
C393 H380 0.961 . S
C393 H381 0.959 . S
C393 C391 1.561 . S
C394 C391 1.526 . S
C394 C395 1.396 . S
C394 C399 1.390 . S
C395 C389 1.465 . S
C395 C394 1.396 . S
C395 C396 1.399 . S
C396 H382 0.929 . S
C396 C395 1.399 . S
C396 C397 1.385 . S
C397 H383 0.931 . S
C397 C396 1.385 . S
C397 C398 1.389 . S
C398 C397 1.389 . S
C398 C399 1.387 . S
C399 H384 0.930 . S
C399 C394 1.390 . S
C399 C398 1.387 . S
H400 C412 0.930 1_554 S
H401 C414 0.930 . S
H402 C415 0.930 . S
H403 C419 0.959 . S
H404 C419 0.959 . S
H405 C419 0.961 1_554 S
H406 C420 0.960 1_554 S
H407 C420 0.961 1_554 S
H408 C420 0.959 . S
H409 C423 0.929 . S
H410 C424 0.931 . S
H411 C426 0.930 . S
C412 H400 0.930 1_556 S
C412 C413 1.399 . S
C412 C417 1.399 . S
C413 C412 1.399 . S
C413 C414 1.376 . S
C414 H401 0.930 . S
C414 C413 1.376 . S
C414 C415 1.388 . S
C415 H402 0.930 . S
C415 C414 1.388 . S
C415 C416 1.390 . S
C416 C415 1.390 . S
C416 C417 1.394 . S
C416 C422 1.465 . S
C417 C412 1.399 . S
C417 C416 1.394 . S
C417 C418 1.516 . S
C418 C417 1.516 . S
C418 C419 1.502 . S
C418 C420 1.561 . S
C418 C421 1.526 . S
C419 H403 0.959 . S
C419 H404 0.959 . S
C419 H405 0.961 1_556 S
C419 C418 1.502 . S
C420 H406 0.960 1_556 S
C420 H407 0.961 1_556 S
C420 H408 0.959 . S
C420 C418 1.561 . S
C421 C418 1.526 . S
C421 C422 1.396 . S
C421 C426 1.390 . S
C422 C416 1.465 . S
C422 C421 1.396 . S
C422 C423 1.399 . S
C423 H409 0.929 . S
C423 C422 1.399 . S
C423 C424 1.385 . S
C424 H410 0.931 . S
C424 C423 1.385 . S
C424 C425 1.389 . S
C425 C424 1.389 . S
C425 C426 1.387 . S
C426 H411 0.930 . S
C426 C421 1.390 . S
C426 C425 1.387 . S
H427 C439 0.930 . S
H428 C441 0.930 . S
H429 C442 0.930 . S
H430 C446 0.959 . S
H431 C446 0.959 . S
H432 C446 0.961 . S
H433 C447 0.960 . S
H434 C447 0.961 . S
H435 C447 0.959 . S
H436 C450 0.929 . S
H437 C451 0.931 . S
H438 C453 0.930 . S
C439 H427 0.930 . S
C439 C440 1.399 . S
C439 C444 1.399 . S
C440 C439 1.399 . S
C440 C441 1.376 . S
C441 H428 0.930 . S
C441 C440 1.376 . S
C441 C442 1.388 . S
C442 H429 0.930 . S
C442 C441 1.388 . S
C442 C443 1.390 . S
C443 C442 1.390 . S
C443 C444 1.394 . S
C443 C449 1.465 . S
C444 C439 1.399 . S
C444 C443 1.394 . S
C444 C445 1.516 . S
C445 C444 1.516 . S
C445 C446 1.502 . S
C445 C447 1.561 . S
C445 C448 1.526 . S
C446 H430 0.959 . S
C446 H431 0.959 . S
C446 H432 0.961 . S
C446 C445 1.502 . S
C447 H433 0.960 . S
C447 H434 0.961 . S
C447 H435 0.959 . S
C447 C445 1.561 . S
C448 C445 1.526 . S
C448 C449 1.396 . S
C448 C453 1.390 . S
C449 C443 1.465 . S
C449 C448 1.396 . S
C449 C450 1.399 . S
C450 H436 0.929 . S
C450 C449 1.399 . S
C450 C451 1.385 . S
C451 H437 0.931 . S
C451 C450 1.385 . S
C451 C452 1.389 . S
C452 C451 1.389 . S
C452 C453 1.387 . S
C453 H438 0.930 . S
C453 C448 1.390 . S
C453 C452 1.387 . S
H454 C466 0.930 1_554 S
H455 C468 0.930 . S
H456 C469 0.930 . S
H457 C473 0.959 . S
H458 C473 0.959 1_554 S
H459 C473 0.961 1_554 S
H460 C474 0.960 . S
H461 C474 0.961 . S
H462 C474 0.959 . S
H463 C477 0.929 . S
H464 C478 0.931 . S
H465 C480 0.930 . S
C466 H454 0.930 1_556 S
C466 C467 1.399 . S
C466 C471 1.399 . S
C467 C466 1.399 . S
C467 C468 1.376 . S
C468 H455 0.930 . S
C468 C467 1.376 . S
C468 C469 1.388 . S
C469 H456 0.930 . S
C469 C468 1.388 . S
C469 C470 1.390 . S
C470 C469 1.390 . S
C470 C471 1.394 . S
C470 C476 1.465 . S
C471 C466 1.399 . S
C471 C470 1.394 . S
C471 C472 1.516 . S
C472 C471 1.516 . S
C472 C473 1.502 . S
C472 C474 1.561 . S
C472 C475 1.526 . S
C473 H457 0.959 . S
C473 H458 0.959 1_556 S
C473 H459 0.961 1_556 S
C473 C472 1.502 . S
C474 H460 0.960 . S
C474 H461 0.961 . S
C474 H462 0.959 . S
C474 C472 1.561 . S
C475 C472 1.526 . S
C475 C476 1.396 . S
C475 C480 1.390 . S
C476 C470 1.465 . S
C476 C475 1.396 . S
C476 C477 1.399 . S
C477 H463 0.929 . S
C477 C476 1.399 . S
C477 C478 1.385 . S
C478 H464 0.931 . S
C478 C477 1.385 . S
C478 C479 1.389 . S
C479 C478 1.389 . S
C479 C480 1.387 . S
C480 H465 0.930 . S
C480 C475 1.390 . S
C480 C479 1.387 . S
H481 C493 0.930 . S
H482 C495 0.930 . S
H483 C496 0.930 . S
H484 C500 0.959 . S
H485 C500 0.959 . S
H486 C500 0.961 . S
H487 C501 0.960 . S
H488 C501 0.961 . S
H489 C501 0.959 . S
H490 C504 0.929 . S
H491 C505 0.931 . S
H492 C507 0.930 . S
C493 H481 0.930 . S
C493 C494 1.399 . S
C493 C498 1.399 . S
C494 C493 1.399 . S
C494 C495 1.376 . S
C495 H482 0.930 . S
C495 C494 1.376 . S
C495 C496 1.388 . S
C496 H483 0.930 . S
C496 C495 1.388 . S
C496 C497 1.390 . S
C497 C496 1.390 . S
C497 C498 1.394 . S
C497 C503 1.465 . S
C498 C493 1.399 . S
C498 C497 1.394 . S
C498 C499 1.516 . S
C499 C498 1.516 . S
C499 C500 1.502 . S
C499 C501 1.561 . S
C499 C502 1.526 . S
C500 H484 0.959 . S
C500 H485 0.959 . S
C500 H486 0.961 . S
C500 C499 1.502 . S
C501 H487 0.960 . S
C501 H488 0.961 . S
C501 H489 0.959 . S
C501 C499 1.561 . S
C502 C499 1.526 . S
C502 C503 1.396 . S
C502 C507 1.390 . S
C503 C497 1.465 . S
C503 C502 1.396 . S
C503 C504 1.399 . S
C504 H490 0.929 . S
C504 C503 1.399 . S
C504 C505 1.385 . S
C505 H491 0.931 . S
C505 C504 1.385 . S
C505 C506 1.389 . S
C506 C505 1.389 . S
C506 C507 1.387 . S
C507 H492 0.930 . S
C507 C502 1.390 . S
C507 C506 1.387 . S
H508 C520 0.930 . S
H509 C522 0.930 . S
H510 C523 0.930 . S
H511 C527 0.959 . S
H512 C527 0.959 . S
H513 C527 0.961 . S
H514 C528 0.960 . S
H515 C528 0.961 . S
H516 C528 0.959 . S
H517 C531 0.929 . S
H518 C532 0.931 . S
H519 C534 0.930 . S
C520 H508 0.930 . S
C520 C521 1.399 . S
C520 C525 1.399 . S
C521 C520 1.399 . S
C521 C522 1.376 . S
C522 H509 0.930 . S
C522 C521 1.376 . S
C522 C523 1.388 . S
C523 H510 0.930 . S
C523 C522 1.388 . S
C523 C524 1.390 . S
C524 C523 1.390 . S
C524 C525 1.394 . S
C524 C530 1.465 . S
C525 C520 1.399 . S
C525 C524 1.394 . S
C525 C526 1.516 1_565 S
C526 C525 1.516 1_545 S
C526 C527 1.502 . S
C526 C528 1.561 . S
C526 C529 1.526 . S
C527 H511 0.959 . S
C527 H512 0.959 . S
C527 H513 0.961 . S
C527 C526 1.502 . S
C528 H514 0.960 . S
C528 H515 0.961 . S
C528 H516 0.959 . S
C528 C526 1.561 . S
C529 C526 1.526 . S
C529 C530 1.396 1_545 S
C529 C534 1.390 . S
C530 C524 1.465 . S
C530 C529 1.396 1_565 S
C530 C531 1.399 . S
C531 H517 0.929 . S
C531 C530 1.399 . S
C531 C532 1.385 1_565 S
C532 H518 0.931 . S
C532 C531 1.385 1_545 S
C532 C533 1.389 . S
C533 C532 1.389 . S
C533 C534 1.387 . S
C534 H519 0.930 . S
C534 C529 1.390 . S
C534 C533 1.387 . S
H535 C547 0.930 . S
H536 C549 0.930 . S
H537 C550 0.930 . S
H538 C554 0.959 . S
H539 C554 0.959 . S
H540 C554 0.961 . S
H541 C555 0.960 . S
H542 C555 0.961 . S
H543 C555 0.959 . S
H544 C558 0.929 . S
H545 C559 0.931 . S
H546 C561 0.930 . S
C547 H535 0.930 . S
C547 C548 1.399 . S
C547 C552 1.399 . S
C548 C547 1.399 . S
C548 C549 1.376 . S
C549 H536 0.930 . S
C549 C548 1.376 . S
C549 C550 1.388 . S
C550 H537 0.930 . S
C550 C549 1.388 . S
C550 C551 1.390 . S
C551 C550 1.390 . S
C551 C552 1.394 . S
C551 C557 1.465 . S
C552 C547 1.399 . S
C552 C551 1.394 . S
C552 C553 1.516 1_545 S
C553 C552 1.516 1_565 S
C553 C554 1.502 . S
C553 C555 1.561 . S
C553 C556 1.526 . S
C554 H538 0.959 . S
C554 H539 0.959 . S
C554 H540 0.961 . S
C554 C553 1.502 . S
C555 H541 0.960 . S
C555 H542 0.961 . S
C555 H543 0.959 . S
C555 C553 1.561 . S
C556 C553 1.526 . S
C556 C557 1.396 1_565 S
C556 C561 1.390 . S
C557 C551 1.465 . S
C557 C556 1.396 1_545 S
C557 C558 1.399 . S
C558 H544 0.929 . S
C558 C557 1.399 . S
C558 C559 1.385 1_545 S
C559 H545 0.931 . S
C559 C558 1.385 1_565 S
C559 C560 1.389 . S
C560 C559 1.389 . S
C560 C561 1.387 . S
C561 H546 0.930 . S
C561 C556 1.390 . S
C561 C560 1.387 . S
H562 C574 0.930 1_554 S
H563 C576 0.930 . S
H564 C577 0.930 . S
H565 C581 0.959 . S
H566 C581 0.959 1_545 S
H567 C581 0.961 1_554 S
H568 C582 0.960 1_554 S
H569 C582 0.960 1_554 S
H570 C582 0.959 . S
H571 C585 0.929 . S
H572 C586 0.931 . S
H573 C588 0.930 . S
C574 H562 0.930 1_556 S
C574 C575 1.399 . S
C574 C579 1.399 . S
C575 C574 1.399 . S
C575 C576 1.376 . S
C576 H563 0.930 . S
C576 C575 1.376 . S
C576 C577 1.388 . S
C577 H564 0.930 . S
C577 C576 1.388 . S
C577 C578 1.390 . S
C578 C577 1.390 . S
C578 C579 1.394 . S
C578 C584 1.465 1_565 S
C579 C574 1.399 . S
C579 C578 1.394 . S
C579 C580 1.516 1_565 S
C580 C579 1.516 1_545 S
C580 C581 1.502 1_545 S
C580 C582 1.561 . S
C580 C583 1.526 . S
C581 H565 0.959 . S
C581 H566 0.959 1_565 S
C581 H567 0.961 1_556 S
C581 C580 1.502 1_565 S
C582 H568 0.960 1_556 S
C582 H569 0.960 1_556 S
C582 H570 0.959 . S
C582 C580 1.561 . S
C583 C580 1.526 . S
C583 C584 1.396 . S
C583 C588 1.390 . S
C584 C578 1.465 1_545 S
C584 C583 1.396 . S
C584 C585 1.399 . S
C585 H571 0.929 . S
C585 C584 1.399 . S
C585 C586 1.385 . S
C586 H572 0.931 . S
C586 C585 1.385 . S
C586 C587 1.389 . S
C587 C586 1.389 . S
C587 C588 1.387 . S
C588 H573 0.930 . S
C588 C583 1.390 . S
C588 C587 1.387 . S
H589 C601 0.930 . S
H590 C603 0.930 . S
H591 C604 0.930 . S
H592 C608 0.959 1_565 S
H593 C608 0.959 . S
H594 C608 0.961 . S
H595 C609 0.960 . S
H596 C609 0.961 . S
H597 C609 0.959 . S
H598 C612 0.929 . S
H599 C613 0.931 . S
H600 C615 0.930 . S
C601 H589 0.930 . S
C601 C602 1.399 . S
C601 C606 1.399 . S
C602 C601 1.399 . S
C602 C603 1.376 . S
C603 H590 0.930 . S
C603 C602 1.376 . S
C603 C604 1.388 . S
C604 H591 0.930 . S
C604 C603 1.388 . S
C604 C605 1.390 . S
C605 C604 1.390 . S
C605 C606 1.394 . S
C605 C611 1.465 1_545 S
C606 C601 1.399 . S
C606 C605 1.394 . S
C606 C607 1.516 . S
C607 C606 1.516 . S
C607 C608 1.502 . S
C607 C609 1.561 . S
C607 C610 1.526 1_545 S
C608 H592 0.959 1_545 S
C608 H593 0.959 . S
C608 H594 0.961 . S
C608 C607 1.502 . S
C609 H595 0.960 . S
C609 H596 0.961 . S
C609 H597 0.959 . S
C609 C607 1.561 . S
C610 C607 1.526 1_565 S
C610 C611 1.396 . S
C610 C615 1.390 . S
C611 C605 1.465 1_565 S
C611 C610 1.396 . S
C611 C612 1.399 . S
C612 H598 0.929 . S
C612 C611 1.399 . S
C612 C613 1.385 . S
C613 H599 0.931 . S
C613 C612 1.385 . S
C613 C614 1.389 . S
C614 C613 1.389 . S
C614 C615 1.387 . S
C615 H600 0.930 . S
C615 C610 1.390 . S
C615 C614 1.387 . S
H616 C628 0.930 . S
H617 C630 0.930 . S
H618 C631 0.930 . S
H619 C635 0.959 . S
H620 C635 0.959 . S
H621 C635 0.961 . S
H622 C636 0.960 . S
H623 C636 0.961 . S
H624 C636 0.959 . S
H625 C639 0.929 . S
H626 C640 0.931 . S
H627 C642 0.930 . S
C628 H616 0.930 . S
C628 C629 1.399 . S
C628 C633 1.399 . S
C629 C628 1.399 . S
C629 C630 1.376 . S
C630 H617 0.930 . S
C630 C629 1.376 . S
C630 C631 1.388 . S
C631 H618 0.930 . S
C631 C630 1.388 . S
C631 C632 1.390 . S
C632 C631 1.390 . S
C632 C633 1.394 . S
C632 C638 1.465 . S
C633 C628 1.399 . S
C633 C632 1.394 . S
C633 C634 1.516 . S
C634 C633 1.516 . S
C634 C635 1.502 . S
C634 C636 1.561 . S
C634 C637 1.526 . S
C635 H619 0.959 . S
C635 H620 0.959 . S
C635 H621 0.961 . S
C635 C634 1.502 . S
C636 H622 0.960 . S
C636 H623 0.961 . S
C636 H624 0.959 . S
C636 C634 1.561 . S
C637 C634 1.526 . S
C637 C638 1.396 . S
C637 C642 1.390 . S
C638 C632 1.465 . S
C638 C637 1.396 . S
C638 C639 1.399 . S
C639 H625 0.929 . S
C639 C638 1.399 . S
C639 C640 1.385 . S
C640 H626 0.931 . S
C640 C639 1.385 . S
C640 C641 1.389 . S
C641 C640 1.389 . S
C641 C642 1.387 . S
C642 H627 0.930 . S
C642 C637 1.390 . S
C642 C641 1.387 . S
H643 C655 0.930 . S
H644 C657 0.930 . S
H645 C658 0.930 . S
H646 C662 0.959 . S
H647 C662 0.959 . S
H648 C662 0.961 . S
H649 C663 0.960 . S
H650 C663 0.961 . S
H651 C663 0.959 . S
H652 C666 0.929 . S
H653 C667 0.931 . S
H654 C669 0.930 . S
C655 H643 0.930 . S
C655 C656 1.399 . S
C655 C660 1.399 . S
C656 C655 1.399 . S
C656 C657 1.376 . S
C657 H644 0.930 . S
C657 C656 1.376 . S
C657 C658 1.388 . S
C658 H645 0.930 . S
C658 C657 1.388 . S
C658 C659 1.390 . S
C659 C658 1.390 . S
C659 C660 1.394 . S
C659 C665 1.465 . S
C660 C655 1.399 . S
C660 C659 1.394 . S
C660 C661 1.516 . S
C661 C660 1.516 . S
C661 C662 1.502 . S
C661 C663 1.561 . S
C661 C664 1.526 . S
C662 H646 0.959 . S
C662 H647 0.959 . S
C662 H648 0.961 . S
C662 C661 1.502 . S
C663 H649 0.960 . S
C663 H650 0.961 . S
C663 H651 0.959 . S
C663 C661 1.561 . S
C664 C661 1.526 . S
C664 C665 1.396 . S
C664 C669 1.390 . S
C665 C659 1.465 . S
C665 C664 1.396 . S
C665 C666 1.399 . S
C666 H652 0.929 . S
C666 C665 1.399 . S
C666 C667 1.385 . S
C667 H653 0.931 . S
C667 C666 1.385 . S
C667 C668 1.389 . S
C668 C667 1.389 . S
C668 C669 1.387 . S
C669 H654 0.930 . S
C669 C664 1.390 . S
C669 C668 1.387 . S
H670 C682 0.930 . S
H671 C684 0.930 . S
H672 C685 0.930 . S
H673 C689 0.959 . S
H674 C689 0.959 . S
H675 C689 0.961 . S
H676 C690 0.960 . S
H677 C690 0.961 . S
H678 C690 0.959 . S
H679 C693 0.929 . S
H680 C694 0.931 . S
H681 C696 0.930 . S
C682 H670 0.930 . S
C682 C683 1.399 . S
C682 C687 1.399 . S
C683 C682 1.399 . S
C683 C684 1.376 . S
C684 H671 0.930 . S
C684 C683 1.376 . S
C684 C685 1.388 . S
C685 H672 0.930 . S
C685 C684 1.388 . S
C685 C686 1.390 . S
C686 C685 1.390 . S
C686 C687 1.394 . S
C686 C692 1.465 . S
C687 C682 1.399 . S
C687 C686 1.394 . S
C687 C688 1.516 . S
C688 C687 1.516 . S
C688 C689 1.502 . S
C688 C690 1.561 . S
C688 C691 1.526 . S
C689 H673 0.959 . S
C689 H674 0.959 . S
C689 H675 0.961 . S
C689 C688 1.502 . S
C690 H676 0.960 . S
C690 H677 0.961 . S
C690 H678 0.959 . S
C690 C688 1.561 . S
C691 C688 1.526 . S
C691 C692 1.396 . S
C691 C696 1.390 . S
C692 C686 1.465 . S
C692 C691 1.396 . S
C692 C693 1.399 . S
C693 H679 0.929 . S
C693 C692 1.399 . S
C693 C694 1.385 . S
C694 H680 0.931 . S
C694 C693 1.385 . S
C694 C695 1.389 . S
C695 C694 1.389 . S
C695 C696 1.387 . S
C696 H681 0.930 . S
C696 C691 1.390 . S
C696 C695 1.387 . S
H697 C709 0.930 . S
H698 C711 0.930 . S
H699 C712 0.930 . S
H700 C716 0.959 . S
H701 C716 0.959 . S
H702 C716 0.961 . S
H703 C717 0.960 . S
H704 C717 0.961 . S
H705 C717 0.959 . S
H706 C720 0.929 . S
H707 C721 0.931 . S
H708 C723 0.930 . S
C709 H697 0.930 . S
C709 C710 1.399 . S
C709 C714 1.399 . S
C710 C709 1.399 . S
C710 C711 1.376 . S
C711 H698 0.930 . S
C711 C710 1.376 . S
C711 C712 1.388 . S
C712 H699 0.930 . S
C712 C711 1.388 . S
C712 C713 1.390 . S
C713 C712 1.390 . S
C713 C714 1.394 . S
C713 C719 1.465 . S
C714 C709 1.399 . S
C714 C713 1.394 . S
C714 C715 1.516 . S
C715 C714 1.516 . S
C715 C716 1.502 . S
C715 C717 1.561 . S
C715 C718 1.526 . S
C716 H700 0.959 . S
C716 H701 0.959 . S
C716 H702 0.961 . S
C716 C715 1.502 . S
C717 H703 0.960 . S
C717 H704 0.961 . S
C717 H705 0.959 . S
C717 C715 1.561 . S
C718 C715 1.526 . S
C718 C719 1.396 . S
C718 C723 1.390 . S
C719 C713 1.465 . S
C719 C718 1.396 . S
C719 C720 1.399 . S
C720 H706 0.929 . S
C720 C719 1.399 . S
C720 C721 1.385 . S
C721 H707 0.931 . S
C721 C720 1.385 . S
C721 C722 1.389 . S
C722 C721 1.389 . S
C722 C723 1.387 . S
C723 H708 0.930 . S
C723 C718 1.390 . S
C723 C722 1.387 . S
H724 C736 0.930 . S
H725 C738 0.930 . S
H726 C739 0.930 . S
H727 C743 0.959 . S
H728 C743 0.959 . S
H729 C743 0.961 . S
H730 C744 0.960 . S
H731 C744 0.961 . S
H732 C744 0.959 . S
H733 C747 0.929 . S
H734 C748 0.931 . S
H735 C750 0.930 . S
C736 H724 0.930 . S
C736 C737 1.399 . S
C736 C741 1.399 . S
C737 C736 1.399 . S
C737 C738 1.376 . S
C738 H725 0.930 . S
C738 C737 1.376 . S
C738 C739 1.388 . S
C739 H726 0.930 . S
C739 C738 1.388 . S
C739 C740 1.390 . S
C740 C739 1.390 . S
C740 C741 1.394 . S
C740 C746 1.465 . S
C741 C736 1.399 . S
C741 C740 1.394 . S
C741 C742 1.516 . S
C742 C741 1.516 . S
C742 C743 1.502 . S
C742 C744 1.561 . S
C742 C745 1.526 . S
C743 H727 0.959 . S
C743 H728 0.959 . S
C743 H729 0.961 . S
C743 C742 1.502 . S
C744 H730 0.960 . S
C744 H731 0.961 . S
C744 H732 0.959 . S
C744 C742 1.561 . S
C745 C742 1.526 . S
C745 C746 1.396 . S
C745 C750 1.390 . S
C746 C740 1.465 . S
C746 C745 1.396 . S
C746 C747 1.399 . S
C747 H733 0.929 . S
C747 C746 1.399 . S
C747 C748 1.385 . S
C748 H734 0.931 . S
C748 C747 1.385 . S
C748 C749 1.389 . S
C749 C748 1.389 . S
C749 C750 1.387 . S
C750 H735 0.930 . S
C750 C745 1.390 . S
C750 C749 1.387 . S
H751 C763 0.930 . S
H752 C765 0.930 . S
H753 C766 0.930 . S
H754 C770 0.959 . S
H755 C770 0.959 . S
H756 C770 0.961 . S
H757 C771 0.960 . S
H758 C771 0.961 . S
H759 C771 0.959 . S
H760 C774 0.929 . S
H761 C775 0.931 . S
H762 C777 0.930 . S
C763 H751 0.930 . S
C763 C764 1.399 . S
C763 C768 1.399 . S
C764 C763 1.399 . S
C764 C765 1.376 . S
C765 H752 0.930 . S
C765 C764 1.376 . S
C765 C766 1.388 . S
C766 H753 0.930 . S
C766 C765 1.388 . S
C766 C767 1.390 . S
C767 C766 1.390 . S
C767 C768 1.394 . S
C767 C773 1.465 . S
C768 C763 1.399 . S
C768 C767 1.394 . S
C768 C769 1.516 . S
C769 C768 1.516 . S
C769 C770 1.502 . S
C769 C771 1.561 . S
C769 C772 1.526 . S
C770 H754 0.959 . S
C770 H755 0.959 . S
C770 H756 0.961 . S
C770 C769 1.502 . S
C771 H757 0.960 . S
C771 H758 0.961 . S
C771 H759 0.959 . S
C771 C769 1.561 . S
C772 C769 1.526 . S
C772 C773 1.396 . S
C772 C777 1.390 . S
C773 C767 1.465 . S
C773 C772 1.396 . S
C773 C774 1.399 . S
C774 H760 0.929 . S
C774 C773 1.399 . S
C774 C775 1.385 . S
C775 H761 0.931 . S
C775 C774 1.385 . S
C775 C776 1.389 . S
C776 C775 1.389 . S
C776 C777 1.387 . S
C777 H762 0.930 . S
C777 C772 1.390 . S
C777 C776 1.387 . S
H778 C790 0.930 . S
H779 C792 0.930 . S
H780 C793 0.930 . S
H781 C797 0.959 . S
H782 C797 0.959 . S
H783 C797 0.961 . S
H784 C798 0.960 . S
H785 C798 0.961 . S
H786 C798 0.959 . S
H787 C801 0.929 . S
H788 C802 0.931 . S
H789 C804 0.930 . S
C790 H778 0.930 . S
C790 C791 1.399 . S
C790 C795 1.399 . S
C791 C790 1.399 . S
C791 C792 1.376 . S
C792 H779 0.930 . S
C792 C791 1.376 . S
C792 C793 1.388 . S
C793 H780 0.930 . S
C793 C792 1.388 . S
C793 C794 1.390 . S
C794 C793 1.390 . S
C794 C795 1.394 . S
C794 C800 1.465 . S
C795 C790 1.399 . S
C795 C794 1.394 . S
C795 C796 1.516 . S
C796 C795 1.516 . S
C796 C797 1.502 . S
C796 C798 1.561 . S
C796 C799 1.526 . S
C797 H781 0.959 . S
C797 H782 0.959 . S
C797 H783 0.961 . S
C797 C796 1.502 . S
C798 H784 0.960 . S
C798 H785 0.961 . S
C798 H786 0.959 . S
C798 C796 1.561 . S
C799 C796 1.526 . S
C799 C800 1.396 . S
C799 C804 1.390 . S
C800 C794 1.465 . S
C800 C799 1.396 . S
C800 C801 1.399 . S
C801 H787 0.929 . S
C801 C800 1.399 . S
C801 C802 1.385 . S
C802 H788 0.931 . S
C802 C801 1.385 . S
C802 C803 1.389 . S
C803 C802 1.389 . S
C803 C804 1.387 . S
C804 H789 0.930 . S
C804 C799 1.390 . S
C804 C803 1.387 . S
H805 C817 0.930 . S
H806 C819 0.930 . S
H807 C820 0.930 . S
H808 C824 0.959 . S
H809 C824 0.959 . S
H810 C824 0.961 . S
H811 C825 0.960 . S
H812 C825 0.961 . S
H813 C825 0.959 . S
H814 C828 0.929 . S
H815 C829 0.931 . S
H816 C831 0.930 . S
C817 H805 0.930 . S
C817 C818 1.399 . S
C817 C822 1.399 . S
C818 C817 1.399 . S
C818 C819 1.376 . S
C819 H806 0.930 . S
C819 C818 1.376 . S
C819 C820 1.388 . S
C820 H807 0.930 . S
C820 C819 1.388 . S
C820 C821 1.390 . S
C821 C820 1.390 . S
C821 C822 1.394 . S
C821 C827 1.465 . S
C822 C817 1.399 . S
C822 C821 1.394 . S
C822 C823 1.516 . S
C823 C822 1.516 . S
C823 C824 1.502 . S
C823 C825 1.561 . S
C823 C826 1.526 . S
C824 H808 0.959 . S
C824 H809 0.959 . S
C824 H810 0.961 . S
C824 C823 1.502 . S
C825 H811 0.960 . S
C825 H812 0.961 . S
C825 H813 0.959 . S
C825 C823 1.561 . S
C826 C823 1.526 . S
C826 C827 1.396 . S
C826 C831 1.390 . S
C827 C821 1.465 . S
C827 C826 1.396 . S
C827 C828 1.399 . S
C828 H814 0.929 . S
C828 C827 1.399 . S
C828 C829 1.385 . S
C829 H815 0.931 . S
C829 C828 1.385 . S
C829 C830 1.389 . S
C830 C829 1.389 . S
C830 C831 1.387 . S
C831 H816 0.930 . S
C831 C826 1.390 . S
C831 C830 1.387 . S
C197 C4 1.536 . S
C209 C139 1.552 . S
C236 C103 1.553 . S
C224 C16 1.534 . S
C263 C126 1.533 . S
C251 C28 1.515 . S
C290 C114 1.530 . S
C278 C40 1.543 . S
C317 C183 1.538 . S
C305 C52 1.548 . S
C344 C147 1.522 . S
C332 C64 1.542 . S
C359 C76 1.512 . S
C371 C170 1.534 . S
C398 C158 1.540 . S
C386 C88 1.504 . S
C413 C9 1.489 . S
C425 C180 1.522 . S
C452 C150 1.520 . S
C440 C21 1.494 . S
C467 C33 1.543 . S
C479 C169 1.546 . S
C494 C45 1.500 . S
C506 C155 1.532 . S
C533 C136 1.517 . S
C521 C57 1.461 . S
C548 C69 1.467 . S
C560 C106 1.518 . S
C587 C125 1.552 . S
C575 C81 1.547 . S
C614 C111 1.528 . S
C602 C93 1.496 . S
C641 C161 1.503 . S
C629 C6 1.492 . S
C668 C177 1.526 . S
C656 C18 1.523 . S
C683 C30 1.491 . S
C695 C148 1.492 . S
C722 C172 1.492 . S
C710 C42 1.491 . S
C749 C117 1.524 . S
C737 C54 1.520 . S
C764 C66 1.496 . S
C776 C133 1.505 . S
C791 C78 1.491 . S
C803 C104 1.492 . S
C818 C90 1.490 . S
C830 C128 1.492 . S
