# Generated by pormake.
# Topology dag, (6,3)-cn, num edge types: 1
# Building blocks:
#     Node 0, Type 0, BuildingBlock: MIDCAF_clean_sbu_0, # of connection points: 6
#     Node 1, Type 0, BuildingBlock: MIDCAF_clean_sbu_0, # of connection points: 6
#     Node 2, Type 0, BuildingBlock: MIDCAF_clean_sbu_0, # of connection points: 6
#     Node 3, Type 0, BuildingBlock: MIDCAF_clean_sbu_0, # of connection points: 6
#     Node 4, Type 1, BuildingBlock: KAKCAD_clean_linker_0, # of connection points: 3
#     Node 5, Type 1, BuildingBlock: KAKCAD_clean_linker_0, # of connection points: 3
#     Node 6, Type 1, BuildingBlock: KAKCAD_clean_linker_0, # of connection points: 3
#     Node 7, Type 1, BuildingBlock: KAKCAD_clean_linker_0, # of connection points: 3
#     Node 8, Type 1, BuildingBlock: KAKCAD_clean_linker_0, # of connection points: 3
#     Node 9, Type 1, BuildingBlock: KAKCAD_clean_linker_0, # of connection points: 3
#     Node 10, Type 1, BuildingBlock: KAKCAD_clean_linker_0, # of connection points: 3
#     Node 11, Type 1, BuildingBlock: KAKCAD_clean_linker_0, # of connection points: 3
#     Edge 12, Type (0, 1), BuildingBlock: TEMPAE_clean_linker_10, # of connection points: 2
#     Edge 13, Type (0, 1), BuildingBlock: TEMPAE_clean_linker_10, # of connection points: 2
#     Edge 14, Type (0, 1), BuildingBlock: TEMPAE_clean_linker_10, # of connection points: 2
#     Edge 15, Type (0, 1), BuildingBlock: TEMPAE_clean_linker_10, # of connection points: 2
#     Edge 16, Type (0, 1), BuildingBlock: TEMPAE_clean_linker_10, # of connection points: 2
#     Edge 17, Type (0, 1), BuildingBlock: TEMPAE_clean_linker_10, # of connection points: 2
#     Edge 18, Type (0, 1), BuildingBlock: TEMPAE_clean_linker_10, # of connection points: 2
#     Edge 19, Type (0, 1), BuildingBlock: TEMPAE_clean_linker_10, # of connection points: 2
#     Edge 20, Type (0, 1), BuildingBlock: TEMPAE_clean_linker_10, # of connection points: 2
#     Edge 21, Type (0, 1), BuildingBlock: TEMPAE_clean_linker_10, # of connection points: 2
#     Edge 22, Type (0, 1), BuildingBlock: TEMPAE_clean_linker_10, # of connection points: 2
#     Edge 23, Type (0, 1), BuildingBlock: TEMPAE_clean_linker_10, # of connection points: 2
#     Edge 24, Type (0, 1), BuildingBlock: TEMPAE_clean_linker_10, # of connection points: 2
#     Edge 25, Type (0, 1), BuildingBlock: TEMPAE_clean_linker_10, # of connection points: 2
#     Edge 26, Type (0, 1), BuildingBlock: TEMPAE_clean_linker_10, # of connection points: 2
#     Edge 27, Type (0, 1), BuildingBlock: TEMPAE_clean_linker_10, # of connection points: 2
#     Edge 28, Type (0, 1), BuildingBlock: TEMPAE_clean_linker_10, # of connection points: 2
#     Edge 29, Type (0, 1), BuildingBlock: TEMPAE_clean_linker_10, # of connection points: 2
#     Edge 30, Type (0, 1), BuildingBlock: TEMPAE_clean_linker_10, # of connection points: 2
#     Edge 31, Type (0, 1), BuildingBlock: TEMPAE_clean_linker_10, # of connection points: 2
#     Edge 32, Type (0, 1), BuildingBlock: TEMPAE_clean_linker_10, # of connection points: 2
#     Edge 33, Type (0, 1), BuildingBlock: TEMPAE_clean_linker_10, # of connection points: 2
#     Edge 34, Type (0, 1), BuildingBlock: TEMPAE_clean_linker_10, # of connection points: 2
#     Edge 35, Type (0, 1), BuildingBlock: TEMPAE_clean_linker_10, # of connection points: 2
# Relax obj value: 0.304
# Max RMSD: 0.191
# Mean RMSD: 0.180
data_MOF--net-dag--node1-MIDCAF_clean_sbu_0--node2-KAKCAD_clean_linker_0--edge1-TEMPAE_clean_linker_10
_symmetry_space_group_name_H-M    P1
_symmetry_Int_Tables_number       1
_symmetry_cell_setting            triclinic
loop_
_symmetry_equiv_pos_as_xyz
'x, y, z'
_cell_length_a     48.543603
_cell_length_b     49.814468
_cell_length_c     37.140286
_cell_angle_alpha  93.621998
_cell_angle_beta   90.083657
_cell_angle_gamma 89.841891
loop_
_atom_site_label
_atom_site_type_symbol
_atom_site_fract_x
_atom_site_fract_y
_atom_site_fract_z
_atom_type_partial_charge
Zn0 Zn 0.15142 0.87533 0.07797 0.0
Zn1 Zn 0.19955 0.85473 0.97318 0.0
Zn2 Zn 0.17444 0.85613 0.03086 0.0
C3 C 0.18691 0.90939 0.99313 0.0
C4 C 0.15085 0.82225 0.96522 0.0
O5 O 0.18952 0.83355 0.07687 0.0
O6 O 0.15006 0.84 0.10489 0.0
C7 C 0.2061 0.88398 0.09019 0.0
O8 O 0.17608 0.89783 0.01926 0.0
O9 O 0.19908 0.89525 0.96842 0.0
O10 O 0.17121 0.83028 0.94756 0.0
O11 O 0.14782 0.83006 0.99848 0.0
O12 O 0.18507 0.89901 0.08842 0.0
O13 O 0.20497 0.8601 0.07483 0.0
O14 O 0.13091 0.84423 0.02913 0.0
O15 O 0.11746 0.88438 0.05007 0.0
C16 C 0.11148 0.8615 0.03538 0.0
O17 O 0.21071 0.83318 0.04637 0.0
O18 O 0.23219 0.83631 0.99428 0.0
C19 C 0.1722 0.82659 0.10102 0.0
C20 C 0.23151 0.82771 0.02564 0.0
Zn21 Zn 0.63512 0.68011 0.42096 0.0
Zn22 Zn 0.66913 0.66026 0.55405 0.0
Zn23 Zn 0.65094 0.66986 0.48793 0.0
C24 C 0.66761 0.61052 0.51556 0.0
C25 C 0.61555 0.6826 0.56027 0.0
O26 O 0.67893 0.70025 0.46517 0.0
O27 O 0.65895 0.71113 0.41436 0.0
C28 C 0.65302 0.62656 0.42116 0.0
O29 O 0.65833 0.6256 0.49123 0.0
O30 O 0.67506 0.62078 0.54595 0.0
O31 O 0.63483 0.67331 0.57874 0.0
O32 O 0.61778 0.68284 0.52572 0.0
O33 O 0.64733 0.64428 0.39943 0.0
O34 O 0.65349 0.63226 0.4554 0.0
O35 O 0.60743 0.68303 0.49029 0.0
O36 O 0.59591 0.68695 0.43311 0.0
C37 C 0.58932 0.68769 0.46603 0.0
O38 O 0.68855 0.69394 0.49923 0.0
O39 O 0.70102 0.68488 0.5546 0.0
C40 C 0.67786 0.71459 0.43744 0.0
C41 C 0.70502 0.6972 0.52641 0.0
Zn42 Zn 0.86655 0.17473 0.92334 0.0
Zn43 Zn 0.84146 0.11332 0.99921 0.0
Zn44 Zn 0.84741 0.15365 0.97349 0.0
C45 C 0.89057 0.13245 0.02497 0.0
C46 C 0.79922 0.11832 0.95921 0.0
O47 O 0.80995 0.17154 0.95141 0.0
O48 O 0.83064 0.18598 0.90357 0.0
C49 C 0.8861 0.20046 0.99167 0.0
O50 O 0.87631 0.15394 0.02042 0.0
O51 O 0.8826 0.11038 0.00946 0.0
O52 O 0.8198 0.10291 0.95354 0.0
O53 O 0.80412 0.14256 0.97125 0.0
O54 O 0.88688 0.20036 0.95755 0.0
O55 O 0.87105 0.18312 0.00679 0.0
O56 O 0.86917 0.12237 0.94269 0.0
O57 O 0.88594 0.14338 0.89761 0.0
C58 C 0.88284 0.12188 0.91344 0.0
O59 O 0.8474 0.16672 0.03114 0.0
O60 O 0.81986 0.13292 0.04053 0.0
C61 C 0.80886 0.18299 0.92144 0.0
C62 C 0.82877 0.1561 0.05057 0.0
Zn63 Zn 0.3381 0.31954 0.63726 0.0
Zn64 Zn 0.32583 0.35779 0.51215 0.0
Zn65 Zn 0.3302 0.34174 0.57788 0.0
C66 C 0.38156 0.36238 0.53224 0.0
C67 C 0.29037 0.38895 0.55946 0.0
O68 O 0.29522 0.3553 0.61303 0.0
O69 O 0.29928 0.3234 0.65166 0.0
C70 C 0.34668 0.2796 0.58504 0.0
O71 O 0.37114 0.35805 0.56333 0.0
O72 O 0.36612 0.36244 0.50482 0.0
O73 O 0.30221 0.38865 0.52916 0.0
O74 O 0.29612 0.37112 0.58196 0.0
O75 O 0.35223 0.28444 0.61801 0.0
O76 O 0.33463 0.29776 0.56735 0.0
O77 O 0.36778 0.36041 0.60046 0.0
O78 O 0.36406 0.34806 0.65621 0.0
C79 C 0.37504 0.36287 0.63387 0.0
O80 O 0.31786 0.30742 0.54104 0.0
O81 O 0.30736 0.32523 0.48971 0.0
C82 C 0.28578 0.34254 0.63948 0.0
C83 C 0.30759 0.30522 0.50894 0.0
C84 C 0.04898 0.13068 0.23509 0.0
C85 C 0.0287 0.11141 0.22551 0.0
C86 C 0.06914 0.12554 0.26074 0.0
C87 C 0.06957 0.10094 0.27736 0.0
C88 C 0.04879 0.08201 0.2686 0.0
C89 C 0.02856 0.0872 0.24305 0.0
C90 C 0.09276 0.09431 0.30159 0.0
C91 C 0.10362 0.11381 0.32684 0.0
C92 C 0.12716 0.1082 0.34729 0.0
C93 C 0.13976 0.08286 0.34217 0.0
C94 C 0.12932 0.06327 0.31721 0.0
C95 C 0.1056 0.06894 0.29739 0.0
C96 C 0.14493 0.03803 0.30915 0.0
C97 C 0.17331 0.03903 0.30198 0.0
C98 C 0.13151 0.01309 0.30663 0.0
C99 C 0.14596 0.98971 0.29553 0.0
C100 C 0.17401 0.99093 0.28605 0.0
C101 C 0.14049 0.12919 0.3716 0.0
C102 C 0.14363 0.15556 0.36077 0.0
C103 C 0.15303 0.1222 0.40392 0.0
C104 C 0.16997 0.14043 0.42345 0.0
C105 C 0.17432 0.16621 0.41147 0.0
C106 C 0.16031 0.17394 0.38064 0.0
C107 C 0.18768 0.01576 0.29044 0.0
H108 H 0.04949 0.14965 0.22235 0.0
H109 H 0.08498 0.14046 0.26656 0.0
H110 H 0.04842 0.06296 0.28112 0.0
H111 H 0.01337 0.07184 0.23614 0.0
H112 H 0.09385 0.13338 0.33039 0.0
H113 H 0.0982 0.05415 0.277 0.0
H114 H 0.15852 0.07859 0.35666 0.0
H115 H 0.18413 0.05806 0.30345 0.0
H116 H 0.10972 0.01177 0.31253 0.0
H117 H 0.13491 0.97083 0.29306 0.0
H118 H 0.13452 0.16155 0.33588 0.0
H119 H 0.15055 0.10224 0.41344 0.0
H120 H 0.20909 0.01759 0.28286 0.0
H121 H 0.16344 0.19372 0.37081 0.0
H122 H 0.18024 0.13417 0.44747 0.0
C123 C 0.39126 0.54968 0.77988 0.0
C124 C 0.41275 0.54159 0.75607 0.0
C125 C 0.39083 0.57553 0.79699 0.0
C126 C 0.41206 0.59386 0.7911 0.0
C127 C 0.43423 0.58527 0.76879 0.0
C128 C 0.43443 0.55965 0.75124 0.0
C129 C 0.41048 0.62231 0.80612 0.0
C130 C 0.39963 0.62917 0.84069 0.0
C131 C 0.39838 0.65627 0.85418 0.0
C132 C 0.40854 0.67649 0.83294 0.0
C133 C 0.41876 0.66988 0.79835 0.0
C134 C 0.41946 0.643 0.78506 0.0
C135 C 0.42967 0.69051 0.77554 0.0
C136 C 0.41631 0.69549 0.74313 0.0
C137 C 0.45609 0.70088 0.78228 0.0
C138 C 0.47015 0.71361 0.75536 0.0
C139 C 0.45789 0.71624 0.72134 0.0
C140 C 0.38474 0.66393 0.88915 0.0
C141 C 0.359 0.65298 0.89726 0.0
C142 C 0.39578 0.68436 0.91271 0.0
C143 C 0.3805 0.69504 0.94215 0.0
C144 C 0.35381 0.68559 0.9485 0.0
C145 C 0.34366 0.66375 0.9266 0.0
C146 C 0.43019 0.70858 0.7164 0.0
H147 H 0.37451 0.53615 0.78503 0.0
H148 H 0.37338 0.58139 0.81387 0.0
H149 H 0.45132 0.59856 0.76426 0.0
H150 H 0.45126 0.55437 0.73304 0.0
H151 H 0.39242 0.61351 0.85728 0.0
H152 H 0.42706 0.63833 0.75794 0.0
H153 H 0.40758 0.69746 0.84263 0.0
H154 H 0.39588 0.68758 0.73753 0.0
H155 H 0.46678 0.69697 0.80705 0.0
H156 H 0.4915 0.71902 0.76013 0.0
H157 H 0.34988 0.63729 0.87961 0.0
H158 H 0.41575 0.69293 0.90744 0.0
H159 H 0.41994 0.7108 0.69083 0.0
H160 H 0.32322 0.65593 0.93103 0.0
H161 H 0.38882 0.71196 0.95837 0.0
C162 C 0.89256 0.85085 0.06352 0.0
C163 C 0.91288 0.83978 0.08526 0.0
C164 C 0.86657 0.85764 0.07762 0.0
C165 C 0.86037 0.85417 0.11408 0.0
C166 C 0.88011 0.84148 0.13505 0.0
C167 C 0.9058 0.83405 0.12069 0.0
C168 C 0.83477 0.86591 0.13115 0.0
C169 C 0.82222 0.85405 0.16027 0.0
C170 C 0.80047 0.86696 0.17941 0.0
C171 C 0.79065 0.89183 0.16873 0.0
C172 C 0.80222 0.90371 0.13889 0.0
C173 C 0.82414 0.89043 0.12031 0.0
C174 C 0.79219 0.93023 0.12733 0.0
C175 C 0.76407 0.93731 0.12874 0.0
C176 C 0.81084 0.94843 0.11341 0.0
C177 C 0.80166 0.97218 0.09955 0.0
C178 C 0.77355 0.9793 0.10039 0.0
C179 C 0.7887 0.85454 0.21121 0.0
C180 C 0.78128 0.82727 0.2088 0.0
C181 C 0.78591 0.86944 0.24445 0.0
C182 C 0.7762 0.85713 0.27485 0.0
C183 C 0.76873 0.82985 0.27233 0.0
C184 C 0.77129 0.81509 0.23897 0.0
C185 C 0.75489 0.96163 0.11567 0.0
H186 H 0.89707 0.8556 0.03612 0.0
H187 H 0.85169 0.8665 0.06013 0.0
H188 H 0.87644 0.83844 0.16323 0.0
H189 H 0.92051 0.82475 0.138 0.0
H190 H 0.82976 0.83497 0.16877 0.0
H191 H 0.83343 0.89961 0.0977 0.0
H192 H 0.77416 0.90193 0.18387 0.0
H193 H 0.74901 0.92381 0.13913 0.0
H194 H 0.83274 0.94427 0.11272 0.0
H195 H 0.81685 0.98457 0.0873 0.0
H196 H 0.78318 0.81534 0.1835 0.0
H197 H 0.79175 0.89044 0.24709 0.0
H198 H 0.73315 0.96639 0.11734 0.0
H199 H 0.76587 0.79398 0.23632 0.0
H200 H 0.77428 0.86898 0.3002 0.0
C201 C 0.53693 0.26937 0.63279 0.0
C202 C 0.52938 0.26756 0.59624 0.0
C203 C 0.5617 0.2813 0.64384 0.0
C204 C 0.57982 0.29157 0.6186 0.0
C205 C 0.57276 0.28883 0.58173 0.0
C206 C 0.54774 0.27689 0.57064 0.0
C207 C 0.60507 0.30626 0.63146 0.0
C208 C 0.61952 0.29787 0.66162 0.0
C209 C 0.64105 0.31331 0.6774 0.0
C210 C 0.64882 0.33718 0.66185 0.0
C211 C 0.63516 0.34547 0.631 0.0
C212 C 0.61344 0.32993 0.61589 0.0
C213 C 0.642 0.37144 0.61595 0.0
C214 C 0.63535 0.39567 0.63522 0.0
C215 C 0.65379 0.37218 0.58158 0.0
C216 C 0.659 0.39685 0.56676 0.0
C217 C 0.65188 0.42136 0.58563 0.0
C218 C 0.65471 0.30438 0.71053 0.0
C219 C 0.63884 0.29482 0.73868 0.0
C220 C 0.68354 0.30388 0.71349 0.0
C221 C 0.69621 0.29299 0.74321 0.0
C222 C 0.68034 0.28255 0.77083 0.0
C223 C 0.65148 0.2841 0.76846 0.0
C224 C 0.63993 0.4203 0.62013 0.0
H225 H 0.52314 0.26234 0.65308 0.0
H226 H 0.56603 0.28343 0.67248 0.0
H227 H 0.58631 0.29629 0.56152 0.0
H228 H 0.54224 0.27602 0.54231 0.0
H229 H 0.61388 0.2792 0.67313 0.0
H230 H 0.6022 0.33711 0.59314 0.0
H231 H 0.66511 0.34954 0.67402 0.0
H232 H 0.62586 0.3955 0.6616 0.0
H233 H 0.65903 0.35365 0.56625 0.0
H234 H 0.6687 0.3966 0.54052 0.0
H235 H 0.61655 0.29539 0.7375 0.0
H236 H 0.69631 0.31091 0.69214 0.0
H237 H 0.63343 0.43846 0.63534 0.0
H238 H 0.63859 0.27679 0.78948 0.0
H239 H 0.71849 0.29183 0.74382 0.0
C240 C 0.65505 0.4221 0.33959 0.0
C241 C 0.68118 0.43389 0.34408 0.0
C242 C 0.65191 0.39442 0.34033 0.0
C243 C 0.67477 0.37786 0.34577 0.0
C244 C 0.70113 0.38934 0.34854 0.0
C245 C 0.70431 0.41721 0.34785 0.0
C246 C 0.67048 0.34895 0.35049 0.0
C247 C 0.68611 0.32927 0.33127 0.0
C248 C 0.68009 0.30179 0.33338 0.0
C249 C 0.65796 0.29416 0.3552 0.0
C250 C 0.64299 0.31395 0.37575 0.0
C251 C 0.64951 0.34108 0.37326 0.0
C252 C 0.619 0.30786 0.39824 0.0
C253 C 0.59343 0.30284 0.38163 0.0
C254 C 0.6199 0.31461 0.43552 0.0
C255 C 0.59555 0.3181 0.45541 0.0
C256 C 0.56976 0.31529 0.43827 0.0
C257 C 0.69651 0.28181 0.31104 0.0
C258 C 0.68356 0.26273 0.28731 0.0
C259 C 0.72537 0.28398 0.31021 0.0
C260 C 0.74087 0.2684 0.28502 0.0
C261 C 0.72787 0.25033 0.2599 0.0
C262 C 0.69909 0.24721 0.26187 0.0
C263 C 0.56904 0.30657 0.40141 0.0
H264 H 0.63676 0.43436 0.33715 0.0
H265 H 0.6314 0.38599 0.33756 0.0
H266 H 0.71907 0.37692 0.35268 0.0
H267 H 0.72472 0.42577 0.35111 0.0
H268 H 0.7022 0.33543 0.31334 0.0
H269 H 0.63758 0.35631 0.38858 0.0
H270 H 0.65266 0.27313 0.35651 0.0
H271 H 0.59221 0.29835 0.35274 0.0
H272 H 0.63943 0.31905 0.44874 0.0
H273 H 0.59695 0.32423 0.48385 0.0
H274 H 0.66134 0.26076 0.2872 0.0
H275 H 0.7359 0.29847 0.32832 0.0
H276 H 0.54964 0.30446 0.3871 0.0
H277 H 0.6885 0.23318 0.24319 0.0
H278 H 0.76294 0.27144 0.28416 0.0
C279 C 0.06302 0.26995 0.0116 0.0
C280 C 0.06125 0.26244 0.04739 0.0
C281 C 0.08582 0.26256 0.99031 0.0
C282 C 0.10752 0.24763 0.00435 0.0
C283 C 0.10694 0.24239 0.04115 0.0
C284 C 0.084 0.24966 0.06243 0.0
C285 C 0.12884 0.23511 0.97973 0.0
C286 C 0.13875 0.2487 0.95038 0.0
C287 C 0.15654 0.23589 0.92489 0.0
C288 C 0.16483 0.20917 0.92916 0.0
C289 C 0.15515 0.19516 0.95837 0.0
C290 C 0.13731 0.20839 0.98352 0.0
C291 C 0.16196 0.16621 0.96168 0.0
C292 C 0.16045 0.14773 0.93151 0.0
C293 C 0.16829 0.15653 0.99551 0.0
C294 C 0.1724 0.12902 0.99924 0.0
C295 C 0.17009 0.11045 0.96927 0.0
C296 C 0.16564 0.25031 0.8932 0.0
C297 C 0.14631 0.26323 0.87196 0.0
C298 C 0.19365 0.2516 0.88428 0.0
C299 C 0.2022 0.26576 0.85493 0.0
C300 C 0.18289 0.27854 0.83327 0.0
C301 C 0.15479 0.27701 0.84222 0.0
C302 C 0.16437 0.12018 0.93528 0.0
H303 H 0.0457 0.27937 0.99892 0.0
H304 H 0.08535 0.26679 0.96208 0.0
H305 H 0.12361 0.23149 0.05307 0.0
H306 H 0.08329 0.24375 0.08998 0.0
H307 H 0.13256 0.26934 0.94721 0.0
H308 H 0.12877 0.19728 0.00503 0.0
H309 H 0.17837 0.19915 0.90938 0.0
H310 H 0.15536 0.15446 0.90514 0.0
H311 H 0.16979 0.17025 0.01924 0.0
H312 H 0.17661 0.12221 0.02582 0.0
H313 H 0.12453 0.26234 0.87809 0.0
H314 H 0.209 0.24209 0.90048 0.0
H315 H 0.16276 0.10645 0.91158 0.0
H316 H 0.13922 0.2861 0.82597 0.0
H317 H 0.22406 0.26693 0.84958 0.0
C318 C 0.36724 0.69437 0.45288 0.0
C319 C 0.38513 0.67233 0.45542 0.0
C320 C 0.33933 0.69029 0.44481 0.0
C321 C 0.32878 0.66409 0.43954 0.0
C322 C 0.34664 0.64209 0.44258 0.0
C323 C 0.3745 0.64616 0.45036 0.0
C324 C 0.29932 0.65948 0.43047 0.0
C325 C 0.28647 0.67355 0.40354 0.0
C326 C 0.25899 0.6681 0.39315 0.0
C327 C 0.24458 0.64769 0.41 0.0
C328 C 0.25722 0.63372 0.43746 0.0
C329 C 0.28442 0.63994 0.44756 0.0
C330 C 0.24363 0.61101 0.45433 0.0
C331 C 0.24389 0.60989 0.49208 0.0
C332 C 0.23537 0.58819 0.43298 0.0
C333 C 0.23002 0.56399 0.4489 0.0
C334 C 0.23262 0.56227 0.48646 0.0
C335 C 0.24616 0.68348 0.36409 0.0
C336 C 0.25267 0.71078 0.36122 0.0
C337 C 0.22857 0.67097 0.33799 0.0
C338 C 0.21844 0.68521 0.30932 0.0
C339 C 0.2258 0.71229 0.30582 0.0
C340 C 0.24293 0.72484 0.33241 0.0
C341 C 0.23832 0.5858 0.50801 0.0
H342 H 0.37494 0.71476 0.45637 0.0
H343 H 0.32599 0.7076 0.44283 0.0
H344 H 0.33916 0.62166 0.43831 0.0
H345 H 0.38777 0.6288 0.45239 0.0
H346 H 0.29839 0.68806 0.38964 0.0
H347 H 0.29435 0.62892 0.46827 0.0
H348 H 0.22355 0.64289 0.40226 0.0
H349 H 0.25021 0.62724 0.50913 0.0
H350 H 0.2352 0.58847 0.40383 0.0
H351 H 0.22537 0.54623 0.43165 0.0
H352 H 0.26566 0.72136 0.3811 0.0
H353 H 0.22318 0.64997 0.33909 0.0
H354 H 0.2406 0.58514 0.53695 0.0
H355 H 0.24948 0.74547 0.33067 0.0
H356 H 0.20492 0.67491 0.28983 0.0
C357 C 0.00593 0.77776 0.75496 0.0
C358 C 0.00283 0.77687 0.79252 0.0
C359 C 0.98531 0.78903 0.7343 0.0
C360 C 0.96144 0.79972 0.75102 0.0
C361 C 0.95711 0.7962 0.7878 0.0
C362 C 0.97759 0.78477 0.80838 0.0
C363 C 0.94385 0.81863 0.73211 0.0
C364 C 0.93259 0.81173 0.69796 0.0
C365 C 0.91698 0.83064 0.67978 0.0
C366 C 0.91393 0.85691 0.69572 0.0
C367 C 0.92482 0.86372 0.73001 0.0
C368 C 0.93952 0.84453 0.74809 0.0
C369 C 0.92049 0.8907 0.74771 0.0
C370 C 0.93167 0.91349 0.73293 0.0
C371 C 0.9063 0.89351 0.78062 0.0
C372 C 0.9033 0.9188 0.79858 0.0
C373 C 0.91499 0.94155 0.78427 0.0
C374 C 0.90188 0.82236 0.64598 0.0
C375 C 0.91316 0.80348 0.62026 0.0
C376 C 0.87491 0.83174 0.6407 0.0
C377 C 0.85912 0.82147 0.61166 0.0
C378 C 0.86976 0.80139 0.58727 0.0
C379 C 0.89721 0.79301 0.59127 0.0
C380 C 0.92919 0.93875 0.75132 0.0
H381 H 0.02513 0.7716 0.74205 0.0
H382 H 0.98909 0.79152 0.70596 0.0
H383 H 0.93871 0.80412 0.80118 0.0
H384 H 0.97464 0.78448 0.83726 0.0
H385 H 0.93518 0.79138 0.68634 0.0
H386 H 0.94835 0.8501 0.77436 0.0
H387 H 0.9025 0.87194 0.68198 0.0
H388 H 0.94286 0.91161 0.70767 0.0
H389 H 0.8976 0.87609 0.79244 0.0
H390 H 0.89235 0.92055 0.82402 0.0
H391 H 0.93405 0.7962 0.62308 0.0
H392 H 0.86528 0.84588 0.66016 0.0
H393 H 0.93823 0.95612 0.7398 0.0
H394 H 0.90599 0.77766 0.57274 0.0
H395 H 0.83787 0.82797 0.60979 0.0
C396 C 0.23368 0.91861 0.12286 0.0
C397 C 0.22604 0.89153 0.11876 0.0
C398 C 0.23598 0.93147 0.15736 0.0
C399 C 0.23041 0.91662 0.1878 0.0
C400 C 0.22955 0.88821 0.18359 0.0
C401 C 0.22727 0.87583 0.1487 0.0
C402 C 0.23886 0.96166 0.16068 0.0
C403 C 0.22596 0.87133 0.2155 0.0
C404 C 0.21603 0.96237 0.2713 0.0
C405 C 0.18782 0.96762 0.26657 0.0
C406 C 0.23014 0.94389 0.24775 0.0
C407 C 0.21572 0.93069 0.21864 0.0
C408 C 0.18679 0.93425 0.21572 0.0
C409 C 0.17331 0.95264 0.23964 0.0
C410 C 0.26065 0.93994 0.25304 0.0
C411 C 0.1702 0.92037 0.18548 0.0
H412 H 0.23342 0.93062 0.09948 0.0
H413 H 0.22195 0.85477 0.1456 0.0
H414 H 0.2182 0.97096 0.16487 0.0
H415 H 0.2519 0.96804 0.18419 0.0
H416 H 0.248 0.96944 0.13599 0.0
H417 H 0.23531 0.85111 0.20999 0.0
H418 H 0.23537 0.8811 0.24022 0.0
H419 H 0.20365 0.86853 0.22054 0.0
H420 H 0.22733 0.97344 0.29259 0.0
H421 H 0.15163 0.95665 0.23545 0.0
H422 H 0.27194 0.95649 0.24097 0.0
H423 H 0.26807 0.92051 0.24031 0.0
H424 H 0.26581 0.94082 0.28225 0.0
H425 H 0.17683 0.92762 0.15922 0.0
H426 H 0.14773 0.92419 0.18845 0.0
H427 H 0.17361 0.89833 0.18457 0.0
C428 C 0.57369 0.71244 0.56552 0.0
C429 C 0.59027 0.6923 0.57907 0.0
C430 C 0.54999 0.7218 0.58419 0.0
C431 C 0.543 0.71085 0.61728 0.0
C432 C 0.55984 0.6906 0.63102 0.0
C433 C 0.58323 0.68167 0.61182 0.0
C434 C 0.53311 0.74374 0.56861 0.0
C435 C 0.55305 0.67804 0.66595 0.0
C436 C 0.49795 0.73911 0.69315 0.0
C437 C 0.47552 0.72138 0.68977 0.0
C438 C 0.51898 0.73822 0.66713 0.0
C439 C 0.51755 0.71906 0.63741 0.0
C440 C 0.4934 0.70362 0.63167 0.0
C441 C 0.47271 0.70488 0.65791 0.0
C442 C 0.54388 0.75597 0.67314 0.0
C443 C 0.49073 0.68347 0.5999 0.0
H444 H 0.57945 0.72121 0.54065 0.0
H445 H 0.59595 0.66606 0.62239 0.0
H446 H 0.51134 0.74365 0.57759 0.0
H447 H 0.54214 0.7635 0.57752 0.0
H448 H 0.53365 0.74192 0.53864 0.0
H449 H 0.56852 0.66277 0.67306 0.0
H450 H 0.55197 0.69381 0.68837 0.0
H451 H 0.53258 0.66821 0.66378 0.0
H452 H 0.49992 0.75247 0.7172 0.0
H453 H 0.45558 0.69102 0.65479 0.0
H454 H 0.55015 0.7645 0.6475 0.0
H455 H 0.56136 0.74379 0.68248 0.0
H456 H 0.53996 0.77271 0.69371 0.0
H457 H 0.49932 0.69173 0.5753 0.0
H458 H 0.46894 0.67762 0.59473 0.0
H459 H 0.50263 0.6651 0.60536 0.0
C460 C 0.75879 0.11387 0.99951 0.0
C461 C 0.77322 0.10487 0.96829 0.0
C462 C 0.74634 0.09522 0.02127 0.0
C463 C 0.74944 0.06737 0.01189 0.0
C464 C 0.75855 0.05904 0.97671 0.0
C465 C 0.76964 0.07818 0.95479 0.0
C466 C 0.73328 0.10518 0.05641 0.0
C467 C 0.7608 0.02965 0.96439 0.0
C468 C 0.78217 0.02639 0.08283 0.0
C469 C 0.76423 0.0044 0.0837 0.0
C470 C 0.777 0.04753 0.06065 0.0
C471 C 0.75199 0.04805 0.04084 0.0
C472 C 0.73207 0.02779 0.04534 0.0
C473 C 0.73868 0.00586 0.06594 0.0
C474 C 0.79939 0.06824 0.05678 0.0
C475 C 0.70416 0.02827 0.0275 0.0
H476 H 0.76034 0.13473 0.00956 0.0
H477 H 0.77972 0.07142 0.92977 0.0
H478 H 0.71853 0.09027 0.06617 0.0
H479 H 0.74945 0.10899 0.07722 0.0
H480 H 0.72233 0.1245 0.05325 0.0
H481 H 0.7678 0.02664 0.93595 0.0
H482 H 0.77563 0.01944 0.9818 0.0
H483 H 0.74053 0.01976 0.96675 0.0
H484 H 0.80117 0.02652 0.09816 0.0
H485 H 0.72419 0.98941 0.06665 0.0
H486 H 0.79234 0.08805 0.06851 0.0
H487 H 0.8042 0.07041 0.0279 0.0
H488 H 0.81876 0.063 0.0707 0.0
H489 H 0.69969 0.04756 0.01524 0.0
H490 H 0.68792 0.02473 0.04768 0.0
H491 H 0.70278 0.01154 0.00639 0.0
C492 C 0.37724 0.26533 0.53494 0.0
C493 C 0.36276 0.25817 0.56548 0.0
C494 C 0.40476 0.25727 0.53015 0.0
C495 C 0.41701 0.2408 0.55543 0.0
C496 C 0.39981 0.22747 0.57922 0.0
C497 C 0.37269 0.23674 0.58462 0.0
C498 C 0.42185 0.27038 0.50253 0.0
C499 C 0.4114 0.20717 0.60358 0.0
C500 C 0.49584 0.24001 0.55735 0.0
C501 C 0.50104 0.25907 0.58595 0.0
C502 C 0.46865 0.23272 0.54772 0.0
C503 C 0.44627 0.24583 0.56608 0.0
C504 C 0.45168 0.26539 0.59471 0.0
C505 C 0.47887 0.27108 0.60484 0.0
C506 C 0.46443 0.21125 0.51778 0.0
C507 C 0.42888 0.28128 0.61407 0.0
H508 H 0.36918 0.28103 0.5189 0.0
H509 H 0.36103 0.23017 0.60732 0.0
H510 H 0.43513 0.25519 0.48797 0.0
H511 H 0.40893 0.2804 0.4826 0.0
H512 H 0.43535 0.28569 0.51645 0.0
H513 H 0.39513 0.19315 0.61175 0.0
H514 H 0.42837 0.19547 0.59001 0.0
H515 H 0.4198 0.21776 0.62837 0.0
H516 H 0.51301 0.23052 0.54284 0.0
H517 H 0.48286 0.28613 0.62661 0.0
H518 H 0.44301 0.20358 0.51627 0.0
H519 H 0.47862 0.1941 0.52144 0.0
H520 H 0.46979 0.21954 0.49165 0.0
H521 H 0.41514 0.29044 0.59431 0.0
H522 H 0.43692 0.29767 0.63284 0.0
H523 H 0.4163 0.26779 0.63 0.0
C524 C 0.64479 0.57759 0.41888 0.0
C525 C 0.65959 0.59928 0.40701 0.0
C526 C 0.6505 0.55137 0.40519 0.0
C527 C 0.67208 0.5469 0.37978 0.0
C528 C 0.68719 0.5689 0.36787 0.0
C529 C 0.68046 0.59501 0.38133 0.0
C530 C 0.6325 0.52886 0.41692 0.0
C531 C 0.71032 0.56486 0.34093 0.0
C532 C 0.69896 0.47563 0.37686 0.0
C533 C 0.68342 0.46357 0.34841 0.0
C534 C 0.69687 0.5033 0.38589 0.0
C535 C 0.67876 0.51911 0.36606 0.0
C536 C 0.66451 0.50739 0.33582 0.0
C537 C 0.66718 0.47975 0.32718 0.0
C538 C 0.7126 0.51533 0.41809 0.0
C539 C 0.64488 0.5236 0.31422 0.0
H540 H 0.62824 0.58122 0.43818 0.0
H541 H 0.69179 0.61207 0.3723 0.0
H542 H 0.61509 0.52607 0.39767 0.0
H543 H 0.64374 0.50951 0.41702 0.0
H544 H 0.6237 0.53365 0.44415 0.0
H545 H 0.72001 0.58415 0.33447 0.0
H546 H 0.72638 0.55164 0.3517 0.0
H547 H 0.70247 0.55463 0.31558 0.0
H548 H 0.7114 0.46323 0.39352 0.0
H549 H 0.65552 0.47054 0.30477 0.0
H550 H 0.69809 0.5249 0.4381 0.0
H551 H 0.72651 0.53135 0.4095 0.0
H552 H 0.72507 0.50011 0.43149 0.0
H553 H 0.62628 0.52866 0.33065 0.0
H554 H 0.63827 0.51243 0.28885 0.0
H555 H 0.65446 0.54282 0.30741 0.0
C556 C 0.90489 0.22404 0.04903 0.0
C557 C 0.90701 0.21688 0.01201 0.0
C558 C 0.92665 0.23773 0.06756 0.0
C559 C 0.95124 0.24323 0.04878 0.0
C560 C 0.9529 0.23668 0.01118 0.0
C561 C 0.93069 0.22414 0.99339 0.0
C562 C 0.92368 0.24575 0.10719 0.0
C563 C 0.97874 0.24148 0.98968 0.0
C564 C 0.01499 0.28333 0.06143 0.0
C565 C 0.03376 0.26215 0.06491 0.0
C566 C 0.98648 0.27881 0.06366 0.0
C567 C 0.97688 0.25238 0.06781 0.0
C568 C 0.9958 0.23251 0.07792 0.0
C569 C 0.02408 0.23777 0.07679 0.0
C570 C 0.96685 0.30121 0.05591 0.0
C571 C 0.98717 0.20406 0.08344 0.0
H572 H 0.88649 0.2188 0.06344 0.0
H573 H 0.93264 0.2187 0.96478 0.0
H574 H 0.94112 0.23775 0.12264 0.0
H575 H 0.92438 0.268 0.11122 0.0
H576 H 0.90403 0.23856 0.11842 0.0
H577 H 0.97679 0.23422 0.96089 0.0
H578 H 0.98349 0.26327 0.99063 0.0
H579 H 0.99656 0.23104 1.00133 0.0
H580 H 0.0224 0.3026 0.0535 0.0
H581 H 0.03837 0.22135 0.08026 0.0
H582 H 0.9469 0.29882 0.0699 0.0
H583 H 0.96277 0.30082 0.02648 0.0
H584 H 0.97576 0.32114 0.0644 0.0
H585 H 0.96469 0.20171 0.08641 0.0
H586 H 0.99744 0.19709 0.10789 0.0
H587 H 0.99407 0.19086 0.05996 0.0
C588 C 0.24655 0.41277 0.55049 0.0
C589 C 0.27187 0.41175 0.56844 0.0
C590 C 0.23425 0.43756 0.54392 0.0
C591 C 0.24811 0.46175 0.5547 0.0
C592 C 0.27197 0.46068 0.57667 0.0
C593 C 0.28351 0.43559 0.5834 0.0
C594 C 0.20831 0.43773 0.52154 0.0
C595 C 0.28746 0.48585 0.5889 0.0
C596 C 0.25015 0.51517 0.48632 0.0
C597 C 0.23362 0.53563 0.50249 0.0
C598 C 0.25452 0.491 0.50286 0.0
C599 C 0.24172 0.48685 0.53634 0.0
C600 C 0.22409 0.50697 0.55222 0.0
C601 C 0.22052 0.5313 0.53532 0.0
C602 C 0.27371 0.47026 0.48497 0.0
C603 C 0.20962 0.50315 0.58743 0.0
H604 H 0.23776 0.39431 0.53847 0.0
H605 H 0.30338 0.43477 0.59671 0.0
H606 H 0.19453 0.45453 0.53099 0.0
H607 H 0.21376 0.44064 0.49304 0.0
H608 H 0.1969 0.41848 0.52239 0.0
H609 H 0.30237 0.48212 0.61078 0.0
H610 H 0.29905 0.49317 0.56573 0.0
H611 H 0.27308 0.50205 0.59858 0.0
H612 H 0.26077 0.51855 0.46134 0.0
H613 H 0.20769 0.54705 0.54794 0.0
H614 H 0.26276 0.45088 0.47978 0.0
H615 H 0.29131 0.46658 0.50314 0.0
H616 H 0.28198 0.47659 0.45896 0.0
H617 H 0.20033 0.48281 0.58732 0.0
H618 H 0.19321 0.51843 0.59302 0.0
H619 H 0.22476 0.50484 0.60984 0.0
C620 C 0.13481 0.78455 0.92309 0.0
C621 C 0.12879 0.80731 0.94578 0.0
C622 C 0.11455 0.77289 0.90006 0.0
C623 C 0.08811 0.78493 0.89905 0.0
C624 C 0.08161 0.807 0.92353 0.0
C625 C 0.10213 0.81795 0.94648 0.0
C626 C 0.12195 0.74879 0.87529 0.0
C627 C 0.05379 0.82067 0.92334 0.0
C628 C 0.05061 0.78908 0.81054 0.0
C629 C 0.02717 0.77349 0.81595 0.0
C630 C 0.07141 0.79166 0.83662 0.0
C631 C 0.06899 0.7779 0.86867 0.0
C632 C 0.04654 0.7603 0.87296 0.0
C633 C 0.02562 0.75858 0.84669 0.0
C634 C 0.09478 0.81097 0.83112 0.0
C635 C 0.04371 0.74463 0.90621 0.0
H636 H 0.15556 0.77641 0.92257 0.0
H637 H 0.09791 0.83617 0.96288 0.0
H638 H 0.10482 0.73404 0.87368 0.0
H639 H 0.12557 0.7553 0.84768 0.0
H640 H 0.14091 0.73863 0.88437 0.0
H641 H 0.05112 0.83552 0.9467 0.0
H642 H 0.05147 0.83131 0.89813 0.0
H643 H 0.037 0.80567 0.92389 0.0
H644 H 0.05172 0.80098 0.78714 0.0
H645 H 0.00755 0.74642 0.85086 0.0
H646 H 0.11491 0.80099 0.83501 0.0
H647 H 0.09336 0.82824 0.85143 0.0
H648 H 0.09448 0.81887 0.80381 0.0
H649 H 0.06393 0.73646 0.91428 0.0
H650 H 0.0289 0.72776 0.90191 0.0
H651 H 0.03612 0.75816 0.92894 0.0
C652 C 0.89735 0.09366 0.85894 0.0
C653 C 0.89248 0.09602 0.89622 0.0
C654 C 0.90292 0.06859 0.84115 0.0
C655 C 0.90429 0.04543 0.86127 0.0
C656 C 0.90089 0.0479 0.8992 0.0
C657 C 0.89467 0.07315 0.9162 0.0
C658 C 0.90591 0.06671 0.80058 0.0
C659 C 0.9029 0.02374 0.92165 0.0
C660 C 0.8863 0.97848 0.81282 0.0
C661 C 0.91239 0.96811 0.80393 0.0
C662 C 0.8834 0.00367 0.8315 0.0
C663 C 0.90725 0.01845 0.84222 0.0
C664 C 0.9337 0.00779 0.83382 0.0
C665 C 0.93595 0.98281 0.81431 0.0
C666 C 0.85483 0.01462 0.83929 0.0
C667 C 0.95956 0.02269 0.84555 0.0
H668 H 0.89551 0.11124 0.84331 0.0
H669 H 0.89109 0.07491 0.94505 0.0
H670 H 0.92542 0.05636 0.79259 0.0
H671 H 0.88879 0.05455 0.7883 0.0
H672 H 0.90565 0.08678 0.78914 0.0
H673 H 0.90284 0.0295 0.95104 0.0
H674 H 0.88522 0.01014 0.9155 0.0
H675 H 0.92198 0.01218 0.91493 0.0
H676 H 0.86813 0.96703 0.8046 0.0
H677 H 0.95613 0.97452 0.80767 0.0
H678 H 0.85222 0.0342 0.827 0.0
H679 H 0.85191 0.0183 0.8688 0.0
H680 H 0.83846 0.00071 0.82869 0.0
H681 H 0.96042 0.04227 0.83294 0.0
H682 H 0.97852 0.01111 0.83816 0.0
H683 H 0.95934 0.0271 0.87522 0.0
C684 C 0.42223 0.37376 0.49513 0.0
C685 C 0.41183 0.36326 0.52658 0.0
C686 C 0.44951 0.36884 0.48398 0.0
C687 C 0.46687 0.35284 0.50459 0.0
C688 C 0.4572 0.34407 0.53785 0.0
C689 C 0.42979 0.34944 0.54857 0.0
C690 C 0.45902 0.37892 0.44862 0.0
C691 C 0.47505 0.32706 0.5606 0.0
C692 C 0.51924 0.30983 0.45044 0.0
C693 C 0.54388 0.3237 0.45768 0.0
C694 C 0.49416 0.31909 0.46535 0.0
C695 C 0.4936 0.34254 0.48916 0.0
C696 C 0.51851 0.35642 0.49718 0.0
C697 C 0.54328 0.34689 0.48133 0.0
C698 C 0.46857 0.30369 0.45393 0.0
C699 C 0.51881 0.38209 0.52107 0.0
H700 H 0.40855 0.38463 0.47808 0.0
H701 H 0.42193 0.34108 0.57276 0.0
H702 H 0.47998 0.38763 0.45137 0.0
H703 H 0.46004 0.36179 0.42804 0.0
H704 H 0.44483 0.39436 0.43866 0.0
H705 H 0.46619 0.32529 0.58787 0.0
H706 H 0.47714 0.30672 0.54688 0.0
H707 H 0.49607 0.33556 0.56362 0.0
H708 H 0.51934 0.2918 0.4325 0.0
H709 H 0.56204 0.35824 0.48649 0.0
H710 H 0.46653 0.3033 0.42411 0.0
H711 H 0.44933 0.31214 0.46596 0.0
H712 H 0.4709 0.2825 0.46102 0.0
H713 H 0.50734 0.39797 0.50764 0.0
H714 H 0.54007 0.38936 0.52689 0.0
H715 H 0.50827 0.37916 0.547 0.0
C716 C 0.16963 0.95486 0.01653 0.0
C717 C 0.18508 0.93909 0.99118 0.0
C718 C 0.16719 0.98286 0.01418 0.0
C719 C 0.18065 0.99547 0.98594 0.0
C720 C 0.1966 0.97972 0.96062 0.0
C721 C 0.19855 0.95179 0.96348 0.0
C722 C 0.14992 0.99891 0.04165 0.0
C723 C 0.21144 0.99235 0.93026 0.0
C724 C 0.15425 0.0628 0.95658 0.0
C725 C 0.17287 0.08099 0.97363 0.0
C726 C 0.15633 0.03501 0.96075 0.0
C727 C 0.17768 0.02505 0.98233 0.0
C728 C 0.19652 0.0433 0.99968 0.0
C729 C 0.19384 0.07103 0.99522 0.0
C730 C 0.13568 0.01629 0.94201 0.0
C731 C 0.21971 0.03351 0.02264 0.0
H732 H 0.15915 0.94529 0.03804 0.0
H733 H 0.21064 0.93987 0.94382 0.0
H734 H 0.16252 0.01501 0.05547 0.0
H735 H 0.13273 0.00887 0.02791 0.0
H736 H 0.14116 0.9862 0.06231 0.0
H737 H 0.22364 0.97744 0.9134 0.0
H738 H 0.19633 0.002 0.91269 0.0
H739 H 0.2255 0.00835 0.94132 0.0
H740 H 0.13773 0.07035 0.94032 0.0
H741 H 0.20846 0.08491 0.00824 0.0
H742 H 0.12502 0.00444 0.96209 0.0
H743 H 0.14643 0.00179 0.92294 0.0
H744 H 0.11996 0.02726 0.92682 0.0
H745 H 0.2113 0.02188 0.04463 0.0
H746 H 0.23235 0.05029 0.03482 0.0
H747 H 0.23332 0.01975 0.00606 0.0
C748 C 0.54402 0.70945 0.45725 0.0
C749 C 0.55999 0.69106 0.47524 0.0
C750 C 0.51519 0.70883 0.45888 0.0
C751 C 0.5021 0.6889 0.47827 0.0
C752 C 0.51823 0.67138 0.49841 0.0
C753 C 0.54709 0.67285 0.4969 0.0
C754 C 0.49874 0.72825 0.43777 0.0
C755 C 0.50539 0.64945 0.51896 0.0
C756 C 0.42425 0.69513 0.4892 0.0
C757 C 0.41499 0.67646 0.46207 0.0
C758 C 0.45252 0.69924 0.49538 0.0
C759 C 0.47198 0.6844 0.47367 0.0
C760 C 0.46264 0.66567 0.44606 0.0
C761 C 0.43431 0.66181 0.44078 0.0
C762 C 0.46087 0.71985 0.52485 0.0
C763 C 0.48258 0.65018 0.42134 0.0
H764 H 0.55412 0.72356 0.44056 0.0
H765 H 0.55948 0.65841 0.51049 0.0
H766 H 0.48708 0.71699 0.41599 0.0
H767 H 0.48354 0.73905 0.4557 0.0
H768 H 0.51201 0.7433 0.42542 0.0
H769 H 0.51844 0.64462 0.5423 0.0
H770 H 0.48442 0.65497 0.52875 0.0
H771 H 0.50371 0.63091 0.50091 0.0
H772 H 0.40939 0.70644 0.50586 0.0
H773 H 0.42721 0.6477 0.41936 0.0
H774 H 0.45265 0.73985 0.51855 0.0
H775 H 0.48342 0.72153 0.52858 0.0
H776 H 0.45139 0.71476 0.55074 0.0
H777 H 0.49592 0.66437 0.40752 0.0
H778 H 0.47192 0.63697 0.40054 0.0
H779 H 0.4962 0.63752 0.43728 0.0
C780 C 0.39695 0.38956 0.68509 0.0
C781 C 0.39185 0.38608 0.64787 0.0
C782 C 0.40502 0.41454 0.70104 0.0
C783 C 0.40872 0.43647 0.67913 0.0
C784 C 0.40681 0.43226 0.64112 0.0
C785 C 0.39821 0.4071 0.62588 0.0
C786 C 0.40676 0.41807 0.74168 0.0
C787 C 0.41157 0.45488 0.61671 0.0
C788 C 0.38693 0.50405 0.72281 0.0
C789 C 0.41208 0.51488 0.73543 0.0
C790 C 0.38573 0.47884 0.70383 0.0
C791 C 0.41035 0.46421 0.69643 0.0
C792 C 0.43592 0.47534 0.70785 0.0
C793 C 0.43646 0.50035 0.72762 0.0
C794 C 0.35795 0.46763 0.69232 0.0
C795 C 0.46265 0.46063 0.69975 0.0
H796 H 0.39254 0.37334 0.70232 0.0
H797 H 0.39469 0.40459 0.59705 0.0
H798 H 0.42568 0.42914 0.75021 0.0
H799 H 0.38888 0.43014 0.75205 0.0
H800 H 0.40663 0.3985 0.75447 0.0
H801 H 0.41521 0.44722 0.58836 0.0
H802 H 0.39315 0.46814 0.6172 0.0
H803 H 0.42942 0.46733 0.62608 0.0
H804 H 0.36804 0.51532 0.72766 0.0
H805 H 0.45602 0.50829 0.73741 0.0
H806 H 0.35436 0.44831 0.70487 0.0
H807 H 0.35745 0.46342 0.66264 0.0
H808 H 0.34078 0.4816 0.70005 0.0
H809 H 0.46384 0.44252 0.71558 0.0
H810 H 0.4809 0.47341 0.70645 0.0
H811 H 0.46362 0.45368 0.67079 0.0
C812 C 0.06242 0.87433 0.02686 0.0
C813 C 0.08222 0.85415 0.03021 0.0
C814 C 0.03425 0.86861 0.029 0.0
C815 C 0.02574 0.84215 0.0353 0.0
C816 C 0.04556 0.82123 0.03554 0.0
C817 C 0.07366 0.82749 0.03286 0.0
C818 C 0.01377 0.89139 0.0276 0.0
C819 C 0.03741 0.79273 0.04198 0.0
C820 C 0.9637 0.84272 0.09673 0.0
C821 C 0.94199 0.83689 0.07249 0.0
C822 C 0.99111 0.8429 0.08509 0.0
C823 C 0.99715 0.83774 0.04803 0.0
C824 C 0.97562 0.83092 0.02344 0.0
C825 C 0.94828 0.8304 0.036 0.0
C826 C 0.0135 0.84994 0.11237 0.0
C827 C 0.98132 0.82533 0.98373 0.0
H828 H 0.06899 0.8949 0.02419 0.0
H829 H 0.08895 0.81178 0.03523 0.0
H830 H 0.99586 0.88523 0.01048 0.0
H831 H 0.00594 0.89678 0.05518 0.0
H832 H 0.02313 0.90961 0.01696 0.0
H833 H 0.05393 0.77817 0.0336 0.0
H834 H 0.03346 0.79114 0.07119 0.0
H835 H 0.01821 0.78698 0.02726 0.0
H836 H 0.95932 0.84837 0.12478 0.0
H837 H 0.93181 0.82541 0.01705 0.0
H838 H 0.02245 0.86978 0.10707 0.0
H839 H 0.03038 0.83487 0.10994 0.0
H840 H 0.00571 0.85092 0.14054 0.0
H841 H 0.9881 0.84412 0.9719 0.0
H842 H 0.96285 0.81761 0.96876 0.0
H843 H 0.99829 0.8105 0.97962 0.0
C844 C 0.69012 0.56541 0.51163 0.0
C845 C 0.66607 0.58095 0.51102 0.0
C846 C 0.68892 0.53777 0.51734 0.0
C847 C 0.66316 0.52574 0.52409 0.0
C848 C 0.63872 0.5411 0.52123 0.0
C849 C 0.64048 0.56849 0.5144 0.0
C850 C 0.71539 0.5219 0.51849 0.0
C851 C 0.61083 0.52923 0.52827 0.0
C852 C 0.65413 0.45013 0.53188 0.0
C853 C 0.65631 0.44783 0.56934 0.0
C854 C 0.65744 0.47502 0.5165 0.0
C855 C 0.66198 0.49857 0.53911 0.0
C856 C 0.66448 0.49641 0.57684 0.0
C857 C 0.66212 0.47114 0.59133 0.0
C858 C 0.65535 0.476 0.47612 0.0
C859 C 0.6691 0.52094 0.60215 0.0
H860 H 0.70994 0.57514 0.50933 0.0
H861 H 0.62193 0.58067 0.51447 0.0
H862 H 0.72103 0.51908 0.54695 0.0
H863 H 0.71283 0.50166 0.50463 0.0
H864 H 0.73264 0.53234 0.50564 0.0
H865 H 0.59374 0.54314 0.52226 0.0
H866 H 0.60803 0.51013 0.51169 0.0
H867 H 0.60943 0.52451 0.55703 0.0
H868 H 0.64924 0.43257 0.51437 0.0
H869 H 0.66473 0.46977 0.62011 0.0
H870 H 0.67014 0.49064 0.46598 0.0
H871 H 0.63425 0.48239 0.46898 0.0
H872 H 0.65932 0.456 0.4621 0.0
H873 H 0.68867 0.53087 0.59537 0.0
H874 H 0.66996 0.51596 0.63086 0.0
H875 H 0.65225 0.53572 0.59898 0.0
C876 C 0.91588 0.15231 0.07944 0.0
C877 C 0.91313 0.13188 0.05193 0.0
C878 C 0.93487 0.14984 0.10776 0.0
C879 C 0.95154 0.12644 0.10849 0.0
C880 C 0.94926 0.1061 0.08032 0.0
C881 C 0.93023 0.10911 0.05239 0.0
C882 C 0.93638 0.17186 0.13754 0.0
C883 C 0.9665 0.0808 0.08005 0.0
C884 C 0.01768 0.12638 0.16394 0.0
C885 C 0.00866 0.11597 0.19608 0.0
C886 C -0.00054 0.12987 0.13522 0.0
C887 C 0.97128 0.12308 0.13877 0.0
C888 C 0.96212 0.11214 0.17098 0.0
C889 C 0.98087 0.10887 0.19928 0.0
C890 C 0.01131 0.13948 0.10077 0.0
C891 C 0.93278 0.1028 0.17499 0.0
H892 H 0.90247 0.16975 0.07962 0.0
H893 H 0.9283 0.09323 0.03121 0.0
H894 H 0.92705 0.16479 0.16244 0.0
H895 H 0.95813 0.1771 0.14386 0.0
H896 H 0.92516 0.19022 0.13043 0.0
H897 H 0.96055 0.06588 0.05793 0.0
H898 H 0.98852 0.08593 0.07667 0.0
H899 H 0.96448 0.0713 0.10616 0.0
H900 H 0.0393 0.1311 0.1607 0.0
H901 H 0.97378 0.10065 0.22395 0.0
H902 H 0.99543 0.14588 0.08164 0.0
H903 H 0.02347 0.1229 0.08714 0.0
H904 H 0.02582 0.15636 0.10692 0.0
H905 H 0.91827 0.11975 0.17213 0.0
H906 H 0.92907 0.09424 0.20145 0.0
H907 H 0.92788 0.08723 0.15323 0.0
C908 C 0.20731 0.80064 0.13433 0.0
C909 C 0.17964 0.80668 0.1275 0.0
C910 C 0.21468 0.78389 0.16186 0.0
C911 C 0.19384 0.77249 0.18273 0.0
C912 C 0.16581 0.77754 0.17485 0.0
C913 C 0.15906 0.7948 0.14762 0.0
C914 C 0.24483 0.77947 0.16965 0.0
C915 C 0.14292 0.76525 0.19577 0.0
C916 C 0.21378 0.71438 0.23977 0.0
C917 C 0.21634 0.72735 0.27436 0.0
C918 C 0.20607 0.72867 0.20981 0.0
C919 C 0.20132 0.75674 0.21425 0.0
C920 C 0.20374 0.76995 0.24899 0.0
C921 C 0.21081 0.75509 0.27857 0.0
C922 C 0.20323 0.71377 0.17332 0.0
C923 C 0.19923 0.79993 0.25487 0.0
H924 H 0.22333 0.80995 0.11919 0.0
H925 H 0.13761 0.7992 0.14229 0.0
H926 H 0.25006 0.78927 0.19645 0.0
H927 H 0.24934 0.7577 0.17075 0.0
H928 H 0.25839 0.78783 0.14906 0.0
H929 H 0.12229 0.76916 0.18419 0.0
H930 H 0.14598 0.74319 0.19621 0.0
H931 H 0.14328 0.77364 0.22416 0.0
H932 H 0.21833 0.6931 0.23585 0.0
H933 H 0.21203 0.76536 0.30512 0.0
H934 H 0.21851 0.72143 0.15433 0.0
H935 H 0.18249 0.71736 0.16196 0.0
H936 H 0.20635 0.69175 0.17463 0.0
H937 H 0.21356 0.81073 0.23764 0.0
H938 H 0.20249 0.80729 0.28342 0.0
H939 H 0.17799 0.80522 0.24685 0.0
C940 C 0.74564 0.71552 0.49482 0.0
C941 C 0.72888 0.71529 0.52543 0.0
C942 C 0.77012 0.73058 0.49543 0.0
C943 C 0.77787 0.74545 0.5276 0.0
C944 C 0.7604 0.74589 0.55817 0.0
C945 C 0.73618 0.73074 0.55669 0.0
C946 C 0.78782 0.73013 0.46204 0.0
C947 C 0.76785 0.76143 0.5931 0.0
C948 C 0.84986 0.75841 0.56123 0.0
C949 C 0.85073 0.78656 0.56188 0.0
C950 C 0.82732 0.74422 0.54615 0.0
C951 C 0.80526 0.75857 0.53134 0.0
C952 C 0.80773 0.78655 0.52773 0.0
C953 C 0.83041 0.80032 0.54334 0.0
C954 C 0.82574 0.71425 0.54987 0.0
C955 C 0.78515 0.80238 0.51078 0.0
H956 H 0.74031 0.70287 0.47109 0.0
H957 H 0.72314 0.73052 0.58036 0.0
H958 H 0.78612 0.74982 0.44984 0.0
H959 H 0.80983 0.72703 0.46876 0.0
H960 H 0.7814 0.71414 0.44158 0.0
H961 H 0.75143 0.76053 0.6138 0.0
H962 H 0.78712 0.75316 0.60418 0.0
H963 H 0.77166 0.78283 0.5882 0.0
H964 H 0.86548 0.74762 0.57544 0.0
H965 H 0.83133 0.82205 0.54309 0.0
H966 H 0.81807 0.70382 0.52457 0.0
H967 H 0.81101 0.71014 0.57168 0.0
H968 H 0.84607 0.70558 0.55665 0.0
H969 H 0.77577 0.79068 0.48752 0.0
H970 H 0.79296 0.82174 0.50157 0.0
H971 H 0.7687 0.80692 0.53099 0.0
C972 C 0.79987 0.156 0.10599 0.0
C973 C 0.81794 0.16981 0.08424 0.0
C974 C 0.7868 0.16902 0.13585 0.0
C975 C 0.79187 0.19664 0.14437 0.0
C976 C 0.8109 0.21053 0.12339 0.0
C977 C 0.82372 0.19693 0.0935 0.0
C978 C 0.76679 0.15338 0.15751 0.0
C979 C 0.81692 0.23997 0.13166 0.0
C980 C 0.73439 0.23481 0.1949 0.0
C981 C 0.74418 0.23612 0.23053 0.0
C982 C 0.74998 0.22252 0.16657 0.0
C983 C 0.77599 0.21114 0.17398 0.0
C984 C 0.78604 0.21241 0.20986 0.0
C985 C 0.77004 0.22492 0.23768 0.0
C986 C 0.73854 0.22163 0.12867 0.0
C987 C 0.81353 0.20029 0.2189 0.0
H988 H 0.79533 0.135 0.09921 0.0
H989 H 0.83753 0.20776 0.07674 0.0
H990 H 0.76647 0.13164 0.14873 0.0
H991 H 0.77219 0.15548 0.18658 0.0
H992 H 0.7457 0.16161 0.15461 0.0
H993 H 0.83403 0.24718 0.11497 0.0
H994 H 0.79821 0.252 0.12651 0.0
H995 H 0.82232 0.24379 0.16056 0.0
H996 H 0.71469 0.24385 0.18903 0.0
H997 H 0.77767 0.2257 0.26517 0.0
H998 H 0.73582 0.20043 0.11829 0.0
H999 H 0.75326 0.23107 0.11049 0.0
H1000 H 0.71839 0.23213 0.12725 0.0
H1001 H 0.81319 0.17827 0.21215 0.0
H1002 H 0.81889 0.20387 0.24789 0.0
H1003 H 0.83003 0.20883 0.20246 0.0
C1004 C 0.26283 0.3618 0.69354 0.0
C1005 C 0.26015 0.34987 0.65857 0.0
C1006 C 0.24463 0.35532 0.72099 0.0
C1007 C 0.22307 0.3368 0.71288 0.0
C1008 C 0.21763 0.32844 0.67639 0.0
C1009 C 0.2365 0.33488 0.64956 0.0
C1010 C 0.2511 0.36505 0.75935 0.0
C1011 C 0.19409 0.30975 0.66629 0.0
C1012 C 0.21467 0.28355 0.78076 0.0
C1013 C 0.19211 0.29314 0.80141 0.0
C1014 C 0.22459 0.2975 0.75184 0.0
C1015 C 0.21122 0.32141 0.74239 0.0
C1016 C 0.18775 0.33071 0.76206 0.0
C1017 C 0.17871 0.3167 0.79162 0.0
C1018 C 0.24978 0.28676 0.73175 0.0
C1019 C 0.17252 0.35575 0.75256 0.0
H1020 H 0.28132 0.37316 0.70056 0.0
H1021 H 0.23453 0.3254 0.62258 0.0
H1022 H 0.23201 0.37056 0.77441 0.0
H1023 H 0.26132 0.34861 0.77323 0.0
H1024 H 0.26508 0.3827 0.76054 0.0
H1025 H 0.18874 0.31029 0.63725 0.0
H1026 H 0.20008 0.28885 0.67158 0.0
H1027 H 0.17556 0.31506 0.68273 0.0
H1028 H 0.22473 0.26501 0.78718 0.0
H1029 H 0.16143 0.32458 0.80743 0.0
H1030 H 0.26626 0.30219 0.733 0.0
H1031 H 0.24468 0.28218 0.7029 0.0
H1032 H 0.25804 0.2682 0.74293 0.0
H1033 H 0.18379 0.37374 0.76374 0.0
H1034 H 0.15136 0.35646 0.76397 0.0
H1035 H 0.17114 0.35704 0.72289 0.0
C1036 C 0.6933 0.76158 0.43411 0.0
C1037 C 0.69933 0.73409 0.42992 0.0
C1038 C 0.70831 0.78022 0.41523 0.0
C1039 C 0.72953 0.77091 0.39141 0.0
C1040 C 0.73751 0.7435 0.39024 0.0
C1041 C 0.72202 0.72532 0.40918 0.0
C1042 C 0.69932 0.80929 0.41759 0.0
C1043 C 0.7604 0.73282 0.36584 0.0
C1044 C 0.73409 0.8009 0.30044 0.0
C1045 C 0.75793 0.81659 0.30405 0.0
C1046 C 0.72433 0.78666 0.3291 0.0
C1047 C 0.73888 0.78796 0.3623 0.0
C1048 C 0.76256 0.8044 0.36654 0.0
C1049 C 0.77179 0.81864 0.33731 0.0
C1050 C 0.69874 0.76969 0.32348 0.0
C1051 C 0.77866 0.80623 0.40139 0.0
H1052 H 0.67537 0.76821 0.44967 0.0
H1053 H 0.72627 0.70394 0.40543 0.0
H1054 H 0.71736 0.82291 0.4178 0.0
H1055 H 0.68667 0.81322 0.39356 0.0
H1056 H 0.68675 0.81428 0.4421 0.0
H1057 H 0.7668 0.7122 0.37211 0.0
H1058 H 0.75331 0.73222 0.33738 0.0
H1059 H 0.77859 0.74624 0.36826 0.0
H1060 H 0.72313 0.79963 0.27493 0.0
H1061 H 0.79033 0.83067 0.34009 0.0
H1062 H 0.68325 0.7754 0.34455 0.0
H1063 H 0.70394 0.74817 0.32593 0.0
H1064 H 0.6892 0.77184 0.2966 0.0
H1065 H 0.76464 0.80886 0.42491 0.0
H1066 H 0.79361 0.82311 0.40247 0.0
H1067 H 0.79024 0.78723 0.40404 0.0
C1068 C 0.77991 0.18975 0.86815 0.0
C1069 C 0.7829 0.19251 0.90574 0.0
C1070 C 0.75936 0.20362 0.85048 0.0
C1071 C 0.74122 0.22084 0.87087 0.0
C1072 C 0.74273 0.22214 0.90914 0.0
C1073 C 0.76366 0.20786 0.92625 0.0
C1074 C 0.75843 0.20128 0.80971 0.0
C1075 C 0.72347 0.23992 0.93185 0.0
C1076 C 0.71865 0.27857 0.81591 0.0
C1077 C 0.69384 0.2688 0.80082 0.0
C1078 C 0.7333 0.26406 0.84095 0.0
C1079 C 0.72286 0.23917 0.8514 0.0
C1080 C 0.69692 0.23012 0.83824 0.0
C1081 C 0.6828 0.24493 0.81297 0.0
C1082 C 0.76086 0.27453 0.85438 0.0
C1083 C 0.68489 0.20387 0.84894 0.0
H1084 H 0.79465 0.17765 0.85227 0.0
H1085 H 0.76605 0.21011 0.95531 0.0
H1086 H 0.73725 0.19655 0.80013 0.0
H1087 H 0.76432 0.22078 0.79908 0.0
H1088 H 0.77261 0.18547 0.79808 0.0
H1089 H 0.72385 0.235 0.96061 0.0
H1090 H 0.72971 0.26122 0.93032 0.0
H1091 H 0.70204 0.23805 0.92159 0.0
H1092 H 0.72704 0.29729 0.80741 0.0
H1093 H 0.66374 0.23703 0.80144 0.0
H1094 H 0.77752 0.26145 0.84261 0.0
H1095 H 0.76218 0.27397 0.88414 0.0
H1096 H 0.76466 0.29546 0.84696 0.0
H1097 H 0.69606 0.18689 0.83471 0.0
H1098 H 0.66269 0.20212 0.84191 0.0
H1099 H 0.68735 0.20178 0.87833 0.0
C1100 C 0.28883 0.27498 0.45882 0.0
C1101 C 0.29344 0.28028 0.49584 0.0
C1102 C 0.27132 0.25411 0.44623 0.0
C1103 C 0.25768 0.23856 0.47134 0.0
C1104 C 0.26339 0.24289 0.50865 0.0
C1105 C 0.28146 0.26358 0.52045 0.0
C1106 C 0.26632 0.24965 0.40616 0.0
C1107 C 0.24907 0.22689 0.53626 0.0
C1108 C 0.1885 0.2111 0.43918 0.0
C1109 C 0.19503 0.18425 0.42938 0.0
C1110 C 0.20853 0.22873 0.45412 0.0
C1111 C 0.23585 0.21937 0.45862 0.0
C1112 C 0.24244 0.19214 0.44925 0.0
C1113 C 0.22186 0.17483 0.43497 0.0
C1114 C 0.20061 0.25754 0.4644 0.0
C1115 C 0.2714 0.18156 0.45307 0.0
H1116 H 0.29825 0.28773 0.43971 0.0
H1117 H 0.28481 0.26771 0.54913 0.0
H1118 H 0.26853 0.22801 0.39756 0.0
H1119 H 0.24494 0.25571 0.39976 0.0
H1120 H 0.28074 0.26139 0.39013 0.0
H1121 H 0.25788 0.23076 0.56372 0.0
H1122 H 0.22688 0.23231 0.53715 0.0
H1123 H 0.25046 0.20503 0.52868 0.0
H1124 H 0.1677 0.21829 0.43503 0.0
H1125 H 0.22697 0.15411 0.42696 0.0
H1126 H 0.21178 0.27121 0.44708 0.0
H1127 H 0.20666 0.26297 0.49275 0.0
H1128 H 0.17814 0.26112 0.46149 0.0
H1129 H 0.28536 0.19182 0.43475 0.0
H1130 H 0.27276 0.15952 0.44655 0.0
H1131 H 0.27905 0.186 0.48096 0.0
C1132 C 0.27962 0.81167 0.02024 0.0
C1133 C 0.25347 0.809 0.03544 0.0
C1134 C 0.29784 0.78983 0.01696 0.0
C1135 C 0.28979 0.76484 0.02975 0.0
C1136 C 0.26521 0.76331 0.05006 0.0
C1137 C 0.24698 0.78535 0.05208 0.0
C1138 C 0.32402 0.79264 0.9956 0.0
C1139 C 0.25671 0.73761 0.06623 0.0
C1140 C 0.30928 0.70908 0.96109 0.0
C1141 C 0.33518 0.70134 0.97356 0.0
C1142 C 0.29334 0.72834 0.9807 0.0
C1143 C 0.30331 0.73992 0.01404 0.0
C1144 C 0.32826 0.73036 0.02842 0.0
C1145 C 0.34418 0.71146 0.0077 0.0
C1146 C 0.26691 0.73791 0.96407 0.0
C1147 C 0.33909 0.74116 0.06454 0.0
H1148 H 0.28478 0.83011 0.00775 0.0
H1149 H 0.22665 0.78299 0.0634 0.0
H1150 H 0.34173 0.78392 0.0097 0.0
H1151 H 0.3219 0.78144 0.96894 0.0
H1152 H 0.32871 0.81398 0.99104 0.0
H1153 H 0.24246 0.74172 0.08934 0.0
H1154 H 0.24583 0.72454 0.04554 0.0
H1155 H 0.27492 0.72641 0.07552 0.0
H1156 H 0.30231 0.70155 0.93461 0.0
H1157 H 0.36405 0.70528 0.01768 0.0
H1158 H 0.26906 0.75927 0.95767 0.0
H1159 H 0.24961 0.73675 0.98336 0.0
H1160 H 0.26142 0.72591 0.93886 0.0
H1161 H 0.35224 0.75894 0.06076 0.0
H1162 H 0.35198 0.72589 0.07724 0.0
H1163 H 0.32212 0.74745 0.08325 0.0
loop_
_geom_bond_atom_site_label_1
_geom_bond_atom_site_label_2
_geom_bond_distance
_geom_bond_site_symmetry_2
_ccdc_geom_bond_type
Zn0 O6 1.920 . S
Zn0 O12 1.898 . S
Zn0 O15 1.905 . S
Zn1 O9 1.905 . S
Zn1 O10 1.898 . S
Zn1 O18 1.920 . S
Zn2 O5 2.080 . S
Zn2 O8 2.114 . S
Zn2 O11 2.120 . S
Zn2 O13 2.120 . S
Zn2 O14 2.114 . S
Zn2 O17 2.080 . S
C3 O8 1.166 . S
C3 O9 1.182 1_554 S
C4 O10 1.167 . S
C4 O11 1.299 1_556 S
O5 Zn2 2.080 . S
O5 C19 1.305 . S
O6 Zn0 1.920 . S
O6 C19 1.234 . S
C7 O12 1.167 . S
C7 O13 1.299 . S
O8 Zn2 2.114 . S
O8 C3 1.166 . S
O9 Zn1 1.905 . S
O9 C3 1.182 1_556 S
O10 Zn1 1.898 . S
O10 C4 1.167 . S
O11 Zn2 2.120 . S
O11 C4 1.299 1_554 S
O12 Zn0 1.898 . S
O12 C7 1.167 . S
O13 Zn2 2.120 . S
O13 C7 1.299 . S
O14 Zn2 2.114 . S
O14 C16 1.166 . S
O15 Zn0 1.905 . S
O15 C16 1.182 . S
C16 O14 1.166 . S
C16 O15 1.182 . S
O17 Zn2 2.080 . S
O17 C20 1.305 . S
O18 Zn1 1.920 . S
O18 C20 1.234 1_556 S
C19 O5 1.305 . S
C19 O6 1.234 . S
C20 O17 1.305 . S
C20 O18 1.234 1_554 S
Zn21 O27 1.920 . S
Zn21 O33 1.898 . S
Zn21 O36 1.905 . S
Zn22 O30 1.905 . S
Zn22 O31 1.898 . S
Zn22 O39 1.920 . S
Zn23 O26 2.080 . S
Zn23 O29 2.114 . S
Zn23 O32 2.120 . S
Zn23 O34 2.120 . S
Zn23 O35 2.114 . S
Zn23 O38 2.080 . S
C24 O29 1.166 . S
C24 O30 1.182 . S
C25 O31 1.167 . S
C25 O32 1.299 . S
O26 Zn23 2.080 . S
O26 C40 1.305 . S
O27 Zn21 1.920 . S
O27 C40 1.234 . S
C28 O33 1.167 . S
C28 O34 1.299 . S
O29 Zn23 2.114 . S
O29 C24 1.166 . S
O30 Zn22 1.905 . S
O30 C24 1.182 . S
O31 Zn22 1.898 . S
O31 C25 1.167 . S
O32 Zn23 2.120 . S
O32 C25 1.299 . S
O33 Zn21 1.898 . S
O33 C28 1.167 . S
O34 Zn23 2.120 . S
O34 C28 1.299 . S
O35 Zn23 2.114 . S
O35 C37 1.166 . S
O36 Zn21 1.905 . S
O36 C37 1.182 . S
C37 O35 1.166 . S
C37 O36 1.182 . S
O38 Zn23 2.080 . S
O38 C41 1.305 . S
O39 Zn22 1.920 . S
O39 C41 1.234 . S
C40 O26 1.305 . S
C40 O27 1.234 . S
C41 O38 1.305 . S
C41 O39 1.234 . S
Zn42 O48 1.920 . S
Zn42 O54 1.898 . S
Zn42 O57 1.905 . S
Zn43 O51 1.905 . S
Zn43 O52 1.898 . S
Zn43 O60 1.920 . S
Zn44 O47 2.080 1_554 S
Zn44 O50 2.114 . S
Zn44 O53 2.120 . S
Zn44 O55 2.120 1_554 S
Zn44 O56 2.114 1_554 S
Zn44 O59 2.080 . S
C45 O50 1.166 . S
C45 O51 1.182 . S
C46 O52 1.167 . S
C46 O53 1.299 . S
O47 Zn44 2.080 1_556 S
O47 C61 1.305 . S
O48 Zn42 1.920 . S
O48 C61 1.234 . S
C49 O54 1.167 . S
C49 O55 1.299 . S
O50 Zn44 2.114 . S
O50 C45 1.166 . S
O51 Zn43 1.905 . S
O51 C45 1.182 . S
O52 Zn43 1.898 . S
O52 C46 1.167 . S
O53 Zn44 2.120 . S
O53 C46 1.299 . S
O54 Zn42 1.898 . S
O54 C49 1.167 . S
O55 Zn44 2.120 1_556 S
O55 C49 1.299 . S
O56 Zn44 2.114 1_556 S
O56 C58 1.166 . S
O57 Zn42 1.905 . S
O57 C58 1.182 . S
C58 O56 1.166 . S
C58 O57 1.182 . S
O59 Zn44 2.080 . S
O59 C62 1.305 . S
O60 Zn43 1.920 . S
O60 C62 1.234 . S
C61 O47 1.305 . S
C61 O48 1.234 . S
C62 O59 1.305 . S
C62 O60 1.234 . S
Zn63 O69 1.920 . S
Zn63 O75 1.898 . S
Zn63 O78 1.905 . S
Zn64 O72 1.905 . S
Zn64 O73 1.898 . S
Zn64 O81 1.920 . S
Zn65 O68 2.080 . S
Zn65 O71 2.114 . S
Zn65 O74 2.120 . S
Zn65 O76 2.120 . S
Zn65 O77 2.114 . S
Zn65 O80 2.080 . S
C66 O71 1.166 . S
C66 O72 1.182 . S
C67 O73 1.167 . S
C67 O74 1.299 . S
O68 Zn65 2.080 . S
O68 C82 1.305 . S
O69 Zn63 1.920 . S
O69 C82 1.234 . S
C70 O75 1.167 . S
C70 O76 1.299 . S
O71 Zn65 2.114 . S
O71 C66 1.166 . S
O72 Zn64 1.905 . S
O72 C66 1.182 . S
O73 Zn64 1.898 . S
O73 C67 1.167 . S
O74 Zn65 2.120 . S
O74 C67 1.299 . S
O75 Zn63 1.898 . S
O75 C70 1.167 . S
O76 Zn65 2.120 . S
O76 C70 1.299 . S
O77 Zn65 2.114 . S
O77 C79 1.166 . S
O78 Zn63 1.905 . S
O78 C79 1.182 . S
C79 O77 1.166 . S
C79 O78 1.182 . S
O80 Zn65 2.080 . S
O80 C83 1.305 . S
O81 Zn64 1.920 . S
O81 C83 1.234 . S
C82 O68 1.305 . S
C82 O69 1.234 . S
C83 O80 1.305 . S
C83 O81 1.234 . S
C84 C85 1.386 . S
C84 C86 1.397 . S
C84 H108 0.931 . S
C85 C84 1.386 . S
C85 C89 1.397 . S
C86 C84 1.397 . S
C86 C87 1.384 . S
C86 H109 0.930 . S
C87 C86 1.384 . S
C87 C88 1.377 . S
C87 C90 1.481 . S
C88 C87 1.377 . S
C88 C89 1.389 . S
C88 H110 0.929 . S
C89 C85 1.397 . S
C89 C88 1.389 . S
C89 H111 0.931 . S
C90 C87 1.481 . S
C90 C91 1.387 . S
C90 C95 1.390 . S
C91 C90 1.387 . S
C91 C92 1.401 . S
C91 H112 0.930 . S
C92 C91 1.401 . S
C92 C93 1.376 . S
C92 C101 1.511 . S
C93 C92 1.376 . S
C93 C94 1.392 . S
C93 H114 0.931 . S
C94 C93 1.392 . S
C94 C95 1.361 . S
C94 C96 1.500 . S
C95 C90 1.390 . S
C95 C94 1.361 . S
C95 H113 0.931 . S
C96 C94 1.500 . S
C96 C97 1.371 . S
C96 C98 1.365 . S
C97 C96 1.371 . S
C97 C107 1.386 . S
C97 H115 0.931 . S
C98 C96 1.365 . S
C98 C99 1.409 . S
C98 H116 0.929 . S
C99 C98 1.409 . S
C99 C100 1.380 . S
C99 H117 0.900 1_545 S
C100 C99 1.380 . S
C100 C107 1.357 . S
C101 C92 1.511 . S
C101 C102 1.341 . S
C101 C103 1.371 . S
C102 C101 1.341 . S
C102 C106 1.394 . S
C102 H118 0.930 . S
C103 C101 1.371 . S
C103 C104 1.392 . S
C103 H119 0.931 . S
C104 C103 1.392 . S
C104 C105 1.331 . S
C104 H122 0.932 . S
C105 C104 1.331 . S
C105 C106 1.336 . S
C106 C102 1.394 . S
C106 C105 1.336 . S
C106 H121 0.929 . S
C107 C97 1.386 . S
C107 C100 1.357 . S
C107 H120 0.928 . S
H108 C84 0.931 . S
H109 C86 0.930 . S
H110 C88 0.929 . S
H111 C89 0.931 . S
H112 C91 0.930 . S
H113 C95 0.931 . S
H114 C93 0.931 . S
H115 C97 0.931 . S
H116 C98 0.929 . S
H117 C99 0.900 1_565 S
H118 C102 0.930 . S
H119 C103 0.931 . S
H120 C107 0.928 . S
H121 C106 0.929 . S
H122 C104 0.932 . S
C123 C124 1.386 . S
C123 C125 1.397 . S
C123 H147 0.931 . S
C124 C123 1.386 . S
C124 C128 1.397 . S
C125 C123 1.397 . S
C125 C126 1.384 . S
C125 H148 0.930 . S
C126 C125 1.384 . S
C126 C127 1.377 . S
C126 C129 1.481 . S
C127 C126 1.377 . S
C127 C128 1.389 . S
C127 H149 0.929 . S
C128 C124 1.397 . S
C128 C127 1.389 . S
C128 H150 0.931 . S
C129 C126 1.481 . S
C129 C130 1.387 . S
C129 C134 1.390 . S
C130 C129 1.387 . S
C130 C131 1.401 . S
C130 H151 0.930 . S
C131 C130 1.401 . S
C131 C132 1.376 . S
C131 C140 1.511 . S
C132 C131 1.376 . S
C132 C133 1.392 . S
C132 H153 0.931 . S
C133 C132 1.392 . S
C133 C134 1.361 . S
C133 C135 1.500 . S
C134 C129 1.390 . S
C134 C133 1.361 . S
C134 H152 0.931 . S
C135 C133 1.500 . S
C135 C136 1.371 . S
C135 C137 1.365 . S
C136 C135 1.371 . S
C136 C146 1.386 . S
C136 H154 0.931 . S
C137 C135 1.365 . S
C137 C138 1.409 . S
C137 H155 0.929 . S
C138 C137 1.409 . S
C138 C139 1.380 . S
C138 H156 0.930 . S
C139 C138 1.380 . S
C139 C146 1.357 . S
C140 C131 1.511 . S
C140 C141 1.341 . S
C140 C142 1.371 . S
C141 C140 1.341 . S
C141 C145 1.394 . S
C141 H157 0.930 . S
C142 C140 1.371 . S
C142 C143 1.392 . S
C142 H158 0.931 . S
C143 C142 1.392 . S
C143 C144 1.331 . S
C143 H161 0.932 . S
C144 C143 1.331 . S
C144 C145 1.336 . S
C145 C141 1.394 . S
C145 C144 1.336 . S
C145 H160 0.929 . S
C146 C136 1.386 . S
C146 C139 1.357 . S
C146 H159 0.928 . S
H147 C123 0.931 . S
H148 C125 0.930 . S
H149 C127 0.929 . S
H150 C128 0.931 . S
H151 C130 0.930 . S
H152 C134 0.931 . S
H153 C132 0.931 . S
H154 C136 0.931 . S
H155 C137 0.929 . S
H156 C138 0.930 . S
H157 C141 0.930 . S
H158 C142 0.931 . S
H159 C146 0.928 . S
H160 C145 0.929 . S
H161 C143 0.932 . S
C162 C163 1.386 . S
C162 C164 1.397 . S
C162 H186 0.931 . S
C163 C162 1.386 . S
C163 C167 1.397 . S
C164 C162 1.397 . S
C164 C165 1.384 . S
C164 H187 0.930 . S
C165 C164 1.384 . S
C165 C166 1.377 . S
C165 C168 1.481 . S
C166 C165 1.377 . S
C166 C167 1.389 . S
C166 H188 0.929 . S
C167 C163 1.397 . S
C167 C166 1.389 . S
C167 H189 0.931 . S
C168 C165 1.481 . S
C168 C169 1.387 . S
C168 C173 1.390 . S
C169 C168 1.387 . S
C169 C170 1.401 . S
C169 H190 0.930 . S
C170 C169 1.401 . S
C170 C171 1.376 . S
C170 C179 1.511 . S
C171 C170 1.376 . S
C171 C172 1.392 . S
C171 H192 0.931 . S
C172 C171 1.392 . S
C172 C173 1.361 . S
C172 C174 1.500 . S
C173 C168 1.390 . S
C173 C172 1.361 . S
C173 H191 0.931 . S
C174 C172 1.500 . S
C174 C175 1.371 . S
C174 C176 1.365 . S
C175 C174 1.371 . S
C175 C185 1.386 . S
C175 H193 0.931 . S
C176 C174 1.365 . S
C176 C177 1.409 . S
C176 H194 0.929 . S
C177 C176 1.409 . S
C177 C178 1.380 . S
C177 H195 0.930 . S
C178 C177 1.380 . S
C178 C185 1.357 . S
C179 C170 1.511 . S
C179 C180 1.341 . S
C179 C181 1.371 . S
C180 C179 1.341 . S
C180 C184 1.394 . S
C180 H196 0.930 . S
C181 C179 1.371 . S
C181 C182 1.392 . S
C181 H197 0.931 . S
C182 C181 1.392 . S
C182 C183 1.331 . S
C182 H200 0.932 . S
C183 C182 1.331 . S
C183 C184 1.336 . S
C184 C180 1.394 . S
C184 C183 1.336 . S
C184 H199 0.929 . S
C185 C175 1.386 . S
C185 C178 1.357 . S
C185 H198 0.928 . S
H186 C162 0.931 . S
H187 C164 0.930 . S
H188 C166 0.929 . S
H189 C167 0.931 . S
H190 C169 0.930 . S
H191 C173 0.931 . S
H192 C171 0.931 . S
H193 C175 0.931 . S
H194 C176 0.929 . S
H195 C177 0.930 . S
H196 C180 0.930 . S
H197 C181 0.931 . S
H198 C185 0.928 . S
H199 C184 0.929 . S
H200 C182 0.932 . S
C201 C202 1.386 . S
C201 C203 1.397 . S
C201 H225 0.931 . S
C202 C201 1.386 . S
C202 C206 1.397 . S
C203 C201 1.397 . S
C203 C204 1.384 . S
C203 H226 0.930 . S
C204 C203 1.384 . S
C204 C205 1.377 . S
C204 C207 1.481 . S
C205 C204 1.377 . S
C205 C206 1.389 . S
C205 H227 0.929 . S
C206 C202 1.397 . S
C206 C205 1.389 . S
C206 H228 0.931 . S
C207 C204 1.481 . S
C207 C208 1.387 . S
C207 C212 1.390 . S
C208 C207 1.387 . S
C208 C209 1.401 . S
C208 H229 0.930 . S
C209 C208 1.401 . S
C209 C210 1.376 . S
C209 C218 1.511 . S
C210 C209 1.376 . S
C210 C211 1.392 . S
C210 H231 0.931 . S
C211 C210 1.392 . S
C211 C212 1.361 . S
C211 C213 1.500 . S
C212 C207 1.390 . S
C212 C211 1.361 . S
C212 H230 0.931 . S
C213 C211 1.500 . S
C213 C214 1.371 . S
C213 C215 1.365 . S
C214 C213 1.371 . S
C214 C224 1.386 . S
C214 H232 0.931 . S
C215 C213 1.365 . S
C215 C216 1.409 . S
C215 H233 0.929 . S
C216 C215 1.409 . S
C216 C217 1.380 . S
C216 H234 0.930 . S
C217 C216 1.380 . S
C217 C224 1.357 . S
C218 C209 1.511 . S
C218 C219 1.341 . S
C218 C220 1.371 . S
C219 C218 1.341 . S
C219 C223 1.394 . S
C219 H235 0.930 . S
C220 C218 1.371 . S
C220 C221 1.392 . S
C220 H236 0.931 . S
C221 C220 1.392 . S
C221 C222 1.331 . S
C221 H239 0.932 . S
C222 C221 1.331 . S
C222 C223 1.336 . S
C223 C219 1.394 . S
C223 C222 1.336 . S
C223 H238 0.929 . S
C224 C214 1.386 . S
C224 C217 1.357 . S
C224 H237 0.928 . S
H225 C201 0.931 . S
H226 C203 0.930 . S
H227 C205 0.929 . S
H228 C206 0.931 . S
H229 C208 0.930 . S
H230 C212 0.931 . S
H231 C210 0.931 . S
H232 C214 0.931 . S
H233 C215 0.929 . S
H234 C216 0.930 . S
H235 C219 0.930 . S
H236 C220 0.931 . S
H237 C224 0.928 . S
H238 C223 0.929 . S
H239 C221 0.932 . S
C240 C241 1.386 . S
C240 C242 1.397 . S
C240 H264 0.931 . S
C241 C240 1.386 . S
C241 C245 1.397 . S
C242 C240 1.397 . S
C242 C243 1.384 . S
C242 H265 0.930 . S
C243 C242 1.384 . S
C243 C244 1.377 . S
C243 C246 1.481 . S
C244 C243 1.377 . S
C244 C245 1.389 . S
C244 H266 0.929 . S
C245 C241 1.397 . S
C245 C244 1.389 . S
C245 H267 0.931 . S
C246 C243 1.481 . S
C246 C247 1.387 . S
C246 C251 1.390 . S
C247 C246 1.387 . S
C247 C248 1.401 . S
C247 H268 0.930 . S
C248 C247 1.401 . S
C248 C249 1.376 . S
C248 C257 1.511 . S
C249 C248 1.376 . S
C249 C250 1.392 . S
C249 H270 0.931 . S
C250 C249 1.392 . S
C250 C251 1.361 . S
C250 C252 1.500 . S
C251 C246 1.390 . S
C251 C250 1.361 . S
C251 H269 0.931 . S
C252 C250 1.500 . S
C252 C253 1.371 . S
C252 C254 1.365 . S
C253 C252 1.371 . S
C253 C263 1.386 . S
C253 H271 0.931 . S
C254 C252 1.365 . S
C254 C255 1.409 . S
C254 H272 0.929 . S
C255 C254 1.409 . S
C255 C256 1.380 . S
C255 H273 0.930 . S
C256 C255 1.380 . S
C256 C263 1.357 . S
C257 C248 1.511 . S
C257 C258 1.341 . S
C257 C259 1.371 . S
C258 C257 1.341 . S
C258 C262 1.394 . S
C258 H274 0.930 . S
C259 C257 1.371 . S
C259 C260 1.392 . S
C259 H275 0.931 . S
C260 C259 1.392 . S
C260 C261 1.331 . S
C260 H278 0.932 . S
C261 C260 1.331 . S
C261 C262 1.336 . S
C262 C258 1.394 . S
C262 C261 1.336 . S
C262 H277 0.929 . S
C263 C253 1.386 . S
C263 C256 1.357 . S
C263 H276 0.928 . S
H264 C240 0.931 . S
H265 C242 0.930 . S
H266 C244 0.929 . S
H267 C245 0.931 . S
H268 C247 0.930 . S
H269 C251 0.931 . S
H270 C249 0.931 . S
H271 C253 0.931 . S
H272 C254 0.929 . S
H273 C255 0.930 . S
H274 C258 0.930 . S
H275 C259 0.931 . S
H276 C263 0.928 . S
H277 C262 0.929 . S
H278 C260 0.932 . S
C279 C280 1.386 . S
C279 C281 1.397 . S
C279 H303 0.931 . S
C280 C279 1.386 . S
C280 C284 1.397 . S
C281 C279 1.397 . S
C281 C282 1.384 . S
C281 H304 0.930 . S
C282 C281 1.384 . S
C282 C283 1.377 . S
C282 C285 1.481 . S
C283 C282 1.377 . S
C283 C284 1.389 . S
C283 H305 0.929 . S
C284 C280 1.397 . S
C284 C283 1.389 . S
C284 H306 0.931 1_556 S
C285 C282 1.481 . S
C285 C286 1.387 . S
C285 C290 1.390 . S
C286 C285 1.387 . S
C286 C287 1.401 . S
C286 H307 0.930 . S
C287 C286 1.401 . S
C287 C288 1.376 . S
C287 C296 1.511 . S
C288 C287 1.376 . S
C288 C289 1.392 . S
C288 H309 0.931 . S
C289 C288 1.392 . S
C289 C290 1.361 . S
C289 C291 1.500 . S
C290 C285 1.390 . S
C290 C289 1.361 . S
C290 H308 0.931 . S
C291 C289 1.500 . S
C291 C292 1.371 . S
C291 C293 1.365 . S
C292 C291 1.371 . S
C292 C302 1.386 . S
C292 H310 0.931 . S
C293 C291 1.365 . S
C293 C294 1.409 . S
C293 H311 0.929 . S
C294 C293 1.409 . S
C294 C295 1.380 . S
C294 H312 0.930 1_556 S
C295 C294 1.380 . S
C295 C302 1.357 . S
C296 C287 1.511 . S
C296 C297 1.341 . S
C296 C298 1.371 . S
C297 C296 1.341 . S
C297 C301 1.394 . S
C297 H313 0.930 . S
C298 C296 1.371 . S
C298 C299 1.392 . S
C298 H314 0.931 . S
C299 C298 1.392 . S
C299 C300 1.331 . S
C299 H317 0.932 . S
C300 C299 1.331 . S
C300 C301 1.336 . S
C301 C297 1.394 . S
C301 C300 1.336 . S
C301 H316 0.929 . S
C302 C292 1.386 . S
C302 C295 1.357 . S
C302 H315 0.928 . S
H303 C279 0.931 . S
H304 C281 0.930 . S
H305 C283 0.929 . S
H306 C284 0.931 1_554 S
H307 C286 0.930 . S
H308 C290 0.931 . S
H309 C288 0.931 . S
H310 C292 0.931 . S
H311 C293 0.929 . S
H312 C294 0.930 1_554 S
H313 C297 0.930 . S
H314 C298 0.931 . S
H315 C302 0.928 . S
H316 C301 0.929 . S
H317 C299 0.932 . S
C318 C319 1.386 . S
C318 C320 1.397 . S
C318 H342 0.931 . S
C319 C318 1.386 . S
C319 C323 1.397 . S
C320 C318 1.397 . S
C320 C321 1.384 . S
C320 H343 0.930 . S
C321 C320 1.384 . S
C321 C322 1.377 . S
C321 C324 1.481 . S
C322 C321 1.377 . S
C322 C323 1.389 . S
C322 H344 0.929 . S
C323 C319 1.397 . S
C323 C322 1.389 . S
C323 H345 0.931 . S
C324 C321 1.481 . S
C324 C325 1.387 . S
C324 C329 1.390 . S
C325 C324 1.387 . S
C325 C326 1.401 . S
C325 H346 0.930 . S
C326 C325 1.401 . S
C326 C327 1.376 . S
C326 C335 1.511 . S
C327 C326 1.376 . S
C327 C328 1.392 . S
C327 H348 0.931 . S
C328 C327 1.392 . S
C328 C329 1.361 . S
C328 C330 1.500 . S
C329 C324 1.390 . S
C329 C328 1.361 . S
C329 H347 0.931 . S
C330 C328 1.500 . S
C330 C331 1.371 . S
C330 C332 1.365 . S
C331 C330 1.371 . S
C331 C341 1.386 . S
C331 H349 0.931 . S
C332 C330 1.365 . S
C332 C333 1.409 . S
C332 H350 0.929 . S
C333 C332 1.409 . S
C333 C334 1.380 . S
C333 H351 0.930 . S
C334 C333 1.380 . S
C334 C341 1.357 . S
C335 C326 1.511 . S
C335 C336 1.341 . S
C335 C337 1.371 . S
C336 C335 1.341 . S
C336 C340 1.394 . S
C336 H352 0.930 . S
C337 C335 1.371 . S
C337 C338 1.392 . S
C337 H353 0.931 . S
C338 C337 1.392 . S
C338 C339 1.331 . S
C338 H356 0.932 . S
C339 C338 1.331 . S
C339 C340 1.336 . S
C340 C336 1.394 . S
C340 C339 1.336 . S
C340 H355 0.929 . S
C341 C331 1.386 . S
C341 C334 1.357 . S
C341 H354 0.928 . S
H342 C318 0.931 . S
H343 C320 0.930 . S
H344 C322 0.929 . S
H345 C323 0.931 . S
H346 C325 0.930 . S
H347 C329 0.931 . S
H348 C327 0.931 . S
H349 C331 0.931 . S
H350 C332 0.929 . S
H351 C333 0.930 . S
H352 C336 0.930 . S
H353 C337 0.931 . S
H354 C341 0.928 . S
H355 C340 0.929 . S
H356 C338 0.932 . S
C357 C358 1.386 . S
C357 C359 1.403 . S
C357 H381 0.931 . S
C358 C357 1.386 . S
C358 C362 1.397 . S
C359 C357 1.403 . S
C359 C360 1.379 1_455 S
C359 H382 0.929 1_455 S
C360 C359 1.379 1_655 S
C360 C361 1.377 . S
C360 C363 1.481 . S
C361 C360 1.377 . S
C361 C362 1.389 1_655 S
C361 H383 0.929 . S
C362 C358 1.397 . S
C362 C361 1.389 1_455 S
C362 H384 0.931 . S
C363 C360 1.481 . S
C363 C364 1.387 . S
C363 C368 1.390 . S
C364 C363 1.387 . S
C364 C365 1.401 . S
C364 H385 0.930 . S
C365 C364 1.401 . S
C365 C366 1.376 . S
C365 C374 1.511 . S
C366 C365 1.376 . S
C366 C367 1.392 . S
C366 H387 0.931 . S
C367 C366 1.392 . S
C367 C368 1.361 . S
C367 C369 1.500 . S
C368 C363 1.390 . S
C368 C367 1.361 . S
C368 H386 0.931 . S
C369 C367 1.500 . S
C369 C370 1.371 . S
C369 C371 1.365 . S
C370 C369 1.371 . S
C370 C380 1.386 . S
C370 H388 0.931 . S
C371 C369 1.365 . S
C371 C372 1.409 . S
C371 H389 0.929 . S
C372 C371 1.409 . S
C372 C373 1.380 . S
C372 H390 0.930 . S
C373 C372 1.380 . S
C373 C380 1.357 . S
C374 C365 1.511 . S
C374 C375 1.341 . S
C374 C376 1.371 . S
C375 C374 1.341 . S
C375 C379 1.394 . S
C375 H391 0.930 . S
C376 C374 1.371 . S
C376 C377 1.392 . S
C376 H392 0.931 . S
C377 C376 1.392 . S
C377 C378 1.331 . S
C377 H395 0.932 . S
C378 C377 1.331 . S
C378 C379 1.336 . S
C379 C375 1.394 . S
C379 C378 1.336 . S
C379 H394 0.929 . S
C380 C370 1.386 . S
C380 C373 1.357 . S
C380 H393 0.928 . S
H381 C357 0.931 . S
H382 C359 0.929 1_655 S
H383 C361 0.929 . S
H384 C362 0.931 . S
H385 C364 0.930 . S
H386 C368 0.931 . S
H387 C366 0.931 . S
H388 C370 0.931 . S
H389 C371 0.929 . S
H390 C372 0.930 . S
H391 C375 0.930 . S
H392 C376 0.931 . S
H393 C380 0.928 . S
H394 C379 0.929 . S
H395 C377 0.932 . S
C396 C397 1.391 . S
C396 C398 1.394 . S
C396 H412 0.931 . S
C397 C396 1.391 . S
C397 C401 1.376 . S
C398 C396 1.394 . S
C398 C399 1.369 . S
C398 C402 1.531 . S
C399 C398 1.369 . S
C399 C400 1.410 . S
C399 C407 1.503 . S
C400 C399 1.410 . S
C400 C401 1.392 . S
C400 C403 1.511 . S
C401 C397 1.376 . S
C401 C400 1.392 . S
C401 H413 0.929 . S
C402 C398 1.531 . S
C402 H414 0.960 . S
C402 H415 0.962 . S
C402 H416 0.960 . S
C403 C400 1.511 . S
C403 H417 0.961 . S
C403 H418 0.961 . S
C403 H419 0.961 . S
C404 C405 1.370 . S
C404 C406 1.363 . S
C404 H420 0.931 . S
C405 C404 1.370 . S
C405 C409 1.408 . S
C406 C404 1.363 . S
C406 C407 1.370 . S
C406 C410 1.524 . S
C407 C399 1.503 . S
C407 C406 1.370 . S
C407 C408 1.403 . S
C408 C407 1.403 . S
C408 C409 1.404 . S
C408 C411 1.539 . S
C409 C405 1.408 . S
C409 C408 1.404 . S
C409 H421 0.930 . S
C410 C406 1.524 . S
C410 H422 0.956 . S
C410 H423 0.961 . S
C410 H424 0.961 . S
C411 C408 1.539 . S
C411 H425 0.958 . S
C411 H426 0.961 . S
C411 H427 0.960 . S
H412 C396 0.931 . S
H413 C401 0.929 . S
H414 C402 0.960 . S
H415 C402 0.962 . S
H416 C402 0.960 . S
H417 C403 0.961 . S
H418 C403 0.961 . S
H419 C403 0.961 . S
H420 C404 0.931 . S
H421 C409 0.930 . S
H422 C410 0.956 . S
H423 C410 0.961 . S
H424 C410 0.961 . S
H425 C411 0.958 . S
H426 C411 0.961 . S
H427 C411 0.960 . S
C428 C429 1.391 . S
C428 C430 1.394 . S
C428 H444 0.931 . S
C429 C428 1.391 . S
C429 C433 1.376 . S
C430 C428 1.394 . S
C430 C431 1.369 . S
C430 C434 1.531 . S
C431 C430 1.369 . S
C431 C432 1.410 . S
C431 C439 1.503 . S
C432 C431 1.410 . S
C432 C433 1.392 . S
C432 C435 1.511 . S
C433 C429 1.376 . S
C433 C432 1.392 . S
C433 H445 0.929 . S
C434 C430 1.531 . S
C434 H446 0.960 . S
C434 H447 0.962 . S
C434 H448 0.960 . S
C435 C432 1.511 . S
C435 H449 0.961 . S
C435 H450 0.961 . S
C435 H451 0.961 . S
C436 C437 1.370 . S
C436 C438 1.363 . S
C436 H452 0.931 . S
C437 C436 1.370 . S
C437 C441 1.408 . S
C438 C436 1.363 . S
C438 C439 1.370 . S
C438 C442 1.524 . S
C439 C431 1.503 . S
C439 C438 1.370 . S
C439 C440 1.403 . S
C440 C439 1.403 . S
C440 C441 1.404 . S
C440 C443 1.539 . S
C441 C437 1.408 . S
C441 C440 1.404 . S
C441 H453 0.930 . S
C442 C438 1.524 . S
C442 H454 0.956 . S
C442 H455 0.961 . S
C442 H456 0.961 . S
C443 C440 1.539 . S
C443 H457 0.958 . S
C443 H458 0.961 . S
C443 H459 0.960 . S
H444 C428 0.931 . S
H445 C433 0.929 . S
H446 C434 0.960 . S
H447 C434 0.962 . S
H448 C434 0.960 . S
H449 C435 0.961 . S
H450 C435 0.961 . S
H451 C435 0.961 . S
H452 C436 0.931 . S
H453 C441 0.930 . S
H454 C442 0.956 . S
H455 C442 0.961 . S
H456 C442 0.961 . S
H457 C443 0.958 . S
H458 C443 0.961 . S
H459 C443 0.960 . S
C460 C461 1.391 . S
C460 C462 1.394 . S
C460 H476 0.931 . S
C461 C460 1.391 . S
C461 C465 1.376 . S
C462 C460 1.394 . S
C462 C463 1.369 . S
C462 C466 1.531 . S
C463 C462 1.369 . S
C463 C464 1.410 . S
C463 C471 1.503 . S
C464 C463 1.410 . S
C464 C465 1.392 . S
C464 C467 1.511 . S
C465 C461 1.376 . S
C465 C464 1.392 . S
C465 H477 0.929 . S
C466 C462 1.531 . S
C466 H478 0.960 . S
C466 H479 0.962 . S
C466 H480 0.960 1_554 S
C467 C464 1.511 . S
C467 H481 0.961 . S
C467 H482 0.961 . S
C467 H483 0.961 . S
C468 C469 1.370 1_545 S
C468 C470 1.363 . S
C468 H484 0.931 . S
C469 C468 1.370 1_565 S
C469 C473 1.408 . S
C470 C468 1.363 . S
C470 C471 1.370 . S
C470 C474 1.524 . S
C471 C463 1.503 . S
C471 C470 1.370 . S
C471 C472 1.403 1_545 S
C472 C471 1.403 1_565 S
C472 C473 1.404 . S
C472 C475 1.539 . S
C473 C469 1.408 . S
C473 C472 1.404 . S
C473 H485 0.930 . S
C474 C470 1.524 . S
C474 H486 0.956 . S
C474 H487 0.961 . S
C474 H488 0.961 . S
C475 C472 1.539 . S
C475 H489 0.958 . S
C475 H490 0.961 . S
C475 H491 0.960 1_565 S
H476 C460 0.931 . S
H477 C465 0.929 . S
H478 C466 0.960 . S
H479 C466 0.962 . S
H480 C466 0.960 1_556 S
H481 C467 0.961 . S
H482 C467 0.961 . S
H483 C467 0.961 . S
H484 C468 0.931 . S
H485 C473 0.930 . S
H486 C474 0.956 . S
H487 C474 0.961 . S
H488 C474 0.961 . S
H489 C475 0.958 . S
H490 C475 0.961 . S
H491 C475 0.960 1_545 S
C492 C493 1.391 . S
C492 C494 1.394 . S
C492 H508 0.931 . S
C493 C492 1.391 . S
C493 C497 1.376 . S
C494 C492 1.394 . S
C494 C495 1.369 . S
C494 C498 1.531 . S
C495 C494 1.369 . S
C495 C496 1.410 . S
C495 C503 1.503 . S
C496 C495 1.410 . S
C496 C497 1.392 . S
C496 C499 1.511 . S
C497 C493 1.376 . S
C497 C496 1.392 . S
C497 H509 0.929 . S
C498 C494 1.531 . S
C498 H510 0.960 . S
C498 H511 0.962 . S
C498 H512 0.960 . S
C499 C496 1.511 . S
C499 H513 0.961 . S
C499 H514 0.961 . S
C499 H515 0.961 . S
C500 C501 1.370 . S
C500 C502 1.363 . S
C500 H516 0.931 . S
C501 C500 1.370 . S
C501 C505 1.408 . S
C502 C500 1.363 . S
C502 C503 1.370 . S
C502 C506 1.524 . S
C503 C495 1.503 . S
C503 C502 1.370 . S
C503 C504 1.403 . S
C504 C503 1.403 . S
C504 C505 1.404 . S
C504 C507 1.539 . S
C505 C501 1.408 . S
C505 C504 1.404 . S
C505 H517 0.930 . S
C506 C502 1.524 . S
C506 H518 0.956 . S
C506 H519 0.961 . S
C506 H520 0.961 . S
C507 C504 1.539 . S
C507 H521 0.958 . S
C507 H522 0.961 . S
C507 H523 0.960 . S
H508 C492 0.931 . S
H509 C497 0.929 . S
H510 C498 0.960 . S
H511 C498 0.962 . S
H512 C498 0.960 . S
H513 C499 0.961 . S
H514 C499 0.961 . S
H515 C499 0.961 . S
H516 C500 0.931 . S
H517 C505 0.930 . S
H518 C506 0.956 . S
H519 C506 0.961 . S
H520 C506 0.961 . S
H521 C507 0.958 . S
H522 C507 0.961 . S
H523 C507 0.960 . S
C524 C525 1.391 . S
C524 C526 1.394 . S
C524 H540 0.931 . S
C525 C524 1.391 . S
C525 C529 1.376 . S
C526 C524 1.394 . S
C526 C527 1.369 . S
C526 C530 1.531 . S
C527 C526 1.369 . S
C527 C528 1.410 . S
C527 C535 1.503 . S
C528 C527 1.410 . S
C528 C529 1.392 . S
C528 C531 1.511 . S
C529 C525 1.376 . S
C529 C528 1.392 . S
C529 H541 0.929 . S
C530 C526 1.531 . S
C530 H542 0.960 . S
C530 H543 0.962 . S
C530 H544 0.960 . S
C531 C528 1.511 . S
C531 H545 0.961 . S
C531 H546 0.961 . S
C531 H547 0.961 . S
C532 C533 1.370 . S
C532 C534 1.363 . S
C532 H548 0.931 . S
C533 C532 1.370 . S
C533 C537 1.408 . S
C534 C532 1.363 . S
C534 C535 1.370 . S
C534 C538 1.524 . S
C535 C527 1.503 . S
C535 C534 1.370 . S
C535 C536 1.403 . S
C536 C535 1.403 . S
C536 C537 1.404 . S
C536 C539 1.539 . S
C537 C533 1.408 . S
C537 C536 1.404 . S
C537 H549 0.930 . S
C538 C534 1.524 . S
C538 H550 0.956 . S
C538 H551 0.961 . S
C538 H552 0.961 . S
C539 C536 1.539 . S
C539 H553 0.958 . S
C539 H554 0.961 . S
C539 H555 0.960 . S
H540 C524 0.931 . S
H541 C529 0.929 . S
H542 C530 0.960 . S
H543 C530 0.962 . S
H544 C530 0.960 . S
H545 C531 0.961 . S
H546 C531 0.961 . S
H547 C531 0.961 . S
H548 C532 0.931 . S
H549 C537 0.930 . S
H550 C538 0.956 . S
H551 C538 0.961 . S
H552 C538 0.961 . S
H553 C539 0.958 . S
H554 C539 0.961 . S
H555 C539 0.960 . S
C556 C557 1.391 . S
C556 C558 1.394 . S
C556 H572 0.931 1_556 S
C557 C556 1.391 . S
C557 C561 1.376 . S
C558 C556 1.394 . S
C558 C559 1.369 . S
C558 C562 1.531 1_556 S
C559 C558 1.369 . S
C559 C560 1.410 . S
C559 C567 1.503 . S
C560 C559 1.410 . S
C560 C561 1.392 . S
C560 C563 1.511 . S
C561 C557 1.376 . S
C561 C560 1.392 . S
C561 H573 0.929 . S
C562 C558 1.531 1_554 S
C562 H574 0.960 . S
C562 H575 0.962 1_554 S
C562 H576 0.960 . S
C563 C560 1.511 . S
C563 H577 0.961 . S
C563 H578 0.938 1_655 S
C563 H579 0.961 . S
C564 C565 1.370 . S
C564 C566 1.363 . S
C564 H580 0.931 . S
C565 C564 1.370 . S
C565 C569 1.408 1_556 S
C566 C564 1.363 . S
C566 C567 1.370 1_455 S
C566 C570 1.524 1_455 S
C567 C559 1.503 . S
C567 C566 1.370 1_655 S
C567 C568 1.403 1_656 S
C568 C567 1.403 1_454 S
C568 C569 1.404 . S
C568 C571 1.539 . S
C569 C565 1.408 1_554 S
C569 C568 1.404 . S
C569 H581 0.930 . S
C570 C566 1.524 1_655 S
C570 H582 0.956 . S
C570 H583 0.961 . S
C570 H584 0.961 . S
C571 C568 1.539 . S
C571 H585 0.958 . S
C571 H586 0.961 . S
C571 H587 0.960 1_455 S
H572 C556 0.931 1_554 S
H573 C561 0.929 . S
H574 C562 0.960 . S
H575 C562 0.962 1_556 S
H576 C562 0.960 . S
H577 C563 0.961 . S
H578 C563 0.938 1_455 S
H579 C563 0.961 . S
H580 C564 0.931 . S
H581 C569 0.930 . S
H582 C570 0.956 . S
H583 C570 0.961 . S
H584 C570 0.961 . S
H585 C571 0.958 . S
H586 C571 0.961 . S
H587 C571 0.960 1_655 S
C588 C589 1.391 . S
C588 C590 1.394 . S
C588 H604 0.931 . S
C589 C588 1.391 . S
C589 C593 1.376 . S
C590 C588 1.394 . S
C590 C591 1.369 . S
C590 C594 1.531 . S
C591 C590 1.369 . S
C591 C592 1.410 . S
C591 C599 1.503 . S
C592 C591 1.410 . S
C592 C593 1.392 . S
C592 C595 1.511 . S
C593 C589 1.376 . S
C593 C592 1.392 . S
C593 H605 0.929 . S
C594 C590 1.531 . S
C594 H606 0.960 . S
C594 H607 0.962 . S
C594 H608 0.960 . S
C595 C592 1.511 . S
C595 H609 0.961 . S
C595 H610 0.961 . S
C595 H611 0.961 . S
C596 C597 1.370 . S
C596 C598 1.363 . S
C596 H612 0.931 . S
C597 C596 1.370 . S
C597 C601 1.408 . S
C598 C596 1.363 . S
C598 C599 1.370 . S
C598 C602 1.524 . S
C599 C591 1.503 . S
C599 C598 1.370 . S
C599 C600 1.403 . S
C600 C599 1.403 . S
C600 C601 1.404 . S
C600 C603 1.539 . S
C601 C597 1.408 . S
C601 C600 1.404 . S
C601 H613 0.930 . S
C602 C598 1.524 . S
C602 H614 0.956 . S
C602 H615 0.961 . S
C602 H616 0.961 . S
C603 C600 1.539 . S
C603 H617 0.958 . S
C603 H618 0.961 . S
C603 H619 0.960 . S
H604 C588 0.931 . S
H605 C593 0.929 . S
H606 C594 0.960 . S
H607 C594 0.962 . S
H608 C594 0.960 . S
H609 C595 0.961 . S
H610 C595 0.961 . S
H611 C595 0.961 . S
H612 C596 0.931 . S
H613 C601 0.930 . S
H614 C602 0.956 . S
H615 C602 0.961 . S
H616 C602 0.961 . S
H617 C603 0.958 . S
H618 C603 0.961 . S
H619 C603 0.960 . S
C620 C621 1.391 . S
C620 C622 1.394 . S
C620 H636 0.931 . S
C621 C620 1.391 . S
C621 C625 1.376 . S
C622 C620 1.394 . S
C622 C623 1.369 . S
C622 C626 1.531 . S
C623 C622 1.369 . S
C623 C624 1.410 . S
C623 C631 1.503 . S
C624 C623 1.410 . S
C624 C625 1.392 . S
C624 C627 1.511 . S
C625 C621 1.376 . S
C625 C624 1.392 . S
C625 H637 0.929 . S
C626 C622 1.531 . S
C626 H638 0.960 . S
C626 H639 0.962 . S
C626 H640 0.960 . S
C627 C624 1.511 . S
C627 H641 0.961 . S
C627 H642 0.961 . S
C627 H643 0.961 . S
C628 C629 1.370 . S
C628 C630 1.363 . S
C628 H644 0.931 . S
C629 C628 1.370 . S
C629 C633 1.408 . S
C630 C628 1.363 . S
C630 C631 1.370 . S
C630 C634 1.524 . S
C631 C623 1.503 . S
C631 C630 1.370 . S
C631 C632 1.403 . S
C632 C631 1.403 . S
C632 C633 1.404 . S
C632 C635 1.539 . S
C633 C629 1.408 . S
C633 C632 1.404 . S
C633 H645 0.930 . S
C634 C630 1.524 . S
C634 H646 0.956 . S
C634 H647 0.961 . S
C634 H648 0.961 . S
C635 C632 1.539 . S
C635 H649 0.958 . S
C635 H650 0.961 . S
C635 H651 0.960 . S
H636 C620 0.931 . S
H637 C625 0.929 . S
H638 C626 0.960 . S
H639 C626 0.962 . S
H640 C626 0.960 . S
H641 C627 0.961 . S
H642 C627 0.961 . S
H643 C627 0.961 . S
H644 C628 0.931 . S
H645 C633 0.930 . S
H646 C634 0.956 . S
H647 C634 0.961 . S
H648 C634 0.961 . S
H649 C635 0.958 . S
H650 C635 0.961 . S
H651 C635 0.960 . S
C652 C653 1.391 . S
C652 C654 1.394 . S
C652 H668 0.931 . S
C653 C652 1.391 . S
C653 C657 1.376 . S
C654 C652 1.394 . S
C654 C655 1.369 . S
C654 C658 1.531 . S
C655 C654 1.369 . S
C655 C656 1.410 . S
C655 C663 1.503 . S
C656 C655 1.410 . S
C656 C657 1.392 . S
C656 C659 1.511 . S
C657 C653 1.376 . S
C657 C656 1.392 . S
C657 H669 0.929 . S
C658 C654 1.531 . S
C658 H670 0.960 . S
C658 H671 0.962 . S
C658 H672 0.960 . S
C659 C656 1.511 . S
C659 H673 0.961 . S
C659 H674 0.961 1_545 S
C659 H675 0.961 . S
C660 C661 1.370 . S
C660 C662 1.363 . S
C660 H676 0.931 . S
C661 C660 1.370 . S
C661 C665 1.408 . S
C662 C660 1.363 . S
C662 C663 1.370 1_565 S
C662 C666 1.524 1_565 S
C663 C655 1.503 . S
C663 C662 1.370 1_545 S
C663 C664 1.403 . S
C664 C663 1.403 . S
C664 C665 1.404 1_545 S
C664 C667 1.539 . S
C665 C661 1.408 . S
C665 C664 1.404 1_565 S
C665 H677 0.930 . S
C666 C662 1.524 1_545 S
C666 H678 0.956 . S
C666 H679 0.961 . S
C666 H680 0.961 1_545 S
C667 C664 1.539 . S
C667 H681 0.958 . S
C667 H682 0.961 . S
C667 H683 0.960 . S
H668 C652 0.931 . S
H669 C657 0.929 . S
H670 C658 0.960 . S
H671 C658 0.962 . S
H672 C658 0.960 . S
H673 C659 0.961 . S
H674 C659 0.961 1_565 S
H675 C659 0.961 . S
H676 C660 0.931 . S
H677 C665 0.930 . S
H678 C666 0.956 . S
H679 C666 0.961 . S
H680 C666 0.961 1_565 S
H681 C667 0.958 . S
H682 C667 0.961 . S
H683 C667 0.960 . S
C684 C685 1.391 . S
C684 C686 1.394 . S
C684 H700 0.931 . S
C685 C684 1.391 . S
C685 C689 1.376 . S
C686 C684 1.394 . S
C686 C687 1.369 . S
C686 C690 1.531 . S
C687 C686 1.369 . S
C687 C688 1.410 . S
C687 C695 1.503 . S
C688 C687 1.410 . S
C688 C689 1.392 . S
C688 C691 1.511 . S
C689 C685 1.376 . S
C689 C688 1.392 . S
C689 H701 0.929 . S
C690 C686 1.531 . S
C690 H702 0.960 . S
C690 H703 0.962 . S
C690 H704 0.960 . S
C691 C688 1.511 . S
C691 H705 0.961 . S
C691 H706 0.961 . S
C691 H707 0.961 . S
C692 C693 1.370 . S
C692 C694 1.363 . S
C692 H708 0.931 . S
C693 C692 1.370 . S
C693 C697 1.408 . S
C694 C692 1.363 . S
C694 C695 1.370 . S
C694 C698 1.524 . S
C695 C687 1.503 . S
C695 C694 1.370 . S
C695 C696 1.403 . S
C696 C695 1.403 . S
C696 C697 1.404 . S
C696 C699 1.539 . S
C697 C693 1.408 . S
C697 C696 1.404 . S
C697 H709 0.930 . S
C698 C694 1.524 . S
C698 H710 0.956 . S
C698 H711 0.961 . S
C698 H712 0.961 . S
C699 C696 1.539 . S
C699 H713 0.958 . S
C699 H714 0.961 . S
C699 H715 0.960 . S
H700 C684 0.931 . S
H701 C689 0.929 . S
H702 C690 0.960 . S
H703 C690 0.962 . S
H704 C690 0.960 . S
H705 C691 0.961 . S
H706 C691 0.961 . S
H707 C691 0.961 . S
H708 C692 0.931 . S
H709 C697 0.930 . S
H710 C698 0.956 . S
H711 C698 0.961 . S
H712 C698 0.961 . S
H713 C699 0.958 . S
H714 C699 0.961 . S
H715 C699 0.960 . S
C716 C717 1.391 . S
C716 C718 1.394 . S
C716 H732 0.931 . S
C717 C716 1.391 . S
C717 C721 1.376 1_554 S
C718 C716 1.394 . S
C718 C719 1.369 . S
C718 C722 1.531 1_565 S
C719 C718 1.369 . S
C719 C720 1.410 1_554 S
C719 C727 1.503 1_565 S
C720 C719 1.410 1_556 S
C720 C721 1.392 . S
C720 C723 1.511 . S
C721 C717 1.376 1_556 S
C721 C720 1.392 . S
C721 H733 0.929 . S
C722 C718 1.531 1_545 S
C722 H734 0.960 . S
C722 H735 0.962 . S
C722 H736 0.960 1_545 S
C723 C720 1.511 . S
C723 H737 0.961 . S
C723 H738 0.961 . S
C723 H739 0.961 . S
C724 C725 1.370 . S
C724 C726 1.363 . S
C724 H740 0.931 . S
C725 C724 1.370 . S
C725 C729 1.408 1_556 S
C726 C724 1.363 . S
C726 C727 1.370 1_556 S
C726 C730 1.524 . S
C727 C719 1.503 1_545 S
C727 C726 1.370 1_554 S
C727 C728 1.403 . S
C728 C727 1.403 . S
C728 C729 1.404 . S
C728 C731 1.539 . S
C729 C725 1.408 1_554 S
C729 C728 1.404 . S
C729 H741 0.930 . S
C730 C726 1.524 . S
C730 H742 0.956 . S
C730 H743 0.961 1_545 S
C730 H744 0.961 . S
C731 C728 1.539 . S
C731 H745 0.958 . S
C731 H746 0.961 . S
C731 H747 0.960 1_545 S
H732 C716 0.931 . S
H733 C721 0.929 . S
H734 C722 0.960 . S
H735 C722 0.962 . S
H736 C722 0.960 1_565 S
H737 C723 0.961 . S
H738 C723 0.961 . S
H739 C723 0.961 . S
H740 C724 0.931 . S
H741 C729 0.930 . S
H742 C730 0.956 . S
H743 C730 0.961 1_565 S
H744 C730 0.961 . S
H745 C731 0.958 . S
H746 C731 0.961 . S
H747 C731 0.960 1_565 S
C748 C749 1.391 . S
C748 C750 1.394 . S
C748 H764 0.931 . S
C749 C748 1.391 . S
C749 C753 1.376 . S
C750 C748 1.394 . S
C750 C751 1.369 . S
C750 C754 1.531 . S
C751 C750 1.369 . S
C751 C752 1.410 . S
C751 C759 1.503 . S
C752 C751 1.410 . S
C752 C753 1.392 . S
C752 C755 1.511 . S
C753 C749 1.376 . S
C753 C752 1.392 . S
C753 H765 0.929 . S
C754 C750 1.531 . S
C754 H766 0.960 . S
C754 H767 0.962 . S
C754 H768 0.960 . S
C755 C752 1.511 . S
C755 H769 0.961 . S
C755 H770 0.961 . S
C755 H771 0.961 . S
C756 C757 1.370 . S
C756 C758 1.363 . S
C756 H772 0.931 . S
C757 C756 1.370 . S
C757 C761 1.408 . S
C758 C756 1.363 . S
C758 C759 1.370 . S
C758 C762 1.524 . S
C759 C751 1.503 . S
C759 C758 1.370 . S
C759 C760 1.403 . S
C760 C759 1.403 . S
C760 C761 1.404 . S
C760 C763 1.539 . S
C761 C757 1.408 . S
C761 C760 1.404 . S
C761 H773 0.930 . S
C762 C758 1.524 . S
C762 H774 0.956 . S
C762 H775 0.961 . S
C762 H776 0.961 . S
C763 C760 1.539 . S
C763 H777 0.958 . S
C763 H778 0.961 . S
C763 H779 0.960 . S
H764 C748 0.931 . S
H765 C753 0.929 . S
H766 C754 0.960 . S
H767 C754 0.962 . S
H768 C754 0.960 . S
H769 C755 0.961 . S
H770 C755 0.961 . S
H771 C755 0.961 . S
H772 C756 0.931 . S
H773 C761 0.930 . S
H774 C762 0.956 . S
H775 C762 0.961 . S
H776 C762 0.961 . S
H777 C763 0.958 . S
H778 C763 0.961 . S
H779 C763 0.960 . S
C780 C781 1.391 . S
C780 C782 1.394 . S
C780 H796 0.931 . S
C781 C780 1.391 . S
C781 C785 1.376 . S
C782 C780 1.394 . S
C782 C783 1.369 . S
C782 C786 1.531 . S
C783 C782 1.369 . S
C783 C784 1.410 . S
C783 C791 1.503 . S
C784 C783 1.410 . S
C784 C785 1.392 . S
C784 C787 1.511 . S
C785 C781 1.376 . S
C785 C784 1.392 . S
C785 H797 0.929 . S
C786 C782 1.531 . S
C786 H798 0.960 . S
C786 H799 0.962 . S
C786 H800 0.960 . S
C787 C784 1.511 . S
C787 H801 0.961 . S
C787 H802 0.961 . S
C787 H803 0.961 . S
C788 C789 1.370 . S
C788 C790 1.363 . S
C788 H804 0.931 . S
C789 C788 1.370 . S
C789 C793 1.408 . S
C790 C788 1.363 . S
C790 C791 1.370 . S
C790 C794 1.524 . S
C791 C783 1.503 . S
C791 C790 1.370 . S
C791 C792 1.403 . S
C792 C791 1.403 . S
C792 C793 1.404 . S
C792 C795 1.539 . S
C793 C789 1.408 . S
C793 C792 1.404 . S
C793 H805 0.930 . S
C794 C790 1.524 . S
C794 H806 0.956 . S
C794 H807 0.961 . S
C794 H808 0.961 . S
C795 C792 1.539 . S
C795 H809 0.958 . S
C795 H810 0.961 . S
C795 H811 0.960 . S
H796 C780 0.931 . S
H797 C785 0.929 . S
H798 C786 0.960 . S
H799 C786 0.962 . S
H800 C786 0.960 . S
H801 C787 0.961 . S
H802 C787 0.961 . S
H803 C787 0.961 . S
H804 C788 0.931 . S
H805 C793 0.930 . S
H806 C794 0.956 . S
H807 C794 0.961 . S
H808 C794 0.961 . S
H809 C795 0.958 . S
H810 C795 0.961 . S
H811 C795 0.960 . S
C812 C813 1.391 . S
C812 C814 1.394 . S
C812 H828 0.931 . S
C813 C812 1.391 . S
C813 C817 1.376 . S
C814 C812 1.394 . S
C814 C815 1.376 . S
C814 C818 1.531 1_455 S
C815 C814 1.376 . S
C815 C816 1.422 . S
C815 C823 1.484 1_455 S
C816 C815 1.422 . S
C816 C817 1.392 . S
C816 C819 1.511 . S
C817 C813 1.376 . S
C817 C816 1.392 . S
C817 H829 0.929 . S
C818 C814 1.531 1_655 S
C818 H830 0.960 . S
C818 H831 0.962 . S
C818 H832 0.960 1_655 S
C819 C816 1.511 . S
C819 H833 0.961 . S
C819 H834 0.961 1_455 S
C819 H835 0.961 . S
C820 C821 1.370 . S
C820 C822 1.363 . S
C820 H836 0.931 . S
C821 C820 1.370 . S
C821 C825 1.408 . S
C822 C820 1.363 . S
C822 C823 1.370 . S
C822 C826 1.524 . S
C823 C815 1.484 1_655 S
C823 C822 1.370 . S
C823 C824 1.403 . S
C824 C823 1.403 . S
C824 C825 1.404 . S
C824 C827 1.539 . S
C825 C821 1.408 . S
C825 C824 1.404 . S
C825 H837 0.930 . S
C826 C822 1.524 . S
C826 H838 0.956 . S
C826 H839 0.961 . S
C826 H840 0.961 . S
C827 C824 1.539 . S
C827 H841 0.958 . S
C827 H842 0.961 . S
C827 H843 0.960 . S
H828 C812 0.931 . S
H829 C817 0.929 . S
H830 C818 0.960 . S
H831 C818 0.962 . S
H832 C818 0.960 1_455 S
H833 C819 0.961 . S
H834 C819 0.961 1_655 S
H835 C819 0.961 . S
H836 C820 0.931 . S
H837 C825 0.930 . S
H838 C826 0.956 . S
H839 C826 0.961 . S
H840 C826 0.961 . S
H841 C827 0.958 . S
H842 C827 0.961 . S
H843 C827 0.960 . S
C844 C845 1.391 . S
C844 C846 1.394 . S
C844 H860 0.931 . S
C845 C844 1.391 . S
C845 C849 1.376 . S
C846 C844 1.394 . S
C846 C847 1.369 . S
C846 C850 1.531 . S
C847 C846 1.369 . S
C847 C848 1.410 . S
C847 C855 1.503 . S
C848 C847 1.410 . S
C848 C849 1.392 . S
C848 C851 1.511 . S
C849 C845 1.376 . S
C849 C848 1.392 . S
C849 H861 0.929 . S
C850 C846 1.531 . S
C850 H862 0.960 . S
C850 H863 0.962 . S
C850 H864 0.960 . S
C851 C848 1.511 . S
C851 H865 0.961 . S
C851 H866 0.961 . S
C851 H867 0.961 . S
C852 C853 1.370 . S
C852 C854 1.363 . S
C852 H868 0.931 . S
C853 C852 1.370 . S
C853 C857 1.408 . S
C854 C852 1.363 . S
C854 C855 1.370 . S
C854 C858 1.524 . S
C855 C847 1.503 . S
C855 C854 1.370 . S
C855 C856 1.403 . S
C856 C855 1.403 . S
C856 C857 1.404 . S
C856 C859 1.539 . S
C857 C853 1.408 . S
C857 C856 1.404 . S
C857 H869 0.930 . S
C858 C854 1.524 . S
C858 H870 0.956 . S
C858 H871 0.961 . S
C858 H872 0.961 . S
C859 C856 1.539 . S
C859 H873 0.958 . S
C859 H874 0.961 . S
C859 H875 0.960 . S
H860 C844 0.931 . S
H861 C849 0.929 . S
H862 C850 0.960 . S
H863 C850 0.962 . S
H864 C850 0.960 . S
H865 C851 0.961 . S
H866 C851 0.961 . S
H867 C851 0.961 . S
H868 C852 0.931 . S
H869 C857 0.930 . S
H870 C858 0.956 . S
H871 C858 0.961 . S
H872 C858 0.961 . S
H873 C859 0.958 . S
H874 C859 0.961 . S
H875 C859 0.960 . S
C876 C877 1.391 . S
C876 C878 1.394 . S
C876 H892 0.931 . S
C877 C876 1.391 . S
C877 C881 1.376 . S
C878 C876 1.394 . S
C878 C879 1.369 . S
C878 C882 1.531 . S
C879 C878 1.369 . S
C879 C880 1.410 . S
C879 C887 1.503 . S
C880 C879 1.410 . S
C880 C881 1.392 . S
C880 C883 1.511 . S
C881 C877 1.376 . S
C881 C880 1.392 . S
C881 H893 0.929 . S
C882 C878 1.531 . S
C882 H894 0.960 . S
C882 H895 0.962 . S
C882 H896 0.960 . S
C883 C880 1.511 . S
C883 H897 0.961 . S
C883 H898 0.961 . S
C883 H899 0.961 . S
C884 C885 1.370 . S
C884 C886 1.363 1_455 S
C884 H900 0.931 . S
C885 C884 1.370 . S
C885 C889 1.409 1_455 S
C886 C884 1.363 1_655 S
C886 C887 1.370 . S
C886 C890 1.524 . S
C887 C879 1.503 . S
C887 C886 1.370 . S
C887 C888 1.403 . S
C888 C887 1.403 . S
C888 C889 1.404 . S
C888 C891 1.539 . S
C889 C885 1.409 1_655 S
C889 C888 1.404 . S
C889 H901 0.930 . S
C890 C886 1.524 . S
C890 H902 0.956 . S
C890 H903 0.961 . S
C890 H904 0.961 1_655 S
C891 C888 1.539 . S
C891 H905 0.958 . S
C891 H906 0.961 . S
C891 H907 0.960 . S
H892 C876 0.931 . S
H893 C881 0.929 . S
H894 C882 0.960 . S
H895 C882 0.962 . S
H896 C882 0.960 . S
H897 C883 0.961 . S
H898 C883 0.961 . S
H899 C883 0.961 . S
H900 C884 0.931 . S
H901 C889 0.930 . S
H902 C890 0.956 . S
H903 C890 0.961 . S
H904 C890 0.961 1_455 S
H905 C891 0.958 . S
H906 C891 0.961 . S
H907 C891 0.960 . S
C908 C909 1.391 . S
C908 C910 1.394 . S
C908 H924 0.931 . S
C909 C908 1.391 . S
C909 C913 1.376 . S
C910 C908 1.394 . S
C910 C911 1.369 . S
C910 C914 1.531 . S
C911 C910 1.369 . S
C911 C912 1.410 . S
C911 C919 1.503 . S
C912 C911 1.410 . S
C912 C913 1.392 . S
C912 C915 1.511 . S
C913 C909 1.376 . S
C913 C912 1.392 . S
C913 H925 0.929 . S
C914 C910 1.531 . S
C914 H926 0.960 . S
C914 H927 0.962 . S
C914 H928 0.960 . S
C915 C912 1.511 . S
C915 H929 0.961 . S
C915 H930 0.961 . S
C915 H931 0.961 . S
C916 C917 1.370 . S
C916 C918 1.363 . S
C916 H932 0.931 . S
C917 C916 1.370 . S
C917 C921 1.408 . S
C918 C916 1.363 . S
C918 C919 1.370 . S
C918 C922 1.524 . S
C919 C911 1.503 . S
C919 C918 1.370 . S
C919 C920 1.403 . S
C920 C919 1.403 . S
C920 C921 1.404 . S
C920 C923 1.539 . S
C921 C917 1.408 . S
C921 C920 1.404 . S
C921 H933 0.930 . S
C922 C918 1.524 . S
C922 H934 0.956 . S
C922 H935 0.961 . S
C922 H936 0.961 . S
C923 C920 1.539 . S
C923 H937 0.958 . S
C923 H938 0.961 . S
C923 H939 0.960 . S
H924 C908 0.931 . S
H925 C913 0.929 . S
H926 C914 0.960 . S
H927 C914 0.962 . S
H928 C914 0.960 . S
H929 C915 0.961 . S
H930 C915 0.961 . S
H931 C915 0.961 . S
H932 C916 0.931 . S
H933 C921 0.930 . S
H934 C922 0.956 . S
H935 C922 0.961 . S
H936 C922 0.961 . S
H937 C923 0.958 . S
H938 C923 0.961 . S
H939 C923 0.960 . S
C940 C941 1.391 . S
C940 C942 1.394 . S
C940 H956 0.931 . S
C941 C940 1.391 . S
C941 C945 1.376 . S
C942 C940 1.394 . S
C942 C943 1.369 . S
C942 C946 1.531 . S
C943 C942 1.369 . S
C943 C944 1.410 . S
C943 C951 1.503 . S
C944 C943 1.410 . S
C944 C945 1.392 . S
C944 C947 1.511 . S
C945 C941 1.376 . S
C945 C944 1.392 . S
C945 H957 0.929 . S
C946 C942 1.531 . S
C946 H958 0.960 . S
C946 H959 0.962 . S
C946 H960 0.960 . S
C947 C944 1.511 . S
C947 H961 0.961 . S
C947 H962 0.961 . S
C947 H963 0.961 . S
C948 C949 1.370 . S
C948 C950 1.363 . S
C948 H964 0.931 . S
C949 C948 1.370 . S
C949 C953 1.408 . S
C950 C948 1.363 . S
C950 C951 1.370 . S
C950 C954 1.524 . S
C951 C943 1.503 . S
C951 C950 1.370 . S
C951 C952 1.403 . S
C952 C951 1.403 . S
C952 C953 1.404 . S
C952 C955 1.539 . S
C953 C949 1.408 . S
C953 C952 1.404 . S
C953 H965 0.930 . S
C954 C950 1.524 . S
C954 H966 0.956 . S
C954 H967 0.961 . S
C954 H968 0.961 . S
C955 C952 1.539 . S
C955 H969 0.958 . S
C955 H970 0.961 . S
C955 H971 0.960 . S
H956 C940 0.931 . S
H957 C945 0.929 . S
H958 C946 0.960 . S
H959 C946 0.962 . S
H960 C946 0.960 . S
H961 C947 0.961 . S
H962 C947 0.961 . S
H963 C947 0.961 . S
H964 C948 0.931 . S
H965 C953 0.930 . S
H966 C954 0.956 . S
H967 C954 0.961 . S
H968 C954 0.961 . S
H969 C955 0.958 . S
H970 C955 0.961 . S
H971 C955 0.960 . S
C972 C973 1.391 . S
C972 C974 1.394 . S
C972 H988 0.931 . S
C973 C972 1.391 . S
C973 C977 1.376 . S
C974 C972 1.394 . S
C974 C975 1.369 . S
C974 C978 1.531 . S
C975 C974 1.369 . S
C975 C976 1.410 . S
C975 C983 1.503 . S
C976 C975 1.410 . S
C976 C977 1.392 . S
C976 C979 1.511 . S
C977 C973 1.376 . S
C977 C976 1.392 . S
C977 H989 0.929 . S
C978 C974 1.531 . S
C978 H990 0.960 . S
C978 H991 0.962 . S
C978 H992 0.960 . S
C979 C976 1.511 . S
C979 H993 0.961 . S
C979 H994 0.961 . S
C979 H995 0.961 . S
C980 C981 1.370 . S
C980 C982 1.363 . S
C980 H996 0.931 . S
C981 C980 1.370 . S
C981 C985 1.408 . S
C982 C980 1.363 . S
C982 C983 1.370 . S
C982 C986 1.524 . S
C983 C975 1.503 . S
C983 C982 1.370 . S
C983 C984 1.403 . S
C984 C983 1.403 . S
C984 C985 1.404 . S
C984 C987 1.539 . S
C985 C981 1.408 . S
C985 C984 1.404 . S
C985 H997 0.930 . S
C986 C982 1.524 . S
C986 H998 0.956 . S
C986 H999 0.961 . S
C986 H1000 0.961 . S
C987 C984 1.539 . S
C987 H1001 0.958 . S
C987 H1002 0.961 . S
C987 H1003 0.960 . S
H988 C972 0.931 . S
H989 C977 0.929 . S
H990 C978 0.960 . S
H991 C978 0.962 . S
H992 C978 0.960 . S
H993 C979 0.961 . S
H994 C979 0.961 . S
H995 C979 0.961 . S
H996 C980 0.931 . S
H997 C985 0.930 . S
H998 C986 0.956 . S
H999 C986 0.961 . S
H1000 C986 0.961 . S
H1001 C987 0.958 . S
H1002 C987 0.961 . S
H1003 C987 0.960 . S
C1004 C1005 1.391 . S
C1004 C1006 1.394 . S
C1004 H1020 0.931 . S
C1005 C1004 1.391 . S
C1005 C1009 1.376 . S
C1006 C1004 1.394 . S
C1006 C1007 1.369 . S
C1006 C1010 1.531 . S
C1007 C1006 1.369 . S
C1007 C1008 1.410 . S
C1007 C1015 1.503 . S
C1008 C1007 1.410 . S
C1008 C1009 1.392 . S
C1008 C1011 1.511 . S
C1009 C1005 1.376 . S
C1009 C1008 1.392 . S
C1009 H1021 0.929 . S
C1010 C1006 1.531 . S
C1010 H1022 0.960 . S
C1010 H1023 0.962 . S
C1010 H1024 0.960 . S
C1011 C1008 1.511 . S
C1011 H1025 0.961 . S
C1011 H1026 0.961 . S
C1011 H1027 0.961 . S
C1012 C1013 1.370 . S
C1012 C1014 1.363 . S
C1012 H1028 0.931 . S
C1013 C1012 1.370 . S
C1013 C1017 1.408 . S
C1014 C1012 1.363 . S
C1014 C1015 1.370 . S
C1014 C1018 1.524 . S
C1015 C1007 1.503 . S
C1015 C1014 1.370 . S
C1015 C1016 1.403 . S
C1016 C1015 1.403 . S
C1016 C1017 1.404 . S
C1016 C1019 1.539 . S
C1017 C1013 1.408 . S
C1017 C1016 1.404 . S
C1017 H1029 0.930 . S
C1018 C1014 1.524 . S
C1018 H1030 0.956 . S
C1018 H1031 0.961 . S
C1018 H1032 0.961 . S
C1019 C1016 1.539 . S
C1019 H1033 0.958 . S
C1019 H1034 0.961 . S
C1019 H1035 0.960 . S
H1020 C1004 0.931 . S
H1021 C1009 0.929 . S
H1022 C1010 0.960 . S
H1023 C1010 0.962 . S
H1024 C1010 0.960 . S
H1025 C1011 0.961 . S
H1026 C1011 0.961 . S
H1027 C1011 0.961 . S
H1028 C1012 0.931 . S
H1029 C1017 0.930 . S
H1030 C1018 0.956 . S
H1031 C1018 0.961 . S
H1032 C1018 0.961 . S
H1033 C1019 0.958 . S
H1034 C1019 0.961 . S
H1035 C1019 0.960 . S
C1036 C1037 1.391 . S
C1036 C1038 1.394 . S
C1036 H1052 0.931 . S
C1037 C1036 1.391 . S
C1037 C1041 1.376 . S
C1038 C1036 1.394 . S
C1038 C1039 1.369 . S
C1038 C1042 1.531 . S
C1039 C1038 1.369 . S
C1039 C1040 1.410 . S
C1039 C1047 1.503 . S
C1040 C1039 1.410 . S
C1040 C1041 1.392 . S
C1040 C1043 1.511 . S
C1041 C1037 1.376 . S
C1041 C1040 1.392 . S
C1041 H1053 0.929 . S
C1042 C1038 1.531 . S
C1042 H1054 0.960 . S
C1042 H1055 0.962 . S
C1042 H1056 0.960 . S
C1043 C1040 1.511 . S
C1043 H1057 0.961 . S
C1043 H1058 0.961 . S
C1043 H1059 0.961 . S
C1044 C1045 1.370 . S
C1044 C1046 1.363 . S
C1044 H1060 0.931 . S
C1045 C1044 1.370 . S
C1045 C1049 1.408 . S
C1046 C1044 1.363 . S
C1046 C1047 1.370 . S
C1046 C1050 1.524 . S
C1047 C1039 1.503 . S
C1047 C1046 1.370 . S
C1047 C1048 1.403 . S
C1048 C1047 1.403 . S
C1048 C1049 1.404 . S
C1048 C1051 1.539 . S
C1049 C1045 1.408 . S
C1049 C1048 1.404 . S
C1049 H1061 0.930 . S
C1050 C1046 1.524 . S
C1050 H1062 0.956 . S
C1050 H1063 0.961 . S
C1050 H1064 0.961 . S
C1051 C1048 1.539 . S
C1051 H1065 0.958 . S
C1051 H1066 0.961 . S
C1051 H1067 0.960 . S
H1052 C1036 0.931 . S
H1053 C1041 0.929 . S
H1054 C1042 0.960 . S
H1055 C1042 0.962 . S
H1056 C1042 0.960 . S
H1057 C1043 0.961 . S
H1058 C1043 0.961 . S
H1059 C1043 0.961 . S
H1060 C1044 0.931 . S
H1061 C1049 0.930 . S
H1062 C1050 0.956 . S
H1063 C1050 0.961 . S
H1064 C1050 0.961 . S
H1065 C1051 0.958 . S
H1066 C1051 0.961 . S
H1067 C1051 0.960 . S
C1068 C1069 1.391 . S
C1068 C1070 1.394 . S
C1068 H1084 0.931 . S
C1069 C1068 1.391 . S
C1069 C1073 1.376 . S
C1070 C1068 1.394 . S
C1070 C1071 1.369 . S
C1070 C1074 1.531 . S
C1071 C1070 1.369 . S
C1071 C1072 1.410 . S
C1071 C1079 1.503 . S
C1072 C1071 1.410 . S
C1072 C1073 1.392 . S
C1072 C1075 1.511 . S
C1073 C1069 1.376 . S
C1073 C1072 1.392 . S
C1073 H1085 0.929 . S
C1074 C1070 1.531 . S
C1074 H1086 0.960 . S
C1074 H1087 0.962 . S
C1074 H1088 0.960 . S
C1075 C1072 1.511 . S
C1075 H1089 0.961 . S
C1075 H1090 0.961 . S
C1075 H1091 0.961 . S
C1076 C1077 1.370 . S
C1076 C1078 1.363 . S
C1076 H1092 0.931 . S
C1077 C1076 1.370 . S
C1077 C1081 1.408 . S
C1078 C1076 1.363 . S
C1078 C1079 1.370 . S
C1078 C1082 1.524 . S
C1079 C1071 1.503 . S
C1079 C1078 1.370 . S
C1079 C1080 1.403 . S
C1080 C1079 1.403 . S
C1080 C1081 1.404 . S
C1080 C1083 1.539 . S
C1081 C1077 1.408 . S
C1081 C1080 1.404 . S
C1081 H1093 0.930 . S
C1082 C1078 1.524 . S
C1082 H1094 0.956 . S
C1082 H1095 0.961 . S
C1082 H1096 0.961 . S
C1083 C1080 1.539 . S
C1083 H1097 0.958 . S
C1083 H1098 0.961 . S
C1083 H1099 0.960 . S
H1084 C1068 0.931 . S
H1085 C1073 0.929 . S
H1086 C1074 0.960 . S
H1087 C1074 0.962 . S
H1088 C1074 0.960 . S
H1089 C1075 0.961 . S
H1090 C1075 0.961 . S
H1091 C1075 0.961 . S
H1092 C1076 0.931 . S
H1093 C1081 0.930 . S
H1094 C1082 0.956 . S
H1095 C1082 0.961 . S
H1096 C1082 0.961 . S
H1097 C1083 0.958 . S
H1098 C1083 0.961 . S
H1099 C1083 0.960 . S
C1100 C1101 1.391 . S
C1100 C1102 1.394 . S
C1100 H1116 0.931 . S
C1101 C1100 1.391 . S
C1101 C1105 1.376 . S
C1102 C1100 1.394 . S
C1102 C1103 1.369 . S
C1102 C1106 1.531 . S
C1103 C1102 1.369 . S
C1103 C1104 1.410 . S
C1103 C1111 1.503 . S
C1104 C1103 1.410 . S
C1104 C1105 1.392 . S
C1104 C1107 1.511 . S
C1105 C1101 1.376 . S
C1105 C1104 1.392 . S
C1105 H1117 0.929 . S
C1106 C1102 1.531 . S
C1106 H1118 0.960 . S
C1106 H1119 0.962 . S
C1106 H1120 0.960 . S
C1107 C1104 1.511 . S
C1107 H1121 0.961 . S
C1107 H1122 0.961 . S
C1107 H1123 0.961 . S
C1108 C1109 1.370 . S
C1108 C1110 1.363 . S
C1108 H1124 0.931 . S
C1109 C1108 1.370 . S
C1109 C1113 1.408 . S
C1110 C1108 1.363 . S
C1110 C1111 1.370 . S
C1110 C1114 1.524 . S
C1111 C1103 1.503 . S
C1111 C1110 1.370 . S
C1111 C1112 1.403 . S
C1112 C1111 1.403 . S
C1112 C1113 1.404 . S
C1112 C1115 1.539 . S
C1113 C1109 1.408 . S
C1113 C1112 1.404 . S
C1113 H1125 0.930 . S
C1114 C1110 1.524 . S
C1114 H1126 0.956 . S
C1114 H1127 0.961 . S
C1114 H1128 0.961 . S
C1115 C1112 1.539 . S
C1115 H1129 0.958 . S
C1115 H1130 0.961 . S
C1115 H1131 0.960 . S
H1116 C1100 0.931 . S
H1117 C1105 0.929 . S
H1118 C1106 0.960 . S
H1119 C1106 0.962 . S
H1120 C1106 0.960 . S
H1121 C1107 0.961 . S
H1122 C1107 0.961 . S
H1123 C1107 0.961 . S
H1124 C1108 0.931 . S
H1125 C1113 0.930 . S
H1126 C1114 0.956 . S
H1127 C1114 0.961 . S
H1128 C1114 0.961 . S
H1129 C1115 0.958 . S
H1130 C1115 0.961 . S
H1131 C1115 0.960 . S
C1132 C1133 1.391 . S
C1132 C1134 1.394 . S
C1132 H1148 0.931 . S
C1133 C1132 1.391 . S
C1133 C1137 1.376 . S
C1134 C1132 1.394 . S
C1134 C1135 1.369 1_554 S
C1134 C1138 1.531 . S
C1135 C1134 1.369 1_556 S
C1135 C1136 1.410 1_556 S
C1135 C1143 1.502 . S
C1136 C1135 1.410 1_554 S
C1136 C1137 1.392 . S
C1136 C1139 1.511 1_554 S
C1137 C1133 1.376 . S
C1137 C1136 1.392 . S
C1137 H1149 0.929 . S
C1138 C1134 1.531 . S
C1138 H1150 0.960 . S
C1138 H1151 0.962 1_554 S
C1138 H1152 0.960 . S
C1139 C1136 1.511 1_556 S
C1139 H1153 0.961 . S
C1139 H1154 0.961 . S
C1139 H1155 0.961 1_556 S
C1140 C1141 1.370 . S
C1140 C1142 1.363 . S
C1140 H1156 0.931 . S
C1141 C1140 1.370 . S
C1141 C1145 1.408 . S
C1142 C1140 1.363 . S
C1142 C1143 1.370 . S
C1142 C1146 1.524 . S
C1143 C1135 1.502 . S
C1143 C1142 1.370 . S
C1143 C1144 1.403 1_556 S
C1144 C1143 1.403 1_554 S
C1144 C1145 1.404 1_554 S
C1144 C1147 1.539 . S
C1145 C1141 1.408 . S
C1145 C1144 1.404 1_556 S
C1145 H1157 0.930 1_556 S
C1146 C1142 1.524 . S
C1146 H1158 0.956 . S
C1146 H1159 0.961 . S
C1146 H1160 0.961 . S
C1147 C1144 1.539 . S
C1147 H1161 0.958 . S
C1147 H1162 0.961 . S
C1147 H1163 0.960 . S
H1148 C1132 0.931 . S
H1149 C1137 0.929 . S
H1150 C1138 0.960 . S
H1151 C1138 0.962 1_556 S
H1152 C1138 0.960 . S
H1153 C1139 0.961 . S
H1154 C1139 0.961 . S
H1155 C1139 0.961 1_554 S
H1156 C1140 0.931 . S
H1157 C1145 0.930 1_554 S
H1158 C1146 0.956 . S
H1159 C1146 0.961 . S
H1160 C1146 0.961 . S
H1161 C1147 0.958 . S
H1162 C1147 0.961 . S
H1163 C1147 0.960 . S
C397 C7 0.768 . S
C405 C100 0.799 1_565 S
C429 C25 1.032 . S
C437 C139 0.992 . S
C461 C46 1.155 . S
C469 C178 1.073 . S
C501 C202 0.941 . S
C493 C70 0.894 . S
C533 C241 0.833 . S
C525 C28 0.736 . S
C557 C49 0.998 . S
C565 C280 0.942 . S
C589 C67 1.074 . S
C597 C334 1.107 . S
C621 C4 1.024 . S
C629 C358 0.990 . S
C653 C58 1.735 . S
C661 C373 1.884 . S
C693 C256 1.642 . S
C685 C66 1.579 . S
C725 C295 1.983 . S
C717 C3 1.981 . S
C749 C37 1.799 . S
C757 C319 1.883 . S
C789 C124 1.892 . S
C781 C79 1.716 . S
C813 C16 1.822 . S
C821 C163 1.901 . S
C853 C217 1.970 . S
C845 C24 1.951 . S
C885 C85 1.659 . S
C877 C45 1.548 . S
C917 C339 1.532 . S
C909 C19 1.233 . S
C949 C378 1.341 . S
C941 C41 1.290 . S
C973 C62 1.022 . S
C981 C261 1.125 . S
C1013 C300 1.359 . S
C1005 C82 1.162 . S
C1045 C183 1.519 . S
C1037 C40 1.353 . S
C1069 C61 1.161 . S
C1077 C222 1.346 . S
C1109 C105 1.125 . S
C1101 C83 1.061 . S
C1141 C144 1.349 . S
C1133 C20 1.305 . S
