# Generated by pormake.
# Topology ptr, (4,4)-cn, num edge types: 1
# Building blocks:
#     Node 0, Type 0, BuildingBlock: NAHDIM_clean_sbu_0, # of connection points: 4
#     Node 1, Type 0, BuildingBlock: NAHDIM_clean_sbu_0, # of connection points: 4
#     Node 2, Type 0, BuildingBlock: NAHDIM_clean_sbu_0, # of connection points: 4
#     Node 3, Type 0, BuildingBlock: NAHDIM_clean_sbu_0, # of connection points: 4
#     Node 4, Type 0, BuildingBlock: NAHDIM_clean_sbu_0, # of connection points: 4
#     Node 5, Type 0, BuildingBlock: NAHDIM_clean_sbu_0, # of connection points: 4
#     Node 6, Type 0, BuildingBlock: NAHDIM_clean_sbu_0, # of connection points: 4
#     Node 7, Type 0, BuildingBlock: NAHDIM_clean_sbu_0, # of connection points: 4
#     Node 8, Type 0, BuildingBlock: NAHDIM_clean_sbu_0, # of connection points: 4
#     Node 9, Type 0, BuildingBlock: NAHDIM_clean_sbu_0, # of connection points: 4
#     Node 10, Type 0, BuildingBlock: NAHDIM_clean_sbu_0, # of connection points: 4
#     Node 11, Type 0, BuildingBlock: NAHDIM_clean_sbu_0, # of connection points: 4
#     Node 12, Type 0, BuildingBlock: NAHDIM_clean_sbu_0, # of connection points: 4
#     Node 13, Type 0, BuildingBlock: NAHDIM_clean_sbu_0, # of connection points: 4
#     Node 14, Type 0, BuildingBlock: NAHDIM_clean_sbu_0, # of connection points: 4
#     Node 15, Type 0, BuildingBlock: NAHDIM_clean_sbu_0, # of connection points: 4
#     Node 16, Type 0, BuildingBlock: NAHDIM_clean_sbu_0, # of connection points: 4
#     Node 17, Type 0, BuildingBlock: NAHDIM_clean_sbu_0, # of connection points: 4
#     Node 18, Type 1, BuildingBlock: NAHDIM_clean_linker_0, # of connection points: 4
#     Node 19, Type 1, BuildingBlock: NAHDIM_clean_linker_0, # of connection points: 4
#     Node 20, Type 1, BuildingBlock: NAHDIM_clean_linker_0, # of connection points: 4
#     Node 21, Type 1, BuildingBlock: NAHDIM_clean_linker_0, # of connection points: 4
#     Node 22, Type 1, BuildingBlock: NAHDIM_clean_linker_0, # of connection points: 4
#     Node 23, Type 1, BuildingBlock: NAHDIM_clean_linker_0, # of connection points: 4
#     Node 24, Type 1, BuildingBlock: NAHDIM_clean_linker_0, # of connection points: 4
#     Node 25, Type 1, BuildingBlock: NAHDIM_clean_linker_0, # of connection points: 4
#     Node 26, Type 1, BuildingBlock: NAHDIM_clean_linker_0, # of connection points: 4
#     Node 27, Type 1, BuildingBlock: NAHDIM_clean_linker_0, # of connection points: 4
#     Node 28, Type 1, BuildingBlock: NAHDIM_clean_linker_0, # of connection points: 4
#     Node 29, Type 1, BuildingBlock: NAHDIM_clean_linker_0, # of connection points: 4
#     Node 30, Type 1, BuildingBlock: NAHDIM_clean_linker_0, # of connection points: 4
#     Node 31, Type 1, BuildingBlock: NAHDIM_clean_linker_0, # of connection points: 4
#     Node 32, Type 1, BuildingBlock: NAHDIM_clean_linker_0, # of connection points: 4
#     Node 33, Type 1, BuildingBlock: NAHDIM_clean_linker_0, # of connection points: 4
#     Node 34, Type 1, BuildingBlock: NAHDIM_clean_linker_0, # of connection points: 4
#     Node 35, Type 1, BuildingBlock: NAHDIM_clean_linker_0, # of connection points: 4
#     Edge 36, Type (0, 1), None
#     Edge 37, Type (0, 1), None
#     Edge 38, Type (0, 1), None
#     Edge 39, Type (0, 1), None
#     Edge 40, Type (0, 1), None
#     Edge 41, Type (0, 1), None
#     Edge 42, Type (0, 1), None
#     Edge 43, Type (0, 1), None
#     Edge 44, Type (0, 1), None
#     Edge 45, Type (0, 1), None
#     Edge 46, Type (0, 1), None
#     Edge 47, Type (0, 1), None
#     Edge 48, Type (0, 1), None
#     Edge 49, Type (0, 1), None
#     Edge 50, Type (0, 1), None
#     Edge 51, Type (0, 1), None
#     Edge 52, Type (0, 1), None
#     Edge 53, Type (0, 1), None
#     Edge 54, Type (0, 1), None
#     Edge 55, Type (0, 1), None
#     Edge 56, Type (0, 1), None
#     Edge 57, Type (0, 1), None
#     Edge 58, Type (0, 1), None
#     Edge 59, Type (0, 1), None
#     Edge 60, Type (0, 1), None
#     Edge 61, Type (0, 1), None
#     Edge 62, Type (0, 1), None
#     Edge 63, Type (0, 1), None
#     Edge 64, Type (0, 1), None
#     Edge 65, Type (0, 1), None
#     Edge 66, Type (0, 1), None
#     Edge 67, Type (0, 1), None
#     Edge 68, Type (0, 1), None
#     Edge 69, Type (0, 1), None
#     Edge 70, Type (0, 1), None
#     Edge 71, Type (0, 1), None
#     Edge 72, Type (0, 1), None
#     Edge 73, Type (0, 1), None
#     Edge 74, Type (0, 1), None
#     Edge 75, Type (0, 1), None
#     Edge 76, Type (0, 1), None
#     Edge 77, Type (0, 1), None
#     Edge 78, Type (0, 1), None
#     Edge 79, Type (0, 1), None
#     Edge 80, Type (0, 1), None
#     Edge 81, Type (0, 1), None
#     Edge 82, Type (0, 1), None
#     Edge 83, Type (0, 1), None
#     Edge 84, Type (0, 1), None
#     Edge 85, Type (0, 1), None
#     Edge 86, Type (0, 1), None
#     Edge 87, Type (0, 1), None
#     Edge 88, Type (0, 1), None
#     Edge 89, Type (0, 1), None
#     Edge 90, Type (0, 1), None
#     Edge 91, Type (0, 1), None
#     Edge 92, Type (0, 1), None
#     Edge 93, Type (0, 1), None
#     Edge 94, Type (0, 1), None
#     Edge 95, Type (0, 1), None
#     Edge 96, Type (0, 1), None
#     Edge 97, Type (0, 1), None
#     Edge 98, Type (0, 1), None
#     Edge 99, Type (0, 1), None
#     Edge 100, Type (0, 1), None
#     Edge 101, Type (0, 1), None
#     Edge 102, Type (0, 1), None
#     Edge 103, Type (0, 1), None
#     Edge 104, Type (0, 1), None
#     Edge 105, Type (0, 1), None
#     Edge 106, Type (0, 1), None
#     Edge 107, Type (0, 1), None
# Relax obj value: 0.084
# Max RMSD: 0.310
# Mean RMSD: 0.119
data_MOF--net-ptr--node1-NAHDIM_clean_sbu_0--node2-NAHDIM_clean_linker_0--edge1-none
_symmetry_space_group_name_H-M    P1
_symmetry_Int_Tables_number       1
_symmetry_cell_setting            triclinic
loop_
_symmetry_equiv_pos_as_xyz
'x, y, z'
_cell_length_a     57.810586
_cell_length_b     56.372324
_cell_length_c     47.550102
_cell_angle_alpha  93.338971
_cell_angle_beta   89.616623
_cell_angle_gamma 122.36348
loop_
_atom_site_label
_atom_site_type_symbol
_atom_site_fract_x
_atom_site_fract_y
_atom_site_fract_z
_atom_type_partial_charge
C0 C 0.07972 0.40701 0.04501 0.0
O1 O 0.09233 0.42835 0.06388 0.0
O2 O 0.0285 0.33681 0.00607 0.0
Zn3 Zn 0.03682 0.37586 0.9984 0.0
O4 O 0.0012 0.3749 0.99471 0.0
C5 C 0.05333 0.38554 0.9364 0.0
O6 O 0.07352 0.39623 0.91872 0.0
O7 O 0.06078 0.40504 0.02956 0.0
C8 C 0.98492 0.37542 0.01266 0.0
O9 O 0.96318 0.37465 0.00331 0.0
C10 C 0.00412 0.31539 0.00541 0.0
O11 O 0.98367 0.31824 0.99918 0.0
O12 O 0.05906 0.38879 0.96271 0.0
C13 C 0.72755 0.662 0.99767 0.0
O14 O 0.72107 0.67715 0.98366 0.0
O15 O 0.6901 0.68751 0.0303 0.0
Zn16 Zn 0.67701 0.64649 0.02229 0.0
O17 O 0.65167 0.63013 0.98803 0.0
C18 C 0.65209 0.59984 0.05766 0.0
O19 O 0.6589 0.58829 0.03717 0.0
O20 O 0.71088 0.64548 0.01528 0.0
C21 C 0.62787 0.62613 0.98925 0.0
O22 O 0.61965 0.63147 0.01325 0.0
C23 C 0.68567 0.70186 0.014 0.0
O24 O 0.67052 0.68968 0.99093 0.0
O25 O 0.658 0.62492 0.05618 0.0
C26 C 0.36878 0.05442 0.98603 0.0
O27 O 0.38591 0.06966 0.96676 0.0
O28 O 0.30458 0.9944 0.02116 0.0
Zn29 Zn 0.34233 0.00061 0.01706 0.0
O30 O 0.33707 0.96335 0.00263 0.0
C31 C 0.38797 0.0277 0.05724 0.0
O32 O 0.40219 0.03755 0.03448 0.0
O33 O 0.36579 0.03087 0.99033 0.0
C34 C 0.33356 0.95231 0.97762 0.0
O35 O 0.33042 0.92747 0.97388 0.0
C36 C 0.29397 0.99394 0.04481 0.0
O37 O 0.30796 0.9981 0.06819 0.0
O38 O 0.36209 0.01109 0.05503 0.0
C39 C 0.99825 0.66988 0.93125 0.0
O40 O 0.01851 0.69508 0.94012 0.0
O41 O 0.01967 0.69489 0.0026 0.0
Zn42 Zn 0.00535 0.65555 0.98635 0.0
O43 O 0.035 0.64699 0.98524 0.0
C44 C 0.98252 0.63401 0.03847 0.0
O45 O 0.00692 0.65506 0.04711 0.0
O46 O 0.98929 0.64964 0.94729 0.0
C47 C 0.05052 0.65192 0.96441 0.0
O48 O 0.04843 0.66428 0.9429 0.0
C49 C 0.00297 0.70295 0.0055 0.0
O50 O 0.97766 0.68631 0.99567 0.0
O51 O 0.97643 0.62927 0.01225 0.0
C52 C 0.27926 0.30147 0.02002 0.0
O53 O 0.28467 0.31173 0.04633 0.0
O54 O 0.36591 0.33765 0.9967 0.0
Zn55 Zn 0.33686 0.34419 0.01227 0.0
O56 O 0.34241 0.35373 0.05433 0.0
C57 C 0.3357 0.37279 0.96646 0.0
O58 O 0.32898 0.34853 0.95375 0.0
O59 O 0.29836 0.31151 0.00237 0.0
C60 C 0.36603 0.36682 0.06631 0.0
O61 O 0.38783 0.37623 0.05087 0.0
C62 C 0.37037 0.31786 0.99747 0.0
O63 O 0.39199 0.32087 0.98489 0.0
O64 O 0.34071 0.37682 0.99288 0.0
C65 C 0.69245 0.98443 0.00612 0.0
O66 O 0.70795 0.00816 0.02124 0.0
O67 O 0.68466 0.04278 0.99903 0.0
Zn68 Zn 0.65426 0.00292 0.00552 0.0
O69 O 0.64149 0.00023 0.04543 0.0
C70 C 0.62037 0.00872 0.9655 0.0
O71 O 0.63762 0.0357 0.97175 0.0
O72 O 0.66885 0.9778 0.9974 0.0
C73 C 0.63545 0.01757 0.05549 0.0
O74 O 0.6379 0.03717 0.03977 0.0
C75 C 0.70113 0.0599 0.01844 0.0
O76 O 0.69932 0.0515 0.04401 0.0
O77 O 0.62291 0.99081 0.9779 0.0
C78 C 0.7367 0.71235 0.36168 0.0
O79 O 0.75305 0.72824 0.38303 0.0
O80 O 0.67862 0.65175 0.31762 0.0
Zn81 Zn 0.68383 0.68984 0.32849 0.0
O82 O 0.65039 0.68795 0.34451 0.0
C83 C 0.67817 0.70895 0.27502 0.0
O84 O 0.65237 0.68836 0.27612 0.0
O85 O 0.71429 0.71119 0.35814 0.0
C86 C 0.64989 0.71028 0.3452 0.0
O87 O 0.67034 0.73288 0.33471 0.0
C88 C 0.66465 0.62794 0.32825 0.0
O89 O 0.66596 0.60685 0.31707 0.0
O90 O 0.69491 0.71326 0.29475 0.0
C91 C 0.36564 0.99468 0.31857 0.0
O92 O 0.37467 0.99117 0.29425 0.0
O93 O 0.34022 0.04 0.36352 0.0
Zn94 Zn 0.31966 0.00014 0.34606 0.0
O95 O 0.28732 0.99274 0.32274 0.0
C96 C 0.2994 0.97713 0.40018 0.0
O97 O 0.30221 0.00159 0.40626 0.0
O98 O 0.34355 0.99462 0.31837 0.0
C99 C 0.26645 0.9925 0.33174 0.0
O100 O 0.2652 0.99876 0.35851 0.0
C101 C 0.33848 0.05936 0.35333 0.0
O102 O 0.32304 0.05366 0.33068 0.0
O103 O 0.30568 0.9719 0.37596 0.0
C104 C 0.01797 0.41343 0.3355 0.0
O105 O 0.99443 0.39804 0.34768 0.0
O106 O 0.98135 0.34154 0.34802 0.0
Zn107 Zn 0.02198 0.36481 0.34098 0.0
O108 O 0.03221 0.34648 0.30984 0.0
C109 C 0.0431 0.38421 0.39783 0.0
O110 O 0.02988 0.39715 0.39613 0.0
O111 O 0.03291 0.40354 0.33028 0.0
C112 C 0.0394 0.32936 0.3149 0.0
O113 O 0.04108 0.32404 0.34107 0.0
C114 C 0.96674 0.31498 0.34334 0.0
O115 O 0.97773 0.30155 0.33211 0.0
O116 O 0.04286 0.36926 0.37663 0.0
C117 C 0.61086 0.95316 0.30989 0.0
O118 O 0.59106 0.93151 0.29486 0.0
O119 O 0.67348 0.03186 0.3263 0.0
Zn120 Zn 0.6725 0.99569 0.31703 0.0
O121 O 0.69938 0.00257 0.28637 0.0
C122 C 0.69594 0.99927 0.37245 0.0
O123 O 0.70478 0.02613 0.37237 0.0
O124 O 0.63533 0.96396 0.30168 0.0
C125 C 0.7222 0.00485 0.29046 0.0
O126 O 0.72952 0.00285 0.31586 0.0
C127 C 0.69454 0.05522 0.32031 0.0
O128 O 0.7152 0.05556 0.3083 0.0
O129 O 0.68248 0.98289 0.35117 0.0
C130 C 0.95105 0.64135 0.3388 0.0
O131 O 0.95846 0.65148 0.36501 0.0
O132 O 0.03534 0.69178 0.30715 0.0
Zn133 Zn 0.00318 0.69151 0.32515 0.0
O134 O 0.01102 0.70433 0.36655 0.0
C135 C 0.99488 0.71539 0.27868 0.0
O136 O 0.9941 0.69372 0.26577 0.0
O137 O 0.96712 0.65419 0.31902 0.0
C138 C 0.03529 0.71903 0.37698 0.0
O139 O 0.05609 0.72669 0.36041 0.0
C140 C 0.04425 0.67541 0.3063 0.0
O141 O 0.06666 0.68284 0.2925 0.0
O142 O 0.99845 0.71927 0.3053 0.0
C143 C 0.36517 0.33331 0.36952 0.0
O144 O 0.3659 0.35232 0.38746 0.0
O145 O 0.34018 0.37432 0.33416 0.0
Zn146 Zn 0.31996 0.33323 0.34215 0.0
O147 O 0.29604 0.32525 0.37578 0.0
C148 C 0.3031 0.3169 0.28343 0.0
O149 O 0.32576 0.34105 0.27942 0.0
O150 O 0.34778 0.32287 0.34906 0.0
C151 C 0.27165 0.31936 0.37249 0.0
O152 O 0.26273 0.31972 0.34729 0.0
C153 C 0.3481 0.39364 0.35371 0.0
O154 O 0.34266 0.38684 0.37997 0.0
O155 O 0.2964 0.3092 0.30834 0.0
C156 C 0.37061 0.05002 0.72531 0.0
O157 O 0.38154 0.06466 0.74934 0.0
O158 O 0.33124 0.98925 0.67052 0.0
Zn159 Zn 0.32069 0.01643 0.68653 0.0
O160 O 0.28195 0.99761 0.70009 0.0
C161 C 0.31709 0.03402 0.63164 0.0
O162 O 0.30256 0.00676 0.62514 0.0
O163 O 0.34525 0.03971 0.7203 0.0
C164 C 0.27293 0.01343 0.70621 0.0
O165 O 0.28858 0.04041 0.70227 0.0
C166 C 0.32372 0.96436 0.67631 0.0
O167 O 0.33473 0.95194 0.66287 0.0
O168 O 0.32602 0.04293 0.6568 0.0
C169 C 0.03356 0.35592 0.68536 0.0
O170 O 0.0196 0.36488 0.6731 0.0
O171 O 0.97148 0.32541 0.74313 0.0
Zn172 Zn 0.98073 0.31278 0.7062 0.0
O173 O 0.96143 0.31441 0.67193 0.0
C174 C 0.98229 0.26587 0.72432 0.0
O175 O 0.00339 0.28562 0.7397 0.0
O176 O 0.02144 0.33517 0.70082 0.0
C177 C 0.96424 0.30448 0.64842 0.0
O178 O 0.98048 0.2948 0.64696 0.0
C179 C 0.9529 0.33065 0.74785 0.0
O180 O 0.94895 0.3364 0.77396 0.0
O181 O 0.96942 0.27249 0.70828 0.0
C182 C 0.63347 0.68484 0.63818 0.0
O183 O 0.61763 0.65754 0.63257 0.0
O184 O 0.63102 0.63865 0.68312 0.0
Zn185 Zn 0.6652 0.66718 0.66392 0.0
O186 O 0.67388 0.65001 0.63021 0.0
C187 C 0.69799 0.6752 0.71316 0.0
O188 O 0.67735 0.64977 0.71768 0.0
O189 O 0.6564 0.69487 0.65103 0.0
C190 C 0.68709 0.63799 0.63258 0.0
O191 O 0.69608 0.6372 0.65757 0.0
C192 C 0.61778 0.61195 0.68018 0.0
O193 O 0.62647 0.59944 0.66298 0.0
O194 O 0.69735 0.68712 0.69158 0.0
C195 C 0.30584 0.32873 0.64797 0.0
O196 O 0.33115 0.33658 0.64233 0.0
O197 O 0.31918 0.33668 0.73828 0.0
Zn198 Zn 0.31933 0.31648 0.70163 0.0
O199 O 0.35768 0.33356 0.68742 0.0
C200 C 0.28005 0.26245 0.72072 0.0
O201 O 0.26686 0.27506 0.72687 0.0
O202 O 0.29642 0.31942 0.67186 0.0
C203 C 0.36978 0.32033 0.68419 0.0
O204 O 0.35809 0.2946 0.69241 0.0
C205 C 0.32166 0.36054 0.74069 0.0
O206 O 0.32032 0.37077 0.76576 0.0
O207 O 0.30294 0.27575 0.70874 0.0
C208 C 0.63688 0.02629 0.7132 0.0
O209 O 0.62954 0.00273 0.72479 0.0
O210 O 0.65157 0.97776 0.68366 0.0
Zn211 Zn 0.67921 0.0186 0.69466 0.0
O212 O 0.69696 0.02108 0.73205 0.0
C213 C 0.69952 0.03913 0.64064 0.0
O214 O 0.67453 0.03359 0.63718 0.0
O215 O 0.65889 0.03842 0.69955 0.0
C216 C 0.71963 0.02271 0.73473 0.0
O217 O 0.73328 0.0235 0.71224 0.0
C218 C 0.65716 0.95905 0.68633 0.0
O219 O 0.68157 0.96641 0.6957 0.0
O220 O 0.70677 0.03491 0.66405 0.0
C221 C 0.98213 0.61909 0.69327 0.0
O222 O 0.00283 0.62627 0.67667 0.0
O223 O 0.03502 0.68754 0.67952 0.0
Zn224 Zn 0.99531 0.675 0.68407 0.0
O225 O 0.99311 0.70183 0.71209 0.0
C226 C 0.95862 0.65417 0.63402 0.0
O227 O 0.94759 0.6292 0.64399 0.0
O228 O 0.9747 0.6363 0.69907 0.0
C229 C 0.99473 0.72395 0.70469 0.0
O230 O 0.99748 0.72956 0.67801 0.0
C231 C 0.05264 0.70264 0.69905 0.0
O232 O 0.04496 0.71025 0.72207 0.0
O233 O 0.97902 0.67544 0.64691 0.0
C234 C 0.2478 0.25736 0.99063 0.0
C235 C 0.25007 0.28141 0.00962 0.0
C236 C 0.21961 0.28076 0.04635 0.0
C237 C 0.22918 0.30959 0.04787 0.0
C238 C 0.2164 0.32021 0.06502 0.0
C239 C 0.19286 0.30145 0.07997 0.0
C240 C 0.18234 0.27218 0.07712 0.0
C241 C 0.19635 0.26241 0.061 0.0
C242 C 0.2285 0.35155 0.06761 0.0
C243 C 0.15649 0.25109 0.09133 0.0
C244 C 0.09657 0.38282 0.01308 0.0
C245 C 0.08735 0.38522 0.04283 0.0
C246 C 0.11795 0.37726 0.07126 0.0
C247 C 0.10358 0.34778 0.06681 0.0
C248 C 0.11415 0.33253 0.07736 0.0
C249 C 0.13971 0.34708 0.09222 0.0
C250 C 0.15445 0.37681 0.09606 0.0
C251 C 0.14314 0.39138 0.08589 0.0
C252 C 0.09782 0.30086 0.0731 0.0
C253 C 0.18212 0.39329 0.11112 0.0
C254 C 0.09325 0.3318 0.27201 0.0
C255 C 0.08643 0.30486 0.26162 0.0
C256 C 0.10524 0.30122 0.24623 0.0
C257 C 0.13146 0.32491 0.24129 0.0
C258 C 0.13876 0.35189 0.25255 0.0
C259 C 0.11949 0.35496 0.2677 0.0
C260 C 0.09686 0.27211 0.23463 0.0
C261 C 0.16665 0.37753 0.2479 0.0
C262 C 0.29374 0.27518 0.25328 0.0
C263 C 0.28654 0.29746 0.25859 0.0
C264 C 0.24143 0.29131 0.25427 0.0
C265 C 0.21359 0.27047 0.25116 0.0
C266 C 0.19486 0.27625 0.23993 0.0
C267 C 0.20423 0.30379 0.23221 0.0
C268 C 0.23217 0.32536 0.23674 0.0
C269 C 0.25052 0.31889 0.24762 0.0
C270 C 0.16519 0.25279 0.23565 0.0
C271 C 0.24271 0.35517 0.22959 0.0
C272 C 0.17972 0.31228 0.09934 0.0
C273 C 0.16485 0.32262 0.08771 0.0
C274 C 0.15085 0.33158 0.10489 0.0
C275 C 0.15003 0.32839 0.13422 0.0
C276 C 0.13387 0.33443 0.1517 0.0
C277 C 0.13361 0.33178 0.18062 0.0
C278 C 0.15016 0.32381 0.1933 0.0
C279 C 0.15044 0.32155 0.22275 0.0
C280 C 0.16819 0.31501 0.23484 0.0
C281 C 0.18519 0.30977 0.21812 0.0
C282 C 0.18406 0.31041 0.18845 0.0
C283 C 0.19983 0.30389 0.17086 0.0
C284 C 0.19852 0.30454 0.14172 0.0
C285 C 0.18152 0.31191 0.129 0.0
C286 C 0.16601 0.31927 0.1464 0.0
C287 C 0.16675 0.31783 0.17608 0.0
C288 C 0.02983 0.30938 0.26499 0.0
C289 C 0.04816 0.31706 0.29146 0.0
O290 O 0.23258 0.26989 0.03182 0.0
O291 O 0.25879 0.28399 0.26367 0.0
O292 O 0.07525 0.33658 0.2858 0.0
O293 O 0.10853 0.39307 0.06208 0.0
H294 H 0.24362 0.29288 0.99676 0.0
H295 H 0.22624 0.24284 0.98301 0.0
H296 H 0.25418 0.24528 0.00251 0.0
H297 H 0.26082 0.26558 0.97196 0.0
H298 H 0.24708 0.32402 0.03646 0.0
H299 H 0.18897 0.24018 0.05953 0.0
H300 H 0.21484 0.35635 0.0564 0.0
H301 H 0.24912 0.36353 0.0584 0.0
H302 H 0.23014 0.35903 0.09007 0.0
H303 H 0.14743 0.2295 0.08134 0.0
H304 H 0.14094 0.2569 0.09063 0.0
H305 H 0.16134 0.25067 0.11376 0.0
H306 H 0.06884 0.36477 0.04764 0.0
H307 H 0.10406 0.36832 0.0122 0.0
H308 H 0.11338 0.40373 0.00676 0.0
H309 H 0.07926 0.37406 0.99773 0.0
H310 H 0.08406 0.33651 0.0555 0.0
H311 H 0.1541 0.41411 0.08912 0.0
H312 H 0.10949 0.29405 0.06005 0.0
H313 H 0.07756 0.29253 0.06255 0.0
H314 H 0.09457 0.29143 0.09375 0.0
H315 H 0.1927 0.41624 0.10846 0.0
H316 H 0.19544 0.38586 0.1032 0.0
H317 H 0.17948 0.38994 0.13398 0.0
H318 H 0.04601 0.29767 0.29894 0.0
H319 H 0.06639 0.28658 0.26497 0.0
H320 H 0.1247 0.37564 0.27592 0.0
H321 H 0.09749 0.2716 0.21127 0.0
H322 H 0.07593 0.25572 0.24082 0.0
H323 H 0.11158 0.26683 0.24228 0.0
H324 H 0.16984 0.39673 0.25963 0.0
H325 H 0.16903 0.3812 0.22508 0.0
H326 H 0.18286 0.37397 0.2546 0.0
H327 H 0.29184 0.30939 0.23924 0.0
H328 H 0.31588 0.28531 0.24893 0.0
H329 H 0.28176 0.26102 0.23467 0.0
H330 H 0.28886 0.26229 0.27181 0.0
H331 H 0.20671 0.24935 0.25678 0.0
H332 H 0.2719 0.3354 0.25091 0.0
H333 H 0.15872 0.25074 0.21324 0.0
H334 H 0.1522 0.25791 0.2486 0.0
H335 H 0.16141 0.23224 0.24155 0.0
H336 H 0.26415 0.3701 0.23737 0.0
H337 H 0.22948 0.3622 0.2388 0.0
H338 H 0.24194 0.35601 0.20637 0.0
H339 H 0.16455 0.32415 0.0651 0.0
H340 H 0.12096 0.34095 0.14314 0.0
H341 H 0.12057 0.33648 0.19294 0.0
H342 H 0.16867 0.31383 0.2575 0.0
H343 H 0.21326 0.29802 0.17939 0.0
H344 H 0.2112 0.2994 0.1293 0.0
H345 H 0.03527 0.29879 0.24826 0.0
H346 H 0.03228 0.32856 0.25656 0.0
H347 H 0.00799 0.29473 0.26998 0.0
C348 C 0.71945 0.97999 0.96785 0.0
C349 C 0.70431 0.96786 0.9949 0.0
C350 C 0.71724 0.94933 0.03296 0.0
C351 C 0.69062 0.93008 0.04171 0.0
C352 C 0.68576 0.90907 0.05967 0.0
C353 C 0.70795 0.90733 0.06907 0.0
C354 C 0.73489 0.92735 0.06115 0.0
C355 C 0.73918 0.94829 0.04338 0.0
C356 C 0.65687 0.88839 0.06825 0.0
C357 C 0.75903 0.92617 0.07088 0.0
C358 C 0.718 0.74832 0.99512 0.0
C359 C 0.69987 0.7331 0.01983 0.0
C360 C 0.68402 0.76356 0.03817 0.0
C361 C 0.70954 0.78529 0.04985 0.0
C362 C 0.71229 0.80899 0.06455 0.0
C363 C 0.68905 0.81099 0.06796 0.0
C364 C 0.66342 0.7894 0.05606 0.0
C365 C 0.66128 0.76598 0.04122 0.0
C366 C 0.74006 0.83183 0.07671 0.0
C367 C 0.63827 0.79092 0.05941 0.0
C368 C 0.68073 0.76767 0.24338 0.0
C369 C 0.70637 0.78552 0.2316 0.0
C370 C 0.71255 0.81063 0.22024 0.0
C371 C 0.69241 0.81762 0.21978 0.0
C372 C 0.66691 0.80015 0.23229 0.0
C373 C 0.66154 0.77553 0.24417 0.0
C374 C 0.74034 0.82926 0.20792 0.0
C375 C 0.64501 0.80701 0.23227 0.0
C376 C 0.76493 0.04345 0.27081 0.0
C377 C 0.74177 0.01253 0.26676 0.0
C378 C 0.74187 0.97025 0.25197 0.0
C379 C 0.75919 0.96058 0.24576 0.0
C380 C 0.74947 0.93472 0.23059 0.0
C381 C 0.72149 0.91781 0.22206 0.0
C382 C 0.70354 0.9269 0.2293 0.0
C383 C 0.71396 0.95318 0.24393 0.0
C384 C 0.76921 0.92567 0.22336 0.0
C385 C 0.67341 0.90897 0.22136 0.0
C386 C 0.70272 0.88353 0.08568 0.0
C387 C 0.69675 0.85867 0.07077 0.0
C388 C 0.69168 0.83534 0.08484 0.0
C389 C 0.69165 0.83638 0.11459 0.0
C390 C 0.68526 0.81279 0.1293 0.0
C391 C 0.68636 0.81429 0.15856 0.0
C392 C 0.6945 0.83963 0.17426 0.0
C393 C 0.69716 0.84174 0.20399 0.0
C394 C 0.70543 0.86726 0.21896 0.0
C395 C 0.71125 0.89095 0.20499 0.0
C396 C 0.70853 0.88919 0.17524 0.0
C397 C 0.71414 0.91255 0.16044 0.0
C398 C 0.7117 0.91063 0.13114 0.0
C399 C 0.70427 0.88549 0.11548 0.0
C400 C 0.69856 0.86173 0.12997 0.0
C401 C 0.70035 0.86347 0.15986 0.0
C402 C 0.68217 0.71336 0.22315 0.0
C403 C 0.68748 0.72905 0.25209 0.0
O404 O 0.72259 0.96905 0.01449 0.0
O405 O 0.75285 0.99599 0.26578 0.0
O406 O 0.67344 0.74271 0.25393 0.0
O407 O 0.68043 0.74012 0.02384 0.0
H408 H 0.68755 0.94567 0.98934 0.0
H409 H 0.72803 0.96756 0.95943 0.0
H410 H 0.73656 0.00225 0.97197 0.0
H411 H 0.70518 0.979 0.95158 0.0
H412 H 0.6736 0.93134 0.03454 0.0
H413 H 0.75968 0.96348 0.03682 0.0
H414 H 0.65033 0.86693 0.05949 0.0
H415 H 0.6421 0.89367 0.06072 0.0
H416 H 0.6561 0.88789 0.09157 0.0
H417 H 0.77874 0.94353 0.06313 0.0
H418 H 0.75624 0.90577 0.06327 0.0
H419 H 0.76019 0.92738 0.09426 0.0
H420 H 0.71292 0.73886 0.03923 0.0
H421 H 0.72942 0.77146 0.99959 0.0
H422 H 0.70537 0.74305 0.97552 0.0
H423 H 0.73318 0.74217 0.99156 0.0
H424 H 0.72749 0.78407 0.04766 0.0
H425 H 0.6417 0.74924 0.03211 0.0
H426 H 0.74529 0.85264 0.06997 0.0
H427 H 0.75654 0.82833 0.07016 0.0
H428 H 0.73952 0.83265 0.10007 0.0
H429 H 0.61971 0.77218 0.04927 0.0
H430 H 0.64167 0.81006 0.04996 0.0
H431 H 0.63456 0.7927 0.08216 0.0
H432 H 0.70986 0.74425 0.25553 0.0
H433 H 0.72166 0.78005 0.23082 0.0
H434 H 0.64192 0.7618 0.25349 0.0
H435 H 0.73832 0.82694 0.18457 0.0
H436 H 0.75522 0.82373 0.21441 0.0
H437 H 0.74871 0.8517 0.21449 0.0
H438 H 0.62606 0.79098 0.24243 0.0
H439 H 0.63979 0.80849 0.21028 0.0
H440 H 0.65286 0.82781 0.24364 0.0
H441 H 0.73103 0.0099 0.24635 0.0
H442 H 0.75655 0.0572 0.2712 0.0
H443 H 0.77918 0.04908 0.25306 0.0
H444 H 0.77666 0.04748 0.29083 0.0
H445 H 0.7806 0.97376 0.2523 0.0
H446 H 0.70018 0.96014 0.24914 0.0
H447 H 0.76827 0.9206 0.20031 0.0
H448 H 0.76323 0.90628 0.23408 0.0
H449 H 0.79067 0.94212 0.22982 0.0
H450 H 0.66167 0.91751 0.23127 0.0
H451 H 0.66467 0.88719 0.22777 0.0
H452 H 0.67069 0.9078 0.19813 0.0
H453 H 0.69665 0.85767 0.04791 0.0
H454 H 0.67929 0.79285 0.11835 0.0
H455 H 0.68111 0.79537 0.16867 0.0
H456 H 0.70782 0.86883 0.24174 0.0
H457 H 0.72046 0.93261 0.17132 0.0
H458 H 0.71618 0.92923 0.12089 0.0
H459 H 0.6928 0.70176 0.22198 0.0
H460 H 0.69012 0.72855 0.20639 0.0
H461 H 0.65986 0.69822 0.21907 0.0
C462 C 0.25523 0.99378 0.02117 0.0
C463 C 0.26426 0.98435 0.04621 0.0
C464 C 0.22681 0.9386 0.061 0.0
C465 C 0.20896 0.94687 0.07059 0.0
C466 C 0.18527 0.92841 0.08505 0.0
C467 C 0.17983 0.90152 0.0908 0.0
C468 C 0.19806 0.89339 0.08149 0.0
C469 C 0.22102 0.91187 0.06627 0.0
C470 C 0.16585 0.93748 0.09379 0.0
C471 C 0.19328 0.86509 0.08743 0.0
C472 C 0.98762 0.7285 0.03749 0.0
C473 C 0.01176 0.73043 0.02162 0.0
C474 C 0.05143 0.76188 0.05366 0.0
C475 C 0.07096 0.7627 0.07144 0.0
C476 C 0.09045 0.78759 0.08664 0.0
C477 C 0.0899 0.81223 0.0845 0.0
C478 C 0.07051 0.81179 0.06612 0.0
C479 C 0.05161 0.78666 0.0506 0.0
C480 C 0.11141 0.78735 0.10521 0.0
C481 C 0.06948 0.83772 0.06327 0.0
C482 C 0.02791 0.78067 0.26019 0.0
C483 C 0.04626 0.774 0.24852 0.0
C484 C 0.07051 0.79462 0.23638 0.0
C485 C 0.07598 0.82221 0.23497 0.0
C486 C 0.0577 0.82905 0.24723 0.0
C487 C 0.03416 0.80826 0.26017 0.0
C488 C 0.09012 0.78675 0.22493 0.0
C489 C 0.06281 0.8582 0.24637 0.0
C490 C 0.25266 0.01225 0.29497 0.0
C491 C 0.24396 0.98617 0.31124 0.0
C492 C 0.21638 0.94516 0.27761 0.0
C493 C 0.21547 0.92206 0.26398 0.0
C494 C 0.19267 0.90192 0.24729 0.0
C495 C 0.17056 0.90559 0.24333 0.0
C496 C 0.17121 0.92886 0.25723 0.0
C497 C 0.19397 0.94824 0.27456 0.0
C498 C 0.19238 0.87684 0.23377 0.0
C499 C 0.14796 0.93339 0.25358 0.0
C500 C 0.15462 0.88142 0.10557 0.0
C501 C 0.13317 0.85884 0.0894 0.0
C502 C 0.10948 0.83816 0.10194 0.0
C503 C 0.10633 0.84067 0.13125 0.0
C504 C 0.08202 0.8212 0.14423 0.0
C505 C 0.07974 0.8227 0.17332 0.0
C506 C 0.10191 0.84332 0.19061 0.0
C507 C 0.10053 0.84378 0.22036 0.0
C508 C 0.12305 0.86456 0.23685 0.0
C509 C 0.14695 0.88518 0.22448 0.0
C510 C 0.14861 0.88521 0.19477 0.0
C511 C 0.17225 0.90575 0.18158 0.0
C512 C 0.17424 0.90471 0.15239 0.0
C513 C 0.15252 0.8833 0.13521 0.0
C514 C 0.12822 0.86284 0.14805 0.0
C515 C 0.12617 0.86392 0.17782 0.0
C516 C 0.95792 0.723 0.26576 0.0
C517 C 0.98806 0.733 0.26241 0.0
O518 O 0.24932 0.95526 0.04593 0.0
O519 O 0.23946 0.96397 0.29296 0.0
O520 O 0.00416 0.76111 0.27176 0.0
O521 O 0.03275 0.73665 0.04041 0.0
H522 H 0.26142 0.99355 0.06629 0.0
H523 H 0.25709 0.98405 0.00097 0.0
H524 H 0.26802 0.01706 0.02058 0.0
H525 H 0.23353 0.9874 0.02317 0.0
H526 H 0.21303 0.96738 0.06627 0.0
H527 H 0.23485 0.90565 0.05865 0.0
H528 H 0.14454 0.92094 0.08694 0.0
H529 H 0.17125 0.95754 0.08482 0.0
H530 H 0.16633 0.9404 0.11711 0.0
H531 H 0.21154 0.8639 0.08299 0.0
H532 H 0.17586 0.84841 0.07397 0.0
H533 H 0.18784 0.86057 0.10977 0.0
H534 H 0.01916 0.74679 0.00603 0.0
H535 H 0.97125 0.72477 0.02237 0.0
H536 H 0.99423 0.74834 0.05021 0.0
H537 H 0.97901 0.71108 0.05195 0.0
H538 H 0.07081 0.74356 0.07345 0.0
H539 H 0.03691 0.78652 0.03654 0.0
H540 H 0.10636 0.78825 0.12765 0.0
H541 H 0.13217 0.80603 0.10216 0.0
H542 H 0.11194 0.76806 0.1009 0.0
H543 H 0.05196 0.83346 0.04964 0.0
H544 H 0.08878 0.85428 0.05409 0.0
H545 H 0.06786 0.84615 0.08439 0.0
H546 H 0.99112 0.73034 0.23955 0.0
H547 H 0.04187 0.75281 0.24915 0.0
H548 H 0.02 0.81324 0.26957 0.0
H549 H 0.08803 0.78406 0.2016 0.0
H550 H 0.08595 0.76673 0.23294 0.0
H551 H 0.11164 0.80362 0.23062 0.0
H552 H 0.04493 0.85909 0.2535 0.0
H553 H 0.06766 0.86546 0.22467 0.0
H554 H 0.08073 0.87308 0.26032 0.0
H555 H 0.22521 0.98029 0.32322 0.0
H556 H 0.23627 0.00809 0.27973 0.0
H557 H 0.27149 0.01838 0.28308 0.0
H558 H 0.25674 0.03016 0.30978 0.0
H559 H 0.23278 0.91977 0.26662 0.0
H560 H 0.19423 0.96586 0.28521 0.0
H561 H 0.19554 0.87929 0.21082 0.0
H562 H 0.17227 0.85716 0.2365 0.0
H563 H 0.20877 0.87461 0.24275 0.0
H564 H 0.15293 0.95411 0.26314 0.0
H565 H 0.12951 0.91659 0.26371 0.0
H566 H 0.14278 0.93197 0.23084 0.0
H567 H 0.13542 0.85672 0.06688 0.0
H568 H 0.06451 0.8045 0.13201 0.0
H569 H 0.06053 0.80711 0.1821 0.0
H570 H 0.1221 0.86444 0.25964 0.0
H571 H 0.18966 0.92269 0.1937 0.0
H572 H 0.19315 0.92074 0.14349 0.0
H573 H 0.94455 0.70058 0.25798 0.0
H574 H 0.95285 0.73576 0.25326 0.0
H575 H 0.95359 0.72528 0.28823 0.0
C576 C 0.35626 0.06534 0.03349 0.0
C577 C 0.35273 0.06479 0.00162 0.0
C578 C 0.34941 0.10024 0.97758 0.0
C579 C 0.32142 0.0902 0.97952 0.0
C580 C 0.30947 0.10122 0.96328 0.0
C581 C 0.32587 0.12247 0.94477 0.0
C582 C 0.35394 0.13206 0.94243 0.0
C583 C 0.36538 0.12108 0.95921 0.0
C584 C 0.27955 0.09069 0.96631 0.0
C585 C 0.37203 0.1543 0.92256 0.0
C586 C 0.3419 0.29573 0.03974 0.0
C587 C 0.35131 0.2908 0.01115 0.0
C588 C 0.32533 0.25134 0.97614 0.0
C589 C 0.34762 0.25064 0.9652 0.0
C590 C 0.34351 0.2274 0.94825 0.0
C591 C 0.31654 0.20408 0.94243 0.0
C592 C 0.294 0.20504 0.95273 0.0
C593 C 0.29873 0.2289 0.96909 0.0
C594 C 0.36815 0.22758 0.93725 0.0
C595 C 0.26496 0.18057 0.94716 0.0
C596 C 0.28669 0.21032 0.75459 0.0
C597 C 0.31096 0.21264 0.76293 0.0
C598 C 0.31084 0.19396 0.78124 0.0
C599 C 0.28568 0.17247 0.79165 0.0
C600 C 0.26095 0.16989 0.78331 0.0
C601 C 0.26165 0.18874 0.76473 0.0
C602 C 0.33759 0.19705 0.78927 0.0
C603 C 0.23379 0.14709 0.79392 0.0
C604 C 0.22623 0.9723 0.71689 0.0
C605 C 0.24802 0.00332 0.72381 0.0
C606 C 0.26213 0.03072 0.76799 0.0
C607 C 0.2895 0.05238 0.77285 0.0
C608 C 0.2963 0.07746 0.78817 0.0
C609 C 0.27513 0.0804 0.79938 0.0
C610 C 0.24744 0.05804 0.79514 0.0
C611 C 0.24125 0.03344 0.7793 0.0
C612 C 0.32599 0.101 0.79183 0.0
C613 C 0.22437 0.06036 0.80692 0.0
C614 C 0.3146 0.13638 0.92921 0.0
C615 C 0.31709 0.16055 0.94223 0.0
C616 C 0.31212 0.17807 0.92722 0.0
C617 C 0.30476 0.1715 0.89818 0.0
C618 C 0.30171 0.18969 0.8818 0.0
C619 C 0.29526 0.18338 0.85308 0.0
C620 C 0.29127 0.15848 0.83973 0.0
C621 C 0.28532 0.15216 0.81046 0.0
C622 C 0.28025 0.12665 0.79812 0.0
C623 C 0.2817 0.10739 0.81404 0.0
C624 C 0.2891 0.11399 0.84304 0.0
C625 C 0.29233 0.09589 0.85939 0.0
C626 C 0.30078 0.10321 0.88762 0.0
C627 C 0.30528 0.12837 0.90082 0.0
C628 C 0.30093 0.14631 0.88509 0.0
C629 C 0.29361 0.13951 0.85597 0.0
C630 C 0.25355 0.21295 0.7008 0.0
C631 C 0.26782 0.23235 0.72721 0.0
O632 O 0.36222 0.09193 0.99446 0.0
O633 O 0.2559 0.00731 0.75197 0.0
O634 O 0.28856 0.22915 0.73662 0.0
O635 O 0.32868 0.27305 0.99362 0.0
H636 H 0.33065 0.05004 0.99589 0.0
H637 H 0.37827 0.07856 0.04006 0.0
H638 H 0.34764 0.04387 0.04034 0.0
H639 H 0.34516 0.07419 0.04434 0.0
H640 H 0.30917 0.07463 0.9944 0.0
H641 H 0.387 0.12877 0.95811 0.0
H642 H 0.27748 0.10815 0.97504 0.0
H643 H 0.26918 0.07298 0.98037 0.0
H644 H 0.26896 0.08365 0.94529 0.0
H645 H 0.36337 0.14727 0.90072 0.0
H646 H 0.39331 0.159 0.92282 0.0
H647 H 0.37273 0.17401 0.92839 0.0
H648 H 0.36277 0.28058 0.01566 0.0
H649 H 0.35982 0.31095 0.05359 0.0
H650 H 0.33024 0.27557 0.05019 0.0
H651 H 0.32827 0.30365 0.03725 0.0
H652 H 0.36832 0.26811 0.96983 0.0
H653 H 0.28163 0.22968 0.97732 0.0
H654 H 0.36433 0.21839 0.9152 0.0
H655 H 0.37228 0.2146 0.95049 0.0
H656 H 0.38676 0.24918 0.93803 0.0
H657 H 0.2498 0.18393 0.9581 0.0
H658 H 0.2627 0.161 0.95419 0.0
H659 H 0.26012 0.17732 0.92419 0.0
H660 H 0.2526 0.22761 0.74387 0.0
H661 H 0.33014 0.22922 0.75489 0.0
H662 H 0.24256 0.18624 0.75814 0.0
H663 H 0.34156 0.20207 0.81232 0.0
H664 H 0.35519 0.21391 0.77815 0.0
H665 H 0.33632 0.17689 0.7843 0.0
H666 H 0.21664 0.14927 0.78739 0.0
H667 H 0.2347 0.14754 0.81728 0.0
H668 H 0.2294 0.12622 0.7856 0.0
H669 H 0.23859 0.01557 0.71924 0.0
H670 H 0.20809 0.966 0.73 0.0
H671 H 0.23423 0.95879 0.72137 0.0
H672 H 0.21955 0.96886 0.69438 0.0
H673 H 0.30543 0.04985 0.76399 0.0
H674 H 0.22015 0.01635 0.77546 0.0
H675 H 0.33185 0.10572 0.81459 0.0
H676 H 0.329 0.1204 0.7834 0.0
H677 H 0.3399 0.09573 0.78097 0.0
H678 H 0.20423 0.04018 0.80409 0.0
H679 H 0.2233 0.07671 0.79614 0.0
H680 H 0.22832 0.06702 0.82973 0.0
H681 H 0.32414 0.16647 0.9641 0.0
H682 H 0.30465 0.20919 0.89095 0.0
H683 H 0.29339 0.19825 0.84145 0.0
H684 H 0.27536 0.12182 0.7757 0.0
H685 H 0.28892 0.07615 0.85037 0.0
H686 H 0.30352 0.0888 0.89909 0.0
H687 H 0.23705 0.21564 0.69307 0.0
H688 H 0.24415 0.19063 0.70569 0.0
H689 H 0.26847 0.21767 0.68383 0.0
C690 C 0.73178 0.11075 0.03422 0.0
C691 C 0.72507 0.08783 0.01092 0.0
C692 C 0.76894 0.10002 0.99002 0.0
C693 C 0.77308 0.12315 0.97582 0.0
C694 C 0.796 0.13815 0.95908 0.0
C695 C 0.81521 0.12995 0.95653 0.0
C696 C 0.81104 0.10663 0.97062 0.0
C697 C 0.78793 0.09198 0.9872 0.0
C698 C 0.7999 0.16301 0.94435 0.0
C699 C 0.83112 0.09734 0.96828 0.0
C700 C 0.01543 0.28782 0.03566 0.0
C701 C 0.99859 0.28671 0.01037 0.0
C702 C 0.9523 0.25028 0.99526 0.0
C703 C 0.95417 0.22836 0.98258 0.0
C704 C 0.93338 0.20793 0.96386 0.0
C705 C 0.91076 0.21015 0.95712 0.0
C706 C 0.90946 0.23294 0.96931 0.0
C707 C 0.92998 0.25235 0.98874 0.0
C708 C 0.93512 0.18344 0.95224 0.0
C709 C 0.88603 0.23644 0.9625 0.0
C710 C 0.95675 0.21565 0.76778 0.0
C711 C 0.95776 0.19833 0.7869 0.0
C712 C 0.93609 0.18305 0.805 0.0
C713 C 0.91337 0.18619 0.80471 0.0
C714 C 0.91288 0.20481 0.78634 0.0
C715 C 0.93445 0.21916 0.76786 0.0
C716 C 0.93712 0.16289 0.82374 0.0
C717 C 0.88929 0.20914 0.78581 0.0
C718 C 0.71205 0.98935 0.77068 0.0
C719 C 0.72872 0.02011 0.76329 0.0
C720 C 0.77693 0.05306 0.77711 0.0
C721 C 0.79977 0.05314 0.78661 0.0
C722 C 0.82148 0.07684 0.80149 0.0
C723 C 0.8205 0.10128 0.80641 0.0
C724 C 0.7979 0.10173 0.79588 0.0
C725 C 0.77626 0.07755 0.78138 0.0
C726 C 0.84536 0.07569 0.81218 0.0
C727 C 0.79664 0.12776 0.8 0.0
C728 C 0.84021 0.14664 0.94005 0.0
C729 C 0.86342 0.16892 0.95432 0.0
C730 C 0.88707 0.18714 0.93998 0.0
C731 C 0.88755 0.18317 0.91035 0.0
C732 C 0.91029 0.20194 0.89488 0.0
C733 C 0.91074 0.19738 0.86581 0.0
C734 C 0.88855 0.17375 0.85116 0.0
C735 C 0.88915 0.16831 0.82181 0.0
C736 C 0.86655 0.14478 0.80794 0.0
C737 C 0.84321 0.12635 0.82248 0.0
C738 C 0.84221 0.13137 0.85181 0.0
C739 C 0.81902 0.11324 0.86712 0.0
C740 C 0.81821 0.11833 0.89597 0.0
C741 C 0.84076 0.14144 0.91072 0.0
C742 C 0.86448 0.15987 0.89578 0.0
C743 C 0.86506 0.15504 0.86622 0.0
C744 C 0.99497 0.23315 0.70347 0.0
C745 C 0.97541 0.23611 0.72294 0.0
O746 O 0.7473 0.08511 0.00686 0.0
O747 O 0.75622 0.02914 0.76364 0.0
O748 O 0.97748 0.22841 0.74949 0.0
O749 O 0.97099 0.26865 0.01512 0.0
H750 H 0.71924 0.09327 0.99117 0.0
H751 H 0.74872 0.13151 0.02782 0.0
H752 H 0.73824 0.10616 0.05409 0.0
H753 H 0.71359 0.11218 0.0382 0.0
H754 H 0.75881 0.12992 0.9779 0.0
H755 H 0.78461 0.07414 0.99821 0.0
H756 H 0.81953 0.18231 0.95169 0.0
H757 H 0.78299 0.16658 0.94823 0.0
H758 H 0.80112 0.15962 0.92129 0.0
H759 H 0.8244 0.0781 0.97965 0.0
H760 H 0.85144 0.11449 0.97707 0.0
H761 H 0.83375 0.09313 0.94575 0.0
H762 H 0.00498 0.27924 0.99145 0.0
H763 H 0.01045 0.2663 0.03924 0.0
H764 H 0.01079 0.29643 0.05498 0.0
H765 H 0.03769 0.3012 0.0317 0.0
H766 H 0.97134 0.22668 0.98822 0.0
H767 H 0.9287 0.26931 0.99892 0.0
H768 H 0.91559 0.16325 0.95535 0.0
H769 H 0.95212 0.18296 0.96235 0.0
H770 H 0.93852 0.18496 0.92926 0.0
H771 H 0.89117 0.25815 0.96829 0.0
H772 H 0.86791 0.22164 0.97452 0.0
H773 H 0.88029 0.23148 0.9397 0.0
H774 H 0.9543 0.22169 0.71381 0.0
H775 H 0.97517 0.19596 0.7868 0.0
H776 H 0.9338 0.23305 0.75357 0.0
H777 H 0.93884 0.17052 0.84613 0.0
H778 H 0.95479 0.16069 0.81924 0.0
H779 H 0.91794 0.14179 0.82101 0.0
H780 H 0.89396 0.22746 0.77376 0.0
H781 H 0.88401 0.21237 0.80761 0.0
H782 H 0.87098 0.19004 0.77581 0.0
H783 H 0.72421 0.03203 0.77952 0.0
H784 H 0.68986 0.98153 0.77109 0.0
H785 H 0.7186 0.98739 0.79188 0.0
H786 H 0.71519 0.97594 0.75506 0.0
H787 H 0.80025 0.03426 0.78283 0.0
H788 H 0.75908 0.07797 0.77314 0.0
H789 H 0.84844 0.0811 0.83525 0.0
H790 H 0.86435 0.09151 0.80195 0.0
H791 H 0.84234 0.05461 0.80789 0.0
H792 H 0.77847 0.1253 0.78912 0.0
H793 H 0.81545 0.14607 0.79194 0.0
H794 H 0.79586 0.13253 0.82284 0.0
H795 H 0.86294 0.17236 0.97696 0.0
H796 H 0.928 0.22035 0.90512 0.0
H797 H 0.9288 0.21247 0.85498 0.0
H798 H 0.86726 0.14057 0.78549 0.0
H799 H 0.80116 0.09495 0.85693 0.0
H800 H 0.79979 0.10373 0.90666 0.0
H801 H 0.99343 0.23888 0.68189 0.0
H802 H 0.98955 0.21099 0.70215 0.0
H803 H 0.01648 0.24693 0.71158 0.0
C804 C 0.76623 0.66209 0.0217 0.0
C805 C 0.75541 0.66634 0.99434 0.0
C806 C 0.77436 0.65177 0.95536 0.0
C807 C 0.80078 0.67637 0.95696 0.0
C808 C 0.82055 0.68021 0.93735 0.0
C809 C 0.8142 0.6587 0.91622 0.0
C810 C 0.78817 0.63331 0.91543 0.0
C811 C 0.76847 0.63039 0.93479 0.0
C812 C 0.84824 0.70745 0.93912 0.0
C813 C 0.78105 0.60941 0.89399 0.0
C814 C 0.0038 0.65306 0.88388 0.0
C815 C 0.98867 0.66415 0.901 0.0
C816 C 0.94047 0.64952 0.89824 0.0
C817 C 0.91504 0.62837 0.88661 0.0
C818 C 0.89381 0.63313 0.88315 0.0
C819 C 0.89814 0.65965 0.89196 0.0
C820 C 0.92321 0.68054 0.90551 0.0
C821 C 0.94422 0.6753 0.90849 0.0
C822 C 0.86715 0.6102 0.869 0.0
C823 C 0.92814 0.70875 0.91578 0.0
C824 C 0.95099 0.73936 0.73075 0.0
C825 C 0.9332 0.7101 0.73097 0.0
C826 C 0.90793 0.69835 0.74422 0.0
C827 C 0.90098 0.71636 0.75854 0.0
C828 C 0.91843 0.74589 0.75718 0.0
C829 C 0.94304 0.75699 0.74279 0.0
C830 C 0.8892 0.66675 0.74377 0.0
C831 C 0.91159 0.76579 0.77179 0.0
C832 C 0.7132 0.6996 0.7607 0.0
C833 C 0.72178 0.69028 0.73382 0.0
C834 C 0.75472 0.6785 0.74989 0.0
C835 C 0.7586 0.65633 0.75249 0.0
C836 C 0.78339 0.66107 0.76306 0.0
C837 C 0.80475 0.68879 0.77178 0.0
C838 C 0.80113 0.71146 0.76902 0.0
C839 C 0.77619 0.70614 0.75792 0.0
C840 C 0.78663 0.63636 0.76511 0.0
C841 C 0.82348 0.74123 0.77816 0.0
C842 C 0.83478 0.66323 0.89481 0.0
C843 C 0.85617 0.6599 0.90246 0.0
C844 C 0.8775 0.66628 0.88418 0.0
C845 C 0.87806 0.67705 0.85791 0.0
C846 C 0.90034 0.68588 0.84003 0.0
C847 C 0.90049 0.69596 0.81401 0.0
C848 C 0.8777 0.69613 0.80412 0.0
C849 C 0.87686 0.70466 0.77692 0.0
C850 C 0.85308 0.70267 0.76713 0.0
C851 C 0.83049 0.69366 0.78436 0.0
C852 C 0.83191 0.68736 0.81242 0.0
C853 C 0.81061 0.68072 0.83114 0.0
C854 C 0.81187 0.67369 0.85844 0.0
C855 C 0.8339 0.67184 0.86765 0.0
C856 C 0.85573 0.67889 0.84922 0.0
C857 C 0.85515 0.68755 0.82193 0.0
C858 C 0.02345 0.77122 0.72928 0.0
C859 C 0.995 0.74426 0.7267 0.0
O860 O 0.75404 0.64776 0.973 0.0
O861 O 0.72987 0.67202 0.7399 0.0
O862 O 0.97615 0.75106 0.71957 0.0
O863 O 0.96082 0.64428 0.89882 0.0
H864 H 0.76906 0.68844 0.98858 0.0
H865 H 0.75308 0.63997 0.02762 0.0
H866 H 0.76677 0.67643 0.03911 0.0
H867 H 0.78738 0.66691 0.01893 0.0
H868 H 0.80629 0.69284 0.97325 0.0
H869 H 0.74825 0.6113 0.9339 0.0
H870 H 0.86421 0.70314 0.9447 0.0
H871 H 0.84915 0.72309 0.95515 0.0
H872 H 0.85328 0.71683 0.91834 0.0
H873 H 0.76169 0.58971 0.89883 0.0
H874 H 0.79783 0.60531 0.89307 0.0
H875 H 0.77865 0.61523 0.87281 0.0
H876 H 0.99354 0.68405 0.89192 0.0
H877 H 0.02623 0.66879 0.88503 0.0
H878 H 0.9968 0.64906 0.86143 0.0
H879 H 0.99971 0.63306 0.89188 0.0
H880 H 0.91221 0.6084 0.87924 0.0
H881 H 0.96353 0.69147 0.9185 0.0
H882 H 0.86441 0.61711 0.84856 0.0
H883 H 0.84971 0.60624 0.8823 0.0
H884 H 0.8664 0.59018 0.86501 0.0
H885 H 0.94779 0.72188 0.928 0.0
H886 H 0.91111 0.70576 0.92923 0.0
H887 H 0.92852 0.72028 0.89746 0.0
H888 H 0.99046 0.73491 0.74761 0.0
H889 H 0.93912 0.69647 0.7209 0.0
H890 H 0.95685 0.77956 0.74207 0.0
H891 H 0.89125 0.65939 0.7642 0.0
H892 H 0.89433 0.65612 0.72673 0.0
H893 H 0.86747 0.66023 0.74085 0.0
H894 H 0.92809 0.78821 0.77008 0.0
H895 H 0.90803 0.7616 0.79445 0.0
H896 H 0.8924 0.76224 0.76233 0.0
H897 H 0.73867 0.70902 0.72391 0.0
H898 H 0.70625 0.71388 0.75567 0.0
H899 H 0.7307 0.71114 0.77606 0.0
H900 H 0.69629 0.68108 0.77079 0.0
H901 H 0.74198 0.63512 0.74616 0.0
H902 H 0.77362 0.72362 0.75596 0.0
H903 H 0.78711 0.63235 0.78761 0.0
H904 H 0.80629 0.64109 0.75598 0.0
H905 H 0.76958 0.61686 0.75408 0.0
H906 H 0.81672 0.75625 0.77679 0.0
H907 H 0.8414 0.74802 0.76459 0.0
H908 H 0.83035 0.74223 0.8002 0.0
H909 H 0.85623 0.65228 0.92288 0.0
H910 H 0.91812 0.68544 0.84608 0.0
H911 H 0.91847 0.70294 0.8015 0.0
H912 H 0.85207 0.70801 0.74581 0.0
H913 H 0.79284 0.68113 0.82495 0.0
H914 H 0.79501 0.66906 0.87198 0.0
H915 H 0.03904 0.7664 0.73505 0.0
H916 H 0.0237 0.78594 0.74603 0.0
H917 H 0.02906 0.78179 0.7091 0.0
C918 C 0.92386 0.59369 0.31405 0.0
C919 C 0.92258 0.61651 0.33163 0.0
C920 C 0.8922 0.6129 0.36962 0.0
C921 C 0.89796 0.64049 0.37033 0.0
C922 C 0.8822 0.6482 0.38633 0.0
C923 C 0.85932 0.62753 0.40081 0.0
C924 C 0.8529 0.59942 0.39917 0.0
C925 C 0.86999 0.59276 0.38435 0.0
C926 C 0.89032 0.67855 0.38787 0.0
C927 C 0.828 0.57622 0.41292 0.0
C928 C 0.74498 0.7023 0.31184 0.0
C929 C 0.74454 0.69559 0.34258 0.0
C930 C 0.77795 0.68869 0.36703 0.0
C931 C 0.76202 0.65943 0.36965 0.0
C932 C 0.77161 0.64631 0.38616 0.0
C933 C 0.79746 0.66278 0.40027 0.0
C934 C 0.81331 0.69223 0.39784 0.0
C935 C 0.80342 0.70467 0.38102 0.0
C936 C 0.75441 0.61486 0.38818 0.0
C937 C 0.84094 0.71059 0.41268 0.0
C938 C 0.73849 0.64723 0.58214 0.0
C939 C 0.73459 0.62143 0.57166 0.0
C940 C 0.75492 0.62059 0.55614 0.0
C941 C 0.77972 0.64599 0.55103 0.0
C942 C 0.78374 0.67197 0.56152 0.0
C943 C 0.76298 0.67222 0.57682 0.0
C944 C 0.74996 0.5925 0.54521 0.0
C945 C 0.80998 0.69942 0.55659 0.0
C946 C 0.9643 0.6549 0.5822 0.0
C947 C 0.94838 0.65769 0.60664 0.0
C948 C 0.902 0.6389 0.58679 0.0
C949 C 0.87534 0.61521 0.58432 0.0
C950 C 0.85503 0.61489 0.56795 0.0
C951 C 0.86148 0.6392 0.55417 0.0
C952 C 0.88829 0.6635 0.55699 0.0
C953 C 0.90838 0.66292 0.57278 0.0
C954 C 0.82677 0.58851 0.56526 0.0
C955 C 0.89585 0.69019 0.54332 0.0
C956 C 0.84192 0.63517 0.41726 0.0
C957 C 0.82573 0.64211 0.40246 0.0
C958 C 0.80895 0.64952 0.41655 0.0
C959 C 0.80642 0.64778 0.44604 0.0
C960 C 0.78785 0.65254 0.46056 0.0
C961 C 0.7857 0.651 0.48968 0.0
C962 C 0.80293 0.64593 0.50549 0.0
C963 C 0.80152 0.64511 0.53517 0.0
C964 C 0.82056 0.64246 0.55037 0.0
C965 C 0.84037 0.63937 0.53666 0.0
C966 C 0.84063 0.63784 0.50686 0.0
C967 C 0.85902 0.63284 0.49229 0.0
C968 C 0.85951 0.63195 0.46299 0.0
C969 C 0.84165 0.63606 0.4471 0.0
C970 C 0.82326 0.6416 0.46143 0.0
C971 C 0.82222 0.64171 0.49128 0.0
C972 C 0.67239 0.61539 0.58363 0.0
C973 C 0.69484 0.62722 0.60685 0.0
O974 O 0.9079 0.60507 0.3556 0.0
O975 O 0.92065 0.63754 0.60283 0.0
O976 O 0.71934 0.6491 0.59724 0.0
O977 O 0.77059 0.70237 0.35021 0.0
H978 H 0.91178 0.62342 0.31826 0.0
H979 H 0.90279 0.57541 0.30904 0.0
H980 H 0.93523 0.58642 0.32586 0.0
H981 H 0.93411 0.6018 0.29387 0.0
H982 H 0.91512 0.65629 0.35901 0.0
H983 H 0.86565 0.57149 0.38361 0.0
H984 H 0.87631 0.68068 0.3739 0.0
H985 H 0.9116 0.69278 0.38092 0.0
H986 H 0.88866 0.68559 0.40968 0.0
H987 H 0.82206 0.55509 0.40363 0.0
H988 H 0.81026 0.57863 0.41083 0.0
H989 H 0.83262 0.57711 0.43571 0.0
H990 H 0.72888 0.67292 0.34396 0.0
H991 H 0.75317 0.69165 0.29865 0.0
H992 H 0.7582 0.72534 0.30954 0.0
H993 H 0.72411 0.69449 0.3037 0.0
H994 H 0.74263 0.64654 0.35827 0.0
H995 H 0.81563 0.72716 0.37865 0.0
H996 H 0.76563 0.60533 0.37923 0.0
H997 H 0.73431 0.60505 0.37679 0.0
H998 H 0.75079 0.60985 0.41064 0.0
H999 H 0.85027 0.73326 0.40934 0.0
H1000 H 0.85508 0.70422 0.40486 0.0
H1001 H 0.83889 0.70773 0.43566 0.0
H1002 H 0.69727 0.61005 0.61345 0.0
H1003 H 0.71577 0.60183 0.57533 0.0
H1004 H 0.76587 0.69204 0.58489 0.0
H1005 H 0.7519 0.59212 0.52197 0.0
H1006 H 0.72939 0.57463 0.55046 0.0
H1007 H 0.76574 0.58944 0.55435 0.0
H1008 H 0.81002 0.71787 0.56624 0.0
H1009 H 0.81302 0.70178 0.53361 0.0
H1010 H 0.82763 0.69934 0.56554 0.0
H1011 H 0.9521 0.67921 0.60815 0.0
H1012 H 0.98655 0.67098 0.58518 0.0
H1013 H 0.95718 0.6582 0.56201 0.0
H1014 H 0.96116 0.63361 0.58075 0.0
H1015 H 0.87054 0.59674 0.59512 0.0
H1016 H 0.92889 0.68142 0.57398 0.0
H1017 H 0.81998 0.58282 0.54275 0.0
H1018 H 0.81203 0.59238 0.57637 0.0
H1019 H 0.82597 0.57041 0.57441 0.0
H1020 H 0.91577 0.70851 0.55164 0.0
H1021 H 0.87978 0.6951 0.5467 0.0
H1022 H 0.89746 0.68729 0.52027 0.0
H1023 H 0.82689 0.64271 0.3797 0.0
H1024 H 0.77447 0.65704 0.44947 0.0
H1025 H 0.77079 0.65444 0.49973 0.0
H1026 H 0.82001 0.64291 0.5732 0.0
H1027 H 0.87322 0.62947 0.50338 0.0
H1028 H 0.87427 0.62827 0.45297 0.0
H1029 H 0.65256 0.5985 0.59167 0.0
H1030 H 0.67771 0.60623 0.56534 0.0
H1031 H 0.66994 0.63226 0.57618 0.0
C1032 C 0.41139 0.34745 0.35306 0.0
C1033 C 0.38725 0.32693 0.37042 0.0
C1034 C 0.38835 0.30691 0.41384 0.0
C1035 C 0.36069 0.28546 0.41535 0.0
C1036 C 0.35276 0.26217 0.43121 0.0
C1037 C 0.37304 0.25993 0.44517 0.0
C1038 C 0.40099 0.28178 0.44388 0.0
C1039 C 0.40817 0.30539 0.42881 0.0
C1040 C 0.32273 0.23962 0.43242 0.0
C1041 C 0.42337 0.27982 0.45752 0.0
C1042 C 0.37595 0.10849 0.34615 0.0
C1043 C 0.3546 0.08878 0.36665 0.0
C1044 C 0.34083 0.11815 0.39276 0.0
C1045 C 0.36549 0.13517 0.40852 0.0
C1046 C 0.36897 0.15678 0.42775 0.0
C1047 C 0.34729 0.1613 0.43159 0.0
C1048 C 0.32238 0.14408 0.416 0.0
C1049 C 0.31955 0.12279 0.39671 0.0
C1050 C 0.39593 0.17493 0.44386 0.0
C1051 C 0.29881 0.14822 0.41969 0.0
C1052 C 0.32208 0.09541 0.60296 0.0
C1053 C 0.34821 0.11303 0.59201 0.0
C1054 C 0.35585 0.13916 0.58207 0.0
C1055 C 0.33669 0.14749 0.58208 0.0
C1056 C 0.31051 0.13 0.59332 0.0
C1057 C 0.30371 0.10434 0.60391 0.0
C1058 C 0.38436 0.15766 0.57121 0.0
C1059 C 0.28957 0.13818 0.59369 0.0
C1060 C 0.41899 0.35859 0.68456 0.0
C1061 C 0.39565 0.33306 0.66772 0.0
C1062 C 0.39292 0.2934 0.63995 0.0
C1063 C 0.40817 0.28168 0.63197 0.0
C1064 C 0.39856 0.25994 0.61071 0.0
C1065 C 0.37242 0.24883 0.59779 0.0
C1066 C 0.35666 0.2604 0.60596 0.0
C1067 C 0.36736 0.28302 0.62648 0.0
C1068 C 0.41626 0.24855 0.60248 0.0
C1069 C 0.32828 0.24848 0.59355 0.0
C1070 C 0.3651 0.23356 0.45869 0.0
C1071 C 0.35923 0.21023 0.44089 0.0
C1072 C 0.35099 0.18439 0.45162 0.0
C1073 C 0.34791 0.18138 0.48093 0.0
C1074 C 0.33832 0.1553 0.49225 0.0
C1075 C 0.33626 0.15271 0.52119 0.0
C1076 C 0.34429 0.17622 0.53997 0.0
C1077 C 0.34385 0.17407 0.56948 0.0
C1078 C 0.35211 0.19788 0.58755 0.0
C1079 C 0.3612 0.2241 0.57706 0.0
C1080 C 0.36151 0.22658 0.54755 0.0
C1081 C 0.37019 0.25244 0.53607 0.0
C1082 C 0.37054 0.25461 0.50699 0.0
C1083 C 0.3635 0.23134 0.48826 0.0
C1084 C 0.35477 0.20508 0.49937 0.0
C1085 C 0.35329 0.20258 0.52899 0.0
C1086 C 0.32054 0.04071 0.57941 0.0
C1087 C 0.32645 0.05489 0.60927 0.0
O1088 O 0.39646 0.3291 0.39786 0.0
O1089 O 0.40324 0.3139 0.66128 0.0
O1090 O 0.31369 0.06979 0.6127 0.0
O1091 O 0.33671 0.09735 0.37343 0.0
H1092 H 0.3791 0.30532 0.36065 0.0
H1093 H 0.42755 0.34245 0.35347 0.0
H1094 H 0.42032 0.36947 0.36179 0.0
H1095 H 0.4047 0.34571 0.33077 0.0
H1096 H 0.34529 0.28694 0.40416 0.0
H1097 H 0.42947 0.32221 0.42756 0.0
H1098 H 0.31837 0.221 0.41868 0.0
H1099 H 0.30944 0.24687 0.42511 0.0
H1100 H 0.31728 0.23284 0.45423 0.0
H1101 H 0.4441 0.29668 0.45134 0.0
H1102 H 0.42062 0.25908 0.45167 0.0
H1103 H 0.42229 0.28167 0.48077 0.0
H1104 H 0.36513 0.08847 0.38601 0.0
H1105 H 0.38855 0.13019 0.356 0.0
H1106 H 0.36579 0.10917 0.32672 0.0
H1107 H 0.38989 0.1012 0.34028 0.0
H1108 H 0.38225 0.13199 0.40585 0.0
H1109 H 0.3006 0.10961 0.38452 0.0
H1110 H 0.4043 0.19749 0.44088 0.0
H1111 H 0.41139 0.16995 0.43714 0.0
H1112 H 0.39264 0.17184 0.46672 0.0
H1113 H 0.28007 0.13167 0.40768 0.0
H1114 H 0.30474 0.16904 0.41235 0.0
H1115 H 0.294 0.14814 0.44235 0.0
H1116 H 0.34891 0.0692 0.61295 0.0
H1117 H 0.3629 0.10678 0.59103 0.0
H1118 H 0.28367 0.09077 0.61249 0.0
H1119 H 0.38335 0.15682 0.54785 0.0
H1120 H 0.39827 0.15082 0.57752 0.0
H1121 H 0.39337 0.1799 0.57911 0.0
H1122 H 0.26951 0.12141 0.60141 0.0
H1123 H 0.28646 0.14284 0.57216 0.0
H1124 H 0.29722 0.15763 0.60754 0.0
H1125 H 0.39256 0.34091 0.64801 0.0
H1126 H 0.41396 0.37491 0.68882 0.0
H1127 H 0.43804 0.36796 0.67234 0.0
H1128 H 0.42284 0.35236 0.70492 0.0
H1129 H 0.42784 0.28979 0.64245 0.0
H1130 H 0.35528 0.29187 0.63243 0.0
H1131 H 0.41648 0.2457 0.57919 0.0
H1132 H 0.40766 0.22766 0.61116 0.0
H1133 H 0.43768 0.26261 0.61069 0.0
H1134 H 0.31734 0.25731 0.60476 0.0
H1135 H 0.31593 0.22522 0.59438 0.0
H1136 H 0.32968 0.25329 0.57109 0.0
H1137 H 0.36135 0.21229 0.41832 0.0
H1138 H 0.3323 0.13659 0.47884 0.0
H1139 H 0.32866 0.13206 0.52865 0.0
H1140 H 0.3523 0.19616 0.61015 0.0
H1141 H 0.37666 0.27128 0.54945 0.0
H1142 H 0.37699 0.27493 0.49938 0.0
H1143 H 0.33057 0.02858 0.57663 0.0
H1144 H 0.32878 0.05687 0.56359 0.0
H1145 H 0.29811 0.02633 0.57535 0.0
C1146 C 0.92083 0.29735 0.322 0.0
C1147 C 0.9366 0.29939 0.3487 0.0
C1148 C 0.90629 0.25571 0.37245 0.0
C1149 C 0.88737 0.26262 0.382 0.0
C1150 C 0.86522 0.24427 0.39834 0.0
C1151 C 0.86186 0.21854 0.40517 0.0
C1152 C 0.88071 0.21144 0.39538 0.0
C1153 C 0.90267 0.23017 0.37918 0.0
C1154 C 0.8454 0.25236 0.40841 0.0
C1155 C 0.87764 0.18407 0.40209 0.0
C1156 C 0.67264 0.08236 0.31287 0.0
C1157 C 0.69632 0.08251 0.32709 0.0
C1158 C 0.71858 0.10314 0.37285 0.0
C1159 C 0.74103 0.10002 0.37103 0.0
C1160 C 0.7646 0.11708 0.38821 0.0
C1161 C 0.76603 0.13831 0.40699 0.0
C1162 C 0.74323 0.14132 0.40898 0.0
C1163 C 0.71951 0.12313 0.39236 0.0
C1164 C 0.78805 0.11256 0.38597 0.0
C1165 C 0.74407 0.16415 0.42807 0.0
C1166 C 0.74096 0.09201 0.59083 0.0
C1167 C 0.76325 0.0904 0.58146 0.0
C1168 C 0.78346 0.11112 0.56505 0.0
C1169 C 0.78162 0.13416 0.5582 0.0
C1170 C 0.75943 0.13605 0.56785 0.0
C1171 C 0.73928 0.1148 0.58386 0.0
C1172 C 0.80683 0.10842 0.55504 0.0
C1173 C 0.75704 0.16054 0.56129 0.0
C1174 C 0.96355 0.32973 0.60772 0.0
C1175 C 0.94801 0.30244 0.62289 0.0
C1176 C 0.92079 0.26144 0.58936 0.0
C1177 C 0.91839 0.23669 0.5783 0.0
C1178 C 0.8951 0.21618 0.5624 0.0
C1179 C 0.87372 0.2207 0.55731 0.0
C1180 C 0.87618 0.24594 0.56796 0.0
C1181 C 0.89977 0.26617 0.58376 0.0
C1182 C 0.89327 0.18964 0.55109 0.0
C1183 C 0.85386 0.25152 0.56257 0.0
C1184 C 0.83866 0.19887 0.42248 0.0
C1185 C 0.81389 0.17894 0.40862 0.0
C1186 C 0.79186 0.15831 0.42328 0.0
C1187 C 0.79468 0.15727 0.45265 0.0
C1188 C 0.77366 0.13583 0.46785 0.0
C1189 C 0.77645 0.13538 0.49685 0.0
C1190 C 0.80032 0.15644 0.51178 0.0
C1191 C 0.8032 0.15647 0.54132 0.0
C1192 C 0.82721 0.17777 0.55545 0.0
C1193 C 0.84876 0.19898 0.54087 0.0
C1194 C 0.84644 0.19911 0.51131 0.0
C1195 C 0.86796 0.21982 0.49593 0.0
C1196 C 0.86552 0.21971 0.46683 0.0
C1197 C 0.84134 0.19911 0.45204 0.0
C1198 C 0.81931 0.17814 0.46714 0.0
C1199 C 0.822 0.17792 0.49677 0.0
C1200 C 0.70774 0.02494 0.59325 0.0
C1201 C 0.71878 0.04872 0.61656 0.0
O1202 O 0.92813 0.27271 0.35665 0.0
O1203 O 0.94378 0.28011 0.60495 0.0
O1204 O 0.72061 0.07218 0.60636 0.0
O1205 O 0.69588 0.08731 0.35593 0.0
H1206 H 0.93344 0.3115 0.36595 0.0
H1207 H 0.92414 0.28563 0.30448 0.0
H1208 H 0.92768 0.31873 0.31552 0.0
H1209 H 0.89855 0.28615 0.32588 0.0
H1210 H 0.88959 0.28213 0.37678 0.0
H1211 H 0.91725 0.22494 0.37165 0.0
H1212 H 0.82448 0.23641 0.39996 0.0
H1213 H 0.85107 0.27335 0.40179 0.0
H1214 H 0.84468 0.25259 0.43177 0.0
H1215 H 0.89365 0.18135 0.39229 0.0
H1216 H 0.85719 0.16612 0.39453 0.0
H1217 H 0.8789 0.18327 0.42527 0.0
H1218 H 0.7156 0.1 0.31852 0.0
H1219 H 0.67251 0.07838 0.28968 0.0
H1220 H 0.67491 0.1031 0.31716 0.0
H1221 H 0.65282 0.06588 0.32116 0.0
H1222 H 0.74014 0.08412 0.3564 0.0
H1223 H 0.70194 0.12522 0.39369 0.0
H1224 H 0.79648 0.11352 0.40722 0.0
H1225 H 0.8047 0.12952 0.37406 0.0
H1226 H 0.78172 0.092 0.37482 0.0
H1227 H 0.72671 0.16669 0.42353 0.0
H1228 H 0.76357 0.18461 0.42582 0.0
H1229 H 0.74297 0.15881 0.45032 0.0
H1230 H 0.73914 0.05389 0.62451 0.0
H1231 H 0.76505 0.07303 0.58666 0.0
H1232 H 0.72209 0.11596 0.59117 0.0
H1233 H 0.80871 0.1102 0.53189 0.0
H1234 H 0.80416 0.08813 0.56015 0.0
H1235 H 0.82631 0.12587 0.56512 0.0
H1236 H 0.73943 0.15977 0.57175 0.0
H1237 H 0.75445 0.16051 0.53818 0.0
H1238 H 0.77615 0.18066 0.56816 0.0
H1239 H 0.92836 0.2994 0.63031 0.0
H1240 H 0.9514 0.32827 0.58896 0.0
H1241 H 0.98362 0.33369 0.60064 0.0
H1242 H 0.96709 0.3478 0.62194 0.0
H1243 H 0.93483 0.23336 0.58246 0.0
H1244 H 0.90168 0.28562 0.59137 0.0
H1245 H 0.89009 0.18717 0.52784 0.0
H1246 H 0.87533 0.17112 0.56003 0.0
H1247 H 0.91197 0.18963 0.55628 0.0
H1248 H 0.85865 0.27201 0.57263 0.0
H1249 H 0.83423 0.23446 0.57076 0.0
H1250 H 0.85083 0.25146 0.53953 0.0
H1251 H 0.81184 0.17932 0.386 0.0
H1252 H 0.75482 0.11912 0.45747 0.0
H1253 H 0.75958 0.11839 0.50744 0.0
H1254 H 0.82924 0.17771 0.57812 0.0
H1255 H 0.88699 0.23629 0.5062 0.0
H1256 H 0.88277 0.23613 0.45609 0.0
H1257 H 0.68745 0.01961 0.58498 0.0
H1258 H 0.70558 0.00584 0.60154 0.0
H1259 H 0.72195 0.03124 0.57545 0.0
C1260 C 0.05157 0.46309 0.35161 0.0
C1261 C 0.02834 0.44349 0.33044 0.0
C1262 C 0.03045 0.46051 0.284 0.0
C1263 C 0.00298 0.4521 0.28005 0.0
C1264 C 0.99569 0.46535 0.26107 0.0
C1265 C 0.01632 0.48742 0.2458 0.0
C1266 C 0.04387 0.49502 0.24882 0.0
C1267 C 0.05048 0.48111 0.26764 0.0
C1268 C 0.96605 0.45625 0.25783 0.0
C1269 C 0.06642 0.5185 0.23295 0.0
C1270 C 0.02084 0.6499 0.34942 0.0
C1271 C 0.02961 0.64753 0.31957 0.0
C1272 C 0.00622 0.60865 0.28336 0.0
C1273 C 0.02987 0.61274 0.27028 0.0
C1274 C 0.02858 0.59202 0.25129 0.0
C1275 C 0.00316 0.56656 0.2453 0.0
C1276 C 0.97913 0.56278 0.25757 0.0
C1277 C 0.98097 0.58404 0.27624 0.0
C1278 C 0.05458 0.59699 0.23824 0.0
C1279 C 0.95169 0.53589 0.25167 0.0
C1280 C 0.96107 0.57386 0.06608 0.0
C1281 C 0.98881 0.58616 0.07373 0.0
C1282 C 0.99774 0.57065 0.08689 0.0
C1283 C 0.97837 0.54258 0.0933 0.0
C1284 C 0.95051 0.53 0.08501 0.0
C1285 C 0.94236 0.54569 0.07098 0.0
C1286 C 0.02778 0.58442 0.09436 0.0
C1287 C 0.92921 0.50015 0.0914 0.0
C1288 C 0.99948 0.36021 0.0547 0.0
C1289 C 0.99072 0.37936 0.04403 0.0
C1290 C 0.00647 0.4272 0.06387 0.0
C1291 C 0.02931 0.45222 0.07524 0.0
C1292 C 0.02663 0.47319 0.08935 0.0
C1293 C 0.00021 0.46866 0.09287 0.0
C1294 C 0.97706 0.44378 0.08057 0.0
C1295 C 0.98049 0.42367 0.06567 0.0
C1296 C 0.05207 0.50003 0.10074 0.0
C1297 C 0.94855 0.43827 0.08305 0.0
C1298 C 0.00948 0.50418 0.22871 0.0
C1299 C 0.00793 0.52565 0.24294 0.0
C1300 C 0.00236 0.54302 0.22854 0.0
C1301 C 0.99787 0.53873 0.19897 0.0
C1302 C 0.99159 0.55534 0.18384 0.0
C1303 C 0.98746 0.55109 0.15471 0.0
C1304 C 0.99028 0.53063 0.13946 0.0
C1305 C 0.98688 0.5267 0.10974 0.0
C1306 C 0.99062 0.50672 0.09524 0.0
C1307 C 0.99675 0.48969 0.10965 0.0
C1308 C 0.99912 0.49258 0.13948 0.0
C1309 C 0.00383 0.4749 0.15487 0.0
C1310 C 0.00692 0.47843 0.18411 0.0
C1311 C 0.00547 0.4998 0.19911 0.0
C1312 C 0.99984 0.51729 0.18416 0.0
C1313 C 0.99645 0.51353 0.15433 0.0
C1314 C 0.9379 0.62122 0.05874 0.0
C1315 C 0.96176 0.6168 0.05968 0.0
O1316 O 0.03826 0.44926 0.30344 0.0
O1317 O 0.01049 0.4073 0.05145 0.0
O1318 O 0.95167 0.58848 0.05399 0.0
O1319 O 0.00697 0.62767 0.30303 0.0
H1320 H 0.01158 0.44741 0.33404 0.0
H1321 H 0.05883 0.48532 0.34815 0.0
H1322 H 0.06911 0.46028 0.3491 0.0
H1323 H 0.04427 0.45881 0.37352 0.0
H1324 H 0.98725 0.43527 0.29185 0.0
H1325 H 0.07156 0.48707 0.27054 0.0
H1326 H 0.96342 0.4732 0.26698 0.0
H1327 H 0.95214 0.43667 0.26855 0.0
H1328 H 0.95991 0.45276 0.23515 0.0
H1329 H 0.08689 0.52232 0.23822 0.0
H1330 H 0.06687 0.53825 0.23787 0.0
H1331 H 0.06236 0.5133 0.20993 0.0
H1332 H 0.04414 0.64048 0.32195 0.0
H1333 H 0.03889 0.66562 0.36284 0.0
H1334 H 0.01126 0.62923 0.35887 0.0
H1335 H 0.00575 0.65619 0.34931 0.0
H1336 H 0.04948 0.63192 0.27493 0.0
H1337 H 0.96277 0.58104 0.28616 0.0
H1338 H 0.05155 0.59261 0.21504 0.0
H1339 H 0.05972 0.58232 0.24656 0.0
H1340 H 0.07221 0.61889 0.2428 0.0
H1341 H 0.93475 0.53662 0.26195 0.0
H1342 H 0.95221 0.51796 0.25939 0.0
H1343 H 0.94733 0.5318 0.2286 0.0
H1344 H 0.97121 0.62383 0.08132 0.0
H1345 H 0.00355 0.60777 0.06931 0.0
H1346 H 0.92106 0.53632 0.06467 0.0
H1347 H 0.03098 0.58881 0.11753 0.0
H1348 H 0.04063 0.60457 0.08414 0.0
H1349 H 0.03483 0.57009 0.08797 0.0
H1350 H 0.90807 0.4945 0.08621 0.0
H1351 H 0.93054 0.49704 0.11405 0.0
H1352 H 0.93316 0.4855 0.07893 0.0
H1353 H 0.97129 0.37266 0.05492 0.0
H1354 H 0.98279 0.33779 0.05072 0.0
H1355 H 0.00365 0.36438 0.07782 0.0
H1356 H 0.01823 0.36379 0.04466 0.0
H1357 H 0.04938 0.45518 0.07323 0.0
H1358 H 0.96268 0.40535 0.05558 0.0
H1359 H 0.05377 0.49952 0.1239 0.0
H1360 H 0.05098 0.51859 0.09659 0.0
H1361 H 0.07094 0.50276 0.09134 0.0
H1362 H 0.9325 0.41582 0.07777 0.0
H1363 H 0.94599 0.45119 0.06817 0.0
H1364 H 0.94523 0.44424 0.10466 0.0
H1365 H 0.01155 0.5292 0.26561 0.0
H1366 H 0.98963 0.57169 0.19441 0.0
H1367 H 0.98239 0.56435 0.14427 0.0
H1368 H 0.98839 0.50415 0.07243 0.0
H1369 H 0.00524 0.45814 0.14448 0.0
H1370 H 0.01069 0.46433 0.19482 0.0
H1371 H 0.9454 0.64383 0.06321 0.0
H1372 H 0.92293 0.60898 0.07497 0.0
H1373 H 0.92721 0.61406 0.03774 0.0
C1374 C 0.36459 0.44385 0.36846 0.0
C1375 C 0.36671 0.42384 0.3469 0.0
C1376 C 0.41411 0.44745 0.33052 0.0
C1377 C 0.41374 0.46801 0.31549 0.0
C1378 C 0.43601 0.48609 0.29913 0.0
C1379 C 0.45884 0.48318 0.29731 0.0
C1380 C 0.45922 0.46249 0.31243 0.0
C1381 C 0.43696 0.44513 0.32907 0.0
C1382 C 0.43518 0.50834 0.28381 0.0
C1383 C 0.48311 0.45864 0.31097 0.0
C1384 C 0.65998 0.64351 0.37731 0.0
C1385 C 0.64535 0.62281 0.35184 0.0
C1386 C 0.60145 0.6044 0.32647 0.0
C1387 C 0.59741 0.57807 0.31785 0.0
C1388 C 0.57403 0.55779 0.30188 0.0
C1389 C 0.5543 0.5639 0.29402 0.0
C1390 C 0.55838 0.59042 0.30231 0.0
C1391 C 0.58191 0.6103 0.31846 0.0
C1392 C 0.57032 0.52965 0.29354 0.0
C1393 C 0.53786 0.5977 0.29414 0.0
C1394 C 0.59714 0.57084 0.10825 0.0
C1395 C 0.59442 0.5475 0.12083 0.0
C1396 C 0.57211 0.53097 0.13783 0.0
C1397 C 0.55205 0.53779 0.14227 0.0
C1398 C 0.55466 0.56116 0.12962 0.0
C1399 C 0.57724 0.57742 0.11285 0.0
C1400 C 0.56993 0.50618 0.15107 0.0
C1401 C 0.53356 0.56891 0.13382 0.0
C1402 C 0.34735 0.34582 0.11227 0.0
C1403 C 0.36896 0.37205 0.09788 0.0
C1404 C 0.41541 0.40324 0.11933 0.0
C1405 C 0.43579 0.40249 0.13408 0.0
C1406 C 0.45777 0.42685 0.14784 0.0
C1407 C 0.45932 0.4527 0.14688 0.0
C1408 C 0.43917 0.45385 0.13137 0.0
C1409 C 0.41755 0.42916 0.11748 0.0
C1410 C 0.47929 0.42493 0.16348 0.0
C1411 C 0.44053 0.48119 0.12952 0.0
C1412 C 0.48231 0.50168 0.27959 0.0
C1413 C 0.50583 0.52454 0.293 0.0
C1414 C 0.52911 0.54211 0.27783 0.0
C1415 C 0.52877 0.5373 0.24824 0.0
C1416 C 0.55157 0.55492 0.23221 0.0
C1417 C 0.55134 0.54954 0.20323 0.0
C1418 C 0.52835 0.52624 0.18917 0.0
C1419 C 0.52814 0.52018 0.15984 0.0
C1420 C 0.50519 0.49647 0.14667 0.0
C1421 C 0.48219 0.4785 0.16196 0.0
C1422 C 0.4818 0.48449 0.19121 0.0
C1423 C 0.45888 0.46706 0.20719 0.0
C1424 C 0.45895 0.47269 0.23608 0.0
C1425 C 0.48189 0.49605 0.25014 0.0
C1426 C 0.50516 0.51403 0.23441 0.0
C1427 C 0.50504 0.50834 0.20488 0.0
C1428 C 0.66193 0.59657 0.10747 0.0
C1429 C 0.63991 0.58454 0.08385 0.0
O1430 O 0.39326 0.42975 0.34696 0.0
O1431 O 0.39464 0.37861 0.10684 0.0
O1432 O 0.61848 0.5876 0.09175 0.0
O1433 O 0.62368 0.62453 0.3424 0.0
H1434 H 0.36055 0.42596 0.32553 0.0
H1435 H 0.37769 0.4659 0.36245 0.0
H1436 H 0.37144 0.44255 0.38978 0.0
H1437 H 0.3431 0.43848 0.36926 0.0
H1438 H 0.39636 0.47035 0.31666 0.0
H1439 H 0.43714 0.42932 0.34084 0.0
H1440 H 0.45421 0.52921 0.28865 0.0
H1441 H 0.41725 0.50972 0.28953 0.0
H1442 H 0.43416 0.50346 0.26073 0.0
H1443 H 0.47899 0.43972 0.32152 0.0
H1444 H 0.50145 0.47741 0.32134 0.0
H1445 H 0.48805 0.45675 0.28866 0.0
H1446 H 0.63752 0.60166 0.35969 0.0
H1447 H 0.67656 0.64116 0.38552 0.0
H1448 H 0.64519 0.6391 0.39433 0.0
H1449 H 0.66911 0.66553 0.37192 0.0
H1450 H 0.61222 0.57296 0.32354 0.0
H1451 H 0.58515 0.63061 0.32494 0.0
H1452 H 0.55028 0.51239 0.30072 0.0
H1453 H 0.5868 0.52758 0.30253 0.0
H1454 H 0.57023 0.52687 0.27023 0.0
H1455 H 0.54471 0.61976 0.30088 0.0
H1456 H 0.51798 0.58334 0.30391 0.0
H1457 H 0.53428 0.59458 0.27092 0.0
H1458 H 0.63231 0.56197 0.07879 0.0
H1459 H 0.60958 0.54203 0.11766 0.0
H1460 H 0.57945 0.59542 0.10311 0.0
H1461 H 0.56859 0.50835 0.17428 0.0
H1462 H 0.58766 0.50415 0.14634 0.0
H1463 H 0.55087 0.48649 0.14321 0.0
H1464 H 0.53836 0.58752 0.12225 0.0
H1465 H 0.53236 0.57354 0.15661 0.0
H1466 H 0.51306 0.55084 0.12654 0.0
H1467 H 0.36526 0.38902 0.10402 0.0
H1468 H 0.32638 0.34045 0.1066 0.0
H1469 H 0.35025 0.34984 0.13552 0.0
H1470 H 0.34916 0.32758 0.10602 0.0
H1471 H 0.43427 0.38253 0.13497 0.0
H1472 H 0.40275 0.43048 0.10502 0.0
H1473 H 0.47864 0.42962 0.18637 0.0
H1474 H 0.5 0.44084 0.15634 0.0
H1475 H 0.47627 0.40375 0.16037 0.0
H1476 H 0.42247 0.47836 0.118 0.0
H1477 H 0.45935 0.49628 0.11855 0.0
H1478 H 0.4418 0.4907 0.15103 0.0
H1479 H 0.50627 0.52827 0.31569 0.0
H1480 H 0.56988 0.57306 0.24194 0.0
H1481 H 0.56951 0.56375 0.192 0.0
H1482 H 0.5054 0.49169 0.12426 0.0
H1483 H 0.44065 0.44878 0.19754 0.0
H1484 H 0.44081 0.45837 0.24729 0.0
H1485 H 0.67924 0.5944 0.10097 0.0
H1486 H 0.65341 0.58509 0.12683 0.0
H1487 H 0.66983 0.61918 0.11263 0.0
C1488 C 0.36661 0.99431 0.37172 0.0
C1489 C 0.3831 0.0012 0.34495 0.0
C1490 C 0.41636 0.98949 0.32755 0.0
C1491 C 0.4362 0.01584 0.31799 0.0
C1492 C 0.45772 0.01889 0.30138 0.0
C1493 C 0.45891 0.99496 0.29342 0.0
C1494 C 0.43896 0.96844 0.3031 0.0
C1495 C 0.41826 0.96622 0.32044 0.0
C1496 C 0.47924 0.04775 0.29248 0.0
C1497 C 0.43941 0.94238 0.29514 0.0
C1498 C 0.62271 0.97166 0.36068 0.0
C1499 C 0.60363 0.96496 0.33533 0.0
C1500 C 0.58437 0.99054 0.31587 0.0
C1501 C 0.56049 0.96674 0.30366 0.0
C1502 C 0.5408 0.9694 0.28963 0.0
C1503 C 0.54488 0.99635 0.28793 0.0
C1504 C 0.56863 0.02029 0.30051 0.0
C1505 C 0.58804 0.01702 0.31432 0.0
C1506 C 0.51564 0.9434 0.27645 0.0
C1507 C 0.57352 0.0493 0.29923 0.0
C1508 C 0.59594 0.02853 0.10645 0.0
C1509 C 0.57305 0.00108 0.10837 0.0
C1510 C 0.55059 0.99615 0.12448 0.0
C1511 C 0.55093 0.01911 0.13866 0.0
C1512 C 0.57363 0.0468 0.13615 0.0
C1513 C 0.59576 0.05112 0.11991 0.0
C1514 C 0.52641 0.96643 0.12629 0.0
C1515 C 0.5745 0.0718 0.15067 0.0
C1516 C 0.38816 0.04498 0.10683 0.0
C1517 C 0.4024 0.03585 0.08555 0.0
C1518 C 0.42174 0.01319 0.11083 0.0
C1519 C 0.42002 0.98772 0.11341 0.0
C1520 C 0.43985 0.9865 0.12898 0.0
C1521 C 0.46188 0.01143 0.14248 0.0
C1522 C 0.4635 0.03722 0.14052 0.0
C1523 C 0.44337 0.03785 0.12482 0.0
C1524 C 0.43743 0.95863 0.13082 0.0
C1525 C 0.48666 0.06416 0.15486 0.0
C1526 C 0.48129 0.99771 0.2755 0.0
C1527 C 0.50259 0.99715 0.28852 0.0
C1528 C 0.52417 0.9993 0.27302 0.0
C1529 C 0.52517 0.00302 0.2438 0.0
C1530 C 0.54703 0.00608 0.22775 0.0
C1531 C 0.54788 0.00982 0.19902 0.0
C1532 C 0.52676 0.01034 0.18516 0.0
C1533 C 0.5275 0.01426 0.15599 0.0
C1534 C 0.50602 0.01434 0.1428 0.0
C1535 C 0.48367 0.01071 0.15799 0.0
C1536 C 0.48263 0.00697 0.18723 0.0
C1537 C 0.46047 0.00327 0.20316 0.0
C1538 C 0.45985 1.0 0.232 0.0
C1539 C 0.48143 0.00046 0.24607 0.0
C1540 C 0.50367 0.00352 0.23028 0.0
C1541 C 0.50434 0.00692 0.20086 0.0
C1542 C 0.65476 0.02961 0.10443 0.0
C1543 C 0.6288 0.01769 0.08606 0.0
O1544 O 0.39503 0.98539 0.3435 0.0
O1545 O 0.40216 0.01287 0.09478 0.0
O1546 O 0.61806 0.03438 0.09103 0.0
O1547 O 0.60439 0.98907 0.32905 0.0
H1548 H 0.39889 0.02406 0.347 0.0
H1549 H 0.3801 0.99825 0.39024 0.0
H1550 H 0.34971 0.97179 0.37059 0.0
H1551 H 0.35843 0.00805 0.37505 0.0
H1552 H 0.43537 0.0342 0.32365 0.0
H1553 H 0.40295 0.94602 0.32804 0.0
H1554 H 0.50007 0.05181 0.29596 0.0
H1555 H 0.47798 0.06468 0.30413 0.0
H1556 H 0.47646 0.04889 0.26964 0.0
H1557 H 0.42009 0.92284 0.3004 0.0
H1558 H 0.45661 0.94351 0.30672 0.0
H1559 H 0.44279 0.94103 0.27223 0.0
H1560 H 0.58278 0.94877 0.34204 0.0
H1561 H 0.62491 0.95364 0.36423 0.0
H1562 H 0.61412 0.97592 0.37989 0.0
H1563 H 0.64306 0.99072 0.35763 0.0
H1564 H 0.55698 0.946 0.30482 0.0
H1565 H 0.60617 0.0352 0.32418 0.0
H1566 H 0.51453 0.94554 0.25351 0.0
H1567 H 0.49697 0.94115 0.2858 0.0
H1568 H 0.51551 0.92393 0.27945 0.0
H1569 H 0.59305 0.06583 0.31008 0.0
H1570 H 0.55636 0.04988 0.30912 0.0
H1571 H 0.57402 0.05427 0.27689 0.0
H1572 H 0.61437 0.99562 0.09135 0.0
H1573 H 0.57219 0.98349 0.0969 0.0
H1574 H 0.61328 0.07226 0.11788 0.0
H1575 H 0.52294 0.96111 0.14868 0.0
H1576 H 0.52935 0.95077 0.11431 0.0
H1577 H 0.50765 0.96473 0.11792 0.0
H1578 H 0.5936 0.09203 0.1465 0.0
H1579 H 0.57297 0.0696 0.17378 0.0
H1580 H 0.55667 0.07251 0.14345 0.0
H1581 H 0.42375 0.05372 0.08279 0.0
H1582 H 0.38748 0.06284 0.09913 0.0
H1583 H 0.39958 0.05196 0.12738 0.0
H1584 H 0.36691 0.02726 0.11024 0.0
H1585 H 0.40317 0.96877 0.10278 0.0
H1586 H 0.44473 0.05766 0.1237 0.0
H1587 H 0.43729 0.9541 0.15326 0.0
H1588 H 0.45551 0.95971 0.12123 0.0
H1589 H 0.41857 0.94098 0.1199 0.0
H1590 H 0.48499 0.08252 0.15143 0.0
H1591 H 0.50654 0.06848 0.14679 0.0
H1592 H 0.48685 0.06184 0.17787 0.0
H1593 H 0.50216 0.99459 0.311 0.0
H1594 H 0.56384 0.00582 0.23727 0.0
H1595 H 0.5653 0.01223 0.18778 0.0
H1596 H 0.50679 0.01745 0.12042 0.0
H1597 H 0.44337 0.00291 0.19349 0.0
H1598 H 0.44224 0.99716 0.24316 0.0
H1599 H 0.66377 0.01654 0.10104 0.0
H1600 H 0.64971 0.02954 0.12702 0.0
H1601 H 0.67021 0.0516 0.09947 0.0
C1602 C 0.62374 0.05865 0.6952 0.0
C1603 C 0.62083 0.03996 0.71888 0.0
C1604 C 0.57416 0.02009 0.73666 0.0
C1605 C 0.57886 0.04492 0.75096 0.0
C1606 C 0.55809 0.04493 0.76646 0.0
C1607 C 0.5321 0.0197 0.76757 0.0
C1608 C 0.52731 0.99473 0.75318 0.0
C1609 C 0.54843 0.99531 0.7379 0.0
C1610 C 0.56383 0.07193 0.78156 0.0
C1611 C 0.49986 0.96747 0.75395 0.0
C1612 C 0.38838 0.05768 0.67638 0.0
C1613 C 0.3882 0.04588 0.70456 0.0
C1614 C 0.42687 0.0505 0.73194 0.0
C1615 C 0.41501 0.022 0.73726 0.0
C1616 C 0.42918 0.01354 0.75368 0.0
C1617 C 0.4552 0.03407 0.76584 0.0
C1618 C 0.46671 0.06281 0.76119 0.0
C1619 C 0.45254 0.07052 0.74397 0.0
C1620 C 0.41658 0.98263 0.7576 0.0
C1621 C 0.49424 0.08543 0.77398 0.0
C1622 C 0.38225 0.99283 0.93795 0.0
C1623 C 0.38203 0.9691 0.92658 0.0
C1624 C 0.40521 0.97198 0.91361 0.0
C1625 C 0.42926 0.99903 0.91235 0.0
C1626 C 0.42987 0.02284 0.92459 0.0
C1627 C 0.40627 0.0194 0.93708 0.0
C1628 C 0.40394 0.9461 0.90095 0.0
C1629 C 0.45534 0.05192 0.92413 0.0
C1630 C 0.59934 0.97746 0.9216 0.0
C1631 C 0.5993 0.99938 0.94216 0.0
C1632 C 0.55374 0.99107 0.94293 0.0
C1633 C 0.52808 0.96725 0.93546 0.0
C1634 C 0.50795 0.96969 0.92202 0.0
C1635 C 0.5136 0.99671 0.91664 0.0
C1636 C 0.53891 0.02098 0.92602 0.0
C1637 C 0.55878 0.01787 0.93897 0.0
C1638 C 0.48107 0.94341 0.91266 0.0
C1639 C 0.54527 0.05016 0.92159 0.0
C1640 C 0.50975 0.01951 0.78333 0.0
C1641 C 0.49247 0.02515 0.7688 0.0
C1642 C 0.47115 0.02565 0.78228 0.0
C1643 C 0.46648 0.0198 0.81103 0.0
C1644 C 0.445 0.01968 0.8252 0.0
C1645 C 0.4404 0.01353 0.85339 0.0
C1646 C 0.45769 0.00823 0.86879 0.0
C1647 C 0.45343 0.00233 0.89757 0.0
C1648 C 0.47183 0.99853 0.91258 0.0
C1649 C 0.49406 0.99966 0.8994 0.0
C1650 C 0.49785 0.00414 0.8703 0.0
C1651 C 0.51923 0.00407 0.85607 0.0
C1652 C 0.52305 0.00887 0.82756 0.0
C1653 C 0.50576 0.01415 0.8122 0.0
C1654 C 0.48396 0.01416 0.82605 0.0
C1655 C 0.47982 0.00884 0.85507 0.0
C1656 C 0.31281 0.97548 0.95378 0.0
C1657 C 0.33414 0.96736 0.95222 0.0
O1658 O 0.59349 0.01897 0.72122 0.0
O1659 O 0.57354 0.98777 0.95343 0.0
O1660 O 0.35997 0.99121 0.94981 0.0
O1661 O 0.41496 0.05987 0.715 0.0
H1662 H 0.62925 0.05297 0.73903 0.0
H1663 H 0.61116 0.06789 0.69947 0.0
H1664 H 0.61675 0.04615 0.67465 0.0
H1665 H 0.64542 0.07624 0.69378 0.0
H1666 H 0.5985 0.06442 0.74997 0.0
H1667 H 0.54494 0.97628 0.72676 0.0
H1668 H 0.54974 0.0777 0.77316 0.0
H1669 H 0.58527 0.08968 0.77916 0.0
H1670 H 0.5599 0.06886 0.80435 0.0
H1671 H 0.49952 0.94977 0.74195 0.0
H1672 H 0.48372 0.97006 0.74496 0.0
H1673 H 0.49467 0.96196 0.77613 0.0
H1674 H 0.37953 0.02309 0.7 0.0
H1675 H 0.3684 0.0442 0.66511 0.0
H1676 H 0.40414 0.05782 0.66277 0.0
H1677 H 0.3931 0.07955 0.67947 0.0
H1678 H 0.3951 0.00609 0.72832 0.0
H1679 H 0.4615 0.09243 0.73981 0.0
H1680 H 0.41147 0.97846 0.78003 0.0
H1681 H 0.43147 0.97648 0.75215 0.0
H1682 H 0.3976 0.96912 0.74445 0.0
H1683 H 0.49814 0.10685 0.77229 0.0
H1684 H 0.51059 0.08433 0.76281 0.0
H1685 H 0.49571 0.08215 0.79654 0.0
H1686 H 0.32842 0.95297 0.93294 0.0
H1687 H 0.36391 0.94826 0.92754 0.0
H1688 H 0.40643 0.03757 0.94612 0.0
H1689 H 0.409 0.94858 0.87831 0.0
H1690 H 0.38344 0.92663 0.90282 0.0
H1691 H 0.41942 0.94359 0.91168 0.0
H1692 H 0.45313 0.068 0.93631 0.0
H1693 H 0.45991 0.05794 0.90202 0.0
H1694 H 0.47313 0.05203 0.93298 0.0
H1695 H 0.60475 0.01806 0.93027 0.0
H1696 H 0.62002 0.98606 0.91282 0.0
H1697 H 0.58455 0.9719 0.90384 0.0
H1698 H 0.59326 0.95798 0.93225 0.0
H1699 H 0.5243 0.94667 0.93908 0.0
H1700 H 0.57837 0.03633 0.94577 0.0
H1701 H 0.47779 0.94288 0.88959 0.0
H1702 H 0.46401 0.94365 0.92323 0.0
H1703 H 0.48019 0.92394 0.91762 0.0
H1704 H 0.56407 0.0667 0.93353 0.0
H1705 H 0.52783 0.05207 0.92814 0.0
H1706 H 0.54832 0.05401 0.89884 0.0
H1707 H 0.49593 0.02964 0.74674 0.0
H1708 H 0.43131 0.02406 0.81458 0.0
H1709 H 0.42331 0.01336 0.86306 0.0
H1710 H 0.46875 0.99458 0.93477 0.0
H1711 H 0.53325 0.00019 0.86678 0.0
H1712 H 0.53985 0.00857 0.81775 0.0
H1713 H 0.29213 0.95671 0.95704 0.0
H1714 H 0.31219 0.98429 0.93371 0.0
H1715 H 0.3179 0.99165 0.97106 0.0
C1716 C 0.947 0.56871 0.68269 0.0
C1717 C 0.96721 0.59063 0.70513 0.0
C1718 C 0.98303 0.56464 0.73049 0.0
C1719 C 0.95867 0.54755 0.74473 0.0
C1720 C 0.95616 0.5269 0.76196 0.0
C1721 C 0.97841 0.52332 0.76505 0.0
C1722 C 0.00311 0.54086 0.75121 0.0
C1723 C 0.00506 0.56131 0.73417 0.0
C1724 C 0.92962 0.50859 0.77656 0.0
C1725 C 0.02725 0.53761 0.75399 0.0
C1726 C 0.91383 0.29786 0.71523 0.0
C1727 C 0.93456 0.32875 0.72425 0.0
C1728 C 0.93087 0.36879 0.7409 0.0
C1729 C 0.95871 0.38977 0.73846 0.0
C1730 C 0.96924 0.41732 0.74991 0.0
C1731 C 0.9516 0.42399 0.76401 0.0
C1732 C 0.92331 0.40333 0.76505 0.0
C1733 C 0.91333 0.37599 0.7534 0.0
C1734 C 0.99944 0.43903 0.74803 0.0
C1735 C 0.90388 0.40983 0.77961 0.0
C1736 C 0.01019 0.4036 0.92656 0.0
C1737 C 0.02997 0.42207 0.90814 0.0
C1738 C 0.02872 0.44414 0.8978 0.0
C1739 C 0.00696 0.44755 0.9056 0.0
C1740 C 0.98749 0.42958 0.9248 0.0
C1741 C 0.98953 0.40795 0.93523 0.0
C1742 C 0.05038 0.46347 0.87804 0.0
C1743 C 0.96418 0.4328 0.93374 0.0
C1744 C 0.09296 0.6581 0.9852 0.0
C1745 C 0.06952 0.64144 0.96343 0.0
C1746 C 0.04486 0.59127 0.94986 0.0
C1747 C 0.06146 0.58982 0.92906 0.0
C1748 C 0.05122 0.56588 0.91037 0.0
C1749 C 0.02373 0.54318 0.91237 0.0
C1750 C 0.00692 0.54486 0.93314 0.0
C1751 C 0.01788 0.56876 0.95192 0.0
C1752 C 0.07001 0.56441 0.88915 0.0
C1753 C 0.97755 0.52112 0.93598 0.0
C1754 C 0.97544 0.50018 0.7813 0.0
C1755 C 0.96483 0.47384 0.76693 0.0
C1756 C 0.96311 0.45151 0.7802 0.0
C1757 C 0.97251 0.4555 0.80849 0.0
C1758 C 0.97167 0.43362 0.82221 0.0
C1759 C 0.98168 0.4379 0.84972 0.0
C1760 C 0.99276 0.46415 0.86468 0.0
C1761 C 0.00388 0.46892 0.8923 0.0
C1762 C 0.0138 0.49486 0.90704 0.0
C1763 C 0.01332 0.51657 0.8948 0.0
C1764 C 0.00323 0.51259 0.86673 0.0
C1765 C 0.00322 0.53418 0.85332 0.0
C1766 C 0.99415 0.53022 0.82532 0.0
C1767 C 0.98419 0.50433 0.8099 0.0
C1768 C 0.98309 0.48199 0.82337 0.0
C1769 C 0.99294 0.48623 0.85165 0.0
C1770 C 0.00952 0.33874 0.93125 0.0
C1771 C 0.02432 0.36966 0.92496 0.0
O1772 O 0.98623 0.58421 0.71273 0.0
O1773 O 0.05478 0.61333 0.96926 0.0
O1774 O 0.01025 0.3814 0.93627 0.0
O1775 O 0.92028 0.34126 0.73263 0.0
H1776 H 0.95581 0.59143 0.72373 0.0
H1777 H 0.93537 0.54755 0.69115 0.0
H1778 H 0.95805 0.56769 0.66389 0.0
H1779 H 0.93206 0.57413 0.67611 0.0
H1780 H 0.94142 0.54988 0.74231 0.0
H1781 H 0.0238 0.57463 0.72322 0.0
H1782 H 0.92008 0.4864 0.76824 0.0
H1783 H 0.91481 0.51512 0.77352 0.0
H1784 H 0.93369 0.50938 0.7995 0.0
H1785 H 0.04507 0.55304 0.74199 0.0
H1786 H 0.02124 0.51604 0.74624 0.0
H1787 H 0.03364 0.54043 0.77653 0.0
H1788 H 0.94705 0.33932 0.70587 0.0
H1789 H 0.90138 0.29644 0.69677 0.0
H1790 H 0.89987 0.28705 0.73269 0.0
H1791 H 0.92434 0.28668 0.70922 0.0
H1792 H 0.97245 0.38467 0.72829 0.0
H1793 H 0.89184 0.35976 0.75492 0.0
H1794 H 0.00917 0.44479 0.76945 0.0
H1795 H 0.00248 0.45844 0.73961 0.0
H1796 H 0.01003 0.43128 0.73439 0.0
H1797 H 0.88221 0.39201 0.77704 0.0
H1798 H 0.90582 0.42872 0.77107 0.0
H1799 H 0.90937 0.4147 0.80246 0.0
H1800 H 0.02431 0.3701 0.90157 0.0
H1801 H 0.04641 0.4194 0.9016 0.0
H1802 H 0.97448 0.39378 0.94959 0.0
H1803 H 0.04128 0.45913 0.85644 0.0
H1804 H 0.06797 0.46063 0.87729 0.0
H1805 H 0.05811 0.48579 0.88458 0.0
H1806 H 0.95008 0.41638 0.94794 0.0
H1807 H 0.95231 0.43166 0.91488 0.0
H1808 H 0.97251 0.45379 0.94486 0.0
H1809 H 0.07857 0.6445 0.94221 0.0
H1810 H 0.10483 0.68079 0.981 0.0
H1811 H 0.10699 0.6503 0.98394 0.0
H1812 H 0.08497 0.65567 0.00687 0.0
H1813 H 0.08267 0.6069 0.92812 0.0
H1814 H 0.00539 0.57001 0.96831 0.0
H1815 H 0.06177 0.56224 0.8675 0.0
H1816 H 0.07098 0.54555 0.89206 0.0
H1817 H 0.09112 0.58339 0.89099 0.0
H1818 H 0.96616 0.52728 0.95039 0.0
H1819 H 0.97711 0.50294 0.94442 0.0
H1820 H 0.96682 0.51408 0.91503 0.0
H1821 H 0.9581 0.47077 0.74504 0.0
H1822 H 0.96352 0.41297 0.81178 0.0
H1823 H 0.98065 0.42031 0.85907 0.0
H1824 H 0.02224 0.49829 0.92827 0.0
H1825 H 0.01062 0.55449 0.8642 0.0
H1826 H 0.99497 0.54768 0.81591 0.0
H1827 H 0.02009 0.32884 0.92139 0.0
H1828 H 0.98813 0.32733 0.92266 0.0
H1829 H 0.00903 0.33671 0.9542 0.0
C1830 C 0.5683 0.58833 0.66811 0.0
C1831 C 0.58951 0.59571 0.6917 0.0
C1832 C 0.56439 0.55526 0.7209 0.0
C1833 C 0.5473 0.56354 0.7331 0.0
C1834 C 0.526 0.54594 0.75056 0.0
C1835 C 0.52136 0.51932 0.75583 0.0
C1836 C 0.53867 0.51101 0.74403 0.0
C1837 C 0.56009 0.5292 0.72683 0.0
C1838 C 0.5081 0.55566 0.76299 0.0
C1839 C 0.53433 0.48282 0.74939 0.0
C1840 C 0.29858 0.37141 0.70462 0.0
C1841 C 0.32613 0.37704 0.71522 0.0
C1842 C 0.36922 0.41997 0.73253 0.0
C1843 C 0.38474 0.40762 0.7347 0.0
C1844 C 0.4109 0.42275 0.74788 0.0
C1845 C 0.42183 0.45081 0.75863 0.0
C1846 C 0.40665 0.46358 0.7554 0.0
C1847 C 0.38055 0.44794 0.74237 0.0
C1848 C 0.42667 0.40864 0.75083 0.0
C1849 C 0.41774 0.49356 0.76625 0.0
C1850 C 0.38226 0.43324 0.94239 0.0
C1851 C 0.39274 0.41769 0.9303 0.0
C1852 C 0.41707 0.43092 0.91524 0.0
C1853 C 0.43055 0.46008 0.91128 0.0
C1854 C 0.42015 0.47581 0.92384 0.0
C1855 C 0.39644 0.46222 0.93975 0.0
C1856 C 0.42821 0.41366 0.90347 0.0
C1857 C 0.43384 0.50694 0.92033 0.0
C1858 C 0.62543 0.63501 0.9389 0.0
C1859 C 0.60971 0.61668 0.96326 0.0
C1860 C 0.57719 0.56996 0.94032 0.0
C1861 C 0.57074 0.54229 0.93605 0.0
C1862 C 0.54727 0.52182 0.92023 0.0
C1863 C 0.52986 0.52931 0.90841 0.0
C1864 C 0.53628 0.55729 0.91248 0.0
C1865 C 0.55987 0.57732 0.92831 0.0
C1866 C 0.54105 0.49221 0.91615 0.0
C1867 C 0.51817 0.56606 0.90014 0.0
C1868 C 0.49782 0.50006 0.77304 0.0
C1869 C 0.47233 0.48258 0.75923 0.0
C1870 C 0.44858 0.46657 0.77436 0.0
C1871 C 0.45021 0.46762 0.80413 0.0
C1872 C 0.42661 0.45234 0.82002 0.0
C1873 C 0.4282 0.45446 0.84932 0.0
C1874 C 0.45351 0.47154 0.86393 0.0
C1875 C 0.45528 0.47418 0.89376 0.0
C1876 C 0.4807 0.49209 0.90751 0.0
C1877 C 0.50448 0.5079 0.89235 0.0
C1878 C 0.50322 0.5051 0.86256 0.0
C1879 C 0.52681 0.52047 0.84668 0.0
C1880 C 0.52518 0.51857 0.81735 0.0
C1881 C 0.4999 0.50115 0.80279 0.0
C1882 C 0.47596 0.48496 0.81837 0.0
C1883 C 0.47761 0.48693 0.84831 0.0
C1884 C 0.3102 0.3955 0.95643 0.0
C1885 C 0.33568 0.39466 0.94995 0.0
O1886 O 0.58481 0.57146 0.70313 0.0
O1887 O 0.60021 0.5887 0.95597 0.0
O1888 O 0.35868 0.42101 0.95683 0.0
O1889 O 0.34308 0.40568 0.72189 0.0
H1890 H 0.58848 0.6098 0.70832 0.0
H1891 H 0.56915 0.57436 0.65122 0.0
H1892 H 0.57221 0.60777 0.65887 0.0
H1893 H 0.54731 0.57732 0.67645 0.0
H1894 H 0.55012 0.58356 0.72903 0.0
H1895 H 0.57333 0.52293 0.71751 0.0
H1896 H 0.48696 0.54187 0.75407 0.0
H1897 H 0.51557 0.57774 0.75855 0.0
H1898 H 0.50716 0.55397 0.78617 0.0
H1899 H 0.54983 0.4796 0.73908 0.0
H1900 H 0.51361 0.46577 0.74142 0.0
H1901 H 0.53528 0.48098 0.77242 0.0
H1902 H 0.335 0.37041 0.698 0.0
H1903 H 0.28317 0.34852 0.70131 0.0
H1904 H 0.30122 0.38127 0.68432 0.0
H1905 H 0.29046 0.3805 0.72012 0.0
H1906 H 0.37646 0.38617 0.72652 0.0
H1907 H 0.36851 0.45732 0.74034 0.0
H1908 H 0.43233 0.40966 0.77334 0.0
H1909 H 0.44599 0.42003 0.73915 0.0
H1910 H 0.41478 0.38624 0.7427 0.0
H1911 H 0.40371 0.50065 0.76129 0.0
H1912 H 0.43783 0.50777 0.75683 0.0
H1913 H 0.4211 0.49561 0.78945 0.0
H1914 H 0.33473 0.38898 0.92695 0.0
H1915 H 0.38216 0.39532 0.9329 0.0
H1916 H 0.38832 0.47405 0.94948 0.0
H1917 H 0.42422 0.40984 0.88035 0.0
H1918 H 0.41851 0.39294 0.91287 0.0
H1919 H 0.45073 0.42514 0.90729 0.0
H1920 H 0.42075 0.51497 0.92733 0.0
H1921 H 0.43899 0.51162 0.89796 0.0
H1922 H 0.45323 0.51855 0.9331 0.0
H1923 H 0.59236 0.61924 0.9685 0.0
H1924 H 0.6118 0.62867 0.91996 0.0
H1925 H 0.64291 0.63281 0.93321 0.0
H1926 H 0.63333 0.65747 0.94491 0.0
H1927 H 0.58418 0.53674 0.94526 0.0
H1928 H 0.56447 0.5986 0.93107 0.0
H1929 H 0.53873 0.48579 0.8933 0.0
H1930 H 0.5213 0.47752 0.92597 0.0
H1931 H 0.55731 0.49003 0.92555 0.0
H1932 H 0.52528 0.5883 0.90635 0.0
H1933 H 0.49684 0.55233 0.90711 0.0
H1934 H 0.51777 0.56348 0.8768 0.0
H1935 H 0.47078 0.48232 0.73647 0.0
H1936 H 0.40655 0.43879 0.81 0.0
H1937 H 0.40925 0.44261 0.86034 0.0
H1938 H 0.48184 0.49458 0.93036 0.0
H1939 H 0.54679 0.53433 0.85677 0.0
H1940 H 0.54396 0.53108 0.80623 0.0
H1941 H 0.29134 0.37464 0.9509 0.0
H1942 H 0.30996 0.41134 0.9438 0.0
H1943 H 0.31003 0.40133 0.97914 0.0
C1944 C 0.61074 0.70777 0.65974 0.0
C1945 C 0.6229 0.70335 0.63267 0.0
C1946 C 0.64227 0.74842 0.61069 0.0
C1947 C 0.61706 0.74461 0.60252 0.0
C1948 C 0.61618 0.76555 0.58889 0.0
C1949 C 0.64093 0.79066 0.58314 0.0
C1950 C 0.66629 0.79451 0.59121 0.0
C1951 C 0.66658 0.7733 0.60489 0.0
C1952 C 0.58883 0.76086 0.58048 0.0
C1953 C 0.69309 0.82105 0.58534 0.0
C1954 C 0.61181 0.92011 0.70119 0.0
C1955 C 0.63533 0.9285 0.68105 0.0
C1956 C 0.6305 0.90946 0.63262 0.0
C1957 C 0.65605 0.91222 0.63056 0.0
C1958 C 0.66031 0.8962 0.60992 0.0
C1959 C 0.63844 0.8768 0.59124 0.0
C1960 C 0.613 0.87488 0.59258 0.0
C1961 C 0.60958 0.8917 0.61297 0.0
C1962 C 0.68794 0.89944 0.60864 0.0
C1963 C 0.58905 0.85423 0.57331 0.0
C1964 C 0.67238 0.94036 0.41593 0.0
C1965 C 0.69395 0.93848 0.42659 0.0
C1966 C 0.68866 0.91405 0.43888 0.0
C1967 C 0.66131 0.8911 0.44064 0.0
C1968 C 0.63959 0.89285 0.42981 0.0
C1969 C 0.64545 0.91753 0.41767 0.0
C1970 C 0.71229 0.91286 0.45033 0.0
C1971 C 0.61021 0.86877 0.43138 0.0
C1972 C 0.60468 0.68502 0.36948 0.0
C1973 C 0.63031 0.71341 0.36354 0.0
C1974 C 0.6455 0.75046 0.40143 0.0
C1975 C 0.66962 0.77051 0.4162 0.0
C1976 C 0.67196 0.7941 0.43077 0.0
C1977 C 0.64906 0.79694 0.43162 0.0
C1978 C 0.62462 0.77681 0.41644 0.0
C1979 C 0.62316 0.75386 0.40128 0.0
C1980 C 0.69868 0.81554 0.44588 0.0
C1981 C 0.59977 0.77909 0.41697 0.0
C1982 C 0.64048 0.81289 0.56843 0.0
C1983 C 0.63949 0.83371 0.58474 0.0
C1984 C 0.64119 0.85651 0.57243 0.0
C1985 C 0.6448 0.85909 0.54306 0.0
C1986 C 0.64854 0.88268 0.53017 0.0
C1987 C 0.65211 0.88494 0.50123 0.0
C1988 C 0.65174 0.86354 0.48404 0.0
C1989 C 0.65544 0.86564 0.45463 0.0
C1990 C 0.65435 0.84367 0.43809 0.0
C1991 C 0.64996 0.8196 0.45019 0.0
C1992 C 0.6469 0.81745 0.47966 0.0
C1993 C 0.64305 0.79383 0.49264 0.0
C1994 C 0.64121 0.79241 0.52171 0.0
C1995 C 0.64213 0.81407 0.53886 0.0
C1996 C 0.64482 0.83752 0.52618 0.0
C1997 C 0.64777 0.83948 0.49659 0.0
C1998 C 0.7131 0.00869 0.42299 0.0
C1999 C 0.70104 0.98734 0.39744 0.0
O2000 O 0.64422 0.72896 0.62431 0.0
O2001 O 0.64422 0.72763 0.38856 0.0
O2002 O 0.6764 0.96369 0.4042 0.0
O2003 O 0.62522 0.92322 0.65354 0.0
H2004 H 0.60659 0.69237 0.61588 0.0
H2005 H 0.60216 0.7209 0.65616 0.0
H2006 H 0.62672 0.71852 0.67685 0.0
H2007 H 0.59389 0.68721 0.66676 0.0
H2008 H 0.59796 0.7255 0.60672 0.0
H2009 H 0.6859 0.77607 0.61122 0.0
H2010 H 0.5867 0.7778 0.59067 0.0
H2011 H 0.57136 0.74019 0.58648 0.0
H2012 H 0.58773 0.76196 0.55733 0.0
H2013 H 0.71106 0.82099 0.59334 0.0
H2014 H 0.69356 0.83962 0.59531 0.0
H2015 H 0.69491 0.82351 0.56228 0.0
H2016 H 0.64395 0.91547 0.68544 0.0
H2017 H 0.61947 0.92425 0.72343 0.0
H2018 H 0.59616 0.89728 0.6976 0.0
H2019 H 0.60188 0.93204 0.6977 0.0
H2020 H 0.67261 0.92672 0.64519 0.0
H2021 H 0.59007 0.89006 0.61455 0.0
H2022 H 0.69424 0.90005 0.58644 0.0
H2023 H 0.68659 0.88103 0.61767 0.0
H2024 H 0.70401 0.91882 0.62073 0.0
H2025 H 0.57009 0.85382 0.57854 0.0
H2026 H 0.58497 0.83271 0.57463 0.0
H2027 H 0.59403 0.85996 0.55117 0.0
H2028 H 0.7158 0.9814 0.39057 0.0
H2029 H 0.71491 0.95602 0.42576 0.0
H2030 H 0.62894 0.91916 0.40946 0.0
H2031 H 0.7102 0.91027 0.47336 0.0
H2032 H 0.73246 0.93211 0.44658 0.0
H2033 H 0.71185 0.8943 0.44036 0.0
H2034 H 0.59565 0.87328 0.42166 0.0
H2035 H 0.60491 0.86431 0.45376 0.0
H2036 H 0.60759 0.84948 0.4205 0.0
H2037 H 0.62393 0.7258 0.35213 0.0
H2038 H 0.5908 0.68837 0.38299 0.0
H2039 H 0.61019 0.67182 0.38056 0.0
H2040 H 0.59344 0.67368 0.34943 0.0
H2041 H 0.68674 0.76768 0.41616 0.0
H2042 H 0.6043 0.73816 0.39017 0.0
H2043 H 0.69651 0.8129 0.46888 0.0
H2044 H 0.70412 0.83723 0.44233 0.0
H2045 H 0.71576 0.81318 0.43886 0.0
H2046 H 0.58197 0.76113 0.40498 0.0
H2047 H 0.60479 0.79891 0.40777 0.0
H2048 H 0.59384 0.77996 0.43909 0.0
H2049 H 0.63745 0.83218 0.60737 0.0
H2050 H 0.64897 0.89974 0.54239 0.0
H2051 H 0.65504 0.90364 0.4925 0.0
H2052 H 0.65717 0.84543 0.41555 0.0
H2053 H 0.64179 0.77629 0.48055 0.0
H2054 H 0.63875 0.77394 0.53054 0.0
H2055 H 0.69891 0.01549 0.42949 0.0
H2056 H 0.73317 0.02742 0.41786 0.0
H2057 H 0.71645 0.99916 0.44105 0.0
C2058 C 0.08457 0.68809 0.71156 0.0
C2059 C 0.08165 0.70991 0.69714 0.0
C2060 C 0.10411 0.73382 0.65494 0.0
C2061 C 0.10152 0.75715 0.65905 0.0
C2062 C 0.11765 0.78131 0.64411 0.0
C2063 C 0.13719 0.78237 0.62519 0.0
C2064 C 0.13974 0.75877 0.62107 0.0
C2065 C 0.12263 0.73454 0.63551 0.0
C2066 C 0.11391 0.80576 0.64872 0.0
C2067 C 0.16088 0.75922 0.60189 0.0
C2068 C 0.31004 0.96478 0.72624 0.0
C2069 C 0.3021 0.94857 0.69742 0.0
C2070 C 0.2589 0.92299 0.6694 0.0
C2071 C 0.26337 0.90291 0.65592 0.0
C2072 C 0.2433 0.88111 0.63761 0.0
C2073 C 0.21837 0.87942 0.6325 0.0
C2074 C 0.21406 0.8999 0.6455 0.0
C2075 C 0.23445 0.92143 0.66366 0.0
C2076 C 0.24864 0.85977 0.6238 0.0
C2077 C 0.18781 0.89889 0.64037 0.0
C2078 C 0.25046 0.93162 0.45097 0.0
C2079 C 0.25247 0.9083 0.45538 0.0
C2080 C 0.23251 0.88586 0.47035 0.0
C2081 C 0.21004 0.88665 0.4811 0.0
C2082 C 0.20797 0.91006 0.47682 0.0
C2083 C 0.22828 0.93228 0.46187 0.0
C2084 C 0.23539 0.86123 0.47468 0.0
C2085 C 0.18427 0.91154 0.48803 0.0
C2086 C 0.01659 0.71031 0.42586 0.0
C2087 C 0.0404 0.72989 0.40744 0.0
C2088 C 0.08295 0.75252 0.43668 0.0
C2089 C 0.1074 0.7536 0.44085 0.0
C2090 C 0.1279 0.77379 0.45988 0.0
C2091 C 0.12384 0.79356 0.47506 0.0
C2092 C 0.09888 0.79223 0.4715 0.0
C2093 C 0.07857 0.77157 0.45255 0.0
C2094 C 0.15409 0.77433 0.46339 0.0
C2095 C 0.09388 0.81295 0.48743 0.0
C2096 C 0.15572 0.80848 0.61065 0.0
C2097 C 0.17738 0.83119 0.62647 0.0
C2098 C 0.1965 0.85592 0.61403 0.0
C2099 C 0.19449 0.85797 0.58476 0.0
C2100 C 0.21399 0.88209 0.57134 0.0
C2101 C 0.21211 0.8837 0.54243 0.0
C2102 C 0.19045 0.86143 0.5259 0.0
C2103 C 0.18856 0.86272 0.49646 0.0
C2104 C 0.1665 0.84045 0.48073 0.0
C2105 C 0.14627 0.81649 0.49348 0.0
C2106 C 0.14807 0.81453 0.52283 0.0
C2107 C 0.12838 0.79057 0.53632 0.0
C2108 C 0.13061 0.78868 0.56513 0.0
C2109 C 0.15273 0.81059 0.58154 0.0
C2110 C 0.17245 0.83525 0.56849 0.0
C2111 C 0.17025 0.83712 0.53908 0.0
C2112 C 0.31596 0.96731 0.44324 0.0
C2113 C 0.29165 0.95666 0.42258 0.0
O2114 O 0.08907 0.71033 0.66933 0.0
O2115 O 0.06444 0.73289 0.41718 0.0
O2116 O 0.2693 0.95386 0.43659 0.0
O2117 O 0.27732 0.94401 0.688 0.0
H2118 H 0.0956 0.73058 0.70886 0.0
H2119 H 0.10608 0.69358 0.71044 0.0
H2120 H 0.07093 0.66678 0.70104 0.0
H2121 H 0.0793 0.68764 0.73413 0.0
H2122 H 0.08674 0.75639 0.67368 0.0
H2123 H 0.12432 0.71633 0.63242 0.0
H2124 H 0.13177 0.8232 0.66107 0.0
H2125 H 0.09505 0.79996 0.66038 0.0
H2126 H 0.11292 0.81371 0.62822 0.0
H2127 H 0.16351 0.7414 0.60495 0.0
H2128 H 0.18102 0.77924 0.60559 0.0
H2129 H 0.15441 0.75772 0.57961 0.0
H2130 H 0.30009 0.92817 0.70071 0.0
H2131 H 0.2939 0.95255 0.74152 0.0
H2132 H 0.31245 0.98554 0.72523 0.0
H2133 H 0.32965 0.96808 0.7342 0.0
H2134 H 0.28234 0.90396 0.65951 0.0
H2135 H 0.2313 0.93715 0.67364 0.0
H2136 H 0.23297 0.83843 0.63022 0.0
H2137 H 0.26928 0.86424 0.62947 0.0
H2138 H 0.2468 0.8595 0.60054 0.0
H2139 H 0.18768 0.91651 0.65197 0.0
H2140 H 0.17015 0.87868 0.64702 0.0
H2141 H 0.18487 0.89979 0.61749 0.0
H2142 H 0.28634 0.93617 0.41196 0.0
H2143 H 0.26953 0.90739 0.44736 0.0
H2144 H 0.22688 0.95033 0.45848 0.0
H2145 H 0.23572 0.85841 0.49756 0.0
H2146 H 0.25431 0.86397 0.46544 0.0
H2147 H 0.21742 0.84166 0.46489 0.0
H2148 H 0.18567 0.93127 0.48303 0.0
H2149 H 0.18364 0.91018 0.51125 0.0
H2150 H 0.16471 0.89332 0.47891 0.0
H2151 H 0.04238 0.75062 0.40778 0.0
H2152 H 0.99749 0.70886 0.41912 0.0
H2153 H 0.02124 0.71863 0.44821 0.0
H2154 H 0.01319 0.68891 0.42444 0.0
H2155 H 0.11053 0.73867 0.42878 0.0
H2156 H 0.05949 0.77062 0.45028 0.0
H2157 H 0.15884 0.77486 0.4861 0.0
H2158 H 0.17128 0.79372 0.45482 0.0
H2159 H 0.15296 0.75581 0.45231 0.0
H2160 H 0.07362 0.80952 0.48194 0.0
H2161 H 0.11013 0.83475 0.48283 0.0
H2162 H 0.09496 0.81112 0.51044 0.0
H2163 H 0.17949 0.82954 0.64882 0.0
H2164 H 0.2311 0.89989 0.583 0.0
H2165 H 0.22785 0.90268 0.5332 0.0
H2166 H 0.16523 0.84162 0.45814 0.0
H2167 H 0.11107 0.77295 0.5247 0.0
H2168 H 0.11482 0.76975 0.57439 0.0
H2169 H 0.33394 0.96979 0.43191 0.0
H2170 H 0.31073 0.95214 0.45966 0.0
H2171 H 0.32167 0.98791 0.45385 0.0
C2172 C 0.08066 0.38619 0.70619 0.0
C2173 C 0.06344 0.36888 0.67989 0.0
C2174 C 0.0861 0.34751 0.65491 0.0
C2175 C 0.1087 0.37241 0.64556 0.0
C2176 C 0.12749 0.37144 0.62737 0.0
C2177 C 0.12331 0.34508 0.61802 0.0
C2178 C 0.10051 0.32003 0.62735 0.0
C2179 C 0.0824 0.32165 0.64592 0.0
C2180 C 0.15188 0.39858 0.61823 0.0
C2181 C 0.09527 0.29153 0.61773 0.0
C2182 C 0.29406 0.33044 0.59793 0.0
C2183 C 0.29049 0.3364 0.62901 0.0
C2184 C 0.24372 0.32664 0.62721 0.0
C2185 C 0.21643 0.30423 0.62511 0.0
C2186 C 0.19581 0.30777 0.6149 0.0
C2187 C 0.20268 0.33468 0.60741 0.0
C2188 C 0.22999 0.35787 0.61123 0.0
C2189 C 0.25031 0.35358 0.62075 0.0
C2190 C 0.16686 0.2826 0.61141 0.0
C2191 C 0.23787 0.3871 0.60451 0.0
C2192 C 0.23383 0.33625 0.4228 0.0
C2193 C 0.20903 0.31201 0.42981 0.0
C2194 C 0.18994 0.31415 0.44634 0.0
C2195 C 0.19582 0.341 0.45634 0.0
C2196 C 0.22053 0.36543 0.44904 0.0
C2197 C 0.23916 0.36269 0.43228 0.0
C2198 C 0.16365 0.28769 0.45357 0.0
C2199 C 0.22743 0.39438 0.45938 0.0
C2200 C 0.05064 0.3977 0.44987 0.0
C2201 C 0.06039 0.38887 0.42354 0.0
C2202 C 0.07911 0.36176 0.44046 0.0
C2203 C 0.07434 0.33478 0.44136 0.0
C2204 C 0.09334 0.33035 0.45432 0.0
C2205 C 0.11784 0.35364 0.46654 0.0
C2206 C 0.12296 0.38108 0.46561 0.0
C2207 C 0.10345 0.38487 0.45281 0.0
C2208 C 0.08718 0.30079 0.45509 0.0
C2209 C 0.14902 0.40641 0.47826 0.0
C2210 C 0.14291 0.34361 0.59877 0.0
C2211 C 0.16317 0.34052 0.61059 0.0
C2212 C 0.1818 0.33818 0.59367 0.0
C2213 C 0.18044 0.33914 0.5641 0.0
C2214 C 0.19871 0.33657 0.54643 0.0
C2215 C 0.19759 0.33808 0.51745 0.0
C2216 C 0.17792 0.34185 0.50491 0.0
C2217 C 0.17667 0.34344 0.47544 0.0
C2218 C 0.1569 0.34725 0.46364 0.0
C2219 C 0.13805 0.34929 0.4805 0.0
C2220 C 0.13881 0.34748 0.51 0.0
C2221 C 0.11987 0.34897 0.52753 0.0
C2222 C 0.12105 0.34755 0.55657 0.0
C2223 C 0.14127 0.34468 0.56923 0.0
C2224 C 0.16026 0.34265 0.55189 0.0
C2225 C 0.15899 0.34399 0.52225 0.0
C2226 C 0.26096 0.29955 0.42026 0.0
C2227 C 0.25271 0.3115 0.39686 0.0
O2228 O 0.06765 0.3473 0.67292 0.0
O2229 O 0.05964 0.36433 0.42768 0.0
O2230 O 0.25324 0.33525 0.40732 0.0
O2231 O 0.26292 0.32123 0.6352 0.0
H2232 H 0.0688 0.38281 0.66213 0.0
H2233 H 0.07544 0.37263 0.72421 0.0
H2234 H 0.07701 0.40328 0.71201 0.0
H2235 H 0.10279 0.39596 0.70212 0.0
H2236 H 0.11207 0.39263 0.65266 0.0
H2237 H 0.06498 0.30258 0.65337 0.0
H2238 H 0.17106 0.39927 0.62274 0.0
H2239 H 0.15334 0.4174 0.62895 0.0
H2240 H 0.15036 0.39963 0.59513 0.0
H2241 H 0.07519 0.27404 0.62463 0.0
H2242 H 0.11167 0.28926 0.62651 0.0
H2243 H 0.09585 0.28961 0.5944 0.0
H2244 H 0.2996 0.3593 0.63336 0.0
H2245 H 0.31602 0.34301 0.59247 0.0
H2246 H 0.28272 0.33635 0.58419 0.0
H2247 H 0.28607 0.30771 0.59348 0.0
H2248 H 0.21147 0.28363 0.63052 0.0
H2249 H 0.27116 0.37141 0.62299 0.0
H2250 H 0.1591 0.28031 0.58948 0.0
H2251 H 0.1534 0.28584 0.6257 0.0
H2252 H 0.16527 0.26275 0.61628 0.0
H2253 H 0.25866 0.40346 0.61301 0.0
H2254 H 0.22286 0.3919 0.61327 0.0
H2255 H 0.23765 0.38828 0.58131 0.0
H2256 H 0.23188 0.29533 0.38828 0.0
H2257 H 0.2044 0.2913 0.42276 0.0
H2258 H 0.25825 0.38128 0.42677 0.0
H2259 H 0.1633 0.28557 0.47666 0.0
H2260 H 0.16123 0.26849 0.44265 0.0
H2261 H 0.14583 0.28904 0.44777 0.0
H2262 H 0.24751 0.41131 0.45186 0.0
H2263 H 0.22795 0.39609 0.48278 0.0
H2264 H 0.21126 0.39774 0.45204 0.0
H2265 H 0.0815 0.40608 0.41884 0.0
H2266 H 0.06345 0.40049 0.46857 0.0
H2267 H 0.02899 0.38137 0.45393 0.0
H2268 H 0.05239 0.41805 0.4472 0.0
H2269 H 0.05552 0.31707 0.43187 0.0
H2270 H 0.10744 0.40592 0.45272 0.0
H2271 H 0.08841 0.29606 0.47718 0.0
H2272 H 0.10277 0.29897 0.44311 0.0
H2273 H 0.06656 0.28479 0.44592 0.0
H2274 H 0.1509 0.42652 0.47396 0.0
H2275 H 0.16708 0.40665 0.46974 0.0
H2276 H 0.14952 0.40509 0.50143 0.0
H2277 H 0.16435 0.33975 0.63326 0.0
H2278 H 0.21421 0.33347 0.55478 0.0
H2279 H 0.21237 0.33623 0.50501 0.0
H2280 H 0.15615 0.3486 0.44103 0.0
H2281 H 0.10392 0.35129 0.519 0.0
H2282 H 0.10595 0.34885 0.569 0.0
H2283 H 0.26146 0.28107 0.4117 0.0
H2284 H 0.24592 0.29257 0.43732 0.0
H2285 H 0.28147 0.31578 0.42954 0.0
loop_
_geom_bond_atom_site_label_1
_geom_bond_atom_site_label_2
_geom_bond_distance
_geom_bond_site_symmetry_2
_ccdc_geom_bond_type
C0 O1 1.160 . S
C0 O7 1.185 . S
O1 C0 1.160 . S
O2 Zn3 1.899 1_656 S
O2 C10 1.284 . S
Zn3 O2 1.899 1_454 S
Zn3 O4 2.047 . S
Zn3 O7 2.086 . S
Zn3 O12 1.977 1_554 S
O4 Zn3 2.047 . S
O4 C8 1.246 1_455 S
C5 O6 1.203 1_455 S
C5 O12 1.267 . S
O6 C5 1.203 1_655 S
O7 C0 1.185 . S
O7 Zn3 2.086 . S
C8 O4 1.246 1_655 S
C8 O9 1.211 . S
O9 C8 1.211 . S
C10 O2 1.284 . S
C10 O11 1.273 1_556 S
O11 C10 1.273 1_554 S
O12 Zn3 1.977 1_556 S
O12 C5 1.267 . S
C13 O14 1.160 . S
C13 O20 1.185 1_556 S
O14 C13 1.160 . S
O15 Zn16 1.899 . S
O15 C23 1.284 . S
Zn16 O15 1.899 . S
Zn16 O17 2.032 1_554 S
Zn16 O20 2.086 . S
Zn16 O25 1.977 . S
O17 Zn16 2.032 1_556 S
O17 C21 1.278 . S
C18 O19 1.203 . S
C18 O25 1.267 . S
O19 C18 1.203 . S
O20 C13 1.185 1_554 S
O20 Zn16 2.086 . S
C21 O17 1.278 . S
C21 O22 1.211 1_556 S
O22 C21 1.211 1_554 S
C23 O15 1.284 . S
C23 O24 1.273 . S
O24 C23 1.273 . S
O25 Zn16 1.977 . S
O25 C18 1.267 . S
C26 O27 1.160 . S
C26 O33 1.185 1_556 S
O27 C26 1.160 . S
O28 Zn29 1.899 1_565 S
O28 C36 1.284 . S
Zn29 O28 1.899 1_545 S
Zn29 O30 2.032 1_554 S
Zn29 O33 2.086 . S
Zn29 O38 1.977 . S
O30 Zn29 2.032 1_556 S
O30 C34 1.278 1_545 S
C31 O32 1.203 1_545 S
C31 O38 1.267 . S
O32 C31 1.203 1_565 S
O33 C26 1.185 1_554 S
O33 Zn29 2.086 . S
C34 O30 1.278 1_565 S
C34 O35 1.211 . S
O35 C34 1.211 . S
C36 O28 1.284 . S
C36 O37 1.273 . S
O37 C36 1.273 . S
O38 Zn29 1.977 . S
O38 C31 1.267 . S
C39 O40 1.160 . S
C39 O46 1.185 1_556 S
O40 C39 1.160 . S
O41 Zn42 1.899 1_455 S
O41 C49 1.284 . S
Zn42 O41 1.899 1_655 S
Zn42 O43 2.032 1_654 S
Zn42 O46 2.086 . S
Zn42 O51 1.977 . S
O43 Zn42 2.032 1_456 S
O43 C47 1.278 . S
C44 O45 1.203 1_655 S
C44 O51 1.267 . S
O45 C44 1.203 1_455 S
O46 C39 1.185 1_554 S
O46 Zn42 2.086 . S
C47 O43 1.278 . S
C47 O48 1.211 . S
O48 C47 1.211 . S
C49 O41 1.284 . S
C49 O50 1.273 . S
O50 C49 1.273 . S
O51 Zn42 1.977 . S
O51 C44 1.267 . S
C52 O53 1.160 . S
C52 O59 1.185 . S
O53 C52 1.160 . S
O54 Zn55 1.887 1_556 S
O54 C62 1.284 . S
Zn55 O54 1.887 1_554 S
Zn55 O56 2.053 . S
Zn55 O59 2.096 . S
Zn55 O64 1.963 1_554 S
O56 Zn55 2.053 . S
O56 C60 1.278 . S
C57 O58 1.203 . S
C57 O64 1.267 . S
O58 C57 1.203 . S
O59 C52 1.185 . S
O59 Zn55 2.096 . S
C60 O56 1.278 . S
C60 O61 1.211 . S
O61 C60 1.211 . S
C62 O54 1.284 . S
C62 O63 1.273 . S
O63 C62 1.273 . S
O64 Zn55 1.963 1_556 S
O64 C57 1.267 . S
C65 O66 1.160 . S
C65 O72 1.185 . S
O66 C65 1.160 . S
O67 Zn68 1.899 1_546 S
O67 C75 1.284 . S
Zn68 O67 1.899 1_564 S
Zn68 O69 2.032 1_565 S
Zn68 O72 2.086 . S
Zn68 O77 1.977 1_554 S
O69 Zn68 2.032 1_545 S
O69 C73 1.278 . S
C70 O71 1.203 1_565 S
C70 O77 1.267 . S
O71 C70 1.203 1_545 S
O72 C65 1.185 . S
O72 Zn68 2.086 . S
C73 O69 1.278 . S
C73 O74 1.211 . S
O74 C73 1.211 . S
C75 O67 1.284 . S
C75 O76 1.273 1_556 S
O76 C75 1.273 1_554 S
O77 Zn68 1.977 1_556 S
O77 C70 1.267 . S
C78 O79 1.160 . S
C78 O85 1.185 . S
O79 C78 1.160 . S
O80 Zn81 1.899 . S
O80 C88 1.284 . S
Zn81 O80 1.899 . S
Zn81 O82 2.032 . S
Zn81 O85 2.086 . S
Zn81 O90 1.977 . S
O82 Zn81 2.032 . S
O82 C86 1.278 . S
C83 O84 1.203 . S
C83 O90 1.267 . S
O84 C83 1.203 . S
O85 C78 1.185 . S
O85 Zn81 2.086 . S
C86 O82 1.278 . S
C86 O87 1.211 . S
O87 C86 1.211 . S
C88 O80 1.284 . S
C88 O89 1.273 . S
O89 C88 1.273 . S
O90 Zn81 1.977 . S
O90 C83 1.267 . S
C91 O92 1.160 1_565 S
C91 O98 1.185 . S
O92 C91 1.160 1_545 S
O93 Zn94 1.899 1_545 S
O93 C101 1.284 . S
Zn94 O93 1.899 1_565 S
Zn94 O95 2.032 . S
Zn94 O98 2.086 . S
Zn94 O103 1.977 . S
O95 Zn94 2.032 . S
O95 C99 1.278 . S
C96 O97 1.203 . S
C96 O103 1.267 . S
O97 C96 1.203 . S
O98 C91 1.185 . S
O98 Zn94 2.086 . S
C99 O95 1.278 . S
C99 O100 1.211 . S
O100 C99 1.211 . S
C101 O93 1.284 . S
C101 O102 1.273 . S
O102 C101 1.273 . S
O103 Zn94 1.977 . S
O103 C96 1.267 . S
C104 O105 1.160 1_455 S
C104 O111 1.185 . S
O105 C104 1.160 1_655 S
O106 Zn107 1.899 1_655 S
O106 C114 1.284 . S
Zn107 O106 1.899 1_455 S
Zn107 O108 2.032 . S
Zn107 O111 2.086 . S
Zn107 O116 1.977 . S
O108 Zn107 2.032 . S
O108 C112 1.278 . S
C109 O110 1.203 . S
C109 O116 1.267 . S
O110 C109 1.203 . S
O111 C104 1.185 . S
O111 Zn107 2.086 . S
C112 O108 1.278 . S
C112 O113 1.211 . S
O113 C112 1.211 . S
C114 O106 1.284 . S
C114 O115 1.273 . S
O115 C114 1.273 . S
O116 Zn107 1.977 . S
O116 C109 1.267 . S
C117 O118 1.160 1_565 S
C117 O124 1.185 . S
O118 C117 1.160 1_545 S
O119 Zn120 1.899 1_545 S
O119 C127 1.284 . S
Zn120 O119 1.899 1_565 S
Zn120 O121 2.032 . S
Zn120 O124 2.086 . S
Zn120 O129 1.977 . S
O121 Zn120 2.032 . S
O121 C125 1.278 . S
C122 O123 1.203 . S
C122 O129 1.267 . S
O123 C122 1.203 . S
O124 C117 1.185 . S
O124 Zn120 2.086 . S
C125 O121 1.278 . S
C125 O126 1.211 . S
O126 C125 1.211 . S
C127 O119 1.284 . S
C127 O128 1.273 . S
O128 C127 1.273 . S
O129 Zn120 1.977 . S
O129 C122 1.267 . S
C130 O131 1.160 . S
C130 O137 1.185 . S
O131 C130 1.160 . S
O132 Zn133 1.899 1_655 S
O132 C140 1.284 1_655 S
Zn133 O132 1.899 1_455 S
Zn133 O134 2.032 . S
Zn133 O137 2.086 1_455 S
Zn133 O142 1.977 . S
O134 Zn133 2.032 . S
O134 C138 1.278 . S
C135 O136 1.203 . S
C135 O142 1.267 . S
O136 C135 1.203 . S
O137 C130 1.185 . S
O137 Zn133 2.086 1_655 S
C138 O134 1.278 . S
C138 O139 1.211 . S
O139 C138 1.211 . S
C140 O132 1.284 1_455 S
C140 O141 1.273 . S
O141 C140 1.273 . S
O142 Zn133 1.977 . S
O142 C135 1.267 . S
C143 O144 1.160 . S
C143 O150 1.185 . S
O144 C143 1.160 . S
O145 Zn146 1.899 . S
O145 C153 1.284 . S
Zn146 O145 1.899 . S
Zn146 O147 2.032 . S
Zn146 O150 2.086 . S
Zn146 O155 1.977 . S
O147 Zn146 2.032 . S
O147 C151 1.278 . S
C148 O149 1.203 . S
C148 O155 1.267 . S
O149 C148 1.203 . S
O150 C143 1.185 . S
O150 Zn146 2.086 . S
C151 O147 1.278 . S
C151 O152 1.211 . S
O152 C151 1.211 . S
C153 O145 1.284 . S
C153 O154 1.273 . S
O154 C153 1.273 . S
O155 Zn146 1.977 . S
O155 C148 1.267 . S
C156 O157 1.160 1_545 S
C156 O163 1.185 . S
O157 C156 1.160 1_565 S
O158 Zn159 1.899 1_565 S
O158 C166 1.284 . S
Zn159 O158 1.899 1_545 S
Zn159 O160 2.032 . S
Zn159 O163 2.086 . S
Zn159 O168 1.977 . S
O160 Zn159 2.032 . S
O160 C164 1.278 . S
C161 O162 1.203 . S
C161 O168 1.267 . S
O162 C161 1.203 . S
O163 C156 1.185 . S
O163 Zn159 2.086 . S
C164 O160 1.278 . S
C164 O165 1.211 . S
O165 C164 1.211 . S
C166 O158 1.284 . S
C166 O167 1.273 . S
O167 C166 1.273 . S
O168 Zn159 1.977 . S
O168 C161 1.267 . S
C169 O170 1.160 . S
C169 O176 1.185 . S
O170 C169 1.160 . S
O171 Zn172 1.899 1_455 S
O171 C179 1.284 1_455 S
Zn172 O171 1.899 1_655 S
Zn172 O173 2.032 . S
Zn172 O176 2.086 1_655 S
Zn172 O181 1.977 . S
O173 Zn172 2.032 . S
O173 C177 1.278 . S
C174 O175 1.203 . S
C174 O181 1.267 . S
O175 C174 1.203 . S
O176 C169 1.185 . S
O176 Zn172 2.086 1_455 S
C177 O173 1.278 . S
C177 O178 1.211 . S
O178 C177 1.211 . S
C179 O171 1.284 1_655 S
C179 O180 1.273 . S
O180 C179 1.273 . S
O181 Zn172 1.977 . S
O181 C174 1.267 . S
C182 O183 1.160 . S
C182 O189 1.185 . S
O183 C182 1.160 . S
O184 Zn185 1.899 . S
O184 C192 1.284 . S
Zn185 O184 1.899 . S
Zn185 O186 2.032 . S
Zn185 O189 2.086 . S
Zn185 O194 1.977 . S
O186 Zn185 2.032 . S
O186 C190 1.278 . S
C187 O188 1.203 . S
C187 O194 1.267 . S
O188 C187 1.203 . S
O189 C182 1.185 . S
O189 Zn185 2.086 . S
C190 O186 1.278 . S
C190 O191 1.211 . S
O191 C190 1.211 . S
C192 O184 1.284 . S
C192 O193 1.273 . S
O193 C192 1.273 . S
O194 Zn185 1.977 . S
O194 C187 1.267 . S
C195 O196 1.160 . S
C195 O202 1.185 . S
O196 C195 1.160 . S
O197 Zn198 1.899 . S
O197 C205 1.284 . S
Zn198 O197 1.899 . S
Zn198 O199 2.032 . S
Zn198 O202 2.086 . S
Zn198 O207 1.977 . S
O199 Zn198 2.032 . S
O199 C203 1.278 . S
C200 O201 1.203 . S
C200 O207 1.267 . S
O201 C200 1.203 . S
O202 C195 1.185 . S
O202 Zn198 2.086 . S
C203 O199 1.278 . S
C203 O204 1.211 . S
O204 C203 1.211 . S
C205 O197 1.284 . S
C205 O206 1.273 . S
O206 C205 1.273 . S
O207 Zn198 1.977 . S
O207 C200 1.267 . S
C208 O209 1.160 1_545 S
C208 O215 1.185 . S
O209 C208 1.160 1_565 S
O210 Zn211 1.899 1_565 S
O210 C218 1.284 . S
Zn211 O210 1.899 1_545 S
Zn211 O212 2.032 . S
Zn211 O215 2.086 . S
Zn211 O220 1.977 . S
O212 Zn211 2.032 . S
O212 C216 1.278 . S
C213 O214 1.203 . S
C213 O220 1.267 . S
O214 C213 1.203 . S
O215 C208 1.185 . S
O215 Zn211 2.086 . S
C216 O212 1.278 . S
C216 O217 1.211 . S
O217 C216 1.211 . S
C218 O210 1.284 . S
C218 O219 1.273 . S
O219 C218 1.273 . S
O220 Zn211 1.977 . S
O220 C213 1.267 . S
C221 O222 1.160 1_655 S
C221 O228 1.185 . S
O222 C221 1.160 1_455 S
O223 Zn224 1.899 1_455 S
O223 C231 1.284 . S
Zn224 O223 1.899 1_655 S
Zn224 O225 2.032 . S
Zn224 O228 2.086 . S
Zn224 O233 1.977 . S
O225 Zn224 2.032 . S
O225 C229 1.278 . S
C226 O227 1.203 . S
C226 O233 1.267 . S
O227 C226 1.203 . S
O228 C221 1.185 . S
O228 Zn224 2.086 . S
C229 O225 1.278 . S
C229 O230 1.211 . S
O230 C229 1.211 . S
C231 O223 1.284 . S
C231 O232 1.273 . S
O232 C231 1.273 . S
O233 Zn224 1.977 . S
O233 C226 1.267 . S
C234 C235 1.560 1_556 S
C234 H295 0.959 . S
C234 H296 0.962 . S
C234 H297 0.960 . S
C235 C234 1.560 1_554 S
C235 O290 1.426 . S
C235 H294 0.980 . S
C236 C237 1.407 . S
C236 C241 1.418 . S
C236 O290 1.334 . S
C237 C236 1.407 . S
C237 C238 1.360 . S
C237 H298 0.929 . S
C238 C237 1.360 . S
C238 C239 1.401 . S
C238 C242 1.527 . S
C239 C238 1.401 . S
C239 C240 1.405 . S
C239 C272 1.587 . S
C240 C239 1.405 . S
C240 C241 1.332 . S
C240 C243 1.496 . S
C241 C236 1.418 . S
C241 C240 1.332 . S
C241 H299 0.929 . S
C242 C238 1.527 . S
C242 H300 0.959 . S
C242 H301 0.961 . S
C242 H302 0.961 . S
C243 C240 1.496 . S
C243 H303 0.960 . S
C243 H304 0.960 . S
C243 H305 0.961 . S
C244 C245 1.517 . S
C244 H307 0.960 1_455 S
C244 H308 0.960 . S
C244 H309 0.959 . S
C245 C244 1.517 . S
C245 O293 1.468 . S
C245 H306 0.980 . S
C246 C247 1.349 . S
C246 C251 1.367 . S
C246 O293 1.408 . S
C247 C246 1.349 . S
C247 C248 1.407 . S
C247 H310 0.930 . S
C248 C247 1.407 . S
C248 C249 1.449 . S
C248 C252 1.535 . S
C249 C248 1.449 . S
C249 C250 1.384 . S
C249 C274 1.553 . S
C250 C249 1.384 . S
C250 C251 1.364 . S
C250 C253 1.450 . S
C251 C246 1.367 . S
C251 C250 1.364 . S
C251 H311 0.931 . S
C252 C248 1.535 . S
C252 H312 0.959 . S
C252 H313 0.961 . S
C252 H314 0.959 . S
C253 C250 1.450 . S
C253 H315 0.960 . S
C253 H316 0.960 . S
C253 H317 0.960 . S
C254 C255 1.309 . S
C254 C259 1.304 . S
C254 O292 1.435 . S
C255 C254 1.309 . S
C255 C256 1.476 . S
C255 H319 0.930 . S
C256 C255 1.476 . S
C256 C257 1.400 . S
C256 C260 1.567 . S
C257 C256 1.400 . S
C257 C258 1.373 . S
C257 C279 1.432 . S
C258 C257 1.373 . S
C258 C259 1.339 . S
C258 C261 1.530 . S
C259 C254 1.304 . S
C259 C258 1.339 . S
C259 H320 0.930 . S
C260 C256 1.567 . S
C260 H321 0.961 . S
C260 H322 0.960 . S
C260 H323 0.958 . S
C261 C258 1.530 . S
C261 H324 0.961 . S
C261 H325 0.960 . S
C261 H326 0.960 . S
C262 C263 1.530 . S
C262 H328 0.961 . S
C262 H329 0.961 . S
C262 H330 0.959 . S
C263 C262 1.530 . S
C263 O291 1.412 . S
C263 H327 0.980 . S
C264 C265 1.288 . S
C264 C269 1.377 . S
C264 O291 1.393 . S
C265 C264 1.288 . S
C265 C266 1.369 . S
C265 H331 0.932 . S
C266 C265 1.369 . S
C266 C267 1.398 . S
C266 C270 1.527 . S
C267 C266 1.398 . S
C267 C268 1.380 . S
C267 C281 1.497 . S
C268 C267 1.380 . S
C268 C269 1.383 . S
C268 C271 1.603 . S
C269 C264 1.377 . S
C269 C268 1.383 . S
C269 H332 0.929 . S
C270 C266 1.527 . S
C270 H333 0.961 . S
C270 H334 0.959 . S
C270 H335 0.959 . S
C271 C268 1.603 . S
C271 H336 0.960 . S
C271 H337 0.962 . S
C271 H338 0.961 . S
C272 C239 1.587 . S
C272 C273 1.360 . S
C272 C285 1.412 . S
C273 C272 1.360 . S
C273 C274 1.365 . S
C273 H339 0.929 . S
C274 C249 1.553 . S
C274 C273 1.365 . S
C274 C275 1.404 . S
C275 C274 1.404 . S
C275 C276 1.395 . S
C275 C286 1.451 . S
C276 C275 1.395 . S
C276 C277 1.322 . S
C276 H340 0.930 . S
C277 C276 1.322 . S
C277 C278 1.459 . S
C277 H341 0.929 . S
C278 C277 1.459 . S
C278 C279 1.445 . S
C278 C287 1.395 . S
C279 C257 1.432 . S
C279 C278 1.445 . S
C279 C280 1.370 . S
C280 C279 1.370 . S
C280 C281 1.438 . S
C280 H342 0.930 . S
C281 C267 1.497 . S
C281 C280 1.438 . S
C281 C282 1.360 . S
C282 C281 1.360 . S
C282 C283 1.401 . S
C282 C287 1.446 . S
C283 C282 1.401 . S
C283 C284 1.347 . S
C283 H343 0.929 . S
C284 C283 1.347 . S
C284 C285 1.455 . S
C284 H344 0.930 . S
C285 C272 1.412 . S
C285 C284 1.455 . S
C285 C286 1.331 . S
C286 C275 1.451 . S
C286 C285 1.331 . S
C286 C287 1.497 . S
C287 C278 1.395 . S
C287 C282 1.446 . S
C287 C286 1.497 . S
C288 C289 1.582 . S
C288 H345 0.962 1_455 S
C288 H346 0.959 1_455 S
C288 H347 0.958 . S
C289 C288 1.582 . S
C289 O292 1.458 . S
C289 H318 0.980 . S
O290 C235 1.426 . S
O290 C236 1.334 . S
O291 C263 1.412 . S
O291 C264 1.393 . S
O292 C254 1.435 . S
O292 C289 1.458 . S
O293 C245 1.468 . S
O293 C246 1.408 . S
H294 C235 0.980 . S
H295 C234 0.959 . S
H296 C234 0.962 . S
H297 C234 0.960 . S
H298 C237 0.929 . S
H299 C241 0.929 . S
H300 C242 0.959 . S
H301 C242 0.961 . S
H302 C242 0.961 . S
H303 C243 0.960 . S
H304 C243 0.960 . S
H305 C243 0.961 . S
H306 C245 0.980 . S
H307 C244 0.960 1_655 S
H308 C244 0.960 . S
H309 C244 0.959 . S
H310 C247 0.930 . S
H311 C251 0.931 . S
H312 C252 0.959 . S
H313 C252 0.961 . S
H314 C252 0.959 . S
H315 C253 0.960 . S
H316 C253 0.960 . S
H317 C253 0.960 . S
H318 C289 0.980 . S
H319 C255 0.930 . S
H320 C259 0.930 . S
H321 C260 0.961 . S
H322 C260 0.960 . S
H323 C260 0.958 . S
H324 C261 0.961 . S
H325 C261 0.960 . S
H326 C261 0.960 . S
H327 C263 0.980 . S
H328 C262 0.961 . S
H329 C262 0.961 . S
H330 C262 0.959 . S
H331 C265 0.932 . S
H332 C269 0.929 . S
H333 C270 0.961 . S
H334 C270 0.959 . S
H335 C270 0.959 . S
H336 C271 0.960 . S
H337 C271 0.962 . S
H338 C271 0.961 . S
H339 C273 0.929 . S
H340 C276 0.930 . S
H341 C277 0.929 . S
H342 C280 0.930 . S
H343 C283 0.929 . S
H344 C284 0.930 . S
H345 C288 0.962 1_655 S
H346 C288 0.959 1_655 S
H347 C288 0.958 . S
C348 C349 1.560 . S
C348 H409 0.959 1_554 S
C348 H410 0.959 1_565 S
C348 H411 0.960 1_564 S
C349 C348 1.560 . S
C349 O404 1.426 . S
C349 H408 0.980 . S
C350 C351 1.407 . S
C350 C355 1.418 . S
C350 O404 1.334 . S
C351 C350 1.407 . S
C351 C352 1.360 . S
C351 H412 0.929 . S
C352 C351 1.360 . S
C352 C353 1.401 . S
C352 C356 1.527 . S
C353 C352 1.401 . S
C353 C354 1.405 . S
C353 C386 1.587 . S
C354 C353 1.405 . S
C354 C355 1.332 . S
C354 C357 1.496 . S
C355 C350 1.418 . S
C355 C354 1.332 . S
C355 H413 0.929 . S
C356 C352 1.527 . S
C356 H414 0.959 . S
C356 H415 0.961 . S
C356 H416 0.961 . S
C357 C354 1.496 . S
C357 H417 0.960 . S
C357 H418 0.960 . S
C357 H419 0.961 . S
C358 C359 1.517 . S
C358 H421 0.961 . S
C358 H422 0.960 . S
C358 H423 0.959 . S
C359 C358 1.517 . S
C359 O407 1.468 . S
C359 H420 0.980 . S
C360 C361 1.349 . S
C360 C365 1.367 . S
C360 O407 1.408 . S
C361 C360 1.349 . S
C361 C362 1.407 . S
C361 H424 0.930 . S
C362 C361 1.407 . S
C362 C363 1.449 . S
C362 C366 1.535 . S
C363 C362 1.449 . S
C363 C364 1.384 . S
C363 C388 1.553 . S
C364 C363 1.384 . S
C364 C365 1.364 . S
C364 C367 1.450 . S
C365 C360 1.367 . S
C365 C364 1.364 . S
C365 H425 0.931 . S
C366 C362 1.535 . S
C366 H426 0.959 . S
C366 H427 0.961 . S
C366 H428 0.959 . S
C367 C364 1.450 . S
C367 H429 0.960 . S
C367 H430 0.960 . S
C367 H431 0.960 . S
C368 C369 1.309 . S
C368 C373 1.304 . S
C368 O406 1.435 . S
C369 C368 1.309 . S
C369 C370 1.476 . S
C369 H433 0.930 . S
C370 C369 1.476 . S
C370 C371 1.400 . S
C370 C374 1.567 . S
C371 C370 1.400 . S
C371 C372 1.373 . S
C371 C393 1.432 . S
C372 C371 1.373 . S
C372 C373 1.339 . S
C372 C375 1.530 . S
C373 C368 1.304 . S
C373 C372 1.339 . S
C373 H434 0.930 . S
C374 C370 1.567 . S
C374 H435 0.961 . S
C374 H436 0.960 . S
C374 H437 0.958 . S
C375 C372 1.530 . S
C375 H438 0.961 . S
C375 H439 0.960 . S
C375 H440 0.960 . S
C376 C377 1.530 1_545 S
C376 H442 0.961 . S
C376 H443 0.961 . S
C376 H444 0.959 . S
C377 C376 1.530 1_565 S
C377 O405 1.412 . S
C377 H441 0.980 . S
C378 C379 1.288 . S
C378 C383 1.377 . S
C378 O405 1.393 . S
C379 C378 1.288 . S
C379 C380 1.369 . S
C379 H445 0.932 . S
C380 C379 1.369 . S
C380 C381 1.398 . S
C380 C384 1.527 . S
C381 C380 1.398 . S
C381 C382 1.380 . S
C381 C395 1.497 . S
C382 C381 1.380 . S
C382 C383 1.383 . S
C382 C385 1.603 . S
C383 C378 1.377 . S
C383 C382 1.383 . S
C383 H446 0.929 . S
C384 C380 1.527 . S
C384 H447 0.961 . S
C384 H448 0.959 . S
C384 H449 0.959 . S
C385 C382 1.603 . S
C385 H450 0.960 . S
C385 H451 0.962 . S
C385 H452 0.961 . S
C386 C353 1.587 . S
C386 C387 1.360 . S
C386 C399 1.412 . S
C387 C386 1.360 . S
C387 C388 1.365 . S
C387 H453 0.929 . S
C388 C363 1.553 . S
C388 C387 1.365 . S
C388 C389 1.404 . S
C389 C388 1.404 . S
C389 C390 1.395 . S
C389 C400 1.451 . S
C390 C389 1.395 . S
C390 C391 1.322 . S
C390 H454 0.930 . S
C391 C390 1.322 . S
C391 C392 1.459 . S
C391 H455 0.929 . S
C392 C391 1.459 . S
C392 C393 1.445 . S
C392 C401 1.395 . S
C393 C371 1.432 . S
C393 C392 1.445 . S
C393 C394 1.370 . S
C394 C393 1.370 . S
C394 C395 1.438 . S
C394 H456 0.930 . S
C395 C381 1.497 . S
C395 C394 1.438 . S
C395 C396 1.360 . S
C396 C395 1.360 . S
C396 C397 1.401 . S
C396 C401 1.446 . S
C397 C396 1.401 . S
C397 C398 1.347 . S
C397 H457 0.929 . S
C398 C397 1.347 . S
C398 C399 1.455 . S
C398 H458 0.930 . S
C399 C386 1.412 . S
C399 C398 1.455 . S
C399 C400 1.331 . S
C400 C389 1.451 . S
C400 C399 1.331 . S
C400 C401 1.497 . S
C401 C392 1.395 . S
C401 C396 1.446 . S
C401 C400 1.497 . S
C402 C403 1.582 . S
C402 H459 0.962 . S
C402 H460 0.959 . S
C402 H461 0.958 . S
C403 C402 1.582 . S
C403 O406 1.458 . S
C403 H432 0.980 . S
O404 C349 1.426 . S
O404 C350 1.334 . S
O405 C377 1.412 . S
O405 C378 1.393 . S
O406 C368 1.435 . S
O406 C403 1.458 . S
O407 C359 1.468 . S
O407 C360 1.408 . S
H408 C349 0.980 . S
H409 C348 0.959 1_556 S
H410 C348 0.959 1_545 S
H411 C348 0.960 1_546 S
H412 C351 0.929 . S
H413 C355 0.929 . S
H414 C356 0.959 . S
H415 C356 0.961 . S
H416 C356 0.961 . S
H417 C357 0.960 . S
H418 C357 0.960 . S
H419 C357 0.961 . S
H420 C359 0.980 . S
H421 C358 0.961 . S
H422 C358 0.960 . S
H423 C358 0.959 . S
H424 C361 0.930 . S
H425 C365 0.931 . S
H426 C366 0.959 . S
H427 C366 0.961 . S
H428 C366 0.959 . S
H429 C367 0.960 . S
H430 C367 0.960 . S
H431 C367 0.960 . S
H432 C403 0.980 . S
H433 C369 0.930 . S
H434 C373 0.930 . S
H435 C374 0.961 . S
H436 C374 0.960 . S
H437 C374 0.958 . S
H438 C375 0.961 . S
H439 C375 0.960 . S
H440 C375 0.960 . S
H441 C377 0.980 . S
H442 C376 0.961 . S
H443 C376 0.961 . S
H444 C376 0.959 . S
H445 C379 0.932 . S
H446 C383 0.929 . S
H447 C384 0.961 . S
H448 C384 0.959 . S
H449 C384 0.959 . S
H450 C385 0.960 . S
H451 C385 0.962 . S
H452 C385 0.961 . S
H453 C387 0.929 . S
H454 C390 0.930 . S
H455 C391 0.929 . S
H456 C394 0.930 . S
H457 C397 0.929 . S
H458 C398 0.930 . S
H459 C402 0.962 . S
H460 C402 0.959 . S
H461 C402 0.958 . S
C462 C463 1.560 . S
C462 H523 0.959 1_554 S
C462 H524 0.959 . S
C462 H525 0.960 1_554 S
C463 C462 1.560 . S
C463 O518 1.426 . S
C463 H522 0.980 . S
C464 C465 1.407 . S
C464 C469 1.418 . S
C464 O518 1.334 . S
C465 C464 1.407 . S
C465 C466 1.360 . S
C465 H526 0.929 . S
C466 C465 1.360 . S
C466 C467 1.401 . S
C466 C470 1.527 . S
C467 C466 1.401 . S
C467 C468 1.405 . S
C467 C500 1.587 . S
C468 C467 1.405 . S
C468 C469 1.332 . S
C468 C471 1.496 . S
C469 C464 1.418 . S
C469 C468 1.332 . S
C469 H527 0.929 . S
C470 C466 1.527 . S
C470 H528 0.959 . S
C470 H529 0.961 . S
C470 H530 0.961 . S
C471 C468 1.496 . S
C471 H531 0.960 . S
C471 H532 0.960 . S
C471 H533 0.961 . S
C472 C473 1.517 1_655 S
C472 H535 0.938 1_554 S
C472 H536 0.963 . S
C472 H537 0.959 . S
C473 C472 1.517 1_455 S
C473 O521 1.468 . S
C473 H534 0.980 . S
C474 C475 1.349 . S
C474 C479 1.367 . S
C474 O521 1.408 . S
C475 C474 1.349 . S
C475 C476 1.407 . S
C475 H538 0.930 . S
C476 C475 1.407 . S
C476 C477 1.449 . S
C476 C480 1.535 . S
C477 C476 1.449 . S
C477 C478 1.384 . S
C477 C502 1.553 . S
C478 C477 1.384 . S
C478 C479 1.364 . S
C478 C481 1.450 . S
C479 C474 1.367 . S
C479 C478 1.364 . S
C479 H539 0.931 . S
C480 C476 1.535 . S
C480 H540 0.959 . S
C480 H541 0.961 . S
C480 H542 0.959 . S
C481 C478 1.450 . S
C481 H543 0.960 . S
C481 H544 0.960 . S
C481 H545 0.960 . S
C482 C483 1.309 . S
C482 C487 1.304 . S
C482 O520 1.435 . S
C483 C482 1.309 . S
C483 C484 1.476 . S
C483 H547 0.930 . S
C484 C483 1.476 . S
C484 C485 1.400 . S
C484 C488 1.567 . S
C485 C484 1.400 . S
C485 C486 1.373 . S
C485 C507 1.432 . S
C486 C485 1.373 . S
C486 C487 1.339 . S
C486 C489 1.530 . S
C487 C482 1.304 . S
C487 C486 1.339 . S
C487 H548 0.930 . S
C488 C484 1.567 . S
C488 H549 0.961 . S
C488 H550 0.960 . S
C488 H551 0.958 . S
C489 C486 1.530 . S
C489 H552 0.961 . S
C489 H553 0.960 . S
C489 H554 0.960 . S
C490 C491 1.530 . S
C490 H556 0.961 1_565 S
C490 H557 0.961 . S
C490 H558 0.959 . S
C491 C490 1.530 . S
C491 O519 1.412 . S
C491 H555 0.980 . S
C492 C493 1.288 . S
C492 C497 1.377 . S
C492 O519 1.393 . S
C493 C492 1.288 . S
C493 C494 1.369 . S
C493 H559 0.932 . S
C494 C493 1.369 . S
C494 C495 1.398 . S
C494 C498 1.527 . S
C495 C494 1.398 . S
C495 C496 1.380 . S
C495 C509 1.497 . S
C496 C495 1.380 . S
C496 C497 1.383 . S
C496 C499 1.603 . S
C497 C492 1.377 . S
C497 C496 1.383 . S
C497 H560 0.929 . S
C498 C494 1.527 . S
C498 H561 0.961 . S
C498 H562 0.959 . S
C498 H563 0.959 . S
C499 C496 1.603 . S
C499 H564 0.960 . S
C499 H565 0.962 . S
C499 H566 0.961 . S
C500 C467 1.587 . S
C500 C501 1.360 . S
C500 C513 1.412 . S
C501 C500 1.360 . S
C501 C502 1.365 . S
C501 H567 0.929 . S
C502 C477 1.553 . S
C502 C501 1.365 . S
C502 C503 1.404 . S
C503 C502 1.404 . S
C503 C504 1.395 . S
C503 C514 1.451 . S
C504 C503 1.395 . S
C504 C505 1.322 . S
C504 H568 0.930 . S
C505 C504 1.322 . S
C505 C506 1.459 . S
C505 H569 0.929 . S
C506 C505 1.459 . S
C506 C507 1.445 . S
C506 C515 1.395 . S
C507 C485 1.432 . S
C507 C506 1.445 . S
C507 C508 1.370 . S
C508 C507 1.370 . S
C508 C509 1.438 . S
C508 H570 0.930 . S
C509 C495 1.497 . S
C509 C508 1.438 . S
C509 C510 1.360 . S
C510 C509 1.360 . S
C510 C511 1.401 . S
C510 C515 1.446 . S
C511 C510 1.401 . S
C511 C512 1.347 . S
C511 H571 0.929 . S
C512 C511 1.347 . S
C512 C513 1.455 . S
C512 H572 0.930 . S
C513 C500 1.412 . S
C513 C512 1.455 . S
C513 C514 1.331 . S
C514 C503 1.451 . S
C514 C513 1.331 . S
C514 C515 1.497 . S
C515 C506 1.395 . S
C515 C510 1.446 . S
C515 C514 1.497 . S
C516 C517 1.582 1_655 S
C516 H573 0.962 . S
C516 H574 0.959 . S
C516 H575 0.958 . S
C517 C516 1.582 1_455 S
C517 O520 1.458 . S
C517 H546 0.980 . S
O518 C463 1.426 . S
O518 C464 1.334 . S
O519 C491 1.412 . S
O519 C492 1.393 . S
O520 C482 1.435 . S
O520 C517 1.458 . S
O521 C473 1.468 . S
O521 C474 1.408 . S
H522 C463 0.980 . S
H523 C462 0.959 1_556 S
H524 C462 0.959 . S
H525 C462 0.960 1_556 S
H526 C465 0.929 . S
H527 C469 0.929 . S
H528 C470 0.959 . S
H529 C470 0.961 . S
H530 C470 0.961 . S
H531 C471 0.960 . S
H532 C471 0.960 . S
H533 C471 0.961 . S
H534 C473 0.980 . S
H535 C472 0.938 1_556 S
H536 C472 0.963 . S
H537 C472 0.959 . S
H538 C475 0.930 . S
H539 C479 0.931 . S
H540 C480 0.959 . S
H541 C480 0.961 . S
H542 C480 0.959 . S
H543 C481 0.960 . S
H544 C481 0.960 . S
H545 C481 0.960 . S
H546 C517 0.980 . S
H547 C483 0.930 . S
H548 C487 0.930 . S
H549 C488 0.961 . S
H550 C488 0.960 . S
H551 C488 0.958 . S
H552 C489 0.961 . S
H553 C489 0.960 . S
H554 C489 0.960 . S
H555 C491 0.980 . S
H556 C490 0.961 1_545 S
H557 C490 0.961 . S
H558 C490 0.959 . S
H559 C493 0.932 . S
H560 C497 0.929 . S
H561 C498 0.961 . S
H562 C498 0.959 . S
H563 C498 0.959 . S
H564 C499 0.960 . S
H565 C499 0.962 . S
H566 C499 0.961 . S
H567 C501 0.929 . S
H568 C504 0.930 . S
H569 C505 0.929 . S
H570 C508 0.930 . S
H571 C511 0.929 . S
H572 C512 0.930 . S
H573 C516 0.962 . S
H574 C516 0.959 . S
H575 C516 0.958 . S
C576 C577 1.552 1_554 S
C576 H637 0.959 . S
C576 H638 0.959 . S
C576 H639 0.960 . S
C577 C576 1.552 1_556 S
C577 O632 1.436 . S
C577 H636 0.974 1_556 S
C578 C579 1.407 . S
C578 C583 1.418 . S
C578 O632 1.334 . S
C579 C578 1.407 . S
C579 C580 1.360 . S
C579 H640 0.929 . S
C580 C579 1.360 . S
C580 C581 1.401 . S
C580 C584 1.527 . S
C581 C580 1.401 . S
C581 C582 1.405 . S
C581 C614 1.587 . S
C582 C581 1.405 . S
C582 C583 1.332 . S
C582 C585 1.496 . S
C583 C578 1.418 . S
C583 C582 1.332 . S
C583 H641 0.929 . S
C584 C580 1.527 . S
C584 H642 0.959 . S
C584 H643 0.961 . S
C584 H644 0.961 . S
C585 C582 1.496 . S
C585 H645 0.960 . S
C585 H646 0.960 . S
C585 H647 0.961 . S
C586 C587 1.517 1_554 S
C586 H649 0.961 . S
C586 H650 0.960 . S
C586 H651 0.959 1_554 S
C587 C586 1.517 1_556 S
C587 O635 1.468 . S
C587 H648 0.980 1_556 S
C588 C589 1.349 . S
C588 C593 1.367 . S
C588 O635 1.408 . S
C589 C588 1.349 . S
C589 C590 1.407 . S
C589 H652 0.930 . S
C590 C589 1.407 . S
C590 C591 1.449 . S
C590 C594 1.535 . S
C591 C590 1.449 . S
C591 C592 1.384 . S
C591 C616 1.553 . S
C592 C591 1.384 . S
C592 C593 1.364 . S
C592 C595 1.450 . S
C593 C588 1.367 . S
C593 C592 1.364 . S
C593 H653 0.931 . S
C594 C590 1.535 . S
C594 H654 0.959 . S
C594 H655 0.961 . S
C594 H656 0.959 . S
C595 C592 1.450 . S
C595 H657 0.960 . S
C595 H658 0.960 . S
C595 H659 0.960 . S
C596 C597 1.309 . S
C596 C601 1.304 . S
C596 O634 1.435 . S
C597 C596 1.309 . S
C597 C598 1.476 . S
C597 H661 0.930 . S
C598 C597 1.476 . S
C598 C599 1.400 . S
C598 C602 1.567 . S
C599 C598 1.400 . S
C599 C600 1.373 . S
C599 C621 1.432 . S
C600 C599 1.373 . S
C600 C601 1.339 . S
C600 C603 1.530 . S
C601 C596 1.304 . S
C601 C600 1.339 . S
C601 H662 0.930 . S
C602 C598 1.567 . S
C602 H663 0.961 . S
C602 H664 0.960 . S
C602 H665 0.958 . S
C603 C600 1.530 . S
C603 H666 0.961 . S
C603 H667 0.960 . S
C603 H668 0.960 . S
C604 C605 1.530 . S
C604 H670 0.961 1_545 S
C604 H671 0.961 . S
C604 H672 0.959 . S
C605 C604 1.530 . S
C605 O633 1.412 . S
C605 H669 0.980 . S
C606 C607 1.288 . S
C606 C611 1.377 . S
C606 O633 1.393 . S
C607 C606 1.288 . S
C607 C608 1.369 . S
C607 H673 0.932 . S
C608 C607 1.369 . S
C608 C609 1.398 . S
C608 C612 1.527 . S
C609 C608 1.398 . S
C609 C610 1.380 . S
C609 C623 1.497 . S
C610 C609 1.380 . S
C610 C611 1.383 . S
C610 C613 1.603 . S
C611 C606 1.377 . S
C611 C610 1.383 . S
C611 H674 0.929 . S
C612 C608 1.527 . S
C612 H675 0.961 . S
C612 H676 0.959 . S
C612 H677 0.959 . S
C613 C610 1.603 . S
C613 H678 0.960 . S
C613 H679 0.962 . S
C613 H680 0.961 . S
C614 C581 1.587 . S
C614 C615 1.360 . S
C614 C627 1.412 . S
C615 C614 1.360 . S
C615 C616 1.365 . S
C615 H681 0.929 . S
C616 C591 1.553 . S
C616 C615 1.365 . S
C616 C617 1.404 . S
C617 C616 1.404 . S
C617 C618 1.395 . S
C617 C628 1.451 . S
C618 C617 1.395 . S
C618 C619 1.322 . S
C618 H682 0.930 . S
C619 C618 1.322 . S
C619 C620 1.459 . S
C619 H683 0.929 . S
C620 C619 1.459 . S
C620 C621 1.445 . S
C620 C629 1.395 . S
C621 C599 1.432 . S
C621 C620 1.445 . S
C621 C622 1.370 . S
C622 C621 1.370 . S
C622 C623 1.438 . S
C622 H684 0.930 . S
C623 C609 1.497 . S
C623 C622 1.438 . S
C623 C624 1.360 . S
C624 C623 1.360 . S
C624 C625 1.401 . S
C624 C629 1.446 . S
C625 C624 1.401 . S
C625 C626 1.347 . S
C625 H685 0.929 . S
C626 C625 1.347 . S
C626 C627 1.455 . S
C626 H686 0.930 . S
C627 C614 1.412 . S
C627 C626 1.455 . S
C627 C628 1.331 . S
C628 C617 1.451 . S
C628 C627 1.331 . S
C628 C629 1.497 . S
C629 C620 1.395 . S
C629 C624 1.446 . S
C629 C628 1.497 . S
C630 C631 1.582 . S
C630 H687 0.962 . S
C630 H688 0.959 . S
C630 H689 0.958 . S
C631 C630 1.582 . S
C631 O634 1.458 . S
C631 H660 0.980 . S
O632 C577 1.436 . S
O632 C578 1.334 . S
O633 C605 1.412 . S
O633 C606 1.393 . S
O634 C596 1.435 . S
O634 C631 1.458 . S
O635 C587 1.468 . S
O635 C588 1.408 . S
H636 C577 0.974 1_554 S
H637 C576 0.959 . S
H638 C576 0.959 . S
H639 C576 0.960 . S
H640 C579 0.929 . S
H641 C583 0.929 . S
H642 C584 0.959 . S
H643 C584 0.961 . S
H644 C584 0.961 . S
H645 C585 0.960 . S
H646 C585 0.960 . S
H647 C585 0.961 . S
H648 C587 0.980 1_554 S
H649 C586 0.961 . S
H650 C586 0.960 . S
H651 C586 0.959 1_556 S
H652 C589 0.930 . S
H653 C593 0.931 . S
H654 C594 0.959 . S
H655 C594 0.961 . S
H656 C594 0.959 . S
H657 C595 0.960 . S
H658 C595 0.960 . S
H659 C595 0.960 . S
H660 C631 0.980 . S
H661 C597 0.930 . S
H662 C601 0.930 . S
H663 C602 0.961 . S
H664 C602 0.960 . S
H665 C602 0.958 . S
H666 C603 0.961 . S
H667 C603 0.960 . S
H668 C603 0.960 . S
H669 C605 0.980 . S
H670 C604 0.961 1_565 S
H671 C604 0.961 . S
H672 C604 0.959 . S
H673 C607 0.932 . S
H674 C611 0.929 . S
H675 C612 0.961 . S
H676 C612 0.959 . S
H677 C612 0.959 . S
H678 C613 0.960 . S
H679 C613 0.962 . S
H680 C613 0.961 . S
H681 C615 0.929 . S
H682 C618 0.930 . S
H683 C619 0.929 . S
H684 C622 0.930 . S
H685 C625 0.929 . S
H686 C626 0.930 . S
H687 C630 0.962 . S
H688 C630 0.959 . S
H689 C630 0.958 . S
C690 C691 1.563 1_564 S
C690 H751 0.959 1_565 S
C690 H752 0.959 . S
C690 H753 0.960 . S
C691 C690 1.563 1_546 S
C691 O746 1.423 . S
C691 H750 0.982 1_556 S
C692 C693 1.407 . S
C692 C697 1.418 . S
C692 O746 1.334 . S
C693 C692 1.407 . S
C693 C694 1.360 . S
C693 H754 0.929 . S
C694 C693 1.360 . S
C694 C695 1.401 . S
C694 C698 1.527 . S
C695 C694 1.401 . S
C695 C696 1.405 . S
C695 C728 1.587 . S
C696 C695 1.405 . S
C696 C697 1.332 . S
C696 C699 1.496 . S
C697 C692 1.418 . S
C697 C696 1.332 . S
C697 H755 0.929 . S
C698 C694 1.527 . S
C698 H756 0.959 . S
C698 H757 0.961 . S
C698 H758 0.961 . S
C699 C696 1.496 . S
C699 H759 0.960 . S
C699 H760 0.960 . S
C699 H761 0.961 . S
C700 C701 1.517 1_554 S
C700 H763 0.961 1_655 S
C700 H764 0.960 . S
C700 H765 0.952 1_654 S
C701 C700 1.517 1_556 S
C701 O749 1.468 . S
C701 H762 0.980 1_556 S
C702 C703 1.349 . S
C702 C707 1.367 . S
C702 O749 1.408 . S
C703 C702 1.349 . S
C703 C704 1.407 . S
C703 H766 0.930 . S
C704 C703 1.407 . S
C704 C705 1.449 . S
C704 C708 1.535 . S
C705 C704 1.449 . S
C705 C706 1.384 . S
C705 C730 1.553 . S
C706 C705 1.384 . S
C706 C707 1.364 . S
C706 C709 1.450 . S
C707 C702 1.367 . S
C707 C706 1.364 . S
C707 H767 0.931 . S
C708 C704 1.535 . S
C708 H768 0.959 . S
C708 H769 0.961 . S
C708 H770 0.959 . S
C709 C706 1.450 . S
C709 H771 0.960 . S
C709 H772 0.960 . S
C709 H773 0.960 . S
C710 C711 1.309 . S
C710 C715 1.304 . S
C710 O748 1.435 . S
C711 C710 1.309 . S
C711 C712 1.476 . S
C711 H775 0.930 . S
C712 C711 1.476 . S
C712 C713 1.400 . S
C712 C716 1.567 . S
C713 C712 1.400 . S
C713 C714 1.373 . S
C713 C735 1.432 . S
C714 C713 1.373 . S
C714 C715 1.339 . S
C714 C717 1.530 . S
C715 C710 1.304 . S
C715 C714 1.339 . S
C715 H776 0.930 . S
C716 C712 1.567 . S
C716 H777 0.961 . S
C716 H778 0.960 . S
C716 H779 0.958 . S
C717 C714 1.530 . S
C717 H780 0.961 . S
C717 H781 0.960 . S
C717 H782 0.960 . S
C718 C719 1.530 1_565 S
C718 H784 0.961 . S
C718 H785 0.961 . S
C718 H786 0.959 . S
C719 C718 1.530 1_545 S
C719 O747 1.412 . S
C719 H783 0.980 . S
C720 C721 1.288 . S
C720 C725 1.377 . S
C720 O747 1.393 . S
C721 C720 1.288 . S
C721 C722 1.369 . S
C721 H787 0.932 . S
C722 C721 1.369 . S
C722 C723 1.398 . S
C722 C726 1.527 . S
C723 C722 1.398 . S
C723 C724 1.380 . S
C723 C737 1.497 . S
C724 C723 1.380 . S
C724 C725 1.383 . S
C724 C727 1.603 . S
C725 C720 1.377 . S
C725 C724 1.383 . S
C725 H788 0.929 . S
C726 C722 1.527 . S
C726 H789 0.961 . S
C726 H790 0.959 . S
C726 H791 0.959 . S
C727 C724 1.603 . S
C727 H792 0.960 . S
C727 H793 0.962 . S
C727 H794 0.961 . S
C728 C695 1.587 . S
C728 C729 1.360 . S
C728 C741 1.412 . S
C729 C728 1.360 . S
C729 C730 1.365 . S
C729 H795 0.929 . S
C730 C705 1.553 . S
C730 C729 1.365 . S
C730 C731 1.404 . S
C731 C730 1.404 . S
C731 C732 1.395 . S
C731 C742 1.451 . S
C732 C731 1.395 . S
C732 C733 1.322 . S
C732 H796 0.930 . S
C733 C732 1.322 . S
C733 C734 1.459 . S
C733 H797 0.929 . S
C734 C733 1.459 . S
C734 C735 1.445 . S
C734 C743 1.395 . S
C735 C713 1.432 . S
C735 C734 1.445 . S
C735 C736 1.370 . S
C736 C735 1.370 . S
C736 C737 1.438 . S
C736 H798 0.930 . S
C737 C723 1.497 . S
C737 C736 1.438 . S
C737 C738 1.360 . S
C738 C737 1.360 . S
C738 C739 1.401 . S
C738 C743 1.446 . S
C739 C738 1.401 . S
C739 C740 1.347 . S
C739 H799 0.929 . S
C740 C739 1.347 . S
C740 C741 1.455 . S
C740 H800 0.930 . S
C741 C728 1.412 . S
C741 C740 1.455 . S
C741 C742 1.331 . S
C742 C731 1.451 . S
C742 C741 1.331 . S
C742 C743 1.497 . S
C743 C734 1.395 . S
C743 C738 1.446 . S
C743 C742 1.497 . S
C744 C745 1.582 . S
C744 H801 0.962 1_655 S
C744 H802 0.959 1_655 S
C744 H803 0.958 . S
C745 C744 1.582 . S
C745 O748 1.458 . S
C745 H774 0.980 . S
O746 C691 1.423 . S
O746 C692 1.334 . S
O747 C719 1.412 . S
O747 C720 1.393 . S
O748 C710 1.435 . S
O748 C745 1.458 . S
O749 C701 1.468 . S
O749 C702 1.408 . S
H750 C691 0.982 1_554 S
H751 C690 0.959 1_545 S
H752 C690 0.959 . S
H753 C690 0.960 . S
H754 C693 0.929 . S
H755 C697 0.929 . S
H756 C698 0.959 . S
H757 C698 0.961 . S
H758 C698 0.961 . S
H759 C699 0.960 . S
H760 C699 0.960 . S
H761 C699 0.961 . S
H762 C701 0.980 1_554 S
H763 C700 0.961 1_455 S
H764 C700 0.960 . S
H765 C700 0.952 1_456 S
H766 C703 0.930 . S
H767 C707 0.931 . S
H768 C708 0.959 . S
H769 C708 0.961 . S
H770 C708 0.959 . S
H771 C709 0.960 . S
H772 C709 0.960 . S
H773 C709 0.960 . S
H774 C745 0.980 . S
H775 C711 0.930 . S
H776 C715 0.930 . S
H777 C716 0.961 . S
H778 C716 0.960 . S
H779 C716 0.958 . S
H780 C717 0.961 . S
H781 C717 0.960 . S
H782 C717 0.960 . S
H783 C719 0.980 . S
H784 C718 0.961 . S
H785 C718 0.961 . S
H786 C718 0.959 . S
H787 C721 0.932 . S
H788 C725 0.929 . S
H789 C726 0.961 . S
H790 C726 0.959 . S
H791 C726 0.959 . S
H792 C727 0.960 . S
H793 C727 0.962 . S
H794 C727 0.961 . S
H795 C729 0.929 . S
H796 C732 0.930 . S
H797 C733 0.929 . S
H798 C736 0.930 . S
H799 C739 0.929 . S
H800 C740 0.930 . S
H801 C744 0.962 1_455 S
H802 C744 0.959 1_455 S
H803 C744 0.958 . S
C804 C805 1.560 . S
C804 H865 0.959 . S
C804 H866 0.959 . S
C804 H867 0.960 . S
C805 C804 1.560 . S
C805 O860 1.426 1_554 S
C805 H864 0.980 . S
C806 C807 1.407 . S
C806 C811 1.418 . S
C806 O860 1.334 . S
C807 C806 1.407 . S
C807 C808 1.360 . S
C807 H868 0.929 . S
C808 C807 1.360 . S
C808 C809 1.401 . S
C808 C812 1.527 . S
C809 C808 1.401 . S
C809 C810 1.405 . S
C809 C842 1.587 . S
C810 C809 1.405 . S
C810 C811 1.332 . S
C810 C813 1.496 . S
C811 C806 1.418 . S
C811 C810 1.332 . S
C811 H869 0.929 . S
C812 C808 1.527 . S
C812 H870 0.959 . S
C812 H871 0.961 . S
C812 H872 0.961 . S
C813 C810 1.496 . S
C813 H873 0.960 . S
C813 H874 0.960 . S
C813 H875 0.961 . S
C814 C815 1.517 1_454 S
C814 H877 0.961 . S
C814 H878 0.960 . S
C814 H879 0.959 1_554 S
C815 C814 1.517 1_656 S
C815 O863 1.468 . S
C815 H876 0.980 1_556 S
C816 C817 1.349 . S
C816 C821 1.367 . S
C816 O863 1.408 . S
C817 C816 1.349 . S
C817 C818 1.407 . S
C817 H880 0.930 . S
C818 C817 1.407 . S
C818 C819 1.449 . S
C818 C822 1.535 . S
C819 C818 1.449 . S
C819 C820 1.384 . S
C819 C844 1.553 . S
C820 C819 1.384 . S
C820 C821 1.364 . S
C820 C823 1.450 . S
C821 C816 1.367 . S
C821 C820 1.364 . S
C821 H881 0.931 . S
C822 C818 1.535 . S
C822 H882 0.959 . S
C822 H883 0.961 . S
C822 H884 0.959 . S
C823 C820 1.450 . S
C823 H885 0.960 . S
C823 H886 0.960 . S
C823 H887 0.960 . S
C824 C825 1.309 . S
C824 C829 1.304 . S
C824 O862 1.435 . S
C825 C824 1.309 . S
C825 C826 1.476 . S
C825 H889 0.930 . S
C826 C825 1.476 . S
C826 C827 1.400 . S
C826 C830 1.567 . S
C827 C826 1.400 . S
C827 C828 1.373 . S
C827 C849 1.432 . S
C828 C827 1.373 . S
C828 C829 1.339 . S
C828 C831 1.530 . S
C829 C824 1.304 . S
C829 C828 1.339 . S
C829 H890 0.930 . S
C830 C826 1.567 . S
C830 H891 0.961 . S
C830 H892 0.960 . S
C830 H893 0.958 . S
C831 C828 1.530 . S
C831 H894 0.961 . S
C831 H895 0.960 . S
C831 H896 0.960 . S
C832 C833 1.530 . S
C832 H898 0.961 . S
C832 H899 0.961 . S
C832 H900 0.959 . S
C833 C832 1.530 . S
C833 O861 1.412 . S
C833 H897 0.980 . S
C834 C835 1.288 . S
C834 C839 1.377 . S
C834 O861 1.393 . S
C835 C834 1.288 . S
C835 C836 1.369 . S
C835 H901 0.932 . S
C836 C835 1.369 . S
C836 C837 1.398 . S
C836 C840 1.527 . S
C837 C836 1.398 . S
C837 C838 1.380 . S
C837 C851 1.497 . S
C838 C837 1.380 . S
C838 C839 1.383 . S
C838 C841 1.603 . S
C839 C834 1.377 . S
C839 C838 1.383 . S
C839 H902 0.929 . S
C840 C836 1.527 . S
C840 H903 0.961 . S
C840 H904 0.959 . S
C840 H905 0.959 . S
C841 C838 1.603 . S
C841 H906 0.960 . S
C841 H907 0.962 . S
C841 H908 0.961 . S
C842 C809 1.587 . S
C842 C843 1.360 . S
C842 C855 1.412 . S
C843 C842 1.360 . S
C843 C844 1.365 . S
C843 H909 0.929 . S
C844 C819 1.553 . S
C844 C843 1.365 . S
C844 C845 1.404 . S
C845 C844 1.404 . S
C845 C846 1.395 . S
C845 C856 1.451 . S
C846 C845 1.395 . S
C846 C847 1.322 . S
C846 H910 0.930 . S
C847 C846 1.322 . S
C847 C848 1.459 . S
C847 H911 0.929 . S
C848 C847 1.459 . S
C848 C849 1.445 . S
C848 C857 1.395 . S
C849 C827 1.432 . S
C849 C848 1.445 . S
C849 C850 1.370 . S
C850 C849 1.370 . S
C850 C851 1.438 . S
C850 H912 0.930 . S
C851 C837 1.497 . S
C851 C850 1.438 . S
C851 C852 1.360 . S
C852 C851 1.360 . S
C852 C853 1.401 . S
C852 C857 1.446 . S
C853 C852 1.401 . S
C853 C854 1.347 . S
C853 H913 0.929 . S
C854 C853 1.347 . S
C854 C855 1.455 . S
C854 H914 0.930 . S
C855 C842 1.412 . S
C855 C854 1.455 . S
C855 C856 1.331 . S
C856 C845 1.451 . S
C856 C855 1.331 . S
C856 C857 1.497 . S
C857 C848 1.395 . S
C857 C852 1.446 . S
C857 C856 1.497 . S
C858 C859 1.582 1_455 S
C858 H915 0.962 . S
C858 H916 0.959 . S
C858 H917 0.958 . S
C859 C858 1.582 1_655 S
C859 O862 1.458 . S
C859 H888 0.980 . S
O860 C805 1.426 1_556 S
O860 C806 1.334 . S
O861 C833 1.412 . S
O861 C834 1.393 . S
O862 C824 1.435 . S
O862 C859 1.458 . S
O863 C815 1.468 . S
O863 C816 1.408 . S
H864 C805 0.980 . S
H865 C804 0.959 . S
H866 C804 0.959 . S
H867 C804 0.960 . S
H868 C807 0.929 . S
H869 C811 0.929 . S
H870 C812 0.959 . S
H871 C812 0.961 . S
H872 C812 0.961 . S
H873 C813 0.960 . S
H874 C813 0.960 . S
H875 C813 0.961 . S
H876 C815 0.980 1_554 S
H877 C814 0.961 . S
H878 C814 0.960 . S
H879 C814 0.959 1_556 S
H880 C817 0.930 . S
H881 C821 0.931 . S
H882 C822 0.959 . S
H883 C822 0.961 . S
H884 C822 0.959 . S
H885 C823 0.960 . S
H886 C823 0.960 . S
H887 C823 0.960 . S
H888 C859 0.980 . S
H889 C825 0.930 . S
H890 C829 0.930 . S
H891 C830 0.961 . S
H892 C830 0.960 . S
H893 C830 0.958 . S
H894 C831 0.961 . S
H895 C831 0.960 . S
H896 C831 0.960 . S
H897 C833 0.980 . S
H898 C832 0.961 . S
H899 C832 0.961 . S
H900 C832 0.959 . S
H901 C835 0.932 . S
H902 C839 0.929 . S
H903 C840 0.961 . S
H904 C840 0.959 . S
H905 C840 0.959 . S
H906 C841 0.960 . S
H907 C841 0.962 . S
H908 C841 0.961 . S
H909 C843 0.929 . S
H910 C846 0.930 . S
H911 C847 0.929 . S
H912 C850 0.930 . S
H913 C853 0.929 . S
H914 C854 0.930 . S
H915 C858 0.962 . S
H916 C858 0.959 . S
H917 C858 0.958 . S
C918 C919 1.560 . S
C918 H979 0.959 . S
C918 H980 0.959 . S
C918 H981 0.960 . S
C919 C918 1.560 . S
C919 O974 1.426 . S
C919 H978 0.980 . S
C920 C921 1.407 . S
C920 C925 1.418 . S
C920 O974 1.334 . S
C921 C920 1.407 . S
C921 C922 1.360 . S
C921 H982 0.929 . S
C922 C921 1.360 . S
C922 C923 1.401 . S
C922 C926 1.527 . S
C923 C922 1.401 . S
C923 C924 1.405 . S
C923 C956 1.587 . S
C924 C923 1.405 . S
C924 C925 1.332 . S
C924 C927 1.496 . S
C925 C920 1.418 . S
C925 C924 1.332 . S
C925 H983 0.929 . S
C926 C922 1.527 . S
C926 H984 0.959 . S
C926 H985 0.961 . S
C926 H986 0.961 . S
C927 C924 1.496 . S
C927 H987 0.960 . S
C927 H988 0.960 . S
C927 H989 0.961 . S
C928 C929 1.517 . S
C928 H991 0.961 . S
C928 H992 0.960 . S
C928 H993 0.959 . S
C929 C928 1.517 . S
C929 O977 1.468 . S
C929 H990 0.980 . S
C930 C931 1.349 . S
C930 C935 1.367 . S
C930 O977 1.408 . S
C931 C930 1.349 . S
C931 C932 1.407 . S
C931 H994 0.930 . S
C932 C931 1.407 . S
C932 C933 1.449 . S
C932 C936 1.535 . S
C933 C932 1.449 . S
C933 C934 1.384 . S
C933 C958 1.553 . S
C934 C933 1.384 . S
C934 C935 1.364 . S
C934 C937 1.450 . S
C935 C930 1.367 . S
C935 C934 1.364 . S
C935 H995 0.931 . S
C936 C932 1.535 . S
C936 H996 0.959 . S
C936 H997 0.961 . S
C936 H998 0.959 . S
C937 C934 1.450 . S
C937 H999 0.960 . S
C937 H1000 0.960 . S
C937 H1001 0.960 . S
C938 C939 1.309 . S
C938 C943 1.304 . S
C938 O976 1.435 . S
C939 C938 1.309 . S
C939 C940 1.476 . S
C939 H1003 0.930 . S
C940 C939 1.476 . S
C940 C941 1.400 . S
C940 C944 1.567 . S
C941 C940 1.400 . S
C941 C942 1.373 . S
C941 C963 1.432 . S
C942 C941 1.373 . S
C942 C943 1.339 . S
C942 C945 1.530 . S
C943 C938 1.304 . S
C943 C942 1.339 . S
C943 H1004 0.930 . S
C944 C940 1.567 . S
C944 H1005 0.961 . S
C944 H1006 0.960 . S
C944 H1007 0.958 . S
C945 C942 1.530 . S
C945 H1008 0.961 . S
C945 H1009 0.960 . S
C945 H1010 0.960 . S
C946 C947 1.530 . S
C946 H1012 0.961 . S
C946 H1013 0.961 . S
C946 H1014 0.959 . S
C947 C946 1.530 . S
C947 O975 1.412 . S
C947 H1011 0.980 . S
C948 C949 1.288 . S
C948 C953 1.377 . S
C948 O975 1.393 . S
C949 C948 1.288 . S
C949 C950 1.369 . S
C949 H1015 0.932 . S
C950 C949 1.369 . S
C950 C951 1.398 . S
C950 C954 1.527 . S
C951 C950 1.398 . S
C951 C952 1.380 . S
C951 C965 1.497 . S
C952 C951 1.380 . S
C952 C953 1.383 . S
C952 C955 1.603 . S
C953 C948 1.377 . S
C953 C952 1.383 . S
C953 H1016 0.929 . S
C954 C950 1.527 . S
C954 H1017 0.961 . S
C954 H1018 0.959 . S
C954 H1019 0.959 . S
C955 C952 1.603 . S
C955 H1020 0.960 . S
C955 H1021 0.962 . S
C955 H1022 0.961 . S
C956 C923 1.587 . S
C956 C957 1.360 . S
C956 C969 1.412 . S
C957 C956 1.360 . S
C957 C958 1.365 . S
C957 H1023 0.929 . S
C958 C933 1.553 . S
C958 C957 1.365 . S
C958 C959 1.404 . S
C959 C958 1.404 . S
C959 C960 1.395 . S
C959 C970 1.451 . S
C960 C959 1.395 . S
C960 C961 1.322 . S
C960 H1024 0.930 . S
C961 C960 1.322 . S
C961 C962 1.459 . S
C961 H1025 0.929 . S
C962 C961 1.459 . S
C962 C963 1.445 . S
C962 C971 1.395 . S
C963 C941 1.432 . S
C963 C962 1.445 . S
C963 C964 1.370 . S
C964 C963 1.370 . S
C964 C965 1.438 . S
C964 H1026 0.930 . S
C965 C951 1.497 . S
C965 C964 1.438 . S
C965 C966 1.360 . S
C966 C965 1.360 . S
C966 C967 1.401 . S
C966 C971 1.446 . S
C967 C966 1.401 . S
C967 C968 1.347 . S
C967 H1027 0.929 . S
C968 C967 1.347 . S
C968 C969 1.455 . S
C968 H1028 0.930 . S
C969 C956 1.412 . S
C969 C968 1.455 . S
C969 C970 1.331 . S
C970 C959 1.451 . S
C970 C969 1.331 . S
C970 C971 1.497 . S
C971 C962 1.395 . S
C971 C966 1.446 . S
C971 C970 1.497 . S
C972 C973 1.582 . S
C972 H1029 0.962 . S
C972 H1030 0.959 . S
C972 H1031 0.958 . S
C973 C972 1.582 . S
C973 O976 1.458 . S
C973 H1002 0.980 . S
O974 C919 1.426 . S
O974 C920 1.334 . S
O975 C947 1.412 . S
O975 C948 1.393 . S
O976 C938 1.435 . S
O976 C973 1.458 . S
O977 C929 1.468 . S
O977 C930 1.408 . S
H978 C919 0.980 . S
H979 C918 0.959 . S
H980 C918 0.959 . S
H981 C918 0.960 . S
H982 C921 0.929 . S
H983 C925 0.929 . S
H984 C926 0.959 . S
H985 C926 0.961 . S
H986 C926 0.961 . S
H987 C927 0.960 . S
H988 C927 0.960 . S
H989 C927 0.961 . S
H990 C929 0.980 . S
H991 C928 0.961 . S
H992 C928 0.960 . S
H993 C928 0.959 . S
H994 C931 0.930 . S
H995 C935 0.931 . S
H996 C936 0.959 . S
H997 C936 0.961 . S
H998 C936 0.959 . S
H999 C937 0.960 . S
H1000 C937 0.960 . S
H1001 C937 0.960 . S
H1002 C973 0.980 . S
H1003 C939 0.930 . S
H1004 C943 0.930 . S
H1005 C944 0.961 . S
H1006 C944 0.960 . S
H1007 C944 0.958 . S
H1008 C945 0.961 . S
H1009 C945 0.960 . S
H1010 C945 0.960 . S
H1011 C947 0.980 . S
H1012 C946 0.961 . S
H1013 C946 0.961 . S
H1014 C946 0.959 . S
H1015 C949 0.932 . S
H1016 C953 0.929 . S
H1017 C954 0.961 . S
H1018 C954 0.959 . S
H1019 C954 0.959 . S
H1020 C955 0.960 . S
H1021 C955 0.962 . S
H1022 C955 0.961 . S
H1023 C957 0.929 . S
H1024 C960 0.930 . S
H1025 C961 0.929 . S
H1026 C964 0.930 . S
H1027 C967 0.929 . S
H1028 C968 0.930 . S
H1029 C972 0.962 . S
H1030 C972 0.959 . S
H1031 C972 0.958 . S
C1032 C1033 1.560 . S
C1032 H1093 0.959 . S
C1032 H1094 0.959 . S
C1032 H1095 0.960 . S
C1033 C1032 1.560 . S
C1033 O1088 1.426 . S
C1033 H1092 0.980 . S
C1034 C1035 1.407 . S
C1034 C1039 1.418 . S
C1034 O1088 1.334 . S
C1035 C1034 1.407 . S
C1035 C1036 1.360 . S
C1035 H1096 0.929 . S
C1036 C1035 1.360 . S
C1036 C1037 1.401 . S
C1036 C1040 1.527 . S
C1037 C1036 1.401 . S
C1037 C1038 1.405 . S
C1037 C1070 1.587 . S
C1038 C1037 1.405 . S
C1038 C1039 1.332 . S
C1038 C1041 1.496 . S
C1039 C1034 1.418 . S
C1039 C1038 1.332 . S
C1039 H1097 0.929 . S
C1040 C1036 1.527 . S
C1040 H1098 0.959 . S
C1040 H1099 0.961 . S
C1040 H1100 0.961 . S
C1041 C1038 1.496 . S
C1041 H1101 0.960 . S
C1041 H1102 0.960 . S
C1041 H1103 0.961 . S
C1042 C1043 1.517 . S
C1042 H1105 0.961 . S
C1042 H1106 0.960 . S
C1042 H1107 0.959 . S
C1043 C1042 1.517 . S
C1043 O1091 1.468 . S
C1043 H1104 0.980 . S
C1044 C1045 1.349 . S
C1044 C1049 1.367 . S
C1044 O1091 1.408 . S
C1045 C1044 1.349 . S
C1045 C1046 1.407 . S
C1045 H1108 0.930 . S
C1046 C1045 1.407 . S
C1046 C1047 1.449 . S
C1046 C1050 1.535 . S
C1047 C1046 1.449 . S
C1047 C1048 1.384 . S
C1047 C1072 1.553 . S
C1048 C1047 1.384 . S
C1048 C1049 1.364 . S
C1048 C1051 1.450 . S
C1049 C1044 1.367 . S
C1049 C1048 1.364 . S
C1049 H1109 0.931 . S
C1050 C1046 1.535 . S
C1050 H1110 0.959 . S
C1050 H1111 0.961 . S
C1050 H1112 0.959 . S
C1051 C1048 1.450 . S
C1051 H1113 0.960 . S
C1051 H1114 0.960 . S
C1051 H1115 0.960 . S
C1052 C1053 1.309 . S
C1052 C1057 1.304 . S
C1052 O1090 1.435 . S
C1053 C1052 1.309 . S
C1053 C1054 1.476 . S
C1053 H1117 0.930 . S
C1054 C1053 1.476 . S
C1054 C1055 1.400 . S
C1054 C1058 1.567 . S
C1055 C1054 1.400 . S
C1055 C1056 1.373 . S
C1055 C1077 1.432 . S
C1056 C1055 1.373 . S
C1056 C1057 1.339 . S
C1056 C1059 1.530 . S
C1057 C1052 1.304 . S
C1057 C1056 1.339 . S
C1057 H1118 0.930 . S
C1058 C1054 1.567 . S
C1058 H1119 0.961 . S
C1058 H1120 0.960 . S
C1058 H1121 0.958 . S
C1059 C1056 1.530 . S
C1059 H1122 0.961 . S
C1059 H1123 0.960 . S
C1059 H1124 0.960 . S
C1060 C1061 1.530 . S
C1060 H1126 0.961 . S
C1060 H1127 0.961 . S
C1060 H1128 0.959 . S
C1061 C1060 1.530 . S
C1061 O1089 1.412 . S
C1061 H1125 0.980 . S
C1062 C1063 1.288 . S
C1062 C1067 1.377 . S
C1062 O1089 1.393 . S
C1063 C1062 1.288 . S
C1063 C1064 1.369 . S
C1063 H1129 0.932 . S
C1064 C1063 1.369 . S
C1064 C1065 1.398 . S
C1064 C1068 1.527 . S
C1065 C1064 1.398 . S
C1065 C1066 1.380 . S
C1065 C1079 1.497 . S
C1066 C1065 1.380 . S
C1066 C1067 1.383 . S
C1066 C1069 1.603 . S
C1067 C1062 1.377 . S
C1067 C1066 1.383 . S
C1067 H1130 0.929 . S
C1068 C1064 1.527 . S
C1068 H1131 0.961 . S
C1068 H1132 0.959 . S
C1068 H1133 0.959 . S
C1069 C1066 1.603 . S
C1069 H1134 0.960 . S
C1069 H1135 0.962 . S
C1069 H1136 0.961 . S
C1070 C1037 1.587 . S
C1070 C1071 1.360 . S
C1070 C1083 1.412 . S
C1071 C1070 1.360 . S
C1071 C1072 1.365 . S
C1071 H1137 0.929 . S
C1072 C1047 1.553 . S
C1072 C1071 1.365 . S
C1072 C1073 1.404 . S
C1073 C1072 1.404 . S
C1073 C1074 1.395 . S
C1073 C1084 1.451 . S
C1074 C1073 1.395 . S
C1074 C1075 1.322 . S
C1074 H1138 0.930 . S
C1075 C1074 1.322 . S
C1075 C1076 1.459 . S
C1075 H1139 0.929 . S
C1076 C1075 1.459 . S
C1076 C1077 1.445 . S
C1076 C1085 1.395 . S
C1077 C1055 1.432 . S
C1077 C1076 1.445 . S
C1077 C1078 1.370 . S
C1078 C1077 1.370 . S
C1078 C1079 1.438 . S
C1078 H1140 0.930 . S
C1079 C1065 1.497 . S
C1079 C1078 1.438 . S
C1079 C1080 1.360 . S
C1080 C1079 1.360 . S
C1080 C1081 1.401 . S
C1080 C1085 1.446 . S
C1081 C1080 1.401 . S
C1081 C1082 1.347 . S
C1081 H1141 0.929 . S
C1082 C1081 1.347 . S
C1082 C1083 1.455 . S
C1082 H1142 0.930 . S
C1083 C1070 1.412 . S
C1083 C1082 1.455 . S
C1083 C1084 1.331 . S
C1084 C1073 1.451 . S
C1084 C1083 1.331 . S
C1084 C1085 1.497 . S
C1085 C1076 1.395 . S
C1085 C1080 1.446 . S
C1085 C1084 1.497 . S
C1086 C1087 1.582 . S
C1086 H1143 0.962 . S
C1086 H1144 0.959 . S
C1086 H1145 0.958 . S
C1087 C1086 1.582 . S
C1087 O1090 1.458 . S
C1087 H1116 0.980 . S
O1088 C1033 1.426 . S
O1088 C1034 1.334 . S
O1089 C1061 1.412 . S
O1089 C1062 1.393 . S
O1090 C1052 1.435 . S
O1090 C1087 1.458 . S
O1091 C1043 1.468 . S
O1091 C1044 1.408 . S
H1092 C1033 0.980 . S
H1093 C1032 0.959 . S
H1094 C1032 0.959 . S
H1095 C1032 0.960 . S
H1096 C1035 0.929 . S
H1097 C1039 0.929 . S
H1098 C1040 0.959 . S
H1099 C1040 0.961 . S
H1100 C1040 0.961 . S
H1101 C1041 0.960 . S
H1102 C1041 0.960 . S
H1103 C1041 0.961 . S
H1104 C1043 0.980 . S
H1105 C1042 0.961 . S
H1106 C1042 0.960 . S
H1107 C1042 0.959 . S
H1108 C1045 0.930 . S
H1109 C1049 0.931 . S
H1110 C1050 0.959 . S
H1111 C1050 0.961 . S
H1112 C1050 0.959 . S
H1113 C1051 0.960 . S
H1114 C1051 0.960 . S
H1115 C1051 0.960 . S
H1116 C1087 0.980 . S
H1117 C1053 0.930 . S
H1118 C1057 0.930 . S
H1119 C1058 0.961 . S
H1120 C1058 0.960 . S
H1121 C1058 0.958 . S
H1122 C1059 0.961 . S
H1123 C1059 0.960 . S
H1124 C1059 0.960 . S
H1125 C1061 0.980 . S
H1126 C1060 0.961 . S
H1127 C1060 0.961 . S
H1128 C1060 0.959 . S
H1129 C1063 0.932 . S
H1130 C1067 0.929 . S
H1131 C1068 0.961 . S
H1132 C1068 0.959 . S
H1133 C1068 0.959 . S
H1134 C1069 0.960 . S
H1135 C1069 0.962 . S
H1136 C1069 0.961 . S
H1137 C1071 0.929 . S
H1138 C1074 0.930 . S
H1139 C1075 0.929 . S
H1140 C1078 0.930 . S
H1141 C1081 0.929 . S
H1142 C1082 0.930 . S
H1143 C1086 0.962 . S
H1144 C1086 0.959 . S
H1145 C1086 0.958 . S
C1146 C1147 1.560 . S
C1146 H1207 0.959 . S
C1146 H1208 0.959 . S
C1146 H1209 0.960 . S
C1147 C1146 1.560 . S
C1147 O1202 1.426 . S
C1147 H1206 0.980 . S
C1148 C1149 1.407 . S
C1148 C1153 1.418 . S
C1148 O1202 1.334 . S
C1149 C1148 1.407 . S
C1149 C1150 1.360 . S
C1149 H1210 0.929 . S
C1150 C1149 1.360 . S
C1150 C1151 1.401 . S
C1150 C1154 1.527 . S
C1151 C1150 1.401 . S
C1151 C1152 1.405 . S
C1151 C1184 1.587 . S
C1152 C1151 1.405 . S
C1152 C1153 1.332 . S
C1152 C1155 1.496 . S
C1153 C1148 1.418 . S
C1153 C1152 1.332 . S
C1153 H1211 0.929 . S
C1154 C1150 1.527 . S
C1154 H1212 0.959 . S
C1154 H1213 0.961 . S
C1154 H1214 0.961 . S
C1155 C1152 1.496 . S
C1155 H1215 0.960 . S
C1155 H1216 0.960 . S
C1155 H1217 0.961 . S
C1156 C1157 1.517 . S
C1156 H1219 0.961 . S
C1156 H1220 0.960 . S
C1156 H1221 0.959 . S
C1157 C1156 1.517 . S
C1157 O1205 1.468 . S
C1157 H1218 0.980 . S
C1158 C1159 1.349 . S
C1158 C1163 1.367 . S
C1158 O1205 1.408 . S
C1159 C1158 1.349 . S
C1159 C1160 1.407 . S
C1159 H1222 0.930 . S
C1160 C1159 1.407 . S
C1160 C1161 1.449 . S
C1160 C1164 1.535 . S
C1161 C1160 1.449 . S
C1161 C1162 1.384 . S
C1161 C1186 1.553 . S
C1162 C1161 1.384 . S
C1162 C1163 1.364 . S
C1162 C1165 1.450 . S
C1163 C1158 1.367 . S
C1163 C1162 1.364 . S
C1163 H1223 0.931 . S
C1164 C1160 1.535 . S
C1164 H1224 0.959 . S
C1164 H1225 0.961 . S
C1164 H1226 0.959 . S
C1165 C1162 1.450 . S
C1165 H1227 0.960 . S
C1165 H1228 0.960 . S
C1165 H1229 0.960 . S
C1166 C1167 1.309 . S
C1166 C1171 1.304 . S
C1166 O1204 1.435 . S
C1167 C1166 1.309 . S
C1167 C1168 1.476 . S
C1167 H1231 0.930 . S
C1168 C1167 1.476 . S
C1168 C1169 1.400 . S
C1168 C1172 1.567 . S
C1169 C1168 1.400 . S
C1169 C1170 1.373 . S
C1169 C1191 1.432 . S
C1170 C1169 1.373 . S
C1170 C1171 1.339 . S
C1170 C1173 1.530 . S
C1171 C1166 1.304 . S
C1171 C1170 1.339 . S
C1171 H1232 0.930 . S
C1172 C1168 1.567 . S
C1172 H1233 0.961 . S
C1172 H1234 0.960 . S
C1172 H1235 0.958 . S
C1173 C1170 1.530 . S
C1173 H1236 0.961 . S
C1173 H1237 0.960 . S
C1173 H1238 0.960 . S
C1174 C1175 1.530 . S
C1174 H1240 0.961 . S
C1174 H1241 0.961 . S
C1174 H1242 0.959 . S
C1175 C1174 1.530 . S
C1175 O1203 1.412 . S
C1175 H1239 0.980 . S
C1176 C1177 1.288 . S
C1176 C1181 1.377 . S
C1176 O1203 1.393 . S
C1177 C1176 1.288 . S
C1177 C1178 1.369 . S
C1177 H1243 0.932 . S
C1178 C1177 1.369 . S
C1178 C1179 1.398 . S
C1178 C1182 1.527 . S
C1179 C1178 1.398 . S
C1179 C1180 1.380 . S
C1179 C1193 1.497 . S
C1180 C1179 1.380 . S
C1180 C1181 1.383 . S
C1180 C1183 1.603 . S
C1181 C1176 1.377 . S
C1181 C1180 1.383 . S
C1181 H1244 0.929 . S
C1182 C1178 1.527 . S
C1182 H1245 0.961 . S
C1182 H1246 0.959 . S
C1182 H1247 0.959 . S
C1183 C1180 1.603 . S
C1183 H1248 0.960 . S
C1183 H1249 0.962 . S
C1183 H1250 0.961 . S
C1184 C1151 1.587 . S
C1184 C1185 1.360 . S
C1184 C1197 1.412 . S
C1185 C1184 1.360 . S
C1185 C1186 1.365 . S
C1185 H1251 0.929 . S
C1186 C1161 1.553 . S
C1186 C1185 1.365 . S
C1186 C1187 1.404 . S
C1187 C1186 1.404 . S
C1187 C1188 1.395 . S
C1187 C1198 1.451 . S
C1188 C1187 1.395 . S
C1188 C1189 1.322 . S
C1188 H1252 0.930 . S
C1189 C1188 1.322 . S
C1189 C1190 1.459 . S
C1189 H1253 0.929 . S
C1190 C1189 1.459 . S
C1190 C1191 1.445 . S
C1190 C1199 1.395 . S
C1191 C1169 1.432 . S
C1191 C1190 1.445 . S
C1191 C1192 1.370 . S
C1192 C1191 1.370 . S
C1192 C1193 1.438 . S
C1192 H1254 0.930 . S
C1193 C1179 1.497 . S
C1193 C1192 1.438 . S
C1193 C1194 1.360 . S
C1194 C1193 1.360 . S
C1194 C1195 1.401 . S
C1194 C1199 1.446 . S
C1195 C1194 1.401 . S
C1195 C1196 1.347 . S
C1195 H1255 0.929 . S
C1196 C1195 1.347 . S
C1196 C1197 1.455 . S
C1196 H1256 0.930 . S
C1197 C1184 1.412 . S
C1197 C1196 1.455 . S
C1197 C1198 1.331 . S
C1198 C1187 1.451 . S
C1198 C1197 1.331 . S
C1198 C1199 1.497 . S
C1199 C1190 1.395 . S
C1199 C1194 1.446 . S
C1199 C1198 1.497 . S
C1200 C1201 1.582 . S
C1200 H1257 0.962 . S
C1200 H1258 0.959 . S
C1200 H1259 0.958 . S
C1201 C1200 1.582 . S
C1201 O1204 1.458 . S
C1201 H1230 0.980 . S
O1202 C1147 1.426 . S
O1202 C1148 1.334 . S
O1203 C1175 1.412 . S
O1203 C1176 1.393 . S
O1204 C1166 1.435 . S
O1204 C1201 1.458 . S
O1205 C1157 1.468 . S
O1205 C1158 1.408 . S
H1206 C1147 0.980 . S
H1207 C1146 0.959 . S
H1208 C1146 0.959 . S
H1209 C1146 0.960 . S
H1210 C1149 0.929 . S
H1211 C1153 0.929 . S
H1212 C1154 0.959 . S
H1213 C1154 0.961 . S
H1214 C1154 0.961 . S
H1215 C1155 0.960 . S
H1216 C1155 0.960 . S
H1217 C1155 0.961 . S
H1218 C1157 0.980 . S
H1219 C1156 0.961 . S
H1220 C1156 0.960 . S
H1221 C1156 0.959 . S
H1222 C1159 0.930 . S
H1223 C1163 0.931 . S
H1224 C1164 0.959 . S
H1225 C1164 0.961 . S
H1226 C1164 0.959 . S
H1227 C1165 0.960 . S
H1228 C1165 0.960 . S
H1229 C1165 0.960 . S
H1230 C1201 0.980 . S
H1231 C1167 0.930 . S
H1232 C1171 0.930 . S
H1233 C1172 0.961 . S
H1234 C1172 0.960 . S
H1235 C1172 0.958 . S
H1236 C1173 0.961 . S
H1237 C1173 0.960 . S
H1238 C1173 0.960 . S
H1239 C1175 0.980 . S
H1240 C1174 0.961 . S
H1241 C1174 0.961 . S
H1242 C1174 0.959 . S
H1243 C1177 0.932 . S
H1244 C1181 0.929 . S
H1245 C1182 0.961 . S
H1246 C1182 0.959 . S
H1247 C1182 0.959 . S
H1248 C1183 0.960 . S
H1249 C1183 0.962 . S
H1250 C1183 0.961 . S
H1251 C1185 0.929 . S
H1252 C1188 0.930 . S
H1253 C1189 0.929 . S
H1254 C1192 0.930 . S
H1255 C1195 0.929 . S
H1256 C1196 0.930 . S
H1257 C1200 0.962 . S
H1258 C1200 0.959 . S
H1259 C1200 0.958 . S
C1260 C1261 1.560 . S
C1260 H1321 0.959 . S
C1260 H1322 0.959 . S
C1260 H1323 0.960 . S
C1261 C1260 1.560 . S
C1261 O1316 1.426 . S
C1261 H1320 0.980 . S
C1262 C1263 1.407 1_455 S
C1262 C1267 1.418 . S
C1262 O1316 1.334 . S
C1263 C1262 1.407 1_655 S
C1263 C1264 1.360 . S
C1263 H1324 0.929 . S
C1264 C1263 1.360 . S
C1264 C1265 1.401 1_655 S
C1264 C1268 1.527 . S
C1265 C1264 1.401 1_455 S
C1265 C1266 1.405 . S
C1265 C1298 1.587 1_455 S
C1266 C1265 1.405 . S
C1266 C1267 1.332 . S
C1266 C1269 1.496 . S
C1267 C1262 1.418 . S
C1267 C1266 1.332 . S
C1267 H1325 0.929 . S
C1268 C1264 1.527 . S
C1268 H1326 0.959 . S
C1268 H1327 0.961 . S
C1268 H1328 0.961 . S
C1269 C1266 1.496 . S
C1269 H1329 0.960 . S
C1269 H1330 0.960 . S
C1269 H1331 0.961 . S
C1270 C1271 1.517 . S
C1270 H1333 0.961 . S
C1270 H1334 0.960 . S
C1270 H1335 0.959 . S
C1271 C1270 1.517 . S
C1271 O1319 1.468 . S
C1271 H1332 0.980 1_655 S
C1272 C1273 1.349 . S
C1272 C1277 1.367 . S
C1272 O1319 1.408 . S
C1273 C1272 1.349 . S
C1273 C1274 1.407 1_655 S
C1273 H1336 0.930 1_655 S
C1274 C1273 1.407 1_455 S
C1274 C1275 1.449 1_455 S
C1274 C1278 1.535 . S
C1275 C1274 1.449 1_655 S
C1275 C1276 1.384 . S
C1275 C1300 1.553 . S
C1276 C1275 1.384 . S
C1276 C1277 1.364 . S
C1276 C1279 1.450 . S
C1277 C1272 1.367 . S
C1277 C1276 1.364 . S
C1277 H1337 0.931 . S
C1278 C1274 1.535 . S
C1278 H1338 0.959 . S
C1278 H1339 0.961 . S
C1278 H1340 0.959 . S
C1279 C1276 1.450 . S
C1279 H1341 0.960 . S
C1279 H1342 0.960 . S
C1279 H1343 0.960 . S
C1280 C1281 1.309 . S
C1280 C1285 1.304 . S
C1280 O1318 1.435 . S
C1281 C1280 1.309 . S
C1281 C1282 1.496 . S
C1281 H1345 0.930 1_655 S
C1282 C1281 1.496 . S
C1282 C1283 1.411 . S
C1282 C1286 1.537 1_655 S
C1283 C1282 1.411 . S
C1283 C1284 1.373 . S
C1283 C1305 1.432 . S
C1284 C1283 1.373 . S
C1284 C1285 1.339 . S
C1284 C1287 1.530 . S
C1285 C1280 1.304 . S
C1285 C1284 1.339 . S
C1285 H1346 0.930 . S
C1286 C1282 1.537 1_455 S
C1286 H1347 0.961 . S
C1286 H1348 0.960 . S
C1286 H1349 0.958 . S
C1287 C1284 1.530 . S
C1287 H1350 0.961 . S
C1287 H1351 0.960 . S
C1287 H1352 0.960 . S
C1288 C1289 1.569 . S
C1288 H1354 0.961 . S
C1288 H1355 0.961 . S
C1288 H1356 0.959 . S
C1289 C1288 1.569 . S
C1289 O1317 1.418 . S
C1289 H1353 0.971 1_455 S
C1290 C1291 1.288 . S
C1290 C1295 1.377 1_455 S
C1290 O1317 1.393 . S
C1291 C1290 1.288 . S
C1291 C1292 1.369 . S
C1291 H1357 0.932 . S
C1292 C1291 1.369 . S
C1292 C1293 1.398 1_455 S
C1292 C1296 1.527 . S
C1293 C1292 1.398 1_655 S
C1293 C1294 1.380 . S
C1293 C1307 1.497 . S
C1294 C1293 1.380 . S
C1294 C1295 1.383 . S
C1294 C1297 1.603 . S
C1295 C1290 1.377 1_655 S
C1295 C1294 1.383 . S
C1295 H1358 0.929 . S
C1296 C1292 1.527 . S
C1296 H1359 0.961 . S
C1296 H1360 0.959 . S
C1296 H1361 0.959 . S
C1297 C1294 1.603 . S
C1297 H1362 0.960 . S
C1297 H1363 0.962 . S
C1297 H1364 0.961 . S
C1298 C1265 1.587 1_655 S
C1298 C1299 1.360 . S
C1298 C1311 1.412 . S
C1299 C1298 1.360 . S
C1299 C1300 1.365 . S
C1299 H1365 0.929 . S
C1300 C1275 1.553 . S
C1300 C1299 1.365 . S
C1300 C1301 1.404 . S
C1301 C1300 1.404 . S
C1301 C1302 1.395 . S
C1301 C1312 1.451 . S
C1302 C1301 1.395 . S
C1302 C1303 1.322 . S
C1302 H1366 0.930 . S
C1303 C1302 1.322 . S
C1303 C1304 1.459 . S
C1303 H1367 0.929 . S
C1304 C1303 1.459 . S
C1304 C1305 1.445 . S
C1304 C1313 1.395 . S
C1305 C1283 1.432 . S
C1305 C1304 1.445 . S
C1305 C1306 1.370 . S
C1306 C1305 1.370 . S
C1306 C1307 1.438 . S
C1306 H1368 0.930 . S
C1307 C1293 1.497 . S
C1307 C1306 1.438 . S
C1307 C1308 1.360 . S
C1308 C1307 1.360 . S
C1308 C1309 1.401 . S
C1308 C1313 1.446 . S
C1309 C1308 1.401 . S
C1309 C1310 1.347 . S
C1309 H1369 0.929 . S
C1310 C1309 1.347 . S
C1310 C1311 1.455 . S
C1310 H1370 0.930 . S
C1311 C1298 1.412 . S
C1311 C1310 1.455 . S
C1311 C1312 1.331 . S
C1312 C1301 1.451 . S
C1312 C1311 1.331 . S
C1312 C1313 1.497 . S
C1313 C1304 1.395 . S
C1313 C1308 1.446 . S
C1313 C1312 1.497 . S
C1314 C1315 1.582 . S
C1314 H1371 0.962 . S
C1314 H1372 0.959 . S
C1314 H1373 0.958 . S
C1315 C1314 1.582 . S
C1315 O1318 1.458 . S
C1315 H1344 0.980 . S
O1316 C1261 1.426 . S
O1316 C1262 1.334 . S
O1317 C1289 1.418 . S
O1317 C1290 1.393 . S
O1318 C1280 1.435 . S
O1318 C1315 1.458 . S
O1319 C1271 1.468 . S
O1319 C1272 1.408 . S
H1320 C1261 0.980 . S
H1321 C1260 0.959 . S
H1322 C1260 0.959 . S
H1323 C1260 0.960 . S
H1324 C1263 0.929 . S
H1325 C1267 0.929 . S
H1326 C1268 0.959 . S
H1327 C1268 0.961 . S
H1328 C1268 0.961 . S
H1329 C1269 0.960 . S
H1330 C1269 0.960 . S
H1331 C1269 0.961 . S
H1332 C1271 0.980 1_455 S
H1333 C1270 0.961 . S
H1334 C1270 0.960 . S
H1335 C1270 0.959 . S
H1336 C1273 0.930 1_455 S
H1337 C1277 0.931 . S
H1338 C1278 0.959 . S
H1339 C1278 0.961 . S
H1340 C1278 0.959 . S
H1341 C1279 0.960 . S
H1342 C1279 0.960 . S
H1343 C1279 0.960 . S
H1344 C1315 0.980 . S
H1345 C1281 0.930 1_455 S
H1346 C1285 0.930 . S
H1347 C1286 0.961 . S
H1348 C1286 0.960 . S
H1349 C1286 0.958 . S
H1350 C1287 0.961 . S
H1351 C1287 0.960 . S
H1352 C1287 0.960 . S
H1353 C1289 0.971 1_655 S
H1354 C1288 0.961 . S
H1355 C1288 0.961 . S
H1356 C1288 0.959 . S
H1357 C1291 0.932 . S
H1358 C1295 0.929 . S
H1359 C1296 0.961 . S
H1360 C1296 0.959 . S
H1361 C1296 0.959 . S
H1362 C1297 0.960 . S
H1363 C1297 0.962 . S
H1364 C1297 0.961 . S
H1365 C1299 0.929 . S
H1366 C1302 0.930 . S
H1367 C1303 0.929 . S
H1368 C1306 0.930 . S
H1369 C1309 0.929 . S
H1370 C1310 0.930 . S
H1371 C1314 0.962 . S
H1372 C1314 0.959 . S
H1373 C1314 0.958 . S
C1374 C1375 1.560 . S
C1374 H1435 0.959 . S
C1374 H1436 0.959 . S
C1374 H1437 0.960 . S
C1375 C1374 1.560 . S
C1375 O1430 1.426 . S
C1375 H1434 0.980 . S
C1376 C1377 1.407 . S
C1376 C1381 1.418 . S
C1376 O1430 1.334 . S
C1377 C1376 1.407 . S
C1377 C1378 1.360 . S
C1377 H1438 0.929 . S
C1378 C1377 1.360 . S
C1378 C1379 1.401 . S
C1378 C1382 1.527 . S
C1379 C1378 1.401 . S
C1379 C1380 1.405 . S
C1379 C1412 1.587 . S
C1380 C1379 1.405 . S
C1380 C1381 1.332 . S
C1380 C1383 1.496 . S
C1381 C1376 1.418 . S
C1381 C1380 1.332 . S
C1381 H1439 0.929 . S
C1382 C1378 1.527 . S
C1382 H1440 0.959 . S
C1382 H1441 0.961 . S
C1382 H1442 0.961 . S
C1383 C1380 1.496 . S
C1383 H1443 0.960 . S
C1383 H1444 0.960 . S
C1383 H1445 0.961 . S
C1384 C1385 1.517 . S
C1384 H1447 0.961 . S
C1384 H1448 0.960 . S
C1384 H1449 0.959 . S
C1385 C1384 1.517 . S
C1385 O1433 1.468 . S
C1385 H1446 0.980 . S
C1386 C1387 1.349 . S
C1386 C1391 1.367 . S
C1386 O1433 1.408 . S
C1387 C1386 1.349 . S
C1387 C1388 1.407 . S
C1387 H1450 0.930 . S
C1388 C1387 1.407 . S
C1388 C1389 1.449 . S
C1388 C1392 1.535 . S
C1389 C1388 1.449 . S
C1389 C1390 1.384 . S
C1389 C1414 1.553 . S
C1390 C1389 1.384 . S
C1390 C1391 1.364 . S
C1390 C1393 1.450 . S
C1391 C1386 1.367 . S
C1391 C1390 1.364 . S
C1391 H1451 0.931 . S
C1392 C1388 1.535 . S
C1392 H1452 0.959 . S
C1392 H1453 0.961 . S
C1392 H1454 0.959 . S
C1393 C1390 1.450 . S
C1393 H1455 0.960 . S
C1393 H1456 0.960 . S
C1393 H1457 0.960 . S
C1394 C1395 1.309 . S
C1394 C1399 1.304 . S
C1394 O1432 1.435 . S
C1395 C1394 1.309 . S
C1395 C1396 1.476 . S
C1395 H1459 0.930 . S
C1396 C1395 1.476 . S
C1396 C1397 1.400 . S
C1396 C1400 1.567 . S
C1397 C1396 1.400 . S
C1397 C1398 1.373 . S
C1397 C1419 1.432 . S
C1398 C1397 1.373 . S
C1398 C1399 1.339 . S
C1398 C1401 1.530 . S
C1399 C1394 1.304 . S
C1399 C1398 1.339 . S
C1399 H1460 0.930 . S
C1400 C1396 1.567 . S
C1400 H1461 0.961 . S
C1400 H1462 0.960 . S
C1400 H1463 0.958 . S
C1401 C1398 1.530 . S
C1401 H1464 0.961 . S
C1401 H1465 0.960 . S
C1401 H1466 0.960 . S
C1402 C1403 1.530 . S
C1402 H1468 0.961 . S
C1402 H1469 0.961 . S
C1402 H1470 0.959 . S
C1403 C1402 1.530 . S
C1403 O1431 1.412 . S
C1403 H1467 0.980 . S
C1404 C1405 1.288 . S
C1404 C1409 1.377 . S
C1404 O1431 1.393 . S
C1405 C1404 1.288 . S
C1405 C1406 1.369 . S
C1405 H1471 0.932 . S
C1406 C1405 1.369 . S
C1406 C1407 1.398 . S
C1406 C1410 1.527 . S
C1407 C1406 1.398 . S
C1407 C1408 1.380 . S
C1407 C1421 1.497 . S
C1408 C1407 1.380 . S
C1408 C1409 1.383 . S
C1408 C1411 1.603 . S
C1409 C1404 1.377 . S
C1409 C1408 1.383 . S
C1409 H1472 0.929 . S
C1410 C1406 1.527 . S
C1410 H1473 0.961 . S
C1410 H1474 0.959 . S
C1410 H1475 0.959 . S
C1411 C1408 1.603 . S
C1411 H1476 0.960 . S
C1411 H1477 0.962 . S
C1411 H1478 0.961 . S
C1412 C1379 1.587 . S
C1412 C1413 1.360 . S
C1412 C1425 1.412 . S
C1413 C1412 1.360 . S
C1413 C1414 1.365 . S
C1413 H1479 0.929 . S
C1414 C1389 1.553 . S
C1414 C1413 1.365 . S
C1414 C1415 1.404 . S
C1415 C1414 1.404 . S
C1415 C1416 1.395 . S
C1415 C1426 1.451 . S
C1416 C1415 1.395 . S
C1416 C1417 1.322 . S
C1416 H1480 0.930 . S
C1417 C1416 1.322 . S
C1417 C1418 1.459 . S
C1417 H1481 0.929 . S
C1418 C1417 1.459 . S
C1418 C1419 1.445 . S
C1418 C1427 1.395 . S
C1419 C1397 1.432 . S
C1419 C1418 1.445 . S
C1419 C1420 1.370 . S
C1420 C1419 1.370 . S
C1420 C1421 1.438 . S
C1420 H1482 0.930 . S
C1421 C1407 1.497 . S
C1421 C1420 1.438 . S
C1421 C1422 1.360 . S
C1422 C1421 1.360 . S
C1422 C1423 1.401 . S
C1422 C1427 1.446 . S
C1423 C1422 1.401 . S
C1423 C1424 1.347 . S
C1423 H1483 0.929 . S
C1424 C1423 1.347 . S
C1424 C1425 1.455 . S
C1424 H1484 0.930 . S
C1425 C1412 1.412 . S
C1425 C1424 1.455 . S
C1425 C1426 1.331 . S
C1426 C1415 1.451 . S
C1426 C1425 1.331 . S
C1426 C1427 1.497 . S
C1427 C1418 1.395 . S
C1427 C1422 1.446 . S
C1427 C1426 1.497 . S
C1428 C1429 1.582 . S
C1428 H1485 0.962 . S
C1428 H1486 0.959 . S
C1428 H1487 0.958 . S
C1429 C1428 1.582 . S
C1429 O1432 1.458 . S
C1429 H1458 0.980 . S
O1430 C1375 1.426 . S
O1430 C1376 1.334 . S
O1431 C1403 1.412 . S
O1431 C1404 1.393 . S
O1432 C1394 1.435 . S
O1432 C1429 1.458 . S
O1433 C1385 1.468 . S
O1433 C1386 1.408 . S
H1434 C1375 0.980 . S
H1435 C1374 0.959 . S
H1436 C1374 0.959 . S
H1437 C1374 0.960 . S
H1438 C1377 0.929 . S
H1439 C1381 0.929 . S
H1440 C1382 0.959 . S
H1441 C1382 0.961 . S
H1442 C1382 0.961 . S
H1443 C1383 0.960 . S
H1444 C1383 0.960 . S
H1445 C1383 0.961 . S
H1446 C1385 0.980 . S
H1447 C1384 0.961 . S
H1448 C1384 0.960 . S
H1449 C1384 0.959 . S
H1450 C1387 0.930 . S
H1451 C1391 0.931 . S
H1452 C1392 0.959 . S
H1453 C1392 0.961 . S
H1454 C1392 0.959 . S
H1455 C1393 0.960 . S
H1456 C1393 0.960 . S
H1457 C1393 0.960 . S
H1458 C1429 0.980 . S
H1459 C1395 0.930 . S
H1460 C1399 0.930 . S
H1461 C1400 0.961 . S
H1462 C1400 0.960 . S
H1463 C1400 0.958 . S
H1464 C1401 0.961 . S
H1465 C1401 0.960 . S
H1466 C1401 0.960 . S
H1467 C1403 0.980 . S
H1468 C1402 0.961 . S
H1469 C1402 0.961 . S
H1470 C1402 0.959 . S
H1471 C1405 0.932 . S
H1472 C1409 0.929 . S
H1473 C1410 0.961 . S
H1474 C1410 0.959 . S
H1475 C1410 0.959 . S
H1476 C1411 0.960 . S
H1477 C1411 0.962 . S
H1478 C1411 0.961 . S
H1479 C1413 0.929 . S
H1480 C1416 0.930 . S
H1481 C1417 0.929 . S
H1482 C1420 0.930 . S
H1483 C1423 0.929 . S
H1484 C1424 0.930 . S
H1485 C1428 0.962 . S
H1486 C1428 0.959 . S
H1487 C1428 0.958 . S
C1488 C1489 1.560 . S
C1488 H1549 0.959 . S
C1488 H1550 0.959 . S
C1488 H1551 0.960 . S
C1489 C1488 1.560 . S
C1489 O1544 1.426 . S
C1489 H1548 0.980 . S
C1490 C1491 1.407 1_565 S
C1490 C1495 1.418 . S
C1490 O1544 1.334 . S
C1491 C1490 1.407 1_545 S
C1491 C1492 1.360 . S
C1491 H1552 0.929 . S
C1492 C1491 1.360 . S
C1492 C1493 1.401 1_545 S
C1492 C1496 1.527 . S
C1493 C1492 1.401 1_565 S
C1493 C1494 1.405 . S
C1493 C1526 1.587 1_565 S
C1494 C1493 1.405 . S
C1494 C1495 1.332 . S
C1494 C1497 1.496 . S
C1495 C1490 1.418 . S
C1495 C1494 1.332 . S
C1495 H1553 0.929 . S
C1496 C1492 1.527 . S
C1496 H1554 0.959 . S
C1496 H1555 0.961 . S
C1496 H1556 0.961 . S
C1497 C1494 1.496 . S
C1497 H1557 0.960 . S
C1497 H1558 0.960 . S
C1497 H1559 0.961 . S
C1498 C1499 1.517 . S
C1498 H1561 0.961 1_545 S
C1498 H1562 0.960 . S
C1498 H1563 0.959 . S
C1499 C1498 1.517 . S
C1499 O1547 1.468 . S
C1499 H1560 0.980 1_545 S
C1500 C1501 1.341 1_545 S
C1500 C1505 1.367 . S
C1500 O1547 1.408 . S
C1501 C1500 1.341 1_565 S
C1501 C1502 1.401 . S
C1501 H1564 0.945 . S
C1502 C1501 1.401 . S
C1502 C1503 1.449 1_565 S
C1502 C1506 1.535 . S
C1503 C1502 1.449 1_545 S
C1503 C1504 1.384 . S
C1503 C1528 1.553 . S
C1504 C1503 1.384 . S
C1504 C1505 1.364 . S
C1504 C1507 1.450 . S
C1505 C1500 1.367 . S
C1505 C1504 1.364 . S
C1505 H1565 0.931 . S
C1506 C1502 1.535 . S
C1506 H1566 0.959 . S
C1506 H1567 0.961 . S
C1506 H1568 0.959 . S
C1507 C1504 1.450 . S
C1507 H1569 0.960 . S
C1507 H1570 0.960 . S
C1507 H1571 0.960 . S
C1508 C1509 1.309 . S
C1508 C1513 1.304 . S
C1508 O1546 1.435 . S
C1509 C1508 1.309 . S
C1509 C1510 1.476 1_545 S
C1509 H1573 0.930 1_545 S
C1510 C1509 1.476 1_565 S
C1510 C1511 1.400 1_565 S
C1510 C1514 1.567 . S
C1511 C1510 1.400 1_545 S
C1511 C1512 1.373 . S
C1511 C1533 1.432 . S
C1512 C1511 1.373 . S
C1512 C1513 1.339 . S
C1512 C1515 1.530 . S
C1513 C1508 1.304 . S
C1513 C1512 1.339 . S
C1513 H1574 0.930 . S
C1514 C1510 1.567 . S
C1514 H1575 0.961 . S
C1514 H1576 0.960 . S
C1514 H1577 0.958 . S
C1515 C1512 1.530 . S
C1515 H1578 0.961 . S
C1515 H1579 0.960 . S
C1515 H1580 0.960 . S
C1516 C1517 1.530 1_565 S
C1516 H1582 0.961 . S
C1516 H1583 0.961 . S
C1516 H1584 0.959 . S
C1517 C1516 1.530 1_545 S
C1517 O1545 1.412 1_545 S
C1517 H1581 0.980 . S
C1518 C1519 1.288 . S
C1518 C1523 1.377 1_565 S
C1518 O1545 1.393 . S
C1519 C1518 1.288 . S
C1519 C1520 1.369 . S
C1519 H1585 0.932 . S
C1520 C1519 1.369 . S
C1520 C1521 1.398 1_565 S
C1520 C1524 1.527 . S
C1521 C1520 1.398 1_545 S
C1521 C1522 1.380 . S
C1521 C1535 1.497 . S
C1522 C1521 1.380 . S
C1522 C1523 1.383 . S
C1522 C1525 1.603 . S
C1523 C1518 1.377 1_545 S
C1523 C1522 1.383 . S
C1523 H1586 0.929 . S
C1524 C1520 1.527 . S
C1524 H1587 0.961 . S
C1524 H1588 0.959 . S
C1524 H1589 0.959 . S
C1525 C1522 1.603 . S
C1525 H1590 0.960 . S
C1525 H1591 0.962 . S
C1525 H1592 0.961 . S
C1526 C1493 1.587 1_545 S
C1526 C1527 1.360 . S
C1526 C1539 1.412 . S
C1527 C1526 1.360 . S
C1527 C1528 1.365 . S
C1527 H1593 0.929 . S
C1528 C1503 1.553 . S
C1528 C1527 1.365 . S
C1528 C1529 1.404 . S
C1529 C1528 1.404 . S
C1529 C1530 1.395 . S
C1529 C1540 1.451 . S
C1530 C1529 1.395 . S
C1530 C1531 1.322 . S
C1530 H1594 0.930 . S
C1531 C1530 1.322 . S
C1531 C1532 1.459 . S
C1531 H1595 0.929 . S
C1532 C1531 1.459 . S
C1532 C1533 1.445 . S
C1532 C1541 1.395 . S
C1533 C1511 1.432 . S
C1533 C1532 1.445 . S
C1533 C1534 1.370 . S
C1534 C1533 1.370 . S
C1534 C1535 1.438 . S
C1534 H1596 0.930 . S
C1535 C1521 1.497 . S
C1535 C1534 1.438 . S
C1535 C1536 1.360 . S
C1536 C1535 1.360 . S
C1536 C1537 1.401 . S
C1536 C1541 1.446 . S
C1537 C1536 1.401 . S
C1537 C1538 1.347 . S
C1537 H1597 0.929 . S
C1538 C1537 1.347 . S
C1538 C1539 1.455 . S
C1538 H1598 0.930 . S
C1539 C1526 1.412 . S
C1539 C1538 1.455 . S
C1539 C1540 1.331 . S
C1540 C1529 1.451 . S
C1540 C1539 1.331 . S
C1540 C1541 1.497 . S
C1541 C1532 1.395 . S
C1541 C1536 1.446 . S
C1541 C1540 1.497 . S
C1542 C1543 1.582 . S
C1542 H1599 0.962 . S
C1542 H1600 0.959 . S
C1542 H1601 0.958 . S
C1543 C1542 1.582 . S
C1543 O1546 1.458 . S
C1543 H1572 0.980 . S
O1544 C1489 1.426 . S
O1544 C1490 1.334 . S
O1545 C1517 1.412 1_565 S
O1545 C1518 1.393 . S
O1546 C1508 1.435 . S
O1546 C1543 1.458 . S
O1547 C1499 1.468 . S
O1547 C1500 1.408 . S
H1548 C1489 0.980 . S
H1549 C1488 0.959 . S
H1550 C1488 0.959 . S
H1551 C1488 0.960 . S
H1552 C1491 0.929 . S
H1553 C1495 0.929 . S
H1554 C1496 0.959 . S
H1555 C1496 0.961 . S
H1556 C1496 0.961 . S
H1557 C1497 0.960 . S
H1558 C1497 0.960 . S
H1559 C1497 0.961 . S
H1560 C1499 0.980 1_565 S
H1561 C1498 0.961 1_565 S
H1562 C1498 0.960 . S
H1563 C1498 0.959 . S
H1564 C1501 0.945 . S
H1565 C1505 0.931 . S
H1566 C1506 0.959 . S
H1567 C1506 0.961 . S
H1568 C1506 0.959 . S
H1569 C1507 0.960 . S
H1570 C1507 0.960 . S
H1571 C1507 0.960 . S
H1572 C1543 0.980 . S
H1573 C1509 0.930 1_565 S
H1574 C1513 0.930 . S
H1575 C1514 0.961 . S
H1576 C1514 0.960 . S
H1577 C1514 0.958 . S
H1578 C1515 0.961 . S
H1579 C1515 0.960 . S
H1580 C1515 0.960 . S
H1581 C1517 0.980 . S
H1582 C1516 0.961 . S
H1583 C1516 0.961 . S
H1584 C1516 0.959 . S
H1585 C1519 0.932 . S
H1586 C1523 0.929 . S
H1587 C1524 0.961 . S
H1588 C1524 0.959 . S
H1589 C1524 0.959 . S
H1590 C1525 0.960 . S
H1591 C1525 0.962 . S
H1592 C1525 0.961 . S
H1593 C1527 0.929 . S
H1594 C1530 0.930 . S
H1595 C1531 0.929 . S
H1596 C1534 0.930 . S
H1597 C1537 0.929 . S
H1598 C1538 0.930 . S
H1599 C1542 0.962 . S
H1600 C1542 0.959 . S
H1601 C1542 0.958 . S
C1602 C1603 1.560 . S
C1602 H1663 0.959 . S
C1602 H1664 0.959 . S
C1602 H1665 0.960 . S
C1603 C1602 1.560 . S
C1603 O1658 1.426 . S
C1603 H1662 0.980 1_565 S
C1604 C1605 1.407 1_565 S
C1604 C1609 1.418 . S
C1604 O1658 1.334 . S
C1605 C1604 1.407 1_545 S
C1605 C1606 1.360 . S
C1605 H1666 0.929 . S
C1606 C1605 1.360 . S
C1606 C1607 1.401 . S
C1606 C1610 1.527 . S
C1607 C1606 1.401 . S
C1607 C1608 1.405 1_545 S
C1607 C1640 1.587 . S
C1608 C1607 1.405 1_565 S
C1608 C1609 1.332 . S
C1608 C1611 1.496 . S
C1609 C1604 1.418 . S
C1609 C1608 1.332 . S
C1609 H1667 0.929 . S
C1610 C1606 1.527 . S
C1610 H1668 0.959 . S
C1610 H1669 0.961 . S
C1610 H1670 0.961 . S
C1611 C1608 1.496 . S
C1611 H1671 0.960 . S
C1611 H1672 0.960 . S
C1611 H1673 0.961 . S
C1612 C1613 1.517 . S
C1612 H1675 0.961 . S
C1612 H1676 0.960 . S
C1612 H1677 0.959 . S
C1613 C1612 1.517 . S
C1613 O1661 1.468 . S
C1613 H1674 0.980 . S
C1614 C1615 1.349 . S
C1614 C1619 1.367 . S
C1614 O1661 1.408 . S
C1615 C1614 1.349 . S
C1615 C1616 1.407 . S
C1615 H1678 0.943 . S
C1616 C1615 1.407 . S
C1616 C1617 1.449 . S
C1616 C1620 1.535 1_545 S
C1617 C1616 1.449 . S
C1617 C1618 1.384 . S
C1617 C1642 1.553 . S
C1618 C1617 1.384 . S
C1618 C1619 1.364 . S
C1618 C1621 1.450 . S
C1619 C1614 1.367 . S
C1619 C1618 1.364 . S
C1619 H1679 0.931 . S
C1620 C1616 1.535 1_565 S
C1620 H1680 0.959 . S
C1620 H1681 0.961 . S
C1620 H1682 0.959 . S
C1621 C1618 1.450 . S
C1621 H1683 0.960 . S
C1621 H1684 0.960 . S
C1621 H1685 0.960 . S
C1622 C1623 1.309 1_545 S
C1622 C1627 1.304 . S
C1622 O1660 1.435 . S
C1623 C1622 1.309 1_565 S
C1623 C1624 1.476 . S
C1623 H1687 0.930 . S
C1624 C1623 1.476 . S
C1624 C1625 1.400 1_565 S
C1624 C1628 1.567 . S
C1625 C1624 1.400 1_545 S
C1625 C1626 1.373 . S
C1625 C1647 1.432 . S
C1626 C1625 1.373 . S
C1626 C1627 1.339 . S
C1626 C1629 1.530 . S
C1627 C1622 1.304 . S
C1627 C1626 1.339 . S
C1627 H1688 0.930 . S
C1628 C1624 1.567 . S
C1628 H1689 0.961 . S
C1628 H1690 0.960 . S
C1628 H1691 0.958 . S
C1629 C1626 1.530 . S
C1629 H1692 0.961 . S
C1629 H1693 0.960 . S
C1629 H1694 0.960 . S
C1630 C1631 1.530 . S
C1630 H1696 0.961 . S
C1630 H1697 0.961 . S
C1630 H1698 0.959 . S
C1631 C1630 1.530 . S
C1631 O1659 1.412 . S
C1631 H1695 0.980 . S
C1632 C1633 1.288 . S
C1632 C1637 1.377 1_565 S
C1632 O1659 1.393 . S
C1633 C1632 1.288 . S
C1633 C1634 1.369 . S
C1633 H1699 0.932 . S
C1634 C1633 1.369 . S
C1634 C1635 1.398 . S
C1634 C1638 1.527 . S
C1635 C1634 1.398 . S
C1635 C1636 1.380 1_565 S
C1635 C1649 1.497 1_565 S
C1636 C1635 1.380 1_545 S
C1636 C1637 1.383 . S
C1636 C1639 1.603 . S
C1637 C1632 1.377 1_545 S
C1637 C1636 1.383 . S
C1637 H1700 0.929 . S
C1638 C1634 1.527 . S
C1638 H1701 0.961 . S
C1638 H1702 0.959 . S
C1638 H1703 0.959 . S
C1639 C1636 1.603 . S
C1639 H1704 0.960 . S
C1639 H1705 0.962 . S
C1639 H1706 0.961 . S
C1640 C1607 1.587 . S
C1640 C1641 1.360 . S
C1640 C1653 1.412 . S
C1641 C1640 1.360 . S
C1641 C1642 1.365 . S
C1641 H1707 0.929 . S
C1642 C1617 1.553 . S
C1642 C1641 1.365 . S
C1642 C1643 1.404 . S
C1643 C1642 1.404 . S
C1643 C1644 1.395 . S
C1643 C1654 1.451 . S
C1644 C1643 1.395 . S
C1644 C1645 1.322 . S
C1644 H1708 0.930 . S
C1645 C1644 1.322 . S
C1645 C1646 1.459 . S
C1645 H1709 0.929 . S
C1646 C1645 1.459 . S
C1646 C1647 1.445 . S
C1646 C1655 1.395 . S
C1647 C1625 1.432 . S
C1647 C1646 1.445 . S
C1647 C1648 1.370 . S
C1648 C1647 1.370 . S
C1648 C1649 1.438 . S
C1648 H1710 0.930 . S
C1649 C1635 1.497 1_545 S
C1649 C1648 1.438 . S
C1649 C1650 1.360 . S
C1650 C1649 1.360 . S
C1650 C1651 1.401 . S
C1650 C1655 1.446 . S
C1651 C1650 1.401 . S
C1651 C1652 1.347 . S
C1651 H1711 0.941 . S
C1652 C1651 1.347 . S
C1652 C1653 1.455 . S
C1652 H1712 0.930 . S
C1653 C1640 1.412 . S
C1653 C1652 1.455 . S
C1653 C1654 1.331 . S
C1654 C1643 1.451 . S
C1654 C1653 1.331 . S
C1654 C1655 1.497 . S
C1655 C1646 1.395 . S
C1655 C1650 1.446 . S
C1655 C1654 1.497 . S
C1656 C1657 1.582 . S
C1656 H1713 0.962 . S
C1656 H1714 0.959 . S
C1656 H1715 0.958 . S
C1657 C1656 1.582 . S
C1657 O1660 1.458 . S
C1657 H1686 0.980 1_545 S
O1658 C1603 1.426 . S
O1658 C1604 1.334 . S
O1659 C1631 1.412 . S
O1659 C1632 1.393 . S
O1660 C1622 1.435 . S
O1660 C1657 1.458 . S
O1661 C1613 1.468 . S
O1661 C1614 1.408 . S
H1662 C1603 0.980 1_545 S
H1663 C1602 0.959 . S
H1664 C1602 0.959 . S
H1665 C1602 0.960 . S
H1666 C1605 0.929 . S
H1667 C1609 0.929 . S
H1668 C1610 0.959 . S
H1669 C1610 0.961 . S
H1670 C1610 0.961 . S
H1671 C1611 0.960 . S
H1672 C1611 0.960 . S
H1673 C1611 0.961 . S
H1674 C1613 0.980 . S
H1675 C1612 0.961 . S
H1676 C1612 0.960 . S
H1677 C1612 0.959 . S
H1678 C1615 0.943 . S
H1679 C1619 0.931 . S
H1680 C1620 0.959 . S
H1681 C1620 0.961 . S
H1682 C1620 0.959 . S
H1683 C1621 0.960 . S
H1684 C1621 0.960 . S
H1685 C1621 0.960 . S
H1686 C1657 0.980 1_565 S
H1687 C1623 0.930 . S
H1688 C1627 0.930 . S
H1689 C1628 0.961 . S
H1690 C1628 0.960 . S
H1691 C1628 0.958 . S
H1692 C1629 0.961 . S
H1693 C1629 0.960 . S
H1694 C1629 0.960 . S
H1695 C1631 0.980 . S
H1696 C1630 0.961 . S
H1697 C1630 0.961 . S
H1698 C1630 0.959 . S
H1699 C1633 0.932 . S
H1700 C1637 0.929 . S
H1701 C1638 0.961 . S
H1702 C1638 0.959 . S
H1703 C1638 0.959 . S
H1704 C1639 0.960 . S
H1705 C1639 0.962 . S
H1706 C1639 0.961 . S
H1707 C1641 0.929 . S
H1708 C1644 0.930 . S
H1709 C1645 0.929 . S
H1710 C1648 0.930 . S
H1711 C1651 0.941 . S
H1712 C1652 0.930 . S
H1713 C1656 0.962 . S
H1714 C1656 0.959 . S
H1715 C1656 0.958 . S
C1716 C1717 1.571 . S
C1716 H1777 0.959 . S
C1716 H1778 0.959 . S
C1716 H1779 0.960 . S
C1717 C1716 1.571 . S
C1717 O1772 1.448 . S
C1717 H1776 0.975 1_455 S
C1718 C1719 1.407 1_455 S
C1718 C1723 1.418 . S
C1718 O1772 1.334 . S
C1719 C1718 1.407 1_655 S
C1719 C1720 1.360 . S
C1719 H1780 0.929 . S
C1720 C1719 1.360 . S
C1720 C1721 1.401 . S
C1720 C1724 1.527 . S
C1721 C1720 1.401 . S
C1721 C1722 1.405 1_655 S
C1721 C1754 1.587 . S
C1722 C1721 1.405 1_455 S
C1722 C1723 1.332 . S
C1722 C1725 1.496 . S
C1723 C1718 1.418 . S
C1723 C1722 1.332 . S
C1723 H1781 0.929 . S
C1724 C1720 1.527 . S
C1724 H1782 0.959 . S
C1724 H1783 0.961 . S
C1724 H1784 0.961 . S
C1725 C1722 1.496 . S
C1725 H1785 0.960 . S
C1725 H1786 0.960 . S
C1725 H1787 0.961 . S
C1726 C1727 1.517 . S
C1726 H1789 0.961 . S
C1726 H1790 0.960 . S
C1726 H1791 0.959 . S
C1727 C1726 1.517 . S
C1727 O1775 1.468 . S
C1727 H1788 0.980 . S
C1728 C1729 1.349 . S
C1728 C1733 1.367 . S
C1728 O1775 1.408 . S
C1729 C1728 1.349 . S
C1729 C1730 1.407 . S
C1729 H1792 0.886 1_655 S
C1730 C1729 1.407 . S
C1730 C1731 1.449 . S
C1730 C1734 1.535 1_655 S
C1731 C1730 1.449 . S
C1731 C1732 1.384 . S
C1731 C1756 1.553 . S
C1732 C1731 1.384 . S
C1732 C1733 1.364 . S
C1732 C1735 1.450 . S
C1733 C1728 1.367 . S
C1733 C1732 1.364 . S
C1733 H1793 0.931 . S
C1734 C1730 1.535 1_455 S
C1734 H1794 0.959 . S
C1734 H1795 0.961 . S
C1734 H1796 0.959 . S
C1735 C1732 1.450 . S
C1735 H1797 0.960 . S
C1735 H1798 0.960 . S
C1735 H1799 0.960 . S
C1736 C1737 1.309 1_655 S
C1736 C1741 1.304 . S
C1736 O1774 1.435 . S
C1737 C1736 1.309 1_455 S
C1737 C1738 1.476 . S
C1737 H1801 0.930 . S
C1738 C1737 1.476 . S
C1738 C1739 1.400 1_455 S
C1738 C1742 1.567 . S
C1739 C1738 1.400 1_655 S
C1739 C1740 1.373 . S
C1739 C1761 1.432 . S
C1740 C1739 1.373 . S
C1740 C1741 1.339 . S
C1740 C1743 1.530 . S
C1741 C1736 1.304 . S
C1741 C1740 1.339 . S
C1741 H1802 0.930 . S
C1742 C1738 1.567 . S
C1742 H1803 0.961 . S
C1742 H1804 0.960 . S
C1742 H1805 0.958 . S
C1743 C1740 1.530 . S
C1743 H1806 0.961 . S
C1743 H1807 0.960 . S
C1743 H1808 0.960 . S
C1744 C1745 1.530 . S
C1744 H1810 0.961 . S
C1744 H1811 0.961 . S
C1744 H1812 0.959 . S
C1745 C1744 1.530 . S
C1745 O1773 1.412 . S
C1745 H1809 0.955 1_455 S
C1746 C1747 1.288 . S
C1746 C1751 1.377 1_455 S
C1746 O1773 1.393 . S
C1747 C1746 1.288 . S
C1747 C1748 1.369 . S
C1747 H1813 0.932 . S
C1748 C1747 1.369 . S
C1748 C1749 1.398 . S
C1748 C1752 1.527 . S
C1749 C1748 1.398 . S
C1749 C1750 1.380 1_455 S
C1749 C1763 1.497 1_455 S
C1750 C1749 1.380 1_655 S
C1750 C1751 1.383 . S
C1750 C1753 1.603 . S
C1751 C1746 1.377 1_655 S
C1751 C1750 1.383 . S
C1751 H1814 0.929 . S
C1752 C1748 1.527 . S
C1752 H1815 0.961 . S
C1752 H1816 0.959 . S
C1752 H1817 0.959 . S
C1753 C1750 1.603 . S
C1753 H1818 0.960 . S
C1753 H1819 0.962 . S
C1753 H1820 0.961 . S
C1754 C1721 1.587 . S
C1754 C1755 1.360 . S
C1754 C1767 1.412 . S
C1755 C1754 1.360 . S
C1755 C1756 1.365 . S
C1755 H1821 0.929 . S
C1756 C1731 1.553 . S
C1756 C1755 1.365 . S
C1756 C1757 1.404 . S
C1757 C1756 1.404 . S
C1757 C1758 1.395 . S
C1757 C1768 1.451 . S
C1758 C1757 1.395 . S
C1758 C1759 1.322 . S
C1758 H1822 0.930 . S
C1759 C1758 1.322 . S
C1759 C1760 1.459 . S
C1759 H1823 0.929 . S
C1760 C1759 1.459 . S
C1760 C1761 1.445 . S
C1760 C1769 1.395 . S
C1761 C1739 1.432 . S
C1761 C1760 1.445 . S
C1761 C1762 1.370 . S
C1762 C1761 1.370 . S
C1762 C1763 1.438 . S
C1762 H1824 0.930 . S
C1763 C1749 1.497 1_655 S
C1763 C1762 1.438 . S
C1763 C1764 1.360 . S
C1764 C1763 1.360 . S
C1764 C1765 1.401 . S
C1764 C1769 1.446 . S
C1765 C1764 1.401 . S
C1765 C1766 1.347 . S
C1765 H1825 0.929 . S
C1766 C1765 1.347 . S
C1766 C1767 1.455 . S
C1766 H1826 0.930 . S
C1767 C1754 1.412 . S
C1767 C1766 1.455 . S
C1767 C1768 1.331 . S
C1768 C1757 1.451 . S
C1768 C1767 1.331 . S
C1768 C1769 1.497 . S
C1769 C1760 1.395 . S
C1769 C1764 1.446 . S
C1769 C1768 1.497 . S
C1770 C1771 1.582 1_655 S
C1770 H1827 0.962 1_655 S
C1770 H1828 0.959 . S
C1770 H1829 0.958 . S
C1771 C1770 1.582 1_455 S
C1771 O1774 1.458 1_455 S
C1771 H1800 0.980 . S
O1772 C1717 1.448 . S
O1772 C1718 1.334 . S
O1773 C1745 1.412 . S
O1773 C1746 1.393 . S
O1774 C1736 1.435 . S
O1774 C1771 1.458 1_655 S
O1775 C1727 1.468 . S
O1775 C1728 1.408 . S
H1776 C1717 0.975 1_655 S
H1777 C1716 0.959 . S
H1778 C1716 0.959 . S
H1779 C1716 0.960 . S
H1780 C1719 0.929 . S
H1781 C1723 0.929 . S
H1782 C1724 0.959 . S
H1783 C1724 0.961 . S
H1784 C1724 0.961 . S
H1785 C1725 0.960 . S
H1786 C1725 0.960 . S
H1787 C1725 0.961 . S
H1788 C1727 0.980 . S
H1789 C1726 0.961 . S
H1790 C1726 0.960 . S
H1791 C1726 0.959 . S
H1792 C1729 0.886 1_455 S
H1793 C1733 0.931 . S
H1794 C1734 0.959 . S
H1795 C1734 0.961 . S
H1796 C1734 0.959 . S
H1797 C1735 0.960 . S
H1798 C1735 0.960 . S
H1799 C1735 0.960 . S
H1800 C1771 0.980 . S
H1801 C1737 0.930 . S
H1802 C1741 0.930 . S
H1803 C1742 0.961 . S
H1804 C1742 0.960 . S
H1805 C1742 0.958 . S
H1806 C1743 0.961 . S
H1807 C1743 0.960 . S
H1808 C1743 0.960 . S
H1809 C1745 0.955 1_655 S
H1810 C1744 0.961 . S
H1811 C1744 0.961 . S
H1812 C1744 0.959 . S
H1813 C1747 0.932 . S
H1814 C1751 0.929 . S
H1815 C1752 0.961 . S
H1816 C1752 0.959 . S
H1817 C1752 0.959 . S
H1818 C1753 0.960 . S
H1819 C1753 0.962 . S
H1820 C1753 0.961 . S
H1821 C1755 0.929 . S
H1822 C1758 0.930 . S
H1823 C1759 0.929 . S
H1824 C1762 0.930 . S
H1825 C1765 0.929 . S
H1826 C1766 0.930 . S
H1827 C1770 0.962 1_455 S
H1828 C1770 0.959 . S
H1829 C1770 0.958 . S
C1830 C1831 1.560 . S
C1830 H1891 0.959 . S
C1830 H1892 0.959 . S
C1830 H1893 0.960 . S
C1831 C1830 1.560 . S
C1831 O1886 1.426 . S
C1831 H1890 0.980 . S
C1832 C1833 1.407 . S
C1832 C1837 1.418 . S
C1832 O1886 1.334 . S
C1833 C1832 1.407 . S
C1833 C1834 1.360 . S
C1833 H1894 0.929 . S
C1834 C1833 1.360 . S
C1834 C1835 1.401 . S
C1834 C1838 1.527 . S
C1835 C1834 1.401 . S
C1835 C1836 1.405 . S
C1835 C1868 1.587 . S
C1836 C1835 1.405 . S
C1836 C1837 1.332 . S
C1836 C1839 1.496 . S
C1837 C1832 1.418 . S
C1837 C1836 1.332 . S
C1837 H1895 0.929 . S
C1838 C1834 1.527 . S
C1838 H1896 0.959 . S
C1838 H1897 0.961 . S
C1838 H1898 0.961 . S
C1839 C1836 1.496 . S
C1839 H1899 0.960 . S
C1839 H1900 0.960 . S
C1839 H1901 0.961 . S
C1840 C1841 1.517 . S
C1840 H1903 0.961 . S
C1840 H1904 0.960 . S
C1840 H1905 0.959 . S
C1841 C1840 1.517 . S
C1841 O1889 1.468 . S
C1841 H1902 0.980 . S
C1842 C1843 1.349 . S
C1842 C1847 1.367 . S
C1842 O1889 1.408 . S
C1843 C1842 1.349 . S
C1843 C1844 1.407 . S
C1843 H1906 0.930 . S
C1844 C1843 1.407 . S
C1844 C1845 1.449 . S
C1844 C1848 1.535 . S
C1845 C1844 1.449 . S
C1845 C1846 1.384 . S
C1845 C1870 1.553 . S
C1846 C1845 1.384 . S
C1846 C1847 1.364 . S
C1846 C1849 1.450 . S
C1847 C1842 1.367 . S
C1847 C1846 1.364 . S
C1847 H1907 0.931 . S
C1848 C1844 1.535 . S
C1848 H1908 0.959 . S
C1848 H1909 0.961 . S
C1848 H1910 0.959 . S
C1849 C1846 1.450 . S
C1849 H1911 0.960 . S
C1849 H1912 0.960 . S
C1849 H1913 0.960 . S
C1850 C1851 1.309 . S
C1850 C1855 1.304 . S
C1850 O1888 1.435 . S
C1851 C1850 1.309 . S
C1851 C1852 1.476 . S
C1851 H1915 0.930 . S
C1852 C1851 1.476 . S
C1852 C1853 1.400 . S
C1852 C1856 1.567 . S
C1853 C1852 1.400 . S
C1853 C1854 1.373 . S
C1853 C1875 1.432 . S
C1854 C1853 1.373 . S
C1854 C1855 1.339 . S
C1854 C1857 1.530 . S
C1855 C1850 1.304 . S
C1855 C1854 1.339 . S
C1855 H1916 0.930 . S
C1856 C1852 1.567 . S
C1856 H1917 0.961 . S
C1856 H1918 0.960 . S
C1856 H1919 0.958 . S
C1857 C1854 1.530 . S
C1857 H1920 0.961 . S
C1857 H1921 0.960 . S
C1857 H1922 0.960 . S
C1858 C1859 1.530 . S
C1858 H1924 0.961 . S
C1858 H1925 0.961 . S
C1858 H1926 0.959 . S
C1859 C1858 1.530 . S
C1859 O1887 1.412 . S
C1859 H1923 0.980 . S
C1860 C1861 1.288 . S
C1860 C1865 1.377 . S
C1860 O1887 1.393 . S
C1861 C1860 1.288 . S
C1861 C1862 1.369 . S
C1861 H1927 0.932 . S
C1862 C1861 1.369 . S
C1862 C1863 1.398 . S
C1862 C1866 1.527 . S
C1863 C1862 1.398 . S
C1863 C1864 1.380 . S
C1863 C1877 1.497 . S
C1864 C1863 1.380 . S
C1864 C1865 1.383 . S
C1864 C1867 1.603 . S
C1865 C1860 1.377 . S
C1865 C1864 1.383 . S
C1865 H1928 0.929 . S
C1866 C1862 1.527 . S
C1866 H1929 0.961 . S
C1866 H1930 0.959 . S
C1866 H1931 0.959 . S
C1867 C1864 1.603 . S
C1867 H1932 0.960 . S
C1867 H1933 0.962 . S
C1867 H1934 0.961 . S
C1868 C1835 1.587 . S
C1868 C1869 1.360 . S
C1868 C1881 1.412 . S
C1869 C1868 1.360 . S
C1869 C1870 1.365 . S
C1869 H1935 0.929 . S
C1870 C1845 1.553 . S
C1870 C1869 1.365 . S
C1870 C1871 1.404 . S
C1871 C1870 1.404 . S
C1871 C1872 1.395 . S
C1871 C1882 1.451 . S
C1872 C1871 1.395 . S
C1872 C1873 1.322 . S
C1872 H1936 0.930 . S
C1873 C1872 1.322 . S
C1873 C1874 1.459 . S
C1873 H1937 0.929 . S
C1874 C1873 1.459 . S
C1874 C1875 1.445 . S
C1874 C1883 1.395 . S
C1875 C1853 1.432 . S
C1875 C1874 1.445 . S
C1875 C1876 1.370 . S
C1876 C1875 1.370 . S
C1876 C1877 1.438 . S
C1876 H1938 0.930 . S
C1877 C1863 1.497 . S
C1877 C1876 1.438 . S
C1877 C1878 1.360 . S
C1878 C1877 1.360 . S
C1878 C1879 1.401 . S
C1878 C1883 1.446 . S
C1879 C1878 1.401 . S
C1879 C1880 1.347 . S
C1879 H1939 0.929 . S
C1880 C1879 1.347 . S
C1880 C1881 1.455 . S
C1880 H1940 0.930 . S
C1881 C1868 1.412 . S
C1881 C1880 1.455 . S
C1881 C1882 1.331 . S
C1882 C1871 1.451 . S
C1882 C1881 1.331 . S
C1882 C1883 1.497 . S
C1883 C1874 1.395 . S
C1883 C1878 1.446 . S
C1883 C1882 1.497 . S
C1884 C1885 1.582 . S
C1884 H1941 0.962 . S
C1884 H1942 0.959 . S
C1884 H1943 0.958 . S
C1885 C1884 1.582 . S
C1885 O1888 1.458 . S
C1885 H1914 0.980 . S
O1886 C1831 1.426 . S
O1886 C1832 1.334 . S
O1887 C1859 1.412 . S
O1887 C1860 1.393 . S
O1888 C1850 1.435 . S
O1888 C1885 1.458 . S
O1889 C1841 1.468 . S
O1889 C1842 1.408 . S
H1890 C1831 0.980 . S
H1891 C1830 0.959 . S
H1892 C1830 0.959 . S
H1893 C1830 0.960 . S
H1894 C1833 0.929 . S
H1895 C1837 0.929 . S
H1896 C1838 0.959 . S
H1897 C1838 0.961 . S
H1898 C1838 0.961 . S
H1899 C1839 0.960 . S
H1900 C1839 0.960 . S
H1901 C1839 0.961 . S
H1902 C1841 0.980 . S
H1903 C1840 0.961 . S
H1904 C1840 0.960 . S
H1905 C1840 0.959 . S
H1906 C1843 0.930 . S
H1907 C1847 0.931 . S
H1908 C1848 0.959 . S
H1909 C1848 0.961 . S
H1910 C1848 0.959 . S
H1911 C1849 0.960 . S
H1912 C1849 0.960 . S
H1913 C1849 0.960 . S
H1914 C1885 0.980 . S
H1915 C1851 0.930 . S
H1916 C1855 0.930 . S
H1917 C1856 0.961 . S
H1918 C1856 0.960 . S
H1919 C1856 0.958 . S
H1920 C1857 0.961 . S
H1921 C1857 0.960 . S
H1922 C1857 0.960 . S
H1923 C1859 0.980 . S
H1924 C1858 0.961 . S
H1925 C1858 0.961 . S
H1926 C1858 0.959 . S
H1927 C1861 0.932 . S
H1928 C1865 0.929 . S
H1929 C1866 0.961 . S
H1930 C1866 0.959 . S
H1931 C1866 0.959 . S
H1932 C1867 0.960 . S
H1933 C1867 0.962 . S
H1934 C1867 0.961 . S
H1935 C1869 0.929 . S
H1936 C1872 0.930 . S
H1937 C1873 0.929 . S
H1938 C1876 0.930 . S
H1939 C1879 0.929 . S
H1940 C1880 0.930 . S
H1941 C1884 0.962 . S
H1942 C1884 0.959 . S
H1943 C1884 0.958 . S
C1944 C1945 1.560 . S
C1944 H2005 0.959 . S
C1944 H2006 0.959 . S
C1944 H2007 0.960 . S
C1945 C1944 1.560 . S
C1945 O2000 1.426 . S
C1945 H2004 0.980 . S
C1946 C1947 1.407 . S
C1946 C1951 1.418 . S
C1946 O2000 1.334 . S
C1947 C1946 1.407 . S
C1947 C1948 1.360 . S
C1947 H2008 0.929 . S
C1948 C1947 1.360 . S
C1948 C1949 1.401 . S
C1948 C1952 1.527 . S
C1949 C1948 1.401 . S
C1949 C1950 1.405 . S
C1949 C1982 1.587 . S
C1950 C1949 1.405 . S
C1950 C1951 1.332 . S
C1950 C1953 1.496 . S
C1951 C1946 1.418 . S
C1951 C1950 1.332 . S
C1951 H2009 0.929 . S
C1952 C1948 1.527 . S
C1952 H2010 0.959 . S
C1952 H2011 0.961 . S
C1952 H2012 0.961 . S
C1953 C1950 1.496 . S
C1953 H2013 0.960 . S
C1953 H2014 0.960 . S
C1953 H2015 0.961 . S
C1954 C1955 1.517 . S
C1954 H2017 0.961 . S
C1954 H2018 0.960 . S
C1954 H2019 0.959 . S
C1955 C1954 1.517 . S
C1955 O2003 1.468 . S
C1955 H2016 0.980 . S
C1956 C1957 1.349 . S
C1956 C1961 1.367 . S
C1956 O2003 1.408 . S
C1957 C1956 1.349 . S
C1957 C1958 1.407 . S
C1957 H2020 0.930 . S
C1958 C1957 1.407 . S
C1958 C1959 1.449 . S
C1958 C1962 1.535 . S
C1959 C1958 1.449 . S
C1959 C1960 1.384 . S
C1959 C1984 1.553 . S
C1960 C1959 1.384 . S
C1960 C1961 1.364 . S
C1960 C1963 1.450 . S
C1961 C1956 1.367 . S
C1961 C1960 1.364 . S
C1961 H2021 0.931 . S
C1962 C1958 1.535 . S
C1962 H2022 0.959 . S
C1962 H2023 0.961 . S
C1962 H2024 0.959 . S
C1963 C1960 1.450 . S
C1963 H2025 0.960 . S
C1963 H2026 0.960 . S
C1963 H2027 0.960 . S
C1964 C1965 1.309 . S
C1964 C1969 1.304 . S
C1964 O2002 1.435 . S
C1965 C1964 1.309 . S
C1965 C1966 1.476 . S
C1965 H2029 0.930 . S
C1966 C1965 1.476 . S
C1966 C1967 1.400 . S
C1966 C1970 1.567 . S
C1967 C1966 1.400 . S
C1967 C1968 1.373 . S
C1967 C1989 1.432 . S
C1968 C1967 1.373 . S
C1968 C1969 1.339 . S
C1968 C1971 1.530 . S
C1969 C1964 1.304 . S
C1969 C1968 1.339 . S
C1969 H2030 0.930 . S
C1970 C1966 1.567 . S
C1970 H2031 0.961 . S
C1970 H2032 0.960 . S
C1970 H2033 0.958 . S
C1971 C1968 1.530 . S
C1971 H2034 0.961 . S
C1971 H2035 0.960 . S
C1971 H2036 0.960 . S
C1972 C1973 1.530 . S
C1972 H2038 0.961 . S
C1972 H2039 0.961 . S
C1972 H2040 0.959 . S
C1973 C1972 1.530 . S
C1973 O2001 1.412 . S
C1973 H2037 0.980 . S
C1974 C1975 1.288 . S
C1974 C1979 1.377 . S
C1974 O2001 1.393 . S
C1975 C1974 1.288 . S
C1975 C1976 1.369 . S
C1975 H2041 0.932 . S
C1976 C1975 1.369 . S
C1976 C1977 1.398 . S
C1976 C1980 1.527 . S
C1977 C1976 1.398 . S
C1977 C1978 1.380 . S
C1977 C1991 1.497 . S
C1978 C1977 1.380 . S
C1978 C1979 1.383 . S
C1978 C1981 1.603 . S
C1979 C1974 1.377 . S
C1979 C1978 1.383 . S
C1979 H2042 0.929 . S
C1980 C1976 1.527 . S
C1980 H2043 0.961 . S
C1980 H2044 0.959 . S
C1980 H2045 0.959 . S
C1981 C1978 1.603 . S
C1981 H2046 0.960 . S
C1981 H2047 0.962 . S
C1981 H2048 0.961 . S
C1982 C1949 1.587 . S
C1982 C1983 1.360 . S
C1982 C1995 1.412 . S
C1983 C1982 1.360 . S
C1983 C1984 1.365 . S
C1983 H2049 0.929 . S
C1984 C1959 1.553 . S
C1984 C1983 1.365 . S
C1984 C1985 1.404 . S
C1985 C1984 1.404 . S
C1985 C1986 1.395 . S
C1985 C1996 1.451 . S
C1986 C1985 1.395 . S
C1986 C1987 1.322 . S
C1986 H2050 0.930 . S
C1987 C1986 1.322 . S
C1987 C1988 1.459 . S
C1987 H2051 0.929 . S
C1988 C1987 1.459 . S
C1988 C1989 1.445 . S
C1988 C1997 1.395 . S
C1989 C1967 1.432 . S
C1989 C1988 1.445 . S
C1989 C1990 1.370 . S
C1990 C1989 1.370 . S
C1990 C1991 1.438 . S
C1990 H2052 0.930 . S
C1991 C1977 1.497 . S
C1991 C1990 1.438 . S
C1991 C1992 1.360 . S
C1992 C1991 1.360 . S
C1992 C1993 1.401 . S
C1992 C1997 1.446 . S
C1993 C1992 1.401 . S
C1993 C1994 1.347 . S
C1993 H2053 0.929 . S
C1994 C1993 1.347 . S
C1994 C1995 1.455 . S
C1994 H2054 0.930 . S
C1995 C1982 1.412 . S
C1995 C1994 1.455 . S
C1995 C1996 1.331 . S
C1996 C1985 1.451 . S
C1996 C1995 1.331 . S
C1996 C1997 1.497 . S
C1997 C1988 1.395 . S
C1997 C1992 1.446 . S
C1997 C1996 1.497 . S
C1998 C1999 1.582 . S
C1998 H2055 0.962 . S
C1998 H2056 0.959 . S
C1998 H2057 0.958 . S
C1999 C1998 1.582 . S
C1999 O2002 1.458 . S
C1999 H2028 0.980 . S
O2000 C1945 1.426 . S
O2000 C1946 1.334 . S
O2001 C1973 1.412 . S
O2001 C1974 1.393 . S
O2002 C1964 1.435 . S
O2002 C1999 1.458 . S
O2003 C1955 1.468 . S
O2003 C1956 1.408 . S
H2004 C1945 0.980 . S
H2005 C1944 0.959 . S
H2006 C1944 0.959 . S
H2007 C1944 0.960 . S
H2008 C1947 0.929 . S
H2009 C1951 0.929 . S
H2010 C1952 0.959 . S
H2011 C1952 0.961 . S
H2012 C1952 0.961 . S
H2013 C1953 0.960 . S
H2014 C1953 0.960 . S
H2015 C1953 0.961 . S
H2016 C1955 0.980 . S
H2017 C1954 0.961 . S
H2018 C1954 0.960 . S
H2019 C1954 0.959 . S
H2020 C1957 0.930 . S
H2021 C1961 0.931 . S
H2022 C1962 0.959 . S
H2023 C1962 0.961 . S
H2024 C1962 0.959 . S
H2025 C1963 0.960 . S
H2026 C1963 0.960 . S
H2027 C1963 0.960 . S
H2028 C1999 0.980 . S
H2029 C1965 0.930 . S
H2030 C1969 0.930 . S
H2031 C1970 0.961 . S
H2032 C1970 0.960 . S
H2033 C1970 0.958 . S
H2034 C1971 0.961 . S
H2035 C1971 0.960 . S
H2036 C1971 0.960 . S
H2037 C1973 0.980 . S
H2038 C1972 0.961 . S
H2039 C1972 0.961 . S
H2040 C1972 0.959 . S
H2041 C1975 0.932 . S
H2042 C1979 0.929 . S
H2043 C1980 0.961 . S
H2044 C1980 0.959 . S
H2045 C1980 0.959 . S
H2046 C1981 0.960 . S
H2047 C1981 0.962 . S
H2048 C1981 0.961 . S
H2049 C1983 0.929 . S
H2050 C1986 0.930 . S
H2051 C1987 0.929 . S
H2052 C1990 0.930 . S
H2053 C1993 0.929 . S
H2054 C1994 0.930 . S
H2055 C1998 0.962 . S
H2056 C1998 0.959 . S
H2057 C1998 0.958 . S
C2058 C2059 1.560 . S
C2058 H2119 0.959 . S
C2058 H2120 0.959 . S
C2058 H2121 0.960 . S
C2059 C2058 1.560 . S
C2059 O2114 1.426 . S
C2059 H2118 0.980 . S
C2060 C2061 1.407 . S
C2060 C2065 1.418 . S
C2060 O2114 1.334 . S
C2061 C2060 1.407 . S
C2061 C2062 1.360 . S
C2061 H2122 0.929 . S
C2062 C2061 1.360 . S
C2062 C2063 1.401 . S
C2062 C2066 1.527 . S
C2063 C2062 1.401 . S
C2063 C2064 1.405 . S
C2063 C2096 1.587 . S
C2064 C2063 1.405 . S
C2064 C2065 1.332 . S
C2064 C2067 1.496 . S
C2065 C2060 1.418 . S
C2065 C2064 1.332 . S
C2065 H2123 0.929 . S
C2066 C2062 1.527 . S
C2066 H2124 0.959 . S
C2066 H2125 0.961 . S
C2066 H2126 0.961 . S
C2067 C2064 1.496 . S
C2067 H2127 0.960 . S
C2067 H2128 0.960 . S
C2067 H2129 0.961 . S
C2068 C2069 1.517 . S
C2068 H2131 0.961 . S
C2068 H2132 0.960 . S
C2068 H2133 0.959 . S
C2069 C2068 1.517 . S
C2069 O2117 1.468 . S
C2069 H2130 0.980 . S
C2070 C2071 1.349 . S
C2070 C2075 1.367 . S
C2070 O2117 1.408 . S
C2071 C2070 1.349 . S
C2071 C2072 1.407 . S
C2071 H2134 0.930 . S
C2072 C2071 1.407 . S
C2072 C2073 1.449 . S
C2072 C2076 1.535 . S
C2073 C2072 1.449 . S
C2073 C2074 1.384 . S
C2073 C2098 1.553 . S
C2074 C2073 1.384 . S
C2074 C2075 1.364 . S
C2074 C2077 1.450 . S
C2075 C2070 1.367 . S
C2075 C2074 1.364 . S
C2075 H2135 0.931 . S
C2076 C2072 1.535 . S
C2076 H2136 0.959 . S
C2076 H2137 0.961 . S
C2076 H2138 0.959 . S
C2077 C2074 1.450 . S
C2077 H2139 0.960 . S
C2077 H2140 0.960 . S
C2077 H2141 0.960 . S
C2078 C2079 1.309 . S
C2078 C2083 1.304 . S
C2078 O2116 1.435 . S
C2079 C2078 1.309 . S
C2079 C2080 1.476 . S
C2079 H2143 0.930 . S
C2080 C2079 1.476 . S
C2080 C2081 1.400 . S
C2080 C2084 1.567 . S
C2081 C2080 1.400 . S
C2081 C2082 1.373 . S
C2081 C2103 1.432 . S
C2082 C2081 1.373 . S
C2082 C2083 1.339 . S
C2082 C2085 1.530 . S
C2083 C2078 1.304 . S
C2083 C2082 1.339 . S
C2083 H2144 0.930 . S
C2084 C2080 1.567 . S
C2084 H2145 0.961 . S
C2084 H2146 0.960 . S
C2084 H2147 0.958 . S
C2085 C2082 1.530 . S
C2085 H2148 0.961 . S
C2085 H2149 0.960 . S
C2085 H2150 0.960 . S
C2086 C2087 1.530 . S
C2086 H2152 0.961 . S
C2086 H2153 0.961 . S
C2086 H2154 0.959 . S
C2087 C2086 1.530 . S
C2087 O2115 1.412 . S
C2087 H2151 0.980 . S
C2088 C2089 1.288 . S
C2088 C2093 1.377 . S
C2088 O2115 1.393 . S
C2089 C2088 1.288 . S
C2089 C2090 1.369 . S
C2089 H2155 0.932 . S
C2090 C2089 1.369 . S
C2090 C2091 1.398 . S
C2090 C2094 1.527 . S
C2091 C2090 1.398 . S
C2091 C2092 1.380 . S
C2091 C2105 1.497 . S
C2092 C2091 1.380 . S
C2092 C2093 1.383 . S
C2092 C2095 1.603 . S
C2093 C2088 1.377 . S
C2093 C2092 1.383 . S
C2093 H2156 0.929 . S
C2094 C2090 1.527 . S
C2094 H2157 0.961 . S
C2094 H2158 0.959 . S
C2094 H2159 0.959 . S
C2095 C2092 1.603 . S
C2095 H2160 0.960 . S
C2095 H2161 0.962 . S
C2095 H2162 0.961 . S
C2096 C2063 1.587 . S
C2096 C2097 1.360 . S
C2096 C2109 1.412 . S
C2097 C2096 1.360 . S
C2097 C2098 1.365 . S
C2097 H2163 0.929 . S
C2098 C2073 1.553 . S
C2098 C2097 1.365 . S
C2098 C2099 1.404 . S
C2099 C2098 1.404 . S
C2099 C2100 1.395 . S
C2099 C2110 1.451 . S
C2100 C2099 1.395 . S
C2100 C2101 1.322 . S
C2100 H2164 0.930 . S
C2101 C2100 1.322 . S
C2101 C2102 1.459 . S
C2101 H2165 0.929 . S
C2102 C2101 1.459 . S
C2102 C2103 1.445 . S
C2102 C2111 1.395 . S
C2103 C2081 1.432 . S
C2103 C2102 1.445 . S
C2103 C2104 1.370 . S
C2104 C2103 1.370 . S
C2104 C2105 1.438 . S
C2104 H2166 0.930 . S
C2105 C2091 1.497 . S
C2105 C2104 1.438 . S
C2105 C2106 1.360 . S
C2106 C2105 1.360 . S
C2106 C2107 1.401 . S
C2106 C2111 1.446 . S
C2107 C2106 1.401 . S
C2107 C2108 1.347 . S
C2107 H2167 0.929 . S
C2108 C2107 1.347 . S
C2108 C2109 1.455 . S
C2108 H2168 0.930 . S
C2109 C2096 1.412 . S
C2109 C2108 1.455 . S
C2109 C2110 1.331 . S
C2110 C2099 1.451 . S
C2110 C2109 1.331 . S
C2110 C2111 1.497 . S
C2111 C2102 1.395 . S
C2111 C2106 1.446 . S
C2111 C2110 1.497 . S
C2112 C2113 1.582 . S
C2112 H2169 0.962 . S
C2112 H2170 0.959 . S
C2112 H2171 0.958 . S
C2113 C2112 1.582 . S
C2113 O2116 1.458 . S
C2113 H2142 0.980 . S
O2114 C2059 1.426 . S
O2114 C2060 1.334 . S
O2115 C2087 1.412 . S
O2115 C2088 1.393 . S
O2116 C2078 1.435 . S
O2116 C2113 1.458 . S
O2117 C2069 1.468 . S
O2117 C2070 1.408 . S
H2118 C2059 0.980 . S
H2119 C2058 0.959 . S
H2120 C2058 0.959 . S
H2121 C2058 0.960 . S
H2122 C2061 0.929 . S
H2123 C2065 0.929 . S
H2124 C2066 0.959 . S
H2125 C2066 0.961 . S
H2126 C2066 0.961 . S
H2127 C2067 0.960 . S
H2128 C2067 0.960 . S
H2129 C2067 0.961 . S
H2130 C2069 0.980 . S
H2131 C2068 0.961 . S
H2132 C2068 0.960 . S
H2133 C2068 0.959 . S
H2134 C2071 0.930 . S
H2135 C2075 0.931 . S
H2136 C2076 0.959 . S
H2137 C2076 0.961 . S
H2138 C2076 0.959 . S
H2139 C2077 0.960 . S
H2140 C2077 0.960 . S
H2141 C2077 0.960 . S
H2142 C2113 0.980 . S
H2143 C2079 0.930 . S
H2144 C2083 0.930 . S
H2145 C2084 0.961 . S
H2146 C2084 0.960 . S
H2147 C2084 0.958 . S
H2148 C2085 0.961 . S
H2149 C2085 0.960 . S
H2150 C2085 0.960 . S
H2151 C2087 0.980 . S
H2152 C2086 0.961 . S
H2153 C2086 0.961 . S
H2154 C2086 0.959 . S
H2155 C2089 0.932 . S
H2156 C2093 0.929 . S
H2157 C2094 0.961 . S
H2158 C2094 0.959 . S
H2159 C2094 0.959 . S
H2160 C2095 0.960 . S
H2161 C2095 0.962 . S
H2162 C2095 0.961 . S
H2163 C2097 0.929 . S
H2164 C2100 0.930 . S
H2165 C2101 0.929 . S
H2166 C2104 0.930 . S
H2167 C2107 0.929 . S
H2168 C2108 0.930 . S
H2169 C2112 0.962 . S
H2170 C2112 0.959 . S
H2171 C2112 0.958 . S
C2172 C2173 1.560 . S
C2172 H2233 0.959 . S
C2172 H2234 0.959 . S
C2172 H2235 0.960 . S
C2173 C2172 1.560 . S
C2173 O2228 1.426 . S
C2173 H2232 0.980 . S
C2174 C2175 1.407 . S
C2174 C2179 1.418 . S
C2174 O2228 1.334 . S
C2175 C2174 1.407 . S
C2175 C2176 1.360 . S
C2175 H2236 0.929 . S
C2176 C2175 1.360 . S
C2176 C2177 1.401 . S
C2176 C2180 1.527 . S
C2177 C2176 1.401 . S
C2177 C2178 1.405 . S
C2177 C2210 1.587 . S
C2178 C2177 1.405 . S
C2178 C2179 1.332 . S
C2178 C2181 1.496 . S
C2179 C2174 1.418 . S
C2179 C2178 1.332 . S
C2179 H2237 0.929 . S
C2180 C2176 1.527 . S
C2180 H2238 0.959 . S
C2180 H2239 0.961 . S
C2180 H2240 0.961 . S
C2181 C2178 1.496 . S
C2181 H2241 0.960 . S
C2181 H2242 0.960 . S
C2181 H2243 0.961 . S
C2182 C2183 1.517 . S
C2182 H2245 0.961 . S
C2182 H2246 0.960 . S
C2182 H2247 0.959 . S
C2183 C2182 1.517 . S
C2183 O2231 1.468 . S
C2183 H2244 0.980 . S
C2184 C2185 1.349 . S
C2184 C2189 1.367 . S
C2184 O2231 1.408 . S
C2185 C2184 1.349 . S
C2185 C2186 1.407 . S
C2185 H2248 0.930 . S
C2186 C2185 1.407 . S
C2186 C2187 1.449 . S
C2186 C2190 1.535 . S
C2187 C2186 1.449 . S
C2187 C2188 1.384 . S
C2187 C2212 1.553 . S
C2188 C2187 1.384 . S
C2188 C2189 1.364 . S
C2188 C2191 1.450 . S
C2189 C2184 1.367 . S
C2189 C2188 1.364 . S
C2189 H2249 0.931 . S
C2190 C2186 1.535 . S
C2190 H2250 0.959 . S
C2190 H2251 0.961 . S
C2190 H2252 0.959 . S
C2191 C2188 1.450 . S
C2191 H2253 0.960 . S
C2191 H2254 0.960 . S
C2191 H2255 0.960 . S
C2192 C2193 1.309 . S
C2192 C2197 1.304 . S
C2192 O2230 1.435 . S
C2193 C2192 1.309 . S
C2193 C2194 1.476 . S
C2193 H2257 0.930 . S
C2194 C2193 1.476 . S
C2194 C2195 1.400 . S
C2194 C2198 1.567 . S
C2195 C2194 1.400 . S
C2195 C2196 1.373 . S
C2195 C2217 1.432 . S
C2196 C2195 1.373 . S
C2196 C2197 1.339 . S
C2196 C2199 1.530 . S
C2197 C2192 1.304 . S
C2197 C2196 1.339 . S
C2197 H2258 0.930 . S
C2198 C2194 1.567 . S
C2198 H2259 0.961 . S
C2198 H2260 0.960 . S
C2198 H2261 0.958 . S
C2199 C2196 1.530 . S
C2199 H2262 0.961 . S
C2199 H2263 0.960 . S
C2199 H2264 0.960 . S
C2200 C2201 1.530 . S
C2200 H2266 0.961 . S
C2200 H2267 0.961 . S
C2200 H2268 0.959 . S
C2201 C2200 1.530 . S
C2201 O2229 1.412 . S
C2201 H2265 0.980 . S
C2202 C2203 1.288 . S
C2202 C2207 1.377 . S
C2202 O2229 1.393 . S
C2203 C2202 1.288 . S
C2203 C2204 1.369 . S
C2203 H2269 0.932 . S
C2204 C2203 1.369 . S
C2204 C2205 1.398 . S
C2204 C2208 1.527 . S
C2205 C2204 1.398 . S
C2205 C2206 1.380 . S
C2205 C2219 1.497 . S
C2206 C2205 1.380 . S
C2206 C2207 1.383 . S
C2206 C2209 1.603 . S
C2207 C2202 1.377 . S
C2207 C2206 1.383 . S
C2207 H2270 0.929 . S
C2208 C2204 1.527 . S
C2208 H2271 0.961 . S
C2208 H2272 0.959 . S
C2208 H2273 0.959 . S
C2209 C2206 1.603 . S
C2209 H2274 0.960 . S
C2209 H2275 0.962 . S
C2209 H2276 0.961 . S
C2210 C2177 1.587 . S
C2210 C2211 1.360 . S
C2210 C2223 1.412 . S
C2211 C2210 1.360 . S
C2211 C2212 1.365 . S
C2211 H2277 0.929 . S
C2212 C2187 1.553 . S
C2212 C2211 1.365 . S
C2212 C2213 1.404 . S
C2213 C2212 1.404 . S
C2213 C2214 1.395 . S
C2213 C2224 1.451 . S
C2214 C2213 1.395 . S
C2214 C2215 1.322 . S
C2214 H2278 0.930 . S
C2215 C2214 1.322 . S
C2215 C2216 1.459 . S
C2215 H2279 0.929 . S
C2216 C2215 1.459 . S
C2216 C2217 1.445 . S
C2216 C2225 1.395 . S
C2217 C2195 1.432 . S
C2217 C2216 1.445 . S
C2217 C2218 1.370 . S
C2218 C2217 1.370 . S
C2218 C2219 1.438 . S
C2218 H2280 0.930 . S
C2219 C2205 1.497 . S
C2219 C2218 1.438 . S
C2219 C2220 1.360 . S
C2220 C2219 1.360 . S
C2220 C2221 1.401 . S
C2220 C2225 1.446 . S
C2221 C2220 1.401 . S
C2221 C2222 1.347 . S
C2221 H2281 0.929 . S
C2222 C2221 1.347 . S
C2222 C2223 1.455 . S
C2222 H2282 0.930 . S
C2223 C2210 1.412 . S
C2223 C2222 1.455 . S
C2223 C2224 1.331 . S
C2224 C2213 1.451 . S
C2224 C2223 1.331 . S
C2224 C2225 1.497 . S
C2225 C2216 1.395 . S
C2225 C2220 1.446 . S
C2225 C2224 1.497 . S
C2226 C2227 1.582 . S
C2226 H2283 0.962 . S
C2226 H2284 0.959 . S
C2226 H2285 0.958 . S
C2227 C2226 1.582 . S
C2227 O2230 1.458 . S
C2227 H2256 0.980 . S
O2228 C2173 1.426 . S
O2228 C2174 1.334 . S
O2229 C2201 1.412 . S
O2229 C2202 1.393 . S
O2230 C2192 1.435 . S
O2230 C2227 1.458 . S
O2231 C2183 1.468 . S
O2231 C2184 1.408 . S
H2232 C2173 0.980 . S
H2233 C2172 0.959 . S
H2234 C2172 0.959 . S
H2235 C2172 0.960 . S
H2236 C2175 0.929 . S
H2237 C2179 0.929 . S
H2238 C2180 0.959 . S
H2239 C2180 0.961 . S
H2240 C2180 0.961 . S
H2241 C2181 0.960 . S
H2242 C2181 0.960 . S
H2243 C2181 0.961 . S
H2244 C2183 0.980 . S
H2245 C2182 0.961 . S
H2246 C2182 0.960 . S
H2247 C2182 0.959 . S
H2248 C2185 0.930 . S
H2249 C2189 0.931 . S
H2250 C2190 0.959 . S
H2251 C2190 0.961 . S
H2252 C2190 0.959 . S
H2253 C2191 0.960 . S
H2254 C2191 0.960 . S
H2255 C2191 0.960 . S
H2256 C2227 0.980 . S
H2257 C2193 0.930 . S
H2258 C2197 0.930 . S
H2259 C2198 0.961 . S
H2260 C2198 0.960 . S
H2261 C2198 0.958 . S
H2262 C2199 0.961 . S
H2263 C2199 0.960 . S
H2264 C2199 0.960 . S
H2265 C2201 0.980 . S
H2266 C2200 0.961 . S
H2267 C2200 0.961 . S
H2268 C2200 0.959 . S
H2269 C2203 0.932 . S
H2270 C2207 0.929 . S
H2271 C2208 0.961 . S
H2272 C2208 0.959 . S
H2273 C2208 0.959 . S
H2274 C2209 0.960 . S
H2275 C2209 0.962 . S
H2276 C2209 0.961 . S
H2277 C2211 0.929 . S
H2278 C2214 0.930 . S
H2279 C2215 0.929 . S
H2280 C2218 0.930 . S
H2281 C2221 0.929 . S
H2282 C2222 0.930 . S
H2283 C2226 0.962 . S
H2284 C2226 0.959 . S
H2285 C2226 0.958 . S
C8 C1289 0.952 1_655 S
C18 C1429 1.458 . S
C1517 C31 1.032 . S
C34 C1657 1.230 1_565 S
C5 C1771 0.879 . S
C21 C1859 1.818 . S
C47 C1745 0.817 . S
C1885 C57 2.058 . S
C1631 C70 0.799 . S
C73 C1543 1.120 . S
C1315 C44 0.847 . S
C60 C1403 2.208 . S
C86 C1973 1.996 . S
C96 C2113 1.943 . S
C2201 C109 2.051 . S
C112 C289 2.306 . S
C83 C403 1.960 . S
C99 C491 2.255 . S
C125 C377 2.300 . S
C135 C517 2.519 . S
C263 C148 2.423 . S
C2227 C151 2.988 . S
C1999 C122 2.662 . S
C2087 C138 2.693 . S
C164 C605 1.840 . S
C174 C745 1.924 . S
C187 C833 1.972 . S
C190 C973 2.438 . S
C1087 C161 2.051 . S
C1175 C177 2.313 . S
C1061 C203 2.435 . S
C1201 C213 2.542 . S
C226 C947 2.506 . S
C859 C229 2.885 . S
C200 C631 2.569 . S
C719 C216 2.636 . S
C245 C0 1.728 . S
C23 C359 2.153 . S
C463 C36 2.354 . S
C577 C26 2.034 . S
C701 C10 2.281 . S
C805 C13 2.171 1_554 S
C39 C815 3.054 . S
C62 C587 3.424 . S
C75 C691 3.603 . S
C65 C349 3.213 . S
C473 C49 3.700 . S
C52 C235 3.353 . S
C929 C78 1.623 . S
C101 C1043 2.054 . S
C114 C1147 2.321 . S
C1261 C104 1.307 . S
C88 C1385 1.919 . S
C91 C1489 1.233 . S
C117 C1499 0.689 1_565 S
C140 C1271 1.358 1_455 S
C1375 C153 3.158 . S
C143 C1033 3.217 . S
C127 C1157 3.420 . S
C919 C130 3.271 . S
C1613 C156 0.728 . S
C179 C1727 0.757 . S
C192 C1831 2.018 . S
C1945 C182 2.082 . S
C2069 C166 2.163 . S
C169 C2173 2.132 . S
C195 C2183 2.957 . S
C218 C1955 3.342 . S
C2059 C231 3.379 . S
C1717 C221 1.468 1_455 S
C1841 C205 3.235 . S
C208 C1603 1.383 1_545 S
