# Generated by pormake.
# Topology anh, (6,3)-cn, num edge types: 1
# Building blocks:
#     Node 0, Type 0, BuildingBlock: PAMTOO_clean_sbu_0, # of connection points: 6
#     Node 1, Type 0, BuildingBlock: PAMTOO_clean_sbu_0, # of connection points: 6
#     Node 2, Type 0, BuildingBlock: PAMTOO_clean_sbu_0, # of connection points: 6
#     Node 3, Type 1, BuildingBlock: BETDIP_clean_linker_0, # of connection points: 3
#     Node 4, Type 1, BuildingBlock: BETDIP_clean_linker_0, # of connection points: 3
#     Node 5, Type 1, BuildingBlock: BETDIP_clean_linker_0, # of connection points: 3
#     Node 6, Type 1, BuildingBlock: BETDIP_clean_linker_0, # of connection points: 3
#     Node 7, Type 1, BuildingBlock: BETDIP_clean_linker_0, # of connection points: 3
#     Node 8, Type 1, BuildingBlock: BETDIP_clean_linker_0, # of connection points: 3
#     Edge 9, Type (0, 1), BuildingBlock: CIFDUS_clean_linker_0, # of connection points: 2
#     Edge 10, Type (0, 1), BuildingBlock: CIFDUS_clean_linker_0, # of connection points: 2
#     Edge 11, Type (0, 1), BuildingBlock: CIFDUS_clean_linker_0, # of connection points: 2
#     Edge 12, Type (0, 1), BuildingBlock: CIFDUS_clean_linker_0, # of connection points: 2
#     Edge 13, Type (0, 1), BuildingBlock: CIFDUS_clean_linker_0, # of connection points: 2
#     Edge 14, Type (0, 1), BuildingBlock: CIFDUS_clean_linker_0, # of connection points: 2
#     Edge 15, Type (0, 1), BuildingBlock: CIFDUS_clean_linker_0, # of connection points: 2
#     Edge 16, Type (0, 1), BuildingBlock: CIFDUS_clean_linker_0, # of connection points: 2
#     Edge 17, Type (0, 1), BuildingBlock: CIFDUS_clean_linker_0, # of connection points: 2
#     Edge 18, Type (0, 1), BuildingBlock: CIFDUS_clean_linker_0, # of connection points: 2
#     Edge 19, Type (0, 1), BuildingBlock: CIFDUS_clean_linker_0, # of connection points: 2
#     Edge 20, Type (0, 1), BuildingBlock: CIFDUS_clean_linker_0, # of connection points: 2
#     Edge 21, Type (0, 1), BuildingBlock: CIFDUS_clean_linker_0, # of connection points: 2
#     Edge 22, Type (0, 1), BuildingBlock: CIFDUS_clean_linker_0, # of connection points: 2
#     Edge 23, Type (0, 1), BuildingBlock: CIFDUS_clean_linker_0, # of connection points: 2
#     Edge 24, Type (0, 1), BuildingBlock: CIFDUS_clean_linker_0, # of connection points: 2
#     Edge 25, Type (0, 1), BuildingBlock: CIFDUS_clean_linker_0, # of connection points: 2
#     Edge 26, Type (0, 1), BuildingBlock: CIFDUS_clean_linker_0, # of connection points: 2
# Relax obj value: 0.183
# Max RMSD: 0.211
# Mean RMSD: 0.131
data_MOF--net-anh--node1-PAMTOO_clean_sbu_0--node2-BETDIP_clean_linker_0--edge1-CIFDUS_clean_linker_0
_symmetry_space_group_name_H-M    P1
_symmetry_Int_Tables_number       1
_symmetry_cell_setting            triclinic
loop_
_symmetry_equiv_pos_as_xyz
'x, y, z'
_cell_length_a     26.408283
_cell_length_b     25.937689
_cell_length_c     43.549267
_cell_angle_alpha  92.469256
_cell_angle_beta   95.936253
_cell_angle_gamma 99.620602
loop_
_atom_site_label
_atom_site_type_symbol
_atom_site_fract_x
_atom_site_fract_y
_atom_site_fract_z
_atom_type_partial_charge
Dy0 Dy 0.13713 0.66616 0.14968 0.0
Dy1 Dy 0.10721 0.54371 0.12075 0.0
C2 C 0.13399 0.63973 0.07707 0.0
O3 O 1.0501 0.65373 0.1352 0.0
O4 O 1.03777 0.56534 0.13963 0.0
O5 O 0.13938 0.74957 0.14661 0.0
O6 O 0.17283 0.71948 0.18821 0.0
O7 O 0.13376 0.54236 0.17113 0.0
O8 O 0.10752 0.61767 0.18695 0.0
O9 O 0.19133 0.56364 0.11576 0.0
O10 O 0.213 0.63504 0.15093 0.0
O11 O 0.11492 0.46193 0.12028 0.0
O12 O 1.05279 0.48621 0.09116 0.0
C13 C 1.01876 0.60865 0.13647 0.0
O14 O 0.15583 0.66952 0.10146 0.0
O15 O 0.1075 0.59247 0.07917 0.0
C16 C 0.21654 0.79868 0.17252 0.0
C17 C 0.31143 0.86875 0.17499 0.0
C18 C 0.30438 0.81947 0.15877 0.0
C19 C 0.25735 0.78482 0.15751 0.0
C20 C 0.22302 0.84792 0.18831 0.0
C21 C 0.26995 0.88267 0.18951 0.0
C22 C 0.16828 0.76101 0.173 0.0
C23 C 0.12007 0.57209 0.19277 0.0
C24 C 0.22625 0.59794 0.13315 0.0
C25 C 1.03242 0.40755 0.11577 0.0
C26 C 0.95309 0.33755 0.13921 0.0
C27 C 0.98794 0.37453 0.15911 0.0
C28 C 1.02685 0.40929 0.14752 0.0
C29 C 0.9984 0.37035 0.09586 0.0
C30 C 0.95917 0.33573 0.10741 0.0
C31 C 1.07089 0.44684 0.10313 0.0
H32 H 0.33524 0.80762 0.14709 0.0
H33 H 0.25303 0.74688 0.14518 0.0
H34 H 0.19209 0.85915 0.2002 0.0
H35 H 0.27421 0.91989 0.20261 0.0
H36 H 0.98525 0.37673 0.18376 0.0
H37 H 1.05222 0.43802 0.16338 0.0
H38 H 1.00151 0.36877 0.07124 0.0
H39 H 0.93279 0.30845 0.09125 0.0
Dy40 Dy 0.55778 1.0096 0.51501 0.0
Dy41 Dy 0.68406 0.04511 0.52321 0.0
C42 C 0.62084 0.03313 0.57998 0.0
O43 O 0.56838 0.09435 0.50587 0.0
O44 O 0.65344 0.12051 0.52599 0.0
O45 O 0.49108 0.9792 0.53751 0.0
O46 O 0.4816 1.00189 0.49014 0.0
O47 O 0.65795 0.05527 0.47373 0.0
O48 O 0.58283 0.99507 0.46852 0.0
O49 O 0.67243 0.95869 0.51412 0.0
O50 O 0.58795 0.9351 0.52403 0.0
O51 O 0.75958 0.04268 0.50919 0.0
O52 O 0.75163 0.08796 0.551 0.0
C53 C 0.60829 0.13117 0.51497 0.0
O54 O 0.58428 0.04832 0.56186 0.0
O55 O 0.65941 0.01719 0.56806 0.0
C56 C 0.42164 0.93075 0.50473 0.0
C57 C 0.34924 0.83771 0.49117 0.0
C58 C 0.35358 0.86527 0.52009 0.0
C59 C 0.38929 0.91146 0.52672 0.0
C60 C 0.41792 0.90309 0.47593 0.0
C61 C 0.38187 0.8571 0.46918 0.0
C62 C 0.45915 0.97931 0.51261 0.0
C63 C 0.61964 0.02534 0.45639 0.0
C64 C 0.63324 0.9232 0.51952 0.0
C65 C 0.81472 0.12413 0.52042 0.0
C66 C 0.87117 0.21803 0.50289 0.0
C67 C 0.83125 0.1885 0.48229 0.0
C68 C 0.80303 0.14224 0.49106 0.0
C69 C 0.85505 0.15282 0.54085 0.0
C70 C 0.88306 0.19948 0.5322 0.0
C71 C 0.78238 0.07794 0.53077 0.0
H72 H 0.32954 0.85105 0.53769 0.0
H73 H 0.39176 0.93213 0.54914 0.0
H74 H 0.44258 0.91702 0.45857 0.0
H75 H 0.37895 0.83731 0.44649 0.0
H76 H 0.82171 0.20113 0.45935 0.0
H77 H 0.7716 0.12106 0.47499 0.0
H78 H 0.8641 0.13973 0.56376 0.0
H79 H 0.91315 0.2216 0.54872 0.0
Dy80 Dy 0.64076 0.4567 0.84022 0.0
Dy81 Dy 0.51437 0.44313 0.83264 0.0
C82 C 0.57742 0.4642 0.77507 0.0
O83 O 0.62409 0.53798 0.83096 0.0
O84 O 0.54202 0.5278 0.84577 0.0
O85 O 0.71809 0.49499 0.85702 0.0
O86 O 0.70575 0.422 0.82881 0.0
O87 O 0.53589 0.4409 0.8835 0.0
O88 O 0.62387 0.47072 0.88836 0.0
O89 O 0.53365 0.36452 0.82094 0.0
O90 O 0.60987 0.3747 0.85198 0.0
O91 O 0.44134 0.42961 0.85178 0.0
O92 O 0.44273 0.43746 0.80277 0.0
C93 C 0.58354 0.55775 0.83817 0.0
O94 O 0.61424 0.44366 0.78982 0.0
O95 O 0.5395 0.47677 0.78929 0.0
C96 C 0.78231 0.48129 0.82547 0.0
C97 C 0.86948 0.53 0.79925 0.0
C98 C 0.82035 0.54204 0.78996 0.0
C99 C 0.77694 0.51781 0.80303 0.0
C100 C 0.83028 0.46646 0.8331 0.0
C101 C 0.87351 0.49051 0.82013 0.0
C102 C 0.73948 0.46054 0.84266 0.0
C103 C 0.58019 0.4585 0.90027 0.0
C104 C 0.57063 0.3442 0.83581 0.0
C105 C 0.38491 0.4813 0.82747 0.0
C106 C 0.34165 0.57337 0.83155 0.0
C107 C 0.35274 0.54679 0.85818 0.0
C108 C 0.37393 0.50111 0.85616 0.0
C109 C 0.37129 0.50646 0.80063 0.0
C110 C 0.34991 0.55208 0.80266 0.0
C111 C 0.41543 0.43845 0.82599 0.0
H112 H 0.81592 0.57192 0.77375 0.0
H113 H 0.73975 0.5291 0.79665 0.0
H114 H 0.83484 0.43805 0.85027 0.0
H115 H 0.91069 0.48074 0.82828 0.0
H116 H 0.34572 0.56178 0.88067 0.0
H117 H 0.38338 0.48243 0.87726 0.0
H118 H 0.37899 0.49208 0.77815 0.0
H119 H 0.34172 0.57181 0.78176 0.0
H120 H 0.62032 0.06453 0.18592 0.0
H121 H 0.70336 0.12309 0.27428 0.0
H122 H 0.57881 0.99153 0.26839 0.0
H123 H 0.71215 0.19927 0.24774 0.0
C124 C 0.7247 0.18448 0.22658 0.0
C125 C 0.62656 0.06237 0.21078 0.0
C126 C 0.59462 0.02451 0.22545 0.0
C127 C 0.6663 0.0979 0.22822 0.0
C128 C 0.67325 0.09553 0.26071 0.0
C129 C 0.64138 0.05776 0.27571 0.0
C130 C 0.60309 0.02176 0.25756 0.0
N131 N 0.6992 0.13499 0.21265 0.0
H132 H 0.61248 0.47876 0.50731 0.0
H133 H 0.61394 0.56363 0.59485 0.0
H134 H 0.62686 0.4006 0.59211 0.0
H135 H 0.67761 0.62037 0.55975 0.0
C136 C 0.64248 0.6215 0.54455 0.0
C137 C 0.61438 0.47964 0.5323 0.0
C138 C 0.61995 0.43422 0.5479 0.0
C139 C 0.61308 0.52677 0.54926 0.0
C140 C 0.6156 0.52759 0.58173 0.0
C141 C 0.6206 0.48219 0.59727 0.0
C142 C 0.62299 0.43588 0.5802 0.0
N143 N 0.60991 0.57344 0.53375 0.0
H144 H 0.1319 0.80158 0.82893 0.0
H145 H 0.2138 0.79093 0.91843 0.0
H146 H 1.0877 0.66914 0.88224 0.0
H147 H 0.29035 0.88802 0.88018 0.0
C148 C 0.2659 0.85078 0.87264 0.0
C149 C 0.1374 0.78065 0.84969 0.0
C150 C 0.10675 0.73192 0.8525 0.0
C151 C 0.17697 0.80113 0.87308 0.0
C152 C 0.18366 0.7743 0.90021 0.0
C153 C 0.15121 0.72668 0.90397 0.0
C154 C 0.11372 0.70532 0.87958 0.0
N155 N 0.21131 0.84782 0.86868 0.0
H156 H 0.12689 0.56082 0.46148 0.0
H157 H 1.03246 0.49758 0.37748 0.0
H158 H 0.17833 0.5971 0.37307 0.0
H159 H 0.96766 0.50178 0.41142 0.0
C160 C 0.98651 0.48261 0.42996 0.0
C161 C 0.12108 0.55647 0.43642 0.0
C162 C 0.15825 0.58241 0.41904 0.0
C163 C 1.07559 0.52614 0.42171 0.0
C164 C 1.06739 0.52113 0.38922 0.0
C165 C 0.10492 0.54588 0.3717 0.0
C166 C 0.15045 0.576 0.38669 0.0
N167 N 1.03966 0.49973 0.44018 0.0
H168 H 0.6226 1.00839 0.8513 0.0
H169 H 0.63514 0.92108 0.76676 0.0
H170 H 0.62461 0.08449 0.76541 0.0
H171 H 0.56207 0.8674 0.79876 0.0
C172 C 0.59559 0.86481 0.81502 0.0
C173 C 0.62528 1.00698 0.82663 0.0
C174 C 0.62204 0.0521 0.80998 0.0
C175 C 0.62898 0.95917 0.8109 0.0
C176 C 0.63202 0.95765 0.77882 0.0
C177 C 0.63062 1.0027 0.76226 0.0
C178 C 0.6254 0.04943 0.77803 0.0
N179 N 0.62851 0.91229 0.82694 0.0
H180 H 0.58191 0.64592 0.15332 0.0
H181 H 0.64961 0.59574 0.07378 0.0
H182 H 0.48476 0.57646 0.0713 0.0
H183 H 0.69388 0.55826 0.121 0.0
C184 C 0.70963 0.59879 0.12863 0.0
C185 C 0.57753 0.6289 0.12985 0.0
C186 C 0.52723 0.61205 0.11392 0.0
C187 C 0.62207 0.62099 0.1157 0.0
C188 C 0.61563 0.59932 0.08511 0.0
C189 C 0.56639 0.58338 0.06886 0.0
C190 C 0.52287 0.58951 0.08361 0.0
N191 N 0.67333 0.6336 0.13181 0.0
H192 H 0.31544 0.67249 0.14908 0.0
H193 H 0.26328 0.51066 0.11669 0.0
H194 H 0.35183 0.4995 0.11259 0.0
H195 H 0.44333 0.53596 0.11415 0.0
H196 H 0.49835 0.69843 0.14263 0.0
H197 H 0.41061 0.70852 0.15327 0.0
C198 C 0.32354 0.63471 0.14139 0.0
C199 C 0.28201 0.59261 0.13292 0.0
C200 C 0.37543 0.62849 0.13852 0.0
C201 C 0.29375 0.54404 0.12299 0.0
C202 C 0.34468 0.53743 0.12074 0.0
C203 C 0.4364 0.57356 0.12307 0.0
C204 C 0.47768 0.61643 0.12737 0.0
C205 C 0.38568 0.57946 0.12787 0.0
C206 C 0.46773 0.66459 0.1393 0.0
C207 C 0.41725 0.67048 0.145 0.0
H208 H 0.83218 0.29286 0.47071 0.0
H209 H 0.97482 0.25577 0.51464 0.0
H210 H 1.02251 0.33665 0.49798 0.0
H211 H 1.02437 0.41498 0.46855 0.0
H212 H 0.88301 0.44932 0.42151 0.0
H213 H 0.83396 0.37168 0.44148 0.0
C214 C 0.87377 0.30217 0.47641 0.0
C215 C 0.8999 0.26809 0.49373 0.0
C216 C 0.9011 0.34803 0.46613 0.0
C217 C 0.95364 0.2815 0.50159 0.0
C218 C 0.98101 0.32756 0.4919 0.0
C219 C 0.98277 0.4058 0.46288 0.0
C220 C 0.9571 0.43772 0.44368 0.0
C221 C 0.9552 0.36076 0.47388 0.0
C222 C 0.90336 0.42512 0.43631 0.0
C223 C 0.87543 0.38083 0.44766 0.0
H224 H 0.66125 0.64551 0.8456 0.0
H225 H 0.49693 0.59635 0.82127 0.0
H226 H 0.48667 0.68608 0.81306 0.0
H227 H 0.52349 0.77847 0.81112 0.0
H228 H 0.68587 0.832 0.83817 0.0
H229 H 0.69775 0.7415 0.84717 0.0
C230 C 0.62333 0.65462 0.83853 0.0
C231 C 0.58001 0.61388 0.83402 0.0
C232 C 0.61723 0.7073 0.83439 0.0
C233 C 0.53101 0.6266 0.82513 0.0
C234 C 0.52497 0.67808 0.82031 0.0
C235 C 0.56144 0.77038 0.81929 0.0
C236 C 0.60366 0.81177 0.82397 0.0
C237 C 0.56768 0.71867 0.82474 0.0
C238 C 0.65261 0.80082 0.83463 0.0
C239 C 0.65942 0.74899 0.83957 0.0
H240 H 0.95446 0.6847 0.14311 0.0
H241 H 0.95051 0.51875 0.12449 0.0
H242 H 0.85765 0.5028 0.12157 0.0
H243 H 0.77638 0.53333 0.12381 0.0
H244 H 0.77347 0.69712 0.14201 0.0
H245 H 0.86883 0.71616 0.14568 0.0
C246 C 0.93322 0.64517 0.13835 0.0
C247 C 0.96066 0.60315 0.13426 0.0
C248 C 0.87806 0.63553 0.13671 0.0
C249 C 0.93168 0.55221 0.12813 0.0
C250 C 0.87798 0.54272 0.12635 0.0
C251 C 0.79645 0.57335 0.12874 0.0
C252 C 0.76755 0.61357 0.13272 0.0
C253 C 0.85076 0.58377 0.13064 0.0
C254 C 0.79451 0.66518 0.13898 0.0
C255 C 0.84919 0.67603 0.14096 0.0
H256 H 0.35925 0.74806 0.45918 0.0
H257 H 0.25003 0.82016 0.50596 0.0
H258 H 0.18314 0.74406 0.49085 0.0
H259 H 0.15351 0.66093 0.46051 0.0
H260 H 0.26025 0.59142 0.41043 0.0
H261 H 0.33033 0.66294 0.43041 0.0
C262 C 0.32077 0.74721 0.46598 0.0
C263 C 0.30968 0.7899 0.48355 0.0
C264 C 0.28205 0.70393 0.45652 0.0
C265 C 0.25988 0.78765 0.49273 0.0
C266 C 0.22144 0.7443 0.48392 0.0
C267 C 0.19241 0.66093 0.45455 0.0
C268 C 0.20202 0.62112 0.43422 0.0
C269 C 0.23187 0.70269 0.4654 0.0
C270 C 0.2522 0.6219 0.42607 0.0
C271 C 0.29209 0.66273 0.43741 0.0
H272 H 0.63917 0.28563 0.86307 0.0
H273 H 0.49888 0.27214 0.8005 0.0
H274 H 0.49951 0.17945 0.79008 0.0
H275 H 0.54351 0.10376 0.79475 0.0
H276 H 0.68362 0.11482 0.85652 0.0
H277 H 0.67892 0.20619 0.87172 0.0
C278 C 0.60843 0.26231 0.84741 0.0
C279 C 0.56933 0.28644 0.83236 0.0
C280 C 0.60892 0.20836 0.84139 0.0
C281 C 0.5297 0.25519 0.81232 0.0
C282 C 0.52995 0.20193 0.80629 0.0
C283 C 0.57242 0.12591 0.81205 0.0
C284 C 0.61384 0.10266 0.82453 0.0
C285 C 0.56984 0.17838 0.82017 0.0
C286 C 0.65111 0.1317 0.84685 0.0
C287 C 0.64866 0.18411 0.85525 0.0
H288 H 0.56233 0.83186 0.51215 0.0
H289 H 0.72515 0.8922 0.53476 0.0
H290 H 0.7419 0.80435 0.5436 0.0
H291 H 0.71053 0.71082 0.54708 0.0
H292 H 0.54929 0.64773 0.52205 0.0
H293 H 0.53167 0.73579 0.51183 0.0
C294 C 0.60144 0.82562 0.51887 0.0
C295 C 0.64235 0.86871 0.52291 0.0
C296 C 0.61112 0.77447 0.5235 0.0
C297 C 0.69292 0.85989 0.53134 0.0
C298 C 0.70261 0.8096 0.53652 0.0
C299 C 0.6716 0.71637 0.53911 0.0
C300 C 0.6313 0.67311 0.53539 0.0
C301 C 0.66204 0.76674 0.53295 0.0
C302 C 0.58104 0.68053 0.52492 0.0
C303 C 0.57094 0.73089 0.51923 0.0
H304 H 0.88663 0.63595 0.79833 0.0
H305 H 0.96056 0.50139 0.78569 0.0
H306 H 1.04529 0.55741 0.79492 0.0
H307 H 1.09611 0.63972 0.81958 0.0
H308 H 1.02166 0.773 0.83386 0.0
H309 H 0.93924 0.72286 0.80987 0.0
C310 C 0.92106 0.61903 0.79615 0.0
C311 C 0.91737 0.56432 0.79244 0.0
C312 C 0.96958 0.65127 0.80226 0.0
C313 C 0.96251 0.54326 0.78951 0.0
C314 C 1.01097 0.57524 0.79487 0.0
C315 C 1.06213 0.65817 0.81622 0.0
C316 C 1.06418 0.70934 0.82875 0.0
C317 C 1.0148 0.6286 0.80335 0.0
C318 C 1.02052 0.73348 0.82434 0.0
C319 C 0.9734 0.70465 0.81095 0.0
H320 H 0.40774 0.84333 0.18536 0.0
H321 H 0.32967 0.97537 0.17155 0.0
H322 H 0.41214 0.0353 0.18179 0.0
H323 H 0.50555 0.05069 0.19971 0.0
H324 H 0.58257 0.91894 0.21564 0.0
H325 H 0.50199 0.85835 0.19861 0.0
C326 C 0.40881 0.88513 0.18394 0.0
C327 C 0.36233 0.90472 0.17798 0.0
C328 C 0.45641 0.91947 0.19012 0.0
C329 C 0.36463 0.95917 0.17664 0.0
C330 C 0.41186 0.99352 0.18233 0.0
C331 C 0.5048 1.0087 0.19848 0.0
C332 C 0.54982 0.98908 0.20841 0.0
C333 C 0.45787 0.97422 0.18976 0.0
C334 C 0.54838 0.93468 0.20762 0.0
C335 C 0.50225 0.90015 0.1982 0.0
H336 H 0.68243 0.21837 0.51581 0.0
H337 H 0.5176 0.16866 0.51328 0.0
H338 H 0.50567 0.25974 0.51844 0.0
H339 H 0.5431 0.35303 0.52998 0.0
H340 H 0.70738 0.40303 0.53275 0.0
H341 H 0.71859 0.31274 0.52055 0.0
C342 C 0.64387 0.22751 0.51609 0.0
C343 C 0.60109 0.18666 0.51465 0.0
C344 C 0.63719 0.28015 0.51893 0.0
C345 C 0.55128 0.19923 0.51451 0.0
C346 C 0.54437 0.25138 0.5175 0.0
C347 C 0.58099 0.34417 0.52675 0.0
C348 C 0.6243 0.3843 0.5317 0.0
C349 C 0.58711 0.29209 0.52047 0.0
C350 C 0.67351 0.37263 0.52835 0.0
C351 C 0.67993 0.32099 0.52181 0.0
H352 H 0.37953 0.65571 0.87269 0.0
H353 H 0.26262 0.60465 0.79577 0.0
H354 H 0.23118 0.68781 0.8004 0.0
H355 H 0.23569 0.77377 0.82709 0.0
H356 H 0.35037 0.8244 0.90496 0.0
H357 H 0.38513 0.74296 0.89877 0.0
C358 C 0.34694 0.66272 0.8571 0.0
C359 C 0.32306 0.624 0.83411 0.0
C360 C 0.32909 0.71049 0.85995 0.0
C361 C 0.28167 0.63396 0.81358 0.0
C362 C 0.26365 0.68137 0.81626 0.0
C363 C 0.26787 0.76661 0.84293 0.0
C364 C 0.28967 0.80398 0.86703 0.0
C365 C 0.28682 0.71967 0.83949 0.0
C366 C 0.33285 0.79566 0.88648 0.0
C367 C 0.35241 0.74912 0.88304 0.0
H368 H 0.89519 0.36006 0.18496 0.0
H369 H 0.91376 0.2343 0.12117 0.0
H370 H 0.84359 0.17641 0.14122 0.0
H371 H 0.77778 0.16058 0.178 0.0
H372 H 0.76324 0.28567 0.24326 0.0
H373 H 0.83131 0.3442 0.22186 0.0
C374 C 0.88451 0.31982 0.17562 0.0
C375 C 0.91018 0.30187 0.15153 0.0
C376 C 0.84464 0.28639 0.1876 0.0
C377 C 0.89453 0.24973 0.1394 0.0
C378 C 0.8545 0.21635 0.15102 0.0
C379 C 0.78937 0.20071 0.18738 0.0
C380 C 0.76528 0.21888 0.21212 0.0
C381 C 0.82928 0.23416 0.17519 0.0
C382 C 0.78111 0.27083 0.22419 0.0
C383 C 0.82008 0.30433 0.21198 0.0
H384 H 0.12863 0.58826 0.01994 0.0
H385 H 0.15198 0.74253 0.06605 0.0
H386 H 0.16264 0.78254 0.01725 0.0
H387 H 0.16248 0.77467 0.96134 0.0
H388 H 0.14184 0.62172 0.91416 0.0
H389 H 0.13319 0.58053 0.9633 0.0
C390 C 0.1359 0.63056 0.01919 0.0
C391 C 0.13933 0.66221 0.04664 0.0
C392 C 0.14272 0.65374 -0.00914 0.0
C393 C 0.14935 0.71708 0.04535 0.0
C394 C 0.15547 0.74017 0.01741 0.0
C395 C 0.15722 0.73235 0.96181 0.0
C396 C 0.15274 0.70146 0.93406 0.0
C397 C 0.15219 0.70898 0.99004 0.0
C398 C 0.14489 0.64653 0.93515 0.0
C399 C 0.13993 0.6229 0.96325 0.0
H400 H 0.69772 0.05603 0.4211 0.0
H401 H 0.53322 1.00114 0.4153 0.0
H402 H 0.52547 1.00896 0.35949 0.0
H403 H 0.56459 0.03275 0.31274 0.0
H404 H 0.7302 0.07926 0.3169 0.0
H405 H 0.73794 0.07517 0.37307 0.0
C406 C 0.66024 0.04567 0.40757 0.0
C407 C 0.61611 0.02802 0.42236 0.0
C408 C 0.65611 0.04937 0.37527 0.0
C409 C 0.56785 0.01444 0.40451 0.0
C410 C 0.56333 0.01915 0.37258 0.0
C411 C 0.60269 0.04098 0.32564 0.0
C412 C 0.64673 0.05602 0.3102 0.0
C413 C 0.60715 0.03656 0.35775 0.0
C414 C 0.69538 0.06829 0.3279 0.0
C415 C 0.69996 0.06546 0.3601 0.0
H416 H 0.65106 0.44501 0.73914 0.0
H417 H 0.50852 0.50639 0.73663 0.0
H418 H 0.51152 0.52148 0.68181 0.0
H419 H 0.5527 0.51331 0.63385 0.0
H420 H 0.69359 0.44946 0.63658 0.0
H421 H 0.69348 0.43974 0.69215 0.0
C422 C 0.6206 0.46173 0.72668 0.0
C423 C 0.57941 0.4741 0.74196 0.0
C424 C 0.62239 0.47003 0.69519 0.0
C425 C 0.54053 0.49613 0.72542 0.0
C426 C 0.54224 0.50489 0.69406 0.0
C427 C 0.58369 0.49805 0.64681 0.0
C428 C 0.62308 0.48207 0.63133 0.0
C429 C 0.58276 0.49158 0.67864 0.0
C430 C 0.66279 0.46175 0.64814 0.0
C431 C 0.66267 0.45611 0.67983 0.0
H432 H 0.67845 0.9875 0.62309 0.0
H433 H 0.5541 0.07658 0.61239 0.0
H434 H 0.54544 0.07368 0.66748 0.0
H435 H 0.57258 0.04573 0.71861 0.0
H436 H 0.69686 0.95695 0.73 0.0
H437 H 0.70539 0.95891 0.67461 0.0
C438 C 0.64964 1.00649 0.63285 0.0
C439 C 0.61714 0.03239 0.61363 0.0
C440 C 0.64448 1.0043 0.6646 0.0
C441 C 0.57967 0.05638 0.62661 0.0
C442 C 0.5746 0.05471 0.65813 0.0
C443 C 0.60178 0.02708 0.70901 0.0
C444 C 0.63421 1.00148 0.72842 0.0
C445 C 0.60673 0.02877 0.67731 0.0
C446 C 0.67112 0.97656 0.71551 0.0
C447 C 0.67627 0.978 0.6839 0.0
H448 H 0.5129 0.50744 0.92737 0.0
H449 H 0.64978 0.43922 0.94708 0.0
H450 H 0.65592 0.46924 0.00171 0.0
H451 H 0.62445 0.51842 0.04307 0.0
H452 H 0.49421 0.5967 0.02114 0.0
H453 H 0.48288 0.55851 0.96839 0.0
C454 C 0.54345 0.49837 0.94383 0.0
C455 C 0.58038 0.47057 0.93357 0.0
C456 C 0.54807 0.51787 0.97473 0.0
C457 C 0.62071 0.46022 0.95472 0.0
C458 C 0.62433 0.47759 0.98583 0.0
C459 C 0.59393 0.52775 0.02675 0.0
C460 C 0.56011 0.56029 0.03641 0.0
C461 C 0.58874 0.50729 -0.00403 0.0
C462 C 0.52023 0.57093 0.01481 0.0
C463 C 0.51388 0.54942 0.98445 0.0
H464 H 1.05215 0.58842 0.23254 0.0
H465 H 0.18685 0.51766 0.2236 0.0
H466 H 0.19219 0.4995 0.27851 0.0
H467 H 0.16279 0.51153 0.32998 0.0
H468 H 1.02575 0.5787 0.33801 0.0
H469 H 1.01642 0.59007 0.28232 0.0
C470 C 1.08233 0.56857 0.24264 0.0
C471 C 0.11956 0.55507 0.22447 0.0
C472 C 1.08466 0.55778 0.27393 0.0
C473 C 0.15793 0.52847 0.23738 0.0
C474 C 0.16108 0.51832 0.26871 0.0
C475 C 0.13052 0.52782 0.31929 0.0
C476 C 1.09514 0.54463 0.33775 0.0
C477 C 0.12533 0.5339 0.28734 0.0
C478 C 1.05319 0.5654 0.32398 0.0
C479 C 1.04808 0.57218 0.29228 0.0
loop_
_geom_bond_atom_site_label_1
_geom_bond_atom_site_label_2
_geom_bond_distance
_geom_bond_site_symmetry_2
_ccdc_geom_bond_type
Dy0 O3 2.307 1_455 S
Dy0 O5 2.395 . S
Dy0 O6 2.379 . S
Dy0 O8 2.339 . S
Dy0 O10 2.298 . S
Dy0 O14 2.275 . S
Dy0 C22 2.738 . S
Dy1 O4 2.298 . S
Dy1 O7 2.275 1_655 S
Dy1 O9 2.307 1_655 S
Dy1 O11 2.395 . S
Dy1 O12 2.379 . S
Dy1 O15 2.339 1_655 S
Dy1 C31 2.738 . S
C2 O14 1.254 . S
C2 O15 1.257 . S
O3 Dy0 2.307 1_655 S
O3 C13 1.266 . S
O4 Dy1 2.298 . S
O4 C13 1.236 . S
O5 Dy0 2.395 . S
O5 C22 1.255 . S
O6 Dy0 2.379 . S
O6 C22 1.249 . S
O7 Dy1 2.275 1_455 S
O7 C23 1.254 . S
O8 Dy0 2.339 . S
O8 C23 1.257 . S
O9 Dy1 2.307 1_455 S
O9 C24 1.266 . S
O10 Dy0 2.298 . S
O10 C24 1.236 . S
O11 Dy1 2.395 . S
O11 C31 1.255 . S
O12 Dy1 2.379 . S
O12 C31 1.249 . S
C13 O3 1.266 . S
C13 O4 1.236 . S
O14 Dy0 2.275 . S
O14 C2 1.254 . S
O15 Dy1 2.339 1_455 S
O15 C2 1.257 . S
C16 C19 1.344 . S
C16 C20 1.328 . S
C16 C22 1.516 . S
C17 C18 1.304 . S
C17 C21 1.323 . S
C18 C17 1.304 . S
C18 C19 1.371 . S
C18 H32 0.930 . S
C19 C16 1.344 . S
C19 C18 1.371 . S
C19 H33 0.931 . S
C20 C16 1.328 . S
C20 C21 1.433 . S
C20 H34 0.931 . S
C21 C17 1.323 . S
C21 C20 1.433 . S
C21 H35 0.933 . S
C22 Dy0 2.738 . S
C22 O5 1.255 . S
C22 O6 1.249 . S
C22 C16 1.516 . S
C23 O7 1.254 . S
C23 O8 1.257 . S
C24 O9 1.266 . S
C24 O10 1.236 . S
C25 C28 1.344 . S
C25 C29 1.328 . S
C25 C31 1.516 . S
C26 C27 1.304 . S
C26 C30 1.323 . S
C27 C26 1.304 . S
C27 C28 1.371 . S
C27 H36 0.930 . S
C28 C25 1.344 . S
C28 C27 1.371 . S
C28 H37 0.931 . S
C29 C25 1.328 . S
C29 C30 1.433 . S
C29 H38 0.931 . S
C30 C26 1.323 . S
C30 C29 1.433 . S
C30 H39 0.933 . S
C31 Dy1 2.738 . S
C31 O11 1.255 . S
C31 O12 1.249 . S
C31 C25 1.516 . S
H32 C18 0.930 . S
H33 C19 0.931 . S
H34 C20 0.931 . S
H35 C21 0.933 . S
H36 C27 0.930 . S
H37 C28 0.931 . S
H38 C29 0.931 . S
H39 C30 0.933 . S
Dy40 O43 2.307 . S
Dy40 O45 2.395 1_545 S
Dy40 O46 2.379 1_545 S
Dy40 O48 2.339 . S
Dy40 O50 2.298 1_545 S
Dy40 O54 2.275 . S
Dy40 C62 2.738 1_545 S
Dy41 O44 2.298 . S
Dy41 O47 2.275 . S
Dy41 O49 2.307 1_545 S
Dy41 O51 2.395 . S
Dy41 O52 2.379 . S
Dy41 O55 2.339 . S
Dy41 C71 2.738 . S
C42 O54 1.254 . S
C42 O55 1.257 . S
O43 Dy40 2.307 . S
O43 C53 1.266 . S
O44 Dy41 2.298 . S
O44 C53 1.236 . S
O45 Dy40 2.395 1_565 S
O45 C62 1.255 . S
O46 Dy40 2.379 1_565 S
O46 C62 1.249 . S
O47 Dy41 2.275 . S
O47 C63 1.254 . S
O48 Dy40 2.339 . S
O48 C63 1.257 . S
O49 Dy41 2.307 1_565 S
O49 C64 1.266 . S
O50 Dy40 2.298 1_565 S
O50 C64 1.236 . S
O51 Dy41 2.395 . S
O51 C71 1.255 . S
O52 Dy41 2.379 . S
O52 C71 1.249 . S
C53 O43 1.266 . S
C53 O44 1.236 . S
O54 Dy40 2.275 . S
O54 C42 1.254 . S
O55 Dy41 2.339 . S
O55 C42 1.257 . S
C56 C59 1.344 . S
C56 C60 1.328 . S
C56 C62 1.516 . S
C57 C58 1.304 . S
C57 C61 1.323 . S
C58 C57 1.304 . S
C58 C59 1.371 . S
C58 H72 0.930 . S
C59 C56 1.344 . S
C59 C58 1.371 . S
C59 H73 0.931 . S
C60 C56 1.328 . S
C60 C61 1.433 . S
C60 H74 0.931 . S
C61 C57 1.323 . S
C61 C60 1.433 . S
C61 H75 0.933 . S
C62 Dy40 2.738 1_565 S
C62 O45 1.255 . S
C62 O46 1.249 . S
C62 C56 1.516 . S
C63 O47 1.254 . S
C63 O48 1.257 . S
C64 O49 1.266 . S
C64 O50 1.236 . S
C65 C68 1.344 . S
C65 C69 1.328 . S
C65 C71 1.516 . S
C66 C67 1.304 . S
C66 C70 1.323 . S
C67 C66 1.304 . S
C67 C68 1.371 . S
C67 H76 0.930 . S
C68 C65 1.344 . S
C68 C67 1.371 . S
C68 H77 0.931 . S
C69 C65 1.328 . S
C69 C70 1.433 . S
C69 H78 0.931 . S
C70 C66 1.323 . S
C70 C69 1.433 . S
C70 H79 0.933 . S
C71 Dy41 2.738 . S
C71 O51 1.255 . S
C71 O52 1.249 . S
C71 C65 1.516 . S
H72 C58 0.930 . S
H73 C59 0.931 . S
H74 C60 0.931 . S
H75 C61 0.933 . S
H76 C67 0.930 . S
H77 C68 0.931 . S
H78 C69 0.931 . S
H79 C70 0.933 . S
Dy80 O83 2.307 . S
Dy80 O85 2.395 . S
Dy80 O86 2.379 . S
Dy80 O88 2.339 . S
Dy80 O90 2.298 . S
Dy80 O94 2.275 . S
Dy80 C102 2.738 . S
Dy81 O84 2.298 . S
Dy81 O87 2.275 . S
Dy81 O89 2.307 . S
Dy81 O91 2.395 . S
Dy81 O92 2.379 . S
Dy81 O95 2.339 . S
Dy81 C111 2.738 . S
C82 O94 1.254 . S
C82 O95 1.257 . S
O83 Dy80 2.307 . S
O83 C93 1.266 . S
O84 Dy81 2.298 . S
O84 C93 1.236 . S
O85 Dy80 2.395 . S
O85 C102 1.255 . S
O86 Dy80 2.379 . S
O86 C102 1.249 . S
O87 Dy81 2.275 . S
O87 C103 1.254 . S
O88 Dy80 2.339 . S
O88 C103 1.257 . S
O89 Dy81 2.307 . S
O89 C104 1.266 . S
O90 Dy80 2.298 . S
O90 C104 1.236 . S
O91 Dy81 2.395 . S
O91 C111 1.255 . S
O92 Dy81 2.379 . S
O92 C111 1.249 . S
C93 O83 1.266 . S
C93 O84 1.236 . S
O94 Dy80 2.275 . S
O94 C82 1.254 . S
O95 Dy81 2.339 . S
O95 C82 1.257 . S
C96 C99 1.344 . S
C96 C100 1.328 . S
C96 C102 1.516 . S
C97 C98 1.304 . S
C97 C101 1.323 . S
C98 C97 1.304 . S
C98 C99 1.371 . S
C98 H112 0.930 . S
C99 C96 1.344 . S
C99 C98 1.371 . S
C99 H113 0.931 . S
C100 C96 1.328 . S
C100 C101 1.433 . S
C100 H114 0.931 . S
C101 C97 1.323 . S
C101 C100 1.433 . S
C101 H115 0.933 . S
C102 Dy80 2.738 . S
C102 O85 1.255 . S
C102 O86 1.249 . S
C102 C96 1.516 . S
C103 O87 1.254 . S
C103 O88 1.257 . S
C104 O89 1.266 . S
C104 O90 1.236 . S
C105 C108 1.344 . S
C105 C109 1.328 . S
C105 C111 1.516 . S
C106 C107 1.304 . S
C106 C110 1.323 . S
C107 C106 1.304 . S
C107 C108 1.371 . S
C107 H116 0.930 . S
C108 C105 1.344 . S
C108 C107 1.371 . S
C108 H117 0.931 . S
C109 C105 1.328 . S
C109 C110 1.433 . S
C109 H118 0.931 . S
C110 C106 1.323 . S
C110 C109 1.433 . S
C110 H119 0.933 . S
C111 Dy81 2.738 . S
C111 O91 1.255 . S
C111 O92 1.249 . S
C111 C105 1.516 . S
H112 C98 0.930 . S
H113 C99 0.931 . S
H114 C100 0.931 . S
H115 C101 0.933 . S
H116 C107 0.930 . S
H117 C108 0.931 . S
H118 C109 0.931 . S
H119 C110 0.933 . S
H120 C125 0.930 . S
H121 C128 0.930 . S
H122 C130 0.930 . S
H123 C124 1.016 . S
C124 H123 1.016 . S
C124 N131 1.286 . S
C125 H120 0.930 . S
C125 C126 1.397 . S
C125 C127 1.361 . S
C126 C125 1.397 . S
C126 C130 1.390 . S
C127 C125 1.361 . S
C127 C128 1.393 . S
C127 N131 1.413 . S
C128 H121 0.930 . S
C128 C127 1.393 . S
C128 C129 1.399 . S
C129 C128 1.399 . S
C129 C130 1.381 . S
C130 H122 0.930 . S
C130 C126 1.390 . S
C130 C129 1.381 . S
N131 C124 1.286 . S
N131 C127 1.413 . S
H132 C137 0.930 . S
H133 C140 0.930 . S
H134 C142 0.930 . S
H135 C136 1.016 . S
C136 H135 1.016 . S
C136 N143 1.286 . S
C137 H132 0.930 . S
C137 C138 1.397 . S
C137 C139 1.361 . S
C138 C137 1.397 . S
C138 C142 1.390 . S
C139 C137 1.361 . S
C139 C140 1.393 . S
C139 N143 1.413 . S
C140 H133 0.930 . S
C140 C139 1.393 . S
C140 C141 1.399 . S
C141 C140 1.399 . S
C141 C142 1.381 . S
C142 H134 0.930 . S
C142 C138 1.390 . S
C142 C141 1.381 . S
N143 C136 1.286 . S
N143 C139 1.413 . S
H144 C149 0.930 . S
H145 C152 0.930 . S
H146 C154 0.930 . S
H147 C148 1.016 . S
C148 H147 1.016 . S
C148 N155 1.286 . S
C149 H144 0.930 . S
C149 C150 1.397 . S
C149 C151 1.361 1_655 S
C150 C149 1.397 . S
C150 C154 1.390 . S
C151 C149 1.361 1_455 S
C151 C152 1.393 . S
C151 N155 1.413 . S
C152 H145 0.930 . S
C152 C151 1.393 . S
C152 C153 1.399 . S
C153 C152 1.399 . S
C153 C154 1.381 1_455 S
C154 H146 0.930 . S
C154 C150 1.390 . S
C154 C153 1.381 1_655 S
N155 C148 1.286 . S
N155 C151 1.413 . S
H156 C161 0.930 . S
H157 C164 0.930 . S
H158 C166 0.930 . S
H159 C160 1.016 . S
C160 H159 1.016 . S
C160 N167 1.286 . S
C161 H156 0.930 . S
C161 C162 1.397 . S
C161 C163 1.361 . S
C162 C161 1.397 . S
C162 C166 1.390 . S
C163 C161 1.361 . S
C163 C164 1.393 1_455 S
C163 N167 1.413 1_455 S
C164 H157 0.930 . S
C164 C163 1.393 1_655 S
C164 C165 1.399 1_655 S
C165 C164 1.399 1_455 S
C165 C166 1.381 . S
C166 H158 0.930 . S
C166 C162 1.390 . S
C166 C165 1.381 . S
N167 C160 1.286 . S
N167 C163 1.413 1_655 S
H168 C173 0.930 . S
H169 C176 0.930 . S
H170 C178 0.930 . S
H171 C172 1.016 . S
C172 H171 1.016 . S
C172 N179 1.286 . S
C173 H168 0.930 . S
C173 C174 1.397 . S
C173 C175 1.361 1_545 S
C174 C173 1.397 . S
C174 C178 1.390 . S
C175 C173 1.361 1_565 S
C175 C176 1.393 . S
C175 N179 1.413 . S
C176 H169 0.930 . S
C176 C175 1.393 . S
C176 C177 1.399 1_565 S
C177 C176 1.399 1_545 S
C177 C178 1.381 . S
C178 H170 0.930 . S
C178 C174 1.390 . S
C178 C177 1.381 . S
N179 C172 1.286 . S
N179 C175 1.413 . S
H180 C185 0.930 . S
H181 C188 0.930 . S
H182 C190 0.930 . S
H183 C184 1.016 . S
C184 H183 1.016 . S
C184 N191 1.286 . S
C185 H180 0.930 . S
C185 C186 1.397 . S
C185 C187 1.361 . S
C186 C185 1.397 . S
C186 C190 1.390 . S
C187 C185 1.361 . S
C187 C188 1.393 . S
C187 N191 1.413 . S
C188 H181 0.930 . S
C188 C187 1.393 . S
C188 C189 1.399 . S
C189 C188 1.399 . S
C189 C190 1.381 . S
C190 H182 0.930 . S
C190 C186 1.390 . S
C190 C189 1.381 . S
N191 C184 1.286 . S
N191 C187 1.413 . S
H192 C198 0.930 . S
H193 C201 0.930 . S
H194 C202 0.930 . S
H195 C203 0.930 . S
H196 C206 0.930 . S
H197 C207 0.930 . S
C198 H192 0.930 . S
C198 C199 1.355 . S
C198 C200 1.415 . S
C199 C198 1.355 . S
C199 C201 1.419 . S
C200 C198 1.415 . S
C200 C205 1.425 . S
C200 C207 1.409 . S
C201 H193 0.930 . S
C201 C199 1.419 . S
C201 C202 1.362 . S
C202 H194 0.930 . S
C202 C201 1.362 . S
C202 C205 1.409 . S
C203 H195 0.930 . S
C203 C204 1.355 . S
C203 C205 1.415 . S
C204 C203 1.355 . S
C204 C206 1.419 . S
C205 C200 1.425 . S
C205 C202 1.409 . S
C205 C203 1.415 . S
C206 H196 0.930 . S
C206 C204 1.419 . S
C206 C207 1.362 . S
C207 H197 0.930 . S
C207 C200 1.409 . S
C207 C206 1.362 . S
H208 C214 0.930 . S
H209 C217 0.930 . S
H210 C218 0.930 . S
H211 C219 0.930 . S
H212 C222 0.930 . S
H213 C223 0.930 . S
C214 H208 0.930 . S
C214 C215 1.355 . S
C214 C216 1.415 . S
C215 C214 1.355 . S
C215 C217 1.419 . S
C216 C214 1.415 . S
C216 C221 1.425 . S
C216 C223 1.409 . S
C217 H209 0.930 . S
C217 C215 1.419 . S
C217 C218 1.362 . S
C218 H210 0.930 . S
C218 C217 1.362 . S
C218 C221 1.409 . S
C219 H211 0.930 . S
C219 C220 1.355 . S
C219 C221 1.415 . S
C220 C219 1.355 . S
C220 C222 1.419 . S
C221 C216 1.425 . S
C221 C218 1.409 . S
C221 C219 1.415 . S
C222 H212 0.930 . S
C222 C220 1.419 . S
C222 C223 1.362 . S
C223 H213 0.930 . S
C223 C216 1.409 . S
C223 C222 1.362 . S
H224 C230 0.930 . S
H225 C233 0.930 . S
H226 C234 0.930 . S
H227 C235 0.930 . S
H228 C238 0.930 . S
H229 C239 0.930 . S
C230 H224 0.930 . S
C230 C231 1.355 . S
C230 C232 1.415 . S
C231 C230 1.355 . S
C231 C233 1.419 . S
C232 C230 1.415 . S
C232 C237 1.425 . S
C232 C239 1.409 . S
C233 H225 0.930 . S
C233 C231 1.419 . S
C233 C234 1.362 . S
C234 H226 0.930 . S
C234 C233 1.362 . S
C234 C237 1.409 . S
C235 H227 0.930 . S
C235 C236 1.355 . S
C235 C237 1.415 . S
C236 C235 1.355 . S
C236 C238 1.419 . S
C237 C232 1.425 . S
C237 C234 1.409 . S
C237 C235 1.415 . S
C238 H228 0.930 . S
C238 C236 1.419 . S
C238 C239 1.362 . S
C239 H229 0.930 . S
C239 C232 1.409 . S
C239 C238 1.362 . S
H240 C246 0.930 . S
H241 C249 0.930 . S
H242 C250 0.930 . S
H243 C251 0.930 . S
H244 C254 0.930 . S
H245 C255 0.930 . S
C246 H240 0.930 . S
C246 C247 1.355 . S
C246 C248 1.415 . S
C247 C246 1.355 . S
C247 C249 1.419 . S
C248 C246 1.415 . S
C248 C253 1.425 . S
C248 C255 1.409 . S
C249 H241 0.930 . S
C249 C247 1.419 . S
C249 C250 1.362 . S
C250 H242 0.930 . S
C250 C249 1.362 . S
C250 C253 1.409 . S
C251 H243 0.930 . S
C251 C252 1.355 . S
C251 C253 1.415 . S
C252 C251 1.355 . S
C252 C254 1.419 . S
C253 C248 1.425 . S
C253 C250 1.409 . S
C253 C251 1.415 . S
C254 H244 0.930 . S
C254 C252 1.419 . S
C254 C255 1.362 . S
C255 H245 0.930 . S
C255 C248 1.409 . S
C255 C254 1.362 . S
H256 C262 0.930 . S
H257 C265 0.930 . S
H258 C266 0.930 . S
H259 C267 0.930 . S
H260 C270 0.930 . S
H261 C271 0.930 . S
C262 H256 0.930 . S
C262 C263 1.355 . S
C262 C264 1.415 . S
C263 C262 1.355 . S
C263 C265 1.419 . S
C264 C262 1.415 . S
C264 C269 1.425 . S
C264 C271 1.409 . S
C265 H257 0.930 . S
C265 C263 1.419 . S
C265 C266 1.362 . S
C266 H258 0.930 . S
C266 C265 1.362 . S
C266 C269 1.409 . S
C267 H259 0.930 . S
C267 C268 1.355 . S
C267 C269 1.415 . S
C268 C267 1.355 . S
C268 C270 1.419 . S
C269 C264 1.425 . S
C269 C266 1.409 . S
C269 C267 1.415 . S
C270 H260 0.930 . S
C270 C268 1.419 . S
C270 C271 1.362 . S
C271 H261 0.930 . S
C271 C264 1.409 . S
C271 C270 1.362 . S
H272 C278 0.930 . S
H273 C281 0.930 . S
H274 C282 0.930 . S
H275 C283 0.930 . S
H276 C286 0.930 . S
H277 C287 0.930 . S
C278 H272 0.930 . S
C278 C279 1.355 . S
C278 C280 1.415 . S
C279 C278 1.355 . S
C279 C281 1.419 . S
C280 C278 1.415 . S
C280 C285 1.425 . S
C280 C287 1.409 . S
C281 H273 0.930 . S
C281 C279 1.419 . S
C281 C282 1.362 . S
C282 H274 0.930 . S
C282 C281 1.362 . S
C282 C285 1.409 . S
C283 H275 0.930 . S
C283 C284 1.355 . S
C283 C285 1.415 . S
C284 C283 1.355 . S
C284 C286 1.419 . S
C285 C280 1.425 . S
C285 C282 1.409 . S
C285 C283 1.415 . S
C286 H276 0.930 . S
C286 C284 1.419 . S
C286 C287 1.362 . S
C287 H277 0.930 . S
C287 C280 1.409 . S
C287 C286 1.362 . S
H288 C294 0.930 . S
H289 C297 0.930 . S
H290 C298 0.930 . S
H291 C299 0.930 . S
H292 C302 0.930 . S
H293 C303 0.930 . S
C294 H288 0.930 . S
C294 C295 1.355 . S
C294 C296 1.415 . S
C295 C294 1.355 . S
C295 C297 1.419 . S
C296 C294 1.415 . S
C296 C301 1.425 . S
C296 C303 1.409 . S
C297 H289 0.930 . S
C297 C295 1.419 . S
C297 C298 1.362 . S
C298 H290 0.930 . S
C298 C297 1.362 . S
C298 C301 1.409 . S
C299 H291 0.930 . S
C299 C300 1.355 . S
C299 C301 1.415 . S
C300 C299 1.355 . S
C300 C302 1.419 . S
C301 C296 1.425 . S
C301 C298 1.409 . S
C301 C299 1.415 . S
C302 H292 0.930 . S
C302 C300 1.419 . S
C302 C303 1.362 . S
C303 H293 0.930 . S
C303 C296 1.409 . S
C303 C302 1.362 . S
H304 C310 0.930 . S
H305 C313 0.930 . S
H306 C314 0.930 . S
H307 C315 0.930 . S
H308 C318 0.930 . S
H309 C319 0.930 . S
C310 H304 0.930 . S
C310 C311 1.355 . S
C310 C312 1.415 . S
C311 C310 1.355 . S
C311 C313 1.419 . S
C312 C310 1.415 . S
C312 C317 1.425 . S
C312 C319 1.409 . S
C313 H305 0.930 . S
C313 C311 1.419 . S
C313 C314 1.362 . S
C314 H306 0.930 . S
C314 C313 1.362 . S
C314 C317 1.409 . S
C315 H307 0.930 . S
C315 C316 1.355 . S
C315 C317 1.415 . S
C316 C315 1.355 . S
C316 C318 1.419 . S
C317 C312 1.425 . S
C317 C314 1.409 . S
C317 C315 1.415 . S
C318 H308 0.930 . S
C318 C316 1.419 . S
C318 C319 1.362 . S
C319 H309 0.930 . S
C319 C312 1.409 . S
C319 C318 1.362 . S
H320 C326 0.930 . S
H321 C329 0.930 . S
H322 C330 0.930 . S
H323 C331 0.930 1_545 S
H324 C334 0.930 . S
H325 C335 0.930 . S
C326 H320 0.930 . S
C326 C327 1.355 . S
C326 C328 1.415 . S
C327 C326 1.355 . S
C327 C329 1.419 . S
C328 C326 1.415 . S
C328 C333 1.425 . S
C328 C335 1.409 . S
C329 H321 0.930 . S
C329 C327 1.419 . S
C329 C330 1.362 . S
C330 H322 0.930 . S
C330 C329 1.362 . S
C330 C333 1.409 . S
C331 H323 0.930 1_565 S
C331 C332 1.355 . S
C331 C333 1.415 . S
C332 C331 1.355 . S
C332 C334 1.419 . S
C333 C328 1.425 . S
C333 C330 1.409 . S
C333 C331 1.415 . S
C334 H324 0.930 . S
C334 C332 1.419 . S
C334 C335 1.362 . S
C335 H325 0.930 . S
C335 C328 1.409 . S
C335 C334 1.362 . S
H336 C342 0.930 . S
H337 C345 0.930 . S
H338 C346 0.930 . S
H339 C347 0.930 . S
H340 C350 0.930 . S
H341 C351 0.930 . S
C342 H336 0.930 . S
C342 C343 1.355 . S
C342 C344 1.415 . S
C343 C342 1.355 . S
C343 C345 1.419 . S
C344 C342 1.415 . S
C344 C349 1.425 . S
C344 C351 1.409 . S
C345 H337 0.930 . S
C345 C343 1.419 . S
C345 C346 1.362 . S
C346 H338 0.930 . S
C346 C345 1.362 . S
C346 C349 1.409 . S
C347 H339 0.930 . S
C347 C348 1.355 . S
C347 C349 1.415 . S
C348 C347 1.355 . S
C348 C350 1.419 . S
C349 C344 1.425 . S
C349 C346 1.409 . S
C349 C347 1.415 . S
C350 H340 0.930 . S
C350 C348 1.419 . S
C350 C351 1.362 . S
C351 H341 0.930 . S
C351 C344 1.409 . S
C351 C350 1.362 . S
H352 C358 0.930 . S
H353 C361 0.930 . S
H354 C362 0.930 . S
H355 C363 0.930 . S
H356 C366 0.930 . S
H357 C367 0.930 . S
C358 H352 0.930 . S
C358 C359 1.355 . S
C358 C360 1.415 . S
C359 C358 1.355 . S
C359 C361 1.419 . S
C360 C358 1.415 . S
C360 C365 1.425 . S
C360 C367 1.409 . S
C361 H353 0.930 . S
C361 C359 1.419 . S
C361 C362 1.362 . S
C362 H354 0.930 . S
C362 C361 1.362 . S
C362 C365 1.409 . S
C363 H355 0.930 . S
C363 C364 1.355 . S
C363 C365 1.415 . S
C364 C363 1.355 . S
C364 C366 1.419 . S
C365 C360 1.425 . S
C365 C362 1.409 . S
C365 C363 1.415 . S
C366 H356 0.930 . S
C366 C364 1.419 . S
C366 C367 1.362 . S
C367 H357 0.930 . S
C367 C360 1.409 . S
C367 C366 1.362 . S
H368 C374 0.930 . S
H369 C377 0.930 . S
H370 C378 0.930 . S
H371 C379 0.930 . S
H372 C382 0.930 . S
H373 C383 0.930 . S
C374 H368 0.930 . S
C374 C375 1.355 . S
C374 C376 1.415 . S
C375 C374 1.355 . S
C375 C377 1.419 . S
C376 C374 1.415 . S
C376 C381 1.425 . S
C376 C383 1.409 . S
C377 H369 0.930 . S
C377 C375 1.419 . S
C377 C378 1.362 . S
C378 H370 0.930 . S
C378 C377 1.362 . S
C378 C381 1.409 . S
C379 H371 0.930 . S
C379 C380 1.355 . S
C379 C381 1.415 . S
C380 C379 1.355 . S
C380 C382 1.419 . S
C381 C376 1.425 . S
C381 C378 1.409 . S
C381 C379 1.415 . S
C382 H372 0.930 . S
C382 C380 1.419 . S
C382 C383 1.362 . S
C383 H373 0.930 . S
C383 C376 1.409 . S
C383 C382 1.362 . S
H384 C390 0.930 . S
H385 C393 0.930 . S
H386 C394 0.930 . S
H387 C395 0.930 . S
H388 C398 0.930 . S
H389 C399 0.930 . S
C390 H384 0.930 . S
C390 C391 1.355 . S
C390 C392 1.415 . S
C391 C390 1.355 . S
C391 C393 1.419 . S
C392 C390 1.415 . S
C392 C397 1.425 . S
C392 C399 1.409 . S
C393 H385 0.930 . S
C393 C391 1.419 . S
C393 C394 1.362 . S
C394 H386 0.930 . S
C394 C393 1.362 . S
C394 C397 1.409 . S
C395 H387 0.930 . S
C395 C396 1.355 . S
C395 C397 1.415 1_556 S
C396 C395 1.355 . S
C396 C398 1.419 . S
C397 C392 1.425 . S
C397 C394 1.409 . S
C397 C395 1.415 1_554 S
C398 H388 0.930 . S
C398 C396 1.419 . S
C398 C399 1.362 1_556 S
C399 H389 0.930 . S
C399 C392 1.409 . S
C399 C398 1.362 1_554 S
H400 C406 0.930 . S
H401 C409 0.930 . S
H402 C410 0.930 . S
H403 C411 0.930 . S
H404 C414 0.930 . S
H405 C415 0.930 . S
C406 H400 0.930 . S
C406 C407 1.355 . S
C406 C408 1.415 . S
C407 C406 1.355 . S
C407 C409 1.419 . S
C408 C406 1.415 . S
C408 C413 1.425 . S
C408 C415 1.409 . S
C409 H401 0.930 . S
C409 C407 1.419 . S
C409 C410 1.362 . S
C410 H402 0.930 . S
C410 C409 1.362 . S
C410 C413 1.409 . S
C411 H403 0.930 . S
C411 C412 1.355 . S
C411 C413 1.415 . S
C412 C411 1.355 . S
C412 C414 1.419 . S
C413 C408 1.425 . S
C413 C410 1.409 . S
C413 C411 1.415 . S
C414 H404 0.930 . S
C414 C412 1.419 . S
C414 C415 1.362 . S
C415 H405 0.930 . S
C415 C408 1.409 . S
C415 C414 1.362 . S
H416 C422 0.930 . S
H417 C425 0.930 . S
H418 C426 0.930 . S
H419 C427 0.930 . S
H420 C430 0.930 . S
H421 C431 0.930 . S
C422 H416 0.930 . S
C422 C423 1.355 . S
C422 C424 1.415 . S
C423 C422 1.355 . S
C423 C425 1.419 . S
C424 C422 1.415 . S
C424 C429 1.425 . S
C424 C431 1.409 . S
C425 H417 0.930 . S
C425 C423 1.419 . S
C425 C426 1.362 . S
C426 H418 0.930 . S
C426 C425 1.362 . S
C426 C429 1.409 . S
C427 H419 0.930 . S
C427 C428 1.355 . S
C427 C429 1.415 . S
C428 C427 1.355 . S
C428 C430 1.419 . S
C429 C424 1.425 . S
C429 C426 1.409 . S
C429 C427 1.415 . S
C430 H420 0.930 . S
C430 C428 1.419 . S
C430 C431 1.362 . S
C431 H421 0.930 . S
C431 C424 1.409 . S
C431 C430 1.362 . S
H432 C438 0.930 . S
H433 C441 0.930 . S
H434 C442 0.930 . S
H435 C443 0.930 . S
H436 C446 0.930 . S
H437 C447 0.930 . S
C438 H432 0.930 . S
C438 C439 1.355 . S
C438 C440 1.415 . S
C439 C438 1.355 . S
C439 C441 1.419 . S
C440 C438 1.415 . S
C440 C445 1.425 . S
C440 C447 1.409 . S
C441 H433 0.930 . S
C441 C439 1.419 . S
C441 C442 1.362 . S
C442 H434 0.930 . S
C442 C441 1.362 . S
C442 C445 1.409 . S
C443 H435 0.930 . S
C443 C444 1.355 . S
C443 C445 1.415 . S
C444 C443 1.355 . S
C444 C446 1.419 . S
C445 C440 1.425 . S
C445 C442 1.409 . S
C445 C443 1.415 . S
C446 H436 0.930 . S
C446 C444 1.419 . S
C446 C447 1.362 . S
C447 H437 0.930 . S
C447 C440 1.409 . S
C447 C446 1.362 . S
H448 C454 0.930 . S
H449 C457 0.930 . S
H450 C458 0.930 . S
H451 C459 0.930 . S
H452 C462 0.930 . S
H453 C463 0.930 . S
C454 H448 0.930 . S
C454 C455 1.355 . S
C454 C456 1.415 . S
C455 C454 1.355 . S
C455 C457 1.419 . S
C456 C454 1.415 . S
C456 C461 1.425 . S
C456 C463 1.409 . S
C457 H449 0.930 . S
C457 C455 1.419 . S
C457 C458 1.362 . S
C458 H450 0.930 . S
C458 C457 1.362 . S
C458 C461 1.409 . S
C459 H451 0.930 . S
C459 C460 1.355 . S
C459 C461 1.415 1_554 S
C460 C459 1.355 . S
C460 C462 1.419 . S
C461 C456 1.425 . S
C461 C458 1.409 . S
C461 C459 1.415 1_556 S
C462 H452 0.930 . S
C462 C460 1.419 . S
C462 C463 1.362 1_554 S
C463 H453 0.930 . S
C463 C456 1.409 . S
C463 C462 1.362 1_556 S
H464 C470 0.930 1_655 S
H465 C473 0.930 . S
H466 C474 0.930 . S
H467 C475 0.930 . S
H468 C478 0.930 . S
H469 C479 0.930 . S
C470 H464 0.930 1_455 S
C470 C471 1.355 . S
C470 C472 1.415 . S
C471 C470 1.355 . S
C471 C473 1.419 . S
C472 C470 1.415 . S
C472 C477 1.425 . S
C472 C479 1.409 1_455 S
C473 H465 0.930 . S
C473 C471 1.419 . S
C473 C474 1.362 . S
C474 H466 0.930 . S
C474 C473 1.362 . S
C474 C477 1.409 . S
C475 H467 0.930 . S
C475 C476 1.355 . S
C475 C477 1.415 . S
C476 C475 1.355 . S
C476 C478 1.419 1_455 S
C477 C472 1.425 . S
C477 C474 1.409 . S
C477 C475 1.415 . S
C478 H468 0.930 . S
C478 C476 1.419 1_655 S
C478 C479 1.362 . S
C479 H469 0.930 . S
C479 C472 1.409 1_655 S
C479 C478 1.362 . S
C199 C24 3.240 . S
C204 C186 3.221 . S
C215 C66 1.243 . S
C220 C160 1.238 . S
C231 C93 1.884 . S
C236 C172 1.781 . S
C247 C13 2.899 . S
C252 C184 2.760 . S
C268 C162 1.131 . S
C263 C57 1.147 . S
C284 C174 1.808 . S
C279 C104 1.851 . S
C295 C64 1.979 . S
C300 C136 1.873 . S
C311 C97 0.921 . S
C316 C150 0.937 . S
C327 C17 1.244 . S
C332 C126 1.290 1_565 S
C348 C138 1.708 . S
C343 C53 1.766 . S
C364 C148 0.250 . S
C359 C106 0.379 . S
C375 C26 1.265 . S
C380 C124 1.307 . S
C396 C153 1.163 . S
C391 C2 1.193 . S
C407 C63 1.458 . S
C412 C129 1.499 . S
C423 C82 1.421 . S
C428 C141 1.453 . S
C444 C177 1.443 . S
C439 C42 1.448 . S
C460 C189 1.818 . S
C455 C103 1.762 . S
C471 C23 1.509 . S
C476 C165 1.522 . S
