# Generated by pormake.
# Topology the, (3,8)-cn, num edge types: 1
# Building blocks:
#     Node 0, Type 0, BuildingBlock: VETTIZ_charged_linker_0, # of connection points: 3
#     Node 1, Type 0, BuildingBlock: VETTIZ_charged_linker_0, # of connection points: 3
#     Node 2, Type 0, BuildingBlock: VETTIZ_charged_linker_0, # of connection points: 3
#     Node 3, Type 0, BuildingBlock: VETTIZ_charged_linker_0, # of connection points: 3
#     Node 4, Type 0, BuildingBlock: VETTIZ_charged_linker_0, # of connection points: 3
#     Node 5, Type 0, BuildingBlock: VETTIZ_charged_linker_0, # of connection points: 3
#     Node 6, Type 0, BuildingBlock: VETTIZ_charged_linker_0, # of connection points: 3
#     Node 7, Type 0, BuildingBlock: VETTIZ_charged_linker_0, # of connection points: 3
#     Node 8, Type 1, BuildingBlock: GIZVER_clean_sbu_0, # of connection points: 8
#     Node 9, Type 1, BuildingBlock: GIZVER_clean_sbu_0, # of connection points: 8
#     Node 10, Type 1, BuildingBlock: GIZVER_clean_sbu_0, # of connection points: 8
#     Edge 11, Type (0, 1), None
#     Edge 12, Type (0, 1), None
#     Edge 13, Type (0, 1), None
#     Edge 14, Type (0, 1), None
#     Edge 15, Type (0, 1), None
#     Edge 16, Type (0, 1), None
#     Edge 17, Type (0, 1), None
#     Edge 18, Type (0, 1), None
#     Edge 19, Type (0, 1), None
#     Edge 20, Type (0, 1), None
#     Edge 21, Type (0, 1), None
#     Edge 22, Type (0, 1), None
#     Edge 23, Type (0, 1), None
#     Edge 24, Type (0, 1), None
#     Edge 25, Type (0, 1), None
#     Edge 26, Type (0, 1), None
#     Edge 27, Type (0, 1), None
#     Edge 28, Type (0, 1), None
#     Edge 29, Type (0, 1), None
#     Edge 30, Type (0, 1), None
#     Edge 31, Type (0, 1), None
#     Edge 32, Type (0, 1), None
#     Edge 33, Type (0, 1), None
#     Edge 34, Type (0, 1), None
# Relax obj value: 0.057
# Max RMSD: 0.137
# Mean RMSD: 0.086
data_MOF--net-the--node1-GIZVER_clean_sbu_0--node2-VETTIZ_charged_linker_0--edge1-none
_symmetry_space_group_name_H-M    P1
_symmetry_Int_Tables_number       1
_symmetry_cell_setting            triclinic
loop_
_symmetry_equiv_pos_as_xyz
'x, y, z'
_cell_length_a     27.18703
_cell_length_b     26.762911
_cell_length_c     25.631457
_cell_angle_alpha  86.180943
_cell_angle_beta   97.552064
_cell_angle_gamma 108.25375
loop_
_atom_site_label
_atom_site_type_symbol
_atom_site_fract_x
_atom_site_fract_y
_atom_site_fract_z
_atom_type_partial_charge
C0 C 0.35516 0.17104 0.43173 0.0
C1 C 0.40691 0.17075 0.43376 0.0
C2 C 0.44499 0.21504 0.41556 0.0
C3 C 0.37934 0.2575 0.38961 0.0
C4 C 0.34254 0.21575 0.41073 0.0
C5 C 0.29363 0.22925 0.41597 0.0
H6 H 0.18585 0.42839 0.39654 0.0
C7 C 0.35544 0.29842 0.37248 0.0
C8 C 0.30608 0.28405 0.39015 0.0
H9 H 0.12885 0.27874 0.47725 0.0
H10 H 0.19194 0.2469 0.44059 0.0
H11 H 0.18125 0.37468 0.29707 0.0
H12 H 0.31106 0.4538 0.40521 0.0
H13 H 0.32054 0.47498 0.33876 0.0
H14 H 0.26493 0.48032 0.36538 0.0
H15 H 0.22231 0.43839 0.28073 0.0
H16 H 0.23463 0.37955 0.26256 0.0
C17 C 0.24655 0.18975 0.38523 0.0
C18 C 0.28913 0.22912 0.4752 0.0
C19 C 0.43155 0.42632 0.22943 0.0
C20 C 0.40755 0.45515 0.19295 0.0
C21 C 0.36104 0.46333 0.20212 0.0
C22 C 0.33822 0.44239 0.24767 0.0
C23 C 0.36064 0.41072 0.2824 0.0
C24 C 0.40624 0.40243 0.27272 0.0
C25 C 0.41901 0.35994 0.30796 0.0
C26 C 0.3718 0.34267 0.33848 0.0
C27 C 0.33917 0.3738 0.32449 0.0
C28 C 0.42104 0.31573 0.27293 0.0
C29 C 0.47078 0.38473 0.34354 0.0
C30 C 0.18875 0.38964 0.40828 0.0
C31 C 0.15547 0.35706 0.44221 0.0
C32 C 0.15629 0.30506 0.453 0.0
C33 C 0.19338 0.28723 0.43285 0.0
C34 C 0.22954 0.32217 0.40233 0.0
C35 C 0.22467 0.3713 0.38817 0.0
C36 C 0.25846 0.39907 0.34694 0.0
C37 C 0.29225 0.36359 0.3471 0.0
C38 C 0.27503 0.31829 0.37913 0.0
C39 C 0.22262 0.39812 0.29413 0.0
C40 C 0.29054 0.45519 0.36489 0.0
H41 H 0.46191 0.29166 0.38142 0.0
H42 H 0.32596 0.13834 0.448 0.0
H43 H 0.32812 0.24688 0.49743 0.0
H44 H 0.26495 0.25249 0.48419 0.0
H45 H 0.2728 0.18835 0.49088 0.0
H46 H 0.25456 0.18672 0.3443 0.0
H47 H 0.2382 0.14993 0.40433 0.0
H48 H 0.21101 0.20193 0.38236 0.0
H49 H 0.46662 0.41846 0.22161 0.0
H50 H 0.34133 0.48385 0.17309 0.0
H51 H 0.30292 0.44965 0.25305 0.0
H52 H 0.38377 0.30107 0.2468 0.0
H53 H 0.45304 0.33042 0.24768 0.0
H54 H 0.42772 0.28158 0.29556 0.0
H55 H 0.48427 0.42847 0.34018 0.0
H56 H 0.46643 0.37531 0.38586 0.0
H57 H 0.50278 0.37111 0.33305 0.0
H58 H 0.48527 0.21574 0.41741 0.0
C59 C 0.43144 0.25859 0.39385 0.0
C60 C 0.62779 0.16987 0.3937 0.0
C61 C 0.57756 0.13819 0.3731 0.0
C62 C 0.55499 0.15299 0.3244 0.0
C63 C 0.62857 0.2323 0.32038 0.0
C64 C 0.65254 0.2168 0.36664 0.0
C65 C 0.70486 0.25683 0.38318 0.0
H66 H 0.87279 0.50404 0.35502 0.0
C67 C 0.66147 0.28504 0.30444 0.0
C68 C 0.70664 0.2999 0.3405 0.0
H69 H 0.8935 0.38077 0.46475 0.0
H70 H 0.81231 0.32046 0.42536 0.0
H71 H 0.74505 0.47771 0.35303 0.0
H72 H 0.83142 0.42371 0.25019 0.0
H73 H 0.78245 0.4463 0.21362 0.0
H74 H 0.83564 0.49196 0.25224 0.0
H75 H 0.78868 0.52257 0.31178 0.0
H76 H 0.72332 0.48656 0.28593 0.0
C77 C 0.70353 0.27642 0.43824 0.0
C78 C 0.74805 0.23083 0.38107 0.0
C79 C 0.58476 0.37756 0.15242 0.0
C80 C 0.59971 0.42802 0.12904 0.0
C81 C 0.649 0.46333 0.14715 0.0
C82 C 0.68168 0.44877 0.18907 0.0
C83 C 0.6651 0.39823 0.21307 0.0
C84 C 0.61753 0.36372 0.19369 0.0
C85 C 0.60449 0.31216 0.22327 0.0
C86 C 0.65192 0.32055 0.2638 0.0
C87 C 0.68776 0.37104 0.25851 0.0
C88 C 0.55401 0.30581 0.24892 0.0
C89 C 0.60048 0.26856 0.18437 0.0
C90 C 0.86001 0.46377 0.36991 0.0
C91 C 0.88965 0.44689 0.41289 0.0
C92 C 0.87175 0.39436 0.43137 0.0
C93 C 0.82445 0.35959 0.40863 0.0
C94 C 0.79469 0.37718 0.36641 0.0
C95 C 0.81331 0.42816 0.34668 0.0
C96 C 0.77769 0.43889 0.29962 0.0
C97 C 0.73425 0.38641 0.29498 0.0
C98 C 0.74406 0.35062 0.33508 0.0
C99 C 0.75762 0.48401 0.31288 0.0
C100 C 0.80822 0.45122 0.25116 0.0
H101 H 0.5598 0.20867 0.26186 0.0
H102 H 0.64647 0.15958 0.431 0.0
H103 H 0.73605 0.19979 0.35104 0.0
H104 H 0.78436 0.25904 0.36898 0.0
H105 H 0.75698 0.21208 0.41962 0.0
H106 H 0.66688 0.28624 0.4396 0.0
H107 H 0.70521 0.24568 0.46914 0.0
H108 H 0.73569 0.31251 0.44885 0.0
H109 H 0.54732 0.34938 0.13979 0.0
H110 H 0.66145 0.50285 0.13028 0.0
H111 H 0.71806 0.47764 0.2019 0.0
H112 H 0.55134 0.34469 0.25877 0.0
H113 H 0.51859 0.28647 0.22198 0.0
H114 H 0.55248 0.28374 0.28695 0.0
H115 H 0.62645 0.28402 0.15297 0.0
H116 H 0.61362 0.23589 0.2035 0.0
H117 H 0.56009 0.25243 0.16469 0.0
H118 H 0.51681 0.12943 0.30732 0.0
C119 C 0.58016 0.19945 0.29801 0.0
C120 C 0.89561 0.72409 0.38342 0.0
C121 C 0.90868 0.67955 0.37124 0.0
C122 C 0.89125 0.65822 0.32099 0.0
C123 C 0.84137 0.71909 0.29905 0.0
C124 C 0.86159 0.74323 0.34659 0.0
C125 C 0.83711 0.78543 0.35467 0.0
H126 H 0.61369 0.84948 0.31605 0.0
C127 C 0.79916 0.74012 0.27443 0.0
C128 C 0.79584 0.77897 0.30702 0.0
H129 H 0.74954 0.92166 0.42428 0.0
H130 H 0.80014 0.8787 0.38202 0.0
H131 H 0.62419 0.73142 0.30668 0.0
H132 H 0.67757 0.87736 0.21979 0.0
H133 H 0.67335 0.82794 0.176 0.0
H134 H 0.61515 0.83068 0.20111 0.0
H135 H 0.5832 0.76586 0.26983 0.0
H136 H 0.60661 0.72175 0.23817 0.0
C137 C 0.8127 0.77259 0.40643 0.0
C138 C 0.8795 0.83949 0.3537 0.0
C139 C 0.67723 0.6417 0.12129 0.0
C140 C 0.62869 0.6438 0.09678 0.0
C141 C 0.61014 0.68481 0.10856 0.0
C142 C 0.63808 0.72135 0.14696 0.0
C143 C 0.68462 0.71623 0.17439 0.0
C144 C 0.70461 0.67838 0.15974 0.0
C145 C 0.75388 0.67798 0.19383 0.0
C146 C 0.76042 0.72217 0.23111 0.0
C147 C 0.71895 0.74344 0.22045 0.0
C148 C 0.74402 0.62323 0.22272 0.0
C149 C 0.79845 0.69196 0.1583 0.0
C150 C 0.65408 0.85513 0.33138 0.0
C151 C 0.67707 0.88713 0.37495 0.0
C152 C 0.73057 0.89613 0.39168 0.0
C153 C 0.75958 0.87048 0.3678 0.0
C154 C 0.73472 0.83483 0.32738 0.0
C155 C 0.68381 0.83056 0.30753 0.0
C156 C 0.66639 0.79845 0.25862 0.0
C157 C 0.71364 0.78029 0.25514 0.0
C158 C 0.75304 0.80005 0.29676 0.0
C159 C 0.61739 0.75186 0.26846 0.0
C160 C 0.65728 0.83514 0.21134 0.0
H161 H 0.84507 0.65843 0.2481 0.0
H162 H 0.90856 0.74102 0.42187 0.0
H163 H 0.90487 0.84147 0.32242 0.0
H164 H 0.86284 0.87214 0.34442 0.0
H165 H 0.9047 0.84667 0.39198 0.0
H166 H 0.7839 0.73251 0.40544 0.0
H167 H 0.84381 0.77413 0.43907 0.0
H168 H 0.79263 0.79994 0.41583 0.0
H169 H 0.69145 0.60951 0.11404 0.0
H170 H 0.57211 0.6862 0.09086 0.0
H171 H 0.62086 0.75021 0.156 0.0
H172 H 0.70172 0.60242 0.22374 0.0
H173 H 0.76017 0.59702 0.20316 0.0
H174 H 0.76027 0.62613 0.26469 0.0
H175 H 0.79473 0.72343 0.12884 0.0
H176 H 0.83747 0.70791 0.1805 0.0
H177 H 0.79749 0.65716 0.13638 0.0
H178 H 0.90065 0.62386 0.31081 0.0
C179 C 0.85838 0.67804 0.28476 0.0
C180 C 0.45469 0.86295 0.36544 0.0
C181 C 0.44524 0.88551 0.40926 0.0
C182 C 0.39712 0.86356 0.42968 0.0
C183 C 0.37085 0.79457 0.36479 0.0
C184 C 0.41747 0.81795 0.34407 0.0
C185 C 0.42507 0.78705 0.3009 0.0
H186 H 0.34907 0.56991 0.15535 0.0
C187 C 0.34325 0.74518 0.33576 0.0
C188 C 0.37504 0.74137 0.29803 0.0
H189 H 0.49407 0.6973 0.16424 0.0
H190 H 0.46133 0.74394 0.22073 0.0
H191 H 0.34209 0.55624 0.26721 0.0
H192 H 0.26842 0.64909 0.16087 0.0
H193 H 0.22299 0.61043 0.2023 0.0
H194 H 0.25182 0.57865 0.16041 0.0
H195 H 0.27873 0.52786 0.23199 0.0
H196 H 0.28691 0.55625 0.2956 0.0
C197 C 0.47398 0.76909 0.3191 0.0
C198 C 0.42859 0.82192 0.24987 0.0
C199 C 0.17505 0.61483 0.39206 0.0
C200 C 0.14415 0.56448 0.3743 0.0
C201 C 0.15605 0.54578 0.3288 0.0
C202 C 0.1987 0.57521 0.30286 0.0
C203 C 0.23057 0.62398 0.32255 0.0
C204 C 0.21796 0.64377 0.36571 0.0
C205 C 0.257 0.69634 0.38104 0.0
C206 C 0.2956 0.70396 0.3409 0.0
C207 C 0.2799 0.66105 0.3069 0.0
C208 C 0.28238 0.69112 0.43795 0.0
C209 C 0.22848 0.73845 0.37375 0.0
C210 C 0.37327 0.60802 0.16921 0.0
C211 C 0.42451 0.6296 0.15596 0.0
C212 C 0.45471 0.67958 0.17437 0.0
C213 C 0.43567 0.70655 0.20762 0.0
C214 C 0.38618 0.68291 0.22414 0.0
C215 C 0.35529 0.63491 0.20436 0.0
C216 C 0.3052 0.61477 0.2295 0.0
C217 C 0.31221 0.65785 0.2685 0.0
C218 C 0.3594 0.69782 0.26435 0.0
C219 C 0.30265 0.56089 0.25734 0.0
C220 C 0.25937 0.61268 0.18616 0.0
H221 H 0.32436 0.80217 0.42558 0.0
H222 H 0.49197 0.87821 0.34998 0.0
H223 H 0.40129 0.84571 0.24748 0.0
H224 H 0.41704 0.79883 0.21365 0.0
H225 H 0.46856 0.84968 0.24864 0.0
H226 H 0.48167 0.76675 0.36279 0.0
H227 H 0.50952 0.79689 0.30454 0.0
H228 H 0.46937 0.72892 0.30671 0.0
H229 H 0.16748 0.63043 0.42704 0.0
H230 H 0.13324 0.50743 0.31399 0.0
H231 H 0.20615 0.55812 0.26924 0.0
H232 H 0.28999 0.65256 0.44458 0.0
H233 H 0.25654 0.69378 0.46708 0.0
H234 H 0.32061 0.7211 0.44671 0.0
H235 H 0.20134 0.73242 0.33661 0.0
H236 H 0.25538 0.77878 0.37036 0.0
H237 H 0.20519 0.73632 0.40682 0.0
H238 H 0.38974 0.87965 0.46448 0.0
C239 C 0.35965 0.81825 0.40746 0.0
C240 C 0.49789 0.65688 0.84307 0.0
C241 C 0.48243 0.6068 0.86715 0.0
C242 C 0.4326 0.57198 0.84977 0.0
C243 C 0.41683 0.63692 0.78346 0.0
C244 C 0.46507 0.67085 0.80197 0.0
C245 C 0.47861 0.72208 0.77193 0.0
H246 H 0.43689 0.8747 0.56429 0.0
C247 C 0.3941 0.66429 0.73819 0.0
C248 C 0.43068 0.71423 0.73213 0.0
H249 H 0.56836 0.90249 0.68581 0.0
H250 H 0.52467 0.82433 0.73217 0.0
H251 H 0.34853 0.83702 0.64637 0.0
H252 H 0.4135 0.74807 0.55616 0.0
H253 H 0.34468 0.72231 0.54863 0.0
H254 H 0.37512 0.78884 0.52734 0.0
H255 H 0.32639 0.82489 0.57796 0.0
H256 H 0.2989 0.77848 0.62897 0.0
C257 C 0.48414 0.76631 0.81069 0.0
C258 C 0.5284 0.72706 0.74549 0.0
C259 C 0.21923 0.57414 0.62938 0.0
C260 C 0.18976 0.59137 0.58643 0.0
C261 C 0.20842 0.6437 0.56766 0.0
C262 C 0.25627 0.67788 0.58999 0.0
C263 C 0.28592 0.65985 0.632 0.0
C264 C 0.26659 0.60914 0.65212 0.0
C265 C 0.30248 0.59783 0.69868 0.0
C266 C 0.34691 0.64965 0.70254 0.0
C267 C 0.33727 0.6856 0.66252 0.0
C268 C 0.27289 0.58664 0.74775 0.0
C269 C 0.32095 0.55171 0.68515 0.0
C270 C 0.45573 0.86417 0.60139 0.0
C271 C 0.50671 0.89477 0.62104 0.0
C272 C 0.5296 0.87968 0.66943 0.0
C273 C 0.50399 0.83385 0.69639 0.0
C274 C 0.45476 0.80195 0.67495 0.0
C275 C 0.43051 0.81783 0.62906 0.0
C276 C 0.37743 0.77864 0.6135 0.0
C277 C 0.37546 0.73568 0.65631 0.0
C278 C 0.42125 0.74982 0.69156 0.0
C279 C 0.33537 0.80593 0.61637 0.0
C280 C 0.37723 0.75834 0.55836 0.0
H281 H 0.36294 0.55827 0.79588 0.0
H282 H 0.53572 0.6847 0.85507 0.0
H283 H 0.53089 0.68777 0.73681 0.0
H284 H 0.52902 0.74782 0.70675 0.0
H285 H 0.56441 0.74718 0.77131 0.0
H286 H 0.45836 0.75171 0.84237 0.0
H287 H 0.52478 0.78165 0.83 0.0
H288 H 0.47178 0.79943 0.79155 0.0
H289 H 0.20595 0.53398 0.64444 0.0
H290 H 0.18695 0.65752 0.5342 0.0
H291 H 0.26898 0.71684 0.57296 0.0
H292 H 0.25117 0.61539 0.74943 0.0
H293 H 0.24426 0.54651 0.74684 0.0
H294 H 0.2992 0.5906 0.78489 0.0
H295 H 0.33304 0.55749 0.64481 0.0
H296 H 0.35514 0.54836 0.71178 0.0
H297 H 0.28917 0.51371 0.68659 0.0
H298 H 0.4197 0.53273 0.86718 0.0
C299 C 0.39981 0.58673 0.80805 0.0
C300 C 0.19429 0.32577 0.60892 0.0
C301 C 0.17159 0.35968 0.62916 0.0
C302 C 0.18237 0.37079 0.68307 0.0
C303 C 0.24388 0.32105 0.69416 0.0
C304 C 0.23008 0.30659 0.64229 0.0
C305 C 0.26078 0.27294 0.62693 0.0
H306 H 0.4714 0.18694 0.67523 0.0
C307 C 0.28756 0.30122 0.71608 0.0
C308 C 0.29581 0.2703 0.6779 0.0
H309 H 0.3466 0.14271 0.54803 0.0
H310 H 0.29936 0.19171 0.58669 0.0
H311 H 0.47047 0.30858 0.68643 0.0
H312 H 0.39681 0.16203 0.76517 0.0
H313 H 0.41304 0.21124 0.81213 0.0
H314 H 0.46424 0.19797 0.7824 0.0
H315 H 0.5058 0.27199 0.72862 0.0
H316 H 0.48037 0.31807 0.75479 0.0
C317 C 0.29381 0.30308 0.5836 0.0
C318 C 0.22244 0.21846 0.61033 0.0
C319 C 0.40513 0.39104 0.87531 0.0
C320 C 0.4545 0.39003 0.89825 0.0
C321 C 0.47415 0.35057 0.88437 0.0
C322 C 0.44669 0.31504 0.84495 0.0
C323 C 0.3996 0.31979 0.81852 0.0
C324 C 0.37832 0.35562 0.83556 0.0
C325 C 0.32847 0.35585 0.80243 0.0
C326 C 0.3241 0.31523 0.76178 0.0
C327 C 0.36664 0.29522 0.77058 0.0
C328 C 0.33671 0.41191 0.77744 0.0
C329 C 0.28341 0.33774 0.83755 0.0
C330 C 0.43368 0.18759 0.6559 0.0
C331 C 0.41276 0.16137 0.60835 0.0
C332 C 0.36333 0.16243 0.58469 0.0
C333 C 0.33604 0.1909 0.60702 0.0
C334 C 0.3578 0.21769 0.65401 0.0
C335 C 0.40512 0.21439 0.67854 0.0
C336 C 0.42056 0.24248 0.73005 0.0
C337 C 0.37457 0.26304 0.73237 0.0
C338 C 0.33868 0.24968 0.68687 0.0
C339 C 0.47211 0.28758 0.72527 0.0
C340 C 0.42433 0.20169 0.775 0.0
H341 H 0.22575 0.36219 0.75622 0.0
H342 H 0.18706 0.31734 0.5674 0.0
H343 H 0.18222 0.21296 0.61967 0.0
H344 H 0.23403 0.18572 0.63175 0.0
H345 H 0.21954 0.21325 0.56729 0.0
H346 H 0.31814 0.3429 0.59697 0.0
H347 H 0.26855 0.30852 0.54741 0.0
H348 H 0.32082 0.28277 0.57383 0.0
H349 H 0.38993 0.42183 0.88474 0.0
H350 H 0.51266 0.34986 0.90114 0.0
H351 H 0.46471 0.28736 0.8344 0.0
H352 H 0.37458 0.4261 0.76068 0.0
H353 H 0.33718 0.44037 0.80727 0.0
H354 H 0.30686 0.41415 0.74477 0.0
H355 H 0.29335 0.31509 0.87318 0.0
H356 H 0.24761 0.3105 0.81698 0.0
H357 H 0.27403 0.37187 0.85123 0.0
H358 H 0.16585 0.39759 0.69911 0.0
C359 C 0.21775 0.35093 0.71589 0.0
C360 C 0.62953 0.17003 0.63138 0.0
C361 C 0.63998 0.14781 0.5878 0.0
C362 C 0.68861 0.16988 0.56849 0.0
C363 C 0.71362 0.23816 0.63395 0.0
C364 C 0.66649 0.21477 0.65368 0.0
C365 C 0.65819 0.24563 0.69662 0.0
H366 H 0.73251 0.46569 0.83867 0.0
C367 C 0.74094 0.28715 0.66355 0.0
C368 C 0.7086 0.29097 0.70072 0.0
H369 H 0.58703 0.33889 0.82949 0.0
H370 H 0.62066 0.29024 0.77573 0.0
H371 H 0.74204 0.47054 0.7217 0.0
H372 H 0.81169 0.38617 0.84283 0.0
H373 H 0.85847 0.41624 0.7997 0.0
H374 H 0.83374 0.45666 0.83636 0.0
H375 H 0.79511 0.50299 0.76961 0.0
H376 H 0.80607 0.48022 0.70896 0.0
C377 C 0.60984 0.26419 0.67742 0.0
C378 C 0.65318 0.21052 0.74743 0.0
C379 C 0.90831 0.41856 0.6076 0.0
C380 C 0.93975 0.46823 0.62658 0.0
C381 C 0.92977 0.48497 0.67404 0.0
C382 C 0.88779 0.45463 0.70038 0.0
C383 C 0.85442 0.40732 0.67876 0.0
C384 C 0.86603 0.38882 0.6343 0.0
C385 C 0.82707 0.33641 0.61849 0.0
C386 C 0.78887 0.32806 0.65914 0.0
C387 C 0.80486 0.37032 0.69391 0.0
C388 C 0.80121 0.34234 0.5619 0.0
C389 C 0.85585 0.29448 0.62469 0.0
C390 C 0.70872 0.42682 0.82605 0.0
C391 C 0.65707 0.40611 0.8381 0.0
C392 C 0.62677 0.35588 0.82024 0.0
C393 C 0.64636 0.32768 0.78874 0.0
C394 C 0.69662 0.35018 0.77372 0.0
C395 C 0.72752 0.39829 0.79331 0.0
C396 C 0.77836 0.41733 0.76966 0.0
C397 C 0.77192 0.37379 0.73152 0.0
C398 C 0.72416 0.33434 0.73473 0.0
C399 C 0.7812 0.47069 0.74108 0.0
C400 C 0.82324 0.41974 0.81426 0.0
H401 H 0.76136 0.2311 0.57411 0.0
H402 H 0.59173 0.15482 0.6458 0.0
H403 H 0.68125 0.1875 0.75119 0.0
H404 H 0.6626 0.2334 0.7837 0.0
H405 H 0.61334 0.18208 0.74701 0.0
H406 H 0.60276 0.26637 0.63368 0.0
H407 H 0.57388 0.23684 0.69159 0.0
H408 H 0.61475 0.30454 0.6895 0.0
H409 H 0.915 0.40408 0.57156 0.0
H410 H 0.9535 0.52249 0.69011 0.0
H411 H 0.88191 0.47009 0.73579 0.0
H412 H 0.79275 0.38054 0.55638 0.0
H413 H 0.82717 0.34108 0.53235 0.0
H414 H 0.76339 0.31186 0.55269 0.0
H415 H 0.8849 0.30144 0.66044 0.0
H416 H 0.82944 0.25423 0.63022 0.0
H417 H 0.87707 0.29565 0.5902 0.0
H418 H 0.69667 0.15421 0.53378 0.0
C419 C 0.72569 0.21486 0.59154 0.0
C420 C 0.72129 0.60436 0.79183 0.0
C421 C 0.66962 0.59406 0.80192 0.0
C422 C 0.63524 0.61418 0.76742 0.0
C423 C 0.70613 0.66091 0.7178 0.0
C424 C 0.73849 0.63711 0.74884 0.0
C425 C 0.79199 0.65167 0.73128 0.0
H426 H 0.90489 0.71256 0.51356 0.0
C427 C 0.73732 0.69729 0.6806 0.0
C428 C 0.78742 0.69144 0.6875 0.0
H429 H 0.95903 0.64006 0.65548 0.0
H430 H 0.89966 0.66558 0.70421 0.0
H431 H 0.89691 0.79915 0.51836 0.0
H432 H 0.76751 0.67997 0.54041 0.0
H433 H 0.76746 0.73922 0.50322 0.0
H434 H 0.81063 0.70253 0.49134 0.0
H435 H 0.84129 0.82062 0.51457 0.0
H436 H 0.88697 0.82967 0.57431 0.0
C437 C 0.83302 0.6777 0.77712 0.0
C438 C 0.80012 0.6018 0.71087 0.0
C439 C 0.66738 0.82823 0.56692 0.0
C440 C 0.69557 0.8766 0.54494 0.0
C441 C 0.74962 0.88876 0.54371 0.0
C442 C 0.77524 0.85255 0.56355 0.0
C443 C 0.7461 0.80337 0.58224 0.0
C444 C 0.69403 0.7931 0.5876 0.0
C445 C 0.67578 0.74871 0.62712 0.0
C446 C 0.72592 0.73491 0.64356 0.0
C447 C 0.76481 0.7648 0.61391 0.0
C448 C 0.65751 0.77039 0.6732 0.0
C449 C 0.63313 0.70331 0.59795 0.0
C450 C 0.90408 0.70277 0.55516 0.0
C451 C 0.93547 0.67417 0.58093 0.0
C452 C 0.93441 0.66194 0.63519 0.0
C453 C 0.89996 0.67598 0.66306 0.0
C454 C 0.86678 0.70233 0.63602 0.0
C455 C 0.87114 0.71788 0.58397 0.0
C456 C 0.835 0.7487 0.56351 0.0
C457 C 0.8106 0.75139 0.61285 0.0
C458 C 0.82407 0.71783 0.6524 0.0
C459 C 0.86659 0.80266 0.54172 0.0
C460 C 0.79286 0.71605 0.52198 0.0
H461 H 0.62606 0.66361 0.70126 0.0
H462 H 0.74798 0.58855 0.81773 0.0
H463 H 0.80478 0.60518 0.66832 0.0
H464 H 0.83448 0.59291 0.73297 0.0
H465 H 0.76581 0.56652 0.71453 0.0
H466 H 0.82035 0.70694 0.79631 0.0
H467 H 0.83874 0.64775 0.80746 0.0
H468 H 0.87113 0.69941 0.76358 0.0
H469 H 0.62682 0.82033 0.57268 0.0
H470 H 0.77234 0.92733 0.5303 0.0
H471 H 0.81718 0.86542 0.5691 0.0
H472 H 0.6832 0.81092 0.68256 0.0
H473 H 0.61707 0.77213 0.66299 0.0
H474 H 0.6594 0.74746 0.71032 0.0
H475 H 0.64354 0.69854 0.55842 0.0
H476 H 0.62832 0.66478 0.61845 0.0
H477 H 0.59502 0.71126 0.59221 0.0
H478 H 0.59526 0.60672 0.77512 0.0
C479 C 0.65337 0.64788 0.72533 0.0
Co480 Co 0.12167 0.44787 0.54869 0.0
Co481 Co 0.0727 0.42892 0.45419 0.0
Co482 Co 1.03983 0.51847 0.49938 0.0
O483 O 0.0553 0.45033 0.51409 0.0
H484 H 1.0265 0.42291 0.52685 0.0
O485 O 1.02442 0.58673 0.48561 0.0
Co486 Co 0.95764 0.59162 0.45458 0.0
Co487 Co 1.00792 0.60382 0.54798 0.0
H488 H 0.05338 0.61453 0.47365 0.0
O489 O 0.06975 0.3595 0.44568 0.0
O490 O 0.13744 0.42501 0.48275 0.0
O491 O 0.08795 0.48016 0.39669 0.0
O492 O 0.09234 0.54668 0.44631 0.0
O493 O 0.98164 0.48346 0.44308 0.0
O494 O 0.89904 0.6008 0.423 0.0
O495 O 0.97875 0.66097 0.43205 0.0
O496 O 0.92599 0.51924 0.46932 0.0
O497 O 0.98725 0.4892 0.5517 0.0
O498 O 0.99692 0.55277 0.60614 0.0
O499 O 0.94393 0.6118 0.52401 0.0
O500 O 1.01743 0.67094 0.5638 0.0
C501 C 0.14921 0.3942 0.59345 0.0
C502 C 0.14452 0.55297 0.55667 0.0
C503 C 0.10399 0.529 0.40596 0.0
C504 C 0.11888 0.37847 0.46261 0.0
C505 C 0.92971 0.64722 0.41196 0.0
C506 C 0.93497 0.48548 0.44229 0.0
C507 C 0.97887 0.50469 0.59467 0.0
C508 C 0.96715 0.65409 0.55146 0.0
O509 O 0.17987 0.44063 0.58267 0.0
O510 O 0.1002 0.37996 0.5735 0.0
O511 O 0.09767 0.55418 0.55595 0.0
O512 O 0.15345 0.51882 0.53046 0.0
Co513 Co 0.59679 0.93462 0.44516 0.0
Co514 Co 0.62832 0.96842 0.54024 0.0
Co515 Co 0.54228 1.01741 0.49761 0.0
O516 O 0.60288 0.99773 0.48009 0.0
H517 H 0.63006 0.02761 0.46827 0.0
O518 O 0.48192 0.03827 0.51454 0.0
Co519 Co 0.49048 0.10457 0.54544 0.0
Co520 Co 0.45647 0.06538 0.45167 0.0
H521 H 0.45498 1.00934 0.52816 0.0
O522 O 0.69504 0.96475 0.5492 0.0
O523 O 0.62192 0.90457 0.51242 0.0
O524 O 0.58788 0.95202 0.59935 0.0
O525 O 0.51725 0.95536 0.54759 0.0
O526 O 0.58991 0.06211 0.55528 0.0
O527 O 0.49233 0.16321 0.57638 0.0
O528 O 0.42435 0.08937 0.56292 0.0
O529 O 0.56107 0.13008 0.53285 0.0
O530 O 0.56709 0.07938 0.44773 0.0
O531 O 0.49714 0.07676 0.39239 0.0
O532 O 0.46978 0.13233 0.47576 0.0
O533 O 0.39236 0.07809 0.44082 0.0
C534 C 0.64431 0.90826 0.40395 0.0
C535 C 0.49011 0.92289 0.43927 0.0
C536 C 0.53866 0.93833 0.58919 0.0
C537 C 0.67049 0.91749 0.5329 0.0
C538 C 0.44425 0.13656 0.58202 0.0
C539 C 0.59573 0.11128 0.55627 0.0
C540 C 0.54617 0.09356 0.40432 0.0
C541 C 0.42235 0.12486 0.45363 0.0
O542 O 0.59708 0.87902 0.41013 0.0
O543 O 0.66241 0.95461 0.42507 0.0
O544 O 0.49474 0.9719 0.44041 0.0
O545 O 0.52679 0.90523 0.45979 0.0
Co546 Co 0.49255 0.5627 0.09326 0.0
Co547 Co 0.4652 0.46246 0.07905 0.0
Co548 Co 0.54099 0.51704 0.9976 0.0
O549 O 0.48094 0.51934 0.0335 0.0
H550 H 0.45067 0.52007 0.00941 0.0
O551 O 0.60099 0.51484 0.9615 0.0
Co552 Co 0.58952 0.47313 0.90065 0.0
Co553 Co 0.61638 0.57207 0.91684 0.0
H554 H 0.63125 0.51382 0.98546 0.0
O555 O 0.40096 0.43887 0.10274 0.0
O556 O 0.47365 0.49941 0.13959 0.0
O557 O 0.5131 0.42146 0.09274 0.0
O558 O 0.57645 0.48517 0.06047 0.0
O559 O 0.49881 0.44544 0.97102 0.0
O560 O 0.58322 0.43322 0.84677 0.0
O561 O 0.65524 0.46801 0.90316 0.0
O562 O 0.51959 0.47038 0.89112 0.0
O563 O 0.50548 0.54881 0.93485 0.0
O564 O 0.56892 0.61387 0.90485 0.0
O565 O 0.60794 0.53766 0.85481 0.0
O566 O 0.68064 0.59677 0.89426 0.0
C567 C 0.45047 0.59917 0.12935 0.0
C568 C 0.59145 0.59601 0.07354 0.0
C569 C 0.56129 0.44455 0.09045 0.0
C570 C 0.42659 0.46799 0.14201 0.0
C571 C 0.63141 0.43736 0.86388 0.0
C572 C 0.4911 0.43809 0.92157 0.0
C573 C 0.52068 0.59018 0.90595 0.0
C574 C 0.65403 0.57179 0.85281 0.0
O575 O 0.49876 0.60358 0.14631 0.0
O576 O 0.42679 0.56854 0.09001 0.0
O577 O 0.58336 0.58869 0.0241 0.0
O578 O 0.56227 0.56452 0.10393 0.0
loop_
_geom_bond_atom_site_label_1
_geom_bond_atom_site_label_2
_geom_bond_distance
_geom_bond_site_symmetry_2
_ccdc_geom_bond_type
C0 C1 1.391 . S
C0 C4 1.391 . S
C0 H42 0.948 . S
C1 C0 1.391 . S
C1 C2 1.391 . S
C2 C1 1.391 . S
C2 H58 0.947 . S
C2 C59 1.392 . S
C3 C4 1.391 . S
C3 C7 1.397 . S
C3 C59 1.419 . S
C4 C0 1.391 . S
C4 C3 1.391 . S
C4 C5 1.399 . S
C5 C4 1.399 . S
C5 C8 1.396 . S
C5 C17 1.453 . S
C5 C18 1.684 . S
H6 C30 0.948 . S
C7 C3 1.397 . S
C7 C8 1.394 . S
C7 C26 1.723 . S
C8 C5 1.396 . S
C8 C7 1.394 . S
C8 C38 1.723 . S
H9 C32 0.947 . S
H10 C33 0.948 . S
H11 C39 0.982 . S
H12 C40 0.979 . S
H13 C40 0.980 . S
H14 C40 0.983 . S
H15 C39 0.979 . S
H16 C39 0.977 . S
C17 C5 1.453 . S
C17 H46 0.982 . S
C17 H47 0.979 . S
C17 H48 0.977 . S
C18 C5 1.684 . S
C18 H43 0.979 . S
C18 H44 0.980 . S
C18 H45 0.983 . S
C19 C20 1.391 . S
C19 C24 1.391 . S
C19 H49 0.948 . S
C20 C19 1.391 . S
C20 C21 1.391 . S
C21 C20 1.391 . S
C21 C22 1.392 . S
C21 H50 0.947 . S
C22 C21 1.392 . S
C22 C23 1.419 . S
C22 H51 0.948 . S
C23 C22 1.419 . S
C23 C24 1.391 . S
C23 C27 1.397 . S
C24 C19 1.391 . S
C24 C23 1.391 . S
C24 C25 1.399 . S
C25 C24 1.399 . S
C25 C26 1.396 . S
C25 C28 1.453 . S
C25 C29 1.684 . S
C26 C7 1.723 . S
C26 C25 1.396 . S
C26 C27 1.394 . S
C27 C23 1.397 . S
C27 C26 1.394 . S
C27 C37 1.723 . S
C28 C25 1.453 . S
C28 H52 0.982 . S
C28 H53 0.979 . S
C28 H54 0.977 . S
C29 C25 1.684 . S
C29 H55 0.979 . S
C29 H56 0.980 . S
C29 H57 0.983 . S
C30 H6 0.948 . S
C30 C31 1.391 . S
C30 C35 1.391 . S
C31 C30 1.391 . S
C31 C32 1.391 . S
C32 H9 0.947 . S
C32 C31 1.391 . S
C32 C33 1.392 . S
C33 H10 0.948 . S
C33 C32 1.392 . S
C33 C34 1.419 . S
C34 C33 1.419 . S
C34 C35 1.391 . S
C34 C38 1.397 . S
C35 C30 1.391 . S
C35 C34 1.391 . S
C35 C36 1.399 . S
C36 C35 1.399 . S
C36 C37 1.396 . S
C36 C39 1.453 . S
C36 C40 1.684 . S
C37 C27 1.723 . S
C37 C36 1.396 . S
C37 C38 1.394 . S
C38 C8 1.723 . S
C38 C34 1.397 . S
C38 C37 1.394 . S
C39 H11 0.982 . S
C39 H15 0.979 . S
C39 H16 0.977 . S
C39 C36 1.453 . S
C40 H12 0.979 . S
C40 H13 0.980 . S
C40 H14 0.983 . S
C40 C36 1.684 . S
H41 C59 0.948 . S
H42 C0 0.948 . S
H43 C18 0.979 . S
H44 C18 0.980 . S
H45 C18 0.983 . S
H46 C17 0.982 . S
H47 C17 0.979 . S
H48 C17 0.977 . S
H49 C19 0.948 . S
H50 C21 0.947 . S
H51 C22 0.948 . S
H52 C28 0.982 . S
H53 C28 0.979 . S
H54 C28 0.977 . S
H55 C29 0.979 . S
H56 C29 0.980 . S
H57 C29 0.983 . S
H58 C2 0.947 . S
C59 C2 1.392 . S
C59 C3 1.419 . S
C59 H41 0.948 . S
C60 C61 1.391 . S
C60 C64 1.391 . S
C60 H102 0.948 . S
C61 C60 1.391 . S
C61 C62 1.391 . S
C62 C61 1.391 . S
C62 H118 0.947 . S
C62 C119 1.392 . S
C63 C64 1.391 . S
C63 C67 1.397 . S
C63 C119 1.419 . S
C64 C60 1.391 . S
C64 C63 1.391 . S
C64 C65 1.399 . S
C65 C64 1.399 . S
C65 C68 1.396 . S
C65 C77 1.453 . S
C65 C78 1.684 . S
H66 C90 0.948 . S
C67 C63 1.397 . S
C67 C68 1.394 . S
C67 C86 1.723 . S
C68 C65 1.396 . S
C68 C67 1.394 . S
C68 C98 1.723 . S
H69 C92 0.947 . S
H70 C93 0.948 . S
H71 C99 0.982 . S
H72 C100 0.979 . S
H73 C100 0.980 . S
H74 C100 0.983 . S
H75 C99 0.979 . S
H76 C99 0.977 . S
C77 C65 1.453 . S
C77 H106 0.982 . S
C77 H107 0.979 . S
C77 H108 0.977 . S
C78 C65 1.684 . S
C78 H103 0.979 . S
C78 H104 0.980 . S
C78 H105 0.983 . S
C79 C80 1.391 . S
C79 C84 1.391 . S
C79 H109 0.948 . S
C80 C79 1.391 . S
C80 C81 1.391 . S
C81 C80 1.391 . S
C81 C82 1.392 . S
C81 H110 0.947 . S
C82 C81 1.392 . S
C82 C83 1.419 . S
C82 H111 0.948 . S
C83 C82 1.419 . S
C83 C84 1.391 . S
C83 C87 1.397 . S
C84 C79 1.391 . S
C84 C83 1.391 . S
C84 C85 1.399 . S
C85 C84 1.399 . S
C85 C86 1.396 . S
C85 C88 1.453 . S
C85 C89 1.684 . S
C86 C67 1.723 . S
C86 C85 1.396 . S
C86 C87 1.394 . S
C87 C83 1.397 . S
C87 C86 1.394 . S
C87 C97 1.723 . S
C88 C85 1.453 . S
C88 H112 0.982 . S
C88 H113 0.979 . S
C88 H114 0.977 . S
C89 C85 1.684 . S
C89 H115 0.979 . S
C89 H116 0.980 . S
C89 H117 0.983 . S
C90 H66 0.948 . S
C90 C91 1.391 . S
C90 C95 1.391 . S
C91 C90 1.391 . S
C91 C92 1.391 . S
C92 H69 0.947 . S
C92 C91 1.391 . S
C92 C93 1.392 . S
C93 H70 0.948 . S
C93 C92 1.392 . S
C93 C94 1.419 . S
C94 C93 1.419 . S
C94 C95 1.391 . S
C94 C98 1.397 . S
C95 C90 1.391 . S
C95 C94 1.391 . S
C95 C96 1.399 . S
C96 C95 1.399 . S
C96 C97 1.396 . S
C96 C99 1.453 . S
C96 C100 1.684 . S
C97 C87 1.723 . S
C97 C96 1.396 . S
C97 C98 1.394 . S
C98 C68 1.723 . S
C98 C94 1.397 . S
C98 C97 1.394 . S
C99 H71 0.982 . S
C99 H75 0.979 . S
C99 H76 0.977 . S
C99 C96 1.453 . S
C100 H72 0.979 . S
C100 H73 0.980 . S
C100 H74 0.983 . S
C100 C96 1.684 . S
H101 C119 0.948 . S
H102 C60 0.948 . S
H103 C78 0.979 . S
H104 C78 0.980 . S
H105 C78 0.983 . S
H106 C77 0.982 . S
H107 C77 0.979 . S
H108 C77 0.977 . S
H109 C79 0.948 . S
H110 C81 0.947 . S
H111 C82 0.948 . S
H112 C88 0.982 . S
H113 C88 0.979 . S
H114 C88 0.977 . S
H115 C89 0.979 . S
H116 C89 0.980 . S
H117 C89 0.983 . S
H118 C62 0.947 . S
C119 C62 1.392 . S
C119 C63 1.419 . S
C119 H101 0.948 . S
C120 C121 1.391 . S
C120 C124 1.391 . S
C120 H162 0.948 . S
C121 C120 1.391 . S
C121 C122 1.391 . S
C122 C121 1.391 . S
C122 H178 0.947 . S
C122 C179 1.392 . S
C123 C124 1.391 . S
C123 C127 1.397 . S
C123 C179 1.419 . S
C124 C120 1.391 . S
C124 C123 1.391 . S
C124 C125 1.399 . S
C125 C124 1.399 . S
C125 C128 1.396 . S
C125 C137 1.453 . S
C125 C138 1.684 . S
H126 C150 0.948 . S
C127 C123 1.397 . S
C127 C128 1.394 . S
C127 C146 1.723 . S
C128 C125 1.396 . S
C128 C127 1.394 . S
C128 C158 1.723 . S
H129 C152 0.947 . S
H130 C153 0.948 . S
H131 C159 0.982 . S
H132 C160 0.979 . S
H133 C160 0.980 . S
H134 C160 0.983 . S
H135 C159 0.979 . S
H136 C159 0.977 . S
C137 C125 1.453 . S
C137 H166 0.982 . S
C137 H167 0.979 . S
C137 H168 0.977 . S
C138 C125 1.684 . S
C138 H163 0.979 . S
C138 H164 0.980 . S
C138 H165 0.983 . S
C139 C140 1.391 . S
C139 C144 1.391 . S
C139 H169 0.948 . S
C140 C139 1.391 . S
C140 C141 1.391 . S
C141 C140 1.391 . S
C141 C142 1.392 . S
C141 H170 0.947 . S
C142 C141 1.392 . S
C142 C143 1.419 . S
C142 H171 0.948 . S
C143 C142 1.419 . S
C143 C144 1.391 . S
C143 C147 1.397 . S
C144 C139 1.391 . S
C144 C143 1.391 . S
C144 C145 1.399 . S
C145 C144 1.399 . S
C145 C146 1.396 . S
C145 C148 1.453 . S
C145 C149 1.684 . S
C146 C127 1.723 . S
C146 C145 1.396 . S
C146 C147 1.394 . S
C147 C143 1.397 . S
C147 C146 1.394 . S
C147 C157 1.723 . S
C148 C145 1.453 . S
C148 H172 0.982 . S
C148 H173 0.979 . S
C148 H174 0.977 . S
C149 C145 1.684 . S
C149 H175 0.979 . S
C149 H176 0.980 . S
C149 H177 0.983 . S
C150 H126 0.948 . S
C150 C151 1.391 . S
C150 C155 1.391 . S
C151 C150 1.391 . S
C151 C152 1.391 . S
C152 H129 0.947 . S
C152 C151 1.391 . S
C152 C153 1.392 . S
C153 H130 0.948 . S
C153 C152 1.392 . S
C153 C154 1.419 . S
C154 C153 1.419 . S
C154 C155 1.391 . S
C154 C158 1.397 . S
C155 C150 1.391 . S
C155 C154 1.391 . S
C155 C156 1.399 . S
C156 C155 1.399 . S
C156 C157 1.396 . S
C156 C159 1.453 . S
C156 C160 1.684 . S
C157 C147 1.723 . S
C157 C156 1.396 . S
C157 C158 1.394 . S
C158 C128 1.723 . S
C158 C154 1.397 . S
C158 C157 1.394 . S
C159 H131 0.982 . S
C159 H135 0.979 . S
C159 H136 0.977 . S
C159 C156 1.453 . S
C160 H132 0.979 . S
C160 H133 0.980 . S
C160 H134 0.983 . S
C160 C156 1.684 . S
H161 C179 0.948 . S
H162 C120 0.948 . S
H163 C138 0.979 . S
H164 C138 0.980 . S
H165 C138 0.983 . S
H166 C137 0.982 . S
H167 C137 0.979 . S
H168 C137 0.977 . S
H169 C139 0.948 . S
H170 C141 0.947 . S
H171 C142 0.948 . S
H172 C148 0.982 . S
H173 C148 0.979 . S
H174 C148 0.977 . S
H175 C149 0.979 . S
H176 C149 0.980 . S
H177 C149 0.983 . S
H178 C122 0.947 . S
C179 C122 1.392 . S
C179 C123 1.419 . S
C179 H161 0.948 . S
C180 C181 1.391 . S
C180 C184 1.391 . S
C180 H222 0.948 . S
C181 C180 1.391 . S
C181 C182 1.391 . S
C182 C181 1.391 . S
C182 H238 0.947 . S
C182 C239 1.392 . S
C183 C184 1.391 . S
C183 C187 1.397 . S
C183 C239 1.419 . S
C184 C180 1.391 . S
C184 C183 1.391 . S
C184 C185 1.399 . S
C185 C184 1.399 . S
C185 C188 1.396 . S
C185 C197 1.453 . S
C185 C198 1.684 . S
H186 C210 0.948 . S
C187 C183 1.397 . S
C187 C188 1.394 . S
C187 C206 1.723 . S
C188 C185 1.396 . S
C188 C187 1.394 . S
C188 C218 1.723 . S
H189 C212 0.947 . S
H190 C213 0.948 . S
H191 C219 0.982 . S
H192 C220 0.979 . S
H193 C220 0.980 . S
H194 C220 0.983 . S
H195 C219 0.979 . S
H196 C219 0.977 . S
C197 C185 1.453 . S
C197 H226 0.982 . S
C197 H227 0.979 . S
C197 H228 0.977 . S
C198 C185 1.684 . S
C198 H223 0.979 . S
C198 H224 0.980 . S
C198 H225 0.983 . S
C199 C200 1.391 . S
C199 C204 1.391 . S
C199 H229 0.948 . S
C200 C199 1.391 . S
C200 C201 1.391 . S
C201 C200 1.391 . S
C201 C202 1.392 . S
C201 H230 0.947 . S
C202 C201 1.392 . S
C202 C203 1.419 . S
C202 H231 0.948 . S
C203 C202 1.419 . S
C203 C204 1.391 . S
C203 C207 1.397 . S
C204 C199 1.391 . S
C204 C203 1.391 . S
C204 C205 1.399 . S
C205 C204 1.399 . S
C205 C206 1.396 . S
C205 C208 1.453 . S
C205 C209 1.684 . S
C206 C187 1.723 . S
C206 C205 1.396 . S
C206 C207 1.394 . S
C207 C203 1.397 . S
C207 C206 1.394 . S
C207 C217 1.723 . S
C208 C205 1.453 . S
C208 H232 0.982 . S
C208 H233 0.979 . S
C208 H234 0.977 . S
C209 C205 1.684 . S
C209 H235 0.979 . S
C209 H236 0.980 . S
C209 H237 0.983 . S
C210 H186 0.948 . S
C210 C211 1.391 . S
C210 C215 1.391 . S
C211 C210 1.391 . S
C211 C212 1.391 . S
C212 H189 0.947 . S
C212 C211 1.391 . S
C212 C213 1.392 . S
C213 H190 0.948 . S
C213 C212 1.392 . S
C213 C214 1.419 . S
C214 C213 1.419 . S
C214 C215 1.391 . S
C214 C218 1.397 . S
C215 C210 1.391 . S
C215 C214 1.391 . S
C215 C216 1.399 . S
C216 C215 1.399 . S
C216 C217 1.396 . S
C216 C219 1.453 . S
C216 C220 1.684 . S
C217 C207 1.723 . S
C217 C216 1.396 . S
C217 C218 1.394 . S
C218 C188 1.723 . S
C218 C214 1.397 . S
C218 C217 1.394 . S
C219 H191 0.982 . S
C219 H195 0.979 . S
C219 H196 0.977 . S
C219 C216 1.453 . S
C220 H192 0.979 . S
C220 H193 0.980 . S
C220 H194 0.983 . S
C220 C216 1.684 . S
H221 C239 0.948 . S
H222 C180 0.948 . S
H223 C198 0.979 . S
H224 C198 0.980 . S
H225 C198 0.983 . S
H226 C197 0.982 . S
H227 C197 0.979 . S
H228 C197 0.977 . S
H229 C199 0.948 . S
H230 C201 0.947 . S
H231 C202 0.948 . S
H232 C208 0.982 . S
H233 C208 0.979 . S
H234 C208 0.977 . S
H235 C209 0.979 . S
H236 C209 0.980 . S
H237 C209 0.983 . S
H238 C182 0.947 . S
C239 C182 1.392 . S
C239 C183 1.419 . S
C239 H221 0.948 . S
C240 C241 1.391 . S
C240 C244 1.391 . S
C240 H282 0.948 . S
C241 C240 1.391 . S
C241 C242 1.391 . S
C242 C241 1.391 . S
C242 H298 0.947 . S
C242 C299 1.392 . S
C243 C244 1.391 . S
C243 C247 1.397 . S
C243 C299 1.419 . S
C244 C240 1.391 . S
C244 C243 1.391 . S
C244 C245 1.399 . S
C245 C244 1.399 . S
C245 C248 1.396 . S
C245 C257 1.453 . S
C245 C258 1.684 . S
H246 C270 0.948 . S
C247 C243 1.397 . S
C247 C248 1.394 . S
C247 C266 1.723 . S
C248 C245 1.396 . S
C248 C247 1.394 . S
C248 C278 1.723 . S
H249 C272 0.947 . S
H250 C273 0.948 . S
H251 C279 0.982 . S
H252 C280 0.979 . S
H253 C280 0.980 . S
H254 C280 0.983 . S
H255 C279 0.979 . S
H256 C279 0.977 . S
C257 C245 1.453 . S
C257 H286 0.982 . S
C257 H287 0.979 . S
C257 H288 0.977 . S
C258 C245 1.684 . S
C258 H283 0.979 . S
C258 H284 0.980 . S
C258 H285 0.983 . S
C259 C260 1.391 . S
C259 C264 1.391 . S
C259 H289 0.948 . S
C260 C259 1.391 . S
C260 C261 1.391 . S
C261 C260 1.391 . S
C261 C262 1.392 . S
C261 H290 0.947 . S
C262 C261 1.392 . S
C262 C263 1.419 . S
C262 H291 0.948 . S
C263 C262 1.419 . S
C263 C264 1.391 . S
C263 C267 1.397 . S
C264 C259 1.391 . S
C264 C263 1.391 . S
C264 C265 1.399 . S
C265 C264 1.399 . S
C265 C266 1.396 . S
C265 C268 1.453 . S
C265 C269 1.684 . S
C266 C247 1.723 . S
C266 C265 1.396 . S
C266 C267 1.394 . S
C267 C263 1.397 . S
C267 C266 1.394 . S
C267 C277 1.723 . S
C268 C265 1.453 . S
C268 H292 0.982 . S
C268 H293 0.979 . S
C268 H294 0.977 . S
C269 C265 1.684 . S
C269 H295 0.979 . S
C269 H296 0.980 . S
C269 H297 0.983 . S
C270 H246 0.948 . S
C270 C271 1.391 . S
C270 C275 1.391 . S
C271 C270 1.391 . S
C271 C272 1.391 . S
C272 H249 0.947 . S
C272 C271 1.391 . S
C272 C273 1.392 . S
C273 H250 0.948 . S
C273 C272 1.392 . S
C273 C274 1.419 . S
C274 C273 1.419 . S
C274 C275 1.391 . S
C274 C278 1.397 . S
C275 C270 1.391 . S
C275 C274 1.391 . S
C275 C276 1.399 . S
C276 C275 1.399 . S
C276 C277 1.396 . S
C276 C279 1.453 . S
C276 C280 1.684 . S
C277 C267 1.723 . S
C277 C276 1.396 . S
C277 C278 1.394 . S
C278 C248 1.723 . S
C278 C274 1.397 . S
C278 C277 1.394 . S
C279 H251 0.982 . S
C279 H255 0.979 . S
C279 H256 0.977 . S
C279 C276 1.453 . S
C280 H252 0.979 . S
C280 H253 0.980 . S
C280 H254 0.983 . S
C280 C276 1.684 . S
H281 C299 0.948 . S
H282 C240 0.948 . S
H283 C258 0.979 . S
H284 C258 0.980 . S
H285 C258 0.983 . S
H286 C257 0.982 . S
H287 C257 0.979 . S
H288 C257 0.977 . S
H289 C259 0.948 . S
H290 C261 0.947 . S
H291 C262 0.948 . S
H292 C268 0.982 . S
H293 C268 0.979 . S
H294 C268 0.977 . S
H295 C269 0.979 . S
H296 C269 0.980 . S
H297 C269 0.983 . S
H298 C242 0.947 . S
C299 C242 1.392 . S
C299 C243 1.419 . S
C299 H281 0.948 . S
C300 C301 1.391 . S
C300 C304 1.391 . S
C300 H342 0.948 . S
C301 C300 1.391 . S
C301 C302 1.391 . S
C302 C301 1.391 . S
C302 H358 0.947 . S
C302 C359 1.392 . S
C303 C304 1.391 . S
C303 C307 1.397 . S
C303 C359 1.419 . S
C304 C300 1.391 . S
C304 C303 1.391 . S
C304 C305 1.399 . S
C305 C304 1.399 . S
C305 C308 1.396 . S
C305 C317 1.453 . S
C305 C318 1.684 . S
H306 C330 0.948 . S
C307 C303 1.397 . S
C307 C308 1.394 . S
C307 C326 1.723 . S
C308 C305 1.396 . S
C308 C307 1.394 . S
C308 C338 1.723 . S
H309 C332 0.947 . S
H310 C333 0.948 . S
H311 C339 0.982 . S
H312 C340 0.979 . S
H313 C340 0.980 . S
H314 C340 0.983 . S
H315 C339 0.979 . S
H316 C339 0.977 . S
C317 C305 1.453 . S
C317 H346 0.982 . S
C317 H347 0.979 . S
C317 H348 0.977 . S
C318 C305 1.684 . S
C318 H343 0.979 . S
C318 H344 0.980 . S
C318 H345 0.983 . S
C319 C320 1.391 . S
C319 C324 1.391 . S
C319 H349 0.948 . S
C320 C319 1.391 . S
C320 C321 1.391 . S
C321 C320 1.391 . S
C321 C322 1.392 . S
C321 H350 0.947 . S
C322 C321 1.392 . S
C322 C323 1.419 . S
C322 H351 0.948 . S
C323 C322 1.419 . S
C323 C324 1.391 . S
C323 C327 1.397 . S
C324 C319 1.391 . S
C324 C323 1.391 . S
C324 C325 1.399 . S
C325 C324 1.399 . S
C325 C326 1.396 . S
C325 C328 1.453 . S
C325 C329 1.684 . S
C326 C307 1.723 . S
C326 C325 1.396 . S
C326 C327 1.394 . S
C327 C323 1.397 . S
C327 C326 1.394 . S
C327 C337 1.723 . S
C328 C325 1.453 . S
C328 H352 0.982 . S
C328 H353 0.979 . S
C328 H354 0.977 . S
C329 C325 1.684 . S
C329 H355 0.979 . S
C329 H356 0.980 . S
C329 H357 0.983 . S
C330 H306 0.948 . S
C330 C331 1.391 . S
C330 C335 1.391 . S
C331 C330 1.391 . S
C331 C332 1.391 . S
C332 H309 0.947 . S
C332 C331 1.391 . S
C332 C333 1.392 . S
C333 H310 0.948 . S
C333 C332 1.392 . S
C333 C334 1.419 . S
C334 C333 1.419 . S
C334 C335 1.391 . S
C334 C338 1.397 . S
C335 C330 1.391 . S
C335 C334 1.391 . S
C335 C336 1.399 . S
C336 C335 1.399 . S
C336 C337 1.396 . S
C336 C339 1.453 . S
C336 C340 1.684 . S
C337 C327 1.723 . S
C337 C336 1.396 . S
C337 C338 1.394 . S
C338 C308 1.723 . S
C338 C334 1.397 . S
C338 C337 1.394 . S
C339 H311 0.982 . S
C339 H315 0.979 . S
C339 H316 0.977 . S
C339 C336 1.453 . S
C340 H312 0.979 . S
C340 H313 0.980 . S
C340 H314 0.983 . S
C340 C336 1.684 . S
H341 C359 0.948 . S
H342 C300 0.948 . S
H343 C318 0.979 . S
H344 C318 0.980 . S
H345 C318 0.983 . S
H346 C317 0.982 . S
H347 C317 0.979 . S
H348 C317 0.977 . S
H349 C319 0.948 . S
H350 C321 0.947 . S
H351 C322 0.948 . S
H352 C328 0.982 . S
H353 C328 0.979 . S
H354 C328 0.977 . S
H355 C329 0.979 . S
H356 C329 0.980 . S
H357 C329 0.983 . S
H358 C302 0.947 . S
C359 C302 1.392 . S
C359 C303 1.419 . S
C359 H341 0.948 . S
C360 C361 1.391 . S
C360 C364 1.391 . S
C360 H402 0.948 . S
C361 C360 1.391 . S
C361 C362 1.391 . S
C362 C361 1.391 . S
C362 H418 0.947 . S
C362 C419 1.392 . S
C363 C364 1.391 . S
C363 C367 1.397 . S
C363 C419 1.419 . S
C364 C360 1.391 . S
C364 C363 1.391 . S
C364 C365 1.399 . S
C365 C364 1.399 . S
C365 C368 1.396 . S
C365 C377 1.453 . S
C365 C378 1.684 . S
H366 C390 0.948 . S
C367 C363 1.397 . S
C367 C368 1.394 . S
C367 C386 1.723 . S
C368 C365 1.396 . S
C368 C367 1.394 . S
C368 C398 1.723 . S
H369 C392 0.947 . S
H370 C393 0.948 . S
H371 C399 0.982 . S
H372 C400 0.979 . S
H373 C400 0.980 . S
H374 C400 0.983 . S
H375 C399 0.979 . S
H376 C399 0.977 . S
C377 C365 1.453 . S
C377 H406 0.982 . S
C377 H407 0.979 . S
C377 H408 0.977 . S
C378 C365 1.684 . S
C378 H403 0.979 . S
C378 H404 0.980 . S
C378 H405 0.983 . S
C379 C380 1.391 . S
C379 C384 1.391 . S
C379 H409 0.948 . S
C380 C379 1.391 . S
C380 C381 1.391 . S
C381 C380 1.391 . S
C381 C382 1.392 . S
C381 H410 0.947 . S
C382 C381 1.392 . S
C382 C383 1.419 . S
C382 H411 0.948 . S
C383 C382 1.419 . S
C383 C384 1.391 . S
C383 C387 1.397 . S
C384 C379 1.391 . S
C384 C383 1.391 . S
C384 C385 1.399 . S
C385 C384 1.399 . S
C385 C386 1.396 . S
C385 C388 1.453 . S
C385 C389 1.684 . S
C386 C367 1.723 . S
C386 C385 1.396 . S
C386 C387 1.394 . S
C387 C383 1.397 . S
C387 C386 1.394 . S
C387 C397 1.723 . S
C388 C385 1.453 . S
C388 H412 0.982 . S
C388 H413 0.979 . S
C388 H414 0.977 . S
C389 C385 1.684 . S
C389 H415 0.979 . S
C389 H416 0.980 . S
C389 H417 0.983 . S
C390 H366 0.948 . S
C390 C391 1.391 . S
C390 C395 1.391 . S
C391 C390 1.391 . S
C391 C392 1.391 . S
C392 H369 0.947 . S
C392 C391 1.391 . S
C392 C393 1.392 . S
C393 H370 0.948 . S
C393 C392 1.392 . S
C393 C394 1.419 . S
C394 C393 1.419 . S
C394 C395 1.391 . S
C394 C398 1.397 . S
C395 C390 1.391 . S
C395 C394 1.391 . S
C395 C396 1.399 . S
C396 C395 1.399 . S
C396 C397 1.396 . S
C396 C399 1.453 . S
C396 C400 1.684 . S
C397 C387 1.723 . S
C397 C396 1.396 . S
C397 C398 1.394 . S
C398 C368 1.723 . S
C398 C394 1.397 . S
C398 C397 1.394 . S
C399 H371 0.982 . S
C399 H375 0.979 . S
C399 H376 0.977 . S
C399 C396 1.453 . S
C400 H372 0.979 . S
C400 H373 0.980 . S
C400 H374 0.983 . S
C400 C396 1.684 . S
H401 C419 0.948 . S
H402 C360 0.948 . S
H403 C378 0.979 . S
H404 C378 0.980 . S
H405 C378 0.983 . S
H406 C377 0.982 . S
H407 C377 0.979 . S
H408 C377 0.977 . S
H409 C379 0.948 . S
H410 C381 0.947 . S
H411 C382 0.948 . S
H412 C388 0.982 . S
H413 C388 0.979 . S
H414 C388 0.977 . S
H415 C389 0.979 . S
H416 C389 0.980 . S
H417 C389 0.983 . S
H418 C362 0.947 . S
C419 C362 1.392 . S
C419 C363 1.419 . S
C419 H401 0.948 . S
C420 C421 1.391 . S
C420 C424 1.391 . S
C420 H462 0.948 . S
C421 C420 1.391 . S
C421 C422 1.391 . S
C422 C421 1.391 . S
C422 H478 0.947 . S
C422 C479 1.392 . S
C423 C424 1.391 . S
C423 C427 1.397 . S
C423 C479 1.419 . S
C424 C420 1.391 . S
C424 C423 1.391 . S
C424 C425 1.399 . S
C425 C424 1.399 . S
C425 C428 1.396 . S
C425 C437 1.453 . S
C425 C438 1.684 . S
H426 C450 0.948 . S
C427 C423 1.397 . S
C427 C428 1.394 . S
C427 C446 1.723 . S
C428 C425 1.396 . S
C428 C427 1.394 . S
C428 C458 1.723 . S
H429 C452 0.947 . S
H430 C453 0.948 . S
H431 C459 0.982 . S
H432 C460 0.979 . S
H433 C460 0.980 . S
H434 C460 0.983 . S
H435 C459 0.979 . S
H436 C459 0.977 . S
C437 C425 1.453 . S
C437 H466 0.982 . S
C437 H467 0.979 . S
C437 H468 0.977 . S
C438 C425 1.684 . S
C438 H463 0.979 . S
C438 H464 0.980 . S
C438 H465 0.983 . S
C439 C440 1.391 . S
C439 C444 1.391 . S
C439 H469 0.948 . S
C440 C439 1.391 . S
C440 C441 1.391 . S
C441 C440 1.391 . S
C441 C442 1.392 . S
C441 H470 0.947 . S
C442 C441 1.392 . S
C442 C443 1.419 . S
C442 H471 0.948 . S
C443 C442 1.419 . S
C443 C444 1.391 . S
C443 C447 1.397 . S
C444 C439 1.391 . S
C444 C443 1.391 . S
C444 C445 1.399 . S
C445 C444 1.399 . S
C445 C446 1.396 . S
C445 C448 1.453 . S
C445 C449 1.684 . S
C446 C427 1.723 . S
C446 C445 1.396 . S
C446 C447 1.394 . S
C447 C443 1.397 . S
C447 C446 1.394 . S
C447 C457 1.723 . S
C448 C445 1.453 . S
C448 H472 0.982 . S
C448 H473 0.979 . S
C448 H474 0.977 . S
C449 C445 1.684 . S
C449 H475 0.979 . S
C449 H476 0.980 . S
C449 H477 0.983 . S
C450 H426 0.948 . S
C450 C451 1.391 . S
C450 C455 1.391 . S
C451 C450 1.391 . S
C451 C452 1.391 . S
C452 H429 0.947 . S
C452 C451 1.391 . S
C452 C453 1.392 . S
C453 H430 0.948 . S
C453 C452 1.392 . S
C453 C454 1.419 . S
C454 C453 1.419 . S
C454 C455 1.391 . S
C454 C458 1.397 . S
C455 C450 1.391 . S
C455 C454 1.391 . S
C455 C456 1.399 . S
C456 C455 1.399 . S
C456 C457 1.396 . S
C456 C459 1.453 . S
C456 C460 1.684 . S
C457 C447 1.723 . S
C457 C456 1.396 . S
C457 C458 1.394 . S
C458 C428 1.723 . S
C458 C454 1.397 . S
C458 C457 1.394 . S
C459 H431 0.982 . S
C459 H435 0.979 . S
C459 H436 0.977 . S
C459 C456 1.453 . S
C460 H432 0.979 . S
C460 H433 0.980 . S
C460 H434 0.983 . S
C460 C456 1.684 . S
H461 C479 0.948 . S
H462 C420 0.948 . S
H463 C438 0.979 . S
H464 C438 0.980 . S
H465 C438 0.983 . S
H466 C437 0.982 . S
H467 C437 0.979 . S
H468 C437 0.977 . S
H469 C439 0.948 . S
H470 C441 0.947 . S
H471 C442 0.948 . S
H472 C448 0.982 . S
H473 C448 0.979 . S
H474 C448 0.977 . S
H475 C449 0.979 . S
H476 C449 0.980 . S
H477 C449 0.983 . S
H478 C422 0.947 . S
C479 C422 1.392 . S
C479 C423 1.419 . S
C479 H461 0.948 . S
Co480 O483 2.042 . S
Co480 O490 2.264 . S
Co480 O509 2.286 . S
Co480 O510 2.069 . S
Co480 O512 2.015 . S
Co481 O483 2.122 . S
Co481 O489 2.073 . S
Co481 O490 2.327 . S
Co481 O491 1.976 . S
Co482 O483 2.100 . S
Co482 O485 2.074 1_455 S
Co482 O492 2.118 . S
Co482 O493 2.135 1_455 S
Co482 O497 2.105 1_455 S
Co482 O511 2.152 . S
O483 Co480 2.042 . S
O483 Co481 2.122 . S
O483 Co482 2.100 . S
O483 H484 0.980 . S
H484 O483 0.980 . S
O485 Co482 2.074 1_655 S
O485 Co486 2.042 . S
O485 Co487 2.122 . S
O485 H488 0.980 . S
Co486 O485 2.042 . S
Co486 O494 2.286 . S
Co486 O495 2.069 . S
Co486 O496 2.015 . S
Co486 O499 2.264 . S
Co487 O485 2.122 . S
Co487 O498 1.976 . S
Co487 O499 2.327 . S
Co487 O500 2.073 . S
H488 O485 0.980 . S
O489 Co481 2.073 . S
O489 C504 1.245 . S
O490 Co480 2.264 . S
O490 Co481 2.327 . S
O490 C504 1.257 . S
O491 Co481 1.976 . S
O491 C503 1.251 . S
O492 Co482 2.118 . S
O492 C503 1.274 . S
O493 Co482 2.135 1_655 S
O493 C506 1.246 . S
O494 Co486 2.286 . S
O494 C505 1.259 . S
O495 Co486 2.069 . S
O495 C505 1.289 . S
O496 Co486 2.015 . S
O496 C506 1.257 . S
O497 Co482 2.105 1_655 S
O497 C507 1.274 . S
O498 Co487 1.976 . S
O498 C507 1.251 . S
O499 Co486 2.264 . S
O499 Co487 2.327 . S
O499 C508 1.257 . S
O500 Co487 2.073 . S
O500 C508 1.245 . S
C501 O509 1.259 . S
C501 O510 1.289 . S
C502 O511 1.246 . S
C502 O512 1.257 . S
C503 O491 1.251 . S
C503 O492 1.274 . S
C504 O489 1.245 . S
C504 O490 1.257 . S
C505 O494 1.259 . S
C505 O495 1.289 . S
C506 O493 1.246 . S
C506 O496 1.257 . S
C507 O497 1.274 . S
C507 O498 1.251 . S
C508 O499 1.257 . S
C508 O500 1.245 . S
O509 Co480 2.286 . S
O509 C501 1.259 . S
O510 Co480 2.069 . S
O510 C501 1.289 . S
O511 Co482 2.152 . S
O511 C502 1.246 . S
O512 Co480 2.015 . S
O512 C502 1.257 . S
Co513 O516 2.042 . S
Co513 O523 2.264 . S
Co513 O542 2.286 . S
Co513 O543 2.069 . S
Co513 O545 2.015 . S
Co514 O516 2.122 . S
Co514 O522 2.073 . S
Co514 O523 2.327 . S
Co514 O524 1.976 . S
Co515 O516 2.087 1_545 S
Co515 O518 2.087 . S
Co515 O525 2.111 1_545 S
Co515 O526 2.143 . S
Co515 O530 2.111 . S
Co515 O544 2.143 1_545 S
O516 Co513 2.042 . S
O516 Co514 2.122 . S
O516 Co515 2.087 1_565 S
O516 H517 0.980 . S
H517 O516 0.980 . S
O518 Co515 2.087 . S
O518 Co519 2.042 . S
O518 Co520 2.122 . S
O518 H521 0.980 . S
Co519 O518 2.042 . S
Co519 O527 2.286 . S
Co519 O528 2.069 . S
Co519 O529 2.015 . S
Co519 O532 2.264 . S
Co520 O518 2.122 . S
Co520 O531 1.976 . S
Co520 O532 2.327 . S
Co520 O533 2.073 . S
H521 O518 0.980 . S
O522 Co514 2.073 . S
O522 C537 1.245 . S
O523 Co513 2.264 . S
O523 Co514 2.327 . S
O523 C537 1.257 . S
O524 Co514 1.976 . S
O524 C536 1.251 . S
O525 Co515 2.111 1_565 S
O525 C536 1.274 . S
O526 Co515 2.143 . S
O526 C539 1.246 . S
O527 Co519 2.286 . S
O527 C538 1.259 . S
O528 Co519 2.069 . S
O528 C538 1.289 . S
O529 Co519 2.015 . S
O529 C539 1.257 . S
O530 Co515 2.111 . S
O530 C540 1.274 . S
O531 Co520 1.976 . S
O531 C540 1.251 . S
O532 Co519 2.264 . S
O532 Co520 2.327 . S
O532 C541 1.257 . S
O533 Co520 2.073 . S
O533 C541 1.245 . S
C534 O542 1.259 . S
C534 O543 1.289 . S
C535 O544 1.246 . S
C535 O545 1.257 . S
C536 O524 1.251 . S
C536 O525 1.274 . S
C537 O522 1.245 . S
C537 O523 1.257 . S
C538 O527 1.259 . S
C538 O528 1.289 . S
C539 O526 1.246 . S
C539 O529 1.257 . S
C540 O530 1.274 . S
C540 O531 1.251 . S
C541 O532 1.257 . S
C541 O533 1.245 . S
O542 Co513 2.286 . S
O542 C534 1.259 . S
O543 Co513 2.069 . S
O543 C534 1.289 . S
O544 Co515 2.143 1_565 S
O544 C535 1.246 . S
O545 Co513 2.015 . S
O545 C535 1.257 . S
Co546 O549 2.042 . S
Co546 O556 2.264 . S
Co546 O575 2.286 . S
Co546 O576 2.069 . S
Co546 O578 2.015 . S
Co547 O549 2.122 . S
Co547 O555 2.073 . S
Co547 O556 2.327 . S
Co547 O557 1.976 . S
Co548 O549 2.101 . S
Co548 O551 2.073 1_554 S
Co548 O558 2.117 . S
Co548 O559 2.134 1_554 S
Co548 O563 2.105 1_554 S
Co548 O577 2.154 . S
O549 Co546 2.042 . S
O549 Co547 2.122 . S
O549 Co548 2.101 . S
O549 H550 0.980 . S
H550 O549 0.980 . S
O551 Co548 2.073 1_556 S
O551 Co552 2.042 . S
O551 Co553 2.122 . S
O551 H554 0.980 . S
Co552 O551 2.042 . S
Co552 O560 2.286 . S
Co552 O561 2.069 . S
Co552 O562 2.015 . S
Co552 O565 2.264 . S
Co553 O551 2.122 . S
Co553 O564 1.976 . S
Co553 O565 2.327 . S
Co553 O566 2.073 . S
H554 O551 0.980 . S
O555 Co547 2.073 . S
O555 C570 1.245 . S
O556 Co546 2.264 . S
O556 Co547 2.327 . S
O556 C570 1.257 . S
O557 Co547 1.976 . S
O557 C569 1.251 . S
O558 Co548 2.117 . S
O558 C569 1.274 . S
O559 Co548 2.134 1_556 S
O559 C572 1.246 . S
O560 Co552 2.286 . S
O560 C571 1.259 . S
O561 Co552 2.069 . S
O561 C571 1.289 . S
O562 Co552 2.015 . S
O562 C572 1.257 . S
O563 Co548 2.105 1_556 S
O563 C573 1.274 . S
O564 Co553 1.976 . S
O564 C573 1.251 . S
O565 Co552 2.264 . S
O565 Co553 2.327 . S
O565 C574 1.257 . S
O566 Co553 2.073 . S
O566 C574 1.245 . S
C567 O575 1.259 . S
C567 O576 1.289 . S
C568 O577 1.246 . S
C568 O578 1.257 . S
C569 O557 1.251 . S
C569 O558 1.274 . S
C570 O555 1.245 . S
C570 O556 1.257 . S
C571 O560 1.259 . S
C571 O561 1.289 . S
C572 O559 1.246 . S
C572 O562 1.257 . S
C573 O563 1.274 . S
C573 O564 1.251 . S
C574 O565 1.257 . S
C574 O566 1.245 . S
O575 Co546 2.286 . S
O575 C567 1.259 . S
O576 Co546 2.069 . S
O576 C567 1.289 . S
O577 Co548 2.154 . S
O577 C568 1.246 . S
O578 Co546 2.015 . S
O578 C568 1.257 . S
C504 C31 1.308 . S
C540 C61 2.068 . S
C505 C121 1.775 . S
C535 C181 2.075 . S
C502 C260 1.739 . S
C331 C538 2.384 . S
C380 C507 1.275 . S
C537 C440 2.223 . S
C541 C1 1.822 . S
C506 C91 1.947 . S
C534 C151 2.384 . S
C503 C200 1.275 . S
C536 C271 1.905 . S
C301 C501 1.775 . S
C361 C539 2.075 . S
C508 C451 1.030 . S
C570 C20 1.600 . S
C241 C573 2.440 . S
C572 C320 2.613 . S
C391 C571 2.623 . S
C574 C421 1.542 . S
C140 C568 2.613 . S
C567 C211 2.623 . S
C80 C569 2.591 . S
