# Generated by pormake.
# Topology pyr, (3,6)-cn, num edge types: 1
# Building blocks:
#     Node 0, Type 0, BuildingBlock: ESEHIV_clean_linker_0, # of connection points: 3
#     Node 1, Type 0, BuildingBlock: ESEHIV_clean_linker_0, # of connection points: 3
#     Node 2, Type 0, BuildingBlock: ESEHIV_clean_linker_0, # of connection points: 3
#     Node 3, Type 0, BuildingBlock: ESEHIV_clean_linker_0, # of connection points: 3
#     Node 4, Type 0, BuildingBlock: ESEHIV_clean_linker_0, # of connection points: 3
#     Node 5, Type 0, BuildingBlock: ESEHIV_clean_linker_0, # of connection points: 3
#     Node 6, Type 0, BuildingBlock: ESEHIV_clean_linker_0, # of connection points: 3
#     Node 7, Type 0, BuildingBlock: ESEHIV_clean_linker_0, # of connection points: 3
#     Node 8, Type 1, BuildingBlock: MIFKUJ_clean_sbu_0, # of connection points: 6
#     Node 9, Type 1, BuildingBlock: MIFKUJ_clean_sbu_0, # of connection points: 6
#     Node 10, Type 1, BuildingBlock: MIFKUJ_clean_sbu_0, # of connection points: 6
#     Node 11, Type 1, BuildingBlock: MIFKUJ_clean_sbu_0, # of connection points: 6
#     Edge 12, Type (0, 1), BuildingBlock: KIFKEQ_clean_linker_1, # of connection points: 2
#     Edge 13, Type (0, 1), BuildingBlock: KIFKEQ_clean_linker_1, # of connection points: 2
#     Edge 14, Type (0, 1), BuildingBlock: KIFKEQ_clean_linker_1, # of connection points: 2
#     Edge 15, Type (0, 1), BuildingBlock: KIFKEQ_clean_linker_1, # of connection points: 2
#     Edge 16, Type (0, 1), BuildingBlock: KIFKEQ_clean_linker_1, # of connection points: 2
#     Edge 17, Type (0, 1), BuildingBlock: KIFKEQ_clean_linker_1, # of connection points: 2
#     Edge 18, Type (0, 1), BuildingBlock: KIFKEQ_clean_linker_1, # of connection points: 2
#     Edge 19, Type (0, 1), BuildingBlock: KIFKEQ_clean_linker_1, # of connection points: 2
#     Edge 20, Type (0, 1), BuildingBlock: KIFKEQ_clean_linker_1, # of connection points: 2
#     Edge 21, Type (0, 1), BuildingBlock: KIFKEQ_clean_linker_1, # of connection points: 2
#     Edge 22, Type (0, 1), BuildingBlock: KIFKEQ_clean_linker_1, # of connection points: 2
#     Edge 23, Type (0, 1), BuildingBlock: KIFKEQ_clean_linker_1, # of connection points: 2
#     Edge 24, Type (0, 1), BuildingBlock: KIFKEQ_clean_linker_1, # of connection points: 2
#     Edge 25, Type (0, 1), BuildingBlock: KIFKEQ_clean_linker_1, # of connection points: 2
#     Edge 26, Type (0, 1), BuildingBlock: KIFKEQ_clean_linker_1, # of connection points: 2
#     Edge 27, Type (0, 1), BuildingBlock: KIFKEQ_clean_linker_1, # of connection points: 2
#     Edge 28, Type (0, 1), BuildingBlock: KIFKEQ_clean_linker_1, # of connection points: 2
#     Edge 29, Type (0, 1), BuildingBlock: KIFKEQ_clean_linker_1, # of connection points: 2
#     Edge 30, Type (0, 1), BuildingBlock: KIFKEQ_clean_linker_1, # of connection points: 2
#     Edge 31, Type (0, 1), BuildingBlock: KIFKEQ_clean_linker_1, # of connection points: 2
#     Edge 32, Type (0, 1), BuildingBlock: KIFKEQ_clean_linker_1, # of connection points: 2
#     Edge 33, Type (0, 1), BuildingBlock: KIFKEQ_clean_linker_1, # of connection points: 2
#     Edge 34, Type (0, 1), BuildingBlock: KIFKEQ_clean_linker_1, # of connection points: 2
#     Edge 35, Type (0, 1), BuildingBlock: KIFKEQ_clean_linker_1, # of connection points: 2
# Relax obj value: 0.029
# Max RMSD: 0.083
# Mean RMSD: 0.048
data_MOF--net-pyr--node1-MIFKUJ_clean_sbu_0--node2-ESEHIV_clean_linker_0--edge1-KIFKEQ_clean_linker_1
_symmetry_space_group_name_H-M    P1
_symmetry_Int_Tables_number       1
_symmetry_cell_setting            triclinic
loop_
_symmetry_equiv_pos_as_xyz
'x, y, z'
_cell_length_a     38.268733
_cell_length_b     34.353126
_cell_length_c     36.65834
_cell_angle_alpha  85.964145
_cell_angle_beta   88.055485
_cell_angle_gamma 96.358839
loop_
_atom_site_label
_atom_site_type_symbol
_atom_site_fract_x
_atom_site_fract_y
_atom_site_fract_z
_atom_type_partial_charge
H0 H 0.14687 0.20012 0.22513 0.0
H1 H 0.23111 0.13134 0.24981 0.0
H2 H 0.2361 0.20575 0.14963 0.0
C3 C 0.17229 0.19121 0.21758 0.0
C4 C 0.19017 0.20703 0.18496 0.0
C5 C 0.18709 0.16409 0.24085 0.0
C6 C 0.22003 0.15264 0.2317 0.0
C7 C 0.23794 0.16738 0.19866 0.0
C8 C 0.22298 0.19495 0.17563 0.0
H9 H 0.30541 0.88767 0.72645 0.0
H10 H 0.37965 0.80312 0.7235 0.0
H11 H 0.30746 0.81349 0.63671 0.0
C12 C 0.31635 0.86453 0.71277 0.0
C13 C 0.30231 0.85202 0.68001 0.0
C14 C 0.34421 0.84692 0.72839 0.0
C15 C 0.35855 0.81698 0.71084 0.0
C16 C 0.34602 0.80502 0.67731 0.0
C17 C 0.31775 0.82274 0.66223 0.0
H18 H 0.68495 0.30422 0.86555 0.0
H19 H 0.69424 0.40207 0.78456 0.0
H20 H 0.60515 0.31393 0.78665 0.0
C21 C 0.67466 0.31992 0.84239 0.0
C22 C 0.64273 0.30473 0.82821 0.0
C23 C 0.69363 0.35489 0.82697 0.0
C24 C 0.6802 0.37484 0.79664 0.0
C25 C 0.6481 0.36041 0.78237 0.0
C26 C 0.62943 0.3255 0.79835 0.0
H27 H 0.81409 0.6824 0.34272 0.0
H28 H 0.89992 0.68082 0.26464 0.0
H29 H 0.8168 0.58502 0.27503 0.0
C30 C 0.82694 0.66762 0.32178 0.0
C31 C 0.81142 0.63121 0.31138 0.0
C32 C 0.85899 0.68538 0.30543 0.0
C33 C 0.87535 0.66695 0.27762 0.0
C34 C 0.86003 0.63098 0.26617 0.0
C35 C 0.82836 0.61299 0.28354 0.0
H36 H 0.78088 0.87676 0.77353 0.0
H37 H 0.86469 0.8036 0.77792 0.0
H38 H 0.78415 0.79063 0.86413 0.0
C39 C 0.79315 0.85306 0.78715 0.0
C40 C 0.77874 0.83494 0.82065 0.0
C41 C 0.82383 0.84139 0.77149 0.0
C42 C 0.8402 0.81145 0.78947 0.0
C43 C 0.82632 0.79317 0.82309 0.0
C44 C 0.79543 0.80497 0.83846 0.0
H45 H 0.62102 0.18102 0.29798 0.0
H46 H 0.70812 0.11333 0.28643 0.0
H47 H 0.70172 0.18596 0.37693 0.0
C48 C 0.64549 0.17201 0.30787 0.0
C49 C 0.65944 0.18713 0.3396 0.0
C50 C 0.66295 0.14545 0.28862 0.0
C51 C 0.6946 0.13371 0.30142 0.0
C52 C 0.70866 0.14787 0.33355 0.0
C53 C 0.69094 0.1747 0.35231 0.0
H54 H 0.33449 0.68734 0.14366 0.0
H55 H 0.32898 0.59619 0.23114 0.0
H56 H 0.41178 0.69265 0.22548 0.0
C57 C 0.34464 0.67473 0.16852 0.0
C58 C 0.37496 0.69368 0.18264 0.0
C59 C 0.3273 0.63999 0.18624 0.0
C60 C 0.34177 0.6234 0.21775 0.0
C61 C 0.37265 0.64174 0.232 0.0
C62 C 0.38854 0.67747 0.21455 0.0
H63 H 0.11812 0.3357 0.72994 0.0
H64 H 0.20336 0.32839 0.65267 0.0
H65 H 0.20709 0.42492 0.72155 0.0
C66 C 0.14322 0.34816 0.7172 0.0
C67 C 0.16083 0.38267 0.72958 0.0
C68 C 0.15831 0.32866 0.68928 0.0
C69 C 0.19154 0.34375 0.67386 0.0
C70 C 0.20958 0.37832 0.68537 0.0
C71 C 0.19388 0.39767 0.71317 0.0
Zn72 Zn 0.04675 0.01508 0.54319 0.0
Zn73 Zn 0.96544 0.98643 0.46975 0.0
C74 C 0.0482 0.09585 0.56481 0.0
O75 O 0.02902 0.10142 0.53624 0.0
C76 C 0.95216 0.93731 0.41095 0.0
O77 O 0.94859 0.97158 0.39406 0.0
O78 O 0.08526 0.98119 0.55514 0.0
O79 O 8e-05 0.9876 0.5625 0.0
O80 O 0.95821 0.9727 0.52351 0.0
C81 C 0.08425 0.95977 0.58496 0.0
O82 O 0.05626 0.95738 0.60714 0.0
O83 O 0.05777 0.06207 0.57246 0.0
C84 C 0.92635 0.04914 0.43857 0.0
O85 O 0.95735 0.06978 0.43361 0.0
O86 O 0.92409 0.01452 0.45388 0.0
O87 O 0.01018 0.01886 0.45168 0.0
O88 O 0.05284 0.03349 0.48996 0.0
O89 O 0.96084 0.93596 0.44418 0.0
C90 C 0.96928 0.97275 0.55576 0.0
C91 C 0.04051 0.03523 0.45821 0.0
Zn92 Zn 0.5279 0.97539 0.98535 0.0
Zn93 Zn 0.4819 0.02591 0.02834 0.0
C94 C 0.48061 0.92717 0.94599 0.0
O95 O 0.49811 0.90096 0.9629 0.0
C96 C 0.53913 0.06702 0.06403 0.0
O97 O 0.53075 0.09673 0.04283 0.0
O98 O 0.56675 0.94729 0.96607 0.0
O99 O 0.54631 0.03247 0.97714 0.0
O100 O 0.49432 0.05388 0.97874 0.0
C101 C 0.57628 0.95485 0.93257 0.0
O102 O 0.56067 0.98067 0.91277 0.0
O103 O 0.4876 0.96308 0.95226 0.0
C104 C 0.43822 0.04639 0.08543 0.0
O105 O 0.45415 0.01925 0.10307 0.0
O106 O 0.44555 0.05466 0.05153 0.0
O107 O 0.46174 0.96907 0.03324 0.0
O108 O 0.51455 0.95008 0.03563 0.0
O109 O 0.52303 0.03302 0.06123 0.0
C110 C 0.52621 0.05784 0.96708 0.0
C111 C 0.48193 0.94422 0.04441 0.0
Zn112 Zn 0.52825 0.47031 0.48205 0.0
Zn113 Zn 0.49816 0.53586 0.52958 0.0
C114 C 0.5757 0.51534 0.42896 0.0
O115 O 0.5509 0.50289 0.40725 0.0
C116 C 0.45073 0.48434 0.57669 0.0
O117 O 0.47349 0.49733 0.6003 0.0
O118 O 0.53542 0.41983 0.45935 0.0
O119 O 0.53179 0.45821 0.53648 0.0
O120 O 0.5405 0.51841 0.55448 0.0
C121 C 0.56375 0.40566 0.4674 0.0
O122 O 0.58476 0.42382 0.48997 0.0
O123 O 0.57123 0.50687 0.46328 0.0
C124 C 0.45195 0.58946 0.55155 0.0
O125 O 0.4305 0.56524 0.53429 0.0
O126 O 0.48427 0.58404 0.55284 0.0
O127 O 0.50139 0.55037 0.47525 0.0
O128 O 0.48446 0.49022 0.46139 0.0
O129 O 0.4567 0.4947 0.54284 0.0
C130 C 0.54419 0.48208 0.55905 0.0
C131 C 0.48518 0.52708 0.4545 0.0
Zn132 Zn 0.96805 0.50758 0.97035 0.0
Zn133 Zn 0.0536 0.49001 0.03314 0.0
C134 C 0.92612 0.45577 0.92816 0.0
O135 O 0.95205 0.46737 0.90408 0.0
C136 C 0.10317 0.51607 0.08388 0.0
O137 O 0.08182 0.49051 0.10471 0.0
O138 O 0.9538 0.55523 0.94336 0.0
O139 O 0.96607 0.51794 0.02369 0.0
O140 O 0.01135 0.50871 0.05826 0.0
C141 C 0.95706 0.58972 0.95407 0.0
O142 O 0.97305 0.59665 0.98449 0.0
O143 O 0.92826 0.46687 0.96046 0.0
C144 C 0.08745 0.42321 0.04205 0.0
O145 O 0.10821 0.44573 0.01803 0.0
O146 O 0.05913 0.43542 0.05332 0.0
O147 O 0.05878 0.48805 0.97819 0.0
O148 O 0.01246 0.49564 0.94477 0.0
O149 O 0.09618 0.52272 0.05047 0.0
C150 C 0.98056 0.51852 0.05434 0.0
C151 C 0.04436 0.48934 0.94747 0.0
H152 H 0.12618 0.1165 0.242 0.0
H153 H 0.20258 0.17032 0.31224 0.0
H154 H 0.09154 0.0855 0.29528 0.0
H155 H 0.16697 0.14139 0.36617 0.0
H156 H 0.11205 0.05145 0.45348 0.0
H157 H 0.14831 0.08259 0.4013 0.0
H158 H 0.05426 0.09949 0.34264 0.0
H159 H 0.01841 0.06623 0.39379 0.0
C160 C 0.13522 0.12189 0.26909 0.0
C161 C 0.16673 0.14563 0.2734 0.0
C162 C 0.11531 0.10451 0.29963 0.0
C163 C 0.12618 0.11126 0.33516 0.0
C164 C 0.15799 0.13511 0.33929 0.0
C165 C 0.17828 0.15188 0.30858 0.0
C166 C 0.09922 0.06194 0.4294 0.0
C167 C 0.06242 0.05622 0.4276 0.0
C168 C 0.11997 0.08001 0.39955 0.0
C169 C 0.10429 0.09336 0.36756 0.0
C170 C 0.06737 0.08868 0.36638 0.0
C171 C 0.04672 0.0699 0.39587 0.0
H172 H 0.3697 0.92093 0.74385 0.0
H173 H 0.35148 0.80143 0.79079 0.0
H174 H 0.39936 0.94065 0.7987 0.0
H175 H 0.3794 0.82108 0.84645 0.0
H176 H 0.47208 0.85683 0.91588 0.0
H177 H 0.43599 0.83844 0.86549 0.0
H178 H 0.39628 0.95169 0.86139 0.0
H179 H 0.43403 0.97077 0.91106 0.0
C180 C 0.37146 0.8991 0.76633 0.0
C181 C 0.3587 0.85966 0.7631 0.0
C182 C 0.38827 0.91035 0.79787 0.0
C183 C 0.39219 0.88243 0.82705 0.0
C184 C 0.37778 0.84326 0.82426 0.0
C185 C 0.36156 0.83196 0.79252 0.0
C186 C 0.45546 0.87775 0.90447 0.0
C187 C 0.45602 0.91531 0.91742 0.0
C188 C 0.43446 0.86708 0.87562 0.0
C189 C 0.41299 0.89348 0.85921 0.0
C190 C 0.41285 0.93077 0.87288 0.0
C191 C 0.43429 0.94165 0.90155 0.0
H192 H 0.68165 0.38151 0.71607 0.0
H193 H 0.58346 0.38594 0.77626 0.0
H194 H 0.65781 0.41318 0.66174 0.0
H195 H 0.5599 0.41844 0.72217 0.0
H196 H 0.55077 0.51412 0.62513 0.0
H197 H 0.57699 0.48663 0.67996 0.0
H198 H 0.60319 0.38853 0.62129 0.0
H199 H 0.57625 0.41522 0.56689 0.0
C200 C 0.65514 0.3897 0.71771 0.0
C201 C 0.63431 0.3813 0.75019 0.0
C202 C 0.64151 0.40762 0.68671 0.0
C203 C 0.6071 0.41823 0.68793 0.0
C204 C 0.58658 0.41074 0.72068 0.0
C205 C 0.59994 0.39203 0.75145 0.0
C206 C 0.56229 0.48681 0.62391 0.0
C207 C 0.56147 0.46681 0.59172 0.0
C208 C 0.57712 0.47106 0.65527 0.0
C209 C 0.59212 0.43558 0.65468 0.0
C210 C 0.59198 0.41606 0.62231 0.0
C211 C 0.57646 0.43129 0.59127 0.0
H212 H 0.87496 0.55502 0.26326 0.0
H213 H 0.88279 0.66639 0.1995 0.0
H214 H 0.90336 0.52606 0.2123 0.0
H215 H 0.91094 0.63753 0.14869 0.0
H216 H 0.9233 0.5596 0.05306 0.0
H217 H 0.89342 0.58529 0.1045 0.0
H218 H 0.96452 0.53528 0.17865 0.0
H219 H 0.9948 0.50972 0.12714 0.0
C220 C 0.88261 0.5732 0.23831 0.0
C221 C 0.87677 0.61296 0.23534 0.0
C222 C 0.89903 0.55673 0.20929 0.0
C223 C 0.90931 0.57954 0.17653 0.0
C224 C 0.90307 0.61916 0.17349 0.0
C225 C 0.8872 0.63574 0.20265 0.0
C226 C 0.93251 0.55384 0.08033 0.0
C227 C 0.96152 0.53262 0.08593 0.0
C228 C 0.91547 0.56875 0.10975 0.0
C229 C 0.92669 0.56236 0.14556 0.0
C230 C 0.95517 0.54044 0.15137 0.0
C231 C 0.9726 0.52599 0.12184 0.0
H232 H 0.29739 0.20794 0.1649 0.0
H233 H 0.25217 0.09117 0.20478 0.0
H234 H 0.34872 0.1807 0.14001 0.0
H235 H 0.30349 0.06423 0.18042 0.0
H236 H 0.41297 0.03164 0.15617 0.0
H237 H 0.36765 0.06342 0.18717 0.0
H238 H 0.35832 0.13829 0.08908 0.0
H239 H 0.40386 0.10692 0.05815 0.0
C240 C 0.2985 0.17654 0.16853 0.0
C241 C 0.27069 0.15171 0.18673 0.0
C242 C 0.32785 0.16099 0.15433 0.0
C243 C 0.33001 0.12036 0.15823 0.0
C244 C 0.30277 0.09572 0.17746 0.0
C245 C 0.27339 0.11121 0.19149 0.0
C246 C 0.40141 0.05505 0.14129 0.0
C247 C 0.41179 0.06659 0.10464 0.0
C248 C 0.37542 0.07314 0.15902 0.0
C249 C 0.35946 0.10325 0.14051 0.0
C250 C 0.37046 0.11546 0.10416 0.0
C251 C 0.39633 0.09726 0.08637 0.0
H252 H 0.24449 0.87099 0.71809 0.0
H253 H 0.28834 0.86992 0.60799 0.0
H254 H 0.19249 0.89637 0.69402 0.0
H255 H 0.23516 0.89266 0.58378 0.0
H256 H 0.15116 0.97354 0.55468 0.0
H257 H 0.20385 0.94793 0.57713 0.0
H258 H 0.14099 0.87758 0.66315 0.0
H259 H 0.08855 0.90454 0.64153 0.0
C260 C 0.24314 0.87625 0.68872 0.0
C261 C 0.27079 0.86841 0.66505 0.0
C262 C 0.21294 0.89019 0.67484 0.0
C263 C 0.20932 0.89629 0.63686 0.0
C264 C 0.23705 0.88867 0.61317 0.0
C265 C 0.26744 0.8751 0.62708 0.0
C266 C 0.14855 0.95237 0.57823 0.0
C267 C 0.11567 0.94122 0.59643 0.0
C268 C 0.17881 0.93753 0.59106 0.0
C269 C 0.17687 0.91083 0.62218 0.0
C270 C 0.14371 0.89876 0.63963 0.0
C271 C 0.11353 0.91395 0.62704 0.0
H272 H 0.754 0.38998 0.79019 0.0
H273 H 0.71033 0.35386 0.89918 0.0
H274 H 0.80976 0.41278 0.81577 0.0
H275 H 0.76674 0.37354 0.92441 0.0
H276 H 0.86093 0.45156 0.96176 0.0
H277 H 0.8049 0.42779 0.93745 0.0
H278 H 0.85957 0.3911 0.84279 0.0
H279 H 0.91555 0.41682 0.86643 0.0
C280 C 0.75623 0.38689 0.81959 0.0
C281 C 0.72757 0.3699 0.84252 0.0
C282 C 0.78848 0.39933 0.83427 0.0
C283 C 0.79305 0.39471 0.87223 0.0
C284 C 0.76428 0.37799 0.89512 0.0
C285 C 0.73194 0.36611 0.88052 0.0
C286 C 0.861 0.43795 0.93598 0.0
C287 C 0.89265 0.43614 0.91596 0.0
C288 C 0.8288 0.4242 0.922 0.0
C289 C 0.8275 0.40771 0.88791 0.0
C290 C 0.85938 0.40447 0.86866 0.0
C291 C 0.89155 0.4188 0.8824 0.0
H292 H 0.78949 0.63087 0.38353 0.0
H293 H 0.75571 0.59022 0.28009 0.0
H294 H 0.73248 0.60587 0.41186 0.0
H295 H 0.69957 0.56236 0.30916 0.0
H296 H 0.58944 0.55127 0.36044 0.0
H297 H 0.64615 0.57946 0.33268 0.0
H298 H 0.69618 0.54937 0.43325 0.0
H299 H 0.63915 0.52297 0.46138 0.0
C300 C 0.76997 0.61647 0.36677 0.0
C301 C 0.77729 0.613 0.32931 0.0
C302 C 0.7373 0.60153 0.38324 0.0
C303 C 0.7111 0.58209 0.36292 0.0
C304 C 0.71872 0.57778 0.32564 0.0
C305 C 0.75127 0.59319 0.30904 0.0
C306 C 0.61255 0.55106 0.37669 0.0
C307 C 0.60979 0.53498 0.41312 0.0
C308 C 0.6452 0.56686 0.36066 0.0
C309 C 0.67605 0.56647 0.38048 0.0
C310 C 0.67309 0.55081 0.41717 0.0
C311 C 0.64034 0.53553 0.43336 0.0
H312 H 0.12177 0.20415 0.16511 0.0
H313 H 0.22263 0.27464 0.14975 0.0
H314 H 0.09499 0.25317 0.1273 0.0
H315 H 0.19591 0.32358 0.11198 0.0
H316 H 0.14493 0.38865 0.02159 0.0
H317 H 0.1686 0.33324 0.05311 0.0
H318 H 0.08113 0.32087 0.13234 0.0
H319 H 0.05705 0.37599 0.10043 0.0
C320 C 0.13817 0.23017 0.15371 0.0
C321 C 0.17425 0.23572 0.16051 0.0
C322 C 0.12285 0.25816 0.13206 0.0
C323 C 0.14334 0.29218 0.11671 0.0
C324 C 0.17955 0.29734 0.12296 0.0
C325 C 0.19485 0.26938 0.14462 0.0
C326 C 0.13051 0.37384 0.04549 0.0
C327 C 0.09928 0.38687 0.05874 0.0
C328 C 0.14418 0.34224 0.06364 0.0
C329 C 0.12694 0.32303 0.0954 0.0
C330 C 0.09488 0.33495 0.10776 0.0
C331 C 0.08115 0.36659 0.08956 0.0
H332 H 0.6713 0.23905 0.85386 0.0
H333 H 0.57136 0.28447 0.83954 0.0
H334 H 0.64163 0.17993 0.88563 0.0
H335 H 0.54115 0.22343 0.86865 0.0
H336 H 0.50307 0.13039 0.96219 0.0
H337 H 0.5298 0.18908 0.926 0.0
H338 H 0.60715 0.12146 0.88009 0.0
H339 H 0.58169 0.06376 0.91801 0.0
C340 C 0.6429 0.23638 0.8573 0.0
C341 C 0.62384 0.26697 0.84461 0.0
C342 C 0.62572 0.20195 0.87499 0.0
C343 C 0.58883 0.1966 0.87983 0.0
C344 C 0.5696 0.22665 0.86603 0.0
C345 C 0.58691 0.2615 0.8488 0.0
C346 C 0.52571 0.12819 0.9442 0.0
C347 C 0.54054 0.09268 0.94315 0.0
C348 C 0.54094 0.16177 0.92322 0.0
C349 C 0.57093 0.16032 0.9002 0.0
C350 C 0.58473 0.12417 0.89817 0.0
C351 C 0.56999 0.09092 0.91973 0.0
H352 H 0.82769 0.75193 0.31341 0.0
H353 H 0.92664 0.704 0.32523 0.0
H354 H 0.85322 0.81321 0.33672 0.0
H355 H 0.9523 0.76549 0.34865 0.0
H356 H 0.96222 0.86199 0.4346 0.0
H357 H 0.94214 0.80149 0.40636 0.0
H358 H 0.90038 0.86948 0.31792 0.0
H359 H 0.92048 0.92987 0.34586 0.0
C360 C 0.85495 0.75463 0.32089 0.0
C361 C 0.87519 0.72326 0.31761 0.0
C362 C 0.86963 0.78975 0.33399 0.0
C363 C 0.90474 0.79408 0.3445 0.0
C364 C 0.92512 0.76283 0.34093 0.0
C365 C 0.91055 0.72784 0.32732 0.0
C366 C 0.94907 0.86404 0.40895 0.0
C367 C 0.94279 0.90074 0.39259 0.0
C368 C 0.93773 0.82942 0.39271 0.0
C369 C 0.91953 0.83081 0.36006 0.0
C370 C 0.91403 0.86753 0.34328 0.0
C371 C 0.92571 0.90211 0.35924 0.0
H372 H 0.31364 0.74826 0.63643 0.0
H373 H 0.41545 0.79078 0.67491 0.0
H374 H 0.34011 0.6988 0.60478 0.0
H375 H 0.44123 0.73842 0.64664 0.0
H376 H 0.4855 0.66153 0.56433 0.0
H377 H 0.46032 0.71455 0.59326 0.0
H378 H 0.36181 0.63975 0.61305 0.0
H379 H 0.38639 0.5884 0.58187 0.0
C380 C 0.34168 0.74716 0.63828 0.0
C381 C 0.36224 0.77387 0.65838 0.0
C382 C 0.35686 0.71804 0.62063 0.0
C383 C 0.39293 0.71399 0.62329 0.0
C384 C 0.4135 0.74067 0.64343 0.0
C385 C 0.39847 0.77041 0.66036 0.0
C386 C 0.45846 0.65671 0.57487 0.0
C387 C 0.43778 0.62111 0.57061 0.0
C388 C 0.44399 0.68696 0.59171 0.0
C389 C 0.40876 0.68185 0.60546 0.0
C390 C 0.3886 0.64556 0.60194 0.0
C391 C 0.40278 0.61584 0.58431 0.0
H392 H 0.84531 0.80861 0.71039 0.0
H393 H 0.84 0.92012 0.75658 0.0
H394 H 0.87818 0.8421 0.65658 0.0
H395 H 0.87294 0.95365 0.70278 0.0
H396 H 0.97611 0.98185 0.62867 0.0
H397 H 0.93715 0.95149 0.67934 0.0
H398 H 0.86997 0.89285 0.60299 0.0
H399 H 0.9087 0.9233 0.55211 0.0
C400 C 0.85089 0.84031 0.70874 0.0
C401 C 0.84029 0.86189 0.73746 0.0
C402 C 0.86947 0.85943 0.678 0.0
C403 C 0.87813 0.90035 0.67578 0.0
C404 C 0.86673 0.92202 0.70407 0.0
C405 C 0.84772 0.90295 0.7346 0.0
C406 C 0.95299 0.96258 0.62265 0.0
C407 C 0.94551 0.95489 0.58642 0.0
C408 C 0.9306 0.94549 0.65161 0.0
C409 C 0.90061 0.92002 0.64491 0.0
C410 C 0.89304 0.91233 0.60877 0.0
C411 C 0.91515 0.92984 0.57974 0.0
H412 H 0.59647 0.11087 0.28074 0.0
H413 H 0.6955 0.14559 0.22115 0.0
H414 H 0.57049 0.08809 0.22489 0.0
H415 H 0.66935 0.12312 0.165 0.0
H416 H 0.58612 0.13153 0.07148 0.0
H417 H 0.6195 0.14708 0.12532 0.0
H418 H 0.57837 0.03495 0.17949 0.0
H419 H 0.54529 0.01908 0.1256 0.0
C420 C 0.61265 0.11345 0.25566 0.0
C421 C 0.6479 0.13002 0.25512 0.0
C422 C 0.59791 0.10019 0.22383 0.0
C423 C 0.61797 0.1038 0.1907 0.0
C424 C 0.65334 0.12009 0.1902 0.0
C425 C 0.66829 0.13275 0.22225 0.0
C426 C 0.58467 0.10993 0.09464 0.0
C427 C 0.56295 0.07418 0.09438 0.0
C428 C 0.60387 0.11878 0.12537 0.0
C429 C 0.60128 0.09231 0.15659 0.0
C430 C 0.58059 0.05598 0.15584 0.0
C431 C 0.56184 0.04684 0.12492 0.0
H432 H 0.33915 0.60123 0.29335 0.0
H433 H 0.44275 0.64053 0.24474 0.0
H434 H 0.36603 0.57187 0.34657 0.0
H435 H 0.46922 0.61272 0.29863 0.0
H436 H 0.49753 0.60088 0.4208 0.0
H437 H 0.46988 0.62745 0.3669 0.0
H438 H 0.4065 0.5163 0.36061 0.0
H439 H 0.43451 0.48934 0.41443 0.0
C440 C 0.36757 0.60346 0.29378 0.0
C441 C 0.38869 0.62355 0.26464 0.0
C442 C 0.38291 0.58675 0.32437 0.0
C443 C 0.41967 0.59025 0.32674 0.0
C444 C 0.4408 0.61008 0.2977 0.0
C445 C 0.42554 0.62623 0.26691 0.0
C446 C 0.4777 0.58207 0.40797 0.0
C447 C 0.46822 0.54299 0.42185 0.0
C448 C 0.46201 0.59725 0.37703 0.0
C449 C 0.43609 0.5739 0.35963 0.0
C450 C 0.42628 0.53496 0.37367 0.0
C451 C 0.44244 0.51952 0.4043 0.0
H452 H 0.19434 0.41874 0.78545 0.0
H453 H 0.0912 0.39173 0.74295 0.0
H454 H 0.1683 0.44966 0.8358 0.0
H455 H 0.06494 0.42009 0.79463 0.0
H456 H 0.0271 0.49975 0.87579 0.0
H457 H 0.05664 0.47836 0.82211 0.0
H458 H 0.13488 0.43329 0.8908 0.0
H459 H 0.10619 0.45617 0.94408 0.0
C460 C 0.16612 0.41951 0.78668 0.0
C461 C 0.14494 0.40255 0.76001 0.0
C462 C 0.15108 0.43679 0.81596 0.0
C463 C 0.1144 0.43731 0.81961 0.0
C464 C 0.0933 0.42081 0.79265 0.0
C465 C 0.10836 0.40388 0.7632 0.0
C466 C 0.05084 0.48567 0.87938 0.0
C467 C 0.06414 0.47957 0.91437 0.0
C468 C 0.06767 0.47308 0.84858 0.0
C469 C 0.09805 0.45364 0.85196 0.0
C470 C 0.11186 0.44856 0.88687 0.0
C471 C 0.09525 0.46155 0.9176 0.0
H472 H 0.71822 0.84991 0.7878 0.0
H473 H 0.7682 0.85101 0.89165 0.0
H474 H 0.66756 0.87628 0.81497 0.0
H475 H 0.71788 0.87786 0.91876 0.0
H476 H 0.60925 0.89513 0.96389 0.0
H477 H 0.65625 0.86273 0.93678 0.0
H478 H 0.6545 0.93783 0.83732 0.0
H479 H 0.60693 0.96949 0.86403 0.0
C480 C 0.71832 0.85585 0.81643 0.0
C481 C 0.74711 0.84855 0.83762 0.0
C482 C 0.68941 0.87101 0.83197 0.0
C483 C 0.6888 0.87935 0.86896 0.0
C484 C 0.71731 0.87124 0.89032 0.0
C485 C 0.74615 0.85591 0.87481 0.0
C486 C 0.61885 0.90464 0.9362 0.0
C487 C 0.60448 0.93493 0.91611 0.0
C488 C 0.64586 0.88618 0.92073 0.0
C489 C 0.65913 0.89774 0.88493 0.0
C490 C 0.64451 0.92783 0.86477 0.0
C491 C 0.61741 0.94617 0.88017 0.0
H492 H 0.76384 0.19144 0.36272 0.0
H493 H 0.72759 0.07322 0.33721 0.0
H494 H 0.81604 0.16824 0.38921 0.0
H495 H 0.78052 0.05035 0.36214 0.0
H496 H 0.85829 0.01484 0.44587 0.0
H497 H 0.80627 0.0394 0.42053 0.0
H498 H 0.87042 0.14303 0.37267 0.0
H499 H 0.92241 0.1189 0.39881 0.0
C500 C 0.76704 0.16051 0.36269 0.0
C501 C 0.74143 0.13417 0.34797 0.0
C502 C 0.79717 0.14728 0.37751 0.0
C503 C 0.80246 0.1074 0.37793 0.0
C504 C 0.77707 0.08117 0.36275 0.0
C505 C 0.74692 0.09438 0.348 0.0
C506 C 0.86132 0.04297 0.4301 0.0
C507 C 0.89455 0.0649 0.42437 0.0
C508 C 0.83149 0.05692 0.41532 0.0
C509 C 0.83416 0.09308 0.39433 0.0
C510 C 0.86734 0.11525 0.389 0.0
C511 C 0.89719 0.10134 0.40388 0.0
H512 H 0.30574 0.56139 0.18203 0.0
H513 H 0.27332 0.67669 0.15755 0.0
H514 H 0.25138 0.53171 0.15745 0.0
H515 H 0.2197 0.64693 0.13201 0.0
H516 H 0.14845 0.57788 0.05283 0.0
H517 H 0.20277 0.60766 0.07773 0.0
H518 H 0.18587 0.5261 0.17343 0.0
H519 H 0.13168 0.49644 0.1488 0.0
C520 C 0.28701 0.58042 0.17167 0.0
C521 C 0.29407 0.62148 0.1717 0.0
C522 C 0.25595 0.5634 0.15745 0.0
C523 C 0.23145 0.58706 0.14265 0.0
C524 C 0.23839 0.62802 0.14271 0.0
C525 C 0.2692 0.64502 0.15728 0.0
C526 C 0.15631 0.56638 0.0792 0.0
C527 C 0.13573 0.53488 0.09886 0.0
C528 C 0.18731 0.5835 0.09349 0.0
C529 C 0.19854 0.5691 0.12747 0.0
C530 C 0.17802 0.53754 0.14703 0.0
C531 C 0.14686 0.52076 0.13299 0.0
H532 H 0.26695 0.41311 0.71872 0.0
H533 H 0.23249 0.37849 0.61347 0.0
H534 H 0.3247 0.43708 0.69128 0.0
H535 H 0.29097 0.39944 0.58671 0.0
H536 H 0.38868 0.47959 0.54163 0.0
H537 H 0.33047 0.45424 0.56743 0.0
H538 H 0.37679 0.41663 0.6681 0.0
H539 H 0.43471 0.44385 0.64276 0.0
C540 C 0.27161 0.41058 0.68973 0.0
C541 C 0.24488 0.39371 0.66845 0.0
C542 C 0.30505 0.42371 0.67405 0.0
C543 C 0.31285 0.41991 0.63673 0.0
C544 C 0.28604 0.40326 0.61542 0.0
C545 C 0.25249 0.39064 0.63098 0.0
C546 C 0.38642 0.46542 0.56909 0.0
C547 C 0.41624 0.4638 0.59021 0.0
C548 C 0.35299 0.45079 0.58395 0.0
C549 C 0.34866 0.43363 0.62011 0.0
C550 C 0.37884 0.43053 0.64056 0.0
C551 C 0.41216 0.44573 0.6259 0.0
H552 H 0.83737 0.78357 0.89643 0.0
H553 H 0.85785 0.73444 0.79351 0.0
H554 H 0.8696 0.73475 0.92785 0.0
H555 H 0.89176 0.6873 0.82449 0.0
H556 H 0.91481 0.58113 0.89632 0.0
H557 H 0.88297 0.63007 0.86549 0.0
H558 H 0.9286 0.71738 0.93468 0.0
H559 H 0.95975 0.66771 0.96664 0.0
C560 C 0.84864 0.76227 0.88054 0.0
C561 C 0.84499 0.76282 0.84249 0.0
C562 C 0.86759 0.73472 0.89845 0.0
C563 C 0.88339 0.70725 0.87866 0.0
C564 C 0.87961 0.70777 0.84063 0.0
C565 C 0.86048 0.73508 0.8228 0.0
C566 C 0.91828 0.61079 0.90491 0.0
C567 C 0.93983 0.62055 0.93396 0.0
C568 C 0.9001 0.63894 0.88706 0.0
C569 C 0.90325 0.67766 0.89757 0.0
C570 C 0.92522 0.68764 0.92629 0.0
C571 C 0.94328 0.6593 0.94439 0.0
H572 H 0.39007 0.7646 0.21091 0.0
H573 H 0.39887 0.70523 0.11167 0.0
H574 H 0.41689 0.82621 0.1784 0.0
H575 H 0.42623 0.7665 0.07938 0.0
H576 H 0.50992 0.87464 0.05106 0.0
H577 H 0.48505 0.81386 0.08573 0.0
H578 H 0.39675 0.87124 0.12214 0.0
H579 H 0.42122 0.93197 0.08691 0.0
C580 C 0.39806 0.76478 0.18226 0.0
C581 C 0.39248 0.73041 0.16366 0.0
C582 C 0.41316 0.7999 0.16369 0.0
C583 C 0.42356 0.80092 0.12648 0.0
C584 C 0.41859 0.76633 0.10813 0.0
C585 C 0.40287 0.73146 0.12648 0.0
C586 C 0.48528 0.87433 0.06659 0.0
C587 C 0.46743 0.90796 0.06626 0.0
C588 C 0.47104 0.83956 0.08626 0.0
C589 C 0.43908 0.83804 0.10654 0.0
C590 C 0.42156 0.87184 0.10685 0.0
C591 C 0.43544 0.90641 0.08657 0.0
H592 H 0.08903 0.31557 0.67249 0.0
H593 H 0.18515 0.26057 0.67512 0.0
H594 H 0.05933 0.25816 0.64584 0.0
H595 H 0.15594 0.20393 0.64756 0.0
H596 H 0.08745 0.09355 0.62565 0.0
H597 H 0.11105 0.1484 0.65942 0.0
H598 H 0.0612 0.22818 0.58708 0.0
H599 H 0.03698 0.17314 0.5536 0.0
C600 C 0.10369 0.29106 0.66771 0.0
C601 C 0.13947 0.29267 0.67571 0.0
C602 C 0.08681 0.25838 0.6521 0.0
C603 C 0.1053 0.22653 0.64441 0.0
C604 C 0.14081 0.22775 0.65342 0.0
C605 C 0.15767 0.26041 0.66887 0.0
C606 C 0.08127 0.12273 0.61706 0.0
C607 C 0.06052 0.12897 0.58671 0.0
C608 C 0.09495 0.15421 0.63635 0.0
C609 C 0.08825 0.19273 0.6258 0.0
C610 C 0.06661 0.19884 0.59615 0.0
C611 C 0.05289 0.16731 0.57681 0.0
H612 H 0.64911 0.19056 0.41358 0.0
H613 H 0.62925 0.24998 0.30978 0.0
H614 H 0.62287 0.24081 0.44554 0.0
H615 H 0.60276 0.30002 0.34178 0.0
H616 H 0.53224 0.36689 0.41205 0.0
H617 H 0.55217 0.3114 0.38204 0.0
H618 H 0.63924 0.3106 0.45395 0.0
H619 H 0.61925 0.36545 0.4841 0.0
C620 C 0.63919 0.21436 0.39758 0.0
C621 C 0.64152 0.21638 0.35912 0.0
C622 C 0.62409 0.24309 0.41589 0.0
C623 C 0.61085 0.27448 0.39619 0.0
C624 C 0.6123 0.27595 0.35775 0.0
C625 C 0.6275 0.24726 0.33942 0.0
C626 C 0.55545 0.3546 0.42163 0.0
C627 C 0.57421 0.37065 0.45039 0.0
C628 C 0.56696 0.32299 0.40431 0.0
C629 C 0.5973 0.30663 0.4156 0.0
C630 C 0.61554 0.32218 0.44488 0.0
C631 C 0.60418 0.35384 0.46201 0.0
loop_
_geom_bond_atom_site_label_1
_geom_bond_atom_site_label_2
_geom_bond_distance
_geom_bond_site_symmetry_2
_ccdc_geom_bond_type
H0 C3 0.931 . S
H1 C6 0.928 . S
H2 C8 0.930 . S
C3 H0 0.931 . S
C3 C4 1.413 . S
C3 C5 1.360 . S
C4 C3 1.413 . S
C4 C8 1.429 . S
C5 C3 1.360 . S
C5 C6 1.372 . S
C6 H1 0.928 . S
C6 C5 1.372 . S
C6 C7 1.404 . S
C7 C6 1.404 . S
C7 C8 1.391 . S
C8 H2 0.930 . S
C8 C4 1.429 . S
C8 C7 1.391 . S
H9 C12 0.931 . S
H10 C15 0.928 . S
H11 C17 0.930 . S
C12 H9 0.931 . S
C12 C13 1.413 . S
C12 C14 1.360 . S
C13 C12 1.413 . S
C13 C17 1.429 . S
C14 C12 1.360 . S
C14 C15 1.372 . S
C15 H10 0.928 . S
C15 C14 1.372 . S
C15 C16 1.404 . S
C16 C15 1.404 . S
C16 C17 1.391 . S
C17 H11 0.930 . S
C17 C13 1.429 . S
C17 C16 1.391 . S
H18 C21 0.931 . S
H19 C24 0.928 . S
H20 C26 0.930 . S
C21 H18 0.931 . S
C21 C22 1.413 . S
C21 C23 1.360 . S
C22 C21 1.413 . S
C22 C26 1.429 . S
C23 C21 1.360 . S
C23 C24 1.372 . S
C24 H19 0.928 . S
C24 C23 1.372 . S
C24 C25 1.404 . S
C25 C24 1.404 . S
C25 C26 1.391 . S
C26 H20 0.930 . S
C26 C22 1.429 . S
C26 C25 1.391 . S
H27 C30 0.931 . S
H28 C33 0.928 . S
H29 C35 0.930 . S
C30 H27 0.931 . S
C30 C31 1.413 . S
C30 C32 1.360 . S
C31 C30 1.413 . S
C31 C35 1.429 . S
C32 C30 1.360 . S
C32 C33 1.372 . S
C33 H28 0.928 . S
C33 C32 1.372 . S
C33 C34 1.404 . S
C34 C33 1.404 . S
C34 C35 1.391 . S
C35 H29 0.930 . S
C35 C31 1.429 . S
C35 C34 1.391 . S
H36 C39 0.931 . S
H37 C42 0.928 . S
H38 C44 0.930 . S
C39 H36 0.931 . S
C39 C40 1.413 . S
C39 C41 1.360 . S
C40 C39 1.413 . S
C40 C44 1.429 . S
C41 C39 1.360 . S
C41 C42 1.372 . S
C42 H37 0.928 . S
C42 C41 1.372 . S
C42 C43 1.404 . S
C43 C42 1.404 . S
C43 C44 1.391 . S
C44 H38 0.930 . S
C44 C40 1.429 . S
C44 C43 1.391 . S
H45 C48 0.931 . S
H46 C51 0.928 . S
H47 C53 0.930 . S
C48 H45 0.931 . S
C48 C49 1.413 . S
C48 C50 1.360 . S
C49 C48 1.413 . S
C49 C53 1.429 . S
C50 C48 1.360 . S
C50 C51 1.372 . S
C51 H46 0.928 . S
C51 C50 1.372 . S
C51 C52 1.404 . S
C52 C51 1.404 . S
C52 C53 1.391 . S
C53 H47 0.930 . S
C53 C49 1.429 . S
C53 C52 1.391 . S
H54 C57 0.931 . S
H55 C60 0.928 . S
H56 C62 0.930 . S
C57 H54 0.931 . S
C57 C58 1.413 . S
C57 C59 1.360 . S
C58 C57 1.413 . S
C58 C62 1.429 . S
C59 C57 1.360 . S
C59 C60 1.372 . S
C60 H55 0.928 . S
C60 C59 1.372 . S
C60 C61 1.404 . S
C61 C60 1.404 . S
C61 C62 1.391 . S
C62 H56 0.930 . S
C62 C58 1.429 . S
C62 C61 1.391 . S
H63 C66 0.931 . S
H64 C69 0.928 . S
H65 C71 0.930 . S
C66 H63 0.931 . S
C66 C67 1.413 . S
C66 C68 1.360 . S
C67 C66 1.413 . S
C67 C71 1.429 . S
C68 C66 1.360 . S
C68 C69 1.372 . S
C69 H64 0.928 . S
C69 C68 1.372 . S
C69 C70 1.404 . S
C70 C69 1.404 . S
C70 C71 1.391 . S
C71 H65 0.930 . S
C71 C67 1.429 . S
C71 C70 1.391 . S
Zn72 O78 1.969 1_545 S
Zn72 O79 1.965 1_545 S
Zn72 O83 2.024 . S
Zn72 O88 1.969 . S
Zn73 O80 1.969 . S
Zn73 O86 1.969 1_565 S
Zn73 O87 1.965 1_665 S
Zn73 O89 2.024 . S
C74 O75 1.229 . S
C74 O83 1.058 . S
O75 C74 1.229 . S
C76 O77 1.229 . S
C76 O89 1.058 . S
O77 C76 1.229 . S
O78 Zn72 1.969 1_565 S
O78 C81 1.267 . S
O79 Zn72 1.965 1_565 S
O79 C90 1.260 1_455 S
O80 Zn73 1.969 . S
O80 C90 1.258 . S
C81 O78 1.267 . S
C81 O82 1.228 . S
O82 C81 1.228 . S
O83 Zn72 2.024 . S
O83 C74 1.058 . S
C84 O85 1.228 . S
C84 O86 1.267 . S
O85 C84 1.228 . S
O86 Zn73 1.969 1_545 S
O86 C84 1.267 . S
O87 Zn73 1.965 1_445 S
O87 C91 1.260 . S
O88 Zn72 1.969 . S
O88 C91 1.258 . S
O89 Zn73 2.024 . S
O89 C76 1.058 . S
C90 O79 1.260 1_655 S
C90 O80 1.258 . S
C91 O87 1.260 . S
C91 O88 1.258 . S
Zn92 O98 1.969 . S
Zn92 O99 1.965 1_565 S
Zn92 O103 2.024 . S
Zn92 O108 1.969 1_556 S
Zn93 O100 1.969 . S
Zn93 O106 1.969 . S
Zn93 O107 1.965 1_545 S
Zn93 O109 2.024 . S
C94 O95 1.229 . S
C94 O103 1.058 . S
O95 C94 1.229 . S
C96 O97 1.229 . S
C96 O109 1.058 . S
O97 C96 1.229 . S
O98 Zn92 1.969 . S
O98 C101 1.267 . S
O99 Zn92 1.965 1_545 S
O99 C110 1.260 . S
O100 Zn93 1.969 . S
O100 C110 1.258 1_554 S
C101 O98 1.267 . S
C101 O102 1.228 . S
O102 C101 1.228 . S
O103 Zn92 2.024 . S
O103 C94 1.058 . S
C104 O105 1.228 . S
C104 O106 1.267 . S
O105 C104 1.228 . S
O106 Zn93 1.969 . S
O106 C104 1.267 . S
O107 Zn93 1.965 1_565 S
O107 C111 1.260 . S
O108 Zn92 1.969 1_554 S
O108 C111 1.258 . S
O109 Zn93 2.024 . S
O109 C96 1.058 . S
C110 O99 1.260 . S
C110 O100 1.258 1_556 S
C111 O107 1.260 . S
C111 O108 1.258 . S
Zn112 O118 1.969 . S
Zn112 O119 1.965 . S
Zn112 O123 2.024 . S
Zn112 O128 1.969 . S
Zn113 O120 1.969 . S
Zn113 O126 1.969 . S
Zn113 O127 1.965 . S
Zn113 O129 2.024 . S
C114 O115 1.229 . S
C114 O123 1.058 . S
O115 C114 1.229 . S
C116 O117 1.229 . S
C116 O129 1.058 . S
O117 C116 1.229 . S
O118 Zn112 1.969 . S
O118 C121 1.267 . S
O119 Zn112 1.965 . S
O119 C130 1.260 . S
O120 Zn113 1.969 . S
O120 C130 1.258 . S
C121 O118 1.267 . S
C121 O122 1.228 . S
O122 C121 1.228 . S
O123 Zn112 2.024 . S
O123 C114 1.058 . S
C124 O125 1.228 . S
C124 O126 1.267 . S
O125 C124 1.228 . S
O126 Zn113 1.969 . S
O126 C124 1.267 . S
O127 Zn113 1.965 . S
O127 C131 1.260 . S
O128 Zn112 1.969 . S
O128 C131 1.258 . S
O129 Zn113 2.024 . S
O129 C116 1.058 . S
C130 O119 1.260 . S
C130 O120 1.258 . S
C131 O127 1.260 . S
C131 O128 1.258 . S
Zn132 O138 1.969 . S
Zn132 O139 1.965 1_556 S
Zn132 O143 2.024 . S
Zn132 O148 1.969 1_655 S
Zn133 O140 1.969 . S
Zn133 O146 1.969 . S
Zn133 O147 1.965 1_554 S
Zn133 O149 2.024 . S
C134 O135 1.229 . S
C134 O143 1.058 . S
O135 C134 1.229 . S
C136 O137 1.229 . S
C136 O149 1.058 . S
O137 C136 1.229 . S
O138 Zn132 1.969 . S
O138 C141 1.267 . S
O139 Zn132 1.965 1_554 S
O139 C150 1.260 . S
O140 Zn133 1.969 . S
O140 C150 1.258 1_455 S
C141 O138 1.267 . S
C141 O142 1.228 . S
O142 C141 1.228 . S
O143 Zn132 2.024 . S
O143 C134 1.058 . S
C144 O145 1.228 . S
C144 O146 1.267 . S
O145 C144 1.228 . S
O146 Zn133 1.969 . S
O146 C144 1.267 . S
O147 Zn133 1.965 1_556 S
O147 C151 1.260 . S
O148 Zn132 1.969 1_455 S
O148 C151 1.258 . S
O149 Zn133 2.024 . S
O149 C136 1.058 . S
C150 O139 1.260 . S
C150 O140 1.258 1_655 S
C151 O147 1.260 . S
C151 O148 1.258 . S
H152 C160 0.950 . S
H153 C165 0.950 . S
H154 C162 0.950 . S
H155 C164 0.950 . S
H156 C166 0.950 . S
H157 C168 0.950 . S
H158 C170 0.950 . S
H159 C171 0.950 . S
C160 H152 0.950 . S
C160 C161 1.386 . S
C160 C162 1.391 . S
C161 C160 1.386 . S
C161 C165 1.393 . S
C162 H154 0.950 . S
C162 C160 1.391 . S
C162 C163 1.400 . S
C163 C162 1.400 . S
C163 C164 1.398 . S
C163 C169 1.491 . S
C164 H155 0.950 . S
C164 C163 1.398 . S
C164 C165 1.391 . S
C165 H153 0.950 . S
C165 C161 1.393 . S
C165 C164 1.391 . S
C166 H156 0.950 . S
C166 C167 1.386 . S
C166 C168 1.391 . S
C167 C166 1.386 . S
C167 C171 1.393 . S
C168 H157 0.950 . S
C168 C166 1.391 . S
C168 C169 1.400 . S
C169 C163 1.491 . S
C169 C168 1.400 . S
C169 C170 1.398 . S
C170 H158 0.950 . S
C170 C169 1.398 . S
C170 C171 1.391 . S
C171 H159 0.950 . S
C171 C167 1.393 . S
C171 C170 1.391 . S
H172 C180 0.950 . S
H173 C185 0.950 . S
H174 C182 0.950 . S
H175 C184 0.950 . S
H176 C186 0.950 . S
H177 C188 0.950 . S
H178 C190 0.950 . S
H179 C191 0.950 . S
C180 H172 0.950 . S
C180 C181 1.386 . S
C180 C182 1.391 . S
C181 C180 1.386 . S
C181 C185 1.393 . S
C182 H174 0.950 . S
C182 C180 1.391 . S
C182 C183 1.400 . S
C183 C182 1.400 . S
C183 C184 1.398 . S
C183 C189 1.491 . S
C184 H175 0.950 . S
C184 C183 1.398 . S
C184 C185 1.391 . S
C185 H173 0.950 . S
C185 C181 1.393 . S
C185 C184 1.391 . S
C186 H176 0.950 . S
C186 C187 1.386 . S
C186 C188 1.391 . S
C187 C186 1.386 . S
C187 C191 1.393 . S
C188 H177 0.950 . S
C188 C186 1.391 . S
C188 C189 1.400 . S
C189 C183 1.491 . S
C189 C188 1.400 . S
C189 C190 1.398 . S
C190 H178 0.950 . S
C190 C189 1.398 . S
C190 C191 1.391 . S
C191 H179 0.950 . S
C191 C187 1.393 . S
C191 C190 1.391 . S
H192 C200 0.950 . S
H193 C205 0.950 . S
H194 C202 0.950 . S
H195 C204 0.950 . S
H196 C206 0.950 . S
H197 C208 0.950 . S
H198 C210 0.950 . S
H199 C211 0.950 . S
C200 H192 0.950 . S
C200 C201 1.386 . S
C200 C202 1.391 . S
C201 C200 1.386 . S
C201 C205 1.393 . S
C202 H194 0.950 . S
C202 C200 1.391 . S
C202 C203 1.400 . S
C203 C202 1.400 . S
C203 C204 1.398 . S
C203 C209 1.491 . S
C204 H195 0.950 . S
C204 C203 1.398 . S
C204 C205 1.391 . S
C205 H193 0.950 . S
C205 C201 1.393 . S
C205 C204 1.391 . S
C206 H196 0.950 . S
C206 C207 1.386 . S
C206 C208 1.391 . S
C207 C206 1.386 . S
C207 C211 1.393 . S
C208 H197 0.950 . S
C208 C206 1.391 . S
C208 C209 1.400 . S
C209 C203 1.491 . S
C209 C208 1.400 . S
C209 C210 1.398 . S
C210 H198 0.950 . S
C210 C209 1.398 . S
C210 C211 1.391 . S
C211 H199 0.950 . S
C211 C207 1.393 . S
C211 C210 1.391 . S
H212 C220 0.950 . S
H213 C225 0.950 . S
H214 C222 0.950 . S
H215 C224 0.950 . S
H216 C226 0.950 . S
H217 C228 0.950 . S
H218 C230 0.950 . S
H219 C231 0.950 . S
C220 H212 0.950 . S
C220 C221 1.386 . S
C220 C222 1.391 . S
C221 C220 1.386 . S
C221 C225 1.393 . S
C222 H214 0.950 . S
C222 C220 1.391 . S
C222 C223 1.400 . S
C223 C222 1.400 . S
C223 C224 1.398 . S
C223 C229 1.491 . S
C224 H215 0.950 . S
C224 C223 1.398 . S
C224 C225 1.391 . S
C225 H213 0.950 . S
C225 C221 1.393 . S
C225 C224 1.391 . S
C226 H216 0.950 . S
C226 C227 1.386 . S
C226 C228 1.391 . S
C227 C226 1.386 . S
C227 C231 1.393 . S
C228 H217 0.950 . S
C228 C226 1.391 . S
C228 C229 1.400 . S
C229 C223 1.491 . S
C229 C228 1.400 . S
C229 C230 1.398 . S
C230 H218 0.950 . S
C230 C229 1.398 . S
C230 C231 1.391 . S
C231 H219 0.950 . S
C231 C227 1.393 . S
C231 C230 1.391 . S
H232 C240 0.950 . S
H233 C245 0.950 . S
H234 C242 0.950 . S
H235 C244 0.950 . S
H236 C246 0.950 . S
H237 C248 0.950 . S
H238 C250 0.950 . S
H239 C251 0.950 . S
C240 H232 0.950 . S
C240 C241 1.386 . S
C240 C242 1.391 . S
C241 C240 1.386 . S
C241 C245 1.393 . S
C242 H234 0.950 . S
C242 C240 1.391 . S
C242 C243 1.400 . S
C243 C242 1.400 . S
C243 C244 1.398 . S
C243 C249 1.491 . S
C244 H235 0.950 . S
C244 C243 1.398 . S
C244 C245 1.391 . S
C245 H233 0.950 . S
C245 C241 1.393 . S
C245 C244 1.391 . S
C246 H236 0.950 . S
C246 C247 1.386 . S
C246 C248 1.391 . S
C247 C246 1.386 . S
C247 C251 1.393 . S
C248 H237 0.950 . S
C248 C246 1.391 . S
C248 C249 1.400 . S
C249 C243 1.491 . S
C249 C248 1.400 . S
C249 C250 1.398 . S
C250 H238 0.950 . S
C250 C249 1.398 . S
C250 C251 1.391 . S
C251 H239 0.950 . S
C251 C247 1.393 . S
C251 C250 1.391 . S
H252 C260 0.950 . S
H253 C265 0.950 . S
H254 C262 0.950 . S
H255 C264 0.950 . S
H256 C266 0.950 . S
H257 C268 0.950 . S
H258 C270 0.950 . S
H259 C271 0.950 . S
C260 H252 0.950 . S
C260 C261 1.386 . S
C260 C262 1.391 . S
C261 C260 1.386 . S
C261 C265 1.393 . S
C262 H254 0.950 . S
C262 C260 1.391 . S
C262 C263 1.400 . S
C263 C262 1.400 . S
C263 C264 1.398 . S
C263 C269 1.491 . S
C264 H255 0.950 . S
C264 C263 1.398 . S
C264 C265 1.391 . S
C265 H253 0.950 . S
C265 C261 1.393 . S
C265 C264 1.391 . S
C266 H256 0.950 . S
C266 C267 1.386 . S
C266 C268 1.391 . S
C267 C266 1.386 . S
C267 C271 1.393 . S
C268 H257 0.950 . S
C268 C266 1.391 . S
C268 C269 1.400 . S
C269 C263 1.491 . S
C269 C268 1.400 . S
C269 C270 1.398 . S
C270 H258 0.950 . S
C270 C269 1.398 . S
C270 C271 1.391 . S
C271 H259 0.950 . S
C271 C267 1.393 . S
C271 C270 1.391 . S
H272 C280 0.950 . S
H273 C285 0.950 . S
H274 C282 0.950 . S
H275 C284 0.950 . S
H276 C286 0.950 . S
H277 C288 0.950 . S
H278 C290 0.950 . S
H279 C291 0.950 . S
C280 H272 0.950 . S
C280 C281 1.386 . S
C280 C282 1.391 . S
C281 C280 1.386 . S
C281 C285 1.393 . S
C282 H274 0.950 . S
C282 C280 1.391 . S
C282 C283 1.400 . S
C283 C282 1.400 . S
C283 C284 1.398 . S
C283 C289 1.491 . S
C284 H275 0.950 . S
C284 C283 1.398 . S
C284 C285 1.391 . S
C285 H273 0.950 . S
C285 C281 1.393 . S
C285 C284 1.391 . S
C286 H276 0.950 . S
C286 C287 1.386 . S
C286 C288 1.391 . S
C287 C286 1.386 . S
C287 C291 1.393 . S
C288 H277 0.950 . S
C288 C286 1.391 . S
C288 C289 1.400 . S
C289 C283 1.491 . S
C289 C288 1.400 . S
C289 C290 1.398 . S
C290 H278 0.950 . S
C290 C289 1.398 . S
C290 C291 1.391 . S
C291 H279 0.950 . S
C291 C287 1.393 . S
C291 C290 1.391 . S
H292 C300 0.950 . S
H293 C305 0.950 . S
H294 C302 0.950 . S
H295 C304 0.950 . S
H296 C306 0.950 . S
H297 C308 0.950 . S
H298 C310 0.950 . S
H299 C311 0.950 . S
C300 H292 0.950 . S
C300 C301 1.386 . S
C300 C302 1.391 . S
C301 C300 1.386 . S
C301 C305 1.393 . S
C302 H294 0.950 . S
C302 C300 1.391 . S
C302 C303 1.400 . S
C303 C302 1.400 . S
C303 C304 1.398 . S
C303 C309 1.491 . S
C304 H295 0.950 . S
C304 C303 1.398 . S
C304 C305 1.391 . S
C305 H293 0.950 . S
C305 C301 1.393 . S
C305 C304 1.391 . S
C306 H296 0.950 . S
C306 C307 1.386 . S
C306 C308 1.391 . S
C307 C306 1.386 . S
C307 C311 1.393 . S
C308 H297 0.950 . S
C308 C306 1.391 . S
C308 C309 1.400 . S
C309 C303 1.491 . S
C309 C308 1.400 . S
C309 C310 1.398 . S
C310 H298 0.950 . S
C310 C309 1.398 . S
C310 C311 1.391 . S
C311 H299 0.950 . S
C311 C307 1.393 . S
C311 C310 1.391 . S
H312 C320 0.950 . S
H313 C325 0.950 . S
H314 C322 0.950 . S
H315 C324 0.950 . S
H316 C326 0.950 . S
H317 C328 0.950 . S
H318 C330 0.950 . S
H319 C331 0.950 . S
C320 H312 0.950 . S
C320 C321 1.386 . S
C320 C322 1.391 . S
C321 C320 1.386 . S
C321 C325 1.393 . S
C322 H314 0.950 . S
C322 C320 1.391 . S
C322 C323 1.400 . S
C323 C322 1.400 . S
C323 C324 1.398 . S
C323 C329 1.491 . S
C324 H315 0.950 . S
C324 C323 1.398 . S
C324 C325 1.391 . S
C325 H313 0.950 . S
C325 C321 1.393 . S
C325 C324 1.391 . S
C326 H316 0.950 . S
C326 C327 1.386 . S
C326 C328 1.391 . S
C327 C326 1.386 . S
C327 C331 1.393 . S
C328 H317 0.950 . S
C328 C326 1.391 . S
C328 C329 1.400 . S
C329 C323 1.491 . S
C329 C328 1.400 . S
C329 C330 1.398 . S
C330 H318 0.950 . S
C330 C329 1.398 . S
C330 C331 1.391 . S
C331 H319 0.950 . S
C331 C327 1.393 . S
C331 C330 1.391 . S
H332 C340 0.950 . S
H333 C345 0.950 . S
H334 C342 0.950 . S
H335 C344 0.950 . S
H336 C346 0.950 . S
H337 C348 0.950 . S
H338 C350 0.950 . S
H339 C351 0.950 . S
C340 H332 0.950 . S
C340 C341 1.386 . S
C340 C342 1.391 . S
C341 C340 1.386 . S
C341 C345 1.393 . S
C342 H334 0.950 . S
C342 C340 1.391 . S
C342 C343 1.400 . S
C343 C342 1.400 . S
C343 C344 1.398 . S
C343 C349 1.491 . S
C344 H335 0.950 . S
C344 C343 1.398 . S
C344 C345 1.391 . S
C345 H333 0.950 . S
C345 C341 1.393 . S
C345 C344 1.391 . S
C346 H336 0.950 . S
C346 C347 1.386 . S
C346 C348 1.391 . S
C347 C346 1.386 . S
C347 C351 1.393 . S
C348 H337 0.950 . S
C348 C346 1.391 . S
C348 C349 1.400 . S
C349 C343 1.491 . S
C349 C348 1.400 . S
C349 C350 1.398 . S
C350 H338 0.950 . S
C350 C349 1.398 . S
C350 C351 1.391 . S
C351 H339 0.950 . S
C351 C347 1.393 . S
C351 C350 1.391 . S
H352 C360 0.950 . S
H353 C365 0.950 . S
H354 C362 0.950 . S
H355 C364 0.950 . S
H356 C366 0.950 . S
H357 C368 0.950 . S
H358 C370 0.950 . S
H359 C371 0.950 . S
C360 H352 0.950 . S
C360 C361 1.386 . S
C360 C362 1.391 . S
C361 C360 1.386 . S
C361 C365 1.393 . S
C362 H354 0.950 . S
C362 C360 1.391 . S
C362 C363 1.400 . S
C363 C362 1.400 . S
C363 C364 1.398 . S
C363 C369 1.491 . S
C364 H355 0.950 . S
C364 C363 1.398 . S
C364 C365 1.391 . S
C365 H353 0.950 . S
C365 C361 1.393 . S
C365 C364 1.391 . S
C366 H356 0.950 . S
C366 C367 1.386 . S
C366 C368 1.391 . S
C367 C366 1.386 . S
C367 C371 1.393 . S
C368 H357 0.950 . S
C368 C366 1.391 . S
C368 C369 1.400 . S
C369 C363 1.491 . S
C369 C368 1.400 . S
C369 C370 1.398 . S
C370 H358 0.950 . S
C370 C369 1.398 . S
C370 C371 1.391 . S
C371 H359 0.950 . S
C371 C367 1.393 . S
C371 C370 1.391 . S
H372 C380 0.950 . S
H373 C385 0.950 . S
H374 C382 0.950 . S
H375 C384 0.950 . S
H376 C386 0.950 . S
H377 C388 0.950 . S
H378 C390 0.950 . S
H379 C391 0.950 . S
C380 H372 0.950 . S
C380 C381 1.386 . S
C380 C382 1.391 . S
C381 C380 1.386 . S
C381 C385 1.393 . S
C382 H374 0.950 . S
C382 C380 1.391 . S
C382 C383 1.400 . S
C383 C382 1.400 . S
C383 C384 1.398 . S
C383 C389 1.491 . S
C384 H375 0.950 . S
C384 C383 1.398 . S
C384 C385 1.391 . S
C385 H373 0.950 . S
C385 C381 1.393 . S
C385 C384 1.391 . S
C386 H376 0.950 . S
C386 C387 1.386 . S
C386 C388 1.391 . S
C387 C386 1.386 . S
C387 C391 1.393 . S
C388 H377 0.950 . S
C388 C386 1.391 . S
C388 C389 1.400 . S
C389 C383 1.491 . S
C389 C388 1.400 . S
C389 C390 1.398 . S
C390 H378 0.950 . S
C390 C389 1.398 . S
C390 C391 1.391 . S
C391 H379 0.950 . S
C391 C387 1.393 . S
C391 C390 1.391 . S
H392 C400 0.950 . S
H393 C405 0.950 . S
H394 C402 0.950 . S
H395 C404 0.950 . S
H396 C406 0.950 . S
H397 C408 0.950 . S
H398 C410 0.950 . S
H399 C411 0.950 . S
C400 H392 0.950 . S
C400 C401 1.386 . S
C400 C402 1.391 . S
C401 C400 1.386 . S
C401 C405 1.393 . S
C402 H394 0.950 . S
C402 C400 1.391 . S
C402 C403 1.400 . S
C403 C402 1.400 . S
C403 C404 1.398 . S
C403 C409 1.491 . S
C404 H395 0.950 . S
C404 C403 1.398 . S
C404 C405 1.391 . S
C405 H393 0.950 . S
C405 C401 1.393 . S
C405 C404 1.391 . S
C406 H396 0.950 . S
C406 C407 1.386 . S
C406 C408 1.391 . S
C407 C406 1.386 . S
C407 C411 1.393 . S
C408 H397 0.950 . S
C408 C406 1.391 . S
C408 C409 1.400 . S
C409 C403 1.491 . S
C409 C408 1.400 . S
C409 C410 1.398 . S
C410 H398 0.950 . S
C410 C409 1.398 . S
C410 C411 1.391 . S
C411 H399 0.950 . S
C411 C407 1.393 . S
C411 C410 1.391 . S
H412 C420 0.950 . S
H413 C425 0.950 . S
H414 C422 0.950 . S
H415 C424 0.950 . S
H416 C426 0.950 . S
H417 C428 0.950 . S
H418 C430 0.950 . S
H419 C431 0.950 . S
C420 H412 0.950 . S
C420 C421 1.386 . S
C420 C422 1.391 . S
C421 C420 1.386 . S
C421 C425 1.393 . S
C422 H414 0.950 . S
C422 C420 1.391 . S
C422 C423 1.400 . S
C423 C422 1.400 . S
C423 C424 1.398 . S
C423 C429 1.491 . S
C424 H415 0.950 . S
C424 C423 1.398 . S
C424 C425 1.391 . S
C425 H413 0.950 . S
C425 C421 1.393 . S
C425 C424 1.391 . S
C426 H416 0.950 . S
C426 C427 1.386 . S
C426 C428 1.391 . S
C427 C426 1.386 . S
C427 C431 1.393 . S
C428 H417 0.950 . S
C428 C426 1.391 . S
C428 C429 1.400 . S
C429 C423 1.491 . S
C429 C428 1.400 . S
C429 C430 1.398 . S
C430 H418 0.950 . S
C430 C429 1.398 . S
C430 C431 1.391 . S
C431 H419 0.950 . S
C431 C427 1.393 . S
C431 C430 1.391 . S
H432 C440 0.950 . S
H433 C445 0.950 . S
H434 C442 0.950 . S
H435 C444 0.950 . S
H436 C446 0.950 . S
H437 C448 0.950 . S
H438 C450 0.950 . S
H439 C451 0.950 . S
C440 H432 0.950 . S
C440 C441 1.386 . S
C440 C442 1.391 . S
C441 C440 1.386 . S
C441 C445 1.393 . S
C442 H434 0.950 . S
C442 C440 1.391 . S
C442 C443 1.400 . S
C443 C442 1.400 . S
C443 C444 1.398 . S
C443 C449 1.491 . S
C444 H435 0.950 . S
C444 C443 1.398 . S
C444 C445 1.391 . S
C445 H433 0.950 . S
C445 C441 1.393 . S
C445 C444 1.391 . S
C446 H436 0.950 . S
C446 C447 1.386 . S
C446 C448 1.391 . S
C447 C446 1.386 . S
C447 C451 1.393 . S
C448 H437 0.950 . S
C448 C446 1.391 . S
C448 C449 1.400 . S
C449 C443 1.491 . S
C449 C448 1.400 . S
C449 C450 1.398 . S
C450 H438 0.950 . S
C450 C449 1.398 . S
C450 C451 1.391 . S
C451 H439 0.950 . S
C451 C447 1.393 . S
C451 C450 1.391 . S
H452 C460 0.950 . S
H453 C465 0.950 . S
H454 C462 0.950 . S
H455 C464 0.950 . S
H456 C466 0.950 . S
H457 C468 0.950 . S
H458 C470 0.950 . S
H459 C471 0.950 . S
C460 H452 0.950 . S
C460 C461 1.386 . S
C460 C462 1.391 . S
C461 C460 1.386 . S
C461 C465 1.393 . S
C462 H454 0.950 . S
C462 C460 1.391 . S
C462 C463 1.400 . S
C463 C462 1.400 . S
C463 C464 1.398 . S
C463 C469 1.491 . S
C464 H455 0.950 . S
C464 C463 1.398 . S
C464 C465 1.391 . S
C465 H453 0.950 . S
C465 C461 1.393 . S
C465 C464 1.391 . S
C466 H456 0.950 . S
C466 C467 1.386 . S
C466 C468 1.391 . S
C467 C466 1.386 . S
C467 C471 1.393 . S
C468 H457 0.950 . S
C468 C466 1.391 . S
C468 C469 1.400 . S
C469 C463 1.491 . S
C469 C468 1.400 . S
C469 C470 1.398 . S
C470 H458 0.950 . S
C470 C469 1.398 . S
C470 C471 1.391 . S
C471 H459 0.950 . S
C471 C467 1.393 . S
C471 C470 1.391 . S
H472 C480 0.950 . S
H473 C485 0.950 . S
H474 C482 0.950 . S
H475 C484 0.950 . S
H476 C486 0.950 . S
H477 C488 0.950 . S
H478 C490 0.950 . S
H479 C491 0.950 . S
C480 H472 0.950 . S
C480 C481 1.386 . S
C480 C482 1.391 . S
C481 C480 1.386 . S
C481 C485 1.393 . S
C482 H474 0.950 . S
C482 C480 1.391 . S
C482 C483 1.400 . S
C483 C482 1.400 . S
C483 C484 1.398 . S
C483 C489 1.491 . S
C484 H475 0.950 . S
C484 C483 1.398 . S
C484 C485 1.391 . S
C485 H473 0.950 . S
C485 C481 1.393 . S
C485 C484 1.391 . S
C486 H476 0.950 . S
C486 C487 1.386 . S
C486 C488 1.391 . S
C487 C486 1.386 . S
C487 C491 1.393 . S
C488 H477 0.950 . S
C488 C486 1.391 . S
C488 C489 1.400 . S
C489 C483 1.491 . S
C489 C488 1.400 . S
C489 C490 1.398 . S
C490 H478 0.950 . S
C490 C489 1.398 . S
C490 C491 1.391 . S
C491 H479 0.950 . S
C491 C487 1.393 . S
C491 C490 1.391 . S
H492 C500 0.950 . S
H493 C505 0.950 . S
H494 C502 0.950 . S
H495 C504 0.950 . S
H496 C506 0.950 . S
H497 C508 0.950 . S
H498 C510 0.950 . S
H499 C511 0.950 . S
C500 H492 0.950 . S
C500 C501 1.386 . S
C500 C502 1.391 . S
C501 C500 1.386 . S
C501 C505 1.393 . S
C502 H494 0.950 . S
C502 C500 1.391 . S
C502 C503 1.400 . S
C503 C502 1.400 . S
C503 C504 1.398 . S
C503 C509 1.491 . S
C504 H495 0.950 . S
C504 C503 1.398 . S
C504 C505 1.391 . S
C505 H493 0.950 . S
C505 C501 1.393 . S
C505 C504 1.391 . S
C506 H496 0.950 . S
C506 C507 1.386 . S
C506 C508 1.391 . S
C507 C506 1.386 . S
C507 C511 1.393 . S
C508 H497 0.950 . S
C508 C506 1.391 . S
C508 C509 1.400 . S
C509 C503 1.491 . S
C509 C508 1.400 . S
C509 C510 1.398 . S
C510 H498 0.950 . S
C510 C509 1.398 . S
C510 C511 1.391 . S
C511 H499 0.950 . S
C511 C507 1.393 . S
C511 C510 1.391 . S
H512 C520 0.950 . S
H513 C525 0.950 . S
H514 C522 0.950 . S
H515 C524 0.950 . S
H516 C526 0.950 . S
H517 C528 0.950 . S
H518 C530 0.950 . S
H519 C531 0.950 . S
C520 H512 0.950 . S
C520 C521 1.386 . S
C520 C522 1.391 . S
C521 C520 1.386 . S
C521 C525 1.393 . S
C522 H514 0.950 . S
C522 C520 1.391 . S
C522 C523 1.400 . S
C523 C522 1.400 . S
C523 C524 1.398 . S
C523 C529 1.491 . S
C524 H515 0.950 . S
C524 C523 1.398 . S
C524 C525 1.391 . S
C525 H513 0.950 . S
C525 C521 1.393 . S
C525 C524 1.391 . S
C526 H516 0.950 . S
C526 C527 1.386 . S
C526 C528 1.391 . S
C527 C526 1.386 . S
C527 C531 1.393 . S
C528 H517 0.950 . S
C528 C526 1.391 . S
C528 C529 1.400 . S
C529 C523 1.491 . S
C529 C528 1.400 . S
C529 C530 1.398 . S
C530 H518 0.950 . S
C530 C529 1.398 . S
C530 C531 1.391 . S
C531 H519 0.950 . S
C531 C527 1.393 . S
C531 C530 1.391 . S
H532 C540 0.950 . S
H533 C545 0.950 . S
H534 C542 0.950 . S
H535 C544 0.950 . S
H536 C546 0.950 . S
H537 C548 0.950 . S
H538 C550 0.950 . S
H539 C551 0.950 . S
C540 H532 0.950 . S
C540 C541 1.386 . S
C540 C542 1.391 . S
C541 C540 1.386 . S
C541 C545 1.393 . S
C542 H534 0.950 . S
C542 C540 1.391 . S
C542 C543 1.400 . S
C543 C542 1.400 . S
C543 C544 1.398 . S
C543 C549 1.491 . S
C544 H535 0.950 . S
C544 C543 1.398 . S
C544 C545 1.391 . S
C545 H533 0.950 . S
C545 C541 1.393 . S
C545 C544 1.391 . S
C546 H536 0.950 . S
C546 C547 1.386 . S
C546 C548 1.391 . S
C547 C546 1.386 . S
C547 C551 1.393 . S
C548 H537 0.950 . S
C548 C546 1.391 . S
C548 C549 1.400 . S
C549 C543 1.491 . S
C549 C548 1.400 . S
C549 C550 1.398 . S
C550 H538 0.950 . S
C550 C549 1.398 . S
C550 C551 1.391 . S
C551 H539 0.950 . S
C551 C547 1.393 . S
C551 C550 1.391 . S
H552 C560 0.950 . S
H553 C565 0.950 . S
H554 C562 0.950 . S
H555 C564 0.950 . S
H556 C566 0.950 . S
H557 C568 0.950 . S
H558 C570 0.950 . S
H559 C571 0.950 . S
C560 H552 0.950 . S
C560 C561 1.386 . S
C560 C562 1.391 . S
C561 C560 1.386 . S
C561 C565 1.393 . S
C562 H554 0.950 . S
C562 C560 1.391 . S
C562 C563 1.400 . S
C563 C562 1.400 . S
C563 C564 1.398 . S
C563 C569 1.491 . S
C564 H555 0.950 . S
C564 C563 1.398 . S
C564 C565 1.391 . S
C565 H553 0.950 . S
C565 C561 1.393 . S
C565 C564 1.391 . S
C566 H556 0.950 . S
C566 C567 1.386 . S
C566 C568 1.391 . S
C567 C566 1.386 . S
C567 C571 1.393 . S
C568 H557 0.950 . S
C568 C566 1.391 . S
C568 C569 1.400 . S
C569 C563 1.491 . S
C569 C568 1.400 . S
C569 C570 1.398 . S
C570 H558 0.950 . S
C570 C569 1.398 . S
C570 C571 1.391 . S
C571 H559 0.950 . S
C571 C567 1.393 . S
C571 C570 1.391 . S
H572 C580 0.950 . S
H573 C585 0.950 . S
H574 C582 0.950 . S
H575 C584 0.950 . S
H576 C586 0.950 . S
H577 C588 0.950 . S
H578 C590 0.950 . S
H579 C591 0.950 . S
C580 H572 0.950 . S
C580 C581 1.386 . S
C580 C582 1.391 . S
C581 C580 1.386 . S
C581 C585 1.393 . S
C582 H574 0.950 . S
C582 C580 1.391 . S
C582 C583 1.400 . S
C583 C582 1.400 . S
C583 C584 1.398 . S
C583 C589 1.491 . S
C584 H575 0.950 . S
C584 C583 1.398 . S
C584 C585 1.391 . S
C585 H573 0.950 . S
C585 C581 1.393 . S
C585 C584 1.391 . S
C586 H576 0.950 . S
C586 C587 1.386 . S
C586 C588 1.391 . S
C587 C586 1.386 . S
C587 C591 1.393 . S
C588 H577 0.950 . S
C588 C586 1.391 . S
C588 C589 1.400 . S
C589 C583 1.491 . S
C589 C588 1.400 . S
C589 C590 1.398 . S
C590 H578 0.950 . S
C590 C589 1.398 . S
C590 C591 1.391 . S
C591 H579 0.950 . S
C591 C587 1.393 . S
C591 C590 1.391 . S
H592 C600 0.950 . S
H593 C605 0.950 . S
H594 C602 0.950 . S
H595 C604 0.950 . S
H596 C606 0.950 . S
H597 C608 0.950 . S
H598 C610 0.950 . S
H599 C611 0.950 . S
C600 H592 0.950 . S
C600 C601 1.386 . S
C600 C602 1.391 . S
C601 C600 1.386 . S
C601 C605 1.393 . S
C602 H594 0.950 . S
C602 C600 1.391 . S
C602 C603 1.400 . S
C603 C602 1.400 . S
C603 C604 1.398 . S
C603 C609 1.491 . S
C604 H595 0.950 . S
C604 C603 1.398 . S
C604 C605 1.391 . S
C605 H593 0.950 . S
C605 C601 1.393 . S
C605 C604 1.391 . S
C606 H596 0.950 . S
C606 C607 1.386 . S
C606 C608 1.391 . S
C607 C606 1.386 . S
C607 C611 1.393 . S
C608 H597 0.950 . S
C608 C606 1.391 . S
C608 C609 1.400 . S
C609 C603 1.491 . S
C609 C608 1.400 . S
C609 C610 1.398 . S
C610 H598 0.950 . S
C610 C609 1.398 . S
C610 C611 1.391 . S
C611 H599 0.950 . S
C611 C607 1.393 . S
C611 C610 1.391 . S
H612 C620 0.950 . S
H613 C625 0.950 . S
H614 C622 0.950 . S
H615 C624 0.950 . S
H616 C626 0.950 . S
H617 C628 0.950 . S
H618 C630 0.950 . S
H619 C631 0.950 . S
C620 H612 0.950 . S
C620 C621 1.386 . S
C620 C622 1.391 . S
C621 C620 1.386 . S
C621 C625 1.393 . S
C622 H614 0.950 . S
C622 C620 1.391 . S
C622 C623 1.400 . S
C623 C622 1.400 . S
C623 C624 1.398 . S
C623 C629 1.491 . S
C624 H615 0.950 . S
C624 C623 1.398 . S
C624 C625 1.391 . S
C625 H613 0.950 . S
C625 C621 1.393 . S
C625 C624 1.391 . S
C626 H616 0.950 . S
C626 C627 1.386 . S
C626 C628 1.391 . S
C627 C626 1.386 . S
C627 C631 1.393 . S
C628 H617 0.950 . S
C628 C626 1.391 . S
C628 C629 1.400 . S
C629 C623 1.491 . S
C629 C628 1.400 . S
C629 C630 1.398 . S
C630 H618 0.950 . S
C630 C629 1.398 . S
C630 C631 1.391 . S
C631 H619 0.950 . S
C631 C627 1.393 . S
C631 C630 1.391 . S
C161 C5 1.452 . S
C167 C91 1.420 . S
C181 C14 1.276 . S
C187 C94 1.223 . S
C207 C130 1.764 . S
C201 C25 1.792 . S
C221 C34 1.672 . S
C227 C150 1.633 . S
C247 C104 1.626 . S
C241 C7 1.651 . S
C267 C81 1.491 . S
C261 C13 1.507 . S
C287 C134 1.566 . S
C281 C23 1.665 . S
C307 C114 1.335 . S
C301 C31 1.424 . S
C321 C4 1.346 . S
C327 C144 1.303 . S
C347 C110 1.638 . S
C341 C22 1.655 . S
C361 C32 1.622 . S
C367 C76 1.565 . S
C381 C16 1.328 . S
C387 C124 1.297 . S
C407 C90 1.415 . S
C401 C41 1.444 . S
C421 C50 1.281 . S
C427 C96 1.240 . S
C441 C61 1.790 . S
C447 C131 1.759 . S
C461 C67 1.676 . S
C467 C151 1.646 . S
C481 C40 1.665 . S
C487 C101 1.639 . S
C507 C84 1.458 . S
C501 C52 1.487 . S
C527 C136 1.562 . S
C521 C59 1.671 . S
C547 C116 1.331 . S
C541 C70 1.417 . S
C561 C43 1.342 . S
C567 C141 1.301 . S
C587 C111 1.637 . S
C581 C58 1.665 . S
C607 C74 1.560 . S
C601 C68 1.608 . S
C621 C49 1.335 . S
C627 C121 1.315 . S
