# Generated by pormake.
# Topology nom, (4,4)-cn, num edge types: 1
# Building blocks:
#     Node 0, Type 0, BuildingBlock: GIZVER_clean_linker_0, # of connection points: 4
#     Node 1, Type 0, BuildingBlock: GIZVER_clean_linker_0, # of connection points: 4
#     Node 2, Type 0, BuildingBlock: GIZVER_clean_linker_0, # of connection points: 4
#     Node 3, Type 0, BuildingBlock: GIZVER_clean_linker_0, # of connection points: 4
#     Node 4, Type 0, BuildingBlock: GIZVER_clean_linker_0, # of connection points: 4
#     Node 5, Type 0, BuildingBlock: GIZVER_clean_linker_0, # of connection points: 4
#     Node 6, Type 1, BuildingBlock: CEKHIL_clean_sbu_0, # of connection points: 4
#     Node 7, Type 1, BuildingBlock: CEKHIL_clean_sbu_0, # of connection points: 4
#     Node 8, Type 1, BuildingBlock: CEKHIL_clean_sbu_0, # of connection points: 4
#     Node 9, Type 1, BuildingBlock: CEKHIL_clean_sbu_0, # of connection points: 4
#     Node 10, Type 1, BuildingBlock: CEKHIL_clean_sbu_0, # of connection points: 4
#     Node 11, Type 1, BuildingBlock: CEKHIL_clean_sbu_0, # of connection points: 4
#     Edge 12, Type (0, 1), BuildingBlock: KIFKEQ_clean_linker_1, # of connection points: 2
#     Edge 13, Type (0, 1), BuildingBlock: KIFKEQ_clean_linker_1, # of connection points: 2
#     Edge 14, Type (0, 1), BuildingBlock: KIFKEQ_clean_linker_1, # of connection points: 2
#     Edge 15, Type (0, 1), BuildingBlock: KIFKEQ_clean_linker_1, # of connection points: 2
#     Edge 16, Type (0, 1), BuildingBlock: KIFKEQ_clean_linker_1, # of connection points: 2
#     Edge 17, Type (0, 1), BuildingBlock: KIFKEQ_clean_linker_1, # of connection points: 2
#     Edge 18, Type (0, 1), BuildingBlock: KIFKEQ_clean_linker_1, # of connection points: 2
#     Edge 19, Type (0, 1), BuildingBlock: KIFKEQ_clean_linker_1, # of connection points: 2
#     Edge 20, Type (0, 1), BuildingBlock: KIFKEQ_clean_linker_1, # of connection points: 2
#     Edge 21, Type (0, 1), BuildingBlock: KIFKEQ_clean_linker_1, # of connection points: 2
#     Edge 22, Type (0, 1), BuildingBlock: KIFKEQ_clean_linker_1, # of connection points: 2
#     Edge 23, Type (0, 1), BuildingBlock: KIFKEQ_clean_linker_1, # of connection points: 2
#     Edge 24, Type (0, 1), BuildingBlock: KIFKEQ_clean_linker_1, # of connection points: 2
#     Edge 25, Type (0, 1), BuildingBlock: KIFKEQ_clean_linker_1, # of connection points: 2
#     Edge 26, Type (0, 1), BuildingBlock: KIFKEQ_clean_linker_1, # of connection points: 2
#     Edge 27, Type (0, 1), BuildingBlock: KIFKEQ_clean_linker_1, # of connection points: 2
#     Edge 28, Type (0, 1), BuildingBlock: KIFKEQ_clean_linker_1, # of connection points: 2
#     Edge 29, Type (0, 1), BuildingBlock: KIFKEQ_clean_linker_1, # of connection points: 2
#     Edge 30, Type (0, 1), BuildingBlock: KIFKEQ_clean_linker_1, # of connection points: 2
#     Edge 31, Type (0, 1), BuildingBlock: KIFKEQ_clean_linker_1, # of connection points: 2
#     Edge 32, Type (0, 1), BuildingBlock: KIFKEQ_clean_linker_1, # of connection points: 2
#     Edge 33, Type (0, 1), BuildingBlock: KIFKEQ_clean_linker_1, # of connection points: 2
#     Edge 34, Type (0, 1), BuildingBlock: KIFKEQ_clean_linker_1, # of connection points: 2
#     Edge 35, Type (0, 1), BuildingBlock: KIFKEQ_clean_linker_1, # of connection points: 2
# Relax obj value: 0.005
# Max RMSD: 0.071
# Mean RMSD: 0.052
data_MOF--net-nom--node1-CEKHIL_clean_sbu_0--node2-GIZVER_clean_linker_0--edge1-KIFKEQ_clean_linker_1
_symmetry_space_group_name_H-M    P1
_symmetry_Int_Tables_number       1
_symmetry_cell_setting            triclinic
loop_
_symmetry_equiv_pos_as_xyz
'x, y, z'
_cell_length_a     47.567111
_cell_length_b     47.123565
_cell_length_c     47.098219
_cell_angle_alpha  89.944216
_cell_angle_beta   90.035691
_cell_angle_gamma 121.13586
loop_
_atom_site_label
_atom_site_type_symbol
_atom_site_fract_x
_atom_site_fract_y
_atom_site_fract_z
_atom_type_partial_charge
H0 H 0.96633 0.55924 0.36194 0.0
H1 H 1.00806 0.57044 0.27823 0.0
H2 H 0.90775 0.49564 0.29352 0.0
H3 H 0.01821 0.60834 0.35082 0.0
H4 H 0.02977 0.61797 0.31462 0.0
H5 H 0.04081 0.5819 0.38029 0.0
H6 H 0.13189 0.5938 0.35122 0.0
H7 H 0.07061 0.60746 0.29296 0.0
C8 C 0.96414 0.55099 0.34016 0.0
C9 C 0.93378 0.52458 0.3303 0.0
C10 C 0.99144 0.56738 0.32159 0.0
C11 C 0.98783 0.55732 0.29297 0.0
C12 C 0.9577 0.53109 0.28319 0.0
C13 C 0.93122 0.51494 0.30185 0.0
C14 C 0.02269 0.59841 0.33103 0.0
C15 C 0.05135 0.59327 0.33569 0.0
C16 C 0.05765 0.58586 0.36314 0.0
C17 C 0.08671 0.58591 0.36892 0.0
C18 C 0.10864 0.59191 0.34665 0.0
C19 C 0.10318 0.59961 0.31927 0.0
C20 C 0.07439 0.60023 0.3138 0.0
H21 H 0.43006 0.95957 0.52091 0.0
H22 H 0.45383 0.98994 0.43349 0.0
H23 H 0.43842 0.89594 0.46098 0.0
H24 H 0.42322 1.00376 0.50178 0.0
H25 H 0.4292 0.0136 0.46495 0.0
H26 H 0.47321 0.02627 0.53445 0.0
H27 H 0.55079 0.12388 0.51138 0.0
H28 H 0.47792 0.06308 0.44949 0.0
C29 C 0.43624 0.95547 0.49977 0.0
C30 C 0.43503 0.92564 0.49365 0.0
C31 C 0.44381 0.97927 0.47824 0.0
C32 C 0.44962 0.97253 0.45039 0.0
C33 C 0.44797 0.94253 0.444 0.0
C34 C 0.44153 0.91987 0.46596 0.0
C35 C 0.44044 0.00906 0.48382 0.0
C36 C 0.47283 0.04023 0.49068 0.0
C37 C 0.48576 0.04525 0.5184 0.0
C38 C 0.51414 0.07532 0.52568 0.0
C39 C 0.52973 0.10019 0.5052 0.0
C40 C 0.51686 0.09628 0.47779 0.0
C41 C 0.48844 0.06607 0.47049 0.0
H42 H 0.40875 0.4508 0.6191 0.0
H43 H 0.452 0.45329 0.70054 0.0
H44 H 0.4175 0.51954 0.68326 0.0
H45 H 0.41794 0.40706 0.63135 0.0
H46 H 0.4211 0.40082 0.66809 0.0
H47 H 0.46963 0.44029 0.60218 0.0
H48 H 0.54609 0.42261 0.6276 0.0
H49 H 0.4702 0.40504 0.6866 0.0
C50 C 0.41788 0.46224 0.63965 0.0
C51 C 0.41192 0.48708 0.64887 0.0
C52 C 0.43309 0.45023 0.65802 0.0
C53 C 0.4423 0.46363 0.68562 0.0
C54 C 0.43672 0.4887 0.69452 0.0
C55 C 0.4225 0.50074 0.67587 0.0
C56 C 0.43323 0.41898 0.65053 0.0
C57 C 0.46718 0.42428 0.64557 0.0
C58 C 0.48173 0.43419 0.6185 0.0
C59 C 0.51033 0.4337 0.6118 0.0
C60 C 0.52508 0.42474 0.63294 0.0
C61 C 0.51098 0.41444 0.65989 0.0
C62 C 0.48197 0.41427 0.6662 0.0
H63 H 0.96787 0.41943 0.79269 0.0
H64 H 1.0 0.44336 0.87957 0.0
H65 H 0.90969 0.43499 0.8533 0.0
H66 H 1.00796 0.4069 0.81302 0.0
H67 H 0.02062 0.41637 0.84898 0.0
H68 H 0.03309 0.4514 0.77557 0.0
H69 H 0.13399 0.52403 0.79175 0.0
H70 H 0.07131 0.46719 0.86116 0.0
C71 C 0.96502 0.42698 0.81369 0.0
C72 C 0.93657 0.42795 0.82013 0.0
C73 C 0.98873 0.4336 0.83487 0.0
C74 C 0.98324 0.4406 0.86271 0.0
C75 C 0.95484 0.44138 0.86932 0.0
C76 C 0.93244 0.43623 0.84775 0.0
C77 C 0.01602 0.42661 0.8294 0.0
C78 C 0.04801 0.45666 0.8197 0.0
C79 C 0.05291 0.46497 0.79059 0.0
C80 C 0.08407 0.48911 0.78068 0.0
C81 C 0.10988 0.50592 0.7999 0.0
C82 C 0.10574 0.49875 0.82897 0.0
C83 C 0.07462 0.47383 0.83886 0.0
H84 H 0.62102 0.07037 0.01826 0.0
H85 H 0.5809 0.02892 0.93598 0.0
H86 H 0.6062 0.1282 0.95655 0.0
H87 H 0.6184 0.02051 0.00363 0.0
H88 H 0.61273 0.01016 0.96696 0.0
H89 H 0.56903 0.99732 0.03633 0.0
H90 H 0.49076 0.90035 0.01263 0.0
H91 H 0.56309 0.96199 0.95067 0.0
C92 C 0.61124 0.07198 -0.00207 0.0
C93 C 0.6143 0.10211 0.98968 0.0
C94 C 0.59847 0.04498 0.9788 0.0
C95 C 0.58866 0.04865 0.9514 0.0
C96 C 0.59103 0.07859 0.94331 0.0
C97 C 0.60282 0.10451 0.963 0.0
C98 C 0.60137 0.0151 0.98547 0.0
C99 C 0.56878 0.98411 0.99224 0.0
C100 C 0.55617 0.97867 0.0201 0.0
C101 C 0.52778 0.94854 0.02728 0.0
C102 C 0.51182 0.9241 0.00655 0.0
C103 C 0.52436 0.92846 0.97898 0.0
C104 C 0.55279 0.9587 0.97178 0.0
H105 H 0.62618 0.57105 0.11515 0.0
H106 H 0.58951 0.56939 0.19945 0.0
H107 H 0.61091 0.49501 0.17436 0.0
H108 H 0.62311 0.61769 0.13116 0.0
H109 H 0.62051 0.6224 0.16831 0.0
H110 H 0.57415 0.59621 0.10067 0.0
H111 H 0.49385 0.60291 0.13442 0.0
H112 H 0.57031 0.61406 0.19 0.0
C113 C 0.61744 0.55912 0.1356 0.0
C114 C 0.61897 0.53076 0.14212 0.0
C115 C 0.60571 0.57271 0.15592 0.0
C116 C 0.59672 0.55818 0.18315 0.0
C117 C 0.59827 0.52991 0.18963 0.0
C118 C 0.60863 0.51612 0.16888 0.0
C119 C 0.60766 0.6054 0.15019 0.0
C120 C 0.57439 0.60218 0.14623 0.0
C121 C 0.56102 0.59807 0.11867 0.0
C122 C 0.53258 0.59965 0.11412 0.0
C123 C 0.51612 0.60233 0.13768 0.0
C124 C 0.52985 0.60854 0.16486 0.0
C125 C 0.55898 0.60825 0.16918 0.0
Co126 Co 0.64252 0.38502 0.39717 0.0
O127 O 0.67764 0.38815 0.37416 0.0
O128 O 0.68371 0.42538 0.40602 0.0
C129 C 0.62155 0.3309 0.40894 0.0
O130 O 0.61349 0.3901 0.42623 0.0
Co131 Co 0.56865 0.3359 0.38454 0.0
O132 O 0.56136 0.34768 0.42303 0.0
C133 C 0.60474 0.39992 0.35329 0.0
C134 C 0.69715 0.41543 0.38765 0.0
C135 C 0.58365 0.37375 0.43532 0.0
O136 O 0.63128 0.40889 0.36749 0.0
O137 O 0.5785 0.37148 0.35608 0.0
O138 O 0.64651 0.3543 0.42265 0.0
O139 O 0.61133 0.34065 0.38785 0.0
Co140 Co 0.27794 0.63913 0.57784 0.0
O141 O 0.30784 0.63368 0.60183 0.0
O142 O 0.27781 0.5992 0.56757 0.0
C143 C 0.31291 0.69371 0.5682 0.0
O144 O 0.24515 0.63612 0.54824 0.0
Co145 Co 0.25421 0.68776 0.59244 0.0
O146 O 0.2345 0.67699 0.55396 0.0
C147 C 0.22478 0.62282 0.62187 0.0
C148 C 0.29958 0.60696 0.58744 0.0
C149 C 0.23121 0.6521 0.54036 0.0
O150 O 0.24087 0.61389 0.60588 0.0
O151 O 0.22878 0.65186 0.62109 0.0
O152 O 0.31465 0.67098 0.55407 0.0
O153 O 0.29201 0.68298 0.58878 0.0
Co154 Co 0.65248 0.26985 0.73277 0.0
O155 O 0.64947 0.30122 0.70834 0.0
O156 O 0.61278 0.27048 0.74086 0.0
C157 C 0.70619 0.30446 0.74452 0.0
O158 O 0.64675 0.23577 0.76268 0.0
Co159 Co 0.70075 0.24503 0.72197 0.0
O160 O 0.68724 0.22463 0.76007 0.0
C161 C 0.63745 0.21496 0.69046 0.0
C162 C 0.62237 0.29331 0.72148 0.0
C163 C 0.66163 0.22123 0.77195 0.0
O164 O 0.6287 0.23302 0.7039 0.0
O165 O 0.6655 0.21769 0.69368 0.0
O166 O 0.68313 0.30627 0.75764 0.0
O167 O 0.69637 0.28347 0.72391 0.0
Co168 Co 0.39581 0.64016 0.8979 0.0
O169 O 0.36015 0.63752 0.87605 0.0
O170 O 0.3546 0.60015 0.90759 0.0
C171 C 0.41823 0.69434 0.90986 0.0
O172 O 0.42569 0.63488 0.9258 0.0
Co173 Co 0.46898 0.68781 0.88169 0.0
O174 O 0.47891 0.67215 0.91724 0.0
C175 C 0.42925 0.62543 0.84985 0.0
C176 C 0.34083 0.61031 0.88973 0.0
C177 C 0.45646 0.64832 0.93167 0.0
O178 O 0.40527 0.61568 0.86755 0.0
O179 O 0.45501 0.65445 0.85041 0.0
O180 O 0.39344 0.67124 0.92398 0.0
O181 O 0.42713 0.68428 0.88809 0.0
Co182 Co 0.76424 0.38812 0.07837 0.0
O183 O 0.7331 0.39239 0.10151 0.0
O184 O 0.76407 0.42806 0.06832 0.0
C185 C 0.73007 0.33371 0.06766 0.0
O186 O 0.79804 0.39195 0.04937 0.0
Co187 Co 0.78765 0.33925 0.09387 0.0
O188 O 0.81159 0.3534 0.05737 0.0
C189 C 0.81844 0.40519 0.12166 0.0
C190 C 0.74124 0.41925 0.08737 0.0
C191 C 0.81401 0.37752 0.04306 0.0
O192 O 0.80052 0.41325 0.10724 0.0
O193 O 0.81548 0.37663 0.12032 0.0
O194 O 0.72863 0.35665 0.05355 0.0
O195 O 0.75003 0.34404 0.08891 0.0
Co196 Co 0.3866 0.75054 0.23277 0.0
O197 O 0.39053 0.7192 0.20905 0.0
O198 O 0.42581 0.74971 0.24252 0.0
C199 C 0.33243 0.71615 0.24304 0.0
O200 O 0.39121 0.78433 0.26241 0.0
Co201 Co 0.33904 0.77588 0.22018 0.0
O202 O 0.35055 0.7951 0.25881 0.0
C203 C 0.4036 0.80617 0.19061 0.0
C204 C 0.41696 0.72689 0.22328 0.0
C205 C 0.3758 0.79841 0.27135 0.0
O206 O 0.41167 0.78766 0.20427 0.0
O207 O 0.37558 0.80365 0.19307 0.0
O208 O 0.35485 0.71399 0.25698 0.0
O209 O 0.34314 0.73728 0.22249 0.0
H210 H 0.13636 0.56941 0.30304 0.0
H211 H 0.13355 0.6586 0.29073 0.0
H212 H 0.19068 0.59591 0.28117 0.0
H213 H 0.18809 0.68542 0.2691 0.0
H214 H 0.28219 0.7194 0.21835 0.0
H215 H 0.22404 0.68837 0.23087 0.0
H216 H 0.2445 0.63893 0.29787 0.0
H217 H 0.30261 0.66966 0.28506 0.0
C218 C 0.14702 0.59441 0.29488 0.0
C219 C 0.13073 0.61195 0.29861 0.0
C220 C 0.17833 0.60976 0.2827 0.0
C221 C 0.19415 0.64307 0.27396 0.0
C222 C 0.17668 0.65973 0.27555 0.0
C223 C 0.14527 0.6443 0.28775 0.0
C224 C 0.27427 0.70184 0.23573 0.0
C225 C 0.29708 0.69707 0.25078 0.0
C226 C 0.2409 0.68411 0.24294 0.0
C227 C 0.22945 0.66101 0.2653 0.0
C228 C 0.25229 0.65609 0.2802 0.0
C229 C 0.2857 0.67391 0.27304 0.0
H230 H 0.58131 0.13693 0.46377 0.0
H231 H 0.48538 0.1236 0.45113 0.0
H232 H 0.60681 0.19291 0.44434 0.0
H233 H 0.51079 0.17981 0.43196 0.0
H234 H 0.63914 0.30298 0.45104 0.0
H235 H 0.61372 0.24426 0.46271 0.0
H236 H 0.54343 0.21949 0.39502 0.0
H237 H 0.56853 0.27825 0.3837 0.0
C238 C 0.56566 0.14575 0.45616 0.0
C239 C 0.53136 0.12593 0.45902 0.0
C240 C 0.58026 0.17796 0.44536 0.0
C241 C 0.56091 0.1912 0.43718 0.0
C242 C 0.52647 0.17044 0.43801 0.0
C243 C 0.51184 0.13811 0.44881 0.0
C244 C 0.61824 0.28501 0.43869 0.0
C245 C 0.60583 0.29532 0.41651 0.0
C246 C 0.60382 0.25128 0.44518 0.0
C247 C 0.57663 0.22703 0.42965 0.0
C248 C 0.56416 0.23744 0.40754 0.0
C249 C 0.57863 0.27115 0.40101 0.0
H250 H 0.35395 0.47791 0.66646 0.0
H251 H 0.42294 0.51875 0.59714 0.0
H252 H 0.32567 0.50519 0.64866 0.0
H253 H 0.39383 0.54574 0.57876 0.0
H254 H 0.3021 0.56149 0.55272 0.0
H255 H 0.3277 0.52864 0.56298 0.0
H256 H 0.35604 0.57366 0.64582 0.0
H257 H 0.33142 0.60696 0.63548 0.0
C258 C 0.3624 0.49191 0.64685 0.0
C259 C 0.39066 0.49629 0.63319 0.0
C260 C 0.34632 0.50765 0.63679 0.0
C261 C 0.35779 0.52781 0.61256 0.0
C262 C 0.38451 0.53022 0.59749 0.0
C263 C 0.401 0.51467 0.60785 0.0
C264 C 0.31386 0.56437 0.57309 0.0
C265 C 0.31461 0.58671 0.59336 0.0
C266 C 0.32864 0.54574 0.57884 0.0
C267 C 0.34373 0.54862 0.60518 0.0
C268 C 0.34444 0.57092 0.62537 0.0
C269 C 0.33036 0.58997 0.61944 0.0
H270 H 0.9074 0.36944 0.79099 0.0
H271 H 0.8999 0.45548 0.80653 0.0
H272 H 0.85257 0.341 0.77007 0.0
H273 H 0.84518 0.42731 0.7853 0.0
H274 H 0.73412 0.35013 0.78737 0.0
H275 H 0.79204 0.38256 0.80064 0.0
H276 H 0.81588 0.33693 0.73277 0.0
H277 H 0.75794 0.30409 0.71993 0.0
C278 C 0.89454 0.38274 0.78895 0.0
C279 C 0.90797 0.41468 0.80048 0.0
C280 C 0.86294 0.36636 0.77712 0.0
C281 C 0.84408 0.38158 0.7765 0.0
C282 C 0.8586 0.41449 0.78609 0.0
C283 C 0.89013 0.43081 0.79793 0.0
C284 C 0.75173 0.34705 0.77529 0.0
C285 C 0.74136 0.32441 0.75269 0.0
C286 C 0.78503 0.36587 0.78271 0.0
C287 C 0.8088 0.36254 0.76769 0.0
C288 C 0.79833 0.33997 0.74499 0.0
C289 C 0.76506 0.32118 0.73758 0.0
H290 H 0.55553 0.9015 0.95135 0.0
H291 H 0.4598 0.88819 0.9652 0.0
H292 H 0.52986 0.84546 0.93182 0.0
H293 H 0.43404 0.83238 0.94544 0.0
H294 H 0.47081 0.74675 0.88376 0.0
H295 H 0.49631 0.80564 0.89493 0.0
H296 H 0.42786 0.78127 0.96407 0.0
H297 H 0.40211 0.72253 0.95262 0.0
C298 C 0.52905 0.88705 0.94921 0.0
C299 C 0.50966 0.89914 0.95989 0.0
C300 C 0.51428 0.85482 0.9382 0.0
C301 C 0.47983 0.83411 0.93766 0.0
C302 C 0.4606 0.84732 0.94623 0.0
C303 C 0.47533 0.87942 0.95722 0.0
C304 C 0.46123 0.75399 0.90137 0.0
C305 C 0.43443 0.72996 0.91733 0.0
C306 C 0.4759 0.78776 0.90779 0.0
C307 C 0.464 0.79828 0.93024 0.0
C308 C 0.43727 0.77414 0.94627 0.0
C309 C 0.42269 0.74041 0.9399 0.0
H310 H 0.682 0.56326 0.12213 0.0
H311 H 0.59211 0.46803 0.12185 0.0
H312 H 0.71212 0.53726 0.10515 0.0
H313 H 0.62182 0.44206 0.10452 0.0
H314 H 0.69005 0.40291 0.1231 0.0
H315 H 0.65995 0.4312 0.12985 0.0
H316 H 0.72233 0.50543 0.06849 0.0
H317 H 0.75289 0.477 0.06184 0.0
C318 C 0.66847 0.53702 0.11724 0.0
C319 C 0.63473 0.51766 0.12327 0.0
C320 C 0.68574 0.52204 0.10771 0.0
C321 C 0.66953 0.48741 0.10411 0.0
C322 C 0.63524 0.46864 0.10773 0.0
C323 C 0.61809 0.48356 0.11727 0.0
C324 C 0.69747 0.42528 0.11102 0.0
C325 C 0.72394 0.43765 0.09193 0.0
C326 C 0.67995 0.44137 0.11468 0.0
C327 C 0.68836 0.47041 0.09942 0.0
C328 C 0.71517 0.48315 0.08059 0.0
C329 C 0.73267 0.46684 0.07677 0.0
H330 H 0.46284 0.88982 0.5089 0.0
H331 H 0.37708 0.89693 0.52271 0.0
H332 H 0.43502 0.83489 0.5307 0.0
H333 H 0.34887 0.84172 0.54415 0.0
H334 H 0.31181 0.74524 0.59369 0.0
H335 H 0.34438 0.8041 0.58173 0.0
H336 H 0.39101 0.78175 0.5139 0.0
H337 H 0.35886 0.72306 0.52619 0.0
C338 C 0.43833 0.87995 0.51737 0.0
C339 C 0.4221 0.89762 0.5141 0.0
C340 C 0.42221 0.84831 0.5295 0.0
C341 C 0.38941 0.8335 0.53859 0.0
C342 C 0.37413 0.85233 0.53744 0.0
C343 C 0.39035 0.8841 0.52533 0.0
C344 C 0.3291 0.75292 0.57627 0.0
C345 C 0.33271 0.72944 0.56085 0.0
C346 C 0.34771 0.78668 0.56938 0.0
C347 C 0.3705 0.7978 0.54696 0.0
C348 C 0.37417 0.77423 0.53165 0.0
C349 C 0.35552 0.74049 0.53851 0.0
H350 H 0.57393 0.44237 0.67868 0.0
H351 H 0.47959 0.35172 0.68194 0.0
H352 H 0.60011 0.41332 0.6973 0.0
H353 H 0.50577 0.32225 0.70013 0.0
H354 H 0.5651 0.28274 0.74572 0.0
H355 H 0.53718 0.31342 0.73698 0.0
H356 H 0.61121 0.37392 0.67504 0.0
H357 H 0.63912 0.34375 0.68399 0.0
C358 C 0.55869 0.41638 0.6842 0.0
C359 C 0.52473 0.39933 0.67889 0.0
C360 C 0.57371 0.39959 0.69448 0.0
C361 C 0.5552 0.36521 0.69956 0.0
C362 C 0.52082 0.3487 0.69648 0.0
C363 C 0.50573 0.36561 0.68624 0.0
C364 C 0.57534 0.30258 0.73021 0.0
C365 C 0.60437 0.31076 0.71555 0.0
C366 C 0.55931 0.32014 0.72519 0.0
C367 C 0.57209 0.34646 0.70554 0.0
C368 C 0.60099 0.35435 0.69079 0.0
C369 C 0.61687 0.33677 0.69571 0.0
H370 H 0.1283 0.47198 0.86854 0.0
H371 H 0.15119 0.56463 0.83015 0.0
H372 H 0.18339 0.49894 0.8892 0.0
H373 H 0.20642 0.5908 0.84818 0.0
H374 H 0.3046 0.63931 0.88671 0.0
H375 H 0.24565 0.61319 0.88091 0.0
H376 H 0.2368 0.51703 0.87767 0.0
H377 H 0.29579 0.54362 0.88636 0.0
C378 C 0.14487 0.49826 0.865 0.0
C379 C 0.13546 0.51605 0.84744 0.0
C380 C 0.17683 0.51368 0.87633 0.0
C381 C 0.20022 0.54715 0.87004 0.0
C382 C 0.18966 0.56525 0.85406 0.0
C383 C 0.15776 0.55009 0.84336 0.0
C384 C 0.2899 0.61254 0.88495 0.0
C385 C 0.30474 0.5935 0.88658 0.0
C386 C 0.25594 0.5974 0.88137 0.0
C387 C 0.23586 0.56274 0.87807 0.0
C388 C 0.2509 0.54365 0.88041 0.0
C389 C 0.28488 0.55886 0.88507 0.0
H390 H 0.60467 0.11758 0.04399 0.0
H391 H 0.6686 0.1573 0.97121 0.0
H392 H 0.6327 0.17336 0.06557 0.0
H393 H 0.69588 0.21241 0.99225 0.0
H394 H 0.69873 0.30782 0.01735 0.0
H395 H 0.67159 0.25012 0.00178 0.0
H396 H 0.69318 0.22203 0.0824 0.0
H397 H 0.72089 0.28003 0.09796 0.0
C398 C 0.6251 0.13802 0.03298 0.0
C399 C 0.6343 0.13331 0.00587 0.0
C400 C 0.64098 0.16985 0.04518 0.0
C401 C 0.66597 0.19723 0.03024 0.0
C402 C 0.67628 0.19191 0.00396 0.0
C403 C 0.6608 0.16035 0.99202 0.0
C404 C 0.69758 0.28937 0.03182 0.0
C405 C 0.71214 0.2985 0.05878 0.0
C406 C 0.68212 0.25636 0.0229 0.0
C407 C 0.68045 0.23167 0.04087 0.0
C408 C 0.69404 0.24055 0.0682 0.0
C409 C 0.71002 0.27373 0.07698 0.0
H410 H 0.56086 0.66977 0.18902 0.0
H411 H 0.46751 0.57806 0.18585 0.0
H412 H 0.53386 0.69822 0.20738 0.0
H413 H 0.44043 0.60615 0.20465 0.0
H414 H 0.40091 0.67524 0.18736 0.0
H415 H 0.42898 0.64479 0.18084 0.0
H416 H 0.50153 0.70705 0.24312 0.0
H417 H 0.47345 0.73792 0.24943 0.0
C418 C 0.53481 0.65535 0.19364 0.0
C419 C 0.5163 0.62168 0.18606 0.0
C420 C 0.51922 0.67171 0.20391 0.0
C421 C 0.4848 0.65469 0.20678 0.0
C422 C 0.46685 0.62025 0.20198 0.0
C423 C 0.4824 0.60396 0.1917 0.0
C424 C 0.42285 0.68253 0.19967 0.0
C425 C 0.43494 0.70913 0.21884 0.0
C426 C 0.4388 0.66477 0.19618 0.0
C427 C 0.46737 0.67312 0.21172 0.0
C428 C 0.47965 0.69994 0.23077 0.0
C429 C 0.46354 0.71764 0.23437 0.0
H430 H 0.88818 0.45868 0.33345 0.0
H431 H 0.90969 0.55326 0.36629 0.0
H432 H 0.83248 0.43335 0.34998 0.0
H433 H 0.85416 0.5272 0.38574 0.0
H434 H 0.74197 0.48189 0.38171 0.0
H435 H 0.801 0.50821 0.37346 0.0
H436 H 0.79239 0.41244 0.38168 0.0
H437 H 0.73342 0.38648 0.38687 0.0
C438 C 0.88118 0.47392 0.34506 0.0
C439 C 0.90329 0.50818 0.34795 0.0
C440 C 0.84899 0.45923 0.35497 0.0
C441 C 0.83793 0.47804 0.36907 0.0
C442 C 0.86107 0.51186 0.37426 0.0
C443 C 0.89329 0.5268 0.36364 0.0
C444 C 0.75295 0.46668 0.38151 0.0
C445 C 0.73318 0.43215 0.38427 0.0
C446 C 0.78696 0.48175 0.37714 0.0
C447 C 0.80212 0.46268 0.37641 0.0
C448 C 0.78206 0.42818 0.38085 0.0
C449 C 0.74808 0.41313 0.3841 0.0
H450 H 0.11732 0.55417 0.38904 0.0
H451 H 0.08269 0.61859 0.41532 0.0
H452 H 0.15045 0.56807 0.43177 0.0
H453 H 0.11398 0.63072 0.45916 0.0
H454 H 0.21007 0.68581 0.50831 0.0
H455 H 0.16981 0.66444 0.47023 0.0
H456 H 0.15786 0.56759 0.48063 0.0
H457 H 0.1994 0.58956 0.51788 0.0
C458 C 0.11597 0.57051 0.40443 0.0
C459 C 0.09787 0.58579 0.39845 0.0
C460 C 0.1349 0.57838 0.4291 0.0
C461 C 0.13572 0.6013 0.44871 0.0
C462 C 0.11488 0.61385 0.44411 0.0
C463 C 0.0963 0.60633 0.4192 0.0
C464 C 0.19898 0.66 0.50235 0.0
C465 C 0.20813 0.63948 0.51602 0.0
C466 C 0.17549 0.64755 0.48072 0.0
C467 C 0.16007 0.61407 0.47245 0.0
C468 C 0.16935 0.59356 0.48613 0.0
C469 C 0.19325 0.60617 0.5075 0.0
H470 H 0.57397 0.09101 0.54512 0.0
H471 H 0.48256 0.08118 0.57143 0.0
H472 H 0.59996 0.12048 0.58881 0.0
H473 H 0.50841 0.11053 0.61574 0.0
H474 H 0.58418 0.21017 0.66249 0.0
H475 H 0.54969 0.16886 0.62677 0.0
H476 H 0.60306 0.1185 0.63955 0.0
H477 H 0.63776 0.15986 0.6743 0.0
C478 C 0.55916 0.09406 0.56089 0.0
C479 C 0.52628 0.08359 0.55516 0.0
C480 C 0.574 0.11105 0.58592 0.0
C481 C 0.55633 0.11814 0.60573 0.0
C482 C 0.52277 0.10579 0.60076 0.0
C483 C 0.50783 0.08853 0.57569 0.0
C484 C 0.58827 0.19009 0.65779 0.0
C485 C 0.61418 0.18876 0.67075 0.0
C486 C 0.56838 0.16627 0.63751 0.0
C487 C 0.57388 0.14056 0.63007 0.0
C488 C 0.5986 0.13833 0.64429 0.0
C489 C 0.61854 0.16215 0.66422 0.0
H490 H 0.49076 0.53983 0.7195 0.0
H491 H 0.38969 0.46476 0.73463 0.0
H492 H 0.48998 0.5704 0.76111 0.0
H493 H 0.388 0.49573 0.77528 0.0
H494 H 0.39714 0.55748 0.85319 0.0
H495 H 0.40278 0.51998 0.82099 0.0
H496 H 0.46621 0.60312 0.76695 0.0
H497 H 0.46152 0.64028 0.79945 0.0
C498 C 0.46883 0.52925 0.7325 0.0
C499 C 0.44045 0.49984 0.72424 0.0
C500 C 0.46804 0.54704 0.75596 0.0
C501 C 0.43861 0.53607 0.77114 0.0
C502 C 0.41113 0.505 0.76429 0.0
C503 C 0.4121 0.48706 0.74108 0.0
C504 C 0.41202 0.56757 0.83427 0.0
C505 C 0.4289 0.60184 0.82888 0.0
C506 C 0.41543 0.54613 0.81587 0.0
C507 C 0.43551 0.55851 0.79157 0.0
C508 C 0.45147 0.5927 0.78589 0.0
C509 C 0.44838 0.61404 0.80435 0.0
H510 H 0.94826 0.39792 0.91018 0.0
H511 H 0.93499 0.48041 0.89449 0.0
H512 H 0.91656 0.38521 0.95362 0.0
H513 H 0.90453 0.46901 0.93896 0.0
H514 H 0.86943 0.37478 0.03774 0.0
H515 H 0.90956 0.3965 -0.00032 0.0
H516 H 0.85237 0.43068 0.95612 0.0
H517 H 0.81322 0.41057 0.99534 0.0
C518 C 0.93975 0.41425 0.91675 0.0
C519 C 0.94421 0.44023 0.89908 0.0
C520 C 0.92138 0.40693 0.94171 0.0
C521 C 0.90741 0.42577 0.94984 0.0
C522 C 0.91406 0.45336 0.93311 0.0
C523 C 0.932 0.46031 0.90787 0.0
C524 C 0.86543 0.38695 0.02002 0.0
C525 C 0.83793 0.39062 0.01938 0.0
C526 C 0.88847 0.39938 -0.00193 0.0
C527 C 0.88432 0.41522 0.97449 0.0
C528 C 0.85689 0.4192 0.97405 0.0
C529 C 0.83415 0.40735 -0.0036 0.0
H530 H 0.46874 0.9339 0.04791 0.0
H531 H 0.55924 0.94017 0.07187 0.0
H532 H 0.4429 0.90364 0.09138 0.0
H533 H 0.53354 0.90994 0.11594 0.0
H534 H 0.45603 0.80992 0.16188 0.0
H535 H 0.49106 0.8517 0.12657 0.0
H536 H 0.44095 0.9048 0.14228 0.0
H537 H 0.40574 0.86303 0.17659 0.0
C538 C 0.48342 0.9299 0.06315 0.0
C539 C 0.516 0.93968 0.05683 0.0
C540 C 0.46866 0.91243 0.08804 0.0
C541 C 0.48609 0.90411 0.10711 0.0
C542 C 0.51937 0.91565 0.10155 0.0
C543 C 0.53424 0.93341 0.07662 0.0
C544 C 0.45283 0.83073 0.15794 0.0
C545 C 0.42762 0.83273 0.17152 0.0
C546 C 0.47301 0.8548 0.13787 0.0
C547 C 0.46849 0.88139 0.13132 0.0
C548 C 0.44461 0.88429 0.14629 0.0
C549 C 0.42438 0.86025 0.16598 0.0
H550 H 0.55262 0.4678 0.2061 0.0
H551 H 0.63402 0.55976 0.23722 0.0
H552 H 0.55379 0.43959 0.24898 0.0
H553 H 0.63516 0.53167 0.28075 0.0
H554 H 0.65574 0.45545 0.32755 0.0
H555 H 0.65133 0.49082 0.29178 0.0
H556 H 0.54562 0.43341 0.29928 0.0
H557 H 0.5499 0.39791 0.33404 0.0
C558 C 0.56992 0.48218 0.22274 0.0
C559 C 0.59292 0.51595 0.2186 0.0
C560 C 0.57075 0.46607 0.24731 0.0
C561 C 0.59478 0.4833 0.26829 0.0
C562 C 0.61662 0.51761 0.26486 0.0
C563 C 0.61562 0.53382 0.24023 0.0
C564 C 0.63163 0.45061 0.32164 0.0
C565 C 0.6032 0.42341 0.33322 0.0
C566 C 0.62907 0.471 0.30132 0.0
C567 C 0.59805 0.46472 0.29241 0.0
C568 C 0.56984 0.43854 0.30513 0.0
C569 C 0.57236 0.41813 0.32511 0.0
H570 H 0.4156 0.94846 0.39842 0.0
H571 H 0.47728 0.91014 0.42261 0.0
H572 H 0.40205 0.91739 0.35417 0.0
H573 H 0.46209 0.87734 0.37942 0.0
H574 H 0.43834 0.82926 0.29272 0.0
H575 H 0.46172 0.87078 0.33023 0.0
H576 H 0.36712 0.86116 0.34282 0.0
H577 H 0.3443 0.82088 0.30457 0.0
C578 C 0.42696 0.93408 0.39399 0.0
C579 C 0.44715 0.93141 0.41426 0.0
C580 C 0.41864 0.91566 0.36884 0.0
C581 C 0.43007 0.89391 0.36351 0.0
C582 C 0.45264 0.89363 0.38266 0.0
C583 C 0.46126 0.91236 0.40758 0.0
C584 C 0.42252 0.83593 0.30361 0.0
C585 C 0.3894 0.82166 0.29568 0.0
C586 C 0.43595 0.85982 0.32514 0.0
C587 C 0.41648 0.86972 0.33954 0.0
C588 C 0.38321 0.85498 0.33179 0.0
C589 C 0.36994 0.83147 0.31005 0.0
H590 H 0.47299 0.40661 0.56408 0.0
H591 H 0.57374 0.46504 0.59215 0.0
H592 H 0.49137 0.3971 0.51883 0.0
H593 H 0.59204 0.45374 0.54767 0.0
H594 H 0.61753 0.43587 0.45914 0.0
H595 H 0.59987 0.45741 0.49794 0.0
H596 H 0.5107 0.36175 0.50624 0.0
H597 H 0.52775 0.34078 0.46705 0.0
C598 C 0.49913 0.41821 0.56035 0.0
C599 C 0.52184 0.43613 0.58197 0.0
C600 C 0.50968 0.41219 0.53455 0.0
C601 C 0.54314 0.42366 0.52987 0.0
C602 C 0.56608 0.4443 0.55044 0.0
C603 C 0.55555 0.45065 0.57608 0.0
C604 C 0.59418 0.41947 0.46931 0.0
C605 C 0.57408 0.38658 0.45995 0.0
C606 C 0.58401 0.43183 0.49157 0.0
C607 C 0.55362 0.41151 0.50513 0.0
C608 C 0.5338 0.37852 0.49588 0.0
C609 C 0.54379 0.3663 0.47354 0.0
H610 H 0.06694 0.52341 0.74519 0.0
H611 H 0.12122 0.47334 0.74902 0.0
H612 H 0.09574 0.5512 0.70134 0.0
H613 H 0.15088 0.50169 0.70606 0.0
H614 H 0.19913 0.55539 0.6248 0.0
H615 H 0.15639 0.51576 0.65691 0.0
H616 H 0.1509 0.5958 0.69581 0.0
H617 H 0.19251 0.63486 0.66355 0.0
C618 C 0.08408 0.51739 0.73595 0.0
C619 C 0.09187 0.49626 0.75024 0.0
C620 C 0.10102 0.53367 0.71116 0.0
C621 C 0.12627 0.52934 0.70051 0.0
C622 C 0.1316 0.50562 0.71344 0.0
C623 C 0.11456 0.48926 0.73806 0.0
C624 C 0.18871 0.56445 0.64019 0.0
C625 C 0.19945 0.59839 0.64162 0.0
C626 C 0.16413 0.54172 0.65855 0.0
C627 C 0.14986 0.55245 0.67883 0.0
C628 C 0.16056 0.58636 0.68004 0.0
C629 C 0.18488 0.60895 0.66169 0.0
H630 H 0.61779 0.06772 0.89634 0.0
H631 H 0.55983 0.10941 0.92275 0.0
H632 H 0.62999 0.09788 0.85161 0.0
H633 H 0.57351 0.1411 0.87891 0.0
H634 H 0.59881 0.19151 0.7929 0.0
H635 H 0.57389 0.1488 0.8295 0.0
H636 H 0.66676 0.15447 0.84169 0.0
H637 H 0.69113 0.19602 0.80455 0.0
C638 C 0.60669 0.08241 0.89219 0.0
C639 C 0.58826 0.08658 0.91326 0.0
C640 C 0.61427 0.10033 0.86678 0.0
C641 C 0.60381 0.12299 0.86201 0.0
C642 C 0.58226 0.12416 0.88175 0.0
C643 C 0.57438 0.10596 0.90698 0.0
C644 C 0.61391 0.18371 0.80351 0.0
C645 C 0.64703 0.1973 0.79581 0.0
C646 C 0.59958 0.1591 0.82447 0.0
C647 C 0.6181 0.14771 0.83843 0.0
C648 C 0.65134 0.16176 0.83092 0.0
C649 C 0.66553 0.18603 0.80983 0.0
H650 H 0.51267 0.64219 0.09873 0.0
H651 H 0.53037 0.56802 0.06363 0.0
H652 H 0.49195 0.6475 0.05336 0.0
H653 H 0.51105 0.5752 0.017 0.0
H654 H 0.51556 0.65302 0.94054 0.0
H655 H 0.53334 0.636 0.98273 0.0
H656 H 0.43804 0.5988 0.02058 0.0
H657 H 0.41981 0.61507 0.97826 0.0
C658 C 0.51179 0.62661 0.08144 0.0
C659 C 0.52221 0.60375 0.08523 0.0
C660 C 0.5001 0.62995 0.05537 0.0
C661 C 0.49937 0.61134 0.03199 0.0
C662 C 0.51111 0.58954 0.03499 0.0
C663 C 0.52228 0.58559 0.06154 0.0
C664 C 0.49823 0.6408 0.9577 0.0
C665 C 0.46637 0.63574 0.95622 0.0
C666 C 0.50834 0.63076 0.98164 0.0
C667 C 0.48695 0.61597 0.00467 0.0
C668 C 0.45483 0.60995 0.00289 0.0
C669 C 0.44449 0.61938 0.97876 0.0
H670 H 0.94944 0.47478 0.26055 0.0
H671 H 0.94841 0.56326 0.23969 0.0
H672 H 0.92043 0.44891 0.21675 0.0
H673 H 0.91969 0.53774 0.19514 0.0
H674 H 0.82147 0.45746 0.15066 0.0
H675 H 0.86364 0.49396 0.18484 0.0
H676 H 0.91856 0.44632 0.16648 0.0
H677 H 0.87612 0.40936 0.1335 0.0
C678 C 0.94436 0.48922 0.24578 0.0
C679 C 0.95152 0.52108 0.25313 0.0
C680 C 0.92755 0.47441 0.22069 0.0
C681 C 0.91737 0.49112 0.20247 0.0
C682 C 0.92677 0.52404 0.20888 0.0
C683 C 0.94372 0.5389 0.23406 0.0
C684 C 0.84275 0.45513 0.15381 0.0
C685 C 0.8451 0.43007 0.13997 0.0
C686 C 0.86707 0.47618 0.17319 0.0
C687 C 0.89436 0.47279 0.17871 0.0
C688 C 0.89756 0.44911 0.16333 0.0
C689 C 0.87317 0.4279 0.14441 0.0
loop_
_geom_bond_atom_site_label_1
_geom_bond_atom_site_label_2
_geom_bond_distance
_geom_bond_site_symmetry_2
_ccdc_geom_bond_type
H0 C8 0.930 . S
H1 C11 0.930 . S
H2 C13 0.930 . S
H3 C14 0.970 . S
H4 C14 0.970 . S
H5 C16 0.930 . S
H6 C18 0.930 . S
H7 C20 0.930 . S
C8 H0 0.930 . S
C8 C9 1.382 . S
C8 C10 1.426 . S
C9 C8 1.382 . S
C9 C13 1.389 . S
C10 C8 1.426 . S
C10 C11 1.375 . S
C10 C14 1.532 1_655 S
C11 H1 0.930 . S
C11 C10 1.375 . S
C11 C12 1.416 . S
C12 C11 1.416 . S
C12 C13 1.371 . S
C13 H2 0.930 . S
C13 C9 1.389 . S
C13 C12 1.371 . S
C14 H3 0.970 . S
C14 H4 0.970 . S
C14 C10 1.532 1_455 S
C14 C15 1.499 . S
C15 C14 1.499 . S
C15 C16 1.370 . S
C15 C20 1.415 . S
C16 H5 0.930 . S
C16 C15 1.370 . S
C16 C17 1.407 . S
C17 C16 1.407 . S
C17 C18 1.365 . S
C18 H6 0.930 . S
C18 C17 1.365 . S
C18 C19 1.393 . S
C19 C18 1.393 . S
C19 C20 1.387 . S
C20 H7 0.930 . S
C20 C15 1.415 . S
C20 C19 1.387 . S
H21 C29 0.930 . S
H22 C32 0.930 . S
H23 C34 0.930 . S
H24 C35 0.970 . S
H25 C35 0.970 . S
H26 C37 0.930 . S
H27 C39 0.930 . S
H28 C41 0.930 . S
C29 H21 0.930 . S
C29 C30 1.382 . S
C29 C31 1.426 . S
C30 C29 1.382 . S
C30 C34 1.389 . S
C31 C29 1.426 . S
C31 C32 1.375 . S
C31 C35 1.532 1_565 S
C32 H22 0.930 . S
C32 C31 1.375 . S
C32 C33 1.416 . S
C33 C32 1.416 . S
C33 C34 1.371 . S
C34 H23 0.930 . S
C34 C30 1.389 . S
C34 C33 1.371 . S
C35 H24 0.970 . S
C35 H25 0.970 . S
C35 C31 1.532 1_545 S
C35 C36 1.499 . S
C36 C35 1.499 . S
C36 C37 1.370 . S
C36 C41 1.415 . S
C37 H26 0.930 . S
C37 C36 1.370 . S
C37 C38 1.407 . S
C38 C37 1.407 . S
C38 C39 1.365 . S
C39 H27 0.930 . S
C39 C38 1.365 . S
C39 C40 1.393 . S
C40 C39 1.393 . S
C40 C41 1.387 . S
C41 H28 0.930 . S
C41 C36 1.415 . S
C41 C40 1.387 . S
H42 C50 0.930 . S
H43 C53 0.930 . S
H44 C55 0.930 . S
H45 C56 0.970 . S
H46 C56 0.970 . S
H47 C58 0.930 . S
H48 C60 0.930 . S
H49 C62 0.930 . S
C50 H42 0.930 . S
C50 C51 1.382 . S
C50 C52 1.426 . S
C51 C50 1.382 . S
C51 C55 1.389 . S
C52 C50 1.426 . S
C52 C53 1.375 . S
C52 C56 1.532 . S
C53 H43 0.930 . S
C53 C52 1.375 . S
C53 C54 1.416 . S
C54 C53 1.416 . S
C54 C55 1.371 . S
C55 H44 0.930 . S
C55 C51 1.389 . S
C55 C54 1.371 . S
C56 H45 0.970 . S
C56 H46 0.970 . S
C56 C52 1.532 . S
C56 C57 1.499 . S
C57 C56 1.499 . S
C57 C58 1.370 . S
C57 C62 1.415 . S
C58 H47 0.930 . S
C58 C57 1.370 . S
C58 C59 1.407 . S
C59 C58 1.407 . S
C59 C60 1.365 . S
C60 H48 0.930 . S
C60 C59 1.365 . S
C60 C61 1.393 . S
C61 C60 1.393 . S
C61 C62 1.387 . S
C62 H49 0.930 . S
C62 C57 1.415 . S
C62 C61 1.387 . S
H63 C71 0.930 . S
H64 C74 0.930 . S
H65 C76 0.930 . S
H66 C77 0.968 . S
H67 C77 0.970 . S
H68 C79 0.930 . S
H69 C81 0.930 . S
H70 C83 0.930 . S
C71 H63 0.930 . S
C71 C72 1.382 . S
C71 C73 1.426 . S
C72 C71 1.382 . S
C72 C76 1.389 . S
C73 C71 1.426 . S
C73 C74 1.375 . S
C73 C77 1.532 1_655 S
C74 H64 0.930 . S
C74 C73 1.375 . S
C74 C75 1.416 . S
C75 C74 1.416 . S
C75 C76 1.371 . S
C76 H65 0.930 . S
C76 C72 1.389 . S
C76 C75 1.371 . S
C77 H66 0.968 . S
C77 H67 0.970 . S
C77 C73 1.532 1_455 S
C77 C78 1.499 . S
C78 C77 1.499 . S
C78 C79 1.370 . S
C78 C83 1.415 . S
C79 H68 0.930 . S
C79 C78 1.370 . S
C79 C80 1.407 . S
C80 C79 1.407 . S
C80 C81 1.365 . S
C81 H69 0.930 . S
C81 C80 1.365 . S
C81 C82 1.393 . S
C82 C81 1.393 . S
C82 C83 1.387 . S
C83 H70 0.930 . S
C83 C78 1.415 . S
C83 C82 1.387 . S
H84 C92 0.930 . S
H85 C95 0.930 . S
H86 C97 0.930 . S
H87 C98 0.970 1_554 S
H88 C98 0.970 1_565 S
H89 C100 0.930 . S
H90 C102 0.930 . S
H91 C104 0.930 . S
C92 H84 0.930 . S
C92 C93 1.377 1_554 S
C92 C94 1.426 1_554 S
C93 C92 1.377 1_556 S
C93 C97 1.407 . S
C94 C92 1.426 1_556 S
C94 C95 1.375 . S
C94 C98 1.532 . S
C95 H85 0.930 . S
C95 C94 1.375 . S
C95 C96 1.416 . S
C96 C95 1.416 . S
C96 C97 1.371 . S
C97 H86 0.930 . S
C97 C93 1.407 . S
C97 C96 1.371 . S
C98 H87 0.970 1_556 S
C98 H88 0.970 1_545 S
C98 C94 1.532 . S
C98 C99 1.493 1_546 S
C99 C98 1.493 1_564 S
C99 C100 1.395 . S
C99 C104 1.398 1_554 S
C100 H89 0.930 . S
C100 C99 1.395 . S
C100 C101 1.407 . S
C101 C100 1.407 . S
C101 C102 1.365 . S
C102 H90 0.930 . S
C102 C101 1.365 . S
C102 C103 1.393 1_554 S
C103 C102 1.393 1_556 S
C103 C104 1.387 . S
C104 H91 0.930 . S
C104 C99 1.398 1_556 S
C104 C103 1.387 . S
H105 C113 0.930 . S
H106 C116 0.930 . S
H107 C118 0.930 . S
H108 C119 0.970 . S
H109 C119 0.970 . S
H110 C121 0.930 . S
H111 C123 0.930 . S
H112 C125 0.930 . S
C113 H105 0.930 . S
C113 C114 1.382 . S
C113 C115 1.426 . S
C114 C113 1.382 . S
C114 C118 1.389 . S
C115 C113 1.426 . S
C115 C116 1.375 . S
C115 C119 1.532 . S
C116 H106 0.930 . S
C116 C115 1.375 . S
C116 C117 1.416 . S
C117 C116 1.416 . S
C117 C118 1.371 . S
C118 H107 0.930 . S
C118 C114 1.389 . S
C118 C117 1.371 . S
C119 H108 0.970 . S
C119 H109 0.970 . S
C119 C115 1.532 . S
C119 C120 1.499 . S
C120 C119 1.499 . S
C120 C121 1.370 . S
C120 C125 1.415 . S
C121 H110 0.930 . S
C121 C120 1.370 . S
C121 C122 1.407 . S
C122 C121 1.407 . S
C122 C123 1.365 . S
C123 H111 0.930 . S
C123 C122 1.365 . S
C123 C124 1.393 . S
C124 C123 1.393 . S
C124 C125 1.387 . S
C125 H112 0.930 . S
C125 C120 1.415 . S
C125 C124 1.387 . S
Co126 O127 2.216 . S
Co126 O128 2.091 . S
Co126 O130 2.004 . S
Co126 O136 2.021 . S
Co126 O138 2.137 . S
Co126 O139 2.244 . S
O127 Co126 2.216 . S
O127 C134 1.247 . S
O128 Co126 2.091 . S
O128 C134 1.261 . S
C129 O138 1.247 . S
C129 O139 1.272 . S
O130 Co126 2.004 . S
O130 C135 1.259 . S
Co131 O132 2.061 . S
Co131 O137 2.052 . S
Co131 O139 2.135 . S
O132 Co131 2.061 . S
O132 C135 1.235 . S
C133 O136 1.238 . S
C133 O137 1.241 . S
C134 O127 1.247 . S
C134 O128 1.261 . S
C135 O130 1.259 . S
C135 O132 1.235 . S
O136 Co126 2.021 . S
O136 C133 1.238 . S
O137 Co131 2.052 . S
O137 C133 1.241 . S
O138 Co126 2.137 . S
O138 C129 1.247 . S
O139 Co126 2.244 . S
O139 C129 1.272 . S
O139 Co131 2.135 . S
Co140 O141 2.216 . S
Co140 O142 2.091 . S
Co140 O144 2.004 . S
Co140 O150 2.021 . S
Co140 O152 2.137 . S
Co140 O153 2.244 . S
O141 Co140 2.216 . S
O141 C148 1.247 . S
O142 Co140 2.091 . S
O142 C148 1.261 . S
C143 O152 1.247 . S
C143 O153 1.272 . S
O144 Co140 2.004 . S
O144 C149 1.259 . S
Co145 O146 2.061 . S
Co145 O151 2.052 . S
Co145 O153 2.135 . S
O146 Co145 2.061 . S
O146 C149 1.235 . S
C147 O150 1.238 . S
C147 O151 1.241 . S
C148 O141 1.247 . S
C148 O142 1.261 . S
C149 O144 1.259 . S
C149 O146 1.235 . S
O150 Co140 2.021 . S
O150 C147 1.238 . S
O151 Co145 2.052 . S
O151 C147 1.241 . S
O152 Co140 2.137 . S
O152 C143 1.247 . S
O153 Co140 2.244 . S
O153 C143 1.272 . S
O153 Co145 2.135 . S
Co154 O155 2.216 . S
Co154 O156 2.091 . S
Co154 O158 2.004 . S
Co154 O164 2.021 . S
Co154 O166 2.137 . S
Co154 O167 2.244 . S
O155 Co154 2.216 . S
O155 C162 1.247 . S
O156 Co154 2.091 . S
O156 C162 1.261 . S
C157 O166 1.247 . S
C157 O167 1.272 . S
O158 Co154 2.004 . S
O158 C163 1.259 . S
Co159 O160 2.061 . S
Co159 O165 2.052 . S
Co159 O167 2.135 . S
O160 Co159 2.061 . S
O160 C163 1.235 . S
C161 O164 1.238 . S
C161 O165 1.241 . S
C162 O155 1.247 . S
C162 O156 1.261 . S
C163 O158 1.259 . S
C163 O160 1.235 . S
O164 Co154 2.021 . S
O164 C161 1.238 . S
O165 Co159 2.052 . S
O165 C161 1.241 . S
O166 Co154 2.137 . S
O166 C157 1.247 . S
O167 Co154 2.244 . S
O167 C157 1.272 . S
O167 Co159 2.135 . S
Co168 O169 2.216 . S
Co168 O170 2.091 . S
Co168 O172 2.004 . S
Co168 O178 2.021 . S
Co168 O180 2.137 . S
Co168 O181 2.244 . S
O169 Co168 2.216 . S
O169 C176 1.247 . S
O170 Co168 2.091 . S
O170 C176 1.261 . S
C171 O180 1.247 . S
C171 O181 1.272 . S
O172 Co168 2.004 . S
O172 C177 1.259 . S
Co173 O174 2.061 . S
Co173 O179 2.052 . S
Co173 O181 2.135 . S
O174 Co173 2.061 . S
O174 C177 1.235 . S
C175 O178 1.238 . S
C175 O179 1.241 . S
C176 O169 1.247 . S
C176 O170 1.261 . S
C177 O172 1.259 . S
C177 O174 1.235 . S
O178 Co168 2.021 . S
O178 C175 1.238 . S
O179 Co173 2.052 . S
O179 C175 1.241 . S
O180 Co168 2.137 . S
O180 C171 1.247 . S
O181 Co168 2.244 . S
O181 C171 1.272 . S
O181 Co173 2.135 . S
Co182 O183 2.216 . S
Co182 O184 2.091 . S
Co182 O186 2.004 . S
Co182 O192 2.021 . S
Co182 O194 2.137 . S
Co182 O195 2.244 . S
O183 Co182 2.216 . S
O183 C190 1.247 . S
O184 Co182 2.091 . S
O184 C190 1.261 . S
C185 O194 1.247 . S
C185 O195 1.272 . S
O186 Co182 2.004 . S
O186 C191 1.259 . S
Co187 O188 2.061 . S
Co187 O193 2.052 . S
Co187 O195 2.135 . S
O188 Co187 2.061 . S
O188 C191 1.235 . S
C189 O192 1.238 . S
C189 O193 1.241 . S
C190 O183 1.247 . S
C190 O184 1.261 . S
C191 O186 1.259 . S
C191 O188 1.235 . S
O192 Co182 2.021 . S
O192 C189 1.238 . S
O193 Co187 2.052 . S
O193 C189 1.241 . S
O194 Co182 2.137 . S
O194 C185 1.247 . S
O195 Co182 2.244 . S
O195 C185 1.272 . S
O195 Co187 2.135 . S
Co196 O197 2.216 . S
Co196 O198 2.091 . S
Co196 O200 2.004 . S
Co196 O206 2.021 . S
Co196 O208 2.137 . S
Co196 O209 2.244 . S
O197 Co196 2.216 . S
O197 C204 1.247 . S
O198 Co196 2.091 . S
O198 C204 1.261 . S
C199 O208 1.247 . S
C199 O209 1.272 . S
O200 Co196 2.004 . S
O200 C205 1.259 . S
Co201 O202 2.061 . S
Co201 O207 2.052 . S
Co201 O209 2.135 . S
O202 Co201 2.061 . S
O202 C205 1.235 . S
C203 O206 1.238 . S
C203 O207 1.241 . S
C204 O197 1.247 . S
C204 O198 1.261 . S
C205 O200 1.259 . S
C205 O202 1.235 . S
O206 Co196 2.021 . S
O206 C203 1.238 . S
O207 Co201 2.052 . S
O207 C203 1.241 . S
O208 Co196 2.137 . S
O208 C199 1.247 . S
O209 Co196 2.244 . S
O209 C199 1.272 . S
O209 Co201 2.135 . S
H210 C218 0.950 . S
H211 C223 0.950 . S
H212 C220 0.950 . S
H213 C222 0.950 . S
H214 C224 0.950 . S
H215 C226 0.950 . S
H216 C228 0.950 . S
H217 C229 0.950 . S
C218 H210 0.950 . S
C218 C219 1.386 . S
C218 C220 1.391 . S
C219 C218 1.386 . S
C219 C223 1.393 . S
C220 H212 0.950 . S
C220 C218 1.391 . S
C220 C221 1.400 . S
C221 C220 1.400 . S
C221 C222 1.398 . S
C221 C227 1.491 . S
C222 H213 0.950 . S
C222 C221 1.398 . S
C222 C223 1.391 . S
C223 H211 0.950 . S
C223 C219 1.393 . S
C223 C222 1.391 . S
C224 H214 0.950 . S
C224 C225 1.386 . S
C224 C226 1.391 . S
C225 C224 1.386 . S
C225 C229 1.393 . S
C226 H215 0.950 . S
C226 C224 1.391 . S
C226 C227 1.400 . S
C227 C221 1.491 . S
C227 C226 1.400 . S
C227 C228 1.398 . S
C228 H216 0.950 . S
C228 C227 1.398 . S
C228 C229 1.391 . S
C229 H217 0.950 . S
C229 C225 1.393 . S
C229 C228 1.391 . S
H230 C238 0.950 . S
H231 C243 0.950 . S
H232 C240 0.950 . S
H233 C242 0.950 . S
H234 C244 0.950 . S
H235 C246 0.950 . S
H236 C248 0.950 . S
H237 C249 0.950 . S
C238 H230 0.950 . S
C238 C239 1.386 . S
C238 C240 1.391 . S
C239 C238 1.386 . S
C239 C243 1.393 . S
C240 H232 0.950 . S
C240 C238 1.391 . S
C240 C241 1.400 . S
C241 C240 1.400 . S
C241 C242 1.398 . S
C241 C247 1.491 . S
C242 H233 0.950 . S
C242 C241 1.398 . S
C242 C243 1.391 . S
C243 H231 0.950 . S
C243 C239 1.393 . S
C243 C242 1.391 . S
C244 H234 0.950 . S
C244 C245 1.386 . S
C244 C246 1.391 . S
C245 C244 1.386 . S
C245 C249 1.393 . S
C246 H235 0.950 . S
C246 C244 1.391 . S
C246 C247 1.400 . S
C247 C241 1.491 . S
C247 C246 1.400 . S
C247 C248 1.398 . S
C248 H236 0.950 . S
C248 C247 1.398 . S
C248 C249 1.391 . S
C249 H237 0.950 . S
C249 C245 1.393 . S
C249 C248 1.391 . S
H250 C258 0.950 . S
H251 C263 0.950 . S
H252 C260 0.950 . S
H253 C262 0.950 . S
H254 C264 0.950 . S
H255 C266 0.950 . S
H256 C268 0.950 . S
H257 C269 0.950 . S
C258 H250 0.950 . S
C258 C259 1.386 . S
C258 C260 1.391 . S
C259 C258 1.386 . S
C259 C263 1.393 . S
C260 H252 0.950 . S
C260 C258 1.391 . S
C260 C261 1.400 . S
C261 C260 1.400 . S
C261 C262 1.398 . S
C261 C267 1.491 . S
C262 H253 0.950 . S
C262 C261 1.398 . S
C262 C263 1.391 . S
C263 H251 0.950 . S
C263 C259 1.393 . S
C263 C262 1.391 . S
C264 H254 0.950 . S
C264 C265 1.386 . S
C264 C266 1.391 . S
C265 C264 1.386 . S
C265 C269 1.393 . S
C266 H255 0.950 . S
C266 C264 1.391 . S
C266 C267 1.400 . S
C267 C261 1.491 . S
C267 C266 1.400 . S
C267 C268 1.398 . S
C268 H256 0.950 . S
C268 C267 1.398 . S
C268 C269 1.391 . S
C269 H257 0.950 . S
C269 C265 1.393 . S
C269 C268 1.391 . S
H270 C278 0.950 . S
H271 C283 0.950 . S
H272 C280 0.950 . S
H273 C282 0.950 . S
H274 C284 0.950 . S
H275 C286 0.950 . S
H276 C288 0.950 . S
H277 C289 0.950 . S
C278 H270 0.950 . S
C278 C279 1.386 . S
C278 C280 1.391 . S
C279 C278 1.386 . S
C279 C283 1.393 . S
C280 H272 0.950 . S
C280 C278 1.391 . S
C280 C281 1.400 . S
C281 C280 1.400 . S
C281 C282 1.398 . S
C281 C287 1.491 . S
C282 H273 0.950 . S
C282 C281 1.398 . S
C282 C283 1.391 . S
C283 H271 0.950 . S
C283 C279 1.393 . S
C283 C282 1.391 . S
C284 H274 0.950 . S
C284 C285 1.386 . S
C284 C286 1.391 . S
C285 C284 1.386 . S
C285 C289 1.393 . S
C286 H275 0.950 . S
C286 C284 1.391 . S
C286 C287 1.400 . S
C287 C281 1.491 . S
C287 C286 1.400 . S
C287 C288 1.398 . S
C288 H276 0.950 . S
C288 C287 1.398 . S
C288 C289 1.391 . S
C289 H277 0.950 . S
C289 C285 1.393 . S
C289 C288 1.391 . S
H290 C298 0.950 1_554 S
H291 C303 0.950 . S
H292 C300 0.950 . S
H293 C302 0.950 . S
H294 C304 0.950 . S
H295 C306 0.950 . S
H296 C308 0.950 . S
H297 C309 0.950 . S
C298 H290 0.950 1_556 S
C298 C299 1.386 . S
C298 C300 1.391 . S
C299 C298 1.386 . S
C299 C303 1.393 . S
C300 H292 0.950 . S
C300 C298 1.391 . S
C300 C301 1.400 . S
C301 C300 1.400 . S
C301 C302 1.398 . S
C301 C307 1.491 . S
C302 H293 0.950 . S
C302 C301 1.398 . S
C302 C303 1.391 . S
C303 H291 0.950 . S
C303 C299 1.393 . S
C303 C302 1.391 . S
C304 H294 0.950 . S
C304 C305 1.386 . S
C304 C306 1.391 . S
C305 C304 1.386 . S
C305 C309 1.393 . S
C306 H295 0.950 . S
C306 C304 1.391 . S
C306 C307 1.400 . S
C307 C301 1.491 . S
C307 C306 1.400 . S
C307 C308 1.398 . S
C308 H296 0.950 . S
C308 C307 1.398 . S
C308 C309 1.391 . S
C309 H297 0.950 . S
C309 C305 1.393 . S
C309 C308 1.391 . S
H310 C318 0.950 . S
H311 C323 0.950 . S
H312 C320 0.950 . S
H313 C322 0.950 . S
H314 C324 0.950 . S
H315 C326 0.950 . S
H316 C328 0.950 . S
H317 C329 0.950 . S
C318 H310 0.950 . S
C318 C319 1.386 . S
C318 C320 1.391 . S
C319 C318 1.386 . S
C319 C323 1.393 . S
C320 H312 0.950 . S
C320 C318 1.391 . S
C320 C321 1.400 . S
C321 C320 1.400 . S
C321 C322 1.398 . S
C321 C327 1.491 . S
C322 H313 0.950 . S
C322 C321 1.398 . S
C322 C323 1.391 . S
C323 H311 0.950 . S
C323 C319 1.393 . S
C323 C322 1.391 . S
C324 H314 0.950 . S
C324 C325 1.386 . S
C324 C326 1.391 . S
C325 C324 1.386 . S
C325 C329 1.393 . S
C326 H315 0.950 . S
C326 C324 1.391 . S
C326 C327 1.400 . S
C327 C321 1.491 . S
C327 C326 1.400 . S
C327 C328 1.398 . S
C328 H316 0.950 . S
C328 C327 1.398 . S
C328 C329 1.391 . S
C329 H317 0.950 . S
C329 C325 1.393 . S
C329 C328 1.391 . S
H330 C338 0.950 . S
H331 C343 0.950 . S
H332 C340 0.950 . S
H333 C342 0.950 . S
H334 C344 0.950 . S
H335 C346 0.950 . S
H336 C348 0.950 . S
H337 C349 0.950 . S
C338 H330 0.950 . S
C338 C339 1.386 . S
C338 C340 1.391 . S
C339 C338 1.386 . S
C339 C343 1.393 . S
C340 H332 0.950 . S
C340 C338 1.391 . S
C340 C341 1.400 . S
C341 C340 1.400 . S
C341 C342 1.398 . S
C341 C347 1.491 . S
C342 H333 0.950 . S
C342 C341 1.398 . S
C342 C343 1.391 . S
C343 H331 0.950 . S
C343 C339 1.393 . S
C343 C342 1.391 . S
C344 H334 0.950 . S
C344 C345 1.386 . S
C344 C346 1.391 . S
C345 C344 1.386 . S
C345 C349 1.393 . S
C346 H335 0.950 . S
C346 C344 1.391 . S
C346 C347 1.400 . S
C347 C341 1.491 . S
C347 C346 1.400 . S
C347 C348 1.398 . S
C348 H336 0.950 . S
C348 C347 1.398 . S
C348 C349 1.391 . S
C349 H337 0.950 . S
C349 C345 1.393 . S
C349 C348 1.391 . S
H350 C358 0.950 . S
H351 C363 0.950 . S
H352 C360 0.950 . S
H353 C362 0.950 . S
H354 C364 0.950 . S
H355 C366 0.950 . S
H356 C368 0.950 . S
H357 C369 0.950 . S
C358 H350 0.950 . S
C358 C359 1.386 . S
C358 C360 1.391 . S
C359 C358 1.386 . S
C359 C363 1.393 . S
C360 H352 0.950 . S
C360 C358 1.391 . S
C360 C361 1.400 . S
C361 C360 1.400 . S
C361 C362 1.398 . S
C361 C367 1.491 . S
C362 H353 0.950 . S
C362 C361 1.398 . S
C362 C363 1.391 . S
C363 H351 0.950 . S
C363 C359 1.393 . S
C363 C362 1.391 . S
C364 H354 0.950 . S
C364 C365 1.386 . S
C364 C366 1.391 . S
C365 C364 1.386 . S
C365 C369 1.393 . S
C366 H355 0.950 . S
C366 C364 1.391 . S
C366 C367 1.400 . S
C367 C361 1.491 . S
C367 C366 1.400 . S
C367 C368 1.398 . S
C368 H356 0.950 . S
C368 C367 1.398 . S
C368 C369 1.391 . S
C369 H357 0.950 . S
C369 C365 1.393 . S
C369 C368 1.391 . S
H370 C378 0.950 . S
H371 C383 0.950 . S
H372 C380 0.950 . S
H373 C382 0.950 . S
H374 C384 0.950 . S
H375 C386 0.950 . S
H376 C388 0.950 . S
H377 C389 0.950 . S
C378 H370 0.950 . S
C378 C379 1.386 . S
C378 C380 1.391 . S
C379 C378 1.386 . S
C379 C383 1.393 . S
C380 H372 0.950 . S
C380 C378 1.391 . S
C380 C381 1.400 . S
C381 C380 1.400 . S
C381 C382 1.398 . S
C381 C387 1.491 . S
C382 H373 0.950 . S
C382 C381 1.398 . S
C382 C383 1.391 . S
C383 H371 0.950 . S
C383 C379 1.393 . S
C383 C382 1.391 . S
C384 H374 0.950 . S
C384 C385 1.386 . S
C384 C386 1.391 . S
C385 C384 1.386 . S
C385 C389 1.393 . S
C386 H375 0.950 . S
C386 C384 1.391 . S
C386 C387 1.400 . S
C387 C381 1.491 . S
C387 C386 1.400 . S
C387 C388 1.398 . S
C388 H376 0.950 . S
C388 C387 1.398 . S
C388 C389 1.391 . S
C389 H377 0.950 . S
C389 C385 1.393 . S
C389 C388 1.391 . S
H390 C398 0.950 . S
H391 C403 0.950 . S
H392 C400 0.950 . S
H393 C402 0.950 1_556 S
H394 C404 0.950 . S
H395 C406 0.950 1_556 S
H396 C408 0.950 . S
H397 C409 0.950 . S
C398 H390 0.950 . S
C398 C399 1.386 . S
C398 C400 1.391 . S
C399 C398 1.386 . S
C399 C403 1.393 1_554 S
C400 H392 0.950 . S
C400 C398 1.391 . S
C400 C401 1.400 . S
C401 C400 1.400 . S
C401 C402 1.398 . S
C401 C407 1.491 . S
C402 H393 0.950 1_554 S
C402 C401 1.398 . S
C402 C403 1.391 1_554 S
C403 H391 0.950 . S
C403 C399 1.393 1_556 S
C403 C402 1.391 1_556 S
C404 H394 0.950 . S
C404 C405 1.386 . S
C404 C406 1.391 . S
C405 C404 1.386 . S
C405 C409 1.393 . S
C406 H395 0.950 1_554 S
C406 C404 1.391 . S
C406 C407 1.400 . S
C407 C401 1.491 . S
C407 C406 1.400 . S
C407 C408 1.398 . S
C408 H396 0.950 . S
C408 C407 1.398 . S
C408 C409 1.391 . S
C409 H397 0.950 . S
C409 C405 1.393 . S
C409 C408 1.391 . S
H410 C418 0.950 . S
H411 C423 0.950 . S
H412 C420 0.950 . S
H413 C422 0.950 . S
H414 C424 0.950 . S
H415 C426 0.950 . S
H416 C428 0.950 . S
H417 C429 0.950 . S
C418 H410 0.950 . S
C418 C419 1.386 . S
C418 C420 1.391 . S
C419 C418 1.386 . S
C419 C423 1.393 . S
C420 H412 0.950 . S
C420 C418 1.391 . S
C420 C421 1.400 . S
C421 C420 1.400 . S
C421 C422 1.398 . S
C421 C427 1.491 . S
C422 H413 0.950 . S
C422 C421 1.398 . S
C422 C423 1.391 . S
C423 H411 0.950 . S
C423 C419 1.393 . S
C423 C422 1.391 . S
C424 H414 0.950 . S
C424 C425 1.386 . S
C424 C426 1.391 . S
C425 C424 1.386 . S
C425 C429 1.393 . S
C426 H415 0.950 . S
C426 C424 1.391 . S
C426 C427 1.400 . S
C427 C421 1.491 . S
C427 C426 1.400 . S
C427 C428 1.398 . S
C428 H416 0.950 . S
C428 C427 1.398 . S
C428 C429 1.391 . S
C429 H417 0.950 . S
C429 C425 1.393 . S
C429 C428 1.391 . S
H430 C438 0.950 . S
H431 C443 0.950 . S
H432 C440 0.950 . S
H433 C442 0.950 . S
H434 C444 0.950 . S
H435 C446 0.950 . S
H436 C448 0.950 . S
H437 C449 0.950 . S
C438 H430 0.950 . S
C438 C439 1.386 . S
C438 C440 1.391 . S
C439 C438 1.386 . S
C439 C443 1.393 . S
C440 H432 0.950 . S
C440 C438 1.391 . S
C440 C441 1.400 . S
C441 C440 1.400 . S
C441 C442 1.398 . S
C441 C447 1.491 . S
C442 H433 0.950 . S
C442 C441 1.398 . S
C442 C443 1.391 . S
C443 H431 0.950 . S
C443 C439 1.393 . S
C443 C442 1.391 . S
C444 H434 0.950 . S
C444 C445 1.386 . S
C444 C446 1.391 . S
C445 C444 1.386 . S
C445 C449 1.393 . S
C446 H435 0.950 . S
C446 C444 1.391 . S
C446 C447 1.400 . S
C447 C441 1.491 . S
C447 C446 1.400 . S
C447 C448 1.398 . S
C448 H436 0.950 . S
C448 C447 1.398 . S
C448 C449 1.391 . S
C449 H437 0.950 . S
C449 C445 1.393 . S
C449 C448 1.391 . S
H450 C458 0.950 . S
H451 C463 0.950 . S
H452 C460 0.950 . S
H453 C462 0.950 . S
H454 C464 0.950 . S
H455 C466 0.950 . S
H456 C468 0.950 . S
H457 C469 0.950 . S
C458 H450 0.950 . S
C458 C459 1.386 . S
C458 C460 1.391 . S
C459 C458 1.386 . S
C459 C463 1.393 . S
C460 H452 0.950 . S
C460 C458 1.391 . S
C460 C461 1.400 . S
C461 C460 1.400 . S
C461 C462 1.398 . S
C461 C467 1.491 . S
C462 H453 0.950 . S
C462 C461 1.398 . S
C462 C463 1.391 . S
C463 H451 0.950 . S
C463 C459 1.393 . S
C463 C462 1.391 . S
C464 H454 0.950 . S
C464 C465 1.386 . S
C464 C466 1.391 . S
C465 C464 1.386 . S
C465 C469 1.393 . S
C466 H455 0.950 . S
C466 C464 1.391 . S
C466 C467 1.400 . S
C467 C461 1.491 . S
C467 C466 1.400 . S
C467 C468 1.398 . S
C468 H456 0.950 . S
C468 C467 1.398 . S
C468 C469 1.391 . S
C469 H457 0.950 . S
C469 C465 1.393 . S
C469 C468 1.391 . S
H470 C478 0.950 . S
H471 C483 0.950 . S
H472 C480 0.950 . S
H473 C482 0.950 . S
H474 C484 0.950 . S
H475 C486 0.950 . S
H476 C488 0.950 . S
H477 C489 0.950 . S
C478 H470 0.950 . S
C478 C479 1.386 . S
C478 C480 1.391 . S
C479 C478 1.386 . S
C479 C483 1.393 . S
C480 H472 0.950 . S
C480 C478 1.391 . S
C480 C481 1.400 . S
C481 C480 1.400 . S
C481 C482 1.398 . S
C481 C487 1.491 . S
C482 H473 0.950 . S
C482 C481 1.398 . S
C482 C483 1.391 . S
C483 H471 0.950 . S
C483 C479 1.393 . S
C483 C482 1.391 . S
C484 H474 0.950 . S
C484 C485 1.386 . S
C484 C486 1.391 . S
C485 C484 1.386 . S
C485 C489 1.393 . S
C486 H475 0.950 . S
C486 C484 1.391 . S
C486 C487 1.400 . S
C487 C481 1.491 . S
C487 C486 1.400 . S
C487 C488 1.398 . S
C488 H476 0.950 . S
C488 C487 1.398 . S
C488 C489 1.391 . S
C489 H477 0.950 . S
C489 C485 1.393 . S
C489 C488 1.391 . S
H490 C498 0.950 . S
H491 C503 0.950 . S
H492 C500 0.950 . S
H493 C502 0.950 . S
H494 C504 0.950 . S
H495 C506 0.950 . S
H496 C508 0.950 . S
H497 C509 0.950 . S
C498 H490 0.950 . S
C498 C499 1.386 . S
C498 C500 1.391 . S
C499 C498 1.386 . S
C499 C503 1.393 . S
C500 H492 0.950 . S
C500 C498 1.391 . S
C500 C501 1.400 . S
C501 C500 1.400 . S
C501 C502 1.398 . S
C501 C507 1.491 . S
C502 H493 0.950 . S
C502 C501 1.398 . S
C502 C503 1.391 . S
C503 H491 0.950 . S
C503 C499 1.393 . S
C503 C502 1.391 . S
C504 H494 0.950 . S
C504 C505 1.386 . S
C504 C506 1.391 . S
C505 C504 1.386 . S
C505 C509 1.393 . S
C506 H495 0.950 . S
C506 C504 1.391 . S
C506 C507 1.400 . S
C507 C501 1.491 . S
C507 C506 1.400 . S
C507 C508 1.398 . S
C508 H496 0.950 . S
C508 C507 1.398 . S
C508 C509 1.391 . S
C509 H497 0.950 . S
C509 C505 1.393 . S
C509 C508 1.391 . S
H510 C518 0.950 . S
H511 C523 0.950 . S
H512 C520 0.950 . S
H513 C522 0.950 . S
H514 C524 0.950 . S
H515 C526 0.950 . S
H516 C528 0.950 . S
H517 C529 0.950 . S
C518 H510 0.950 . S
C518 C519 1.386 . S
C518 C520 1.391 . S
C519 C518 1.386 . S
C519 C523 1.393 . S
C520 H512 0.950 . S
C520 C518 1.391 . S
C520 C521 1.400 . S
C521 C520 1.400 . S
C521 C522 1.398 . S
C521 C527 1.491 . S
C522 H513 0.950 . S
C522 C521 1.398 . S
C522 C523 1.391 . S
C523 H511 0.950 . S
C523 C519 1.393 . S
C523 C522 1.391 . S
C524 H514 0.950 . S
C524 C525 1.386 . S
C524 C526 1.391 1_554 S
C525 C524 1.386 . S
C525 C529 1.393 1_554 S
C526 H515 0.950 . S
C526 C524 1.391 1_556 S
C526 C527 1.400 . S
C527 C521 1.491 . S
C527 C526 1.400 . S
C527 C528 1.398 . S
C528 H516 0.950 . S
C528 C527 1.398 . S
C528 C529 1.391 . S
C529 H517 0.950 . S
C529 C525 1.393 1_556 S
C529 C528 1.391 . S
H530 C538 0.950 . S
H531 C543 0.950 . S
H532 C540 0.950 . S
H533 C542 0.950 . S
H534 C544 0.950 . S
H535 C546 0.950 . S
H536 C548 0.950 . S
H537 C549 0.950 . S
C538 H530 0.950 . S
C538 C539 1.386 . S
C538 C540 1.391 . S
C539 C538 1.386 . S
C539 C543 1.393 . S
C540 H532 0.950 . S
C540 C538 1.391 . S
C540 C541 1.400 . S
C541 C540 1.400 . S
C541 C542 1.398 . S
C541 C547 1.491 . S
C542 H533 0.950 . S
C542 C541 1.398 . S
C542 C543 1.391 . S
C543 H531 0.950 . S
C543 C539 1.393 . S
C543 C542 1.391 . S
C544 H534 0.950 . S
C544 C545 1.386 . S
C544 C546 1.391 . S
C545 C544 1.386 . S
C545 C549 1.393 . S
C546 H535 0.950 . S
C546 C544 1.391 . S
C546 C547 1.400 . S
C547 C541 1.491 . S
C547 C546 1.400 . S
C547 C548 1.398 . S
C548 H536 0.950 . S
C548 C547 1.398 . S
C548 C549 1.391 . S
C549 H537 0.950 . S
C549 C545 1.393 . S
C549 C548 1.391 . S
H550 C558 0.950 . S
H551 C563 0.950 . S
H552 C560 0.950 . S
H553 C562 0.950 . S
H554 C564 0.950 . S
H555 C566 0.950 . S
H556 C568 0.950 . S
H557 C569 0.950 . S
C558 H550 0.950 . S
C558 C559 1.386 . S
C558 C560 1.391 . S
C559 C558 1.386 . S
C559 C563 1.393 . S
C560 H552 0.950 . S
C560 C558 1.391 . S
C560 C561 1.400 . S
C561 C560 1.400 . S
C561 C562 1.398 . S
C561 C567 1.491 . S
C562 H553 0.950 . S
C562 C561 1.398 . S
C562 C563 1.391 . S
C563 H551 0.950 . S
C563 C559 1.393 . S
C563 C562 1.391 . S
C564 H554 0.950 . S
C564 C565 1.386 . S
C564 C566 1.391 . S
C565 C564 1.386 . S
C565 C569 1.393 . S
C566 H555 0.950 . S
C566 C564 1.391 . S
C566 C567 1.400 . S
C567 C561 1.491 . S
C567 C566 1.400 . S
C567 C568 1.398 . S
C568 H556 0.950 . S
C568 C567 1.398 . S
C568 C569 1.391 . S
C569 H557 0.950 . S
C569 C565 1.393 . S
C569 C568 1.391 . S
H570 C578 0.950 . S
H571 C583 0.950 . S
H572 C580 0.950 . S
H573 C582 0.950 . S
H574 C584 0.950 . S
H575 C586 0.950 . S
H576 C588 0.950 . S
H577 C589 0.950 . S
C578 H570 0.950 . S
C578 C579 1.386 . S
C578 C580 1.391 . S
C579 C578 1.386 . S
C579 C583 1.393 . S
C580 H572 0.950 . S
C580 C578 1.391 . S
C580 C581 1.400 . S
C581 C580 1.400 . S
C581 C582 1.398 . S
C581 C587 1.491 . S
C582 H573 0.950 . S
C582 C581 1.398 . S
C582 C583 1.391 . S
C583 H571 0.950 . S
C583 C579 1.393 . S
C583 C582 1.391 . S
C584 H574 0.950 . S
C584 C585 1.386 . S
C584 C586 1.391 . S
C585 C584 1.386 . S
C585 C589 1.393 . S
C586 H575 0.950 . S
C586 C584 1.391 . S
C586 C587 1.400 . S
C587 C581 1.491 . S
C587 C586 1.400 . S
C587 C588 1.398 . S
C588 H576 0.950 . S
C588 C587 1.398 . S
C588 C589 1.391 . S
C589 H577 0.950 . S
C589 C585 1.393 . S
C589 C588 1.391 . S
H590 C598 0.950 . S
H591 C603 0.950 . S
H592 C600 0.950 . S
H593 C602 0.950 . S
H594 C604 0.950 . S
H595 C606 0.950 . S
H596 C608 0.950 . S
H597 C609 0.950 . S
C598 H590 0.950 . S
C598 C599 1.386 . S
C598 C600 1.391 . S
C599 C598 1.386 . S
C599 C603 1.393 . S
C600 H592 0.950 . S
C600 C598 1.391 . S
C600 C601 1.400 . S
C601 C600 1.400 . S
C601 C602 1.398 . S
C601 C607 1.491 . S
C602 H593 0.950 . S
C602 C601 1.398 . S
C602 C603 1.391 . S
C603 H591 0.950 . S
C603 C599 1.393 . S
C603 C602 1.391 . S
C604 H594 0.950 . S
C604 C605 1.386 . S
C604 C606 1.391 . S
C605 C604 1.386 . S
C605 C609 1.393 . S
C606 H595 0.950 . S
C606 C604 1.391 . S
C606 C607 1.400 . S
C607 C601 1.491 . S
C607 C606 1.400 . S
C607 C608 1.398 . S
C608 H596 0.950 . S
C608 C607 1.398 . S
C608 C609 1.391 . S
C609 H597 0.950 . S
C609 C605 1.393 . S
C609 C608 1.391 . S
H610 C618 0.950 . S
H611 C623 0.950 . S
H612 C620 0.950 . S
H613 C622 0.950 . S
H614 C624 0.950 . S
H615 C626 0.950 . S
H616 C628 0.950 . S
H617 C629 0.950 . S
C618 H610 0.950 . S
C618 C619 1.386 . S
C618 C620 1.391 . S
C619 C618 1.386 . S
C619 C623 1.393 . S
C620 H612 0.950 . S
C620 C618 1.391 . S
C620 C621 1.400 . S
C621 C620 1.400 . S
C621 C622 1.398 . S
C621 C627 1.491 . S
C622 H613 0.950 . S
C622 C621 1.398 . S
C622 C623 1.391 . S
C623 H611 0.950 . S
C623 C619 1.393 . S
C623 C622 1.391 . S
C624 H614 0.950 . S
C624 C625 1.386 . S
C624 C626 1.391 . S
C625 C624 1.386 . S
C625 C629 1.393 . S
C626 H615 0.950 . S
C626 C624 1.391 . S
C626 C627 1.400 . S
C627 C621 1.491 . S
C627 C626 1.400 . S
C627 C628 1.398 . S
C628 H616 0.950 . S
C628 C627 1.398 . S
C628 C629 1.391 . S
C629 H617 0.950 . S
C629 C625 1.393 . S
C629 C628 1.391 . S
H630 C638 0.950 . S
H631 C643 0.950 . S
H632 C640 0.950 . S
H633 C642 0.950 . S
H634 C644 0.950 . S
H635 C646 0.950 . S
H636 C648 0.950 . S
H637 C649 0.950 . S
C638 H630 0.950 . S
C638 C639 1.386 . S
C638 C640 1.391 . S
C639 C638 1.386 . S
C639 C643 1.393 . S
C640 H632 0.950 . S
C640 C638 1.391 . S
C640 C641 1.400 . S
C641 C640 1.400 . S
C641 C642 1.398 . S
C641 C647 1.491 . S
C642 H633 0.950 . S
C642 C641 1.398 . S
C642 C643 1.391 . S
C643 H631 0.950 . S
C643 C639 1.393 . S
C643 C642 1.391 . S
C644 H634 0.950 . S
C644 C645 1.386 . S
C644 C646 1.391 . S
C645 C644 1.386 . S
C645 C649 1.393 . S
C646 H635 0.950 . S
C646 C644 1.391 . S
C646 C647 1.400 . S
C647 C641 1.491 . S
C647 C646 1.400 . S
C647 C648 1.398 . S
C648 H636 0.950 . S
C648 C647 1.398 . S
C648 C649 1.391 . S
C649 H637 0.950 . S
C649 C645 1.393 . S
C649 C648 1.391 . S
H650 C658 0.950 . S
H651 C663 0.950 . S
H652 C660 0.950 . S
H653 C662 0.950 . S
H654 C664 0.950 . S
H655 C666 0.950 . S
H656 C668 0.950 . S
H657 C669 0.950 . S
C658 H650 0.950 . S
C658 C659 1.386 . S
C658 C660 1.391 . S
C659 C658 1.386 . S
C659 C663 1.393 . S
C660 H652 0.950 . S
C660 C658 1.391 . S
C660 C661 1.400 . S
C661 C660 1.400 . S
C661 C662 1.398 . S
C661 C667 1.491 . S
C662 H653 0.950 . S
C662 C661 1.398 . S
C662 C663 1.391 . S
C663 H651 0.950 . S
C663 C659 1.393 . S
C663 C662 1.391 . S
C664 H654 0.950 . S
C664 C665 1.386 . S
C664 C666 1.391 . S
C665 C664 1.386 . S
C665 C669 1.393 1_556 S
C666 H655 0.950 . S
C666 C664 1.391 . S
C666 C667 1.400 1_556 S
C667 C661 1.491 . S
C667 C666 1.400 1_554 S
C667 C668 1.398 . S
C668 H656 0.950 . S
C668 C667 1.398 . S
C668 C669 1.391 . S
C669 H657 0.950 . S
C669 C665 1.393 1_554 S
C669 C668 1.391 . S
H670 C678 0.950 . S
H671 C683 0.950 . S
H672 C680 0.950 . S
H673 C682 0.950 . S
H674 C684 0.950 . S
H675 C686 0.950 . S
H676 C688 0.950 . S
H677 C689 0.950 . S
C678 H670 0.950 . S
C678 C679 1.386 . S
C678 C680 1.391 . S
C679 C678 1.386 . S
C679 C683 1.393 . S
C680 H672 0.950 . S
C680 C678 1.391 . S
C680 C681 1.400 . S
C681 C680 1.400 . S
C681 C682 1.398 . S
C681 C687 1.491 . S
C682 H673 0.950 . S
C682 C681 1.398 . S
C682 C683 1.391 . S
C683 H671 0.950 . S
C683 C679 1.393 . S
C683 C682 1.391 . S
C684 H674 0.950 . S
C684 C685 1.386 . S
C684 C686 1.391 . S
C685 C684 1.386 . S
C685 C689 1.393 . S
C686 H675 0.950 . S
C686 C684 1.391 . S
C686 C687 1.400 . S
C687 C681 1.491 . S
C687 C686 1.400 . S
C687 C688 1.398 . S
C688 H676 0.950 . S
C688 C687 1.398 . S
C688 C689 1.391 . S
C689 H677 0.950 . S
C689 C685 1.393 . S
C689 C688 1.391 . S
C225 C199 1.599 . S
C219 C19 1.521 . S
C239 C40 1.516 . S
C245 C129 1.600 . S
C259 C51 1.525 . S
C265 C148 1.622 . S
C279 C72 1.480 . S
C285 C157 1.603 . S
C305 C171 1.603 . S
C299 C103 1.515 . S
C319 C114 1.488 . S
C325 C190 1.611 . S
C339 C30 1.504 . S
C345 C143 1.597 . S
C359 C61 1.518 . S
C365 C162 1.599 . S
C379 C82 1.506 . S
C385 C176 1.592 . S
C405 C185 1.590 . S
C399 C93 1.468 1_554 S
C425 C204 1.593 . S
C419 C124 1.493 . S
C445 C134 1.600 . S
C439 C9 1.500 . S
C459 C17 1.423 . S
C465 C149 1.513 . S
C479 C38 1.437 . S
C485 C161 1.497 . S
C505 C175 1.480 . S
C499 C54 1.410 . S
C519 C75 1.427 . S
C525 C191 1.518 . S
C545 C203 1.490 . S
C539 C101 1.428 . S
C565 C133 1.497 . S
C559 C117 1.433 . S
C585 C205 1.522 . S
C579 C33 1.443 . S
C599 C59 1.458 . S
C605 C135 1.526 . S
C625 C147 1.498 . S
C619 C80 1.432 . S
C639 C96 1.439 . S
C645 C163 1.524 . S
C659 C122 1.439 . S
C665 C177 1.530 . S
C679 C12 1.430 . S
C685 C189 1.501 . S
