# Generated by pormake.
# Topology the, (3,8)-cn, num edge types: 1
# Building blocks:
#     Node 0, Type 0, BuildingBlock: ESEHIV_clean_linker_0, # of connection points: 3
#     Node 1, Type 0, BuildingBlock: ESEHIV_clean_linker_0, # of connection points: 3
#     Node 2, Type 0, BuildingBlock: ESEHIV_clean_linker_0, # of connection points: 3
#     Node 3, Type 0, BuildingBlock: ESEHIV_clean_linker_0, # of connection points: 3
#     Node 4, Type 0, BuildingBlock: ESEHIV_clean_linker_0, # of connection points: 3
#     Node 5, Type 0, BuildingBlock: ESEHIV_clean_linker_0, # of connection points: 3
#     Node 6, Type 0, BuildingBlock: ESEHIV_clean_linker_0, # of connection points: 3
#     Node 7, Type 0, BuildingBlock: ESEHIV_clean_linker_0, # of connection points: 3
#     Node 8, Type 1, BuildingBlock: GIZVER_clean_sbu_0, # of connection points: 8
#     Node 9, Type 1, BuildingBlock: GIZVER_clean_sbu_0, # of connection points: 8
#     Node 10, Type 1, BuildingBlock: GIZVER_clean_sbu_0, # of connection points: 8
#     Edge 11, Type (0, 1), BuildingBlock: UVAHIK_clean_linker_0, # of connection points: 2
#     Edge 12, Type (0, 1), BuildingBlock: UVAHIK_clean_linker_0, # of connection points: 2
#     Edge 13, Type (0, 1), BuildingBlock: UVAHIK_clean_linker_0, # of connection points: 2
#     Edge 14, Type (0, 1), BuildingBlock: UVAHIK_clean_linker_0, # of connection points: 2
#     Edge 15, Type (0, 1), BuildingBlock: UVAHIK_clean_linker_0, # of connection points: 2
#     Edge 16, Type (0, 1), BuildingBlock: UVAHIK_clean_linker_0, # of connection points: 2
#     Edge 17, Type (0, 1), BuildingBlock: UVAHIK_clean_linker_0, # of connection points: 2
#     Edge 18, Type (0, 1), BuildingBlock: UVAHIK_clean_linker_0, # of connection points: 2
#     Edge 19, Type (0, 1), BuildingBlock: UVAHIK_clean_linker_0, # of connection points: 2
#     Edge 20, Type (0, 1), BuildingBlock: UVAHIK_clean_linker_0, # of connection points: 2
#     Edge 21, Type (0, 1), BuildingBlock: UVAHIK_clean_linker_0, # of connection points: 2
#     Edge 22, Type (0, 1), BuildingBlock: UVAHIK_clean_linker_0, # of connection points: 2
#     Edge 23, Type (0, 1), BuildingBlock: UVAHIK_clean_linker_0, # of connection points: 2
#     Edge 24, Type (0, 1), BuildingBlock: UVAHIK_clean_linker_0, # of connection points: 2
#     Edge 25, Type (0, 1), BuildingBlock: UVAHIK_clean_linker_0, # of connection points: 2
#     Edge 26, Type (0, 1), BuildingBlock: UVAHIK_clean_linker_0, # of connection points: 2
#     Edge 27, Type (0, 1), BuildingBlock: UVAHIK_clean_linker_0, # of connection points: 2
#     Edge 28, Type (0, 1), BuildingBlock: UVAHIK_clean_linker_0, # of connection points: 2
#     Edge 29, Type (0, 1), BuildingBlock: UVAHIK_clean_linker_0, # of connection points: 2
#     Edge 30, Type (0, 1), BuildingBlock: UVAHIK_clean_linker_0, # of connection points: 2
#     Edge 31, Type (0, 1), BuildingBlock: UVAHIK_clean_linker_0, # of connection points: 2
#     Edge 32, Type (0, 1), BuildingBlock: UVAHIK_clean_linker_0, # of connection points: 2
#     Edge 33, Type (0, 1), BuildingBlock: UVAHIK_clean_linker_0, # of connection points: 2
#     Edge 34, Type (0, 1), BuildingBlock: UVAHIK_clean_linker_0, # of connection points: 2
# Relax obj value: 0.045
# Max RMSD: 0.138
# Mean RMSD: 0.066
data_MOF--net-the--node1-GIZVER_clean_sbu_0--node2-ESEHIV_clean_linker_0--edge1-UVAHIK_clean_linker_0
_symmetry_space_group_name_H-M    P1
_symmetry_Int_Tables_number       1
_symmetry_cell_setting            triclinic
loop_
_symmetry_equiv_pos_as_xyz
'x, y, z'
_cell_length_a     50.726731
_cell_length_b     47.80649
_cell_length_c     44.199453
_cell_angle_alpha  86.725523
_cell_angle_beta   94.386831
_cell_angle_gamma 101.88544
loop_
_atom_site_label
_atom_site_type_symbol
_atom_site_fract_x
_atom_site_fract_y
_atom_site_fract_z
_atom_type_partial_charge
H0 H 0.27966 0.37041 0.35732 0.0
H1 H 0.34925 0.33202 0.35987 0.0
H2 H 0.28609 0.29972 0.42007 0.0
C3 C 0.29056 0.35429 0.36669 0.0
C4 C 0.28002 0.33532 0.39024 0.0
C5 C 0.31538 0.35308 0.35547 0.0
C6 C 0.33002 0.33299 0.36845 0.0
C7 C 0.31971 0.31379 0.39199 0.0
C8 C 0.29464 0.31505 0.40264 0.0
H9 H 0.71182 0.29766 0.35018 0.0
H10 H 0.71459 0.36592 0.28221 0.0
H11 H 0.64695 0.29479 0.28112 0.0
C12 C 0.70293 0.30672 0.32983 0.0
C13 C 0.67777 0.29271 0.317 0.0
C14 C 0.71618 0.3332 0.31751 0.0
C15 C 0.70416 0.34568 0.29183 0.0
C16 C 0.67917 0.33189 0.27827 0.0
C17 C 0.66628 0.30544 0.29114 0.0
H18 H 0.66476 0.73592 0.29993 0.0
H19 H 0.7272 0.68689 0.30264 0.0
H20 H 0.72811 0.74685 0.37164 0.0
C21 C 0.68319 0.73068 0.31058 0.0
C22 C 0.69521 0.74441 0.33709 0.0
C23 C 0.69441 0.70968 0.29814 0.0
C24 C 0.71837 0.70303 0.31201 0.0
C25 C 0.73064 0.71647 0.3384 0.0
C26 C 0.7189 0.73698 0.35089 0.0
H27 H 0.28027 0.71563 0.36148 0.0
H28 H 0.34655 0.71967 0.30534 0.0
H29 H 0.27638 0.65222 0.29491 0.0
C30 C 0.28905 0.70706 0.34338 0.0
C31 C 0.2748 0.68228 0.32913 0.0
C32 C 0.31474 0.72089 0.33464 0.0
C33 C 0.32656 0.70935 0.31179 0.0
C34 C 0.31298 0.68431 0.29764 0.0
C35 C 0.28697 0.6713 0.30607 0.0
H36 H 0.2972 0.71861 0.67609 0.0
H37 H 0.29556 0.64715 0.74 0.0
H38 H 0.36177 0.71933 0.74549 0.0
C39 C 0.30658 0.70847 0.69536 0.0
C40 C 0.33116 0.72273 0.70941 0.0
C41 C 0.29367 0.68119 0.70609 0.0
C42 C 0.30526 0.66826 0.7317 0.0
C43 C 0.32962 0.68224 0.74631 0.0
C44 C 0.3424 0.70931 0.73497 0.0
H45 H 0.28658 0.33636 0.72834 0.0
H46 H 0.34886 0.28759 0.72782 0.0
H47 H 0.28189 0.27403 0.66064 0.0
C48 C 0.29475 0.31992 0.7186 0.0
C49 C 0.28103 0.30569 0.69322 0.0
C50 C 0.31919 0.31352 0.73127 0.0
C51 C 0.32992 0.29247 0.71829 0.0
C52 C 0.31665 0.27815 0.69269 0.0
C53 C 0.29214 0.28481 0.68045 0.0
H54 H 0.66804 0.30251 0.7226 0.0
H55 H 0.73622 0.30181 0.67092 0.0
H56 H 0.73735 0.37137 0.72914 0.0
C57 C 0.68821 0.31231 0.71631 0.0
C58 C 0.70158 0.33815 0.72906 0.0
C59 C 0.70046 0.29935 0.69495 0.0
C60 C 0.7266 0.31224 0.68681 0.0
C61 C 0.7404 0.33813 0.69923 0.0
C62 C 0.72757 0.35087 0.72031 0.0
H63 H 0.66667 0.70092 0.65621 0.0
H64 H 0.73079 0.65405 0.66712 0.0
H65 H 0.73431 0.72339 0.60028 0.0
C66 C 0.68556 0.697 0.64919 0.0
C67 C 0.69903 0.71456 0.62623 0.0
C68 C 0.69719 0.67543 0.66433 0.0
C69 C 0.72207 0.67111 0.65588 0.0
C70 C 0.7355 0.68824 0.63269 0.0
C71 C 0.72385 0.70988 0.61798 0.0
Co72 Co 0.05591 0.47323 0.52934 0.0
Co73 Co 0.02788 0.46169 0.47712 0.0
Co74 Co 0.00553 0.50849 0.5096 0.0
O75 O 0.019 0.47203 0.51448 0.0
H76 H 0.00642 0.45661 0.52383 0.0
O77 O 0.99251 0.5451 0.50531 0.0
Co78 Co 0.95555 0.54616 0.49381 0.0
Co79 Co 0.98683 0.55422 0.54488 0.0
H80 H 0.00508 0.56044 0.49582 0.0
O81 O 0.03294 0.42478 0.471 0.0
O82 O 0.06356 0.46167 0.48958 0.0
O83 O 0.03 0.49018 0.44431 0.0
O84 O 0.02923 0.52507 0.47525 0.0
O85 O 0.97576 0.48989 0.48005 0.0
O86 O 0.92224 0.55047 0.4827 0.0
O87 O 0.96066 0.58394 0.48222 0.0
O88 O 0.94533 0.5066 0.50271 0.0
O89 O 0.98171 0.49182 0.54343 0.0
O90 O 0.98602 0.52496 0.57744 0.0
O91 O 0.95083 0.5547 0.53591 0.0
O92 O 0.98289 0.59078 0.55386 0.0
C93 C 0.07717 0.4454 0.55198 0.0
C94 C 0.05953 0.52921 0.53453 0.0
C95 C 0.03517 0.51651 0.45018 0.0
C96 C 0.05755 0.43564 0.48054 0.0
C97 C 0.93449 0.57668 0.47691 0.0
C98 C 0.95103 0.48972 0.48412 0.0
C99 C 0.97818 0.49925 0.56985 0.0
C100 C 0.95769 0.58 0.54681 0.0
O101 O 0.08877 0.47139 0.54427 0.0
O102 O 0.05149 0.4364 0.54444 0.0
O103 O 0.0348 0.5273 0.53945 0.0
O104 O 0.06576 0.51204 0.51679 0.0
Co105 Co 0.53348 0.95531 0.4991 0.0
Co106 Co 0.54699 0.97852 0.5524 0.0
Co107 Co 0.50522 0.01042 0.51594 0.0
O108 O 0.53734 0.99298 0.51386 0.0
H109 H 0.5525 0.00631 0.50593 0.0
O110 O 0.47313 0.02804 0.51814 0.0
Co111 Co 0.47753 0.06621 0.53179 0.0
Co112 Co 0.46278 0.04156 0.47944 0.0
H113 H 0.45813 0.015 0.52674 0.0
O114 O 0.58149 0.97156 0.56142 0.0
O115 O 0.54556 0.94198 0.53982 0.0
O116 O 0.52125 0.97403 0.58324 0.0
O117 O 0.48896 0.98314 0.54952 0.0
O118 O 0.52682 0.03743 0.54621 0.0
O119 O 0.47843 0.10056 0.54541 0.0
O120 O 0.44339 0.06303 0.5434 0.0
O121 O 0.5141 0.07469 0.52255 0.0
O122 O 0.52128 0.0376 0.48204 0.0
O123 O 0.48778 0.04342 0.44836 0.0
O124 O 0.46692 0.07907 0.4905 0.0
O125 O 0.42915 0.05171 0.47017 0.0
C126 C 0.55746 0.93318 0.47853 0.0
C127 C 0.4803 0.95621 0.4912 0.0
C128 C 0.49648 0.97247 0.57513 0.0
C129 C 0.57058 0.94689 0.55051 0.0
C130 C 0.4535 0.08939 0.5507 0.0
C131 C 0.53061 0.06438 0.54069 0.0
C132 C 0.51281 0.04643 0.45593 0.0
C133 C 0.44217 0.07634 0.4794 0.0
O134 O 0.53281 0.92145 0.48444 0.0
O135 O 0.56742 0.95942 0.48637 0.0
O136 O 0.48371 0.98321 0.48586 0.0
O137 O 0.4971 0.94604 0.50914 0.0
Co138 Co 0.47787 0.5261 0.0747 0.0
Co139 Co 0.46452 0.47475 0.0531 0.0
Co140 Co 0.50786 0.51301 0.01247 0.0
O141 O 0.47509 0.51111 0.03514 0.0
H142 H 0.46029 0.51616 0.02238 0.0
O143 O 0.54055 0.51472 0.98948 0.0
Co144 Co 0.53701 0.49892 0.95006 0.0
Co145 Co 0.55146 0.55056 0.97055 0.0
H146 H 0.55537 0.50961 1.00215 0.0
O147 O 0.42952 0.46205 0.06482 0.0
O148 O 0.46492 0.48713 0.09211 0.0
O149 O 0.4898 0.44933 0.05501 0.0
O150 O 0.52318 0.4843 0.0405 0.0
O151 O 0.48649 0.48163 0.98686 0.0
O152 O 0.53679 0.48353 0.91446 0.0
O153 O 0.57079 0.49163 0.95073 0.0
O154 O 0.50087 0.50344 0.94427 0.0
O155 O 0.49262 0.54192 0.98445 0.0
O156 O 0.52641 0.57587 0.96878 0.0
O157 O 0.54918 0.53741 0.9316 0.0
O158 O 0.58592 0.56278 0.95621 0.0
C159 C 0.45327 0.54294 0.10039 0.0
C160 C 0.53154 0.54003 0.0674 0.0
C161 C 0.51478 0.45964 0.05311 0.0
C162 C 0.43993 0.47344 0.09012 0.0
C163 C 0.56123 0.48165 0.9243 0.0
C164 C 0.48359 0.48518 0.95808 0.0
C165 C 0.50137 0.56621 0.97113 0.0
C166 C 0.57403 0.55128 0.93157 0.0
O167 O 0.47753 0.54074 0.11059 0.0
O168 O 0.44411 0.53356 0.0736 0.0
O169 O 0.52911 0.54415 0.03859 0.0
O170 O 0.51399 0.52155 0.08071 0.0
C171 C 0.2325 0.34249 0.38208 0.0
C172 C 0.25393 0.33707 0.40208 0.0
C173 C 0.2091 0.34754 0.39334 0.0
C174 C 0.16813 0.34141 0.45855 0.0
H175 H 0.15573 0.41595 0.42903 0.0
C176 C 0.10616 0.43296 0.4856 0.0
C177 C 0.07912 0.41934 0.47952 0.0
C178 C 0.12694 0.41904 0.48099 0.0
C179 C 0.15904 0.39514 0.43751 0.0
H180 H 0.26698 0.33093 0.4495 0.0
H181 H 0.22569 0.33942 0.46913 0.0
H182 H 0.19177 0.39704 0.40936 0.0
H183 H 0.05254 0.37963 0.46637 0.0
H184 H 0.08925 0.35527 0.45809 0.0
H185 H 0.1349 0.33965 0.48653 0.0
C186 C 0.22718 0.33973 0.44479 0.0
C187 C 0.17941 0.38424 0.42607 0.0
C188 C 0.25076 0.33492 0.43353 0.0
C189 C 0.07322 0.39077 0.47085 0.0
C190 C 0.09412 0.37674 0.46639 0.0
C191 C 0.14729 0.35219 0.46969 0.0
C192 C 0.20659 0.34695 0.42477 0.0
C193 C 0.18416 0.35735 0.43649 0.0
C194 C 0.12107 0.39123 0.47037 0.0
C195 C 0.14285 0.37925 0.45937 0.0
H196 H 0.23409 0.34355 0.35772 0.0
H197 H 0.19327 0.35282 0.37753 0.0
H198 H 0.17159 0.32063 0.46689 0.0
H199 H 0.11141 0.45486 0.49261 0.0
H200 H 0.14766 0.43046 0.4844 0.0
C201 C 0.63466 0.25924 0.33073 0.0
C202 C 0.66305 0.26513 0.3308 0.0
C203 C 0.62066 0.23311 0.34245 0.0
C204 C 0.62528 0.17479 0.39719 0.0
H205 H 0.56622 0.13164 0.34741 0.0
C206 C 0.56027 0.0697 0.44403 0.0
C207 C 0.5323 0.06554 0.43661 0.0
C208 C 0.57828 0.09112 0.42884 0.0
C209 C 0.58242 0.14349 0.36183 0.0
H210 H 0.69882 0.24786 0.34409 0.0
H211 H 0.67421 0.20262 0.36579 0.0
H212 H 0.59338 0.17557 0.32657 0.0
H213 H 0.50155 0.08013 0.40654 0.0
H214 H 0.53254 0.11765 0.3809 0.0
H215 H 0.61361 0.14378 0.43303 0.0
C216 C 0.66298 0.21833 0.35614 0.0
C217 C 0.59807 0.16859 0.34975 0.0
C218 C 0.67703 0.24434 0.34385 0.0
C219 C 0.52294 0.08249 0.41277 0.0
C220 C 0.54086 0.10408 0.39789 0.0
C221 C 0.60931 0.14992 0.4095 0.0
C222 C 0.63464 0.21236 0.35517 0.0
C223 C 0.61943 0.18467 0.36742 0.0
C224 C 0.56876 0.10913 0.40607 0.0
C225 C 0.58738 0.13411 0.39213 0.0
H226 H 0.6231 0.27491 0.32181 0.0
H227 H 0.59882 0.22924 0.34193 0.0
H228 H 0.64154 0.18692 0.41135 0.0
H229 H 0.56822 0.05699 0.46221 0.0
H230 H 0.59963 0.09387 0.43538 0.0
C231 C 0.77802 0.70878 0.33761 0.0
C232 C 0.75505 0.70801 0.35368 0.0
C233 C 0.80066 0.69978 0.35179 0.0
C234 C 0.83051 0.67912 0.4284 0.0
H235 H 0.87087 0.63969 0.38001 0.0
C236 C 0.89147 0.59433 0.47402 0.0
C237 C 0.91817 0.59786 0.46564 0.0
C238 C 0.87488 0.61268 0.46191 0.0
C239 C 0.86003 0.65104 0.39369 0.0
H240 H 0.73752 0.6971 0.39696 0.0
H241 H 0.77625 0.68003 0.42136 0.0
H242 H 0.83496 0.66149 0.35548 0.0
H243 H 0.9486 0.62359 0.43831 0.0
H244 H 0.91889 0.65512 0.4158 0.0
H245 H 0.85459 0.6666 0.4669 0.0
C246 C 0.77752 0.68861 0.3982 0.0
C247 C 0.83944 0.66369 0.37967 0.0
C248 C 0.75514 0.6982 0.38419 0.0
C249 C 0.92814 0.62051 0.44523 0.0
C250 C 0.91119 0.63842 0.43234 0.0
C251 C 0.8507 0.6659 0.44247 0.0
C252 C 0.80065 0.68914 0.38221 0.0
C253 C 0.82406 0.67759 0.39686 0.0
C254 C 0.88436 0.63449 0.44047 0.0
C255 C 0.86542 0.65149 0.42528 0.0
H256 H 0.77848 0.71649 0.31409 0.0
H257 H 0.81815 0.70118 0.33878 0.0
H258 H 0.81977 0.6902 0.44244 0.0
H259 H 0.88323 0.57707 0.48971 0.0
H260 H 0.85423 0.60909 0.46838 0.0
C261 C 0.34107 0.77155 0.33266 0.0
C262 C 0.32947 0.74709 0.34984 0.0
C263 C 0.35479 0.79627 0.34701 0.0
C264 C 0.36528 0.83051 0.42244 0.0
H265 H 0.42845 0.87659 0.38704 0.0
C266 C 0.44828 0.90908 0.48911 0.0
C267 C 0.45822 0.93603 0.47532 0.0
C268 C 0.42972 0.8884 0.47323 0.0
C269 C 0.41063 0.86415 0.39698 0.0
H270 H 0.32359 0.72912 0.39548 0.0
H271 H 0.34829 0.77165 0.42059 0.0
H272 H 0.4025 0.8354 0.36055 0.0
H273 H 0.45607 0.96272 0.43429 0.0
H274 H 0.42392 0.92611 0.40608 0.0
H275 H 0.3744 0.85866 0.45959 0.0
C276 C 0.34609 0.77232 0.39602 0.0
C277 C 0.39565 0.84051 0.38178 0.0
C278 C 0.33203 0.74779 0.38166 0.0
C279 C 0.44862 0.94219 0.44552 0.0
C280 C 0.43041 0.92121 0.42935 0.0
C281 C 0.38052 0.85387 0.43783 0.0
C282 C 0.35762 0.79701 0.37894 0.0
C283 C 0.37288 0.82312 0.39442 0.0
C284 C 0.42103 0.89399 0.44296 0.0
C285 C 0.40348 0.87079 0.4254 0.0
H286 H 0.33916 0.7717 0.30808 0.0
H287 H 0.3629 0.81489 0.33297 0.0
H288 H 0.34756 0.8182 0.43265 0.0
H289 H 0.45526 0.90377 0.5121 0.0
H290 H 0.42298 0.86759 0.48425 0.0
C291 C 0.24568 0.65335 0.70525 0.0
C292 C 0.26861 0.66593 0.68964 0.0
C293 C 0.22207 0.63936 0.68939 0.0
C294 C 0.19858 0.60158 0.61963 0.0
H295 H 0.12881 0.61941 0.63052 0.0
C296 C 0.10693 0.55678 0.53989 0.0
C297 C 0.08149 0.5484 0.55184 0.0
C298 C 0.12877 0.57228 0.55706 0.0
C299 C 0.14803 0.61381 0.62747 0.0
H300 H 0.28494 0.67332 0.64534 0.0
H301 H 0.24399 0.64847 0.61778 0.0
H302 H 0.16877 0.64312 0.6607 0.0
H303 H 0.05878 0.55032 0.59094 0.0
H304 H 0.09719 0.57662 0.62152 0.0
H305 H 0.17821 0.57175 0.58725 0.0
C306 C 0.24416 0.64963 0.6422 0.0
C307 C 0.17093 0.6275 0.64474 0.0
C308 C 0.26753 0.66399 0.65795 0.0
C309 C 0.07814 0.55664 0.58108 0.0
C310 C 0.1002 0.57178 0.59856 0.0
C311 C 0.17573 0.58761 0.60275 0.0
C312 C 0.22115 0.63721 0.65771 0.0
C313 C 0.1965 0.62178 0.64069 0.0
C314 C 0.12599 0.57937 0.58698 0.0
C315 C 0.15012 0.59379 0.60602 0.0
H316 H 0.24592 0.65464 0.72966 0.0
H317 H 0.20468 0.62984 0.70193 0.0
H318 H 0.21795 0.59639 0.61637 0.0
H319 H 0.11006 0.55105 0.51726 0.0
H320 H 0.14795 0.57847 0.54684 0.0
C321 C 0.31311 0.23114 0.66805 0.0
C322 C 0.32894 0.25718 0.67787 0.0
C323 C 0.32462 0.21195 0.65317 0.0
C324 C 0.38247 0.20936 0.60848 0.0
H325 H 0.3678 0.12818 0.63031 0.0
C326 C 0.4488 0.13536 0.57178 0.0
C327 C 0.43688 0.10734 0.56367 0.0
C328 C 0.43368 0.15275 0.58393 0.0
C329 C 0.37178 0.15071 0.62357 0.0
H330 H 0.36927 0.28348 0.67961 0.0
H331 H 0.38935 0.25002 0.65385 0.0
H332 H 0.34518 0.16013 0.65533 0.0
H333 H 0.39945 0.07579 0.56162 0.0
H334 H 0.37282 0.10641 0.58281 0.0
H335 H 0.40899 0.20015 0.57678 0.0
C336 C 0.368 0.24446 0.65754 0.0
C337 C 0.35887 0.16903 0.63798 0.0
C338 C 0.35656 0.2635 0.67261 0.0
C339 C 0.40929 0.09719 0.56784 0.0
C340 C 0.39407 0.11471 0.58006 0.0
C341 C 0.39522 0.19109 0.59398 0.0
C342 C 0.35216 0.21852 0.64749 0.0
C343 C 0.36445 0.19865 0.63098 0.0
C344 C 0.40612 0.14275 0.58824 0.0
C345 C 0.39048 0.1616 0.60174 0.0
H346 H 0.2918 0.22556 0.67194 0.0
H347 H 0.31185 0.19221 0.6456 0.0
H348 H 0.38676 0.23197 0.60207 0.0
H349 H 0.46999 0.14395 0.56894 0.0
H350 H 0.44382 0.17398 0.59045 0.0
C351 C 0.77461 0.35084 0.65946 0.0
C352 C 0.76775 0.35235 0.68953 0.0
C353 C 0.79996 0.36464 0.65021 0.0
C354 C 0.85416 0.42565 0.66515 0.0
H355 H 0.89724 0.38587 0.6208 0.0
C356 C 0.95461 0.48582 0.61837 0.0
C357 C 0.95969 0.47888 0.58918 0.0
C358 C 0.93404 0.46846 0.63437 0.0
C359 C 0.88539 0.39748 0.63284 0.0
H360 H 0.78288 0.36936 0.73351 0.0
H361 H 0.82663 0.39442 0.71682 0.0
H362 H 0.85512 0.35969 0.64046 0.0
H363 H 0.94765 0.44751 0.55447 0.0
H364 H 0.91164 0.4181 0.58159 0.0
H365 H 0.88341 0.46375 0.65627 0.0
C366 C 0.81226 0.38234 0.70059 0.0
C367 C 0.86131 0.38236 0.64423 0.0
C368 C 0.78708 0.36809 0.71004 0.0
C369 C 0.94451 0.45353 0.57697 0.0
C370 C 0.92378 0.43646 0.59272 0.0
C371 C 0.878 0.44092 0.65328 0.0
C372 C 0.81894 0.38073 0.67059 0.0
C373 C 0.84532 0.39636 0.66021 0.0
C374 C 0.91784 0.44392 0.62141 0.0
C375 C 0.89382 0.42714 0.63658 0.0
H376 H 0.76022 0.33953 0.64275 0.0
H377 H 0.80448 0.36336 0.62682 0.0
H378 H 0.84209 0.43701 0.6772 0.0
H379 H 0.96598 0.50511 0.62853 0.0
H380 H 0.93054 0.47462 0.65667 0.0
C381 C 0.66066 0.73541 0.60213 0.0
C382 C 0.68808 0.7388 0.61187 0.0
C383 C 0.65045 0.75868 0.58923 0.0
C384 C 0.66322 0.83608 0.5916 0.0
H385 H 0.61124 0.83149 0.52206 0.0
C386 C 0.61475 0.93125 0.555 0.0
C387 C 0.58656 0.9245 0.54998 0.0
C388 C 0.62971 0.90976 0.55609 0.0
C389 C 0.6257 0.83303 0.54154 0.0
H390 H 0.72637 0.76902 0.61574 0.0
H391 H 0.70856 0.80955 0.59312 0.0
H392 H 0.63235 0.79067 0.53688 0.0
H393 H 0.55197 0.89031 0.54058 0.0
H394 H 0.57794 0.85268 0.54343 0.0
H395 H 0.6559 0.87772 0.59731 0.0
C396 C 0.69499 0.78895 0.5954 0.0
C397 C 0.63775 0.80973 0.54997 0.0
C398 C 0.70518 0.76573 0.60815 0.0
C399 C 0.57369 0.8961 0.54474 0.0
C400 C 0.58861 0.87458 0.54604 0.0
C401 C 0.65108 0.85922 0.58335 0.0
C402 C 0.66749 0.78572 0.58612 0.0
C403 C 0.6563 0.81095 0.57536 0.0
C404 C 0.61671 0.88109 0.55248 0.0
C405 C 0.63186 0.85779 0.55855 0.0
H406 H 0.64712 0.7148 0.60455 0.0
H407 H 0.6291 0.75572 0.58254 0.0
H408 H 0.67718 0.83744 0.61152 0.0
H409 H 0.62526 0.95307 0.55849 0.0
H410 H 0.6514 0.9155 0.56047 0.0
C411 C 0.34718 0.27685 0.38557 0.0
C412 C 0.33449 0.29165 0.40476 0.0
C413 C 0.35997 0.25506 0.39738 0.0
C414 C 0.35867 0.20193 0.45967 0.0
H415 H 0.42899 0.19683 0.43427 0.0
C416 C 0.44498 0.12875 0.48265 0.0
C417 C 0.42938 0.10148 0.47679 0.0
C418 C 0.43355 0.1529 0.47838 0.0
C419 C 0.40948 0.19815 0.44183 0.0
H420 H 0.32593 0.29574 0.4515 0.0
H421 H 0.34787 0.25714 0.472 0.0
H422 H 0.40955 0.23819 0.41758 0.0
H423 H 0.38931 0.07792 0.4633 0.0
H424 H 0.36934 0.12037 0.45555 0.0
H425 H 0.35845 0.16151 0.48344 0.0
C426 C 0.34773 0.26242 0.44783 0.0
C427 C 0.39829 0.22164 0.43207 0.0
C428 C 0.33516 0.28442 0.43607 0.0
C429 C 0.40186 0.0987 0.46774 0.0
C430 C 0.39039 0.12292 0.46357 0.0
C431 C 0.36978 0.17823 0.46921 0.0
C432 C 0.36013 0.2475 0.42855 0.0
C433 C 0.37269 0.22358 0.44063 0.0
C434 C 0.40632 0.15025 0.46821 0.0
C435 C 0.39517 0.17606 0.46013 0.0
H436 H 0.34661 0.28153 0.3613 0.0
H437 H 0.3691 0.24358 0.38199 0.0
H438 H 0.3388 0.20289 0.46641 0.0
H439 H 0.46622 0.1316 0.48987 0.0
H440 H 0.44615 0.17374 0.48246 0.0
C441 C 0.76367 0.33415 0.3392 0.0
C442 C 0.74209 0.34831 0.33236 0.0
C443 C 0.7876 0.34806 0.35449 0.0
C444 C 0.81187 0.4015 0.41001 0.0
H445 H 0.88276 0.41084 0.37896 0.0
C446 C 0.90237 0.4771 0.46613 0.0
C447 C 0.92849 0.47135 0.46652 0.0
C448 C 0.88076 0.46069 0.44956 0.0
C449 C 0.86323 0.40799 0.38831 0.0
H450 H 0.72862 0.38803 0.33609 0.0
H451 H 0.77014 0.41206 0.36361 0.0
H452 H 0.84308 0.38472 0.35002 0.0
H453 H 0.95222 0.44342 0.44977 0.0
H454 H 0.91404 0.41371 0.42164 0.0
H455 H 0.83152 0.42357 0.4487 0.0
C456 C 0.76864 0.39036 0.35674 0.0
C457 C 0.84049 0.39318 0.37158 0.0
C458 C 0.74498 0.37669 0.3409 0.0
C459 C 0.93237 0.44847 0.4499 0.0
C460 C 0.91046 0.43156 0.43362 0.0
C461 C 0.83453 0.41572 0.427 0.0
C462 C 0.79013 0.37614 0.36382 0.0
C463 C 0.81456 0.39032 0.38203 0.0
C464 C 0.88427 0.43743 0.4333 0.0
C465 C 0.86054 0.41984 0.41613 0.0
H466 H 0.76198 0.31228 0.33279 0.0
H467 H 0.80383 0.33662 0.35979 0.0
H468 H 0.79215 0.39912 0.41884 0.0
H469 H 0.89852 0.49465 0.4784 0.0
H470 H 0.86128 0.46666 0.44929 0.0
C471 C 0.65439 0.761 0.35253 0.0
C472 C 0.68256 0.76572 0.35098 0.0
C473 C 0.64248 0.78073 0.36589 0.0
C474 C 0.65681 0.84003 0.41908 0.0
H475 H 0.58931 0.85579 0.38214 0.0
C476 C 0.60191 0.92497 0.46242 0.0
C477 C 0.57382 0.91601 0.46392 0.0
C478 C 0.61681 0.90807 0.44863 0.0
C479 C 0.60807 0.8515 0.39288 0.0
H480 H 0.72022 0.79517 0.36216 0.0
H481 H 0.69939 0.82962 0.38549 0.0
H482 H 0.61204 0.82373 0.35799 0.0
H483 H 0.53951 0.88204 0.45255 0.0
H484 H 0.56526 0.85297 0.42867 0.0
H485 H 0.65258 0.86783 0.45412 0.0
C486 C 0.68656 0.81044 0.37666 0.0
C487 C 0.6211 0.83305 0.37905 0.0
C488 C 0.6985 0.79069 0.36326 0.0
C489 C 0.56107 0.88977 0.45164 0.0
C490 C 0.57583 0.8731 0.43775 0.0
C491 C 0.64375 0.85859 0.43294 0.0
C492 C 0.65837 0.80574 0.37808 0.0
C493 C 0.64543 0.8267 0.39216 0.0
C494 C 0.60383 0.88208 0.43582 0.0
C495 C 0.619 0.86418 0.42021 0.0
H496 H 0.64152 0.74176 0.3439 0.0
H497 H 0.62076 0.77609 0.36709 0.0
H498 H 0.67542 0.83546 0.42995 0.0
H499 H 0.61237 0.94492 0.47198 0.0
H500 H 0.63838 0.91556 0.4475 0.0
C501 C 0.22914 0.6832 0.34798 0.0
C502 C 0.24757 0.6675 0.33872 0.0
C503 C 0.20383 0.66923 0.35733 0.0
C504 C 0.15284 0.60334 0.34948 0.0
H505 H 0.13161 0.61816 0.42846 0.0
C506 C 0.06787 0.52649 0.40927 0.0
C507 C 0.05343 0.53684 0.43059 0.0
C508 C 0.08887 0.54473 0.39496 0.0
C509 C 0.13678 0.61414 0.40602 0.0
H510 H 0.25351 0.62447 0.33267 0.0
H511 H 0.20905 0.60043 0.34771 0.0
H512 H 0.17349 0.64579 0.40963 0.0
H513 H 0.04864 0.57506 0.45194 0.0
H514 H 0.08447 0.60715 0.42598 0.0
H515 H 0.11613 0.57206 0.34541 0.0
C516 C 0.21432 0.62358 0.34765 0.0
C517 C 0.16094 0.62991 0.39536 0.0
C518 C 0.23979 0.63745 0.33886 0.0
C519 C 0.05942 0.5663 0.43577 0.0
C520 C 0.08023 0.58467 0.42111 0.0
C521 C 0.12845 0.5879 0.35986 0.0
C522 C 0.19613 0.63929 0.3571 0.0
C523 C 0.16945 0.62427 0.36726 0.0
C524 C 0.09583 0.57399 0.4012 0.0
C525 C 0.12031 0.59262 0.38859 0.0
H526 H 0.23409 0.70634 0.34773 0.0
H527 H 0.1901 0.68185 0.36435 0.0
H528 H 0.15877 0.59883 0.32752 0.0
H529 H 0.06402 0.50391 0.40482 0.0
H530 H 0.10049 0.53545 0.38018 0.0
C531 C 0.34439 0.75751 0.66531 0.0
C532 C 0.34562 0.751 0.69679 0.0
C533 C 0.35865 0.78346 0.65337 0.0
C534 C 0.39748 0.85599 0.67546 0.0
H535 H 0.42526 0.8557 0.59619 0.0
C536 C 0.48214 0.94328 0.6225 0.0
C537 C 0.47595 0.95275 0.59257 0.0
C538 C 0.46434 0.921 0.63684 0.0
C539 C 0.41746 0.85612 0.61827 0.0
H540 H 0.36258 0.76767 0.74034 0.0
H541 H 0.38878 0.81178 0.71947 0.0
H542 H 0.3988 0.8119 0.61775 0.0
H543 H 0.44566 0.94683 0.55471 0.0
H544 H 0.41513 0.90767 0.57953 0.0
H545 H 0.41766 0.90018 0.67619 0.0
C546 C 0.37616 0.79719 0.70393 0.0
C547 C 0.40206 0.83103 0.63063 0.0
C548 C 0.36143 0.77147 0.71594 0.0
C549 C 0.45106 0.94027 0.57783 0.0
C550 C 0.4336 0.91769 0.59192 0.0
C551 C 0.41343 0.88097 0.6633 0.0
C552 C 0.37514 0.80355 0.67242 0.0
C553 C 0.39163 0.83055 0.65935 0.0
C554 C 0.44033 0.90745 0.62129 0.0
C555 C 0.42338 0.88127 0.63451 0.0
H556 H 0.33285 0.74233 0.64961 0.0
H557 H 0.3567 0.78764 0.62907 0.0
H558 H 0.38954 0.8568 0.69736 0.0
H559 H 0.50115 0.95239 0.63444 0.0
H560 H 0.46999 0.9134 0.65949 0.0
C561 C 0.25162 0.31763 0.64783 0.0
C562 C 0.25568 0.31359 0.67948 0.0
C563 C 0.22877 0.32722 0.63512 0.0
C564 C 0.17917 0.36825 0.65534 0.0
H565 H 0.14359 0.34548 0.57715 0.0
C566 C 0.11862 0.43906 0.58314 0.0
C567 C 0.09384 0.42658 0.56834 0.0
C568 C 0.13537 0.42212 0.59785 0.0
C569 C 0.15308 0.35177 0.59919 0.0
H570 H 0.23815 0.31498 0.72244 0.0
H571 H 0.19826 0.33157 0.70031 0.0
H572 H 0.17798 0.32041 0.60067 0.0
H573 H 0.06731 0.3864 0.55702 0.0
H574 H 0.09698 0.35643 0.58285 0.0
H575 H 0.15461 0.39975 0.65379 0.0
C576 C 0.213 0.32789 0.68532 0.0
C577 C 0.17298 0.33765 0.61251 0.0
C578 C 0.23587 0.31838 0.69802 0.0
C579 C 0.08617 0.39659 0.56853 0.0
C580 C 0.10321 0.37949 0.58308 0.0
C581 C 0.15942 0.38236 0.64202 0.0
C582 C 0.20939 0.33295 0.65375 0.0
C583 C 0.18658 0.34603 0.64055 0.0
C584 C 0.12795 0.39216 0.59804 0.0
C585 C 0.14651 0.3747 0.61353 0.0
H586 H 0.26663 0.31443 0.63293 0.0
H587 H 0.22686 0.33124 0.61077 0.0
H588 H 0.18935 0.37553 0.67676 0.0
H589 H 0.1252 0.4621 0.58339 0.0
H590 H 0.15446 0.43257 0.60868 0.0
C591 C 0.68436 0.27168 0.64825 0.0
C592 C 0.6855 0.27308 0.68002 0.0
C593 C 0.66936 0.24763 0.63385 0.0
C594 C 0.64039 0.17114 0.64431 0.0
H595 H 0.59016 0.18533 0.57745 0.0
C596 C 0.56103 0.08009 0.58685 0.0
C597 C 0.55301 0.08448 0.55613 0.0
C598 C 0.57901 0.10177 0.60239 0.0
C599 C 0.60443 0.18082 0.59564 0.0
H600 H 0.67239 0.25004 0.72164 0.0
H601 H 0.6464 0.20765 0.69636 0.0
H602 H 0.61808 0.22538 0.6036 0.0
H603 H 0.55894 0.11384 0.51696 0.0
H604 H 0.59121 0.15075 0.54327 0.0
H605 H 0.62718 0.12654 0.63594 0.0
C606 C 0.65706 0.2253 0.6827 0.0
C607 C 0.62032 0.2039 0.61077 0.0
C608 C 0.67175 0.2496 0.69712 0.0
C609 C 0.56452 0.11006 0.54077 0.0
C610 C 0.58282 0.13137 0.55603 0.0
C611 C 0.62472 0.14795 0.62882 0.0
C612 C 0.65544 0.22424 0.65087 0.0
C613 C 0.63852 0.19937 0.63521 0.0
C614 C 0.58963 0.12804 0.58733 0.0
C615 C 0.60657 0.15247 0.60413 0.0
H616 H 0.69457 0.28951 0.63446 0.0
H617 H 0.66861 0.24735 0.6093 0.0
H618 H 0.65437 0.16704 0.66301 0.0
H619 H 0.55228 0.06062 0.59926 0.0
H620 H 0.58359 0.09835 0.62647 0.0
C621 C 0.76688 0.68388 0.59302 0.0
C622 C 0.76168 0.6835 0.62384 0.0
C623 C 0.79092 0.67769 0.58464 0.0
C624 C 0.83942 0.63501 0.61187 0.0
H625 H 0.88198 0.67386 0.54678 0.0
C626 C 0.90959 0.58103 0.55235 0.0
C627 C 0.93659 0.59566 0.55238 0.0
C628 C 0.88963 0.59493 0.55986 0.0
C629 C 0.87031 0.66303 0.56511 0.0
H630 H 0.77814 0.67801 0.67005 0.0
H631 H 0.81999 0.66663 0.65533 0.0
H632 H 0.8452 0.69416 0.56387 0.0
H633 H 0.96377 0.63663 0.55873 0.0
H634 H 0.92846 0.66112 0.57183 0.0
H635 H 0.86395 0.60359 0.61274 0.0
C636 C 0.80534 0.67152 0.63774 0.0
C637 C 0.84932 0.67449 0.57475 0.0
C638 C 0.78138 0.67784 0.64613 0.0
C639 C 0.94312 0.62482 0.55882 0.0
C640 C 0.923 0.63885 0.56608 0.0
C641 C 0.8601 0.62345 0.60204 0.0
C642 C 0.81007 0.67087 0.60694 0.0
C643 C 0.83362 0.66041 0.59807 0.0
C644 C 0.89627 0.62374 0.56735 0.0
C645 C 0.87546 0.63717 0.57839 0.0
H646 H 0.75195 0.68794 0.57536 0.0
H647 H 0.79398 0.67696 0.56073 0.0
H648 H 0.82739 0.62357 0.62962 0.0
H649 H 0.90391 0.55859 0.5473 0.0
H650 H 0.86902 0.58303 0.56035 0.0
C651 C 0.35258 0.38605 0.32922 0.0
C652 C 0.32539 0.372 0.32934 0.0
C653 C 0.36217 0.40255 0.30374 0.0
C654 C 0.34892 0.40629 0.22195 0.0
H655 H 0.39927 0.47924 0.2254 0.0
C656 C 0.39591 0.45892 0.11417 0.0
C657 C 0.42389 0.46947 0.11705 0.0
C658 C 0.38116 0.45247 0.13993 0.0
C659 C 0.38532 0.45882 0.22409 0.0
H660 H 0.28681 0.36455 0.3032 0.0
H661 H 0.30361 0.39333 0.25869 0.0
H662 H 0.3788 0.45723 0.27159 0.0
H663 H 0.45813 0.48326 0.149 0.0
H664 H 0.43266 0.47103 0.19396 0.0
H665 H 0.35621 0.40688 0.17506 0.0
C666 C 0.31746 0.3916 0.2783 0.0
C667 C 0.37359 0.4463 0.2505 0.0
C668 C 0.30783 0.3753 0.30381 0.0
C669 C 0.4366 0.47492 0.14608 0.0
C670 C 0.42192 0.46814 0.17187 0.0
C671 C 0.36081 0.41861 0.19569 0.0
C672 C 0.34479 0.40505 0.27786 0.0
C673 C 0.35555 0.41974 0.2497 0.0
C674 C 0.39415 0.45608 0.16913 0.0
C675 C 0.37945 0.44482 0.19648 0.0
H676 H 0.36646 0.38406 0.34873 0.0
H677 H 0.38339 0.41249 0.30389 0.0
H678 H 0.33539 0.38559 0.22078 0.0
H679 H 0.38547 0.45505 0.09203 0.0
H680 H 0.35967 0.44394 0.13696 0.0
C681 C 0.34739 0.6405 0.77077 0.0
C682 C 0.34271 0.6683 0.77258 0.0
C683 C 0.36222 0.62856 0.7943 0.0
C684 C 0.38561 0.63314 0.87514 0.0
H685 H 0.4464 0.60383 0.85117 0.0
C686 C 0.4538 0.57195 0.95589 0.0
C687 C 0.4818 0.58102 0.95333 0.0
C688 C 0.43538 0.5831 0.93584 0.0
C689 C 0.4295 0.61195 0.8582 0.0
H690 H 0.3488 0.70489 0.80091 0.0
H691 H 0.37426 0.6838 0.8423 0.0
H692 H 0.4158 0.62076 0.81227 0.0
H693 H 0.51223 0.60979 0.92821 0.0
H694 H 0.48013 0.62878 0.89323 0.0
H695 H 0.3994 0.62413 0.92117 0.0
C696 C 0.36664 0.67134 0.82262 0.0
C697 C 0.41186 0.6214 0.83594 0.0
C698 C 0.35221 0.68346 0.7989 0.0
C699 C 0.49087 0.60229 0.931 0.0
C700 C 0.47249 0.61306 0.91074 0.0
C701 C 0.40303 0.62318 0.89745 0.0
C702 C 0.37225 0.64399 0.82032 0.0
C703 C 0.38988 0.63237 0.84415 0.0
C704 C 0.44458 0.60319 0.91256 0.0
C705 C 0.42536 0.61285 0.88918 0.0
H706 H 0.34046 0.62842 0.75068 0.0
H707 H 0.36613 0.60737 0.79199 0.0
H708 H 0.36878 0.64141 0.88209 0.0
H709 H 0.44609 0.55559 0.97277 0.0
H710 H 0.41395 0.57511 0.93772 0.0
C711 C 0.33799 0.35961 0.75676 0.0
C712 C 0.33391 0.32963 0.75736 0.0
C713 C 0.3518 0.37497 0.78114 0.0
C714 C 0.39844 0.36854 0.84952 0.0
H715 H 0.37907 0.43965 0.86834 0.0
C716 C 0.45126 0.4384 0.94926 0.0
C717 C 0.46172 0.46684 0.93985 0.0
C718 C 0.4331 0.42029 0.92983 0.0
C719 C 0.38465 0.41979 0.86339 0.0
H720 H 0.3409 0.29218 0.78414 0.0
H721 H 0.3644 0.31886 0.82721 0.0
H722 H 0.35238 0.41025 0.82919 0.0
H723 H 0.46043 0.49902 0.90346 0.0
H724 H 0.42827 0.46778 0.8701 0.0
H725 H 0.43062 0.37823 0.88414 0.0
C726 C 0.35749 0.33066 0.80759 0.0
C727 C 0.3695 0.403 0.84075 0.0
C728 C 0.34394 0.31531 0.78296 0.0
C729 C 0.45276 0.47717 0.91131 0.0
C730 C 0.43426 0.45933 0.89224 0.0
C731 C 0.41335 0.38518 0.8725 0.0
C732 C 0.36165 0.36076 0.80704 0.0
C733 C 0.37652 0.37742 0.83297 0.0
C734 C 0.42463 0.43055 0.901 0.0
C735 C 0.40693 0.41126 0.87924 0.0
H736 H 0.33086 0.37127 0.73714 0.0
H737 H 0.35513 0.39809 0.77937 0.0
H738 H 0.40475 0.34923 0.84406 0.0
H739 H 0.45795 0.42983 0.97106 0.0
H740 H 0.42589 0.39822 0.93718 0.0
C741 C 0.7024 0.36498 0.77663 0.0
C742 C 0.68807 0.35264 0.75053 0.0
C743 C 0.69002 0.37961 0.79614 0.0
C744 C 0.63382 0.41762 0.79741 0.0
H745 H 0.64279 0.40661 0.88492 0.0
C746 C 0.56652 0.45771 0.87696 0.0
C747 C 0.57779 0.46872 0.90496 0.0
C748 C 0.58145 0.44492 0.85862 0.0
C749 C 0.64041 0.41029 0.86055 0.0
H750 H 0.64946 0.34601 0.72455 0.0
H751 H 0.62779 0.37131 0.75867 0.0
H752 H 0.66573 0.38111 0.85221 0.0
H753 H 0.6139 0.47524 0.93539 0.0
H754 H 0.64025 0.45306 0.90305 0.0
H755 H 0.60863 0.4468 0.80556 0.0
C756 C 0.64868 0.36982 0.76396 0.0
C757 C 0.6535 0.39559 0.8418 0.0
C758 C 0.66099 0.35503 0.74458 0.0
C759 C 0.60457 0.46685 0.91403 0.0
C760 C 0.61961 0.45402 0.89556 0.0
C761 C 0.62087 0.43239 0.81611 0.0
C762 C 0.66308 0.38245 0.78988 0.0
C763 C 0.65006 0.3988 0.80999 0.0
C764 C 0.60819 0.44285 0.86761 0.0
C765 C 0.62366 0.42862 0.84792 0.0
H766 H 0.72324 0.36332 0.78197 0.0
H767 H 0.70172 0.38922 0.81581 0.0
H768 H 0.6312 0.42105 0.77303 0.0
H769 H 0.54593 0.45867 0.86921 0.0
H770 H 0.57177 0.43613 0.83757 0.0
C771 C 0.65664 0.64492 0.68698 0.0
C772 C 0.68405 0.65809 0.68984 0.0
C773 C 0.64447 0.62844 0.71121 0.0
C774 C 0.66055 0.59266 0.78559 0.0
H775 H 0.58836 0.6001 0.80194 0.0
C776 C 0.61487 0.57001 0.90241 0.0
C777 C 0.58767 0.55605 0.90285 0.0
C778 C 0.6268 0.57723 0.87482 0.0
C779 C 0.60837 0.59746 0.79739 0.0
H780 H 0.72019 0.66489 0.72017 0.0
H781 H 0.69889 0.63701 0.76275 0.0
H782 H 0.60854 0.62353 0.75653 0.0
H783 H 0.5521 0.53716 0.87483 0.0
H784 H 0.5729 0.55019 0.82673 0.0
H785 H 0.66064 0.56769 0.82747 0.0
C786 C 0.68688 0.63847 0.74161 0.0
C787 C 0.61994 0.61082 0.77132 0.0
C788 C 0.69908 0.65462 0.7173 0.0
C789 C 0.57304 0.54817 0.87527 0.0
C790 C 0.58488 0.55565 0.84772 0.0
C791 C 0.64907 0.5796 0.81189 0.0
C792 C 0.65943 0.62516 0.73889 0.0
C793 C 0.64633 0.60894 0.76531 0.0
C794 C 0.61165 0.57082 0.84724 0.0
C795 C 0.62301 0.58218 0.81817 0.0
H796 H 0.64472 0.64708 0.66588 0.0
H797 H 0.62338 0.61817 0.70817 0.0
H798 H 0.68069 0.59025 0.78136 0.0
H799 H 0.62673 0.57613 0.9233 0.0
H800 H 0.64747 0.58904 0.87503 0.0
C801 C 0.6764 0.66341 0.27267 0.0
C802 C 0.68027 0.69341 0.27182 0.0
C803 C 0.66209 0.64776 0.24876 0.0
C804 C 0.63968 0.6516 0.16784 0.0
H805 H 0.58402 0.58675 0.19004 0.0
C806 C 0.563 0.58671 0.07925 0.0
C807 C 0.55337 0.55756 0.0864 0.0
C808 C 0.5803 0.60397 0.10021 0.0
C809 C 0.5998 0.60442 0.18329 0.0
H810 H 0.67268 0.73055 0.2448 0.0
H811 H 0.64777 0.70307 0.20267 0.0
H812 H 0.61062 0.61545 0.22948 0.0
H813 H 0.55586 0.52313 0.11986 0.0
H814 H 0.58683 0.55258 0.1555 0.0
H815 H 0.62915 0.64023 0.12158 0.0
C816 C 0.65583 0.69175 0.22198 0.0
C817 C 0.61495 0.621 0.20601 0.0
C818 C 0.66989 0.70744 0.24616 0.0
C819 C 0.56267 0.54564 0.11392 0.0
C820 C 0.58023 0.56266 0.13452 0.0
C821 C 0.62468 0.63474 0.14499 0.0
C822 C 0.65149 0.6617 0.22322 0.0
C823 C 0.63517 0.64468 0.19862 0.0
C824 C 0.58858 0.59227 0.12852 0.0
C825 C 0.60464 0.61074 0.15244 0.0
H826 H 0.6839 0.65194 0.29221 0.0
H827 H 0.65925 0.62465 0.25027 0.0
H828 H 0.65523 0.66968 0.16147 0.0
H829 H 0.556 0.59646 0.05825 0.0
H830 H 0.58618 0.62666 0.09474 0.0
C831 C 0.31218 0.65955 0.2486 0.0
C832 C 0.32643 0.67077 0.27525 0.0
C833 C 0.32442 0.64519 0.22865 0.0
C834 C 0.37932 0.60543 0.22716 0.0
H835 H 0.3722 0.61858 0.1398 0.0
C836 C 0.44726 0.56575 0.14819 0.0
C837 C 0.43645 0.55559 0.1197 0.0
C838 C 0.43215 0.57837 0.16649 0.0
C839 C 0.37404 0.61431 0.16412 0.0
H840 H 0.3648 0.67585 0.30166 0.0
H841 H 0.38619 0.65107 0.2668 0.0
H842 H 0.34938 0.6441 0.17267 0.0
H843 H 0.40095 0.55035 0.08834 0.0
H844 H 0.3743 0.57225 0.1206 0.0
H845 H 0.40384 0.57565 0.21883 0.0
C846 C 0.36548 0.6532 0.26141 0.0
C847 C 0.36103 0.62901 0.18296 0.0
C848 C 0.35333 0.66771 0.28121 0.0
C849 C 0.40993 0.55808 0.1101 0.0
C850 C 0.39471 0.57076 0.12853 0.0
C851 C 0.39218 0.59066 0.20838 0.0
C852 C 0.35111 0.6415 0.23504 0.0
C853 C 0.36386 0.62506 0.21474 0.0
C854 C 0.40569 0.58111 0.15696 0.0
C855 C 0.3901 0.59522 0.17663 0.0
H856 H 0.29149 0.66175 0.24323 0.0
H857 H 0.31276 0.63635 0.2086 0.0
H858 H 0.38143 0.6014 0.2515 0.0
H859 H 0.46763 0.56428 0.15637 0.0
H860 H 0.4415 0.58651 0.18794 0.0
C861 C 0.6676 0.37496 0.2482 0.0
C862 C 0.6659 0.34514 0.25127 0.0
C863 C 0.65346 0.38696 0.22405 0.0
C864 C 0.59224 0.3709 0.1752 0.0
H865 H 0.62541 0.43295 0.1215 0.0
C866 C 0.52827 0.41554 0.07777 0.0
C867 C 0.53463 0.44502 0.07046 0.0
C868 C 0.54584 0.40254 0.09712 0.0
C869 C 0.61564 0.41594 0.13652 0.0
H870 H 0.64899 0.30494 0.22987 0.0
H871 H 0.62345 0.32585 0.18884 0.0
H872 H 0.65324 0.41294 0.16111 0.0
H873 H 0.56459 0.48396 0.07758 0.0
H874 H 0.59447 0.4618 0.11219 0.0
H875 H 0.55452 0.37453 0.15211 0.0
C876 C 0.63573 0.3398 0.20525 0.0
C877 C 0.63171 0.40439 0.15911 0.0
C878 C 0.65026 0.32785 0.22896 0.0
C879 C 0.55923 0.46109 0.0824 0.0
C880 C 0.57649 0.44826 0.10228 0.0
C881 C 0.57608 0.38281 0.1531 0.0
C882 C 0.63696 0.36942 0.20272 0.0
C883 C 0.62016 0.38172 0.1786 0.0
C884 C 0.56994 0.41882 0.11032 0.0
C885 C 0.58748 0.40552 0.13332 0.0
H886 H 0.67911 0.38901 0.26499 0.0
H887 H 0.65463 0.40988 0.22268 0.0
H888 H 0.58279 0.35363 0.19018 0.0
H889 H 0.50953 0.40255 0.0688 0.0
H890 H 0.54028 0.37972 0.10195 0.0
loop_
_geom_bond_atom_site_label_1
_geom_bond_atom_site_label_2
_geom_bond_distance
_geom_bond_site_symmetry_2
_ccdc_geom_bond_type
H0 C3 0.931 . S
H1 C6 0.928 . S
H2 C8 0.930 . S
C3 H0 0.931 . S
C3 C4 1.413 . S
C3 C5 1.360 . S
C4 C3 1.413 . S
C4 C8 1.429 . S
C5 C3 1.360 . S
C5 C6 1.372 . S
C6 H1 0.928 . S
C6 C5 1.372 . S
C6 C7 1.404 . S
C7 C6 1.404 . S
C7 C8 1.391 . S
C8 H2 0.930 . S
C8 C4 1.429 . S
C8 C7 1.391 . S
H9 C12 0.931 . S
H10 C15 0.928 . S
H11 C17 0.930 . S
C12 H9 0.931 . S
C12 C13 1.413 . S
C12 C14 1.360 . S
C13 C12 1.413 . S
C13 C17 1.429 . S
C14 C12 1.360 . S
C14 C15 1.372 . S
C15 H10 0.928 . S
C15 C14 1.372 . S
C15 C16 1.404 . S
C16 C15 1.404 . S
C16 C17 1.391 . S
C17 H11 0.930 . S
C17 C13 1.429 . S
C17 C16 1.391 . S
H18 C21 0.931 . S
H19 C24 0.928 . S
H20 C26 0.930 . S
C21 H18 0.931 . S
C21 C22 1.413 . S
C21 C23 1.360 . S
C22 C21 1.413 . S
C22 C26 1.429 . S
C23 C21 1.360 . S
C23 C24 1.372 . S
C24 H19 0.928 . S
C24 C23 1.372 . S
C24 C25 1.404 . S
C25 C24 1.404 . S
C25 C26 1.391 . S
C26 H20 0.930 . S
C26 C22 1.429 . S
C26 C25 1.391 . S
H27 C30 0.931 . S
H28 C33 0.928 . S
H29 C35 0.930 . S
C30 H27 0.931 . S
C30 C31 1.413 . S
C30 C32 1.360 . S
C31 C30 1.413 . S
C31 C35 1.429 . S
C32 C30 1.360 . S
C32 C33 1.372 . S
C33 H28 0.928 . S
C33 C32 1.372 . S
C33 C34 1.404 . S
C34 C33 1.404 . S
C34 C35 1.391 . S
C35 H29 0.930 . S
C35 C31 1.429 . S
C35 C34 1.391 . S
H36 C39 0.931 . S
H37 C42 0.928 . S
H38 C44 0.930 . S
C39 H36 0.931 . S
C39 C40 1.413 . S
C39 C41 1.360 . S
C40 C39 1.413 . S
C40 C44 1.429 . S
C41 C39 1.360 . S
C41 C42 1.372 . S
C42 H37 0.928 . S
C42 C41 1.372 . S
C42 C43 1.404 . S
C43 C42 1.404 . S
C43 C44 1.391 . S
C44 H38 0.930 . S
C44 C40 1.429 . S
C44 C43 1.391 . S
H45 C48 0.931 . S
H46 C51 0.928 . S
H47 C53 0.930 . S
C48 H45 0.931 . S
C48 C49 1.413 . S
C48 C50 1.360 . S
C49 C48 1.413 . S
C49 C53 1.429 . S
C50 C48 1.360 . S
C50 C51 1.372 . S
C51 H46 0.928 . S
C51 C50 1.372 . S
C51 C52 1.404 . S
C52 C51 1.404 . S
C52 C53 1.391 . S
C53 H47 0.930 . S
C53 C49 1.429 . S
C53 C52 1.391 . S
H54 C57 0.931 . S
H55 C60 0.928 . S
H56 C62 0.930 . S
C57 H54 0.931 . S
C57 C58 1.413 . S
C57 C59 1.360 . S
C58 C57 1.413 . S
C58 C62 1.429 . S
C59 C57 1.360 . S
C59 C60 1.372 . S
C60 H55 0.928 . S
C60 C59 1.372 . S
C60 C61 1.404 . S
C61 C60 1.404 . S
C61 C62 1.391 . S
C62 H56 0.930 . S
C62 C58 1.429 . S
C62 C61 1.391 . S
H63 C66 0.931 . S
H64 C69 0.928 . S
H65 C71 0.930 . S
C66 H63 0.931 . S
C66 C67 1.413 . S
C66 C68 1.360 . S
C67 C66 1.413 . S
C67 C71 1.429 . S
C68 C66 1.360 . S
C68 C69 1.372 . S
C69 H64 0.928 . S
C69 C68 1.372 . S
C69 C70 1.404 . S
C70 C69 1.404 . S
C70 C71 1.391 . S
C71 H65 0.930 . S
C71 C67 1.429 . S
C71 C70 1.391 . S
Co72 O75 2.042 . S
Co72 O82 2.264 . S
Co72 O101 2.286 . S
Co72 O102 2.069 . S
Co72 O104 2.015 . S
Co73 O75 2.122 . S
Co73 O81 2.073 . S
Co73 O82 2.327 . S
Co73 O83 1.976 . S
Co74 O75 2.087 . S
Co74 O77 2.087 1_455 S
Co74 O84 2.111 . S
Co74 O85 2.143 1_455 S
Co74 O89 2.111 1_455 S
Co74 O103 2.143 . S
O75 Co72 2.042 . S
O75 Co73 2.122 . S
O75 Co74 2.087 . S
O75 H76 0.980 . S
H76 O75 0.980 . S
O77 Co74 2.087 1_655 S
O77 Co78 2.042 . S
O77 Co79 2.122 . S
O77 H80 0.980 . S
Co78 O77 2.042 . S
Co78 O86 2.286 . S
Co78 O87 2.069 . S
Co78 O88 2.015 . S
Co78 O91 2.264 . S
Co79 O77 2.122 . S
Co79 O90 1.976 . S
Co79 O91 2.327 . S
Co79 O92 2.073 . S
H80 O77 0.980 . S
O81 Co73 2.073 . S
O81 C96 1.245 . S
O82 Co72 2.264 . S
O82 Co73 2.327 . S
O82 C96 1.257 . S
O83 Co73 1.976 . S
O83 C95 1.251 . S
O84 Co74 2.111 . S
O84 C95 1.274 . S
O85 Co74 2.143 1_655 S
O85 C98 1.246 . S
O86 Co78 2.286 . S
O86 C97 1.259 . S
O87 Co78 2.069 . S
O87 C97 1.289 . S
O88 Co78 2.015 . S
O88 C98 1.257 . S
O89 Co74 2.111 1_655 S
O89 C99 1.274 . S
O90 Co79 1.976 . S
O90 C99 1.251 . S
O91 Co78 2.264 . S
O91 Co79 2.327 . S
O91 C100 1.257 . S
O92 Co79 2.073 . S
O92 C100 1.245 . S
C93 O101 1.259 . S
C93 O102 1.289 . S
C94 O103 1.246 . S
C94 O104 1.257 . S
C95 O83 1.251 . S
C95 O84 1.274 . S
C96 O81 1.245 . S
C96 O82 1.257 . S
C97 O86 1.259 . S
C97 O87 1.289 . S
C98 O85 1.246 . S
C98 O88 1.257 . S
C99 O89 1.274 . S
C99 O90 1.251 . S
C100 O91 1.257 . S
C100 O92 1.245 . S
O101 Co72 2.286 . S
O101 C93 1.259 . S
O102 Co72 2.069 . S
O102 C93 1.289 . S
O103 Co74 2.143 . S
O103 C94 1.246 . S
O104 Co72 2.015 . S
O104 C94 1.257 . S
Co105 O108 2.042 . S
Co105 O115 2.264 . S
Co105 O134 2.286 . S
Co105 O135 2.069 . S
Co105 O137 2.015 . S
Co106 O108 2.122 . S
Co106 O114 2.073 . S
Co106 O115 2.327 . S
Co106 O116 1.976 . S
Co107 O108 2.087 1_545 S
Co107 O110 2.087 . S
Co107 O117 2.111 1_545 S
Co107 O118 2.143 . S
Co107 O122 2.111 . S
Co107 O136 2.143 1_545 S
O108 Co105 2.042 . S
O108 Co106 2.122 . S
O108 Co107 2.087 1_565 S
O108 H109 0.980 . S
H109 O108 0.980 . S
O110 Co107 2.087 . S
O110 Co111 2.042 . S
O110 Co112 2.122 . S
O110 H113 0.980 . S
Co111 O110 2.042 . S
Co111 O119 2.286 . S
Co111 O120 2.069 . S
Co111 O121 2.015 . S
Co111 O124 2.264 . S
Co112 O110 2.122 . S
Co112 O123 1.976 . S
Co112 O124 2.327 . S
Co112 O125 2.073 . S
H113 O110 0.980 . S
O114 Co106 2.073 . S
O114 C129 1.245 . S
O115 Co105 2.264 . S
O115 Co106 2.327 . S
O115 C129 1.257 . S
O116 Co106 1.976 . S
O116 C128 1.251 . S
O117 Co107 2.111 1_565 S
O117 C128 1.274 . S
O118 Co107 2.143 . S
O118 C131 1.246 . S
O119 Co111 2.286 . S
O119 C130 1.259 . S
O120 Co111 2.069 . S
O120 C130 1.289 . S
O121 Co111 2.015 . S
O121 C131 1.257 . S
O122 Co107 2.111 . S
O122 C132 1.274 . S
O123 Co112 1.976 . S
O123 C132 1.251 . S
O124 Co111 2.264 . S
O124 Co112 2.327 . S
O124 C133 1.257 . S
O125 Co112 2.073 . S
O125 C133 1.245 . S
C126 O134 1.259 . S
C126 O135 1.289 . S
C127 O136 1.246 . S
C127 O137 1.257 . S
C128 O116 1.251 . S
C128 O117 1.274 . S
C129 O114 1.245 . S
C129 O115 1.257 . S
C130 O119 1.259 . S
C130 O120 1.289 . S
C131 O118 1.246 . S
C131 O121 1.257 . S
C132 O122 1.274 . S
C132 O123 1.251 . S
C133 O124 1.257 . S
C133 O125 1.245 . S
O134 Co105 2.286 . S
O134 C126 1.259 . S
O135 Co105 2.069 . S
O135 C126 1.289 . S
O136 Co107 2.143 1_565 S
O136 C127 1.246 . S
O137 Co105 2.015 . S
O137 C127 1.257 . S
Co138 O141 2.042 . S
Co138 O148 2.264 . S
Co138 O167 2.286 . S
Co138 O168 2.069 . S
Co138 O170 2.015 . S
Co139 O141 2.122 . S
Co139 O147 2.073 . S
Co139 O148 2.327 . S
Co139 O149 1.976 . S
Co140 O141 2.087 . S
Co140 O143 2.087 1_554 S
Co140 O150 2.111 . S
Co140 O151 2.143 1_554 S
Co140 O155 2.111 1_554 S
Co140 O169 2.143 . S
O141 Co138 2.042 . S
O141 Co139 2.122 . S
O141 Co140 2.087 . S
O141 H142 0.980 . S
H142 O141 0.980 . S
O143 Co140 2.087 1_556 S
O143 Co144 2.042 . S
O143 Co145 2.122 . S
O143 H146 0.980 . S
Co144 O143 2.042 . S
Co144 O152 2.286 . S
Co144 O153 2.069 . S
Co144 O154 2.015 . S
Co144 O157 2.264 . S
Co145 O143 2.122 . S
Co145 O156 1.976 . S
Co145 O157 2.327 . S
Co145 O158 2.073 . S
H146 O143 0.980 . S
O147 Co139 2.073 . S
O147 C162 1.245 . S
O148 Co138 2.264 . S
O148 Co139 2.327 . S
O148 C162 1.257 . S
O149 Co139 1.976 . S
O149 C161 1.251 . S
O150 Co140 2.111 . S
O150 C161 1.274 . S
O151 Co140 2.143 1_556 S
O151 C164 1.246 . S
O152 Co144 2.286 . S
O152 C163 1.259 . S
O153 Co144 2.069 . S
O153 C163 1.289 . S
O154 Co144 2.015 . S
O154 C164 1.257 . S
O155 Co140 2.111 1_556 S
O155 C165 1.274 . S
O156 Co145 1.976 . S
O156 C165 1.251 . S
O157 Co144 2.264 . S
O157 Co145 2.327 . S
O157 C166 1.257 . S
O158 Co145 2.073 . S
O158 C166 1.245 . S
C159 O167 1.259 . S
C159 O168 1.289 . S
C160 O169 1.246 . S
C160 O170 1.257 . S
C161 O149 1.251 . S
C161 O150 1.274 . S
C162 O147 1.245 . S
C162 O148 1.257 . S
C163 O152 1.259 . S
C163 O153 1.289 . S
C164 O151 1.246 . S
C164 O154 1.257 . S
C165 O155 1.274 . S
C165 O156 1.251 . S
C166 O157 1.257 . S
C166 O158 1.245 . S
O167 Co138 2.286 . S
O167 C159 1.259 . S
O168 Co138 2.069 . S
O168 C159 1.289 . S
O169 Co140 2.143 . S
O169 C160 1.246 . S
O170 Co138 2.015 . S
O170 C160 1.257 . S
C171 C172 1.349 . S
C171 C173 1.327 . S
C171 H196 0.950 . S
C172 C171 1.349 . S
C172 C188 1.349 . S
C173 C171 1.327 . S
C173 C192 1.429 . S
C173 H197 0.950 . S
C174 C191 1.574 . S
C174 C193 1.368 . S
C174 H198 0.949 . S
H175 C179 0.949 . S
C176 C177 1.349 . S
C176 C178 1.327 . S
C176 H199 0.950 . S
C177 C176 1.349 . S
C177 C189 1.349 . S
C178 C176 1.327 . S
C178 C194 1.429 . S
C178 H200 0.950 . S
C179 H175 0.949 . S
C179 C187 1.574 . S
C179 C195 1.368 . S
H180 C188 0.950 . S
H181 C186 0.950 . S
H182 C187 0.949 . S
H183 C189 0.950 . S
H184 C190 0.950 . S
H185 C191 0.949 . S
C186 H181 0.950 . S
C186 C188 1.327 . S
C186 C192 1.429 . S
C187 C179 1.574 . S
C187 H182 0.949 . S
C187 C193 1.368 . S
C188 C172 1.349 . S
C188 H180 0.950 . S
C188 C186 1.327 . S
C189 C177 1.349 . S
C189 H183 0.950 . S
C189 C190 1.327 . S
C190 H184 0.950 . S
C190 C189 1.327 . S
C190 C194 1.429 . S
C191 C174 1.574 . S
C191 H185 0.949 . S
C191 C195 1.368 . S
C192 C173 1.429 . S
C192 C186 1.429 . S
C192 C193 1.523 . S
C193 C174 1.368 . S
C193 C187 1.368 . S
C193 C192 1.523 . S
C194 C178 1.429 . S
C194 C190 1.429 . S
C194 C195 1.523 . S
C195 C179 1.368 . S
C195 C191 1.368 . S
C195 C194 1.523 . S
H196 C171 0.950 . S
H197 C173 0.950 . S
H198 C174 0.949 . S
H199 C176 0.950 . S
H200 C178 0.950 . S
C201 C202 1.349 . S
C201 C203 1.327 . S
C201 H226 0.950 . S
C202 C201 1.349 . S
C202 C218 1.349 . S
C203 C201 1.327 . S
C203 C222 1.429 . S
C203 H227 0.950 . S
C204 C221 1.574 . S
C204 C223 1.368 . S
C204 H228 0.949 . S
H205 C209 0.949 . S
C206 C207 1.349 . S
C206 C208 1.327 . S
C206 H229 0.950 . S
C207 C206 1.349 . S
C207 C219 1.349 . S
C208 C206 1.327 . S
C208 C224 1.429 . S
C208 H230 0.950 . S
C209 H205 0.949 . S
C209 C217 1.574 . S
C209 C225 1.368 . S
H210 C218 0.950 . S
H211 C216 0.950 . S
H212 C217 0.949 . S
H213 C219 0.950 . S
H214 C220 0.950 . S
H215 C221 0.949 . S
C216 H211 0.950 . S
C216 C218 1.327 . S
C216 C222 1.429 . S
C217 C209 1.574 . S
C217 H212 0.949 . S
C217 C223 1.368 . S
C218 C202 1.349 . S
C218 H210 0.950 . S
C218 C216 1.327 . S
C219 C207 1.349 . S
C219 H213 0.950 . S
C219 C220 1.327 . S
C220 H214 0.950 . S
C220 C219 1.327 . S
C220 C224 1.429 . S
C221 C204 1.574 . S
C221 H215 0.949 . S
C221 C225 1.368 . S
C222 C203 1.429 . S
C222 C216 1.429 . S
C222 C223 1.523 . S
C223 C204 1.368 . S
C223 C217 1.368 . S
C223 C222 1.523 . S
C224 C208 1.429 . S
C224 C220 1.429 . S
C224 C225 1.523 . S
C225 C209 1.368 . S
C225 C221 1.368 . S
C225 C224 1.523 . S
H226 C201 0.950 . S
H227 C203 0.950 . S
H228 C204 0.949 . S
H229 C206 0.950 . S
H230 C208 0.950 . S
C231 C232 1.349 . S
C231 C233 1.327 . S
C231 H256 0.950 . S
C232 C231 1.349 . S
C232 C248 1.349 . S
C233 C231 1.327 . S
C233 C252 1.429 . S
C233 H257 0.950 . S
C234 C251 1.574 . S
C234 C253 1.368 . S
C234 H258 0.949 . S
H235 C239 0.949 . S
C236 C237 1.349 . S
C236 C238 1.327 . S
C236 H259 0.950 . S
C237 C236 1.349 . S
C237 C249 1.349 . S
C238 C236 1.327 . S
C238 C254 1.429 . S
C238 H260 0.950 . S
C239 H235 0.949 . S
C239 C247 1.574 . S
C239 C255 1.368 . S
H240 C248 0.950 . S
H241 C246 0.950 . S
H242 C247 0.949 . S
H243 C249 0.950 . S
H244 C250 0.950 . S
H245 C251 0.949 . S
C246 H241 0.950 . S
C246 C248 1.327 . S
C246 C252 1.429 . S
C247 C239 1.574 . S
C247 H242 0.949 . S
C247 C253 1.368 . S
C248 C232 1.349 . S
C248 H240 0.950 . S
C248 C246 1.327 . S
C249 C237 1.349 . S
C249 H243 0.950 . S
C249 C250 1.327 . S
C250 H244 0.950 . S
C250 C249 1.327 . S
C250 C254 1.429 . S
C251 C234 1.574 . S
C251 H245 0.949 . S
C251 C255 1.368 . S
C252 C233 1.429 . S
C252 C246 1.429 . S
C252 C253 1.523 . S
C253 C234 1.368 . S
C253 C247 1.368 . S
C253 C252 1.523 . S
C254 C238 1.429 . S
C254 C250 1.429 . S
C254 C255 1.523 . S
C255 C239 1.368 . S
C255 C251 1.368 . S
C255 C254 1.523 . S
H256 C231 0.950 . S
H257 C233 0.950 . S
H258 C234 0.949 . S
H259 C236 0.950 . S
H260 C238 0.950 . S
C261 C262 1.349 . S
C261 C263 1.327 . S
C261 H286 0.950 . S
C262 C261 1.349 . S
C262 C278 1.349 . S
C263 C261 1.327 . S
C263 C282 1.429 . S
C263 H287 0.950 . S
C264 C281 1.574 . S
C264 C283 1.368 . S
C264 H288 0.949 . S
H265 C269 0.949 . S
C266 C267 1.349 . S
C266 C268 1.327 . S
C266 H289 0.950 . S
C267 C266 1.349 . S
C267 C279 1.349 . S
C268 C266 1.327 . S
C268 C284 1.429 . S
C268 H290 0.950 . S
C269 H265 0.949 . S
C269 C277 1.574 . S
C269 C285 1.368 . S
H270 C278 0.950 . S
H271 C276 0.950 . S
H272 C277 0.949 . S
H273 C279 0.950 . S
H274 C280 0.950 . S
H275 C281 0.949 . S
C276 H271 0.950 . S
C276 C278 1.327 . S
C276 C282 1.429 . S
C277 C269 1.574 . S
C277 H272 0.949 . S
C277 C283 1.368 . S
C278 C262 1.349 . S
C278 H270 0.950 . S
C278 C276 1.327 . S
C279 C267 1.349 . S
C279 H273 0.950 . S
C279 C280 1.327 . S
C280 H274 0.950 . S
C280 C279 1.327 . S
C280 C284 1.429 . S
C281 C264 1.574 . S
C281 H275 0.949 . S
C281 C285 1.368 . S
C282 C263 1.429 . S
C282 C276 1.429 . S
C282 C283 1.523 . S
C283 C264 1.368 . S
C283 C277 1.368 . S
C283 C282 1.523 . S
C284 C268 1.429 . S
C284 C280 1.429 . S
C284 C285 1.523 . S
C285 C269 1.368 . S
C285 C281 1.368 . S
C285 C284 1.523 . S
H286 C261 0.950 . S
H287 C263 0.950 . S
H288 C264 0.949 . S
H289 C266 0.950 . S
H290 C268 0.950 . S
C291 C292 1.349 . S
C291 C293 1.327 . S
C291 H316 0.950 . S
C292 C291 1.349 . S
C292 C308 1.349 . S
C293 C291 1.327 . S
C293 C312 1.429 . S
C293 H317 0.950 . S
C294 C311 1.574 . S
C294 C313 1.368 . S
C294 H318 0.949 . S
H295 C299 0.949 . S
C296 C297 1.349 . S
C296 C298 1.327 . S
C296 H319 0.950 . S
C297 C296 1.349 . S
C297 C309 1.349 . S
C298 C296 1.327 . S
C298 C314 1.429 . S
C298 H320 0.950 . S
C299 H295 0.949 . S
C299 C307 1.574 . S
C299 C315 1.368 . S
H300 C308 0.950 . S
H301 C306 0.950 . S
H302 C307 0.949 . S
H303 C309 0.950 . S
H304 C310 0.950 . S
H305 C311 0.949 . S
C306 H301 0.950 . S
C306 C308 1.327 . S
C306 C312 1.429 . S
C307 C299 1.574 . S
C307 H302 0.949 . S
C307 C313 1.368 . S
C308 C292 1.349 . S
C308 H300 0.950 . S
C308 C306 1.327 . S
C309 C297 1.349 . S
C309 H303 0.950 . S
C309 C310 1.327 . S
C310 H304 0.950 . S
C310 C309 1.327 . S
C310 C314 1.429 . S
C311 C294 1.574 . S
C311 H305 0.949 . S
C311 C315 1.368 . S
C312 C293 1.429 . S
C312 C306 1.429 . S
C312 C313 1.523 . S
C313 C294 1.368 . S
C313 C307 1.368 . S
C313 C312 1.523 . S
C314 C298 1.429 . S
C314 C310 1.429 . S
C314 C315 1.523 . S
C315 C299 1.368 . S
C315 C311 1.368 . S
C315 C314 1.523 . S
H316 C291 0.950 . S
H317 C293 0.950 . S
H318 C294 0.949 . S
H319 C296 0.950 . S
H320 C298 0.950 . S
C321 C322 1.349 . S
C321 C323 1.327 . S
C321 H346 0.950 . S
C322 C321 1.349 . S
C322 C338 1.349 . S
C323 C321 1.327 . S
C323 C342 1.429 . S
C323 H347 0.950 . S
C324 C341 1.574 . S
C324 C343 1.368 . S
C324 H348 0.949 . S
H325 C329 0.949 . S
C326 C327 1.349 . S
C326 C328 1.327 . S
C326 H349 0.950 . S
C327 C326 1.349 . S
C327 C339 1.349 . S
C328 C326 1.327 . S
C328 C344 1.429 . S
C328 H350 0.950 . S
C329 H325 0.949 . S
C329 C337 1.574 . S
C329 C345 1.368 . S
H330 C338 0.950 . S
H331 C336 0.950 . S
H332 C337 0.949 . S
H333 C339 0.950 . S
H334 C340 0.950 . S
H335 C341 0.949 . S
C336 H331 0.950 . S
C336 C338 1.327 . S
C336 C342 1.429 . S
C337 C329 1.574 . S
C337 H332 0.949 . S
C337 C343 1.368 . S
C338 C322 1.349 . S
C338 H330 0.950 . S
C338 C336 1.327 . S
C339 C327 1.349 . S
C339 H333 0.950 . S
C339 C340 1.327 . S
C340 H334 0.950 . S
C340 C339 1.327 . S
C340 C344 1.429 . S
C341 C324 1.574 . S
C341 H335 0.949 . S
C341 C345 1.368 . S
C342 C323 1.429 . S
C342 C336 1.429 . S
C342 C343 1.523 . S
C343 C324 1.368 . S
C343 C337 1.368 . S
C343 C342 1.523 . S
C344 C328 1.429 . S
C344 C340 1.429 . S
C344 C345 1.523 . S
C345 C329 1.368 . S
C345 C341 1.368 . S
C345 C344 1.523 . S
H346 C321 0.950 . S
H347 C323 0.950 . S
H348 C324 0.949 . S
H349 C326 0.950 . S
H350 C328 0.950 . S
C351 C352 1.349 . S
C351 C353 1.327 . S
C351 H376 0.950 . S
C352 C351 1.349 . S
C352 C368 1.349 . S
C353 C351 1.327 . S
C353 C372 1.429 . S
C353 H377 0.950 . S
C354 C371 1.574 . S
C354 C373 1.368 . S
C354 H378 0.949 . S
H355 C359 0.949 . S
C356 C357 1.349 . S
C356 C358 1.327 . S
C356 H379 0.950 . S
C357 C356 1.349 . S
C357 C369 1.349 . S
C358 C356 1.327 . S
C358 C374 1.429 . S
C358 H380 0.950 . S
C359 H355 0.949 . S
C359 C367 1.574 . S
C359 C375 1.368 . S
H360 C368 0.950 . S
H361 C366 0.950 . S
H362 C367 0.949 . S
H363 C369 0.950 . S
H364 C370 0.950 . S
H365 C371 0.949 . S
C366 H361 0.950 . S
C366 C368 1.327 . S
C366 C372 1.429 . S
C367 C359 1.574 . S
C367 H362 0.949 . S
C367 C373 1.368 . S
C368 C352 1.349 . S
C368 H360 0.950 . S
C368 C366 1.327 . S
C369 C357 1.349 . S
C369 H363 0.950 . S
C369 C370 1.327 . S
C370 H364 0.950 . S
C370 C369 1.327 . S
C370 C374 1.429 . S
C371 C354 1.574 . S
C371 H365 0.949 . S
C371 C375 1.368 . S
C372 C353 1.429 . S
C372 C366 1.429 . S
C372 C373 1.523 . S
C373 C354 1.368 . S
C373 C367 1.368 . S
C373 C372 1.523 . S
C374 C358 1.429 . S
C374 C370 1.429 . S
C374 C375 1.523 . S
C375 C359 1.368 . S
C375 C371 1.368 . S
C375 C374 1.523 . S
H376 C351 0.950 . S
H377 C353 0.950 . S
H378 C354 0.949 . S
H379 C356 0.950 . S
H380 C358 0.950 . S
C381 C382 1.349 . S
C381 C383 1.327 . S
C381 H406 0.950 . S
C382 C381 1.349 . S
C382 C398 1.349 . S
C383 C381 1.327 . S
C383 C402 1.429 . S
C383 H407 0.950 . S
C384 C401 1.574 . S
C384 C403 1.368 . S
C384 H408 0.949 . S
H385 C389 0.949 . S
C386 C387 1.349 . S
C386 C388 1.327 . S
C386 H409 0.950 . S
C387 C386 1.349 . S
C387 C399 1.349 . S
C388 C386 1.327 . S
C388 C404 1.429 . S
C388 H410 0.950 . S
C389 H385 0.949 . S
C389 C397 1.574 . S
C389 C405 1.368 . S
H390 C398 0.950 . S
H391 C396 0.950 . S
H392 C397 0.949 . S
H393 C399 0.950 . S
H394 C400 0.950 . S
H395 C401 0.949 . S
C396 H391 0.950 . S
C396 C398 1.327 . S
C396 C402 1.429 . S
C397 C389 1.574 . S
C397 H392 0.949 . S
C397 C403 1.368 . S
C398 C382 1.349 . S
C398 H390 0.950 . S
C398 C396 1.327 . S
C399 C387 1.349 . S
C399 H393 0.950 . S
C399 C400 1.327 . S
C400 H394 0.950 . S
C400 C399 1.327 . S
C400 C404 1.429 . S
C401 C384 1.574 . S
C401 H395 0.949 . S
C401 C405 1.368 . S
C402 C383 1.429 . S
C402 C396 1.429 . S
C402 C403 1.523 . S
C403 C384 1.368 . S
C403 C397 1.368 . S
C403 C402 1.523 . S
C404 C388 1.429 . S
C404 C400 1.429 . S
C404 C405 1.523 . S
C405 C389 1.368 . S
C405 C401 1.368 . S
C405 C404 1.523 . S
H406 C381 0.950 . S
H407 C383 0.950 . S
H408 C384 0.949 . S
H409 C386 0.950 . S
H410 C388 0.950 . S
C411 C412 1.349 . S
C411 C413 1.327 . S
C411 H436 0.950 . S
C412 C411 1.349 . S
C412 C428 1.349 . S
C413 C411 1.327 . S
C413 C432 1.429 . S
C413 H437 0.950 . S
C414 C431 1.574 . S
C414 C433 1.368 . S
C414 H438 0.949 . S
H415 C419 0.949 . S
C416 C417 1.349 . S
C416 C418 1.327 . S
C416 H439 0.950 . S
C417 C416 1.349 . S
C417 C429 1.349 . S
C418 C416 1.327 . S
C418 C434 1.429 . S
C418 H440 0.950 . S
C419 H415 0.949 . S
C419 C427 1.574 . S
C419 C435 1.368 . S
H420 C428 0.950 . S
H421 C426 0.950 . S
H422 C427 0.949 . S
H423 C429 0.950 . S
H424 C430 0.950 . S
H425 C431 0.949 . S
C426 H421 0.950 . S
C426 C428 1.327 . S
C426 C432 1.429 . S
C427 C419 1.574 . S
C427 H422 0.949 . S
C427 C433 1.368 . S
C428 C412 1.349 . S
C428 H420 0.950 . S
C428 C426 1.327 . S
C429 C417 1.349 . S
C429 H423 0.950 . S
C429 C430 1.327 . S
C430 H424 0.950 . S
C430 C429 1.327 . S
C430 C434 1.429 . S
C431 C414 1.574 . S
C431 H425 0.949 . S
C431 C435 1.368 . S
C432 C413 1.429 . S
C432 C426 1.429 . S
C432 C433 1.523 . S
C433 C414 1.368 . S
C433 C427 1.368 . S
C433 C432 1.523 . S
C434 C418 1.429 . S
C434 C430 1.429 . S
C434 C435 1.523 . S
C435 C419 1.368 . S
C435 C431 1.368 . S
C435 C434 1.523 . S
H436 C411 0.950 . S
H437 C413 0.950 . S
H438 C414 0.949 . S
H439 C416 0.950 . S
H440 C418 0.950 . S
C441 C442 1.349 . S
C441 C443 1.327 . S
C441 H466 0.950 . S
C442 C441 1.349 . S
C442 C458 1.349 . S
C443 C441 1.327 . S
C443 C462 1.429 . S
C443 H467 0.950 . S
C444 C461 1.574 . S
C444 C463 1.368 . S
C444 H468 0.949 . S
H445 C449 0.949 . S
C446 C447 1.349 . S
C446 C448 1.327 . S
C446 H469 0.950 . S
C447 C446 1.349 . S
C447 C459 1.349 . S
C448 C446 1.327 . S
C448 C464 1.429 . S
C448 H470 0.950 . S
C449 H445 0.949 . S
C449 C457 1.574 . S
C449 C465 1.368 . S
H450 C458 0.950 . S
H451 C456 0.950 . S
H452 C457 0.949 . S
H453 C459 0.950 . S
H454 C460 0.950 . S
H455 C461 0.949 . S
C456 H451 0.950 . S
C456 C458 1.327 . S
C456 C462 1.429 . S
C457 C449 1.574 . S
C457 H452 0.949 . S
C457 C463 1.368 . S
C458 C442 1.349 . S
C458 H450 0.950 . S
C458 C456 1.327 . S
C459 C447 1.349 . S
C459 H453 0.950 . S
C459 C460 1.327 . S
C460 H454 0.950 . S
C460 C459 1.327 . S
C460 C464 1.429 . S
C461 C444 1.574 . S
C461 H455 0.949 . S
C461 C465 1.368 . S
C462 C443 1.429 . S
C462 C456 1.429 . S
C462 C463 1.523 . S
C463 C444 1.368 . S
C463 C457 1.368 . S
C463 C462 1.523 . S
C464 C448 1.429 . S
C464 C460 1.429 . S
C464 C465 1.523 . S
C465 C449 1.368 . S
C465 C461 1.368 . S
C465 C464 1.523 . S
H466 C441 0.950 . S
H467 C443 0.950 . S
H468 C444 0.949 . S
H469 C446 0.950 . S
H470 C448 0.950 . S
C471 C472 1.349 . S
C471 C473 1.327 . S
C471 H496 0.950 . S
C472 C471 1.349 . S
C472 C488 1.349 . S
C473 C471 1.327 . S
C473 C492 1.429 . S
C473 H497 0.950 . S
C474 C491 1.574 . S
C474 C493 1.368 . S
C474 H498 0.949 . S
H475 C479 0.949 . S
C476 C477 1.349 . S
C476 C478 1.327 . S
C476 H499 0.950 . S
C477 C476 1.349 . S
C477 C489 1.349 . S
C478 C476 1.327 . S
C478 C494 1.429 . S
C478 H500 0.950 . S
C479 H475 0.949 . S
C479 C487 1.574 . S
C479 C495 1.368 . S
H480 C488 0.950 . S
H481 C486 0.950 . S
H482 C487 0.949 . S
H483 C489 0.950 . S
H484 C490 0.950 . S
H485 C491 0.949 . S
C486 H481 0.950 . S
C486 C488 1.327 . S
C486 C492 1.429 . S
C487 C479 1.574 . S
C487 H482 0.949 . S
C487 C493 1.368 . S
C488 C472 1.349 . S
C488 H480 0.950 . S
C488 C486 1.327 . S
C489 C477 1.349 . S
C489 H483 0.950 . S
C489 C490 1.327 . S
C490 H484 0.950 . S
C490 C489 1.327 . S
C490 C494 1.429 . S
C491 C474 1.574 . S
C491 H485 0.949 . S
C491 C495 1.368 . S
C492 C473 1.429 . S
C492 C486 1.429 . S
C492 C493 1.523 . S
C493 C474 1.368 . S
C493 C487 1.368 . S
C493 C492 1.523 . S
C494 C478 1.429 . S
C494 C490 1.429 . S
C494 C495 1.523 . S
C495 C479 1.368 . S
C495 C491 1.368 . S
C495 C494 1.523 . S
H496 C471 0.950 . S
H497 C473 0.950 . S
H498 C474 0.949 . S
H499 C476 0.950 . S
H500 C478 0.950 . S
C501 C502 1.349 . S
C501 C503 1.327 . S
C501 H526 0.950 . S
C502 C501 1.349 . S
C502 C518 1.349 . S
C503 C501 1.327 . S
C503 C522 1.429 . S
C503 H527 0.950 . S
C504 C521 1.574 . S
C504 C523 1.368 . S
C504 H528 0.949 . S
H505 C509 0.949 . S
C506 C507 1.349 . S
C506 C508 1.327 . S
C506 H529 0.950 . S
C507 C506 1.349 . S
C507 C519 1.349 . S
C508 C506 1.327 . S
C508 C524 1.429 . S
C508 H530 0.950 . S
C509 H505 0.949 . S
C509 C517 1.574 . S
C509 C525 1.368 . S
H510 C518 0.950 . S
H511 C516 0.950 . S
H512 C517 0.949 . S
H513 C519 0.950 . S
H514 C520 0.950 . S
H515 C521 0.949 . S
C516 H511 0.950 . S
C516 C518 1.327 . S
C516 C522 1.429 . S
C517 C509 1.574 . S
C517 H512 0.949 . S
C517 C523 1.368 . S
C518 C502 1.349 . S
C518 H510 0.950 . S
C518 C516 1.327 . S
C519 C507 1.349 . S
C519 H513 0.950 . S
C519 C520 1.327 . S
C520 H514 0.950 . S
C520 C519 1.327 . S
C520 C524 1.429 . S
C521 C504 1.574 . S
C521 H515 0.949 . S
C521 C525 1.368 . S
C522 C503 1.429 . S
C522 C516 1.429 . S
C522 C523 1.523 . S
C523 C504 1.368 . S
C523 C517 1.368 . S
C523 C522 1.523 . S
C524 C508 1.429 . S
C524 C520 1.429 . S
C524 C525 1.523 . S
C525 C509 1.368 . S
C525 C521 1.368 . S
C525 C524 1.523 . S
H526 C501 0.950 . S
H527 C503 0.950 . S
H528 C504 0.949 . S
H529 C506 0.950 . S
H530 C508 0.950 . S
C531 C532 1.349 . S
C531 C533 1.327 . S
C531 H556 0.950 . S
C532 C531 1.349 . S
C532 C548 1.349 . S
C533 C531 1.327 . S
C533 C552 1.429 . S
C533 H557 0.950 . S
C534 C551 1.574 . S
C534 C553 1.368 . S
C534 H558 0.949 . S
H535 C539 0.949 . S
C536 C537 1.349 . S
C536 C538 1.327 . S
C536 H559 0.950 . S
C537 C536 1.349 . S
C537 C549 1.349 . S
C538 C536 1.327 . S
C538 C554 1.429 . S
C538 H560 0.950 . S
C539 H535 0.949 . S
C539 C547 1.574 . S
C539 C555 1.368 . S
H540 C548 0.950 . S
H541 C546 0.950 . S
H542 C547 0.949 . S
H543 C549 0.950 . S
H544 C550 0.950 . S
H545 C551 0.949 . S
C546 H541 0.950 . S
C546 C548 1.327 . S
C546 C552 1.429 . S
C547 C539 1.574 . S
C547 H542 0.949 . S
C547 C553 1.368 . S
C548 C532 1.349 . S
C548 H540 0.950 . S
C548 C546 1.327 . S
C549 C537 1.349 . S
C549 H543 0.950 . S
C549 C550 1.327 . S
C550 H544 0.950 . S
C550 C549 1.327 . S
C550 C554 1.429 . S
C551 C534 1.574 . S
C551 H545 0.949 . S
C551 C555 1.368 . S
C552 C533 1.429 . S
C552 C546 1.429 . S
C552 C553 1.523 . S
C553 C534 1.368 . S
C553 C547 1.368 . S
C553 C552 1.523 . S
C554 C538 1.429 . S
C554 C550 1.429 . S
C554 C555 1.523 . S
C555 C539 1.368 . S
C555 C551 1.368 . S
C555 C554 1.523 . S
H556 C531 0.950 . S
H557 C533 0.950 . S
H558 C534 0.949 . S
H559 C536 0.950 . S
H560 C538 0.950 . S
C561 C562 1.349 . S
C561 C563 1.327 . S
C561 H586 0.950 . S
C562 C561 1.349 . S
C562 C578 1.349 . S
C563 C561 1.327 . S
C563 C582 1.429 . S
C563 H587 0.950 . S
C564 C581 1.574 . S
C564 C583 1.368 . S
C564 H588 0.949 . S
H565 C569 0.949 . S
C566 C567 1.349 . S
C566 C568 1.327 . S
C566 H589 0.950 . S
C567 C566 1.349 . S
C567 C579 1.349 . S
C568 C566 1.327 . S
C568 C584 1.429 . S
C568 H590 0.950 . S
C569 H565 0.949 . S
C569 C577 1.574 . S
C569 C585 1.368 . S
H570 C578 0.950 . S
H571 C576 0.950 . S
H572 C577 0.949 . S
H573 C579 0.950 . S
H574 C580 0.950 . S
H575 C581 0.949 . S
C576 H571 0.950 . S
C576 C578 1.327 . S
C576 C582 1.429 . S
C577 C569 1.574 . S
C577 H572 0.949 . S
C577 C583 1.368 . S
C578 C562 1.349 . S
C578 H570 0.950 . S
C578 C576 1.327 . S
C579 C567 1.349 . S
C579 H573 0.950 . S
C579 C580 1.327 . S
C580 H574 0.950 . S
C580 C579 1.327 . S
C580 C584 1.429 . S
C581 C564 1.574 . S
C581 H575 0.949 . S
C581 C585 1.368 . S
C582 C563 1.429 . S
C582 C576 1.429 . S
C582 C583 1.523 . S
C583 C564 1.368 . S
C583 C577 1.368 . S
C583 C582 1.523 . S
C584 C568 1.429 . S
C584 C580 1.429 . S
C584 C585 1.523 . S
C585 C569 1.368 . S
C585 C581 1.368 . S
C585 C584 1.523 . S
H586 C561 0.950 . S
H587 C563 0.950 . S
H588 C564 0.949 . S
H589 C566 0.950 . S
H590 C568 0.950 . S
C591 C592 1.349 . S
C591 C593 1.327 . S
C591 H616 0.950 . S
C592 C591 1.349 . S
C592 C608 1.349 . S
C593 C591 1.327 . S
C593 C612 1.429 . S
C593 H617 0.950 . S
C594 C611 1.574 . S
C594 C613 1.368 . S
C594 H618 0.949 . S
H595 C599 0.949 . S
C596 C597 1.349 . S
C596 C598 1.327 . S
C596 H619 0.950 . S
C597 C596 1.349 . S
C597 C609 1.349 . S
C598 C596 1.327 . S
C598 C614 1.429 . S
C598 H620 0.950 . S
C599 H595 0.949 . S
C599 C607 1.574 . S
C599 C615 1.368 . S
H600 C608 0.950 . S
H601 C606 0.950 . S
H602 C607 0.949 . S
H603 C609 0.950 . S
H604 C610 0.950 . S
H605 C611 0.949 . S
C606 H601 0.950 . S
C606 C608 1.327 . S
C606 C612 1.429 . S
C607 C599 1.574 . S
C607 H602 0.949 . S
C607 C613 1.368 . S
C608 C592 1.349 . S
C608 H600 0.950 . S
C608 C606 1.327 . S
C609 C597 1.349 . S
C609 H603 0.950 . S
C609 C610 1.327 . S
C610 H604 0.950 . S
C610 C609 1.327 . S
C610 C614 1.429 . S
C611 C594 1.574 . S
C611 H605 0.949 . S
C611 C615 1.368 . S
C612 C593 1.429 . S
C612 C606 1.429 . S
C612 C613 1.523 . S
C613 C594 1.368 . S
C613 C607 1.368 . S
C613 C612 1.523 . S
C614 C598 1.429 . S
C614 C610 1.429 . S
C614 C615 1.523 . S
C615 C599 1.368 . S
C615 C611 1.368 . S
C615 C614 1.523 . S
H616 C591 0.950 . S
H617 C593 0.950 . S
H618 C594 0.949 . S
H619 C596 0.950 . S
H620 C598 0.950 . S
C621 C622 1.349 . S
C621 C623 1.327 . S
C621 H646 0.950 . S
C622 C621 1.349 . S
C622 C638 1.349 . S
C623 C621 1.327 . S
C623 C642 1.429 . S
C623 H647 0.950 . S
C624 C641 1.574 . S
C624 C643 1.368 . S
C624 H648 0.949 . S
H625 C629 0.949 . S
C626 C627 1.349 . S
C626 C628 1.327 . S
C626 H649 0.950 . S
C627 C626 1.349 . S
C627 C639 1.349 . S
C628 C626 1.327 . S
C628 C644 1.429 . S
C628 H650 0.950 . S
C629 H625 0.949 . S
C629 C637 1.574 . S
C629 C645 1.368 . S
H630 C638 0.950 . S
H631 C636 0.950 . S
H632 C637 0.949 . S
H633 C639 0.950 . S
H634 C640 0.950 . S
H635 C641 0.949 . S
C636 H631 0.950 . S
C636 C638 1.327 . S
C636 C642 1.429 . S
C637 C629 1.574 . S
C637 H632 0.949 . S
C637 C643 1.368 . S
C638 C622 1.349 . S
C638 H630 0.950 . S
C638 C636 1.327 . S
C639 C627 1.349 . S
C639 H633 0.950 . S
C639 C640 1.327 . S
C640 H634 0.950 . S
C640 C639 1.327 . S
C640 C644 1.429 . S
C641 C624 1.574 . S
C641 H635 0.949 . S
C641 C645 1.368 . S
C642 C623 1.429 . S
C642 C636 1.429 . S
C642 C643 1.523 . S
C643 C624 1.368 . S
C643 C637 1.368 . S
C643 C642 1.523 . S
C644 C628 1.429 . S
C644 C640 1.429 . S
C644 C645 1.523 . S
C645 C629 1.368 . S
C645 C641 1.368 . S
C645 C644 1.523 . S
H646 C621 0.950 . S
H647 C623 0.950 . S
H648 C624 0.949 . S
H649 C626 0.950 . S
H650 C628 0.950 . S
C651 C652 1.349 . S
C651 C653 1.327 . S
C651 H676 0.950 . S
C652 C651 1.349 . S
C652 C668 1.349 . S
C653 C651 1.327 . S
C653 C672 1.429 . S
C653 H677 0.950 . S
C654 C671 1.574 . S
C654 C673 1.368 . S
C654 H678 0.949 . S
H655 C659 0.949 . S
C656 C657 1.349 . S
C656 C658 1.327 . S
C656 H679 0.950 . S
C657 C656 1.349 . S
C657 C669 1.349 . S
C658 C656 1.327 . S
C658 C674 1.429 . S
C658 H680 0.950 . S
C659 H655 0.949 . S
C659 C667 1.574 . S
C659 C675 1.368 . S
H660 C668 0.950 . S
H661 C666 0.950 . S
H662 C667 0.949 . S
H663 C669 0.950 . S
H664 C670 0.950 . S
H665 C671 0.949 . S
C666 H661 0.950 . S
C666 C668 1.327 . S
C666 C672 1.429 . S
C667 C659 1.574 . S
C667 H662 0.949 . S
C667 C673 1.368 . S
C668 C652 1.349 . S
C668 H660 0.950 . S
C668 C666 1.327 . S
C669 C657 1.349 . S
C669 H663 0.950 . S
C669 C670 1.327 . S
C670 H664 0.950 . S
C670 C669 1.327 . S
C670 C674 1.429 . S
C671 C654 1.574 . S
C671 H665 0.949 . S
C671 C675 1.368 . S
C672 C653 1.429 . S
C672 C666 1.429 . S
C672 C673 1.523 . S
C673 C654 1.368 . S
C673 C667 1.368 . S
C673 C672 1.523 . S
C674 C658 1.429 . S
C674 C670 1.429 . S
C674 C675 1.523 . S
C675 C659 1.368 . S
C675 C671 1.368 . S
C675 C674 1.523 . S
H676 C651 0.950 . S
H677 C653 0.950 . S
H678 C654 0.949 . S
H679 C656 0.950 . S
H680 C658 0.950 . S
C681 C682 1.349 . S
C681 C683 1.327 . S
C681 H706 0.950 . S
C682 C681 1.349 . S
C682 C698 1.349 . S
C683 C681 1.327 . S
C683 C702 1.429 . S
C683 H707 0.950 . S
C684 C701 1.574 . S
C684 C703 1.368 . S
C684 H708 0.949 . S
H685 C689 0.949 . S
C686 C687 1.349 . S
C686 C688 1.327 . S
C686 H709 0.950 . S
C687 C686 1.349 . S
C687 C699 1.349 . S
C688 C686 1.327 . S
C688 C704 1.429 . S
C688 H710 0.950 . S
C689 H685 0.949 . S
C689 C697 1.574 . S
C689 C705 1.368 . S
H690 C698 0.950 . S
H691 C696 0.950 . S
H692 C697 0.949 . S
H693 C699 0.950 . S
H694 C700 0.950 . S
H695 C701 0.949 . S
C696 H691 0.950 . S
C696 C698 1.327 . S
C696 C702 1.429 . S
C697 C689 1.574 . S
C697 H692 0.949 . S
C697 C703 1.368 . S
C698 C682 1.349 . S
C698 H690 0.950 . S
C698 C696 1.327 . S
C699 C687 1.349 . S
C699 H693 0.950 . S
C699 C700 1.327 . S
C700 H694 0.950 . S
C700 C699 1.327 . S
C700 C704 1.429 . S
C701 C684 1.574 . S
C701 H695 0.949 . S
C701 C705 1.368 . S
C702 C683 1.429 . S
C702 C696 1.429 . S
C702 C703 1.523 . S
C703 C684 1.368 . S
C703 C697 1.368 . S
C703 C702 1.523 . S
C704 C688 1.429 . S
C704 C700 1.429 . S
C704 C705 1.523 . S
C705 C689 1.368 . S
C705 C701 1.368 . S
C705 C704 1.523 . S
H706 C681 0.950 . S
H707 C683 0.950 . S
H708 C684 0.949 . S
H709 C686 0.950 . S
H710 C688 0.950 . S
C711 C712 1.349 . S
C711 C713 1.327 . S
C711 H736 0.950 . S
C712 C711 1.349 . S
C712 C728 1.349 . S
C713 C711 1.327 . S
C713 C732 1.429 . S
C713 H737 0.950 . S
C714 C731 1.574 . S
C714 C733 1.368 . S
C714 H738 0.949 . S
H715 C719 0.949 . S
C716 C717 1.349 . S
C716 C718 1.327 . S
C716 H739 0.950 . S
C717 C716 1.349 . S
C717 C729 1.349 . S
C718 C716 1.327 . S
C718 C734 1.429 . S
C718 H740 0.950 . S
C719 H715 0.949 . S
C719 C727 1.574 . S
C719 C735 1.368 . S
H720 C728 0.950 . S
H721 C726 0.950 . S
H722 C727 0.949 . S
H723 C729 0.950 . S
H724 C730 0.950 . S
H725 C731 0.949 . S
C726 H721 0.950 . S
C726 C728 1.327 . S
C726 C732 1.429 . S
C727 C719 1.574 . S
C727 H722 0.949 . S
C727 C733 1.368 . S
C728 C712 1.349 . S
C728 H720 0.950 . S
C728 C726 1.327 . S
C729 C717 1.349 . S
C729 H723 0.950 . S
C729 C730 1.327 . S
C730 H724 0.950 . S
C730 C729 1.327 . S
C730 C734 1.429 . S
C731 C714 1.574 . S
C731 H725 0.949 . S
C731 C735 1.368 . S
C732 C713 1.429 . S
C732 C726 1.429 . S
C732 C733 1.523 . S
C733 C714 1.368 . S
C733 C727 1.368 . S
C733 C732 1.523 . S
C734 C718 1.429 . S
C734 C730 1.429 . S
C734 C735 1.523 . S
C735 C719 1.368 . S
C735 C731 1.368 . S
C735 C734 1.523 . S
H736 C711 0.950 . S
H737 C713 0.950 . S
H738 C714 0.949 . S
H739 C716 0.950 . S
H740 C718 0.950 . S
C741 C742 1.349 . S
C741 C743 1.327 . S
C741 H766 0.950 . S
C742 C741 1.349 . S
C742 C758 1.349 . S
C743 C741 1.327 . S
C743 C762 1.429 . S
C743 H767 0.950 . S
C744 C761 1.574 . S
C744 C763 1.368 . S
C744 H768 0.949 . S
H745 C749 0.949 . S
C746 C747 1.349 . S
C746 C748 1.327 . S
C746 H769 0.950 . S
C747 C746 1.349 . S
C747 C759 1.349 . S
C748 C746 1.327 . S
C748 C764 1.429 . S
C748 H770 0.950 . S
C749 H745 0.949 . S
C749 C757 1.574 . S
C749 C765 1.368 . S
H750 C758 0.950 . S
H751 C756 0.950 . S
H752 C757 0.949 . S
H753 C759 0.950 . S
H754 C760 0.950 . S
H755 C761 0.949 . S
C756 H751 0.950 . S
C756 C758 1.327 . S
C756 C762 1.429 . S
C757 C749 1.574 . S
C757 H752 0.949 . S
C757 C763 1.368 . S
C758 C742 1.349 . S
C758 H750 0.950 . S
C758 C756 1.327 . S
C759 C747 1.349 . S
C759 H753 0.950 . S
C759 C760 1.327 . S
C760 H754 0.950 . S
C760 C759 1.327 . S
C760 C764 1.429 . S
C761 C744 1.574 . S
C761 H755 0.949 . S
C761 C765 1.368 . S
C762 C743 1.429 . S
C762 C756 1.429 . S
C762 C763 1.523 . S
C763 C744 1.368 . S
C763 C757 1.368 . S
C763 C762 1.523 . S
C764 C748 1.429 . S
C764 C760 1.429 . S
C764 C765 1.523 . S
C765 C749 1.368 . S
C765 C761 1.368 . S
C765 C764 1.523 . S
H766 C741 0.950 . S
H767 C743 0.950 . S
H768 C744 0.949 . S
H769 C746 0.950 . S
H770 C748 0.950 . S
C771 C772 1.349 . S
C771 C773 1.327 . S
C771 H796 0.950 . S
C772 C771 1.349 . S
C772 C788 1.349 . S
C773 C771 1.327 . S
C773 C792 1.429 . S
C773 H797 0.950 . S
C774 C791 1.574 . S
C774 C793 1.368 . S
C774 H798 0.949 . S
H775 C779 0.949 . S
C776 C777 1.349 . S
C776 C778 1.327 . S
C776 H799 0.950 . S
C777 C776 1.349 . S
C777 C789 1.349 . S
C778 C776 1.327 . S
C778 C794 1.429 . S
C778 H800 0.950 . S
C779 H775 0.949 . S
C779 C787 1.574 . S
C779 C795 1.368 . S
H780 C788 0.950 . S
H781 C786 0.950 . S
H782 C787 0.949 . S
H783 C789 0.950 . S
H784 C790 0.950 . S
H785 C791 0.949 . S
C786 H781 0.950 . S
C786 C788 1.327 . S
C786 C792 1.429 . S
C787 C779 1.574 . S
C787 H782 0.949 . S
C787 C793 1.368 . S
C788 C772 1.349 . S
C788 H780 0.950 . S
C788 C786 1.327 . S
C789 C777 1.349 . S
C789 H783 0.950 . S
C789 C790 1.327 . S
C790 H784 0.950 . S
C790 C789 1.327 . S
C790 C794 1.429 . S
C791 C774 1.574 . S
C791 H785 0.949 . S
C791 C795 1.368 . S
C792 C773 1.429 . S
C792 C786 1.429 . S
C792 C793 1.523 . S
C793 C774 1.368 . S
C793 C787 1.368 . S
C793 C792 1.523 . S
C794 C778 1.429 . S
C794 C790 1.429 . S
C794 C795 1.523 . S
C795 C779 1.368 . S
C795 C791 1.368 . S
C795 C794 1.523 . S
H796 C771 0.950 . S
H797 C773 0.950 . S
H798 C774 0.949 . S
H799 C776 0.950 . S
H800 C778 0.950 . S
C801 C802 1.349 . S
C801 C803 1.327 . S
C801 H826 0.950 . S
C802 C801 1.349 . S
C802 C818 1.349 . S
C803 C801 1.327 . S
C803 C822 1.429 . S
C803 H827 0.950 . S
C804 C821 1.574 . S
C804 C823 1.368 . S
C804 H828 0.949 . S
H805 C809 0.949 . S
C806 C807 1.349 . S
C806 C808 1.327 . S
C806 H829 0.950 . S
C807 C806 1.349 . S
C807 C819 1.349 . S
C808 C806 1.327 . S
C808 C824 1.429 . S
C808 H830 0.950 . S
C809 H805 0.949 . S
C809 C817 1.574 . S
C809 C825 1.368 . S
H810 C818 0.950 . S
H811 C816 0.950 . S
H812 C817 0.949 . S
H813 C819 0.950 . S
H814 C820 0.950 . S
H815 C821 0.949 . S
C816 H811 0.950 . S
C816 C818 1.327 . S
C816 C822 1.429 . S
C817 C809 1.574 . S
C817 H812 0.949 . S
C817 C823 1.368 . S
C818 C802 1.349 . S
C818 H810 0.950 . S
C818 C816 1.327 . S
C819 C807 1.349 . S
C819 H813 0.950 . S
C819 C820 1.327 . S
C820 H814 0.950 . S
C820 C819 1.327 . S
C820 C824 1.429 . S
C821 C804 1.574 . S
C821 H815 0.949 . S
C821 C825 1.368 . S
C822 C803 1.429 . S
C822 C816 1.429 . S
C822 C823 1.523 . S
C823 C804 1.368 . S
C823 C817 1.368 . S
C823 C822 1.523 . S
C824 C808 1.429 . S
C824 C820 1.429 . S
C824 C825 1.523 . S
C825 C809 1.368 . S
C825 C821 1.368 . S
C825 C824 1.523 . S
H826 C801 0.950 . S
H827 C803 0.950 . S
H828 C804 0.949 . S
H829 C806 0.950 . S
H830 C808 0.950 . S
C831 C832 1.349 . S
C831 C833 1.327 . S
C831 H856 0.950 . S
C832 C831 1.349 . S
C832 C848 1.349 . S
C833 C831 1.327 . S
C833 C852 1.429 . S
C833 H857 0.950 . S
C834 C851 1.574 . S
C834 C853 1.368 . S
C834 H858 0.949 . S
H835 C839 0.949 . S
C836 C837 1.349 . S
C836 C838 1.327 . S
C836 H859 0.950 . S
C837 C836 1.349 . S
C837 C849 1.349 . S
C838 C836 1.327 . S
C838 C854 1.429 . S
C838 H860 0.950 . S
C839 H835 0.949 . S
C839 C847 1.574 . S
C839 C855 1.368 . S
H840 C848 0.950 . S
H841 C846 0.950 . S
H842 C847 0.949 . S
H843 C849 0.950 . S
H844 C850 0.950 . S
H845 C851 0.949 . S
C846 H841 0.950 . S
C846 C848 1.327 . S
C846 C852 1.429 . S
C847 C839 1.574 . S
C847 H842 0.949 . S
C847 C853 1.368 . S
C848 C832 1.349 . S
C848 H840 0.950 . S
C848 C846 1.327 . S
C849 C837 1.349 . S
C849 H843 0.950 . S
C849 C850 1.327 . S
C850 H844 0.950 . S
C850 C849 1.327 . S
C850 C854 1.429 . S
C851 C834 1.574 . S
C851 H845 0.949 . S
C851 C855 1.368 . S
C852 C833 1.429 . S
C852 C846 1.429 . S
C852 C853 1.523 . S
C853 C834 1.368 . S
C853 C847 1.368 . S
C853 C852 1.523 . S
C854 C838 1.429 . S
C854 C850 1.429 . S
C854 C855 1.523 . S
C855 C839 1.368 . S
C855 C851 1.368 . S
C855 C854 1.523 . S
H856 C831 0.950 . S
H857 C833 0.950 . S
H858 C834 0.949 . S
H859 C836 0.950 . S
H860 C838 0.950 . S
C861 C862 1.349 . S
C861 C863 1.327 . S
C861 H886 0.950 . S
C862 C861 1.349 . S
C862 C878 1.349 . S
C863 C861 1.327 . S
C863 C882 1.429 . S
C863 H887 0.950 . S
C864 C881 1.574 . S
C864 C883 1.368 . S
C864 H888 0.949 . S
H865 C869 0.949 . S
C866 C867 1.349 . S
C866 C868 1.327 . S
C866 H889 0.950 . S
C867 C866 1.349 . S
C867 C879 1.349 . S
C868 C866 1.327 . S
C868 C884 1.429 . S
C868 H890 0.950 . S
C869 H865 0.949 . S
C869 C877 1.574 . S
C869 C885 1.368 . S
H870 C878 0.950 . S
H871 C876 0.950 . S
H872 C877 0.949 . S
H873 C879 0.950 . S
H874 C880 0.950 . S
H875 C881 0.949 . S
C876 H871 0.950 . S
C876 C878 1.327 . S
C876 C882 1.429 . S
C877 C869 1.574 . S
C877 H872 0.949 . S
C877 C883 1.368 . S
C878 C862 1.349 . S
C878 H870 0.950 . S
C878 C876 1.327 . S
C879 C867 1.349 . S
C879 H873 0.950 . S
C879 C880 1.327 . S
C880 H874 0.950 . S
C880 C879 1.327 . S
C880 C884 1.429 . S
C881 C864 1.574 . S
C881 H875 0.949 . S
C881 C885 1.368 . S
C882 C863 1.429 . S
C882 C876 1.429 . S
C882 C883 1.523 . S
C883 C864 1.368 . S
C883 C877 1.368 . S
C883 C882 1.523 . S
C884 C868 1.429 . S
C884 C880 1.429 . S
C884 C885 1.523 . S
C885 C869 1.368 . S
C885 C881 1.368 . S
C885 C884 1.523 . S
H886 C861 0.950 . S
H887 C863 0.950 . S
H888 C864 0.949 . S
H889 C866 0.950 . S
H890 C868 0.950 . S
C177 C96 1.054 . S
C172 C4 1.108 . S
C207 C132 1.603 . S
C202 C13 1.714 . S
C237 C97 1.326 . S
C232 C25 1.340 . S
C267 C127 1.453 . S
C262 C32 1.513 . S
C297 C94 1.392 . S
C292 C41 1.462 . S
C322 C52 1.606 . S
C327 C130 1.604 . S
C352 C61 1.158 . S
C357 C99 1.064 . S
C387 C129 1.341 . S
C382 C67 1.391 . S
C417 C133 1.334 . S
C412 C7 1.381 . S
C447 C98 1.413 . S
C442 C14 1.479 . S
C477 C126 1.622 . S
C472 C22 1.626 . S
C507 C95 1.059 . S
C502 C31 1.153 . S
C537 C128 1.583 . S
C532 C40 1.694 . S
C562 C49 1.350 . S
C567 C93 1.334 . S
C592 C59 1.524 . S
C597 C131 1.462 . S
C627 C100 1.047 . S
C622 C70 1.100 . S
C657 C162 1.660 . S
C652 C5 1.768 . S
C682 C43 1.940 . S
C687 C165 1.804 . S
C717 C164 1.589 . S
C712 C50 1.656 . S
C742 C58 2.031 . S
C747 C163 2.013 . S
C777 C166 1.657 . S
C772 C68 1.765 . S
C802 C23 1.665 . S
C807 C160 1.598 . S
C837 C159 1.984 . S
C832 C34 2.002 . S
C862 C16 1.960 . S
C867 C161 1.828 . S
