# Generated by pormake.
# Topology tsx, (6,3)-cn, num edge types: 1
# Building blocks:
#     Node 0, Type 0, BuildingBlock: JUFBIX_clean_sbu_0, # of connection points: 6
#     Node 1, Type 0, BuildingBlock: JUFBIX_clean_sbu_0, # of connection points: 6
#     Node 2, Type 1, BuildingBlock: VETTIZ_charged_linker_0, # of connection points: 3
#     Node 3, Type 1, BuildingBlock: VETTIZ_charged_linker_0, # of connection points: 3
#     Node 4, Type 1, BuildingBlock: VETTIZ_charged_linker_0, # of connection points: 3
#     Node 5, Type 1, BuildingBlock: VETTIZ_charged_linker_0, # of connection points: 3
#     Edge 6, Type (0, 1), BuildingBlock: XUDNAN_clean_linker_2, # of connection points: 2
#     Edge 7, Type (0, 1), BuildingBlock: XUDNAN_clean_linker_2, # of connection points: 2
#     Edge 8, Type (0, 1), BuildingBlock: XUDNAN_clean_linker_2, # of connection points: 2
#     Edge 9, Type (0, 1), BuildingBlock: XUDNAN_clean_linker_2, # of connection points: 2
#     Edge 10, Type (0, 1), BuildingBlock: XUDNAN_clean_linker_2, # of connection points: 2
#     Edge 11, Type (0, 1), BuildingBlock: XUDNAN_clean_linker_2, # of connection points: 2
#     Edge 12, Type (0, 1), BuildingBlock: XUDNAN_clean_linker_2, # of connection points: 2
#     Edge 13, Type (0, 1), BuildingBlock: XUDNAN_clean_linker_2, # of connection points: 2
#     Edge 14, Type (0, 1), BuildingBlock: XUDNAN_clean_linker_2, # of connection points: 2
#     Edge 15, Type (0, 1), BuildingBlock: XUDNAN_clean_linker_2, # of connection points: 2
#     Edge 16, Type (0, 1), BuildingBlock: XUDNAN_clean_linker_2, # of connection points: 2
#     Edge 17, Type (0, 1), BuildingBlock: XUDNAN_clean_linker_2, # of connection points: 2
# Relax obj value: 0.164
# Max RMSD: 0.169
# Mean RMSD: 0.137
data_MOF--net-tsx--node1-JUFBIX_clean_sbu_0--node2-VETTIZ_charged_linker_0--edge1-XUDNAN_clean_linker_2
_symmetry_space_group_name_H-M    P1
_symmetry_Int_Tables_number       1
_symmetry_cell_setting            triclinic
loop_
_symmetry_equiv_pos_as_xyz
'x, y, z'
_cell_length_a     23.35944
_cell_length_b     27.505257
_cell_length_c     44.707822
_cell_angle_alpha  92.203307
_cell_angle_beta   89.524993
_cell_angle_gamma 97.937413
loop_
_atom_site_label
_atom_site_type_symbol
_atom_site_fract_x
_atom_site_fract_y
_atom_site_fract_z
_atom_type_partial_charge
Co0 Co 0.06428 0.04643 -0.00839 0.0
C1 C 1.00211 0.08987 0.94932 0.0
Co2 Co 1.00253 0.09432 0.01084 0.0
C3 C 0.13419 0.96628 0.98549 0.0
C4 C 0.13719 1.0085 0.94616 0.0
N5 N 0.11442 1.00572 0.97402 0.0
N6 N 0.16766 0.94436 0.96581 0.0
C7 C 0.16946 0.97072 0.94101 0.0
H8 H 0.12347 0.95324 0.00765 0.0
H9 H 0.13078 0.03616 0.93045 0.0
C10 C 0.06452 0.04967 0.05281 0.0
N11 N 0.95305 0.13522 0.02883 0.0
C12 C 0.90934 0.15528 0.01662 0.0
C13 C 0.95662 0.15408 0.05724 0.0
N14 N 0.88573 0.18547 0.03629 0.0
C15 C 0.91526 0.18454 0.06189 0.0
C16 C 0.95329 0.99779 0.0018 0.0
O17 O 0.08831 0.03188 0.0301 0.0
O18 O 0.02603 0.07726 0.04919 0.0
O19 O 0.94318 0.04034 0.01059 0.0
O20 O 1.00379 0.99193 -0.00741 0.0
O21 O 0.98028 0.11044 0.97177 0.0
H22 H 0.98846 0.14768 0.07348 0.0
H23 H 0.89542 0.14844 -0.00637 0.0
O24 O 0.039 0.06098 0.95345 0.0
O25 O 0.12398 0.10255 -0.00901 0.0
O26 O 0.06178 0.14735 0.01122 0.0
C27 C 0.11231 0.14386 0.00154 0.0
H28 H 0.19327 0.96365 0.92079 0.0
H29 H 0.9091 0.20604 0.08217 0.0
Co30 Co 0.59531 0.46015 0.49979 0.0
C31 C 0.56028 0.50702 0.44935 0.0
Co32 Co 0.5309 0.51159 0.50784 0.0
C33 C 0.65536 0.37356 0.49894 0.0
C34 C 0.69488 0.43043 0.47108 0.0
N35 N 0.65006 0.41911 0.48987 0.0
N36 N 0.70197 0.35612 0.48654 0.0
C37 C 0.72658 0.39201 0.46893 0.0
H38 H 0.62584 0.35393 0.51453 0.0
H39 H 0.70383 0.46451 0.45954 0.0
C40 C 0.56563 0.46503 0.55815 0.0
N41 N 0.47707 0.55338 0.5184 0.0
C42 C 0.43336 0.5667 0.50233 0.0
C43 C 0.47334 0.57647 0.54546 0.0
N44 N 0.40231 0.59622 0.5186 0.0
C45 C 0.42716 0.60238 0.5457 0.0
C46 C 0.48192 0.41541 0.49531 0.0
O47 O 0.59824 0.44403 0.54057 0.0
O48 O 0.5343 0.49467 0.54802 0.0
O49 O 0.4707 0.45878 0.50091 0.0
O50 O 0.5342 0.40723 0.49368 0.0
O51 O 0.52829 0.52769 0.46748 0.0
H52 H 0.50251 0.5749 0.56394 0.0
H53 H 0.42403 0.55466 0.47933 0.0
O54 O 0.59162 0.47663 0.45888 0.0
O55 O 0.65568 0.51402 0.50631 0.0
O56 O 0.59137 0.56405 0.51466 0.0
C57 C 0.6439 0.55707 0.51257 0.0
H58 H 0.7643 0.39051 0.4549 0.0
H59 H 0.41359 0.62497 0.56408 0.0
C60 C 0.10812 0.83975 0.45097 0.0
C61 C 0.14721 0.81112 0.43691 0.0
C62 C 0.15881 0.81672 0.40612 0.0
C63 C 0.09661 0.87984 0.40439 0.0
C64 C 0.08291 0.87343 0.43419 0.0
C65 C 0.0387 0.9055 0.44487 0.0
H66 H 0.89378 0.09727 0.41581 0.0
C67 C 0.06481 0.91817 0.39339 0.0
C68 C 0.03097 0.93409 0.41698 0.0
H69 H 0.88864 0.01896 0.49776 0.0
H70 H 0.94989 0.96262 0.47511 0.0
H71 H 0.0287 0.09543 0.39747 0.0
H72 H 0.8692 1.00388 0.37577 0.0
H73 H 0.91427 0.99742 0.34469 0.0
H74 H 0.89394 0.05698 0.3548 0.0
H75 H 0.97062 0.11435 0.37666 0.0
H76 H 0.02528 0.08403 0.35833 0.0
C77 C 0.06438 0.93879 0.47149 0.0
C78 C 0.98284 0.87124 0.45247 0.0
C79 C 0.0934 0.96741 0.28558 0.0
C80 C 0.06597 0.99795 0.26747 0.0
C81 C 0.02504 0.02543 0.28086 0.0
C82 C 1.01162 0.02224 0.31138 0.0
C83 C 0.03838 0.99053 0.32882 0.0
C84 C 0.07808 0.96349 0.31577 0.0
C85 C 0.09858 0.92859 0.33696 0.0
C86 C 0.06479 0.93941 0.36501 0.0
C87 C 0.03046 0.97623 0.36027 0.0
C88 C 0.16453 0.94343 0.3413 0.0
C89 C 0.08062 0.87536 0.32415 0.0
C90 C 0.90647 0.06832 0.42902 0.0
C91 C 0.88851 0.06353 0.45888 0.0
C92 C 0.90338 0.02399 0.47492 0.0
C93 C 0.9389 0.99151 0.46178 0.0
C94 C 0.95863 0.99819 0.43216 0.0
C95 C 0.94065 0.0353 0.41611 0.0
C96 C 0.96088 0.03486 0.38422 0.0
C97 C 0.99691 0.99316 0.38403 0.0
C98 C 0.99626 0.97187 0.41221 0.0
C99 C 0.99818 0.08478 0.37861 0.0
C100 C 0.90709 0.02301 0.36365 0.0
H101 H 0.14607 0.8537 0.36686 0.0
H102 H 0.09774 0.83657 0.47451 0.0
H103 H 0.94494 0.89083 0.45524 0.0
H104 H 0.98866 0.85115 0.47306 0.0
H105 H 0.97163 0.84335 0.434 0.0
H106 H 0.11083 0.95221 0.46747 0.0
H107 H 0.06111 0.91839 0.49255 0.0
H108 H 0.04354 0.97214 0.47498 0.0
H109 H 0.12555 0.94607 0.27652 0.0
H110 H 1.00187 0.04849 0.26768 0.0
H111 H 0.98021 0.04406 0.32009 0.0
H112 H 0.17564 0.98411 0.34292 0.0
H113 H 0.18907 0.92967 0.32212 0.0
H114 H 0.18078 0.93035 0.36222 0.0
H115 H 0.04313 0.87303 0.30871 0.0
H116 H 0.06571 0.84925 0.34174 0.0
H117 H 0.11659 0.86173 0.3114 0.0
H118 H 0.18657 0.79419 0.39413 0.0
C119 C 0.13444 0.8511 0.39001 0.0
C120 C 0.13377 0.12966 0.54417 0.0
C121 C 0.1684 0.17165 0.55614 0.0
C122 C 0.1608 0.18653 0.58622 0.0
C123 C 0.08471 0.11828 0.59208 0.0
C124 C 0.09278 0.10317 0.56266 0.0
C125 C 0.05425 0.05613 0.5543 0.0
H126 H 0.85384 0.86855 0.59668 0.0
C127 C 0.03897 0.083 0.60529 0.0
C128 C 0.02098 0.04629 0.58334 0.0
H129 H 0.93643 0.88772 0.51047 0.0
H130 H 0.98771 0.96612 0.52767 0.0
H131 H 0.96194 0.90225 0.63506 0.0
H132 H 0.82935 0.98316 0.60554 0.0
H133 H 0.84465 1.00196 0.64296 0.0
H134 H 0.81739 0.93851 0.63397 0.0
H135 H 0.89163 0.89659 0.65208 0.0
H136 H 0.9495 0.94289 0.66481 0.0
C137 C 0.09334 0.01623 0.54658 0.0
C138 C 1.01419 0.06608 0.52849 0.0
C139 C 0.97955 0.10769 0.71393 0.0
C140 C 0.94233 0.07854 0.73297 0.0
C141 C 0.90895 0.03563 0.72126 0.0
C142 C 0.91347 0.02122 0.69106 0.0
C143 C 0.95251 0.04963 0.67244 0.0
C144 C 0.98437 0.0923 0.68387 0.0
C145 C 0.02585 0.11633 0.66117 0.0
C146 C 1.01336 0.08117 0.63423 0.0
C147 C 0.97034 0.04231 0.64099 0.0
C148 C 0.08831 0.11723 0.67302 0.0
C149 C 1.00884 0.1676 0.65543 0.0
C150 C 0.88248 0.88987 0.58138 0.0
C151 C 0.89175 0.87168 0.55221 0.0
C152 C 0.92975 0.90048 0.53316 0.0
C153 C 0.95931 0.94597 0.5432 0.0
C154 C 0.95113 0.96283 0.57277 0.0
C155 C 0.91251 0.93522 0.59114 0.0
C156 C 0.90919 0.95874 0.62187 0.0
C157 C 0.95271 1.00468 0.61906 0.0
C158 C 0.97741 1.00687 0.5903 0.0
C159 C 0.92859 0.92345 0.64485 0.0
C160 C 0.84694 0.97109 0.62666 0.0
H161 H 0.11501 0.17383 0.6268 0.0
H162 H 0.13917 0.11734 0.52114 0.0
H163 H 0.97233 0.04203 0.52892 0.0
H164 H 0.03506 0.06159 0.50632 0.0
H165 H 1.00297 0.1041 0.53047 0.0
H166 H 0.13073 0.01959 0.56214 0.0
H167 H 0.11081 0.01986 0.52346 0.0
H168 H 0.07116 0.9785 0.54895 0.0
H169 H 1.00654 0.14031 0.72261 0.0
H170 H 0.88016 1.01269 0.73571 0.0
H171 H 0.88746 0.98781 0.6836 0.0
H172 H 0.09117 0.08656 0.68822 0.0
H173 H 0.10319 0.1521 0.68575 0.0
H174 H 0.11973 0.1118 0.65498 0.0
H175 H 0.96103 0.16575 0.65411 0.0
H176 H 0.02539 0.18236 0.63394 0.0
H177 H 0.02423 0.1944 0.67382 0.0
H178 H 0.18687 0.21902 0.59572 0.0
C179 C 0.11894 0.16033 0.60416 0.0
C180 C 0.5922 0.43373 0.96789 0.0
C181 C 0.61867 0.39283 0.95777 0.0
C182 C 0.60727 0.37348 0.92845 0.0
C183 C 0.54893 0.43707 0.91893 0.0
C184 C 0.55732 0.45522 0.94801 0.0
C185 C 0.52284 0.49716 0.95472 0.0
H186 H 0.36721 0.6653 0.90024 0.0
C187 C 0.51226 0.46756 0.90354 0.0
C188 C 0.49582 0.50263 0.92424 0.0
H189 H 0.39235 0.63538 -0.00678 0.0
H190 H 0.4473 0.57002 0.97797 0.0
H191 H 0.48974 0.64026 0.87182 0.0
H192 H 0.32337 0.55466 0.88531 0.0
H193 H 0.35061 0.53299 0.85142 0.0
H194 H 0.33637 0.59584 0.85507 0.0
H195 H 0.42572 0.64975 0.85214 0.0
H196 H 0.4703 0.60503 0.83879 0.0
C197 C 0.56462 0.54347 0.96427 0.0
C198 C 0.47665 0.48115 0.97871 0.0
C199 C 0.48842 0.44193 0.79164 0.0
C200 C 0.46378 0.46753 0.76969 0.0
C201 C 0.43394 0.50697 0.77866 0.0
C202 C 0.43061 0.52159 0.80898 0.0
C203 C 0.45729 0.49645 0.83054 0.0
C204 C 0.48476 0.45694 0.82164 0.0
C205 C 0.51212 0.43515 0.84716 0.0
C206 C 0.49678 0.46819 0.87303 0.0
C207 C 0.46478 0.50403 0.86327 0.0
C208 C 0.5783 0.4407 0.84122 0.0
C209 C 0.48234 0.38141 0.85002 0.0
C210 C 0.38357 0.64492 0.91772 0.0
C211 C 0.37689 0.65787 0.94827 0.0
C212 C 0.39952 0.62893 0.96964 0.0
C213 C 0.43032 0.59021 0.96088 0.0
C214 C 0.43662 0.57847 0.93039 0.0
C215 C 0.4117 0.6046 0.90946 0.0
C216 C 0.41572 0.58275 0.8783 0.0
C217 C 0.44765 0.5396 0.88404 0.0
C218 C 0.46163 0.53814 0.91451 0.0
C219 C 0.45193 0.62132 0.859 0.0
C220 C 0.35351 0.56587 0.86662 0.0
H221 H 0.56668 0.37866 0.88714 0.0
H222 H 0.59878 0.44877 -0.00947 0.0
H223 H 0.43324 0.48831 0.9718 0.0
H224 H 0.48757 0.50004 0.00072 0.0
H225 H 0.47217 0.44104 0.9823 0.0
H226 H 0.59952 0.55116 0.94734 0.0
H227 H 0.58508 0.53847 0.98608 0.0
H228 H 0.54242 0.57639 0.96649 0.0
H229 H 0.51272 0.41218 0.78562 0.0
H230 H 0.41398 0.52705 0.76219 0.0
H231 H 0.40837 0.55243 0.81437 0.0
H232 H 0.59347 0.4758 0.83022 0.0
H233 H 0.58974 0.41029 0.82628 0.0
H234 H 0.60435 0.4425 0.86179 0.0
H235 H 0.43745 0.37635 0.84114 0.0
H236 H 0.47725 0.37055 0.87359 0.0
H237 H 0.50638 0.35509 0.83741 0.0
H238 H 0.62476 0.34093 0.92033 0.0
C239 C 0.57285 0.39525 0.90913 0.0
C240 C 0.5985 0.71366 0.05044 0.0
C241 C 0.6394 0.75026 0.06384 0.0
C242 C 0.6412 0.75589 0.09528 0.0
C243 C 0.56485 0.68748 0.09959 0.0
C244 C 0.56129 0.68305 0.06877 0.0
C245 C 0.51412 0.64293 0.05862 0.0
H246 H 0.33299 0.43863 0.09413 0.0
C247 C 0.52246 0.64879 0.1122 0.0
C248 C 0.49199 0.62255 0.08839 0.0
H249 H 0.36217 0.49934 0.00685 0.0
H250 H 0.42181 0.57079 0.02906 0.0
H251 H 0.46167 0.46693 0.12021 0.0
H252 H 0.30932 0.53848 0.12574 0.0
H253 H 0.34727 0.55551 0.1591 0.0
H254 H 0.32052 0.49154 0.15093 0.0
H255 H 0.39629 0.44309 0.13921 0.0
H256 H 0.45102 0.48545 0.15778 0.0
C257 C 0.54198 0.60506 0.03895 0.0
C258 C 0.46769 0.66709 0.04249 0.0
C259 C 0.52995 0.61768 0.22299 0.0
C260 C 0.49928 0.58229 0.24099 0.0
C261 C 0.45201 0.55059 0.22888 0.0
C262 C 0.43768 0.55218 0.1986 0.0
C263 C 0.47108 0.58578 0.18034 0.0
C264 C 0.51487 0.61901 0.19288 0.0
C265 C 0.54437 0.65322 0.17038 0.0
C266 C 0.51231 0.63391 0.14201 0.0
C267 C 0.47025 0.59389 0.14791 0.0
C268 C 0.609 0.64587 0.16905 0.0
C269 C 0.53354 0.70626 0.17938 0.0
C270 C 0.35187 0.46742 0.07975 0.0
C271 C 0.34486 0.46252 0.04855 0.0
C272 C 0.36936 0.5013 0.03076 0.0
C273 C 0.40362 0.5427 0.04364 0.0
C274 C 0.41354 0.54539 0.07463 0.0
C275 C 0.38591 0.50903 0.09224 0.0
C276 C 0.39845 0.51921 0.12493 0.0
C277 C 0.43975 0.56685 0.12397 0.0
C278 C 0.44953 0.58164 0.09439 0.0
C279 C 0.42818 0.47651 0.13641 0.0
C280 C 0.34111 0.52628 0.14122 0.0
H281 H 0.60848 0.73064 0.13692 0.0
H282 H 0.59551 0.70913 0.02631 0.0
H283 H 0.42428 0.64555 0.04388 0.0
H284 H 0.47974 0.67309 0.01871 0.0
H285 H 0.46276 0.70349 0.05319 0.0
H286 H 0.58185 0.59613 0.04968 0.0
H287 H 0.55416 0.61989 0.01668 0.0
H288 H 0.51385 0.56983 0.03556 0.0
H289 H 0.56594 0.64291 0.23201 0.0
H290 H 0.42788 0.52306 0.24251 0.0
H291 H 0.40245 0.52611 0.19036 0.0
H292 H 0.63111 0.65891 0.14841 0.0
H293 H 0.6135 0.60615 0.16946 0.0
H294 H 0.633 0.66469 0.18853 0.0
H295 H 0.49371 0.7064 0.19319 0.0
H296 H 0.52604 0.72786 0.15973 0.0
H297 H 0.57009 0.72613 0.19264 0.0
H298 H 0.67252 0.78359 0.10612 0.0
C299 C 0.60418 0.72486 0.11316 0.0
H300 H 0.11083 0.22303 0.03943 0.0
H301 H 0.21244 0.16472 0.96842 0.0
H302 H 0.28143 0.2421 0.97097 0.0
H303 H 0.12799 0.34754 0.01759 0.0
H304 H 0.1332 0.37266 0.05546 0.0
H305 H 0.09221 0.31321 0.04759 0.0
H306 H 0.15335 0.27449 0.08598 0.0
H307 H 0.1942 0.33386 0.09417 0.0
H308 H 0.23099 0.28289 0.08243 0.0
H309 H 0.33728 0.32785 0.98086 0.0
H310 H 0.38064 0.40976 0.00053 0.0
H311 H 0.24275 0.40919 0.06597 0.0
C312 C 0.14753 0.22643 0.02431 0.0
C313 C 0.15615 0.1881 0.00351 0.0
C314 C 0.20516 0.1937 0.9845 0.0
C315 C 0.24426 0.23756 0.98572 0.0
C316 C 0.23385 0.27494 0.00628 0.0
C317 C 0.18702 0.26937 0.0255 0.0
C318 C 0.18615 0.31396 0.04631 0.0
C319 C 0.13165 0.33827 0.04143 0.0
C320 C 0.19151 0.30048 0.07916 0.0
C321 C 0.23984 0.34591 0.03582 0.0
C322 C 0.26651 0.3231 0.01252 0.0
C323 C 0.31673 0.34587 -0.00087 0.0
C324 C 0.34085 0.39259 0.01029 0.0
C325 C 0.31518 0.41586 0.03476 0.0
C326 C 0.26359 0.39224 0.04736 0.0
H327 H 0.17621 0.86836 0.92641 0.0
H328 H 0.2263 0.92628 0.01521 0.0
H329 H 0.28378 0.85791 0.0214 0.0
H330 H 0.1614 0.73858 0.94552 0.0
H331 H 0.18791 0.71943 0.90959 0.0
H332 H 0.15025 0.77232 0.91276 0.0
H333 H 0.23756 0.82509 0.88843 0.0
H334 H 0.27563 0.77249 0.88542 0.0
H335 H 0.30827 0.82796 0.90481 0.0
H336 H 0.3436 0.78746 0.01529 0.0
H337 H 0.39228 0.71676 0.00021 0.0
H338 H 0.29267 0.69893 0.91772 0.0
C339 C 0.19905 0.86632 0.9472 0.0
C340 C 0.19723 0.90258 0.97032 0.0
C341 C 0.22704 0.89863 -0.00264 0.0
C342 C 0.25992 0.8601 0.00096 0.0
C343 C 0.26146 0.82524 0.97754 0.0
C344 C 0.23085 0.82749 0.95142 0.0
C345 C 0.2389 0.78506 0.92985 0.0
C346 C 0.18118 0.75188 0.9241 0.0
C347 C 0.26675 0.80379 0.90039 0.0
C348 C 0.27993 0.7592 0.94758 0.0
C349 C 0.29284 0.78312 0.9749 0.0
C350 C 0.33268 0.76778 -0.00577 0.0
C351 C 0.35986 0.72696 0.98546 0.0
C352 C 0.34656 0.7009 0.95773 0.0
C353 C 0.30527 0.71755 0.93886 0.0
H354 H 0.85238 0.99358 0.03334 0.0
H355 H 0.95033 0.90601 0.97479 0.0
H356 H 0.8742 0.8346 0.97982 0.0
H357 H 0.81016 0.90161 0.0839 0.0
H358 H 0.73972 0.91925 0.09119 0.0
H359 H 0.79829 0.96445 0.08 0.0
H360 H 0.73715 0.98637 0.0356 0.0
H361 H 0.67831 0.94106 0.04662 0.0
H362 H 0.70723 0.93861 0.00918 0.0
H363 H 0.78932 0.77146 -0.00623 0.0
H364 H 0.70801 0.72077 0.01863 0.0
H365 H 0.66844 0.84987 0.069 0.0
C366 C 0.85741 0.95967 0.0211 0.0
C367 C 0.90701 0.95545 0.00344 0.0
C368 C 0.91254 0.91008 -0.01165 0.0
C369 C 0.8694 0.86944 -0.00904 0.0
C370 C 0.82121 0.87479 0.00881 0.0
C371 C 0.81526 0.91877 0.02374 0.0
C372 C 0.76213 0.91408 0.04355 0.0
C373 C 0.77859 0.9255 0.07661 0.0
C374 C 0.71863 0.94698 0.0331 0.0
C375 C 0.73961 0.8603 0.03797 0.0
C376 C 0.77357 0.83837 0.01746 0.0
C377 C 0.7622 0.78838 0.00966 0.0
C378 C 0.71581 0.75994 0.02374 0.0
C379 C 0.68207 0.7815 0.04566 0.0
C380 C 0.69358 0.83248 0.05231 0.0
H381 H 0.86735 0.22913 0.98448 0.0
H382 H 0.80587 0.21206 0.07571 0.0
H383 H 0.73362 0.26786 0.067 0.0
H384 H 0.85336 0.35748 0.98081 0.0
H385 H 0.83048 0.35248 0.94227 0.0
H386 H 0.87701 0.31116 0.95582 0.0
H387 H 0.80362 0.23644 0.93802 0.0
H388 H 0.75715 0.27749 0.92418 0.0
H389 H 0.72958 0.23202 0.95056 0.0
H390 H 0.6655 0.324 0.04726 0.0
H391 H 0.6068 0.37346 0.01784 0.0
H392 H 0.71807 0.35699 0.94093 0.0
C393 C 0.8383 0.23673 0.00251 0.0
C394 C 0.84198 0.21613 0.03073 0.0
C395 C 0.80389 0.22772 0.05397 0.0
C396 C 0.76276 0.25933 0.04922 0.0
C397 C 0.76068 0.27947 0.02119 0.0
C398 C 0.79756 0.26863 -0.00173 0.0
C399 C 0.78672 0.29496 0.97024 0.0
C400 C 0.84007 0.33117 0.96181 0.0
C401 C 0.76815 0.25802 0.94422 0.0
C402 C 0.73743 0.32173 0.9808 0.0
C403 C 0.72288 0.31251 0.01022 0.0
C404 C 0.67686 0.33179 0.02425 0.0
C405 C 0.64401 0.36018 0.00746 0.0
C406 C 0.65749 0.36893 0.97702 0.0
C407 C 0.70595 0.35047 0.96402 0.0
H408 H 0.63508 0.64819 0.53752 0.0
H409 H 0.7578 0.56108 0.4962 0.0
H410 H 0.83425 0.6328 0.50059 0.0
H411 H 0.68701 0.76168 0.50359 0.0
H412 H 0.67593 0.79909 0.53656 0.0
H413 H 0.63099 0.74104 0.53001 0.0
H414 H 0.65917 0.71264 0.58183 0.0
H415 H 0.70394 0.7707 0.58862 0.0
H416 H 0.73447 0.71425 0.59093 0.0
H417 H 0.89651 0.71523 0.5082 0.0
H418 H 0.94168 0.79962 0.52225 0.0
H419 H 0.77856 0.83157 0.55984 0.0
C420 C 0.67805 0.64413 0.52941 0.0
C421 C 0.69048 0.59909 0.51641 0.0
C422 C 0.74736 0.5952 0.5063 0.0
C423 C 0.79097 0.63579 0.50859 0.0
C424 C 0.77708 0.6798 0.52127 0.0
C425 C 0.72213 0.68401 0.5318 0.0
C426 C 0.71865 0.73498 0.54513 0.0
C427 C 0.6756 0.7607 0.52777 0.0
C428 C 0.70316 0.733 0.57861 0.0
C429 C 0.78021 0.75891 0.54039 0.0
C430 C 0.81315 0.72666 0.52635 0.0
C431 C 0.87116 0.74072 0.51928 0.0
C432 C 0.89633 0.78879 0.52716 0.0
C433 C 0.86365 0.82207 0.54218 0.0
C434 C 0.80475 0.8068 0.54864 0.0
H435 H 0.81012 0.33307 0.47609 0.0
H436 H 0.63858 0.27147 0.50525 0.0
H437 H 0.67129 0.18995 0.50774 0.0
H438 H 0.83123 0.23609 0.427 0.0
H439 H 0.9075 0.23967 0.43429 0.0
H440 H 0.8725 0.29371 0.43902 0.0
H441 H 0.90905 0.30547 0.4938 0.0
H442 H 0.94404 0.25121 0.48923 0.0
H443 H 0.89274 0.25602 0.51917 0.0
H444 H 0.7218 0.11281 0.50239 0.0
H445 H 0.78295 0.04884 0.48731 0.0
H446 H 0.91862 0.16232 0.46017 0.0
C447 C 0.77918 0.30273 0.48315 0.0
C448 C 0.72155 0.30905 0.49037 0.0
C449 C 0.68311 0.268 0.4999 0.0
C450 C 0.70133 0.22142 0.50134 0.0
C451 C 0.7582 0.21647 0.49336 0.0
C452 C 0.79646 0.25624 0.4845 0.0
C453 C 0.85377 0.24114 0.4747 0.0
C454 C 0.86698 0.25336 0.44181 0.0
C455 C 0.90279 0.26487 0.49547 0.0
C456 C 0.84145 0.18636 0.47855 0.0
C457 C 0.78655 0.17264 0.48984 0.0
C458 C 0.76504 0.12332 0.49385 0.0
C459 C 0.80002 0.08725 0.48538 0.0
C460 C 0.85531 0.10083 0.47265 0.0
C461 C 0.8765 0.15104 0.46994 0.0
H462 H 0.47009 0.33499 0.529 0.0
H463 H 0.38512 0.4067 0.46092 0.0
H464 H 0.29919 0.34313 0.46402 0.0
H465 H 0.40501 0.20549 0.51113 0.0
H466 H 0.39705 0.19182 0.55018 0.0
H467 H 0.45567 0.23651 0.53813 0.0
H468 H 0.42266 0.30124 0.57573 0.0
H469 H 0.36396 0.25695 0.58779 0.0
H470 H 0.34945 0.31486 0.57419 0.0
H471 H 0.21986 0.27587 0.47769 0.0
H472 H 0.14991 0.21655 0.50448 0.0
H473 H 0.28382 0.19428 0.56695 0.0
C474 C 0.43411 0.33602 0.514 0.0
C475 C 0.43436 0.37449 0.49407 0.0
C476 C 0.38573 0.37664 0.47583 0.0
C477 C 0.337 0.34071 0.47742 0.0
C478 C 0.33743 0.30357 0.49779 0.0
C479 C 0.38457 0.30132 0.51599 0.0
C480 C 0.37114 0.26243 0.53905 0.0
C481 C 0.4095 0.22164 0.53433 0.0
C482 C 0.37714 0.28525 0.57107 0.0
C483 C 0.30871 0.24386 0.53145 0.0
C484 C 0.29049 0.26708 0.50709 0.0
C485 C 0.2338 0.25716 0.49661 0.0
C486 C 0.19446 0.22343 0.51185 0.0
C487 C 0.21182 0.20103 0.53758 0.0
C488 C 0.2698 0.21084 0.54717 0.0
H489 H 0.4004 0.65317 0.47104 0.0
H490 H 0.29893 0.59371 0.54587 0.0
H491 H 0.21974 0.64037 0.53245 0.0
H492 H 0.36356 0.77336 0.48124 0.0
H493 H 0.3626 0.78525 0.4419 0.0
H494 H 0.40793 0.74302 0.4554 0.0
H495 H 0.35953 0.67488 0.4185 0.0
H496 H 0.31426 0.71703 0.40473 0.0
H497 H 0.28202 0.65905 0.41888 0.0
H498 H 0.15267 0.69502 0.51091 0.0
H499 H 0.10452 0.75516 0.48442 0.0
H500 H 0.25621 0.78572 0.4276 0.0
C501 C 0.36082 0.64928 0.48403 0.0
C502 C 0.35469 0.6194 0.50904 0.0
C503 C 0.30351 0.61617 0.52639 0.0
C504 C 0.2586 0.64246 0.51895 0.0
C505 C 0.26625 0.67244 0.49439 0.0
C506 C 0.31628 0.67624 0.47733 0.0
C507 C 0.31574 0.71387 0.45359 0.0
C508 C 0.36539 0.75639 0.45834 0.0
C509 C 0.318 0.68975 0.42206 0.0
C510 C 0.25757 0.73053 0.45989 0.0
C511 C 0.22932 0.70589 0.48323 0.0
C512 C 0.17455 0.71477 0.49268 0.0
C513 C 0.14776 0.74947 0.47766 0.0
C514 C 0.17612 0.77545 0.4537 0.0
C515 C 0.23223 0.76598 0.44522 0.0
H516 H 0.05623 0.1036 0.10468 0.0
H517 H 0.10395 0.96573 0.06917 0.0
H518 H 0.11703 0.9396 0.1207 0.0
H519 H 0.15856 0.11683 0.16866 0.0
H520 H 0.10844 0.14373 0.1929 0.0
H521 H 0.10799 0.15295 0.15321 0.0
H522 H 0.99905 0.1183 0.15138 0.0
H523 H 0.99924 0.10851 0.19093 0.0
H524 H 0.9753 0.05802 0.16509 0.0
H525 H 0.11033 0.92413 0.17552 0.0
H526 H 0.09447 0.92302 0.2298 0.0
H527 H 0.06202 0.07505 0.22992 0.0
C528 C 0.07032 0.06825 0.10779 0.0
C529 C 0.07887 0.03649 0.08313 0.0
C530 C 0.09751 0.99061 0.08789 0.0
C531 C 0.10492 0.97547 0.11702 0.0
C532 C 0.09481 1.00721 0.14094 0.0
C533 C 0.0791 0.05306 0.13663 0.0
C534 C 0.06932 0.0796 0.1661 0.0
C535 C 0.11374 0.12602 0.17047 0.0
C536 C 1.00703 0.09179 0.1685 0.0
C537 C 0.07969 0.04069 0.18766 0.0
C538 C 0.0943 0.99926 0.1727 0.0
C539 C 0.10071 0.9569 0.18761 0.0
C540 C 0.09198 0.95686 0.21864 0.0
C541 C 0.0778 0.99924 0.23465 0.0
C542 C 0.07245 0.04183 0.2187 0.0
H543 H 1.00553 0.02688 0.90157 0.0
H544 H 0.95853 0.16969 0.92762 0.0
H545 H 0.93488 0.1826 0.87467 0.0
H546 H 0.0719 0.05826 0.83279 0.0
H547 H 0.04463 1.00083 0.81381 0.0
H548 H 0.05599 1.00316 0.85363 0.0
H549 H 0.94918 0.96565 0.86181 0.0
H550 H 0.93748 0.9631 0.82198 0.0
H551 H 0.89215 0.99495 0.84645 0.0
H552 H 0.92478 0.18152 0.81746 0.0
H553 H 0.92041 0.16341 0.76254 0.0
H554 H 0.96789 0.01918 0.77628 0.0
C555 C 0.99007 0.06087 0.8962 0.0
C556 C 0.98433 0.09755 0.9185 0.0
C557 C 0.96322 0.1412 0.91073 0.0
C558 C 0.94985 0.14882 0.88077 0.0
C559 C 0.95684 0.11198 0.8592 0.0
C560 C 0.97561 0.06857 0.86676 0.0
C561 C 0.97932 0.03438 0.83979 0.0
C562 C 0.04166 0.02355 0.83472 0.0
C563 C 0.937 0.98671 0.84269 0.0
C564 C 0.96071 0.06555 0.8156 0.0
C565 C 0.94825 0.11036 0.82703 0.0
C566 C 0.93349 0.14623 0.80839 0.0
C567 C 0.93124 0.13579 0.77734 0.0
C568 C 0.94286 0.08968 0.76552 0.0
C569 C 0.95754 0.05428 0.78494 0.0
H570 H 0.55673 0.53112 0.60318 0.0
H571 H 0.56111 0.37601 0.58412 0.0
H572 H 0.53371 0.35865 0.63687 0.0
H573 H 0.61402 0.53465 0.67969 0.0
H574 H 0.56853 0.57912 0.6925 0.0
H575 H 0.59305 0.57822 0.65421 0.0
H576 H 0.48659 0.56998 0.63648 0.0
H577 H 0.46161 0.56953 0.67467 0.0
H578 H 0.43537 0.51959 0.64889 0.0
H579 H 0.49598 0.35869 0.69032 0.0
H580 H 0.46433 0.37647 0.74198 0.0
H581 H 0.4891 0.53244 0.72515 0.0
C582 C 0.55315 0.49363 0.61034 0.0
C583 C 0.56111 0.45481 0.58999 0.0
C584 C 0.55596 0.40615 0.59978 0.0
C585 C 0.53991 0.39603 0.6295 0.0
C586 C 0.5302 0.43519 0.64882 0.0
C587 C 0.53791 0.48311 0.63974 0.0
C588 C 0.5241 0.51868 0.66442 0.0
C589 C 0.57815 0.55478 0.67323 0.0
C590 C 0.47394 0.54603 0.65557 0.0
C591 C 0.50629 0.48329 0.68882 0.0
C592 C 0.50974 0.43529 0.67944 0.0
C593 C 0.49402 0.3962 0.69804 0.0
C594 C 0.4761 0.40669 0.72731 0.0
C595 C 0.47453 0.45591 0.73768 0.0
C596 C 0.489 0.49442 0.71789 0.0
H597 H 0.47465 0.53686 0.41612 0.0
H598 H 0.65098 0.50391 0.41121 0.0
H599 H 0.65598 0.52493 0.35796 0.0
H600 H 0.433 0.48295 0.34433 0.0
H601 H 0.38653 0.52774 0.33591 0.0
H602 H 0.3982 0.51381 0.37421 0.0
H603 H 0.43247 0.60593 0.38675 0.0
H604 H 0.4211 0.62018 0.34844 0.0
H605 H 0.49083 0.63806 0.36553 0.0
H606 H 0.64232 0.54945 0.30587 0.0
H607 H 0.60749 0.56789 0.2561 0.0
H608 H 0.43787 0.57951 0.29362 0.0
C609 C 0.5144 0.53453 0.40382 0.0
C610 C 0.56262 0.51918 0.41763 0.0
C611 C 0.61361 0.51558 0.40088 0.0
C612 C 0.61696 0.5277 0.37075 0.0
C613 C 0.56868 0.54268 0.35773 0.0
C614 C 0.51809 0.54552 0.37355 0.0
C615 C 0.47126 0.55941 0.35362 0.0
C616 C 0.41919 0.51853 0.35192 0.0
C617 C 0.45285 0.60884 0.36422 0.0
C618 C 0.50344 0.56366 0.3241 0.0
C619 C 0.55986 0.55468 0.32716 0.0
C620 C 0.59827 0.55655 0.30314 0.0
C621 C 0.57825 0.56722 0.27507 0.0
C622 C 0.52022 0.57512 0.27127 0.0
C623 C 0.48243 0.57351 0.29609 0.0
loop_
_geom_bond_atom_site_label_1
_geom_bond_atom_site_label_2
_geom_bond_distance
_geom_bond_site_symmetry_2
_ccdc_geom_bond_type
Co0 N5 2.057 . S
Co0 O17 2.021 . S
Co0 O20 2.062 1_455 S
Co0 O24 2.117 1_554 S
Co0 O25 2.020 1_565 S
C1 O21 1.259 1_455 S
C1 O24 1.258 1_545 S
Co2 N11 2.057 . S
Co2 O18 2.117 . S
Co2 O19 2.020 1_545 S
Co2 O21 2.021 1_554 S
Co2 O26 2.062 1_655 S
C3 N5 1.316 . S
C3 N6 1.347 . S
C3 H8 0.931 . S
C4 N5 1.375 1_556 S
C4 C7 1.350 . S
C4 H9 0.930 . S
N5 Co0 2.057 . S
N5 C3 1.316 . S
N5 C4 1.375 1_554 S
N6 C3 1.347 . S
N6 C7 1.373 1_554 S
C7 C4 1.350 . S
C7 N6 1.373 1_556 S
C7 H28 0.931 . S
H8 C3 0.931 . S
H9 C4 0.930 . S
C10 O17 1.259 1_545 S
C10 O18 1.258 1_455 S
N11 Co2 2.057 . S
N11 C12 1.316 . S
N11 C13 1.375 . S
C12 N11 1.316 . S
C12 N14 1.347 . S
C12 H23 0.931 1_554 S
C13 N11 1.375 . S
C13 C15 1.350 . S
C13 H22 0.930 . S
N14 C12 1.347 . S
N14 C15 1.373 . S
C15 C13 1.350 . S
C15 N14 1.373 . S
C15 H29 0.931 . S
C16 O19 1.256 . S
C16 O20 1.255 . S
O17 Co0 2.021 . S
O17 C10 1.259 1_565 S
O18 Co2 2.117 . S
O18 C10 1.258 1_655 S
O19 Co2 2.020 1_565 S
O19 C16 1.256 . S
O20 Co0 2.062 1_655 S
O20 C16 1.255 . S
O21 C1 1.259 1_655 S
O21 Co2 2.021 1_556 S
H22 C13 0.930 . S
H23 C12 0.931 1_556 S
O24 Co0 2.117 1_556 S
O24 C1 1.258 1_565 S
O25 Co0 2.020 1_545 S
O25 C27 1.256 . S
O26 Co2 2.062 1_455 S
O26 C27 1.255 . S
C27 O25 1.256 . S
C27 O26 1.255 . S
H28 C7 0.931 . S
H29 C15 0.931 . S
Co30 N35 2.057 . S
Co30 O47 2.021 . S
Co30 O50 2.062 . S
Co30 O54 2.117 . S
Co30 O55 2.020 . S
C31 O51 1.259 . S
C31 O54 1.258 . S
Co32 N41 2.057 . S
Co32 O48 2.117 . S
Co32 O49 2.020 . S
Co32 O51 2.021 . S
Co32 O56 2.062 . S
C33 N35 1.316 . S
C33 N36 1.347 . S
C33 H38 0.931 . S
C34 N35 1.375 . S
C34 C37 1.350 . S
C34 H39 0.930 . S
N35 Co30 2.057 . S
N35 C33 1.316 . S
N35 C34 1.375 . S
N36 C33 1.347 . S
N36 C37 1.373 . S
C37 C34 1.350 . S
C37 N36 1.373 . S
C37 H58 0.931 . S
H38 C33 0.931 . S
H39 C34 0.930 . S
C40 O47 1.259 . S
C40 O48 1.258 . S
N41 Co32 2.057 . S
N41 C42 1.316 . S
N41 C43 1.375 . S
C42 N41 1.316 . S
C42 N44 1.347 . S
C42 H53 0.931 . S
C43 N41 1.375 . S
C43 C45 1.350 . S
C43 H52 0.930 . S
N44 C42 1.347 . S
N44 C45 1.373 . S
C45 C43 1.350 . S
C45 N44 1.373 . S
C45 H59 0.931 . S
C46 O49 1.256 . S
C46 O50 1.255 . S
O47 Co30 2.021 . S
O47 C40 1.259 . S
O48 Co32 2.117 . S
O48 C40 1.258 . S
O49 Co32 2.020 . S
O49 C46 1.256 . S
O50 Co30 2.062 . S
O50 C46 1.255 . S
O51 C31 1.259 . S
O51 Co32 2.021 . S
H52 C43 0.930 . S
H53 C42 0.931 . S
O54 Co30 2.117 . S
O54 C31 1.258 . S
O55 Co30 2.020 . S
O55 C57 1.256 . S
O56 Co32 2.062 . S
O56 C57 1.255 . S
C57 O55 1.256 . S
C57 O56 1.255 . S
H58 C37 0.931 . S
H59 C45 0.931 . S
C60 C61 1.391 . S
C60 C64 1.391 . S
C60 H102 0.948 . S
C61 C60 1.391 . S
C61 C62 1.391 . S
C62 C61 1.391 . S
C62 H118 0.947 . S
C62 C119 1.392 . S
C63 C64 1.391 . S
C63 C67 1.397 . S
C63 C119 1.419 . S
C64 C60 1.391 . S
C64 C63 1.391 . S
C64 C65 1.399 . S
C65 C64 1.399 . S
C65 C68 1.396 . S
C65 C77 1.453 1_565 S
C65 C78 1.684 1_455 S
H66 C90 0.948 . S
C67 C63 1.397 . S
C67 C68 1.394 . S
C67 C86 1.723 . S
C68 C65 1.396 . S
C68 C67 1.394 . S
C68 C98 1.723 1_465 S
H69 C92 0.947 . S
H70 C93 0.948 . S
H71 C99 0.982 . S
H72 C100 0.979 . S
H73 C100 0.980 . S
H74 C100 0.983 . S
H75 C99 0.979 . S
H76 C99 0.977 . S
C77 C65 1.453 1_545 S
C77 H106 0.982 . S
C77 H107 0.979 1_545 S
C77 H108 0.977 . S
C78 C65 1.684 1_655 S
C78 H103 0.979 . S
C78 H104 0.980 . S
C78 H105 0.983 . S
C79 C80 1.391 1_465 S
C79 C84 1.391 . S
C79 H109 0.948 . S
C80 C79 1.391 1_645 S
C80 C81 1.391 . S
C81 C80 1.391 . S
C81 C82 1.392 . S
C81 H110 0.947 . S
C82 C81 1.392 . S
C82 C83 1.419 . S
C82 H111 0.948 . S
C83 C82 1.419 . S
C83 C84 1.391 1_645 S
C83 C87 1.397 . S
C84 C79 1.391 . S
C84 C83 1.391 1_465 S
C84 C85 1.399 . S
C85 C84 1.399 . S
C85 C86 1.396 . S
C85 C88 1.453 . S
C85 C89 1.684 . S
C86 C67 1.723 . S
C86 C85 1.396 . S
C86 C87 1.394 1_465 S
C87 C83 1.397 . S
C87 C86 1.394 1_645 S
C87 C97 1.723 . S
C88 C85 1.453 . S
C88 H112 0.982 . S
C88 H113 0.979 . S
C88 H114 0.977 . S
C89 C85 1.684 . S
C89 H115 0.979 1_455 S
C89 H116 0.980 . S
C89 H117 0.983 . S
C90 H66 0.948 . S
C90 C91 1.391 . S
C90 C95 1.391 . S
C91 C90 1.391 . S
C91 C92 1.391 . S
C92 H69 0.947 . S
C92 C91 1.391 . S
C92 C93 1.392 . S
C93 H70 0.948 . S
C93 C92 1.392 . S
C93 C94 1.419 . S
C94 C93 1.419 . S
C94 C95 1.391 . S
C94 C98 1.397 . S
C95 C90 1.391 . S
C95 C94 1.391 . S
C95 C96 1.399 . S
C96 C95 1.399 . S
C96 C97 1.396 . S
C96 C99 1.453 . S
C96 C100 1.684 . S
C97 C87 1.723 . S
C97 C96 1.396 . S
C97 C98 1.394 . S
C98 C68 1.723 1_645 S
C98 C94 1.397 . S
C98 C97 1.394 . S
C99 H71 0.982 . S
C99 H75 0.979 . S
C99 H76 0.977 . S
C99 C96 1.453 . S
C100 H72 0.979 . S
C100 H73 0.980 . S
C100 H74 0.983 . S
C100 C96 1.684 . S
H101 C119 0.948 . S
H102 C60 0.948 . S
H103 C78 0.979 . S
H104 C78 0.980 . S
H105 C78 0.983 . S
H106 C77 0.982 . S
H107 C77 0.979 1_565 S
H108 C77 0.977 . S
H109 C79 0.948 . S
H110 C81 0.947 . S
H111 C82 0.948 . S
H112 C88 0.982 . S
H113 C88 0.979 . S
H114 C88 0.977 . S
H115 C89 0.979 1_655 S
H116 C89 0.980 . S
H117 C89 0.983 . S
H118 C62 0.947 . S
C119 C62 1.392 . S
C119 C63 1.419 . S
C119 H101 0.948 . S
C120 C121 1.391 . S
C120 C124 1.391 . S
C120 H162 0.948 . S
C121 C120 1.391 . S
C121 C122 1.391 . S
C122 C121 1.391 . S
C122 H178 0.947 . S
C122 C179 1.392 . S
C123 C124 1.391 . S
C123 C127 1.397 . S
C123 C179 1.419 . S
C124 C120 1.391 . S
C124 C123 1.391 . S
C124 C125 1.399 . S
C125 C124 1.399 . S
C125 C128 1.396 . S
C125 C137 1.453 . S
C125 C138 1.684 1_455 S
H126 C150 0.948 . S
C127 C123 1.397 . S
C127 C128 1.394 . S
C127 C146 1.723 . S
C128 C125 1.396 . S
C128 C127 1.394 . S
C128 C158 1.723 1_445 S
H129 C152 0.947 . S
H130 C153 0.948 . S
H131 C159 0.982 . S
H132 C160 0.979 . S
H133 C160 0.980 . S
H134 C160 0.983 . S
H135 C159 0.979 . S
H136 C159 0.977 . S
C137 C125 1.453 . S
C137 H166 0.982 . S
C137 H167 0.979 . S
C137 H168 0.977 1_545 S
C138 C125 1.684 1_655 S
C138 H163 0.979 . S
C138 H164 0.980 . S
C138 H165 0.983 1_655 S
C139 C140 1.391 1_455 S
C139 C144 1.391 . S
C139 H169 0.948 . S
C140 C139 1.391 1_655 S
C140 C141 1.391 1_545 S
C141 C140 1.391 1_565 S
C141 C142 1.392 . S
C141 H170 0.947 . S
C142 C141 1.392 . S
C142 C143 1.419 1_565 S
C142 H171 0.948 . S
C143 C142 1.419 1_545 S
C143 C144 1.391 1_655 S
C143 C147 1.397 . S
C144 C139 1.391 . S
C144 C143 1.391 1_455 S
C144 C145 1.399 . S
C145 C144 1.399 . S
C145 C146 1.396 . S
C145 C148 1.453 . S
C145 C149 1.684 . S
C146 C127 1.723 . S
C146 C145 1.396 . S
C146 C147 1.394 1_455 S
C147 C143 1.397 . S
C147 C146 1.394 1_655 S
C147 C157 1.723 1_545 S
C148 C145 1.453 . S
C148 H172 0.982 . S
C148 H173 0.979 . S
C148 H174 0.977 . S
C149 C145 1.684 . S
C149 H175 0.979 . S
C149 H176 0.980 . S
C149 H177 0.983 . S
C150 H126 0.948 . S
C150 C151 1.391 . S
C150 C155 1.391 . S
C151 C150 1.391 . S
C151 C152 1.391 . S
C152 H129 0.947 . S
C152 C151 1.391 . S
C152 C153 1.392 . S
C153 H130 0.948 . S
C153 C152 1.392 . S
C153 C154 1.419 . S
C154 C153 1.419 . S
C154 C155 1.391 . S
C154 C158 1.397 . S
C155 C150 1.391 . S
C155 C154 1.391 . S
C155 C156 1.399 . S
C156 C155 1.399 . S
C156 C157 1.396 . S
C156 C159 1.453 . S
C156 C160 1.684 . S
C157 C147 1.723 1_565 S
C157 C156 1.396 . S
C157 C158 1.394 . S
C158 C128 1.723 1_665 S
C158 C154 1.397 . S
C158 C157 1.394 . S
C159 H131 0.982 . S
C159 H135 0.979 . S
C159 H136 0.977 . S
C159 C156 1.453 . S
C160 H132 0.979 . S
C160 H133 0.980 . S
C160 H134 0.983 . S
C160 C156 1.684 . S
H161 C179 0.948 . S
H162 C120 0.948 . S
H163 C138 0.979 . S
H164 C138 0.980 . S
H165 C138 0.983 1_455 S
H166 C137 0.982 . S
H167 C137 0.979 . S
H168 C137 0.977 1_565 S
H169 C139 0.948 . S
H170 C141 0.947 . S
H171 C142 0.948 . S
H172 C148 0.982 . S
H173 C148 0.979 . S
H174 C148 0.977 . S
H175 C149 0.979 . S
H176 C149 0.980 . S
H177 C149 0.983 . S
H178 C122 0.947 . S
C179 C122 1.392 . S
C179 C123 1.419 . S
C179 H161 0.948 . S
C180 C181 1.391 . S
C180 C184 1.391 . S
C180 H222 0.948 1_556 S
C181 C180 1.391 . S
C181 C182 1.391 . S
C182 C181 1.391 . S
C182 H238 0.947 . S
C182 C239 1.392 . S
C183 C184 1.391 . S
C183 C187 1.397 . S
C183 C239 1.419 . S
C184 C180 1.391 . S
C184 C183 1.391 . S
C184 C185 1.399 . S
C185 C184 1.399 . S
C185 C188 1.396 . S
C185 C197 1.453 1_556 S
C185 C198 1.684 1_556 S
H186 C210 0.948 . S
C187 C183 1.397 . S
C187 C188 1.394 . S
C187 C206 1.723 . S
C188 C185 1.396 . S
C188 C187 1.394 . S
C188 C218 1.723 . S
H189 C212 0.947 . S
H190 C213 0.948 1_554 S
H191 C219 0.982 . S
H192 C220 0.979 . S
H193 C220 0.980 . S
H194 C220 0.983 . S
H195 C219 0.979 . S
H196 C219 0.977 . S
C197 C185 1.453 1_554 S
C197 H226 0.982 1_554 S
C197 H227 0.979 . S
C197 H228 0.977 . S
C198 C185 1.684 1_554 S
C198 H223 0.979 . S
C198 H224 0.980 . S
C198 H225 0.983 . S
C199 C200 1.391 . S
C199 C204 1.391 . S
C199 H229 0.948 . S
C200 C199 1.391 . S
C200 C201 1.391 . S
C201 C200 1.391 . S
C201 C202 1.392 . S
C201 H230 0.947 . S
C202 C201 1.392 . S
C202 C203 1.419 . S
C202 H231 0.948 . S
C203 C202 1.419 . S
C203 C204 1.391 . S
C203 C207 1.397 . S
C204 C199 1.391 . S
C204 C203 1.391 . S
C204 C205 1.399 . S
C205 C204 1.399 . S
C205 C206 1.396 . S
C205 C208 1.453 . S
C205 C209 1.684 . S
C206 C187 1.723 . S
C206 C205 1.396 . S
C206 C207 1.394 . S
C207 C203 1.397 . S
C207 C206 1.394 . S
C207 C217 1.723 . S
C208 C205 1.453 . S
C208 H232 0.982 . S
C208 H233 0.979 . S
C208 H234 0.977 . S
C209 C205 1.684 . S
C209 H235 0.979 . S
C209 H236 0.980 . S
C209 H237 0.983 . S
C210 H186 0.948 . S
C210 C211 1.391 . S
C210 C215 1.391 . S
C211 C210 1.391 . S
C211 C212 1.391 1_556 S
C212 H189 0.947 . S
C212 C211 1.391 1_554 S
C212 C213 1.392 1_554 S
C213 H190 0.948 1_556 S
C213 C212 1.392 1_556 S
C213 C214 1.419 . S
C214 C213 1.419 . S
C214 C215 1.391 . S
C214 C218 1.397 . S
C215 C210 1.391 . S
C215 C214 1.391 . S
C215 C216 1.399 . S
C216 C215 1.399 . S
C216 C217 1.396 . S
C216 C219 1.453 . S
C216 C220 1.684 . S
C217 C207 1.723 . S
C217 C216 1.396 . S
C217 C218 1.394 . S
C218 C188 1.723 . S
C218 C214 1.397 . S
C218 C217 1.394 . S
C219 H191 0.982 . S
C219 H195 0.979 . S
C219 H196 0.977 . S
C219 C216 1.453 . S
C220 H192 0.979 . S
C220 H193 0.980 . S
C220 H194 0.983 . S
C220 C216 1.684 . S
H221 C239 0.948 . S
H222 C180 0.948 1_554 S
H223 C198 0.979 . S
H224 C198 0.980 . S
H225 C198 0.983 . S
H226 C197 0.982 1_556 S
H227 C197 0.979 . S
H228 C197 0.977 . S
H229 C199 0.948 . S
H230 C201 0.947 . S
H231 C202 0.948 . S
H232 C208 0.982 . S
H233 C208 0.979 . S
H234 C208 0.977 . S
H235 C209 0.979 . S
H236 C209 0.980 . S
H237 C209 0.983 . S
H238 C182 0.947 . S
C239 C182 1.392 . S
C239 C183 1.419 . S
C239 H221 0.948 . S
C240 C241 1.391 . S
C240 C244 1.391 . S
C240 H282 0.948 . S
C241 C240 1.391 . S
C241 C242 1.391 . S
C242 C241 1.391 . S
C242 H298 0.947 . S
C242 C299 1.392 . S
C243 C244 1.391 . S
C243 C247 1.397 . S
C243 C299 1.419 . S
C244 C240 1.391 . S
C244 C243 1.391 . S
C244 C245 1.399 . S
C245 C244 1.399 . S
C245 C248 1.396 . S
C245 C257 1.453 . S
C245 C258 1.684 . S
H246 C270 0.948 . S
C247 C243 1.397 . S
C247 C248 1.394 . S
C247 C266 1.723 . S
C248 C245 1.396 . S
C248 C247 1.394 . S
C248 C278 1.723 . S
H249 C272 0.947 1_556 S
H250 C273 0.948 . S
H251 C279 0.982 . S
H252 C280 0.979 . S
H253 C280 0.980 . S
H254 C280 0.983 . S
H255 C279 0.979 . S
H256 C279 0.977 . S
C257 C245 1.453 . S
C257 H286 0.982 . S
C257 H287 0.960 1_554 S
C257 H288 0.977 . S
C258 C245 1.684 . S
C258 H283 0.979 . S
C258 H284 0.980 . S
C258 H285 0.983 1_554 S
C259 C260 1.391 . S
C259 C264 1.391 . S
C259 H289 0.948 . S
C260 C259 1.391 . S
C260 C261 1.391 . S
C261 C260 1.391 . S
C261 C262 1.392 . S
C261 H290 0.947 . S
C262 C261 1.392 . S
C262 C263 1.419 . S
C262 H291 0.948 . S
C263 C262 1.419 . S
C263 C264 1.391 . S
C263 C267 1.397 . S
C264 C259 1.391 . S
C264 C263 1.391 . S
C264 C265 1.399 . S
C265 C264 1.399 . S
C265 C266 1.396 . S
C265 C268 1.453 . S
C265 C269 1.684 . S
C266 C247 1.723 . S
C266 C265 1.396 . S
C266 C267 1.394 . S
C267 C263 1.397 . S
C267 C266 1.394 . S
C267 C277 1.723 . S
C268 C265 1.453 . S
C268 H292 0.982 . S
C268 H293 0.979 . S
C268 H294 0.977 . S
C269 C265 1.684 . S
C269 H295 0.979 . S
C269 H296 0.980 . S
C269 H297 0.983 . S
C270 H246 0.948 . S
C270 C271 1.391 . S
C270 C275 1.391 . S
C271 C270 1.391 . S
C271 C272 1.391 . S
C272 H249 0.947 1_554 S
C272 C271 1.391 . S
C272 C273 1.392 . S
C273 H250 0.948 . S
C273 C272 1.392 . S
C273 C274 1.419 . S
C274 C273 1.419 . S
C274 C275 1.391 . S
C274 C278 1.397 . S
C275 C270 1.391 . S
C275 C274 1.391 . S
C275 C276 1.399 . S
C276 C275 1.399 . S
C276 C277 1.396 . S
C276 C279 1.453 . S
C276 C280 1.684 . S
C277 C267 1.723 . S
C277 C276 1.396 . S
C277 C278 1.394 . S
C278 C248 1.723 . S
C278 C274 1.397 . S
C278 C277 1.394 . S
C279 H251 0.982 . S
C279 H255 0.979 . S
C279 H256 0.977 . S
C279 C276 1.453 . S
C280 H252 0.979 . S
C280 H253 0.980 . S
C280 H254 0.983 . S
C280 C276 1.684 . S
H281 C299 0.948 . S
H282 C240 0.948 . S
H283 C258 0.979 . S
H284 C258 0.980 . S
H285 C258 0.983 1_556 S
H286 C257 0.982 . S
H287 C257 0.960 1_556 S
H288 C257 0.977 . S
H289 C259 0.948 . S
H290 C261 0.947 . S
H291 C262 0.948 . S
H292 C268 0.982 . S
H293 C268 0.979 . S
H294 C268 0.977 . S
H295 C269 0.979 . S
H296 C269 0.980 . S
H297 C269 0.983 . S
H298 C242 0.947 . S
C299 C242 1.392 . S
C299 C243 1.419 . S
C299 H281 0.948 . S
H300 C312 0.930 . S
H301 C314 0.930 . S
H302 C315 0.930 . S
H303 C319 0.959 . S
H304 C319 0.959 . S
H305 C319 0.961 . S
H306 C320 0.960 . S
H307 C320 0.961 . S
H308 C320 0.959 . S
H309 C323 0.929 . S
H310 C324 0.931 . S
H311 C326 0.930 . S
C312 H300 0.930 . S
C312 C313 1.399 . S
C312 C317 1.399 . S
C313 C312 1.399 . S
C313 C314 1.376 1_554 S
C314 H301 0.930 . S
C314 C313 1.376 1_556 S
C314 C315 1.388 . S
C315 H302 0.930 . S
C315 C314 1.388 . S
C315 C316 1.390 1_556 S
C316 C315 1.390 1_554 S
C316 C317 1.394 . S
C316 C322 1.465 . S
C317 C312 1.399 . S
C317 C316 1.394 . S
C317 C318 1.516 . S
C318 C317 1.516 . S
C318 C319 1.502 . S
C318 C320 1.561 . S
C318 C321 1.526 . S
C319 H303 0.959 . S
C319 H304 0.959 . S
C319 H305 0.961 . S
C319 C318 1.502 . S
C320 H306 0.960 . S
C320 H307 0.961 . S
C320 H308 0.959 . S
C320 C318 1.561 . S
C321 C318 1.526 . S
C321 C322 1.396 . S
C321 C326 1.390 . S
C322 C316 1.465 . S
C322 C321 1.396 . S
C322 C323 1.399 1_554 S
C323 H309 0.929 . S
C323 C322 1.399 1_556 S
C323 C324 1.385 . S
C324 H310 0.931 . S
C324 C323 1.385 . S
C324 C325 1.389 1_556 S
C325 C324 1.389 1_554 S
C325 C326 1.387 . S
C326 H311 0.930 . S
C326 C321 1.390 . S
C326 C325 1.387 . S
H327 C339 0.930 . S
H328 C341 0.930 . S
H329 C342 0.930 . S
H330 C346 0.959 . S
H331 C346 0.959 . S
H332 C346 0.961 . S
H333 C347 0.960 . S
H334 C347 0.961 . S
H335 C347 0.959 . S
H336 C350 0.931 . S
H337 C351 0.931 . S
H338 C353 0.930 . S
C339 H327 0.930 . S
C339 C340 1.399 . S
C339 C344 1.399 . S
C340 C339 1.399 . S
C340 C341 1.376 . S
C341 H328 0.930 . S
C341 C340 1.376 . S
C341 C342 1.388 . S
C342 H329 0.930 . S
C342 C341 1.388 . S
C342 C343 1.390 . S
C343 C342 1.390 . S
C343 C344 1.394 . S
C343 C349 1.465 . S
C344 C339 1.399 . S
C344 C343 1.394 . S
C344 C345 1.516 . S
C345 C344 1.516 . S
C345 C346 1.502 . S
C345 C347 1.561 1_554 S
C345 C348 1.526 . S
C346 H330 0.959 . S
C346 H331 0.959 . S
C346 H332 0.961 . S
C346 C345 1.502 . S
C347 H333 0.960 . S
C347 H334 0.961 . S
C347 H335 0.959 . S
C347 C345 1.561 1_556 S
C348 C345 1.526 . S
C348 C349 1.396 . S
C348 C353 1.390 . S
C349 C343 1.465 . S
C349 C348 1.396 . S
C349 C350 1.397 1_554 S
C350 H336 0.931 . S
C350 C349 1.397 1_556 S
C350 C351 1.385 . S
C351 H337 0.931 . S
C351 C350 1.385 . S
C351 C352 1.391 . S
C352 C351 1.391 . S
C352 C353 1.385 1_556 S
C353 H338 0.930 . S
C353 C348 1.390 . S
C353 C352 1.385 1_554 S
H354 C366 0.930 . S
H355 C368 0.930 . S
H356 C369 0.930 . S
H357 C373 0.959 . S
H358 C373 0.959 . S
H359 C373 0.961 . S
H360 C374 0.960 . S
H361 C374 0.961 . S
H362 C374 0.959 . S
H363 C377 0.929 . S
H364 C378 0.931 . S
H365 C380 0.930 . S
C366 H354 0.930 . S
C366 C367 1.399 . S
C366 C371 1.399 . S
C367 C366 1.399 . S
C367 C368 1.376 1_554 S
C368 H355 0.930 . S
C368 C367 1.376 1_556 S
C368 C369 1.388 . S
C369 H356 0.930 . S
C369 C368 1.388 . S
C369 C370 1.390 1_556 S
C370 C369 1.390 1_554 S
C370 C371 1.394 . S
C370 C376 1.465 . S
C371 C366 1.399 . S
C371 C370 1.394 . S
C371 C372 1.516 . S
C372 C371 1.516 . S
C372 C373 1.502 . S
C372 C374 1.561 . S
C372 C375 1.526 . S
C373 H357 0.959 . S
C373 H358 0.959 . S
C373 H359 0.961 . S
C373 C372 1.502 . S
C374 H360 0.960 . S
C374 H361 0.961 . S
C374 H362 0.959 . S
C374 C372 1.561 . S
C375 C372 1.526 . S
C375 C376 1.396 . S
C375 C380 1.390 . S
C376 C370 1.465 . S
C376 C375 1.396 . S
C376 C377 1.399 1_554 S
C377 H363 0.929 . S
C377 C376 1.399 1_556 S
C377 C378 1.385 . S
C378 H364 0.931 . S
C378 C377 1.385 . S
C378 C379 1.389 1_556 S
C379 C378 1.389 1_554 S
C379 C380 1.387 . S
C380 H365 0.930 . S
C380 C375 1.390 . S
C380 C379 1.387 . S
H381 C393 0.930 . S
H382 C395 0.930 . S
H383 C396 0.930 . S
H384 C400 0.959 . S
H385 C400 0.959 . S
H386 C400 0.961 . S
H387 C401 0.960 . S
H388 C401 0.961 . S
H389 C401 0.959 . S
H390 C404 0.929 . S
H391 C405 0.931 . S
H392 C407 0.930 . S
C393 H381 0.930 . S
C393 C394 1.399 1_556 S
C393 C398 1.399 . S
C394 C393 1.399 1_554 S
C394 C395 1.376 . S
C395 H382 0.930 . S
C395 C394 1.376 . S
C395 C396 1.388 . S
C396 H383 0.930 . S
C396 C395 1.388 . S
C396 C397 1.390 . S
C397 C396 1.390 . S
C397 C398 1.394 1_554 S
C397 C403 1.465 . S
C398 C393 1.399 . S
C398 C397 1.394 1_556 S
C398 C399 1.516 . S
C399 C398 1.516 . S
C399 C400 1.502 . S
C399 C401 1.561 . S
C399 C402 1.526 . S
C400 H384 0.959 . S
C400 H385 0.959 . S
C400 H386 0.961 . S
C400 C399 1.502 . S
C401 H387 0.960 . S
C401 H388 0.961 . S
C401 H389 0.959 . S
C401 C399 1.561 . S
C402 C399 1.526 . S
C402 C403 1.396 1_556 S
C402 C407 1.390 . S
C403 C397 1.465 . S
C403 C402 1.396 1_554 S
C403 C404 1.399 . S
C404 H390 0.929 . S
C404 C403 1.399 . S
C404 C405 1.385 . S
C405 H391 0.931 . S
C405 C404 1.385 . S
C405 C406 1.375 1_554 S
C406 C405 1.375 1_556 S
C406 C407 1.397 . S
C407 H392 0.930 . S
C407 C402 1.390 . S
C407 C406 1.397 . S
H408 C420 0.930 . S
H409 C422 0.930 . S
H410 C423 0.930 . S
H411 C427 0.959 . S
H412 C427 0.959 . S
H413 C427 0.961 . S
H414 C428 0.960 . S
H415 C428 0.961 . S
H416 C428 0.959 . S
H417 C431 0.929 . S
H418 C432 0.931 . S
H419 C434 0.930 . S
C420 H408 0.930 . S
C420 C421 1.399 . S
C420 C425 1.399 . S
C421 C420 1.399 . S
C421 C422 1.376 . S
C422 H409 0.930 . S
C422 C421 1.376 . S
C422 C423 1.388 . S
C423 H410 0.930 . S
C423 C422 1.388 . S
C423 C424 1.390 . S
C424 C423 1.390 . S
C424 C425 1.394 . S
C424 C430 1.465 . S
C425 C420 1.399 . S
C425 C424 1.394 . S
C425 C426 1.516 . S
C426 C425 1.516 . S
C426 C427 1.502 . S
C426 C428 1.561 . S
C426 C429 1.526 . S
C427 H411 0.959 . S
C427 H412 0.959 . S
C427 H413 0.961 . S
C427 C426 1.502 . S
C428 H414 0.960 . S
C428 H415 0.961 . S
C428 H416 0.959 . S
C428 C426 1.561 . S
C429 C426 1.526 . S
C429 C430 1.396 . S
C429 C434 1.390 . S
C430 C424 1.465 . S
C430 C429 1.396 . S
C430 C431 1.399 . S
C431 H417 0.929 . S
C431 C430 1.399 . S
C431 C432 1.385 . S
C432 H418 0.931 . S
C432 C431 1.385 . S
C432 C433 1.389 . S
C433 C432 1.389 . S
C433 C434 1.387 . S
C434 H419 0.930 . S
C434 C429 1.390 . S
C434 C433 1.387 . S
H435 C447 0.930 . S
H436 C449 0.930 . S
H437 C450 0.930 . S
H438 C454 0.959 . S
H439 C454 0.959 . S
H440 C454 0.961 . S
H441 C455 0.960 . S
H442 C455 0.961 . S
H443 C455 0.959 . S
H444 C458 0.929 . S
H445 C459 0.931 . S
H446 C461 0.930 . S
C447 H435 0.930 . S
C447 C448 1.399 . S
C447 C452 1.399 . S
C448 C447 1.399 . S
C448 C449 1.376 . S
C449 H436 0.930 . S
C449 C448 1.376 . S
C449 C450 1.388 . S
C450 H437 0.930 . S
C450 C449 1.388 . S
C450 C451 1.390 . S
C451 C450 1.390 . S
C451 C452 1.394 . S
C451 C457 1.465 . S
C452 C447 1.399 . S
C452 C451 1.394 . S
C452 C453 1.516 . S
C453 C452 1.516 . S
C453 C454 1.502 . S
C453 C455 1.561 . S
C453 C456 1.526 . S
C454 H438 0.959 . S
C454 H439 0.959 . S
C454 H440 0.961 . S
C454 C453 1.502 . S
C455 H441 0.960 . S
C455 H442 0.961 . S
C455 H443 0.959 . S
C455 C453 1.561 . S
C456 C453 1.526 . S
C456 C457 1.396 . S
C456 C461 1.390 . S
C457 C451 1.465 . S
C457 C456 1.396 . S
C457 C458 1.399 . S
C458 H444 0.929 . S
C458 C457 1.399 . S
C458 C459 1.385 . S
C459 H445 0.931 . S
C459 C458 1.385 . S
C459 C460 1.389 . S
C460 C459 1.389 . S
C460 C461 1.387 . S
C461 H446 0.930 . S
C461 C456 1.390 . S
C461 C460 1.387 . S
H462 C474 0.930 . S
H463 C476 0.930 . S
H464 C477 0.930 . S
H465 C481 0.959 . S
H466 C481 0.959 . S
H467 C481 0.961 . S
H468 C482 0.960 . S
H469 C482 0.961 . S
H470 C482 0.959 . S
H471 C485 0.929 . S
H472 C486 0.931 . S
H473 C488 0.930 . S
C474 H462 0.930 . S
C474 C475 1.399 . S
C474 C479 1.399 . S
C475 C474 1.399 . S
C475 C476 1.376 . S
C476 H463 0.930 . S
C476 C475 1.376 . S
C476 C477 1.388 . S
C477 H464 0.930 . S
C477 C476 1.388 . S
C477 C478 1.390 . S
C478 C477 1.390 . S
C478 C479 1.394 . S
C478 C484 1.465 . S
C479 C474 1.399 . S
C479 C478 1.394 . S
C479 C480 1.516 . S
C480 C479 1.516 . S
C480 C481 1.502 . S
C480 C482 1.561 . S
C480 C483 1.526 . S
C481 H465 0.959 . S
C481 H466 0.959 . S
C481 H467 0.961 . S
C481 C480 1.502 . S
C482 H468 0.960 . S
C482 H469 0.961 . S
C482 H470 0.959 . S
C482 C480 1.561 . S
C483 C480 1.526 . S
C483 C484 1.396 . S
C483 C488 1.390 . S
C484 C478 1.465 . S
C484 C483 1.396 . S
C484 C485 1.399 . S
C485 H471 0.929 . S
C485 C484 1.399 . S
C485 C486 1.385 . S
C486 H472 0.931 . S
C486 C485 1.385 . S
C486 C487 1.389 . S
C487 C486 1.389 . S
C487 C488 1.387 . S
C488 H473 0.930 . S
C488 C483 1.390 . S
C488 C487 1.387 . S
H489 C501 0.930 . S
H490 C503 0.930 . S
H491 C504 0.930 . S
H492 C508 0.959 . S
H493 C508 0.959 . S
H494 C508 0.961 . S
H495 C509 0.960 . S
H496 C509 0.961 . S
H497 C509 0.959 . S
H498 C512 0.929 . S
H499 C513 0.931 . S
H500 C515 0.930 . S
C501 H489 0.930 . S
C501 C502 1.399 . S
C501 C506 1.399 . S
C502 C501 1.399 . S
C502 C503 1.376 . S
C503 H490 0.930 . S
C503 C502 1.376 . S
C503 C504 1.388 . S
C504 H491 0.930 . S
C504 C503 1.388 . S
C504 C505 1.390 . S
C505 C504 1.390 . S
C505 C506 1.394 . S
C505 C511 1.465 . S
C506 C501 1.399 . S
C506 C505 1.394 . S
C506 C507 1.516 . S
C507 C506 1.516 . S
C507 C508 1.502 . S
C507 C509 1.561 . S
C507 C510 1.526 . S
C508 H492 0.959 . S
C508 H493 0.959 . S
C508 H494 0.961 . S
C508 C507 1.502 . S
C509 H495 0.960 . S
C509 H496 0.961 . S
C509 H497 0.959 . S
C509 C507 1.561 . S
C510 C507 1.526 . S
C510 C511 1.396 . S
C510 C515 1.390 . S
C511 C505 1.465 . S
C511 C510 1.396 . S
C511 C512 1.399 . S
C512 H498 0.929 . S
C512 C511 1.399 . S
C512 C513 1.385 . S
C513 H499 0.931 . S
C513 C512 1.385 . S
C513 C514 1.389 . S
C514 C513 1.389 . S
C514 C515 1.387 . S
C515 H500 0.930 . S
C515 C510 1.390 . S
C515 C514 1.387 . S
H516 C528 0.930 . S
H517 C530 0.930 . S
H518 C531 0.930 . S
H519 C535 0.959 . S
H520 C535 0.959 . S
H521 C535 0.961 . S
H522 C536 0.960 . S
H523 C536 0.961 . S
H524 C536 0.959 . S
H525 C539 0.929 . S
H526 C540 0.931 . S
H527 C542 0.930 . S
C528 H516 0.930 . S
C528 C529 1.399 . S
C528 C533 1.399 . S
C529 C528 1.399 . S
C529 C530 1.376 1_445 S
C530 H517 0.930 . S
C530 C529 1.376 1_665 S
C530 C531 1.388 . S
C531 H518 0.930 . S
C531 C530 1.388 . S
C531 C532 1.390 . S
C532 C531 1.390 . S
C532 C533 1.394 1_665 S
C532 C538 1.465 . S
C533 C528 1.399 . S
C533 C532 1.394 1_445 S
C533 C534 1.516 . S
C534 C533 1.516 . S
C534 C535 1.502 . S
C534 C536 1.561 1_455 S
C534 C537 1.526 . S
C535 H519 0.959 . S
C535 H520 0.959 . S
C535 H521 0.961 . S
C535 C534 1.502 . S
C536 H522 0.960 . S
C536 H523 0.961 . S
C536 H524 0.959 . S
C536 C534 1.561 1_655 S
C537 C534 1.526 . S
C537 C538 1.396 1_445 S
C537 C542 1.390 . S
C538 C532 1.465 . S
C538 C537 1.396 1_665 S
C538 C539 1.399 . S
C539 H525 0.929 . S
C539 C538 1.399 . S
C539 C540 1.385 . S
C540 H526 0.931 . S
C540 C539 1.385 . S
C540 C541 1.392 . S
C541 C540 1.392 . S
C541 C542 1.385 1_665 S
C542 H527 0.930 . S
C542 C537 1.390 . S
C542 C541 1.385 1_445 S
H543 C555 0.930 . S
H544 C557 0.930 . S
H545 C558 0.930 . S
H546 C562 0.959 . S
H547 C562 0.959 . S
H548 C562 0.961 . S
H549 C563 0.960 . S
H550 C563 0.961 . S
H551 C563 0.959 . S
H552 C566 0.929 . S
H553 C567 0.931 . S
H554 C569 0.930 . S
C555 H543 0.930 . S
C555 C556 1.399 1_565 S
C555 C560 1.399 . S
C556 C555 1.399 1_545 S
C556 C557 1.376 1_455 S
C557 H544 0.930 . S
C557 C556 1.376 1_655 S
C557 C558 1.388 . S
C558 H545 0.930 . S
C558 C557 1.388 . S
C558 C559 1.390 . S
C559 C558 1.390 . S
C559 C560 1.394 1_645 S
C559 C565 1.465 . S
C560 C555 1.399 . S
C560 C559 1.394 1_465 S
C560 C561 1.516 . S
C561 C560 1.516 . S
C561 C562 1.502 . S
C561 C563 1.561 1_455 S
C561 C564 1.526 . S
C562 H546 0.959 . S
C562 H547 0.959 . S
C562 H548 0.961 . S
C562 C561 1.502 . S
C563 H549 0.960 . S
C563 H550 0.961 . S
C563 H551 0.959 . S
C563 C561 1.561 1_655 S
C564 C561 1.526 . S
C564 C565 1.396 1_465 S
C564 C569 1.390 . S
C565 C559 1.465 . S
C565 C564 1.396 1_645 S
C565 C566 1.399 . S
C566 H552 0.929 . S
C566 C565 1.399 . S
C566 C567 1.385 . S
C567 H553 0.931 . S
C567 C566 1.385 . S
C567 C568 1.389 1_655 S
C568 C567 1.389 1_455 S
C568 C569 1.387 1_545 S
C569 H554 0.930 . S
C569 C564 1.390 . S
C569 C568 1.387 1_565 S
H570 C582 0.930 . S
H571 C584 0.930 . S
H572 C585 0.930 . S
H573 C589 0.959 . S
H574 C589 0.959 . S
H575 C589 0.961 . S
H576 C590 0.960 . S
H577 C590 0.961 . S
H578 C590 0.959 . S
H579 C593 0.929 . S
H580 C594 0.931 . S
H581 C596 0.930 . S
C582 H570 0.930 . S
C582 C583 1.399 . S
C582 C587 1.399 . S
C583 C582 1.399 . S
C583 C584 1.376 . S
C584 H571 0.930 . S
C584 C583 1.376 . S
C584 C585 1.388 . S
C585 H572 0.930 . S
C585 C584 1.388 . S
C585 C586 1.390 . S
C586 C585 1.390 . S
C586 C587 1.394 . S
C586 C592 1.465 . S
C587 C582 1.399 . S
C587 C586 1.394 . S
C587 C588 1.516 . S
C588 C587 1.516 . S
C588 C589 1.502 . S
C588 C590 1.561 . S
C588 C591 1.526 . S
C589 H573 0.959 . S
C589 H574 0.959 . S
C589 H575 0.961 . S
C589 C588 1.502 . S
C590 H576 0.960 . S
C590 H577 0.961 . S
C590 H578 0.959 . S
C590 C588 1.561 . S
C591 C588 1.526 . S
C591 C592 1.396 . S
C591 C596 1.390 . S
C592 C586 1.465 . S
C592 C591 1.396 . S
C592 C593 1.399 . S
C593 H579 0.929 . S
C593 C592 1.399 . S
C593 C594 1.385 . S
C594 H580 0.931 . S
C594 C593 1.385 . S
C594 C595 1.389 . S
C595 C594 1.389 . S
C595 C596 1.387 . S
C596 H581 0.930 . S
C596 C591 1.390 . S
C596 C595 1.387 . S
H597 C609 0.930 . S
H598 C611 0.930 . S
H599 C612 0.930 . S
H600 C616 0.959 . S
H601 C616 0.959 . S
H602 C616 0.961 . S
H603 C617 0.960 . S
H604 C617 0.961 . S
H605 C617 0.959 . S
H606 C620 0.929 . S
H607 C621 0.931 . S
H608 C623 0.930 . S
C609 H597 0.930 . S
C609 C610 1.399 . S
C609 C614 1.399 . S
C610 C609 1.399 . S
C610 C611 1.376 . S
C611 H598 0.930 . S
C611 C610 1.376 . S
C611 C612 1.388 . S
C612 H599 0.930 . S
C612 C611 1.388 . S
C612 C613 1.390 . S
C613 C612 1.390 . S
C613 C614 1.394 . S
C613 C619 1.465 . S
C614 C609 1.399 . S
C614 C613 1.394 . S
C614 C615 1.516 . S
C615 C614 1.516 . S
C615 C616 1.502 . S
C615 C617 1.561 . S
C615 C618 1.526 . S
C616 H600 0.959 . S
C616 H601 0.959 . S
C616 H602 0.961 . S
C616 C615 1.502 . S
C617 H603 0.960 . S
C617 H604 0.961 . S
C617 H605 0.959 . S
C617 C615 1.561 . S
C618 C615 1.526 . S
C618 C619 1.396 . S
C618 C623 1.390 . S
C619 C613 1.465 . S
C619 C618 1.396 . S
C619 C620 1.399 . S
C620 H606 0.929 . S
C620 C619 1.399 . S
C620 C621 1.385 . S
C621 H607 0.931 . S
C621 C620 1.385 . S
C621 C622 1.389 . S
C622 C621 1.389 . S
C622 C623 1.387 . S
C623 H608 0.930 . S
C623 C618 1.390 . S
C623 C622 1.387 . S
C325 C271 1.491 . S
C313 C27 1.490 . S
C340 N6 1.359 . S
C352 C211 1.440 . S
C367 C16 1.470 . S
C379 C241 1.414 . S
C394 N14 1.370 . S
C406 C181 1.364 . S
C421 C57 1.490 . S
C433 C151 1.492 . S
C448 N36 1.379 . S
C460 C91 1.416 . S
C487 C121 1.310 . S
C475 C46 1.456 . S
C514 C61 1.370 . S
C502 N44 1.366 . S
C529 C10 1.386 . S
C541 C80 1.360 1_565 S
C556 C1 1.513 . S
C568 C140 1.497 1_455 S
C595 C200 1.362 . S
C583 C40 1.385 . S
C610 C31 1.534 . S
C622 C260 1.505 . S
