# Generated by pormake.
# Topology pyr, (3,6)-cn, num edge types: 1
# Building blocks:
#     Node 0, Type 0, BuildingBlock: BELTOD_clean_linker_0, # of connection points: 3
#     Node 1, Type 0, BuildingBlock: BELTOD_clean_linker_0, # of connection points: 3
#     Node 2, Type 0, BuildingBlock: BELTOD_clean_linker_0, # of connection points: 3
#     Node 3, Type 0, BuildingBlock: BELTOD_clean_linker_0, # of connection points: 3
#     Node 4, Type 0, BuildingBlock: BELTOD_clean_linker_0, # of connection points: 3
#     Node 5, Type 0, BuildingBlock: BELTOD_clean_linker_0, # of connection points: 3
#     Node 6, Type 0, BuildingBlock: BELTOD_clean_linker_0, # of connection points: 3
#     Node 7, Type 0, BuildingBlock: BELTOD_clean_linker_0, # of connection points: 3
#     Node 8, Type 1, BuildingBlock: PAMTOO_clean_sbu_0, # of connection points: 6
#     Node 9, Type 1, BuildingBlock: PAMTOO_clean_sbu_0, # of connection points: 6
#     Node 10, Type 1, BuildingBlock: PAMTOO_clean_sbu_0, # of connection points: 6
#     Node 11, Type 1, BuildingBlock: PAMTOO_clean_sbu_0, # of connection points: 6
#     Edge 12, Type (0, 1), BuildingBlock: AJUNOK_clean_linker_0, # of connection points: 2
#     Edge 13, Type (0, 1), BuildingBlock: AJUNOK_clean_linker_0, # of connection points: 2
#     Edge 14, Type (0, 1), BuildingBlock: AJUNOK_clean_linker_0, # of connection points: 2
#     Edge 15, Type (0, 1), BuildingBlock: AJUNOK_clean_linker_0, # of connection points: 2
#     Edge 16, Type (0, 1), BuildingBlock: AJUNOK_clean_linker_0, # of connection points: 2
#     Edge 17, Type (0, 1), BuildingBlock: AJUNOK_clean_linker_0, # of connection points: 2
#     Edge 18, Type (0, 1), BuildingBlock: AJUNOK_clean_linker_0, # of connection points: 2
#     Edge 19, Type (0, 1), BuildingBlock: AJUNOK_clean_linker_0, # of connection points: 2
#     Edge 20, Type (0, 1), BuildingBlock: AJUNOK_clean_linker_0, # of connection points: 2
#     Edge 21, Type (0, 1), BuildingBlock: AJUNOK_clean_linker_0, # of connection points: 2
#     Edge 22, Type (0, 1), BuildingBlock: AJUNOK_clean_linker_0, # of connection points: 2
#     Edge 23, Type (0, 1), BuildingBlock: AJUNOK_clean_linker_0, # of connection points: 2
#     Edge 24, Type (0, 1), BuildingBlock: AJUNOK_clean_linker_0, # of connection points: 2
#     Edge 25, Type (0, 1), BuildingBlock: AJUNOK_clean_linker_0, # of connection points: 2
#     Edge 26, Type (0, 1), BuildingBlock: AJUNOK_clean_linker_0, # of connection points: 2
#     Edge 27, Type (0, 1), BuildingBlock: AJUNOK_clean_linker_0, # of connection points: 2
#     Edge 28, Type (0, 1), BuildingBlock: AJUNOK_clean_linker_0, # of connection points: 2
#     Edge 29, Type (0, 1), BuildingBlock: AJUNOK_clean_linker_0, # of connection points: 2
#     Edge 30, Type (0, 1), BuildingBlock: AJUNOK_clean_linker_0, # of connection points: 2
#     Edge 31, Type (0, 1), BuildingBlock: AJUNOK_clean_linker_0, # of connection points: 2
#     Edge 32, Type (0, 1), BuildingBlock: AJUNOK_clean_linker_0, # of connection points: 2
#     Edge 33, Type (0, 1), BuildingBlock: AJUNOK_clean_linker_0, # of connection points: 2
#     Edge 34, Type (0, 1), BuildingBlock: AJUNOK_clean_linker_0, # of connection points: 2
#     Edge 35, Type (0, 1), BuildingBlock: AJUNOK_clean_linker_0, # of connection points: 2
# Relax obj value: 0.147
# Max RMSD: 0.179
# Mean RMSD: 0.076
data_MOF--net-pyr--node1-PAMTOO_clean_sbu_0--node2-BELTOD_clean_linker_0--edge1-AJUNOK_clean_linker_0
_symmetry_space_group_name_H-M    P1
_symmetry_Int_Tables_number       1
_symmetry_cell_setting            triclinic
loop_
_symmetry_equiv_pos_as_xyz
'x, y, z'
_cell_length_a     32.445511
_cell_length_b     34.630502
_cell_length_c     33.535348
_cell_angle_alpha  90.069326
_cell_angle_beta   89.939974
_cell_angle_gamma 105.07707
loop_
_atom_site_label
_atom_site_type_symbol
_atom_site_fract_x
_atom_site_fract_y
_atom_site_fract_z
_atom_type_partial_charge
P0 P 0.40686 0.34665 0.23752 0.0
H1 H 0.49154 0.33387 0.22175 0.0
H2 H 0.51402 0.27479 0.20071 0.0
H3 H 0.38185 0.20953 0.18665 0.0
H4 H 0.35975 0.26773 0.20994 0.0
H5 H 0.3737 0.41633 0.24465 0.0
H6 H 0.31197 0.43235 0.21362 0.0
H7 H 0.30247 0.33584 0.12979 0.0
H8 H 0.36492 0.32073 0.15985 0.0
H9 H 0.4287 0.32528 0.31772 0.0
H10 H 0.31437 0.31814 0.24911 0.0
O11 O 0.44865 0.38295 0.25249 0.0
H12 H 0.38539 0.28363 0.3698 0.0
H13 H 0.27175 0.27757 0.30072 0.0
C14 C 0.42398 0.30552 0.21649 0.0
C15 C 0.46746 0.30702 0.21361 0.0
C16 C 0.48027 0.27323 0.20141 0.0
C17 C 0.44972 0.23754 0.19151 0.0
C18 C 0.4062 0.23642 0.19422 0.0
C19 C 0.39351 0.2699 0.20701 0.0
C20 C 0.37379 0.36712 0.20492 0.0
C21 C 0.35957 0.39976 0.21846 0.0
C22 C 0.32418 0.40877 0.20086 0.0
C23 C 0.30239 0.38501 0.16964 0.0
C24 C 0.31867 0.35434 0.15407 0.0
C25 C 0.35439 0.34569 0.17136 0.0
C26 C 0.37484 0.32552 0.27984 0.0
C27 C 0.39431 0.31606 0.3145 0.0
C28 C 0.36966 0.29235 0.34414 0.0
C29 C 0.32538 0.27762 0.33906 0.0
C30 C 0.30586 0.2887 0.30524 0.0
C31 C 0.33035 0.31223 0.27581 0.0
P32 P 0.19682 0.82757 0.72301 0.0
H33 H 0.24253 0.78044 0.76965 0.0
H34 H 0.25821 0.78124 0.84043 0.0
H35 H 0.16919 0.85259 0.86164 0.0
H36 H 0.14966 0.84743 0.79185 0.0
H37 H 0.25244 0.83505 0.65389 0.0
H38 H 0.29028 0.78923 0.62595 0.0
H39 H 0.2124 0.693 0.69614 0.0
H40 H 0.17448 0.73949 0.72439 0.0
H41 H 0.16539 0.89656 0.73946 0.0
H42 H 0.12633 0.78932 0.66838 0.0
O43 O 0.23657 0.86919 0.71971 0.0
H44 H 0.109 0.92177 0.71015 0.0
H45 H 0.07005 0.81534 0.63778 0.0
C46 C 0.19498 0.8141 0.77496 0.0
C47 C 0.22432 0.79416 0.78966 0.0
C48 C 0.23398 0.79532 0.83023 0.0
C49 C 0.21652 0.81864 0.8563 0.0
C50 C 0.18365 0.8347 0.84234 0.0
C51 C 0.17277 0.83216 0.802 0.0
C52 C 0.21179 0.79087 0.69221 0.0
C53 C 0.24246 0.80383 0.66235 0.0
C54 C 0.2639 0.77747 0.6461 0.0
C55 C 0.25461 0.73764 0.65925 0.0
C56 C 0.2204 0.72368 0.68582 0.0
C57 C 0.1987 0.75013 0.70187 0.0
C58 C 0.14993 0.84106 0.70618 0.0
C59 C 0.14382 0.87788 0.71836 0.0
C60 C 0.11149 0.89225 0.7017 0.0
C61 C 0.08525 0.87044 0.67183 0.0
C62 C 0.08993 0.83257 0.66091 0.0
C63 C 0.12206 0.81781 0.67824 0.0
P64 P 0.67189 0.34184 0.85773 0.0
H65 H 0.7498 0.40442 0.84231 0.0
H66 H 0.8065 0.4431 0.88529 0.0
H67 H 0.73561 0.38976 0.98917 0.0
H68 H 0.67909 0.35081 0.94604 0.0
H69 H 0.68109 0.26054 0.86689 0.0
H70 H 0.64587 0.20393 0.90822 0.0
H71 H 0.56156 0.27135 0.95449 0.0
H72 H 0.59618 0.32786 0.91125 0.0
H73 H 0.67403 0.4274 0.84637 0.0
H74 H 0.60619 0.31387 0.79682 0.0
O75 O 0.70182 0.32438 0.82539 0.0
H76 H 0.64613 0.46207 0.79365 0.0
H77 H 0.57718 0.34852 0.74433 0.0
C78 C 0.7099 0.37469 0.89068 0.0
C79 C 0.74601 0.40152 0.87435 0.0
C80 C 0.77842 0.42379 0.89903 0.0
C81 C 0.77552 0.41981 0.94078 0.0
C82 C 0.73889 0.39348 0.95716 0.0
C83 C 0.70634 0.3713 0.93239 0.0
C84 C 0.64086 0.29847 0.88513 0.0
C85 C 0.65438 0.26309 0.88513 0.0
C86 C 0.63444 0.23065 0.90931 0.0
C87 C 0.60061 0.23265 0.93482 0.0
C88 C 0.58679 0.26813 0.93465 0.0
C89 C 0.60664 0.30063 0.90997 0.0
C90 C 0.64177 0.36776 0.8263 0.0
C91 C 0.6521 0.40977 0.82494 0.0
C92 C 0.63598 0.42973 0.79455 0.0
C93 C 0.60911 0.40825 0.76454 0.0
C94 C 0.59788 0.36615 0.76669 0.0
C95 C 0.61399 0.34624 0.79713 0.0
P96 P 0.83649 0.70669 0.34576 0.0
H97 H 0.8879 0.78445 0.31688 0.0
H98 H 0.92093 0.84772 0.35097 0.0
H99 H 0.88727 0.79013 0.46465 0.0
H100 H 0.85563 0.72672 0.4308 0.0
H101 H 0.81393 0.62307 0.31794 0.0
H102 H 0.84535 0.58801 0.26746 0.0
H103 H 0.9511 0.69235 0.25424 0.0
H104 H 0.92031 0.72695 0.30545 0.0
H105 H 0.75706 0.71873 0.37643 0.0
H106 H 0.83168 0.63394 0.39489 0.0
O107 O 0.80825 0.72423 0.31198 0.0
H108 H 0.70481 0.68376 0.42527 0.0
H109 H 0.77894 0.59842 0.44414 0.0
C110 C 0.86916 0.75055 0.37107 0.0
C111 C 0.88868 0.78504 0.34916 0.0
C112 C 0.90733 0.82131 0.36863 0.0
C113 C 0.90609 0.82397 0.41042 0.0
C114 C 0.88819 0.78905 0.43238 0.0
C115 C 0.87024 0.75267 0.41294 0.0
C116 C 0.86521 0.67746 0.31674 0.0
C117 C 0.84471 0.638 0.30544 0.0
C118 C 0.8625 0.61801 0.27619 0.0
C119 C 0.90056 0.63747 0.25657 0.0
C120 C 0.92158 0.67661 0.26856 0.0
C121 C 0.90412 0.69632 0.29824 0.0
C122 C 0.79773 0.67836 0.38104 0.0
C123 C 0.76208 0.69234 0.3908 0.0
C124 C 0.73244 0.67262 0.41921 0.0
C125 C 0.73787 0.6385 0.43894 0.0
C126 C 0.77384 0.62459 0.42939 0.0
C127 C 0.80384 0.6447 0.40108 0.0
P128 P 0.69065 0.84052 0.8777 0.0
H129 H 0.68232 0.85335 0.96201 0.0
H130 H 0.62776 0.87474 0.99934 0.0
H131 H 0.54366 0.84903 0.89743 0.0
H132 H 0.59883 0.82813 0.85993 0.0
H133 H 0.77911 0.84549 0.86222 0.0
H134 H 0.82771 0.80687 0.8846 0.0
H135 H 0.726 0.73059 0.95342 0.0
H136 H 0.6772 0.77005 0.93106 0.0
H137 H 0.65729 0.88403 0.81783 0.0
H138 H 0.69701 0.77462 0.82377 0.0
O139 O 0.71992 0.8879 0.87927 0.0
H140 H 0.66127 0.88288 0.74567 0.0
H141 H 0.70089 0.77312 0.75094 0.0
C142 C 0.64485 0.83945 0.90818 0.0
C143 C 0.65157 0.85083 0.94817 0.0
C144 C 0.62031 0.86317 0.96943 0.0
C145 C 0.58177 0.86444 0.95096 0.0
C146 C 0.57348 0.84931 0.91206 0.0
C147 C 0.60494 0.83703 0.89073 0.0
C148 C 0.7249 0.81105 0.89562 0.0
C149 C 0.76728 0.82064 0.88238 0.0
C150 C 0.79494 0.79839 0.89494 0.0
C151 C 0.78071 0.76591 0.92094 0.0
C152 C 0.73794 0.75591 0.93388 0.0
C153 C 0.71007 0.77829 0.92109 0.0
C154 C 0.67784 0.83003 0.82607 0.0
C155 C 0.66505 0.85877 0.80346 0.0
C156 C 0.66687 0.85778 0.762 0.0
C157 C 0.68172 0.82799 0.74252 0.0
C158 C 0.68955 0.79651 0.7652 0.0
C159 C 0.6876 0.79751 0.80685 0.0
P160 P 0.91365 0.33749 0.346 0.0
H161 H 0.89744 0.39952 0.39904 0.0
H162 H 0.83148 0.41033 0.42739 0.0
H163 H 0.75811 0.30572 0.36512 0.0
H164 H 0.82367 0.29441 0.3381 0.0
H165 H 0.99383 0.31413 0.34851 0.0
H166 H 0.01605 0.26188 0.38584 0.0
H167 H 0.89645 0.23448 0.44982 0.0
H168 H 0.87457 0.28621 0.413 0.0
H169 H 0.8861 0.36608 0.27152 0.0
H170 H 0.90876 0.25647 0.31599 0.0
O171 O 0.95097 0.38052 0.34044 0.0
H172 H 0.84938 0.32976 0.21335 0.0
H173 H 0.87253 0.22066 0.25866 0.0
C174 C 0.86542 0.34669 0.36585 0.0
C175 C 0.86711 0.37905 0.39146 0.0
C176 C 0.82948 0.38516 0.4076 0.0
C177 C 0.7897 0.35868 0.39869 0.0
C178 C 0.78829 0.32621 0.37313 0.0
C179 C 0.82581 0.32008 0.35719 0.0
C180 C 0.93293 0.30463 0.37844 0.0
C181 C 0.97293 0.29749 0.3713 0.0
C182 C 0.98539 0.26748 0.39228 0.0
C183 C 0.95809 0.2445 0.42092 0.0
C184 C 0.91845 0.25231 0.42848 0.0
C185 C 0.90592 0.28199 0.40734 0.0
C186 C 0.90026 0.31413 0.29812 0.0
C187 C 0.88464 0.33465 0.26808 0.0
C188 C 0.86348 0.3139 0.23506 0.0
C189 C 0.8578 0.27238 0.23184 0.0
C190 C 0.87675 0.25271 0.26023 0.0
C191 C 0.89754 0.27333 0.29324 0.0
P192 P 0.38508 0.66678 0.2377 0.0
H193 H 0.35436 0.66959 0.15694 0.0
H194 H 0.28476 0.64509 0.12506 0.0
H195 H 0.22852 0.60466 0.23933 0.0
H196 H 0.29882 0.62873 0.27105 0.0
H197 H 0.44426 0.71315 0.17904 0.0
H198 H 0.46421 0.78345 0.16036 0.0
H199 H 0.38862 0.81035 0.25711 0.0
H200 H 0.36756 0.73884 0.2756 0.0
H201 H 0.36777 0.586 0.26932 0.0
H202 H 0.41663 0.70519 0.3156 0.0
O203 O 0.41507 0.64493 0.20961 0.0
H204 H 0.38766 0.55811 0.33103 0.0
H205 H 0.4341 0.67753 0.37854 0.0
C206 C 0.33201 0.65073 0.21634 0.0
C207 C 0.32706 0.65554 0.17523 0.0
C208 C 0.28714 0.64159 0.157 0.0
C209 C 0.251 0.62237 0.17943 0.0
C210 C 0.25582 0.61844 0.22094 0.0
C211 C 0.29598 0.63248 0.23922 0.0
C212 C 0.40503 0.72042 0.22943 0.0
C213 C 0.43247 0.73394 0.19703 0.0
C214 C 0.44384 0.77431 0.18612 0.0
C215 C 0.42829 0.80249 0.20739 0.0
C216 C 0.4016 0.78936 0.24052 0.0
C217 C 0.38965 0.74854 0.25116 0.0
C218 C 0.39034 0.64778 0.2876 0.0
C219 C 0.38166 0.60624 0.29326 0.0
C220 C 0.39313 0.59024 0.32875 0.0
C221 C 0.41355 0.61536 0.35986 0.0
C222 C 0.41992 0.65705 0.35493 0.0
C223 C 0.40908 0.67306 0.31904 0.0
P224 P 0.17169 0.35229 0.77697 0.0
H225 H 0.19725 0.28575 0.74294 0.0
H226 H 0.16247 0.22935 0.70072 0.0
H227 H 0.04817 0.27101 0.69884 0.0
H228 H 0.08365 0.32822 0.74132 0.0
H229 H 0.26307 0.35725 0.77616 0.0
H230 H 0.32098 0.38847 0.73105 0.0
H231 H 0.23533 0.44022 0.66397 0.0
H232 H 0.17668 0.40862 0.70978 0.0
H233 H 0.08807 0.33361 0.81707 0.0
H234 H 0.19386 0.43701 0.80006 0.0
O235 O 0.19306 0.33115 0.8135 0.0
H236 H 0.05728 0.37044 0.86619 0.0
H237 H 0.16435 0.47344 0.85016 0.0
C238 C 0.14293 0.31095 0.74601 0.0
C239 C 0.16458 0.2828 0.7337 0.0
C240 C 0.14471 0.25055 0.70935 0.0
C241 C 0.10239 0.24534 0.69661 0.0
C242 C 0.08057 0.27375 0.7087 0.0
C243 C 0.10082 0.30651 0.73296 0.0
C244 C 0.21543 0.38085 0.74671 0.0
C245 C 0.25655 0.37573 0.75222 0.0
C246 C 0.28971 0.39333 0.72613 0.0
C247 C 0.28259 0.41632 0.69362 0.0
C248 C 0.24172 0.42261 0.68875 0.0
C249 C 0.20828 0.40469 0.71492 0.0
C250 C 0.1425 0.38285 0.80333 0.0
C251 C 0.10392 0.36473 0.82268 0.0
C252 C 0.08671 0.3857 0.85145 0.0
C253 C 0.10803 0.42524 0.86226 0.0
C254 C 0.1462 0.44359 0.84207 0.0
C255 C 0.16319 0.42266 0.81313 0.0
Dy256 Dy 0.04706 0.04946 0.52205 0.0
Dy257 Dy 0.9521 0.03487 0.56367 0.0
C258 C 0.03173 0.10534 0.59474 0.0
O259 O 0.04682 1.01077 0.57491 0.0
O260 O 0.97505 0.98281 0.58392 0.0
O261 O 0.11527 0.06223 0.52907 0.0
O262 O 0.08679 0.04956 0.47038 0.0
O263 O 0.94252 0.99673 0.50845 0.0
O264 O 0.01004 0.9894 0.49996 0.0
O265 O 0.9651 0.09364 0.533 0.0
O266 O 0.01242 0.08486 0.48531 0.0
O267 O 0.88549 1.03237 0.55545 0.0
O268 O 0.9097 1.02383 0.61424 0.0
C269 C 0.01499 0.98251 0.58884 0.0
O270 O 0.05209 0.10305 0.56119 0.0
O271 O 0.99697 0.07763 0.60465 0.0
C272 C 0.15532 0.09341 0.47422 0.0
C273 C 0.21738 0.15523 0.438 0.0
C274 C 0.18398 0.16397 0.45993 0.0
C275 C 0.15302 0.13316 0.47793 0.0
C276 C 0.1892 0.08478 0.45334 0.0
C277 C 0.22 0.11546 0.43527 0.0
C278 C 0.12209 0.06047 0.49087 0.0
C279 C 0.96877 0.97718 0.49361 0.0
C280 C 0.98631 0.1046 0.49988 0.0
C281 C 0.84073 0.98621 0.59811 0.0
C282 C 0.77673 0.91741 0.61885 0.0
C283 C 0.81454 0.91392 0.60042 0.0
C284 C 0.84643 0.94813 0.59029 0.0
C285 C 0.80213 0.98988 0.61409 0.0
C286 C 0.77038 0.95576 0.62451 0.0
C287 C 0.87594 1.02199 0.59239 0.0
H288 H 0.18092 0.19432 0.46182 0.0
H289 H 0.12685 0.14018 0.49394 0.0
H290 H 0.19135 0.0542 0.45035 0.0
H291 H 0.24546 0.10808 0.41845 0.0
H292 H 0.82039 0.88482 0.5959 0.0
H293 H 0.87628 0.94492 0.57807 0.0
H294 H 0.79739 1.01912 0.62037 0.0
H295 H 0.74223 0.95961 0.63967 0.0
Dy296 Dy 0.45175 1.02509 0.07428 0.0
Dy297 Dy 0.54809 0.03666 0.1094 0.0
C298 C 0.47144 0.96352 0.13804 0.0
O299 O 0.4572 0.06209 0.12967 0.0
O300 O 0.52861 0.09131 0.12676 0.0
O301 O 0.38437 1.00943 0.08751 0.0
O302 O 0.40666 1.02733 1.02768 0.0
O303 O 0.55596 0.07452 1.05372 0.0
O304 O 0.48863 0.08364 1.04848 0.0
O305 O 0.53459 0.98066 0.07402 0.0
O306 O 0.48402 0.99253 1.03135 0.0
O307 O 0.6138 0.03653 0.10021 0.0
O308 O 0.59182 0.04862 0.15901 0.0
C309 C 0.49016 0.09208 0.13767 0.0
O310 O 0.45119 0.96791 0.10522 0.0
O311 O 0.5045 0.992 0.15016 0.0
C312 C 0.34474 0.9753 1.03404 0.0
C313 C 0.29617 0.90895 0.99212 0.0
C314 C 0.33267 0.90621 1.01314 0.0
C315 C 0.3569 0.93925 1.0339 0.0
C316 C 0.30677 0.97729 1.01544 0.0
C317 C 0.28246 0.94417 0.99465 0.0
C318 C 0.37381 1.01148 1.05022 0.0
C319 C 0.52941 0.09402 1.03907 0.0
C320 C 0.5121 0.97285 1.04122 0.0
C321 C 0.66128 0.08308 0.14042 0.0
C322 C 0.72925 0.15103 0.15342 0.0
C323 C 0.69379 0.15393 0.13073 0.0
C324 C 0.65991 0.12015 0.12436 0.0
C325 C 0.69725 0.07976 0.16167 0.0
C326 C 0.73105 0.11348 0.16811 0.0
C327 C 0.62466 0.0482 0.13661 0.0
H328 H 0.34376 0.87931 1.01151 0.0
H329 H 0.38625 0.9373 1.04815 0.0
H330 H 0.29708 1.00496 1.01531 0.0
H331 H 0.25464 0.94701 0.97825 0.0
H332 H 0.69186 0.18244 0.11873 0.0
H333 H 0.63227 0.12307 0.1077 0.0
H334 H 0.6987 0.05132 0.17421 0.0
H335 H 0.75781 0.1105 0.18602 0.0
Dy336 Dy 0.51145 0.47693 0.53957 0.0
Dy337 Dy 0.5133 0.55776 0.58984 0.0
C338 C 0.5506 0.4883 0.62812 0.0
O339 O 0.45579 0.45972 0.58114 0.0
O340 O 0.44493 0.52173 0.58911 0.0
O341 O 0.51088 0.41438 0.53707 0.0
O342 O 0.51218 0.44788 0.48263 0.0
O343 O 0.49974 0.57034 0.52644 0.0
O344 O 0.46766 0.50675 0.50608 0.0
O345 O 0.58139 0.56722 0.57021 0.0
O346 O 0.56819 0.52351 0.51753 0.0
O347 O 0.52402 0.62195 0.59322 0.0
O348 O 0.49947 0.58527 0.64433 0.0
C349 C 0.43191 0.48273 0.59336 0.0
O350 O 0.55491 0.47559 0.59171 0.0
O351 O 0.53061 0.51623 0.63432 0.0
C352 C 0.55633 0.40442 0.48591 0.0
C353 C 0.63175 0.38699 0.45906 0.0
C354 C 0.63373 0.41973 0.48439 0.0
C355 C 0.59636 0.42828 0.49779 0.0
C356 C 0.55405 0.37159 0.46079 0.0
C357 C 0.59157 0.36286 0.44747 0.0
C358 C 0.51757 0.41533 0.49872 0.0
C359 C 0.47602 0.54571 0.50077 0.0
C360 C 0.59318 0.55395 0.53637 0.0
C361 C 0.4688 0.63749 0.62975 0.0
C362 C 0.39542 0.66605 0.63598 0.0
C363 C 0.39727 0.63665 0.60768 0.0
C364 C 0.4337 0.62253 0.60457 0.0
C365 C 0.46724 0.66691 0.65792 0.0
C366 C 0.43077 0.68112 0.66102 0.0
C367 C 0.5056 0.62036 0.62793 0.0
H368 H 0.66423 0.43869 0.49387 0.0
H369 H 0.59869 0.45381 0.51717 0.0
H370 H 0.52339 0.35309 0.45113 0.0
H371 H 0.58922 0.33779 0.42747 0.0
H372 H 0.37025 0.62401 0.58854 0.0
H373 H 0.43424 0.59944 0.58289 0.0
H374 H 0.49394 0.67852 0.67774 0.0
H375 H 0.43014 0.70391 0.68301 0.0
Dy376 Dy 0.01342 0.5724 1.03801 0.0
Dy377 Dy 1.00474 0.48971 0.08781 0.0
C378 C 0.96739 0.56062 0.12325 0.0
O379 O 0.06777 0.58645 0.08168 0.0
O380 O 0.07375 0.52275 0.0888 0.0
O381 O 0.02309 0.63649 1.03702 0.0
O382 O 0.01206 0.60279 0.98198 0.0
O383 O 0.02162 0.47698 1.02507 0.0
O384 O 0.05438 0.54031 1.004 0.0
O385 O 0.93814 0.48213 0.06518 0.0
O386 O 0.95453 0.52884 1.015 0.0
O387 O 0.99267 0.42535 0.09159 0.0
O388 O 0.01589 0.4621 0.14311 0.0
C389 C 0.08879 0.56127 0.09453 0.0
O390 O 0.96646 0.57374 0.08663 0.0
O391 O 0.9855 0.53164 0.13124 0.0
C392 C 0.97924 0.65513 0.98922 0.0
C393 C 0.91169 0.68846 0.96888 0.0
C394 C 0.90478 0.65581 0.99512 0.0
C395 C 0.93831 0.63929 1.0052 0.0
C396 C 0.9863 0.68761 0.96301 0.0
C397 C 0.95274 0.70415 0.95284 0.0
C398 C 0.01403 0.63697 0.9992 0.0
C399 C 0.04593 0.50128 0.99938 0.0
C400 C 0.92785 0.4983 1.03238 0.0
C401 C 0.05006 0.41262 0.12758 0.0
C402 C 0.13162 0.39914 0.13544 0.0
C403 C 0.12021 0.41544 0.10016 0.0
C404 C 0.0799 0.42228 0.09633 0.0
C405 C 0.06069 0.39481 0.16223 0.0
C406 C 0.10115 0.38788 0.16605 0.0
C407 C 0.01148 0.42739 0.12619 0.0
H408 H 0.87333 0.64267 1.00731 0.0
H409 H 0.93224 0.6139 1.02523 0.0
H410 H 0.01767 0.70005 0.95031 0.0
H411 H 0.9589 0.72938 0.93262 0.0
H412 H 0.14285 0.42382 0.07591 0.0
H413 H 0.07273 0.4367 0.06954 0.0
H414 H 0.03844 0.38786 0.18693 0.0
H415 H 0.1093 0.37537 0.19362 0.0
C416 C 0.27686 0.21018 0.34954 0.0
C417 C 0.29986 0.24681 0.36593 0.0
C418 C 0.25097 0.1806 0.37338 0.0
C419 C 0.24686 0.18665 0.41445 0.0
H420 H 0.27882 0.2044 0.31792 0.0
H421 H 0.23329 0.15305 0.35937 0.0
S422 S 0.30142 0.27688 0.47206 0.0
N423 N 0.31791 0.28734 0.42571 0.0
N424 N 0.26874 0.23146 0.47087 0.0
C425 C 0.27007 0.22294 0.43141 0.0
C426 C 0.29686 0.25305 0.40707 0.0
C427 C 0.21373 0.83845 0.92814 0.0
C428 C 0.23798 0.83337 0.89459 0.0
C429 C 0.23298 0.86105 0.96109 0.0
C430 C 0.27716 0.87864 0.96181 0.0
H431 H 0.17937 0.82665 0.92806 0.0
H432 H 0.21303 0.8662 0.98539 0.0
S433 S 0.35534 0.87362 0.88262 0.0
N434 N 0.30903 0.84752 0.86494 0.0
N435 N 0.34492 0.88853 0.92735 0.0
C436 C 0.30211 0.87185 0.92969 0.0
C437 C 0.28261 0.84947 0.89597 0.0
C438 C 0.59682 0.41645 0.69064 0.0
C439 C 0.59432 0.42947 0.73026 0.0
C440 C 0.58359 0.43599 0.65799 0.0
C441 C 0.56687 0.46944 0.66328 0.0
H442 H 0.60954 0.39103 0.68468 0.0
H443 H 0.58613 0.42438 0.62835 0.0
S444 S 0.55238 0.51502 0.76118 0.0
N445 N 0.57294 0.47764 0.77281 0.0
N446 N 0.54848 0.5144 0.7121 0.0
C447 C 0.56424 0.48278 0.70286 0.0
C448 C 0.57784 0.4629 0.73604 0.0
C449 C 0.92532 0.5802 0.22647 0.0
C450 C 0.91696 0.61792 0.22221 0.0
C451 C 0.94131 0.56182 0.19447 0.0
C452 C 0.94882 0.57996 0.15652 0.0
H453 H 0.92011 0.56505 0.25499 0.0
H454 H 0.9478 0.53309 0.1996 0.0
S455 S 0.92962 0.67795 0.12926 0.0
N456 N 0.916 0.67216 0.17676 0.0
N457 N 0.94521 0.63784 0.11678 0.0
C458 C 0.93962 0.61739 0.15179 0.0
C459 C 0.92398 0.63627 0.18451 0.0
C460 C 0.44084 0.16343 0.19452 0.0
C461 C 0.46267 0.20109 0.17916 0.0
C462 C 0.45048 0.12825 0.18164 0.0
C463 C 0.48292 0.1295 0.15359 0.0
H464 H 0.41578 0.16103 0.21647 0.0
H465 H 0.43229 0.09986 0.1936 0.0
S466 S 0.54842 0.21988 0.10269 0.0
N467 N 0.51711 0.23703 0.13298 0.0
N468 N 0.53633 0.1711 0.11004 0.0
C469 C 0.50556 0.16688 0.13845 0.0
C470 C 0.49522 0.20264 0.15098 0.0
C471 C 0.03043 0.90949 0.66732 0.0
C472 C 0.05887 0.8909 0.64814 0.0
C473 C 0.0135 0.9374 0.64714 0.0
C474 C 0.0254 0.94801 0.6076 0.0
H475 H 0.02309 0.90397 0.69866 0.0
H476 H 0.99335 0.95259 0.66326 0.0
S477 S 0.09526 0.90537 0.54309 0.0
N478 N 0.09513 0.88278 0.58644 0.0
N479 N 0.06385 0.9356 0.54887 0.0
C480 C 0.05161 0.92793 0.58748 0.0
C481 C 0.0682 0.89917 0.60767 0.0
C482 C 0.82826 0.42071 0.99628 0.0
C483 C 0.81167 0.44147 0.9668 0.0
C484 C 0.86478 0.4396 1.01853 0.0
C485 C 0.88629 0.48004 1.01216 0.0
H486 H 0.81385 0.38918 1.00123 0.0
H487 H 0.8771 0.4219 1.03979 0.0
S488 S 0.85213 0.5493 0.94262 0.0
N489 N 0.817 0.50585 0.93557 0.0
N490 N 0.88544 0.5412 0.97684 0.0
C491 C 0.86874 0.5016 0.9841 0.0
C492 C 0.83159 0.48239 0.96158 0.0
C493 C 0.68627 0.57548 0.4631 0.0
C494 C 0.70482 0.61669 0.46785 0.0
C495 C 0.65144 0.55524 0.4866 0.0
C496 C 0.63392 0.57519 0.5163 0.0
H497 H 0.69753 0.55903 0.43982 0.0
H498 H 0.63745 0.52381 0.48065 0.0
S499 S 0.67374 0.68242 0.54337 0.0
N500 N 0.7052 0.6762 0.5065 0.0
N501 N 0.63996 0.63827 0.55071 0.0
C502 C 0.65362 0.616 0.52274 0.0
C503 C 0.68888 0.6367 0.49849 0.0
C504 C 0.22417 0.3557 0.16139 0.0
C505 C 0.25987 0.38872 0.15718 0.0
C506 C 0.18282 0.35916 0.15383 0.0
C507 C 0.1758 0.39558 0.14113 0.0
H508 H 0.22814 0.32731 0.17189 0.0
H509 H 0.15611 0.33324 0.1582 0.0
S510 S 0.25887 0.49052 0.12417 0.0
N511 N 0.28581 0.45866 0.13892 0.0
N512 N 0.20818 0.46507 0.12361 0.0
C513 C 0.2114 0.42853 0.13569 0.0
C514 C 0.25342 0.42515 0.14409 0.0
C515 C 0.60772 0.17815 0.98249 0.0
C516 C 0.58126 0.19807 0.96205 0.0
C517 C 0.59076 0.14481 1.00702 0.0
C518 C 0.5464 0.12959 1.01249 0.0
H519 H 0.64209 0.18857 0.97973 0.0
H520 H 0.61286 0.131 1.02196 0.0
S521 S 0.46278 0.17026 0.96539 0.0
N522 N 0.50809 0.19945 0.94866 0.0
N523 N 0.47622 0.13752 0.99503 0.0
C524 C 0.51949 0.14942 0.99249 0.0
C525 C 0.53684 0.18338 0.96737 0.0
C526 C 0.96381 0.88629 0.42686 0.0
C527 C 0.92133 0.8634 0.43098 0.0
C528 C 0.97871 0.92313 0.4468 0.0
C529 C 0.95147 0.9391 0.47094 0.0
H530 H 0.98592 0.87525 0.40867 0.0
H531 H 0.01193 0.93917 0.44325 0.0
S532 S 0.83656 0.89137 0.48974 0.0
N533 N 0.85192 0.85958 0.46016 0.0
N534 N 0.87923 0.92894 0.49665 0.0
C535 C 0.90856 0.91677 0.47441 0.0
C536 C 0.8937 0.87895 0.45474 0.0
C537 C 0.30356 0.6981 0.68347 0.0
C538 C 0.28545 0.71365 0.65112 0.0
C539 C 0.33848 0.68195 0.6781 0.0
C540 C 0.35647 0.68053 0.64016 0.0
H541 H 0.29205 0.70023 0.71353 0.0
H542 H 0.35206 0.67119 0.704 0.0
S543 S 0.31878 0.71449 0.54529 0.0
N544 N 0.28623 0.72427 0.57949 0.0
N545 N 0.35231 0.6942 0.56935 0.0
C546 C 0.33751 0.69433 0.60726 0.0
C547 C 0.30196 0.71089 0.61277 0.0
C548 C 0.74327 0.83765 0.69644 0.0
C549 C 0.69996 0.83647 0.70192 0.0
C550 C 0.76714 0.86045 0.66593 0.0
C551 C 0.74849 0.88278 0.6398 0.0
H552 H 0.76021 0.82482 0.71846 0.0
H553 H 0.80131 0.86399 0.66575 0.0
S554 S 0.6335 0.87921 0.63385 0.0
N555 N 0.63725 0.85165 0.6732 0.0
N556 N 0.68229 0.89462 0.61546 0.0
C557 C 0.704 0.87701 0.64132 0.0
C558 C 0.67964 0.85374 0.67247 0.0
C559 C 0.83747 0.2174 0.18158 0.0
C560 C 0.82668 0.24801 0.20351 0.0
C561 C 0.80596 0.18751 0.16282 0.0
C562 C 0.76259 0.18719 0.1654 0.0
H563 H 0.87021 0.21532 0.18084 0.0
H564 H 0.81533 0.16335 0.1479 0.0
S565 S 0.71801 0.26193 0.21737 0.0
N566 N 0.76997 0.27744 0.22492 0.0
N567 N 0.71075 0.22127 0.18969 0.0
C568 C 0.75171 0.21908 0.18501 0.0
C569 C 0.78379 0.24952 0.20406 0.0
C570 C 0.40556 0.56211 0.41378 0.0
C571 C 0.42967 0.59805 0.3962 0.0
C572 C 0.42073 0.54485 0.44704 0.0
C573 C 0.46047 0.56301 0.46459 0.0
H574 H 0.37441 0.54726 0.40198 0.0
H575 H 0.40082 0.51748 0.45955 0.0
S576 S 0.53833 0.65478 0.42812 0.0
N577 N 0.49736 0.64898 0.39751 0.0
N578 N 0.5248 0.61764 0.46033 0.0
C579 C 0.48513 0.59854 0.44709 0.0
C580 C 0.47005 0.61576 0.41297 0.0
C581 C 0.07782 0.42455 0.93189 0.0
C582 C 0.09225 0.44581 0.89653 0.0
C583 C 0.06353 0.44285 0.96477 0.0
C584 C 0.06312 0.48348 0.9642 0.0
H585 H 0.07803 0.39343 0.93451 0.0
H586 H 0.05286 0.42482 0.99103 0.0
S587 S 0.09557 0.55242 0.87833 0.0
N588 N 0.10358 0.50974 0.8626 0.0
N589 N 0.07756 0.5442 0.92445 0.0
C590 C 0.07748 0.50522 0.92907 0.0
C591 C 0.09181 0.48645 0.89537 0.0
C592 C 0.54501 0.88037 1.01184 0.0
C593 C 0.55368 0.88627 0.9709 0.0
C594 C 0.52845 0.90721 1.03385 0.0
C595 C 0.51948 0.94068 1.01567 0.0
H596 H 0.55346 0.85614 1.02745 0.0
H597 H 0.5246 0.9028 0.06577 0.0
S598 S 0.53162 0.96731 0.90868 0.0
N599 N 0.54866 0.92647 0.91241 0.0
N600 N 0.51633 0.97629 0.95397 0.0
C601 C 0.52434 0.94509 0.97426 0.0
C602 C 0.54174 0.91798 0.95178 0.0
C603 C 0.98121 0.18081 0.41981 0.0
C604 C 0.96958 0.21105 0.44174 0.0
C605 C 0.98761 0.1467 0.43881 0.0
C606 C 0.9823 0.14168 0.48027 0.0
H607 H 0.98394 0.18289 0.38764 0.0
H608 H 0.99543 0.12361 0.42078 0.0
S609 S 0.95859 0.21526 0.55158 0.0
N610 N 0.95766 0.23587 0.50734 0.0
N611 N 0.96941 0.17197 0.54308 0.0
C612 C 0.97271 0.17268 0.50264 0.0
C613 C 0.9664 0.20731 0.48336 0.0
C614 C 0.19416 0.63007 0.13093 0.0
C615 C 0.20884 0.60644 0.15906 0.0
C616 C 0.15539 0.61545 0.11038 0.0
C617 C 0.12993 0.57627 0.11648 0.0
H618 H 0.2127 0.66033 0.12492 0.0
H619 H 0.14558 0.63489 0.08918 0.0
S620 S 0.15283 0.5025 0.18787 0.0
N621 N 0.19401 0.54198 0.1924 0.0
N622 N 0.12154 0.51455 0.15392 0.0
C623 C 0.14406 0.55237 0.14469 0.0
C624 C 0.18327 0.56743 0.16595 0.0
C625 C 0.3311 0.47355 0.65601 0.0
C626 C 0.31778 0.43241 0.66459 0.0
C627 C 0.36709 0.48942 0.63187 0.0
C628 C 0.39103 0.46473 0.61502 0.0
H629 H 0.31453 0.49381 0.66925 0.0
H630 H 0.37683 0.52148 0.62733 0.0
S631 S 0.36576 0.35404 0.62471 0.0
N632 N 0.32885 0.36687 0.65169 0.0
N633 N 0.39597 0.39618 0.6064 0.0
C634 C 0.37655 0.4232 0.62193 0.0
C635 C 0.34015 0.40721 0.64665 0.0
C636 C 0.83674 0.73038 0.90557 0.0
C637 C 0.81108 0.74299 0.93403 0.0
C638 C 0.86868 0.71221 0.91712 0.0
C639 C 0.87615 0.70588 0.95756 0.0
H640 H 0.83242 0.73505 0.87408 0.0
H641 H 0.88786 0.70325 0.89418 0.0
S642 S 0.81826 0.73384 1.04381 0.0
N643 N 0.79538 0.74801 1.00444 0.0
N644 N 0.85544 0.71368 1.02619 0.0
C645 C 0.85021 0.71759 0.98633 0.0
C646 C 0.81765 0.73616 0.97456 0.0
C647 C 0.42525 0.85145 0.15333 0.0
C648 C 0.43743 0.8445 0.19233 0.0
C649 C 0.43555 0.89002 0.13684 0.0
C650 C 0.45922 0.92358 0.15829 0.0
H651 H 0.40778 0.82666 0.13519 0.0
H652 H 0.42565 0.89322 0.10645 0.0
S653 S 0.49847 0.92151 0.26205 0.0
N654 N 0.47368 0.87436 0.25249 0.0
N655 N 0.49394 0.94693 0.22132 0.0
C656 C 0.47135 0.9171 0.19758 0.0
C657 C 0.46017 0.87765 0.21464 0.0
C658 C 0.10428 0.20215 0.63655 0.0
C659 C 0.08218 0.21055 0.67027 0.0
C660 C 0.08763 0.1684 0.61253 0.0
C661 C 0.04816 0.14103 0.62122 0.0
H662 H 0.13492 0.22192 0.6286 0.0
H663 H 0.10627 0.16366 0.58705 0.0
S664 S 0.9774 0.14933 0.70635 0.0
N665 N 0.01857 0.18878 0.71113 0.0
N666 N 0.98712 0.1254 0.66624 0.0
C667 C 0.02548 0.14928 0.65477 0.0
C668 C 0.04243 0.18396 0.67911 0.0
C669 C 0.74181 0.40331 0.41276 0.0
C670 C 0.74961 0.36529 0.41527 0.0
C671 C 0.70362 0.41 0.42697 0.0
C672 C 0.67176 0.37891 0.44414 0.0
H673 H 0.7651 0.42794 0.39909 0.0
H674 H 0.69873 0.43965 0.42401 0.0
S675 S 0.678 0.27479 0.46088 0.0
N676 N 0.72338 0.29673 0.43846 0.0
N677 N 0.65145 0.30933 0.46489 0.0
C678 C 0.67937 0.34092 0.44739 0.0
C679 C 0.71833 0.33412 0.43305 0.0
loop_
_geom_bond_atom_site_label_1
_geom_bond_atom_site_label_2
_geom_bond_distance
_geom_bond_site_symmetry_2
_ccdc_geom_bond_type
P0 O11 1.490 . S
P0 C14 1.812 . S
P0 C20 1.803 . S
P0 C26 1.819 . S
H1 C15 0.941 . S
H2 C16 0.939 . S
H3 C18 0.940 . S
H4 C19 0.940 . S
H5 C21 0.939 . S
H6 C22 0.942 . S
H7 C24 0.940 . S
H8 C25 0.939 . S
H9 C27 0.941 . S
H10 C31 0.939 . S
O11 P0 1.490 . S
H12 C28 0.939 . S
H13 C30 0.940 . S
C14 P0 1.812 . S
C14 C15 1.389 . S
C14 C19 1.391 . S
C15 H1 0.941 . S
C15 C14 1.389 . S
C15 C16 1.397 . S
C16 H2 0.939 . S
C16 C15 1.397 . S
C16 C17 1.378 . S
C17 C16 1.378 . S
C17 C18 1.378 . S
C18 H3 0.940 . S
C18 C17 1.378 . S
C18 C19 1.396 . S
C19 H4 0.940 . S
C19 C14 1.391 . S
C19 C18 1.396 . S
C20 P0 1.803 . S
C20 C21 1.378 . S
C20 C25 1.400 . S
C21 H5 0.939 . S
C21 C20 1.378 . S
C21 C22 1.361 . S
C22 H6 0.942 . S
C22 C21 1.361 . S
C22 C23 1.369 . S
C23 C22 1.369 . S
C23 C24 1.404 . S
C24 H7 0.940 . S
C24 C23 1.404 . S
C24 C25 1.389 . S
C25 H8 0.939 . S
C25 C20 1.400 . S
C25 C24 1.389 . S
C26 P0 1.819 . S
C26 C27 1.391 . S
C26 C31 1.391 . S
C27 H9 0.941 . S
C27 C26 1.391 . S
C27 C28 1.396 . S
C28 H12 0.939 . S
C28 C27 1.396 . S
C28 C29 1.397 . S
C29 C28 1.397 . S
C29 C30 1.385 . S
C30 H13 0.940 . S
C30 C29 1.385 . S
C30 C31 1.388 . S
C31 H10 0.939 . S
C31 C26 1.391 . S
C31 C30 1.388 . S
P32 O43 1.490 . S
P32 C46 1.812 . S
P32 C52 1.803 . S
P32 C58 1.819 . S
H33 C47 0.941 . S
H34 C48 0.939 . S
H35 C50 0.940 . S
H36 C51 0.940 . S
H37 C53 0.939 . S
H38 C54 0.942 . S
H39 C56 0.940 . S
H40 C57 0.939 . S
H41 C59 0.941 . S
H42 C63 0.939 . S
O43 P32 1.490 . S
H44 C60 0.939 . S
H45 C62 0.940 . S
C46 P32 1.812 . S
C46 C47 1.389 . S
C46 C51 1.391 . S
C47 H33 0.941 . S
C47 C46 1.389 . S
C47 C48 1.397 . S
C48 H34 0.939 . S
C48 C47 1.397 . S
C48 C49 1.378 . S
C49 C48 1.378 . S
C49 C50 1.378 . S
C50 H35 0.940 . S
C50 C49 1.378 . S
C50 C51 1.396 . S
C51 H36 0.940 . S
C51 C46 1.391 . S
C51 C50 1.396 . S
C52 P32 1.803 . S
C52 C53 1.378 . S
C52 C57 1.400 . S
C53 H37 0.939 . S
C53 C52 1.378 . S
C53 C54 1.361 . S
C54 H38 0.942 . S
C54 C53 1.361 . S
C54 C55 1.369 . S
C55 C54 1.369 . S
C55 C56 1.404 . S
C56 H39 0.940 . S
C56 C55 1.404 . S
C56 C57 1.389 . S
C57 H40 0.939 . S
C57 C52 1.400 . S
C57 C56 1.389 . S
C58 P32 1.819 . S
C58 C59 1.391 . S
C58 C63 1.391 . S
C59 H41 0.941 . S
C59 C58 1.391 . S
C59 C60 1.396 . S
C60 H44 0.939 . S
C60 C59 1.396 . S
C60 C61 1.397 . S
C61 C60 1.397 . S
C61 C62 1.385 . S
C62 H45 0.940 . S
C62 C61 1.385 . S
C62 C63 1.388 . S
C63 H42 0.939 . S
C63 C58 1.391 . S
C63 C62 1.388 . S
P64 O75 1.490 . S
P64 C78 1.812 . S
P64 C84 1.803 . S
P64 C90 1.819 . S
H65 C79 0.941 . S
H66 C80 0.939 . S
H67 C82 0.940 . S
H68 C83 0.940 . S
H69 C85 0.939 . S
H70 C86 0.942 . S
H71 C88 0.940 . S
H72 C89 0.939 . S
H73 C91 0.941 . S
H74 C95 0.939 . S
O75 P64 1.490 . S
H76 C92 0.939 . S
H77 C94 0.940 . S
C78 P64 1.812 . S
C78 C79 1.389 . S
C78 C83 1.391 . S
C79 H65 0.941 . S
C79 C78 1.389 . S
C79 C80 1.397 . S
C80 H66 0.939 . S
C80 C79 1.397 . S
C80 C81 1.378 . S
C81 C80 1.378 . S
C81 C82 1.378 . S
C82 H67 0.940 . S
C82 C81 1.378 . S
C82 C83 1.396 . S
C83 H68 0.940 . S
C83 C78 1.391 . S
C83 C82 1.396 . S
C84 P64 1.803 . S
C84 C85 1.378 . S
C84 C89 1.400 . S
C85 H69 0.939 . S
C85 C84 1.378 . S
C85 C86 1.361 . S
C86 H70 0.942 . S
C86 C85 1.361 . S
C86 C87 1.369 . S
C87 C86 1.369 . S
C87 C88 1.404 . S
C88 H71 0.940 . S
C88 C87 1.404 . S
C88 C89 1.389 . S
C89 H72 0.939 . S
C89 C84 1.400 . S
C89 C88 1.389 . S
C90 P64 1.819 . S
C90 C91 1.391 . S
C90 C95 1.391 . S
C91 H73 0.941 . S
C91 C90 1.391 . S
C91 C92 1.396 . S
C92 H76 0.939 . S
C92 C91 1.396 . S
C92 C93 1.397 . S
C93 C92 1.397 . S
C93 C94 1.385 . S
C94 H77 0.940 . S
C94 C93 1.385 . S
C94 C95 1.388 . S
C95 H74 0.939 . S
C95 C90 1.391 . S
C95 C94 1.388 . S
P96 O107 1.490 . S
P96 C110 1.812 . S
P96 C116 1.803 . S
P96 C122 1.819 . S
H97 C111 0.941 . S
H98 C112 0.939 . S
H99 C114 0.940 . S
H100 C115 0.940 . S
H101 C117 0.939 . S
H102 C118 0.942 . S
H103 C120 0.940 . S
H104 C121 0.939 . S
H105 C123 0.941 . S
H106 C127 0.939 . S
O107 P96 1.490 . S
H108 C124 0.939 . S
H109 C126 0.940 . S
C110 P96 1.812 . S
C110 C111 1.389 . S
C110 C115 1.391 . S
C111 H97 0.941 . S
C111 C110 1.389 . S
C111 C112 1.397 . S
C112 H98 0.939 . S
C112 C111 1.397 . S
C112 C113 1.378 . S
C113 C112 1.378 . S
C113 C114 1.378 . S
C114 H99 0.940 . S
C114 C113 1.378 . S
C114 C115 1.396 . S
C115 H100 0.940 . S
C115 C110 1.391 . S
C115 C114 1.396 . S
C116 P96 1.803 . S
C116 C117 1.378 . S
C116 C121 1.400 . S
C117 H101 0.939 . S
C117 C116 1.378 . S
C117 C118 1.361 . S
C118 H102 0.942 . S
C118 C117 1.361 . S
C118 C119 1.369 . S
C119 C118 1.369 . S
C119 C120 1.404 . S
C120 H103 0.940 . S
C120 C119 1.404 . S
C120 C121 1.389 . S
C121 H104 0.939 . S
C121 C116 1.400 . S
C121 C120 1.389 . S
C122 P96 1.819 . S
C122 C123 1.391 . S
C122 C127 1.391 . S
C123 H105 0.941 . S
C123 C122 1.391 . S
C123 C124 1.396 . S
C124 H108 0.939 . S
C124 C123 1.396 . S
C124 C125 1.397 . S
C125 C124 1.397 . S
C125 C126 1.385 . S
C126 H109 0.940 . S
C126 C125 1.385 . S
C126 C127 1.388 . S
C127 H106 0.939 . S
C127 C122 1.391 . S
C127 C126 1.388 . S
P128 O139 1.490 . S
P128 C142 1.812 . S
P128 C148 1.803 . S
P128 C154 1.819 . S
H129 C143 0.941 . S
H130 C144 0.939 . S
H131 C146 0.940 . S
H132 C147 0.940 . S
H133 C149 0.939 . S
H134 C150 0.942 . S
H135 C152 0.940 . S
H136 C153 0.939 . S
H137 C155 0.941 . S
H138 C159 0.939 . S
O139 P128 1.490 . S
H140 C156 0.939 . S
H141 C158 0.940 . S
C142 P128 1.812 . S
C142 C143 1.389 . S
C142 C147 1.391 . S
C143 H129 0.941 . S
C143 C142 1.389 . S
C143 C144 1.397 . S
C144 H130 0.939 . S
C144 C143 1.397 . S
C144 C145 1.378 . S
C145 C144 1.378 . S
C145 C146 1.378 . S
C146 H131 0.940 . S
C146 C145 1.378 . S
C146 C147 1.396 . S
C147 H132 0.940 . S
C147 C142 1.391 . S
C147 C146 1.396 . S
C148 P128 1.803 . S
C148 C149 1.378 . S
C148 C153 1.400 . S
C149 H133 0.939 . S
C149 C148 1.378 . S
C149 C150 1.361 . S
C150 H134 0.942 . S
C150 C149 1.361 . S
C150 C151 1.369 . S
C151 C150 1.369 . S
C151 C152 1.404 . S
C152 H135 0.940 . S
C152 C151 1.404 . S
C152 C153 1.389 . S
C153 H136 0.939 . S
C153 C148 1.400 . S
C153 C152 1.389 . S
C154 P128 1.819 . S
C154 C155 1.391 . S
C154 C159 1.391 . S
C155 H137 0.941 . S
C155 C154 1.391 . S
C155 C156 1.396 . S
C156 H140 0.939 . S
C156 C155 1.396 . S
C156 C157 1.397 . S
C157 C156 1.397 . S
C157 C158 1.385 . S
C158 H141 0.940 . S
C158 C157 1.385 . S
C158 C159 1.388 . S
C159 H138 0.939 . S
C159 C154 1.391 . S
C159 C158 1.388 . S
P160 O171 1.490 . S
P160 C174 1.812 . S
P160 C180 1.803 . S
P160 C186 1.819 . S
H161 C175 0.941 . S
H162 C176 0.939 . S
H163 C178 0.940 . S
H164 C179 0.940 . S
H165 C181 0.939 . S
H166 C182 0.942 1_455 S
H167 C184 0.940 . S
H168 C185 0.939 . S
H169 C187 0.941 . S
H170 C191 0.939 . S
O171 P160 1.490 . S
H172 C188 0.939 . S
H173 C190 0.940 . S
C174 P160 1.812 . S
C174 C175 1.389 . S
C174 C179 1.391 . S
C175 H161 0.941 . S
C175 C174 1.389 . S
C175 C176 1.397 . S
C176 H162 0.939 . S
C176 C175 1.397 . S
C176 C177 1.378 . S
C177 C176 1.378 . S
C177 C178 1.378 . S
C178 H163 0.940 . S
C178 C177 1.378 . S
C178 C179 1.396 . S
C179 H164 0.940 . S
C179 C174 1.391 . S
C179 C178 1.396 . S
C180 P160 1.803 . S
C180 C181 1.378 . S
C180 C185 1.400 . S
C181 H165 0.939 . S
C181 C180 1.378 . S
C181 C182 1.361 . S
C182 H166 0.942 1_655 S
C182 C181 1.361 . S
C182 C183 1.369 . S
C183 C182 1.369 . S
C183 C184 1.404 . S
C184 H167 0.940 . S
C184 C183 1.404 . S
C184 C185 1.389 . S
C185 H168 0.939 . S
C185 C180 1.400 . S
C185 C184 1.389 . S
C186 P160 1.819 . S
C186 C187 1.391 . S
C186 C191 1.391 . S
C187 H169 0.941 . S
C187 C186 1.391 . S
C187 C188 1.396 . S
C188 H172 0.939 . S
C188 C187 1.396 . S
C188 C189 1.397 . S
C189 C188 1.397 . S
C189 C190 1.385 . S
C190 H173 0.940 . S
C190 C189 1.385 . S
C190 C191 1.388 . S
C191 H170 0.939 . S
C191 C186 1.391 . S
C191 C190 1.388 . S
P192 O203 1.490 . S
P192 C206 1.812 . S
P192 C212 1.803 . S
P192 C218 1.819 . S
H193 C207 0.941 . S
H194 C208 0.939 . S
H195 C210 0.940 . S
H196 C211 0.940 . S
H197 C213 0.939 . S
H198 C214 0.942 . S
H199 C216 0.940 . S
H200 C217 0.939 . S
H201 C219 0.941 . S
H202 C223 0.939 . S
O203 P192 1.490 . S
H204 C220 0.939 . S
H205 C222 0.940 . S
C206 P192 1.812 . S
C206 C207 1.389 . S
C206 C211 1.391 . S
C207 H193 0.941 . S
C207 C206 1.389 . S
C207 C208 1.397 . S
C208 H194 0.939 . S
C208 C207 1.397 . S
C208 C209 1.378 . S
C209 C208 1.378 . S
C209 C210 1.378 . S
C210 H195 0.940 . S
C210 C209 1.378 . S
C210 C211 1.396 . S
C211 H196 0.940 . S
C211 C206 1.391 . S
C211 C210 1.396 . S
C212 P192 1.803 . S
C212 C213 1.378 . S
C212 C217 1.400 . S
C213 H197 0.939 . S
C213 C212 1.378 . S
C213 C214 1.361 . S
C214 H198 0.942 . S
C214 C213 1.361 . S
C214 C215 1.369 . S
C215 C214 1.369 . S
C215 C216 1.404 . S
C216 H199 0.940 . S
C216 C215 1.404 . S
C216 C217 1.389 . S
C217 H200 0.939 . S
C217 C212 1.400 . S
C217 C216 1.389 . S
C218 P192 1.819 . S
C218 C219 1.391 . S
C218 C223 1.391 . S
C219 H201 0.941 . S
C219 C218 1.391 . S
C219 C220 1.396 . S
C220 H204 0.939 . S
C220 C219 1.396 . S
C220 C221 1.397 . S
C221 C220 1.397 . S
C221 C222 1.385 . S
C222 H205 0.940 . S
C222 C221 1.385 . S
C222 C223 1.388 . S
C223 H202 0.939 . S
C223 C218 1.391 . S
C223 C222 1.388 . S
P224 O235 1.490 . S
P224 C238 1.812 . S
P224 C244 1.803 . S
P224 C250 1.819 . S
H225 C239 0.941 . S
H226 C240 0.939 . S
H227 C242 0.940 . S
H228 C243 0.940 . S
H229 C245 0.939 . S
H230 C246 0.942 . S
H231 C248 0.940 . S
H232 C249 0.939 . S
H233 C251 0.941 . S
H234 C255 0.939 . S
O235 P224 1.490 . S
H236 C252 0.939 . S
H237 C254 0.940 . S
C238 P224 1.812 . S
C238 C239 1.389 . S
C238 C243 1.391 . S
C239 H225 0.941 . S
C239 C238 1.389 . S
C239 C240 1.397 . S
C240 H226 0.939 . S
C240 C239 1.397 . S
C240 C241 1.378 . S
C241 C240 1.378 . S
C241 C242 1.378 . S
C242 H227 0.940 . S
C242 C241 1.378 . S
C242 C243 1.396 . S
C243 H228 0.940 . S
C243 C238 1.391 . S
C243 C242 1.396 . S
C244 P224 1.803 . S
C244 C245 1.378 . S
C244 C249 1.400 . S
C245 H229 0.939 . S
C245 C244 1.378 . S
C245 C246 1.361 . S
C246 H230 0.942 . S
C246 C245 1.361 . S
C246 C247 1.369 . S
C247 C246 1.369 . S
C247 C248 1.404 . S
C248 H231 0.940 . S
C248 C247 1.404 . S
C248 C249 1.389 . S
C249 H232 0.939 . S
C249 C244 1.400 . S
C249 C248 1.389 . S
C250 P224 1.819 . S
C250 C251 1.391 . S
C250 C255 1.391 . S
C251 H233 0.941 . S
C251 C250 1.391 . S
C251 C252 1.396 . S
C252 H236 0.939 . S
C252 C251 1.396 . S
C252 C253 1.397 . S
C253 C252 1.397 . S
C253 C254 1.385 . S
C254 H237 0.940 . S
C254 C253 1.385 . S
C254 C255 1.388 . S
C255 H234 0.939 . S
C255 C250 1.391 . S
C255 C254 1.388 . S
Dy256 O259 2.307 1_545 S
Dy256 O261 2.395 . S
Dy256 O262 2.379 . S
Dy256 O264 2.339 1_545 S
Dy256 O266 2.298 . S
Dy256 O270 2.275 . S
Dy256 C278 2.738 . S
Dy257 O260 2.298 1_655 S
Dy257 O263 2.275 . S
Dy257 O265 2.307 1_565 S
Dy257 O267 2.395 . S
Dy257 O268 2.379 . S
Dy257 O271 2.339 1_565 S
Dy257 C287 2.738 . S
C258 O270 1.254 . S
C258 O271 1.257 1_455 S
O259 Dy256 2.307 1_565 S
O259 C269 1.266 . S
O260 Dy257 2.298 1_455 S
O260 C269 1.236 . S
O261 Dy256 2.395 . S
O261 C278 1.255 . S
O262 Dy256 2.379 . S
O262 C278 1.249 . S
O263 Dy257 2.275 . S
O263 C279 1.254 . S
O264 Dy256 2.339 1_565 S
O264 C279 1.257 1_455 S
O265 Dy257 2.307 1_545 S
O265 C280 1.266 . S
O266 Dy256 2.298 . S
O266 C280 1.236 1_455 S
O267 Dy257 2.395 . S
O267 C287 1.255 . S
O268 Dy257 2.379 . S
O268 C287 1.249 . S
C269 O259 1.266 . S
C269 O260 1.236 . S
O270 Dy256 2.275 . S
O270 C258 1.254 . S
O271 Dy257 2.339 1_545 S
O271 C258 1.257 1_655 S
C272 C275 1.344 . S
C272 C276 1.328 . S
C272 C278 1.516 . S
C273 C274 1.304 . S
C273 C277 1.323 . S
C274 C273 1.304 . S
C274 C275 1.371 . S
C274 H288 0.930 . S
C275 C272 1.344 . S
C275 C274 1.371 . S
C275 H289 0.931 . S
C276 C272 1.328 . S
C276 C277 1.433 . S
C276 H290 0.931 . S
C277 C273 1.323 . S
C277 C276 1.433 . S
C277 H291 0.933 . S
C278 Dy256 2.738 . S
C278 O261 1.255 . S
C278 O262 1.249 . S
C278 C272 1.516 . S
C279 O263 1.254 . S
C279 O264 1.257 1_655 S
C280 O265 1.266 . S
C280 O266 1.236 1_655 S
C281 C284 1.344 . S
C281 C285 1.328 . S
C281 C287 1.516 . S
C282 C283 1.304 . S
C282 C286 1.323 . S
C283 C282 1.304 . S
C283 C284 1.371 . S
C283 H292 0.930 . S
C284 C281 1.344 . S
C284 C283 1.371 . S
C284 H293 0.931 . S
C285 C281 1.328 . S
C285 C286 1.433 . S
C285 H294 0.931 . S
C286 C282 1.323 . S
C286 C285 1.433 . S
C286 H295 0.933 . S
C287 Dy257 2.738 . S
C287 O267 1.255 . S
C287 O268 1.249 . S
C287 C281 1.516 . S
H288 C274 0.930 . S
H289 C275 0.931 . S
H290 C276 0.931 . S
H291 C277 0.933 . S
H292 C283 0.930 . S
H293 C284 0.931 . S
H294 C285 0.931 . S
H295 C286 0.933 . S
Dy296 O299 2.318 1_556 S
Dy296 O301 2.382 1_545 S
Dy296 O302 2.377 1_545 S
Dy296 O304 2.350 . S
Dy296 O306 2.289 1_545 S
Dy296 O310 2.266 1_546 S
Dy296 C318 2.730 1_545 S
Dy297 O300 2.298 . S
Dy297 O303 2.275 1_554 S
Dy297 O305 2.307 1_544 S
Dy297 O307 2.395 . S
Dy297 O308 2.379 . S
Dy297 O311 2.339 1_545 S
Dy297 C327 2.738 . S
C298 O310 1.254 . S
C298 O311 1.257 . S
O299 Dy296 2.318 1_554 S
O299 C309 1.266 . S
O300 Dy297 2.298 . S
O300 C309 1.236 . S
O301 Dy296 2.382 1_565 S
O301 C318 1.255 . S
O302 Dy296 2.377 1_565 S
O302 C318 1.249 . S
O303 Dy297 2.275 1_556 S
O303 C319 1.254 . S
O304 Dy296 2.350 . S
O304 C319 1.257 . S
O305 Dy297 2.307 1_566 S
O305 C320 1.266 . S
O306 Dy296 2.289 1_565 S
O306 C320 1.236 . S
O307 Dy297 2.395 . S
O307 C327 1.255 . S
O308 Dy297 2.379 . S
O308 C327 1.249 . S
C309 O299 1.266 . S
C309 O300 1.236 . S
O310 Dy296 2.266 1_564 S
O310 C298 1.254 . S
O311 Dy297 2.339 1_565 S
O311 C298 1.257 . S
C312 C315 1.344 . S
C312 C316 1.328 . S
C312 C318 1.516 . S
C313 C314 1.304 . S
C313 C317 1.323 . S
C314 C313 1.304 . S
C314 C315 1.371 . S
C314 H328 0.930 . S
C315 C312 1.344 . S
C315 C314 1.371 . S
C315 H329 0.931 . S
C316 C312 1.328 . S
C316 C317 1.433 . S
C316 H330 0.931 . S
C317 C313 1.323 . S
C317 C316 1.433 . S
C317 H331 0.933 . S
C318 Dy296 2.730 1_565 S
C318 O301 1.255 . S
C318 O302 1.249 . S
C318 C312 1.516 . S
C319 O303 1.254 . S
C319 O304 1.257 . S
C320 O305 1.266 . S
C320 O306 1.236 . S
C321 C324 1.344 . S
C321 C325 1.328 . S
C321 C327 1.516 . S
C322 C323 1.304 . S
C322 C326 1.323 . S
C323 C322 1.304 . S
C323 C324 1.371 . S
C323 H332 0.930 . S
C324 C321 1.344 . S
C324 C323 1.371 . S
C324 H333 0.931 . S
C325 C321 1.328 . S
C325 C326 1.433 . S
C325 H334 0.931 . S
C326 C322 1.323 . S
C326 C325 1.433 . S
C326 H335 0.933 . S
C327 Dy297 2.738 . S
C327 O307 1.255 . S
C327 O308 1.249 . S
C327 C321 1.516 . S
H328 C314 0.930 . S
H329 C315 0.931 . S
H330 C316 0.931 . S
H331 C317 0.933 . S
H332 C323 0.930 . S
H333 C324 0.931 . S
H334 C325 0.931 . S
H335 C326 0.933 . S
Dy336 O339 2.307 . S
Dy336 O341 2.395 . S
Dy336 O342 2.379 . S
Dy336 O344 2.339 . S
Dy336 O346 2.298 . S
Dy336 O350 2.275 . S
Dy336 C358 2.738 . S
Dy337 O340 2.298 . S
Dy337 O343 2.275 . S
Dy337 O345 2.307 . S
Dy337 O347 2.395 . S
Dy337 O348 2.379 . S
Dy337 O351 2.339 . S
Dy337 C367 2.738 . S
C338 O350 1.254 . S
C338 O351 1.257 . S
O339 Dy336 2.307 . S
O339 C349 1.266 . S
O340 Dy337 2.298 . S
O340 C349 1.236 . S
O341 Dy336 2.395 . S
O341 C358 1.255 . S
O342 Dy336 2.379 . S
O342 C358 1.249 . S
O343 Dy337 2.275 . S
O343 C359 1.254 . S
O344 Dy336 2.339 . S
O344 C359 1.257 . S
O345 Dy337 2.307 . S
O345 C360 1.266 . S
O346 Dy336 2.298 . S
O346 C360 1.236 . S
O347 Dy337 2.395 . S
O347 C367 1.255 . S
O348 Dy337 2.379 . S
O348 C367 1.249 . S
C349 O339 1.266 . S
C349 O340 1.236 . S
O350 Dy336 2.275 . S
O350 C338 1.254 . S
O351 Dy337 2.339 . S
O351 C338 1.257 . S
C352 C355 1.344 . S
C352 C356 1.328 . S
C352 C358 1.516 . S
C353 C354 1.304 . S
C353 C357 1.323 . S
C354 C353 1.304 . S
C354 C355 1.371 . S
C354 H368 0.930 . S
C355 C352 1.344 . S
C355 C354 1.371 . S
C355 H369 0.931 . S
C356 C352 1.328 . S
C356 C357 1.433 . S
C356 H370 0.931 . S
C357 C353 1.323 . S
C357 C356 1.433 . S
C357 H371 0.933 . S
C358 Dy336 2.738 . S
C358 O341 1.255 . S
C358 O342 1.249 . S
C358 C352 1.516 . S
C359 O343 1.254 . S
C359 O344 1.257 . S
C360 O345 1.266 . S
C360 O346 1.236 . S
C361 C364 1.344 . S
C361 C365 1.328 . S
C361 C367 1.516 . S
C362 C363 1.304 . S
C362 C366 1.323 . S
C363 C362 1.304 . S
C363 C364 1.371 . S
C363 H372 0.930 . S
C364 C361 1.344 . S
C364 C363 1.371 . S
C364 H373 0.931 . S
C365 C361 1.328 . S
C365 C366 1.433 . S
C365 H374 0.931 . S
C366 C362 1.323 . S
C366 C365 1.433 . S
C366 H375 0.933 . S
C367 Dy337 2.738 . S
C367 O347 1.255 . S
C367 O348 1.249 . S
C367 C361 1.516 . S
H368 C354 0.930 . S
H369 C355 0.931 . S
H370 C356 0.931 . S
H371 C357 0.933 . S
H372 C363 0.930 . S
H373 C364 0.931 . S
H374 C365 0.931 . S
H375 C366 0.933 . S
Dy376 O379 2.307 1_656 S
Dy376 O381 2.395 . S
Dy376 O382 2.379 . S
Dy376 O384 2.339 1_655 S
Dy376 O386 2.298 . S
Dy376 O390 2.275 1_556 S
Dy376 C398 2.738 . S
Dy377 O380 2.298 . S
Dy377 O383 2.275 1_554 S
Dy377 O385 2.307 1_455 S
Dy377 O387 2.395 . S
Dy377 O388 2.379 . S
Dy377 O391 2.339 1_455 S
Dy377 C407 2.738 . S
C378 O390 1.254 . S
C378 O391 1.257 . S
O379 Dy376 2.307 1_454 S
O379 C389 1.266 . S
O380 Dy377 2.298 . S
O380 C389 1.236 . S
O381 Dy376 2.395 . S
O381 C398 1.255 . S
O382 Dy376 2.379 . S
O382 C398 1.249 . S
O383 Dy377 2.275 1_556 S
O383 C399 1.254 . S
O384 Dy376 2.339 1_455 S
O384 C399 1.257 . S
O385 Dy377 2.307 1_655 S
O385 C400 1.266 1_554 S
O386 Dy376 2.298 . S
O386 C400 1.236 . S
O387 Dy377 2.395 . S
O387 C407 1.255 . S
O388 Dy377 2.379 . S
O388 C407 1.249 . S
C389 O379 1.266 . S
C389 O380 1.236 . S
O390 Dy376 2.275 1_554 S
O390 C378 1.254 . S
O391 Dy377 2.339 1_655 S
O391 C378 1.257 . S
C392 C395 1.344 . S
C392 C396 1.328 . S
C392 C398 1.516 . S
C393 C394 1.304 . S
C393 C397 1.323 . S
C394 C393 1.304 . S
C394 C395 1.371 . S
C394 H408 0.930 . S
C395 C392 1.344 . S
C395 C394 1.371 . S
C395 H409 0.931 . S
C396 C392 1.328 . S
C396 C397 1.433 . S
C396 H410 0.931 . S
C397 C393 1.323 . S
C397 C396 1.433 . S
C397 H411 0.933 . S
C398 Dy376 2.738 . S
C398 O381 1.255 . S
C398 O382 1.249 . S
C398 C392 1.516 . S
C399 O383 1.254 . S
C399 O384 1.257 . S
C400 O385 1.266 1_556 S
C400 O386 1.236 . S
C401 C404 1.344 . S
C401 C405 1.328 . S
C401 C407 1.516 . S
C402 C403 1.304 . S
C402 C406 1.323 . S
C403 C402 1.304 . S
C403 C404 1.371 . S
C403 H412 0.930 . S
C404 C401 1.344 . S
C404 C403 1.371 . S
C404 H413 0.931 . S
C405 C401 1.328 . S
C405 C406 1.433 . S
C405 H414 0.931 . S
C406 C402 1.323 . S
C406 C405 1.433 . S
C406 H415 0.933 . S
C407 Dy377 2.738 . S
C407 O387 1.255 . S
C407 O388 1.249 . S
C407 C401 1.516 . S
H408 C394 0.930 . S
H409 C395 0.931 . S
H410 C396 0.931 . S
H411 C397 0.933 . S
H412 C403 0.930 . S
H413 C404 0.931 . S
H414 C405 0.931 . S
H415 C406 0.933 . S
C416 C417 1.369 . S
C416 C418 1.419 . S
C416 H420 0.930 . S
C417 C416 1.369 . S
C417 C426 1.429 . S
C418 C416 1.419 . S
C418 C419 1.363 . S
C418 H421 0.929 . S
C419 C418 1.363 . S
C419 C425 1.428 . S
H420 C416 0.930 . S
H421 C418 0.929 . S
S422 N423 1.613 . S
S422 N424 1.610 . S
N423 S422 1.613 . S
N423 C426 1.350 . S
N424 S422 1.610 . S
N424 C425 1.351 . S
C425 C419 1.428 . S
C425 N424 1.351 . S
C425 C426 1.434 . S
C426 C417 1.429 . S
C426 N423 1.350 . S
C426 C425 1.434 . S
C427 C428 1.369 . S
C427 C429 1.419 . S
C427 H431 0.930 . S
C428 C427 1.369 . S
C428 C437 1.429 . S
C429 C427 1.419 . S
C429 C430 1.363 . S
C429 H432 0.929 . S
C430 C429 1.363 . S
C430 C436 1.428 . S
H431 C427 0.930 . S
H432 C429 0.929 . S
S433 N434 1.613 . S
S433 N435 1.610 . S
N434 S433 1.613 . S
N434 C437 1.350 . S
N435 S433 1.610 . S
N435 C436 1.351 . S
C436 C430 1.428 . S
C436 N435 1.351 . S
C436 C437 1.434 . S
C437 C428 1.429 . S
C437 N434 1.350 . S
C437 C436 1.434 . S
C438 C439 1.369 . S
C438 C440 1.419 . S
C438 H442 0.930 . S
C439 C438 1.369 . S
C439 C448 1.429 . S
C440 C438 1.419 . S
C440 C441 1.363 . S
C440 H443 0.929 . S
C441 C440 1.363 . S
C441 C447 1.428 . S
H442 C438 0.930 . S
H443 C440 0.929 . S
S444 N445 1.613 . S
S444 N446 1.610 . S
N445 S444 1.613 . S
N445 C448 1.350 . S
N446 S444 1.610 . S
N446 C447 1.351 . S
C447 C441 1.428 . S
C447 N446 1.351 . S
C447 C448 1.434 . S
C448 C439 1.429 . S
C448 N445 1.350 . S
C448 C447 1.434 . S
C449 C450 1.369 . S
C449 C451 1.419 . S
C449 H453 0.930 . S
C450 C449 1.369 . S
C450 C459 1.429 . S
C451 C449 1.419 . S
C451 C452 1.363 . S
C451 H454 0.929 . S
C452 C451 1.363 . S
C452 C458 1.428 . S
H453 C449 0.930 . S
H454 C451 0.929 . S
S455 N456 1.613 1_455 S
S455 N457 1.610 1_455 S
N456 S455 1.613 1_655 S
N456 C459 1.350 . S
N457 S455 1.610 1_655 S
N457 C458 1.351 . S
C458 C452 1.428 . S
C458 N457 1.351 . S
C458 C459 1.434 . S
C459 C450 1.429 . S
C459 N456 1.350 . S
C459 C458 1.434 . S
C460 C461 1.369 . S
C460 C462 1.419 . S
C460 H464 0.930 . S
C461 C460 1.369 . S
C461 C470 1.429 . S
C462 C460 1.419 . S
C462 C463 1.363 . S
C462 H465 0.929 . S
C463 C462 1.363 . S
C463 C469 1.428 . S
H464 C460 0.930 . S
H465 C462 0.929 . S
S466 N467 1.613 . S
S466 N468 1.610 . S
N467 S466 1.613 . S
N467 C470 1.350 . S
N468 S466 1.610 . S
N468 C469 1.351 . S
C469 C463 1.428 . S
C469 N468 1.351 . S
C469 C470 1.434 . S
C470 C461 1.429 . S
C470 N467 1.350 . S
C470 C469 1.434 . S
C471 C472 1.369 1_655 S
C471 C473 1.419 . S
C471 H475 0.930 . S
C472 C471 1.369 1_455 S
C472 C481 1.429 . S
C473 C471 1.419 . S
C473 C474 1.363 1_655 S
C473 H476 0.929 . S
C474 C473 1.363 1_455 S
C474 C480 1.428 . S
H475 C471 0.930 . S
H476 C473 0.929 . S
S477 N478 1.613 . S
S477 N479 1.610 . S
N478 S477 1.613 . S
N478 C481 1.350 . S
N479 S477 1.610 . S
N479 C480 1.351 . S
C480 C474 1.428 . S
C480 N479 1.351 . S
C480 C481 1.434 . S
C481 C472 1.429 . S
C481 N478 1.350 . S
C481 C480 1.434 . S
C482 C483 1.369 . S
C482 C484 1.419 . S
C482 H486 0.930 . S
C483 C482 1.369 . S
C483 C492 1.429 . S
C484 C482 1.419 . S
C484 C485 1.363 . S
C484 H487 0.929 . S
C485 C484 1.363 . S
C485 C491 1.428 . S
H486 C482 0.930 . S
H487 C484 0.929 . S
S488 N489 1.613 . S
S488 N490 1.610 . S
N489 S488 1.613 . S
N489 C492 1.350 . S
N490 S488 1.610 . S
N490 C491 1.351 . S
C491 C485 1.428 . S
C491 N490 1.351 . S
C491 C492 1.434 . S
C492 C483 1.429 . S
C492 N489 1.350 . S
C492 C491 1.434 . S
C493 C494 1.369 . S
C493 C495 1.419 . S
C493 H497 0.930 . S
C494 C493 1.369 . S
C494 C503 1.429 . S
C495 C493 1.419 . S
C495 C496 1.363 . S
C495 H498 0.929 . S
C496 C495 1.363 . S
C496 C502 1.428 . S
H497 C493 0.930 . S
H498 C495 0.929 . S
S499 N500 1.613 . S
S499 N501 1.610 . S
N500 S499 1.613 . S
N500 C503 1.350 . S
N501 S499 1.610 . S
N501 C502 1.351 . S
C502 C496 1.428 . S
C502 N501 1.351 . S
C502 C503 1.434 . S
C503 C494 1.429 . S
C503 N500 1.350 . S
C503 C502 1.434 . S
C504 C505 1.369 . S
C504 C506 1.419 . S
C504 H508 0.930 . S
C505 C504 1.369 . S
C505 C514 1.429 . S
C506 C504 1.419 . S
C506 C507 1.363 . S
C506 H509 0.929 . S
C507 C506 1.363 . S
C507 C513 1.428 . S
H508 C504 0.930 . S
H509 C506 0.929 . S
S510 N511 1.613 . S
S510 N512 1.610 . S
N511 S510 1.613 . S
N511 C514 1.350 . S
N512 S510 1.610 . S
N512 C513 1.351 . S
C513 C507 1.428 . S
C513 N512 1.351 . S
C513 C514 1.434 . S
C514 C505 1.429 . S
C514 N511 1.350 . S
C514 C513 1.434 . S
C515 C516 1.369 . S
C515 C517 1.419 . S
C515 H519 0.930 . S
C516 C515 1.369 . S
C516 C525 1.429 . S
C517 C515 1.419 . S
C517 C518 1.363 . S
C517 H520 0.929 . S
C518 C517 1.363 . S
C518 C524 1.428 . S
H519 C515 0.930 . S
H520 C517 0.929 . S
S521 N522 1.613 . S
S521 N523 1.610 . S
N522 S521 1.613 . S
N522 C525 1.350 . S
N523 S521 1.610 . S
N523 C524 1.351 . S
C524 C518 1.428 . S
C524 N523 1.351 . S
C524 C525 1.434 . S
C525 C516 1.429 . S
C525 N522 1.350 . S
C525 C524 1.434 . S
C526 C527 1.369 . S
C526 C528 1.419 . S
C526 H530 0.930 . S
C527 C526 1.369 . S
C527 C536 1.429 . S
C528 C526 1.419 . S
C528 C529 1.363 . S
C528 H531 0.929 . S
C529 C528 1.363 . S
C529 C535 1.428 . S
H530 C526 0.930 . S
H531 C528 0.929 . S
S532 N533 1.613 . S
S532 N534 1.610 . S
N533 S532 1.613 . S
N533 C536 1.350 . S
N534 S532 1.610 . S
N534 C535 1.351 . S
C535 C529 1.428 . S
C535 N534 1.351 . S
C535 C536 1.434 . S
C536 C527 1.429 . S
C536 N533 1.350 . S
C536 C535 1.434 . S
C537 C538 1.369 . S
C537 C539 1.419 . S
C537 H541 0.930 . S
C538 C537 1.369 . S
C538 C547 1.429 . S
C539 C537 1.419 . S
C539 C540 1.363 . S
C539 H542 0.929 . S
C540 C539 1.363 . S
C540 C546 1.428 . S
H541 C537 0.930 . S
H542 C539 0.929 . S
S543 N544 1.613 . S
S543 N545 1.610 . S
N544 S543 1.613 . S
N544 C547 1.350 . S
N545 S543 1.610 . S
N545 C546 1.351 . S
C546 C540 1.428 . S
C546 N545 1.351 . S
C546 C547 1.434 . S
C547 C538 1.429 . S
C547 N544 1.350 . S
C547 C546 1.434 . S
C548 C549 1.369 . S
C548 C550 1.419 . S
C548 H552 0.930 . S
C549 C548 1.369 . S
C549 C558 1.429 . S
C550 C548 1.419 . S
C550 C551 1.363 . S
C550 H553 0.929 . S
C551 C550 1.363 . S
C551 C557 1.428 . S
H552 C548 0.930 . S
H553 C550 0.929 . S
S554 N555 1.613 . S
S554 N556 1.610 . S
N555 S554 1.613 . S
N555 C558 1.350 . S
N556 S554 1.610 . S
N556 C557 1.351 . S
C557 C551 1.428 . S
C557 N556 1.351 . S
C557 C558 1.434 . S
C558 C549 1.429 . S
C558 N555 1.350 . S
C558 C557 1.434 . S
C559 C560 1.369 . S
C559 C561 1.419 . S
C559 H563 0.930 . S
C560 C559 1.369 . S
C560 C569 1.429 . S
C561 C559 1.419 . S
C561 C562 1.363 . S
C561 H564 0.929 . S
C562 C561 1.363 . S
C562 C568 1.428 . S
H563 C559 0.930 . S
H564 C561 0.929 . S
S565 N566 1.613 . S
S565 N567 1.610 . S
N566 S565 1.613 . S
N566 C569 1.350 . S
N567 S565 1.610 . S
N567 C568 1.351 . S
C568 C562 1.428 . S
C568 N567 1.351 . S
C568 C569 1.434 . S
C569 C560 1.429 . S
C569 N566 1.350 . S
C569 C568 1.434 . S
C570 C571 1.369 . S
C570 C572 1.419 . S
C570 H574 0.930 . S
C571 C570 1.369 . S
C571 C580 1.429 . S
C572 C570 1.419 . S
C572 C573 1.363 . S
C572 H575 0.929 . S
C573 C572 1.363 . S
C573 C579 1.428 . S
H574 C570 0.930 . S
H575 C572 0.929 . S
S576 N577 1.613 . S
S576 N578 1.610 . S
N577 S576 1.613 . S
N577 C580 1.350 . S
N578 S576 1.610 . S
N578 C579 1.351 . S
C579 C573 1.428 . S
C579 N578 1.351 . S
C579 C580 1.434 . S
C580 C571 1.429 . S
C580 N577 1.350 . S
C580 C579 1.434 . S
C581 C582 1.369 . S
C581 C583 1.419 . S
C581 H585 0.930 . S
C582 C581 1.369 . S
C582 C591 1.429 . S
C583 C581 1.419 . S
C583 C584 1.363 . S
C583 H586 0.929 . S
C584 C583 1.363 . S
C584 C590 1.428 . S
H585 C581 0.930 . S
H586 C583 0.929 . S
S587 N588 1.613 . S
S587 N589 1.610 . S
N588 S587 1.613 . S
N588 C591 1.350 . S
N589 S587 1.610 . S
N589 C590 1.351 . S
C590 C584 1.428 . S
C590 N589 1.351 . S
C590 C591 1.434 . S
C591 C582 1.429 . S
C591 N588 1.350 . S
C591 C590 1.434 . S
C592 C593 1.369 . S
C592 C594 1.419 . S
C592 H596 0.930 . S
C593 C592 1.369 . S
C593 C602 1.429 . S
C594 C592 1.419 . S
C594 C595 1.363 . S
C594 H597 0.929 . S
C595 C594 1.363 . S
C595 C601 1.428 . S
H596 C592 0.930 . S
H597 C594 0.929 . S
S598 N599 1.613 . S
S598 N600 1.610 . S
N599 S598 1.613 . S
N599 C602 1.350 . S
N600 S598 1.610 . S
N600 C601 1.351 . S
C601 C595 1.428 . S
C601 N600 1.351 . S
C601 C602 1.434 . S
C602 C593 1.429 . S
C602 N599 1.350 . S
C602 C601 1.434 . S
C603 C604 1.369 . S
C603 C605 1.419 . S
C603 H607 0.930 . S
C604 C603 1.369 . S
C604 C613 1.429 . S
C605 C603 1.419 . S
C605 C606 1.363 . S
C605 H608 0.929 . S
C606 C605 1.363 . S
C606 C612 1.428 . S
H607 C603 0.930 . S
H608 C605 0.929 . S
S609 N610 1.613 . S
S609 N611 1.610 . S
N610 S609 1.613 . S
N610 C613 1.350 . S
N611 S609 1.610 . S
N611 C612 1.351 . S
C612 C606 1.428 . S
C612 N611 1.351 . S
C612 C613 1.434 . S
C613 C604 1.429 . S
C613 N610 1.350 . S
C613 C612 1.434 . S
C614 C615 1.369 . S
C614 C616 1.419 . S
C614 H618 0.930 . S
C615 C614 1.369 . S
C615 C624 1.429 . S
C616 C614 1.419 . S
C616 C617 1.363 . S
C616 H619 0.929 . S
C617 C616 1.363 . S
C617 C623 1.428 . S
H618 C614 0.930 . S
H619 C616 0.929 . S
S620 N621 1.613 . S
S620 N622 1.610 . S
N621 S620 1.613 . S
N621 C624 1.350 . S
N622 S620 1.610 . S
N622 C623 1.351 . S
C623 C617 1.428 . S
C623 N622 1.351 . S
C623 C624 1.434 . S
C624 C615 1.429 . S
C624 N621 1.350 . S
C624 C623 1.434 . S
C625 C626 1.369 . S
C625 C627 1.419 . S
C625 H629 0.930 . S
C626 C625 1.369 . S
C626 C635 1.429 . S
C627 C625 1.419 . S
C627 C628 1.363 . S
C627 H630 0.929 . S
C628 C627 1.363 . S
C628 C634 1.428 . S
H629 C625 0.930 . S
H630 C627 0.929 . S
S631 N632 1.613 . S
S631 N633 1.610 . S
N632 S631 1.613 . S
N632 C635 1.350 . S
N633 S631 1.610 . S
N633 C634 1.351 . S
C634 C628 1.428 . S
C634 N633 1.351 . S
C634 C635 1.434 . S
C635 C626 1.429 . S
C635 N632 1.350 . S
C635 C634 1.434 . S
C636 C637 1.369 . S
C636 C638 1.419 . S
C636 H640 0.930 . S
C637 C636 1.369 . S
C637 C646 1.429 . S
C638 C636 1.419 . S
C638 C639 1.363 . S
C638 H641 0.929 . S
C639 C638 1.363 . S
C639 C645 1.428 . S
H640 C636 0.930 . S
H641 C638 0.929 . S
S642 N643 1.613 . S
S642 N644 1.610 . S
N643 S642 1.613 . S
N643 C646 1.350 . S
N644 S642 1.610 . S
N644 C645 1.351 . S
C645 C639 1.428 . S
C645 N644 1.351 . S
C645 C646 1.434 . S
C646 C637 1.429 . S
C646 N643 1.350 . S
C646 C645 1.434 . S
C647 C648 1.369 . S
C647 C649 1.419 . S
C647 H651 0.930 . S
C648 C647 1.369 . S
C648 C657 1.429 . S
C649 C647 1.419 . S
C649 C650 1.363 . S
C649 H652 0.929 . S
C650 C649 1.363 . S
C650 C656 1.428 . S
H651 C647 0.930 . S
H652 C649 0.929 . S
S653 N654 1.613 . S
S653 N655 1.610 . S
N654 S653 1.613 . S
N654 C657 1.350 . S
N655 S653 1.610 . S
N655 C656 1.351 . S
C656 C650 1.428 . S
C656 N655 1.351 . S
C656 C657 1.434 . S
C657 C648 1.429 . S
C657 N654 1.350 . S
C657 C656 1.434 . S
C658 C659 1.369 . S
C658 C660 1.419 . S
C658 H662 0.930 . S
C659 C658 1.369 . S
C659 C668 1.429 . S
C660 C658 1.419 . S
C660 C661 1.363 . S
C660 H663 0.929 . S
C661 C660 1.363 . S
C661 C667 1.428 . S
H662 C658 0.930 . S
H663 C660 0.929 . S
S664 N665 1.613 1_655 S
S664 N666 1.610 1_655 S
N665 S664 1.613 1_455 S
N665 C668 1.350 . S
N666 S664 1.610 1_455 S
N666 C667 1.351 . S
C667 C661 1.428 . S
C667 N666 1.351 . S
C667 C668 1.434 . S
C668 C659 1.429 . S
C668 N665 1.350 . S
C668 C667 1.434 . S
C669 C670 1.369 . S
C669 C671 1.419 . S
C669 H673 0.930 . S
C670 C669 1.369 . S
C670 C679 1.429 . S
C671 C669 1.419 . S
C671 C672 1.363 . S
C671 H674 0.929 . S
C672 C671 1.363 . S
C672 C678 1.428 . S
H673 C669 0.930 . S
H674 C671 0.929 . S
S675 N676 1.613 . S
S675 N677 1.610 . S
N676 S675 1.613 . S
N676 C679 1.350 . S
N677 S675 1.610 . S
N677 C678 1.351 . S
C678 C672 1.428 . S
C678 N677 1.351 . S
C678 C679 1.434 . S
C679 C670 1.429 . S
C679 N676 1.350 . S
C679 C678 1.434 . S
C417 C29 1.265 . S
C419 C273 1.259 . S
C428 C49 1.040 . S
C430 C313 1.228 . S
C441 C338 2.490 . S
C439 C93 2.497 . S
C450 C119 2.415 . S
C452 C378 2.401 . S
C463 C309 1.798 . S
C461 C17 1.764 . S
C474 C269 1.853 . S
C472 C61 1.531 . S
C485 C400 1.799 . S
C483 C81 1.794 . S
C496 C360 1.809 . S
C494 C125 1.825 . S
C505 C23 1.550 . S
C507 C402 1.502 . S
C518 C319 2.193 . S
C516 C87 2.184 . S
C527 C113 2.235 . S
C529 C279 2.226 . S
C538 C55 1.333 . S
C540 C362 1.538 . S
C551 C282 1.265 . S
C549 C157 1.077 . S
C560 C189 1.284 . S
C562 C322 1.271 . S
C571 C221 2.494 . S
C573 C359 2.455 . S
C582 C253 2.471 . S
C584 C399 2.478 . S
C593 C145 1.592 . S
C595 C320 1.879 . S
C606 C280 1.842 . S
C604 C183 1.816 . S
C617 C389 1.827 . S
C615 C209 1.808 . S
C628 C349 1.785 . S
C626 C247 1.791 . S
C637 C151 1.354 . S
C639 C393 1.527 . S
C650 C298 2.184 . S
C648 C215 2.211 . S
C661 C258 2.212 . S
C659 C241 2.196 . S
C670 C177 1.569 . S
C672 C353 1.536 . S
