# Generated by pormake.
# Topology bwt, (3,3)-cn, num edge types: 1
# Building blocks:
#     Node 0, Type 0, BuildingBlock: OLANEW_clean_sbu_2, # of connection points: 3
#     Node 1, Type 0, BuildingBlock: OLANEW_clean_sbu_2, # of connection points: 3
#     Node 2, Type 0, BuildingBlock: OLANEW_clean_sbu_2, # of connection points: 3
#     Node 3, Type 0, BuildingBlock: OLANEW_clean_sbu_2, # of connection points: 3
#     Node 4, Type 0, BuildingBlock: OLANEW_clean_sbu_2, # of connection points: 3
#     Node 5, Type 0, BuildingBlock: OLANEW_clean_sbu_2, # of connection points: 3
#     Node 6, Type 0, BuildingBlock: OLANEW_clean_sbu_2, # of connection points: 3
#     Node 7, Type 0, BuildingBlock: OLANEW_clean_sbu_2, # of connection points: 3
#     Node 8, Type 0, BuildingBlock: OLANEW_clean_sbu_2, # of connection points: 3
#     Node 9, Type 0, BuildingBlock: OLANEW_clean_sbu_2, # of connection points: 3
#     Node 10, Type 0, BuildingBlock: OLANEW_clean_sbu_2, # of connection points: 3
#     Node 11, Type 0, BuildingBlock: OLANEW_clean_sbu_2, # of connection points: 3
#     Node 12, Type 0, BuildingBlock: OLANEW_clean_sbu_2, # of connection points: 3
#     Node 13, Type 0, BuildingBlock: OLANEW_clean_sbu_2, # of connection points: 3
#     Node 14, Type 0, BuildingBlock: OLANEW_clean_sbu_2, # of connection points: 3
#     Node 15, Type 0, BuildingBlock: OLANEW_clean_sbu_2, # of connection points: 3
#     Node 16, Type 0, BuildingBlock: OLANEW_clean_sbu_2, # of connection points: 3
#     Node 17, Type 0, BuildingBlock: OLANEW_clean_sbu_2, # of connection points: 3
#     Node 18, Type 0, BuildingBlock: OLANEW_clean_sbu_2, # of connection points: 3
#     Node 19, Type 0, BuildingBlock: OLANEW_clean_sbu_2, # of connection points: 3
#     Node 20, Type 0, BuildingBlock: OLANEW_clean_sbu_2, # of connection points: 3
#     Node 21, Type 0, BuildingBlock: OLANEW_clean_sbu_2, # of connection points: 3
#     Node 22, Type 0, BuildingBlock: OLANEW_clean_sbu_2, # of connection points: 3
#     Node 23, Type 0, BuildingBlock: OLANEW_clean_sbu_2, # of connection points: 3
#     Node 24, Type 1, BuildingBlock: BELTOD_clean_linker_0, # of connection points: 3
#     Node 25, Type 1, BuildingBlock: BELTOD_clean_linker_0, # of connection points: 3
#     Node 26, Type 1, BuildingBlock: BELTOD_clean_linker_0, # of connection points: 3
#     Node 27, Type 1, BuildingBlock: BELTOD_clean_linker_0, # of connection points: 3
#     Node 28, Type 1, BuildingBlock: BELTOD_clean_linker_0, # of connection points: 3
#     Node 29, Type 1, BuildingBlock: BELTOD_clean_linker_0, # of connection points: 3
#     Node 30, Type 1, BuildingBlock: BELTOD_clean_linker_0, # of connection points: 3
#     Node 31, Type 1, BuildingBlock: BELTOD_clean_linker_0, # of connection points: 3
#     Node 32, Type 1, BuildingBlock: BELTOD_clean_linker_0, # of connection points: 3
#     Node 33, Type 1, BuildingBlock: BELTOD_clean_linker_0, # of connection points: 3
#     Node 34, Type 1, BuildingBlock: BELTOD_clean_linker_0, # of connection points: 3
#     Node 35, Type 1, BuildingBlock: BELTOD_clean_linker_0, # of connection points: 3
#     Node 36, Type 1, BuildingBlock: BELTOD_clean_linker_0, # of connection points: 3
#     Node 37, Type 1, BuildingBlock: BELTOD_clean_linker_0, # of connection points: 3
#     Node 38, Type 1, BuildingBlock: BELTOD_clean_linker_0, # of connection points: 3
#     Node 39, Type 1, BuildingBlock: BELTOD_clean_linker_0, # of connection points: 3
#     Node 40, Type 1, BuildingBlock: BELTOD_clean_linker_0, # of connection points: 3
#     Node 41, Type 1, BuildingBlock: BELTOD_clean_linker_0, # of connection points: 3
#     Node 42, Type 1, BuildingBlock: BELTOD_clean_linker_0, # of connection points: 3
#     Node 43, Type 1, BuildingBlock: BELTOD_clean_linker_0, # of connection points: 3
#     Node 44, Type 1, BuildingBlock: BELTOD_clean_linker_0, # of connection points: 3
#     Node 45, Type 1, BuildingBlock: BELTOD_clean_linker_0, # of connection points: 3
#     Node 46, Type 1, BuildingBlock: BELTOD_clean_linker_0, # of connection points: 3
#     Node 47, Type 1, BuildingBlock: BELTOD_clean_linker_0, # of connection points: 3
#     Edge 48, Type (0, 1), BuildingBlock: XIVTED_clean_linker_0, # of connection points: 2
#     Edge 49, Type (0, 1), BuildingBlock: XIVTED_clean_linker_0, # of connection points: 2
#     Edge 50, Type (0, 1), BuildingBlock: XIVTED_clean_linker_0, # of connection points: 2
#     Edge 51, Type (0, 1), BuildingBlock: XIVTED_clean_linker_0, # of connection points: 2
#     Edge 52, Type (0, 1), BuildingBlock: XIVTED_clean_linker_0, # of connection points: 2
#     Edge 53, Type (0, 1), BuildingBlock: XIVTED_clean_linker_0, # of connection points: 2
#     Edge 54, Type (0, 1), BuildingBlock: XIVTED_clean_linker_0, # of connection points: 2
#     Edge 55, Type (0, 1), BuildingBlock: XIVTED_clean_linker_0, # of connection points: 2
#     Edge 56, Type (0, 1), BuildingBlock: XIVTED_clean_linker_0, # of connection points: 2
#     Edge 57, Type (0, 1), BuildingBlock: XIVTED_clean_linker_0, # of connection points: 2
#     Edge 58, Type (0, 1), BuildingBlock: XIVTED_clean_linker_0, # of connection points: 2
#     Edge 59, Type (0, 1), BuildingBlock: XIVTED_clean_linker_0, # of connection points: 2
#     Edge 60, Type (0, 1), BuildingBlock: XIVTED_clean_linker_0, # of connection points: 2
#     Edge 61, Type (0, 1), BuildingBlock: XIVTED_clean_linker_0, # of connection points: 2
#     Edge 62, Type (0, 1), BuildingBlock: XIVTED_clean_linker_0, # of connection points: 2
#     Edge 63, Type (0, 1), BuildingBlock: XIVTED_clean_linker_0, # of connection points: 2
#     Edge 64, Type (0, 1), BuildingBlock: XIVTED_clean_linker_0, # of connection points: 2
#     Edge 65, Type (0, 1), BuildingBlock: XIVTED_clean_linker_0, # of connection points: 2
#     Edge 66, Type (0, 1), BuildingBlock: XIVTED_clean_linker_0, # of connection points: 2
#     Edge 67, Type (0, 1), BuildingBlock: XIVTED_clean_linker_0, # of connection points: 2
#     Edge 68, Type (0, 1), BuildingBlock: XIVTED_clean_linker_0, # of connection points: 2
#     Edge 69, Type (0, 1), BuildingBlock: XIVTED_clean_linker_0, # of connection points: 2
#     Edge 70, Type (0, 1), BuildingBlock: XIVTED_clean_linker_0, # of connection points: 2
#     Edge 71, Type (0, 1), BuildingBlock: XIVTED_clean_linker_0, # of connection points: 2
#     Edge 72, Type (0, 1), BuildingBlock: XIVTED_clean_linker_0, # of connection points: 2
#     Edge 73, Type (0, 1), BuildingBlock: XIVTED_clean_linker_0, # of connection points: 2
#     Edge 74, Type (0, 1), BuildingBlock: XIVTED_clean_linker_0, # of connection points: 2
#     Edge 75, Type (0, 1), BuildingBlock: XIVTED_clean_linker_0, # of connection points: 2
#     Edge 76, Type (0, 1), BuildingBlock: XIVTED_clean_linker_0, # of connection points: 2
#     Edge 77, Type (0, 1), BuildingBlock: XIVTED_clean_linker_0, # of connection points: 2
#     Edge 78, Type (0, 1), BuildingBlock: XIVTED_clean_linker_0, # of connection points: 2
#     Edge 79, Type (0, 1), BuildingBlock: XIVTED_clean_linker_0, # of connection points: 2
#     Edge 80, Type (0, 1), BuildingBlock: XIVTED_clean_linker_0, # of connection points: 2
#     Edge 81, Type (0, 1), BuildingBlock: XIVTED_clean_linker_0, # of connection points: 2
#     Edge 82, Type (0, 1), BuildingBlock: XIVTED_clean_linker_0, # of connection points: 2
#     Edge 83, Type (0, 1), BuildingBlock: XIVTED_clean_linker_0, # of connection points: 2
#     Edge 84, Type (0, 1), BuildingBlock: XIVTED_clean_linker_0, # of connection points: 2
#     Edge 85, Type (0, 1), BuildingBlock: XIVTED_clean_linker_0, # of connection points: 2
#     Edge 86, Type (0, 1), BuildingBlock: XIVTED_clean_linker_0, # of connection points: 2
#     Edge 87, Type (0, 1), BuildingBlock: XIVTED_clean_linker_0, # of connection points: 2
#     Edge 88, Type (0, 1), BuildingBlock: XIVTED_clean_linker_0, # of connection points: 2
#     Edge 89, Type (0, 1), BuildingBlock: XIVTED_clean_linker_0, # of connection points: 2
#     Edge 90, Type (0, 1), BuildingBlock: XIVTED_clean_linker_0, # of connection points: 2
#     Edge 91, Type (0, 1), BuildingBlock: XIVTED_clean_linker_0, # of connection points: 2
#     Edge 92, Type (0, 1), BuildingBlock: XIVTED_clean_linker_0, # of connection points: 2
#     Edge 93, Type (0, 1), BuildingBlock: XIVTED_clean_linker_0, # of connection points: 2
#     Edge 94, Type (0, 1), BuildingBlock: XIVTED_clean_linker_0, # of connection points: 2
#     Edge 95, Type (0, 1), BuildingBlock: XIVTED_clean_linker_0, # of connection points: 2
#     Edge 96, Type (0, 1), BuildingBlock: XIVTED_clean_linker_0, # of connection points: 2
#     Edge 97, Type (0, 1), BuildingBlock: XIVTED_clean_linker_0, # of connection points: 2
#     Edge 98, Type (0, 1), BuildingBlock: XIVTED_clean_linker_0, # of connection points: 2
#     Edge 99, Type (0, 1), BuildingBlock: XIVTED_clean_linker_0, # of connection points: 2
#     Edge 100, Type (0, 1), BuildingBlock: XIVTED_clean_linker_0, # of connection points: 2
#     Edge 101, Type (0, 1), BuildingBlock: XIVTED_clean_linker_0, # of connection points: 2
#     Edge 102, Type (0, 1), BuildingBlock: XIVTED_clean_linker_0, # of connection points: 2
#     Edge 103, Type (0, 1), BuildingBlock: XIVTED_clean_linker_0, # of connection points: 2
#     Edge 104, Type (0, 1), BuildingBlock: XIVTED_clean_linker_0, # of connection points: 2
#     Edge 105, Type (0, 1), BuildingBlock: XIVTED_clean_linker_0, # of connection points: 2
#     Edge 106, Type (0, 1), BuildingBlock: XIVTED_clean_linker_0, # of connection points: 2
#     Edge 107, Type (0, 1), BuildingBlock: XIVTED_clean_linker_0, # of connection points: 2
#     Edge 108, Type (0, 1), BuildingBlock: XIVTED_clean_linker_0, # of connection points: 2
#     Edge 109, Type (0, 1), BuildingBlock: XIVTED_clean_linker_0, # of connection points: 2
#     Edge 110, Type (0, 1), BuildingBlock: XIVTED_clean_linker_0, # of connection points: 2
#     Edge 111, Type (0, 1), BuildingBlock: XIVTED_clean_linker_0, # of connection points: 2
#     Edge 112, Type (0, 1), BuildingBlock: XIVTED_clean_linker_0, # of connection points: 2
#     Edge 113, Type (0, 1), BuildingBlock: XIVTED_clean_linker_0, # of connection points: 2
#     Edge 114, Type (0, 1), BuildingBlock: XIVTED_clean_linker_0, # of connection points: 2
#     Edge 115, Type (0, 1), BuildingBlock: XIVTED_clean_linker_0, # of connection points: 2
#     Edge 116, Type (0, 1), BuildingBlock: XIVTED_clean_linker_0, # of connection points: 2
#     Edge 117, Type (0, 1), BuildingBlock: XIVTED_clean_linker_0, # of connection points: 2
#     Edge 118, Type (0, 1), BuildingBlock: XIVTED_clean_linker_0, # of connection points: 2
#     Edge 119, Type (0, 1), BuildingBlock: XIVTED_clean_linker_0, # of connection points: 2
# Relax obj value: 0.133
# Max RMSD: 0.134
# Mean RMSD: 0.085
data_MOF--net-bwt--node1-OLANEW_clean_sbu_2--node2-BELTOD_clean_linker_0--edge1-XIVTED_clean_linker_0
_symmetry_space_group_name_H-M    P1
_symmetry_Int_Tables_number       1
_symmetry_cell_setting            triclinic
loop_
_symmetry_equiv_pos_as_xyz
'x, y, z'
_cell_length_a     67.391108
_cell_length_b     67.250215
_cell_length_c     67.274165
_cell_angle_alpha  93.286534
_cell_angle_beta   93.392705
_cell_angle_gamma 93.353689
loop_
_atom_site_label
_atom_site_type_symbol
_atom_site_fract_x
_atom_site_fract_y
_atom_site_fract_z
_atom_type_partial_charge
O0 O 0.2556 0.63952 0.33484 0.0
Cd1 Cd 0.23883 0.65422 0.30652 0.0
O2 O 0.28248 0.63641 0.31833 0.0
Cd3 Cd 0.31209 0.62534 0.31544 0.0
O4 O 0.34035 0.61238 0.32249 0.0
C5 C 0.35012 0.60374 0.3093 0.0
O6 O 0.34328 0.60285 0.29056 0.0
C7 C 0.27331 0.63415 0.33412 0.0
C8 C 0.20018 0.63709 0.29985 0.0
O9 O 0.21464 0.62988 0.29085 0.0
O10 O 0.20397 0.6526 0.31175 0.0
O11 O 0.20409 0.40094 0.69163 0.0
Cd12 Cd 0.20003 0.38699 0.657 0.0
O13 O 0.20352 0.37117 0.7035 0.0
Cd14 Cd 0.18631 0.35902 0.67662 0.0
O15 O 0.15435 0.36054 0.66983 0.0
C16 C 0.14809 0.37782 0.66773 0.0
O17 O 0.16118 0.39307 0.66761 0.0
C18 C 0.20662 0.38999 0.70626 0.0
C19 C 0.2377 0.38696 0.64193 0.0
O20 O 0.22663 0.40161 0.63952 0.0
O21 O 0.23067 0.37203 0.65088 0.0
O22 O 0.76133 0.98369 0.68633 0.0
Cd23 Cd 0.76408 0.98424 0.72274 0.0
O24 O 0.77073 0.95305 0.68251 0.0
Cd25 Cd 0.78703 0.95682 0.71161 0.0
O26 O 0.81703 0.96963 0.72042 0.0
C27 C 0.81992 0.98843 0.72349 0.0
O28 O 0.80447 -0.00053 0.72344 0.0
C29 C 0.76334 0.96816 0.67512 0.0
C30 C 0.72717 0.99444 0.73545 0.0
O31 O 0.74138 0.00778 0.73429 0.0
O32 O 0.73068 0.97618 0.73135 0.0
O33 O 0.7526 0.03084 0.30624 0.0
Cd34 Cd 0.76899 0.03377 0.33975 0.0
O35 O 0.72417 0.01894 0.31649 0.0
Cd36 Cd 0.69398 0.00521 0.31054 0.0
O37 O 0.6647 0.99261 0.29889 0.0
C38 C 0.66269 0.98526 0.281 0.0
O39 O 0.67835 0.98517 0.27026 0.0
C40 C 0.73464 0.02431 0.30237 0.0
C41 C 0.8076 0.02139 0.33754 0.0
O42 O 0.79329 0.0092 0.34163 0.0
O43 O 0.80372 0.03953 0.33496 0.0
O44 O 0.34438 0.29395 0.58795 0.0
Cd45 Cd 0.31245 0.28974 0.60311 0.0
O46 O 0.33297 0.31321 0.56509 0.0
Cd47 Cd 0.30722 0.32215 0.58081 0.0
O48 O 0.30556 0.35429 0.5866 0.0
C49 C 0.29397 0.36437 0.57615 0.0
O50 O 0.28069 0.35493 0.56335 0.0
C51 C 0.34678 0.3031 0.57217 0.0
C52 C 0.30071 0.24913 0.59905 0.0
O53 O 0.29536 0.26099 0.58576 0.0
O54 O 0.31107 0.25659 0.61457 0.0
O55 O 0.32354 0.74982 0.02634 0.0
Cd56 Cd 0.35752 0.76343 0.02311 0.0
O57 O 0.33118 0.71907 0.01906 0.0
Cd58 Cd 0.32267 0.68781 0.01021 0.0
O59 O 0.30925 0.65857 -0.0006 0.0
C60 C 0.29163 0.65747 0.9914 0.0
O61 O 0.28217 0.67391 0.98992 0.0
C62 C 0.31824 0.73141 0.0233 0.0
C63 C 0.35505 0.80065 0.00736 0.0
O64 O 0.35523 0.78476 -0.00407 0.0
O65 O 0.35674 0.799 0.02626 0.0
O66 O 0.70286 0.20856 0.38351 0.0
Cd67 Cd 0.66738 0.2115 0.37521 0.0
O68 O 0.70521 0.18207 0.36327 0.0
Cd69 Cd 0.67306 0.17615 0.35876 0.0
O70 O 0.65993 0.1499 0.37166 0.0
C71 C 0.66188 0.15004 0.39057 0.0
O72 O 0.66869 0.16665 0.40058 0.0
C73 C 0.71341 0.19566 0.37546 0.0
C74 C 0.65959 0.25154 0.38128 0.0
O75 O 0.65764 0.23944 0.39518 0.0
O76 O 0.6646 0.24454 0.36431 0.0
O77 O 0.64998 0.76401 0.98455 0.0
Cd78 Cd 0.68636 0.76739 0.98532 0.0
O79 O 0.64627 0.7774 0.95563 0.0
Cd80 Cd 0.67663 0.7909 0.95849 0.0
O81 O 0.69001 0.82007 0.96954 0.0
C82 C 0.69754 0.82309 0.98731 0.0
O83 O 0.69929 0.80782 -0.00151 0.0
C84 C 0.63875 0.76845 0.96981 0.0
C85 C 0.7013 0.73162 -0.00353 0.0
O86 O 0.69926 0.74593 0.00947 0.0
O87 O 0.69673 0.73441 0.97812 0.0
O88 O 0.56598 0.30637 0.28507 0.0
Cd89 Cd 0.57633 0.27315 0.27527 0.0
O90 O 0.59403 0.32087 0.27658 0.0
Cd91 Cd 0.60871 0.29331 0.28124 0.0
O92 O 0.615 0.28799 0.31261 0.0
C93 C 0.60558 0.27477 0.32174 0.0
O94 O 0.59317 0.26166 0.3115 0.0
C95 C 0.57635 0.32218 0.28194 0.0
C96 C 0.57303 0.26792 0.23377 0.0
O97 O 0.55859 0.26251 0.24424 0.0
O98 O 0.58919 0.2754 0.24297 0.0
O99 O 0.02534 0.30585 0.74217 0.0
Cd100 Cd 0.02325 0.3399 0.75637 0.0
O101 O 0.00961 0.31255 0.71411 0.0
Cd102 Cd -0.00577 0.30477 0.68486 0.0
O103 O 0.98346 0.29273 0.65509 0.0
C104 C 0.97379 0.27586 0.65293 0.0
O105 O 0.97011 0.26612 0.66882 0.0
C106 C 0.01798 0.30007 0.72484 0.0
C107 C 0.00906 0.33792 0.79437 0.0
O108 O -0.00293 0.33874 0.77896 0.0
O109 O 0.02778 0.33855 0.79186 0.0
O110 O 0.41348 0.68887 0.20228 0.0
Cd111 Cd 0.40198 0.65355 0.19884 0.0
O112 O 0.38361 0.6981 0.20855 0.0
Cd113 Cd 0.37041 0.67029 0.19389 0.0
O114 O 0.3675 0.66413 0.16164 0.0
C115 C 0.35481 0.67387 0.15219 0.0
O116 O 0.34281 0.68461 0.16243 0.0
C117 C 0.40218 0.7024 0.20776 0.0
C118 C 0.40034 0.64037 0.23728 0.0
O119 O 0.4158 0.6382 0.22735 0.0
O120 O 0.38538 0.6481 0.22875 0.0
O121 O 0.97137 0.65967 0.75853 0.0
Cd122 Cd 0.9752 0.6961 0.76228 0.0
O123 O 0.94859 0.65678 0.78044 0.0
Cd124 Cd 0.95634 0.68688 0.79351 0.0
O125 O 0.97543 0.70067 0.8185 0.0
C126 C 0.9939 0.69793 0.81797 0.0
O127 O 0.00025 0.68891 0.80191 0.0
C128 C 0.95869 0.64889 0.76704 0.0
C129 C 0.98607 0.71002 0.72595 0.0
O130 O -0.00074 0.70725 0.73988 0.0
O131 O 0.96771 0.70674 0.72941 0.0
O132 O 0.72488 0.34272 0.63775 0.0
Cd133 Cd 0.73245 0.32564 0.66808 0.0
O134 O 0.70051 0.3573 0.65164 0.0
Cd135 Cd 0.67458 0.37528 0.65231 0.0
O136 O 0.64665 0.38915 0.65677 0.0
C137 C 0.63467 0.39267 0.64228 0.0
O138 O 0.63951 0.38855 0.62393 0.0
C139 C 0.71099 0.35467 0.63671 0.0
C140 C 0.77009 0.33917 0.68449 0.0
O141 O 0.76789 0.32426 0.67164 0.0
O142 O 0.75444 0.34748 0.6898 0.0
O143 O 0.73537 0.64953 0.28435 0.0
Cd144 Cd 0.73761 0.6638 0.31872 0.0
O145 O 0.76117 0.63228 0.29142 0.0
Cd146 Cd 0.7847 0.61227 0.28484 0.0
O147 O 0.81049 0.59447 0.28151 0.0
C148 C 0.82586 0.60193 0.27394 0.0
O149 O 0.82566 0.62012 0.2678 0.0
C150 C 0.74739 0.63668 0.27898 0.0
C151 C 0.70774 0.64482 0.33899 0.0
O152 O 0.70475 0.66103 0.33045 0.0
O153 O 0.72504 0.63793 0.33843 0.0
O154 O 0.28042 0.06175 0.31073 0.0
Cd155 Cd 0.28211 0.06299 0.27467 0.0
O156 O 0.25508 0.03972 0.30592 0.0
Cd157 Cd 0.22972 0.02151 0.31519 0.0
O158 O 0.19912 0.009 0.3158 0.0
C159 C 0.18573 0.01943 0.30841 0.0
O160 O 0.19109 0.03675 0.30161 0.0
C161 C 0.26734 0.05027 0.31783 0.0
C162 C 0.31151 0.03922 0.26079 0.0
O163 O 0.31553 0.05763 0.2664 0.0
O164 O 0.29354 0.0321 0.26163 0.0
O165 O 0.23487 0.97055 0.71416 0.0
Cd166 Cd 0.22092 0.9691 0.67975 0.0
O167 O 0.25818 0.99323 0.70814 0.0
Cd168 Cd 0.2856 0.01143 0.717 0.0
O169 O 0.31619 0.0238 0.72328 0.0
C170 C 0.32976 0.01163 0.72553 0.0
O171 O 0.32476 0.9924 0.7244 0.0
C172 C 0.2498 0.98215 0.72028 0.0
C173 C 0.18571 0.98888 0.67709 0.0
O174 O 0.18561 0.97052 0.68127 0.0
O175 O 0.20245 -0.00213 0.67404 0.0
O176 O 0.63642 0.7405 0.35208 0.0
Cd177 Cd 0.66719 0.74929 0.33634 0.0
O178 O 0.65036 0.71594 0.36641 0.0
Cd179 Cd 0.65082 0.68922 0.38346 0.0
O180 O 0.65496 0.6617 0.39842 0.0
C181 C 0.64063 0.64907 0.40072 0.0
O182 O 0.62254 0.6527 0.39412 0.0
C183 C 0.63527 0.72615 0.36352 0.0
C184 C 0.68395 0.78573 0.35307 0.0
O185 O 0.67111 0.78494 0.33817 0.0
O186 O 0.68909 0.76925 0.35989 0.0
O187 O 0.70973 0.23831 0.97526 0.0
Cd188 Cd 0.67454 0.22929 0.97875 0.0
O189 O 0.7085 0.26538 0.99481 0.0
Cd190 Cd 0.72019 0.29401 0.00927 0.0
O191 O 0.72671 0.32463 0.02155 0.0
C192 C 0.72725 0.33863 0.00966 0.0
O193 O 0.72445 0.33415 0.99039 0.0
C194 C 0.71845 0.25389 0.98412 0.0
C195 C 0.67041 0.19408 -0.00154 0.0
O196 O 0.67148 0.19372 0.97949 0.0
O197 O 0.67106 0.21112 0.00811 0.0
O198 O 0.26948 0.75435 0.6487 0.0
Cd199 Cd 0.30372 0.75646 0.66316 0.0
O200 O 0.27364 0.78349 0.63601 0.0
Cd201 Cd 0.26471 0.80958 0.62046 0.0
O202 O 0.26181 0.83891 0.60854 0.0
C203 C 0.26787 0.85412 0.61983 0.0
O204 O 0.27505 0.85148 0.63801 0.0
C205 C 0.26264 0.76786 0.63825 0.0
C206 C 0.32375 0.72596 0.6449 0.0
O207 O 0.31471 0.7232 0.66085 0.0
O208 O 0.32377 0.7433 0.63793 0.0
O209 O 0.30269 0.28207 0.06427 0.0
Cd210 Cd 0.26682 0.28275 0.06743 0.0
O211 O 0.29892 0.25294 0.04773 0.0
Cd212 Cd 0.30868 0.22556 0.03317 0.0
O213 O 0.3126 0.19562 0.02022 0.0
C214 C 0.31059 0.18093 0.03116 0.0
O215 O 0.30678 0.18436 0.04994 0.0
C216 C 0.31028 0.26765 0.05504 0.0
C217 C 0.2515 0.31208 0.04434 0.0
O218 O 0.25826 0.31622 0.06241 0.0
O219 O 0.25174 0.29399 0.03728 0.0
O220 O 0.34489 0.63945 0.73779 0.0
Cd221 Cd 0.32878 0.67079 0.74258 0.0
O222 O 0.35557 0.64928 0.70964 0.0
Cd223 Cd 0.36978 0.64634 0.68133 0.0
O224 O 0.38358 0.64814 0.65295 0.0
C225 C 0.38569 0.6329 0.64138 0.0
O226 O 0.37941 0.61519 0.64657 0.0
C227 C 0.3548 0.63622 0.72256 0.0
C228 C 0.34113 0.68896 0.77985 0.0
O229 O 0.32538 0.67723 0.77755 0.0
O230 O 0.35085 0.69233 0.76445 0.0
O231 O 0.97484 0.70941 0.22364 0.0
Cd232 Cd 0.97881 0.67421 0.21473 0.0
O233 O 0.98587 0.70565 0.25437 0.0
Cd234 Cd 0.99418 0.71348 0.28597 0.0
O235 O 0.00599 0.71675 0.31703 0.0
C236 C -0.00066 0.7288 0.3299 0.0
O237 O 0.98484 0.73996 0.32448 0.0
C238 C 0.97959 0.71696 0.24115 0.0
C239 C -0.00061 0.67038 0.18007 0.0
O240 O 0.98031 0.66983 0.17923 0.0
O241 O 0.00869 0.67251 0.19731 0.0
O242 O 0.64788 0.27774 0.74194 0.0
Cd243 Cd 0.66286 0.31179 0.74245 0.0
O244 O 0.63344 0.28393 0.7698 0.0
Cd245 Cd 0.61609 0.27611 0.79505 0.0
O246 O 0.60143 0.27132 0.82264 0.0
C247 C 0.61206 0.27208 0.83894 0.0
O248 O 0.63145 0.27536 0.83853 0.0
C249 C 0.63649 0.27195 0.75513 0.0
C250 C 0.64987 0.32824 0.70724 0.0
O251 O 0.66607 0.31916 0.7083 0.0
O252 O 0.64018 0.33006 0.72301 0.0
O253 O 0.06875 0.30378 0.27359 0.0
Cd254 Cd 0.07121 0.26771 0.27291 0.0
O255 O 0.05213 0.30024 0.24454 0.0
Cd256 Cd 0.03684 0.30918 0.21715 0.0
O257 O 0.02386 0.30878 0.18657 0.0
C258 C 0.02853 0.29463 0.17476 0.0
O259 O 0.04072 0.28167 0.18153 0.0
C260 C 0.0593 0.31151 0.25937 0.0
C261 C 0.04748 0.25219 0.30156 0.0
O262 O 0.06608 0.25672 0.3056 0.0
O263 O 0.04023 0.25465 0.28389 0.0
P264 P 0.36646 0.55669 0.5129 0.0
H265 H 0.37048 0.56167 0.55643 0.0
H266 H 0.36762 0.59027 0.5799 0.0
H267 H 0.3561 0.62718 0.5304 0.0
H268 H 0.35985 0.59882 0.5072 0.0
H269 H 0.37934 0.51604 0.51446 0.0
H270 H 0.36506 0.486 0.52828 0.0
H271 H 0.31491 0.51829 0.54637 0.0
H272 H 0.32939 0.54841 0.53259 0.0
H273 H 0.38044 0.55907 0.47258 0.0
H274 H 0.32535 0.56466 0.5013 0.0
O275 O 0.39058 0.55388 0.51 0.0
H276 H 0.36448 0.56876 0.44137 0.0
H277 H 0.30937 0.57477 0.4703 0.0
C278 C 0.36468 0.57793 0.5301 0.0
C279 C 0.36729 0.57593 0.55068 0.0
C280 C 0.36556 0.59232 0.56408 0.0
C281 C 0.36132 0.61105 0.55711 0.0
C282 C 0.35946 0.61308 0.53639 0.0
C283 C 0.36133 0.59673 0.52304 0.0
C284 C 0.35551 0.53449 0.52265 0.0
C285 C 0.36531 0.5167 0.52144 0.0
C286 C 0.35717 0.49955 0.52943 0.0
C287 C 0.33894 0.49983 0.53857 0.0
C288 C 0.32892 0.51759 0.53935 0.0
C289 C 0.33719 0.53481 0.53149 0.0
C290 C 0.35405 0.56107 0.48924 0.0
C291 C 0.36484 0.56215 0.47212 0.0
C292 C 0.35573 0.56787 0.45431 0.0
C293 C 0.33567 0.5727 0.45334 0.0
C294 C 0.32475 0.57092 0.47041 0.0
C295 C 0.33388 0.56515 0.48819 0.0
P296 P 0.19446 0.46646 0.91092 0.0
H297 H 0.17081 0.43299 0.92525 0.0
H298 H 0.17879 0.40719 0.94813 0.0
H299 H 0.23909 0.43302 0.95717 0.0
H300 H 0.23104 0.45872 0.93431 0.0
H301 H 0.18052 0.49963 0.93502 0.0
H302 H 0.1965 0.53147 0.94854 0.0
H303 H 0.25063 0.51713 0.92096 0.0
H304 H 0.23459 0.48512 0.90777 0.0
H305 H 0.1975 0.42711 0.89087 0.0
H306 H 0.20628 0.48862 0.87674 0.0
O307 O 0.16987 0.46846 0.90907 0.0
H308 H 0.20422 0.41634 0.85695 0.0
H309 H 0.21407 0.47798 0.84295 0.0
C310 C 0.20021 0.44803 0.92842 0.0
C311 C 0.18569 0.43321 0.93231 0.0
C312 C 0.1903 0.41839 0.94526 0.0
C313 C 0.20953 0.41816 0.95454 0.0
C314 C 0.22406 0.43301 0.95051 0.0
C315 C 0.21947 0.44771 0.93742 0.0
C316 C 0.20623 0.49023 0.92003 0.0
C317 C 0.19577 0.50342 0.93172 0.0
C318 C 0.20491 0.52165 0.93941 0.0
C319 C 0.2248 0.52692 0.93571 0.0
C320 C 0.23534 0.51349 0.92419 0.0
C321 C 0.22613 0.49527 0.91648 0.0
C322 C 0.20192 0.45868 0.88655 0.0
C323 C 0.20141 0.43833 0.88062 0.0
C324 C 0.20537 0.43217 0.86115 0.0
C325 C 0.20988 0.44625 0.84713 0.0
C326 C 0.21051 0.46668 0.85323 0.0
C327 C 0.20631 0.47281 0.87267 0.0
P328 P 0.74989 0.97694 0.45863 0.0
H329 H 0.73448 0.96742 0.41753 0.0
H330 H 0.72487 0.93599 0.39849 0.0
H331 H 0.73983 0.90371 0.45055 0.0
H332 H 0.75016 0.93512 0.46915 0.0
H333 H 0.75737 0.01982 0.45741 0.0
H334 H 0.73596 0.04673 0.44941 0.0
H335 H 0.68556 0.00391 0.43892 0.0
H336 H 0.70711 0.977 0.44719 0.0
H337 H 0.77687 0.99368 0.49161 0.0
H338 H 0.72155 0.95768 0.48402 0.0
O339 O 0.773 0.98335 0.45271 0.0
H340 H 0.77615 0.99249 0.52782 0.0
H341 H 0.72092 0.95615 0.52034 0.0
C342 C 0.74224 0.95367 0.44499 0.0
C343 C 0.73549 0.95357 0.42488 0.0
C344 C 0.72997 0.93557 0.41402 0.0
C345 C 0.73131 0.91728 0.42304 0.0
C346 C 0.73865 0.91747 0.44307 0.0
C347 C 0.74429 0.93549 0.45386 0.0
C348 C 0.73394 -0.0036 0.45224 0.0
C349 C 0.74174 0.01621 0.45328 0.0
C350 C 0.72945 0.03158 0.44891 0.0
C351 C 0.7091 0.02739 0.44348 0.0
C352 C 0.70123 0.00752 0.44282 0.0
C353 C 0.71353 0.99216 0.44745 0.0
C354 C 0.7496 0.97523 0.48517 0.0
C355 C 0.76469 0.98532 0.49774 0.0
C356 C 0.76418 0.98477 0.51841 0.0
C357 C 0.74855 0.97411 0.52684 0.0
C358 C 0.73328 0.96422 0.5142 0.0
C359 C 0.73366 0.96505 0.4935 0.0
P360 P 0.65253 0.00467 0.09496 0.0
H361 H 0.62649 0.03754 0.09069 0.0
H362 H 0.63043 0.06963 0.07556 0.0
H363 H 0.69031 0.0568 0.06168 0.0
H364 H 0.68628 0.02472 0.07689 0.0
H365 H 0.66836 0.96707 0.10619 0.0
H366 H 0.68117 0.93939 0.08691 0.0
H367 H 0.67519 0.97225 0.03365 0.0
H368 H 0.66118 -0.00081 0.05284 0.0
H369 H 0.63497 -0.00386 0.1326 0.0
H370 H 0.69182 0.01767 0.11342 0.0
O371 O 0.62822 -0.00192 0.09413 0.0
H372 H 0.64835 -0.00102 0.16722 0.0
H373 H 0.7052 0.02117 0.14808 0.0
C374 C 0.65589 0.02854 0.08441 0.0
C375 C 0.64045 0.04162 0.08437 0.0
C376 C 0.64277 0.06001 0.07585 0.0
C377 C 0.66061 0.06563 0.06726 0.0
C378 C 0.67628 0.05271 0.06788 0.0
C379 C 0.674 0.03441 0.07659 0.0
C380 C 0.66433 0.98545 0.08109 0.0
C381 C 0.67008 0.96841 0.09041 0.0
C382 C 0.67753 0.9526 0.07934 0.0
C383 C 0.67938 0.95352 0.05865 0.0
C384 C 0.67381 0.97082 0.04946 0.0
C385 C 0.66605 0.98645 0.06051 0.0
C386 C 0.66236 0.00689 0.12048 0.0
C387 C 0.6503 0.00163 0.13585 0.0
C388 C 0.65796 0.00337 0.15568 0.0
C389 C 0.67784 0.01041 0.16048 0.0
C390 C 0.6899 0.0155 0.14493 0.0
C391 C 0.68223 0.01369 0.12511 0.0
P392 P 0.54819 0.34578 0.51273 0.0
H393 H 0.58537 0.36703 0.5285 0.0
H394 H 0.60436 0.36753 0.56083 0.0
H395 H 0.56138 0.3241 0.58077 0.0
H396 H 0.54274 0.32339 0.54861 0.0
H397 H 0.52964 0.32588 0.47606 0.0
H398 H 0.54301 0.30794 0.44784 0.0
H399 H 0.60183 0.31488 0.4775 0.0
H400 H 0.5883 0.33265 0.50593 0.0
H401 H 0.51368 0.36868 0.52058 0.0
H402 H 0.5265 0.30671 0.51318 0.0
O403 O 0.54945 0.36909 0.50545 0.0
H404 H 0.47928 0.35891 0.52707 0.0
H405 H 0.49202 0.29679 0.51961 0.0
C406 C 0.56249 0.3454 0.53619 0.0
C407 C 0.58009 0.35759 0.53983 0.0
C408 C 0.59094 0.35783 0.55824 0.0
C409 C 0.58418 0.34602 0.57334 0.0
C410 C 0.56672 0.3336 0.56951 0.0
C411 C 0.55608 0.33316 0.55104 0.0
C412 C 0.55784 0.33017 0.49338 0.0
C413 C 0.54531 0.32306 0.47681 0.0
C414 C 0.55298 0.31279 0.46065 0.0
C415 C 0.57345 0.30985 0.46054 0.0
C416 C 0.58599 0.31689 0.47721 0.0
C417 C 0.57823 0.32698 0.49351 0.0
C418 C 0.52251 0.33842 0.51605 0.0
C419 C 0.50901 0.35296 0.52006 0.0
C420 C 0.48934 0.34736 0.52373 0.0
C421 C 0.48292 0.32708 0.52373 0.0
C422 C 0.49655 0.31252 0.51977 0.0
C423 C 0.51619 0.31817 0.51594 0.0
P424 P 0.10825 0.66021 -0.0023 0.0
H425 H 0.07739 0.63376 0.01259 0.0
H426 H 0.05862 0.6354 0.04257 0.0
H427 H 0.08948 0.69214 0.06118 0.0
H428 H 0.10824 0.69036 0.03124 0.0
H429 H 0.12326 0.67984 0.96333 0.0
H430 H 0.1066 0.69348 0.93448 0.0
H431 H 0.04956 0.67969 0.95835 0.0
H432 H 0.06641 0.66697 0.98758 0.0
H433 H 0.14543 0.64084 0.00525 0.0
H434 H 0.12684 0.70091 0.0023 0.0
O435 O 0.10853 0.63625 0.98979 0.0
H436 H 0.17998 0.6536 0.01122 0.0
H437 H 0.16131 0.71395 0.00923 0.0
C438 C 0.09455 0.6617 0.01988 0.0
C439 C 0.0802 0.6465 0.02317 0.0
C440 C 0.06936 0.64753 0.04024 0.0
C441 C 0.07267 0.66384 0.05431 0.0
C442 C 0.08684 0.67922 0.05078 0.0
C443 C 0.09758 0.67822 0.03363 0.0
C444 C 0.09614 0.67286 0.97791 0.0
C445 C 0.1072 0.68029 0.96266 0.0
C446 C 0.09761 0.68786 0.94599 0.0
C447 C 0.07668 0.68767 0.94398 0.0
C448 C 0.06568 0.68047 0.95951 0.0
C449 C 0.07533 0.67309 0.97626 0.0
C450 C 0.13362 0.66992 0.00307 0.0
C451 C 0.14878 0.65682 0.00604 0.0
C452 C 0.16856 0.66418 0.00966 0.0
C453 C 0.17354 0.68485 0.01066 0.0
C454 C 0.15814 0.69795 0.00819 0.0
C455 C 0.13838 0.69053 0.00438 0.0
P456 P 0.91908 0.18036 0.45425 0.0
H457 H 0.95991 0.1984 0.4576 0.0
H458 H 0.98173 0.21159 0.43312 0.0
H459 H 0.93534 0.19671 0.38654 0.0
H460 H 0.91347 0.18451 0.41111 0.0
H461 H 0.92236 0.16536 0.49417 0.0
H462 H 0.93023 0.18169 0.52724 0.0
H463 H 0.93385 0.23903 0.50123 0.0
H464 H 0.92666 0.22241 0.46809 0.0
H465 H 0.89234 0.15423 0.4275 0.0
H466 H 0.88921 0.20972 0.46225 0.0
O467 O 0.92402 0.15641 0.45537 0.0
H468 H 0.85848 0.15698 0.41366 0.0
H469 H 0.85495 0.21207 0.44943 0.0
C470 C 0.93481 0.19102 0.43635 0.0
C471 C 0.95431 0.19835 0.44217 0.0
C472 C 0.96688 0.20566 0.42808 0.0
C473 C 0.96029 0.20537 0.40781 0.0
C474 C 0.9408 0.19768 0.40205 0.0
C475 C 0.92823 0.19057 0.41617 0.0
C476 C 0.92425 0.19266 0.47867 0.0
C477 C 0.92493 0.18144 0.49558 0.0
C478 C 0.92926 0.19084 0.51454 0.0
C479 C 0.93276 0.21171 0.51696 0.0
C480 C 0.93162 0.22292 0.49993 0.0
C481 C 0.92741 0.21346 0.48097 0.0
C482 C 0.89325 0.18161 0.4461 0.0
C483 C 0.88418 0.1668 0.4325 0.0
C484 C 0.86473 0.16838 0.42464 0.0
C485 C 0.8538 0.18474 0.43042 0.0
C486 C 0.86292 0.19942 0.44434 0.0
C487 C 0.88252 0.19797 0.45193 0.0
P488 P 0.42219 0.76531 0.97818 0.0
H489 H 0.38345 0.76881 0.95757 0.0
H490 H 0.36926 0.75693 0.92432 0.0
H491 H 0.4239 0.72905 0.91263 0.0
H492 H 0.43795 0.74096 0.94569 0.0
H493 H 0.40978 0.77595 0.01802 0.0
H494 H 0.39521 0.75637 0.04358 0.0
H495 H 0.39689 0.70277 0.00527 0.0
H496 H 0.41166 0.72251 0.97972 0.0
H497 H 0.45256 0.79226 0.96377 0.0
H498 H 0.45049 0.73708 0.99343 0.0
O499 O 0.41618 0.7889 0.98193 0.0
H500 H 0.48855 0.79096 0.96204 0.0
H501 H 0.48646 0.73544 0.99142 0.0
C502 C 0.41186 0.75614 0.95391 0.0
C503 C 0.39235 0.76018 0.94779 0.0
C504 C 0.38424 0.75329 0.92886 0.0
C505 C 0.39555 0.74222 0.9158 0.0
C506 C 0.41497 0.73787 0.92221 0.0
C507 C 0.42301 0.74466 0.94115 0.0
C508 C 0.41153 0.7507 -0.0031 0.0
C509 C 0.40695 0.76001 0.01507 0.0
C510 C 0.39854 0.74881 0.02963 0.0
C511 C 0.3947 0.72806 0.02633 0.0
C512 C 0.39967 0.71872 0.00822 0.0
C513 C 0.40801 0.72999 0.9936 0.0
C514 C 0.44892 0.765 0.97907 0.0
C515 C 0.45991 0.77998 0.97013 0.0
C516 C 0.48045 0.77908 0.96894 0.0
C517 C 0.49039 0.76305 0.97653 0.0
C518 C 0.47931 0.74812 0.98566 0.0
C519 C 0.45871 0.74904 0.98682 0.0
P520 P 0.53485 0.51543 0.37333 0.0
H521 H 0.54943 0.55171 0.39699 0.0
H522 H 0.57936 0.57422 0.396 0.0
H523 H 0.60031 0.53592 0.34909 0.0
H524 H 0.57036 0.51394 0.34955 0.0
H525 H 0.4969 0.4985 0.35467 0.0
H526 H 0.46679 0.51338 0.3421 0.0
H527 H 0.4945 0.57217 0.35748 0.0
H528 H 0.52477 0.55734 0.36955 0.0
H529 H 0.54241 0.47558 0.38642 0.0
H530 H 0.53375 0.5036 0.33075 0.0
O531 O 0.53065 0.51136 0.39699 0.0
H532 H 0.54672 0.44376 0.36818 0.0
H533 H 0.53819 0.4718 0.31238 0.0
C534 C 0.55741 0.53126 0.37317 0.0
C535 C 0.56042 0.54821 0.38642 0.0
C536 C 0.57748 0.56102 0.3859 0.0
C537 C 0.59204 0.55672 0.37248 0.0
C538 C 0.58931 0.53945 0.35965 0.0
C539 C 0.57207 0.52693 0.35986 0.0
C540 C 0.51338 0.52675 0.36266 0.0
C541 C 0.49673 0.5146 0.35496 0.0
C542 C 0.47949 0.5231 0.34781 0.0
C543 C 0.47838 0.54391 0.34874 0.0
C544 C 0.49498 0.55607 0.35661 0.0
C545 C 0.51235 0.54756 0.36347 0.0
C546 C 0.53758 0.49187 0.35992 0.0
C547 C 0.5413 0.47486 0.37028 0.0
C548 C 0.5437 0.45667 0.35984 0.0
C549 C 0.54271 0.4553 0.33886 0.0
C550 C 0.53912 0.47244 0.32853 0.0
C551 C 0.53648 0.49056 0.33899 0.0
P552 P -0.00145 0.08831 0.65766 0.0
H553 H 0.02638 0.07395 0.62914 0.0
H554 H 0.05827 0.0587 0.63321 0.0
H555 H 0.05464 0.06316 0.69719 0.0
H556 H 0.02269 0.07866 0.693 0.0
H557 H 0.95876 0.09924 0.66634 0.0
H558 H 0.93135 0.08218 0.68194 0.0
H559 H 0.96815 0.03288 0.69282 0.0
H560 H -0.0049 0.04965 0.67639 0.0
H561 H 0.01417 0.12303 0.63838 0.0
H562 H 0.99254 0.11034 0.69562 0.0
O563 O 0.99107 0.08692 0.6335 0.0
H564 H 0.0197 0.15828 0.64929 0.0
H565 H -0.00295 0.14565 0.70637 0.0
C566 C 0.02201 0.07705 0.66077 0.0
C567 C 0.03239 0.07163 0.64405 0.0
C568 C 0.05069 0.06303 0.64639 0.0
C569 C 0.05888 0.05966 0.66551 0.0
C570 C 0.04854 0.06536 0.68227 0.0
C571 C 0.03035 0.07422 0.67991 0.0
C572 C 0.97916 0.076 0.67065 0.0
C573 C 0.96098 0.08486 0.6723 0.0
C574 C 0.94534 0.0751 0.68135 0.0
C575 C 0.94754 0.05619 0.68886 0.0
C576 C 0.96585 0.04736 0.68713 0.0
C577 C 0.98142 0.05709 0.67793 0.0
C578 C 0.00242 0.11421 0.66599 0.0
C579 C 0.01036 0.12791 0.65323 0.0
C580 C 0.01342 0.1481 0.65947 0.0
C581 C 0.0086 0.15495 0.67865 0.0
C582 C 0.00108 0.14097 0.69156 0.0
C583 C -0.00176 0.12076 0.68535 0.0
P584 P 0.46606 0.911 0.19329 0.0
H585 H 0.42573 0.91624 0.17765 0.0
H586 H 0.39967 0.93744 0.18856 0.0
H587 H 0.43881 0.96144 0.2385 0.0
H588 H 0.46483 0.94043 0.22734 0.0
H589 H 0.49706 0.9388 0.18086 0.0
H590 H 0.52971 0.95092 0.19601 0.0
H591 H 0.52066 0.91408 0.24566 0.0
H592 H 0.48789 0.90224 0.23051 0.0
H593 H 0.44325 0.89365 0.22468 0.0
H594 H 0.47583 0.87277 0.17514 0.0
O595 O 0.46653 0.91167 0.16856 0.0
H596 H 0.43429 0.85916 0.23189 0.0
H597 H 0.46668 0.83827 0.182 0.0
C598 C 0.44729 0.92702 0.20146 0.0
C599 C 0.42871 0.92618 0.19087 0.0
C600 C 0.41379 0.93818 0.19722 0.0
C601 C 0.41719 0.9512 0.21436 0.0
C602 C 0.43583 0.95183 0.22505 0.0
C603 C 0.45072 0.93977 0.2187 0.0
C604 C 0.49028 0.91932 0.20436 0.0
C605 C 0.50219 0.93321 0.19492 0.0
C606 C 0.52087 0.94009 0.20358 0.0
C607 C 0.52786 0.93334 0.22196 0.0
C608 C 0.51568 0.91963 0.23154 0.0
C609 C 0.49702 0.91272 0.22281 0.0
C610 C 0.45983 0.88571 0.19909 0.0
C611 C 0.44838 0.88164 0.21528 0.0
C612 C 0.44324 0.86191 0.21937 0.0
C613 C 0.44965 0.84593 0.20744 0.0
C614 C 0.46164 0.85018 0.1916 0.0
C615 C 0.46674 0.8699 0.18753 0.0
P616 P 0.96596 0.43207 0.75262 0.0
H617 H 0.93305 0.41727 0.77514 0.0
H618 H 0.90061 0.40039 0.76499 0.0
H619 H 0.91485 0.40123 0.70323 0.0
H620 H 0.94732 0.41792 0.71352 0.0
H621 H 0.99352 0.4006 0.75758 0.0
H622 H 0.02059 0.38925 0.73808 0.0
H623 H 0.00705 0.43205 0.69443 0.0
H624 H 0.98025 0.44357 0.7143 0.0
H625 H 0.93152 0.4568 0.74764 0.0
H626 H -0.00444 0.46557 0.7543 0.0
O627 O 0.97205 0.42825 0.77645 0.0
H628 H 0.92883 0.49274 0.7467 0.0
H629 H 0.99296 0.50165 0.75363 0.0
C630 C 0.94274 0.41843 0.74511 0.0
C631 C 0.92929 0.41357 0.75944 0.0
C632 C 0.91069 0.40409 0.75361 0.0
C633 C 0.9052 0.3994 0.73331 0.0
C634 C 0.91877 0.40432 0.719 0.0
C635 C 0.93734 0.41388 0.72486 0.0
C636 C 0.98527 0.42326 0.73763 0.0
C637 C -0.00358 0.40756 0.74382 0.0
C638 C 0.01176 0.40094 0.73253 0.0
C639 C 0.0161 0.40983 0.71473 0.0
C640 C 0.00436 0.42513 0.70824 0.0
C641 C 0.98902 0.43173 0.71957 0.0
C642 C 0.96379 0.45847 0.75071 0.0
C643 C 0.94504 0.46641 0.74873 0.0
C644 C 0.9435 0.48702 0.74834 0.0
C645 C 0.96068 0.50006 0.75004 0.0
C646 C 0.97945 0.492 0.75196 0.0
C647 C 0.98096 0.47139 0.75241 0.0
P648 P 0.7047 0.45413 0.44963 0.0
H649 H 0.71246 0.43058 0.41332 0.0
H650 H 0.69764 0.39889 0.39865 0.0
H651 H 0.65085 0.40146 0.43988 0.0
H652 H 0.66635 0.4328 0.45506 0.0
H653 H 0.72331 0.49384 0.44739 0.0
H654 H 0.71036 0.52624 0.44273 0.0
H655 H 0.65023 0.50004 0.44336 0.0
H656 H 0.66348 0.46726 0.44709 0.0
H657 H 0.73281 0.43034 0.47027 0.0
H658 H 0.68016 0.46053 0.48405 0.0
O659 O 0.72765 0.45575 0.4415 0.0
H660 H 0.73289 0.41522 0.50229 0.0
H661 H 0.67981 0.44497 0.5161 0.0
C662 C 0.69064 0.434 0.43541 0.0
C663 C 0.69879 0.42457 0.41896 0.0
C664 C 0.69017 0.40642 0.41047 0.0
C665 C 0.67314 0.39742 0.41824 0.0
C666 C 0.66418 0.40774 0.43378 0.0
C667 C 0.67292 0.42582 0.44235 0.0
C668 C 0.69438 0.47805 0.44728 0.0
C669 C 0.70732 0.49499 0.44647 0.0
C670 C 0.69985 0.51365 0.44402 0.0
C671 C 0.67919 0.51589 0.44272 0.0
C672 C 0.66621 0.49887 0.444 0.0
C673 C 0.67377 0.48009 0.44625 0.0
C674 C 0.70669 0.44683 0.47492 0.0
C675 C 0.72149 0.43407 0.48039 0.0
C676 C 0.72136 0.42521 0.49861 0.0
C677 C 0.70621 0.42869 0.51164 0.0
C678 C 0.69177 0.4421 0.50646 0.0
C679 C 0.69196 0.45104 0.48816 0.0
P680 P 0.69712 0.5411 0.08018 0.0
H681 H 0.67708 0.55775 0.04571 0.0
H682 H 0.68446 0.58772 0.028 0.0
H683 H 0.74051 0.59799 0.06276 0.0
H684 H 0.73293 0.568 0.08054 0.0
H685 H 0.69486 0.50257 0.09733 0.0
H686 H 0.70559 0.46992 0.08633 0.0
H687 H 0.73453 0.49647 0.03772 0.0
H688 H 0.72319 0.52895 0.04852 0.0
H689 H 0.67678 0.56631 0.1077 0.0
H690 H 0.73173 0.53654 0.108 0.0
O691 O 0.67247 0.5366 0.07737 0.0
H692 H 0.68633 0.58179 0.14084 0.0
H693 H 0.74161 0.55225 0.14115 0.0
C694 C 0.70424 0.56096 0.06474 0.0
C695 C 0.69108 0.56629 0.04933 0.0
C696 C 0.69539 0.58337 0.03911 0.0
C697 C 0.71298 0.59537 0.04415 0.0
C698 C 0.72669 0.58924 0.05879 0.0
C699 C 0.7224 0.57209 0.06893 0.0
C700 C 0.70824 0.51814 0.07377 0.0
C701 C 0.7038 0.50138 0.08449 0.0
C702 C 0.71005 0.48273 0.07823 0.0
C703 C 0.72087 0.4805 0.06106 0.0
C704 C 0.72597 0.49757 0.05082 0.0
C705 C 0.71962 0.51622 0.05708 0.0
C706 C 0.70335 0.54997 0.10562 0.0
C707 C 0.69078 0.56286 0.11507 0.0
C708 C 0.69638 0.57188 0.13391 0.0
C709 C 0.71479 0.56833 0.1436 0.0
C710 C 0.72724 0.5551 0.13419 0.0
C711 C 0.7216 0.54609 0.11527 0.0
P712 P 0.3095 0.04305 0.53143 0.0
H713 H 0.33311 0.07147 0.5591 0.0
H714 H 0.32643 0.10409 0.57407 0.0
H715 H 0.26587 0.09685 0.54849 0.0
H716 H 0.27288 0.06426 0.53321 0.0
H717 H 0.33067 0.01627 0.55645 0.0
H718 H 0.32 0.98684 0.57347 0.0
H719 H 0.25901 0.99386 0.55288 0.0
H720 H 0.26986 0.02365 0.5359 0.0
H721 H 0.30962 0.07357 0.50284 0.0
H722 H 0.28814 0.01198 0.50373 0.0
O723 O 0.33417 0.04306 0.5303 0.0
H724 H 0.2984 0.07376 0.46786 0.0
H725 H 0.27565 0.01234 0.469 0.0
C726 C 0.3036 0.06568 0.54474 0.0
C727 C 0.31835 0.07681 0.55686 0.0
C728 C 0.31444 0.09542 0.56556 0.0
C729 C 0.29565 0.10318 0.56235 0.0
C730 C 0.28059 0.09146 0.55098 0.0
C731 C 0.28453 0.07281 0.54232 0.0
C732 C 0.30111 0.02184 0.54451 0.0
C733 C 0.31499 0.01155 0.55558 0.0
C734 C 0.30886 0.99479 0.56544 0.0
C735 C 0.28868 0.988 0.56443 0.0
C736 C 0.27469 -0.00136 0.55371 0.0
C737 C 0.28085 0.01562 0.54404 0.0
C738 C 0.29924 0.04297 0.50608 0.0
C739 C 0.30201 0.06021 0.49561 0.0
C740 C 0.29542 0.06031 0.47557 0.0
C741 C 0.28583 0.04313 0.46551 0.0
C742 C 0.28306 0.02582 0.47614 0.0
C743 C 0.28995 0.02568 0.49617 0.0
P744 P 0.27358 0.98139 0.93629 0.0
H745 H 0.26035 0.93979 0.93953 0.0
H746 H 0.27721 0.91084 0.95063 0.0
H747 H 0.33139 0.94788 0.96416 0.0
H748 H 0.31451 0.97681 0.95283 0.0
H749 H 0.25725 0.00451 0.96879 0.0
H750 H 0.26763 0.03644 0.9864 0.0
H751 H 0.32008 0.0404 0.95251 0.0
H752 H 0.30945 0.00835 0.93476 0.0
H753 H 0.27151 0.95028 0.90416 0.0
H754 H 0.27965 0.01448 0.90976 0.0
O755 O 0.24928 0.97759 0.9393 0.0
H756 H 0.27153 0.95099 0.86817 0.0
H757 H 0.28146 0.01529 0.87389 0.0
C758 C 0.28606 0.96054 0.94563 0.0
C759 C 0.27582 0.94174 0.945 0.0
C760 C 0.28551 0.92517 0.9512 0.0
C761 C 0.30561 0.92712 0.95825 0.0
C762 C 0.31584 0.946 0.95897 0.0
C763 C 0.30618 0.96255 0.9525 0.0
C764 C 0.28232 0.0043 0.95012 0.0
C765 C 0.271 0.01219 0.96514 0.0
C766 C 0.27705 0.0304 0.97534 0.0
C767 C 0.29462 0.04103 0.97076 0.0
C768 C 0.30632 0.03271 0.95616 0.0
C769 C 0.30029 0.0144 0.94605 0.0
C770 C 0.27627 0.98224 0.90984 0.0
C771 C 0.27397 0.96452 0.89771 0.0
C772 C 0.27411 0.96496 0.877 0.0
C773 C 0.27671 0.9832 0.86789 0.0
C774 C 0.2792 0.00095 0.88019 0.0
C775 C 0.27859 0.00049 0.9009 0.0
P776 P 0.44355 0.6783 0.44431 0.0
H777 H 0.40343 0.66615 0.42714 0.0
H778 H 0.39136 0.65031 0.39477 0.0
H779 H 0.4523 0.64236 0.38041 0.0
H780 H 0.46384 0.65641 0.41301 0.0
H781 H 0.46616 0.68425 0.48265 0.0
H782 H 0.46035 0.67247 0.51544 0.0
H783 H 0.40924 0.63572 0.49021 0.0
H784 H 0.41576 0.64691 0.45718 0.0
H785 H 0.45969 0.71394 0.42685 0.0
H786 H 0.48245 0.66188 0.45243 0.0
O787 O 0.4295 0.69789 0.44582 0.0
H788 H 0.49277 0.72369 0.41657 0.0
H789 H 0.51558 0.6712 0.44169 0.0
C790 C 0.43456 0.66287 0.42243 0.0
C791 C 0.4141 0.66045 0.41717 0.0
C792 C 0.40725 0.6516 0.39849 0.0
C793 C 0.4208 0.64541 0.38455 0.0
C794 C 0.44124 0.64669 0.39056 0.0
C795 C 0.44798 0.65509 0.40935 0.0
C796 C 0.44169 0.66614 0.46733 0.0
C797 C 0.45412 0.67312 0.484 0.0
C798 C 0.45059 0.66658 0.50284 0.0
C799 C 0.43417 0.65331 0.50554 0.0
C800 C 0.42214 0.64576 0.48867 0.0
C801 C 0.42584 0.65219 0.46973 0.0
C802 C 0.46869 0.68739 0.44072 0.0
C803 C 0.47192 0.70484 0.43066 0.0
C804 C 0.49081 0.71025 0.42455 0.0
C805 C 0.5068 0.69812 0.42811 0.0
C806 C 0.50368 0.68102 0.43891 0.0
C807 C 0.48475 0.67568 0.44511 0.0
P808 P 0.93416 0.25885 0.97315 0.0
H809 H 0.97179 0.25877 0.95433 0.0
H810 H 0.98505 0.27696 0.92713 0.0
H811 H 0.93263 0.31108 0.92458 0.0
H812 H 0.91933 0.29252 0.9515 0.0
H813 H 0.94102 0.23504 0.00725 0.0
H814 H 0.95715 0.24261 0.04048 0.0
H815 H 0.96958 0.3037 0.02601 0.0
H816 H 0.95316 0.29599 0.99271 0.0
H817 H 0.89995 0.23589 0.95315 0.0
H818 H 0.91038 0.28724 0.99463 0.0
O819 O 0.93804 0.23515 0.96659 0.0
H820 H 0.86411 0.23837 0.95448 0.0
H821 H 0.87444 0.29025 -0.00435 0.0
C822 C 0.94446 0.27404 0.95468 0.0
C823 C 0.96324 0.27027 0.94799 0.0
C824 C 0.97085 0.2808 0.93253 0.0
C825 C 0.95983 0.2954 0.92355 0.0
C826 C 0.94134 0.29969 0.93092 0.0
C827 C 0.93374 0.28912 0.94639 0.0
C828 C 0.94633 0.26484 -0.00258 0.0
C829 C 0.94735 0.25002 0.01117 0.0
C830 C 0.95662 0.25437 0.03015 0.0
C831 C 0.96485 0.2737 0.0358 0.0
C832 C 0.96335 0.28868 0.0221 0.0
C833 C 0.95412 0.28426 0.00304 0.0
C834 C 0.90777 0.26111 0.97412 0.0
C835 C 0.8945 0.24772 0.96255 0.0
C836 C 0.87398 0.24931 0.96317 0.0
C837 C 0.86634 0.2645 0.97521 0.0
C838 C 0.87979 0.27817 0.98649 0.0
C839 C 0.90034 0.2765 0.9859 0.0
P840 P 0.06983 0.70668 0.53549 0.0
H841 H 0.03805 0.68343 0.55315 0.0
H842 H 0.01964 0.68982 0.58281 0.0
H843 H 0.04668 0.74987 0.5897 0.0
H844 H 0.06502 0.74338 0.55992 0.0
H845 H 0.09266 0.71625 0.50146 0.0
H846 H 0.08272 0.72446 0.46758 0.0
H847 H 0.02145 0.72501 0.48325 0.0
H848 H 0.03166 0.7174 0.5173 0.0
H849 H 0.09998 0.6876 0.55899 0.0
H850 H 0.09339 0.74481 0.53438 0.0
O851 O 0.06919 0.68193 0.53147 0.0
H852 H 0.132 0.6997 0.57535 0.0
H853 H 0.12536 0.75726 0.5511 0.0
C854 C 0.05322 0.71279 0.5546 0.0
C855 C 0.03976 0.69808 0.56081 0.0
C856 C 0.02915 0.7018 0.57772 0.0
C857 C 0.03191 0.72028 0.58873 0.0
C858 C 0.04449 0.73539 0.58169 0.0
C859 C 0.05495 0.7317 0.56466 0.0
C860 C 0.06298 0.7167 0.51202 0.0
C861 C 0.07718 0.71875 0.49777 0.0
C862 C 0.07142 0.72319 0.47832 0.0
C863 C 0.05125 0.72528 0.47263 0.0
C864 C 0.03713 0.7238 0.48717 0.0
C865 C 0.04295 0.71943 0.50667 0.0
C866 C 0.09454 0.71517 0.54513 0.0
C867 C 0.10558 0.7027 0.55687 0.0
C868 C 0.12379 0.70973 0.56642 0.0
C869 C 0.1312 0.7295 0.56463 0.0
C870 C 0.1202 0.7419 0.55259 0.0
C871 C 0.10194 0.73481 0.54301 0.0
P872 P 0.52282 0.30312 0.02807 0.0
H873 H 0.54946 0.32302 0.06003 0.0
H874 H 0.56173 0.31251 0.09234 0.0
H875 H 0.53403 0.25346 0.07779 0.0
H876 H 0.5216 0.26422 0.04543 0.0
H877 H 0.50889 0.30332 0.98649 0.0
H878 H 0.52343 0.29291 0.95551 0.0
H879 H 0.57201 0.26889 0.98946 0.0
H880 H 0.55763 0.27996 0.02038 0.0
H881 H 0.49181 0.32582 0.04499 0.0
H882 H 0.49615 0.26835 0.01426 0.0
O883 O 0.52723 0.32779 0.02784 0.0
H884 H 0.4565 0.31803 0.04886 0.0
H885 H 0.46082 0.26016 0.0185 0.0
C886 C 0.53444 0.29445 0.05045 0.0
C887 C 0.54624 0.30774 0.06365 0.0
C888 C 0.55336 0.30166 0.0821 0.0
C889 C 0.54875 0.28217 0.0877 0.0
C890 C 0.5376 0.26865 0.07403 0.0
C891 C 0.53055 0.27475 0.05552 0.0
C892 C 0.53204 0.29221 0.00569 0.0
C893 C 0.52248 0.29548 0.98723 0.0
C894 C 0.53079 0.28943 0.96951 0.0
C895 C 0.54893 0.28005 0.96995 0.0
C896 C 0.55816 0.27628 0.98857 0.0
C897 C 0.54985 0.28243 0.00629 0.0
C898 C 0.49645 0.29783 0.02898 0.0
C899 C 0.48508 0.31159 0.03888 0.0
C900 C 0.46493 0.307 0.04128 0.0
C901 C 0.45582 0.28843 0.03406 0.0
C902 C 0.46729 0.27469 0.02401 0.0
C903 C 0.48748 0.27934 0.02158 0.0
P904 P 0.4355 0.44234 0.69526 0.0
H905 H 0.42725 0.40618 0.66879 0.0
H906 H 0.39725 0.39318 0.64852 0.0
H907 H 0.36866 0.44735 0.66387 0.0
H908 H 0.39812 0.46001 0.68381 0.0
H909 H 0.4715 0.43023 0.7157 0.0
H910 H 0.50441 0.42373 0.70486 0.0
H911 H 0.48591 0.43831 0.64505 0.0
H912 H 0.45254 0.44416 0.65604 0.0
H913 H 0.42705 0.4648 0.73202 0.0
H914 H 0.44036 0.47748 0.67196 0.0
O915 O 0.43219 0.42978 0.71562 0.0
H916 H 0.4183 0.49912 0.73839 0.0
H917 H 0.43104 0.5118 0.67801 0.0
C918 C 0.41519 0.43427 0.67746 0.0
C919 C 0.41467 0.41542 0.66731 0.0
C920 C 0.3975 0.40797 0.65583 0.0
C921 C 0.38062 0.41931 0.6544 0.0
C922 C 0.38152 0.43841 0.66417 0.0
C923 C 0.39851 0.4457 0.67569 0.0
C924 C 0.45953 0.43735 0.6866 0.0
C925 C 0.47445 0.43188 0.70021 0.0
C926 C 0.49337 0.42838 0.69401 0.0
C927 C 0.49789 0.43059 0.67408 0.0
C928 C 0.48287 0.43624 0.66045 0.0
C929 C 0.46383 0.43967 0.6667 0.0
C930 C 0.43435 0.4686 0.70151 0.0
C931 C 0.42852 0.47508 0.72032 0.0
C932 C 0.42331 0.49469 0.72388 0.0
C933 C 0.4236 0.50812 0.7086 0.0
C934 C 0.43075 0.50191 0.69016 0.0
C935 C 0.43611 0.48228 0.68666 0.0
P936 P 0.98217 0.93492 0.26277 0.0
H937 H 0.97785 0.97576 0.27761 0.0
H938 H 0.95208 0.99166 0.2957 0.0
H939 H 0.92101 0.93399 0.29936 0.0
H940 H 0.94724 0.91823 0.28227 0.0
H941 H 0.01499 0.94959 0.24 0.0
H942 H 0.0485 0.96392 0.24984 0.0
H943 H 0.03762 0.95677 0.31174 0.0
H944 H 0.00391 0.94246 0.30174 0.0
H945 H 0.95263 0.90484 0.24516 0.0
H946 H 0.00878 0.9058 0.27957 0.0
O947 O 0.97628 0.94125 0.23964 0.0
H948 H 0.95028 0.86848 0.24406 0.0
H949 H 0.00716 0.8695 0.27762 0.0
C950 C 0.96457 0.94581 0.27863 0.0
C951 C 0.96569 0.96652 0.28271 0.0
C952 C 0.95081 0.97561 0.29287 0.0
C953 C 0.93431 0.96416 0.29888 0.0
C954 C 0.93358 0.9433 0.29524 0.0
C955 C 0.94857 0.93422 0.28524 0.0
C956 C 0.00691 0.94526 0.27018 0.0
C957 C 0.01974 0.9512 0.25569 0.0
C958 C 0.03888 0.95943 0.26133 0.0
C959 C 0.04561 0.9616 0.28157 0.0
C960 C 0.03284 0.95522 0.29604 0.0
C961 C 0.01359 0.94716 0.29037 0.0
C962 C 0.98085 0.90806 0.26241 0.0
C963 C 0.96452 0.8972 0.25238 0.0
C964 C 0.96329 0.87637 0.25164 0.0
C965 C 0.9786 0.86593 0.26063 0.0
C966 C -0.00507 0.87695 0.27078 0.0
C967 C -0.00403 0.89782 0.27176 0.0
P968 P 0.53703 0.07458 0.7072 0.0
H969 H 0.55664 0.04058 0.68983 0.0
H970 H 0.58575 0.02341 0.70116 0.0
H971 H 0.58816 0.05778 0.75763 0.0
H972 H 0.55901 0.07499 0.74611 0.0
H973 H 0.49958 0.09317 0.70162 0.0
H974 H 0.46569 0.08352 0.70973 0.0
H975 H 0.4876 0.03413 0.7412 0.0
H976 H 0.52137 0.04356 0.7324 0.0
H977 H 0.56274 0.10165 0.68669 0.0
H978 H 0.53177 0.10311 0.74096 0.0
O979 O 0.53462 0.07064 0.68243 0.0
H980 H 0.57816 0.13486 0.69589 0.0
H981 H 0.54758 0.13626 0.75062 0.0
C982 C 0.55593 0.05933 0.71698 0.0
C983 C 0.56322 0.04421 0.70476 0.0
C984 C 0.57981 0.0343 0.71132 0.0
C985 C 0.5894 0.03939 0.73023 0.0
C986 C 0.58129 0.05376 0.74287 0.0
C987 C 0.56461 0.06357 0.73632 0.0
C988 C 0.51296 0.06916 0.71647 0.0
C989 C 0.49709 0.08046 0.71055 0.0
C990 C 0.47772 0.07496 0.7153 0.0
C991 C 0.47384 0.05798 0.72608 0.0
C992 C 0.48998 0.04711 0.73262 0.0
C993 C 0.50936 0.05259 0.72776 0.0
C994 C 0.54583 0.10013 0.71295 0.0
C995 C 0.55903 0.10928 0.70047 0.0
C996 C 0.56803 0.12818 0.70588 0.0
C997 C 0.56422 0.13818 0.72407 0.0
C998 C 0.55066 0.12908 0.7364 0.0
C999 C 0.5416 0.11014 0.73091 0.0
P1000 P 0.01619 0.51686 0.31315 0.0
H1001 H 0.02068 0.56016 0.31109 0.0
H1002 H 0.04893 0.58282 0.30443 0.0
H1003 H 0.08464 0.53221 0.29473 0.0
H1004 H 0.05635 0.50979 0.30083 0.0
H1005 H 0.97718 0.51466 0.32949 0.0
H1006 H 0.94501 0.52624 0.31832 0.0
H1007 H 0.97022 0.54606 0.26468 0.0
H1008 H 0.00258 0.53471 0.27625 0.0
H1009 H 0.03161 0.48314 0.33315 0.0
H1010 H 0.00937 0.49533 0.27394 0.0
O1011 O 0.01682 0.51826 0.33803 0.0
H1012 H 0.03888 0.44961 0.3212 0.0
H1013 H 0.01687 0.46172 0.26173 0.0
C1014 C 0.03624 0.53327 0.30601 0.0
C1015 C 0.03449 0.55396 0.3071 0.0
C1016 C 0.0507 0.5669 0.30348 0.0
C1017 C 0.06906 0.55935 0.29897 0.0
C1018 C 0.07064 0.53855 0.29773 0.0
C1019 C 0.05442 0.52566 0.3013 0.0
C1020 C 0.99232 0.52429 0.30392 0.0
C1021 C 0.97578 0.52148 0.31532 0.0
C1022 C 0.95733 0.52795 0.3088 0.0
C1023 C 0.95504 0.53719 0.29064 0.0
C1024 C 0.97156 0.53931 0.27889 0.0
C1025 C 0.99004 0.5328 0.28545 0.0
C1026 C 0.01961 0.49157 0.3045 0.0
C1027 C 0.02807 0.47852 0.3176 0.0
C1028 C 0.03243 0.4594 0.31069 0.0
C1029 C 0.02854 0.45303 0.29049 0.0
C1030 C 0.01984 0.46612 0.27742 0.0
C1031 C 0.01554 0.48531 0.28437 0.0
H1032 H 0.18705 0.60485 0.2748 0.0
H1033 H 0.08059 0.59436 0.32063 0.0
H1034 H 0.16706 0.64701 0.31897 0.0
H1035 H 0.09832 0.55536 0.2725 0.0
H1036 H 0.11132 0.615 0.31877 0.0
H1037 H 0.15403 0.58754 0.27245 0.0
C1038 C 0.17568 0.61055 0.28391 0.0
C1039 C 0.17988 0.62733 0.2972 0.0
C1040 C 0.10843 0.60201 0.3085 0.0
C1041 C 0.14204 0.60752 0.29467 0.0
C1042 C 0.09079 0.59027 0.30946 0.0
C1043 C 0.08687 0.57299 0.29678 0.0
C1044 C 0.12237 0.59641 0.29484 0.0
C1045 C 0.10086 0.56833 0.28282 0.0
C1046 C 0.15681 0.60066 0.28255 0.0
C1047 C 0.16453 0.63409 0.30858 0.0
N1048 N 0.11803 0.57988 0.28233 0.0
N1049 N 0.14634 0.62407 0.30716 0.0
H1050 H 0.25675 0.41594 0.62173 0.0
H1051 H 0.36349 0.38157 0.65666 0.0
H1052 H 0.26645 0.36078 0.64958 0.0
H1053 H 0.35348 0.43768 0.63082 0.0
H1054 H 0.32891 0.37037 0.64725 0.0
H1055 H 0.29255 0.42071 0.6182 0.0
C1056 C 0.26637 0.40468 0.62685 0.0
C1057 C 0.25864 0.38816 0.63637 0.0
C1058 C 0.33435 0.38503 0.64337 0.0
C1059 C 0.29967 0.39367 0.63263 0.0
C1060 C 0.35418 0.39137 0.64857 0.0
C1061 C 0.36131 0.41076 0.64487 0.0
C1062 C 0.32153 0.39823 0.63457 0.0
C1063 C 0.34847 0.42281 0.63444 0.0
C1064 C 0.28683 0.40744 0.62487 0.0
C1065 C 0.27179 0.37391 0.64242 0.0
N1066 N 0.32913 0.41649 0.62999 0.0
N1067 N 0.29169 0.37715 0.64076 0.0
H1068 H 0.71557 0.03128 0.74767 0.0
H1069 H 0.60017 0.00075 0.72488 0.0
H1070 H 0.69259 0.97065 0.73279 0.0
H1071 H 0.62292 0.05941 0.74789 0.0
H1072 H 0.63355 0.98874 0.73015 0.0
H1073 H 0.68154 0.04123 0.75052 0.0
C1074 C 0.70338 0.02001 0.74523 0.0
C1075 C 0.70693 0.00014 0.7398 0.0
C1076 C 0.63119 0.00417 0.7343 0.0
C1077 C 0.66787 0.01147 0.7428 0.0
C1078 C 0.61215 0.01104 0.73122 0.0
C1079 C 0.60878 0.03114 0.73582 0.0
C1080 C 0.64702 0.01755 0.74181 0.0
C1081 C 0.62479 0.04377 0.74425 0.0
C1082 C 0.68393 0.0257 0.74686 0.0
C1083 C 0.69055 0.98616 0.73691 0.0
N1084 N 0.64324 0.03683 0.74674 0.0
N1085 N 0.67172 0.99214 0.73821 0.0
H1086 H 0.83918 0.04169 0.32256 0.0
H1087 H 0.9108 0.95115 0.32829 0.0
H1088 H 0.8219 0.98537 0.34624 0.0
H1089 H 0.91877 -0.0005 0.28935 0.0
H1090 H 0.88104 0.96606 0.34001 0.0
H1091 H 0.87147 0.02901 0.31558 0.0
C1092 C 0.84224 0.02673 0.32647 0.0
C1093 C 0.82776 0.01451 0.33486 0.0
C1094 C 0.88942 0.97344 0.329 0.0
C1095 C 0.8647 -6e-05 0.32692 0.0
C1096 C 0.90637 0.9649 0.32222 0.0
C1097 C 0.91731 0.97396 0.30766 0.0
C1098 C 0.88342 0.99125 0.3213 0.0
C1099 C 0.91104 0.99205 0.30074 0.0
C1100 C 0.86065 0.01948 0.32242 0.0
C1101 C 0.83258 0.99524 0.33962 0.0
N1102 N 0.89449 3e-05 0.30755 0.0
N1103 N 0.85062 0.98852 0.33554 0.0
H1104 H 0.31134 0.21989 0.62364 0.0
H1105 H 0.27557 0.13132 0.54282 0.0
H1106 H 0.28009 0.2286 0.56722 0.0
H1107 H 0.30848 0.12258 0.59833 0.0
H1108 H 0.27339 0.16638 0.55343 0.0
H1109 H 0.30692 0.18382 0.61646 0.0
C1110 C 0.30336 0.21423 0.60983 0.0
C1111 C 0.29623 0.22732 0.59593 0.0
C1112 C 0.28094 0.15677 0.56338 0.0
C1113 C 0.29123 0.18599 0.58756 0.0
C1114 C 0.28206 0.13667 0.5574 0.0
C1115 C 0.29235 0.12396 0.56964 0.0
C1116 C 0.29022 0.1643 0.58174 0.0
C1117 C 0.3007 0.13189 0.58825 0.0
C1118 C 0.30087 0.19361 0.60573 0.0
C1119 C 0.28595 0.2191 0.57832 0.0
N1120 N 0.29958 0.15156 0.59366 0.0
N1121 N 0.2839 0.19898 0.57458 0.0
H1122 H 0.34569 0.80814 0.96848 0.0
H1123 H 0.32947 0.92391 0.99219 0.0
H1124 H 0.356 0.83745 0.02729 0.0
H1125 H 0.30484 0.89012 0.93909 0.0
H1126 H 0.34453 0.89384 0.00345 0.0
H1127 H 0.33613 0.83971 0.95565 0.0
C1128 C 0.34617 0.82126 0.97867 0.0
C1129 C 0.35148 0.82011 -0.00096 0.0
C1130 C 0.33591 0.89306 0.98929 0.0
C1131 C 0.34051 0.85627 0.98444 0.0
C1132 C 0.32741 0.91021 0.98283 0.0
C1133 C 0.31578 0.90943 0.96476 0.0
C1134 C 0.33292 0.87509 0.97749 0.0
C1135 C 0.31347 0.89128 0.95325 0.0
C1136 C 0.34063 0.83925 0.97134 0.0
C1137 C 0.35187 0.83762 0.01151 0.0
N1138 N 0.32194 0.87483 0.95981 0.0
N1139 N 0.34635 0.85497 0.00403 0.0
H1140 H 0.66604 0.28143 0.35602 0.0
H1141 H 0.65922 0.36781 0.44115 0.0
H1142 H 0.64868 0.27095 0.41546 0.0
H1143 H 0.67171 0.37906 0.38042 0.0
H1144 H 0.65233 0.33262 0.43116 0.0
H1145 H 0.66598 0.31733 0.36395 0.0
C1146 C 0.66206 0.28667 0.37069 0.0
C1147 C 0.65753 0.27316 0.38516 0.0
C1148 C 0.65641 0.3428 0.41997 0.0
C1149 C 0.65754 0.31426 0.39438 0.0
C1150 C 0.66016 0.363 0.42562 0.0
C1151 C 0.66624 0.37651 0.41165 0.0
C1152 C 0.65897 0.33591 0.40025 0.0
C1153 C 0.6675 0.36918 0.39181 0.0
C1154 C 0.66208 0.30718 0.37523 0.0
C1155 C 0.65241 0.28081 0.40389 0.0
N1156 N 0.66411 0.34936 0.38675 0.0
N1157 N 0.65269 0.30084 0.408 0.0
H1158 H 0.71496 0.72191 0.03357 0.0
H1159 H 0.70601 0.60488 0.00525 0.0
H1160 H 0.70167 0.69669 0.97347 0.0
H1161 H 0.72629 0.63087 0.06359 0.0
H1162 H 0.70682 0.63831 0.99262 0.0
H1163 H 0.72177 0.68875 0.04421 0.0
C1164 C 0.71365 0.70942 0.02257 0.0
C1165 C 0.70754 0.71205 0.00264 0.0
C1166 C 0.71134 0.63667 0.00812 0.0
C1167 C 0.71515 0.67397 0.01475 0.0
C1168 C 0.71082 0.6176 0.01535 0.0
C1169 C 0.71596 0.61508 0.03554 0.0
C1170 C 0.71684 0.65337 0.02123 0.0
C1171 C 0.72233 0.63207 0.04789 0.0
C1172 C 0.71756 0.69047 0.02865 0.0
C1173 C 0.70623 0.69534 0.98901 0.0
N1174 N 0.72237 0.65049 0.0406 0.0
N1175 N 0.70978 0.67697 0.99536 0.0
H1176 H 0.54101 0.25206 0.20989 0.0
H1177 H 0.58398 0.29107 0.10995 0.0
H1178 H 0.59973 0.28075 0.20739 0.0
H1179 H 0.52599 0.26081 0.11239 0.0
H1180 H 0.59119 0.28491 0.14504 0.0
H1181 H 0.53641 0.25253 0.17365 0.0
C1182 C 0.55301 0.25832 0.20171 0.0
C1183 C 0.57073 0.26652 0.21172 0.0
C1184 C 0.57697 0.27945 0.13785 0.0
C1185 C 0.56552 0.26721 0.17019 0.0
C1186 C 0.57281 0.28302 0.11783 0.0
C1187 C 0.5543 0.27657 0.10824 0.0
C1188 C 0.56244 0.26946 0.14842 0.0
C1189 C 0.54051 0.26593 0.11911 0.0
C1190 C 0.55037 0.25858 0.181 0.0
C1191 C 0.58579 0.27435 0.20032 0.0
N1192 N 0.5448 0.26288 0.13865 0.0
N1193 N 0.58277 0.27464 0.18018 0.0
H1194 H 0.97022 0.33466 0.80433 0.0
H1195 H -0.00191 0.30869 0.91686 0.0
H1196 H 0.03055 0.3348 0.8298 0.0
H1197 H 0.93819 0.30419 0.88973 0.0
H1198 H 0.01002 0.32177 0.88627 0.0
H1199 H 0.95801 0.32722 0.83672 0.0
C1200 C 0.98091 0.3333 0.81677 0.0
C1201 C 0.00146 0.33521 0.8143 0.0
C1202 C -0.00576 0.31806 0.88707 0.0
C1203 C 0.98756 0.32658 0.85144 0.0
C1204 C 0.98743 0.31051 0.90451 0.0
C1205 C 0.96711 0.30518 0.90585 0.0
C1206 C 0.98066 0.32027 0.8708 0.0
C1207 C 0.95395 0.30824 0.88948 0.0
C1208 C 0.97392 0.32901 0.83527 0.0
C1209 C 0.01459 0.33334 0.83099 0.0
N1210 N 0.96097 0.31544 0.87261 0.0
N1211 N 0.00742 0.32901 0.84881 0.0
H1212 H 0.42814 0.62093 0.25885 0.0
H1213 H 0.38906 0.65872 0.36233 0.0
H1214 H 0.37288 0.64959 0.26419 0.0
H1215 H 0.43731 0.61937 0.35768 0.0
H1216 H 0.38136 0.65318 0.32669 0.0
H1217 H 0.4305 0.61804 0.29495 0.0
C1218 C 0.41639 0.62641 0.26758 0.0
C1219 C 0.40044 0.63578 0.25852 0.0
C1220 C 0.39357 0.64566 0.3335 0.0
C1221 C 0.40323 0.63284 0.29987 0.0
C1222 C 0.39788 0.64862 0.35402 0.0
C1223 C 0.41411 0.63974 0.36329 0.0
C1224 C 0.40575 0.63405 0.32196 0.0
C1225 C 0.42509 0.62714 0.35131 0.0
C1226 C 0.41776 0.62477 0.2882 0.0
C1227 C 0.38553 0.64242 0.27056 0.0
N1228 N 0.42093 0.62496 0.33126 0.0
N1229 N 0.38744 0.64109 0.29064 0.0
H1230 H 0.02299 0.72298 0.71534 0.0
H1231 H 0.99404 0.70954 0.59886 0.0
H1232 H 0.96258 0.70963 0.69126 0.0
H1233 H 0.05042 0.73664 0.62356 0.0
H1234 H 0.98178 0.71031 0.63244 0.0
H1235 H 0.03305 0.72899 0.6818 0.0
C1236 C 0.01181 0.72148 0.70302 0.0
C1237 C 0.99195 0.71566 0.70609 0.0
C1238 C -0.00326 0.71633 0.63047 0.0
C1239 C 0.00339 0.72232 0.6676 0.0
C1240 C 0.00375 0.71583 0.61133 0.0
C1241 C 0.02329 0.72296 0.60843 0.0
C1242 C 0.00947 0.72374 0.64686 0.0
C1243 C 0.0352 0.73112 0.62508 0.0
C1244 C 0.01755 0.72496 0.68387 0.0
C1245 C 0.97807 0.71405 0.68958 0.0
N1246 N 0.02819 0.73106 0.64359 0.0
N1247 N 0.98409 0.71712 0.671 0.0
H1248 H 0.80622 0.32643 0.67438 0.0
H1249 H 0.86926 0.40807 0.74759 0.0
H1250 H 0.77965 0.36961 0.71286 0.0
H1251 H 0.89561 0.36908 0.70474 0.0
H1252 H 0.83643 0.3926 0.73668 0.0
H1253 H 0.8392 0.34035 0.6869 0.0
C1254 C 0.80731 0.33879 0.68553 0.0
C1255 C 0.79014 0.34691 0.69254 0.0
C1256 C 0.84939 0.3874 0.72968 0.0
C1257 C 0.82786 0.36293 0.70692 0.0
C1258 C 0.86816 0.39614 0.73599 0.0
C1259 C 0.88522 0.38986 0.72706 0.0
C1260 C 0.84763 0.37219 0.71436 0.0
C1261 C 0.88284 0.37454 0.71187 0.0
C1262 C 0.82616 0.34675 0.69264 0.0
C1263 C 0.79247 0.36291 0.70699 0.0
N1264 N 0.86441 0.36623 0.70601 0.0
N1265 N 0.81098 0.37041 0.71368 0.0
H1266 H 0.66959 0.65572 0.34318 0.0
H1267 H 0.63118 0.54826 0.3755 0.0
H1268 H 0.70839 0.60837 0.35508 0.0
H1269 H 0.5928 0.59637 0.36611 0.0
H1270 H 0.66009 0.5709 0.37064 0.0
H1271 H 0.64172 0.63522 0.35428 0.0
C1272 C 0.67229 0.64109 0.3483 0.0
C1273 C 0.69131 0.63365 0.34795 0.0
C1274 C 0.64537 0.57655 0.3697 0.0
C1275 C 0.65943 0.61003 0.36054 0.0
C1276 C 0.62892 0.56365 0.37247 0.0
C1277 C 0.60969 0.57054 0.37115 0.0
C1278 C 0.64249 0.59639 0.36524 0.0
C1279 C 0.60745 0.59057 0.36732 0.0
C1280 C 0.65636 0.62937 0.35461 0.0
C1281 C 0.69396 0.61465 0.35493 0.0
N1282 N 0.62365 0.60275 0.36426 0.0
N1283 N 0.67816 0.60342 0.36076 0.0
H1284 H 0.35113 0.04965 0.25819 0.0
H1285 H 0.37722 0.94127 0.21543 0.0
H1286 H 0.30765 -0.0001 0.24727 0.0
H1287 H 0.42107 0.99036 0.22859 0.0
H1288 H 0.3514 0.96272 0.22632 0.0
H1289 H 0.37684 0.02834 0.24679 0.0
C1290 C 0.34697 0.03425 0.25337 0.0
C1291 C 0.32719 0.02655 0.2537 0.0
C1292 C 0.36667 0.96881 0.22684 0.0
C1293 C 0.35659 0.00204 0.24063 0.0
C1294 C 0.38141 0.9566 0.22051 0.0
C1295 C 0.40136 0.96403 0.22108 0.0
C1296 C 0.37187 0.98864 0.23375 0.0
C1297 C 0.40594 0.98393 0.22812 0.0
C1298 C 0.36168 0.02208 0.24688 0.0
C1299 C 0.3227 0.00647 0.24728 0.0
N1300 N 0.39131 -0.00446 0.23414 0.0
N1301 N 0.33728 0.99492 0.24101 0.0
H1302 H 0.14914 0.97628 0.68893 0.0
H1303 H 0.09332 0.06822 0.64727 0.0
H1304 H 0.17974 0.02539 0.66251 0.0
H1305 H 0.0679 0.02907 0.68894 0.0
H1306 H 0.12441 0.05123 0.6504 0.0
H1307 H 0.11842 0.9939 0.68676 0.0
C1308 C 0.14939 0.99076 0.68265 0.0
C1309 C 0.16703 -0.00062 0.67588 0.0
C1310 C 0.11206 0.04642 0.65892 0.0
C1311 C 0.13192 0.01957 0.67328 0.0
C1312 C 0.09431 0.05603 0.65707 0.0
C1313 C 0.07803 0.05001 0.66786 0.0
C1314 C 0.11348 0.03049 0.67145 0.0
C1315 C 0.08015 0.03427 0.68049 0.0
C1316 C 0.13187 0.00084 0.68149 0.0
C1317 C 0.1665 0.01821 0.66794 0.0
N1318 N 0.09751 0.02496 0.68184 0.0
N1319 N 0.1492 0.02763 0.66677 0.0
H1320 H 0.71377 0.79256 0.38257 0.0
H1321 H 0.6995 0.90953 0.39572 0.0
H1322 H 0.67274 0.82306 0.3451 0.0
H1323 H 0.74854 0.88126 0.42438 0.0
H1324 H 0.68893 0.87782 0.37768 0.0
H1325 H 0.7261 0.82472 0.39886 0.0
C1326 C 0.7074 0.80602 0.37772 0.0
C1327 C 0.69217 0.80512 0.36248 0.0
C1328 C 0.70205 0.87858 0.38786 0.0
C1329 C 0.70612 0.84195 0.38114 0.0
C1330 C 0.70817 0.89672 0.39811 0.0
C1331 C 0.72495 0.89813 0.41165 0.0
C1332 C 0.71266 0.86161 0.39124 0.0
C1333 C 0.73533 0.88086 0.41437 0.0
C1334 C 0.71447 0.82438 0.38701 0.0
C1335 C 0.6845 0.82305 0.35678 0.0
N1336 N 0.72898 0.86332 0.40432 0.0
N1337 N 0.69149 0.84071 0.36619 0.0
H1338 H 0.66289 0.1895 0.03757 0.0
H1339 H 0.67586 0.07192 0.03123 0.0
H1340 H 0.67432 0.15602 0.9832 0.0
H1341 H 0.64992 0.10258 0.08049 0.0
H1342 H 0.67841 0.10326 0.01455 0.0
H1343 H 0.66077 0.15834 0.05462 0.0
C1344 C 0.66494 0.1756 0.02922 0.0
C1345 C 0.66876 0.17536 0.00892 0.0
C1346 C 0.67216 0.10313 0.029 0.0
C1347 C 0.66649 0.13969 0.02837 0.0
C1348 C 0.67084 0.08529 0.03859 0.0
C1349 C 0.66267 0.08466 0.05727 0.0
C1350 C 0.66544 0.12054 0.03823 0.0
C1351 C 0.65614 0.10238 0.06602 0.0
C1352 C 0.66369 0.15782 0.03895 0.0
C1353 C 0.67129 0.15691 -0.00116 0.0
N1354 N 0.65772 0.11962 0.05645 0.0
N1355 N 0.67018 0.13983 0.00868 0.0
H1356 H 0.32464 0.68703 0.65479 0.0
H1357 H 0.37214 0.65077 0.55372 0.0
H1358 H 0.34325 0.72684 0.61037 0.0
H1359 H 0.34388 0.61079 0.59304 0.0
H1360 H 0.36575 0.67887 0.57648 0.0
H1361 H 0.33641 0.65908 0.63483 0.0
C1362 C 0.33135 0.68993 0.64093 0.0
C1363 C 0.33275 0.70928 0.63413 0.0
C1364 C 0.36099 0.66394 0.58013 0.0
C1365 C 0.34609 0.67734 0.61115 0.0
C1366 C 0.36448 0.64785 0.56705 0.0
C1367 C 0.3584 0.62829 0.5713 0.0
C1368 C 0.35134 0.66052 0.59765 0.0
C1369 C 0.34906 0.62552 0.58916 0.0
C1370 C 0.33801 0.67395 0.62951 0.0
C1371 C 0.34172 0.71216 0.61612 0.0
N1372 N 0.34576 0.64144 0.60162 0.0
N1373 N 0.34791 0.69634 0.60518 0.0
H1374 H 0.25313 0.35237 0.05344 0.0
H1375 H 0.19981 0.378 0.9493 0.0
H1376 H 0.23314 0.30769 0.00679 0.0
H1377 H 0.2307 0.42232 0.99072 0.0
H1378 H 0.20886 0.35209 0.97164 0.0
H1379 H 0.242 0.37825 0.03206 0.0
C1380 C 0.24631 0.34799 0.03873 0.0
C1381 C 0.24412 0.32783 0.03186 0.0
C1382 C 0.21364 0.36748 0.97585 0.0
C1383 C 0.23133 0.3574 0.00733 0.0
C1384 C 0.20837 0.38229 0.96317 0.0
C1385 C 0.21455 0.40234 0.96815 0.0
C1386 C 0.22504 0.37277 0.99373 0.0
C1387 C 0.22583 0.40702 0.9862 0.0
C1388 C 0.24002 0.36278 0.02652 0.0
C1389 C 0.23519 0.32304 0.01267 0.0
N1390 N 0.23069 0.39235 -0.00165 0.0
N1391 N 0.22913 0.33772 0.00107 0.0
H1392 H 0.32283 0.68657 0.815 0.0
H1393 H 0.41404 0.74327 0.88073 0.0
H1394 H 0.37568 0.7116 0.79014 0.0
H1395 H 0.35817 0.72547 0.90468 0.0
H1396 H 0.40042 0.73115 0.8475 0.0
H1397 H 0.33558 0.70032 0.84803 0.0
C1398 C 0.33708 0.69502 0.81647 0.0
C1399 C 0.34823 0.69791 0.79978 0.0
C1400 C 0.3911 0.72994 0.86 0.0
C1401 C 0.36294 0.71359 0.83757 0.0
C1402 C 0.39891 0.73675 0.87899 0.0
C1403 C 0.38724 0.7353 0.89551 0.0
C1404 C 0.37149 0.7215 0.85747 0.0
C1405 C 0.36763 0.72701 0.89234 0.0
C1406 C 0.34434 0.70288 0.83534 0.0
C1407 C 0.36658 0.709 0.80258 0.0
N1408 N 0.3604 0.72033 0.87371 0.0
N1409 N 0.3734 0.71635 0.82112 0.0
H1410 H 0.03969 0.67433 0.17677 0.0
H1411 H 0.03288 0.65479 0.05795 0.0
H1412 H 0.98412 0.66324 0.14147 0.0
H1413 H 0.08707 0.67479 0.09253 0.0
H1414 H 0.01496 0.6559 0.08854 0.0
H1415 H 0.05752 0.67263 0.14621 0.0
C1416 C 0.03123 0.67148 0.1626 0.0
C1417 C 0.01037 0.66894 0.16169 0.0
C1418 C 0.03076 0.66007 0.08943 0.0
C1419 C 0.03071 0.66698 0.1266 0.0
C1420 C 0.04102 0.65934 0.072 0.0
C1421 C 0.06151 0.66471 0.07269 0.0
C1422 C 0.04109 0.66608 0.10775 0.0
C1423 C 0.07125 0.67074 0.09127 0.0
C1424 C 0.04142 0.67057 0.14514 0.0
C1425 C 0.00021 0.66532 0.14288 0.0
N1426 N 0.06097 0.6712 0.10805 0.0
N1427 N 0.01047 0.66443 0.12609 0.0
H1428 H 0.61478 0.34575 0.69969 0.0
H1429 H 0.62418 0.3432 0.58149 0.0
H1430 H 0.66645 0.32611 0.67097 0.0
H1431 H 0.56912 0.35001 0.61001 0.0
H1432 H 0.64157 0.34184 0.61442 0.0
H1433 H 0.59976 0.35293 0.66716 0.0
C1434 C 0.62305 0.3431 0.68657 0.0
C1435 C 0.64178 0.33502 0.68803 0.0
C1436 C 0.62569 0.34369 0.61345 0.0
C1437 C 0.62455 0.34298 0.65073 0.0
C1438 C 0.61582 0.34459 0.59471 0.0
C1439 C 0.59518 0.34653 0.59308 0.0
C1440 C 0.61488 0.34505 0.63066 0.0
C1441 C 0.585 0.3482 0.61063 0.0
C1442 C 0.61441 0.3471 0.66799 0.0
C1443 C 0.65188 0.33209 0.67052 0.0
N1444 N 0.59494 0.34741 0.62869 0.0
N1445 N 0.64306 0.33592 0.65256 0.0
H1446 H 0.00683 0.24737 0.29963 0.0
H1447 H 0.00062 0.20156 0.40609 0.0
H1448 H 0.05882 0.24035 0.33865 0.0
H1449 H 0.95061 0.22578 0.37471 0.0
H1450 H 0.02206 0.21297 0.38043 0.0
H1451 H 0.98576 0.23619 0.32565 0.0
C1452 C 0.01383 0.2434 0.31364 0.0
C1453 C 0.03463 0.24482 0.31698 0.0
C1454 C 0.00639 0.21581 0.37922 0.0
C1455 C 0.01058 0.23198 0.34682 0.0
C1456 C 0.99414 0.20941 0.39394 0.0
C1457 C 0.9737 0.21266 0.39261 0.0
C1458 C -0.00185 0.22535 0.36294 0.0
C1459 C 0.96616 0.22259 0.37623 0.0
C1460 C 0.00178 0.2371 0.32852 0.0
C1461 C 0.04285 0.23953 0.33546 0.0
N1462 N 0.97835 0.22849 0.36203 0.0
N1463 N 0.0308 0.23328 0.34968 0.0
H1464 H 0.31207 0.63939 0.34898 0.0
H1465 H 0.29763 0.5648 0.43644 0.0
H1466 H 0.25593 0.60864 0.35897 0.0
H1467 H 0.35264 0.59879 0.42843 0.0
H1468 H 0.28242 0.57946 0.40727 0.0
H1469 H 0.3276 0.62332 0.37708 0.0
C1470 C 0.3031 0.62895 0.35688 0.0
C1471 C 0.28283 0.62489 0.35132 0.0
C1472 C 0.29784 0.58366 0.41186 0.0
C1473 C 0.3003 0.60692 0.38395 0.0
C1474 C 0.30652 0.57534 0.42857 0.0
C1475 C 0.32646 0.58056 0.43497 0.0
C1476 C 0.30915 0.59732 0.40143 0.0
C1477 C 0.33732 0.59408 0.42394 0.0
C1478 C 0.31191 0.61996 0.37308 0.0
C1479 C 0.27166 0.61203 0.3627 0.0
N1480 N 0.32851 0.60201 0.40778 0.0
N1481 N 0.28056 0.60344 0.37843 0.0
H1482 H 0.21794 0.37149 0.74001 0.0
H1483 H 0.19816 0.4641 0.81293 0.0
H1484 H 0.20556 0.42927 0.71912 0.0
H1485 H 0.22807 0.4131 0.83298 0.0
H1486 H 0.20087 0.45169 0.77852 0.0
H1487 H 0.22178 0.38629 0.77418 0.0
C1488 C 0.21623 0.38733 0.74258 0.0
C1489 C 0.21128 0.39913 0.72668 0.0
C1490 C 0.20701 0.44331 0.79046 0.0
C1491 C 0.21542 0.4161 0.76578 0.0
C1492 C 0.20558 0.45045 0.81017 0.0
C1493 C 0.21279 0.43961 0.82603 0.0
C1494 C 0.21548 0.42504 0.78647 0.0
C1495 C 0.22189 0.42178 0.82134 0.0
C1496 C 0.21845 0.39577 0.76209 0.0
C1497 C 0.20933 0.41959 0.73091 0.0
N1498 N 0.22279 0.41497 0.80202 0.0
N1499 N 0.21116 0.42737 0.75007 0.0
H1500 H 0.76125 0.93656 0.64722 0.0
H1501 H 0.75431 0.00517 0.55493 0.0
H1502 H 0.7542 -2e-05 0.65352 0.0
H1503 H 0.74233 0.94134 0.54851 0.0
H1504 H 0.75569 0.00347 0.5912 0.0
H1505 H 0.75547 0.93775 0.61104 0.0
C1506 C 0.75836 0.9507 0.64102 0.0
C1507 C 0.75831 0.96822 0.65342 0.0
C1508 C 0.75261 0.98985 0.58187 0.0
C1509 C 0.75189 0.96969 0.61208 0.0
C1510 C 0.75194 0.9908 0.5612 0.0
C1511 C 0.74829 0.97336 0.54877 0.0
C1512 C 0.74991 0.97127 0.59019 0.0
C1513 C 0.7451 0.95514 0.55762 0.0
C1514 C 0.75502 0.95135 0.62039 0.0
C1515 C 0.75441 0.9861 0.64456 0.0
N1516 N 0.74618 0.95453 0.57782 0.0
N1517 N 0.75155 0.98641 0.62444 0.0
H1518 H 0.75373 0.01315 0.2694 0.0
H1519 H 0.65919 0.02352 0.19357 0.0
H1520 H 0.69719 0.0319 0.28782 0.0
H1521 H 0.71495 0.00201 0.17564 0.0
H1522 H 0.6728 0.0268 0.22813 0.0
H1523 H 0.73998 0.00969 0.2348 0.0
C1524 C 0.73838 0.01647 0.26613 0.0
C1525 C 0.72641 0.02236 0.28149 0.0
C1526 C 0.68207 0.02138 0.21663 0.0
C1527 C 0.7106 0.01861 0.24199 0.0
C1528 C 0.67426 0.01937 0.19688 0.0
C1529 C 0.68593 0.01247 0.18161 0.0
C1530 C 0.70174 0.01652 0.22119 0.0
C1531 C 0.70549 0.00766 0.18683 0.0
C1532 C 0.73052 0.01445 0.24641 0.0
C1533 C 0.7067 0.02667 0.27648 0.0
N1534 N 0.71276 0.00979 0.20616 0.0
N1535 N 0.6994 0.02471 0.25715 0.0
H1536 H 0.38022 0.28392 0.58331 0.0
H1537 H 0.44841 0.34251 0.50993 0.0
H1538 H 0.35761 0.32312 0.53984 0.0
H1539 H 0.47041 0.29849 0.54845 0.0
H1540 H 0.41472 0.33439 0.51976 0.0
H1541 H 0.41299 0.28756 0.56966 0.0
C1542 C 0.38208 0.29314 0.57078 0.0
C1543 C 0.36615 0.30336 0.56283 0.0
C1544 C 0.42687 0.32638 0.52597 0.0
C1545 C 0.40366 0.30771 0.54724 0.0
C1546 C 0.44613 0.33109 0.52043 0.0
C1547 C 0.46225 0.32125 0.52849 0.0
C1548 C 0.4237 0.31184 0.53982 0.0
C1549 C 0.45839 0.30636 0.5418 0.0
C1550 C 0.4008 0.29522 0.563 0.0
C1551 C 0.36945 0.31504 0.54655 0.0
N1552 N 0.43953 0.30223 0.54719 0.0
N1553 N 0.38785 0.31702 0.53942 0.0
H1554 H 0.30143 0.69716 0.03719 0.0
H1555 H 0.1919 0.71681 0.99392 0.0
H1556 H 0.28664 0.75109 0.00953 0.0
H1557 H 0.20373 0.67061 0.03428 0.0
H1558 H 0.2268 0.72879 -0.00161 0.0
H1559 H 0.26599 0.68615 0.03503 0.0
C1560 C 0.29072 0.70658 0.03051 0.0
C1561 C 0.29694 0.72485 0.02313 0.0
C1562 C 0.22174 0.71608 0.00635 0.0
C1563 C 0.25647 0.71255 0.02087 0.0
C1564 C 0.20174 0.70928 0.0039 0.0
C1565 C 0.19473 0.69264 0.01374 0.0
C1566 C 0.23498 0.7061 0.01858 0.0
C1567 C 0.20843 0.68328 0.02612 0.0
C1568 C 0.2705 0.70041 0.02947 0.0
C1569 C 0.28243 0.73684 0.01527 0.0
N1570 N 0.2279 0.69008 0.02811 0.0
N1571 N 0.26289 0.7304 0.01417 0.0
H1572 H 0.73779 0.22553 0.39509 0.0
H1573 H 0.8249 0.15476 0.41979 0.0
H1574 H 0.73769 0.16489 0.37024 0.0
H1575 H 0.83533 0.21887 0.42117 0.0
H1576 H 0.79153 0.158 0.40479 0.0
H1577 H 0.77241 0.22334 0.40779 0.0
C1578 C 0.74508 0.21183 0.39217 0.0
C1579 C 0.73483 0.19536 0.38159 0.0
C1580 C 0.80118 0.17134 0.40833 0.0
C1581 C 0.77419 0.19268 0.39637 0.0
C1582 C 0.82031 0.16952 0.41684 0.0
C1583 C 0.83315 0.18656 0.42174 0.0
C1584 C 0.7946 0.19033 0.40496 0.0
C1585 C 0.82596 0.20531 0.418 0.0
C1586 C 0.76482 0.2106 0.3994 0.0
C1587 C 0.74502 0.17798 0.37824 0.0
N1588 N 0.80715 0.2067 0.40992 0.0
N1589 N 0.76406 0.17702 0.38579 0.0
H1590 H 0.61723 0.75228 -0.00104 0.0
H1591 H 0.51186 0.77157 0.94441 0.0
H1592 H 0.61035 0.77602 0.94083 0.0
H1593 H 0.51853 0.75159 0.00414 0.0
H1594 H 0.54777 0.77076 0.94189 0.0
H1595 H 0.58099 0.74902 -2e-05 0.0
C1596 C 0.60812 0.75664 0.98633 0.0
C1597 C 0.61688 0.76457 0.96983 0.0
C1598 C 0.5414 0.7665 0.95554 0.0
C1599 C 0.57536 0.76096 0.97098 0.0
C1600 C 0.52089 0.76708 0.95704 0.0
C1601 C 0.51216 0.76183 0.9746 0.0
C1602 C 0.55337 0.76063 0.97171 0.0
C1603 C 0.52458 0.75566 0.99029 0.0
C1604 C 0.58742 0.75482 0.98695 0.0
C1605 C 0.60429 0.76994 0.9539 0.0
N1606 N 0.54456 0.75534 0.98851 0.0
N1607 N 0.5842 0.76813 0.95492 0.0
H1608 H 0.54215 0.33052 0.29993 0.0
H1609 H 0.56614 0.44877 0.30754 0.0
H1610 H 0.59329 0.35905 0.27502 0.0
H1611 H 0.5263 0.41822 0.3452 0.0
H1612 H 0.57232 0.41662 0.29073 0.0
H1613 H 0.5321 0.36327 0.31156 0.0
C1614 C 0.55114 0.34367 0.29665 0.0
C1615 C 0.56871 0.342 0.28663 0.0
C1616 C 0.56215 0.41699 0.3026 0.0
C1617 C 0.55729 0.37954 0.30001 0.0
C1618 C 0.55855 0.43531 0.31212 0.0
C1619 C 0.54579 0.43611 0.32786 0.0
C1620 C 0.55276 0.39938 0.30874 0.0
C1621 C 0.53645 0.41821 0.33331 0.0
C1622 C 0.54543 0.36236 0.3034 0.0
C1623 C 0.57972 0.35961 0.28282 0.0
N1624 N 0.54013 0.40058 0.32378 0.0
N1625 N 0.57389 0.37765 0.28961 0.0
H1626 H 0.01734 0.26802 0.74776 0.0
H1627 H 0.0024 0.18717 0.65613 0.0
H1628 H 0.02019 0.28354 0.68663 0.0
H1629 H 0.02056 0.17226 0.71585 0.0
H1630 H 0.00618 0.22249 0.66711 0.0
H1631 H 0.01615 0.2327 0.73654 0.0
C1632 C 0.01763 0.264 0.73196 0.0
C1633 C 0.01814 0.27876 0.71804 0.0
C1634 C 0.00943 0.21147 0.67776 0.0
C1635 C 0.01672 0.23839 0.7051 0.0
C1636 C 0.00737 0.19126 0.6715 0.0
C1637 C 0.01116 0.17658 0.68506 0.0
C1638 C 0.01511 0.21711 0.69778 0.0
C1639 C 0.01712 0.18293 0.70491 0.0
C1640 C 0.01693 0.24385 0.72557 0.0
C1641 C 0.0187 0.27271 0.69778 0.0
N1642 N 0.01881 0.20268 0.71068 0.0
N1643 N 0.0178 0.25297 0.69189 0.0
H1644 H 0.44084 0.71716 0.20644 0.0
H1645 H 0.41296 0.83108 0.2172 0.0
H1646 H 0.38193 0.73542 0.21757 0.0
H1647 H 0.47176 0.81291 0.20559 0.0
H1648 H 0.40213 0.79624 0.22064 0.0
H1649 H 0.45318 0.75214 0.2093 0.0
C1650 C 0.43052 0.7285 0.20968 0.0
C1651 C 0.41027 0.72332 0.2116 0.0
C1652 C 0.41744 0.79987 0.21747 0.0
C1653 C 0.4243 0.76347 0.21475 0.0
C1654 C 0.42368 0.8198 0.21562 0.0
C1655 C 0.44329 0.82495 0.21097 0.0
C1656 C 0.43088 0.78492 0.21461 0.0
C1657 C 0.45642 0.80961 0.20884 0.0
C1658 C 0.43758 0.74849 0.21127 0.0
C1659 C 0.39764 0.73869 0.21586 0.0
N1660 N 0.44995 0.7903 0.21057 0.0
N1661 N 0.40483 0.75805 0.21714 0.0
H1662 H 0.93297 0.62125 0.78205 0.0
H1663 H 0.98345 0.52779 0.73157 0.0
H1664 H 0.98005 0.62666 0.7415 0.0
H1665 H 0.93426 0.52238 0.76957 0.0
H1666 H 0.98152 0.56402 0.73391 0.0
H1667 H 0.93204 0.58502 0.77627 0.0
C1668 C 0.94301 0.61485 0.77181 0.0
C1669 C 0.9567 0.62705 0.76234 0.0
C1670 C 0.97107 0.55491 0.74164 0.0
C1671 C 0.9558 0.58551 0.75577 0.0
C1672 C 0.97224 0.53422 0.7404 0.0
C1673 C 0.95905 0.52202 0.75046 0.0
C1674 C 0.95668 0.56351 0.75312 0.0
C1675 C 0.94461 0.53117 0.76143 0.0
C1676 C 0.94248 0.59413 0.76853 0.0
C1677 C 0.9693 0.61788 0.74918 0.0
N1678 N 0.9439 0.55136 0.76256 0.0
N1679 N 0.96864 0.59766 0.74641 0.0
H1680 H 0.69795 0.39233 0.63289 0.0
H1681 H 0.71202 0.38923 0.51549 0.0
H1682 H 0.71701 0.34143 0.59875 0.0
H1683 H 0.69722 0.44223 0.54931 0.0
H1684 H 0.71119 0.37088 0.5456 0.0
H1685 H 0.69445 0.41004 0.60221 0.0
C1686 C 0.7009 0.38469 0.61888 0.0
C1687 C 0.70741 0.36523 0.6183 0.0
C1688 C 0.7081 0.38652 0.5465 0.0
C1689 C 0.7041 0.38563 0.58327 0.0
C1690 C 0.70871 0.39707 0.52931 0.0
C1691 C 0.70498 0.4174 0.52993 0.0
C1692 C 0.70372 0.39631 0.56456 0.0
C1693 C 0.70019 0.42658 0.54816 0.0
C1694 C 0.69918 0.39491 0.60141 0.0
C1695 C 0.7119 0.3564 0.59986 0.0
N1696 N 0.69981 0.41599 0.5648 0.0
N1697 N 0.71019 0.36666 0.58311 0.0
H1698 H 0.75523 0.59843 0.26693 0.0
H1699 H 0.71071 0.60748 0.15514 0.0
H1700 H 0.73268 0.65231 0.24506 0.0
H1701 H 0.73343 0.5534 0.1765 0.0
H1702 H 0.72007 0.62448 0.18761 0.0
H1703 H 0.74923 0.58218 0.23354 0.0
C1704 C 0.74954 0.60703 0.25499 0.0
C1705 C 0.74494 0.62693 0.25866 0.0
C1706 C 0.72306 0.6089 0.18523 0.0
C1707 C 0.73726 0.60817 0.22054 0.0
C1708 C 0.7176 0.59914 0.16671 0.0
C1709 C 0.7211 0.57891 0.16314 0.0
C1710 C 0.7321 0.5984 0.2004 0.0
C1711 C 0.73052 0.56902 0.17856 0.0
C1712 C 0.74582 0.59763 0.23597 0.0
C1713 C 0.73656 0.63698 0.24283 0.0
N1714 N 0.73559 0.57883 0.19655 0.0
N1715 N 0.73298 0.6275 0.22448 0.0
H1716 H 0.27434 0.08089 0.34605 0.0
H1717 H 0.2861 0.01242 0.43655 0.0
H1718 H 0.25949 0.01753 0.33902 0.0
H1719 H 0.27142 0.07394 0.44479 0.0
H1720 H 0.27835 0.01377 0.40076 0.0
H1721 H 0.27584 0.07879 0.38233 0.0
C1722 C 0.27119 0.06658 0.35219 0.0
C1723 C 0.26659 0.04939 0.33961 0.0
C1724 C 0.27667 0.02689 0.41049 0.0
C1725 C 0.26868 0.04679 0.38094 0.0
C1726 C 0.28099 0.02613 0.43098 0.0
C1727 C 0.27962 0.04316 0.44386 0.0
C1728 C 0.27129 0.04487 0.40273 0.0
C1729 C 0.27324 0.06057 0.4355 0.0
C1730 C 0.27198 0.06539 0.37285 0.0
C1731 C 0.26273 0.03118 0.34825 0.0
N1732 N 0.26957 0.06105 0.41547 0.0
N1733 N 0.26412 0.03029 0.36843 0.0
H1734 H 0.26166 0.01498 0.74468 0.0
H1735 H 0.28889 0.95525 0.84021 0.0
H1736 H 0.25368 0.95085 0.74388 0.0
H1737 H 0.26236 0.01225 0.84451 0.0
H1738 H 0.28443 0.95514 0.8039 0.0
H1739 H 0.27087 0.01588 0.78061 0.0
C1740 C 0.26225 0.00108 0.75202 0.0
C1741 C 0.25706 0.9828 0.7414 0.0
C1742 C 0.27976 0.96769 0.8129 0.0
C1743 C 0.2675 0.98373 0.7822 0.0
C1744 C 0.28214 0.96775 0.83366 0.0
C1745 C 0.2758 0.98368 0.84568 0.0
C1746 C 0.27141 0.98386 0.80403 0.0
C1747 C 0.26777 -0.00027 0.83607 0.0
C1748 C 0.26731 0.00163 0.77247 0.0
C1749 C 0.25759 0.96523 0.75163 0.0
N1750 N 0.26582 -0.0006 0.81583 0.0
N1751 N 0.2628 0.96611 0.7715 0.0
H1752 H 0.59768 0.73127 0.34857 0.0
H1753 H 0.54471 0.69455 0.44473 0.0
H1754 H 0.63003 0.71138 0.40023 0.0
H1755 H 0.51308 0.71132 0.39116 0.0
H1756 H 0.5762 0.70088 0.42911 0.0
H1757 H 0.56654 0.72458 0.36446 0.0
C1758 C 0.5982 0.72532 0.36321 0.0
C1759 C 0.61643 0.72142 0.37289 0.0
C1760 C 0.56235 0.70322 0.42082 0.0
C1761 C 0.58085 0.71388 0.39131 0.0
C1762 C 0.54437 0.69956 0.42971 0.0
C1763 C 0.52619 0.70252 0.41931 0.0
C1764 C 0.56215 0.70987 0.40139 0.0
C1765 C 0.52669 0.7092 0.39993 0.0
C1766 C 0.58042 0.72149 0.37228 0.0
C1767 C 0.61628 0.71389 0.39191 0.0
N1768 N 0.54434 0.71262 0.39163 0.0
N1769 N 0.59875 0.71038 0.40053 0.0
H1770 H 0.73922 0.24558 0.95151 0.0
H1771 H 0.84545 0.27373 0.00802 0.0
H1772 H 0.74656 0.27112 0.01196 0.0
H1773 H 0.83725 0.25802 0.94481 0.0
H1774 H 0.80934 0.2737 0.00969 0.0
H1775 H 0.77515 0.25041 0.9487 0.0
C1776 C 0.7484 0.25244 0.96412 0.0
C1777 C 0.73989 0.25827 0.98188 0.0
C1778 C 0.81545 0.27038 0.99543 0.0
C1779 C 0.78105 0.26358 0.97892 0.0
C1780 C 0.8361 0.2705 0.99444 0.0
C1781 C 0.84446 0.26573 0.97626 0.0
C1782 C 0.80303 0.26534 0.97816 0.0
C1783 C 0.83151 0.26139 0.95923 0.0
C1784 C 0.7689 0.25522 0.9625 0.0
C1785 C 0.75244 0.26696 -0.00219 0.0
N1786 N 0.81147 0.26117 0.96062 0.0
N1787 N 0.77242 0.26922 -0.004 0.0
H1788 H 0.23084 0.7472 0.65187 0.0
H1789 H 0.16152 0.75391 0.55195 0.0
H1790 H 0.24854 0.78063 0.60234 0.0
H1791 H 0.14368 0.72278 0.60297 0.0
H1792 H 0.19277 0.76545 0.57061 0.0
H1793 H 0.19815 0.73951 0.63462 0.0
C1794 C 0.22773 0.75315 0.63746 0.0
C1795 C 0.2423 0.76487 0.62868 0.0
C1796 C 0.18198 0.75614 0.57773 0.0
C1797 C 0.205 0.75588 0.60865 0.0
C1798 C 0.1641 0.74961 0.56711 0.0
C1799 C 0.15002 0.73719 0.57583 0.0
C1800 C 0.18579 0.75022 0.59722 0.0
C1801 C 0.15425 0.73198 0.59548 0.0
C1802 C 0.20907 0.74876 0.6276 0.0
C1803 C 0.23755 0.77208 0.60993 0.0
N1804 N 0.17175 0.73845 0.60545 0.0
N1805 N 0.21934 0.76737 0.60047 0.0
H1806 H 0.3393 0.28525 0.08111 0.0
H1807 H 0.42719 0.26862 0.00816 0.0
H1808 H 0.33055 0.25266 0.02386 0.0
H1809 H 0.43599 0.29656 0.06767 0.0
H1810 H 0.39202 0.2615 0.01386 0.0
H1811 H 0.375 0.28871 0.07664 0.0
C1812 C 0.34495 0.27862 0.06769 0.0
C1813 C 0.332 0.26836 0.05299 0.0
C1814 C 0.40167 0.26913 0.02568 0.0
C1815 C 0.37284 0.27247 0.0476 0.0
C1816 C 0.42178 0.27313 0.02247 0.0
C1817 C 0.43456 0.28337 0.03739 0.0
C1818 C 0.39428 0.27543 0.04394 0.0
C1819 C 0.42664 0.28901 0.05557 0.0
C1820 C 0.36534 0.28058 0.06513 0.0
C1821 C 0.34007 0.26015 0.03583 0.0
N1822 N 0.40704 0.28504 0.05829 0.0
N1823 N 0.35997 0.26248 0.03355 0.0
H1824 H 0.34357 0.6002 0.73606 0.0
H1825 H 0.43654 0.54454 0.69559 0.0
H1826 H 0.38966 0.62969 0.7046 0.0
H1827 H 0.38981 0.51621 0.72724 0.0
H1828 H 0.41999 0.57598 0.69869 0.0
H1829 H 0.36078 0.56934 0.7331 0.0
C1830 C 0.35724 0.60012 0.72836 0.0
C1831 C 0.36492 0.61741 0.72012 0.0
C1832 C 0.41344 0.56288 0.70503 0.0
C1833 C 0.38487 0.58215 0.71681 0.0
C1834 C 0.42286 0.54493 0.70323 0.0
C1835 C 0.41465 0.52771 0.71127 0.0
C1836 C 0.39565 0.56358 0.71487 0.0
C1837 C 0.39694 0.52914 0.72114 0.0
C1838 C 0.36708 0.5825 0.72668 0.0
C1839 C 0.38279 0.61653 0.71047 0.0
N1840 N 0.38805 0.54671 0.72261 0.0
N1841 N 0.39217 0.59918 0.70908 0.0
H1842 H 0.9551 0.74133 0.22185 0.0
H1843 H 0.9916 0.84025 0.28847 0.0
H1844 H 0.00098 0.74221 0.26948 0.0
H1845 H 0.96371 0.84066 0.22899 0.0
H1846 H 0.99101 0.80384 0.28476 0.0
H1847 H 0.95373 0.77743 0.22742 0.0
C1848 C 0.9647 0.74905 0.23367 0.0
C1849 C 0.97786 0.73859 0.24553 0.0
C1850 C 0.98498 0.81196 0.27258 0.0
C1851 C 0.97639 0.77994 0.25192 0.0
C1852 C 0.98541 0.83277 0.27461 0.0
C1853 C 0.97775 0.84369 0.259 0.0
C1854 C 0.97664 0.80194 0.25491 0.0
C1855 C 0.9695 0.83301 0.24159 0.0
C1856 C 0.96393 0.76966 0.23681 0.0
C1857 C 0.99003 0.74942 0.26054 0.0
N1858 N 0.96915 0.81277 0.24004 0.0
N1859 N 0.989 0.76952 0.26332 0.0
H1860 H 0.65115 0.23848 0.73847 0.0
H1861 H 0.54962 0.17126 0.74274 0.0
H1862 H 0.59927 0.25948 0.76563 0.0
H1863 H 0.60337 0.14952 0.71993 0.0
H1864 H 0.56766 0.20337 0.75226 0.0
H1865 H 0.63397 0.20549 0.73231 0.0
C1866 C 0.63622 0.23605 0.74337 0.0
C1867 C 0.62677 0.25162 0.75294 0.0
C1868 C 0.5755 0.19155 0.74521 0.0
C1869 C 0.60685 0.21399 0.74568 0.0
C1870 C 0.56523 0.17318 0.73983 0.0
C1871 C 0.57493 0.1577 0.73035 0.0
C1872 C 0.59562 0.19445 0.74106 0.0
C1873 C 0.59514 0.16113 0.72681 0.0
C1874 C 0.62641 0.21723 0.73986 0.0
C1875 C 0.60736 0.24774 0.75883 0.0
N1876 N 0.60477 0.17912 0.73211 0.0
N1877 N 0.59799 0.22933 0.75501 0.0
H1878 H 0.08379 0.34086 0.27877 0.0
H1879 H 0.00686 0.42594 0.26439 0.0
H1880 H 0.02784 0.33122 0.24403 0.0
H1881 H 0.06252 0.43436 0.29987 0.0
H1882 H 0.01548 0.39216 0.25408 0.0
H1883 H 0.07744 0.37606 0.28411 0.0
C1884 C 0.07029 0.34623 0.27202 0.0
C1885 C 0.05646 0.33315 0.2607 0.0
C1886 C 0.02584 0.40144 0.26404 0.0
C1887 C 0.04889 0.37341 0.26698 0.0
C1888 C 0.02096 0.42075 0.26987 0.0
C1889 C 0.03389 0.43291 0.28319 0.0
C1890 C 0.04379 0.39428 0.27156 0.0
C1891 C 0.05191 0.42536 0.2899 0.0
C1892 C 0.06664 0.36633 0.27508 0.0
C1893 C 0.03916 0.34087 0.25236 0.0
N1894 N 0.05627 0.40654 0.2841 0.0
N1895 N 0.03579 0.36048 0.2558 0.0
H1896 H 0.36747 0.6018 0.3469 0.0
H1897 H 0.45563 0.53571 0.31386 0.0
H1898 H 0.3754 0.58471 0.28514 0.0
H1899 H 0.4586 0.57217 0.36896 0.0
H1900 H 0.42407 0.54993 0.30398 0.0
H1901 H 0.39854 0.58686 0.35632 0.0
C1902 C 0.3757 0.59486 0.3353 0.0
C1903 C 0.36883 0.59455 0.31517 0.0
C1904 C 0.43169 0.55484 0.31819 0.0
C1905 C 0.40446 0.57751 0.3259 0.0
C1906 C 0.44961 0.5467 0.32385 0.0
C1907 C 0.45969 0.55283 0.34222 0.0
C1908 C 0.42365 0.56889 0.33117 0.0
C1909 C 0.45136 0.56719 0.35459 0.0
C1910 C 0.39346 0.58637 0.34071 0.0
C1911 C 0.38014 0.58531 0.30083 0.0
N1912 N 0.43373 0.57463 0.34891 0.0
N1913 N 0.39744 0.57716 0.30647 0.0
H1914 H 0.12995 0.41269 0.6632 0.0
H1915 H 0.02889 0.37214 0.70741 0.0
H1916 H 0.1176 0.35111 0.67575 0.0
H1917 H 0.04298 0.43393 0.69678 0.0
H1918 H 0.05933 0.36326 0.69188 0.0
H1919 H 0.09605 0.41968 0.67086 0.0
C1920 C 0.12002 0.40056 0.66731 0.0
C1921 C 0.12673 0.38134 0.66908 0.0
C1922 C 0.05565 0.37874 0.69277 0.0
C1923 C 0.08787 0.38931 0.67812 0.0
C1924 C 0.03833 0.38383 0.70174 0.0
C1925 C 0.03343 0.40385 0.70359 0.0
C1926 C 0.06824 0.39376 0.68564 0.0
C1927 C 0.04603 0.4183 0.69558 0.0
C1928 C 0.10065 0.40458 0.67174 0.0
C1929 C 0.11312 0.36619 0.67432 0.0
N1930 N 0.06291 0.41299 0.68714 0.0
N1931 N 0.09441 0.37056 0.6789 0.0
H1932 H 0.83172 0.02793 0.73114 0.0
H1933 H 0.93661 0.01606 0.68515 0.0
H1934 H 0.85447 0.97081 0.71544 0.0
H1935 H 0.91941 0.07165 0.71239 0.0
H1936 H 0.90735 -0.00095 0.69759 0.0
H1937 H 0.86429 0.04408 0.72601 0.0
C1938 C 0.84364 0.01875 0.72688 0.0
C1939 C 0.84028 -0.002 0.72351 0.0
C1940 C 0.91007 0.01494 0.70101 0.0
C1941 C 0.87755 0.01643 0.71736 0.0
C1942 C 0.92687 0.02469 0.69399 0.0
C1943 C 0.9305 0.04541 0.69758 0.0
C1944 C 0.89661 0.02597 0.71157 0.0
C1945 C 0.91705 0.05575 0.70886 0.0
C1946 C 0.86224 0.02799 0.72393 0.0
C1947 C 0.85633 0.98686 0.7181 0.0
N1948 N 0.90063 0.04597 0.71529 0.0
N1949 N 0.87418 -0.00376 0.71494 0.0
H1950 H 0.65282 0.97126 0.24248 0.0
H1951 H 0.53829 0.94446 0.26125 0.0
H1952 H 0.62765 0.98095 0.29953 0.0
H1953 H 0.56275 0.93884 0.20348 0.0
H1954 H 0.57115 0.95666 0.27585 0.0
H1955 H 0.62015 0.9583 0.2282 0.0
C1956 C 0.64043 0.97062 0.25204 0.0
C1957 C 0.64299 0.9772 0.27225 0.0
C1958 C 0.56934 0.95276 0.25998 0.0
C1959 C 0.60549 0.96236 0.25596 0.0
C1960 C 0.5506 0.94568 0.25165 0.0
C1961 C 0.54775 0.94063 0.2311 0.0
C1962 C 0.58539 0.95474 0.24769 0.0
C1963 C 0.56419 0.94279 0.21935 0.0
C1964 C 0.62176 0.96324 0.24385 0.0
C1965 C 0.62637 0.97606 0.28387 0.0
N1966 N 0.58229 0.94965 0.22781 0.0
N1967 N 0.60834 0.96878 0.27556 0.0
H1968 H 0.327 0.38666 0.59186 0.0
H1969 H 0.3003 0.48395 0.53514 0.0
H1970 H 0.27126 0.39156 0.55799 0.0
H1971 H 0.35846 0.47419 0.5618 0.0
H1972 H 0.28744 0.4526 0.54788 0.0
H1973 H 0.33648 0.42121 0.58586 0.0
C1974 C 0.31656 0.39511 0.58346 0.0
C1975 C 0.29833 0.38614 0.57532 0.0
C1976 C 0.30298 0.4574 0.55105 0.0
C1977 C 0.30931 0.42572 0.56806 0.0
C1978 C 0.3103 0.47532 0.54385 0.0
C1979 C 0.33053 0.48157 0.54723 0.0
C1980 C 0.31595 0.44573 0.5618 0.0
C1981 C 0.34285 0.46976 0.55852 0.0
C1982 C 0.32207 0.41483 0.57991 0.0
C1983 C 0.28552 0.39783 0.56443 0.0
N1984 N 0.33539 0.4524 0.56532 0.0
N1985 N 0.29132 0.41698 0.56096 0.0
H1986 H 0.30736 0.62075 0.99065 0.0
H1987 H 0.2089 0.56353 0.93764 0.0
H1988 H 0.25384 0.64986 0.97437 0.0
H1989 H 0.2628 0.53451 0.95254 0.0
H1990 H 0.22496 0.59519 0.95156 0.0
H1991 H 0.29116 0.58894 0.97725 0.0
C1992 C 0.2922 0.62046 0.98428 0.0
C1993 C 0.28196 0.63803 0.9836 0.0
C1994 C 0.23329 0.58191 0.95179 0.0
C1995 C 0.26333 0.60162 0.96821 0.0
C1996 C 0.22409 0.56379 0.94393 0.0
C1997 C 0.2345 0.54631 0.94393 0.0
C1998 C 0.25308 0.5826 0.95976 0.0
C1999 C 0.25427 0.54764 0.952 0.0
C2000 C 0.28296 0.60228 0.97661 0.0
C2001 C 0.26233 0.63672 0.97517 0.0
N2002 N 0.2629 0.56545 0.95961 0.0
N2003 N 0.25367 0.61885 0.96781 0.0
H2004 H 0.6689 0.1447 0.4303 0.0
H2005 H 0.68237 0.02811 0.41127 0.0
H2006 H 0.65407 0.11198 0.37376 0.0
H2007 H 0.70716 0.06392 0.46306 0.0
H2008 H 0.66483 0.05685 0.40028 0.0
H2009 H 0.67532 0.11338 0.44536 0.0
C2010 C 0.66662 0.1309 0.42111 0.0
C2011 C 0.66134 0.13102 0.40062 0.0
C2012 C 0.6739 0.05833 0.41418 0.0
C2013 C 0.66888 0.09511 0.41777 0.0
C2014 C 0.68383 0.04192 0.4205 0.0
C2015 C 0.69644 0.04376 0.43796 0.0
C2016 C 0.67654 0.07662 0.42547 0.0
C2017 C 0.69789 0.062 0.44931 0.0
C2018 C 0.67038 0.11301 0.42972 0.0
C2019 C 0.65839 0.11263 0.38955 0.0
N2020 N 0.68819 0.07777 0.44279 0.0
N2021 N 0.6625 0.09543 0.39819 0.0
H2022 H 0.71303 0.83546 0.02494 0.0
H2023 H 0.66626 0.9402 0.02048 0.0
H2024 H 0.68833 0.85775 0.97047 0.0
H2025 H 0.70701 0.92659 0.06915 0.0
H2026 H 0.67509 0.91039 0.00177 0.0
H2027 H 0.7122 0.86884 0.04128 0.0
C2028 C 0.70773 0.84742 0.01632 0.0
C2029 C 0.70048 0.84372 -0.00363 0.0
C2030 C 0.68229 0.91403 0.01646 0.0
C2031 C 0.69924 0.88183 0.01506 0.0
C2032 C 0.67733 0.93119 0.02717 0.0
C2033 C 0.68582 0.93604 0.04656 0.0
C2034 C 0.6956 0.90131 0.02523 0.0
C2035 C 0.69973 0.92332 0.05446 0.0
C2036 C 0.70726 0.86647 0.02567 0.0
C2037 C 0.6939 0.85983 0.98592 0.0
N2038 N 0.70401 0.90643 0.04387 0.0
N2039 N 0.69315 0.87809 0.99547 0.0
H2040 H 0.62186 0.30574 0.34661 0.0
H2041 H 0.55925 0.27658 0.43742 0.0
H2042 H 0.58831 0.24908 0.34697 0.0
H2043 H 0.60623 0.32334 0.44202 0.0
H2044 H 0.57036 0.26527 0.40488 0.0
H2045 H 0.61649 0.31193 0.38179 0.0
C2046 C 0.61379 0.29434 0.35419 0.0
C2047 C 0.60544 0.27688 0.34375 0.0
C2048 C 0.57842 0.27781 0.41316 0.0
C2049 C 0.59962 0.28378 0.38433 0.0
C2050 C 0.57204 0.28431 0.43167 0.0
C2051 C 0.58172 0.30102 0.44234 0.0
C2052 C 0.59438 0.28831 0.40512 0.0
C2053 C 0.59836 0.31036 0.43433 0.0
C2054 C 0.61081 0.29787 0.37435 0.0
C2055 C 0.59496 0.26277 0.35441 0.0
N2056 N 0.60398 0.30406 0.41608 0.0
N2057 N 0.59221 0.2666 0.37411 0.0
H2058 H 0.98225 0.29007 0.6168 0.0
H2059 H 0.91769 0.20257 0.55267 0.0
H2060 H 0.95026 0.2417 0.64308 0.0
H2061 H 0.95953 0.24355 0.52733 0.0
H2062 H 0.92721 0.21838 0.58571 0.0
H2063 H 0.97167 0.27498 0.58368 0.0
C2064 C 0.97295 0.2763 0.61562 0.0
C2065 C 0.96716 0.26712 0.63277 0.0
C2066 C 0.93429 0.22391 0.57291 0.0
C2067 C 0.95496 0.24979 0.59485 0.0
C2068 C 0.92893 0.21483 0.55402 0.0
C2069 C 0.93786 0.22165 0.53711 0.0
C2070 C 0.94861 0.24004 0.57497 0.0
C2071 C 0.95203 0.23791 0.53983 0.0
C2072 C 0.96696 0.26768 0.59669 0.0
C2073 C 0.95512 0.24929 0.63029 0.0
N2074 N 0.95697 0.24652 0.55837 0.0
N2075 N 0.94941 0.24122 0.61169 0.0
H2076 H 0.3315 0.69557 0.12805 0.0
H2077 H 0.40596 0.69243 0.03986 0.0
H2078 H 0.38194 0.65885 0.12729 0.0
H2079 H 0.36329 0.73704 0.04843 0.0
H2080 H 0.39292 0.67502 0.06784 0.0
H2081 H 0.33829 0.70541 0.09466 0.0
C2082 C 0.34382 0.6893 0.12075 0.0
C2083 C 0.35639 0.67664 0.13065 0.0
C2084 C 0.38628 0.68851 0.06343 0.0
C2085 C 0.36436 0.68804 0.09246 0.0
C2086 C 0.39366 0.6984 0.04743 0.0
C2087 C 0.38583 0.71633 0.04196 0.0
C2088 C 0.37088 0.69655 0.07389 0.0
C2089 C 0.36998 0.72345 0.05235 0.0
C2090 C 0.34773 0.69501 0.1017 0.0
C2091 C 0.37199 0.66884 0.12032 0.0
N2092 N 0.36311 0.7136 0.06786 0.0
N2093 N 0.37571 0.67488 0.10188 0.0
H2094 H 0.98502 0.71245 0.85523 0.0
H2095 H 0.08747 0.68082 0.90562 0.0
H2096 H 0.03358 0.69167 0.82221 0.0
H2097 H 0.04207 0.70735 0.93924 0.0
H2098 H 0.06903 0.68764 0.87486 0.0
H2099 H 0.00658 0.71369 0.88592 0.0
C2100 C 0.00029 0.70842 0.85437 0.0
C2101 C 0.00742 0.7017 0.83613 0.0
C2102 C 0.06316 0.69216 0.88895 0.0
C2103 C 0.0321 0.7029 0.87122 0.0
C2104 C 0.07379 0.68839 0.9066 0.0
C2105 C 0.06633 0.69343 0.92517 0.0
C2106 C 0.04476 0.70086 0.88973 0.0
C2107 C 0.04825 0.70286 0.92531 0.0
C2108 C 0.01258 0.70909 0.87191 0.0
C2109 C 0.02736 0.69675 0.83593 0.0
N2110 N 0.038 0.7061 0.90788 0.0
N2111 N 0.0389 0.69724 0.85322 0.0
H2112 H 0.62217 0.40748 0.67769 0.0
H2113 H 0.50859 0.41216 0.63899 0.0
H2114 H 0.60211 0.39414 0.61598 0.0
H2115 H 0.53365 0.44064 0.69476 0.0
H2116 H 0.54216 0.40435 0.63022 0.0
H2117 H 0.58916 0.41813 0.68446 0.0
C2118 C 0.61084 0.40689 0.66553 0.0
C2119 C 0.61493 0.39998 0.64622 0.0
C2120 C 0.54027 0.41241 0.64432 0.0
C2121 C 0.57696 0.41202 0.65393 0.0
C2122 C 0.52113 0.41696 0.6493 0.0
C2123 C 0.51821 0.42689 0.66776 0.0
C2124 C 0.55659 0.41771 0.65794 0.0
C2125 C 0.53506 0.43255 0.68059 0.0
C2126 C 0.59198 0.41302 0.6694 0.0
C2127 C 0.59963 0.3995 0.63105 0.0
N2128 N 0.55344 0.42775 0.67551 0.0
N2129 N 0.58125 0.40531 0.63526 0.0
H2130 H 0.83124 0.56391 0.28494 0.0
H2131 H 0.94876 0.57257 0.27363 0.0
H2132 H 0.86225 0.61469 0.26168 0.0
H2133 H 0.91727 0.52058 0.294 0.0
H2134 H 0.91694 0.58714 0.26665 0.0
H2135 H 0.86225 0.54685 0.28614 0.0
C2136 C 0.84454 0.57144 0.27996 0.0
C2137 C 0.84417 0.59084 0.27336 0.0
C2138 C 0.91697 0.57248 0.2725 0.0
C2139 C 0.87978 0.5714 0.27477 0.0
C2140 C 0.93515 0.56408 0.27637 0.0
C2141 C 0.93573 0.54537 0.28457 0.0
C2142 C 0.8992 0.56215 0.27692 0.0
C2143 C 0.91758 0.5352 0.28805 0.0
C2144 C 0.86226 0.56167 0.28064 0.0
C2145 C 0.86185 0.59979 0.26699 0.0
N2146 N 0.90009 0.54377 0.28434 0.0
N2147 N 0.87896 0.59006 0.268 0.0
H2148 H 0.15428 0.03712 0.29089 0.0
H2149 H 0.07359 0.94867 0.30838 0.0
H2150 H 0.16896 0.98453 0.32121 0.0
H2151 H 0.06362 0.99521 0.26805 0.0
H2152 H 0.10744 0.96342 0.31669 0.0
H2153 H 0.11982 0.02379 0.28592 0.0
C2154 C 0.15026 0.02279 0.2966 0.0
C2155 C 0.16459 0.01186 0.30637 0.0
C2156 C 0.09781 0.9704 0.30606 0.0
C2157 C 0.12505 -0.00351 0.30069 0.0
C2158 C 0.07848 0.96207 0.3014 0.0
C2159 C 0.06585 0.97067 0.28741 0.0
C2160 C 0.10443 0.98757 0.29681 0.0
C2161 C 0.07297 0.98794 0.2787 0.0
C2162 C 0.13055 0.01517 0.2937 0.0
C2163 C 0.15843 0.99341 0.3135 0.0
N2164 N 0.09176 -0.0042 0.28354 0.0
N2165 N 0.13911 0.98627 0.31047 0.0
H2166 H 0.34551 0.05034 0.7296 0.0
H2167 H 0.45778 0.01942 0.72434 0.0
H2168 H 0.36243 0.98936 0.72765 0.0
H2169 H 0.44208 0.08036 0.73454 0.0
H2170 H 0.42303 0.0082 0.72672 0.0
H2171 H 0.38076 0.06173 0.73225 0.0
C2172 C 0.35662 0.03935 0.72983 0.0
C2173 C 0.35098 0.01886 0.72828 0.0
C2174 C 0.42719 0.02402 0.72859 0.0
C2175 C 0.39137 0.0318 0.73124 0.0
C2176 C 0.44711 0.03046 0.72739 0.0
C2177 C 0.45296 0.05091 0.72919 0.0
C2178 C 0.41287 0.0381 0.73146 0.0
C2179 C 0.43827 0.06447 0.73272 0.0
C2180 C 0.37675 0.04586 0.73137 0.0
C2181 C 0.36605 0.0053 0.72873 0.0
N2182 N 0.41891 0.05784 0.73361 0.0
N2183 N 0.38552 0.01201 0.73004 0.0
H2184 H 0.61412 0.61745 0.40597 0.0
H2185 H 0.69491 0.55253 0.45814 0.0
H2186 H 0.67628 0.63708 0.41567 0.0
H2187 H 0.64577 0.52502 0.4201 0.0
H2188 H 0.68436 0.58525 0.44977 0.0
H2189 H 0.62191 0.5849 0.41817 0.0
C2190 C 0.62934 0.61501 0.41082 0.0
C2191 C 0.64461 0.62994 0.40957 0.0
C2192 C 0.67585 0.57201 0.44337 0.0
C2193 C 0.65344 0.59306 0.42388 0.0
C2194 C 0.6819 0.55329 0.44803 0.0
C2195 C 0.67147 0.53586 0.43953 0.0
C2196 C 0.65903 0.57343 0.43039 0.0
C2197 C 0.65427 0.53796 0.42709 0.0
C2198 C 0.63374 0.59646 0.41773 0.0
C2199 C 0.66404 0.626 0.41621 0.0
N2200 N 0.64862 0.55643 0.42283 0.0
N2201 N 0.66789 0.60795 0.42309 0.0
H2202 H 0.73346 0.35333 0.04857 0.0
H2203 H 0.71947 0.46607 0.022 0.0
H2204 H 0.72624 0.3721 0.98841 0.0
H2205 H 0.73237 0.44861 0.08195 0.0
H2206 H 0.72399 0.43206 0.00937 0.0
H2207 H 0.73486 0.38828 0.06105 0.0
C2208 C 0.7323 0.36479 0.03797 0.0
C2209 C 0.72958 0.35975 0.01741 0.0
C2210 C 0.726 0.43569 0.02528 0.0
C2211 C 0.73109 0.3998 0.03161 0.0
C2212 C 0.72357 0.45519 0.03252 0.0
C2213 C 0.72546 0.46028 0.05312 0.0
C2214 C 0.73022 0.42103 0.03871 0.0
C2215 C 0.73043 0.44534 0.06599 0.0
C2216 C 0.73311 0.38476 0.04511 0.0
C2217 C 0.72825 0.37526 0.00438 0.0
N2218 N 0.73249 0.42638 0.05859 0.0
N2219 N 0.72887 0.39455 0.01171 0.0
H2220 H 0.25363 0.86529 0.58327 0.0
H2221 H 0.29986 0.97734 0.60187 0.0
H2222 H 0.28256 0.88919 0.63925 0.0
H2223 H 0.26393 0.95647 0.54875 0.0
H2224 H 0.29254 0.94537 0.6162 0.0
H2225 H 0.25611 0.8987 0.57065 0.0
C2226 C 0.26039 0.87757 0.59295 0.0
C2227 C 0.26803 0.87439 0.61231 0.0
C2228 C 0.2861 0.9478 0.60148 0.0
C2229 C 0.27098 0.91264 0.59793 0.0
C2230 C 0.29033 0.96603 0.59328 0.0
C2231 C 0.2826 0.96949 0.57405 0.0
C2232 C 0.27421 0.93279 0.5903 0.0
C2233 C 0.27011 0.95443 0.56367 0.0
C2234 C 0.26178 0.89665 0.58574 0.0
C2235 C 0.27656 0.89089 0.62421 0.0
N2236 N 0.26647 0.93665 0.57184 0.0
N2237 N 0.27793 0.90924 0.61677 0.0
H2238 H 0.31778 0.16837 0.99287 0.0
H2239 H 0.29302 0.05309 0.01023 0.0
H2240 H 0.30466 0.14623 0.04994 0.0
H2241 H 0.30851 0.0747 0.95364 0.0
H2242 H 0.2992 0.08691 0.02547 0.0
H2243 H 0.3165 0.13401 0.97865 0.0
C2244 C 0.31475 0.15629 0.00245 0.0
C2245 C 0.31119 0.16021 0.02261 0.0
C2246 C 0.3014 0.08425 0.00975 0.0
C2247 C 0.30963 0.12083 0.0064 0.0
C2248 C 0.2978 0.06495 0.00103 0.0
C2249 C 0.30012 0.06108 0.9806 0.0
C2250 C 0.30726 0.09988 -0.00205 0.0
C2251 C 0.30666 0.07697 0.96947 0.0
C2252 C 0.31402 0.13667 0.99432 0.0
C2253 C 0.30741 0.14395 0.0343 0.0
N2254 N 0.30983 0.09569 0.97825 0.0
N2255 N 0.3066 0.12499 0.026 0.0
H2256 H 0.40007 0.66742 0.62647 0.0
H2257 H 0.41931 0.61776 0.51919 0.0
H2258 H 0.39179 0.60394 0.61222 0.0
H2259 H 0.43586 0.67915 0.5385 0.0
H2260 H 0.40896 0.61197 0.55283 0.0
H2261 H 0.41354 0.67154 0.59412 0.0
C2262 C 0.40121 0.65429 0.61659 0.0
C2263 C 0.3947 0.6353 0.62206 0.0
C2264 C 0.41509 0.62662 0.54971 0.0
C2265 C 0.41011 0.63994 0.58479 0.0
C2266 C 0.42088 0.62998 0.53048 0.0
C2267 C 0.42866 0.64894 0.526 0.0
C2268 C 0.41697 0.64238 0.56448 0.0
C2269 C 0.43039 0.66418 0.54128 0.0
C2270 C 0.40897 0.65665 0.59809 0.0
C2271 C 0.39657 0.61887 0.60859 0.0
N2272 N 0.42454 0.66058 0.55974 0.0
N2273 N 0.404 0.62157 0.5905 0.0
H2274 H 0.98769 0.75151 0.36191 0.0
H2275 H 0.06509 0.70643 0.43956 0.0
H2276 H 0.02982 0.70834 0.34572 0.0
H2277 H 0.02248 0.74856 0.45713 0.0
H2278 H 0.05343 0.70859 0.40486 0.0
H2279 H 0.00107 0.75202 0.39659 0.0
C2280 C -0.00022 0.74219 0.36561 0.0
C2281 C 0.00759 0.72981 0.35087 0.0
C2282 C 0.04666 0.71746 0.41626 0.0
C2283 C 0.02296 0.73033 0.39052 0.0
C2284 C 0.05345 0.71637 0.43612 0.0
C2285 C 0.04482 0.72739 0.45136 0.0
C2286 C 0.03105 0.72963 0.41147 0.0
C2287 C 0.02944 0.73964 0.44593 0.0
C2288 C 0.00741 0.74249 0.38542 0.0
C2289 C 0.02327 0.71807 0.35656 0.0
N2290 N 0.02302 0.7404 0.42644 0.0
N2291 N 0.03039 0.7186 0.3759 0.0
H2292 H 0.57257 0.26443 0.84528 0.0
H2293 H 0.58873 0.28425 0.96347 0.0
H2294 H 0.63028 0.276 0.87652 0.0
H2295 H 0.53167 0.26602 0.93332 0.0
H2296 H 0.60433 0.27969 0.93192 0.0
H2297 H 0.55738 0.26369 0.87738 0.0
C2298 C 0.58206 0.26671 0.85888 0.0
C2299 C 0.60273 0.27042 0.85819 0.0
C2300 C 0.58842 0.27653 0.93221 0.0
C2301 C 0.58542 0.26966 0.89499 0.0
C2302 C 0.57949 0.27899 0.95029 0.0
C2303 C 0.55879 0.2756 0.95111 0.0
C2304 C 0.5766 0.27076 0.9147 0.0
C2305 C 0.54761 0.26915 0.93338 0.0
C2306 C 0.57338 0.26626 0.87721 0.0
C2307 C 0.61429 0.27319 0.8763 0.0
N2308 N 0.55663 0.26708 0.91589 0.0
N2309 N 0.60547 0.27288 0.89394 0.0
H2310 H 0.03489 0.26535 0.14644 0.0
H2311 H 0.96215 0.3064 0.06175 0.0
H2312 H 0.00288 0.31857 0.15546 0.0
H2313 H 0.99083 0.25085 0.05559 0.0
H2314 H 0.97841 0.31244 0.09528 0.0
H2315 H 0.02026 0.26106 0.11237 0.0
C2316 C 0.02481 0.27619 0.14125 0.0
C2317 C 0.02006 0.29232 0.15388 0.0
C2318 C 0.98116 0.29895 0.08657 0.0
C2319 C 0.00319 0.28747 0.11474 0.0
C2320 C 0.97197 0.29555 0.06739 0.0
C2321 C 0.97505 0.27803 0.05589 0.0
C2322 C 0.99359 0.28479 0.09425 0.0
C2323 C 0.98778 0.2644 0.06404 0.0
C2324 C 0.01643 0.27371 0.12176 0.0
C2325 C 0.00692 0.30589 0.14627 0.0
N2326 N -0.00346 0.26806 0.08268 0.0
N2327 N -0.00109 0.30313 0.12719 0.0
loop_
_geom_bond_atom_site_label_1
_geom_bond_atom_site_label_2
_geom_bond_distance
_geom_bond_site_symmetry_2
_ccdc_geom_bond_type
O0 Cd1 2.300 . S
O0 C7 1.275 . S
Cd1 O0 2.300 . S
Cd1 O9 2.381 . S
Cd1 O10 2.378 . S
O2 Cd3 2.385 . S
O2 C7 1.255 . S
Cd3 O2 2.385 . S
Cd3 O4 2.317 . S
O4 Cd3 2.317 . S
O4 C5 1.232 . S
C5 O4 1.232 . S
C5 O6 1.218 . S
O6 C5 1.218 . S
C7 O0 1.275 . S
C7 O2 1.255 . S
C8 O9 1.258 . S
C8 O10 1.256 . S
O9 Cd1 2.381 . S
O9 C8 1.258 . S
O10 Cd1 2.378 . S
O10 C8 1.256 . S
O11 Cd12 2.300 . S
O11 C18 1.275 . S
Cd12 O11 2.300 . S
Cd12 O20 2.381 . S
Cd12 O21 2.378 . S
O13 Cd14 2.385 . S
O13 C18 1.255 . S
Cd14 O13 2.385 . S
Cd14 O15 2.317 . S
O15 Cd14 2.317 . S
O15 C16 1.232 . S
C16 O15 1.232 . S
C16 O17 1.218 . S
O17 C16 1.218 . S
C18 O11 1.275 . S
C18 O13 1.255 . S
C19 O20 1.258 . S
C19 O21 1.256 . S
O20 Cd12 2.381 . S
O20 C19 1.258 . S
O21 Cd12 2.378 . S
O21 C19 1.256 . S
O22 Cd23 2.300 . S
O22 C29 1.275 . S
Cd23 O22 2.300 . S
Cd23 O31 2.381 1_565 S
Cd23 O32 2.378 . S
O24 Cd25 2.385 . S
O24 C29 1.255 . S
Cd25 O24 2.385 . S
Cd25 O26 2.317 . S
O26 Cd25 2.317 . S
O26 C27 1.232 . S
C27 O26 1.232 . S
C27 O28 1.218 . S
O28 C27 1.218 . S
C29 O22 1.275 . S
C29 O24 1.255 . S
C30 O31 1.258 . S
C30 O32 1.256 1_545 S
O31 Cd23 2.381 1_545 S
O31 C30 1.258 . S
O32 Cd23 2.378 . S
O32 C30 1.256 1_565 S
O33 Cd34 2.300 . S
O33 C40 1.275 . S
Cd34 O33 2.300 . S
Cd34 O42 2.381 1_545 S
Cd34 O43 2.378 . S
O35 Cd36 2.385 . S
O35 C40 1.255 . S
Cd36 O35 2.385 . S
Cd36 O37 2.317 . S
O37 Cd36 2.317 . S
O37 C38 1.232 . S
C38 O37 1.232 . S
C38 O39 1.218 . S
O39 C38 1.218 . S
C40 O33 1.275 . S
C40 O35 1.255 . S
C41 O42 1.258 . S
C41 O43 1.256 1_565 S
O42 Cd34 2.381 1_565 S
O42 C41 1.258 . S
O43 Cd34 2.378 . S
O43 C41 1.256 1_545 S
O44 Cd45 2.300 . S
O44 C51 1.275 . S
Cd45 O44 2.300 . S
Cd45 O53 2.381 . S
Cd45 O54 2.378 . S
O46 Cd47 2.385 . S
O46 C51 1.255 . S
Cd47 O46 2.385 . S
Cd47 O48 2.317 . S
O48 Cd47 2.317 . S
O48 C49 1.232 . S
C49 O48 1.232 . S
C49 O50 1.218 . S
O50 C49 1.218 . S
C51 O44 1.275 . S
C51 O46 1.255 . S
C52 O53 1.258 . S
C52 O54 1.256 . S
O53 Cd45 2.381 . S
O53 C52 1.258 . S
O54 Cd45 2.378 . S
O54 C52 1.256 . S
O55 Cd56 2.300 . S
O55 C62 1.275 . S
Cd56 O55 2.300 . S
Cd56 O64 2.381 1_554 S
Cd56 O65 2.378 . S
O57 Cd58 2.385 . S
O57 C62 1.255 . S
Cd58 O57 2.385 . S
Cd58 O59 2.317 . S
O59 Cd58 2.317 . S
O59 C60 1.232 . S
C60 O59 1.232 . S
C60 O61 1.218 . S
O61 C60 1.218 . S
C62 O55 1.275 . S
C62 O57 1.255 . S
C63 O64 1.258 . S
C63 O65 1.256 1_556 S
O64 Cd56 2.381 1_556 S
O64 C63 1.258 . S
O65 Cd56 2.378 . S
O65 C63 1.256 1_554 S
O66 Cd67 2.300 . S
O66 C73 1.275 . S
Cd67 O66 2.300 . S
Cd67 O75 2.381 . S
Cd67 O76 2.378 . S
O68 Cd69 2.385 . S
O68 C73 1.255 . S
Cd69 O68 2.385 . S
Cd69 O70 2.317 . S
O70 Cd69 2.317 . S
O70 C71 1.232 . S
C71 O70 1.232 . S
C71 O72 1.218 . S
O72 C71 1.218 . S
C73 O66 1.275 . S
C73 O68 1.255 . S
C74 O75 1.258 . S
C74 O76 1.256 . S
O75 Cd67 2.381 . S
O75 C74 1.258 . S
O76 Cd67 2.378 . S
O76 C74 1.256 . S
O77 Cd78 2.300 . S
O77 C84 1.275 . S
Cd78 O77 2.300 . S
Cd78 O86 2.381 1_556 S
Cd78 O87 2.378 . S
O79 Cd80 2.385 . S
O79 C84 1.255 . S
Cd80 O79 2.385 . S
Cd80 O81 2.317 . S
O81 Cd80 2.317 . S
O81 C82 1.232 . S
C82 O81 1.232 . S
C82 O83 1.218 . S
O83 C82 1.218 . S
C84 O77 1.275 . S
C84 O79 1.255 . S
C85 O86 1.258 . S
C85 O87 1.256 1_554 S
O86 Cd78 2.381 1_554 S
O86 C85 1.258 . S
O87 Cd78 2.378 . S
O87 C85 1.256 1_556 S
O88 Cd89 2.300 . S
O88 C95 1.275 . S
Cd89 O88 2.300 . S
Cd89 O97 2.381 . S
Cd89 O98 2.378 . S
O90 Cd91 2.385 . S
O90 C95 1.255 . S
Cd91 O90 2.385 . S
Cd91 O92 2.317 . S
O92 Cd91 2.317 . S
O92 C93 1.232 . S
C93 O92 1.232 . S
C93 O94 1.218 . S
O94 C93 1.218 . S
C95 O88 1.275 . S
C95 O90 1.255 . S
C96 O97 1.258 . S
C96 O98 1.256 . S
O97 Cd89 2.381 . S
O97 C96 1.258 . S
O98 Cd89 2.378 . S
O98 C96 1.256 . S
O99 Cd100 2.300 . S
O99 C106 1.275 . S
Cd100 O99 2.300 . S
Cd100 O108 2.381 1_455 S
Cd100 O109 2.378 . S
O101 Cd102 2.385 . S
O101 C106 1.255 . S
Cd102 O101 2.385 . S
Cd102 O103 2.317 . S
O103 Cd102 2.317 . S
O103 C104 1.232 . S
C104 O103 1.232 . S
C104 O105 1.218 . S
O105 C104 1.218 . S
C106 O99 1.275 . S
C106 O101 1.255 . S
C107 O108 1.258 . S
C107 O109 1.256 1_655 S
O108 Cd100 2.381 1_655 S
O108 C107 1.258 . S
O109 Cd100 2.378 . S
O109 C107 1.256 1_455 S
O110 Cd111 2.300 . S
O110 C117 1.275 . S
Cd111 O110 2.300 . S
Cd111 O119 2.381 . S
Cd111 O120 2.378 . S
O112 Cd113 2.385 . S
O112 C117 1.255 . S
Cd113 O112 2.385 . S
Cd113 O114 2.317 . S
O114 Cd113 2.317 . S
O114 C115 1.232 . S
C115 O114 1.232 . S
C115 O116 1.218 . S
O116 C115 1.218 . S
C117 O110 1.275 . S
C117 O112 1.255 . S
C118 O119 1.258 . S
C118 O120 1.256 . S
O119 Cd111 2.381 . S
O119 C118 1.258 . S
O120 Cd111 2.378 . S
O120 C118 1.256 . S
O121 Cd122 2.300 . S
O121 C128 1.275 . S
Cd122 O121 2.300 . S
Cd122 O130 2.381 1_655 S
Cd122 O131 2.378 . S
O123 Cd124 2.385 . S
O123 C128 1.255 . S
Cd124 O123 2.385 . S
Cd124 O125 2.317 . S
O125 Cd124 2.317 . S
O125 C126 1.232 . S
C126 O125 1.232 . S
C126 O127 1.218 . S
O127 C126 1.218 . S
C128 O121 1.275 . S
C128 O123 1.255 . S
C129 O130 1.258 . S
C129 O131 1.256 1_455 S
O130 Cd122 2.381 1_455 S
O130 C129 1.258 . S
O131 Cd122 2.378 . S
O131 C129 1.256 1_655 S
O132 Cd133 2.300 . S
O132 C139 1.275 . S
Cd133 O132 2.300 . S
Cd133 O141 2.381 . S
Cd133 O142 2.378 . S
O134 Cd135 2.385 . S
O134 C139 1.255 . S
Cd135 O134 2.385 . S
Cd135 O136 2.317 . S
O136 Cd135 2.317 . S
O136 C137 1.232 . S
C137 O136 1.232 . S
C137 O138 1.218 . S
O138 C137 1.218 . S
C139 O132 1.275 . S
C139 O134 1.255 . S
C140 O141 1.258 . S
C140 O142 1.256 . S
O141 Cd133 2.381 . S
O141 C140 1.258 . S
O142 Cd133 2.378 . S
O142 C140 1.256 . S
O143 Cd144 2.300 . S
O143 C150 1.275 . S
Cd144 O143 2.300 . S
Cd144 O152 2.381 . S
Cd144 O153 2.378 . S
O145 Cd146 2.385 . S
O145 C150 1.255 . S
Cd146 O145 2.385 . S
Cd146 O147 2.317 . S
O147 Cd146 2.317 . S
O147 C148 1.232 . S
C148 O147 1.232 . S
C148 O149 1.218 . S
O149 C148 1.218 . S
C150 O143 1.275 . S
C150 O145 1.255 . S
C151 O152 1.258 . S
C151 O153 1.256 . S
O152 Cd144 2.381 . S
O152 C151 1.258 . S
O153 Cd144 2.378 . S
O153 C151 1.256 . S
O154 Cd155 2.300 1_545 S
O154 C161 1.275 . S
Cd155 O154 2.300 1_565 S
Cd155 O163 2.381 1_565 S
Cd155 O164 2.378 . S
O156 Cd157 2.385 . S
O156 C161 1.255 1_565 S
Cd157 O156 2.385 . S
Cd157 O158 2.317 . S
O158 Cd157 2.317 . S
O158 C159 1.232 . S
C159 O158 1.232 . S
C159 O160 1.218 . S
O160 C159 1.218 . S
C161 O154 1.275 . S
C161 O156 1.255 1_545 S
C162 O163 1.258 1_565 S
C162 O164 1.256 . S
O163 Cd155 2.381 1_545 S
O163 C162 1.258 1_545 S
O164 Cd155 2.378 . S
O164 C162 1.256 . S
O165 Cd166 2.300 1_565 S
O165 C172 1.275 . S
Cd166 O165 2.300 1_545 S
Cd166 O174 2.381 1_545 S
Cd166 O175 2.378 . S
O167 Cd168 2.385 . S
O167 C172 1.255 1_545 S
Cd168 O167 2.385 . S
Cd168 O169 2.317 . S
O169 Cd168 2.317 . S
O169 C170 1.232 . S
C170 O169 1.232 . S
C170 O171 1.218 . S
O171 C170 1.218 . S
C172 O165 1.275 . S
C172 O167 1.255 1_565 S
C173 O174 1.258 1_545 S
C173 O175 1.256 . S
O174 Cd166 2.381 1_565 S
O174 C173 1.258 1_565 S
O175 Cd166 2.378 . S
O175 C173 1.256 . S
O176 Cd177 2.300 . S
O176 C183 1.275 . S
Cd177 O176 2.300 . S
Cd177 O185 2.381 . S
Cd177 O186 2.378 . S
O178 Cd179 2.385 . S
O178 C183 1.255 . S
Cd179 O178 2.385 . S
Cd179 O180 2.317 . S
O180 Cd179 2.317 . S
O180 C181 1.232 . S
C181 O180 1.232 . S
C181 O182 1.218 . S
O182 C181 1.218 . S
C183 O176 1.275 . S
C183 O178 1.255 . S
C184 O185 1.258 . S
C184 O186 1.256 . S
O185 Cd177 2.381 . S
O185 C184 1.258 . S
O186 Cd177 2.378 . S
O186 C184 1.256 . S
O187 Cd188 2.300 1_556 S
O187 C194 1.275 . S
Cd188 O187 2.300 1_554 S
Cd188 O196 2.381 1_554 S
Cd188 O197 2.378 . S
O189 Cd190 2.385 . S
O189 C194 1.255 1_554 S
Cd190 O189 2.385 . S
Cd190 O191 2.317 . S
O191 Cd190 2.317 . S
O191 C192 1.232 . S
C192 O191 1.232 . S
C192 O193 1.218 . S
O193 C192 1.218 . S
C194 O187 1.275 . S
C194 O189 1.255 1_556 S
C195 O196 1.258 1_554 S
C195 O197 1.256 . S
O196 Cd188 2.381 1_556 S
O196 C195 1.258 1_556 S
O197 Cd188 2.378 . S
O197 C195 1.256 . S
O198 Cd199 2.300 . S
O198 C205 1.275 . S
Cd199 O198 2.300 . S
Cd199 O207 2.381 . S
Cd199 O208 2.378 . S
O200 Cd201 2.385 . S
O200 C205 1.255 . S
Cd201 O200 2.385 . S
Cd201 O202 2.317 . S
O202 Cd201 2.317 . S
O202 C203 1.232 . S
C203 O202 1.232 . S
C203 O204 1.218 . S
O204 C203 1.218 . S
C205 O198 1.275 . S
C205 O200 1.255 . S
C206 O207 1.258 . S
C206 O208 1.256 . S
O207 Cd199 2.381 . S
O207 C206 1.258 . S
O208 Cd199 2.378 . S
O208 C206 1.256 . S
O209 Cd210 2.300 1_554 S
O209 C216 1.275 . S
Cd210 O209 2.300 1_556 S
Cd210 O218 2.381 1_556 S
Cd210 O219 2.378 . S
O211 Cd212 2.385 . S
O211 C216 1.255 1_556 S
Cd212 O211 2.385 . S
Cd212 O213 2.317 . S
O213 Cd212 2.317 . S
O213 C214 1.232 . S
C214 O213 1.232 . S
C214 O215 1.218 . S
O215 C214 1.218 . S
C216 O209 1.275 . S
C216 O211 1.255 1_554 S
C217 O218 1.258 1_556 S
C217 O219 1.256 . S
O218 Cd210 2.381 1_554 S
O218 C217 1.258 1_554 S
O219 Cd210 2.378 . S
O219 C217 1.256 . S
O220 Cd221 2.300 . S
O220 C227 1.275 . S
Cd221 O220 2.300 . S
Cd221 O229 2.381 . S
Cd221 O230 2.378 . S
O222 Cd223 2.385 . S
O222 C227 1.255 . S
Cd223 O222 2.385 . S
Cd223 O224 2.317 . S
O224 Cd223 2.317 . S
O224 C225 1.232 . S
C225 O224 1.232 . S
C225 O226 1.218 . S
O226 C225 1.218 . S
C227 O220 1.275 . S
C227 O222 1.255 . S
C228 O229 1.258 . S
C228 O230 1.256 . S
O229 Cd221 2.381 . S
O229 C228 1.258 . S
O230 Cd221 2.378 . S
O230 C228 1.256 . S
O231 Cd232 2.300 1_655 S
O231 C238 1.275 . S
Cd232 O231 2.300 1_455 S
Cd232 O240 2.381 1_455 S
Cd232 O241 2.378 . S
O233 Cd234 2.385 . S
O233 C238 1.255 1_455 S
Cd234 O233 2.385 . S
Cd234 O235 2.317 . S
O235 Cd234 2.317 . S
O235 C236 1.232 . S
C236 O235 1.232 . S
C236 O237 1.218 . S
O237 C236 1.218 . S
C238 O231 1.275 . S
C238 O233 1.255 1_655 S
C239 O240 1.258 1_455 S
C239 O241 1.256 . S
O240 Cd232 2.381 1_655 S
O240 C239 1.258 1_655 S
O241 Cd232 2.378 . S
O241 C239 1.256 . S
O242 Cd243 2.300 . S
O242 C249 1.275 . S
Cd243 O242 2.300 . S
Cd243 O251 2.381 . S
Cd243 O252 2.378 . S
O244 Cd245 2.385 . S
O244 C249 1.255 . S
Cd245 O244 2.385 . S
Cd245 O246 2.317 . S
O246 Cd245 2.317 . S
O246 C247 1.232 . S
C247 O246 1.232 . S
C247 O248 1.218 . S
O248 C247 1.218 . S
C249 O242 1.275 . S
C249 O244 1.255 . S
C250 O251 1.258 . S
C250 O252 1.256 . S
O251 Cd243 2.381 . S
O251 C250 1.258 . S
O252 Cd243 2.378 . S
O252 C250 1.256 . S
O253 Cd254 2.300 1_455 S
O253 C260 1.275 . S
Cd254 O253 2.300 1_655 S
Cd254 O262 2.381 1_655 S
Cd254 O263 2.378 . S
O255 Cd256 2.385 . S
O255 C260 1.255 1_655 S
Cd256 O255 2.385 . S
Cd256 O257 2.317 . S
O257 Cd256 2.317 . S
O257 C258 1.232 . S
C258 O257 1.232 . S
C258 O259 1.218 . S
O259 C258 1.218 . S
C260 O253 1.275 . S
C260 O255 1.255 1_455 S
C261 O262 1.258 1_655 S
C261 O263 1.256 . S
O262 Cd254 2.381 1_455 S
O262 C261 1.258 1_455 S
O263 Cd254 2.378 . S
O263 C261 1.256 . S
P264 O275 1.490 . S
P264 C278 1.812 . S
P264 C284 1.803 . S
P264 C290 1.819 . S
H265 C279 0.941 . S
H266 C280 0.939 . S
H267 C282 0.940 . S
H268 C283 0.940 . S
H269 C285 0.939 . S
H270 C286 0.942 . S
H271 C288 0.940 . S
H272 C289 0.939 . S
H273 C291 0.941 . S
H274 C295 0.939 . S
O275 P264 1.490 . S
H276 C292 0.939 . S
H277 C294 0.940 . S
C278 P264 1.812 . S
C278 C279 1.389 . S
C278 C283 1.391 . S
C279 H265 0.941 . S
C279 C278 1.389 . S
C279 C280 1.397 . S
C280 H266 0.939 . S
C280 C279 1.397 . S
C280 C281 1.378 . S
C281 C280 1.378 . S
C281 C282 1.378 . S
C282 H267 0.940 . S
C282 C281 1.378 . S
C282 C283 1.396 . S
C283 H268 0.940 . S
C283 C278 1.391 . S
C283 C282 1.396 . S
C284 P264 1.803 . S
C284 C285 1.378 . S
C284 C289 1.400 . S
C285 H269 0.939 . S
C285 C284 1.378 . S
C285 C286 1.361 . S
C286 H270 0.942 . S
C286 C285 1.361 . S
C286 C287 1.369 . S
C287 C286 1.369 . S
C287 C288 1.404 . S
C288 H271 0.940 . S
C288 C287 1.404 . S
C288 C289 1.389 . S
C289 H272 0.939 . S
C289 C284 1.400 . S
C289 C288 1.389 . S
C290 P264 1.819 . S
C290 C291 1.391 . S
C290 C295 1.391 . S
C291 H273 0.941 . S
C291 C290 1.391 . S
C291 C292 1.396 . S
C292 H276 0.939 . S
C292 C291 1.396 . S
C292 C293 1.397 . S
C293 C292 1.397 . S
C293 C294 1.385 . S
C294 H277 0.940 . S
C294 C293 1.385 . S
C294 C295 1.388 . S
C295 H274 0.939 . S
C295 C290 1.391 . S
C295 C294 1.388 . S
P296 O307 1.490 . S
P296 C310 1.812 . S
P296 C316 1.803 . S
P296 C322 1.819 . S
H297 C311 0.941 . S
H298 C312 0.939 . S
H299 C314 0.940 . S
H300 C315 0.940 . S
H301 C317 0.939 . S
H302 C318 0.942 . S
H303 C320 0.940 . S
H304 C321 0.939 . S
H305 C323 0.941 . S
H306 C327 0.939 . S
O307 P296 1.490 . S
H308 C324 0.939 . S
H309 C326 0.940 . S
C310 P296 1.812 . S
C310 C311 1.389 . S
C310 C315 1.391 . S
C311 H297 0.941 . S
C311 C310 1.389 . S
C311 C312 1.397 . S
C312 H298 0.939 . S
C312 C311 1.397 . S
C312 C313 1.378 . S
C313 C312 1.378 . S
C313 C314 1.378 . S
C314 H299 0.940 . S
C314 C313 1.378 . S
C314 C315 1.396 . S
C315 H300 0.940 . S
C315 C310 1.391 . S
C315 C314 1.396 . S
C316 P296 1.803 . S
C316 C317 1.378 . S
C316 C321 1.400 . S
C317 H301 0.939 . S
C317 C316 1.378 . S
C317 C318 1.361 . S
C318 H302 0.942 . S
C318 C317 1.361 . S
C318 C319 1.369 . S
C319 C318 1.369 . S
C319 C320 1.404 . S
C320 H303 0.940 . S
C320 C319 1.404 . S
C320 C321 1.389 . S
C321 H304 0.939 . S
C321 C316 1.400 . S
C321 C320 1.389 . S
C322 P296 1.819 . S
C322 C323 1.391 . S
C322 C327 1.391 . S
C323 H305 0.941 . S
C323 C322 1.391 . S
C323 C324 1.396 . S
C324 H308 0.939 . S
C324 C323 1.396 . S
C324 C325 1.397 . S
C325 C324 1.397 . S
C325 C326 1.385 . S
C326 H309 0.940 . S
C326 C325 1.385 . S
C326 C327 1.388 . S
C327 H306 0.939 . S
C327 C322 1.391 . S
C327 C326 1.388 . S
P328 O339 1.493 . S
P328 C342 1.812 1_545 S
P328 C348 1.803 . S
P328 C354 1.819 . S
H329 C343 0.941 . S
H330 C344 0.939 . S
H331 C346 0.940 . S
H332 C347 0.940 . S
H333 C349 0.939 . S
H334 C350 0.942 . S
H335 C352 0.940 . S
H336 C353 0.939 . S
H337 C355 0.941 . S
H338 C359 0.939 . S
O339 P328 1.493 . S
H340 C356 0.939 . S
H341 C358 0.940 . S
C342 P328 1.812 1_565 S
C342 C343 1.389 . S
C342 C347 1.391 . S
C343 H329 0.941 . S
C343 C342 1.389 . S
C343 C344 1.397 . S
C344 H330 0.939 . S
C344 C343 1.397 . S
C344 C345 1.378 . S
C345 C344 1.378 . S
C345 C346 1.378 . S
C346 H331 0.940 . S
C346 C345 1.378 . S
C346 C347 1.396 . S
C347 H332 0.940 . S
C347 C342 1.391 . S
C347 C346 1.396 . S
C348 P328 1.803 . S
C348 C349 1.378 . S
C348 C353 1.400 . S
C349 H333 0.939 . S
C349 C348 1.378 . S
C349 C350 1.361 . S
C350 H334 0.942 . S
C350 C349 1.361 . S
C350 C351 1.369 . S
C351 C350 1.369 . S
C351 C352 1.404 . S
C352 H335 0.940 . S
C352 C351 1.404 . S
C352 C353 1.389 . S
C353 H336 0.939 . S
C353 C348 1.400 . S
C353 C352 1.389 . S
C354 P328 1.819 . S
C354 C355 1.391 1_545 S
C354 C359 1.391 . S
C355 H337 0.941 . S
C355 C354 1.391 1_565 S
C355 C356 1.396 . S
C356 H340 0.939 . S
C356 C355 1.396 . S
C356 C357 1.397 1_565 S
C357 C356 1.397 1_545 S
C357 C358 1.385 . S
C358 H341 0.940 . S
C358 C357 1.385 . S
C358 C359 1.388 . S
C359 H338 0.939 . S
C359 C354 1.391 . S
C359 C358 1.388 . S
P360 O371 1.490 . S
P360 C374 1.812 1_565 S
P360 C380 1.803 . S
P360 C386 1.819 . S
H361 C375 0.941 . S
H362 C376 0.939 . S
H363 C378 0.940 . S
H364 C379 0.940 . S
H365 C381 0.939 . S
H366 C382 0.942 . S
H367 C384 0.940 . S
H368 C385 0.939 . S
H369 C387 0.941 . S
H370 C391 0.939 . S
O371 P360 1.490 . S
H372 C388 0.939 . S
H373 C390 0.940 . S
C374 P360 1.812 1_545 S
C374 C375 1.389 . S
C374 C379 1.391 . S
C375 H361 0.941 . S
C375 C374 1.389 . S
C375 C376 1.397 . S
C376 H362 0.939 . S
C376 C375 1.397 . S
C376 C377 1.378 . S
C377 C376 1.378 . S
C377 C378 1.378 . S
C378 H363 0.940 . S
C378 C377 1.378 . S
C378 C379 1.396 . S
C379 H364 0.940 . S
C379 C374 1.391 . S
C379 C378 1.396 . S
C380 P360 1.803 . S
C380 C381 1.378 . S
C380 C385 1.400 . S
C381 H365 0.939 . S
C381 C380 1.378 . S
C381 C382 1.361 . S
C382 H366 0.942 . S
C382 C381 1.361 . S
C382 C383 1.369 . S
C383 C382 1.369 . S
C383 C384 1.404 . S
C384 H367 0.940 . S
C384 C383 1.404 . S
C384 C385 1.389 . S
C385 H368 0.939 . S
C385 C380 1.400 . S
C385 C384 1.389 . S
C386 P360 1.819 . S
C386 C387 1.391 1_565 S
C386 C391 1.391 . S
C387 H369 0.941 . S
C387 C386 1.391 1_545 S
C387 C388 1.396 . S
C388 H372 0.939 . S
C388 C387 1.396 . S
C388 C389 1.397 . S
C389 C388 1.397 . S
C389 C390 1.385 1_545 S
C390 H373 0.940 . S
C390 C389 1.385 1_565 S
C390 C391 1.388 . S
C391 H370 0.939 . S
C391 C386 1.391 . S
C391 C390 1.388 . S
P392 O403 1.490 . S
P392 C406 1.812 . S
P392 C412 1.803 . S
P392 C418 1.819 . S
H393 C407 0.941 . S
H394 C408 0.939 . S
H395 C410 0.940 . S
H396 C411 0.940 . S
H397 C413 0.939 . S
H398 C414 0.942 . S
H399 C416 0.940 . S
H400 C417 0.939 . S
H401 C419 0.941 . S
H402 C423 0.939 . S
O403 P392 1.490 . S
H404 C420 0.939 . S
H405 C422 0.940 . S
C406 P392 1.812 . S
C406 C407 1.389 . S
C406 C411 1.391 . S
C407 H393 0.941 . S
C407 C406 1.389 . S
C407 C408 1.397 . S
C408 H394 0.939 . S
C408 C407 1.397 . S
C408 C409 1.378 . S
C409 C408 1.378 . S
C409 C410 1.378 . S
C410 H395 0.940 . S
C410 C409 1.378 . S
C410 C411 1.396 . S
C411 H396 0.940 . S
C411 C406 1.391 . S
C411 C410 1.396 . S
C412 P392 1.803 . S
C412 C413 1.378 . S
C412 C417 1.400 . S
C413 H397 0.939 . S
C413 C412 1.378 . S
C413 C414 1.361 . S
C414 H398 0.942 . S
C414 C413 1.361 . S
C414 C415 1.369 . S
C415 C414 1.369 . S
C415 C416 1.404 . S
C416 H399 0.940 . S
C416 C415 1.404 . S
C416 C417 1.389 . S
C417 H400 0.939 . S
C417 C412 1.400 . S
C417 C416 1.389 . S
C418 P392 1.819 . S
C418 C419 1.391 . S
C418 C423 1.391 . S
C419 H401 0.941 . S
C419 C418 1.391 . S
C419 C420 1.396 . S
C420 H404 0.939 . S
C420 C419 1.396 . S
C420 C421 1.397 . S
C421 C420 1.397 . S
C421 C422 1.385 . S
C422 H405 0.940 . S
C422 C421 1.385 . S
C422 C423 1.388 . S
C423 H402 0.939 . S
C423 C418 1.391 . S
C423 C422 1.388 . S
P424 O435 1.490 . S
P424 C438 1.812 1_556 S
P424 C444 1.803 . S
P424 C450 1.819 . S
H425 C439 0.941 . S
H426 C440 0.939 . S
H427 C442 0.940 . S
H428 C443 0.940 . S
H429 C445 0.939 . S
H430 C446 0.942 . S
H431 C448 0.940 . S
H432 C449 0.939 . S
H433 C451 0.941 . S
H434 C455 0.939 . S
O435 P424 1.490 . S
H436 C452 0.939 . S
H437 C454 0.940 . S
C438 P424 1.812 1_554 S
C438 C439 1.389 . S
C438 C443 1.391 . S
C439 H425 0.941 . S
C439 C438 1.389 . S
C439 C440 1.397 . S
C440 H426 0.939 . S
C440 C439 1.397 . S
C440 C441 1.378 . S
C441 C440 1.378 . S
C441 C442 1.378 . S
C442 H427 0.940 . S
C442 C441 1.378 . S
C442 C443 1.396 . S
C443 H428 0.940 . S
C443 C438 1.391 . S
C443 C442 1.396 . S
C444 P424 1.803 . S
C444 C445 1.378 . S
C444 C449 1.400 . S
C445 H429 0.939 . S
C445 C444 1.378 . S
C445 C446 1.361 . S
C446 H430 0.942 . S
C446 C445 1.361 . S
C446 C447 1.369 . S
C447 C446 1.369 . S
C447 C448 1.404 . S
C448 H431 0.940 . S
C448 C447 1.404 . S
C448 C449 1.389 . S
C449 H432 0.939 . S
C449 C444 1.400 . S
C449 C448 1.389 . S
C450 P424 1.819 . S
C450 C451 1.391 1_556 S
C450 C455 1.391 . S
C451 H433 0.941 . S
C451 C450 1.391 1_554 S
C451 C452 1.396 . S
C452 H436 0.939 . S
C452 C451 1.396 . S
C452 C453 1.397 . S
C453 C452 1.397 . S
C453 C454 1.385 1_554 S
C454 H437 0.940 . S
C454 C453 1.385 1_556 S
C454 C455 1.388 . S
C455 H434 0.939 . S
C455 C450 1.391 . S
C455 C454 1.388 . S
P456 O467 1.490 . S
P456 C470 1.812 . S
P456 C476 1.803 . S
P456 C482 1.819 . S
H457 C471 0.941 . S
H458 C472 0.939 . S
H459 C474 0.940 . S
H460 C475 0.940 . S
H461 C477 0.939 . S
H462 C478 0.942 . S
H463 C480 0.940 . S
H464 C481 0.939 . S
H465 C483 0.941 . S
H466 C487 0.939 . S
O467 P456 1.490 . S
H468 C484 0.939 . S
H469 C486 0.940 . S
C470 P456 1.812 . S
C470 C471 1.389 . S
C470 C475 1.391 . S
C471 H457 0.941 . S
C471 C470 1.389 . S
C471 C472 1.397 . S
C472 H458 0.939 . S
C472 C471 1.397 . S
C472 C473 1.378 . S
C473 C472 1.378 . S
C473 C474 1.378 . S
C474 H459 0.940 . S
C474 C473 1.378 . S
C474 C475 1.396 . S
C475 H460 0.940 . S
C475 C470 1.391 . S
C475 C474 1.396 . S
C476 P456 1.803 . S
C476 C477 1.378 . S
C476 C481 1.400 . S
C477 H461 0.939 . S
C477 C476 1.378 . S
C477 C478 1.361 . S
C478 H462 0.942 . S
C478 C477 1.361 . S
C478 C479 1.369 . S
C479 C478 1.369 . S
C479 C480 1.404 . S
C480 H463 0.940 . S
C480 C479 1.404 . S
C480 C481 1.389 . S
C481 H464 0.939 . S
C481 C476 1.400 . S
C481 C480 1.389 . S
C482 P456 1.819 . S
C482 C483 1.391 . S
C482 C487 1.391 . S
C483 H465 0.941 . S
C483 C482 1.391 . S
C483 C484 1.396 . S
C484 H468 0.939 . S
C484 C483 1.396 . S
C484 C485 1.397 . S
C485 C484 1.397 . S
C485 C486 1.385 . S
C486 H469 0.940 . S
C486 C485 1.385 . S
C486 C487 1.388 . S
C487 H466 0.939 . S
C487 C482 1.391 . S
C487 C486 1.388 . S
P488 O499 1.493 . S
P488 C502 1.812 1_554 S
P488 C508 1.803 . S
P488 C514 1.819 . S
H489 C503 0.941 . S
H490 C504 0.939 . S
H491 C506 0.940 . S
H492 C507 0.940 . S
H493 C509 0.939 . S
H494 C510 0.942 . S
H495 C512 0.940 . S
H496 C513 0.939 . S
H497 C515 0.941 . S
H498 C519 0.939 . S
O499 P488 1.493 . S
H500 C516 0.939 . S
H501 C518 0.940 . S
C502 P488 1.812 1_556 S
C502 C503 1.389 . S
C502 C507 1.391 . S
C503 H489 0.941 . S
C503 C502 1.389 . S
C503 C504 1.397 . S
C504 H490 0.939 . S
C504 C503 1.397 . S
C504 C505 1.378 . S
C505 C504 1.378 . S
C505 C506 1.378 . S
C506 H491 0.940 . S
C506 C505 1.378 . S
C506 C507 1.396 . S
C507 H492 0.940 . S
C507 C502 1.391 . S
C507 C506 1.396 . S
C508 P488 1.803 . S
C508 C509 1.378 . S
C508 C513 1.400 . S
C509 H493 0.939 . S
C509 C508 1.378 . S
C509 C510 1.361 . S
C510 H494 0.942 . S
C510 C509 1.361 . S
C510 C511 1.369 . S
C511 C510 1.369 . S
C511 C512 1.404 . S
C512 H495 0.940 . S
C512 C511 1.404 . S
C512 C513 1.389 . S
C513 H496 0.939 . S
C513 C508 1.400 . S
C513 C512 1.389 . S
C514 P488 1.819 . S
C514 C515 1.391 1_554 S
C514 C519 1.391 . S
C515 H497 0.941 . S
C515 C514 1.391 1_556 S
C515 C516 1.396 . S
C516 H500 0.939 . S
C516 C515 1.396 . S
C516 C517 1.397 1_556 S
C517 C516 1.397 1_554 S
C517 C518 1.385 . S
C518 H501 0.940 . S
C518 C517 1.385 . S
C518 C519 1.388 . S
C519 H498 0.939 . S
C519 C514 1.391 . S
C519 C518 1.388 . S
P520 O531 1.490 . S
P520 C534 1.812 . S
P520 C540 1.803 . S
P520 C546 1.819 . S
H521 C535 0.941 . S
H522 C536 0.939 . S
H523 C538 0.940 . S
H524 C539 0.940 . S
H525 C541 0.939 . S
H526 C542 0.942 . S
H527 C544 0.940 . S
H528 C545 0.939 . S
H529 C547 0.941 . S
H530 C551 0.939 . S
O531 P520 1.490 . S
H532 C548 0.939 . S
H533 C550 0.940 . S
C534 P520 1.812 . S
C534 C535 1.389 . S
C534 C539 1.391 . S
C535 H521 0.941 . S
C535 C534 1.389 . S
C535 C536 1.397 . S
C536 H522 0.939 . S
C536 C535 1.397 . S
C536 C537 1.378 . S
C537 C536 1.378 . S
C537 C538 1.378 . S
C538 H523 0.940 . S
C538 C537 1.378 . S
C538 C539 1.396 . S
C539 H524 0.940 . S
C539 C534 1.391 . S
C539 C538 1.396 . S
C540 P520 1.803 . S
C540 C541 1.378 . S
C540 C545 1.400 . S
C541 H525 0.939 . S
C541 C540 1.378 . S
C541 C542 1.361 . S
C542 H526 0.942 . S
C542 C541 1.361 . S
C542 C543 1.369 . S
C543 C542 1.369 . S
C543 C544 1.404 . S
C544 H527 0.940 . S
C544 C543 1.404 . S
C544 C545 1.389 . S
C545 H528 0.939 . S
C545 C540 1.400 . S
C545 C544 1.389 . S
C546 P520 1.819 . S
C546 C547 1.391 . S
C546 C551 1.391 . S
C547 H529 0.941 . S
C547 C546 1.391 . S
C547 C548 1.396 . S
C548 H532 0.939 . S
C548 C547 1.396 . S
C548 C549 1.397 . S
C549 C548 1.397 . S
C549 C550 1.385 . S
C550 H533 0.940 . S
C550 C549 1.385 . S
C550 C551 1.388 . S
C551 H530 0.939 . S
C551 C546 1.391 . S
C551 C550 1.388 . S
P552 O563 1.490 . S
P552 C566 1.812 1_655 S
P552 C572 1.803 . S
P552 C578 1.819 . S
H553 C567 0.941 . S
H554 C568 0.939 . S
H555 C570 0.940 . S
H556 C571 0.940 . S
H557 C573 0.939 . S
H558 C574 0.942 . S
H559 C576 0.940 . S
H560 C577 0.939 . S
H561 C579 0.941 . S
H562 C583 0.939 . S
O563 P552 1.490 . S
H564 C580 0.939 . S
H565 C582 0.940 . S
C566 P552 1.812 1_455 S
C566 C567 1.389 . S
C566 C571 1.391 . S
C567 H553 0.941 . S
C567 C566 1.389 . S
C567 C568 1.397 . S
C568 H554 0.939 . S
C568 C567 1.397 . S
C568 C569 1.378 . S
C569 C568 1.378 . S
C569 C570 1.378 . S
C570 H555 0.940 . S
C570 C569 1.378 . S
C570 C571 1.396 . S
C571 H556 0.940 . S
C571 C566 1.391 . S
C571 C570 1.396 . S
C572 P552 1.803 . S
C572 C573 1.378 . S
C572 C577 1.400 . S
C573 H557 0.939 . S
C573 C572 1.378 . S
C573 C574 1.361 . S
C574 H558 0.942 . S
C574 C573 1.361 . S
C574 C575 1.369 . S
C575 C574 1.369 . S
C575 C576 1.404 . S
C576 H559 0.940 . S
C576 C575 1.404 . S
C576 C577 1.389 . S
C577 H560 0.939 . S
C577 C572 1.400 . S
C577 C576 1.389 . S
C578 P552 1.819 . S
C578 C579 1.391 1_655 S
C578 C583 1.391 . S
C579 H561 0.941 . S
C579 C578 1.391 1_455 S
C579 C580 1.396 . S
C580 H564 0.939 . S
C580 C579 1.396 . S
C580 C581 1.397 . S
C581 C580 1.397 . S
C581 C582 1.385 1_455 S
C582 H565 0.940 . S
C582 C581 1.385 1_655 S
C582 C583 1.388 . S
C583 H562 0.939 . S
C583 C578 1.391 . S
C583 C582 1.388 . S
P584 O595 1.490 . S
P584 C598 1.812 . S
P584 C604 1.803 . S
P584 C610 1.819 . S
H585 C599 0.941 . S
H586 C600 0.939 . S
H587 C602 0.940 . S
H588 C603 0.940 . S
H589 C605 0.939 . S
H590 C606 0.942 . S
H591 C608 0.940 . S
H592 C609 0.939 . S
H593 C611 0.941 . S
H594 C615 0.939 . S
O595 P584 1.490 . S
H596 C612 0.939 . S
H597 C614 0.940 . S
C598 P584 1.812 . S
C598 C599 1.389 . S
C598 C603 1.391 . S
C599 H585 0.941 . S
C599 C598 1.389 . S
C599 C600 1.397 . S
C600 H586 0.939 . S
C600 C599 1.397 . S
C600 C601 1.378 . S
C601 C600 1.378 . S
C601 C602 1.378 . S
C602 H587 0.940 . S
C602 C601 1.378 . S
C602 C603 1.396 . S
C603 H588 0.940 . S
C603 C598 1.391 . S
C603 C602 1.396 . S
C604 P584 1.803 . S
C604 C605 1.378 . S
C604 C609 1.400 . S
C605 H589 0.939 . S
C605 C604 1.378 . S
C605 C606 1.361 . S
C606 H590 0.942 . S
C606 C605 1.361 . S
C606 C607 1.369 . S
C607 C606 1.369 . S
C607 C608 1.404 . S
C608 H591 0.940 . S
C608 C607 1.404 . S
C608 C609 1.389 . S
C609 H592 0.939 . S
C609 C604 1.400 . S
C609 C608 1.389 . S
C610 P584 1.819 . S
C610 C611 1.391 . S
C610 C615 1.391 . S
C611 H593 0.941 . S
C611 C610 1.391 . S
C611 C612 1.396 . S
C612 H596 0.939 . S
C612 C611 1.396 . S
C612 C613 1.397 . S
C613 C612 1.397 . S
C613 C614 1.385 . S
C614 H597 0.940 . S
C614 C613 1.385 . S
C614 C615 1.388 . S
C615 H594 0.939 . S
C615 C610 1.391 . S
C615 C614 1.388 . S
P616 O627 1.493 . S
P616 C630 1.812 1_455 S
P616 C636 1.803 . S
P616 C642 1.819 . S
H617 C631 0.941 . S
H618 C632 0.939 . S
H619 C634 0.940 . S
H620 C635 0.940 . S
H621 C637 0.939 . S
H622 C638 0.942 . S
H623 C640 0.940 . S
H624 C641 0.939 . S
H625 C643 0.941 . S
H626 C647 0.939 . S
O627 P616 1.493 . S
H628 C644 0.939 . S
H629 C646 0.940 . S
C630 P616 1.812 1_655 S
C630 C631 1.389 . S
C630 C635 1.391 . S
C631 H617 0.941 . S
C631 C630 1.389 . S
C631 C632 1.397 . S
C632 H618 0.939 . S
C632 C631 1.397 . S
C632 C633 1.378 . S
C633 C632 1.378 . S
C633 C634 1.378 . S
C634 H619 0.940 . S
C634 C633 1.378 . S
C634 C635 1.396 . S
C635 H620 0.940 . S
C635 C630 1.391 . S
C635 C634 1.396 . S
C636 P616 1.803 . S
C636 C637 1.378 . S
C636 C641 1.400 . S
C637 H621 0.939 . S
C637 C636 1.378 . S
C637 C638 1.361 . S
C638 H622 0.942 . S
C638 C637 1.361 . S
C638 C639 1.369 . S
C639 C638 1.369 . S
C639 C640 1.404 . S
C640 H623 0.940 . S
C640 C639 1.404 . S
C640 C641 1.389 . S
C641 H624 0.939 . S
C641 C636 1.400 . S
C641 C640 1.389 . S
C642 P616 1.819 . S
C642 C643 1.391 1_455 S
C642 C647 1.391 . S
C643 H625 0.941 . S
C643 C642 1.391 1_655 S
C643 C644 1.396 . S
C644 H628 0.939 . S
C644 C643 1.396 . S
C644 C645 1.397 1_655 S
C645 C644 1.397 1_455 S
C645 C646 1.385 . S
C646 H629 0.940 . S
C646 C645 1.385 . S
C646 C647 1.388 . S
C647 H626 0.939 . S
C647 C642 1.391 . S
C647 C646 1.388 . S
P648 O659 1.490 . S
P648 C662 1.812 . S
P648 C668 1.803 . S
P648 C674 1.819 . S
H649 C663 0.941 . S
H650 C664 0.939 . S
H651 C666 0.940 . S
H652 C667 0.940 . S
H653 C669 0.939 . S
H654 C670 0.942 . S
H655 C672 0.940 . S
H656 C673 0.939 . S
H657 C675 0.941 . S
H658 C679 0.939 . S
O659 P648 1.490 . S
H660 C676 0.939 . S
H661 C678 0.940 . S
C662 P648 1.812 . S
C662 C663 1.389 . S
C662 C667 1.391 . S
C663 H649 0.941 . S
C663 C662 1.389 . S
C663 C664 1.397 . S
C664 H650 0.939 . S
C664 C663 1.397 . S
C664 C665 1.378 . S
C665 C664 1.378 . S
C665 C666 1.378 . S
C666 H651 0.940 . S
C666 C665 1.378 . S
C666 C667 1.396 . S
C667 H652 0.940 . S
C667 C662 1.391 . S
C667 C666 1.396 . S
C668 P648 1.803 . S
C668 C669 1.378 . S
C668 C673 1.400 . S
C669 H653 0.939 . S
C669 C668 1.378 . S
C669 C670 1.361 . S
C670 H654 0.942 . S
C670 C669 1.361 . S
C670 C671 1.369 . S
C671 C670 1.369 . S
C671 C672 1.404 . S
C672 H655 0.940 . S
C672 C671 1.404 . S
C672 C673 1.389 . S
C673 H656 0.939 . S
C673 C668 1.400 . S
C673 C672 1.389 . S
C674 P648 1.819 . S
C674 C675 1.391 . S
C674 C679 1.391 . S
C675 H657 0.941 . S
C675 C674 1.391 . S
C675 C676 1.396 . S
C676 H660 0.939 . S
C676 C675 1.396 . S
C676 C677 1.397 . S
C677 C676 1.397 . S
C677 C678 1.385 . S
C678 H661 0.940 . S
C678 C677 1.385 . S
C678 C679 1.388 . S
C679 H658 0.939 . S
C679 C674 1.391 . S
C679 C678 1.388 . S
P680 O691 1.490 . S
P680 C694 1.812 . S
P680 C700 1.803 . S
P680 C706 1.819 . S
H681 C695 0.941 . S
H682 C696 0.939 . S
H683 C698 0.940 . S
H684 C699 0.940 . S
H685 C701 0.939 . S
H686 C702 0.942 . S
H687 C704 0.940 . S
H688 C705 0.939 . S
H689 C707 0.941 . S
H690 C711 0.939 . S
O691 P680 1.490 . S
H692 C708 0.939 . S
H693 C710 0.940 . S
C694 P680 1.812 . S
C694 C695 1.389 . S
C694 C699 1.391 . S
C695 H681 0.941 . S
C695 C694 1.389 . S
C695 C696 1.397 . S
C696 H682 0.939 . S
C696 C695 1.397 . S
C696 C697 1.378 . S
C697 C696 1.378 . S
C697 C698 1.378 . S
C698 H683 0.940 . S
C698 C697 1.378 . S
C698 C699 1.396 . S
C699 H684 0.940 . S
C699 C694 1.391 . S
C699 C698 1.396 . S
C700 P680 1.803 . S
C700 C701 1.378 . S
C700 C705 1.400 . S
C701 H685 0.939 . S
C701 C700 1.378 . S
C701 C702 1.361 . S
C702 H686 0.942 . S
C702 C701 1.361 . S
C702 C703 1.369 . S
C703 C702 1.369 . S
C703 C704 1.404 . S
C704 H687 0.940 . S
C704 C703 1.404 . S
C704 C705 1.389 . S
C705 H688 0.939 . S
C705 C700 1.400 . S
C705 C704 1.389 . S
C706 P680 1.819 . S
C706 C707 1.391 . S
C706 C711 1.391 . S
C707 H689 0.941 . S
C707 C706 1.391 . S
C707 C708 1.396 . S
C708 H692 0.939 . S
C708 C707 1.396 . S
C708 C709 1.397 . S
C709 C708 1.397 . S
C709 C710 1.385 . S
C710 H693 0.940 . S
C710 C709 1.385 . S
C710 C711 1.388 . S
C711 H690 0.939 . S
C711 C706 1.391 . S
C711 C710 1.388 . S
P712 O723 1.491 . S
P712 C726 1.761 1_565 S
P712 C732 1.849 . S
P712 C738 1.821 . S
H713 C727 0.941 . S
H714 C728 0.939 . S
H715 C730 0.940 . S
H716 C731 0.940 . S
H717 C733 0.939 . S
H718 C734 0.942 . S
H719 C736 0.940 . S
H720 C737 0.939 . S
H721 C739 0.941 . S
H722 C743 0.939 . S
O723 P712 1.491 . S
H724 C740 0.939 . S
H725 C742 0.940 . S
C726 P712 1.761 1_545 S
C726 C727 1.389 . S
C726 C731 1.391 . S
C727 H713 0.941 . S
C727 C726 1.389 . S
C727 C728 1.397 . S
C728 H714 0.939 . S
C728 C727 1.397 . S
C728 C729 1.378 . S
C729 C728 1.378 . S
C729 C730 1.378 . S
C730 H715 0.940 . S
C730 C729 1.378 . S
C730 C731 1.396 . S
C731 H716 0.940 . S
C731 C726 1.391 . S
C731 C730 1.396 . S
C732 P712 1.849 . S
C732 C733 1.378 . S
C732 C737 1.400 . S
C733 H717 0.939 . S
C733 C732 1.378 . S
C733 C734 1.361 . S
C734 H718 0.942 . S
C734 C733 1.361 . S
C734 C735 1.369 . S
C735 C734 1.369 . S
C735 C736 1.404 . S
C736 H719 0.940 . S
C736 C735 1.404 . S
C736 C737 1.389 . S
C737 H720 0.939 . S
C737 C732 1.400 . S
C737 C736 1.389 . S
C738 P712 1.821 . S
C738 C739 1.391 1_565 S
C738 C743 1.391 . S
C739 H721 0.941 . S
C739 C738 1.391 1_545 S
C739 C740 1.396 . S
C740 H724 0.939 . S
C740 C739 1.396 . S
C740 C741 1.397 1_545 S
C741 C740 1.397 1_565 S
C741 C742 1.385 . S
C742 H725 0.940 . S
C742 C741 1.385 . S
C742 C743 1.388 . S
C743 H722 0.939 . S
C743 C738 1.391 . S
C743 C742 1.388 . S
P744 O755 1.490 1_545 S
P744 C758 1.816 1_545 S
P744 C764 1.799 . S
P744 C770 1.818 . S
H745 C759 0.941 . S
H746 C760 0.939 . S
H747 C762 0.940 . S
H748 C763 0.940 . S
H749 C765 0.939 . S
H750 C766 0.942 . S
H751 C768 0.940 . S
H752 C769 0.939 . S
H753 C771 0.941 . S
H754 C775 0.939 . S
O755 P744 1.490 1_565 S
H756 C772 0.939 . S
H757 C774 0.940 . S
C758 P744 1.816 1_565 S
C758 C759 1.389 . S
C758 C763 1.391 . S
C759 H745 0.941 . S
C759 C758 1.389 . S
C759 C760 1.397 . S
C760 H746 0.939 . S
C760 C759 1.397 . S
C760 C761 1.378 . S
C761 C760 1.378 . S
C761 C762 1.378 . S
C762 H747 0.940 . S
C762 C761 1.378 . S
C762 C763 1.396 . S
C763 H748 0.940 . S
C763 C758 1.391 . S
C763 C762 1.396 . S
C764 P744 1.799 . S
C764 C765 1.378 . S
C764 C769 1.400 . S
C765 H749 0.939 . S
C765 C764 1.378 . S
C765 C766 1.361 . S
C766 H750 0.942 . S
C766 C765 1.361 . S
C766 C767 1.369 . S
C767 C766 1.369 . S
C767 C768 1.404 . S
C768 H751 0.940 . S
C768 C767 1.404 . S
C768 C769 1.389 . S
C769 H752 0.939 . S
C769 C764 1.400 . S
C769 C768 1.389 . S
C770 P744 1.818 . S
C770 C771 1.384 1_545 S
C770 C775 1.399 . S
C771 H753 0.941 . S
C771 C770 1.384 1_565 S
C771 C772 1.396 . S
C772 H756 0.939 . S
C772 C771 1.396 . S
C772 C773 1.397 . S
C773 C772 1.397 . S
C773 C774 1.385 1_565 S
C774 H757 0.940 . S
C774 C773 1.385 1_545 S
C774 C775 1.388 . S
C775 H754 0.939 . S
C775 C770 1.399 . S
C775 C774 1.388 . S
P776 O787 1.490 . S
P776 C790 1.812 . S
P776 C796 1.803 . S
P776 C802 1.819 . S
H777 C791 0.941 . S
H778 C792 0.939 . S
H779 C794 0.940 . S
H780 C795 0.940 . S
H781 C797 0.939 . S
H782 C798 0.942 . S
H783 C800 0.940 . S
H784 C801 0.939 . S
H785 C803 0.941 . S
H786 C807 0.939 . S
O787 P776 1.490 . S
H788 C804 0.939 . S
H789 C806 0.940 . S
C790 P776 1.812 . S
C790 C791 1.389 . S
C790 C795 1.391 . S
C791 H777 0.941 . S
C791 C790 1.389 . S
C791 C792 1.397 . S
C792 H778 0.939 . S
C792 C791 1.397 . S
C792 C793 1.378 . S
C793 C792 1.378 . S
C793 C794 1.378 . S
C794 H779 0.940 . S
C794 C793 1.378 . S
C794 C795 1.396 . S
C795 H780 0.940 . S
C795 C790 1.391 . S
C795 C794 1.396 . S
C796 P776 1.803 . S
C796 C797 1.378 . S
C796 C801 1.400 . S
C797 H781 0.939 . S
C797 C796 1.378 . S
C797 C798 1.361 . S
C798 H782 0.942 . S
C798 C797 1.361 . S
C798 C799 1.369 . S
C799 C798 1.369 . S
C799 C800 1.404 . S
C800 H783 0.940 . S
C800 C799 1.404 . S
C800 C801 1.389 . S
C801 H784 0.939 . S
C801 C796 1.400 . S
C801 C800 1.389 . S
C802 P776 1.819 . S
C802 C803 1.391 . S
C802 C807 1.391 . S
C803 H785 0.941 . S
C803 C802 1.391 . S
C803 C804 1.396 . S
C804 H788 0.939 . S
C804 C803 1.396 . S
C804 C805 1.397 . S
C805 C804 1.397 . S
C805 C806 1.385 . S
C806 H789 0.940 . S
C806 C805 1.385 . S
C806 C807 1.388 . S
C807 H786 0.939 . S
C807 C802 1.391 . S
C807 C806 1.388 . S
P808 O819 1.490 1_554 S
P808 C822 1.816 1_554 S
P808 C828 1.799 . S
P808 C834 1.818 . S
H809 C823 0.941 . S
H810 C824 0.939 . S
H811 C826 0.940 . S
H812 C827 0.940 . S
H813 C829 0.939 . S
H814 C830 0.942 . S
H815 C832 0.940 . S
H816 C833 0.939 . S
H817 C835 0.941 . S
H818 C839 0.939 . S
O819 P808 1.490 1_556 S
H820 C836 0.939 . S
H821 C838 0.940 . S
C822 P808 1.816 1_556 S
C822 C823 1.389 . S
C822 C827 1.391 . S
C823 H809 0.941 . S
C823 C822 1.389 . S
C823 C824 1.397 . S
C824 H810 0.939 . S
C824 C823 1.397 . S
C824 C825 1.378 . S
C825 C824 1.378 . S
C825 C826 1.378 . S
C826 H811 0.940 . S
C826 C825 1.378 . S
C826 C827 1.396 . S
C827 H812 0.940 . S
C827 C822 1.391 . S
C827 C826 1.396 . S
C828 P808 1.799 . S
C828 C829 1.378 . S
C828 C833 1.400 . S
C829 H813 0.939 . S
C829 C828 1.378 . S
C829 C830 1.361 . S
C830 H814 0.942 . S
C830 C829 1.361 . S
C830 C831 1.369 . S
C831 C830 1.369 . S
C831 C832 1.404 . S
C832 H815 0.940 . S
C832 C831 1.404 . S
C832 C833 1.389 . S
C833 H816 0.939 . S
C833 C828 1.400 . S
C833 C832 1.389 . S
C834 P808 1.818 . S
C834 C835 1.384 1_554 S
C834 C839 1.399 . S
C835 H817 0.941 . S
C835 C834 1.384 1_556 S
C835 C836 1.396 . S
C836 H820 0.939 . S
C836 C835 1.396 . S
C836 C837 1.397 . S
C837 C836 1.397 . S
C837 C838 1.385 1_556 S
C838 H821 0.940 . S
C838 C837 1.385 1_554 S
C838 C839 1.388 . S
C839 H818 0.939 . S
C839 C834 1.399 . S
C839 C838 1.388 . S
P840 O851 1.490 . S
P840 C854 1.812 . S
P840 C860 1.803 . S
P840 C866 1.819 . S
H841 C855 0.941 . S
H842 C856 0.939 . S
H843 C858 0.940 . S
H844 C859 0.940 . S
H845 C861 0.939 . S
H846 C862 0.942 . S
H847 C864 0.940 . S
H848 C865 0.939 . S
H849 C867 0.941 . S
H850 C871 0.939 . S
O851 P840 1.490 . S
H852 C868 0.939 . S
H853 C870 0.940 . S
C854 P840 1.812 . S
C854 C855 1.389 . S
C854 C859 1.391 . S
C855 H841 0.941 . S
C855 C854 1.389 . S
C855 C856 1.397 . S
C856 H842 0.939 . S
C856 C855 1.397 . S
C856 C857 1.378 . S
C857 C856 1.378 . S
C857 C858 1.378 . S
C858 H843 0.940 . S
C858 C857 1.378 . S
C858 C859 1.396 . S
C859 H844 0.940 . S
C859 C854 1.391 . S
C859 C858 1.396 . S
C860 P840 1.803 . S
C860 C861 1.378 . S
C860 C865 1.400 . S
C861 H845 0.939 . S
C861 C860 1.378 . S
C861 C862 1.361 . S
C862 H846 0.942 . S
C862 C861 1.361 . S
C862 C863 1.369 . S
C863 C862 1.369 . S
C863 C864 1.404 . S
C864 H847 0.940 . S
C864 C863 1.404 . S
C864 C865 1.389 . S
C865 H848 0.939 . S
C865 C860 1.400 . S
C865 C864 1.389 . S
C866 P840 1.819 . S
C866 C867 1.391 . S
C866 C871 1.391 . S
C867 H849 0.941 . S
C867 C866 1.391 . S
C867 C868 1.396 . S
C868 H852 0.939 . S
C868 C867 1.396 . S
C868 C869 1.397 . S
C869 C868 1.397 . S
C869 C870 1.385 . S
C870 H853 0.940 . S
C870 C869 1.385 . S
C870 C871 1.388 . S
C871 H850 0.939 . S
C871 C866 1.391 . S
C871 C870 1.388 . S
P872 O883 1.491 . S
P872 C886 1.761 1_556 S
P872 C892 1.849 . S
P872 C898 1.821 . S
H873 C887 0.941 . S
H874 C888 0.939 . S
H875 C890 0.940 . S
H876 C891 0.940 . S
H877 C893 0.939 . S
H878 C894 0.942 . S
H879 C896 0.940 . S
H880 C897 0.939 . S
H881 C899 0.941 . S
H882 C903 0.939 . S
O883 P872 1.491 . S
H884 C900 0.939 . S
H885 C902 0.940 . S
C886 P872 1.761 1_554 S
C886 C887 1.389 . S
C886 C891 1.391 . S
C887 H873 0.941 . S
C887 C886 1.389 . S
C887 C888 1.397 . S
C888 H874 0.939 . S
C888 C887 1.397 . S
C888 C889 1.378 . S
C889 C888 1.378 . S
C889 C890 1.378 . S
C890 H875 0.940 . S
C890 C889 1.378 . S
C890 C891 1.396 . S
C891 H876 0.940 . S
C891 C886 1.391 . S
C891 C890 1.396 . S
C892 P872 1.849 . S
C892 C893 1.378 . S
C892 C897 1.400 . S
C893 H877 0.939 . S
C893 C892 1.378 . S
C893 C894 1.361 . S
C894 H878 0.942 . S
C894 C893 1.361 . S
C894 C895 1.369 . S
C895 C894 1.369 . S
C895 C896 1.404 . S
C896 H879 0.940 . S
C896 C895 1.404 . S
C896 C897 1.389 . S
C897 H880 0.939 . S
C897 C892 1.400 . S
C897 C896 1.389 . S
C898 P872 1.821 . S
C898 C899 1.391 1_556 S
C898 C903 1.391 . S
C899 H881 0.941 . S
C899 C898 1.391 1_554 S
C899 C900 1.396 . S
C900 H884 0.939 . S
C900 C899 1.396 . S
C900 C901 1.397 1_554 S
C901 C900 1.397 1_556 S
C901 C902 1.385 . S
C902 H885 0.940 . S
C902 C901 1.385 . S
C902 C903 1.388 . S
C903 H882 0.939 . S
C903 C898 1.391 . S
C903 C902 1.388 . S
P904 O915 1.490 . S
P904 C918 1.812 . S
P904 C924 1.803 . S
P904 C930 1.819 . S
H905 C919 0.941 . S
H906 C920 0.939 . S
H907 C922 0.940 . S
H908 C923 0.940 . S
H909 C925 0.939 . S
H910 C926 0.942 . S
H911 C928 0.940 . S
H912 C929 0.939 . S
H913 C931 0.941 . S
H914 C935 0.939 . S
O915 P904 1.490 . S
H916 C932 0.939 . S
H917 C934 0.940 . S
C918 P904 1.812 . S
C918 C919 1.389 . S
C918 C923 1.391 . S
C919 H905 0.941 . S
C919 C918 1.389 . S
C919 C920 1.397 . S
C920 H906 0.939 . S
C920 C919 1.397 . S
C920 C921 1.378 . S
C921 C920 1.378 . S
C921 C922 1.378 . S
C922 H907 0.940 . S
C922 C921 1.378 . S
C922 C923 1.396 . S
C923 H908 0.940 . S
C923 C918 1.391 . S
C923 C922 1.396 . S
C924 P904 1.803 . S
C924 C925 1.378 . S
C924 C929 1.400 . S
C925 H909 0.939 . S
C925 C924 1.378 . S
C925 C926 1.361 . S
C926 H910 0.942 . S
C926 C925 1.361 . S
C926 C927 1.369 . S
C927 C926 1.369 . S
C927 C928 1.404 . S
C928 H911 0.940 . S
C928 C927 1.404 . S
C928 C929 1.389 . S
C929 H912 0.939 . S
C929 C924 1.400 . S
C929 C928 1.389 . S
C930 P904 1.819 . S
C930 C931 1.391 . S
C930 C935 1.391 . S
C931 H913 0.941 . S
C931 C930 1.391 . S
C931 C932 1.396 . S
C932 H916 0.939 . S
C932 C931 1.396 . S
C932 C933 1.397 . S
C933 C932 1.397 . S
C933 C934 1.385 . S
C934 H917 0.940 . S
C934 C933 1.385 . S
C934 C935 1.388 . S
C935 H914 0.939 . S
C935 C930 1.391 . S
C935 C934 1.388 . S
P936 O947 1.490 1_455 S
P936 C950 1.816 1_455 S
P936 C956 1.799 . S
P936 C962 1.818 . S
H937 C951 0.941 . S
H938 C952 0.939 . S
H939 C954 0.940 . S
H940 C955 0.940 . S
H941 C957 0.939 . S
H942 C958 0.942 . S
H943 C960 0.940 . S
H944 C961 0.939 . S
H945 C963 0.941 . S
H946 C967 0.939 . S
O947 P936 1.490 1_655 S
H948 C964 0.939 . S
H949 C966 0.940 . S
C950 P936 1.816 1_655 S
C950 C951 1.389 . S
C950 C955 1.391 . S
C951 H937 0.941 . S
C951 C950 1.389 . S
C951 C952 1.397 . S
C952 H938 0.939 . S
C952 C951 1.397 . S
C952 C953 1.378 . S
C953 C952 1.378 . S
C953 C954 1.378 . S
C954 H939 0.940 . S
C954 C953 1.378 . S
C954 C955 1.396 . S
C955 H940 0.940 . S
C955 C950 1.391 . S
C955 C954 1.396 . S
C956 P936 1.799 . S
C956 C957 1.378 . S
C956 C961 1.400 . S
C957 H941 0.939 . S
C957 C956 1.378 . S
C957 C958 1.361 . S
C958 H942 0.942 . S
C958 C957 1.361 . S
C958 C959 1.369 . S
C959 C958 1.369 . S
C959 C960 1.404 . S
C960 H943 0.940 . S
C960 C959 1.404 . S
C960 C961 1.389 . S
C961 H944 0.939 . S
C961 C956 1.400 . S
C961 C960 1.389 . S
C962 P936 1.818 . S
C962 C963 1.384 1_455 S
C962 C967 1.399 . S
C963 H945 0.941 . S
C963 C962 1.384 1_655 S
C963 C964 1.396 . S
C964 H948 0.939 . S
C964 C963 1.396 . S
C964 C965 1.397 . S
C965 C964 1.397 . S
C965 C966 1.385 1_655 S
C966 H949 0.940 . S
C966 C965 1.385 1_455 S
C966 C967 1.388 . S
C967 H946 0.939 . S
C967 C962 1.399 . S
C967 C966 1.388 . S
P968 O979 1.490 . S
P968 C982 1.812 . S
P968 C988 1.803 . S
P968 C994 1.819 . S
H969 C983 0.941 . S
H970 C984 0.939 . S
H971 C986 0.940 . S
H972 C987 0.940 . S
H973 C989 0.939 . S
H974 C990 0.942 . S
H975 C992 0.940 . S
H976 C993 0.939 . S
H977 C995 0.941 . S
H978 C999 0.939 . S
O979 P968 1.490 . S
H980 C996 0.939 . S
H981 C998 0.940 . S
C982 P968 1.812 . S
C982 C983 1.389 . S
C982 C987 1.391 . S
C983 H969 0.941 . S
C983 C982 1.389 . S
C983 C984 1.397 . S
C984 H970 0.939 . S
C984 C983 1.397 . S
C984 C985 1.378 . S
C985 C984 1.378 . S
C985 C986 1.378 . S
C986 H971 0.940 . S
C986 C985 1.378 . S
C986 C987 1.396 . S
C987 H972 0.940 . S
C987 C982 1.391 . S
C987 C986 1.396 . S
C988 P968 1.803 . S
C988 C989 1.378 . S
C988 C993 1.400 . S
C989 H973 0.939 . S
C989 C988 1.378 . S
C989 C990 1.361 . S
C990 H974 0.942 . S
C990 C989 1.361 . S
C990 C991 1.369 . S
C991 C990 1.369 . S
C991 C992 1.404 . S
C992 H975 0.940 . S
C992 C991 1.404 . S
C992 C993 1.389 . S
C993 H976 0.939 . S
C993 C988 1.400 . S
C993 C992 1.389 . S
C994 P968 1.819 . S
C994 C995 1.391 . S
C994 C999 1.391 . S
C995 H977 0.941 . S
C995 C994 1.391 . S
C995 C996 1.396 . S
C996 H980 0.939 . S
C996 C995 1.396 . S
C996 C997 1.397 . S
C997 C996 1.397 . S
C997 C998 1.385 . S
C998 H981 0.940 . S
C998 C997 1.385 . S
C998 C999 1.388 . S
C999 H978 0.939 . S
C999 C994 1.391 . S
C999 C998 1.388 . S
P1000 O1011 1.491 . S
P1000 C1014 1.761 1_655 S
P1000 C1020 1.849 . S
P1000 C1026 1.821 . S
H1001 C1015 0.941 . S
H1002 C1016 0.939 . S
H1003 C1018 0.940 . S
H1004 C1019 0.940 . S
H1005 C1021 0.939 . S
H1006 C1022 0.942 . S
H1007 C1024 0.940 . S
H1008 C1025 0.939 . S
H1009 C1027 0.941 . S
H1010 C1031 0.939 . S
O1011 P1000 1.491 . S
H1012 C1028 0.939 . S
H1013 C1030 0.940 . S
C1014 P1000 1.761 1_455 S
C1014 C1015 1.389 . S
C1014 C1019 1.391 . S
C1015 H1001 0.941 . S
C1015 C1014 1.389 . S
C1015 C1016 1.397 . S
C1016 H1002 0.939 . S
C1016 C1015 1.397 . S
C1016 C1017 1.378 . S
C1017 C1016 1.378 . S
C1017 C1018 1.378 . S
C1018 H1003 0.940 . S
C1018 C1017 1.378 . S
C1018 C1019 1.396 . S
C1019 H1004 0.940 . S
C1019 C1014 1.391 . S
C1019 C1018 1.396 . S
C1020 P1000 1.849 . S
C1020 C1021 1.378 . S
C1020 C1025 1.400 . S
C1021 H1005 0.939 . S
C1021 C1020 1.378 . S
C1021 C1022 1.361 . S
C1022 H1006 0.942 . S
C1022 C1021 1.361 . S
C1022 C1023 1.369 . S
C1023 C1022 1.369 . S
C1023 C1024 1.404 . S
C1024 H1007 0.940 . S
C1024 C1023 1.404 . S
C1024 C1025 1.389 . S
C1025 H1008 0.939 . S
C1025 C1020 1.400 . S
C1025 C1024 1.389 . S
C1026 P1000 1.821 . S
C1026 C1027 1.391 1_655 S
C1026 C1031 1.391 . S
C1027 H1009 0.941 . S
C1027 C1026 1.391 1_455 S
C1027 C1028 1.396 . S
C1028 H1012 0.939 . S
C1028 C1027 1.396 . S
C1028 C1029 1.397 1_455 S
C1029 C1028 1.397 1_655 S
C1029 C1030 1.385 . S
C1030 H1013 0.940 . S
C1030 C1029 1.385 . S
C1030 C1031 1.388 . S
C1031 H1010 0.939 . S
C1031 C1026 1.391 . S
C1031 C1030 1.388 . S
H1032 C1038 0.930 . S
H1033 C1042 0.930 . S
H1034 C1047 0.929 . S
H1035 C1045 0.929 . S
H1036 C1040 0.929 . S
H1037 C1046 0.929 . S
C1038 H1032 0.930 . S
C1038 C1039 1.367 . S
C1038 C1046 1.378 . S
C1039 C1038 1.367 . S
C1039 C1047 1.433 . S
C1040 H1036 0.929 . S
C1040 C1042 1.378 . S
C1040 C1044 1.350 . S
C1041 C1044 1.463 . S
C1041 C1046 1.350 . S
C1041 N1049 1.427 . S
C1042 H1033 0.930 . S
C1042 C1040 1.378 . S
C1042 C1043 1.367 . S
C1043 C1042 1.367 . S
C1043 C1045 1.433 . S
C1044 C1040 1.350 . S
C1044 C1041 1.463 . S
C1044 N1048 1.427 . S
C1045 H1035 0.929 . S
C1045 C1043 1.433 . S
C1045 N1048 1.384 . S
C1046 H1037 0.929 . S
C1046 C1038 1.378 . S
C1046 C1041 1.350 . S
C1047 H1034 0.929 . S
C1047 C1039 1.433 . S
C1047 N1049 1.384 . S
N1048 C1044 1.427 . S
N1048 C1045 1.384 . S
N1049 C1041 1.427 . S
N1049 C1047 1.384 . S
H1050 C1056 0.930 . S
H1051 C1060 0.930 . S
H1052 C1065 0.929 . S
H1053 C1063 0.929 . S
H1054 C1058 0.929 . S
H1055 C1064 0.929 . S
C1056 H1050 0.930 . S
C1056 C1057 1.367 . S
C1056 C1064 1.378 . S
C1057 C1056 1.367 . S
C1057 C1065 1.433 . S
C1058 H1054 0.929 . S
C1058 C1060 1.378 . S
C1058 C1062 1.350 . S
C1059 C1062 1.463 . S
C1059 C1064 1.350 . S
C1059 N1067 1.427 . S
C1060 H1051 0.930 . S
C1060 C1058 1.378 . S
C1060 C1061 1.367 . S
C1061 C1060 1.367 . S
C1061 C1063 1.433 . S
C1062 C1058 1.350 . S
C1062 C1059 1.463 . S
C1062 N1066 1.427 . S
C1063 H1053 0.929 . S
C1063 C1061 1.433 . S
C1063 N1066 1.384 . S
C1064 H1055 0.929 . S
C1064 C1056 1.378 . S
C1064 C1059 1.350 . S
C1065 H1052 0.929 . S
C1065 C1057 1.433 . S
C1065 N1067 1.384 . S
N1066 C1062 1.427 . S
N1066 C1063 1.384 . S
N1067 C1059 1.427 . S
N1067 C1065 1.384 . S
H1068 C1074 0.930 . S
H1069 C1078 0.930 . S
H1070 C1083 0.929 . S
H1071 C1081 0.929 . S
H1072 C1076 0.929 . S
H1073 C1082 0.929 . S
C1074 H1068 0.930 . S
C1074 C1075 1.367 . S
C1074 C1082 1.378 . S
C1075 C1074 1.367 . S
C1075 C1083 1.433 . S
C1076 H1072 0.929 . S
C1076 C1078 1.378 . S
C1076 C1080 1.350 . S
C1077 C1080 1.463 . S
C1077 C1082 1.350 . S
C1077 N1085 1.427 . S
C1078 H1069 0.930 . S
C1078 C1076 1.378 . S
C1078 C1079 1.367 . S
C1079 C1078 1.367 . S
C1079 C1081 1.433 . S
C1080 C1076 1.350 . S
C1080 C1077 1.463 . S
C1080 N1084 1.427 . S
C1081 H1071 0.929 . S
C1081 C1079 1.433 . S
C1081 N1084 1.384 . S
C1082 H1073 0.929 . S
C1082 C1074 1.378 . S
C1082 C1077 1.350 . S
C1083 H1070 0.929 . S
C1083 C1075 1.433 . S
C1083 N1085 1.384 . S
N1084 C1080 1.427 . S
N1084 C1081 1.384 . S
N1085 C1077 1.427 . S
N1085 C1083 1.384 . S
H1086 C1092 0.930 1_545 S
H1087 C1096 0.930 . S
H1088 C1101 0.929 . S
H1089 C1099 0.929 . S
H1090 C1094 0.929 . S
H1091 C1100 0.929 . S
C1092 H1086 0.930 1_565 S
C1092 C1093 1.367 . S
C1092 C1100 1.378 . S
C1093 C1092 1.367 . S
C1093 C1101 1.433 . S
C1094 H1090 0.929 . S
C1094 C1096 1.378 . S
C1094 C1098 1.350 . S
C1095 C1098 1.463 . S
C1095 C1100 1.350 . S
C1095 N1103 1.427 . S
C1096 H1087 0.930 . S
C1096 C1094 1.378 . S
C1096 C1097 1.367 . S
C1097 C1096 1.367 . S
C1097 C1099 1.433 . S
C1098 C1094 1.350 . S
C1098 C1095 1.463 . S
C1098 N1102 1.427 . S
C1099 H1089 0.929 . S
C1099 C1097 1.433 . S
C1099 N1102 1.384 . S
C1100 H1091 0.929 . S
C1100 C1092 1.378 . S
C1100 C1095 1.350 . S
C1101 H1088 0.929 . S
C1101 C1093 1.433 . S
C1101 N1103 1.384 . S
N1102 C1098 1.427 . S
N1102 C1099 1.384 . S
N1103 C1095 1.427 . S
N1103 C1101 1.384 . S
H1104 C1110 0.930 . S
H1105 C1114 0.930 . S
H1106 C1119 0.929 . S
H1107 C1117 0.929 . S
H1108 C1112 0.929 . S
H1109 C1118 0.929 . S
C1110 H1104 0.930 . S
C1110 C1111 1.367 . S
C1110 C1118 1.378 . S
C1111 C1110 1.367 . S
C1111 C1119 1.433 . S
C1112 H1108 0.929 . S
C1112 C1114 1.378 . S
C1112 C1116 1.350 . S
C1113 C1116 1.463 . S
C1113 C1118 1.350 . S
C1113 N1121 1.427 . S
C1114 H1105 0.930 . S
C1114 C1112 1.378 . S
C1114 C1115 1.367 . S
C1115 C1114 1.367 . S
C1115 C1117 1.433 . S
C1116 C1112 1.350 . S
C1116 C1113 1.463 . S
C1116 N1120 1.427 . S
C1117 H1107 0.929 . S
C1117 C1115 1.433 . S
C1117 N1120 1.384 . S
C1118 H1109 0.929 . S
C1118 C1110 1.378 . S
C1118 C1113 1.350 . S
C1119 H1106 0.929 . S
C1119 C1111 1.433 . S
C1119 N1121 1.384 . S
N1120 C1116 1.427 . S
N1120 C1117 1.384 . S
N1121 C1113 1.427 . S
N1121 C1119 1.384 . S
H1122 C1128 0.930 . S
H1123 C1132 0.930 . S
H1124 C1137 0.929 1_554 S
H1125 C1135 0.929 . S
H1126 C1130 0.929 . S
H1127 C1136 0.929 . S
C1128 H1122 0.930 . S
C1128 C1129 1.367 . S
C1128 C1136 1.378 . S
C1129 C1128 1.367 . S
C1129 C1137 1.433 . S
C1130 H1126 0.929 . S
C1130 C1132 1.378 . S
C1130 C1134 1.350 . S
C1131 C1134 1.463 . S
C1131 C1136 1.350 . S
C1131 N1139 1.427 . S
C1132 H1123 0.930 . S
C1132 C1130 1.378 . S
C1132 C1133 1.367 . S
C1133 C1132 1.367 . S
C1133 C1135 1.433 . S
C1134 C1130 1.350 . S
C1134 C1131 1.463 . S
C1134 N1138 1.427 . S
C1135 H1125 0.929 . S
C1135 C1133 1.433 . S
C1135 N1138 1.384 . S
C1136 H1127 0.929 . S
C1136 C1128 1.378 . S
C1136 C1131 1.350 . S
C1137 H1124 0.929 1_556 S
C1137 C1129 1.433 . S
C1137 N1139 1.384 . S
N1138 C1134 1.427 . S
N1138 C1135 1.384 . S
N1139 C1131 1.427 . S
N1139 C1137 1.384 . S
H1140 C1146 0.930 . S
H1141 C1150 0.930 . S
H1142 C1155 0.929 . S
H1143 C1153 0.929 . S
H1144 C1148 0.929 . S
H1145 C1154 0.929 . S
C1146 H1140 0.930 . S
C1146 C1147 1.367 . S
C1146 C1154 1.378 . S
C1147 C1146 1.367 . S
C1147 C1155 1.433 . S
C1148 H1144 0.929 . S
C1148 C1150 1.378 . S
C1148 C1152 1.350 . S
C1149 C1152 1.463 . S
C1149 C1154 1.350 . S
C1149 N1157 1.427 . S
C1150 H1141 0.930 . S
C1150 C1148 1.378 . S
C1150 C1151 1.367 . S
C1151 C1150 1.367 . S
C1151 C1153 1.433 . S
C1152 C1148 1.350 . S
C1152 C1149 1.463 . S
C1152 N1156 1.427 . S
C1153 H1143 0.929 . S
C1153 C1151 1.433 . S
C1153 N1156 1.384 . S
C1154 H1145 0.929 . S
C1154 C1146 1.378 . S
C1154 C1149 1.350 . S
C1155 H1142 0.929 . S
C1155 C1147 1.433 . S
C1155 N1157 1.384 . S
N1156 C1152 1.427 . S
N1156 C1153 1.384 . S
N1157 C1149 1.427 . S
N1157 C1155 1.384 . S
H1158 C1164 0.930 . S
H1159 C1168 0.930 . S
H1160 C1173 0.929 . S
H1161 C1171 0.929 . S
H1162 C1166 0.929 1_556 S
H1163 C1172 0.929 . S
C1164 H1158 0.930 . S
C1164 C1165 1.367 . S
C1164 C1172 1.378 . S
C1165 C1164 1.367 . S
C1165 C1173 1.433 1_554 S
C1166 H1162 0.929 1_554 S
C1166 C1168 1.378 . S
C1166 C1170 1.350 . S
C1167 C1170 1.463 . S
C1167 C1172 1.350 . S
C1167 N1175 1.427 1_554 S
C1168 H1159 0.930 . S
C1168 C1166 1.378 . S
C1168 C1169 1.367 . S
C1169 C1168 1.367 . S
C1169 C1171 1.433 . S
C1170 C1166 1.350 . S
C1170 C1167 1.463 . S
C1170 N1174 1.427 . S
C1171 H1161 0.929 . S
C1171 C1169 1.433 . S
C1171 N1174 1.384 . S
C1172 H1163 0.929 . S
C1172 C1164 1.378 . S
C1172 C1167 1.350 . S
C1173 H1160 0.929 . S
C1173 C1165 1.433 1_556 S
C1173 N1175 1.384 . S
N1174 C1170 1.427 . S
N1174 C1171 1.384 . S
N1175 C1167 1.427 1_556 S
N1175 C1173 1.384 . S
H1176 C1182 0.930 . S
H1177 C1186 0.930 . S
H1178 C1191 0.929 . S
H1179 C1189 0.929 . S
H1180 C1184 0.929 . S
H1181 C1190 0.929 . S
C1182 H1176 0.930 . S
C1182 C1183 1.367 . S
C1182 C1190 1.378 . S
C1183 C1182 1.367 . S
C1183 C1191 1.433 . S
C1184 H1180 0.929 . S
C1184 C1186 1.378 . S
C1184 C1188 1.350 . S
C1185 C1188 1.463 . S
C1185 C1190 1.350 . S
C1185 N1193 1.427 . S
C1186 H1177 0.930 . S
C1186 C1184 1.378 . S
C1186 C1187 1.367 . S
C1187 C1186 1.367 . S
C1187 C1189 1.433 . S
C1188 C1184 1.350 . S
C1188 C1185 1.463 . S
C1188 N1192 1.427 . S
C1189 H1179 0.929 . S
C1189 C1187 1.433 . S
C1189 N1192 1.384 . S
C1190 H1181 0.929 . S
C1190 C1182 1.378 . S
C1190 C1185 1.350 . S
C1191 H1178 0.929 . S
C1191 C1183 1.433 . S
C1191 N1193 1.384 . S
N1192 C1188 1.427 . S
N1192 C1189 1.384 . S
N1193 C1185 1.427 . S
N1193 C1191 1.384 . S
H1194 C1200 0.930 . S
H1195 C1204 0.930 . S
H1196 C1209 0.929 . S
H1197 C1207 0.929 . S
H1198 C1202 0.929 1_455 S
H1199 C1208 0.929 . S
C1200 H1194 0.930 . S
C1200 C1201 1.367 . S
C1200 C1208 1.378 . S
C1201 C1200 1.367 . S
C1201 C1209 1.433 1_655 S
C1202 H1198 0.929 1_655 S
C1202 C1204 1.378 . S
C1202 C1206 1.350 . S
C1203 C1206 1.463 . S
C1203 C1208 1.350 . S
C1203 N1211 1.427 . S
C1204 H1195 0.930 . S
C1204 C1202 1.378 . S
C1204 C1205 1.367 . S
C1205 C1204 1.367 . S
C1205 C1207 1.433 . S
C1206 C1202 1.350 . S
C1206 C1203 1.463 . S
C1206 N1210 1.427 . S
C1207 H1197 0.929 . S
C1207 C1205 1.433 . S
C1207 N1210 1.384 . S
C1208 H1199 0.929 . S
C1208 C1200 1.378 . S
C1208 C1203 1.350 . S
C1209 H1196 0.929 . S
C1209 C1201 1.433 1_455 S
C1209 N1211 1.384 1_455 S
N1210 C1206 1.427 . S
N1210 C1207 1.384 . S
N1211 C1203 1.427 . S
N1211 C1209 1.384 1_655 S
H1212 C1218 0.930 . S
H1213 C1222 0.930 . S
H1214 C1227 0.929 . S
H1215 C1225 0.929 . S
H1216 C1220 0.929 . S
H1217 C1226 0.929 . S
C1218 H1212 0.930 . S
C1218 C1219 1.367 . S
C1218 C1226 1.378 . S
C1219 C1218 1.367 . S
C1219 C1227 1.433 . S
C1220 H1216 0.929 . S
C1220 C1222 1.378 . S
C1220 C1224 1.350 . S
C1221 C1224 1.463 . S
C1221 C1226 1.350 . S
C1221 N1229 1.427 . S
C1222 H1213 0.930 . S
C1222 C1220 1.378 . S
C1222 C1223 1.367 . S
C1223 C1222 1.367 . S
C1223 C1225 1.433 . S
C1224 C1220 1.350 . S
C1224 C1221 1.463 . S
C1224 N1228 1.427 . S
C1225 H1215 0.929 . S
C1225 C1223 1.433 . S
C1225 N1228 1.384 . S
C1226 H1217 0.929 . S
C1226 C1218 1.378 . S
C1226 C1221 1.350 . S
C1227 H1214 0.929 . S
C1227 C1219 1.433 . S
C1227 N1229 1.384 . S
N1228 C1224 1.427 . S
N1228 C1225 1.384 . S
N1229 C1221 1.427 . S
N1229 C1227 1.384 . S
H1230 C1236 0.930 . S
H1231 C1240 0.930 . S
H1232 C1245 0.929 1_655 S
H1233 C1243 0.929 . S
H1234 C1238 0.929 . S
H1235 C1244 0.929 . S
C1236 H1230 0.930 . S
C1236 C1237 1.367 . S
C1236 C1244 1.378 . S
C1237 C1236 1.367 . S
C1237 C1245 1.433 . S
C1238 H1234 0.929 . S
C1238 C1240 1.378 . S
C1238 C1242 1.350 . S
C1239 C1242 1.463 . S
C1239 C1244 1.350 . S
C1239 N1247 1.427 . S
C1240 H1231 0.930 . S
C1240 C1238 1.378 . S
C1240 C1241 1.367 . S
C1241 C1240 1.367 . S
C1241 C1243 1.433 . S
C1242 C1238 1.350 . S
C1242 C1239 1.463 . S
C1242 N1246 1.427 . S
C1243 H1233 0.929 . S
C1243 C1241 1.433 . S
C1243 N1246 1.384 . S
C1244 H1235 0.929 . S
C1244 C1236 1.378 . S
C1244 C1239 1.350 . S
C1245 H1232 0.929 1_455 S
C1245 C1237 1.433 . S
C1245 N1247 1.384 . S
N1246 C1242 1.427 . S
N1246 C1243 1.384 . S
N1247 C1239 1.427 . S
N1247 C1245 1.384 . S
H1248 C1254 0.930 . S
H1249 C1258 0.930 . S
H1250 C1263 0.929 . S
H1251 C1261 0.929 . S
H1252 C1256 0.929 . S
H1253 C1262 0.929 . S
C1254 H1248 0.930 . S
C1254 C1255 1.367 . S
C1254 C1262 1.378 . S
C1255 C1254 1.367 . S
C1255 C1263 1.433 . S
C1256 H1252 0.929 . S
C1256 C1258 1.378 . S
C1256 C1260 1.350 . S
C1257 C1260 1.463 . S
C1257 C1262 1.350 . S
C1257 N1265 1.427 . S
C1258 H1249 0.930 . S
C1258 C1256 1.378 . S
C1258 C1259 1.367 . S
C1259 C1258 1.367 . S
C1259 C1261 1.433 . S
C1260 C1256 1.350 . S
C1260 C1257 1.463 . S
C1260 N1264 1.427 . S
C1261 H1251 0.929 . S
C1261 C1259 1.433 . S
C1261 N1264 1.384 . S
C1262 H1253 0.929 . S
C1262 C1254 1.378 . S
C1262 C1257 1.350 . S
C1263 H1250 0.929 . S
C1263 C1255 1.433 . S
C1263 N1265 1.384 . S
N1264 C1260 1.427 . S
N1264 C1261 1.384 . S
N1265 C1257 1.427 . S
N1265 C1263 1.384 . S
H1266 C1272 0.930 . S
H1267 C1276 0.930 . S
H1268 C1281 0.929 . S
H1269 C1279 0.929 . S
H1270 C1274 0.929 . S
H1271 C1280 0.929 . S
C1272 H1266 0.930 . S
C1272 C1273 1.367 . S
C1272 C1280 1.378 . S
C1273 C1272 1.367 . S
C1273 C1281 1.433 . S
C1274 H1270 0.929 . S
C1274 C1276 1.378 . S
C1274 C1278 1.350 . S
C1275 C1278 1.463 . S
C1275 C1280 1.350 . S
C1275 N1283 1.427 . S
C1276 H1267 0.930 . S
C1276 C1274 1.378 . S
C1276 C1277 1.367 . S
C1277 C1276 1.367 . S
C1277 C1279 1.433 . S
C1278 C1274 1.350 . S
C1278 C1275 1.463 . S
C1278 N1282 1.427 . S
C1279 H1269 0.929 . S
C1279 C1277 1.433 . S
C1279 N1282 1.384 . S
C1280 H1271 0.929 . S
C1280 C1272 1.378 . S
C1280 C1275 1.350 . S
C1281 H1268 0.929 . S
C1281 C1273 1.433 . S
C1281 N1283 1.384 . S
N1282 C1278 1.427 . S
N1282 C1279 1.384 . S
N1283 C1275 1.427 . S
N1283 C1281 1.384 . S
H1284 C1290 0.920 1_545 S
H1285 C1294 0.930 . S
H1286 C1299 0.929 . S
H1287 C1297 0.929 . S
H1288 C1292 0.929 . S
H1289 C1298 0.929 . S
C1290 H1284 0.920 1_565 S
C1290 C1291 1.367 . S
C1290 C1298 1.378 . S
C1291 C1290 1.367 . S
C1291 C1299 1.433 . S
C1292 H1288 0.929 . S
C1292 C1294 1.378 . S
C1292 C1296 1.350 . S
C1293 C1296 1.463 . S
C1293 C1298 1.350 . S
C1293 N1301 1.427 . S
C1294 H1285 0.930 . S
C1294 C1292 1.378 . S
C1294 C1295 1.367 . S
C1295 C1294 1.367 . S
C1295 C1297 1.433 . S
C1296 C1292 1.350 . S
C1296 C1293 1.463 . S
C1296 N1300 1.427 . S
C1297 H1287 0.929 . S
C1297 C1295 1.433 . S
C1297 N1300 1.384 . S
C1298 H1289 0.929 . S
C1298 C1290 1.378 . S
C1298 C1293 1.350 . S
C1299 H1286 0.929 . S
C1299 C1291 1.433 . S
C1299 N1301 1.384 . S
N1300 C1296 1.427 . S
N1300 C1297 1.384 . S
N1301 C1293 1.427 . S
N1301 C1299 1.384 . S
H1302 C1308 0.930 . S
H1303 C1312 0.930 . S
H1304 C1317 0.929 . S
H1305 C1315 0.929 . S
H1306 C1310 0.929 . S
H1307 C1316 0.929 . S
C1308 H1302 0.930 . S
C1308 C1309 1.367 . S
C1308 C1316 1.378 . S
C1309 C1308 1.367 . S
C1309 C1317 1.433 . S
C1310 H1306 0.929 . S
C1310 C1312 1.378 . S
C1310 C1314 1.350 . S
C1311 C1314 1.463 . S
C1311 C1316 1.350 . S
C1311 N1319 1.427 . S
C1312 H1303 0.930 . S
C1312 C1310 1.378 . S
C1312 C1313 1.367 . S
C1313 C1312 1.367 . S
C1313 C1315 1.433 . S
C1314 C1310 1.350 . S
C1314 C1311 1.463 . S
C1314 N1318 1.427 . S
C1315 H1305 0.929 . S
C1315 C1313 1.433 . S
C1315 N1318 1.384 . S
C1316 H1307 0.929 . S
C1316 C1308 1.378 . S
C1316 C1311 1.350 . S
C1317 H1304 0.929 . S
C1317 C1309 1.433 . S
C1317 N1319 1.384 . S
N1318 C1314 1.427 . S
N1318 C1315 1.384 . S
N1319 C1311 1.427 . S
N1319 C1317 1.384 . S
H1320 C1326 0.930 . S
H1321 C1330 0.930 . S
H1322 C1335 0.929 . S
H1323 C1333 0.929 . S
H1324 C1328 0.929 . S
H1325 C1334 0.929 . S
C1326 H1320 0.930 . S
C1326 C1327 1.367 . S
C1326 C1334 1.378 . S
C1327 C1326 1.367 . S
C1327 C1335 1.433 . S
C1328 H1324 0.929 . S
C1328 C1330 1.378 . S
C1328 C1332 1.350 . S
C1329 C1332 1.463 . S
C1329 C1334 1.350 . S
C1329 N1337 1.427 . S
C1330 H1321 0.930 . S
C1330 C1328 1.378 . S
C1330 C1331 1.367 . S
C1331 C1330 1.367 . S
C1331 C1333 1.433 . S
C1332 C1328 1.350 . S
C1332 C1329 1.463 . S
C1332 N1336 1.427 . S
C1333 H1323 0.929 . S
C1333 C1331 1.433 . S
C1333 N1336 1.384 . S
C1334 H1325 0.929 . S
C1334 C1326 1.378 . S
C1334 C1329 1.350 . S
C1335 H1322 0.929 . S
C1335 C1327 1.433 . S
C1335 N1337 1.384 . S
N1336 C1332 1.427 . S
N1336 C1333 1.384 . S
N1337 C1329 1.427 . S
N1337 C1335 1.384 . S
H1338 C1344 0.930 . S
H1339 C1348 0.930 . S
H1340 C1353 0.925 1_556 S
H1341 C1351 0.929 . S
H1342 C1346 0.929 . S
H1343 C1352 0.929 . S
C1344 H1338 0.930 . S
C1344 C1345 1.367 . S
C1344 C1352 1.378 . S
C1345 C1344 1.367 . S
C1345 C1353 1.433 . S
C1346 H1342 0.929 . S
C1346 C1348 1.378 . S
C1346 C1350 1.350 . S
C1347 C1350 1.463 . S
C1347 C1352 1.350 . S
C1347 N1355 1.427 . S
C1348 H1339 0.930 . S
C1348 C1346 1.378 . S
C1348 C1349 1.367 . S
C1349 C1348 1.367 . S
C1349 C1351 1.433 . S
C1350 C1346 1.350 . S
C1350 C1347 1.463 . S
C1350 N1354 1.427 . S
C1351 H1341 0.929 . S
C1351 C1349 1.433 . S
C1351 N1354 1.384 . S
C1352 H1343 0.929 . S
C1352 C1344 1.378 . S
C1352 C1347 1.350 . S
C1353 H1340 0.925 1_554 S
C1353 C1345 1.433 . S
C1353 N1355 1.384 . S
N1354 C1350 1.427 . S
N1354 C1351 1.384 . S
N1355 C1347 1.427 . S
N1355 C1353 1.384 . S
H1356 C1362 0.930 . S
H1357 C1366 0.930 . S
H1358 C1371 0.929 . S
H1359 C1369 0.929 . S
H1360 C1364 0.929 . S
H1361 C1370 0.929 . S
C1362 H1356 0.930 . S
C1362 C1363 1.367 . S
C1362 C1370 1.378 . S
C1363 C1362 1.367 . S
C1363 C1371 1.433 . S
C1364 H1360 0.929 . S
C1364 C1366 1.378 . S
C1364 C1368 1.350 . S
C1365 C1368 1.463 . S
C1365 C1370 1.350 . S
C1365 N1373 1.427 . S
C1366 H1357 0.930 . S
C1366 C1364 1.378 . S
C1366 C1367 1.367 . S
C1367 C1366 1.367 . S
C1367 C1369 1.433 . S
C1368 C1364 1.350 . S
C1368 C1365 1.463 . S
C1368 N1372 1.427 . S
C1369 H1359 0.929 . S
C1369 C1367 1.433 . S
C1369 N1372 1.384 . S
C1370 H1361 0.929 . S
C1370 C1362 1.378 . S
C1370 C1365 1.350 . S
C1371 H1358 0.929 . S
C1371 C1363 1.433 . S
C1371 N1373 1.384 . S
N1372 C1368 1.427 . S
N1372 C1369 1.384 . S
N1373 C1365 1.427 . S
N1373 C1371 1.384 . S
H1374 C1380 0.929 1_554 S
H1375 C1384 0.930 . S
H1376 C1389 0.929 . S
H1377 C1387 0.929 . S
H1378 C1382 0.929 . S
H1379 C1388 0.929 . S
C1380 H1374 0.929 1_556 S
C1380 C1381 1.367 . S
C1380 C1388 1.378 . S
C1381 C1380 1.367 . S
C1381 C1389 1.433 . S
C1382 H1378 0.929 . S
C1382 C1384 1.378 . S
C1382 C1386 1.350 . S
C1383 C1386 1.463 . S
C1383 C1388 1.350 . S
C1383 N1391 1.427 . S
C1384 H1375 0.930 . S
C1384 C1382 1.378 . S
C1384 C1385 1.367 . S
C1385 C1384 1.367 . S
C1385 C1387 1.433 . S
C1386 C1382 1.350 . S
C1386 C1383 1.463 . S
C1386 N1390 1.427 . S
C1387 H1377 0.929 . S
C1387 C1385 1.433 . S
C1387 N1390 1.384 . S
C1388 H1379 0.929 . S
C1388 C1380 1.378 . S
C1388 C1383 1.350 . S
C1389 H1376 0.929 . S
C1389 C1381 1.433 . S
C1389 N1391 1.384 . S
N1390 C1386 1.427 . S
N1390 C1387 1.384 . S
N1391 C1383 1.427 . S
N1391 C1389 1.384 . S
H1392 C1398 0.930 . S
H1393 C1402 0.930 . S
H1394 C1407 0.929 . S
H1395 C1405 0.929 . S
H1396 C1400 0.929 . S
H1397 C1406 0.929 . S
C1398 H1392 0.930 . S
C1398 C1399 1.367 . S
C1398 C1406 1.378 . S
C1399 C1398 1.367 . S
C1399 C1407 1.433 . S
C1400 H1396 0.929 . S
C1400 C1402 1.378 . S
C1400 C1404 1.350 . S
C1401 C1404 1.463 . S
C1401 C1406 1.350 . S
C1401 N1409 1.427 . S
C1402 H1393 0.930 . S
C1402 C1400 1.378 . S
C1402 C1403 1.367 . S
C1403 C1402 1.367 . S
C1403 C1405 1.433 . S
C1404 C1400 1.350 . S
C1404 C1401 1.463 . S
C1404 N1408 1.427 . S
C1405 H1395 0.929 . S
C1405 C1403 1.433 . S
C1405 N1408 1.384 . S
C1406 H1397 0.929 . S
C1406 C1398 1.378 . S
C1406 C1401 1.350 . S
C1407 H1394 0.929 . S
C1407 C1399 1.433 . S
C1407 N1409 1.384 . S
N1408 C1404 1.427 . S
N1408 C1405 1.384 . S
N1409 C1401 1.427 . S
N1409 C1407 1.384 . S
H1410 C1416 0.930 . S
H1411 C1420 0.930 . S
H1412 C1425 0.929 1_655 S
H1413 C1423 0.929 . S
H1414 C1418 0.929 . S
H1415 C1424 0.929 . S
C1416 H1410 0.930 . S
C1416 C1417 1.367 . S
C1416 C1424 1.378 . S
C1417 C1416 1.367 . S
C1417 C1425 1.433 . S
C1418 H1414 0.929 . S
C1418 C1420 1.378 . S
C1418 C1422 1.350 . S
C1419 C1422 1.463 . S
C1419 C1424 1.350 . S
C1419 N1427 1.427 . S
C1420 H1411 0.930 . S
C1420 C1418 1.378 . S
C1420 C1421 1.367 . S
C1421 C1420 1.367 . S
C1421 C1423 1.433 . S
C1422 C1418 1.350 . S
C1422 C1419 1.463 . S
C1422 N1426 1.427 . S
C1423 H1413 0.929 . S
C1423 C1421 1.433 . S
C1423 N1426 1.384 . S
C1424 H1415 0.929 . S
C1424 C1416 1.378 . S
C1424 C1419 1.350 . S
C1425 H1412 0.929 1_455 S
C1425 C1417 1.433 . S
C1425 N1427 1.384 . S
N1426 C1422 1.427 . S
N1426 C1423 1.384 . S
N1427 C1419 1.427 . S
N1427 C1425 1.384 . S
H1428 C1434 0.930 . S
H1429 C1438 0.930 . S
H1430 C1443 0.929 . S
H1431 C1441 0.929 . S
H1432 C1436 0.929 . S
H1433 C1442 0.929 . S
C1434 H1428 0.930 . S
C1434 C1435 1.367 . S
C1434 C1442 1.378 . S
C1435 C1434 1.367 . S
C1435 C1443 1.433 . S
C1436 H1432 0.929 . S
C1436 C1438 1.378 . S
C1436 C1440 1.350 . S
C1437 C1440 1.463 . S
C1437 C1442 1.350 . S
C1437 N1445 1.427 . S
C1438 H1429 0.930 . S
C1438 C1436 1.378 . S
C1438 C1439 1.367 . S
C1439 C1438 1.367 . S
C1439 C1441 1.433 . S
C1440 C1436 1.350 . S
C1440 C1437 1.463 . S
C1440 N1444 1.427 . S
C1441 H1431 0.929 . S
C1441 C1439 1.433 . S
C1441 N1444 1.384 . S
C1442 H1433 0.929 . S
C1442 C1434 1.378 . S
C1442 C1437 1.350 . S
C1443 H1430 0.929 . S
C1443 C1435 1.433 . S
C1443 N1445 1.384 . S
N1444 C1440 1.427 . S
N1444 C1441 1.384 . S
N1445 C1437 1.427 . S
N1445 C1443 1.384 . S
H1446 C1452 0.930 . S
H1447 C1456 0.930 . S
H1448 C1461 0.929 1_455 S
H1449 C1459 0.929 . S
H1450 C1454 0.929 . S
H1451 C1460 0.929 . S
C1452 H1446 0.930 . S
C1452 C1453 1.367 . S
C1452 C1460 1.378 . S
C1453 C1452 1.367 . S
C1453 C1461 1.433 . S
C1454 H1450 0.929 . S
C1454 C1456 1.378 . S
C1454 C1458 1.350 . S
C1455 C1458 1.463 . S
C1455 C1460 1.350 . S
C1455 N1463 1.427 . S
C1456 H1447 0.930 . S
C1456 C1454 1.378 . S
C1456 C1457 1.367 . S
C1457 C1456 1.367 . S
C1457 C1459 1.433 . S
C1458 C1454 1.350 . S
C1458 C1455 1.463 . S
C1458 N1462 1.427 . S
C1459 H1449 0.929 . S
C1459 C1457 1.433 . S
C1459 N1462 1.384 . S
C1460 H1451 0.929 . S
C1460 C1452 1.378 . S
C1460 C1455 1.350 . S
C1461 H1448 0.929 1_655 S
C1461 C1453 1.433 . S
C1461 N1463 1.384 . S
N1462 C1458 1.427 . S
N1462 C1459 1.384 . S
N1463 C1455 1.427 . S
N1463 C1461 1.384 . S
H1464 C1470 0.930 . S
H1465 C1474 0.930 . S
H1466 C1479 0.929 . S
H1467 C1477 0.929 . S
H1468 C1472 0.929 . S
H1469 C1478 0.929 . S
C1470 H1464 0.930 . S
C1470 C1471 1.367 . S
C1470 C1478 1.378 . S
C1471 C1470 1.367 . S
C1471 C1479 1.433 . S
C1472 H1468 0.929 . S
C1472 C1474 1.378 . S
C1472 C1476 1.350 . S
C1473 C1476 1.463 . S
C1473 C1478 1.350 . S
C1473 N1481 1.427 . S
C1474 H1465 0.930 . S
C1474 C1472 1.378 . S
C1474 C1475 1.367 . S
C1475 C1474 1.367 . S
C1475 C1477 1.433 . S
C1476 C1472 1.350 . S
C1476 C1473 1.463 . S
C1476 N1480 1.427 . S
C1477 H1467 0.929 . S
C1477 C1475 1.433 . S
C1477 N1480 1.384 . S
C1478 H1469 0.929 . S
C1478 C1470 1.378 . S
C1478 C1473 1.350 . S
C1479 H1466 0.929 . S
C1479 C1471 1.433 . S
C1479 N1481 1.384 . S
N1480 C1476 1.427 . S
N1480 C1477 1.384 . S
N1481 C1473 1.427 . S
N1481 C1479 1.384 . S
H1482 C1488 0.930 . S
H1483 C1492 0.930 . S
H1484 C1497 0.929 . S
H1485 C1495 0.929 . S
H1486 C1490 0.929 . S
H1487 C1496 0.929 . S
C1488 H1482 0.930 . S
C1488 C1489 1.367 . S
C1488 C1496 1.378 . S
C1489 C1488 1.367 . S
C1489 C1497 1.433 . S
C1490 H1486 0.929 . S
C1490 C1492 1.378 . S
C1490 C1494 1.350 . S
C1491 C1494 1.463 . S
C1491 C1496 1.350 . S
C1491 N1499 1.427 . S
C1492 H1483 0.930 . S
C1492 C1490 1.378 . S
C1492 C1493 1.367 . S
C1493 C1492 1.367 . S
C1493 C1495 1.433 . S
C1494 C1490 1.350 . S
C1494 C1491 1.463 . S
C1494 N1498 1.427 . S
C1495 H1485 0.929 . S
C1495 C1493 1.433 . S
C1495 N1498 1.384 . S
C1496 H1487 0.929 . S
C1496 C1488 1.378 . S
C1496 C1491 1.350 . S
C1497 H1484 0.929 . S
C1497 C1489 1.433 . S
C1497 N1499 1.384 . S
N1498 C1494 1.427 . S
N1498 C1495 1.384 . S
N1499 C1491 1.427 . S
N1499 C1497 1.384 . S
H1500 C1506 0.930 . S
H1501 C1510 0.930 . S
H1502 C1515 0.929 1_545 S
H1503 C1513 0.929 . S
H1504 C1508 0.929 . S
H1505 C1514 0.929 . S
C1506 H1500 0.930 . S
C1506 C1507 1.367 . S
C1506 C1514 1.378 . S
C1507 C1506 1.367 . S
C1507 C1515 1.433 . S
C1508 H1504 0.929 . S
C1508 C1510 1.378 . S
C1508 C1512 1.350 1_545 S
C1509 C1512 1.463 . S
C1509 C1514 1.350 . S
C1509 N1517 1.427 1_565 S
C1510 H1501 0.930 . S
C1510 C1508 1.378 . S
C1510 C1511 1.367 . S
C1511 C1510 1.367 . S
C1511 C1513 1.433 1_545 S
C1512 C1508 1.350 1_565 S
C1512 C1509 1.463 . S
C1512 N1516 1.427 . S
C1513 H1503 0.929 . S
C1513 C1511 1.433 1_565 S
C1513 N1516 1.384 . S
C1514 H1505 0.929 . S
C1514 C1506 1.378 . S
C1514 C1509 1.350 . S
C1515 H1502 0.929 1_565 S
C1515 C1507 1.433 . S
C1515 N1517 1.384 1_565 S
N1516 C1512 1.427 . S
N1516 C1513 1.384 . S
N1517 C1509 1.427 1_545 S
N1517 C1515 1.384 1_545 S
H1518 C1524 0.930 . S
H1519 C1528 0.930 . S
H1520 C1533 0.929 . S
H1521 C1531 0.929 . S
H1522 C1526 0.929 . S
H1523 C1532 0.929 . S
C1524 H1518 0.930 . S
C1524 C1525 1.367 1_565 S
C1524 C1532 1.378 . S
C1525 C1524 1.367 1_545 S
C1525 C1533 1.433 . S
C1526 H1522 0.929 . S
C1526 C1528 1.378 . S
C1526 C1530 1.350 . S
C1527 C1530 1.463 . S
C1527 C1532 1.350 1_545 S
C1527 N1535 1.427 . S
C1528 H1519 0.930 . S
C1528 C1526 1.378 . S
C1528 C1529 1.367 . S
C1529 C1528 1.367 . S
C1529 C1531 1.433 1_545 S
C1530 C1526 1.350 . S
C1530 C1527 1.463 . S
C1530 N1534 1.427 1_545 S
C1531 H1521 0.929 . S
C1531 C1529 1.433 1_565 S
C1531 N1534 1.384 . S
C1532 H1523 0.929 . S
C1532 C1524 1.378 . S
C1532 C1527 1.350 1_565 S
C1533 H1520 0.929 . S
C1533 C1525 1.433 . S
C1533 N1535 1.384 . S
N1534 C1530 1.427 1_565 S
N1534 C1531 1.384 . S
N1535 C1527 1.427 . S
N1535 C1533 1.384 . S
H1536 C1542 0.930 . S
H1537 C1546 0.930 . S
H1538 C1551 0.929 . S
H1539 C1549 0.929 . S
H1540 C1544 0.929 . S
H1541 C1550 0.929 . S
C1542 H1536 0.930 . S
C1542 C1543 1.367 . S
C1542 C1550 1.378 . S
C1543 C1542 1.367 . S
C1543 C1551 1.433 . S
C1544 H1540 0.929 . S
C1544 C1546 1.378 . S
C1544 C1548 1.350 . S
C1545 C1548 1.463 . S
C1545 C1550 1.350 . S
C1545 N1553 1.427 . S
C1546 H1537 0.930 . S
C1546 C1544 1.378 . S
C1546 C1547 1.367 . S
C1547 C1546 1.367 . S
C1547 C1549 1.433 . S
C1548 C1544 1.350 . S
C1548 C1545 1.463 . S
C1548 N1552 1.427 . S
C1549 H1539 0.929 . S
C1549 C1547 1.433 . S
C1549 N1552 1.384 . S
C1550 H1541 0.929 . S
C1550 C1542 1.378 . S
C1550 C1545 1.350 . S
C1551 H1538 0.929 . S
C1551 C1543 1.433 . S
C1551 N1553 1.384 . S
N1552 C1548 1.427 . S
N1552 C1549 1.384 . S
N1553 C1545 1.427 . S
N1553 C1551 1.384 . S
H1554 C1560 0.930 . S
H1555 C1564 0.930 . S
H1556 C1569 0.929 . S
H1557 C1567 0.929 . S
H1558 C1562 0.929 . S
H1559 C1568 0.929 . S
C1560 H1554 0.930 . S
C1560 C1561 1.367 . S
C1560 C1568 1.378 . S
C1561 C1560 1.367 . S
C1561 C1569 1.433 1_554 S
C1562 H1558 0.929 . S
C1562 C1564 1.378 . S
C1562 C1566 1.350 1_556 S
C1563 C1566 1.463 . S
C1563 C1568 1.350 . S
C1563 N1571 1.427 1_554 S
C1564 H1555 0.930 . S
C1564 C1562 1.378 . S
C1564 C1565 1.367 1_556 S
C1565 C1564 1.367 1_554 S
C1565 C1567 1.433 . S
C1566 C1562 1.350 1_554 S
C1566 C1563 1.463 . S
C1566 N1570 1.427 . S
C1567 H1557 0.929 . S
C1567 C1565 1.433 . S
C1567 N1570 1.384 . S
C1568 H1559 0.929 . S
C1568 C1560 1.378 . S
C1568 C1563 1.350 . S
C1569 H1556 0.929 . S
C1569 C1561 1.433 1_556 S
C1569 N1571 1.384 . S
N1570 C1566 1.427 . S
N1570 C1567 1.384 . S
N1571 C1563 1.427 1_556 S
N1571 C1569 1.384 . S
H1572 C1578 0.930 . S
H1573 C1582 0.930 . S
H1574 C1587 0.929 . S
H1575 C1585 0.929 . S
H1576 C1580 0.929 . S
H1577 C1586 0.929 . S
C1578 H1572 0.930 . S
C1578 C1579 1.367 . S
C1578 C1586 1.378 . S
C1579 C1578 1.367 . S
C1579 C1587 1.433 . S
C1580 H1576 0.929 . S
C1580 C1582 1.378 . S
C1580 C1584 1.350 . S
C1581 C1584 1.463 . S
C1581 C1586 1.350 . S
C1581 N1589 1.427 . S
C1582 H1573 0.930 . S
C1582 C1580 1.378 . S
C1582 C1583 1.367 . S
C1583 C1582 1.367 . S
C1583 C1585 1.433 . S
C1584 C1580 1.350 . S
C1584 C1581 1.463 . S
C1584 N1588 1.427 . S
C1585 H1575 0.929 . S
C1585 C1583 1.433 . S
C1585 N1588 1.384 . S
C1586 H1577 0.929 . S
C1586 C1578 1.378 . S
C1586 C1581 1.350 . S
C1587 H1574 0.929 . S
C1587 C1579 1.433 . S
C1587 N1589 1.384 . S
N1588 C1584 1.427 . S
N1588 C1585 1.384 . S
N1589 C1581 1.427 . S
N1589 C1587 1.384 . S
H1590 C1596 0.930 . S
H1591 C1600 0.930 . S
H1592 C1605 0.929 . S
H1593 C1603 0.929 . S
H1594 C1598 0.929 . S
H1595 C1604 0.929 . S
C1596 H1590 0.930 . S
C1596 C1597 1.367 1_554 S
C1596 C1604 1.378 . S
C1597 C1596 1.367 1_556 S
C1597 C1605 1.433 . S
C1598 H1594 0.929 . S
C1598 C1600 1.378 . S
C1598 C1602 1.350 . S
C1599 C1602 1.463 . S
C1599 C1604 1.350 1_556 S
C1599 N1607 1.427 . S
C1600 H1591 0.930 . S
C1600 C1598 1.378 . S
C1600 C1601 1.367 1_556 S
C1601 C1600 1.367 1_554 S
C1601 C1603 1.433 . S
C1602 C1598 1.350 . S
C1602 C1599 1.463 . S
C1602 N1606 1.427 1_556 S
C1603 H1593 0.929 . S
C1603 C1601 1.433 . S
C1603 N1606 1.384 . S
C1604 H1595 0.929 . S
C1604 C1596 1.378 . S
C1604 C1599 1.350 1_554 S
C1605 H1592 0.929 . S
C1605 C1597 1.433 . S
C1605 N1607 1.384 . S
N1606 C1602 1.427 1_554 S
N1606 C1603 1.384 . S
N1607 C1599 1.427 . S
N1607 C1605 1.384 . S
H1608 C1614 0.930 . S
H1609 C1618 0.930 . S
H1610 C1623 0.929 . S
H1611 C1621 0.929 . S
H1612 C1616 0.929 . S
H1613 C1622 0.929 . S
C1614 H1608 0.930 . S
C1614 C1615 1.367 . S
C1614 C1622 1.378 . S
C1615 C1614 1.367 . S
C1615 C1623 1.433 . S
C1616 H1612 0.929 . S
C1616 C1618 1.378 . S
C1616 C1620 1.350 . S
C1617 C1620 1.463 . S
C1617 C1622 1.350 . S
C1617 N1625 1.427 . S
C1618 H1609 0.930 . S
C1618 C1616 1.378 . S
C1618 C1619 1.367 . S
C1619 C1618 1.367 . S
C1619 C1621 1.433 . S
C1620 C1616 1.350 . S
C1620 C1617 1.463 . S
C1620 N1624 1.427 . S
C1621 H1611 0.929 . S
C1621 C1619 1.433 . S
C1621 N1624 1.384 . S
C1622 H1613 0.929 . S
C1622 C1614 1.378 . S
C1622 C1617 1.350 . S
C1623 H1610 0.929 . S
C1623 C1615 1.433 . S
C1623 N1625 1.384 . S
N1624 C1620 1.427 . S
N1624 C1621 1.384 . S
N1625 C1617 1.427 . S
N1625 C1623 1.384 . S
H1626 C1632 0.930 1_655 S
H1627 C1636 0.930 . S
H1628 C1641 0.929 . S
H1629 C1639 0.929 . S
H1630 C1634 0.929 . S
H1631 C1640 0.954 . S
C1632 H1626 0.930 1_455 S
C1632 C1633 1.367 . S
C1632 C1640 1.377 1_455 S
C1633 C1632 1.367 . S
C1633 C1641 1.433 . S
C1634 H1630 0.929 . S
C1634 C1636 1.378 . S
C1634 C1638 1.350 . S
C1635 C1638 1.463 . S
C1635 C1640 1.327 1_455 S
C1635 N1643 1.427 . S
C1636 H1627 0.930 . S
C1636 C1634 1.378 . S
C1636 C1637 1.367 . S
C1637 C1636 1.367 . S
C1637 C1639 1.433 1_455 S
C1638 C1634 1.350 . S
C1638 C1635 1.463 . S
C1638 N1642 1.427 1_455 S
C1639 H1629 0.929 . S
C1639 C1637 1.433 1_655 S
C1639 N1642 1.384 . S
C1640 H1631 0.954 . S
C1640 C1632 1.377 1_655 S
C1640 C1635 1.327 1_655 S
C1641 H1628 0.929 . S
C1641 C1633 1.433 . S
C1641 N1643 1.384 . S
N1642 C1638 1.427 1_655 S
N1642 C1639 1.384 . S
N1643 C1635 1.427 . S
N1643 C1641 1.384 . S
H1644 C1650 0.930 . S
H1645 C1654 0.930 . S
H1646 C1659 0.929 . S
H1647 C1657 0.929 . S
H1648 C1652 0.929 . S
H1649 C1658 0.929 . S
C1650 H1644 0.930 . S
C1650 C1651 1.367 . S
C1650 C1658 1.378 . S
C1651 C1650 1.367 . S
C1651 C1659 1.433 . S
C1652 H1648 0.929 . S
C1652 C1654 1.378 . S
C1652 C1656 1.350 . S
C1653 C1656 1.463 . S
C1653 C1658 1.350 . S
C1653 N1661 1.427 . S
C1654 H1645 0.930 . S
C1654 C1652 1.378 . S
C1654 C1655 1.367 . S
C1655 C1654 1.367 . S
C1655 C1657 1.433 . S
C1656 C1652 1.350 . S
C1656 C1653 1.463 . S
C1656 N1660 1.427 . S
C1657 H1647 0.929 . S
C1657 C1655 1.433 . S
C1657 N1660 1.384 . S
C1658 H1649 0.929 . S
C1658 C1650 1.378 . S
C1658 C1653 1.350 . S
C1659 H1646 0.929 . S
C1659 C1651 1.433 . S
C1659 N1661 1.384 . S
N1660 C1656 1.427 . S
N1660 C1657 1.384 . S
N1661 C1653 1.427 . S
N1661 C1659 1.384 . S
H1662 C1668 0.930 . S
H1663 C1672 0.930 . S
H1664 C1677 0.917 1_455 S
H1665 C1675 0.929 . S
H1666 C1670 0.929 . S
H1667 C1676 0.929 . S
C1668 H1662 0.930 . S
C1668 C1669 1.367 . S
C1668 C1676 1.378 . S
C1669 C1668 1.367 . S
C1669 C1677 1.454 . S
C1670 H1666 0.929 . S
C1670 C1672 1.378 . S
C1670 C1674 1.350 1_455 S
C1671 C1674 1.463 . S
C1671 C1676 1.350 . S
C1671 N1679 1.427 1_655 S
C1672 H1663 0.930 . S
C1672 C1670 1.378 . S
C1672 C1673 1.367 . S
C1673 C1672 1.367 . S
C1673 C1675 1.433 1_455 S
C1674 C1670 1.350 1_655 S
C1674 C1671 1.463 . S
C1674 N1678 1.427 . S
C1675 H1665 0.929 . S
C1675 C1673 1.433 1_655 S
C1675 N1678 1.384 . S
C1676 H1667 0.929 . S
C1676 C1668 1.378 . S
C1676 C1671 1.350 . S
C1677 H1664 0.917 1_655 S
C1677 C1669 1.454 . S
C1677 N1679 1.377 1_655 S
N1678 C1674 1.427 . S
N1678 C1675 1.384 . S
N1679 C1671 1.427 1_455 S
N1679 C1677 1.377 1_455 S
H1680 C1686 0.930 . S
H1681 C1690 0.930 . S
H1682 C1695 0.929 . S
H1683 C1693 0.929 . S
H1684 C1688 0.929 . S
H1685 C1694 0.929 . S
C1686 H1680 0.930 . S
C1686 C1687 1.367 . S
C1686 C1694 1.378 . S
C1687 C1686 1.367 . S
C1687 C1695 1.433 . S
C1688 H1684 0.929 . S
C1688 C1690 1.378 . S
C1688 C1692 1.350 . S
C1689 C1692 1.463 . S
C1689 C1694 1.350 . S
C1689 N1697 1.427 . S
C1690 H1681 0.930 . S
C1690 C1688 1.378 . S
C1690 C1691 1.367 . S
C1691 C1690 1.367 . S
C1691 C1693 1.433 . S
C1692 C1688 1.350 . S
C1692 C1689 1.463 . S
C1692 N1696 1.427 . S
C1693 H1683 0.929 . S
C1693 C1691 1.433 . S
C1693 N1696 1.384 . S
C1694 H1685 0.929 . S
C1694 C1686 1.378 . S
C1694 C1689 1.350 . S
C1695 H1682 0.929 . S
C1695 C1687 1.433 . S
C1695 N1697 1.384 . S
N1696 C1692 1.427 . S
N1696 C1693 1.384 . S
N1697 C1689 1.427 . S
N1697 C1695 1.384 . S
H1698 C1704 0.930 . S
H1699 C1708 0.930 . S
H1700 C1713 0.929 . S
H1701 C1711 0.929 . S
H1702 C1706 0.929 . S
H1703 C1712 0.929 . S
C1704 H1698 0.930 . S
C1704 C1705 1.367 . S
C1704 C1712 1.378 . S
C1705 C1704 1.367 . S
C1705 C1713 1.433 . S
C1706 H1702 0.929 . S
C1706 C1708 1.378 . S
C1706 C1710 1.350 . S
C1707 C1710 1.463 . S
C1707 C1712 1.350 . S
C1707 N1715 1.427 . S
C1708 H1699 0.930 . S
C1708 C1706 1.378 . S
C1708 C1709 1.367 . S
C1709 C1708 1.367 . S
C1709 C1711 1.433 . S
C1710 C1706 1.350 . S
C1710 C1707 1.463 . S
C1710 N1714 1.427 . S
C1711 H1701 0.929 . S
C1711 C1709 1.433 . S
C1711 N1714 1.384 . S
C1712 H1703 0.929 . S
C1712 C1704 1.378 . S
C1712 C1707 1.350 . S
C1713 H1700 0.929 . S
C1713 C1705 1.433 . S
C1713 N1715 1.384 . S
N1714 C1710 1.427 . S
N1714 C1711 1.384 . S
N1715 C1707 1.427 . S
N1715 C1713 1.384 . S
H1716 C1722 0.930 . S
H1717 C1726 0.930 . S
H1718 C1731 0.929 . S
H1719 C1729 0.929 . S
H1720 C1724 0.929 . S
H1721 C1730 0.929 . S
C1722 H1716 0.930 . S
C1722 C1723 1.367 . S
C1722 C1730 1.378 . S
C1723 C1722 1.367 . S
C1723 C1731 1.433 1_545 S
C1724 H1720 0.929 . S
C1724 C1726 1.378 . S
C1724 C1728 1.307 1_565 S
C1725 C1728 1.477 . S
C1725 C1730 1.350 . S
C1725 N1733 1.427 1_545 S
C1726 H1717 0.930 . S
C1726 C1724 1.378 . S
C1726 C1727 1.367 . S
C1727 C1726 1.367 . S
C1727 C1729 1.433 1_565 S
C1728 C1724 1.307 1_545 S
C1728 C1725 1.477 . S
C1728 N1732 1.461 . S
C1729 H1719 0.929 . S
C1729 C1727 1.433 1_545 S
C1729 N1732 1.384 . S
C1730 H1721 0.929 . S
C1730 C1722 1.378 . S
C1730 C1725 1.350 . S
C1731 H1718 0.929 . S
C1731 C1723 1.433 1_565 S
C1731 N1733 1.384 . S
N1732 C1728 1.461 . S
N1732 C1729 1.384 . S
N1733 C1725 1.427 1_565 S
N1733 C1731 1.384 . S
H1734 C1740 0.930 . S
H1735 C1744 0.930 . S
H1736 C1749 0.929 . S
H1737 C1747 0.929 . S
H1738 C1742 0.929 . S
H1739 C1748 0.929 . S
C1740 H1734 0.930 . S
C1740 C1741 1.367 1_545 S
C1740 C1748 1.378 . S
C1741 C1740 1.367 1_565 S
C1741 C1749 1.433 . S
C1742 H1738 0.929 . S
C1742 C1744 1.378 . S
C1742 C1746 1.350 . S
C1743 C1746 1.463 . S
C1743 C1748 1.350 1_565 S
C1743 N1751 1.427 . S
C1744 H1735 0.930 . S
C1744 C1742 1.378 . S
C1744 C1745 1.367 . S
C1745 C1744 1.367 . S
C1745 C1747 1.433 1_565 S
C1746 C1742 1.350 . S
C1746 C1743 1.463 . S
C1746 N1750 1.427 1_565 S
C1747 H1737 0.929 . S
C1747 C1745 1.433 1_545 S
C1747 N1750 1.384 . S
C1748 H1739 0.929 . S
C1748 C1740 1.378 . S
C1748 C1743 1.350 1_545 S
C1749 H1736 0.929 . S
C1749 C1741 1.433 . S
C1749 N1751 1.384 . S
N1750 C1746 1.427 1_545 S
N1750 C1747 1.384 . S
N1751 C1743 1.427 . S
N1751 C1749 1.384 . S
H1752 C1758 0.930 . S
H1753 C1762 0.930 . S
H1754 C1767 0.929 . S
H1755 C1765 0.929 . S
H1756 C1760 0.929 . S
H1757 C1766 0.929 . S
C1758 H1752 0.930 . S
C1758 C1759 1.367 . S
C1758 C1766 1.378 . S
C1759 C1758 1.367 . S
C1759 C1767 1.433 . S
C1760 H1756 0.929 . S
C1760 C1762 1.378 . S
C1760 C1764 1.350 . S
C1761 C1764 1.463 . S
C1761 C1766 1.350 . S
C1761 N1769 1.427 . S
C1762 H1753 0.930 . S
C1762 C1760 1.378 . S
C1762 C1763 1.367 . S
C1763 C1762 1.367 . S
C1763 C1765 1.433 . S
C1764 C1760 1.350 . S
C1764 C1761 1.463 . S
C1764 N1768 1.427 . S
C1765 H1755 0.929 . S
C1765 C1763 1.433 . S
C1765 N1768 1.384 . S
C1766 H1757 0.929 . S
C1766 C1758 1.378 . S
C1766 C1761 1.350 . S
C1767 H1754 0.929 . S
C1767 C1759 1.433 . S
C1767 N1769 1.384 . S
N1768 C1764 1.427 . S
N1768 C1765 1.384 . S
N1769 C1761 1.427 . S
N1769 C1767 1.384 . S
H1770 C1776 0.930 . S
H1771 C1780 0.930 . S
H1772 C1785 0.929 . S
H1773 C1783 0.929 . S
H1774 C1778 0.929 . S
H1775 C1784 0.929 . S
C1776 H1770 0.930 . S
C1776 C1777 1.367 . S
C1776 C1784 1.378 . S
C1777 C1776 1.367 . S
C1777 C1785 1.433 1_556 S
C1778 H1774 0.929 . S
C1778 C1780 1.378 . S
C1778 C1782 1.350 1_554 S
C1779 C1782 1.463 . S
C1779 C1784 1.350 . S
C1779 N1787 1.427 1_556 S
C1780 H1771 0.930 . S
C1780 C1778 1.378 . S
C1780 C1781 1.367 1_554 S
C1781 C1780 1.367 1_556 S
C1781 C1783 1.433 . S
C1782 C1778 1.350 1_556 S
C1782 C1779 1.463 . S
C1782 N1786 1.427 . S
C1783 H1773 0.929 . S
C1783 C1781 1.433 . S
C1783 N1786 1.384 . S
C1784 H1775 0.929 . S
C1784 C1776 1.378 . S
C1784 C1779 1.350 . S
C1785 H1772 0.929 . S
C1785 C1777 1.433 1_554 S
C1785 N1787 1.384 . S
N1786 C1782 1.427 . S
N1786 C1783 1.384 . S
N1787 C1779 1.427 1_554 S
N1787 C1785 1.384 . S
H1788 C1794 0.930 . S
H1789 C1798 0.930 . S
H1790 C1803 0.929 . S
H1791 C1801 0.929 . S
H1792 C1796 0.929 . S
H1793 C1802 0.929 . S
C1794 H1788 0.930 . S
C1794 C1795 1.367 . S
C1794 C1802 1.378 . S
C1795 C1794 1.367 . S
C1795 C1803 1.433 . S
C1796 H1792 0.929 . S
C1796 C1798 1.378 . S
C1796 C1800 1.350 . S
C1797 C1800 1.463 . S
C1797 C1802 1.350 . S
C1797 N1805 1.427 . S
C1798 H1789 0.930 . S
C1798 C1796 1.378 . S
C1798 C1799 1.367 . S
C1799 C1798 1.367 . S
C1799 C1801 1.433 . S
C1800 C1796 1.350 . S
C1800 C1797 1.463 . S
C1800 N1804 1.427 . S
C1801 H1791 0.929 . S
C1801 C1799 1.433 . S
C1801 N1804 1.384 . S
C1802 H1793 0.929 . S
C1802 C1794 1.378 . S
C1802 C1797 1.350 . S
C1803 H1790 0.929 . S
C1803 C1795 1.433 . S
C1803 N1805 1.384 . S
N1804 C1800 1.427 . S
N1804 C1801 1.384 . S
N1805 C1797 1.427 . S
N1805 C1803 1.384 . S
H1806 C1812 0.930 . S
H1807 C1816 0.930 . S
H1808 C1821 0.929 . S
H1809 C1819 0.929 . S
H1810 C1814 0.929 . S
H1811 C1820 0.929 . S
C1812 H1806 0.930 . S
C1812 C1813 1.367 . S
C1812 C1820 1.378 . S
C1813 C1812 1.367 . S
C1813 C1821 1.433 1_554 S
C1814 H1810 0.929 . S
C1814 C1816 1.378 . S
C1814 C1818 1.308 1_556 S
C1815 C1818 1.478 . S
C1815 C1820 1.350 . S
C1815 N1823 1.427 1_554 S
C1816 H1807 0.930 . S
C1816 C1814 1.378 . S
C1816 C1817 1.367 . S
C1817 C1816 1.367 . S
C1817 C1819 1.433 1_556 S
C1818 C1814 1.308 1_554 S
C1818 C1815 1.478 . S
C1818 N1822 1.459 . S
C1819 H1809 0.929 . S
C1819 C1817 1.433 1_554 S
C1819 N1822 1.384 . S
C1820 H1811 0.929 . S
C1820 C1812 1.378 . S
C1820 C1815 1.350 . S
C1821 H1808 0.929 . S
C1821 C1813 1.433 1_556 S
C1821 N1823 1.384 . S
N1822 C1818 1.459 . S
N1822 C1819 1.384 . S
N1823 C1815 1.427 1_556 S
N1823 C1821 1.384 . S
H1824 C1830 0.930 . S
H1825 C1834 0.930 . S
H1826 C1839 0.929 . S
H1827 C1837 0.929 . S
H1828 C1832 0.929 . S
H1829 C1838 0.929 . S
C1830 H1824 0.930 . S
C1830 C1831 1.367 . S
C1830 C1838 1.378 . S
C1831 C1830 1.367 . S
C1831 C1839 1.433 . S
C1832 H1828 0.929 . S
C1832 C1834 1.378 . S
C1832 C1836 1.350 . S
C1833 C1836 1.463 . S
C1833 C1838 1.350 . S
C1833 N1841 1.427 . S
C1834 H1825 0.930 . S
C1834 C1832 1.378 . S
C1834 C1835 1.367 . S
C1835 C1834 1.367 . S
C1835 C1837 1.433 . S
C1836 C1832 1.350 . S
C1836 C1833 1.463 . S
C1836 N1840 1.427 . S
C1837 H1827 0.929 . S
C1837 C1835 1.433 . S
C1837 N1840 1.384 . S
C1838 H1829 0.929 . S
C1838 C1830 1.378 . S
C1838 C1833 1.350 . S
C1839 H1826 0.929 . S
C1839 C1831 1.433 . S
C1839 N1841 1.384 . S
N1840 C1836 1.427 . S
N1840 C1837 1.384 . S
N1841 C1833 1.427 . S
N1841 C1839 1.384 . S
H1842 C1848 0.930 . S
H1843 C1852 0.930 . S
H1844 C1857 0.929 1_455 S
H1845 C1855 0.929 . S
H1846 C1850 0.929 . S
H1847 C1856 0.929 . S
C1848 H1842 0.930 . S
C1848 C1849 1.367 . S
C1848 C1856 1.378 . S
C1849 C1848 1.367 . S
C1849 C1857 1.433 . S
C1850 H1846 0.929 . S
C1850 C1852 1.378 . S
C1850 C1854 1.350 1_455 S
C1851 C1854 1.463 . S
C1851 C1856 1.350 . S
C1851 N1859 1.422 1_655 S
C1852 H1843 0.930 . S
C1852 C1850 1.378 . S
C1852 C1853 1.367 1_455 S
C1853 C1852 1.367 1_655 S
C1853 C1855 1.433 . S
C1854 C1850 1.350 1_655 S
C1854 C1851 1.463 . S
C1854 N1858 1.427 . S
C1855 H1845 0.929 . S
C1855 C1853 1.433 . S
C1855 N1858 1.384 . S
C1856 H1847 0.929 . S
C1856 C1848 1.378 . S
C1856 C1851 1.350 . S
C1857 H1844 0.929 1_655 S
C1857 C1849 1.433 . S
C1857 N1859 1.383 1_655 S
N1858 C1854 1.427 . S
N1858 C1855 1.384 . S
N1859 C1851 1.422 1_455 S
N1859 C1857 1.383 1_455 S
H1860 C1866 0.930 . S
H1861 C1870 0.930 . S
H1862 C1875 0.929 . S
H1863 C1873 0.929 . S
H1864 C1868 0.929 . S
H1865 C1874 0.929 . S
C1866 H1860 0.930 . S
C1866 C1867 1.367 . S
C1866 C1874 1.378 . S
C1867 C1866 1.367 . S
C1867 C1875 1.433 . S
C1868 H1864 0.929 . S
C1868 C1870 1.378 . S
C1868 C1872 1.350 . S
C1869 C1872 1.463 . S
C1869 C1874 1.350 . S
C1869 N1877 1.427 . S
C1870 H1861 0.930 . S
C1870 C1868 1.378 . S
C1870 C1871 1.367 . S
C1871 C1870 1.367 . S
C1871 C1873 1.433 . S
C1872 C1868 1.350 . S
C1872 C1869 1.463 . S
C1872 N1876 1.427 . S
C1873 H1863 0.929 . S
C1873 C1871 1.433 . S
C1873 N1876 1.384 . S
C1874 H1865 0.929 . S
C1874 C1866 1.378 . S
C1874 C1869 1.350 . S
C1875 H1862 0.929 . S
C1875 C1867 1.433 . S
C1875 N1877 1.384 . S
N1876 C1872 1.427 . S
N1876 C1873 1.384 . S
N1877 C1869 1.427 . S
N1877 C1875 1.384 . S
H1878 C1884 0.930 . S
H1879 C1888 0.933 . S
H1880 C1893 0.929 . S
H1881 C1891 0.929 . S
H1882 C1886 0.929 . S
H1883 C1892 0.929 . S
C1884 H1878 0.930 . S
C1884 C1885 1.367 . S
C1884 C1892 1.378 . S
C1885 C1884 1.367 . S
C1885 C1893 1.433 . S
C1886 H1882 0.929 . S
C1886 C1888 1.368 1_455 S
C1886 C1890 1.350 . S
C1887 C1890 1.463 . S
C1887 C1892 1.350 . S
C1887 N1895 1.427 . S
C1888 H1879 0.933 . S
C1888 C1886 1.368 1_655 S
C1888 C1889 1.377 . S
C1889 C1888 1.377 . S
C1889 C1891 1.433 . S
C1890 C1886 1.350 . S
C1890 C1887 1.463 . S
C1890 N1894 1.427 1_455 S
C1891 H1881 0.929 . S
C1891 C1889 1.433 . S
C1891 N1894 1.384 . S
C1892 H1883 0.929 . S
C1892 C1884 1.378 . S
C1892 C1887 1.350 . S
C1893 H1880 0.929 . S
C1893 C1885 1.433 . S
C1893 N1895 1.384 . S
N1894 C1890 1.427 1_655 S
N1894 C1891 1.384 . S
N1895 C1887 1.427 . S
N1895 C1893 1.384 . S
H1896 C1902 0.930 . S
H1897 C1906 0.930 . S
H1898 C1911 0.929 . S
H1899 C1909 0.929 . S
H1900 C1904 0.929 . S
H1901 C1910 0.929 . S
C1902 H1896 0.930 . S
C1902 C1903 1.367 . S
C1902 C1910 1.378 . S
C1903 C1902 1.367 . S
C1903 C1911 1.433 . S
C1904 H1900 0.929 . S
C1904 C1906 1.378 . S
C1904 C1908 1.350 . S
C1905 C1908 1.463 . S
C1905 C1910 1.350 . S
C1905 N1913 1.427 . S
C1906 H1897 0.930 . S
C1906 C1904 1.378 . S
C1906 C1907 1.367 . S
C1907 C1906 1.367 . S
C1907 C1909 1.433 . S
C1908 C1904 1.350 . S
C1908 C1905 1.463 . S
C1908 N1912 1.427 . S
C1909 H1899 0.929 . S
C1909 C1907 1.433 . S
C1909 N1912 1.384 . S
C1910 H1901 0.929 . S
C1910 C1902 1.378 . S
C1910 C1905 1.350 . S
C1911 H1898 0.929 . S
C1911 C1903 1.433 . S
C1911 N1913 1.384 . S
N1912 C1908 1.427 . S
N1912 C1909 1.384 . S
N1913 C1905 1.427 . S
N1913 C1911 1.384 . S
H1914 C1920 0.930 . S
H1915 C1924 0.930 . S
H1916 C1929 0.929 . S
H1917 C1927 0.929 . S
H1918 C1922 0.929 . S
H1919 C1928 0.929 . S
C1920 H1914 0.930 . S
C1920 C1921 1.367 . S
C1920 C1928 1.378 . S
C1921 C1920 1.367 . S
C1921 C1929 1.433 . S
C1922 H1918 0.929 . S
C1922 C1924 1.378 . S
C1922 C1926 1.350 . S
C1923 C1926 1.463 . S
C1923 C1928 1.350 . S
C1923 N1931 1.427 . S
C1924 H1915 0.930 . S
C1924 C1922 1.378 . S
C1924 C1925 1.367 . S
C1925 C1924 1.367 . S
C1925 C1927 1.433 . S
C1926 C1922 1.350 . S
C1926 C1923 1.463 . S
C1926 N1930 1.427 . S
C1927 H1917 0.929 . S
C1927 C1925 1.433 . S
C1927 N1930 1.384 . S
C1928 H1919 0.929 . S
C1928 C1920 1.378 . S
C1928 C1923 1.350 . S
C1929 H1916 0.929 . S
C1929 C1921 1.433 . S
C1929 N1931 1.384 . S
N1930 C1926 1.427 . S
N1930 C1927 1.384 . S
N1931 C1923 1.427 . S
N1931 C1929 1.384 . S
H1932 C1938 0.930 . S
H1933 C1942 0.930 . S
H1934 C1947 0.929 . S
H1935 C1945 0.929 . S
H1936 C1940 0.928 1_565 S
H1937 C1946 0.929 . S
C1938 H1932 0.930 . S
C1938 C1939 1.367 . S
C1938 C1946 1.378 . S
C1939 C1938 1.367 . S
C1939 C1947 1.433 1_545 S
C1940 H1936 0.928 1_545 S
C1940 C1942 1.378 . S
C1940 C1944 1.350 . S
C1941 C1944 1.463 . S
C1941 C1946 1.350 . S
C1941 N1949 1.427 . S
C1942 H1933 0.930 . S
C1942 C1940 1.378 . S
C1942 C1943 1.367 . S
C1943 C1942 1.367 . S
C1943 C1945 1.433 . S
C1944 C1940 1.350 . S
C1944 C1941 1.463 . S
C1944 N1948 1.427 . S
C1945 H1935 0.929 . S
C1945 C1943 1.433 . S
C1945 N1948 1.384 . S
C1946 H1937 0.929 . S
C1946 C1938 1.378 . S
C1946 C1941 1.350 . S
C1947 H1934 0.929 . S
C1947 C1939 1.433 1_565 S
C1947 N1949 1.384 1_565 S
N1948 C1944 1.427 . S
N1948 C1945 1.384 . S
N1949 C1941 1.427 . S
N1949 C1947 1.384 1_545 S
H1950 C1956 0.930 . S
H1951 C1960 0.930 . S
H1952 C1965 0.929 . S
H1953 C1963 0.929 . S
H1954 C1958 0.929 . S
H1955 C1964 0.929 . S
C1956 H1950 0.930 . S
C1956 C1957 1.367 . S
C1956 C1964 1.378 . S
C1957 C1956 1.367 . S
C1957 C1965 1.433 1_565 S
C1958 H1954 0.929 . S
C1958 C1960 1.378 . S
C1958 C1962 1.350 . S
C1959 C1962 1.463 . S
C1959 C1964 1.350 . S
C1959 N1967 1.427 . S
C1960 H1951 0.930 . S
C1960 C1958 1.378 . S
C1960 C1961 1.367 . S
C1961 C1960 1.367 . S
C1961 C1963 1.433 . S
C1962 C1958 1.350 . S
C1962 C1959 1.463 . S
C1962 N1966 1.427 . S
C1963 H1953 0.929 . S
C1963 C1961 1.433 . S
C1963 N1966 1.384 . S
C1964 H1955 0.929 . S
C1964 C1956 1.378 . S
C1964 C1959 1.350 . S
C1965 H1952 0.929 . S
C1965 C1957 1.433 1_545 S
C1965 N1967 1.384 1_545 S
N1966 C1962 1.427 . S
N1966 C1963 1.384 . S
N1967 C1959 1.427 . S
N1967 C1965 1.384 1_565 S
H1968 C1974 0.930 . S
H1969 C1978 0.930 . S
H1970 C1983 0.929 . S
H1971 C1981 0.929 . S
H1972 C1976 0.929 . S
H1973 C1982 0.929 . S
C1974 H1968 0.930 . S
C1974 C1975 1.367 . S
C1974 C1982 1.378 . S
C1975 C1974 1.367 . S
C1975 C1983 1.433 . S
C1976 H1972 0.929 . S
C1976 C1978 1.378 . S
C1976 C1980 1.350 . S
C1977 C1980 1.463 . S
C1977 C1982 1.350 . S
C1977 N1985 1.427 . S
C1978 H1969 0.930 . S
C1978 C1976 1.378 . S
C1978 C1979 1.367 . S
C1979 C1978 1.367 . S
C1979 C1981 1.433 . S
C1980 C1976 1.350 . S
C1980 C1977 1.463 . S
C1980 N1984 1.427 . S
C1981 H1971 0.929 . S
C1981 C1979 1.433 . S
C1981 N1984 1.384 . S
C1982 H1973 0.929 . S
C1982 C1974 1.378 . S
C1982 C1977 1.350 . S
C1983 H1970 0.929 . S
C1983 C1975 1.433 . S
C1983 N1985 1.384 . S
N1984 C1980 1.427 . S
N1984 C1981 1.384 . S
N1985 C1977 1.427 . S
N1985 C1983 1.384 . S
H1986 C1992 0.930 1_554 S
H1987 C1996 0.930 . S
H1988 C2001 0.929 . S
H1989 C1999 0.929 . S
H1990 C1994 0.929 . S
H1991 C2000 0.903 1_554 S
C1992 H1986 0.930 1_556 S
C1992 C1993 1.367 . S
C1992 C2000 1.378 . S
C1993 C1992 1.367 . S
C1993 C2001 1.433 . S
C1994 H1990 0.929 . S
C1994 C1996 1.378 . S
C1994 C1998 1.350 . S
C1995 C1998 1.463 . S
C1995 C2000 1.350 . S
C1995 N2003 1.427 . S
C1996 H1987 0.930 . S
C1996 C1994 1.378 . S
C1996 C1997 1.367 . S
C1997 C1996 1.367 . S
C1997 C1999 1.433 . S
C1998 C1994 1.350 . S
C1998 C1995 1.463 . S
C1998 N2002 1.427 . S
C1999 H1989 0.929 . S
C1999 C1997 1.433 . S
C1999 N2002 1.384 . S
C2000 H1991 0.903 1_556 S
C2000 C1992 1.378 . S
C2000 C1995 1.350 . S
C2001 H1988 0.929 . S
C2001 C1993 1.433 . S
C2001 N2003 1.384 . S
N2002 C1998 1.427 . S
N2002 C1999 1.384 . S
N2003 C1995 1.427 . S
N2003 C2001 1.384 . S
H2004 C2010 0.930 . S
H2005 C2014 0.930 . S
H2006 C2019 0.929 . S
H2007 C2017 0.929 . S
H2008 C2012 0.929 . S
H2009 C2018 0.929 . S
C2010 H2004 0.930 . S
C2010 C2011 1.367 . S
C2010 C2018 1.378 . S
C2011 C2010 1.367 . S
C2011 C2019 1.433 . S
C2012 H2008 0.929 . S
C2012 C2014 1.378 . S
C2012 C2016 1.350 . S
C2013 C2016 1.463 . S
C2013 C2018 1.350 . S
C2013 N2021 1.427 . S
C2014 H2005 0.930 . S
C2014 C2012 1.378 . S
C2014 C2015 1.367 . S
C2015 C2014 1.367 . S
C2015 C2017 1.433 . S
C2016 C2012 1.350 . S
C2016 C2013 1.463 . S
C2016 N2020 1.427 . S
C2017 H2007 0.929 . S
C2017 C2015 1.433 . S
C2017 N2020 1.384 . S
C2018 H2009 0.929 . S
C2018 C2010 1.378 . S
C2018 C2013 1.350 . S
C2019 H2006 0.929 . S
C2019 C2011 1.433 . S
C2019 N2021 1.384 . S
N2020 C2016 1.427 . S
N2020 C2017 1.384 . S
N2021 C2013 1.427 . S
N2021 C2019 1.384 . S
H2022 C2028 0.930 . S
H2023 C2032 0.930 . S
H2024 C2037 0.929 1_556 S
H2025 C2035 0.929 . S
H2026 C2030 0.929 . S
H2027 C2036 0.929 . S
C2028 H2022 0.930 . S
C2028 C2029 1.367 . S
C2028 C2036 1.378 . S
C2029 C2028 1.367 . S
C2029 C2037 1.433 . S
C2030 H2026 0.929 . S
C2030 C2032 1.378 . S
C2030 C2034 1.350 . S
C2031 C2034 1.463 . S
C2031 C2036 1.350 . S
C2031 N2039 1.427 . S
C2032 H2023 0.930 . S
C2032 C2030 1.378 . S
C2032 C2033 1.367 . S
C2033 C2032 1.367 . S
C2033 C2035 1.433 . S
C2034 C2030 1.350 . S
C2034 C2031 1.463 . S
C2034 N2038 1.427 . S
C2035 H2025 0.929 . S
C2035 C2033 1.433 . S
C2035 N2038 1.384 . S
C2036 H2027 0.929 . S
C2036 C2028 1.378 . S
C2036 C2031 1.350 . S
C2037 H2024 0.929 1_554 S
C2037 C2029 1.433 . S
C2037 N2039 1.384 . S
N2038 C2034 1.427 . S
N2038 C2035 1.384 . S
N2039 C2031 1.427 . S
N2039 C2037 1.384 . S
H2040 C2046 0.930 . S
H2041 C2050 0.930 . S
H2042 C2055 0.929 . S
H2043 C2053 0.929 . S
H2044 C2048 0.929 . S
H2045 C2054 0.929 . S
C2046 H2040 0.930 . S
C2046 C2047 1.367 . S
C2046 C2054 1.378 . S
C2047 C2046 1.367 . S
C2047 C2055 1.433 . S
C2048 H2044 0.929 . S
C2048 C2050 1.378 . S
C2048 C2052 1.350 . S
C2049 C2052 1.463 . S
C2049 C2054 1.350 . S
C2049 N2057 1.427 . S
C2050 H2041 0.930 . S
C2050 C2048 1.378 . S
C2050 C2051 1.367 . S
C2051 C2050 1.367 . S
C2051 C2053 1.433 . S
C2052 C2048 1.350 . S
C2052 C2049 1.463 . S
C2052 N2056 1.427 . S
C2053 H2043 0.929 . S
C2053 C2051 1.433 . S
C2053 N2056 1.384 . S
C2054 H2045 0.929 . S
C2054 C2046 1.378 . S
C2054 C2049 1.350 . S
C2055 H2042 0.929 . S
C2055 C2047 1.433 . S
C2055 N2057 1.384 . S
N2056 C2052 1.427 . S
N2056 C2053 1.384 . S
N2057 C2049 1.427 . S
N2057 C2055 1.384 . S
H2058 C2064 0.930 . S
H2059 C2068 0.930 . S
H2060 C2073 0.929 . S
H2061 C2071 0.929 . S
H2062 C2066 0.929 . S
H2063 C2072 0.929 . S
C2064 H2058 0.930 . S
C2064 C2065 1.367 . S
C2064 C2072 1.378 . S
C2065 C2064 1.367 . S
C2065 C2073 1.433 . S
C2066 H2062 0.929 . S
C2066 C2068 1.378 . S
C2066 C2070 1.350 . S
C2067 C2070 1.463 . S
C2067 C2072 1.350 . S
C2067 N2075 1.427 . S
C2068 H2059 0.930 . S
C2068 C2066 1.378 . S
C2068 C2069 1.367 . S
C2069 C2068 1.367 . S
C2069 C2071 1.433 . S
C2070 C2066 1.350 . S
C2070 C2067 1.463 . S
C2070 N2074 1.427 . S
C2071 H2061 0.929 . S
C2071 C2069 1.433 . S
C2071 N2074 1.384 . S
C2072 H2063 0.929 . S
C2072 C2064 1.378 . S
C2072 C2067 1.350 . S
C2073 H2060 0.929 . S
C2073 C2065 1.433 . S
C2073 N2075 1.384 . S
N2074 C2070 1.427 . S
N2074 C2071 1.384 . S
N2075 C2067 1.427 . S
N2075 C2073 1.384 . S
H2076 C2082 0.930 . S
H2077 C2086 0.930 . S
H2078 C2091 0.929 . S
H2079 C2089 0.929 . S
H2080 C2084 0.929 . S
H2081 C2090 0.929 . S
C2082 H2076 0.930 . S
C2082 C2083 1.367 . S
C2082 C2090 1.378 . S
C2083 C2082 1.367 . S
C2083 C2091 1.433 . S
C2084 H2080 0.929 . S
C2084 C2086 1.378 . S
C2084 C2088 1.350 . S
C2085 C2088 1.463 . S
C2085 C2090 1.350 . S
C2085 N2093 1.427 . S
C2086 H2077 0.930 . S
C2086 C2084 1.378 . S
C2086 C2087 1.367 . S
C2087 C2086 1.367 . S
C2087 C2089 1.433 . S
C2088 C2084 1.350 . S
C2088 C2085 1.463 . S
C2088 N2092 1.427 . S
C2089 H2079 0.929 . S
C2089 C2087 1.433 . S
C2089 N2092 1.384 . S
C2090 H2081 0.929 . S
C2090 C2082 1.378 . S
C2090 C2085 1.350 . S
C2091 H2078 0.929 . S
C2091 C2083 1.433 . S
C2091 N2093 1.384 . S
N2092 C2088 1.427 . S
N2092 C2089 1.384 . S
N2093 C2085 1.427 . S
N2093 C2091 1.384 . S
H2094 C2100 0.946 . S
H2095 C2104 0.930 . S
H2096 C2109 0.929 . S
H2097 C2107 0.929 . S
H2098 C2102 0.929 . S
H2099 C2108 0.929 . S
C2100 H2094 0.946 . S
C2100 C2101 1.367 . S
C2100 C2108 1.378 . S
C2101 C2100 1.367 . S
C2101 C2109 1.433 . S
C2102 H2098 0.929 . S
C2102 C2104 1.378 . S
C2102 C2106 1.350 . S
C2103 C2106 1.463 . S
C2103 C2108 1.350 . S
C2103 N2111 1.427 . S
C2104 H2095 0.930 . S
C2104 C2102 1.378 . S
C2104 C2105 1.367 . S
C2105 C2104 1.367 . S
C2105 C2107 1.433 . S
C2106 C2102 1.350 . S
C2106 C2103 1.463 . S
C2106 N2110 1.427 . S
C2107 H2097 0.929 . S
C2107 C2105 1.433 . S
C2107 N2110 1.384 . S
C2108 H2099 0.929 . S
C2108 C2100 1.378 . S
C2108 C2103 1.350 . S
C2109 H2096 0.929 . S
C2109 C2101 1.433 . S
C2109 N2111 1.384 . S
N2110 C2106 1.427 . S
N2110 C2107 1.384 . S
N2111 C2103 1.427 . S
N2111 C2109 1.384 . S
H2112 C2118 0.930 . S
H2113 C2122 0.930 . S
H2114 C2127 0.929 . S
H2115 C2125 0.929 . S
H2116 C2120 0.929 . S
H2117 C2126 0.929 . S
C2118 H2112 0.930 . S
C2118 C2119 1.367 . S
C2118 C2126 1.378 . S
C2119 C2118 1.367 . S
C2119 C2127 1.433 . S
C2120 H2116 0.929 . S
C2120 C2122 1.378 . S
C2120 C2124 1.350 . S
C2121 C2124 1.463 . S
C2121 C2126 1.350 . S
C2121 N2129 1.427 . S
C2122 H2113 0.930 . S
C2122 C2120 1.378 . S
C2122 C2123 1.367 . S
C2123 C2122 1.367 . S
C2123 C2125 1.433 . S
C2124 C2120 1.350 . S
C2124 C2121 1.463 . S
C2124 N2128 1.427 . S
C2125 H2115 0.929 . S
C2125 C2123 1.433 . S
C2125 N2128 1.384 . S
C2126 H2117 0.929 . S
C2126 C2118 1.378 . S
C2126 C2121 1.350 . S
C2127 H2114 0.929 . S
C2127 C2119 1.433 . S
C2127 N2129 1.384 . S
N2128 C2124 1.427 . S
N2128 C2125 1.384 . S
N2129 C2121 1.427 . S
N2129 C2127 1.384 . S
H2130 C2136 0.930 . S
H2131 C2140 0.930 . S
H2132 C2145 0.929 . S
H2133 C2143 0.929 . S
H2134 C2138 0.929 . S
H2135 C2144 0.929 . S
C2136 H2130 0.930 . S
C2136 C2137 1.367 . S
C2136 C2144 1.378 . S
C2137 C2136 1.367 . S
C2137 C2145 1.433 . S
C2138 H2134 0.929 . S
C2138 C2140 1.378 . S
C2138 C2142 1.350 . S
C2139 C2142 1.463 . S
C2139 C2144 1.350 . S
C2139 N2147 1.427 . S
C2140 H2131 0.930 . S
C2140 C2138 1.378 . S
C2140 C2141 1.367 . S
C2141 C2140 1.367 . S
C2141 C2143 1.433 . S
C2142 C2138 1.350 . S
C2142 C2139 1.463 . S
C2142 N2146 1.427 . S
C2143 H2133 0.929 . S
C2143 C2141 1.433 . S
C2143 N2146 1.384 . S
C2144 H2135 0.929 . S
C2144 C2136 1.378 . S
C2144 C2139 1.350 . S
C2145 H2132 0.929 . S
C2145 C2137 1.433 . S
C2145 N2147 1.384 . S
N2146 C2142 1.427 . S
N2146 C2143 1.384 . S
N2147 C2139 1.427 . S
N2147 C2145 1.384 . S
H2148 C2154 0.930 . S
H2149 C2158 0.930 . S
H2150 C2163 0.929 . S
H2151 C2161 0.949 . S
H2152 C2156 0.929 . S
H2153 C2162 0.929 . S
C2154 H2148 0.930 . S
C2154 C2155 1.367 1_545 S
C2154 C2162 1.378 . S
C2155 C2154 1.367 1_565 S
C2155 C2163 1.433 . S
C2156 H2152 0.929 . S
C2156 C2158 1.378 . S
C2156 C2160 1.350 . S
C2157 C2160 1.463 . S
C2157 C2162 1.350 1_565 S
C2157 N2165 1.427 . S
C2158 H2149 0.930 . S
C2158 C2156 1.378 . S
C2158 C2159 1.367 . S
C2159 C2158 1.367 . S
C2159 C2161 1.433 . S
C2160 C2156 1.350 . S
C2160 C2157 1.463 . S
C2160 N2164 1.427 . S
C2161 H2151 0.949 . S
C2161 C2159 1.433 . S
C2161 N2164 1.384 . S
C2162 H2153 0.929 . S
C2162 C2154 1.378 . S
C2162 C2157 1.350 1_545 S
C2163 H2150 0.929 . S
C2163 C2155 1.433 . S
C2163 N2165 1.384 . S
N2164 C2160 1.427 . S
N2164 C2161 1.384 . S
N2165 C2157 1.427 . S
N2165 C2163 1.384 . S
H2166 C2172 0.930 . S
H2167 C2176 0.930 . S
H2168 C2181 0.929 . S
H2169 C2179 0.929 . S
H2170 C2174 0.929 . S
H2171 C2180 0.929 . S
C2172 H2166 0.930 . S
C2172 C2173 1.367 . S
C2172 C2180 1.378 . S
C2173 C2172 1.367 . S
C2173 C2181 1.433 1_545 S
C2174 H2170 0.929 . S
C2174 C2176 1.378 . S
C2174 C2178 1.350 . S
C2175 C2178 1.463 . S
C2175 C2180 1.350 . S
C2175 N2183 1.427 . S
C2176 H2167 0.930 . S
C2176 C2174 1.378 . S
C2176 C2177 1.367 . S
C2177 C2176 1.367 . S
C2177 C2179 1.433 . S
C2178 C2174 1.350 . S
C2178 C2175 1.463 . S
C2178 N2182 1.427 . S
C2179 H2169 0.929 . S
C2179 C2177 1.433 . S
C2179 N2182 1.384 . S
C2180 H2171 0.929 . S
C2180 C2172 1.378 . S
C2180 C2175 1.350 . S
C2181 H2168 0.929 . S
C2181 C2173 1.433 1_565 S
C2181 N2183 1.384 1_565 S
N2182 C2178 1.427 . S
N2182 C2179 1.384 . S
N2183 C2175 1.427 . S
N2183 C2181 1.384 1_545 S
H2184 C2190 0.930 . S
H2185 C2194 0.930 . S
H2186 C2199 0.929 . S
H2187 C2197 0.929 . S
H2188 C2192 0.929 . S
H2189 C2198 0.929 . S
C2190 H2184 0.930 . S
C2190 C2191 1.367 . S
C2190 C2198 1.378 . S
C2191 C2190 1.367 . S
C2191 C2199 1.433 . S
C2192 H2188 0.929 . S
C2192 C2194 1.378 . S
C2192 C2196 1.350 . S
C2193 C2196 1.463 . S
C2193 C2198 1.350 . S
C2193 N2201 1.427 . S
C2194 H2185 0.930 . S
C2194 C2192 1.378 . S
C2194 C2195 1.367 . S
C2195 C2194 1.367 . S
C2195 C2197 1.433 . S
C2196 C2192 1.350 . S
C2196 C2193 1.463 . S
C2196 N2200 1.427 . S
C2197 H2187 0.929 . S
C2197 C2195 1.433 . S
C2197 N2200 1.384 . S
C2198 H2189 0.929 . S
C2198 C2190 1.378 . S
C2198 C2193 1.350 . S
C2199 H2186 0.929 . S
C2199 C2191 1.433 . S
C2199 N2201 1.384 . S
N2200 C2196 1.427 . S
N2200 C2197 1.384 . S
N2201 C2193 1.427 . S
N2201 C2199 1.384 . S
H2202 C2208 0.930 . S
H2203 C2212 0.930 . S
H2204 C2217 0.905 1_556 S
H2205 C2215 0.929 . S
H2206 C2210 0.929 . S
H2207 C2216 0.929 . S
C2208 H2202 0.930 . S
C2208 C2209 1.367 . S
C2208 C2216 1.378 . S
C2209 C2208 1.367 . S
C2209 C2217 1.433 . S
C2210 H2206 0.929 . S
C2210 C2212 1.378 . S
C2210 C2214 1.350 . S
C2211 C2214 1.463 . S
C2211 C2216 1.350 . S
C2211 N2219 1.427 . S
C2212 H2203 0.930 . S
C2212 C2210 1.378 . S
C2212 C2213 1.367 . S
C2213 C2212 1.367 . S
C2213 C2215 1.433 . S
C2214 C2210 1.350 . S
C2214 C2211 1.463 . S
C2214 N2218 1.427 . S
C2215 H2205 0.929 . S
C2215 C2213 1.433 . S
C2215 N2218 1.384 . S
C2216 H2207 0.929 . S
C2216 C2208 1.378 . S
C2216 C2211 1.350 . S
C2217 H2204 0.905 1_554 S
C2217 C2209 1.433 . S
C2217 N2219 1.384 . S
N2218 C2214 1.427 . S
N2218 C2215 1.384 . S
N2219 C2211 1.427 . S
N2219 C2217 1.384 . S
H2220 C2226 0.930 . S
H2221 C2230 0.930 . S
H2222 C2235 0.929 . S
H2223 C2233 0.929 . S
H2224 C2228 0.929 . S
H2225 C2234 0.929 . S
C2226 H2220 0.930 . S
C2226 C2227 1.367 . S
C2226 C2234 1.378 . S
C2227 C2226 1.367 . S
C2227 C2235 1.433 . S
C2228 H2224 0.929 . S
C2228 C2230 1.378 . S
C2228 C2232 1.350 . S
C2229 C2232 1.463 . S
C2229 C2234 1.350 . S
C2229 N2237 1.427 . S
C2230 H2221 0.930 . S
C2230 C2228 1.378 . S
C2230 C2231 1.367 . S
C2231 C2230 1.367 . S
C2231 C2233 1.433 . S
C2232 C2228 1.350 . S
C2232 C2229 1.463 . S
C2232 N2236 1.427 . S
C2233 H2223 0.929 . S
C2233 C2231 1.433 . S
C2233 N2236 1.384 . S
C2234 H2225 0.929 . S
C2234 C2226 1.378 . S
C2234 C2229 1.350 . S
C2235 H2222 0.929 . S
C2235 C2227 1.433 . S
C2235 N2237 1.384 . S
N2236 C2232 1.427 . S
N2236 C2233 1.384 . S
N2237 C2229 1.427 . S
N2237 C2235 1.384 . S
H2238 C2244 0.930 . S
H2239 C2248 0.930 . S
H2240 C2253 0.929 . S
H2241 C2251 0.929 . S
H2242 C2246 0.929 1_554 S
H2243 C2252 0.929 . S
C2244 H2238 0.930 . S
C2244 C2245 1.367 . S
C2244 C2252 1.378 . S
C2245 C2244 1.367 . S
C2245 C2253 1.433 1_556 S
C2246 H2242 0.929 1_556 S
C2246 C2248 1.378 . S
C2246 C2250 1.350 . S
C2247 C2250 1.463 . S
C2247 C2252 1.350 . S
C2247 N2255 1.427 1_556 S
C2248 H2239 0.930 . S
C2248 C2246 1.378 . S
C2248 C2249 1.367 . S
C2249 C2248 1.367 . S
C2249 C2251 1.433 . S
C2250 C2246 1.350 . S
C2250 C2247 1.463 . S
C2250 N2254 1.427 . S
C2251 H2241 0.929 . S
C2251 C2249 1.433 . S
C2251 N2254 1.384 . S
C2252 H2243 0.929 . S
C2252 C2244 1.378 . S
C2252 C2247 1.350 . S
C2253 H2240 0.929 . S
C2253 C2245 1.433 1_554 S
C2253 N2255 1.384 . S
N2254 C2250 1.427 . S
N2254 C2251 1.384 . S
N2255 C2247 1.427 1_554 S
N2255 C2253 1.384 . S
H2256 C2262 0.930 . S
H2257 C2266 0.930 . S
H2258 C2271 0.929 . S
H2259 C2269 0.929 . S
H2260 C2264 0.929 . S
H2261 C2270 0.929 . S
C2262 H2256 0.930 . S
C2262 C2263 1.367 . S
C2262 C2270 1.378 . S
C2263 C2262 1.367 . S
C2263 C2271 1.433 . S
C2264 H2260 0.929 . S
C2264 C2266 1.378 . S
C2264 C2268 1.350 . S
C2265 C2268 1.463 . S
C2265 C2270 1.350 . S
C2265 N2273 1.427 . S
C2266 H2257 0.930 . S
C2266 C2264 1.378 . S
C2266 C2267 1.367 . S
C2267 C2266 1.367 . S
C2267 C2269 1.433 . S
C2268 C2264 1.350 . S
C2268 C2265 1.463 . S
C2268 N2272 1.427 . S
C2269 H2259 0.929 . S
C2269 C2267 1.433 . S
C2269 N2272 1.384 . S
C2270 H2261 0.929 . S
C2270 C2262 1.378 . S
C2270 C2265 1.350 . S
C2271 H2258 0.929 . S
C2271 C2263 1.433 . S
C2271 N2273 1.384 . S
N2272 C2268 1.427 . S
N2272 C2269 1.384 . S
N2273 C2265 1.427 . S
N2273 C2271 1.384 . S
H2274 C2280 0.930 1_655 S
H2275 C2284 0.930 . S
H2276 C2289 0.929 . S
H2277 C2287 0.929 . S
H2278 C2282 0.929 . S
H2279 C2288 0.929 . S
C2280 H2274 0.930 1_455 S
C2280 C2281 1.367 . S
C2280 C2288 1.378 . S
C2281 C2280 1.367 . S
C2281 C2289 1.433 . S
C2282 H2278 0.929 . S
C2282 C2284 1.378 . S
C2282 C2286 1.350 . S
C2283 C2286 1.463 . S
C2283 C2288 1.350 . S
C2283 N2291 1.427 . S
C2284 H2275 0.930 . S
C2284 C2282 1.378 . S
C2284 C2285 1.367 . S
C2285 C2284 1.367 . S
C2285 C2287 1.433 . S
C2286 C2282 1.350 . S
C2286 C2283 1.463 . S
C2286 N2290 1.427 . S
C2287 H2277 0.929 . S
C2287 C2285 1.433 . S
C2287 N2290 1.384 . S
C2288 H2279 0.929 . S
C2288 C2280 1.378 . S
C2288 C2283 1.350 . S
C2289 H2276 0.929 . S
C2289 C2281 1.433 . S
C2289 N2291 1.384 . S
N2290 C2286 1.427 . S
N2290 C2287 1.384 . S
N2291 C2283 1.427 . S
N2291 C2289 1.384 . S
H2292 C2298 0.930 . S
H2293 C2302 0.930 . S
H2294 C2307 0.929 . S
H2295 C2305 0.929 . S
H2296 C2300 0.929 . S
H2297 C2306 0.929 . S
C2298 H2292 0.930 . S
C2298 C2299 1.367 . S
C2298 C2306 1.378 . S
C2299 C2298 1.367 . S
C2299 C2307 1.433 . S
C2300 H2296 0.929 . S
C2300 C2302 1.378 . S
C2300 C2304 1.350 . S
C2301 C2304 1.463 . S
C2301 C2306 1.350 . S
C2301 N2309 1.427 . S
C2302 H2293 0.930 . S
C2302 C2300 1.378 . S
C2302 C2303 1.367 . S
C2303 C2302 1.367 . S
C2303 C2305 1.433 . S
C2304 C2300 1.350 . S
C2304 C2301 1.463 . S
C2304 N2308 1.427 . S
C2305 H2295 0.929 . S
C2305 C2303 1.433 . S
C2305 N2308 1.384 . S
C2306 H2297 0.929 . S
C2306 C2298 1.378 . S
C2306 C2301 1.350 . S
C2307 H2294 0.929 . S
C2307 C2299 1.433 . S
C2307 N2309 1.384 . S
N2308 C2304 1.427 . S
N2308 C2305 1.384 . S
N2309 C2301 1.427 . S
N2309 C2307 1.384 . S
H2310 C2316 0.930 . S
H2311 C2320 0.930 . S
H2312 C2325 0.929 . S
H2313 C2323 0.929 . S
H2314 C2318 0.929 . S
H2315 C2324 0.921 1_455 S
C2316 H2310 0.930 . S
C2316 C2317 1.367 1_455 S
C2316 C2324 1.375 1_455 S
C2317 C2316 1.367 1_655 S
C2317 C2325 1.433 . S
C2318 H2314 0.929 . S
C2318 C2320 1.378 . S
C2318 C2322 1.350 . S
C2319 C2322 1.463 . S
C2319 C2324 1.360 . S
C2319 N2327 1.427 . S
C2320 H2311 0.930 . S
C2320 C2318 1.378 . S
C2320 C2321 1.367 . S
C2321 C2320 1.367 . S
C2321 C2323 1.433 . S
C2322 C2318 1.350 . S
C2322 C2319 1.463 . S
C2322 N2326 1.427 . S
C2323 H2313 0.929 . S
C2323 C2321 1.433 . S
C2323 N2326 1.384 . S
C2324 H2315 0.921 1_655 S
C2324 C2316 1.375 1_655 S
C2324 C2319 1.360 . S
C2325 H2312 0.929 . S
C2325 C2317 1.433 . S
C2325 N2327 1.384 . S
N2326 C2322 1.427 . S
N2326 C2323 1.384 . S
N2327 C2319 1.427 . S
N2327 C2325 1.384 . S
C1043 C1017 1.798 . S
C1039 C8 1.834 . S
C1061 C921 1.502 . S
C1057 C19 1.482 . S
C1079 C985 1.368 . S
C1075 C30 1.384 . S
C1097 C953 1.988 . S
C1093 C41 1.968 . S
C1115 C729 1.797 . S
C1111 C52 1.831 . S
C1129 C63 1.966 . S
C1133 C761 1.992 . S
C1151 C665 1.499 . S
C1147 C74 1.482 . S
C1165 C85 1.393 . S
C1169 C697 1.361 . S
C1187 C889 1.800 . S
C1183 C96 1.834 . S
C1201 C107 1.968 . S
C1205 C825 1.991 . S
C1219 C118 1.482 . S
C1223 C793 1.502 . S
C1241 C857 1.357 . S
C1237 C129 1.393 . S
C1259 C633 1.824 . S
C1255 C140 1.801 . S
C1273 C151 1.435 . S
C1277 C537 1.489 . S
C1295 C601 1.384 . S
C1291 C162 1.354 . S
C1309 C173 1.904 . S
C1313 C569 1.977 . S
C1331 C345 1.831 . S
C1327 C184 1.802 . S
C1349 C377 1.981 . S
C1345 C195 1.919 . S
C1363 C206 1.429 . S
C1367 C281 1.486 . S
C1381 C217 1.355 . S
C1385 C313 1.382 . S
C1399 C228 1.800 . S
C1403 C505 1.831 . S
C1417 C239 1.903 . S
C1421 C441 1.978 . S
C1439 C409 1.490 . S
C1435 C250 1.417 . S
C1453 C261 1.352 . S
C1457 C473 1.384 . S
C1475 C293 1.225 . S
C1471 C7 1.234 . S
C1493 C325 1.196 . S
C1489 C18 1.199 . S
C1507 C29 1.173 . S
C1511 C357 1.176 . S
C1525 C40 0.926 . S
C1529 C389 0.928 . S
C1547 C421 1.215 . S
C1543 C51 1.227 . S
C1561 C62 0.929 . S
C1565 C453 0.927 . S
C1583 C485 1.190 . S
C1579 C73 1.193 . S
C1601 C517 1.174 . S
C1597 C84 1.173 . S
C1619 C549 1.220 . S
C1615 C95 1.233 . S
C1633 C106 0.923 . S
C1637 C581 0.923 . S
C1651 C117 1.189 . S
C1655 C613 1.184 . S
C1669 C128 1.180 . S
C1673 C645 1.181 . S
C1687 C139 1.140 . S
C1691 C677 1.182 . S
C1705 C150 1.071 . S
C1709 C709 1.114 . S
C1723 C161 1.109 . S
C1727 C741 1.117 . S
C1741 C172 0.868 . S
C1745 C773 0.909 . S
C1759 C183 1.160 . S
C1763 C805 1.174 . S
C1781 C837 0.910 . S
C1777 C194 0.897 . S
C1799 C869 1.111 . S
C1795 C205 1.084 . S
C1817 C901 1.116 . S
C1813 C216 1.109 . S
C1835 C933 1.192 . S
C1831 C227 1.157 . S
C1849 C238 0.890 . S
C1853 C965 0.915 . S
C1867 C249 1.097 . S
C1871 C997 1.129 . S
C1885 C260 1.100 . S
C1889 C1029 1.111 . S
C1903 C5 1.429 . S
C1907 C543 1.680 . S
C1925 C639 1.611 . S
C1921 C16 1.396 . S
C1939 C27 1.227 1_545 S
C1943 C575 1.370 . S
C1961 C607 2.082 . S
C1957 C38 1.837 1_565 S
C1975 C49 1.426 . S
C1979 C287 1.682 . S
C1993 C60 1.825 1_556 S
C1997 C319 2.082 . S
C2011 C71 1.392 . S
C2015 C351 1.606 . S
C2029 C82 1.220 1_554 S
C2033 C383 1.369 . S
C2051 C415 1.680 . S
C2047 C93 1.442 . S
C2069 C479 2.083 . S
C2065 C104 1.828 1_655 S
C2083 C115 1.375 . S
C2087 C511 1.605 . S
C2101 C126 1.219 1_455 S
C2105 C447 1.363 . S
C2123 C927 1.603 . S
C2119 C137 1.269 . S
C2141 C1023 1.499 . S
C2137 C148 1.098 . S
C2155 C159 1.063 . S
C2159 C959 1.292 . S
C2177 C991 1.940 . S
C2173 C170 1.480 . S
C2191 C181 1.293 . S
C2195 C671 1.597 . S
C2209 C192 1.476 . S
C2213 C703 1.933 . S
C2227 C203 1.107 . S
C2231 C735 1.490 . S
C2249 C767 1.311 . S
C2245 C214 1.037 . S
C2267 C799 1.609 . S
C2263 C225 1.286 . S
C2285 C863 1.933 . S
C2281 C236 1.487 . S
C2299 C247 1.114 . S
C2303 C895 1.505 . S
C2321 C831 1.296 . S
C2317 C258 1.050 . S
