# Generated by pormake.
# Topology ssb, (4,4)-cn, num edge types: 1
# Building blocks:
#     Node 0, Type 0, BuildingBlock: AZAVOO_clean_linker_0, # of connection points: 4
#     Node 1, Type 0, BuildingBlock: AZAVOO_clean_linker_0, # of connection points: 4
#     Node 2, Type 0, BuildingBlock: AZAVOO_clean_linker_0, # of connection points: 4
#     Node 3, Type 0, BuildingBlock: AZAVOO_clean_linker_0, # of connection points: 4
#     Node 4, Type 0, BuildingBlock: AZAVOO_clean_linker_0, # of connection points: 4
#     Node 5, Type 0, BuildingBlock: AZAVOO_clean_linker_0, # of connection points: 4
#     Node 6, Type 0, BuildingBlock: AZAVOO_clean_linker_0, # of connection points: 4
#     Node 7, Type 0, BuildingBlock: AZAVOO_clean_linker_0, # of connection points: 4
#     Node 8, Type 1, BuildingBlock: KOZSID_clean_sbu_0, # of connection points: 4
#     Node 9, Type 1, BuildingBlock: KOZSID_clean_sbu_0, # of connection points: 4
#     Node 10, Type 1, BuildingBlock: KOZSID_clean_sbu_0, # of connection points: 4
#     Node 11, Type 1, BuildingBlock: KOZSID_clean_sbu_0, # of connection points: 4
#     Node 12, Type 1, BuildingBlock: KOZSID_clean_sbu_0, # of connection points: 4
#     Node 13, Type 1, BuildingBlock: KOZSID_clean_sbu_0, # of connection points: 4
#     Node 14, Type 1, BuildingBlock: KOZSID_clean_sbu_0, # of connection points: 4
#     Node 15, Type 1, BuildingBlock: KOZSID_clean_sbu_0, # of connection points: 4
#     Edge 16, Type (0, 1), BuildingBlock: AJUNOK_clean_linker_0, # of connection points: 2
#     Edge 17, Type (0, 1), BuildingBlock: AJUNOK_clean_linker_0, # of connection points: 2
#     Edge 18, Type (0, 1), BuildingBlock: AJUNOK_clean_linker_0, # of connection points: 2
#     Edge 19, Type (0, 1), BuildingBlock: AJUNOK_clean_linker_0, # of connection points: 2
#     Edge 20, Type (0, 1), BuildingBlock: AJUNOK_clean_linker_0, # of connection points: 2
#     Edge 21, Type (0, 1), BuildingBlock: AJUNOK_clean_linker_0, # of connection points: 2
#     Edge 22, Type (0, 1), BuildingBlock: AJUNOK_clean_linker_0, # of connection points: 2
#     Edge 23, Type (0, 1), BuildingBlock: AJUNOK_clean_linker_0, # of connection points: 2
#     Edge 24, Type (0, 1), BuildingBlock: AJUNOK_clean_linker_0, # of connection points: 2
#     Edge 25, Type (0, 1), BuildingBlock: AJUNOK_clean_linker_0, # of connection points: 2
#     Edge 26, Type (0, 1), BuildingBlock: AJUNOK_clean_linker_0, # of connection points: 2
#     Edge 27, Type (0, 1), BuildingBlock: AJUNOK_clean_linker_0, # of connection points: 2
#     Edge 28, Type (0, 1), BuildingBlock: AJUNOK_clean_linker_0, # of connection points: 2
#     Edge 29, Type (0, 1), BuildingBlock: AJUNOK_clean_linker_0, # of connection points: 2
#     Edge 30, Type (0, 1), BuildingBlock: AJUNOK_clean_linker_0, # of connection points: 2
#     Edge 31, Type (0, 1), BuildingBlock: AJUNOK_clean_linker_0, # of connection points: 2
#     Edge 32, Type (0, 1), BuildingBlock: AJUNOK_clean_linker_0, # of connection points: 2
#     Edge 33, Type (0, 1), BuildingBlock: AJUNOK_clean_linker_0, # of connection points: 2
#     Edge 34, Type (0, 1), BuildingBlock: AJUNOK_clean_linker_0, # of connection points: 2
#     Edge 35, Type (0, 1), BuildingBlock: AJUNOK_clean_linker_0, # of connection points: 2
#     Edge 36, Type (0, 1), BuildingBlock: AJUNOK_clean_linker_0, # of connection points: 2
#     Edge 37, Type (0, 1), BuildingBlock: AJUNOK_clean_linker_0, # of connection points: 2
#     Edge 38, Type (0, 1), BuildingBlock: AJUNOK_clean_linker_0, # of connection points: 2
#     Edge 39, Type (0, 1), BuildingBlock: AJUNOK_clean_linker_0, # of connection points: 2
#     Edge 40, Type (0, 1), BuildingBlock: AJUNOK_clean_linker_0, # of connection points: 2
#     Edge 41, Type (0, 1), BuildingBlock: AJUNOK_clean_linker_0, # of connection points: 2
#     Edge 42, Type (0, 1), BuildingBlock: AJUNOK_clean_linker_0, # of connection points: 2
#     Edge 43, Type (0, 1), BuildingBlock: AJUNOK_clean_linker_0, # of connection points: 2
#     Edge 44, Type (0, 1), BuildingBlock: AJUNOK_clean_linker_0, # of connection points: 2
#     Edge 45, Type (0, 1), BuildingBlock: AJUNOK_clean_linker_0, # of connection points: 2
#     Edge 46, Type (0, 1), BuildingBlock: AJUNOK_clean_linker_0, # of connection points: 2
#     Edge 47, Type (0, 1), BuildingBlock: AJUNOK_clean_linker_0, # of connection points: 2
# Relax obj value: 0.053
# Max RMSD: 0.301
# Mean RMSD: 0.113
data_MOF--net-ssb--node1-KOZSID_clean_sbu_0--node2-AZAVOO_clean_linker_0--edge1-AJUNOK_clean_linker_0
_symmetry_space_group_name_H-M    P1
_symmetry_Int_Tables_number       1
_symmetry_cell_setting            triclinic
loop_
_symmetry_equiv_pos_as_xyz
'x, y, z'
_cell_length_a     48.085717
_cell_length_b     49.222501
_cell_length_c     35.337366
_cell_angle_alpha  95.828255
_cell_angle_beta   95.910254
_cell_angle_gamma 90.370389
loop_
_atom_site_label
_atom_site_type_symbol
_atom_site_fract_x
_atom_site_fract_y
_atom_site_fract_z
_atom_type_partial_charge
H0 H 0.1383 0.53239 0.31559 0.0
H1 H 0.36033 0.40598 0.07069 0.0
H2 H 0.23456 0.41462 0.36058 0.0
H3 H 0.1967 0.41255 0.4021 0.0
H4 H 0.14782 0.36128 0.31275 0.0
H5 H 0.18581 0.36317 0.27163 0.0
H6 H 0.2384 0.46628 0.3046 0.0
H7 H 0.20182 0.49975 0.31521 0.0
H8 H 0.14077 0.44406 0.2496 0.0
H9 H 0.17764 0.41097 0.23882 0.0
H10 H 0.28988 0.46293 0.24694 0.0
H11 H 0.29047 0.5009 0.20724 0.0
H12 H 0.21403 0.46974 0.14215 0.0
H13 H 0.21355 0.43174 0.18216 0.0
H14 H 0.32861 0.4165 0.25107 0.0
H15 H 0.363 0.42048 0.20536 0.0
H16 H 0.29938 0.39624 0.11219 0.0
H17 H 0.26532 0.39198 0.15828 0.0
H18 H 0.32596 0.37291 0.29736 0.0
H19 H 0.36709 0.3526 0.27091 0.0
H20 H 0.3145 0.31713 0.1716 0.0
H21 H 0.27352 0.33746 0.19818 0.0
H22 H 0.2874 0.36843 0.35054 0.0
H23 H 0.29062 0.32932 0.38854 0.0
H24 H 0.23043 0.28478 0.30562 0.0
H25 H 0.2279 0.32385 0.26734 0.0
O26 O 0.15248 0.51897 0.31078 0.0
O27 O 0.12187 0.48945 0.27722 0.0
O28 O 0.37901 0.41725 0.13829 0.0
O29 O 0.34707 0.40494 0.08935 0.0
C30 C 0.23409 0.39265 0.28686 0.0
C31 C 0.23272 0.41579 0.26565 0.0
C32 C 0.25279 0.41987 0.24013 0.0
C33 C 0.27399 0.4004 0.23581 0.0
C34 C 0.27525 0.3772 0.25693 0.0
C35 C 0.25552 0.3733 0.28293 0.0
C36 C 0.21282 0.38896 0.3133 0.0
C37 C 0.21582 0.40264 0.35029 0.0
C38 C 0.19426 0.40155 0.37378 0.0
C39 C 0.16934 0.3871 0.36023 0.0
C40 C 0.16671 0.37289 0.32349 0.0
C41 C 0.18839 0.37372 0.30023 0.0
C42 C 0.21059 0.43622 0.27113 0.0
C43 C 0.21712 0.46144 0.29244 0.0
C44 C 0.19618 0.48047 0.2985 0.0
C45 C 0.16834 0.47454 0.28335 0.0
C46 C 0.16197 0.44925 0.26175 0.0
C47 C 0.18296 0.4303 0.25561 0.0
C48 C 0.25174 0.44429 0.21759 0.0
C49 C 0.27319 0.46428 0.22419 0.0
C50 C 0.2736 0.48591 0.20122 0.0
C51 C 0.25255 0.48822 0.17092 0.0
C52 C 0.23059 0.46866 0.16513 0.0
C53 C 0.23025 0.44691 0.18807 0.0
C54 C 0.29457 0.40379 0.20795 0.0
C55 C 0.32219 0.41202 0.22078 0.0
C56 C 0.34175 0.41435 0.19461 0.0
C57 C 0.33394 0.40867 0.15509 0.0
C58 C 0.3061 0.40077 0.14239 0.0
C59 C 0.28659 0.39836 0.16861 0.0
C60 C 0.29687 0.35669 0.24958 0.0
C61 C 0.32314 0.35947 0.27097 0.0
C62 C 0.3466 0.34798 0.25574 0.0
C63 C 0.34386 0.33361 0.21908 0.0
C64 C 0.31706 0.32824 0.19985 0.0
C65 C 0.29366 0.3396 0.21514 0.0
C66 C 0.25736 0.34921 0.30605 0.0
C67 C 0.27488 0.35025 0.34055 0.0
C68 C 0.27649 0.32787 0.36249 0.0
C69 C 0.26047 0.30382 0.35063 0.0
C70 C 0.24312 0.30283 0.31577 0.0
C71 C 0.24155 0.32522 0.29385 0.0
C72 C 0.1461 0.49469 0.29016 0.0
C73 C 0.35476 0.41063 0.12721 0.0
H74 H 0.60731 0.13833 0.28726 0.0
H75 H 0.84675 0.24507 0.58151 0.0
H76 H 0.7119 0.24096 0.26327 0.0
H77 H 0.67369 0.24661 0.21321 0.0
H78 H 0.64478 0.31605 0.28236 0.0
H79 H 0.68286 0.31009 0.33253 0.0
H80 H 0.71597 0.19448 0.32106 0.0
H81 H 0.67497 0.16445 0.30301 0.0
H82 H 0.62188 0.22905 0.34451 0.0
H83 H 0.66309 0.25872 0.3629 0.0
H84 H 0.76868 0.19649 0.38654 0.0
H85 H 0.76343 0.15855 0.42499 0.0
H86 H 0.69022 0.19621 0.4675 0.0
H87 H 0.69655 0.23487 0.43047 0.0
H88 H 0.81459 0.24031 0.39251 0.0
H89 H 0.84857 0.2338 0.44723 0.0
H90 H 0.78711 0.25948 0.52404 0.0
H91 H 0.75352 0.26635 0.46911 0.0
H92 H 0.80892 0.27997 0.32954 0.0
H93 H 0.85586 0.29956 0.34844 0.0
H94 H 0.82772 0.3382 0.45273 0.0
H95 H 0.78104 0.31794 0.43402 0.0
H96 H 0.75329 0.29119 0.26881 0.0
H97 H 0.7576 0.3333 0.23804 0.0
H98 H 0.74838 0.38101 0.34549 0.0
H99 H 0.74289 0.33895 0.37554 0.0
O100 O 0.62325 0.15049 0.29481 0.0
O101 O 0.59687 0.18443 0.31634 0.0
O102 O 0.86474 0.23482 0.51867 0.0
O103 O 0.83372 0.24736 0.55935 0.0
C104 C 0.72118 0.26971 0.3332 0.0
C105 C 0.7174 0.24703 0.35367 0.0
C106 C 0.73727 0.24186 0.38421 0.0
C107 C 0.76127 0.25882 0.39375 0.0
C108 C 0.76535 0.28108 0.37261 0.0
C109 C 0.74491 0.28699 0.34314 0.0
C110 C 0.70004 0.27511 0.30143 0.0
C111 C 0.69745 0.25754 0.26738 0.0
C112 C 0.67569 0.26075 0.23894 0.0
C113 C 0.65613 0.28147 0.24431 0.0
C114 C 0.65931 0.29959 0.27794 0.0
C115 C 0.68114 0.29642 0.30633 0.0
C116 C 0.69247 0.22876 0.3432 0.0
C117 C 0.69547 0.20204 0.32637 0.0
C118 C 0.67201 0.18497 0.31602 0.0
C119 C 0.64513 0.19436 0.32226 0.0
C120 C 0.64227 0.22118 0.33926 0.0
C121 C 0.66575 0.23819 0.34971 0.0
C122 C 0.73313 0.2184 0.40607 0.0
C123 C 0.75162 0.19656 0.40432 0.0
C124 C 0.74844 0.17488 0.42598 0.0
C125 C 0.72655 0.17463 0.44938 0.0
C126 C 0.70759 0.19621 0.45026 0.0
C127 C 0.711 0.21809 0.42893 0.0
C128 C 0.78164 0.25389 0.42686 0.0
C129 C 0.80855 0.24458 0.42118 0.0
C130 C 0.82788 0.24083 0.45248 0.0
C131 C 0.82056 0.24617 0.49005 0.0
C132 C 0.79345 0.25521 0.49554 0.0
C133 C 0.77419 0.25907 0.46422 0.0
C134 C 0.79172 0.29742 0.38056 0.0
C135 C 0.81275 0.29328 0.35597 0.0
C136 C 0.83949 0.30456 0.36672 0.0
C137 C 0.84545 0.32036 0.40209 0.0
C138 C 0.82375 0.32591 0.42545 0.0
C139 C 0.7971 0.31451 0.41479 0.0
C140 C 0.74771 0.31214 0.32427 0.0
C141 C 0.75191 0.31076 0.28549 0.0
C142 C 0.75449 0.33473 0.2681 0.0
C143 C 0.75298 0.36032 0.28936 0.0
C144 C 0.74895 0.36156 0.32827 0.0
C145 C 0.74615 0.33762 0.34552 0.0
C146 C 0.62025 0.17623 0.31103 0.0
C147 C 0.84107 0.2424 0.52343 0.0
H148 H 0.6635 0.95725 0.33063 0.0
H149 H 0.64991 0.6505 0.17418 0.0
H150 H 0.76986 0.86156 0.34753 0.0
H151 H 0.77348 0.89939 0.39867 0.0
H152 H 0.74277 0.846 0.47544 0.0
H153 H 0.74018 0.80816 0.42458 0.0
H154 H 0.71982 0.85673 0.28144 0.0
H155 H 0.69809 0.90135 0.29182 0.0
H156 H 0.66772 0.87744 0.39481 0.0
H157 H 0.6892 0.83279 0.38377 0.0
H158 H 0.7107 0.79264 0.22053 0.0
H159 H 0.6733 0.80368 0.17361 0.0
H160 H 0.62076 0.82507 0.26401 0.0
H161 H 0.65685 0.80923 0.31022 0.0
H162 H 0.74633 0.74873 0.22801 0.0
H163 H 0.72841 0.71 0.18318 0.0
H164 H 0.65883 0.70146 0.24972 0.0
H165 H 0.67735 0.73991 0.29487 0.0
H166 H 0.79758 0.75684 0.27965 0.0
H167 H 0.81486 0.71212 0.25598 0.0
H168 H 0.75326 0.67248 0.31332 0.0
H169 H 0.73653 0.71707 0.33732 0.0
H170 H 0.80454 0.81845 0.32733 0.0
H171 H 0.853 0.81954 0.35604 0.0
H172 H 0.83326 0.75683 0.42656 0.0
H173 H 0.78426 0.75615 0.39792 0.0
O174 O 0.67146 0.93931 0.32666 0.0
O175 O 0.65566 0.92572 0.37875 0.0
O176 O 0.69385 0.67096 0.15863 0.0
O177 O 0.65738 0.66597 0.19141 0.0
C178 C 0.74581 0.8114 0.3499 0.0
C179 C 0.72069 0.81516 0.32666 0.0
C180 C 0.71065 0.79459 0.29749 0.0
C181 C 0.72501 0.7696 0.29338 0.0
C182 C 0.75066 0.76623 0.31598 0.0
C183 C 0.76164 0.78771 0.34303 0.0
C184 C 0.7547 0.83218 0.3824 0.0
C185 C 0.76475 0.8579 0.37575 0.0
C186 C 0.76633 0.87955 0.40477 0.0
C187 C 0.75758 0.87585 0.44073 0.0
C188 C 0.74953 0.84952 0.44802 0.0
C189 C 0.74819 0.82785 0.41909 0.0
C190 C 0.70601 0.84155 0.3318 0.0
C191 C 0.70822 0.8611 0.30599 0.0
C192 C 0.69589 0.88659 0.3121 0.0
C193 C 0.68122 0.89298 0.3442 0.0
C194 C 0.67885 0.87319 0.3698 0.0
C195 C 0.6911 0.84768 0.36359 0.0
C196 C 0.68678 0.80021 0.26907 0.0
C197 C 0.69085 0.79887 0.23022 0.0
C198 C 0.66963 0.80613 0.20345 0.0
C199 C 0.64441 0.81677 0.2151 0.0
C200 C 0.63999 0.81733 0.25394 0.0
C201 C 0.66076 0.80859 0.28052 0.0
C202 C 0.71333 0.74693 0.26498 0.0
C203 C 0.72734 0.73834 0.23303 0.0
C204 C 0.71698 0.71629 0.20735 0.0
C205 C 0.69222 0.70255 0.21295 0.0
C206 C 0.67798 0.71153 0.24463 0.0
C207 C 0.68845 0.73353 0.2704 0.0
C208 C 0.76583 0.74018 0.31024 0.0
C209 C 0.78862 0.7385 0.28835 0.0
C210 C 0.79826 0.71299 0.27459 0.0
C211 C 0.78542 0.68882 0.28282 0.0
C212 C 0.76394 0.69068 0.30707 0.0
C213 C 0.75431 0.71614 0.32075 0.0
C214 C 0.79094 0.78724 0.36057 0.0
C215 C 0.81066 0.80488 0.34892 0.0
C216 C 0.83836 0.80531 0.36505 0.0
C217 C 0.84693 0.78798 0.39308 0.0
C218 C 0.82714 0.77031 0.40488 0.0
C219 C 0.79929 0.76984 0.38856 0.0
C220 C 0.66861 0.92026 0.35101 0.0
C221 C 0.68129 0.67891 0.18594 0.0
H222 H 0.37535 0.00896 0.30541 0.0
H223 H 0.25524 0.81093 0.02118 0.0
H224 H 0.26959 0.90952 0.33125 0.0
H225 H 0.26459 0.95321 0.36985 0.0
H226 H 0.20034 0.97619 0.285 0.0
H227 H 0.20546 0.93247 0.24655 0.0
H228 H 0.31667 0.90319 0.28587 0.0
H229 H 0.34692 0.94385 0.30126 0.0
H230 H 0.29114 0.98777 0.22602 0.0
H231 H 0.26125 0.94682 0.21062 0.0
H232 H 0.32577 0.86318 0.23338 0.0
H233 H 0.36759 0.86246 0.1992 0.0
H234 H 0.31994 0.89419 0.10352 0.0
H235 H 0.27803 0.89492 0.13811 0.0
H236 H 0.29006 0.8126 0.1908 0.0
H237 H 0.29643 0.78288 0.13239 0.0
H238 H 0.23233 0.82699 0.07005 0.0
H239 H 0.22639 0.85636 0.12833 0.0
H240 H 0.24715 0.80271 0.2428 0.0
H241 H 0.23174 0.75898 0.20882 0.0
H242 H 0.16436 0.79873 0.14627 0.0
H243 H 0.18197 0.8429 0.17767 0.0
H244 H 0.23549 0.86184 0.32591 0.0
H245 H 0.20007 0.8529 0.36832 0.0
H246 H 0.13524 0.85921 0.27555 0.0
H247 H 0.17069 0.87012 0.23428 0.0
O248 O 0.36318 0.99309 0.29877 0.0
O249 O 0.33352 0.01493 0.2604 0.0
O250 O 0.28102 0.76316 0.06282 0.0
O251 O 0.26235 0.79306 0.02544 0.0
C252 C 0.245 0.89485 0.25897 0.0
C253 C 0.2684 0.89764 0.23834 0.0
C254 C 0.27347 0.87774 0.20845 0.0
C255 C 0.25463 0.85555 0.19837 0.0
C256 C 0.23231 0.85175 0.22059 0.0
C257 C 0.22758 0.87128 0.25131 0.0
C258 C 0.23779 0.91788 0.28628 0.0
C259 C 0.25382 0.92363 0.32167 0.0
C260 C 0.25094 0.94852 0.34361 0.0
C261 C 0.23205 0.96795 0.33028 0.0
C262 C 0.21501 0.96149 0.29579 0.0
C263 C 0.21776 0.93654 0.27403 0.0
C264 C 0.28696 0.92211 0.24699 0.0
C265 C 0.31118 0.92157 0.27256 0.0
C266 C 0.32834 0.94484 0.28137 0.0
C267 C 0.32146 0.96906 0.26484 0.0
C268 C 0.29707 0.96945 0.2392 0.0
C269 C 0.28 0.94612 0.23031 0.0
C270 C 0.29901 0.87944 0.18842 0.0
C271 C 0.32449 0.87045 0.20534 0.0
C272 C 0.34832 0.87007 0.18581 0.0
C273 C 0.34706 0.87859 0.1489 0.0
C274 C 0.32147 0.8876 0.13197 0.0
C275 C 0.29763 0.88815 0.15169 0.0
C276 C 0.25787 0.83666 0.16363 0.0
C277 C 0.27746 0.81572 0.16443 0.0
C278 C 0.28103 0.79882 0.13105 0.0
C279 C 0.26534 0.80284 0.0962 0.0
C280 C 0.2454 0.82364 0.09588 0.0
C281 C 0.24171 0.84034 0.1293 0.0
C282 C 0.21583 0.82597 0.21252 0.0
C283 C 0.22838 0.80185 0.22288 0.0
C284 C 0.21943 0.77678 0.20338 0.0
C285 C 0.19741 0.77546 0.1737 0.0
C286 C 0.1821 0.79922 0.16785 0.0
C287 C 0.19173 0.82446 0.1864 0.0
C288 C 0.20573 0.86638 0.27684 0.0
C289 C 0.2136 0.86161 0.3149 0.0
C290 C 0.19335 0.85629 0.339 0.0
C291 C 0.16477 0.85545 0.32545 0.0
C292 C 0.15698 0.86026 0.28722 0.0
C293 C 0.17725 0.86601 0.26333 0.0
C294 C 0.33966 0.99379 0.27443 0.0
C295 C 0.26988 0.78523 0.06059 0.0
H296 H 0.4271 0.02655 0.75544 0.0
H297 H 0.12698 0.9568 0.59226 0.0
H298 H 0.35413 0.90152 0.74907 0.0
H299 H 0.39598 0.89275 0.79031 0.0
H300 H 0.34614 0.88942 0.88505 0.0
H301 H 0.30521 0.90258 0.84486 0.0
H302 H 0.33948 0.94513 0.69934 0.0
H303 H 0.37864 0.97783 0.71213 0.0
H304 H 0.3567 0.99764 0.82724 0.0
H305 H 0.31735 0.96513 0.81392 0.0
H306 H 0.28343 0.93766 0.64353 0.0
H307 H 0.28378 0.97657 0.6054 0.0
H308 H 0.27609 0.0316 0.70684 0.0
H309 H 0.27612 0.99256 0.74483 0.0
H310 H 0.2423 0.88976 0.64566 0.0
H311 H 0.20191 0.89518 0.59915 0.0
H312 H 0.17682 0.96541 0.67071 0.0
H313 H 0.21705 0.95942 0.71735 0.0
H314 H 0.25167 0.84597 0.69801 0.0
H315 H 0.20866 0.82163 0.66969 0.0
H316 H 0.15975 0.88337 0.72677 0.0
H317 H 0.20273 0.90712 0.75559 0.0
H318 H 0.30816 0.84444 0.7564 0.0
H319 H 0.30674 0.80502 0.79335 0.0
H320 H 0.24363 0.84435 0.85725 0.0
H321 H 0.24443 0.88314 0.81905 0.0
O322 O 0.41142 0.01379 0.75096 0.0
O323 O 0.39936 0.02314 0.80992 0.0
O324 O 0.15691 0.91791 0.57455 0.0
O325 O 0.1433 0.95439 0.60997 0.0
C326 C 0.30131 0.90946 0.76827 0.0
C327 C 0.3016 0.93305 0.74785 0.0
C328 C 0.27913 0.93797 0.72028 0.0
C329 C 0.25603 0.91961 0.71423 0.0
C330 C 0.25502 0.89688 0.73596 0.0
C331 C 0.27768 0.89144 0.76279 0.0
C332 C 0.3265 0.903 0.79384 0.0
C333 C 0.35237 0.89968 0.77902 0.0
C334 C 0.37627 0.89416 0.80262 0.0
C335 C 0.37475 0.89053 0.84137 0.0
C336 C 0.34857 0.89308 0.85589 0.0
C337 C 0.32488 0.89995 0.83263 0.0
C338 C 0.32547 0.95286 0.75563 0.0
C339 C 0.34304 0.9567 0.72721 0.0
C340 C 0.36546 0.97532 0.73464 0.0
C341 C 0.3708 0.99037 0.77071 0.0
C342 C 0.35317 0.98639 0.79916 0.0
C343 C 0.33071 0.96781 0.79165 0.0
C344 C 0.27984 0.96205 0.69719 0.0
C345 C 0.28188 0.95811 0.6576 0.0
C346 C 0.28202 0.98043 0.63578 0.0
C347 C 0.28027 0.0074 0.65294 0.0
C348 C 0.27816 0.01127 0.69265 0.0
C349 C 0.278 0.98891 0.71446 0.0
C350 C 0.23251 0.92413 0.68491 0.0
C351 C 0.22806 0.90631 0.6512 0.0
C352 C 0.20499 0.90947 0.62468 0.0
C353 C 0.18608 0.9307 0.63127 0.0
C354 C 0.19093 0.94883 0.66479 0.0
C355 C 0.21395 0.94554 0.6914 0.0
C356 C 0.23024 0.87831 0.7287 0.0
C357 C 0.23169 0.85352 0.70573 0.0
C358 C 0.20715 0.83982 0.68933 0.0
C359 C 0.18091 0.8507 0.6959 0.0
C360 C 0.17964 0.87426 0.72165 0.0
C361 C 0.20416 0.88789 0.73809 0.0
C362 C 0.2765 0.86693 0.78493 0.0
C363 C 0.29399 0.84455 0.77834 0.0
C364 C 0.29335 0.82207 0.79991 0.0
C365 C 0.27543 0.82147 0.82906 0.0
C366 C 0.25766 0.84384 0.83511 0.0
C367 C 0.25812 0.86616 0.81329 0.0
C368 C 0.39467 0.0101 0.77853 0.0
C369 C 0.16128 0.93387 0.60346 0.0
H370 H 0.21444 0.57191 0.80326 0.0
H371 H 0.19761 0.27078 0.61966 0.0
H372 H 0.31621 0.46959 0.79344 0.0
H373 H 0.32501 0.51175 0.83433 0.0
H374 H 0.31452 0.4692 0.9334 0.0
H375 H 0.30226 0.42739 0.89101 0.0
H376 H 0.26157 0.46912 0.74263 0.0
H377 H 0.24184 0.51429 0.75692 0.0
H378 H 0.22627 0.49305 0.86872 0.0
H379 H 0.24564 0.44788 0.85389 0.0
H380 H 0.24968 0.41134 0.68365 0.0
H381 H 0.20539 0.40769 0.64339 0.0
H382 H 0.16122 0.41717 0.74447 0.0
H383 H 0.20576 0.41731 0.78445 0.0
H384 H 0.29203 0.36821 0.68772 0.0
H385 H 0.27426 0.33285 0.63718 0.0
H386 H 0.20542 0.31641 0.70158 0.0
H387 H 0.22324 0.35207 0.75181 0.0
H388 H 0.3446 0.36847 0.75076 0.0
H389 H 0.35809 0.32586 0.71603 0.0
H390 H 0.28693 0.28476 0.75152 0.0
H391 H 0.27504 0.32676 0.7885 0.0
H392 H 0.3608 0.41412 0.81367 0.0
H393 H 0.40009 0.39841 0.85573 0.0
H394 H 0.34333 0.3464 0.90392 0.0
H395 H 0.30428 0.36238 0.86228 0.0
O396 O 0.2214 0.55369 0.79772 0.0
O397 O 0.21271 0.54126 0.85417 0.0
O398 O 0.24125 0.29376 0.60786 0.0
O399 O 0.20464 0.28533 0.63882 0.0
C400 C 0.29416 0.42311 0.81251 0.0
C401 C 0.26906 0.42862 0.78987 0.0
C402 C 0.2574 0.40881 0.76076 0.0
C403 C 0.27054 0.38337 0.75481 0.0
C404 C 0.29459 0.37735 0.77891 0.0
C405 C 0.30615 0.39702 0.80814 0.0
C406 C 0.30814 0.44554 0.83911 0.0
C407 C 0.31652 0.46918 0.82409 0.0
C408 C 0.32205 0.49333 0.84782 0.0
C409 C 0.32078 0.49408 0.88753 0.0
C410 C 0.31537 0.46948 0.90294 0.0
C411 C 0.30874 0.44545 0.87885 0.0
C412 C 0.25501 0.45521 0.79719 0.0
C413 C 0.25351 0.47413 0.76996 0.0
C414 C 0.2424 0.49997 0.77831 0.0
C415 C 0.2326 0.50733 0.81404 0.0
C416 C 0.23367 0.48808 0.84096 0.0
C417 C 0.2447 0.46226 0.83254 0.0
C418 C 0.23098 0.41399 0.73699 0.0
C419 C 0.23042 0.41289 0.69708 0.0
C420 C 0.20496 0.41127 0.67404 0.0
C421 C 0.17954 0.4121 0.69056 0.0
C422 C 0.18035 0.41589 0.73072 0.0
C423 C 0.20581 0.41641 0.7537 0.0
C424 C 0.25897 0.36261 0.72346 0.0
C425 C 0.27309 0.35698 0.69082 0.0
C426 C 0.26296 0.33671 0.66207 0.0
C427 C 0.23862 0.32157 0.66556 0.0
C428 C 0.22429 0.32759 0.69808 0.0
C429 C 0.23437 0.34798 0.72675 0.0
C430 C 0.3084 0.35078 0.77118 0.0
C431 C 0.33285 0.3499 0.75267 0.0
C432 C 0.34022 0.32566 0.73232 0.0
C433 C 0.32277 0.30235 0.72952 0.0
C434 C 0.30066 0.30242 0.7527 0.0
C435 C 0.29376 0.32645 0.77383 0.0
C436 C 0.32977 0.38941 0.83508 0.0
C437 C 0.3569 0.39955 0.83359 0.0
C438 C 0.37926 0.39037 0.85727 0.0
C439 C 0.3747 0.37096 0.88269 0.0
C440 C 0.34738 0.36137 0.88462 0.0
C441 C 0.32513 0.37045 0.86092 0.0
C442 C 0.22159 0.53506 0.8233 0.0
C443 C 0.22832 0.29945 0.63558 0.0
H444 H 0.91572 0.42006 0.9344 0.0
H445 H 0.83415 0.19344 0.61667 0.0
H446 H 0.81234 0.3114 0.93525 0.0
H447 H 0.80958 0.34941 0.98515 0.0
H448 H 0.74331 0.38429 0.91451 0.0
H449 H 0.74628 0.34624 0.86454 0.0
H450 H 0.86267 0.31372 0.88164 0.0
H451 H 0.8916 0.35379 0.90746 0.0
H452 H 0.82606 0.40644 0.86614 0.0
H453 H 0.7976 0.36623 0.8399 0.0
H454 H 0.86606 0.2689 0.80502 0.0
H455 H 0.90232 0.28018 0.76457 0.0
H456 H 0.85571 0.35064 0.7335 0.0
H457 H 0.81917 0.33887 0.77269 0.0
H458 H 0.81915 0.21978 0.80254 0.0
H459 H 0.83173 0.18813 0.74923 0.0
H460 H 0.81263 0.24982 0.67205 0.0
H461 H 0.79957 0.28105 0.7254 0.0
H462 H 0.76351 0.22417 0.85832 0.0
H463 H 0.74535 0.17892 0.83249 0.0
H464 H 0.73596 0.20591 0.71908 0.0
H465 H 0.74966 0.25174 0.74613 0.0
H466 H 0.75978 0.27242 0.92044 0.0
H467 H 0.7156 0.27564 0.9495 0.0
H468 H 0.6725 0.29281 0.84138 0.0
H469 H 0.71683 0.29025 0.81277 0.0
O470 O 0.9041 0.4045 0.92354 0.0
O471 O 0.86948 0.43063 0.90247 0.0
O472 O 0.8382 0.17424 0.67894 0.0
O473 O 0.82935 0.20552 0.6383 0.0
C474 C 0.78613 0.30714 0.86309 0.0
C475 C 0.81005 0.31269 0.84496 0.0
C476 C 0.81678 0.29533 0.81315 0.0
C477 C 0.80027 0.2717 0.80023 0.0
C478 C 0.77581 0.26632 0.8178 0.0
C479 C 0.76854 0.28443 0.84887 0.0
C480 C 0.77955 0.32612 0.8963 0.0
C481 C 0.79666 0.32682 0.93105 0.0
C482 C 0.79514 0.34854 0.9594 0.0
C483 C 0.77659 0.36995 0.95329 0.0
C484 C 0.7581 0.36822 0.91958 0.0
C485 C 0.75952 0.34639 0.89128 0.0
C486 C 0.828 0.33709 0.85918 0.0
C487 C 0.85471 0.33394 0.878 0.0
C488 C 0.87113 0.35685 0.89281 0.0
C489 C 0.86109 0.38333 0.88903 0.0
C490 C 0.8344 0.38636 0.86967 0.0
C491 C 0.81807 0.36344 0.85474 0.0
C492 C 0.84002 0.30306 0.79168 0.0
C493 C 0.86379 0.28681 0.78959 0.0
C494 C 0.88438 0.29323 0.76664 0.0
C495 C 0.88158 0.31622 0.74615 0.0
C496 C 0.85829 0.33295 0.74935 0.0
C497 C 0.83753 0.32627 0.77169 0.0
C498 C 0.80854 0.25274 0.76789 0.0
C499 C 0.81771 0.22641 0.7741 0.0
C500 C 0.82489 0.20839 0.7436 0.0
C501 C 0.82321 0.21647 0.70636 0.0
C502 C 0.81418 0.24295 0.70034 0.0
C503 C 0.80684 0.26087 0.73079 0.0
C504 C 0.75861 0.24121 0.80402 0.0
C505 C 0.75614 0.22061 0.82819 0.0
C506 C 0.74621 0.19453 0.81314 0.0
C507 C 0.73952 0.18821 0.77339 0.0
C508 C 0.74006 0.20962 0.74983 0.0
C509 C 0.74855 0.23598 0.76522 0.0
C510 C 0.74148 0.2813 0.86462 0.0
C511 C 0.74071 0.27646 0.90293 0.0
C512 C 0.71554 0.27829 0.91943 0.0
C513 C 0.69083 0.285 0.8978 0.0
C514 C 0.6914 0.28821 0.85884 0.0
C515 C 0.71657 0.28643 0.84239 0.0
C516 C 0.87838 0.40763 0.90533 0.0
C517 C 0.83073 0.1974 0.67383 0.0
H518 H 0.97965 0.6681 0.83524 0.0
H519 H 0.70071 0.67413 0.99007 0.0
H520 H 0.8852 0.77919 0.82882 0.0
H521 H 0.91546 0.78885 0.77985 0.0
H522 H 0.84928 0.7619 0.69164 0.0
H523 H 0.81901 0.75288 0.74076 0.0
H524 H 0.88706 0.73376 0.88656 0.0
H525 H 0.92984 0.70884 0.87557 0.0
H526 H 0.89245 0.67734 0.76297 0.0
H527 H 0.84969 0.70215 0.7745 0.0
H528 H 0.83751 0.72918 0.9412 0.0
H529 H 0.83929 0.69076 0.98 0.0
H530 H 0.82657 0.63466 0.87719 0.0
H531 H 0.82334 0.67338 0.83859 0.0
H532 H 0.78603 0.76806 0.93836 0.0
H533 H 0.75581 0.75322 0.98425 0.0
H534 H 0.73673 0.67823 0.91092 0.0
H535 H 0.76653 0.69358 0.86489 0.0
H536 H 0.78139 0.81487 0.88459 0.0
H537 H 0.73686 0.83447 0.90152 0.0
H538 H 0.69299 0.76192 0.84661 0.0
H539 H 0.73731 0.74271 0.82904 0.0
H540 H 0.83925 0.81859 0.83676 0.0
H541 H 0.82924 0.86231 0.81109 0.0
H542 H 0.75295 0.82775 0.74934 0.0
H543 H 0.76353 0.78361 0.77389 0.0
O544 O 0.9625 0.67772 0.83902 0.0
O545 O 0.94236 0.66218 0.78133 0.0
O546 O 0.72251 0.71979 0.00847 0.0
O547 O 0.71261 0.68059 0.97227 0.0
C548 C 0.83219 0.75766 0.8177 0.0
C549 C 0.83947 0.73505 0.83804 0.0
C550 C 0.82219 0.72714 0.86502 0.0
C551 C 0.797 0.74095 0.87059 0.0
C552 C 0.7896 0.7635 0.8502 0.0
C553 C 0.8077 0.77233 0.82462 0.0
C554 C 0.8499 0.76542 0.7883 0.0
C555 C 0.87719 0.77566 0.79891 0.0
C556 C 0.89444 0.78103 0.77096 0.0
C557 C 0.88467 0.77631 0.73193 0.0
C558 C 0.8572 0.76631 0.72146 0.0
C559 C 0.83992 0.76105 0.74944 0.0
C560 C 0.86532 0.71975 0.83133 0.0
C561 C 0.88813 0.72137 0.85961 0.0
C562 C 0.91256 0.70717 0.85322 0.0
C563 C 0.91458 0.69111 0.81837 0.0
C564 C 0.8916 0.68953 0.79011 0.0
C565 C 0.86717 0.7037 0.79658 0.0
C566 C 0.82985 0.70397 0.88726 0.0
C567 C 0.83566 0.70856 0.92708 0.0
C568 C 0.83678 0.68663 0.94913 0.0
C569 C 0.83242 0.65984 0.93153 0.0
C570 C 0.82925 0.6552 0.89141 0.0
C571 C 0.82775 0.67719 0.86937 0.0
C572 C 0.77845 0.73191 0.8983 0.0
C573 C 0.77515 0.74852 0.93216 0.0
C574 C 0.75795 0.73995 0.95836 0.0
C575 C 0.74386 0.71451 0.95126 0.0
C576 C 0.74726 0.69792 0.91728 0.0
C577 C 0.76432 0.7066 0.89098 0.0
C578 C 0.76261 0.7773 0.85569 0.0
C579 C 0.76209 0.80355 0.87533 0.0
C580 C 0.7367 0.8147 0.88494 0.0
C581 C 0.71159 0.79963 0.87536 0.0
C582 C 0.71209 0.77389 0.85435 0.0
C583 C 0.73733 0.76293 0.84433 0.0
C584 C 0.80209 0.79802 0.80716 0.0
C585 C 0.8206 0.82033 0.81721 0.0
C586 C 0.81486 0.8452 0.8028 0.0
C587 C 0.79027 0.84815 0.77875 0.0
C588 C 0.77188 0.82579 0.76826 0.0
C589 C 0.7779 0.80073 0.78213 0.0
C590 C 0.94059 0.6761 0.81164 0.0
C591 C 0.72571 0.70523 0.97913 0.0
C592 C 0.05357 0.40215 0.59242 0.0
C593 C 0.05577 0.42846 0.61098 0.0
C594 C 0.03102 0.44093 0.60149 0.0
C595 C 0.01512 0.42158 0.57798 0.0
N596 N 0.02828 0.39772 0.57202 0.0
Co597 Co 0.01258 0.36419 0.54099 0.0
N598 N 0.98268 0.38518 0.51415 0.0
C599 C 0.97511 0.41083 0.52537 0.0
C600 C 0.95328 0.41997 0.50223 0.0
C601 C 0.94619 0.39859 0.47508 0.0
C602 C 0.96416 0.37745 0.48323 0.0
N603 N 0.99677 0.33049 0.5101 0.0
C604 C 0.97734 0.32746 0.47928 0.0
C605 C 0.97248 0.30003 0.46656 0.0
C606 C 0.98867 0.2854 0.49107 0.0
C607 C 0.00266 0.30461 0.5171 0.0
N608 N 0.04246 0.34338 0.56794 0.0
C609 C 0.04299 0.31613 0.56912 0.0
C610 C 0.06715 0.30753 0.58808 0.0
C611 C 0.08274 0.33082 0.59974 0.0
C612 C 0.06697 0.35247 0.58763 0.0
N613 N 0.98831 0.35832 0.58055 0.0
C614 C 0.95509 0.34475 0.63627 0.0
C615 C 0.98264 0.354 0.64652 0.0
C616 C 0.99894 0.36062 0.6182 0.0
C617 C 0.94409 0.34357 0.59797 0.0
C618 C 0.961 0.35055 0.57065 0.0
N619 N 0.03725 0.36981 0.50189 0.0
C620 C 0.07305 0.35232 0.46389 0.0
C621 C 0.07804 0.37837 0.45344 0.0
C622 C 0.06148 0.39996 0.46637 0.0
C623 C 0.04115 0.39524 0.49068 0.0
C624 C 0.05245 0.34844 0.4878 0.0
H625 H 0.02923 0.41228 0.50134 0.0
H626 H 0.04954 0.32822 0.49584 0.0
H627 H 0.02033 0.36704 0.62672 0.0
H628 H 0.95205 0.34917 0.54147 0.0
C629 C 0.99021 0.4264 0.55601 0.0
C630 C 0.07505 0.38141 0.59686 0.0
C631 C 0.95962 0.34929 0.46535 0.0
C632 C 0.02356 0.29917 0.54565 0.0
H633 H 0.07336 0.43769 0.62951 0.0
H634 H 0.02572 0.46191 0.60958 0.0
H635 H 0.94359 0.43976 0.50484 0.0
H636 H 0.9289 0.39827 0.45288 0.0
H637 H 0.95783 0.29151 0.44296 0.0
H638 H 0.99022 0.26341 0.48985 0.0
H639 H 0.07343 0.28672 0.59114 0.0
H640 H 0.10345 0.33157 0.61501 0.0
H641 H 0.99173 0.3554 0.67603 0.0
H642 H 0.92259 0.33719 0.58915 0.0
H643 H 0.08527 0.3351 0.45402 0.0
H644 H 0.06484 0.42042 0.45882 0.0
C645 C 0.71699 0.05851 0.68865 0.0
C646 C 0.69171 0.06253 0.70396 0.0
C647 C 0.67367 0.04268 0.68582 0.0
C648 C 0.68898 0.02753 0.66093 0.0
N649 N 0.71581 0.0363 0.66246 0.0
Co650 Co 0.74552 0.01955 0.63223 0.0
N651 N 0.71782 0.99391 0.60014 0.0
C652 C 0.68992 0.99272 0.60234 0.0
C653 C 0.67615 0.97343 0.57627 0.0
C654 C 0.69642 0.96168 0.55603 0.0
C655 C 0.72153 0.97455 0.57097 0.0
N656 N 0.77562 1.00178 0.60351 0.0
C657 C 0.77411 0.98094 0.57514 0.0
C658 C 0.80035 0.97447 0.56398 0.0
C659 C 0.81912 0.99148 0.5865 0.0
C660 C 0.80338 0.00737 0.60994 0.0
N661 N 0.77287 0.04653 0.66246 0.0
C662 C 0.80056 0.04858 0.65905 0.0
C663 C 0.81339 0.07114 0.67944 0.0
C664 C 0.79261 0.08468 0.69643 0.0
C665 C 0.76818 0.06926 0.68592 0.0
N666 N 0.75252 0.99281 0.67033 0.0
C667 C 0.76433 0.95 0.71603 0.0
C668 C 0.78466 0.96978 0.71299 0.0
C669 C 0.77834 0.99092 0.69023 0.0
C670 C 0.73762 0.95281 0.69761 0.0
C671 C 0.73211 0.97441 0.67561 0.0
N672 N 0.73854 0.04601 0.59428 0.0
C673 C 0.75591 0.07545 0.5513 0.0
C674 C 0.72935 0.08598 0.54401 0.0
C675 C 0.70725 0.07597 0.56127 0.0
C676 C 0.71222 0.05576 0.58589 0.0
C677 C 0.76009 0.05566 0.57663 0.0
H678 H 0.69455 0.04858 0.59818 0.0
H679 H 0.78098 0.04882 0.58198 0.0
H680 H 0.79494 0.00498 0.68855 0.0
H681 H 0.71135 0.97514 0.66232 0.0
C682 C 0.67783 0.008 0.63176 0.0
C683 C 0.7409 0.07733 0.6979 0.0
C684 C 0.74845 0.96688 0.55761 0.0
C685 C 0.81369 0.02951 0.63529 0.0
H686 H 0.68655 0.07879 0.72493 0.0
H687 H 0.65164 0.04046 0.68898 0.0
H688 H 0.65412 0.968 0.57309 0.0
H689 H 0.69313 0.94511 0.53337 0.0
H690 H 0.80543 0.95925 0.54156 0.0
H691 H 0.84149 0.99262 0.58527 0.0
H692 H 0.8351 0.07747 0.68076 0.0
H693 H 0.79529 0.1041 0.71374 0.0
H694 H 0.80558 0.96858 0.72733 0.0
H695 H 0.72124 0.93779 0.69868 0.0
H696 H 0.7735 0.08301 0.5383 0.0
H697 H 0.68635 0.0838 0.55593 0.0
C698 C 0.06191 0.84493 0.58796 0.0
C699 C 0.06678 0.87111 0.60631 0.0
C700 C 0.04722 0.88744 0.58986 0.0
C701 C 0.03157 0.87041 0.56259 0.0
N702 N 0.03996 0.84414 0.56054 0.0
Co703 Co 0.0227 0.81249 0.52546 0.0
N704 N 0.99371 0.83645 0.50183 0.0
C705 C 0.99213 0.86393 0.50823 0.0
C706 C 0.96948 0.87451 0.48824 0.0
C707 C 0.95553 0.85243 0.46833 0.0
C708 C 0.97051 0.82959 0.47753 0.0
N709 N 0.00472 0.78068 0.4914 0.0
C710 C 0.98006 0.7791 0.4689 0.0
C711 C 0.97401 0.75266 0.4523 0.0
C712 C 0.99547 0.73687 0.46514 0.0
C713 C 0.01321 0.75447 0.48889 0.0
N714 N 0.05206 0.78858 0.54849 0.0
C715 C 0.05567 0.76167 0.53846 0.0
C716 C 0.07797 0.75088 0.55886 0.0
C717 C 0.08945 0.7722 0.58326 0.0
C718 C 0.0734 0.79484 0.57624 0.0
N719 N 0.99781 0.80524 0.56477 0.0
C720 C 0.96045 0.79508 0.61826 0.0
C721 C 0.97624 0.77403 0.6021 0.0
C722 C 0.99469 0.77952 0.57557 0.0
C723 C 0.96425 0.82136 0.60792 0.0
C724 C 0.98275 0.82593 0.58126 0.0
N725 N 0.04775 0.81994 0.48581 0.0
C726 C 0.07647 0.80415 0.43567 0.0
C727 C 0.08394 0.83094 0.43067 0.0
C728 C 0.07318 0.85204 0.45399 0.0
C729 C 0.05514 0.84618 0.4807 0.0
C730 C 0.0586 0.79915 0.46319 0.0
H731 H 0.04773 0.86338 0.49702 0.0
H732 H 0.05402 0.77828 0.46562 0.0
H733 H 0.00605 0.76267 0.56387 0.0
H734 H 0.98444 0.84637 0.57426 0.0
C735 C 0.00976 0.87865 0.53718 0.0
C736 C 0.0794 0.82181 0.59658 0.0
C737 C 0.96115 0.80176 0.46409 0.0
C738 C 0.03705 0.74682 0.511 0.0
H739 H 0.08305 0.87779 0.62888 0.0
H740 H 0.04496 0.90921 0.59659 0.0
H741 H 0.96308 0.8956 0.48949 0.0
H742 H 0.93606 0.85296 0.4501 0.0
H743 H 0.95564 0.74539 0.43365 0.0
H744 H 0.99742 0.71501 0.45898 0.0
H745 H 0.0849 0.72996 0.55651 0.0
H746 H 0.10756 0.77122 0.60395 0.0
H747 H 0.97406 0.75334 0.60946 0.0
H748 H 0.95309 0.83846 0.62052 0.0
H749 H 0.08432 0.78704 0.41834 0.0
H750 H 0.07899 0.87313 0.45221 0.0
C751 C 0.30073 0.10687 0.53849 0.0
C752 C 0.32551 0.09252 0.54023 0.0
C753 C 0.34245 0.10419 0.51747 0.0
C754 C 0.32711 0.12482 0.5029 0.0
N755 N 0.30144 0.12725 0.51519 0.0
Co756 Co 0.27181 0.15341 0.49832 0.0
N757 N 0.29698 0.17093 0.4652 0.0
C758 C 0.32386 0.16446 0.46103 0.0
C759 C 0.33656 0.18076 0.43845 0.0
C760 C 0.31673 0.199 0.4278 0.0
C761 C 0.29285 0.19265 0.4443 0.0
N762 N 0.2419 0.17898 0.48049 0.0
C763 C 0.24252 0.19937 0.45719 0.0
C764 C 0.21665 0.21156 0.4519 0.0
C765 C 0.19926 0.19886 0.47299 0.0
C766 C 0.21529 0.17953 0.48972 0.0
N767 N 0.24694 0.13667 0.53249 0.0
C768 C 0.22051 0.14407 0.5381 0.0
C769 C 0.20864 0.12947 0.56347 0.0
C770 C 0.22861 0.11155 0.57473 0.0
C771 C 0.25158 0.11609 0.55526 0.0
N772 N 0.28534 0.18062 0.54155 0.0
C773 C 0.30437 0.21786 0.60429 0.0
C774 C 0.27587 0.21401 0.59332 0.0
C775 C 0.26684 0.19546 0.56193 0.0
C776 C 0.32333 0.20318 0.58348 0.0
C777 C 0.3134 0.18466 0.55239 0.0
N778 N 0.25843 0.12563 0.45547 0.0
C779 C 0.22425 0.09064 0.42949 0.0
C780 C 0.24376 0.07751 0.4078 0.0
C781 C 0.26969 0.09019 0.40727 0.0
C782 C 0.27653 0.11417 0.43109 0.0
C783 C 0.23181 0.11487 0.45244 0.0
H784 H 0.29697 0.12234 0.43037 0.0
H785 H 0.21611 0.12389 0.46853 0.0
H786 H 0.24483 0.19352 0.55467 0.0
H787 H 0.32881 0.17388 0.53759 0.0
C788 C 0.33645 0.1427 0.47842 0.0
C789 C 0.27703 0.09996 0.55895 0.0
C790 C 0.26703 0.20827 0.43986 0.0
C791 C 0.20676 0.16343 0.51695 0.0
H792 H 0.33075 0.07526 0.55612 0.0
H793 H 0.36344 0.09828 0.5121 0.0
H794 H 0.35781 0.17967 0.4309 0.0
H795 H 0.31966 0.21531 0.41017 0.0
H796 H 0.21104 0.22821 0.43498 0.0
H797 H 0.17768 0.20364 0.47653 0.0
H798 H 0.18774 0.13126 0.57217 0.0
H799 H 0.22637 0.09657 0.59465 0.0
H800 H 0.26065 0.22552 0.60865 0.0
H801 H 0.34564 0.20604 0.59111 0.0
H802 H 0.20354 0.08186 0.42956 0.0
H803 H 0.28518 0.08088 0.3901 0.0
C804 C 0.55857 0.87309 0.08154 0.0
C805 C 0.57062 0.89668 0.10176 0.0
C806 C 0.57041 0.91607 0.07653 0.0
C807 C 0.5578 0.90354 0.04259 0.0
N808 N 0.54957 0.87761 0.04516 0.0
Co809 Co 0.52842 0.85309 0.00394 0.0
N810 N 0.51852 0.88393 0.97366 0.0
C811 C 0.5315 0.90845 0.97716 0.0
C812 C 0.51937 0.9256 0.95208 0.0
C813 C 0.49735 0.91089 0.93182 0.0
C814 C 0.49728 0.8856 0.94593 0.0
N815 N 0.50707 0.82887 0.9626 0.0
C816 C 0.48607 0.83529 0.93672 0.0
C817 C 0.47487 0.81194 0.91495 0.0
C818 C 0.48995 0.79038 0.92729 0.0
C819 C 0.50916 0.80161 0.95614 0.0
N820 N 0.53846 0.82191 0.03388 0.0
C821 C 0.53729 0.79537 0.01981 0.0
C822 C 0.54715 0.77822 0.0461 0.0
C823 C 0.55552 0.79497 0.07861 0.0
C824 C 0.5502 0.82164 0.0704 0.0
N825 N 0.49448 0.85874 0.02967 0.0
C826 C 0.44606 0.86688 0.06683 0.0
C827 C 0.45336 0.84065 0.05239 0.0
C828 C 0.47769 0.837 0.03408 0.0
C829 C 0.46321 0.889 0.06168 0.0
C830 C 0.48726 0.88451 0.04305 0.0
N831 N 0.56246 0.84743 0.97819 0.0
C832 C 0.58567 0.84198 0.92062 0.0
C833 C 0.61063 0.83567 0.94175 0.0
C834 C 0.61121 0.83619 0.98142 0.0
C835 C 0.58708 0.84231 0.99903 0.0
C836 C 0.56175 0.8477 0.93939 0.0
H837 H 0.58831 0.8423 0.02953 0.0
H838 H 0.54254 0.85181 0.92247 0.0
H839 H 0.48295 0.81656 0.02357 0.0
H840 H 0.50001 0.90194 0.03948 0.0
C841 C 0.55 0.91647 0.00964 0.0
C842 C 0.56045 0.846 0.09583 0.0
C843 C 0.47724 0.86337 0.93217 0.0
C844 C 0.52427 0.78713 0.98316 0.0
H845 H 0.5798 0.89919 0.13121 0.0
H846 H 0.57807 0.93695 0.08246 0.0
H847 H 0.52469 0.94681 0.9504 0.0
H848 H 0.48273 0.91806 0.90978 0.0
H849 H 0.4573 0.81028 0.89314 0.0
H850 H 0.48597 0.76892 0.91818 0.0
H851 H 0.54805 0.75616 0.04221 0.0
H852 H 0.56537 0.78815 0.10478 0.0
H853 H 0.44063 0.82301 0.05583 0.0
H854 H 0.45801 0.90967 0.07179 0.0
H855 H 0.58441 0.8416 0.88979 0.0
H856 H 0.63019 0.83159 0.99875 0.0
C857 C 0.20994 0.67433 0.03138 0.0
C858 C 0.18142 0.67609 0.02086 0.0
C859 C 0.17673 0.66554 0.9833 0.0
C860 C 0.2025 0.65776 0.97304 0.0
N861 N 0.22303 0.66244 0.00201 0.0
Co862 Co 0.26313 0.65436 0.99937 0.0
N863 N 0.25453 0.62926 0.95239 0.0
C864 C 0.23121 0.62878 0.92782 0.0
C865 C 0.23162 0.60884 0.89768 0.0
C866 C 0.25674 0.59605 0.90397 0.0
C867 C 0.27014 0.60894 0.93775 0.0
N868 N 0.30314 0.64592 0.9964 0.0
C869 C 0.31432 0.62319 0.97968 0.0
C870 C 0.34315 0.62347 0.98806 0.0
C871 C 0.35012 0.6477 0.00994 0.0
C872 C 0.32522 0.6606 0.01426 0.0
N873 N 0.27193 0.67971 0.04623 0.0
C874 C 0.29722 0.69102 0.05885 0.0
C875 C 0.29704 0.7079 0.09216 0.0
C876 C 0.26988 0.70758 0.1006 0.0
C877 C 0.25488 0.6903 0.0719 0.0
N878 N 0.25983 0.62375 0.03087 0.0
C879 C 0.25683 0.57906 0.07478 0.0
C880 C 0.2786 0.59856 0.08274 0.0
C881 C 0.27971 0.62058 0.06065 0.0
C882 C 0.23622 0.58285 0.04468 0.0
C883 C 0.23815 0.60517 0.02305 0.0
N884 N 0.26658 0.68509 0.9679 0.0
C885 C 0.28392 0.70404 0.91402 0.0
C886 C 0.27079 0.72898 0.92275 0.0
C887 C 0.25557 0.73135 0.95468 0.0
C888 C 0.25397 0.70943 0.97693 0.0
C889 C 0.28146 0.6824 0.93671 0.0
H890 H 0.24244 0.71225 0.00151 0.0
H891 H 0.29152 0.66341 0.92889 0.0
H892 H 0.29689 0.63497 0.06762 0.0
H893 H 0.22221 0.60726 0.99976 0.0
C894 C 0.20762 0.64295 0.93848 0.0
C895 C 0.22419 0.68724 0.06755 0.0
C896 C 0.29775 0.60187 0.95513 0.0
C897 C 0.32119 0.68206 0.04219 0.0
H898 H 0.16578 0.68482 0.03822 0.0
H899 H 0.15683 0.66332 0.96584 0.0
H900 H 0.21503 0.6032 0.8751 0.0
H901 H 0.26416 0.57898 0.88616 0.0
H902 H 0.35762 0.60767 0.98027 0.0
H903 H 0.37065 0.65405 0.02356 0.0
H904 H 0.3146 0.71875 0.10875 0.0
H905 H 0.26199 0.71932 0.12467 0.0
H906 H 0.29469 0.59698 0.10619 0.0
H907 H 0.21896 0.56839 0.0374 0.0
H908 H 0.29566 0.70107 0.8894 0.0
H909 H 0.2452 0.75021 0.96275 0.0
C910 C 0.48479 0.35345 0.00346 0.0
C911 C 0.48356 0.38073 0.99661 0.0
C912 C 0.50239 0.39457 0.02328 0.0
C913 C 0.51409 0.37502 0.0446 0.0
N914 N 0.50399 0.34947 0.0331 0.0
Co915 Co 0.51593 0.3149 0.05518 0.0
N916 N 0.54175 0.33568 0.09643 0.0
C917 C 0.54501 0.36312 0.10321 0.0
C918 C 0.56369 0.37146 0.1342 0.0
C919 C 0.57299 0.34794 0.14808 0.0
C920 C 0.55944 0.32654 0.12449 0.0
N921 N 0.52902 0.28023 0.07612 0.0
C922 C 0.549 0.27632 0.10493 0.0
C923 C 0.5527 0.2488 0.109 0.0
C924 C 0.5345 0.23476 0.08159 0.0
C925 C 0.52088 0.25444 0.06236 0.0
N926 N 0.48899 0.29434 0.01503 0.0
C927 C 0.48381 0.26709 0.01039 0.0
C928 C 0.46307 0.2591 0.98176 0.0
C929 C 0.45418 0.28269 0.96757 0.0
C930 C 0.47018 0.30375 0.98836 0.0
N931 N 0.54613 0.31143 0.02086 0.0
C932 C 0.59147 0.30436 0.97669 0.0
C933 C 0.57094 0.28404 0.97503 0.0
C934 C 0.54859 0.288 0.99703 0.0
C935 C 0.58862 0.3286 1.00005 0.0
C936 C 0.56585 0.33176 0.02156 0.0
N937 N 0.48578 0.31814 0.08962 0.0
C938 C 0.45089 0.29698 0.12226 0.0
C939 C 0.44167 0.32246 0.13609 0.0
C940 C 0.455 0.3458 0.1269 0.0
C941 C 0.4771 0.34319 0.10412 0.0
C942 C 0.47269 0.29529 0.09904 0.0
H943 H 0.48665 0.36173 0.09836 0.0
H944 H 0.47825 0.27523 0.08868 0.0
H945 H 0.53382 0.27159 0.99463 0.0
H946 H 0.56492 0.35062 0.03904 0.0
C947 C 0.53236 0.38035 0.07784 0.0
C948 C 0.46637 0.33238 0.98223 0.0
C949 C 0.56498 0.29796 0.129 0.0
C950 C 0.49947 0.24949 0.0325 0.0
H951 H 0.46997 0.38976 0.97512 0.0
H952 H 0.50641 0.41639 0.0274 0.0
H953 H 0.57036 0.39213 0.14477 0.0
H954 H 0.58844 0.34666 0.17235 0.0
H955 H 0.56706 0.23984 0.1297 0.0
H956 H 0.53147 0.21284 0.0764 0.0
H957 H 0.45532 0.23857 0.97235 0.0
H958 H 0.4377 0.28426 0.94464 0.0
H959 H 0.57221 0.26502 0.95697 0.0
H960 H 0.60426 0.3448 0.00256 0.0
H961 H 0.44077 0.27843 0.12841 0.0
H962 H 0.44836 0.36596 0.1372 0.0
C963 C 0.76628 0.57291 0.17841 0.0
C964 C 0.74139 0.5858 0.18514 0.0
C965 C 0.72076 0.57188 0.16141 0.0
C966 C 0.73412 0.55127 0.14185 0.0
N967 N 0.76204 0.55106 0.15178 0.0
Co968 Co 0.78924 0.524 0.13144 0.0
N969 N 0.75941 0.50559 0.0933 0.0
C970 C 0.73248 0.51322 0.08706 0.0
C971 C 0.71711 0.49716 0.05833 0.0
C972 C 0.73529 0.47812 0.04533 0.0
C973 C 0.7608 0.48367 0.06709 0.0
N974 N 0.81608 0.49597 0.11251 0.0
C975 C 0.81173 0.47408 0.0859 0.0
C976 C 0.83586 0.45906 0.08268 0.0
C977 C 0.85614 0.4718 0.10836 0.0
C978 C 0.84329 0.49374 0.12578 0.0
N979 N 0.81937 0.54344 0.16809 0.0
C980 C 0.84677 0.53709 0.17234 0.0
C981 C 0.86278 0.55514 0.19781 0.0
C982 C 0.84462 0.57445 0.21021 0.0
C983 C 0.81845 0.5669 0.19167 0.0
N984 N 0.78051 0.49966 0.17007 0.0
C985 C 0.76986 0.45853 0.21635 0.0
C986 C 0.79651 0.47021 0.21811 0.0
C987 C 0.80132 0.49068 0.19502 0.0
C988 C 0.74823 0.46892 0.19292 0.0
C989 C 0.75392 0.48961 0.17055 0.0
N990 N 0.79804 0.54801 0.09262 0.0
C991 C 0.83087 0.56522 0.05318 0.0
C992 C 0.81027 0.58124 0.03627 0.0
C993 C 0.78359 0.58076 0.0485 0.0
C994 C 0.77788 0.56391 0.07619 0.0
C995 C 0.8244 0.549 0.08126 0.0
H996 H 0.75704 0.56416 0.08393 0.0
H997 H 0.84109 0.53746 0.0933 0.0
H998 H 0.82223 0.49828 0.19713 0.0
H999 H 0.7366 0.49646 0.15298 0.0
C1000 C 0.72166 0.53392 0.111 0.0
C1001 C 0.79347 0.58293 0.1968 0.0
C1002 C 0.78534 0.46689 0.06273 0.0
C1003 C 0.8566 0.51358 0.15279 0.0
H1004 H 0.73854 0.60381 0.20453 0.0
H1005 H 0.6988 0.57681 0.15786 0.0
H1006 H 0.69512 0.49866 0.04868 0.0
H1007 H 0.73022 0.46168 0.02287 0.0
H1008 H 0.83854 0.44087 0.06355 0.0
H1009 H 0.87776 0.46596 0.11339 0.0
H1010 H 0.88503 0.55441 0.20624 0.0
H1011 H 0.85004 0.59217 0.23042 0.0
H1012 H 0.81377 0.46305 0.2365 0.0
H1013 H 0.72724 0.46036 0.1905 0.0
H1014 H 0.85189 0.56512 0.0447 0.0
H1015 H 0.76719 0.59357 0.03713 0.0
C1016 C 0.15052 0.37694 0.42052 0.0
C1017 C 0.1461 0.3867 0.38443 0.0
C1018 C 0.12839 0.3748 0.44295 0.0
C1019 C 0.10124 0.38275 0.43027 0.0
H1020 H 0.17105 0.37025 0.43101 0.0
H1021 H 0.13247 0.36666 0.47031 0.0
S1022 S 0.07927 0.41116 0.33893 0.0
N1023 N 0.11299 0.40545 0.33764 0.0
N1024 N 0.07135 0.40162 0.38009 0.0
C1025 C 0.09675 0.39334 0.3948 0.0
C1026 C 0.11921 0.39522 0.37175 0.0
C1027 C 0.72674 0.12493 0.45752 0.0
C1028 C 0.7242 0.15208 0.47344 0.0
C1029 C 0.72747 0.10336 0.48043 0.0
C1030 C 0.72529 0.10831 0.51976 0.0
H1031 H 0.72875 0.12039 0.42728 0.0
H1032 H 0.73029 0.08277 0.46752 0.0
S1033 S 0.71849 0.17527 0.57557 0.0
N1034 N 0.71977 0.18259 0.53117 0.0
N1035 N 0.72034 0.14169 0.57394 0.0
C1036 C 0.72195 0.1351 0.53594 0.0
C1037 C 0.72154 0.15712 0.51279 0.0
C1038 C 0.88217 0.79346 0.45076 0.0
C1039 C 0.87631 0.78926 0.41073 0.0
C1040 C 0.90975 0.7972 0.46788 0.0
C1041 C 0.93228 0.79663 0.4455 0.0
H1042 H 0.86528 0.79466 0.46889 0.0
H1043 H 0.91352 0.80089 0.49875 0.0
S1044 S 0.92847 0.78475 0.34001 0.0
N1045 N 0.89556 0.78346 0.34942 0.0
N1046 N 0.94735 0.79078 0.38184 0.0
C1047 C 0.92685 0.79189 0.40567 0.0
C1048 C 0.89886 0.78811 0.38821 0.0
C1049 C 0.2376 0.01831 0.32991 0.0
C1050 C 0.23235 0.99592 0.3501 0.0
C1051 C 0.24062 0.04483 0.34855 0.0
C1052 C 0.23802 0.04988 0.38785 0.0
H1053 H 0.24035 0.01516 0.29973 0.0
H1054 H 0.2454 0.06146 0.33227 0.0
S1055 S 0.22369 0.99843 0.45339 0.0
N1056 N 0.22418 0.98056 0.41128 0.0
N1057 N 0.22961 0.03053 0.44634 0.0
C1058 C 0.2321 0.02779 0.40818 0.0
C1059 C 0.22938 1.00075 0.38931 0.0
C1060 C 0.15541 0.83711 0.63164 0.0
C1061 C 0.15535 0.84015 0.67171 0.0
C1062 C 0.13083 0.83045 0.60755 0.0
C1063 C 0.10545 0.82662 0.62273 0.0
H1064 H 0.17435 0.84096 0.61875 0.0
H1065 H 0.13149 0.82901 0.57685 0.0
S1066 S 0.0942 0.83035 0.72512 0.0
N1067 N 0.12787 0.83736 0.72531 0.0
N1068 N 0.08157 0.82499 0.67965 0.0
C1069 C 0.10512 0.82876 0.66252 0.0
C1070 C 0.13012 0.83554 0.68713 0.0
C1071 C 0.31928 0.25275 0.70456 0.0
C1072 C 0.32396 0.2801 0.69803 0.0
C1073 C 0.31423 0.23224 0.67401 0.0
C1074 C 0.31399 0.23841 0.6361 0.0
H1075 H 0.31831 0.2474 0.73338 0.0
H1076 H 0.30945 0.21165 0.67997 0.0
S1077 S 0.32619 0.30595 0.60306 0.0
N1078 N 0.32884 0.31174 0.65015 0.0
N1079 N 0.3199 0.27285 0.59318 0.0
C1080 C 0.31996 0.26516 0.62907 0.0
C1081 C 0.32493 0.28611 0.65997 0.0
C1082 C 0.91613 0.34759 0.72434 0.0
C1083 C 0.90203 0.32219 0.71971 0.0
C1084 C 0.93395 0.35448 0.69772 0.0
C1085 C 0.93775 0.33637 0.66534 0.0
H1086 H 0.91309 0.3623 0.74847 0.0
H1087 H 0.94418 0.3744 0.70188 0.0
S1088 S 0.90575 0.26725 0.64066 0.0
N1089 N 0.89324 0.27875 0.68097 0.0
N1090 N 0.92666 0.29172 0.63069 0.0
C1091 C 0.92405 0.31076 0.66074 0.0
C1092 C 0.9062 0.30364 0.68804 0.0
C1093 C 0.80201 0.88616 0.74178 0.0
C1094 C 0.78385 0.87468 0.76465 0.0
C1095 C 0.79588 0.91099 0.72708 0.0
C1096 C 0.77155 0.92526 0.73518 0.0
H1097 H 0.82069 0.87552 0.73446 0.0
H1098 H 0.80986 0.91863 0.7083 0.0
S1099 S 0.71908 0.90485 0.79744 0.0
N1100 N 0.74174 0.87978 0.79694 0.0
N1101 N 0.73045 0.92703 0.77023 0.0
C1102 C 0.75379 0.91436 0.75929 0.0
C1103 C 0.75989 0.8889 0.77383 0.0
C1104 C 0.93073 0.7708 0.70487 0.0
C1105 C 0.90343 0.78112 0.70228 0.0
C1106 C 0.94887 0.77501 0.67728 0.0
C1107 C 0.94046 0.78984 0.64619 0.0
H1108 H 0.93809 0.75922 0.7283 0.0
H1109 H 0.9698 0.76698 0.68069 0.0
S1110 S 0.871 0.82075 0.62588 0.0
N1111 N 0.8689 0.80682 0.6661 0.0
N1112 N 0.9027 0.81413 0.61376 0.0
C1113 C 0.91312 0.80002 0.64305 0.0
C1114 C 0.89468 0.79577 0.67115 0.0
C1115 C 0.26337 0.03028 0.59386 0.0
C1116 C 0.2801 0.03121 0.62927 0.0
C1117 C 0.26257 0.05239 0.57134 0.0
C1118 C 0.27856 0.07639 0.58311 0.0
H1119 H 0.25041 0.01242 0.58366 0.0
H1120 H 0.24925 0.05077 0.54451 0.0
S1121 S 0.32675 0.08922 0.67209 0.0
N1122 N 0.31391 0.05822 0.67396 0.0
N1123 N 0.31193 0.09968 0.63197 0.0
C1124 C 0.29553 0.0776 0.6181 0.0
C1125 C 0.29639 0.05512 0.64107 0.0
C1126 C 0.13259 0.38873 0.67926 0.0
C1127 C 0.15248 0.4059 0.66651 0.0
C1128 C 0.10762 0.38106 0.65673 0.0
C1129 C 0.10197 0.38938 0.61993 0.0
H1130 H 0.13644 0.38066 0.70667 0.0
H1131 H 0.09269 0.36832 0.66807 0.0
S1132 S 0.14535 0.43614 0.57387 0.0
N1133 N 0.16323 0.43299 0.61565 0.0
N1134 N 0.11697 0.41681 0.57231 0.0
C1135 C 0.12119 0.40685 0.60689 0.0
C1136 C 0.14635 0.41538 0.63027 0.0
C1137 C 0.75234 0.13869 0.77254 0.0
C1138 C 0.73589 0.15908 0.7563 0.0
C1139 C 0.75262 0.11199 0.7546 0.0
C1140 C 0.73743 0.10477 0.71888 0.0
H1141 H 0.76618 0.1435 0.79854 0.0
H1142 H 0.76589 0.09718 0.76791 0.0
S1143 S 0.68782 0.14846 0.66642 0.0
N1144 N 0.70048 0.16837 0.70486 0.0
N1145 N 0.70344 0.11888 0.66942 0.0
C1146 C 0.71985 0.12426 0.70308 0.0
C1147 C 0.71863 0.15124 0.72206 0.0
C1148 C 0.88484 0.32254 0.45392 0.0
C1149 C 0.87469 0.32828 0.41687 0.0
C1150 C 0.91236 0.32907 0.46889 0.0
C1151 C 0.93092 0.34149 0.44737 0.0
H1152 H 0.87148 0.3126 0.47144 0.0
H1153 H 0.91914 0.32433 0.4976 0.0
S1154 S 0.91498 0.36095 0.34911 0.0
N1155 N 0.88539 0.34737 0.35904 0.0
N1156 N 0.93757 0.35925 0.38732 0.0
C1157 C 0.92129 0.34717 0.41023 0.0
C1158 C 0.89309 0.34061 0.39491 0.0
C1159 C 0.76533 0.89755 0.50847 0.0
C1160 C 0.75536 0.89949 0.46996 0.0
C1161 C 0.76269 0.91929 0.53669 0.0
C1162 C 0.7501 0.94376 0.52738 0.0
H1163 H 0.77542 0.87915 0.51683 0.0
H1164 H 0.77072 0.91707 0.56599 0.0
S1165 S 0.71931 0.95896 0.43161 0.0
N1166 N 0.73104 0.92758 0.42459 0.0
N1167 N 0.72716 0.96873 0.4776 0.0
C1168 C 0.73991 0.946 0.48924 0.0
C1169 C 0.74232 0.92382 0.46052 0.0
C1170 C 0.14764 0.8278 0.37465 0.0
C1171 C 0.14336 0.84919 0.35117 0.0
C1172 C 0.12815 0.82176 0.39969 0.0
C1173 C 0.10354 0.83685 0.40232 0.0
H1174 H 0.16622 0.81554 0.37367 0.0
H1175 H 0.13271 0.80545 0.41767 0.0
S1176 S 0.08191 0.89448 0.34636 0.0
N1177 N 0.11253 0.88554 0.33227 0.0
N1178 N 0.0754 0.87345 0.37802 0.0
C1179 C 0.09873 0.85799 0.37851 0.0
C1180 C 0.11869 0.86429 0.35324 0.0
C1181 C 0.26435 0.2529 0.35633 0.0
C1182 C 0.2621 0.27973 0.37407 0.0
C1183 C 0.26607 0.23005 0.37759 0.0
C1184 C 0.26555 0.23295 0.41758 0.0
H1185 H 0.26511 0.2495 0.32569 0.0
H1186 H 0.2678 0.20991 0.36262 0.0
S1187 S 0.2587 0.29809 0.47818 0.0
N1188 N 0.25842 0.30732 0.43448 0.0
N1189 N 0.2621 0.26458 0.47404 0.0
C1190 C 0.26311 0.25948 0.4357 0.0
C1191 C 0.26134 0.28275 0.41414 0.0
C1192 C 0.67159 0.79266 0.91311 0.0
C1193 C 0.68535 0.80927 0.89053 0.0
C1194 C 0.64733 0.80136 0.92919 0.0
C1195 C 0.63567 0.82684 0.92285 0.0
H1196 H 0.67998 0.77296 0.91902 0.0
H1197 H 0.6376 0.78805 0.9468 0.0
S1198 S 0.66333 0.87772 0.86522 0.0
N1199 N 0.68549 0.85225 0.86228 0.0
N1200 N 0.63947 0.86849 0.89214 0.0
C1201 C 0.64893 0.84349 0.89983 0.0
C1202 C 0.67393 0.83477 0.88386 0.0
C1203 C 0.24929 0.78736 0.86225 0.0
C1204 C 0.27491 0.79766 0.85285 0.0
C1205 C 0.24817 0.76535 0.88474 0.0
C1206 C 0.27259 0.75231 0.89865 0.0
H1207 H 0.22977 0.7962 0.85183 0.0
H1208 H 0.22791 0.75825 0.89092 0.0
S1209 S 0.34518 0.77241 0.8854 0.0
N1210 N 0.32555 0.79385 0.86184 0.0
N1211 N 0.32328 0.75224 0.90297 0.0
C1212 C 0.29834 0.76242 0.88979 0.0
C1213 C 0.29954 0.78505 0.86724 0.0
C1214 C 0.39655 0.36073 0.94689 0.0
C1215 C 0.39825 0.36059 0.90733 0.0
C1216 C 0.4185 0.35103 0.97085 0.0
C1217 C 0.44266 0.34064 0.95593 0.0
H1218 H 0.37832 0.36881 0.95948 0.0
H1219 H 0.41675 0.35192 0.00128 0.0
S1220 S 0.45708 0.33457 0.85462 0.0
N1221 N 0.4258 0.3483 0.85433 0.0
N1222 N 0.46711 0.3302 0.89971 0.0
C1223 C 0.44457 0.34001 0.91658 0.0
C1224 C 0.42232 0.34998 0.89216 0.0
C1225 C 0.77668 0.39299 0.01996 0.0
C1226 C 0.77816 0.39491 0.98074 0.0
C1227 C 0.7791 0.41637 0.04643 0.0
C1228 C 0.78332 0.44231 0.0345 0.0
H1229 H 0.77349 0.37329 0.03017 0.0
H1230 H 0.77763 0.41423 0.07638 0.0
S1231 S 0.79059 0.45823 0.93585 0.0
N1232 N 0.78539 0.4248 0.93175 0.0
N1233 N 0.78984 0.46867 0.98166 0.0
C1234 C 0.78519 0.44452 0.99563 0.0
C1235 C 0.78262 0.42082 0.96868 0.0
C1236 C 0.63728 0.28569 0.17658 0.0
C1237 C 0.63237 0.28409 0.21488 0.0
C1238 C 0.61518 0.28933 0.14856 0.0
C1239 C 0.58757 0.29118 0.15799 0.0
H1240 H 0.6584 0.28484 0.16846 0.0
H1241 H 0.61971 0.29131 0.11955 0.0
S1242 S 0.56332 0.28623 0.25308 0.0
N1243 N 0.59761 0.28312 0.26015 0.0
N1244 N 0.55613 0.29011 0.20723 0.0
C1245 C 0.58223 0.28886 0.19574 0.0
C1246 C 0.60466 0.28528 0.2243 0.0
C1247 C 0.79061 0.65947 0.22204 0.0
C1248 C 0.7916 0.66205 0.26223 0.0
C1249 C 0.79241 0.63387 0.20117 0.0
C1250 C 0.7954 0.61001 0.21976 0.0
H1251 H 0.78711 0.6772 0.20646 0.0
H1252 H 0.7905 0.63256 0.17021 0.0
S1253 S 0.80113 0.60564 0.3242 0.0
N1254 N 0.79748 0.63856 0.31979 0.0
N1255 N 0.80055 0.59039 0.28026 0.0
C1256 C 0.79746 0.61229 0.25982 0.0
C1257 C 0.79561 0.63834 0.28113 0.0
C1258 C 0.37087 0.86308 0.09079 0.0
C1259 C 0.37222 0.87709 0.1277 0.0
C1260 C 0.3948 0.85995 0.0712 0.0
C1261 C 0.42085 0.87103 0.08762 0.0
H1262 H 0.3513 0.85391 0.07732 0.0
H1263 H 0.39291 0.84879 0.04298 0.0
S1264 S 0.43531 0.91022 0.18308 0.0
N1265 N 0.40155 0.90274 0.17947 0.0
N1266 N 0.4465 0.89676 0.14278 0.0
C1267 C 0.42236 0.88548 0.12422 0.0
C1268 C 0.39807 0.88849 0.14425 0.0
C1269 C 0.22993 0.52639 0.13612 0.0
C1270 C 0.25373 0.51075 0.1453 0.0
C1271 C 0.23092 0.54806 0.11296 0.0
C1272 C 0.25575 0.55511 0.09793 0.0
H1273 H 0.21049 0.52219 0.14757 0.0
H1274 H 0.21222 0.55979 0.10748 0.0
S1275 S 0.3229 0.51845 0.10914 0.0
N1276 N 0.30219 0.50251 0.13449 0.0
N1277 N 0.30404 0.54298 0.09134 0.0
C1278 C 0.27942 0.53909 0.10591 0.0
C1279 C 0.27841 0.51706 0.12943 0.0
C1280 C 0.36966 0.34055 0.16337 0.0
C1281 C 0.3687 0.329 0.19804 0.0
C1282 C 0.39354 0.33865 0.14385 0.0
C1283 C 0.41712 0.3247 0.15799 0.0
H1284 H 0.35198 0.35162 0.15159 0.0
H1285 H 0.39347 0.34794 0.11732 0.0
S1286 S 0.42511 0.29052 0.24714 0.0
N1287 N 0.39329 0.30314 0.2457 0.0
N1288 N 0.43817 0.29895 0.20838 0.0
C1289 C 0.41637 0.31272 0.19233 0.0
C1290 C 0.39217 0.31507 0.21258 0.0
C1291 C 0.77939 0.38832 0.24983 0.0
C1292 C 0.75666 0.38567 0.27124 0.0
C1293 C 0.78365 0.41216 0.23272 0.0
C1294 C 0.76532 0.4342 0.23637 0.0
H1295 H 0.79413 0.37191 0.2465 0.0
H1296 H 0.80122 0.41317 0.21599 0.0
S1297 S 0.70263 0.43745 0.2895 0.0
N1298 N 0.71537 0.40684 0.29487 0.0
N1299 N 0.72384 0.45209 0.26342 0.0
C1300 C 0.74255 0.43188 0.25783 0.0
C1301 C 0.73816 0.40753 0.27519 0.0
C1302 C 0.59422 0.82202 0.18851 0.0
C1303 C 0.62294 0.82708 0.18667 0.0
C1304 C 0.57393 0.8296 0.1602 0.0
C1305 C 0.58165 0.84186 0.12854 0.0
H1306 H 0.58735 0.81125 0.21121 0.0
H1307 H 0.55215 0.82473 0.16213 0.0
S1308 S 0.65346 0.86215 0.11179 0.0
N1309 N 0.65742 0.8486 0.15279 0.0
N1310 N 0.61971 0.85971 0.09756 0.0
C1311 C 0.61011 0.84773 0.12682 0.0
C1312 C 0.63061 0.8411 0.15634 0.0
C1313 C 0.19929 0.72485 0.15587 0.0
C1314 C 0.19515 0.75131 0.1445 0.0
C1315 C 0.20617 0.7031 0.12984 0.0
C1316 C 0.20871 0.70707 0.09159 0.0
H1317 H 0.19926 0.7214 0.18565 0.0
H1318 H 0.21155 0.68365 0.14025 0.0
S1319 S 0.19592 0.77076 0.04559 0.0
N1320 N 0.19122 0.77911 0.09086 0.0
N1321 N 0.20349 0.73805 0.04231 0.0
C1322 C 0.20195 0.73253 0.07897 0.0
C1323 C 0.19521 0.75471 0.10533 0.0
C1324 C 0.42035 0.86611 0.84976 0.0
C1325 C 0.4004 0.88343 0.86577 0.0
C1326 C 0.44515 0.85982 0.87117 0.0
C1327 C 0.45048 0.86946 0.90999 0.0
H1328 H 0.41694 0.85732 0.82028 0.0
H1329 H 0.4604 0.84752 0.85704 0.0
S1330 S 0.40647 0.91637 0.96587 0.0
N1331 N 0.38914 0.9117 0.9228 0.0
N1332 N 0.43474 0.89768 0.96367 0.0
C1333 C 0.43095 0.88666 0.92661 0.0
C1334 C 0.40607 0.89396 0.9045 0.0
C1335 C 0.29994 0.52523 0.93715 0.0
C1336 C 0.32029 0.52091 0.91123 0.0
C1337 C 0.2944 0.55148 0.95349 0.0
C1338 C 0.30869 0.57444 0.94423 0.0
H1339 H 0.28677 0.50855 0.94297 0.0
H1340 H 0.27762 0.55403 0.97175 0.0
S1341 S 0.36557 0.57443 0.88101 0.0
N1342 N 0.35724 0.54184 0.88111 0.0
N1343 N 0.34452 0.59144 0.90861 0.0
C1344 C 0.32987 0.57051 0.91983 0.0
C1345 C 0.33626 0.54366 0.90421 0.0
C1346 C 0.65531 0.27068 0.93911 0.0
C1347 C 0.66488 0.28993 0.91647 0.0
C1348 C 0.63135 0.2754 0.95807 0.0
C1349 C 0.61626 0.29966 0.95535 0.0
H1350 H 0.66643 0.25183 0.94217 0.0
H1351 H 0.62486 0.26014 0.97555 0.0
S1352 S 0.63275 0.35657 0.89974 0.0
N1353 N 0.65767 0.33427 0.89262 0.0
N1354 N 0.61232 0.34293 0.92779 0.0
C1355 C 0.62555 0.31902 0.93267 0.0
C1356 C 0.6499 0.31419 0.91328 0.0
C1357 C 0.84667 0.63469 0.98813 0.0
C1358 C 0.8282 0.63744 0.95529 0.0
C1359 C 0.84112 0.61588 0.01362 0.0
C1360 C 0.81688 0.5992 0.00717 0.0
H1361 H 0.86521 0.64763 0.99461 0.0
H1362 H 0.85542 0.61508 0.03924 0.0
S1363 S 0.76257 0.59759 0.92438 0.0
N1364 N 0.78497 0.62164 0.91727 0.0
N1365 N 0.7752 0.58539 0.96435 0.0
C1366 C 0.79877 0.60105 0.97371 0.0
C1367 C 0.8043 0.62035 0.94792 0.0
loop_
_geom_bond_atom_site_label_1
_geom_bond_atom_site_label_2
_geom_bond_distance
_geom_bond_site_symmetry_2
_ccdc_geom_bond_type
H0 O26 0.856 . S
H1 O29 0.854 . S
H2 C37 0.930 . S
H3 C38 0.930 . S
H4 C40 0.930 . S
H5 C41 0.930 . S
H6 C43 0.931 . S
H7 C44 0.930 . S
H8 C46 0.930 . S
H9 C47 0.929 . S
H10 C49 0.930 . S
H11 C50 0.931 . S
H12 C52 0.930 . S
H13 C53 0.929 . S
H14 C55 0.931 . S
H15 C56 0.930 . S
H16 C58 0.930 . S
H17 C59 0.932 . S
H18 C61 0.930 . S
H19 C62 0.929 . S
H20 C64 0.931 . S
H21 C65 0.930 . S
H22 C67 0.929 . S
H23 C68 0.931 . S
H24 C70 0.930 . S
H25 C71 0.929 . S
O26 H0 0.856 . S
O26 C72 1.300 . S
O27 C72 1.209 . S
O28 C73 1.199 . S
O29 H1 0.854 . S
O29 C73 1.297 . S
C30 C31 1.404 . S
C30 C35 1.397 . S
C30 C36 1.492 . S
C31 C30 1.404 . S
C31 C32 1.396 . S
C31 C42 1.492 . S
C32 C31 1.396 . S
C32 C33 1.397 . S
C32 C48 1.509 . S
C33 C32 1.397 . S
C33 C34 1.412 . S
C33 C54 1.485 . S
C34 C33 1.412 . S
C34 C35 1.388 . S
C34 C60 1.490 . S
C35 C30 1.397 . S
C35 C34 1.388 . S
C35 C66 1.519 . S
C36 C30 1.492 . S
C36 C37 1.363 . S
C36 C41 1.390 . S
C37 H2 0.930 . S
C37 C36 1.363 . S
C37 C38 1.372 . S
C38 H3 0.930 . S
C38 C37 1.372 . S
C38 C39 1.383 . S
C39 C38 1.383 . S
C39 C40 1.395 . S
C40 H4 0.930 . S
C40 C39 1.395 . S
C40 C41 1.362 . S
C41 H5 0.930 . S
C41 C36 1.390 . S
C41 C40 1.362 . S
C42 C31 1.492 . S
C42 C43 1.377 . S
C42 C47 1.397 . S
C43 H6 0.931 . S
C43 C42 1.377 . S
C43 C44 1.376 . S
C44 H7 0.930 . S
C44 C43 1.376 . S
C44 C45 1.376 . S
C45 C44 1.376 . S
C45 C46 1.378 . S
C45 C72 1.486 . S
C46 H8 0.930 . S
C46 C45 1.378 . S
C46 C47 1.376 . S
C47 H9 0.929 . S
C47 C42 1.397 . S
C47 C46 1.376 . S
C48 C32 1.509 . S
C48 C49 1.391 . S
C48 C53 1.386 . S
C49 H10 0.930 . S
C49 C48 1.391 . S
C49 C50 1.375 . S
C50 H11 0.931 . S
C50 C49 1.375 . S
C50 C51 1.375 . S
C51 C50 1.375 . S
C51 C52 1.361 . S
C52 H12 0.930 . S
C52 C51 1.361 . S
C52 C53 1.399 . S
C53 H13 0.929 . S
C53 C48 1.386 . S
C53 C52 1.399 . S
C54 C33 1.485 . S
C54 C55 1.394 . S
C54 C59 1.360 . S
C55 H14 0.931 . S
C55 C54 1.394 . S
C55 C56 1.372 . S
C56 H15 0.930 . S
C56 C55 1.372 . S
C56 C57 1.397 . S
C57 C56 1.397 . S
C57 C58 1.390 . S
C57 C73 1.476 . S
C58 H16 0.930 . S
C58 C57 1.390 . S
C58 C59 1.366 . S
C59 H17 0.932 . S
C59 C54 1.360 . S
C59 C58 1.366 . S
C60 C34 1.490 . S
C60 C61 1.380 . S
C60 C65 1.386 . S
C61 H18 0.930 . S
C61 C60 1.380 . S
C61 C62 1.381 . S
C62 H19 0.929 . S
C62 C61 1.381 . S
C62 C63 1.371 . S
C63 C62 1.371 . S
C63 C64 1.380 . S
C64 H20 0.931 . S
C64 C63 1.380 . S
C64 C65 1.387 . S
C65 H21 0.930 . S
C65 C60 1.386 . S
C65 C64 1.387 . S
C66 C35 1.519 . S
C66 C67 1.377 . S
C66 C71 1.361 . S
C67 H22 0.929 . S
C67 C66 1.377 . S
C67 C68 1.386 . S
C68 H23 0.931 . S
C68 C67 1.386 . S
C68 C69 1.363 . S
C69 C68 1.363 . S
C69 C70 1.385 . S
C70 H24 0.930 . S
C70 C69 1.385 . S
C70 C71 1.396 . S
C71 H25 0.929 . S
C71 C66 1.361 . S
C71 C70 1.396 . S
C72 O26 1.300 . S
C72 O27 1.209 . S
C72 C45 1.486 . S
C73 O28 1.199 . S
C73 O29 1.297 . S
C73 C57 1.476 . S
H74 O100 0.856 . S
H75 O103 0.854 . S
H76 C111 0.930 . S
H77 C112 0.930 . S
H78 C114 0.930 . S
H79 C115 0.930 . S
H80 C117 0.931 . S
H81 C118 0.930 . S
H82 C120 0.930 . S
H83 C121 0.929 . S
H84 C123 0.930 . S
H85 C124 0.931 . S
H86 C126 0.930 . S
H87 C127 0.929 . S
H88 C129 0.931 . S
H89 C130 0.930 . S
H90 C132 0.930 . S
H91 C133 0.932 . S
H92 C135 0.930 . S
H93 C136 0.929 . S
H94 C138 0.931 . S
H95 C139 0.930 . S
H96 C141 0.929 . S
H97 C142 0.931 . S
H98 C144 0.930 . S
H99 C145 0.929 . S
O100 H74 0.856 . S
O100 C146 1.300 . S
O101 C146 1.209 . S
O102 C147 1.199 . S
O103 H75 0.854 . S
O103 C147 1.297 . S
C104 C105 1.404 . S
C104 C109 1.397 . S
C104 C110 1.492 . S
C105 C104 1.404 . S
C105 C106 1.396 . S
C105 C116 1.492 . S
C106 C105 1.396 . S
C106 C107 1.397 . S
C106 C122 1.509 . S
C107 C106 1.397 . S
C107 C108 1.412 . S
C107 C128 1.485 . S
C108 C107 1.412 . S
C108 C109 1.388 . S
C108 C134 1.490 . S
C109 C104 1.397 . S
C109 C108 1.388 . S
C109 C140 1.519 . S
C110 C104 1.492 . S
C110 C111 1.363 . S
C110 C115 1.390 . S
C111 H76 0.930 . S
C111 C110 1.363 . S
C111 C112 1.372 . S
C112 H77 0.930 . S
C112 C111 1.372 . S
C112 C113 1.383 . S
C113 C112 1.383 . S
C113 C114 1.395 . S
C114 H78 0.930 . S
C114 C113 1.395 . S
C114 C115 1.362 . S
C115 H79 0.930 . S
C115 C110 1.390 . S
C115 C114 1.362 . S
C116 C105 1.492 . S
C116 C117 1.377 . S
C116 C121 1.397 . S
C117 H80 0.931 . S
C117 C116 1.377 . S
C117 C118 1.376 . S
C118 H81 0.930 . S
C118 C117 1.376 . S
C118 C119 1.376 . S
C119 C118 1.376 . S
C119 C120 1.378 . S
C119 C146 1.486 . S
C120 H82 0.930 . S
C120 C119 1.378 . S
C120 C121 1.376 . S
C121 H83 0.929 . S
C121 C116 1.397 . S
C121 C120 1.376 . S
C122 C106 1.509 . S
C122 C123 1.391 . S
C122 C127 1.386 . S
C123 H84 0.930 . S
C123 C122 1.391 . S
C123 C124 1.375 . S
C124 H85 0.931 . S
C124 C123 1.375 . S
C124 C125 1.375 . S
C125 C124 1.375 . S
C125 C126 1.361 . S
C126 H86 0.930 . S
C126 C125 1.361 . S
C126 C127 1.399 . S
C127 H87 0.929 . S
C127 C122 1.386 . S
C127 C126 1.399 . S
C128 C107 1.485 . S
C128 C129 1.394 . S
C128 C133 1.360 . S
C129 H88 0.931 . S
C129 C128 1.394 . S
C129 C130 1.372 . S
C130 H89 0.930 . S
C130 C129 1.372 . S
C130 C131 1.397 . S
C131 C130 1.397 . S
C131 C132 1.390 . S
C131 C147 1.476 . S
C132 H90 0.930 . S
C132 C131 1.390 . S
C132 C133 1.366 . S
C133 H91 0.932 . S
C133 C128 1.360 . S
C133 C132 1.366 . S
C134 C108 1.490 . S
C134 C135 1.380 . S
C134 C139 1.386 . S
C135 H92 0.930 . S
C135 C134 1.380 . S
C135 C136 1.381 . S
C136 H93 0.929 . S
C136 C135 1.381 . S
C136 C137 1.371 . S
C137 C136 1.371 . S
C137 C138 1.380 . S
C138 H94 0.931 . S
C138 C137 1.380 . S
C138 C139 1.387 . S
C139 H95 0.930 . S
C139 C134 1.386 . S
C139 C138 1.387 . S
C140 C109 1.519 . S
C140 C141 1.377 . S
C140 C145 1.361 . S
C141 H96 0.929 . S
C141 C140 1.377 . S
C141 C142 1.386 . S
C142 H97 0.931 . S
C142 C141 1.386 . S
C142 C143 1.363 . S
C143 C142 1.363 . S
C143 C144 1.385 . S
C144 H98 0.930 . S
C144 C143 1.385 . S
C144 C145 1.396 . S
C145 H99 0.929 . S
C145 C140 1.361 . S
C145 C144 1.396 . S
C146 O100 1.300 . S
C146 O101 1.209 . S
C146 C119 1.486 . S
C147 O102 1.199 . S
C147 O103 1.297 . S
C147 C131 1.476 . S
H148 O174 0.856 . S
H149 O177 0.854 . S
H150 C185 0.930 . S
H151 C186 0.930 . S
H152 C188 0.930 . S
H153 C189 0.930 . S
H154 C191 0.931 . S
H155 C192 0.930 . S
H156 C194 0.930 . S
H157 C195 0.929 . S
H158 C197 0.930 . S
H159 C198 0.931 . S
H160 C200 0.930 . S
H161 C201 0.929 . S
H162 C203 0.931 . S
H163 C204 0.930 . S
H164 C206 0.930 . S
H165 C207 0.932 . S
H166 C209 0.930 . S
H167 C210 0.929 . S
H168 C212 0.931 . S
H169 C213 0.930 . S
H170 C215 0.929 . S
H171 C216 0.931 . S
H172 C218 0.930 . S
H173 C219 0.929 . S
O174 H148 0.856 . S
O174 C220 1.300 . S
O175 C220 1.209 . S
O176 C221 1.199 . S
O177 H149 0.854 . S
O177 C221 1.297 . S
C178 C179 1.404 . S
C178 C183 1.397 . S
C178 C184 1.492 . S
C179 C178 1.404 . S
C179 C180 1.396 . S
C179 C190 1.492 . S
C180 C179 1.396 . S
C180 C181 1.397 . S
C180 C196 1.509 . S
C181 C180 1.397 . S
C181 C182 1.412 . S
C181 C202 1.485 . S
C182 C181 1.412 . S
C182 C183 1.388 . S
C182 C208 1.490 . S
C183 C178 1.397 . S
C183 C182 1.388 . S
C183 C214 1.519 . S
C184 C178 1.492 . S
C184 C185 1.363 . S
C184 C189 1.390 . S
C185 H150 0.930 . S
C185 C184 1.363 . S
C185 C186 1.372 . S
C186 H151 0.930 . S
C186 C185 1.372 . S
C186 C187 1.383 . S
C187 C186 1.383 . S
C187 C188 1.395 . S
C188 H152 0.930 . S
C188 C187 1.395 . S
C188 C189 1.362 . S
C189 H153 0.930 . S
C189 C184 1.390 . S
C189 C188 1.362 . S
C190 C179 1.492 . S
C190 C191 1.377 . S
C190 C195 1.397 . S
C191 H154 0.931 . S
C191 C190 1.377 . S
C191 C192 1.376 . S
C192 H155 0.930 . S
C192 C191 1.376 . S
C192 C193 1.376 . S
C193 C192 1.376 . S
C193 C194 1.378 . S
C193 C220 1.486 . S
C194 H156 0.930 . S
C194 C193 1.378 . S
C194 C195 1.376 . S
C195 H157 0.929 . S
C195 C190 1.397 . S
C195 C194 1.376 . S
C196 C180 1.509 . S
C196 C197 1.391 . S
C196 C201 1.386 . S
C197 H158 0.930 . S
C197 C196 1.391 . S
C197 C198 1.375 . S
C198 H159 0.931 . S
C198 C197 1.375 . S
C198 C199 1.375 . S
C199 C198 1.375 . S
C199 C200 1.361 . S
C200 H160 0.930 . S
C200 C199 1.361 . S
C200 C201 1.399 . S
C201 H161 0.929 . S
C201 C196 1.386 . S
C201 C200 1.399 . S
C202 C181 1.485 . S
C202 C203 1.394 . S
C202 C207 1.360 . S
C203 H162 0.931 . S
C203 C202 1.394 . S
C203 C204 1.372 . S
C204 H163 0.930 . S
C204 C203 1.372 . S
C204 C205 1.397 . S
C205 C204 1.397 . S
C205 C206 1.390 . S
C205 C221 1.476 . S
C206 H164 0.930 . S
C206 C205 1.390 . S
C206 C207 1.366 . S
C207 H165 0.932 . S
C207 C202 1.360 . S
C207 C206 1.366 . S
C208 C182 1.490 . S
C208 C209 1.380 . S
C208 C213 1.386 . S
C209 H166 0.930 . S
C209 C208 1.380 . S
C209 C210 1.381 . S
C210 H167 0.929 . S
C210 C209 1.381 . S
C210 C211 1.371 . S
C211 C210 1.371 . S
C211 C212 1.380 . S
C212 H168 0.931 . S
C212 C211 1.380 . S
C212 C213 1.387 . S
C213 H169 0.930 . S
C213 C208 1.386 . S
C213 C212 1.387 . S
C214 C183 1.519 . S
C214 C215 1.377 . S
C214 C219 1.361 . S
C215 H170 0.929 . S
C215 C214 1.377 . S
C215 C216 1.386 . S
C216 H171 0.931 . S
C216 C215 1.386 . S
C216 C217 1.363 . S
C217 C216 1.363 . S
C217 C218 1.385 . S
C218 H172 0.930 . S
C218 C217 1.385 . S
C218 C219 1.396 . S
C219 H173 0.929 . S
C219 C214 1.361 . S
C219 C218 1.396 . S
C220 O174 1.300 . S
C220 O175 1.209 . S
C220 C193 1.486 . S
C221 O176 1.199 . S
C221 O177 1.297 . S
C221 C205 1.476 . S
H222 O248 0.856 . S
H223 O251 0.854 1_556 S
H224 C259 0.930 . S
H225 C260 0.930 . S
H226 C262 0.930 . S
H227 C263 0.930 . S
H228 C265 0.931 . S
H229 C266 0.930 . S
H230 C268 0.930 1_545 S
H231 C269 0.929 . S
H232 C271 0.930 . S
H233 C272 0.931 . S
H234 C274 0.930 . S
H235 C275 0.929 . S
H236 C277 0.931 . S
H237 C278 0.930 . S
H238 C280 0.930 . S
H239 C281 0.932 . S
H240 C283 0.930 . S
H241 C284 0.929 . S
H242 C286 0.931 . S
H243 C287 0.930 . S
H244 C289 0.929 . S
H245 C290 0.931 . S
H246 C292 0.930 . S
H247 C293 0.929 . S
O248 H222 0.856 . S
O248 C294 1.300 . S
O249 C294 1.209 . S
O250 C295 1.199 . S
O251 H223 0.854 1_554 S
O251 C295 1.297 . S
C252 C253 1.404 . S
C252 C257 1.397 . S
C252 C258 1.492 . S
C253 C252 1.404 . S
C253 C254 1.396 . S
C253 C264 1.492 . S
C254 C253 1.396 . S
C254 C255 1.397 . S
C254 C270 1.509 . S
C255 C254 1.397 . S
C255 C256 1.412 . S
C255 C276 1.485 . S
C256 C255 1.412 . S
C256 C257 1.388 . S
C256 C282 1.490 . S
C257 C252 1.397 . S
C257 C256 1.388 . S
C257 C288 1.519 . S
C258 C252 1.492 . S
C258 C259 1.363 . S
C258 C263 1.390 . S
C259 H224 0.930 . S
C259 C258 1.363 . S
C259 C260 1.372 . S
C260 H225 0.930 . S
C260 C259 1.372 . S
C260 C261 1.383 . S
C261 C260 1.383 . S
C261 C262 1.395 . S
C262 H226 0.930 . S
C262 C261 1.395 . S
C262 C263 1.362 . S
C263 H227 0.930 . S
C263 C258 1.390 . S
C263 C262 1.362 . S
C264 C253 1.492 . S
C264 C265 1.377 . S
C264 C269 1.397 . S
C265 H228 0.931 . S
C265 C264 1.377 . S
C265 C266 1.376 . S
C266 H229 0.930 . S
C266 C265 1.376 . S
C266 C267 1.376 . S
C267 C266 1.376 . S
C267 C268 1.378 . S
C267 C294 1.486 1_565 S
C268 H230 0.930 1_565 S
C268 C267 1.378 . S
C268 C269 1.376 . S
C269 H231 0.929 . S
C269 C264 1.397 . S
C269 C268 1.376 . S
C270 C254 1.509 . S
C270 C271 1.391 . S
C270 C275 1.386 . S
C271 H232 0.930 . S
C271 C270 1.391 . S
C271 C272 1.375 . S
C272 H233 0.931 . S
C272 C271 1.375 . S
C272 C273 1.375 . S
C273 C272 1.375 . S
C273 C274 1.361 . S
C274 H234 0.930 . S
C274 C273 1.361 . S
C274 C275 1.399 . S
C275 H235 0.929 . S
C275 C270 1.386 . S
C275 C274 1.399 . S
C276 C255 1.485 . S
C276 C277 1.394 . S
C276 C281 1.360 . S
C277 H236 0.931 . S
C277 C276 1.394 . S
C277 C278 1.372 . S
C278 H237 0.930 . S
C278 C277 1.372 . S
C278 C279 1.397 . S
C279 C278 1.397 . S
C279 C280 1.390 . S
C279 C295 1.476 . S
C280 H238 0.930 . S
C280 C279 1.390 . S
C280 C281 1.366 . S
C281 H239 0.932 . S
C281 C276 1.360 . S
C281 C280 1.366 . S
C282 C256 1.490 . S
C282 C283 1.380 . S
C282 C287 1.386 . S
C283 H240 0.930 . S
C283 C282 1.380 . S
C283 C284 1.381 . S
C284 H241 0.929 . S
C284 C283 1.381 . S
C284 C285 1.371 . S
C285 C284 1.371 . S
C285 C286 1.380 . S
C286 H242 0.931 . S
C286 C285 1.380 . S
C286 C287 1.387 . S
C287 H243 0.930 . S
C287 C282 1.386 . S
C287 C286 1.387 . S
C288 C257 1.519 . S
C288 C289 1.377 . S
C288 C293 1.361 . S
C289 H244 0.929 . S
C289 C288 1.377 . S
C289 C290 1.386 . S
C290 H245 0.931 . S
C290 C289 1.386 . S
C290 C291 1.363 . S
C291 C290 1.363 . S
C291 C292 1.385 . S
C292 H246 0.930 . S
C292 C291 1.385 . S
C292 C293 1.396 . S
C293 H247 0.929 . S
C293 C288 1.361 . S
C293 C292 1.396 . S
C294 O248 1.300 . S
C294 O249 1.209 . S
C294 C267 1.486 1_545 S
C295 O250 1.199 . S
C295 O251 1.297 . S
C295 C279 1.476 . S
H296 O322 0.856 1_545 S
H297 O325 0.854 . S
H298 C333 0.930 . S
H299 C334 0.930 . S
H300 C336 0.930 . S
H301 C337 0.930 . S
H302 C339 0.931 . S
H303 C340 0.930 . S
H304 C342 0.930 . S
H305 C343 0.929 . S
H306 C345 0.930 . S
H307 C346 0.931 . S
H308 C348 0.930 . S
H309 C349 0.929 . S
H310 C351 0.931 . S
H311 C352 0.930 . S
H312 C354 0.930 . S
H313 C355 0.932 . S
H314 C357 0.930 . S
H315 C358 0.929 . S
H316 C360 0.931 . S
H317 C361 0.930 . S
H318 C363 0.929 . S
H319 C364 0.931 . S
H320 C366 0.930 . S
H321 C367 0.929 . S
O322 H296 0.856 1_565 S
O322 C368 1.300 . S
O323 C368 1.209 1_545 S
O324 C369 1.199 . S
O325 H297 0.854 . S
O325 C369 1.297 . S
C326 C327 1.404 . S
C326 C331 1.397 . S
C326 C332 1.492 . S
C327 C326 1.404 . S
C327 C328 1.396 . S
C327 C338 1.492 . S
C328 C327 1.396 . S
C328 C329 1.397 . S
C328 C344 1.509 . S
C329 C328 1.397 . S
C329 C330 1.412 . S
C329 C350 1.485 . S
C330 C329 1.412 . S
C330 C331 1.388 . S
C330 C356 1.490 . S
C331 C326 1.397 . S
C331 C330 1.388 . S
C331 C362 1.519 . S
C332 C326 1.492 . S
C332 C333 1.363 . S
C332 C337 1.390 . S
C333 H298 0.930 . S
C333 C332 1.363 . S
C333 C334 1.372 . S
C334 H299 0.930 . S
C334 C333 1.372 . S
C334 C335 1.383 . S
C335 C334 1.383 . S
C335 C336 1.395 . S
C336 H300 0.930 . S
C336 C335 1.395 . S
C336 C337 1.362 . S
C337 H301 0.930 . S
C337 C332 1.390 . S
C337 C336 1.362 . S
C338 C327 1.492 . S
C338 C339 1.377 . S
C338 C343 1.397 . S
C339 H302 0.931 . S
C339 C338 1.377 . S
C339 C340 1.376 . S
C340 H303 0.930 . S
C340 C339 1.376 . S
C340 C341 1.376 . S
C341 C340 1.376 . S
C341 C342 1.378 . S
C341 C368 1.486 . S
C342 H304 0.930 . S
C342 C341 1.378 . S
C342 C343 1.376 . S
C343 H305 0.929 . S
C343 C338 1.397 . S
C343 C342 1.376 . S
C344 C328 1.509 . S
C344 C345 1.391 . S
C344 C349 1.386 . S
C345 H306 0.930 . S
C345 C344 1.391 . S
C345 C346 1.375 . S
C346 H307 0.931 . S
C346 C345 1.375 . S
C346 C347 1.375 1_565 S
C347 C346 1.375 1_545 S
C347 C348 1.361 . S
C348 H308 0.930 . S
C348 C347 1.361 . S
C348 C349 1.399 1_545 S
C349 H309 0.929 . S
C349 C344 1.386 . S
C349 C348 1.399 1_565 S
C350 C329 1.485 . S
C350 C351 1.394 . S
C350 C355 1.360 . S
C351 H310 0.931 . S
C351 C350 1.394 . S
C351 C352 1.372 . S
C352 H311 0.930 . S
C352 C351 1.372 . S
C352 C353 1.397 . S
C353 C352 1.397 . S
C353 C354 1.390 . S
C353 C369 1.476 . S
C354 H312 0.930 . S
C354 C353 1.390 . S
C354 C355 1.366 . S
C355 H313 0.932 . S
C355 C350 1.360 . S
C355 C354 1.366 . S
C356 C330 1.490 . S
C356 C357 1.380 . S
C356 C361 1.386 . S
C357 H314 0.930 . S
C357 C356 1.380 . S
C357 C358 1.381 . S
C358 H315 0.929 . S
C358 C357 1.381 . S
C358 C359 1.371 . S
C359 C358 1.371 . S
C359 C360 1.380 . S
C360 H316 0.931 . S
C360 C359 1.380 . S
C360 C361 1.387 . S
C361 H317 0.930 . S
C361 C356 1.386 . S
C361 C360 1.387 . S
C362 C331 1.519 . S
C362 C363 1.377 . S
C362 C367 1.361 . S
C363 H318 0.929 . S
C363 C362 1.377 . S
C363 C364 1.386 . S
C364 H319 0.931 . S
C364 C363 1.386 . S
C364 C365 1.363 . S
C365 C364 1.363 . S
C365 C366 1.385 . S
C366 H320 0.930 . S
C366 C365 1.385 . S
C366 C367 1.396 . S
C367 H321 0.929 . S
C367 C362 1.361 . S
C367 C366 1.396 . S
C368 O322 1.300 . S
C368 O323 1.209 1_565 S
C368 C341 1.486 . S
C369 O324 1.199 . S
C369 O325 1.297 . S
C369 C353 1.476 . S
H370 O396 0.856 . S
H371 O399 0.854 . S
H372 C407 0.930 . S
H373 C408 0.930 . S
H374 C410 0.930 . S
H375 C411 0.930 . S
H376 C413 0.931 . S
H377 C414 0.930 . S
H378 C416 0.930 . S
H379 C417 0.929 . S
H380 C419 0.930 . S
H381 C420 0.931 . S
H382 C422 0.930 . S
H383 C423 0.929 . S
H384 C425 0.931 . S
H385 C426 0.930 . S
H386 C428 0.930 . S
H387 C429 0.932 . S
H388 C431 0.930 . S
H389 C432 0.929 . S
H390 C434 0.931 . S
H391 C435 0.930 . S
H392 C437 0.929 . S
H393 C438 0.931 . S
H394 C440 0.930 . S
H395 C441 0.929 . S
O396 H370 0.856 . S
O396 C442 1.300 . S
O397 C442 1.209 . S
O398 C443 1.199 . S
O399 H371 0.854 . S
O399 C443 1.297 . S
C400 C401 1.404 . S
C400 C405 1.397 . S
C400 C406 1.492 . S
C401 C400 1.404 . S
C401 C402 1.396 . S
C401 C412 1.492 . S
C402 C401 1.396 . S
C402 C403 1.397 . S
C402 C418 1.509 . S
C403 C402 1.397 . S
C403 C404 1.412 . S
C403 C424 1.485 . S
C404 C403 1.412 . S
C404 C405 1.388 . S
C404 C430 1.490 . S
C405 C400 1.397 . S
C405 C404 1.388 . S
C405 C436 1.519 . S
C406 C400 1.492 . S
C406 C407 1.363 . S
C406 C411 1.390 . S
C407 H372 0.930 . S
C407 C406 1.363 . S
C407 C408 1.372 . S
C408 H373 0.930 . S
C408 C407 1.372 . S
C408 C409 1.383 . S
C409 C408 1.383 . S
C409 C410 1.395 . S
C410 H374 0.930 . S
C410 C409 1.395 . S
C410 C411 1.362 . S
C411 H375 0.930 . S
C411 C406 1.390 . S
C411 C410 1.362 . S
C412 C401 1.492 . S
C412 C413 1.377 . S
C412 C417 1.397 . S
C413 H376 0.931 . S
C413 C412 1.377 . S
C413 C414 1.376 . S
C414 H377 0.930 . S
C414 C413 1.376 . S
C414 C415 1.376 . S
C415 C414 1.376 . S
C415 C416 1.378 . S
C415 C442 1.486 . S
C416 H378 0.930 . S
C416 C415 1.378 . S
C416 C417 1.376 . S
C417 H379 0.929 . S
C417 C412 1.397 . S
C417 C416 1.376 . S
C418 C402 1.509 . S
C418 C419 1.391 . S
C418 C423 1.386 . S
C419 H380 0.930 . S
C419 C418 1.391 . S
C419 C420 1.375 . S
C420 H381 0.931 . S
C420 C419 1.375 . S
C420 C421 1.375 . S
C421 C420 1.375 . S
C421 C422 1.361 . S
C422 H382 0.930 . S
C422 C421 1.361 . S
C422 C423 1.399 . S
C423 H383 0.929 . S
C423 C418 1.386 . S
C423 C422 1.399 . S
C424 C403 1.485 . S
C424 C425 1.394 . S
C424 C429 1.360 . S
C425 H384 0.931 . S
C425 C424 1.394 . S
C425 C426 1.372 . S
C426 H385 0.930 . S
C426 C425 1.372 . S
C426 C427 1.397 . S
C427 C426 1.397 . S
C427 C428 1.390 . S
C427 C443 1.476 . S
C428 H386 0.930 . S
C428 C427 1.390 . S
C428 C429 1.366 . S
C429 H387 0.932 . S
C429 C424 1.360 . S
C429 C428 1.366 . S
C430 C404 1.490 . S
C430 C431 1.380 . S
C430 C435 1.386 . S
C431 H388 0.930 . S
C431 C430 1.380 . S
C431 C432 1.381 . S
C432 H389 0.929 . S
C432 C431 1.381 . S
C432 C433 1.371 . S
C433 C432 1.371 . S
C433 C434 1.380 . S
C434 H390 0.931 . S
C434 C433 1.380 . S
C434 C435 1.387 . S
C435 H391 0.930 . S
C435 C430 1.386 . S
C435 C434 1.387 . S
C436 C405 1.519 . S
C436 C437 1.377 . S
C436 C441 1.361 . S
C437 H392 0.929 . S
C437 C436 1.377 . S
C437 C438 1.386 . S
C438 H393 0.931 . S
C438 C437 1.386 . S
C438 C439 1.363 . S
C439 C438 1.363 . S
C439 C440 1.385 . S
C440 H394 0.930 . S
C440 C439 1.385 . S
C440 C441 1.396 . S
C441 H395 0.929 . S
C441 C436 1.361 . S
C441 C440 1.396 . S
C442 O396 1.300 . S
C442 O397 1.209 . S
C442 C415 1.486 . S
C443 O398 1.199 . S
C443 O399 1.297 . S
C443 C427 1.476 . S
H444 O470 0.856 . S
H445 O473 0.854 . S
H446 C481 0.930 . S
H447 C482 0.930 . S
H448 C484 0.930 . S
H449 C485 0.930 . S
H450 C487 0.931 . S
H451 C488 0.930 . S
H452 C490 0.930 . S
H453 C491 0.929 . S
H454 C493 0.930 . S
H455 C494 0.931 . S
H456 C496 0.930 . S
H457 C497 0.929 . S
H458 C499 0.931 . S
H459 C500 0.930 . S
H460 C502 0.930 . S
H461 C503 0.932 . S
H462 C505 0.930 . S
H463 C506 0.929 . S
H464 C508 0.931 . S
H465 C509 0.930 . S
H466 C511 0.929 . S
H467 C512 0.931 . S
H468 C514 0.930 . S
H469 C515 0.929 . S
O470 H444 0.856 . S
O470 C516 1.300 . S
O471 C516 1.209 . S
O472 C517 1.199 . S
O473 H445 0.854 . S
O473 C517 1.297 . S
C474 C475 1.404 . S
C474 C479 1.397 . S
C474 C480 1.492 . S
C475 C474 1.404 . S
C475 C476 1.396 . S
C475 C486 1.492 . S
C476 C475 1.396 . S
C476 C477 1.397 . S
C476 C492 1.509 . S
C477 C476 1.397 . S
C477 C478 1.412 . S
C477 C498 1.485 . S
C478 C477 1.412 . S
C478 C479 1.388 . S
C478 C504 1.490 . S
C479 C474 1.397 . S
C479 C478 1.388 . S
C479 C510 1.519 . S
C480 C474 1.492 . S
C480 C481 1.363 . S
C480 C485 1.390 . S
C481 H446 0.930 . S
C481 C480 1.363 . S
C481 C482 1.372 . S
C482 H447 0.930 . S
C482 C481 1.372 . S
C482 C483 1.383 . S
C483 C482 1.383 . S
C483 C484 1.395 . S
C484 H448 0.930 . S
C484 C483 1.395 . S
C484 C485 1.362 . S
C485 H449 0.930 . S
C485 C480 1.390 . S
C485 C484 1.362 . S
C486 C475 1.492 . S
C486 C487 1.377 . S
C486 C491 1.397 . S
C487 H450 0.931 . S
C487 C486 1.377 . S
C487 C488 1.376 . S
C488 H451 0.930 . S
C488 C487 1.376 . S
C488 C489 1.376 . S
C489 C488 1.376 . S
C489 C490 1.378 . S
C489 C516 1.486 . S
C490 H452 0.930 . S
C490 C489 1.378 . S
C490 C491 1.376 . S
C491 H453 0.929 . S
C491 C486 1.397 . S
C491 C490 1.376 . S
C492 C476 1.509 . S
C492 C493 1.391 . S
C492 C497 1.386 . S
C493 H454 0.930 . S
C493 C492 1.391 . S
C493 C494 1.375 . S
C494 H455 0.931 . S
C494 C493 1.375 . S
C494 C495 1.375 . S
C495 C494 1.375 . S
C495 C496 1.361 . S
C496 H456 0.930 . S
C496 C495 1.361 . S
C496 C497 1.399 . S
C497 H457 0.929 . S
C497 C492 1.386 . S
C497 C496 1.399 . S
C498 C477 1.485 . S
C498 C499 1.394 . S
C498 C503 1.360 . S
C499 H458 0.931 . S
C499 C498 1.394 . S
C499 C500 1.372 . S
C500 H459 0.930 . S
C500 C499 1.372 . S
C500 C501 1.397 . S
C501 C500 1.397 . S
C501 C502 1.390 . S
C501 C517 1.476 . S
C502 H460 0.930 . S
C502 C501 1.390 . S
C502 C503 1.366 . S
C503 H461 0.932 . S
C503 C498 1.360 . S
C503 C502 1.366 . S
C504 C478 1.490 . S
C504 C505 1.380 . S
C504 C509 1.386 . S
C505 H462 0.930 . S
C505 C504 1.380 . S
C505 C506 1.381 . S
C506 H463 0.929 . S
C506 C505 1.381 . S
C506 C507 1.371 . S
C507 C506 1.371 . S
C507 C508 1.380 . S
C508 H464 0.931 . S
C508 C507 1.380 . S
C508 C509 1.387 . S
C509 H465 0.930 . S
C509 C504 1.386 . S
C509 C508 1.387 . S
C510 C479 1.519 . S
C510 C511 1.377 . S
C510 C515 1.361 . S
C511 H466 0.929 . S
C511 C510 1.377 . S
C511 C512 1.386 . S
C512 H467 0.931 . S
C512 C511 1.386 . S
C512 C513 1.363 . S
C513 C512 1.363 . S
C513 C514 1.385 . S
C514 H468 0.930 . S
C514 C513 1.385 . S
C514 C515 1.396 . S
C515 H469 0.929 . S
C515 C510 1.361 . S
C515 C514 1.396 . S
C516 O470 1.300 . S
C516 O471 1.209 . S
C516 C489 1.486 . S
C517 O472 1.199 . S
C517 O473 1.297 . S
C517 C501 1.476 . S
H518 O544 0.856 . S
H519 O547 0.854 1_554 S
H520 C555 0.930 . S
H521 C556 0.930 . S
H522 C558 0.930 . S
H523 C559 0.930 . S
H524 C561 0.931 . S
H525 C562 0.930 . S
H526 C564 0.930 . S
H527 C565 0.929 . S
H528 C567 0.930 . S
H529 C568 0.931 . S
H530 C570 0.930 . S
H531 C571 0.929 . S
H532 C573 0.931 . S
H533 C574 0.939 . S
H534 C576 0.930 . S
H535 C577 0.932 . S
H536 C579 0.930 . S
H537 C580 0.929 . S
H538 C582 0.931 . S
H539 C583 0.930 . S
H540 C585 0.929 . S
H541 C586 0.931 . S
H542 C588 0.930 . S
H543 C589 0.929 . S
O544 H518 0.856 . S
O544 C590 1.300 . S
O545 C590 1.209 . S
O546 C591 1.199 . S
O547 H519 0.854 1_556 S
O547 C591 1.297 1_556 S
C548 C549 1.404 . S
C548 C553 1.397 . S
C548 C554 1.492 . S
C549 C548 1.404 . S
C549 C550 1.396 . S
C549 C560 1.492 . S
C550 C549 1.396 . S
C550 C551 1.397 . S
C550 C566 1.509 . S
C551 C550 1.397 . S
C551 C552 1.412 . S
C551 C572 1.485 . S
C552 C551 1.412 . S
C552 C553 1.388 . S
C552 C578 1.490 . S
C553 C548 1.397 . S
C553 C552 1.388 . S
C553 C584 1.519 . S
C554 C548 1.492 . S
C554 C555 1.363 . S
C554 C559 1.390 . S
C555 H520 0.930 . S
C555 C554 1.363 . S
C555 C556 1.372 . S
C556 H521 0.930 . S
C556 C555 1.372 . S
C556 C557 1.383 . S
C557 C556 1.383 . S
C557 C558 1.395 . S
C558 H522 0.930 . S
C558 C557 1.395 . S
C558 C559 1.362 . S
C559 H523 0.930 . S
C559 C554 1.390 . S
C559 C558 1.362 . S
C560 C549 1.492 . S
C560 C561 1.377 . S
C560 C565 1.397 . S
C561 H524 0.931 . S
C561 C560 1.377 . S
C561 C562 1.376 . S
C562 H525 0.930 . S
C562 C561 1.376 . S
C562 C563 1.376 . S
C563 C562 1.376 . S
C563 C564 1.378 . S
C563 C590 1.486 . S
C564 H526 0.930 . S
C564 C563 1.378 . S
C564 C565 1.376 . S
C565 H527 0.929 . S
C565 C560 1.397 . S
C565 C564 1.376 . S
C566 C550 1.509 . S
C566 C567 1.391 . S
C566 C571 1.386 . S
C567 H528 0.930 . S
C567 C566 1.391 . S
C567 C568 1.375 . S
C568 H529 0.931 . S
C568 C567 1.375 . S
C568 C569 1.375 . S
C569 C568 1.375 . S
C569 C570 1.361 . S
C570 H530 0.930 . S
C570 C569 1.361 . S
C570 C571 1.399 . S
C571 H531 0.929 . S
C571 C566 1.386 . S
C571 C570 1.399 . S
C572 C551 1.485 . S
C572 C573 1.394 . S
C572 C577 1.360 . S
C573 H532 0.931 . S
C573 C572 1.394 . S
C573 C574 1.372 . S
C574 H533 0.939 . S
C574 C573 1.372 . S
C574 C575 1.397 . S
C575 C574 1.397 . S
C575 C576 1.390 . S
C575 C591 1.476 1_556 S
C576 H534 0.930 . S
C576 C575 1.390 . S
C576 C577 1.366 . S
C577 H535 0.932 . S
C577 C572 1.360 . S
C577 C576 1.366 . S
C578 C552 1.490 . S
C578 C579 1.380 . S
C578 C583 1.386 . S
C579 H536 0.930 . S
C579 C578 1.380 . S
C579 C580 1.381 . S
C580 H537 0.929 . S
C580 C579 1.381 . S
C580 C581 1.371 . S
C581 C580 1.371 . S
C581 C582 1.380 . S
C582 H538 0.931 . S
C582 C581 1.380 . S
C582 C583 1.387 . S
C583 H539 0.930 . S
C583 C578 1.386 . S
C583 C582 1.387 . S
C584 C553 1.519 . S
C584 C585 1.377 . S
C584 C589 1.361 . S
C585 H540 0.929 . S
C585 C584 1.377 . S
C585 C586 1.386 . S
C586 H541 0.931 . S
C586 C585 1.386 . S
C586 C587 1.363 . S
C587 C586 1.363 . S
C587 C588 1.385 . S
C588 H542 0.930 . S
C588 C587 1.385 . S
C588 C589 1.396 . S
C589 H543 0.929 . S
C589 C584 1.361 . S
C589 C588 1.396 . S
C590 O544 1.300 . S
C590 O545 1.209 . S
C590 C563 1.486 . S
C591 O546 1.199 . S
C591 O547 1.297 1_554 S
C591 C575 1.476 1_554 S
C592 C593 1.443 . S
C592 N596 1.376 . S
C592 C630 1.389 . S
C593 C592 1.443 . S
C593 C594 1.340 . S
C593 H633 0.951 . S
C594 C593 1.340 . S
C594 C595 1.439 . S
C594 H634 0.950 . S
C595 C594 1.439 . S
C595 N596 1.374 . S
C595 C629 1.395 1_455 S
N596 C592 1.376 . S
N596 C595 1.374 . S
N596 Co597 2.008 . S
Co597 N596 2.008 . S
Co597 N598 1.995 1_455 S
Co597 N603 2.008 1_455 S
Co597 N608 1.995 . S
Co597 N613 2.282 1_455 S
Co597 N619 2.282 . S
N598 Co597 1.995 1_655 S
N598 C599 1.376 . S
N598 C602 1.383 . S
C599 N598 1.376 . S
C599 C600 1.446 . S
C599 C629 1.391 . S
C600 C599 1.446 . S
C600 C601 1.339 . S
C600 H635 0.949 . S
C601 C600 1.339 . S
C601 C602 1.439 . S
C601 H636 0.950 . S
C602 N598 1.383 . S
C602 C601 1.439 . S
C602 C631 1.392 . S
N603 Co597 2.008 1_655 S
N603 C604 1.376 . S
N603 C607 1.374 . S
C604 N603 1.376 . S
C604 C605 1.443 . S
C604 C631 1.389 . S
C605 C604 1.443 . S
C605 C606 1.340 . S
C605 H637 0.951 . S
C606 C605 1.340 . S
C606 C607 1.439 . S
C606 H638 0.950 . S
C607 N603 1.374 . S
C607 C606 1.439 . S
C607 C632 1.395 1_655 S
N608 Co597 1.995 . S
N608 C609 1.376 . S
N608 C612 1.383 . S
C609 N608 1.376 . S
C609 C610 1.446 . S
C609 C632 1.391 . S
C610 C609 1.446 . S
C610 C611 1.339 . S
C610 H639 0.949 . S
C611 C610 1.339 . S
C611 C612 1.439 . S
C611 H640 0.950 . S
C612 N608 1.383 . S
C612 C611 1.439 . S
C612 C630 1.392 . S
N613 Co597 2.282 1_655 S
N613 C616 1.332 . S
N613 C618 1.332 . S
C614 C615 1.386 . S
C614 C617 1.388 . S
C615 C614 1.386 . S
C615 C616 1.382 . S
C615 H641 0.950 . S
C616 N613 1.332 . S
C616 C615 1.382 . S
C616 H627 0.952 . S
C617 C614 1.388 . S
C617 C618 1.382 . S
C617 H642 0.950 . S
C618 N613 1.332 . S
C618 C617 1.382 . S
C618 H628 0.948 . S
N619 Co597 2.282 . S
N619 C623 1.332 . S
N619 C624 1.332 . S
C620 C621 1.388 . S
C620 C624 1.382 . S
C620 H643 0.950 . S
C621 C620 1.388 . S
C621 C622 1.386 . S
C622 C621 1.386 . S
C622 C623 1.382 . S
C622 H644 0.950 . S
C623 N619 1.332 . S
C623 C622 1.382 . S
C623 H625 0.952 . S
C624 N619 1.332 . S
C624 C620 1.382 . S
C624 H626 0.948 . S
H625 C623 0.952 . S
H626 C624 0.948 . S
H627 C616 0.952 . S
H628 C618 0.948 . S
C629 C595 1.395 1_655 S
C629 C599 1.391 . S
C630 C592 1.389 . S
C630 C612 1.392 . S
C631 C602 1.392 . S
C631 C604 1.389 . S
C632 C607 1.395 1_455 S
C632 C609 1.391 . S
H633 C593 0.951 . S
H634 C594 0.950 . S
H635 C600 0.949 . S
H636 C601 0.950 . S
H637 C605 0.951 . S
H638 C606 0.950 . S
H639 C610 0.949 . S
H640 C611 0.950 . S
H641 C615 0.950 . S
H642 C617 0.950 . S
H643 C620 0.950 . S
H644 C622 0.950 . S
C645 C646 1.443 . S
C645 N649 1.376 . S
C645 C683 1.389 . S
C646 C645 1.443 . S
C646 C647 1.340 . S
C646 H686 0.951 . S
C647 C646 1.340 . S
C647 C648 1.439 . S
C647 H687 0.950 . S
C648 C647 1.439 . S
C648 N649 1.374 . S
C648 C682 1.395 . S
N649 C645 1.376 . S
N649 C648 1.374 . S
N649 Co650 2.008 . S
Co650 N649 2.008 . S
Co650 N651 1.995 1_545 S
Co650 N656 2.008 1_545 S
Co650 N661 1.995 . S
Co650 N666 2.282 1_545 S
Co650 N672 2.282 . S
N651 Co650 1.995 1_565 S
N651 C652 1.376 . S
N651 C655 1.383 . S
C652 N651 1.376 . S
C652 C653 1.446 . S
C652 C682 1.391 1_565 S
C653 C652 1.446 . S
C653 C654 1.339 . S
C653 H688 0.949 . S
C654 C653 1.339 . S
C654 C655 1.439 . S
C654 H689 0.950 . S
C655 N651 1.383 . S
C655 C654 1.439 . S
C655 C684 1.392 . S
N656 Co650 2.008 1_565 S
N656 C657 1.376 . S
N656 C660 1.374 . S
C657 N656 1.376 . S
C657 C658 1.443 . S
C657 C684 1.389 . S
C658 C657 1.443 . S
C658 C659 1.340 . S
C658 H690 0.951 . S
C659 C658 1.340 . S
C659 C660 1.439 . S
C659 H691 0.950 . S
C660 N656 1.374 . S
C660 C659 1.439 . S
C660 C685 1.395 1_565 S
N661 Co650 1.995 . S
N661 C662 1.376 . S
N661 C665 1.383 . S
C662 N661 1.376 . S
C662 C663 1.446 . S
C662 C685 1.391 . S
C663 C662 1.446 . S
C663 C664 1.339 . S
C663 H692 0.949 . S
C664 C663 1.339 . S
C664 C665 1.439 . S
C664 H693 0.950 . S
C665 N661 1.383 . S
C665 C664 1.439 . S
C665 C683 1.392 . S
N666 Co650 2.282 1_565 S
N666 C669 1.332 . S
N666 C671 1.332 . S
C667 C668 1.386 . S
C667 C670 1.388 . S
C668 C667 1.386 . S
C668 C669 1.382 . S
C668 H694 0.950 . S
C669 N666 1.332 . S
C669 C668 1.382 . S
C669 H680 0.952 . S
C670 C667 1.388 . S
C670 C671 1.382 . S
C670 H695 0.950 . S
C671 N666 1.332 . S
C671 C670 1.382 . S
C671 H681 0.948 . S
N672 Co650 2.282 . S
N672 C676 1.332 . S
N672 C677 1.332 . S
C673 C674 1.388 . S
C673 C677 1.382 . S
C673 H696 0.950 . S
C674 C673 1.388 . S
C674 C675 1.386 . S
C675 C674 1.386 . S
C675 C676 1.382 . S
C675 H697 0.950 . S
C676 N672 1.332 . S
C676 C675 1.382 . S
C676 H678 0.952 . S
C677 N672 1.332 . S
C677 C673 1.382 . S
C677 H679 0.948 . S
H678 C676 0.952 . S
H679 C677 0.948 . S
H680 C669 0.952 . S
H681 C671 0.948 . S
C682 C648 1.395 . S
C682 C652 1.391 1_545 S
C683 C645 1.389 . S
C683 C665 1.392 . S
C684 C655 1.392 . S
C684 C657 1.389 . S
C685 C660 1.395 1_545 S
C685 C662 1.391 . S
H686 C646 0.951 . S
H687 C647 0.950 . S
H688 C653 0.949 . S
H689 C654 0.950 . S
H690 C658 0.951 . S
H691 C659 0.950 . S
H692 C663 0.949 . S
H693 C664 0.950 . S
H694 C668 0.950 . S
H695 C670 0.950 . S
H696 C673 0.950 . S
H697 C675 0.950 . S
C698 C699 1.443 . S
C698 N702 1.376 . S
C698 C736 1.389 . S
C699 C698 1.443 . S
C699 C700 1.340 . S
C699 H739 0.951 . S
C700 C699 1.340 . S
C700 C701 1.439 . S
C700 H740 0.950 . S
C701 C700 1.439 . S
C701 N702 1.374 . S
C701 C735 1.395 . S
N702 C698 1.376 . S
N702 C701 1.374 . S
N702 Co703 2.008 . S
Co703 N702 2.008 . S
Co703 N704 1.995 . S
Co703 N709 2.008 . S
Co703 N714 1.995 . S
Co703 N719 2.282 . S
Co703 N725 2.282 . S
N704 Co703 1.995 . S
N704 C705 1.376 . S
N704 C708 1.383 1_455 S
C705 N704 1.376 . S
C705 C706 1.446 1_455 S
C705 C735 1.391 . S
C706 C705 1.446 1_655 S
C706 C707 1.339 . S
C706 H741 0.949 . S
C707 C706 1.339 . S
C707 C708 1.439 . S
C707 H742 0.950 . S
C708 N704 1.383 1_655 S
C708 C707 1.439 . S
C708 C737 1.392 . S
N709 Co703 2.008 . S
N709 C710 1.376 1_455 S
N709 C713 1.374 . S
C710 N709 1.376 1_655 S
C710 C711 1.443 . S
C710 C737 1.389 . S
C711 C710 1.443 . S
C711 C712 1.340 . S
C711 H743 0.951 . S
C712 C711 1.340 . S
C712 C713 1.439 1_655 S
C712 H744 0.950 . S
C713 N709 1.374 . S
C713 C712 1.439 1_455 S
C713 C738 1.395 . S
N714 Co703 1.995 . S
N714 C715 1.376 . S
N714 C718 1.383 . S
C715 N714 1.376 . S
C715 C716 1.446 . S
C715 C738 1.391 . S
C716 C715 1.446 . S
C716 C717 1.339 . S
C716 H745 0.949 . S
C717 C716 1.339 . S
C717 C718 1.439 . S
C717 H746 0.950 . S
C718 N714 1.383 . S
C718 C717 1.439 . S
C718 C736 1.392 . S
N719 Co703 2.282 . S
N719 C722 1.332 . S
N719 C724 1.332 1_455 S
C720 C721 1.386 . S
C720 C723 1.388 . S
C721 C720 1.386 . S
C721 C722 1.382 1_655 S
C721 H747 0.950 . S
C722 N719 1.332 . S
C722 C721 1.382 1_455 S
C722 H733 0.952 . S
C723 C720 1.388 . S
C723 C724 1.382 . S
C723 H748 0.950 . S
C724 N719 1.332 1_655 S
C724 C723 1.382 . S
C724 H734 0.948 . S
N725 Co703 2.282 . S
N725 C729 1.332 . S
N725 C730 1.332 . S
C726 C727 1.388 . S
C726 C730 1.382 . S
C726 H749 0.950 . S
C727 C726 1.388 . S
C727 C728 1.386 . S
C728 C727 1.386 . S
C728 C729 1.382 . S
C728 H750 0.950 . S
C729 N725 1.332 . S
C729 C728 1.382 . S
C729 H731 0.952 . S
C730 N725 1.332 . S
C730 C726 1.382 . S
C730 H732 0.948 . S
H731 C729 0.952 . S
H732 C730 0.948 . S
H733 C722 0.952 . S
H734 C724 0.948 . S
C735 C701 1.395 . S
C735 C705 1.391 . S
C736 C698 1.389 . S
C736 C718 1.392 . S
C737 C708 1.392 . S
C737 C710 1.389 . S
C738 C713 1.395 . S
C738 C715 1.391 . S
H739 C699 0.951 . S
H740 C700 0.950 . S
H741 C706 0.949 . S
H742 C707 0.950 . S
H743 C711 0.951 . S
H744 C712 0.950 . S
H745 C716 0.949 . S
H746 C717 0.950 . S
H747 C721 0.950 . S
H748 C723 0.950 . S
H749 C726 0.950 . S
H750 C728 0.950 . S
C751 C752 1.443 . S
C751 N755 1.376 . S
C751 C789 1.389 . S
C752 C751 1.443 . S
C752 C753 1.340 . S
C752 H792 0.951 . S
C753 C752 1.340 . S
C753 C754 1.439 . S
C753 H793 0.950 . S
C754 C753 1.439 . S
C754 N755 1.374 . S
C754 C788 1.395 . S
N755 C751 1.376 . S
N755 C754 1.374 . S
N755 Co756 2.008 . S
Co756 N755 2.008 . S
Co756 N757 1.995 . S
Co756 N762 2.008 . S
Co756 N767 1.995 . S
Co756 N772 2.282 . S
Co756 N778 2.282 . S
N757 Co756 1.995 . S
N757 C758 1.376 . S
N757 C761 1.383 . S
C758 N757 1.376 . S
C758 C759 1.446 . S
C758 C788 1.391 . S
C759 C758 1.446 . S
C759 C760 1.339 . S
C759 H794 0.949 . S
C760 C759 1.339 . S
C760 C761 1.439 . S
C760 H795 0.950 . S
C761 N757 1.383 . S
C761 C760 1.439 . S
C761 C790 1.392 . S
N762 Co756 2.008 . S
N762 C763 1.376 . S
N762 C766 1.374 . S
C763 N762 1.376 . S
C763 C764 1.443 . S
C763 C790 1.389 . S
C764 C763 1.443 . S
C764 C765 1.340 . S
C764 H796 0.951 . S
C765 C764 1.340 . S
C765 C766 1.439 . S
C765 H797 0.950 . S
C766 N762 1.374 . S
C766 C765 1.439 . S
C766 C791 1.395 . S
N767 Co756 1.995 . S
N767 C768 1.376 . S
N767 C771 1.383 . S
C768 N767 1.376 . S
C768 C769 1.446 . S
C768 C791 1.391 . S
C769 C768 1.446 . S
C769 C770 1.339 . S
C769 H798 0.949 . S
C770 C769 1.339 . S
C770 C771 1.439 . S
C770 H799 0.950 . S
C771 N767 1.383 . S
C771 C770 1.439 . S
C771 C789 1.392 . S
N772 Co756 2.282 . S
N772 C775 1.332 . S
N772 C777 1.332 . S
C773 C774 1.386 . S
C773 C776 1.388 . S
C774 C773 1.386 . S
C774 C775 1.382 . S
C774 H800 0.950 . S
C775 N772 1.332 . S
C775 C774 1.382 . S
C775 H786 0.952 . S
C776 C773 1.388 . S
C776 C777 1.382 . S
C776 H801 0.950 . S
C777 N772 1.332 . S
C777 C776 1.382 . S
C777 H787 0.948 . S
N778 Co756 2.282 . S
N778 C782 1.332 . S
N778 C783 1.332 . S
C779 C780 1.388 . S
C779 C783 1.382 . S
C779 H802 0.950 . S
C780 C779 1.388 . S
C780 C781 1.386 . S
C781 C780 1.386 . S
C781 C782 1.382 . S
C781 H803 0.950 . S
C782 N778 1.332 . S
C782 C781 1.382 . S
C782 H784 0.952 . S
C783 N778 1.332 . S
C783 C779 1.382 . S
C783 H785 0.948 . S
H784 C782 0.952 . S
H785 C783 0.948 . S
H786 C775 0.952 . S
H787 C777 0.948 . S
C788 C754 1.395 . S
C788 C758 1.391 . S
C789 C751 1.389 . S
C789 C771 1.392 . S
C790 C761 1.392 . S
C790 C763 1.389 . S
C791 C766 1.395 . S
C791 C768 1.391 . S
H792 C752 0.951 . S
H793 C753 0.950 . S
H794 C759 0.949 . S
H795 C760 0.950 . S
H796 C764 0.951 . S
H797 C765 0.950 . S
H798 C769 0.949 . S
H799 C770 0.950 . S
H800 C774 0.950 . S
H801 C776 0.950 . S
H802 C779 0.950 . S
H803 C781 0.950 . S
C804 C805 1.443 . S
C804 N808 1.376 . S
C804 C842 1.389 . S
C805 C804 1.443 . S
C805 C806 1.340 . S
C805 H845 0.951 . S
C806 C805 1.340 . S
C806 C807 1.439 . S
C806 H846 0.950 . S
C807 C806 1.439 . S
C807 N808 1.374 . S
C807 C841 1.395 . S
N808 C804 1.376 . S
N808 C807 1.374 . S
N808 Co809 2.008 . S
Co809 N808 2.008 . S
Co809 N810 1.995 1_554 S
Co809 N815 2.008 1_554 S
Co809 N820 1.995 . S
Co809 N825 2.282 . S
Co809 N831 2.282 1_554 S
N810 Co809 1.995 1_556 S
N810 C811 1.376 . S
N810 C814 1.383 . S
C811 N810 1.376 . S
C811 C812 1.446 . S
C811 C841 1.391 1_556 S
C812 C811 1.446 . S
C812 C813 1.339 . S
C812 H847 0.949 . S
C813 C812 1.339 . S
C813 C814 1.439 . S
C813 H848 0.950 . S
C814 N810 1.383 . S
C814 C813 1.439 . S
C814 C843 1.392 . S
N815 Co809 2.008 1_556 S
N815 C816 1.376 . S
N815 C819 1.374 . S
C816 N815 1.376 . S
C816 C817 1.443 . S
C816 C843 1.389 . S
C817 C816 1.443 . S
C817 C818 1.340 . S
C817 H849 0.951 . S
C818 C817 1.340 . S
C818 C819 1.439 . S
C818 H850 0.950 . S
C819 N815 1.374 . S
C819 C818 1.439 . S
C819 C844 1.395 . S
N820 Co809 1.995 . S
N820 C821 1.376 . S
N820 C824 1.383 . S
C821 N820 1.376 . S
C821 C822 1.446 . S
C821 C844 1.391 1_554 S
C822 C821 1.446 . S
C822 C823 1.339 . S
C822 H851 0.949 . S
C823 C822 1.339 . S
C823 C824 1.439 . S
C823 H852 0.950 . S
C824 N820 1.383 . S
C824 C823 1.439 . S
C824 C842 1.392 . S
N825 Co809 2.282 . S
N825 C828 1.332 . S
N825 C830 1.332 . S
C826 C827 1.386 . S
C826 C829 1.388 . S
C827 C826 1.386 . S
C827 C828 1.382 . S
C827 H853 0.950 . S
C828 N825 1.332 . S
C828 C827 1.382 . S
C828 H839 0.952 . S
C829 C826 1.388 . S
C829 C830 1.382 . S
C829 H854 0.950 . S
C830 N825 1.332 . S
C830 C829 1.382 . S
C830 H840 0.948 . S
N831 Co809 2.282 1_556 S
N831 C835 1.332 . S
N831 C836 1.332 . S
C832 C833 1.388 . S
C832 C836 1.382 . S
C832 H855 0.950 . S
C833 C832 1.388 . S
C833 C834 1.386 . S
C834 C833 1.386 . S
C834 C835 1.382 . S
C834 H856 0.950 . S
C835 N831 1.332 . S
C835 C834 1.382 . S
C835 H837 0.952 . S
C836 N831 1.332 . S
C836 C832 1.382 . S
C836 H838 0.948 . S
H837 C835 0.952 . S
H838 C836 0.948 . S
H839 C828 0.952 . S
H840 C830 0.948 . S
C841 C807 1.395 . S
C841 C811 1.391 1_554 S
C842 C804 1.389 . S
C842 C824 1.392 . S
C843 C814 1.392 . S
C843 C816 1.389 . S
C844 C819 1.395 . S
C844 C821 1.391 1_556 S
H845 C805 0.951 . S
H846 C806 0.950 . S
H847 C812 0.949 . S
H848 C813 0.950 . S
H849 C817 0.951 . S
H850 C818 0.950 . S
H851 C822 0.949 . S
H852 C823 0.950 . S
H853 C827 0.950 . S
H854 C829 0.950 . S
H855 C832 0.950 . S
H856 C834 0.950 . S
C857 C858 1.443 . S
C857 N861 1.376 . S
C857 C895 1.389 . S
C858 C857 1.443 . S
C858 C859 1.340 . S
C858 H898 0.951 . S
C859 C858 1.340 . S
C859 C860 1.439 . S
C859 H899 0.950 . S
C860 C859 1.439 . S
C860 N861 1.374 . S
C860 C894 1.395 1_554 S
N861 C857 1.376 . S
N861 C860 1.374 . S
N861 Co862 2.008 . S
Co862 N861 2.008 . S
Co862 N863 1.995 1_554 S
Co862 N868 2.005 1_554 S
Co862 N873 1.995 . S
Co862 N878 2.282 . S
Co862 N884 2.282 1_554 S
N863 Co862 1.995 1_556 S
N863 C864 1.376 . S
N863 C867 1.383 . S
C864 N863 1.376 . S
C864 C865 1.446 . S
C864 C894 1.391 . S
C865 C864 1.446 . S
C865 C866 1.339 . S
C865 H900 0.949 . S
C866 C865 1.339 . S
C866 C867 1.439 . S
C866 H901 0.950 . S
C867 N863 1.383 . S
C867 C866 1.439 . S
C867 C896 1.392 . S
N868 Co862 2.005 1_556 S
N868 C869 1.384 . S
N868 C872 1.369 1_556 S
C869 N868 1.384 . S
C869 C870 1.443 . S
C869 C896 1.389 . S
C870 C869 1.443 . S
C870 C871 1.340 1_556 S
C870 H902 0.951 . S
C871 C870 1.340 1_554 S
C871 C872 1.439 . S
C871 H903 0.950 . S
C872 N868 1.369 1_554 S
C872 C871 1.439 . S
C872 C897 1.395 . S
N873 Co862 1.995 . S
N873 C874 1.376 . S
N873 C877 1.383 . S
C874 N873 1.376 . S
C874 C875 1.446 . S
C874 C897 1.391 . S
C875 C874 1.446 . S
C875 C876 1.339 . S
C875 H904 0.949 . S
C876 C875 1.339 . S
C876 C877 1.439 . S
C876 H905 0.950 . S
C877 N873 1.383 . S
C877 C876 1.439 . S
C877 C895 1.392 . S
N878 Co862 2.282 . S
N878 C881 1.332 . S
N878 C883 1.332 . S
C879 C880 1.386 . S
C879 C882 1.388 . S
C880 C879 1.386 . S
C880 C881 1.382 . S
C880 H906 0.950 . S
C881 N878 1.332 . S
C881 C880 1.382 . S
C881 H892 0.952 . S
C882 C879 1.388 . S
C882 C883 1.382 . S
C882 H907 0.950 . S
C883 N878 1.332 . S
C883 C882 1.382 . S
C883 H893 0.948 . S
N884 Co862 2.282 1_556 S
N884 C888 1.332 . S
N884 C889 1.332 . S
C885 C886 1.388 . S
C885 C889 1.382 . S
C885 H908 0.950 . S
C886 C885 1.388 . S
C886 C887 1.386 . S
C887 C886 1.386 . S
C887 C888 1.382 . S
C887 H909 0.950 . S
C888 N884 1.332 . S
C888 C887 1.382 . S
C888 H890 0.952 . S
C889 N884 1.332 . S
C889 C885 1.382 . S
C889 H891 0.948 . S
H890 C888 0.952 . S
H891 C889 0.948 . S
H892 C881 0.952 . S
H893 C883 0.948 . S
C894 C860 1.395 1_556 S
C894 C864 1.391 . S
C895 C857 1.389 . S
C895 C877 1.392 . S
C896 C867 1.392 . S
C896 C869 1.389 . S
C897 C872 1.395 . S
C897 C874 1.391 . S
H898 C858 0.951 . S
H899 C859 0.950 . S
H900 C865 0.949 . S
H901 C866 0.950 . S
H902 C870 0.951 . S
H903 C871 0.950 . S
H904 C875 0.949 . S
H905 C876 0.950 . S
H906 C880 0.950 . S
H907 C882 0.950 . S
H908 C885 0.950 . S
H909 C887 0.950 . S
C910 C911 1.443 . S
C910 N914 1.376 . S
C910 C948 1.389 1_554 S
C911 C910 1.443 . S
C911 C912 1.340 . S
C911 H951 0.951 1_554 S
C912 C911 1.340 . S
C912 C913 1.439 . S
C912 H952 0.950 . S
C913 C912 1.439 . S
C913 N914 1.374 . S
C913 C947 1.395 . S
N914 C910 1.376 . S
N914 C913 1.374 . S
N914 Co915 2.008 . S
Co915 N914 2.008 . S
Co915 N916 1.995 . S
Co915 N921 2.008 . S
Co915 N926 1.995 . S
Co915 N931 2.282 . S
Co915 N937 2.282 . S
N916 Co915 1.995 . S
N916 C917 1.376 . S
N916 C920 1.383 . S
C917 N916 1.376 . S
C917 C918 1.446 . S
C917 C947 1.391 . S
C918 C917 1.446 . S
C918 C919 1.339 . S
C918 H953 0.949 . S
C919 C918 1.339 . S
C919 C920 1.439 . S
C919 H954 0.950 . S
C920 N916 1.383 . S
C920 C919 1.439 . S
C920 C949 1.392 . S
N921 Co915 2.008 . S
N921 C922 1.376 . S
N921 C925 1.374 . S
C922 N921 1.376 . S
C922 C923 1.443 . S
C922 C949 1.389 . S
C923 C922 1.443 . S
C923 C924 1.340 . S
C923 H955 0.951 . S
C924 C923 1.340 . S
C924 C925 1.439 . S
C924 H956 0.950 . S
C925 N921 1.374 . S
C925 C924 1.439 . S
C925 C950 1.395 . S
N926 Co915 1.995 . S
N926 C927 1.376 . S
N926 C930 1.383 1_554 S
C927 N926 1.376 . S
C927 C928 1.446 1_554 S
C927 C950 1.391 . S
C928 C927 1.446 1_556 S
C928 C929 1.339 . S
C928 H957 0.949 . S
C929 C928 1.339 . S
C929 C930 1.439 . S
C929 H958 0.950 . S
C930 N926 1.383 1_556 S
C930 C929 1.439 . S
C930 C948 1.392 . S
N931 Co915 2.282 . S
N931 C934 1.332 1_554 S
N931 C936 1.332 . S
C932 C933 1.386 . S
C932 C935 1.388 1_556 S
C933 C932 1.386 . S
C933 C934 1.382 . S
C933 H959 0.950 . S
C934 N931 1.332 1_556 S
C934 C933 1.382 . S
C934 H945 0.952 . S
C935 C932 1.388 1_554 S
C935 C936 1.382 . S
C935 H960 0.950 . S
C936 N931 1.332 . S
C936 C935 1.382 . S
C936 H946 0.948 . S
N937 Co915 2.282 . S
N937 C941 1.332 . S
N937 C942 1.332 . S
C938 C939 1.388 . S
C938 C942 1.382 . S
C938 H961 0.950 . S
C939 C938 1.388 . S
C939 C940 1.386 . S
C940 C939 1.386 . S
C940 C941 1.382 . S
C940 H962 0.950 . S
C941 N937 1.332 . S
C941 C940 1.382 . S
C941 H943 0.952 . S
C942 N937 1.332 . S
C942 C938 1.382 . S
C942 H944 0.948 . S
H943 C941 0.952 . S
H944 C942 0.948 . S
H945 C934 0.952 . S
H946 C936 0.948 . S
C947 C913 1.395 . S
C947 C917 1.391 . S
C948 C910 1.389 1_556 S
C948 C930 1.392 . S
C949 C920 1.392 . S
C949 C922 1.389 . S
C950 C925 1.395 . S
C950 C927 1.391 . S
H951 C911 0.951 1_556 S
H952 C912 0.950 . S
H953 C918 0.949 . S
H954 C919 0.950 . S
H955 C923 0.951 . S
H956 C924 0.950 . S
H957 C928 0.949 . S
H958 C929 0.950 . S
H959 C933 0.950 . S
H960 C935 0.950 . S
H961 C938 0.950 . S
H962 C940 0.950 . S
C963 C964 1.443 . S
C963 N967 1.376 . S
C963 C1001 1.389 . S
C964 C963 1.443 . S
C964 C965 1.340 . S
C964 H1004 0.951 . S
C965 C964 1.340 . S
C965 C966 1.439 . S
C965 H1005 0.950 . S
C966 C965 1.439 . S
C966 N967 1.374 . S
C966 C1000 1.395 . S
N967 C963 1.376 . S
N967 C966 1.374 . S
N967 Co968 2.008 . S
Co968 N967 2.008 . S
Co968 N969 1.995 . S
Co968 N974 2.008 . S
Co968 N979 1.995 . S
Co968 N984 2.282 . S
Co968 N990 2.282 . S
N969 Co968 1.995 . S
N969 C970 1.376 . S
N969 C973 1.383 . S
C970 N969 1.376 . S
C970 C971 1.446 . S
C970 C1000 1.391 . S
C971 C970 1.446 . S
C971 C972 1.339 . S
C971 H1006 0.949 . S
C972 C971 1.339 . S
C972 C973 1.439 . S
C972 H1007 0.950 . S
C973 N969 1.383 . S
C973 C972 1.439 . S
C973 C1002 1.392 . S
N974 Co968 2.008 . S
N974 C975 1.376 . S
N974 C978 1.374 . S
C975 N974 1.376 . S
C975 C976 1.443 . S
C975 C1002 1.389 . S
C976 C975 1.443 . S
C976 C977 1.340 . S
C976 H1008 0.951 . S
C977 C976 1.340 . S
C977 C978 1.439 . S
C977 H1009 0.950 . S
C978 N974 1.374 . S
C978 C977 1.439 . S
C978 C1003 1.395 . S
N979 Co968 1.995 . S
N979 C980 1.376 . S
N979 C983 1.383 . S
C980 N979 1.376 . S
C980 C981 1.446 . S
C980 C1003 1.391 . S
C981 C980 1.446 . S
C981 C982 1.339 . S
C981 H1010 0.949 . S
C982 C981 1.339 . S
C982 C983 1.439 . S
C982 H1011 0.950 . S
C983 N979 1.383 . S
C983 C982 1.439 . S
C983 C1001 1.392 . S
N984 Co968 2.282 . S
N984 C987 1.332 . S
N984 C989 1.332 . S
C985 C986 1.386 . S
C985 C988 1.388 . S
C986 C985 1.386 . S
C986 C987 1.382 . S
C986 H1012 0.950 . S
C987 N984 1.332 . S
C987 C986 1.382 . S
C987 H998 0.952 . S
C988 C985 1.388 . S
C988 C989 1.382 . S
C988 H1013 0.950 . S
C989 N984 1.332 . S
C989 C988 1.382 . S
C989 H999 0.948 . S
N990 Co968 2.282 . S
N990 C994 1.332 . S
N990 C995 1.332 . S
C991 C992 1.388 . S
C991 C995 1.382 . S
C991 H1014 0.950 . S
C992 C991 1.388 . S
C992 C993 1.386 . S
C993 C992 1.386 . S
C993 C994 1.382 . S
C993 H1015 0.950 . S
C994 N990 1.332 . S
C994 C993 1.382 . S
C994 H996 0.952 . S
C995 N990 1.332 . S
C995 C991 1.382 . S
C995 H997 0.948 . S
H996 C994 0.952 . S
H997 C995 0.948 . S
H998 C987 0.952 . S
H999 C989 0.948 . S
C1000 C966 1.395 . S
C1000 C970 1.391 . S
C1001 C963 1.389 . S
C1001 C983 1.392 . S
C1002 C973 1.392 . S
C1002 C975 1.389 . S
C1003 C978 1.395 . S
C1003 C980 1.391 . S
H1004 C964 0.951 . S
H1005 C965 0.950 . S
H1006 C971 0.949 . S
H1007 C972 0.950 . S
H1008 C976 0.951 . S
H1009 C977 0.950 . S
H1010 C981 0.949 . S
H1011 C982 0.950 . S
H1012 C986 0.950 . S
H1013 C988 0.950 . S
H1014 C991 0.950 . S
H1015 C993 0.950 . S
C1016 C1017 1.369 . S
C1016 C1018 1.419 . S
C1016 H1020 0.930 . S
C1017 C1016 1.369 . S
C1017 C1026 1.429 . S
C1018 C1016 1.419 . S
C1018 C1019 1.363 . S
C1018 H1021 0.929 . S
C1019 C1018 1.363 . S
C1019 C1025 1.428 . S
H1020 C1016 0.930 . S
H1021 C1018 0.929 . S
S1022 N1023 1.613 . S
S1022 N1024 1.610 . S
N1023 S1022 1.613 . S
N1023 C1026 1.350 . S
N1024 S1022 1.610 . S
N1024 C1025 1.351 . S
C1025 C1019 1.428 . S
C1025 N1024 1.351 . S
C1025 C1026 1.434 . S
C1026 C1017 1.429 . S
C1026 N1023 1.350 . S
C1026 C1025 1.434 . S
C1027 C1028 1.369 . S
C1027 C1029 1.419 . S
C1027 H1031 0.930 . S
C1028 C1027 1.369 . S
C1028 C1037 1.429 . S
C1029 C1027 1.419 . S
C1029 C1030 1.363 . S
C1029 H1032 0.929 . S
C1030 C1029 1.363 . S
C1030 C1036 1.428 . S
H1031 C1027 0.930 . S
H1032 C1029 0.929 . S
S1033 N1034 1.613 . S
S1033 N1035 1.610 . S
N1034 S1033 1.613 . S
N1034 C1037 1.350 . S
N1035 S1033 1.610 . S
N1035 C1036 1.351 . S
C1036 C1030 1.428 . S
C1036 N1035 1.351 . S
C1036 C1037 1.434 . S
C1037 C1028 1.429 . S
C1037 N1034 1.350 . S
C1037 C1036 1.434 . S
C1038 C1039 1.369 . S
C1038 C1040 1.419 . S
C1038 H1042 0.930 . S
C1039 C1038 1.369 . S
C1039 C1048 1.429 . S
C1040 C1038 1.419 . S
C1040 C1041 1.363 . S
C1040 H1043 0.929 . S
C1041 C1040 1.363 . S
C1041 C1047 1.428 . S
H1042 C1038 0.930 . S
H1043 C1040 0.929 . S
S1044 N1045 1.613 . S
S1044 N1046 1.610 . S
N1045 S1044 1.613 . S
N1045 C1048 1.350 . S
N1046 S1044 1.610 . S
N1046 C1047 1.351 . S
C1047 C1041 1.428 . S
C1047 N1046 1.351 . S
C1047 C1048 1.434 . S
C1048 C1039 1.429 . S
C1048 N1045 1.350 . S
C1048 C1047 1.434 . S
C1049 C1050 1.369 1_545 S
C1049 C1051 1.419 . S
C1049 H1053 0.930 . S
C1050 C1049 1.369 1_565 S
C1050 C1059 1.429 . S
C1051 C1049 1.419 . S
C1051 C1052 1.363 . S
C1051 H1054 0.929 . S
C1052 C1051 1.363 . S
C1052 C1058 1.428 . S
H1053 C1049 0.930 . S
H1054 C1051 0.929 . S
S1055 N1056 1.613 . S
S1055 N1057 1.610 . S
N1056 S1055 1.613 . S
N1056 C1059 1.350 . S
N1057 S1055 1.610 . S
N1057 C1058 1.351 1_565 S
C1058 C1052 1.428 . S
C1058 N1057 1.351 1_545 S
C1058 C1059 1.434 1_545 S
C1059 C1050 1.429 . S
C1059 N1056 1.350 . S
C1059 C1058 1.434 1_565 S
C1060 C1061 1.369 . S
C1060 C1062 1.419 . S
C1060 H1064 0.930 . S
C1061 C1060 1.369 . S
C1061 C1070 1.429 . S
C1062 C1060 1.419 . S
C1062 C1063 1.363 . S
C1062 H1065 0.929 . S
C1063 C1062 1.363 . S
C1063 C1069 1.428 . S
H1064 C1060 0.930 . S
H1065 C1062 0.929 . S
S1066 N1067 1.613 . S
S1066 N1068 1.610 . S
N1067 S1066 1.613 . S
N1067 C1070 1.350 . S
N1068 S1066 1.610 . S
N1068 C1069 1.351 . S
C1069 C1063 1.428 . S
C1069 N1068 1.351 . S
C1069 C1070 1.434 . S
C1070 C1061 1.429 . S
C1070 N1067 1.350 . S
C1070 C1069 1.434 . S
C1071 C1072 1.369 . S
C1071 C1073 1.419 . S
C1071 H1075 0.930 . S
C1072 C1071 1.369 . S
C1072 C1081 1.429 . S
C1073 C1071 1.419 . S
C1073 C1074 1.363 . S
C1073 H1076 0.929 . S
C1074 C1073 1.363 . S
C1074 C1080 1.428 . S
H1075 C1071 0.930 . S
H1076 C1073 0.929 . S
S1077 N1078 1.613 . S
S1077 N1079 1.610 . S
N1078 S1077 1.613 . S
N1078 C1081 1.350 . S
N1079 S1077 1.610 . S
N1079 C1080 1.351 . S
C1080 C1074 1.428 . S
C1080 N1079 1.351 . S
C1080 C1081 1.434 . S
C1081 C1072 1.429 . S
C1081 N1078 1.350 . S
C1081 C1080 1.434 . S
C1082 C1083 1.369 . S
C1082 C1084 1.419 . S
C1082 H1086 0.930 . S
C1083 C1082 1.369 . S
C1083 C1092 1.429 . S
C1084 C1082 1.419 . S
C1084 C1085 1.363 . S
C1084 H1087 0.929 . S
C1085 C1084 1.363 . S
C1085 C1091 1.428 . S
H1086 C1082 0.930 . S
H1087 C1084 0.929 . S
S1088 N1089 1.613 . S
S1088 N1090 1.610 . S
N1089 S1088 1.613 . S
N1089 C1092 1.350 . S
N1090 S1088 1.610 . S
N1090 C1091 1.351 . S
C1091 C1085 1.428 . S
C1091 N1090 1.351 . S
C1091 C1092 1.434 . S
C1092 C1083 1.429 . S
C1092 N1089 1.350 . S
C1092 C1091 1.434 . S
C1093 C1094 1.369 . S
C1093 C1095 1.419 . S
C1093 H1097 0.930 . S
C1094 C1093 1.369 . S
C1094 C1103 1.429 . S
C1095 C1093 1.419 . S
C1095 C1096 1.363 . S
C1095 H1098 0.929 . S
C1096 C1095 1.363 . S
C1096 C1102 1.428 . S
H1097 C1093 0.930 . S
H1098 C1095 0.929 . S
S1099 N1100 1.613 . S
S1099 N1101 1.610 . S
N1100 S1099 1.613 . S
N1100 C1103 1.350 . S
N1101 S1099 1.610 . S
N1101 C1102 1.351 . S
C1102 C1096 1.428 . S
C1102 N1101 1.351 . S
C1102 C1103 1.434 . S
C1103 C1094 1.429 . S
C1103 N1100 1.350 . S
C1103 C1102 1.434 . S
C1104 C1105 1.369 . S
C1104 C1106 1.419 . S
C1104 H1108 0.930 . S
C1105 C1104 1.369 . S
C1105 C1114 1.429 . S
C1106 C1104 1.419 . S
C1106 C1107 1.363 . S
C1106 H1109 0.929 . S
C1107 C1106 1.363 . S
C1107 C1113 1.428 . S
H1108 C1104 0.930 . S
H1109 C1106 0.929 . S
S1110 N1111 1.613 . S
S1110 N1112 1.610 . S
N1111 S1110 1.613 . S
N1111 C1114 1.350 . S
N1112 S1110 1.610 . S
N1112 C1113 1.351 . S
C1113 C1107 1.428 . S
C1113 N1112 1.351 . S
C1113 C1114 1.434 . S
C1114 C1105 1.429 . S
C1114 N1111 1.350 . S
C1114 C1113 1.434 . S
C1115 C1116 1.369 . S
C1115 C1117 1.419 . S
C1115 H1119 0.930 . S
C1116 C1115 1.369 . S
C1116 C1125 1.429 . S
C1117 C1115 1.419 . S
C1117 C1118 1.363 . S
C1117 H1120 0.929 . S
C1118 C1117 1.363 . S
C1118 C1124 1.428 . S
H1119 C1115 0.930 . S
H1120 C1117 0.929 . S
S1121 N1122 1.613 . S
S1121 N1123 1.610 . S
N1122 S1121 1.613 . S
N1122 C1125 1.350 . S
N1123 S1121 1.610 . S
N1123 C1124 1.351 . S
C1124 C1118 1.428 . S
C1124 N1123 1.351 . S
C1124 C1125 1.434 . S
C1125 C1116 1.429 . S
C1125 N1122 1.350 . S
C1125 C1124 1.434 . S
C1126 C1127 1.369 . S
C1126 C1128 1.419 . S
C1126 H1130 0.930 . S
C1127 C1126 1.369 . S
C1127 C1136 1.429 . S
C1128 C1126 1.419 . S
C1128 C1129 1.363 . S
C1128 H1131 0.929 . S
C1129 C1128 1.363 . S
C1129 C1135 1.428 . S
H1130 C1126 0.930 . S
H1131 C1128 0.929 . S
S1132 N1133 1.613 . S
S1132 N1134 1.610 . S
N1133 S1132 1.613 . S
N1133 C1136 1.350 . S
N1134 S1132 1.610 . S
N1134 C1135 1.351 . S
C1135 C1129 1.428 . S
C1135 N1134 1.351 . S
C1135 C1136 1.434 . S
C1136 C1127 1.429 . S
C1136 N1133 1.350 . S
C1136 C1135 1.434 . S
C1137 C1138 1.369 . S
C1137 C1139 1.419 . S
C1137 H1141 0.930 . S
C1138 C1137 1.369 . S
C1138 C1147 1.429 . S
C1139 C1137 1.419 . S
C1139 C1140 1.363 . S
C1139 H1142 0.929 . S
C1140 C1139 1.363 . S
C1140 C1146 1.428 . S
H1141 C1137 0.930 . S
H1142 C1139 0.929 . S
S1143 N1144 1.613 . S
S1143 N1145 1.610 . S
N1144 S1143 1.613 . S
N1144 C1147 1.350 . S
N1145 S1143 1.610 . S
N1145 C1146 1.351 . S
C1146 C1140 1.428 . S
C1146 N1145 1.351 . S
C1146 C1147 1.434 . S
C1147 C1138 1.429 . S
C1147 N1144 1.350 . S
C1147 C1146 1.434 . S
C1148 C1149 1.369 . S
C1148 C1150 1.419 . S
C1148 H1152 0.930 . S
C1149 C1148 1.369 . S
C1149 C1158 1.429 . S
C1150 C1148 1.419 . S
C1150 C1151 1.363 . S
C1150 H1153 0.929 . S
C1151 C1150 1.363 . S
C1151 C1157 1.428 . S
H1152 C1148 0.930 . S
H1153 C1150 0.929 . S
S1154 N1155 1.613 . S
S1154 N1156 1.610 . S
N1155 S1154 1.613 . S
N1155 C1158 1.350 . S
N1156 S1154 1.610 . S
N1156 C1157 1.351 . S
C1157 C1151 1.428 . S
C1157 N1156 1.351 . S
C1157 C1158 1.434 . S
C1158 C1149 1.429 . S
C1158 N1155 1.350 . S
C1158 C1157 1.434 . S
C1159 C1160 1.369 . S
C1159 C1161 1.419 . S
C1159 H1163 0.930 . S
C1160 C1159 1.369 . S
C1160 C1169 1.429 . S
C1161 C1159 1.419 . S
C1161 C1162 1.363 . S
C1161 H1164 0.929 . S
C1162 C1161 1.363 . S
C1162 C1168 1.428 . S
H1163 C1159 0.930 . S
H1164 C1161 0.929 . S
S1165 N1166 1.613 . S
S1165 N1167 1.610 . S
N1166 S1165 1.613 . S
N1166 C1169 1.350 . S
N1167 S1165 1.610 . S
N1167 C1168 1.351 . S
C1168 C1162 1.428 . S
C1168 N1167 1.351 . S
C1168 C1169 1.434 . S
C1169 C1160 1.429 . S
C1169 N1166 1.350 . S
C1169 C1168 1.434 . S
C1170 C1171 1.369 . S
C1170 C1172 1.419 . S
C1170 H1174 0.930 . S
C1171 C1170 1.369 . S
C1171 C1180 1.429 . S
C1172 C1170 1.419 . S
C1172 C1173 1.363 . S
C1172 H1175 0.929 . S
C1173 C1172 1.363 . S
C1173 C1179 1.428 . S
H1174 C1170 0.930 . S
H1175 C1172 0.929 . S
S1176 N1177 1.613 . S
S1176 N1178 1.610 . S
N1177 S1176 1.613 . S
N1177 C1180 1.350 . S
N1178 S1176 1.610 . S
N1178 C1179 1.351 . S
C1179 C1173 1.428 . S
C1179 N1178 1.351 . S
C1179 C1180 1.434 . S
C1180 C1171 1.429 . S
C1180 N1177 1.350 . S
C1180 C1179 1.434 . S
C1181 C1182 1.369 . S
C1181 C1183 1.419 . S
C1181 H1185 0.930 . S
C1182 C1181 1.369 . S
C1182 C1191 1.429 . S
C1183 C1181 1.419 . S
C1183 C1184 1.363 . S
C1183 H1186 0.929 . S
C1184 C1183 1.363 . S
C1184 C1190 1.428 . S
H1185 C1181 0.930 . S
H1186 C1183 0.929 . S
S1187 N1188 1.613 . S
S1187 N1189 1.610 . S
N1188 S1187 1.613 . S
N1188 C1191 1.350 . S
N1189 S1187 1.610 . S
N1189 C1190 1.351 . S
C1190 C1184 1.428 . S
C1190 N1189 1.351 . S
C1190 C1191 1.434 . S
C1191 C1182 1.429 . S
C1191 N1188 1.350 . S
C1191 C1190 1.434 . S
C1192 C1193 1.369 . S
C1192 C1194 1.419 . S
C1192 H1196 0.930 . S
C1193 C1192 1.369 . S
C1193 C1202 1.429 . S
C1194 C1192 1.419 . S
C1194 C1195 1.363 . S
C1194 H1197 0.929 . S
C1195 C1194 1.363 . S
C1195 C1201 1.428 . S
H1196 C1192 0.930 . S
H1197 C1194 0.929 . S
S1198 N1199 1.613 . S
S1198 N1200 1.610 . S
N1199 S1198 1.613 . S
N1199 C1202 1.350 . S
N1200 S1198 1.610 . S
N1200 C1201 1.351 . S
C1201 C1195 1.428 . S
C1201 N1200 1.351 . S
C1201 C1202 1.434 . S
C1202 C1193 1.429 . S
C1202 N1199 1.350 . S
C1202 C1201 1.434 . S
C1203 C1204 1.369 . S
C1203 C1205 1.419 . S
C1203 H1207 0.930 . S
C1204 C1203 1.369 . S
C1204 C1213 1.429 . S
C1205 C1203 1.419 . S
C1205 C1206 1.363 . S
C1205 H1208 0.929 . S
C1206 C1205 1.363 . S
C1206 C1212 1.428 . S
H1207 C1203 0.930 . S
H1208 C1205 0.929 . S
S1209 N1210 1.613 . S
S1209 N1211 1.610 . S
N1210 S1209 1.613 . S
N1210 C1213 1.350 . S
N1211 S1209 1.610 . S
N1211 C1212 1.351 . S
C1212 C1206 1.428 . S
C1212 N1211 1.351 . S
C1212 C1213 1.434 . S
C1213 C1204 1.429 . S
C1213 N1210 1.350 . S
C1213 C1212 1.434 . S
C1214 C1215 1.369 . S
C1214 C1216 1.419 . S
C1214 H1218 0.930 . S
C1215 C1214 1.369 . S
C1215 C1224 1.429 . S
C1216 C1214 1.419 . S
C1216 C1217 1.363 . S
C1216 H1219 0.929 . S
C1217 C1216 1.363 . S
C1217 C1223 1.428 . S
H1218 C1214 0.930 . S
H1219 C1216 0.929 . S
S1220 N1221 1.613 . S
S1220 N1222 1.610 . S
N1221 S1220 1.613 . S
N1221 C1224 1.350 . S
N1222 S1220 1.610 . S
N1222 C1223 1.351 . S
C1223 C1217 1.428 . S
C1223 N1222 1.351 . S
C1223 C1224 1.434 . S
C1224 C1215 1.429 . S
C1224 N1221 1.350 . S
C1224 C1223 1.434 . S
C1225 C1226 1.369 . S
C1225 C1227 1.419 . S
C1225 H1229 0.930 . S
C1226 C1225 1.369 . S
C1226 C1235 1.429 1_554 S
C1227 C1225 1.419 . S
C1227 C1228 1.363 . S
C1227 H1230 0.929 . S
C1228 C1227 1.363 . S
C1228 C1234 1.428 . S
H1229 C1225 0.930 . S
H1230 C1227 0.929 . S
S1231 N1232 1.613 . S
S1231 N1233 1.610 . S
N1232 S1231 1.613 . S
N1232 C1235 1.350 . S
N1233 S1231 1.610 . S
N1233 C1234 1.351 1_556 S
C1234 C1228 1.428 . S
C1234 N1233 1.351 1_554 S
C1234 C1235 1.434 1_554 S
C1235 C1226 1.429 1_556 S
C1235 N1232 1.350 . S
C1235 C1234 1.434 1_556 S
C1236 C1237 1.369 . S
C1236 C1238 1.419 . S
C1236 H1240 0.930 . S
C1237 C1236 1.369 . S
C1237 C1246 1.429 . S
C1238 C1236 1.419 . S
C1238 C1239 1.363 . S
C1238 H1241 0.929 . S
C1239 C1238 1.363 . S
C1239 C1245 1.428 . S
H1240 C1236 0.930 . S
H1241 C1238 0.929 . S
S1242 N1243 1.613 . S
S1242 N1244 1.610 . S
N1243 S1242 1.613 . S
N1243 C1246 1.350 . S
N1244 S1242 1.610 . S
N1244 C1245 1.351 . S
C1245 C1239 1.428 . S
C1245 N1244 1.351 . S
C1245 C1246 1.434 . S
C1246 C1237 1.429 . S
C1246 N1243 1.350 . S
C1246 C1245 1.434 . S
C1247 C1248 1.369 . S
C1247 C1249 1.419 . S
C1247 H1251 0.930 . S
C1248 C1247 1.369 . S
C1248 C1257 1.429 . S
C1249 C1247 1.419 . S
C1249 C1250 1.363 . S
C1249 H1252 0.929 . S
C1250 C1249 1.363 . S
C1250 C1256 1.428 . S
H1251 C1247 0.930 . S
H1252 C1249 0.929 . S
S1253 N1254 1.613 . S
S1253 N1255 1.610 . S
N1254 S1253 1.613 . S
N1254 C1257 1.350 . S
N1255 S1253 1.610 . S
N1255 C1256 1.351 . S
C1256 C1250 1.428 . S
C1256 N1255 1.351 . S
C1256 C1257 1.434 . S
C1257 C1248 1.429 . S
C1257 N1254 1.350 . S
C1257 C1256 1.434 . S
C1258 C1259 1.369 . S
C1258 C1260 1.419 . S
C1258 H1262 0.930 . S
C1259 C1258 1.369 . S
C1259 C1268 1.429 . S
C1260 C1258 1.419 . S
C1260 C1261 1.363 . S
C1260 H1263 0.929 . S
C1261 C1260 1.363 . S
C1261 C1267 1.428 . S
H1262 C1258 0.930 . S
H1263 C1260 0.929 . S
S1264 N1265 1.613 . S
S1264 N1266 1.610 . S
N1265 S1264 1.613 . S
N1265 C1268 1.350 . S
N1266 S1264 1.610 . S
N1266 C1267 1.351 . S
C1267 C1261 1.428 . S
C1267 N1266 1.351 . S
C1267 C1268 1.434 . S
C1268 C1259 1.429 . S
C1268 N1265 1.350 . S
C1268 C1267 1.434 . S
C1269 C1270 1.369 . S
C1269 C1271 1.419 . S
C1269 H1273 0.930 . S
C1270 C1269 1.369 . S
C1270 C1279 1.429 . S
C1271 C1269 1.419 . S
C1271 C1272 1.363 . S
C1271 H1274 0.929 . S
C1272 C1271 1.363 . S
C1272 C1278 1.428 . S
H1273 C1269 0.930 . S
H1274 C1271 0.929 . S
S1275 N1276 1.613 . S
S1275 N1277 1.610 . S
N1276 S1275 1.613 . S
N1276 C1279 1.350 . S
N1277 S1275 1.610 . S
N1277 C1278 1.351 . S
C1278 C1272 1.428 . S
C1278 N1277 1.351 . S
C1278 C1279 1.434 . S
C1279 C1270 1.429 . S
C1279 N1276 1.350 . S
C1279 C1278 1.434 . S
C1280 C1281 1.369 . S
C1280 C1282 1.419 . S
C1280 H1284 0.930 . S
C1281 C1280 1.369 . S
C1281 C1290 1.429 . S
C1282 C1280 1.419 . S
C1282 C1283 1.363 . S
C1282 H1285 0.929 . S
C1283 C1282 1.363 . S
C1283 C1289 1.428 . S
H1284 C1280 0.930 . S
H1285 C1282 0.929 . S
S1286 N1287 1.613 . S
S1286 N1288 1.610 . S
N1287 S1286 1.613 . S
N1287 C1290 1.350 . S
N1288 S1286 1.610 . S
N1288 C1289 1.351 . S
C1289 C1283 1.428 . S
C1289 N1288 1.351 . S
C1289 C1290 1.434 . S
C1290 C1281 1.429 . S
C1290 N1287 1.350 . S
C1290 C1289 1.434 . S
C1291 C1292 1.369 . S
C1291 C1293 1.419 . S
C1291 H1295 0.930 . S
C1292 C1291 1.369 . S
C1292 C1301 1.429 . S
C1293 C1291 1.419 . S
C1293 C1294 1.363 . S
C1293 H1296 0.929 . S
C1294 C1293 1.363 . S
C1294 C1300 1.428 . S
H1295 C1291 0.930 . S
H1296 C1293 0.929 . S
S1297 N1298 1.613 . S
S1297 N1299 1.610 . S
N1298 S1297 1.613 . S
N1298 C1301 1.350 . S
N1299 S1297 1.610 . S
N1299 C1300 1.351 . S
C1300 C1294 1.428 . S
C1300 N1299 1.351 . S
C1300 C1301 1.434 . S
C1301 C1292 1.429 . S
C1301 N1298 1.350 . S
C1301 C1300 1.434 . S
C1302 C1303 1.369 . S
C1302 C1304 1.419 . S
C1302 H1306 0.930 . S
C1303 C1302 1.369 . S
C1303 C1312 1.429 . S
C1304 C1302 1.419 . S
C1304 C1305 1.363 . S
C1304 H1307 0.929 . S
C1305 C1304 1.363 . S
C1305 C1311 1.428 . S
H1306 C1302 0.930 . S
H1307 C1304 0.929 . S
S1308 N1309 1.613 . S
S1308 N1310 1.610 . S
N1309 S1308 1.613 . S
N1309 C1312 1.350 . S
N1310 S1308 1.610 . S
N1310 C1311 1.351 . S
C1311 C1305 1.428 . S
C1311 N1310 1.351 . S
C1311 C1312 1.434 . S
C1312 C1303 1.429 . S
C1312 N1309 1.350 . S
C1312 C1311 1.434 . S
C1313 C1314 1.369 . S
C1313 C1315 1.419 . S
C1313 H1317 0.930 . S
C1314 C1313 1.369 . S
C1314 C1323 1.429 . S
C1315 C1313 1.419 . S
C1315 C1316 1.363 . S
C1315 H1318 0.929 . S
C1316 C1315 1.363 . S
C1316 C1322 1.428 . S
H1317 C1313 0.930 . S
H1318 C1315 0.929 . S
S1319 N1320 1.613 . S
S1319 N1321 1.610 . S
N1320 S1319 1.613 . S
N1320 C1323 1.350 . S
N1321 S1319 1.610 . S
N1321 C1322 1.351 . S
C1322 C1316 1.428 . S
C1322 N1321 1.351 . S
C1322 C1323 1.434 . S
C1323 C1314 1.429 . S
C1323 N1320 1.350 . S
C1323 C1322 1.434 . S
C1324 C1325 1.369 . S
C1324 C1326 1.419 . S
C1324 H1328 0.930 . S
C1325 C1324 1.369 . S
C1325 C1334 1.429 . S
C1326 C1324 1.419 . S
C1326 C1327 1.363 . S
C1326 H1329 0.929 . S
C1327 C1326 1.363 . S
C1327 C1333 1.428 . S
H1328 C1324 0.930 . S
H1329 C1326 0.929 . S
S1330 N1331 1.613 . S
S1330 N1332 1.610 . S
N1331 S1330 1.613 . S
N1331 C1334 1.350 . S
N1332 S1330 1.610 . S
N1332 C1333 1.351 . S
C1333 C1327 1.428 . S
C1333 N1332 1.351 . S
C1333 C1334 1.434 . S
C1334 C1325 1.429 . S
C1334 N1331 1.350 . S
C1334 C1333 1.434 . S
C1335 C1336 1.369 . S
C1335 C1337 1.419 . S
C1335 H1339 0.930 . S
C1336 C1335 1.369 . S
C1336 C1345 1.429 . S
C1337 C1335 1.419 . S
C1337 C1338 1.363 . S
C1337 H1340 0.929 . S
C1338 C1337 1.363 . S
C1338 C1344 1.428 . S
H1339 C1335 0.930 . S
H1340 C1337 0.929 . S
S1341 N1342 1.613 . S
S1341 N1343 1.610 . S
N1342 S1341 1.613 . S
N1342 C1345 1.350 . S
N1343 S1341 1.610 . S
N1343 C1344 1.351 . S
C1344 C1338 1.428 . S
C1344 N1343 1.351 . S
C1344 C1345 1.434 . S
C1345 C1336 1.429 . S
C1345 N1342 1.350 . S
C1345 C1344 1.434 . S
C1346 C1347 1.369 . S
C1346 C1348 1.419 . S
C1346 H1350 0.930 . S
C1347 C1346 1.369 . S
C1347 C1356 1.429 . S
C1348 C1346 1.419 . S
C1348 C1349 1.363 . S
C1348 H1351 0.929 1_556 S
C1349 C1348 1.363 . S
C1349 C1355 1.428 . S
H1350 C1346 0.930 . S
H1351 C1348 0.929 1_554 S
S1352 N1353 1.613 . S
S1352 N1354 1.610 . S
N1353 S1352 1.613 . S
N1353 C1356 1.350 . S
N1354 S1352 1.610 . S
N1354 C1355 1.351 . S
C1355 C1349 1.428 . S
C1355 N1354 1.351 . S
C1355 C1356 1.434 . S
C1356 C1347 1.429 . S
C1356 N1353 1.350 . S
C1356 C1355 1.434 . S
C1357 C1358 1.388 . S
C1357 C1359 1.400 1_556 S
C1357 H1361 0.930 1_556 S
C1358 C1357 1.388 . S
C1358 C1367 1.429 . S
C1359 C1357 1.400 1_554 S
C1359 C1360 1.363 . S
C1359 H1362 0.929 . S
C1360 C1359 1.363 . S
C1360 C1366 1.428 1_554 S
H1361 C1357 0.930 1_554 S
H1362 C1359 0.929 . S
S1363 N1364 1.613 . S
S1363 N1365 1.610 . S
N1364 S1363 1.613 . S
N1364 C1367 1.350 . S
N1365 S1363 1.610 . S
N1365 C1366 1.351 . S
C1366 C1360 1.428 1_556 S
C1366 N1365 1.351 . S
C1366 C1367 1.434 . S
C1367 C1358 1.429 . S
C1367 N1364 1.350 . S
C1367 C1366 1.434 . S
C1019 C621 1.770 . S
C1017 C39 1.703 . S
C1030 C674 1.438 . S
C1028 C125 1.435 . S
C1041 C737 2.252 . S
C1039 C217 2.124 . S
C1052 C780 1.834 . S
C1050 C261 1.709 . S
C1061 C359 1.492 . S
C1063 C736 1.508 . S
C1074 C773 1.374 . S
C1072 C433 1.254 . S
C1085 C614 1.591 . S
C1083 C495 1.632 . S
C1096 C667 1.505 . S
C1094 C587 1.503 . S
C1107 C720 1.745 . S
C1105 C557 1.724 . S
C1118 C789 1.438 . S
C1116 C347 1.446 . S
C1129 C630 1.211 . S
C1127 C421 1.201 . S
C1140 C683 1.854 . S
C1138 C507 1.797 . S
C1151 C631 1.519 . S
C1149 C137 1.527 . S
C1162 C684 2.037 . S
C1160 C187 1.956 . S
C1173 C727 2.533 . S
C1171 C291 2.459 . S
C1184 C790 2.216 . S
C1182 C69 2.222 . S
C1195 C833 1.417 . S
C1193 C581 1.432 . S
C1204 C365 2.173 . S
C1206 C886 2.142 . S
C1215 C439 2.578 . S
C1217 C948 2.577 . S
C1226 C483 1.688 1_554 S
C1228 C1002 1.760 . S
C1237 C113 1.750 . S
C1239 C949 1.779 . S
C1248 C211 1.877 . S
C1250 C1001 1.928 . S
C1259 C273 1.428 . S
C1261 C826 1.503 . S
C1272 C879 1.303 . S
C1270 C51 1.301 . S
C1283 C939 1.535 . S
C1281 C63 1.466 . S
C1292 C143 1.618 . S
C1294 C985 1.618 . S
C1303 C199 2.027 . S
C1305 C842 2.076 . S
C1314 C285 1.218 . S
C1316 C895 1.348 . S
C1327 C843 1.671 . S
C1325 C335 1.638 . S
C1338 C896 2.167 . S
C1336 C409 1.957 . S
C1347 C513 1.909 . S
C1349 C932 1.918 . S
C1360 C992 1.438 . S
C1358 C569 1.430 . S
