# Generated by pormake.
# Topology rtl, (3,6)-cn, num edge types: 1
# Building blocks:
#     Node 0, Type 0, BuildingBlock: PAMTOO_clean_linker_0, # of connection points: 3
#     Node 1, Type 0, BuildingBlock: PAMTOO_clean_linker_0, # of connection points: 3
#     Node 2, Type 0, BuildingBlock: PAMTOO_clean_linker_0, # of connection points: 3
#     Node 3, Type 0, BuildingBlock: PAMTOO_clean_linker_0, # of connection points: 3
#     Node 4, Type 1, BuildingBlock: KUMBOL_clean_sbu_1, # of connection points: 6
#     Node 5, Type 1, BuildingBlock: KUMBOL_clean_sbu_1, # of connection points: 6
#     Edge 6, Type (0, 1), BuildingBlock: EZIPEK_clean_linker_0, # of connection points: 2
#     Edge 7, Type (0, 1), BuildingBlock: EZIPEK_clean_linker_0, # of connection points: 2
#     Edge 8, Type (0, 1), BuildingBlock: EZIPEK_clean_linker_0, # of connection points: 2
#     Edge 9, Type (0, 1), BuildingBlock: EZIPEK_clean_linker_0, # of connection points: 2
#     Edge 10, Type (0, 1), BuildingBlock: EZIPEK_clean_linker_0, # of connection points: 2
#     Edge 11, Type (0, 1), BuildingBlock: EZIPEK_clean_linker_0, # of connection points: 2
#     Edge 12, Type (0, 1), BuildingBlock: EZIPEK_clean_linker_0, # of connection points: 2
#     Edge 13, Type (0, 1), BuildingBlock: EZIPEK_clean_linker_0, # of connection points: 2
#     Edge 14, Type (0, 1), BuildingBlock: EZIPEK_clean_linker_0, # of connection points: 2
#     Edge 15, Type (0, 1), BuildingBlock: EZIPEK_clean_linker_0, # of connection points: 2
#     Edge 16, Type (0, 1), BuildingBlock: EZIPEK_clean_linker_0, # of connection points: 2
#     Edge 17, Type (0, 1), BuildingBlock: EZIPEK_clean_linker_0, # of connection points: 2
# Relax obj value: 0.053
# Max RMSD: 0.238
# Mean RMSD: 0.175
data_MOF--net-rtl--node1-KUMBOL_clean_sbu_1--node2-PAMTOO_clean_linker_0--edge1-EZIPEK_clean_linker_0
_symmetry_space_group_name_H-M    P1
_symmetry_Int_Tables_number       1
_symmetry_cell_setting            triclinic
loop_
_symmetry_equiv_pos_as_xyz
'x, y, z'
_cell_length_a     25.953515
_cell_length_b     26.43585
_cell_length_c     20.646219
_cell_angle_alpha  75.564225
_cell_angle_beta   98.94704
_cell_angle_gamma 91.358615
loop_
_atom_site_label
_atom_site_type_symbol
_atom_site_fract_x
_atom_site_fract_y
_atom_site_fract_z
_atom_type_partial_charge
H0 H 0.12026 0.90175 0.00882 0.0
H1 H 0.23604 0.78712 0.11152 0.0
H2 H 0.22382 0.84571 0.89652 0.0
H3 H 0.24158 0.72558 0.95319 0.0
C4 C 0.26583 0.72844 1.00135 0.0
O5 O 0.27346 0.78019 1.00238 0.0
H6 H 0.2421 0.70912 0.04086 0.0
C7 C 0.15385 0.88039 1.00524 0.0
C8 C 0.17369 0.88606 0.944 0.0
C9 C 0.17672 0.84607 0.06536 0.0
C10 C 0.21772 0.81301 0.06474 0.0
C11 C 0.23404 0.81266 1.00329 0.0
C12 C 0.21131 0.84806 0.94327 0.0
H13 H 0.63195 0.62221 0.69282 0.0
H14 H 0.75669 0.71628 0.61576 0.0
H15 H 0.71822 0.71979 0.80965 0.0
H16 H 0.76449 0.82807 0.73945 0.0
C17 C 0.77297 0.81265 0.69685 0.0
O18 O 0.7793 0.75878 0.71831 0.0
H19 H 0.73727 0.82405 0.65879 0.0
C20 C 0.66169 0.65105 0.69805 0.0
C21 C 0.67095 0.66885 0.75774 0.0
C22 C 0.69244 0.66814 0.64664 0.0
C23 C 0.73172 0.70453 0.65411 0.0
C24 C 0.74005 0.72461 0.71157 0.0
C25 C 0.71014 0.70613 0.76385 0.0
H26 H 0.9063 0.11812 0.12759 0.0
H27 H 0.80153 0.24201 0.00738 0.0
H28 H 0.81062 0.19826 0.22386 0.0
H29 H 0.70165 0.22375 0.13489 0.0
C30 C 0.71438 0.25948 0.10039 0.0
O31 O 0.76799 0.26354 0.11197 0.0
H32 H 0.70169 0.25353 0.04888 0.0
C33 C 0.87618 0.14692 0.12388 0.0
C34 C 0.86023 0.15377 0.18287 0.0
C35 C 0.85505 0.1783 0.06038 0.0
C36 C 0.81726 0.21679 0.05609 0.0
C37 C 0.80096 0.22374 0.11519 0.0
C38 C 0.8222 0.19188 0.17835 0.0
H39 H 0.40264 0.41027 0.43402 0.0
H40 H 0.31249 0.29866 0.55714 0.0
H41 H 0.312 0.29713 0.34882 0.0
H42 H 0.20247 0.27774 0.41168 0.0
C43 C 0.2222 0.25635 0.46249 0.0
O44 O 0.27521 0.2518 0.46217 0.0
H45 H 0.21495 0.28161 0.49602 0.0
C46 C 0.37578 0.37792 0.4391 0.0
C47 C 0.35937 0.35657 0.38384 0.0
C48 C 0.35892 0.35737 0.50129 0.0
C49 C 0.32504 0.31495 0.50868 0.0
C50 C 0.30713 0.29362 0.45358 0.0
C51 C 0.32456 0.31436 0.39097 0.0
C52 C 0.8968 0.13672 0.46877 0.0
C53 C 0.81321 0.09418 0.46014 0.0
C54 C 0.86554 0.09483 0.49148 0.0
C55 C 0.79405 0.13447 0.40348 0.0
C56 C 0.87736 0.17797 0.41298 0.0
C57 C 0.82604 0.17629 0.38002 0.0
N58 N 0.94626 0.1373 0.50161 0.0
C59 C 0.97773 0.17894 0.48322 0.0
C60 C 0.90998 0.2199 0.39233 0.0
C61 C 0.96028 0.22053 0.42791 0.0
Gd62 Gd 0.05071 0.95217 0.53442 0.0
Gd63 Gd 0.97389 0.06432 0.59092 0.0
N64 N 0.88539 0.05611 0.54608 0.0
C65 C 0.78126 0.0538 0.48786 0.0
C66 C 0.85258 0.02027 0.57743 0.0
C67 C 0.80075 0.01735 0.54767 0.0
H68 H 0.86555 0.99448 0.62641 0.0
H69 H 0.77558 0.98767 0.57173 0.0
H70 H 0.17332 0.99492 0.52021 0.0
H71 H 0.01668 0.17961 0.51056 0.0
H72 H 0.26257 0.97105 0.5787 0.0
H73 H 0.74094 0.0518 0.46523 0.0
H74 H 0.75417 0.13426 0.37837 0.0
H75 H 0.97947 0.84468 0.58286 0.0
H76 H 0.89657 0.25215 0.34944 0.0
H77 H 0.98562 0.25301 0.41272 0.0
H78 H 0.24255 0.81442 0.74929 0.0
H79 H 0.81037 0.20769 0.33727 0.0
H80 H 0.07355 0.73727 0.74506 0.0
H81 H 0.98877 0.76187 0.67114 0.0
N82 N 0.05657 0.86919 0.61054 0.0
C83 C 0.10441 0.85493 0.6477 0.0
C84 C 0.01595 0.83551 0.61655 0.0
C85 C 0.06938 0.77421 0.7072 0.0
C86 C 0.02142 0.78801 0.66571 0.0
C87 C 0.11193 0.80729 0.69762 0.0
H88 H 0.16811 0.75755 0.77442 0.0
N89 N 0.1379 0.93314 0.58549 0.0
C90 C 0.14627 0.88769 0.6345 0.0
C91 C 0.23891 0.9037 0.65006 0.0
C92 C 0.19686 0.87256 0.66946 0.0
C93 C 0.17918 0.96156 0.56316 0.0
C94 C 0.23012 0.94771 0.59563 0.0
O95 O 0.98695 0.07372 0.48376 0.0
O96 O 0.97903 0.99246 0.46455 0.0
O97 O 0.08543 0.96309 0.44299 0.0
O98 O 0.05261 0.88845 0.4859 0.0
O99 O 0.95628 0.97742 0.62769 0.0
O100 O 0.96548 0.94036 0.54062 0.0
O101 O 0.05896 0.94807 0.64642 0.0
O102 O 0.04688 0.03112 0.66072 0.0
O103 O 0.93321 0.06787 0.67433 0.0
O104 O 0.97988 0.1324 0.63268 0.0
O105 O 0.08989 0.03129 0.5226 0.0
O106 O 0.05532 0.09027 0.5726 0.0
C107 C 0.96979 0.04304 0.44483 0.0
C108 C 0.94314 0.942 0.59291 0.0
C109 C 0.05266 0.91169 0.36825 0.0
C110 C 0.06565 0.89064 0.2637 0.0
C111 C 0.98131 0.92286 0.2746 0.0
C112 C 1.00071 0.92624 0.34041 0.0
C113 C 0.01361 0.90527 0.23623 0.0
C114 C 0.08483 0.89343 0.33008 0.0
C115 C 0.07454 0.91609 0.43638 0.0
C116 C 0.2041 0.82617 0.7211 0.0
C117 C 0.16171 0.79372 0.73533 0.0
H118 H 0.27838 0.89328 0.67539 0.0
C119 C 0.06713 0.98378 0.68097 0.0
C120 C 0.09086 0.07597 0.54063 0.0
C121 C 0.97451 0.1157 0.74908 0.0
C122 C 0.96229 0.13214 0.85683 0.0
C123 C 0.04761 0.1064 0.84042 0.0
C124 C 0.02743 0.10401 0.77452 0.0
C125 C 0.01526 0.12029 0.88151 0.0
C126 C 0.94204 0.12988 0.79038 0.0
C127 C 0.9525 0.11255 0.68012 0.0
H128 H 0.94129 0.93427 0.25311 0.0
H129 H 0.97534 0.94026 0.36932 0.0
H130 H 0.99826 0.9035 0.18496 0.0
H131 H 0.12507 0.88239 0.35136 0.0
H132 H 0.08841 0.09726 0.85979 0.0
H133 H 0.05314 0.09308 0.74356 0.0
H134 H 0.03148 0.12182 0.9326 0.0
H135 H 0.90114 0.13897 0.77111 0.0
C136 C 0.65576 0.61627 0.08544 0.0
C137 C 0.62704 0.70669 0.05754 0.0
C138 C 0.61749 0.65301 0.08165 0.0
C139 C 0.67456 0.72246 0.03478 0.0
C140 C 0.70413 0.63194 0.06458 0.0
C141 C 0.71299 0.68516 0.03822 0.0
N142 N 0.64589 0.56504 0.11044 0.0
C143 C 0.68399 0.52788 0.12124 0.0
C144 C 0.74246 0.59366 0.07192 0.0
C145 C 0.73256 0.54147 0.10123 0.0
Gd146 Gd 0.46923 0.47742 0.0085 0.0
Gd147 Gd 0.56316 0.54501 0.14095 0.0
N148 N 0.57167 0.63645 0.10346 0.0
C149 C 0.58881 0.74301 0.05781 0.0
C150 C 0.53567 0.67206 0.10759 0.0
C151 C 0.54325 0.72561 0.08376 0.0
H152 H 0.5014 0.65978 0.13062 0.0
H153 H 0.51419 0.75347 0.08627 0.0
H154 H 0.5141 0.3551 0.06938 0.0
H155 H 0.67686 0.48769 0.14512 0.0
H156 H 0.48428 0.27009 0.13304 0.0
H157 H 0.59464 0.78456 0.03967 0.0
H158 H 0.68228 0.76347 0.01543 0.0
H159 H 0.36036 0.55422 0.94817 0.0
H160 H 0.78014 0.60411 0.05654 0.0
H161 H 0.76235 0.51173 0.10867 0.0
H162 H 0.30657 0.30402 0.15041 0.0
H163 H 0.74976 0.69795 0.02143 0.0
H164 H 0.23307 0.47266 0.03351 0.0
H165 H 0.26823 0.55176 0.96333 0.0
N166 N 0.3793 0.47909 0.01492 0.0
C167 C 0.35993 0.43406 0.05014 0.0
C168 C 0.34646 0.52024 0.98155 0.0
C169 C 0.27399 0.47383 0.02818 0.0
C170 C 0.29374 0.51863 0.98881 0.0
C171 C 0.30688 0.43044 0.05841 0.0
H172 H 0.24785 0.38046 0.10367 0.0
N173 N 0.44332 0.39503 0.0659 0.0
C174 C 0.39284 0.3908 0.07631 0.0
C175 C 0.4077 0.29964 0.13377 0.0
C176 C 0.37388 0.34314 0.11171 0.0
C177 C 0.47525 0.35192 0.08246 0.0
C178 C 0.45835 0.30385 0.11803 0.0
O179 O 0.58436 0.54965 0.03625 0.0
O180 O 0.50647 0.55448 0.9641 0.0
O181 O 0.4979 0.44036 0.9379 0.0
O182 O 0.41887 0.46977 0.91717 0.0
O183 O 0.48091 0.57846 0.10671 0.0
O184 O 0.44663 0.56073 1.00405 0.0
O185 O 0.48039 0.44332 0.12199 0.0
O186 O 0.48645 0.512 0.17048 0.0
O187 O 0.57477 0.58258 0.2244 0.0
O188 O 0.60445 0.50437 0.23993 0.0
O189 O 0.55407 0.4517 0.03577 0.0
O190 O 0.5818 0.46009 0.14511 0.0
C191 C 0.55599 0.56651 0.97615 0.0
C192 C 0.4462 0.58667 0.05105 0.0
C193 C 0.45992 0.47044 0.82356 0.0
C194 C 0.44275 0.4629 0.70726 0.0
C195 C 0.48552 0.53967 0.7333 0.0
C196 C 0.48227 0.51941 0.80184 0.0
C197 C 0.46568 0.51163 0.68598 0.0
C198 C 0.44028 0.44227 0.77615 0.0
C199 C 0.45494 0.4488 0.89488 0.0
C200 C 0.32171 0.34013 0.12263 0.0
C201 C 0.28827 0.38365 0.09596 0.0
H202 H 0.39464 0.26234 0.16122 0.0
C203 C 0.46659 0.46686 0.16546 0.0
C204 C 0.58422 0.43764 0.09501 0.0
C205 C 0.6479 0.5576 0.30892 0.0
C206 C 0.68608 0.58993 0.4067 0.0
C207 C 0.74152 0.56884 0.33218 0.0
C208 C 0.69791 0.55442 0.29229 0.0
C209 C 0.73573 0.58649 0.38906 0.0
C210 C 0.64216 0.57538 0.36641 0.0
C211 C 0.60114 0.54377 0.26656 0.0
H212 H 0.50299 0.57735 0.71677 0.0
H213 H 0.49677 0.54204 0.83764 0.0
H214 H 0.46789 0.52795 0.63289 0.0
H215 H 0.4224 0.40468 0.79257 0.0
H216 H 0.77997 0.56629 0.31897 0.0
H217 H 0.70338 0.54081 0.24867 0.0
H218 H 0.77001 0.59741 0.4195 0.0
H219 H 0.6037 0.57798 0.37978 0.0
C220 C 0.19342 0.182 0.55468 0.0
C221 C 0.19826 0.20249 0.48558 0.0
C222 C 0.15114 0.12636 0.45879 0.0
C223 C 0.13471 0.11365 0.52414 0.0
N224 N 0.14718 0.1264 0.63775 0.0
N225 N 0.18722 0.19069 0.37232 0.0
C226 C 0.15812 0.14056 0.57307 0.0
C227 C 0.17922 0.17328 0.43808 0.0
N228 N 0.22436 0.20065 0.6032 0.0
N229 N 0.14233 0.09344 0.41674 0.0
H230 H 0.21347 0.21999 0.35669 0.0
H231 H 0.16648 0.17721 0.33269 0.0
H232 H 0.12226 0.05881 0.42653 0.0
H233 H 0.15963 0.09781 0.37346 0.0
H234 H 0.2266 0.18416 0.65493 0.0
H235 H 0.25255 0.22882 0.59183 0.0
H236 H 0.15571 0.14953 0.67204 0.0
H237 H 0.12851 0.09196 0.65712 0.0
C238 C 0.34188 0.67679 0.0812 0.0
C239 C 0.31823 0.69951 0.01393 0.0
C240 C 0.38868 0.6612 0.97317 0.0
C241 C 0.40475 0.62866 0.03962 0.0
N242 N 0.39105 0.60479 0.15787 0.0
N243 N 0.32294 0.71871 0.89454 0.0
C244 C 0.38038 0.63669 0.09405 0.0
C245 C 0.34287 0.69341 0.95952 0.0
N246 N 0.32843 0.69427 0.13336 0.0
N247 N 0.41886 0.66407 0.92375 0.0
H248 H 0.29501 0.74864 0.88261 0.0
H249 H 0.33337 0.70922 0.85224 0.0
H250 H 0.45387 0.64369 0.9316 0.0
H251 H 0.41246 0.69105 0.8769 0.0
H252 H 0.34865 0.6834 0.18258 0.0
H253 H 0.3014 0.72438 0.12616 0.0
H254 H 0.3685 0.60482 0.19545 0.0
H255 H 0.41856 0.57487 0.17302 0.0
C256 C 0.86518 0.84969 0.71486 0.0
C257 C 0.82174 0.8382 0.66976 0.0
C258 C 0.86376 0.8844 0.57275 0.0
C259 C 0.90497 0.90005 0.61779 0.0
N260 N 0.95441 0.87938 0.73006 0.0
N261 N 0.78954 0.82903 0.55712 0.0
C262 C 0.90833 0.87749 0.6885 0.0
C263 C 0.82401 0.85088 0.59916 0.0
N264 N 0.86538 0.83415 0.7832 0.0
N265 N 0.86126 0.90204 0.50435 0.0
H266 H 0.75997 0.8042 0.57338 0.0
H267 H 0.79316 0.83121 0.50697 0.0
H268 H 0.89306 0.91594 0.48088 0.0
H269 H 0.82708 0.90226 0.47029 0.0
H270 H 0.8914 0.84822 0.8181 0.0
H271 H 0.83851 0.8082 0.80535 0.0
H272 H 0.96157 0.85968 0.781 0.0
H273 H 0.98791 0.89548 0.71176 0.0
C274 C 0.68783 0.35584 0.05384 0.0
C275 C 0.68843 0.30914 0.10615 0.0
C276 C 0.62421 0.34823 0.15552 0.0
C277 C 0.62379 0.39515 0.10377 0.0
N278 N 0.66861 0.44854 0.01796 0.0
N279 N 0.67394 0.27114 0.22098 0.0
C280 C 0.65966 0.40042 0.05716 0.0
C281 C 0.66206 0.30855 0.1617 0.0
N282 N 0.71336 0.35767 1.00018 0.0
N283 N 0.58668 0.33987 0.19631 0.0
H284 H 0.70442 0.24413 0.22948 0.0
H285 H 0.65835 0.27151 0.26444 0.0
H286 H 0.55646 0.36651 0.19044 0.0
H287 H 0.58227 0.3042 0.2304 0.0
H288 H 0.70826 0.38814 0.95648 0.0
H289 H 0.73761 0.32766 0.99748 0.0
H290 H 0.69839 0.45598 0.9885 0.0
H291 H 0.64974 0.48208 0.0205 0.0
C292 C 0.17232 0.89233 0.15551 0.0
C293 C 0.15811 0.84861 0.12897 0.0
C294 C 0.09249 0.82551 0.20443 0.0
C295 C 0.10053 0.87411 0.2218 0.0
N296 N 0.14522 0.95641 0.2096 0.0
N297 N 0.1042 0.77365 0.12576 0.0
C298 C 0.14024 0.90797 0.19703 0.0
C299 C 0.11852 0.81469 0.15348 0.0
N300 N 0.21635 0.91908 0.14022 0.0
N301 N 0.06049 0.78961 0.23729 0.0
H302 H 0.12382 0.76362 0.0902 0.0
H303 H 0.0714 0.75126 0.13531 0.0
H304 H 0.04108 0.79637 0.27503 0.0
H305 H 0.05674 0.75162 0.23151 0.0
H306 H 0.23164 0.94838 0.16287 0.0
H307 H 0.24046 0.90834 0.10969 0.0
H308 H 0.16945 0.98497 0.1865 0.0
H309 H 0.12203 0.96991 0.2389 0.0
C310 C 0.64726 0.58985 0.84391 0.0
C311 C 0.64234 0.64447 0.81552 0.0
C312 C 0.5819 0.64933 0.89507 0.0
C313 C 0.5829 0.59388 0.9179 0.0
N314 N 0.60392 0.51229 0.89526 0.0
N315 N 0.59761 0.72544 0.80648 0.0
C316 C 0.61194 0.56442 0.88691 0.0
C317 C 0.60763 0.67416 0.83909 0.0
N318 N 0.68693 0.56212 0.83186 0.0
N319 N 0.55681 0.67834 0.92708 0.0
H320 H 0.61512 0.74459 0.7651 0.0
H321 H 0.56874 0.74773 0.81664 0.0
H322 H 0.53717 0.66138 0.96723 0.0
H323 H 0.55888 0.71886 0.91743 0.0
H324 H 0.69473 0.52291 0.85635 0.0
H325 H 0.71555 0.57972 0.8038 0.0
H326 H 0.62004 0.49009 0.86796 0.0
H327 H 0.57695 0.49272 0.92423 0.0
C328 C 0.93596 0.14324 0.27638 0.0
C329 C 0.88781 0.1245 0.24963 0.0
C330 C 0.89234 0.05208 0.35102 0.0
C331 C 0.94292 0.06792 0.3751 0.0
N332 N 0.01713 0.12269 0.35293 0.0
N333 N 0.82375 0.05675 0.25529 0.0
C334 C 0.96591 0.11189 0.33546 0.0
C335 C 0.86725 0.07734 0.28489 0.0
N336 N 0.95262 0.1916 0.24618 0.0
N337 N 0.86647 0.01591 0.39314 0.0
H338 H 0.80345 0.07519 0.20782 0.0
H339 H 0.81026 0.01961 0.27543 0.0
H340 H 0.88152 1.00107 0.44387 0.0
H341 H 0.82778 1.00598 0.38064 0.0
H342 H 0.98415 0.20992 0.26814 0.0
H343 H 0.93229 0.21549 0.202 0.0
H344 H 0.03756 0.151 0.32256 0.0
H345 H 0.04067 0.09961 0.39461 0.0
C346 C 0.42875 0.36681 0.59567 0.0
C347 C 0.37811 0.38057 0.55879 0.0
C348 C 0.36768 0.44373 0.62509 0.0
C349 C 0.4202 0.43372 0.65709 0.0
N350 N 0.50275 0.3896 0.66996 0.0
N351 N 0.30068 0.43495 0.53268 0.0
C352 C 0.45129 0.39612 0.64179 0.0
C353 C 0.34774 0.4196 0.57222 0.0
N354 N 0.4548 0.3251 0.58722 0.0
N355 N 0.33671 0.47567 0.6461 0.0
H356 H 0.28413 0.41717 0.49474 0.0
H357 H 0.27944 0.46739 0.53431 0.0
H358 H 0.35036 0.49513 0.68344 0.0
H359 H 0.29663 0.48005 0.63026 0.0
H360 H 0.48953 0.30956 0.61728 0.0
H361 H 0.43953 0.30311 0.55336 0.0
H362 H 0.52914 0.36727 0.65526 0.0
H363 H 0.52021 0.40945 0.70527 0.0
C364 C 0.70453 0.59507 0.59138 0.0
C365 C 0.68557 0.64618 0.58587 0.0
C366 C 0.66423 0.66003 0.46236 0.0
C367 C 0.68108 0.60809 0.46839 0.0
N368 N 0.70608 0.52253 0.5392 0.0
N369 N 0.63816 0.7236 0.51861 0.0
C370 C 0.69764 0.57446 0.53322 0.0
C371 C 0.6625 0.67751 0.522 0.0
N372 N 0.7315 0.56716 0.65139 0.0
N373 N 0.65198 0.69331 0.39966 0.0
H374 H 0.63637 0.73757 0.56124 0.0
H375 H 0.61599 0.74575 0.47474 0.0
H376 H 0.652 0.68176 0.3549 0.0
H377 H 0.64532 0.73322 0.39184 0.0
H378 H 0.75127 0.5322 0.65666 0.0
H379 H 0.73805 0.58108 0.69489 0.0
H380 H 0.71295 0.49493 0.58553 0.0
H381 H 0.70135 0.50617 0.49762 0.0
C382 C 0.91191 0.207 0.96979 0.0
C383 C 0.87527 0.17141 0.99943 0.0
C384 C 0.89293 0.11107 0.93211 0.0
C385 C 0.92852 0.14731 0.90116 0.0
N386 N 0.96255 0.23447 0.87806 0.0
N387 N 0.82202 0.09572 0.99839 0.0
C388 C 0.93492 0.19688 0.91601 0.0
C389 C 0.86287 0.12541 0.97699 0.0
N390 N 0.92691 0.24897 0.99538 0.0
N391 N 0.88975 0.06205 0.92128 0.0
H392 H 0.79925 0.10539 0.03114 0.0
H393 H 0.80771 0.06446 0.97904 0.0
H394 H 0.91091 0.05011 0.88855 0.0
H395 H 0.86912 0.03195 0.94839 0.0
H396 H 0.95797 0.27267 0.98136 0.0
H397 H 0.91086 0.25805 0.03444 0.0
H398 H 0.96425 0.27305 0.88183 0.0
H399 H 0.97986 0.2283 0.83825 0.0
C400 C 0.43586 0.36618 0.32198 0.0
C401 C 0.38272 0.37785 0.32105 0.0
C402 C 0.38346 0.44723 0.21658 0.0
C403 C 0.43752 0.4371 0.21964 0.0
N404 N 0.51755 0.39678 0.28517 0.0
N405 N 0.30323 0.42383 0.26405 0.0
C406 C 0.4643 0.39882 0.27464 0.0
C407 C 0.35566 0.41678 0.26713 0.0
N408 N 0.45899 0.3233 0.3681 0.0
N409 N 0.35955 0.48783 0.16725 0.0
H410 H 0.28233 0.40256 0.30081 0.0
H411 H 0.27946 0.44801 0.22353 0.0
H412 H 0.37842 0.50962 0.12875 0.0
H413 H 0.32201 0.50161 0.16515 0.0
H414 H 0.49598 0.30937 0.36708 0.0
H415 H 0.43907 0.29854 0.40338 0.0
H416 H 0.53979 0.37352 0.32814 0.0
H417 H 0.53978 0.42264 0.25435 0.0
C418 C 0.18089 0.94305 0.8246 0.0
C419 C 0.153 0.92819 0.88042 0.0
C420 C 0.07223 0.96228 0.80707 0.0
C421 C 0.09758 0.96854 0.74978 0.0
N422 N 0.17834 0.98911 0.70637 0.0
N423 N 0.08973 0.97472 0.91889 0.0
C424 C 0.1529 0.96602 0.75892 0.0
C425 C 0.10292 0.95157 0.87167 0.0
N426 N 0.23397 0.93871 0.83529 0.0
N427 N 0.01954 0.96872 0.80059 0.0
H428 H 0.11781 0.98148 0.95778 0.0
H429 H 0.05449 0.99491 0.91238 0.0
H430 H 0.99541 0.97871 0.75387 0.0
H431 H 1.00015 0.96115 0.84259 0.0
H432 H 0.25632 0.94206 0.79676 0.0
H433 H 0.25548 0.93204 0.88384 0.0
H434 H 0.21857 0.99346 0.71076 0.0
H435 H 0.15841 0.00836 0.65918 0.0
loop_
_geom_bond_atom_site_label_1
_geom_bond_atom_site_label_2
_geom_bond_distance
_geom_bond_site_symmetry_2
_ccdc_geom_bond_type
H0 C7 0.929 . S
H1 C10 0.930 . S
H2 C12 0.929 . S
H3 C4 0.969 . S
C4 H3 0.969 . S
C4 O5 1.550 . S
C4 H6 0.973 . S
O5 C4 1.550 . S
O5 C11 1.412 . S
H6 C4 0.973 . S
C7 H0 0.929 . S
C7 C8 1.400 1_554 S
C7 C9 1.364 . S
C8 C7 1.400 1_556 S
C8 C12 1.377 . S
C9 C7 1.364 . S
C9 C10 1.374 . S
C10 H1 0.930 . S
C10 C9 1.374 . S
C10 C11 1.383 . S
C11 O5 1.412 . S
C11 C10 1.383 . S
C11 C12 1.394 1_554 S
C12 H2 0.929 . S
C12 C8 1.377 . S
C12 C11 1.394 1_556 S
H13 C20 0.929 . S
H14 C23 0.930 . S
H15 C25 0.929 . S
H16 C17 0.969 . S
C17 H16 0.969 . S
C17 O18 1.550 . S
C17 H19 0.973 . S
O18 C17 1.550 . S
O18 C24 1.412 . S
H19 C17 0.973 . S
C20 H13 0.929 . S
C20 C21 1.400 . S
C20 C22 1.364 . S
C21 C20 1.400 . S
C21 C25 1.377 . S
C22 C20 1.364 . S
C22 C23 1.374 . S
C23 H14 0.930 . S
C23 C22 1.374 . S
C23 C24 1.383 . S
C24 O18 1.412 . S
C24 C23 1.383 . S
C24 C25 1.394 . S
C25 H15 0.929 . S
C25 C21 1.377 . S
C25 C24 1.394 . S
H26 C33 0.929 . S
H27 C36 0.930 . S
H28 C38 0.929 . S
H29 C30 0.969 . S
C30 H29 0.969 . S
C30 O31 1.550 . S
C30 H32 0.973 . S
O31 C30 1.550 . S
O31 C37 1.412 . S
H32 C30 0.973 . S
C33 H26 0.929 . S
C33 C34 1.400 . S
C33 C35 1.364 . S
C34 C33 1.400 . S
C34 C38 1.377 . S
C35 C33 1.364 . S
C35 C36 1.374 . S
C36 H27 0.930 . S
C36 C35 1.374 . S
C36 C37 1.383 . S
C37 O31 1.412 . S
C37 C36 1.383 . S
C37 C38 1.394 . S
C38 H28 0.929 . S
C38 C34 1.377 . S
C38 C37 1.394 . S
H39 C46 0.929 . S
H40 C49 0.930 . S
H41 C51 0.929 . S
H42 C43 0.969 . S
C43 H42 0.969 . S
C43 O44 1.550 . S
C43 H45 0.973 . S
O44 C43 1.550 . S
O44 C50 1.412 . S
H45 C43 0.973 . S
C46 H39 0.929 . S
C46 C47 1.400 . S
C46 C48 1.364 . S
C47 C46 1.400 . S
C47 C51 1.377 . S
C48 C46 1.364 . S
C48 C49 1.374 . S
C49 H40 0.930 . S
C49 C48 1.374 . S
C49 C50 1.383 . S
C50 O44 1.412 . S
C50 C49 1.383 . S
C50 C51 1.394 . S
C51 H41 0.929 . S
C51 C47 1.377 . S
C51 C50 1.394 . S
C52 C54 1.422 . S
C52 C56 1.415 . S
C52 N58 1.369 . S
C53 C54 1.421 . S
C53 C55 1.417 . S
C53 C65 1.422 . S
C54 C52 1.422 . S
C54 C53 1.421 . S
C54 N64 1.359 . S
C55 C53 1.417 . S
C55 C57 1.329 . S
C55 H74 0.930 . S
C56 C52 1.415 . S
C56 C57 1.437 . S
C56 C60 1.413 . S
C57 C55 1.329 . S
C57 C56 1.437 . S
C57 H79 0.929 . S
N58 C52 1.369 . S
N58 C59 1.338 1_655 S
N58 Gd63 2.622 . S
C59 N58 1.338 1_455 S
C59 C61 1.378 . S
C59 H71 0.929 . S
C60 C56 1.413 . S
C60 C61 1.348 1_655 S
C60 H76 0.931 . S
C61 C59 1.378 . S
C61 C60 1.348 1_455 S
C61 H77 0.930 . S
Gd62 N82 2.622 . S
Gd62 N89 2.570 . S
Gd62 O96 2.353 1_465 S
Gd62 O97 2.468 . S
Gd62 O98 2.427 . S
Gd62 O100 2.388 1_455 S
Gd62 O101 2.386 . S
Gd62 O105 2.307 1_565 S
Gd62 C115 2.805 . S
Gd63 N58 2.622 . S
Gd63 N64 2.570 . S
Gd63 O95 2.386 . S
Gd63 O99 2.307 1_545 S
Gd63 O102 2.353 1_655 S
Gd63 O103 2.468 . S
Gd63 O104 2.427 . S
Gd63 O106 2.388 1_655 S
Gd63 C127 2.805 . S
N64 C54 1.359 . S
N64 Gd63 2.570 . S
N64 C66 1.343 . S
C65 C53 1.422 . S
C65 C67 1.321 . S
C65 H73 0.931 . S
C66 N64 1.343 . S
C66 C67 1.390 . S
C66 H68 0.931 . S
C67 C65 1.321 . S
C67 C66 1.390 . S
C67 H69 0.930 . S
H68 C66 0.931 . S
H69 C67 0.930 . S
H70 C93 0.931 . S
H71 C59 0.929 . S
H72 C94 0.930 . S
H73 C65 0.931 . S
H74 C55 0.930 . S
H75 C84 0.929 1_655 S
H76 C60 0.931 . S
H77 C61 0.930 . S
H78 C116 0.930 . S
H79 C57 0.929 . S
H80 C85 0.931 . S
H81 C86 0.930 1_655 S
N82 Gd62 2.622 . S
N82 C83 1.369 . S
N82 C84 1.338 . S
C83 N82 1.369 . S
C83 C87 1.415 . S
C83 C90 1.422 . S
C84 H75 0.929 1_455 S
C84 N82 1.338 . S
C84 C86 1.378 . S
C85 H80 0.931 . S
C85 C86 1.348 . S
C85 C87 1.413 . S
C86 H81 0.930 1_455 S
C86 C84 1.378 . S
C86 C85 1.348 . S
C87 C83 1.415 . S
C87 C85 1.413 . S
C87 C117 1.437 . S
H88 C117 0.929 . S
N89 Gd62 2.570 . S
N89 C90 1.359 . S
N89 C93 1.343 . S
C90 C83 1.422 . S
C90 N89 1.359 . S
C90 C92 1.421 . S
C91 C92 1.422 . S
C91 C94 1.321 . S
C91 H118 0.931 . S
C92 C90 1.421 . S
C92 C91 1.422 . S
C92 C116 1.417 . S
C93 H70 0.931 . S
C93 N89 1.343 . S
C93 C94 1.390 . S
C94 H72 0.930 . S
C94 C91 1.321 . S
C94 C93 1.390 . S
O95 Gd63 2.386 . S
O95 C107 1.265 . S
O96 Gd62 2.353 1_645 S
O96 C107 1.242 . S
O97 Gd62 2.468 . S
O97 C115 1.263 . S
O98 Gd62 2.427 . S
O98 C115 1.252 . S
O99 Gd63 2.307 1_565 S
O99 C108 1.261 . S
O100 Gd62 2.388 1_655 S
O100 C108 1.252 . S
O101 Gd62 2.386 . S
O101 C119 1.265 . S
O102 Gd63 2.353 1_455 S
O102 C119 1.242 1_545 S
O103 Gd63 2.468 . S
O103 C127 1.263 . S
O104 Gd63 2.427 . S
O104 C127 1.252 . S
O105 Gd62 2.307 1_545 S
O105 C120 1.261 . S
O106 Gd63 2.388 1_455 S
O106 C120 1.252 . S
C107 O95 1.265 . S
C107 O96 1.242 . S
C108 O99 1.261 . S
C108 O100 1.252 . S
C109 C112 1.394 . S
C109 C114 1.370 . S
C109 C115 1.500 . S
C110 C113 1.383 . S
C110 C114 1.395 . S
C111 C112 1.396 . S
C111 C113 1.365 . S
C111 H128 0.929 . S
C112 C109 1.394 . S
C112 C111 1.396 . S
C112 H129 0.930 . S
C113 C110 1.383 . S
C113 C111 1.365 . S
C113 H130 0.931 . S
C114 C109 1.370 . S
C114 C110 1.395 . S
C114 H131 0.930 . S
C115 Gd62 2.805 . S
C115 O97 1.263 . S
C115 O98 1.252 . S
C115 C109 1.500 . S
C116 H78 0.930 . S
C116 C92 1.417 . S
C116 C117 1.329 . S
C117 C87 1.437 . S
C117 H88 0.929 . S
C117 C116 1.329 . S
H118 C91 0.931 . S
C119 O101 1.265 . S
C119 O102 1.242 1_565 S
C120 O105 1.261 . S
C120 O106 1.252 . S
C121 C124 1.394 . S
C121 C126 1.370 . S
C121 C127 1.500 . S
C122 C125 1.383 . S
C122 C126 1.395 . S
C123 C124 1.396 . S
C123 C125 1.365 . S
C123 H132 0.929 . S
C124 C121 1.394 . S
C124 C123 1.396 . S
C124 H133 0.930 . S
C125 C122 1.383 . S
C125 C123 1.365 . S
C125 H134 0.931 . S
C126 C121 1.370 . S
C126 C122 1.395 . S
C126 H135 0.930 . S
C127 Gd63 2.805 . S
C127 O103 1.263 . S
C127 O104 1.252 . S
C127 C121 1.500 . S
H128 C111 0.929 . S
H129 C112 0.930 . S
H130 C113 0.931 . S
H131 C114 0.930 . S
H132 C123 0.929 . S
H133 C124 0.930 . S
H134 C125 0.931 . S
H135 C126 0.930 . S
C136 C138 1.422 . S
C136 C140 1.415 . S
C136 N142 1.369 . S
C137 C138 1.421 . S
C137 C139 1.417 . S
C137 C149 1.422 . S
C138 C136 1.422 . S
C138 C137 1.421 . S
C138 N148 1.359 . S
C139 C137 1.417 . S
C139 C141 1.329 . S
C139 H158 0.930 . S
C140 C136 1.415 . S
C140 C141 1.437 . S
C140 C144 1.413 . S
C141 C139 1.329 . S
C141 C140 1.437 . S
C141 H163 0.929 . S
N142 C136 1.369 . S
N142 C143 1.338 . S
N142 Gd147 2.622 . S
C143 N142 1.338 . S
C143 C145 1.378 . S
C143 H155 0.929 . S
C144 C140 1.413 . S
C144 C145 1.348 . S
C144 H160 0.931 . S
C145 C143 1.378 . S
C145 C144 1.348 . S
C145 H161 0.930 . S
Gd146 N166 2.622 . S
Gd146 N173 2.570 1_556 S
Gd146 O180 2.353 . S
Gd146 O181 2.468 . S
Gd146 O182 2.427 . S
Gd146 O184 2.388 1_556 S
Gd146 O185 2.386 1_556 S
Gd146 O189 2.307 1_556 S
Gd146 C199 2.805 . S
Gd147 N142 2.622 . S
Gd147 N148 2.570 . S
Gd147 O179 2.386 . S
Gd147 O183 2.307 . S
Gd147 O186 2.353 . S
Gd147 O187 2.468 . S
Gd147 O188 2.427 . S
Gd147 O190 2.388 . S
Gd147 C211 2.805 . S
N148 C138 1.359 . S
N148 Gd147 2.570 . S
N148 C150 1.343 . S
C149 C137 1.422 . S
C149 C151 1.321 . S
C149 H157 0.931 . S
C150 N148 1.343 . S
C150 C151 1.390 . S
C150 H152 0.931 . S
C151 C149 1.321 . S
C151 C150 1.390 . S
C151 H153 0.930 . S
H152 C150 0.931 . S
H153 C151 0.930 . S
H154 C177 0.931 . S
H155 C143 0.929 . S
H156 C178 0.930 . S
H157 C149 0.931 . S
H158 C139 0.930 . S
H159 C168 0.929 . S
H160 C144 0.931 . S
H161 C145 0.930 . S
H162 C200 0.930 . S
H163 C141 0.929 . S
H164 C169 0.931 . S
H165 C170 0.930 . S
N166 Gd146 2.622 . S
N166 C167 1.369 1_556 S
N166 C168 1.338 . S
C167 N166 1.369 1_554 S
C167 C171 1.415 . S
C167 C174 1.422 . S
C168 H159 0.929 . S
C168 N166 1.338 . S
C168 C170 1.378 . S
C169 H164 0.931 . S
C169 C170 1.348 1_554 S
C169 C171 1.413 . S
C170 H165 0.930 . S
C170 C168 1.378 . S
C170 C169 1.348 1_556 S
C171 C167 1.415 . S
C171 C169 1.413 . S
C171 C201 1.437 . S
H172 C201 0.929 . S
N173 Gd146 2.570 1_554 S
N173 C174 1.359 . S
N173 C177 1.343 . S
C174 C167 1.422 . S
C174 N173 1.359 . S
C174 C176 1.421 . S
C175 C176 1.422 . S
C175 C178 1.321 . S
C175 H202 0.931 . S
C176 C174 1.421 . S
C176 C175 1.422 . S
C176 C200 1.417 . S
C177 H154 0.931 . S
C177 N173 1.343 . S
C177 C178 1.390 . S
C178 H156 0.930 . S
C178 C175 1.321 . S
C178 C177 1.390 . S
O179 Gd147 2.386 . S
O179 C191 1.265 1_554 S
O180 Gd146 2.353 . S
O180 C191 1.242 . S
O181 Gd146 2.468 . S
O181 C199 1.263 . S
O182 Gd146 2.427 . S
O182 C199 1.252 . S
O183 Gd147 2.307 . S
O183 C192 1.261 . S
O184 Gd146 2.388 1_554 S
O184 C192 1.252 . S
O185 Gd146 2.386 1_554 S
O185 C203 1.265 . S
O186 Gd147 2.353 . S
O186 C203 1.242 . S
O187 Gd147 2.468 . S
O187 C211 1.263 . S
O188 Gd147 2.427 . S
O188 C211 1.252 . S
O189 Gd146 2.307 1_554 S
O189 C204 1.261 . S
O190 Gd147 2.388 . S
O190 C204 1.252 . S
C191 O179 1.265 1_556 S
C191 O180 1.242 . S
C192 O183 1.261 . S
C192 O184 1.252 . S
C193 C196 1.394 . S
C193 C198 1.370 . S
C193 C199 1.500 . S
C194 C197 1.383 . S
C194 C198 1.395 . S
C195 C196 1.396 . S
C195 C197 1.365 . S
C195 H212 0.929 . S
C196 C193 1.394 . S
C196 C195 1.396 . S
C196 H213 0.930 . S
C197 C194 1.383 . S
C197 C195 1.365 . S
C197 H214 0.931 . S
C198 C193 1.370 . S
C198 C194 1.395 . S
C198 H215 0.930 . S
C199 Gd146 2.805 . S
C199 O181 1.263 . S
C199 O182 1.252 . S
C199 C193 1.500 . S
C200 H162 0.930 . S
C200 C176 1.417 . S
C200 C201 1.329 . S
C201 C171 1.437 . S
C201 H172 0.929 . S
C201 C200 1.329 . S
H202 C175 0.931 . S
C203 O185 1.265 . S
C203 O186 1.242 . S
C204 O189 1.261 . S
C204 O190 1.252 . S
C205 C208 1.394 . S
C205 C210 1.370 . S
C205 C211 1.500 . S
C206 C209 1.383 . S
C206 C210 1.395 . S
C207 C208 1.396 . S
C207 C209 1.365 . S
C207 H216 0.929 . S
C208 C205 1.394 . S
C208 C207 1.396 . S
C208 H217 0.930 . S
C209 C206 1.383 . S
C209 C207 1.365 . S
C209 H218 0.931 . S
C210 C205 1.370 . S
C210 C206 1.395 . S
C210 H219 0.930 . S
C211 Gd147 2.805 . S
C211 O187 1.263 . S
C211 O188 1.252 . S
C211 C205 1.500 . S
H212 C195 0.929 . S
H213 C196 0.930 . S
H214 C197 0.931 . S
H215 C198 0.930 . S
H216 C207 0.929 . S
H217 C208 0.930 . S
H218 C209 0.931 . S
H219 C210 0.930 . S
C220 C221 1.363 . S
C220 C226 1.379 . S
C220 N228 1.356 . S
C221 C220 1.363 . S
C221 C227 1.363 . S
C222 C223 1.363 . S
C222 C227 1.379 . S
C222 N229 1.356 . S
C223 C222 1.363 . S
C223 C226 1.363 . S
N224 C226 1.356 . S
N224 H236 0.984 . S
N224 H237 0.985 . S
N225 C227 1.356 . S
N225 H230 0.984 . S
N225 H231 0.985 . S
C226 C220 1.379 . S
C226 C223 1.363 . S
C226 N224 1.356 . S
C227 C221 1.363 . S
C227 C222 1.379 . S
C227 N225 1.356 . S
N228 C220 1.356 . S
N228 H234 0.984 . S
N228 H235 0.984 . S
N229 C222 1.356 . S
N229 H232 0.984 . S
N229 H233 0.985 . S
H230 N225 0.984 . S
H231 N225 0.985 . S
H232 N229 0.984 . S
H233 N229 0.985 . S
H234 N228 0.984 . S
H235 N228 0.984 . S
H236 N224 0.984 . S
H237 N224 0.985 . S
C238 C239 1.363 . S
C238 C244 1.379 . S
C238 N246 1.356 . S
C239 C238 1.363 . S
C239 C245 1.363 . S
C240 C241 1.363 . S
C240 C245 1.379 . S
C240 N247 1.356 1_554 S
C241 C240 1.363 . S
C241 C244 1.363 . S
N242 C244 1.356 . S
N242 H254 0.984 . S
N242 H255 0.985 . S
N243 C245 1.356 1_556 S
N243 H248 0.984 . S
N243 H249 0.985 . S
C244 C238 1.379 . S
C244 C241 1.363 . S
C244 N242 1.356 . S
C245 C239 1.363 . S
C245 C240 1.379 . S
C245 N243 1.356 1_554 S
N246 C238 1.356 . S
N246 H252 0.984 . S
N246 H253 0.984 . S
N247 C240 1.356 1_556 S
N247 H250 0.984 . S
N247 H251 0.985 . S
H248 N243 0.984 . S
H249 N243 0.985 . S
H250 N247 0.984 . S
H251 N247 0.985 . S
H252 N246 0.984 . S
H253 N246 0.984 . S
H254 N242 0.984 . S
H255 N242 0.985 . S
C256 C257 1.363 . S
C256 C262 1.379 . S
C256 N264 1.356 . S
C257 C256 1.363 . S
C257 C263 1.363 . S
C258 C259 1.363 . S
C258 C263 1.379 . S
C258 N265 1.356 . S
C259 C258 1.363 . S
C259 C262 1.363 . S
N260 C262 1.356 . S
N260 H272 0.984 . S
N260 H273 0.985 . S
N261 C263 1.356 . S
N261 H266 0.984 . S
N261 H267 0.985 . S
C262 C256 1.379 . S
C262 C259 1.363 . S
C262 N260 1.356 . S
C263 C257 1.363 . S
C263 C258 1.379 . S
C263 N261 1.356 . S
N264 C256 1.356 . S
N264 H270 0.984 . S
N264 H271 0.984 . S
N265 C258 1.356 . S
N265 H268 0.984 . S
N265 H269 0.985 . S
H266 N261 0.984 . S
H267 N261 0.985 . S
H268 N265 0.984 . S
H269 N265 0.985 . S
H270 N264 0.984 . S
H271 N264 0.984 . S
H272 N260 0.984 . S
H273 N260 0.985 . S
C274 C275 1.363 . S
C274 C280 1.379 . S
C274 N282 1.356 1_554 S
C275 C274 1.363 . S
C275 C281 1.363 . S
C276 C277 1.363 . S
C276 C281 1.379 . S
C276 N283 1.356 . S
C277 C276 1.363 . S
C277 C280 1.363 . S
N278 C280 1.356 1_556 S
N278 H290 0.984 . S
N278 H291 0.985 . S
N279 C281 1.356 . S
N279 H284 0.984 . S
N279 H285 0.985 . S
C280 C274 1.379 . S
C280 C277 1.363 . S
C280 N278 1.356 1_554 S
C281 C275 1.363 . S
C281 C276 1.379 . S
C281 N279 1.356 . S
N282 C274 1.356 1_556 S
N282 H288 0.984 . S
N282 H289 0.984 . S
N283 C276 1.356 . S
N283 H286 0.984 . S
N283 H287 0.985 . S
H284 N279 0.984 . S
H285 N279 0.985 . S
H286 N283 0.984 . S
H287 N283 0.985 . S
H288 N282 0.984 . S
H289 N282 0.984 . S
H290 N278 0.984 . S
H291 N278 0.985 . S
C292 C293 1.363 . S
C292 C298 1.379 . S
C292 N300 1.356 . S
C293 C292 1.363 . S
C293 C299 1.363 . S
C294 C295 1.363 . S
C294 C299 1.379 . S
C294 N301 1.356 . S
C295 C294 1.363 . S
C295 C298 1.363 . S
N296 C298 1.356 1_545 S
N296 H308 0.984 . S
N296 H309 0.985 . S
N297 C299 1.356 . S
N297 H302 0.984 . S
N297 H303 0.985 . S
C298 C292 1.379 . S
C298 C295 1.363 . S
C298 N296 1.356 1_565 S
C299 C293 1.363 . S
C299 C294 1.379 . S
C299 N297 1.356 . S
N300 C292 1.356 . S
N300 H306 0.984 . S
N300 H307 0.984 . S
N301 C294 1.356 . S
N301 H304 0.984 . S
N301 H305 0.985 . S
H302 N297 0.984 . S
H303 N297 0.985 . S
H304 N301 0.984 . S
H305 N301 0.985 . S
H306 N300 0.984 . S
H307 N300 0.984 . S
H308 N296 0.984 . S
H309 N296 0.985 . S
C310 C311 1.363 . S
C310 C316 1.379 . S
C310 N318 1.356 . S
C311 C310 1.363 . S
C311 C317 1.363 . S
C312 C313 1.363 . S
C312 C317 1.379 . S
C312 N319 1.356 . S
C313 C312 1.363 . S
C313 C316 1.363 . S
N314 C316 1.356 . S
N314 H326 0.984 . S
N314 H327 0.985 . S
N315 C317 1.356 . S
N315 H320 0.984 . S
N315 H321 0.985 . S
C316 C310 1.379 . S
C316 C313 1.363 . S
C316 N314 1.356 . S
C317 C311 1.363 . S
C317 C312 1.379 . S
C317 N315 1.356 . S
N318 C310 1.356 . S
N318 H324 0.984 . S
N318 H325 0.984 . S
N319 C312 1.356 . S
N319 H322 0.984 . S
N319 H323 0.985 . S
H320 N315 0.984 . S
H321 N315 0.985 . S
H322 N319 0.984 . S
H323 N319 0.985 . S
H324 N318 0.984 . S
H325 N318 0.984 . S
H326 N314 0.984 . S
H327 N314 0.985 . S
C328 C329 1.363 . S
C328 C334 1.379 . S
C328 N336 1.356 . S
C329 C328 1.363 . S
C329 C335 1.363 . S
C330 C331 1.363 . S
C330 C335 1.379 . S
C330 N337 1.356 1_545 S
C331 C330 1.363 . S
C331 C334 1.363 . S
N332 C334 1.356 . S
N332 H344 0.984 . S
N332 H345 0.985 . S
N333 C335 1.356 . S
N333 H338 0.984 . S
N333 H339 0.985 1_545 S
C334 C328 1.379 . S
C334 C331 1.363 . S
C334 N332 1.356 . S
C335 C329 1.363 . S
C335 C330 1.379 . S
C335 N333 1.356 . S
N336 C328 1.356 . S
N336 H342 0.984 . S
N336 H343 0.984 . S
N337 C330 1.356 1_565 S
N337 H340 0.984 . S
N337 H341 0.985 . S
H338 N333 0.984 . S
H339 N333 0.985 1_565 S
H340 N337 0.984 . S
H341 N337 0.985 . S
H342 N336 0.984 . S
H343 N336 0.984 . S
H344 N332 0.984 . S
H345 N332 0.985 . S
C346 C347 1.363 . S
C346 C352 1.379 . S
C346 N354 1.356 . S
C347 C346 1.363 . S
C347 C353 1.363 . S
C348 C349 1.363 . S
C348 C353 1.379 . S
C348 N355 1.356 . S
C349 C348 1.363 . S
C349 C352 1.363 . S
N350 C352 1.356 . S
N350 H362 0.984 . S
N350 H363 0.985 . S
N351 C353 1.356 . S
N351 H356 0.984 . S
N351 H357 0.985 . S
C352 C346 1.379 . S
C352 C349 1.363 . S
C352 N350 1.356 . S
C353 C347 1.363 . S
C353 C348 1.379 . S
C353 N351 1.356 . S
N354 C346 1.356 . S
N354 H360 0.984 . S
N354 H361 0.984 . S
N355 C348 1.356 . S
N355 H358 0.984 . S
N355 H359 0.985 . S
H356 N351 0.984 . S
H357 N351 0.985 . S
H358 N355 0.984 . S
H359 N355 0.985 . S
H360 N354 0.984 . S
H361 N354 0.984 . S
H362 N350 0.984 . S
H363 N350 0.985 . S
C364 C365 1.363 . S
C364 C370 1.379 . S
C364 N372 1.356 . S
C365 C364 1.363 . S
C365 C371 1.363 . S
C366 C367 1.363 . S
C366 C371 1.379 . S
C366 N373 1.356 . S
C367 C366 1.363 . S
C367 C370 1.363 . S
N368 C370 1.356 . S
N368 H380 0.984 . S
N368 H381 0.985 . S
N369 C371 1.356 . S
N369 H374 0.984 . S
N369 H375 0.985 . S
C370 C364 1.379 . S
C370 C367 1.363 . S
C370 N368 1.356 . S
C371 C365 1.363 . S
C371 C366 1.379 . S
C371 N369 1.356 . S
N372 C364 1.356 . S
N372 H378 0.984 . S
N372 H379 0.984 . S
N373 C366 1.356 . S
N373 H376 0.984 . S
N373 H377 0.985 . S
H374 N369 0.984 . S
H375 N369 0.985 . S
H376 N373 0.984 . S
H377 N373 0.985 . S
H378 N372 0.984 . S
H379 N372 0.984 . S
H380 N368 0.984 . S
H381 N368 0.985 . S
C382 C383 1.363 . S
C382 C388 1.379 . S
C382 N390 1.356 . S
C383 C382 1.363 . S
C383 C389 1.363 1_556 S
C384 C385 1.363 . S
C384 C389 1.379 1_556 S
C384 N391 1.356 . S
C385 C384 1.363 . S
C385 C388 1.363 . S
N386 C388 1.356 . S
N386 H398 0.984 . S
N386 H399 0.985 . S
N387 C389 1.356 . S
N387 H392 0.984 . S
N387 H393 0.985 . S
C388 C382 1.379 . S
C388 C385 1.363 . S
C388 N386 1.356 . S
C389 C383 1.363 1_554 S
C389 C384 1.379 1_554 S
C389 N387 1.356 . S
N390 C382 1.356 . S
N390 H396 0.984 . S
N390 H397 0.984 . S
N391 C384 1.356 . S
N391 H394 0.984 . S
N391 H395 0.985 1_556 S
H392 N387 0.984 . S
H393 N387 0.985 . S
H394 N391 0.984 . S
H395 N391 0.985 1_554 S
H396 N390 0.984 . S
H397 N390 0.984 . S
H398 N386 0.984 . S
H399 N386 0.985 . S
C400 C401 1.363 . S
C400 C406 1.379 . S
C400 N408 1.356 . S
C401 C400 1.363 . S
C401 C407 1.363 . S
C402 C403 1.363 . S
C402 C407 1.379 . S
C402 N409 1.356 . S
C403 C402 1.363 . S
C403 C406 1.363 . S
N404 C406 1.356 . S
N404 H416 0.984 . S
N404 H417 0.985 . S
N405 C407 1.356 . S
N405 H410 0.984 . S
N405 H411 0.985 . S
C406 C400 1.379 . S
C406 C403 1.363 . S
C406 N404 1.356 . S
C407 C401 1.363 . S
C407 C402 1.379 . S
C407 N405 1.356 . S
N408 C400 1.356 . S
N408 H414 0.984 . S
N408 H415 0.984 . S
N409 C402 1.356 . S
N409 H412 0.984 . S
N409 H413 0.985 . S
H410 N405 0.984 . S
H411 N405 0.985 . S
H412 N409 0.984 . S
H413 N409 0.985 . S
H414 N408 0.984 . S
H415 N408 0.984 . S
H416 N404 0.984 . S
H417 N404 0.985 . S
C418 C419 1.363 . S
C418 C424 1.379 . S
C418 N426 1.356 . S
C419 C418 1.363 . S
C419 C425 1.363 . S
C420 C421 1.363 . S
C420 C425 1.379 . S
C420 N427 1.356 1_565 S
C421 C420 1.363 . S
C421 C424 1.363 . S
N422 C424 1.356 . S
N422 H434 0.984 . S
N422 H435 0.985 . S
N423 C425 1.356 . S
N423 H428 0.984 . S
N423 H429 0.985 . S
C424 C418 1.379 . S
C424 C421 1.363 . S
C424 N422 1.356 . S
C425 C419 1.363 . S
C425 C420 1.379 . S
C425 N423 1.356 . S
N426 C418 1.356 . S
N426 H432 0.984 . S
N426 H433 0.984 . S
N427 C420 1.356 1_545 S
N427 H430 0.984 . S
N427 H431 0.985 . S
H428 N423 0.984 . S
H429 N423 0.985 . S
H430 N427 0.984 . S
H431 N427 0.985 . S
H432 N426 0.984 . S
H433 N426 0.984 . S
H434 N422 0.984 . S
H435 N422 0.985 . S
C223 C120 1.634 . S
C221 C43 1.537 . S
C239 C4 1.577 . S
C241 C192 1.628 . S
C257 C17 1.575 . S
C259 C108 1.634 . S
C275 C30 1.631 . S
C277 C204 1.627 . S
C295 C110 1.379 . S
C293 C9 1.559 . S
C313 C191 1.653 . S
C311 C21 1.646 . S
C329 C34 1.615 . S
C331 C107 1.629 . S
C347 C48 1.571 . S
C349 C194 1.395 . S
C367 C206 1.395 . S
C365 C22 1.571 . S
C385 C122 1.379 . S
C383 C35 1.560 1_556 S
C403 C203 1.654 . S
C401 C47 1.642 . S
C419 C8 1.609 . S
C421 C119 1.629 . S
