# Generated by pormake.
# Topology ssa, (4,4)-cn, num edge types: 1
# Building blocks:
#     Node 0, Type 0, BuildingBlock: ESEHIV_clean_sbu_0, # of connection points: 4
#     Node 1, Type 0, BuildingBlock: ESEHIV_clean_sbu_0, # of connection points: 4
#     Node 2, Type 0, BuildingBlock: ESEHIV_clean_sbu_0, # of connection points: 4
#     Node 3, Type 0, BuildingBlock: ESEHIV_clean_sbu_0, # of connection points: 4
#     Node 4, Type 0, BuildingBlock: ESEHIV_clean_sbu_0, # of connection points: 4
#     Node 5, Type 0, BuildingBlock: ESEHIV_clean_sbu_0, # of connection points: 4
#     Node 6, Type 1, BuildingBlock: MUDLON_clean_linker_0, # of connection points: 4
#     Node 7, Type 1, BuildingBlock: MUDLON_clean_linker_0, # of connection points: 4
#     Node 8, Type 1, BuildingBlock: MUDLON_clean_linker_0, # of connection points: 4
#     Node 9, Type 1, BuildingBlock: MUDLON_clean_linker_0, # of connection points: 4
#     Node 10, Type 1, BuildingBlock: MUDLON_clean_linker_0, # of connection points: 4
#     Node 11, Type 1, BuildingBlock: MUDLON_clean_linker_0, # of connection points: 4
#     Edge 12, Type (0, 1), None
#     Edge 13, Type (0, 1), None
#     Edge 14, Type (0, 1), None
#     Edge 15, Type (0, 1), None
#     Edge 16, Type (0, 1), None
#     Edge 17, Type (0, 1), None
#     Edge 18, Type (0, 1), None
#     Edge 19, Type (0, 1), None
#     Edge 20, Type (0, 1), None
#     Edge 21, Type (0, 1), None
#     Edge 22, Type (0, 1), None
#     Edge 23, Type (0, 1), None
#     Edge 24, Type (0, 1), None
#     Edge 25, Type (0, 1), None
#     Edge 26, Type (0, 1), None
#     Edge 27, Type (0, 1), None
#     Edge 28, Type (0, 1), None
#     Edge 29, Type (0, 1), None
#     Edge 30, Type (0, 1), None
#     Edge 31, Type (0, 1), None
#     Edge 32, Type (0, 1), None
#     Edge 33, Type (0, 1), None
#     Edge 34, Type (0, 1), None
#     Edge 35, Type (0, 1), None
# Relax obj value: 0.012
# Max RMSD: 0.112
# Mean RMSD: 0.069
data_MOF--net-ssa--node1-ESEHIV_clean_sbu_0--node2-MUDLON_clean_linker_0--edge1-none
_symmetry_space_group_name_H-M    P1
_symmetry_Int_Tables_number       1
_symmetry_cell_setting            triclinic
loop_
_symmetry_equiv_pos_as_xyz
'x, y, z'
_cell_length_a     41.007785
_cell_length_b     44.353785
_cell_length_c     24.129268
_cell_angle_alpha  87.76548
_cell_angle_beta   91.021245
_cell_angle_gamma 123.14904
loop_
_atom_site_label
_atom_site_type_symbol
_atom_site_fract_x
_atom_site_fract_y
_atom_site_fract_z
_atom_type_partial_charge
Cu0 Cu 0.03857 0.53874 0.0121 0.0
N1 N 0.05109 0.52809 0.94515 0.0
N2 N 0.04224 0.49076 0.8786 0.0
C3 C 0.0267 0.49591 0.92301 0.0
C4 C 0.07805 0.52125 0.87225 0.0
C5 C 0.08346 0.54438 0.91356 0.0
O6 O 0.98938 0.53484 0.99633 0.0
C7 C 0.07115 0.50795 0.06714 0.0
O8 O 0.09914 0.53246 0.03435 0.0
H9 H 0.99865 0.47592 0.94107 0.0
H10 H 0.10951 0.57042 0.92121 0.0
N11 N 0.07602 0.58348 0.04108 0.0
N12 N 0.11046 0.62269 0.10706 0.0
C13 C 0.082 0.58855 0.09598 0.0
C14 C 0.10202 0.61556 0.01637 0.0
C15 C 0.12303 0.63998 0.05715 0.0
C16 C 0.99154 0.56155 0.97038 0.0
O17 O 0.0258 0.59177 0.96485 0.0
H18 H 0.06541 0.56757 0.12733 0.0
H19 H 0.10537 0.62086 0.97202 0.0
O20 O 0.03787 0.504 0.06465 0.0
H21 H 0.09896 0.52633 0.8405 0.0
H22 H 0.14604 0.66808 0.05068 0.0
Cu23 Cu 0.60597 0.03722 0.49741 0.0
N24 N 0.63964 0.03657 0.44627 0.0
N25 N 0.66051 1.01303 0.38655 0.0
C26 C 0.63298 1.00625 0.424 0.0
C27 C 0.68579 0.04919 0.38574 0.0
C28 C 0.67285 0.06362 0.42252 0.0
O29 O 0.55433 0.99509 0.48275 0.0
C30 C 0.65658 0.07211 0.58257 0.0
O31 O 0.67327 0.09592 0.54145 0.0
H32 H 0.608 0.9797 0.43477 0.0
H33 H 0.68637 0.09185 0.43047 0.0
N34 N 0.5996 0.07588 0.48936 0.0
N35 N 0.57868 0.10888 0.52224 0.0
C36 C 0.57216 0.07578 0.51924 0.0
C37 C 0.62415 0.11038 0.47167 0.0
C38 C 0.61155 0.13095 0.49274 0.0
C39 C 0.54438 0.99503 0.43234 0.0
O40 O 0.56855 0.02167 0.39833 0.0
H41 H 0.55045 0.05259 0.54386 0.0
H42 H 0.65136 0.12055 0.45025 0.0
O43 O 0.62622 0.04122 0.5728 0.0
H44 H 0.71112 0.06435 0.35908 0.0
H45 H 0.62689 0.16004 0.49027 0.0
Cu46 Cu 0.52562 0.4958 0.05317 0.0
N47 N 0.51632 0.45017 0.03938 0.0
N48 N 0.50733 0.405 0.9886 0.0
C49 C 0.51274 0.43785 0.98793 0.0
C50 C 0.50723 0.39596 0.04264 0.0
C51 C 0.51333 0.42414 0.07393 0.0
O52 O 0.55117 0.52493 0.98684 0.0
C53 C 0.45724 0.47007 0.11316 0.0
O54 O 0.46389 0.44513 0.12805 0.0
H55 H 0.51399 0.45272 0.95049 0.0
H56 H 0.51568 0.42559 0.11859 0.0
N57 N 0.56184 0.52127 0.10822 0.0
N58 N 0.60331 0.57118 0.1535 0.0
C59 C 0.57269 0.55506 0.1189 0.0
C60 C 0.58627 0.51541 0.1373 0.0
C61 C 0.61195 0.54628 0.16549 0.0
C62 C 0.58267 0.5267 0.97747 0.0
O63 O 0.593 0.50961 0.01171 0.0
H64 H 0.55936 0.5681 0.09932 0.0
H65 H 0.58641 0.49112 0.13633 0.0
O66 O 0.47887 0.49359 0.07594 0.0
H67 H 0.50374 0.37113 0.05822 0.0
H68 H 0.63526 0.55013 0.19236 0.0
Cu69 Cu 0.05471 0.55382 0.53326 0.0
N70 N 0.04987 0.54492 0.45826 0.0
N71 N 0.05755 0.52129 0.38388 0.0
C72 C 0.07399 0.53918 0.43044 0.0
C73 C 0.02177 0.51569 0.38184 0.0
C74 C 1.01715 0.53052 0.42789 0.0
O75 O 0.10911 0.58276 0.55579 0.0
C76 C 0.0322 0.48065 0.56275 0.0
O77 O 0.05557 0.48345 0.5235 0.0
H78 H 0.10089 0.54381 0.44753 0.0
H79 H 0.99048 0.52757 0.44129 0.0
N80 N 0.02659 0.57267 0.55741 0.0
N81 N 0.9863 0.5764 0.61373 0.0
C82 C 1.00766 0.56219 0.60636 0.0
C83 C 1.01684 0.59437 0.53252 0.0
C84 C 0.99218 0.597 0.56759 0.0
C85 C 0.14043 0.60617 0.53004 0.0
O86 O 0.17367 0.61862 0.55589 0.0
H87 H 1.00896 0.54378 0.63569 0.0
H88 H 0.02572 0.6063 0.49117 0.0
O89 O 0.02974 0.50733 0.57252 0.0
H90 H 0.99958 0.49955 0.35174 0.0
H91 H 0.97831 0.61155 0.55879 0.0
Cu92 Cu 0.54305 1.00356 0.00262 0.0
N93 N 0.51417 1.00126 0.94024 0.0
N94 N 0.49855 0.02347 0.86691 0.0
C95 C 0.52007 0.03107 0.91347 0.0
C96 C 0.47799 0.98713 0.86469 0.0
C97 C 0.48775 0.97353 0.90988 0.0
O98 O 0.59422 0.04746 0.98797 0.0
C99 C 0.48402 0.9704 0.07931 0.0
O100 O 0.47039 0.94685 0.03998 0.0
H101 H 0.54031 0.05791 0.92791 0.0
H102 H 0.47697 0.94555 0.91899 0.0
N103 N 0.55113 0.96596 0.01168 0.0
N104 N 0.57576 0.93705 0.0542 0.0
C105 C 0.57927 0.96885 0.04499 0.0
C106 C 0.52901 0.93096 0.99885 0.0
C107 C 0.54409 0.91298 0.02538 0.0
C108 C 0.61252 0.04394 0.94913 0.0
O109 O 0.59665 1.01255 0.92627 0.0
H110 H 0.60027 0.99343 0.0654 0.0
H111 H 0.5025 0.91883 0.97495 0.0
O112 O 0.51601 1.00071 0.07061 0.0
H113 H 0.45823 0.97143 0.83192 0.0
H114 H 0.53189 0.88431 0.02524 0.0
Cu115 Cu 0.52243 0.50698 0.52805 0.0
N116 N 0.56441 0.53376 0.48005 0.0
N117 N 0.60638 0.58208 0.42752 0.0
C118 C 0.56998 0.56193 0.44877 0.0
C119 C 0.62404 0.56517 0.44542 0.0
C120 C 0.59814 0.53552 0.47822 0.0
O121 O 0.4791 0.50705 0.4933 0.0
C122 C 0.56775 0.56212 0.60445 0.0
O123 O 0.57852 0.58516 0.56215 0.0
H124 H 0.54853 0.5689 0.44574 0.0
H125 H 0.60418 0.51781 0.50159 0.0
N126 N 0.51221 0.4609 0.5418 0.0
N127 N 0.5024 0.41401 0.59435 0.0
C128 C 0.49871 0.44242 0.59055 0.0
C129 C 0.52463 0.44344 0.51348 0.0
C130 C 0.51866 0.41446 0.54593 0.0
C131 C 0.45058 0.47968 0.47035 0.0
O132 O 0.44616 0.44816 0.47784 0.0
H133 H 0.48927 0.45134 0.62428 0.0
H134 H 0.53924 0.45245 0.47368 0.0
O135 O 0.53949 0.5296 0.59905 0.0
H136 H 0.65386 0.57398 0.437 0.0
H137 H 0.52702 0.39604 0.53566 0.0
H138 H 0.43829 0.54772 0.33037 0.0
N139 N 0.37702 0.49537 0.27753 0.0
H140 H 0.46979 0.54191 0.4136 0.0
H141 H 0.34822 0.43471 0.34473 0.0
H142 H 0.38026 0.42826 0.4268 0.0
H143 H 0.36753 0.43078 0.25545 0.0
H144 H 0.40127 0.42045 0.18454 0.0
H145 H 0.41996 0.5404 0.194 0.0
H146 H 0.45426 0.53019 0.12212 0.0
H147 H 0.35399 0.53899 0.29989 0.0
H148 H 0.31007 0.43046 0.25276 0.0
H149 H 0.28774 0.52602 0.29727 0.0
H150 H 0.24398 0.41754 0.24916 0.0
H151 H 0.15075 0.5222 0.27984 0.0
H152 H 0.12707 0.55234 0.33375 0.0
H153 H 0.01971 0.45032 0.36683 0.0
H154 H 0.04389 0.41976 0.3148 0.0
H155 H 0.03997 0.41861 0.20307 0.0
H156 H 0.02213 0.44416 0.12517 0.0
H157 H 0.1429 0.53123 0.10695 0.0
H158 H 0.16006 0.50693 0.18531 0.0
H159 H 0.16023 0.4769 0.3439 0.0
H160 H 0.22389 0.48589 0.34955 0.0
H161 H 0.20634 0.43776 0.19092 0.0
N162 N 0.10883 0.45064 0.25458 0.0
H163 H 0.14237 0.42937 0.18395 0.0
C164 C 0.39135 0.49168 0.33081 0.0
C165 C 0.42502 0.52177 0.35209 0.0
C166 C 0.44288 0.51838 0.39975 0.0
C167 C 0.42768 0.48453 0.42667 0.0
C168 C 0.39281 0.45466 0.40685 0.0
C169 C 0.37456 0.45826 0.35971 0.0
C170 C 0.39137 0.48662 0.23051 0.0
C171 C 0.38558 0.4525 0.22601 0.0
C172 C 0.40502 0.44659 0.18517 0.0
C173 C 0.43072 0.47456 0.14782 0.0
C174 C 0.43453 0.50799 0.14999 0.0
C175 C 0.41507 0.51392 0.19113 0.0
C176 C 0.33731 0.48605 0.27597 0.0
C177 C 0.33006 0.51239 0.28896 0.0
C178 C 0.29221 0.50488 0.28766 0.0
C179 C 0.26064 0.47078 0.27284 0.0
C180 C 0.26778 0.44419 0.26014 0.0
C181 C 0.30569 0.45159 0.26224 0.0
C182 C 0.09932 0.46837 0.29433 0.0
C183 C 0.12254 0.50611 0.29984 0.0
C184 C 0.10891 0.52339 0.32983 0.0
C185 C 0.07143 0.50357 0.35294 0.0
C186 C 0.04846 0.46605 0.34823 0.0
C187 C 0.06248 0.4486 0.3196 0.0
C188 C 0.10137 0.46046 0.20003 0.0
C189 C 0.06266 0.44267 0.18112 0.0
C190 C 0.0524 0.45748 0.13723 0.0
C191 C 0.081 0.48982 0.11047 0.0
C192 C 0.1201 0.5062 0.12673 0.0
C193 C 0.13013 0.49205 0.17136 0.0
C194 C 0.14679 0.45502 0.26093 0.0
C195 C 0.1699 0.46916 0.309 0.0
C196 C 0.20655 0.474 0.31281 0.0
C197 C 0.22061 0.46344 0.27006 0.0
C198 C 0.19654 0.44665 0.22425 0.0
C199 C 0.16005 0.44222 0.22003 0.0
H200 H 0.73307 0.08765 0.87595 0.0
N201 N 0.72982 0.12629 0.79213 0.0
H202 H 0.68254 0.05222 0.94633 0.0
H203 H 0.67115 0.13569 0.81723 0.0
H204 H 0.62089 0.10079 0.88855 0.0
H205 H 0.70819 0.15893 0.71509 0.0
H206 H 0.67692 0.13511 0.62618 0.0
H207 H 0.70277 0.06065 0.75468 0.0
H208 H 0.66965 0.0359 0.6659 0.0
H209 H 0.80092 0.14427 0.76566 0.0
H210 H 0.73614 0.19014 0.81026 0.0
H211 H 0.8596 0.2046 0.75284 0.0
H212 H 0.79496 0.25075 0.79918 0.0
H213 H 0.04756 0.41232 0.76463 0.0
H214 H 0.07836 0.46465 0.82377 0.0
H215 H 0.96507 0.44369 0.86159 0.0
H216 H 0.93464 0.39159 0.80297 0.0
H217 H 0.94346 0.41351 0.70242 0.0
H218 H 0.97056 0.46053 0.63025 0.0
H219 H 0.04498 0.4262 0.57697 0.0
H220 H 1.0176 0.37882 0.6504 0.0
H221 H 0.96699 0.31526 0.78116 0.0
H222 H 0.90799 0.25596 0.80034 0.0
H223 H 0.83852 0.29379 0.72966 0.0
N224 N 0.97325 0.37327 0.73447 0.0
H225 H 0.89734 0.35308 0.71239 0.0
C226 C 0.70596 0.11425 0.84146 0.0
C227 C 0.70963 0.09191 0.88012 0.0
C228 C 0.68093 0.0719 0.92047 0.0
C229 C 0.64835 0.0744 0.92348 0.0
C230 C 0.64638 0.09928 0.88814 0.0
C231 C 0.67497 0.11905 0.84715 0.0
C232 C 0.70892 0.11196 0.74097 0.0
C233 C 0.70018 0.13219 0.70488 0.0
C234 C 0.68205 0.11842 0.65417 0.0
C235 C 0.67113 0.08376 0.63922 0.0
C236 C 0.67769 0.06262 0.6766 0.0
C237 C 0.69679 0.07682 0.72692 0.0
C238 C 0.76424 0.1625 0.78942 0.0
C239 C 0.79959 0.16744 0.77358 0.0
C240 C 0.83316 0.20204 0.76648 0.0
C241 C 0.83231 0.23282 0.77516 0.0
C242 C 0.79677 0.22781 0.79155 0.0
C243 C 0.76307 0.19304 0.79852 0.0
C244 C 0.98882 0.3977 0.77975 0.0
C245 C 0.02937 0.41845 0.78713 0.0
C246 C 0.04697 0.44872 0.82 0.0
C247 C 0.02424 0.45865 0.84673 0.0
C248 C 0.98342 0.4367 0.84179 0.0
C249 C 0.96587 0.40661 0.80857 0.0
C250 C 0.97835 0.39224 0.68198 0.0
C251 C 0.96427 0.4148 0.67395 0.0
C252 C 0.98039 0.44227 0.63302 0.0
C253 C 1.01065 0.44767 0.59882 0.0
C254 C 0.02195 0.42293 0.60304 0.0
C255 C 1.006 0.39555 0.6445 0.0
C256 C 0.93712 0.33877 0.74476 0.0
C257 C 0.939 0.31073 0.76988 0.0
C258 C 0.90516 0.27674 0.78053 0.0
C259 C 0.86825 0.26975 0.76616 0.0
C260 C 0.86628 0.29811 0.74182 0.0
C261 C 0.90024 0.33224 0.73137 0.0
H262 H 0.59853 0.90841 0.28804 0.0
N263 N 0.66126 0.92137 0.22799 0.0
H264 H 0.59843 0.94842 0.35441 0.0
H265 H 0.72304 0.97918 0.27088 0.0
H266 H 0.7234 0.01943 0.33801 0.0
H267 H 0.68891 0.9732 0.14961 0.0
H268 H 0.65254 0.98039 0.0742 0.0
H269 H 0.58525 0.87221 0.20047 0.0
H270 H 0.5489 0.8791 0.12474 0.0
H271 H 0.61096 0.86156 0.29339 0.0
H272 H 0.70969 0.90707 0.18329 0.0
H273 H 0.60989 0.80586 0.30316 0.0
H274 H 0.70904 0.85162 0.19298 0.0
H275 H 0.59484 0.66182 0.31406 0.0
H276 H 0.56774 0.60962 0.37658 0.0
H277 H 0.68331 0.63192 0.40564 0.0
H278 H 0.7098 0.68339 0.34037 0.0
H279 H 0.7079 0.67226 0.23011 0.0
H280 H 0.67896 0.61513 0.18336 0.0
H281 H 0.57088 0.60973 0.16746 0.0
H282 H 0.59988 0.66664 0.21378 0.0
H283 H 0.65323 0.73094 0.35301 0.0
H284 H 0.6493 0.78338 0.34276 0.0
H285 H 0.66977 0.7888 0.16687 0.0
N286 N 0.66876 0.69847 0.2713 0.0
H287 H 0.67389 0.73617 0.17667 0.0
C288 C 0.66098 0.94058 0.27482 0.0
C289 C 0.62604 0.932 0.29983 0.0
C290 C 0.62605 0.95513 0.33782 0.0
C291 C 0.66093 0.98747 0.35145 0.0
C292 C 0.69597 0.99512 0.32799 0.0
C293 C 0.69591 0.97191 0.29018 0.0
C294 C 0.63997 0.92225 0.18045 0.0
C295 C 0.65852 0.95229 0.14377 0.0
C296 C 0.63774 0.95639 0.10098 0.0
C297 C 0.59796 0.9303 0.09371 0.0
C298 C 0.57965 0.89936 0.129 0.0
C299 C 0.60039 0.89549 0.17239 0.0
C300 C 0.66078 0.88878 0.23788 0.0
C301 C 0.63268 0.8598 0.27175 0.0
C302 C 0.63209 0.82787 0.27727 0.0
C303 C 0.65924 0.8241 0.2486 0.0
C304 C 0.68731 0.85327 0.21499 0.0
C305 C 0.688 0.88513 0.20982 0.0
C306 C 0.65446 0.67639 0.3219 0.0
C307 C 0.61448 0.65604 0.335 0.0
C308 C 0.59896 0.62584 0.37084 0.0
C309 C 0.62305 0.61555 0.39535 0.0
C310 C 0.66353 0.63809 0.38641 0.0
C311 C 0.67898 0.66814 0.35004 0.0
C312 C 0.65621 0.67382 0.22609 0.0
C313 C 0.67848 0.65949 0.21444 0.0
C314 C 0.66163 0.62642 0.18887 0.0
C315 C 0.62228 0.60733 0.17323 0.0
C316 C 0.6012 0.62357 0.17933 0.0
C317 C 0.61793 0.65645 0.20542 0.0
C318 C 0.66154 0.7273 0.26502 0.0
C319 C 0.65551 0.74218 0.31158 0.0
C320 C 0.65349 0.77267 0.30591 0.0
C321 C 0.65879 0.79019 0.25396 0.0
C322 C 0.66547 0.77598 0.20759 0.0
C323 C 0.66724 0.74534 0.21313 0.0
H324 H 0.94234 0.60692 0.84204 0.0
N325 N 0.88552 0.54315 0.79873 0.0
H326 H 0.9871 0.61429 0.91625 0.0
H327 H 0.87803 0.49177 0.86911 0.0
H328 H 0.92303 0.49875 0.94354 0.0
H329 H 0.90013 0.49907 0.74962 0.0
H330 H 0.94314 0.51276 0.6704 0.0
H331 H 0.92769 0.60787 0.74072 0.0
H332 H 0.97053 0.62164 0.66067 0.0
H333 H 0.86873 0.57887 0.87445 0.0
H334 H 0.83771 0.53122 0.71352 0.0
H335 H 0.8203 0.59387 0.86432 0.0
H336 H 0.79065 0.548 0.70216 0.0
H337 H 0.63733 0.61724 0.83919 0.0
H338 H 0.59487 0.58697 0.92077 0.0
H339 H 0.62444 0.5073 0.92271 0.0
H340 H 0.6649 0.536 0.84194 0.0
H341 H 0.61335 0.52893 0.75627 0.0
H342 H 0.56609 0.51572 0.68366 0.0
H343 H 0.6307 0.62834 0.63172 0.0
H344 H 0.6779 0.64154 0.7061 0.0
H345 H 0.74829 0.63982 0.81909 0.0
H346 H 0.80201 0.63071 0.81989 0.0
H347 H 0.72976 0.53199 0.73261 0.0
N348 N 0.67601 0.59559 0.78269 0.0
H349 H 0.67751 0.54212 0.72979 0.0
C350 C 0.90675 0.54872 0.84995 0.0
C351 C 0.93723 0.58326 0.86503 0.0
C352 C 0.96284 0.58735 0.90757 0.0
C353 C 0.95892 0.55705 0.93562 0.0
C354 C 0.92683 0.52265 0.9231 0.0
C355 C 0.90108 0.51861 0.88057 0.0
C356 C 0.91046 0.55221 0.75088 0.0
C357 C 0.91537 0.52585 0.73035 0.0
C358 C 0.94009 0.5338 0.68534 0.0
C359 C 0.96026 0.56833 0.65945 0.0
C360 C 0.95509 0.59477 0.67958 0.0
C361 C 0.93077 0.58695 0.72535 0.0
C362 C 0.85829 0.55456 0.7939 0.0
C363 C 0.85248 0.57229 0.8362 0.0
C364 C 0.82452 0.58112 0.8303 0.0
C365 C 0.80148 0.57249 0.78218 0.0
C366 C 0.80732 0.55482 0.74013 0.0
C367 C 0.83475 0.54555 0.74634 0.0
C368 C 0.65521 0.57971 0.83452 0.0
C369 C 0.63491 0.59347 0.85778 0.0
C370 C 0.61037 0.57601 0.90371 0.0
C371 C 0.60652 0.54492 0.9277 0.0
C372 C 0.62717 0.53145 0.90514 0.0
C373 C 0.65081 0.54826 0.85882 0.0
C374 C 0.64962 0.5864 0.73642 0.0
C375 C 0.61754 0.55089 0.72937 0.0
C376 C 0.59012 0.5434 0.68812 0.0
C377 C 0.59427 0.57107 0.6523 0.0
C378 C 0.62644 0.60648 0.65902 0.0
C379 C 0.65372 0.61403 0.70088 0.0
C380 C 0.70873 0.59202 0.77428 0.0
C381 C 0.74451 0.61673 0.79891 0.0
C382 C 0.775 0.61113 0.80004 0.0
C383 C 0.77035 0.58035 0.77687 0.0
C384 C 0.73493 0.55631 0.75023 0.0
C385 C 0.70466 0.56213 0.74858 0.0
H386 H 0.20165 0.6534 0.36017 0.0
N387 N 0.1601 0.68161 0.32234 0.0
H388 H 0.19257 0.62113 0.4489 0.0
H389 H 0.10126 0.65729 0.39418 0.0
H390 H 0.09214 0.62478 0.48353 0.0
H391 H 0.14787 0.71138 0.23308 0.0
H392 H 0.12795 0.68725 0.14012 0.0
H393 H 0.14359 0.61543 0.28843 0.0
H394 H 0.12226 0.59106 0.19635 0.0
H395 H 0.22884 0.69621 0.27948 0.0
H396 H 0.17629 0.74278 0.36513 0.0
H397 H 0.29097 0.75475 0.27558 0.0
H398 H 0.23844 0.80134 0.36258 0.0
H399 H 0.47288 0.91352 0.29932 0.0
H400 H 0.52959 0.94411 0.36026 0.0
H401 H 0.4751 0.98717 0.45074 0.0
H402 H 0.41858 0.95726 0.38859 0.0
H403 H 0.45301 0.99107 0.25339 0.0
H404 H 0.48493 1.0122 0.16188 0.0
H405 H 0.44054 0.90217 0.12218 0.0
H406 H 0.41061 0.88156 0.21305 0.0
H407 H 0.40553 0.85899 0.3199 0.0
H408 H 0.34486 0.79976 0.32986 0.0
H409 H 0.27937 0.84845 0.29585 0.0
N410 N 0.4127 0.92356 0.29618 0.0
H411 H 0.34029 0.90772 0.2874 0.0
C412 C 0.15228 0.65813 0.37062 0.0
C413 C 0.1773 0.64686 0.38627 0.0
C414 C 0.17197 0.62827 0.43698 0.0
C415 C 0.14131 0.62013 0.47287 0.0
C416 C 0.11528 0.62989 0.4561 0.0
C417 C 0.12072 0.6487 0.40537 0.0
C418 C 0.14745 0.66561 0.2684 0.0
C419 C 0.14262 0.68517 0.2254 0.0
C420 C 0.13143 0.67152 0.17228 0.0
C421 C 0.12367 0.6374 0.16116 0.0
C422 C 0.12795 0.61743 0.20404 0.0
C423 C 0.14021 0.6315 0.25693 0.0
C424 C 0.19784 0.71522 0.32248 0.0
C425 C 0.23085 0.71898 0.29809 0.0
C426 C 0.26642 0.75251 0.29608 0.0
C427 C 0.26979 0.78297 0.31846 0.0
C428 C 0.23685 0.77873 0.34403 0.0
C429 C 0.20136 0.74525 0.34594 0.0
C430 C 0.44173 0.93369 0.33891 0.0
C431 C 0.47243 0.92848 0.33337 0.0
C432 C 0.50464 0.94564 0.36851 0.0
C433 C 0.5062 0.96735 0.41059 0.0
C434 C 0.47401 0.96977 0.41945 0.0
C435 C 0.44199 0.95304 0.38373 0.0
C436 C 0.4287 0.93466 0.2404 0.0
C437 C 0.45001 0.97155 0.22465 0.0
C438 C 0.46836 0.98363 0.17257 0.0
C439 C 0.46495 0.95887 0.13464 0.0
C440 C 0.44329 0.92197 0.15014 0.0
C441 C 0.42592 0.91004 0.2025 0.0
C442 C 0.37747 0.88804 0.30339 0.0
C443 C 0.37817 0.85703 0.31519 0.0
C444 C 0.34334 0.82302 0.32036 0.0
C445 C 0.30706 0.81919 0.31386 0.0
C446 C 0.30662 0.85032 0.30211 0.0
C447 C 0.3414 0.88424 0.29694 0.0
H448 H 0.47046 0.09244 0.60705 0.0
N449 N 0.50212 0.12195 0.70321 0.0
H450 H 0.50327 0.08617 0.52806 0.0
H451 H 0.58096 0.15535 0.68963 0.0
H452 H 0.6137 0.15052 0.60977 0.0
H453 H 0.55604 0.13749 0.7836 0.0
H454 H 0.55507 0.09505 0.85219 0.0
H455 H 0.44576 0.05301 0.72006 0.0
H456 H 0.44345 1.01036 0.78982 0.0
H457 H 0.43841 0.11834 0.73433 0.0
H458 H 0.56188 0.19342 0.71108 0.0
H459 H 0.43214 0.16709 0.76275 0.0
H460 H 0.55569 0.24277 0.73569 0.0
H461 H 0.43181 0.35072 0.75149 0.0
H462 H 0.44284 0.38794 0.66694 0.0
H463 H 0.54694 0.39002 0.63283 0.0
H464 H 0.5366 0.35392 0.71797 0.0
H465 H 0.53883 0.39536 0.81067 0.0
H466 H 0.55077 0.4287 0.8952 0.0
H467 H 0.45256 0.33464 0.97442 0.0
H468 H 0.43912 0.30157 0.88856 0.0
H469 H 0.42402 0.26488 0.74635 0.0
H470 H 0.43147 0.21554 0.72664 0.0
H471 H 0.54501 0.27265 0.80383 0.0
N472 N 0.4755 0.32719 0.79086 0.0
H473 H 0.53787 0.32296 0.82027 0.0
C474 C 0.52316 0.12495 0.65379 0.0
C475 C 0.50188 0.10614 0.60715 0.0
C476 C 0.52052 0.1026 0.56222 0.0
C477 C 0.56094 0.11855 0.56263 0.0
C478 C 0.58264 0.13894 0.60801 0.0
C479 C 0.56387 0.14173 0.65361 0.0
C480 C 0.50098 0.09824 0.74674 0.0
C481 C 0.53145 0.10978 0.78487 0.0
C482 C 0.5306 0.08537 0.82441 0.0
C483 C 0.49911 0.04895 0.82686 0.0
C484 C 0.4684 0.03786 0.78896 0.0
C485 C 0.46945 0.06225 0.74932 0.0
C486 C 0.5003 0.15201 0.71949 0.0
C487 C 0.46412 0.14548 0.73474 0.0
C488 C 0.46063 0.17357 0.75059 0.0
C489 C 0.49329 0.20932 0.75081 0.0
C490 C 0.52984 0.21572 0.73658 0.0
C491 C 0.53339 0.18736 0.72165 0.0
C492 C 0.48295 0.34911 0.7408 0.0
C493 C 0.45697 0.35923 0.7257 0.0
C494 C 0.46328 0.3804 0.67758 0.0
C495 C 0.49543 0.39141 0.64308 0.0
C496 C 0.52151 0.38128 0.65811 0.0
C497 C 0.51565 0.36073 0.70687 0.0
C498 C 0.48742 0.34587 0.84267 0.0
C499 C 0.5198 0.38164 0.84601 0.0
C500 C 0.52669 0.40078 0.89434 0.0
C501 C 0.50234 0.38426 0.94097 0.0
C502 C 0.47172 0.34789 0.93901 0.0
C503 C 0.46409 0.32905 0.89011 0.0
C504 C 0.47999 0.2973 0.78537 0.0
C505 C 0.45031 0.26649 0.7595 0.0
C506 C 0.45465 0.23817 0.74857 0.0
C507 C 0.48878 0.23963 0.76395 0.0
C508 C 0.51848 0.27053 0.79071 0.0
C509 C 0.51427 0.2992 0.80091 0.0
loop_
_geom_bond_atom_site_label_1
_geom_bond_atom_site_label_2
_geom_bond_distance
_geom_bond_site_symmetry_2
_ccdc_geom_bond_type
Cu0 N1 1.999 . S
Cu0 O6 1.974 . S
Cu0 N11 1.985 1_655 S
Cu0 O20 1.959 1_655 S
N1 Cu0 1.999 . S
N1 C3 1.272 . S
N1 C5 1.389 . S
N2 C3 1.356 1_556 S
N2 C4 1.400 1_556 S
C3 N1 1.272 . S
C3 N2 1.356 1_554 S
C3 H9 0.923 1_554 S
C4 N2 1.400 1_554 S
C4 C5 1.351 . S
C4 H21 0.930 . S
C5 N1 1.389 . S
C5 C4 1.351 . S
C5 H10 0.930 . S
O6 Cu0 1.974 . S
O6 C16 1.282 1_554 S
C7 O8 1.261 . S
C7 O20 1.251 . S
O8 C7 1.261 . S
H9 C3 0.923 1_556 S
H10 C5 0.930 . S
N11 Cu0 1.985 1_455 S
N11 C13 1.335 . S
N11 C14 1.390 . S
N12 C13 1.345 . S
N12 C15 1.336 . S
C13 N11 1.335 . S
C13 N12 1.345 . S
C13 H18 0.930 . S
C14 N11 1.390 . S
C14 C15 1.346 . S
C14 H19 0.930 . S
C15 N12 1.336 . S
C15 C14 1.346 . S
C15 H22 0.929 . S
C16 O6 1.282 1_556 S
C16 O17 1.216 . S
O17 C16 1.216 . S
H18 C13 0.930 . S
H19 C14 0.930 . S
O20 Cu0 1.959 1_455 S
O20 C7 1.251 . S
H21 C4 0.930 . S
H22 C15 0.929 . S
Cu23 N24 1.999 . S
Cu23 O29 1.974 . S
Cu23 N34 1.985 1_565 S
Cu23 O43 1.959 1_565 S
N24 Cu23 1.999 . S
N24 C26 1.263 . S
N24 C28 1.389 . S
N25 C26 1.358 . S
N25 C27 1.400 . S
C26 N24 1.263 . S
C26 N25 1.358 . S
C26 H32 0.930 . S
C27 N25 1.400 . S
C27 C28 1.351 . S
C27 H44 0.930 . S
C28 N24 1.389 . S
C28 C27 1.351 . S
C28 H33 0.930 . S
O29 Cu23 1.974 . S
O29 C39 1.282 . S
C30 O31 1.261 . S
C30 O43 1.251 . S
O31 C30 1.261 . S
H32 C26 0.930 . S
H33 C28 0.930 . S
N34 Cu23 1.985 1_545 S
N34 C36 1.335 . S
N34 C37 1.390 . S
N35 C36 1.345 . S
N35 C38 1.336 . S
C36 N34 1.335 . S
C36 N35 1.345 . S
C36 H41 0.930 . S
C37 N34 1.390 . S
C37 C38 1.346 . S
C37 H42 0.930 . S
C38 N35 1.336 . S
C38 C37 1.346 . S
C38 H45 0.929 . S
C39 O29 1.282 . S
C39 O40 1.216 . S
O40 C39 1.216 . S
H41 C36 0.930 . S
H42 C37 0.930 . S
O43 Cu23 1.959 1_545 S
O43 C30 1.251 . S
H44 C27 0.930 . S
H45 C38 0.929 . S
Cu46 N47 1.999 . S
Cu46 O52 1.974 . S
Cu46 N57 1.985 1_556 S
Cu46 O66 1.959 1_556 S
N47 Cu46 1.999 . S
N47 C49 1.263 . S
N47 C51 1.389 . S
N48 C49 1.358 . S
N48 C50 1.400 . S
C49 N47 1.263 . S
C49 N48 1.358 . S
C49 H55 0.930 . S
C50 N48 1.400 . S
C50 C51 1.351 . S
C50 H67 0.930 . S
C51 N47 1.389 . S
C51 C50 1.351 . S
C51 H56 0.930 . S
O52 Cu46 1.974 . S
O52 C62 1.282 . S
C53 O54 1.261 . S
C53 O66 1.251 . S
O54 C53 1.261 . S
H55 C49 0.930 . S
H56 C51 0.930 . S
N57 Cu46 1.985 1_554 S
N57 C59 1.335 . S
N57 C60 1.390 . S
N58 C59 1.345 . S
N58 C61 1.336 . S
C59 N57 1.335 . S
C59 N58 1.345 . S
C59 H64 0.930 . S
C60 N57 1.390 . S
C60 C61 1.346 . S
C60 H65 0.930 . S
C61 N58 1.336 . S
C61 C60 1.346 . S
C61 H68 0.929 . S
C62 O52 1.282 . S
C62 O63 1.216 1_556 S
O63 C62 1.216 1_554 S
H64 C59 0.930 . S
H65 C60 0.930 . S
O66 Cu46 1.959 1_554 S
O66 C53 1.251 . S
H67 C50 0.930 . S
H68 C61 0.929 . S
Cu69 N70 1.999 . S
Cu69 O75 1.974 . S
Cu69 N80 1.985 . S
Cu69 O89 1.959 . S
N70 Cu69 1.999 . S
N70 C72 1.263 . S
N70 C74 1.389 . S
N71 C72 1.358 . S
N71 C73 1.400 . S
C72 N70 1.263 . S
C72 N71 1.358 . S
C72 H78 0.930 . S
C73 N71 1.400 . S
C73 C74 1.351 . S
C73 H90 0.930 . S
C74 N70 1.389 . S
C74 C73 1.351 . S
C74 H79 0.930 . S
O75 Cu69 1.974 . S
O75 C85 1.282 . S
C76 O77 1.261 . S
C76 O89 1.251 . S
O77 C76 1.261 . S
H78 C72 0.930 . S
H79 C74 0.930 . S
N80 Cu69 1.985 . S
N80 C82 1.335 . S
N80 C83 1.390 . S
N81 C82 1.345 1_655 S
N81 C84 1.336 1_655 S
C82 N80 1.335 . S
C82 N81 1.345 1_455 S
C82 H87 0.930 1_455 S
C83 N80 1.390 . S
C83 C84 1.346 . S
C83 H88 0.930 . S
C84 N81 1.336 1_455 S
C84 C83 1.346 . S
C84 H91 0.929 . S
C85 O75 1.282 . S
C85 O86 1.216 . S
O86 C85 1.216 . S
H87 C82 0.930 1_655 S
H88 C83 0.930 . S
O89 Cu69 1.959 . S
O89 C76 1.251 . S
H90 C73 0.930 . S
H91 C84 0.929 . S
Cu92 N93 1.999 . S
Cu92 O98 1.974 1_554 S
Cu92 N103 1.985 1_545 S
Cu92 O112 1.959 1_545 S
N93 Cu92 1.999 . S
N93 C95 1.263 1_554 S
N93 C97 1.389 . S
N94 C95 1.358 . S
N94 C96 1.400 1_556 S
C95 N93 1.263 1_556 S
C95 N94 1.358 . S
C95 H101 0.930 . S
C96 N94 1.400 1_554 S
C96 C97 1.351 . S
C96 H113 0.930 . S
C97 N93 1.389 . S
C97 C96 1.351 . S
C97 H102 0.930 . S
O98 Cu92 1.974 1_556 S
O98 C108 1.282 . S
C99 O100 1.261 . S
C99 O112 1.251 . S
O100 C99 1.261 . S
H101 C95 0.930 . S
H102 C97 0.930 . S
N103 Cu92 1.985 1_565 S
N103 C105 1.335 . S
N103 C106 1.390 . S
N104 C105 1.345 . S
N104 C107 1.336 . S
C105 N103 1.335 . S
C105 N104 1.345 . S
C105 H110 0.930 . S
C106 N103 1.390 . S
C106 C107 1.346 . S
C106 H111 0.930 1_564 S
C107 N104 1.336 . S
C107 C106 1.346 . S
C107 H114 0.929 . S
C108 O98 1.282 . S
C108 O109 1.216 . S
O109 C108 1.216 . S
H110 C105 0.930 . S
H111 C106 0.930 1_546 S
O112 Cu92 1.959 1_565 S
O112 C99 1.251 . S
H113 C96 0.930 . S
H114 C107 0.929 . S
Cu115 N116 1.999 . S
Cu115 O121 1.974 . S
Cu115 N126 1.985 . S
Cu115 O135 1.959 . S
N116 Cu115 1.999 . S
N116 C118 1.263 . S
N116 C120 1.389 . S
N117 C118 1.358 . S
N117 C119 1.400 . S
C118 N116 1.263 . S
C118 N117 1.358 . S
C118 H124 0.930 . S
C119 N117 1.400 . S
C119 C120 1.351 . S
C119 H136 0.930 . S
C120 N116 1.389 . S
C120 C119 1.351 . S
C120 H125 0.930 . S
O121 Cu115 1.974 . S
O121 C131 1.282 . S
C122 O123 1.261 . S
C122 O135 1.251 . S
O123 C122 1.261 . S
H124 C118 0.930 . S
H125 C120 0.930 . S
N126 Cu115 1.985 . S
N126 C128 1.335 . S
N126 C129 1.390 . S
N127 C128 1.345 . S
N127 C130 1.336 . S
C128 N126 1.335 . S
C128 N127 1.345 . S
C128 H133 0.930 . S
C129 N126 1.390 . S
C129 C130 1.346 . S
C129 H134 0.930 . S
C130 N127 1.336 . S
C130 C129 1.346 . S
C130 H137 0.929 . S
C131 O121 1.282 . S
C131 O132 1.216 . S
O132 C131 1.216 . S
H133 C128 0.930 . S
H134 C129 0.930 . S
O135 Cu115 1.959 . S
O135 C122 1.251 . S
H136 C119 0.930 . S
H137 C130 0.929 . S
H138 C165 0.929 . S
N139 C164 1.433 . S
N139 C170 1.435 . S
N139 C176 1.423 . S
H140 C166 0.930 . S
H141 C169 0.931 . S
H142 C168 0.929 . S
H143 C171 0.930 . S
H144 C172 0.932 . S
H145 C175 0.929 . S
H146 C174 0.931 . S
H147 C177 0.929 . S
H148 C181 0.932 . S
H149 C178 0.931 . S
H150 C180 0.929 . S
H151 C183 0.929 . S
H152 C184 0.930 . S
H153 C186 0.929 . S
H154 C187 0.931 . S
H155 C189 0.930 . S
H156 C190 0.932 . S
H157 C192 0.931 . S
H158 C193 0.929 . S
H159 C195 0.929 . S
H160 C196 0.931 . S
H161 C198 0.929 . S
N162 C182 1.433 . S
N162 C188 1.435 . S
N162 C194 1.423 . S
H163 C199 0.932 . S
C164 N139 1.433 . S
C164 C165 1.363 . S
C164 C169 1.370 . S
C165 H138 0.929 . S
C165 C164 1.363 . S
C165 C166 1.385 . S
C166 H140 0.930 . S
C166 C165 1.385 . S
C166 C167 1.357 . S
C167 C166 1.357 . S
C167 C168 1.406 . S
C168 H142 0.929 . S
C168 C167 1.406 . S
C168 C169 1.391 . S
C169 H141 0.931 . S
C169 C164 1.370 . S
C169 C168 1.391 . S
C170 N139 1.435 . S
C170 C171 1.358 . S
C170 C175 1.371 . S
C171 H143 0.930 . S
C171 C170 1.358 . S
C171 C172 1.405 . S
C172 H144 0.932 . S
C172 C171 1.405 . S
C172 C173 1.383 . S
C173 C172 1.383 . S
C173 C174 1.393 . S
C174 H146 0.931 . S
C174 C173 1.393 . S
C174 C175 1.382 . S
C175 H145 0.929 . S
C175 C170 1.371 . S
C175 C174 1.382 . S
C176 N139 1.423 . S
C176 C177 1.362 . S
C176 C181 1.388 . S
C177 H147 0.929 . S
C177 C176 1.362 . S
C177 C178 1.376 . S
C178 H149 0.931 . S
C178 C177 1.376 . S
C178 C179 1.396 . S
C179 C178 1.396 . S
C179 C180 1.348 . S
C179 C197 1.472 . S
C180 H150 0.929 . S
C180 C179 1.348 . S
C180 C181 1.443 . S
C181 H148 0.932 . S
C181 C176 1.388 . S
C181 C180 1.443 . S
C182 N162 1.433 . S
C182 C183 1.363 . S
C182 C187 1.370 . S
C183 H151 0.929 . S
C183 C182 1.363 . S
C183 C184 1.385 . S
C184 H152 0.930 . S
C184 C183 1.385 . S
C184 C185 1.357 . S
C185 C184 1.357 . S
C185 C186 1.406 . S
C186 H153 0.929 . S
C186 C185 1.406 . S
C186 C187 1.391 . S
C187 H154 0.931 . S
C187 C182 1.370 . S
C187 C186 1.391 . S
C188 N162 1.435 . S
C188 C189 1.358 . S
C188 C193 1.371 . S
C189 H155 0.930 . S
C189 C188 1.358 . S
C189 C190 1.405 . S
C190 H156 0.932 . S
C190 C189 1.405 . S
C190 C191 1.383 . S
C191 C190 1.383 . S
C191 C192 1.393 . S
C192 H157 0.931 . S
C192 C191 1.393 . S
C192 C193 1.382 . S
C193 H158 0.929 . S
C193 C188 1.371 . S
C193 C192 1.382 . S
C194 N162 1.423 . S
C194 C195 1.362 . S
C194 C199 1.388 . S
C195 H159 0.929 . S
C195 C194 1.362 . S
C195 C196 1.376 . S
C196 H160 0.931 . S
C196 C195 1.376 . S
C196 C197 1.396 . S
C197 C179 1.472 . S
C197 C196 1.396 . S
C197 C198 1.348 . S
C198 H161 0.929 . S
C198 C197 1.348 . S
C198 C199 1.443 . S
C199 H163 0.932 . S
C199 C194 1.388 . S
C199 C198 1.443 . S
H200 C227 0.929 . S
N201 C226 1.433 . S
N201 C232 1.435 . S
N201 C238 1.423 . S
H202 C228 0.930 . S
H203 C231 0.931 . S
H204 C230 0.929 . S
H205 C233 0.930 . S
H206 C234 0.932 . S
H207 C237 0.929 . S
H208 C236 0.931 . S
H209 C239 0.929 . S
H210 C243 0.932 . S
H211 C240 0.931 . S
H212 C242 0.929 . S
H213 C245 0.929 1_455 S
H214 C246 0.930 1_455 S
H215 C248 0.929 . S
H216 C249 0.931 . S
H217 C251 0.930 . S
H218 C252 0.932 . S
H219 C254 0.931 1_455 S
H220 C255 0.929 . S
H221 C257 0.929 . S
H222 C258 0.931 . S
H223 C260 0.929 . S
N224 C244 1.433 . S
N224 C250 1.435 . S
N224 C256 1.423 . S
H225 C261 0.932 . S
C226 N201 1.433 . S
C226 C227 1.363 . S
C226 C231 1.370 . S
C227 H200 0.929 . S
C227 C226 1.363 . S
C227 C228 1.385 . S
C228 H202 0.930 . S
C228 C227 1.385 . S
C228 C229 1.357 . S
C229 C228 1.357 . S
C229 C230 1.406 . S
C230 H204 0.929 . S
C230 C229 1.406 . S
C230 C231 1.391 . S
C231 H203 0.931 . S
C231 C226 1.370 . S
C231 C230 1.391 . S
C232 N201 1.435 . S
C232 C233 1.358 . S
C232 C237 1.371 . S
C233 H205 0.930 . S
C233 C232 1.358 . S
C233 C234 1.405 . S
C234 H206 0.932 . S
C234 C233 1.405 . S
C234 C235 1.383 . S
C235 C234 1.383 . S
C235 C236 1.393 . S
C236 H208 0.931 . S
C236 C235 1.393 . S
C236 C237 1.382 . S
C237 H207 0.929 . S
C237 C232 1.371 . S
C237 C236 1.382 . S
C238 N201 1.423 . S
C238 C239 1.362 . S
C238 C243 1.388 . S
C239 H209 0.929 . S
C239 C238 1.362 . S
C239 C240 1.376 . S
C240 H211 0.931 . S
C240 C239 1.376 . S
C240 C241 1.396 . S
C241 C240 1.396 . S
C241 C242 1.348 . S
C241 C259 1.472 . S
C242 H212 0.929 . S
C242 C241 1.348 . S
C242 C243 1.443 . S
C243 H210 0.932 . S
C243 C238 1.388 . S
C243 C242 1.443 . S
C244 N224 1.433 . S
C244 C245 1.363 . S
C244 C249 1.370 . S
C245 H213 0.929 1_655 S
C245 C244 1.363 . S
C245 C246 1.385 . S
C246 H214 0.930 1_655 S
C246 C245 1.385 . S
C246 C247 1.357 . S
C247 C246 1.357 . S
C247 C248 1.406 . S
C248 H215 0.929 . S
C248 C247 1.406 . S
C248 C249 1.391 . S
C249 H216 0.931 . S
C249 C244 1.370 . S
C249 C248 1.391 . S
C250 N224 1.435 . S
C250 C251 1.358 . S
C250 C255 1.371 . S
C251 H217 0.930 . S
C251 C250 1.358 . S
C251 C252 1.405 . S
C252 H218 0.932 . S
C252 C251 1.405 . S
C252 C253 1.383 1_655 S
C253 C252 1.383 1_455 S
C253 C254 1.393 1_455 S
C254 H219 0.931 1_655 S
C254 C253 1.393 1_655 S
C254 C255 1.382 . S
C255 H220 0.929 . S
C255 C250 1.371 . S
C255 C254 1.382 . S
C256 N224 1.423 . S
C256 C257 1.362 . S
C256 C261 1.388 . S
C257 H221 0.929 . S
C257 C256 1.362 . S
C257 C258 1.376 . S
C258 H222 0.931 . S
C258 C257 1.376 . S
C258 C259 1.396 . S
C259 C241 1.472 . S
C259 C258 1.396 . S
C259 C260 1.348 . S
C260 H223 0.929 . S
C260 C259 1.348 . S
C260 C261 1.443 . S
C261 H225 0.932 . S
C261 C256 1.388 . S
C261 C260 1.443 . S
H262 C289 0.929 . S
N263 C288 1.433 . S
N263 C294 1.435 . S
N263 C300 1.423 . S
H264 C290 0.930 . S
H265 C293 0.931 . S
H266 C292 0.929 . S
H267 C295 0.930 . S
H268 C296 0.932 1_545 S
H269 C299 0.929 . S
H270 C298 0.931 . S
H271 C301 0.929 . S
H272 C305 0.932 . S
H273 C302 0.931 . S
H274 C304 0.929 . S
H275 C307 0.929 . S
H276 C308 0.930 . S
H277 C310 0.929 . S
H278 C311 0.931 . S
H279 C313 0.930 . S
H280 C314 0.932 . S
H281 C316 0.931 . S
H282 C317 0.929 . S
H283 C319 0.929 . S
H284 C320 0.931 . S
H285 C322 0.929 . S
N286 C306 1.433 . S
N286 C312 1.435 . S
N286 C318 1.423 . S
H287 C323 0.932 . S
C288 N263 1.433 . S
C288 C289 1.363 . S
C288 C293 1.370 . S
C289 H262 0.929 . S
C289 C288 1.363 . S
C289 C290 1.385 . S
C290 H264 0.930 . S
C290 C289 1.385 . S
C290 C291 1.357 . S
C291 C290 1.357 . S
C291 C292 1.406 . S
C292 H266 0.929 . S
C292 C291 1.406 . S
C292 C293 1.391 . S
C293 H265 0.931 . S
C293 C288 1.370 . S
C293 C292 1.391 . S
C294 N263 1.435 . S
C294 C295 1.358 . S
C294 C299 1.371 . S
C295 H267 0.930 . S
C295 C294 1.358 . S
C295 C296 1.405 . S
C296 H268 0.932 1_565 S
C296 C295 1.405 . S
C296 C297 1.383 . S
C297 C296 1.383 . S
C297 C298 1.393 . S
C298 H270 0.931 . S
C298 C297 1.393 . S
C298 C299 1.382 . S
C299 H269 0.929 . S
C299 C294 1.371 . S
C299 C298 1.382 . S
C300 N263 1.423 . S
C300 C301 1.362 . S
C300 C305 1.388 . S
C301 H271 0.929 . S
C301 C300 1.362 . S
C301 C302 1.376 . S
C302 H273 0.931 . S
C302 C301 1.376 . S
C302 C303 1.396 . S
C303 C302 1.396 . S
C303 C304 1.348 . S
C303 C321 1.472 . S
C304 H274 0.929 . S
C304 C303 1.348 . S
C304 C305 1.443 . S
C305 H272 0.932 . S
C305 C300 1.388 . S
C305 C304 1.443 . S
C306 N286 1.433 . S
C306 C307 1.363 . S
C306 C311 1.370 . S
C307 H275 0.929 . S
C307 C306 1.363 . S
C307 C308 1.385 . S
C308 H276 0.930 . S
C308 C307 1.385 . S
C308 C309 1.357 . S
C309 C308 1.357 . S
C309 C310 1.406 . S
C310 H277 0.929 . S
C310 C309 1.406 . S
C310 C311 1.391 . S
C311 H278 0.931 . S
C311 C306 1.370 . S
C311 C310 1.391 . S
C312 N286 1.435 . S
C312 C313 1.358 . S
C312 C317 1.371 . S
C313 H279 0.930 . S
C313 C312 1.358 . S
C313 C314 1.405 . S
C314 H280 0.932 . S
C314 C313 1.405 . S
C314 C315 1.383 . S
C315 C314 1.383 . S
C315 C316 1.393 . S
C316 H281 0.931 . S
C316 C315 1.393 . S
C316 C317 1.382 . S
C317 H282 0.929 . S
C317 C312 1.371 . S
C317 C316 1.382 . S
C318 N286 1.423 . S
C318 C319 1.362 . S
C318 C323 1.388 . S
C319 H283 0.929 . S
C319 C318 1.362 . S
C319 C320 1.376 . S
C320 H284 0.931 . S
C320 C319 1.376 . S
C320 C321 1.396 . S
C321 C303 1.472 . S
C321 C320 1.396 . S
C321 C322 1.348 . S
C322 H285 0.929 . S
C322 C321 1.348 . S
C322 C323 1.443 . S
C323 H287 0.932 . S
C323 C318 1.388 . S
C323 C322 1.443 . S
H324 C351 0.929 . S
N325 C350 1.433 . S
N325 C356 1.435 . S
N325 C362 1.423 . S
H326 C352 0.930 1_455 S
H327 C355 0.931 . S
H328 C354 0.929 . S
H329 C357 0.930 . S
H330 C358 0.932 . S
H331 C361 0.929 . S
H332 C360 0.931 . S
H333 C363 0.929 . S
H334 C367 0.932 . S
H335 C364 0.931 . S
H336 C366 0.929 . S
H337 C369 0.929 . S
H338 C370 0.930 . S
H339 C372 0.929 . S
H340 C373 0.931 . S
H341 C375 0.930 . S
H342 C376 0.932 . S
H343 C378 0.931 . S
H344 C379 0.929 . S
H345 C381 0.929 . S
H346 C382 0.931 . S
H347 C384 0.929 . S
N348 C368 1.433 . S
N348 C374 1.435 . S
N348 C380 1.423 . S
H349 C385 0.932 . S
C350 N325 1.433 . S
C350 C351 1.363 . S
C350 C355 1.370 . S
C351 H324 0.929 . S
C351 C350 1.363 . S
C351 C352 1.385 . S
C352 H326 0.930 1_655 S
C352 C351 1.385 . S
C352 C353 1.357 . S
C353 C352 1.357 . S
C353 C354 1.406 . S
C354 H328 0.929 . S
C354 C353 1.406 . S
C354 C355 1.391 . S
C355 H327 0.931 . S
C355 C350 1.370 . S
C355 C354 1.391 . S
C356 N325 1.435 . S
C356 C357 1.358 . S
C356 C361 1.371 . S
C357 H329 0.930 . S
C357 C356 1.358 . S
C357 C358 1.405 . S
C358 H330 0.932 . S
C358 C357 1.405 . S
C358 C359 1.383 . S
C359 C358 1.383 . S
C359 C360 1.393 . S
C360 H332 0.931 . S
C360 C359 1.393 . S
C360 C361 1.382 . S
C361 H331 0.929 . S
C361 C356 1.371 . S
C361 C360 1.382 . S
C362 N325 1.423 . S
C362 C363 1.362 . S
C362 C367 1.388 . S
C363 H333 0.929 . S
C363 C362 1.362 . S
C363 C364 1.376 . S
C364 H335 0.931 . S
C364 C363 1.376 . S
C364 C365 1.396 . S
C365 C364 1.396 . S
C365 C366 1.348 . S
C365 C383 1.472 . S
C366 H336 0.929 . S
C366 C365 1.348 . S
C366 C367 1.443 . S
C367 H334 0.932 . S
C367 C362 1.388 . S
C367 C366 1.443 . S
C368 N348 1.433 . S
C368 C369 1.363 . S
C368 C373 1.370 . S
C369 H337 0.929 . S
C369 C368 1.363 . S
C369 C370 1.385 . S
C370 H338 0.930 . S
C370 C369 1.385 . S
C370 C371 1.357 . S
C371 C370 1.357 . S
C371 C372 1.406 . S
C372 H339 0.929 . S
C372 C371 1.406 . S
C372 C373 1.391 . S
C373 H340 0.931 . S
C373 C368 1.370 . S
C373 C372 1.391 . S
C374 N348 1.435 . S
C374 C375 1.358 . S
C374 C379 1.371 . S
C375 H341 0.930 . S
C375 C374 1.358 . S
C375 C376 1.405 . S
C376 H342 0.932 . S
C376 C375 1.405 . S
C376 C377 1.383 . S
C377 C376 1.383 . S
C377 C378 1.393 . S
C378 H343 0.931 . S
C378 C377 1.393 . S
C378 C379 1.382 . S
C379 H344 0.929 . S
C379 C374 1.371 . S
C379 C378 1.382 . S
C380 N348 1.423 . S
C380 C381 1.362 . S
C380 C385 1.388 . S
C381 H345 0.929 . S
C381 C380 1.362 . S
C381 C382 1.376 . S
C382 H346 0.931 . S
C382 C381 1.376 . S
C382 C383 1.396 . S
C383 C365 1.472 . S
C383 C382 1.396 . S
C383 C384 1.348 . S
C384 H347 0.929 . S
C384 C383 1.348 . S
C384 C385 1.443 . S
C385 H349 0.932 . S
C385 C380 1.388 . S
C385 C384 1.443 . S
H386 C413 0.929 . S
N387 C412 1.433 . S
N387 C418 1.435 . S
N387 C424 1.423 . S
H388 C414 0.930 . S
H389 C417 0.931 . S
H390 C416 0.929 . S
H391 C419 0.930 . S
H392 C420 0.932 . S
H393 C423 0.929 . S
H394 C422 0.931 . S
H395 C425 0.929 . S
H396 C429 0.932 . S
H397 C426 0.931 . S
H398 C428 0.929 . S
H399 C431 0.929 . S
H400 C432 0.930 . S
H401 C434 0.929 . S
H402 C435 0.931 . S
H403 C437 0.930 . S
H404 C438 0.932 1_545 S
H405 C440 0.931 . S
H406 C441 0.929 . S
H407 C443 0.929 . S
H408 C444 0.931 . S
H409 C446 0.929 . S
N410 C430 1.433 . S
N410 C436 1.435 . S
N410 C442 1.423 . S
H411 C447 0.932 . S
C412 N387 1.433 . S
C412 C413 1.363 . S
C412 C417 1.370 . S
C413 H386 0.929 . S
C413 C412 1.363 . S
C413 C414 1.385 . S
C414 H388 0.930 . S
C414 C413 1.385 . S
C414 C415 1.357 . S
C415 C414 1.357 . S
C415 C416 1.406 . S
C416 H390 0.929 . S
C416 C415 1.406 . S
C416 C417 1.391 . S
C417 H389 0.931 . S
C417 C412 1.370 . S
C417 C416 1.391 . S
C418 N387 1.435 . S
C418 C419 1.358 . S
C418 C423 1.371 . S
C419 H391 0.930 . S
C419 C418 1.358 . S
C419 C420 1.405 . S
C420 H392 0.932 . S
C420 C419 1.405 . S
C420 C421 1.383 . S
C421 C420 1.383 . S
C421 C422 1.393 . S
C422 H394 0.931 . S
C422 C421 1.393 . S
C422 C423 1.382 . S
C423 H393 0.929 . S
C423 C418 1.371 . S
C423 C422 1.382 . S
C424 N387 1.423 . S
C424 C425 1.362 . S
C424 C429 1.388 . S
C425 H395 0.929 . S
C425 C424 1.362 . S
C425 C426 1.376 . S
C426 H397 0.931 . S
C426 C425 1.376 . S
C426 C427 1.396 . S
C427 C426 1.396 . S
C427 C428 1.348 . S
C427 C445 1.472 . S
C428 H398 0.929 . S
C428 C427 1.348 . S
C428 C429 1.443 . S
C429 H396 0.932 . S
C429 C424 1.388 . S
C429 C428 1.443 . S
C430 N410 1.433 . S
C430 C431 1.363 . S
C430 C435 1.370 . S
C431 H399 0.929 . S
C431 C430 1.363 . S
C431 C432 1.385 . S
C432 H400 0.930 . S
C432 C431 1.385 . S
C432 C433 1.357 . S
C433 C432 1.357 . S
C433 C434 1.406 . S
C434 H401 0.929 . S
C434 C433 1.406 . S
C434 C435 1.391 . S
C435 H402 0.931 . S
C435 C430 1.370 . S
C435 C434 1.391 . S
C436 N410 1.435 . S
C436 C437 1.358 . S
C436 C441 1.371 . S
C437 H403 0.930 . S
C437 C436 1.358 . S
C437 C438 1.405 . S
C438 H404 0.932 1_565 S
C438 C437 1.405 . S
C438 C439 1.383 . S
C439 C438 1.383 . S
C439 C440 1.393 . S
C440 H405 0.931 . S
C440 C439 1.393 . S
C440 C441 1.382 . S
C441 H406 0.929 . S
C441 C436 1.371 . S
C441 C440 1.382 . S
C442 N410 1.423 . S
C442 C443 1.362 . S
C442 C447 1.388 . S
C443 H407 0.929 . S
C443 C442 1.362 . S
C443 C444 1.376 . S
C444 H408 0.931 . S
C444 C443 1.376 . S
C444 C445 1.396 . S
C445 C427 1.472 . S
C445 C444 1.396 . S
C445 C446 1.348 . S
C446 H409 0.929 . S
C446 C445 1.348 . S
C446 C447 1.443 . S
C447 H411 0.932 . S
C447 C442 1.388 . S
C447 C446 1.443 . S
H448 C475 0.929 . S
N449 C474 1.433 . S
N449 C480 1.435 . S
N449 C486 1.423 . S
H450 C476 0.930 . S
H451 C479 0.931 . S
H452 C478 0.929 . S
H453 C481 0.930 . S
H454 C482 0.932 . S
H455 C485 0.929 . S
H456 C484 0.931 . S
H457 C487 0.929 . S
H458 C491 0.932 . S
H459 C488 0.931 . S
H460 C490 0.929 . S
H461 C493 0.929 . S
H462 C494 0.930 . S
H463 C496 0.929 . S
H464 C497 0.931 . S
H465 C499 0.930 . S
H466 C500 0.932 . S
H467 C502 0.931 . S
H468 C503 0.929 . S
H469 C505 0.929 . S
H470 C506 0.931 . S
H471 C508 0.929 . S
N472 C492 1.433 . S
N472 C498 1.435 . S
N472 C504 1.423 . S
H473 C509 0.932 . S
C474 N449 1.433 . S
C474 C475 1.363 . S
C474 C479 1.370 . S
C475 H448 0.929 . S
C475 C474 1.363 . S
C475 C476 1.385 . S
C476 H450 0.930 . S
C476 C475 1.385 . S
C476 C477 1.357 . S
C477 C476 1.357 . S
C477 C478 1.406 . S
C478 H452 0.929 . S
C478 C477 1.406 . S
C478 C479 1.391 . S
C479 H451 0.931 . S
C479 C474 1.370 . S
C479 C478 1.391 . S
C480 N449 1.435 . S
C480 C481 1.358 . S
C480 C485 1.371 . S
C481 H453 0.930 . S
C481 C480 1.358 . S
C481 C482 1.405 . S
C482 H454 0.932 . S
C482 C481 1.405 . S
C482 C483 1.383 . S
C483 C482 1.383 . S
C483 C484 1.393 . S
C484 H456 0.931 . S
C484 C483 1.393 . S
C484 C485 1.382 . S
C485 H455 0.929 . S
C485 C480 1.371 . S
C485 C484 1.382 . S
C486 N449 1.423 . S
C486 C487 1.362 . S
C486 C491 1.388 . S
C487 H457 0.929 . S
C487 C486 1.362 . S
C487 C488 1.376 . S
C488 H459 0.931 . S
C488 C487 1.376 . S
C488 C489 1.396 . S
C489 C488 1.396 . S
C489 C490 1.348 . S
C489 C507 1.472 . S
C490 H460 0.929 . S
C490 C489 1.348 . S
C490 C491 1.443 . S
C491 H458 0.932 . S
C491 C486 1.388 . S
C491 C490 1.443 . S
C492 N472 1.433 . S
C492 C493 1.363 . S
C492 C497 1.370 . S
C493 H461 0.929 . S
C493 C492 1.363 . S
C493 C494 1.385 . S
C494 H462 0.930 . S
C494 C493 1.385 . S
C494 C495 1.357 . S
C495 C494 1.357 . S
C495 C496 1.406 . S
C496 H463 0.929 . S
C496 C495 1.406 . S
C496 C497 1.391 . S
C497 H464 0.931 . S
C497 C492 1.370 . S
C497 C496 1.391 . S
C498 N472 1.435 . S
C498 C499 1.358 . S
C498 C503 1.371 . S
C499 H465 0.930 . S
C499 C498 1.358 . S
C499 C500 1.405 . S
C500 H466 0.932 . S
C500 C499 1.405 . S
C500 C501 1.383 . S
C501 C500 1.383 . S
C501 C502 1.393 . S
C502 H467 0.931 . S
C502 C501 1.393 . S
C502 C503 1.382 . S
C503 H468 0.929 . S
C503 C498 1.371 . S
C503 C502 1.382 . S
C504 N472 1.423 . S
C504 C505 1.362 . S
C504 C509 1.388 . S
C505 H469 0.929 . S
C505 C504 1.362 . S
C505 C506 1.376 . S
C506 H470 0.931 . S
C506 C505 1.376 . S
C506 C507 1.396 . S
C507 C489 1.472 . S
C507 C506 1.396 . S
C507 C508 1.348 . S
C508 H471 0.929 . S
C508 C507 1.348 . S
C508 C509 1.443 . S
C509 H473 0.932 . S
C509 C504 1.388 . S
C509 C508 1.443 . S
C7 C191 2.107 . S
C30 C235 2.507 . S
C315 N58 2.408 . S
C359 N81 1.433 . S
C439 C99 2.676 . S
C495 N127 2.255 . S
N25 C291 2.502 . S
C62 C371 1.961 . S
C415 C85 2.797 . S
C483 N94 2.746 . S
C131 C167 2.398 . S
C247 N2 2.797 . S
C353 C16 2.579 . S
C39 C433 1.627 . S
C501 N48 2.197 . S
N71 C185 1.831 . S
C108 C229 2.032 . S
N117 C309 2.218 . S
N35 C477 2.482 . S
C173 C53 2.088 . S
C76 C253 2.161 . S
N104 C297 1.821 . S
C122 C377 2.491 . S
N12 C421 1.263 . S
