# Generated by pormake.
# Topology tbo, (3,4)-cn, num edge types: 1
# Building blocks:
#     Node 0, Type 0, BuildingBlock: MIDCAF_clean_linker_0, # of connection points: 3
#     Node 1, Type 0, BuildingBlock: MIDCAF_clean_linker_0, # of connection points: 3
#     Node 2, Type 0, BuildingBlock: MIDCAF_clean_linker_0, # of connection points: 3
#     Node 3, Type 0, BuildingBlock: MIDCAF_clean_linker_0, # of connection points: 3
#     Node 4, Type 0, BuildingBlock: MIDCAF_clean_linker_0, # of connection points: 3
#     Node 5, Type 0, BuildingBlock: MIDCAF_clean_linker_0, # of connection points: 3
#     Node 6, Type 0, BuildingBlock: MIDCAF_clean_linker_0, # of connection points: 3
#     Node 7, Type 0, BuildingBlock: MIDCAF_clean_linker_0, # of connection points: 3
#     Node 8, Type 0, BuildingBlock: MIDCAF_clean_linker_0, # of connection points: 3
#     Node 9, Type 0, BuildingBlock: MIDCAF_clean_linker_0, # of connection points: 3
#     Node 10, Type 0, BuildingBlock: MIDCAF_clean_linker_0, # of connection points: 3
#     Node 11, Type 0, BuildingBlock: MIDCAF_clean_linker_0, # of connection points: 3
#     Node 12, Type 0, BuildingBlock: MIDCAF_clean_linker_0, # of connection points: 3
#     Node 13, Type 0, BuildingBlock: MIDCAF_clean_linker_0, # of connection points: 3
#     Node 14, Type 0, BuildingBlock: MIDCAF_clean_linker_0, # of connection points: 3
#     Node 15, Type 0, BuildingBlock: MIDCAF_clean_linker_0, # of connection points: 3
#     Node 16, Type 0, BuildingBlock: MIDCAF_clean_linker_0, # of connection points: 3
#     Node 17, Type 0, BuildingBlock: MIDCAF_clean_linker_0, # of connection points: 3
#     Node 18, Type 0, BuildingBlock: MIDCAF_clean_linker_0, # of connection points: 3
#     Node 19, Type 0, BuildingBlock: MIDCAF_clean_linker_0, # of connection points: 3
#     Node 20, Type 0, BuildingBlock: MIDCAF_clean_linker_0, # of connection points: 3
#     Node 21, Type 0, BuildingBlock: MIDCAF_clean_linker_0, # of connection points: 3
#     Node 22, Type 0, BuildingBlock: MIDCAF_clean_linker_0, # of connection points: 3
#     Node 23, Type 0, BuildingBlock: MIDCAF_clean_linker_0, # of connection points: 3
#     Node 24, Type 0, BuildingBlock: MIDCAF_clean_linker_0, # of connection points: 3
#     Node 25, Type 0, BuildingBlock: MIDCAF_clean_linker_0, # of connection points: 3
#     Node 26, Type 0, BuildingBlock: MIDCAF_clean_linker_0, # of connection points: 3
#     Node 27, Type 0, BuildingBlock: MIDCAF_clean_linker_0, # of connection points: 3
#     Node 28, Type 0, BuildingBlock: MIDCAF_clean_linker_0, # of connection points: 3
#     Node 29, Type 0, BuildingBlock: MIDCAF_clean_linker_0, # of connection points: 3
#     Node 30, Type 0, BuildingBlock: MIDCAF_clean_linker_0, # of connection points: 3
#     Node 31, Type 0, BuildingBlock: MIDCAF_clean_linker_0, # of connection points: 3
#     Node 32, Type 1, BuildingBlock: ESEHIV_clean_sbu_0, # of connection points: 4
#     Node 33, Type 1, BuildingBlock: ESEHIV_clean_sbu_0, # of connection points: 4
#     Node 34, Type 1, BuildingBlock: ESEHIV_clean_sbu_0, # of connection points: 4
#     Node 35, Type 1, BuildingBlock: ESEHIV_clean_sbu_0, # of connection points: 4
#     Node 36, Type 1, BuildingBlock: ESEHIV_clean_sbu_0, # of connection points: 4
#     Node 37, Type 1, BuildingBlock: ESEHIV_clean_sbu_0, # of connection points: 4
#     Node 38, Type 1, BuildingBlock: ESEHIV_clean_sbu_0, # of connection points: 4
#     Node 39, Type 1, BuildingBlock: ESEHIV_clean_sbu_0, # of connection points: 4
#     Node 40, Type 1, BuildingBlock: ESEHIV_clean_sbu_0, # of connection points: 4
#     Node 41, Type 1, BuildingBlock: ESEHIV_clean_sbu_0, # of connection points: 4
#     Node 42, Type 1, BuildingBlock: ESEHIV_clean_sbu_0, # of connection points: 4
#     Node 43, Type 1, BuildingBlock: ESEHIV_clean_sbu_0, # of connection points: 4
#     Node 44, Type 1, BuildingBlock: ESEHIV_clean_sbu_0, # of connection points: 4
#     Node 45, Type 1, BuildingBlock: ESEHIV_clean_sbu_0, # of connection points: 4
#     Node 46, Type 1, BuildingBlock: ESEHIV_clean_sbu_0, # of connection points: 4
#     Node 47, Type 1, BuildingBlock: ESEHIV_clean_sbu_0, # of connection points: 4
#     Node 48, Type 1, BuildingBlock: ESEHIV_clean_sbu_0, # of connection points: 4
#     Node 49, Type 1, BuildingBlock: ESEHIV_clean_sbu_0, # of connection points: 4
#     Node 50, Type 1, BuildingBlock: ESEHIV_clean_sbu_0, # of connection points: 4
#     Node 51, Type 1, BuildingBlock: ESEHIV_clean_sbu_0, # of connection points: 4
#     Node 52, Type 1, BuildingBlock: ESEHIV_clean_sbu_0, # of connection points: 4
#     Node 53, Type 1, BuildingBlock: ESEHIV_clean_sbu_0, # of connection points: 4
#     Node 54, Type 1, BuildingBlock: ESEHIV_clean_sbu_0, # of connection points: 4
#     Node 55, Type 1, BuildingBlock: ESEHIV_clean_sbu_0, # of connection points: 4
#     Edge 56, Type (0, 1), BuildingBlock: OJICUG_clean_linker_0, # of connection points: 2
#     Edge 57, Type (0, 1), BuildingBlock: OJICUG_clean_linker_0, # of connection points: 2
#     Edge 58, Type (0, 1), BuildingBlock: OJICUG_clean_linker_0, # of connection points: 2
#     Edge 59, Type (0, 1), BuildingBlock: OJICUG_clean_linker_0, # of connection points: 2
#     Edge 60, Type (0, 1), BuildingBlock: OJICUG_clean_linker_0, # of connection points: 2
#     Edge 61, Type (0, 1), BuildingBlock: OJICUG_clean_linker_0, # of connection points: 2
#     Edge 62, Type (0, 1), BuildingBlock: OJICUG_clean_linker_0, # of connection points: 2
#     Edge 63, Type (0, 1), BuildingBlock: OJICUG_clean_linker_0, # of connection points: 2
#     Edge 64, Type (0, 1), BuildingBlock: OJICUG_clean_linker_0, # of connection points: 2
#     Edge 65, Type (0, 1), BuildingBlock: OJICUG_clean_linker_0, # of connection points: 2
#     Edge 66, Type (0, 1), BuildingBlock: OJICUG_clean_linker_0, # of connection points: 2
#     Edge 67, Type (0, 1), BuildingBlock: OJICUG_clean_linker_0, # of connection points: 2
#     Edge 68, Type (0, 1), BuildingBlock: OJICUG_clean_linker_0, # of connection points: 2
#     Edge 69, Type (0, 1), BuildingBlock: OJICUG_clean_linker_0, # of connection points: 2
#     Edge 70, Type (0, 1), BuildingBlock: OJICUG_clean_linker_0, # of connection points: 2
#     Edge 71, Type (0, 1), BuildingBlock: OJICUG_clean_linker_0, # of connection points: 2
#     Edge 72, Type (0, 1), BuildingBlock: OJICUG_clean_linker_0, # of connection points: 2
#     Edge 73, Type (0, 1), BuildingBlock: OJICUG_clean_linker_0, # of connection points: 2
#     Edge 74, Type (0, 1), BuildingBlock: OJICUG_clean_linker_0, # of connection points: 2
#     Edge 75, Type (0, 1), BuildingBlock: OJICUG_clean_linker_0, # of connection points: 2
#     Edge 76, Type (0, 1), BuildingBlock: OJICUG_clean_linker_0, # of connection points: 2
#     Edge 77, Type (0, 1), BuildingBlock: OJICUG_clean_linker_0, # of connection points: 2
#     Edge 78, Type (0, 1), BuildingBlock: OJICUG_clean_linker_0, # of connection points: 2
#     Edge 79, Type (0, 1), BuildingBlock: OJICUG_clean_linker_0, # of connection points: 2
#     Edge 80, Type (0, 1), BuildingBlock: OJICUG_clean_linker_0, # of connection points: 2
#     Edge 81, Type (0, 1), BuildingBlock: OJICUG_clean_linker_0, # of connection points: 2
#     Edge 82, Type (0, 1), BuildingBlock: OJICUG_clean_linker_0, # of connection points: 2
#     Edge 83, Type (0, 1), BuildingBlock: OJICUG_clean_linker_0, # of connection points: 2
#     Edge 84, Type (0, 1), BuildingBlock: OJICUG_clean_linker_0, # of connection points: 2
#     Edge 85, Type (0, 1), BuildingBlock: OJICUG_clean_linker_0, # of connection points: 2
#     Edge 86, Type (0, 1), BuildingBlock: OJICUG_clean_linker_0, # of connection points: 2
#     Edge 87, Type (0, 1), BuildingBlock: OJICUG_clean_linker_0, # of connection points: 2
#     Edge 88, Type (0, 1), BuildingBlock: OJICUG_clean_linker_0, # of connection points: 2
#     Edge 89, Type (0, 1), BuildingBlock: OJICUG_clean_linker_0, # of connection points: 2
#     Edge 90, Type (0, 1), BuildingBlock: OJICUG_clean_linker_0, # of connection points: 2
#     Edge 91, Type (0, 1), BuildingBlock: OJICUG_clean_linker_0, # of connection points: 2
#     Edge 92, Type (0, 1), BuildingBlock: OJICUG_clean_linker_0, # of connection points: 2
#     Edge 93, Type (0, 1), BuildingBlock: OJICUG_clean_linker_0, # of connection points: 2
#     Edge 94, Type (0, 1), BuildingBlock: OJICUG_clean_linker_0, # of connection points: 2
#     Edge 95, Type (0, 1), BuildingBlock: OJICUG_clean_linker_0, # of connection points: 2
#     Edge 96, Type (0, 1), BuildingBlock: OJICUG_clean_linker_0, # of connection points: 2
#     Edge 97, Type (0, 1), BuildingBlock: OJICUG_clean_linker_0, # of connection points: 2
#     Edge 98, Type (0, 1), BuildingBlock: OJICUG_clean_linker_0, # of connection points: 2
#     Edge 99, Type (0, 1), BuildingBlock: OJICUG_clean_linker_0, # of connection points: 2
#     Edge 100, Type (0, 1), BuildingBlock: OJICUG_clean_linker_0, # of connection points: 2
#     Edge 101, Type (0, 1), BuildingBlock: OJICUG_clean_linker_0, # of connection points: 2
#     Edge 102, Type (0, 1), BuildingBlock: OJICUG_clean_linker_0, # of connection points: 2
#     Edge 103, Type (0, 1), BuildingBlock: OJICUG_clean_linker_0, # of connection points: 2
#     Edge 104, Type (0, 1), BuildingBlock: OJICUG_clean_linker_0, # of connection points: 2
#     Edge 105, Type (0, 1), BuildingBlock: OJICUG_clean_linker_0, # of connection points: 2
#     Edge 106, Type (0, 1), BuildingBlock: OJICUG_clean_linker_0, # of connection points: 2
#     Edge 107, Type (0, 1), BuildingBlock: OJICUG_clean_linker_0, # of connection points: 2
#     Edge 108, Type (0, 1), BuildingBlock: OJICUG_clean_linker_0, # of connection points: 2
#     Edge 109, Type (0, 1), BuildingBlock: OJICUG_clean_linker_0, # of connection points: 2
#     Edge 110, Type (0, 1), BuildingBlock: OJICUG_clean_linker_0, # of connection points: 2
#     Edge 111, Type (0, 1), BuildingBlock: OJICUG_clean_linker_0, # of connection points: 2
#     Edge 112, Type (0, 1), BuildingBlock: OJICUG_clean_linker_0, # of connection points: 2
#     Edge 113, Type (0, 1), BuildingBlock: OJICUG_clean_linker_0, # of connection points: 2
#     Edge 114, Type (0, 1), BuildingBlock: OJICUG_clean_linker_0, # of connection points: 2
#     Edge 115, Type (0, 1), BuildingBlock: OJICUG_clean_linker_0, # of connection points: 2
#     Edge 116, Type (0, 1), BuildingBlock: OJICUG_clean_linker_0, # of connection points: 2
#     Edge 117, Type (0, 1), BuildingBlock: OJICUG_clean_linker_0, # of connection points: 2
#     Edge 118, Type (0, 1), BuildingBlock: OJICUG_clean_linker_0, # of connection points: 2
#     Edge 119, Type (0, 1), BuildingBlock: OJICUG_clean_linker_0, # of connection points: 2
#     Edge 120, Type (0, 1), BuildingBlock: OJICUG_clean_linker_0, # of connection points: 2
#     Edge 121, Type (0, 1), BuildingBlock: OJICUG_clean_linker_0, # of connection points: 2
#     Edge 122, Type (0, 1), BuildingBlock: OJICUG_clean_linker_0, # of connection points: 2
#     Edge 123, Type (0, 1), BuildingBlock: OJICUG_clean_linker_0, # of connection points: 2
#     Edge 124, Type (0, 1), BuildingBlock: OJICUG_clean_linker_0, # of connection points: 2
#     Edge 125, Type (0, 1), BuildingBlock: OJICUG_clean_linker_0, # of connection points: 2
#     Edge 126, Type (0, 1), BuildingBlock: OJICUG_clean_linker_0, # of connection points: 2
#     Edge 127, Type (0, 1), BuildingBlock: OJICUG_clean_linker_0, # of connection points: 2
#     Edge 128, Type (0, 1), BuildingBlock: OJICUG_clean_linker_0, # of connection points: 2
#     Edge 129, Type (0, 1), BuildingBlock: OJICUG_clean_linker_0, # of connection points: 2
#     Edge 130, Type (0, 1), BuildingBlock: OJICUG_clean_linker_0, # of connection points: 2
#     Edge 131, Type (0, 1), BuildingBlock: OJICUG_clean_linker_0, # of connection points: 2
#     Edge 132, Type (0, 1), BuildingBlock: OJICUG_clean_linker_0, # of connection points: 2
#     Edge 133, Type (0, 1), BuildingBlock: OJICUG_clean_linker_0, # of connection points: 2
#     Edge 134, Type (0, 1), BuildingBlock: OJICUG_clean_linker_0, # of connection points: 2
#     Edge 135, Type (0, 1), BuildingBlock: OJICUG_clean_linker_0, # of connection points: 2
#     Edge 136, Type (0, 1), BuildingBlock: OJICUG_clean_linker_0, # of connection points: 2
#     Edge 137, Type (0, 1), BuildingBlock: OJICUG_clean_linker_0, # of connection points: 2
#     Edge 138, Type (0, 1), BuildingBlock: OJICUG_clean_linker_0, # of connection points: 2
#     Edge 139, Type (0, 1), BuildingBlock: OJICUG_clean_linker_0, # of connection points: 2
#     Edge 140, Type (0, 1), BuildingBlock: OJICUG_clean_linker_0, # of connection points: 2
#     Edge 141, Type (0, 1), BuildingBlock: OJICUG_clean_linker_0, # of connection points: 2
#     Edge 142, Type (0, 1), BuildingBlock: OJICUG_clean_linker_0, # of connection points: 2
#     Edge 143, Type (0, 1), BuildingBlock: OJICUG_clean_linker_0, # of connection points: 2
#     Edge 144, Type (0, 1), BuildingBlock: OJICUG_clean_linker_0, # of connection points: 2
#     Edge 145, Type (0, 1), BuildingBlock: OJICUG_clean_linker_0, # of connection points: 2
#     Edge 146, Type (0, 1), BuildingBlock: OJICUG_clean_linker_0, # of connection points: 2
#     Edge 147, Type (0, 1), BuildingBlock: OJICUG_clean_linker_0, # of connection points: 2
#     Edge 148, Type (0, 1), BuildingBlock: OJICUG_clean_linker_0, # of connection points: 2
#     Edge 149, Type (0, 1), BuildingBlock: OJICUG_clean_linker_0, # of connection points: 2
#     Edge 150, Type (0, 1), BuildingBlock: OJICUG_clean_linker_0, # of connection points: 2
#     Edge 151, Type (0, 1), BuildingBlock: OJICUG_clean_linker_0, # of connection points: 2
# Relax obj value: 0.003
# Max RMSD: 0.125
# Mean RMSD: 0.049
data_MOF--net-tbo--node1-ESEHIV_clean_sbu_0--node2-MIDCAF_clean_linker_0--edge1-OJICUG_clean_linker_0
_symmetry_space_group_name_H-M    P1
_symmetry_Int_Tables_number       1
_symmetry_cell_setting            triclinic
loop_
_symmetry_equiv_pos_as_xyz
'x, y, z'
_cell_length_a     70.309648
_cell_length_b     70.537572
_cell_length_c     70.55872
_cell_angle_alpha  90.026529
_cell_angle_beta   92.614708
_cell_angle_gamma 90.911431
loop_
_atom_site_label
_atom_site_type_symbol
_atom_site_fract_x
_atom_site_fract_y
_atom_site_fract_z
_atom_type_partial_charge
C0 C 0.12156 0.18779 0.2243 0.0
C1 C 0.11494 0.17664 0.23922 0.0
C2 C 0.1234 0.15902 0.24289 0.0
C3 C 0.13816 0.15273 0.23195 0.0
H4 H 0.16787 0.10458 0.21766 0.0
H5 H 0.18223 0.07442 0.22615 0.0
H6 H 0.23404 0.09186 0.20015 0.0
H7 H 0.21951 0.12225 0.19128 0.0
H8 H 0.2096 0.15474 0.15576 0.0
H9 H 0.21854 0.17332 0.12834 0.0
H10 H 0.17469 0.21351 0.13937 0.0
H11 H 0.16551 0.19488 0.16656 0.0
H12 H 0.14096 0.19047 0.20193 0.0
H13 H 0.11519 0.20132 0.22091 0.0
H14 H 0.11878 0.15017 0.2544 0.0
H15 H 0.14436 0.1391 0.23527 0.0
N16 N 0.16914 0.1405 0.20947 0.0
N17 N 0.18952 0.14502 0.18436 0.0
N18 N 0.16649 0.16769 0.19059 0.0
C19 C 0.18364 0.13431 0.1991 0.0
C20 C 0.18092 0.16173 0.17995 0.0
C21 C 0.16054 0.15721 0.20541 0.0
C22 C 0.19254 0.11585 0.20378 0.0
C23 C 0.18231 0.10204 0.21366 0.0
C24 C 0.19048 0.08469 0.21843 0.0
C25 C 0.20921 0.08076 0.21372 0.0
C26 C 0.21957 0.09455 0.20394 0.0
C27 C 0.21123 0.11187 0.19881 0.0
C28 C 0.1868 0.17323 0.16345 0.0
C29 C 0.20185 0.16754 0.15239 0.0
C30 C 0.20705 0.17826 0.13669 0.0
C31 C 0.19731 0.19491 0.13161 0.0
C32 C 0.18232 0.20063 0.1427 0.0
C33 C 0.17715 0.18997 0.15841 0.0
C34 C 0.14481 0.16388 0.21701 0.0
C35 C 0.13629 0.18149 0.21332 0.0
C36 C 0.83708 0.13389 0.18771 0.0
C37 C 0.81813 0.13166 0.18059 0.0
C38 C 0.81033 0.14603 0.16894 0.0
C39 C 0.82111 0.16217 0.16462 0.0
H40 H 0.82053 0.20763 0.12986 0.0
H41 H 0.80893 0.22753 0.10396 0.0
H42 H 0.86084 0.26115 0.10855 0.0
H43 H 0.87239 0.24141 0.13494 0.0
H44 H 0.89656 0.23684 0.17766 0.0
H45 H 0.92372 0.24494 0.19924 0.0
H46 H 0.92612 0.18665 0.21779 0.0
H47 H 0.89886 0.1787 0.19681 0.0
H48 H 0.86232 0.15135 0.18932 0.0
H49 H 0.84373 0.12302 0.19645 0.0
H50 H 0.79572 0.14506 0.16345 0.0
H51 H 0.81449 0.17297 0.15576 0.0
N52 N 0.8448 0.19397 0.1539 0.0
N53 N 0.87109 0.2143 0.16017 0.0
N54 N 0.86765 0.18622 0.17768 0.0
C55 C 0.85466 0.21011 0.14995 0.0
C56 C 0.87768 0.20239 0.17408 0.0
C57 C 0.85115 0.18193 0.16769 0.0
C58 C 0.84749 0.2228 0.1345 0.0
C59 C 0.82954 0.21926 0.12544 0.0
C60 C 0.82289 0.23064 0.11046 0.0
C61 C 0.83401 0.24584 0.10401 0.0
C62 C 0.85183 0.24964 0.11325 0.0
C63 C 0.85849 0.23825 0.12833 0.0
C64 C 0.89529 0.20717 0.18571 0.0
C65 C 0.90299 0.22573 0.18625 0.0
C66 C 0.91863 0.23038 0.19856 0.0
C67 C 0.92693 0.21654 0.21051 0.0
C68 C 0.91978 0.19781 0.20918 0.0
C69 C 0.90414 0.19322 0.19707 0.0
C70 C 0.83995 0.16451 0.17197 0.0
C71 C 0.84781 0.15014 0.18354 0.0
C72 C 0.83874 0.83007 0.11707 0.0
C73 C 0.82093 0.83651 0.11007 0.0
C74 C 0.81147 0.84993 0.12087 0.0
C75 C 0.81974 0.85706 0.13786 0.0
H76 H 0.81881 0.90475 0.17272 0.0
H77 H 0.80553 0.9326 0.18733 0.0
H78 H 0.84338 0.92536 0.23662 0.0
H79 H 0.85664 0.89741 0.22213 0.0
H80 H 0.89348 0.87186 0.2167 0.0
H81 H 0.92098 0.8569 0.23232 0.0
H82 H 0.9133 0.80855 0.19508 0.0
H83 H 0.88571 0.82341 0.17942 0.0
H84 H 0.8608 0.83198 0.13903 0.0
H85 H 0.84655 0.81988 0.10913 0.0
H86 H 0.79753 0.85492 0.11627 0.0
H87 H 0.81197 0.86743 0.14564 0.0
N88 N 0.83904 0.87432 0.17091 0.0
N89 N 0.86262 0.87337 0.19545 0.0
N90 N 0.86212 0.85062 0.17114 0.0
C91 C 0.84702 0.88173 0.18728 0.0
C92 C 0.87028 0.85784 0.18752 0.0
C93 C 0.84649 0.85877 0.16272 0.0
C94 C 0.83885 0.89875 0.19618 0.0
C95 C 0.82434 0.90904 0.18667 0.0
C96 C 0.81679 0.92512 0.19501 0.0
C97 C 0.82344 0.93128 0.21313 0.0
C98 C 0.83784 0.92094 0.22271 0.0
C99 C 0.84551 0.90494 0.21432 0.0
C100 C 0.88728 0.84885 0.19679 0.0
C101 C 0.89761 0.85804 0.21179 0.0
C102 C 0.91347 0.84953 0.2207 0.0
C103 C 0.91931 0.83153 0.21497 0.0
C104 C 0.90904 0.82235 0.19996 0.0
C105 C 0.89328 0.83093 0.19091 0.0
C106 C 0.83764 0.85085 0.14475 0.0
C107 C 0.84697 0.83711 0.13421 0.0
C108 C 0.11247 0.78559 0.21531 0.0
C109 C 0.10148 0.77646 0.20079 0.0
C110 C 0.10763 0.7774 0.18212 0.0
C111 C 0.12444 0.78732 0.17809 0.0
H112 H 0.17328 0.78815 0.14186 0.0
H113 H 0.19374 0.78177 0.11556 0.0
H114 H 0.23319 0.82545 0.13618 0.0
H115 H 0.21277 0.83211 0.16199 0.0
H116 H 0.20722 0.85317 0.19913 0.0
H117 H 0.21593 0.88104 0.21791 0.0
H118 H 0.15978 0.88117 0.24041 0.0
H119 H 0.15124 0.85272 0.22202 0.0
H120 H 0.1369 0.80291 0.22278 0.0
H121 H 0.10798 0.78532 0.2298 0.0
H122 H 0.0994 0.7705 0.17065 0.0
H123 H 0.12877 0.78795 0.16356 0.0
N124 N 0.16305 0.80441 0.17347 0.0
N125 N 0.18376 0.82976 0.18187 0.0
N126 N 0.15736 0.82342 0.19999 0.0
C127 C 0.17895 0.815 0.17015 0.0
C128 C 0.17307 0.83416 0.19673 0.0
C129 C 0.15226 0.80851 0.18849 0.0
C130 C 0.19125 0.8107 0.15409 0.0
C131 C 0.1863 0.79641 0.14076 0.0
C132 C 0.1981 0.79269 0.12572 0.0
C133 C 0.21512 0.80316 0.12365 0.0
C134 C 0.22005 0.81734 0.13705 0.0
C135 C 0.20831 0.82107 0.152 0.0
C136 C 0.17847 0.85072 0.20894 0.0
C137 C 0.1967 0.85906 0.20811 0.0
C138 C 0.20168 0.87518 0.21882 0.0
C139 C 0.1885 0.88359 0.23053 0.0
C140 C 0.17037 0.87503 0.23168 0.0
C141 C 0.16543 0.85873 0.22106 0.0
C142 C 0.13512 0.7969 0.19259 0.0
C143 C 0.12897 0.79581 0.21125 0.0
C144 C 0.13376 0.82201 0.84048 0.0
C145 C 0.12855 0.8288 0.82225 0.0
C146 C 0.14063 0.84209 0.81378 0.0
C147 C 0.15778 0.84795 0.82309 0.0
H148 H 0.20029 0.8903 0.82395 0.0
H149 H 0.2192 0.91691 0.8128 0.0
H150 H 0.26456 0.9031 0.85358 0.0
H151 H 0.24552 0.87681 0.86508 0.0
H152 H 0.23831 0.8474 0.89634 0.0
H153 H 0.24966 0.8312 0.92484 0.0
H154 H 0.20013 0.79419 0.92173 0.0
H155 H 0.18865 0.81036 0.8928 0.0
H156 H 0.15442 0.82198 0.86362 0.0
H157 H 0.12462 0.81212 0.84766 0.0
H158 H 0.13712 0.84753 0.79973 0.0
H159 H 0.16692 0.85791 0.816 0.0
N160 N 0.19257 0.86048 0.84394 0.0
N161 N 0.21588 0.85541 0.86815 0.0
N162 N 0.18835 0.83624 0.86625 0.0
C163 C 0.20963 0.86532 0.85264 0.0
C164 C 0.20539 0.84085 0.87508 0.0
C165 C 0.18183 0.84596 0.85066 0.0
C166 C 0.2213 0.88135 0.84547 0.0
C167 C 0.2143 0.89289 0.83055 0.0
C168 C 0.22522 0.90813 0.82407 0.0
C169 C 0.24345 0.91221 0.83227 0.0
C170 C 0.25048 0.9006 0.84711 0.0
C171 C 0.23956 0.88541 0.85363 0.0
C172 C 0.21244 0.83036 0.89224 0.0
C173 C 0.22975 0.83581 0.9016 0.0
C174 C 0.23625 0.82655 0.91806 0.0
C175 C 0.22567 0.81155 0.92572 0.0
C176 C 0.20861 0.80568 0.91617 0.0
C177 C 0.20201 0.81504 0.89964 0.0
C178 C 0.16325 0.84061 0.84105 0.0
C179 C 0.15088 0.82775 0.8497 0.0
C180 C 0.14354 0.21421 0.82642 0.0
C181 C 0.13808 0.20717 0.80826 0.0
C182 C 0.14726 0.19109 0.8016 0.0
C183 C 0.16165 0.18242 0.81264 0.0
H184 H 0.19348 0.1346 0.81438 0.0
H185 H 0.20834 0.10675 0.80143 0.0
H186 H 0.25473 0.11265 0.84347 0.0
H187 H 0.23958 0.13999 0.8568 0.0
H188 H 0.23252 0.16532 0.89333 0.0
H189 H 0.24238 0.17652 0.92506 0.0
H190 H 0.20008 0.2202 0.92057 0.0
H191 H 0.18998 0.20888 0.8891 0.0
H192 H 0.16199 0.21146 0.8513 0.0
H193 H 0.13688 0.22668 0.83193 0.0
H194 H 0.14324 0.18509 0.78784 0.0
H195 H 0.16834 0.1701 0.80687 0.0
N196 N 0.19161 0.16492 0.83497 0.0
N197 N 0.21211 0.16341 0.86202 0.0
N198 N 0.18918 0.18724 0.85937 0.0
C199 C 0.20612 0.15637 0.84479 0.0
C200 C 0.20373 0.1788 0.86948 0.0
C201 C 0.18305 0.18037 0.84205 0.0
C202 C 0.21527 0.13952 0.83673 0.0
C203 C 0.20685 0.12994 0.82089 0.0
C204 C 0.21543 0.11399 0.81337 0.0
C205 C 0.23271 0.10731 0.82143 0.0
C206 C 0.24121 0.11707 0.83713 0.0
C207 C 0.23256 0.13288 0.84474 0.0
C208 C 0.21029 0.18607 0.88858 0.0
C209 C 0.2253 0.17734 0.89907 0.0
C210 C 0.23107 0.18381 0.91727 0.0
C211 C 0.22193 0.19914 0.92551 0.0
C212 C 0.20721 0.2081 0.91487 0.0
C213 C 0.20146 0.20166 0.8967 0.0
C214 C 0.16735 0.18956 0.83069 0.0
C215 C 0.15803 0.20554 0.83749 0.0
C216 C 0.85706 0.15073 0.80345 0.0
C217 C 0.83944 0.14621 0.81126 0.0
C218 C 0.83295 0.15795 0.8256 0.0
C219 C 0.84378 0.17355 0.83218 0.0
H220 H 0.84377 0.21094 0.87369 0.0
H221 H 0.83182 0.22678 0.90118 0.0
H222 H 0.8794 0.26629 0.90147 0.0
H223 H 0.89165 0.25025 0.87404 0.0
H224 H 0.917 0.25062 0.83792 0.0
H225 H 0.94517 0.26322 0.82336 0.0
H226 H 0.94938 0.21132 0.79135 0.0
H227 H 0.9207 0.19898 0.80542 0.0
H228 H 0.8815 0.16947 0.80387 0.0
H229 H 0.86258 0.14194 0.79245 0.0
H230 H 0.8193 0.15525 0.83167 0.0
H231 H 0.83809 0.18212 0.84326 0.0
N232 N 0.8665 0.20407 0.84745 0.0
N233 N 0.89212 0.22552 0.84674 0.0
N234 N 0.88907 0.20091 0.82421 0.0
C235 C 0.87601 0.2194 0.85486 0.0
C236 C 0.8988 0.21643 0.83145 0.0
C237 C 0.87277 0.1947 0.8322 0.0
C238 C 0.86873 0.22928 0.87158 0.0
C239 C 0.85175 0.223 0.87955 0.0
C240 C 0.8448 0.23216 0.89528 0.0
C241 C 0.85462 0.24783 0.90349 0.0
C242 C 0.8716 0.25413 0.89559 0.0
C243 C 0.87856 0.24498 0.87979 0.0
C244 C 0.91641 0.22377 0.82277 0.0
C245 C 0.92392 0.24182 0.82779 0.0
C246 C 0.94024 0.24905 0.81952 0.0
C247 C 0.94965 0.2384 0.80607 0.0
C248 C 0.94235 0.22017 0.80135 0.0
C249 C 0.9259 0.213 0.80949 0.0
C250 C 0.86148 0.17805 0.8246 0.0
C251 C 0.86796 0.16649 0.81005 0.0
C252 C 0.80738 0.8738 0.8974 0.0
C253 C 0.81136 0.85617 0.9059 0.0
C254 C 0.82524 0.84477 0.89806 0.0
C255 C 0.8351 0.85093 0.88239 0.0
H256 H 0.8808 0.83781 0.85244 0.0
H257 H 0.90852 0.82012 0.84382 0.0
H258 H 0.92108 0.86251 0.80182 0.0
H259 H 0.8931 0.88006 0.81012 0.0
H260 H 0.86283 0.91291 0.80129 0.0
H261 H 0.85394 0.94238 0.7851 0.0
H262 H 0.81038 0.95104 0.82528 0.0
H263 H 0.81924 0.92199 0.8415 0.0
H264 H 0.81391 0.89369 0.87561 0.0
H265 H 0.79693 0.88305 0.90315 0.0
H266 H 0.82842 0.83094 0.90394 0.0
H267 H 0.8457 0.84171 0.87686 0.0
N268 N 0.85745 0.86537 0.85217 0.0
N269 N 0.86261 0.88732 0.82792 0.0
N270 N 0.83726 0.89127 0.84802 0.0
C271 C 0.86776 0.87127 0.8374 0.0
C272 C 0.84734 0.8974 0.83311 0.0
C273 C 0.84219 0.87524 0.85761 0.0
C274 C 0.88463 0.86042 0.83198 0.0
C275 C 0.88942 0.84341 0.84134 0.0
C276 C 0.90542 0.83328 0.83648 0.0
C277 C 0.91707 0.83988 0.82215 0.0
C278 C 0.91228 0.85686 0.81276 0.0
C279 C 0.89626 0.86699 0.81759 0.0
C280 C 0.84185 0.91505 0.82283 0.0
C281 C 0.85136 0.92111 0.80669 0.0
C282 C 0.84624 0.93796 0.79733 0.0
C283 C 0.83163 0.94918 0.80402 0.0
C284 C 0.82198 0.94295 0.81997 0.0
C285 C 0.827 0.92616 0.82923 0.0
C286 C 0.83129 0.86864 0.87401 0.0
C287 C 0.8172 0.87995 0.88163 0.0
C288 C 0.11902 0.72166 0.6874 0.0
C289 C 0.10883 0.71203 0.70128 0.0
C290 C 0.11443 0.69373 0.70668 0.0
C291 C 0.13019 0.68549 0.69891 0.0
H292 H 0.17361 0.65418 0.71938 0.0
H293 H 0.1878 0.62995 0.73949 0.0
H294 H 0.22623 0.61618 0.6956 0.0
H295 H 0.21236 0.64107 0.67555 0.0
H296 H 0.21191 0.66883 0.63877 0.0
H297 H 0.22869 0.68092 0.61194 0.0
H298 H 0.19367 0.7307 0.61049 0.0
H299 H 0.17635 0.71829 0.63723 0.0
H300 H 0.14262 0.72124 0.66915 0.0
H301 H 0.11492 0.73573 0.68283 0.0
H302 H 0.10707 0.68599 0.71747 0.0
H303 H 0.13426 0.6715 0.70377 0.0
N304 N 0.16666 0.67265 0.68896 0.0
N305 N 0.19129 0.67113 0.66789 0.0
N306 N 0.16699 0.69344 0.66308 0.0
C307 C 0.18302 0.6647 0.68375 0.0
C308 C 0.18337 0.6855 0.65745 0.0
C309 C 0.15848 0.68689 0.6788 0.0
C310 C 0.1918 0.6496 0.69575 0.0
C311 C 0.18506 0.64601 0.71391 0.0
C312 C 0.19315 0.63197 0.72547 0.0
C313 C 0.20811 0.62096 0.7192 0.0
C314 C 0.21489 0.62453 0.70102 0.0
C315 C 0.20687 0.63874 0.68946 0.0
C316 C 0.19288 0.69266 0.64038 0.0
C317 C 0.20768 0.68234 0.63278 0.0
C318 C 0.2174 0.68934 0.61738 0.0
C319 C 0.21278 0.70697 0.6092 0.0
C320 C 0.19757 0.71705 0.61638 0.0
C321 C 0.1877 0.70996 0.63178 0.0
C322 C 0.14078 0.69529 0.68547 0.0
C323 C 0.1348 0.71333 0.67948 0.0
C324 C 0.8701 0.67344 0.69687 0.0
C325 C 0.85235 0.66431 0.69348 0.0
C326 C 0.83963 0.67201 0.67958 0.0
C327 C 0.84443 0.6886 0.6697 0.0
H328 H 0.83411 0.72146 0.61807 0.0
H329 H 0.81758 0.73355 0.58948 0.0
H330 H 0.85278 0.78427 0.59256 0.0
H331 H 0.86909 0.77244 0.62112 0.0
H332 H 0.91096 0.7692 0.64771 0.0
H333 H 0.93772 0.78689 0.66336 0.0
H334 H 0.92372 0.76232 0.71707 0.0
H335 H 0.89747 0.74457 0.70162 0.0
H336 H 0.88859 0.69657 0.69041 0.0
H337 H 0.88053 0.66776 0.70701 0.0
H338 H 0.82576 0.66549 0.67664 0.0
H339 H 0.8342 0.69432 0.65937 0.0
N340 N 0.8578 0.72221 0.64798 0.0
N341 N 0.87754 0.7495 0.64791 0.0
N342 N 0.88138 0.72712 0.67218 0.0
C343 C 0.86302 0.73892 0.63971 0.0
C344 C 0.8867 0.74373 0.66418 0.0
C345 C 0.86708 0.71618 0.66423 0.0
C346 C 0.85296 0.74592 0.62204 0.0
C347 C 0.83835 0.73518 0.61267 0.0
C348 C 0.82893 0.74208 0.59618 0.0
C349 C 0.83382 0.75993 0.58869 0.0
C350 C 0.84846 0.7706 0.59803 0.0
C351 C 0.8579 0.7637 0.61442 0.0
C352 C 0.90218 0.75541 0.67343 0.0
C353 C 0.91354 0.76776 0.66289 0.0
C354 C 0.92883 0.77785 0.67179 0.0
C355 C 0.93265 0.77613 0.69144 0.0
C356 C 0.92094 0.76418 0.70196 0.0
C357 C 0.906 0.75386 0.69306 0.0
C358 C 0.86199 0.69795 0.67359 0.0
C359 C 0.87479 0.69 0.68718 0.0
C360 C 0.85838 0.34688 0.61079 0.0
C361 C 0.83925 0.34976 0.60516 0.0
C362 C 0.82907 0.36371 0.61453 0.0
C363 C 0.8379 0.37451 0.62926 0.0
H364 H 0.83237 0.42146 0.66596 0.0
H365 H 0.81854 0.4496 0.67966 0.0
H366 H 0.87063 0.45959 0.71325 0.0
H367 H 0.8842 0.43132 0.70008 0.0
H368 H 0.91019 0.38645 0.70893 0.0
H369 H 0.93933 0.37025 0.72017 0.0
H370 H 0.9464 0.34903 0.66355 0.0
H371 H 0.91782 0.36509 0.65244 0.0
H372 H 0.88188 0.35467 0.62936 0.0
H373 H 0.86657 0.33606 0.60411 0.0
H374 H 0.81432 0.36634 0.61041 0.0
H375 H 0.82969 0.38505 0.6363 0.0
N376 N 0.85871 0.39732 0.65902 0.0
N377 N 0.88506 0.4001 0.68082 0.0
N378 N 0.88366 0.37585 0.65812 0.0
C379 C 0.8679 0.40661 0.67383 0.0
C380 C 0.89301 0.38468 0.67289 0.0
C381 C 0.86658 0.38189 0.6511 0.0
C382 C 0.85941 0.4239 0.68201 0.0
C383 C 0.84088 0.42963 0.67631 0.0
C384 C 0.83295 0.44588 0.68407 0.0
C385 C 0.84333 0.45687 0.69772 0.0
C386 C 0.86197 0.4513 0.70311 0.0
C387 C 0.86984 0.43505 0.69546 0.0
C388 C 0.91163 0.37702 0.67982 0.0
C389 C 0.91819 0.37857 0.69889 0.0
C390 C 0.93475 0.36915 0.70534 0.0
C391 C 0.94519 0.35831 0.69275 0.0
C392 C 0.93889 0.35739 0.67361 0.0
C393 C 0.92237 0.36654 0.66726 0.0
C394 C 0.85702 0.37139 0.63499 0.0
C395 C 0.86712 0.35751 0.62546 0.0
C396 C 0.15458 0.36126 0.74055 0.0
C397 C 0.14099 0.34931 0.73121 0.0
C398 C 0.14332 0.34477 0.71205 0.0
C399 C 0.15887 0.35198 0.70245 0.0
H400 H 0.20256 0.33614 0.66111 0.0
H401 H 0.21589 0.32248 0.6327 0.0
H402 H 0.24206 0.37658 0.62026 0.0
H403 H 0.22874 0.39018 0.64816 0.0
H404 H 0.23264 0.4213 0.67748 0.0
H405 H 0.25045 0.44937 0.68845 0.0
H406 H 0.23255 0.43947 0.74536 0.0
H407 H 0.21453 0.41121 0.73439 0.0
H408 H 0.18008 0.37805 0.73847 0.0
H409 H 0.15316 0.36505 0.75529 0.0
H410 H 0.13321 0.33541 0.70452 0.0
H411 H 0.16016 0.3482 0.68769 0.0
N412 N 0.19378 0.36456 0.68467 0.0
N413 N 0.21693 0.3885 0.68177 0.0
N414 N 0.19777 0.38837 0.70803 0.0
C415 C 0.20811 0.37257 0.67488 0.0
C416 C 0.21198 0.3965 0.69823 0.0
C417 C 0.18846 0.37247 0.70127 0.0
C418 C 0.21462 0.36423 0.657 0.0
C419 C 0.21097 0.34513 0.65216 0.0
C420 C 0.21873 0.33728 0.63599 0.0
C421 C 0.23006 0.34845 0.62422 0.0
C422 C 0.23324 0.36762 0.62885 0.0
C423 C 0.22568 0.37538 0.645 0.0
C424 C 0.22217 0.41395 0.70508 0.0
C425 C 0.23245 0.42504 0.69236 0.0
C426 C 0.24262 0.4412 0.69859 0.0
C427 C 0.24297 0.44655 0.71775 0.0
C428 C 0.23268 0.43553 0.73052 0.0
C429 C 0.22225 0.41946 0.72422 0.0
C430 C 0.17234 0.36418 0.71168 0.0
C431 C 0.16998 0.36875 0.73086 0.0
C432 C 0.1221 0.29526 0.35034 0.0
C433 C 0.11321 0.30436 0.33468 0.0
C434 C 0.12246 0.32007 0.32672 0.0
C435 C 0.13983 0.32702 0.33487 0.0
H436 H 0.18799 0.36463 0.32781 0.0
H437 H 0.20621 0.39128 0.31553 0.0
H438 H 0.23497 0.39871 0.37054 0.0
H439 H 0.21732 0.3718 0.38257 0.0
H440 H 0.20846 0.34335 0.41635 0.0
H441 H 0.21885 0.33 0.44693 0.0
H442 H 0.1925 0.27631 0.43108 0.0
H443 H 0.1817 0.28974 0.40047 0.0
H444 H 0.14545 0.29475 0.37065 0.0
H445 H 0.11558 0.28285 0.35656 0.0
H446 H 0.11598 0.32735 0.31461 0.0
H447 H 0.14635 0.33946 0.32875 0.0
N448 N 0.17525 0.34159 0.35395 0.0
N449 N 0.19674 0.34135 0.38044 0.0
N450 N 0.17232 0.31845 0.37762 0.0
C451 C 0.19076 0.34921 0.36365 0.0
C452 C 0.18768 0.32593 0.38748 0.0
C453 C 0.1659 0.3262 0.36091 0.0
C454 C 0.20121 0.36593 0.35617 0.0
C455 C 0.19818 0.37197 0.33729 0.0
C456 C 0.20859 0.38735 0.33027 0.0
C457 C 0.22221 0.39719 0.34198 0.0
C458 C 0.22496 0.39129 0.36094 0.0
C459 C 0.21469 0.37587 0.3679 0.0
C460 C 0.19422 0.31763 0.40595 0.0
C461 C 0.20486 0.3287 0.41933 0.0
C462 C 0.21071 0.3211 0.4369 0.0
C463 C 0.20638 0.30215 0.44139 0.0
C464 C 0.19601 0.29095 0.42796 0.0
C465 C 0.1898 0.29868 0.41049 0.0
C466 C 0.14832 0.31828 0.35105 0.0
C467 C 0.13935 0.30209 0.3584 0.0
C468 C 0.13763 0.70016 0.33566 0.0
C469 C 0.12515 0.69372 0.32084 0.0
C470 C 0.12962 0.677 0.31118 0.0
C471 C 0.14603 0.66683 0.31645 0.0
H472 H 0.18507 0.62319 0.29918 0.0
H473 H 0.19498 0.59387 0.28384 0.0
H474 H 0.22948 0.58014 0.33396 0.0
H475 H 0.21982 0.60904 0.34914 0.0
H476 H 0.23303 0.64252 0.37777 0.0
H477 H 0.25119 0.65418 0.40588 0.0
H478 H 0.21318 0.70143 0.40924 0.0
H479 H 0.19532 0.69013 0.38116 0.0
H480 H 0.16309 0.69556 0.35246 0.0
H481 H 0.13487 0.71315 0.34317 0.0
H482 H 0.12025 0.67154 0.29978 0.0
H483 H 0.1489 0.65391 0.30888 0.0
N484 N 0.18058 0.64626 0.32864 0.0
N485 N 0.20636 0.64253 0.35071 0.0
N486 N 0.18605 0.66823 0.35335 0.0
C487 C 0.19605 0.63628 0.33505 0.0
C488 C 0.20149 0.65853 0.35992 0.0
C489 C 0.17549 0.66229 0.33781 0.0
C490 C 0.20161 0.61852 0.32545 0.0
C491 C 0.19471 0.61384 0.30693 0.0
C492 C 0.20042 0.59711 0.2981 0.0
C493 C 0.21283 0.58458 0.30776 0.0
C494 C 0.21964 0.5893 0.32623 0.0
C495 C 0.21419 0.60602 0.3349 0.0
C496 C 0.21269 0.66538 0.37707 0.0
C497 C 0.22856 0.65543 0.38447 0.0
C498 C 0.23894 0.66205 0.40066 0.0
C499 C 0.23373 0.67881 0.40979 0.0
C500 C 0.21783 0.68867 0.40241 0.0
C501 C 0.20748 0.68207 0.38631 0.0
C502 C 0.15835 0.67318 0.33149 0.0
C503 C 0.15395 0.69006 0.3409 0.0
C504 C 0.83594 0.60331 0.30185 0.0
C505 C 0.81668 0.59813 0.30367 0.0
C506 C 0.80556 0.6092 0.31535 0.0
C507 C 0.81339 0.62531 0.32456 0.0
H508 H 0.80559 0.66114 0.36907 0.0
H509 H 0.78852 0.67597 0.39413 0.0
H510 H 0.83196 0.71987 0.39944 0.0
H511 H 0.84898 0.70523 0.374 0.0
H512 H 0.88767 0.69985 0.34966 0.0
H513 H 0.91629 0.71423 0.33749 0.0
H514 H 0.90963 0.67945 0.2871 0.0
H515 H 0.88142 0.66451 0.29967 0.0
H516 H 0.85849 0.6231 0.30891 0.0
H517 H 0.8451 0.59489 0.29338 0.0
H518 H 0.79066 0.60577 0.31696 0.0
H519 H 0.80433 0.6337 0.33318 0.0
N520 N 0.83167 0.6568 0.34548 0.0
N521 N 0.85535 0.68065 0.34744 0.0
N522 N 0.85694 0.65624 0.32497 0.0
C523 C 0.83891 0.67292 0.35377 0.0
C524 C 0.86443 0.67239 0.33298 0.0
C525 C 0.8406 0.64833 0.33115 0.0
C526 C 0.82873 0.68196 0.36939 0.0
C527 C 0.8116 0.67395 0.37553 0.0
C528 C 0.8018 0.6824 0.39005 0.0
C529 C 0.80883 0.69912 0.39887 0.0
C530 C 0.82599 0.70713 0.39281 0.0
C531 C 0.83582 0.69866 0.37826 0.0
C532 C 0.88211 0.68105 0.32566 0.0
C533 C 0.8923 0.69522 0.336 0.0
C534 C 0.90872 0.70357 0.32892 0.0
C535 C 0.9153 0.6982 0.31114 0.0
C536 C 0.90522 0.68385 0.30091 0.0
C537 C 0.88891 0.67534 0.3081 0.0
C538 C 0.83247 0.6308 0.32217 0.0
C539 C 0.84368 0.61949 0.31085 0.0
C540 C 0.80026 0.34964 0.4138 0.0
C541 C 0.80038 0.33189 0.4228 0.0
C542 C 0.81171 0.31749 0.41572 0.0
C543 C 0.82284 0.32082 0.40008 0.0
H544 H 0.87709 0.30735 0.37897 0.0
H545 H 0.90527 0.28882 0.3732 0.0
H546 H 0.90885 0.31483 0.31802 0.0
H547 H 0.88117 0.33365 0.32394 0.0
H548 H 0.85929 0.37114 0.31532 0.0
H549 H 0.85126 0.39698 0.29366 0.0
H550 H 0.80258 0.40987 0.3263 0.0
H551 H 0.81078 0.38437 0.34819 0.0
H552 H 0.8107 0.36672 0.39132 0.0
H553 H 0.79165 0.36097 0.41895 0.0
H554 H 0.81226 0.30373 0.42252 0.0
H555 H 0.83148 0.30944 0.39507 0.0
N556 N 0.84944 0.33085 0.37091 0.0
N557 N 0.85558 0.34858 0.34368 0.0
N558 N 0.83009 0.35655 0.36223 0.0
C559 C 0.86016 0.33407 0.35561 0.0
C560 C 0.84059 0.35988 0.34684 0.0
C561 C 0.83437 0.34205 0.37431 0.0
C562 C 0.87686 0.32213 0.35199 0.0
C563 C 0.88387 0.3091 0.36559 0.0
C564 C 0.90001 0.29839 0.36225 0.0
C565 C 0.90948 0.3004 0.34519 0.0
C566 C 0.90222 0.31318 0.33149 0.0
C567 C 0.88621 0.32393 0.33486 0.0
C568 C 0.83572 0.37563 0.33359 0.0
C569 C 0.84688 0.37948 0.31794 0.0
C570 C 0.84223 0.39426 0.30542 0.0
C571 C 0.82631 0.40555 0.30824 0.0
C572 C 0.81513 0.40167 0.32386 0.0
C573 C 0.81978 0.38693 0.33638 0.0
C574 C 0.82266 0.33854 0.39098 0.0
C575 C 0.81114 0.35288 0.39795 0.0
C576 C 0.64106 0.23093 0.70574 0.0
C577 C 0.63775 0.22141 0.72282 0.0
C578 C 0.64869 0.20539 0.72749 0.0
C579 C 0.66245 0.19899 0.71533 0.0
H580 H 0.71004 0.16236 0.7112 0.0
H581 H 0.72845 0.13392 0.71829 0.0
H582 H 0.73801 0.12687 0.65875 0.0
H583 H 0.7198 0.1554 0.65158 0.0
H584 H 0.70913 0.18943 0.62328 0.0
H585 H 0.71451 0.20586 0.59359 0.0
H586 H 0.69201 0.25716 0.61654 0.0
H587 H 0.68641 0.24066 0.64637 0.0
H588 H 0.65673 0.23221 0.68051 0.0
H589 H 0.63275 0.24314 0.70152 0.0
H590 H 0.64672 0.19784 0.74063 0.0
H591 H 0.67052 0.18657 0.71939 0.0
N592 N 0.68991 0.18542 0.68892 0.0
N593 N 0.70443 0.18773 0.6597 0.0
N594 N 0.68231 0.21043 0.6681 0.0
C595 C 0.70229 0.17854 0.67641 0.0
C596 C 0.6946 0.20373 0.65547 0.0
C597 C 0.67976 0.20132 0.68482 0.0
C598 C 0.71339 0.1612 0.68082 0.0
C599 C 0.71607 0.15479 0.69961 0.0
C600 C 0.72675 0.13858 0.7037 0.0
C601 C 0.73475 0.12822 0.68908 0.0
C602 C 0.732 0.13454 0.67029 0.0
C603 C 0.72159 0.15093 0.66623 0.0
C604 C 0.69736 0.21371 0.63725 0.0
C605 C 0.70524 0.20419 0.62204 0.0
C606 C 0.70821 0.21356 0.60496 0.0
C607 C 0.7036 0.23277 0.60272 0.0
C608 C 0.69572 0.24236 0.61789 0.0
C609 C 0.69245 0.23288 0.63492 0.0
C610 C 0.66563 0.20843 0.69815 0.0
C611 C 0.6548 0.22455 0.6936 0.0
C612 C 0.37238 0.13777 0.72777 0.0
C613 C 0.35486 0.12897 0.72248 0.0
C614 C 0.34295 0.1377 0.70862 0.0
C615 C 0.34848 0.15478 0.70018 0.0
H616 H 0.33771 0.18858 0.6526 0.0
H617 H 0.32164 0.20002 0.6235 0.0
H618 H 0.3578 0.25012 0.62545 0.0
H619 H 0.37409 0.23861 0.65414 0.0
H620 H 0.41075 0.24083 0.6833 0.0
H621 H 0.43984 0.2564 0.69658 0.0
H622 H 0.44334 0.21429 0.74093 0.0
H623 H 0.41483 0.19871 0.72775 0.0
H624 H 0.39143 0.16124 0.72399 0.0
H625 H 0.38179 0.13152 0.73854 0.0
H626 H 0.32944 0.1312 0.7041 0.0
H627 H 0.33897 0.16105 0.68952 0.0
N628 N 0.36223 0.18878 0.68119 0.0
N629 N 0.3834 0.21488 0.68054 0.0
N630 N 0.38741 0.19158 0.70399 0.0
C631 C 0.36784 0.2053 0.67299 0.0
C632 C 0.39325 0.20812 0.69609 0.0
C633 C 0.37195 0.18181 0.6967 0.0
C634 C 0.35738 0.21256 0.65572 0.0
C635 C 0.34223 0.20206 0.64685 0.0
C636 C 0.33292 0.20866 0.63019 0.0
C637 C 0.33853 0.22589 0.62197 0.0
C638 C 0.35335 0.23657 0.63111 0.0
C639 C 0.36266 0.23 0.6477 0.0
C640 C 0.41045 0.21834 0.70429 0.0
C641 C 0.41773 0.23491 0.6959 0.0
C642 C 0.43436 0.2439 0.70353 0.0
C643 C 0.4441 0.23644 0.71964 0.0
C644 C 0.4365 0.22019 0.72824 0.0
C645 C 0.42 0.21127 0.72069 0.0
C646 C 0.36599 0.16363 0.70554 0.0
C647 C 0.37783 0.1549 0.71948 0.0
C648 C 0.35405 0.81937 0.62636 0.0
C649 C 0.33731 0.82274 0.61533 0.0
C650 C 0.32603 0.8382 0.62005 0.0
C651 C 0.33128 0.84989 0.63553 0.0
H652 H 0.32658 0.90756 0.66035 0.0
H653 H 0.30975 0.93626 0.66932 0.0
H654 H 0.32632 0.92644 0.7281 0.0
H655 H 0.34332 0.8982 0.71923 0.0
H656 H 0.3917 0.88506 0.71908 0.0
H657 H 0.42032 0.87718 0.73802 0.0
H658 H 0.42245 0.8233 0.70908 0.0
H659 H 0.39428 0.83141 0.68974 0.0
H660 H 0.37219 0.82776 0.65008 0.0
H661 H 0.36296 0.80746 0.62329 0.0
H662 H 0.31315 0.84134 0.6117 0.0
H663 H 0.32219 0.86159 0.63879 0.0
N664 N 0.34288 0.87361 0.6681 0.0
N665 N 0.36308 0.87916 0.69505 0.0
N666 N 0.36865 0.8536 0.67499 0.0
C667 C 0.34768 0.88408 0.68387 0.0
C668 C 0.37369 0.86399 0.69068 0.0
C669 C 0.3533 0.85825 0.66362 0.0
C670 C 0.33635 0.90068 0.68908 0.0
C671 C 0.32645 0.91147 0.67519 0.0
C672 C 0.31688 0.92789 0.68029 0.0
C673 C 0.31664 0.93348 0.69941 0.0
C674 C 0.32606 0.92235 0.71329 0.0
C675 C 0.33593 0.90625 0.70818 0.0
C676 C 0.3907 0.85893 0.70277 0.0
C677 C 0.39825 0.87151 0.71677 0.0
C678 C 0.41463 0.86694 0.72773 0.0
C679 C 0.42382 0.84963 0.72506 0.0
C680 C 0.41604 0.83693 0.71129 0.0
C681 C 0.39977 0.84155 0.70024 0.0
C682 C 0.34791 0.84635 0.64673 0.0
C683 C 0.35927 0.83099 0.64185 0.0
C684 C 0.61915 0.85246 0.70318 0.0
C685 C 0.61267 0.83397 0.69872 0.0
C686 C 0.62304 0.82301 0.68628 0.0
C687 C 0.63935 0.83059 0.67818 0.0
H688 H 0.68625 0.81907 0.64306 0.0
H689 H 0.69628 0.80366 0.61421 0.0
H690 H 0.71324 0.858 0.59197 0.0
H691 H 0.70359 0.87348 0.62108 0.0
H692 H 0.72199 0.89732 0.67137 0.0
H693 H 0.73478 0.92604 0.68698 0.0
H694 H 0.67888 0.93813 0.70661 0.0
H695 H 0.66648 0.90917 0.69186 0.0
H696 H 0.63989 0.87427 0.69907 0.0
H697 H 0.6117 0.86114 0.71301 0.0
H698 H 0.61838 0.80871 0.6826 0.0
H699 H 0.64695 0.82187 0.66852 0.0
N700 N 0.67102 0.84886 0.65934 0.0
N701 N 0.69356 0.87379 0.65775 0.0
N702 N 0.67018 0.87438 0.68045 0.0
C703 C 0.68629 0.85688 0.65107 0.0
C704 C 0.68555 0.88257 0.67259 0.0
C705 C 0.66284 0.85755 0.674 0.0
C706 C 0.69411 0.84751 0.63434 0.0
C707 C 0.69233 0.82773 0.63212 0.0
C708 C 0.69812 0.81888 0.61565 0.0
C709 C 0.70544 0.82965 0.60084 0.0
C710 C 0.70754 0.84939 0.60315 0.0
C711 C 0.70215 0.85822 0.61984 0.0
C712 C 0.69326 0.90083 0.68048 0.0
C713 C 0.71246 0.9062 0.67894 0.0
C714 C 0.71976 0.92274 0.68788 0.0
C715 C 0.70797 0.93446 0.69834 0.0
C716 C 0.68861 0.92931 0.69923 0.0
C717 C 0.68142 0.9127 0.69059 0.0
C718 C 0.64574 0.84918 0.68259 0.0
C719 C 0.63546 0.85994 0.69528 0.0
C720 C 0.61788 0.81574 0.32882 0.0
C721 C 0.60969 0.818 0.31037 0.0
C722 C 0.61826 0.831 0.29815 0.0
C723 C 0.63464 0.84129 0.30416 0.0
H724 H 0.67686 0.87909 0.2858 0.0
H725 H 0.68558 0.90615 0.26619 0.0
H726 H 0.70843 0.93555 0.31601 0.0
H727 H 0.70014 0.90824 0.3357 0.0
H728 H 0.71041 0.87835 0.37336 0.0
H729 H 0.72871 0.86935 0.40226 0.0
H730 H 0.70469 0.81276 0.39805 0.0
H731 H 0.68622 0.82171 0.36942 0.0
H732 H 0.64016 0.82378 0.34907 0.0
H733 H 0.61151 0.80617 0.3388 0.0
H734 H 0.61255 0.83296 0.28379 0.0
H735 H 0.64087 0.85107 0.29428 0.0
N736 N 0.6663 0.86472 0.31836 0.0
N737 N 0.69132 0.87111 0.34074 0.0
N738 N 0.67017 0.84554 0.34533 0.0
C739 C 0.68171 0.87541 0.32415 0.0
C740 C 0.68575 0.85604 0.35134 0.0
C741 C 0.66029 0.84989 0.32889 0.0
C742 C 0.68779 0.89156 0.31231 0.0
C743 C 0.68384 0.89128 0.29258 0.0
C744 C 0.68888 0.9067 0.28133 0.0
C745 C 0.69759 0.9229 0.28962 0.0
C746 C 0.70163 0.92322 0.30932 0.0
C747 C 0.69698 0.90759 0.32054 0.0
C748 C 0.69679 0.85077 0.36903 0.0
C749 C 0.70902 0.86398 0.37859 0.0
C750 C 0.71947 0.85887 0.39518 0.0
C751 C 0.71824 0.84032 0.40237 0.0
C752 C 0.70611 0.82711 0.39276 0.0
C753 C 0.69541 0.8323 0.37641 0.0
C754 C 0.64296 0.83881 0.32252 0.0
C755 C 0.63433 0.82592 0.33477 0.0
C756 C 0.62537 0.20413 0.33011 0.0
C757 C 0.61494 0.19359 0.31614 0.0
C758 C 0.62176 0.17569 0.31107 0.0
C759 C 0.63885 0.16886 0.31912 0.0
H760 H 0.68107 0.12826 0.3101 0.0
H761 H 0.69867 0.1037 0.29421 0.0
H762 H 0.74821 0.11612 0.33075 0.0
H763 H 0.73083 0.1406 0.34657 0.0
H764 H 0.72412 0.16135 0.38502 0.0
H765 H 0.73964 0.1756 0.41318 0.0
H766 H 0.69893 0.22082 0.41089 0.0
H767 H 0.68335 0.20666 0.38253 0.0
H768 H 0.65025 0.20585 0.34881 0.0
H769 H 0.62067 0.218 0.33431 0.0
H770 H 0.61392 0.16688 0.30076 0.0
H771 H 0.64366 0.15513 0.31464 0.0
N772 N 0.67704 0.15806 0.33212 0.0
N773 N 0.70207 0.15996 0.35515 0.0
N774 N 0.67637 0.18058 0.35666 0.0
C775 C 0.69414 0.15178 0.33922 0.0
C776 C 0.69334 0.17427 0.36401 0.0
C777 C 0.66806 0.1725 0.34075 0.0
C778 C 0.70447 0.1365 0.32962 0.0
C779 C 0.69569 0.12574 0.31478 0.0
C780 C 0.70574 0.11157 0.30575 0.0
C781 C 0.72485 0.10797 0.31122 0.0
C782 C 0.73358 0.11865 0.32609 0.0
C783 C 0.72352 0.13265 0.33522 0.0
C784 C 0.70246 0.18287 0.38142 0.0
C785 C 0.71841 0.17433 0.39046 0.0
C786 C 0.72727 0.18242 0.40671 0.0
C787 C 0.72053 0.19933 0.41424 0.0
C788 C 0.70457 0.20787 0.40529 0.0
C789 C 0.69558 0.19969 0.3891 0.0
C790 C 0.64953 0.17957 0.33273 0.0
C791 C 0.64242 0.19718 0.33835 0.0
C792 C 0.31105 0.11043 0.32803 0.0
C793 C 0.29738 0.10421 0.34066 0.0
C794 C 0.29562 0.11419 0.35773 0.0
C795 C 0.30724 0.13008 0.36202 0.0
H796 H 0.3123 0.17731 0.397 0.0
H797 H 0.30616 0.19774 0.42371 0.0
H798 H 0.35741 0.23011 0.41377 0.0
H799 H 0.36338 0.20995 0.38672 0.0
H800 H 0.38674 0.201 0.35073 0.0
H801 H 0.41351 0.20767 0.33097 0.0
H802 H 0.39764 0.15943 0.29565 0.0
H803 H 0.37103 0.15248 0.31559 0.0
H804 H 0.33314 0.13044 0.32227 0.0
H805 H 0.31296 0.10291 0.31488 0.0
H806 H 0.28514 0.10982 0.36769 0.0
H807 H 0.3055 0.13744 0.37528 0.0
N808 N 0.33045 0.16423 0.36902 0.0
N809 N 0.35692 0.18324 0.36205 0.0
N810 N 0.34858 0.15692 0.34299 0.0
C811 C 0.34202 0.17948 0.37317 0.0
C812 C 0.36032 0.17203 0.34692 0.0
C813 C 0.33363 0.15288 0.35394 0.0
C814 C 0.33836 0.1919 0.38962 0.0
C815 C 0.32231 0.18875 0.40046 0.0
C816 C 0.31883 0.20044 0.4159 0.0
C817 C 0.33132 0.21556 0.42099 0.0
C818 C 0.34736 0.21875 0.41015 0.0
C819 C 0.35083 0.20708 0.39466 0.0
C820 C 0.37664 0.17619 0.33481 0.0
C821 C 0.38891 0.19178 0.33877 0.0
C822 C 0.40423 0.19569 0.32735 0.0
C823 C 0.4077 0.18413 0.31166 0.0
C824 C 0.3955 0.16851 0.30773 0.0
C825 C 0.38016 0.16459 0.31914 0.0
C826 C 0.32101 0.13623 0.3494 0.0
C827 C 0.32274 0.12618 0.33236 0.0
C828 C 0.30107 0.83132 0.41696 0.0
C829 C 0.30324 0.81216 0.42198 0.0
C830 C 0.31544 0.80095 0.4116 0.0
C831 C 0.32537 0.80868 0.39668 0.0
H832 H 0.37799 0.80428 0.3727 0.0
H833 H 0.40603 0.78791 0.3629 0.0
H834 H 0.4067 0.8224 0.31231 0.0
H835 H 0.37898 0.83929 0.32249 0.0
H836 H 0.34597 0.87244 0.31692 0.0
H837 H 0.3354 0.90204 0.30194 0.0
H838 H 0.30731 0.9171 0.3528 0.0
H839 H 0.31758 0.88759 0.3677 0.0
H840 H 0.30891 0.85384 0.39827 0.0
H841 H 0.29179 0.8403 0.42472 0.0
H842 H 0.31769 0.78623 0.4153 0.0
H843 H 0.33472 0.79958 0.38913 0.0
N844 N 0.34929 0.82651 0.36939 0.0
N845 N 0.35367 0.84991 0.34632 0.0
N846 N 0.32889 0.85245 0.3674 0.0
C847 C 0.35923 0.83342 0.35476 0.0
C848 C 0.33855 0.85954 0.35261 0.0
C849 C 0.33408 0.83586 0.37577 0.0
C850 C 0.37616 0.82317 0.34841 0.0
C851 C 0.38406 0.8084 0.35946 0.0
C852 C 0.40015 0.79889 0.35376 0.0
C853 C 0.40873 0.80375 0.33677 0.0
C854 C 0.40073 0.81845 0.32565 0.0
C855 C 0.38472 0.82808 0.33144 0.0
C856 C 0.3326 0.87762 0.34352 0.0
C857 C 0.3376 0.88211 0.32493 0.0
C858 C 0.3315 0.899 0.31631 0.0
C859 C 0.32063 0.9119 0.32624 0.0
C860 C 0.31585 0.90752 0.34488 0.0
C861 C 0.32163 0.89053 0.35336 0.0
C862 C 0.32325 0.82782 0.39158 0.0
C863 C 0.31085 0.83903 0.40179 0.0
C864 C 0.61479 0.70768 0.19289 0.0
C865 C 0.60877 0.69526 0.20712 0.0
C866 C 0.61823 0.678 0.20977 0.0
C867 C 0.63348 0.67337 0.19867 0.0
H868 H 0.68121 0.63944 0.19963 0.0
H869 H 0.69935 0.61105 0.20727 0.0
H870 H 0.72497 0.61405 0.1529 0.0
H871 H 0.70693 0.6426 0.14519 0.0
H872 H 0.71319 0.69288 0.13669 0.0
H873 H 0.72406 0.71317 0.11153 0.0
H874 H 0.66646 0.73231 0.10049 0.0
H875 H 0.65585 0.7127 0.1266 0.0
H876 H 0.63428 0.71298 0.17099 0.0
H877 H 0.60766 0.72098 0.1903 0.0
H878 H 0.6141 0.6682 0.22072 0.0
H879 H 0.6405 0.66001 0.20131 0.0
N880 N 0.66634 0.66519 0.17723 0.0
N881 N 0.6871 0.67244 0.15314 0.0
N882 N 0.66174 0.69263 0.15887 0.0
C883 C 0.68172 0.66072 0.16724 0.0
C884 C 0.67723 0.6884 0.14886 0.0
C885 C 0.65623 0.68107 0.17316 0.0
C886 C 0.69262 0.64334 0.17181 0.0
C887 C 0.69068 0.63408 0.18926 0.0
C888 C 0.70115 0.61787 0.1937 0.0
C889 C 0.71361 0.61039 0.1807 0.0
C890 C 0.71541 0.61947 0.16315 0.0
C891 C 0.70514 0.63587 0.1588 0.0
C892 C 0.68363 0.7011 0.13359 0.0
C893 C 0.70284 0.70145 0.12891 0.0
C894 C 0.70905 0.71303 0.11432 0.0
C895 C 0.69616 0.72432 0.10364 0.0
C896 C 0.67691 0.72407 0.10847 0.0
C897 C 0.67077 0.71273 0.12339 0.0
C898 C 0.63965 0.68585 0.18455 0.0
C899 C 0.63001 0.70302 0.18173 0.0
C900 C 0.35124 0.61586 0.22221 0.0
C901 C 0.33603 0.60398 0.21582 0.0
C902 C 0.3259 0.60872 0.19886 0.0
C903 C 0.33083 0.62495 0.18859 0.0
H904 H 0.32824 0.65133 0.13248 0.0
H905 H 0.31177 0.65992 0.10237 0.0
H906 H 0.32457 0.71898 0.11363 0.0
H907 H 0.34135 0.71049 0.1434 0.0
H908 H 0.38975 0.71128 0.16548 0.0
H909 H 0.41542 0.73136 0.17979 0.0
H910 H 0.40955 0.7026 0.23324 0.0
H911 H 0.38422 0.68273 0.21918 0.0
H912 H 0.36786 0.64089 0.21753 0.0
H913 H 0.35921 0.61282 0.23532 0.0
H914 H 0.31423 0.59978 0.1934 0.0
H915 H 0.32268 0.62814 0.17561 0.0
N916 N 0.34197 0.6589 0.16772 0.0
N917 N 0.36038 0.68695 0.166 0.0
N918 N 0.36489 0.66638 0.19184 0.0
C919 C 0.34649 0.67517 0.15841 0.0
C920 C 0.3697 0.6826 0.18271 0.0
C921 C 0.3511 0.65443 0.18452 0.0
C922 C 0.33617 0.68023 0.14032 0.0
C923 C 0.32749 0.66615 0.12855 0.0
C924 C 0.3181 0.67103 0.11131 0.0
C925 C 0.31679 0.69011 0.10576 0.0
C926 C 0.32519 0.70417 0.11766 0.0
C927 C 0.33492 0.69929 0.13464 0.0
C928 C 0.38488 0.69535 0.19116 0.0
C929 C 0.39387 0.70936 0.18032 0.0
C930 C 0.40861 0.72081 0.18846 0.0
C931 C 0.41438 0.71871 0.20768 0.0
C932 C 0.40524 0.70484 0.21848 0.0
C933 C 0.39078 0.6933 0.21034 0.0
C934 C 0.34598 0.6369 0.19506 0.0
C935 C 0.35613 0.63208 0.21201 0.0
C936 C 0.33974 0.28987 0.13038 0.0
C937 C 0.32174 0.29552 0.12322 0.0
C938 C 0.31353 0.3116 0.13115 0.0
C939 C 0.32282 0.32152 0.14611 0.0
H940 H 0.31545 0.36619 0.18321 0.0
H941 H 0.30094 0.39383 0.19734 0.0
H942 H 0.35208 0.40332 0.23253 0.0
H943 H 0.36631 0.37567 0.21892 0.0
H944 H 0.39305 0.33847 0.22782 0.0
H945 H 0.42264 0.32584 0.24217 0.0
H946 H 0.42728 0.28872 0.19402 0.0
H947 H 0.39802 0.30117 0.17972 0.0
H948 H 0.36278 0.29486 0.15082 0.0
H949 H 0.34644 0.27755 0.12461 0.0
H950 H 0.29985 0.31659 0.12573 0.0
H951 H 0.31588 0.33371 0.15185 0.0
N952 N 0.34224 0.3418 0.17719 0.0
N953 N 0.36712 0.34424 0.20045 0.0
N954 N 0.36656 0.31938 0.17834 0.0
C955 C 0.35068 0.3511 0.19232 0.0
C956 C 0.37516 0.32839 0.19357 0.0
C957 C 0.3501 0.32593 0.17006 0.0
C958 C 0.342 0.36846 0.20008 0.0
C959 C 0.32362 0.37421 0.19394 0.0
C960 C 0.31531 0.39014 0.20196 0.0
C961 C 0.3252 0.40069 0.21629 0.0
C962 C 0.34381 0.39528 0.22189 0.0
C963 C 0.35204 0.37939 0.21399 0.0
C964 C 0.39312 0.32091 0.20252 0.0
C965 C 0.40042 0.32765 0.22027 0.0
C966 C 0.41732 0.32037 0.22856 0.0
C967 C 0.42742 0.30643 0.21916 0.0
C968 C 0.42004 0.29969 0.2015 0.0
C969 C 0.40314 0.30677 0.19334 0.0
C970 C 0.34062 0.31567 0.15364 0.0
C971 C 0.34905 0.29978 0.14548 0.0
C972 C 0.61729 0.32009 0.20905 0.0
C973 C 0.61372 0.30312 0.19891 0.0
C974 C 0.6249 0.29903 0.1835 0.0
C975 C 0.63917 0.31167 0.17819 0.0
H976 H 0.69001 0.31537 0.14841 0.0
H977 H 0.70613 0.30654 0.11984 0.0
H978 H 0.70988 0.36541 0.10368 0.0
H979 H 0.6941 0.37442 0.1326 0.0
H980 H 0.68656 0.40482 0.16825 0.0
H981 H 0.69513 0.43455 0.18423 0.0
H982 H 0.67786 0.41109 0.23737 0.0
H983 H 0.66897 0.38117 0.22127 0.0
H984 H 0.63377 0.34586 0.21166 0.0
H985 H 0.6088 0.32372 0.22092 0.0
H986 H 0.62272 0.28596 0.17558 0.0
H987 H 0.64739 0.30798 0.16616 0.0
N988 N 0.66733 0.33819 0.16636 0.0
N989 N 0.68298 0.36772 0.1682 0.0
N990 N 0.66049 0.35946 0.19058 0.0
C991 C 0.68016 0.35067 0.15952 0.0
C992 C 0.67334 0.37216 0.18385 0.0
C993 C 0.6573 0.34246 0.18173 0.0
C994 C 0.69076 0.34559 0.14269 0.0
C995 C 0.69439 0.32646 0.13884 0.0
C996 C 0.7037 0.3214 0.12258 0.0
C997 C 0.7092 0.33531 0.10965 0.0
C998 C 0.70572 0.35446 0.11349 0.0
C999 C 0.69678 0.35958 0.13002 0.0
C1000 C 0.67715 0.3906 0.1935 0.0
C1001 C 0.6844 0.40601 0.18331 0.0
C1002 C 0.68917 0.42311 0.19243 0.0
C1003 C 0.68709 0.42516 0.21203 0.0
C1004 C 0.6796 0.40988 0.22224 0.0
C1005 C 0.67446 0.39281 0.21301 0.0
C1006 C 0.64262 0.3288 0.18813 0.0
C1007 C 0.63156 0.33282 0.2037 0.0
C1008 C 0.64689 0.34585 0.82294 0.0
C1009 C 0.635 0.35472 0.8092 0.0
C1010 C 0.63933 0.37355 0.80407 0.0
C1011 C 0.65537 0.38311 0.81239 0.0
H1012 H 0.70065 0.42734 0.804 0.0
H1013 H 0.71818 0.45497 0.79233 0.0
H1014 H 0.75139 0.45777 0.84534 0.0
H1015 H 0.73376 0.43101 0.85709 0.0
H1016 H 0.73047 0.40185 0.88821 0.0
H1017 H 0.74645 0.3877 0.91582 0.0
H1018 H 0.72107 0.33324 0.90064 0.0
H1019 H 0.70441 0.34765 0.87335 0.0
H1020 H 0.67131 0.34785 0.84184 0.0
H1021 H 0.64383 0.33152 0.82755 0.0
H1022 H 0.63045 0.38079 0.79352 0.0
H1023 H 0.65834 0.39758 0.80819 0.0
N1024 N 0.69127 0.40058 0.8292 0.0
N1025 N 0.71417 0.40101 0.85451 0.0
N1026 N 0.692 0.37608 0.8519 0.0
C1027 C 0.70656 0.40915 0.83854 0.0
C1028 C 0.70708 0.38456 0.8613 0.0
C1029 C 0.68386 0.38397 0.83594 0.0
C1030 C 0.71577 0.42679 0.83146 0.0
C1031 C 0.71152 0.43404 0.81322 0.0
C1032 C 0.7217 0.44979 0.80648 0.0
C1033 C 0.73628 0.45865 0.81787 0.0
C1034 C 0.74012 0.4516 0.83622 0.0
C1035 C 0.73002 0.43601 0.84291 0.0
C1036 C 0.71619 0.37587 0.8785 0.0
C1037 C 0.72823 0.38685 0.89077 0.0
C1038 C 0.73753 0.37869 0.90658 0.0
C1039 C 0.73526 0.35925 0.91045 0.0
C1040 C 0.72301 0.3483 0.89829 0.0
C1041 C 0.7135 0.35654 0.88257 0.0
C1042 C 0.66718 0.37412 0.82622 0.0
C1043 C 0.66267 0.35535 0.83129 0.0
C1044 C 0.66553 0.75149 0.83989 0.0
C1045 C 0.65267 0.74604 0.82498 0.0
C1046 C 0.65643 0.72962 0.81453 0.0
C1047 C 0.67246 0.7187 0.81917 0.0
H1048 H 0.70907 0.67732 0.79879 0.0
H1049 H 0.71803 0.65067 0.77913 0.0
H1050 H 0.75287 0.62901 0.82593 0.0
H1051 H 0.74399 0.65556 0.84561 0.0
H1052 H 0.74334 0.68135 0.88934 0.0
H1053 H 0.7571 0.69048 0.92079 0.0
H1054 H 0.74704 0.74933 0.90756 0.0
H1055 H 0.73328 0.74029 0.87659 0.0
H1056 H 0.69093 0.74524 0.85624 0.0
H1057 H 0.6633 0.76423 0.84801 0.0
H1058 H 0.64673 0.72491 0.80306 0.0
H1059 H 0.67471 0.70597 0.81104 0.0
N1060 N 0.70608 0.69652 0.82986 0.0
N1061 N 0.73079 0.68937 0.85225 0.0
N1062 N 0.71188 0.71603 0.85639 0.0
C1063 C 0.72074 0.6852 0.8357 0.0
C1064 C 0.72647 0.70493 0.86257 0.0
C1065 C 0.70151 0.71193 0.8402 0.0
C1066 C 0.72581 0.66866 0.82386 0.0
C1067 C 0.71856 0.66682 0.80497 0.0
C1068 C 0.72373 0.65158 0.79363 0.0
C1069 C 0.73606 0.63763 0.80096 0.0
C1070 C 0.74311 0.63934 0.8199 0.0
C1071 C 0.73813 0.65468 0.83117 0.0
C1072 C 0.73712 0.71009 0.88054 0.0
C1073 C 0.74442 0.69623 0.89309 0.0
C1074 C 0.75218 0.70145 0.91109 0.0
C1075 C 0.7532 0.72064 0.91666 0.0
C1076 C 0.74671 0.73446 0.90368 0.0
C1077 C 0.73867 0.72925 0.88595 0.0
C1078 C 0.68507 0.72395 0.83438 0.0
C1079 C 0.68149 0.7406 0.84454 0.0
C1080 C 0.36436 0.63926 0.80273 0.0
C1081 C 0.34952 0.62918 0.81106 0.0
C1082 C 0.34286 0.63573 0.82835 0.0
C1083 C 0.35105 0.65178 0.83727 0.0
H1084 H 0.34097 0.6961 0.8768 0.0
H1085 H 0.32806 0.70905 0.90537 0.0
H1086 H 0.38323 0.73359 0.92136 0.0
H1087 H 0.39583 0.7214 0.89231 0.0
H1088 H 0.4236 0.72867 0.85779 0.0
H1089 H 0.45272 0.74224 0.846 0.0
H1090 H 0.44818 0.70466 0.79761 0.0
H1091 H 0.41873 0.69115 0.80924 0.0
H1092 H 0.38425 0.6625 0.80498 0.0
H1093 H 0.36987 0.63452 0.78947 0.0
H1094 H 0.33124 0.62844 0.83499 0.0
H1095 H 0.34564 0.65626 0.85065 0.0
N1096 N 0.36834 0.68531 0.85514 0.0
N1097 N 0.39359 0.70743 0.85787 0.0
N1098 N 0.39181 0.68586 0.83254 0.0
C1099 C 0.37728 0.69998 0.86461 0.0
C1100 C 0.40091 0.70052 0.84179 0.0
C1101 C 0.37556 0.67813 0.83911 0.0
C1102 C 0.36944 0.70769 0.8822 0.0
C1103 C 0.35034 0.70427 0.8864 0.0
C1104 C 0.34296 0.71164 0.90292 0.0
C1105 C 0.35455 0.72239 0.91588 0.0
C1106 C 0.3737 0.72572 0.91166 0.0
C1107 C 0.381 0.71859 0.89499 0.0
C1108 C 0.41875 0.70875 0.83453 0.0
C1109 C 0.42874 0.72322 0.84464 0.0
C1110 C 0.44556 0.73093 0.83794 0.0
C1111 C 0.45289 0.7244 0.82095 0.0
C1112 C 0.44287 0.71005 0.81071 0.0
C1113 C 0.42602 0.70226 0.81745 0.0
C1114 C 0.3662 0.66164 0.82917 0.0
C1115 C 0.37265 0.65526 0.8117 0.0
C1116 C 0.32495 0.34471 0.93708 0.0
C1117 C 0.32489 0.32516 0.94076 0.0
C1118 C 0.33723 0.31359 0.93082 0.0
C1119 C 0.34875 0.32135 0.91694 0.0
H1120 H 0.40705 0.32469 0.89174 0.0
H1121 H 0.43588 0.31163 0.87954 0.0
H1122 H 0.42431 0.34016 0.82611 0.0
H1123 H 0.39606 0.35398 0.83875 0.0
H1124 H 0.37061 0.39495 0.84315 0.0
H1125 H 0.35624 0.42422 0.83092 0.0
H1126 H 0.31424 0.42072 0.87363 0.0
H1127 H 0.3285 0.39212 0.88595 0.0
H1128 H 0.3356 0.36751 0.92062 0.0
H1129 H 0.31607 0.35414 0.94481 0.0
H1130 H 0.33751 0.29844 0.93328 0.0
H1131 H 0.35759 0.31204 0.90904 0.0
N1132 N 0.37351 0.34099 0.88919 0.0
N1133 N 0.37468 0.36525 0.86623 0.0
N1134 N 0.35116 0.36522 0.8886 0.0
C1135 C 0.38198 0.34905 0.87404 0.0
C1136 C 0.35921 0.37343 0.87354 0.0
C1137 C 0.35803 0.34913 0.89653 0.0
C1138 C 0.39921 0.34045 0.86628 0.0
C1139 C 0.41065 0.32815 0.87737 0.0
C1140 C 0.42719 0.32054 0.87028 0.0
C1141 C 0.43265 0.32475 0.85174 0.0
C1142 C 0.42097 0.33684 0.84057 0.0
C1143 C 0.4046 0.3447 0.84779 0.0
C1144 C 0.35083 0.39112 0.86559 0.0
C1145 C 0.35835 0.40048 0.84993 0.0
C1146 C 0.35006 0.4172 0.84288 0.0
C1147 C 0.33418 0.4249 0.85142 0.0
C1148 C 0.32668 0.41544 0.86695 0.0
C1149 C 0.33486 0.39886 0.87393 0.0
C1150 C 0.34804 0.3408 0.91271 0.0
C1151 C 0.3363 0.3524 0.92324 0.0
Cu1152 Cu 0.25789 0.25198 0.02854 0.0
N1153 N 0.26004 0.27454 0.01496 0.0
N1154 N 0.27338 0.29466 0.99479 0.0
C1155 C 0.27385 0.27724 1.00263 0.0
C1156 C 0.25853 0.30328 1.00251 0.0
C1157 C 0.25036 0.29083 0.01504 0.0
O1158 O 0.25635 0.23224 0.00891 0.0
C1159 C 0.27673 0.26591 0.05961 0.0
O1160 O 0.26176 0.27671 0.05727 0.0
H1161 H 0.28403 0.26647 0.99945 0.0
H1162 H 0.23851 0.29364 0.0238 0.0
N1163 N 0.23615 0.24946 0.04291 0.0
N1164 N 0.21872 0.23846 0.06644 0.0
C1165 C 0.23522 0.23723 0.05748 0.0
C1166 C 0.2196 0.25881 0.0425 0.0
C1167 C 0.20878 0.25199 0.05697 0.0
C1168 C 0.2409 0.23319 0.99871 0.0
O1169 O 0.22852 0.2461 1.00296 0.0
H1170 H 0.24658 0.22764 0.06142 0.0
H1171 H 0.2157 0.26989 0.03255 0.0
O1172 O 0.27917 0.25276 0.04751 0.0
H1173 H 0.25416 0.31768 0.99968 0.0
H1174 H 0.19488 0.25695 0.06048 0.0
Cu1175 Cu 0.78256 0.29678 1.0048 0.0
N1176 N 0.75936 0.30032 0.01853 0.0
N1177 N 0.73952 0.30941 0.04041 0.0
C1178 C 0.75788 0.30728 0.03617 0.0
C1179 C 0.72909 0.3036 0.02491 0.0
C1180 C 0.74139 0.29793 0.01143 0.0
O1181 O 0.79458 0.2826 0.02733 0.0
C1182 C 0.77604 0.32546 0.97506 0.0
O1183 O 0.79143 0.33369 0.98271 0.0
H1184 H 0.76993 0.3113 0.04546 0.0
H1185 H 0.73754 0.29282 0.99729 0.0
N1186 N 0.8057 0.2934 0.99096 0.0
N1187 N 0.8255 0.28417 0.96904 0.0
C1188 C 0.80767 0.28275 0.97538 0.0
C1189 C 0.82272 0.3019 0.99465 0.0
C1190 C 0.83499 0.29619 0.98117 0.0
C1191 C 0.80484 0.29061 0.04043 0.0
O1192 O 0.80796 0.30901 0.03972 0.0
H1193 H 0.79626 0.27416 0.9689 0.0
H1194 H 0.82587 0.31179 1.00612 0.0
O1195 O 0.77 0.30996 0.98192 0.0
H1196 H 0.71369 0.30347 0.02346 0.0
H1197 H 0.84962 0.30092 0.98013 0.0
Cu1198 Cu 0.76653 0.78837 0.01089 0.0
N1199 N 0.7647 0.8093 0.99463 0.0
N1200 N 0.77225 0.82841 0.97071 0.0
C1201 C 0.77678 0.81269 0.98073 0.0
C1202 C 0.75663 0.83521 0.97864 0.0
C1203 C 0.75203 0.82342 0.99345 0.0
O1204 O 0.7737 0.76776 0.99416 0.0
C1205 C 0.78155 0.80998 0.0406 0.0
O1206 O 0.76664 0.81986 0.03503 0.0
H1207 H 0.7885 0.80352 0.97783 0.0
H1208 H 0.74037 0.82515 1.00273 0.0
N1209 N 0.74343 0.78259 0.02193 0.0
N1210 N 0.72339 0.76979 0.04221 0.0
C1211 C 0.74168 0.77175 0.03747 0.0
C1212 C 0.72559 0.78766 0.01661 0.0
C1213 C 0.71318 0.77987 0.02921 0.0
C1214 C 0.76421 0.75233 0.99162 0.0
O1215 O 0.75091 0.74784 1.00337 0.0
H1216 H 0.75364 0.76533 0.0451 0.0
H1217 H 0.72179 0.79611 1.00428 0.0
O1218 O 0.78494 0.79474 0.03169 0.0
H1219 H 0.7492 0.8479 0.97424 0.0
H1220 H 0.69783 0.78104 0.02855 0.0
Cu1221 Cu 0.27985 0.7564 0.01884 0.0
N1222 N 0.27788 0.77459 0.03796 0.0
N1223 N 0.26532 0.78852 0.06291 0.0
C1224 C 0.2644 0.77362 0.05088 0.0
C1225 C 0.28006 0.79934 0.05729 0.0
C1226 C 0.28783 0.79067 0.04192 0.0
O1227 O 0.2772 0.73266 0.03275 0.0
C1228 C 0.26196 0.77898 0.99283 0.0
O1229 O 0.27562 0.78994 1.00024 0.0
H1230 H 0.2538 0.76233 0.05111 0.0
H1231 H 0.29965 0.79592 0.03405 0.0
N1232 N 0.30309 0.75722 1.00688 0.0
N1233 N 0.32376 0.75163 0.98442 0.0
C1234 C 0.30574 0.74924 0.98988 0.0
C1235 C 0.32004 0.76501 0.01242 0.0
C1236 C 0.33282 0.76167 0.99851 0.0
C1237 C 0.28992 0.71997 0.03371 0.0
O1238 O 0.30281 0.71962 0.02083 0.0
H1239 H 0.29459 0.74176 0.98168 0.0
H1240 H 0.323 0.77235 0.02571 0.0
O1241 O 0.26039 0.76207 0.99906 0.0
H1242 H 0.28495 0.81253 0.06382 0.0
H1243 H 0.34771 0.76586 0.99894 0.0
Cu1244 Cu 0.01587 0.2454 0.29105 0.0
N1245 N 0.02993 0.22314 0.29075 0.0
N1246 N 0.05261 0.20361 0.28169 0.0
C1247 C 0.04584 0.22141 0.28102 0.0
C1248 C 0.04041 0.19373 0.29233 0.0
C1249 C 0.02643 0.20581 0.29789 0.0
O1250 O 0.03478 0.266 0.29383 0.0
C1251 C 0.98637 0.23205 0.26858 0.0
O1252 O 0.98669 0.22059 0.28326 0.0
H1253 H 0.05184 0.23291 0.27295 0.0
H1254 H 0.0143 0.20203 0.30605 0.0
N1255 N 0.99968 0.2469 0.31142 0.0
N1256 N 0.97557 0.25732 0.32801 0.0
C1257 C 0.98586 0.25978 0.31248 0.0
C1258 C 0.99819 0.23588 0.32689 0.0
C1259 C 0.98326 0.24225 0.33713 0.0
C1260 C 0.04316 0.26651 0.31025 0.0
O1261 O 0.03797 0.2541 0.32297 0.0
H1262 H 0.98309 0.27042 0.30171 0.0
H1263 H 1.00725 0.22406 0.33048 0.0
O1264 O 0.99903 0.2452 0.26818 0.0
H1265 H 0.04136 0.17879 0.2957 0.0
H1266 H 0.97853 0.23633 0.35028 0.0
Cu1267 Cu 0.75861 0.02545 0.23732 0.0
N1268 N 0.75957 0.04367 0.21809 0.0
N1269 N 0.771 0.06784 0.20124 0.0
C1270 C 0.7749 0.0546 0.2146 0.0
C1271 C 0.75256 0.06481 0.19574 0.0
C1272 C 0.74554 0.04991 0.20618 0.0
O1273 O 0.75697 0.03856 0.26151 0.0
C1274 C 0.78542 0.99536 0.24536 0.0
O1275 O 0.77832 0.99402 0.26223 0.0
H1276 H 0.78859 0.05311 0.22204 0.0
H1277 H 0.73108 0.04444 0.20553 0.0
N1278 N 0.7361 0.01101 0.23552 0.0
N1279 N 0.71642 0.988 0.24493 0.0
C1280 C 0.73445 0.99275 0.24092 0.0
C1281 C 0.71839 0.01795 0.23587 0.0
C1282 C 0.70622 1.00379 0.24166 0.0
C1283 C 0.76496 0.05432 0.26611 0.0
O1284 O 0.77886 0.06094 0.2561 0.0
H1285 H 0.7465 0.98376 0.24403 0.0
H1286 H 0.71495 0.03276 0.23415 0.0
O1287 O 0.77981 0.00847 0.23416 0.0
H1288 H 0.74448 0.07331 0.18556 0.0
H1289 H 0.69139 1.00541 0.24472 0.0
Cu1290 Cu 0.0137 0.7479 0.26431 0.0
N1291 N 1.00403 0.77234 0.26136 0.0
N1292 N 0.98392 0.79517 0.25199 0.0
C1293 C 0.98719 0.77635 0.25255 0.0
C1294 C 0.99942 0.80328 0.26094 0.0
C1295 C 0.01179 0.78916 0.26669 0.0
O1296 O 0.99224 0.73106 0.26989 0.0
C1297 C 0.02911 0.75214 0.22761 0.0
O1298 O 0.01541 0.7642 0.2239 0.0
H1299 H 0.97782 0.76555 0.24622 0.0
H1300 H 0.0255 0.79102 0.27408 0.0
N1301 N 0.0317 0.74642 0.28451 0.0
N1302 N 0.05755 0.73615 0.30087 0.0
C1303 C 0.04641 0.73442 0.28485 0.0
C1304 C 0.0335 0.75619 0.30088 0.0
C1305 C 0.04943 0.74984 0.31105 0.0
C1306 C 0.98226 0.73689 0.28334 0.0
O1307 O 0.98748 0.75272 0.29207 0.0
H1308 H 0.0487 0.72443 0.27357 0.0
H1309 H 0.024 0.76718 0.30509 0.0
O1310 O 0.02849 0.74182 0.24241 0.0
H1311 H 1.00171 0.81832 0.26325 0.0
H1312 H 0.05475 0.75512 0.32471 0.0
Cu1313 Cu 0.24948 0.99378 0.28155 0.0
N1314 N 0.24913 0.00976 0.30261 0.0
N1315 N 0.25641 0.03535 0.3204 0.0
C1316 C 0.25653 0.02746 0.30297 0.0
C1317 C 0.24847 0.02202 0.33144 0.0
C1318 C 0.24397 1.00623 0.32041 0.0
O1319 O 0.24852 0.01083 0.25962 0.0
C1320 C 0.28494 0.97949 0.29655 0.0
O1321 O 0.28567 0.99489 0.30702 0.0
H1322 H 0.2629 0.03395 0.29084 0.0
H1323 H 0.23804 0.99291 0.32517 0.0
N1324 N 0.22866 0.97697 0.2806 0.0
N1325 N 0.2109 0.95174 0.27146 0.0
C1326 C 0.22748 0.96132 0.26968 0.0
C1327 C 0.21233 0.97727 0.28983 0.0
C1328 C 0.20133 0.96163 0.28425 0.0
C1329 C 0.2348 0.0107 0.24716 0.0
O1330 O 0.22233 0.99665 0.24698 0.0
H1331 H 0.23861 0.95712 0.26052 0.0
H1332 H 0.2086 0.98815 0.29974 0.0
O1333 O 0.27179 0.97758 0.28363 0.0
H1334 H 0.24643 0.02338 0.34649 0.0
H1335 H 0.18725 0.95808 0.28887 0.0
Cu1336 Cu 0.02568 0.7917 0.76571 0.0
N1337 N 0.03409 0.76765 0.75939 0.0
N1338 N 0.05109 0.74605 0.74475 0.0
C1339 C 0.04777 0.76466 0.74709 0.0
C1340 C 0.0389 0.73696 0.75605 0.0
C1341 C 0.02841 0.75035 0.76509 0.0
O1342 O 0.04827 0.80657 0.77385 0.0
C1343 C 0.99657 0.78951 0.73974 0.0
O1344 O 0.99392 0.77459 0.75048 0.0
H1345 H 0.05496 0.77603 0.73985 0.0
H1346 H 0.01743 0.74766 0.77502 0.0
N1347 N 1.00893 0.79126 0.78554 0.0
N1348 N 0.98387 0.79956 0.80191 0.0
C1349 C 0.99403 0.8029 0.78647 0.0
C1350 C 1.00832 0.78016 0.80102 0.0
C1351 C 0.99287 0.78529 0.8112 0.0
C1352 C 0.05867 0.79827 0.78649 0.0
O1353 O 0.053 0.78164 0.79265 0.0
H1354 H 0.99081 0.81371 0.77598 0.0
H1355 H 0.01827 0.76905 0.80458 0.0
O1356 O 0.01082 0.8005 0.74353 0.0
H1357 H 0.03781 0.72176 0.75791 0.0
H1358 H 0.98843 0.77879 0.82419 0.0
Cu1359 Cu 0.29163 0.01952 0.76893 0.0
N1360 N 0.31383 0.03389 0.76574 0.0
N1361 N 0.33223 0.05815 0.75662 0.0
C1362 C 0.31426 0.05135 0.75804 0.0
C1363 C 0.34351 0.04432 0.76386 0.0
C1364 C 0.33212 0.02938 0.76943 0.0
O1365 O 0.27205 0.03722 0.77567 0.0
C1366 C 0.29511 1.00412 0.73169 0.0
O1367 O 0.30696 0.0183 0.72883 0.0
H1368 H 0.30155 0.05857 0.75302 0.0
H1369 H 0.33686 0.01608 0.77545 0.0
N1370 N 0.29429 1.00171 0.78846 0.0
N1371 N 0.28671 0.97642 0.80587 0.0
C1372 C 0.28209 0.98703 0.79048 0.0
C1373 C 0.30721 1.00038 0.80305 0.0
C1374 C 0.30251 0.98481 0.81388 0.0
C1375 C 0.27453 0.04453 0.79214 0.0
O1376 O 0.28935 0.03943 0.80283 0.0
H1377 H 0.26978 0.98448 0.78099 0.0
H1378 H 0.31902 0.01015 0.80578 0.0
O1379 O 0.28556 1.00397 0.7466 0.0
H1380 H 0.3589 0.04483 0.76506 0.0
H1381 H 0.31018 0.98002 0.82659 0.0
Cu1382 Cu 0.04481 0.28876 0.7546 0.0
N1383 N 0.03072 0.29533 0.73244 0.0
N1384 N 1.00901 0.31135 0.71483 0.0
C1385 C 0.01441 0.30517 0.73237 0.0
C1386 C 0.02249 0.30503 0.70344 0.0
C1387 C 0.03591 0.29535 0.71434 0.0
O1388 O 0.0258 0.28231 0.77311 0.0
C1389 C 0.07865 0.31038 0.76641 0.0
O1390 O 0.08345 0.29621 0.77758 0.0
H1391 H 1.00739 0.30879 0.74518 0.0
H1392 H 0.0491 0.28984 0.70952 0.0
N1393 N 0.06002 0.2673 0.75211 0.0
N1394 N 0.08118 0.24516 0.76102 0.0
C1395 C 0.0691 0.2585 0.76678 0.0
C1396 C 0.06609 0.25885 0.73645 0.0
C1397 C 0.07913 0.24524 0.74188 0.0
C1398 C 0.01492 0.26864 0.76721 0.0
O1399 O 0.0183 0.26086 0.75079 0.0
H1400 H 0.06765 0.26264 0.7814 0.0
H1401 H 0.06189 0.26263 0.72207 0.0
O1402 O 0.06193 0.3107 0.75861 0.0
H1403 H 0.02304 0.30771 0.68837 0.0
H1404 H 0.0868 0.23642 0.73238 0.0
Cu1405 Cu 0.7786 0.04074 0.74862 0.0
N1406 N 0.77958 0.05861 0.76833 0.0
N1407 N 0.79139 0.08311 0.78561 0.0
C1408 C 0.79319 0.07225 0.77005 0.0
C1409 C 0.77593 0.076 0.79401 0.0
C1410 C 0.76863 0.06093 0.7833 0.0
O1411 O 0.78052 0.05682 0.72628 0.0
C1412 C 0.79799 0.01574 0.77094 0.0
O1413 O 0.78456 0.02157 0.78178 0.0
H1414 H 0.80448 0.07385 0.76022 0.0
H1415 H 0.75645 0.05212 0.78641 0.0
N1416 N 0.7561 0.0261 0.74661 0.0
N1417 N 0.73672 1.00211 0.73707 0.0
C1418 C 0.75455 0.00948 0.73717 0.0
C1419 C 0.73863 0.02939 0.75278 0.0
C1420 C 0.72665 0.01453 0.747 0.0
C1421 C 0.7677 0.0573 0.71292 0.0
O1422 O 0.75602 0.04273 0.71038 0.0
H1423 H 0.76631 1.00305 0.7303 0.0
H1424 H 0.73473 0.04187 0.7605 0.0
O1425 O 0.79885 0.02265 0.75428 0.0
H1426 H 0.77022 0.08132 0.80693 0.0
H1427 H 0.71159 0.01328 0.7494 0.0
Cu1428 Cu 0.27446 0.7498 0.51747 0.0
N1429 N 0.29654 0.75645 0.53192 0.0
N1430 N 0.31471 0.77185 0.55398 0.0
C1431 C 0.29717 0.76985 0.54552 0.0
C1432 C 0.32556 0.75918 0.54522 0.0
C1433 C 0.3143 0.74967 0.53163 0.0
O1434 O 0.25462 0.74491 0.53548 0.0
C1435 C 0.28388 0.77236 0.4883 0.0
O1436 O 0.29882 0.76155 0.4907 0.0
H1437 H 0.28493 0.77806 0.54897 0.0
H1438 H 0.31873 0.7386 0.52226 0.0
N1439 N 0.27691 0.72791 0.50282 0.0
N1440 N 0.27115 0.7081 0.47835 0.0
C1441 C 0.26757 0.72517 0.48594 0.0
C1442 C 0.2868 0.71198 0.50614 0.0
C1443 C 0.28322 0.69968 0.49107 0.0
C1444 C 0.25965 0.73329 0.54856 0.0
O1445 O 0.27665 0.72586 0.54817 0.0
H1446 H 0.25793 0.73542 0.4796 0.0
H1447 H 0.29581 0.70939 0.51867 0.0
O1448 O 0.27004 0.77016 0.49919 0.0
H1449 H 0.34049 0.75669 0.54857 0.0
H1450 H 0.2891 0.6857 0.48957 0.0
Cu1451 Cu 0.76168 0.77886 0.49322 0.0
N1452 N 0.76012 0.75613 0.47975 0.0
N1453 N 0.76806 0.73454 0.45836 0.0
C1454 C 0.77136 0.75215 0.46538 0.0
C1455 C 0.75412 0.72714 0.46882 0.0
C1456 C 0.74922 0.74052 0.48201 0.0
O1457 O 0.76259 0.79803 0.47327 0.0
C1458 C 0.79021 0.78825 0.52295 0.0
O1459 O 0.78311 0.80536 0.52316 0.0
H1460 H 0.78212 0.76192 0.46055 0.0
H1461 H 0.73864 0.73894 0.49258 0.0
N1462 N 0.74012 0.78256 0.5074 0.0
N1463 N 0.72261 0.79324 0.53075 0.0
C1464 C 0.73997 0.78759 0.52585 0.0
C1465 C 0.72212 0.78472 0.50052 0.0
C1466 C 0.7113 0.79141 0.51486 0.0
C1467 C 0.75336 0.81344 0.47298 0.0
O1468 O 0.74613 0.81952 0.48867 0.0
H1469 H 0.75256 0.78835 0.53521 0.0
H1470 H 0.7175 0.78281 0.4858 0.0
O1471 O 0.78392 0.77638 0.51051 0.0
H1472 H 0.74784 0.7131 0.46706 0.0
H1473 H 0.69649 0.79536 0.51352 0.0
Cu1474 Cu 0.76188 0.27917 0.51538 0.0
N1475 N 0.76313 0.25587 0.50314 0.0
N1476 N 0.75672 0.23399 0.48074 0.0
C1477 C 0.75456 0.25216 0.48611 0.0
C1478 C 0.76721 0.22597 0.49505 0.0
C1479 C 0.77116 0.23955 0.50887 0.0
O1480 O 0.75773 0.29714 0.49475 0.0
C1481 C 0.72892 0.26558 0.53318 0.0
O1482 O 0.72554 0.25631 0.5172 0.0
H1483 H 0.74622 0.26249 0.4782 0.0
H1484 H 0.77905 0.23761 0.52224 0.0
N1485 N 0.78503 0.28495 0.52805 0.0
N1486 N 0.8062 0.29982 0.54764 0.0
C1487 C 0.78757 0.29679 0.54295 0.0
C1488 C 0.80257 0.2801 0.52324 0.0
C1489 C 0.81569 0.28924 0.53532 0.0
C1490 C 0.76694 0.31273 0.49341 0.0
O1491 O 0.77579 0.31996 0.50859 0.0
H1492 H 0.77597 0.30382 0.5495 0.0
H1493 H 0.8056 0.27103 0.51141 0.0
O1494 O 0.74265 0.27757 0.53437 0.0
H1495 H 0.77164 0.21136 0.49558 0.0
H1496 H 0.83101 0.28835 0.53485 0.0
Cu1497 Cu 0.2797 0.27393 0.52697 0.0
N1498 N 0.27764 0.29747 0.53881 0.0
N1499 N 0.26762 0.31834 0.55994 0.0
C1500 C 0.27058 0.29989 0.55605 0.0
C1501 C 0.27339 0.32788 0.54455 0.0
C1502 C 0.27948 0.31497 0.53152 0.0
O1503 O 0.28736 0.25603 0.54692 0.0
C1504 C 0.24141 0.27863 0.51281 0.0
O1505 O 0.23957 0.28959 0.52762 0.0
H1506 H 0.26639 0.28817 0.56491 0.0
H1507 H 0.28396 0.31806 0.51738 0.0
N1508 N 0.29828 0.27388 0.50884 0.0
N1509 N 0.31389 0.26327 0.48413 0.0
C1510 C 0.30008 0.25967 0.49636 0.0
C1511 C 0.31144 0.28703 0.50443 0.0
C1512 C 0.32108 0.28052 0.48913 0.0
C1513 C 0.30421 0.25917 0.55384 0.0
O1514 O 0.3142 0.27315 0.54678 0.0
H1515 H 0.29098 0.24715 0.49598 0.0
H1516 H 0.3138 0.3004 0.51172 0.0
O1517 O 0.25617 0.26844 0.51201 0.0
H1518 H 0.27273 0.34306 0.54252 0.0
H1519 H 0.33251 0.28789 0.4823 0.0
Cu1520 Cu 0.79821 0.55415 0.74892 0.0
N1521 N 0.81849 0.57162 0.74723 0.0
N1522 N 0.8342 0.59712 0.73665 0.0
C1523 C 0.81872 0.58564 0.73425 0.0
C1524 C 0.84416 0.58995 0.75176 0.0
C1525 C 0.83446 0.5742 0.75824 0.0
O1526 O 0.77529 0.56961 0.74905 0.0
C1527 C 0.81634 0.52473 0.73409 0.0
O1528 O 0.82724 0.53031 0.74873 0.0
H1529 H 0.80735 0.58771 0.72362 0.0
H1530 H 0.83864 0.56545 0.77024 0.0
N1531 N 0.79712 0.54041 0.77159 0.0
N1532 N 0.78474 0.51885 0.79099 0.0
C1533 C 0.78483 0.52573 0.77317 0.0
C1534 C 0.80527 0.54295 0.78905 0.0
C1535 C 0.79761 0.52966 0.80109 0.0
C1536 C 0.77636 0.58102 0.76318 0.0
O1537 O 0.79183 0.58122 0.77432 0.0
H1538 H 0.7755 0.52075 0.76153 0.0
H1539 H 0.81553 0.55402 0.79294 0.0
O1540 O 0.80147 0.53433 0.7298 0.0
H1541 H 0.85749 0.59565 0.75774 0.0
H1542 H 0.80109 0.52822 0.81611 0.0
Cu1543 Cu 0.28589 0.53133 0.7841 0.0
N1544 N 0.28632 0.51557 0.80518 0.0
N1545 N 0.2956 0.49164 0.82395 0.0
C1546 C 0.2974 0.50027 0.80706 0.0
C1547 C 0.28282 0.502 0.83305 0.0
C1548 C 0.27709 0.51678 0.82139 0.0
O1549 O 0.28902 0.51409 0.76311 0.0
C1550 C 0.31175 0.56283 0.77765 0.0
O1551 O 0.30579 0.56251 0.75973 0.0
H1552 H 0.30696 0.49587 0.79635 0.0
H1553 H 0.26707 0.5277 0.82455 0.0
N1554 N 0.2624 0.54311 0.78062 0.0
N1555 N 0.24079 0.56265 0.76744 0.0
C1556 C 0.25942 0.55988 0.77197 0.0
C1557 C 0.24507 0.53507 0.78201 0.0
C1558 C 0.2317 0.5471 0.77396 0.0
C1559 C 0.27908 0.51493 0.74761 0.0
O1560 O 0.27064 0.53083 0.74292 0.0
H1561 H 0.27085 0.56932 0.76816 0.0
H1562 H 0.24248 0.5209 0.78725 0.0
O1563 O 0.3057 0.55033 0.78897 0.0
H1564 H 0.27786 0.49908 0.84706 0.0
H1565 H 0.21664 0.54395 0.77193 0.0
Cu1566 Cu 0.27848 0.4955 0.27054 0.0
N1567 N 0.27701 0.48194 0.29337 0.0
N1568 N 0.26627 0.45989 0.31323 0.0
C1569 C 0.26411 0.46796 0.29594 0.0
C1570 C 0.28116 0.46922 0.32192 0.0
C1571 C 0.28772 0.48286 0.30966 0.0
O1572 O 0.28231 0.47597 0.25129 0.0
C1573 C 0.25428 0.52125 0.28354 0.0
O1574 O 0.26747 0.51996 0.29724 0.0
H1575 H 0.2536 0.46353 0.28508 0.0
H1576 H 0.29943 0.49271 0.31249 0.0
N1577 N 0.29889 0.5129 0.26974 0.0
N1578 N 0.31552 0.53793 0.25941 0.0
C1579 C 0.29896 0.52793 0.25796 0.0
C1580 C 0.31603 0.51332 0.27904 0.0
C1581 C 0.3263 0.52874 0.27271 0.0
C1582 C 0.29667 0.46578 0.25586 0.0
O1583 O 0.30694 0.47032 0.27126 0.0
H1584 H 0.28717 0.53111 0.24815 0.0
H1585 H 0.3209 0.50303 0.28943 0.0
O1586 O 0.25565 0.51109 0.26869 0.0
H1587 H 0.28681 0.46651 0.33617 0.0
H1588 H 0.3406 0.53282 0.27758 0.0
Cu1589 Cu 0.76418 0.50538 0.24492 0.0
N1590 N 0.78397 0.48812 0.24532 0.0
N1591 N 0.80234 0.46495 0.25701 0.0
C1592 C 0.78807 0.4769 0.26028 0.0
C1593 C 0.80744 0.46883 0.23917 0.0
C1594 C 0.79609 0.48323 0.232 0.0
O1595 O 0.74138 0.49013 0.24894 0.0
C1596 C 0.78599 0.53389 0.26019 0.0
O1597 O 0.79505 0.52909 0.24506 0.0
H1598 H 0.78025 0.47714 0.27314 0.0
H1599 H 0.79655 0.48951 0.21805 0.0
N1600 N 0.76116 0.51826 0.22186 0.0
N1601 N 0.75208 0.54184 0.20244 0.0
C1602 C 0.75493 0.53615 0.22059 0.0
C1603 C 0.76238 0.51225 0.20388 0.0
C1604 C 0.75681 0.5268 0.19183 0.0
C1605 C 0.7256 0.49265 0.23978 0.0
O1606 O 0.72302 0.50848 0.2303 0.0
H1607 H 0.75155 0.54439 0.23288 0.0
H1608 H 0.76636 0.49812 0.19981 0.0
O1609 O 0.77093 0.52459 0.26398 0.0
H1610 H 0.81854 0.4618 0.23185 0.0
H1611 H 0.75595 0.52615 0.1765 0.0
Cu1612 Cu 0.53819 0.28599 0.78116 0.0
N1613 N 0.52489 0.28707 0.80362 0.0
N1614 N 0.50162 0.29397 0.82306 0.0
C1615 C 0.50845 0.29633 0.8056 0.0
C1616 C 0.51432 0.28284 0.83246 0.0
C1617 C 0.5287 0.2787 0.82048 0.0
O1618 O 0.5188 0.28239 0.76055 0.0
C1619 C 0.56892 0.308 0.79226 0.0
O1620 O 0.5698 0.29391 0.8044 0.0
H1621 H 0.50141 0.3043 0.79428 0.0
H1622 H 0.54103 0.27019 0.82388 0.0
N1623 N 0.55455 0.26516 0.7801 0.0
N1624 N 0.57788 0.24715 0.76961 0.0
C1625 C 0.5685 0.26368 0.76772 0.0
C1626 C 0.5551 0.24899 0.79024 0.0
C1627 C 0.56943 0.23786 0.78377 0.0
C1628 C 0.51016 0.26638 0.76152 0.0
O1629 O 0.51484 0.25501 0.77564 0.0
H1630 H 0.57141 0.27443 0.75726 0.0
H1631 H 0.54558 0.24536 0.80132 0.0
O1632 O 0.55499 0.3084 0.78001 0.0
H1633 H 0.51339 0.2782 0.84701 0.0
H1634 H 0.57334 0.22403 0.78916 0.0
Cu1635 Cu 0.53613 0.79455 0.77625 0.0
N1636 N 0.55637 0.79612 0.79439 0.0
N1637 N 0.58417 0.78807 0.80863 0.0
C1638 C 0.57213 0.78565 0.79334 0.0
C1639 C 0.57563 0.80067 0.81974 0.0
C1640 C 0.5585 0.80562 0.81092 0.0
O1641 O 0.5482 0.79585 0.75189 0.0
C1642 C 0.51775 0.76761 0.79741 0.0
O1643 O 0.5252 0.77851 0.81098 0.0
H1644 H 0.57428 0.77584 0.78187 0.0
H1645 H 0.54809 0.81487 0.81661 0.0
N1646 N 0.51824 0.81385 0.77738 0.0
N1647 N 0.49216 0.82985 0.76834 0.0
C1648 C 0.50284 0.81451 0.76538 0.0
C1649 C 0.51729 0.82935 0.78844 0.0
C1650 C 0.50112 0.8392 0.78295 0.0
C1651 C 0.55101 0.81221 0.74477 0.0
O1652 O 0.54408 0.82709 0.75305 0.0
H1653 H 0.49962 0.80388 0.75459 0.0
H1654 H 0.52774 0.83353 0.79939 0.0
O1655 O 0.52154 0.7713 0.78029 0.0
H1656 H 0.5812 0.80576 0.83339 0.0
H1657 H 0.49663 0.85249 0.78884 0.0
Cu1658 Cu 0.51144 0.75609 0.27086 0.0
N1659 N 0.49752 0.7558 0.29288 0.0
N1660 N 0.47457 0.76436 0.31193 0.0
C1661 C 0.48383 0.76838 0.29606 0.0
C1662 C 0.48285 0.7486 0.3191 0.0
C1663 C 0.49709 0.74338 0.30734 0.0
O1664 O 0.49246 0.7583 0.24986 0.0
C1665 C 0.54302 0.77212 0.28777 0.0
O1666 O 0.54045 0.75643 0.29742 0.0
H1667 H 0.4802 0.77981 0.28639 0.0
H1668 H 0.50615 0.7312 0.30901 0.0
N1669 N 0.52484 0.73392 0.26646 0.0
N1670 N 0.54687 0.71597 0.2536 0.0
C1671 C 0.53983 0.73355 0.25528 0.0
C1672 C 0.52213 0.71589 0.27208 0.0
C1673 C 0.53572 0.70477 0.26415 0.0
C1674 C 0.4794 0.74559 0.2507 0.0
O1675 O 0.48046 0.73306 0.26445 0.0
H1676 H 0.54513 0.74601 0.24816 0.0
H1677 H 0.51096 0.71111 0.28105 0.0
O1678 O 0.53093 0.77603 0.27433 0.0
H1679 H 0.47883 0.74129 0.33183 0.0
H1680 H 0.53726 0.68965 0.26607 0.0
Cu1681 Cu 0.51644 0.23761 0.25941 0.0
N1682 N 0.49881 0.21751 0.25907 0.0
N1683 N 0.47289 0.20158 0.26782 0.0
C1684 C 0.48346 0.21765 0.26974 0.0
C1685 C 0.48204 0.19081 0.25541 0.0
C1686 C 0.49803 0.20072 0.24996 0.0
O1687 O 0.50088 0.26043 0.25979 0.0
C1688 C 0.54578 0.21875 0.27608 0.0
O1689 O 0.5408 0.20862 0.26097 0.0
H1690 H 0.48041 0.22924 0.27913 0.0
H1691 H 0.5084 0.19591 0.24026 0.0
N1692 N 0.53071 0.23989 0.23781 0.0
N1693 N 0.5535 0.25228 0.22032 0.0
C1694 C 0.54477 0.25292 0.2369 0.0
C1695 C 0.53037 0.23055 0.22116 0.0
C1696 C 0.54443 0.23826 0.21026 0.0
C1697 C 0.49126 0.26235 0.24412 0.0
O1698 O 0.493 0.2496 0.23077 0.0
H1699 H 0.54828 0.26287 0.24825 0.0
H1700 H 0.52062 0.21908 0.21718 0.0
O1701 O 0.53576 0.23313 0.27982 0.0
H1702 H 0.47751 0.17682 0.25058 0.0
H1703 H 0.54782 0.23374 0.19617 0.0
C1704 C 0.18882 0.21426 0.10249 0.0
C1705 C 0.20279 0.2063 0.11486 0.0
H1706 H 0.18288 0.23049 0.07732 0.0
C1707 C 0.22206 0.20935 0.11112 0.0
H1708 H 0.17383 0.21201 0.10481 0.0
C1709 C 0.22723 0.21997 0.09538 0.0
C1710 C 0.21328 0.2278 0.08289 0.0
H1711 H 0.2332 0.20374 0.12053 0.0
H1712 H 0.24222 0.22223 0.09319 0.0
C1713 C 0.194 0.22488 0.08671 0.0
C1714 C 0.81735 0.24869 0.07191 0.0
C1715 C 0.82704 0.25743 0.08754 0.0
H1716 H 0.80283 0.2522 0.04489 0.0
C1717 C 0.82974 0.27723 0.08735 0.0
H1718 H 0.81532 0.23344 0.07139 0.0
C1719 C 0.82269 0.28803 0.072 0.0
C1720 C 0.81276 0.27926 0.05653 0.0
H1721 H 0.83698 0.28444 0.09922 0.0
H1722 H 0.82483 0.30327 0.07239 0.0
C1723 C 0.81027 0.25946 0.05663 0.0
C1724 C 0.81374 0.81061 0.08558 0.0
C1725 C 0.81221 0.82962 0.09151 0.0
H1726 H 0.8054 0.7894 0.06473 0.0
C1727 C 0.80177 0.84212 0.07968 0.0
H1728 H 0.82158 0.80053 0.09432 0.0
C1729 C 0.79238 0.83569 0.06299 0.0
C1730 C 0.79334 0.81663 0.05738 0.0
H1731 H 0.80069 0.85696 0.08336 0.0
H1732 H 0.78417 0.84573 0.05452 0.0
C1733 C 0.80445 0.8042 0.06864 0.0
C1734 C 0.23718 0.81437 0.09863 0.0
C1735 C 0.22782 0.79935 0.10773 0.0
H1736 H 0.25628 0.82275 0.07727 0.0
C1737 C 0.23105 0.7807 0.10175 0.0
H1738 H 0.23481 0.82894 0.10261 0.0
C1739 C 0.24336 0.77718 0.08715 0.0
C1740 C 0.25279 0.79219 0.07813 0.0
H1741 H 0.22437 0.76877 0.10861 0.0
H1742 H 0.24574 0.76262 0.08314 0.0
C1743 C 0.24953 0.81083 0.08408 0.0
C1744 C 0.2399 0.81422 0.95871 0.0
C1745 C 0.23248 0.80264 0.94388 0.0
H1746 H 0.25462 0.81575 0.98577 0.0
C1747 C 0.23273 0.78281 0.94627 0.0
H1748 H 0.23948 0.82953 0.95757 0.0
C1749 C 0.24136 0.77479 0.96272 0.0
C1750 C 0.24985 0.78653 0.97693 0.0
H1751 H 0.22709 0.77351 0.93509 0.0
H1752 H 0.24224 0.75952 0.96385 0.0
C1753 C 0.2485 0.80629 0.97494 0.0
C1754 C 0.21297 0.21106 0.95731 0.0
C1755 C 0.22727 0.20567 0.94523 0.0
H1756 H 0.20617 0.22351 0.98367 0.0
C1757 C 0.24644 0.20725 0.95199 0.0
H1758 H 0.19807 0.20955 0.95288 0.0
C1759 C 0.25114 0.21511 0.96999 0.0
C1760 C 0.23673 0.22153 0.98146 0.0
H1761 H 0.25783 0.20321 0.94306 0.0
H1762 H 0.26598 0.21707 0.97446 0.0
C1763 C 0.21763 0.21892 0.97509 0.0
C1764 C 0.85951 0.26321 0.93551 0.0
C1765 C 0.84715 0.25746 0.9203 0.0
H1766 H 0.8623 0.27587 0.96305 0.0
C1767 C 0.82756 0.26072 0.92137 0.0
H1768 H 0.87464 0.26065 0.93525 0.0
C1769 C 0.82047 0.26946 0.93731 0.0
C1770 C 0.8328 0.27514 0.95258 0.0
H1771 H 0.81769 0.25673 0.90976 0.0
H1772 H 0.80534 0.27199 0.93751 0.0
C1773 C 0.85242 0.27194 0.95146 0.0
C1774 C 0.81111 0.83973 0.93752 0.0
C1775 C 0.80126 0.84965 0.92293 0.0
H1776 H 0.80971 0.82548 0.96416 0.0
C1777 C 0.78173 0.85299 0.92468 0.0
H1778 H 0.82623 0.83727 0.93692 0.0
C1779 C 0.77226 0.84631 0.94046 0.0
C1780 C 0.78207 0.83604 0.95481 0.0
H1781 H 0.77363 0.86039 0.91364 0.0
H1782 H 0.75716 0.84875 0.94118 0.0
C1783 C 0.80164 0.83298 0.9532 0.0
C1784 C 0.09852 0.20248 0.25644 0.0
C1785 C 0.09921 0.18338 0.25084 0.0
H1786 H 0.08347 0.22376 0.27095 0.0
C1787 C 0.08464 0.17087 0.25622 0.0
H1788 H 0.10969 0.21242 0.25287 0.0
C1789 C 0.06956 0.17739 0.26662 0.0
C1790 C 0.06867 0.19658 0.27188 0.0
H1791 H 0.08463 0.15611 0.25198 0.0
H1792 H 0.05834 0.16747 0.27005 0.0
C1793 C 0.08346 0.20898 0.26683 0.0
C1794 C 0.80828 0.10664 0.20384 0.0
C1795 C 0.8064 0.1147 0.18562 0.0
H1796 H 0.79849 0.08559 0.22308 0.0
C1797 C 0.79289 0.10666 0.17247 0.0
H1798 H 0.81819 0.1126 0.21451 0.0
C1799 C 0.78139 0.09124 0.17751 0.0
C1800 C 0.78326 0.08331 0.19575 0.0
H1801 H 0.79123 0.11222 0.1582 0.0
H1802 H 0.77113 0.08541 0.1671 0.0
C1803 C 0.79693 0.09112 0.2088 0.0
C1804 C 0.95281 0.8326 0.22917 0.0
C1805 C 0.93591 0.82229 0.22474 0.0
H1806 H 0.98136 0.83212 0.24093 0.0
C1807 C 0.93495 0.80305 0.22977 0.0
H1808 H 0.95405 0.84742 0.22532 0.0
C1809 C 0.95053 0.79429 0.23891 0.0
C1810 C 0.9676 0.80448 0.24312 0.0
H1811 H 0.92202 0.79479 0.22686 0.0
H1812 H 0.94904 0.77953 0.24279 0.0
C1813 C 0.96848 0.8238 0.23818 0.0
C1814 C 0.1875 0.90463 0.25951 0.0
C1815 C 0.19367 0.90143 0.24108 0.0
H1816 H 0.18823 0.92319 0.28368 0.0
C1817 C 0.20504 0.91542 0.23272 0.0
H1818 H 0.17888 0.89412 0.26647 0.0
C1819 C 0.21053 0.93188 0.24266 0.0
C1820 C 0.20466 0.93494 0.26115 0.0
H1821 H 0.20964 0.91376 0.21839 0.0
H1822 H 0.21925 0.94234 0.23574 0.0
C1823 C 0.19288 0.92125 0.2694 0.0
C1824 C 0.09882 0.83305 0.801 0.0
C1825 C 0.11099 0.82127 0.81201 0.0
H1826 H 0.07259 0.8351 0.78418 0.0
C1827 C 0.1062 0.80195 0.81348 0.0
H1828 H 0.10208 0.84802 0.79959 0.0
C1829 C 0.08941 0.79468 0.80488 0.0
C1830 C 0.07692 0.80645 0.79436 0.0
H1831 H 0.11545 0.79231 0.82133 0.0
H1832 H 0.08622 0.77972 0.80659 0.0
C1833 C 0.08192 0.82569 0.79222 0.0
C1834 C 0.25151 0.07757 0.82598 0.0
C1835 C 0.24192 0.09024 0.81366 0.0
H1836 H 0.26913 0.05326 0.8288 0.0
C1837 C 0.24177 0.08669 0.79397 0.0
H1838 H 0.25151 0.07946 0.84121 0.0
C1839 C 0.25162 0.07129 0.78683 0.0
C1840 C 0.26195 0.05929 0.79923 0.0
H1841 H 0.23463 0.09619 0.78403 0.0
H1842 H 0.25182 0.06926 0.77162 0.0
C1843 C 0.2615 0.06242 0.81886 0.0
C1844 C 0.96904 0.24245 0.77724 0.0
C1845 C 0.96653 0.24649 0.79645 0.0
H1846 H 0.98597 0.24623 0.75321 0.0
C1847 C 0.98006 0.25849 0.80608 0.0
H1848 H 0.95877 0.23377 0.76912 0.0
C1849 C 0.99573 0.26603 0.79672 0.0
C1850 C 0.99827 0.26161 0.77759 0.0
H1851 H 0.97873 0.26184 0.82093 0.0
H1852 H 1.00596 0.27504 0.80451 0.0
C1853 C 0.98467 0.24979 0.76802 0.0
C1854 C 0.82366 0.96896 0.77487 0.0
C1855 C 0.82625 0.96741 0.79473 0.0
H1856 H 0.81277 0.98583 0.75147 0.0
C1857 C 0.82223 0.98312 0.80602 0.0
H1858 H 0.82666 0.95709 0.76579 0.0
C1859 C 0.81434 0.99935 0.79789 0.0
C1860 C 0.81041 1.00043 0.77823 0.0
H1861 H 0.82453 0.9826 0.8213 0.0
H1862 H 0.8105 0.0108 0.80715 0.0
C1863 C 0.8158 0.98541 0.76665 0.0
C1864 C 0.20744 0.04542 0.21606 0.0
C1865 C 0.21771 0.06239 0.21952 0.0
H1866 H 0.20505 0.01574 0.2216 0.0
C1867 C 0.23512 0.06179 0.2301 0.0
H1868 H 0.19409 0.04544 0.20775 0.0
C1869 C 0.24142 0.04472 0.23823 0.0
C1870 C 0.23047 0.02793 0.23575 0.0
H1871 H 0.24329 0.07469 0.23301 0.0
H1872 H 0.25433 0.04488 0.2472 0.0
C1873 C 0.21379 0.02838 0.22398 0.0
C1874 C 0.2661 0.9399 0.83828 0.0
C1875 C 0.25504 0.92853 0.82544 0.0
H1876 H 0.28472 0.96407 0.84216 0.0
C1877 C 0.25505 0.93297 0.80601 0.0
H1878 H 0.26625 0.93709 0.85337 0.0
C1879 C 0.26558 0.9485 0.79962 0.0
C1880 C 0.27644 0.95999 0.81247 0.0
H1881 H 0.24704 0.92434 0.79566 0.0
H1882 H 0.26533 0.95141 0.78456 0.0
C1883 C 0.2767 0.9554 0.83186 0.0
C1884 C 0.12548 0.21897 0.77652 0.0
C1885 C 0.12315 0.21667 0.79609 0.0
H1886 H 0.11426 0.22987 0.75016 0.0
C1887 C 0.10649 0.22348 0.80383 0.0
H1888 H 0.13826 0.21417 0.77011 0.0
C1889 C 0.09258 0.23245 0.79231 0.0
C1890 C 0.09501 0.23494 0.77275 0.0
H1891 H 0.10409 0.2217 0.81878 0.0
H1892 H 0.07989 0.23735 0.79876 0.0
C1893 C 0.11163 0.22798 0.76503 0.0
C1894 C 0.8259 0.12457 0.78525 0.0
C1895 C 0.82766 0.12944 0.8046 0.0
H1896 H 0.81279 0.10631 0.76402 0.0
C1897 C 0.8175 0.11851 0.81757 0.0
H1898 H 0.83328 0.13278 0.77482 0.0
C1899 C 0.80564 0.10342 0.81136 0.0
C1900 C 0.8037 0.09869 0.79201 0.0
H1901 H 0.81877 0.12155 0.83262 0.0
H1902 H 0.79818 0.09529 0.82178 0.0
C1903 C 0.81409 0.10939 0.77905 0.0
C1904 C 0.94596 0.82054 0.83104 0.0
C1905 C 0.93413 0.8291 0.81698 0.0
H1906 H 0.97114 0.80456 0.83729 0.0
C1907 C 0.93875 0.82736 0.7979 0.0
H1908 H 0.94295 0.82179 0.8459 0.0
C1909 C 0.95492 0.81754 0.79301 0.0
C1910 C 0.96689 0.80918 0.80705 0.0
H1911 H 0.92976 0.83342 0.78667 0.0
H1912 H 0.95791 0.81636 0.77816 0.0
C1913 C 0.96213 0.81066 0.82612 0.0
C1914 C 0.81139 0.96462 0.2111 0.0
C1915 C 0.81521 0.94833 0.22199 0.0
H1916 H 0.79945 0.99231 0.20998 0.0
C1917 C 0.81055 0.94827 0.24118 0.0
H1918 H 0.8151 0.96528 0.19638 0.0
C1919 C 0.80158 0.96385 0.24906 0.0
C1920 C 0.79716 0.97988 0.23795 0.0
H1921 H 0.81322 0.93591 0.24995 0.0
H1922 H 0.79759 0.96306 0.26369 0.0
C1923 C 0.80255 0.9802 0.21898 0.0
C1924 C 0.08216 0.75483 0.22094 0.0
C1925 C 0.08313 0.76705 0.20527 0.0
H1926 H 0.06436 0.73998 0.23995 0.0
C1927 C 0.06615 0.77188 0.19527 0.0
H1928 H 0.09504 0.75074 0.22881 0.0
C1929 C 0.04849 0.76585 0.20173 0.0
C1930 C 0.04746 0.75466 0.21818 0.0
H1931 H 0.06646 0.78133 0.18318 0.0
H1932 H 0.03563 0.77079 0.19441 0.0
C1933 C 0.06455 0.74856 0.22723 0.0
C1934 C 0.94145 0.21332 0.24331 0.0
C1935 C 0.94209 0.22155 0.22523 0.0
H1936 H 0.95464 0.21025 0.27084 0.0
C1937 C 0.95717 0.23428 0.22164 0.0
H1938 H 0.92981 0.20392 0.24685 0.0
C1939 C 0.97157 0.23816 0.2357 0.0
C1940 C 0.97109 0.22934 0.25355 0.0
H1941 H 0.95808 0.24089 0.20785 0.0
H1942 H 0.9832 0.24771 0.23249 0.0
C1943 C 0.95572 0.21708 0.25718 0.0
C1944 C 0.24429 0.71255 0.59487 0.0
C1945 C 0.22448 0.71493 0.59387 0.0
H1946 H 0.27066 0.7165 0.5816 0.0
C1947 C 0.21623 0.72459 0.57812 0.0
H1948 H 0.25126 0.70572 0.60699 0.0
C1949 C 0.22756 0.73109 0.56344 0.0
C1950 C 0.24728 0.72797 0.56426 0.0
H1951 H 0.201 0.72667 0.57689 0.0
H1952 H 0.22083 0.73809 0.55129 0.0
C1953 C 0.25548 0.71887 0.58029 0.0
C1954 C 0.81871 0.75556 0.55586 0.0
C1955 C 0.8236 0.76749 0.57134 0.0
H1956 H 0.80478 0.75277 0.52838 0.0
C1957 C 0.81844 0.78669 0.57021 0.0
H1958 H 0.82271 0.7408 0.55609 0.0
C1959 C 0.80822 0.79363 0.55423 0.0
C1960 C 0.80293 0.78157 0.53894 0.0
H1961 H 0.82182 0.79627 0.58192 0.0
H1962 H 0.80404 0.80834 0.55409 0.0
C1963 C 0.80857 0.76251 0.53986 0.0
C1964 C 0.84019 0.33335 0.57367 0.0
C1965 C 0.83012 0.33783 0.58981 0.0
H1966 H 0.84047 0.31794 0.54762 0.0
C1967 C 0.8118 0.32997 0.5916 0.0
H1968 H 0.8542 0.33942 0.57169 0.0
C1969 C 0.80393 0.31756 0.57777 0.0
C1970 C 0.81419 0.31276 0.56184 0.0
H1971 H 0.80378 0.33296 0.60397 0.0
H1972 H 0.78998 0.3114 0.57979 0.0
C1973 C 0.83234 0.32095 0.55989 0.0
C1974 C 0.23957 0.3505 0.59036 0.0
C1975 C 0.23907 0.34025 0.60743 0.0
H1976 H 0.24876 0.35161 0.56195 0.0
C1977 C 0.24806 0.32261 0.60858 0.0
H1978 H 0.23258 0.36403 0.58892 0.0
C1979 C 0.25754 0.31552 0.59311 0.0
C1980 C 0.25817 0.32584 0.57606 0.0
H1981 H 0.24819 0.31449 0.62161 0.0
H1982 H 0.26462 0.30207 0.59466 0.0
C1983 C 0.24897 0.34339 0.5749 0.0
C1984 C 0.22375 0.27766 0.46113 0.0
C1985 C 0.21296 0.29426 0.46003 0.0
H1986 H 0.24123 0.25954 0.47876 0.0
C1987 C 0.2096 0.30411 0.47681 0.0
H1988 H 0.22655 0.26981 0.44838 0.0
C1989 C 0.21767 0.29809 0.49421 0.0
C1990 C 0.2296 0.28225 0.4952 0.0
H1991 H 0.20115 0.31683 0.47639 0.0
H1992 H 0.21537 0.30652 0.50671 0.0
C1993 C 0.23212 0.27178 0.47853 0.0
C1994 C 0.24806 0.70567 0.42933 0.0
C1995 C 0.24464 0.68609 0.42698 0.0
H1996 H 0.25942 0.72792 0.44724 0.0
C1997 C 0.25114 0.67373 0.44145 0.0
H1998 H 0.24368 0.71557 0.41832 0.0
C1999 C 0.26026 0.68086 0.45811 0.0
C2000 C 0.26305 0.70051 0.46069 0.0
H2001 H 0.24862 0.65859 0.44018 0.0
H2002 H 0.26453 0.67104 0.46922 0.0
C2003 C 0.25711 0.71276 0.44595 0.0
C2004 C 0.79669 0.72804 0.41509 0.0
C2005 C 0.79819 0.70822 0.4142 0.0
H2006 H 0.78566 0.75189 0.42945 0.0
C2007 C 0.78929 0.69717 0.42796 0.0
H2008 H 0.80302 0.73699 0.40454 0.0
C2009 C 0.77926 0.70574 0.44229 0.0
C2010 C 0.7779 0.72558 0.44326 0.0
H2011 H 0.79034 0.68187 0.42788 0.0
H2012 H 0.77291 0.69681 0.45283 0.0
C2013 C 0.78668 0.7366 0.4294 0.0
C2014 C 0.77825 0.31182 0.44153 0.0
C2015 C 0.78932 0.32845 0.43994 0.0
H2016 H 0.76193 0.29409 0.45947 0.0
C2017 C 0.79078 0.34111 0.45534 0.0
H2018 H 0.77668 0.30193 0.4298 0.0
C2019 C 0.78242 0.3366 0.47244 0.0
C2020 C 0.77221 0.31946 0.47439 0.0
H2021 H 0.79924 0.35403 0.45451 0.0
H2022 H 0.78467 0.34616 0.48438 0.0
C2023 C 0.76965 0.30744 0.45851 0.0
C2024 C 0.09519 0.74013 0.71732 0.0
C2025 C 0.09316 0.72127 0.71106 0.0
H2026 H 0.08371 0.76263 0.73326 0.0
C2027 C 0.07668 0.71092 0.71547 0.0
H2028 H 0.10786 0.74839 0.71445 0.0
C2029 C 0.06279 0.71908 0.72631 0.0
C2030 C 0.06505 0.73779 0.73299 0.0
H2031 H 0.07458 0.69642 0.71065 0.0
H2032 H 0.0503 0.71071 0.72944 0.0
C2033 C 0.08133 0.74828 0.72817 0.0
C2034 C 0.83659 0.63193 0.69622 0.0
C2035 C 0.84726 0.64702 0.70463 0.0
H2036 H 0.82429 0.6042 0.69968 0.0
C2037 C 0.85335 0.64535 0.72387 0.0
H2038 H 0.83185 0.63251 0.68142 0.0
C2039 C 0.8492 0.62901 0.73425 0.0
C2040 C 0.83864 0.61392 0.72582 0.0
H2041 H 0.8612 0.65679 0.73105 0.0
H2042 H 0.85399 0.62836 0.74903 0.0
C2043 C 0.83229 0.61563 0.70669 0.0
C2044 C 0.97829 0.34664 0.68825 0.0
C2045 C 0.96221 0.34733 0.69936 0.0
H2046 H 1.00571 0.33501 0.68447 0.0
C2047 C 0.96203 0.33641 0.71601 0.0
H2048 H 0.97903 0.35509 0.67548 0.0
C2049 C 0.97736 0.32468 0.72113 0.0
C2050 C 0.99328 0.32366 0.70976 0.0
H2051 H 0.94977 0.33641 0.72476 0.0
H2052 H 0.9765 0.31609 0.73376 0.0
C2053 C 0.99359 0.335 0.69337 0.0
C2054 C 0.2658 0.46313 0.74079 0.0
C2055 C 0.25386 0.46371 0.72431 0.0
H2056 H 0.28369 0.47872 0.76075 0.0
C2057 C 0.25205 0.4809 0.71437 0.0
H2058 H 0.26767 0.45 0.74857 0.0
C2059 C 0.26119 0.49741 0.72133 0.0
C2060 C 0.27252 0.49702 0.73826 0.0
H2061 H 0.24293 0.48175 0.70161 0.0
H2062 H 0.25882 0.51061 0.71382 0.0
C2063 C 0.27515 0.47956 0.74762 0.0
C2064 C 0.08024 0.29284 0.34049 0.0
C2065 C 0.09406 0.29755 0.32745 0.0
H2066 H 0.05331 0.27972 0.34512 0.0
C2067 C 0.08977 0.29437 0.30799 0.0
H2068 H 0.08287 0.29554 0.35551 0.0
C2069 C 0.07253 0.28536 0.30193 0.0
C2070 C 0.05943 0.27944 0.31529 0.0
H2071 H 0.10013 0.2979 0.29761 0.0
H2072 H 0.07 0.28204 0.28703 0.0
C2073 C 0.06323 0.28386 0.33451 0.0
C2074 C 0.22689 0.56667 0.28079 0.0
C2075 C 0.21923 0.56672 0.29891 0.0
H2076 H 0.24396 0.55166 0.26129 0.0
C2077 C 0.21994 0.54999 0.3097 0.0
H2078 H 0.2266 0.57938 0.27218 0.0
C2079 C 0.22974 0.53429 0.30347 0.0
C2080 C 0.23885 0.53479 0.2862 0.0
H2081 H 0.21391 0.54945 0.32355 0.0
H2082 H 0.23135 0.52218 0.31283 0.0
C2083 C 0.23669 0.55079 0.27448 0.0
C2084 C 0.94527 0.69813 0.29226 0.0
C2085 C 0.93228 0.70795 0.3032 0.0
H2086 H 0.97123 0.6995 0.27721 0.0
C2087 C 0.93562 0.72738 0.3066 0.0
H2088 H 0.94329 0.68313 0.28942 0.0
C2089 C 0.95168 0.73658 0.29988 0.0
C2090 C 0.96483 0.72675 0.28928 0.0
H2091 H 0.92576 0.73564 0.31443 0.0
H2092 H 0.95375 0.75153 0.30301 0.0
C2093 C 0.96133 0.70747 0.28528 0.0
C2094 C 0.81455 0.43848 0.30191 0.0
C2095 C 0.82123 0.42126 0.29495 0.0
H2096 H 0.8037 0.46595 0.29535 0.0
C2097 C 0.82258 0.41907 0.27523 0.0
H2098 H 0.81374 0.44083 0.31702 0.0
C2099 C 0.81688 0.43358 0.26277 0.0
C2100 C 0.80964 0.45054 0.26975 0.0
H2101 H 0.8275 0.40594 0.26936 0.0
H2102 H 0.81754 0.43125 0.24765 0.0
C2103 C 0.80882 0.4529 0.28948 0.0
C2104 C 0.23626 0.60269 0.73225 0.0
C2105 C 0.21658 0.60593 0.73166 0.0
H2106 H 0.25935 0.58649 0.74372 0.0
C2107 C 0.20505 0.59485 0.74329 0.0
H2108 H 0.24564 0.61109 0.72371 0.0
C2109 C 0.213 0.58095 0.75519 0.0
C2110 C 0.23268 0.57759 0.75571 0.0
H2111 H 0.18979 0.59675 0.74306 0.0
H2112 H 0.20365 0.57286 0.764 0.0
C2113 C 0.24419 0.58869 0.74405 0.0
C2114 C 0.25278 0.41632 0.34058 0.0
C2115 C 0.23358 0.41343 0.33452 0.0
H2116 H 0.27819 0.43324 0.33856 0.0
C2117 C 0.22537 0.42625 0.32136 0.0
H2118 H 0.25976 0.40659 0.3504 0.0
C2119 C 0.23606 0.44144 0.31443 0.0
C2120 C 0.2552 0.44433 0.32056 0.0
H2121 H 0.21057 0.42474 0.3166 0.0
H2122 H 0.22922 0.45112 0.30448 0.0
C2123 C 0.26341 0.43161 0.33377 0.0
C2124 C 0.10157 0.70699 0.29654 0.0
C2125 C 0.10756 0.70446 0.31563 0.0
H2126 H 0.08132 0.71933 0.27685 0.0
C2127 C 0.09675 0.71257 0.32978 0.0
H2128 H 0.10969 0.70122 0.28526 0.0
C2129 C 0.08046 0.72299 0.32497 0.0
C2130 C 0.07449 0.72555 0.30587 0.0
H2131 H 0.10075 0.71067 0.34466 0.0
H2132 H 0.07239 0.72878 0.33624 0.0
C2133 C 0.08527 0.71741 0.29172 0.0
C2134 C 0.79448 0.56951 0.30039 0.0
C2135 C 0.80821 0.58173 0.29272 0.0
H2136 H 0.77656 0.54471 0.29616 0.0
C2137 C 0.81389 0.57826 0.27422 0.0
H2138 H 0.78984 0.57169 0.31464 0.0
C2139 C 0.80653 0.56279 0.26387 0.0
C2140 C 0.79307 0.55041 0.27156 0.0
H2141 H 0.82396 0.58761 0.26757 0.0
H2142 H 0.81139 0.56063 0.24969 0.0
C2143 C 0.78692 0.55401 0.28986 0.0
C2144 C 0.9285 0.27033 0.34732 0.0
C2145 C 0.9269 0.28939 0.34161 0.0
H2146 H 0.94521 0.24515 0.34739 0.0
C2147 C 0.942 0.29781 0.33206 0.0
H2148 H 0.9171 0.26331 0.35453 0.0
C2149 C 0.95799 0.28737 0.32786 0.0
C2150 C 0.95943 0.26825 0.33322 0.0
H2151 H 0.94152 0.31257 0.32785 0.0
H2152 H 0.96932 0.29433 0.32049 0.0
C2153 C 0.94461 0.2599 0.34322 0.0
C2154 C 0.82302 0.48653 0.69659 0.0
C2155 C 0.83482 0.47372 0.70686 0.0
H2156 H 0.80769 0.5128 0.69705 0.0
C2157 C 0.83889 0.47732 0.72621 0.0
H2158 H 0.81956 0.48422 0.68165 0.0
C2159 C 0.83233 0.49359 0.73482 0.0
C2160 C 0.82123 0.50679 0.7245 0.0
H2161 H 0.84733 0.46758 0.7348 0.0
H2162 H 0.83615 0.49589 0.7497 0.0
C2163 C 0.81622 0.5029 0.70536 0.0
C2164 C 0.12734 0.33267 0.75925 0.0
C2165 C 0.12456 0.3413 0.74139 0.0
H2166 H 0.115 0.31622 0.78125 0.0
C2167 C 0.10607 0.34147 0.73293 0.0
H2168 H 0.14142 0.33228 0.76612 0.0
C2169 C 0.09087 0.33256 0.74172 0.0
C2170 C 0.09383 0.32298 0.75908 0.0
H2171 H 0.10343 0.34821 0.71929 0.0
H2172 H 0.07698 0.3324 0.73441 0.0
C2173 C 0.11219 0.32349 0.76792 0.0
C2174 C 0.94772 0.79437 0.7187 0.0
C2175 C 0.94954 0.7854 0.70111 0.0
H2176 H 0.96187 0.80341 0.74473 0.0
C2177 C 0.96787 0.78238 0.69462 0.0
H2178 H 0.93376 0.79696 0.72398 0.0
C2179 C 0.984 0.78625 0.7065 0.0
C2180 C 0.98194 0.7934 0.72484 0.0
H2181 H 0.96966 0.77535 0.68118 0.0
H2182 H 0.99783 0.7819 0.70209 0.0
C2183 C 0.96379 0.79828 0.73048 0.0
C2184 C 0.70275 0.23422 0.5672 0.0
C2185 C 0.70769 0.24274 0.58477 0.0
H2186 H 0.70511 0.235 0.53712 0.0
C2187 C 0.71778 0.26011 0.58505 0.0
H2188 H 0.69477 0.22095 0.56654 0.0
C2189 C 0.72385 0.26816 0.56817 0.0
C2190 C 0.71975 0.2591 0.55064 0.0
H2191 H 0.72183 0.26697 0.59841 0.0
H2192 H 0.7324 0.28107 0.56893 0.0
C2193 C 0.70859 0.24236 0.55033 0.0
C2194 C 0.34072 0.24139 0.59018 0.0
C2195 C 0.32945 0.23269 0.60373 0.0
H2196 H 0.3416 0.25621 0.56389 0.0
C2197 C 0.30962 0.23115 0.59986 0.0
H2198 H 0.35605 0.24236 0.59237 0.0
C2199 C 0.30125 0.23896 0.5832 0.0
C2200 C 0.31258 0.24849 0.57021 0.0
H2201 H 0.30051 0.22455 0.61 0.0
H2202 H 0.28593 0.23823 0.5809 0.0
C2203 C 0.33241 0.24923 0.57373 0.0
C2204 C 0.31234 0.80414 0.59625 0.0
C2205 C 0.33147 0.80989 0.59925 0.0
H2206 H 0.2921 0.78731 0.57991 0.0
C2207 C 0.34501 0.80293 0.58703 0.0
H2208 H 0.30159 0.80894 0.60559 0.0
C2209 C 0.33955 0.79049 0.57222 0.0
C2210 C 0.32042 0.78469 0.56926 0.0
H2211 H 0.35984 0.80726 0.58878 0.0
H2212 H 0.35032 0.78563 0.56296 0.0
C2213 C 0.30689 0.79169 0.58148 0.0
C2214 C 0.72193 0.80446 0.58279 0.0
C2215 C 0.7101 0.82034 0.58277 0.0
H2216 H 0.73533 0.78346 0.56608 0.0
C2217 C 0.70227 0.82699 0.56539 0.0
H2218 H 0.72815 0.79906 0.596 0.0
C2219 C 0.70605 0.81785 0.54839 0.0
C2220 C 0.71804 0.8021 0.54836 0.0
H2221 H 0.69299 0.83911 0.56499 0.0
H2222 H 0.69989 0.82334 0.5352 0.0
C2223 C 0.72605 0.79557 0.56572 0.0
C2224 C 0.73939 0.81766 0.42059 0.0
C2225 C 0.72925 0.83468 0.41997 0.0
H2226 H 0.75541 0.79788 0.43758 0.0
C2227 C 0.72888 0.84569 0.43657 0.0
H2228 H 0.74011 0.80897 0.40798 0.0
C2229 C 0.73753 0.83927 0.45365 0.0
C2230 C 0.74703 0.82185 0.45444 0.0
H2231 H 0.72114 0.85885 0.43655 0.0
H2232 H 0.73623 0.84766 0.46637 0.0
C2233 C 0.7483 0.8114 0.43755 0.0
C2234 C 0.73396 0.22773 0.43186 0.0
C2235 C 0.73027 0.20812 0.43127 0.0
H2236 H 0.74579 0.25121 0.4477 0.0
C2237 C 0.73603 0.19701 0.44698 0.0
H2238 H 0.73004 0.23662 0.41984 0.0
C2239 C 0.74497 0.20539 0.46308 0.0
C2240 C 0.74843 0.22508 0.4638 0.0
H2241 H 0.73325 0.18186 0.44698 0.0
H2242 H 0.74874 0.19648 0.4751 0.0
C2243 C 0.743 0.23609 0.44788 0.0
C2244 C 0.33084 0.24763 0.43685 0.0
C2245 C 0.32757 0.2279 0.43754 0.0
H2246 H 0.32893 0.27436 0.45103 0.0
C2247 C 0.32041 0.22003 0.45414 0.0
H2248 H 0.33614 0.25421 0.42423 0.0
C2249 C 0.31623 0.23159 0.46944 0.0
C2250 C 0.31914 0.25134 0.46862 0.0
H2251 H 0.31811 0.20488 0.45537 0.0
H2252 H 0.3108 0.22501 0.48199 0.0
C2253 C 0.3267 0.2592 0.45222 0.0
C2254 C 0.29483 0.81303 0.45626 0.0
C2255 C 0.29375 0.80383 0.43853 0.0
H2256 H 0.2921 0.81012 0.48636 0.0
C2257 C 0.28564 0.78549 0.43728 0.0
H2258 H 0.30115 0.8271 0.4577 0.0
C2259 C 0.28034 0.77594 0.4536 0.0
C2260 C 0.28286 0.78457 0.47145 0.0
H2261 H 0.28442 0.77812 0.4238 0.0
H2262 H 0.27558 0.76128 0.45243 0.0
C2263 C 0.28955 0.8034 0.47265 0.0
C2264 C 0.61092 0.21496 0.74463 0.0
C2265 C 0.62273 0.22803 0.73549 0.0
H2266 H 0.58733 0.21072 0.7624 0.0
C2267 C 0.61978 0.24751 0.73822 0.0
H2268 H 0.61257 0.19986 0.74267 0.0
C2269 C 0.60525 0.25374 0.74952 0.0
C2270 C 0.59327 0.24068 0.75843 0.0
H2271 H 0.62881 0.258 0.73172 0.0
H2272 H 0.60353 0.26884 0.75138 0.0
C2273 C 0.5964 0.2212 0.75596 0.0
C2274 C 0.36218 0.09606 0.73417 0.0
C2275 C 0.34907 0.11076 0.7314 0.0
H2276 H 0.36714 0.06784 0.74395 0.0
C2277 C 0.33042 0.10796 0.7373 0.0
H2278 H 0.37661 0.09769 0.72959 0.0
C2279 C 0.32499 0.09088 0.74574 0.0
C2280 C 0.33802 0.07603 0.74836 0.0
H2281 H 0.32006 0.11911 0.73564 0.0
H2282 H 0.31058 0.08946 0.75034 0.0
C2283 C 0.35672 0.07891 0.74247 0.0
C2284 C 0.45631 0.83523 0.72776 0.0
C2285 C 0.44159 0.84491 0.7363 0.0
H2286 H 0.48391 0.82308 0.73116 0.0
C2287 C 0.44406 0.84995 0.75558 0.0
H2288 H 0.45518 0.83152 0.71285 0.0
C2289 C 0.46072 0.84525 0.76606 0.0
C2290 C 0.47521 0.83527 0.75754 0.0
H2291 H 0.43296 0.85721 0.76271 0.0
H2292 H 0.46209 0.84904 0.78093 0.0
C2293 C 0.47284 0.83041 0.73825 0.0
C2294 C 0.70833 0.95757 0.7258 0.0
C2295 C 0.7157 0.95183 0.70848 0.0
H2296 H 0.70918 0.978 0.74837 0.0
C2297 C 0.73037 0.96294 0.70095 0.0
H2298 H 0.69738 0.94925 0.73239 0.0
C2299 C 0.73736 0.97926 0.71041 0.0
C2300 C 0.72975 0.98508 0.72752 0.0
H2301 H 0.73625 0.95926 0.68755 0.0
H2302 H 0.74846 0.9876 0.70408 0.0
C2303 C 0.71514 0.97404 0.73508 0.0
C2304 C 0.57806 0.81396 0.29182 0.0
C2305 C 0.59264 0.80641 0.30385 0.0
H2306 H 0.55087 0.80911 0.27716 0.0
C2307 C 0.59086 0.78748 0.30974 0.0
H2308 H 0.57887 0.82853 0.28707 0.0
C2309 C 0.57484 0.77656 0.30428 0.0
C2310 C 0.56012 0.78411 0.29257 0.0
H2311 H 0.60195 0.78094 0.31853 0.0
H2312 H 0.57408 0.76206 0.30927 0.0
C2313 C 0.56197 0.80288 0.28617 0.0
C2314 C 0.75441 0.09756 0.29561 0.0
C2315 C 0.73582 0.09348 0.30114 0.0
H2316 H 0.77828 0.08837 0.28038 0.0
C2317 C 0.72763 0.07567 0.29651 0.0
H2318 H 0.76109 0.11119 0.29888 0.0
C2319 C 0.73756 0.0625 0.28608 0.0
C2320 C 0.75585 0.06691 0.27982 0.0
H2321 H 0.71344 0.072 0.30079 0.0
H2322 H 0.73057 0.04914 0.28231 0.0
C2323 C 0.76428 0.08447 0.28501 0.0
C2324 C 0.42852 0.20727 0.29479 0.0
C2325 C 0.424 0.18843 0.29949 0.0
H2326 H 0.44727 0.22616 0.28072 0.0
C2327 C 0.43534 0.17384 0.29274 0.0
H2328 H 0.41986 0.21883 0.29937 0.0
C2329 C 0.45111 0.17807 0.28196 0.0
C2330 C 0.45591 0.19697 0.27774 0.0
H2331 H 0.43235 0.15917 0.29623 0.0
H2332 H 0.45987 0.16658 0.27745 0.0
C2333 C 0.44425 0.21148 0.28407 0.0
C2334 C 0.30414 0.92947 0.29935 0.0
C2335 C 0.31378 0.92974 0.31724 0.0
H2336 H 0.28743 0.94502 0.27866 0.0
C2337 C 0.31568 0.94698 0.32715 0.0
H2338 H 0.30242 0.91635 0.29142 0.0
C2339 C 0.30734 0.96342 0.31978 0.0
C2340 C 0.29665 0.96296 0.30243 0.0
H2341 H 0.32325 0.94765 0.34086 0.0
H2342 H 0.30856 0.97629 0.32816 0.0
C2343 C 0.29554 0.94589 0.29206 0.0
C2344 C 0.74084 0.09374 0.68331 0.0
C2345 C 0.74531 0.11052 0.69343 0.0
H2346 H 0.74459 0.0637 0.68143 0.0
C2347 C 0.75913 0.10998 0.70845 0.0
H2348 H 0.73022 0.09371 0.6717 0.0
C2349 C 0.76762 0.09286 0.71382 0.0
C2350 C 0.76223 0.07583 0.70449 0.0
H2351 H 0.76301 0.12273 0.71636 0.0
H2352 H 0.77758 0.09284 0.726 0.0
C2353 C 0.7491 0.07656 0.68887 0.0
C2354 C 0.69519 0.95752 0.2823 0.0
C2355 C 0.70208 0.93958 0.27776 0.0
H2356 H 0.69408 0.987 0.27509 0.0
C2357 C 0.71314 0.93767 0.26179 0.0
H2358 H 0.68654 0.95932 0.29447 0.0
C2359 C 0.71763 0.95353 0.25084 0.0
C2360 C 0.71073 0.97148 0.25537 0.0
H2361 H 0.71863 0.92397 0.25804 0.0
H2362 H 0.72652 0.95185 0.23884 0.0
C2363 C 0.69932 0.97328 0.2711 0.0
C2364 C 0.59408 0.19767 0.28672 0.0
C2365 C 0.59749 0.20133 0.30615 0.0
H2366 H 0.5754 0.20033 0.2623 0.0
C2367 C 0.58408 0.21213 0.31563 0.0
H2368 H 0.60427 0.19004 0.2787 0.0
C2369 C 0.56738 0.21847 0.30596 0.0
C2370 C 0.56377 0.21394 0.28672 0.0
H2371 H 0.58622 0.21525 0.33061 0.0
H2372 H 0.55709 0.22634 0.31363 0.0
C2373 C 0.57748 0.20374 0.27723 0.0
C2374 C 0.27748 0.08445 0.31751 0.0
C2375 C 0.2853 0.08718 0.33601 0.0
H2376 H 0.26175 0.06614 0.2982 0.0
C2377 C 0.28221 0.07313 0.34971 0.0
H2378 H 0.27926 0.09518 0.30672 0.0
C2379 C 0.27221 0.05637 0.34479 0.0
C2380 C 0.26504 0.05332 0.32607 0.0
H2381 H 0.28816 0.07475 0.36406 0.0
H2382 H 0.27077 0.04552 0.35549 0.0
C2383 C 0.26745 0.06778 0.31262 0.0
C2384 C 0.44049 0.80336 0.32151 0.0
C2385 C 0.42596 0.79359 0.33073 0.0
H2386 H 0.46737 0.80179 0.30855 0.0
C2387 C 0.42805 0.77402 0.33409 0.0
H2388 H 0.43966 0.81848 0.31902 0.0
C2389 C 0.44413 0.76451 0.3283 0.0
C2390 C 0.45845 0.77427 0.31882 0.0
H2391 H 0.41706 0.76591 0.34087 0.0
H2392 H 0.44511 0.74941 0.33078 0.0
C2393 C 0.45646 0.79381 0.31557 0.0
C2394 C 0.29588 0.95176 0.72054 0.0
C2395 C 0.30776 0.95145 0.70507 0.0
H2396 H 0.28203 0.96868 0.74075 0.0
C2397 C 0.31291 0.96867 0.69658 0.0
H2398 H 0.29156 0.93866 0.72724 0.0
C2399 C 0.3076 0.98595 0.70441 0.0
C2400 C 0.29684 0.9863 0.72074 0.0
H2401 H 0.32211 0.96883 0.68467 0.0
H2402 H 0.3128 0.99901 0.69828 0.0
C2403 C 0.29034 0.96899 0.7282 0.0
C2404 C 0.59503 0.80846 0.71614 0.0
C2405 C 0.59527 0.82641 0.70743 0.0
H2406 H 0.58053 0.78964 0.73482 0.0
C2407 C 0.57934 0.83802 0.70868 0.0
H2408 H 0.60712 0.79921 0.71541 0.0
C2409 C 0.56424 0.83259 0.71971 0.0
C2410 C 0.56465 0.81537 0.7297 0.0
H2411 H 0.57892 0.85173 0.70177 0.0
H2412 H 0.55265 0.84235 0.72117 0.0
C2413 C 0.57979 0.80296 0.7272 0.0
C2414 C 0.47708 0.2331 0.73394 0.0
C2415 C 0.46231 0.24503 0.72757 0.0
H2416 H 0.50375 0.23066 0.74937 0.0
C2417 C 0.46474 0.26477 0.73013 0.0
H2418 H 0.47599 0.21791 0.73175 0.0
C2419 C 0.48102 0.27219 0.74009 0.0
C2420 C 0.49499 0.25994 0.74765 0.0
H2421 H 0.45363 0.27435 0.72535 0.0
H2422 H 0.48209 0.28728 0.74285 0.0
C2423 C 0.49309 0.24043 0.74393 0.0
C2424 C 0.69456 0.75363 0.08291 0.0
C2425 C 0.70285 0.73605 0.08749 0.0
H2426 H 0.69458 0.7781 0.06479 0.0
C2427 C 0.71778 0.72977 0.07652 0.0
H2428 H 0.68325 0.75916 0.09112 0.0
C2429 C 0.72452 0.74089 0.06181 0.0
C2430 C 0.71627 0.75839 0.05735 0.0
H2431 H 0.72422 0.71613 0.07912 0.0
H2432 H 0.73602 0.73564 0.05367 0.0
C2433 C 0.70109 0.76458 0.06789 0.0
C2434 C 0.29393 0.71001 0.08638 0.0
C2435 C 0.30739 0.6955 0.08728 0.0
H2436 H 0.27728 0.7287 0.06871 0.0
C2437 C 0.313 0.68732 0.0703 0.0
H2438 H 0.28925 0.71646 0.09928 0.0
C2439 C 0.30632 0.69445 0.05274 0.0
C2440 C 0.29362 0.70967 0.05182 0.0
H2441 H 0.3234 0.67614 0.0706 0.0
H2442 H 0.31176 0.6886 0.0399 0.0
C2443 C 0.28696 0.7169 0.06885 0.0
C2444 C 0.29145 0.28156 0.10895 0.0
C2445 C 0.31113 0.28473 0.10779 0.0
H2446 H 0.26539 0.27269 0.09466 0.0
C2447 C 0.32003 0.27865 0.09138 0.0
H2448 H 0.28421 0.28557 0.12154 0.0
C2449 C 0.30915 0.2709 0.07591 0.0
C2450 C 0.28927 0.26919 0.07672 0.0
H2451 H 0.33519 0.28086 0.09007 0.0
H2452 H 0.31607 0.26749 0.06296 0.0
C2453 C 0.28069 0.274 0.09361 0.0
C2454 C 0.73386 0.31804 0.09223 0.0
C2455 C 0.7178 0.32964 0.09182 0.0
H2456 H 0.75356 0.30268 0.07595 0.0
C2457 C 0.70934 0.33497 0.07426 0.0
H2458 H 0.74059 0.31376 0.10563 0.0
C2459 C 0.71651 0.32836 0.05737 0.0
C2460 C 0.73249 0.31664 0.05776 0.0
H2461 H 0.69686 0.34381 0.07363 0.0
H2462 H 0.70961 0.33243 0.04399 0.0
C2463 C 0.74128 0.31178 0.07532 0.0
C2464 C 0.76439 0.35661 0.93244 0.0
C2465 C 0.74576 0.35049 0.92701 0.0
H2466 H 0.78849 0.35363 0.95185 0.0
C2467 C 0.73728 0.33598 0.93757 0.0
H2468 H 0.77157 0.36747 0.92447 0.0
C2469 C 0.74716 0.32781 0.95307 0.0
C2470 C 0.76568 0.33408 0.95855 0.0
H2471 H 0.72288 0.33108 0.93405 0.0
H2472 H 0.74015 0.31672 0.96092 0.0
C2473 C 0.77417 0.34859 0.9481 0.0
C2474 C 0.7517 0.71729 0.95203 0.0
C2475 C 0.75935 0.72645 0.93635 0.0
H2476 H 0.74735 0.7182 0.98188 0.0
C2477 C 0.77101 0.74264 0.93955 0.0
H2478 H 0.74258 0.70486 0.95005 0.0
C2479 C 0.77385 0.75025 0.95782 0.0
C2480 C 0.76492 0.74196 0.9733 0.0
H2481 H 0.77729 0.74989 0.92778 0.0
H2482 H 0.78209 0.76329 0.95957 0.0
C2483 C 0.75438 0.72501 0.97029 0.0
C2484 C 0.35315 0.7475 0.94143 0.0
C2485 C 0.34673 0.72997 0.93372 0.0
H2486 H 0.35092 0.76808 0.96362 0.0
C2487 C 0.33273 0.7197 0.94325 0.0
H2488 H 0.36364 0.75604 0.93441 0.0
C2489 C 0.32521 0.72685 0.95978 0.0
C2490 C 0.33167 0.74431 0.96743 0.0
H2491 H 0.32769 0.70597 0.93813 0.0
H2492 H 0.31455 0.71852 0.96679 0.0
C2493 C 0.34582 0.7545 0.95816 0.0
C2494 C 0.29292 0.32388 0.95542 0.0
C2495 C 0.31158 0.31704 0.95459 0.0
H2496 H 0.26617 0.32211 0.9687 0.0
C2497 C 0.31739 0.30264 0.96722 0.0
H2498 H 0.28782 0.33472 0.94567 0.0
C2499 C 0.30491 0.29538 0.98041 0.0
C2500 C 0.28629 0.30231 0.98129 0.0
H2501 H 0.33171 0.29721 0.96717 0.0
H2502 H 0.31 0.28454 0.99013 0.0
C2503 C 0.28047 0.31666 0.96862 0.0
C2504 C 0.59154 0.71901 0.2263 0.0
C2505 C 0.59289 0.70044 0.21933 0.0
H2506 H 0.57627 0.73836 0.24297 0.0
C2507 C 0.57905 0.6869 0.22422 0.0
H2508 H 0.60216 0.7297 0.22314 0.0
C2509 C 0.56409 0.69188 0.23561 0.0
C2510 C 0.56262 0.71054 0.2424 0.0
H2511 H 0.57956 0.6725 0.21895 0.0
H2512 H 0.55348 0.68121 0.23874 0.0
C2513 C 0.57665 0.72398 0.2377 0.0
C2514 C 0.34485 0.57531 0.23546 0.0
C2515 C 0.33073 0.58683 0.22694 0.0
H2516 H 0.35118 0.55071 0.25217 0.0
C2517 C 0.31152 0.58199 0.22937 0.0
H2518 H 0.35979 0.57844 0.23369 0.0
C2519 C 0.30656 0.56609 0.24005 0.0
C2520 C 0.32068 0.55452 0.24857 0.0
H2521 H 0.30026 0.59071 0.22328 0.0
H2522 H 0.29162 0.56305 0.24184 0.0
C2523 C 0.3399 0.55938 0.24612 0.0
C2524 C 0.46083 0.29585 0.21559 0.0
C2525 C 0.44557 0.29865 0.22739 0.0
H2526 H 0.48749 0.2825 0.212 0.0
C2527 C 0.44727 0.29228 0.24633 0.0
H2528 H 0.46017 0.30093 0.20109 0.0
C2529 C 0.46322 0.28185 0.25272 0.0
C2530 C 0.47761 0.27772 0.24024 0.0
H2531 H 0.43573 0.29423 0.25576 0.0
H2532 H 0.46355 0.27578 0.26683 0.0
C2533 C 0.47657 0.28546 0.2219 0.0
C2534 C 0.70682 0.44202 0.23755 0.0
C2535 C 0.694 0.44284 0.2217 0.0
H2536 H 0.72683 0.45723 0.2559 0.0
C2537 C 0.68955 0.46061 0.21386 0.0
H2538 H 0.71055 0.4285 0.24385 0.0
C2539 C 0.6987 0.47708 0.22084 0.0
C2540 C 0.71273 0.47611 0.23566 0.0
H2541 H 0.67955 0.46166 0.20177 0.0
H2542 H 0.69561 0.49039 0.2138 0.0
C2543 C 0.71616 0.45849 0.24441 0.0
C2544 C 0.61981 0.32476 0.79627 0.0
C2545 C 0.6181 0.34405 0.80081 0.0
H2546 H 0.60545 0.29842 0.78979 0.0
C2547 C 0.59989 0.35216 0.79928 0.0
H2548 H 0.63362 0.31813 0.79686 0.0
C2549 C 0.58363 0.3408 0.79484 0.0
C2550 C 0.58543 0.32122 0.79192 0.0
H2551 H 0.59807 0.36697 0.80272 0.0
H2552 H 0.56966 0.34703 0.79502 0.0
C2553 C 0.60369 0.31349 0.79206 0.0
C2554 C 0.74866 0.62509 0.77049 0.0
C2555 C 0.74229 0.62171 0.78887 0.0
H2556 H 0.76428 0.61429 0.74739 0.0
C2557 C 0.74373 0.60331 0.79636 0.0
H2558 H 0.74786 0.63913 0.76435 0.0
C2559 C 0.75283 0.58911 0.78652 0.0
C2560 C 0.76059 0.59292 0.76892 0.0
H2561 H 0.73873 0.60015 0.81033 0.0
H2562 H 0.75516 0.57555 0.7934 0.0
C2563 C 0.75786 0.61082 0.76065 0.0
C2564 C 0.48602 0.73727 0.82692 0.0
C2565 C 0.47079 0.73289 0.814 0.0
H2566 H 0.51293 0.75134 0.83165 0.0
C2567 C 0.47239 0.73782 0.7948 0.0
H2568 H 0.48546 0.73325 0.84171 0.0
C2569 C 0.48836 0.74805 0.78894 0.0
C2570 C 0.50291 0.75355 0.80222 0.0
H2571 H 0.46089 0.73466 0.78449 0.0
H2572 H 0.48875 0.75259 0.7743 0.0
C2573 C 0.50183 0.74752 0.82111 0.0
C2574 C 0.31856 0.4561 0.85696 0.0
C2575 C 0.3251 0.44258 0.84421 0.0
H2576 H 0.30419 0.48227 0.86056 0.0
C2577 C 0.32208 0.44568 0.82465 0.0
H2578 H 0.32093 0.45431 0.87213 0.0
C2579 C 0.31244 0.46175 0.81802 0.0
C2580 C 0.30562 0.47511 0.8308 0.0
H2581 H 0.3267 0.43544 0.81446 0.0
H2582 H 0.30997 0.46347 0.80288 0.0
C2583 C 0.3089 0.47212 0.85034 0.0
C2584 C 0.72519 0.5779 0.17287 0.0
C2585 C 0.72469 0.5932 0.18559 0.0
H2586 H 0.73404 0.54944 0.16828 0.0
C2587 C 0.73439 0.5918 0.20333 0.0
H2588 H 0.71777 0.5786 0.1591 0.0
C2589 C 0.74395 0.57526 0.20851 0.0
C2590 C 0.74381 0.55955 0.19618 0.0
H2591 H 0.73455 0.60352 0.21327 0.0
H2592 H 0.7513 0.5748 0.2223 0.0
C2593 C 0.73458 0.56121 0.17814 0.0
C2594 C 0.75389 0.47478 0.79183 0.0
C2595 C 0.74805 0.47469 0.81063 0.0
H2596 H 0.77039 0.48864 0.77099 0.0
C2597 C 0.75443 0.48957 0.82279 0.0
H2598 H 0.74959 0.46343 0.78215 0.0
C2599 C 0.76657 0.5039 0.81645 0.0
C2600 C 0.77251 0.50388 0.79771 0.0
H2601 H 0.74998 0.4902 0.83727 0.0
H2602 H 0.77107 0.51517 0.82614 0.0
C2603 C 0.76593 0.4892 0.78546 0.0
C2604 C 0.62482 0.76471 0.83547 0.0
C2605 C 0.63522 0.75726 0.82068 0.0
H2606 H 0.60045 0.78017 0.84328 0.0
C2607 C 0.62873 0.76052 0.80185 0.0
H2608 H 0.62922 0.76223 0.85016 0.0
C2609 C 0.61217 0.77082 0.79791 0.0
C2610 C 0.60168 0.77812 0.8127 0.0
H2611 H 0.63654 0.75525 0.79011 0.0
H2612 H 0.60767 0.77318 0.78324 0.0
C2613 C 0.60829 0.77503 0.83153 0.0
C2614 C 0.33662 0.61096 0.7824 0.0
C2615 C 0.34115 0.61172 0.80202 0.0
H2616 H 0.32381 0.59489 0.75921 0.0
C2617 C 0.33726 0.59575 0.81315 0.0
H2618 H 0.33941 0.62307 0.77345 0.0
C2619 C 0.32845 0.57964 0.80502 0.0
C2620 C 0.32321 0.57909 0.78554 0.0
H2621 H 0.34092 0.59573 0.82823 0.0
H2622 H 0.32535 0.56777 0.81417 0.0
C2623 C 0.32769 0.59482 0.77424 0.0
C2624 C 0.45685 0.29863 0.84984 0.0
C2625 C 0.45044 0.31669 0.84417 0.0
H2626 H 0.47808 0.27732 0.84762 0.0
C2627 C 0.46131 0.32702 0.83128 0.0
H2628 H 0.44879 0.28997 0.85938 0.0
C2629 C 0.47792 0.3195 0.82423 0.0
C2630 C 0.48434 0.3016 0.83011 0.0
H2631 H 0.45722 0.34111 0.82681 0.0
H2632 H 0.48599 0.3279 0.81447 0.0
C2633 C 0.47364 0.29127 0.84303 0.0
C2634 C 0.31939 0.41899 0.24579 0.0
C2635 C 0.31615 0.41678 0.22613 0.0
H2636 H 0.31566 0.43588 0.27032 0.0
C2637 C 0.30478 0.43021 0.21628 0.0
H2638 H 0.3275 0.40868 0.254 0.0
C2639 C 0.29762 0.44594 0.22584 0.0
C2640 C 0.30183 0.44849 0.24536 0.0
H2641 H 0.30195 0.42891 0.20112 0.0
H2642 H 0.28946 0.4564 0.21789 0.0
C2643 C 0.31245 0.4346 0.2552 0.0
C2644 C 0.59578 0.28555 0.22352 0.0
C2645 C 0.5984 0.28968 0.20435 0.0
H2646 H 0.57988 0.27006 0.24357 0.0
C2647 C 0.58634 0.28083 0.19042 0.0
H2648 H 0.60505 0.29183 0.23456 0.0
C2649 C 0.57181 0.26833 0.19558 0.0
C2650 C 0.56901 0.26442 0.21479 0.0
H2651 H 0.58788 0.28385 0.17551 0.0
H2652 H 0.5625 0.2621 0.18456 0.0
C2653 C 0.58131 0.27304 0.22867 0.0
C2654 C 0.42858 0.73737 0.23514 0.0
C2655 C 0.43026 0.73026 0.21669 0.0
H2656 H 0.44309 0.7483 0.26023 0.0
C2657 C 0.44792 0.73215 0.20816 0.0
H2658 H 0.41512 0.73643 0.24199 0.0
C2659 C 0.46398 0.7393 0.2186 0.0
C2660 C 0.46249 0.74469 0.23762 0.0
H2661 H 0.44967 0.72673 0.19399 0.0
H2662 H 0.47777 0.73905 0.21237 0.0
C2663 C 0.44454 0.74437 0.24551 0.0
loop_
_geom_bond_atom_site_label_1
_geom_bond_atom_site_label_2
_geom_bond_distance
_geom_bond_site_symmetry_2
_ccdc_geom_bond_type
C0 C1 1.384 . S
C0 H13 0.947 . S
C0 C35 1.382 . S
C1 C0 1.384 . S
C1 C2 1.378 . S
C2 C1 1.378 . S
C2 C3 1.378 . S
C2 H14 0.952 . S
C3 C2 1.378 . S
C3 H15 0.950 . S
C3 C34 1.383 . S
H4 C23 0.947 . S
H5 C24 0.946 . S
H6 C26 0.953 . S
H7 C27 0.945 . S
H8 C29 0.952 . S
H9 C30 0.949 . S
H10 C32 0.950 . S
H11 C33 0.948 . S
H12 C35 0.951 . S
H13 C0 0.947 . S
H14 C2 0.952 . S
H15 C3 0.950 . S
N16 C19 1.382 . S
N16 C21 1.363 . S
N17 C19 1.371 . S
N17 C20 1.372 . S
N18 C20 1.361 . S
N18 C21 1.377 . S
C19 N16 1.382 . S
C19 N17 1.371 . S
C19 C22 1.480 . S
C20 N17 1.372 . S
C20 N18 1.361 . S
C20 C28 1.457 . S
C21 N16 1.363 . S
C21 N18 1.377 . S
C21 C34 1.479 . S
C22 C19 1.480 . S
C22 C23 1.383 . S
C22 C27 1.385 . S
C23 H4 0.947 . S
C23 C22 1.383 . S
C23 C24 1.388 . S
C24 H5 0.946 . S
C24 C23 1.388 . S
C24 C25 1.384 . S
C25 C24 1.384 . S
C25 C26 1.377 . S
C26 H6 0.953 . S
C26 C25 1.377 . S
C26 C27 1.369 . S
C27 H7 0.945 . S
C27 C22 1.385 . S
C27 C26 1.369 . S
C28 C20 1.457 . S
C28 C29 1.372 . S
C28 C33 1.364 . S
C29 H8 0.952 . S
C29 C28 1.372 . S
C29 C30 1.389 . S
C30 H9 0.949 . S
C30 C29 1.389 . S
C30 C31 1.387 . S
C31 C30 1.387 . S
C31 C32 1.372 . S
C32 H10 0.950 . S
C32 C31 1.372 . S
C32 C33 1.379 . S
C33 H11 0.948 . S
C33 C28 1.364 . S
C33 C32 1.379 . S
C34 C3 1.383 . S
C34 C21 1.479 . S
C34 C35 1.398 . S
C35 C0 1.382 . S
C35 H12 0.951 . S
C35 C34 1.398 . S
C36 C37 1.384 . S
C36 H49 0.947 . S
C36 C71 1.382 . S
C37 C36 1.384 . S
C37 C38 1.378 . S
C38 C37 1.378 . S
C38 C39 1.378 . S
C38 H50 0.952 . S
C39 C38 1.378 . S
C39 H51 0.950 . S
C39 C70 1.383 . S
H40 C59 0.947 . S
H41 C60 0.946 . S
H42 C62 0.953 . S
H43 C63 0.945 . S
H44 C65 0.952 . S
H45 C66 0.949 . S
H46 C68 0.950 . S
H47 C69 0.948 . S
H48 C71 0.951 . S
H49 C36 0.947 . S
H50 C38 0.952 . S
H51 C39 0.950 . S
N52 C55 1.382 . S
N52 C57 1.363 . S
N53 C55 1.371 . S
N53 C56 1.372 . S
N54 C56 1.361 . S
N54 C57 1.377 . S
C55 N52 1.382 . S
C55 N53 1.371 . S
C55 C58 1.480 . S
C56 N53 1.372 . S
C56 N54 1.361 . S
C56 C64 1.457 . S
C57 N52 1.363 . S
C57 N54 1.377 . S
C57 C70 1.479 . S
C58 C55 1.480 . S
C58 C59 1.383 . S
C58 C63 1.385 . S
C59 H40 0.947 . S
C59 C58 1.383 . S
C59 C60 1.388 . S
C60 H41 0.946 . S
C60 C59 1.388 . S
C60 C61 1.384 . S
C61 C60 1.384 . S
C61 C62 1.377 . S
C62 H42 0.953 . S
C62 C61 1.377 . S
C62 C63 1.369 . S
C63 H43 0.945 . S
C63 C58 1.385 . S
C63 C62 1.369 . S
C64 C56 1.457 . S
C64 C65 1.372 . S
C64 C69 1.364 . S
C65 H44 0.952 . S
C65 C64 1.372 . S
C65 C66 1.389 . S
C66 H45 0.949 . S
C66 C65 1.389 . S
C66 C67 1.387 . S
C67 C66 1.387 . S
C67 C68 1.372 . S
C68 H46 0.950 . S
C68 C67 1.372 . S
C68 C69 1.379 . S
C69 H47 0.948 . S
C69 C64 1.364 . S
C69 C68 1.379 . S
C70 C39 1.383 . S
C70 C57 1.479 . S
C70 C71 1.398 . S
C71 C36 1.382 . S
C71 H48 0.951 . S
C71 C70 1.398 . S
C72 C73 1.384 . S
C72 H85 0.947 . S
C72 C107 1.382 . S
C73 C72 1.384 . S
C73 C74 1.378 . S
C74 C73 1.378 . S
C74 C75 1.378 . S
C74 H86 0.952 . S
C75 C74 1.378 . S
C75 H87 0.950 . S
C75 C106 1.383 . S
H76 C95 0.947 . S
H77 C96 0.946 . S
H78 C98 0.953 . S
H79 C99 0.945 . S
H80 C101 0.952 . S
H81 C102 0.949 . S
H82 C104 0.950 . S
H83 C105 0.948 . S
H84 C107 0.951 . S
H85 C72 0.947 . S
H86 C74 0.952 . S
H87 C75 0.950 . S
N88 C91 1.382 . S
N88 C93 1.363 . S
N89 C91 1.371 . S
N89 C92 1.372 . S
N90 C92 1.361 . S
N90 C93 1.377 . S
C91 N88 1.382 . S
C91 N89 1.371 . S
C91 C94 1.480 . S
C92 N89 1.372 . S
C92 N90 1.361 . S
C92 C100 1.457 . S
C93 N88 1.363 . S
C93 N90 1.377 . S
C93 C106 1.479 . S
C94 C91 1.480 . S
C94 C95 1.383 . S
C94 C99 1.385 . S
C95 H76 0.947 . S
C95 C94 1.383 . S
C95 C96 1.388 . S
C96 H77 0.946 . S
C96 C95 1.388 . S
C96 C97 1.384 . S
C97 C96 1.384 . S
C97 C98 1.377 . S
C98 H78 0.953 . S
C98 C97 1.377 . S
C98 C99 1.369 . S
C99 H79 0.945 . S
C99 C94 1.385 . S
C99 C98 1.369 . S
C100 C92 1.457 . S
C100 C101 1.372 . S
C100 C105 1.364 . S
C101 H80 0.952 . S
C101 C100 1.372 . S
C101 C102 1.389 . S
C102 H81 0.949 . S
C102 C101 1.389 . S
C102 C103 1.387 . S
C103 C102 1.387 . S
C103 C104 1.372 . S
C104 H82 0.950 . S
C104 C103 1.372 . S
C104 C105 1.379 . S
C105 H83 0.948 . S
C105 C100 1.364 . S
C105 C104 1.379 . S
C106 C75 1.383 . S
C106 C93 1.479 . S
C106 C107 1.398 . S
C107 C72 1.382 . S
C107 H84 0.951 . S
C107 C106 1.398 . S
C108 C109 1.384 . S
C108 H121 0.947 . S
C108 C143 1.382 . S
C109 C108 1.384 . S
C109 C110 1.378 . S
C110 C109 1.378 . S
C110 C111 1.378 . S
C110 H122 0.952 . S
C111 C110 1.378 . S
C111 H123 0.950 . S
C111 C142 1.383 . S
H112 C131 0.947 . S
H113 C132 0.946 . S
H114 C134 0.953 . S
H115 C135 0.945 . S
H116 C137 0.952 . S
H117 C138 0.949 . S
H118 C140 0.950 . S
H119 C141 0.948 . S
H120 C143 0.951 . S
H121 C108 0.947 . S
H122 C110 0.952 . S
H123 C111 0.950 . S
N124 C127 1.382 . S
N124 C129 1.363 . S
N125 C127 1.371 . S
N125 C128 1.372 . S
N126 C128 1.361 . S
N126 C129 1.377 . S
C127 N124 1.382 . S
C127 N125 1.371 . S
C127 C130 1.480 . S
C128 N125 1.372 . S
C128 N126 1.361 . S
C128 C136 1.457 . S
C129 N124 1.363 . S
C129 N126 1.377 . S
C129 C142 1.479 . S
C130 C127 1.480 . S
C130 C131 1.383 . S
C130 C135 1.385 . S
C131 H112 0.947 . S
C131 C130 1.383 . S
C131 C132 1.388 . S
C132 H113 0.946 . S
C132 C131 1.388 . S
C132 C133 1.384 . S
C133 C132 1.384 . S
C133 C134 1.377 . S
C134 H114 0.953 . S
C134 C133 1.377 . S
C134 C135 1.369 . S
C135 H115 0.945 . S
C135 C130 1.385 . S
C135 C134 1.369 . S
C136 C128 1.457 . S
C136 C137 1.372 . S
C136 C141 1.364 . S
C137 H116 0.952 . S
C137 C136 1.372 . S
C137 C138 1.389 . S
C138 H117 0.949 . S
C138 C137 1.389 . S
C138 C139 1.387 . S
C139 C138 1.387 . S
C139 C140 1.372 . S
C140 H118 0.950 . S
C140 C139 1.372 . S
C140 C141 1.379 . S
C141 H119 0.948 . S
C141 C136 1.364 . S
C141 C140 1.379 . S
C142 C111 1.383 . S
C142 C129 1.479 . S
C142 C143 1.398 . S
C143 C108 1.382 . S
C143 H120 0.951 . S
C143 C142 1.398 . S
C144 C145 1.384 . S
C144 H157 0.947 . S
C144 C179 1.382 . S
C145 C144 1.384 . S
C145 C146 1.378 . S
C146 C145 1.378 . S
C146 C147 1.378 . S
C146 H158 0.952 . S
C147 C146 1.378 . S
C147 H159 0.950 . S
C147 C178 1.383 . S
H148 C167 0.947 . S
H149 C168 0.946 . S
H150 C170 0.953 . S
H151 C171 0.945 . S
H152 C173 0.952 . S
H153 C174 0.949 . S
H154 C176 0.950 . S
H155 C177 0.948 . S
H156 C179 0.951 . S
H157 C144 0.947 . S
H158 C146 0.952 . S
H159 C147 0.950 . S
N160 C163 1.382 . S
N160 C165 1.363 . S
N161 C163 1.371 . S
N161 C164 1.372 . S
N162 C164 1.361 . S
N162 C165 1.377 . S
C163 N160 1.382 . S
C163 N161 1.371 . S
C163 C166 1.480 . S
C164 N161 1.372 . S
C164 N162 1.361 . S
C164 C172 1.457 . S
C165 N160 1.363 . S
C165 N162 1.377 . S
C165 C178 1.479 . S
C166 C163 1.480 . S
C166 C167 1.383 . S
C166 C171 1.385 . S
C167 H148 0.947 . S
C167 C166 1.383 . S
C167 C168 1.388 . S
C168 H149 0.946 . S
C168 C167 1.388 . S
C168 C169 1.384 . S
C169 C168 1.384 . S
C169 C170 1.377 . S
C170 H150 0.953 . S
C170 C169 1.377 . S
C170 C171 1.369 . S
C171 H151 0.945 . S
C171 C166 1.385 . S
C171 C170 1.369 . S
C172 C164 1.457 . S
C172 C173 1.372 . S
C172 C177 1.364 . S
C173 H152 0.952 . S
C173 C172 1.372 . S
C173 C174 1.389 . S
C174 H153 0.949 . S
C174 C173 1.389 . S
C174 C175 1.387 . S
C175 C174 1.387 . S
C175 C176 1.372 . S
C176 H154 0.950 . S
C176 C175 1.372 . S
C176 C177 1.379 . S
C177 H155 0.948 . S
C177 C172 1.364 . S
C177 C176 1.379 . S
C178 C147 1.383 . S
C178 C165 1.479 . S
C178 C179 1.398 . S
C179 C144 1.382 . S
C179 H156 0.951 . S
C179 C178 1.398 . S
C180 C181 1.384 . S
C180 H193 0.947 . S
C180 C215 1.382 . S
C181 C180 1.384 . S
C181 C182 1.378 . S
C182 C181 1.378 . S
C182 C183 1.378 . S
C182 H194 0.952 . S
C183 C182 1.378 . S
C183 H195 0.950 . S
C183 C214 1.383 . S
H184 C203 0.947 . S
H185 C204 0.946 . S
H186 C206 0.953 . S
H187 C207 0.945 . S
H188 C209 0.952 . S
H189 C210 0.949 . S
H190 C212 0.950 . S
H191 C213 0.948 . S
H192 C215 0.951 . S
H193 C180 0.947 . S
H194 C182 0.952 . S
H195 C183 0.950 . S
N196 C199 1.382 . S
N196 C201 1.363 . S
N197 C199 1.371 . S
N197 C200 1.372 . S
N198 C200 1.361 . S
N198 C201 1.377 . S
C199 N196 1.382 . S
C199 N197 1.371 . S
C199 C202 1.480 . S
C200 N197 1.372 . S
C200 N198 1.361 . S
C200 C208 1.457 . S
C201 N196 1.363 . S
C201 N198 1.377 . S
C201 C214 1.479 . S
C202 C199 1.480 . S
C202 C203 1.383 . S
C202 C207 1.385 . S
C203 H184 0.947 . S
C203 C202 1.383 . S
C203 C204 1.388 . S
C204 H185 0.946 . S
C204 C203 1.388 . S
C204 C205 1.384 . S
C205 C204 1.384 . S
C205 C206 1.377 . S
C206 H186 0.953 . S
C206 C205 1.377 . S
C206 C207 1.369 . S
C207 H187 0.945 . S
C207 C202 1.385 . S
C207 C206 1.369 . S
C208 C200 1.457 . S
C208 C209 1.372 . S
C208 C213 1.364 . S
C209 H188 0.952 . S
C209 C208 1.372 . S
C209 C210 1.389 . S
C210 H189 0.949 . S
C210 C209 1.389 . S
C210 C211 1.387 . S
C211 C210 1.387 . S
C211 C212 1.372 . S
C212 H190 0.950 . S
C212 C211 1.372 . S
C212 C213 1.379 . S
C213 H191 0.948 . S
C213 C208 1.364 . S
C213 C212 1.379 . S
C214 C183 1.383 . S
C214 C201 1.479 . S
C214 C215 1.398 . S
C215 C180 1.382 . S
C215 H192 0.951 . S
C215 C214 1.398 . S
C216 C217 1.384 . S
C216 H229 0.947 . S
C216 C251 1.382 . S
C217 C216 1.384 . S
C217 C218 1.378 . S
C218 C217 1.378 . S
C218 C219 1.378 . S
C218 H230 0.952 . S
C219 C218 1.378 . S
C219 H231 0.950 . S
C219 C250 1.383 . S
H220 C239 0.947 . S
H221 C240 0.946 . S
H222 C242 0.953 . S
H223 C243 0.945 . S
H224 C245 0.952 . S
H225 C246 0.949 . S
H226 C248 0.950 . S
H227 C249 0.948 . S
H228 C251 0.951 . S
H229 C216 0.947 . S
H230 C218 0.952 . S
H231 C219 0.950 . S
N232 C235 1.382 . S
N232 C237 1.363 . S
N233 C235 1.371 . S
N233 C236 1.372 . S
N234 C236 1.361 . S
N234 C237 1.377 . S
C235 N232 1.382 . S
C235 N233 1.371 . S
C235 C238 1.480 . S
C236 N233 1.372 . S
C236 N234 1.361 . S
C236 C244 1.457 . S
C237 N232 1.363 . S
C237 N234 1.377 . S
C237 C250 1.479 . S
C238 C235 1.480 . S
C238 C239 1.383 . S
C238 C243 1.385 . S
C239 H220 0.947 . S
C239 C238 1.383 . S
C239 C240 1.388 . S
C240 H221 0.946 . S
C240 C239 1.388 . S
C240 C241 1.384 . S
C241 C240 1.384 . S
C241 C242 1.377 . S
C242 H222 0.953 . S
C242 C241 1.377 . S
C242 C243 1.369 . S
C243 H223 0.945 . S
C243 C238 1.385 . S
C243 C242 1.369 . S
C244 C236 1.457 . S
C244 C245 1.372 . S
C244 C249 1.364 . S
C245 H224 0.952 . S
C245 C244 1.372 . S
C245 C246 1.389 . S
C246 H225 0.949 . S
C246 C245 1.389 . S
C246 C247 1.387 . S
C247 C246 1.387 . S
C247 C248 1.372 . S
C248 H226 0.950 . S
C248 C247 1.372 . S
C248 C249 1.379 . S
C249 H227 0.948 . S
C249 C244 1.364 . S
C249 C248 1.379 . S
C250 C219 1.383 . S
C250 C237 1.479 . S
C250 C251 1.398 . S
C251 C216 1.382 . S
C251 H228 0.951 . S
C251 C250 1.398 . S
C252 C253 1.384 . S
C252 H265 0.947 . S
C252 C287 1.382 . S
C253 C252 1.384 . S
C253 C254 1.378 . S
C254 C253 1.378 . S
C254 C255 1.378 . S
C254 H266 0.952 . S
C255 C254 1.378 . S
C255 H267 0.950 . S
C255 C286 1.383 . S
H256 C275 0.947 . S
H257 C276 0.946 . S
H258 C278 0.953 . S
H259 C279 0.945 . S
H260 C281 0.952 . S
H261 C282 0.949 . S
H262 C284 0.950 . S
H263 C285 0.948 . S
H264 C287 0.951 . S
H265 C252 0.947 . S
H266 C254 0.952 . S
H267 C255 0.950 . S
N268 C271 1.382 . S
N268 C273 1.363 . S
N269 C271 1.371 . S
N269 C272 1.372 . S
N270 C272 1.361 . S
N270 C273 1.377 . S
C271 N268 1.382 . S
C271 N269 1.371 . S
C271 C274 1.480 . S
C272 N269 1.372 . S
C272 N270 1.361 . S
C272 C280 1.457 . S
C273 N268 1.363 . S
C273 N270 1.377 . S
C273 C286 1.479 . S
C274 C271 1.480 . S
C274 C275 1.383 . S
C274 C279 1.385 . S
C275 H256 0.947 . S
C275 C274 1.383 . S
C275 C276 1.388 . S
C276 H257 0.946 . S
C276 C275 1.388 . S
C276 C277 1.384 . S
C277 C276 1.384 . S
C277 C278 1.377 . S
C278 H258 0.953 . S
C278 C277 1.377 . S
C278 C279 1.369 . S
C279 H259 0.945 . S
C279 C274 1.385 . S
C279 C278 1.369 . S
C280 C272 1.457 . S
C280 C281 1.372 . S
C280 C285 1.364 . S
C281 H260 0.952 . S
C281 C280 1.372 . S
C281 C282 1.389 . S
C282 H261 0.949 . S
C282 C281 1.389 . S
C282 C283 1.387 . S
C283 C282 1.387 . S
C283 C284 1.372 . S
C284 H262 0.950 . S
C284 C283 1.372 . S
C284 C285 1.379 . S
C285 H263 0.948 . S
C285 C280 1.364 . S
C285 C284 1.379 . S
C286 C255 1.383 . S
C286 C273 1.479 . S
C286 C287 1.398 . S
C287 C252 1.382 . S
C287 H264 0.951 . S
C287 C286 1.398 . S
C288 C289 1.384 . S
C288 H301 0.947 . S
C288 C323 1.382 . S
C289 C288 1.384 . S
C289 C290 1.378 . S
C290 C289 1.378 . S
C290 C291 1.378 . S
C290 H302 0.952 . S
C291 C290 1.378 . S
C291 H303 0.950 . S
C291 C322 1.383 . S
H292 C311 0.947 . S
H293 C312 0.946 . S
H294 C314 0.953 . S
H295 C315 0.945 . S
H296 C317 0.952 . S
H297 C318 0.949 . S
H298 C320 0.950 . S
H299 C321 0.948 . S
H300 C323 0.951 . S
H301 C288 0.947 . S
H302 C290 0.952 . S
H303 C291 0.950 . S
N304 C307 1.382 . S
N304 C309 1.363 . S
N305 C307 1.371 . S
N305 C308 1.372 . S
N306 C308 1.361 . S
N306 C309 1.377 . S
C307 N304 1.382 . S
C307 N305 1.371 . S
C307 C310 1.480 . S
C308 N305 1.372 . S
C308 N306 1.361 . S
C308 C316 1.457 . S
C309 N304 1.363 . S
C309 N306 1.377 . S
C309 C322 1.479 . S
C310 C307 1.480 . S
C310 C311 1.383 . S
C310 C315 1.385 . S
C311 H292 0.947 . S
C311 C310 1.383 . S
C311 C312 1.388 . S
C312 H293 0.946 . S
C312 C311 1.388 . S
C312 C313 1.384 . S
C313 C312 1.384 . S
C313 C314 1.377 . S
C314 H294 0.953 . S
C314 C313 1.377 . S
C314 C315 1.369 . S
C315 H295 0.945 . S
C315 C310 1.385 . S
C315 C314 1.369 . S
C316 C308 1.457 . S
C316 C317 1.372 . S
C316 C321 1.364 . S
C317 H296 0.952 . S
C317 C316 1.372 . S
C317 C318 1.389 . S
C318 H297 0.949 . S
C318 C317 1.389 . S
C318 C319 1.387 . S
C319 C318 1.387 . S
C319 C320 1.372 . S
C320 H298 0.950 . S
C320 C319 1.372 . S
C320 C321 1.379 . S
C321 H299 0.948 . S
C321 C316 1.364 . S
C321 C320 1.379 . S
C322 C291 1.383 . S
C322 C309 1.479 . S
C322 C323 1.398 . S
C323 C288 1.382 . S
C323 H300 0.951 . S
C323 C322 1.398 . S
C324 C325 1.384 . S
C324 H337 0.947 . S
C324 C359 1.382 . S
C325 C324 1.384 . S
C325 C326 1.378 . S
C326 C325 1.378 . S
C326 C327 1.378 . S
C326 H338 0.952 . S
C327 C326 1.378 . S
C327 H339 0.950 . S
C327 C358 1.383 . S
H328 C347 0.947 . S
H329 C348 0.946 . S
H330 C350 0.953 . S
H331 C351 0.945 . S
H332 C353 0.952 . S
H333 C354 0.949 . S
H334 C356 0.950 . S
H335 C357 0.948 . S
H336 C359 0.951 . S
H337 C324 0.947 . S
H338 C326 0.952 . S
H339 C327 0.950 . S
N340 C343 1.382 . S
N340 C345 1.363 . S
N341 C343 1.371 . S
N341 C344 1.372 . S
N342 C344 1.361 . S
N342 C345 1.377 . S
C343 N340 1.382 . S
C343 N341 1.371 . S
C343 C346 1.480 . S
C344 N341 1.372 . S
C344 N342 1.361 . S
C344 C352 1.457 . S
C345 N340 1.363 . S
C345 N342 1.377 . S
C345 C358 1.479 . S
C346 C343 1.480 . S
C346 C347 1.383 . S
C346 C351 1.385 . S
C347 H328 0.947 . S
C347 C346 1.383 . S
C347 C348 1.388 . S
C348 H329 0.946 . S
C348 C347 1.388 . S
C348 C349 1.384 . S
C349 C348 1.384 . S
C349 C350 1.377 . S
C350 H330 0.953 . S
C350 C349 1.377 . S
C350 C351 1.369 . S
C351 H331 0.945 . S
C351 C346 1.385 . S
C351 C350 1.369 . S
C352 C344 1.457 . S
C352 C353 1.372 . S
C352 C357 1.364 . S
C353 H332 0.952 . S
C353 C352 1.372 . S
C353 C354 1.389 . S
C354 H333 0.949 . S
C354 C353 1.389 . S
C354 C355 1.387 . S
C355 C354 1.387 . S
C355 C356 1.372 . S
C356 H334 0.950 . S
C356 C355 1.372 . S
C356 C357 1.379 . S
C357 H335 0.948 . S
C357 C352 1.364 . S
C357 C356 1.379 . S
C358 C327 1.383 . S
C358 C345 1.479 . S
C358 C359 1.398 . S
C359 C324 1.382 . S
C359 H336 0.951 . S
C359 C358 1.398 . S
C360 C361 1.384 . S
C360 H373 0.947 . S
C360 C395 1.382 . S
C361 C360 1.384 . S
C361 C362 1.378 . S
C362 C361 1.378 . S
C362 C363 1.378 . S
C362 H374 0.952 . S
C363 C362 1.378 . S
C363 H375 0.950 . S
C363 C394 1.383 . S
H364 C383 0.947 . S
H365 C384 0.946 . S
H366 C386 0.953 . S
H367 C387 0.945 . S
H368 C389 0.952 . S
H369 C390 0.949 . S
H370 C392 0.950 . S
H371 C393 0.948 . S
H372 C395 0.951 . S
H373 C360 0.947 . S
H374 C362 0.952 . S
H375 C363 0.950 . S
N376 C379 1.382 . S
N376 C381 1.363 . S
N377 C379 1.371 . S
N377 C380 1.372 . S
N378 C380 1.361 . S
N378 C381 1.377 . S
C379 N376 1.382 . S
C379 N377 1.371 . S
C379 C382 1.480 . S
C380 N377 1.372 . S
C380 N378 1.361 . S
C380 C388 1.457 . S
C381 N376 1.363 . S
C381 N378 1.377 . S
C381 C394 1.479 . S
C382 C379 1.480 . S
C382 C383 1.383 . S
C382 C387 1.385 . S
C383 H364 0.947 . S
C383 C382 1.383 . S
C383 C384 1.388 . S
C384 H365 0.946 . S
C384 C383 1.388 . S
C384 C385 1.384 . S
C385 C384 1.384 . S
C385 C386 1.377 . S
C386 H366 0.953 . S
C386 C385 1.377 . S
C386 C387 1.369 . S
C387 H367 0.945 . S
C387 C382 1.385 . S
C387 C386 1.369 . S
C388 C380 1.457 . S
C388 C389 1.372 . S
C388 C393 1.364 . S
C389 H368 0.952 . S
C389 C388 1.372 . S
C389 C390 1.389 . S
C390 H369 0.949 . S
C390 C389 1.389 . S
C390 C391 1.387 . S
C391 C390 1.387 . S
C391 C392 1.372 . S
C392 H370 0.950 . S
C392 C391 1.372 . S
C392 C393 1.379 . S
C393 H371 0.948 . S
C393 C388 1.364 . S
C393 C392 1.379 . S
C394 C363 1.383 . S
C394 C381 1.479 . S
C394 C395 1.398 . S
C395 C360 1.382 . S
C395 H372 0.951 . S
C395 C394 1.398 . S
C396 C397 1.384 . S
C396 H409 0.947 . S
C396 C431 1.382 . S
C397 C396 1.384 . S
C397 C398 1.378 . S
C398 C397 1.378 . S
C398 C399 1.378 . S
C398 H410 0.952 . S
C399 C398 1.378 . S
C399 H411 0.950 . S
C399 C430 1.383 . S
H400 C419 0.947 . S
H401 C420 0.946 . S
H402 C422 0.953 . S
H403 C423 0.945 . S
H404 C425 0.952 . S
H405 C426 0.949 . S
H406 C428 0.950 . S
H407 C429 0.948 . S
H408 C431 0.951 . S
H409 C396 0.947 . S
H410 C398 0.952 . S
H411 C399 0.950 . S
N412 C415 1.382 . S
N412 C417 1.363 . S
N413 C415 1.371 . S
N413 C416 1.372 . S
N414 C416 1.361 . S
N414 C417 1.377 . S
C415 N412 1.382 . S
C415 N413 1.371 . S
C415 C418 1.480 . S
C416 N413 1.372 . S
C416 N414 1.361 . S
C416 C424 1.457 . S
C417 N412 1.363 . S
C417 N414 1.377 . S
C417 C430 1.479 . S
C418 C415 1.480 . S
C418 C419 1.383 . S
C418 C423 1.385 . S
C419 H400 0.947 . S
C419 C418 1.383 . S
C419 C420 1.388 . S
C420 H401 0.946 . S
C420 C419 1.388 . S
C420 C421 1.384 . S
C421 C420 1.384 . S
C421 C422 1.377 . S
C422 H402 0.953 . S
C422 C421 1.377 . S
C422 C423 1.369 . S
C423 H403 0.945 . S
C423 C418 1.385 . S
C423 C422 1.369 . S
C424 C416 1.457 . S
C424 C425 1.372 . S
C424 C429 1.364 . S
C425 H404 0.952 . S
C425 C424 1.372 . S
C425 C426 1.389 . S
C426 H405 0.949 . S
C426 C425 1.389 . S
C426 C427 1.387 . S
C427 C426 1.387 . S
C427 C428 1.372 . S
C428 H406 0.950 . S
C428 C427 1.372 . S
C428 C429 1.379 . S
C429 H407 0.948 . S
C429 C424 1.364 . S
C429 C428 1.379 . S
C430 C399 1.383 . S
C430 C417 1.479 . S
C430 C431 1.398 . S
C431 C396 1.382 . S
C431 H408 0.951 . S
C431 C430 1.398 . S
C432 C433 1.384 . S
C432 H445 0.947 . S
C432 C467 1.382 . S
C433 C432 1.384 . S
C433 C434 1.378 . S
C434 C433 1.378 . S
C434 C435 1.378 . S
C434 H446 0.952 . S
C435 C434 1.378 . S
C435 H447 0.950 . S
C435 C466 1.383 . S
H436 C455 0.947 . S
H437 C456 0.946 . S
H438 C458 0.953 . S
H439 C459 0.945 . S
H440 C461 0.952 . S
H441 C462 0.949 . S
H442 C464 0.950 . S
H443 C465 0.948 . S
H444 C467 0.951 . S
H445 C432 0.947 . S
H446 C434 0.952 . S
H447 C435 0.950 . S
N448 C451 1.382 . S
N448 C453 1.363 . S
N449 C451 1.371 . S
N449 C452 1.372 . S
N450 C452 1.361 . S
N450 C453 1.377 . S
C451 N448 1.382 . S
C451 N449 1.371 . S
C451 C454 1.480 . S
C452 N449 1.372 . S
C452 N450 1.361 . S
C452 C460 1.457 . S
C453 N448 1.363 . S
C453 N450 1.377 . S
C453 C466 1.479 . S
C454 C451 1.480 . S
C454 C455 1.383 . S
C454 C459 1.385 . S
C455 H436 0.947 . S
C455 C454 1.383 . S
C455 C456 1.388 . S
C456 H437 0.946 . S
C456 C455 1.388 . S
C456 C457 1.384 . S
C457 C456 1.384 . S
C457 C458 1.377 . S
C458 H438 0.953 . S
C458 C457 1.377 . S
C458 C459 1.369 . S
C459 H439 0.945 . S
C459 C454 1.385 . S
C459 C458 1.369 . S
C460 C452 1.457 . S
C460 C461 1.372 . S
C460 C465 1.364 . S
C461 H440 0.952 . S
C461 C460 1.372 . S
C461 C462 1.389 . S
C462 H441 0.949 . S
C462 C461 1.389 . S
C462 C463 1.387 . S
C463 C462 1.387 . S
C463 C464 1.372 . S
C464 H442 0.950 . S
C464 C463 1.372 . S
C464 C465 1.379 . S
C465 H443 0.948 . S
C465 C460 1.364 . S
C465 C464 1.379 . S
C466 C435 1.383 . S
C466 C453 1.479 . S
C466 C467 1.398 . S
C467 C432 1.382 . S
C467 H444 0.951 . S
C467 C466 1.398 . S
C468 C469 1.384 . S
C468 H481 0.947 . S
C468 C503 1.382 . S
C469 C468 1.384 . S
C469 C470 1.378 . S
C470 C469 1.378 . S
C470 C471 1.378 . S
C470 H482 0.952 . S
C471 C470 1.378 . S
C471 H483 0.950 . S
C471 C502 1.383 . S
H472 C491 0.947 . S
H473 C492 0.946 . S
H474 C494 0.953 . S
H475 C495 0.945 . S
H476 C497 0.952 . S
H477 C498 0.949 . S
H478 C500 0.950 . S
H479 C501 0.948 . S
H480 C503 0.951 . S
H481 C468 0.947 . S
H482 C470 0.952 . S
H483 C471 0.950 . S
N484 C487 1.382 . S
N484 C489 1.363 . S
N485 C487 1.371 . S
N485 C488 1.372 . S
N486 C488 1.361 . S
N486 C489 1.377 . S
C487 N484 1.382 . S
C487 N485 1.371 . S
C487 C490 1.480 . S
C488 N485 1.372 . S
C488 N486 1.361 . S
C488 C496 1.457 . S
C489 N484 1.363 . S
C489 N486 1.377 . S
C489 C502 1.479 . S
C490 C487 1.480 . S
C490 C491 1.383 . S
C490 C495 1.385 . S
C491 H472 0.947 . S
C491 C490 1.383 . S
C491 C492 1.388 . S
C492 H473 0.946 . S
C492 C491 1.388 . S
C492 C493 1.384 . S
C493 C492 1.384 . S
C493 C494 1.377 . S
C494 H474 0.953 . S
C494 C493 1.377 . S
C494 C495 1.369 . S
C495 H475 0.945 . S
C495 C490 1.385 . S
C495 C494 1.369 . S
C496 C488 1.457 . S
C496 C497 1.372 . S
C496 C501 1.364 . S
C497 H476 0.952 . S
C497 C496 1.372 . S
C497 C498 1.389 . S
C498 H477 0.949 . S
C498 C497 1.389 . S
C498 C499 1.387 . S
C499 C498 1.387 . S
C499 C500 1.372 . S
C500 H478 0.950 . S
C500 C499 1.372 . S
C500 C501 1.379 . S
C501 H479 0.948 . S
C501 C496 1.364 . S
C501 C500 1.379 . S
C502 C471 1.383 . S
C502 C489 1.479 . S
C502 C503 1.398 . S
C503 C468 1.382 . S
C503 H480 0.951 . S
C503 C502 1.398 . S
C504 C505 1.384 . S
C504 H517 0.947 . S
C504 C539 1.382 . S
C505 C504 1.384 . S
C505 C506 1.378 . S
C506 C505 1.378 . S
C506 C507 1.378 . S
C506 H518 0.952 . S
C507 C506 1.378 . S
C507 H519 0.950 . S
C507 C538 1.383 . S
H508 C527 0.947 . S
H509 C528 0.946 . S
H510 C530 0.953 . S
H511 C531 0.945 . S
H512 C533 0.952 . S
H513 C534 0.949 . S
H514 C536 0.950 . S
H515 C537 0.948 . S
H516 C539 0.951 . S
H517 C504 0.947 . S
H518 C506 0.952 . S
H519 C507 0.950 . S
N520 C523 1.382 . S
N520 C525 1.363 . S
N521 C523 1.371 . S
N521 C524 1.372 . S
N522 C524 1.361 . S
N522 C525 1.377 . S
C523 N520 1.382 . S
C523 N521 1.371 . S
C523 C526 1.480 . S
C524 N521 1.372 . S
C524 N522 1.361 . S
C524 C532 1.457 . S
C525 N520 1.363 . S
C525 N522 1.377 . S
C525 C538 1.479 . S
C526 C523 1.480 . S
C526 C527 1.383 . S
C526 C531 1.385 . S
C527 H508 0.947 . S
C527 C526 1.383 . S
C527 C528 1.388 . S
C528 H509 0.946 . S
C528 C527 1.388 . S
C528 C529 1.384 . S
C529 C528 1.384 . S
C529 C530 1.377 . S
C530 H510 0.953 . S
C530 C529 1.377 . S
C530 C531 1.369 . S
C531 H511 0.945 . S
C531 C526 1.385 . S
C531 C530 1.369 . S
C532 C524 1.457 . S
C532 C533 1.372 . S
C532 C537 1.364 . S
C533 H512 0.952 . S
C533 C532 1.372 . S
C533 C534 1.389 . S
C534 H513 0.949 . S
C534 C533 1.389 . S
C534 C535 1.387 . S
C535 C534 1.387 . S
C535 C536 1.372 . S
C536 H514 0.950 . S
C536 C535 1.372 . S
C536 C537 1.379 . S
C537 H515 0.948 . S
C537 C532 1.364 . S
C537 C536 1.379 . S
C538 C507 1.383 . S
C538 C525 1.479 . S
C538 C539 1.398 . S
C539 C504 1.382 . S
C539 H516 0.951 . S
C539 C538 1.398 . S
C540 C541 1.384 . S
C540 H553 0.947 . S
C540 C575 1.382 . S
C541 C540 1.384 . S
C541 C542 1.378 . S
C542 C541 1.378 . S
C542 C543 1.378 . S
C542 H554 0.952 . S
C543 C542 1.378 . S
C543 H555 0.950 . S
C543 C574 1.383 . S
H544 C563 0.947 . S
H545 C564 0.946 . S
H546 C566 0.953 . S
H547 C567 0.945 . S
H548 C569 0.952 . S
H549 C570 0.949 . S
H550 C572 0.950 . S
H551 C573 0.948 . S
H552 C575 0.951 . S
H553 C540 0.947 . S
H554 C542 0.952 . S
H555 C543 0.950 . S
N556 C559 1.382 . S
N556 C561 1.363 . S
N557 C559 1.371 . S
N557 C560 1.372 . S
N558 C560 1.361 . S
N558 C561 1.377 . S
C559 N556 1.382 . S
C559 N557 1.371 . S
C559 C562 1.480 . S
C560 N557 1.372 . S
C560 N558 1.361 . S
C560 C568 1.457 . S
C561 N556 1.363 . S
C561 N558 1.377 . S
C561 C574 1.479 . S
C562 C559 1.480 . S
C562 C563 1.383 . S
C562 C567 1.385 . S
C563 H544 0.947 . S
C563 C562 1.383 . S
C563 C564 1.388 . S
C564 H545 0.946 . S
C564 C563 1.388 . S
C564 C565 1.384 . S
C565 C564 1.384 . S
C565 C566 1.377 . S
C566 H546 0.953 . S
C566 C565 1.377 . S
C566 C567 1.369 . S
C567 H547 0.945 . S
C567 C562 1.385 . S
C567 C566 1.369 . S
C568 C560 1.457 . S
C568 C569 1.372 . S
C568 C573 1.364 . S
C569 H548 0.952 . S
C569 C568 1.372 . S
C569 C570 1.389 . S
C570 H549 0.949 . S
C570 C569 1.389 . S
C570 C571 1.387 . S
C571 C570 1.387 . S
C571 C572 1.372 . S
C572 H550 0.950 . S
C572 C571 1.372 . S
C572 C573 1.379 . S
C573 H551 0.948 . S
C573 C568 1.364 . S
C573 C572 1.379 . S
C574 C543 1.383 . S
C574 C561 1.479 . S
C574 C575 1.398 . S
C575 C540 1.382 . S
C575 H552 0.951 . S
C575 C574 1.398 . S
C576 C577 1.384 . S
C576 H589 0.947 . S
C576 C611 1.382 . S
C577 C576 1.384 . S
C577 C578 1.378 . S
C578 C577 1.378 . S
C578 C579 1.378 . S
C578 H590 0.952 . S
C579 C578 1.378 . S
C579 H591 0.950 . S
C579 C610 1.383 . S
H580 C599 0.947 . S
H581 C600 0.946 . S
H582 C602 0.953 . S
H583 C603 0.945 . S
H584 C605 0.952 . S
H585 C606 0.949 . S
H586 C608 0.950 . S
H587 C609 0.948 . S
H588 C611 0.951 . S
H589 C576 0.947 . S
H590 C578 0.952 . S
H591 C579 0.950 . S
N592 C595 1.382 . S
N592 C597 1.363 . S
N593 C595 1.371 . S
N593 C596 1.372 . S
N594 C596 1.361 . S
N594 C597 1.377 . S
C595 N592 1.382 . S
C595 N593 1.371 . S
C595 C598 1.480 . S
C596 N593 1.372 . S
C596 N594 1.361 . S
C596 C604 1.457 . S
C597 N592 1.363 . S
C597 N594 1.377 . S
C597 C610 1.479 . S
C598 C595 1.480 . S
C598 C599 1.383 . S
C598 C603 1.385 . S
C599 H580 0.947 . S
C599 C598 1.383 . S
C599 C600 1.388 . S
C600 H581 0.946 . S
C600 C599 1.388 . S
C600 C601 1.384 . S
C601 C600 1.384 . S
C601 C602 1.377 . S
C602 H582 0.953 . S
C602 C601 1.377 . S
C602 C603 1.369 . S
C603 H583 0.945 . S
C603 C598 1.385 . S
C603 C602 1.369 . S
C604 C596 1.457 . S
C604 C605 1.372 . S
C604 C609 1.364 . S
C605 H584 0.952 . S
C605 C604 1.372 . S
C605 C606 1.389 . S
C606 H585 0.949 . S
C606 C605 1.389 . S
C606 C607 1.387 . S
C607 C606 1.387 . S
C607 C608 1.372 . S
C608 H586 0.950 . S
C608 C607 1.372 . S
C608 C609 1.379 . S
C609 H587 0.948 . S
C609 C604 1.364 . S
C609 C608 1.379 . S
C610 C579 1.383 . S
C610 C597 1.479 . S
C610 C611 1.398 . S
C611 C576 1.382 . S
C611 H588 0.951 . S
C611 C610 1.398 . S
C612 C613 1.384 . S
C612 H625 0.947 . S
C612 C647 1.382 . S
C613 C612 1.384 . S
C613 C614 1.378 . S
C614 C613 1.378 . S
C614 C615 1.378 . S
C614 H626 0.952 . S
C615 C614 1.378 . S
C615 H627 0.950 . S
C615 C646 1.383 . S
H616 C635 0.947 . S
H617 C636 0.946 . S
H618 C638 0.953 . S
H619 C639 0.945 . S
H620 C641 0.952 . S
H621 C642 0.949 . S
H622 C644 0.950 . S
H623 C645 0.948 . S
H624 C647 0.951 . S
H625 C612 0.947 . S
H626 C614 0.952 . S
H627 C615 0.950 . S
N628 C631 1.382 . S
N628 C633 1.363 . S
N629 C631 1.371 . S
N629 C632 1.372 . S
N630 C632 1.361 . S
N630 C633 1.377 . S
C631 N628 1.382 . S
C631 N629 1.371 . S
C631 C634 1.480 . S
C632 N629 1.372 . S
C632 N630 1.361 . S
C632 C640 1.457 . S
C633 N628 1.363 . S
C633 N630 1.377 . S
C633 C646 1.479 . S
C634 C631 1.480 . S
C634 C635 1.383 . S
C634 C639 1.385 . S
C635 H616 0.947 . S
C635 C634 1.383 . S
C635 C636 1.388 . S
C636 H617 0.946 . S
C636 C635 1.388 . S
C636 C637 1.384 . S
C637 C636 1.384 . S
C637 C638 1.377 . S
C638 H618 0.953 . S
C638 C637 1.377 . S
C638 C639 1.369 . S
C639 H619 0.945 . S
C639 C634 1.385 . S
C639 C638 1.369 . S
C640 C632 1.457 . S
C640 C641 1.372 . S
C640 C645 1.364 . S
C641 H620 0.952 . S
C641 C640 1.372 . S
C641 C642 1.389 . S
C642 H621 0.949 . S
C642 C641 1.389 . S
C642 C643 1.387 . S
C643 C642 1.387 . S
C643 C644 1.372 . S
C644 H622 0.950 . S
C644 C643 1.372 . S
C644 C645 1.379 . S
C645 H623 0.948 . S
C645 C640 1.364 . S
C645 C644 1.379 . S
C646 C615 1.383 . S
C646 C633 1.479 . S
C646 C647 1.398 . S
C647 C612 1.382 . S
C647 H624 0.951 . S
C647 C646 1.398 . S
C648 C649 1.384 . S
C648 H661 0.947 . S
C648 C683 1.382 . S
C649 C648 1.384 . S
C649 C650 1.378 . S
C650 C649 1.378 . S
C650 C651 1.378 . S
C650 H662 0.952 . S
C651 C650 1.378 . S
C651 H663 0.950 . S
C651 C682 1.383 . S
H652 C671 0.947 . S
H653 C672 0.946 . S
H654 C674 0.953 . S
H655 C675 0.945 . S
H656 C677 0.952 . S
H657 C678 0.949 . S
H658 C680 0.950 . S
H659 C681 0.948 . S
H660 C683 0.951 . S
H661 C648 0.947 . S
H662 C650 0.952 . S
H663 C651 0.950 . S
N664 C667 1.382 . S
N664 C669 1.363 . S
N665 C667 1.371 . S
N665 C668 1.372 . S
N666 C668 1.361 . S
N666 C669 1.377 . S
C667 N664 1.382 . S
C667 N665 1.371 . S
C667 C670 1.480 . S
C668 N665 1.372 . S
C668 N666 1.361 . S
C668 C676 1.457 . S
C669 N664 1.363 . S
C669 N666 1.377 . S
C669 C682 1.479 . S
C670 C667 1.480 . S
C670 C671 1.383 . S
C670 C675 1.385 . S
C671 H652 0.947 . S
C671 C670 1.383 . S
C671 C672 1.388 . S
C672 H653 0.946 . S
C672 C671 1.388 . S
C672 C673 1.384 . S
C673 C672 1.384 . S
C673 C674 1.377 . S
C674 H654 0.953 . S
C674 C673 1.377 . S
C674 C675 1.369 . S
C675 H655 0.945 . S
C675 C670 1.385 . S
C675 C674 1.369 . S
C676 C668 1.457 . S
C676 C677 1.372 . S
C676 C681 1.364 . S
C677 H656 0.952 . S
C677 C676 1.372 . S
C677 C678 1.389 . S
C678 H657 0.949 . S
C678 C677 1.389 . S
C678 C679 1.387 . S
C679 C678 1.387 . S
C679 C680 1.372 . S
C680 H658 0.950 . S
C680 C679 1.372 . S
C680 C681 1.379 . S
C681 H659 0.948 . S
C681 C676 1.364 . S
C681 C680 1.379 . S
C682 C651 1.383 . S
C682 C669 1.479 . S
C682 C683 1.398 . S
C683 C648 1.382 . S
C683 H660 0.951 . S
C683 C682 1.398 . S
C684 C685 1.384 . S
C684 H697 0.947 . S
C684 C719 1.382 . S
C685 C684 1.384 . S
C685 C686 1.378 . S
C686 C685 1.378 . S
C686 C687 1.378 . S
C686 H698 0.952 . S
C687 C686 1.378 . S
C687 H699 0.950 . S
C687 C718 1.383 . S
H688 C707 0.947 . S
H689 C708 0.946 . S
H690 C710 0.953 . S
H691 C711 0.945 . S
H692 C713 0.952 . S
H693 C714 0.949 . S
H694 C716 0.950 . S
H695 C717 0.948 . S
H696 C719 0.951 . S
H697 C684 0.947 . S
H698 C686 0.952 . S
H699 C687 0.950 . S
N700 C703 1.382 . S
N700 C705 1.363 . S
N701 C703 1.371 . S
N701 C704 1.372 . S
N702 C704 1.361 . S
N702 C705 1.377 . S
C703 N700 1.382 . S
C703 N701 1.371 . S
C703 C706 1.480 . S
C704 N701 1.372 . S
C704 N702 1.361 . S
C704 C712 1.457 . S
C705 N700 1.363 . S
C705 N702 1.377 . S
C705 C718 1.479 . S
C706 C703 1.480 . S
C706 C707 1.383 . S
C706 C711 1.385 . S
C707 H688 0.947 . S
C707 C706 1.383 . S
C707 C708 1.388 . S
C708 H689 0.946 . S
C708 C707 1.388 . S
C708 C709 1.384 . S
C709 C708 1.384 . S
C709 C710 1.377 . S
C710 H690 0.953 . S
C710 C709 1.377 . S
C710 C711 1.369 . S
C711 H691 0.945 . S
C711 C706 1.385 . S
C711 C710 1.369 . S
C712 C704 1.457 . S
C712 C713 1.372 . S
C712 C717 1.364 . S
C713 H692 0.952 . S
C713 C712 1.372 . S
C713 C714 1.389 . S
C714 H693 0.949 . S
C714 C713 1.389 . S
C714 C715 1.387 . S
C715 C714 1.387 . S
C715 C716 1.372 . S
C716 H694 0.950 . S
C716 C715 1.372 . S
C716 C717 1.379 . S
C717 H695 0.948 . S
C717 C712 1.364 . S
C717 C716 1.379 . S
C718 C687 1.383 . S
C718 C705 1.479 . S
C718 C719 1.398 . S
C719 C684 1.382 . S
C719 H696 0.951 . S
C719 C718 1.398 . S
C720 C721 1.384 . S
C720 H733 0.947 . S
C720 C755 1.382 . S
C721 C720 1.384 . S
C721 C722 1.378 . S
C722 C721 1.378 . S
C722 C723 1.378 . S
C722 H734 0.952 . S
C723 C722 1.378 . S
C723 H735 0.950 . S
C723 C754 1.383 . S
H724 C743 0.947 . S
H725 C744 0.946 . S
H726 C746 0.953 . S
H727 C747 0.945 . S
H728 C749 0.952 . S
H729 C750 0.949 . S
H730 C752 0.950 . S
H731 C753 0.948 . S
H732 C755 0.951 . S
H733 C720 0.947 . S
H734 C722 0.952 . S
H735 C723 0.950 . S
N736 C739 1.382 . S
N736 C741 1.363 . S
N737 C739 1.371 . S
N737 C740 1.372 . S
N738 C740 1.361 . S
N738 C741 1.377 . S
C739 N736 1.382 . S
C739 N737 1.371 . S
C739 C742 1.480 . S
C740 N737 1.372 . S
C740 N738 1.361 . S
C740 C748 1.457 . S
C741 N736 1.363 . S
C741 N738 1.377 . S
C741 C754 1.479 . S
C742 C739 1.480 . S
C742 C743 1.383 . S
C742 C747 1.385 . S
C743 H724 0.947 . S
C743 C742 1.383 . S
C743 C744 1.388 . S
C744 H725 0.946 . S
C744 C743 1.388 . S
C744 C745 1.384 . S
C745 C744 1.384 . S
C745 C746 1.377 . S
C746 H726 0.953 . S
C746 C745 1.377 . S
C746 C747 1.369 . S
C747 H727 0.945 . S
C747 C742 1.385 . S
C747 C746 1.369 . S
C748 C740 1.457 . S
C748 C749 1.372 . S
C748 C753 1.364 . S
C749 H728 0.952 . S
C749 C748 1.372 . S
C749 C750 1.389 . S
C750 H729 0.949 . S
C750 C749 1.389 . S
C750 C751 1.387 . S
C751 C750 1.387 . S
C751 C752 1.372 . S
C752 H730 0.950 . S
C752 C751 1.372 . S
C752 C753 1.379 . S
C753 H731 0.948 . S
C753 C748 1.364 . S
C753 C752 1.379 . S
C754 C723 1.383 . S
C754 C741 1.479 . S
C754 C755 1.398 . S
C755 C720 1.382 . S
C755 H732 0.951 . S
C755 C754 1.398 . S
C756 C757 1.384 . S
C756 H769 0.947 . S
C756 C791 1.382 . S
C757 C756 1.384 . S
C757 C758 1.378 . S
C758 C757 1.378 . S
C758 C759 1.378 . S
C758 H770 0.952 . S
C759 C758 1.378 . S
C759 H771 0.950 . S
C759 C790 1.383 . S
H760 C779 0.947 . S
H761 C780 0.946 . S
H762 C782 0.953 . S
H763 C783 0.945 . S
H764 C785 0.952 . S
H765 C786 0.949 . S
H766 C788 0.950 . S
H767 C789 0.948 . S
H768 C791 0.951 . S
H769 C756 0.947 . S
H770 C758 0.952 . S
H771 C759 0.950 . S
N772 C775 1.382 . S
N772 C777 1.363 . S
N773 C775 1.371 . S
N773 C776 1.372 . S
N774 C776 1.361 . S
N774 C777 1.377 . S
C775 N772 1.382 . S
C775 N773 1.371 . S
C775 C778 1.480 . S
C776 N773 1.372 . S
C776 N774 1.361 . S
C776 C784 1.457 . S
C777 N772 1.363 . S
C777 N774 1.377 . S
C777 C790 1.479 . S
C778 C775 1.480 . S
C778 C779 1.383 . S
C778 C783 1.385 . S
C779 H760 0.947 . S
C779 C778 1.383 . S
C779 C780 1.388 . S
C780 H761 0.946 . S
C780 C779 1.388 . S
C780 C781 1.384 . S
C781 C780 1.384 . S
C781 C782 1.377 . S
C782 H762 0.953 . S
C782 C781 1.377 . S
C782 C783 1.369 . S
C783 H763 0.945 . S
C783 C778 1.385 . S
C783 C782 1.369 . S
C784 C776 1.457 . S
C784 C785 1.372 . S
C784 C789 1.364 . S
C785 H764 0.952 . S
C785 C784 1.372 . S
C785 C786 1.389 . S
C786 H765 0.949 . S
C786 C785 1.389 . S
C786 C787 1.387 . S
C787 C786 1.387 . S
C787 C788 1.372 . S
C788 H766 0.950 . S
C788 C787 1.372 . S
C788 C789 1.379 . S
C789 H767 0.948 . S
C789 C784 1.364 . S
C789 C788 1.379 . S
C790 C759 1.383 . S
C790 C777 1.479 . S
C790 C791 1.398 . S
C791 C756 1.382 . S
C791 H768 0.951 . S
C791 C790 1.398 . S
C792 C793 1.384 . S
C792 H805 0.947 . S
C792 C827 1.382 . S
C793 C792 1.384 . S
C793 C794 1.378 . S
C794 C793 1.378 . S
C794 C795 1.378 . S
C794 H806 0.952 . S
C795 C794 1.378 . S
C795 H807 0.950 . S
C795 C826 1.383 . S
H796 C815 0.947 . S
H797 C816 0.946 . S
H798 C818 0.953 . S
H799 C819 0.945 . S
H800 C821 0.952 . S
H801 C822 0.949 . S
H802 C824 0.950 . S
H803 C825 0.948 . S
H804 C827 0.951 . S
H805 C792 0.947 . S
H806 C794 0.952 . S
H807 C795 0.950 . S
N808 C811 1.382 . S
N808 C813 1.363 . S
N809 C811 1.371 . S
N809 C812 1.372 . S
N810 C812 1.361 . S
N810 C813 1.377 . S
C811 N808 1.382 . S
C811 N809 1.371 . S
C811 C814 1.480 . S
C812 N809 1.372 . S
C812 N810 1.361 . S
C812 C820 1.457 . S
C813 N808 1.363 . S
C813 N810 1.377 . S
C813 C826 1.479 . S
C814 C811 1.480 . S
C814 C815 1.383 . S
C814 C819 1.385 . S
C815 H796 0.947 . S
C815 C814 1.383 . S
C815 C816 1.388 . S
C816 H797 0.946 . S
C816 C815 1.388 . S
C816 C817 1.384 . S
C817 C816 1.384 . S
C817 C818 1.377 . S
C818 H798 0.953 . S
C818 C817 1.377 . S
C818 C819 1.369 . S
C819 H799 0.945 . S
C819 C814 1.385 . S
C819 C818 1.369 . S
C820 C812 1.457 . S
C820 C821 1.372 . S
C820 C825 1.364 . S
C821 H800 0.952 . S
C821 C820 1.372 . S
C821 C822 1.389 . S
C822 H801 0.949 . S
C822 C821 1.389 . S
C822 C823 1.387 . S
C823 C822 1.387 . S
C823 C824 1.372 . S
C824 H802 0.950 . S
C824 C823 1.372 . S
C824 C825 1.379 . S
C825 H803 0.948 . S
C825 C820 1.364 . S
C825 C824 1.379 . S
C826 C795 1.383 . S
C826 C813 1.479 . S
C826 C827 1.398 . S
C827 C792 1.382 . S
C827 H804 0.951 . S
C827 C826 1.398 . S
C828 C829 1.384 . S
C828 H841 0.947 . S
C828 C863 1.382 . S
C829 C828 1.384 . S
C829 C830 1.378 . S
C830 C829 1.378 . S
C830 C831 1.378 . S
C830 H842 0.952 . S
C831 C830 1.378 . S
C831 H843 0.950 . S
C831 C862 1.383 . S
H832 C851 0.947 . S
H833 C852 0.946 . S
H834 C854 0.953 . S
H835 C855 0.945 . S
H836 C857 0.952 . S
H837 C858 0.949 . S
H838 C860 0.950 . S
H839 C861 0.948 . S
H840 C863 0.951 . S
H841 C828 0.947 . S
H842 C830 0.952 . S
H843 C831 0.950 . S
N844 C847 1.382 . S
N844 C849 1.363 . S
N845 C847 1.371 . S
N845 C848 1.372 . S
N846 C848 1.361 . S
N846 C849 1.377 . S
C847 N844 1.382 . S
C847 N845 1.371 . S
C847 C850 1.480 . S
C848 N845 1.372 . S
C848 N846 1.361 . S
C848 C856 1.457 . S
C849 N844 1.363 . S
C849 N846 1.377 . S
C849 C862 1.479 . S
C850 C847 1.480 . S
C850 C851 1.383 . S
C850 C855 1.385 . S
C851 H832 0.947 . S
C851 C850 1.383 . S
C851 C852 1.388 . S
C852 H833 0.946 . S
C852 C851 1.388 . S
C852 C853 1.384 . S
C853 C852 1.384 . S
C853 C854 1.377 . S
C854 H834 0.953 . S
C854 C853 1.377 . S
C854 C855 1.369 . S
C855 H835 0.945 . S
C855 C850 1.385 . S
C855 C854 1.369 . S
C856 C848 1.457 . S
C856 C857 1.372 . S
C856 C861 1.364 . S
C857 H836 0.952 . S
C857 C856 1.372 . S
C857 C858 1.389 . S
C858 H837 0.949 . S
C858 C857 1.389 . S
C858 C859 1.387 . S
C859 C858 1.387 . S
C859 C860 1.372 . S
C860 H838 0.950 . S
C860 C859 1.372 . S
C860 C861 1.379 . S
C861 H839 0.948 . S
C861 C856 1.364 . S
C861 C860 1.379 . S
C862 C831 1.383 . S
C862 C849 1.479 . S
C862 C863 1.398 . S
C863 C828 1.382 . S
C863 H840 0.951 . S
C863 C862 1.398 . S
C864 C865 1.384 . S
C864 H877 0.947 . S
C864 C899 1.382 . S
C865 C864 1.384 . S
C865 C866 1.378 . S
C866 C865 1.378 . S
C866 C867 1.378 . S
C866 H878 0.952 . S
C867 C866 1.378 . S
C867 H879 0.950 . S
C867 C898 1.383 . S
H868 C887 0.947 . S
H869 C888 0.946 . S
H870 C890 0.953 . S
H871 C891 0.945 . S
H872 C893 0.952 . S
H873 C894 0.949 . S
H874 C896 0.950 . S
H875 C897 0.948 . S
H876 C899 0.951 . S
H877 C864 0.947 . S
H878 C866 0.952 . S
H879 C867 0.950 . S
N880 C883 1.382 . S
N880 C885 1.363 . S
N881 C883 1.371 . S
N881 C884 1.372 . S
N882 C884 1.361 . S
N882 C885 1.377 . S
C883 N880 1.382 . S
C883 N881 1.371 . S
C883 C886 1.480 . S
C884 N881 1.372 . S
C884 N882 1.361 . S
C884 C892 1.457 . S
C885 N880 1.363 . S
C885 N882 1.377 . S
C885 C898 1.479 . S
C886 C883 1.480 . S
C886 C887 1.383 . S
C886 C891 1.385 . S
C887 H868 0.947 . S
C887 C886 1.383 . S
C887 C888 1.388 . S
C888 H869 0.946 . S
C888 C887 1.388 . S
C888 C889 1.384 . S
C889 C888 1.384 . S
C889 C890 1.377 . S
C890 H870 0.953 . S
C890 C889 1.377 . S
C890 C891 1.369 . S
C891 H871 0.945 . S
C891 C886 1.385 . S
C891 C890 1.369 . S
C892 C884 1.457 . S
C892 C893 1.372 . S
C892 C897 1.364 . S
C893 H872 0.952 . S
C893 C892 1.372 . S
C893 C894 1.389 . S
C894 H873 0.949 . S
C894 C893 1.389 . S
C894 C895 1.387 . S
C895 C894 1.387 . S
C895 C896 1.372 . S
C896 H874 0.950 . S
C896 C895 1.372 . S
C896 C897 1.379 . S
C897 H875 0.948 . S
C897 C892 1.364 . S
C897 C896 1.379 . S
C898 C867 1.383 . S
C898 C885 1.479 . S
C898 C899 1.398 . S
C899 C864 1.382 . S
C899 H876 0.951 . S
C899 C898 1.398 . S
C900 C901 1.384 . S
C900 H913 0.947 . S
C900 C935 1.382 . S
C901 C900 1.384 . S
C901 C902 1.378 . S
C902 C901 1.378 . S
C902 C903 1.378 . S
C902 H914 0.952 . S
C903 C902 1.378 . S
C903 H915 0.950 . S
C903 C934 1.383 . S
H904 C923 0.947 . S
H905 C924 0.946 . S
H906 C926 0.953 . S
H907 C927 0.945 . S
H908 C929 0.952 . S
H909 C930 0.949 . S
H910 C932 0.950 . S
H911 C933 0.948 . S
H912 C935 0.951 . S
H913 C900 0.947 . S
H914 C902 0.952 . S
H915 C903 0.950 . S
N916 C919 1.382 . S
N916 C921 1.363 . S
N917 C919 1.371 . S
N917 C920 1.372 . S
N918 C920 1.361 . S
N918 C921 1.377 . S
C919 N916 1.382 . S
C919 N917 1.371 . S
C919 C922 1.480 . S
C920 N917 1.372 . S
C920 N918 1.361 . S
C920 C928 1.457 . S
C921 N916 1.363 . S
C921 N918 1.377 . S
C921 C934 1.479 . S
C922 C919 1.480 . S
C922 C923 1.383 . S
C922 C927 1.385 . S
C923 H904 0.947 . S
C923 C922 1.383 . S
C923 C924 1.388 . S
C924 H905 0.946 . S
C924 C923 1.388 . S
C924 C925 1.384 . S
C925 C924 1.384 . S
C925 C926 1.377 . S
C926 H906 0.953 . S
C926 C925 1.377 . S
C926 C927 1.369 . S
C927 H907 0.945 . S
C927 C922 1.385 . S
C927 C926 1.369 . S
C928 C920 1.457 . S
C928 C929 1.372 . S
C928 C933 1.364 . S
C929 H908 0.952 . S
C929 C928 1.372 . S
C929 C930 1.389 . S
C930 H909 0.949 . S
C930 C929 1.389 . S
C930 C931 1.387 . S
C931 C930 1.387 . S
C931 C932 1.372 . S
C932 H910 0.950 . S
C932 C931 1.372 . S
C932 C933 1.379 . S
C933 H911 0.948 . S
C933 C928 1.364 . S
C933 C932 1.379 . S
C934 C903 1.383 . S
C934 C921 1.479 . S
C934 C935 1.398 . S
C935 C900 1.382 . S
C935 H912 0.951 . S
C935 C934 1.398 . S
C936 C937 1.384 . S
C936 H949 0.947 . S
C936 C971 1.382 . S
C937 C936 1.384 . S
C937 C938 1.378 . S
C938 C937 1.378 . S
C938 C939 1.378 . S
C938 H950 0.952 . S
C939 C938 1.378 . S
C939 H951 0.950 . S
C939 C970 1.383 . S
H940 C959 0.947 . S
H941 C960 0.946 . S
H942 C962 0.953 . S
H943 C963 0.945 . S
H944 C965 0.952 . S
H945 C966 0.949 . S
H946 C968 0.950 . S
H947 C969 0.948 . S
H948 C971 0.951 . S
H949 C936 0.947 . S
H950 C938 0.952 . S
H951 C939 0.950 . S
N952 C955 1.382 . S
N952 C957 1.363 . S
N953 C955 1.371 . S
N953 C956 1.372 . S
N954 C956 1.361 . S
N954 C957 1.377 . S
C955 N952 1.382 . S
C955 N953 1.371 . S
C955 C958 1.480 . S
C956 N953 1.372 . S
C956 N954 1.361 . S
C956 C964 1.457 . S
C957 N952 1.363 . S
C957 N954 1.377 . S
C957 C970 1.479 . S
C958 C955 1.480 . S
C958 C959 1.383 . S
C958 C963 1.385 . S
C959 H940 0.947 . S
C959 C958 1.383 . S
C959 C960 1.388 . S
C960 H941 0.946 . S
C960 C959 1.388 . S
C960 C961 1.384 . S
C961 C960 1.384 . S
C961 C962 1.377 . S
C962 H942 0.953 . S
C962 C961 1.377 . S
C962 C963 1.369 . S
C963 H943 0.945 . S
C963 C958 1.385 . S
C963 C962 1.369 . S
C964 C956 1.457 . S
C964 C965 1.372 . S
C964 C969 1.364 . S
C965 H944 0.952 . S
C965 C964 1.372 . S
C965 C966 1.389 . S
C966 H945 0.949 . S
C966 C965 1.389 . S
C966 C967 1.387 . S
C967 C966 1.387 . S
C967 C968 1.372 . S
C968 H946 0.950 . S
C968 C967 1.372 . S
C968 C969 1.379 . S
C969 H947 0.948 . S
C969 C964 1.364 . S
C969 C968 1.379 . S
C970 C939 1.383 . S
C970 C957 1.479 . S
C970 C971 1.398 . S
C971 C936 1.382 . S
C971 H948 0.951 . S
C971 C970 1.398 . S
C972 C973 1.384 . S
C972 H985 0.947 . S
C972 C1007 1.382 . S
C973 C972 1.384 . S
C973 C974 1.378 . S
C974 C973 1.378 . S
C974 C975 1.378 . S
C974 H986 0.952 . S
C975 C974 1.378 . S
C975 H987 0.950 . S
C975 C1006 1.383 . S
H976 C995 0.947 . S
H977 C996 0.946 . S
H978 C998 0.953 . S
H979 C999 0.945 . S
H980 C1001 0.952 . S
H981 C1002 0.949 . S
H982 C1004 0.950 . S
H983 C1005 0.948 . S
H984 C1007 0.951 . S
H985 C972 0.947 . S
H986 C974 0.952 . S
H987 C975 0.950 . S
N988 C991 1.382 . S
N988 C993 1.363 . S
N989 C991 1.371 . S
N989 C992 1.372 . S
N990 C992 1.361 . S
N990 C993 1.377 . S
C991 N988 1.382 . S
C991 N989 1.371 . S
C991 C994 1.480 . S
C992 N989 1.372 . S
C992 N990 1.361 . S
C992 C1000 1.457 . S
C993 N988 1.363 . S
C993 N990 1.377 . S
C993 C1006 1.479 . S
C994 C991 1.480 . S
C994 C995 1.383 . S
C994 C999 1.385 . S
C995 H976 0.947 . S
C995 C994 1.383 . S
C995 C996 1.388 . S
C996 H977 0.946 . S
C996 C995 1.388 . S
C996 C997 1.384 . S
C997 C996 1.384 . S
C997 C998 1.377 . S
C998 H978 0.953 . S
C998 C997 1.377 . S
C998 C999 1.369 . S
C999 H979 0.945 . S
C999 C994 1.385 . S
C999 C998 1.369 . S
C1000 C992 1.457 . S
C1000 C1001 1.372 . S
C1000 C1005 1.364 . S
C1001 H980 0.952 . S
C1001 C1000 1.372 . S
C1001 C1002 1.389 . S
C1002 H981 0.949 . S
C1002 C1001 1.389 . S
C1002 C1003 1.387 . S
C1003 C1002 1.387 . S
C1003 C1004 1.372 . S
C1004 H982 0.950 . S
C1004 C1003 1.372 . S
C1004 C1005 1.379 . S
C1005 H983 0.948 . S
C1005 C1000 1.364 . S
C1005 C1004 1.379 . S
C1006 C975 1.383 . S
C1006 C993 1.479 . S
C1006 C1007 1.398 . S
C1007 C972 1.382 . S
C1007 H984 0.951 . S
C1007 C1006 1.398 . S
C1008 C1009 1.384 . S
C1008 H1021 0.947 . S
C1008 C1043 1.382 . S
C1009 C1008 1.384 . S
C1009 C1010 1.378 . S
C1010 C1009 1.378 . S
C1010 C1011 1.378 . S
C1010 H1022 0.952 . S
C1011 C1010 1.378 . S
C1011 H1023 0.950 . S
C1011 C1042 1.383 . S
H1012 C1031 0.947 . S
H1013 C1032 0.946 . S
H1014 C1034 0.953 . S
H1015 C1035 0.945 . S
H1016 C1037 0.952 . S
H1017 C1038 0.949 . S
H1018 C1040 0.950 . S
H1019 C1041 0.948 . S
H1020 C1043 0.951 . S
H1021 C1008 0.947 . S
H1022 C1010 0.952 . S
H1023 C1011 0.950 . S
N1024 C1027 1.382 . S
N1024 C1029 1.363 . S
N1025 C1027 1.371 . S
N1025 C1028 1.372 . S
N1026 C1028 1.361 . S
N1026 C1029 1.377 . S
C1027 N1024 1.382 . S
C1027 N1025 1.371 . S
C1027 C1030 1.480 . S
C1028 N1025 1.372 . S
C1028 N1026 1.361 . S
C1028 C1036 1.457 . S
C1029 N1024 1.363 . S
C1029 N1026 1.377 . S
C1029 C1042 1.479 . S
C1030 C1027 1.480 . S
C1030 C1031 1.383 . S
C1030 C1035 1.385 . S
C1031 H1012 0.947 . S
C1031 C1030 1.383 . S
C1031 C1032 1.388 . S
C1032 H1013 0.946 . S
C1032 C1031 1.388 . S
C1032 C1033 1.384 . S
C1033 C1032 1.384 . S
C1033 C1034 1.377 . S
C1034 H1014 0.953 . S
C1034 C1033 1.377 . S
C1034 C1035 1.369 . S
C1035 H1015 0.945 . S
C1035 C1030 1.385 . S
C1035 C1034 1.369 . S
C1036 C1028 1.457 . S
C1036 C1037 1.372 . S
C1036 C1041 1.364 . S
C1037 H1016 0.952 . S
C1037 C1036 1.372 . S
C1037 C1038 1.389 . S
C1038 H1017 0.949 . S
C1038 C1037 1.389 . S
C1038 C1039 1.387 . S
C1039 C1038 1.387 . S
C1039 C1040 1.372 . S
C1040 H1018 0.950 . S
C1040 C1039 1.372 . S
C1040 C1041 1.379 . S
C1041 H1019 0.948 . S
C1041 C1036 1.364 . S
C1041 C1040 1.379 . S
C1042 C1011 1.383 . S
C1042 C1029 1.479 . S
C1042 C1043 1.398 . S
C1043 C1008 1.382 . S
C1043 H1020 0.951 . S
C1043 C1042 1.398 . S
C1044 C1045 1.384 . S
C1044 H1057 0.947 . S
C1044 C1079 1.382 . S
C1045 C1044 1.384 . S
C1045 C1046 1.378 . S
C1046 C1045 1.378 . S
C1046 C1047 1.378 . S
C1046 H1058 0.952 . S
C1047 C1046 1.378 . S
C1047 H1059 0.950 . S
C1047 C1078 1.383 . S
H1048 C1067 0.947 . S
H1049 C1068 0.946 . S
H1050 C1070 0.953 . S
H1051 C1071 0.945 . S
H1052 C1073 0.952 . S
H1053 C1074 0.949 . S
H1054 C1076 0.950 . S
H1055 C1077 0.948 . S
H1056 C1079 0.951 . S
H1057 C1044 0.947 . S
H1058 C1046 0.952 . S
H1059 C1047 0.950 . S
N1060 C1063 1.382 . S
N1060 C1065 1.363 . S
N1061 C1063 1.371 . S
N1061 C1064 1.372 . S
N1062 C1064 1.361 . S
N1062 C1065 1.377 . S
C1063 N1060 1.382 . S
C1063 N1061 1.371 . S
C1063 C1066 1.480 . S
C1064 N1061 1.372 . S
C1064 N1062 1.361 . S
C1064 C1072 1.457 . S
C1065 N1060 1.363 . S
C1065 N1062 1.377 . S
C1065 C1078 1.479 . S
C1066 C1063 1.480 . S
C1066 C1067 1.383 . S
C1066 C1071 1.385 . S
C1067 H1048 0.947 . S
C1067 C1066 1.383 . S
C1067 C1068 1.388 . S
C1068 H1049 0.946 . S
C1068 C1067 1.388 . S
C1068 C1069 1.384 . S
C1069 C1068 1.384 . S
C1069 C1070 1.377 . S
C1070 H1050 0.953 . S
C1070 C1069 1.377 . S
C1070 C1071 1.369 . S
C1071 H1051 0.945 . S
C1071 C1066 1.385 . S
C1071 C1070 1.369 . S
C1072 C1064 1.457 . S
C1072 C1073 1.372 . S
C1072 C1077 1.364 . S
C1073 H1052 0.952 . S
C1073 C1072 1.372 . S
C1073 C1074 1.389 . S
C1074 H1053 0.949 . S
C1074 C1073 1.389 . S
C1074 C1075 1.387 . S
C1075 C1074 1.387 . S
C1075 C1076 1.372 . S
C1076 H1054 0.950 . S
C1076 C1075 1.372 . S
C1076 C1077 1.379 . S
C1077 H1055 0.948 . S
C1077 C1072 1.364 . S
C1077 C1076 1.379 . S
C1078 C1047 1.383 . S
C1078 C1065 1.479 . S
C1078 C1079 1.398 . S
C1079 C1044 1.382 . S
C1079 H1056 0.951 . S
C1079 C1078 1.398 . S
C1080 C1081 1.384 . S
C1080 H1093 0.947 . S
C1080 C1115 1.382 . S
C1081 C1080 1.384 . S
C1081 C1082 1.378 . S
C1082 C1081 1.378 . S
C1082 C1083 1.378 . S
C1082 H1094 0.952 . S
C1083 C1082 1.378 . S
C1083 H1095 0.950 . S
C1083 C1114 1.383 . S
H1084 C1103 0.947 . S
H1085 C1104 0.946 . S
H1086 C1106 0.953 . S
H1087 C1107 0.945 . S
H1088 C1109 0.952 . S
H1089 C1110 0.949 . S
H1090 C1112 0.950 . S
H1091 C1113 0.948 . S
H1092 C1115 0.951 . S
H1093 C1080 0.947 . S
H1094 C1082 0.952 . S
H1095 C1083 0.950 . S
N1096 C1099 1.382 . S
N1096 C1101 1.363 . S
N1097 C1099 1.371 . S
N1097 C1100 1.372 . S
N1098 C1100 1.361 . S
N1098 C1101 1.377 . S
C1099 N1096 1.382 . S
C1099 N1097 1.371 . S
C1099 C1102 1.480 . S
C1100 N1097 1.372 . S
C1100 N1098 1.361 . S
C1100 C1108 1.457 . S
C1101 N1096 1.363 . S
C1101 N1098 1.377 . S
C1101 C1114 1.479 . S
C1102 C1099 1.480 . S
C1102 C1103 1.383 . S
C1102 C1107 1.385 . S
C1103 H1084 0.947 . S
C1103 C1102 1.383 . S
C1103 C1104 1.388 . S
C1104 H1085 0.946 . S
C1104 C1103 1.388 . S
C1104 C1105 1.384 . S
C1105 C1104 1.384 . S
C1105 C1106 1.377 . S
C1106 H1086 0.953 . S
C1106 C1105 1.377 . S
C1106 C1107 1.369 . S
C1107 H1087 0.945 . S
C1107 C1102 1.385 . S
C1107 C1106 1.369 . S
C1108 C1100 1.457 . S
C1108 C1109 1.372 . S
C1108 C1113 1.364 . S
C1109 H1088 0.952 . S
C1109 C1108 1.372 . S
C1109 C1110 1.389 . S
C1110 H1089 0.949 . S
C1110 C1109 1.389 . S
C1110 C1111 1.387 . S
C1111 C1110 1.387 . S
C1111 C1112 1.372 . S
C1112 H1090 0.950 . S
C1112 C1111 1.372 . S
C1112 C1113 1.379 . S
C1113 H1091 0.948 . S
C1113 C1108 1.364 . S
C1113 C1112 1.379 . S
C1114 C1083 1.383 . S
C1114 C1101 1.479 . S
C1114 C1115 1.398 . S
C1115 C1080 1.382 . S
C1115 H1092 0.951 . S
C1115 C1114 1.398 . S
C1116 C1117 1.384 . S
C1116 H1129 0.947 . S
C1116 C1151 1.382 . S
C1117 C1116 1.384 . S
C1117 C1118 1.378 . S
C1118 C1117 1.378 . S
C1118 C1119 1.378 . S
C1118 H1130 0.952 . S
C1119 C1118 1.378 . S
C1119 H1131 0.950 . S
C1119 C1150 1.383 . S
H1120 C1139 0.947 . S
H1121 C1140 0.946 . S
H1122 C1142 0.953 . S
H1123 C1143 0.945 . S
H1124 C1145 0.952 . S
H1125 C1146 0.949 . S
H1126 C1148 0.950 . S
H1127 C1149 0.948 . S
H1128 C1151 0.951 . S
H1129 C1116 0.947 . S
H1130 C1118 0.952 . S
H1131 C1119 0.950 . S
N1132 C1135 1.382 . S
N1132 C1137 1.363 . S
N1133 C1135 1.371 . S
N1133 C1136 1.372 . S
N1134 C1136 1.361 . S
N1134 C1137 1.377 . S
C1135 N1132 1.382 . S
C1135 N1133 1.371 . S
C1135 C1138 1.480 . S
C1136 N1133 1.372 . S
C1136 N1134 1.361 . S
C1136 C1144 1.457 . S
C1137 N1132 1.363 . S
C1137 N1134 1.377 . S
C1137 C1150 1.479 . S
C1138 C1135 1.480 . S
C1138 C1139 1.383 . S
C1138 C1143 1.385 . S
C1139 H1120 0.947 . S
C1139 C1138 1.383 . S
C1139 C1140 1.388 . S
C1140 H1121 0.946 . S
C1140 C1139 1.388 . S
C1140 C1141 1.384 . S
C1141 C1140 1.384 . S
C1141 C1142 1.377 . S
C1142 H1122 0.953 . S
C1142 C1141 1.377 . S
C1142 C1143 1.369 . S
C1143 H1123 0.945 . S
C1143 C1138 1.385 . S
C1143 C1142 1.369 . S
C1144 C1136 1.457 . S
C1144 C1145 1.372 . S
C1144 C1149 1.364 . S
C1145 H1124 0.952 . S
C1145 C1144 1.372 . S
C1145 C1146 1.389 . S
C1146 H1125 0.949 . S
C1146 C1145 1.389 . S
C1146 C1147 1.387 . S
C1147 C1146 1.387 . S
C1147 C1148 1.372 . S
C1148 H1126 0.950 . S
C1148 C1147 1.372 . S
C1148 C1149 1.379 . S
C1149 H1127 0.948 . S
C1149 C1144 1.364 . S
C1149 C1148 1.379 . S
C1150 C1119 1.383 . S
C1150 C1137 1.479 . S
C1150 C1151 1.398 . S
C1151 C1116 1.382 . S
C1151 H1128 0.951 . S
C1151 C1150 1.398 . S
Cu1152 N1153 1.999 . S
Cu1152 O1158 1.974 1_554 S
Cu1152 N1163 1.985 . S
Cu1152 O1172 1.959 . S
N1153 Cu1152 1.999 . S
N1153 C1155 1.263 1_554 S
N1153 C1157 1.389 . S
N1154 C1155 1.358 . S
N1154 C1156 1.400 . S
C1155 N1153 1.263 1_556 S
C1155 N1154 1.358 . S
C1155 H1161 0.930 . S
C1156 N1154 1.400 . S
C1156 C1157 1.351 1_556 S
C1156 H1173 0.930 . S
C1157 N1153 1.389 . S
C1157 C1156 1.351 1_554 S
C1157 H1162 0.930 . S
O1158 Cu1152 1.974 1_556 S
O1158 C1168 1.282 . S
C1159 O1160 1.261 . S
C1159 O1172 1.251 . S
O1160 C1159 1.261 . S
H1161 C1155 0.930 . S
H1162 C1157 0.930 . S
N1163 Cu1152 1.985 . S
N1163 C1165 1.335 . S
N1163 C1166 1.390 . S
N1164 C1165 1.345 . S
N1164 C1167 1.336 . S
C1165 N1163 1.335 . S
C1165 N1164 1.345 . S
C1165 H1170 0.930 . S
C1166 N1163 1.390 . S
C1166 C1167 1.346 . S
C1166 H1171 0.930 . S
C1167 N1164 1.336 . S
C1167 C1166 1.346 . S
C1167 H1174 0.929 . S
C1168 O1158 1.282 . S
C1168 O1169 1.216 . S
O1169 C1168 1.216 . S
H1170 C1165 0.930 . S
H1171 C1166 0.930 . S
O1172 Cu1152 1.959 . S
O1172 C1159 1.251 . S
H1173 C1156 0.930 . S
H1174 C1167 0.929 . S
Cu1175 N1176 1.999 . S
Cu1175 O1181 1.974 . S
Cu1175 N1186 1.985 1_554 S
Cu1175 O1195 1.959 1_554 S
N1176 Cu1175 1.999 . S
N1176 C1178 1.263 . S
N1176 C1180 1.389 . S
N1177 C1178 1.358 . S
N1177 C1179 1.400 . S
C1178 N1176 1.263 . S
C1178 N1177 1.358 . S
C1178 H1184 0.930 . S
C1179 N1177 1.400 . S
C1179 C1180 1.351 . S
C1179 H1196 0.930 . S
C1180 N1176 1.389 . S
C1180 C1179 1.351 . S
C1180 H1185 0.930 . S
O1181 Cu1175 1.974 . S
O1181 C1191 1.282 . S
C1182 O1183 1.261 . S
C1182 O1195 1.251 . S
O1183 C1182 1.261 . S
H1184 C1178 0.930 . S
H1185 C1180 0.930 . S
N1186 Cu1175 1.985 1_556 S
N1186 C1188 1.335 . S
N1186 C1189 1.390 . S
N1187 C1188 1.345 . S
N1187 C1190 1.336 . S
C1188 N1186 1.335 . S
C1188 N1187 1.345 . S
C1188 H1193 0.930 . S
C1189 N1186 1.390 . S
C1189 C1190 1.346 . S
C1189 H1194 0.930 1_556 S
C1190 N1187 1.336 . S
C1190 C1189 1.346 . S
C1190 H1197 0.929 . S
C1191 O1181 1.282 . S
C1191 O1192 1.216 . S
O1192 C1191 1.216 . S
H1193 C1188 0.930 . S
H1194 C1189 0.930 1_554 S
O1195 Cu1175 1.959 1_556 S
O1195 C1182 1.251 . S
H1196 C1179 0.930 . S
H1197 C1190 0.929 . S
Cu1198 N1199 1.999 1_554 S
Cu1198 O1204 1.974 1_554 S
Cu1198 N1209 1.985 . S
Cu1198 O1218 1.959 . S
N1199 Cu1198 1.999 1_556 S
N1199 C1201 1.263 . S
N1199 C1203 1.389 . S
N1200 C1201 1.358 . S
N1200 C1202 1.400 . S
C1201 N1199 1.263 . S
C1201 N1200 1.358 . S
C1201 H1207 0.930 . S
C1202 N1200 1.400 . S
C1202 C1203 1.351 . S
C1202 H1219 0.930 . S
C1203 N1199 1.389 . S
C1203 C1202 1.351 . S
C1203 H1208 0.961 . S
O1204 Cu1198 1.974 1_556 S
O1204 C1214 1.282 . S
C1205 O1206 1.261 . S
C1205 O1218 1.251 . S
O1206 C1205 1.261 . S
H1207 C1201 0.930 . S
H1208 C1203 0.961 . S
N1209 Cu1198 1.985 . S
N1209 C1211 1.335 . S
N1209 C1212 1.390 . S
N1210 C1211 1.345 . S
N1210 C1213 1.336 . S
C1211 N1209 1.335 . S
C1211 N1210 1.345 . S
C1211 H1216 0.930 . S
C1212 N1209 1.390 . S
C1212 C1213 1.346 . S
C1212 H1217 0.936 . S
C1213 N1210 1.336 . S
C1213 C1212 1.346 . S
C1213 H1220 0.929 . S
C1214 O1204 1.282 . S
C1214 O1215 1.216 . S
O1215 C1214 1.216 . S
H1216 C1211 0.930 . S
H1217 C1212 0.936 . S
O1218 Cu1198 1.959 . S
O1218 C1205 1.251 . S
H1219 C1202 0.930 . S
H1220 C1213 0.929 . S
Cu1221 N1222 2.004 . S
Cu1221 O1227 1.980 . S
Cu1221 N1232 1.980 1_554 S
Cu1221 O1241 1.953 1_554 S
N1222 Cu1221 2.004 . S
N1222 C1224 1.263 . S
N1222 C1226 1.389 . S
N1223 C1224 1.358 . S
N1223 C1225 1.400 . S
C1224 N1222 1.263 . S
C1224 N1223 1.358 . S
C1224 H1230 0.930 . S
C1225 N1223 1.400 . S
C1225 C1226 1.351 . S
C1225 H1242 0.930 . S
C1226 N1222 1.389 . S
C1226 C1225 1.351 . S
C1226 H1231 0.930 . S
O1227 Cu1221 1.980 . S
O1227 C1237 1.282 . S
C1228 O1229 1.261 . S
C1228 O1241 1.251 . S
O1229 C1228 1.261 . S
H1230 C1224 0.930 . S
H1231 C1226 0.930 . S
N1232 Cu1221 1.980 1_556 S
N1232 C1234 1.335 . S
N1232 C1235 1.390 . S
N1233 C1234 1.345 . S
N1233 C1236 1.336 . S
C1234 N1232 1.335 . S
C1234 N1233 1.345 . S
C1234 H1239 0.930 . S
C1235 N1232 1.390 . S
C1235 C1236 1.346 . S
C1235 H1240 0.877 1_556 S
C1236 N1233 1.336 . S
C1236 C1235 1.346 . S
C1236 H1243 0.929 . S
C1237 O1227 1.282 . S
C1237 O1238 1.216 . S
O1238 C1237 1.216 . S
H1239 C1234 0.930 . S
H1240 C1235 0.877 1_554 S
O1241 Cu1221 1.953 1_556 S
O1241 C1228 1.251 . S
H1242 C1225 0.930 . S
H1243 C1236 0.929 . S
Cu1244 N1245 1.999 . S
Cu1244 O1250 1.974 . S
Cu1244 N1255 1.985 1_455 S
Cu1244 O1264 1.959 1_455 S
N1245 Cu1244 1.999 . S
N1245 C1247 1.263 . S
N1245 C1249 1.389 . S
N1246 C1247 1.358 . S
N1246 C1248 1.400 . S
C1247 N1245 1.263 . S
C1247 N1246 1.358 . S
C1247 H1253 0.930 . S
C1248 N1246 1.400 . S
C1248 C1249 1.351 . S
C1248 H1265 0.930 . S
C1249 N1245 1.389 . S
C1249 C1248 1.351 . S
C1249 H1254 0.930 . S
O1250 Cu1244 1.974 . S
O1250 C1260 1.282 . S
C1251 O1252 1.261 . S
C1251 O1264 1.251 . S
O1252 C1251 1.261 . S
H1253 C1247 0.930 . S
H1254 C1249 0.930 . S
N1255 Cu1244 1.985 1_655 S
N1255 C1257 1.335 . S
N1255 C1258 1.390 1_655 S
N1256 C1257 1.345 . S
N1256 C1259 1.336 . S
C1257 N1255 1.335 . S
C1257 N1256 1.345 . S
C1257 H1262 0.930 . S
C1258 N1255 1.390 1_455 S
C1258 C1259 1.346 1_455 S
C1258 H1263 0.930 . S
C1259 N1256 1.336 . S
C1259 C1258 1.346 1_655 S
C1259 H1266 0.929 . S
C1260 O1250 1.282 . S
C1260 O1261 1.216 . S
O1261 C1260 1.216 . S
H1262 C1257 0.930 . S
H1263 C1258 0.930 . S
O1264 Cu1244 1.959 1_655 S
O1264 C1251 1.251 . S
H1265 C1248 0.930 . S
H1266 C1259 0.929 . S
Cu1267 N1268 1.999 . S
Cu1267 O1273 1.974 . S
Cu1267 N1278 1.985 1_545 S
Cu1267 O1287 1.959 1_545 S
N1268 Cu1267 1.999 . S
N1268 C1270 1.263 . S
N1268 C1272 1.389 . S
N1269 C1270 1.358 . S
N1269 C1271 1.400 . S
C1270 N1268 1.263 . S
C1270 N1269 1.358 . S
C1270 H1276 0.930 . S
C1271 N1269 1.400 . S
C1271 C1272 1.351 . S
C1271 H1288 0.930 . S
C1272 N1268 1.389 . S
C1272 C1271 1.351 . S
C1272 H1277 0.930 . S
O1273 Cu1267 1.974 . S
O1273 C1283 1.282 . S
C1274 O1275 1.261 . S
C1274 O1287 1.251 . S
O1275 C1274 1.261 . S
H1276 C1270 0.930 . S
H1277 C1272 0.930 . S
N1278 Cu1267 1.985 1_565 S
N1278 C1280 1.335 . S
N1278 C1281 1.390 . S
N1279 C1280 1.345 . S
N1279 C1282 1.336 . S
C1280 N1278 1.335 . S
C1280 N1279 1.345 . S
C1280 H1285 0.930 . S
C1281 N1278 1.390 . S
C1281 C1282 1.346 . S
C1281 H1286 0.930 1_565 S
C1282 N1279 1.336 . S
C1282 C1281 1.346 . S
C1282 H1289 0.929 . S
C1283 O1273 1.282 . S
C1283 O1284 1.216 . S
O1284 C1283 1.216 . S
H1285 C1280 0.930 . S
H1286 C1281 0.930 1_545 S
O1287 Cu1267 1.959 1_565 S
O1287 C1274 1.251 . S
H1288 C1271 0.930 . S
H1289 C1282 0.929 . S
Cu1290 N1291 2.001 . S
Cu1290 O1296 1.975 . S
Cu1290 N1301 1.984 1_655 S
Cu1290 O1310 1.958 1_655 S
N1291 Cu1290 2.001 . S
N1291 C1293 1.263 . S
N1291 C1295 1.389 . S
N1292 C1293 1.358 . S
N1292 C1294 1.400 . S
C1293 N1291 1.263 . S
C1293 N1292 1.358 . S
C1293 H1299 0.930 . S
C1294 N1292 1.400 . S
C1294 C1295 1.351 . S
C1294 H1311 0.930 . S
C1295 N1291 1.389 . S
C1295 C1294 1.351 . S
C1295 H1300 0.930 . S
O1296 Cu1290 1.975 . S
O1296 C1306 1.282 . S
C1297 O1298 1.261 . S
C1297 O1310 1.251 . S
O1298 C1297 1.261 . S
H1299 C1293 0.930 . S
H1300 C1295 0.930 . S
N1301 Cu1290 1.984 1_455 S
N1301 C1303 1.335 . S
N1301 C1304 1.390 . S
N1302 C1303 1.345 . S
N1302 C1305 1.336 . S
C1303 N1301 1.335 . S
C1303 N1302 1.345 . S
C1303 H1308 0.930 . S
C1304 N1301 1.390 . S
C1304 C1305 1.346 . S
C1304 H1309 0.930 . S
C1305 N1302 1.336 . S
C1305 C1304 1.346 . S
C1305 H1312 0.929 . S
C1306 O1296 1.282 . S
C1306 O1307 1.216 . S
O1307 C1306 1.216 . S
H1308 C1303 0.930 . S
H1309 C1304 0.930 . S
O1310 Cu1290 1.958 1_455 S
O1310 C1297 1.251 . S
H1311 C1294 0.930 . S
H1312 C1305 0.929 . S
Cu1313 N1314 1.984 1_565 S
Cu1313 O1319 1.955 1_565 S
Cu1313 N1324 1.999 . S
Cu1313 O1333 1.978 . S
N1314 Cu1313 1.984 1_545 S
N1314 C1316 1.263 . S
N1314 C1318 1.389 . S
N1315 C1316 1.358 . S
N1315 C1317 1.400 . S
C1316 N1314 1.263 . S
C1316 N1315 1.358 . S
C1316 H1322 0.930 . S
C1317 N1315 1.400 . S
C1317 C1318 1.351 . S
C1317 H1334 0.930 . S
C1318 N1314 1.389 . S
C1318 C1317 1.351 . S
C1318 H1323 0.930 . S
O1319 Cu1313 1.955 1_545 S
O1319 C1329 1.282 . S
C1320 O1321 1.261 . S
C1320 O1333 1.251 . S
O1321 C1320 1.261 . S
H1322 C1316 0.930 . S
H1323 C1318 0.930 . S
N1324 Cu1313 1.999 . S
N1324 C1326 1.335 . S
N1324 C1327 1.390 . S
N1325 C1326 1.345 . S
N1325 C1328 1.336 . S
C1326 N1324 1.335 . S
C1326 N1325 1.345 . S
C1326 H1331 0.930 . S
C1327 N1324 1.390 . S
C1327 C1328 1.346 . S
C1327 H1332 0.930 . S
C1328 N1325 1.336 . S
C1328 C1327 1.346 . S
C1328 H1335 0.929 . S
C1329 O1319 1.282 . S
C1329 O1330 1.216 . S
O1330 C1329 1.216 . S
H1331 C1326 0.930 . S
H1332 C1327 0.930 . S
O1333 Cu1313 1.978 . S
O1333 C1320 1.251 . S
H1334 C1317 0.930 . S
H1335 C1328 0.929 . S
Cu1336 N1337 1.999 . S
Cu1336 O1342 1.974 . S
Cu1336 N1347 1.985 1_455 S
Cu1336 O1356 1.959 1_455 S
N1337 Cu1336 1.999 . S
N1337 C1339 1.263 . S
N1337 C1341 1.389 . S
N1338 C1339 1.358 . S
N1338 C1340 1.400 . S
C1339 N1337 1.263 . S
C1339 N1338 1.358 . S
C1339 H1345 0.930 . S
C1340 N1338 1.400 . S
C1340 C1341 1.351 . S
C1340 H1357 0.930 . S
C1341 N1337 1.389 . S
C1341 C1340 1.351 . S
C1341 H1346 0.930 . S
O1342 Cu1336 1.974 . S
O1342 C1352 1.282 . S
C1343 O1344 1.261 . S
C1343 O1356 1.251 . S
O1344 C1343 1.261 . S
H1345 C1339 0.930 . S
H1346 C1341 0.930 . S
N1347 Cu1336 1.985 1_655 S
N1347 C1349 1.335 . S
N1347 C1350 1.386 1_655 S
N1348 C1349 1.345 . S
N1348 C1351 1.336 . S
C1349 N1347 1.335 . S
C1349 N1348 1.345 . S
C1349 H1354 0.930 . S
C1350 N1347 1.386 1_455 S
C1350 C1351 1.330 1_455 S
C1350 H1355 0.947 . S
C1351 N1348 1.336 . S
C1351 C1350 1.330 1_655 S
C1351 H1358 0.929 . S
C1352 O1342 1.282 . S
C1352 O1353 1.216 . S
O1353 C1352 1.216 . S
H1354 C1349 0.930 . S
H1355 C1350 0.947 . S
O1356 Cu1336 1.959 1_655 S
O1356 C1343 1.251 . S
H1357 C1340 0.930 . S
H1358 C1351 0.929 . S
Cu1359 N1360 1.999 . S
Cu1359 O1365 1.974 . S
Cu1359 N1370 1.985 1_545 S
Cu1359 O1379 1.959 1_545 S
N1360 Cu1359 1.999 . S
N1360 C1362 1.263 . S
N1360 C1364 1.389 . S
N1361 C1362 1.358 . S
N1361 C1363 1.400 . S
C1362 N1360 1.263 . S
C1362 N1361 1.358 . S
C1362 H1368 0.930 . S
C1363 N1361 1.400 . S
C1363 C1364 1.351 . S
C1363 H1380 0.930 . S
C1364 N1360 1.389 . S
C1364 C1363 1.351 . S
C1364 H1369 0.930 . S
O1365 Cu1359 1.974 . S
O1365 C1375 1.282 . S
C1366 O1367 1.261 . S
C1366 O1379 1.251 . S
O1367 C1366 1.261 . S
H1368 C1362 0.930 . S
H1369 C1364 0.930 . S
N1370 Cu1359 1.985 1_565 S
N1370 C1372 1.335 . S
N1370 C1373 1.390 1_565 S
N1371 C1372 1.345 . S
N1371 C1374 1.336 . S
C1372 N1370 1.335 . S
C1372 N1371 1.345 . S
C1372 H1377 0.930 . S
C1373 N1370 1.390 1_545 S
C1373 C1374 1.346 1_545 S
C1373 H1378 0.930 . S
C1374 N1371 1.336 . S
C1374 C1373 1.346 1_565 S
C1374 H1381 0.929 . S
C1375 O1365 1.282 . S
C1375 O1376 1.216 . S
O1376 C1375 1.216 . S
H1377 C1372 0.930 . S
H1378 C1373 0.930 . S
O1379 Cu1359 1.959 1_565 S
O1379 C1366 1.251 . S
H1380 C1363 0.930 . S
H1381 C1374 0.929 . S
Cu1382 N1383 1.999 . S
Cu1382 O1388 1.974 . S
Cu1382 N1393 1.985 . S
Cu1382 O1402 1.959 . S
N1383 Cu1382 1.999 . S
N1383 C1385 1.263 1_455 S
N1383 C1387 1.389 . S
N1384 C1385 1.358 . S
N1384 C1386 1.400 . S
C1385 N1383 1.263 1_655 S
C1385 N1384 1.358 . S
C1385 H1391 0.930 . S
C1386 N1384 1.400 . S
C1386 C1387 1.351 1_655 S
C1386 H1403 0.930 . S
C1387 N1383 1.389 . S
C1387 C1386 1.351 1_455 S
C1387 H1392 0.930 . S
O1388 Cu1382 1.974 . S
O1388 C1398 1.282 1_455 S
C1389 O1390 1.261 . S
C1389 O1402 1.251 . S
O1390 C1389 1.261 . S
H1391 C1385 0.930 . S
H1392 C1387 0.930 . S
N1393 Cu1382 1.985 . S
N1393 C1395 1.335 . S
N1393 C1396 1.390 . S
N1394 C1395 1.345 . S
N1394 C1397 1.336 . S
C1395 N1393 1.335 . S
C1395 N1394 1.345 . S
C1395 H1400 0.930 . S
C1396 N1393 1.390 . S
C1396 C1397 1.346 . S
C1396 H1401 0.930 . S
C1397 N1394 1.336 . S
C1397 C1396 1.346 . S
C1397 H1404 0.929 . S
C1398 O1388 1.282 1_655 S
C1398 O1399 1.216 1_655 S
O1399 C1398 1.216 1_455 S
H1400 C1395 0.930 . S
H1401 C1396 0.930 . S
O1402 Cu1382 1.959 . S
O1402 C1389 1.251 . S
H1403 C1386 0.930 . S
H1404 C1397 0.929 . S
Cu1405 N1406 1.999 . S
Cu1405 O1411 1.974 . S
Cu1405 N1416 1.985 . S
Cu1405 O1425 1.959 1_545 S
N1406 Cu1405 1.999 . S
N1406 C1408 1.263 . S
N1406 C1410 1.389 . S
N1407 C1408 1.358 . S
N1407 C1409 1.400 . S
C1408 N1406 1.263 . S
C1408 N1407 1.358 . S
C1408 H1414 0.930 . S
C1409 N1407 1.400 . S
C1409 C1410 1.351 . S
C1409 H1426 0.930 . S
C1410 N1406 1.389 . S
C1410 C1409 1.351 . S
C1410 H1415 0.930 . S
O1411 Cu1405 1.974 . S
O1411 C1421 1.282 . S
C1412 O1413 1.246 1_565 S
C1412 O1425 1.251 . S
O1413 C1412 1.246 1_545 S
H1414 C1408 0.930 . S
H1415 C1410 0.930 . S
N1416 Cu1405 1.985 . S
N1416 C1418 1.335 1_545 S
N1416 C1419 1.390 . S
N1417 C1418 1.345 . S
N1417 C1420 1.336 . S
C1418 N1416 1.335 1_565 S
C1418 N1417 1.345 . S
C1418 H1423 0.930 . S
C1419 N1416 1.390 . S
C1419 C1420 1.346 1_545 S
C1419 H1424 0.930 . S
C1420 N1417 1.336 . S
C1420 C1419 1.346 1_565 S
C1420 H1427 0.929 . S
C1421 O1411 1.282 . S
C1421 O1422 1.216 . S
O1422 C1421 1.216 . S
H1423 C1418 0.930 . S
H1424 C1419 0.930 . S
O1425 Cu1405 1.959 1_565 S
O1425 C1412 1.251 . S
H1426 C1409 0.930 . S
H1427 C1420 0.929 . S
Cu1428 N1429 1.999 . S
Cu1428 O1434 1.974 . S
Cu1428 N1439 1.985 . S
Cu1428 O1448 1.959 . S
N1429 Cu1428 1.999 . S
N1429 C1431 1.263 . S
N1429 C1433 1.389 . S
N1430 C1431 1.358 . S
N1430 C1432 1.400 . S
C1431 N1429 1.263 . S
C1431 N1430 1.358 . S
C1431 H1437 0.930 . S
C1432 N1430 1.400 . S
C1432 C1433 1.351 . S
C1432 H1449 0.930 . S
C1433 N1429 1.389 . S
C1433 C1432 1.351 . S
C1433 H1438 0.930 . S
O1434 Cu1428 1.974 . S
O1434 C1444 1.282 . S
C1435 O1436 1.261 . S
C1435 O1448 1.251 . S
O1436 C1435 1.261 . S
H1437 C1431 0.930 . S
H1438 C1433 0.930 . S
N1439 Cu1428 1.985 . S
N1439 C1441 1.335 . S
N1439 C1442 1.390 . S
N1440 C1441 1.345 . S
N1440 C1443 1.336 . S
C1441 N1439 1.335 . S
C1441 N1440 1.345 . S
C1441 H1446 0.930 . S
C1442 N1439 1.390 . S
C1442 C1443 1.346 . S
C1442 H1447 0.930 . S
C1443 N1440 1.336 . S
C1443 C1442 1.346 . S
C1443 H1450 0.929 . S
C1444 O1434 1.282 . S
C1444 O1445 1.216 . S
O1445 C1444 1.216 . S
H1446 C1441 0.930 . S
H1447 C1442 0.930 . S
O1448 Cu1428 1.959 . S
O1448 C1435 1.251 . S
H1449 C1432 0.930 . S
H1450 C1443 0.929 . S
Cu1451 N1452 1.999 . S
Cu1451 O1457 1.974 . S
Cu1451 N1462 1.985 . S
Cu1451 O1471 1.959 . S
N1452 Cu1451 1.999 . S
N1452 C1454 1.263 . S
N1452 C1456 1.389 . S
N1453 C1454 1.358 . S
N1453 C1455 1.400 . S
C1454 N1452 1.263 . S
C1454 N1453 1.358 . S
C1454 H1460 0.930 . S
C1455 N1453 1.400 . S
C1455 C1456 1.351 . S
C1455 H1472 0.930 . S
C1456 N1452 1.389 . S
C1456 C1455 1.351 . S
C1456 H1461 0.930 . S
O1457 Cu1451 1.974 . S
O1457 C1467 1.282 . S
C1458 O1459 1.261 . S
C1458 O1471 1.251 . S
O1459 C1458 1.261 . S
H1460 C1454 0.930 . S
H1461 C1456 0.930 . S
N1462 Cu1451 1.985 . S
N1462 C1464 1.335 . S
N1462 C1465 1.390 . S
N1463 C1464 1.345 . S
N1463 C1466 1.336 . S
C1464 N1462 1.335 . S
C1464 N1463 1.345 . S
C1464 H1469 0.930 . S
C1465 N1462 1.390 . S
C1465 C1466 1.346 . S
C1465 H1470 0.930 . S
C1466 N1463 1.336 . S
C1466 C1465 1.346 . S
C1466 H1473 0.929 . S
C1467 O1457 1.282 . S
C1467 O1468 1.216 . S
O1468 C1467 1.216 . S
H1469 C1464 0.930 . S
H1470 C1465 0.930 . S
O1471 Cu1451 1.959 . S
O1471 C1458 1.251 . S
H1472 C1455 0.930 . S
H1473 C1466 0.929 . S
Cu1474 N1475 1.999 . S
Cu1474 O1480 1.974 . S
Cu1474 N1485 1.985 . S
Cu1474 O1494 1.959 . S
N1475 Cu1474 1.999 . S
N1475 C1477 1.263 . S
N1475 C1479 1.389 . S
N1476 C1477 1.358 . S
N1476 C1478 1.400 . S
C1477 N1475 1.263 . S
C1477 N1476 1.358 . S
C1477 H1483 0.930 . S
C1478 N1476 1.400 . S
C1478 C1479 1.351 . S
C1478 H1495 0.930 . S
C1479 N1475 1.389 . S
C1479 C1478 1.351 . S
C1479 H1484 0.930 . S
O1480 Cu1474 1.974 . S
O1480 C1490 1.282 . S
C1481 O1482 1.261 . S
C1481 O1494 1.251 . S
O1482 C1481 1.261 . S
H1483 C1477 0.930 . S
H1484 C1479 0.930 . S
N1485 Cu1474 1.985 . S
N1485 C1487 1.335 . S
N1485 C1488 1.390 . S
N1486 C1487 1.345 . S
N1486 C1489 1.336 . S
C1487 N1485 1.335 . S
C1487 N1486 1.345 . S
C1487 H1492 0.930 . S
C1488 N1485 1.390 . S
C1488 C1489 1.346 . S
C1488 H1493 0.930 . S
C1489 N1486 1.336 . S
C1489 C1488 1.346 . S
C1489 H1496 0.929 . S
C1490 O1480 1.282 . S
C1490 O1491 1.216 . S
O1491 C1490 1.216 . S
H1492 C1487 0.930 . S
H1493 C1488 0.930 . S
O1494 Cu1474 1.959 . S
O1494 C1481 1.251 . S
H1495 C1478 0.930 . S
H1496 C1489 0.929 . S
Cu1497 N1498 1.999 . S
Cu1497 O1503 1.974 . S
Cu1497 N1508 1.985 . S
Cu1497 O1517 1.959 . S
N1498 Cu1497 1.999 . S
N1498 C1500 1.263 . S
N1498 C1502 1.389 . S
N1499 C1500 1.358 . S
N1499 C1501 1.400 . S
C1500 N1498 1.263 . S
C1500 N1499 1.358 . S
C1500 H1506 0.930 . S
C1501 N1499 1.400 . S
C1501 C1502 1.351 . S
C1501 H1518 0.930 . S
C1502 N1498 1.389 . S
C1502 C1501 1.351 . S
C1502 H1507 0.930 . S
O1503 Cu1497 1.974 . S
O1503 C1513 1.282 . S
C1504 O1505 1.261 . S
C1504 O1517 1.251 . S
O1505 C1504 1.261 . S
H1506 C1500 0.930 . S
H1507 C1502 0.930 . S
N1508 Cu1497 1.985 . S
N1508 C1510 1.335 . S
N1508 C1511 1.390 . S
N1509 C1510 1.345 . S
N1509 C1512 1.336 . S
C1510 N1508 1.335 . S
C1510 N1509 1.345 . S
C1510 H1515 0.930 . S
C1511 N1508 1.390 . S
C1511 C1512 1.346 . S
C1511 H1516 0.930 . S
C1512 N1509 1.336 . S
C1512 C1511 1.346 . S
C1512 H1519 0.929 . S
C1513 O1503 1.282 . S
C1513 O1514 1.216 . S
O1514 C1513 1.216 . S
H1515 C1510 0.930 . S
H1516 C1511 0.930 . S
O1517 Cu1497 1.959 . S
O1517 C1504 1.251 . S
H1518 C1501 0.930 . S
H1519 C1512 0.929 . S
Cu1520 N1521 1.999 . S
Cu1520 O1526 1.974 . S
Cu1520 N1531 1.985 . S
Cu1520 O1540 1.959 . S
N1521 Cu1520 1.999 . S
N1521 C1523 1.263 . S
N1521 C1525 1.389 . S
N1522 C1523 1.358 . S
N1522 C1524 1.400 . S
C1523 N1521 1.263 . S
C1523 N1522 1.358 . S
C1523 H1529 0.930 . S
C1524 N1522 1.400 . S
C1524 C1525 1.351 . S
C1524 H1541 0.930 . S
C1525 N1521 1.389 . S
C1525 C1524 1.351 . S
C1525 H1530 0.930 . S
O1526 Cu1520 1.974 . S
O1526 C1536 1.282 . S
C1527 O1528 1.261 . S
C1527 O1540 1.251 . S
O1528 C1527 1.261 . S
H1529 C1523 0.930 . S
H1530 C1525 0.930 . S
N1531 Cu1520 1.985 . S
N1531 C1533 1.335 . S
N1531 C1534 1.390 . S
N1532 C1533 1.345 . S
N1532 C1535 1.336 . S
C1533 N1531 1.335 . S
C1533 N1532 1.345 . S
C1533 H1538 0.930 . S
C1534 N1531 1.390 . S
C1534 C1535 1.346 . S
C1534 H1539 0.930 . S
C1535 N1532 1.336 . S
C1535 C1534 1.346 . S
C1535 H1542 0.929 . S
C1536 O1526 1.282 . S
C1536 O1537 1.216 . S
O1537 C1536 1.216 . S
H1538 C1533 0.930 . S
H1539 C1534 0.930 . S
O1540 Cu1520 1.959 . S
O1540 C1527 1.251 . S
H1541 C1524 0.930 . S
H1542 C1535 0.929 . S
Cu1543 N1544 1.999 . S
Cu1543 O1549 1.974 . S
Cu1543 N1554 1.985 . S
Cu1543 O1563 1.959 . S
N1544 Cu1543 1.999 . S
N1544 C1546 1.263 . S
N1544 C1548 1.389 . S
N1545 C1546 1.358 . S
N1545 C1547 1.400 . S
C1546 N1544 1.263 . S
C1546 N1545 1.358 . S
C1546 H1552 0.930 . S
C1547 N1545 1.400 . S
C1547 C1548 1.351 . S
C1547 H1564 0.930 . S
C1548 N1544 1.389 . S
C1548 C1547 1.351 . S
C1548 H1553 0.930 . S
O1549 Cu1543 1.974 . S
O1549 C1559 1.282 . S
C1550 O1551 1.261 . S
C1550 O1563 1.251 . S
O1551 C1550 1.261 . S
H1552 C1546 0.930 . S
H1553 C1548 0.930 . S
N1554 Cu1543 1.985 . S
N1554 C1556 1.335 . S
N1554 C1557 1.390 . S
N1555 C1556 1.345 . S
N1555 C1558 1.336 . S
C1556 N1554 1.335 . S
C1556 N1555 1.345 . S
C1556 H1561 0.930 . S
C1557 N1554 1.390 . S
C1557 C1558 1.346 . S
C1557 H1562 0.930 . S
C1558 N1555 1.336 . S
C1558 C1557 1.346 . S
C1558 H1565 0.929 . S
C1559 O1549 1.282 . S
C1559 O1560 1.216 . S
O1560 C1559 1.216 . S
H1561 C1556 0.930 . S
H1562 C1557 0.930 . S
O1563 Cu1543 1.959 . S
O1563 C1550 1.251 . S
H1564 C1547 0.930 . S
H1565 C1558 0.929 . S
Cu1566 N1567 1.999 . S
Cu1566 O1572 1.974 . S
Cu1566 N1577 1.985 . S
Cu1566 O1586 1.959 . S
N1567 Cu1566 1.999 . S
N1567 C1569 1.263 . S
N1567 C1571 1.389 . S
N1568 C1569 1.358 . S
N1568 C1570 1.400 . S
C1569 N1567 1.263 . S
C1569 N1568 1.358 . S
C1569 H1575 0.930 . S
C1570 N1568 1.400 . S
C1570 C1571 1.351 . S
C1570 H1587 0.930 . S
C1571 N1567 1.389 . S
C1571 C1570 1.351 . S
C1571 H1576 0.930 . S
O1572 Cu1566 1.974 . S
O1572 C1582 1.282 . S
C1573 O1574 1.261 . S
C1573 O1586 1.251 . S
O1574 C1573 1.261 . S
H1575 C1569 0.930 . S
H1576 C1571 0.930 . S
N1577 Cu1566 1.985 . S
N1577 C1579 1.335 . S
N1577 C1580 1.390 . S
N1578 C1579 1.345 . S
N1578 C1581 1.336 . S
C1579 N1577 1.335 . S
C1579 N1578 1.345 . S
C1579 H1584 0.930 . S
C1580 N1577 1.390 . S
C1580 C1581 1.346 . S
C1580 H1585 0.930 . S
C1581 N1578 1.336 . S
C1581 C1580 1.346 . S
C1581 H1588 0.929 . S
C1582 O1572 1.282 . S
C1582 O1583 1.216 . S
O1583 C1582 1.216 . S
H1584 C1579 0.930 . S
H1585 C1580 0.930 . S
O1586 Cu1566 1.959 . S
O1586 C1573 1.251 . S
H1587 C1570 0.930 . S
H1588 C1581 0.929 . S
Cu1589 N1590 1.999 . S
Cu1589 O1595 1.974 . S
Cu1589 N1600 1.985 . S
Cu1589 O1609 1.959 . S
N1590 Cu1589 1.999 . S
N1590 C1592 1.263 . S
N1590 C1594 1.389 . S
N1591 C1592 1.358 . S
N1591 C1593 1.400 . S
C1592 N1590 1.263 . S
C1592 N1591 1.358 . S
C1592 H1598 0.930 . S
C1593 N1591 1.400 . S
C1593 C1594 1.351 . S
C1593 H1610 0.930 . S
C1594 N1590 1.389 . S
C1594 C1593 1.351 . S
C1594 H1599 0.930 . S
O1595 Cu1589 1.974 . S
O1595 C1605 1.282 . S
C1596 O1597 1.261 . S
C1596 O1609 1.251 . S
O1597 C1596 1.261 . S
H1598 C1592 0.930 . S
H1599 C1594 0.930 . S
N1600 Cu1589 1.985 . S
N1600 C1602 1.335 . S
N1600 C1603 1.390 . S
N1601 C1602 1.345 . S
N1601 C1604 1.336 . S
C1602 N1600 1.335 . S
C1602 N1601 1.345 . S
C1602 H1607 0.930 . S
C1603 N1600 1.390 . S
C1603 C1604 1.346 . S
C1603 H1608 0.930 . S
C1604 N1601 1.336 . S
C1604 C1603 1.346 . S
C1604 H1611 0.929 . S
C1605 O1595 1.282 . S
C1605 O1606 1.216 . S
O1606 C1605 1.216 . S
H1607 C1602 0.930 . S
H1608 C1603 0.930 . S
O1609 Cu1589 1.959 . S
O1609 C1596 1.251 . S
H1610 C1593 0.930 . S
H1611 C1604 0.929 . S
Cu1612 N1613 1.999 . S
Cu1612 O1618 1.974 . S
Cu1612 N1623 1.985 . S
Cu1612 O1632 1.959 . S
N1613 Cu1612 1.999 . S
N1613 C1615 1.263 . S
N1613 C1617 1.389 . S
N1614 C1615 1.358 . S
N1614 C1616 1.400 . S
C1615 N1613 1.263 . S
C1615 N1614 1.358 . S
C1615 H1621 0.930 . S
C1616 N1614 1.400 . S
C1616 C1617 1.351 . S
C1616 H1633 0.930 . S
C1617 N1613 1.389 . S
C1617 C1616 1.351 . S
C1617 H1622 0.930 . S
O1618 Cu1612 1.974 . S
O1618 C1628 1.282 . S
C1619 O1620 1.261 . S
C1619 O1632 1.251 . S
O1620 C1619 1.261 . S
H1621 C1615 0.930 . S
H1622 C1617 0.930 . S
N1623 Cu1612 1.985 . S
N1623 C1625 1.335 . S
N1623 C1626 1.390 . S
N1624 C1625 1.345 . S
N1624 C1627 1.336 . S
C1625 N1623 1.335 . S
C1625 N1624 1.345 . S
C1625 H1630 0.930 . S
C1626 N1623 1.390 . S
C1626 C1627 1.346 . S
C1626 H1631 0.930 . S
C1627 N1624 1.336 . S
C1627 C1626 1.346 . S
C1627 H1634 0.929 . S
C1628 O1618 1.282 . S
C1628 O1629 1.216 . S
O1629 C1628 1.216 . S
H1630 C1625 0.930 . S
H1631 C1626 0.930 . S
O1632 Cu1612 1.959 . S
O1632 C1619 1.251 . S
H1633 C1616 0.930 . S
H1634 C1627 0.929 . S
Cu1635 N1636 1.999 . S
Cu1635 O1641 1.974 . S
Cu1635 N1646 1.985 . S
Cu1635 O1655 1.959 . S
N1636 Cu1635 1.999 . S
N1636 C1638 1.263 . S
N1636 C1640 1.389 . S
N1637 C1638 1.358 . S
N1637 C1639 1.400 . S
C1638 N1636 1.263 . S
C1638 N1637 1.358 . S
C1638 H1644 0.930 . S
C1639 N1637 1.400 . S
C1639 C1640 1.351 . S
C1639 H1656 0.930 . S
C1640 N1636 1.389 . S
C1640 C1639 1.351 . S
C1640 H1645 0.930 . S
O1641 Cu1635 1.974 . S
O1641 C1651 1.282 . S
C1642 O1643 1.261 . S
C1642 O1655 1.251 . S
O1643 C1642 1.261 . S
H1644 C1638 0.930 . S
H1645 C1640 0.930 . S
N1646 Cu1635 1.985 . S
N1646 C1648 1.335 . S
N1646 C1649 1.390 . S
N1647 C1648 1.345 . S
N1647 C1650 1.336 . S
C1648 N1646 1.335 . S
C1648 N1647 1.345 . S
C1648 H1653 0.930 . S
C1649 N1646 1.390 . S
C1649 C1650 1.346 . S
C1649 H1654 0.930 . S
C1650 N1647 1.336 . S
C1650 C1649 1.346 . S
C1650 H1657 0.929 . S
C1651 O1641 1.282 . S
C1651 O1652 1.216 . S
O1652 C1651 1.216 . S
H1653 C1648 0.930 . S
H1654 C1649 0.930 . S
O1655 Cu1635 1.959 . S
O1655 C1642 1.251 . S
H1656 C1639 0.930 . S
H1657 C1650 0.929 . S
Cu1658 N1659 1.999 . S
Cu1658 O1664 1.974 . S
Cu1658 N1669 1.985 . S
Cu1658 O1678 1.959 . S
N1659 Cu1658 1.999 . S
N1659 C1661 1.263 . S
N1659 C1663 1.389 . S
N1660 C1661 1.358 . S
N1660 C1662 1.400 . S
C1661 N1659 1.263 . S
C1661 N1660 1.358 . S
C1661 H1667 0.930 . S
C1662 N1660 1.400 . S
C1662 C1663 1.351 . S
C1662 H1679 0.930 . S
C1663 N1659 1.389 . S
C1663 C1662 1.351 . S
C1663 H1668 0.930 . S
O1664 Cu1658 1.974 . S
O1664 C1674 1.282 . S
C1665 O1666 1.261 . S
C1665 O1678 1.251 . S
O1666 C1665 1.261 . S
H1667 C1661 0.930 . S
H1668 C1663 0.930 . S
N1669 Cu1658 1.985 . S
N1669 C1671 1.335 . S
N1669 C1672 1.390 . S
N1670 C1671 1.345 . S
N1670 C1673 1.336 . S
C1671 N1669 1.335 . S
C1671 N1670 1.345 . S
C1671 H1676 0.930 . S
C1672 N1669 1.390 . S
C1672 C1673 1.346 . S
C1672 H1677 0.930 . S
C1673 N1670 1.336 . S
C1673 C1672 1.346 . S
C1673 H1680 0.929 . S
C1674 O1664 1.282 . S
C1674 O1675 1.216 . S
O1675 C1674 1.216 . S
H1676 C1671 0.930 . S
H1677 C1672 0.930 . S
O1678 Cu1658 1.959 . S
O1678 C1665 1.251 . S
H1679 C1662 0.930 . S
H1680 C1673 0.929 . S
Cu1681 N1682 1.999 . S
Cu1681 O1687 1.974 . S
Cu1681 N1692 1.985 . S
Cu1681 O1701 1.959 . S
N1682 Cu1681 1.999 . S
N1682 C1684 1.263 . S
N1682 C1686 1.389 . S
N1683 C1684 1.358 . S
N1683 C1685 1.400 . S
C1684 N1682 1.263 . S
C1684 N1683 1.358 . S
C1684 H1690 0.930 . S
C1685 N1683 1.400 . S
C1685 C1686 1.351 . S
C1685 H1702 0.930 . S
C1686 N1682 1.389 . S
C1686 C1685 1.351 . S
C1686 H1691 0.930 . S
O1687 Cu1681 1.974 . S
O1687 C1697 1.282 . S
C1688 O1689 1.261 . S
C1688 O1701 1.251 . S
O1689 C1688 1.261 . S
H1690 C1684 0.930 . S
H1691 C1686 0.930 . S
N1692 Cu1681 1.985 . S
N1692 C1694 1.335 . S
N1692 C1695 1.390 . S
N1693 C1694 1.345 . S
N1693 C1696 1.336 . S
C1694 N1692 1.335 . S
C1694 N1693 1.345 . S
C1694 H1699 0.930 . S
C1695 N1692 1.390 . S
C1695 C1696 1.346 . S
C1695 H1700 0.930 . S
C1696 N1693 1.336 . S
C1696 C1695 1.346 . S
C1696 H1703 0.929 . S
C1697 O1687 1.282 . S
C1697 O1698 1.216 . S
O1698 C1697 1.216 . S
H1699 C1694 0.930 . S
H1700 C1695 0.930 . S
O1701 Cu1681 1.959 . S
O1701 C1688 1.251 . S
H1702 C1685 0.930 . S
H1703 C1696 0.929 . S
C1704 C1705 1.387 . S
C1704 H1708 0.950 . S
C1704 C1713 1.390 . S
C1705 C1704 1.387 . S
C1705 C1707 1.387 . S
H1706 C1713 0.950 . S
C1707 C1705 1.387 . S
C1707 C1709 1.390 . S
C1707 H1711 0.950 . S
H1708 C1704 0.950 . S
C1709 C1707 1.390 . S
C1709 C1710 1.387 . S
C1709 H1712 0.950 . S
C1710 C1709 1.387 . S
C1710 C1713 1.387 . S
H1711 C1707 0.950 . S
H1712 C1709 0.950 . S
C1713 C1704 1.390 . S
C1713 H1706 0.950 . S
C1713 C1710 1.387 . S
C1714 C1715 1.387 . S
C1714 H1718 0.950 . S
C1714 C1723 1.390 . S
C1715 C1714 1.387 . S
C1715 C1717 1.387 . S
H1716 C1723 0.950 . S
C1717 C1715 1.387 . S
C1717 C1719 1.390 . S
C1717 H1721 0.950 . S
H1718 C1714 0.950 . S
C1719 C1717 1.390 . S
C1719 C1720 1.387 . S
C1719 H1722 0.950 . S
C1720 C1719 1.387 . S
C1720 C1723 1.387 . S
H1721 C1717 0.950 . S
H1722 C1719 0.950 . S
C1723 C1714 1.390 . S
C1723 H1716 0.950 . S
C1723 C1720 1.387 . S
C1724 C1725 1.387 . S
C1724 H1728 0.950 . S
C1724 C1733 1.390 . S
C1725 C1724 1.387 . S
C1725 C1727 1.387 . S
H1726 C1733 0.950 . S
C1727 C1725 1.387 . S
C1727 C1729 1.390 . S
C1727 H1731 0.950 . S
H1728 C1724 0.950 . S
C1729 C1727 1.390 . S
C1729 C1730 1.387 . S
C1729 H1732 0.950 . S
C1730 C1729 1.387 . S
C1730 C1733 1.387 . S
H1731 C1727 0.950 . S
H1732 C1729 0.950 . S
C1733 C1724 1.390 . S
C1733 H1726 0.950 . S
C1733 C1730 1.387 . S
C1734 C1735 1.387 . S
C1734 H1738 0.950 . S
C1734 C1743 1.390 . S
C1735 C1734 1.387 . S
C1735 C1737 1.387 . S
H1736 C1743 0.950 . S
C1737 C1735 1.387 . S
C1737 C1739 1.390 . S
C1737 H1741 0.950 . S
H1738 C1734 0.950 . S
C1739 C1737 1.390 . S
C1739 C1740 1.387 . S
C1739 H1742 0.950 . S
C1740 C1739 1.387 . S
C1740 C1743 1.387 . S
H1741 C1737 0.950 . S
H1742 C1739 0.950 . S
C1743 C1734 1.390 . S
C1743 H1736 0.950 . S
C1743 C1740 1.387 . S
C1744 C1745 1.387 . S
C1744 H1748 0.950 . S
C1744 C1753 1.390 . S
C1745 C1744 1.387 . S
C1745 C1747 1.387 . S
H1746 C1753 0.950 . S
C1747 C1745 1.387 . S
C1747 C1749 1.390 . S
C1747 H1751 0.950 . S
H1748 C1744 0.950 . S
C1749 C1747 1.390 . S
C1749 C1750 1.387 . S
C1749 H1752 0.950 . S
C1750 C1749 1.387 . S
C1750 C1753 1.387 . S
H1751 C1747 0.950 . S
H1752 C1749 0.950 . S
C1753 C1744 1.390 . S
C1753 H1746 0.950 . S
C1753 C1750 1.387 . S
C1754 C1755 1.387 . S
C1754 H1758 0.950 . S
C1754 C1763 1.390 . S
C1755 C1754 1.387 . S
C1755 C1757 1.387 . S
H1756 C1763 0.950 . S
C1757 C1755 1.387 . S
C1757 C1759 1.390 . S
C1757 H1761 0.950 . S
H1758 C1754 0.950 . S
C1759 C1757 1.390 . S
C1759 C1760 1.387 . S
C1759 H1762 0.950 . S
C1760 C1759 1.387 . S
C1760 C1763 1.387 . S
H1761 C1757 0.950 . S
H1762 C1759 0.950 . S
C1763 C1754 1.390 . S
C1763 H1756 0.950 . S
C1763 C1760 1.387 . S
C1764 C1765 1.387 . S
C1764 H1768 0.950 . S
C1764 C1773 1.390 . S
C1765 C1764 1.387 . S
C1765 C1767 1.387 . S
H1766 C1773 0.950 . S
C1767 C1765 1.387 . S
C1767 C1769 1.390 . S
C1767 H1771 0.950 . S
H1768 C1764 0.950 . S
C1769 C1767 1.390 . S
C1769 C1770 1.387 . S
C1769 H1772 0.950 . S
C1770 C1769 1.387 . S
C1770 C1773 1.387 . S
H1771 C1767 0.950 . S
H1772 C1769 0.950 . S
C1773 C1764 1.390 . S
C1773 H1766 0.950 . S
C1773 C1770 1.387 . S
C1774 C1775 1.387 . S
C1774 H1778 0.950 . S
C1774 C1783 1.390 . S
C1775 C1774 1.387 . S
C1775 C1777 1.387 . S
H1776 C1783 0.950 . S
C1777 C1775 1.387 . S
C1777 C1779 1.390 . S
C1777 H1781 0.950 . S
H1778 C1774 0.950 . S
C1779 C1777 1.390 . S
C1779 C1780 1.387 . S
C1779 H1782 0.950 . S
C1780 C1779 1.387 . S
C1780 C1783 1.387 . S
H1781 C1777 0.950 . S
H1782 C1779 0.950 . S
C1783 C1774 1.390 . S
C1783 H1776 0.950 . S
C1783 C1780 1.387 . S
C1784 C1785 1.387 . S
C1784 H1788 0.950 . S
C1784 C1793 1.390 . S
C1785 C1784 1.387 . S
C1785 C1787 1.387 . S
H1786 C1793 0.950 . S
C1787 C1785 1.387 . S
C1787 C1789 1.390 . S
C1787 H1791 0.950 . S
H1788 C1784 0.950 . S
C1789 C1787 1.390 . S
C1789 C1790 1.387 . S
C1789 H1792 0.950 . S
C1790 C1789 1.387 . S
C1790 C1793 1.387 . S
H1791 C1787 0.950 . S
H1792 C1789 0.950 . S
C1793 C1784 1.390 . S
C1793 H1786 0.950 . S
C1793 C1790 1.387 . S
C1794 C1795 1.387 . S
C1794 H1798 0.950 . S
C1794 C1803 1.390 . S
C1795 C1794 1.387 . S
C1795 C1797 1.387 . S
H1796 C1803 0.950 . S
C1797 C1795 1.387 . S
C1797 C1799 1.390 . S
C1797 H1801 0.950 . S
H1798 C1794 0.950 . S
C1799 C1797 1.390 . S
C1799 C1800 1.387 . S
C1799 H1802 0.950 . S
C1800 C1799 1.387 . S
C1800 C1803 1.387 . S
H1801 C1797 0.950 . S
H1802 C1799 0.950 . S
C1803 C1794 1.390 . S
C1803 H1796 0.950 . S
C1803 C1800 1.387 . S
C1804 C1805 1.387 . S
C1804 H1808 0.950 . S
C1804 C1813 1.390 . S
C1805 C1804 1.387 . S
C1805 C1807 1.387 . S
H1806 C1813 0.950 . S
C1807 C1805 1.387 . S
C1807 C1809 1.390 . S
C1807 H1811 0.950 . S
H1808 C1804 0.950 . S
C1809 C1807 1.390 . S
C1809 C1810 1.387 . S
C1809 H1812 0.950 . S
C1810 C1809 1.387 . S
C1810 C1813 1.387 . S
H1811 C1807 0.950 . S
H1812 C1809 0.950 . S
C1813 C1804 1.390 . S
C1813 H1806 0.950 . S
C1813 C1810 1.387 . S
C1814 C1815 1.387 . S
C1814 H1818 0.950 . S
C1814 C1823 1.390 . S
C1815 C1814 1.387 . S
C1815 C1817 1.387 . S
H1816 C1823 0.950 . S
C1817 C1815 1.387 . S
C1817 C1819 1.390 . S
C1817 H1821 0.950 . S
H1818 C1814 0.950 . S
C1819 C1817 1.390 . S
C1819 C1820 1.387 . S
C1819 H1822 0.950 . S
C1820 C1819 1.387 . S
C1820 C1823 1.387 . S
H1821 C1817 0.950 . S
H1822 C1819 0.950 . S
C1823 C1814 1.390 . S
C1823 H1816 0.950 . S
C1823 C1820 1.387 . S
C1824 C1825 1.387 . S
C1824 H1828 0.950 . S
C1824 C1833 1.390 . S
C1825 C1824 1.387 . S
C1825 C1827 1.387 . S
H1826 C1833 0.950 . S
C1827 C1825 1.387 . S
C1827 C1829 1.390 . S
C1827 H1831 0.950 . S
H1828 C1824 0.950 . S
C1829 C1827 1.390 . S
C1829 C1830 1.387 . S
C1829 H1832 0.950 . S
C1830 C1829 1.387 . S
C1830 C1833 1.387 . S
H1831 C1827 0.950 . S
H1832 C1829 0.950 . S
C1833 C1824 1.390 . S
C1833 H1826 0.950 . S
C1833 C1830 1.387 . S
C1834 C1835 1.387 . S
C1834 H1838 0.950 . S
C1834 C1843 1.390 . S
C1835 C1834 1.387 . S
C1835 C1837 1.387 . S
H1836 C1843 0.950 . S
C1837 C1835 1.387 . S
C1837 C1839 1.390 . S
C1837 H1841 0.950 . S
H1838 C1834 0.950 . S
C1839 C1837 1.390 . S
C1839 C1840 1.387 . S
C1839 H1842 0.950 . S
C1840 C1839 1.387 . S
C1840 C1843 1.387 . S
H1841 C1837 0.950 . S
H1842 C1839 0.950 . S
C1843 C1834 1.390 . S
C1843 H1836 0.950 . S
C1843 C1840 1.387 . S
C1844 C1845 1.387 . S
C1844 H1848 0.950 . S
C1844 C1853 1.390 . S
C1845 C1844 1.387 . S
C1845 C1847 1.387 . S
H1846 C1853 0.950 . S
C1847 C1845 1.387 . S
C1847 C1849 1.390 . S
C1847 H1851 0.950 . S
H1848 C1844 0.950 . S
C1849 C1847 1.390 . S
C1849 C1850 1.387 . S
C1849 H1852 0.950 . S
C1850 C1849 1.387 . S
C1850 C1853 1.387 . S
H1851 C1847 0.950 . S
H1852 C1849 0.950 . S
C1853 C1844 1.390 . S
C1853 H1846 0.950 . S
C1853 C1850 1.387 . S
C1854 C1855 1.387 . S
C1854 H1858 0.950 . S
C1854 C1863 1.390 . S
C1855 C1854 1.387 . S
C1855 C1857 1.387 . S
H1856 C1863 0.950 . S
C1857 C1855 1.387 . S
C1857 C1859 1.390 . S
C1857 H1861 0.950 . S
H1858 C1854 0.950 . S
C1859 C1857 1.390 . S
C1859 C1860 1.387 . S
C1859 H1862 0.950 . S
C1860 C1859 1.387 . S
C1860 C1863 1.387 . S
H1861 C1857 0.950 . S
H1862 C1859 0.950 . S
C1863 C1854 1.390 . S
C1863 H1856 0.950 . S
C1863 C1860 1.387 . S
C1864 C1865 1.387 . S
C1864 H1868 0.950 . S
C1864 C1873 1.390 . S
C1865 C1864 1.387 . S
C1865 C1867 1.387 . S
H1866 C1873 0.950 . S
C1867 C1865 1.387 . S
C1867 C1869 1.390 . S
C1867 H1871 0.950 . S
H1868 C1864 0.950 . S
C1869 C1867 1.390 . S
C1869 C1870 1.387 . S
C1869 H1872 0.950 . S
C1870 C1869 1.387 . S
C1870 C1873 1.387 . S
H1871 C1867 0.950 . S
H1872 C1869 0.950 . S
C1873 C1864 1.390 . S
C1873 H1866 0.950 . S
C1873 C1870 1.387 . S
C1874 C1875 1.387 . S
C1874 H1878 0.950 . S
C1874 C1883 1.390 . S
C1875 C1874 1.387 . S
C1875 C1877 1.387 . S
H1876 C1883 0.950 . S
C1877 C1875 1.387 . S
C1877 C1879 1.390 . S
C1877 H1881 0.950 . S
H1878 C1874 0.950 . S
C1879 C1877 1.390 . S
C1879 C1880 1.387 . S
C1879 H1882 0.950 . S
C1880 C1879 1.387 . S
C1880 C1883 1.387 . S
H1881 C1877 0.950 . S
H1882 C1879 0.950 . S
C1883 C1874 1.390 . S
C1883 H1876 0.950 . S
C1883 C1880 1.387 . S
C1884 C1885 1.387 . S
C1884 H1888 0.950 . S
C1884 C1893 1.390 . S
C1885 C1884 1.387 . S
C1885 C1887 1.387 . S
H1886 C1893 0.950 . S
C1887 C1885 1.387 . S
C1887 C1889 1.390 . S
C1887 H1891 0.950 . S
H1888 C1884 0.950 . S
C1889 C1887 1.390 . S
C1889 C1890 1.387 . S
C1889 H1892 0.950 . S
C1890 C1889 1.387 . S
C1890 C1893 1.387 . S
H1891 C1887 0.950 . S
H1892 C1889 0.950 . S
C1893 C1884 1.390 . S
C1893 H1886 0.950 . S
C1893 C1890 1.387 . S
C1894 C1895 1.387 . S
C1894 H1898 0.950 . S
C1894 C1903 1.390 . S
C1895 C1894 1.387 . S
C1895 C1897 1.387 . S
H1896 C1903 0.950 . S
C1897 C1895 1.387 . S
C1897 C1899 1.390 . S
C1897 H1901 0.950 . S
H1898 C1894 0.950 . S
C1899 C1897 1.390 . S
C1899 C1900 1.387 . S
C1899 H1902 0.950 . S
C1900 C1899 1.387 . S
C1900 C1903 1.387 . S
H1901 C1897 0.950 . S
H1902 C1899 0.950 . S
C1903 C1894 1.390 . S
C1903 H1896 0.950 . S
C1903 C1900 1.387 . S
C1904 C1905 1.387 . S
C1904 H1908 0.950 . S
C1904 C1913 1.390 . S
C1905 C1904 1.387 . S
C1905 C1907 1.387 . S
H1906 C1913 0.950 . S
C1907 C1905 1.387 . S
C1907 C1909 1.390 . S
C1907 H1911 0.950 . S
H1908 C1904 0.950 . S
C1909 C1907 1.390 . S
C1909 C1910 1.387 . S
C1909 H1912 0.950 . S
C1910 C1909 1.387 . S
C1910 C1913 1.387 . S
H1911 C1907 0.950 . S
H1912 C1909 0.950 . S
C1913 C1904 1.390 . S
C1913 H1906 0.950 . S
C1913 C1910 1.387 . S
C1914 C1915 1.387 . S
C1914 H1918 0.950 . S
C1914 C1923 1.390 . S
C1915 C1914 1.387 . S
C1915 C1917 1.387 . S
H1916 C1923 0.950 . S
C1917 C1915 1.387 . S
C1917 C1919 1.390 . S
C1917 H1921 0.950 . S
H1918 C1914 0.950 . S
C1919 C1917 1.390 . S
C1919 C1920 1.387 . S
C1919 H1922 0.950 . S
C1920 C1919 1.387 . S
C1920 C1923 1.387 . S
H1921 C1917 0.950 . S
H1922 C1919 0.950 . S
C1923 C1914 1.390 . S
C1923 H1916 0.950 . S
C1923 C1920 1.387 . S
C1924 C1925 1.387 . S
C1924 H1928 0.950 . S
C1924 C1933 1.390 . S
C1925 C1924 1.387 . S
C1925 C1927 1.387 . S
H1926 C1933 0.950 . S
C1927 C1925 1.387 . S
C1927 C1929 1.390 . S
C1927 H1931 0.950 . S
H1928 C1924 0.950 . S
C1929 C1927 1.390 . S
C1929 C1930 1.387 . S
C1929 H1932 0.950 . S
C1930 C1929 1.387 . S
C1930 C1933 1.387 . S
H1931 C1927 0.950 . S
H1932 C1929 0.950 . S
C1933 C1924 1.390 . S
C1933 H1926 0.950 . S
C1933 C1930 1.387 . S
C1934 C1935 1.387 . S
C1934 H1938 0.950 . S
C1934 C1943 1.390 . S
C1935 C1934 1.387 . S
C1935 C1937 1.387 . S
H1936 C1943 0.950 . S
C1937 C1935 1.387 . S
C1937 C1939 1.390 . S
C1937 H1941 0.950 . S
H1938 C1934 0.950 . S
C1939 C1937 1.390 . S
C1939 C1940 1.387 . S
C1939 H1942 0.950 . S
C1940 C1939 1.387 . S
C1940 C1943 1.387 . S
H1941 C1937 0.950 . S
H1942 C1939 0.950 . S
C1943 C1934 1.390 . S
C1943 H1936 0.950 . S
C1943 C1940 1.387 . S
C1944 C1945 1.387 . S
C1944 H1948 0.950 . S
C1944 C1953 1.390 . S
C1945 C1944 1.387 . S
C1945 C1947 1.387 . S
H1946 C1953 0.950 . S
C1947 C1945 1.387 . S
C1947 C1949 1.390 . S
C1947 H1951 0.950 . S
H1948 C1944 0.950 . S
C1949 C1947 1.390 . S
C1949 C1950 1.387 . S
C1949 H1952 0.950 . S
C1950 C1949 1.387 . S
C1950 C1953 1.387 . S
H1951 C1947 0.950 . S
H1952 C1949 0.950 . S
C1953 C1944 1.390 . S
C1953 H1946 0.950 . S
C1953 C1950 1.387 . S
C1954 C1955 1.387 . S
C1954 H1958 0.950 . S
C1954 C1963 1.390 . S
C1955 C1954 1.387 . S
C1955 C1957 1.387 . S
H1956 C1963 0.950 . S
C1957 C1955 1.387 . S
C1957 C1959 1.390 . S
C1957 H1961 0.950 . S
H1958 C1954 0.950 . S
C1959 C1957 1.390 . S
C1959 C1960 1.387 . S
C1959 H1962 0.950 . S
C1960 C1959 1.387 . S
C1960 C1963 1.387 . S
H1961 C1957 0.950 . S
H1962 C1959 0.950 . S
C1963 C1954 1.390 . S
C1963 H1956 0.950 . S
C1963 C1960 1.387 . S
C1964 C1965 1.387 . S
C1964 H1968 0.950 . S
C1964 C1973 1.390 . S
C1965 C1964 1.387 . S
C1965 C1967 1.387 . S
H1966 C1973 0.950 . S
C1967 C1965 1.387 . S
C1967 C1969 1.390 . S
C1967 H1971 0.950 . S
H1968 C1964 0.950 . S
C1969 C1967 1.390 . S
C1969 C1970 1.387 . S
C1969 H1972 0.950 . S
C1970 C1969 1.387 . S
C1970 C1973 1.387 . S
H1971 C1967 0.950 . S
H1972 C1969 0.950 . S
C1973 C1964 1.390 . S
C1973 H1966 0.950 . S
C1973 C1970 1.387 . S
C1974 C1975 1.387 . S
C1974 H1978 0.950 . S
C1974 C1983 1.390 . S
C1975 C1974 1.387 . S
C1975 C1977 1.387 . S
H1976 C1983 0.950 . S
C1977 C1975 1.387 . S
C1977 C1979 1.390 . S
C1977 H1981 0.950 . S
H1978 C1974 0.950 . S
C1979 C1977 1.390 . S
C1979 C1980 1.387 . S
C1979 H1982 0.950 . S
C1980 C1979 1.387 . S
C1980 C1983 1.387 . S
H1981 C1977 0.950 . S
H1982 C1979 0.950 . S
C1983 C1974 1.390 . S
C1983 H1976 0.950 . S
C1983 C1980 1.387 . S
C1984 C1985 1.387 . S
C1984 H1988 0.950 . S
C1984 C1993 1.390 . S
C1985 C1984 1.387 . S
C1985 C1987 1.387 . S
H1986 C1993 0.950 . S
C1987 C1985 1.387 . S
C1987 C1989 1.390 . S
C1987 H1991 0.950 . S
H1988 C1984 0.950 . S
C1989 C1987 1.390 . S
C1989 C1990 1.387 . S
C1989 H1992 0.950 . S
C1990 C1989 1.387 . S
C1990 C1993 1.387 . S
H1991 C1987 0.950 . S
H1992 C1989 0.950 . S
C1993 C1984 1.390 . S
C1993 H1986 0.950 . S
C1993 C1990 1.387 . S
C1994 C1995 1.387 . S
C1994 H1998 0.950 . S
C1994 C2003 1.390 . S
C1995 C1994 1.387 . S
C1995 C1997 1.387 . S
H1996 C2003 0.950 . S
C1997 C1995 1.387 . S
C1997 C1999 1.390 . S
C1997 H2001 0.950 . S
H1998 C1994 0.950 . S
C1999 C1997 1.390 . S
C1999 C2000 1.387 . S
C1999 H2002 0.950 . S
C2000 C1999 1.387 . S
C2000 C2003 1.387 . S
H2001 C1997 0.950 . S
H2002 C1999 0.950 . S
C2003 C1994 1.390 . S
C2003 H1996 0.950 . S
C2003 C2000 1.387 . S
C2004 C2005 1.387 . S
C2004 H2008 0.950 . S
C2004 C2013 1.390 . S
C2005 C2004 1.387 . S
C2005 C2007 1.387 . S
H2006 C2013 0.950 . S
C2007 C2005 1.387 . S
C2007 C2009 1.390 . S
C2007 H2011 0.950 . S
H2008 C2004 0.950 . S
C2009 C2007 1.390 . S
C2009 C2010 1.387 . S
C2009 H2012 0.950 . S
C2010 C2009 1.387 . S
C2010 C2013 1.387 . S
H2011 C2007 0.950 . S
H2012 C2009 0.950 . S
C2013 C2004 1.390 . S
C2013 H2006 0.950 . S
C2013 C2010 1.387 . S
C2014 C2015 1.387 . S
C2014 H2018 0.950 . S
C2014 C2023 1.390 . S
C2015 C2014 1.387 . S
C2015 C2017 1.387 . S
H2016 C2023 0.950 . S
C2017 C2015 1.387 . S
C2017 C2019 1.390 . S
C2017 H2021 0.950 . S
H2018 C2014 0.950 . S
C2019 C2017 1.390 . S
C2019 C2020 1.387 . S
C2019 H2022 0.950 . S
C2020 C2019 1.387 . S
C2020 C2023 1.387 . S
H2021 C2017 0.950 . S
H2022 C2019 0.950 . S
C2023 C2014 1.390 . S
C2023 H2016 0.950 . S
C2023 C2020 1.387 . S
C2024 C2025 1.387 . S
C2024 H2028 0.950 . S
C2024 C2033 1.390 . S
C2025 C2024 1.387 . S
C2025 C2027 1.387 . S
H2026 C2033 0.950 . S
C2027 C2025 1.387 . S
C2027 C2029 1.390 . S
C2027 H2031 0.950 . S
H2028 C2024 0.950 . S
C2029 C2027 1.390 . S
C2029 C2030 1.387 . S
C2029 H2032 0.950 . S
C2030 C2029 1.387 . S
C2030 C2033 1.387 . S
H2031 C2027 0.950 . S
H2032 C2029 0.950 . S
C2033 C2024 1.390 . S
C2033 H2026 0.950 . S
C2033 C2030 1.387 . S
C2034 C2035 1.387 . S
C2034 H2038 0.950 . S
C2034 C2043 1.390 . S
C2035 C2034 1.387 . S
C2035 C2037 1.387 . S
H2036 C2043 0.950 . S
C2037 C2035 1.387 . S
C2037 C2039 1.390 . S
C2037 H2041 0.950 . S
H2038 C2034 0.950 . S
C2039 C2037 1.390 . S
C2039 C2040 1.387 . S
C2039 H2042 0.950 . S
C2040 C2039 1.387 . S
C2040 C2043 1.387 . S
H2041 C2037 0.950 . S
H2042 C2039 0.950 . S
C2043 C2034 1.390 . S
C2043 H2036 0.950 . S
C2043 C2040 1.387 . S
C2044 C2045 1.387 . S
C2044 H2048 0.950 . S
C2044 C2053 1.390 . S
C2045 C2044 1.387 . S
C2045 C2047 1.387 . S
H2046 C2053 0.950 . S
C2047 C2045 1.387 . S
C2047 C2049 1.390 . S
C2047 H2051 0.950 . S
H2048 C2044 0.950 . S
C2049 C2047 1.390 . S
C2049 C2050 1.387 . S
C2049 H2052 0.950 . S
C2050 C2049 1.387 . S
C2050 C2053 1.387 . S
H2051 C2047 0.950 . S
H2052 C2049 0.950 . S
C2053 C2044 1.390 . S
C2053 H2046 0.950 . S
C2053 C2050 1.387 . S
C2054 C2055 1.387 . S
C2054 H2058 0.950 . S
C2054 C2063 1.390 . S
C2055 C2054 1.387 . S
C2055 C2057 1.387 . S
H2056 C2063 0.950 . S
C2057 C2055 1.387 . S
C2057 C2059 1.390 . S
C2057 H2061 0.950 . S
H2058 C2054 0.950 . S
C2059 C2057 1.390 . S
C2059 C2060 1.387 . S
C2059 H2062 0.950 . S
C2060 C2059 1.387 . S
C2060 C2063 1.387 . S
H2061 C2057 0.950 . S
H2062 C2059 0.950 . S
C2063 C2054 1.390 . S
C2063 H2056 0.950 . S
C2063 C2060 1.387 . S
C2064 C2065 1.387 . S
C2064 H2068 0.950 . S
C2064 C2073 1.390 . S
C2065 C2064 1.387 . S
C2065 C2067 1.387 . S
H2066 C2073 0.950 . S
C2067 C2065 1.387 . S
C2067 C2069 1.390 . S
C2067 H2071 0.950 . S
H2068 C2064 0.950 . S
C2069 C2067 1.390 . S
C2069 C2070 1.387 . S
C2069 H2072 0.950 . S
C2070 C2069 1.387 . S
C2070 C2073 1.387 . S
H2071 C2067 0.950 . S
H2072 C2069 0.950 . S
C2073 C2064 1.390 . S
C2073 H2066 0.950 . S
C2073 C2070 1.387 . S
C2074 C2075 1.387 . S
C2074 H2078 0.950 . S
C2074 C2083 1.390 . S
C2075 C2074 1.387 . S
C2075 C2077 1.387 . S
H2076 C2083 0.950 . S
C2077 C2075 1.387 . S
C2077 C2079 1.390 . S
C2077 H2081 0.950 . S
H2078 C2074 0.950 . S
C2079 C2077 1.390 . S
C2079 C2080 1.387 . S
C2079 H2082 0.950 . S
C2080 C2079 1.387 . S
C2080 C2083 1.387 . S
H2081 C2077 0.950 . S
H2082 C2079 0.950 . S
C2083 C2074 1.390 . S
C2083 H2076 0.950 . S
C2083 C2080 1.387 . S
C2084 C2085 1.387 . S
C2084 H2088 0.950 . S
C2084 C2093 1.390 . S
C2085 C2084 1.387 . S
C2085 C2087 1.387 . S
H2086 C2093 0.950 . S
C2087 C2085 1.387 . S
C2087 C2089 1.390 . S
C2087 H2091 0.950 . S
H2088 C2084 0.950 . S
C2089 C2087 1.390 . S
C2089 C2090 1.387 . S
C2089 H2092 0.950 . S
C2090 C2089 1.387 . S
C2090 C2093 1.387 . S
H2091 C2087 0.950 . S
H2092 C2089 0.950 . S
C2093 C2084 1.390 . S
C2093 H2086 0.950 . S
C2093 C2090 1.387 . S
C2094 C2095 1.387 . S
C2094 H2098 0.950 . S
C2094 C2103 1.390 . S
C2095 C2094 1.387 . S
C2095 C2097 1.387 . S
H2096 C2103 0.950 . S
C2097 C2095 1.387 . S
C2097 C2099 1.390 . S
C2097 H2101 0.950 . S
H2098 C2094 0.950 . S
C2099 C2097 1.390 . S
C2099 C2100 1.387 . S
C2099 H2102 0.950 . S
C2100 C2099 1.387 . S
C2100 C2103 1.387 . S
H2101 C2097 0.950 . S
H2102 C2099 0.950 . S
C2103 C2094 1.390 . S
C2103 H2096 0.950 . S
C2103 C2100 1.387 . S
C2104 C2105 1.387 . S
C2104 H2108 0.950 . S
C2104 C2113 1.390 . S
C2105 C2104 1.387 . S
C2105 C2107 1.387 . S
H2106 C2113 0.950 . S
C2107 C2105 1.387 . S
C2107 C2109 1.390 . S
C2107 H2111 0.950 . S
H2108 C2104 0.950 . S
C2109 C2107 1.390 . S
C2109 C2110 1.387 . S
C2109 H2112 0.950 . S
C2110 C2109 1.387 . S
C2110 C2113 1.387 . S
H2111 C2107 0.950 . S
H2112 C2109 0.950 . S
C2113 C2104 1.390 . S
C2113 H2106 0.950 . S
C2113 C2110 1.387 . S
C2114 C2115 1.387 . S
C2114 H2118 0.950 . S
C2114 C2123 1.390 . S
C2115 C2114 1.387 . S
C2115 C2117 1.387 . S
H2116 C2123 0.950 . S
C2117 C2115 1.387 . S
C2117 C2119 1.390 . S
C2117 H2121 0.950 . S
H2118 C2114 0.950 . S
C2119 C2117 1.390 . S
C2119 C2120 1.387 . S
C2119 H2122 0.950 . S
C2120 C2119 1.387 . S
C2120 C2123 1.387 . S
H2121 C2117 0.950 . S
H2122 C2119 0.950 . S
C2123 C2114 1.390 . S
C2123 H2116 0.950 . S
C2123 C2120 1.387 . S
C2124 C2125 1.387 . S
C2124 H2128 0.950 . S
C2124 C2133 1.390 . S
C2125 C2124 1.387 . S
C2125 C2127 1.387 . S
H2126 C2133 0.950 . S
C2127 C2125 1.387 . S
C2127 C2129 1.390 . S
C2127 H2131 0.950 . S
H2128 C2124 0.950 . S
C2129 C2127 1.390 . S
C2129 C2130 1.387 . S
C2129 H2132 0.950 . S
C2130 C2129 1.387 . S
C2130 C2133 1.387 . S
H2131 C2127 0.950 . S
H2132 C2129 0.950 . S
C2133 C2124 1.390 . S
C2133 H2126 0.950 . S
C2133 C2130 1.387 . S
C2134 C2135 1.387 . S
C2134 H2138 0.950 . S
C2134 C2143 1.390 . S
C2135 C2134 1.387 . S
C2135 C2137 1.387 . S
H2136 C2143 0.950 . S
C2137 C2135 1.387 . S
C2137 C2139 1.390 . S
C2137 H2141 0.950 . S
H2138 C2134 0.950 . S
C2139 C2137 1.390 . S
C2139 C2140 1.387 . S
C2139 H2142 0.950 . S
C2140 C2139 1.387 . S
C2140 C2143 1.387 . S
H2141 C2137 0.950 . S
H2142 C2139 0.950 . S
C2143 C2134 1.390 . S
C2143 H2136 0.950 . S
C2143 C2140 1.387 . S
C2144 C2145 1.387 . S
C2144 H2148 0.950 . S
C2144 C2153 1.390 . S
C2145 C2144 1.387 . S
C2145 C2147 1.387 . S
H2146 C2153 0.950 . S
C2147 C2145 1.387 . S
C2147 C2149 1.390 . S
C2147 H2151 0.950 . S
H2148 C2144 0.950 . S
C2149 C2147 1.390 . S
C2149 C2150 1.387 . S
C2149 H2152 0.950 . S
C2150 C2149 1.387 . S
C2150 C2153 1.387 . S
H2151 C2147 0.950 . S
H2152 C2149 0.950 . S
C2153 C2144 1.390 . S
C2153 H2146 0.950 . S
C2153 C2150 1.387 . S
C2154 C2155 1.387 . S
C2154 H2158 0.950 . S
C2154 C2163 1.390 . S
C2155 C2154 1.387 . S
C2155 C2157 1.387 . S
H2156 C2163 0.950 . S
C2157 C2155 1.387 . S
C2157 C2159 1.390 . S
C2157 H2161 0.950 . S
H2158 C2154 0.950 . S
C2159 C2157 1.390 . S
C2159 C2160 1.387 . S
C2159 H2162 0.950 . S
C2160 C2159 1.387 . S
C2160 C2163 1.387 . S
H2161 C2157 0.950 . S
H2162 C2159 0.950 . S
C2163 C2154 1.390 . S
C2163 H2156 0.950 . S
C2163 C2160 1.387 . S
C2164 C2165 1.387 . S
C2164 H2168 0.950 . S
C2164 C2173 1.390 . S
C2165 C2164 1.387 . S
C2165 C2167 1.387 . S
H2166 C2173 0.950 . S
C2167 C2165 1.387 . S
C2167 C2169 1.390 . S
C2167 H2171 0.950 . S
H2168 C2164 0.950 . S
C2169 C2167 1.390 . S
C2169 C2170 1.387 . S
C2169 H2172 0.950 . S
C2170 C2169 1.387 . S
C2170 C2173 1.387 . S
H2171 C2167 0.950 . S
H2172 C2169 0.950 . S
C2173 C2164 1.390 . S
C2173 H2166 0.950 . S
C2173 C2170 1.387 . S
C2174 C2175 1.387 . S
C2174 H2178 0.950 . S
C2174 C2183 1.390 . S
C2175 C2174 1.387 . S
C2175 C2177 1.387 . S
H2176 C2183 0.950 . S
C2177 C2175 1.387 . S
C2177 C2179 1.390 . S
C2177 H2181 0.950 . S
H2178 C2174 0.950 . S
C2179 C2177 1.390 . S
C2179 C2180 1.387 . S
C2179 H2182 0.950 . S
C2180 C2179 1.387 . S
C2180 C2183 1.387 . S
H2181 C2177 0.950 . S
H2182 C2179 0.950 . S
C2183 C2174 1.390 . S
C2183 H2176 0.950 . S
C2183 C2180 1.387 . S
C2184 C2185 1.387 . S
C2184 H2188 0.950 . S
C2184 C2193 1.390 . S
C2185 C2184 1.387 . S
C2185 C2187 1.387 . S
H2186 C2193 0.950 . S
C2187 C2185 1.387 . S
C2187 C2189 1.390 . S
C2187 H2191 0.950 . S
H2188 C2184 0.950 . S
C2189 C2187 1.390 . S
C2189 C2190 1.387 . S
C2189 H2192 0.950 . S
C2190 C2189 1.387 . S
C2190 C2193 1.387 . S
H2191 C2187 0.950 . S
H2192 C2189 0.950 . S
C2193 C2184 1.390 . S
C2193 H2186 0.950 . S
C2193 C2190 1.387 . S
C2194 C2195 1.387 . S
C2194 H2198 0.950 . S
C2194 C2203 1.390 . S
C2195 C2194 1.387 . S
C2195 C2197 1.387 . S
H2196 C2203 0.950 . S
C2197 C2195 1.387 . S
C2197 C2199 1.390 . S
C2197 H2201 0.950 . S
H2198 C2194 0.950 . S
C2199 C2197 1.390 . S
C2199 C2200 1.387 . S
C2199 H2202 0.950 . S
C2200 C2199 1.387 . S
C2200 C2203 1.387 . S
H2201 C2197 0.950 . S
H2202 C2199 0.950 . S
C2203 C2194 1.390 . S
C2203 H2196 0.950 . S
C2203 C2200 1.387 . S
C2204 C2205 1.387 . S
C2204 H2208 0.950 . S
C2204 C2213 1.390 . S
C2205 C2204 1.387 . S
C2205 C2207 1.387 . S
H2206 C2213 0.950 . S
C2207 C2205 1.387 . S
C2207 C2209 1.390 . S
C2207 H2211 0.950 . S
H2208 C2204 0.950 . S
C2209 C2207 1.390 . S
C2209 C2210 1.387 . S
C2209 H2212 0.950 . S
C2210 C2209 1.387 . S
C2210 C2213 1.387 . S
H2211 C2207 0.950 . S
H2212 C2209 0.950 . S
C2213 C2204 1.390 . S
C2213 H2206 0.950 . S
C2213 C2210 1.387 . S
C2214 C2215 1.387 . S
C2214 H2218 0.950 . S
C2214 C2223 1.390 . S
C2215 C2214 1.387 . S
C2215 C2217 1.387 . S
H2216 C2223 0.950 . S
C2217 C2215 1.387 . S
C2217 C2219 1.390 . S
C2217 H2221 0.950 . S
H2218 C2214 0.950 . S
C2219 C2217 1.390 . S
C2219 C2220 1.387 . S
C2219 H2222 0.950 . S
C2220 C2219 1.387 . S
C2220 C2223 1.387 . S
H2221 C2217 0.950 . S
H2222 C2219 0.950 . S
C2223 C2214 1.390 . S
C2223 H2216 0.950 . S
C2223 C2220 1.387 . S
C2224 C2225 1.387 . S
C2224 H2228 0.950 . S
C2224 C2233 1.390 . S
C2225 C2224 1.387 . S
C2225 C2227 1.387 . S
H2226 C2233 0.950 . S
C2227 C2225 1.387 . S
C2227 C2229 1.390 . S
C2227 H2231 0.950 . S
H2228 C2224 0.950 . S
C2229 C2227 1.390 . S
C2229 C2230 1.387 . S
C2229 H2232 0.950 . S
C2230 C2229 1.387 . S
C2230 C2233 1.387 . S
H2231 C2227 0.950 . S
H2232 C2229 0.950 . S
C2233 C2224 1.390 . S
C2233 H2226 0.950 . S
C2233 C2230 1.387 . S
C2234 C2235 1.387 . S
C2234 H2238 0.950 . S
C2234 C2243 1.390 . S
C2235 C2234 1.387 . S
C2235 C2237 1.387 . S
H2236 C2243 0.950 . S
C2237 C2235 1.387 . S
C2237 C2239 1.390 . S
C2237 H2241 0.950 . S
H2238 C2234 0.950 . S
C2239 C2237 1.390 . S
C2239 C2240 1.387 . S
C2239 H2242 0.950 . S
C2240 C2239 1.387 . S
C2240 C2243 1.387 . S
H2241 C2237 0.950 . S
H2242 C2239 0.950 . S
C2243 C2234 1.390 . S
C2243 H2236 0.950 . S
C2243 C2240 1.387 . S
C2244 C2245 1.387 . S
C2244 H2248 0.950 . S
C2244 C2253 1.390 . S
C2245 C2244 1.387 . S
C2245 C2247 1.387 . S
H2246 C2253 0.950 . S
C2247 C2245 1.387 . S
C2247 C2249 1.390 . S
C2247 H2251 0.950 . S
H2248 C2244 0.950 . S
C2249 C2247 1.390 . S
C2249 C2250 1.387 . S
C2249 H2252 0.950 . S
C2250 C2249 1.387 . S
C2250 C2253 1.387 . S
H2251 C2247 0.950 . S
H2252 C2249 0.950 . S
C2253 C2244 1.390 . S
C2253 H2246 0.950 . S
C2253 C2250 1.387 . S
C2254 C2255 1.387 . S
C2254 H2258 0.950 . S
C2254 C2263 1.390 . S
C2255 C2254 1.387 . S
C2255 C2257 1.387 . S
H2256 C2263 0.950 . S
C2257 C2255 1.387 . S
C2257 C2259 1.390 . S
C2257 H2261 0.950 . S
H2258 C2254 0.950 . S
C2259 C2257 1.390 . S
C2259 C2260 1.387 . S
C2259 H2262 0.950 . S
C2260 C2259 1.387 . S
C2260 C2263 1.387 . S
H2261 C2257 0.950 . S
H2262 C2259 0.950 . S
C2263 C2254 1.390 . S
C2263 H2256 0.950 . S
C2263 C2260 1.387 . S
C2264 C2265 1.387 . S
C2264 H2268 0.950 . S
C2264 C2273 1.390 . S
C2265 C2264 1.387 . S
C2265 C2267 1.387 . S
H2266 C2273 0.950 . S
C2267 C2265 1.387 . S
C2267 C2269 1.390 . S
C2267 H2271 0.950 . S
H2268 C2264 0.950 . S
C2269 C2267 1.390 . S
C2269 C2270 1.387 . S
C2269 H2272 0.950 . S
C2270 C2269 1.387 . S
C2270 C2273 1.387 . S
H2271 C2267 0.950 . S
H2272 C2269 0.950 . S
C2273 C2264 1.390 . S
C2273 H2266 0.950 . S
C2273 C2270 1.387 . S
C2274 C2275 1.387 . S
C2274 H2278 0.950 . S
C2274 C2283 1.390 . S
C2275 C2274 1.387 . S
C2275 C2277 1.387 . S
H2276 C2283 0.950 . S
C2277 C2275 1.387 . S
C2277 C2279 1.390 . S
C2277 H2281 0.950 . S
H2278 C2274 0.950 . S
C2279 C2277 1.390 . S
C2279 C2280 1.387 . S
C2279 H2282 0.950 . S
C2280 C2279 1.387 . S
C2280 C2283 1.387 . S
H2281 C2277 0.950 . S
H2282 C2279 0.950 . S
C2283 C2274 1.390 . S
C2283 H2276 0.950 . S
C2283 C2280 1.387 . S
C2284 C2285 1.387 . S
C2284 H2288 0.950 . S
C2284 C2293 1.390 . S
C2285 C2284 1.387 . S
C2285 C2287 1.387 . S
H2286 C2293 0.950 . S
C2287 C2285 1.387 . S
C2287 C2289 1.390 . S
C2287 H2291 0.950 . S
H2288 C2284 0.950 . S
C2289 C2287 1.390 . S
C2289 C2290 1.387 . S
C2289 H2292 0.950 . S
C2290 C2289 1.387 . S
C2290 C2293 1.387 . S
H2291 C2287 0.950 . S
H2292 C2289 0.950 . S
C2293 C2284 1.390 . S
C2293 H2286 0.950 . S
C2293 C2290 1.387 . S
C2294 C2295 1.387 . S
C2294 H2298 0.950 . S
C2294 C2303 1.390 . S
C2295 C2294 1.387 . S
C2295 C2297 1.387 . S
H2296 C2303 0.950 . S
C2297 C2295 1.387 . S
C2297 C2299 1.390 . S
C2297 H2301 0.950 . S
H2298 C2294 0.950 . S
C2299 C2297 1.390 . S
C2299 C2300 1.387 . S
C2299 H2302 0.950 . S
C2300 C2299 1.387 . S
C2300 C2303 1.387 . S
H2301 C2297 0.950 . S
H2302 C2299 0.950 . S
C2303 C2294 1.390 . S
C2303 H2296 0.950 . S
C2303 C2300 1.387 . S
C2304 C2305 1.387 . S
C2304 H2308 0.950 . S
C2304 C2313 1.390 . S
C2305 C2304 1.387 . S
C2305 C2307 1.387 . S
H2306 C2313 0.950 . S
C2307 C2305 1.387 . S
C2307 C2309 1.390 . S
C2307 H2311 0.950 . S
H2308 C2304 0.950 . S
C2309 C2307 1.390 . S
C2309 C2310 1.387 . S
C2309 H2312 0.950 . S
C2310 C2309 1.387 . S
C2310 C2313 1.387 . S
H2311 C2307 0.950 . S
H2312 C2309 0.950 . S
C2313 C2304 1.390 . S
C2313 H2306 0.950 . S
C2313 C2310 1.387 . S
C2314 C2315 1.387 . S
C2314 H2318 0.950 . S
C2314 C2323 1.390 . S
C2315 C2314 1.387 . S
C2315 C2317 1.387 . S
H2316 C2323 0.950 . S
C2317 C2315 1.387 . S
C2317 C2319 1.390 . S
C2317 H2321 0.950 . S
H2318 C2314 0.950 . S
C2319 C2317 1.390 . S
C2319 C2320 1.387 . S
C2319 H2322 0.950 . S
C2320 C2319 1.387 . S
C2320 C2323 1.387 . S
H2321 C2317 0.950 . S
H2322 C2319 0.950 . S
C2323 C2314 1.390 . S
C2323 H2316 0.950 . S
C2323 C2320 1.387 . S
C2324 C2325 1.387 . S
C2324 H2328 0.950 . S
C2324 C2333 1.390 . S
C2325 C2324 1.387 . S
C2325 C2327 1.387 . S
H2326 C2333 0.950 . S
C2327 C2325 1.387 . S
C2327 C2329 1.390 . S
C2327 H2331 0.950 . S
H2328 C2324 0.950 . S
C2329 C2327 1.390 . S
C2329 C2330 1.387 . S
C2329 H2332 0.950 . S
C2330 C2329 1.387 . S
C2330 C2333 1.387 . S
H2331 C2327 0.950 . S
H2332 C2329 0.950 . S
C2333 C2324 1.390 . S
C2333 H2326 0.950 . S
C2333 C2330 1.387 . S
C2334 C2335 1.387 . S
C2334 H2338 0.950 . S
C2334 C2343 1.390 . S
C2335 C2334 1.387 . S
C2335 C2337 1.387 . S
H2336 C2343 0.950 . S
C2337 C2335 1.387 . S
C2337 C2339 1.390 . S
C2337 H2341 0.950 . S
H2338 C2334 0.950 . S
C2339 C2337 1.390 . S
C2339 C2340 1.387 . S
C2339 H2342 0.950 . S
C2340 C2339 1.387 . S
C2340 C2343 1.387 . S
H2341 C2337 0.950 . S
H2342 C2339 0.950 . S
C2343 C2334 1.390 . S
C2343 H2336 0.950 . S
C2343 C2340 1.387 . S
C2344 C2345 1.387 . S
C2344 H2348 0.950 . S
C2344 C2353 1.390 . S
C2345 C2344 1.387 . S
C2345 C2347 1.387 . S
H2346 C2353 0.950 . S
C2347 C2345 1.387 . S
C2347 C2349 1.390 . S
C2347 H2351 0.950 . S
H2348 C2344 0.950 . S
C2349 C2347 1.390 . S
C2349 C2350 1.387 . S
C2349 H2352 0.950 . S
C2350 C2349 1.387 . S
C2350 C2353 1.387 . S
H2351 C2347 0.950 . S
H2352 C2349 0.950 . S
C2353 C2344 1.390 . S
C2353 H2346 0.950 . S
C2353 C2350 1.387 . S
C2354 C2355 1.387 . S
C2354 H2358 0.950 . S
C2354 C2363 1.390 . S
C2355 C2354 1.387 . S
C2355 C2357 1.387 . S
H2356 C2363 0.950 . S
C2357 C2355 1.387 . S
C2357 C2359 1.390 . S
C2357 H2361 0.950 . S
H2358 C2354 0.950 . S
C2359 C2357 1.390 . S
C2359 C2360 1.387 . S
C2359 H2362 0.950 . S
C2360 C2359 1.387 . S
C2360 C2363 1.387 . S
H2361 C2357 0.950 . S
H2362 C2359 0.950 . S
C2363 C2354 1.390 . S
C2363 H2356 0.950 . S
C2363 C2360 1.387 . S
C2364 C2365 1.387 . S
C2364 H2368 0.950 . S
C2364 C2373 1.390 . S
C2365 C2364 1.387 . S
C2365 C2367 1.387 . S
H2366 C2373 0.950 . S
C2367 C2365 1.387 . S
C2367 C2369 1.390 . S
C2367 H2371 0.950 . S
H2368 C2364 0.950 . S
C2369 C2367 1.390 . S
C2369 C2370 1.387 . S
C2369 H2372 0.950 . S
C2370 C2369 1.387 . S
C2370 C2373 1.387 . S
H2371 C2367 0.950 . S
H2372 C2369 0.950 . S
C2373 C2364 1.390 . S
C2373 H2366 0.950 . S
C2373 C2370 1.387 . S
C2374 C2375 1.387 . S
C2374 H2378 0.950 . S
C2374 C2383 1.390 . S
C2375 C2374 1.387 . S
C2375 C2377 1.387 . S
H2376 C2383 0.950 . S
C2377 C2375 1.387 . S
C2377 C2379 1.390 . S
C2377 H2381 0.950 . S
H2378 C2374 0.950 . S
C2379 C2377 1.390 . S
C2379 C2380 1.387 . S
C2379 H2382 0.950 . S
C2380 C2379 1.387 . S
C2380 C2383 1.387 . S
H2381 C2377 0.950 . S
H2382 C2379 0.950 . S
C2383 C2374 1.390 . S
C2383 H2376 0.950 . S
C2383 C2380 1.387 . S
C2384 C2385 1.387 . S
C2384 H2388 0.950 . S
C2384 C2393 1.390 . S
C2385 C2384 1.387 . S
C2385 C2387 1.387 . S
H2386 C2393 0.950 . S
C2387 C2385 1.387 . S
C2387 C2389 1.390 . S
C2387 H2391 0.950 . S
H2388 C2384 0.950 . S
C2389 C2387 1.390 . S
C2389 C2390 1.387 . S
C2389 H2392 0.950 . S
C2390 C2389 1.387 . S
C2390 C2393 1.387 . S
H2391 C2387 0.950 . S
H2392 C2389 0.950 . S
C2393 C2384 1.390 . S
C2393 H2386 0.950 . S
C2393 C2390 1.387 . S
C2394 C2395 1.387 . S
C2394 H2398 0.950 . S
C2394 C2403 1.390 . S
C2395 C2394 1.387 . S
C2395 C2397 1.387 . S
H2396 C2403 0.950 . S
C2397 C2395 1.387 . S
C2397 C2399 1.390 . S
C2397 H2401 0.950 . S
H2398 C2394 0.950 . S
C2399 C2397 1.390 . S
C2399 C2400 1.387 . S
C2399 H2402 0.950 . S
C2400 C2399 1.387 . S
C2400 C2403 1.387 . S
H2401 C2397 0.950 . S
H2402 C2399 0.950 . S
C2403 C2394 1.390 . S
C2403 H2396 0.950 . S
C2403 C2400 1.387 . S
C2404 C2405 1.387 . S
C2404 H2408 0.950 . S
C2404 C2413 1.390 . S
C2405 C2404 1.387 . S
C2405 C2407 1.387 . S
H2406 C2413 0.950 . S
C2407 C2405 1.387 . S
C2407 C2409 1.390 . S
C2407 H2411 0.950 . S
H2408 C2404 0.950 . S
C2409 C2407 1.390 . S
C2409 C2410 1.387 . S
C2409 H2412 0.950 . S
C2410 C2409 1.387 . S
C2410 C2413 1.387 . S
H2411 C2407 0.950 . S
H2412 C2409 0.950 . S
C2413 C2404 1.390 . S
C2413 H2406 0.950 . S
C2413 C2410 1.387 . S
C2414 C2415 1.387 . S
C2414 H2418 0.950 . S
C2414 C2423 1.390 . S
C2415 C2414 1.387 . S
C2415 C2417 1.387 . S
H2416 C2423 0.950 . S
C2417 C2415 1.387 . S
C2417 C2419 1.390 . S
C2417 H2421 0.950 . S
H2418 C2414 0.950 . S
C2419 C2417 1.390 . S
C2419 C2420 1.387 . S
C2419 H2422 0.950 . S
C2420 C2419 1.387 . S
C2420 C2423 1.387 . S
H2421 C2417 0.950 . S
H2422 C2419 0.950 . S
C2423 C2414 1.390 . S
C2423 H2416 0.950 . S
C2423 C2420 1.387 . S
C2424 C2425 1.387 . S
C2424 H2428 0.950 . S
C2424 C2433 1.390 . S
C2425 C2424 1.387 . S
C2425 C2427 1.387 . S
H2426 C2433 0.950 . S
C2427 C2425 1.387 . S
C2427 C2429 1.390 . S
C2427 H2431 0.950 . S
H2428 C2424 0.950 . S
C2429 C2427 1.390 . S
C2429 C2430 1.387 . S
C2429 H2432 0.950 . S
C2430 C2429 1.387 . S
C2430 C2433 1.387 . S
H2431 C2427 0.950 . S
H2432 C2429 0.950 . S
C2433 C2424 1.390 . S
C2433 H2426 0.950 . S
C2433 C2430 1.387 . S
C2434 C2435 1.387 . S
C2434 H2438 0.950 . S
C2434 C2443 1.390 . S
C2435 C2434 1.387 . S
C2435 C2437 1.387 . S
H2436 C2443 0.950 . S
C2437 C2435 1.387 . S
C2437 C2439 1.390 . S
C2437 H2441 0.950 . S
H2438 C2434 0.950 . S
C2439 C2437 1.390 . S
C2439 C2440 1.387 . S
C2439 H2442 0.950 . S
C2440 C2439 1.387 . S
C2440 C2443 1.387 . S
H2441 C2437 0.950 . S
H2442 C2439 0.950 . S
C2443 C2434 1.390 . S
C2443 H2436 0.950 . S
C2443 C2440 1.387 . S
C2444 C2445 1.387 . S
C2444 H2448 0.950 . S
C2444 C2453 1.390 . S
C2445 C2444 1.387 . S
C2445 C2447 1.387 . S
H2446 C2453 0.950 . S
C2447 C2445 1.387 . S
C2447 C2449 1.390 . S
C2447 H2451 0.950 . S
H2448 C2444 0.950 . S
C2449 C2447 1.390 . S
C2449 C2450 1.387 . S
C2449 H2452 0.950 . S
C2450 C2449 1.387 . S
C2450 C2453 1.387 . S
H2451 C2447 0.950 . S
H2452 C2449 0.950 . S
C2453 C2444 1.390 . S
C2453 H2446 0.950 . S
C2453 C2450 1.387 . S
C2454 C2455 1.387 . S
C2454 H2458 0.950 . S
C2454 C2463 1.390 . S
C2455 C2454 1.387 . S
C2455 C2457 1.387 . S
H2456 C2463 0.950 . S
C2457 C2455 1.387 . S
C2457 C2459 1.390 . S
C2457 H2461 0.950 . S
H2458 C2454 0.950 . S
C2459 C2457 1.390 . S
C2459 C2460 1.387 . S
C2459 H2462 0.950 . S
C2460 C2459 1.387 . S
C2460 C2463 1.387 . S
H2461 C2457 0.950 . S
H2462 C2459 0.950 . S
C2463 C2454 1.390 . S
C2463 H2456 0.950 . S
C2463 C2460 1.387 . S
C2464 C2465 1.387 . S
C2464 H2468 0.950 . S
C2464 C2473 1.390 . S
C2465 C2464 1.387 . S
C2465 C2467 1.387 . S
H2466 C2473 0.950 . S
C2467 C2465 1.387 . S
C2467 C2469 1.390 . S
C2467 H2471 0.950 . S
H2468 C2464 0.950 . S
C2469 C2467 1.390 . S
C2469 C2470 1.387 . S
C2469 H2472 0.950 . S
C2470 C2469 1.387 . S
C2470 C2473 1.387 . S
H2471 C2467 0.950 . S
H2472 C2469 0.950 . S
C2473 C2464 1.390 . S
C2473 H2466 0.950 . S
C2473 C2470 1.387 . S
C2474 C2475 1.387 . S
C2474 H2478 0.950 . S
C2474 C2483 1.390 . S
C2475 C2474 1.387 . S
C2475 C2477 1.387 . S
H2476 C2483 0.950 . S
C2477 C2475 1.387 . S
C2477 C2479 1.390 . S
C2477 H2481 0.950 . S
H2478 C2474 0.950 . S
C2479 C2477 1.390 . S
C2479 C2480 1.387 . S
C2479 H2482 0.950 . S
C2480 C2479 1.387 . S
C2480 C2483 1.387 . S
H2481 C2477 0.950 . S
H2482 C2479 0.950 . S
C2483 C2474 1.390 . S
C2483 H2476 0.950 . S
C2483 C2480 1.387 . S
C2484 C2485 1.387 . S
C2484 H2488 0.950 . S
C2484 C2493 1.390 . S
C2485 C2484 1.387 . S
C2485 C2487 1.387 . S
H2486 C2493 0.950 . S
C2487 C2485 1.387 . S
C2487 C2489 1.390 . S
C2487 H2491 0.950 . S
H2488 C2484 0.950 . S
C2489 C2487 1.390 . S
C2489 C2490 1.387 . S
C2489 H2492 0.950 . S
C2490 C2489 1.387 . S
C2490 C2493 1.387 . S
H2491 C2487 0.950 . S
H2492 C2489 0.950 . S
C2493 C2484 1.390 . S
C2493 H2486 0.950 . S
C2493 C2490 1.387 . S
C2494 C2495 1.387 . S
C2494 H2498 0.950 . S
C2494 C2503 1.390 . S
C2495 C2494 1.387 . S
C2495 C2497 1.387 . S
H2496 C2503 0.950 . S
C2497 C2495 1.387 . S
C2497 C2499 1.390 . S
C2497 H2501 0.950 . S
H2498 C2494 0.950 . S
C2499 C2497 1.390 . S
C2499 C2500 1.387 . S
C2499 H2502 0.950 . S
C2500 C2499 1.387 . S
C2500 C2503 1.387 . S
H2501 C2497 0.950 . S
H2502 C2499 0.950 . S
C2503 C2494 1.390 . S
C2503 H2496 0.950 . S
C2503 C2500 1.387 . S
C2504 C2505 1.387 . S
C2504 H2508 0.950 . S
C2504 C2513 1.390 . S
C2505 C2504 1.387 . S
C2505 C2507 1.387 . S
H2506 C2513 0.950 . S
C2507 C2505 1.387 . S
C2507 C2509 1.390 . S
C2507 H2511 0.950 . S
H2508 C2504 0.950 . S
C2509 C2507 1.390 . S
C2509 C2510 1.387 . S
C2509 H2512 0.950 . S
C2510 C2509 1.387 . S
C2510 C2513 1.387 . S
H2511 C2507 0.950 . S
H2512 C2509 0.950 . S
C2513 C2504 1.390 . S
C2513 H2506 0.950 . S
C2513 C2510 1.387 . S
C2514 C2515 1.387 . S
C2514 H2518 0.950 . S
C2514 C2523 1.390 . S
C2515 C2514 1.387 . S
C2515 C2517 1.387 . S
H2516 C2523 0.950 . S
C2517 C2515 1.387 . S
C2517 C2519 1.390 . S
C2517 H2521 0.950 . S
H2518 C2514 0.950 . S
C2519 C2517 1.390 . S
C2519 C2520 1.387 . S
C2519 H2522 0.950 . S
C2520 C2519 1.387 . S
C2520 C2523 1.387 . S
H2521 C2517 0.950 . S
H2522 C2519 0.950 . S
C2523 C2514 1.390 . S
C2523 H2516 0.950 . S
C2523 C2520 1.387 . S
C2524 C2525 1.387 . S
C2524 H2528 0.950 . S
C2524 C2533 1.390 . S
C2525 C2524 1.387 . S
C2525 C2527 1.387 . S
H2526 C2533 0.950 . S
C2527 C2525 1.387 . S
C2527 C2529 1.390 . S
C2527 H2531 0.950 . S
H2528 C2524 0.950 . S
C2529 C2527 1.390 . S
C2529 C2530 1.387 . S
C2529 H2532 0.950 . S
C2530 C2529 1.387 . S
C2530 C2533 1.387 . S
H2531 C2527 0.950 . S
H2532 C2529 0.950 . S
C2533 C2524 1.390 . S
C2533 H2526 0.950 . S
C2533 C2530 1.387 . S
C2534 C2535 1.387 . S
C2534 H2538 0.950 . S
C2534 C2543 1.390 . S
C2535 C2534 1.387 . S
C2535 C2537 1.387 . S
H2536 C2543 0.950 . S
C2537 C2535 1.387 . S
C2537 C2539 1.390 . S
C2537 H2541 0.950 . S
H2538 C2534 0.950 . S
C2539 C2537 1.390 . S
C2539 C2540 1.387 . S
C2539 H2542 0.950 . S
C2540 C2539 1.387 . S
C2540 C2543 1.387 . S
H2541 C2537 0.950 . S
H2542 C2539 0.950 . S
C2543 C2534 1.390 . S
C2543 H2536 0.950 . S
C2543 C2540 1.387 . S
C2544 C2545 1.387 . S
C2544 H2548 0.950 . S
C2544 C2553 1.390 . S
C2545 C2544 1.387 . S
C2545 C2547 1.387 . S
H2546 C2553 0.950 . S
C2547 C2545 1.387 . S
C2547 C2549 1.390 . S
C2547 H2551 0.950 . S
H2548 C2544 0.950 . S
C2549 C2547 1.390 . S
C2549 C2550 1.387 . S
C2549 H2552 0.950 . S
C2550 C2549 1.387 . S
C2550 C2553 1.387 . S
H2551 C2547 0.950 . S
H2552 C2549 0.950 . S
C2553 C2544 1.390 . S
C2553 H2546 0.950 . S
C2553 C2550 1.387 . S
C2554 C2555 1.387 . S
C2554 H2558 0.950 . S
C2554 C2563 1.390 . S
C2555 C2554 1.387 . S
C2555 C2557 1.387 . S
H2556 C2563 0.950 . S
C2557 C2555 1.387 . S
C2557 C2559 1.390 . S
C2557 H2561 0.950 . S
H2558 C2554 0.950 . S
C2559 C2557 1.390 . S
C2559 C2560 1.387 . S
C2559 H2562 0.950 . S
C2560 C2559 1.387 . S
C2560 C2563 1.387 . S
H2561 C2557 0.950 . S
H2562 C2559 0.950 . S
C2563 C2554 1.390 . S
C2563 H2556 0.950 . S
C2563 C2560 1.387 . S
C2564 C2565 1.387 . S
C2564 H2568 0.950 . S
C2564 C2573 1.390 . S
C2565 C2564 1.387 . S
C2565 C2567 1.387 . S
H2566 C2573 0.950 . S
C2567 C2565 1.387 . S
C2567 C2569 1.390 . S
C2567 H2571 0.950 . S
H2568 C2564 0.950 . S
C2569 C2567 1.390 . S
C2569 C2570 1.387 . S
C2569 H2572 0.950 . S
C2570 C2569 1.387 . S
C2570 C2573 1.387 . S
H2571 C2567 0.950 . S
H2572 C2569 0.950 . S
C2573 C2564 1.390 . S
C2573 H2566 0.950 . S
C2573 C2570 1.387 . S
C2574 C2575 1.387 . S
C2574 H2578 0.950 . S
C2574 C2583 1.390 . S
C2575 C2574 1.387 . S
C2575 C2577 1.387 . S
H2576 C2583 0.950 . S
C2577 C2575 1.387 . S
C2577 C2579 1.390 . S
C2577 H2581 0.950 . S
H2578 C2574 0.950 . S
C2579 C2577 1.390 . S
C2579 C2580 1.387 . S
C2579 H2582 0.950 . S
C2580 C2579 1.387 . S
C2580 C2583 1.387 . S
H2581 C2577 0.950 . S
H2582 C2579 0.950 . S
C2583 C2574 1.390 . S
C2583 H2576 0.950 . S
C2583 C2580 1.387 . S
C2584 C2585 1.387 . S
C2584 H2588 0.950 . S
C2584 C2593 1.390 . S
C2585 C2584 1.387 . S
C2585 C2587 1.387 . S
H2586 C2593 0.950 . S
C2587 C2585 1.387 . S
C2587 C2589 1.390 . S
C2587 H2591 0.950 . S
H2588 C2584 0.950 . S
C2589 C2587 1.390 . S
C2589 C2590 1.387 . S
C2589 H2592 0.950 . S
C2590 C2589 1.387 . S
C2590 C2593 1.387 . S
H2591 C2587 0.950 . S
H2592 C2589 0.950 . S
C2593 C2584 1.390 . S
C2593 H2586 0.950 . S
C2593 C2590 1.387 . S
C2594 C2595 1.387 . S
C2594 H2598 0.950 . S
C2594 C2603 1.390 . S
C2595 C2594 1.387 . S
C2595 C2597 1.387 . S
H2596 C2603 0.950 . S
C2597 C2595 1.387 . S
C2597 C2599 1.390 . S
C2597 H2601 0.950 . S
H2598 C2594 0.950 . S
C2599 C2597 1.390 . S
C2599 C2600 1.387 . S
C2599 H2602 0.950 . S
C2600 C2599 1.387 . S
C2600 C2603 1.387 . S
H2601 C2597 0.950 . S
H2602 C2599 0.950 . S
C2603 C2594 1.390 . S
C2603 H2596 0.950 . S
C2603 C2600 1.387 . S
C2604 C2605 1.387 . S
C2604 H2608 0.950 . S
C2604 C2613 1.390 . S
C2605 C2604 1.387 . S
C2605 C2607 1.387 . S
H2606 C2613 0.950 . S
C2607 C2605 1.387 . S
C2607 C2609 1.390 . S
C2607 H2611 0.950 . S
H2608 C2604 0.950 . S
C2609 C2607 1.390 . S
C2609 C2610 1.387 . S
C2609 H2612 0.950 . S
C2610 C2609 1.387 . S
C2610 C2613 1.387 . S
H2611 C2607 0.950 . S
H2612 C2609 0.950 . S
C2613 C2604 1.390 . S
C2613 H2606 0.950 . S
C2613 C2610 1.387 . S
C2614 C2615 1.387 . S
C2614 H2618 0.950 . S
C2614 C2623 1.390 . S
C2615 C2614 1.387 . S
C2615 C2617 1.387 . S
H2616 C2623 0.950 . S
C2617 C2615 1.387 . S
C2617 C2619 1.390 . S
C2617 H2621 0.950 . S
H2618 C2614 0.950 . S
C2619 C2617 1.390 . S
C2619 C2620 1.387 . S
C2619 H2622 0.950 . S
C2620 C2619 1.387 . S
C2620 C2623 1.387 . S
H2621 C2617 0.950 . S
H2622 C2619 0.950 . S
C2623 C2614 1.390 . S
C2623 H2616 0.950 . S
C2623 C2620 1.387 . S
C2624 C2625 1.387 . S
C2624 H2628 0.950 . S
C2624 C2633 1.390 . S
C2625 C2624 1.387 . S
C2625 C2627 1.387 . S
H2626 C2633 0.950 . S
C2627 C2625 1.387 . S
C2627 C2629 1.390 . S
C2627 H2631 0.950 . S
H2628 C2624 0.950 . S
C2629 C2627 1.390 . S
C2629 C2630 1.387 . S
C2629 H2632 0.950 . S
C2630 C2629 1.387 . S
C2630 C2633 1.387 . S
H2631 C2627 0.950 . S
H2632 C2629 0.950 . S
C2633 C2624 1.390 . S
C2633 H2626 0.950 . S
C2633 C2630 1.387 . S
C2634 C2635 1.387 . S
C2634 H2638 0.950 . S
C2634 C2643 1.390 . S
C2635 C2634 1.387 . S
C2635 C2637 1.387 . S
H2636 C2643 0.950 . S
C2637 C2635 1.387 . S
C2637 C2639 1.390 . S
C2637 H2641 0.950 . S
H2638 C2634 0.950 . S
C2639 C2637 1.390 . S
C2639 C2640 1.387 . S
C2639 H2642 0.950 . S
C2640 C2639 1.387 . S
C2640 C2643 1.387 . S
H2641 C2637 0.950 . S
H2642 C2639 0.950 . S
C2643 C2634 1.390 . S
C2643 H2636 0.950 . S
C2643 C2640 1.387 . S
C2644 C2645 1.387 . S
C2644 H2648 0.950 . S
C2644 C2653 1.390 . S
C2645 C2644 1.387 . S
C2645 C2647 1.387 . S
H2646 C2653 0.950 . S
C2647 C2645 1.387 . S
C2647 C2649 1.390 . S
C2647 H2651 0.950 . S
H2648 C2644 0.950 . S
C2649 C2647 1.390 . S
C2649 C2650 1.387 . S
C2649 H2652 0.950 . S
C2650 C2649 1.387 . S
C2650 C2653 1.387 . S
H2651 C2647 0.950 . S
H2652 C2649 0.950 . S
C2653 C2644 1.390 . S
C2653 H2646 0.950 . S
C2653 C2650 1.387 . S
C2654 C2655 1.387 . S
C2654 H2658 0.950 . S
C2654 C2663 1.390 . S
C2655 C2654 1.387 . S
C2655 C2657 1.387 . S
H2656 C2663 0.950 . S
C2657 C2655 1.387 . S
C2657 C2659 1.390 . S
C2657 H2661 0.950 . S
H2658 C2654 0.950 . S
C2659 C2657 1.390 . S
C2659 C2660 1.387 . S
C2659 H2662 0.950 . S
C2660 C2659 1.387 . S
C2660 C2663 1.387 . S
H2661 C2657 0.950 . S
H2662 C2659 0.950 . S
C2663 C2654 1.390 . S
C2663 H2656 0.950 . S
C2663 C2660 1.387 . S
C1710 N1164 1.460 . S
C1705 C31 1.504 . S
C1720 C1191 1.595 . S
C1715 C61 1.595 . S
C1725 C73 1.524 . S
C1730 C1205 1.518 . S
C1740 N1223 1.451 . S
C1735 C133 1.480 . S
C1745 C175 1.576 . S
C1750 C1228 1.581 . S
C1755 C211 1.516 . S
C1760 C1168 1.525 . S
C1765 C241 1.437 . S
C1770 N1187 1.401 . S
C1780 N1200 1.456 . S
C1775 C253 1.495 . S
C1790 N1246 1.410 . S
C1785 C1 1.444 . S
C1795 C37 1.532 . S
C1800 N1269 1.508 . S
C1805 C103 1.585 . S
C1810 N1292 1.578 . S
C1820 N1325 1.426 . S
C1815 C139 1.471 . S
C1825 C145 1.545 . S
C1830 C1352 1.538 . S
C1840 C1375 1.578 . S
C1835 C205 1.578 . S
C1845 C247 1.519 . S
C1850 C1398 1.528 . S
C1860 C1412 1.447 . S
C1855 C283 1.452 . S
C1865 C25 1.449 . S
C1870 C1329 1.454 . S
C1875 C169 1.479 . S
C1880 N1371 1.448 . S
C1890 N1394 1.440 . S
C1885 C181 1.486 . S
C1895 C217 1.484 . S
C1900 N1407 1.452 . S
C1910 N1348 1.413 . S
C1905 C277 1.466 . S
C1920 C1274 1.665 . S
C1915 C97 1.667 . S
C1925 C109 1.523 . S
C1930 C1297 1.525 . S
C1940 C1251 1.604 . S
C1935 C67 1.605 . S
C1950 C1444 1.465 . S
C1945 C319 1.460 . S
C1955 C349 1.602 . S
C1960 C1458 1.601 . S
C1965 C361 1.516 . S
C1970 N1486 1.462 . S
C1980 N1499 1.438 . S
C1975 C421 1.466 . S
C1985 C463 1.590 . S
C1990 C1504 1.595 . S
C1995 C499 1.515 . S
C2000 N1440 1.461 . S
C2005 C529 1.527 . S
C2010 N1453 1.506 . S
C2015 C541 1.462 . S
C2020 C1490 1.452 . S
C2030 N1338 1.419 . S
C2025 C289 1.446 . S
C2035 C325 1.514 . S
C2040 N1522 1.464 . S
C2050 N1384 1.462 . S
C2045 C391 1.487 . S
C2055 C427 1.535 . S
C2060 C1559 1.546 . S
C2065 C433 1.580 . S
C2070 C1260 1.583 . S
C2080 C1573 1.605 . S
C2075 C493 1.605 . S
C2085 C535 1.548 . S
C2090 C1306 1.551 . S
C2100 N1591 1.403 . S
C2095 C571 1.445 . S
C2105 C313 1.466 . S
C2110 N1555 1.428 . S
C2120 N1568 1.482 . S
C2115 C457 1.511 . S
C2125 C469 1.490 . S
C2130 N1302 1.438 . S
C2140 C1596 1.447 . S
C2135 C505 1.442 . S
C2145 C565 1.443 . S
C2150 N1256 1.400 . S
C2155 C385 1.572 . S
C2160 C1527 1.572 . S
C2165 C397 1.567 . S
C2170 C1389 1.569 . S
C2175 C355 1.595 . S
C2180 C1343 1.598 . S
C2185 C607 1.521 . S
C2190 C1481 1.529 . S
C2200 C1513 1.541 . S
C2195 C637 1.549 . S
C2205 C649 1.487 . S
C2210 N1430 1.446 . S
C2215 C709 1.454 . S
C2220 N1463 1.420 . S
C2225 C751 1.591 . S
C2230 C1467 1.592 . S
C2235 C787 1.554 . S
C2240 N1476 1.531 . S
C2250 N1509 1.373 . S
C2245 C817 1.411 . S
C2255 C829 1.500 . S
C2260 C1435 1.500 . S
C2270 N1624 1.433 . S
C2265 C577 1.472 . S
C2275 C613 1.470 . S
C2280 N1361 1.438 . S
C2290 N1647 1.393 . S
C2285 C679 1.454 . S
C2295 C715 1.517 . S
C2300 N1417 1.474 . S
C2305 C721 1.550 . S
C2310 C1665 1.555 . S
C2315 C781 1.665 . S
C2320 C1283 1.666 . S
C2330 N1683 1.399 . S
C2325 C823 1.431 . S
C2335 C859 1.494 . S
C2340 C1320 1.494 . S
C2350 C1421 1.503 . S
C2345 C601 1.495 . S
C2360 N1279 1.483 . S
C2355 C745 1.531 . S
C2365 C757 1.580 . S
C2370 C1688 1.576 . S
C2375 C793 1.403 . S
C2380 N1315 1.365 . S
C2390 N1660 1.474 . S
C2385 C853 1.500 . S
C2400 C1366 1.580 . S
C2395 C673 1.579 . S
C2410 C1651 1.580 . S
C2405 C685 1.577 . S
C2420 C1628 1.575 . S
C2415 C643 1.566 . S
C2425 C895 1.417 . S
C2430 N1210 1.378 . S
C2435 C925 1.566 . S
C2440 C1237 1.559 . S
C2450 C1159 1.548 . S
C2445 C937 1.551 . S
C2460 N1177 1.388 . S
C2455 C997 1.417 . S
C2470 C1182 1.600 . S
C2465 C1039 1.601 . S
C2480 C1214 1.555 . S
C2475 C1075 1.539 . S
C2490 N1233 1.498 . S
C2485 C1105 1.542 . S
C2495 C1117 1.525 . S
C2500 N1154 1.494 . S
C2505 C865 1.391 . S
C2510 N1670 1.352 . S
C2520 N1578 1.461 . S
C2515 C901 1.494 . S
C2530 C1697 1.611 . S
C2525 C967 1.600 . S
C2540 C1605 1.406 . S
C2535 C1003 1.401 . S
C2545 C1009 1.574 . S
C2550 C1619 1.577 . S
C2560 C1536 1.589 . S
C2555 C1069 1.593 . S
C2570 C1642 1.651 . S
C2565 C1111 1.647 . S
C2575 C1147 1.501 . S
C2580 N1545 1.446 . S
C2590 N1601 1.358 . S
C2585 C889 1.391 . S
C2600 N1532 1.451 . S
C2595 C1033 1.480 . S
C2610 N1637 1.409 . S
C2605 C1045 1.435 . S
C2615 C1081 1.512 . S
C2620 C1550 1.518 . S
C2625 C1141 1.457 . S
C2630 N1614 1.418 . S
C2635 C961 1.667 . S
C2640 C1582 1.665 . S
C2645 C973 1.442 . S
C2650 N1693 1.406 . S
C2660 C1674 1.550 . S
C2655 C931 1.551 . S
