# Generated by pormake.
# Topology anh, (6,3)-cn, num edge types: 1
# Building blocks:
#     Node 0, Type 0, BuildingBlock: BETFEN_clean_sbu_0, # of connection points: 6
#     Node 1, Type 0, BuildingBlock: BETFEN_clean_sbu_0, # of connection points: 6
#     Node 2, Type 0, BuildingBlock: BETFEN_clean_sbu_0, # of connection points: 6
#     Node 3, Type 1, BuildingBlock: BETDIP_clean_linker_0, # of connection points: 3
#     Node 4, Type 1, BuildingBlock: BETDIP_clean_linker_0, # of connection points: 3
#     Node 5, Type 1, BuildingBlock: BETDIP_clean_linker_0, # of connection points: 3
#     Node 6, Type 1, BuildingBlock: BETDIP_clean_linker_0, # of connection points: 3
#     Node 7, Type 1, BuildingBlock: BETDIP_clean_linker_0, # of connection points: 3
#     Node 8, Type 1, BuildingBlock: BETDIP_clean_linker_0, # of connection points: 3
#     Edge 9, Type (0, 1), BuildingBlock: ZUJKAS_clean_linker_0, # of connection points: 2
#     Edge 10, Type (0, 1), BuildingBlock: ZUJKAS_clean_linker_0, # of connection points: 2
#     Edge 11, Type (0, 1), BuildingBlock: ZUJKAS_clean_linker_0, # of connection points: 2
#     Edge 12, Type (0, 1), BuildingBlock: ZUJKAS_clean_linker_0, # of connection points: 2
#     Edge 13, Type (0, 1), BuildingBlock: ZUJKAS_clean_linker_0, # of connection points: 2
#     Edge 14, Type (0, 1), BuildingBlock: ZUJKAS_clean_linker_0, # of connection points: 2
#     Edge 15, Type (0, 1), BuildingBlock: ZUJKAS_clean_linker_0, # of connection points: 2
#     Edge 16, Type (0, 1), BuildingBlock: ZUJKAS_clean_linker_0, # of connection points: 2
#     Edge 17, Type (0, 1), BuildingBlock: ZUJKAS_clean_linker_0, # of connection points: 2
#     Edge 18, Type (0, 1), BuildingBlock: ZUJKAS_clean_linker_0, # of connection points: 2
#     Edge 19, Type (0, 1), BuildingBlock: ZUJKAS_clean_linker_0, # of connection points: 2
#     Edge 20, Type (0, 1), BuildingBlock: ZUJKAS_clean_linker_0, # of connection points: 2
#     Edge 21, Type (0, 1), BuildingBlock: ZUJKAS_clean_linker_0, # of connection points: 2
#     Edge 22, Type (0, 1), BuildingBlock: ZUJKAS_clean_linker_0, # of connection points: 2
#     Edge 23, Type (0, 1), BuildingBlock: ZUJKAS_clean_linker_0, # of connection points: 2
#     Edge 24, Type (0, 1), BuildingBlock: ZUJKAS_clean_linker_0, # of connection points: 2
#     Edge 25, Type (0, 1), BuildingBlock: ZUJKAS_clean_linker_0, # of connection points: 2
#     Edge 26, Type (0, 1), BuildingBlock: ZUJKAS_clean_linker_0, # of connection points: 2
# Relax obj value: 0.131
# Max RMSD: 0.178
# Mean RMSD: 0.126
data_MOF--net-anh--node1-BETFEN_clean_sbu_0--node2-BETDIP_clean_linker_0--edge1-ZUJKAS_clean_linker_0
_symmetry_space_group_name_H-M    P1
_symmetry_Int_Tables_number       1
_symmetry_cell_setting            triclinic
loop_
_symmetry_equiv_pos_as_xyz
'x, y, z'
_cell_length_a     38.860398
_cell_length_b     40.593975
_cell_length_c     64.471797
_cell_angle_alpha  93.21744
_cell_angle_beta   93.318869
_cell_angle_gamma 106.98705
loop_
_atom_site_label
_atom_site_type_symbol
_atom_site_fract_x
_atom_site_fract_y
_atom_site_fract_z
_atom_type_partial_charge
Pr0 Pr 0.05577 0.56258 0.15453 0.0
Pr1 Pr 0.07522 0.63769 0.14548 0.0
C2 C 0.0292 0.49985 0.16908 0.0
C3 C 0.99417 0.47391 0.17096 0.0
C4 C 0.99096 0.4388 0.16704 0.0
C5 C 0.95824 0.41364 0.16911 0.0
C6 C 0.92803 0.42311 0.17523 0.0
C7 C 0.93126 0.45846 0.17887 0.0
C8 C 0.96399 0.48362 0.17671 0.0
C9 C 0.05972 0.5734 0.11229 0.0
C10 C 0.98991 0.59958 0.14738 0.0
C11 C 0.10199 0.70098 0.13167 0.0
C12 C 0.13614 0.72913 0.13415 0.0
C13 C 0.13621 0.76282 0.13046 0.0
C14 C 0.16824 0.79009 0.13353 0.0
C15 C 0.20081 0.78407 0.14029 0.0
C16 C 0.20066 0.75011 0.14375 0.0
C17 C 0.16854 0.72291 0.14082 0.0
C18 C 0.07116 0.62648 0.18767 0.0
C19 C 0.14118 0.60005 0.15162 0.0
O20 O 0.03641 0.52883 0.18075 0.0
O21 O 0.03976 0.50409 0.15027 0.0
O22 O 0.04496 0.58882 0.12493 0.0
O23 O 0.07224 0.55091 0.12119 0.0
O24 O 1.01298 0.62409 0.13833 0.0
O25 O 1.00067 0.57582 0.15684 0.0
O26 O 0.10235 0.67249 0.12124 0.0
O27 O 0.08381 0.69544 0.1482 0.0
O28 O 0.08612 0.61145 0.17497 0.0
O29 O 0.0589 0.64923 0.17893 0.0
O30 O 0.11815 0.57438 0.15983 0.0
O31 O 0.13056 0.62494 0.14344 0.0
H32 H 1.01387 0.4308 0.16245 0.0
H33 H 0.9566 0.38674 0.16583 0.0
H34 H 0.90874 0.46672 0.18383 0.0
H35 H 0.96578 0.51061 0.17976 0.0
H36 H 0.11141 0.76809 0.12536 0.0
H37 H 0.16755 0.8159 0.13057 0.0
H38 H 0.22519 0.74471 0.14923 0.0
H39 H 0.16889 0.69711 0.144 0.0
Pr40 Pr 0.56983 0.0898 0.50585 0.0
Pr41 Pr 0.49203 0.06942 0.51531 0.0
C42 C 0.634 0.11717 0.4901 0.0
C43 C 0.65956 0.15149 0.48798 0.0
C44 C 0.69668 0.15542 0.48902 0.0
C45 C 0.72144 0.18775 0.48712 0.0
C46 C 0.70953 0.21685 0.48411 0.0
C47 C 0.67221 0.2128 0.48317 0.0
C48 C 0.64747 0.18044 0.48512 0.0
C49 C 0.56001 0.08372 0.54784 0.0
C50 C 0.52949 0.15385 0.51405 0.0
C51 C 0.42668 0.04008 0.52914 0.0
C52 C 0.39979 1.00578 0.52575 0.0
C53 C 0.40114 0.98307 0.5088 0.0
C54 C 0.3752 0.95075 0.50536 0.0
C55 C 0.34749 0.94033 0.5189 0.0
C56 C 0.34666 0.9631 0.53607 0.0
C57 C 0.37256 0.99553 0.53942 0.0
C58 C 0.50285 0.07307 0.47303 0.0
C59 C 0.533 1.00551 0.50942 0.0
O60 O 0.60306 0.1092 0.47894 0.0
O61 O 0.63103 0.10699 0.50896 0.0
O62 O 0.54294 0.09822 0.53591 0.0
O63 O 0.58408 0.07337 0.53843 0.0
O64 O 0.50261 0.13014 0.5214 0.0
O65 O 0.55616 0.14429 0.50589 0.0
O66 O 0.45696 0.04141 0.53961 0.0
O67 O 0.43144 0.05862 0.51302 0.0
O68 O 0.51916 0.05935 0.48576 0.0
O69 O 0.47891 0.08448 0.48179 0.0
O70 O 0.56029 1.02879 0.50204 0.0
O71 O 0.50577 1.01534 0.51653 0.0
H72 H 0.70654 0.1334 0.49123 0.0
H73 H 0.74991 0.18983 0.48765 0.0
H74 H 0.66213 0.23471 0.48114 0.0
H75 H 0.61893 0.17804 0.48439 0.0
H76 H 0.4221 0.99048 0.49811 0.0
H77 H 0.3765 0.93424 0.49183 0.0
H78 H 0.32614 0.9558 0.54701 0.0
H79 H 0.37128 1.01264 0.55268 0.0
Pr80 Pr 0.50905 0.51946 0.81538 0.0
Pr81 Pr 0.53974 0.5989 0.8339 0.0
C82 C 0.4899 0.45496 0.79718 0.0
C83 C 0.48401 0.42127 0.80599 0.0
C84 C 0.50703 0.41722 0.82263 0.0
C85 C 0.5001 0.38587 0.83182 0.0
C86 C 0.46973 0.35802 0.82478 0.0
C87 C 0.4465 0.36233 0.80825 0.0
C88 C 0.45364 0.39367 0.79893 0.0
C89 C 0.5114 0.53108 0.85862 0.0
C90 C 0.59854 0.55609 0.82384 0.0
C91 C 0.5597 0.65539 0.86072 0.0
C92 C 0.55799 0.69102 0.86292 0.0
C93 C 0.55861 0.71031 0.84552 0.0
C94 C 0.55998 0.74505 0.84809 0.0
C95 C 0.56048 0.76105 0.86811 0.0
C96 C 0.55848 0.74115 0.88542 0.0
C97 C 0.55731 0.70642 0.88283 0.0
C98 C 0.53027 0.59535 0.79004 0.0
C99 C 0.45202 0.56408 0.82095 0.0
O100 O 0.52315 0.47531 0.79858 0.0
O101 O 0.46637 0.47118 0.80151 0.0
O102 O 0.53482 0.54661 0.84708 0.0
O103 O 0.48686 0.50618 0.84809 0.0
O104 O 0.5924 0.58223 0.83462 0.0
O105 O 0.57212 0.53117 0.81348 0.0
O106 O 0.52931 0.63074 0.86148 0.0
O107 O 0.58047 0.64862 0.84677 0.0
O108 O 0.52372 0.57103 0.80173 0.0
O109 O 0.54253 0.62454 0.80134 0.0
O110 O 0.45995 0.5408 0.80844 0.0
O111 O 0.47673 0.58531 0.8344 0.0
H112 H 0.53037 0.43833 0.82861 0.0
H113 H 0.51897 0.38335 0.84422 0.0
H114 H 0.42265 0.34156 0.80259 0.0
H115 H 0.4352 0.39652 0.78636 0.0
H116 H 0.559 0.69879 0.82999 0.0
H117 H 0.56203 0.75966 0.83443 0.0
H118 H 0.5583 0.75252 0.901 0.0
H119 H 0.5566 0.69176 0.89642 0.0
H120 H 0.53445 0.08591 0.1926 0.0
H121 H 0.58053 0.13245 0.25336 0.0
H122 H 0.48954 0.0409 0.24754 0.0
H123 H 0.58553 0.18159 0.23377 0.0
C124 C 0.59927 0.17303 0.22126 0.0
C125 C 0.53474 0.08586 0.20942 0.0
C126 C 0.50843 0.06059 0.21863 0.0
C127 C 0.5603 0.11227 0.22186 0.0
C128 C 0.56054 0.11237 0.2437 0.0
C129 C 0.53503 0.08678 0.25315 0.0
C130 C 0.50909 0.06107 0.24044 0.0
N131 N 0.58558 0.13853 0.2122 0.0
H132 H 0.52999 0.54644 0.50589 0.0
H133 H 0.52899 0.6081 0.56263 0.0
H134 H 0.52444 0.50168 0.5653 0.0
H135 H 0.49009 0.62753 0.53937 0.0
C136 C 0.51105 0.63674 0.52881 0.0
C137 C 0.52915 0.54893 0.52264 0.0
C138 C 0.52741 0.51936 0.53444 0.0
C139 C 0.52844 0.5814 0.53272 0.0
C140 C 0.52768 0.5836 0.55454 0.0
C141 C 0.52648 0.55525 0.56628 0.0
C142 C 0.52609 0.52361 0.55613 0.0
N143 N 0.52908 0.61194 0.52162 0.0
H144 H 0.99335 0.56496 0.82896 0.0
H145 H 0.0666 0.57584 0.88336 0.0
H146 H 0.95592 0.57023 0.89036 0.0
H147 H 0.10011 0.61739 0.85845 0.0
C148 C 0.09763 0.59523 0.84754 0.0
C149 C 0.99837 0.567 0.84576 0.0
C150 C 0.97038 0.56784 0.85863 0.0
C151 C 0.03344 0.57075 0.85466 0.0
C152 C 0.0398 0.57345 0.87648 0.0
C153 C 1.01204 0.57327 0.88946 0.0
C154 C 0.97758 0.57072 0.8804 0.0
N155 N 0.06246 0.57219 0.84182 0.0
H156 H 0.04989 0.60333 0.46838 0.0
H157 H 1.00654 0.55618 0.40728 0.0
H158 H 0.10188 0.64348 0.41409 0.0
H159 H 0.95369 0.54668 0.4242 0.0
C160 C 0.96226 0.53624 0.43808 0.0
C161 C 0.05123 0.60238 0.45162 0.0
C162 C 0.07915 0.62654 0.44273 0.0
C163 C 1.02477 0.57708 0.43894 0.0
C164 C 1.02664 0.57576 0.41717 0.0
C165 C 0.05427 0.59974 0.40804 0.0
C166 C 0.08047 0.62485 0.42099 0.0
N167 N 0.99695 0.55282 0.44837 0.0
H168 H 0.61545 0.11586 0.82589 0.0
H169 H 0.6405 0.09123 0.76427 0.0
H170 H 0.52992 0.07675 0.77733 0.0
H171 H 0.70668 0.12374 0.82997 0.0
C172 C 0.68223 0.10522 0.82272 0.0
C173 C 0.6061 0.10503 0.81013 0.0
C174 C 0.56938 0.09715 0.80333 0.0
C175 C 0.63153 0.10182 0.79613 0.0
C176 C 0.62035 0.09152 0.77515 0.0
C177 C 0.58363 0.08262 0.76817 0.0
C178 C 0.5583 0.08406 0.78259 0.0
N179 N 0.66887 0.11105 0.80268 0.0
H180 H 0.52763 0.58838 0.14233 0.0
H181 H 0.58188 0.57755 0.08716 0.0
H182 H 0.4723 0.5807 0.08156 0.0
H183 H 0.59468 0.53525 0.11304 0.0
C184 C 0.6087 0.5582 0.12315 0.0
C185 C 0.52751 0.58612 0.1255 0.0
C186 C 0.49589 0.58432 0.11302 0.0
C187 C 0.55836 0.58286 0.11618 0.0
C188 C 0.55803 0.57974 0.09434 0.0
C189 C 0.52714 0.57898 0.08175 0.0
C190 C 0.49621 0.58108 0.09122 0.0
N191 N 0.58948 0.58197 0.12866 0.0
H192 H 0.17266 0.55136 0.16424 0.0
H193 H 0.23523 0.55151 0.16168 0.0
H194 H 0.25963 0.65074 0.13588 0.0
H195 H 0.197 0.6504 0.13786 0.0
H196 H 0.28392 0.60673 0.11312 0.0
H197 H 0.32751 0.6031 0.19604 0.0
H198 H 0.28746 0.56877 0.18739 0.0
H199 H 0.28651 0.61287 0.18801 0.0
C200 C 0.19139 0.57341 0.15822 0.0
C201 C 0.17967 0.6009 0.15128 0.0
C202 C 0.22732 0.57358 0.15693 0.0
C203 C 0.25242 0.60141 0.14892 0.0
C204 C 0.24088 0.62907 0.14224 0.0
H205 H 0.48531 0.6309 0.14283 0.0
H206 H 0.42695 0.63601 0.15324 0.0
C207 C 0.20496 0.62883 0.14341 0.0
C208 C 0.28992 0.60056 0.14597 0.0
H209 H 0.36587 0.59029 0.17092 0.0
C210 C 0.30188 0.60343 0.12583 0.0
C211 C 0.31366 0.5967 0.16256 0.0
C212 C 0.30331 0.59554 0.18475 0.0
C213 C 0.33635 0.60155 0.12169 0.0
C214 C 0.35939 0.59592 0.13806 0.0
C215 C 0.34801 0.59416 0.15835 0.0
C216 C 0.39485 0.59082 0.13402 0.0
C217 C 0.34783 0.60573 0.09978 0.0
C218 C 0.39617 0.56299 0.12051 0.0
C219 C 0.4292 0.56012 0.11457 0.0
C220 C 0.46175 0.58485 0.12215 0.0
C221 C 0.46065 0.61148 0.13677 0.0
C222 C 0.42737 0.61447 0.14266 0.0
H223 H 0.33172 0.61924 0.09063 0.0
H224 H 0.37685 0.62041 0.09985 0.0
H225 H 0.34367 0.57982 0.09172 0.0
H226 H 0.37149 0.54401 0.11402 0.0
H227 H 0.42927 0.53901 0.10352 0.0
H228 H 0.70401 0.26453 0.45664 0.0
H229 H 0.74824 0.31997 0.45198 0.0
H230 H 0.81896 0.30233 0.50135 0.0
H231 H 0.77485 0.24685 0.50614 0.0
H232 H 0.77784 0.3777 0.47983 0.0
H233 H 0.88438 0.32243 0.45344 0.0
H234 H 0.83834 0.29636 0.45497 0.0
H235 H 0.86835 0.30953 0.47818 0.0
C236 C 0.72884 0.27254 0.46663 0.0
C237 C 0.73596 0.2511 0.48168 0.0
C238 C 0.75416 0.30419 0.46389 0.0
C239 C 0.78718 0.31505 0.47607 0.0
C240 C 0.79406 0.29411 0.49142 0.0
H241 H 0.97339 0.49891 0.47099 0.0
H242 H 0.93099 0.44637 0.48214 0.0
C243 C 0.76879 0.2624 0.49415 0.0
C244 C 0.81424 0.34833 0.47266 0.0
H245 H 0.89953 0.38329 0.45782 0.0
C246 C 0.80446 0.37892 0.47505 0.0
C247 C 0.84906 0.34993 0.46651 0.0
C248 C 0.86068 0.31782 0.46293 0.0
C249 C 0.82847 0.41103 0.47138 0.0
C250 C 0.863 0.41253 0.46485 0.0
C251 C 0.87309 0.38207 0.46288 0.0
C252 C 0.88822 0.4451 0.45879 0.0
C253 C 0.81672 0.44311 0.47464 0.0
C254 C 0.87836 0.46162 0.44188 0.0
C255 C 0.90245 0.49146 0.43549 0.0
C256 C 0.93695 0.50536 0.44582 0.0
C257 C 0.94689 0.48891 0.4628 0.0
C258 C 0.92274 0.45889 0.46916 0.0
H259 H 0.79448 0.43916 0.48519 0.0
H260 H 0.83959 0.4654 0.48125 0.0
H261 H 0.80674 0.44969 0.45941 0.0
H262 H 0.85219 0.45106 0.43336 0.0
H263 H 0.89423 0.50349 0.42227 0.0
H264 H 0.6025 0.80741 0.89865 0.0
H265 H 0.61729 0.87028 0.90049 0.0
H266 H 0.54733 0.86314 0.8449 0.0
H267 H 0.53087 0.80034 0.84362 0.0
H268 H 0.65223 0.90746 0.87205 0.0
H269 H 0.52426 0.93882 0.87824 0.0
H270 H 0.52857 0.8969 0.88348 0.0
H271 H 0.51964 0.9068 0.85715 0.0
C272 C 0.58923 0.81914 0.88724 0.0
C273 C 0.56563 0.7988 0.87089 0.0
C274 C 0.5979 0.85513 0.88826 0.0
C275 C 0.58315 0.87148 0.87299 0.0
C276 C 0.55842 0.85119 0.85717 0.0
H277 H 0.64283 0.0417 0.80413 0.0
H278 H 0.61786 0.9887 0.82103 0.0
C279 C 0.5495 0.81523 0.85624 0.0
C280 C 0.59731 0.90933 0.87171 0.0
H281 H 0.57111 0.98037 0.86131 0.0
C282 C 0.6346 0.92365 0.87033 0.0
C283 C 0.57435 0.93053 0.86953 0.0
C284 C 0.53454 0.91748 0.87242 0.0
C285 C 0.64912 0.95781 0.86526 0.0
C286 C 0.62575 0.97803 0.86149 0.0
C287 C 0.58885 0.96456 0.86413 0.0
C288 C 0.63854 1.01126 0.85209 0.0
C289 C 0.68898 0.97149 0.8626 0.0
C290 C 0.65837 0.04144 0.86407 0.0
C291 C 0.67229 0.07212 0.85446 0.0
C292 C 0.66639 0.0729 0.83281 0.0
C293 C 0.64667 0.04244 0.82092 0.0
C294 C 0.6326 1.012 0.83052 0.0
H295 H 0.70354 0.95237 0.86609 0.0
H296 H 0.69316 0.97861 0.84636 0.0
H297 H 0.70103 0.99522 0.8731 0.0
H298 H 0.66343 0.04111 0.88075 0.0
H299 H 0.68776 0.09519 0.86389 0.0
H300 H 0.93403 0.55164 0.16304 0.0
H301 H 0.87006 0.54841 0.16061 0.0
H302 H 0.89387 0.64104 0.12771 0.0
H303 H 0.95784 0.64429 0.1298 0.0
H304 H 0.83432 0.59573 0.17472 0.0
H305 H 0.81637 0.57131 0.08855 0.0
H306 H 0.85557 0.56785 0.10365 0.0
H307 H 0.85182 0.60957 0.09798 0.0
C308 C 0.92574 0.57137 0.15528 0.0
C309 C 0.95115 0.59808 0.14646 0.0
C310 C 0.88912 0.56952 0.15397 0.0
C311 C 0.87707 0.59422 0.14375 0.0
C312 C 0.90243 0.62134 0.13534 0.0
H313 H 0.65757 0.6157 0.14439 0.0
H314 H 0.7231 0.62631 0.15058 0.0
C315 C 0.93906 0.6232 0.13662 0.0
C316 C 0.83791 0.59115 0.14155 0.0
H317 H 0.76651 0.57862 0.10544 0.0
C318 C 0.81946 0.5921 0.15958 0.0
C319 C 0.8185 0.58609 0.12178 0.0
C320 C 0.83641 0.58332 0.10187 0.0
C321 C 0.78214 0.58807 0.15838 0.0
C322 C 0.76285 0.58332 0.1386 0.0
C323 C 0.78137 0.58254 0.12059 0.0
C324 C 0.72306 0.57685 0.1361 0.0
C325 C 0.76346 0.5879 0.17825 0.0
C326 C 0.7013 0.5457 0.12584 0.0
C327 C 0.66413 0.53972 0.12225 0.0
C328 C 0.64779 0.56475 0.12876 0.0
C329 C 0.66938 0.59582 0.13933 0.0
C330 C 0.70679 0.60185 0.14293 0.0
H331 H 0.78047 0.58464 0.19198 0.0
H332 H 0.75744 0.61282 0.18094 0.0
H333 H 0.73751 0.56686 0.1771 0.0
H334 H 0.71318 0.52606 0.12041 0.0
H335 H 0.64815 0.5156 0.11401 0.0
H336 H 0.27501 0.92467 0.52429 0.0
H337 H 0.22861 0.8692 0.5166 0.0
H338 H 0.30887 0.82371 0.49534 0.0
H339 H 0.35573 0.87848 0.50404 0.0
H340 H 0.20687 0.83404 0.47976 0.0
H341 H 0.25689 0.75155 0.5319 0.0
H342 H 0.27456 0.79806 0.53433 0.0
H343 H 0.2904 0.773 0.51523 0.0
C344 C 0.28302 0.9027 0.51846 0.0
C345 C 0.31927 0.90618 0.51487 0.0
C346 C 0.25634 0.87101 0.51391 0.0
C347 C 0.26524 0.84204 0.5057 0.0
C348 C 0.30138 0.84538 0.50214 0.0
H349 H 0.1523 0.64686 0.44098 0.0
H350 H 0.19611 0.69838 0.45868 0.0
C351 C 0.32811 0.87697 0.50682 0.0
C352 C 0.23647 0.80904 0.49956 0.0
H353 H 0.2123 0.72194 0.50442 0.0
C354 C 0.20781 0.80962 0.4854 0.0
C355 C 0.2376 0.77711 0.50693 0.0
C356 C 0.26633 0.77488 0.5231 0.0
C357 C 0.18107 0.7791 0.47786 0.0
C358 C 0.18288 0.74715 0.48474 0.0
C359 C 0.21106 0.74652 0.49918 0.0
C360 C 0.15684 0.71405 0.47606 0.0
C361 C 0.15173 0.78104 0.462 0.0
C362 C 0.12045 0.70529 0.48048 0.0
C363 C 0.09536 0.67576 0.47045 0.0
C364 C 0.10629 0.65471 0.45574 0.0
C365 C 0.14307 0.66279 0.4521 0.0
C366 C 0.16812 0.6921 0.46223 0.0
H367 H 0.1571 0.80709 0.45605 0.0
H368 H 0.14887 0.76173 0.44862 0.0
H369 H 0.12562 0.77491 0.46926 0.0
H370 H 0.11131 0.72183 0.49124 0.0
H371 H 0.06719 0.67029 0.47347 0.0
H372 H 0.44622 0.29384 0.80428 0.0
H373 H 0.44528 0.23911 0.81791 0.0
H374 H 0.48022 0.29006 0.87929 0.0
H375 H 0.48048 0.34533 0.86578 0.0
H376 H 0.52528 0.2561 0.86551 0.0
H377 H 0.38794 0.16706 0.85356 0.0
H378 H 0.39801 0.19014 0.83071 0.0
H379 H 0.39686 0.21348 0.8552 0.0
C380 C 0.45236 0.29339 0.82084 0.0
C381 C 0.46373 0.32411 0.83387 0.0
C382 C 0.45161 0.2619 0.82868 0.0
C383 C 0.46209 0.26033 0.84972 0.0
C384 C 0.47166 0.29063 0.86306 0.0
H385 H 0.56529 0.09645 0.84611 0.0
H386 H 0.53245 0.12735 0.86745 0.0
C387 C 0.47221 0.32222 0.85523 0.0
C388 C 0.46972 0.22859 0.85623 0.0
H389 H 0.43719 0.14167 0.84481 0.0
C390 C 0.50577 0.23086 0.86194 0.0
C391 C 0.44413 0.19572 0.85209 0.0
C392 C 0.40449 0.19152 0.84779 0.0
C393 C 0.51798 0.20164 0.86013 0.0
C394 C 0.49323 0.16948 0.85262 0.0
C395 C 0.45625 0.16643 0.85024 0.0
C396 C 0.50608 0.14342 0.84106 0.0
C397 C 0.55794 0.2063 0.86352 0.0
C398 C 0.50064 0.14076 0.81929 0.0
C399 C 0.51944 0.12367 0.80717 0.0
C400 C 0.54402 0.10841 0.81651 0.0
C401 C 0.54711 0.10849 0.83841 0.0
C402 C 0.52825 0.12594 0.85063 0.0
H403 H 0.57346 0.23318 0.86923 0.0
H404 H 0.56277 0.18868 0.87514 0.0
H405 H 0.56854 0.19972 0.84872 0.0
H406 H 0.48392 0.15431 0.81156 0.0
H407 H 0.51662 0.12491 0.79045 0.0
H408 H 0.5829 0.97302 0.49579 0.0
H409 H 0.58139 0.91212 0.49678 0.0
H410 H 0.48115 0.89037 0.526 0.0
H411 H 0.48209 0.9507 0.52456 0.0
H412 H 0.58381 0.86871 0.5256 0.0
H413 H 0.45061 0.81283 0.48262 0.0
H414 H 0.47325 0.8586 0.48456 0.0
H415 H 0.44759 0.83887 0.50541 0.0
C416 C 0.56029 0.95532 0.5023 0.0
C417 C 0.53246 0.96758 0.5099 0.0
C418 C 0.55949 0.92008 0.50293 0.0
C419 C 0.53072 0.8953 0.51105 0.0
C420 C 0.50328 0.90778 0.51897 0.0
H421 H 0.46906 0.67715 0.53824 0.0
H422 H 0.47599 0.73759 0.53299 0.0
C423 C 0.50401 0.94288 0.5183 0.0
C424 C 0.52961 0.85702 0.51156 0.0
H425 H 0.47447 0.77348 0.50046 0.0
C426 C 0.55988 0.84804 0.51988 0.0
C427 C 0.49879 0.82901 0.5041 0.0
C428 C 0.46589 0.83525 0.49348 0.0
C429 C 0.5597 0.81302 0.52167 0.0
C430 C 0.52854 0.78508 0.51467 0.0
C431 C 0.49856 0.79411 0.50601 0.0
C432 C 0.52525 0.74676 0.51735 0.0
C433 C 0.59266 0.8064 0.53189 0.0
C434 C 0.55015 0.72988 0.51015 0.0
C435 C 0.54601 0.69427 0.5131 0.0
C436 C 0.51678 0.67421 0.52337 0.0
C437 C 0.49194 0.69117 0.5302 0.0
C438 C 0.4959 0.72625 0.52719 0.0
H439 H 0.61048 0.82979 0.54103 0.0
H440 H 0.58497 0.78514 0.54241 0.0
H441 H 0.60841 0.79873 0.51968 0.0
H442 H 0.57279 0.74412 0.50206 0.0
H443 H 0.56593 0.68269 0.50759 0.0
H444 H 0.65849 0.60096 0.84496 0.0
H445 H 0.72036 0.59827 0.84659 0.0
H446 H 0.68751 0.5054 0.80538 0.0
H447 H 0.62496 0.50785 0.80355 0.0
H448 H 0.74359 0.54213 0.86081 0.0
H449 H 0.77729 0.5685 0.77942 0.0
H450 H 0.74001 0.57915 0.79067 0.0
H451 H 0.73632 0.53506 0.78291 0.0
C452 C 0.6642 0.57998 0.83608 0.0
C453 C 0.63648 0.55459 0.8241 0.0
C454 C 0.69975 0.57852 0.83706 0.0
C455 C 0.70874 0.55185 0.82598 0.0
C456 C 0.68134 0.52654 0.81383 0.0
H457 H 0.92575 0.52154 0.82849 0.0
H458 H 0.86168 0.51509 0.81877 0.0
C459 C 0.64554 0.52788 0.81289 0.0
C460 C 0.74656 0.55011 0.82817 0.0
H461 H 0.82323 0.56067 0.80242 0.0
C462 C 0.7609 0.54594 0.84799 0.0
C463 C 0.76909 0.55477 0.81142 0.0
C464 C 0.75517 0.55984 0.78988 0.0
C465 C 0.79721 0.54701 0.85164 0.0
C466 C 0.82025 0.55323 0.83513 0.0
C467 C 0.80565 0.55611 0.81509 0.0
C468 C 0.85985 0.55892 0.83892 0.0
C469 C 0.81066 0.54164 0.87325 0.0
C470 C 0.88044 0.58647 0.85275 0.0
C471 C 0.91672 0.59013 0.85828 0.0
C472 C 0.93351 0.5665 0.84999 0.0
C473 C 0.91357 0.54015 0.83511 0.0
C474 C 0.87696 0.53637 0.82962 0.0
H475 H 0.7882 0.5273 0.88223 0.0
H476 H 0.83092 0.52723 0.87264 0.0
H477 H 0.82363 0.56716 0.88183 0.0
H478 H 0.86813 0.60469 0.85974 0.0
H479 H 0.93151 0.61104 0.86952 0.0
H480 H 0.20918 0.84694 0.16074 0.0
H481 H 0.26474 0.89441 0.16845 0.0
H482 H 0.32439 0.83486 0.13696 0.0
H483 H 0.26875 0.78692 0.12941 0.0
H484 H 0.35799 0.86378 0.17399 0.0
H485 H 0.3202 0.96387 0.13124 0.0
H486 H 0.28739 0.94553 0.14907 0.0
H487 H 0.29462 0.91876 0.12751 0.0
C488 C 0.23402 0.84414 0.15517 0.0
C489 C 0.23453 0.81327 0.14434 0.0
C490 C 0.26577 0.87137 0.15951 0.0
C491 C 0.29864 0.86855 0.15287 0.0
C492 C 0.29929 0.83773 0.14209 0.0
H493 H 0.51448 1.01872 0.18492 0.0
H494 H 0.46587 0.97191 0.16582 0.0
C495 C 0.26753 0.81032 0.13786 0.0
C496 C 0.33252 0.89706 0.15835 0.0
H497 H 0.36926 0.98445 0.15798 0.0
C498 C 0.36077 0.89005 0.17013 0.0
C499 C 0.33627 0.93133 0.1532 0.0
C500 C 0.30813 0.94026 0.13937 0.0
C501 C 0.39168 0.91667 0.17791 0.0
C502 C 0.39441 0.9511 0.17372 0.0
C503 C 0.36695 0.95798 0.16122 0.0
C504 C 0.42372 0.98053 0.18394 0.0
C505 C 0.42044 0.90815 0.19145 0.0
C506 C 0.41584 1.00116 0.20005 0.0
C507 C 0.44333 1.02761 0.21093 0.0
C508 C 0.47927 1.03413 0.20581 0.0
C509 C 0.487 1.01426 0.18914 0.0
C510 C 0.45938 0.98749 0.17833 0.0
H511 H 0.41267 0.8805 0.1948 0.0
H512 H 0.44587 0.91408 0.18349 0.0
H513 H 0.42595 0.92432 0.20644 0.0
H514 H 0.38845 0.99624 0.20454 0.0
H515 H 0.43654 0.04281 0.22353 0.0
H516 H 0.47745 0.18366 0.5271 0.0
H517 H 0.47764 0.24423 0.52798 0.0
H518 H 0.58307 0.27232 0.50459 0.0
H519 H 0.5825 0.21174 0.50317 0.0
H520 H 0.5143 0.30205 0.54817 0.0
H521 H 0.54056 0.32439 0.46611 0.0
H522 H 0.53034 0.28188 0.47551 0.0
H523 H 0.57546 0.31118 0.47947 0.0
C524 C 0.50071 0.20256 0.52199 0.0
C525 C 0.52983 0.19186 0.51489 0.0
C526 C 0.50083 0.23768 0.52253 0.0
C527 C 0.53 0.26397 0.51591 0.0
C528 C 0.55941 0.25333 0.50917 0.0
H529 H 0.58072 0.4951 0.51718 0.0
H530 H 0.58162 0.43458 0.51222 0.0
C531 C 0.55923 0.21819 0.50854 0.0
C532 C 0.52988 0.30207 0.5167 0.0
H533 H 0.5445 0.37423 0.48846 0.0
C534 C 0.52072 0.31749 0.53494 0.0
C535 C 0.53833 0.32348 0.49973 0.0
C536 C 0.54637 0.30935 0.47904 0.0
C537 C 0.52034 0.35258 0.53682 0.0
C538 C 0.52865 0.37393 0.51985 0.0
C539 C 0.53808 0.35868 0.50164 0.0
C540 C 0.52719 0.41155 0.52075 0.0
C541 C 0.51194 0.3667 0.55743 0.0
C542 C 0.49598 0.42003 0.52627 0.0
C543 C 0.49534 0.45476 0.52883 0.0
C544 C 0.52565 0.48294 0.5257 0.0
C545 C 0.5564 0.47454 0.51919 0.0
C546 C 0.55704 0.43958 0.5166 0.0
H547 H 0.51732 0.35155 0.57041 0.0
H548 H 0.52808 0.39413 0.56103 0.0
H549 H 0.4829 0.36512 0.55676 0.0
H550 H 0.47199 0.39968 0.5291 0.0
H551 H 0.47132 0.45972 0.53424 0.0
H552 H 0.42665 0.61087 0.84263 0.0
H553 H 0.36428 0.61146 0.84422 0.0
H554 H 0.32856 0.52129 0.80084 0.0
H555 H 0.39127 0.52072 0.79889 0.0
H556 H 0.29361 0.57113 0.79252 0.0
H557 H 0.28995 0.54445 0.87576 0.0
H558 H 0.32669 0.58134 0.87116 0.0
H559 H 0.32538 0.53918 0.86019 0.0
C560 C 0.40566 0.59115 0.83334 0.0
C561 C 0.41412 0.56555 0.82076 0.0
C562 C 0.36988 0.59143 0.83437 0.0
C563 C 0.34156 0.56598 0.82302 0.0
C564 C 0.34991 0.54104 0.80989 0.0
H565 H 0.10654 0.54086 0.82241 0.0
H566 H 0.16414 0.53067 0.81469 0.0
C567 C 0.38582 0.54077 0.80879 0.0
C568 C 0.30338 0.56547 0.82515 0.0
H569 H 0.2424 0.56464 0.86141 0.0
C570 C 0.2822 0.56925 0.80752 0.0
C571 C 0.2883 0.56268 0.84469 0.0
C572 C 0.30861 0.55632 0.86399 0.0
C573 C 0.24712 0.57209 0.80915 0.0
C574 C 0.23277 0.57083 0.82887 0.0
C575 C 0.25347 0.56581 0.84632 0.0
C576 C 0.19758 0.57724 0.83217 0.0
C577 C 0.2262 0.5779 0.78997 0.0
C578 C 0.19719 0.60664 0.84454 0.0
C579 C 0.16457 0.61245 0.84891 0.0
C580 C 0.13144 0.5889 0.84116 0.0
C581 C 0.13164 0.55956 0.82852 0.0
C582 C 0.16452 0.55379 0.82406 0.0
H583 H 0.24301 0.58312 0.77648 0.0
H584 H 0.20298 0.55456 0.78564 0.0
H585 H 0.21529 0.59994 0.79316 0.0
H586 H 0.22227 0.62505 0.85101 0.0
H587 H 0.16527 0.63523 0.85873 0.0
H588 H 0.8587 0.424 0.16503 0.0
H589 H 0.80238 0.38081 0.17158 0.0
H590 H 0.86297 0.31752 0.19793 0.0
H591 H 0.91932 0.36112 0.1923 0.0
H592 H 0.77426 0.31163 0.15781 0.0
H593 H 0.79854 0.32741 0.24394 0.0
H594 H 0.82499 0.35752 0.22722 0.0
H595 H 0.83419 0.31723 0.23094 0.0
C596 C 0.86008 0.40107 0.17243 0.0
C597 C 0.89362 0.39622 0.17829 0.0
C598 C 0.82785 0.37627 0.17599 0.0
C599 C 0.82849 0.3462 0.18553 0.0
C600 C 0.86184 0.34083 0.19089 0.0
H601 H 0.64586 0.16148 0.19298 0.0
H602 H 0.701 0.20332 0.18328 0.0
C603 C 0.89406 0.36564 0.18742 0.0
C604 C 0.79431 0.32065 0.1901 0.0
H605 H 0.74874 0.28073 0.22987 0.0
C606 C 0.76859 0.30488 0.17356 0.0
C607 C 0.78679 0.31224 0.2107 0.0
C608 C 0.8124 0.3297 0.22925 0.0
C609 C 0.73568 0.28063 0.17704 0.0
C610 C 0.72865 0.27151 0.19758 0.0
C611 C 0.75428 0.28752 0.21411 0.0
C612 C 0.69447 0.24626 0.2025 0.0
C613 C 0.70846 0.26563 0.15877 0.0
C614 C 0.67278 0.25629 0.21677 0.0
C615 C 0.64162 0.23241 0.22249 0.0
C616 C 0.63145 0.19801 0.21405 0.0
C617 C 0.65288 0.18792 0.1996 0.0
C618 C 0.68428 0.21185 0.19395 0.0
H619 H 0.71373 0.28182 0.1453 0.0
H620 H 0.71009 0.23959 0.1537 0.0
H621 H 0.68058 0.26295 0.16311 0.0
H622 H 0.68016 0.28264 0.22362 0.0
H623 H 0.6256 0.24078 0.2337 0.0
H624 H 0.02761 0.61369 0.09044 0.0
H625 H 1.02094 0.6154 0.05248 0.0
H626 H 0.08055 0.54157 0.04501 0.0
H627 H 0.08684 0.53937 0.08286 0.0
H628 H 0.07304 0.63214 0.02315 0.0
H629 H 0.98651 0.49626 0.00889 0.0
H630 H 0.99559 0.51882 0.03447 0.0
H631 H 0.02859 0.50117 0.02361 0.0
C632 C 0.03931 0.59787 0.08068 0.0
C633 C 0.05739 0.5761 0.08955 0.0
C634 C 0.03553 0.59891 0.05903 0.0
C635 C 0.04966 0.57812 0.04594 0.0
C636 C 0.06874 0.55723 0.05482 0.0
H637 H 0.05037 0.53937 0.91248 0.0
H638 H 0.06085 0.54249 0.95044 0.0
C639 C 0.07246 0.55613 0.07643 0.0
C640 C 0.04425 0.57805 0.02298 0.0
H641 H 1.00729 0.52558 0.97912 0.0
C642 C 0.05853 0.60892 0.0135 0.0
C643 C 1.02523 0.54769 0.01047 0.0
C644 C 1.00779 0.51416 0.01985 0.0
C645 C 0.05498 0.61005 0.99176 0.0
C646 C 0.03622 0.57962 0.97926 0.0
C647 C 1.02181 0.54882 0.98875 0.0
C648 C 0.03106 0.57908 0.95628 0.0
C649 C 0.07199 0.64359 0.98231 0.0
C650 C 1.01068 0.59849 0.947 0.0
C651 C 1.00474 0.59685 0.92532 0.0
C652 C 1.01897 0.57564 0.91251 0.0
C653 C 0.03944 0.55629 0.92189 0.0
C654 C 0.04529 0.55789 0.94356 0.0
H655 H 0.09258 0.66205 0.99337 0.0
H656 H 0.08488 0.63901 0.96793 0.0
H657 H 0.05076 0.65582 0.97804 0.0
H658 H 0.99896 0.61457 0.95654 0.0
H659 H 0.98908 0.61226 0.91857 0.0
H660 H 0.54804 0.04583 0.45169 0.0
H661 H 0.55919 0.04979 0.4147 0.0
H662 H 0.48461 0.10963 0.40751 0.0
H663 H 0.47332 0.10576 0.44441 0.0
H664 H 0.50528 1.02685 0.38003 0.0
H665 H 0.57797 0.16702 0.38231 0.0
H666 H 0.57315 0.14313 0.40533 0.0
H667 H 0.53618 0.1566 0.39463 0.0
C668 C 0.53412 0.0599 0.44221 0.0
C669 C 0.50978 0.07546 0.45085 0.0
C670 C 0.54054 0.06217 0.42114 0.0
C671 C 0.52305 0.08036 0.4085 0.0
C672 C 0.49879 0.09595 0.41712 0.0
H673 H 0.47676 0.07313 0.27665 0.0
H674 H 0.47652 0.07093 0.31443 0.0
C675 C 0.4922 0.09353 0.43813 0.0
C676 C 0.52885 0.08181 0.38606 0.0
H677 H 0.55825 0.13766 0.3487 0.0
C678 C 0.51714 0.05101 0.37318 0.0
C679 C 0.54467 0.11334 0.37726 0.0
C680 C 0.55905 0.14692 0.39058 0.0
C681 C 0.51965 0.05108 0.35156 0.0
C682 C 0.53402 0.08279 0.34267 0.0
C683 C 0.54696 0.11344 0.35561 0.0
C684 C 0.53458 0.08466 0.31985 0.0
C685 C 0.50671 1.01729 0.33835 0.0
C686 C 0.5674 0.09376 0.31049 0.0
C687 C 0.56766 0.09473 0.28884 0.0
C688 C 0.53507 0.08688 0.27623 0.0
C689 C 0.50231 0.07857 0.28582 0.0
C690 C 0.50209 0.07742 0.30741 0.0
H691 H 0.50408 0.99479 0.34785 0.0
H692 H 0.47983 1.01485 0.33047 0.0
H693 H 0.52548 1.01636 0.32613 0.0
H694 H 0.59274 0.09953 0.31991 0.0
H695 H 0.59334 0.10092 0.28196 0.0
H696 H 0.50844 0.53524 0.7652 0.0
H697 H 0.50696 0.5283 0.7271 0.0
H698 H 0.54405 0.63902 0.72494 0.0
H699 H 0.54605 0.64608 0.76305 0.0
H700 H 0.46909 0.55228 0.69635 0.0
H701 H 0.61697 0.60674 0.69219 0.0
H702 H 0.59689 0.59438 0.71621 0.0
H703 H 0.59662 0.63476 0.70618 0.0
C704 C 0.51621 0.55809 0.75657 0.0
C705 C 0.52758 0.59121 0.76704 0.0
C706 C 0.51533 0.55409 0.73483 0.0
C707 C 0.52596 0.58312 0.7232 0.0
C708 C 0.53645 0.61625 0.73362 0.0
H709 H 0.4873 0.58837 0.58913 0.0
H710 H 0.48682 0.59488 0.62706 0.0
C711 C 0.53737 0.62026 0.75537 0.0
C712 C 0.52608 0.57867 0.70018 0.0
H713 H 0.58097 0.59539 0.66011 0.0
C714 C 0.49354 0.56165 0.68841 0.0
C715 C 0.55812 0.59047 0.68987 0.0
C716 C 0.59422 0.60732 0.70174 0.0
C717 C 0.49207 0.55659 0.66659 0.0
C718 C 0.5239 0.56935 0.65624 0.0
C719 C 0.55653 0.58591 0.66804 0.0
C720 C 0.52409 0.56542 0.6332 0.0
C721 C 0.45657 0.53706 0.65485 0.0
C722 C 0.5459 0.54745 0.62403 0.0
C723 C 0.54658 0.54404 0.60236 0.0
C724 C 0.5256 0.55872 0.58938 0.0
C725 C 0.50398 0.57694 0.59865 0.0
C726 C 0.50333 0.58034 0.62033 0.0
H727 H 0.43744 0.52132 0.66521 0.0
H728 H 0.44397 0.55575 0.64815 0.0
H729 H 0.46058 0.51975 0.64186 0.0
H730 H 0.56235 0.53595 0.63367 0.0
H731 H 0.56394 0.5303 0.59577 0.0
H732 H 0.51267 0.10531 0.57101 0.0
H733 H 0.50593 0.10032 0.60846 0.0
H734 H 0.58872 0.04909 0.61205 0.0
H735 H 0.59531 0.05363 0.5748 0.0
H736 H 0.52674 1.01811 0.63392 0.0
H737 H 0.58294 0.16003 0.65322 0.0
H738 H 0.54509 0.14607 0.63408 0.0
H739 H 0.58745 0.13972 0.62831 0.0
C740 C 0.52933 0.09295 0.57983 0.0
C741 C 0.55481 0.08022 0.57013 0.0
C742 C 0.52548 0.09014 0.60116 0.0
C743 C 0.54713 0.07467 0.61299 0.0
C744 C 0.57182 0.06114 0.60316 0.0
H745 H 0.60765 0.04487 0.73865 0.0
H746 H 0.59339 0.03993 0.70091 0.0
C747 C 0.57567 0.06392 0.58192 0.0
C748 C 0.54552 0.07371 0.63578 0.0
H749 H 0.56787 0.12521 0.6811 0.0
C750 C 0.53539 0.04149 0.64428 0.0
C751 C 0.55683 0.1043 0.64917 0.0
C752 C 0.56897 0.13954 0.64084 0.0
C753 C 0.53678 0.03903 0.66592 0.0
C754 C 0.54928 0.0696 0.6793 0.0
C755 C 0.55833 0.10181 0.67077 0.0
C756 C 0.55483 0.06907 0.70216 0.0
C757 C 0.5249 1.00381 0.67426 0.0
C758 C 0.53813 0.08728 0.71533 0.0
C759 C 0.54668 0.09066 0.73679 0.0
C760 C 0.57214 0.07583 0.74557 0.0
C761 C 0.58809 0.05672 0.73237 0.0
C762 C 0.57961 0.0535 0.71084 0.0
H763 H 0.50617 0.98452 0.66272 0.0
H764 H 0.54891 0.99491 0.67764 0.0
H765 H 0.51135 1.00458 0.6889 0.0
H766 H 0.51922 0.09978 0.70892 0.0
H767 H 0.53439 0.10615 0.7464 0.0
H768 H 0.56409 0.57921 0.88312 0.0
H769 H 0.56879 0.58859 0.92123 0.0
H770 H 0.46827 0.50812 0.92344 0.0
H771 H 0.46373 0.49827 0.88546 0.0
H772 H 0.52207 0.60657 0.94779 0.0
H773 H 0.53685 0.4782 0.96335 0.0
H774 H 0.54172 0.495 0.938 0.0
H775 H 0.49755 0.47588 0.9466 0.0
C776 C 0.54307 0.5635 0.89178 0.0
C777 C 0.51373 0.53777 0.88143 0.0
C778 C 0.54576 0.56891 0.9135 0.0
C779 C 0.51925 0.54858 0.92516 0.0
C780 C 0.48946 0.52351 0.91477 0.0
H781 H 0.47441 0.53683 0.05424 0.0
H782 H 0.47371 0.53118 0.01621 0.0
C783 C 0.48679 0.51804 0.89308 0.0
C784 C 0.52248 0.55369 0.9482 0.0
H785 H 0.52609 0.51179 0.99236 0.0
C786 C 0.52325 0.58598 0.95757 0.0
C787 C 0.52415 0.52676 0.96087 0.0
C788 C 0.52539 0.49211 0.95173 0.0
C789 C 0.52452 0.59173 0.97932 0.0
C790 C 0.52545 0.56458 0.99194 0.0
C791 C 0.52519 0.53247 0.98259 0.0
C792 C 0.52598 0.5687 0.01491 0.0
C793 C 0.52385 0.62646 0.98863 0.0
C794 C 0.55578 0.59144 0.02672 0.0
C795 C 0.55624 0.59476 0.04844 0.0
C796 C 0.52688 0.57538 0.0587 0.0
C797 C 0.49719 0.55247 0.04677 0.0
C798 C 0.49682 0.54907 0.02508 0.0
H799 H 0.51571 0.6421 0.97674 0.0
H800 H 0.50499 0.6233 0.00117 0.0
H801 H 0.55122 0.64103 0.99562 0.0
H802 H 0.57876 0.60643 0.01914 0.0
H803 H 0.5794 0.61275 0.05721 0.0
H804 H 0.03747 0.65507 0.21626 0.0
H805 H 0.03472 0.64556 0.25336 0.0
H806 H 0.09725 0.57416 0.24651 0.0
H807 H 0.10016 0.58359 0.20927 0.0
H808 H 1.0076 0.58019 0.27242 0.0
H809 H 0.15287 0.64798 0.29444 0.0
H810 H 0.13031 0.65394 0.27028 0.0
H811 H 0.14272 0.61512 0.27318 0.0
C812 C 0.05066 0.63737 0.22266 0.0
C813 C 0.06926 0.62026 0.20996 0.0
C814 C 0.04896 0.63189 0.24381 0.0
C815 C 0.06604 0.60941 0.25267 0.0
C816 C 0.08426 0.59191 0.23998 0.0
H817 H 0.04155 0.54345 0.37978 0.0
H818 H 0.04379 0.54323 0.34184 0.0
C819 C 0.08583 0.59727 0.21876 0.0
C820 C 0.06496 0.60478 0.27525 0.0
H821 H 0.1172 0.62391 0.32129 0.0
C822 C 0.03156 0.58946 0.28312 0.0
C823 C 0.09628 0.61721 0.28911 0.0
C824 C 0.13262 0.63472 0.28146 0.0
C825 C 0.02858 0.58652 0.30459 0.0
C826 C 0.05987 0.59911 0.31846 0.0
C827 C 0.09333 0.61412 0.31056 0.0
C828 C 0.05814 0.59882 0.34132 0.0
C829 C 0.99189 0.571 0.31239 0.0
C830 C 0.06576 0.63013 0.35354 0.0
C831 C 0.06426 0.63035 0.37512 0.0
C832 C 0.05545 0.59923 0.38499 0.0
C833 C 0.04793 0.56784 0.37266 0.0
C834 C 0.0493 0.56765 0.35101 0.0
H835 H 0.96975 0.56779 0.30004 0.0
H836 H 0.99028 0.54521 0.31788 0.0
H837 H 0.9876 0.58742 0.32577 0.0
H838 H 0.07253 0.65444 0.34631 0.0
H839 H 0.06961 0.65495 0.38406 0.0
loop_
_geom_bond_atom_site_label_1
_geom_bond_atom_site_label_2
_geom_bond_distance
_geom_bond_site_symmetry_2
_ccdc_geom_bond_type
Pr0 C2 2.880 1_455 S
Pr0 O20 2.562 1_455 S
Pr0 O21 2.490 1_455 S
Pr0 O22 2.695 . S
Pr0 O23 2.512 . S
Pr0 O25 2.437 1_455 S
Pr0 O28 2.436 . S
Pr0 O30 2.438 . S
Pr1 C11 2.880 . S
Pr1 O22 2.436 . S
Pr1 O24 2.438 1_455 S
Pr1 O26 2.562 . S
Pr1 O27 2.490 . S
Pr1 O28 2.695 . S
Pr1 O29 2.512 . S
Pr1 O31 2.437 . S
C2 Pr0 2.880 1_655 S
C2 C3 1.491 . S
C2 O20 1.254 . S
C2 O21 1.225 . S
C3 C2 1.491 . S
C3 C4 1.392 . S
C3 C8 1.356 . S
C4 C3 1.392 . S
C4 C5 1.368 . S
C4 H32 0.929 . S
C5 C4 1.368 . S
C5 C6 1.386 . S
C5 H33 0.929 . S
C6 C5 1.386 . S
C6 C7 1.373 . S
C7 C6 1.373 . S
C7 C8 1.409 . S
C7 H34 0.931 . S
C8 C3 1.356 . S
C8 C7 1.409 . S
C8 H35 0.930 . S
C9 O22 1.270 . S
C9 O23 1.248 . S
C10 O24 1.267 . S
C10 O25 1.278 . S
C11 Pr1 2.880 . S
C11 C12 1.491 . S
C11 O26 1.254 . S
C11 O27 1.225 . S
C12 C11 1.491 . S
C12 C13 1.392 . S
C12 C17 1.356 . S
C13 C12 1.392 . S
C13 C14 1.368 . S
C13 H36 0.929 . S
C14 C13 1.368 . S
C14 C15 1.386 . S
C14 H37 0.929 . S
C15 C14 1.386 . S
C15 C16 1.373 . S
C16 C15 1.373 . S
C16 C17 1.409 . S
C16 H38 0.931 . S
C17 C12 1.356 . S
C17 C16 1.409 . S
C17 H39 0.930 . S
C18 O28 1.270 . S
C18 O29 1.248 . S
C19 O30 1.267 . S
C19 O31 1.278 . S
O20 Pr0 2.562 1_655 S
O20 C2 1.254 . S
O21 Pr0 2.490 1_655 S
O21 C2 1.225 . S
O22 Pr0 2.695 . S
O22 Pr1 2.436 . S
O22 C9 1.270 . S
O23 Pr0 2.512 . S
O23 C9 1.248 . S
O24 Pr1 2.438 1_655 S
O24 C10 1.267 . S
O25 Pr0 2.437 1_655 S
O25 C10 1.278 . S
O26 Pr1 2.562 . S
O26 C11 1.254 . S
O27 Pr1 2.490 . S
O27 C11 1.225 . S
O28 Pr0 2.436 . S
O28 Pr1 2.695 . S
O28 C18 1.270 . S
O29 Pr1 2.512 . S
O29 C18 1.248 . S
O30 Pr0 2.438 . S
O30 C19 1.267 . S
O31 Pr1 2.437 . S
O31 C19 1.278 . S
H32 C4 0.929 . S
H33 C5 0.929 . S
H34 C7 0.931 . S
H35 C8 0.930 . S
H36 C13 0.929 . S
H37 C14 0.929 . S
H38 C16 0.931 . S
H39 C17 0.930 . S
Pr40 C42 2.880 . S
Pr40 O60 2.562 . S
Pr40 O61 2.490 . S
Pr40 O62 2.695 . S
Pr40 O63 2.512 . S
Pr40 O65 2.437 . S
Pr40 O68 2.436 . S
Pr40 O70 2.438 . S
Pr41 C51 2.880 1_545 S
Pr41 O62 2.436 . S
Pr41 O64 2.438 . S
Pr41 O66 2.562 1_545 S
Pr41 O67 2.490 1_545 S
Pr41 O68 2.695 . S
Pr41 O69 2.512 . S
Pr41 O71 2.437 1_545 S
C42 Pr40 2.880 . S
C42 C43 1.491 . S
C42 O60 1.254 . S
C42 O61 1.225 . S
C43 C42 1.491 . S
C43 C44 1.392 . S
C43 C48 1.356 . S
C44 C43 1.392 . S
C44 C45 1.368 . S
C44 H72 0.929 . S
C45 C44 1.368 . S
C45 C46 1.386 . S
C45 H73 0.929 . S
C46 C45 1.386 . S
C46 C47 1.373 . S
C47 C46 1.373 . S
C47 C48 1.409 . S
C47 H74 0.931 . S
C48 C43 1.356 . S
C48 C47 1.409 . S
C48 H75 0.930 . S
C49 O62 1.270 . S
C49 O63 1.248 . S
C50 O64 1.267 . S
C50 O65 1.278 . S
C51 Pr41 2.880 1_565 S
C51 C52 1.491 . S
C51 O66 1.254 . S
C51 O67 1.225 . S
C52 C51 1.491 . S
C52 C53 1.392 . S
C52 C57 1.356 . S
C53 C52 1.392 . S
C53 C54 1.368 . S
C53 H76 0.929 . S
C54 C53 1.368 . S
C54 C55 1.386 . S
C54 H77 0.929 . S
C55 C54 1.386 . S
C55 C56 1.373 . S
C56 C55 1.373 . S
C56 C57 1.409 . S
C56 H78 0.931 . S
C57 C52 1.356 . S
C57 C56 1.409 . S
C57 H79 0.930 . S
C58 O68 1.270 . S
C58 O69 1.248 . S
C59 O70 1.267 1_565 S
C59 O71 1.278 . S
O60 Pr40 2.562 . S
O60 C42 1.254 . S
O61 Pr40 2.490 . S
O61 C42 1.225 . S
O62 Pr40 2.695 . S
O62 Pr41 2.436 . S
O62 C49 1.270 . S
O63 Pr40 2.512 . S
O63 C49 1.248 . S
O64 Pr41 2.438 . S
O64 C50 1.267 . S
O65 Pr40 2.437 . S
O65 C50 1.278 . S
O66 Pr41 2.562 1_565 S
O66 C51 1.254 . S
O67 Pr41 2.490 1_565 S
O67 C51 1.225 . S
O68 Pr40 2.436 . S
O68 Pr41 2.695 . S
O68 C58 1.270 . S
O69 Pr41 2.512 . S
O69 C58 1.248 . S
O70 Pr40 2.438 . S
O70 C59 1.267 1_545 S
O71 Pr41 2.437 1_565 S
O71 C59 1.278 . S
H72 C44 0.929 . S
H73 C45 0.929 . S
H74 C47 0.931 . S
H75 C48 0.930 . S
H76 C53 0.929 . S
H77 C54 0.929 . S
H78 C56 0.931 . S
H79 C57 0.930 . S
Pr80 C82 2.880 . S
Pr80 O100 2.562 . S
Pr80 O101 2.490 . S
Pr80 O102 2.695 . S
Pr80 O103 2.512 . S
Pr80 O105 2.437 . S
Pr80 O108 2.436 . S
Pr80 O110 2.438 . S
Pr81 C91 2.880 . S
Pr81 O102 2.436 . S
Pr81 O104 2.438 . S
Pr81 O106 2.562 . S
Pr81 O107 2.490 . S
Pr81 O108 2.695 . S
Pr81 O109 2.512 . S
Pr81 O111 2.437 . S
C82 Pr80 2.880 . S
C82 C83 1.491 . S
C82 O100 1.254 . S
C82 O101 1.225 . S
C83 C82 1.491 . S
C83 C84 1.392 . S
C83 C88 1.356 . S
C84 C83 1.392 . S
C84 C85 1.368 . S
C84 H112 0.929 . S
C85 C84 1.368 . S
C85 C86 1.386 . S
C85 H113 0.929 . S
C86 C85 1.386 . S
C86 C87 1.373 . S
C87 C86 1.373 . S
C87 C88 1.409 . S
C87 H114 0.931 . S
C88 C83 1.356 . S
C88 C87 1.409 . S
C88 H115 0.930 . S
C89 O102 1.270 . S
C89 O103 1.248 . S
C90 O104 1.267 . S
C90 O105 1.278 . S
C91 Pr81 2.880 . S
C91 C92 1.491 . S
C91 O106 1.254 . S
C91 O107 1.225 . S
C92 C91 1.491 . S
C92 C93 1.392 . S
C92 C97 1.356 . S
C93 C92 1.392 . S
C93 C94 1.368 . S
C93 H116 0.929 . S
C94 C93 1.368 . S
C94 C95 1.386 . S
C94 H117 0.929 . S
C95 C94 1.386 . S
C95 C96 1.373 . S
C96 C95 1.373 . S
C96 C97 1.409 . S
C96 H118 0.931 . S
C97 C92 1.356 . S
C97 C96 1.409 . S
C97 H119 0.930 . S
C98 O108 1.270 . S
C98 O109 1.248 . S
C99 O110 1.267 . S
C99 O111 1.278 . S
O100 Pr80 2.562 . S
O100 C82 1.254 . S
O101 Pr80 2.490 . S
O101 C82 1.225 . S
O102 Pr80 2.695 . S
O102 Pr81 2.436 . S
O102 C89 1.270 . S
O103 Pr80 2.512 . S
O103 C89 1.248 . S
O104 Pr81 2.438 . S
O104 C90 1.267 . S
O105 Pr80 2.437 . S
O105 C90 1.278 . S
O106 Pr81 2.562 . S
O106 C91 1.254 . S
O107 Pr81 2.490 . S
O107 C91 1.225 . S
O108 Pr80 2.436 . S
O108 Pr81 2.695 . S
O108 C98 1.270 . S
O109 Pr81 2.512 . S
O109 C98 1.248 . S
O110 Pr80 2.438 . S
O110 C99 1.267 . S
O111 Pr81 2.437 . S
O111 C99 1.278 . S
H112 C84 0.929 . S
H113 C85 0.929 . S
H114 C87 0.931 . S
H115 C88 0.930 . S
H116 C93 0.929 . S
H117 C94 0.929 . S
H118 C96 0.931 . S
H119 C97 0.930 . S
H120 C125 0.930 . S
H121 C128 0.930 . S
H122 C130 0.930 . S
H123 C124 1.016 . S
C124 H123 1.016 . S
C124 N131 1.286 . S
C125 H120 0.930 . S
C125 C126 1.397 . S
C125 C127 1.361 . S
C126 C125 1.397 . S
C126 C130 1.390 . S
C127 C125 1.361 . S
C127 C128 1.393 . S
C127 N131 1.413 . S
C128 H121 0.930 . S
C128 C127 1.393 . S
C128 C129 1.399 . S
C129 C128 1.399 . S
C129 C130 1.381 . S
C130 H122 0.930 . S
C130 C126 1.390 . S
C130 C129 1.381 . S
N131 C124 1.286 . S
N131 C127 1.413 . S
H132 C137 0.930 . S
H133 C140 0.930 . S
H134 C142 0.930 . S
H135 C136 1.016 . S
C136 H135 1.016 . S
C136 N143 1.286 . S
C137 H132 0.930 . S
C137 C138 1.397 . S
C137 C139 1.361 . S
C138 C137 1.397 . S
C138 C142 1.390 . S
C139 C137 1.361 . S
C139 C140 1.393 . S
C139 N143 1.413 . S
C140 H133 0.930 . S
C140 C139 1.393 . S
C140 C141 1.399 . S
C141 C140 1.399 . S
C141 C142 1.381 . S
C142 H134 0.930 . S
C142 C138 1.390 . S
C142 C141 1.381 . S
N143 C136 1.286 . S
N143 C139 1.413 . S
H144 C149 0.930 1_655 S
H145 C152 0.930 . S
H146 C154 0.930 . S
H147 C148 1.016 . S
C148 H147 1.016 . S
C148 N155 1.286 . S
C149 H144 0.930 1_455 S
C149 C150 1.397 1_455 S
C149 C151 1.361 . S
C150 C149 1.397 1_655 S
C150 C154 1.390 . S
C151 C149 1.361 . S
C151 C152 1.393 . S
C151 N155 1.413 . S
C152 H145 0.930 . S
C152 C151 1.393 . S
C152 C153 1.399 . S
C153 C152 1.399 . S
C153 C154 1.381 1_455 S
C154 H146 0.930 . S
C154 C150 1.390 . S
C154 C153 1.381 1_655 S
N155 C148 1.286 . S
N155 C151 1.413 . S
H156 C161 0.930 . S
H157 C164 0.930 . S
H158 C166 0.930 . S
H159 C160 1.016 . S
C160 H159 1.016 . S
C160 N167 1.286 . S
C161 H156 0.930 . S
C161 C162 1.397 . S
C161 C163 1.361 1_455 S
C162 C161 1.397 . S
C162 C166 1.390 . S
C163 C161 1.361 1_655 S
C163 C164 1.393 . S
C163 N167 1.413 . S
C164 H157 0.930 . S
C164 C163 1.393 . S
C164 C165 1.399 1_655 S
C165 C164 1.399 1_455 S
C165 C166 1.381 . S
C166 H158 0.930 . S
C166 C162 1.390 . S
C166 C165 1.381 . S
N167 C160 1.286 . S
N167 C163 1.413 . S
H168 C173 0.930 . S
H169 C176 0.930 1_565 S
H170 C178 0.930 . S
H171 C172 1.016 . S
C172 H171 1.016 . S
C172 N179 1.286 . S
C173 H168 0.930 . S
C173 C174 1.397 . S
C173 C175 1.361 . S
C174 C173 1.397 . S
C174 C178 1.390 . S
C175 C173 1.361 . S
C175 C176 1.393 . S
C175 N179 1.413 1_545 S
C176 H169 0.930 1_545 S
C176 C175 1.393 . S
C176 C177 1.399 . S
C177 C176 1.399 . S
C177 C178 1.381 . S
C178 H170 0.930 . S
C178 C174 1.390 . S
C178 C177 1.381 . S
N179 C172 1.286 . S
N179 C175 1.413 1_565 S
H180 C185 0.930 . S
H181 C188 0.930 . S
H182 C190 0.930 . S
H183 C184 1.016 . S
C184 H183 1.016 . S
C184 N191 1.286 . S
C185 H180 0.930 . S
C185 C186 1.397 . S
C185 C187 1.361 . S
C186 C185 1.397 . S
C186 C190 1.390 . S
C187 C185 1.361 . S
C187 C188 1.393 . S
C187 N191 1.413 . S
C188 H181 0.930 . S
C188 C187 1.393 . S
C188 C189 1.399 . S
C189 C188 1.399 . S
C189 C190 1.381 . S
C190 H182 0.930 . S
C190 C186 1.390 . S
C190 C189 1.381 . S
N191 C184 1.286 . S
N191 C187 1.413 . S
H192 C200 0.929 . S
H193 C202 0.930 . S
H194 C204 0.930 . S
H195 C207 0.929 . S
H196 C210 0.930 . S
H197 C212 0.960 . S
H198 C212 0.960 . S
H199 C212 0.960 . S
C200 H192 0.929 . S
C200 C201 1.377 . S
C200 C202 1.384 . S
C201 C200 1.377 . S
C201 C207 1.390 . S
C202 H193 0.930 . S
C202 C200 1.384 . S
C202 C203 1.372 . S
C203 C202 1.372 . S
C203 C204 1.400 . S
C203 C208 1.490 . S
C204 H194 0.930 . S
C204 C203 1.400 . S
C204 C207 1.386 . S
H205 C221 0.930 . S
H206 C222 0.931 . S
C207 H195 0.929 . S
C207 C201 1.390 . S
C207 C204 1.386 . S
C208 C203 1.490 . S
C208 C210 1.395 . S
C208 C211 1.403 . S
H209 C215 0.930 . S
C210 H196 0.930 . S
C210 C208 1.395 . S
C210 C213 1.403 . S
C211 C208 1.403 . S
C211 C212 1.524 . S
C211 C215 1.400 . S
C212 H197 0.960 . S
C212 H198 0.960 . S
C212 H199 0.960 . S
C212 C211 1.524 . S
C213 C210 1.403 . S
C213 C214 1.392 . S
C213 C217 1.495 . S
C214 C213 1.392 . S
C214 C215 1.385 . S
C214 C216 1.478 . S
C215 H209 0.930 . S
C215 C211 1.400 . S
C215 C214 1.385 . S
C216 C214 1.478 . S
C216 C218 1.381 . S
C216 C222 1.383 . S
C217 C213 1.495 . S
C217 H223 0.959 . S
C217 H224 0.961 . S
C217 H225 0.960 . S
C218 C216 1.381 . S
C218 C219 1.394 . S
C218 H226 0.930 . S
C219 C218 1.394 . S
C219 C220 1.383 . S
C219 H227 0.929 . S
C220 C219 1.383 . S
C220 C221 1.377 . S
C221 H205 0.930 . S
C221 C220 1.377 . S
C221 C222 1.379 . S
C222 H206 0.931 . S
C222 C216 1.383 . S
C222 C221 1.379 . S
H223 C217 0.959 . S
H224 C217 0.961 . S
H225 C217 0.960 . S
H226 C218 0.930 . S
H227 C219 0.929 . S
H228 C236 0.929 . S
H229 C238 0.930 . S
H230 C240 0.930 . S
H231 C243 0.929 . S
H232 C246 0.930 . S
H233 C248 0.960 . S
H234 C248 0.960 . S
H235 C248 0.960 . S
C236 H228 0.929 . S
C236 C237 1.377 . S
C236 C238 1.384 . S
C237 C236 1.377 . S
C237 C243 1.390 . S
C238 H229 0.930 . S
C238 C236 1.384 . S
C238 C239 1.372 . S
C239 C238 1.372 . S
C239 C240 1.400 . S
C239 C244 1.490 . S
C240 H230 0.930 . S
C240 C239 1.400 . S
C240 C243 1.386 . S
H241 C257 0.930 . S
H242 C258 0.931 . S
C243 H231 0.929 . S
C243 C237 1.390 . S
C243 C240 1.386 . S
C244 C239 1.490 . S
C244 C246 1.395 . S
C244 C247 1.403 . S
H245 C251 0.930 . S
C246 H232 0.930 . S
C246 C244 1.395 . S
C246 C249 1.403 . S
C247 C244 1.403 . S
C247 C248 1.524 . S
C247 C251 1.400 . S
C248 H233 0.960 . S
C248 H234 0.960 . S
C248 H235 0.960 . S
C248 C247 1.524 . S
C249 C246 1.403 . S
C249 C250 1.392 . S
C249 C253 1.495 . S
C250 C249 1.392 . S
C250 C251 1.385 . S
C250 C252 1.478 . S
C251 H245 0.930 . S
C251 C247 1.400 . S
C251 C250 1.385 . S
C252 C250 1.478 . S
C252 C254 1.381 . S
C252 C258 1.383 . S
C253 C249 1.495 . S
C253 H259 0.959 . S
C253 H260 0.961 . S
C253 H261 0.960 . S
C254 C252 1.381 . S
C254 C255 1.394 . S
C254 H262 0.930 . S
C255 C254 1.394 . S
C255 C256 1.383 . S
C255 H263 0.929 . S
C256 C255 1.383 . S
C256 C257 1.377 . S
C257 H241 0.930 . S
C257 C256 1.377 . S
C257 C258 1.379 . S
C258 H242 0.931 . S
C258 C252 1.383 . S
C258 C257 1.379 . S
H259 C253 0.959 . S
H260 C253 0.961 . S
H261 C253 0.960 . S
H262 C254 0.930 . S
H263 C255 0.929 . S
H264 C272 0.929 . S
H265 C274 0.930 . S
H266 C276 0.930 . S
H267 C279 0.929 . S
H268 C282 0.930 . S
H269 C284 0.960 . S
H270 C284 0.960 . S
H271 C284 0.960 . S
C272 H264 0.929 . S
C272 C273 1.377 . S
C272 C274 1.384 . S
C273 C272 1.377 . S
C273 C279 1.390 . S
C274 H265 0.930 . S
C274 C272 1.384 . S
C274 C275 1.372 . S
C275 C274 1.372 . S
C275 C276 1.400 . S
C275 C280 1.490 . S
C276 H266 0.930 . S
C276 C275 1.400 . S
C276 C279 1.386 . S
H277 C293 0.930 . S
H278 C294 0.931 . S
C279 H267 0.929 . S
C279 C273 1.390 . S
C279 C276 1.386 . S
C280 C275 1.490 . S
C280 C282 1.395 . S
C280 C283 1.403 . S
H281 C287 0.930 . S
C282 H268 0.930 . S
C282 C280 1.395 . S
C282 C285 1.403 . S
C283 C280 1.403 . S
C283 C284 1.524 . S
C283 C287 1.400 . S
C284 H269 0.960 . S
C284 H270 0.960 . S
C284 H271 0.960 . S
C284 C283 1.524 . S
C285 C282 1.403 . S
C285 C286 1.392 . S
C285 C289 1.495 . S
C286 C285 1.392 . S
C286 C287 1.385 . S
C286 C288 1.478 . S
C287 H281 0.930 . S
C287 C283 1.400 . S
C287 C286 1.385 . S
C288 C286 1.478 . S
C288 C290 1.381 . S
C288 C294 1.383 . S
C289 C285 1.495 . S
C289 H295 0.959 . S
C289 H296 0.961 . S
C289 H297 0.960 . S
C290 C288 1.381 . S
C290 C291 1.394 . S
C290 H298 0.930 . S
C291 C290 1.394 . S
C291 C292 1.383 . S
C291 H299 0.929 . S
C292 C291 1.383 . S
C292 C293 1.377 . S
C293 H277 0.930 . S
C293 C292 1.377 . S
C293 C294 1.379 . S
C294 H278 0.931 . S
C294 C288 1.383 . S
C294 C293 1.379 . S
H295 C289 0.959 . S
H296 C289 0.961 . S
H297 C289 0.960 . S
H298 C290 0.930 . S
H299 C291 0.929 . S
H300 C308 0.929 . S
H301 C310 0.930 . S
H302 C312 0.930 . S
H303 C315 0.929 . S
H304 C318 0.930 . S
H305 C320 0.960 . S
H306 C320 0.960 . S
H307 C320 0.960 . S
C308 H300 0.929 . S
C308 C309 1.377 . S
C308 C310 1.384 . S
C309 C308 1.377 . S
C309 C315 1.390 . S
C310 H301 0.930 . S
C310 C308 1.384 . S
C310 C311 1.372 . S
C311 C310 1.372 . S
C311 C312 1.400 . S
C311 C316 1.490 . S
C312 H302 0.930 . S
C312 C311 1.400 . S
C312 C315 1.386 . S
H313 C329 0.930 . S
H314 C330 0.931 . S
C315 H303 0.929 . S
C315 C309 1.390 . S
C315 C312 1.386 . S
C316 C311 1.490 . S
C316 C318 1.395 . S
C316 C319 1.403 . S
H317 C323 0.930 . S
C318 H304 0.930 . S
C318 C316 1.395 . S
C318 C321 1.403 . S
C319 C316 1.403 . S
C319 C320 1.524 . S
C319 C323 1.400 . S
C320 H305 0.960 . S
C320 H306 0.960 . S
C320 H307 0.960 . S
C320 C319 1.524 . S
C321 C318 1.403 . S
C321 C322 1.392 . S
C321 C325 1.495 . S
C322 C321 1.392 . S
C322 C323 1.385 . S
C322 C324 1.478 . S
C323 H317 0.930 . S
C323 C319 1.400 . S
C323 C322 1.385 . S
C324 C322 1.478 . S
C324 C326 1.381 . S
C324 C330 1.383 . S
C325 C321 1.495 . S
C325 H331 0.959 . S
C325 H332 0.961 . S
C325 H333 0.960 . S
C326 C324 1.381 . S
C326 C327 1.394 . S
C326 H334 0.930 . S
C327 C326 1.394 . S
C327 C328 1.383 . S
C327 H335 0.929 . S
C328 C327 1.383 . S
C328 C329 1.377 . S
C329 H313 0.930 . S
C329 C328 1.377 . S
C329 C330 1.379 . S
C330 H314 0.931 . S
C330 C324 1.383 . S
C330 C329 1.379 . S
H331 C325 0.959 . S
H332 C325 0.961 . S
H333 C325 0.960 . S
H334 C326 0.930 . S
H335 C327 0.929 . S
H336 C344 0.929 . S
H337 C346 0.930 . S
H338 C348 0.930 . S
H339 C351 0.929 . S
H340 C354 0.930 . S
H341 C356 0.960 . S
H342 C356 0.960 . S
H343 C356 0.960 . S
C344 H336 0.929 . S
C344 C345 1.377 . S
C344 C346 1.384 . S
C345 C344 1.377 . S
C345 C351 1.390 . S
C346 H337 0.930 . S
C346 C344 1.384 . S
C346 C347 1.372 . S
C347 C346 1.372 . S
C347 C348 1.400 . S
C347 C352 1.490 . S
C348 H338 0.930 . S
C348 C347 1.400 . S
C348 C351 1.386 . S
H349 C365 0.930 . S
H350 C366 0.931 . S
C351 H339 0.929 . S
C351 C345 1.390 . S
C351 C348 1.386 . S
C352 C347 1.490 . S
C352 C354 1.395 . S
C352 C355 1.403 . S
H353 C359 0.930 . S
C354 H340 0.930 . S
C354 C352 1.395 . S
C354 C357 1.403 . S
C355 C352 1.403 . S
C355 C356 1.524 . S
C355 C359 1.400 . S
C356 H341 0.960 . S
C356 H342 0.960 . S
C356 H343 0.960 . S
C356 C355 1.524 . S
C357 C354 1.403 . S
C357 C358 1.392 . S
C357 C361 1.495 . S
C358 C357 1.392 . S
C358 C359 1.385 . S
C358 C360 1.478 . S
C359 H353 0.930 . S
C359 C355 1.400 . S
C359 C358 1.385 . S
C360 C358 1.478 . S
C360 C362 1.381 . S
C360 C366 1.383 . S
C361 C357 1.495 . S
C361 H367 0.959 . S
C361 H368 0.961 . S
C361 H369 0.960 . S
C362 C360 1.381 . S
C362 C363 1.394 . S
C362 H370 0.930 . S
C363 C362 1.394 . S
C363 C364 1.383 . S
C363 H371 0.929 . S
C364 C363 1.383 . S
C364 C365 1.377 . S
C365 H349 0.930 . S
C365 C364 1.377 . S
C365 C366 1.379 . S
C366 H350 0.931 . S
C366 C360 1.383 . S
C366 C365 1.379 . S
H367 C361 0.959 . S
H368 C361 0.961 . S
H369 C361 0.960 . S
H370 C362 0.930 . S
H371 C363 0.929 . S
H372 C380 0.929 . S
H373 C382 0.930 . S
H374 C384 0.930 . S
H375 C387 0.929 . S
H376 C390 0.930 . S
H377 C392 0.960 . S
H378 C392 0.960 . S
H379 C392 0.960 . S
C380 H372 0.929 . S
C380 C381 1.377 . S
C380 C382 1.384 . S
C381 C380 1.377 . S
C381 C387 1.390 . S
C382 H373 0.930 . S
C382 C380 1.384 . S
C382 C383 1.372 . S
C383 C382 1.372 . S
C383 C384 1.400 . S
C383 C388 1.490 . S
C384 H374 0.930 . S
C384 C383 1.400 . S
C384 C387 1.386 . S
H385 C401 0.930 . S
H386 C402 0.931 . S
C387 H375 0.929 . S
C387 C381 1.390 . S
C387 C384 1.386 . S
C388 C383 1.490 . S
C388 C390 1.395 . S
C388 C391 1.403 . S
H389 C395 0.930 . S
C390 H376 0.930 . S
C390 C388 1.395 . S
C390 C393 1.403 . S
C391 C388 1.403 . S
C391 C392 1.524 . S
C391 C395 1.400 . S
C392 H377 0.960 . S
C392 H378 0.960 . S
C392 H379 0.960 . S
C392 C391 1.524 . S
C393 C390 1.403 . S
C393 C394 1.392 . S
C393 C397 1.495 . S
C394 C393 1.392 . S
C394 C395 1.385 . S
C394 C396 1.478 . S
C395 H389 0.930 . S
C395 C391 1.400 . S
C395 C394 1.385 . S
C396 C394 1.478 . S
C396 C398 1.381 . S
C396 C402 1.383 . S
C397 C393 1.495 . S
C397 H403 0.959 . S
C397 H404 0.961 . S
C397 H405 0.960 . S
C398 C396 1.381 . S
C398 C399 1.394 . S
C398 H406 0.930 . S
C399 C398 1.394 . S
C399 C400 1.383 . S
C399 H407 0.929 . S
C400 C399 1.383 . S
C400 C401 1.377 . S
C401 H385 0.930 . S
C401 C400 1.377 . S
C401 C402 1.379 . S
C402 H386 0.931 . S
C402 C396 1.383 . S
C402 C401 1.379 . S
H403 C397 0.959 . S
H404 C397 0.961 . S
H405 C397 0.960 . S
H406 C398 0.930 . S
H407 C399 0.929 . S
H408 C416 0.929 . S
H409 C418 0.930 . S
H410 C420 0.930 . S
H411 C423 0.929 . S
H412 C426 0.930 . S
H413 C428 0.960 . S
H414 C428 0.960 . S
H415 C428 0.960 . S
C416 H408 0.929 . S
C416 C417 1.377 . S
C416 C418 1.384 . S
C417 C416 1.377 . S
C417 C423 1.390 . S
C418 H409 0.930 . S
C418 C416 1.384 . S
C418 C419 1.372 . S
C419 C418 1.372 . S
C419 C420 1.400 . S
C419 C424 1.490 . S
C420 H410 0.930 . S
C420 C419 1.400 . S
C420 C423 1.386 . S
H421 C437 0.930 . S
H422 C438 0.931 . S
C423 H411 0.929 . S
C423 C417 1.390 . S
C423 C420 1.386 . S
C424 C419 1.490 . S
C424 C426 1.395 . S
C424 C427 1.403 . S
H425 C431 0.930 . S
C426 H412 0.930 . S
C426 C424 1.395 . S
C426 C429 1.403 . S
C427 C424 1.403 . S
C427 C428 1.524 . S
C427 C431 1.400 . S
C428 H413 0.960 . S
C428 H414 0.960 . S
C428 H415 0.960 . S
C428 C427 1.524 . S
C429 C426 1.403 . S
C429 C430 1.392 . S
C429 C433 1.495 . S
C430 C429 1.392 . S
C430 C431 1.385 . S
C430 C432 1.478 . S
C431 H425 0.930 . S
C431 C427 1.400 . S
C431 C430 1.385 . S
C432 C430 1.478 . S
C432 C434 1.381 . S
C432 C438 1.383 . S
C433 C429 1.495 . S
C433 H439 0.959 . S
C433 H440 0.961 . S
C433 H441 0.960 . S
C434 C432 1.381 . S
C434 C435 1.394 . S
C434 H442 0.930 . S
C435 C434 1.394 . S
C435 C436 1.383 . S
C435 H443 0.929 . S
C436 C435 1.383 . S
C436 C437 1.377 . S
C437 H421 0.930 . S
C437 C436 1.377 . S
C437 C438 1.379 . S
C438 H422 0.931 . S
C438 C432 1.383 . S
C438 C437 1.379 . S
H439 C433 0.959 . S
H440 C433 0.961 . S
H441 C433 0.960 . S
H442 C434 0.930 . S
H443 C435 0.929 . S
H444 C452 0.929 . S
H445 C454 0.930 . S
H446 C456 0.930 . S
H447 C459 0.929 . S
H448 C462 0.930 . S
H449 C464 0.960 . S
H450 C464 0.960 . S
H451 C464 0.960 . S
C452 H444 0.929 . S
C452 C453 1.377 . S
C452 C454 1.384 . S
C453 C452 1.377 . S
C453 C459 1.390 . S
C454 H445 0.930 . S
C454 C452 1.384 . S
C454 C455 1.372 . S
C455 C454 1.372 . S
C455 C456 1.400 . S
C455 C460 1.490 . S
C456 H446 0.930 . S
C456 C455 1.400 . S
C456 C459 1.386 . S
H457 C473 0.930 . S
H458 C474 0.931 . S
C459 H447 0.929 . S
C459 C453 1.390 . S
C459 C456 1.386 . S
C460 C455 1.490 . S
C460 C462 1.395 . S
C460 C463 1.403 . S
H461 C467 0.930 . S
C462 H448 0.930 . S
C462 C460 1.395 . S
C462 C465 1.403 . S
C463 C460 1.403 . S
C463 C464 1.524 . S
C463 C467 1.400 . S
C464 H449 0.960 . S
C464 H450 0.960 . S
C464 H451 0.960 . S
C464 C463 1.524 . S
C465 C462 1.403 . S
C465 C466 1.392 . S
C465 C469 1.495 . S
C466 C465 1.392 . S
C466 C467 1.385 . S
C466 C468 1.478 . S
C467 H461 0.930 . S
C467 C463 1.400 . S
C467 C466 1.385 . S
C468 C466 1.478 . S
C468 C470 1.381 . S
C468 C474 1.383 . S
C469 C465 1.495 . S
C469 H475 0.959 . S
C469 H476 0.961 . S
C469 H477 0.960 . S
C470 C468 1.381 . S
C470 C471 1.394 . S
C470 H478 0.930 . S
C471 C470 1.394 . S
C471 C472 1.383 . S
C471 H479 0.929 . S
C472 C471 1.383 . S
C472 C473 1.377 . S
C473 H457 0.930 . S
C473 C472 1.377 . S
C473 C474 1.379 . S
C474 H458 0.931 . S
C474 C468 1.383 . S
C474 C473 1.379 . S
H475 C469 0.959 . S
H476 C469 0.961 . S
H477 C469 0.960 . S
H478 C470 0.930 . S
H479 C471 0.929 . S
H480 C488 0.929 . S
H481 C490 0.930 . S
H482 C492 0.930 . S
H483 C495 0.929 . S
H484 C498 0.930 . S
H485 C500 0.960 . S
H486 C500 0.960 . S
H487 C500 0.960 . S
C488 H480 0.929 . S
C488 C489 1.377 . S
C488 C490 1.384 . S
C489 C488 1.377 . S
C489 C495 1.390 . S
C490 H481 0.930 . S
C490 C488 1.384 . S
C490 C491 1.372 . S
C491 C490 1.372 . S
C491 C492 1.400 . S
C491 C496 1.490 . S
C492 H482 0.930 . S
C492 C491 1.400 . S
C492 C495 1.386 . S
H493 C509 0.930 . S
H494 C510 0.931 . S
C495 H483 0.929 . S
C495 C489 1.390 . S
C495 C492 1.386 . S
C496 C491 1.490 . S
C496 C498 1.395 . S
C496 C499 1.403 . S
H497 C503 0.930 . S
C498 H484 0.930 . S
C498 C496 1.395 . S
C498 C501 1.403 . S
C499 C496 1.403 . S
C499 C500 1.524 . S
C499 C503 1.400 . S
C500 H485 0.960 . S
C500 H486 0.960 . S
C500 H487 0.960 . S
C500 C499 1.524 . S
C501 C498 1.403 . S
C501 C502 1.392 . S
C501 C505 1.495 . S
C502 C501 1.392 . S
C502 C503 1.385 . S
C502 C504 1.478 . S
C503 H497 0.930 . S
C503 C499 1.400 . S
C503 C502 1.385 . S
C504 C502 1.478 . S
C504 C506 1.381 . S
C504 C510 1.383 . S
C505 C501 1.495 . S
C505 H511 0.959 . S
C505 H512 0.961 . S
C505 H513 0.960 . S
C506 C504 1.381 . S
C506 C507 1.394 . S
C506 H514 0.930 . S
C507 C506 1.394 . S
C507 C508 1.383 1_565 S
C507 H515 0.929 1_565 S
C508 C507 1.383 1_545 S
C508 C509 1.377 1_545 S
C509 H493 0.930 . S
C509 C508 1.377 1_565 S
C509 C510 1.379 . S
C510 H494 0.931 . S
C510 C504 1.383 . S
C510 C509 1.379 . S
H511 C505 0.959 . S
H512 C505 0.961 . S
H513 C505 0.960 . S
H514 C506 0.930 . S
H515 C507 0.929 1_545 S
H516 C524 0.929 . S
H517 C526 0.930 . S
H518 C528 0.930 . S
H519 C531 0.929 . S
H520 C534 0.930 . S
H521 C536 0.960 . S
H522 C536 0.960 . S
H523 C536 0.960 . S
C524 H516 0.929 . S
C524 C525 1.377 . S
C524 C526 1.384 . S
C525 C524 1.377 . S
C525 C531 1.390 . S
C526 H517 0.930 . S
C526 C524 1.384 . S
C526 C527 1.372 . S
C527 C526 1.372 . S
C527 C528 1.400 . S
C527 C532 1.490 . S
C528 H518 0.930 . S
C528 C527 1.400 . S
C528 C531 1.386 . S
H529 C545 0.930 . S
H530 C546 0.931 . S
C531 H519 0.929 . S
C531 C525 1.390 . S
C531 C528 1.386 . S
C532 C527 1.490 . S
C532 C534 1.395 . S
C532 C535 1.403 . S
H533 C539 0.930 . S
C534 H520 0.930 . S
C534 C532 1.395 . S
C534 C537 1.403 . S
C535 C532 1.403 . S
C535 C536 1.524 . S
C535 C539 1.400 . S
C536 H521 0.960 . S
C536 H522 0.960 . S
C536 H523 0.960 . S
C536 C535 1.524 . S
C537 C534 1.403 . S
C537 C538 1.392 . S
C537 C541 1.495 . S
C538 C537 1.392 . S
C538 C539 1.385 . S
C538 C540 1.478 . S
C539 H533 0.930 . S
C539 C535 1.400 . S
C539 C538 1.385 . S
C540 C538 1.478 . S
C540 C542 1.381 . S
C540 C546 1.383 . S
C541 C537 1.495 . S
C541 H547 0.959 . S
C541 H548 0.961 . S
C541 H549 0.960 . S
C542 C540 1.381 . S
C542 C543 1.394 . S
C542 H550 0.930 . S
C543 C542 1.394 . S
C543 C544 1.383 . S
C543 H551 0.929 . S
C544 C543 1.383 . S
C544 C545 1.377 . S
C545 H529 0.930 . S
C545 C544 1.377 . S
C545 C546 1.379 . S
C546 H530 0.931 . S
C546 C540 1.383 . S
C546 C545 1.379 . S
H547 C541 0.959 . S
H548 C541 0.961 . S
H549 C541 0.960 . S
H550 C542 0.930 . S
H551 C543 0.929 . S
H552 C560 0.929 . S
H553 C562 0.930 . S
H554 C564 0.930 . S
H555 C567 0.929 . S
H556 C570 0.930 . S
H557 C572 0.960 . S
H558 C572 0.960 . S
H559 C572 0.960 . S
C560 H552 0.929 . S
C560 C561 1.377 . S
C560 C562 1.384 . S
C561 C560 1.377 . S
C561 C567 1.390 . S
C562 H553 0.930 . S
C562 C560 1.384 . S
C562 C563 1.372 . S
C563 C562 1.372 . S
C563 C564 1.400 . S
C563 C568 1.490 . S
C564 H554 0.930 . S
C564 C563 1.400 . S
C564 C567 1.386 . S
H565 C581 0.930 . S
H566 C582 0.931 . S
C567 H555 0.929 . S
C567 C561 1.390 . S
C567 C564 1.386 . S
C568 C563 1.490 . S
C568 C570 1.395 . S
C568 C571 1.403 . S
H569 C575 0.930 . S
C570 H556 0.930 . S
C570 C568 1.395 . S
C570 C573 1.403 . S
C571 C568 1.403 . S
C571 C572 1.524 . S
C571 C575 1.400 . S
C572 H557 0.960 . S
C572 H558 0.960 . S
C572 H559 0.960 . S
C572 C571 1.524 . S
C573 C570 1.403 . S
C573 C574 1.392 . S
C573 C577 1.495 . S
C574 C573 1.392 . S
C574 C575 1.385 . S
C574 C576 1.478 . S
C575 H569 0.930 . S
C575 C571 1.400 . S
C575 C574 1.385 . S
C576 C574 1.478 . S
C576 C578 1.381 . S
C576 C582 1.383 . S
C577 C573 1.495 . S
C577 H583 0.959 . S
C577 H584 0.961 . S
C577 H585 0.960 . S
C578 C576 1.381 . S
C578 C579 1.394 . S
C578 H586 0.930 . S
C579 C578 1.394 . S
C579 C580 1.383 . S
C579 H587 0.929 . S
C580 C579 1.383 . S
C580 C581 1.377 . S
C581 H565 0.930 . S
C581 C580 1.377 . S
C581 C582 1.379 . S
C582 H566 0.931 . S
C582 C576 1.383 . S
C582 C581 1.379 . S
H583 C577 0.959 . S
H584 C577 0.961 . S
H585 C577 0.960 . S
H586 C578 0.930 . S
H587 C579 0.929 . S
H588 C596 0.929 . S
H589 C598 0.930 . S
H590 C600 0.930 . S
H591 C603 0.929 . S
H592 C606 0.930 . S
H593 C608 0.960 . S
H594 C608 0.960 . S
H595 C608 0.960 . S
C596 H588 0.929 . S
C596 C597 1.377 . S
C596 C598 1.384 . S
C597 C596 1.377 . S
C597 C603 1.390 . S
C598 H589 0.930 . S
C598 C596 1.384 . S
C598 C599 1.372 . S
C599 C598 1.372 . S
C599 C600 1.400 . S
C599 C604 1.490 . S
C600 H590 0.930 . S
C600 C599 1.400 . S
C600 C603 1.386 . S
H601 C617 0.930 . S
H602 C618 0.931 . S
C603 H591 0.929 . S
C603 C597 1.390 . S
C603 C600 1.386 . S
C604 C599 1.490 . S
C604 C606 1.395 . S
C604 C607 1.403 . S
H605 C611 0.930 . S
C606 H592 0.930 . S
C606 C604 1.395 . S
C606 C609 1.403 . S
C607 C604 1.403 . S
C607 C608 1.524 . S
C607 C611 1.400 . S
C608 H593 0.960 . S
C608 H594 0.960 . S
C608 H595 0.960 . S
C608 C607 1.524 . S
C609 C606 1.403 . S
C609 C610 1.392 . S
C609 C613 1.495 . S
C610 C609 1.392 . S
C610 C611 1.385 . S
C610 C612 1.478 . S
C611 H605 0.930 . S
C611 C607 1.400 . S
C611 C610 1.385 . S
C612 C610 1.478 . S
C612 C614 1.381 . S
C612 C618 1.383 . S
C613 C609 1.495 . S
C613 H619 0.959 . S
C613 H620 0.961 . S
C613 H621 0.960 . S
C614 C612 1.381 . S
C614 C615 1.394 . S
C614 H622 0.930 . S
C615 C614 1.394 . S
C615 C616 1.383 . S
C615 H623 0.929 . S
C616 C615 1.383 . S
C616 C617 1.377 . S
C617 H601 0.930 . S
C617 C616 1.377 . S
C617 C618 1.379 . S
C618 H602 0.931 . S
C618 C612 1.383 . S
C618 C617 1.379 . S
H619 C613 0.959 . S
H620 C613 0.961 . S
H621 C613 0.960 . S
H622 C614 0.930 . S
H623 C615 0.929 . S
H624 C632 0.929 . S
H625 C634 0.930 . S
H626 C636 0.930 . S
H627 C639 0.929 . S
H628 C642 0.930 . S
H629 C644 0.960 . S
H630 C644 0.960 . S
H631 C644 0.960 1_455 S
C632 H624 0.929 . S
C632 C633 1.377 . S
C632 C634 1.384 . S
C633 C632 1.377 . S
C633 C639 1.390 . S
C634 H625 0.930 . S
C634 C632 1.384 . S
C634 C635 1.372 . S
C635 C634 1.372 . S
C635 C636 1.400 . S
C635 C640 1.490 . S
C636 H626 0.930 . S
C636 C635 1.400 . S
C636 C639 1.386 . S
H637 C653 0.930 . S
H638 C654 0.931 . S
C639 H627 0.929 . S
C639 C633 1.390 . S
C639 C636 1.386 . S
C640 C635 1.490 . S
C640 C642 1.395 . S
C640 C643 1.403 . S
H641 C647 0.931 1_556 S
C642 H628 0.930 . S
C642 C640 1.395 . S
C642 C645 1.403 . S
C643 C640 1.403 . S
C643 C644 1.524 1_455 S
C643 C647 1.397 . S
C644 H629 0.960 . S
C644 H630 0.960 . S
C644 H631 0.960 1_655 S
C644 C643 1.524 1_655 S
C645 C642 1.403 . S
C645 C646 1.392 1_554 S
C645 C649 1.495 1_554 S
C646 C645 1.392 1_556 S
C646 C647 1.387 1_556 S
C646 C648 1.478 . S
C647 H641 0.931 1_554 S
C647 C643 1.397 . S
C647 C646 1.387 1_554 S
C648 C646 1.478 . S
C648 C650 1.381 . S
C648 C654 1.383 . S
C649 C645 1.495 1_556 S
C649 H655 0.959 1_556 S
C649 H656 0.961 . S
C649 H657 0.960 . S
C650 C648 1.381 . S
C650 C651 1.394 . S
C650 H658 0.930 1_455 S
C651 C650 1.394 . S
C651 C652 1.383 . S
C651 H659 0.929 1_455 S
C652 C651 1.383 . S
C652 C653 1.377 . S
C653 H637 0.930 . S
C653 C652 1.377 . S
C653 C654 1.379 . S
C654 H638 0.931 . S
C654 C648 1.383 . S
C654 C653 1.379 . S
H655 C649 0.959 1_554 S
H656 C649 0.961 . S
H657 C649 0.960 . S
H658 C650 0.930 1_655 S
H659 C651 0.929 1_655 S
H660 C668 0.929 . S
H661 C670 0.930 . S
H662 C672 0.930 . S
H663 C675 0.929 . S
H664 C678 0.936 . S
H665 C680 0.960 . S
H666 C680 0.960 . S
H667 C680 0.960 . S
C668 H660 0.929 . S
C668 C669 1.377 . S
C668 C670 1.384 . S
C669 C668 1.377 . S
C669 C675 1.390 . S
C670 H661 0.930 . S
C670 C668 1.384 . S
C670 C671 1.372 . S
C671 C670 1.372 . S
C671 C672 1.400 . S
C671 C676 1.490 . S
C672 H662 0.930 . S
C672 C671 1.400 . S
C672 C675 1.386 . S
H673 C689 0.930 . S
H674 C690 0.931 . S
C675 H663 0.929 . S
C675 C669 1.390 . S
C675 C672 1.386 . S
C676 C671 1.490 . S
C676 C678 1.395 . S
C676 C679 1.403 . S
H677 C683 0.930 . S
C678 H664 0.936 . S
C678 C676 1.395 . S
C678 C681 1.403 . S
C679 C676 1.403 . S
C679 C680 1.524 . S
C679 C683 1.400 . S
C680 H665 0.960 . S
C680 H666 0.960 . S
C680 H667 0.960 . S
C680 C679 1.524 . S
C681 C678 1.403 . S
C681 C682 1.392 . S
C681 C685 1.495 1_545 S
C682 C681 1.392 . S
C682 C683 1.385 . S
C682 C684 1.478 . S
C683 H677 0.930 . S
C683 C679 1.400 . S
C683 C682 1.385 . S
C684 C682 1.478 . S
C684 C686 1.381 . S
C684 C690 1.383 . S
C685 C681 1.495 1_565 S
C685 H691 0.959 . S
C685 H692 0.961 . S
C685 H693 0.960 . S
C686 C684 1.381 . S
C686 C687 1.394 . S
C686 H694 0.930 . S
C687 C686 1.394 . S
C687 C688 1.383 . S
C687 H695 0.929 . S
C688 C687 1.383 . S
C688 C689 1.377 . S
C689 H673 0.930 . S
C689 C688 1.377 . S
C689 C690 1.379 . S
C690 H674 0.931 . S
C690 C684 1.383 . S
C690 C689 1.379 . S
H691 C685 0.959 . S
H692 C685 0.961 . S
H693 C685 0.960 . S
H694 C686 0.930 . S
H695 C687 0.929 . S
H696 C704 0.929 . S
H697 C706 0.930 . S
H698 C708 0.930 . S
H699 C711 0.929 . S
H700 C714 0.930 . S
H701 C716 0.960 . S
H702 C716 0.960 . S
H703 C716 0.960 . S
C704 H696 0.929 . S
C704 C705 1.377 . S
C704 C706 1.384 . S
C705 C704 1.377 . S
C705 C711 1.390 . S
C706 H697 0.930 . S
C706 C704 1.384 . S
C706 C707 1.372 . S
C707 C706 1.372 . S
C707 C708 1.400 . S
C707 C712 1.490 . S
C708 H698 0.930 . S
C708 C707 1.400 . S
C708 C711 1.386 . S
H709 C725 0.930 . S
H710 C726 0.931 . S
C711 H699 0.929 . S
C711 C705 1.390 . S
C711 C708 1.386 . S
C712 C707 1.490 . S
C712 C714 1.395 . S
C712 C715 1.403 . S
H713 C719 0.930 . S
C714 H700 0.930 . S
C714 C712 1.395 . S
C714 C717 1.403 . S
C715 C712 1.403 . S
C715 C716 1.524 . S
C715 C719 1.400 . S
C716 H701 0.960 . S
C716 H702 0.960 . S
C716 H703 0.960 . S
C716 C715 1.524 . S
C717 C714 1.403 . S
C717 C718 1.392 . S
C717 C721 1.495 . S
C718 C717 1.392 . S
C718 C719 1.385 . S
C718 C720 1.478 . S
C719 H713 0.930 . S
C719 C715 1.400 . S
C719 C718 1.385 . S
C720 C718 1.478 . S
C720 C722 1.381 . S
C720 C726 1.383 . S
C721 C717 1.495 . S
C721 H727 0.959 . S
C721 H728 0.961 . S
C721 H729 0.960 . S
C722 C720 1.381 . S
C722 C723 1.394 . S
C722 H730 0.930 . S
C723 C722 1.394 . S
C723 C724 1.383 . S
C723 H731 0.929 . S
C724 C723 1.383 . S
C724 C725 1.377 . S
C725 H709 0.930 . S
C725 C724 1.377 . S
C725 C726 1.379 . S
C726 H710 0.931 . S
C726 C720 1.383 . S
C726 C725 1.379 . S
H727 C721 0.959 . S
H728 C721 0.961 . S
H729 C721 0.960 . S
H730 C722 0.930 . S
H731 C723 0.929 . S
H732 C740 0.929 . S
H733 C742 0.930 . S
H734 C744 0.930 . S
H735 C747 0.929 . S
H736 C750 0.930 . S
H737 C752 0.960 . S
H738 C752 0.960 . S
H739 C752 0.960 . S
C740 H732 0.929 . S
C740 C741 1.377 . S
C740 C742 1.384 . S
C741 C740 1.377 . S
C741 C747 1.390 . S
C742 H733 0.930 . S
C742 C740 1.384 . S
C742 C743 1.372 . S
C743 C742 1.372 . S
C743 C744 1.400 . S
C743 C748 1.490 . S
C744 H734 0.930 . S
C744 C743 1.400 . S
C744 C747 1.386 . S
H745 C761 0.930 1_565 S
H746 C762 0.931 1_565 S
C747 H735 0.929 . S
C747 C741 1.390 . S
C747 C744 1.386 . S
C748 C743 1.490 . S
C748 C750 1.395 . S
C748 C751 1.403 . S
H749 C755 0.930 . S
C750 H736 0.930 . S
C750 C748 1.395 . S
C750 C753 1.403 . S
C751 C748 1.403 . S
C751 C752 1.524 . S
C751 C755 1.400 . S
C752 H737 0.960 . S
C752 H738 0.960 . S
C752 H739 0.960 . S
C752 C751 1.524 . S
C753 C750 1.403 . S
C753 C754 1.392 . S
C753 C757 1.495 1_545 S
C754 C753 1.392 . S
C754 C755 1.385 . S
C754 C756 1.478 . S
C755 H749 0.930 . S
C755 C751 1.400 . S
C755 C754 1.385 . S
C756 C754 1.478 . S
C756 C758 1.381 . S
C756 C762 1.383 . S
C757 C753 1.495 1_565 S
C757 H763 0.959 . S
C757 H764 0.961 . S
C757 H765 0.960 1_565 S
C758 C756 1.381 . S
C758 C759 1.394 . S
C758 H766 0.930 . S
C759 C758 1.394 . S
C759 C760 1.383 . S
C759 H767 0.929 . S
C760 C759 1.383 . S
C760 C761 1.377 . S
C761 H745 0.930 1_545 S
C761 C760 1.377 . S
C761 C762 1.379 . S
C762 H746 0.931 1_545 S
C762 C756 1.383 . S
C762 C761 1.379 . S
H763 C757 0.959 . S
H764 C757 0.961 . S
H765 C757 0.960 1_545 S
H766 C758 0.930 . S
H767 C759 0.929 . S
H768 C776 0.929 . S
H769 C778 0.930 . S
H770 C780 0.930 . S
H771 C783 0.929 . S
H772 C786 0.930 . S
H773 C788 0.960 . S
H774 C788 0.960 . S
H775 C788 0.960 . S
C776 H768 0.929 . S
C776 C777 1.377 . S
C776 C778 1.384 . S
C777 C776 1.377 . S
C777 C783 1.390 . S
C778 H769 0.930 . S
C778 C776 1.384 . S
C778 C779 1.372 . S
C779 C778 1.372 . S
C779 C780 1.400 . S
C779 C784 1.490 . S
C780 H770 0.930 . S
C780 C779 1.400 . S
C780 C783 1.386 . S
H781 C797 0.930 . S
H782 C798 0.931 . S
C783 H771 0.929 . S
C783 C777 1.390 . S
C783 C780 1.386 . S
C784 C779 1.490 . S
C784 C786 1.395 . S
C784 C787 1.403 . S
H785 C791 0.930 . S
C786 H772 0.930 . S
C786 C784 1.395 . S
C786 C789 1.406 . S
C787 C784 1.403 . S
C787 C788 1.524 . S
C787 C791 1.400 1_556 S
C788 H773 0.960 . S
C788 H774 0.960 . S
C788 H775 0.960 . S
C788 C787 1.524 . S
C789 C786 1.406 . S
C789 C790 1.391 1_556 S
C789 C793 1.495 1_556 S
C790 C789 1.391 1_554 S
C790 C791 1.385 . S
C790 C792 1.478 . S
C791 H785 0.930 . S
C791 C787 1.400 1_554 S
C791 C790 1.385 . S
C792 C790 1.478 . S
C792 C794 1.381 . S
C792 C798 1.383 . S
C793 C789 1.495 1_554 S
C793 H799 0.959 1_554 S
C793 H800 0.961 . S
C793 H801 0.960 . S
C794 C792 1.381 . S
C794 C795 1.394 . S
C794 H802 0.930 . S
C795 C794 1.394 . S
C795 C796 1.383 . S
C795 H803 0.929 . S
C796 C795 1.383 . S
C796 C797 1.377 . S
C797 H781 0.930 . S
C797 C796 1.377 . S
C797 C798 1.379 . S
C798 H782 0.931 . S
C798 C792 1.383 . S
C798 C797 1.379 . S
H799 C793 0.959 1_556 S
H800 C793 0.961 . S
H801 C793 0.960 . S
H802 C794 0.930 . S
H803 C795 0.929 . S
H804 C812 0.929 . S
H805 C814 0.930 1_655 S
H806 C816 0.930 . S
H807 C819 0.929 . S
H808 C822 0.930 . S
H809 C824 0.960 . S
H810 C824 0.960 . S
H811 C824 0.960 . S
C812 H804 0.929 . S
C812 C813 1.377 . S
C812 C814 1.384 . S
C813 C812 1.377 . S
C813 C819 1.390 . S
C814 H805 0.930 1_455 S
C814 C812 1.384 . S
C814 C815 1.372 . S
C815 C814 1.372 . S
C815 C816 1.400 . S
C815 C820 1.490 . S
C816 H806 0.930 . S
C816 C815 1.400 . S
C816 C819 1.386 . S
H817 C833 0.930 . S
H818 C834 0.931 . S
C819 H807 0.929 . S
C819 C813 1.390 . S
C819 C816 1.386 . S
C820 C815 1.490 . S
C820 C822 1.395 1_455 S
C820 C823 1.403 . S
H821 C827 0.930 . S
C822 H808 0.930 . S
C822 C820 1.395 1_655 S
C822 C825 1.403 . S
C823 C820 1.403 . S
C823 C824 1.524 . S
C823 C827 1.400 . S
C824 H809 0.960 . S
C824 H810 0.960 . S
C824 H811 0.960 . S
C824 C823 1.524 . S
C825 C822 1.403 . S
C825 C826 1.392 1_655 S
C825 C829 1.495 . S
C826 C825 1.392 1_455 S
C826 C827 1.385 . S
C826 C828 1.478 . S
C827 H821 0.930 . S
C827 C823 1.400 . S
C827 C826 1.385 . S
C828 C826 1.478 . S
C828 C830 1.381 1_455 S
C828 C834 1.383 . S
C829 C825 1.495 . S
C829 H835 0.959 . S
C829 H836 0.961 . S
C829 H837 0.960 . S
C830 C828 1.381 1_655 S
C830 C831 1.394 . S
C830 H838 0.930 . S
C831 C830 1.394 . S
C831 C832 1.383 1_655 S
C831 H839 0.929 . S
C832 C831 1.383 1_455 S
C832 C833 1.377 . S
C833 H817 0.930 . S
C833 C832 1.377 . S
C833 C834 1.379 . S
C834 H818 0.931 . S
C834 C828 1.383 . S
C834 C833 1.379 . S
H835 C829 0.959 . S
H836 C829 0.961 . S
H837 C829 0.960 . S
H838 C830 0.930 . S
H839 C831 0.929 . S
C201 C19 2.150 . S
C220 C186 2.122 . S
C237 C46 1.249 . S
C256 C160 1.210 . S
C273 C95 0.419 . S
C292 C172 0.435 . S
C309 C10 1.653 . S
C328 C184 1.586 . S
C364 C162 1.098 . S
C345 C55 1.104 . S
C400 C174 0.284 . S
C381 C86 0.283 . S
C417 C59 3.158 . S
C436 C136 3.067 . S
C453 C90 2.216 . S
C472 C150 2.221 . S
C489 C15 1.097 . S
C508 C126 1.078 . S
C544 C138 2.842 . S
C525 C50 2.871 . S
C580 C148 1.559 . S
C561 C99 1.601 . S
C597 C6 1.239 . S
C616 C124 1.239 . S
C652 C153 1.491 . S
C633 C9 1.424 . S
C669 C58 1.528 . S
C688 C129 1.534 . S
C705 C98 1.645 . S
C724 C141 1.728 . S
C760 C177 1.284 . S
C741 C49 1.232 . S
C796 C189 1.497 . S
C777 C89 1.461 . S
C813 C18 1.498 . S
C832 C165 1.531 . S
