# Generated by pormake.
# Topology zzz, (3,6)-cn, num edge types: 1
# Building blocks:
#     Node 0, Type 0, BuildingBlock: BETDIP_clean_linker_0, # of connection points: 3
#     Node 1, Type 0, BuildingBlock: BETDIP_clean_linker_0, # of connection points: 3
#     Node 2, Type 0, BuildingBlock: BETDIP_clean_linker_0, # of connection points: 3
#     Node 3, Type 0, BuildingBlock: BETDIP_clean_linker_0, # of connection points: 3
#     Node 4, Type 0, BuildingBlock: BETDIP_clean_linker_0, # of connection points: 3
#     Node 5, Type 0, BuildingBlock: BETDIP_clean_linker_0, # of connection points: 3
#     Node 6, Type 0, BuildingBlock: BETDIP_clean_linker_0, # of connection points: 3
#     Node 7, Type 0, BuildingBlock: BETDIP_clean_linker_0, # of connection points: 3
#     Node 8, Type 1, BuildingBlock: FUNLAD_clean_sbu_0, # of connection points: 6
#     Node 9, Type 1, BuildingBlock: FUNLAD_clean_sbu_0, # of connection points: 6
#     Node 10, Type 1, BuildingBlock: FUNLAD_clean_sbu_0, # of connection points: 6
#     Node 11, Type 1, BuildingBlock: FUNLAD_clean_sbu_0, # of connection points: 6
#     Edge 12, Type (0, 1), BuildingBlock: EZIPEK_clean_linker_0, # of connection points: 2
#     Edge 13, Type (0, 1), BuildingBlock: EZIPEK_clean_linker_0, # of connection points: 2
#     Edge 14, Type (0, 1), BuildingBlock: EZIPEK_clean_linker_0, # of connection points: 2
#     Edge 15, Type (0, 1), BuildingBlock: EZIPEK_clean_linker_0, # of connection points: 2
#     Edge 16, Type (0, 1), BuildingBlock: EZIPEK_clean_linker_0, # of connection points: 2
#     Edge 17, Type (0, 1), BuildingBlock: EZIPEK_clean_linker_0, # of connection points: 2
#     Edge 18, Type (0, 1), BuildingBlock: EZIPEK_clean_linker_0, # of connection points: 2
#     Edge 19, Type (0, 1), BuildingBlock: EZIPEK_clean_linker_0, # of connection points: 2
#     Edge 20, Type (0, 1), BuildingBlock: EZIPEK_clean_linker_0, # of connection points: 2
#     Edge 21, Type (0, 1), BuildingBlock: EZIPEK_clean_linker_0, # of connection points: 2
#     Edge 22, Type (0, 1), BuildingBlock: EZIPEK_clean_linker_0, # of connection points: 2
#     Edge 23, Type (0, 1), BuildingBlock: EZIPEK_clean_linker_0, # of connection points: 2
#     Edge 24, Type (0, 1), BuildingBlock: EZIPEK_clean_linker_0, # of connection points: 2
#     Edge 25, Type (0, 1), BuildingBlock: EZIPEK_clean_linker_0, # of connection points: 2
#     Edge 26, Type (0, 1), BuildingBlock: EZIPEK_clean_linker_0, # of connection points: 2
#     Edge 27, Type (0, 1), BuildingBlock: EZIPEK_clean_linker_0, # of connection points: 2
#     Edge 28, Type (0, 1), BuildingBlock: EZIPEK_clean_linker_0, # of connection points: 2
#     Edge 29, Type (0, 1), BuildingBlock: EZIPEK_clean_linker_0, # of connection points: 2
#     Edge 30, Type (0, 1), BuildingBlock: EZIPEK_clean_linker_0, # of connection points: 2
#     Edge 31, Type (0, 1), BuildingBlock: EZIPEK_clean_linker_0, # of connection points: 2
#     Edge 32, Type (0, 1), BuildingBlock: EZIPEK_clean_linker_0, # of connection points: 2
#     Edge 33, Type (0, 1), BuildingBlock: EZIPEK_clean_linker_0, # of connection points: 2
#     Edge 34, Type (0, 1), BuildingBlock: EZIPEK_clean_linker_0, # of connection points: 2
#     Edge 35, Type (0, 1), BuildingBlock: EZIPEK_clean_linker_0, # of connection points: 2
# Relax obj value: 0.112
# Max RMSD: 0.175
# Mean RMSD: 0.093
data_MOF--net-zzz--node1-FUNLAD_clean_sbu_0--node2-BETDIP_clean_linker_0--edge1-EZIPEK_clean_linker_0
_symmetry_space_group_name_H-M    P1
_symmetry_Int_Tables_number       1
_symmetry_cell_setting            triclinic
loop_
_symmetry_equiv_pos_as_xyz
'x, y, z'
_cell_length_a     38.189249
_cell_length_b     43.438731
_cell_length_c     13.025725
_cell_angle_alpha  83.338041
_cell_angle_beta   82.286481
_cell_angle_gamma 89.703613
loop_
_atom_site_label
_atom_site_type_symbol
_atom_site_fract_x
_atom_site_fract_y
_atom_site_fract_z
_atom_type_partial_charge
H0 H 0.80529 0.50374 0.49464 0.0
H1 H 0.83897 0.47856 0.18613 0.0
H2 H 0.915 0.48684 0.39405 0.0
H3 H 0.7996 0.52439 0.16505 0.0
C4 C 0.77835 0.51011 0.21032 0.0
C5 C 0.82564 0.49596 0.43747 0.0
C6 C 0.86103 0.49434 0.45752 0.0
C7 C 0.81742 0.49012 0.33908 0.0
C8 C 0.8446 0.48186 0.2635 0.0
C9 C 0.87973 0.48136 0.28299 0.0
C10 C 0.88752 0.48615 0.38097 0.0
N11 N 0.7829 0.49579 0.31177 0.0
H12 H 1.0081 0.76836 0.29556 0.0
H13 H 0.02532 0.826 -0.00131 0.0
H14 H 0.01622 0.86728 0.28386 0.0
H15 H 0.99511 0.7838 0.94838 0.0
C16 C 1.00852 0.76476 0.98793 0.0
C17 C 0.0111 0.79102 0.25064 0.0
C18 C 0.01085 0.81768 0.30193 0.0
C19 C 0.01542 0.79373 0.14077 0.0
C20 C 0.02065 0.82342 0.08308 0.0
C21 C 0.02118 0.84987 0.13568 0.0
C22 C 0.01569 0.84671 0.24386 0.0
N23 N 0.01623 0.76619 0.09105 0.0
H24 H 0.76262 1.00505 0.32938 0.0
H25 H 0.7497 0.02428 0.00302 0.0
H26 H 0.65894 0.01472 0.23586 0.0
H27 H 0.79831 0.99015 -0.00425 0.0
C28 C 0.81466 1.00244 0.04009 0.0
C29 C 0.74588 0.00966 0.26863 0.0
C30 C 0.70871 0.00987 0.295 0.0
C31 C 0.76113 0.01446 0.16249 0.0
C32 C 0.73878 0.02015 0.08458 0.0
C33 C 0.70201 0.01976 0.1117 0.0
C34 C 0.68751 0.01514 0.21595 0.0
N35 N 0.79861 0.01336 0.13467 0.0
H36 H 0.55633 0.70025 0.31055 0.0
H37 H 0.52042 0.67593 0.02999 0.0
H38 H 0.51762 0.60833 0.29875 0.0
H39 H 0.50312 0.72612 0.012 0.0
C40 C 0.52323 0.73887 0.04156 0.0
C41 C 0.54455 0.68369 0.26894 0.0
C42 C 0.53865 0.65292 0.31479 0.0
C43 C 0.53553 0.69292 0.16858 0.0
C44 C 0.52377 0.67018 0.11113 0.0
C45 C 0.51761 0.63942 0.15761 0.0
C46 C 0.52255 0.63193 0.26201 0.0
N47 N 0.54 0.72471 0.12627 0.0
H48 H 0.26436 0.50591 0.02244 0.0
H49 H 0.22444 0.51287 0.34561 0.0
H50 H 0.15299 0.5162 0.11922 0.0
H51 H 0.27631 0.54656 0.31315 0.0
C52 C 0.29275 0.52709 0.29265 0.0
C53 C 0.24251 0.50778 0.08357 0.0
C54 C 0.20759 0.50978 0.0595 0.0
C55 C 0.24894 0.50969 0.18701 0.0
C56 C 0.22015 0.51225 0.26531 0.0
C57 C 0.18576 0.51501 0.24025 0.0
C58 C 0.17979 0.51371 0.1381 0.0
N59 N 0.2841 0.51002 0.21216 0.0
H60 H 0.07406 0.25358 0.23182 0.0
H61 H 0.0527 0.19489 0.52611 0.0
H62 H 0.05784 0.15559 0.23846 0.0
H63 H 0.03677 0.23901 0.59 0.0
C64 C 0.05114 0.25811 0.5417 0.0
C65 C 0.0691 0.23093 0.27578 0.0
C66 C 0.06722 0.20477 0.22302 0.0
C67 C 0.06344 0.22793 0.38563 0.0
C68 C 0.0565 0.19815 0.44181 0.0
C69 C 0.05428 0.17215 0.38775 0.0
C70 C 0.05987 0.17576 0.27959 0.0
N71 N 0.0645 0.25532 0.4358 0.0
H72 H 0.3017 1.00901 0.19716 0.0
H73 H 0.31757 0.01136 0.51954 0.0
H74 H 0.40635 1.00665 0.28493 0.0
H75 H 0.2655 0.98172 0.54253 0.0
C76 C 0.25074 0.99766 0.49433 0.0
C77 C 0.31902 0.00926 0.25641 0.0
C78 C 0.3561 1.00839 0.22831 0.0
C79 C 0.30454 0.00961 0.3626 0.0
C80 C 0.3277 0.00994 0.43854 0.0
C81 C 0.36428 1.00835 0.41005 0.0
C82 C 0.37789 1.00776 0.30598 0.0
N83 N 0.26705 0.00971 0.39232 0.0
H84 H 0.5124 0.3118 0.20318 0.0
H85 H 0.54849 0.33709 0.48217 0.0
H86 H 0.55361 0.40323 0.20907 0.0
H87 H 0.56413 0.28692 0.50552 0.0
C88 C 0.54413 0.27414 0.47558 0.0
C89 C 0.52461 0.3284 0.2437 0.0
C90 C 0.5313 0.35888 0.19597 0.0
C91 C 0.53328 0.31954 0.34466 0.0
C92 C 0.54547 0.34243 0.40064 0.0
C93 C 0.55256 0.37286 0.35218 0.0
C94 C 0.548 0.37988 0.24731 0.0
N95 N 0.52807 0.28799 0.38902 0.0
C96 C 0.04237 0.97245 0.94037 0.0
N97 N 0.01872 0.95374 0.65379 0.0
C98 C 0.03756 0.92898 0.69036 0.0
C99 C 0.03342 0.89986 0.65927 0.0
C100 C 0.01244 0.89637 0.58148 0.0
C101 C 0.99369 0.92218 0.54246 0.0
C102 C 0.99672 0.95073 0.58141 0.0
Zn103 Zn 0.0258 0.99452 0.71741 0.0
C104 C 0.962 0.01531 0.84736 0.0
N105 N 0.04974 0.06993 0.87925 0.0
C106 C 0.0716 0.07235 0.95232 0.0
C107 C 0.03246 0.09528 0.83973 0.0
C108 C 0.03829 0.12445 0.86835 0.0
C109 C 0.05932 0.12746 0.94647 0.0
C110 C 0.07626 0.101 0.98875 0.0
Zn111 Zn 0.04151 0.02925 0.81756 0.0
O112 O 0.03424 0.96721 0.8533 0.0
C113 C 0.10505 1.00852 0.68795 0.0
O114 O 0.04748 1.00015 0.95797 0.0
H115 H 0.01372 0.09322 0.78585 0.0
H116 H 0.05647 0.93144 0.74329 0.0
H117 H 0.08513 0.0521 0.983 0.0
O118 O 0.08076 0.99364 0.65618 0.0
O119 O 0.0969 0.02529 0.76165 0.0
H120 H 0.98198 0.97049 0.55281 0.0
O121 O 0.03644 0.05618 0.67858 0.0
O122 O 0.01703 0.02396 0.58051 0.0
O123 O 0.98576 0.03282 0.87001 0.0
O124 O 0.97096 0.99602 0.78193 0.0
C125 C 0.02611 0.05118 0.59399 0.0
H126 H 0.04817 0.88053 0.69144 0.0
H127 H 0.97709 0.92027 0.48223 0.0
H128 H 0.02496 0.14431 0.83361 0.0
H129 H 0.09284 0.10252 0.04928 0.0
C130 C 0.48397 1.00016 0.63393 0.0
N131 N 0.53171 0.07991 0.70105 0.0
C132 C 0.53493 0.08929 0.59665 0.0
C133 C 0.5355 0.12079 0.55926 0.0
C134 C 0.53262 0.14293 0.62986 0.0
C135 C 0.52886 0.13286 0.73717 0.0
C136 C 0.52852 0.10101 0.77136 0.0
Zn137 Zn 0.5328 0.03276 0.7477 0.0
C138 C 0.47444 0.01049 0.913 0.0
N139 N 0.53397 0.93383 0.82462 0.0
C140 C 0.53595 0.91294 0.75375 0.0
C141 C 0.5321 0.92417 0.92857 0.0
C142 C 0.53146 0.89258 0.96499 0.0
C143 C 0.53307 0.87065 0.89381 0.0
C144 C 0.53557 0.88102 0.78691 0.0
Zn145 Zn 0.53349 0.98112 0.77849 0.0
O146 O 0.49424 0.02605 0.65551 0.0
C147 C 0.59127 1.00215 0.61304 0.0
O148 O 0.49879 0.97534 0.66723 0.0
H149 H 0.53098 0.941 0.98369 0.0
H150 H 0.53746 0.07229 0.54187 0.0
H151 H 0.53762 0.921 0.67148 0.0
O152 O 0.57545 0.02778 0.62329 0.0
O153 O 0.57877 0.97771 0.66868 0.0
H154 H 0.5261 0.09315 0.85392 0.0
O155 O 0.56865 0.98873 0.88819 0.0
O156 O 0.57139 0.03901 0.84053 0.0
O157 O 0.48761 0.98519 0.88647 0.0
O158 O 0.49027 0.03586 0.87423 0.0
C159 C 0.58257 0.01515 0.89133 0.0
H160 H 0.53856 0.12784 0.47598 0.0
H161 H 0.52676 0.14946 0.79358 0.0
H162 H 0.52953 0.88531 0.04798 0.0
H163 H 0.53678 0.8646 0.73003 0.0
C164 C 0.56499 0.47008 0.6057 0.0
N165 N 0.46372 0.50703 0.65884 0.0
C166 C 0.47054 0.51383 0.55324 0.0
C167 C 0.4433 0.51539 0.49179 0.0
C168 C 0.40844 0.51034 0.53919 0.0
C169 C 0.40174 0.50326 0.64814 0.0
C170 C 0.43005 0.50163 0.70705 0.0
Zn171 Zn 0.50761 0.50571 0.73589 0.0
C172 C 0.51471 0.45078 0.87676 0.0
N173 N 0.60681 0.50474 0.8519 0.0
C174 C 0.63983 0.51357 0.80488 0.0
C175 C 0.60047 0.49594 0.95672 0.0
C176 C 0.62754 0.49591 0.01854 0.0
C177 C 0.66155 0.50519 0.97248 0.0
C178 C 0.66783 0.51401 0.86434 0.0
Zn179 Zn 0.56304 0.50581 0.77428 0.0
O180 O 0.53306 0.47862 0.62406 0.0
C181 C 0.55575 0.56073 0.63305 0.0
O182 O 0.5877 0.47933 0.65849 0.0
H183 H 0.57415 0.48929 -0.00663 0.0
H184 H 0.49728 0.51838 0.51612 0.0
H185 H 0.64434 0.52064 0.72174 0.0
O186 O 0.52549 0.54784 0.64346 0.0
O187 O 0.5799 0.5479 0.68087 0.0
H188 H 0.42514 0.49629 0.79096 0.0
O189 O 0.53774 0.5327 0.88622 0.0
O190 O 0.48315 0.53244 0.85173 0.0
O191 O 0.54508 0.4635 0.86589 0.0
O192 O 0.49053 0.46379 0.8295 0.0
C193 C 0.50594 0.54152 0.90461 0.0
H194 H 0.44932 0.52104 0.40803 0.0
H195 H 0.37497 0.49938 0.68696 0.0
H196 H 0.6219 0.48908 0.10181 0.0
H197 H 0.69397 0.52131 0.82676 0.0
C198 C 0.072 0.52742 0.56386 0.0
N199 N 0.03961 0.44185 0.72358 0.0
C200 C 0.03282 0.43519 0.62844 0.0
C201 C 0.03539 0.40489 0.60263 0.0
C202 C 0.04522 0.38119 0.67509 0.0
C203 C 0.05233 0.38845 0.77251 0.0
C204 C 0.04927 0.41919 0.79543 0.0
Zn205 Zn 0.03518 0.48747 0.75266 0.0
C206 C 0.09798 0.51048 0.83019 0.0
N207 N 0.0288 0.58418 0.78411 0.0
C208 C 0.02274 0.6075 0.70934 0.0
C209 C 0.03225 0.59021 0.88265 0.0
C210 C 0.02909 0.62032 0.90974 0.0
C211 C 0.02277 0.64467 0.83456 0.0
C212 C 0.01992 0.6382 0.73285 0.0
Zn213 Zn 0.03183 0.5384 0.75495 0.0
O214 O 0.06686 0.50039 0.6119 0.0
C215 C 0.97004 0.51649 0.67443 0.0
O216 O 0.05703 0.55049 0.60212 0.0
H217 H 0.03729 0.5716 0.94116 0.0
H218 H 0.02538 0.45345 0.57209 0.0
H219 H 0.01984 0.60231 0.63169 0.0
O220 O 0.98808 0.49175 0.68001 0.0
O221 O 0.98193 0.54086 0.70343 0.0
H222 H 0.05459 0.42493 0.8705 0.0
O223 O 1.00572 0.52468 0.90904 0.0
O224 O 1.00325 0.47503 0.89251 0.0
O225 O 0.08263 0.53539 0.80208 0.0
O226 O 0.08207 0.4849 0.82774 0.0
C227 C 0.99421 0.49751 0.94378 0.0
H228 H 0.02977 0.39997 0.52681 0.0
H229 H 0.05994 0.37054 0.83009 0.0
H230 H 0.0316 0.62462 0.98873 0.0
H231 H 0.01507 0.6566 0.67304 0.0
C232 C 0.19137 0.97433 0.56718 0.0
C233 C 0.21233 1.00135 0.53227 0.0
C234 C 0.16192 0.03352 0.59131 0.0
C235 C 0.14243 1.00634 0.63701 0.0
N236 N 0.14127 0.95086 0.68292 0.0
N237 N 0.21938 0.05673 0.52438 0.0
C238 C 0.15785 0.97672 0.62841 0.0
C239 C 0.19805 0.03101 0.54735 0.0
N240 N 0.20317 0.94631 0.5393 0.0
N241 N 0.14564 0.06165 0.58622 0.0
H242 H 0.24578 0.05595 0.49176 0.0
H243 H 0.21172 0.07846 0.54519 0.0
H244 H 0.11928 0.06458 0.61611 0.0
H245 H 0.15728 0.08168 0.54402 0.0
H246 H 0.18761 0.92626 0.55269 0.0
H247 H 0.22732 0.94373 0.49325 0.0
H248 H 0.15291 0.92911 0.68901 0.0
H249 H 0.11723 0.95159 0.73086 0.0
C250 C 0.5068 0.2266 0.54839 0.0
C251 C 0.54051 0.24022 0.51073 0.0
C252 C 0.56892 0.19078 0.56017 0.0
C253 C 0.53515 0.17659 0.59048 0.0
N254 N 0.47182 0.17941 0.5995 0.0
N255 N 0.60314 0.23397 0.46232 0.0
C256 C 0.50402 0.19405 0.58032 0.0
C257 C 0.57145 0.22195 0.51179 0.0
N258 N 0.47765 0.24496 0.55878 0.0
N259 N 0.59861 0.17462 0.57964 0.0
H260 H 0.60603 0.25644 0.4239 0.0
H261 H 0.6259 0.22085 0.45049 0.0
H262 H 0.59792 0.15157 0.61299 0.0
H263 H 0.62367 0.18472 0.57061 0.0
H264 H 0.45302 0.23699 0.5963 0.0
H265 H 0.47863 0.26887 0.53779 0.0
H266 H 0.44847 0.19004 0.58221 0.0
H267 H 0.46874 0.15582 0.62565 0.0
C268 C 0.34633 0.54696 0.35516 0.0
C269 C 0.32472 0.52125 0.34571 0.0
C270 C 0.3606 0.48752 0.45406 0.0
C271 C 0.37918 0.51394 0.47394 0.0
N272 N 0.38608 0.56957 0.45646 0.0
N273 N 0.30732 0.46785 0.40167 0.0
C274 C 0.37108 0.5439 0.42787 0.0
C275 C 0.33089 0.49162 0.39857 0.0
N276 N 0.34386 0.57417 0.29236 0.0
N277 N 0.37174 0.45849 0.48631 0.0
H278 H 0.2847 0.46993 0.36489 0.0
H279 H 0.30848 0.44688 0.44871 0.0
H280 H 0.3932 0.45458 0.52778 0.0
H281 H 0.36165 0.43839 0.46416 0.0
H282 H 0.36139 0.59271 0.28801 0.0
H283 H 0.32653 0.57708 0.23658 0.0
H284 H 0.37833 0.5921 0.43403 0.0
H285 H 0.40401 0.56838 0.51051 0.0
C286 C 0.08179 0.3064 0.57626 0.0
C287 C 0.05007 0.28909 0.5805 0.0
C288 C 0.01641 0.33012 0.66325 0.0
C289 C 0.04746 0.34878 0.64827 0.0
N290 N 0.10909 0.35647 0.58087 0.0
N291 N 0.98639 0.28606 0.61476 0.0
C292 C 0.08002 0.33739 0.60215 0.0
C293 C 0.01716 0.30126 0.62126 0.0
N294 N 0.11369 0.29274 0.55198 0.0
N295 N 0.98627 0.3399 0.71869 0.0
H296 H 0.9856 0.26512 0.58328 0.0
H297 H 0.96145 0.29545 0.63205 0.0
H298 H 0.98455 0.36119 0.74871 0.0
H299 H 0.9639 0.32594 0.74241 0.0
H300 H 0.1378 0.30297 0.55808 0.0
H301 H 0.11606 0.26988 0.53502 0.0
H302 H 0.13244 0.35086 0.53623 0.0
H303 H 0.10912 0.37893 0.60184 0.0
C304 C 0.8603 0.018 0.88413 0.0
C305 C 0.85236 0.00932 -0.00649 0.0
C306 C 0.9155 0.01408 0.00867 0.0
C307 C 0.92417 0.01689 0.89775 0.0
N308 N 0.90362 0.02163 0.72906 0.0
N309 N 0.87416 0.99259 0.15628 0.0
C310 C 0.89616 0.01873 0.83533 0.0
C311 C 0.88036 1.00582 0.05505 0.0
N312 N 0.83364 0.02699 0.82715 0.0
N313 N 0.94022 0.01958 0.07111 0.0
H314 H 0.84941 0.98442 0.19216 0.0
H315 H 0.8944 0.98639 0.20073 0.0
H316 H 0.96612 0.02632 0.04362 0.0
H317 H 0.93384 0.02075 0.15092 0.0
H318 H 0.83795 0.03664 0.74947 0.0
H319 H 0.80727 0.02792 0.86011 0.0
H320 H 0.88474 0.01862 0.68022 0.0
H321 H 0.92899 0.02582 0.68935 0.0
C322 C 0.55988 0.78685 0.96909 0.0
C323 C 0.52643 0.77293 0.00824 0.0
C324 C 0.49736 0.82247 0.96422 0.0
C325 C 0.53092 0.83688 0.93212 0.0
N326 N 0.59439 0.83431 0.91813 0.0
N327 N 0.46399 0.77867 0.06139 0.0
C328 C 0.56229 0.8195 0.93892 0.0
C329 C 0.49532 0.79107 0.01059 0.0
N330 N 0.5891 0.76869 0.95557 0.0
N331 N 0.46736 0.83865 0.94837 0.0
H332 H 0.46148 0.75601 0.09829 0.0
H333 H 0.44119 0.7916 0.07574 0.0
H334 H 0.46771 0.86187 0.91688 0.0
H335 H 0.44231 0.82849 0.9587 0.0
H336 H 0.61347 0.77691 0.91681 0.0
H337 H 0.58838 0.74472 0.97524 0.0
H338 H 0.61799 0.8237 0.93302 0.0
H339 H 0.59719 0.85798 0.8931 0.0
C340 C 0.73634 0.47914 0.12892 0.0
C341 C 0.74519 0.50755 0.16371 0.0
C342 C 0.69668 0.53344 0.08271 0.0
C343 C 0.69028 0.50594 0.03879 0.0
N344 N 0.70469 0.45309 0.01316 0.0
N345 N 0.73582 0.56225 0.16974 0.0
C346 C 0.71013 0.47881 0.0607 0.0
C347 C 0.72582 0.53482 0.13973 0.0
N348 N 0.75319 0.45254 0.16035 0.0
N349 N 0.67438 0.55801 0.07172 0.0
H350 H 0.75552 0.56381 0.21726 0.0
H351 H 0.7259 0.58368 0.14372 0.0
H352 H 0.65337 0.55817 0.02806 0.0
H353 H 0.67499 0.57736 0.11166 0.0
H354 H 0.74551 0.43053 0.1474 0.0
H355 H 0.7736 0.45205 0.20609 0.0
H356 H 0.72073 0.43367 0.01583 0.0
H357 H 0.68524 0.45182 0.96465 0.0
C358 C 0.04629 0.72373 0.90959 0.0
C359 C 0.01213 0.73491 0.94228 0.0
C360 C 0.985 0.68929 0.88806 0.0
C361 C 0.01918 0.67679 0.86405 0.0
N362 N 0.08246 0.68076 0.85579 0.0
N363 N 0.9489 0.72806 0.97126 0.0
C364 C 0.04988 0.69371 0.87564 0.0
C365 C 0.98142 0.71778 0.93277 0.0
N366 N 0.07521 0.74236 0.9076 0.0
N367 N 0.95596 0.67386 0.8681 0.0
H368 H 0.94524 0.74894 0.00335 0.0
H369 H 0.92566 0.71515 0.97813 0.0
H370 H 0.95731 0.65225 0.84047 0.0
H371 H 0.93073 0.68318 0.87239 0.0
H372 H 0.10056 0.73718 0.87448 0.0
H373 H 0.07352 0.7644 0.93226 0.0
H374 H 0.10555 0.6899 0.87494 0.0
H375 H 0.08634 0.65978 0.8244 0.0
C376 C 0.07185 0.11699 0.42848 0.0
C377 C 0.04579 0.14034 0.43993 0.0
C378 C 1.00222 0.10097 0.52419 0.0
C379 C 0.02821 0.07789 0.51324 0.0
N380 N 0.08453 0.06194 0.4336 0.0
N381 N 0.98408 0.15318 0.48846 0.0
C382 C 0.06196 0.08536 0.45738 0.0
C383 C 1.01053 0.13203 0.48381 0.0
N384 N 0.10631 0.12529 0.39431 0.0
N385 N 0.96927 0.09325 0.57494 0.0
H386 H 0.98733 0.17659 0.45988 0.0
H387 H 0.98733 0.17659 0.45988 0.0
H388 H 0.96197 0.07038 0.60284 0.0
H389 H 0.9495 0.10964 0.58714 0.0
H390 H 0.1271 0.1097 0.39246 0.0
H391 H 0.11468 0.14834 0.37598 0.0
H392 H 0.10866 0.06531 0.38586 0.0
H393 H 0.07741 0.03866 0.45465 0.0
C394 C 0.39404 0.9815 0.55716 0.0
C395 C 0.39024 1.00802 0.48507 0.0
C396 C 0.4502 0.02453 0.49664 0.0
C397 C 0.45294 1.00008 0.57716 0.0
N398 N 0.42242 0.96054 0.70449 0.0
N399 N 0.41064 0.0593 0.41172 0.0
C400 C 0.42346 0.97994 0.61371 0.0
C401 C 0.41692 0.03121 0.46448 0.0
N402 N 0.37061 0.9573 0.56904 0.0
N403 N 0.47965 0.04045 0.44726 0.0
H404 H 0.38604 0.06489 0.3884 0.0
H405 H 0.42854 0.0778 0.40136 0.0
H406 H 0.50507 0.03436 0.46259 0.0
H407 H 0.47916 0.05698 0.38272 0.0
H408 H 0.37469 0.93614 0.61221 0.0
H409 H 0.3486 0.95745 0.52964 0.0
H410 H 0.39989 0.9478 0.73827 0.0
H411 H 0.44233 0.95952 0.75203 0.0
C412 C 0.54087 0.42654 0.40226 0.0
C413 C 0.56057 0.39876 0.41215 0.0
C414 C 0.59195 0.42055 0.54064 0.0
C415 C 0.57319 0.44875 0.5242 0.0
N416 N 0.5436 0.48189 0.40271 0.0
N417 N 0.61259 0.37366 0.46789 0.0
C418 C 0.55276 0.45286 0.44126 0.0
C419 C 0.58864 0.39703 0.47423 0.0
N420 N 0.50938 0.42743 0.36321 0.0
N421 N 0.61162 0.41541 0.62087 0.0
H422 H 0.61177 0.35687 0.41717 0.0
H423 H 0.63523 0.37291 0.50471 0.0
H424 H 0.61627 0.43212 0.66858 0.0
H425 H 0.62191 0.39377 0.64321 0.0
H426 H 0.49344 0.44702 0.36164 0.0
H427 H 0.49709 0.40767 0.34583 0.0
H428 H 0.52992 0.48595 0.33835 0.0
H429 H 0.5533 0.50168 0.42842 0.0
C430 C 0.15475 0.54729 0.3723 0.0
C431 C 0.15544 0.52049 0.3192 0.0
C432 C 0.09489 0.50827 0.39787 0.0
C433 C 0.09717 0.5307 0.46723 0.0
N434 N 0.13214 0.56946 0.529 0.0
N435 N 0.12777 0.47219 0.29619 0.0
C436 C 0.12767 0.55001 0.45642 0.0
C437 C 0.12584 0.50008 0.33552 0.0
N438 N 0.17925 0.57047 0.34111 0.0
N439 N 0.06312 0.49464 0.39264 0.0
H440 H 0.15078 0.46438 0.255 0.0
H441 H 0.10772 0.45548 0.31424 0.0
H442 H 0.03973 0.50108 0.43579 0.0
H443 H 0.05955 0.47973 0.3376 0.0
H444 H 0.17771 0.59165 0.37168 0.0
H445 H 0.19883 0.56991 0.27735 0.0
H446 H 0.15592 0.58102 0.53001 0.0
H447 H 0.11342 0.57235 0.59283 0.0
C448 C 1.00085 0.90388 0.09546 0.0
C449 C 0.02809 0.88175 0.08245 0.0
C450 C 0.06975 0.92328 0.00285 0.0
C451 C 0.04254 0.94518 0.01861 0.0
N452 N 0.98649 0.95783 0.10806 0.0
N453 N 0.09032 0.87098 0.04438 0.0
C454 C 1.00949 0.93584 0.07484 0.0
C455 C 0.0632 0.89159 0.04213 0.0
N456 N 0.96661 0.89422 0.12541 0.0
N457 N 0.10146 0.93288 0.9473 0.0
H458 H 0.0865 0.8475 0.07095 0.0
H459 H 0.11683 0.87748 0.02632 0.0
H460 H 0.10739 0.95631 0.92422 0.0
H461 H 0.12105 0.91777 0.92116 0.0
H462 H 0.94525 0.90925 0.12747 0.0
H463 H 0.95926 0.87083 0.13868 0.0
H464 H 0.96257 0.95277 0.15561 0.0
H465 H 0.99388 0.98116 0.0976 0.0
C466 C 0.67218 0.99672 0.97811 0.0
C467 C 0.67698 0.02214 0.0339 0.0
C468 C 0.61908 0.0422 0.00125 0.0
C469 C 0.61502 0.01766 0.94063 0.0
N470 N 0.64406 0.97845 0.84179 0.0
N471 N 0.66002 0.07329 0.07375 0.0
C472 C 0.64345 0.99695 0.91992 0.0
C473 C 0.65213 0.04646 0.03614 0.0
N474 N 0.69372 0.97154 0.9846 0.0
N475 N 0.59095 0.06025 0.03096 0.0
H476 H 0.68429 0.07686 0.09931 0.0
H477 H 0.64414 0.09285 0.06955 0.0
H478 H 0.56566 0.05674 0.01238 0.0
H479 H 0.59181 0.07656 0.08324 0.0
H480 H 0.68838 0.95098 0.9553 0.0
H481 H 0.7153 0.97013 0.02601 0.0
H482 H 0.66596 0.96535 0.81781 0.0
H483 H 0.62474 0.97894 0.7926 0.0
C484 C 0.48171 0.61467 0.03617 0.0
C485 C 0.5103 0.61366 0.09618 0.0
C486 C 0.51953 0.55976 0.06636 0.0
C487 C 0.49813 0.56316 0.98551 0.0
N488 N 0.45819 0.59567 0.89148 0.0
N489 N 0.56293 0.58646 0.1405 0.0
C490 C 0.47855 0.59099 0.9702 0.0
C491 C 0.53102 0.58646 0.104 0.0
N492 N 0.45711 0.63749 0.04414 0.0
N493 N 0.52984 0.53106 0.10456 0.0
H494 H 0.57465 0.60657 0.15736 0.0
H495 H 0.57959 0.56735 0.14052 0.0
H496 H 0.52031 0.51092 0.08061 0.0
H497 H 0.54428 0.52753 0.1674 0.0
H498 H 0.43411 0.63762 0.00917 0.0
H499 H 0.45788 0.65442 0.09436 0.0
H500 H 0.4473 0.6171 0.86983 0.0
H501 H 0.45352 0.57885 0.84422 0.0
C502 C 0.9354 0.46159 0.187 0.0
C503 C 0.90884 0.48443 0.19557 0.0
C504 C 0.93653 0.51382 0.03554 0.0
C505 C 0.96559 0.49319 0.03276 0.0
N506 N 0.99566 0.45042 0.11771 0.0
N507 N 0.891 0.53709 0.14623 0.0
C508 C 0.9659 0.46777 0.11181 0.0
C509 C 0.91148 0.51202 0.12556 0.0
N510 N 0.93125 0.43402 0.24957 0.0
N511 N 0.93127 0.53396 0.95049 0.0
H512 H 0.87307 0.53759 0.21381 0.0
H513 H 0.8948 0.55863 0.10158 0.0
H514 H 0.94707 0.53473 0.87898 0.0
H515 H 0.90844 0.54711 0.94721 0.0
H516 H 0.94814 0.41536 0.24008 0.0
H517 H 0.90915 0.42895 0.30539 0.0
H518 H 0.9984 0.43344 0.1794 0.0
H519 H 0.01894 0.45508 0.06647 0.0
C520 C 0.03669 0.20102 0.0749 0.0
C521 C 0.06939 0.20592 0.10864 0.0
C522 C 0.09664 0.17074 0.98879 0.0
C523 C 0.06256 0.15793 0.98676 0.0
N524 N 0.99894 0.16091 0.0364 0.0
N525 N 0.13216 0.20126 0.08246 0.0
C526 C 0.03196 0.17364 0.02881 0.0
C527 C 0.10014 0.19347 0.05712 0.0
N528 N 1.00939 0.22018 0.1006 0.0
N529 N 0.12525 0.16093 0.927 0.0
H530 H 0.13439 0.21824 0.13194 0.0
H531 H 0.15566 0.19038 0.05788 0.0
H532 H 0.12302 0.14479 0.87471 0.0
H533 H 0.15034 0.17083 0.92066 0.0
H534 H 0.98495 0.21873 0.07409 0.0
H535 H 0.01301 0.23926 0.14027 0.0
H536 H 0.97657 0.17051 0.07492 0.0
H537 H 0.99409 0.13915 0.01491 0.0
C538 C 0.39615 0.97946 0.11141 0.0
C539 C 0.37498 1.00596 0.12139 0.0
C540 C 0.41384 0.03305 0.97303 0.0
C541 C 0.43986 0.00956 0.98423 0.0
N542 N 0.45663 0.96317 0.08811 0.0
N543 N 0.36418 0.05917 0.06133 0.0
C544 C 0.43108 0.98314 0.05882 0.0
C545 C 0.38372 0.03307 0.05112 0.0
N546 N 0.38402 0.95148 0.16162 0.0
N547 N 0.41674 0.05445 0.88678 0.0
H548 H 0.34129 0.05939 0.11488 0.0
H549 H 0.37179 0.08064 0.02019 0.0
H550 H 0.4364 0.0538 0.82344 0.0
H551 H 0.39702 0.07045 0.8726 0.0
H552 H 0.39772 0.93093 0.15259 0.0
H553 H 0.35865 0.94888 0.20333 0.0
H554 H 0.45155 0.94477 0.14718 0.0
H555 H 0.48347 0.96768 0.06537 0.0
C556 C 0.53948 0.37317 0.00241 0.0
C557 C 0.51733 0.37167 0.09888 0.0
C558 C 0.48496 0.41728 0.03559 0.0
C559 C 0.50917 0.42044 0.9423 0.0
N560 N 0.55036 0.39593 0.82164 0.0
N561 N 0.4619 0.38439 0.19384 0.0
C562 C 0.53332 0.39633 0.92054 0.0
C563 C 0.48729 0.39089 0.10987 0.0
N564 N 0.56757 0.3537 -0.00826 0.0
N565 N 0.46182 0.44049 0.05729 0.0
H566 H 0.46361 0.36522 0.2492 0.0
H567 H 0.43799 0.39605 0.20313 0.0
H568 H 0.45913 0.46008 0.00483 0.0
H569 H 0.44669 0.44119 0.12968 0.0
H570 H 0.58734 0.35597 0.9279 0.0
H571 H 0.57157 0.33583 0.0497 0.0
H572 H 0.56638 0.37782 0.79848 0.0
H573 H 0.54542 0.41238 0.76039 0.0
C574 C 0.1855 0.48352 0.92083 0.0
C575 C 0.19765 0.51102 0.95295 0.0
C576 C 0.14818 0.53932 0.89286 0.0
C577 C 0.13436 0.51158 0.86259 0.0
N578 N 0.1513 0.46188 0.80282 0.0
N579 N 0.20102 0.56621 0.92109 0.0
C580 C 0.1566 0.48498 0.86187 0.0
C581 C 0.18329 0.53938 0.91656 0.0
N582 N 0.20035 0.45596 0.95127 0.0
N583 N 0.12736 0.56419 0.9126 0.0
H584 H 0.22605 0.56589 0.9453 0.0
H585 H 0.19237 0.58783 0.89134 0.0
H586 H 0.09999 0.56361 0.91992 0.0
H587 H 0.13676 0.58381 0.93969 0.0
H588 H 0.18992 0.43464 0.94021 0.0
H589 H 0.22231 0.45486 -0.00855 0.0
H590 H 0.16818 0.44305 0.79687 0.0
H591 H 0.13348 0.46374 0.7485 0.0
C592 C 0.97707 0.82808 0.46786 0.0
C593 C 1.00884 0.81739 0.41605 0.0
C594 C 0.04339 0.85252 0.49434 0.0
C595 C 0.01153 0.86617 0.53783 0.0
N596 N 0.94916 0.85923 0.59858 0.0
N597 N 0.07002 0.80746 0.4219 0.0
C598 C 0.9786 0.85119 0.53615 0.0
C599 C 0.04107 0.82474 0.44843 0.0
N600 N 0.94577 0.81816 0.44322 0.0
N601 N 0.07521 0.86751 0.48558 0.0
H602 H 0.06809 0.78801 0.38259 0.0
H603 H 0.0943 0.81073 0.4475 0.0
H604 H 0.07808 0.88965 0.50678 0.0
H605 H 0.09836 0.85941 0.44622 0.0
H606 H 0.92142 0.82764 0.46797 0.0
H607 H 0.94496 0.80086 0.39411 0.0
H608 H 0.92498 0.84768 0.60537 0.0
H609 H 0.94993 0.8756 0.65091 0.0
C610 C 0.66747 0.97596 0.42085 0.0
C611 C 0.68925 1.00284 0.40235 0.0
C612 C 0.65237 0.0243 0.54537 0.0
C613 C 0.62594 1.00127 0.54444 0.0
N614 N 0.60787 0.95613 0.47079 0.0
N615 N 0.70259 0.05321 0.44719 0.0
C616 C 0.6336 0.9769 0.48094 0.0
C617 C 0.68208 0.02701 0.46593 0.0
N618 N 0.67861 0.95023 0.37543 0.0
N619 N 0.64989 0.04281 0.6239 0.0
H620 H 0.72533 0.05526 0.39259 0.0
H621 H 0.69601 0.07324 0.48217 0.0
H622 H 0.62987 0.04032 0.68708 0.0
H623 H 0.66992 0.0581 0.63266 0.0
H624 H 0.66525 0.929 0.39167 0.0
H625 H 0.70324 0.94959 0.32981 0.0
H626 H 0.61133 0.93979 0.41786 0.0
H627 H 0.58187 0.95724 0.50641 0.0
C628 C 0.58279 0.62091 0.40046 0.0
C629 C 0.55263 0.64 0.41176 0.0
C630 C 0.53676 0.61509 0.58986 0.0
C631 C 0.5611 0.59114 0.56782 0.0
N632 N 0.60865 0.57144 0.45267 0.0
N633 N 0.50221 0.65757 0.51919 0.0
C634 C 0.58531 0.5945 0.47452 0.0
C635 C 0.53046 0.63829 0.50825 0.0
N636 N 0.60812 0.62759 0.31645 0.0
N637 N 0.51966 0.61531 0.68879 0.0
H638 H 0.49806 0.67547 0.46147 0.0
H639 H 0.48244 0.65513 0.583 0.0
H640 H 0.52469 0.59883 0.74987 0.0
H641 H 0.50349 0.63329 0.71221 0.0
H642 H 0.63208 0.61602 0.3068 0.0
H643 H 0.6063 0.64681 0.26137 0.0
H644 H 0.62383 0.57086 0.38029 0.0
H645 H 0.61148 0.55186 0.50509 0.0
C646 C 0.88191 0.48469 0.63063 0.0
C647 C 0.87365 0.50629 0.54811 0.0
C648 C 0.9241 0.53886 0.56406 0.0
C649 C 0.93432 0.51593 0.64122 0.0
N650 N 0.91564 0.47383 0.77532 0.0
N651 N 0.87732 0.55859 0.46574 0.0
C652 C 0.91071 0.49104 0.68387 0.0
C653 C 0.89115 0.53536 0.52729 0.0
N654 N 0.86363 0.4573 0.65293 0.0
N655 N 0.94687 0.56225 0.51878 0.0
H656 H 0.85354 0.55567 0.43655 0.0
H657 H 0.88736 0.58117 0.45289 0.0
H658 H 0.97209 0.56498 0.53856 0.0
H659 H 0.94196 0.57752 0.45469 0.0
H660 H 0.87104 0.43877 0.70338 0.0
H661 H 0.84159 0.45303 0.61686 0.0
H662 H 0.89776 0.45693 0.81391 0.0
H663 H 0.9357 0.47872 0.81815 0.0
loop_
_geom_bond_atom_site_label_1
_geom_bond_atom_site_label_2
_geom_bond_distance
_geom_bond_site_symmetry_2
_ccdc_geom_bond_type
H0 C5 0.930 . S
H1 C8 0.930 . S
H2 C10 0.930 . S
H3 C4 1.016 . S
C4 H3 1.016 . S
C4 N11 1.286 . S
C5 H0 0.930 . S
C5 C6 1.397 . S
C5 C7 1.361 . S
C6 C5 1.397 . S
C6 C10 1.390 . S
C7 C5 1.361 . S
C7 C8 1.393 . S
C7 N11 1.413 . S
C8 H1 0.930 . S
C8 C7 1.393 . S
C8 C9 1.399 . S
C9 C8 1.399 . S
C9 C10 1.381 . S
C10 H2 0.930 . S
C10 C6 1.390 . S
C10 C9 1.381 . S
N11 C4 1.286 . S
N11 C7 1.413 . S
H12 C17 0.930 . S
H13 C20 0.930 . S
H14 C22 0.930 . S
H15 C16 1.016 . S
C16 H15 1.016 . S
C16 N23 1.286 1_556 S
C17 H12 0.930 . S
C17 C18 1.397 . S
C17 C19 1.361 . S
C18 C17 1.397 . S
C18 C22 1.390 . S
C19 C17 1.361 . S
C19 C20 1.393 1_554 S
C19 N23 1.413 . S
C20 H13 0.930 . S
C20 C19 1.393 1_556 S
C20 C21 1.399 . S
C21 C20 1.399 . S
C21 C22 1.381 1_556 S
C22 H14 0.930 . S
C22 C18 1.390 . S
C22 C21 1.381 1_554 S
N23 C16 1.286 1_554 S
N23 C19 1.413 . S
H24 C29 0.930 . S
H25 C32 0.930 1_556 S
H26 C34 0.930 . S
H27 C28 1.016 1_556 S
C28 H27 1.016 1_554 S
C28 N35 1.286 1_565 S
C29 H24 0.930 . S
C29 C30 1.397 . S
C29 C31 1.361 . S
C30 C29 1.397 . S
C30 C34 1.390 1_545 S
C31 C29 1.361 . S
C31 C32 1.393 . S
C31 N35 1.413 . S
C32 H25 0.930 1_554 S
C32 C31 1.393 . S
C32 C33 1.402 . S
C33 C32 1.402 . S
C33 C34 1.381 1_545 S
C34 H26 0.930 . S
C34 C30 1.390 1_565 S
C34 C33 1.381 1_565 S
N35 C28 1.286 1_545 S
N35 C31 1.413 . S
H36 C41 0.930 . S
H37 C44 0.930 1_556 S
H38 C46 0.930 . S
H39 C40 1.016 1_556 S
C40 H39 1.016 1_554 S
C40 N47 1.286 . S
C41 H36 0.930 . S
C41 C42 1.397 . S
C41 C43 1.361 . S
C42 C41 1.397 . S
C42 C46 1.390 . S
C43 C41 1.361 . S
C43 C44 1.393 . S
C43 N47 1.413 . S
C44 H37 0.930 1_554 S
C44 C43 1.393 . S
C44 C45 1.399 . S
C45 C44 1.399 . S
C45 C46 1.381 . S
C46 H38 0.930 . S
C46 C42 1.390 . S
C46 C45 1.381 . S
N47 C40 1.286 . S
N47 C43 1.413 . S
H48 C53 0.930 . S
H49 C56 0.930 . S
H50 C58 0.930 . S
H51 C52 1.016 . S
C52 H51 1.016 . S
C52 N59 1.286 . S
C53 H48 0.930 . S
C53 C54 1.397 . S
C53 C55 1.361 . S
C54 C53 1.397 . S
C54 C58 1.390 . S
C55 C53 1.361 . S
C55 C56 1.393 . S
C55 N59 1.413 . S
C56 H49 0.930 . S
C56 C55 1.393 . S
C56 C57 1.399 . S
C57 C56 1.399 . S
C57 C58 1.381 . S
C58 H50 0.930 . S
C58 C54 1.390 . S
C58 C57 1.381 . S
N59 C52 1.286 . S
N59 C55 1.413 . S
H60 C65 0.930 . S
H61 C68 0.930 . S
H62 C70 0.930 . S
H63 C64 1.016 . S
C64 H63 1.016 . S
C64 N71 1.286 . S
C65 H60 0.930 . S
C65 C66 1.397 . S
C65 C67 1.361 . S
C66 C65 1.397 . S
C66 C70 1.390 . S
C67 C65 1.361 . S
C67 C68 1.393 . S
C67 N71 1.413 . S
C68 H61 0.930 . S
C68 C67 1.393 . S
C68 C69 1.399 . S
C69 C68 1.399 . S
C69 C70 1.381 . S
C70 H62 0.930 . S
C70 C66 1.390 . S
C70 C69 1.381 . S
N71 C64 1.286 . S
N71 C67 1.413 . S
H72 C77 0.930 . S
H73 C80 0.930 . S
H74 C82 0.930 . S
H75 C76 1.023 . S
C76 H75 1.023 . S
C76 N83 1.275 1_565 S
C77 H72 0.930 . S
C77 C78 1.397 . S
C77 C79 1.361 . S
C78 C77 1.397 . S
C78 C82 1.390 1_545 S
C79 C77 1.361 . S
C79 C80 1.393 . S
C79 N83 1.413 . S
C80 H73 0.930 . S
C80 C79 1.393 . S
C80 C81 1.405 . S
C81 C80 1.405 . S
C81 C82 1.375 1_545 S
C82 H74 0.930 . S
C82 C78 1.390 1_565 S
C82 C81 1.375 1_565 S
N83 C76 1.275 1_545 S
N83 C79 1.413 . S
H84 C89 0.930 . S
H85 C92 0.930 . S
H86 C94 0.930 . S
H87 C88 1.016 . S
C88 H87 1.016 . S
C88 N95 1.286 . S
C89 H84 0.930 . S
C89 C90 1.397 . S
C89 C91 1.361 . S
C90 C89 1.397 . S
C90 C94 1.390 . S
C91 C89 1.361 . S
C91 C92 1.393 . S
C91 N95 1.413 . S
C92 H85 0.930 . S
C92 C91 1.393 . S
C92 C93 1.399 . S
C93 C92 1.399 . S
C93 C94 1.381 . S
C94 H86 0.930 . S
C94 C90 1.390 . S
C94 C93 1.381 . S
N95 C88 1.286 . S
N95 C91 1.413 . S
C96 O112 1.251 . S
C96 O114 1.254 . S
N97 C98 1.333 . S
N97 C102 1.307 1_455 S
N97 Zn103 2.020 . S
C98 N97 1.333 . S
C98 C99 1.379 . S
C98 H116 0.952 . S
C99 C98 1.379 . S
C99 C100 1.390 1_455 S
C99 H126 0.949 . S
C100 C99 1.390 1_655 S
C100 C101 1.357 . S
C101 C100 1.357 . S
C101 C102 1.370 . S
C101 H127 0.950 . S
C102 N97 1.307 1_655 S
C102 C101 1.370 . S
C102 H120 0.948 1_565 S
Zn103 N97 2.020 . S
Zn103 O112 2.039 . S
Zn103 O118 2.034 . S
Zn103 O122 2.025 1_565 S
Zn103 O124 2.024 1_455 S
C104 O123 1.246 . S
C104 O124 1.249 1_545 S
N105 C106 1.307 . S
N105 C107 1.333 . S
N105 Zn111 2.020 1_554 S
C106 N105 1.307 . S
C106 C110 1.370 . S
C106 H117 0.948 1_545 S
C107 N105 1.333 . S
C107 C108 1.379 . S
C107 H115 0.952 1_554 S
C108 C107 1.379 . S
C108 C109 1.390 . S
C108 H128 0.949 . S
C109 C108 1.390 . S
C109 C110 1.357 . S
C110 C106 1.370 . S
C110 C109 1.357 . S
C110 H129 0.950 . S
Zn111 N105 2.020 1_556 S
Zn111 O114 2.025 1_545 S
Zn111 O119 2.024 . S
Zn111 O121 2.039 . S
Zn111 O123 2.034 1_455 S
O112 C96 1.251 . S
O112 Zn103 2.039 . S
C113 O118 1.246 . S
C113 O119 1.249 1_565 S
O114 C96 1.254 . S
O114 Zn111 2.025 1_565 S
H115 C107 0.952 1_556 S
H116 C98 0.952 . S
H117 C106 0.948 1_565 S
O118 Zn103 2.034 . S
O118 C113 1.246 . S
O119 Zn111 2.024 . S
O119 C113 1.249 1_545 S
H120 C102 0.948 1_545 S
O121 Zn111 2.039 . S
O121 C125 1.251 . S
O122 Zn103 2.025 1_545 S
O122 C125 1.254 . S
O123 C104 1.246 . S
O123 Zn111 2.034 1_655 S
O124 Zn103 2.024 1_655 S
O124 C104 1.249 1_565 S
C125 O121 1.251 . S
C125 O122 1.254 . S
H126 C99 0.949 . S
H127 C101 0.950 . S
H128 C108 0.949 . S
H129 C110 0.950 . S
C130 O146 1.251 1_565 S
C130 O148 1.254 . S
N131 C132 1.333 . S
N131 C136 1.307 . S
N131 Zn137 2.020 . S
C132 N131 1.333 . S
C132 C133 1.379 . S
C132 H150 0.952 . S
C133 C132 1.379 . S
C133 C134 1.390 . S
C133 H160 0.949 . S
C134 C133 1.390 . S
C134 C135 1.357 . S
C135 C134 1.357 . S
C135 C136 1.370 . S
C135 H161 0.950 . S
C136 N131 1.307 . S
C136 C135 1.370 . S
C136 H154 0.948 . S
Zn137 N131 2.020 . S
Zn137 O146 2.039 . S
Zn137 O152 2.034 . S
Zn137 O156 2.025 . S
Zn137 O158 2.024 . S
C138 O157 1.246 1_545 S
C138 O158 1.249 . S
N139 C140 1.307 . S
N139 C141 1.333 . S
N139 Zn145 2.020 . S
C140 N139 1.307 . S
C140 C144 1.370 . S
C140 H151 0.948 . S
C141 N139 1.333 . S
C141 C142 1.379 . S
C141 H149 0.952 . S
C142 C141 1.379 . S
C142 C143 1.390 . S
C142 H162 0.949 1_556 S
C143 C142 1.390 . S
C143 C144 1.357 . S
C144 C140 1.370 . S
C144 C143 1.357 . S
C144 H163 0.950 . S
Zn145 N139 2.020 . S
Zn145 O148 2.025 . S
Zn145 O153 2.024 . S
Zn145 O155 2.039 . S
Zn145 O157 2.034 . S
O146 C130 1.251 1_545 S
O146 Zn137 2.039 . S
C147 O152 1.246 1_565 S
C147 O153 1.249 . S
O148 C130 1.254 . S
O148 Zn145 2.025 . S
H149 C141 0.952 . S
H150 C132 0.952 . S
H151 C140 0.948 . S
O152 Zn137 2.034 . S
O152 C147 1.246 1_545 S
O153 Zn145 2.024 . S
O153 C147 1.249 . S
H154 C136 0.948 . S
O155 Zn145 2.039 . S
O155 C159 1.251 1_565 S
O156 Zn137 2.025 . S
O156 C159 1.254 . S
O157 C138 1.246 1_565 S
O157 Zn145 2.034 . S
O158 Zn137 2.024 . S
O158 C138 1.249 . S
C159 O155 1.251 1_545 S
C159 O156 1.254 . S
H160 C133 0.949 . S
H161 C135 0.950 . S
H162 C142 0.949 1_554 S
H163 C144 0.950 . S
C164 O180 1.251 . S
C164 O182 1.254 . S
N165 C166 1.333 . S
N165 C170 1.307 . S
N165 Zn171 2.020 . S
C166 N165 1.333 . S
C166 C167 1.379 . S
C166 H184 0.952 . S
C167 C166 1.379 . S
C167 C168 1.390 . S
C167 H194 0.949 . S
C168 C167 1.390 . S
C168 C169 1.357 . S
C169 C168 1.357 . S
C169 C170 1.370 . S
C169 H195 0.950 . S
C170 N165 1.307 . S
C170 C169 1.370 . S
C170 H188 0.948 . S
Zn171 N165 2.020 . S
Zn171 O180 2.039 . S
Zn171 O186 2.034 . S
Zn171 O190 2.025 . S
Zn171 O192 2.024 . S
C172 O191 1.246 . S
C172 O192 1.249 . S
N173 C174 1.307 . S
N173 C175 1.333 . S
N173 Zn179 2.020 . S
C174 N173 1.307 . S
C174 C178 1.370 . S
C174 H185 0.948 . S
C175 N173 1.333 . S
C175 C176 1.379 . S
C175 H183 0.952 . S
C176 C175 1.379 . S
C176 C177 1.390 . S
C176 H196 0.949 . S
C177 C176 1.390 . S
C177 C178 1.357 . S
C178 C174 1.370 . S
C178 C177 1.357 . S
C178 H197 0.950 . S
Zn179 N173 2.020 . S
Zn179 O182 2.025 . S
Zn179 O187 2.024 . S
Zn179 O189 2.039 . S
Zn179 O191 2.034 . S
O180 C164 1.251 . S
O180 Zn171 2.039 . S
C181 O186 1.246 . S
C181 O187 1.249 . S
O182 C164 1.254 . S
O182 Zn179 2.025 . S
H183 C175 0.952 . S
H184 C166 0.952 . S
H185 C174 0.948 . S
O186 Zn171 2.034 . S
O186 C181 1.246 . S
O187 Zn179 2.024 . S
O187 C181 1.249 . S
H188 C170 0.948 . S
O189 Zn179 2.039 . S
O189 C193 1.251 . S
O190 Zn171 2.025 . S
O190 C193 1.254 . S
O191 C172 1.246 . S
O191 Zn179 2.034 . S
O192 Zn171 2.024 . S
O192 C172 1.249 . S
C193 O189 1.251 . S
C193 O190 1.254 . S
H194 C167 0.949 . S
H195 C169 0.950 . S
H196 C176 0.949 . S
H197 C178 0.950 . S
C198 O214 1.251 . S
C198 O216 1.254 . S
N199 C200 1.333 . S
N199 C204 1.307 . S
N199 Zn205 2.020 . S
C200 N199 1.333 . S
C200 C201 1.379 . S
C200 H218 0.952 . S
C201 C200 1.379 . S
C201 C202 1.390 . S
C201 H228 0.949 . S
C202 C201 1.390 . S
C202 C203 1.357 . S
C203 C202 1.357 . S
C203 C204 1.370 . S
C203 H229 0.950 . S
C204 N199 1.307 . S
C204 C203 1.370 . S
C204 H222 0.948 . S
Zn205 N199 2.020 . S
Zn205 O214 2.039 . S
Zn205 O220 2.034 1_455 S
Zn205 O224 2.025 1_455 S
Zn205 O226 2.024 . S
C206 O225 1.246 . S
C206 O226 1.249 . S
N207 C208 1.307 . S
N207 C209 1.333 . S
N207 Zn213 2.020 . S
C208 N207 1.307 . S
C208 C212 1.370 . S
C208 H219 0.948 . S
C209 N207 1.333 . S
C209 C210 1.377 1_455 S
C209 H217 0.952 1_455 S
C210 C209 1.377 1_655 S
C210 C211 1.383 1_655 S
C210 H230 0.959 . S
C211 C210 1.383 1_455 S
C211 C212 1.357 . S
C212 C208 1.370 . S
C212 C211 1.357 . S
C212 H231 0.950 . S
Zn213 N207 2.020 . S
Zn213 O216 2.025 . S
Zn213 O221 2.024 1_455 S
Zn213 O223 2.039 1_455 S
Zn213 O225 2.034 . S
O214 C198 1.251 . S
O214 Zn205 2.039 . S
C215 O220 1.246 . S
C215 O221 1.249 . S
O216 C198 1.254 . S
O216 Zn213 2.025 . S
H217 C209 0.952 1_655 S
H218 C200 0.952 . S
H219 C208 0.948 . S
O220 Zn205 2.034 1_655 S
O220 C215 1.246 . S
O221 Zn213 2.024 1_655 S
O221 C215 1.249 . S
H222 C204 0.948 . S
O223 Zn213 2.039 1_655 S
O223 C227 1.251 . S
O224 Zn205 2.025 1_655 S
O224 C227 1.254 . S
O225 C206 1.246 . S
O225 Zn213 2.034 . S
O226 Zn205 2.024 . S
O226 C206 1.249 . S
C227 O223 1.251 . S
C227 O224 1.254 . S
H228 C201 0.949 . S
H229 C203 0.950 . S
H230 C210 0.959 . S
H231 C212 0.950 . S
C232 C233 1.389 . S
C232 C238 1.379 . S
C232 N240 1.356 . S
C233 C232 1.389 . S
C233 C239 1.337 1_565 S
C234 C235 1.363 1_545 S
C234 C239 1.379 . S
C234 N241 1.356 . S
C235 C234 1.363 1_565 S
C235 C238 1.363 . S
N236 C238 1.356 . S
N236 H248 0.984 . S
N236 H249 0.985 . S
N237 C239 1.356 . S
N237 H242 0.984 . S
N237 H243 0.985 . S
C238 C232 1.379 . S
C238 C235 1.363 . S
C238 N236 1.356 . S
C239 C233 1.337 1_545 S
C239 C234 1.379 . S
C239 N237 1.356 . S
N240 C232 1.356 . S
N240 H246 0.984 . S
N240 H247 0.984 . S
N241 C234 1.356 . S
N241 H244 0.984 . S
N241 H245 0.985 . S
H242 N237 0.984 . S
H243 N237 0.985 . S
H244 N241 0.984 . S
H245 N241 0.985 . S
H246 N240 0.984 . S
H247 N240 0.984 . S
H248 N236 0.984 . S
H249 N236 0.985 . S
C250 C251 1.363 . S
C250 C256 1.379 . S
C250 N258 1.356 . S
C251 C250 1.363 . S
C251 C257 1.363 . S
C252 C253 1.363 . S
C252 C257 1.379 . S
C252 N259 1.356 . S
C253 C252 1.363 . S
C253 C256 1.363 . S
N254 C256 1.356 . S
N254 H266 0.984 . S
N254 H267 0.985 . S
N255 C257 1.356 . S
N255 H260 0.984 . S
N255 H261 0.985 . S
C256 C250 1.379 . S
C256 C253 1.363 . S
C256 N254 1.356 . S
C257 C251 1.363 . S
C257 C252 1.379 . S
C257 N255 1.356 . S
N258 C250 1.356 . S
N258 H264 0.984 . S
N258 H265 0.984 . S
N259 C252 1.356 . S
N259 H262 0.984 . S
N259 H263 0.985 . S
H260 N255 0.984 . S
H261 N255 0.985 . S
H262 N259 0.984 . S
H263 N259 0.985 . S
H264 N258 0.984 . S
H265 N258 0.984 . S
H266 N254 0.984 . S
H267 N254 0.985 . S
C268 C269 1.363 . S
C268 C274 1.379 . S
C268 N276 1.356 . S
C269 C268 1.363 . S
C269 C275 1.363 . S
C270 C271 1.363 . S
C270 C275 1.379 . S
C270 N277 1.356 . S
C271 C270 1.363 . S
C271 C274 1.363 . S
N272 C274 1.356 . S
N272 H284 0.984 . S
N272 H285 0.985 . S
N273 C275 1.356 . S
N273 H278 0.984 . S
N273 H279 0.985 . S
C274 C268 1.379 . S
C274 C271 1.363 . S
C274 N272 1.356 . S
C275 C269 1.363 . S
C275 C270 1.379 . S
C275 N273 1.356 . S
N276 C268 1.356 . S
N276 H282 0.984 . S
N276 H283 0.984 . S
N277 C270 1.356 . S
N277 H280 0.984 . S
N277 H281 0.985 . S
H278 N273 0.984 . S
H279 N273 0.985 . S
H280 N277 0.984 . S
H281 N277 0.985 . S
H282 N276 0.984 . S
H283 N276 0.984 . S
H284 N272 0.984 . S
H285 N272 0.985 . S
C286 C287 1.363 . S
C286 C292 1.379 . S
C286 N294 1.356 . S
C287 C286 1.363 . S
C287 C293 1.363 . S
C288 C289 1.363 . S
C288 C293 1.379 . S
C288 N295 1.356 1_455 S
C289 C288 1.363 . S
C289 C292 1.363 . S
N290 C292 1.356 . S
N290 H302 0.984 . S
N290 H303 0.985 . S
N291 C293 1.356 . S
N291 H296 0.984 . S
N291 H297 0.985 1_455 S
C292 C286 1.379 . S
C292 C289 1.363 . S
C292 N290 1.356 . S
C293 C287 1.363 . S
C293 C288 1.379 . S
C293 N291 1.356 . S
N294 C286 1.356 . S
N294 H300 0.984 . S
N294 H301 0.984 . S
N295 C288 1.356 1_655 S
N295 H298 0.984 . S
N295 H299 0.985 . S
H296 N291 0.984 . S
H297 N291 0.985 1_655 S
H298 N295 0.984 . S
H299 N295 0.985 . S
H300 N294 0.984 . S
H301 N294 0.984 . S
H302 N290 0.984 . S
H303 N290 0.985 . S
C304 C305 1.363 . S
C304 C310 1.379 . S
C304 N312 1.356 . S
C305 C304 1.363 . S
C305 C311 1.363 1_546 S
C306 C307 1.363 1_565 S
C306 C311 1.379 1_556 S
C306 N313 1.356 . S
C307 C306 1.363 1_545 S
C307 C310 1.363 . S
N308 C310 1.356 . S
N308 H320 0.984 . S
N308 H321 0.985 . S
N309 C311 1.356 . S
N309 H314 0.984 . S
N309 H315 0.985 . S
C310 C304 1.379 . S
C310 C307 1.363 . S
C310 N308 1.356 . S
C311 C305 1.363 1_564 S
C311 C306 1.379 1_554 S
C311 N309 1.356 . S
N312 C304 1.356 . S
N312 H318 0.984 . S
N312 H319 0.984 . S
N313 C306 1.356 . S
N313 H316 0.984 . S
N313 H317 0.985 1_556 S
H314 N309 0.984 . S
H315 N309 0.985 . S
H316 N313 0.984 . S
H317 N313 0.985 1_554 S
H318 N312 0.984 . S
H319 N312 0.984 . S
H320 N308 0.984 . S
H321 N308 0.985 . S
C322 C323 1.363 1_556 S
C322 C328 1.379 . S
C322 N330 1.356 . S
C323 C322 1.363 1_554 S
C323 C329 1.363 . S
C324 C325 1.363 1_554 S
C324 C329 1.379 . S
C324 N331 1.356 . S
C325 C324 1.363 1_556 S
C325 C328 1.363 . S
N326 C328 1.356 . S
N326 H338 0.984 . S
N326 H339 0.985 . S
N327 C329 1.356 . S
N327 H332 0.984 . S
N327 H333 0.985 . S
C328 C322 1.379 . S
C328 C325 1.363 . S
C328 N326 1.356 . S
C329 C323 1.363 . S
C329 C324 1.379 . S
C329 N327 1.356 . S
N330 C322 1.356 . S
N330 H336 0.984 . S
N330 H337 0.984 . S
N331 C324 1.356 . S
N331 H334 0.984 . S
N331 H335 0.985 . S
H332 N327 0.984 . S
H333 N327 0.985 . S
H334 N331 0.984 . S
H335 N331 0.985 . S
H336 N330 0.984 . S
H337 N330 0.984 . S
H338 N326 0.984 . S
H339 N326 0.985 . S
C340 C341 1.363 . S
C340 C346 1.379 1_554 S
C340 N348 1.356 . S
C341 C340 1.363 . S
C341 C347 1.363 . S
C342 C343 1.363 . S
C342 C347 1.379 1_556 S
C342 N349 1.356 . S
C343 C342 1.363 . S
C343 C346 1.363 . S
N344 C346 1.356 . S
N344 H356 0.984 . S
N344 H357 0.985 . S
N345 C347 1.356 . S
N345 H350 0.984 . S
N345 H351 0.985 . S
C346 C340 1.379 1_556 S
C346 C343 1.363 . S
C346 N344 1.356 . S
C347 C341 1.363 . S
C347 C342 1.379 1_554 S
C347 N345 1.356 . S
N348 C340 1.356 . S
N348 H354 0.984 . S
N348 H355 0.984 . S
N349 C342 1.356 . S
N349 H352 0.984 . S
N349 H353 0.985 . S
H350 N345 0.984 . S
H351 N345 0.985 . S
H352 N349 0.984 . S
H353 N349 0.985 . S
H354 N348 0.984 . S
H355 N348 0.984 . S
H356 N344 0.984 . S
H357 N344 0.985 . S
C358 C359 1.363 1_455 S
C358 C364 1.379 . S
C358 N366 1.356 . S
C359 C358 1.363 1_655 S
C359 C365 1.363 . S
C360 C361 1.363 1_655 S
C360 C365 1.379 . S
C360 N367 1.356 . S
C361 C360 1.363 1_455 S
C361 C364 1.363 . S
N362 C364 1.356 . S
N362 H374 0.984 . S
N362 H375 0.985 . S
N363 C365 1.356 . S
N363 H368 0.984 . S
N363 H369 0.985 . S
C364 C358 1.379 . S
C364 C361 1.363 . S
C364 N362 1.356 . S
C365 C359 1.363 . S
C365 C360 1.379 . S
C365 N363 1.356 . S
N366 C358 1.356 . S
N366 H372 0.984 . S
N366 H373 0.984 . S
N367 C360 1.356 . S
N367 H370 0.984 . S
N367 H371 0.985 . S
H368 N363 0.984 . S
H369 N363 0.985 . S
H370 N367 0.984 . S
H371 N367 0.985 . S
H372 N366 0.984 . S
H373 N366 0.984 . S
H374 N362 0.984 . S
H375 N362 0.985 . S
C376 C377 1.363 . S
C376 C382 1.379 . S
C376 N384 1.356 . S
C377 C376 1.363 . S
C377 C383 1.363 . S
C378 C379 1.363 . S
C378 C383 1.379 . S
C378 N385 1.356 . S
C379 C378 1.363 . S
C379 C382 1.363 . S
N380 C382 1.356 . S
N380 H392 0.984 . S
N380 H393 0.985 . S
N381 C383 1.356 . S
N381 H386 0.984 . S
N381 H387 0.985 . S
C382 C376 1.379 . S
C382 C379 1.363 . S
C382 N380 1.356 . S
C383 C377 1.363 . S
C383 C378 1.379 . S
C383 N381 1.356 . S
N384 C376 1.356 . S
N384 H390 0.984 . S
N384 H391 0.984 . S
N385 C378 1.356 . S
N385 H388 0.984 1_455 S
N385 H389 0.985 1_455 S
H386 N381 0.984 . S
H387 N381 0.985 . S
H388 N385 0.984 1_655 S
H389 N385 0.985 1_655 S
H390 N384 0.984 . S
H391 N384 0.984 . S
H392 N380 0.984 . S
H393 N380 0.985 . S
C394 C395 1.377 . S
C394 C400 1.379 . S
C394 N402 1.356 . S
C395 C394 1.377 . S
C395 C401 1.349 1_565 S
C396 C397 1.363 1_545 S
C396 C401 1.379 . S
C396 N403 1.356 . S
C397 C396 1.363 1_565 S
C397 C400 1.363 . S
N398 C400 1.356 . S
N398 H410 0.984 . S
N398 H411 0.985 . S
N399 C401 1.356 . S
N399 H404 0.984 . S
N399 H405 0.985 . S
C400 C394 1.379 . S
C400 C397 1.363 . S
C400 N398 1.356 . S
C401 C395 1.349 1_545 S
C401 C396 1.379 . S
C401 N399 1.356 . S
N402 C394 1.356 . S
N402 H408 0.984 . S
N402 H409 0.984 . S
N403 C396 1.356 . S
N403 H406 0.984 . S
N403 H407 0.985 . S
H404 N399 0.984 . S
H405 N399 0.985 . S
H406 N403 0.984 . S
H407 N403 0.985 . S
H408 N402 0.984 . S
H409 N402 0.984 . S
H410 N398 0.984 . S
H411 N398 0.985 . S
C412 C413 1.363 . S
C412 C418 1.379 . S
C412 N420 1.356 . S
C413 C412 1.363 . S
C413 C419 1.363 . S
C414 C415 1.363 . S
C414 C419 1.379 . S
C414 N421 1.356 . S
C415 C414 1.363 . S
C415 C418 1.363 . S
N416 C418 1.356 . S
N416 H428 0.984 . S
N416 H429 0.985 . S
N417 C419 1.356 . S
N417 H422 0.984 . S
N417 H423 0.985 . S
C418 C412 1.379 . S
C418 C415 1.363 . S
C418 N416 1.356 . S
C419 C413 1.363 . S
C419 C414 1.379 . S
C419 N417 1.356 . S
N420 C412 1.356 . S
N420 H426 0.984 . S
N420 H427 0.984 . S
N421 C414 1.356 . S
N421 H424 0.984 . S
N421 H425 0.985 . S
H422 N417 0.984 . S
H423 N417 0.985 . S
H424 N421 0.984 . S
H425 N421 0.985 . S
H426 N420 0.984 . S
H427 N420 0.984 . S
H428 N416 0.984 . S
H429 N416 0.985 . S
C430 C431 1.363 . S
C430 C436 1.379 . S
C430 N438 1.356 . S
C431 C430 1.363 . S
C431 C437 1.363 . S
C432 C433 1.363 . S
C432 C437 1.379 . S
C432 N439 1.356 . S
C433 C432 1.363 . S
C433 C436 1.363 . S
N434 C436 1.356 . S
N434 H446 0.984 . S
N434 H447 0.985 . S
N435 C437 1.356 . S
N435 H440 0.984 . S
N435 H441 0.985 . S
C436 C430 1.379 . S
C436 C433 1.363 . S
C436 N434 1.356 . S
C437 C431 1.363 . S
C437 C432 1.379 . S
C437 N435 1.356 . S
N438 C430 1.356 . S
N438 H444 0.984 . S
N438 H445 0.984 . S
N439 C432 1.356 . S
N439 H442 0.984 . S
N439 H443 0.985 . S
H440 N435 0.984 . S
H441 N435 0.985 . S
H442 N439 0.984 . S
H443 N439 0.985 . S
H444 N438 0.984 . S
H445 N438 0.984 . S
H446 N434 0.984 . S
H447 N434 0.985 . S
C448 C449 1.363 . S
C448 C454 1.379 . S
C448 N456 1.356 1_556 S
C449 C448 1.363 . S
C449 C455 1.363 1_655 S
C450 C451 1.363 . S
C450 C455 1.379 . S
C450 N457 1.356 . S
C451 C450 1.363 . S
C451 C454 1.363 1_455 S
N452 C454 1.356 1_554 S
N452 H464 0.984 . S
N452 H465 0.985 . S
N453 C455 1.356 . S
N453 H458 0.966 1_455 S
N453 H459 0.985 . S
C454 C448 1.379 . S
C454 C451 1.363 1_655 S
C454 N452 1.356 1_556 S
C455 C449 1.363 1_455 S
C455 C450 1.379 . S
C455 N453 1.356 . S
N456 C448 1.356 1_554 S
N456 H462 0.984 . S
N456 H463 0.984 1_554 S
N457 C450 1.356 . S
N457 H460 0.984 . S
N457 H461 0.985 . S
H458 N453 0.966 1_655 S
H459 N453 0.985 . S
H460 N457 0.984 . S
H461 N457 0.985 . S
H462 N456 0.984 . S
H463 N456 0.984 1_556 S
H464 N452 0.984 . S
H465 N452 0.985 . S
C466 C467 1.345 1_566 S
C466 C472 1.379 . S
C466 N474 1.356 . S
C467 C466 1.345 1_544 S
C467 C473 1.382 . S
C468 C469 1.363 . S
C468 C473 1.379 1_556 S
C468 N475 1.356 1_556 S
C469 C468 1.363 . S
C469 C472 1.363 1_545 S
N470 C472 1.356 . S
N470 H482 0.984 . S
N470 H483 0.985 . S
N471 C473 1.356 . S
N471 H476 0.984 . S
N471 H477 0.985 . S
C472 C466 1.379 . S
C472 C469 1.363 1_565 S
C472 N470 1.356 . S
C473 C467 1.382 . S
C473 C468 1.379 1_554 S
C473 N471 1.356 . S
N474 C466 1.356 . S
N474 H480 0.984 . S
N474 H481 0.984 . S
N475 C468 1.356 1_554 S
N475 H478 0.984 1_554 S
N475 H479 0.985 . S
H476 N471 0.984 . S
H477 N471 0.985 . S
H478 N475 0.984 1_556 S
H479 N475 0.985 . S
H480 N474 0.984 . S
H481 N474 0.984 . S
H482 N470 0.984 . S
H483 N470 0.985 . S
C484 C485 1.363 1_556 S
C484 C490 1.379 . S
C484 N492 1.356 . S
C485 C484 1.363 1_554 S
C485 C491 1.363 . S
C486 C487 1.363 . S
C486 C491 1.379 1_556 S
C486 N493 1.356 . S
C487 C486 1.363 . S
C487 C490 1.363 . S
N488 C490 1.356 . S
N488 H500 0.984 . S
N488 H501 0.985 . S
N489 C491 1.356 . S
N489 H494 0.984 . S
N489 H495 0.985 . S
C490 C484 1.379 . S
C490 C487 1.363 . S
C490 N488 1.356 . S
C491 C485 1.363 . S
C491 C486 1.379 1_554 S
C491 N489 1.356 . S
N492 C484 1.356 . S
N492 H498 0.984 . S
N492 H499 0.984 . S
N493 C486 1.356 . S
N493 H496 0.984 . S
N493 H497 0.985 1_556 S
H494 N489 0.984 . S
H495 N489 0.985 . S
H496 N493 0.984 . S
H497 N493 0.985 1_554 S
H498 N492 0.984 . S
H499 N492 0.984 . S
H500 N488 0.984 . S
H501 N488 0.985 . S
C502 C503 1.363 . S
C502 C508 1.379 . S
C502 N510 1.356 . S
C503 C502 1.363 . S
C503 C509 1.363 1_554 S
C504 C505 1.363 . S
C504 C509 1.379 . S
C504 N511 1.356 . S
C505 C504 1.363 . S
C505 C508 1.363 1_556 S
N506 C508 1.356 . S
N506 H518 0.984 . S
N506 H519 0.985 1_654 S
N507 C509 1.356 . S
N507 H512 0.984 1_556 S
N507 H513 0.985 . S
C508 C502 1.379 . S
C508 C505 1.363 1_554 S
C508 N506 1.356 . S
C509 C503 1.363 1_556 S
C509 C504 1.379 . S
C509 N507 1.356 . S
N510 C502 1.356 . S
N510 H516 0.984 . S
N510 H517 0.984 . S
N511 C504 1.356 . S
N511 H514 0.984 . S
N511 H515 0.985 . S
H512 N507 0.984 1_554 S
H513 N507 0.985 . S
H514 N511 0.984 . S
H515 N511 0.985 . S
H516 N510 0.984 . S
H517 N510 0.984 . S
H518 N506 0.984 . S
H519 N506 0.985 1_456 S
C520 C521 1.363 . S
C520 C526 1.379 . S
C520 N528 1.356 . S
C521 C520 1.363 . S
C521 C527 1.363 . S
C522 C523 1.363 . S
C522 C527 1.379 . S
C522 N529 1.356 . S
C523 C522 1.363 . S
C523 C526 1.363 . S
N524 C526 1.356 . S
N524 H536 0.984 1_455 S
N524 H537 0.985 . S
N525 C527 1.356 . S
N525 H530 0.984 . S
N525 H531 0.985 . S
C526 C520 1.379 . S
C526 C523 1.363 . S
C526 N524 1.356 . S
C527 C521 1.363 . S
C527 C522 1.379 . S
C527 N525 1.356 . S
N528 C520 1.356 . S
N528 H534 0.984 1_455 S
N528 H535 0.984 . S
N529 C522 1.356 . S
N529 H532 0.984 . S
N529 H533 0.985 . S
H530 N525 0.984 . S
H531 N525 0.985 . S
H532 N529 0.984 . S
H533 N529 0.985 . S
H534 N528 0.984 1_655 S
H535 N528 0.984 . S
H536 N524 0.984 1_655 S
H537 N524 0.985 . S
C538 C539 1.339 1_565 S
C538 C544 1.379 . S
C538 N546 1.356 . S
C539 C538 1.339 1_545 S
C539 C545 1.386 . S
C540 C541 1.363 . S
C540 C545 1.379 . S
C540 N547 1.356 1_554 S
C541 C540 1.363 . S
C541 C544 1.363 1_545 S
N542 C544 1.356 . S
N542 H554 0.984 . S
N542 H555 0.985 . S
N543 C545 1.356 . S
N543 H548 0.984 . S
N543 H549 0.985 . S
C544 C538 1.379 . S
C544 C541 1.363 1_565 S
C544 N542 1.356 . S
C545 C539 1.386 . S
C545 C540 1.379 . S
C545 N543 1.356 . S
N546 C538 1.356 . S
N546 H552 0.984 . S
N546 H553 0.984 . S
N547 C540 1.356 1_556 S
N547 H550 0.984 . S
N547 H551 0.985 . S
H548 N543 0.984 . S
H549 N543 0.985 . S
H550 N547 0.984 . S
H551 N547 0.985 . S
H552 N546 0.984 . S
H553 N546 0.984 . S
H554 N542 0.984 . S
H555 N542 0.985 . S
C556 C557 1.363 . S
C556 C562 1.379 . S
C556 N564 1.356 . S
C557 C556 1.363 . S
C557 C563 1.363 . S
C558 C559 1.363 . S
C558 C563 1.379 . S
C558 N565 1.356 . S
C559 C558 1.363 . S
C559 C562 1.363 . S
N560 C562 1.356 1_556 S
N560 H572 0.984 . S
N560 H573 0.985 . S
N561 C563 1.356 . S
N561 H566 0.984 . S
N561 H567 0.985 . S
C562 C556 1.379 . S
C562 C559 1.363 . S
C562 N560 1.356 1_554 S
C563 C557 1.363 . S
C563 C558 1.379 . S
C563 N561 1.356 . S
N564 C556 1.356 . S
N564 H570 0.984 . S
N564 H571 0.984 . S
N565 C558 1.356 . S
N565 H568 0.984 . S
N565 H569 0.985 . S
H566 N561 0.984 . S
H567 N561 0.985 . S
H568 N565 0.984 . S
H569 N565 0.985 . S
H570 N564 0.984 . S
H571 N564 0.984 . S
H572 N560 0.984 . S
H573 N560 0.985 . S
C574 C575 1.363 . S
C574 C580 1.379 1_554 S
C574 N582 1.356 . S
C575 C574 1.363 . S
C575 C581 1.363 . S
C576 C577 1.363 1_554 S
C576 C581 1.379 . S
C576 N583 1.356 . S
C577 C576 1.363 1_556 S
C577 C580 1.363 . S
N578 C580 1.356 . S
N578 H590 0.984 . S
N578 H591 0.985 . S
N579 C581 1.356 . S
N579 H584 0.984 . S
N579 H585 0.985 . S
C580 C574 1.379 1_556 S
C580 C577 1.363 . S
C580 N578 1.356 . S
C581 C575 1.363 . S
C581 C576 1.379 . S
C581 N579 1.356 . S
N582 C574 1.356 . S
N582 H588 0.984 . S
N582 H589 0.984 . S
N583 C576 1.356 . S
N583 H586 0.984 1_554 S
N583 H587 0.985 . S
H584 N579 0.984 . S
H585 N579 0.985 . S
H586 N583 0.984 1_556 S
H587 N583 0.985 . S
H588 N582 0.984 . S
H589 N582 0.984 . S
H590 N578 0.984 . S
H591 N578 0.985 . S
C592 C593 1.363 . S
C592 C598 1.379 . S
C592 N600 1.356 . S
C593 C592 1.363 . S
C593 C599 1.363 1_655 S
C594 C595 1.363 1_455 S
C594 C599 1.379 . S
C594 N601 1.356 . S
C595 C594 1.363 1_655 S
C595 C598 1.363 . S
N596 C598 1.356 . S
N596 H608 0.984 . S
N596 H609 0.985 . S
N597 C599 1.356 . S
N597 H602 0.984 . S
N597 H603 0.985 . S
C598 C592 1.379 . S
C598 C595 1.363 . S
C598 N596 1.356 . S
C599 C593 1.363 1_455 S
C599 C594 1.379 . S
C599 N597 1.356 . S
N600 C592 1.356 . S
N600 H606 0.984 . S
N600 H607 0.984 . S
N601 C594 1.356 . S
N601 H604 0.984 . S
N601 H605 0.985 . S
H602 N597 0.984 . S
H603 N597 0.985 . S
H604 N601 0.984 . S
H605 N601 0.985 . S
H606 N600 0.984 . S
H607 N600 0.984 . S
H608 N596 0.984 . S
H609 N596 0.985 . S
C610 C611 1.381 . S
C610 C616 1.379 . S
C610 N618 1.356 . S
C611 C610 1.381 . S
C611 C617 1.344 1_565 S
C612 C613 1.363 1_545 S
C612 C617 1.379 . S
C612 N619 1.356 . S
C613 C612 1.363 1_565 S
C613 C616 1.363 . S
N614 C616 1.356 . S
N614 H626 0.984 . S
N614 H627 0.985 . S
N615 C617 1.356 . S
N615 H620 0.984 . S
N615 H621 0.985 . S
C616 C610 1.379 . S
C616 C613 1.363 . S
C616 N614 1.356 . S
C617 C611 1.344 1_545 S
C617 C612 1.379 . S
C617 N615 1.356 . S
N618 C610 1.356 . S
N618 H624 0.984 . S
N618 H625 0.984 . S
N619 C612 1.356 . S
N619 H622 0.984 . S
N619 H623 0.985 . S
H620 N615 0.984 . S
H621 N615 0.985 . S
H622 N619 0.984 . S
H623 N619 0.985 . S
H624 N618 0.984 . S
H625 N618 0.984 . S
H626 N614 0.984 . S
H627 N614 0.985 . S
C628 C629 1.363 . S
C628 C634 1.379 . S
C628 N636 1.356 . S
C629 C628 1.363 . S
C629 C635 1.363 . S
C630 C631 1.363 . S
C630 C635 1.379 . S
C630 N637 1.356 . S
C631 C630 1.363 . S
C631 C634 1.363 . S
N632 C634 1.356 . S
N632 H644 0.984 . S
N632 H645 0.985 . S
N633 C635 1.356 . S
N633 H638 0.984 . S
N633 H639 0.985 . S
C634 C628 1.379 . S
C634 C631 1.363 . S
C634 N632 1.356 . S
C635 C629 1.363 . S
C635 C630 1.379 . S
C635 N633 1.356 . S
N636 C628 1.356 . S
N636 H642 0.984 . S
N636 H643 0.984 . S
N637 C630 1.356 . S
N637 H640 0.984 . S
N637 H641 0.985 . S
H638 N633 0.984 . S
H639 N633 0.985 . S
H640 N637 0.984 . S
H641 N637 0.985 . S
H642 N636 0.984 . S
H643 N636 0.984 . S
H644 N632 0.984 . S
H645 N632 0.985 . S
C646 C647 1.363 . S
C646 C652 1.379 . S
C646 N654 1.356 . S
C647 C646 1.363 . S
C647 C653 1.363 . S
C648 C649 1.363 . S
C648 C653 1.379 . S
C648 N655 1.356 . S
C649 C648 1.363 . S
C649 C652 1.363 . S
N650 C652 1.356 . S
N650 H662 0.984 . S
N650 H663 0.985 . S
N651 C653 1.356 . S
N651 H656 0.984 . S
N651 H657 0.985 . S
C652 C646 1.379 . S
C652 C649 1.363 . S
C652 N650 1.356 . S
C653 C647 1.363 . S
C653 C648 1.379 . S
C653 N651 1.356 . S
N654 C646 1.356 . S
N654 H660 0.984 . S
N654 H661 0.984 . S
N655 C648 1.356 . S
N655 H658 0.984 1_655 S
N655 H659 0.980 1_655 S
H656 N651 0.984 . S
H657 N651 0.985 . S
H658 N655 0.984 1_455 S
H659 N655 0.980 1_455 S
H660 N654 0.984 . S
H661 N654 0.984 . S
H662 N650 0.984 . S
H663 N650 0.985 . S
C233 C76 1.844 . S
C235 C113 1.880 . S
C253 C134 1.536 . S
C251 C88 1.501 . S
C271 C168 1.480 . S
C269 C52 1.416 . S
C289 C202 1.554 . S
C287 C64 1.524 . S
C307 C104 1.880 . S
C305 C28 1.846 1_546 S
C323 C40 1.510 . S
C325 C143 1.540 . S
C341 C4 1.418 . S
C343 C177 1.480 . S
C359 C16 1.535 . S
C361 C211 1.554 . S
C379 C125 0.878 . S
C377 C69 0.829 . S
C397 C130 1.273 . S
C395 C81 1.242 1_565 S
C415 C164 1.182 . S
C413 C93 1.168 . S
C431 C57 0.620 . S
C433 C198 0.622 . S
C449 C21 0.827 . S
C451 C96 0.882 . S
C469 C159 1.273 . S
C467 C33 1.238 . S
C487 C193 1.181 . S
C485 C45 1.160 . S
C503 C9 0.622 . S
C505 C227 0.622 . S
C521 C66 1.354 . S
C523 C109 1.392 . S
C539 C78 1.720 . S
C541 C138 1.769 1_554 S
C559 C172 1.549 1_554 S
C557 C90 1.518 . S
C577 C206 1.612 . S
C575 C54 1.561 . S
C593 C18 1.347 . S
C595 C100 1.397 . S
C613 C147 1.769 . S
C611 C30 1.720 1_565 S
C631 C181 1.549 . S
C629 C42 1.517 . S
C647 C6 1.566 . S
C649 C215 1.612 . S
