# Generated by pormake.
# Topology ant, (3,6)-cn, num edge types: 1
# Building blocks:
#     Node 0, Type 0, BuildingBlock: QEWDON_clean_linker_0, # of connection points: 3
#     Node 1, Type 0, BuildingBlock: QEWDON_clean_linker_0, # of connection points: 3
#     Node 2, Type 0, BuildingBlock: QEWDON_clean_linker_0, # of connection points: 3
#     Node 3, Type 0, BuildingBlock: QEWDON_clean_linker_0, # of connection points: 3
#     Node 4, Type 0, BuildingBlock: QEWDON_clean_linker_0, # of connection points: 3
#     Node 5, Type 0, BuildingBlock: QEWDON_clean_linker_0, # of connection points: 3
#     Node 6, Type 0, BuildingBlock: QEWDON_clean_linker_0, # of connection points: 3
#     Node 7, Type 0, BuildingBlock: QEWDON_clean_linker_0, # of connection points: 3
#     Node 8, Type 1, BuildingBlock: MIDCAF_clean_sbu_0, # of connection points: 6
#     Node 9, Type 1, BuildingBlock: MIDCAF_clean_sbu_0, # of connection points: 6
#     Node 10, Type 1, BuildingBlock: MIDCAF_clean_sbu_0, # of connection points: 6
#     Node 11, Type 1, BuildingBlock: MIDCAF_clean_sbu_0, # of connection points: 6
#     Edge 12, Type (0, 1), BuildingBlock: EZIPEK_clean_linker_0, # of connection points: 2
#     Edge 13, Type (0, 1), BuildingBlock: EZIPEK_clean_linker_0, # of connection points: 2
#     Edge 14, Type (0, 1), BuildingBlock: EZIPEK_clean_linker_0, # of connection points: 2
#     Edge 15, Type (0, 1), BuildingBlock: EZIPEK_clean_linker_0, # of connection points: 2
#     Edge 16, Type (0, 1), BuildingBlock: EZIPEK_clean_linker_0, # of connection points: 2
#     Edge 17, Type (0, 1), BuildingBlock: EZIPEK_clean_linker_0, # of connection points: 2
#     Edge 18, Type (0, 1), BuildingBlock: EZIPEK_clean_linker_0, # of connection points: 2
#     Edge 19, Type (0, 1), BuildingBlock: EZIPEK_clean_linker_0, # of connection points: 2
#     Edge 20, Type (0, 1), BuildingBlock: EZIPEK_clean_linker_0, # of connection points: 2
#     Edge 21, Type (0, 1), BuildingBlock: EZIPEK_clean_linker_0, # of connection points: 2
#     Edge 22, Type (0, 1), BuildingBlock: EZIPEK_clean_linker_0, # of connection points: 2
#     Edge 23, Type (0, 1), BuildingBlock: EZIPEK_clean_linker_0, # of connection points: 2
#     Edge 24, Type (0, 1), BuildingBlock: EZIPEK_clean_linker_0, # of connection points: 2
#     Edge 25, Type (0, 1), BuildingBlock: EZIPEK_clean_linker_0, # of connection points: 2
#     Edge 26, Type (0, 1), BuildingBlock: EZIPEK_clean_linker_0, # of connection points: 2
#     Edge 27, Type (0, 1), BuildingBlock: EZIPEK_clean_linker_0, # of connection points: 2
#     Edge 28, Type (0, 1), BuildingBlock: EZIPEK_clean_linker_0, # of connection points: 2
#     Edge 29, Type (0, 1), BuildingBlock: EZIPEK_clean_linker_0, # of connection points: 2
#     Edge 30, Type (0, 1), BuildingBlock: EZIPEK_clean_linker_0, # of connection points: 2
#     Edge 31, Type (0, 1), BuildingBlock: EZIPEK_clean_linker_0, # of connection points: 2
#     Edge 32, Type (0, 1), BuildingBlock: EZIPEK_clean_linker_0, # of connection points: 2
#     Edge 33, Type (0, 1), BuildingBlock: EZIPEK_clean_linker_0, # of connection points: 2
#     Edge 34, Type (0, 1), BuildingBlock: EZIPEK_clean_linker_0, # of connection points: 2
#     Edge 35, Type (0, 1), BuildingBlock: EZIPEK_clean_linker_0, # of connection points: 2
# Relax obj value: 0.062
# Max RMSD: 0.160
# Mean RMSD: 0.123
data_MOF--net-ant--node1-MIDCAF_clean_sbu_0--node2-QEWDON_clean_linker_0--edge1-EZIPEK_clean_linker_0
_symmetry_space_group_name_H-M    P1
_symmetry_Int_Tables_number       1
_symmetry_cell_setting            triclinic
loop_
_symmetry_equiv_pos_as_xyz
'x, y, z'
_cell_length_a     22.721871
_cell_length_b     22.499608
_cell_length_c     51.255148
_cell_angle_alpha  97.046622
_cell_angle_beta   102.40474
_cell_angle_gamma 89.441983
loop_
_atom_site_label
_atom_site_type_symbol
_atom_site_fract_x
_atom_site_fract_y
_atom_site_fract_z
_atom_type_partial_charge
H0 H 0.15108 0.21099 0.05212 0.0
C1 C 0.15337 0.25943 0.05595 0.0
C2 C 0.1455 0.29219 0.03398 0.0
C3 C 0.1619 0.28869 0.0824 0.0
H4 H 0.13739 0.3804 0.02116 0.0
C5 C 0.14468 0.35502 0.03822 0.0
C6 C 0.15262 0.38519 0.06437 0.0
C7 C 0.16174 0.35192 0.08639 0.0
C8 C 0.16488 0.25266 0.10523 0.0
H9 H 0.16811 0.37553 0.10655 0.0
C10 C 0.19205 0.19584 0.10499 0.0
C11 C 0.18154 0.15557 0.12257 0.0
C12 C 0.13381 0.27147 0.12568 0.0
H13 H 0.11193 0.31441 0.12649 0.0
C14 C 0.12728 0.23348 0.14445 0.0
H15 H 0.21751 0.18101 0.08984 0.0
C16 C 0.14957 0.17553 0.14255 0.0
H17 H 0.14061 0.14569 0.15635 0.0
H18 H 0.10238 0.24805 0.15981 0.0
H19 H 0.0294 0.79833 0.29606 0.0
C20 C 0.07457 0.79086 0.30718 0.0
C21 C 0.12116 0.7807 0.29329 0.0
C22 C 0.08625 0.79096 0.33525 0.0
H23 H 0.21561 0.7627 0.29657 0.0
C24 C 0.17976 0.77153 0.30743 0.0
C25 C 0.19209 0.77164 0.33536 0.0
C26 C 0.14543 0.78162 0.3493 0.0
C27 C 0.03645 0.79939 0.34976 0.0
H28 H 0.15491 0.77993 0.37084 0.0
C29 C 0.98076 0.76908 0.33943 0.0
C30 C 0.93392 0.77707 0.35337 0.0
C31 C 0.04439 0.83777 0.3741 0.0
H32 H 0.08656 0.86201 0.38234 0.0
C33 C 0.9976 0.84595 0.38784 0.0
H34 H 0.974 0.73872 0.32087 0.0
C35 C 0.9426 0.81581 0.37755 0.0
H36 H 0.90674 0.8225 0.3885 0.0
H37 H 0.00396 0.87578 0.40651 0.0
H38 H 0.68388 0.65593 0.54865 0.0
C39 C 0.67524 0.70306 0.55329 0.0
C40 C 0.64925 0.73508 0.53205 0.0
C41 C 0.69457 0.73215 0.57964 0.0
H42 H 0.62013 0.82165 0.52067 0.0
C43 C 0.63981 0.79681 0.53716 0.0
C44 C 0.65695 0.82698 0.56332 0.0
C45 C 0.68431 0.79448 0.58451 0.0
C46 C 0.73058 0.69806 0.60094 0.0
H47 H 0.6982 0.81809 0.60461 0.0
C48 C 0.72034 0.63593 0.60087 0.0
C49 C 0.75977 0.60227 0.61844 0.0
C50 C 0.77966 0.72604 0.61989 0.0
H51 H 0.79007 0.77306 0.62039 0.0
C52 C 0.81803 0.69305 0.63767 0.0
H53 H 0.68247 0.61312 0.58684 0.0
C54 C 0.80881 0.6315 0.63672 0.0
H55 H 0.84002 0.60654 0.65021 0.0
H56 H 0.85606 0.71512 0.65186 0.0
H57 H 0.53535 0.32854 0.78368 0.0
C58 C 0.58261 0.32862 0.79353 0.0
C59 C 0.62461 0.30736 0.77851 0.0
C60 C 0.60161 0.35121 0.82088 0.0
H61 H 0.71793 0.28999 0.77899 0.0
C62 C 0.68579 0.30741 0.79077 0.0
C63 C 0.70611 0.33082 0.81784 0.0
C64 C 0.66385 0.35375 0.83273 0.0
C65 C 0.55619 0.37156 0.83685 0.0
H66 H 0.67946 0.37151 0.85369 0.0
C67 C 0.50106 0.33989 0.83287 0.0
C68 C 0.45787 0.35925 0.84774 0.0
C69 C 0.56719 0.4229 0.85595 0.0
H70 H 0.60863 0.44877 0.85919 0.0
C71 C 0.52414 0.44217 0.87074 0.0
H72 H 0.49175 0.29979 0.8185 0.0
C73 C 0.46969 0.41064 0.86665 0.0
H74 H 0.43667 0.42631 0.87823 0.0
H75 H 0.53287 0.48188 0.88531 0.0
H76 H 0.00666 0.79216 0.94642 0.0
C77 C 0.00746 0.74789 0.93547 0.0
C78 C 0.0187 0.69799 0.94968 0.0
C79 C 0.99767 0.74032 0.90716 0.0
H80 H 0.02867 0.60282 0.94701 0.0
C81 C 0.01872 0.64089 0.93575 0.0
C82 C 0.01327 0.63298 0.90785 0.0
C83 C 0.0021 0.6826 0.89351 0.0
C84 C 0.98305 0.79214 0.89169 0.0
H85 H 0.999 0.67658 0.87194 0.0
C86 C 0.0158 0.84684 0.89934 0.0
C87 C 0.00153 0.89464 0.88385 0.0
C88 C 0.93567 0.78653 0.86877 0.0
H89 H 0.90942 0.7453 0.86264 0.0
C90 C 0.92113 0.8342 0.85371 0.0
H91 H 0.05286 0.85186 0.91678 0.0
C92 C 0.95386 0.88789 0.86115 0.0
H93 H 0.94224 0.9243 0.84906 0.0
H94 H 0.88447 0.82943 0.83615 0.0
H95 H 0.69439 0.80884 0.21383 0.0
C96 C 0.64981 0.81424 0.20166 0.0
C97 C 0.60011 0.78929 0.20867 0.0
C98 C 0.64161 0.84886 0.18009 0.0
H99 H 0.50368 0.77929 0.19984 0.0
C100 C 0.54205 0.79788 0.19394 0.0
C101 C 0.5326 0.83274 0.17264 0.0
C102 C 0.58244 0.85834 0.16576 0.0
C103 C 0.69464 0.87678 0.17333 0.0
H104 H 0.57484 0.88534 0.14928 0.0
C105 C 0.74942 0.84588 0.17473 0.0
C106 C 0.79861 0.87156 0.16733 0.0
C107 C 0.69092 0.9347 0.16545 0.0
H108 H 0.6502 0.96037 0.16485 0.0
C109 C 0.74011 0.96066 0.15861 0.0
H110 H 0.7534 0.80112 0.18061 0.0
C111 C 0.79352 0.92926 0.15938 0.0
H112 H 0.83095 0.94987 0.15363 0.0
H113 H 0.73673 1.00522 0.15256 0.0
H114 H 0.49304 0.21966 0.43692 0.0
C115 C 0.49183 0.17556 0.42558 0.0
C116 C 0.50634 0.12551 0.43938 0.0
C117 C 0.47743 0.16873 0.39725 0.0
H118 H 0.51732 0.03043 0.43586 0.0
C119 C 0.50442 0.06866 0.42499 0.0
C120 C 0.49347 0.06143 0.39682 0.0
C121 C 0.47952 0.11142 0.38295 0.0
C122 C 0.46286 0.22148 0.38251 0.0
H123 H 0.47316 0.10608 0.36121 0.0
C124 C 0.49762 0.27477 0.39034 0.0
C125 C 0.48365 0.32402 0.3759 0.0
C126 C 0.41405 0.21841 0.36023 0.0
H127 H 0.38637 0.17811 0.35394 0.0
C128 C 0.39999 0.26758 0.34605 0.0
H129 H 0.53592 0.27776 0.40724 0.0
C130 C 0.43457 0.32015 0.35381 0.0
H131 H 0.42324 0.35789 0.34252 0.0
H132 H 0.36221 0.26491 0.32898 0.0
H133 H 0.20301 0.33263 0.69629 0.0
C134 C 0.15539 0.3262 0.68745 0.0
C135 C 0.11604 0.31654 0.70412 0.0
C136 C 0.13345 0.32529 0.65952 0.0
H137 H 0.02391 0.30519 0.70666 0.0
C138 C 0.0541 0.31157 0.69341 0.0
C139 C 0.03133 0.30729 0.66554 0.0
C140 C 0.07142 0.31385 0.64863 0.0
C141 C 0.17543 0.33459 0.64172 0.0
H142 H 0.0545 0.3085 0.62703 0.0
C143 C 0.23453 0.31228 0.64687 0.0
C144 C 0.27446 0.32334 0.63053 0.0
C145 C 0.15704 0.36733 0.61974 0.0
H146 H 0.11236 0.38596 0.61547 0.0
C147 C 0.19665 0.3777 0.60335 0.0
H148 H 0.24975 0.28623 0.6634 0.0
C149 C 0.25516 0.35605 0.60875 0.0
H150 H 0.28559 0.36502 0.59601 0.0
H151 H 0.18213 0.40317 0.58658 0.0
Zn152 Zn 0.21656 0.70217 0.15197 0.0
Zn153 Zn 0.0662 0.83572 0.1013 0.0
Zn154 Zn 0.14423 0.77307 0.12472 0.0
C155 C 0.08142 0.74644 0.06283 0.0
C156 C 0.16611 0.90932 0.11731 0.0
O157 O 0.11672 0.76727 0.16297 0.0
O158 O 0.18901 0.71596 0.18623 0.0
C159 C 0.16313 0.63161 0.10536 0.0
O160 O 0.11221 0.7256 0.08381 0.0
O161 O 0.05885 0.79764 0.06468 0.0
O162 O 0.10965 0.91227 0.11015 0.0
O163 O 0.19097 0.85887 0.12219 0.0
O164 O 0.19491 0.62646 0.12835 0.0
O165 O 0.14272 0.68327 0.09947 0.0
O166 O 0.23426 0.81754 0.13328 0.0
O167 O 0.29081 0.74451 0.14998 0.0
C168 C 0.28637 0.79574 0.14221 0.0
O169 O 0.06746 0.78848 0.14632 0.0
O170 O 0.99657 0.82724 0.1169 0.0
C171 C 0.14166 0.74613 0.18487 0.0
C172 C 0.01302 0.80681 0.13903 0.0
Zn173 Zn 0.50465 0.6191 0.32668 0.0
Zn174 Zn 0.64173 0.74714 0.38583 0.0
Zn175 Zn 0.56991 0.68722 0.36105 0.0
C176 C 0.55939 0.8209 0.36639 0.0
C177 C 0.70663 0.70217 0.35561 0.0
O178 O 0.57001 0.60337 0.37883 0.0
O179 O 0.53716 0.5441 0.34088 0.0
C180 C 0.43249 0.69975 0.35426 0.0
O181 O 0.52951 0.77458 0.36909 0.0
O182 O 0.61351 0.81457 0.36449 0.0
O183 O 0.71842 0.71072 0.38097 0.0
O184 O 0.65099 0.69806 0.34277 0.0
O185 O 0.43174 0.65023 0.33953 0.0
O186 O 0.48215 0.73027 0.3615 0.0
O187 O 0.60059 0.6858 0.32309 0.0
O188 O 0.52228 0.6449 0.29317 0.0
C189 C 0.57192 0.67316 0.29847 0.0
O190 O 0.5972 0.64981 0.39946 0.0
O191 O 0.61655 0.74151 0.41997 0.0
C192 C 0.5574 0.55064 0.36606 0.0
C193 C 0.60626 0.68709 0.42114 0.0
Zn194 Zn 0.57683 0.29525 0.58388 0.0
Zn195 Zn 0.69362 0.15489 0.63965 0.0
Zn196 Zn 0.64035 0.22426 0.61239 0.0
C197 C 0.78059 0.22877 0.63097 0.0
C198 C 0.64455 0.07773 0.59854 0.0
O199 O 0.55757 0.24759 0.6285 0.0
O200 O 0.50298 0.29868 0.59791 0.0
C201 C 0.68214 0.3586 0.60544 0.0
O202 O 0.7337 0.26147 0.62559 0.0
O203 O 0.77345 0.1738 0.63237 0.0
O204 O 0.65981 0.07584 0.62354 0.0
O205 O 0.63927 0.12932 0.58943 0.0
O206 O 0.62948 0.36646 0.5925 0.0
O207 O 0.69712 0.307 0.61334 0.0
O208 O 0.61413 0.17289 0.57246 0.0
O209 O 0.57307 0.24568 0.54946 0.0
C210 C 0.58949 0.19213 0.5501 0.0
O211 O 0.60134 0.22764 0.64808 0.0
O212 O 0.67656 0.18818 0.67494 0.0
C213 C 0.50838 0.27422 0.61909 0.0
C214 C 0.62805 0.21674 0.67175 0.0
Zn215 Zn 0.03173 0.18663 0.82695 0.0
Zn216 Zn 0.16754 0.31562 0.89213 0.0
Zn217 Zn 0.09392 0.259 0.86371 0.0
C218 C 0.12691 0.25094 0.92488 0.0
C219 C 0.08386 0.39388 0.87472 0.0
O220 O 0.13262 0.25675 0.8279 0.0
O221 O 0.06336 0.20713 0.79587 0.0
C222 C 0.07254 0.12034 0.86878 0.0
O223 O 0.11183 0.21852 0.90188 0.0
O224 O 0.14609 0.30372 0.92614 0.0
O225 O 0.13959 0.38936 0.87565 0.0
O226 O 0.052 0.3458 0.87255 0.0
O227 O 0.05356 0.112 0.84355 0.0
O228 O 0.08728 0.17355 0.88082 0.0
O229 O 0.0057 0.30239 0.85565 0.0
O230 O 0.95411 0.22439 0.83115 0.0
C231 C 0.95532 0.27696 0.84318 0.0
O232 O 0.17993 0.27193 0.84875 0.0
O233 O 0.24676 0.28727 0.88715 0.0
C234 C 0.11032 0.23966 0.80282 0.0
C235 C 0.23533 0.27899 0.86181 0.0
C236 C 0.20051 0.4877 0.0684 0.0
C237 C 0.14965 0.45192 0.06885 0.0
C238 C 0.09839 0.54129 0.08501 0.0
C239 C 0.15061 0.57616 0.08605 0.0
N240 N 0.24316 0.58796 0.07183 0.0
N241 N 0.04476 0.44588 0.07052 0.0
C242 C 0.19883 0.55094 0.07523 0.0
C243 C 0.09663 0.47929 0.07478 0.0
N244 N 0.25145 0.46092 0.06285 0.0
N245 N 0.05198 0.56692 0.09519 0.0
H246 H 0.04231 0.40041 0.06316 0.0
H247 H 0.00316 0.46389 0.07214 0.0
H248 H 0.05113 0.61273 0.10158 0.0
H249 H 0.01562 0.54289 0.09821 0.0
H250 H 0.29227 0.48358 0.06506 0.0
H251 H 0.25407 0.4149 0.05747 0.0
H252 H 0.27751 0.57375 0.0621 0.0
H253 H 0.24199 0.63439 0.0766 0.0
C254 C 0.82569 0.77695 0.33001 0.0
C255 C 0.87504 0.74525 0.34321 0.0
C256 C 0.80603 0.66732 0.34872 0.0
C257 C 0.75754 0.70646 0.3421 0.0
N258 N 0.71894 0.79659 0.32396 0.0
N259 N 0.91438 0.65698 0.36256 0.0
C260 C 0.7663 0.7598 0.33109 0.0
C261 C 0.86593 0.68851 0.35116 0.0
N262 N 0.83613 0.8242 0.31714 0.0
N263 N 0.79412 0.61075 0.35349 0.0
H264 H 0.95872 0.67075 0.36381 0.0
H265 H 0.91088 0.61855 0.37157 0.0
H266 H 0.75002 0.59533 0.35167 0.0
H267 H 0.82664 0.57802 0.35679 0.0
H268 H 0.80219 0.8464 0.3052 0.0
H269 H 0.87959 0.83749 0.31643 0.0
H270 H 0.72345 0.8396 0.31906 0.0
H271 H 0.67479 0.78487 0.32393 0.0
C272 C 0.73782 0.50978 0.63887 0.0
C273 C 0.75142 0.53576 0.61684 0.0
C274 C 0.73838 0.43704 0.58963 0.0
C275 C 0.7236 0.41165 0.61145 0.0
N276 N 0.72873 0.4188 0.65895 0.0
N277 N 0.78228 0.52076 0.57435 0.0
C278 C 0.7304 0.44642 0.63686 0.0
C279 C 0.75743 0.49821 0.59318 0.0
N280 N 0.72805 0.5457 0.66099 0.0
N281 N 0.73181 0.40301 0.56517 0.0
H282 H 0.79758 0.56504 0.57652 0.0
H283 H 0.79291 0.49441 0.55788 0.0
H284 H 0.72128 0.35729 0.56245 0.0
H285 H 0.73425 0.42045 0.54752 0.0
H286 H 0.71181 0.52965 0.67636 0.0
H287 H 0.73102 0.5923 0.66295 0.0
H288 H 0.73815 0.44082 0.67852 0.0
H289 H 0.72458 0.3724 0.65782 0.0
C290 C 0.81201 0.35777 0.81653 0.0
C291 C 0.77221 0.33096 0.82975 0.0
C292 C 0.85971 0.29148 0.85915 0.0
C293 C 0.89689 0.30715 0.84206 0.0
N294 N 0.9053 0.34637 0.80121 0.0
N295 N 0.75863 0.26557 0.86225 0.0
C296 C 0.87251 0.33865 0.82001 0.0
C297 C 0.79612 0.29693 0.85113 0.0
N298 N 0.79166 0.40078 0.80031 0.0
N299 N 0.88513 0.26928 0.88253 0.0
H300 H 0.71186 0.26564 0.85626 0.0
H301 H 0.77405 0.23501 0.87579 0.0
H302 H 0.93151 0.26385 0.88839 0.0
H303 H 0.86113 0.26188 0.89705 0.0
H304 H 0.82013 0.42489 0.79184 0.0
H305 H 0.74766 0.4165 0.79779 0.0
H306 H 0.88698 0.36338 0.78324 0.0
H307 H 0.94945 0.33167 0.80266 0.0
C308 C 0.08849 0.5532 0.90673 0.0
C309 C 0.03102 0.57435 0.89546 0.0
C310 C 0.00918 0.47827 0.8669 0.0
C311 C 0.06166 0.45438 0.88218 0.0
N312 N 0.14093 0.46735 0.92265 0.0
N313 N 0.93257 0.5542 0.86656 0.0
C314 C 0.0984 0.49133 0.90388 0.0
C315 C 0.9899 0.53618 0.87593 0.0
N316 N 0.13366 0.59222 0.9202 0.0
N317 N 0.97984 0.44746 0.84323 0.0
H318 H 0.91716 0.59628 0.87276 0.0
H319 H 0.8994 0.5256 0.85422 0.0
H320 H 0.99592 0.40714 0.83547 0.0
H321 H 0.94417 0.4651 0.8302 0.0
H322 H 0.17761 0.5785 0.92719 0.0
H323 H 0.1287 0.63855 0.92141 0.0
H324 H 0.16526 0.493 0.93985 0.0
H325 H 0.14632 0.42136 0.9229 0.0
C326 C 0.85844 0.78927 0.14745 0.0
C327 C 0.85592 0.83888 0.16721 0.0
C328 C 0.96586 0.85042 0.1767 0.0
C329 C 0.96742 0.80425 0.1555 0.0
N330 N 0.92149 0.71573 0.12832 0.0
N331 N 0.90734 0.90168 0.20683 0.0
C332 C 0.91563 0.76837 0.14383 0.0
C333 C 0.90999 0.86399 0.18413 0.0
N334 N 0.8069 0.76553 0.1306 0.0
N335 N 0.0165 0.88417 0.18814 0.0
H336 H 0.86664 0.91179 0.21259 0.0
H337 H 0.94538 0.918 0.22109 0.0
H338 H 0.05788 0.87466 0.18303 0.0
H339 H 0.01687 0.92284 0.20161 0.0
H340 H 0.80686 0.73399 0.11392 0.0
H341 H 0.76395 0.7801 0.13202 0.0
H342 H 0.88623 0.68489 0.12075 0.0
H343 H 0.96357 0.70063 0.12548 0.0
C344 C 0.56946 0.38837 0.37126 0.0
C345 C 0.51983 0.38048 0.38324 0.0
C346 C 0.5138 0.48873 0.3949 0.0
C347 C 0.55863 0.49679 0.38008 0.0
N348 N 0.64271 0.45757 0.36261 0.0
N349 N 0.45876 0.41926 0.41408 0.0
C350 C 0.59149 0.44734 0.37138 0.0
C351 C 0.49718 0.42959 0.3979 0.0
N352 N 0.59278 0.33992 0.3584 0.0
N353 N 0.48371 0.53699 0.40408 0.0
H354 H 0.4459 0.37605 0.41627 0.0
H355 H 0.44417 0.45259 0.42707 0.0
H356 H 0.49594 0.58095 0.40308 0.0
H357 H 0.44528 0.53364 0.41182 0.0
H358 H 0.62441 0.34303 0.34663 0.0
H359 H 0.57868 0.29611 0.3588 0.0
H360 H 0.67152 0.42396 0.35754 0.0
H361 H 0.65895 0.50094 0.36281 0.0
C362 C 0.92622 0.31986 0.63647 0.0
C363 C 0.96705 0.28775 0.65462 0.0
C364 C 0.88255 0.23002 0.66112 0.0
C365 C 0.84316 0.25404 0.63968 0.0
N366 N 0.83324 0.3128 0.60257 0.0
N367 N 0.98363 0.19693 0.67596 0.0
C368 C 0.86635 0.29674 0.62605 0.0
C369 C 0.94512 0.23788 0.6643 0.0
N370 N 0.94336 0.37295 0.62981 0.0
N371 N 0.86064 0.20174 0.67925 0.0
H372 H 0.02991 0.19824 0.67681 0.0
H373 H 0.96834 0.15797 0.6817 0.0
H374 H 0.81488 0.20022 0.67949 0.0
H375 H 0.8887 0.18717 0.69611 0.0
H376 H 0.91322 0.40013 0.6185 0.0
H377 H 0.98583 0.3925 0.6378 0.0
H378 H 0.85036 0.3404 0.59095 0.0
H379 H 0.79154 0.29309 0.59325 0.0
C380 C 0.35171 0.24457 0.62523 0.0
C381 C 0.3376 0.30254 0.63627 0.0
C382 C 0.44373 0.33338 0.64579 0.0
C383 C 0.45681 0.27754 0.63243 0.0
N384 N 0.42984 0.17439 0.61696 0.0
N385 N 0.37049 0.39485 0.66441 0.0
C386 C 0.41289 0.23094 0.62498 0.0
C387 C 0.38404 0.34439 0.64925 0.0
N388 N 0.3063 0.20415 0.61361 0.0
N389 N 0.48768 0.37688 0.6536 0.0
H390 H 0.32684 0.40369 0.66707 0.0
H391 H 0.40275 0.42512 0.67615 0.0
H392 H 0.53208 0.36899 0.65188 0.0
H393 H 0.48 0.42096 0.66072 0.0
H394 H 0.31259 0.16356 0.60251 0.0
H395 H 0.26131 0.21239 0.61418 0.0
H396 H 0.40116 0.13707 0.61295 0.0
H397 H 0.47459 0.16409 0.61662 0.0
C398 C 0.44246 0.81521 0.13368 0.0
C399 C 0.46921 0.84486 0.15953 0.0
C400 C 0.36984 0.86198 0.16988 0.0
C401 C 0.34324 0.82933 0.14475 0.0
N402 N 0.35029 0.79159 0.09971 0.0
N403 N 0.45842 0.91486 0.19755 0.0
C404 C 0.37844 0.81247 0.12547 0.0
C405 C 0.43254 0.87529 0.17582 0.0
N406 N 0.47774 0.78591 0.11794 0.0
N407 N 0.3365 0.87524 0.18899 0.0
H408 H 0.50458 0.92481 0.20221 0.0
H409 H 0.43357 0.94178 0.2091 0.0
H410 H 0.29077 0.8643 0.18554 0.0
H411 H 0.35503 0.89303 0.20877 0.0
H412 H 0.46056 0.75769 0.10032 0.0
H413 H 0.52466 0.78741 0.12324 0.0
H414 H 0.37283 0.78234 0.08404 0.0
H415 H 0.30335 0.78905 0.09367 0.0
C416 C 0.34632 0.35429 0.83054 0.0
C417 C 0.39919 0.32697 0.84347 0.0
C418 C 0.33725 0.25043 0.85536 0.0
C419 C 0.28589 0.28599 0.84833 0.0
N420 N 0.24099 0.37327 0.8293 0.0
N421 N 0.44629 0.24753 0.86772 0.0
C422 C 0.28973 0.33744 0.83518 0.0
C423 C 0.39512 0.27368 0.85523 0.0
N424 N 0.35061 0.39698 0.81422 0.0
N425 N 0.33024 0.19497 0.86263 0.0
H426 H 0.48945 0.26294 0.86777 0.0
H427 H 0.44607 0.2127 0.87932 0.0
H428 H 0.28782 0.17746 0.86262 0.0
H429 H 0.36504 0.16453 0.86602 0.0
H430 H 0.31328 0.41469 0.80223 0.0
H431 H 0.3918 0.41017 0.81065 0.0
H432 H 0.24327 0.41511 0.82281 0.0
H433 H 0.19875 0.36316 0.83248 0.0
C434 C 0.29914 0.79943 0.35886 0.0
C435 C 0.25312 0.75496 0.34918 0.0
C436 C 0.3274 0.67688 0.35827 0.0
C437 C 0.37388 0.72031 0.36111 0.0
N438 N 0.40334 0.82015 0.38186 0.0
N439 N 0.22158 0.65106 0.34206 0.0
C440 C 0.36006 0.78134 0.36673 0.0
C441 C 0.26652 0.69354 0.35021 0.0
N442 N 0.28473 0.85857 0.35968 0.0
N443 N 0.34194 0.62063 0.36468 0.0
H444 H 0.1761 0.66172 0.33695 0.0
H445 H 0.22957 0.60534 0.33909 0.0
H446 H 0.38622 0.60942 0.37283 0.0
H447 H 0.31015 0.58795 0.36513 0.0
H448 H 0.31669 0.89315 0.36427 0.0
H449 H 0.24032 0.8729 0.35484 0.0
H450 H 0.39517 0.86454 0.38834 0.0
H451 H 0.4451 0.80527 0.39132 0.0
C452 C 0.69323 0.9337 0.56457 0.0
C453 C 0.64843 0.89344 0.56808 0.0
C454 C 0.59046 0.97899 0.58326 0.0
C455 C 0.6367 0.01889 0.58106 0.0
N456 N 0.72351 0.03677 0.5633 0.0
N457 N 0.54831 0.87762 0.57474 0.0
C458 C 0.68509 0.99691 0.56942 0.0
C459 C 0.59492 0.91618 0.57544 0.0
N460 N 0.74471 0.91134 0.55765 0.0
N461 N 0.54334 1.00145 0.59386 0.0
H462 H 0.55071 0.83144 0.56968 0.0
H463 H 0.50588 0.89135 0.57735 0.0
H464 H 0.53712 0.04743 0.59797 0.0
H465 H 0.51162 0.97514 0.59929 0.0
H466 H 0.78212 0.93756 0.55757 0.0
H467 H 0.75166 0.86559 0.55343 0.0
H468 H 0.757 0.02456 0.55277 0.0
H469 H 0.71821 0.08298 0.56666 0.0
C470 C 0.17828 0.05345 0.09443 0.0
C471 C 0.19883 0.091 0.11922 0.0
C472 C 0.22215 1.00171 0.14239 0.0
C473 C 0.20036 0.96517 0.11777 0.0
N474 N 0.18242 0.95497 0.06965 0.0
N475 N 0.26142 0.09947 0.16403 0.0
C476 C 0.18869 0.99108 0.09352 0.0
C477 C 0.22858 0.0645 0.14224 0.0
N478 N 0.1429 0.07512 0.07268 0.0
N479 N 0.23163 0.97745 0.166 0.0
H480 H 0.2676 0.14542 0.16409 0.0
H481 H 0.28719 0.08186 0.18061 0.0
H482 H 0.2256 0.93179 0.16648 0.0
H483 H 0.24138 1.00305 0.18482 0.0
H484 H 0.12284 0.04764 0.05521 0.0
H485 H 0.1274 0.11875 0.0729 0.0
H486 H 0.1776 0.97166 0.05121 0.0
H487 H 0.18849 0.90874 0.06896 0.0
C488 C 0.56911 0.98408 0.39257 0.0
C489 C 0.51 1.00355 0.38334 0.0
C490 C 0.48413 0.90435 0.3579 0.0
C491 C 0.53907 0.88267 0.37228 0.0
N492 N 0.62623 0.90161 0.40925 0.0
N493 N 0.40931 0.98263 0.35706 0.0
C494 C 0.57961 0.92248 0.39125 0.0
C495 C 0.46676 0.96399 0.36568 0.0
N496 N 0.61497 0.02463 0.40304 0.0
N497 N 0.44935 0.86869 0.33689 0.0
H498 H 0.39549 0.0258 0.36257 0.0
H499 H 0.3748 0.95462 0.34548 0.0
H500 H 0.4606 0.82474 0.33113 0.0
H501 H 0.41166 0.88388 0.32417 0.0
H502 H 0.65983 0.01211 0.40849 0.0
H503 H 0.60868 0.07064 0.4031 0.0
H504 H 0.65363 0.92971 0.42471 0.0
H505 H 0.63272 0.85624 0.41102 0.0
C506 C 0.00915 1.00297 0.90218 0.0
C507 C 0.03593 0.95245 0.89037 0.0
C508 C 0.10748 0.01853 0.87779 0.0
C509 C 0.07159 0.06802 0.88369 0.0
N510 N 0.99007 0.10937 0.90306 0.0
N511 N 0.11395 0.91037 0.86895 0.0
C512 C 0.02404 0.06119 0.89715 0.0
C513 C 0.08723 0.95968 0.87939 0.0
N514 N 0.96842 0.99465 0.91755 0.0
N515 N 0.16016 0.02836 0.87012 0.0
H516 H 0.10124 0.86683 0.87066 0.0
H517 H 0.14699 0.91235 0.85781 0.0
H518 H 0.17528 0.07151 0.86904 0.0
H519 H 0.19108 0.99505 0.86726 0.0
H520 H 0.95045 0.0295 0.92855 0.0
H521 H 0.95696 0.9521 0.92122 0.0
H522 H 0.95035 0.1063 0.90986 0.0
H523 H 0.00023 0.15262 0.89993 0.0
C524 C 0.1842 0.23544 -0.00431 0.0
C525 C 0.13518 0.26077 0.00612 0.0
C526 C 0.07066 0.24968 0.96099 0.0
C527 C 0.12121 0.23045 0.95042 0.0
N528 N 0.21812 0.18547 0.95674 0.0
N529 N 0.02801 0.27335 0.00052 0.0
C530 C 0.1751 0.21581 0.96766 0.0
C531 C 0.07686 0.26114 0.98931 0.0
N532 N 0.24003 0.23406 0.01215 0.0
N533 N 0.0184 0.26154 0.94375 0.0
H534 H 0.0317 0.28193 0.02129 0.0
H535 H 0.9837 0.26987 0.98954 0.0
H536 H 0.01328 0.25217 0.92295 0.0
H537 H 0.98169 0.28249 0.94984 0.0
H538 H 0.27883 0.22199 0.00523 0.0
H539 H 0.24834 0.24806 0.03278 0.0
H540 H 0.25733 0.16952 0.96809 0.0
H541 H 0.2112 0.17166 0.93607 0.0
C542 C 0.08701 0.72465 0.24706 0.0
C543 C 0.10961 0.77829 0.26365 0.0
C544 C 0.13955 0.81714 0.2259 0.0
C545 C 0.11951 0.76244 0.20968 0.0
N546 N 0.05943 0.67223 0.20167 0.0
N547 N 0.14052 0.88154 0.26759 0.0
C548 C 0.08794 0.71894 0.21925 0.0
C549 C 0.13 0.82672 0.25252 0.0
N550 N 0.06819 0.67804 0.2582 0.0
N551 N 0.17075 0.85828 0.21635 0.0
H552 H 0.13382 0.88944 0.28724 0.0
H553 H 0.15038 0.92013 0.25993 0.0
H554 H 0.17674 0.8537 0.19659 0.0
H555 H 0.19308 0.89554 0.22829 0.0
H556 H 0.05788 0.63543 0.2478 0.0
H557 H 0.06591 0.68099 0.27842 0.0
H558 H 0.03128 0.64144 0.2068 0.0
H559 H 0.05963 0.66772 0.18117 0.0
C560 C 0.68179 0.68357 0.49094 0.0
C561 C 0.63473 0.70458 0.50392 0.0
C562 C 0.56143 0.68696 0.461 0.0
C563 C 0.60905 0.66946 0.44807 0.0
N564 N 0.70832 0.63079 0.45087 0.0
N565 N 0.5283 0.70876 0.5031 0.0
C566 C 0.66696 0.65986 0.46333 0.0
C567 C 0.57384 0.70006 0.48951 0.0
N568 N 0.74075 0.69084 0.5042 0.0
N569 N 0.50542 0.69494 0.44575 0.0
H570 H 0.53636 0.7181 0.52403 0.0
H571 H 0.48297 0.70151 0.49397 0.0
H572 H 0.49536 0.68388 0.42486 0.0
H573 H 0.47016 0.71461 0.45353 0.0
H574 H 0.77678 0.68206 0.4948 0.0
H575 H 0.75415 0.71043 0.52409 0.0
H576 H 0.75034 0.61817 0.46115 0.0
H577 H 0.69756 0.61407 0.43045 0.0
C578 C 0.59374 0.22516 0.74038 0.0
C579 C 0.60592 0.28679 0.74937 0.0
C580 C 0.61535 0.30528 0.70448 0.0
C581 C 0.60691 0.24295 0.69585 0.0
N582 N 0.57148 0.1468 0.70235 0.0
N583 N 0.61006 0.38793 0.73902 0.0
C584 C 0.59026 0.20397 0.7128 0.0
C585 C 0.61007 0.32773 0.73095 0.0
N586 N 0.58846 0.1868 0.75849 0.0
N587 N 0.63319 0.3422 0.68824 0.0
H588 H 0.60732 0.4055 0.75852 0.0
H589 H 0.60713 0.42021 0.7259 0.0
H590 H 0.63657 0.32797 0.66851 0.0
H591 H 0.64763 0.38637 0.69469 0.0
H592 H 0.58645 0.14039 0.75395 0.0
H593 H 0.58849 0.20159 0.7786 0.0
H594 H 0.55427 0.11707 0.71297 0.0
H595 H 0.56819 0.131 0.68205 0.0
C596 C 0.99634 0.68902 -0.00516 0.0
C597 C 0.0375 0.70451 0.97938 0.0
C598 C 0.11635 0.72693 0.02029 0.0
C599 C 0.07423 0.71432 0.03564 0.0
N600 N 0.98138 0.66907 0.0386 0.0
N601 N 0.13978 0.72506 0.97625 0.0
C602 C 0.01655 0.69016 0.02311 0.0
C603 C 0.09866 0.71919 0.99177 0.0
N604 N 0.93755 0.67573 0.98256 0.0
N605 N 0.17208 0.74956 0.03319 0.0
H606 H 0.12813 0.72245 0.95533 0.0
H607 H 0.18606 0.729 0.98387 0.0
H608 H 0.18715 0.75226 0.05404 0.0
H609 H 0.20249 0.76738 0.02356 0.0
H610 H 0.90389 0.6694 0.99292 0.0
H611 H 0.92128 0.67484 0.96187 0.0
H612 H 0.94032 0.64667 0.03086 0.0
H613 H 0.99641 0.66951 0.05937 0.0
C614 C 0.5946 0.79535 0.25673 0.0
C615 C 0.60676 0.76063 0.23361 0.0
C616 C 0.6112 0.67009 0.25612 0.0
C617 C 0.58957 0.70351 0.2773 0.0
N618 N 0.5526 0.79659 0.2962 0.0
N619 N 0.6261 0.66531 0.21034 0.0
C620 C 0.57978 0.76597 0.27738 0.0
C621 C 0.61568 0.69805 0.23313 0.0
N622 N 0.59672 0.8565 0.25878 0.0
N623 N 0.62777 0.61204 0.2582 0.0
H624 H 0.63171 0.68501 0.19362 0.0
H625 H 0.62634 0.61871 0.20749 0.0
H626 H 0.62466 0.59078 0.27485 0.0
H627 H 0.64889 0.58661 0.24461 0.0
H628 H 0.59439 0.88418 0.27637 0.0
H629 H 0.6067 0.87955 0.24376 0.0
H630 H 0.53817 0.84054 0.29543 0.0
H631 H 0.53954 0.77658 0.31137 0.0
C632 C 0.59357 0.1506 0.4782 0.0
C633 C 0.53211 0.13258 0.46869 0.0
C634 C 0.5224 0.12521 0.51484 0.0
C635 C 0.57938 0.15371 0.52423 0.0
N636 N 0.67247 0.18914 0.51642 0.0
N637 N 0.43777 0.1004 0.47719 0.0
C638 C 0.61651 0.16378 0.50632 0.0
C639 C 0.49666 0.11806 0.48678 0.0
N640 N 0.62979 0.15483 0.46034 0.0
N641 N 0.49294 0.10636 0.53302 0.0
H642 H 0.41762 0.09477 0.45672 0.0
H643 H 0.40772 0.09458 0.48942 0.0
H644 H 0.51192 0.11142 0.55363 0.0
H645 H 0.45291 0.08141 0.52773 0.0
H646 H 0.67622 0.16179 0.46597 0.0
H647 H 0.61406 0.14764 0.43955 0.0
H648 H 0.69952 0.20513 0.50472 0.0
H649 H 0.69116 0.1957 0.53706 0.0
C650 C 0.15663 0.24542 0.73743 0.0
C651 C 0.13818 0.3042 0.73228 0.0
C652 C 0.11765 0.32596 0.77725 0.0
C653 C 0.13285 0.26612 0.78184 0.0
N654 N 0.18393 0.1759 0.77064 0.0
N655 N 0.12072 0.40536 0.74944 0.0
C656 C 0.15859 0.22833 0.76337 0.0
C657 C 0.12598 0.34633 0.75316 0.0
N658 N 0.1678 0.20469 0.71708 0.0
N659 N 0.09079 0.36165 0.79475 0.0
H660 H 0.12646 0.42062 0.73169 0.0
H661 H 0.11671 0.43934 0.76466 0.0
H662 H 0.08403 0.34877 0.81275 0.0
H663 H 0.07203 0.40284 0.79074 0.0
H664 H 0.17387 0.15928 0.71874 0.0
H665 H 0.168 0.21562 0.69792 0.0
H666 H 0.20805 0.14841 0.75897 0.0
H667 H 0.18565 0.16305 0.78969 0.0
loop_
_geom_bond_atom_site_label_1
_geom_bond_atom_site_label_2
_geom_bond_distance
_geom_bond_site_symmetry_2
_ccdc_geom_bond_type
H0 C1 0.949 . S
C1 H0 0.949 . S
C1 C2 1.395 . S
C1 C3 1.391 . S
C2 C1 1.395 . S
C2 C5 1.390 . S
C3 C1 1.391 . S
C3 C7 1.387 . S
C3 C8 1.491 . S
H4 C5 0.950 . S
C5 C2 1.390 . S
C5 H4 0.950 . S
C5 C6 1.378 . S
C6 C5 1.378 . S
C6 C7 1.409 . S
C7 C3 1.387 . S
C7 C6 1.409 . S
C7 H9 0.951 . S
C8 C3 1.491 . S
C8 C10 1.382 . S
C8 C12 1.404 . S
H9 C7 0.951 . S
C10 C8 1.382 . S
C10 C11 1.390 . S
C10 H15 0.949 . S
C11 C10 1.390 . S
C11 C16 1.399 . S
C12 C8 1.404 . S
C12 H13 0.950 . S
C12 C14 1.375 . S
H13 C12 0.950 . S
C14 C12 1.375 . S
C14 C16 1.382 . S
C14 H18 0.950 . S
H15 C10 0.949 . S
C16 C11 1.399 . S
C16 C14 1.382 . S
C16 H17 0.952 . S
H17 C16 0.952 . S
H18 C14 0.950 . S
H19 C20 0.949 . S
C20 H19 0.949 . S
C20 C21 1.395 . S
C20 C22 1.391 . S
C21 C20 1.395 . S
C21 C24 1.390 . S
C22 C20 1.391 . S
C22 C26 1.387 . S
C22 C27 1.491 . S
H23 C24 0.950 . S
C24 C21 1.390 . S
C24 H23 0.950 . S
C24 C25 1.378 . S
C25 C24 1.378 . S
C25 C26 1.409 . S
C26 C22 1.387 . S
C26 C25 1.409 . S
C26 H28 0.951 . S
C27 C22 1.491 . S
C27 C29 1.382 1_455 S
C27 C31 1.404 . S
H28 C26 0.951 . S
C29 C27 1.382 1_655 S
C29 C30 1.390 . S
C29 H34 0.949 . S
C30 C29 1.390 . S
C30 C35 1.399 . S
C31 C27 1.404 . S
C31 H32 0.950 . S
C31 C33 1.375 . S
H32 C31 0.950 . S
C33 C31 1.375 . S
C33 C35 1.382 1_455 S
C33 H37 0.950 . S
H34 C29 0.949 . S
C35 C30 1.399 . S
C35 C33 1.382 1_655 S
C35 H36 0.952 . S
H36 C35 0.952 . S
H37 C33 0.950 . S
H38 C39 0.949 . S
C39 H38 0.949 . S
C39 C40 1.395 . S
C39 C41 1.391 . S
C40 C39 1.395 . S
C40 C43 1.390 . S
C41 C39 1.391 . S
C41 C45 1.387 . S
C41 C46 1.491 . S
H42 C43 0.950 . S
C43 C40 1.390 . S
C43 H42 0.950 . S
C43 C44 1.378 . S
C44 C43 1.378 . S
C44 C45 1.409 . S
C45 C41 1.387 . S
C45 C44 1.409 . S
C45 H47 0.951 . S
C46 C41 1.491 . S
C46 C48 1.382 . S
C46 C50 1.404 . S
H47 C45 0.951 . S
C48 C46 1.382 . S
C48 C49 1.390 . S
C48 H53 0.949 . S
C49 C48 1.390 . S
C49 C54 1.399 . S
C50 C46 1.404 . S
C50 H51 0.950 . S
C50 C52 1.375 . S
H51 C50 0.950 . S
C52 C50 1.375 . S
C52 C54 1.382 . S
C52 H56 0.950 . S
H53 C48 0.949 . S
C54 C49 1.399 . S
C54 C52 1.382 . S
C54 H55 0.952 . S
H55 C54 0.952 . S
H56 C52 0.950 . S
H57 C58 0.949 . S
C58 H57 0.949 . S
C58 C59 1.395 . S
C58 C60 1.391 . S
C59 C58 1.395 . S
C59 C62 1.390 . S
C60 C58 1.391 . S
C60 C64 1.387 . S
C60 C65 1.491 . S
H61 C62 0.950 . S
C62 C59 1.390 . S
C62 H61 0.950 . S
C62 C63 1.378 . S
C63 C62 1.378 . S
C63 C64 1.409 . S
C64 C60 1.387 . S
C64 C63 1.409 . S
C64 H66 0.951 . S
C65 C60 1.491 . S
C65 C67 1.382 . S
C65 C69 1.404 . S
H66 C64 0.951 . S
C67 C65 1.382 . S
C67 C68 1.390 . S
C67 H72 0.949 . S
C68 C67 1.390 . S
C68 C73 1.399 . S
C69 C65 1.404 . S
C69 H70 0.950 . S
C69 C71 1.375 . S
H70 C69 0.950 . S
C71 C69 1.375 . S
C71 C73 1.382 . S
C71 H75 0.950 . S
H72 C67 0.949 . S
C73 C68 1.399 . S
C73 C71 1.382 . S
C73 H74 0.952 . S
H74 C73 0.952 . S
H75 C71 0.950 . S
H76 C77 0.949 . S
C77 H76 0.949 . S
C77 C78 1.395 . S
C77 C79 1.391 1_455 S
C78 C77 1.395 . S
C78 C81 1.390 . S
C79 C77 1.391 1_655 S
C79 C83 1.387 1_655 S
C79 C84 1.491 . S
H80 C81 0.950 . S
C81 C78 1.390 . S
C81 H80 0.950 . S
C81 C82 1.378 . S
C82 C81 1.378 . S
C82 C83 1.409 . S
C83 C79 1.387 1_455 S
C83 C82 1.409 . S
C83 H85 0.951 1_455 S
C84 C79 1.491 . S
C84 C86 1.382 1_655 S
C84 C88 1.404 . S
H85 C83 0.951 1_655 S
C86 C84 1.382 1_455 S
C86 C87 1.390 1_455 S
C86 H91 0.949 . S
C87 C86 1.390 1_655 S
C87 C92 1.399 . S
C88 C84 1.404 . S
C88 H89 0.950 . S
C88 C90 1.375 . S
H89 C88 0.950 . S
C90 C88 1.375 . S
C90 C92 1.382 . S
C90 H94 0.950 . S
H91 C86 0.949 . S
C92 C87 1.399 . S
C92 C90 1.382 . S
C92 H93 0.952 . S
H93 C92 0.952 . S
H94 C90 0.950 . S
H95 C96 0.949 . S
C96 H95 0.949 . S
C96 C97 1.395 . S
C96 C98 1.391 . S
C97 C96 1.395 . S
C97 C100 1.390 . S
C98 C96 1.391 . S
C98 C102 1.387 . S
C98 C103 1.491 . S
H99 C100 0.950 . S
C100 C97 1.390 . S
C100 H99 0.950 . S
C100 C101 1.378 . S
C101 C100 1.378 . S
C101 C102 1.409 . S
C102 C98 1.387 . S
C102 C101 1.409 . S
C102 H104 0.951 . S
C103 C98 1.491 . S
C103 C105 1.382 . S
C103 C107 1.404 . S
H104 C102 0.951 . S
C105 C103 1.382 . S
C105 C106 1.390 . S
C105 H110 0.949 . S
C106 C105 1.390 . S
C106 C111 1.399 . S
C107 C103 1.404 . S
C107 H108 0.950 . S
C107 C109 1.375 . S
H108 C107 0.950 . S
C109 C107 1.375 . S
C109 C111 1.382 . S
C109 H113 0.950 . S
H110 C105 0.949 . S
C111 C106 1.399 . S
C111 C109 1.382 . S
C111 H112 0.952 . S
H112 C111 0.952 . S
H113 C109 0.950 . S
H114 C115 0.949 . S
C115 H114 0.949 . S
C115 C116 1.395 . S
C115 C117 1.391 . S
C116 C115 1.395 . S
C116 C119 1.390 . S
C117 C115 1.391 . S
C117 C121 1.387 . S
C117 C122 1.491 . S
H118 C119 0.950 . S
C119 C116 1.390 . S
C119 H118 0.950 . S
C119 C120 1.378 . S
C120 C119 1.378 . S
C120 C121 1.409 . S
C121 C117 1.387 . S
C121 C120 1.409 . S
C121 H123 0.951 . S
C122 C117 1.491 . S
C122 C124 1.382 . S
C122 C126 1.404 . S
H123 C121 0.951 . S
C124 C122 1.382 . S
C124 C125 1.390 . S
C124 H129 0.949 . S
C125 C124 1.390 . S
C125 C130 1.399 . S
C126 C122 1.404 . S
C126 H127 0.950 . S
C126 C128 1.375 . S
H127 C126 0.950 . S
C128 C126 1.375 . S
C128 C130 1.382 . S
C128 H132 0.950 . S
H129 C124 0.949 . S
C130 C125 1.399 . S
C130 C128 1.382 . S
C130 H131 0.952 . S
H131 C130 0.952 . S
H132 C128 0.950 . S
H133 C134 0.949 . S
C134 H133 0.949 . S
C134 C135 1.395 . S
C134 C136 1.391 . S
C135 C134 1.395 . S
C135 C138 1.390 . S
C136 C134 1.391 . S
C136 C140 1.387 . S
C136 C141 1.491 . S
H137 C138 0.950 . S
C138 C135 1.390 . S
C138 H137 0.950 . S
C138 C139 1.378 . S
C139 C138 1.378 . S
C139 C140 1.409 . S
C140 C136 1.387 . S
C140 C139 1.409 . S
C140 H142 0.951 . S
C141 C136 1.491 . S
C141 C143 1.382 . S
C141 C145 1.404 . S
H142 C140 0.951 . S
C143 C141 1.382 . S
C143 C144 1.390 . S
C143 H148 0.949 . S
C144 C143 1.390 . S
C144 C149 1.399 . S
C145 C141 1.404 . S
C145 H146 0.950 . S
C145 C147 1.375 . S
H146 C145 0.950 . S
C147 C145 1.375 . S
C147 C149 1.382 . S
C147 H151 0.950 . S
H148 C143 0.949 . S
C149 C144 1.399 . S
C149 C147 1.382 . S
C149 H150 0.952 . S
H150 C149 0.952 . S
H151 C147 0.950 . S
Zn152 O158 1.920 . S
Zn152 O164 1.898 . S
Zn152 O167 1.905 . S
Zn153 O161 1.905 . S
Zn153 O162 1.898 . S
Zn153 O170 1.920 1_455 S
Zn154 O157 2.080 . S
Zn154 O160 2.114 . S
Zn154 O163 2.120 . S
Zn154 O165 2.120 . S
Zn154 O166 2.114 . S
Zn154 O169 2.080 . S
C155 O160 1.166 . S
C155 O161 1.182 . S
C156 O162 1.167 . S
C156 O163 1.299 . S
O157 Zn154 2.080 . S
O157 C171 1.305 . S
O158 Zn152 1.920 . S
O158 C171 1.234 . S
C159 O164 1.167 . S
C159 O165 1.299 . S
O160 Zn154 2.114 . S
O160 C155 1.166 . S
O161 Zn153 1.905 . S
O161 C155 1.182 . S
O162 Zn153 1.898 . S
O162 C156 1.167 . S
O163 Zn154 2.120 . S
O163 C156 1.299 . S
O164 Zn152 1.898 . S
O164 C159 1.167 . S
O165 Zn154 2.120 . S
O165 C159 1.299 . S
O166 Zn154 2.114 . S
O166 C168 1.166 . S
O167 Zn152 1.905 . S
O167 C168 1.182 . S
C168 O166 1.166 . S
C168 O167 1.182 . S
O169 Zn154 2.080 . S
O169 C172 1.305 . S
O170 Zn153 1.920 1_655 S
O170 C172 1.234 1_655 S
C171 O157 1.305 . S
C171 O158 1.234 . S
C172 O169 1.305 . S
C172 O170 1.234 1_455 S
Zn173 O179 1.920 . S
Zn173 O185 1.898 . S
Zn173 O188 1.905 . S
Zn174 O182 1.905 . S
Zn174 O183 1.898 . S
Zn174 O191 1.920 . S
Zn175 O178 2.080 . S
Zn175 O181 2.114 . S
Zn175 O184 2.120 . S
Zn175 O186 2.120 . S
Zn175 O187 2.114 . S
Zn175 O190 2.080 . S
C176 O181 1.166 . S
C176 O182 1.182 . S
C177 O183 1.167 . S
C177 O184 1.299 . S
O178 Zn175 2.080 . S
O178 C192 1.305 . S
O179 Zn173 1.920 . S
O179 C192 1.234 . S
C180 O185 1.167 . S
C180 O186 1.299 . S
O181 Zn175 2.114 . S
O181 C176 1.166 . S
O182 Zn174 1.905 . S
O182 C176 1.182 . S
O183 Zn174 1.898 . S
O183 C177 1.167 . S
O184 Zn175 2.120 . S
O184 C177 1.299 . S
O185 Zn173 1.898 . S
O185 C180 1.167 . S
O186 Zn175 2.120 . S
O186 C180 1.299 . S
O187 Zn175 2.114 . S
O187 C189 1.166 . S
O188 Zn173 1.905 . S
O188 C189 1.182 . S
C189 O187 1.166 . S
C189 O188 1.182 . S
O190 Zn175 2.080 . S
O190 C193 1.305 . S
O191 Zn174 1.920 . S
O191 C193 1.234 . S
C192 O178 1.305 . S
C192 O179 1.234 . S
C193 O190 1.305 . S
C193 O191 1.234 . S
Zn194 O200 1.920 . S
Zn194 O206 1.898 . S
Zn194 O209 1.905 . S
Zn195 O203 1.905 . S
Zn195 O204 1.898 . S
Zn195 O212 1.920 . S
Zn196 O199 2.080 . S
Zn196 O202 2.114 . S
Zn196 O205 2.120 . S
Zn196 O207 2.120 . S
Zn196 O208 2.114 . S
Zn196 O211 2.080 . S
C197 O202 1.166 . S
C197 O203 1.182 . S
C198 O204 1.167 . S
C198 O205 1.299 . S
O199 Zn196 2.080 . S
O199 C213 1.305 . S
O200 Zn194 1.920 . S
O200 C213 1.234 . S
C201 O206 1.167 . S
C201 O207 1.299 . S
O202 Zn196 2.114 . S
O202 C197 1.166 . S
O203 Zn195 1.905 . S
O203 C197 1.182 . S
O204 Zn195 1.898 . S
O204 C198 1.167 . S
O205 Zn196 2.120 . S
O205 C198 1.299 . S
O206 Zn194 1.898 . S
O206 C201 1.167 . S
O207 Zn196 2.120 . S
O207 C201 1.299 . S
O208 Zn196 2.114 . S
O208 C210 1.166 . S
O209 Zn194 1.905 . S
O209 C210 1.182 . S
C210 O208 1.166 . S
C210 O209 1.182 . S
O211 Zn196 2.080 . S
O211 C214 1.305 . S
O212 Zn195 1.920 . S
O212 C214 1.234 . S
C213 O199 1.305 . S
C213 O200 1.234 . S
C214 O211 1.305 . S
C214 O212 1.234 . S
Zn215 O221 1.920 1_655 S
Zn215 O227 1.898 . S
Zn215 O230 1.905 . S
Zn216 O224 1.905 . S
Zn216 O225 1.898 . S
Zn216 O233 1.920 . S
Zn217 O220 2.080 . S
Zn217 O223 2.114 . S
Zn217 O226 2.120 . S
Zn217 O228 2.120 . S
Zn217 O229 2.114 1_455 S
Zn217 O232 2.080 . S
C218 O223 1.166 . S
C218 O224 1.182 . S
C219 O225 1.167 . S
C219 O226 1.299 . S
O220 Zn217 2.080 . S
O220 C234 1.305 . S
O221 Zn215 1.920 1_455 S
O221 C234 1.234 . S
C222 O227 1.167 1_455 S
C222 O228 1.299 . S
O223 Zn217 2.114 . S
O223 C218 1.166 . S
O224 Zn216 1.905 . S
O224 C218 1.182 . S
O225 Zn216 1.898 . S
O225 C219 1.167 . S
O226 Zn217 2.120 . S
O226 C219 1.299 . S
O227 Zn215 1.898 . S
O227 C222 1.167 1_655 S
O228 Zn217 2.120 . S
O228 C222 1.299 . S
O229 Zn217 2.114 1_655 S
O229 C231 1.166 . S
O230 Zn215 1.905 . S
O230 C231 1.182 . S
C231 O229 1.166 . S
C231 O230 1.182 . S
O232 Zn217 2.080 . S
O232 C235 1.305 . S
O233 Zn216 1.920 . S
O233 C235 1.234 . S
C234 O220 1.305 . S
C234 O221 1.234 . S
C235 O232 1.305 . S
C235 O233 1.234 . S
C236 C237 1.363 . S
C236 C242 1.379 . S
C236 N244 1.356 . S
C237 C236 1.363 . S
C237 C243 1.363 . S
C238 C239 1.363 . S
C238 C243 1.379 . S
C238 N245 1.356 . S
C239 C238 1.363 . S
C239 C242 1.363 . S
N240 C242 1.356 . S
N240 H252 0.984 . S
N240 H253 0.985 . S
N241 C243 1.356 . S
N241 H246 0.984 . S
N241 H247 0.985 . S
C242 C236 1.379 . S
C242 C239 1.363 . S
C242 N240 1.356 . S
C243 C237 1.363 . S
C243 C238 1.379 . S
C243 N241 1.356 . S
N244 C236 1.356 . S
N244 H250 0.984 . S
N244 H251 0.984 . S
N245 C238 1.356 . S
N245 H248 0.984 . S
N245 H249 0.985 . S
H246 N241 0.984 . S
H247 N241 0.985 . S
H248 N245 0.984 . S
H249 N245 0.985 . S
H250 N244 0.984 . S
H251 N244 0.984 . S
H252 N240 0.984 . S
H253 N240 0.985 . S
C254 C255 1.363 . S
C254 C260 1.379 . S
C254 N262 1.356 . S
C255 C254 1.363 . S
C255 C261 1.363 . S
C256 C257 1.363 . S
C256 C261 1.379 . S
C256 N263 1.356 . S
C257 C256 1.363 . S
C257 C260 1.363 . S
N258 C260 1.356 . S
N258 H270 0.984 . S
N258 H271 0.985 . S
N259 C261 1.356 . S
N259 H264 0.984 . S
N259 H265 0.985 . S
C260 C254 1.379 . S
C260 C257 1.363 . S
C260 N258 1.356 . S
C261 C255 1.363 . S
C261 C256 1.379 . S
C261 N259 1.356 . S
N262 C254 1.356 . S
N262 H268 0.984 . S
N262 H269 0.984 . S
N263 C256 1.356 . S
N263 H266 0.984 . S
N263 H267 0.985 . S
H264 N259 0.984 . S
H265 N259 0.985 . S
H266 N263 0.984 . S
H267 N263 0.985 . S
H268 N262 0.984 . S
H269 N262 0.984 . S
H270 N258 0.984 . S
H271 N258 0.985 . S
C272 C273 1.363 . S
C272 C278 1.379 . S
C272 N280 1.356 . S
C273 C272 1.363 . S
C273 C279 1.363 . S
C274 C275 1.363 . S
C274 C279 1.379 . S
C274 N281 1.356 . S
C275 C274 1.363 . S
C275 C278 1.363 . S
N276 C278 1.356 . S
N276 H288 0.984 . S
N276 H289 0.985 . S
N277 C279 1.356 . S
N277 H282 0.984 . S
N277 H283 0.985 . S
C278 C272 1.379 . S
C278 C275 1.363 . S
C278 N276 1.356 . S
C279 C273 1.363 . S
C279 C274 1.379 . S
C279 N277 1.356 . S
N280 C272 1.356 . S
N280 H286 0.984 . S
N280 H287 0.984 . S
N281 C274 1.356 . S
N281 H284 0.984 . S
N281 H285 0.985 . S
H282 N277 0.984 . S
H283 N277 0.985 . S
H284 N281 0.984 . S
H285 N281 0.985 . S
H286 N280 0.984 . S
H287 N280 0.984 . S
H288 N276 0.984 . S
H289 N276 0.985 . S
C290 C291 1.363 . S
C290 C296 1.379 . S
C290 N298 1.356 . S
C291 C290 1.363 . S
C291 C297 1.363 . S
C292 C293 1.363 . S
C292 C297 1.379 . S
C292 N299 1.356 . S
C293 C292 1.363 . S
C293 C296 1.363 . S
N294 C296 1.356 . S
N294 H306 0.984 . S
N294 H307 0.985 . S
N295 C297 1.356 . S
N295 H300 0.984 . S
N295 H301 0.985 . S
C296 C290 1.379 . S
C296 C293 1.363 . S
C296 N294 1.356 . S
C297 C291 1.363 . S
C297 C292 1.379 . S
C297 N295 1.356 . S
N298 C290 1.356 . S
N298 H304 0.984 . S
N298 H305 0.984 . S
N299 C292 1.356 . S
N299 H302 0.984 . S
N299 H303 0.985 . S
H300 N295 0.984 . S
H301 N295 0.985 . S
H302 N299 0.984 . S
H303 N299 0.985 . S
H304 N298 0.984 . S
H305 N298 0.984 . S
H306 N294 0.984 . S
H307 N294 0.985 . S
C308 C309 1.363 . S
C308 C314 1.379 . S
C308 N316 1.356 . S
C309 C308 1.363 . S
C309 C315 1.363 1_455 S
C310 C311 1.363 . S
C310 C315 1.379 1_455 S
C310 N317 1.356 1_455 S
C311 C310 1.363 . S
C311 C314 1.363 . S
N312 C314 1.356 . S
N312 H324 0.984 . S
N312 H325 0.985 . S
N313 C315 1.356 . S
N313 H318 0.984 . S
N313 H319 0.985 . S
C314 C308 1.379 . S
C314 C311 1.363 . S
C314 N312 1.356 . S
C315 C309 1.363 1_655 S
C315 C310 1.379 1_655 S
C315 N313 1.356 . S
N316 C308 1.356 . S
N316 H322 0.984 . S
N316 H323 0.984 . S
N317 C310 1.356 1_655 S
N317 H320 0.984 1_655 S
N317 H321 0.985 . S
H318 N313 0.984 . S
H319 N313 0.985 . S
H320 N317 0.984 1_455 S
H321 N317 0.985 . S
H322 N316 0.984 . S
H323 N316 0.984 . S
H324 N312 0.984 . S
H325 N312 0.985 . S
C326 C327 1.363 . S
C326 C332 1.379 . S
C326 N334 1.356 . S
C327 C326 1.363 . S
C327 C333 1.363 . S
C328 C329 1.363 . S
C328 C333 1.379 . S
C328 N335 1.356 . S
C329 C328 1.363 . S
C329 C332 1.363 . S
N330 C332 1.356 . S
N330 H342 0.984 . S
N330 H343 0.985 1_655 S
N331 C333 1.356 . S
N331 H336 0.984 . S
N331 H337 0.985 . S
C332 C326 1.379 . S
C332 C329 1.363 . S
C332 N330 1.356 . S
C333 C327 1.363 . S
C333 C328 1.379 . S
C333 N331 1.356 . S
N334 C326 1.356 . S
N334 H340 0.984 . S
N334 H341 0.984 . S
N335 C328 1.356 . S
N335 H338 0.971 1_655 S
N335 H339 0.985 . S
H336 N331 0.984 . S
H337 N331 0.985 . S
H338 N335 0.971 1_455 S
H339 N335 0.985 . S
H340 N334 0.984 . S
H341 N334 0.984 . S
H342 N330 0.984 . S
H343 N330 0.985 1_455 S
C344 C345 1.363 . S
C344 C350 1.379 . S
C344 N352 1.356 . S
C345 C344 1.363 . S
C345 C351 1.363 . S
C346 C347 1.363 . S
C346 C351 1.379 . S
C346 N353 1.356 . S
C347 C346 1.363 . S
C347 C350 1.363 . S
N348 C350 1.356 . S
N348 H360 0.984 . S
N348 H361 0.985 . S
N349 C351 1.356 . S
N349 H354 0.984 . S
N349 H355 0.985 . S
C350 C344 1.379 . S
C350 C347 1.363 . S
C350 N348 1.356 . S
C351 C345 1.363 . S
C351 C346 1.379 . S
C351 N349 1.356 . S
N352 C344 1.356 . S
N352 H358 0.984 . S
N352 H359 0.984 . S
N353 C346 1.356 . S
N353 H356 0.984 . S
N353 H357 0.985 . S
H354 N349 0.984 . S
H355 N349 0.985 . S
H356 N353 0.984 . S
H357 N353 0.985 . S
H358 N352 0.984 . S
H359 N352 0.984 . S
H360 N348 0.984 . S
H361 N348 0.985 . S
C362 C363 1.363 . S
C362 C368 1.379 . S
C362 N370 1.356 . S
C363 C362 1.363 . S
C363 C369 1.363 . S
C364 C365 1.363 . S
C364 C369 1.379 . S
C364 N371 1.356 . S
C365 C364 1.363 . S
C365 C368 1.363 . S
N366 C368 1.356 . S
N366 H378 0.984 . S
N366 H379 0.985 . S
N367 C369 1.356 . S
N367 H372 0.984 1_655 S
N367 H373 0.985 . S
C368 C362 1.379 . S
C368 C365 1.363 . S
C368 N366 1.356 . S
C369 C363 1.363 . S
C369 C364 1.379 . S
C369 N367 1.356 . S
N370 C362 1.356 . S
N370 H376 0.984 . S
N370 H377 0.984 1_655 S
N371 C364 1.356 . S
N371 H374 0.984 . S
N371 H375 0.985 . S
H372 N367 0.984 1_455 S
H373 N367 0.985 . S
H374 N371 0.984 . S
H375 N371 0.985 . S
H376 N370 0.984 . S
H377 N370 0.984 1_455 S
H378 N366 0.984 . S
H379 N366 0.985 . S
C380 C381 1.363 . S
C380 C386 1.379 . S
C380 N388 1.356 . S
C381 C380 1.363 . S
C381 C387 1.363 . S
C382 C383 1.363 . S
C382 C387 1.379 . S
C382 N389 1.356 . S
C383 C382 1.363 . S
C383 C386 1.363 . S
N384 C386 1.356 . S
N384 H396 0.984 . S
N384 H397 0.985 . S
N385 C387 1.356 . S
N385 H390 0.984 . S
N385 H391 0.985 . S
C386 C380 1.379 . S
C386 C383 1.363 . S
C386 N384 1.356 . S
C387 C381 1.363 . S
C387 C382 1.379 . S
C387 N385 1.356 . S
N388 C380 1.356 . S
N388 H394 0.984 . S
N388 H395 0.984 . S
N389 C382 1.356 . S
N389 H392 0.984 . S
N389 H393 0.985 . S
H390 N385 0.984 . S
H391 N385 0.985 . S
H392 N389 0.984 . S
H393 N389 0.985 . S
H394 N388 0.984 . S
H395 N388 0.984 . S
H396 N384 0.984 . S
H397 N384 0.985 . S
C398 C399 1.363 . S
C398 C404 1.379 . S
C398 N406 1.356 . S
C399 C398 1.363 . S
C399 C405 1.363 . S
C400 C401 1.363 . S
C400 C405 1.379 . S
C400 N407 1.356 . S
C401 C400 1.363 . S
C401 C404 1.363 . S
N402 C404 1.356 . S
N402 H414 0.984 . S
N402 H415 0.985 . S
N403 C405 1.356 . S
N403 H408 0.984 . S
N403 H409 0.985 . S
C404 C398 1.379 . S
C404 C401 1.363 . S
C404 N402 1.356 . S
C405 C399 1.363 . S
C405 C400 1.379 . S
C405 N403 1.356 . S
N406 C398 1.356 . S
N406 H412 0.984 . S
N406 H413 0.984 . S
N407 C400 1.356 . S
N407 H410 0.984 . S
N407 H411 0.985 . S
H408 N403 0.984 . S
H409 N403 0.985 . S
H410 N407 0.984 . S
H411 N407 0.985 . S
H412 N406 0.984 . S
H413 N406 0.984 . S
H414 N402 0.984 . S
H415 N402 0.985 . S
C416 C417 1.363 . S
C416 C422 1.379 . S
C416 N424 1.356 . S
C417 C416 1.363 . S
C417 C423 1.363 . S
C418 C419 1.363 . S
C418 C423 1.379 . S
C418 N425 1.356 . S
C419 C418 1.363 . S
C419 C422 1.363 . S
N420 C422 1.356 . S
N420 H432 0.984 . S
N420 H433 0.985 . S
N421 C423 1.356 . S
N421 H426 0.984 . S
N421 H427 0.985 . S
C422 C416 1.379 . S
C422 C419 1.363 . S
C422 N420 1.356 . S
C423 C417 1.363 . S
C423 C418 1.379 . S
C423 N421 1.356 . S
N424 C416 1.356 . S
N424 H430 0.984 . S
N424 H431 0.984 . S
N425 C418 1.356 . S
N425 H428 0.984 . S
N425 H429 0.985 . S
H426 N421 0.984 . S
H427 N421 0.985 . S
H428 N425 0.984 . S
H429 N425 0.985 . S
H430 N424 0.984 . S
H431 N424 0.984 . S
H432 N420 0.984 . S
H433 N420 0.985 . S
C434 C435 1.363 . S
C434 C440 1.379 . S
C434 N442 1.356 . S
C435 C434 1.363 . S
C435 C441 1.363 . S
C436 C437 1.363 . S
C436 C441 1.379 . S
C436 N443 1.356 . S
C437 C436 1.363 . S
C437 C440 1.363 . S
N438 C440 1.356 . S
N438 H450 0.984 . S
N438 H451 0.985 . S
N439 C441 1.356 . S
N439 H444 0.984 . S
N439 H445 0.985 . S
C440 C434 1.379 . S
C440 C437 1.363 . S
C440 N438 1.356 . S
C441 C435 1.363 . S
C441 C436 1.379 . S
C441 N439 1.356 . S
N442 C434 1.356 . S
N442 H448 0.984 . S
N442 H449 0.984 . S
N443 C436 1.356 . S
N443 H446 0.984 . S
N443 H447 0.985 . S
H444 N439 0.984 . S
H445 N439 0.985 . S
H446 N443 0.984 . S
H447 N443 0.985 . S
H448 N442 0.984 . S
H449 N442 0.984 . S
H450 N438 0.984 . S
H451 N438 0.985 . S
C452 C453 1.363 . S
C452 C458 1.379 . S
C452 N460 1.356 . S
C453 C452 1.363 . S
C453 C459 1.363 . S
C454 C455 1.363 1_565 S
C454 C459 1.379 . S
C454 N461 1.356 1_565 S
C455 C454 1.363 1_545 S
C455 C458 1.363 1_545 S
N456 C458 1.356 1_545 S
N456 H468 0.984 . S
N456 H469 0.985 . S
N457 C459 1.356 . S
N457 H462 0.984 . S
N457 H463 0.985 . S
C458 C452 1.379 . S
C458 C455 1.363 1_565 S
C458 N456 1.356 1_565 S
C459 C453 1.363 . S
C459 C454 1.379 . S
C459 N457 1.356 . S
N460 C452 1.356 . S
N460 H466 0.984 . S
N460 H467 0.984 . S
N461 C454 1.356 1_545 S
N461 H464 0.984 . S
N461 H465 0.985 1_545 S
H462 N457 0.984 . S
H463 N457 0.985 . S
H464 N461 0.984 . S
H465 N461 0.985 1_565 S
H466 N460 0.984 . S
H467 N460 0.984 . S
H468 N456 0.984 . S
H469 N456 0.985 . S
C470 C471 1.363 1_565 S
C470 C476 1.379 . S
C470 N478 1.356 1_565 S
C471 C470 1.363 1_545 S
C471 C477 1.363 1_545 S
C472 C473 1.363 . S
C472 C477 1.379 . S
C472 N479 1.356 . S
C473 C472 1.363 . S
C473 C476 1.363 . S
N474 C476 1.356 . S
N474 H486 0.984 . S
N474 H487 0.985 . S
N475 C477 1.356 1_545 S
N475 H480 0.984 . S
N475 H481 0.985 . S
C476 C470 1.379 . S
C476 C473 1.363 . S
C476 N474 1.356 . S
C477 C471 1.363 1_565 S
C477 C472 1.379 . S
C477 N475 1.356 1_565 S
N478 C470 1.356 1_545 S
N478 H484 0.984 . S
N478 H485 0.984 . S
N479 C472 1.356 . S
N479 H482 0.984 . S
N479 H483 0.985 . S
H480 N475 0.984 . S
H481 N475 0.985 . S
H482 N479 0.984 . S
H483 N479 0.985 . S
H484 N478 0.984 . S
H485 N478 0.984 . S
H486 N474 0.984 . S
H487 N474 0.985 . S
C488 C489 1.363 . S
C488 C494 1.379 1_545 S
C488 N496 1.356 . S
C489 C488 1.363 . S
C489 C495 1.363 . S
C490 C491 1.363 . S
C490 C495 1.379 1_565 S
C490 N497 1.356 . S
C491 C490 1.363 . S
C491 C494 1.363 . S
N492 C494 1.356 . S
N492 H504 0.984 . S
N492 H505 0.985 . S
N493 C495 1.356 . S
N493 H498 0.984 . S
N493 H499 0.985 . S
C494 C488 1.379 1_565 S
C494 C491 1.363 . S
C494 N492 1.356 . S
C495 C489 1.363 . S
C495 C490 1.379 1_545 S
C495 N493 1.356 . S
N496 C488 1.356 . S
N496 H502 0.984 . S
N496 H503 0.984 . S
N497 C490 1.356 . S
N497 H500 0.984 . S
N497 H501 0.985 . S
H498 N493 0.984 . S
H499 N493 0.985 . S
H500 N497 0.984 . S
H501 N497 0.985 . S
H502 N496 0.984 . S
H503 N496 0.984 . S
H504 N492 0.984 . S
H505 N492 0.985 . S
C506 C507 1.363 1_645 S
C506 C512 1.379 1_655 S
C506 N514 1.356 1_545 S
C507 C506 1.363 1_465 S
C507 C513 1.363 . S
C508 C509 1.363 . S
C508 C513 1.379 1_545 S
C508 N515 1.356 . S
C509 C508 1.363 . S
C509 C512 1.363 . S
N510 C512 1.356 1_655 S
N510 H522 0.984 . S
N510 H523 0.985 1_655 S
N511 C513 1.356 . S
N511 H516 0.984 . S
N511 H517 0.985 . S
C512 C506 1.379 1_455 S
C512 C509 1.363 . S
C512 N510 1.356 1_455 S
C513 C507 1.363 . S
C513 C508 1.379 1_565 S
C513 N511 1.356 . S
N514 C506 1.356 1_565 S
N514 H520 0.984 1_565 S
N514 H521 0.984 . S
N515 C508 1.356 . S
N515 H518 0.984 . S
N515 H519 0.985 . S
H516 N511 0.984 . S
H517 N511 0.985 . S
H518 N515 0.984 . S
H519 N515 0.985 . S
H520 N514 0.984 1_545 S
H521 N514 0.984 . S
H522 N510 0.984 . S
H523 N510 0.985 1_455 S
C524 C525 1.391 . S
C524 C530 1.344 1_554 S
C524 N532 1.375 . S
C525 C524 1.391 . S
C525 C531 1.363 . S
C526 C527 1.363 . S
C526 C531 1.379 1_556 S
C526 N533 1.356 . S
C527 C526 1.363 . S
C527 C530 1.363 . S
N528 C530 1.356 . S
N528 H540 0.984 . S
N528 H541 0.985 . S
N529 C531 1.356 . S
N529 H534 0.984 . S
N529 H535 0.985 . S
C530 C524 1.344 1_556 S
C530 C527 1.363 . S
C530 N528 1.356 . S
C531 C525 1.363 . S
C531 C526 1.379 1_554 S
C531 N529 1.356 . S
N532 C524 1.375 . S
N532 H538 0.984 . S
N532 H539 0.984 . S
N533 C526 1.356 . S
N533 H536 0.984 . S
N533 H537 0.985 . S
H534 N529 0.984 . S
H535 N529 0.985 . S
H536 N533 0.984 . S
H537 N533 0.985 . S
H538 N532 0.984 . S
H539 N532 0.984 . S
H540 N528 0.984 . S
H541 N528 0.985 . S
C542 C543 1.363 . S
C542 C548 1.379 . S
C542 N550 1.356 . S
C543 C542 1.363 . S
C543 C549 1.363 . S
C544 C545 1.363 . S
C544 C549 1.379 . S
C544 N551 1.356 . S
C545 C544 1.363 . S
C545 C548 1.363 . S
N546 C548 1.356 . S
N546 H558 0.984 . S
N546 H559 0.985 . S
N547 C549 1.356 . S
N547 H552 0.984 . S
N547 H553 0.985 . S
C548 C542 1.379 . S
C548 C545 1.363 . S
C548 N546 1.356 . S
C549 C543 1.363 . S
C549 C544 1.379 . S
C549 N547 1.356 . S
N550 C542 1.356 . S
N550 H556 0.984 . S
N550 H557 0.984 . S
N551 C544 1.356 . S
N551 H554 0.984 . S
N551 H555 0.985 . S
H552 N547 0.984 . S
H553 N547 0.985 . S
H554 N551 0.984 . S
H555 N551 0.985 . S
H556 N550 0.984 . S
H557 N550 0.984 . S
H558 N546 0.984 . S
H559 N546 0.985 . S
C560 C561 1.363 . S
C560 C566 1.379 . S
C560 N568 1.356 . S
C561 C560 1.363 . S
C561 C567 1.363 . S
C562 C563 1.363 . S
C562 C567 1.379 . S
C562 N569 1.356 . S
C563 C562 1.363 . S
C563 C566 1.363 . S
N564 C566 1.356 . S
N564 H576 0.984 . S
N564 H577 0.985 . S
N565 C567 1.356 . S
N565 H570 0.984 . S
N565 H571 0.985 . S
C566 C560 1.379 . S
C566 C563 1.363 . S
C566 N564 1.356 . S
C567 C561 1.363 . S
C567 C562 1.379 . S
C567 N565 1.356 . S
N568 C560 1.356 . S
N568 H574 0.984 . S
N568 H575 0.984 . S
N569 C562 1.356 . S
N569 H572 0.984 . S
N569 H573 0.985 . S
H570 N565 0.984 . S
H571 N565 0.985 . S
H572 N569 0.984 . S
H573 N569 0.985 . S
H574 N568 0.984 . S
H575 N568 0.984 . S
H576 N564 0.984 . S
H577 N564 0.985 . S
C578 C579 1.363 . S
C578 C584 1.379 . S
C578 N586 1.356 . S
C579 C578 1.363 . S
C579 C585 1.363 . S
C580 C581 1.363 . S
C580 C585 1.379 . S
C580 N587 1.356 . S
C581 C580 1.363 . S
C581 C584 1.363 . S
N582 C584 1.356 . S
N582 H594 0.984 . S
N582 H595 0.985 . S
N583 C585 1.356 . S
N583 H588 0.984 . S
N583 H589 0.985 . S
C584 C578 1.379 . S
C584 C581 1.363 . S
C584 N582 1.356 . S
C585 C579 1.363 . S
C585 C580 1.379 . S
C585 N583 1.356 . S
N586 C578 1.356 . S
N586 H592 0.984 . S
N586 H593 0.984 . S
N587 C580 1.356 . S
N587 H590 0.984 . S
N587 H591 0.985 . S
H588 N583 0.984 . S
H589 N583 0.985 . S
H590 N587 0.984 . S
H591 N587 0.985 . S
H592 N586 0.984 . S
H593 N586 0.984 . S
H594 N582 0.984 . S
H595 N582 0.985 . S
C596 C597 1.363 . S
C596 C602 1.379 1_556 S
C596 N604 1.356 . S
C597 C596 1.363 . S
C597 C603 1.363 1_556 S
C598 C599 1.363 . S
C598 C603 1.379 . S
C598 N605 1.356 . S
C599 C598 1.363 . S
C599 C602 1.363 . S
N600 C602 1.356 . S
N600 H612 0.984 . S
N600 H613 0.985 . S
N601 C603 1.356 1_556 S
N601 H606 0.984 . S
N601 H607 0.985 . S
C602 C596 1.379 1_554 S
C602 C599 1.363 . S
C602 N600 1.356 . S
C603 C597 1.363 1_554 S
C603 C598 1.379 . S
C603 N601 1.356 1_554 S
N604 C596 1.356 . S
N604 H610 0.984 1_455 S
N604 H611 0.984 1_455 S
N605 C598 1.356 . S
N605 H608 0.984 . S
N605 H609 0.985 . S
H606 N601 0.984 . S
H607 N601 0.985 . S
H608 N605 0.984 . S
H609 N605 0.985 . S
H610 N604 0.984 1_655 S
H611 N604 0.984 1_655 S
H612 N600 0.984 . S
H613 N600 0.985 . S
C614 C615 1.363 . S
C614 C620 1.379 . S
C614 N622 1.356 . S
C615 C614 1.363 . S
C615 C621 1.363 . S
C616 C617 1.363 . S
C616 C621 1.379 . S
C616 N623 1.356 . S
C617 C616 1.363 . S
C617 C620 1.363 . S
N618 C620 1.356 . S
N618 H630 0.984 . S
N618 H631 0.985 . S
N619 C621 1.356 . S
N619 H624 0.984 . S
N619 H625 0.985 . S
C620 C614 1.379 . S
C620 C617 1.363 . S
C620 N618 1.356 . S
C621 C615 1.363 . S
C621 C616 1.379 . S
C621 N619 1.356 . S
N622 C614 1.356 . S
N622 H628 0.984 . S
N622 H629 0.984 . S
N623 C616 1.356 . S
N623 H626 0.984 . S
N623 H627 0.985 . S
H624 N619 0.984 . S
H625 N619 0.985 . S
H626 N623 0.984 . S
H627 N623 0.985 . S
H628 N622 0.984 . S
H629 N622 0.984 . S
H630 N618 0.984 . S
H631 N618 0.985 . S
C632 C633 1.363 . S
C632 C638 1.379 . S
C632 N640 1.356 . S
C633 C632 1.363 . S
C633 C639 1.363 . S
C634 C635 1.363 . S
C634 C639 1.379 . S
C634 N641 1.356 . S
C635 C634 1.363 . S
C635 C638 1.363 . S
N636 C638 1.356 . S
N636 H648 0.984 . S
N636 H649 0.985 . S
N637 C639 1.356 . S
N637 H642 0.984 . S
N637 H643 0.985 . S
C638 C632 1.379 . S
C638 C635 1.363 . S
C638 N636 1.356 . S
C639 C633 1.363 . S
C639 C634 1.379 . S
C639 N637 1.356 . S
N640 C632 1.356 . S
N640 H646 0.984 . S
N640 H647 0.984 . S
N641 C634 1.356 . S
N641 H644 0.984 . S
N641 H645 0.985 . S
H642 N637 0.984 . S
H643 N637 0.985 . S
H644 N641 0.984 . S
H645 N641 0.985 . S
H646 N640 0.984 . S
H647 N640 0.984 . S
H648 N636 0.984 . S
H649 N636 0.985 . S
C650 C651 1.363 . S
C650 C656 1.379 . S
C650 N658 1.356 . S
C651 C650 1.363 . S
C651 C657 1.363 . S
C652 C653 1.363 . S
C652 C657 1.379 . S
C652 N659 1.356 . S
C653 C652 1.363 . S
C653 C656 1.363 . S
N654 C656 1.356 . S
N654 H666 0.984 1_455 S
N654 H667 0.985 . S
N655 C657 1.356 . S
N655 H660 0.984 . S
N655 H661 0.985 . S
C656 C650 1.379 . S
C656 C653 1.363 . S
C656 N654 1.356 . S
C657 C651 1.363 . S
C657 C652 1.379 . S
C657 N655 1.356 . S
N658 C650 1.356 . S
N658 H664 0.984 . S
N658 H665 0.984 . S
N659 C652 1.356 . S
N659 H662 0.984 . S
N659 H663 0.985 . S
H660 N655 0.984 . S
H661 N655 0.985 . S
H662 N659 0.984 . S
H663 N659 0.985 . S
H664 N658 0.984 . S
H665 N658 0.984 . S
H666 N654 0.984 1_655 S
H667 N654 0.985 . S
C239 C159 1.406 . S
C237 C6 1.554 . S
C257 C177 1.392 . S
C255 C30 1.442 . S
C273 C49 1.376 . S
C275 C201 1.365 . S
C293 C231 1.304 . S
C291 C63 1.446 . S
C311 C219 1.310 . S
C309 C82 1.393 . S
C327 C106 1.455 . S
C329 C172 1.413 1_655 S
C345 C125 1.619 . S
C347 C192 1.493 . S
C363 C139 1.449 1_655 S
C365 C197 1.333 . S
C381 C144 1.450 . S
C383 C213 1.405 . S
C399 C101 1.451 . S
C401 C168 1.330 . S
C419 C235 1.412 . S
C417 C68 1.448 . S
C437 C180 1.295 . S
C435 C25 1.441 . S
C453 C44 1.550 . S
C455 C198 1.401 . S
C471 C11 1.381 . S
C473 C156 1.371 . S
C491 C176 1.310 . S
C489 C120 1.390 . S
C509 C222 1.482 . S
C507 C87 1.620 1_455 S
C527 C218 1.419 . S
C525 C2 1.558 . S
C545 C171 1.572 . S
C543 C21 1.587 . S
C561 C40 1.542 . S
C563 C193 1.396 . S
C579 C59 1.598 . S
C581 C214 1.580 . S
C599 C155 1.362 . S
C597 C78 1.638 . S
C615 C97 1.543 . S
C617 C189 1.509 . S
C635 C210 1.374 . S
C633 C116 1.651 . S
C653 C234 1.485 . S
C651 C135 1.521 . S
