# Generated by pormake.
# Topology dag, (6,3)-cn, num edge types: 1
# Building blocks:
#     Node 0, Type 0, BuildingBlock: MIDCAF_clean_sbu_0, # of connection points: 6
#     Node 1, Type 0, BuildingBlock: MIDCAF_clean_sbu_0, # of connection points: 6
#     Node 2, Type 0, BuildingBlock: MIDCAF_clean_sbu_0, # of connection points: 6
#     Node 3, Type 0, BuildingBlock: MIDCAF_clean_sbu_0, # of connection points: 6
#     Node 4, Type 1, BuildingBlock: ESEHIV_clean_linker_0, # of connection points: 3
#     Node 5, Type 1, BuildingBlock: ESEHIV_clean_linker_0, # of connection points: 3
#     Node 6, Type 1, BuildingBlock: ESEHIV_clean_linker_0, # of connection points: 3
#     Node 7, Type 1, BuildingBlock: ESEHIV_clean_linker_0, # of connection points: 3
#     Node 8, Type 1, BuildingBlock: ESEHIV_clean_linker_0, # of connection points: 3
#     Node 9, Type 1, BuildingBlock: ESEHIV_clean_linker_0, # of connection points: 3
#     Node 10, Type 1, BuildingBlock: ESEHIV_clean_linker_0, # of connection points: 3
#     Node 11, Type 1, BuildingBlock: ESEHIV_clean_linker_0, # of connection points: 3
#     Edge 12, Type (0, 1), BuildingBlock: TEMPAE_clean_linker_10, # of connection points: 2
#     Edge 13, Type (0, 1), BuildingBlock: TEMPAE_clean_linker_10, # of connection points: 2
#     Edge 14, Type (0, 1), BuildingBlock: TEMPAE_clean_linker_10, # of connection points: 2
#     Edge 15, Type (0, 1), BuildingBlock: TEMPAE_clean_linker_10, # of connection points: 2
#     Edge 16, Type (0, 1), BuildingBlock: TEMPAE_clean_linker_10, # of connection points: 2
#     Edge 17, Type (0, 1), BuildingBlock: TEMPAE_clean_linker_10, # of connection points: 2
#     Edge 18, Type (0, 1), BuildingBlock: TEMPAE_clean_linker_10, # of connection points: 2
#     Edge 19, Type (0, 1), BuildingBlock: TEMPAE_clean_linker_10, # of connection points: 2
#     Edge 20, Type (0, 1), BuildingBlock: TEMPAE_clean_linker_10, # of connection points: 2
#     Edge 21, Type (0, 1), BuildingBlock: TEMPAE_clean_linker_10, # of connection points: 2
#     Edge 22, Type (0, 1), BuildingBlock: TEMPAE_clean_linker_10, # of connection points: 2
#     Edge 23, Type (0, 1), BuildingBlock: TEMPAE_clean_linker_10, # of connection points: 2
#     Edge 24, Type (0, 1), BuildingBlock: TEMPAE_clean_linker_10, # of connection points: 2
#     Edge 25, Type (0, 1), BuildingBlock: TEMPAE_clean_linker_10, # of connection points: 2
#     Edge 26, Type (0, 1), BuildingBlock: TEMPAE_clean_linker_10, # of connection points: 2
#     Edge 27, Type (0, 1), BuildingBlock: TEMPAE_clean_linker_10, # of connection points: 2
#     Edge 28, Type (0, 1), BuildingBlock: TEMPAE_clean_linker_10, # of connection points: 2
#     Edge 29, Type (0, 1), BuildingBlock: TEMPAE_clean_linker_10, # of connection points: 2
#     Edge 30, Type (0, 1), BuildingBlock: TEMPAE_clean_linker_10, # of connection points: 2
#     Edge 31, Type (0, 1), BuildingBlock: TEMPAE_clean_linker_10, # of connection points: 2
#     Edge 32, Type (0, 1), BuildingBlock: TEMPAE_clean_linker_10, # of connection points: 2
#     Edge 33, Type (0, 1), BuildingBlock: TEMPAE_clean_linker_10, # of connection points: 2
#     Edge 34, Type (0, 1), BuildingBlock: TEMPAE_clean_linker_10, # of connection points: 2
#     Edge 35, Type (0, 1), BuildingBlock: TEMPAE_clean_linker_10, # of connection points: 2
# Relax obj value: 0.305
# Max RMSD: 0.190
# Mean RMSD: 0.179
data_MOF--net-dag--node1-MIDCAF_clean_sbu_0--node2-ESEHIV_clean_linker_0--edge1-TEMPAE_clean_linker_10
_symmetry_space_group_name_H-M    P1
_symmetry_Int_Tables_number       1
_symmetry_cell_setting            triclinic
loop_
_symmetry_equiv_pos_as_xyz
'x, y, z'
_cell_length_a     37.55621
_cell_length_b     38.523975
_cell_length_c     28.638213
_cell_angle_alpha  93.595321
_cell_angle_beta   90.012661
_cell_angle_gamma 89.957518
loop_
_atom_site_label
_atom_site_type_symbol
_atom_site_fract_x
_atom_site_fract_y
_atom_site_fract_z
_atom_type_partial_charge
Zn0 Zn 0.12408 0.83395 0.17274 0.0
Zn1 Zn 0.18815 0.83697 0.95663 0.0
Zn2 Zn 0.16996 0.83495 0.04043 0.0
C3 C 0.19345 0.90514 0.9889 0.0
C4 C 0.11905 0.8078 0.9618 0.0
O5 O 0.20039 0.7958 0.07748 0.0
O6 O 0.16198 0.81709 0.1264 0.0
C7 C 0.16746 0.88481 0.11371 0.0
O8 O 0.18683 0.88962 0.02659 0.0
O9 O 0.19341 0.88803 0.94982 0.0
O10 O 0.14484 0.81061 0.93395 0.0
O11 O 0.12186 0.81885 0.00478 0.0
O12 O 0.15511 0.85589 0.12461 0.0
O13 O 0.18046 0.88541 0.07282 0.0
O14 O 0.10991 0.82606 0.0548 0.0
O15 O 0.08326 0.82676 0.12682 0.0
C16 C 0.08212 0.82374 0.08196 0.0
O17 O 0.21417 0.79702 0.03301 0.0
O18 O 0.23294 0.81114 0.96361 0.0
C19 C 0.18598 0.79462 0.11763 0.0
C20 C 0.23723 0.79449 0.99976 0.0
Zn21 Zn 0.62294 0.6533 0.41279 0.0
Zn22 Zn 0.72539 0.64987 0.57046 0.0
Zn23 Zn 0.64744 0.65802 0.48976 0.0
C24 C 0.68632 0.58629 0.53516 0.0
C25 C 0.66393 0.68457 0.60046 0.0
O26 O 0.66495 0.69911 0.44408 0.0
O27 O 0.62107 0.70195 0.39391 0.0
C28 C 0.67435 0.60404 0.41518 0.0
O29 O 0.66707 0.6045 0.50779 0.0
O30 O 0.70884 0.60001 0.56399 0.0
O31 O 0.69497 0.68071 0.61675 0.0
O32 O 0.65776 0.67443 0.55827 0.0
O33 O 0.66266 0.62387 0.38533 0.0
O34 O 0.66571 0.60956 0.45821 0.0
O35 O 0.58982 0.66348 0.4964 0.0
O36 O 0.57734 0.63254 0.43179 0.0
C37 C 0.56689 0.64777 0.46969 0.0
O38 O 0.68636 0.69933 0.48737 0.0
O39 O 0.72572 0.66028 0.50233 0.0
C40 C 0.64963 0.71437 0.41094 0.0
C41 C 0.71879 0.6916 0.49614 0.0
Zn42 Zn 0.88162 0.16739 0.94634 0.0
Zn43 Zn 0.7916 0.1673 0.08351 0.0
Zn44 Zn 0.83488 0.16568 0.00908 0.0
C45 C 0.85872 0.17777 0.11933 0.0
C46 C 0.78565 0.10201 0.03484 0.0
O47 O 0.81332 0.19901 0.95509 0.0
O48 O 0.85218 0.18762 0.89833 0.0
C49 C 0.91521 0.19694 0.02034 0.0
O50 O 0.86484 0.17675 0.07491 0.0
O51 O 0.82756 0.1737 0.13452 0.0
O52 O 0.77054 0.1206 0.06689 0.0
O53 O 0.81176 0.11397 0.01165 0.0
O54 O 0.91837 0.19739 0.97661 0.0
O55 O 0.88739 0.18336 0.03815 0.0
O56 O 0.83849 0.11269 0.97681 0.0
O57 O 0.88985 0.11614 0.93981 0.0
C58 C 0.86405 0.09812 0.95294 0.0
O59 O 0.79336 0.20467 0.99631 0.0
O60 O 0.76524 0.20789 0.0646 0.0
C61 C 0.82337 0.20151 0.91234 0.0
C62 C 0.76943 0.2182 0.02404 0.0
Zn63 Zn 0.34895 0.32036 0.62754 0.0
Zn64 Zn 0.30059 0.34454 0.4764 0.0
Zn65 Zn 0.32953 0.34173 0.55382 0.0
C66 C 0.37511 0.36383 0.47526 0.0
C67 C 0.26403 0.38996 0.53925 0.0
O68 O 0.28857 0.35039 0.60885 0.0
O69 O 0.30089 0.29786 0.6285 0.0
C70 C 0.38379 0.28025 0.56363 0.0
O71 O 0.37123 0.37053 0.51954 0.0
O72 O 0.34964 0.35047 0.45144 0.0
O73 O 0.2704 0.38496 0.49605 0.0
O74 O 0.28075 0.3722 0.56884 0.0
O75 O 0.38998 0.29302 0.6044 0.0
O76 O 0.35575 0.29003 0.54194 0.0
O77 O 0.37123 0.37849 0.56962 0.0
O78 O 0.35573 0.37202 0.64279 0.0
C79 C 0.36937 0.39049 0.61236 0.0
O80 O 0.32047 0.28768 0.52867 0.0
O81 O 0.2794 0.29753 0.47587 0.0
C82 C 0.2801 0.32357 0.63108 0.0
C83 C 0.29537 0.27674 0.50102 0.0
H84 H 0.05651 0.09813 0.27813 0.0
H85 H 0.14957 0.09884 0.36537 0.0
H86 H 0.06644 0.17447 0.39289 0.0
C87 C 0.07159 0.1088 0.30797 0.0
C88 C 0.05813 0.13782 0.33396 0.0
C89 C 0.10473 0.09461 0.31871 0.0
C90 C 0.12322 0.10857 0.35799 0.0
C91 C 0.10934 0.1367 0.38593 0.0
C92 C 0.07682 0.15176 0.37315 0.0
H93 H 0.47904 0.6269 0.74788 0.0
H94 H 0.38946 0.60503 0.83419 0.0
H95 H 0.45399 0.69609 0.86698 0.0
C96 C 0.46257 0.63356 0.77829 0.0
C97 C 0.47021 0.66336 0.80704 0.0
C98 C 0.43371 0.61247 0.78812 0.0
C99 C 0.41222 0.62118 0.82707 0.0
C100 C 0.4193 0.65135 0.85587 0.0
C101 C 0.44864 0.67234 0.8458 0.0
H102 H 0.81519 0.86294 0.04752 0.0
H103 H 0.81874 0.7865 0.15129 0.0
H104 H 0.72893 0.85479 0.14394 0.0
C105 C 0.80249 0.84893 0.07461 0.0
C106 C 0.76914 0.86044 0.09146 0.0
C107 C 0.82112 0.82236 0.09586 0.0
C108 C 0.80504 0.80677 0.13382 0.0
C109 C 0.7722 0.81896 0.15157 0.0
C110 C 0.75409 0.84515 0.1297 0.0
H111 H 0.62554 0.32409 0.54371 0.0
H112 H 0.64145 0.24754 0.64402 0.0
H113 H 0.71388 0.33397 0.63899 0.0
C114 C 0.642 0.31351 0.57053 0.0
C115 C 0.67106 0.33273 0.58897 0.0
C116 C 0.63157 0.28262 0.59001 0.0
C117 C 0.65088 0.27037 0.62754 0.0
C118 C 0.6808 0.28862 0.64557 0.0
C119 C 0.69095 0.31954 0.62548 0.0
H120 H 0.60314 0.41916 0.2951 0.0
H121 H 0.65839 0.3893 0.16787 0.0
H122 H 0.5642 0.33336 0.20598 0.0
C123 C 0.60521 0.40246 0.26323 0.0
C124 C 0.58005 0.37631 0.25386 0.0
C125 C 0.63328 0.40708 0.23229 0.0
C126 C 0.63613 0.38587 0.19129 0.0
C127 C 0.61112 0.35938 0.18132 0.0
C128 C 0.58306 0.35433 0.21288 0.0
H129 H 0.16504 0.15896 0.0134 0.0
H130 H 0.15649 0.24954 0.93611 0.0
H131 H 0.237 0.17215 0.89957 0.0
C132 C 0.17599 0.17522 0.98733 0.0
C133 C 0.20316 0.16224 0.95768 0.0
C134 C 0.15947 0.20676 0.97942 0.0
C135 C 0.17152 0.22649 0.94323 0.0
C136 C 0.2003 0.21541 0.91441 0.0
C137 C 0.21579 0.18256 0.92182 0.0
H138 H 0.28732 0.61789 0.50715 0.0
H139 H 0.31026 0.68474 0.39607 0.0
H140 H 0.21458 0.6232 0.39268 0.0
C141 C 0.27997 0.62942 0.47495 0.0
C142 C 0.24893 0.61782 0.45196 0.0
C143 C 0.30316 0.6527 0.45462 0.0
C144 C 0.29241 0.66745 0.41305 0.0
C145 C 0.25978 0.65826 0.39117 0.0
C146 C 0.23865 0.63237 0.41025 0.0
H147 H 0.92684 0.85737 0.81789 0.0
H148 H 0.91103 0.78659 0.69778 0.0
H149 H 0.84431 0.87731 0.71896 0.0
C150 C 0.91266 0.85027 0.78566 0.0
C151 C 0.88472 0.87117 0.7714 0.0
C152 C 0.92237 0.82006 0.7591 0.0
C153 C 0.9043 0.81062 0.71756 0.0
C154 C 0.87629 0.83153 0.70292 0.0
C155 C 0.86671 0.86188 0.72962 0.0
C156 C 0.18741 0.94383 0.14228 0.0
C157 C 0.16287 0.91658 0.1438 0.0
C158 C 0.18294 0.97443 0.17083 0.0
C159 C 0.15262 0.97793 0.20011 0.0
C160 C 0.12756 0.95055 0.20106 0.0
C161 C 0.13335 0.91991 0.1734 0.0
C162 C 0.21085 0.0026 0.17024 0.0
C163 C 0.09416 0.95387 0.23047 0.0
C164 C 0.14131 0.04017 0.30598 0.0
C165 C 0.12064 0.06644 0.28754 0.0
C166 C 0.15471 0.01257 0.27697 0.0
C167 C 0.14593 0.01048 0.22886 0.0
C168 C 0.12648 0.03756 0.20962 0.0
C169 C 0.11474 0.06558 0.23904 0.0
C170 C 0.17676 0.98481 0.29821 0.0
C171 C 0.11619 0.03597 0.15851 0.0
H172 H 0.21032 0.94096 0.11933 0.0
H173 H 0.11414 0.89894 0.17385 0.0
H174 H 0.1985 0.02803 0.16397 0.0
H175 H 0.22408 0.0054 0.20493 0.0
H176 H 0.23147 -0.00323 0.14304 0.0
H177 H 0.07666 0.93069 0.2255 0.0
H178 H 0.10127 0.95741 0.26804 0.0
H179 H 0.07883 0.97716 0.22141 0.0
H180 H 0.14613 0.04044 0.3433 0.0
H181 H 0.10018 0.08645 0.22401 0.0
H182 H 0.20001 0.97774 0.27565 0.0
H183 H 0.16048 0.96101 0.30093 0.0
H184 H 0.18648 0.99331 0.33375 0.0
H185 H 0.13997 0.03131 0.13609 0.0
H186 H 0.10296 0.06021 0.14849 0.0
H187 H 0.09771 0.01385 0.15093 0.0
C188 C 0.60156 0.67943 0.62567 0.0
C189 C 0.63439 0.6963 0.6311 0.0
C190 C 0.57487 0.68459 0.65935 0.0
C191 C 0.58067 0.70848 0.69831 0.0
C192 C 0.61232 0.72843 0.70116 0.0
C193 C 0.63942 0.72136 0.66808 0.0
C194 C 0.5419 0.66205 0.65532 0.0
C195 C 0.61842 0.75574 0.7404 0.0
C196 C 0.49504 0.71255 0.76584 0.0
C197 C 0.50055 0.68479 0.79428 0.0
C198 C 0.52288 0.72444 0.73831 0.0
C199 C 0.55631 0.70746 0.73895 0.0
C200 C 0.56292 0.6825 0.77223 0.0
C201 C 0.53479 0.67149 0.79964 0.0
C202 C 0.51518 0.75212 0.70471 0.0
C203 C 0.59814 0.66369 0.77419 0.0
H204 H 0.59777 0.66003 0.59698 0.0
H205 H 0.6647 0.73485 0.67167 0.0
H206 H 0.54074 0.645 0.68513 0.0
H207 H 0.51762 0.67843 0.65687 0.0
H208 H 0.5413 0.64525 0.62236 0.0
H209 H 0.63854 0.77512 0.73059 0.0
H210 H 0.59329 0.7695 0.75022 0.0
H211 H 0.62838 0.74319 0.77167 0.0
H212 H 0.46834 0.72267 0.76176 0.0
H213 H 0.53869 0.64989 0.82165 0.0
H214 H 0.5063 0.73962 0.67073 0.0
H215 H 0.53928 0.76778 0.69827 0.0
H216 H 0.49356 0.76973 0.71814 0.0
H217 H 0.60111 0.64583 0.74247 0.0
H218 H 0.60022 0.64814 0.80547 0.0
H219 H 0.62057 0.68236 0.77471 0.0
C220 C 0.8016 0.03989 0.03138 0.0
C221 C 0.77551 0.06539 0.02809 0.0
C222 C 0.79213 0.005 0.03405 0.0
C223 C 0.75561 0.99554 0.03255 0.0
C224 C 0.72933 0.02098 0.02536 0.0
C225 C 0.73959 0.05592 0.02422 0.0
C226 C 0.82111 0.97907 0.04328 0.0
C227 C 0.69031 0.0119 0.02195 0.0
C228 C 0.75238 0.89825 0.02726 0.0
C229 C 0.75392 0.89284 0.0751 0.0
C230 C 0.74765 0.9318 0.01204 0.0
C231 C 0.74557 0.96028 0.04559 0.0
C232 C 0.74236 0.95425 0.09364 0.0
C233 C 0.74651 0.92044 0.10786 0.0
C234 C 0.74941 0.93702 0.96044 0.0
C235 C 0.73905 0.98384 0.13056 0.0
H236 H 0.82931 0.04753 0.03505 0.0
H237 H 0.71949 0.07593 0.0216 0.0
H238 H 0.82103 0.97404 0.08103 0.0
H239 H 0.81655 0.95389 0.02339 0.0
H240 H 0.84789 0.98886 0.03415 0.0
H241 H 0.6756 0.0308 0.00141 0.0
H242 H 0.68617 0.98534 0.00555 0.0
H243 H 0.67862 0.01286 0.05757 0.0
H244 H 0.75734 0.87668 0.00192 0.0
H245 H 0.74742 0.91628 0.14494 0.0
H246 H 0.77743 0.94205 0.95095 0.0
H247 H 0.73307 0.9596 0.9512 0.0
H248 H 0.74035 0.91345 0.93943 0.0
H249 H 0.76487 -0.00224 0.13409 0.0
H250 H 0.73176 0.97454 0.16525 0.0
H251 H 0.71869 0.0028 0.12042 0.0
C252 C 0.43763 0.29067 0.52058 0.0
C253 C 0.41469 0.266 0.53788 0.0
C254 C 0.47442 0.28531 0.51987 0.0
C255 C 0.48831 0.25342 0.53404 0.0
C256 C 0.46462 0.22612 0.54357 0.0
C257 C 0.4279 0.23313 0.547 0.0
C258 C 0.49794 0.31624 0.51244 0.0
C259 C 0.47824 0.19102 0.55581 0.0
C260 C 0.58914 0.25515 0.53114 0.0
C261 C 0.59658 0.26746 0.57718 0.0
C262 C 0.55408 0.24678 0.51735 0.0
C263 C 0.52598 0.25242 0.54994 0.0
C264 C 0.53387 0.26315 0.5971 0.0
C265 C 0.56919 0.26997 0.61023 0.0
C266 C 0.54678 0.23448 0.46724 0.0
C267 C 0.50481 0.27052 0.6329 0.0
H268 H 0.42748 0.31642 0.51518 0.0
H269 H 0.41017 0.21413 0.56091 0.0
H270 H 0.50268 0.3306 0.5467 0.0
H271 H 0.52416 0.30848 0.49761 0.0
H272 H 0.48497 0.33439 0.48909 0.0
H273 H 0.45783 0.17053 0.5485 0.0
H274 H 0.50282 0.18388 0.53594 0.0
H275 H 0.48469 0.19172 0.59366 0.0
H276 H 0.61052 0.25326 0.50567 0.0
H277 H 0.5751 0.27983 0.64569 0.0
H278 H 0.53536 0.25613 0.4483 0.0
H279 H 0.52698 0.21305 0.46565 0.0
H280 H 0.57142 0.22536 0.44884 0.0
H281 H 0.4876 0.29197 0.62184 0.0
H282 H 0.51561 0.27807 0.6682 0.0
H283 H 0.48773 0.2473 0.63559 0.0
C284 C 0.67263 0.54052 0.40793 0.0
C285 C 0.69026 0.57109 0.3983 0.0
C286 C 0.67694 0.51053 0.37851 0.0
C287 C 0.70039 0.51129 0.33973 0.0
C288 C 0.7227 0.54039 0.33501 0.0
C289 C 0.71667 0.57056 0.36382 0.0
C290 C 0.65175 0.48057 0.38436 0.0
C291 C 0.74953 0.54138 0.29597 0.0
C292 C 0.68945 0.42629 0.27071 0.0
C293 C 0.6594 0.43423 0.24451 0.0
C294 C 0.70711 0.45254 0.29776 0.0
C295 C 0.69352 0.48682 0.29891 0.0
C296 C 0.66611 0.49538 0.2675 0.0
C297 C 0.64934 0.46875 0.24053 0.0
C298 C 0.73716 0.44277 0.32931 0.0
C299 C 0.65097 0.53173 0.26713 0.0
H300 H 0.65189 0.54133 0.43429 0.0
H301 H 0.73053 0.5944 0.35695 0.0
H302 H 0.62963 0.4819 0.35882 0.0
H303 H 0.66534 0.45527 0.37739 0.0
H304 H 0.64005 0.48148 0.42005 0.0
H305 H 0.77186 0.5592 0.30606 0.0
H306 H 0.76037 0.5151 0.28632 0.0
H307 H 0.73653 0.55121 0.26461 0.0
H308 H 0.69701 0.39932 0.2735 0.0
H309 H 0.62597 0.47445 0.22007 0.0
H310 H 0.72623 0.43679 0.3639 0.0
H311 H 0.75648 0.46442 0.33493 0.0
H312 H 0.7514 0.41929 0.31455 0.0
H313 H 0.63649 0.53815 0.30035 0.0
H314 H 0.63217 0.53449 0.23763 0.0
H315 H 0.67259 0.55106 0.26443 0.0
C316 C 0.95976 0.23962 0.05123 0.0
C317 C 0.94683 0.20551 0.04858 0.0
C318 C -0.00379 0.24607 0.05817 0.0
C319 C 0.01981 0.21756 0.06017 0.0
C320 C 0.00594 0.18384 0.06518 0.0
C321 C 0.96938 0.17819 0.05903 0.0
C322 C 0.00996 0.28269 0.05613 0.0
C323 C 0.03017 0.15289 0.06916 0.0
C324 C 0.09469 0.21464 0.97252 0.0
C325 C 0.12469 0.21483 0.00132 0.0
C326 C 0.06053 0.21695 0.99154 0.0
C327 C 0.05627 0.22053 0.04087 0.0
C328 C 0.08669 0.22299 0.07016 0.0
C329 C 0.12074 0.21933 0.04997 0.0
C330 C 0.02904 0.21344 0.95859 0.0
C331 C 0.08359 0.2282 0.12263 0.0
H332 H 0.94216 0.26075 0.04316 0.0
H333 H 0.95933 0.15176 0.05622 0.0
H334 H 0.03396 0.28678 0.07845 0.0
H335 H 0.01754 0.28737 0.01961 0.0
H336 H 0.98929 0.30205 0.06754 0.0
H337 H 0.01516 0.12884 0.07563 0.0
H338 H 0.0456 0.14821 0.03629 0.0
H339 H 0.04943 0.15809 0.09807 0.0
H340 H 0.09796 0.21073 0.93491 0.0
H341 H 0.14417 0.2195 0.07212 0.0
H342 H 0.01196 0.23691 0.96274 0.0
H343 H 0.0126 0.1907 0.96684 0.0
H344 H 0.03726 0.21002 0.92131 0.0
H345 H 0.05857 0.24179 0.13342 0.0
H346 H 0.10653 0.24341 0.13741 0.0
H347 H 0.08399 0.20252 0.13809 0.0
C348 C 0.21181 0.42796 0.5305 0.0
C349 C 0.24384 0.42158 0.5536 0.0
C350 C 0.20119 0.46208 0.5227 0.0
C351 C 0.22395 0.49006 0.53678 0.0
C352 C 0.25331 0.48396 0.56641 0.0
C353 C 0.26265 0.4496 0.57502 0.0
C354 C 0.16831 0.46766 0.49387 0.0
C355 C 0.27799 0.51304 0.58314 0.0
C356 C 0.24574 0.55402 0.44582 0.0
C357 C 0.23305 0.58529 0.46693 0.0
C358 C 0.24158 0.52268 0.46748 0.0
C359 C 0.22314 0.52242 0.51074 0.0
C360 C 0.2073 0.55355 0.52994 0.0
C361 C 0.21325 0.5849 0.50835 0.0
C362 C 0.25945 0.49039 0.44574 0.0
C363 C 0.18597 0.55444 0.57458 0.0
H364 H 0.19713 0.40624 0.51406 0.0
H365 H 0.28752 0.44468 0.59273 0.0
H366 H 0.15491 0.49241 0.50547 0.0
H367 H 0.17594 0.46922 0.45663 0.0
H368 H 0.14917 0.44586 0.49616 0.0
H369 H 0.29636 0.505 0.61093 0.0
H370 H 0.29421 0.52109 0.55326 0.0
H371 H 0.2626 0.53602 0.59684 0.0
H372 H 0.26168 0.5546 0.41428 0.0
H373 H 0.2039 0.60928 0.525 0.0
H374 H 0.23958 0.46942 0.43893 0.0
H375 H 0.27958 0.48079 0.47025 0.0
H376 H 0.27295 0.49517 0.41224 0.0
H377 H 0.17271 0.52918 0.57944 0.0
H378 H 0.16541 0.57521 0.57495 0.0
H379 H 0.20394 0.56036 0.60476 0.0
C380 C 0.08409 0.76423 0.91408 0.0
C381 C 0.08506 0.7953 0.94219 0.0
C382 C 0.05528 0.75665 0.88401 0.0
C383 C 0.02766 0.78138 0.88121 0.0
C384 C 0.02716 0.81135 0.91271 0.0
C385 C 0.05594 0.81783 0.94307 0.0
C386 C 0.05638 0.72404 0.85201 0.0
C387 C -0.00112 0.83909 0.91046 0.0
C388 C 0.986 0.80793 0.7701 0.0
C389 C 0.95066 0.79852 0.77746 0.0
C390 C 0.01266 0.79868 0.80114 0.0
C391 C 0.00332 0.77991 0.84037 0.0
C392 C 0.96851 0.76634 0.84404 0.0
C393 C 0.94232 0.77617 0.81256 0.0
C394 C 0.04982 0.81262 0.79502 0.0
C395 C 0.95761 0.74507 0.88407 0.0
H396 H 0.10688 0.7469 0.9135 0.0
H397 H 0.05715 0.84217 0.96423 0.0
H398 H 0.02931 0.71318 0.84588 0.0
H399 H 0.06748 0.73033 0.81764 0.0
H400 H 0.07355 0.70383 0.86652 0.0
H401 H 0.99543 0.85353 0.945 0.0
H402 H 0.00726 0.85801 0.88493 0.0
H403 H 0.97283 0.8282 0.89881 0.0
H404 H 0.99214 0.82539 0.74294 0.0
H405 H 0.91475 0.76914 0.81815 0.0
H406 H 0.06997 0.79231 0.801 0.0
H407 H 0.05454 0.83464 0.82116 0.0
H408 H 0.05393 0.82205 0.75954 0.0
H409 H 0.98037 0.73074 0.89835 0.0
H410 H 0.93642 0.72621 0.87292 0.0
H411 H 0.94652 0.76262 0.91252 0.0
C412 C 0.89446 0.04242 0.93026 0.0
C413 C 0.86268 0.06102 0.93737 0.0
C414 C 0.89447 0.00911 0.90775 0.0
C415 C 0.8619 0.99428 0.89159 0.0
C416 C 0.82947 0.01204 0.90149 0.0
C417 C 0.83027 0.04536 0.92422 0.0
C418 C 0.92957 0.99076 0.89859 0.0
C419 C 0.79401 -0.00261 0.88531 0.0
C420 C 0.8717 0.9346 0.78229 0.0
C421 C 0.87421 0.9021 0.80122 0.0
C422 C 0.86616 0.96476 0.81135 0.0
C423 C 0.86264 0.96212 0.86028 0.0
C424 C 0.86305 0.92904 0.87913 0.0
C425 C 0.86914 0.89942 0.84936 0.0
C426 C 0.86589 -0.00039 0.79 0.0
C427 C 0.85886 0.92476 0.93083 0.0
H428 H 0.91951 0.05449 0.94082 0.0
H429 H 0.80568 0.05987 0.92927 0.0
H430 H 0.92856 0.96411 0.9111 0.0
H431 H 0.93476 0.98827 0.86037 0.0
H432 H 0.95221 0.00488 0.91602 0.0
H433 H 0.77268 0.00546 0.91061 0.0
H434 H 0.78712 0.00794 0.85128 0.0
H435 H 0.79436 0.96861 0.88047 0.0
H436 H 0.87574 0.93658 0.74506 0.0
H437 H 0.87066 0.87413 0.8639 0.0
H438 H 0.88874 0.01545 0.80363 0.0
H439 H 0.84119 0.01402 0.80007 0.0
H440 H 0.86761 -0.00292 0.75121 0.0
H441 H 0.88547 0.92598 0.94769 0.0
H442 H 0.8469 0.89914 0.93742 0.0
H443 H 0.84211 0.94561 0.9477 0.0
C444 C 0.41749 0.33996 0.41597 0.0
C445 C 0.4099 0.36578 0.45134 0.0
C446 C 0.44788 0.34148 0.38818 0.0
C447 C 0.47158 0.36972 0.39555 0.0
C448 C 0.46536 0.39497 0.43304 0.0
C449 C 0.43447 0.39261 0.46088 0.0
C450 C 0.45359 0.3136 0.34935 0.0
C451 C 0.49049 0.4251 0.44249 0.0
C452 C 0.55898 0.35651 0.32988 0.0
C453 C 0.55155 0.37247 0.28843 0.0
C454 C 0.53387 0.35674 0.36621 0.0
C455 C 0.50074 0.37371 0.36101 0.0
C456 C 0.4936 0.39057 0.31938 0.0
C457 C 0.51913 0.3897 0.28351 0.0
C458 C 0.54257 0.33831 0.40967 0.0
C459 C 0.45869 0.409 0.31238 0.0
H460 H 0.39909 0.31852 0.40936 0.0
H461 H 0.42889 0.41234 0.48858 0.0
H462 H 0.45142 0.32517 0.31494 0.0
H463 H 0.48068 0.30235 0.35165 0.0
H464 H 0.43388 0.29217 0.35037 0.0
H465 H 0.48458 0.43977 0.47625 0.0
H466 H 0.51845 0.41581 0.44302 0.0
H467 H 0.48828 0.44315 0.41393 0.0
H468 H 0.58464 0.34412 0.33395 0.0
H469 H 0.51407 0.40299 0.2519 0.0
H470 H 0.52407 0.31614 0.41262 0.0
H471 H 0.5389 0.35627 0.44111 0.0
H472 H 0.57028 0.3282 0.40948 0.0
H473 H 0.43664 0.3898 0.31083 0.0
H474 H 0.45837 0.42307 0.2797 0.0
H475 H 0.45334 0.42787 0.34243 0.0
C476 C 0.23021 0.95526 0.96664 0.0
C477 C 0.20066 0.9429 0.99037 0.0
C478 C 0.23576 0.9911 0.96331 0.0
C479 C 0.21019 0.01509 0.98221 0.0
C480 C 0.18055 0.00266 0.00703 0.0
C481 C 0.17657 0.96668 0.01168 0.0
C482 C 0.26854 0.0032 0.93855 0.0
C483 C 0.15205 0.02714 0.02651 0.0
C484 C 0.22749 0.1126 0.00028 0.0
C485 C 0.21252 0.12496 0.95966 0.0
C486 C 0.2286 0.07673 0.00712 0.0
C487 C 0.21313 0.05284 0.97332 0.0
C488 C 0.19899 0.06527 0.93157 0.0
C489 C 0.1993 0.10112 0.92501 0.0
C490 C 0.24501 0.06458 0.05136 0.0
C491 C 0.1814 0.04096 0.89512 0.0
H492 H 0.24895 0.93678 0.95041 0.0
H493 H 0.15358 0.95702 0.02974 0.0
H494 H 0.26084 0.01407 0.90504 0.0
H495 H 0.28197 0.02425 0.96015 0.0
H496 H 0.28784 0.98173 0.93091 0.0
H497 H 0.13081 0.01338 0.04501 0.0
H498 H 0.16389 0.04723 0.0512 0.0
H499 H 0.13971 0.04086 0.99763 0.0
H500 H 0.23716 0.13112 0.02741 0.0
H501 H 0.1869 0.11079 0.89417 0.0
H502 H 0.26301 0.04216 0.04317 0.0
H503 H 0.2238 0.05569 0.07475 0.0
H504 H 0.26031 0.08558 0.07066 0.0
H505 H 0.19999 0.01987 0.88317 0.0
H506 H 0.17245 0.05461 0.86415 0.0
H507 H 0.15794 0.02853 0.91069 0.0
C508 C 0.50463 0.63957 0.44197 0.0
C509 C 0.52797 0.65068 0.47817 0.0
C510 C 0.46785 0.64394 0.44627 0.0
C511 C 0.45349 0.65907 0.48845 0.0
C512 C 0.47667 0.67015 0.52558 0.0
C513 C 0.51379 0.66606 0.51985 0.0
C514 C 0.44434 0.63228 0.40532 0.0
C515 C 0.46256 0.68557 0.57164 0.0
C516 C 0.35913 0.6886 0.4674 0.0
C517 C 0.34026 0.65765 0.47306 0.0
C518 C 0.39588 0.69078 0.47655 0.0
C519 C 0.41405 0.66165 0.49279 0.0
C520 C 0.39452 0.63185 0.50346 0.0
C521 C 0.35818 0.6299 0.49262 0.0
C522 C 0.41577 0.72319 0.46512 0.0
C523 C 0.41267 0.60072 0.52249 0.0
H524 H 0.51512 0.62793 0.40938 0.0
H525 H 0.53162 0.67491 0.54786 0.0
H526 H 0.42673 0.61083 0.41519 0.0
H527 H 0.42703 0.65403 0.39556 0.0
H528 H 0.45994 0.62299 0.37403 0.0
H529 H 0.4826 0.70275 0.58986 0.0
H530 H 0.43778 0.70068 0.56713 0.0
H531 H 0.45635 0.66415 0.5945 0.0
H532 H 0.34558 0.71068 0.45385 0.0
H533 H 0.34459 0.60553 0.49686 0.0
H534 H 0.43168 0.71767 0.43284 0.0
H535 H 0.43458 0.73117 0.49369 0.0
H536 H 0.39748 0.74519 0.45935 0.0
H537 H 0.42975 0.58774 0.49501 0.0
H538 H 0.39321 0.58138 0.53418 0.0
H539 H 0.4301 0.60911 0.5524 0.0
C540 C 0.40974 0.44246 0.61281 0.0
C541 C 0.37818 0.4268 0.62664 0.0
C542 C 0.42004 0.47508 0.63344 0.0
C543 C 0.39785 0.4922 0.66781 0.0
C544 C 0.36468 0.47748 0.67885 0.0
C545 C 0.35544 0.44487 0.65842 0.0
C546 C 0.45547 0.49022 0.62058 0.0
C547 C 0.33979 0.49513 0.71439 0.0
C548 C 0.4347 0.5487 0.76944 0.0
C549 C 0.42564 0.58192 0.75653 0.0
C550 C 0.42753 0.51935 0.7395 0.0
C551 C 0.41039 0.52349 0.69606 0.0
C552 C 0.40183 0.55725 0.6826 0.0
C553 C 0.40985 0.5862 0.71299 0.0
C554 C 0.43727 0.48382 0.75501 0.0
C555 C 0.38296 0.56269 0.63709 0.0
H556 H 0.42719 0.42843 0.58805 0.0
H557 H 0.33064 0.43294 0.66839 0.0
H558 H 0.45253 0.51806 0.61347 0.0
H559 H 0.47415 0.48881 0.65042 0.0
H560 H 0.46743 0.47607 0.5894 0.0
H561 H 0.31348 0.482 0.71521 0.0
H562 H 0.35185 0.495 0.74975 0.0
H563 H 0.3355 0.52267 0.70664 0.0
H564 H 0.44734 0.54576 0.80302 0.0
H565 H 0.40317 0.61216 0.70322 0.0
H566 H 0.45256 0.46908 0.72716 0.0
H567 H 0.41267 0.46887 0.76129 0.0
H568 H 0.45336 0.48532 0.78764 0.0
H569 H 0.39589 0.54726 0.6078 0.0
H570 H 0.38257 0.59051 0.62891 0.0
H571 H 0.35506 0.55348 0.63922 0.0
C572 C 0.02457 0.85189 0.06849 0.0
C573 C 0.0461 0.82233 0.06185 0.0
C574 C 0.98748 0.84957 0.064 0.0
C575 C 0.9716 0.81676 0.05292 0.0
C576 C 0.99357 0.78751 0.04139 0.0
C577 C 0.03075 0.79053 0.04663 0.0
C578 C 0.96522 0.88162 0.07548 0.0
C579 C 0.97777 0.75242 0.02752 0.0
C580 C 0.88422 0.80822 0.11724 0.0
C581 C 0.85903 0.81497 0.08269 0.0
C582 C 0.92071 0.80642 0.10697 0.0
C583 C 0.93269 0.81239 0.06127 0.0
C584 C 0.90744 0.81766 0.02571 0.0
C585 C 0.87097 0.81837 0.03666 0.0
C586 C 0.94663 0.80023 0.14595 0.0
C587 C 0.91876 0.8247 0.97676 0.0
H588 H 0.03661 0.87642 0.08062 0.0
H589 H 0.04748 0.76765 0.04181 0.0
H590 H 0.94404 0.88407 0.04887 0.0
H591 H 0.95198 0.87939 0.10981 0.0
H592 H 0.9815 0.90574 0.07736 0.0
H593 H -0.00239 0.73489 0.00947 0.0
H594 H 0.96847 0.74017 0.05938 0.0
H595 H 0.95444 0.75497 0.00418 0.0
H596 H 0.87581 0.80615 0.15312 0.0
H597 H 0.85191 0.82284 0.00927 0.0
H598 H 0.96215 0.82428 0.15458 0.0
H599 H 0.96579 0.77943 0.13468 0.0
H600 H 0.93299 0.79267 0.17821 0.0
H601 H 0.92442 0.85286 0.97509 0.0
H602 H 0.89757 0.81761 0.95082 0.0
H603 H 0.94332 0.81019 0.96688 0.0
C604 C 0.7158 0.52848 0.5292 0.0
C605 C 0.68429 0.548 0.53119 0.0
C606 C 0.71508 0.49222 0.53122 0.0
C607 C 0.68211 0.47522 0.53679 0.0
C608 C 0.65003 0.49466 0.53621 0.0
C609 C 0.65149 0.53093 0.53301 0.0
C610 C 0.74972 0.47229 0.52965 0.0
C611 C 0.61435 0.4774 0.5416 0.0
C612 C 0.67571 0.37624 0.5274 0.0
C613 C 0.67738 0.36861 0.57459 0.0
C614 C 0.67814 0.41069 0.5142 0.0
C615 C 0.68156 0.43821 0.54912 0.0
C616 C 0.68413 0.4305 0.59673 0.0
C617 C 0.68212 0.39586 0.60883 0.0
C618 C 0.67581 0.4174 0.46302 0.0
C619 C 0.68801 0.45897 0.63514 0.0
H620 H 0.74114 0.54175 0.527 0.0
H621 H 0.62715 0.54611 0.53432 0.0
H622 H 0.7553 0.46256 0.56456 0.0
H623 H 0.74781 0.44934 0.50434 0.0
H624 H 0.7725 0.48862 0.51959 0.0
H625 H 0.59184 0.49569 0.53752 0.0
H626 H 0.61149 0.45518 0.51532 0.0
H627 H 0.61258 0.46689 0.57674 0.0
H628 H 0.67217 0.35525 0.50077 0.0
H629 H 0.68286 0.39024 0.64543 0.0
H630 H 0.69306 0.43945 0.4543 0.0
H631 H 0.64789 0.42399 0.45457 0.0
H632 H 0.6835 0.39407 0.44048 0.0
H633 H 0.71212 0.47469 0.62906 0.0
H634 H 0.69007 0.44858 0.67036 0.0
H635 H 0.66473 0.47673 0.63486 0.0
C636 C 0.88798 0.20192 0.19264 0.0
C637 C 0.88868 0.17934 0.15242 0.0
C638 C 0.91532 0.20119 0.2261 0.0
C639 C 0.94324 0.17665 0.21951 0.0
C640 C 0.94411 0.15408 0.17851 0.0
C641 C 0.91681 0.15582 0.14542 0.0
C642 C 0.9139 0.22598 0.26898 0.0
C643 C 0.97315 0.12721 0.17039 0.0
C644 C 0.03136 0.18082 0.28393 0.0
C645 C 0.02655 0.1549 0.31549 0.0
C646 C 0.00363 0.18993 0.2542 0.0
C647 C 0.97043 0.17272 0.25652 0.0
C648 C 0.96481 0.14832 0.29084 0.0
C649 C 0.99313 0.1395 0.31975 0.0
C650 C 0.01084 0.2157 0.21773 0.0
C651 C 0.92989 0.12924 0.29423 0.0
H652 H 0.86595 0.21993 0.19801 0.0
H653 H 0.9166 0.1377 0.11488 0.0
H654 H 0.90996 0.21116 0.30056 0.0
H655 H 0.93954 0.24012 0.27343 0.0
H656 H 0.89202 0.24526 0.26712 0.0
H657 H 0.96989 0.11174 0.13661 0.0
H658 H -0.00044 0.14008 0.17065 0.0
H659 H 0.97311 0.10912 0.19905 0.0
H660 H 0.05761 0.19199 0.28001 0.0
H661 H 0.98988 0.11889 0.34351 0.0
H662 H 0.98845 0.23437 0.21586 0.0
H663 H 0.01327 0.20167 0.18283 0.0
H664 H 0.03585 0.23046 0.22498 0.0
H665 H 0.90724 0.14773 0.29457 0.0
H666 H 0.92845 0.11426 0.32609 0.0
H667 H 0.92666 0.11086 0.2631 0.0
C668 C 0.22887 0.752 0.14987 0.0
C669 C 0.19602 0.76929 0.15226 0.0
C670 C 0.23949 0.73048 0.18539 0.0
C671 C 0.21661 0.72615 0.22403 0.0
C672 C 0.18269 0.74222 0.22522 0.0
C673 C 0.17291 0.76363 0.18949 0.0
C674 C 0.27583 0.71376 0.18265 0.0
C675 C 0.15721 0.738 0.26527 0.0
C676 C 0.23281 0.65587 0.30996 0.0
C677 C 0.24894 0.67504 0.34762 0.0
C678 C 0.22278 0.67188 0.26902 0.0
C679 C 0.22918 0.70787 0.26549 0.0
C680 C 0.24579 0.7272 0.30311 0.0
C681 C 0.25522 0.71067 0.34363 0.0
C682 C 0.20495 0.65041 0.2298 0.0
C683 C 0.25304 0.76564 0.30096 0.0
H684 H 0.24687 0.75635 0.12126 0.0
H685 H 0.1472 0.77642 0.19118 0.0
H686 H 0.29331 0.72638 0.20995 0.0
H687 H 0.27401 0.68581 0.18956 0.0
H688 H 0.28854 0.71616 0.14796 0.0
H689 H 0.13067 0.74954 0.25883 0.0
H690 H 0.15366 0.71007 0.27139 0.0
H691 H 0.16836 0.75084 0.29783 0.0
H692 H 0.22828 0.62826 0.31224 0.0
H693 H 0.26712 0.72591 0.37266 0.0
H694 H 0.21979 0.65272 0.19665 0.0
H695 H 0.17764 0.66038 0.22427 0.0
H696 H 0.20319 0.62247 0.23707 0.0
H697 H 0.26867 0.77044 0.26914 0.0
H698 H 0.26787 0.77654 0.33208 0.0
H699 H 0.22751 0.77994 0.29862 0.0
C700 C 0.73522 0.75372 0.51678 0.0
C701 C 0.74491 0.71858 0.51104 0.0
C702 C 0.75843 0.7781 0.53893 0.0
C703 C 0.79152 0.76672 0.55609 0.0
C704 C 0.80274 0.73202 0.54597 0.0
C705 C 0.77935 0.70844 0.52324 0.0
C706 C 0.74623 0.81526 0.54754 0.0
C707 C 0.83784 0.71874 0.56357 0.0
C708 C 0.86208 0.82295 0.61781 0.0
C709 C 0.8532 0.81855 0.6645 0.0
C710 C 0.84077 0.80819 0.58146 0.0
C711 C 0.81075 0.78809 0.59267 0.0
C712 C 0.80124 0.78477 0.64006 0.0
C713 C 0.82256 0.80029 0.67541 0.0
C714 C 0.85113 0.81294 0.53135 0.0
C715 C 0.76968 0.76321 0.6536 0.0
H716 H 0.70892 0.76186 0.50631 0.0
H717 H 0.78735 0.68144 0.51768 0.0
H718 H 0.73614 0.81924 0.58389 0.0
H719 H 0.76866 0.83359 0.54358 0.0
H720 H 0.72447 0.82172 0.52326 0.0
H721 H 0.84454 0.69254 0.5475 0.0
H722 H 0.85978 0.73682 0.55623 0.0
H723 H 0.8364 0.71705 0.60208 0.0
H724 H 0.88587 0.83738 0.60987 0.0
H725 H 0.81603 0.79716 0.71181 0.0
H726 H 0.82731 0.81823 0.50997 0.0
H727 H 0.86355 0.78869 0.51605 0.0
H728 H 0.87047 0.83452 0.52863 0.0
H729 H 0.74515 0.77215 0.63645 0.0
H730 H 0.76521 0.76455 0.69201 0.0
H731 H 0.77398 0.73559 0.64149 0.0
C732 C 0.71056 0.23434 0.99624 0.0
C733 C 0.74477 0.24503 0.01024 0.0
C734 C 0.68075 0.25476 0.00891 0.0
C735 C 0.68566 0.28581 0.03717 0.0
C736 C 0.72052 0.2992 0.04452 0.0
C737 C 0.74982 0.27857 0.0305 0.0
C738 C 0.64413 0.24049 0.99792 0.0
C739 C 0.72714 0.33253 0.07383 0.0
C740 C 0.61844 0.34705 0.09563 0.0
C741 C 0.61822 0.33498 0.1408 0.0
C742 C 0.63702 0.32893 0.05919 0.0
C743 C 0.65676 0.29898 0.06901 0.0
C744 C 0.65356 0.28494 0.11351 0.0
C745 C 0.63392 0.30303 0.14878 0.0
C746 C 0.63816 0.34373 0.0117 0.0
C747 C 0.67412 0.25299 0.12568 0.0
H748 H 0.70667 0.20818 0.98079 0.0
H749 H 0.77636 0.28659 0.04158 0.0
H750 H 0.63529 0.2245 0.02666 0.0
H751 H 0.62446 0.26171 0.99457 0.0
H752 H 0.64434 0.22358 0.96503 0.0
H753 H 0.75499 0.34176 0.07048 0.0
H754 H 0.70885 0.35334 0.06368 0.0
H755 H 0.72207 0.32809 0.11119 0.0
H756 H 0.60629 0.37194 0.08969 0.0
H757 H 0.63396 0.29406 0.18394 0.0
H758 H 0.64081 0.32288 0.98336 0.0
H759 H 0.66145 0.36127 0.00984 0.0
H760 H 0.61383 0.35919 0.0054 0.0
H761 H 0.66936 0.23128 0.09917 0.0
H762 H 0.66675 0.2442 0.1606 0.0
H763 H 0.70309 0.25875 0.12578 0.0
C764 C 0.27531 0.3343 0.71534 0.0
C765 C 0.2577 0.32603 0.673 0.0
C766 C 0.26432 0.31997 0.75678 0.0
C767 C 0.23354 0.29873 0.75633 0.0
C768 C 0.21269 0.29478 0.71499 0.0
C769 C 0.22573 0.30745 0.67327 0.0
C770 C 0.28763 0.32489 0.79967 0.0
C771 C 0.17795 0.27513 0.71373 0.0
C772 C 0.22708 0.22205 0.8338 0.0
C773 C 0.21124 0.23709 0.87473 0.0
C774 C 0.23546 0.24211 0.79589 0.0
C775 C 0.22556 0.27772 0.79715 0.0
C776 C 0.20951 0.29313 0.83802 0.0
C777 C 0.20409 0.27312 0.87669 0.0
C778 C 0.25518 0.22501 0.75456 0.0
C779 C 0.19761 0.33067 0.84192 0.0
H780 H 0.30042 0.34819 0.71478 0.0
H781 H 0.21237 0.30054 0.64041 0.0
H782 H 0.27314 0.3403 0.82757 0.0
H783 H 0.29433 0.29932 0.81328 0.0
H784 H 0.31283 0.33868 0.79249 0.0
H785 H 0.16011 0.28423 0.68604 0.0
H786 H 0.18313 0.24707 0.70559 0.0
H787 H 0.16395 0.27815 0.7479 0.0
H788 H 0.23274 0.19448 0.83067 0.0
H789 H 0.19368 0.28618 0.90836 0.0
H790 H 0.27677 0.24216 0.74295 0.0
H791 H 0.23659 0.22015 0.72483 0.0
H792 H 0.26707 0.19971 0.76287 0.0
H793 H 0.21601 0.34592 0.86555 0.0
H794 H 0.17076 0.3327 0.85817 0.0
H795 H 0.19655 0.34275 0.8078 0.0
C796 C 0.70553 0.74425 0.3897 0.0
C797 C 0.6684 0.74137 0.38631 0.0
C798 C 0.72489 0.7621 0.35704 0.0
C799 C 0.70654 0.77715 0.32023 0.0
C800 C 0.66887 0.77763 0.31975 0.0
C801 C 0.65019 0.75971 0.35297 0.0
C802 C 0.76505 0.76174 0.35939 0.0
C803 C 0.64831 0.79402 0.28151 0.0
C804 C 0.75271 0.83201 0.23358 0.0
C805 C 0.75831 0.80747 0.19604 0.0
C806 C 0.73707 0.82234 0.27518 0.0
C807 C 0.72632 0.78748 0.27867 0.0
C808 C 0.73281 0.76241 0.2412 0.0
C809 C 0.74908 0.77272 0.2003 0.0
C810 C 0.73125 0.8495 0.3148 0.0
C811 C 0.72147 0.72496 0.24372 0.0
H812 H 0.71986 0.73014 0.41521 0.0
H813 H 0.62141 0.758 0.35072 0.0
H814 H 0.77542 0.74144 0.33371 0.0
H815 H 0.77629 0.78705 0.35025 0.0
H816 H 0.77472 0.75585 0.39472 0.0
H817 H 0.61952 0.79665 0.29 0.0
H818 H 0.65909 0.8201 0.27523 0.0
H819 H 0.65104 0.77762 0.24844 0.0
H820 H 0.76028 0.85889 0.23008 0.0
H821 H 0.75345 0.75396 0.17103 0.0
H822 H 0.74201 0.84032 0.34794 0.0
H823 H 0.70231 0.85397 0.32004 0.0
H824 H 0.74402 0.87469 0.308 0.0
H825 H 0.73357 0.71376 0.27476 0.0
H826 H 0.72924 0.70864 0.21199 0.0
H827 H 0.69212 0.72358 0.24776 0.0
C828 C 0.76433 0.22266 0.88414 0.0
C829 C 0.80109 0.2185 0.87775 0.0
C830 C 0.74284 0.2351 0.8486 0.0
C831 C 0.75856 0.24311 0.80561 0.0
C832 C 0.79576 0.23955 0.79936 0.0
C833 C 0.81652 0.22747 0.83552 0.0
C834 C 0.70323 0.23866 0.85647 0.0
C835 C 0.81357 0.24767 0.754 0.0
C836 C 0.70533 0.24122 0.69284 0.0
C837 C 0.69983 0.27678 0.68739 0.0
C838 C 0.72319 0.22981 0.73213 0.0
C839 C 0.73635 0.25457 0.76648 0.0
C840 C 0.73056 0.29043 0.76156 0.0
C841 C 0.71212 0.30108 0.72234 0.0
C842 C 0.72874 0.19129 0.73628 0.0
C843 C 0.74454 0.31759 0.79725 0.0
H844 H 0.75218 0.21486 0.91602 0.0
H845 H 0.84495 0.22431 0.83022 0.0
H846 H 0.69455 0.26555 0.8505 0.0
H847 H 0.68878 0.22096 0.83097 0.0
H848 H 0.69531 0.23249 0.89237 0.0
H849 H 0.84294 0.24437 0.75528 0.0
H850 H 0.80298 0.2303 0.7249 0.0
H851 H 0.80758 0.27479 0.74566 0.0
H852 H 0.69625 0.22224 0.66593 0.0
H853 H 0.70724 0.32856 0.7192 0.0
H854 H 0.71948 0.18361 0.77094 0.0
H855 H 0.75755 0.1851 0.73369 0.0
H856 H 0.71442 0.17536 0.70858 0.0
H857 H 0.73473 0.31235 0.83265 0.0
H858 H 0.73652 0.34436 0.78933 0.0
H859 H 0.77405 0.31637 0.79832 0.0
C860 C 0.25766 0.23613 0.54078 0.0
C861 C 0.28047 0.24198 0.50345 0.0
C862 C 0.22954 0.21236 0.5349 0.0
C863 C 0.22496 0.19407 0.49093 0.0
C864 C 0.25161 0.19585 0.4561 0.0
C865 C 0.27887 0.2204 0.46253 0.0
C866 C 0.20218 0.21081 0.57327 0.0
C867 C 0.24852 0.17566 0.40936 0.0
C868 C 0.15232 0.13134 0.4519 0.0
C869 C 0.13185 0.15257 0.42407 0.0
C870 C 0.18123 0.14497 0.47801 0.0
C871 C 0.18938 0.18066 0.47652 0.0
C872 C 0.16605 0.2029 0.45334 0.0
C873 C 0.13761 0.18852 0.42715 0.0
C874 C 0.20491 0.1205 0.50302 0.0
C875 C 0.17326 0.24141 0.45194 0.0
H876 H 0.25886 0.25322 0.5723 0.0
H877 H 0.29661 0.22522 0.43375 0.0
H878 H 0.18038 0.22941 0.56694 0.0
H879 H 0.19034 0.18448 0.57396 0.0
H880 H 0.21395 0.21822 0.6081 0.0
H881 H 0.27413 0.17511 0.38991 0.0
H882 H 0.23997 0.14853 0.41391 0.0
H883 H 0.22812 0.18804 0.38779 0.0
H884 H 0.14732 0.10357 0.45058 0.0
H885 H 0.12191 0.20512 0.4059 0.0
H886 H 0.21663 0.13338 0.53517 0.0
H887 H 0.22714 0.11187 0.47953 0.0
H888 H 0.19008 0.09701 0.5125 0.0
H889 H 0.17965 0.25295 0.48739 0.0
H890 H 0.15021 0.25561 0.43802 0.0
H891 H 0.1966 0.24547 0.42915 0.0
C892 C 0.26763 0.73939 0.01966 0.0
C893 C 0.26902 0.77238 0.00186 0.0
C894 C 0.29525 0.7153 0.00996 0.0
C895 C 0.32402 0.72458 0.98121 0.0
C896 C 0.32729 0.75928 0.96822 0.0
C897 C 0.29979 0.78276 0.97899 0.0
C898 C 0.29197 0.67918 0.02686 0.0
C899 C 0.35767 0.77067 0.93812 0.0
C900 C 0.40518 0.67482 0.93751 0.0
C901 C 0.39365 0.66331 0.8926 0.0
C902 C 0.38147 0.69136 0.9697 0.0
C903 C 0.34599 0.69754 0.95574 0.0
C904 C 0.33372 0.68357 0.91167 0.0
C905 C 0.35768 0.66637 0.88083 0.0
C906 C 0.39516 0.70433 0.01714 0.0
C907 C 0.2962 0.68983 0.89498 0.0
H908 H 0.24395 0.73148 0.03784 0.0
H909 H 0.30118 0.8087 0.96637 0.0
H910 H 0.27922 0.66191 0.99927 0.0
H911 H 0.31852 0.66819 0.03447 0.0
H912 H 0.2752 0.6791 0.05882 0.0
H913 H 0.35772 0.79923 0.93455 0.0
H914 H 0.38358 0.76323 0.95306 0.0
H915 H 0.35552 0.7575 0.90263 0.0
H916 H 0.43295 0.67193 0.94688 0.0
H917 H 0.34879 0.65757 0.84605 0.0
H918 H 0.37381 0.70474 0.04396 0.0
H919 H 0.40537 0.73122 0.01528 0.0
H920 H 0.41747 0.68789 0.02852 0.0
H921 H 0.27659 0.68255 0.92156 0.0
H922 H 0.29016 0.67487 0.86149 0.0
H923 H 0.29253 0.71791 0.8897 0.0
loop_
_geom_bond_atom_site_label_1
_geom_bond_atom_site_label_2
_geom_bond_distance
_geom_bond_site_symmetry_2
_ccdc_geom_bond_type
Zn0 O6 1.920 . S
Zn0 O12 1.898 . S
Zn0 O15 1.905 . S
Zn1 O9 1.905 . S
Zn1 O10 1.898 . S
Zn1 O18 1.920 . S
Zn2 O5 2.080 . S
Zn2 O8 2.114 . S
Zn2 O11 2.120 1_554 S
Zn2 O13 2.120 . S
Zn2 O14 2.114 . S
Zn2 O17 2.080 . S
C3 O8 1.166 1_556 S
C3 O9 1.182 . S
C4 O10 1.167 . S
C4 O11 1.299 . S
O5 Zn2 2.080 . S
O5 C19 1.305 . S
O6 Zn0 1.920 . S
O6 C19 1.234 . S
C7 O12 1.167 . S
C7 O13 1.299 . S
O8 Zn2 2.114 . S
O8 C3 1.166 1_554 S
O9 Zn1 1.905 . S
O9 C3 1.182 . S
O10 Zn1 1.898 . S
O10 C4 1.167 . S
O11 Zn2 2.120 1_556 S
O11 C4 1.299 . S
O12 Zn0 1.898 . S
O12 C7 1.167 . S
O13 Zn2 2.120 . S
O13 C7 1.299 . S
O14 Zn2 2.114 . S
O14 C16 1.166 . S
O15 Zn0 1.905 . S
O15 C16 1.182 . S
C16 O14 1.166 . S
C16 O15 1.182 . S
O17 Zn2 2.080 . S
O17 C20 1.290 1_554 S
O18 Zn1 1.920 . S
O18 C20 1.256 . S
C19 O5 1.305 . S
C19 O6 1.234 . S
C20 O17 1.290 1_556 S
C20 O18 1.256 . S
Zn21 O27 1.920 . S
Zn21 O33 1.898 . S
Zn21 O36 1.905 . S
Zn22 O30 1.905 . S
Zn22 O31 1.898 . S
Zn22 O39 1.920 . S
Zn23 O26 2.080 . S
Zn23 O29 2.114 . S
Zn23 O32 2.120 . S
Zn23 O34 2.120 . S
Zn23 O35 2.114 . S
Zn23 O38 2.080 . S
C24 O29 1.166 . S
C24 O30 1.182 . S
C25 O31 1.167 . S
C25 O32 1.299 . S
O26 Zn23 2.080 . S
O26 C40 1.305 . S
O27 Zn21 1.920 . S
O27 C40 1.234 . S
C28 O33 1.167 . S
C28 O34 1.299 . S
O29 Zn23 2.114 . S
O29 C24 1.166 . S
O30 Zn22 1.905 . S
O30 C24 1.182 . S
O31 Zn22 1.898 . S
O31 C25 1.167 . S
O32 Zn23 2.120 . S
O32 C25 1.299 . S
O33 Zn21 1.898 . S
O33 C28 1.167 . S
O34 Zn23 2.120 . S
O34 C28 1.299 . S
O35 Zn23 2.114 . S
O35 C37 1.166 . S
O36 Zn21 1.905 . S
O36 C37 1.182 . S
C37 O35 1.166 . S
C37 O36 1.182 . S
O38 Zn23 2.080 . S
O38 C41 1.305 . S
O39 Zn22 1.920 . S
O39 C41 1.234 . S
C40 O26 1.305 . S
C40 O27 1.234 . S
C41 O38 1.305 . S
C41 O39 1.234 . S
Zn42 O48 1.920 . S
Zn42 O54 1.898 . S
Zn42 O57 1.905 . S
Zn43 O51 1.905 . S
Zn43 O52 1.898 . S
Zn43 O60 1.920 . S
Zn44 O47 2.079 1_554 S
Zn44 O50 2.115 . S
Zn44 O53 2.120 . S
Zn44 O55 2.119 1_554 S
Zn44 O56 2.113 1_554 S
Zn44 O59 2.081 . S
C45 O50 1.166 . S
C45 O51 1.182 . S
C46 O52 1.167 . S
C46 O53 1.299 . S
O47 Zn44 2.079 1_556 S
O47 C61 1.305 . S
O48 Zn42 1.920 . S
O48 C61 1.234 . S
C49 O54 1.167 . S
C49 O55 1.299 . S
O50 Zn44 2.115 . S
O50 C45 1.166 . S
O51 Zn43 1.905 . S
O51 C45 1.182 . S
O52 Zn43 1.898 . S
O52 C46 1.167 . S
O53 Zn44 2.120 . S
O53 C46 1.299 . S
O54 Zn42 1.898 . S
O54 C49 1.167 . S
O55 Zn44 2.119 1_556 S
O55 C49 1.299 . S
O56 Zn44 2.113 1_556 S
O56 C58 1.166 . S
O57 Zn42 1.905 . S
O57 C58 1.182 . S
C58 O56 1.166 . S
C58 O57 1.182 . S
O59 Zn44 2.081 . S
O59 C62 1.305 . S
O60 Zn43 1.920 . S
O60 C62 1.234 . S
C61 O47 1.305 . S
C61 O48 1.234 . S
C62 O59 1.305 . S
C62 O60 1.234 . S
Zn63 O69 1.920 . S
Zn63 O75 1.898 . S
Zn63 O78 1.905 . S
Zn64 O72 1.905 . S
Zn64 O73 1.898 . S
Zn64 O81 1.920 . S
Zn65 O68 2.080 . S
Zn65 O71 2.114 . S
Zn65 O74 2.120 . S
Zn65 O76 2.120 . S
Zn65 O77 2.114 . S
Zn65 O80 2.080 . S
C66 O71 1.166 . S
C66 O72 1.182 . S
C67 O73 1.167 . S
C67 O74 1.299 . S
O68 Zn65 2.080 . S
O68 C82 1.305 . S
O69 Zn63 1.920 . S
O69 C82 1.234 . S
C70 O75 1.167 . S
C70 O76 1.299 . S
O71 Zn65 2.114 . S
O71 C66 1.166 . S
O72 Zn64 1.905 . S
O72 C66 1.182 . S
O73 Zn64 1.898 . S
O73 C67 1.167 . S
O74 Zn65 2.120 . S
O74 C67 1.299 . S
O75 Zn63 1.898 . S
O75 C70 1.167 . S
O76 Zn65 2.120 . S
O76 C70 1.299 . S
O77 Zn65 2.114 . S
O77 C79 1.166 . S
O78 Zn63 1.905 . S
O78 C79 1.182 . S
C79 O77 1.166 . S
C79 O78 1.182 . S
O80 Zn65 2.080 . S
O80 C83 1.305 . S
O81 Zn64 1.920 . S
O81 C83 1.234 . S
C82 O68 1.305 . S
C82 O69 1.234 . S
C83 O80 1.305 . S
C83 O81 1.234 . S
H84 C87 0.931 . S
H85 C90 0.928 . S
H86 C92 0.930 . S
C87 H84 0.931 . S
C87 C88 1.413 . S
C87 C89 1.360 . S
C88 C87 1.413 . S
C88 C92 1.429 . S
C89 C87 1.360 . S
C89 C90 1.372 . S
C90 H85 0.928 . S
C90 C89 1.372 . S
C90 C91 1.404 . S
C91 C90 1.404 . S
C91 C92 1.391 . S
C92 H86 0.930 . S
C92 C88 1.429 . S
C92 C91 1.391 . S
H93 C96 0.931 . S
H94 C99 0.928 . S
H95 C101 0.930 . S
C96 H93 0.931 . S
C96 C97 1.413 . S
C96 C98 1.360 . S
C97 C96 1.413 . S
C97 C101 1.429 . S
C98 C96 1.360 . S
C98 C99 1.372 . S
C99 H94 0.928 . S
C99 C98 1.372 . S
C99 C100 1.404 . S
C100 C99 1.404 . S
C100 C101 1.391 . S
C101 H95 0.930 . S
C101 C97 1.429 . S
C101 C100 1.391 . S
H102 C105 0.931 . S
H103 C108 0.928 . S
H104 C110 0.930 . S
C105 H102 0.931 . S
C105 C106 1.413 . S
C105 C107 1.360 . S
C106 C105 1.413 . S
C106 C110 1.429 . S
C107 C105 1.360 . S
C107 C108 1.372 . S
C108 H103 0.928 . S
C108 C107 1.372 . S
C108 C109 1.404 . S
C109 C108 1.404 . S
C109 C110 1.391 . S
C110 H104 0.930 . S
C110 C106 1.429 . S
C110 C109 1.391 . S
H111 C114 0.931 . S
H112 C117 0.928 . S
H113 C119 0.930 . S
C114 H111 0.931 . S
C114 C115 1.413 . S
C114 C116 1.360 . S
C115 C114 1.413 . S
C115 C119 1.429 . S
C116 C114 1.360 . S
C116 C117 1.372 . S
C117 H112 0.928 . S
C117 C116 1.372 . S
C117 C118 1.404 . S
C118 C117 1.404 . S
C118 C119 1.391 . S
C119 H113 0.930 . S
C119 C115 1.429 . S
C119 C118 1.391 . S
H120 C123 0.931 . S
H121 C126 0.928 . S
H122 C128 0.930 . S
C123 H120 0.931 . S
C123 C124 1.413 . S
C123 C125 1.360 . S
C124 C123 1.413 . S
C124 C128 1.429 . S
C125 C123 1.360 . S
C125 C126 1.372 . S
C126 H121 0.928 . S
C126 C125 1.372 . S
C126 C127 1.404 . S
C127 C126 1.404 . S
C127 C128 1.391 . S
C128 H122 0.930 . S
C128 C124 1.429 . S
C128 C127 1.391 . S
H129 C132 0.931 . S
H130 C135 0.928 . S
H131 C137 0.930 . S
C132 H129 0.931 . S
C132 C133 1.413 . S
C132 C134 1.360 . S
C133 C132 1.413 . S
C133 C137 1.429 . S
C134 C132 1.360 . S
C134 C135 1.372 . S
C135 H130 0.928 . S
C135 C134 1.372 . S
C135 C136 1.404 . S
C136 C135 1.404 . S
C136 C137 1.391 . S
C137 H131 0.930 . S
C137 C133 1.429 . S
C137 C136 1.391 . S
H138 C141 0.931 . S
H139 C144 0.928 . S
H140 C146 0.930 . S
C141 H138 0.931 . S
C141 C142 1.413 . S
C141 C143 1.360 . S
C142 C141 1.413 . S
C142 C146 1.429 . S
C143 C141 1.360 . S
C143 C144 1.372 . S
C144 H139 0.928 . S
C144 C143 1.372 . S
C144 C145 1.404 . S
C145 C144 1.404 . S
C145 C146 1.391 . S
C146 H140 0.930 . S
C146 C142 1.429 . S
C146 C145 1.391 . S
H147 C150 0.931 . S
H148 C153 0.928 . S
H149 C155 0.930 . S
C150 H147 0.931 . S
C150 C151 1.413 . S
C150 C152 1.360 . S
C151 C150 1.413 . S
C151 C155 1.429 . S
C152 C150 1.360 . S
C152 C153 1.372 . S
C153 H148 0.928 . S
C153 C152 1.372 . S
C153 C154 1.404 . S
C154 C153 1.404 . S
C154 C155 1.391 . S
C155 H149 0.930 . S
C155 C151 1.429 . S
C155 C154 1.391 . S
C156 C157 1.391 . S
C156 C158 1.394 . S
C156 H172 0.931 . S
C157 C156 1.391 . S
C157 C161 1.376 . S
C158 C156 1.394 . S
C158 C159 1.369 . S
C158 C162 1.531 1_565 S
C159 C158 1.369 . S
C159 C160 1.410 . S
C159 C167 1.503 1_565 S
C160 C159 1.410 . S
C160 C161 1.392 . S
C160 C163 1.511 . S
C161 C157 1.376 . S
C161 C160 1.392 . S
C161 H173 0.929 . S
C162 C158 1.531 1_545 S
C162 H174 0.960 . S
C162 H175 0.962 . S
C162 H176 0.960 . S
C163 C160 1.511 . S
C163 H177 0.961 . S
C163 H178 0.961 . S
C163 H179 0.961 . S
C164 C165 1.370 . S
C164 C166 1.363 . S
C164 H180 0.931 . S
C165 C164 1.370 . S
C165 C169 1.408 . S
C166 C164 1.363 . S
C166 C167 1.370 . S
C166 C170 1.524 1_545 S
C167 C159 1.503 1_545 S
C167 C166 1.370 . S
C167 C168 1.403 . S
C168 C167 1.403 . S
C168 C169 1.404 . S
C168 C171 1.539 . S
C169 C165 1.408 . S
C169 C168 1.404 . S
C169 H181 0.930 . S
C170 C166 1.524 1_565 S
C170 H182 0.956 . S
C170 H183 0.961 . S
C170 H184 0.961 . S
C171 C168 1.539 . S
C171 H185 0.958 . S
C171 H186 0.961 . S
C171 H187 0.960 . S
H172 C156 0.931 . S
H173 C161 0.929 . S
H174 C162 0.960 . S
H175 C162 0.962 . S
H176 C162 0.960 . S
H177 C163 0.961 . S
H178 C163 0.961 . S
H179 C163 0.961 . S
H180 C164 0.931 . S
H181 C169 0.930 . S
H182 C170 0.956 . S
H183 C170 0.961 . S
H184 C170 0.961 . S
H185 C171 0.958 . S
H186 C171 0.961 . S
H187 C171 0.960 . S
C188 C189 1.391 . S
C188 C190 1.394 . S
C188 H204 0.931 . S
C189 C188 1.391 . S
C189 C193 1.376 . S
C190 C188 1.394 . S
C190 C191 1.369 . S
C190 C194 1.531 . S
C191 C190 1.369 . S
C191 C192 1.410 . S
C191 C199 1.503 . S
C192 C191 1.410 . S
C192 C193 1.392 . S
C192 C195 1.511 . S
C193 C189 1.376 . S
C193 C192 1.392 . S
C193 H205 0.929 . S
C194 C190 1.531 . S
C194 H206 0.960 . S
C194 H207 0.962 . S
C194 H208 0.960 . S
C195 C192 1.511 . S
C195 H209 0.961 . S
C195 H210 0.961 . S
C195 H211 0.961 . S
C196 C197 1.370 . S
C196 C198 1.363 . S
C196 H212 0.931 . S
C197 C196 1.370 . S
C197 C201 1.408 . S
C198 C196 1.363 . S
C198 C199 1.370 . S
C198 C202 1.524 . S
C199 C191 1.503 . S
C199 C198 1.370 . S
C199 C200 1.403 . S
C200 C199 1.403 . S
C200 C201 1.404 . S
C200 C203 1.539 . S
C201 C197 1.408 . S
C201 C200 1.404 . S
C201 H213 0.930 . S
C202 C198 1.524 . S
C202 H214 0.956 . S
C202 H215 0.961 . S
C202 H216 0.961 . S
C203 C200 1.539 . S
C203 H217 0.958 . S
C203 H218 0.961 . S
C203 H219 0.960 . S
H204 C188 0.931 . S
H205 C193 0.929 . S
H206 C194 0.960 . S
H207 C194 0.962 . S
H208 C194 0.960 . S
H209 C195 0.961 . S
H210 C195 0.961 . S
H211 C195 0.961 . S
H212 C196 0.931 . S
H213 C201 0.930 . S
H214 C202 0.956 . S
H215 C202 0.961 . S
H216 C202 0.961 . S
H217 C203 0.958 . S
H218 C203 0.961 . S
H219 C203 0.960 . S
C220 C221 1.391 . S
C220 C222 1.394 . S
C220 H236 0.931 . S
C221 C220 1.391 . S
C221 C225 1.376 . S
C222 C220 1.394 . S
C222 C223 1.369 . S
C222 C226 1.531 . S
C223 C222 1.369 . S
C223 C224 1.410 . S
C223 C231 1.503 1_545 S
C224 C223 1.410 . S
C224 C225 1.392 . S
C224 C227 1.511 . S
C225 C221 1.376 . S
C225 C224 1.392 . S
C225 H237 0.929 . S
C226 C222 1.531 . S
C226 H238 0.960 . S
C226 H239 0.962 . S
C226 H240 0.960 . S
C227 C224 1.511 . S
C227 H241 0.961 1_554 S
C227 H242 0.961 1_545 S
C227 H243 0.961 . S
C228 C229 1.370 . S
C228 C230 1.363 . S
C228 H244 0.931 . S
C229 C228 1.370 . S
C229 C233 1.408 . S
C230 C228 1.363 . S
C230 C231 1.370 . S
C230 C234 1.524 . S
C231 C223 1.503 1_565 S
C231 C230 1.370 . S
C231 C232 1.403 . S
C232 C231 1.403 . S
C232 C233 1.404 . S
C232 C235 1.539 1_565 S
C233 C229 1.408 . S
C233 C232 1.404 . S
C233 H245 0.930 . S
C234 C230 1.524 . S
C234 H246 0.956 . S
C234 H247 0.961 . S
C234 H248 0.961 . S
C235 C232 1.539 1_545 S
C235 H249 0.958 . S
C235 H250 0.965 . S
C235 H251 0.960 . S
H236 C220 0.931 . S
H237 C225 0.929 . S
H238 C226 0.960 . S
H239 C226 0.962 . S
H240 C226 0.960 . S
H241 C227 0.961 1_556 S
H242 C227 0.961 1_565 S
H243 C227 0.961 . S
H244 C228 0.931 . S
H245 C233 0.930 . S
H246 C234 0.956 . S
H247 C234 0.961 . S
H248 C234 0.961 . S
H249 C235 0.958 . S
H250 C235 0.965 . S
H251 C235 0.960 . S
C252 C253 1.391 . S
C252 C254 1.394 . S
C252 H268 0.931 . S
C253 C252 1.391 . S
C253 C257 1.376 . S
C254 C252 1.394 . S
C254 C255 1.369 . S
C254 C258 1.531 . S
C255 C254 1.369 . S
C255 C256 1.410 . S
C255 C263 1.503 . S
C256 C255 1.410 . S
C256 C257 1.392 . S
C256 C259 1.511 . S
C257 C253 1.376 . S
C257 C256 1.392 . S
C257 H269 0.929 . S
C258 C254 1.531 . S
C258 H270 0.960 . S
C258 H271 0.962 . S
C258 H272 0.960 . S
C259 C256 1.511 . S
C259 H273 0.961 . S
C259 H274 0.961 . S
C259 H275 0.961 . S
C260 C261 1.370 . S
C260 C262 1.363 . S
C260 H276 0.931 . S
C261 C260 1.370 . S
C261 C265 1.408 . S
C262 C260 1.363 . S
C262 C263 1.370 . S
C262 C266 1.524 . S
C263 C255 1.503 . S
C263 C262 1.370 . S
C263 C264 1.403 . S
C264 C263 1.403 . S
C264 C265 1.404 . S
C264 C267 1.539 . S
C265 C261 1.408 . S
C265 C264 1.404 . S
C265 H277 0.930 . S
C266 C262 1.524 . S
C266 H278 0.956 . S
C266 H279 0.961 . S
C266 H280 0.961 . S
C267 C264 1.539 . S
C267 H281 0.958 . S
C267 H282 0.961 . S
C267 H283 0.960 . S
H268 C252 0.931 . S
H269 C257 0.929 . S
H270 C258 0.960 . S
H271 C258 0.962 . S
H272 C258 0.960 . S
H273 C259 0.961 . S
H274 C259 0.961 . S
H275 C259 0.961 . S
H276 C260 0.931 . S
H277 C265 0.930 . S
H278 C266 0.956 . S
H279 C266 0.961 . S
H280 C266 0.961 . S
H281 C267 0.958 . S
H282 C267 0.961 . S
H283 C267 0.960 . S
C284 C285 1.391 . S
C284 C286 1.394 . S
C284 H300 0.931 . S
C285 C284 1.391 . S
C285 C289 1.376 . S
C286 C284 1.394 . S
C286 C287 1.369 . S
C286 C290 1.531 . S
C287 C286 1.369 . S
C287 C288 1.410 . S
C287 C295 1.503 . S
C288 C287 1.410 . S
C288 C289 1.392 . S
C288 C291 1.511 . S
C289 C285 1.376 . S
C289 C288 1.392 . S
C289 H301 0.929 . S
C290 C286 1.531 . S
C290 H302 0.960 . S
C290 H303 0.962 . S
C290 H304 0.960 . S
C291 C288 1.511 . S
C291 H305 0.961 . S
C291 H306 0.961 . S
C291 H307 0.961 . S
C292 C293 1.370 . S
C292 C294 1.363 . S
C292 H308 0.931 . S
C293 C292 1.370 . S
C293 C297 1.408 . S
C294 C292 1.363 . S
C294 C295 1.370 . S
C294 C298 1.524 . S
C295 C287 1.503 . S
C295 C294 1.370 . S
C295 C296 1.403 . S
C296 C295 1.403 . S
C296 C297 1.404 . S
C296 C299 1.539 . S
C297 C293 1.408 . S
C297 C296 1.404 . S
C297 H309 0.930 . S
C298 C294 1.524 . S
C298 H310 0.956 . S
C298 H311 0.961 . S
C298 H312 0.961 . S
C299 C296 1.539 . S
C299 H313 0.958 . S
C299 H314 0.961 . S
C299 H315 0.960 . S
H300 C284 0.931 . S
H301 C289 0.929 . S
H302 C290 0.960 . S
H303 C290 0.962 . S
H304 C290 0.960 . S
H305 C291 0.961 . S
H306 C291 0.961 . S
H307 C291 0.961 . S
H308 C292 0.931 . S
H309 C297 0.930 . S
H310 C298 0.956 . S
H311 C298 0.961 . S
H312 C298 0.961 . S
H313 C299 0.958 . S
H314 C299 0.961 . S
H315 C299 0.960 . S
C316 C317 1.391 . S
C316 C318 1.394 . S
C316 H332 0.931 . S
C317 C316 1.391 . S
C317 C321 1.376 . S
C318 C316 1.394 . S
C318 C319 1.369 1_655 S
C318 C322 1.531 1_655 S
C319 C318 1.369 1_455 S
C319 C320 1.410 1_455 S
C319 C327 1.503 . S
C320 C319 1.410 1_655 S
C320 C321 1.392 . S
C320 C323 1.511 1_655 S
C321 C317 1.376 . S
C321 C320 1.392 . S
C321 H333 0.929 . S
C322 C318 1.531 1_455 S
C322 H334 0.960 . S
C322 H335 0.962 . S
C322 H336 0.960 1_455 S
C323 C320 1.511 1_455 S
C323 H337 0.961 . S
C323 H338 0.961 . S
C323 H339 0.961 . S
C324 C325 1.370 . S
C324 C326 1.363 . S
C324 H340 0.931 . S
C325 C324 1.370 . S
C325 C329 1.408 . S
C326 C324 1.363 . S
C326 C327 1.370 . S
C326 C330 1.524 . S
C327 C319 1.503 . S
C327 C326 1.370 . S
C327 C328 1.403 . S
C328 C327 1.403 . S
C328 C329 1.404 . S
C328 C331 1.539 1_556 S
C329 C325 1.408 . S
C329 C328 1.404 . S
C329 H341 0.930 1_556 S
C330 C326 1.524 . S
C330 H342 0.956 . S
C330 H343 0.961 . S
C330 H344 0.961 . S
C331 C328 1.539 1_554 S
C331 H345 0.958 . S
C331 H346 0.961 . S
C331 H347 0.960 . S
H332 C316 0.931 . S
H333 C321 0.929 . S
H334 C322 0.960 . S
H335 C322 0.962 . S
H336 C322 0.960 1_655 S
H337 C323 0.961 . S
H338 C323 0.961 . S
H339 C323 0.961 . S
H340 C324 0.931 . S
H341 C329 0.930 1_554 S
H342 C330 0.956 . S
H343 C330 0.961 . S
H344 C330 0.961 . S
H345 C331 0.958 . S
H346 C331 0.961 . S
H347 C331 0.960 . S
C348 C349 1.391 . S
C348 C350 1.394 . S
C348 H364 0.931 . S
C349 C348 1.391 . S
C349 C353 1.376 . S
C350 C348 1.394 . S
C350 C351 1.369 . S
C350 C354 1.531 . S
C351 C350 1.369 . S
C351 C352 1.410 . S
C351 C359 1.503 . S
C352 C351 1.410 . S
C352 C353 1.392 . S
C352 C355 1.511 . S
C353 C349 1.376 . S
C353 C352 1.392 . S
C353 H365 0.929 . S
C354 C350 1.531 . S
C354 H366 0.960 . S
C354 H367 0.962 . S
C354 H368 0.960 . S
C355 C352 1.511 . S
C355 H369 0.961 . S
C355 H370 0.961 . S
C355 H371 0.961 . S
C356 C357 1.370 . S
C356 C358 1.363 . S
C356 H372 0.931 . S
C357 C356 1.370 . S
C357 C361 1.408 . S
C358 C356 1.363 . S
C358 C359 1.370 . S
C358 C362 1.524 . S
C359 C351 1.503 . S
C359 C358 1.370 . S
C359 C360 1.403 . S
C360 C359 1.403 . S
C360 C361 1.404 . S
C360 C363 1.539 . S
C361 C357 1.408 . S
C361 C360 1.404 . S
C361 H373 0.930 . S
C362 C358 1.524 . S
C362 H374 0.956 . S
C362 H375 0.961 . S
C362 H376 0.961 . S
C363 C360 1.539 . S
C363 H377 0.958 . S
C363 H378 0.961 . S
C363 H379 0.960 . S
H364 C348 0.931 . S
H365 C353 0.929 . S
H366 C354 0.960 . S
H367 C354 0.962 . S
H368 C354 0.960 . S
H369 C355 0.961 . S
H370 C355 0.961 . S
H371 C355 0.961 . S
H372 C356 0.931 . S
H373 C361 0.930 . S
H374 C362 0.956 . S
H375 C362 0.961 . S
H376 C362 0.961 . S
H377 C363 0.958 . S
H378 C363 0.961 . S
H379 C363 0.960 . S
C380 C381 1.391 . S
C380 C382 1.394 . S
C380 H396 0.931 . S
C381 C380 1.391 . S
C381 C385 1.376 . S
C382 C380 1.394 . S
C382 C383 1.369 . S
C382 C386 1.531 . S
C383 C382 1.369 . S
C383 C384 1.410 . S
C383 C391 1.503 . S
C384 C383 1.410 . S
C384 C385 1.392 . S
C384 C387 1.511 . S
C385 C381 1.376 . S
C385 C384 1.392 . S
C385 H397 0.929 . S
C386 C382 1.531 . S
C386 H398 0.960 . S
C386 H399 0.962 . S
C386 H400 0.960 . S
C387 C384 1.511 . S
C387 H401 0.961 . S
C387 H402 0.961 . S
C387 H403 0.961 . S
C388 C389 1.370 1_455 S
C388 C390 1.363 . S
C388 H404 0.931 . S
C389 C388 1.370 1_655 S
C389 C393 1.408 . S
C390 C388 1.363 . S
C390 C391 1.370 . S
C390 C394 1.524 . S
C391 C383 1.503 . S
C391 C390 1.370 . S
C391 C392 1.403 1_455 S
C392 C391 1.403 1_655 S
C392 C393 1.404 . S
C392 C395 1.539 . S
C393 C389 1.408 . S
C393 C392 1.404 . S
C393 H405 0.930 . S
C394 C390 1.524 . S
C394 H406 0.956 . S
C394 H407 0.961 . S
C394 H408 0.961 . S
C395 C392 1.539 . S
C395 H409 0.958 . S
C395 H410 0.961 . S
C395 H411 0.960 . S
H396 C380 0.931 . S
H397 C385 0.929 . S
H398 C386 0.960 . S
H399 C386 0.962 . S
H400 C386 0.960 . S
H401 C387 0.961 . S
H402 C387 0.961 . S
H403 C387 0.961 . S
H404 C388 0.931 . S
H405 C393 0.930 . S
H406 C394 0.956 . S
H407 C394 0.961 . S
H408 C394 0.961 . S
H409 C395 0.958 . S
H410 C395 0.961 . S
H411 C395 0.960 . S
C412 C413 1.391 . S
C412 C414 1.394 . S
C412 H428 0.931 . S
C413 C412 1.391 . S
C413 C417 1.376 . S
C414 C412 1.394 . S
C414 C415 1.369 1_545 S
C414 C418 1.531 1_545 S
C415 C414 1.369 1_565 S
C415 C416 1.410 1_565 S
C415 C423 1.503 . S
C416 C415 1.410 1_545 S
C416 C417 1.392 . S
C416 C419 1.511 1_545 S
C417 C413 1.376 . S
C417 C416 1.392 . S
C417 H429 0.929 . S
C418 C414 1.531 1_565 S
C418 H430 0.960 . S
C418 H431 0.962 1_565 S
C418 H432 0.960 1_565 S
C419 C416 1.511 1_565 S
C419 H433 0.961 . S
C419 H434 0.961 . S
C419 H435 0.961 . S
C420 C421 1.370 . S
C420 C422 1.363 . S
C420 H436 0.931 . S
C421 C420 1.370 . S
C421 C425 1.408 . S
C422 C420 1.363 . S
C422 C423 1.370 . S
C422 C426 1.524 . S
C423 C415 1.503 . S
C423 C422 1.370 . S
C423 C424 1.403 . S
C424 C423 1.403 . S
C424 C425 1.404 . S
C424 C427 1.539 . S
C425 C421 1.408 . S
C425 C424 1.404 . S
C425 H437 0.930 . S
C426 C422 1.524 . S
C426 H438 0.956 1_565 S
C426 H439 0.961 1_565 S
C426 H440 0.961 . S
C427 C424 1.539 . S
C427 H441 0.958 . S
C427 H442 0.961 . S
C427 H443 0.960 . S
H428 C412 0.931 . S
H429 C417 0.929 . S
H430 C418 0.960 . S
H431 C418 0.962 1_545 S
H432 C418 0.960 1_545 S
H433 C419 0.961 . S
H434 C419 0.961 . S
H435 C419 0.961 . S
H436 C420 0.931 . S
H437 C425 0.930 . S
H438 C426 0.956 1_545 S
H439 C426 0.961 1_545 S
H440 C426 0.961 . S
H441 C427 0.958 . S
H442 C427 0.961 . S
H443 C427 0.960 . S
C444 C445 1.391 . S
C444 C446 1.394 . S
C444 H460 0.931 . S
C445 C444 1.391 . S
C445 C449 1.376 . S
C446 C444 1.394 . S
C446 C447 1.369 . S
C446 C450 1.531 . S
C447 C446 1.369 . S
C447 C448 1.410 . S
C447 C455 1.503 . S
C448 C447 1.410 . S
C448 C449 1.392 . S
C448 C451 1.511 . S
C449 C445 1.376 . S
C449 C448 1.392 . S
C449 H461 0.929 . S
C450 C446 1.531 . S
C450 H462 0.960 . S
C450 H463 0.962 . S
C450 H464 0.960 . S
C451 C448 1.511 . S
C451 H465 0.961 . S
C451 H466 0.961 . S
C451 H467 0.961 . S
C452 C453 1.370 . S
C452 C454 1.363 . S
C452 H468 0.931 . S
C453 C452 1.370 . S
C453 C457 1.408 . S
C454 C452 1.363 . S
C454 C455 1.370 . S
C454 C458 1.524 . S
C455 C447 1.503 . S
C455 C454 1.370 . S
C455 C456 1.403 . S
C456 C455 1.403 . S
C456 C457 1.404 . S
C456 C459 1.539 . S
C457 C453 1.408 . S
C457 C456 1.404 . S
C457 H469 0.930 . S
C458 C454 1.524 . S
C458 H470 0.956 . S
C458 H471 0.961 . S
C458 H472 0.961 . S
C459 C456 1.539 . S
C459 H473 0.958 . S
C459 H474 0.961 . S
C459 H475 0.960 . S
H460 C444 0.931 . S
H461 C449 0.929 . S
H462 C450 0.960 . S
H463 C450 0.962 . S
H464 C450 0.960 . S
H465 C451 0.961 . S
H466 C451 0.961 . S
H467 C451 0.961 . S
H468 C452 0.931 . S
H469 C457 0.930 . S
H470 C458 0.956 . S
H471 C458 0.961 . S
H472 C458 0.961 . S
H473 C459 0.958 . S
H474 C459 0.961 . S
H475 C459 0.960 . S
C476 C477 1.391 . S
C476 C478 1.394 . S
C476 H492 0.931 . S
C477 C476 1.391 . S
C477 C481 1.379 . S
C478 C476 1.394 . S
C478 C479 1.369 1_565 S
C478 C482 1.531 1_565 S
C479 C478 1.369 1_545 S
C479 C480 1.410 . S
C479 C487 1.503 . S
C480 C479 1.410 . S
C480 C481 1.400 1_545 S
C480 C483 1.511 . S
C481 C477 1.379 . S
C481 C480 1.400 1_565 S
C481 H493 0.918 1_556 S
C482 C478 1.531 1_545 S
C482 H494 0.960 . S
C482 H495 0.962 . S
C482 H496 0.960 1_545 S
C483 C480 1.511 . S
C483 H497 0.961 1_556 S
C483 H498 0.961 1_556 S
C483 H499 0.961 . S
C484 C485 1.370 . S
C484 C486 1.363 . S
C484 H500 0.931 1_556 S
C485 C484 1.370 . S
C485 C489 1.408 . S
C486 C484 1.363 . S
C486 C487 1.370 . S
C486 C490 1.524 1_556 S
C487 C479 1.503 . S
C487 C486 1.370 . S
C487 C488 1.403 . S
C488 C487 1.403 . S
C488 C489 1.404 . S
C488 C491 1.539 . S
C489 C485 1.408 . S
C489 C488 1.404 . S
C489 H501 0.930 . S
C490 C486 1.524 1_554 S
C490 H502 0.956 . S
C490 H503 0.961 . S
C490 H504 0.961 . S
C491 C488 1.539 . S
C491 H505 0.958 . S
C491 H506 0.961 . S
C491 H507 0.960 . S
H492 C476 0.931 . S
H493 C481 0.918 1_554 S
H494 C482 0.960 . S
H495 C482 0.962 . S
H496 C482 0.960 1_565 S
H497 C483 0.961 1_554 S
H498 C483 0.961 1_554 S
H499 C483 0.961 . S
H500 C484 0.931 1_554 S
H501 C489 0.930 . S
H502 C490 0.956 . S
H503 C490 0.961 . S
H504 C490 0.961 . S
H505 C491 0.958 . S
H506 C491 0.961 . S
H507 C491 0.960 . S
C508 C509 1.391 . S
C508 C510 1.394 . S
C508 H524 0.931 . S
C509 C508 1.391 . S
C509 C513 1.376 . S
C510 C508 1.394 . S
C510 C511 1.369 . S
C510 C514 1.531 . S
C511 C510 1.369 . S
C511 C512 1.410 . S
C511 C519 1.503 . S
C512 C511 1.410 . S
C512 C513 1.392 . S
C512 C515 1.511 . S
C513 C509 1.376 . S
C513 C512 1.392 . S
C513 H525 0.929 . S
C514 C510 1.531 . S
C514 H526 0.960 . S
C514 H527 0.962 . S
C514 H528 0.960 . S
C515 C512 1.511 . S
C515 H529 0.961 . S
C515 H530 0.961 . S
C515 H531 0.961 . S
C516 C517 1.370 . S
C516 C518 1.363 . S
C516 H532 0.931 . S
C517 C516 1.370 . S
C517 C521 1.408 . S
C518 C516 1.363 . S
C518 C519 1.370 . S
C518 C522 1.524 . S
C519 C511 1.503 . S
C519 C518 1.370 . S
C519 C520 1.403 . S
C520 C519 1.403 . S
C520 C521 1.404 . S
C520 C523 1.539 . S
C521 C517 1.408 . S
C521 C520 1.404 . S
C521 H533 0.930 . S
C522 C518 1.524 . S
C522 H534 0.956 . S
C522 H535 0.961 . S
C522 H536 0.961 . S
C523 C520 1.539 . S
C523 H537 0.958 . S
C523 H538 0.961 . S
C523 H539 0.960 . S
H524 C508 0.931 . S
H525 C513 0.929 . S
H526 C514 0.960 . S
H527 C514 0.962 . S
H528 C514 0.960 . S
H529 C515 0.961 . S
H530 C515 0.961 . S
H531 C515 0.961 . S
H532 C516 0.931 . S
H533 C521 0.930 . S
H534 C522 0.956 . S
H535 C522 0.961 . S
H536 C522 0.961 . S
H537 C523 0.958 . S
H538 C523 0.961 . S
H539 C523 0.960 . S
C540 C541 1.391 . S
C540 C542 1.394 . S
C540 H556 0.931 . S
C541 C540 1.391 . S
C541 C545 1.376 . S
C542 C540 1.394 . S
C542 C543 1.369 . S
C542 C546 1.531 . S
C543 C542 1.369 . S
C543 C544 1.410 . S
C543 C551 1.503 . S
C544 C543 1.410 . S
C544 C545 1.392 . S
C544 C547 1.511 . S
C545 C541 1.376 . S
C545 C544 1.392 . S
C545 H557 0.929 . S
C546 C542 1.531 . S
C546 H558 0.960 . S
C546 H559 0.962 . S
C546 H560 0.960 . S
C547 C544 1.511 . S
C547 H561 0.961 . S
C547 H562 0.961 . S
C547 H563 0.961 . S
C548 C549 1.370 . S
C548 C550 1.363 . S
C548 H564 0.931 . S
C549 C548 1.370 . S
C549 C553 1.408 . S
C550 C548 1.363 . S
C550 C551 1.370 . S
C550 C554 1.524 . S
C551 C543 1.503 . S
C551 C550 1.370 . S
C551 C552 1.403 . S
C552 C551 1.403 . S
C552 C553 1.404 . S
C552 C555 1.539 . S
C553 C549 1.408 . S
C553 C552 1.404 . S
C553 H565 0.930 . S
C554 C550 1.524 . S
C554 H566 0.956 . S
C554 H567 0.961 . S
C554 H568 0.961 . S
C555 C552 1.539 . S
C555 H569 0.958 . S
C555 H570 0.961 . S
C555 H571 0.960 . S
H556 C540 0.931 . S
H557 C545 0.929 . S
H558 C546 0.960 . S
H559 C546 0.962 . S
H560 C546 0.960 . S
H561 C547 0.961 . S
H562 C547 0.961 . S
H563 C547 0.961 . S
H564 C548 0.931 . S
H565 C553 0.930 . S
H566 C554 0.956 . S
H567 C554 0.961 . S
H568 C554 0.961 . S
H569 C555 0.958 . S
H570 C555 0.961 . S
H571 C555 0.960 . S
C572 C573 1.391 . S
C572 C574 1.394 1_455 S
C572 H588 0.931 . S
C573 C572 1.391 . S
C573 C577 1.376 . S
C574 C572 1.394 1_655 S
C574 C575 1.369 . S
C574 C578 1.531 . S
C575 C574 1.369 . S
C575 C576 1.410 . S
C575 C583 1.503 . S
C576 C575 1.410 . S
C576 C577 1.392 1_655 S
C576 C579 1.511 . S
C577 C573 1.376 . S
C577 C576 1.392 1_455 S
C577 H589 0.929 . S
C578 C574 1.531 . S
C578 H590 0.960 . S
C578 H591 0.962 . S
C578 H592 0.960 . S
C579 C576 1.511 . S
C579 H593 0.961 . S
C579 H594 0.961 . S
C579 H595 0.961 . S
C580 C581 1.370 . S
C580 C582 1.363 . S
C580 H596 0.931 . S
C581 C580 1.370 . S
C581 C585 1.408 . S
C582 C580 1.363 . S
C582 C583 1.370 . S
C582 C586 1.524 . S
C583 C575 1.503 . S
C583 C582 1.370 . S
C583 C584 1.403 . S
C584 C583 1.403 . S
C584 C585 1.404 . S
C584 C587 1.539 . S
C585 C581 1.408 . S
C585 C584 1.404 . S
C585 H597 0.930 . S
C586 C582 1.524 . S
C586 H598 0.956 . S
C586 H599 0.961 . S
C586 H600 0.961 . S
C587 C584 1.539 . S
C587 H601 0.958 . S
C587 H602 0.961 . S
C587 H603 0.960 . S
H588 C572 0.931 . S
H589 C577 0.929 . S
H590 C578 0.960 . S
H591 C578 0.962 . S
H592 C578 0.960 . S
H593 C579 0.961 . S
H594 C579 0.961 . S
H595 C579 0.961 . S
H596 C580 0.931 . S
H597 C585 0.930 . S
H598 C586 0.956 . S
H599 C586 0.961 . S
H600 C586 0.961 . S
H601 C587 0.958 . S
H602 C587 0.961 . S
H603 C587 0.960 . S
C604 C605 1.391 . S
C604 C606 1.394 . S
C604 H620 0.931 . S
C605 C604 1.391 . S
C605 C609 1.376 . S
C606 C604 1.394 . S
C606 C607 1.369 . S
C606 C610 1.531 . S
C607 C606 1.369 . S
C607 C608 1.410 . S
C607 C615 1.503 . S
C608 C607 1.410 . S
C608 C609 1.392 . S
C608 C611 1.511 . S
C609 C605 1.376 . S
C609 C608 1.392 . S
C609 H621 0.929 . S
C610 C606 1.531 . S
C610 H622 0.960 . S
C610 H623 0.962 . S
C610 H624 0.960 . S
C611 C608 1.511 . S
C611 H625 0.961 . S
C611 H626 0.961 . S
C611 H627 0.961 . S
C612 C613 1.370 . S
C612 C614 1.363 . S
C612 H628 0.931 . S
C613 C612 1.370 . S
C613 C617 1.408 . S
C614 C612 1.363 . S
C614 C615 1.370 . S
C614 C618 1.524 . S
C615 C607 1.503 . S
C615 C614 1.370 . S
C615 C616 1.403 . S
C616 C615 1.403 . S
C616 C617 1.404 . S
C616 C619 1.539 . S
C617 C613 1.408 . S
C617 C616 1.404 . S
C617 H629 0.930 . S
C618 C614 1.524 . S
C618 H630 0.956 . S
C618 H631 0.961 . S
C618 H632 0.961 . S
C619 C616 1.539 . S
C619 H633 0.958 . S
C619 H634 0.961 . S
C619 H635 0.960 . S
H620 C604 0.931 . S
H621 C609 0.929 . S
H622 C610 0.960 . S
H623 C610 0.962 . S
H624 C610 0.960 . S
H625 C611 0.961 . S
H626 C611 0.961 . S
H627 C611 0.961 . S
H628 C612 0.931 . S
H629 C617 0.930 . S
H630 C618 0.956 . S
H631 C618 0.961 . S
H632 C618 0.961 . S
H633 C619 0.958 . S
H634 C619 0.961 . S
H635 C619 0.960 . S
C636 C637 1.391 . S
C636 C638 1.394 . S
C636 H652 0.931 . S
C637 C636 1.391 . S
C637 C641 1.376 . S
C638 C636 1.394 . S
C638 C639 1.369 . S
C638 C642 1.531 . S
C639 C638 1.369 . S
C639 C640 1.410 . S
C639 C647 1.503 1_655 S
C640 C639 1.410 . S
C640 C641 1.392 . S
C640 C643 1.511 . S
C641 C637 1.376 . S
C641 C640 1.392 . S
C641 H653 0.929 . S
C642 C638 1.531 . S
C642 H654 0.960 . S
C642 H655 0.962 . S
C642 H656 0.960 . S
C643 C640 1.511 . S
C643 H657 0.961 . S
C643 H658 0.961 1_655 S
C643 H659 0.961 . S
C644 C645 1.370 . S
C644 C646 1.363 . S
C644 H660 0.931 . S
C645 C644 1.370 . S
C645 C649 1.408 . S
C646 C644 1.363 . S
C646 C647 1.370 . S
C646 C650 1.524 . S
C647 C639 1.503 1_455 S
C647 C646 1.370 . S
C647 C648 1.403 1_455 S
C648 C647 1.403 1_655 S
C648 C649 1.404 1_655 S
C648 C651 1.539 . S
C649 C645 1.408 . S
C649 C648 1.404 1_455 S
C649 H661 0.930 . S
C650 C646 1.524 . S
C650 H662 0.956 . S
C650 H663 0.961 . S
C650 H664 0.961 . S
C651 C648 1.539 . S
C651 H665 0.958 . S
C651 H666 0.961 . S
C651 H667 0.960 . S
H652 C636 0.931 . S
H653 C641 0.929 . S
H654 C642 0.960 . S
H655 C642 0.962 . S
H656 C642 0.960 . S
H657 C643 0.961 . S
H658 C643 0.961 1_455 S
H659 C643 0.961 . S
H660 C644 0.931 . S
H661 C649 0.930 . S
H662 C650 0.956 . S
H663 C650 0.961 . S
H664 C650 0.961 . S
H665 C651 0.958 . S
H666 C651 0.961 . S
H667 C651 0.960 . S
C668 C669 1.391 . S
C668 C670 1.394 . S
C668 H684 0.931 . S
C669 C668 1.391 . S
C669 C673 1.376 . S
C670 C668 1.394 . S
C670 C671 1.369 . S
C670 C674 1.531 . S
C671 C670 1.369 . S
C671 C672 1.410 . S
C671 C679 1.503 . S
C672 C671 1.410 . S
C672 C673 1.392 . S
C672 C675 1.511 . S
C673 C669 1.376 . S
C673 C672 1.392 . S
C673 H685 0.929 . S
C674 C670 1.531 . S
C674 H686 0.960 . S
C674 H687 0.962 . S
C674 H688 0.960 . S
C675 C672 1.511 . S
C675 H689 0.961 . S
C675 H690 0.961 . S
C675 H691 0.961 . S
C676 C677 1.370 . S
C676 C678 1.363 . S
C676 H692 0.931 . S
C677 C676 1.370 . S
C677 C681 1.408 . S
C678 C676 1.363 . S
C678 C679 1.370 . S
C678 C682 1.524 . S
C679 C671 1.503 . S
C679 C678 1.370 . S
C679 C680 1.403 . S
C680 C679 1.403 . S
C680 C681 1.404 . S
C680 C683 1.539 . S
C681 C677 1.408 . S
C681 C680 1.404 . S
C681 H693 0.930 . S
C682 C678 1.524 . S
C682 H694 0.956 . S
C682 H695 0.961 . S
C682 H696 0.961 . S
C683 C680 1.539 . S
C683 H697 0.958 . S
C683 H698 0.961 . S
C683 H699 0.960 . S
H684 C668 0.931 . S
H685 C673 0.929 . S
H686 C674 0.960 . S
H687 C674 0.962 . S
H688 C674 0.960 . S
H689 C675 0.961 . S
H690 C675 0.961 . S
H691 C675 0.961 . S
H692 C676 0.931 . S
H693 C681 0.930 . S
H694 C682 0.956 . S
H695 C682 0.961 . S
H696 C682 0.961 . S
H697 C683 0.958 . S
H698 C683 0.961 . S
H699 C683 0.960 . S
C700 C701 1.391 . S
C700 C702 1.394 . S
C700 H716 0.931 . S
C701 C700 1.391 . S
C701 C705 1.376 . S
C702 C700 1.394 . S
C702 C703 1.369 . S
C702 C706 1.531 . S
C703 C702 1.369 . S
C703 C704 1.410 . S
C703 C711 1.503 . S
C704 C703 1.410 . S
C704 C705 1.392 . S
C704 C707 1.511 . S
C705 C701 1.376 . S
C705 C704 1.392 . S
C705 H717 0.929 . S
C706 C702 1.531 . S
C706 H718 0.960 . S
C706 H719 0.962 . S
C706 H720 0.960 . S
C707 C704 1.511 . S
C707 H721 0.961 . S
C707 H722 0.961 . S
C707 H723 0.961 . S
C708 C709 1.370 . S
C708 C710 1.363 . S
C708 H724 0.931 . S
C709 C708 1.370 . S
C709 C713 1.408 . S
C710 C708 1.363 . S
C710 C711 1.370 . S
C710 C714 1.524 . S
C711 C703 1.503 . S
C711 C710 1.370 . S
C711 C712 1.403 . S
C712 C711 1.403 . S
C712 C713 1.404 . S
C712 C715 1.539 . S
C713 C709 1.408 . S
C713 C712 1.404 . S
C713 H725 0.930 . S
C714 C710 1.524 . S
C714 H726 0.956 . S
C714 H727 0.961 . S
C714 H728 0.961 . S
C715 C712 1.539 . S
C715 H729 0.958 . S
C715 H730 0.961 . S
C715 H731 0.960 . S
H716 C700 0.931 . S
H717 C705 0.929 . S
H718 C706 0.960 . S
H719 C706 0.962 . S
H720 C706 0.960 . S
H721 C707 0.961 . S
H722 C707 0.961 . S
H723 C707 0.961 . S
H724 C708 0.931 . S
H725 C713 0.930 . S
H726 C714 0.956 . S
H727 C714 0.961 . S
H728 C714 0.961 . S
H729 C715 0.958 . S
H730 C715 0.961 . S
H731 C715 0.960 . S
C732 C733 1.391 . S
C732 C734 1.394 . S
C732 H748 0.931 . S
C733 C732 1.391 . S
C733 C737 1.376 . S
C734 C732 1.394 . S
C734 C735 1.369 . S
C734 C738 1.531 . S
C735 C734 1.369 . S
C735 C736 1.410 . S
C735 C743 1.503 . S
C736 C735 1.410 . S
C736 C737 1.392 . S
C736 C739 1.511 . S
C737 C733 1.376 . S
C737 C736 1.392 . S
C737 H749 0.929 . S
C738 C734 1.531 . S
C738 H750 0.960 . S
C738 H751 0.962 . S
C738 H752 0.960 . S
C739 C736 1.511 . S
C739 H753 0.961 . S
C739 H754 0.961 . S
C739 H755 0.961 . S
C740 C741 1.370 . S
C740 C742 1.363 . S
C740 H756 0.931 . S
C741 C740 1.370 . S
C741 C745 1.408 . S
C742 C740 1.363 . S
C742 C743 1.370 . S
C742 C746 1.524 . S
C743 C735 1.503 . S
C743 C742 1.370 . S
C743 C744 1.403 . S
C744 C743 1.403 . S
C744 C745 1.404 . S
C744 C747 1.539 . S
C745 C741 1.408 . S
C745 C744 1.404 . S
C745 H757 0.930 . S
C746 C742 1.524 . S
C746 H758 0.956 . S
C746 H759 0.961 . S
C746 H760 0.961 . S
C747 C744 1.539 . S
C747 H761 0.958 . S
C747 H762 0.961 . S
C747 H763 0.960 . S
H748 C732 0.931 . S
H749 C737 0.929 . S
H750 C738 0.960 . S
H751 C738 0.962 . S
H752 C738 0.960 . S
H753 C739 0.961 . S
H754 C739 0.961 . S
H755 C739 0.961 . S
H756 C740 0.931 . S
H757 C745 0.930 . S
H758 C746 0.956 . S
H759 C746 0.961 . S
H760 C746 0.961 . S
H761 C747 0.958 . S
H762 C747 0.961 . S
H763 C747 0.960 . S
C764 C765 1.391 . S
C764 C766 1.394 . S
C764 H780 0.931 . S
C765 C764 1.391 . S
C765 C769 1.376 . S
C766 C764 1.394 . S
C766 C767 1.369 . S
C766 C770 1.531 . S
C767 C766 1.369 . S
C767 C768 1.410 . S
C767 C775 1.503 . S
C768 C767 1.410 . S
C768 C769 1.392 . S
C768 C771 1.511 . S
C769 C765 1.376 . S
C769 C768 1.392 . S
C769 H781 0.929 . S
C770 C766 1.531 . S
C770 H782 0.960 . S
C770 H783 0.962 . S
C770 H784 0.960 . S
C771 C768 1.511 . S
C771 H785 0.961 . S
C771 H786 0.961 . S
C771 H787 0.961 . S
C772 C773 1.370 . S
C772 C774 1.363 . S
C772 H788 0.931 . S
C773 C772 1.370 . S
C773 C777 1.408 . S
C774 C772 1.363 . S
C774 C775 1.370 . S
C774 C778 1.524 . S
C775 C767 1.503 . S
C775 C774 1.370 . S
C775 C776 1.403 . S
C776 C775 1.403 . S
C776 C777 1.404 . S
C776 C779 1.539 . S
C777 C773 1.408 . S
C777 C776 1.404 . S
C777 H789 0.930 . S
C778 C774 1.524 . S
C778 H790 0.956 . S
C778 H791 0.961 . S
C778 H792 0.961 . S
C779 C776 1.539 . S
C779 H793 0.958 . S
C779 H794 0.961 . S
C779 H795 0.960 . S
H780 C764 0.931 . S
H781 C769 0.929 . S
H782 C770 0.960 . S
H783 C770 0.962 . S
H784 C770 0.960 . S
H785 C771 0.961 . S
H786 C771 0.961 . S
H787 C771 0.961 . S
H788 C772 0.931 . S
H789 C777 0.930 . S
H790 C778 0.956 . S
H791 C778 0.961 . S
H792 C778 0.961 . S
H793 C779 0.958 . S
H794 C779 0.961 . S
H795 C779 0.960 . S
C796 C797 1.391 . S
C796 C798 1.394 . S
C796 H812 0.931 . S
C797 C796 1.391 . S
C797 C801 1.376 . S
C798 C796 1.394 . S
C798 C799 1.369 . S
C798 C802 1.531 . S
C799 C798 1.369 . S
C799 C800 1.410 . S
C799 C807 1.503 . S
C800 C799 1.410 . S
C800 C801 1.392 . S
C800 C803 1.511 . S
C801 C797 1.376 . S
C801 C800 1.392 . S
C801 H813 0.929 . S
C802 C798 1.531 . S
C802 H814 0.960 . S
C802 H815 0.962 . S
C802 H816 0.960 . S
C803 C800 1.511 . S
C803 H817 0.961 . S
C803 H818 0.961 . S
C803 H819 0.961 . S
C804 C805 1.370 . S
C804 C806 1.363 . S
C804 H820 0.931 . S
C805 C804 1.370 . S
C805 C809 1.408 . S
C806 C804 1.363 . S
C806 C807 1.370 . S
C806 C810 1.524 . S
C807 C799 1.503 . S
C807 C806 1.370 . S
C807 C808 1.403 . S
C808 C807 1.403 . S
C808 C809 1.404 . S
C808 C811 1.539 . S
C809 C805 1.408 . S
C809 C808 1.404 . S
C809 H821 0.930 . S
C810 C806 1.524 . S
C810 H822 0.956 . S
C810 H823 0.961 . S
C810 H824 0.961 . S
C811 C808 1.539 . S
C811 H825 0.958 . S
C811 H826 0.961 . S
C811 H827 0.960 . S
H812 C796 0.931 . S
H813 C801 0.929 . S
H814 C802 0.960 . S
H815 C802 0.962 . S
H816 C802 0.960 . S
H817 C803 0.961 . S
H818 C803 0.961 . S
H819 C803 0.961 . S
H820 C804 0.931 . S
H821 C809 0.930 . S
H822 C810 0.956 . S
H823 C810 0.961 . S
H824 C810 0.961 . S
H825 C811 0.958 . S
H826 C811 0.961 . S
H827 C811 0.960 . S
C828 C829 1.391 . S
C828 C830 1.394 . S
C828 H844 0.931 . S
C829 C828 1.391 . S
C829 C833 1.376 . S
C830 C828 1.394 . S
C830 C831 1.369 . S
C830 C834 1.531 . S
C831 C830 1.369 . S
C831 C832 1.410 . S
C831 C839 1.503 . S
C832 C831 1.410 . S
C832 C833 1.392 . S
C832 C835 1.511 . S
C833 C829 1.376 . S
C833 C832 1.392 . S
C833 H845 0.929 . S
C834 C830 1.531 . S
C834 H846 0.960 . S
C834 H847 0.962 . S
C834 H848 0.960 . S
C835 C832 1.511 . S
C835 H849 0.961 . S
C835 H850 0.961 . S
C835 H851 0.961 . S
C836 C837 1.370 . S
C836 C838 1.363 . S
C836 H852 0.931 . S
C837 C836 1.370 . S
C837 C841 1.408 . S
C838 C836 1.363 . S
C838 C839 1.370 . S
C838 C842 1.524 . S
C839 C831 1.503 . S
C839 C838 1.370 . S
C839 C840 1.403 . S
C840 C839 1.403 . S
C840 C841 1.404 . S
C840 C843 1.539 . S
C841 C837 1.408 . S
C841 C840 1.404 . S
C841 H853 0.930 . S
C842 C838 1.524 . S
C842 H854 0.956 . S
C842 H855 0.961 . S
C842 H856 0.961 . S
C843 C840 1.539 . S
C843 H857 0.958 . S
C843 H858 0.961 . S
C843 H859 0.960 . S
H844 C828 0.931 . S
H845 C833 0.929 . S
H846 C834 0.960 . S
H847 C834 0.962 . S
H848 C834 0.960 . S
H849 C835 0.961 . S
H850 C835 0.961 . S
H851 C835 0.961 . S
H852 C836 0.931 . S
H853 C841 0.930 . S
H854 C842 0.956 . S
H855 C842 0.961 . S
H856 C842 0.961 . S
H857 C843 0.958 . S
H858 C843 0.961 . S
H859 C843 0.960 . S
C860 C861 1.391 . S
C860 C862 1.394 . S
C860 H876 0.931 . S
C861 C860 1.391 . S
C861 C865 1.376 . S
C862 C860 1.394 . S
C862 C863 1.369 . S
C862 C866 1.531 . S
C863 C862 1.369 . S
C863 C864 1.410 . S
C863 C871 1.503 . S
C864 C863 1.410 . S
C864 C865 1.392 . S
C864 C867 1.511 . S
C865 C861 1.376 . S
C865 C864 1.392 . S
C865 H877 0.929 . S
C866 C862 1.531 . S
C866 H878 0.960 . S
C866 H879 0.962 . S
C866 H880 0.960 . S
C867 C864 1.511 . S
C867 H881 0.961 . S
C867 H882 0.961 . S
C867 H883 0.961 . S
C868 C869 1.370 . S
C868 C870 1.363 . S
C868 H884 0.931 . S
C869 C868 1.370 . S
C869 C873 1.408 . S
C870 C868 1.363 . S
C870 C871 1.370 . S
C870 C874 1.524 . S
C871 C863 1.503 . S
C871 C870 1.370 . S
C871 C872 1.403 . S
C872 C871 1.403 . S
C872 C873 1.404 . S
C872 C875 1.539 . S
C873 C869 1.408 . S
C873 C872 1.404 . S
C873 H885 0.930 . S
C874 C870 1.524 . S
C874 H886 0.956 . S
C874 H887 0.961 . S
C874 H888 0.961 . S
C875 C872 1.539 . S
C875 H889 0.958 . S
C875 H890 0.961 . S
C875 H891 0.960 . S
H876 C860 0.931 . S
H877 C865 0.929 . S
H878 C866 0.960 . S
H879 C866 0.962 . S
H880 C866 0.960 . S
H881 C867 0.961 . S
H882 C867 0.961 . S
H883 C867 0.961 . S
H884 C868 0.931 . S
H885 C873 0.930 . S
H886 C874 0.956 . S
H887 C874 0.961 . S
H888 C874 0.961 . S
H889 C875 0.958 . S
H890 C875 0.961 . S
H891 C875 0.960 . S
C892 C893 1.391 . S
C892 C894 1.394 . S
C892 H908 0.931 1_556 S
C893 C892 1.391 . S
C893 C897 1.376 . S
C894 C892 1.394 . S
C894 C895 1.369 . S
C894 C898 1.531 . S
C895 C894 1.369 . S
C895 C896 1.410 . S
C895 C903 1.503 . S
C896 C895 1.410 . S
C896 C897 1.392 . S
C896 C899 1.511 . S
C897 C893 1.376 . S
C897 C896 1.392 . S
C897 H909 0.929 . S
C898 C894 1.531 . S
C898 H910 0.960 . S
C898 H911 0.962 . S
C898 H912 0.960 . S
C899 C896 1.511 . S
C899 H913 0.961 . S
C899 H914 0.961 . S
C899 H915 0.961 . S
C900 C901 1.370 . S
C900 C902 1.363 . S
C900 H916 0.931 . S
C901 C900 1.370 . S
C901 C905 1.408 . S
C902 C900 1.363 . S
C902 C903 1.370 . S
C902 C906 1.524 1_556 S
C903 C895 1.503 . S
C903 C902 1.370 . S
C903 C904 1.403 . S
C904 C903 1.403 . S
C904 C905 1.404 . S
C904 C907 1.539 . S
C905 C901 1.408 . S
C905 C904 1.404 . S
C905 H917 0.930 . S
C906 C902 1.524 1_554 S
C906 H918 0.956 . S
C906 H919 0.961 . S
C906 H920 0.961 . S
C907 C904 1.539 . S
C907 H921 0.958 . S
C907 H922 0.961 . S
C907 H923 0.960 . S
H908 C892 0.931 1_554 S
H909 C897 0.929 . S
H910 C898 0.960 . S
H911 C898 0.962 . S
H912 C898 0.960 . S
H913 C899 0.961 . S
H914 C899 0.961 . S
H915 C899 0.961 . S
H916 C900 0.931 . S
H917 C905 0.930 . S
H918 C906 0.956 . S
H919 C906 0.961 . S
H920 C906 0.961 . S
H921 C907 0.958 . S
H922 C907 0.961 . S
H923 C907 0.960 . S
C157 C7 0.796 . S
C165 C89 0.787 . S
C189 C25 0.736 . S
C197 C97 0.861 . S
C221 C46 0.837 . S
C229 C106 0.921 . S
C261 C116 0.895 . S
C253 C70 0.810 . S
C293 C125 0.815 . S
C285 C28 0.704 . S
C317 C49 0.935 . S
C325 C134 0.904 . S
C349 C67 0.918 . S
C357 C142 0.923 . S
C381 C4 0.898 . S
C389 C152 0.828 . S
C413 C58 1.632 . S
C421 C151 1.703 . S
C453 C124 1.488 . S
C445 C66 1.395 . S
C485 C133 1.657 . S
C477 C3 1.621 . S
C509 C37 1.640 . S
C517 C143 1.712 . S
C549 C98 1.702 . S
C541 C79 1.633 . S
C573 C16 1.649 . S
C581 C107 1.713 . S
C613 C115 1.661 . S
C605 C24 1.610 . S
C645 C88 1.492 . S
C637 C45 1.383 . S
C677 C145 1.417 . S
C669 C19 1.185 . S
C709 C154 1.306 . S
C701 C41 1.118 . S
C733 C62 1.015 . S
C741 C127 1.159 . S
C773 C136 1.297 . S
C765 C82 1.155 . S
C805 C109 1.424 . S
C797 C40 1.156 . S
C829 C61 1.142 . S
C837 C118 1.295 . S
C869 C91 1.166 . S
C861 C83 1.032 . S
C901 C100 1.299 . S
C893 C20 1.121 . S
