# Generated by pormake.
# Topology zzz, (3,6)-cn, num edge types: 1
# Building blocks:
#     Node 0, Type 0, BuildingBlock: BETDAH_clean_linker_0, # of connection points: 3
#     Node 1, Type 0, BuildingBlock: BETDAH_clean_linker_0, # of connection points: 3
#     Node 2, Type 0, BuildingBlock: BETDAH_clean_linker_0, # of connection points: 3
#     Node 3, Type 0, BuildingBlock: BETDAH_clean_linker_0, # of connection points: 3
#     Node 4, Type 0, BuildingBlock: BETDAH_clean_linker_0, # of connection points: 3
#     Node 5, Type 0, BuildingBlock: BETDAH_clean_linker_0, # of connection points: 3
#     Node 6, Type 0, BuildingBlock: BETDAH_clean_linker_0, # of connection points: 3
#     Node 7, Type 0, BuildingBlock: BETDAH_clean_linker_0, # of connection points: 3
#     Node 8, Type 1, BuildingBlock: BETDEL_clean_sbu_0, # of connection points: 6
#     Node 9, Type 1, BuildingBlock: BETDEL_clean_sbu_0, # of connection points: 6
#     Node 10, Type 1, BuildingBlock: BETDEL_clean_sbu_0, # of connection points: 6
#     Node 11, Type 1, BuildingBlock: BETDEL_clean_sbu_0, # of connection points: 6
#     Edge 12, Type (0, 1), BuildingBlock: XUDNAN_clean_linker_2, # of connection points: 2
#     Edge 13, Type (0, 1), BuildingBlock: XUDNAN_clean_linker_2, # of connection points: 2
#     Edge 14, Type (0, 1), BuildingBlock: XUDNAN_clean_linker_2, # of connection points: 2
#     Edge 15, Type (0, 1), BuildingBlock: XUDNAN_clean_linker_2, # of connection points: 2
#     Edge 16, Type (0, 1), BuildingBlock: XUDNAN_clean_linker_2, # of connection points: 2
#     Edge 17, Type (0, 1), BuildingBlock: XUDNAN_clean_linker_2, # of connection points: 2
#     Edge 18, Type (0, 1), BuildingBlock: XUDNAN_clean_linker_2, # of connection points: 2
#     Edge 19, Type (0, 1), BuildingBlock: XUDNAN_clean_linker_2, # of connection points: 2
#     Edge 20, Type (0, 1), BuildingBlock: XUDNAN_clean_linker_2, # of connection points: 2
#     Edge 21, Type (0, 1), BuildingBlock: XUDNAN_clean_linker_2, # of connection points: 2
#     Edge 22, Type (0, 1), BuildingBlock: XUDNAN_clean_linker_2, # of connection points: 2
#     Edge 23, Type (0, 1), BuildingBlock: XUDNAN_clean_linker_2, # of connection points: 2
#     Edge 24, Type (0, 1), BuildingBlock: XUDNAN_clean_linker_2, # of connection points: 2
#     Edge 25, Type (0, 1), BuildingBlock: XUDNAN_clean_linker_2, # of connection points: 2
#     Edge 26, Type (0, 1), BuildingBlock: XUDNAN_clean_linker_2, # of connection points: 2
#     Edge 27, Type (0, 1), BuildingBlock: XUDNAN_clean_linker_2, # of connection points: 2
#     Edge 28, Type (0, 1), BuildingBlock: XUDNAN_clean_linker_2, # of connection points: 2
#     Edge 29, Type (0, 1), BuildingBlock: XUDNAN_clean_linker_2, # of connection points: 2
#     Edge 30, Type (0, 1), BuildingBlock: XUDNAN_clean_linker_2, # of connection points: 2
#     Edge 31, Type (0, 1), BuildingBlock: XUDNAN_clean_linker_2, # of connection points: 2
#     Edge 32, Type (0, 1), BuildingBlock: XUDNAN_clean_linker_2, # of connection points: 2
#     Edge 33, Type (0, 1), BuildingBlock: XUDNAN_clean_linker_2, # of connection points: 2
#     Edge 34, Type (0, 1), BuildingBlock: XUDNAN_clean_linker_2, # of connection points: 2
#     Edge 35, Type (0, 1), BuildingBlock: XUDNAN_clean_linker_2, # of connection points: 2
# Relax obj value: 0.158
# Max RMSD: 0.176
# Mean RMSD: 0.116
data_MOF--net-zzz--node1-BETDEL_clean_sbu_0--node2-BETDAH_clean_linker_0--edge1-XUDNAN_clean_linker_2
_symmetry_space_group_name_H-M    P1
_symmetry_Int_Tables_number       1
_symmetry_cell_setting            triclinic
loop_
_symmetry_equiv_pos_as_xyz
'x, y, z'
_cell_length_a     49.591985
_cell_length_b     50.846469
_cell_length_c     14.90883
_cell_angle_alpha  91.478113
_cell_angle_beta   88.293473
_cell_angle_gamma 95.013967
loop_
_atom_site_label
_atom_site_type_symbol
_atom_site_fract_x
_atom_site_fract_y
_atom_site_fract_z
_atom_type_partial_charge
H0 H 0.81695 0.48722 0.12748 0.0
H1 H 0.74492 0.49809 0.98789 0.0
H2 H 0.75649 0.53241 0.2541 0.0
C3 C 0.79723 0.49499 0.12721 0.0
C4 C 0.78927 0.51103 0.19868 0.0
C5 C 0.7816 0.49063 0.0513 0.0
C6 C 0.75632 0.50075 0.04864 0.0
C7 C 0.74645 0.51495 0.12362 0.0
C8 C 0.7633 0.52041 0.19822 0.0
N9 N 0.72032 0.52476 0.1242 0.0
C10 C 0.70138 0.51868 0.05747 0.0
H11 H 1.00255 0.82888 0.03317 0.0
H12 H 0.01003 0.7501 0.93202 0.0
H13 H 0.013 0.76732 0.21733 0.0
C14 C 1.00568 0.80846 0.04609 0.0
C15 C 1.00841 0.80062 0.134 0.0
C16 C 1.00677 0.79069 0.97344 0.0
C17 C 0.00936 0.7639 0.98842 0.0
C18 C 0.01131 0.75539 0.07743 0.0
C19 C 0.01104 0.77388 0.14943 0.0
N20 N 0.01395 0.72867 0.09808 0.0
C21 C 0.01131 0.70723 0.03822 0.0
H22 H 0.68441 0.01272 0.07033 0.0
H23 H 0.76621 0.01278 0.96739 0.0
H24 H 0.73917 0.96475 0.19302 0.0
C25 C 0.70452 0.00612 0.07403 0.0
C26 C 0.70913 0.98782 0.13895 0.0
C27 C 0.72484 0.01544 0.01233 0.0
C28 C 0.7506 0.00608 0.01592 0.0
C29 C 0.75593 0.98779 0.08137 0.0
C30 C 0.73516 0.97894 0.14319 0.0
N31 N 0.78162 0.97741 0.08545 0.0
C32 C 0.80423 0.98506 0.03112 0.0
H33 H 0.53508 0.69216 0.07632 0.0
H34 H 0.52976 0.76925 0.97403 0.0
H35 H 0.51899 0.75596 0.2593 0.0
C36 C 0.53174 0.71277 0.08912 0.0
C37 C 0.52594 0.7215 0.17638 0.0
C38 C 0.53286 0.72968 0.01676 0.0
C39 C 0.52906 0.7564 0.03101 0.0
C40 C 0.5245 0.76622 0.11926 0.0
C41 C 0.52301 0.74862 0.19181 0.0
N42 N 0.52106 0.79345 0.1368 0.0
C43 C 0.51857 0.81174 0.06989 0.0
H44 H 0.19668 0.50972 0.08858 0.0
H45 H 0.27407 0.50746 0.20586 0.0
H46 H 0.26206 0.48038 0.93091 0.0
C47 C 0.21752 0.50475 0.08196 0.0
C48 C 0.22678 0.49361 0.00163 0.0
C49 C 0.23424 0.50944 0.15521 0.0
C50 C 0.26135 0.50384 0.14827 0.0
C51 C 0.27173 0.4936 0.06645 0.0
C52 C 0.2543 0.48861 0.99323 0.0
N53 N 0.29931 0.48791 0.05604 0.0
C54 C 0.31742 0.48883 0.12622 0.0
H55 H 1.00915 0.19639 0.05936 0.0
H56 H 0.01009 0.27381 0.1789 0.0
H57 H 0.05024 0.26216 0.92134 0.0
C58 C 0.01553 0.21732 0.0558 0.0
C59 C 0.03175 0.22681 0.98354 0.0
C60 C 1.00833 0.23387 0.12684 0.0
C61 C 0.01558 0.26109 0.12316 0.0
C62 C 0.02997 0.27151 0.04674 0.0
C63 C 0.0382 0.25422 0.97781 0.0
N64 N 0.03698 0.29906 0.03769 0.0
C65 C 0.03502 0.31747 0.10764 0.0
H66 H 0.32237 0.99122 0.0023 0.0
H67 H 0.2441 0.99695 0.12759 0.0
H68 H 0.26364 0.03353 0.87267 0.0
C69 C 0.30202 0.99744 -0.00048 0.0
C70 C 0.29523 0.01268 0.9281 0.0
C71 C 0.28379 0.99196 0.07139 0.0
C72 C 0.25792 1.00106 0.07106 0.0
C73 C 0.25018 0.01554 -0.00199 0.0
C74 C 0.26913 0.0216 0.92736 0.0
N75 N 0.22385 0.02464 0.99448 0.0
C76 C 0.20508 0.02374 0.06626 0.0
H77 H 0.51683 0.31932 0.97334 0.0
H78 H 0.50735 0.25071 0.13642 0.0
H79 H 0.46409 0.25247 0.88968 0.0
C80 C 0.5091 0.29884 0.98195 0.0
C81 C 0.49043 0.2873 0.92156 0.0
C82 C 0.51474 0.28616 0.06027 0.0
C83 C 0.50348 0.26023 0.07456 0.0
C84 C 0.48616 0.24735 0.01034 0.0
C85 C 0.47893 0.26145 0.93563 0.0
N86 N 0.47445 0.22099 0.02116 0.0
C87 C 0.48211 0.20369 0.08497 0.0
Dy88 Dy 0.0193 1.0004 0.6453 0.0
C89 C 0.99294 0.06542 0.36703 0.0
C90 C 0.01686 0.96111 0.7676 0.0
Dy91 Dy 0.9994 0.02715 0.488 0.0
O92 O 0.03833 0.96929 0.72069 0.0
O93 O 0.99787 0.97646 0.75419 0.0
O94 O 0.0621 0.01398 0.61393 0.0
O95 O 0.03527 0.00554 0.50656 0.0
C96 C 0.059 0.01474 0.52764 0.0
C97 C 0.96156 0.01462 0.61743 0.0
O98 O 1.00012 0.98752 0.42154 0.0
O99 O 0.99838 0.96809 0.55975 0.0
O100 O 0.97368 0.04879 0.39736 0.0
O101 O 0.01585 0.05965 0.39763 0.0
O102 O 0.95654 0.01316 0.53248 0.0
O103 O 0.98565 0.0238 0.62787 0.0
O104 O 0.02582 0.04135 0.70501 0.0
O105 O 0.02127 0.05996 0.56674 0.0
C106 C 0.99635 0.96637 0.4716 0.0
C107 C 0.02793 0.06209 0.65201 0.0
Dy108 Dy 0.48069 0.99092 0.49907 0.0
C109 C 0.57876 0.03619 0.6746 0.0
C110 C 0.4297 0.97672 0.44378 0.0
Dy111 Dy 0.5279 0.01956 0.62383 0.0
O112 O 0.44935 0.96127 0.44026 0.0
O113 O 0.43808 0.99986 0.47631 0.0
O114 O 0.50972 0.97541 0.39114 0.0
O115 O 0.52336 0.99674 0.50245 0.0
C116 C 0.53127 0.98469 0.43374 0.0
C117 C 0.47652 0.02923 0.66476 0.0
O118 O 0.52481 0.04922 0.51751 0.0
O119 O 0.48515 0.0325 0.44709 0.0
O120 O 0.55801 0.03243 0.73029 0.0
O121 O 0.57156 0.03078 0.59284 0.0
O122 O 0.49722 0.04578 0.68503 0.0
O123 O 0.48479 0.00807 0.6335 0.0
O124 O 0.48467 0.96085 0.60492 0.0
O125 O 0.5244 0.97799 0.67592 0.0
C126 C 0.50519 0.05131 0.46011 0.0
C127 C 0.50462 0.95887 0.66198 0.0
Dy128 Dy 0.50481 0.52028 0.66405 0.0
C129 C 0.51904 0.45567 0.34257 0.0
C130 C 0.50868 0.55889 0.79371 0.0
Dy131 Dy 0.52066 0.49076 0.48325 0.0
O132 O 0.48855 0.55425 0.74011 0.0
O133 O 0.52533 0.54064 0.78183 0.0
O134 O 0.46154 0.50527 0.64775 0.0
O135 O 0.48662 0.51239 0.53239 0.0
C136 C 0.46341 0.50315 0.56047 0.0
C137 C 0.563 0.49618 0.59562 0.0
O138 O 0.52243 0.53224 0.43217 0.0
O139 O 0.52232 0.55253 0.57426 0.0
O140 O 0.5376 0.47519 0.35301 0.0
O141 O 0.50029 0.45692 0.40506 0.0
O142 O 0.56419 0.48511 0.51648 0.0
O143 O 0.53974 0.50391 0.6059 0.0
O144 O 0.50243 0.47949 0.7165 0.0
O145 O 0.50322 0.4586 0.57474 0.0
C146 C 0.52508 0.55363 0.48572 0.0
C147 C 0.49997 0.45808 0.66345 0.0
Dy148 Dy 0.9952 0.49083 0.68388 0.0
C149 C 0.05971 0.52375 0.38535 0.0
C150 C 0.95722 0.48135 0.81771 0.0
Dy151 Dy 0.02096 0.51498 0.5174 0.0
O152 O 0.96953 0.46335 0.7737 0.0
O153 O 0.9675 0.50453 0.79341 0.0
O154 O 0.01149 0.45255 0.6515 0.0
O155 O 1.00044 0.47608 0.54529 0.0
C156 C 0.01146 0.45542 0.56519 0.0
C157 C 1.00764 0.55002 0.64499 0.0
O158 O 0.97899 0.51148 0.46477 0.0
O159 O 0.96008 0.50265 0.60578 0.0
O160 O 0.0478 0.54203 0.42935 0.0
O161 O 0.04844 0.5008 0.40803 0.0
O162 O 1.00684 0.55448 0.55966 0.0
O163 O 0.01738 0.52835 0.65668 0.0
O164 O 0.03743 0.49526 0.73594 0.0
O165 O 0.05613 0.50264 0.59365 0.0
C166 C 0.95762 0.50835 0.5203 0.0
C167 C 0.05875 0.49768 0.67964 0.0
H168 H 0.15185 1.00422 0.07697 0.0
H169 H 0.2165 0.04589 0.2272 0.0
H170 H 0.18524 0.04953 0.35863 0.0
H171 H 0.09753 0.0415 0.16729 0.0
H172 H 0.07278 0.01338 0.17229 0.0
H173 H 0.09995 0.01409 0.08915 0.0
H174 H 0.11411 0.9697 0.14577 0.0
H175 H 0.08686 0.96886 0.22854 0.0
H176 H 0.12112 0.96668 0.26286 0.0
H177 H 0.14782 0.04847 0.47285 0.0
H178 H 0.10654 0.04144 0.56789 0.0
H179 H 0.0647 1.00037 0.34667 0.0
C180 C 0.15927 0.01404 0.13785 0.0
C181 C 0.18648 0.02483 0.14281 0.0
C182 C 0.19569 0.03755 0.22279 0.0
C183 C 0.17808 0.03974 0.29745 0.0
C184 C 0.1513 0.02908 0.29079 0.0
C185 C 0.14186 0.01636 0.21339 0.0
C186 C 0.11214 0.00636 0.22534 0.0
C187 C 0.09457 0.01963 0.1596 0.0
C188 C 0.10835 0.9761 0.21502 0.0
C189 C 0.10647 0.01534 0.32163 0.0
C190 C 0.12943 0.02848 0.35752 0.0
C191 C 0.12972 0.03825 0.44552 0.0
C192 C 0.10613 0.03413 0.49899 0.0
C193 C 0.08241 0.02039 0.4648 0.0
C194 C 0.08246 0.01116 0.37435 0.0
H195 H 0.45613 0.15532 0.11446 0.0
H196 H 0.52472 0.20844 0.1948 0.0
H197 H 0.53803 0.17505 0.29944 0.0
H198 H 0.4398 0.12788 0.3335 0.0
H199 H 0.43074 0.09497 0.29017 0.0
H200 H 0.42653 0.12308 0.22243 0.0
H201 H 0.45616 0.10366 0.09542 0.0
H202 H 0.4605 0.07553 0.16292 0.0
H203 H 0.48973 0.09527 0.11957 0.0
H204 H 0.54403 0.13592 0.39337 0.0
H205 H 0.54247 0.09412 0.473 0.0
H206 H 0.46966 0.06557 0.33279 0.0
C207 C 0.47387 0.15984 0.15457 0.0
C208 C 0.48944 0.18436 0.14747 0.0
C209 C 0.51257 0.18975 0.20005 0.0
C210 C 0.52025 0.1709 0.25937 0.0
C211 C 0.50455 0.1468 0.26495 0.0
C212 C 0.48181 0.14119 0.21415 0.0
C213 C 0.4686 0.1137 0.2328 0.0
C214 C 0.43971 0.115 0.27207 0.0
C215 C 0.46877 0.096 0.1476 0.0
C216 C 0.48743 0.10472 0.30213 0.0
C217 C 0.50803 0.12415 0.31938 0.0
C218 C 0.52798 0.12059 0.38045 0.0
C219 C 0.52688 0.09663 0.42541 0.0
C220 C 0.50592 0.07631 0.40957 0.0
C221 C 0.48596 0.08056 0.34669 0.0
H222 H 0.3712 0.50586 0.12653 0.0
H223 H 0.30483 0.47081 0.29142 0.0
H224 H 0.33569 0.46902 0.41838 0.0
H225 H 0.42347 0.46826 0.21266 0.0
H226 H 0.44935 0.49545 0.20995 0.0
H227 H 0.42229 0.49375 0.13139 0.0
H228 H 0.41014 0.5403 0.18427 0.0
H229 H 0.43724 0.54218 0.26256 0.0
H230 H 0.4032 0.54668 0.30184 0.0
H231 H 0.37321 0.47161 0.52736 0.0
H232 H 0.41479 0.47952 0.61428 0.0
H233 H 0.45782 0.51268 0.38003 0.0
C234 C 0.36331 0.49783 0.18958 0.0
C235 C 0.33574 0.48844 0.20001 0.0
C236 C 0.32593 0.47807 0.2828 0.0
C237 C 0.34331 0.47694 0.35496 0.0
C238 C 0.37046 0.48624 0.34293 0.0
C239 C 0.38047 0.49657 0.26249 0.0
C240 C 0.41045 0.50559 0.26828 0.0
C241 C 0.42738 0.48982 0.2016 0.0
C242 C 0.41555 0.53546 0.25337 0.0
C243 C 0.41565 0.49886 0.3646 0.0
C244 C 0.39226 0.48765 0.40609 0.0
C245 C 0.39165 0.4803 0.49551 0.0
C246 C 0.41539 0.48487 0.54434 0.0
C247 C 0.43953 0.49664 0.50397 0.0
C248 C 0.43972 0.50342 0.41243 0.0
H249 H 0.0128 0.3647 0.11633 0.0
H250 H 0.05719 0.31161 0.26642 0.0
H251 H 0.05826 0.343 0.39619 0.0
H252 H 0.0473 0.42625 0.20428 0.0
H253 H 0.01713 0.44366 0.20922 0.0
H254 H 0.02067 0.41767 0.12629 0.0
H255 H 0.97548 0.3935 0.18328 0.0
H256 H 0.97176 0.41947 0.26596 0.0
H257 H 0.97117 0.38569 0.30041 0.0
H258 H 0.05368 0.37872 0.50904 0.0
H259 H 0.04197 0.41633 0.60473 0.0
H260 H 1.00012 0.44749 0.38447 0.0
C261 C 0.02276 0.35989 0.17671 0.0
C262 C 0.03498 0.33595 0.18248 0.0
C263 C 0.0478 0.32998 0.26166 0.0
C264 C 0.04857 0.34768 0.33522 0.0
C265 C 0.03645 0.37123 0.3279 0.0
C266 C 0.0237 0.37743 0.25102 0.0
C267 C 0.01155 0.40379 0.26263 0.0
C268 C 0.02497 0.42404 0.19667 0.0
C269 C 0.98065 0.40039 0.25249 0.0
C270 C 0.01903 0.41113 0.35863 0.0
C271 C 0.03364 0.39209 0.39418 0.0
C272 C 0.04234 0.39379 0.48201 0.0
C273 C 0.03552 0.41524 0.53583 0.0
C274 C 0.02008 0.43475 0.50204 0.0
C275 C 0.0121 0.43293 0.41169 0.0
H276 H 0.81458 0.9804 0.85037 0.0
H277 H 0.85087 1.00475 0.10333 0.0
H278 H 0.89516 0.01472 0.02481 0.0
H279 H 0.87165 0.94903 0.75573 0.0
H280 H 0.86751 0.95981 0.64312 0.0
H281 H 0.83852 0.95503 0.7185 0.0
H282 H 0.82727 1.00309 0.69412 0.0
H283 H 0.85615 0.00795 0.6183 0.0
H284 H 0.85278 0.02994 0.714 0.0
H285 H 0.93557 0.02099 0.9201 0.0
H286 H 0.96936 0.02493 0.79523 0.0
H287 H 0.90738 0.99696 0.6077 0.0
C288 C 0.83189 0.98802 0.88869 0.0
C289 C 0.82953 0.99199 0.98265 0.0
C290 C 0.85244 1.00176 0.03119 0.0
C291 C 0.87763 0.0074 0.98719 0.0
C292 C 0.87951 1.00314 0.8945 0.0
C293 C 0.85727 0.9938 0.84554 0.0
C294 C 0.86497 0.99094 0.74653 0.0
C295 C 0.86039 0.96198 0.71409 0.0
C296 C 0.84937 0.00906 0.68991 0.0
C297 C 0.89496 1.00011 0.74756 0.0
C298 C 0.90288 0.00695 0.83378 0.0
C299 C 0.92958 0.01577 0.85229 0.0
C300 C 0.94865 0.01789 0.78087 0.0
C301 C 0.94103 0.0113 0.69172 0.0
C302 C 0.9138 1.00219 0.67512 0.0
H303 H 0.54172 0.86221 0.05204 0.0
H304 H 0.4856 0.80246 0.93093 0.0
H305 H 0.47654 0.83354 0.81241 0.0
H306 H 0.50393 0.9179 0.01101 0.0
H307 H 0.53339 0.94016 0.98648 0.0
H308 H 0.53579 0.91312 0.0607 0.0
H309 H 0.57482 0.8968 0.9609 0.0
H310 H 0.5724 0.92371 0.88613 0.0
H311 H 0.56965 0.89017 0.84296 0.0
H312 H 0.4725 0.87109 0.71058 0.0
H313 H 0.4743 0.91243 0.62785 0.0
H314 H 0.53382 0.94863 0.81169 0.0
C315 C 0.52766 0.85576 6e-05 0.0
C316 C 0.51429 0.83004 -0.00019 0.0
C317 C 0.49597 0.82213 0.9316 0.0
C318 C 0.49073 0.83963 0.86425 0.0
C319 C 0.50407 0.86496 0.86616 0.0
C320 C 0.52225 0.87306 0.93196 0.0
C321 C 0.53364 0.90148 0.91835 0.0
C322 C 0.52623 0.91921 -0.00108 0.0
C323 C 0.56446 0.90312 0.90103 0.0
C324 C 0.51894 0.90808 0.83484 0.0
C325 C 0.50196 0.88669 0.8063 0.0
C326 C 0.4858 0.88794 0.73205 0.0
C327 C 0.48694 0.91164 0.68554 0.0
C328 C 0.50422 0.93395 0.7128 0.0
C329 C 0.52052 0.93197 0.78853 0.0
H330 H 0.6575 0.5441 0.01088 0.0
H331 H 0.70211 0.4761 0.94702 0.0
H332 H 0.67089 0.46303 0.82452 0.0
H333 H 0.59038 0.51117 0.96788 0.0
H334 H 0.57776 0.53962 0.91931 0.0
H335 H 0.60341 0.54393 0.00282 0.0
H336 H 0.63435 0.57243 0.89383 0.0
H337 H 0.60899 0.56823 0.80944 0.0
H338 H 0.64275 0.55918 0.78419 0.0
H339 H 0.63667 0.45821 0.70606 0.0
H340 H 0.59981 0.46053 0.6004 0.0
H341 H 0.57499 0.53058 0.74074 0.0
C342 C 0.66051 0.52644 0.97099 0.0
C343 C 0.6823 0.51115 0.9874 0.0
C344 C 0.68572 0.48816 0.93466 0.0
C345 C 0.66802 0.48055 0.8652 0.0
C346 C 0.64682 0.49604 0.84994 0.0
C347 C 0.64278 0.5184 0.90148 0.0
C348 C 0.61828 0.5314 0.87004 0.0
C349 C 0.59615 0.53153 0.94446 0.0
C350 C 0.62659 0.55947 0.83745 0.0
C351 C 0.6094 0.51292 0.7925 0.0
C352 C 0.62632 0.49276 0.78234 0.0
C353 C 0.62314 0.47374 0.71385 0.0
C354 C 0.60215 0.47528 0.65398 0.0
C355 C 0.58429 0.4955 0.66304 0.0
C356 C 0.58791 0.51456 0.73355 0.0
H357 H 1.00588 0.69628 0.85825 0.0
H358 H 0.01188 0.66098 0.1176 0.0
H359 H 1.00909 0.61654 0.04542 0.0
H360 H 0.95833 0.64427 0.76375 0.0
H361 H 0.97388 0.64578 0.65296 0.0
H362 H 0.97527 0.67487 0.72494 0.0
H363 H 0.0276 0.67965 0.70783 0.0
H364 H 0.02635 0.65064 0.6357 0.0
H365 H 0.04644 0.65227 0.7348 0.0
H366 H 1.00818 0.57653 0.94614 0.0
H367 H 1.00894 0.54276 0.82457 0.0
H368 H 1.00212 0.60306 0.62774 0.0
C369 C 1.00639 0.67908 0.89934 0.0
C370 C 1.00902 0.68172 0.99317 0.0
C371 C 0.00981 0.65908 0.0455 0.0
C372 C 1.0082 0.63383 0.00519 0.0
C373 C 1.00569 0.63167 0.91245 0.0
C374 C 1.00472 0.6536 0.85994 0.0
C375 C 1.00266 0.64559 0.76141 0.0
C376 C 0.97594 0.65307 0.72356 0.0
C377 C 0.02723 0.65776 0.70674 0.0
C378 C 1.00301 0.61584 0.76691 0.0
C379 C 1.00471 0.60831 0.85482 0.0
C380 C 1.00654 0.58211 0.87709 0.0
C381 C 1.0069 0.56306 0.80761 0.0
C382 C 1.00526 0.57025 0.71701 0.0
C383 C 1.00301 0.59697 0.69657 0.0
H384 H 0.03603 0.21429 0.25586 0.0
H385 H 0.95506 0.21955 0.16315 0.0
H386 H 0.94036 0.1767 0.23112 0.0
H387 H 0.03974 0.1545 0.18121 0.0
H388 H 0.05957 0.14189 0.26715 0.0
H389 H 0.06211 0.17667 0.24687 0.0
H390 H 0.04868 0.18765 0.41207 0.0
H391 H 0.04797 0.15295 0.43474 0.0
H392 H 0.0188 0.17068 0.46258 0.0
H393 H 0.93768 0.12881 0.2741 0.0
H394 H 0.94579 0.08271 0.30824 0.0
H395 H 0.03014 0.10771 0.35518 0.0
C396 C 0.01471 0.20742 0.25695 0.0
C397 C 0.99647 0.22042 0.20674 0.0
C398 C 0.96903 0.21025 0.20411 0.0
C399 C 0.96069 0.18564 0.24108 0.0
C400 C 0.98009 0.17167 0.2804 0.0
C401 C 1.00647 0.1825 0.29045 0.0
C402 C 0.02468 0.16197 0.31877 0.0
C403 C 0.04786 0.15858 0.24935 0.0
C404 C 0.03566 0.16872 0.41265 0.0
C405 C 1.00474 0.13777 0.32002 0.0
C406 C 0.97904 0.14371 0.29913 0.0
C407 C 0.95764 0.12407 0.29212 0.0
C408 C 0.96249 0.09792 0.31029 0.0
C409 C 0.98862 0.09168 0.33333 0.0
C410 C 0.00999 0.11185 0.33685 0.0
H411 H 0.29834 0.01648 0.22684 0.0
H412 H 0.29537 0.94102 0.08569 0.0
H413 H 0.32671 0.92501 0.19359 0.0
H414 H 0.36361 0.02375 0.24393 0.0
H415 H 0.36606 0.0394 0.35361 0.0
H416 H 0.33651 0.042 0.28913 0.0
H417 H 0.30566 0.02215 0.41827 0.0
H418 H 0.33524 0.02019 0.48451 0.0
H419 H 0.31252 0.99111 0.46476 0.0
H420 H 0.36633 0.92141 0.28846 0.0
H421 H 0.40988 0.93012 0.36494 0.0
H422 H 0.3886 0.0086 0.44173 0.0
C423 C 0.30296 0.99604 0.22288 0.0
C424 C 0.29394 0.9796 0.15044 0.0
C425 C 0.30151 0.95348 0.14283 0.0
C426 C 0.31936 0.94431 0.20367 0.0
C427 C 0.32939 0.96157 0.27146 0.0
C428 C 0.32111 0.98683 0.28239 0.0
C429 C 0.33854 1.00314 0.34873 0.0
C430 C 0.35197 0.02854 0.30623 0.0
C431 C 0.322 0.00951 0.43414 0.0
C432 C 0.35915 0.98392 0.36775 0.0
C433 C 0.35308 0.95977 0.32493 0.0
C434 C 0.37087 0.93995 0.32441 0.0
C435 C 0.39562 0.9451 0.36747 0.0
C436 C 0.40242 0.96997 0.40916 0.0
C437 C 0.38366 0.98929 0.41116 0.0
H438 H 0.48808 0.30488 0.20369 0.0
H439 H 0.56634 0.30918 0.06662 0.0
H440 H 0.57731 0.35379 0.13228 0.0
H441 H 0.47314 0.36419 0.15404 0.0
H442 H 0.45608 0.37321 0.25729 0.0
H443 H 0.45701 0.33899 0.22532 0.0
H444 H 0.47893 0.32906 0.37428 0.0
H445 H 0.47736 0.36306 0.40996 0.0
H446 H 0.50922 0.34845 0.40823 0.0
H447 H 0.57499 0.40123 0.18194 0.0
H448 H 0.56348 0.44512 0.23907 0.0
H449 H 0.48573 0.41011 0.33821 0.0
C450 C 0.50829 0.31443 0.19336 0.0
C451 C 0.52666 0.30346 0.13214 0.0
C452 C 0.55243 0.31702 0.11572 0.0
C453 C 0.55857 0.34256 0.15145 0.0
C454 C 0.53881 0.35399 0.2041 0.0
C455 C 0.5145 0.34005 0.22746 0.0
C456 C 0.4954 0.35774 0.27553 0.0
C457 C 0.46886 0.35856 0.22497 0.0
C458 C 0.48989 0.34908 0.37281 0.0
C459 C 0.51222 0.38398 0.27192 0.0
C460 C 0.53725 0.38144 0.23101 0.0
C461 C 0.55567 0.40333 0.21584 0.0
C462 C 0.5488 0.42823 0.2472 0.0
C463 C 0.52369 0.43099 0.29263 0.0
C464 C 0.50503 0.40862 0.30332 0.0
H465 H 0.20528 0.47916 0.27269 0.0
H466 H 0.2302 0.56025 0.21005 0.0
H467 H 0.18771 0.5741 0.27895 0.0
H468 H 0.14658 0.47911 0.19466 0.0
H469 H 0.12646 0.45858 0.27268 0.0
H470 H 0.162 0.45494 0.25767 0.0
H471 H 0.1708 0.4637 0.42524 0.0
H472 H 0.135 0.46582 0.44525 0.0
H473 H 0.15889 0.49249 0.4811 0.0
H474 H 0.13828 0.57721 0.31519 0.0
H475 H 0.08857 0.57022 0.34095 0.0
H476 H 0.09504 0.48613 0.36266 0.0
C477 C 0.20271 0.50004 0.2809 0.0
C478 C 0.22107 0.51875 0.23819 0.0
C479 C 0.21666 0.54582 0.24501 0.0
C480 C 0.1923 0.55374 0.28256 0.0
C481 C 0.1729 0.5343 0.31348 0.0
C482 C 0.17817 0.50801 0.31556 0.0
C483 C 0.15264 0.49036 0.33613 0.0
C484 C 0.14658 0.46954 0.26079 0.0
C485 C 0.15442 0.47732 0.42738 0.0
C486 C 0.13203 0.51055 0.3398 0.0
C487 C 0.14406 0.53583 0.3286 0.0
C488 C 0.12873 0.55753 0.32577 0.0
C489 C 0.10052 0.55336 0.33884 0.0
C490 C 0.08801 0.52763 0.35244 0.0
C491 C 0.104 0.506 0.35111 0.0
H492 H 0.048 0.81571 0.88027 0.0
H493 H 0.96162 0.79529 0.87985 0.0
H494 H 0.95516 0.83776 0.81147 0.0
H495 H 0.04562 0.87369 0.96228 0.0
H496 H 0.07274 0.89183 0.90095 0.0
H497 H 0.07333 0.85689 0.91403 0.0
H498 H 0.07606 0.84826 0.7426 0.0
H499 H 0.0776 0.88344 0.72765 0.0
H500 H 0.05225 0.86192 0.67168 0.0
H501 H 0.9567 0.88636 0.79583 0.0
H502 H 0.96713 0.93454 0.78764 0.0
H503 H 0.05295 0.92447 0.79759 0.0
C504 C 0.02808 0.81924 0.85787 0.0
C505 C 1.00531 0.80228 0.88451 0.0
C506 C 0.9793 0.80782 0.85821 0.0
C507 C 0.97544 0.83223 0.82115 0.0
C508 C 0.99796 0.85031 0.8083 0.0
C509 C 0.02399 0.84371 0.82196 0.0
C510 C 0.04427 0.86782 0.81597 0.0
C511 C 0.05988 0.87283 0.90351 0.0
C512 C 0.06369 0.86521 0.7346 0.0
C513 C 0.02544 0.88917 0.80254 0.0
C514 C 0.99884 0.87864 0.79823 0.0
C515 C 0.97753 0.89471 0.79585 0.0
C516 C 0.98365 0.92212 0.79301 0.0
C517 C 0.01087 0.93322 0.79194 0.0
C518 C 0.03197 0.9165 0.79807 0.0
H519 H 0.69215 0.05576 0.02539 0.0
H520 H 0.73831 0.0114 0.83279 0.0
H521 H 0.7105 0.02515 0.71159 0.0
H522 H 0.63606 0.02647 0.96227 0.0
H523 H 0.61421 0.05279 0.97955 0.0
H524 H 0.64445 0.05291 0.04223 0.0
H525 H 0.66145 0.0992 0.98436 0.0
H526 H 0.63069 0.09974 0.92307 0.0
H527 H 0.66312 0.10498 0.86546 0.0
H528 H 0.67077 0.03119 0.62171 0.0
H529 H 0.62348 0.02728 0.57359 0.0
H530 H 0.59762 0.05878 0.8317 0.0
C531 C 0.69714 0.04997 0.95689 0.0
C532 C 0.71708 0.03219 0.93869 0.0
C533 C 0.72331 0.02519 0.84855 0.0
C534 C 0.7074 0.03283 0.77913 0.0
C535 C 0.68526 0.04718 0.80132 0.0
C536 C 0.68019 0.05582 0.88852 0.0
C537 C 0.65154 0.06386 0.90096 0.0
C538 C 0.63566 0.04806 0.97555 0.0
C539 C 0.65172 0.09373 0.91952 0.0
C540 C 0.6406 0.05642 0.80939 0.0
C541 C 0.66074 0.04822 0.75153 0.0
C542 C 0.65503 0.03812 0.66579 0.0
C543 C 0.62807 0.03578 0.63931 0.0
C544 C 0.60707 0.04259 0.69953 0.0
C545 C 0.61346 0.0536 0.78463 0.0
H546 H 0.49294 0.70889 0.91314 0.0
H547 H 0.57994 0.7189 0.93324 0.0
H548 H 0.58342 0.67484 0.86386 0.0
H549 H 0.48477 0.65146 0.99176 0.0
H550 H 0.45827 0.63592 0.92329 0.0
H551 H 0.46167 0.67118 0.93814 0.0
H552 H 0.46662 0.67831 0.76708 0.0
H553 H 0.46113 0.64303 0.7501 0.0
H554 H 0.49077 0.66088 0.70138 0.0
H555 H 0.57629 0.62601 0.84534 0.0
H556 H 0.56005 0.57886 0.83009 0.0
H557 H 0.47729 0.59992 0.82267 0.0
C558 C 0.51278 0.70271 0.89503 0.0
C559 C 0.53617 0.71712 0.92783 0.0
C560 C 0.56189 0.70824 0.90688 0.0
C561 C 0.56396 0.68294 0.86927 0.0
C562 C 0.54013 0.66743 0.85044 0.0
C563 C 0.51502 0.67735 0.85853 0.0
C564 C 0.49236 0.65562 0.84668 0.0
C565 C 0.47317 0.65345 0.92993 0.0
C566 C 0.47681 0.6597 0.7612 0.0
C567 C 0.50855 0.63183 0.83669 0.0
C568 C 0.53604 0.63903 0.83892 0.0
C569 C 0.55486 0.62023 0.84022 0.0
C570 C 0.54541 0.59347 0.83351 0.0
C571 C 0.51743 0.58584 0.82522 0.0
C572 C 0.49879 0.60527 0.82877 0.0
H573 H 0.80916 0.51962 0.92831 0.0
H574 H 0.78897 0.43925 0.00992 0.0
H575 H 0.83243 0.42657 0.94444 0.0
H576 H 0.85542 0.50526 0.72511 0.0
H577 H 0.87843 0.53347 0.7537 0.0
H578 H 0.84254 0.53435 0.77559 0.0
H579 H 0.85144 0.54615 0.94122 0.0
H580 H 0.88726 0.54446 0.92465 0.0
H581 H 0.8689 0.52428 0.00766 0.0
H582 H 0.88209 0.42542 0.90496 0.0
H583 H 0.93135 0.43453 0.87307 0.0
H584 H 0.91993 0.51714 0.83706 0.0
C585 C 0.81299 0.49895 0.92532 0.0
C586 C 0.79564 0.48024 0.97179 0.0
C587 C 0.80174 0.45359 0.97184 0.0
C588 C 0.82664 0.44639 0.93635 0.0
C589 C 0.84494 0.46614 0.90121 0.0
C590 C 0.83813 0.49182 0.89348 0.0
C591 C 0.86262 0.51034 0.86868 0.0
C592 C 0.8596 0.52154 0.77517 0.0
C593 C 0.86785 0.5326 0.9398 0.0
C594 C 0.88443 0.4914 0.86802 0.0
C595 C 0.87388 0.46592 0.88506 0.0
C596 C 0.89049 0.44525 0.89021 0.0
C597 C 0.91843 0.45064 0.8735 0.0
C598 C 0.9294 0.47656 0.85409 0.0
C599 C 0.91218 0.49719 0.85326 0.0
H600 H 0.04784 0.17787 0.01619 0.0
H601 H 0.03682 0.23108 0.79959 0.0
H602 H 0.0437 0.19492 0.6897 0.0
H603 H 0.09372 0.13273 0.8971 0.0
H604 H 0.07617 0.10412 0.94816 0.0
H605 H 0.07857 0.13547 0.00802 0.0
H606 H 0.02637 0.13241 0.02804 0.0
H607 H 0.02371 0.10128 0.96783 0.0
H608 H 1.00572 0.12811 0.9304 0.0
H609 H 0.04389 0.15229 0.60654 0.0
H610 H 0.03522 0.10658 0.55319 0.0
H611 H 0.03985 0.07928 0.82591 0.0
C612 C 0.0473 0.18215 0.94553 0.0
C613 C 0.0415 0.20735 0.91654 0.0
C614 C 0.04151 0.21212 0.82353 0.0
C615 C 0.04532 0.19163 0.76069 0.0
C616 C 0.04901 0.16658 0.79216 0.0
C617 C 0.05003 0.16177 0.88254 0.0
C618 C 0.04946 0.13244 0.89998 0.0
C619 C 0.07607 0.1258 0.94071 0.0
C620 C 0.02485 0.12303 0.96006 0.0
C621 C 0.04677 0.12131 0.80525 0.0
C622 C 0.04743 0.14145 0.74418 0.0
C623 C 0.04368 0.13638 0.65337 0.0
C624 C 0.03858 0.11017 0.62408 0.0
C625 C 0.03665 0.08912 0.6856 0.0
C626 C 0.04139 0.09482 0.77724 0.0
H627 H 0.32679 0.98133 0.82603 0.0
H628 H 0.31419 0.06311 0.88752 0.0
H629 H 0.35782 0.07709 0.81037 0.0
H630 H 0.39338 0.9844 0.8693 0.0
H631 H 0.40356 0.96276 0.77922 0.0
H632 H 0.36932 0.95942 0.82306 0.0
H633 H 0.35132 0.96511 0.6643 0.0
H634 H 0.38553 0.96844 0.61889 0.0
H635 H 0.36314 0.99379 0.6012 0.0
H636 H 0.40668 0.08125 0.75369 0.0
H637 H 0.45424 0.07553 0.70695 0.0
H638 H 0.43415 0.99118 0.67603 0.0
C639 C 0.33274 1.00223 0.81974 0.0
C640 C 0.31699 0.0212 0.86157 0.0
C641 C 0.32566 0.04833 0.85419 0.0
C642 C 0.35052 0.05641 0.81105 0.0
C643 C 0.3662 0.03712 0.77405 0.0
C644 C 0.35729 0.01059 0.7759 0.0
C645 C 0.37872 0.99365 0.73726 0.0
C646 C 0.38671 0.97391 0.80635 0.0
C647 C 0.36911 0.9794 0.65023 0.0
C648 C 0.40166 0.01461 0.71819 0.0
C649 C 0.39402 0.03961 0.73907 0.0
C650 C 0.41263 0.06184 0.73494 0.0
C651 C 0.43963 0.05842 0.70888 0.0
C652 C 0.44777 0.033 0.68702 0.0
C653 C 0.42838 0.01093 0.69071 0.0
H654 H 0.51748 0.3091 0.77655 0.0
H655 H 0.4424 0.30859 0.93199 0.0
H656 H 0.43461 0.35222 0.87333 0.0
H657 H 0.53959 0.37143 0.8176 0.0
H658 H 0.55426 0.37964 0.70873 0.0
H659 H 0.55116 0.34591 0.74352 0.0
H660 H 0.52367 0.33126 0.60348 0.0
H661 H 0.52731 0.36483 0.56582 0.0
H662 H 0.49408 0.34767 0.57867 0.0
H663 H 0.44128 0.39998 0.82954 0.0
H664 H 0.45654 0.44467 0.77468 0.0
H665 H 0.52563 0.41324 0.63917 0.0
C666 C 0.49851 0.3174 0.79301 0.0
C667 C 0.48015 0.30525 0.85675 0.0
C668 C 0.45619 0.31721 0.88086 0.0
C669 C 0.45185 0.34219 0.84894 0.0
C670 C 0.4714 0.35461 0.7914 0.0
C671 C 0.49376 0.34218 0.7608 0.0
C672 C 0.51288 0.36061 0.70528 0.0
C673 C 0.54113 0.36462 0.74629 0.0
C674 C 0.51458 0.35049 0.60748 0.0
C675 C 0.49846 0.38564 0.71294 0.0
C676 C 0.47465 0.38189 0.76337 0.0
C677 C 0.45943 0.40294 0.78765 0.0
C678 C 0.46839 0.42827 0.75738 0.0
C679 C 0.4921 0.43216 0.7027 0.0
C680 C 0.50723 0.41058 0.68013 0.0
H681 H 0.17473 0.47133 0.01888 0.0
H682 H 0.2331 0.50513 0.8222 0.0
H683 H 0.19641 0.50604 0.7133 0.0
H684 H 0.12821 0.43313 0.86216 0.0
H685 H 0.09872 0.44124 0.92721 0.0
H686 H 0.1302 0.4383 0.98197 0.0
H687 H 0.128 0.48538 0.05024 0.0
H688 H 0.09689 0.48878 0.99464 0.0
H689 H 0.1255 0.51268 0.97718 0.0
H690 H 0.1526 0.5092 0.63505 0.0
H691 H 0.10594 0.51188 0.58761 0.0
H692 H 0.07531 0.47903 0.84075 0.0
C693 C 0.17997 0.47832 0.95204 0.0
C694 C 0.20687 0.48819 0.92897 0.0
C695 C 0.21282 0.49713 0.84096 0.0
C696 C 0.19202 0.49793 0.77906 0.0
C697 C 0.16547 0.48964 0.80632 0.0
C698 C 0.15945 0.47974 0.89053 0.0
C699 C 0.12909 0.47462 0.90692 0.0
C700 C 0.12109 0.44506 0.92032 0.0
C701 C 0.11931 0.49137 0.98695 0.0
C702 C 0.11878 0.48373 0.81937 0.0
C703 C 0.14013 0.49201 0.76198 0.0
C704 C 0.13579 0.50229 0.67867 0.0
C705 C 0.10906 0.50385 0.65274 0.0
C706 C 0.08674 0.49562 0.71045 0.0
C707 C 0.09182 0.48544 0.79504 0.0
H708 H 0.03234 0.85107 0.13285 0.0
H709 H 0.98185 0.79655 0.29877 0.0
H710 H 0.97351 0.83334 0.40534 0.0
H711 H 0.05999 0.89557 0.30961 0.0
H712 H 0.05788 0.92438 0.24309 0.0
H713 H 0.06309 0.89309 0.18892 0.0
H714 H 0.02091 0.89708 0.09338 0.0
H715 H 0.01523 0.92811 0.14835 0.0
H716 H 0.98875 0.90146 0.1487 0.0
H717 H 0.96845 0.87686 0.4877 0.0
H718 H 0.96852 0.9231 0.54307 0.0
H719 H 0.01814 0.94923 0.31235 0.0
C720 C 0.01973 0.84671 0.19211 0.0
C721 C 1.00758 0.82092 0.20725 0.0
C722 C 0.9916 0.81606 0.2863 0.0
C723 C 0.98654 0.83688 0.34661 0.0
C724 C 0.9975 0.86234 0.32628 0.0
C725 C 0.01391 0.86725 0.25113 0.0
C726 C 0.02166 0.89648 0.24039 0.0
C727 C 0.05248 0.90274 0.24589 0.0
C728 C 0.01099 0.90635 0.15251 0.0
C729 C 1.00693 0.90742 0.32129 0.0
C730 C 0.99333 0.88741 0.37049 0.0
C731 C 0.9789 0.89265 0.44948 0.0
C732 C 0.97892 0.91895 0.48002 0.0
C733 C 0.99291 0.93966 0.4309 0.0
C734 C 1.0067 0.93383 0.34982 0.0
H735 H 0.65673 0.97306 0.09472 0.0
H736 H 0.70902 0.98407 0.32303 0.0
H737 H 0.66864 0.97957 0.42546 0.0
H738 H 0.60989 0.01373 0.1757 0.0
H739 H 0.58052 0.99503 0.13115 0.0
H740 H 0.6131 0.99308 0.07651 0.0
H741 H 0.60896 0.94234 0.0906 0.0
H742 H 0.57598 0.94385 0.14362 0.0
H743 H 0.6018 0.92799 0.19897 0.0
H744 H 0.622 0.97935 0.50166 0.0
H745 H 0.57386 0.98308 0.54463 0.0
H746 H 0.55255 0.97606 0.26497 0.0
C747 C 0.65979 0.97384 0.16641 0.0
C748 C 0.68611 0.9789 0.20093 0.0
C749 C 0.68916 0.97982 0.29506 0.0
C750 C 0.66629 0.97745 0.35363 0.0
C751 C 0.64056 0.97404 0.31692 0.0
C752 C 0.63726 0.97197 0.22527 0.0
C753 C 0.60764 0.97127 0.20176 0.0
C754 C 0.6025 0.99468 0.14287 0.0
C755 C 0.59804 0.94478 0.15607 0.0
C756 C 0.59469 0.97395 0.29443 0.0
C757 C 0.61395 0.97514 0.36011 0.0
C758 C 0.60686 0.97853 0.45062 0.0
C759 C 0.57956 0.98108 0.47434 0.0
C760 C 0.55972 0.98073 0.40792 0.0
C761 C 0.56736 0.97654 0.31707 0.0
H762 H 0.49923 0.6722 0.16728 0.0
H763 H 0.54837 0.7244 0.34401 0.0
H764 H 0.55298 0.68686 0.44389 0.0
H765 H 0.46621 0.62799 0.337 0.0
H766 H 0.46832 0.59924 0.2647 0.0
H767 H 0.46536 0.63101 0.2169 0.0
H768 H 0.50881 0.62557 0.12007 0.0
H769 H 0.51232 0.59408 0.16893 0.0
H770 H 0.53971 0.61978 0.17412 0.0
H771 H 0.55534 0.6426 0.51661 0.0
H772 H 0.55307 0.59619 0.56249 0.0
H773 H 0.50585 0.57222 0.32934 0.0
C774 C 0.51056 0.67592 0.22799 0.0
C775 C 0.52354 0.70132 0.24778 0.0
C776 C 0.538 0.7053 0.32804 0.0
C777 C 0.54096 0.68399 0.38449 0.0
C778 C 0.52938 0.65889 0.35941 0.0
C779 C 0.51424 0.65486 0.2834 0.0
C780 C 0.50555 0.62579 0.26722 0.0
C781 C 0.47452 0.62071 0.27178 0.0
C782 C 0.5173 0.61573 0.17727 0.0
C783 C 0.51834 0.61387 0.34593 0.0
C784 C 0.5318 0.63335 0.39862 0.0
C785 C 0.54487 0.62727 0.47577 0.0
C786 C 0.54359 0.6008 0.50095 0.0
C787 C 0.5296 0.58052 0.4488 0.0
C788 C 0.51719 0.58717 0.36942 0.0
H789 H 0.84213 0.52908 0.17178 0.0
H790 H 0.78296 0.50696 0.38238 0.0
H791 H 0.81999 0.50767 0.49113 0.0
H792 H 0.88848 0.48647 0.23276 0.0
H793 H 0.91829 0.50771 0.20351 0.0
H794 H 0.88719 0.51063 0.14713 0.0
H795 H 0.88882 0.56026 0.19273 0.0
H796 H 0.92018 0.55757 0.24855 0.0
H797 H 0.89185 0.57007 0.30934 0.0
H798 H 0.86377 0.50433 0.56951 0.0
H799 H 0.91017 0.50048 0.61808 0.0
H800 H 0.94137 0.52235 0.35236 0.0
C801 C 0.83686 0.52517 0.24151 0.0
C802 C 0.8096 0.51807 0.26894 0.0
C803 C 0.80356 0.51285 0.36033 0.0
C804 C 0.82453 0.51297 0.42215 0.0
C805 C 0.85133 0.51843 0.3913 0.0
C806 C 0.85748 0.52472 0.30318 0.0
C807 C 0.88788 0.52723 0.28445 0.0
C808 C 0.89591 0.5068 0.21274 0.0
C809 C 0.89776 0.55547 0.25718 0.0
C810 C 0.89803 0.52102 0.3757 0.0
C811 C 0.87661 0.51616 0.43633 0.0
C812 C 0.88071 0.50864 0.52346 0.0
C813 C 0.90728 0.50634 0.54994 0.0
C814 C 0.92972 0.51121 0.48919 0.0
C815 C 0.92485 0.51867 0.40074 0.0
loop_
_geom_bond_atom_site_label_1
_geom_bond_atom_site_label_2
_geom_bond_distance
_geom_bond_site_symmetry_2
_ccdc_geom_bond_type
H0 C3 0.929 . S
H1 C6 0.929 1_556 S
H2 C8 0.930 . S
C3 H0 0.929 . S
C3 C4 1.398 . S
C3 C5 1.396 . S
C4 C3 1.398 . S
C4 C8 1.407 . S
C5 C3 1.396 . S
C5 C6 1.394 . S
C6 H1 0.929 1_554 S
C6 C5 1.394 . S
C6 C7 1.382 . S
C7 C6 1.382 . S
C7 C8 1.392 . S
C7 N9 1.420 . S
C8 H2 0.930 . S
C8 C4 1.407 . S
C8 C7 1.392 . S
N9 C7 1.420 . S
N9 C10 1.244 . S
C10 N9 1.244 . S
H11 C14 0.929 . S
H12 C17 0.929 . S
H13 C19 0.930 . S
C14 H11 0.929 . S
C14 C15 1.393 1_655 S
C14 C16 1.394 1_654 S
C15 C14 1.393 1_455 S
C15 C19 1.416 . S
C16 C14 1.394 1_456 S
C16 C17 1.398 . S
C17 H12 0.929 . S
C17 C16 1.398 . S
C17 C18 1.382 1_556 S
C18 C17 1.382 1_554 S
C18 C19 1.392 . S
C18 N20 1.420 . S
C19 H13 0.930 . S
C19 C15 1.416 . S
C19 C18 1.392 . S
N20 C18 1.420 . S
N20 C21 1.232 1_454 S
C21 N20 1.232 1_656 S
H22 C25 0.929 . S
H23 C28 0.929 . S
H24 C30 0.930 . S
C25 H22 0.929 . S
C25 C26 1.398 . S
C25 C27 1.396 1_554 S
C26 C25 1.398 . S
C26 C30 1.407 . S
C27 C25 1.396 1_556 S
C27 C28 1.394 . S
C28 H23 0.929 . S
C28 C27 1.394 . S
C28 C29 1.382 1_556 S
C29 C28 1.382 1_554 S
C29 C30 1.392 . S
C29 N31 1.420 . S
C30 H24 0.930 . S
C30 C26 1.407 . S
C30 C29 1.392 . S
N31 C29 1.420 . S
N31 C32 1.244 1_554 S
C32 N31 1.244 1_556 S
H33 C36 0.929 . S
H34 C39 0.929 1_556 S
H35 C41 0.930 . S
C36 H33 0.929 . S
C36 C37 1.398 . S
C36 C38 1.396 . S
C37 C36 1.398 . S
C37 C41 1.407 . S
C38 C36 1.396 . S
C38 C39 1.394 . S
C39 H34 0.929 1_554 S
C39 C38 1.394 . S
C39 C40 1.382 . S
C40 C39 1.382 . S
C40 C41 1.392 . S
C40 N42 1.420 . S
C41 H35 0.930 . S
C41 C37 1.407 . S
C41 C40 1.392 . S
N42 C40 1.420 . S
N42 C43 1.244 . S
C43 N42 1.244 . S
H44 C47 0.929 . S
H45 C50 0.929 . S
H46 C52 0.930 . S
C47 H44 0.929 . S
C47 C48 1.398 1_554 S
C47 C49 1.396 . S
C48 C47 1.398 1_556 S
C48 C52 1.407 . S
C49 C47 1.396 . S
C49 C50 1.394 . S
C50 H45 0.929 . S
C50 C49 1.394 . S
C50 C51 1.382 . S
C51 C50 1.382 . S
C51 C52 1.392 1_554 S
C51 N53 1.420 . S
C52 H46 0.930 . S
C52 C48 1.407 . S
C52 C51 1.392 1_556 S
N53 C51 1.420 . S
N53 C54 1.244 . S
C54 N53 1.244 . S
H55 C58 0.929 . S
H56 C61 0.929 . S
H57 C63 0.926 1_556 S
C58 H55 0.929 . S
C58 C59 1.398 1_654 S
C58 C60 1.394 1_655 S
C59 C58 1.398 1_456 S
C59 C63 1.412 1_556 S
C60 C58 1.394 1_455 S
C60 C61 1.396 . S
C61 H56 0.929 . S
C61 C60 1.396 . S
C61 C62 1.382 . S
C62 C61 1.382 . S
C62 C63 1.396 . S
C62 N64 1.420 . S
C63 H57 0.926 1_554 S
C63 C59 1.412 1_554 S
C63 C62 1.396 . S
N64 C62 1.420 . S
N64 C65 1.236 1_455 S
C65 N64 1.236 1_655 S
H66 C69 0.929 . S
H67 C72 0.929 . S
H68 C74 0.930 1_556 S
C69 H66 0.929 . S
C69 C70 1.398 . S
C69 C71 1.396 . S
C70 C69 1.398 . S
C70 C74 1.407 . S
C71 C69 1.396 . S
C71 C72 1.394 . S
C72 H67 0.929 . S
C72 C71 1.394 . S
C72 C73 1.382 . S
C73 C72 1.382 . S
C73 C74 1.392 . S
C73 N75 1.420 . S
C74 H68 0.930 1_554 S
C74 C70 1.407 . S
C74 C73 1.392 . S
N75 C73 1.420 . S
N75 C76 1.244 . S
C76 N75 1.244 . S
H77 C80 0.929 . S
H78 C83 0.929 . S
H79 C85 0.930 . S
C80 H77 0.929 . S
C80 C81 1.398 1_554 S
C80 C82 1.396 . S
C81 C80 1.398 1_556 S
C81 C85 1.407 . S
C82 C80 1.396 . S
C82 C83 1.394 . S
C83 H78 0.929 . S
C83 C82 1.394 . S
C83 C84 1.382 . S
C84 C83 1.382 . S
C84 C85 1.392 1_554 S
C84 N86 1.420 . S
C85 H79 0.930 . S
C85 C81 1.407 . S
C85 C84 1.392 1_556 S
N86 C84 1.420 . S
N86 C87 1.244 . S
C87 N86 1.244 . S
Dy88 O92 2.398 . S
Dy88 O93 2.491 1_455 S
Dy88 O94 2.403 . S
Dy88 O95 2.664 1_565 S
Dy88 O99 2.326 . S
Dy88 O103 2.310 1_455 S
Dy88 O104 2.351 1_565 S
C89 O100 1.185 . S
C89 O101 1.355 1_655 S
C90 O92 1.185 . S
C90 O93 1.355 1_455 S
Dy91 O95 2.310 1_655 S
Dy91 O98 2.351 1_545 S
Dy91 O100 2.398 . S
Dy91 O101 2.491 1_655 S
Dy91 O102 2.403 . S
Dy91 O103 2.664 1_545 S
Dy91 O105 2.326 . S
O92 Dy88 2.398 . S
O92 C90 1.185 . S
O93 Dy88 2.491 1_655 S
O93 C90 1.355 1_655 S
O94 Dy88 2.403 . S
O94 C96 1.254 1_565 S
O95 Dy88 2.664 1_545 S
O95 Dy91 2.310 1_455 S
O95 C96 1.268 . S
C96 O94 1.254 1_545 S
C96 O95 1.268 . S
C97 O102 1.254 1_565 S
C97 O103 1.268 . S
O98 Dy91 2.351 1_565 S
O98 C106 1.249 . S
O99 Dy88 2.326 . S
O99 C106 1.267 1_455 S
O100 C89 1.185 . S
O100 Dy91 2.398 . S
O101 C89 1.355 1_455 S
O101 Dy91 2.491 1_455 S
O102 Dy91 2.403 . S
O102 C97 1.254 1_545 S
O103 Dy88 2.310 1_655 S
O103 Dy91 2.664 1_565 S
O103 C97 1.268 . S
O104 Dy88 2.351 1_545 S
O104 C107 1.249 . S
O105 Dy91 2.326 . S
O105 C107 1.267 1_655 S
C106 O98 1.249 . S
C106 O99 1.267 1_655 S
C107 O104 1.249 . S
C107 O105 1.267 1_455 S
Dy108 O112 2.398 . S
Dy108 O113 2.491 1_565 S
Dy108 O114 2.403 . S
Dy108 O115 2.664 . S
Dy108 O119 2.326 1_565 S
Dy108 O123 2.310 1_565 S
Dy108 O124 2.351 . S
C109 O120 1.185 . S
C109 O121 1.355 1_545 S
C110 O112 1.185 1_545 S
C110 O113 1.355 . S
Dy111 O115 2.310 1_545 S
Dy111 O118 2.351 . S
Dy111 O120 2.398 . S
Dy111 O121 2.491 1_545 S
Dy111 O122 2.403 . S
Dy111 O123 2.664 . S
Dy111 O125 2.326 1_545 S
O112 Dy108 2.398 . S
O112 C110 1.185 1_565 S
O113 Dy108 2.491 1_545 S
O113 C110 1.355 . S
O114 Dy108 2.403 . S
O114 C116 1.254 . S
O115 Dy108 2.664 . S
O115 Dy111 2.310 1_565 S
O115 C116 1.268 . S
C116 O114 1.254 . S
C116 O115 1.268 . S
C117 O122 1.254 . S
C117 O123 1.268 . S
O118 Dy111 2.351 . S
O118 C126 1.249 . S
O119 Dy108 2.326 1_545 S
O119 C126 1.267 . S
O120 C109 1.185 . S
O120 Dy111 2.398 . S
O121 C109 1.355 1_565 S
O121 Dy111 2.491 1_565 S
O122 Dy111 2.403 . S
O122 C117 1.254 . S
O123 Dy108 2.310 1_545 S
O123 Dy111 2.664 . S
O123 C117 1.268 . S
O124 Dy108 2.351 . S
O124 C127 1.249 . S
O125 Dy111 2.326 1_565 S
O125 C127 1.267 . S
C126 O118 1.249 . S
C126 O119 1.267 . S
C127 O124 1.249 . S
C127 O125 1.267 . S
Dy128 O132 2.398 . S
Dy128 O133 2.491 . S
Dy128 O134 2.403 . S
Dy128 O135 2.664 . S
Dy128 O139 2.326 . S
Dy128 O143 2.310 . S
Dy128 O144 2.351 . S
C129 O140 1.185 . S
C129 O141 1.355 . S
C130 O132 1.185 . S
C130 O133 1.355 . S
Dy131 O135 2.310 . S
Dy131 O138 2.351 . S
Dy131 O140 2.398 . S
Dy131 O141 2.491 . S
Dy131 O142 2.403 . S
Dy131 O143 2.664 . S
Dy131 O145 2.326 . S
O132 Dy128 2.398 . S
O132 C130 1.185 . S
O133 Dy128 2.491 . S
O133 C130 1.355 . S
O134 Dy128 2.403 . S
O134 C136 1.254 . S
O135 Dy128 2.664 . S
O135 Dy131 2.310 . S
O135 C136 1.268 . S
C136 O134 1.254 . S
C136 O135 1.268 . S
C137 O142 1.254 . S
C137 O143 1.268 . S
O138 Dy131 2.351 . S
O138 C146 1.249 . S
O139 Dy128 2.326 . S
O139 C146 1.267 . S
O140 C129 1.185 . S
O140 Dy131 2.398 . S
O141 C129 1.355 . S
O141 Dy131 2.491 . S
O142 Dy131 2.403 . S
O142 C137 1.254 . S
O143 Dy128 2.310 . S
O143 Dy131 2.664 . S
O143 C137 1.268 . S
O144 Dy128 2.351 . S
O144 C147 1.249 . S
O145 Dy131 2.326 . S
O145 C147 1.267 . S
C146 O138 1.249 . S
C146 O139 1.267 . S
C147 O144 1.249 . S
C147 O145 1.267 . S
Dy148 O152 2.398 . S
Dy148 O153 2.491 . S
Dy148 O154 2.403 . S
Dy148 O155 2.664 1_655 S
Dy148 O159 2.326 . S
Dy148 O163 2.310 . S
Dy148 O164 2.351 1_655 S
C149 O160 1.185 . S
C149 O161 1.355 . S
C150 O152 1.185 . S
C150 O153 1.355 . S
Dy151 O155 2.310 . S
Dy151 O158 2.351 1_455 S
Dy151 O160 2.398 . S
Dy151 O161 2.491 . S
Dy151 O162 2.403 . S
Dy151 O163 2.664 1_455 S
Dy151 O165 2.326 . S
O152 Dy148 2.398 . S
O152 C150 1.185 . S
O153 Dy148 2.491 . S
O153 C150 1.355 . S
O154 Dy148 2.403 . S
O154 C156 1.254 . S
O155 Dy148 2.664 1_455 S
O155 Dy151 2.310 . S
O155 C156 1.268 1_455 S
C156 O154 1.254 . S
C156 O155 1.268 1_655 S
C157 O162 1.254 . S
C157 O163 1.268 1_455 S
O158 Dy151 2.351 1_655 S
O158 C166 1.249 . S
O159 Dy148 2.326 . S
O159 C166 1.267 . S
O160 C149 1.185 . S
O160 Dy151 2.398 . S
O161 C149 1.355 . S
O161 Dy151 2.491 . S
O162 Dy151 2.403 . S
O162 C157 1.254 . S
O163 Dy148 2.310 . S
O163 Dy151 2.664 1_655 S
O163 C157 1.268 1_655 S
O164 Dy148 2.351 1_455 S
O164 C167 1.249 . S
O165 Dy151 2.326 . S
O165 C167 1.267 . S
C166 O158 1.249 . S
C166 O159 1.267 . S
C167 O164 1.249 . S
C167 O165 1.267 . S
H168 C180 0.930 . S
H169 C182 0.930 . S
H170 C183 0.930 . S
H171 C187 0.959 . S
H172 C187 0.959 . S
H173 C187 0.961 . S
H174 C188 0.960 . S
H175 C188 0.961 . S
H176 C188 0.959 . S
H177 C191 0.929 . S
H178 C192 0.931 . S
H179 C194 0.930 1_565 S
C180 H168 0.930 . S
C180 C181 1.399 . S
C180 C185 1.399 . S
C181 C180 1.399 . S
C181 C182 1.376 . S
C182 H169 0.930 . S
C182 C181 1.376 . S
C182 C183 1.388 . S
C183 H170 0.930 . S
C183 C182 1.388 . S
C183 C184 1.390 . S
C184 C183 1.390 . S
C184 C185 1.394 . S
C184 C190 1.465 . S
C185 C180 1.399 . S
C185 C184 1.394 . S
C185 C186 1.516 1_545 S
C186 C185 1.516 1_565 S
C186 C187 1.502 . S
C186 C188 1.561 . S
C186 C189 1.526 1_565 S
C187 H171 0.959 . S
C187 H172 0.959 . S
C187 H173 0.961 . S
C187 C186 1.502 . S
C188 H174 0.960 . S
C188 H175 0.961 . S
C188 H176 0.959 . S
C188 C186 1.561 . S
C189 C186 1.526 1_545 S
C189 C190 1.396 . S
C189 C194 1.390 . S
C190 C184 1.465 . S
C190 C189 1.396 . S
C190 C191 1.399 . S
C191 H177 0.929 . S
C191 C190 1.399 . S
C191 C192 1.385 . S
C192 H178 0.931 . S
C192 C191 1.385 . S
C192 C193 1.389 . S
C193 C192 1.389 . S
C193 C194 1.387 . S
C194 H179 0.930 1_545 S
C194 C189 1.390 . S
C194 C193 1.387 . S
H195 C207 0.930 . S
H196 C209 0.930 . S
H197 C210 0.930 . S
H198 C214 0.959 . S
H199 C214 0.959 . S
H200 C214 0.961 . S
H201 C215 0.960 . S
H202 C215 0.961 . S
H203 C215 0.959 . S
H204 C218 0.929 . S
H205 C219 0.931 . S
H206 C221 0.930 . S
C207 H195 0.930 . S
C207 C208 1.399 . S
C207 C212 1.399 . S
C208 C207 1.399 . S
C208 C209 1.376 . S
C209 H196 0.930 . S
C209 C208 1.376 . S
C209 C210 1.388 . S
C210 H197 0.930 . S
C210 C209 1.388 . S
C210 C211 1.390 . S
C211 C210 1.390 . S
C211 C212 1.394 . S
C211 C217 1.465 . S
C212 C207 1.399 . S
C212 C211 1.394 . S
C212 C213 1.516 . S
C213 C212 1.516 . S
C213 C214 1.502 . S
C213 C215 1.561 . S
C213 C216 1.526 . S
C214 H198 0.959 . S
C214 H199 0.959 . S
C214 H200 0.961 . S
C214 C213 1.502 . S
C215 H201 0.960 . S
C215 H202 0.961 . S
C215 H203 0.959 . S
C215 C213 1.561 . S
C216 C213 1.526 . S
C216 C217 1.396 . S
C216 C221 1.390 . S
C217 C211 1.465 . S
C217 C216 1.396 . S
C217 C218 1.399 . S
C218 H204 0.929 . S
C218 C217 1.399 . S
C218 C219 1.385 . S
C219 H205 0.931 . S
C219 C218 1.385 . S
C219 C220 1.389 . S
C220 C219 1.389 . S
C220 C221 1.387 . S
C221 H206 0.930 . S
C221 C216 1.390 . S
C221 C220 1.387 . S
H222 C234 0.930 . S
H223 C236 0.930 . S
H224 C237 0.930 . S
H225 C241 0.959 . S
H226 C241 0.959 . S
H227 C241 0.961 . S
H228 C242 0.960 . S
H229 C242 0.961 . S
H230 C242 0.959 . S
H231 C245 0.929 . S
H232 C246 0.931 . S
H233 C248 0.930 . S
C234 H222 0.930 . S
C234 C235 1.399 . S
C234 C239 1.399 . S
C235 C234 1.399 . S
C235 C236 1.376 . S
C236 H223 0.930 . S
C236 C235 1.376 . S
C236 C237 1.388 . S
C237 H224 0.930 . S
C237 C236 1.388 . S
C237 C238 1.390 . S
C238 C237 1.390 . S
C238 C239 1.394 . S
C238 C244 1.465 . S
C239 C234 1.399 . S
C239 C238 1.394 . S
C239 C240 1.516 . S
C240 C239 1.516 . S
C240 C241 1.502 . S
C240 C242 1.561 . S
C240 C243 1.526 . S
C241 H225 0.959 . S
C241 H226 0.959 . S
C241 H227 0.961 . S
C241 C240 1.502 . S
C242 H228 0.960 . S
C242 H229 0.961 . S
C242 H230 0.959 . S
C242 C240 1.561 . S
C243 C240 1.526 . S
C243 C244 1.396 . S
C243 C248 1.390 . S
C244 C238 1.465 . S
C244 C243 1.396 . S
C244 C245 1.399 . S
C245 H231 0.929 . S
C245 C244 1.399 . S
C245 C246 1.385 . S
C246 H232 0.931 . S
C246 C245 1.385 . S
C246 C247 1.389 . S
C247 C246 1.389 . S
C247 C248 1.387 . S
C248 H233 0.930 . S
C248 C243 1.390 . S
C248 C247 1.387 . S
H249 C261 0.930 . S
H250 C263 0.930 . S
H251 C264 0.930 . S
H252 C268 0.959 . S
H253 C268 0.959 . S
H254 C268 0.961 . S
H255 C269 0.960 . S
H256 C269 0.961 . S
H257 C269 0.959 . S
H258 C272 0.929 . S
H259 C273 0.931 . S
H260 C275 0.930 . S
C261 H249 0.930 . S
C261 C262 1.399 1_455 S
C261 C266 1.398 1_455 S
C262 C261 1.399 1_655 S
C262 C263 1.376 . S
C263 H250 0.930 . S
C263 C262 1.376 . S
C263 C264 1.388 . S
C264 H251 0.930 . S
C264 C263 1.388 . S
C264 C265 1.390 . S
C265 C264 1.390 . S
C265 C266 1.394 . S
C265 C271 1.465 . S
C266 C261 1.398 1_655 S
C266 C265 1.394 . S
C266 C267 1.516 1_655 S
C267 C266 1.516 1_455 S
C267 C268 1.502 . S
C267 C269 1.561 1_455 S
C267 C270 1.524 1_455 S
C268 H252 0.959 . S
C268 H253 0.959 . S
C268 H254 0.961 . S
C268 C267 1.502 . S
C269 H255 0.960 . S
C269 H256 0.961 . S
C269 H257 0.959 . S
C269 C267 1.561 1_655 S
C270 C267 1.524 1_655 S
C270 C271 1.398 . S
C270 C275 1.390 1_655 S
C271 C265 1.465 . S
C271 C270 1.398 . S
C271 C272 1.399 . S
C272 H258 0.929 . S
C272 C271 1.399 . S
C272 C273 1.385 . S
C273 H259 0.931 . S
C273 C272 1.385 . S
C273 C274 1.389 . S
C274 C273 1.389 . S
C274 C275 1.387 1_655 S
C275 H260 0.930 . S
C275 C270 1.390 1_455 S
C275 C274 1.387 1_455 S
H276 C288 0.930 . S
H277 C290 0.930 . S
H278 C291 0.885 1_545 S
H279 C295 0.959 . S
H280 C295 0.959 . S
H281 C295 0.961 . S
H282 C296 0.960 . S
H283 C296 0.961 . S
H284 C296 0.959 . S
H285 C299 0.929 . S
H286 C300 0.931 . S
H287 C302 0.930 . S
C288 H276 0.930 . S
C288 C289 1.399 . S
C288 C293 1.399 . S
C289 C288 1.399 . S
C289 C290 1.376 . S
C290 H277 0.930 . S
C290 C289 1.376 . S
C290 C291 1.405 . S
C291 H278 0.885 1_565 S
C291 C290 1.405 . S
C291 C292 1.420 . S
C292 C291 1.420 . S
C292 C293 1.394 . S
C292 C298 1.465 . S
C293 C288 1.399 . S
C293 C292 1.394 . S
C293 C294 1.516 . S
C294 C293 1.516 . S
C294 C295 1.502 . S
C294 C296 1.561 . S
C294 C297 1.526 . S
C295 H279 0.959 . S
C295 H280 0.959 . S
C295 H281 0.961 . S
C295 C294 1.502 . S
C296 H282 0.960 . S
C296 H283 0.961 . S
C296 H284 0.959 . S
C296 C294 1.561 . S
C297 C294 1.526 . S
C297 C298 1.396 . S
C297 C302 1.390 . S
C298 C292 1.465 . S
C298 C297 1.396 . S
C298 C299 1.399 1_565 S
C299 H285 0.929 . S
C299 C298 1.399 1_545 S
C299 C300 1.385 . S
C300 H286 0.931 . S
C300 C299 1.385 . S
C300 C301 1.389 1_545 S
C301 C300 1.389 1_565 S
C301 C302 1.387 . S
C302 H287 0.930 . S
C302 C297 1.390 . S
C302 C301 1.387 . S
H303 C315 0.930 . S
H304 C317 0.930 . S
H305 C318 0.930 . S
H306 C322 0.960 . S
H307 C322 0.959 1_556 S
H308 C322 0.961 . S
H309 C323 0.960 . S
H310 C323 0.961 . S
H311 C323 0.959 . S
H312 C326 0.929 . S
H313 C327 0.931 . S
H314 C329 0.930 . S
C315 H303 0.930 . S
C315 C316 1.399 1_554 S
C315 C320 1.399 1_554 S
C316 C315 1.399 1_556 S
C316 C317 1.376 . S
C317 H304 0.930 . S
C317 C316 1.376 . S
C317 C318 1.388 . S
C318 H305 0.930 . S
C318 C317 1.388 . S
C318 C319 1.390 . S
C319 C318 1.390 . S
C319 C320 1.394 . S
C319 C325 1.465 . S
C320 C315 1.399 1_556 S
C320 C319 1.394 . S
C320 C321 1.516 . S
C321 C320 1.516 . S
C321 C322 1.502 1_556 S
C321 C323 1.561 . S
C321 C324 1.526 . S
C322 H306 0.960 . S
C322 H307 0.959 1_554 S
C322 H308 0.961 . S
C322 C321 1.502 1_554 S
C323 H309 0.960 . S
C323 H310 0.961 . S
C323 H311 0.959 . S
C323 C321 1.561 . S
C324 C321 1.526 . S
C324 C325 1.396 . S
C324 C329 1.390 . S
C325 C319 1.465 . S
C325 C324 1.396 . S
C325 C326 1.399 . S
C326 H312 0.929 . S
C326 C325 1.399 . S
C326 C327 1.385 . S
C327 H313 0.931 . S
C327 C326 1.385 . S
C327 C328 1.389 . S
C328 C327 1.389 . S
C328 C329 1.387 . S
C329 H314 0.930 . S
C329 C324 1.390 . S
C329 C328 1.387 . S
H330 C342 0.930 . S
H331 C344 0.930 . S
H332 C345 0.930 . S
H333 C349 0.959 . S
H334 C349 0.959 . S
H335 C349 0.961 . S
H336 C350 0.960 . S
H337 C350 0.961 . S
H338 C350 0.959 . S
H339 C353 0.929 . S
H340 C354 0.931 . S
H341 C356 0.930 . S
C342 H330 0.930 . S
C342 C343 1.399 . S
C342 C347 1.399 . S
C343 C342 1.399 . S
C343 C344 1.376 . S
C344 H331 0.930 . S
C344 C343 1.376 . S
C344 C345 1.388 . S
C345 H332 0.930 . S
C345 C344 1.388 . S
C345 C346 1.390 . S
C346 C345 1.390 . S
C346 C347 1.394 . S
C346 C352 1.465 . S
C347 C342 1.399 . S
C347 C346 1.394 . S
C347 C348 1.516 . S
C348 C347 1.516 . S
C348 C349 1.502 . S
C348 C350 1.561 . S
C348 C351 1.526 . S
C349 H333 0.959 . S
C349 H334 0.959 . S
C349 H335 0.961 . S
C349 C348 1.502 . S
C350 H336 0.960 . S
C350 H337 0.961 . S
C350 H338 0.959 . S
C350 C348 1.561 . S
C351 C348 1.526 . S
C351 C352 1.396 . S
C351 C356 1.390 . S
C352 C346 1.465 . S
C352 C351 1.396 . S
C352 C353 1.399 . S
C353 H339 0.929 . S
C353 C352 1.399 . S
C353 C354 1.385 . S
C354 H340 0.931 . S
C354 C353 1.385 . S
C354 C355 1.389 . S
C355 C354 1.389 . S
C355 C356 1.387 . S
C356 H341 0.930 . S
C356 C351 1.390 . S
C356 C355 1.387 . S
H357 C369 0.930 . S
H358 C371 0.930 . S
H359 C372 0.930 1_554 S
H360 C376 0.959 . S
H361 C376 0.959 . S
H362 C376 0.961 . S
H363 C377 0.960 . S
H364 C377 0.961 . S
H365 C377 0.959 . S
H366 C380 0.929 . S
H367 C381 0.931 . S
H368 C383 0.930 . S
C369 H357 0.930 . S
C369 C370 1.399 1_655 S
C369 C374 1.399 . S
C370 C369 1.399 1_455 S
C370 C371 1.376 1_556 S
C371 H358 0.930 . S
C371 C370 1.376 1_554 S
C371 C372 1.388 1_554 S
C372 H359 0.930 1_556 S
C372 C371 1.388 1_556 S
C372 C373 1.390 . S
C373 C372 1.390 . S
C373 C374 1.394 1_455 S
C373 C379 1.465 . S
C374 C369 1.399 . S
C374 C373 1.394 1_655 S
C374 C375 1.516 . S
C375 C374 1.516 . S
C375 C376 1.502 . S
C375 C377 1.561 1_655 S
C375 C378 1.536 . S
C376 H360 0.959 . S
C376 H361 0.959 . S
C376 H362 0.961 . S
C376 C375 1.502 . S
C377 H363 0.960 . S
C377 H364 0.961 . S
C377 H365 0.959 . S
C377 C375 1.561 1_455 S
C378 C375 1.536 . S
C378 C379 1.383 1_655 S
C378 C383 1.392 . S
C379 C373 1.465 . S
C379 C378 1.383 1_455 S
C379 C380 1.399 . S
C380 H366 0.929 . S
C380 C379 1.399 . S
C380 C381 1.385 . S
C381 H367 0.931 . S
C381 C380 1.385 . S
C381 C382 1.389 . S
C382 C381 1.389 . S
C382 C383 1.387 1_455 S
C383 H368 0.930 . S
C383 C378 1.392 . S
C383 C382 1.387 1_655 S
H384 C396 0.930 . S
H385 C398 0.930 . S
H386 C399 0.930 . S
H387 C403 0.959 . S
H388 C403 0.959 . S
H389 C403 0.961 . S
H390 C404 0.960 . S
H391 C404 0.961 . S
H392 C404 0.959 . S
H393 C407 0.929 . S
H394 C408 0.931 . S
H395 C410 0.930 . S
C396 H384 0.930 . S
C396 C397 1.399 1_455 S
C396 C401 1.399 . S
C397 C396 1.399 1_655 S
C397 C398 1.376 . S
C398 H385 0.930 . S
C398 C397 1.376 . S
C398 C399 1.388 . S
C399 H386 0.930 . S
C399 C398 1.388 . S
C399 C400 1.390 . S
C400 C399 1.390 . S
C400 C401 1.394 1_655 S
C400 C406 1.465 . S
C401 C396 1.399 . S
C401 C400 1.394 1_455 S
C401 C402 1.516 . S
C402 C401 1.516 . S
C402 C403 1.502 . S
C402 C404 1.561 . S
C402 C405 1.526 . S
C403 H387 0.959 . S
C403 H388 0.959 . S
C403 H389 0.961 . S
C403 C402 1.502 . S
C404 H390 0.960 . S
C404 H391 0.961 . S
C404 H392 0.959 . S
C404 C402 1.561 . S
C405 C402 1.526 . S
C405 C406 1.396 1_455 S
C405 C410 1.390 . S
C406 C400 1.465 . S
C406 C405 1.396 1_655 S
C406 C407 1.399 . S
C407 H393 0.929 . S
C407 C406 1.399 . S
C407 C408 1.385 . S
C408 H394 0.931 . S
C408 C407 1.385 . S
C408 C409 1.389 . S
C409 C408 1.389 . S
C409 C410 1.387 1_655 S
C410 H395 0.930 . S
C410 C405 1.390 . S
C410 C409 1.387 1_455 S
H411 C423 0.930 . S
H412 C425 0.930 . S
H413 C426 0.930 1_565 S
H414 C430 0.959 . S
H415 C430 0.959 . S
H416 C430 0.961 . S
H417 C431 0.960 . S
H418 C431 0.961 . S
H419 C431 0.959 . S
H420 C434 0.929 . S
H421 C435 0.931 . S
H422 C437 0.930 . S
C423 H411 0.930 . S
C423 C424 1.399 . S
C423 C428 1.399 . S
C424 C423 1.399 . S
C424 C425 1.376 . S
C425 H412 0.930 . S
C425 C424 1.376 . S
C425 C426 1.388 . S
C426 H413 0.930 1_545 S
C426 C425 1.388 . S
C426 C427 1.390 . S
C427 C426 1.390 . S
C427 C428 1.394 . S
C427 C433 1.465 . S
C428 C423 1.399 . S
C428 C427 1.394 . S
C428 C429 1.516 . S
C429 C428 1.516 . S
C429 C430 1.502 . S
C429 C431 1.561 . S
C429 C432 1.526 . S
C430 H414 0.959 . S
C430 H415 0.959 . S
C430 H416 0.961 . S
C430 C429 1.502 . S
C431 H417 0.960 . S
C431 H418 0.961 . S
C431 H419 0.959 . S
C431 C429 1.561 . S
C432 C429 1.526 . S
C432 C433 1.396 . S
C432 C437 1.390 . S
C433 C427 1.465 . S
C433 C432 1.396 . S
C433 C434 1.399 1_545 S
C434 H420 0.929 . S
C434 C433 1.399 1_565 S
C434 C435 1.385 . S
C435 H421 0.931 . S
C435 C434 1.385 . S
C435 C436 1.389 1_565 S
C436 C435 1.389 1_545 S
C436 C437 1.387 . S
C437 H422 0.930 . S
C437 C432 1.390 . S
C437 C436 1.387 . S
H438 C450 0.930 . S
H439 C452 0.930 . S
H440 C453 0.930 . S
H441 C457 0.959 . S
H442 C457 0.959 . S
H443 C457 0.961 . S
H444 C458 0.960 . S
H445 C458 0.961 . S
H446 C458 0.959 . S
H447 C461 0.929 . S
H448 C462 0.931 . S
H449 C464 0.930 . S
C450 H438 0.930 . S
C450 C451 1.399 . S
C450 C455 1.399 . S
C451 C450 1.399 . S
C451 C452 1.376 . S
C452 H439 0.930 . S
C452 C451 1.376 . S
C452 C453 1.388 . S
C453 H440 0.930 . S
C453 C452 1.388 . S
C453 C454 1.390 . S
C454 C453 1.390 . S
C454 C455 1.394 . S
C454 C460 1.465 . S
C455 C450 1.399 . S
C455 C454 1.394 . S
C455 C456 1.516 . S
C456 C455 1.516 . S
C456 C457 1.502 . S
C456 C458 1.561 . S
C456 C459 1.526 . S
C457 H441 0.959 . S
C457 H442 0.959 . S
C457 H443 0.961 . S
C457 C456 1.502 . S
C458 H444 0.960 . S
C458 H445 0.961 . S
C458 H446 0.959 . S
C458 C456 1.561 . S
C459 C456 1.526 . S
C459 C460 1.396 . S
C459 C464 1.390 . S
C460 C454 1.465 . S
C460 C459 1.396 . S
C460 C461 1.399 . S
C461 H447 0.929 . S
C461 C460 1.399 . S
C461 C462 1.385 . S
C462 H448 0.931 . S
C462 C461 1.385 . S
C462 C463 1.389 . S
C463 C462 1.389 . S
C463 C464 1.387 . S
C464 H449 0.930 . S
C464 C459 1.390 . S
C464 C463 1.387 . S
H465 C477 0.930 . S
H466 C479 0.930 . S
H467 C480 0.930 . S
H468 C484 0.959 . S
H469 C484 0.959 . S
H470 C484 0.961 . S
H471 C485 0.960 . S
H472 C485 0.961 . S
H473 C485 0.959 . S
H474 C488 0.929 . S
H475 C489 0.931 . S
H476 C491 0.930 . S
C477 H465 0.930 . S
C477 C478 1.399 . S
C477 C482 1.399 . S
C478 C477 1.399 . S
C478 C479 1.376 . S
C479 H466 0.930 . S
C479 C478 1.376 . S
C479 C480 1.388 . S
C480 H467 0.930 . S
C480 C479 1.388 . S
C480 C481 1.390 . S
C481 C480 1.390 . S
C481 C482 1.394 . S
C481 C487 1.465 . S
C482 C477 1.399 . S
C482 C481 1.394 . S
C482 C483 1.516 . S
C483 C482 1.516 . S
C483 C484 1.502 . S
C483 C485 1.561 . S
C483 C486 1.526 . S
C484 H468 0.959 . S
C484 H469 0.959 . S
C484 H470 0.961 . S
C484 C483 1.502 . S
C485 H471 0.960 . S
C485 H472 0.961 . S
C485 H473 0.959 . S
C485 C483 1.561 . S
C486 C483 1.526 . S
C486 C487 1.396 . S
C486 C491 1.390 . S
C487 C481 1.465 . S
C487 C486 1.396 . S
C487 C488 1.399 . S
C488 H474 0.929 . S
C488 C487 1.399 . S
C488 C489 1.385 . S
C489 H475 0.931 . S
C489 C488 1.385 . S
C489 C490 1.389 . S
C490 C489 1.389 . S
C490 C491 1.387 . S
C491 H476 0.930 . S
C491 C486 1.390 . S
C491 C490 1.387 . S
H492 C504 0.930 . S
H493 C506 0.930 . S
H494 C507 0.930 1_554 S
H495 C511 0.959 . S
H496 C511 0.959 . S
H497 C511 0.961 . S
H498 C512 0.960 . S
H499 C512 0.961 . S
H500 C512 0.959 1_655 S
H501 C515 0.929 . S
H502 C516 0.931 . S
H503 C518 0.930 . S
C504 H492 0.930 . S
C504 C505 1.399 1_455 S
C504 C509 1.399 . S
C505 C504 1.399 1_655 S
C505 C506 1.376 1_556 S
C506 H493 0.930 . S
C506 C505 1.376 1_554 S
C506 C507 1.388 1_554 S
C507 H494 0.930 1_556 S
C507 C506 1.388 1_556 S
C507 C508 1.390 . S
C508 C507 1.390 . S
C508 C509 1.394 1_655 S
C508 C514 1.465 . S
C509 C504 1.399 . S
C509 C508 1.394 1_455 S
C509 C510 1.516 . S
C510 C509 1.516 . S
C510 C511 1.502 . S
C510 C512 1.561 . S
C510 C513 1.526 . S
C511 H495 0.959 . S
C511 H496 0.959 . S
C511 H497 0.961 . S
C511 C510 1.502 . S
C512 H498 0.960 . S
C512 H499 0.961 . S
C512 H500 0.959 1_455 S
C512 C510 1.561 . S
C513 C510 1.526 . S
C513 C514 1.396 1_455 S
C513 C518 1.390 . S
C514 C508 1.465 . S
C514 C513 1.396 1_655 S
C514 C515 1.399 . S
C515 H501 0.929 . S
C515 C514 1.399 . S
C515 C516 1.385 . S
C516 H502 0.931 . S
C516 C515 1.385 . S
C516 C517 1.389 1_655 S
C517 C516 1.389 1_455 S
C517 C518 1.387 . S
C518 H503 0.930 . S
C518 C513 1.390 . S
C518 C517 1.387 . S
H519 C531 0.930 . S
H520 C533 0.930 . S
H521 C534 0.930 . S
H522 C538 0.959 1_565 S
H523 C538 0.959 . S
H524 C538 0.961 . S
H525 C539 0.960 . S
H526 C539 0.961 . S
H527 C539 0.959 . S
H528 C542 0.929 . S
H529 C543 0.931 . S
H530 C545 0.930 . S
C531 H519 0.930 . S
C531 C532 1.399 . S
C531 C536 1.399 . S
C532 C531 1.399 . S
C532 C533 1.376 . S
C533 H520 0.930 . S
C533 C532 1.376 . S
C533 C534 1.388 . S
C534 H521 0.930 . S
C534 C533 1.388 . S
C534 C535 1.390 . S
C535 C534 1.390 . S
C535 C536 1.394 . S
C535 C541 1.465 . S
C536 C531 1.399 . S
C536 C535 1.394 . S
C536 C537 1.516 1_565 S
C537 C536 1.516 1_545 S
C537 C538 1.502 1_556 S
C537 C539 1.561 . S
C537 C540 1.526 1_545 S
C538 H522 0.959 1_545 S
C538 H523 0.959 . S
C538 H524 0.961 . S
C538 C537 1.502 1_554 S
C539 H525 0.960 . S
C539 H526 0.961 . S
C539 H527 0.959 . S
C539 C537 1.561 . S
C540 C537 1.526 1_565 S
C540 C541 1.396 . S
C540 C545 1.390 1_565 S
C541 C535 1.465 . S
C541 C540 1.396 . S
C541 C542 1.399 . S
C542 H528 0.929 . S
C542 C541 1.399 . S
C542 C543 1.385 . S
C543 H529 0.931 . S
C543 C542 1.385 . S
C543 C544 1.389 . S
C544 C543 1.389 . S
C544 C545 1.387 1_565 S
C545 H530 0.930 . S
C545 C540 1.390 1_545 S
C545 C544 1.387 1_545 S
H546 C558 0.930 . S
H547 C560 0.930 1_554 S
H548 C561 0.930 . S
H549 C565 0.959 . S
H550 C565 0.959 . S
H551 C565 0.961 . S
H552 C566 0.960 . S
H553 C566 0.961 . S
H554 C566 0.959 . S
H555 C569 0.929 . S
H556 C570 0.931 . S
H557 C572 0.930 . S
C558 H546 0.930 . S
C558 C559 1.399 1_556 S
C558 C563 1.399 . S
C559 C558 1.399 1_554 S
C559 C560 1.376 1_554 S
C560 H547 0.930 1_556 S
C560 C559 1.376 1_556 S
C560 C561 1.388 . S
C561 H548 0.930 . S
C561 C560 1.388 . S
C561 C562 1.390 . S
C562 C561 1.390 . S
C562 C563 1.394 . S
C562 C568 1.465 . S
C563 C558 1.399 . S
C563 C562 1.394 . S
C563 C564 1.516 . S
C564 C563 1.516 . S
C564 C565 1.502 . S
C564 C566 1.561 . S
C564 C567 1.526 . S
C565 H549 0.959 . S
C565 H550 0.959 . S
C565 H551 0.961 . S
C565 C564 1.502 . S
C566 H552 0.960 . S
C566 H553 0.961 . S
C566 H554 0.959 . S
C566 C564 1.561 . S
C567 C564 1.526 . S
C567 C568 1.396 . S
C567 C572 1.390 . S
C568 C562 1.465 . S
C568 C567 1.396 . S
C568 C569 1.399 . S
C569 H555 0.929 . S
C569 C568 1.399 . S
C569 C570 1.385 . S
C570 H556 0.931 . S
C570 C569 1.385 . S
C570 C571 1.389 . S
C571 C570 1.389 . S
C571 C572 1.387 . S
C572 H557 0.930 . S
C572 C567 1.390 . S
C572 C571 1.387 . S
H573 C585 0.930 . S
H574 C587 0.930 . S
H575 C588 0.930 . S
H576 C592 0.959 . S
H577 C592 0.959 . S
H578 C592 0.961 . S
H579 C593 0.960 . S
H580 C593 0.961 . S
H581 C593 0.959 . S
H582 C596 0.929 . S
H583 C597 0.931 . S
H584 C599 0.930 . S
C585 H573 0.930 . S
C585 C586 1.399 . S
C585 C590 1.399 . S
C586 C585 1.399 . S
C586 C587 1.376 1_556 S
C587 H574 0.930 . S
C587 C586 1.376 1_554 S
C587 C588 1.388 . S
C588 H575 0.930 . S
C588 C587 1.388 . S
C588 C589 1.390 1_554 S
C589 C588 1.390 1_556 S
C589 C590 1.394 . S
C589 C595 1.465 . S
C590 C585 1.399 . S
C590 C589 1.394 . S
C590 C591 1.516 . S
C591 C590 1.516 . S
C591 C592 1.502 . S
C591 C593 1.561 . S
C591 C594 1.526 . S
C592 H576 0.959 . S
C592 H577 0.959 . S
C592 H578 0.961 . S
C592 C591 1.502 . S
C593 H579 0.960 . S
C593 H580 0.961 . S
C593 H581 0.959 . S
C593 C591 1.561 . S
C594 C591 1.526 . S
C594 C595 1.396 . S
C594 C599 1.390 . S
C595 C589 1.465 . S
C595 C594 1.396 . S
C595 C596 1.399 . S
C596 H582 0.929 . S
C596 C595 1.399 . S
C596 C597 1.385 . S
C597 H583 0.931 . S
C597 C596 1.385 . S
C597 C598 1.389 . S
C598 C597 1.389 . S
C598 C599 1.387 . S
C599 H584 0.930 . S
C599 C594 1.390 . S
C599 C598 1.387 . S
H600 C612 0.930 . S
H601 C614 0.930 . S
H602 C615 0.930 . S
H603 C619 0.959 . S
H604 C619 0.959 . S
H605 C619 0.961 . S
H606 C620 0.960 1_554 S
H607 C620 0.961 . S
H608 C620 0.959 1_655 S
H609 C623 0.929 . S
H610 C624 0.931 . S
H611 C626 0.930 . S
C612 H600 0.930 . S
C612 C613 1.399 1_455 S
C612 C617 1.399 . S
C613 C612 1.399 1_655 S
C613 C614 1.376 . S
C614 H601 0.930 . S
C614 C613 1.376 . S
C614 C615 1.388 . S
C615 H602 0.930 . S
C615 C614 1.388 . S
C615 C616 1.390 . S
C616 C615 1.390 . S
C616 C617 1.394 1_655 S
C616 C622 1.465 . S
C617 C612 1.399 . S
C617 C616 1.394 1_455 S
C617 C618 1.516 . S
C618 C617 1.516 . S
C618 C619 1.502 . S
C618 C620 1.561 . S
C618 C621 1.526 . S
C619 H603 0.959 . S
C619 H604 0.959 . S
C619 H605 0.961 . S
C619 C618 1.502 . S
C620 H606 0.960 1_556 S
C620 H607 0.961 . S
C620 H608 0.959 1_455 S
C620 C618 1.561 . S
C621 C618 1.526 . S
C621 C622 1.396 1_455 S
C621 C626 1.390 . S
C622 C616 1.465 . S
C622 C621 1.396 1_655 S
C622 C623 1.399 . S
C623 H609 0.929 . S
C623 C622 1.399 . S
C623 C624 1.385 . S
C624 H610 0.931 . S
C624 C623 1.385 . S
C624 C625 1.389 1_655 S
C625 C624 1.389 1_455 S
C625 C626 1.387 . S
C626 H611 0.930 . S
C626 C621 1.390 . S
C626 C625 1.387 . S
H627 C639 0.930 . S
H628 C641 0.930 . S
H629 C642 0.930 . S
H630 C646 0.959 . S
H631 C646 0.959 . S
H632 C646 0.961 . S
H633 C647 0.956 1_565 S
H634 C647 0.961 1_565 S
H635 C647 0.959 . S
H636 C650 0.929 . S
H637 C651 0.931 . S
H638 C653 0.930 1_565 S
C639 H627 0.930 . S
C639 C640 1.399 . S
C639 C644 1.399 . S
C640 C639 1.399 . S
C640 C641 1.376 . S
C641 H628 0.930 . S
C641 C640 1.376 . S
C641 C642 1.388 . S
C642 H629 0.930 . S
C642 C641 1.388 . S
C642 C643 1.390 . S
C643 C642 1.390 . S
C643 C644 1.394 . S
C643 C649 1.465 . S
C644 C639 1.399 . S
C644 C643 1.394 . S
C644 C645 1.516 . S
C645 C644 1.516 . S
C645 C646 1.502 1_545 S
C645 C647 1.561 . S
C645 C648 1.526 . S
C646 H630 0.959 . S
C646 H631 0.959 . S
C646 H632 0.961 . S
C646 C645 1.502 1_565 S
C647 H633 0.956 1_545 S
C647 H634 0.961 1_545 S
C647 H635 0.959 . S
C647 C645 1.561 . S
C648 C645 1.526 . S
C648 C649 1.396 . S
C648 C653 1.390 . S
C649 C643 1.465 . S
C649 C648 1.396 . S
C649 C650 1.399 . S
C650 H636 0.929 . S
C650 C649 1.399 . S
C650 C651 1.385 . S
C651 H637 0.931 . S
C651 C650 1.385 . S
C651 C652 1.389 . S
C652 C651 1.389 . S
C652 C653 1.387 . S
C653 H638 0.930 1_545 S
C653 C648 1.390 . S
C653 C652 1.387 . S
H654 C666 0.930 . S
H655 C668 0.930 . S
H656 C669 0.930 . S
H657 C673 0.959 . S
H658 C673 0.959 . S
H659 C673 0.961 . S
H660 C674 0.960 . S
H661 C674 0.961 . S
H662 C674 0.959 . S
H663 C677 0.929 . S
H664 C678 0.931 . S
H665 C680 0.930 . S
C666 H654 0.930 . S
C666 C667 1.399 . S
C666 C671 1.399 . S
C667 C666 1.399 . S
C667 C668 1.376 . S
C668 H655 0.930 . S
C668 C667 1.376 . S
C668 C669 1.388 . S
C669 H656 0.930 . S
C669 C668 1.388 . S
C669 C670 1.390 . S
C670 C669 1.390 . S
C670 C671 1.394 . S
C670 C676 1.465 . S
C671 C666 1.399 . S
C671 C670 1.394 . S
C671 C672 1.516 . S
C672 C671 1.516 . S
C672 C673 1.502 . S
C672 C674 1.561 . S
C672 C675 1.526 . S
C673 H657 0.959 . S
C673 H658 0.959 . S
C673 H659 0.961 . S
C673 C672 1.502 . S
C674 H660 0.960 . S
C674 H661 0.961 . S
C674 H662 0.959 . S
C674 C672 1.561 . S
C675 C672 1.526 . S
C675 C676 1.396 . S
C675 C680 1.390 . S
C676 C670 1.465 . S
C676 C675 1.396 . S
C676 C677 1.399 . S
C677 H663 0.929 . S
C677 C676 1.399 . S
C677 C678 1.385 . S
C678 H664 0.931 . S
C678 C677 1.385 . S
C678 C679 1.389 . S
C679 C678 1.389 . S
C679 C680 1.387 . S
C680 H665 0.930 . S
C680 C675 1.390 . S
C680 C679 1.387 . S
H681 C693 0.930 . S
H682 C695 0.930 . S
H683 C696 0.930 . S
H684 C700 0.959 . S
H685 C700 0.959 . S
H686 C700 0.961 . S
H687 C701 0.960 . S
H688 C701 0.961 . S
H689 C701 0.959 . S
H690 C704 0.929 . S
H691 C705 0.931 . S
H692 C707 0.930 . S
C693 H681 0.930 . S
C693 C694 1.399 . S
C693 C698 1.399 . S
C694 C693 1.399 . S
C694 C695 1.376 . S
C695 H682 0.930 . S
C695 C694 1.376 . S
C695 C696 1.388 . S
C696 H683 0.930 . S
C696 C695 1.388 . S
C696 C697 1.390 . S
C697 C696 1.390 . S
C697 C698 1.394 . S
C697 C703 1.465 . S
C698 C693 1.399 . S
C698 C697 1.394 . S
C698 C699 1.516 . S
C699 C698 1.516 . S
C699 C700 1.502 . S
C699 C701 1.561 . S
C699 C702 1.526 . S
C700 H684 0.959 . S
C700 H685 0.959 . S
C700 H686 0.961 . S
C700 C699 1.502 . S
C701 H687 0.960 . S
C701 H688 0.961 . S
C701 H689 0.959 . S
C701 C699 1.561 . S
C702 C699 1.526 . S
C702 C703 1.396 . S
C702 C707 1.390 . S
C703 C697 1.465 . S
C703 C702 1.396 . S
C703 C704 1.399 . S
C704 H690 0.929 . S
C704 C703 1.399 . S
C704 C705 1.385 . S
C705 H691 0.931 . S
C705 C704 1.385 . S
C705 C706 1.389 . S
C706 C705 1.389 . S
C706 C707 1.387 . S
C707 H692 0.930 . S
C707 C702 1.390 . S
C707 C706 1.387 . S
H708 C720 0.930 . S
H709 C722 0.930 . S
H710 C723 0.930 . S
H711 C727 0.959 . S
H712 C727 0.959 . S
H713 C727 0.961 . S
H714 C728 0.960 . S
H715 C728 0.961 . S
H716 C728 0.959 . S
H717 C731 0.929 . S
H718 C732 0.931 . S
H719 C734 0.924 1_455 S
C720 H708 0.930 . S
C720 C721 1.399 1_455 S
C720 C725 1.399 . S
C721 C720 1.399 1_655 S
C721 C722 1.376 . S
C722 H709 0.930 . S
C722 C721 1.376 . S
C722 C723 1.388 . S
C723 H710 0.930 . S
C723 C722 1.388 . S
C723 C724 1.390 . S
C724 C723 1.390 . S
C724 C725 1.394 1_655 S
C724 C730 1.465 . S
C725 C720 1.399 . S
C725 C724 1.394 1_455 S
C725 C726 1.516 . S
C726 C725 1.516 . S
C726 C727 1.502 . S
C726 C728 1.561 1_455 S
C726 C729 1.526 1_455 S
C727 H711 0.959 . S
C727 H712 0.959 . S
C727 H713 0.961 . S
C727 C726 1.502 . S
C728 H714 0.960 . S
C728 H715 0.961 . S
C728 H716 0.959 . S
C728 C726 1.561 1_655 S
C729 C726 1.526 1_655 S
C729 C730 1.396 . S
C729 C734 1.389 . S
C730 C724 1.465 . S
C730 C729 1.396 . S
C730 C731 1.399 . S
C731 H717 0.929 . S
C731 C730 1.399 . S
C731 C732 1.385 . S
C732 H718 0.931 . S
C732 C731 1.385 . S
C732 C733 1.389 . S
C733 C732 1.389 . S
C733 C734 1.393 . S
C734 H719 0.924 1_655 S
C734 C729 1.389 . S
C734 C733 1.393 . S
H735 C747 0.930 . S
H736 C749 0.930 . S
H737 C750 0.930 . S
H738 C754 0.959 . S
H739 C754 0.959 . S
H740 C754 0.961 . S
H741 C755 0.960 . S
H742 C755 0.961 . S
H743 C755 0.959 . S
H744 C758 0.929 1_545 S
H745 C759 0.931 1_545 S
H746 C761 0.930 . S
C747 H735 0.930 . S
C747 C748 1.399 . S
C747 C752 1.399 . S
C748 C747 1.399 . S
C748 C749 1.376 . S
C749 H736 0.930 . S
C749 C748 1.376 . S
C749 C750 1.388 . S
C750 H737 0.930 . S
C750 C749 1.388 . S
C750 C751 1.390 . S
C751 C750 1.390 . S
C751 C752 1.394 . S
C751 C757 1.465 . S
C752 C747 1.399 . S
C752 C751 1.394 . S
C752 C753 1.516 . S
C753 C752 1.516 . S
C753 C754 1.502 . S
C753 C755 1.561 . S
C753 C756 1.526 . S
C754 H738 0.959 . S
C754 H739 0.959 . S
C754 H740 0.961 . S
C754 C753 1.502 . S
C755 H741 0.960 . S
C755 H742 0.961 . S
C755 H743 0.959 . S
C755 C753 1.561 . S
C756 C753 1.526 . S
C756 C757 1.396 . S
C756 C761 1.390 . S
C757 C751 1.465 . S
C757 C756 1.396 . S
C757 C758 1.399 . S
C758 H744 0.929 1_565 S
C758 C757 1.399 . S
C758 C759 1.385 . S
C759 H745 0.931 1_565 S
C759 C758 1.385 . S
C759 C760 1.389 . S
C760 C759 1.389 . S
C760 C761 1.387 . S
C761 H746 0.930 . S
C761 C756 1.390 . S
C761 C760 1.387 . S
H762 C774 0.930 . S
H763 C776 0.930 . S
H764 C777 0.930 . S
H765 C781 0.959 . S
H766 C781 0.959 . S
H767 C781 0.961 . S
H768 C782 0.960 . S
H769 C782 0.961 . S
H770 C782 0.959 . S
H771 C785 0.929 . S
H772 C786 0.931 . S
H773 C788 0.930 . S
C774 H762 0.930 . S
C774 C775 1.399 . S
C774 C779 1.399 . S
C775 C774 1.399 . S
C775 C776 1.376 . S
C776 H763 0.930 . S
C776 C775 1.376 . S
C776 C777 1.388 . S
C777 H764 0.930 . S
C777 C776 1.388 . S
C777 C778 1.390 . S
C778 C777 1.390 . S
C778 C779 1.394 . S
C778 C784 1.465 . S
C779 C774 1.399 . S
C779 C778 1.394 . S
C779 C780 1.516 . S
C780 C779 1.516 . S
C780 C781 1.502 . S
C780 C782 1.561 . S
C780 C783 1.526 . S
C781 H765 0.959 . S
C781 H766 0.959 . S
C781 H767 0.961 . S
C781 C780 1.502 . S
C782 H768 0.960 . S
C782 H769 0.961 . S
C782 H770 0.959 . S
C782 C780 1.561 . S
C783 C780 1.526 . S
C783 C784 1.396 . S
C783 C788 1.390 . S
C784 C778 1.465 . S
C784 C783 1.396 . S
C784 C785 1.399 . S
C785 H771 0.929 . S
C785 C784 1.399 . S
C785 C786 1.385 . S
C786 H772 0.931 . S
C786 C785 1.385 . S
C786 C787 1.389 . S
C787 C786 1.389 . S
C787 C788 1.387 . S
C788 H773 0.930 . S
C788 C783 1.390 . S
C788 C787 1.387 . S
H789 C801 0.930 . S
H790 C803 0.930 . S
H791 C804 0.930 . S
H792 C808 0.959 . S
H793 C808 0.959 . S
H794 C808 0.961 . S
H795 C809 0.960 . S
H796 C809 0.961 . S
H797 C809 0.959 . S
H798 C812 0.929 . S
H799 C813 0.931 . S
H800 C815 0.930 . S
C801 H789 0.930 . S
C801 C802 1.399 . S
C801 C806 1.399 . S
C802 C801 1.399 . S
C802 C803 1.376 . S
C803 H790 0.930 . S
C803 C802 1.376 . S
C803 C804 1.388 . S
C804 H791 0.930 . S
C804 C803 1.388 . S
C804 C805 1.390 . S
C805 C804 1.390 . S
C805 C806 1.394 . S
C805 C811 1.465 . S
C806 C801 1.399 . S
C806 C805 1.394 . S
C806 C807 1.516 . S
C807 C806 1.516 . S
C807 C808 1.502 . S
C807 C809 1.561 . S
C807 C810 1.526 . S
C808 H792 0.959 . S
C808 H793 0.959 . S
C808 H794 0.961 . S
C808 C807 1.502 . S
C809 H795 0.960 . S
C809 H796 0.961 . S
C809 H797 0.959 . S
C809 C807 1.561 . S
C810 C807 1.526 . S
C810 C811 1.396 . S
C810 C815 1.390 . S
C811 C805 1.465 . S
C811 C810 1.396 . S
C811 C812 1.399 . S
C812 H798 0.929 . S
C812 C811 1.399 . S
C812 C813 1.385 . S
C813 H799 0.931 . S
C813 C812 1.385 . S
C813 C814 1.389 . S
C814 C813 1.389 . S
C814 C815 1.387 . S
C815 H800 0.930 . S
C815 C810 1.390 . S
C815 C814 1.387 . S
C181 C76 1.641 . S
C193 C96 1.699 . S
C220 C126 1.812 . S
C208 C87 1.698 . S
C247 C136 1.532 . S
C235 C54 1.435 . S
C274 C156 1.374 . S
C262 C65 1.312 . S
C301 C97 1.688 . S
C289 C32 1.633 . S
C316 C43 1.707 1_556 S
C328 C127 1.811 . S
C343 C10 1.429 1_556 S
C355 C137 1.507 . S
C370 C21 1.374 1_455 S
C382 C157 1.391 . S
C409 C89 0.882 . S
C397 C60 0.890 1_655 S
C436 C110 0.539 . S
C424 C71 0.650 . S
C463 C129 1.012 . S
C451 C82 0.969 . S
C478 C49 0.765 . S
C490 C149 0.767 . S
C505 C16 0.829 1_655 S
C517 C90 0.822 . S
C544 C109 0.548 1_565 S
C532 C27 0.723 . S
C571 C130 0.986 . S
C559 C38 1.028 . S
C586 C5 0.685 1_556 S
C598 C150 0.723 . S
C613 C59 1.536 1_655 S
C625 C107 1.577 . S
C640 C70 1.394 1_556 S
C652 C117 1.469 . S
C679 C147 1.796 . S
C667 C81 1.641 . S
C706 C167 1.766 . S
C694 C48 1.648 . S
C721 C15 1.534 1_655 S
C733 C106 1.605 . S
C760 C116 1.495 . S
C748 C26 1.430 . S
C787 C146 1.812 . S
C775 C37 1.679 . S
C802 C4 1.699 . S
C814 C166 1.768 . S
