# Generated by pormake.
# Topology anh, (6,3)-cn, num edge types: 1
# Building blocks:
#     Node 0, Type 0, BuildingBlock: CUKXOW_clean_sbu_0, # of connection points: 6
#     Node 1, Type 0, BuildingBlock: CUKXOW_clean_sbu_0, # of connection points: 6
#     Node 2, Type 0, BuildingBlock: CUKXOW_clean_sbu_0, # of connection points: 6
#     Node 3, Type 1, BuildingBlock: MIDCAF_clean_linker_0, # of connection points: 3
#     Node 4, Type 1, BuildingBlock: MIDCAF_clean_linker_0, # of connection points: 3
#     Node 5, Type 1, BuildingBlock: MIDCAF_clean_linker_0, # of connection points: 3
#     Node 6, Type 1, BuildingBlock: MIDCAF_clean_linker_0, # of connection points: 3
#     Node 7, Type 1, BuildingBlock: MIDCAF_clean_linker_0, # of connection points: 3
#     Node 8, Type 1, BuildingBlock: MIDCAF_clean_linker_0, # of connection points: 3
#     Edge 9, Type (0, 1), BuildingBlock: UVAHIK_clean_linker_0, # of connection points: 2
#     Edge 10, Type (0, 1), BuildingBlock: UVAHIK_clean_linker_0, # of connection points: 2
#     Edge 11, Type (0, 1), BuildingBlock: UVAHIK_clean_linker_0, # of connection points: 2
#     Edge 12, Type (0, 1), BuildingBlock: UVAHIK_clean_linker_0, # of connection points: 2
#     Edge 13, Type (0, 1), BuildingBlock: UVAHIK_clean_linker_0, # of connection points: 2
#     Edge 14, Type (0, 1), BuildingBlock: UVAHIK_clean_linker_0, # of connection points: 2
#     Edge 15, Type (0, 1), BuildingBlock: UVAHIK_clean_linker_0, # of connection points: 2
#     Edge 16, Type (0, 1), BuildingBlock: UVAHIK_clean_linker_0, # of connection points: 2
#     Edge 17, Type (0, 1), BuildingBlock: UVAHIK_clean_linker_0, # of connection points: 2
#     Edge 18, Type (0, 1), BuildingBlock: UVAHIK_clean_linker_0, # of connection points: 2
#     Edge 19, Type (0, 1), BuildingBlock: UVAHIK_clean_linker_0, # of connection points: 2
#     Edge 20, Type (0, 1), BuildingBlock: UVAHIK_clean_linker_0, # of connection points: 2
#     Edge 21, Type (0, 1), BuildingBlock: UVAHIK_clean_linker_0, # of connection points: 2
#     Edge 22, Type (0, 1), BuildingBlock: UVAHIK_clean_linker_0, # of connection points: 2
#     Edge 23, Type (0, 1), BuildingBlock: UVAHIK_clean_linker_0, # of connection points: 2
#     Edge 24, Type (0, 1), BuildingBlock: UVAHIK_clean_linker_0, # of connection points: 2
#     Edge 25, Type (0, 1), BuildingBlock: UVAHIK_clean_linker_0, # of connection points: 2
#     Edge 26, Type (0, 1), BuildingBlock: UVAHIK_clean_linker_0, # of connection points: 2
# Relax obj value: 0.133
# Max RMSD: 0.194
# Mean RMSD: 0.138
data_MOF--net-anh--node1-CUKXOW_clean_sbu_0--node2-MIDCAF_clean_linker_0--edge1-UVAHIK_clean_linker_0
_symmetry_space_group_name_H-M    P1
_symmetry_Int_Tables_number       1
_symmetry_cell_setting            triclinic
loop_
_symmetry_equiv_pos_as_xyz
'x, y, z'
_cell_length_a     43.912272
_cell_length_b     42.819602
_cell_length_c     80.265128
_cell_angle_alpha  95.676732
_cell_angle_beta   90.109579
_cell_angle_gamma 116.61714
loop_
_atom_site_label
_atom_site_type_symbol
_atom_site_fract_x
_atom_site_fract_y
_atom_site_fract_z
_atom_type_partial_charge
Tb0 Tb 0.07066 0.51906 0.1517 0.0
C1 C 0.03771 0.4849 0.18425 0.0
Tb2 Tb 0.01476 0.4374 0.14883 0.0
O3 O 0.03329 0.54087 0.15213 0.0
O4 O 0.0177 0.48798 0.15032 0.0
O5 O 0.06398 0.51052 0.17795 0.0
C6 C 0.95543 0.37987 0.14817 0.0
O7 O 0.01413 0.45685 0.17498 0.0
C8 C 0.07905 0.44619 0.14933 0.0
C9 C 0.04563 0.47283 0.1162 0.0
O10 O 0.98051 0.38944 0.15922 0.0
O11 O 0.964 0.40246 0.13723 0.0
O12 O 0.05228 0.41566 0.14809 0.0
O13 O 0.06767 0.46848 0.15024 0.0
O14 O 0.01957 0.44714 0.12266 0.0
O15 O 0.07023 0.50025 0.12538 0.0
C16 C 0.13033 0.57641 0.15465 0.0
O17 O 0.10575 0.56981 0.14371 0.0
O18 O 0.12119 0.55084 0.16397 0.0
C19 C 0.00646 0.51039 0.151 0.0
Tb20 Tb 0.50066 0.00974 0.50934 0.0
C21 C 0.53361 0.0427 0.47695 0.0
Tb22 Tb 0.5748 0.06791 0.51231 0.0
O23 O 0.48149 0.04661 0.5029 0.0
O24 O 0.52622 0.06409 0.51774 0.0
O25 O 0.50987 0.01461 0.48295 0.0
C26 C 0.63147 0.1283 0.51232 0.0
O27 O 0.5588 0.06833 0.48655 0.0
C28 C 0.56827 0.00401 0.5121 0.0
C29 C 0.54166 0.03553 0.54471 0.0
O30 O 0.62588 0.09888 0.50362 0.0
O31 O 0.60532 0.12361 0.52107 0.0
O32 O 0.59494 0.03185 0.51858 0.0
O33 O 0.54931 0.01332 0.50425 0.0
O34 O 0.56496 0.0639 0.53867 0.0
O35 O 0.517 0.00918 0.5351 0.0
C36 C 0.44345 0.94963 0.50814 0.0
O37 O 0.44945 0.97812 0.51783 0.0
O38 O 0.46942 0.95515 0.4991 0.0
C39 C 0.50771 0.07402 0.51003 0.0
Tb40 Tb 0.52986 0.54333 0.83698 0.0
C41 C 0.56955 0.54694 0.87039 0.0
Tb42 Tb 0.60576 0.55274 0.83572 0.0
O43 O 0.51126 0.48797 0.84123 0.0
O44 O 0.55549 0.51354 0.8285 0.0
O45 O 0.54516 0.55269 0.86351 0.0
C46 C 0.65557 0.5342 0.83173 0.0
O47 O 0.59339 0.54254 0.86164 0.0
C48 C 0.60272 0.61312 0.84252 0.0
C49 C 0.5693 0.55889 0.80343 0.0
O50 O 0.65417 0.56032 0.82539 0.0
O51 O 0.62946 0.51921 0.84076 0.0
O52 O 0.63149 0.61123 0.84141 0.0
O53 O 0.57977 0.58219 0.84051 0.0
O54 O 0.59188 0.54947 0.80933 0.0
O55 O 0.54631 0.56308 0.81287 0.0
C56 C 0.4743 0.55238 0.83379 0.0
O57 O 0.48444 0.5356 0.8226 0.0
O58 O 0.49488 0.56325 0.84706 0.0
C59 C 0.53754 0.48577 0.83488 0.0
C60 C 0.4335 0.90798 0.21231 0.0
C61 C 0.42854 0.90215 0.19478 0.0
C62 C 0.44722 0.92986 0.18524 0.0
C63 C 0.47066 0.96273 0.19315 0.0
H64 H 0.55701 0.05629 0.18555 0.0
H65 H 0.6032 0.09936 0.17106 0.0
H66 H 0.64111 0.16689 0.21769 0.0
H67 H 0.59483 0.12452 0.23209 0.0
H68 H 0.55866 0.10064 0.26602 0.0
H69 H 0.55833 0.10835 0.29656 0.0
H70 H 0.48443 0.99943 0.29594 0.0
H71 H 0.48394 0.99197 0.26566 0.0
H72 H 0.4595 0.944 0.23373 0.0
H73 H 0.41906 0.88734 0.22002 0.0
H74 H 0.44388 0.92604 0.1717 0.0
H75 H 0.48475 0.98361 0.18551 0.0
N76 N 0.52295 0.02846 0.21091 0.0
N77 N 0.54479 0.06541 0.23615 0.0
N78 N 0.49938 0.00929 0.23633 0.0
C79 C 0.54562 0.05975 0.2192 0.0
C80 C 0.52166 0.04027 0.2448 0.0
C81 C 0.49969 0.0031 0.21944 0.0
C82 C 0.57221 0.08676 0.21004 0.0
C83 C 0.57499 0.08047 0.1927 0.0
C84 C 0.60157 0.10508 0.18439 0.0
C85 C 0.62588 0.13655 0.19321 0.0
C86 C 0.62256 0.14318 0.21044 0.0
C87 C 0.59607 0.11866 0.21875 0.0
C88 C 0.5213 0.0457 0.26332 0.0
C89 C 0.54221 0.0784 0.27241 0.0
C90 C 0.54214 0.08279 0.28993 0.0
C91 C 0.52126 0.05455 0.29873 0.0
C92 C 0.50032 0.02197 0.2896 0.0
C93 C 0.50024 0.01764 0.27216 0.0
C94 C 0.47543 0.9685 0.21074 0.0
C95 C 0.45655 0.94068 0.22018 0.0
C96 C 0.57295 0.44653 0.539 0.0
C97 C 0.55849 0.43083 0.52287 0.0
C98 C 0.54419 0.4476 0.51348 0.0
C99 C 0.5435 0.47878 0.52034 0.0
H100 H 0.5695 0.59984 0.51613 0.0
H101 H 0.56804 0.65033 0.50464 0.0
H102 H 0.50455 0.65766 0.54435 0.0
H103 H 0.50601 0.60785 0.55569 0.0
H104 H 0.54469 0.60496 0.59267 0.0
H105 H 0.54579 0.60966 0.62324 0.0
H106 H 0.55201 0.51162 0.62197 0.0
H107 H 0.55055 0.50657 0.59154 0.0
H108 H 0.58283 0.48792 0.55846 0.0
H109 H 0.58367 0.43425 0.54677 0.0
H110 H 0.53305 0.43633 0.50096 0.0
H111 H 0.5314 0.49053 0.51306 0.0
N112 N 0.54742 0.54684 0.53685 0.0
N113 N 0.54242 0.57569 0.56248 0.0
N114 N 0.55205 0.52637 0.56238 0.0
C115 C 0.5425 0.57323 0.54547 0.0
C116 C 0.54723 0.55242 0.57104 0.0
C117 C 0.55216 0.5232 0.54539 0.0
C118 C 0.53803 0.60003 0.53685 0.0
C119 C 0.55472 0.61189 0.52215 0.0
C120 C 0.55409 0.6409 0.51567 0.0
C121 C 0.53622 0.65801 0.52361 0.0
C122 C 0.51825 0.64491 0.53782 0.0
C123 C 0.51929 0.61646 0.54439 0.0
C124 C 0.54751 0.55537 0.5896 0.0
C125 C 0.54619 0.58434 0.59889 0.0
C126 C 0.54701 0.58716 0.61641 0.0
C127 C 0.54892 0.56098 0.62499 0.0
C128 C 0.55009 0.53199 0.61571 0.0
C129 C 0.54945 0.52924 0.59824 0.0
C130 C 0.55673 0.49341 0.53677 0.0
C131 C 0.57213 0.4773 0.54581 0.0
C132 C 0.92096 0.4416 0.84888 0.0
C133 C 0.91993 0.44225 0.83139 0.0
C134 C 0.95013 0.45075 0.8229 0.0
C135 C 0.98107 0.46107 0.83183 0.0
H136 H 0.08457 0.51302 0.82685 0.0
H137 H 0.13847 0.54058 0.81325 0.0
H138 H 0.19081 0.58894 0.86142 0.0
H139 H 0.13712 0.56149 0.87511 0.0
H140 H 0.10333 0.51606 0.90635 0.0
H141 H 0.10506 0.51012 0.93614 0.0
H142 H 0.9949 0.45741 0.93468 0.0
H143 H 0.99305 0.4625 0.90485 0.0
H144 H 0.95178 0.45236 0.8713 0.0
H145 H 0.89838 0.43569 0.85591 0.0
H146 H 0.95012 0.45086 0.80942 0.0
H147 H 1.0041 0.4689 0.82498 0.0
N148 N 0.04466 0.49774 0.85155 0.0
N149 N 0.07587 0.51179 0.87723 0.0
N150 N 0.01674 0.47645 0.87582 0.0
C151 C 0.07493 0.51446 0.86053 0.0
C152 C 0.04688 0.49274 0.88496 0.0
C153 C 0.01545 0.47873 0.8591 0.0
C154 C 0.10667 0.53453 0.85211 0.0
C155 C 0.10744 0.53002 0.83454 0.0
C156 C 0.13823 0.54584 0.82672 0.0
C157 C 0.16869 0.56678 0.8363 0.0
C158 C 0.1676 0.5732 0.85373 0.0
C159 C 0.1369 0.5571 0.86158 0.0
C160 C 0.04805 0.48969 0.90315 0.0
C161 C 0.07944 0.50319 0.91235 0.0
C162 C 0.08046 0.49994 0.92947 0.0
C163 C 0.05012 0.48323 0.93778 0.0
C164 C 0.01875 0.4699 0.9286 0.0
C165 C 0.01772 0.47303 0.91149 0.0
C166 C 0.98235 0.46276 0.84942 0.0
C167 C 0.95178 0.45155 0.85777 0.0
C168 C 0.12758 0.63391 0.45117 0.0
C169 C 0.12871 0.64308 0.46852 0.0
C170 C 0.09883 0.6272 0.47725 0.0
C171 C 0.06842 0.60233 0.46875 0.0
H172 H 0.97387 0.51923 0.47567 0.0
H173 H 0.92783 0.47621 0.49019 0.0
H174 H 0.87327 0.42552 0.44268 0.0
H175 H 0.91869 0.46873 0.42816 0.0
H176 H 0.95011 0.49892 0.39431 0.0
H177 H 0.94927 0.4921 0.36376 0.0
H178 H 0.05696 0.56341 0.36568 0.0
H179 H 0.05768 0.57103 0.39603 0.0
H180 H 0.09752 0.60315 0.42929 0.0
H181 H 0.15008 0.64615 0.44406 0.0
H182 H 0.09905 0.63382 0.49065 0.0
H183 H 0.04577 0.59044 0.47579 0.0
N184 N 0.00809 0.54622 0.45034 0.0
N185 N 0.97783 0.51865 0.42465 0.0
N186 N 0.03357 0.56373 0.42507 0.0
C187 C 0.97918 0.52177 0.4417 0.0
C188 C 1.00493 0.53961 0.41625 0.0
C189 C 0.03539 0.56732 0.44208 0.0
C190 C 0.95018 0.49737 0.45071 0.0
C191 C 0.95192 0.49913 0.4683 0.0
C192 C 0.92561 0.47438 0.47665 0.0
C193 C 0.89696 0.44737 0.46759 0.0
C194 C 0.89477 0.44625 0.45006 0.0
C195 C 0.92102 0.47095 0.44172 0.0
C196 C 1.00394 0.53558 0.39767 0.0
C197 C 0.97358 0.51325 0.38821 0.0
C198 C 0.97312 0.50919 0.37069 0.0
C199 C 1.00303 0.52727 0.36225 0.0
C200 C 0.03331 0.54959 0.37173 0.0
C201 C 0.03374 0.55379 0.3892 0.0
C202 C 0.06733 0.59331 0.45134 0.0
C203 C 0.0973 0.60943 0.44268 0.0
C204 C 0.55791 0.14086 0.82747 0.0
C205 C 0.5852 0.17213 0.82333 0.0
C206 C 0.61243 0.16972 0.81502 0.0
C207 C 0.6109 0.13701 0.80961 0.0
H208 H 0.59124 0.01105 0.83346 0.0
H209 H 0.5912 0.95992 0.84483 0.0
H210 H 0.53257 0.89341 0.80078 0.0
H211 H 0.5325 0.94398 0.78952 0.0
H212 H 0.53287 0.98052 0.75539 0.0
H213 H 0.52754 0.97706 0.72496 0.0
H214 H 0.59832 0.08755 0.72735 0.0
H215 H 0.60192 0.09123 0.75773 0.0
H216 H 0.53458 0.08437 0.82479 0.0
H217 H 0.53629 0.14139 0.8337 0.0
H218 H 0.63443 0.19308 0.81207 0.0
H219 H 0.63114 0.13592 0.80225 0.0
N220 N 0.57207 0.04376 0.81159 0.0
N221 N 0.56405 0.01041 0.78539 0.0
N222 N 0.5765 0.06973 0.78664 0.0
C223 C 0.56566 0.01267 0.80242 0.0
C224 C 0.56955 0.03882 0.77744 0.0
C225 C 0.57746 0.07233 0.80363 0.0
C226 C 0.56204 0.98163 0.81055 0.0
C227 C 0.57783 0.98539 0.82638 0.0
C228 C 0.57804 0.95619 0.83282 0.0
C229 C 0.56197 0.92264 0.82368 0.0
C230 C 0.54491 0.91877 0.80822 0.0
C231 C 0.54507 0.94788 0.80171 0.0
C232 C 0.56764 0.03619 0.75893 0.0
C233 C 0.54729 0.00401 0.74936 0.0
C234 C 0.5444 0.00203 0.73188 0.0
C235 C 0.56234 0.03206 0.72357 0.0
C236 C 0.58337 0.06403 0.73323 0.0
C237 C 0.58568 0.06614 0.75069 0.0
C238 C 0.58274 0.10595 0.81289 0.0
C239 C 0.55685 0.10808 0.82239 0.0
C240 C 0.6679 0.51886 0.13303 0.0
C241 C 0.66855 0.49355 0.14276 0.0
C242 C 0.6372 0.46876 0.14821 0.0
C243 C 0.60612 0.46868 0.14354 0.0
H244 H 0.50464 0.51513 0.15132 0.0
H245 H 0.4494 0.51232 0.15931 0.0
H246 H 0.3981 0.42613 0.12053 0.0
H247 H 0.45284 0.42926 0.11261 0.0
H248 H 0.49411 0.47635 0.07666 0.0
H249 H 0.49718 0.48332 0.04687 0.0
H250 H 0.60598 0.51803 0.05062 0.0
H251 H 0.6029 0.51025 0.08024 0.0
H252 H 0.63778 0.53757 0.12015 0.0
H253 H 0.69115 0.53808 0.12832 0.0
H254 H 0.63662 0.44902 0.15583 0.0
H255 H 0.58238 0.44837 0.14727 0.0
N256 N 0.54423 0.48222 0.1327 0.0
N257 N 0.51744 0.48151 0.10704 0.0
N258 N 0.57446 0.49242 0.10798 0.0
C259 C 0.51588 0.47851 0.12375 0.0
C260 C 0.54659 0.48861 0.09907 0.0
C261 C 0.57374 0.48908 0.12463 0.0
C262 C 0.48307 0.47209 0.13149 0.0
C263 C 0.48141 0.49494 0.14491 0.0
C264 C 0.44979 0.49363 0.14929 0.0
C265 C 0.41914 0.46907 0.14053 0.0
C266 C 0.42094 0.44515 0.1277 0.0
C267 C 0.45239 0.44688 0.12317 0.0
C268 C 0.54824 0.49268 0.0809 0.0
C269 C 0.51871 0.48542 0.07115 0.0
C270 C 0.52048 0.4896 0.05406 0.0
C271 C 0.55183 0.50125 0.04633 0.0
C272 C 0.58133 0.50848 0.05609 0.0
C273 C 0.57955 0.50418 0.07314 0.0
C274 C 0.60574 0.4931 0.13314 0.0
C275 C 0.63711 0.51855 0.12828 0.0
C276 C 0.14283 0.4851 0.14853 0.0
C277 C 0.11517 0.45186 0.14937 0.0
C278 C 0.17658 0.48931 0.14866 0.0
C279 C 0.22847 0.44281 0.15881 0.0
H280 H 0.296 0.50864 0.13224 0.0
C281 C 0.35552 0.43747 0.144 0.0
C282 C 0.38555 0.46923 0.14392 0.0
C283 C 0.32365 0.4373 0.1458 0.0
C284 C 0.2776 0.49039 0.1399 0.0
H285 H 0.10134 0.39684 0.15051 0.0
H286 H 0.15934 0.40378 0.15032 0.0
H287 H 0.23888 0.50497 0.13298 0.0
H288 H 0.4052 0.52583 0.14581 0.0
H289 H 0.3496 0.52555 0.14898 0.0
H290 H 0.26695 0.42773 0.16545 0.0
C291 C 0.15552 0.42701 0.15008 0.0
C292 C 0.2447 0.4883 0.14035 0.0
C293 C 0.12202 0.42293 0.15004 0.0
C294 C 0.38274 0.50088 0.14597 0.0
C295 C 0.35075 0.50069 0.14759 0.0
C296 C 0.2612 0.44472 0.15826 0.0
C297 C 0.18351 0.46028 0.14952 0.0
C298 C 0.2194 0.46415 0.14967 0.0
C299 C 0.32066 0.46886 0.14744 0.0
C300 C 0.28622 0.46827 0.14867 0.0
H301 H 0.13843 0.50775 0.14761 0.0
H302 H 0.19723 0.51541 0.14826 0.0
H303 H 0.21025 0.4245 0.16651 0.0
H304 H 0.35659 0.41257 0.14254 0.0
H305 H 0.30116 0.41222 0.14547 0.0
C306 C 0.68702 0.16495 0.50039 0.0
C307 C 0.66134 0.16233 0.51133 0.0
C308 C 0.71411 0.19768 0.49853 0.0
C309 C 0.73602 0.29174 0.50335 0.0
H310 H 0.82726 0.30259 0.49581 0.0
C311 C 0.87939 0.4042 0.48891 0.0
C312 C 0.87028 0.41926 0.4762 0.0
C313 C 0.85462 0.37539 0.49585 0.0
C314 C 0.80207 0.30021 0.49814 0.0
H315 H 0.64403 0.19139 0.52926 0.0
H316 H 0.69166 0.24864 0.52622 0.0
H317 H 0.78361 0.24697 0.50347 0.0
H318 H 0.82781 0.41706 0.46144 0.0
H319 H 0.78471 0.36632 0.47323 0.0
H320 H 0.75451 0.34501 0.49804 0.0
C321 C 0.69068 0.22554 0.51889 0.0
C322 C 0.77694 0.26817 0.50232 0.0
C323 C 0.66356 0.19279 0.52072 0.0
C324 C 0.8357 0.40575 0.47105 0.0
C325 C 0.81095 0.37692 0.47796 0.0
C326 C 0.76118 0.32381 0.4992 0.0
C327 C 0.71604 0.22841 0.50762 0.0
C328 C 0.74349 0.26336 0.50468 0.0
C329 C 0.8202 0.361 0.49022 0.0
C330 C 0.79433 0.32822 0.49626 0.0
H331 H 0.68577 0.14182 0.49296 0.0
H332 H 0.73295 0.19901 0.48957 0.0
H333 H 0.71044 0.28884 0.50495 0.0
H334 H 0.90584 0.41381 0.49307 0.0
H335 H 0.86251 0.36401 0.50542 0.0
C336 C 0.62589 0.67866 0.84647 0.0
C337 C 0.59794 0.64525 0.84335 0.0
C338 C 0.62142 0.70903 0.84625 0.0
C339 C 0.56268 0.73905 0.82863 0.0
H340 H 0.61029 0.82196 0.86046 0.0
C341 C 0.53613 0.85866 0.82792 0.0
C342 C 0.56455 0.89195 0.82953 0.0
C343 C 0.53944 0.82895 0.83141 0.0
C344 C 0.59701 0.79912 0.85139 0.0
H345 H 0.54361 0.61737 0.83748 0.0
H346 H 0.53549 0.67001 0.83741 0.0
H347 H 0.61788 0.76941 0.863 0.0
H348 H 0.61855 0.92028 0.8366 0.0
H349 H 0.62444 0.8684 0.84259 0.0
H350 H 0.5422 0.76864 0.81684 0.0
C351 C 0.56093 0.67296 0.83994 0.0
C352 C 0.60137 0.76901 0.85285 0.0
C353 C 0.56545 0.64273 0.8402 0.0
C354 C 0.59609 0.89506 0.8354 0.0
C355 C 0.59945 0.86527 0.83882 0.0
C356 C 0.55838 0.76909 0.82715 0.0
C357 C 0.5889 0.70652 0.84279 0.0
C358 C 0.58422 0.73859 0.84148 0.0
C359 C 0.57131 0.83172 0.83651 0.0
C360 C 0.57545 0.79954 0.83851 0.0
H361 H 0.65128 0.68131 0.84885 0.0
H362 H 0.64356 0.73445 0.84832 0.0
H363 H 0.54961 0.71637 0.81945 0.0
H364 H 0.51138 0.85548 0.82367 0.0
H365 H 0.51704 0.80368 0.82987 0.0
C366 C 0.96414 0.53444 0.15097 0.0
C367 C 0.97044 0.505 0.15077 0.0
C368 C 0.93082 0.53078 0.1506 0.0
C369 C 0.83995 0.46911 0.15727 0.0
H370 H 0.8228 0.53398 0.13296 0.0
C371 C 0.70382 0.46042 0.14534 0.0
C372 C 0.70177 0.49248 0.14622 0.0
C373 C 0.73561 0.4599 0.14658 0.0
C374 C 0.8271 0.51584 0.13998 0.0
H375 H 0.94629 0.4485 0.15055 0.0
H376 H 0.88771 0.44169 0.1494 0.0
H377 H 0.87897 0.53609 0.13318 0.0
H378 H 0.73201 0.54912 0.15029 0.0
H379 H 0.78686 0.54818 0.15231 0.0
H380 H 0.78751 0.44862 0.1638 0.0
C381 C 0.90872 0.46785 0.14997 0.0
C382 C 0.85954 0.51707 0.14013 0.0
C383 C 0.94234 0.47163 0.15043 0.0
C384 C 0.73238 0.52388 0.14912 0.0
C385 C 0.764 0.52336 0.15027 0.0
C386 C 0.80726 0.46771 0.157 0.0
C387 C 0.90242 0.49744 0.14989 0.0
C388 C 0.86679 0.49417 0.149 0.0
C389 C 0.76624 0.49142 0.14867 0.0
C390 C 0.80052 0.49146 0.14856 0.0
H391 H 0.98513 0.56063 0.15142 0.0
H392 H 0.92743 0.55437 0.15102 0.0
H393 H 0.84437 0.45113 0.16433 0.0
H394 H 0.68098 0.43567 0.14298 0.0
H395 H 0.73624 0.43479 0.14524 0.0
C396 C 0.3828 0.91416 0.51503 0.0
C397 C 0.4121 0.91623 0.50721 0.0
C398 C 0.35255 0.88269 0.51315 0.0
C399 C 0.31056 0.80114 0.48422 0.0
H400 H 0.24671 0.76848 0.51931 0.0
C401 C 0.19193 0.66931 0.47337 0.0
C402 C 0.16101 0.67002 0.47713 0.0
C403 C 0.22291 0.69727 0.4794 0.0
C404 C 0.26431 0.77741 0.50941 0.0
H405 H 0.43359 0.88701 0.49208 0.0
H406 H 0.38126 0.83198 0.48913 0.0
H407 H 0.30076 0.82181 0.52535 0.0
H408 H 0.13812 0.69946 0.49098 0.0
H409 H 0.19254 0.74862 0.50154 0.0
H410 H 0.27432 0.75711 0.46826 0.0
C411 C 0.38113 0.85472 0.49629 0.0
C412 C 0.29517 0.80794 0.51283 0.0
C413 C 0.41115 0.88617 0.49804 0.0
C414 C 0.1616 0.69821 0.48794 0.0
C415 C 0.19271 0.72631 0.49398 0.0
C416 C 0.27997 0.77068 0.48085 0.0
C417 C 0.35126 0.85276 0.50353 0.0
C418 C 0.31865 0.82011 0.50025 0.0
C419 C 0.22366 0.72658 0.4893 0.0
C420 C 0.25652 0.75843 0.49338 0.0
H421 H 0.38301 0.93706 0.52219 0.0
H422 H 0.32995 0.88215 0.51877 0.0
H423 H 0.32759 0.81021 0.47411 0.0
H424 H 0.19218 0.64755 0.46534 0.0
H425 H 0.24637 0.69643 0.4759 0.0
C426 C 0.56823 0.45156 0.82389 0.0
C427 C 0.5447 0.45518 0.83475 0.0
C428 C 0.57443 0.42219 0.82351 0.0
C429 C 0.5682 0.35117 0.84776 0.0
H430 H 0.56502 0.30151 0.80422 0.0
C431 C 0.56781 0.21453 0.83998 0.0
C432 C 0.58388 0.20658 0.82618 0.0
C433 C 0.56445 0.24574 0.84174 0.0
C434 C 0.56666 0.3153 0.8165 0.0
H435 H 0.50956 0.43135 0.85389 0.0
H436 H 0.52053 0.37998 0.85331 0.0
H437 H 0.55759 0.35467 0.80604 0.0
H438 H 0.60922 0.22605 0.80349 0.0
H439 H 0.60521 0.28072 0.80709 0.0
H440 H 0.57788 0.31221 0.85825 0.0
C441 C 0.53424 0.3999 0.84513 0.0
C442 C 0.56223 0.34577 0.81751 0.0
C443 C 0.52779 0.42913 0.84538 0.0
C444 C 0.59723 0.23121 0.81447 0.0
C445 C 0.5943 0.2625 0.81636 0.0
C446 C 0.5731 0.32089 0.84675 0.0
C447 C 0.55738 0.39595 0.83407 0.0
C448 C 0.56287 0.364 0.83314 0.0
C449 C 0.57733 0.27 0.82983 0.0
C450 C 0.57237 0.30248 0.83109 0.0
H451 H 0.58154 0.47124 0.81553 0.0
H452 H 0.59263 0.42001 0.81497 0.0
H453 H 0.56907 0.36487 0.85998 0.0
H454 H 0.55754 0.19655 0.84939 0.0
H455 H 0.55098 0.25035 0.85223 0.0
C456 C 0.59289 0.96141 0.51047 0.0
C457 C 0.56425 0.96782 0.51161 0.0
C458 C 0.58925 0.92714 0.51011 0.0
C459 C 0.53073 0.83966 0.52208 0.0
H460 H 0.58271 0.80697 0.49247 0.0
C461 C 0.50873 0.69634 0.51773 0.0
C462 C 0.538 0.6909 0.51807 0.0
C463 C 0.51115 0.72911 0.51505 0.0
C464 C 0.56819 0.81578 0.5009 0.0
H465 H 0.51001 0.94404 0.5146 0.0
H466 H 0.50305 0.88407 0.51332 0.0
H467 H 0.58871 0.86641 0.49191 0.0
H468 H 0.59257 0.71525 0.51517 0.0
H469 H 0.59688 0.77257 0.51054 0.0
H470 H 0.51051 0.78939 0.53124 0.0
C471 C 0.52835 0.90531 0.51248 0.0
C472 C 0.57166 0.84987 0.50059 0.0
C473 C 0.53209 0.93956 0.51281 0.0
C474 C 0.5695 0.7185 0.51481 0.0
C475 C 0.57196 0.75139 0.51219 0.0
C476 C 0.52729 0.80567 0.52239 0.0
C477 C 0.55689 0.89863 0.51111 0.0
C478 C 0.55299 0.86224 0.5112 0.0
C479 C 0.54293 0.75735 0.51271 0.0
C480 C 0.54598 0.79325 0.51183 0.0
H481 H 0.61811 0.9829 0.50975 0.0
H482 H 0.61186 0.92307 0.50935 0.0
H483 H 0.51644 0.8485 0.53064 0.0
H484 H 0.48401 0.67543 0.51995 0.0
H485 H 0.48814 0.7325 0.51512 0.0
C486 C 0.7065 0.53807 0.81682 0.0
C487 C 0.68065 0.52108 0.82767 0.0
C488 C 0.72964 0.52495 0.81243 0.0
C489 C 0.74447 0.44622 0.81231 0.0
H490 H 0.8396 0.51502 0.81542 0.0
C491 C 0.8562 0.41729 0.82786 0.0
C492 C 0.88875 0.43938 0.8227 0.0
C493 C 0.82787 0.42167 0.82312 0.0
C494 C 0.81316 0.4954 0.81403 0.0
H495 H 0.65798 0.47683 0.84221 0.0
H496 H 0.69903 0.45434 0.83491 0.0
H497 H 0.79588 0.53467 0.81818 0.0
H498 H 0.91621 0.48045 0.80681 0.0
H499 H 0.86666 0.48692 0.79802 0.0
H500 H 0.76212 0.40688 0.8088 0.0
C501 C 0.70116 0.47745 0.82958 0.0
C502 C 0.78805 0.50673 0.81569 0.0
C503 C 0.67797 0.49056 0.83394 0.0
C504 C 0.89162 0.46297 0.81109 0.0
C505 C 0.86324 0.46705 0.8062 0.0
C506 C 0.76969 0.43483 0.81063 0.0
C507 C 0.72736 0.49464 0.81885 0.0
C508 C 0.75348 0.48229 0.81523 0.0
C509 C 0.83154 0.44796 0.81298 0.0
C510 C 0.80436 0.45932 0.81184 0.0
H511 H 0.70879 0.56142 0.81166 0.0
H512 H 0.74931 0.53854 0.80399 0.0
H513 H 0.71795 0.4268 0.81163 0.0
H514 H 0.85299 0.39822 0.83647 0.0
H515 H 0.80378 0.40639 0.82852 0.0
C516 C 0.16904 0.63658 0.14744 0.0
C517 C 0.16333 0.60817 0.15646 0.0
C518 C 0.1999 0.66731 0.14978 0.0
C519 C 0.27196 0.71536 0.18097 0.0
H520 H 0.31538 0.7709 0.14478 0.0
C521 C 0.40103 0.83652 0.19249 0.0
C522 C 0.40305 0.86735 0.1868 0.0
C523 C 0.37413 0.8039 0.18689 0.0
C524 C 0.30342 0.75568 0.155 0.0
H525 H 0.18556 0.58878 0.17447 0.0
H526 H 0.23968 0.64199 0.17833 0.0
H527 H 0.26358 0.71532 0.13871 0.0
H528 H 0.3796 0.88802 0.17006 0.0
H529 H 0.33237 0.83076 0.16021 0.0
H530 H 0.31155 0.75557 0.19726 0.0
C531 C 0.22014 0.64106 0.16976 0.0
C532 C 0.27374 0.72393 0.15155 0.0
C533 C 0.18923 0.61051 0.1675 0.0
C534 C 0.37875 0.86467 0.17459 0.0
C535 C 0.35173 0.83191 0.16898 0.0
C536 C 0.30162 0.74687 0.18438 0.0
C537 C 0.22568 0.67006 0.16113 0.0
C538 C 0.25765 0.70343 0.16452 0.0
C539 C 0.34863 0.80136 0.17547 0.0
C540 C 0.31769 0.76739 0.17146 0.0
H541 H 0.14939 0.63535 0.13883 0.0
H542 H 0.20316 0.68924 0.14307 0.0
H543 H 0.25985 0.70074 0.19133 0.0
H544 H 0.4198 0.83773 0.20164 0.0
H545 H 0.37281 0.78071 0.19184 0.0
C546 C 0.49353 0.11907 0.49928 0.0
C547 C 0.51365 0.11079 0.50991 0.0
C548 C 0.49908 0.1539 0.49917 0.0
C549 C 0.542 0.24171 0.52463 0.0
H550 H 0.52623 0.2754 0.48394 0.0
C551 C 0.58322 0.38791 0.52075 0.0
C552 C 0.55644 0.39587 0.51674 0.0
C553 C 0.57904 0.35348 0.51799 0.0
C554 C 0.53065 0.26623 0.49537 0.0
H555 H 0.55438 0.13216 0.52918 0.0
H556 H 0.56595 0.19298 0.52819 0.0
H557 H 0.51731 0.21465 0.48327 0.0
H558 H 0.50511 0.37402 0.50547 0.0
H559 H 0.49832 0.31387 0.50013 0.0
H560 H 0.55631 0.29366 0.53655 0.0
C561 C 0.54532 0.17278 0.52015 0.0
C562 C 0.52534 0.23136 0.49507 0.0
C563 C 0.53926 0.13791 0.52047 0.0
C564 C 0.52635 0.36894 0.50863 0.0
C565 C 0.52235 0.33446 0.50564 0.0
C566 C 0.54791 0.27661 0.52484 0.0
C567 C 0.52515 0.18134 0.50958 0.0
C568 C 0.53092 0.21856 0.50972 0.0
C569 C 0.54823 0.32626 0.51085 0.0
C570 C 0.54229 0.28923 0.51024 0.0
H571 H 0.47337 0.09858 0.49109 0.0
H572 H 0.48252 0.15913 0.49111 0.0
H573 H 0.5457 0.23286 0.5363 0.0
H574 H 0.60708 0.40811 0.52662 0.0
H575 H 0.59959 0.34792 0.52186 0.0
C576 C 0.43662 0.56313 0.81452 0.0
C577 C 0.44668 0.56184 0.83092 0.0
C578 C 0.41134 0.57353 0.81167 0.0
C579 C 0.35905 0.61228 0.83399 0.0
H580 H 0.29541 0.56211 0.79602 0.0
C581 C 0.22892 0.61098 0.83273 0.0
C582 C 0.20195 0.57721 0.82868 0.0
C583 C 0.26206 0.61811 0.82842 0.0
C584 C 0.31285 0.57634 0.80672 0.0
H585 H 0.43873 0.57031 0.85722 0.0
H586 H 0.39281 0.58593 0.85237 0.0
H587 H 0.3471 0.55572 0.79875 0.0
H588 H 0.18788 0.5251 0.81616 0.0
H589 H 0.24519 0.53677 0.80928 0.0
H590 H 0.32309 0.62985 0.8429 0.0
C591 C 0.40526 0.58055 0.84162 0.0
C592 C 0.34295 0.57312 0.80818 0.0
C593 C 0.43122 0.57108 0.84446 0.0
C594 C 0.20817 0.55149 0.81927 0.0
C595 C 0.24123 0.55835 0.81525 0.0
C596 C 0.32851 0.61472 0.83277 0.0
C597 C 0.39495 0.58195 0.82517 0.0
C598 C 0.36584 0.58996 0.82218 0.0
C599 C 0.26886 0.59133 0.82036 0.0
C600 C 0.30434 0.59558 0.81948 0.0
H601 H 0.44877 0.55673 0.80389 0.0
H602 H 0.40476 0.575 0.79887 0.0
H603 H 0.37661 0.62676 0.84462 0.0
H604 H 0.2246 0.63135 0.83985 0.0
H605 H 0.28252 0.64409 0.83216 0.0
C606 C 0.91443 0.33117 0.16314 0.0
C607 C 0.92106 0.35112 0.14955 0.0
C608 C 0.88119 0.30689 0.16584 0.0
C609 C 0.79493 0.25401 0.14662 0.0
H610 H 0.76788 0.26129 0.19227 0.0
C611 C 0.67346 0.1494 0.17353 0.0
C612 C 0.65571 0.16165 0.18482 0.0
C613 C 0.70384 0.17299 0.16719 0.0
C614 C 0.7749 0.25914 0.17943 0.0
H615 H 0.8986 0.36046 0.1277 0.0
H616 H 0.84016 0.31751 0.13236 0.0
H617 H 0.8254 0.30037 0.18505 0.0
H618 H 0.65469 0.20843 0.19734 0.0
H619 H 0.70787 0.2495 0.18642 0.0
H620 H 0.74425 0.21241 0.1411 0.0
C621 C 0.86075 0.32074 0.1409 0.0
C622 C 0.80796 0.28123 0.17534 0.0
C623 C 0.8941 0.34528 0.13825 0.0
C624 C 0.66813 0.19809 0.18896 0.0
C625 C 0.69853 0.22162 0.18268 0.0
C626 C 0.76181 0.23156 0.15076 0.0
C627 C 0.85392 0.30196 0.15497 0.0
C628 C 0.81842 0.27875 0.15895 0.0
C629 C 0.71713 0.20927 0.17206 0.0
C630 C 0.75153 0.23389 0.16723 0.0
H631 H 0.93478 0.33509 0.17202 0.0
H632 H 0.87671 0.29237 0.17664 0.0
H633 H 0.80239 0.25154 0.13389 0.0
H634 H 0.66479 0.12149 0.17021 0.0
H635 H 0.71777 0.16269 0.15913 0.0
C636 C 0.02366 0.4418 0.08733 0.0
C637 C 0.04746 0.47107 0.09774 0.0
C638 C 0.02487 0.44081 0.0699 0.0
C639 C 0.08139 0.48229 0.036 0.0
H640 H 0.99617 0.44823 0.00976 0.0
C641 C 0.07456 0.50776 0.96716 0.0
C642 C 0.0511 0.47983 0.95598 0.0
C643 C 0.07491 0.50484 0.98432 0.0
C644 C 0.02015 0.45741 0.01689 0.0
H645 H 0.0914 0.52216 0.09792 0.0
H646 H 0.09308 0.52062 0.06762 0.0
H647 H 0.99533 0.44623 0.03999 0.0
H648 H 0.01025 0.42655 0.95405 0.0
H649 H 0.01065 0.42164 0.98405 0.0
H650 H 0.10619 0.49409 0.01288 0.0
C651 C 0.07383 0.49816 0.07291 0.0
C652 C 0.01968 0.45622 0.03421 0.0
C653 C 0.07271 0.49911 0.09032 0.0
C654 C 0.02824 0.44878 0.96235 0.0
C655 C 0.02849 0.44592 0.97952 0.0
C656 C 0.08186 0.48363 0.01869 0.0
C657 C 0.04982 0.4691 0.06249 0.0
C658 C 0.0503 0.46887 0.04399 0.0
C659 C 0.05172 0.47398 0.99069 0.0
C660 C 0.05125 0.47141 0.00897 0.0
H661 H 1.00397 0.41964 0.09261 0.0
H662 H 0.00628 0.41782 0.06222 0.0
H663 H 0.1054 0.49171 0.04313 0.0
H664 H 0.09218 0.53222 0.96269 0.0
H665 H 0.0928 0.52707 0.99266 0.0
C666 C 0.50182 0.0245 0.44896 0.0
C667 C 0.53183 0.04585 0.45883 0.0
C668 C 0.50012 0.02752 0.43185 0.0
C669 C 0.54369 0.08669 0.39935 0.0
H670 H 0.49384 0.00174 0.36904 0.0
C671 C 0.55264 0.07771 0.32696 0.0
C672 C 0.52178 0.05837 0.31737 0.0
C673 C 0.55338 0.07861 0.34443 0.0
C674 C 0.50758 0.02573 0.37738 0.0
H675 H 0.58367 0.08705 0.45846 0.0
H676 H 0.58108 0.09154 0.42855 0.0
H677 H 0.49643 0.998 0.39902 0.0
H678 H 0.46722 0.02658 0.31875 0.0
H679 H 0.46873 0.0276 0.34915 0.0
H680 H 0.55557 0.11414 0.37746 0.0
C681 C 0.55852 0.07306 0.43407 0.0
C682 C 0.50899 0.02364 0.39458 0.0
C683 C 0.56009 0.07032 0.45122 0.0
C684 C 0.49155 0.04103 0.3257 0.0
C685 C 0.49236 0.04167 0.34312 0.0
C686 C 0.54259 0.0887 0.38209 0.0
C687 C 0.52852 0.05166 0.42415 0.0
C688 C 0.52698 0.05409 0.40581 0.0
C689 C 0.52334 0.05999 0.35263 0.0
C690 C 0.52442 0.05824 0.37095 0.0
H691 H 0.47946 0.00565 0.45447 0.0
H692 H 0.47637 0.01108 0.42471 0.0
H693 H 0.55735 0.11076 0.40762 0.0
H694 H 0.57644 0.09106 0.32096 0.0
H695 H 0.57765 0.09276 0.35147 0.0
C696 C 0.59241 0.55944 0.77485 0.0
C697 C 0.56876 0.56368 0.78544 0.0
C698 C 0.5908 0.56236 0.75772 0.0
C699 C 0.5304 0.55389 0.72385 0.0
H700 H 0.61196 0.60007 0.69938 0.0
C701 C 0.53058 0.53426 0.65185 0.0
C702 C 0.55 0.56384 0.64356 0.0
C703 C 0.53251 0.53647 0.66931 0.0
C704 C 0.58893 0.58738 0.70607 0.0
H705 H 0.52533 0.57519 0.78635 0.0
H706 H 0.5227 0.5804 0.75652 0.0
H707 H 0.61681 0.60092 0.72976 0.0
H708 H 0.58651 0.61899 0.64708 0.0
H709 H 0.58967 0.62294 0.67769 0.0
H710 H 0.50251 0.54036 0.70019 0.0
C711 C 0.54223 0.57441 0.76144 0.0
C712 C 0.59174 0.58755 0.72343 0.0
C713 C 0.54388 0.57159 0.77857 0.0
C714 C 0.57107 0.59583 0.65313 0.0
C715 C 0.57313 0.598 0.67062 0.0
C716 C 0.52761 0.5536 0.7065 0.0
C717 C 0.56545 0.5695 0.75081 0.0
C718 C 0.56252 0.57061 0.73248 0.0
C719 C 0.55398 0.56829 0.67889 0.0
C720 C 0.55685 0.5701 0.69741 0.0
H721 H 0.61192 0.55335 0.77971 0.0
H722 H 0.60885 0.5581 0.74981 0.0
H723 H 0.50743 0.54033 0.73045 0.0
H724 H 0.51387 0.50935 0.64481 0.0
H725 H 0.51769 0.51304 0.6753 0.0
C726 C 0.52931 0.00079 0.56932 0.0
C727 C 0.54316 0.03344 0.56291 0.0
C728 C 0.53142 0.99906 0.58658 0.0
C729 C 0.57747 0.05402 0.62619 0.0
H730 H 0.50429 0.98083 0.64723 0.0
C731 C 0.56037 0.05921 0.69742 0.0
C732 C 0.559 0.03031 0.70496 0.0
C733 C 0.55836 0.05817 0.68001 0.0
C734 C 0.52495 0.00124 0.64144 0.0
H735 H 0.56918 0.08988 0.56948 0.0
H736 H 0.57148 0.08707 0.59949 0.0
H737 H 0.50059 0.9821 0.61695 0.0
H738 H 0.55399 0.97736 0.69981 0.0
H739 H 0.54893 0.97519 0.66935 0.0
H740 H 0.60094 0.07391 0.65089 0.0
C741 C 0.56018 0.06263 0.59129 0.0
C742 C 0.52301 0.00193 0.6241 0.0
C743 C 0.55866 0.06431 0.57406 0.0
C744 C 0.55465 0.99996 0.69455 0.0
C745 C 0.55195 0.9987 0.6771 0.0
C746 C 0.57903 0.0537 0.64353 0.0
C747 C 0.54688 0.03 0.59781 0.0
C748 C 0.54919 0.02847 0.61623 0.0
C749 C 0.55419 0.02796 0.66972 0.0
C750 C 0.55276 0.02741 0.6513 0.0
H751 H 0.51743 0.97654 0.56098 0.0
H752 H 0.52136 0.97344 0.59104 0.0
H753 H 0.59858 0.07433 0.62061 0.0
H754 H 0.56275 0.08269 0.70494 0.0
H755 H 0.55972 0.08089 0.67455 0.0
C756 C 0.59135 0.53314 0.89619 0.0
C757 C 0.5697 0.54453 0.88868 0.0
C758 C 0.59033 0.52931 0.91331 0.0
C759 C 0.56377 0.5571 0.95333 0.0
H760 H 0.56283 0.47266 0.96746 0.0
C761 C 0.53472 0.52049 0.0208 0.0
C762 C 0.55388 0.50607 0.02819 0.0
C763 C 0.53703 0.52546 0.00381 0.0
C764 C 0.56351 0.49661 0.96377 0.0
H765 H 0.53038 0.56143 0.8934 0.0
H766 H 0.52867 0.55475 0.92321 0.0
H767 H 0.56705 0.48163 0.93787 0.0
H768 H 0.59013 0.48506 0.02338 0.0
H769 H 0.59485 0.4946 0.9939 0.0
H770 H 0.56042 0.57221 0.97921 0.0
C771 C 0.54655 0.54894 0.91587 0.0
C772 C 0.56591 0.50173 0.94681 0.0
C773 C 0.54741 0.55257 0.89874 0.0
C774 C 0.57531 0.49663 0.01815 0.0
C775 C 0.5777 0.50169 0.00118 0.0
C776 C 0.56152 0.55206 0.97031 0.0
C777 C 0.56779 0.537 0.92331 0.0
C778 C 0.56597 0.53197 0.94139 0.0
C779 C 0.55862 0.51621 0.9938 0.0
C780 C 0.56126 0.5217 0.97574 0.0
H781 H 0.60882 0.52668 0.88884 0.0
H782 H 0.60729 0.52044 0.91873 0.0
H783 H 0.5642 0.58089 0.94957 0.0
H784 H 0.51824 0.52841 0.02819 0.0
H785 H 0.52166 0.53631 -0.0015 0.0
C786 C 0.05295 0.52044 0.21244 0.0
C787 C 0.0335 0.4884 0.20252 0.0
C788 C 0.04804 0.52407 0.22958 0.0
C789 C 0.01612 0.47382 0.26547 0.0
H790 H 0.00899 0.55663 0.28505 0.0
C791 C 0.98464 0.48918 0.33464 0.0
C792 C 1.00304 0.52254 0.34365 0.0
C793 C 0.98623 0.48452 0.31723 0.0
C794 C 0.01129 0.53353 0.27983 0.0
H795 H 0.99397 0.43487 0.20293 0.0
H796 H 0.98568 0.44126 0.23287 0.0
H797 H 0.01702 0.54954 0.25511 0.0
H798 H 0.03656 0.5774 0.34133 0.0
H799 H 0.04026 0.5691 0.31115 0.0
H800 H 0.01117 0.45808 0.29018 0.0
C801 C 1.00469 0.46351 0.22735 0.0
C802 C 0.01585 0.52947 0.26268 0.0
C803 C 0.00936 0.45995 0.21018 0.0
C804 C 0.02248 0.55124 0.33482 0.0
C805 C 0.02422 0.54656 0.31745 0.0
C806 C 0.01185 0.47799 0.28265 0.0
C807 C 0.02381 0.49567 0.23719 0.0
C808 C 0.01845 0.49966 0.25534 0.0
C809 C 0.00636 0.5131 0.30845 0.0
C810 C 0.00953 0.50798 0.29006 0.0
H811 H 0.07172 0.54291 0.20697 0.0
H812 H 0.0634 0.54906 0.23692 0.0
H813 H 0.0184 0.45073 0.26016 0.0
H814 H 0.96964 0.46644 0.34105 0.0
H815 H 0.97176 0.45848 0.31067 0.0
loop_
_geom_bond_atom_site_label_1
_geom_bond_atom_site_label_2
_geom_bond_distance
_geom_bond_site_symmetry_2
_ccdc_geom_bond_type
Tb0 O3 2.453 1_455 S
Tb0 O4 2.596 1_455 S
Tb0 O5 2.374 . S
Tb0 O13 2.343 . S
Tb0 O15 2.353 . S
Tb0 O17 2.427 . S
Tb0 O18 2.513 . S
C1 O5 1.251 . S
C1 O7 1.263 . S
Tb2 O4 2.343 1_455 S
Tb2 O7 2.353 . S
Tb2 O10 2.427 1_455 S
Tb2 O11 2.513 1_455 S
Tb2 O12 2.453 . S
Tb2 O13 2.596 . S
Tb2 O14 2.374 . S
O3 Tb0 2.453 1_655 S
O3 C19 1.245 . S
O4 Tb0 2.596 1_655 S
O4 Tb2 2.343 1_655 S
O4 C19 1.259 . S
O5 Tb0 2.374 . S
O5 C1 1.251 . S
C6 O10 1.275 . S
C6 O11 1.246 . S
O7 C1 1.263 . S
O7 Tb2 2.353 . S
C8 O12 1.245 . S
C8 O13 1.259 . S
C9 O14 1.250 . S
C9 O15 1.263 . S
O10 Tb2 2.427 1_655 S
O10 C6 1.275 . S
O11 Tb2 2.513 1_655 S
O11 C6 1.246 . S
O12 Tb2 2.453 . S
O12 C8 1.245 . S
O13 Tb0 2.343 . S
O13 Tb2 2.596 . S
O13 C8 1.259 . S
O14 Tb2 2.374 . S
O14 C9 1.250 . S
O15 Tb0 2.353 . S
O15 C9 1.263 . S
C16 O17 1.275 . S
C16 O18 1.246 . S
O17 Tb0 2.427 . S
O17 C16 1.275 . S
O18 Tb0 2.513 . S
O18 C16 1.246 . S
C19 O3 1.245 . S
C19 O4 1.259 . S
Tb20 O23 2.453 . S
Tb20 O24 2.596 . S
Tb20 O25 2.374 . S
Tb20 O33 2.343 1_545 S
Tb20 O35 2.353 . S
Tb20 O37 2.427 1_545 S
Tb20 O38 2.513 1_545 S
C21 O25 1.251 . S
C21 O27 1.263 . S
Tb22 O24 2.343 . S
Tb22 O27 2.353 . S
Tb22 O30 2.427 . S
Tb22 O31 2.513 . S
Tb22 O32 2.453 1_545 S
Tb22 O33 2.596 1_545 S
Tb22 O34 2.374 . S
O23 Tb20 2.453 . S
O23 C39 1.245 . S
O24 Tb20 2.596 . S
O24 Tb22 2.343 . S
O24 C39 1.259 . S
O25 Tb20 2.374 . S
O25 C21 1.251 . S
C26 O30 1.275 . S
C26 O31 1.246 . S
O27 C21 1.263 . S
O27 Tb22 2.353 . S
C28 O32 1.245 . S
C28 O33 1.259 . S
C29 O34 1.250 . S
C29 O35 1.263 . S
O30 Tb22 2.427 . S
O30 C26 1.275 . S
O31 Tb22 2.513 . S
O31 C26 1.246 . S
O32 Tb22 2.453 1_565 S
O32 C28 1.245 . S
O33 Tb20 2.343 1_565 S
O33 Tb22 2.596 1_565 S
O33 C28 1.259 . S
O34 Tb22 2.374 . S
O34 C29 1.250 . S
O35 Tb20 2.353 . S
O35 C29 1.263 . S
C36 O37 1.275 . S
C36 O38 1.246 . S
O37 Tb20 2.427 1_565 S
O37 C36 1.275 . S
O38 Tb20 2.513 1_565 S
O38 C36 1.246 . S
C39 O23 1.245 . S
C39 O24 1.259 . S
Tb40 O43 2.453 . S
Tb40 O44 2.596 . S
Tb40 O45 2.374 . S
Tb40 O53 2.343 . S
Tb40 O55 2.353 . S
Tb40 O57 2.427 . S
Tb40 O58 2.513 . S
C41 O45 1.251 . S
C41 O47 1.263 . S
Tb42 O44 2.343 . S
Tb42 O47 2.353 . S
Tb42 O50 2.427 . S
Tb42 O51 2.513 . S
Tb42 O52 2.453 . S
Tb42 O53 2.596 . S
Tb42 O54 2.374 . S
O43 Tb40 2.453 . S
O43 C59 1.245 . S
O44 Tb40 2.596 . S
O44 Tb42 2.343 . S
O44 C59 1.259 . S
O45 Tb40 2.374 . S
O45 C41 1.251 . S
C46 O50 1.275 . S
C46 O51 1.246 . S
O47 C41 1.263 . S
O47 Tb42 2.353 . S
C48 O52 1.245 . S
C48 O53 1.259 . S
C49 O54 1.250 . S
C49 O55 1.263 . S
O50 Tb42 2.427 . S
O50 C46 1.275 . S
O51 Tb42 2.513 . S
O51 C46 1.246 . S
O52 Tb42 2.453 . S
O52 C48 1.245 . S
O53 Tb40 2.343 . S
O53 Tb42 2.596 . S
O53 C48 1.259 . S
O54 Tb42 2.374 . S
O54 C49 1.250 . S
O55 Tb40 2.353 . S
O55 C49 1.263 . S
C56 O57 1.275 . S
C56 O58 1.246 . S
O57 Tb40 2.427 . S
O57 C56 1.275 . S
O58 Tb40 2.513 . S
O58 C56 1.246 . S
C59 O43 1.245 . S
C59 O44 1.259 . S
C60 C61 1.384 . S
C60 H73 0.947 . S
C60 C95 1.382 . S
C61 C60 1.384 . S
C61 C62 1.378 . S
C62 C61 1.378 . S
C62 C63 1.378 . S
C62 H74 0.952 . S
C63 C62 1.378 . S
C63 H75 0.950 . S
C63 C94 1.383 . S
H64 C83 0.947 . S
H65 C84 0.946 . S
H66 C86 0.953 . S
H67 C87 0.945 . S
H68 C89 0.952 . S
H69 C90 0.949 . S
H70 C92 0.958 . S
H71 C93 0.948 1_565 S
H72 C95 0.951 . S
H73 C60 0.947 . S
H74 C62 0.952 . S
H75 C63 0.950 . S
N76 C79 1.382 . S
N76 C81 1.363 . S
N77 C79 1.371 . S
N77 C80 1.372 . S
N78 C80 1.361 . S
N78 C81 1.377 . S
C79 N76 1.382 . S
C79 N77 1.371 . S
C79 C82 1.480 . S
C80 N77 1.372 . S
C80 N78 1.361 . S
C80 C88 1.457 . S
C81 N76 1.363 . S
C81 N78 1.377 . S
C81 C94 1.479 1_545 S
C82 C79 1.480 . S
C82 C83 1.383 . S
C82 C87 1.385 . S
C83 H64 0.947 . S
C83 C82 1.383 . S
C83 C84 1.388 . S
C84 H65 0.946 . S
C84 C83 1.388 . S
C84 C85 1.384 . S
C85 C84 1.384 . S
C85 C86 1.377 . S
C86 H66 0.953 . S
C86 C85 1.377 . S
C86 C87 1.369 . S
C87 H67 0.945 . S
C87 C82 1.385 . S
C87 C86 1.369 . S
C88 C80 1.457 . S
C88 C89 1.372 . S
C88 C93 1.364 . S
C89 H68 0.952 . S
C89 C88 1.372 . S
C89 C90 1.389 . S
C90 H69 0.949 . S
C90 C89 1.389 . S
C90 C91 1.387 . S
C91 C90 1.387 . S
C91 C92 1.372 . S
C92 H70 0.958 . S
C92 C91 1.372 . S
C92 C93 1.379 . S
C93 H71 0.948 1_545 S
C93 C88 1.364 . S
C93 C92 1.379 . S
C94 C63 1.383 . S
C94 C81 1.479 1_565 S
C94 C95 1.398 . S
C95 C60 1.382 . S
C95 H72 0.951 . S
C95 C94 1.398 . S
C96 C97 1.384 . S
C96 H109 0.947 . S
C96 C131 1.382 . S
C97 C96 1.384 . S
C97 C98 1.378 . S
C98 C97 1.378 . S
C98 C99 1.378 . S
C98 H110 0.952 . S
C99 C98 1.378 . S
C99 H111 0.950 . S
C99 C130 1.383 . S
H100 C119 0.947 . S
H101 C120 0.946 . S
H102 C122 0.953 . S
H103 C123 0.945 . S
H104 C125 0.952 . S
H105 C126 0.949 . S
H106 C128 0.950 . S
H107 C129 0.948 . S
H108 C131 0.951 . S
H109 C96 0.947 . S
H110 C98 0.952 . S
H111 C99 0.950 . S
N112 C115 1.382 . S
N112 C117 1.363 . S
N113 C115 1.371 . S
N113 C116 1.372 . S
N114 C116 1.361 . S
N114 C117 1.377 . S
C115 N112 1.382 . S
C115 N113 1.371 . S
C115 C118 1.480 . S
C116 N113 1.372 . S
C116 N114 1.361 . S
C116 C124 1.457 . S
C117 N112 1.363 . S
C117 N114 1.377 . S
C117 C130 1.479 . S
C118 C115 1.480 . S
C118 C119 1.383 . S
C118 C123 1.385 . S
C119 H100 0.947 . S
C119 C118 1.383 . S
C119 C120 1.388 . S
C120 H101 0.946 . S
C120 C119 1.388 . S
C120 C121 1.384 . S
C121 C120 1.384 . S
C121 C122 1.377 . S
C122 H102 0.953 . S
C122 C121 1.377 . S
C122 C123 1.369 . S
C123 H103 0.945 . S
C123 C118 1.385 . S
C123 C122 1.369 . S
C124 C116 1.457 . S
C124 C125 1.372 . S
C124 C129 1.364 . S
C125 H104 0.952 . S
C125 C124 1.372 . S
C125 C126 1.389 . S
C126 H105 0.949 . S
C126 C125 1.389 . S
C126 C127 1.387 . S
C127 C126 1.387 . S
C127 C128 1.372 . S
C128 H106 0.950 . S
C128 C127 1.372 . S
C128 C129 1.379 . S
C129 H107 0.948 . S
C129 C124 1.364 . S
C129 C128 1.379 . S
C130 C99 1.383 . S
C130 C117 1.479 . S
C130 C131 1.398 . S
C131 C96 1.382 . S
C131 H108 0.951 . S
C131 C130 1.398 . S
C132 C133 1.384 . S
C132 H145 0.947 . S
C132 C167 1.382 . S
C133 C132 1.384 . S
C133 C134 1.378 . S
C134 C133 1.378 . S
C134 C135 1.378 1_655 S
C134 H146 0.952 . S
C135 C134 1.378 1_455 S
C135 H147 0.950 . S
C135 C166 1.383 . S
H136 C155 0.947 . S
H137 C156 0.946 . S
H138 C158 0.953 . S
H139 C159 0.945 . S
H140 C161 0.952 . S
H141 C162 0.949 . S
H142 C164 0.950 . S
H143 C165 0.948 . S
H144 C167 0.951 . S
H145 C132 0.947 . S
H146 C134 0.952 . S
H147 C135 0.950 . S
N148 C151 1.382 . S
N148 C153 1.363 . S
N149 C151 1.371 . S
N149 C152 1.372 . S
N150 C152 1.361 . S
N150 C153 1.377 . S
C151 N148 1.382 . S
C151 N149 1.371 . S
C151 C154 1.480 . S
C152 N149 1.372 . S
C152 N150 1.361 . S
C152 C160 1.457 . S
C153 N148 1.363 . S
C153 N150 1.377 . S
C153 C166 1.479 . S
C154 C151 1.480 . S
C154 C155 1.383 . S
C154 C159 1.385 . S
C155 H136 0.947 . S
C155 C154 1.383 . S
C155 C156 1.388 . S
C156 H137 0.946 . S
C156 C155 1.388 . S
C156 C157 1.384 . S
C157 C156 1.384 . S
C157 C158 1.377 . S
C158 H138 0.953 . S
C158 C157 1.377 . S
C158 C159 1.369 . S
C159 H139 0.945 . S
C159 C154 1.385 . S
C159 C158 1.369 . S
C160 C152 1.457 . S
C160 C161 1.372 . S
C160 C165 1.364 . S
C161 H140 0.952 . S
C161 C160 1.372 . S
C161 C162 1.389 . S
C162 H141 0.949 . S
C162 C161 1.389 . S
C162 C163 1.387 . S
C163 C162 1.387 . S
C163 C164 1.372 . S
C164 H142 0.950 . S
C164 C163 1.372 . S
C164 C165 1.379 . S
C165 H143 0.948 . S
C165 C160 1.364 . S
C165 C164 1.379 . S
C166 C135 1.383 . S
C166 C153 1.479 . S
C166 C167 1.398 1_455 S
C167 C132 1.382 . S
C167 H144 0.951 . S
C167 C166 1.398 1_655 S
C168 C169 1.384 . S
C168 H181 0.947 . S
C168 C203 1.382 . S
C169 C168 1.384 . S
C169 C170 1.378 . S
C170 C169 1.378 . S
C170 C171 1.378 . S
C170 H182 0.952 . S
C171 C170 1.378 . S
C171 H183 0.950 . S
C171 C202 1.383 . S
H172 C191 0.947 . S
H173 C192 0.946 . S
H174 C194 0.953 . S
H175 C195 0.945 . S
H176 C197 0.952 . S
H177 C198 0.949 . S
H178 C200 0.950 . S
H179 C201 0.948 . S
H180 C203 0.951 . S
H181 C168 0.947 . S
H182 C170 0.952 . S
H183 C171 0.950 . S
N184 C187 1.382 1_455 S
N184 C189 1.363 . S
N185 C187 1.371 . S
N185 C188 1.372 1_655 S
N186 C188 1.361 . S
N186 C189 1.377 . S
C187 N184 1.382 1_655 S
C187 N185 1.371 . S
C187 C190 1.480 . S
C188 N185 1.372 1_455 S
C188 N186 1.361 . S
C188 C196 1.457 . S
C189 N184 1.363 . S
C189 N186 1.377 . S
C189 C202 1.479 . S
C190 C187 1.480 . S
C190 C191 1.383 . S
C190 C195 1.385 . S
C191 H172 0.947 . S
C191 C190 1.383 . S
C191 C192 1.388 . S
C192 H173 0.946 . S
C192 C191 1.388 . S
C192 C193 1.384 . S
C193 C192 1.384 . S
C193 C194 1.377 . S
C194 H174 0.953 . S
C194 C193 1.377 . S
C194 C195 1.369 . S
C195 H175 0.945 . S
C195 C190 1.385 . S
C195 C194 1.369 . S
C196 C188 1.457 . S
C196 C197 1.372 1_455 S
C196 C201 1.364 . S
C197 H176 0.952 . S
C197 C196 1.372 1_655 S
C197 C198 1.389 . S
C198 H177 0.949 . S
C198 C197 1.389 . S
C198 C199 1.387 1_655 S
C199 C198 1.387 1_455 S
C199 C200 1.372 . S
C200 H178 0.950 . S
C200 C199 1.372 . S
C200 C201 1.379 . S
C201 H179 0.948 . S
C201 C196 1.364 . S
C201 C200 1.379 . S
C202 C171 1.383 . S
C202 C189 1.479 . S
C202 C203 1.398 . S
C203 C168 1.382 . S
C203 H180 0.951 . S
C203 C202 1.398 . S
C204 C205 1.384 . S
C204 H217 0.947 . S
C204 C239 1.382 . S
C205 C204 1.384 . S
C205 C206 1.378 . S
C206 C205 1.378 . S
C206 C207 1.378 . S
C206 H218 0.952 . S
C207 C206 1.378 . S
C207 H219 0.950 . S
C207 C238 1.383 . S
H208 C227 0.947 . S
H209 C228 0.946 . S
H210 C230 0.953 . S
H211 C231 0.945 . S
H212 C233 0.952 . S
H213 C234 0.949 . S
H214 C236 0.950 . S
H215 C237 0.948 . S
H216 C239 0.951 . S
H217 C204 0.947 . S
H218 C206 0.952 . S
H219 C207 0.950 . S
N220 C223 1.382 1_545 S
N220 C225 1.363 . S
N221 C223 1.371 . S
N221 C224 1.372 1_565 S
N222 C224 1.361 . S
N222 C225 1.377 . S
C223 N220 1.382 1_565 S
C223 N221 1.371 . S
C223 C226 1.480 . S
C224 N221 1.372 1_545 S
C224 N222 1.361 . S
C224 C232 1.457 . S
C225 N220 1.363 . S
C225 N222 1.377 . S
C225 C238 1.479 . S
C226 C223 1.480 . S
C226 C227 1.383 . S
C226 C231 1.385 . S
C227 H208 0.947 . S
C227 C226 1.383 . S
C227 C228 1.388 . S
C228 H209 0.946 . S
C228 C227 1.388 . S
C228 C229 1.384 . S
C229 C228 1.384 . S
C229 C230 1.377 . S
C230 H210 0.953 . S
C230 C229 1.377 . S
C230 C231 1.369 . S
C231 H211 0.945 . S
C231 C226 1.385 . S
C231 C230 1.369 . S
C232 C224 1.457 . S
C232 C233 1.372 1_545 S
C232 C237 1.364 . S
C233 H212 0.952 . S
C233 C232 1.372 1_565 S
C233 C234 1.389 . S
C234 H213 0.949 . S
C234 C233 1.389 . S
C234 C235 1.387 1_565 S
C235 C234 1.387 1_545 S
C235 C236 1.372 . S
C236 H214 0.950 . S
C236 C235 1.372 . S
C236 C237 1.379 . S
C237 H215 0.948 . S
C237 C232 1.364 . S
C237 C236 1.379 . S
C238 C207 1.383 . S
C238 C225 1.479 . S
C238 C239 1.398 . S
C239 C204 1.382 . S
C239 H216 0.951 . S
C239 C238 1.398 . S
C240 C241 1.384 . S
C240 H253 0.947 . S
C240 C275 1.382 . S
C241 C240 1.384 . S
C241 C242 1.378 . S
C242 C241 1.378 . S
C242 C243 1.378 . S
C242 H254 0.952 . S
C243 C242 1.378 . S
C243 H255 0.950 . S
C243 C274 1.383 . S
H244 C263 0.947 . S
H245 C264 0.946 . S
H246 C266 0.953 . S
H247 C267 0.945 . S
H248 C269 0.952 . S
H249 C270 0.949 . S
H250 C272 0.950 . S
H251 C273 0.948 . S
H252 C275 0.951 . S
H253 C240 0.947 . S
H254 C242 0.952 . S
H255 C243 0.950 . S
N256 C259 1.382 . S
N256 C261 1.363 . S
N257 C259 1.371 . S
N257 C260 1.372 . S
N258 C260 1.361 . S
N258 C261 1.377 . S
C259 N256 1.382 . S
C259 N257 1.371 . S
C259 C262 1.480 . S
C260 N257 1.372 . S
C260 N258 1.361 . S
C260 C268 1.457 . S
C261 N256 1.363 . S
C261 N258 1.377 . S
C261 C274 1.479 . S
C262 C259 1.480 . S
C262 C263 1.383 . S
C262 C267 1.385 . S
C263 H244 0.947 . S
C263 C262 1.383 . S
C263 C264 1.388 . S
C264 H245 0.946 . S
C264 C263 1.388 . S
C264 C265 1.384 . S
C265 C264 1.384 . S
C265 C266 1.377 . S
C266 H246 0.953 . S
C266 C265 1.377 . S
C266 C267 1.369 . S
C267 H247 0.945 . S
C267 C262 1.385 . S
C267 C266 1.369 . S
C268 C260 1.457 . S
C268 C269 1.372 . S
C268 C273 1.364 . S
C269 H248 0.952 . S
C269 C268 1.372 . S
C269 C270 1.389 . S
C270 H249 0.949 . S
C270 C269 1.389 . S
C270 C271 1.387 . S
C271 C270 1.387 . S
C271 C272 1.372 . S
C272 H250 0.950 . S
C272 C271 1.372 . S
C272 C273 1.379 . S
C273 H251 0.948 . S
C273 C268 1.364 . S
C273 C272 1.379 . S
C274 C243 1.383 . S
C274 C261 1.479 . S
C274 C275 1.398 . S
C275 C240 1.382 . S
C275 H252 0.951 . S
C275 C274 1.398 . S
C276 C277 1.349 . S
C276 C278 1.327 . S
C276 H301 0.950 . S
C277 C276 1.349 . S
C277 C293 1.349 . S
C278 C276 1.327 . S
C278 C297 1.429 . S
C278 H302 0.950 . S
C279 C296 1.574 . S
C279 C298 1.368 . S
C279 H303 0.949 . S
H280 C284 0.949 . S
C281 C282 1.349 . S
C281 C283 1.327 . S
C281 H304 0.950 . S
C282 C281 1.349 . S
C282 C294 1.349 . S
C283 C281 1.327 . S
C283 C299 1.429 . S
C283 H305 0.950 . S
C284 H280 0.949 . S
C284 C292 1.574 . S
C284 C300 1.368 . S
H285 C293 0.950 . S
H286 C291 0.950 . S
H287 C292 0.949 . S
H288 C294 0.950 . S
H289 C295 0.950 . S
H290 C296 0.949 . S
C291 H286 0.950 . S
C291 C293 1.327 . S
C291 C297 1.429 . S
C292 C284 1.574 . S
C292 H287 0.949 . S
C292 C298 1.368 . S
C293 C277 1.349 . S
C293 H285 0.950 . S
C293 C291 1.327 . S
C294 C282 1.349 . S
C294 H288 0.950 . S
C294 C295 1.327 . S
C295 H289 0.950 . S
C295 C294 1.327 . S
C295 C299 1.429 . S
C296 C279 1.574 . S
C296 H290 0.949 . S
C296 C300 1.368 . S
C297 C278 1.429 . S
C297 C291 1.429 . S
C297 C298 1.523 . S
C298 C279 1.368 . S
C298 C292 1.368 . S
C298 C297 1.523 . S
C299 C283 1.429 . S
C299 C295 1.429 . S
C299 C300 1.523 . S
C300 C284 1.368 . S
C300 C296 1.368 . S
C300 C299 1.523 . S
H301 C276 0.950 . S
H302 C278 0.950 . S
H303 C279 0.949 . S
H304 C281 0.950 . S
H305 C283 0.950 . S
C306 C307 1.349 . S
C306 C308 1.327 . S
C306 H331 0.950 . S
C307 C306 1.349 . S
C307 C323 1.349 . S
C308 C306 1.327 . S
C308 C327 1.429 . S
C308 H332 0.950 . S
C309 C326 1.574 . S
C309 C328 1.368 . S
C309 H333 0.949 . S
H310 C314 0.949 . S
C311 C312 1.349 . S
C311 C313 1.327 . S
C311 H334 0.950 . S
C312 C311 1.349 . S
C312 C324 1.349 . S
C313 C311 1.327 . S
C313 C329 1.429 . S
C313 H335 0.950 . S
C314 H310 0.949 . S
C314 C322 1.574 . S
C314 C330 1.368 . S
H315 C323 0.950 . S
H316 C321 0.950 . S
H317 C322 0.949 . S
H318 C324 0.950 . S
H319 C325 0.950 . S
H320 C326 0.949 . S
C321 H316 0.950 . S
C321 C323 1.327 . S
C321 C327 1.429 . S
C322 C314 1.574 . S
C322 H317 0.949 . S
C322 C328 1.368 . S
C323 C307 1.349 . S
C323 H315 0.950 . S
C323 C321 1.327 . S
C324 C312 1.349 . S
C324 H318 0.950 . S
C324 C325 1.327 . S
C325 H319 0.950 . S
C325 C324 1.327 . S
C325 C329 1.429 . S
C326 C309 1.574 . S
C326 H320 0.949 . S
C326 C330 1.368 . S
C327 C308 1.429 . S
C327 C321 1.429 . S
C327 C328 1.523 . S
C328 C309 1.368 . S
C328 C322 1.368 . S
C328 C327 1.523 . S
C329 C313 1.429 . S
C329 C325 1.429 . S
C329 C330 1.523 . S
C330 C314 1.368 . S
C330 C326 1.368 . S
C330 C329 1.523 . S
H331 C306 0.950 . S
H332 C308 0.950 . S
H333 C309 0.949 . S
H334 C311 0.950 . S
H335 C313 0.950 . S
C336 C337 1.349 . S
C336 C338 1.327 . S
C336 H361 0.950 . S
C337 C336 1.349 . S
C337 C353 1.349 . S
C338 C336 1.327 . S
C338 C357 1.429 . S
C338 H362 0.950 . S
C339 C356 1.574 . S
C339 C358 1.368 . S
C339 H363 0.949 . S
H340 C344 0.949 . S
C341 C342 1.349 . S
C341 C343 1.327 . S
C341 H364 0.950 . S
C342 C341 1.349 . S
C342 C354 1.349 . S
C343 C341 1.327 . S
C343 C359 1.429 . S
C343 H365 0.950 . S
C344 H340 0.949 . S
C344 C352 1.574 . S
C344 C360 1.368 . S
H345 C353 0.950 . S
H346 C351 0.950 . S
H347 C352 0.949 . S
H348 C354 0.950 . S
H349 C355 0.950 . S
H350 C356 0.949 . S
C351 H346 0.950 . S
C351 C353 1.327 . S
C351 C357 1.429 . S
C352 C344 1.574 . S
C352 H347 0.949 . S
C352 C358 1.368 . S
C353 C337 1.349 . S
C353 H345 0.950 . S
C353 C351 1.327 . S
C354 C342 1.349 . S
C354 H348 0.950 . S
C354 C355 1.327 . S
C355 H349 0.950 . S
C355 C354 1.327 . S
C355 C359 1.429 . S
C356 C339 1.574 . S
C356 H350 0.949 . S
C356 C360 1.368 . S
C357 C338 1.429 . S
C357 C351 1.429 . S
C357 C358 1.523 . S
C358 C339 1.368 . S
C358 C352 1.368 . S
C358 C357 1.523 . S
C359 C343 1.429 . S
C359 C355 1.429 . S
C359 C360 1.523 . S
C360 C344 1.368 . S
C360 C356 1.368 . S
C360 C359 1.523 . S
H361 C336 0.950 . S
H362 C338 0.950 . S
H363 C339 0.949 . S
H364 C341 0.950 . S
H365 C343 0.950 . S
C366 C367 1.349 . S
C366 C368 1.327 . S
C366 H391 0.950 . S
C367 C366 1.349 . S
C367 C383 1.349 . S
C368 C366 1.327 . S
C368 C387 1.429 . S
C368 H392 0.950 . S
C369 C386 1.574 . S
C369 C388 1.368 . S
C369 H393 0.949 . S
H370 C374 0.949 . S
C371 C372 1.349 . S
C371 C373 1.327 . S
C371 H394 0.950 . S
C372 C371 1.349 . S
C372 C384 1.349 . S
C373 C371 1.327 . S
C373 C389 1.429 . S
C373 H395 0.950 . S
C374 H370 0.949 . S
C374 C382 1.574 . S
C374 C390 1.368 . S
H375 C383 0.950 . S
H376 C381 0.950 . S
H377 C382 0.949 . S
H378 C384 0.950 . S
H379 C385 0.950 . S
H380 C386 0.949 . S
C381 H376 0.950 . S
C381 C383 1.327 . S
C381 C387 1.429 . S
C382 C374 1.574 . S
C382 H377 0.949 . S
C382 C388 1.368 . S
C383 C367 1.349 . S
C383 H375 0.950 . S
C383 C381 1.327 . S
C384 C372 1.349 . S
C384 H378 0.950 . S
C384 C385 1.327 . S
C385 H379 0.950 . S
C385 C384 1.327 . S
C385 C389 1.429 . S
C386 C369 1.574 . S
C386 H380 0.949 . S
C386 C390 1.368 . S
C387 C368 1.429 . S
C387 C381 1.429 . S
C387 C388 1.523 . S
C388 C369 1.368 . S
C388 C382 1.368 . S
C388 C387 1.523 . S
C389 C373 1.429 . S
C389 C385 1.429 . S
C389 C390 1.523 . S
C390 C374 1.368 . S
C390 C386 1.368 . S
C390 C389 1.523 . S
H391 C366 0.950 . S
H392 C368 0.950 . S
H393 C369 0.949 . S
H394 C371 0.950 . S
H395 C373 0.950 . S
C396 C397 1.349 . S
C396 C398 1.327 . S
C396 H421 0.950 . S
C397 C396 1.349 . S
C397 C413 1.349 . S
C398 C396 1.327 . S
C398 C417 1.429 . S
C398 H422 0.950 . S
C399 C416 1.574 . S
C399 C418 1.368 . S
C399 H423 0.949 . S
H400 C404 0.949 . S
C401 C402 1.349 . S
C401 C403 1.327 . S
C401 H424 0.950 . S
C402 C401 1.349 . S
C402 C414 1.349 . S
C403 C401 1.327 . S
C403 C419 1.429 . S
C403 H425 0.950 . S
C404 H400 0.949 . S
C404 C412 1.574 . S
C404 C420 1.368 . S
H405 C413 0.950 . S
H406 C411 0.950 . S
H407 C412 0.949 . S
H408 C414 0.950 . S
H409 C415 0.950 . S
H410 C416 0.949 . S
C411 H406 0.950 . S
C411 C413 1.327 . S
C411 C417 1.429 . S
C412 C404 1.574 . S
C412 H407 0.949 . S
C412 C418 1.368 . S
C413 C397 1.349 . S
C413 H405 0.950 . S
C413 C411 1.327 . S
C414 C402 1.349 . S
C414 H408 0.950 . S
C414 C415 1.327 . S
C415 H409 0.950 . S
C415 C414 1.327 . S
C415 C419 1.429 . S
C416 C399 1.574 . S
C416 H410 0.949 . S
C416 C420 1.368 . S
C417 C398 1.429 . S
C417 C411 1.429 . S
C417 C418 1.523 . S
C418 C399 1.368 . S
C418 C412 1.368 . S
C418 C417 1.523 . S
C419 C403 1.429 . S
C419 C415 1.429 . S
C419 C420 1.523 . S
C420 C404 1.368 . S
C420 C416 1.368 . S
C420 C419 1.523 . S
H421 C396 0.950 . S
H422 C398 0.950 . S
H423 C399 0.949 . S
H424 C401 0.950 . S
H425 C403 0.950 . S
C426 C427 1.349 . S
C426 C428 1.327 . S
C426 H451 0.950 . S
C427 C426 1.349 . S
C427 C443 1.349 . S
C428 C426 1.327 . S
C428 C447 1.429 . S
C428 H452 0.950 . S
C429 C446 1.574 . S
C429 C448 1.368 . S
C429 H453 0.949 . S
H430 C434 0.949 . S
C431 C432 1.349 . S
C431 C433 1.327 . S
C431 H454 0.950 . S
C432 C431 1.349 . S
C432 C444 1.349 . S
C433 C431 1.327 . S
C433 C449 1.429 . S
C433 H455 0.950 . S
C434 H430 0.949 . S
C434 C442 1.574 . S
C434 C450 1.368 . S
H435 C443 0.950 . S
H436 C441 0.950 . S
H437 C442 0.949 . S
H438 C444 0.950 . S
H439 C445 0.950 . S
H440 C446 0.949 . S
C441 H436 0.950 . S
C441 C443 1.327 . S
C441 C447 1.429 . S
C442 C434 1.574 . S
C442 H437 0.949 . S
C442 C448 1.368 . S
C443 C427 1.349 . S
C443 H435 0.950 . S
C443 C441 1.327 . S
C444 C432 1.349 . S
C444 H438 0.950 . S
C444 C445 1.327 . S
C445 H439 0.950 . S
C445 C444 1.327 . S
C445 C449 1.429 . S
C446 C429 1.574 . S
C446 H440 0.949 . S
C446 C450 1.368 . S
C447 C428 1.429 . S
C447 C441 1.429 . S
C447 C448 1.523 . S
C448 C429 1.368 . S
C448 C442 1.368 . S
C448 C447 1.523 . S
C449 C433 1.429 . S
C449 C445 1.429 . S
C449 C450 1.523 . S
C450 C434 1.368 . S
C450 C446 1.368 . S
C450 C449 1.523 . S
H451 C426 0.950 . S
H452 C428 0.950 . S
H453 C429 0.949 . S
H454 C431 0.950 . S
H455 C433 0.950 . S
C456 C457 1.349 . S
C456 C458 1.327 . S
C456 H481 0.950 . S
C457 C456 1.349 . S
C457 C473 1.349 . S
C458 C456 1.327 . S
C458 C477 1.429 . S
C458 H482 0.950 . S
C459 C476 1.574 . S
C459 C478 1.368 . S
C459 H483 0.949 . S
H460 C464 0.949 . S
C461 C462 1.349 . S
C461 C463 1.327 . S
C461 H484 0.950 . S
C462 C461 1.349 . S
C462 C474 1.349 . S
C463 C461 1.327 . S
C463 C479 1.429 . S
C463 H485 0.950 . S
C464 H460 0.949 . S
C464 C472 1.574 . S
C464 C480 1.368 . S
H465 C473 0.950 . S
H466 C471 0.950 . S
H467 C472 0.949 . S
H468 C474 0.950 . S
H469 C475 0.950 . S
H470 C476 0.949 . S
C471 H466 0.950 . S
C471 C473 1.327 . S
C471 C477 1.429 . S
C472 C464 1.574 . S
C472 H467 0.949 . S
C472 C478 1.368 . S
C473 C457 1.349 . S
C473 H465 0.950 . S
C473 C471 1.327 . S
C474 C462 1.349 . S
C474 H468 0.950 . S
C474 C475 1.327 . S
C475 H469 0.950 . S
C475 C474 1.327 . S
C475 C479 1.429 . S
C476 C459 1.574 . S
C476 H470 0.949 . S
C476 C480 1.368 . S
C477 C458 1.429 . S
C477 C471 1.429 . S
C477 C478 1.523 . S
C478 C459 1.368 . S
C478 C472 1.368 . S
C478 C477 1.523 . S
C479 C463 1.429 . S
C479 C475 1.429 . S
C479 C480 1.523 . S
C480 C464 1.368 . S
C480 C476 1.368 . S
C480 C479 1.523 . S
H481 C456 0.950 . S
H482 C458 0.950 . S
H483 C459 0.949 . S
H484 C461 0.950 . S
H485 C463 0.950 . S
C486 C487 1.349 . S
C486 C488 1.327 . S
C486 H511 0.950 . S
C487 C486 1.349 . S
C487 C503 1.349 . S
C488 C486 1.327 . S
C488 C507 1.429 . S
C488 H512 0.950 . S
C489 C506 1.574 . S
C489 C508 1.368 . S
C489 H513 0.949 . S
H490 C494 0.949 . S
C491 C492 1.349 . S
C491 C493 1.327 . S
C491 H514 0.950 . S
C492 C491 1.349 . S
C492 C504 1.349 . S
C493 C491 1.327 . S
C493 C509 1.429 . S
C493 H515 0.950 . S
C494 H490 0.949 . S
C494 C502 1.574 . S
C494 C510 1.368 . S
H495 C503 0.950 . S
H496 C501 0.950 . S
H497 C502 0.949 . S
H498 C504 0.950 . S
H499 C505 0.950 . S
H500 C506 0.949 . S
C501 H496 0.950 . S
C501 C503 1.327 . S
C501 C507 1.429 . S
C502 C494 1.574 . S
C502 H497 0.949 . S
C502 C508 1.368 . S
C503 C487 1.349 . S
C503 H495 0.950 . S
C503 C501 1.327 . S
C504 C492 1.349 . S
C504 H498 0.950 . S
C504 C505 1.327 . S
C505 H499 0.950 . S
C505 C504 1.327 . S
C505 C509 1.429 . S
C506 C489 1.574 . S
C506 H500 0.949 . S
C506 C510 1.368 . S
C507 C488 1.429 . S
C507 C501 1.429 . S
C507 C508 1.523 . S
C508 C489 1.368 . S
C508 C502 1.368 . S
C508 C507 1.523 . S
C509 C493 1.429 . S
C509 C505 1.429 . S
C509 C510 1.523 . S
C510 C494 1.368 . S
C510 C506 1.368 . S
C510 C509 1.523 . S
H511 C486 0.950 . S
H512 C488 0.950 . S
H513 C489 0.949 . S
H514 C491 0.950 . S
H515 C493 0.950 . S
C516 C517 1.349 . S
C516 C518 1.327 . S
C516 H541 0.950 . S
C517 C516 1.349 . S
C517 C533 1.349 . S
C518 C516 1.327 . S
C518 C537 1.429 . S
C518 H542 0.950 . S
C519 C536 1.574 . S
C519 C538 1.368 . S
C519 H543 0.949 . S
H520 C524 0.949 . S
C521 C522 1.349 . S
C521 C523 1.327 . S
C521 H544 0.950 . S
C522 C521 1.349 . S
C522 C534 1.349 . S
C523 C521 1.327 . S
C523 C539 1.429 . S
C523 H545 0.950 . S
C524 H520 0.949 . S
C524 C532 1.574 . S
C524 C540 1.368 . S
H525 C533 0.950 . S
H526 C531 0.950 . S
H527 C532 0.949 . S
H528 C534 0.950 . S
H529 C535 0.950 . S
H530 C536 0.949 . S
C531 H526 0.950 . S
C531 C533 1.327 . S
C531 C537 1.429 . S
C532 C524 1.574 . S
C532 H527 0.949 . S
C532 C538 1.368 . S
C533 C517 1.349 . S
C533 H525 0.950 . S
C533 C531 1.327 . S
C534 C522 1.349 . S
C534 H528 0.950 . S
C534 C535 1.327 . S
C535 H529 0.950 . S
C535 C534 1.327 . S
C535 C539 1.429 . S
C536 C519 1.574 . S
C536 H530 0.949 . S
C536 C540 1.368 . S
C537 C518 1.429 . S
C537 C531 1.429 . S
C537 C538 1.523 . S
C538 C519 1.368 . S
C538 C532 1.368 . S
C538 C537 1.523 . S
C539 C523 1.429 . S
C539 C535 1.429 . S
C539 C540 1.523 . S
C540 C524 1.368 . S
C540 C536 1.368 . S
C540 C539 1.523 . S
H541 C516 0.950 . S
H542 C518 0.950 . S
H543 C519 0.949 . S
H544 C521 0.950 . S
H545 C523 0.950 . S
C546 C547 1.349 . S
C546 C548 1.327 . S
C546 H571 0.950 . S
C547 C546 1.349 . S
C547 C563 1.349 . S
C548 C546 1.327 . S
C548 C567 1.429 . S
C548 H572 0.950 . S
C549 C566 1.574 . S
C549 C568 1.368 . S
C549 H573 0.949 . S
H550 C554 0.949 . S
C551 C552 1.349 . S
C551 C553 1.327 . S
C551 H574 0.950 . S
C552 C551 1.349 . S
C552 C564 1.349 . S
C553 C551 1.327 . S
C553 C569 1.429 . S
C553 H575 0.950 . S
C554 H550 0.949 . S
C554 C562 1.574 . S
C554 C570 1.368 . S
H555 C563 0.950 . S
H556 C561 0.950 . S
H557 C562 0.949 . S
H558 C564 0.950 . S
H559 C565 0.950 . S
H560 C566 0.949 . S
C561 H556 0.950 . S
C561 C563 1.327 . S
C561 C567 1.429 . S
C562 C554 1.574 . S
C562 H557 0.949 . S
C562 C568 1.368 . S
C563 C547 1.349 . S
C563 H555 0.950 . S
C563 C561 1.327 . S
C564 C552 1.349 . S
C564 H558 0.950 . S
C564 C565 1.327 . S
C565 H559 0.950 . S
C565 C564 1.327 . S
C565 C569 1.429 . S
C566 C549 1.574 . S
C566 H560 0.949 . S
C566 C570 1.368 . S
C567 C548 1.429 . S
C567 C561 1.429 . S
C567 C568 1.523 . S
C568 C549 1.368 . S
C568 C562 1.368 . S
C568 C567 1.523 . S
C569 C553 1.429 . S
C569 C565 1.429 . S
C569 C570 1.523 . S
C570 C554 1.368 . S
C570 C566 1.368 . S
C570 C569 1.523 . S
H571 C546 0.950 . S
H572 C548 0.950 . S
H573 C549 0.949 . S
H574 C551 0.950 . S
H575 C553 0.950 . S
C576 C577 1.349 . S
C576 C578 1.327 . S
C576 H601 0.950 . S
C577 C576 1.349 . S
C577 C593 1.349 . S
C578 C576 1.327 . S
C578 C597 1.429 . S
C578 H602 0.950 . S
C579 C596 1.574 . S
C579 C598 1.368 . S
C579 H603 0.949 . S
H580 C584 0.949 . S
C581 C582 1.349 . S
C581 C583 1.327 . S
C581 H604 0.950 . S
C582 C581 1.349 . S
C582 C594 1.349 . S
C583 C581 1.327 . S
C583 C599 1.429 . S
C583 H605 0.950 . S
C584 H580 0.949 . S
C584 C592 1.574 . S
C584 C600 1.368 . S
H585 C593 0.950 . S
H586 C591 0.950 . S
H587 C592 0.949 . S
H588 C594 0.950 . S
H589 C595 0.950 . S
H590 C596 0.949 . S
C591 H586 0.950 . S
C591 C593 1.327 . S
C591 C597 1.429 . S
C592 C584 1.574 . S
C592 H587 0.949 . S
C592 C598 1.368 . S
C593 C577 1.349 . S
C593 H585 0.950 . S
C593 C591 1.327 . S
C594 C582 1.349 . S
C594 H588 0.950 . S
C594 C595 1.327 . S
C595 H589 0.950 . S
C595 C594 1.327 . S
C595 C599 1.429 . S
C596 C579 1.574 . S
C596 H590 0.949 . S
C596 C600 1.368 . S
C597 C578 1.429 . S
C597 C591 1.429 . S
C597 C598 1.523 . S
C598 C579 1.368 . S
C598 C592 1.368 . S
C598 C597 1.523 . S
C599 C583 1.429 . S
C599 C595 1.429 . S
C599 C600 1.523 . S
C600 C584 1.368 . S
C600 C596 1.368 . S
C600 C599 1.523 . S
H601 C576 0.950 . S
H602 C578 0.950 . S
H603 C579 0.949 . S
H604 C581 0.950 . S
H605 C583 0.950 . S
C606 C607 1.349 . S
C606 C608 1.327 . S
C606 H631 0.950 . S
C607 C606 1.349 . S
C607 C623 1.349 . S
C608 C606 1.327 . S
C608 C627 1.429 . S
C608 H632 0.950 . S
C609 C626 1.574 . S
C609 C628 1.368 . S
C609 H633 0.949 . S
H610 C614 0.949 . S
C611 C612 1.349 . S
C611 C613 1.327 . S
C611 H634 0.950 . S
C612 C611 1.349 . S
C612 C624 1.349 . S
C613 C611 1.327 . S
C613 C629 1.429 . S
C613 H635 0.950 . S
C614 H610 0.949 . S
C614 C622 1.574 . S
C614 C630 1.368 . S
H615 C623 0.950 . S
H616 C621 0.950 . S
H617 C622 0.949 . S
H618 C624 0.950 . S
H619 C625 0.950 . S
H620 C626 0.949 . S
C621 H616 0.950 . S
C621 C623 1.327 . S
C621 C627 1.429 . S
C622 C614 1.574 . S
C622 H617 0.949 . S
C622 C628 1.368 . S
C623 C607 1.349 . S
C623 H615 0.950 . S
C623 C621 1.327 . S
C624 C612 1.349 . S
C624 H618 0.950 . S
C624 C625 1.327 . S
C625 H619 0.950 . S
C625 C624 1.327 . S
C625 C629 1.429 . S
C626 C609 1.574 . S
C626 H620 0.949 . S
C626 C630 1.368 . S
C627 C608 1.429 . S
C627 C621 1.429 . S
C627 C628 1.523 . S
C628 C609 1.368 . S
C628 C622 1.368 . S
C628 C627 1.523 . S
C629 C613 1.429 . S
C629 C625 1.429 . S
C629 C630 1.523 . S
C630 C614 1.368 . S
C630 C626 1.368 . S
C630 C629 1.523 . S
H631 C606 0.950 . S
H632 C608 0.950 . S
H633 C609 0.949 . S
H634 C611 0.950 . S
H635 C613 0.950 . S
C636 C637 1.349 . S
C636 C638 1.327 . S
C636 H661 0.950 . S
C637 C636 1.349 . S
C637 C653 1.349 . S
C638 C636 1.327 . S
C638 C657 1.429 . S
C638 H662 0.950 . S
C639 C656 1.574 . S
C639 C658 1.368 . S
C639 H663 0.949 . S
H640 C644 0.949 . S
C641 C642 1.349 . S
C641 C643 1.327 1_556 S
C641 H664 0.950 . S
C642 C641 1.349 . S
C642 C654 1.349 . S
C643 C641 1.327 1_554 S
C643 C659 1.429 . S
C643 H665 0.950 . S
C644 H640 0.949 . S
C644 C652 1.574 . S
C644 C660 1.368 . S
H645 C653 0.950 . S
H646 C651 0.950 . S
H647 C652 0.949 . S
H648 C654 0.950 . S
H649 C655 0.957 . S
H650 C656 0.949 . S
C651 H646 0.950 . S
C651 C653 1.327 . S
C651 C657 1.429 . S
C652 C644 1.574 . S
C652 H647 0.949 . S
C652 C658 1.368 . S
C653 C637 1.349 . S
C653 H645 0.950 . S
C653 C651 1.327 . S
C654 C642 1.349 . S
C654 H648 0.950 . S
C654 C655 1.327 . S
C655 H649 0.957 . S
C655 C654 1.327 . S
C655 C659 1.429 1_556 S
C656 C639 1.574 . S
C656 H650 0.949 . S
C656 C660 1.368 . S
C657 C638 1.429 . S
C657 C651 1.429 . S
C657 C658 1.523 . S
C658 C639 1.368 . S
C658 C652 1.368 . S
C658 C657 1.523 . S
C659 C643 1.429 . S
C659 C655 1.429 1_554 S
C659 C660 1.523 . S
C660 C644 1.368 . S
C660 C656 1.368 . S
C660 C659 1.523 . S
H661 C636 0.950 . S
H662 C638 0.950 . S
H663 C639 0.949 . S
H664 C641 0.950 . S
H665 C643 0.950 . S
C666 C667 1.349 . S
C666 C668 1.327 . S
C666 H691 0.951 1_545 S
C667 C666 1.349 . S
C667 C683 1.349 . S
C668 C666 1.327 . S
C668 C687 1.429 . S
C668 H692 0.950 . S
C669 C686 1.574 . S
C669 C688 1.368 . S
C669 H693 0.949 . S
H670 C674 0.949 . S
C671 C672 1.349 . S
C671 C673 1.327 . S
C671 H694 0.950 . S
C672 C671 1.349 . S
C672 C684 1.349 . S
C673 C671 1.327 . S
C673 C689 1.429 . S
C673 H695 0.950 . S
C674 H670 0.949 . S
C674 C682 1.574 . S
C674 C690 1.368 . S
H675 C683 0.950 . S
H676 C681 0.950 . S
H677 C682 0.949 . S
H678 C684 0.950 . S
H679 C685 0.950 . S
H680 C686 0.949 . S
C681 H676 0.950 . S
C681 C683 1.327 . S
C681 C687 1.429 . S
C682 C674 1.574 . S
C682 H677 0.949 . S
C682 C688 1.368 . S
C683 C667 1.349 . S
C683 H675 0.950 . S
C683 C681 1.327 . S
C684 C672 1.349 . S
C684 H678 0.950 . S
C684 C685 1.327 . S
C685 H679 0.950 . S
C685 C684 1.327 . S
C685 C689 1.429 . S
C686 C669 1.574 . S
C686 H680 0.949 . S
C686 C690 1.368 . S
C687 C668 1.429 . S
C687 C681 1.429 . S
C687 C688 1.523 . S
C688 C669 1.368 . S
C688 C682 1.368 . S
C688 C687 1.523 . S
C689 C673 1.429 . S
C689 C685 1.429 . S
C689 C690 1.523 . S
C690 C674 1.368 . S
C690 C686 1.368 . S
C690 C689 1.523 . S
H691 C666 0.951 1_565 S
H692 C668 0.950 . S
H693 C669 0.949 . S
H694 C671 0.950 . S
H695 C673 0.950 . S
C696 C697 1.349 . S
C696 C698 1.327 . S
C696 H721 0.950 . S
C697 C696 1.349 . S
C697 C713 1.349 . S
C698 C696 1.327 . S
C698 C717 1.429 . S
C698 H722 0.950 . S
C699 C716 1.574 . S
C699 C718 1.368 . S
C699 H723 0.949 . S
H700 C704 0.949 . S
C701 C702 1.349 . S
C701 C703 1.327 . S
C701 H724 0.950 . S
C702 C701 1.349 . S
C702 C714 1.349 . S
C703 C701 1.327 . S
C703 C719 1.429 . S
C703 H725 0.950 . S
C704 H700 0.949 . S
C704 C712 1.574 . S
C704 C720 1.368 . S
H705 C713 0.950 . S
H706 C711 0.950 . S
H707 C712 0.949 . S
H708 C714 0.950 . S
H709 C715 0.950 . S
H710 C716 0.949 . S
C711 H706 0.950 . S
C711 C713 1.327 . S
C711 C717 1.429 . S
C712 C704 1.574 . S
C712 H707 0.949 . S
C712 C718 1.368 . S
C713 C697 1.349 . S
C713 H705 0.950 . S
C713 C711 1.327 . S
C714 C702 1.349 . S
C714 H708 0.950 . S
C714 C715 1.327 . S
C715 H709 0.950 . S
C715 C714 1.327 . S
C715 C719 1.429 . S
C716 C699 1.574 . S
C716 H710 0.949 . S
C716 C720 1.368 . S
C717 C698 1.429 . S
C717 C711 1.429 . S
C717 C718 1.523 . S
C718 C699 1.368 . S
C718 C712 1.368 . S
C718 C717 1.523 . S
C719 C703 1.429 . S
C719 C715 1.429 . S
C719 C720 1.523 . S
C720 C704 1.368 . S
C720 C716 1.368 . S
C720 C719 1.523 . S
H721 C696 0.950 . S
H722 C698 0.950 . S
H723 C699 0.949 . S
H724 C701 0.950 . S
H725 C703 0.950 . S
C726 C727 1.375 . S
C726 C728 1.322 1_545 S
C726 H751 0.929 1_545 S
C727 C726 1.375 . S
C727 C743 1.349 . S
C728 C726 1.322 1_565 S
C728 C747 1.429 1_565 S
C728 H752 0.950 . S
C729 C746 1.574 . S
C729 C748 1.368 . S
C729 H753 0.949 . S
H730 C734 0.949 . S
C731 C732 1.349 . S
C731 C733 1.327 . S
C731 H754 0.950 . S
C732 C731 1.349 . S
C732 C744 1.349 1_545 S
C733 C731 1.327 . S
C733 C749 1.429 . S
C733 H755 0.950 . S
C734 H730 0.949 . S
C734 C742 1.574 . S
C734 C750 1.368 1_565 S
H735 C743 0.950 . S
H736 C741 0.950 . S
H737 C742 0.949 . S
H738 C744 0.950 . S
H739 C745 0.950 . S
H740 C746 0.949 . S
C741 H736 0.950 . S
C741 C743 1.327 . S
C741 C747 1.429 . S
C742 C734 1.574 . S
C742 H737 0.949 . S
C742 C748 1.368 1_565 S
C743 C727 1.349 . S
C743 H735 0.950 . S
C743 C741 1.327 . S
C744 C732 1.349 1_565 S
C744 H738 0.950 . S
C744 C745 1.327 . S
C745 H739 0.950 . S
C745 C744 1.327 . S
C745 C749 1.429 1_565 S
C746 C729 1.574 . S
C746 H740 0.949 . S
C746 C750 1.368 . S
C747 C728 1.429 1_545 S
C747 C741 1.429 . S
C747 C748 1.523 . S
C748 C729 1.368 . S
C748 C742 1.368 1_545 S
C748 C747 1.523 . S
C749 C733 1.429 . S
C749 C745 1.429 1_545 S
C749 C750 1.523 . S
C750 C734 1.368 1_545 S
C750 C746 1.368 . S
C750 C749 1.523 . S
H751 C726 0.929 1_565 S
H752 C728 0.950 . S
H753 C729 0.949 . S
H754 C731 0.950 . S
H755 C733 0.950 . S
C756 C757 1.349 . S
C756 C758 1.327 . S
C756 H781 0.950 . S
C757 C756 1.349 . S
C757 C773 1.349 . S
C758 C756 1.327 . S
C758 C777 1.429 . S
C758 H782 0.950 . S
C759 C776 1.574 . S
C759 C778 1.368 . S
C759 H783 0.949 . S
H760 C764 0.949 . S
C761 C762 1.349 . S
C761 C763 1.321 . S
C761 H784 0.950 . S
C762 C761 1.349 . S
C762 C774 1.349 . S
C763 C761 1.321 . S
C763 C779 1.432 1_554 S
C763 H785 0.952 1_554 S
C764 H760 0.949 . S
C764 C772 1.574 . S
C764 C780 1.368 . S
H765 C773 0.950 . S
H766 C771 0.950 . S
H767 C772 0.949 . S
H768 C774 0.950 . S
H769 C775 0.950 . S
H770 C776 0.949 . S
C771 H766 0.950 . S
C771 C773 1.327 . S
C771 C777 1.429 . S
C772 C764 1.574 . S
C772 H767 0.949 . S
C772 C778 1.368 . S
C773 C757 1.349 . S
C773 H765 0.950 . S
C773 C771 1.327 . S
C774 C762 1.349 . S
C774 H768 0.950 . S
C774 C775 1.327 1_554 S
C775 H769 0.950 . S
C775 C774 1.327 1_556 S
C775 C779 1.429 . S
C776 C759 1.574 . S
C776 H770 0.949 . S
C776 C780 1.368 . S
C777 C758 1.429 . S
C777 C771 1.429 . S
C777 C778 1.523 . S
C778 C759 1.368 . S
C778 C772 1.368 . S
C778 C777 1.523 . S
C779 C763 1.432 1_556 S
C779 C775 1.429 . S
C779 C780 1.523 . S
C780 C764 1.368 . S
C780 C776 1.368 . S
C780 C779 1.523 . S
H781 C756 0.950 . S
H782 C758 0.950 . S
H783 C759 0.949 . S
H784 C761 0.950 . S
H785 C763 0.952 1_556 S
C786 C787 1.349 . S
C786 C788 1.327 . S
C786 H811 0.950 . S
C787 C786 1.349 . S
C787 C803 1.349 . S
C788 C786 1.327 . S
C788 C807 1.429 . S
C788 H812 0.950 . S
C789 C806 1.574 . S
C789 C808 1.368 . S
C789 H813 0.949 . S
H790 C794 0.949 . S
C791 C792 1.359 . S
C791 C793 1.327 . S
C791 H814 0.950 . S
C792 C791 1.359 . S
C792 C804 1.341 1_455 S
C793 C791 1.327 . S
C793 C809 1.429 . S
C793 H815 0.950 . S
C794 H790 0.949 . S
C794 C802 1.574 . S
C794 C810 1.368 . S
H795 C803 0.950 . S
H796 C801 0.950 . S
H797 C802 0.949 . S
H798 C804 0.950 . S
H799 C805 0.924 1_655 S
H800 C806 0.949 . S
C801 H796 0.950 . S
C801 C803 1.327 . S
C801 C807 1.429 . S
C802 C794 1.574 . S
C802 H797 0.949 . S
C802 C808 1.368 . S
C803 C787 1.349 . S
C803 H795 0.950 . S
C803 C801 1.327 . S
C804 C792 1.341 1_655 S
C804 H798 0.950 . S
C804 C805 1.323 1_655 S
C805 H799 0.924 1_455 S
C805 C804 1.323 1_455 S
C805 C809 1.449 . S
C806 C789 1.574 . S
C806 H800 0.949 . S
C806 C810 1.368 . S
C807 C788 1.429 . S
C807 C801 1.429 . S
C807 C808 1.523 . S
C808 C789 1.368 . S
C808 C802 1.368 . S
C808 C807 1.523 . S
C809 C793 1.429 . S
C809 C805 1.449 . S
C809 C810 1.523 . S
C810 C794 1.368 . S
C810 C806 1.368 . S
C810 C809 1.523 . S
H811 C786 0.950 . S
H812 C788 0.950 . S
H813 C789 0.949 . S
H814 C791 0.950 . S
H815 C793 0.950 . S
C277 C8 1.997 . S
C282 C265 2.034 . S
C307 C26 1.281 . S
C312 C193 1.265 . S
C337 C48 1.444 . S
C342 C229 1.458 . S
C367 C19 1.732 . S
C372 C241 1.789 . S
C402 C169 1.494 . S
C397 C36 1.480 . S
C432 C205 1.730 . S
C427 C59 1.668 . S
C457 C28 1.468 . S
C462 C121 1.491 . S
C487 C46 1.206 . S
C492 C133 1.214 . S
C517 C16 1.562 . S
C522 C61 1.576 . S
C552 C97 1.685 . S
C547 C39 1.631 . S
C582 C157 0.958 . S
C577 C56 0.957 . S
C607 C6 1.316 . S
C612 C85 1.288 . S
C642 C163 1.424 . S
C637 C9 1.400 . S
C667 C21 1.492 . S
C672 C91 1.496 . S
C697 C49 1.473 . S
C702 C127 1.482 . S
C732 C235 1.458 . S
C727 C29 1.455 . S
C762 C271 1.589 . S
C757 C41 1.572 . S
C787 C1 1.496 . S
C792 C199 1.502 . S
