# Generated by pormake.
# Topology pyr, (3,6)-cn, num edge types: 1
# Building blocks:
#     Node 0, Type 0, BuildingBlock: KAKCAD_clean_linker_0, # of connection points: 3
#     Node 1, Type 0, BuildingBlock: KAKCAD_clean_linker_0, # of connection points: 3
#     Node 2, Type 0, BuildingBlock: KAKCAD_clean_linker_0, # of connection points: 3
#     Node 3, Type 0, BuildingBlock: KAKCAD_clean_linker_0, # of connection points: 3
#     Node 4, Type 0, BuildingBlock: KAKCAD_clean_linker_0, # of connection points: 3
#     Node 5, Type 0, BuildingBlock: KAKCAD_clean_linker_0, # of connection points: 3
#     Node 6, Type 0, BuildingBlock: KAKCAD_clean_linker_0, # of connection points: 3
#     Node 7, Type 0, BuildingBlock: KAKCAD_clean_linker_0, # of connection points: 3
#     Node 8, Type 1, BuildingBlock: PAMTOO_clean_sbu_0, # of connection points: 6
#     Node 9, Type 1, BuildingBlock: PAMTOO_clean_sbu_0, # of connection points: 6
#     Node 10, Type 1, BuildingBlock: PAMTOO_clean_sbu_0, # of connection points: 6
#     Node 11, Type 1, BuildingBlock: PAMTOO_clean_sbu_0, # of connection points: 6
#     Edge 12, Type (0, 1), BuildingBlock: TEMPAE_clean_linker_10, # of connection points: 2
#     Edge 13, Type (0, 1), BuildingBlock: TEMPAE_clean_linker_10, # of connection points: 2
#     Edge 14, Type (0, 1), BuildingBlock: TEMPAE_clean_linker_10, # of connection points: 2
#     Edge 15, Type (0, 1), BuildingBlock: TEMPAE_clean_linker_10, # of connection points: 2
#     Edge 16, Type (0, 1), BuildingBlock: TEMPAE_clean_linker_10, # of connection points: 2
#     Edge 17, Type (0, 1), BuildingBlock: TEMPAE_clean_linker_10, # of connection points: 2
#     Edge 18, Type (0, 1), BuildingBlock: TEMPAE_clean_linker_10, # of connection points: 2
#     Edge 19, Type (0, 1), BuildingBlock: TEMPAE_clean_linker_10, # of connection points: 2
#     Edge 20, Type (0, 1), BuildingBlock: TEMPAE_clean_linker_10, # of connection points: 2
#     Edge 21, Type (0, 1), BuildingBlock: TEMPAE_clean_linker_10, # of connection points: 2
#     Edge 22, Type (0, 1), BuildingBlock: TEMPAE_clean_linker_10, # of connection points: 2
#     Edge 23, Type (0, 1), BuildingBlock: TEMPAE_clean_linker_10, # of connection points: 2
#     Edge 24, Type (0, 1), BuildingBlock: TEMPAE_clean_linker_10, # of connection points: 2
#     Edge 25, Type (0, 1), BuildingBlock: TEMPAE_clean_linker_10, # of connection points: 2
#     Edge 26, Type (0, 1), BuildingBlock: TEMPAE_clean_linker_10, # of connection points: 2
#     Edge 27, Type (0, 1), BuildingBlock: TEMPAE_clean_linker_10, # of connection points: 2
#     Edge 28, Type (0, 1), BuildingBlock: TEMPAE_clean_linker_10, # of connection points: 2
#     Edge 29, Type (0, 1), BuildingBlock: TEMPAE_clean_linker_10, # of connection points: 2
#     Edge 30, Type (0, 1), BuildingBlock: TEMPAE_clean_linker_10, # of connection points: 2
#     Edge 31, Type (0, 1), BuildingBlock: TEMPAE_clean_linker_10, # of connection points: 2
#     Edge 32, Type (0, 1), BuildingBlock: TEMPAE_clean_linker_10, # of connection points: 2
#     Edge 33, Type (0, 1), BuildingBlock: TEMPAE_clean_linker_10, # of connection points: 2
#     Edge 34, Type (0, 1), BuildingBlock: TEMPAE_clean_linker_10, # of connection points: 2
#     Edge 35, Type (0, 1), BuildingBlock: TEMPAE_clean_linker_10, # of connection points: 2
# Relax obj value: 0.089
# Max RMSD: 0.157
# Mean RMSD: 0.067
data_MOF--net-pyr--node1-PAMTOO_clean_sbu_0--node2-KAKCAD_clean_linker_0--edge1-TEMPAE_clean_linker_10
_symmetry_space_group_name_H-M    P1
_symmetry_Int_Tables_number       1
_symmetry_cell_setting            triclinic
loop_
_symmetry_equiv_pos_as_xyz
'x, y, z'
_cell_length_a     45.52322
_cell_length_b     48.091828
_cell_length_c     48.635768
_cell_angle_alpha  90.224066
_cell_angle_beta   89.996466
_cell_angle_gamma 102.1231
loop_
_atom_site_label
_atom_site_type_symbol
_atom_site_fract_x
_atom_site_fract_y
_atom_site_fract_z
_atom_type_partial_charge
C0 C 0.25917 0.22047 0.28545 0.0
C1 C 0.27686 0.21301 0.30668 0.0
C2 C 0.27257 0.23571 0.26284 0.0
C3 C 0.304 0.24384 0.26091 0.0
C4 C 0.32179 0.23671 0.28231 0.0
C5 C 0.3083 0.22156 0.30513 0.0
C6 C 0.31777 0.25862 0.23592 0.0
C7 C 0.30549 0.28016 0.22432 0.0
C8 C 0.31426 0.29092 0.19814 0.0
C9 C 0.33769 0.28161 0.18448 0.0
C10 C 0.35098 0.26037 0.19615 0.0
C11 C 0.34058 0.24896 0.22189 0.0
C12 C 0.37325 0.24766 0.18059 0.0
C13 C 0.37121 0.24424 0.15185 0.0
C14 C 0.39511 0.23644 0.19467 0.0
C15 C 0.41258 0.22022 0.18087 0.0
C16 C 0.40949 0.21553 0.15234 0.0
C17 C 0.29627 0.30923 0.18433 0.0
C18 C 0.26481 0.30257 0.18702 0.0
C19 C 0.30968 0.33313 0.16873 0.0
C20 C 0.2919 0.3505 0.15692 0.0
C21 C 0.26062 0.34427 0.16082 0.0
C22 C 0.24729 0.31996 0.17561 0.0
C23 C 0.38938 0.22876 0.13789 0.0
H24 H 0.23488 0.21435 0.28626 0.0
H25 H 0.25827 0.24053 0.24649 0.0
H26 H 0.34606 0.24278 0.28131 0.0
H27 H 0.32241 0.21591 0.32122 0.0
H28 H 0.28796 0.28774 0.23531 0.0
H29 H 0.34876 0.23121 0.23033 0.0
H30 H 0.34461 0.29005 0.16435 0.0
H31 H 0.35466 0.25236 0.14011 0.0
H32 H 0.39807 0.23927 0.21667 0.0
H33 H 0.42751 0.21038 0.19299 0.0
H34 H 0.2536 0.28377 0.19802 0.0
H35 H 0.33383 0.3387 0.16618 0.0
H36 H 0.38693 0.22652 0.11582 0.0
H37 H 0.22313 0.3143 0.17827 0.0
H38 H 0.30257 0.36909 0.14535 0.0
C39 C 0.20881 0.81579 0.80527 0.0
C40 C 0.24009 0.82562 0.80692 0.0
C41 C 0.19593 0.8007 0.78206 0.0
C42 C 0.21423 0.79484 0.76045 0.0
C43 C 0.24553 0.80425 0.76245 0.0
C44 C 0.2583 0.81953 0.7854 0.0
C45 C 0.20109 0.77995 0.73521 0.0
C46 C 0.17821 0.78923 0.721 0.0
C47 C 0.16831 0.77774 0.69508 0.0
C48 C 0.1821 0.75673 0.68349 0.0
C49 C 0.20559 0.74777 0.69733 0.0
C50 C 0.21398 0.75872 0.72362 0.0
C51 C 0.22383 0.72945 0.68363 0.0
C52 C 0.21066 0.70601 0.66715 0.0
C53 C 0.25522 0.73579 0.68704 0.0
C54 C 0.27288 0.71863 0.67527 0.0
C55 C 0.25978 0.69493 0.65936 0.0
C56 C 0.146 0.7901 0.67928 0.0
C57 C 0.12378 0.80113 0.69312 0.0
C58 C 0.14831 0.79333 0.65057 0.0
C59 C 0.13003 0.80844 0.63639 0.0
C60 C 0.10955 0.82151 0.6506 0.0
C61 C 0.10621 0.817 0.67911 0.0
C62 C 0.22857 0.68893 0.65496 0.0
H63 H 0.19433 0.82036 0.82161 0.0
H64 H 0.17174 0.79363 0.78097 0.0
H65 H 0.26015 0.80036 0.74593 0.0
H66 H 0.28249 0.82669 0.78629 0.0
H67 H 0.16957 0.80677 0.72949 0.0
H68 H 0.23157 0.7515 0.73479 0.0
H69 H 0.17548 0.74818 0.66327 0.0
H70 H 0.18657 0.70061 0.66408 0.0
H71 H 0.26633 0.75425 0.69871 0.0
H72 H 0.29699 0.72411 0.67838 0.0
H73 H 0.12059 0.79842 0.71508 0.0
H74 H 0.16513 0.78537 0.63901 0.0
H75 H 0.21807 0.67079 0.64257 0.0
H76 H 0.09098 0.82672 0.69104 0.0
H77 H 0.13269 0.81053 0.61434 0.0
C78 C 0.74511 0.4317 0.87709 0.0
C79 C 0.76293 0.41706 0.89275 0.0
C80 C 0.71949 0.41683 0.86303 0.0
C81 C 0.71137 0.38683 0.86382 0.0
C82 C 0.73016 0.37238 0.87877 0.0
C83 C 0.7552 0.38725 0.89329 0.0
C84 C 0.68327 0.37048 0.84991 0.0
C85 C 0.67203 0.38007 0.82543 0.0
C86 C 0.64569 0.36456 0.81245 0.0
C87 C 0.63141 0.33802 0.82402 0.0
C88 C 0.64256 0.3276 0.84828 0.0
C89 C 0.66765 0.34474 0.8613 0.0
C90 C 0.62892 0.29893 0.8606 0.0
C91 C 0.59767 0.28773 0.8607 0.0
C92 C 0.64752 0.28294 0.87376 0.0
C93 C 0.63543 0.25771 0.88776 0.0
C94 C 0.60428 0.24701 0.88865 0.0
C95 C 0.63364 0.37631 0.78683 0.0
C96 C 0.63676 0.40593 0.78323 0.0
C97 C 0.61932 0.35842 0.76554 0.0
C98 C 0.60891 0.36974 0.74156 0.0
C99 C 0.61266 0.39937 0.73786 0.0
C100 C 0.62666 0.4172 0.75922 0.0
C101 C 0.58554 0.26202 0.87441 0.0
H102 H 0.75056 0.45472 0.87632 0.0
H103 H 0.70574 0.42896 0.8521 0.0
H104 H 0.72568 0.34938 0.87931 0.0
H105 H 0.76879 0.37537 0.90481 0.0
H106 H 0.68428 0.39942 0.81606 0.0
H107 H 0.6749 0.33801 0.88091 0.0
H108 H 0.61166 0.32547 0.8142 0.0
H109 H 0.58247 0.29922 0.85096 0.0
H110 H 0.67173 0.29001 0.87349 0.0
H111 H 0.65061 0.24646 0.89792 0.0
H112 H 0.64682 0.42065 0.79917 0.0
H113 H 0.61665 0.33558 0.76703 0.0
H114 H 0.56141 0.25436 0.87462 0.0
H115 H 0.62948 0.44006 0.75758 0.0
H116 H 0.59849 0.35522 0.7256 0.0
C117 C 0.89997 0.61379 0.26594 0.0
C118 C 0.90656 0.62972 0.24163 0.0
C119 C 0.88966 0.62566 0.28961 0.0
C120 C 0.8859 0.65403 0.29 0.0
C121 C 0.89298 0.67017 0.26586 0.0
C122 C 0.9029 0.65814 0.242 0.0
C123 C 0.87382 0.66619 0.31523 0.0
C124 C 0.84922 0.64977 0.32964 0.0
C125 C 0.83782 0.66021 0.35363 0.0
C126 C 0.8513 0.68755 0.36313 0.0
C127 C 0.87538 0.70495 0.3491 0.0
C128 C 0.88659 0.69394 0.32509 0.0
C129 C 0.88834 0.73432 0.36028 0.0
C130 C 0.86944 0.75034 0.37303 0.0
C131 C 0.91949 0.74593 0.36017 0.0
C132 C 0.9313 0.77206 0.37341 0.0
C133 C 0.91233 0.7871 0.38736 0.0
C134 C 0.81146 0.64315 0.36888 0.0
C135 C 0.78552 0.629 0.35487 0.0
C136 C 0.81133 0.64246 0.39783 0.0
C137 C 0.78581 0.62874 0.41237 0.0
C138 C 0.75951 0.6153 0.39844 0.0
C139 C 0.75987 0.61536 0.36945 0.0
C140 C 0.88123 0.77605 0.38656 0.0
H141 H 0.90226 0.59184 0.26655 0.0
H142 H 0.88472 0.61255 0.30777 0.0
H143 H 0.89023 0.69199 0.2652 0.0
H144 H 0.90796 0.67123 0.22384 0.0
H145 H 0.8389 0.62872 0.3222 0.0
H146 H 0.90524 0.70686 0.31412 0.0
H147 H 0.84272 0.69539 0.38173 0.0
H148 H 0.84528 0.74287 0.37291 0.0
H149 H 0.93489 0.73437 0.35076 0.0
H150 H 0.9554 0.77999 0.37358 0.0
H151 H 0.78469 0.62921 0.33262 0.0
H152 H 0.83097 0.65284 0.40936 0.0
H153 H 0.86589 0.78732 0.39653 0.0
H154 H 0.74022 0.60494 0.35796 0.0
H155 H 0.78646 0.6294 0.43462 0.0
C156 C 0.72777 0.78042 0.73703 0.0
C157 C 0.73277 0.80973 0.73166 0.0
C158 C 0.71245 0.76923 0.76084 0.0
C159 C 0.70188 0.78719 0.77966 0.0
C160 C 0.70582 0.81628 0.77347 0.0
C161 C 0.72083 0.82732 0.74972 0.0
C162 C 0.68944 0.77668 0.80689 0.0
C163 C 0.70275 0.75785 0.82208 0.0
C164 C 0.69524 0.75215 0.84982 0.0
C165 C 0.67432 0.76582 0.86253 0.0
C166 C 0.66053 0.78455 0.84751 0.0
C167 C 0.66729 0.78871 0.81945 0.0
C168 C 0.64188 0.8024 0.86141 0.0
C169 C 0.62132 0.79145 0.88225 0.0
C170 C 0.64538 0.83122 0.85421 0.0
C171 C 0.62883 0.84862 0.86736 0.0
C172 C 0.6086 0.8379 0.88845 0.0
C173 C 0.71214 0.73446 0.86584 0.0
C174 C 0.71746 0.709 0.85462 0.0
C175 C 0.72578 0.74437 0.89094 0.0
C176 C 0.74573 0.72998 0.90372 0.0
C177 C 0.75235 0.70536 0.89168 0.0
C178 C 0.73728 0.69458 0.86743 0.0
C179 C 0.6048 0.80903 0.89562 0.0
H180 H 0.73671 0.76634 0.72344 0.0
H181 H 0.70953 0.74668 0.76483 0.0
H182 H 0.69854 0.83095 0.78756 0.0
H183 H 0.7238 0.84992 0.74588 0.0
H184 H 0.72063 0.74919 0.81294 0.0
H185 H 0.65626 0.80259 0.80759 0.0
H186 H 0.66971 0.7627 0.88428 0.0
H187 H 0.61802 0.76934 0.88823 0.0
H188 H 0.66144 0.84064 0.83869 0.0
H189 H 0.63205 0.87063 0.86105 0.0
H190 H 0.70696 0.70071 0.83545 0.0
H191 H 0.72237 0.7641 0.89991 0.0
H192 H 0.58957 0.80018 0.91197 0.0
H193 H 0.74141 0.67535 0.85794 0.0
H194 H 0.75713 0.73898 0.92226 0.0
C195 C 0.80895 0.21491 0.23812 0.0
C196 C 0.79791 0.23385 0.22106 0.0
C197 C 0.82111 0.22366 0.26378 0.0
C198 C 0.82291 0.25175 0.27297 0.0
C199 C 0.81322 0.27114 0.25527 0.0
C200 C 0.80061 0.2622 0.22963 0.0
C201 C 0.83205 0.25959 0.30187 0.0
C202 C 0.8534 0.24704 0.31506 0.0
C203 C 0.8577 0.24935 0.34365 0.0
C204 C 0.84205 0.26653 0.35888 0.0
C205 C 0.82166 0.28048 0.3458 0.0
C206 C 0.81669 0.27666 0.31738 0.0
C207 C 0.80312 0.29683 0.36178 0.0
C208 C 0.78872 0.28576 0.38615 0.0
C209 C 0.79743 0.32238 0.35129 0.0
C210 C 0.77662 0.33576 0.36403 0.0
C211 C 0.76103 0.32392 0.38757 0.0
C212 C 0.8761 0.2314 0.35761 0.0
C213 C 0.87421 0.20316 0.34886 0.0
C214 C 0.89481 0.24169 0.38002 0.0
C215 C 0.91105 0.22402 0.39345 0.0
C216 C 0.90883 0.19569 0.38477 0.0
C217 C 0.89046 0.18563 0.36213 0.0
C218 C 0.76788 0.2992 0.39894 0.0
H219 H 0.80659 0.19277 0.23234 0.0
H220 H 0.82756 0.20785 0.27695 0.0
H221 H 0.81465 0.29302 0.26149 0.0
H222 H 0.79233 0.27724 0.21679 0.0
H223 H 0.86597 0.23444 0.30314 0.0
H224 H 0.7993 0.28556 0.30772 0.0
H225 H 0.84492 0.26829 0.38097 0.0
H226 H 0.79237 0.26595 0.39458 0.0
H227 H 0.80853 0.33164 0.33277 0.0
H228 H 0.77224 0.35509 0.3551 0.0
H229 H 0.85961 0.19427 0.33202 0.0
H230 H 0.89687 0.26336 0.38719 0.0
H231 H 0.75608 0.28947 0.41696 0.0
H232 H 0.88849 0.16406 0.35469 0.0
H233 H 0.9248 0.23233 0.411 0.0
C234 C 0.25848 0.61788 0.18207 0.0
C235 C 0.25823 0.61855 0.15306 0.0
C236 C 0.28443 0.63028 0.19705 0.0
C237 C 0.31085 0.64389 0.18349 0.0
C238 C 0.31076 0.64392 0.15451 0.0
C239 C 0.28494 0.63152 0.13957 0.0
C240 C 0.33789 0.65943 0.19917 0.0
C241 C 0.34814 0.64814 0.22326 0.0
C242 C 0.37371 0.66297 0.23788 0.0
C243 C 0.38885 0.68985 0.22765 0.0
C244 C 0.37914 0.70137 0.20337 0.0
C245 C 0.35359 0.68599 0.1897 0.0
C246 C 0.39516 0.72934 0.19152 0.0
C247 C 0.4033 0.75401 0.20784 0.0
C248 C 0.40034 0.73193 0.16298 0.0
C249 C 0.41239 0.75835 0.151 0.0
C250 C 0.41968 0.78326 0.16708 0.0
C251 C 0.3847 0.65003 0.26334 0.0
C252 C 0.36444 0.63263 0.28129 0.0
C253 C 0.41557 0.65433 0.26978 0.0
C254 C 0.42572 0.64161 0.29302 0.0
C255 C 0.40546 0.62392 0.31077 0.0
C256 C 0.37459 0.61978 0.30441 0.0
C257 C 0.41521 0.78062 0.19577 0.0
H258 H 0.23856 0.60778 0.19327 0.0
H259 H 0.28351 0.6299 0.2193 0.0
H260 H 0.33072 0.65381 0.14322 0.0
H261 H 0.28576 0.63278 0.11736 0.0
H262 H 0.33663 0.62729 0.23008 0.0
H263 H 0.34542 0.69519 0.17167 0.0
H264 H 0.40829 0.70181 0.23842 0.0
H265 H 0.39951 0.75292 0.22983 0.0
H266 H 0.3946 0.71343 0.14972 0.0
H267 H 0.41514 0.75932 0.12889 0.0
H268 H 0.34047 0.62894 0.27765 0.0
H269 H 0.43215 0.6672 0.25659 0.0
H270 H 0.42083 0.79919 0.20894 0.0
H271 H 0.35804 0.60618 0.31708 0.0
H272 H 0.44962 0.6459 0.29712 0.0
C273 C 0.13816 0.25543 0.67631 0.0
C274 C 0.10697 0.24694 0.67196 0.0
C275 C 0.15062 0.28164 0.6887 0.0
C276 C 0.1324 0.30043 0.6972 0.0
C277 C 0.10111 0.29166 0.6937 0.0
C278 C 0.08859 0.26537 0.68116 0.0
C279 C 0.14645 0.32975 0.70759 0.0
C280 C 0.1721 0.34528 0.69427 0.0
C281 C 0.1859 0.37286 0.70272 0.0
C282 C 0.17349 0.38534 0.72498 0.0
C283 C 0.14821 0.3702 0.73967 0.0
C284 C 0.13475 0.34233 0.73036 0.0
C285 C 0.13653 0.3833 0.76486 0.0
C286 C 0.15581 0.40363 0.78125 0.0
C287 C 0.10614 0.37572 0.77303 0.0
C288 C 0.09561 0.38781 0.79656 0.0
C289 C 0.11486 0.40844 0.81271 0.0
C290 C 0.21367 0.38808 0.68826 0.0
C291 C 0.23762 0.37428 0.68367 0.0
C292 C 0.21608 0.41575 0.67788 0.0
C293 C 0.24149 0.42893 0.66268 0.0
C294 C 0.26536 0.415 0.65798 0.0
C295 C 0.26316 0.38761 0.66895 0.0
C296 C 0.14517 0.41616 0.80437 0.0
H297 H 0.15323 0.24217 0.66938 0.0
H298 H 0.17477 0.28739 0.69129 0.0
H299 H 0.08634 0.30554 0.69982 0.0
H300 H 0.06445 0.25954 0.67857 0.0
H301 H 0.18114 0.33608 0.67661 0.0
H302 H 0.11575 0.32992 0.74125 0.0
H303 H 0.18395 0.40685 0.73089 0.0
H304 H 0.1795 0.40991 0.77657 0.0
H305 H 0.09013 0.36055 0.76116 0.0
H306 H 0.07225 0.3806 0.80211 0.0
H307 H 0.23655 0.35302 0.69146 0.0
H308 H 0.19798 0.42689 0.68092 0.0
H309 H 0.16098 0.4322 0.81549 0.0
H310 H 0.28097 0.37617 0.66559 0.0
H311 H 0.24252 0.4501 0.65466 0.0
Dy312 Dy 0.04259 0.0202 0.51614 0.0
Dy313 Dy 0.9766 1.01189 0.54469 0.0
C314 C 0.03082 0.06409 0.5622 0.0
O315 O 0.04447 0.99799 0.5562 0.0
O316 O 0.99542 0.97482 0.55757 0.0
O317 O 0.09087 0.02977 0.51974 0.0
O318 O 0.06978 1.01587 0.48062 0.0
O319 O 0.96997 0.9844 0.50652 0.0
O320 O 0.01765 0.97655 0.5037 0.0
O321 O 0.98154 0.05151 0.52041 0.0
O322 O 0.01583 0.04299 0.48866 0.0
O323 O 0.92869 1.0087 0.54175 0.0
O324 O 0.94971 1.00625 0.58149 0.0
C325 C 0.0235 0.97675 0.56458 0.0
O326 O 0.04432 0.06116 0.53878 0.0
O327 O 1.00792 0.04439 0.57068 0.0
C328 C 0.11687 0.04725 0.4793 0.0
C329 C 0.1583 0.08811 0.44994 0.0
C330 C 0.14024 0.0966 0.47051 0.0
C331 C 0.11958 0.07631 0.48503 0.0
C332 C 0.13498 0.03871 0.45905 0.0
C333 C 0.15546 0.05892 0.44444 0.0
C334 C 0.09492 0.02549 0.49364 0.0
C335 C 0.98898 0.9693 0.49742 0.0
C336 C 0.99538 0.05689 0.49681 0.0
C337 C 0.90115 0.97901 0.5753 0.0
C338 C 0.85875 0.93166 0.59409 0.0
C339 C 0.88239 0.92791 0.57677 0.0
C340 C 0.90348 0.95145 0.56746 0.0
C341 C 0.87721 0.98291 0.59184 0.0
C342 C 0.85619 0.95946 0.60118 0.0
C343 C 0.92452 1.0037 0.56797 0.0
H344 H 0.14204 0.11889 0.47536 0.0
H345 H 0.10564 0.08329 0.50057 0.0
H346 H 0.13298 0.01636 0.45427 0.0
H347 H 0.16852 0.05166 0.42835 0.0
H348 H 0.88485 0.90679 0.57082 0.0
H349 H 0.92198 0.94816 0.5547 0.0
H350 H 0.87528 1.00407 0.59821 0.0
H351 H 0.83866 0.96313 0.61493 0.0
Dy352 Dy 0.47484 1.01513 1.01866 0.0
Dy353 Dy 0.54127 0.02338 0.0466 0.0
C354 C 0.48716 0.971 0.06405 0.0
O355 O 0.47357 0.03738 0.05895 0.0
O356 O 0.52264 0.06048 0.05999 0.0
O357 O 0.42661 1.00581 1.02273 0.0
O358 O 0.44725 0.01953 0.9835 0.0
O359 O 0.54761 0.05082 1.00855 0.0
O360 O 0.49989 0.05864 1.00613 0.0
O361 O 0.53601 0.98373 1.02202 0.0
O362 O 0.50091 0.99177 0.99087 0.0
O363 O 0.58932 0.02731 0.04348 0.0
O364 O 0.56812 0.02801 0.0834 0.0
C365 C 0.49465 0.05865 0.06722 0.0
O366 O 0.47305 0.97415 0.04104 0.0
O367 O 0.51034 0.99057 0.07237 0.0
C368 C 0.39999 0.98843 0.98248 0.0
C369 C 0.3582 0.94773 0.953 0.0
C370 C 0.37788 0.93911 0.97194 0.0
C371 C 0.39871 0.95933 0.98652 0.0
C372 C 0.38022 0.99711 0.96395 0.0
C373 C 0.35955 0.97697 0.94929 0.0
C374 C 0.42224 1.01013 0.99673 0.0
C375 C 0.5285 0.06587 0.99963 0.0
C376 C 0.52149 0.97795 0.99875 0.0
C377 C 0.61684 0.05524 0.07856 0.0
C378 C 0.6591 0.10097 0.10067 0.0
C379 C 0.6353 0.10609 0.08436 0.0
C380 C 0.61419 0.08331 0.07345 0.0
C381 C 0.64114 0.05012 0.09387 0.0
C382 C 0.66214 0.07278 0.10483 0.0
C383 C 0.59337 0.0311 0.06991 0.0
H384 H 0.37726 0.91676 0.97541 0.0
H385 H 0.41394 0.95228 1.00074 0.0
H386 H 0.3811 0.01952 0.9605 0.0
H387 H 0.34519 0.98437 0.93447 0.0
H388 H 0.63235 0.12758 0.08099 0.0
H389 H 0.59537 0.08754 0.06173 0.0
H390 H 0.64344 0.02854 0.09797 0.0
H391 H 0.6805 0.06826 0.117 0.0
Dy392 Dy 0.50765 0.48147 0.50736 0.0
Dy393 Dy 0.51266 0.5413 0.54038 0.0
C394 C 0.53691 0.48924 0.56774 0.0
O395 O 0.46783 0.47357 0.5357 0.0
O396 O 0.46408 0.51973 0.54309 0.0
O397 O 0.50292 0.43581 0.50732 0.0
O398 O 0.50836 0.45887 0.46898 0.0
O399 O 0.50012 0.54996 0.49699 0.0
O400 O 0.47826 0.50495 0.48297 0.0
O401 O 0.55987 0.54363 0.52573 0.0
O402 O 0.549 0.5105 0.49112 0.0
O403 O 0.51899 0.58714 0.54081 0.0
O404 O 0.50978 0.56358 0.5786 0.0
C405 C 0.45302 0.49231 0.54515 0.0
O406 O 0.53901 0.47905 0.54283 0.0
O407 O 0.52344 0.51057 0.57171 0.0
C408 C 0.53434 0.42212 0.47394 0.0
C409 C 0.58453 0.40003 0.45827 0.0
C410 C 0.58772 0.42281 0.47702 0.0
C411 C 0.56288 0.43379 0.48471 0.0
C412 C 0.53085 0.39925 0.4555 0.0
C413 C 0.55576 0.38825 0.44772 0.0
C414 C 0.50874 0.43486 0.48114 0.0
C415 C 0.4833 0.53272 0.47945 0.0
C416 C 0.56752 0.53169 0.50317 0.0
C417 C 0.48469 0.60044 0.57161 0.0
C418 C 0.43212 0.61932 0.5854 0.0
C419 C 0.43168 0.59923 0.5643 0.0
C420 C 0.45776 0.58993 0.55743 0.0
C421 C 0.48547 0.62092 0.59227 0.0
C422 C 0.45936 0.63044 0.59904 0.0
C423 C 0.51081 0.58781 0.56642 0.0
H424 H 0.60943 0.43215 0.48581 0.0
H425 H 0.56599 0.4516 0.4989 0.0
H426 H 0.509 0.39018 0.44683 0.0
H427 H 0.55261 0.37095 0.43296 0.0
H428 H 0.41111 0.59054 0.55327 0.0
H429 H 0.45674 0.57404 0.54142 0.0
H430 H 0.50601 0.62899 0.60359 0.0
H431 H 0.46024 0.64576 0.61556 0.0
Dy432 Dy 0.01023 0.5521 1.00835 0.0
Dy433 Dy 1.00498 0.49213 0.04066 0.0
C434 C 0.98117 0.54301 0.06876 0.0
O435 O 0.05743 0.55548 1.02376 0.0
O436 O 0.04694 0.52062 0.0566 0.0
O437 O 0.01458 0.59776 1.00892 0.0
O438 O 1.00718 0.57471 0.97053 0.0
O439 O 0.0357 0.48834 1.00527 0.0
O440 O 0.02603 0.52362 0.97724 0.0
O441 O 0.9675 0.48332 1.01006 0.0
O442 O 0.96186 0.52907 1.00456 0.0
O443 O 1.00032 0.44648 0.04156 0.0
O444 O 1.00494 0.4705 0.07951 0.0
C445 C 0.06529 0.54243 0.04547 0.0
O446 O 0.99965 0.56011 0.05248 0.0
O447 O 0.97428 0.51553 0.06349 0.0
C448 C 0.98156 0.61146 0.97705 0.0
C449 C 0.93037 0.6323 0.96229 0.0
C450 C 0.92835 0.61082 0.98215 0.0
C451 C 0.95371 0.6005 0.98945 0.0
C452 C 0.98387 0.63317 0.95758 0.0
C453 C 0.95848 0.6436 0.95029 0.0
C454 C 1.00743 0.59872 0.98306 0.0
C455 C 0.03695 0.50067 0.98107 0.0
C456 C 0.95208 0.50156 1.00093 0.0
C457 C 0.03357 0.43592 0.07467 0.0
C458 C 0.08693 0.41928 0.09003 0.0
C459 C 0.0876 0.44108 0.07077 0.0
C460 C 0.0612 0.44933 0.06322 0.0
C461 C 0.03257 0.41397 0.09366 0.0
C462 C 0.0591 0.40563 0.10127 0.0
C463 C 1.00657 0.4465 0.06771 0.0
H464 H 0.90713 0.60191 0.99198 0.0
H465 H 0.95151 0.58364 1.0045 0.0
H466 H 1.00514 0.64165 0.94763 0.0
H467 H 0.96067 0.65993 0.93471 0.0
H468 H 0.10856 0.45177 0.0615 0.0
H469 H 0.06241 0.4665 0.04864 0.0
H470 H 0.01146 0.40364 0.10289 0.0
H471 H 0.05794 0.38898 0.11641 0.0
C472 C 0.26993 0.20333 0.35711 0.0
C473 C 0.26226 0.19554 0.32983 0.0
C474 C 0.25497 0.1875 0.37906 0.0
C475 C 0.23212 0.16324 0.37345 0.0
C476 C 0.22479 0.155 0.34591 0.0
C477 C 0.2399 0.1713 0.32445 0.0
C478 C 0.26316 0.19697 0.4082 0.0
C479 C 0.20077 0.12908 0.33907 0.0
C480 C 0.20716 0.10458 0.4253 0.0
C481 C 0.17902 0.10945 0.43321 0.0
C482 C 0.22541 0.12271 0.40678 0.0
C483 C 0.21539 0.14645 0.39616 0.0
C484 C 0.18783 0.15242 0.40526 0.0
C485 C 0.16989 0.13376 0.42359 0.0
C486 C 0.25464 0.11562 0.39748 0.0
C487 C 0.17651 0.17767 0.39451 0.0
H488 H 0.2871 0.2222 0.36124 0.0
H489 H 0.23427 0.16505 0.30333 0.0
H490 H 0.24337 0.20229 0.41866 0.0
H491 H 0.26961 0.17945 0.41993 0.0
H492 H 0.28199 0.21586 0.40907 0.0
H493 H 0.19829 0.12526 0.31657 0.0
H494 H 0.2062 0.10995 0.34881 0.0
H495 H 0.17884 0.13167 0.34746 0.0
H496 H 0.21464 0.08615 0.43311 0.0
H497 H 0.14808 0.13756 0.42939 0.0
H498 H 0.27326 0.13455 0.39929 0.0
H499 H 0.25289 0.10928 0.37548 0.0
H500 H 0.26051 0.09799 0.40955 0.0
H501 H 0.19438 0.19725 0.39587 0.0
H502 H 0.15649 0.18119 0.40596 0.0
H503 H 0.17036 0.1742 0.3725 0.0
C504 C 0.27484 0.86827 0.82593 0.0
C505 C 0.254 0.84284 0.83058 0.0
C506 C 0.2897 0.88422 0.84785 0.0
C507 C 0.28374 0.87434 0.87508 0.0
C508 C 0.26229 0.84892 0.87997 0.0
C509 C 0.24748 0.83351 0.85758 0.0
C510 C 0.31215 0.91142 0.84181 0.0
C511 C 0.2556 0.83767 0.90872 0.0
C512 C 0.34733 0.9035 0.92418 0.0
C513 C 0.33745 0.92658 0.93595 0.0
C514 C 0.32927 0.88526 0.90545 0.0
C515 C 0.30079 0.89042 0.89815 0.0
C516 C 0.29008 0.91281 0.91095 0.0
C517 C 0.30849 0.93055 0.92981 0.0
C518 C 0.34137 0.86145 0.89235 0.0
C519 C 0.25985 0.91899 0.90365 0.0
H520 H 0.27957 0.87565 0.80504 0.0
H521 H 0.23148 0.81372 0.86112 0.0
H522 H 0.30613 0.92941 0.85329 0.0
H523 H 0.33483 0.90949 0.84879 0.0
H524 H 0.31331 0.91666 0.81955 0.0
H525 H 0.23733 0.81831 0.90912 0.0
H526 H 0.27612 0.83244 0.91782 0.0
H527 H 0.24907 0.85417 0.92201 0.0
H528 H 0.36976 0.90041 0.92859 0.0
H529 H 0.30048 0.94801 0.93926 0.0
H530 H 0.34635 0.86635 0.87035 0.0
H531 H 0.32437 0.84122 0.8932 0.0
H532 H 0.36227 0.85827 0.90251 0.0
H533 H 0.26035 0.92673 0.88215 0.0
H534 H 0.25359 0.93534 0.91736 0.0
H535 H 0.2421 0.89932 0.90482 0.0
C536 C 0.6197 0.43613 0.69969 0.0
C537 C 0.60216 0.41176 0.712 0.0
C538 C 0.61001 0.44837 0.67584 0.0
C539 C 0.58179 0.43633 0.66378 0.0
C540 C 0.56403 0.41164 0.67599 0.0
C541 C 0.57443 0.39964 0.69969 0.0
C542 C 0.63003 0.47438 0.66358 0.0
C543 C 0.53368 0.39812 0.66426 0.0
C544 C 0.5436 0.48436 0.6191 0.0
C545 C 0.54911 0.47601 0.59214 0.0
C546 C 0.55392 0.47164 0.64235 0.0
C547 C 0.57056 0.44999 0.63894 0.0
C548 C 0.57644 0.4416 0.61179 0.0
C549 C 0.5656 0.45453 0.58886 0.0
C550 C 0.5468 0.48131 0.67068 0.0
C551 C 0.59423 0.41888 0.60694 0.0
H552 H 0.64134 0.44558 0.7086 0.0
H553 H 0.56042 0.38105 0.70898 0.0
H554 H 0.63476 0.47034 0.64171 0.0
H555 H 0.61843 0.49249 0.66406 0.0
H556 H 0.65172 0.4807 0.67473 0.0
H557 H 0.52274 0.37876 0.67571 0.0
H558 H 0.51871 0.41359 0.66487 0.0
H559 H 0.53598 0.39229 0.6424 0.0
H560 H 0.53083 0.50076 0.62216 0.0
H561 H 0.5701 0.44775 0.56829 0.0
H562 H 0.56791 0.48964 0.68211 0.0
H563 H 0.53403 0.463 0.68247 0.0
H564 H 0.53343 0.49815 0.67 0.0
H565 H 0.61667 0.42517 0.61673 0.0
H566 H 0.59733 0.41493 0.58471 0.0
H567 H 0.58267 0.39868 0.61661 0.0
C568 C 0.93836 0.59938 0.21774 0.0
C569 C 0.91702 0.61665 0.21611 0.0
C570 C 0.94837 0.58697 0.19405 0.0
C571 C 0.93655 0.59141 0.1678 0.0
C572 C 0.91476 0.60858 0.16604 0.0
C573 C 0.9055 0.62109 0.19003 0.0
C574 C 0.97199 0.56938 0.1971 0.0
C575 C 0.90112 0.61369 0.13873 0.0
C576 C 0.98233 0.58276 0.10313 0.0
C577 C 0.96918 0.55516 0.09394 0.0
C578 C 0.97211 0.5946 0.127 0.0
C579 C 0.94762 0.57884 0.14218 0.0
C580 C 0.93399 0.55107 0.13288 0.0
C581 C 0.94505 0.53951 0.10914 0.0
C582 C 0.98781 0.62401 0.13613 0.0
C583 C 0.90758 0.53354 0.148 0.0
H584 H 0.94773 0.59596 0.23762 0.0
H585 H 0.88876 0.63404 0.1884 0.0
H586 H 0.96341 0.54761 0.18895 0.0
H587 H 0.99214 0.57891 0.18486 0.0
H588 H 0.97889 0.56777 0.21885 0.0
H589 H 0.88374 0.62669 0.14081 0.0
H590 H 0.9189 0.62477 0.12464 0.0
H591 H 0.89076 0.59307 0.12896 0.0
H592 H 1.00111 0.59512 0.09184 0.0
H593 H 0.93457 0.51825 0.10234 0.0
H594 H 0.99661 0.62318 0.15733 0.0
H595 H 0.97164 0.63833 0.13662 0.0
H596 H 1.00677 0.63341 0.1224 0.0
H597 H 0.91417 0.52971 0.16938 0.0
H598 H 0.89891 0.51268 0.13788 0.0
H599 H 0.88912 0.54534 0.14924 0.0
C600 C 0.45344 0.19138 0.14774 0.0
C601 C 0.42541 0.19528 0.13823 0.0
C602 C 0.46679 0.16998 0.13678 0.0
C603 C 0.45243 0.15277 0.115 0.0
C604 C 0.42507 0.15755 0.10424 0.0
C605 C 0.41163 0.1783 0.11629 0.0
C606 C 0.49568 0.16509 0.1492 0.0
C607 C 0.40949 0.14019 0.08044 0.0
C608 C 0.49718 0.11046 0.07179 0.0
C609 C 0.48594 0.08279 0.08121 0.0
C610 C 0.48662 0.13357 0.0827 0.0
C611 C 0.4652 0.12889 0.10421 0.0
C612 C 0.4548 0.10104 0.11455 0.0
C613 C 0.46483 0.07818 0.10247 0.0
C614 C 0.49732 0.1627 0.07034 0.0
C615 C 0.43266 0.09532 0.13802 0.0
H616 H 0.46484 0.20472 0.16413 0.0
H617 H 0.38977 0.18046 0.10895 0.0
H618 H 0.49199 0.14328 0.1578 0.0
H619 H 0.51325 0.16664 0.13316 0.0
H620 H 0.50423 0.18056 0.16584 0.0
H621 H 0.39022 0.14865 0.07253 0.0
H622 H 0.42555 0.13979 0.06335 0.0
H623 H 0.40104 0.1179 0.08704 0.0
H624 H 0.51317 0.11382 0.05497 0.0
H625 H 0.45623 0.05669 0.10964 0.0
H626 H 0.50701 0.17825 0.0865 0.0
H627 H 0.47796 0.17011 0.06126 0.0
H628 H 0.51446 0.1628 0.05406 0.0
H629 H 0.44069 0.10979 0.15552 0.0
H630 H 0.42907 0.073 0.14532 0.0
H631 H 0.41071 0.09955 0.13139 0.0
C632 C 0.10732 0.85831 0.61442 0.0
C633 C 0.09349 0.84143 0.63628 0.0
C634 C 0.09374 0.87876 0.60217 0.0
C635 C 0.06618 0.88338 0.61267 0.0
C636 C 0.05177 0.86626 0.63435 0.0
C637 C 0.06527 0.84512 0.64549 0.0
C638 C 0.10939 0.89603 0.57848 0.0
C639 C 0.02266 0.87098 0.64648 0.0
C640 C 0.05331 0.95768 0.59998 0.0
C641 C 0.03238 0.9528 0.57856 0.0
C642 C 0.06343 0.93501 0.61216 0.0
C643 C 0.0533 0.90706 0.60175 0.0
C644 C 0.03207 0.9021 0.58005 0.0
C645 C 0.02141 0.92504 0.56905 0.0
C646 C 0.08535 0.94102 0.63583 0.0
C647 C 0.02168 0.87287 0.56761 0.0
H648 H 0.12932 0.85631 0.6073 0.0
H649 H 0.05384 0.83185 0.66181 0.0
H650 H 0.09344 0.89621 0.56126 0.0
H651 H 0.11766 0.91839 0.58513 0.0
H652 H 0.1288 0.88764 0.57073 0.0
H653 H 0.01406 0.85555 0.66302 0.0
H654 H 0.0261 0.89282 0.65514 0.0
H655 H 1.00524 0.86922 0.63026 0.0
H656 H 0.06169 0.97925 0.60723 0.0
H657 H 1.00554 0.92147 0.55211 0.0
H658 H 0.10741 0.93689 0.6294 0.0
H659 H 0.07724 0.92663 0.65327 0.0
H660 H 0.08872 0.96338 0.64314 0.0
H661 H 0.04121 0.86551 0.55875 0.0
H662 H 1.0047 0.87255 0.55114 0.0
H663 H 0.0119 0.85739 0.58369 0.0
C664 C 0.81388 0.44991 0.89561 0.0
C665 C 0.7894 0.43249 0.9088 0.0
C666 C 0.84002 0.46258 0.91037 0.0
C667 C 0.84146 0.4584 0.93919 0.0
C668 C 0.81624 0.44169 0.95269 0.0
C669 C 0.79078 0.42864 0.93731 0.0
C670 C 0.86653 0.47956 0.89494 0.0
C671 C 0.81632 0.43715 0.98338 0.0
C672 C 0.91752 0.46316 0.97432 0.0
C673 C 0.92346 0.49073 0.98557 0.0
C674 C 0.89132 0.4527 0.9589 0.0
C675 C 0.86991 0.4699 0.95495 0.0
C676 C 0.87563 0.49771 0.96641 0.0
C677 C 0.90242 0.50789 0.98128 0.0
C678 C 0.88669 0.42321 0.9466 0.0
C679 C 0.85328 0.51664 0.96324 0.0
H680 H 0.81299 0.45276 0.87355 0.0
H681 H 0.77184 0.4153 0.94761 0.0
H682 H 0.87348 0.50111 0.90406 0.0
H683 H 0.88592 0.46903 0.89675 0.0
H684 H 0.86153 0.48172 0.87279 0.0
H685 H 0.79409 0.42574 0.99111 0.0
H686 H 0.83332 0.42459 0.98877 0.0
H687 H 0.82265 0.4579 0.99421 0.0
H688 H 0.93371 0.44979 0.97714 0.0
H689 H 0.90672 0.52922 0.98982 0.0
H690 H 0.88333 0.42419 0.92405 0.0
H691 H 0.86614 0.40953 0.95529 0.0
H692 H 0.906 0.41297 0.95053 0.0
H693 H 0.84912 0.51993 0.94114 0.0
H694 H 0.86105 0.53775 0.97317 0.0
H695 H 0.83147 0.5062 0.97247 0.0
C696 C 0.70323 0.60532 0.40544 0.0
C697 C 0.73173 0.60201 0.41418 0.0
C698 C 0.67706 0.59378 0.42049 0.0
C699 C 0.67917 0.57837 0.44496 0.0
C700 C 0.7078 0.57476 0.4538 0.0
C701 C 0.73362 0.58661 0.4384 0.0
C702 C 0.6471 0.59829 0.41028 0.0
C703 C 0.71117 0.5583 0.47956 0.0
C704 C 0.61419 0.57011 0.49646 0.0
C705 C 0.59719 0.54304 0.48981 0.0
C706 C 0.641 0.58173 0.48229 0.0
C707 C 0.65138 0.56585 0.46109 0.0
C708 C 0.63476 0.53818 0.45487 0.0
C709 C 0.60792 0.52723 0.46914 0.0
C710 C 0.65789 0.61131 0.4896 0.0
C711 C 0.64503 0.52026 0.43276 0.0
H712 H 0.70141 0.61749 0.38704 0.0
H713 H 0.75537 0.58354 0.44524 0.0
H714 H 0.63173 0.57745 0.40654 0.0
H715 H 0.6365 0.60957 0.42617 0.0
H716 H 0.64918 0.6108 0.39096 0.0
H717 H 0.73494 0.55741 0.48375 0.0
H718 H 0.70226 0.56822 0.4975 0.0
H719 H 0.69782 0.53625 0.47769 0.0
H720 H 0.60614 0.5826 0.51226 0.0
H721 H 0.59518 0.5062 0.4639 0.0
H722 H 0.65863 0.62545 0.47153 0.0
H723 H 0.68146 0.61093 0.49508 0.0
H724 H 0.64744 0.62061 0.50705 0.0
H725 H 0.64488 0.53081 0.41253 0.0
H726 H 0.63052 0.49862 0.43139 0.0
H727 H 0.66846 0.51818 0.43679 0.0
C728 C 0.22035 0.37144 0.16706 0.0
C729 C 0.24114 0.36253 0.14967 0.0
C730 C 0.19772 0.384 0.15644 0.0
C731 C 0.19581 0.38761 0.12769 0.0
C732 C 0.21802 0.38046 0.11018 0.0
C733 C 0.24058 0.36799 0.12145 0.0
C734 C 0.17468 0.39159 0.17584 0.0
C735 C 0.2168 0.38421 0.07944 0.0
C736 C 0.11648 0.3825 0.10154 0.0
C737 C 0.11526 0.4112 0.09858 0.0
C738 C 0.14291 0.37458 0.11018 0.0
C739 C 0.16877 0.39589 0.116 0.0
C740 C 0.16792 0.42489 0.11248 0.0
C741 C 0.14113 0.43221 0.10387 0.0
C742 C 0.14295 0.34339 0.11369 0.0
C743 C 0.19502 0.44819 0.11851 0.0
H744 H 0.22106 0.36743 0.18896 0.0
H745 H 0.25664 0.36098 0.10803 0.0
H746 H 0.17149 0.41343 0.17176 0.0
H747 H 0.15271 0.37684 0.17248 0.0
H748 H 0.18116 0.39023 0.19774 0.0
H749 H 0.23778 0.38133 0.0692 0.0
H750 H 0.19771 0.36836 0.07085 0.0
H751 H 0.21292 0.40562 0.07437 0.0
H752 H 0.09671 0.36619 0.09704 0.0
H753 H 0.14025 0.45446 0.10188 0.0
H754 H 0.1469 0.33894 0.1356 0.0
H755 H 0.1615 0.33767 0.10159 0.0
H756 H 0.12143 0.32946 0.10709 0.0
H757 H 0.20029 0.44844 0.14079 0.0
H758 H 0.19138 0.46952 0.11265 0.0
H759 H 0.21495 0.44412 0.10734 0.0
C760 C 0.60168 0.21782 0.93195 0.0
C761 C 0.59181 0.22062 0.90491 0.0
C762 C 0.59111 0.19295 0.94742 0.0
C763 C 0.57052 0.16976 0.93553 0.0
C764 C 0.56046 0.17247 0.9082 0.0
C765 C 0.57091 0.19789 0.8934 0.0
C766 C 0.60197 0.19155 0.97661 0.0
C767 C 0.53898 0.14827 0.89441 0.0
C768 C 0.56606 0.09609 0.96774 0.0
C769 C 0.53937 0.09227 0.98307 0.0
C770 C 0.57611 0.12083 0.95185 0.0
C771 C 0.55959 0.14281 0.95171 0.0
C772 C 0.53286 0.13921 0.96752 0.0
C773 C 0.52295 0.11398 0.98264 0.0
C774 C 0.60442 0.12337 0.93506 0.0
C775 C 0.51486 0.1622 0.96876 0.0
H776 H 0.61759 0.23532 0.94117 0.0
H777 H 0.56332 0.19971 0.87248 0.0
H778 H 0.58252 0.18689 0.99084 0.0
H779 H 0.6142 0.174 0.97861 0.0
H780 H 0.61712 0.21169 0.98323 0.0
H781 H 0.53357 0.15344 0.87301 0.0
H782 H 0.54887 0.12905 0.89401 0.0
H783 H 0.51778 0.14283 0.90631 0.0
H784 H 0.5789 0.07949 0.96781 0.0
H785 H 0.50249 0.1115 0.99463 0.0
H786 H 0.62151 0.14197 0.94219 0.0
H787 H 0.59964 0.12704 0.91315 0.0
H788 H 0.61413 0.10407 0.93648 0.0
H789 H 0.52925 0.18235 0.97627 0.0
H790 H 0.49502 0.15651 0.98249 0.0
H791 H 0.507 0.1663 0.94788 0.0
C792 C 0.94542 0.83636 0.39171 0.0
C793 C 0.92459 0.81379 0.40338 0.0
C794 C 0.95596 0.86194 0.4064 0.0
C795 C 0.94607 0.86494 0.43374 0.0
C796 C 0.92551 0.84194 0.44577 0.0
C797 C 0.91483 0.81691 0.43041 0.0
C798 C 0.97741 0.88596 0.39249 0.0
C799 C 0.91484 0.8437 0.47499 0.0
C800 C 0.99421 0.921 0.4805 0.0
C801 C 0.97791 0.94279 0.48095 0.0
C802 C 0.98406 0.89563 0.46549 0.0
C803 C 0.95722 0.892 0.44982 0.0
C804 C 0.94081 0.91406 0.44999 0.0
C805 C 0.95111 0.93894 0.46578 0.0
C806 C 1.00192 0.87253 0.46669 0.0
C807 C 0.91239 0.91145 0.43334 0.0
H808 H 0.95292 0.83427 0.3708 0.0
H809 H 0.89901 0.79951 0.43974 0.0
H810 H 0.96764 0.90524 0.3922 0.0
H811 H 0.99874 0.89138 0.40425 0.0
H812 H 0.98257 0.88058 0.37104 0.0
H813 H 0.89958 0.82371 0.48167 0.0
H814 H 0.93439 0.84834 0.48915 0.0
H815 H 0.9028 0.8614 0.47704 0.0
H816 H 0.01476 0.92352 0.49239 0.0
H817 H 0.93837 0.95562 0.46589 0.0
H818 H 0.00964 0.8682 0.44578 0.0
H819 H 0.98749 0.85251 0.47425 0.0
H820 H 0.02185 0.87827 0.48036 0.0
H821 H 0.91698 0.90754 0.41141 0.0
H822 H 0.90279 0.93082 0.43479 0.0
H823 H 0.89529 0.89298 0.44056 0.0
C824 C 0.29994 0.6674 0.66429 0.0
C825 C 0.27937 0.67716 0.64737 0.0
C826 C 0.32239 0.65493 0.65304 0.0
C827 C 0.32441 0.65239 0.62414 0.0
C828 C 0.30254 0.6606 0.60703 0.0
C829 C 0.2801 0.67286 0.61891 0.0
C830 C 0.34504 0.64611 0.67202 0.0
C831 C 0.30397 0.65815 0.57614 0.0
C832 C 0.40371 0.6566 0.59827 0.0
C833 C 0.40401 0.62789 0.59375 0.0
C834 C 0.37755 0.66489 0.60723 0.0
C835 C 0.35116 0.64391 0.61199 0.0
C836 C 0.35115 0.61492 0.60693 0.0
C837 C 0.3776 0.60725 0.5978 0.0
C838 C 0.37839 0.69606 0.61226 0.0
C839 C 0.32355 0.59195 0.612 0.0
H840 H 0.29911 0.67054 0.68635 0.0
H841 H 0.26424 0.68056 0.60586 0.0
H842 H 0.34777 0.6243 0.66694 0.0
H843 H 0.36725 0.66062 0.66928 0.0
H844 H 0.33847 0.64673 0.69398 0.0
H845 H 0.28336 0.66212 0.56603 0.0
H846 H 0.32357 0.67388 0.56833 0.0
H847 H 0.30717 0.63674 0.57004 0.0
H848 H 0.42399 0.67259 0.59481 0.0
H849 H 0.37787 0.58499 0.59457 0.0
H850 H 0.3747 0.69971 0.63441 0.0
H851 H 0.36005 0.70276 0.60071 0.0
H852 H 0.40014 0.70978 0.60606 0.0
H853 H 0.31809 0.59104 0.63426 0.0
H854 H 0.32666 0.57064 0.60529 0.0
H855 H 0.30394 0.5969 0.601 0.0
C856 C 0.74858 0.8103 0.68202 0.0
C857 C 0.7518 0.82261 0.70834 0.0
C858 C 0.76552 0.82369 0.65975 0.0
C859 C 0.7859 0.84996 0.66403 0.0
C860 C 0.78991 0.8619 0.69076 0.0
C861 C 0.77299 0.84799 0.71255 0.0
C862 C 0.76103 0.81019 0.6316 0.0
C863 C 0.81152 0.88982 0.69628 0.0
C864 C 0.84984 0.88458 0.61799 0.0
C865 C 0.83829 0.90695 0.60686 0.0
C866 C 0.83203 0.86401 0.63474 0.0
C867 C 0.80215 0.86614 0.64071 0.0
C868 C 0.78965 0.88723 0.62765 0.0
C869 C 0.80784 0.9073 0.61075 0.0
C870 C 0.84603 0.84155 0.64791 0.0
C871 C 0.75786 0.89021 0.63343 0.0
H872 H 0.73226 0.79066 0.6787 0.0
H873 H 0.77617 0.85719 0.733 0.0
H874 H 0.75004 0.82336 0.61793 0.0
H875 H 0.78302 0.80921 0.62223 0.0
H876 H 0.74688 0.78836 0.63226 0.0
H877 H 0.81239 0.89587 0.71838 0.0
H878 H 0.83449 0.88854 0.68957 0.0
H879 H 0.80473 0.90702 0.68429 0.0
H880 H 0.87335 0.88414 0.61515 0.0
H881 H 0.7986 0.92414 0.60165 0.0
H882 H 0.83008 0.82066 0.64799 0.0
H883 H 0.85175 0.84755 0.66962 0.0
H884 H 0.86693 0.83922 0.63718 0.0
H885 H 0.74212 0.86925 0.63217 0.0
H886 H 0.75027 0.90505 0.61892 0.0
H887 H 0.75656 0.89846 0.65465 0.0
C888 C 0.75163 0.22758 0.19222 0.0
C889 C 0.78065 0.22273 0.19611 0.0
C890 C 0.73213 0.21173 0.17283 0.0
C891 C 0.74203 0.19066 0.15704 0.0
C892 C 0.77224 0.18769 0.15905 0.0
C893 C 0.79119 0.20375 0.17864 0.0
C894 C 0.70014 0.21564 0.17121 0.0
C895 C 0.78377 0.16569 0.14237 0.0
C896 C 0.68616 0.12203 0.14275 0.0
C897 C 0.67969 0.12463 0.11484 0.0
C898 C 0.70598 0.14364 0.1567 0.0
C899 C 0.7198 0.16854 0.14237 0.0
C900 C 0.71297 0.17161 0.11429 0.0
C901 C 0.69284 0.14958 0.10083 0.0
C902 C 0.71238 0.13963 0.18676 0.0
C903 C 0.72732 0.19785 0.09842 0.0
H904 H 0.74335 0.24216 0.20577 0.0
H905 H 0.81379 0.20028 0.18139 0.0
H906 H 0.69241 0.21513 0.14955 0.0
H907 H 0.68522 0.19793 0.18216 0.0
H908 H 0.69754 0.236 0.18079 0.0
H909 H 0.80867 0.16914 0.14305 0.0
H910 H 0.77426 0.14422 0.15066 0.0
H911 H 0.77652 0.16594 0.12062 0.0
H912 H 0.67553 0.10301 0.15378 0.0
H913 H 0.68788 0.15159 0.07922 0.0
H914 H 0.70711 0.15741 0.19909 0.0
H915 H 0.73661 0.13987 0.18967 0.0
H916 H 0.69916 0.11931 0.195 0.0
H917 H 0.72369 0.21721 0.1092 0.0
H918 H 0.71829 0.19768 0.07718 0.0
H919 H 0.75195 0.19938 0.09723 0.0
C920 C 0.39928 0.60518 0.35996 0.0
C921 C 0.41637 0.60985 0.33559 0.0
C922 C 0.40911 0.59198 0.38318 0.0
C923 C 0.437 0.58322 0.38257 0.0
C924 C 0.45439 0.58784 0.35814 0.0
C925 C 0.44391 0.60086 0.33512 0.0
C926 C 0.38965 0.58762 0.40857 0.0
C927 C 0.4843 0.57911 0.35634 0.0
C928 C 0.47682 0.57498 0.45091 0.0
C929 C 0.47064 0.54532 0.45488 0.0
C930 C 0.46604 0.58742 0.42773 0.0
C931 C 0.44836 0.57002 0.40765 0.0
C932 C 0.44179 0.54008 0.41159 0.0
C933 C 0.45297 0.52815 0.43498 0.0
C934 C 0.47383 0.61935 0.42465 0.0
C935 C 0.42297 0.52057 0.39097 0.0
H936 H 0.37827 0.61228 0.36116 0.0
H937 H 0.4573 0.60367 0.31654 0.0
H938 H 0.38468 0.56483 0.41442 0.0
H939 H 0.40183 0.59974 0.42605 0.0
H940 H 0.36808 0.59453 0.40558 0.0
H941 H 0.49518 0.58398 0.33597 0.0
H942 H 0.49967 0.59026 0.37246 0.0
H943 H 0.4813 0.55596 0.36016 0.0
H944 H 0.49038 0.58868 0.46592 0.0
H945 H 0.44794 0.50527 0.43759 0.0
H946 H 0.45299 0.62779 0.42336 0.0
H947 H 0.48642 0.62509 0.40525 0.0
H948 H 0.48762 0.63002 0.44204 0.0
H949 H 0.40075 0.52634 0.38867 0.0
H950 H 0.41941 0.49786 0.39703 0.0
H951 H 0.43401 0.52314 0.37053 0.0
C952 C 0.1229 0.43203 0.86011 0.0
C953 C 0.10357 0.42184 0.83793 0.0
C954 C 0.11298 0.44524 0.88334 0.0
C955 C 0.08258 0.44781 0.88534 0.0
C956 C 0.06275 0.43714 0.86344 0.0
C957 C 0.07347 0.42477 0.84005 0.0
C958 C 0.13521 0.45663 0.90579 0.0
C959 C 0.03002 0.43877 0.86471 0.0
C960 C 0.05097 0.45852 0.95708 0.0
C961 C 0.0499 0.48753 0.95705 0.0
C962 C 0.06125 0.44536 0.93398 0.0
C963 C 0.07157 0.46161 0.91025 0.0
C964 C 0.07118 0.49106 0.91036 0.0
C965 C 0.06003 0.50351 0.93347 0.0
C966 C 0.06046 0.41384 0.93478 0.0
C967 C 0.08262 0.50952 0.88599 0.0
H968 H 0.14597 0.42953 0.8596 0.0
H969 H 0.05809 0.41773 0.82325 0.0
H970 H 0.1356 0.47951 0.90939 0.0
H971 H 0.12824 0.44535 0.92533 0.0
H972 H 0.15834 0.45421 0.90074 0.0
H973 H 0.01708 0.42831 0.84676 0.0
H974 H 0.01969 0.4285 0.88378 0.0
H975 H 0.02793 0.46133 0.86542 0.0
H976 H 0.04295 0.44579 0.97497 0.0
H977 H 0.05945 0.52592 0.93312 0.0
H978 H 0.08336 0.40988 0.93168 0.0
H979 H 0.04622 0.403 0.91776 0.0
H980 H 0.05151 0.40407 0.95455 0.0
H981 H 0.10605 0.50791 0.88123 0.0
H982 H 0.08209 0.53223 0.88964 0.0
H983 H 0.0688 0.50199 0.86759 0.0
C984 C 0.56215 0.84845 0.91064 0.0
C985 C 0.59251 0.85727 0.90339 0.0
C986 C 0.54707 0.86678 0.92489 0.0
C987 C 0.56275 0.89453 0.93197 0.0
C988 C 0.59326 0.90363 0.92439 0.0
C989 C 0.60777 0.88487 0.91037 0.0
C990 C 0.51457 0.85632 0.93278 0.0
C991 C 0.61085 0.93301 0.93167 0.0
C992 C 0.5239 0.95401 0.95307 0.0
C993 C 0.52869 0.95486 0.98155 0.0
C994 C 0.53372 0.93363 0.93661 0.0
C995 C 0.54824 0.91354 0.94906 0.0
C996 C 0.55155 0.9134 0.97797 0.0
C997 C 0.54189 0.93412 0.99381 0.0
C998 C 0.52993 0.93449 0.90582 0.0
C999 C 0.56656 0.89215 0.99213 0.0
H1000 H 0.55013 0.82727 0.90506 0.0
H1001 H 0.63136 0.89171 0.90531 0.0
H1002 H 0.51245 0.85575 0.95551 0.0
H1003 H 0.50083 0.87117 0.9251 0.0
H1004 H 0.50516 0.83472 0.92453 0.0
H1005 H 0.63383 0.93739 0.92277 0.0
H1006 H 0.5989 0.94939 0.92419 0.0
H1007 H 0.61278 0.9353 0.95434 0.0
H1008 H 0.51364 0.96996 0.94353 0.0
H1009 H 0.54516 0.93434 1.0159 0.0
H1010 H 0.52007 0.91296 0.89772 0.0
H1011 H 0.55226 0.94151 0.89603 0.0
H1012 H 0.51541 0.94929 0.89961 0.0
H1013 H 0.55645 0.87023 0.9852 0.0
H1014 H 0.56474 0.89314 1.01487 0.0
H1015 H 0.59073 0.8964 0.98656 0.0
C1016 C 0.95424 0.1855 0.40897 0.0
C1017 C 0.92459 0.1762 0.39974 0.0
C1018 C 0.96894 0.16717 0.4235 0.0
C1019 C 0.95358 0.13894 0.42891 0.0
C1020 C 0.92384 0.12933 0.41926 0.0
C1021 C 0.9097 0.14808 0.40492 0.0
C1022 C 1.00064 0.17816 0.43355 0.0
C1023 C 0.90661 0.09944 0.42473 0.0
C1024 C 0.99379 0.08093 0.45121 0.0
C1025 C 0.98744 0.07942 0.47943 0.0
C1026 C 0.98386 0.10094 0.4345 0.0
C1027 C 0.9675 0.11995 0.44644 0.0
C1028 C 0.96227 0.11932 0.47511 0.0
C1029 C 0.97219 0.09903 0.4912 0.0
C1030 C 0.98976 0.10096 0.40397 0.0
C1031 C 0.94516 0.13937 0.48871 0.0
H1032 H 0.966 0.20709 0.40475 0.0
H1033 H 0.88662 0.14084 0.39828 0.0
H1034 H 1.00104 0.17817 0.45636 0.0
H1035 H 0.01544 0.16396 0.42647 0.0
H1036 H 0.01007 0.20009 0.42627 0.0
H1037 H 0.88438 0.09475 0.41432 0.0
H1038 H 0.91972 0.08376 0.41765 0.0
H1039 H 0.90298 0.09635 0.44717 0.0
H1040 H 1.00561 0.06588 0.44201 0.0
H1041 H 0.96759 0.09833 0.51309 0.0
H1042 H 0.99968 0.1228 0.39686 0.0
H1043 H 0.96821 0.09381 0.39282 0.0
H1044 H 1.00511 0.08671 0.39827 0.0
H1045 H 0.95512 0.16168 0.48306 0.0
H1046 H 0.94504 0.1376 0.51148 0.0
H1047 H 0.92156 0.13465 0.48135 0.0
C1048 C 0.20186 0.60977 0.14599 0.0
C1049 C 0.23023 0.60643 0.13685 0.0
C1050 C 0.17558 0.59934 0.13054 0.0
C1051 C 0.17741 0.58513 0.10518 0.0
C1052 C 0.2059 0.58152 0.09591 0.0
C1053 C 0.23182 0.59213 0.11177 0.0
C1054 C 0.14577 0.60368 0.14135 0.0
C1055 C 0.20903 0.56636 0.06917 0.0
C1056 C 0.10573 0.53592 0.07864 0.0
C1057 C 0.09509 0.55295 0.05911 0.0
C1058 C 0.13261 0.54588 0.09329 0.0
C1059 C 0.14948 0.57376 0.08862 0.0
C1060 C 0.13923 0.59088 0.06853 0.0
C1061 C 0.11231 0.58027 0.05398 0.0
C1062 C 0.14268 0.52662 0.11413 0.0
C1063 C 0.15643 0.62068 0.0628 0.0
H1064 H 0.2002 0.62107 0.16505 0.0
H1065 H 0.2534 0.58896 0.10458 0.0
H1066 H 0.13537 0.61596 0.12628 0.0
H1067 H 0.13015 0.5828 0.14399 0.0
H1068 H 0.14802 0.61514 0.16136 0.0
H1069 H 0.23275 0.56558 0.06458 0.0
H1070 H 0.19561 0.54428 0.06997 0.0
H1071 H 0.20007 0.5772 0.05197 0.0
H1072 H 0.09289 0.51469 0.08271 0.0
H1073 H 0.10437 0.59368 0.03906 0.0
H1074 H 0.14379 0.53652 0.13485 0.0
H1075 H 0.1656 0.52369 0.10904 0.0
H1076 H 0.12736 0.50536 0.11503 0.0
H1077 H 0.15733 0.63388 0.08167 0.0
H1078 H 0.14611 0.63101 0.04602 0.0
H1079 H 0.17994 0.62033 0.05706 0.0
C1080 C 0.32141 0.42808 0.65059 0.0
C1081 C 0.29228 0.42854 0.64136 0.0
C1082 C 0.34694 0.43964 0.63472 0.0
C1083 C 0.34345 0.45156 0.6086 0.0
C1084 C 0.3141 0.45228 0.59924 0.0
C1085 C 0.28896 0.44103 0.61579 0.0
C1086 C 0.37771 0.4389 0.64588 0.0
C1087 C 0.30918 0.4643 0.5714 0.0
C1088 C 0.41182 0.50104 0.57662 0.0
C1089 C 0.42378 0.48234 0.55976 0.0
C1090 C 0.38562 0.49147 0.59233 0.0
C1091 C 0.37049 0.46254 0.5909 0.0
C1092 C 0.38191 0.44379 0.57322 0.0
C1093 C 0.40847 0.4538 0.55813 0.0
C1094 C 0.37462 0.51222 0.61107 0.0
C1095 C 0.3663 0.41294 0.57053 0.0
H1096 H 0.32425 0.41876 0.67042 0.0
H1097 H 0.26657 0.44124 0.60835 0.0
H1098 H 0.38885 0.42564 0.63233 0.0
H1099 H 0.39198 0.46066 0.64608 0.0
H1100 H 0.37675 0.43016 0.66705 0.0
H1101 H 0.28506 0.46372 0.56724 0.0
H1102 H 0.3218 0.48662 0.56991 0.0
H1103 H 0.31792 0.452 0.55511 0.0
H1104 H 0.42345 0.5231 0.57823 0.0
H1105 H 0.41733 0.43916 0.54512 0.0
H1106 H 0.37465 0.50491 0.63268 0.0
H1107 H 0.35113 0.51314 0.60583 0.0
H1108 H 0.38872 0.53404 0.60973 0.0
H1109 H 0.36698 0.40203 0.5905 0.0
H1110 H 0.37681 0.40155 0.55463 0.0
H1111 H 0.3423 0.41128 0.56515 0.0
C1112 C 0.79751 0.68399 0.88538 0.0
C1113 C 0.77657 0.69232 0.90311 0.0
C1114 C 0.82167 0.67328 0.89566 0.0
C1115 C 0.8251 0.6709 0.92441 0.0
C1116 C 0.80378 0.67876 0.94245 0.0
C1117 C 0.77977 0.68941 0.93158 0.0
C1118 C 0.84395 0.66517 0.87574 0.0
C1119 C 0.80664 0.67635 0.97323 0.0
C1120 C 0.87605 0.6227 0.94872 0.0
C1121 C 0.90307 0.6423 0.9536 0.0
C1122 C 0.8503 0.63173 0.93973 0.0
C1123 C 0.85161 0.66107 0.9355 0.0
C1124 C 0.87869 0.68099 0.94077 0.0
C1125 C 0.9041 0.67137 0.94973 0.0
C1126 C 0.82189 0.60982 0.93419 0.0
C1127 C 0.88094 0.71247 0.93657 0.0
H1128 H 0.79553 0.68663 0.86338 0.0
H1129 H 0.76352 0.69555 0.94538 0.0
H1130 H 0.86645 0.679 0.87911 0.0
H1131 H 0.84609 0.64293 0.87937 0.0
H1132 H 0.83737 0.66719 0.85396 0.0
H1133 H 0.78762 0.6824 0.98441 0.0
H1134 H 0.80767 0.65424 0.97886 0.0
H1135 H 0.82789 0.69032 0.98033 0.0
H1136 H 0.87521 0.60017 0.95132 0.0
H1137 H 0.92481 0.68663 0.95382 0.0
H1138 H 0.81601 0.61001 0.91206 0.0
H1139 H 0.8029 0.61509 0.94596 0.0
H1140 H 0.82417 0.58798 0.93975 0.0
H1141 H 0.87671 0.71667 0.91467 0.0
H1142 H 0.90334 0.72524 0.94244 0.0
H1143 H 0.86353 0.71985 0.94892 0.0
C1144 C 0.4512 0.81445 0.13141 0.0
C1145 C 0.43105 0.81172 0.15366 0.0
C1146 C 0.46076 0.84055 0.11759 0.0
C1147 C 0.45 0.86487 0.12601 0.0
C1148 C 0.43004 0.86243 0.14871 0.0
C1149 C 0.42091 0.83605 0.16224 0.0
C1150 C 0.48221 0.84201 0.09372 0.0
C1151 C 0.4178 0.8876 0.1584 0.0
C1152 C 0.49362 0.93857 0.10357 0.0
C1153 C 0.47719 0.94431 0.08055 0.0
C1154 C 0.48498 0.91306 0.11859 0.0
C1155 C 0.45912 0.89258 0.11066 0.0
C1156 C 0.44226 0.8984 0.08764 0.0
C1157 C 0.45148 0.92399 0.07291 0.0
C1158 C 0.50379 0.90786 0.14282 0.0
C1159 C 0.4145 0.87742 0.07838 0.0
H1160 H 0.45963 0.79607 0.12474 0.0
H1161 H 0.4051 0.83433 0.17911 0.0
H1162 H 0.47149 0.84783 0.07471 0.0
H1163 H 0.50259 0.85881 0.09749 0.0
H1164 H 0.4892 0.82151 0.09012 0.0
H1165 H 0.40322 0.88259 0.17681 0.0
H1166 H 0.43654 0.90568 0.16343 0.0
H1167 H 0.40453 0.89472 0.1417 0.0
H1168 H 0.51355 0.95391 0.10973 0.0
H1169 H 0.43848 0.928 0.05525 0.0
H1170 H 0.51276 0.88842 0.13916 0.0
H1171 H 0.48971 0.90413 0.16161 0.0
H1172 H 0.52294 0.92597 0.14671 0.0
H1173 H 0.42052 0.85702 0.07248 0.0
H1174 H 0.40337 0.88533 0.06058 0.0
H1175 H 0.39816 0.87285 0.09554 0.0
C1176 C 0.10592 0.19501 0.66156 0.0
C1177 C 0.09406 0.21941 0.65725 0.0
C1178 C 0.09524 0.16953 0.64685 0.0
C1179 C 0.07194 0.16806 0.6272 0.0
C1180 C 0.05948 0.1924 0.62306 0.0
C1181 C 0.07062 0.21764 0.63805 0.0
C1182 C 0.10919 0.14422 0.65214 0.0
C1183 C 0.0347 0.19197 0.60235 0.0
C1184 C 0.06513 0.1121 0.56985 0.0
C1185 C 0.04137 0.09054 0.57907 0.0
C1186 C 0.07514 0.13729 0.58517 0.0
C1187 C 0.0612 0.14132 0.61054 0.0
C1188 C 0.03723 0.11966 0.62 0.0
C1189 C 0.02763 0.09465 0.60422 0.0
C1190 C 0.10072 0.15966 0.57415 0.0
C1191 C 0.02166 0.1229 0.64686 0.0
H1192 H 0.12366 0.19576 0.67657 0.0
H1193 H 0.06143 0.23629 0.63415 0.0
H1194 H 0.09161 0.12563 0.65828 0.0
H1195 H 0.11965 0.13827 0.63299 0.0
H1196 H 0.12661 0.14849 0.66849 0.0
H1197 H 0.02659 0.2122 0.60219 0.0
H1198 H 0.04286 0.18817 0.58146 0.0
H1199 H 0.01545 0.17425 0.60689 0.0
H1200 H 0.07599 0.10939 0.55048 0.0
H1201 H 0.00925 0.07831 0.61166 0.0
H1202 H 0.11961 0.1635 0.58904 0.0
H1203 H 0.09335 0.18007 0.57156 0.0
H1204 H 0.10911 0.15347 0.55406 0.0
H1205 H 0.03816 0.12569 0.66396 0.0
H1206 H 1.00337 0.10425 0.6514 0.0
H1207 H 0.01201 0.14224 0.64632 0.0
C1208 C 0.73311 0.33933 0.42749 0.0
C1209 C 0.73628 0.33623 0.39902 0.0
C1210 C 0.70912 0.35009 0.43834 0.0
C1211 C 0.68772 0.3577 0.42028 0.0
C1212 C 0.6909 0.35472 0.39154 0.0
C1213 C 0.71514 0.34407 0.38128 0.0
C1214 C 0.70657 0.35321 0.46909 0.0
C1215 C 0.66844 0.36241 0.37162 0.0
C1216 C 0.60951 0.35976 0.44628 0.0
C1217 C 0.61124 0.38907 0.44936 0.0
C1218 C 0.63439 0.34923 0.43729 0.0
C1219 C 0.66171 0.36846 0.43132 0.0
C1220 C 0.66375 0.39804 0.43478 0.0
C1221 C 0.63848 0.40799 0.44366 0.0
C1222 C 0.63133 0.31753 0.4338 0.0
C1223 C 0.69248 0.41923 0.4286 0.0
H1224 H 0.74951 0.33348 0.44126 0.0
H1225 H 0.71717 0.34126 0.35928 0.0
H1226 H 0.70635 0.37562 0.47444 0.0
H1227 H 0.68506 0.33997 0.47642 0.0
H1228 H 0.72535 0.34681 0.48029 0.0
H1229 H 0.67439 0.35921 0.34986 0.0
H1230 H 0.64578 0.34925 0.37572 0.0
H1231 H 0.667 0.38498 0.37451 0.0
H1232 H 0.58868 0.34499 0.45103 0.0
H1233 H 0.6399 0.43069 0.4456 0.0
H1234 H 0.64859 0.31013 0.44627 0.0
H1235 H 0.63524 0.3125 0.412 0.0
H1236 H 0.60879 0.30539 0.44 0.0
H1237 H 0.71139 0.41392 0.44043 0.0
H1238 H 0.69082 0.44139 0.43366 0.0
H1239 H 0.69805 0.41815 0.40647 0.0
loop_
_geom_bond_atom_site_label_1
_geom_bond_atom_site_label_2
_geom_bond_distance
_geom_bond_site_symmetry_2
_ccdc_geom_bond_type
C0 C1 1.386 . S
C0 C2 1.397 . S
C0 H24 0.931 . S
C1 C0 1.386 . S
C1 C5 1.397 . S
C2 C0 1.397 . S
C2 C3 1.384 . S
C2 H25 0.930 . S
C3 C2 1.384 . S
C3 C4 1.377 . S
C3 C6 1.481 . S
C4 C3 1.377 . S
C4 C5 1.389 . S
C4 H26 0.929 . S
C5 C1 1.397 . S
C5 C4 1.389 . S
C5 H27 0.931 . S
C6 C3 1.481 . S
C6 C7 1.387 . S
C6 C11 1.390 . S
C7 C6 1.387 . S
C7 C8 1.401 . S
C7 H28 0.930 . S
C8 C7 1.401 . S
C8 C9 1.376 . S
C8 C17 1.511 . S
C9 C8 1.376 . S
C9 C10 1.392 . S
C9 H30 0.931 . S
C10 C9 1.392 . S
C10 C11 1.361 . S
C10 C12 1.500 . S
C11 C6 1.390 . S
C11 C10 1.361 . S
C11 H29 0.931 . S
C12 C10 1.500 . S
C12 C13 1.371 . S
C12 C14 1.365 . S
C13 C12 1.371 . S
C13 C23 1.386 . S
C13 H31 0.931 . S
C14 C12 1.365 . S
C14 C15 1.409 . S
C14 H32 0.929 . S
C15 C14 1.409 . S
C15 C16 1.380 . S
C15 H33 0.930 . S
C16 C15 1.380 . S
C16 C23 1.357 . S
C17 C8 1.511 . S
C17 C18 1.341 . S
C17 C19 1.371 . S
C18 C17 1.341 . S
C18 C22 1.394 . S
C18 H34 0.930 . S
C19 C17 1.371 . S
C19 C20 1.392 . S
C19 H35 0.931 . S
C20 C19 1.392 . S
C20 C21 1.331 . S
C20 H38 0.932 . S
C21 C20 1.331 . S
C21 C22 1.336 . S
C22 C18 1.394 . S
C22 C21 1.336 . S
C22 H37 0.929 . S
C23 C13 1.386 . S
C23 C16 1.357 . S
C23 H36 0.928 . S
H24 C0 0.931 . S
H25 C2 0.930 . S
H26 C4 0.929 . S
H27 C5 0.931 . S
H28 C7 0.930 . S
H29 C11 0.931 . S
H30 C9 0.931 . S
H31 C13 0.931 . S
H32 C14 0.929 . S
H33 C15 0.930 . S
H34 C18 0.930 . S
H35 C19 0.931 . S
H36 C23 0.928 . S
H37 C22 0.929 . S
H38 C20 0.932 . S
C39 C40 1.386 . S
C39 C41 1.397 . S
C39 H63 0.931 . S
C40 C39 1.386 . S
C40 C44 1.397 . S
C41 C39 1.397 . S
C41 C42 1.384 . S
C41 H64 0.930 . S
C42 C41 1.384 . S
C42 C43 1.377 . S
C42 C45 1.481 . S
C43 C42 1.377 . S
C43 C44 1.389 . S
C43 H65 0.929 . S
C44 C40 1.397 . S
C44 C43 1.389 . S
C44 H66 0.931 . S
C45 C42 1.481 . S
C45 C46 1.387 . S
C45 C50 1.390 . S
C46 C45 1.387 . S
C46 C47 1.401 . S
C46 H67 0.930 . S
C47 C46 1.401 . S
C47 C48 1.376 . S
C47 C56 1.511 . S
C48 C47 1.376 . S
C48 C49 1.392 . S
C48 H69 0.931 . S
C49 C48 1.392 . S
C49 C50 1.361 . S
C49 C51 1.500 . S
C50 C45 1.390 . S
C50 C49 1.361 . S
C50 H68 0.931 . S
C51 C49 1.500 . S
C51 C52 1.371 . S
C51 C53 1.365 . S
C52 C51 1.371 . S
C52 C62 1.386 . S
C52 H70 0.931 . S
C53 C51 1.365 . S
C53 C54 1.409 . S
C53 H71 0.929 . S
C54 C53 1.409 . S
C54 C55 1.380 . S
C54 H72 0.930 . S
C55 C54 1.380 . S
C55 C62 1.357 . S
C56 C47 1.511 . S
C56 C57 1.341 . S
C56 C58 1.371 . S
C57 C56 1.341 . S
C57 C61 1.394 . S
C57 H73 0.930 . S
C58 C56 1.371 . S
C58 C59 1.392 . S
C58 H74 0.931 . S
C59 C58 1.392 . S
C59 C60 1.331 . S
C59 H77 0.932 . S
C60 C59 1.331 . S
C60 C61 1.336 . S
C61 C57 1.394 . S
C61 C60 1.336 . S
C61 H76 0.929 . S
C62 C52 1.386 . S
C62 C55 1.357 . S
C62 H75 0.928 . S
H63 C39 0.931 . S
H64 C41 0.930 . S
H65 C43 0.929 . S
H66 C44 0.931 . S
H67 C46 0.930 . S
H68 C50 0.931 . S
H69 C48 0.931 . S
H70 C52 0.931 . S
H71 C53 0.929 . S
H72 C54 0.930 . S
H73 C57 0.930 . S
H74 C58 0.931 . S
H75 C62 0.928 . S
H76 C61 0.929 . S
H77 C59 0.932 . S
C78 C79 1.386 . S
C78 C80 1.397 . S
C78 H102 0.931 . S
C79 C78 1.386 . S
C79 C83 1.397 . S
C80 C78 1.397 . S
C80 C81 1.384 . S
C80 H103 0.930 . S
C81 C80 1.384 . S
C81 C82 1.377 . S
C81 C84 1.481 . S
C82 C81 1.377 . S
C82 C83 1.389 . S
C82 H104 0.929 . S
C83 C79 1.397 . S
C83 C82 1.389 . S
C83 H105 0.931 . S
C84 C81 1.481 . S
C84 C85 1.387 . S
C84 C89 1.390 . S
C85 C84 1.387 . S
C85 C86 1.401 . S
C85 H106 0.930 . S
C86 C85 1.401 . S
C86 C87 1.376 . S
C86 C95 1.511 . S
C87 C86 1.376 . S
C87 C88 1.392 . S
C87 H108 0.931 . S
C88 C87 1.392 . S
C88 C89 1.361 . S
C88 C90 1.500 . S
C89 C84 1.390 . S
C89 C88 1.361 . S
C89 H107 0.931 . S
C90 C88 1.500 . S
C90 C91 1.371 . S
C90 C92 1.365 . S
C91 C90 1.371 . S
C91 C101 1.386 . S
C91 H109 0.931 . S
C92 C90 1.365 . S
C92 C93 1.409 . S
C92 H110 0.929 . S
C93 C92 1.409 . S
C93 C94 1.380 . S
C93 H111 0.930 . S
C94 C93 1.380 . S
C94 C101 1.357 . S
C95 C86 1.511 . S
C95 C96 1.341 . S
C95 C97 1.371 . S
C96 C95 1.341 . S
C96 C100 1.394 . S
C96 H112 0.930 . S
C97 C95 1.371 . S
C97 C98 1.392 . S
C97 H113 0.931 . S
C98 C97 1.392 . S
C98 C99 1.331 . S
C98 H116 0.932 . S
C99 C98 1.331 . S
C99 C100 1.336 . S
C100 C96 1.394 . S
C100 C99 1.336 . S
C100 H115 0.929 . S
C101 C91 1.386 . S
C101 C94 1.357 . S
C101 H114 0.928 . S
H102 C78 0.931 . S
H103 C80 0.930 . S
H104 C82 0.929 . S
H105 C83 0.931 . S
H106 C85 0.930 . S
H107 C89 0.931 . S
H108 C87 0.931 . S
H109 C91 0.931 . S
H110 C92 0.929 . S
H111 C93 0.930 . S
H112 C96 0.930 . S
H113 C97 0.931 . S
H114 C101 0.928 . S
H115 C100 0.929 . S
H116 C98 0.932 . S
C117 C118 1.386 . S
C117 C119 1.397 . S
C117 H141 0.931 . S
C118 C117 1.386 . S
C118 C122 1.397 . S
C119 C117 1.397 . S
C119 C120 1.384 . S
C119 H142 0.930 . S
C120 C119 1.384 . S
C120 C121 1.377 . S
C120 C123 1.481 . S
C121 C120 1.377 . S
C121 C122 1.389 . S
C121 H143 0.929 . S
C122 C118 1.397 . S
C122 C121 1.389 . S
C122 H144 0.931 . S
C123 C120 1.481 . S
C123 C124 1.387 . S
C123 C128 1.390 . S
C124 C123 1.387 . S
C124 C125 1.401 . S
C124 H145 0.930 . S
C125 C124 1.401 . S
C125 C126 1.376 . S
C125 C134 1.511 . S
C126 C125 1.376 . S
C126 C127 1.392 . S
C126 H147 0.931 . S
C127 C126 1.392 . S
C127 C128 1.361 . S
C127 C129 1.500 . S
C128 C123 1.390 . S
C128 C127 1.361 . S
C128 H146 0.931 . S
C129 C127 1.500 . S
C129 C130 1.371 . S
C129 C131 1.365 . S
C130 C129 1.371 . S
C130 C140 1.386 . S
C130 H148 0.931 . S
C131 C129 1.365 . S
C131 C132 1.409 . S
C131 H149 0.929 . S
C132 C131 1.409 . S
C132 C133 1.380 . S
C132 H150 0.930 . S
C133 C132 1.380 . S
C133 C140 1.357 . S
C134 C125 1.511 . S
C134 C135 1.341 . S
C134 C136 1.371 . S
C135 C134 1.341 . S
C135 C139 1.394 . S
C135 H151 0.930 . S
C136 C134 1.371 . S
C136 C137 1.392 . S
C136 H152 0.931 . S
C137 C136 1.392 . S
C137 C138 1.331 . S
C137 H155 0.932 . S
C138 C137 1.331 . S
C138 C139 1.336 . S
C139 C135 1.394 . S
C139 C138 1.336 . S
C139 H154 0.929 . S
C140 C130 1.386 . S
C140 C133 1.357 . S
C140 H153 0.928 . S
H141 C117 0.931 . S
H142 C119 0.930 . S
H143 C121 0.929 . S
H144 C122 0.931 . S
H145 C124 0.930 . S
H146 C128 0.931 . S
H147 C126 0.931 . S
H148 C130 0.931 . S
H149 C131 0.929 . S
H150 C132 0.930 . S
H151 C135 0.930 . S
H152 C136 0.931 . S
H153 C140 0.928 . S
H154 C139 0.929 . S
H155 C137 0.932 . S
C156 C157 1.386 . S
C156 C158 1.397 . S
C156 H180 0.931 . S
C157 C156 1.386 . S
C157 C161 1.397 . S
C158 C156 1.397 . S
C158 C159 1.384 . S
C158 H181 0.930 . S
C159 C158 1.384 . S
C159 C160 1.377 . S
C159 C162 1.481 . S
C160 C159 1.377 . S
C160 C161 1.389 . S
C160 H182 0.929 . S
C161 C157 1.397 . S
C161 C160 1.389 . S
C161 H183 0.931 . S
C162 C159 1.481 . S
C162 C163 1.387 . S
C162 C167 1.390 . S
C163 C162 1.387 . S
C163 C164 1.401 . S
C163 H184 0.930 . S
C164 C163 1.401 . S
C164 C165 1.376 . S
C164 C173 1.511 . S
C165 C164 1.376 . S
C165 C166 1.392 . S
C165 H186 0.931 . S
C166 C165 1.392 . S
C166 C167 1.361 . S
C166 C168 1.500 . S
C167 C162 1.390 . S
C167 C166 1.361 . S
C167 H185 0.931 . S
C168 C166 1.500 . S
C168 C169 1.371 . S
C168 C170 1.365 . S
C169 C168 1.371 . S
C169 C179 1.386 . S
C169 H187 0.931 . S
C170 C168 1.365 . S
C170 C171 1.409 . S
C170 H188 0.929 . S
C171 C170 1.409 . S
C171 C172 1.380 . S
C171 H189 0.930 . S
C172 C171 1.380 . S
C172 C179 1.357 . S
C173 C164 1.511 . S
C173 C174 1.341 . S
C173 C175 1.371 . S
C174 C173 1.341 . S
C174 C178 1.394 . S
C174 H190 0.930 . S
C175 C173 1.371 . S
C175 C176 1.392 . S
C175 H191 0.931 . S
C176 C175 1.392 . S
C176 C177 1.331 . S
C176 H194 0.932 . S
C177 C176 1.331 . S
C177 C178 1.336 . S
C178 C174 1.394 . S
C178 C177 1.336 . S
C178 H193 0.929 . S
C179 C169 1.386 . S
C179 C172 1.357 . S
C179 H192 0.928 . S
H180 C156 0.931 . S
H181 C158 0.930 . S
H182 C160 0.929 . S
H183 C161 0.931 . S
H184 C163 0.930 . S
H185 C167 0.931 . S
H186 C165 0.931 . S
H187 C169 0.931 . S
H188 C170 0.929 . S
H189 C171 0.930 . S
H190 C174 0.930 . S
H191 C175 0.931 . S
H192 C179 0.928 . S
H193 C178 0.929 . S
H194 C176 0.932 . S
C195 C196 1.386 . S
C195 C197 1.397 . S
C195 H219 0.931 . S
C196 C195 1.386 . S
C196 C200 1.397 . S
C197 C195 1.397 . S
C197 C198 1.384 . S
C197 H220 0.930 . S
C198 C197 1.384 . S
C198 C199 1.377 . S
C198 C201 1.481 . S
C199 C198 1.377 . S
C199 C200 1.389 . S
C199 H221 0.929 . S
C200 C196 1.397 . S
C200 C199 1.389 . S
C200 H222 0.931 . S
C201 C198 1.481 . S
C201 C202 1.387 . S
C201 C206 1.390 . S
C202 C201 1.387 . S
C202 C203 1.401 . S
C202 H223 0.930 . S
C203 C202 1.401 . S
C203 C204 1.376 . S
C203 C212 1.511 . S
C204 C203 1.376 . S
C204 C205 1.392 . S
C204 H225 0.931 . S
C205 C204 1.392 . S
C205 C206 1.361 . S
C205 C207 1.500 . S
C206 C201 1.390 . S
C206 C205 1.361 . S
C206 H224 0.931 . S
C207 C205 1.500 . S
C207 C208 1.371 . S
C207 C209 1.365 . S
C208 C207 1.371 . S
C208 C218 1.386 . S
C208 H226 0.931 . S
C209 C207 1.365 . S
C209 C210 1.409 . S
C209 H227 0.929 . S
C210 C209 1.409 . S
C210 C211 1.380 . S
C210 H228 0.930 . S
C211 C210 1.380 . S
C211 C218 1.357 . S
C212 C203 1.511 . S
C212 C213 1.341 . S
C212 C214 1.371 . S
C213 C212 1.341 . S
C213 C217 1.394 . S
C213 H229 0.930 . S
C214 C212 1.371 . S
C214 C215 1.392 . S
C214 H230 0.931 . S
C215 C214 1.392 . S
C215 C216 1.331 . S
C215 H233 0.932 . S
C216 C215 1.331 . S
C216 C217 1.336 . S
C217 C213 1.394 . S
C217 C216 1.336 . S
C217 H232 0.929 . S
C218 C208 1.386 . S
C218 C211 1.357 . S
C218 H231 0.928 . S
H219 C195 0.931 . S
H220 C197 0.930 . S
H221 C199 0.929 . S
H222 C200 0.931 . S
H223 C202 0.930 . S
H224 C206 0.931 . S
H225 C204 0.931 . S
H226 C208 0.931 . S
H227 C209 0.929 . S
H228 C210 0.930 . S
H229 C213 0.930 . S
H230 C214 0.931 . S
H231 C218 0.928 . S
H232 C217 0.929 . S
H233 C215 0.932 . S
C234 C235 1.386 . S
C234 C236 1.397 . S
C234 H258 0.931 . S
C235 C234 1.386 . S
C235 C239 1.397 . S
C236 C234 1.397 . S
C236 C237 1.384 . S
C236 H259 0.930 . S
C237 C236 1.384 . S
C237 C238 1.377 . S
C237 C240 1.481 . S
C238 C237 1.377 . S
C238 C239 1.389 . S
C238 H260 0.929 . S
C239 C235 1.397 . S
C239 C238 1.389 . S
C239 H261 0.931 . S
C240 C237 1.481 . S
C240 C241 1.387 . S
C240 C245 1.390 . S
C241 C240 1.387 . S
C241 C242 1.401 . S
C241 H262 0.930 . S
C242 C241 1.401 . S
C242 C243 1.376 . S
C242 C251 1.511 . S
C243 C242 1.376 . S
C243 C244 1.392 . S
C243 H264 0.931 . S
C244 C243 1.392 . S
C244 C245 1.361 . S
C244 C246 1.500 . S
C245 C240 1.390 . S
C245 C244 1.361 . S
C245 H263 0.931 . S
C246 C244 1.500 . S
C246 C247 1.371 . S
C246 C248 1.365 . S
C247 C246 1.371 . S
C247 C257 1.386 . S
C247 H265 0.931 . S
C248 C246 1.365 . S
C248 C249 1.409 . S
C248 H266 0.929 . S
C249 C248 1.409 . S
C249 C250 1.380 . S
C249 H267 0.930 . S
C250 C249 1.380 . S
C250 C257 1.357 . S
C251 C242 1.511 . S
C251 C252 1.341 . S
C251 C253 1.371 . S
C252 C251 1.341 . S
C252 C256 1.394 . S
C252 H268 0.930 . S
C253 C251 1.371 . S
C253 C254 1.392 . S
C253 H269 0.931 . S
C254 C253 1.392 . S
C254 C255 1.331 . S
C254 H272 0.932 . S
C255 C254 1.331 . S
C255 C256 1.336 . S
C256 C252 1.394 . S
C256 C255 1.336 . S
C256 H271 0.929 . S
C257 C247 1.386 . S
C257 C250 1.357 . S
C257 H270 0.928 . S
H258 C234 0.931 . S
H259 C236 0.930 . S
H260 C238 0.929 . S
H261 C239 0.931 . S
H262 C241 0.930 . S
H263 C245 0.931 . S
H264 C243 0.931 . S
H265 C247 0.931 . S
H266 C248 0.929 . S
H267 C249 0.930 . S
H268 C252 0.930 . S
H269 C253 0.931 . S
H270 C257 0.928 . S
H271 C256 0.929 . S
H272 C254 0.932 . S
C273 C274 1.386 . S
C273 C275 1.397 . S
C273 H297 0.931 . S
C274 C273 1.386 . S
C274 C278 1.397 . S
C275 C273 1.397 . S
C275 C276 1.384 . S
C275 H298 0.930 . S
C276 C275 1.384 . S
C276 C277 1.377 . S
C276 C279 1.481 . S
C277 C276 1.377 . S
C277 C278 1.389 . S
C277 H299 0.929 . S
C278 C274 1.397 . S
C278 C277 1.389 . S
C278 H300 0.931 . S
C279 C276 1.481 . S
C279 C280 1.387 . S
C279 C284 1.390 . S
C280 C279 1.387 . S
C280 C281 1.401 . S
C280 H301 0.930 . S
C281 C280 1.401 . S
C281 C282 1.376 . S
C281 C290 1.511 . S
C282 C281 1.376 . S
C282 C283 1.392 . S
C282 H303 0.931 . S
C283 C282 1.392 . S
C283 C284 1.361 . S
C283 C285 1.500 . S
C284 C279 1.390 . S
C284 C283 1.361 . S
C284 H302 0.931 . S
C285 C283 1.500 . S
C285 C286 1.371 . S
C285 C287 1.365 . S
C286 C285 1.371 . S
C286 C296 1.386 . S
C286 H304 0.931 . S
C287 C285 1.365 . S
C287 C288 1.409 . S
C287 H305 0.929 . S
C288 C287 1.409 . S
C288 C289 1.380 . S
C288 H306 0.930 . S
C289 C288 1.380 . S
C289 C296 1.357 . S
C290 C281 1.511 . S
C290 C291 1.341 . S
C290 C292 1.371 . S
C291 C290 1.341 . S
C291 C295 1.394 . S
C291 H307 0.930 . S
C292 C290 1.371 . S
C292 C293 1.392 . S
C292 H308 0.931 . S
C293 C292 1.392 . S
C293 C294 1.331 . S
C293 H311 0.932 . S
C294 C293 1.331 . S
C294 C295 1.336 . S
C295 C291 1.394 . S
C295 C294 1.336 . S
C295 H310 0.929 . S
C296 C286 1.386 . S
C296 C289 1.357 . S
C296 H309 0.928 . S
H297 C273 0.931 . S
H298 C275 0.930 . S
H299 C277 0.929 . S
H300 C278 0.931 . S
H301 C280 0.930 . S
H302 C284 0.931 . S
H303 C282 0.931 . S
H304 C286 0.931 . S
H305 C287 0.929 . S
H306 C288 0.930 . S
H307 C291 0.930 . S
H308 C292 0.931 . S
H309 C296 0.928 . S
H310 C295 0.929 . S
H311 C293 0.932 . S
Dy312 O315 2.307 1_545 S
Dy312 O317 2.395 . S
Dy312 O318 2.379 . S
Dy312 O320 2.339 1_545 S
Dy312 O322 2.298 1_455 S
Dy312 O326 2.275 . S
Dy312 C334 2.738 . S
Dy313 O316 2.298 1_655 S
Dy313 O319 2.275 . S
Dy313 O321 2.307 1_565 S
Dy313 O323 2.395 . S
Dy313 O324 2.379 . S
Dy313 O327 2.339 1_565 S
Dy313 C343 2.738 . S
C314 O326 1.254 . S
C314 O327 1.257 1_455 S
O315 Dy312 2.307 1_565 S
O315 C325 1.266 . S
O316 Dy313 2.298 1_455 S
O316 C325 1.236 . S
O317 Dy312 2.395 . S
O317 C334 1.255 . S
O318 Dy312 2.379 . S
O318 C334 1.249 . S
O319 Dy313 2.275 . S
O319 C335 1.254 . S
O320 Dy312 2.339 1_565 S
O320 C335 1.257 1_455 S
O321 Dy313 2.307 1_545 S
O321 C336 1.266 . S
O322 Dy312 2.298 1_655 S
O322 C336 1.236 . S
O323 Dy313 2.395 . S
O323 C343 1.255 . S
O324 Dy313 2.379 . S
O324 C343 1.249 . S
C325 O315 1.266 . S
C325 O316 1.236 . S
O326 Dy312 2.275 . S
O326 C314 1.254 . S
O327 Dy313 2.339 1_545 S
O327 C314 1.257 1_655 S
C328 C331 1.344 . S
C328 C332 1.328 . S
C328 C334 1.516 . S
C329 C330 1.304 . S
C329 C333 1.323 . S
C330 C329 1.304 . S
C330 C331 1.371 . S
C330 H344 0.930 . S
C331 C328 1.344 . S
C331 C330 1.371 . S
C331 H345 0.931 . S
C332 C328 1.328 . S
C332 C333 1.433 . S
C332 H346 0.931 . S
C333 C329 1.323 . S
C333 C332 1.433 . S
C333 H347 0.933 . S
C334 Dy312 2.738 . S
C334 O317 1.255 . S
C334 O318 1.249 . S
C334 C328 1.516 . S
C335 O319 1.254 . S
C335 O320 1.257 1_655 S
C336 O321 1.266 . S
C336 O322 1.236 . S
C337 C340 1.344 . S
C337 C341 1.328 . S
C337 C343 1.516 . S
C338 C339 1.304 . S
C338 C342 1.323 . S
C339 C338 1.304 . S
C339 C340 1.371 . S
C339 H348 0.930 . S
C340 C337 1.344 . S
C340 C339 1.371 . S
C340 H349 0.931 . S
C341 C337 1.328 . S
C341 C342 1.433 . S
C341 H350 0.931 . S
C342 C338 1.323 . S
C342 C341 1.433 . S
C342 H351 0.933 . S
C343 Dy313 2.738 . S
C343 O323 1.255 . S
C343 O324 1.249 . S
C343 C337 1.516 . S
H344 C330 0.930 . S
H345 C331 0.931 . S
H346 C332 0.931 . S
H347 C333 0.933 . S
H348 C339 0.930 . S
H349 C340 0.931 . S
H350 C341 0.931 . S
H351 C342 0.933 . S
Dy352 O355 2.307 1_566 S
Dy352 O357 2.395 . S
Dy352 O358 2.379 . S
Dy352 O360 2.339 1_565 S
Dy352 O362 2.298 . S
Dy352 O366 2.275 1_556 S
Dy352 C374 2.738 . S
Dy353 O356 2.298 . S
Dy353 O359 2.275 1_554 S
Dy353 O361 2.307 1_544 S
Dy353 O363 2.395 . S
Dy353 O364 2.379 . S
Dy353 O367 2.339 1_545 S
Dy353 C383 2.738 . S
C354 O366 1.254 . S
C354 O367 1.257 . S
O355 Dy352 2.307 1_544 S
O355 C365 1.266 . S
O356 Dy353 2.298 . S
O356 C365 1.236 . S
O357 Dy352 2.395 . S
O357 C374 1.255 . S
O358 Dy352 2.379 . S
O358 C374 1.249 . S
O359 Dy353 2.275 1_556 S
O359 C375 1.254 . S
O360 Dy352 2.339 1_545 S
O360 C375 1.257 . S
O361 Dy353 2.307 1_566 S
O361 C376 1.266 . S
O362 Dy352 2.298 . S
O362 C376 1.236 . S
O363 Dy353 2.395 . S
O363 C383 1.255 . S
O364 Dy353 2.379 . S
O364 C383 1.249 . S
C365 O355 1.266 . S
C365 O356 1.236 . S
O366 Dy352 2.275 1_554 S
O366 C354 1.254 . S
O367 Dy353 2.339 1_565 S
O367 C354 1.257 . S
C368 C371 1.344 . S
C368 C372 1.328 . S
C368 C374 1.516 . S
C369 C370 1.304 . S
C369 C373 1.323 . S
C370 C369 1.304 . S
C370 C371 1.371 . S
C370 H384 0.930 . S
C371 C368 1.344 . S
C371 C370 1.371 . S
C371 H385 0.931 . S
C372 C368 1.328 . S
C372 C373 1.433 . S
C372 H386 0.931 . S
C373 C369 1.323 . S
C373 C372 1.433 . S
C373 H387 0.933 . S
C374 Dy352 2.738 . S
C374 O357 1.255 . S
C374 O358 1.249 . S
C374 C368 1.516 . S
C375 O359 1.254 . S
C375 O360 1.257 . S
C376 O361 1.266 . S
C376 O362 1.236 . S
C377 C380 1.344 . S
C377 C381 1.328 . S
C377 C383 1.516 . S
C378 C379 1.304 . S
C378 C382 1.323 . S
C379 C378 1.304 . S
C379 C380 1.371 . S
C379 H388 0.930 . S
C380 C377 1.344 . S
C380 C379 1.371 . S
C380 H389 0.931 . S
C381 C377 1.328 . S
C381 C382 1.433 . S
C381 H390 0.931 . S
C382 C378 1.323 . S
C382 C381 1.433 . S
C382 H391 0.933 . S
C383 Dy353 2.738 . S
C383 O363 1.255 . S
C383 O364 1.249 . S
C383 C377 1.516 . S
H384 C370 0.930 . S
H385 C371 0.931 . S
H386 C372 0.931 . S
H387 C373 0.933 . S
H388 C379 0.930 . S
H389 C380 0.931 . S
H390 C381 0.931 . S
H391 C382 0.933 . S
Dy392 O395 2.307 . S
Dy392 O397 2.395 . S
Dy392 O398 2.379 . S
Dy392 O400 2.339 . S
Dy392 O402 2.298 . S
Dy392 O406 2.275 . S
Dy392 C414 2.738 . S
Dy393 O396 2.298 . S
Dy393 O399 2.275 . S
Dy393 O401 2.307 . S
Dy393 O403 2.395 . S
Dy393 O404 2.379 . S
Dy393 O407 2.339 . S
Dy393 C423 2.738 . S
C394 O406 1.254 . S
C394 O407 1.257 . S
O395 Dy392 2.307 . S
O395 C405 1.266 . S
O396 Dy393 2.298 . S
O396 C405 1.236 . S
O397 Dy392 2.395 . S
O397 C414 1.255 . S
O398 Dy392 2.379 . S
O398 C414 1.249 . S
O399 Dy393 2.275 . S
O399 C415 1.254 . S
O400 Dy392 2.339 . S
O400 C415 1.257 . S
O401 Dy393 2.307 . S
O401 C416 1.266 . S
O402 Dy392 2.298 . S
O402 C416 1.236 . S
O403 Dy393 2.395 . S
O403 C423 1.255 . S
O404 Dy393 2.379 . S
O404 C423 1.249 . S
C405 O395 1.266 . S
C405 O396 1.236 . S
O406 Dy392 2.275 . S
O406 C394 1.254 . S
O407 Dy393 2.339 . S
O407 C394 1.257 . S
C408 C411 1.344 . S
C408 C412 1.328 . S
C408 C414 1.516 . S
C409 C410 1.304 . S
C409 C413 1.323 . S
C410 C409 1.304 . S
C410 C411 1.371 . S
C410 H424 0.930 . S
C411 C408 1.344 . S
C411 C410 1.371 . S
C411 H425 0.931 . S
C412 C408 1.328 . S
C412 C413 1.433 . S
C412 H426 0.931 . S
C413 C409 1.323 . S
C413 C412 1.433 . S
C413 H427 0.933 . S
C414 Dy392 2.738 . S
C414 O397 1.255 . S
C414 O398 1.249 . S
C414 C408 1.516 . S
C415 O399 1.254 . S
C415 O400 1.257 . S
C416 O401 1.266 . S
C416 O402 1.236 . S
C417 C420 1.344 . S
C417 C421 1.328 . S
C417 C423 1.516 . S
C418 C419 1.304 . S
C418 C422 1.323 . S
C419 C418 1.304 . S
C419 C420 1.371 . S
C419 H428 0.930 . S
C420 C417 1.344 . S
C420 C419 1.371 . S
C420 H429 0.931 . S
C421 C417 1.328 . S
C421 C422 1.433 . S
C421 H430 0.931 . S
C422 C418 1.323 . S
C422 C421 1.433 . S
C422 H431 0.933 . S
C423 Dy393 2.738 . S
C423 O403 1.255 . S
C423 O404 1.249 . S
C423 C417 1.516 . S
H424 C410 0.930 . S
H425 C411 0.931 . S
H426 C412 0.931 . S
H427 C413 0.933 . S
H428 C419 0.930 . S
H429 C420 0.931 . S
H430 C421 0.931 . S
H431 C422 0.933 . S
Dy432 O435 2.307 1_656 S
Dy432 O437 2.395 . S
Dy432 O438 2.379 . S
Dy432 O440 2.339 1_655 S
Dy432 O442 2.298 . S
Dy432 O446 2.275 1_556 S
Dy432 C454 2.738 . S
Dy433 O436 2.298 . S
Dy433 O439 2.275 1_554 S
Dy433 O441 2.327 1_455 S
Dy433 O443 2.395 . S
Dy433 O444 2.379 . S
Dy433 O447 2.339 1_455 S
Dy433 C463 2.738 . S
C434 O446 1.254 . S
C434 O447 1.257 . S
O435 Dy432 2.307 1_454 S
O435 C445 1.266 . S
O436 Dy433 2.298 . S
O436 C445 1.236 . S
O437 Dy432 2.395 . S
O437 C454 1.255 . S
O438 Dy432 2.379 . S
O438 C454 1.249 . S
O439 Dy433 2.275 1_556 S
O439 C455 1.254 . S
O440 Dy432 2.339 1_455 S
O440 C455 1.257 . S
O441 Dy433 2.327 1_655 S
O441 C456 1.236 1_554 S
O442 Dy432 2.298 . S
O442 C456 1.236 . S
O443 Dy433 2.395 . S
O443 C463 1.255 . S
O444 Dy433 2.379 . S
O444 C463 1.249 . S
C445 O435 1.266 . S
C445 O436 1.236 . S
O446 Dy432 2.275 1_554 S
O446 C434 1.254 . S
O447 Dy433 2.339 1_655 S
O447 C434 1.257 . S
C448 C451 1.344 . S
C448 C452 1.328 . S
C448 C454 1.516 . S
C449 C450 1.304 . S
C449 C453 1.323 . S
C450 C449 1.304 . S
C450 C451 1.371 . S
C450 H464 0.930 . S
C451 C448 1.344 . S
C451 C450 1.371 . S
C451 H465 0.931 . S
C452 C448 1.328 . S
C452 C453 1.433 . S
C452 H466 0.931 . S
C453 C449 1.323 . S
C453 C452 1.433 . S
C453 H467 0.933 . S
C454 Dy432 2.738 . S
C454 O437 1.255 . S
C454 O438 1.249 . S
C454 C448 1.516 . S
C455 O439 1.254 . S
C455 O440 1.257 . S
C456 O441 1.236 1_556 S
C456 O442 1.236 . S
C457 C460 1.344 . S
C457 C461 1.328 . S
C457 C463 1.516 . S
C458 C459 1.304 . S
C458 C462 1.323 . S
C459 C458 1.304 . S
C459 C460 1.371 . S
C459 H468 0.930 . S
C460 C457 1.344 . S
C460 C459 1.371 . S
C460 H469 0.931 . S
C461 C457 1.328 . S
C461 C462 1.433 . S
C461 H470 0.931 . S
C462 C458 1.323 . S
C462 C461 1.433 . S
C462 H471 0.933 . S
C463 Dy433 2.738 . S
C463 O443 1.255 . S
C463 O444 1.249 . S
C463 C457 1.516 . S
H464 C450 0.930 . S
H465 C451 0.931 . S
H466 C452 0.931 . S
H467 C453 0.933 . S
H468 C459 0.930 . S
H469 C460 0.931 . S
H470 C461 0.931 . S
H471 C462 0.933 . S
C472 C473 1.391 . S
C472 C474 1.394 . S
C472 H488 0.931 . S
C473 C472 1.391 . S
C473 C477 1.376 . S
C474 C472 1.394 . S
C474 C475 1.369 . S
C474 C478 1.531 . S
C475 C474 1.369 . S
C475 C476 1.410 . S
C475 C483 1.503 . S
C476 C475 1.410 . S
C476 C477 1.392 . S
C476 C479 1.511 . S
C477 C473 1.376 . S
C477 C476 1.392 . S
C477 H489 0.929 . S
C478 C474 1.531 . S
C478 H490 0.960 . S
C478 H491 0.962 . S
C478 H492 0.960 . S
C479 C476 1.511 . S
C479 H493 0.961 . S
C479 H494 0.961 . S
C479 H495 0.961 . S
C480 C481 1.370 . S
C480 C482 1.363 . S
C480 H496 0.931 . S
C481 C480 1.370 . S
C481 C485 1.408 . S
C482 C480 1.363 . S
C482 C483 1.370 . S
C482 C486 1.524 . S
C483 C475 1.503 . S
C483 C482 1.370 . S
C483 C484 1.403 . S
C484 C483 1.403 . S
C484 C485 1.404 . S
C484 C487 1.539 . S
C485 C481 1.408 . S
C485 C484 1.404 . S
C485 H497 0.930 . S
C486 C482 1.524 . S
C486 H498 0.956 . S
C486 H499 0.961 . S
C486 H500 0.961 . S
C487 C484 1.539 . S
C487 H501 0.958 . S
C487 H502 0.961 . S
C487 H503 0.960 . S
H488 C472 0.931 . S
H489 C477 0.929 . S
H490 C478 0.960 . S
H491 C478 0.962 . S
H492 C478 0.960 . S
H493 C479 0.961 . S
H494 C479 0.961 . S
H495 C479 0.961 . S
H496 C480 0.931 . S
H497 C485 0.930 . S
H498 C486 0.956 . S
H499 C486 0.961 . S
H500 C486 0.961 . S
H501 C487 0.958 . S
H502 C487 0.961 . S
H503 C487 0.960 . S
C504 C505 1.391 . S
C504 C506 1.394 . S
C504 H520 0.931 . S
C505 C504 1.391 . S
C505 C509 1.376 . S
C506 C504 1.394 . S
C506 C507 1.369 . S
C506 C510 1.531 . S
C507 C506 1.369 . S
C507 C508 1.410 . S
C507 C515 1.503 . S
C508 C507 1.410 . S
C508 C509 1.392 . S
C508 C511 1.511 . S
C509 C505 1.376 . S
C509 C508 1.392 . S
C509 H521 0.929 . S
C510 C506 1.531 . S
C510 H522 0.960 . S
C510 H523 0.962 . S
C510 H524 0.960 . S
C511 C508 1.511 . S
C511 H525 0.961 . S
C511 H526 0.961 . S
C511 H527 0.961 . S
C512 C513 1.370 . S
C512 C514 1.363 . S
C512 H528 0.931 . S
C513 C512 1.370 . S
C513 C517 1.408 . S
C514 C512 1.363 . S
C514 C515 1.370 . S
C514 C518 1.524 . S
C515 C507 1.503 . S
C515 C514 1.370 . S
C515 C516 1.403 . S
C516 C515 1.403 . S
C516 C517 1.404 . S
C516 C519 1.539 . S
C517 C513 1.408 . S
C517 C516 1.404 . S
C517 H529 0.930 . S
C518 C514 1.524 . S
C518 H530 0.956 . S
C518 H531 0.961 . S
C518 H532 0.961 . S
C519 C516 1.539 . S
C519 H533 0.958 . S
C519 H534 0.961 . S
C519 H535 0.960 . S
H520 C504 0.931 . S
H521 C509 0.929 . S
H522 C510 0.960 . S
H523 C510 0.962 . S
H524 C510 0.960 . S
H525 C511 0.961 . S
H526 C511 0.961 . S
H527 C511 0.961 . S
H528 C512 0.931 . S
H529 C517 0.930 . S
H530 C518 0.956 . S
H531 C518 0.961 . S
H532 C518 0.961 . S
H533 C519 0.958 . S
H534 C519 0.961 . S
H535 C519 0.960 . S
C536 C537 1.391 . S
C536 C538 1.394 . S
C536 H552 0.931 . S
C537 C536 1.391 . S
C537 C541 1.376 . S
C538 C536 1.394 . S
C538 C539 1.369 . S
C538 C542 1.531 . S
C539 C538 1.369 . S
C539 C540 1.410 . S
C539 C547 1.503 . S
C540 C539 1.410 . S
C540 C541 1.392 . S
C540 C543 1.511 . S
C541 C537 1.376 . S
C541 C540 1.392 . S
C541 H553 0.929 . S
C542 C538 1.531 . S
C542 H554 0.960 . S
C542 H555 0.962 . S
C542 H556 0.960 . S
C543 C540 1.511 . S
C543 H557 0.961 . S
C543 H558 0.961 . S
C543 H559 0.961 . S
C544 C545 1.370 . S
C544 C546 1.363 . S
C544 H560 0.931 . S
C545 C544 1.370 . S
C545 C549 1.408 . S
C546 C544 1.363 . S
C546 C547 1.370 . S
C546 C550 1.524 . S
C547 C539 1.503 . S
C547 C546 1.370 . S
C547 C548 1.403 . S
C548 C547 1.403 . S
C548 C549 1.404 . S
C548 C551 1.539 . S
C549 C545 1.408 . S
C549 C548 1.404 . S
C549 H561 0.930 . S
C550 C546 1.524 . S
C550 H562 0.956 . S
C550 H563 0.961 . S
C550 H564 0.961 . S
C551 C548 1.539 . S
C551 H565 0.958 . S
C551 H566 0.961 . S
C551 H567 0.960 . S
H552 C536 0.931 . S
H553 C541 0.929 . S
H554 C542 0.960 . S
H555 C542 0.962 . S
H556 C542 0.960 . S
H557 C543 0.961 . S
H558 C543 0.961 . S
H559 C543 0.961 . S
H560 C544 0.931 . S
H561 C549 0.930 . S
H562 C550 0.956 . S
H563 C550 0.961 . S
H564 C550 0.961 . S
H565 C551 0.958 . S
H566 C551 0.961 . S
H567 C551 0.960 . S
C568 C569 1.391 . S
C568 C570 1.394 . S
C568 H584 0.931 . S
C569 C568 1.391 . S
C569 C573 1.376 . S
C570 C568 1.394 . S
C570 C571 1.369 . S
C570 C574 1.531 . S
C571 C570 1.369 . S
C571 C572 1.410 . S
C571 C579 1.503 . S
C572 C571 1.410 . S
C572 C573 1.392 . S
C572 C575 1.511 . S
C573 C569 1.376 . S
C573 C572 1.392 . S
C573 H585 0.929 . S
C574 C570 1.531 . S
C574 H586 0.960 . S
C574 H587 0.962 . S
C574 H588 0.960 . S
C575 C572 1.511 . S
C575 H589 0.961 . S
C575 H590 0.961 . S
C575 H591 0.961 . S
C576 C577 1.370 . S
C576 C578 1.363 . S
C576 H592 0.931 . S
C577 C576 1.370 . S
C577 C581 1.408 . S
C578 C576 1.363 . S
C578 C579 1.370 . S
C578 C582 1.524 . S
C579 C571 1.503 . S
C579 C578 1.370 . S
C579 C580 1.403 . S
C580 C579 1.403 . S
C580 C581 1.404 . S
C580 C583 1.539 . S
C581 C577 1.408 . S
C581 C580 1.404 . S
C581 H593 0.930 . S
C582 C578 1.524 . S
C582 H594 0.956 . S
C582 H595 0.961 . S
C582 H596 0.961 1_655 S
C583 C580 1.539 . S
C583 H597 0.958 . S
C583 H598 0.961 . S
C583 H599 0.960 . S
H584 C568 0.931 . S
H585 C573 0.929 . S
H586 C574 0.960 . S
H587 C574 0.962 . S
H588 C574 0.960 . S
H589 C575 0.961 . S
H590 C575 0.961 . S
H591 C575 0.961 . S
H592 C576 0.931 . S
H593 C581 0.930 . S
H594 C582 0.956 . S
H595 C582 0.961 . S
H596 C582 0.961 1_455 S
H597 C583 0.958 . S
H598 C583 0.961 . S
H599 C583 0.960 . S
C600 C601 1.391 . S
C600 C602 1.394 . S
C600 H616 0.931 . S
C601 C600 1.391 . S
C601 C605 1.376 . S
C602 C600 1.394 . S
C602 C603 1.369 . S
C602 C606 1.531 . S
C603 C602 1.369 . S
C603 C604 1.410 . S
C603 C611 1.503 . S
C604 C603 1.410 . S
C604 C605 1.392 . S
C604 C607 1.511 . S
C605 C601 1.376 . S
C605 C604 1.392 . S
C605 H617 0.929 . S
C606 C602 1.531 . S
C606 H618 0.960 . S
C606 H619 0.962 . S
C606 H620 0.960 . S
C607 C604 1.511 . S
C607 H621 0.961 . S
C607 H622 0.961 . S
C607 H623 0.961 . S
C608 C609 1.370 . S
C608 C610 1.363 . S
C608 H624 0.931 . S
C609 C608 1.370 . S
C609 C613 1.408 . S
C610 C608 1.363 . S
C610 C611 1.370 . S
C610 C614 1.524 . S
C611 C603 1.503 . S
C611 C610 1.370 . S
C611 C612 1.403 . S
C612 C611 1.403 . S
C612 C613 1.404 . S
C612 C615 1.539 . S
C613 C609 1.408 . S
C613 C612 1.404 . S
C613 H625 0.930 . S
C614 C610 1.524 . S
C614 H626 0.956 . S
C614 H627 0.961 . S
C614 H628 0.961 . S
C615 C612 1.539 . S
C615 H629 0.958 . S
C615 H630 0.961 . S
C615 H631 0.960 . S
H616 C600 0.931 . S
H617 C605 0.929 . S
H618 C606 0.960 . S
H619 C606 0.962 . S
H620 C606 0.960 . S
H621 C607 0.961 . S
H622 C607 0.961 . S
H623 C607 0.961 . S
H624 C608 0.931 . S
H625 C613 0.930 . S
H626 C614 0.956 . S
H627 C614 0.961 . S
H628 C614 0.961 . S
H629 C615 0.958 . S
H630 C615 0.961 . S
H631 C615 0.960 . S
C632 C633 1.391 . S
C632 C634 1.394 . S
C632 H648 0.931 . S
C633 C632 1.391 . S
C633 C637 1.376 . S
C634 C632 1.394 . S
C634 C635 1.369 . S
C634 C638 1.531 . S
C635 C634 1.369 . S
C635 C636 1.410 . S
C635 C643 1.503 . S
C636 C635 1.410 . S
C636 C637 1.392 . S
C636 C639 1.511 . S
C637 C633 1.376 . S
C637 C636 1.392 . S
C637 H649 0.929 . S
C638 C634 1.531 . S
C638 H650 0.960 . S
C638 H651 0.962 . S
C638 H652 0.960 . S
C639 C636 1.511 . S
C639 H653 0.961 1_455 S
C639 H654 0.961 . S
C639 H655 0.961 1_455 S
C640 C641 1.370 . S
C640 C642 1.363 . S
C640 H656 0.931 . S
C641 C640 1.370 . S
C641 C645 1.408 . S
C642 C640 1.363 . S
C642 C643 1.370 . S
C642 C646 1.524 . S
C643 C635 1.503 . S
C643 C642 1.370 . S
C643 C644 1.403 . S
C644 C643 1.403 . S
C644 C645 1.404 . S
C644 C647 1.539 . S
C645 C641 1.408 . S
C645 C644 1.404 . S
C645 H657 0.930 . S
C646 C642 1.524 . S
C646 H658 0.956 . S
C646 H659 0.961 . S
C646 H660 0.961 . S
C647 C644 1.539 . S
C647 H661 0.958 . S
C647 H662 0.961 . S
C647 H663 0.960 . S
H648 C632 0.931 . S
H649 C637 0.929 . S
H650 C638 0.960 . S
H651 C638 0.962 . S
H652 C638 0.960 . S
H653 C639 0.961 1_655 S
H654 C639 0.961 . S
H655 C639 0.961 1_655 S
H656 C640 0.931 . S
H657 C645 0.930 . S
H658 C646 0.956 . S
H659 C646 0.961 . S
H660 C646 0.961 . S
H661 C647 0.958 . S
H662 C647 0.961 . S
H663 C647 0.960 . S
C664 C665 1.391 . S
C664 C666 1.394 . S
C664 H680 0.931 . S
C665 C664 1.391 . S
C665 C669 1.376 . S
C666 C664 1.394 . S
C666 C667 1.369 . S
C666 C670 1.531 . S
C667 C666 1.369 . S
C667 C668 1.410 . S
C667 C675 1.503 . S
C668 C667 1.410 . S
C668 C669 1.392 . S
C668 C671 1.511 . S
C669 C665 1.376 . S
C669 C668 1.392 . S
C669 H681 0.929 . S
C670 C666 1.531 . S
C670 H682 0.960 . S
C670 H683 0.962 . S
C670 H684 0.960 . S
C671 C668 1.511 . S
C671 H685 0.961 . S
C671 H686 0.961 . S
C671 H687 0.961 . S
C672 C673 1.370 . S
C672 C674 1.363 . S
C672 H688 0.931 . S
C673 C672 1.370 . S
C673 C677 1.408 . S
C674 C672 1.363 . S
C674 C675 1.370 . S
C674 C678 1.524 . S
C675 C667 1.503 . S
C675 C674 1.370 . S
C675 C676 1.403 . S
C676 C675 1.403 . S
C676 C677 1.404 . S
C676 C679 1.539 . S
C677 C673 1.408 . S
C677 C676 1.404 . S
C677 H689 0.930 . S
C678 C674 1.524 . S
C678 H690 0.956 . S
C678 H691 0.961 . S
C678 H692 0.961 . S
C679 C676 1.539 . S
C679 H693 0.958 . S
C679 H694 0.961 . S
C679 H695 0.960 . S
H680 C664 0.931 . S
H681 C669 0.929 . S
H682 C670 0.960 . S
H683 C670 0.962 . S
H684 C670 0.960 . S
H685 C671 0.961 . S
H686 C671 0.961 . S
H687 C671 0.961 . S
H688 C672 0.931 . S
H689 C677 0.930 . S
H690 C678 0.956 . S
H691 C678 0.961 . S
H692 C678 0.961 . S
H693 C679 0.958 . S
H694 C679 0.961 . S
H695 C679 0.960 . S
C696 C697 1.391 . S
C696 C698 1.394 . S
C696 H712 0.931 . S
C697 C696 1.391 . S
C697 C701 1.376 . S
C698 C696 1.394 . S
C698 C699 1.369 . S
C698 C702 1.531 . S
C699 C698 1.369 . S
C699 C700 1.410 . S
C699 C707 1.503 . S
C700 C699 1.410 . S
C700 C701 1.392 . S
C700 C703 1.511 . S
C701 C697 1.376 . S
C701 C700 1.392 . S
C701 H713 0.929 . S
C702 C698 1.531 . S
C702 H714 0.960 . S
C702 H715 0.962 . S
C702 H716 0.960 . S
C703 C700 1.511 . S
C703 H717 0.961 . S
C703 H718 0.961 . S
C703 H719 0.961 . S
C704 C705 1.370 . S
C704 C706 1.363 . S
C704 H720 0.931 . S
C705 C704 1.370 . S
C705 C709 1.408 . S
C706 C704 1.363 . S
C706 C707 1.370 . S
C706 C710 1.524 . S
C707 C699 1.503 . S
C707 C706 1.370 . S
C707 C708 1.403 . S
C708 C707 1.403 . S
C708 C709 1.404 . S
C708 C711 1.539 . S
C709 C705 1.408 . S
C709 C708 1.404 . S
C709 H721 0.930 . S
C710 C706 1.524 . S
C710 H722 0.956 . S
C710 H723 0.961 . S
C710 H724 0.961 . S
C711 C708 1.539 . S
C711 H725 0.958 . S
C711 H726 0.961 . S
C711 H727 0.960 . S
H712 C696 0.931 . S
H713 C701 0.929 . S
H714 C702 0.960 . S
H715 C702 0.962 . S
H716 C702 0.960 . S
H717 C703 0.961 . S
H718 C703 0.961 . S
H719 C703 0.961 . S
H720 C704 0.931 . S
H721 C709 0.930 . S
H722 C710 0.956 . S
H723 C710 0.961 . S
H724 C710 0.961 . S
H725 C711 0.958 . S
H726 C711 0.961 . S
H727 C711 0.960 . S
C728 C729 1.391 . S
C728 C730 1.394 . S
C728 H744 0.931 . S
C729 C728 1.391 . S
C729 C733 1.376 . S
C730 C728 1.394 . S
C730 C731 1.369 . S
C730 C734 1.531 . S
C731 C730 1.369 . S
C731 C732 1.410 . S
C731 C739 1.503 . S
C732 C731 1.410 . S
C732 C733 1.392 . S
C732 C735 1.511 . S
C733 C729 1.376 . S
C733 C732 1.392 . S
C733 H745 0.929 . S
C734 C730 1.531 . S
C734 H746 0.960 . S
C734 H747 0.962 . S
C734 H748 0.960 . S
C735 C732 1.511 . S
C735 H749 0.961 . S
C735 H750 0.961 . S
C735 H751 0.961 . S
C736 C737 1.370 . S
C736 C738 1.363 . S
C736 H752 0.931 . S
C737 C736 1.370 . S
C737 C741 1.408 . S
C738 C736 1.363 . S
C738 C739 1.370 . S
C738 C742 1.524 . S
C739 C731 1.503 . S
C739 C738 1.370 . S
C739 C740 1.403 . S
C740 C739 1.403 . S
C740 C741 1.404 . S
C740 C743 1.539 . S
C741 C737 1.408 . S
C741 C740 1.404 . S
C741 H753 0.930 . S
C742 C738 1.524 . S
C742 H754 0.956 . S
C742 H755 0.961 . S
C742 H756 0.961 . S
C743 C740 1.539 . S
C743 H757 0.958 . S
C743 H758 0.961 . S
C743 H759 0.960 . S
H744 C728 0.931 . S
H745 C733 0.929 . S
H746 C734 0.960 . S
H747 C734 0.962 . S
H748 C734 0.960 . S
H749 C735 0.961 . S
H750 C735 0.961 . S
H751 C735 0.961 . S
H752 C736 0.931 . S
H753 C741 0.930 . S
H754 C742 0.956 . S
H755 C742 0.961 . S
H756 C742 0.961 . S
H757 C743 0.958 . S
H758 C743 0.961 . S
H759 C743 0.960 . S
C760 C761 1.391 . S
C760 C762 1.394 . S
C760 H776 0.931 . S
C761 C760 1.391 . S
C761 C765 1.376 . S
C762 C760 1.394 . S
C762 C763 1.369 . S
C762 C766 1.531 . S
C763 C762 1.369 . S
C763 C764 1.410 . S
C763 C771 1.503 . S
C764 C763 1.410 . S
C764 C765 1.392 . S
C764 C767 1.511 . S
C765 C761 1.376 . S
C765 C764 1.392 . S
C765 H777 0.929 . S
C766 C762 1.531 . S
C766 H778 0.960 . S
C766 H779 0.962 . S
C766 H780 0.960 . S
C767 C764 1.511 . S
C767 H781 0.961 . S
C767 H782 0.961 . S
C767 H783 0.961 . S
C768 C769 1.370 . S
C768 C770 1.363 . S
C768 H784 0.931 . S
C769 C768 1.370 . S
C769 C773 1.408 . S
C770 C768 1.363 . S
C770 C771 1.370 . S
C770 C774 1.524 . S
C771 C763 1.503 . S
C771 C770 1.370 . S
C771 C772 1.403 . S
C772 C771 1.403 . S
C772 C773 1.404 . S
C772 C775 1.539 . S
C773 C769 1.408 . S
C773 C772 1.404 . S
C773 H785 0.930 . S
C774 C770 1.524 . S
C774 H786 0.956 . S
C774 H787 0.961 . S
C774 H788 0.961 . S
C775 C772 1.539 . S
C775 H789 0.958 . S
C775 H790 0.961 . S
C775 H791 0.960 . S
H776 C760 0.931 . S
H777 C765 0.929 . S
H778 C766 0.960 . S
H779 C766 0.962 . S
H780 C766 0.960 . S
H781 C767 0.961 . S
H782 C767 0.961 . S
H783 C767 0.961 . S
H784 C768 0.931 . S
H785 C773 0.930 . S
H786 C774 0.956 . S
H787 C774 0.961 . S
H788 C774 0.961 . S
H789 C775 0.958 . S
H790 C775 0.961 . S
H791 C775 0.960 . S
C792 C793 1.391 . S
C792 C794 1.394 . S
C792 H808 0.931 . S
C793 C792 1.391 . S
C793 C797 1.376 . S
C794 C792 1.394 . S
C794 C795 1.369 . S
C794 C798 1.531 . S
C795 C794 1.369 . S
C795 C796 1.410 . S
C795 C803 1.503 . S
C796 C795 1.410 . S
C796 C797 1.392 . S
C796 C799 1.511 . S
C797 C793 1.376 . S
C797 C796 1.392 . S
C797 H809 0.929 . S
C798 C794 1.531 . S
C798 H810 0.960 . S
C798 H811 0.962 . S
C798 H812 0.960 . S
C799 C796 1.511 . S
C799 H813 0.961 . S
C799 H814 0.961 . S
C799 H815 0.961 . S
C800 C801 1.370 . S
C800 C802 1.363 . S
C800 H816 0.931 . S
C801 C800 1.370 . S
C801 C805 1.408 . S
C802 C800 1.363 . S
C802 C803 1.370 . S
C802 C806 1.524 . S
C803 C795 1.503 . S
C803 C802 1.370 . S
C803 C804 1.403 . S
C804 C803 1.403 . S
C804 C805 1.404 . S
C804 C807 1.539 . S
C805 C801 1.408 . S
C805 C804 1.404 . S
C805 H817 0.930 . S
C806 C802 1.524 . S
C806 H818 0.956 . S
C806 H819 0.961 . S
C806 H820 0.961 . S
C807 C804 1.539 . S
C807 H821 0.958 . S
C807 H822 0.961 . S
C807 H823 0.960 . S
H808 C792 0.931 . S
H809 C797 0.929 . S
H810 C798 0.960 . S
H811 C798 0.962 . S
H812 C798 0.960 . S
H813 C799 0.961 . S
H814 C799 0.961 . S
H815 C799 0.961 . S
H816 C800 0.931 . S
H817 C805 0.930 . S
H818 C806 0.956 . S
H819 C806 0.961 . S
H820 C806 0.961 . S
H821 C807 0.958 . S
H822 C807 0.961 . S
H823 C807 0.960 . S
C824 C825 1.391 . S
C824 C826 1.394 . S
C824 H840 0.931 . S
C825 C824 1.391 . S
C825 C829 1.376 . S
C826 C824 1.394 . S
C826 C827 1.369 . S
C826 C830 1.531 . S
C827 C826 1.369 . S
C827 C828 1.410 . S
C827 C835 1.503 . S
C828 C827 1.410 . S
C828 C829 1.392 . S
C828 C831 1.511 . S
C829 C825 1.376 . S
C829 C828 1.392 . S
C829 H841 0.929 . S
C830 C826 1.531 . S
C830 H842 0.960 . S
C830 H843 0.962 . S
C830 H844 0.960 . S
C831 C828 1.511 . S
C831 H845 0.961 . S
C831 H846 0.961 . S
C831 H847 0.961 . S
C832 C833 1.370 . S
C832 C834 1.363 . S
C832 H848 0.931 . S
C833 C832 1.370 . S
C833 C837 1.408 . S
C834 C832 1.363 . S
C834 C835 1.370 . S
C834 C838 1.524 . S
C835 C827 1.503 . S
C835 C834 1.370 . S
C835 C836 1.403 . S
C836 C835 1.403 . S
C836 C837 1.404 . S
C836 C839 1.539 . S
C837 C833 1.408 . S
C837 C836 1.404 . S
C837 H849 0.930 . S
C838 C834 1.524 . S
C838 H850 0.956 . S
C838 H851 0.961 . S
C838 H852 0.961 . S
C839 C836 1.539 . S
C839 H853 0.958 . S
C839 H854 0.961 . S
C839 H855 0.960 . S
H840 C824 0.931 . S
H841 C829 0.929 . S
H842 C830 0.960 . S
H843 C830 0.962 . S
H844 C830 0.960 . S
H845 C831 0.961 . S
H846 C831 0.961 . S
H847 C831 0.961 . S
H848 C832 0.931 . S
H849 C837 0.930 . S
H850 C838 0.956 . S
H851 C838 0.961 . S
H852 C838 0.961 . S
H853 C839 0.958 . S
H854 C839 0.961 . S
H855 C839 0.960 . S
C856 C857 1.391 . S
C856 C858 1.394 . S
C856 H872 0.931 . S
C857 C856 1.391 . S
C857 C861 1.376 . S
C858 C856 1.394 . S
C858 C859 1.369 . S
C858 C862 1.531 . S
C859 C858 1.369 . S
C859 C860 1.410 . S
C859 C867 1.503 . S
C860 C859 1.410 . S
C860 C861 1.392 . S
C860 C863 1.511 . S
C861 C857 1.376 . S
C861 C860 1.392 . S
C861 H873 0.929 . S
C862 C858 1.531 . S
C862 H874 0.960 . S
C862 H875 0.962 . S
C862 H876 0.960 . S
C863 C860 1.511 . S
C863 H877 0.961 . S
C863 H878 0.961 . S
C863 H879 0.961 . S
C864 C865 1.370 . S
C864 C866 1.363 . S
C864 H880 0.931 . S
C865 C864 1.370 . S
C865 C869 1.408 . S
C866 C864 1.363 . S
C866 C867 1.370 . S
C866 C870 1.524 . S
C867 C859 1.503 . S
C867 C866 1.370 . S
C867 C868 1.403 . S
C868 C867 1.403 . S
C868 C869 1.404 . S
C868 C871 1.539 . S
C869 C865 1.408 . S
C869 C868 1.404 . S
C869 H881 0.930 . S
C870 C866 1.524 . S
C870 H882 0.956 . S
C870 H883 0.961 . S
C870 H884 0.961 . S
C871 C868 1.539 . S
C871 H885 0.958 . S
C871 H886 0.961 . S
C871 H887 0.960 . S
H872 C856 0.931 . S
H873 C861 0.929 . S
H874 C862 0.960 . S
H875 C862 0.962 . S
H876 C862 0.960 . S
H877 C863 0.961 . S
H878 C863 0.961 . S
H879 C863 0.961 . S
H880 C864 0.931 . S
H881 C869 0.930 . S
H882 C870 0.956 . S
H883 C870 0.961 . S
H884 C870 0.961 . S
H885 C871 0.958 . S
H886 C871 0.961 . S
H887 C871 0.960 . S
C888 C889 1.391 . S
C888 C890 1.394 . S
C888 H904 0.931 . S
C889 C888 1.391 . S
C889 C893 1.376 . S
C890 C888 1.394 . S
C890 C891 1.369 . S
C890 C894 1.531 . S
C891 C890 1.369 . S
C891 C892 1.410 . S
C891 C899 1.503 . S
C892 C891 1.410 . S
C892 C893 1.392 . S
C892 C895 1.511 . S
C893 C889 1.376 . S
C893 C892 1.392 . S
C893 H905 0.929 . S
C894 C890 1.531 . S
C894 H906 0.960 . S
C894 H907 0.962 . S
C894 H908 0.960 . S
C895 C892 1.511 . S
C895 H909 0.961 . S
C895 H910 0.961 . S
C895 H911 0.961 . S
C896 C897 1.370 . S
C896 C898 1.363 . S
C896 H912 0.931 . S
C897 C896 1.370 . S
C897 C901 1.408 . S
C898 C896 1.363 . S
C898 C899 1.370 . S
C898 C902 1.524 . S
C899 C891 1.503 . S
C899 C898 1.370 . S
C899 C900 1.403 . S
C900 C899 1.403 . S
C900 C901 1.404 . S
C900 C903 1.539 . S
C901 C897 1.408 . S
C901 C900 1.404 . S
C901 H913 0.930 . S
C902 C898 1.524 . S
C902 H914 0.956 . S
C902 H915 0.961 . S
C902 H916 0.961 . S
C903 C900 1.539 . S
C903 H917 0.958 . S
C903 H918 0.961 . S
C903 H919 0.960 . S
H904 C888 0.931 . S
H905 C893 0.929 . S
H906 C894 0.960 . S
H907 C894 0.962 . S
H908 C894 0.960 . S
H909 C895 0.961 . S
H910 C895 0.961 . S
H911 C895 0.961 . S
H912 C896 0.931 . S
H913 C901 0.930 . S
H914 C902 0.956 . S
H915 C902 0.961 . S
H916 C902 0.961 . S
H917 C903 0.958 . S
H918 C903 0.961 . S
H919 C903 0.960 . S
C920 C921 1.391 . S
C920 C922 1.394 . S
C920 H936 0.931 . S
C921 C920 1.391 . S
C921 C925 1.376 . S
C922 C920 1.394 . S
C922 C923 1.369 . S
C922 C926 1.531 . S
C923 C922 1.369 . S
C923 C924 1.410 . S
C923 C931 1.503 . S
C924 C923 1.410 . S
C924 C925 1.392 . S
C924 C927 1.511 . S
C925 C921 1.376 . S
C925 C924 1.392 . S
C925 H937 0.929 . S
C926 C922 1.531 . S
C926 H938 0.960 . S
C926 H939 0.962 . S
C926 H940 0.960 . S
C927 C924 1.511 . S
C927 H941 0.961 . S
C927 H942 0.961 . S
C927 H943 0.961 . S
C928 C929 1.370 . S
C928 C930 1.363 . S
C928 H944 0.931 . S
C929 C928 1.370 . S
C929 C933 1.408 . S
C930 C928 1.363 . S
C930 C931 1.370 . S
C930 C934 1.524 . S
C931 C923 1.503 . S
C931 C930 1.370 . S
C931 C932 1.403 . S
C932 C931 1.403 . S
C932 C933 1.404 . S
C932 C935 1.539 . S
C933 C929 1.408 . S
C933 C932 1.404 . S
C933 H945 0.930 . S
C934 C930 1.524 . S
C934 H946 0.956 . S
C934 H947 0.961 . S
C934 H948 0.961 . S
C935 C932 1.539 . S
C935 H949 0.958 . S
C935 H950 0.961 . S
C935 H951 0.960 . S
H936 C920 0.931 . S
H937 C925 0.929 . S
H938 C926 0.960 . S
H939 C926 0.962 . S
H940 C926 0.960 . S
H941 C927 0.961 . S
H942 C927 0.961 . S
H943 C927 0.961 . S
H944 C928 0.931 . S
H945 C933 0.930 . S
H946 C934 0.956 . S
H947 C934 0.961 . S
H948 C934 0.961 . S
H949 C935 0.958 . S
H950 C935 0.961 . S
H951 C935 0.960 . S
C952 C953 1.391 . S
C952 C954 1.394 . S
C952 H968 0.931 . S
C953 C952 1.391 . S
C953 C957 1.376 . S
C954 C952 1.394 . S
C954 C955 1.369 . S
C954 C958 1.531 . S
C955 C954 1.369 . S
C955 C956 1.410 . S
C955 C963 1.503 . S
C956 C955 1.410 . S
C956 C957 1.392 . S
C956 C959 1.511 . S
C957 C953 1.376 . S
C957 C956 1.392 . S
C957 H969 0.929 . S
C958 C954 1.531 . S
C958 H970 0.960 . S
C958 H971 0.962 . S
C958 H972 0.960 . S
C959 C956 1.511 . S
C959 H973 0.961 . S
C959 H974 0.961 . S
C959 H975 0.961 . S
C960 C961 1.370 . S
C960 C962 1.363 . S
C960 H976 0.931 . S
C961 C960 1.370 . S
C961 C965 1.408 . S
C962 C960 1.363 . S
C962 C963 1.370 . S
C962 C966 1.524 . S
C963 C955 1.503 . S
C963 C962 1.370 . S
C963 C964 1.403 . S
C964 C963 1.403 . S
C964 C965 1.404 . S
C964 C967 1.539 . S
C965 C961 1.408 . S
C965 C964 1.404 . S
C965 H977 0.930 . S
C966 C962 1.524 . S
C966 H978 0.956 . S
C966 H979 0.961 . S
C966 H980 0.961 . S
C967 C964 1.539 . S
C967 H981 0.958 . S
C967 H982 0.961 . S
C967 H983 0.960 . S
H968 C952 0.931 . S
H969 C957 0.929 . S
H970 C958 0.960 . S
H971 C958 0.962 . S
H972 C958 0.960 . S
H973 C959 0.961 . S
H974 C959 0.961 . S
H975 C959 0.961 . S
H976 C960 0.931 . S
H977 C965 0.930 . S
H978 C966 0.956 . S
H979 C966 0.961 . S
H980 C966 0.961 . S
H981 C967 0.958 . S
H982 C967 0.961 . S
H983 C967 0.960 . S
C984 C985 1.391 . S
C984 C986 1.394 . S
C984 H1000 0.931 . S
C985 C984 1.391 . S
C985 C989 1.376 . S
C986 C984 1.394 . S
C986 C987 1.369 . S
C986 C990 1.531 . S
C987 C986 1.369 . S
C987 C988 1.410 . S
C987 C995 1.503 . S
C988 C987 1.410 . S
C988 C989 1.392 . S
C988 C991 1.511 . S
C989 C985 1.376 . S
C989 C988 1.392 . S
C989 H1001 0.929 . S
C990 C986 1.531 . S
C990 H1002 0.960 . S
C990 H1003 0.962 . S
C990 H1004 0.960 . S
C991 C988 1.511 . S
C991 H1005 0.961 . S
C991 H1006 0.961 . S
C991 H1007 0.961 . S
C992 C993 1.370 . S
C992 C994 1.363 . S
C992 H1008 0.931 . S
C993 C992 1.370 . S
C993 C997 1.408 . S
C994 C992 1.363 . S
C994 C995 1.370 . S
C994 C998 1.524 . S
C995 C987 1.503 . S
C995 C994 1.370 . S
C995 C996 1.403 . S
C996 C995 1.403 . S
C996 C997 1.404 . S
C996 C999 1.539 . S
C997 C993 1.408 . S
C997 C996 1.404 . S
C997 H1009 0.930 . S
C998 C994 1.524 . S
C998 H1010 0.956 . S
C998 H1011 0.961 . S
C998 H1012 0.961 . S
C999 C996 1.539 . S
C999 H1013 0.958 . S
C999 H1014 0.961 . S
C999 H1015 0.960 . S
H1000 C984 0.931 . S
H1001 C989 0.929 . S
H1002 C990 0.960 . S
H1003 C990 0.962 . S
H1004 C990 0.960 . S
H1005 C991 0.961 . S
H1006 C991 0.961 . S
H1007 C991 0.961 . S
H1008 C992 0.931 . S
H1009 C997 0.930 . S
H1010 C998 0.956 . S
H1011 C998 0.961 . S
H1012 C998 0.961 . S
H1013 C999 0.958 . S
H1014 C999 0.961 . S
H1015 C999 0.960 . S
C1016 C1017 1.391 . S
C1016 C1018 1.394 . S
C1016 H1032 0.931 . S
C1017 C1016 1.391 . S
C1017 C1021 1.376 . S
C1018 C1016 1.394 . S
C1018 C1019 1.369 . S
C1018 C1022 1.531 . S
C1019 C1018 1.369 . S
C1019 C1020 1.410 . S
C1019 C1027 1.503 . S
C1020 C1019 1.410 . S
C1020 C1021 1.392 . S
C1020 C1023 1.511 . S
C1021 C1017 1.376 . S
C1021 C1020 1.392 . S
C1021 H1033 0.929 . S
C1022 C1018 1.531 . S
C1022 H1034 0.960 . S
C1022 H1035 0.962 1_655 S
C1022 H1036 0.960 . S
C1023 C1020 1.511 . S
C1023 H1037 0.961 . S
C1023 H1038 0.961 . S
C1023 H1039 0.961 . S
C1024 C1025 1.370 . S
C1024 C1026 1.363 . S
C1024 H1040 0.931 . S
C1025 C1024 1.370 . S
C1025 C1029 1.408 . S
C1026 C1024 1.363 . S
C1026 C1027 1.370 . S
C1026 C1030 1.524 . S
C1027 C1019 1.503 . S
C1027 C1026 1.370 . S
C1027 C1028 1.403 . S
C1028 C1027 1.403 . S
C1028 C1029 1.404 . S
C1028 C1031 1.539 . S
C1029 C1025 1.408 . S
C1029 C1028 1.404 . S
C1029 H1041 0.930 . S
C1030 C1026 1.524 . S
C1030 H1042 0.956 . S
C1030 H1043 0.961 . S
C1030 H1044 0.961 . S
C1031 C1028 1.539 . S
C1031 H1045 0.958 . S
C1031 H1046 0.961 . S
C1031 H1047 0.960 . S
H1032 C1016 0.931 . S
H1033 C1021 0.929 . S
H1034 C1022 0.960 . S
H1035 C1022 0.962 1_455 S
H1036 C1022 0.960 . S
H1037 C1023 0.961 . S
H1038 C1023 0.961 . S
H1039 C1023 0.961 . S
H1040 C1024 0.931 . S
H1041 C1029 0.930 . S
H1042 C1030 0.956 . S
H1043 C1030 0.961 . S
H1044 C1030 0.961 . S
H1045 C1031 0.958 . S
H1046 C1031 0.961 . S
H1047 C1031 0.960 . S
C1048 C1049 1.391 . S
C1048 C1050 1.394 . S
C1048 H1064 0.931 . S
C1049 C1048 1.391 . S
C1049 C1053 1.376 . S
C1050 C1048 1.394 . S
C1050 C1051 1.369 . S
C1050 C1054 1.531 . S
C1051 C1050 1.369 . S
C1051 C1052 1.410 . S
C1051 C1059 1.503 . S
C1052 C1051 1.410 . S
C1052 C1053 1.392 . S
C1052 C1055 1.511 . S
C1053 C1049 1.376 . S
C1053 C1052 1.392 . S
C1053 H1065 0.929 . S
C1054 C1050 1.531 . S
C1054 H1066 0.960 . S
C1054 H1067 0.962 . S
C1054 H1068 0.960 . S
C1055 C1052 1.511 . S
C1055 H1069 0.961 . S
C1055 H1070 0.961 . S
C1055 H1071 0.961 . S
C1056 C1057 1.370 . S
C1056 C1058 1.363 . S
C1056 H1072 0.931 . S
C1057 C1056 1.370 . S
C1057 C1061 1.408 . S
C1058 C1056 1.363 . S
C1058 C1059 1.370 . S
C1058 C1062 1.524 . S
C1059 C1051 1.503 . S
C1059 C1058 1.370 . S
C1059 C1060 1.403 . S
C1060 C1059 1.403 . S
C1060 C1061 1.404 . S
C1060 C1063 1.539 . S
C1061 C1057 1.408 . S
C1061 C1060 1.404 . S
C1061 H1073 0.930 . S
C1062 C1058 1.524 . S
C1062 H1074 0.956 . S
C1062 H1075 0.961 . S
C1062 H1076 0.961 . S
C1063 C1060 1.539 . S
C1063 H1077 0.958 . S
C1063 H1078 0.961 . S
C1063 H1079 0.960 . S
H1064 C1048 0.931 . S
H1065 C1053 0.929 . S
H1066 C1054 0.960 . S
H1067 C1054 0.962 . S
H1068 C1054 0.960 . S
H1069 C1055 0.961 . S
H1070 C1055 0.961 . S
H1071 C1055 0.961 . S
H1072 C1056 0.931 . S
H1073 C1061 0.930 . S
H1074 C1062 0.956 . S
H1075 C1062 0.961 . S
H1076 C1062 0.961 . S
H1077 C1063 0.958 . S
H1078 C1063 0.961 . S
H1079 C1063 0.960 . S
C1080 C1081 1.391 . S
C1080 C1082 1.394 . S
C1080 H1096 0.931 . S
C1081 C1080 1.391 . S
C1081 C1085 1.376 . S
C1082 C1080 1.394 . S
C1082 C1083 1.369 . S
C1082 C1086 1.531 . S
C1083 C1082 1.369 . S
C1083 C1084 1.410 . S
C1083 C1091 1.503 . S
C1084 C1083 1.410 . S
C1084 C1085 1.392 . S
C1084 C1087 1.511 . S
C1085 C1081 1.376 . S
C1085 C1084 1.392 . S
C1085 H1097 0.929 . S
C1086 C1082 1.531 . S
C1086 H1098 0.960 . S
C1086 H1099 0.962 . S
C1086 H1100 0.960 . S
C1087 C1084 1.511 . S
C1087 H1101 0.961 . S
C1087 H1102 0.961 . S
C1087 H1103 0.961 . S
C1088 C1089 1.370 . S
C1088 C1090 1.363 . S
C1088 H1104 0.931 . S
C1089 C1088 1.370 . S
C1089 C1093 1.408 . S
C1090 C1088 1.363 . S
C1090 C1091 1.370 . S
C1090 C1094 1.524 . S
C1091 C1083 1.503 . S
C1091 C1090 1.370 . S
C1091 C1092 1.403 . S
C1092 C1091 1.403 . S
C1092 C1093 1.404 . S
C1092 C1095 1.539 . S
C1093 C1089 1.408 . S
C1093 C1092 1.404 . S
C1093 H1105 0.930 . S
C1094 C1090 1.524 . S
C1094 H1106 0.956 . S
C1094 H1107 0.961 . S
C1094 H1108 0.961 . S
C1095 C1092 1.539 . S
C1095 H1109 0.958 . S
C1095 H1110 0.961 . S
C1095 H1111 0.960 . S
H1096 C1080 0.931 . S
H1097 C1085 0.929 . S
H1098 C1086 0.960 . S
H1099 C1086 0.962 . S
H1100 C1086 0.960 . S
H1101 C1087 0.961 . S
H1102 C1087 0.961 . S
H1103 C1087 0.961 . S
H1104 C1088 0.931 . S
H1105 C1093 0.930 . S
H1106 C1094 0.956 . S
H1107 C1094 0.961 . S
H1108 C1094 0.961 . S
H1109 C1095 0.958 . S
H1110 C1095 0.961 . S
H1111 C1095 0.960 . S
C1112 C1113 1.391 . S
C1112 C1114 1.394 . S
C1112 H1128 0.931 . S
C1113 C1112 1.391 . S
C1113 C1117 1.376 . S
C1114 C1112 1.394 . S
C1114 C1115 1.369 . S
C1114 C1118 1.531 . S
C1115 C1114 1.369 . S
C1115 C1116 1.410 . S
C1115 C1123 1.503 . S
C1116 C1115 1.410 . S
C1116 C1117 1.392 . S
C1116 C1119 1.511 . S
C1117 C1113 1.376 . S
C1117 C1116 1.392 . S
C1117 H1129 0.929 . S
C1118 C1114 1.531 . S
C1118 H1130 0.960 . S
C1118 H1131 0.962 . S
C1118 H1132 0.960 . S
C1119 C1116 1.511 . S
C1119 H1133 0.961 . S
C1119 H1134 0.961 . S
C1119 H1135 0.961 . S
C1120 C1121 1.370 . S
C1120 C1122 1.363 . S
C1120 H1136 0.931 . S
C1121 C1120 1.370 . S
C1121 C1125 1.408 . S
C1122 C1120 1.363 . S
C1122 C1123 1.370 . S
C1122 C1126 1.524 . S
C1123 C1115 1.503 . S
C1123 C1122 1.370 . S
C1123 C1124 1.403 . S
C1124 C1123 1.403 . S
C1124 C1125 1.404 . S
C1124 C1127 1.539 . S
C1125 C1121 1.408 . S
C1125 C1124 1.404 . S
C1125 H1137 0.930 . S
C1126 C1122 1.524 . S
C1126 H1138 0.956 . S
C1126 H1139 0.961 . S
C1126 H1140 0.961 . S
C1127 C1124 1.539 . S
C1127 H1141 0.958 . S
C1127 H1142 0.961 . S
C1127 H1143 0.960 . S
H1128 C1112 0.931 . S
H1129 C1117 0.929 . S
H1130 C1118 0.960 . S
H1131 C1118 0.962 . S
H1132 C1118 0.960 . S
H1133 C1119 0.961 . S
H1134 C1119 0.961 . S
H1135 C1119 0.961 . S
H1136 C1120 0.931 . S
H1137 C1125 0.930 . S
H1138 C1126 0.956 . S
H1139 C1126 0.961 . S
H1140 C1126 0.961 . S
H1141 C1127 0.958 . S
H1142 C1127 0.961 . S
H1143 C1127 0.960 . S
C1144 C1145 1.391 . S
C1144 C1146 1.394 . S
C1144 H1160 0.931 . S
C1145 C1144 1.391 . S
C1145 C1149 1.376 . S
C1146 C1144 1.394 . S
C1146 C1147 1.369 . S
C1146 C1150 1.531 . S
C1147 C1146 1.369 . S
C1147 C1148 1.410 . S
C1147 C1155 1.503 . S
C1148 C1147 1.410 . S
C1148 C1149 1.392 . S
C1148 C1151 1.511 . S
C1149 C1145 1.376 . S
C1149 C1148 1.392 . S
C1149 H1161 0.929 . S
C1150 C1146 1.531 . S
C1150 H1162 0.960 . S
C1150 H1163 0.962 . S
C1150 H1164 0.960 . S
C1151 C1148 1.511 . S
C1151 H1165 0.961 . S
C1151 H1166 0.961 . S
C1151 H1167 0.961 . S
C1152 C1153 1.370 . S
C1152 C1154 1.363 . S
C1152 H1168 0.931 . S
C1153 C1152 1.370 . S
C1153 C1157 1.408 . S
C1154 C1152 1.363 . S
C1154 C1155 1.370 . S
C1154 C1158 1.524 . S
C1155 C1147 1.503 . S
C1155 C1154 1.370 . S
C1155 C1156 1.403 . S
C1156 C1155 1.403 . S
C1156 C1157 1.404 . S
C1156 C1159 1.539 . S
C1157 C1153 1.408 . S
C1157 C1156 1.404 . S
C1157 H1169 0.930 . S
C1158 C1154 1.524 . S
C1158 H1170 0.956 . S
C1158 H1171 0.961 . S
C1158 H1172 0.961 . S
C1159 C1156 1.539 . S
C1159 H1173 0.958 . S
C1159 H1174 0.961 . S
C1159 H1175 0.960 . S
H1160 C1144 0.931 . S
H1161 C1149 0.929 . S
H1162 C1150 0.960 . S
H1163 C1150 0.962 . S
H1164 C1150 0.960 . S
H1165 C1151 0.961 . S
H1166 C1151 0.961 . S
H1167 C1151 0.961 . S
H1168 C1152 0.931 . S
H1169 C1157 0.930 . S
H1170 C1158 0.956 . S
H1171 C1158 0.961 . S
H1172 C1158 0.961 . S
H1173 C1159 0.958 . S
H1174 C1159 0.961 . S
H1175 C1159 0.960 . S
C1176 C1177 1.391 . S
C1176 C1178 1.394 . S
C1176 H1192 0.931 . S
C1177 C1176 1.391 . S
C1177 C1181 1.376 . S
C1178 C1176 1.394 . S
C1178 C1179 1.369 . S
C1178 C1182 1.531 . S
C1179 C1178 1.369 . S
C1179 C1180 1.410 . S
C1179 C1187 1.503 . S
C1180 C1179 1.410 . S
C1180 C1181 1.392 . S
C1180 C1183 1.511 . S
C1181 C1177 1.376 . S
C1181 C1180 1.392 . S
C1181 H1193 0.929 . S
C1182 C1178 1.531 . S
C1182 H1194 0.960 . S
C1182 H1195 0.962 . S
C1182 H1196 0.960 . S
C1183 C1180 1.511 . S
C1183 H1197 0.961 1_455 S
C1183 H1198 0.961 . S
C1183 H1199 0.961 . S
C1184 C1185 1.370 . S
C1184 C1186 1.363 . S
C1184 H1200 0.931 . S
C1185 C1184 1.370 . S
C1185 C1189 1.408 . S
C1186 C1184 1.363 . S
C1186 C1187 1.370 . S
C1186 C1190 1.524 . S
C1187 C1179 1.503 . S
C1187 C1186 1.370 . S
C1187 C1188 1.403 . S
C1188 C1187 1.403 . S
C1188 C1189 1.404 . S
C1188 C1191 1.539 . S
C1189 C1185 1.408 . S
C1189 C1188 1.404 . S
C1189 H1201 0.930 . S
C1190 C1186 1.524 . S
C1190 H1202 0.956 . S
C1190 H1203 0.961 . S
C1190 H1204 0.961 . S
C1191 C1188 1.539 . S
C1191 H1205 0.958 . S
C1191 H1206 0.961 . S
C1191 H1207 0.960 . S
H1192 C1176 0.931 . S
H1193 C1181 0.929 . S
H1194 C1182 0.960 . S
H1195 C1182 0.962 . S
H1196 C1182 0.960 . S
H1197 C1183 0.961 1_655 S
H1198 C1183 0.961 . S
H1199 C1183 0.961 . S
H1200 C1184 0.931 . S
H1201 C1189 0.930 . S
H1202 C1190 0.956 . S
H1203 C1190 0.961 . S
H1204 C1190 0.961 . S
H1205 C1191 0.958 . S
H1206 C1191 0.961 . S
H1207 C1191 0.960 . S
C1208 C1209 1.391 . S
C1208 C1210 1.394 . S
C1208 H1224 0.931 . S
C1209 C1208 1.391 . S
C1209 C1213 1.376 . S
C1210 C1208 1.394 . S
C1210 C1211 1.369 . S
C1210 C1214 1.531 . S
C1211 C1210 1.369 . S
C1211 C1212 1.410 . S
C1211 C1219 1.503 . S
C1212 C1211 1.410 . S
C1212 C1213 1.392 . S
C1212 C1215 1.511 . S
C1213 C1209 1.376 . S
C1213 C1212 1.392 . S
C1213 H1225 0.929 . S
C1214 C1210 1.531 . S
C1214 H1226 0.960 . S
C1214 H1227 0.962 . S
C1214 H1228 0.960 . S
C1215 C1212 1.511 . S
C1215 H1229 0.961 . S
C1215 H1230 0.961 . S
C1215 H1231 0.961 . S
C1216 C1217 1.370 . S
C1216 C1218 1.363 . S
C1216 H1232 0.931 . S
C1217 C1216 1.370 . S
C1217 C1221 1.408 . S
C1218 C1216 1.363 . S
C1218 C1219 1.370 . S
C1218 C1222 1.524 . S
C1219 C1211 1.503 . S
C1219 C1218 1.370 . S
C1219 C1220 1.403 . S
C1220 C1219 1.403 . S
C1220 C1221 1.404 . S
C1220 C1223 1.539 . S
C1221 C1217 1.408 . S
C1221 C1220 1.404 . S
C1221 H1233 0.930 . S
C1222 C1218 1.524 . S
C1222 H1234 0.956 . S
C1222 H1235 0.961 . S
C1222 H1236 0.961 . S
C1223 C1220 1.539 . S
C1223 H1237 0.958 . S
C1223 H1238 0.961 . S
C1223 H1239 0.960 . S
H1224 C1208 0.931 . S
H1225 C1213 0.929 . S
H1226 C1214 0.960 . S
H1227 C1214 0.962 . S
H1228 C1214 0.960 . S
H1229 C1215 0.961 . S
H1230 C1215 0.961 . S
H1231 C1215 0.961 . S
H1232 C1216 0.931 . S
H1233 C1221 0.930 . S
H1234 C1222 0.956 . S
H1235 C1222 0.961 . S
H1236 C1222 0.961 . S
H1237 C1223 0.958 . S
H1238 C1223 0.961 . S
H1239 C1223 0.960 . S
C473 C1 1.214 . S
C481 C329 1.244 . S
C505 C40 1.243 . S
C513 C369 1.233 . S
C545 C394 2.385 . S
C537 C99 2.433 . S
C569 C118 2.416 . S
C577 C434 2.374 . S
C609 C365 1.827 . S
C601 C16 1.725 . S
C641 C325 1.825 . S
C633 C60 1.768 . S
C673 C456 1.683 . S
C665 C79 1.709 . S
C705 C416 1.653 . S
C697 C138 1.674 . S
C729 C21 1.398 . S
C737 C458 1.388 . S
C769 C375 2.150 . S
C761 C94 2.198 . S
C793 C133 2.161 . S
C801 C335 2.131 . S
C825 C55 1.402 . S
C833 C418 1.388 . S
C865 C338 1.251 . S
C857 C157 1.225 . S
C889 C196 1.249 . S
C897 C378 1.232 . S
C921 C255 2.433 . S
C929 C415 2.370 . S
C953 C289 2.417 . S
C961 C455 2.357 . S
C985 C172 1.726 . S
C993 C376 1.823 . S
C1025 C336 1.829 . S
C1017 C216 1.720 . S
C1057 C445 1.688 . S
C1049 C235 1.691 . S
C1089 C405 1.653 . S
C1081 C294 1.655 . S
C1113 C177 1.338 . S
C1121 C449 1.407 . S
C1153 C354 2.160 . S
C1145 C250 2.187 . S
C1185 C314 2.129 . S
C1177 C274 2.166 . S
C1209 C211 1.398 . S
C1217 C409 1.393 . S
