# Generated by pormake.
# Topology sit, (3,6)-cn, num edge types: 1
# Building blocks:
#     Node 0, Type 0, BuildingBlock: QEWDON_clean_linker_0, # of connection points: 3
#     Node 1, Type 0, BuildingBlock: QEWDON_clean_linker_0, # of connection points: 3
#     Node 2, Type 0, BuildingBlock: QEWDON_clean_linker_0, # of connection points: 3
#     Node 3, Type 0, BuildingBlock: QEWDON_clean_linker_0, # of connection points: 3
#     Node 4, Type 1, BuildingBlock: MIDCAF_clean_sbu_0, # of connection points: 6
#     Node 5, Type 1, BuildingBlock: MIDCAF_clean_sbu_0, # of connection points: 6
#     Edge 6, Type (0, 1), BuildingBlock: FUNLAD_clean_linker_0, # of connection points: 2
#     Edge 7, Type (0, 1), BuildingBlock: FUNLAD_clean_linker_0, # of connection points: 2
#     Edge 8, Type (0, 1), BuildingBlock: FUNLAD_clean_linker_0, # of connection points: 2
#     Edge 9, Type (0, 1), BuildingBlock: FUNLAD_clean_linker_0, # of connection points: 2
#     Edge 10, Type (0, 1), BuildingBlock: FUNLAD_clean_linker_0, # of connection points: 2
#     Edge 11, Type (0, 1), BuildingBlock: FUNLAD_clean_linker_0, # of connection points: 2
#     Edge 12, Type (0, 1), BuildingBlock: FUNLAD_clean_linker_0, # of connection points: 2
#     Edge 13, Type (0, 1), BuildingBlock: FUNLAD_clean_linker_0, # of connection points: 2
#     Edge 14, Type (0, 1), BuildingBlock: FUNLAD_clean_linker_0, # of connection points: 2
#     Edge 15, Type (0, 1), BuildingBlock: FUNLAD_clean_linker_0, # of connection points: 2
#     Edge 16, Type (0, 1), BuildingBlock: FUNLAD_clean_linker_0, # of connection points: 2
#     Edge 17, Type (0, 1), BuildingBlock: FUNLAD_clean_linker_0, # of connection points: 2
# Relax obj value: 0.077
# Max RMSD: 0.184
# Mean RMSD: 0.152
data_MOF--net-sit--node1-MIDCAF_clean_sbu_0--node2-QEWDON_clean_linker_0--edge1-FUNLAD_clean_linker_0
_symmetry_space_group_name_H-M    P1
_symmetry_Int_Tables_number       1
_symmetry_cell_setting            triclinic
loop_
_symmetry_equiv_pos_as_xyz
'x, y, z'
_cell_length_a     25.277954
_cell_length_b     38.337664
_cell_length_c     46.301357
_cell_angle_alpha  89.761702
_cell_angle_beta   84.983859
_cell_angle_gamma 81.319312
loop_
_atom_site_label
_atom_site_type_symbol
_atom_site_fract_x
_atom_site_fract_y
_atom_site_fract_z
_atom_type_partial_charge
H0 H 0.17041 0.31475 0.02127 0.0
C1 C 0.13129 0.32898 0.01739 0.0
C2 C 0.12595 0.36457 0.00911 0.0
C3 C 0.08672 0.31107 0.01979 0.0
H4 H 0.07119 0.40877 -0.0047 0.0
C5 C 0.07498 0.38212 0.00359 0.0
C6 C 0.02984 0.36458 0.00592 0.0
C7 C 0.03595 0.32907 0.01463 0.0
C8 C 0.09474 0.27246 0.02377 0.0
H9 H 0.00187 0.31486 0.01595 0.0
C10 C 0.07295 0.25727 0.04887 0.0
C11 C 0.08185 0.22034 0.05252 0.0
C12 C 0.12485 0.25067 0.00207 0.0
H13 H 0.14181 0.26198 0.98254 0.0
C14 C 0.13275 0.21413 0.00523 0.0
H15 H 0.05075 0.2743 0.06583 0.0
C16 C 0.11147 0.199 0.03023 0.0
H17 H 0.11813 0.17053 0.03207 0.0
H18 H 0.1556 0.19746 0.98827 0.0
H19 H 0.05213 0.76854 0.04442 0.0
C20 C 0.02346 0.7597 0.0311 0.0
C21 C 0.04195 0.74108 0.00512 0.0
C22 C -0.03188 0.76609 0.04017 0.0
H23 H 0.01893 0.71342 0.96889 0.0
C24 C 0.00476 0.72857 0.98851 0.0
C25 C 0.94972 0.73431 -0.00266 0.0
C26 C 0.93163 0.75371 0.02282 0.0
C27 C 0.94789 0.78375 0.06845 0.0
H28 H 0.88903 0.75822 0.02964 0.0
C29 C -0.03234 0.81391 0.07787 0.0
C30 C 0.9457 0.83115 0.10403 0.0
C31 C 0.9073 0.77052 0.08608 0.0
H32 H 0.8922 0.74689 0.07993 0.0
C33 C 0.88587 0.78739 0.112 0.0
H34 H -0.00118 0.82451 0.06458 0.0
C35 C 0.90461 0.81758 0.12087 0.0
H36 H 0.88765 0.82998 0.14128 0.0
H37 H 0.85466 0.77693 0.12532 0.0
H38 H 0.63848 0.82468 0.53486 0.0
C39 C 0.60374 0.84083 0.52705 0.0
C40 C 0.60764 0.87507 0.51679 0.0
C41 C 0.5562 0.82642 0.52533 0.0
H42 H 0.56604 0.92074 0.49648 0.0
C43 C 0.56259 0.89515 0.50587 0.0
C44 C 0.51486 0.88111 0.50408 0.0
C45 C 0.51191 0.84679 0.51409 0.0
C46 C 0.55463 0.78869 0.53161 0.0
H47 H 0.47552 0.83544 0.51236 0.0
C48 C 0.56476 0.77451 0.55902 0.0
C49 C 0.56207 0.73857 0.5646 0.0
C50 C 0.54251 0.76666 0.50973 0.0
H51 H 0.53488 0.77701 0.48843 0.0
C52 C 0.54055 0.73106 0.51502 0.0
H53 H 0.57415 0.79145 0.57593 0.0
C54 C 0.55011 0.71707 0.54224 0.0
H55 H 0.54697 0.68951 0.54595 0.0
H56 H 0.53114 0.7143 0.49803 0.0
H57 H 0.53051 0.25434 0.56811 0.0
C58 C 0.5031 0.24374 0.55502 0.0
C59 C 0.52324 0.2161 0.53528 0.0
C60 C 0.44752 0.25659 0.55852 0.0
H61 H 0.50325 0.18061 0.50338 0.0
C62 C 0.48772 0.20144 0.51902 0.0
C63 C 0.43273 0.21415 0.5218 0.0
C64 C 0.41301 0.24205 0.54116 0.0
C65 C 0.42457 0.28393 0.58096 0.0
H66 H 0.3704 0.25201 0.54296 0.0
C67 C 0.4523 0.31175 0.58783 0.0
C68 C 0.42948 0.33739 0.60895 0.0
C69 C 0.37411 0.28203 0.59594 0.0
H70 H 0.35231 0.26051 0.59212 0.0
C71 C 0.35127 0.30752 0.61653 0.0
H72 H 0.49108 0.31384 0.57657 0.0
C73 C 0.37856 0.33502 0.62299 0.0
H74 H 0.36042 0.35389 0.63968 0.0
H75 H 0.3125 0.30564 0.62787 0.0
Zn76 Zn 0.00678 0.12783 0.34931 0.0
Zn77 Zn 0.06361 0.98987 0.35121 0.0
Zn78 Zn 0.0309 0.05879 0.35316 0.0
C79 C 0.0447 1.00691 0.29536 0.0
C80 C -0.03276 1.00441 0.38879 0.0
O81 O 0.09586 0.08374 0.3694 0.0
O82 O 0.07758 0.14007 0.35764 0.0
C83 C 0.00281 0.10328 0.29444 0.0
O84 O 0.03068 1.03725 0.30809 0.0
O85 O 0.06358 0.98046 0.30953 0.0
O86 O 0.00138 0.97952 0.37765 0.0
O87 O -0.02893 1.0367 0.38231 0.0
O88 O -0.01245 0.13138 0.30887 0.0
O89 O 0.02123 0.07459 0.30728 0.0
O90 O -0.04333 0.07401 0.38212 0.0
O91 O 0.9493 0.13234 0.38163 0.0
C92 C 0.93318 0.10461 0.39135 0.0
O93 O 0.10947 1.04677 0.37216 0.0
O94 O 0.13347 0.98894 0.36724 0.0
C95 C 0.10815 0.11519 0.36832 0.0
C96 C 0.14288 1.01845 0.37561 0.0
Zn97 Zn 0.52707 0.67356 0.85074 0.0
Zn98 Zn 0.57324 0.48461 0.85321 0.0
Zn99 Zn 0.55385 0.54958 0.85311 0.0
C100 C 0.55715 0.50282 0.79581 0.0
C101 C 0.47987 0.50638 0.89162 0.0
O102 O 0.6187 0.57295 0.8693 0.0
O103 O 0.56956 0.62253 0.85928 0.0
C104 C 0.54084 0.60458 0.80837 0.0
O105 O 0.55146 0.53392 0.80716 0.0
O106 O 0.56631 0.47599 0.81157 0.0
O107 O 0.51288 0.47946 0.88322 0.0
O108 O 0.48608 0.53699 0.88175 0.0
O109 O 0.53659 0.62134 0.83255 0.0
O110 O 0.54794 0.57083 0.80961 0.0
O111 O 0.48133 0.57405 0.87913 0.0
O112 O 0.50806 0.62262 0.86317 0.0
C113 C 0.47336 0.60786 0.87867 0.0
O114 O 0.63178 0.53633 0.87235 0.0
O115 O 0.64644 0.47851 0.86615 0.0
C116 C 0.6124 0.60672 0.86922 0.0
C117 C 0.66156 0.50629 0.87476 0.0
C118 C 0.09446 0.17583 0.09221 0.0
C119 C 0.06209 0.20405 0.07981 0.0
C120 C 0.07699 0.16101 0.11826 0.0
C121 C 0.02651 0.17404 0.13259 0.0
C122 C -0.00588 0.20216 0.12019 0.0
C123 C 0.01153 0.21692 0.09403 0.0
C124 C 0.00849 0.16115 0.1616 0.0
C125 C 0.02688 0.12906 0.17199 0.0
C126 C 0.01522 0.11882 0.20266 0.0
C127 C 0.05253 0.09362 0.2152 0.0
C128 C 0.04705 0.08694 0.24495 0.0
C129 C 0.00364 0.10498 0.26259 0.0
H130 H 0.93884 0.1534 0.21113 0.0
C131 C -0.03559 0.12838 0.24979 0.0
C132 C -0.03021 0.13501 0.22009 0.0
H133 H 0.93029 0.14239 0.26293 0.0
H134 H 0.13417 0.1658 0.08222 0.0
H135 H 0.10414 0.14031 0.12753 0.0
H136 H -0.04472 0.21295 0.13088 0.0
H137 H -0.01465 0.23839 0.08497 0.0
H138 H -0.01948 0.17976 0.17516 0.0
H139 H 0.05482 0.1105 0.15835 0.0
H140 H 0.08758 0.08044 0.20226 0.0
H141 H 0.07823 0.06911 0.25435 0.0
C142 C 0.92961 0.89196 0.12569 0.0
C143 C -0.03405 0.86266 0.11475 0.0
C144 C 0.94745 0.91909 0.14044 0.0
C145 C 0.00222 0.91726 0.14496 0.0
C146 C 0.03891 0.88922 0.13201 0.0
C147 C 0.02102 0.8622 0.11704 0.0
C148 C 0.02236 0.94174 0.16498 0.0
C149 C -0.00954 0.96286 0.18482 0.0
C150 C 0.01046 0.97919 0.21012 0.0
C151 C -0.02395 1.00592 0.22614 0.0
C152 C -0.01127 1.01696 0.25317 0.0
C153 C 0.0361 1.00139 0.26468 0.0
H154 H 0.08669 0.94399 0.21005 0.0
C155 C 0.07191 0.97614 0.24803 0.0
C156 C 0.0594 0.96516 0.22107 0.0
H157 H 0.1086 0.96356 0.25652 0.0
H158 H 0.88697 0.89332 0.12365 0.0
H159 H 0.91771 0.94069 0.14884 0.0
H160 H 0.08139 0.88718 0.13479 0.0
H161 H 0.04993 0.83995 0.10879 0.0
H162 H 0.06563 0.93956 0.16516 0.0
H163 H 0.94722 0.96623 0.18439 0.0
H164 H 0.93791 1.01705 0.21841 0.0
H165 H -0.04001 1.03605 0.26578 0.0
C166 C 0.54465 0.74163 0.6189 0.0
C167 C 0.56948 0.72342 0.59384 0.0
C168 C 0.54712 0.72573 0.64612 0.0
C169 C 0.5744 0.69113 0.64881 0.0
C170 C 0.60122 0.67369 0.62389 0.0
C171 C 0.59866 0.68954 0.59674 0.0
C172 C 0.57587 0.67209 0.67691 0.0
C173 C 0.54003 0.68057 0.70005 0.0
C174 C 0.54079 0.66027 0.72749 0.0
C175 C 0.51973 0.67773 0.75351 0.0
C176 C 0.5196 0.6596 0.77975 0.0
C177 C 0.53974 0.62343 0.78047 0.0
H178 H 0.57521 0.60921 0.70845 0.0
C179 C 0.55975 0.60569 0.7544 0.0
C180 C 0.56026 0.62389 0.72814 0.0
H181 H 0.57567 0.57785 0.75429 0.0
H182 H 0.52186 0.76776 0.61738 0.0
H183 H 0.52744 0.74071 0.6648 0.0
H184 H 0.62324 0.64729 0.6253 0.0
H185 H 0.61905 0.67505 0.57791 0.0
H186 H 0.60701 0.64941 0.67813 0.0
H187 H 0.50904 0.70336 0.69932 0.0
H188 H 0.50386 0.70561 0.75358 0.0
H189 H 0.50343 0.67393 0.79946 0.0
C190 C 0.43249 0.39993 0.62383 0.0
C191 C 0.45935 0.36546 0.61808 0.0
C192 C 0.4574 0.42464 0.63761 0.0
C193 C 0.50974 0.41527 0.64614 0.0
C194 C 0.53804 0.38178 0.63812 0.0
C195 C 0.51314 0.35709 0.6243 0.0
C196 C 0.53453 0.4378 0.66567 0.0
C197 C 0.50602 0.46313 0.68338 0.0
C198 C 0.52734 0.47704 0.70931 0.0
C199 C 0.50103 0.50875 0.7225 0.0
C200 C 0.51328 0.51889 0.74993 0.0
C201 C 0.55149 0.49713 0.76477 0.0
H202 H 0.58847 0.43157 0.71483 0.0
C203 C 0.57982 0.46654 0.75094 0.0
C204 C 0.56803 0.4566 0.72359 0.0
H205 H 0.60952 0.44926 0.76191 0.0
H206 H 0.39141 0.40743 0.61859 0.0
H207 H 0.43476 0.45055 0.64218 0.0
H208 H 0.57859 0.37387 0.64409 0.0
H209 H 0.53493 0.33078 0.62016 0.0
H210 H 0.57709 0.43023 0.66796 0.0
H211 H 0.46381 0.47174 0.68092 0.0
H212 H 0.46919 0.52486 0.71215 0.0
H213 H 0.49051 0.54245 0.76024 0.0
C214 C 0.17192 0.41853 0.00884 0.0
C215 C 0.17408 0.38232 0.00289 0.0
C216 C 0.21548 0.43587 0.00013 0.0
C217 C 0.26216 0.41721 0.98542 0.0
C218 C 0.26517 0.38082 0.98068 0.0
C219 C 0.22158 0.36362 0.98905 0.0
C220 C 0.30844 0.43443 0.97424 0.0
C221 C 0.30435 0.46845 0.96599 0.0
C222 C 0.35021 0.48252 0.95016 0.0
C223 C 0.34036 0.5086 0.92902 0.0
C224 C 0.38288 0.51812 0.91068 0.0
C225 C 0.43563 0.50164 0.91338 0.0
H226 H 0.41311 0.44959 0.97125 0.0
C227 C 0.44578 0.47757 0.93584 0.0
C228 C 0.40366 0.46846 0.95431 0.0
H229 H 0.48638 0.46507 0.93867 0.0
H230 H 0.13632 0.43358 0.01997 0.0
H231 H 0.21243 0.46374 0.00493 0.0
H232 H 0.30079 0.36579 0.96951 0.0
H233 H 0.22457 0.33591 0.98364 0.0
H234 H 0.34641 0.4171 0.96971 0.0
H235 H 0.26539 0.48507 0.96773 0.0
H236 H 0.29959 0.52023 0.92566 0.0
H237 H 0.37425 0.53683 0.8935 0.0
C238 C 0.86183 0.73675 0.97511 0.0
C239 C 0.91178 0.71785 0.98096 0.0
C240 C 0.82598 0.72064 0.96021 0.0
C241 C 0.83949 0.68521 0.9509 0.0
C242 C 0.88922 0.66639 0.95702 0.0
C243 C 0.92502 0.6825 0.97175 0.0
C244 C 0.80241 0.66629 0.9359 0.0
C245 C 0.76215 0.68236 0.92106 0.0
C246 C 0.72529 0.6627 0.90653 0.0
C247 C 0.67378 0.67998 0.90176 0.0
C248 C 0.63732 0.66202 0.88912 0.0
C249 C 0.65182 0.62642 0.88086 0.0
H250 H 0.78046 0.61351 0.89916 0.0
C251 C 0.70398 0.6095 0.88453 0.0
C252 C 0.74044 0.62741 0.89715 0.0
H253 H 0.71678 0.58244 0.87748 0.0
H254 H 0.85051 0.76402 0.98202 0.0
H255 H 0.78749 0.73585 0.95669 0.0
H256 H 0.90048 0.63899 0.95042 0.0
H257 H -0.03725 0.66699 0.97642 0.0
H258 H 0.80928 0.63771 0.93713 0.0
H259 H 0.75471 0.71094 0.91996 0.0
H260 H 0.66126 0.70725 0.90841 0.0
H261 H 0.5974 0.6758 0.88645 0.0
C262 C -0.0391 0.41831 7e-05 0.0
C263 C -0.02128 0.38205 -0.00478 0.0
C264 C 0.91756 0.43577 0.98619 0.0
C265 C 0.89108 0.41719 0.9672 0.0
C266 C 0.9071 0.38064 0.96371 0.0
C267 C 0.95046 0.3633 0.97739 0.0
C268 C 0.84822 0.43438 0.94957 0.0
C269 C 0.83554 0.46942 0.94552 0.0
C270 C 0.79577 0.48307 0.92491 0.0
C271 C 0.75727 0.51288 0.93202 0.0
C272 C 0.71499 0.5225 0.91448 0.0
C273 C 0.7114 0.50262 0.88949 0.0
H274 H 0.82492 0.44309 0.89188 0.0
C275 C 0.7526 0.47481 0.88117 0.0
C276 C 0.79451 0.46527 0.89857 0.0
H277 H 0.7511 0.45934 0.8618 0.0
H278 H -0.01869 0.43339 0.01409 0.0
H279 H 0.90578 0.46374 0.99016 0.0
H280 H 0.88733 0.36554 0.94936 0.0
H281 H -0.03661 0.3355 0.97277 0.0
H282 H 0.82726 0.41673 0.93806 0.0
H283 H 0.85328 0.48834 0.95741 0.0
H284 H 0.75804 0.52736 0.95199 0.0
H285 H 0.68345 0.54393 0.92144 0.0
C286 C 0.11822 0.7358 0.96645 0.0
C287 C 0.10006 0.73211 -0.00432 0.0
C288 C 0.1705 0.72166 0.95603 0.0
C289 C 0.20625 0.70368 0.97472 0.0
C290 C 0.18875 0.70141 0.00425 0.0
C291 C 0.13626 0.71566 0.0147 0.0
C292 C 0.25973 0.68425 0.96363 0.0
C293 C 0.28569 0.69148 0.93812 0.0
C294 C 0.33565 0.66975 0.92485 0.0
C295 C 0.36674 0.68477 0.90294 0.0
C296 C 0.41176 0.66477 0.88828 0.0
C297 C 0.42655 0.62906 0.89498 0.0
H298 H 0.3273 0.62108 0.94802 0.0
C299 C 0.39591 0.61396 0.91706 0.0
C300 C 0.3508 0.63401 0.93182 0.0
H301 H 0.40672 0.58662 0.92291 0.0
H302 H 0.09114 0.7484 0.95131 0.0
H303 H 0.18143 0.7234 0.93302 0.0
H304 H 0.21521 0.68757 0.01913 0.0
H305 H 0.12316 0.71208 0.03728 0.0
H306 H 0.27783 0.66315 0.97696 0.0
H307 H 0.27005 0.71463 0.92617 0.0
H308 H 0.35582 0.71208 0.89688 0.0
H309 H 0.43424 0.67717 0.87126 0.0
C310 C 0.66355 0.92405 0.51701 0.0
C311 C 0.66027 0.88812 0.51288 0.0
C312 C 0.71008 0.93781 0.50727 0.0
C313 C 0.75437 0.91582 0.49316 0.0
C314 C 0.75255 0.87945 0.49134 0.0
C315 C 0.70606 0.86575 0.50096 0.0
C316 C 0.80116 0.92946 0.47776 0.0
C317 C 0.80263 0.96362 0.47105 0.0
C318 C 0.84505 0.97419 0.45006 0.0
C319 C 0.86386 1.00644 0.45358 0.0
C320 C 0.90354 1.01662 0.43362 0.0
C321 C 0.92356 0.99529 0.40935 0.0
H322 H 0.85019 0.92857 0.42171 0.0
C323 C 0.90398 0.96339 0.40563 0.0
C324 C 0.8651 0.953 0.42566 0.0
H325 H 0.9187 0.94641 0.38709 0.0
H326 H 0.62923 0.94183 0.52667 0.0
H327 H 0.71014 0.96576 0.51011 0.0
H328 H 0.78615 0.86174 0.48085 0.0
H329 H 0.70494 0.83801 0.49722 0.0
H330 H 0.83445 0.90984 0.46925 0.0
H331 H 0.77157 0.98434 0.47991 0.0
H332 H 0.84872 1.02336 0.47208 0.0
H333 H 0.91953 1.04061 0.43757 0.0
C334 C 0.3575 0.21884 0.4894 0.0
C335 C 0.39621 0.19783 0.50447 0.0
C336 C 0.32445 0.20321 0.47232 0.0
C337 C 0.32952 0.16621 0.47003 0.0
C338 C 0.36737 0.1453 0.48565 0.0
C339 C 0.40066 0.16091 0.50253 0.0
C340 C 0.29435 0.14865 0.45267 0.0
C341 C 0.27299 0.16334 0.42904 0.0
C342 C 0.23463 0.14732 0.41264 0.0
C343 C 0.22638 0.15894 0.38434 0.0
C344 C 0.18673 0.14724 0.36927 0.0
C345 C 0.15481 0.12357 0.38223 0.0
H346 H 0.20625 0.11462 0.44752 0.0
C347 C 0.16323 0.11164 0.41031 0.0
C348 C 0.20286 0.12322 0.4254 0.0
H349 H 0.13679 0.09516 0.42127 0.0
H350 H 0.35325 0.24736 0.49053 0.0
H351 H 0.2945 0.22019 0.46134 0.0
H352 H 0.37153 0.11677 0.48461 0.0
H353 H 0.4297 0.14408 0.51426 0.0
H354 H 0.28754 0.12233 0.45914 0.0
H355 H 0.28434 0.18811 0.42107 0.0
H356 H 0.24979 0.17779 0.3741 0.0
H357 H 0.18012 0.15732 0.34778 0.0
C358 C 0.455 0.93717 0.49273 0.0
C359 C 0.47089 0.90066 0.48848 0.0
C360 C 0.41654 0.95587 0.4762 0.0
C361 C 0.39335 0.93831 0.45504 0.0
C362 C 0.40909 0.90184 0.45101 0.0
C363 C 0.4472 0.88319 0.46757 0.0
C364 C 0.354 0.95684 0.43602 0.0
C365 C 0.32258 0.98788 0.44263 0.0
C366 C 0.27924 1.00225 0.42429 0.0
C367 C 0.22917 1.01753 0.43762 0.0
C368 C 0.18495 1.02527 0.42128 0.0
C369 C 0.1907 1.01895 0.39129 0.0
H370 H 0.32407 0.98714 0.38293 0.0
C371 C 0.24149 1.00603 0.37762 0.0
C372 C 0.28559 0.99801 0.39394 0.0
H373 H 0.24648 1.00052 0.35453 0.0
H374 H 0.47274 0.95133 0.50865 0.0
H375 H 0.40629 0.98407 0.47957 0.0
H376 H 0.39213 0.88767 0.43477 0.0
H377 H 0.45935 0.85524 0.46332 0.0
H378 H 0.3479 0.94278 0.41653 0.0
H379 H 0.32409 1.00074 0.46332 0.0
H380 H 0.22333 1.02111 0.46095 0.0
H381 H 0.14565 1.03399 0.43235 0.0
C382 C 0.5993 0.16623 0.52864 0.0
C383 C 0.58141 0.20277 0.53015 0.0
C384 C 0.65165 0.15314 0.51757 0.0
C385 C 0.68702 0.17642 0.50752 0.0
C386 C 0.67047 0.21293 0.51139 0.0
C387 C 0.61805 0.22603 0.52256 0.0
C388 C 0.74009 0.16386 0.49156 0.0
C389 C 0.75087 0.13331 0.47621 0.0
C390 C 0.80036 0.12345 0.45627 0.0
C391 C 0.79974 0.09925 0.43355 0.0
C392 C 0.84369 0.0919 0.41274 0.0
C393 C 0.88905 0.10847 0.41453 0.0
H394 H 0.85055 0.1561 0.47643 0.0
C395 C 0.89073 0.13141 0.43783 0.0
C396 C 0.84721 0.13852 0.4587 0.0
H397 H 0.92572 0.14419 0.43975 0.0
H398 H 0.57198 0.14774 0.5349 0.0
H399 H 0.66359 0.12484 0.51624 0.0
H400 H 0.6972 0.23146 0.50427 0.0
H401 H 0.60522 0.25431 0.52348 0.0
H402 H 0.76866 0.18238 0.48991 0.0
H403 H 0.7202 0.11635 0.47588 0.0
H404 H 0.76449 0.08688 0.43132 0.0
H405 H 0.84164 0.07415 0.39486 0.0
loop_
_geom_bond_atom_site_label_1
_geom_bond_atom_site_label_2
_geom_bond_distance
_geom_bond_site_symmetry_2
_ccdc_geom_bond_type
H0 C1 0.949 . S
C1 H0 0.949 . S
C1 C2 1.395 . S
C1 C3 1.391 . S
C2 C1 1.395 . S
C2 C5 1.390 1_554 S
C3 C1 1.391 . S
C3 C7 1.387 . S
C3 C8 1.491 . S
H4 C5 0.950 . S
C5 C2 1.390 1_556 S
C5 H4 0.950 . S
C5 C6 1.378 . S
C6 C5 1.378 . S
C6 C7 1.409 1_556 S
C7 C3 1.387 . S
C7 C6 1.409 1_554 S
C7 H9 0.951 . S
C8 C3 1.491 . S
C8 C10 1.382 . S
C8 C12 1.404 . S
H9 C7 0.951 . S
C10 C8 1.382 . S
C10 C11 1.390 . S
C10 H15 0.949 . S
C11 C10 1.390 . S
C11 C16 1.399 . S
C12 C8 1.404 . S
C12 H13 0.950 . S
C12 C14 1.375 . S
H13 C12 0.950 . S
C14 C12 1.375 . S
C14 C16 1.382 . S
C14 H18 0.950 . S
H15 C10 0.949 . S
C16 C11 1.399 . S
C16 C14 1.382 . S
C16 H17 0.952 . S
H17 C16 0.952 . S
H18 C14 0.950 . S
H19 C20 0.949 . S
C20 H19 0.949 . S
C20 C21 1.395 . S
C20 C22 1.391 1_455 S
C21 C20 1.395 . S
C21 C24 1.390 1_554 S
C22 C20 1.391 1_655 S
C22 C26 1.387 . S
C22 C27 1.491 . S
H23 C24 0.950 . S
C24 C21 1.390 1_556 S
C24 H23 0.950 . S
C24 C25 1.378 1_456 S
C25 C24 1.378 1_654 S
C25 C26 1.409 . S
C26 C22 1.387 . S
C26 C25 1.409 . S
C26 H28 0.951 . S
C27 C22 1.491 . S
C27 C29 1.377 1_655 S
C27 C31 1.404 . S
H28 C26 0.951 . S
C29 C27 1.377 1_455 S
C29 C30 1.389 1_455 S
C29 H34 0.955 . S
C30 C29 1.389 1_655 S
C30 C35 1.399 . S
C31 C27 1.404 . S
C31 H32 0.950 . S
C31 C33 1.375 . S
H32 C31 0.950 . S
C33 C31 1.375 . S
C33 C35 1.382 . S
C33 H37 0.950 . S
H34 C29 0.955 . S
C35 C30 1.399 . S
C35 C33 1.382 . S
C35 H36 0.952 . S
H36 C35 0.952 . S
H37 C33 0.950 . S
H38 C39 0.949 . S
C39 H38 0.949 . S
C39 C40 1.395 . S
C39 C41 1.391 . S
C40 C39 1.395 . S
C40 C43 1.390 . S
C41 C39 1.391 . S
C41 C45 1.387 . S
C41 C46 1.491 . S
H42 C43 0.950 . S
C43 C40 1.390 . S
C43 H42 0.950 . S
C43 C44 1.378 . S
C44 C43 1.378 . S
C44 C45 1.409 . S
C45 C41 1.387 . S
C45 C44 1.409 . S
C45 H47 0.951 . S
C46 C41 1.491 . S
C46 C48 1.382 . S
C46 C50 1.404 . S
H47 C45 0.951 . S
C48 C46 1.382 . S
C48 C49 1.390 . S
C48 H53 0.949 . S
C49 C48 1.390 . S
C49 C54 1.399 . S
C50 C46 1.404 . S
C50 H51 0.950 . S
C50 C52 1.375 . S
H51 C50 0.950 . S
C52 C50 1.375 . S
C52 C54 1.382 . S
C52 H56 0.950 . S
H53 C48 0.949 . S
C54 C49 1.399 . S
C54 C52 1.382 . S
C54 H55 0.952 . S
H55 C54 0.952 . S
H56 C52 0.950 . S
H57 C58 0.949 . S
C58 H57 0.949 . S
C58 C59 1.395 . S
C58 C60 1.391 . S
C59 C58 1.395 . S
C59 C62 1.390 . S
C60 C58 1.391 . S
C60 C64 1.387 . S
C60 C65 1.491 . S
H61 C62 0.950 . S
C62 C59 1.390 . S
C62 H61 0.950 . S
C62 C63 1.378 . S
C63 C62 1.378 . S
C63 C64 1.409 . S
C64 C60 1.387 . S
C64 C63 1.409 . S
C64 H66 0.951 . S
C65 C60 1.491 . S
C65 C67 1.382 . S
C65 C69 1.404 . S
H66 C64 0.951 . S
C67 C65 1.382 . S
C67 C68 1.390 . S
C67 H72 0.949 . S
C68 C67 1.390 . S
C68 C73 1.399 . S
C69 C65 1.404 . S
C69 H70 0.950 . S
C69 C71 1.375 . S
H70 C69 0.950 . S
C71 C69 1.375 . S
C71 C73 1.382 . S
C71 H75 0.950 . S
H72 C67 0.949 . S
C73 C68 1.399 . S
C73 C71 1.382 . S
C73 H74 0.952 . S
H74 C73 0.952 . S
H75 C71 0.950 . S
Zn76 O82 1.920 . S
Zn76 O88 1.898 . S
Zn76 O91 1.905 1_455 S
Zn77 O85 1.905 . S
Zn77 O86 1.898 . S
Zn77 O94 1.920 . S
Zn78 O81 2.080 . S
Zn78 O84 2.114 1_545 S
Zn78 O87 2.120 1_545 S
Zn78 O89 2.120 . S
Zn78 O90 2.114 . S
Zn78 O93 2.080 1_545 S
C79 O84 1.166 . S
C79 O85 1.182 . S
C80 O86 1.167 . S
C80 O87 1.299 . S
O81 Zn78 2.080 . S
O81 C95 1.305 . S
O82 Zn76 1.920 . S
O82 C95 1.234 . S
C83 O88 1.167 . S
C83 O89 1.299 . S
O84 Zn78 2.114 1_565 S
O84 C79 1.166 . S
O85 Zn77 1.905 . S
O85 C79 1.182 . S
O86 Zn77 1.898 . S
O86 C80 1.167 . S
O87 Zn78 2.120 1_565 S
O87 C80 1.299 . S
O88 Zn76 1.898 . S
O88 C83 1.167 . S
O89 Zn78 2.120 . S
O89 C83 1.299 . S
O90 Zn78 2.114 . S
O90 C92 1.166 1_455 S
O91 Zn76 1.905 1_655 S
O91 C92 1.182 . S
C92 O90 1.166 1_655 S
C92 O91 1.182 . S
O93 Zn78 2.080 1_565 S
O93 C96 1.305 . S
O94 Zn77 1.920 . S
O94 C96 1.234 . S
C95 O81 1.305 . S
C95 O82 1.234 . S
C96 O93 1.305 . S
C96 O94 1.234 . S
Zn97 O103 1.920 . S
Zn97 O109 1.898 . S
Zn97 O112 1.905 . S
Zn98 O106 1.905 . S
Zn98 O107 1.898 . S
Zn98 O115 1.920 . S
Zn99 O102 2.080 . S
Zn99 O105 2.114 . S
Zn99 O108 2.120 . S
Zn99 O110 2.120 . S
Zn99 O111 2.114 . S
Zn99 O114 2.080 . S
C100 O105 1.166 . S
C100 O106 1.182 . S
C101 O107 1.167 . S
C101 O108 1.299 . S
O102 Zn99 2.080 . S
O102 C116 1.305 . S
O103 Zn97 1.920 . S
O103 C116 1.234 . S
C104 O109 1.167 . S
C104 O110 1.299 . S
O105 Zn99 2.114 . S
O105 C100 1.166 . S
O106 Zn98 1.905 . S
O106 C100 1.182 . S
O107 Zn98 1.898 . S
O107 C101 1.167 . S
O108 Zn99 2.120 . S
O108 C101 1.299 . S
O109 Zn97 1.898 . S
O109 C104 1.167 . S
O110 Zn99 2.120 . S
O110 C104 1.299 . S
O111 Zn99 2.114 . S
O111 C113 1.166 . S
O112 Zn97 1.905 . S
O112 C113 1.182 . S
C113 O111 1.166 . S
C113 O112 1.182 . S
O114 Zn99 2.080 . S
O114 C117 1.305 . S
O115 Zn98 1.920 . S
O115 C117 1.234 . S
C116 O102 1.305 . S
C116 O103 1.234 . S
C117 O114 1.305 . S
C117 O115 1.234 . S
C118 C119 1.386 . S
C118 C120 1.383 . S
C118 H134 0.951 . S
C119 C118 1.386 . S
C119 C123 1.383 . S
C120 C118 1.383 . S
C120 C121 1.402 . S
C120 H135 0.951 . S
C121 C120 1.402 . S
C121 C122 1.375 . S
C121 C124 1.481 . S
C122 C121 1.375 . S
C122 C123 1.367 . S
C122 H136 0.951 . S
C123 C119 1.383 . S
C123 C122 1.367 . S
C123 H137 0.950 . S
C124 C121 1.481 . S
C124 C125 1.297 . S
C124 H138 0.950 . S
C125 C124 1.297 . S
C125 C126 1.479 . S
C125 H139 0.950 . S
C126 C125 1.479 . S
C126 C127 1.375 . S
C126 C132 1.404 . S
C127 C126 1.375 . S
C127 C128 1.369 . S
C127 H140 0.950 . S
C128 C127 1.369 . S
C128 C129 1.392 . S
C128 H141 0.951 . S
C129 C128 1.392 . S
C129 C131 1.384 . S
H130 C132 0.949 . S
C131 C129 1.384 . S
C131 C132 1.385 . S
C131 H133 0.950 . S
C132 C126 1.404 . S
C132 H130 0.949 . S
C132 C131 1.385 . S
H133 C131 0.950 . S
H134 C118 0.951 . S
H135 C120 0.951 . S
H136 C122 0.951 . S
H137 C123 0.950 . S
H138 C124 0.950 . S
H139 C125 0.950 . S
H140 C127 0.950 . S
H141 C128 0.951 . S
C142 C143 1.386 1_655 S
C142 C144 1.383 1_655 S
C142 H158 0.951 . S
C143 C142 1.386 1_455 S
C143 C147 1.383 . S
C144 C142 1.383 1_455 S
C144 C145 1.402 . S
C144 H159 0.951 1_455 S
C145 C144 1.402 . S
C145 C146 1.375 . S
C145 C148 1.481 . S
C146 C145 1.375 . S
C146 C147 1.367 . S
C146 H160 0.951 . S
C147 C143 1.383 . S
C147 C146 1.367 . S
C147 H161 0.950 . S
C148 C145 1.481 . S
C148 C149 1.297 . S
C148 H162 0.950 . S
C149 C148 1.297 . S
C149 C150 1.479 . S
C149 H163 0.950 1_455 S
C150 C149 1.479 . S
C150 C151 1.375 . S
C150 C156 1.404 . S
C151 C150 1.375 . S
C151 C152 1.369 . S
C151 H164 0.950 . S
C152 C151 1.369 . S
C152 C153 1.392 . S
C152 H165 0.951 . S
C153 C152 1.392 . S
C153 C155 1.384 . S
H154 C156 0.949 . S
C155 C153 1.384 . S
C155 C156 1.385 . S
C155 H157 0.950 . S
C156 C150 1.404 . S
C156 H154 0.949 . S
C156 C155 1.385 . S
H157 C155 0.950 . S
H158 C142 0.951 . S
H159 C144 0.951 1_655 S
H160 C146 0.951 . S
H161 C147 0.950 . S
H162 C148 0.950 . S
H163 C149 0.950 1_655 S
H164 C151 0.950 . S
H165 C152 0.951 . S
C166 C167 1.386 . S
C166 C168 1.383 . S
C166 H182 0.951 . S
C167 C166 1.386 . S
C167 C171 1.383 . S
C168 C166 1.383 . S
C168 C169 1.402 . S
C168 H183 0.951 . S
C169 C168 1.402 . S
C169 C170 1.375 . S
C169 C172 1.481 . S
C170 C169 1.375 . S
C170 C171 1.367 . S
C170 H184 0.951 . S
C171 C167 1.383 . S
C171 C170 1.367 . S
C171 H185 0.950 . S
C172 C169 1.481 . S
C172 C173 1.297 . S
C172 H186 0.950 . S
C173 C172 1.297 . S
C173 C174 1.479 . S
C173 H187 0.950 . S
C174 C173 1.479 . S
C174 C175 1.375 . S
C174 C180 1.404 . S
C175 C174 1.375 . S
C175 C176 1.369 . S
C175 H188 0.950 . S
C176 C175 1.369 . S
C176 C177 1.392 . S
C176 H189 0.951 . S
C177 C176 1.392 . S
C177 C179 1.384 . S
H178 C180 0.949 . S
C179 C177 1.384 . S
C179 C180 1.385 . S
C179 H181 0.950 . S
C180 C174 1.404 . S
C180 H178 0.949 . S
C180 C179 1.385 . S
H181 C179 0.950 . S
H182 C166 0.951 . S
H183 C168 0.951 . S
H184 C170 0.951 . S
H185 C171 0.950 . S
H186 C172 0.950 . S
H187 C173 0.950 . S
H188 C175 0.950 . S
H189 C176 0.951 . S
C190 C191 1.386 . S
C190 C192 1.383 . S
C190 H206 0.951 . S
C191 C190 1.386 . S
C191 C195 1.383 . S
C192 C190 1.383 . S
C192 C193 1.402 . S
C192 H207 0.951 . S
C193 C192 1.402 . S
C193 C194 1.375 . S
C193 C196 1.481 . S
C194 C193 1.375 . S
C194 C195 1.367 . S
C194 H208 0.951 . S
C195 C191 1.383 . S
C195 C194 1.367 . S
C195 H209 0.950 . S
C196 C193 1.481 . S
C196 C197 1.297 . S
C196 H210 0.950 . S
C197 C196 1.297 . S
C197 C198 1.479 . S
C197 H211 0.950 . S
C198 C197 1.479 . S
C198 C199 1.375 . S
C198 C204 1.404 . S
C199 C198 1.375 . S
C199 C200 1.369 . S
C199 H212 0.950 . S
C200 C199 1.369 . S
C200 C201 1.392 . S
C200 H213 0.951 . S
C201 C200 1.392 . S
C201 C203 1.384 . S
H202 C204 0.949 . S
C203 C201 1.384 . S
C203 C204 1.385 . S
C203 H205 0.950 . S
C204 C198 1.404 . S
C204 H202 0.949 . S
C204 C203 1.385 . S
H205 C203 0.950 . S
H206 C190 0.951 . S
H207 C192 0.951 . S
H208 C194 0.951 . S
H209 C195 0.950 . S
H210 C196 0.950 . S
H211 C197 0.950 . S
H212 C199 0.950 . S
H213 C200 0.951 . S
C214 C215 1.386 . S
C214 C216 1.383 . S
C214 H230 0.951 . S
C215 C214 1.386 . S
C215 C219 1.383 1_556 S
C216 C214 1.383 . S
C216 C217 1.402 . S
C216 H231 0.951 . S
C217 C216 1.402 . S
C217 C218 1.375 . S
C217 C220 1.481 . S
C218 C217 1.375 . S
C218 C219 1.367 1_556 S
C218 H232 0.951 . S
C219 C215 1.383 1_554 S
C219 C218 1.367 1_554 S
C219 H233 0.950 . S
C220 C217 1.481 . S
C220 C221 1.297 . S
C220 H234 0.950 . S
C221 C220 1.297 . S
C221 C222 1.479 . S
C221 H235 0.950 . S
C222 C221 1.479 . S
C222 C223 1.375 . S
C222 C228 1.404 . S
C223 C222 1.375 . S
C223 C224 1.369 . S
C223 H236 0.950 . S
C224 C223 1.369 . S
C224 C225 1.392 . S
C224 H237 0.951 . S
C225 C224 1.392 . S
C225 C227 1.384 . S
H226 C228 0.949 . S
C227 C225 1.384 . S
C227 C228 1.385 . S
C227 H229 0.950 . S
C228 C222 1.404 . S
C228 H226 0.949 . S
C228 C227 1.385 . S
H229 C227 0.950 . S
H230 C214 0.951 . S
H231 C216 0.951 . S
H232 C218 0.951 . S
H233 C219 0.950 . S
H234 C220 0.950 . S
H235 C221 0.950 . S
H236 C223 0.950 . S
H237 C224 0.951 . S
C238 C239 1.386 . S
C238 C240 1.383 . S
C238 H254 0.951 1_556 S
C239 C238 1.386 . S
C239 C243 1.383 . S
C240 C238 1.383 . S
C240 C241 1.402 . S
C240 H255 0.951 . S
C241 C240 1.402 . S
C241 C242 1.375 . S
C241 C244 1.481 . S
C242 C241 1.375 . S
C242 C243 1.367 . S
C242 H256 0.951 . S
C243 C239 1.383 . S
C243 C242 1.367 . S
C243 H257 0.950 . S
C244 C241 1.481 . S
C244 C245 1.297 . S
C244 H258 0.950 . S
C245 C244 1.297 . S
C245 C246 1.479 . S
C245 H259 0.950 . S
C246 C245 1.479 . S
C246 C247 1.375 . S
C246 C252 1.404 . S
C247 C246 1.375 . S
C247 C248 1.369 . S
C247 H260 0.950 . S
C248 C247 1.369 . S
C248 C249 1.392 . S
C248 H261 0.951 . S
C249 C248 1.392 . S
C249 C251 1.384 . S
H250 C252 0.949 . S
C251 C249 1.384 . S
C251 C252 1.385 . S
C251 H253 0.950 . S
C252 C246 1.404 . S
C252 H250 0.949 . S
C252 C251 1.385 . S
H253 C251 0.950 . S
H254 C238 0.951 1_554 S
H255 C240 0.951 . S
H256 C242 0.951 . S
H257 C243 0.950 . S
H258 C244 0.950 . S
H259 C245 0.950 . S
H260 C247 0.950 . S
H261 C248 0.951 . S
C262 C263 1.386 1_655 S
C262 C264 1.383 . S
C262 H278 0.951 1_556 S
C263 C262 1.386 1_455 S
C263 C267 1.383 . S
C264 C262 1.383 . S
C264 C265 1.402 . S
C264 H279 0.951 . S
C265 C264 1.402 . S
C265 C266 1.375 1_655 S
C265 C268 1.481 . S
C266 C265 1.375 1_455 S
C266 C267 1.367 . S
C266 H280 0.951 . S
C267 C263 1.383 . S
C267 C266 1.367 . S
C267 H281 0.950 . S
C268 C265 1.481 . S
C268 C269 1.297 . S
C268 H282 0.950 . S
C269 C268 1.297 . S
C269 C270 1.479 . S
C269 H283 0.950 . S
C270 C269 1.479 . S
C270 C271 1.375 . S
C270 C276 1.404 . S
C271 C270 1.375 . S
C271 C272 1.369 . S
C271 H284 0.950 . S
C272 C271 1.369 . S
C272 C273 1.392 . S
C272 H285 0.951 . S
C273 C272 1.392 . S
C273 C275 1.384 . S
H274 C276 0.949 . S
C275 C273 1.384 . S
C275 C276 1.385 . S
C275 H277 0.950 . S
C276 C270 1.404 . S
C276 H274 0.949 . S
C276 C275 1.385 . S
H277 C275 0.950 . S
H278 C262 0.951 1_554 S
H279 C264 0.951 . S
H280 C266 0.951 . S
H281 C267 0.950 . S
H282 C268 0.950 . S
H283 C269 0.950 . S
H284 C271 0.950 . S
H285 C272 0.951 . S
C286 C287 1.386 . S
C286 C288 1.383 . S
C286 H302 0.951 . S
C287 C286 1.386 . S
C287 C291 1.383 . S
C288 C286 1.383 . S
C288 C289 1.402 . S
C288 H303 0.951 . S
C289 C288 1.402 . S
C289 C290 1.375 . S
C289 C292 1.481 . S
C290 C289 1.375 . S
C290 C291 1.367 . S
C290 H304 0.951 . S
C291 C287 1.383 . S
C291 C290 1.367 . S
C291 H305 0.940 1_556 S
C292 C289 1.481 . S
C292 C293 1.297 . S
C292 H306 0.950 . S
C293 C292 1.297 . S
C293 C294 1.479 . S
C293 H307 0.950 . S
C294 C293 1.479 . S
C294 C295 1.375 . S
C294 C300 1.404 . S
C295 C294 1.375 . S
C295 C296 1.369 . S
C295 H308 0.950 . S
C296 C295 1.369 . S
C296 C297 1.392 . S
C296 H309 0.951 . S
C297 C296 1.392 . S
C297 C299 1.384 . S
H298 C300 0.949 . S
C299 C297 1.384 . S
C299 C300 1.385 . S
C299 H301 0.950 . S
C300 C294 1.404 . S
C300 H298 0.949 . S
C300 C299 1.385 . S
H301 C299 0.950 . S
H302 C286 0.951 . S
H303 C288 0.951 . S
H304 C290 0.951 . S
H305 C291 0.940 1_554 S
H306 C292 0.950 . S
H307 C293 0.950 . S
H308 C295 0.950 . S
H309 C296 0.951 . S
C310 C311 1.386 . S
C310 C312 1.383 . S
C310 H326 0.951 . S
C311 C310 1.386 . S
C311 C315 1.383 . S
C312 C310 1.383 . S
C312 C313 1.402 . S
C312 H327 0.951 . S
C313 C312 1.402 . S
C313 C314 1.375 . S
C313 C316 1.481 . S
C314 C313 1.375 . S
C314 C315 1.367 . S
C314 H328 0.951 . S
C315 C311 1.383 . S
C315 C314 1.367 . S
C315 H329 0.950 . S
C316 C313 1.481 . S
C316 C317 1.297 . S
C316 H330 0.950 . S
C317 C316 1.297 . S
C317 C318 1.479 . S
C317 H331 0.950 . S
C318 C317 1.479 . S
C318 C319 1.375 . S
C318 C324 1.404 . S
C319 C318 1.375 . S
C319 C320 1.369 . S
C319 H332 0.950 . S
C320 C319 1.369 . S
C320 C321 1.392 . S
C320 H333 0.945 1_655 S
C321 C320 1.392 . S
C321 C323 1.384 . S
H322 C324 0.949 . S
C323 C321 1.384 . S
C323 C324 1.385 . S
C323 H325 0.950 . S
C324 C318 1.404 . S
C324 H322 0.949 . S
C324 C323 1.385 . S
H325 C323 0.950 . S
H326 C310 0.951 . S
H327 C312 0.951 . S
H328 C314 0.951 . S
H329 C315 0.950 . S
H330 C316 0.950 . S
H331 C317 0.950 . S
H332 C319 0.950 . S
H333 C320 0.945 1_455 S
C334 C335 1.386 . S
C334 C336 1.383 . S
C334 H350 0.951 . S
C335 C334 1.386 . S
C335 C339 1.383 . S
C336 C334 1.383 . S
C336 C337 1.402 . S
C336 H351 0.951 . S
C337 C336 1.402 . S
C337 C338 1.375 . S
C337 C340 1.481 . S
C338 C337 1.375 . S
C338 C339 1.367 . S
C338 H352 0.951 . S
C339 C335 1.383 . S
C339 C338 1.367 . S
C339 H353 0.950 . S
C340 C337 1.481 . S
C340 C341 1.297 . S
C340 H354 0.950 . S
C341 C340 1.297 . S
C341 C342 1.479 . S
C341 H355 0.950 . S
C342 C341 1.479 . S
C342 C343 1.375 . S
C342 C348 1.404 . S
C343 C342 1.375 . S
C343 C344 1.369 . S
C343 H356 0.950 . S
C344 C343 1.369 . S
C344 C345 1.392 . S
C344 H357 0.951 . S
C345 C344 1.392 . S
C345 C347 1.384 . S
H346 C348 0.949 . S
C347 C345 1.384 . S
C347 C348 1.385 . S
C347 H349 0.950 . S
C348 C342 1.404 . S
C348 H346 0.949 . S
C348 C347 1.385 . S
H349 C347 0.950 . S
H350 C334 0.951 . S
H351 C336 0.951 . S
H352 C338 0.951 . S
H353 C339 0.950 . S
H354 C340 0.950 . S
H355 C341 0.950 . S
H356 C343 0.950 . S
H357 C344 0.951 . S
C358 C359 1.386 . S
C358 C360 1.383 . S
C358 H374 0.951 . S
C359 C358 1.386 . S
C359 C363 1.383 . S
C360 C358 1.383 . S
C360 C361 1.402 . S
C360 H375 0.951 . S
C361 C360 1.402 . S
C361 C362 1.375 . S
C361 C364 1.481 . S
C362 C361 1.375 . S
C362 C363 1.367 . S
C362 H376 0.951 . S
C363 C359 1.383 . S
C363 C362 1.367 . S
C363 H377 0.950 . S
C364 C361 1.481 . S
C364 C365 1.297 . S
C364 H378 0.950 . S
C365 C364 1.297 . S
C365 C366 1.479 . S
C365 H379 0.950 . S
C366 C365 1.479 . S
C366 C367 1.375 . S
C366 C372 1.404 . S
C367 C366 1.375 . S
C367 C368 1.369 . S
C367 H380 0.950 . S
C368 C367 1.369 . S
C368 C369 1.392 . S
C368 H381 0.951 . S
C369 C368 1.392 . S
C369 C371 1.384 . S
H370 C372 0.949 . S
C371 C369 1.384 . S
C371 C372 1.385 . S
C371 H373 0.950 . S
C372 C366 1.404 . S
C372 H370 0.949 . S
C372 C371 1.385 . S
H373 C371 0.950 . S
H374 C358 0.951 . S
H375 C360 0.951 . S
H376 C362 0.951 . S
H377 C363 0.950 . S
H378 C364 0.950 . S
H379 C365 0.950 . S
H380 C367 0.950 . S
H381 C368 0.951 . S
C382 C383 1.386 . S
C382 C384 1.383 . S
C382 H398 0.951 . S
C383 C382 1.386 . S
C383 C387 1.383 . S
C384 C382 1.383 . S
C384 C385 1.402 . S
C384 H399 0.951 . S
C385 C384 1.402 . S
C385 C386 1.375 . S
C385 C388 1.481 . S
C386 C385 1.375 . S
C386 C387 1.367 . S
C386 H400 0.951 . S
C387 C383 1.383 . S
C387 C386 1.367 . S
C387 H401 0.950 . S
C388 C385 1.481 . S
C388 C389 1.297 . S
C388 H402 0.950 . S
C389 C388 1.297 . S
C389 C390 1.479 . S
C389 H403 0.950 . S
C390 C389 1.479 . S
C390 C391 1.375 . S
C390 C396 1.404 . S
C391 C390 1.375 . S
C391 C392 1.369 . S
C391 H404 0.950 . S
C392 C391 1.369 . S
C392 C393 1.392 . S
C392 H405 0.951 . S
C393 C392 1.392 . S
C393 C395 1.384 . S
H394 C396 0.949 . S
C395 C393 1.384 . S
C395 C396 1.385 . S
C395 H397 0.950 . S
C396 C390 1.404 . S
C396 H394 0.949 . S
C396 C395 1.385 . S
H397 C395 0.950 . S
H398 C382 0.951 . S
H399 C384 0.951 . S
H400 C386 0.951 . S
H401 C387 0.950 . S
H402 C388 0.950 . S
H403 C389 0.950 . S
H404 C391 0.950 . S
H405 C392 0.951 . S
C129 C83 1.404 . S
C119 C11 1.455 . S
C153 C79 1.406 . S
C143 C30 1.363 1_455 S
C177 C104 1.446 . S
C167 C49 1.405 . S
C191 C68 1.363 . S
C201 C100 1.432 . S
C215 C2 1.248 1_556 S
C225 C101 1.203 . S
C249 C116 1.007 . S
C239 C25 1.235 1_556 S
C263 C6 1.822 . S
C273 C117 1.707 . S
C297 C113 1.682 . S
C287 C21 1.832 1_556 S
C321 C80 1.029 1_655 S
C311 C40 1.243 . S
C335 C63 1.218 . S
C345 C95 1.102 . S
C369 C96 1.715 . S
C359 C44 1.827 . S
C393 C92 1.717 . S
C383 C59 1.844 . S
