# Generated by pormake.
# Topology rtl, (3,6)-cn, num edge types: 1
# Building blocks:
#     Node 0, Type 0, BuildingBlock: BETDIP_clean_linker_0, # of connection points: 3
#     Node 1, Type 0, BuildingBlock: BETDIP_clean_linker_0, # of connection points: 3
#     Node 2, Type 0, BuildingBlock: BETDIP_clean_linker_0, # of connection points: 3
#     Node 3, Type 0, BuildingBlock: BETDIP_clean_linker_0, # of connection points: 3
#     Node 4, Type 1, BuildingBlock: KUMJIN_clean_sbu_1, # of connection points: 6
#     Node 5, Type 1, BuildingBlock: KUMJIN_clean_sbu_1, # of connection points: 6
#     Edge 6, Type (0, 1), BuildingBlock: TEMPAE_clean_linker_10, # of connection points: 2
#     Edge 7, Type (0, 1), BuildingBlock: TEMPAE_clean_linker_10, # of connection points: 2
#     Edge 8, Type (0, 1), BuildingBlock: TEMPAE_clean_linker_10, # of connection points: 2
#     Edge 9, Type (0, 1), BuildingBlock: TEMPAE_clean_linker_10, # of connection points: 2
#     Edge 10, Type (0, 1), BuildingBlock: TEMPAE_clean_linker_10, # of connection points: 2
#     Edge 11, Type (0, 1), BuildingBlock: TEMPAE_clean_linker_10, # of connection points: 2
#     Edge 12, Type (0, 1), BuildingBlock: TEMPAE_clean_linker_10, # of connection points: 2
#     Edge 13, Type (0, 1), BuildingBlock: TEMPAE_clean_linker_10, # of connection points: 2
#     Edge 14, Type (0, 1), BuildingBlock: TEMPAE_clean_linker_10, # of connection points: 2
#     Edge 15, Type (0, 1), BuildingBlock: TEMPAE_clean_linker_10, # of connection points: 2
#     Edge 16, Type (0, 1), BuildingBlock: TEMPAE_clean_linker_10, # of connection points: 2
#     Edge 17, Type (0, 1), BuildingBlock: TEMPAE_clean_linker_10, # of connection points: 2
# Relax obj value: 0.052
# Max RMSD: 0.219
# Mean RMSD: 0.160
data_MOF--net-rtl--node1-KUMJIN_clean_sbu_1--node2-BETDIP_clean_linker_0--edge1-TEMPAE_clean_linker_10
_symmetry_space_group_name_H-M    P1
_symmetry_Int_Tables_number       1
_symmetry_cell_setting            triclinic
loop_
_symmetry_equiv_pos_as_xyz
'x, y, z'
_cell_length_a     35.901446
_cell_length_b     36.074019
_cell_length_c     27.501207
_cell_angle_alpha  78.123789
_cell_angle_beta   100.24817
_cell_angle_gamma 91.63119
loop_
_atom_site_label
_atom_site_type_symbol
_atom_site_fract_x
_atom_site_fract_y
_atom_site_fract_z
_atom_type_partial_charge
H0 H 0.21259 0.81842 0.93659 0.0
H1 H 0.2297 0.80241 0.0983 0.0
H2 H 0.15379 0.88947 0.00669 0.0
H3 H 0.29217 0.78652 0.08463 0.0
C4 C 0.28324 0.76847 0.05762 0.0
C5 C 0.20681 0.82716 0.96994 0.0
C6 C 0.18095 0.85669 0.96536 0.0
C7 C 0.22541 0.8084 0.01742 0.0
C8 C 0.21688 0.81802 0.06137 0.0
C9 C 0.18989 0.84643 0.0573 0.0
C10 C 0.1732 0.86636 0.0094 0.0
N11 N 0.25095 0.77862 0.01946 0.0
H12 H 0.71457 0.71912 0.72799 0.0
H13 H 0.73011 0.70656 0.58044 0.0
H14 H 0.64717 0.63971 0.65249 0.0
H15 H 0.79476 0.71669 0.6225 0.0
C16 C 0.78719 0.74293 0.63211 0.0
C17 C 0.70702 0.70556 0.69595 0.0
C18 C 0.67829 0.67802 0.69575 0.0
C19 C 0.72638 0.71553 0.65495 0.0
C20 C 0.7162 0.69846 0.61288 0.0
C21 C 0.68727 0.67164 0.61193 0.0
C22 C 0.66875 0.66133 0.6533 0.0
N23 N 0.7551 0.74356 0.65583 0.0
H24 H 0.79468 0.22825 0.96945 0.0
H25 H 0.80094 0.20358 0.1303 0.0
H26 H 0.86969 0.14068 0.06165 0.0
H27 H 0.72984 0.21306 0.09315 0.0
C28 C 0.73629 0.24123 0.07354 0.0
C29 C 0.80638 0.21161 0.00626 0.0
C30 C 0.83442 0.18419 0.01093 0.0
C31 C 0.79336 0.21762 0.04917 0.0
C32 C 0.80956 0.19708 0.09719 0.0
C33 C 0.83799 0.16975 0.10249 0.0
C34 C 0.84919 0.16285 0.05877 0.0
N35 N 0.76522 0.24571 0.04372 0.0
H36 H 0.31864 0.30924 0.36738 0.0
H37 H 0.30998 0.30069 0.52257 0.0
H38 H 0.38219 0.38469 0.45384 0.0
H39 H 0.31071 0.23342 0.51233 0.0
C40 C 0.28599 0.23918 0.48257 0.0
C41 C 0.32739 0.31897 0.40235 0.0
C42 C 0.35344 0.34893 0.40497 0.0
C43 C 0.31251 0.30095 0.44497 0.0
C44 C 0.32212 0.3142 0.49009 0.0
C45 C 0.34634 0.34522 0.49322 0.0
C46 C 0.36262 0.36161 0.45093 0.0
N47 N 0.28672 0.27045 0.4416 0.0
Eu48 Eu 0.03552 0.97554 0.5064 0.0
C49 C 0.94406 0.12491 0.48471 0.0
N50 N 0.97775 0.11496 0.51562 0.0
C51 C 1.00061 0.17817 0.49378 0.0
C52 C 0.93757 0.16222 0.45654 0.0
C53 C 0.00575 0.14089 0.52098 0.0
C54 C 0.96639 0.18889 0.46134 0.0
C55 C 0.88159 0.10687 0.44709 0.0
C56 C 0.91646 0.09734 0.4799 0.0
C57 C 0.87498 0.14407 0.41934 0.0
C58 C 0.90286 0.17164 0.42405 0.0
Eu59 Eu 0.98378 0.05184 0.56068 0.0
N60 N 0.92371 0.06134 0.50694 0.0
C61 C 0.85414 0.07881 0.4435 0.0
C62 C 0.89587 0.03477 0.5062 0.0
C63 C 0.86115 0.04277 0.4737 0.0
H64 H 0.03179 0.13297 0.54696 0.0
H65 H 0.83949 0.0213 0.47275 0.0
H66 H 0.97985 0.89968 0.50082 0.0
H67 H 0.17705 0.98664 0.61607 0.0
H68 H 0.89939 0.00778 0.53165 0.0
H69 H 0.8271 0.08497 0.41858 0.0
H70 H 0.1204 0.00946 0.55357 0.0
H71 H 0.02295 0.19864 0.49806 0.0
H72 H 0.8483 0.15186 0.39424 0.0
H73 H 0.89739 0.20015 0.40211 0.0
H74 H 0.97992 0.83205 0.54218 0.0
H75 H 0.9625 0.21779 0.44022 0.0
H76 H 0.18184 0.91961 0.66076 0.0
N77 N 0.03367 0.91031 0.54177 0.0
C78 C 0.06474 0.89551 0.57545 0.0
C79 C 1.00383 0.84963 0.55213 0.0
C80 C 0.06614 0.85698 0.59963 0.0
C81 C 1.00368 0.88799 0.52917 0.0
C82 C 0.03509 0.83407 0.58771 0.0
N83 N 0.09205 0.9567 0.56452 0.0
C84 C 0.1215 0.98052 0.57352 0.0
C85 C 0.12706 0.90485 0.6226 0.0
C86 C 0.09488 0.91925 0.58686 0.0
C87 C 0.15666 0.92957 0.63353 0.0
C88 C 0.15398 0.96747 0.60857 0.0
H89 H 0.03505 0.80435 0.60553 0.0
H90 H 0.09968 0.81311 0.65425 0.0
H91 H 0.15294 0.85498 0.67436 0.0
O92 O 0.07435 0.98676 0.4526 0.0
O93 O 0.03525 0.96444 0.59043 0.0
O94 O 0.03608 0.02301 0.61134 0.0
O95 O 0.0369 0.93881 0.45272 0.0
O96 O 0.05907 0.03557 0.4972 0.0
O97 O 0.04667 0.06215 0.5628 0.0
O98 O 0.94562 0.046 0.61519 0.0
O99 O 0.98846 0.06382 0.47763 0.0
O100 O 0.98313 0.00519 0.45739 0.0
O101 O 0.98601 0.09144 0.61157 0.0
O102 O 0.96476 0.9902 0.57567 0.0
O103 O 0.97248 0.96891 0.50462 0.0
C104 C 0.04348 0.98653 0.62309 0.0
C105 C 0.05491 0.96734 0.37561 0.0
C106 C 0.07064 0.95768 0.29645 0.0
C107 C 0.04152 0.98329 0.26998 0.0
C108 C 0.02626 0.99295 0.34873 0.0
C109 C 0.01953 1.00078 0.29607 0.0
C110 C 0.07706 0.94984 0.34953 0.0
C111 C 0.06619 0.06037 0.52691 0.0
C112 C 0.06232 0.95874 0.43086 0.0
C113 C 0.09818 0.84261 0.63517 0.0
C114 C 0.12853 0.86646 0.64661 0.0
C115 C 0.97782 0.042 0.44506 0.0
C116 C 0.9692 0.06613 0.6905 0.0
C117 C 0.95633 0.07674 0.77063 0.0
C118 C 0.98493 0.05025 0.79615 0.0
C119 C 0.99724 0.03953 0.71651 0.0
C120 C 0.94881 0.08468 0.71755 0.0
C121 C 1.00523 0.03181 0.76913 0.0
C122 C 0.95758 0.96575 0.54562 0.0
C123 C 0.96023 0.07397 0.63525 0.0
H124 H 0.0354 0.98946 0.22911 0.0
H125 H 0.00927 0.00683 0.3685 0.0
H126 H 0.99716 0.02036 0.27545 0.0
H127 H 0.09958 0.93051 0.37066 0.0
H128 H 0.99177 0.04397 0.83699 0.0
H129 H 0.01266 0.02463 0.69609 0.0
H130 H 0.92661 0.10467 0.69723 0.0
H131 H 0.02711 0.01142 0.78898 0.0
Eu132 Eu 0.4771 0.4926 0.99258 0.0
C133 C 0.62495 0.5681 0.05566 0.0
N134 N 0.612 0.53418 0.07818 0.0
C135 C 0.67108 0.50459 0.07845 0.0
C136 C 0.66096 0.57103 0.0414 0.0
C137 C 0.63547 0.50328 0.09261 0.0
C138 C 0.6836 0.53845 0.05184 0.0
C139 C 0.61613 0.63624 0.02764 0.0
C140 C 0.60287 0.60043 0.0488 0.0
C141 C 0.65141 0.63899 0.01194 0.0
C142 C 0.67369 0.60646 0.01862 0.0
Eu143 Eu 0.55014 0.53516 0.09732 0.0
N144 N 0.56815 0.59681 0.06242 0.0
C145 C 0.59341 0.66819 0.02277 0.0
C146 C 0.5465 0.6279 0.05971 0.0
C147 C 0.55861 0.66403 0.03931 0.0
H148 H 0.62744 0.47784 0.11633 0.0
H149 H 0.54111 0.68861 0.03632 0.0
H150 H 0.39525 0.5343 0.99191 0.0
H151 H 0.51074 0.34117 0.02536 0.0
H152 H 0.51972 0.62466 0.07283 0.0
H153 H 0.60259 0.69618 0.00663 0.0
H154 H 0.5187 0.40917 0.99261 0.0
H155 H 0.68915 0.47967 0.08899 0.0
H156 H 0.66186 0.66619 0.99499 0.0
H157 H 0.70112 0.60914 0.00702 0.0
H158 H 0.33296 0.51681 0.01614 0.0
H159 H 0.71139 0.5395 0.04142 0.0
H160 H 0.45412 0.31899 0.06248 0.0
N161 N 0.41693 0.47804 0.01406 0.0
C162 C 0.40974 0.44093 0.03117 0.0
C163 C 0.35438 0.49523 0.02086 0.0
C164 C 0.37476 0.42965 0.04579 0.0
C165 C 0.38968 0.50509 0.00742 0.0
C166 C 0.34699 0.45739 0.04055 0.0
N167 N 0.47016 0.42608 0.01709 0.0
C168 C 0.49528 0.40021 0.01158 0.0
C169 C 0.43079 0.37547 0.051 0.0
C170 C 0.43748 0.41428 0.03377 0.0
C171 C 0.45817 0.34906 0.04958 0.0
C172 C 0.49023 0.36146 0.02886 0.0
H173 H 0.31972 0.44985 0.05126 0.0
H174 H 0.34213 0.38204 0.07701 0.0
H175 H 0.39116 0.33455 0.08149 0.0
O176 O 0.46033 0.46746 0.92611 0.0
O177 O 0.46295 0.48899 0.07089 0.0
O178 O 0.52054 0.47988 0.12354 0.0
O179 O 0.45176 0.52741 0.92012 0.0
O180 O 0.53776 0.47015 0.01189 0.0
O181 O 0.55972 0.47331 0.09537 0.0
O182 O 0.53613 0.55604 0.16126 0.0
O183 O 0.53805 0.5645 0.01427 0.0
O184 O 0.53392 0.51448 0.97548 0.0
O185 O 0.59327 0.53852 0.16293 0.0
O186 O 0.48951 0.55594 0.08307 0.0
O187 O 0.46569 0.55319 0.99933 0.0
C188 C 0.48375 0.47459 0.11475 0.0
C189 C 0.41005 0.49673 0.8635 0.0
C190 C 0.37464 0.47594 0.78955 0.0
C191 C 0.34249 0.49518 0.79456 0.0
C192 C 0.37755 0.51557 0.86812 0.0
C193 C 0.34394 0.51461 0.83387 0.0
C194 C 0.40828 0.47661 0.82446 0.0
C195 C 0.55951 0.45768 0.05597 0.0
C196 C 0.44653 0.49897 0.89716 0.0
C197 C 0.36862 0.39122 0.0649 0.0
C198 C 0.3966 0.36419 0.0676 0.0
C199 C 0.54501 0.54901 0.9777 0.0
C200 C 0.5732 0.53171 0.24089 0.0
C201 C 0.59085 0.5346 0.33004 0.0
C202 C 0.5832 0.49561 0.3428 0.0
C203 C 0.56598 0.49295 0.25436 0.0
C204 C 0.58532 0.55246 0.27862 0.0
C205 C 0.57069 0.47507 0.30516 0.0
C206 C 0.46556 0.56676 0.04045 0.0
C207 C 0.57009 0.55052 0.18768 0.0
H208 H 0.31621 0.49495 0.76823 0.0
H209 H 0.37819 0.53138 0.8977 0.0
H210 H 0.31901 0.52927 0.83752 0.0
H211 H 0.4334 0.46233 0.82042 0.0
H212 H 0.58767 0.48072 0.38182 0.0
H213 H 0.55733 0.47656 0.22556 0.0
H214 H 0.59057 0.58251 0.26773 0.0
H215 H 0.56526 0.44507 0.31542 0.0
C216 C 0.21715 0.22403 0.45786 0.0
C217 C 0.25329 0.2132 0.4853 0.0
C218 C 0.18589 0.20003 0.46363 0.0
C219 C 0.19114 0.1641 0.49675 0.0
C220 C 0.22783 0.15282 0.52359 0.0
C221 C 0.2583 0.17771 0.51801 0.0
C222 C 0.14713 0.2134 0.4351 0.0
C223 C 0.23491 0.11449 0.55838 0.0
C224 C 0.10884 0.11274 0.55137 0.0
C225 C 0.09796 0.08726 0.51922 0.0
C226 C 0.13834 0.13861 0.54362 0.0
C227 C 0.15838 0.13825 0.50373 0.0
C228 C 0.14797 0.11222 0.47165 0.0
C229 C 0.11777 0.08735 0.47947 0.0
C230 C 0.14818 0.16622 0.57832 0.0
C231 C 0.16912 0.11024 0.42942 0.0
H232 H 0.21307 0.25164 0.43295 0.0
H233 H 0.28625 0.16933 0.53927 0.0
H234 H 0.13522 0.1934 0.41077 0.0
H235 H 0.12765 0.21389 0.46209 0.0
H236 H 0.14772 0.24214 0.41107 0.0
H237 H 0.26536 0.1094 0.57481 0.0
H238 H 0.21874 0.11211 0.58968 0.0
H239 H 0.22484 0.09179 0.53757 0.0
H240 H 0.0944 0.11252 0.58282 0.0
H241 H 0.10994 0.06771 0.45447 0.0
H242 H 0.14769 0.19559 0.5559 0.0
H243 H 0.17728 0.16042 0.59998 0.0
H244 H 0.12835 0.16455 0.60544 0.0
H245 H 0.16785 0.1381 0.40301 0.0
H246 H 0.15751 0.08841 0.40777 0.0
H247 H 0.19942 0.10362 0.44507 0.0
C248 C 0.34707 0.73821 0.0761 0.0
C249 C 0.30872 0.73787 0.0546 0.0
C250 C 0.37211 0.71032 0.07185 0.0
C251 C 0.35815 0.68085 0.04672 0.0
C252 C 0.31922 0.68001 0.02578 0.0
C253 C 0.29502 0.70883 0.02945 0.0
C254 C 0.41356 0.71255 0.09389 0.0
C255 C 0.30309 0.64849 0.99996 0.0
C256 C 0.42803 0.62554 0.99947 0.0
C257 C 0.43645 0.59473 0.03995 0.0
C258 C 0.40246 0.65387 1.00103 0.0
C259 C 0.3842 0.65048 0.04339 0.0
C260 C 0.39161 0.61848 0.0834 0.0
C261 C 0.41812 0.59128 0.08152 0.0
C262 C 0.39589 0.68796 0.95817 0.0
C263 C 0.37191 0.61319 0.12848 0.0
H264 H 0.35761 0.76079 0.09535 0.0
H265 H 0.26525 0.70833 0.01318 0.0
H266 H 0.42216 0.68712 0.12385 0.0
H267 H 0.43097 0.71291 0.06424 0.0
H268 H 0.42013 0.73815 0.11032 0.0
H269 H 0.27206 0.65163 0.98647 0.0
H270 H 0.31703 0.64789 0.96724 0.0
H271 H 0.30885 0.62075 0.02638 0.0
H272 H 0.44252 0.62817 0.96754 0.0
H273 H 0.42445 0.56709 0.11254 0.0
H274 H 0.40461 0.71401 0.97263 0.0
H275 H 0.36533 0.69107 0.94175 0.0
H276 H 0.41191 0.68604 0.92771 0.0
H277 H 0.38029 0.63598 0.14975 0.0
H278 H 0.37883 0.5854 0.15452 0.0
H279 H 0.34078 0.6153 0.11584 0.0
C280 C 0.7995 0.81295 0.62159 0.0
C281 C 0.81195 0.77629 0.62249 0.0
C282 C 0.82247 0.84459 0.60931 0.0
C283 C 0.85897 0.83931 0.59872 0.0
C284 C 0.87189 0.8022 0.60078 0.0
C285 C 0.84803 0.77124 0.61198 0.0
C286 C 0.80741 0.88373 0.6067 0.0
C287 C 0.9108 0.79517 0.59065 0.0
C288 C 0.90755 0.91993 0.52115 0.0
C289 C 0.93187 0.93393 0.55886 0.0
C290 C 0.8831 0.88967 0.53362 0.0
C291 C 0.88359 0.87253 0.58499 0.0
C292 C 0.90836 0.88652 0.62315 0.0
C293 C 0.93185 0.91734 0.60963 0.0
C294 C 0.85674 0.87605 0.4918 0.0
C295 C 0.91056 0.86848 0.67824 0.0
H296 H 0.77147 0.81703 0.62921 0.0
H297 H 0.85767 0.7429 0.61262 0.0
H298 H 0.82642 0.89806 0.63339 0.0
H299 H 0.8068 0.90114 0.56826 0.0
H300 H 0.77843 0.88308 0.61579 0.0
H301 H 0.91781 0.7645 0.59805 0.0
H302 H 0.91238 0.80758 0.55069 0.0
H303 H 0.93263 0.80922 0.61448 0.0
H304 H 0.90736 0.93294 0.48188 0.0
H305 H 0.95094 0.92793 0.63884 0.0
H306 H 0.8271 0.87657 0.49814 0.0
H307 H 0.86374 0.8463 0.49185 0.0
H308 H 0.85845 0.89361 0.45402 0.0
H309 H 0.88237 0.86934 0.68918 0.0
H310 H 0.93126 0.88278 0.70327 0.0
H311 H 0.91892 0.83823 0.68476 0.0
C312 C 0.67348 0.26656 0.07742 0.0
C313 C 0.71131 0.27327 0.07237 0.0
C314 C 0.64891 0.29663 0.07544 0.0
C315 C 0.66307 0.33403 0.07036 0.0
C316 C 0.70166 0.34074 0.06683 0.0
C317 C 0.72521 0.31029 0.06695 0.0
C318 C 0.60767 0.28849 0.07761 0.0
C319 C 0.71806 0.38004 0.0631 0.0
C320 C 0.59492 0.41668 0.01631 0.0
C321 C 0.58652 0.42636 0.06008 0.0
C322 C 0.61931 0.38637 0.01918 0.0
C323 C 0.63715 0.36624 0.06701 0.0
C324 C 0.62982 0.37659 0.11138 0.0
C325 C 0.60402 0.40606 0.1074 0.0
C326 C 0.62552 0.37556 0.97098 0.0
C327 C 0.6493 0.35662 0.16302 0.0
H328 H 0.66287 0.23784 0.0816 0.0
H329 H 0.75468 0.31532 0.06379 0.0
H330 H 0.59982 0.29775 0.1105 0.0
H331 H 0.58968 0.30481 0.04325 0.0
H332 H 0.60105 0.25793 0.08052 0.0
H333 H 0.74915 0.38004 0.06425 0.0
H334 H 0.70456 0.39869 0.02738 0.0
H335 H 0.71203 0.39258 0.09453 0.0
H336 H 0.58201 0.43254 0.97954 0.0
H337 H 0.59772 0.41335 0.14142 0.0
H338 H 0.6181 0.34537 0.97183 0.0
H339 H 0.6558 0.37866 0.9675 0.0
H340 H 0.60832 0.39319 0.93692 0.0
H341 H 0.64085 0.32645 0.17013 0.0
H342 H 0.64235 0.36969 0.19356 0.0
H343 H 0.68045 0.35724 0.16492 0.0
C344 C 0.2021 0.86534 0.14161 0.0
C345 C 0.17674 0.85474 0.102 0.0
C346 C 0.18866 0.87923 0.17956 0.0
C347 C 0.1491 0.88241 0.17748 0.0
C348 C 0.1236 0.86942 0.1392 0.0
C349 C 0.13776 0.8557 0.10205 0.0
C350 C 0.21667 0.89242 0.22016 0.0
C351 C 0.08124 0.87204 0.13569 0.0
C352 C 0.10315 0.90024 0.28464 0.0
C353 C 0.09394 0.93893 0.26872 0.0
C354 C 0.1231 0.88175 0.25689 0.0
C355 C 0.13383 0.9024 0.21198 0.0
C356 C 0.12597 0.94175 0.19687 0.0
C357 C 0.10621 0.95953 0.22547 0.0
C358 C 0.13111 0.83981 0.27432 0.0
C359 C 0.13695 0.9648 0.1492 0.0
H360 H 0.23225 0.86458 0.1415 0.0
H361 H 0.11819 0.84697 0.07168 0.0
H362 H 0.21583 0.9238 0.21364 0.0
H363 H 0.20909 0.88137 0.25784 0.0
H364 H 0.24606 0.88333 0.22062 0.0
H365 H 0.06543 0.8581 0.10589 0.0
H366 H 0.07299 0.85875 0.17229 0.0
H367 H 0.07238 0.90225 0.12706 0.0
H368 H 0.09358 0.88404 0.31787 0.0
H369 H 0.09992 0.98958 0.21356 0.0
H370 H 0.16095 0.83341 0.27321 0.0
H371 H 0.11287 0.82417 0.24847 0.0
H372 H 0.1256 0.82903 0.31322 0.0
H373 H 0.1674 0.96056 0.14903 0.0
H374 H 0.13145 0.99556 0.14484 0.0
H375 H 0.12063 0.95512 0.11592 0.0
C376 C 0.67904 0.65812 0.78936 0.0
C377 C 0.65865 0.66543 0.73979 0.0
C378 C 0.66141 0.64174 0.83042 0.0
C379 C 0.62251 0.6324 0.82172 0.0
C380 C 0.60148 0.64123 0.77207 0.0
C381 C 0.6197 0.65783 0.7319 0.0
C382 C 0.68458 0.63357 0.88296 0.0
C383 C 0.55996 0.63181 0.76104 0.0
C384 C 0.58511 0.55121 0.91164 0.0
C385 C 0.5653 0.57048 0.93853 0.0
C386 C 0.60445 0.57107 0.87429 0.0
C387 C 0.60414 0.61122 0.86367 0.0
C388 C 0.58449 0.63082 0.89114 0.0
C389 C 0.56496 0.61019 0.92782 0.0
C390 C 0.6248 0.54903 0.84567 0.0
C391 C 0.58394 0.67353 0.88165 0.0
H392 H 0.70913 0.66378 0.79588 0.0
H393 H 0.60349 0.66415 0.69392 0.0
H394 H 0.67278 0.64973 0.90701 0.0
H395 H 0.68305 0.60307 0.90029 0.0
H396 H 0.71477 0.64134 0.88328 0.0
H397 H 0.54726 0.64199 0.72072 0.0
H398 H 0.55629 0.60066 0.77082 0.0
H399 H 0.54404 0.64459 0.78463 0.0
H400 H 0.58557 0.5205 0.91987 0.0
H401 H 0.54909 0.6252 0.94786 0.0
H402 H 0.65507 0.55711 0.84945 0.0
H403 H 0.61241 0.55607 0.80489 0.0
H404 H 0.62305 0.51793 0.85923 0.0
H405 H 0.61322 0.68409 0.89005 0.0
H406 H 0.56643 0.68446 0.9052 0.0
H407 H 0.57275 0.68542 0.84133 0.0
C408 C 0.89585 0.13961 0.16096 0.0
C409 C 0.8573 0.1494 0.15319 0.0
C410 C 0.91461 0.12 0.20782 0.0
C411 C 0.89493 0.11137 0.24885 0.0
C412 C 0.85627 0.12153 0.24185 0.0
C413 C 0.83774 0.13991 0.19392 0.0
C414 C 0.95564 0.1088 0.21347 0.0
C415 C 0.83474 0.11369 0.28526 0.0
C416 C 0.93622 0.03693 0.3634 0.0
C417 C 0.95702 0.05936 0.39447 0.0
C418 C 0.91595 0.05342 0.31569 0.0
C419 C 0.91552 0.09331 0.29955 0.0
C420 C 0.93622 0.11607 0.33094 0.0
C421 C 0.95741 0.09873 0.37746 0.0
C422 C 0.89554 0.02817 0.28227 0.0
C423 C 0.93591 0.15876 0.31548 0.0
H424 H 0.9118 0.14766 0.13053 0.0
H425 H 0.80791 0.14678 0.18847 0.0
H426 H 0.97357 0.12365 0.24055 0.0
H427 H 0.95929 0.07796 0.22896 0.0
H428 H 0.96616 0.11556 0.17705 0.0
H429 H 0.80464 0.12286 0.27348 0.0
H430 H 0.83581 0.08303 0.30247 0.0
H431 H 0.8483 0.12881 0.31498 0.0
H432 H 0.93594 0.00644 0.37621 0.0
H433 H 0.97429 0.11616 0.40057 0.0
H434 H 0.90666 0.03286 0.24634 0.0
H435 H 0.86494 0.03539 0.27257 0.0
H436 H 0.89883 0.99766 0.3004 0.0
H437 H 0.94682 0.16768 0.27962 0.0
H438 H 0.95332 0.17233 0.34453 0.0
H439 H 0.90642 0.16958 0.30875 0.0
C440 C 0.38845 0.37664 0.55662 0.0
C441 C 0.35309 0.36164 0.53972 0.0
C442 C 0.39405 0.39453 0.59818 0.0
C443 C 0.36384 0.39678 0.62431 0.0
C444 C 0.3285 0.38062 0.60859 0.0
C445 C 0.32343 0.36373 0.56626 0.0
C446 C 0.43202 0.41185 0.61338 0.0
C447 C 0.2957 0.38189 0.63584 0.0
C448 C 0.38431 0.41777 0.75664 0.0
C449 C 0.3732 0.45588 0.74728 0.0
C450 C 0.38172 0.39816 0.71696 0.0
C451 C 0.36848 0.41742 0.66671 0.0
C452 C 0.3582 0.45622 0.65706 0.0
C453 C 0.3603 0.47485 0.69752 0.0
C454 C 0.3922 0.35664 0.72893 0.0
C455 C 0.34469 0.478 0.60399 0.0
H456 H 0.41183 0.37464 0.5372 0.0
H457 H 0.29576 0.353 0.55324 0.0
H458 H 0.42858 0.44282 0.60986 0.0
H459 H 0.44371 0.39983 0.65349 0.0
H460 H 0.45284 0.40707 0.58982 0.0
H461 H 0.27104 0.36549 0.62133 0.0
H462 H 0.30455 0.3704 0.67684 0.0
H463 H 0.28654 0.41168 0.63147 0.0
H464 H 0.39411 0.40306 0.79519 0.0
H465 H 0.35211 0.50445 0.69027 0.0
H466 H 0.41417 0.35151 0.70731 0.0
H467 H 0.36706 0.33983 0.71726 0.0
H468 H 0.40297 0.34608 0.76978 0.0
H469 H 0.36576 0.47551 0.57977 0.0
H470 H 0.33986 0.5085 0.60265 0.0
H471 H 0.31783 0.46581 0.58752 0.0
C472 C 0.64433 0.66867 0.53129 0.0
C473 C 0.67573 0.65429 0.56759 0.0
C474 C 0.63098 0.65065 0.49098 0.0
C475 C 0.64931 0.61727 0.48748 0.0
C476 C 0.68149 0.60305 0.52385 0.0
C477 C 0.69439 0.62186 0.56354 0.0
C478 C 0.59685 0.66689 0.45275 0.0
C479 C 0.70163 0.56743 0.52164 0.0
C480 C 0.59196 0.54888 0.41605 0.0
C481 C 0.60539 0.5563 0.3701 0.0
C482 C 0.60612 0.5684 0.45457 0.0
C483 C 0.63403 0.59648 0.44681 0.0
C484 C 0.64739 0.60451 0.40038 0.0
C485 C 0.63315 0.58415 0.36278 0.0
C486 C 0.59129 0.55886 0.5037 0.0
C487 C 0.67688 0.63449 0.39051 0.0
H488 H 0.62993 0.6937 0.53497 0.0
H489 H 0.7185 0.61076 0.59213 0.0
H490 H 0.6035 0.67168 0.41407 0.0
H491 H 0.57322 0.64642 0.45429 0.0
H492 H 0.5871 0.69408 0.45939 0.0
H493 H 0.72693 0.56084 0.55184 0.0
H494 H 0.68198 0.54311 0.52552 0.0
H495 H 0.71063 0.57029 0.4845 0.0
H496 H 0.57011 0.52792 0.42188 0.0
H497 H 0.64427 0.58972 0.32788 0.0
H498 H 0.57814 0.58434 0.51052 0.0
H499 H 0.61502 0.54985 0.53554 0.0
H500 H 0.56998 0.53591 0.50404 0.0
H501 H 0.66693 0.66206 0.39556 0.0
H502 H 0.68347 0.63813 0.35184 0.0
H503 H 0.70337 0.62687 0.41818 0.0
C504 C 0.82503 0.1682 0.92516 0.0
C505 C 0.84933 0.17737 0.96672 0.0
C506 C 0.83966 0.15529 0.88742 0.0
C507 C 0.87937 0.1517 0.89161 0.0
C508 C 0.90392 0.16336 0.93185 0.0
C509 C 0.88857 0.17604 0.9689 0.0
C510 C 0.81265 0.14333 0.84485 0.0
C511 C 0.94642 0.16026 0.93757 0.0
C512 C 0.92152 0.07492 0.84215 0.0
C513 C 0.93428 0.09577 0.79944 0.0
C514 C 0.90224 0.09264 0.87129 0.0
C515 C 0.89551 0.13222 0.85735 0.0
C516 C 0.90716 0.15327 0.8133 0.0
C517 C 0.92647 0.13478 0.78485 0.0
C518 C 0.89017 0.06916 0.91796 0.0
C519 C 0.90046 0.19549 0.79729 0.0
H520 H 0.79467 0.16915 0.92361 0.0
H521 H 0.90732 0.1836 1.00083 0.0
H522 H 0.82143 0.15511 0.8081 0.0
H523 H 0.81318 0.11201 0.85012 0.0
H524 H 0.78311 0.15258 0.8432 0.0
H525 H 0.96147 0.17374 0.9683 0.0
H526 H 0.95492 0.12995 0.94615 0.0
H527 H 0.95588 0.1737 0.90182 0.0
H528 H 0.92681 0.04465 0.853 0.0
H529 H 0.93647 0.15109 0.75201 0.0
H530 H 0.85959 0.07362 0.91706 0.0
H531 H 0.90588 0.07826 0.95202 0.0
H532 H 0.89545 0.03841 0.92181 0.0
H533 H 0.87043 0.20244 0.79652 0.0
H534 H 0.9077 0.20702 0.75947 0.0
H535 H 0.91799 0.21002 0.82511 0.0
C536 C 0.37848 0.34588 0.32517 0.0
C537 C 0.37124 0.36697 0.3603 0.0
C538 C 0.39596 0.36235 0.28399 0.0
C539 C 0.40804 0.40045 0.27863 0.0
C540 C 0.40112 0.42188 0.31383 0.0
C541 C 0.38207 0.40528 0.35325 0.0
C542 C 0.40163 0.33891 0.24623 0.0
C543 C 0.41396 0.46248 0.30997 0.0
C544 C 0.48525 0.43277 0.20048 0.0
C545 C 0.46458 0.45479 0.15643 0.0
C546 C 0.4673 0.41501 0.2406 0.0
C547 C 0.42749 0.41823 0.23592 0.0
C548 C 0.40639 0.43966 0.19101 0.0
C549 C 0.42526 0.45821 0.15241 0.0
C550 C 0.4911 0.39363 0.28848 0.0
C551 C 0.3638 0.44279 0.18345 0.0
H552 H 0.371 0.31623 0.33001 0.0
H553 H 0.37567 0.42266 0.37847 0.0
H554 H 0.38903 0.35373 0.20751 0.0
H555 H 0.4323 0.3353 0.24687 0.0
H556 H 0.38871 0.31043 0.25399 0.0
H557 H 0.40846 0.47461 0.34204 0.0
H558 H 0.44474 0.46427 0.30894 0.0
H559 H 0.3991 0.48024 0.27434 0.0
H560 H 0.51551 0.42941 0.20371 0.0
H561 H 0.40907 0.47579 0.11917 0.0
H562 H 0.48027 0.36448 0.29872 0.0
H563 H 0.48923 0.40801 0.31999 0.0
H564 H 0.52134 0.39187 0.28507 0.0
H565 H 0.35125 0.41451 0.1818 0.0
H566 H 0.35189 0.46294 0.14814 0.0
H567 H 0.35492 0.45215 0.21565 0.0
C568 C 0.18012 0.88501 0.87359 0.0
C569 C 0.16122 0.87693 0.91502 0.0
C570 C 0.16157 0.90398 0.82604 0.0
C571 C 0.1235 0.9158 0.82008 0.0
C572 C 0.1044 0.90827 0.86175 0.0
C573 C 0.12329 0.88847 0.90846 0.0
C574 C 0.18244 0.9107 0.78197 0.0
C575 C 0.06387 0.9208 0.85688 0.0
C576 C 0.08404 0.9912 0.70566 0.0
C577 C 0.06316 0.96915 0.67419 0.0
C578 C 0.10364 0.97427 0.75361 0.0
C579 C 0.10291 0.93439 0.7697 0.0
C580 C 0.08191 0.91207 0.73798 0.0
C581 C 0.06185 0.92979 0.69099 0.0
C582 C 0.12507 0.99897 0.78703 0.0
C583 C 0.08081 0.86941 0.75349 0.0
H584 H 0.20952 0.8767 0.87831 0.0
H585 H 0.10803 0.88164 0.93975 0.0
H586 H 0.16854 0.89474 0.75334 0.0
H587 H 0.18118 0.94114 0.76351 0.0
H588 H 0.21259 0.90165 0.79343 0.0
H589 H 0.05352 0.91387 0.89342 0.0
H590 H 0.06125 0.95183 0.84236 0.0
H591 H 0.04515 0.907 0.82929 0.0
H592 H 0.08518 0.02163 0.69277 0.0
H593 H 0.0452 0.91263 0.66722 0.0
H594 H 0.15553 0.9911 0.79591 0.0
H595 H 0.11452 0.99437 0.82335 0.0
H596 H 0.12225 0.02957 0.76922 0.0
H597 H 0.10988 0.85757 0.76007 0.0
H598 H 0.06273 0.8563 0.72451 0.0
H599 H 0.06991 0.8611 0.78945 0.0
loop_
_geom_bond_atom_site_label_1
_geom_bond_atom_site_label_2
_geom_bond_distance
_geom_bond_site_symmetry_2
_ccdc_geom_bond_type
H0 C5 0.930 . S
H1 C8 0.930 . S
H2 C10 0.930 . S
H3 C4 1.016 . S
C4 H3 1.016 . S
C4 N11 1.286 . S
C5 H0 0.930 . S
C5 C6 1.397 . S
C5 C7 1.361 1_556 S
C6 C5 1.397 . S
C6 C10 1.390 1_556 S
C7 C5 1.361 1_554 S
C7 C8 1.393 . S
C7 N11 1.413 . S
C8 H1 0.930 . S
C8 C7 1.393 . S
C8 C9 1.399 . S
C9 C8 1.399 . S
C9 C10 1.381 . S
C10 H2 0.930 . S
C10 C6 1.390 1_554 S
C10 C9 1.381 . S
N11 C4 1.286 . S
N11 C7 1.413 . S
H12 C17 0.930 . S
H13 C20 0.930 . S
H14 C22 0.930 . S
H15 C16 1.016 . S
C16 H15 1.016 . S
C16 N23 1.286 . S
C17 H12 0.930 . S
C17 C18 1.397 . S
C17 C19 1.361 . S
C18 C17 1.397 . S
C18 C22 1.390 . S
C19 C17 1.361 . S
C19 C20 1.393 . S
C19 N23 1.413 . S
C20 H13 0.930 . S
C20 C19 1.393 . S
C20 C21 1.399 . S
C21 C20 1.399 . S
C21 C22 1.381 . S
C22 H14 0.930 . S
C22 C18 1.390 . S
C22 C21 1.381 . S
N23 C16 1.286 . S
N23 C19 1.413 . S
H24 C29 0.930 1_556 S
H25 C32 0.930 . S
H26 C34 0.930 . S
H27 C28 1.016 . S
C28 H27 1.016 . S
C28 N35 1.286 . S
C29 H24 0.930 1_554 S
C29 C30 1.397 . S
C29 C31 1.361 . S
C30 C29 1.397 . S
C30 C34 1.390 . S
C31 C29 1.361 . S
C31 C32 1.393 . S
C31 N35 1.413 . S
C32 H25 0.930 . S
C32 C31 1.393 . S
C32 C33 1.399 . S
C33 C32 1.399 . S
C33 C34 1.381 . S
C34 H26 0.930 . S
C34 C30 1.390 . S
C34 C33 1.381 . S
N35 C28 1.286 . S
N35 C31 1.413 . S
H36 C41 0.930 . S
H37 C44 0.930 . S
H38 C46 0.930 . S
H39 C40 1.016 . S
C40 H39 1.016 . S
C40 N47 1.286 . S
C41 H36 0.930 . S
C41 C42 1.397 . S
C41 C43 1.361 . S
C42 C41 1.397 . S
C42 C46 1.390 . S
C43 C41 1.361 . S
C43 C44 1.393 . S
C43 N47 1.413 . S
C44 H37 0.930 . S
C44 C43 1.393 . S
C44 C45 1.399 . S
C45 C44 1.399 . S
C45 C46 1.381 . S
C46 H38 0.930 . S
C46 C42 1.390 . S
C46 C45 1.381 . S
N47 C40 1.286 . S
N47 C43 1.413 . S
Eu48 N77 2.600 . S
Eu48 N83 2.562 . S
Eu48 O92 2.462 . S
Eu48 O93 2.373 . S
Eu48 O95 2.432 . S
Eu48 O96 2.291 1_565 S
Eu48 O100 2.335 1_465 S
Eu48 O103 2.372 1_455 S
Eu48 C112 2.787 . S
C49 N50 1.365 . S
C49 C52 1.405 . S
C49 C56 1.448 . S
N50 C49 1.365 . S
N50 C53 1.319 1_655 S
N50 Eu59 2.600 . S
C51 C53 1.397 . S
C51 C54 1.367 1_455 S
C51 H71 0.931 . S
C52 C49 1.405 . S
C52 C54 1.403 . S
C52 C58 1.439 . S
C53 N50 1.319 1_455 S
C53 C51 1.397 . S
C53 H64 0.930 . S
C54 C51 1.367 1_655 S
C54 C52 1.403 . S
C54 H75 0.929 . S
C55 C56 1.430 . S
C55 C57 1.387 . S
C55 C61 1.404 . S
C56 C49 1.448 . S
C56 C55 1.430 . S
C56 N60 1.351 . S
C57 C55 1.387 . S
C57 C58 1.374 . S
C57 H72 0.931 . S
C58 C52 1.439 . S
C58 C57 1.374 . S
C58 H73 0.931 . S
Eu59 N50 2.600 . S
Eu59 N60 2.562 . S
Eu59 O94 2.335 1_655 S
Eu59 O97 2.372 1_655 S
Eu59 O98 2.462 . S
Eu59 O99 2.373 . S
Eu59 O101 2.432 . S
Eu59 O102 2.291 1_545 S
Eu59 C123 2.787 . S
N60 C56 1.351 . S
N60 Eu59 2.562 . S
N60 C62 1.325 . S
C61 C55 1.404 . S
C61 C63 1.366 . S
C61 H69 0.930 . S
C62 N60 1.325 . S
C62 C63 1.416 . S
C62 H68 0.929 . S
C63 C61 1.366 . S
C63 C62 1.416 . S
C63 H65 0.930 . S
H64 C53 0.930 . S
H65 C63 0.930 . S
H66 C81 0.930 1_655 S
H67 C88 0.930 . S
H68 C62 0.929 . S
H69 C61 0.930 . S
H70 C84 0.929 . S
H71 C51 0.931 . S
H72 C57 0.931 . S
H73 C58 0.931 . S
H74 C79 0.931 1_655 S
H75 C54 0.929 . S
H76 C87 0.930 . S
N77 Eu48 2.600 . S
N77 C78 1.365 . S
N77 C81 1.319 . S
C78 N77 1.365 . S
C78 C80 1.405 . S
C78 C86 1.448 . S
C79 H74 0.931 1_455 S
C79 C81 1.397 . S
C79 C82 1.367 . S
C80 C78 1.405 . S
C80 C82 1.403 . S
C80 C113 1.439 . S
C81 H66 0.930 1_455 S
C81 N77 1.319 . S
C81 C79 1.397 . S
C82 C79 1.367 . S
C82 C80 1.403 . S
C82 H89 0.929 . S
N83 Eu48 2.562 . S
N83 C84 1.325 . S
N83 C86 1.351 . S
C84 H70 0.929 . S
C84 N83 1.325 . S
C84 C88 1.416 . S
C85 C86 1.430 . S
C85 C87 1.404 . S
C85 C114 1.387 . S
C86 C78 1.448 . S
C86 N83 1.351 . S
C86 C85 1.430 . S
C87 H76 0.930 . S
C87 C85 1.404 . S
C87 C88 1.366 . S
C88 H67 0.930 . S
C88 C84 1.416 . S
C88 C87 1.366 . S
H89 C82 0.929 . S
H90 C113 0.931 . S
H91 C114 0.931 . S
O92 Eu48 2.462 . S
O92 C112 1.252 . S
O93 Eu48 2.373 . S
O93 C104 1.249 . S
O94 Eu59 2.335 1_455 S
O94 C104 1.264 1_545 S
O95 Eu48 2.432 . S
O95 C112 1.268 . S
O96 Eu48 2.291 1_545 S
O96 C111 1.255 . S
O97 Eu59 2.372 1_455 S
O97 C111 1.257 . S
O98 Eu59 2.462 . S
O98 C123 1.252 . S
O99 Eu59 2.373 . S
O99 C115 1.249 . S
O100 Eu48 2.335 1_645 S
O100 C115 1.264 . S
O101 Eu59 2.432 . S
O101 C123 1.268 . S
O102 Eu59 2.291 1_565 S
O102 C122 1.255 . S
O103 Eu48 2.372 1_655 S
O103 C122 1.257 . S
C104 O93 1.249 . S
C104 O94 1.264 1_565 S
C105 C108 1.382 . S
C105 C110 1.390 . S
C105 C112 1.506 . S
C106 C107 1.398 . S
C106 C110 1.392 . S
C107 C106 1.398 . S
C107 C109 1.372 . S
C107 H124 0.931 . S
C108 C105 1.382 . S
C108 C109 1.390 . S
C108 H125 0.931 . S
C109 C107 1.372 . S
C109 C108 1.390 . S
C109 H126 0.929 . S
C110 C105 1.390 . S
C110 C106 1.392 . S
C110 H127 0.930 . S
C111 O96 1.255 . S
C111 O97 1.257 . S
C112 Eu48 2.787 . S
C112 O92 1.252 . S
C112 O95 1.268 . S
C112 C105 1.506 . S
C113 C80 1.439 . S
C113 H90 0.931 . S
C113 C114 1.374 . S
C114 C85 1.387 . S
C114 H91 0.931 . S
C114 C113 1.374 . S
C115 O99 1.249 . S
C115 O100 1.264 . S
C116 C119 1.382 . S
C116 C120 1.390 . S
C116 C123 1.506 . S
C117 C118 1.398 . S
C117 C120 1.392 . S
C118 C117 1.398 . S
C118 C121 1.372 . S
C118 H128 0.931 . S
C119 C116 1.382 . S
C119 C121 1.390 . S
C119 H129 0.931 . S
C120 C116 1.390 . S
C120 C117 1.392 . S
C120 H130 0.930 . S
C121 C118 1.372 . S
C121 C119 1.390 . S
C121 H131 0.929 . S
C122 O102 1.255 . S
C122 O103 1.257 . S
C123 Eu59 2.787 . S
C123 O98 1.252 . S
C123 O101 1.268 . S
C123 C116 1.506 . S
H124 C107 0.931 . S
H125 C108 0.931 . S
H126 C109 0.929 . S
H127 C110 0.930 . S
H128 C118 0.931 . S
H129 C119 0.931 . S
H130 C120 0.930 . S
H131 C121 0.929 . S
Eu132 N161 2.598 1_556 S
Eu132 N167 2.561 1_556 S
Eu132 O176 2.469 . S
Eu132 O177 2.364 1_556 S
Eu132 O179 2.439 . S
Eu132 O180 2.289 1_556 S
Eu132 O184 2.339 . S
Eu132 O187 2.369 1_556 S
Eu132 C196 2.795 . S
C133 N134 1.365 . S
C133 C136 1.405 . S
C133 C140 1.448 . S
N134 C133 1.365 . S
N134 C137 1.319 . S
N134 Eu143 2.600 . S
C135 C137 1.397 . S
C135 C138 1.367 . S
C135 H155 0.931 . S
C136 C133 1.405 . S
C136 C138 1.403 . S
C136 C142 1.439 . S
C137 N134 1.319 . S
C137 C135 1.397 . S
C137 H148 0.930 . S
C138 C135 1.367 . S
C138 C136 1.403 . S
C138 H159 0.929 . S
C139 C140 1.430 . S
C139 C141 1.387 . S
C139 C145 1.404 . S
C140 C133 1.448 . S
C140 C139 1.430 . S
C140 N144 1.351 . S
C141 C139 1.387 . S
C141 C142 1.374 . S
C141 H156 0.931 . S
C142 C136 1.439 . S
C142 C141 1.374 . S
C142 H157 0.931 . S
Eu143 N134 2.600 . S
Eu143 N144 2.562 . S
Eu143 O178 2.335 . S
Eu143 O181 2.372 . S
Eu143 O182 2.462 . S
Eu143 O183 2.373 . S
Eu143 O185 2.432 . S
Eu143 O186 2.291 . S
Eu143 C207 2.787 . S
N144 C140 1.351 . S
N144 Eu143 2.562 . S
N144 C146 1.325 . S
C145 C139 1.404 . S
C145 C147 1.366 . S
C145 H153 0.930 . S
C146 N144 1.325 . S
C146 C147 1.416 . S
C146 H152 0.929 . S
C147 C145 1.366 . S
C147 C146 1.416 . S
C147 H149 0.930 . S
H148 C137 0.930 . S
H149 C147 0.930 . S
H150 C165 0.930 . S
H151 C172 0.930 . S
H152 C146 0.929 . S
H153 C145 0.930 . S
H154 C168 0.929 . S
H155 C135 0.931 . S
H156 C141 0.931 . S
H157 C142 0.931 . S
H158 C163 0.931 . S
H159 C138 0.929 . S
H160 C171 0.930 . S
N161 Eu132 2.598 1_554 S
N161 C162 1.365 . S
N161 C165 1.319 1_554 S
C162 N161 1.365 . S
C162 C164 1.405 . S
C162 C170 1.448 . S
C163 H158 0.931 . S
C163 C165 1.397 . S
C163 C166 1.367 1_556 S
C164 C162 1.405 . S
C164 C166 1.403 . S
C164 C197 1.439 . S
C165 H150 0.930 . S
C165 N161 1.319 1_556 S
C165 C163 1.397 . S
C166 C163 1.367 1_554 S
C166 C164 1.403 . S
C166 H173 0.929 . S
N167 Eu132 2.561 1_554 S
N167 C168 1.325 . S
N167 C170 1.351 . S
C168 H154 0.929 . S
C168 N167 1.325 . S
C168 C172 1.416 . S
C169 C170 1.430 . S
C169 C171 1.404 . S
C169 C198 1.387 . S
C170 C162 1.448 . S
C170 N167 1.351 . S
C170 C169 1.430 . S
C171 H160 0.930 . S
C171 C169 1.404 . S
C171 C172 1.366 . S
C172 H151 0.930 . S
C172 C168 1.416 . S
C172 C171 1.366 . S
H173 C166 0.929 . S
H174 C197 0.931 . S
H175 C198 0.931 . S
O176 Eu132 2.469 . S
O176 C196 1.252 . S
O177 Eu132 2.364 1_554 S
O177 C188 1.249 . S
O178 Eu143 2.335 . S
O178 C188 1.264 . S
O179 Eu132 2.439 . S
O179 C196 1.268 . S
O180 Eu132 2.289 1_554 S
O180 C195 1.255 . S
O181 Eu143 2.372 . S
O181 C195 1.257 . S
O182 Eu143 2.462 . S
O182 C207 1.252 . S
O183 Eu143 2.373 . S
O183 C199 1.249 1_554 S
O184 Eu132 2.339 . S
O184 C199 1.264 . S
O185 Eu143 2.432 . S
O185 C207 1.268 . S
O186 Eu143 2.291 . S
O186 C206 1.255 . S
O187 Eu132 2.369 1_554 S
O187 C206 1.257 . S
C188 O177 1.249 . S
C188 O178 1.264 . S
C189 C192 1.382 . S
C189 C194 1.390 . S
C189 C196 1.506 . S
C190 C191 1.398 . S
C190 C194 1.392 . S
C191 C190 1.398 . S
C191 C193 1.372 . S
C191 H208 0.931 . S
C192 C189 1.382 . S
C192 C193 1.390 . S
C192 H209 0.931 . S
C193 C191 1.372 . S
C193 C192 1.390 . S
C193 H210 0.929 . S
C194 C189 1.390 . S
C194 C190 1.392 . S
C194 H211 0.930 . S
C195 O180 1.255 . S
C195 O181 1.257 . S
C196 Eu132 2.795 . S
C196 O176 1.252 . S
C196 O179 1.268 . S
C196 C189 1.506 . S
C197 C164 1.439 . S
C197 H174 0.931 . S
C197 C198 1.374 . S
C198 C169 1.387 . S
C198 H175 0.931 . S
C198 C197 1.374 . S
C199 O183 1.249 1_556 S
C199 O184 1.264 . S
C200 C203 1.382 . S
C200 C204 1.390 . S
C200 C207 1.506 . S
C201 C202 1.398 . S
C201 C204 1.392 . S
C202 C201 1.398 . S
C202 C205 1.372 . S
C202 H212 0.931 . S
C203 C200 1.382 . S
C203 C205 1.390 . S
C203 H213 0.931 . S
C204 C200 1.390 . S
C204 C201 1.392 . S
C204 H214 0.930 . S
C205 C202 1.372 . S
C205 C203 1.390 . S
C205 H215 0.929 . S
C206 O186 1.255 . S
C206 O187 1.257 . S
C207 Eu143 2.787 . S
C207 O182 1.252 . S
C207 O185 1.268 . S
C207 C200 1.506 . S
H208 C191 0.931 . S
H209 C192 0.931 . S
H210 C193 0.929 . S
H211 C194 0.930 . S
H212 C202 0.931 . S
H213 C203 0.931 . S
H214 C204 0.930 . S
H215 C205 0.929 . S
C216 C217 1.391 . S
C216 C218 1.394 . S
C216 H232 0.931 . S
C217 C216 1.391 . S
C217 C221 1.376 . S
C218 C216 1.394 . S
C218 C219 1.369 . S
C218 C222 1.531 . S
C219 C218 1.369 . S
C219 C220 1.410 . S
C219 C227 1.503 . S
C220 C219 1.410 . S
C220 C221 1.392 . S
C220 C223 1.511 . S
C221 C217 1.376 . S
C221 C220 1.392 . S
C221 H233 0.929 . S
C222 C218 1.531 . S
C222 H234 0.960 . S
C222 H235 0.962 . S
C222 H236 0.960 . S
C223 C220 1.511 . S
C223 H237 0.961 . S
C223 H238 0.961 . S
C223 H239 0.961 . S
C224 C225 1.370 . S
C224 C226 1.363 . S
C224 H240 0.931 . S
C225 C224 1.370 . S
C225 C229 1.408 . S
C226 C224 1.363 . S
C226 C227 1.370 . S
C226 C230 1.524 . S
C227 C219 1.503 . S
C227 C226 1.370 . S
C227 C228 1.403 . S
C228 C227 1.403 . S
C228 C229 1.404 . S
C228 C231 1.539 . S
C229 C225 1.408 . S
C229 C228 1.404 . S
C229 H241 0.930 . S
C230 C226 1.524 . S
C230 H242 0.956 . S
C230 H243 0.961 . S
C230 H244 0.961 . S
C231 C228 1.539 . S
C231 H245 0.958 . S
C231 H246 0.961 . S
C231 H247 0.960 . S
H232 C216 0.931 . S
H233 C221 0.929 . S
H234 C222 0.960 . S
H235 C222 0.962 . S
H236 C222 0.960 . S
H237 C223 0.961 . S
H238 C223 0.961 . S
H239 C223 0.961 . S
H240 C224 0.931 . S
H241 C229 0.930 . S
H242 C230 0.956 . S
H243 C230 0.961 . S
H244 C230 0.961 . S
H245 C231 0.958 . S
H246 C231 0.961 . S
H247 C231 0.960 . S
C248 C249 1.391 . S
C248 C250 1.394 . S
C248 H264 0.931 . S
C249 C248 1.391 . S
C249 C253 1.376 . S
C250 C248 1.394 . S
C250 C251 1.369 . S
C250 C254 1.531 . S
C251 C250 1.369 . S
C251 C252 1.410 . S
C251 C259 1.503 . S
C252 C251 1.410 . S
C252 C253 1.392 . S
C252 C255 1.511 . S
C253 C249 1.376 . S
C253 C252 1.392 . S
C253 H265 0.929 . S
C254 C250 1.531 . S
C254 H266 0.960 . S
C254 H267 0.962 . S
C254 H268 0.960 . S
C255 C252 1.511 . S
C255 H269 0.961 . S
C255 H270 0.961 . S
C255 H271 0.961 . S
C256 C257 1.370 . S
C256 C258 1.363 . S
C256 H272 0.931 1_554 S
C257 C256 1.370 . S
C257 C261 1.408 . S
C258 C256 1.363 . S
C258 C259 1.370 . S
C258 C262 1.524 1_554 S
C259 C251 1.503 . S
C259 C258 1.370 . S
C259 C260 1.403 . S
C260 C259 1.403 . S
C260 C261 1.404 . S
C260 C263 1.539 . S
C261 C257 1.408 . S
C261 C260 1.404 . S
C261 H273 0.930 . S
C262 C258 1.524 1_556 S
C262 H274 0.956 . S
C262 H275 0.961 . S
C262 H276 0.961 . S
C263 C260 1.539 . S
C263 H277 0.958 . S
C263 H278 0.961 . S
C263 H279 0.960 . S
H264 C248 0.931 . S
H265 C253 0.929 . S
H266 C254 0.960 . S
H267 C254 0.962 . S
H268 C254 0.960 . S
H269 C255 0.961 . S
H270 C255 0.961 . S
H271 C255 0.961 . S
H272 C256 0.931 1_556 S
H273 C261 0.930 . S
H274 C262 0.956 . S
H275 C262 0.961 . S
H276 C262 0.961 . S
H277 C263 0.958 . S
H278 C263 0.961 . S
H279 C263 0.960 . S
C280 C281 1.391 . S
C280 C282 1.394 . S
C280 H296 0.931 . S
C281 C280 1.391 . S
C281 C285 1.376 . S
C282 C280 1.394 . S
C282 C283 1.369 . S
C282 C286 1.531 . S
C283 C282 1.369 . S
C283 C284 1.410 . S
C283 C291 1.503 . S
C284 C283 1.410 . S
C284 C285 1.392 . S
C284 C287 1.511 . S
C285 C281 1.376 . S
C285 C284 1.392 . S
C285 H297 0.929 . S
C286 C282 1.531 . S
C286 H298 0.960 . S
C286 H299 0.962 . S
C286 H300 0.960 . S
C287 C284 1.511 . S
C287 H301 0.961 . S
C287 H302 0.961 . S
C287 H303 0.961 . S
C288 C289 1.370 . S
C288 C290 1.363 . S
C288 H304 0.931 . S
C289 C288 1.370 . S
C289 C293 1.408 . S
C290 C288 1.363 . S
C290 C291 1.370 . S
C290 C294 1.524 . S
C291 C283 1.503 . S
C291 C290 1.370 . S
C291 C292 1.403 . S
C292 C291 1.403 . S
C292 C293 1.404 . S
C292 C295 1.539 . S
C293 C289 1.408 . S
C293 C292 1.404 . S
C293 H305 0.930 . S
C294 C290 1.524 . S
C294 H306 0.956 . S
C294 H307 0.961 . S
C294 H308 0.961 . S
C295 C292 1.539 . S
C295 H309 0.958 . S
C295 H310 0.961 . S
C295 H311 0.960 . S
H296 C280 0.931 . S
H297 C285 0.929 . S
H298 C286 0.960 . S
H299 C286 0.962 . S
H300 C286 0.960 . S
H301 C287 0.961 . S
H302 C287 0.961 . S
H303 C287 0.961 . S
H304 C288 0.931 . S
H305 C293 0.930 . S
H306 C294 0.956 . S
H307 C294 0.961 . S
H308 C294 0.961 . S
H309 C295 0.958 . S
H310 C295 0.961 . S
H311 C295 0.960 . S
C312 C313 1.391 . S
C312 C314 1.394 . S
C312 H328 0.931 . S
C313 C312 1.391 . S
C313 C317 1.376 . S
C314 C312 1.394 . S
C314 C315 1.369 . S
C314 C318 1.531 . S
C315 C314 1.369 . S
C315 C316 1.410 . S
C315 C323 1.503 . S
C316 C315 1.410 . S
C316 C317 1.392 . S
C316 C319 1.511 1_554 S
C317 C313 1.376 . S
C317 C316 1.392 . S
C317 H329 0.929 1_554 S
C318 C314 1.531 . S
C318 H330 0.960 . S
C318 H331 0.962 . S
C318 H332 0.960 . S
C319 C316 1.511 1_556 S
C319 H333 0.961 . S
C319 H334 0.961 . S
C319 H335 0.961 . S
C320 C321 1.370 . S
C320 C322 1.363 . S
C320 H336 0.931 . S
C321 C320 1.370 . S
C321 C325 1.408 . S
C322 C320 1.363 . S
C322 C323 1.370 . S
C322 C326 1.524 1_554 S
C323 C315 1.503 . S
C323 C322 1.370 . S
C323 C324 1.403 . S
C324 C323 1.403 . S
C324 C325 1.404 . S
C324 C327 1.539 . S
C325 C321 1.408 . S
C325 C324 1.404 . S
C325 H337 0.930 . S
C326 C322 1.524 1_556 S
C326 H338 0.956 1_556 S
C326 H339 0.961 . S
C326 H340 0.961 . S
C327 C324 1.539 . S
C327 H341 0.958 . S
C327 H342 0.961 . S
C327 H343 0.960 . S
H328 C312 0.931 . S
H329 C317 0.929 1_556 S
H330 C318 0.960 . S
H331 C318 0.962 . S
H332 C318 0.960 . S
H333 C319 0.961 . S
H334 C319 0.961 . S
H335 C319 0.961 . S
H336 C320 0.931 . S
H337 C325 0.930 . S
H338 C326 0.956 1_554 S
H339 C326 0.961 . S
H340 C326 0.961 . S
H341 C327 0.958 . S
H342 C327 0.961 . S
H343 C327 0.960 . S
C344 C345 1.391 . S
C344 C346 1.394 . S
C344 H360 0.931 . S
C345 C344 1.391 . S
C345 C349 1.376 . S
C346 C344 1.394 . S
C346 C347 1.369 . S
C346 C350 1.531 . S
C347 C346 1.369 . S
C347 C348 1.410 . S
C347 C355 1.503 . S
C348 C347 1.410 . S
C348 C349 1.392 . S
C348 C351 1.511 . S
C349 C345 1.376 . S
C349 C348 1.392 . S
C349 H361 0.929 . S
C350 C346 1.531 . S
C350 H362 0.960 . S
C350 H363 0.962 . S
C350 H364 0.960 . S
C351 C348 1.511 . S
C351 H365 0.961 . S
C351 H366 0.961 . S
C351 H367 0.961 . S
C352 C353 1.370 . S
C352 C354 1.363 . S
C352 H368 0.931 . S
C353 C352 1.370 . S
C353 C357 1.408 . S
C354 C352 1.363 . S
C354 C355 1.370 . S
C354 C358 1.524 . S
C355 C347 1.503 . S
C355 C354 1.370 . S
C355 C356 1.403 . S
C356 C355 1.403 . S
C356 C357 1.404 . S
C356 C359 1.539 . S
C357 C353 1.408 . S
C357 C356 1.404 . S
C357 H369 0.930 1_565 S
C358 C354 1.524 . S
C358 H370 0.956 . S
C358 H371 0.961 . S
C358 H372 0.961 . S
C359 C356 1.539 . S
C359 H373 0.958 . S
C359 H374 0.961 1_565 S
C359 H375 0.960 . S
H360 C344 0.931 . S
H361 C349 0.929 . S
H362 C350 0.960 . S
H363 C350 0.962 . S
H364 C350 0.960 . S
H365 C351 0.961 . S
H366 C351 0.961 . S
H367 C351 0.961 . S
H368 C352 0.931 . S
H369 C357 0.930 1_545 S
H370 C358 0.956 . S
H371 C358 0.961 . S
H372 C358 0.961 . S
H373 C359 0.958 . S
H374 C359 0.961 1_545 S
H375 C359 0.960 . S
C376 C377 1.391 . S
C376 C378 1.394 . S
C376 H392 0.931 . S
C377 C376 1.391 . S
C377 C381 1.376 . S
C378 C376 1.394 . S
C378 C379 1.369 . S
C378 C382 1.531 . S
C379 C378 1.369 . S
C379 C380 1.410 . S
C379 C387 1.503 . S
C380 C379 1.410 . S
C380 C381 1.392 . S
C380 C383 1.511 . S
C381 C377 1.376 . S
C381 C380 1.392 . S
C381 H393 0.929 . S
C382 C378 1.531 . S
C382 H394 0.960 . S
C382 H395 0.962 . S
C382 H396 0.960 . S
C383 C380 1.511 . S
C383 H397 0.961 . S
C383 H398 0.961 . S
C383 H399 0.961 . S
C384 C385 1.370 . S
C384 C386 1.363 . S
C384 H400 0.931 . S
C385 C384 1.370 . S
C385 C389 1.408 . S
C386 C384 1.363 . S
C386 C387 1.370 . S
C386 C390 1.524 . S
C387 C379 1.503 . S
C387 C386 1.370 . S
C387 C388 1.403 . S
C388 C387 1.403 . S
C388 C389 1.404 . S
C388 C391 1.539 . S
C389 C385 1.408 . S
C389 C388 1.404 . S
C389 H401 0.930 . S
C390 C386 1.524 . S
C390 H402 0.956 . S
C390 H403 0.961 . S
C390 H404 0.961 . S
C391 C388 1.539 . S
C391 H405 0.958 . S
C391 H406 0.961 . S
C391 H407 0.960 . S
H392 C376 0.931 . S
H393 C381 0.929 . S
H394 C382 0.960 . S
H395 C382 0.962 . S
H396 C382 0.960 . S
H397 C383 0.961 . S
H398 C383 0.961 . S
H399 C383 0.961 . S
H400 C384 0.931 . S
H401 C389 0.930 . S
H402 C390 0.956 . S
H403 C390 0.961 . S
H404 C390 0.961 . S
H405 C391 0.958 . S
H406 C391 0.961 . S
H407 C391 0.960 . S
C408 C409 1.391 . S
C408 C410 1.394 . S
C408 H424 0.931 . S
C409 C408 1.391 . S
C409 C413 1.376 . S
C410 C408 1.394 . S
C410 C411 1.369 . S
C410 C414 1.531 . S
C411 C410 1.369 . S
C411 C412 1.410 . S
C411 C419 1.503 . S
C412 C411 1.410 . S
C412 C413 1.392 . S
C412 C415 1.511 . S
C413 C409 1.376 . S
C413 C412 1.392 . S
C413 H425 0.929 . S
C414 C410 1.531 . S
C414 H426 0.960 . S
C414 H427 0.962 . S
C414 H428 0.960 . S
C415 C412 1.511 . S
C415 H429 0.961 . S
C415 H430 0.961 . S
C415 H431 0.961 . S
C416 C417 1.370 . S
C416 C418 1.363 . S
C416 H432 0.931 . S
C417 C416 1.370 . S
C417 C421 1.408 . S
C418 C416 1.363 . S
C418 C419 1.370 . S
C418 C422 1.524 . S
C419 C411 1.503 . S
C419 C418 1.370 . S
C419 C420 1.403 . S
C420 C419 1.403 . S
C420 C421 1.404 . S
C420 C423 1.539 . S
C421 C417 1.408 . S
C421 C420 1.404 . S
C421 H433 0.930 . S
C422 C418 1.524 . S
C422 H434 0.956 . S
C422 H435 0.961 . S
C422 H436 0.961 . S
C423 C420 1.539 . S
C423 H437 0.958 . S
C423 H438 0.961 . S
C423 H439 0.960 . S
H424 C408 0.931 . S
H425 C413 0.929 . S
H426 C414 0.960 . S
H427 C414 0.962 . S
H428 C414 0.960 . S
H429 C415 0.961 . S
H430 C415 0.961 . S
H431 C415 0.961 . S
H432 C416 0.931 . S
H433 C421 0.930 . S
H434 C422 0.956 . S
H435 C422 0.961 . S
H436 C422 0.961 . S
H437 C423 0.958 . S
H438 C423 0.961 . S
H439 C423 0.960 . S
C440 C441 1.391 . S
C440 C442 1.394 . S
C440 H456 0.931 . S
C441 C440 1.391 . S
C441 C445 1.376 . S
C442 C440 1.394 . S
C442 C443 1.369 . S
C442 C446 1.531 . S
C443 C442 1.369 . S
C443 C444 1.410 . S
C443 C451 1.503 . S
C444 C443 1.410 . S
C444 C445 1.392 . S
C444 C447 1.511 . S
C445 C441 1.376 . S
C445 C444 1.392 . S
C445 H457 0.929 . S
C446 C442 1.531 . S
C446 H458 0.960 . S
C446 H459 0.962 . S
C446 H460 0.960 . S
C447 C444 1.511 . S
C447 H461 0.961 . S
C447 H462 0.961 . S
C447 H463 0.961 . S
C448 C449 1.370 . S
C448 C450 1.363 . S
C448 H464 0.931 . S
C449 C448 1.370 . S
C449 C453 1.408 . S
C450 C448 1.363 . S
C450 C451 1.370 . S
C450 C454 1.524 . S
C451 C443 1.503 . S
C451 C450 1.370 . S
C451 C452 1.403 . S
C452 C451 1.403 . S
C452 C453 1.404 . S
C452 C455 1.539 . S
C453 C449 1.408 . S
C453 C452 1.404 . S
C453 H465 0.930 . S
C454 C450 1.524 . S
C454 H466 0.956 . S
C454 H467 0.961 . S
C454 H468 0.961 . S
C455 C452 1.539 . S
C455 H469 0.958 . S
C455 H470 0.961 . S
C455 H471 0.960 . S
H456 C440 0.931 . S
H457 C445 0.929 . S
H458 C446 0.960 . S
H459 C446 0.962 . S
H460 C446 0.960 . S
H461 C447 0.961 . S
H462 C447 0.961 . S
H463 C447 0.961 . S
H464 C448 0.931 . S
H465 C453 0.930 . S
H466 C454 0.956 . S
H467 C454 0.961 . S
H468 C454 0.961 . S
H469 C455 0.958 . S
H470 C455 0.961 . S
H471 C455 0.960 . S
C472 C473 1.391 . S
C472 C474 1.394 . S
C472 H488 0.931 . S
C473 C472 1.391 . S
C473 C477 1.376 . S
C474 C472 1.394 . S
C474 C475 1.369 . S
C474 C478 1.531 . S
C475 C474 1.369 . S
C475 C476 1.410 . S
C475 C483 1.503 . S
C476 C475 1.410 . S
C476 C477 1.392 . S
C476 C479 1.511 . S
C477 C473 1.376 . S
C477 C476 1.392 . S
C477 H489 0.929 . S
C478 C474 1.531 . S
C478 H490 0.960 . S
C478 H491 0.962 . S
C478 H492 0.960 . S
C479 C476 1.511 . S
C479 H493 0.961 . S
C479 H494 0.961 . S
C479 H495 0.961 . S
C480 C481 1.370 . S
C480 C482 1.363 . S
C480 H496 0.931 . S
C481 C480 1.370 . S
C481 C485 1.408 . S
C482 C480 1.363 . S
C482 C483 1.370 . S
C482 C486 1.524 . S
C483 C475 1.503 . S
C483 C482 1.370 . S
C483 C484 1.403 . S
C484 C483 1.403 . S
C484 C485 1.404 . S
C484 C487 1.539 . S
C485 C481 1.408 . S
C485 C484 1.404 . S
C485 H497 0.930 . S
C486 C482 1.524 . S
C486 H498 0.956 . S
C486 H499 0.961 . S
C486 H500 0.961 . S
C487 C484 1.539 . S
C487 H501 0.958 . S
C487 H502 0.961 . S
C487 H503 0.960 . S
H488 C472 0.931 . S
H489 C477 0.929 . S
H490 C478 0.960 . S
H491 C478 0.962 . S
H492 C478 0.960 . S
H493 C479 0.961 . S
H494 C479 0.961 . S
H495 C479 0.961 . S
H496 C480 0.931 . S
H497 C485 0.930 . S
H498 C486 0.956 . S
H499 C486 0.961 . S
H500 C486 0.961 . S
H501 C487 0.958 . S
H502 C487 0.961 . S
H503 C487 0.960 . S
C504 C505 1.391 . S
C504 C506 1.394 . S
C504 H520 0.931 . S
C505 C504 1.391 . S
C505 C509 1.376 . S
C506 C504 1.394 . S
C506 C507 1.369 . S
C506 C510 1.531 . S
C507 C506 1.369 . S
C507 C508 1.410 . S
C507 C515 1.503 . S
C508 C507 1.410 . S
C508 C509 1.392 . S
C508 C511 1.511 . S
C509 C505 1.376 . S
C509 C508 1.392 . S
C509 H521 0.929 1_556 S
C510 C506 1.531 . S
C510 H522 0.960 . S
C510 H523 0.962 . S
C510 H524 0.960 . S
C511 C508 1.511 . S
C511 H525 0.961 . S
C511 H526 0.961 . S
C511 H527 0.961 . S
C512 C513 1.370 . S
C512 C514 1.363 . S
C512 H528 0.931 . S
C513 C512 1.370 . S
C513 C517 1.408 . S
C514 C512 1.363 . S
C514 C515 1.370 . S
C514 C518 1.524 . S
C515 C507 1.503 . S
C515 C514 1.370 . S
C515 C516 1.403 . S
C516 C515 1.403 . S
C516 C517 1.404 . S
C516 C519 1.539 . S
C517 C513 1.408 . S
C517 C516 1.404 . S
C517 H529 0.930 . S
C518 C514 1.524 . S
C518 H530 0.956 . S
C518 H531 0.961 . S
C518 H532 0.985 . S
C519 C516 1.539 . S
C519 H533 0.958 . S
C519 H534 0.961 . S
C519 H535 0.960 . S
H520 C504 0.931 . S
H521 C509 0.929 1_554 S
H522 C510 0.960 . S
H523 C510 0.962 . S
H524 C510 0.960 . S
H525 C511 0.961 . S
H526 C511 0.961 . S
H527 C511 0.961 . S
H528 C512 0.931 . S
H529 C517 0.930 . S
H530 C518 0.956 . S
H531 C518 0.961 . S
H532 C518 0.985 . S
H533 C519 0.958 . S
H534 C519 0.961 . S
H535 C519 0.960 . S
C536 C537 1.391 . S
C536 C538 1.394 . S
C536 H552 0.931 . S
C537 C536 1.391 . S
C537 C541 1.376 . S
C538 C536 1.394 . S
C538 C539 1.369 . S
C538 C542 1.531 . S
C539 C538 1.369 . S
C539 C540 1.410 . S
C539 C547 1.503 . S
C540 C539 1.410 . S
C540 C541 1.392 . S
C540 C543 1.511 . S
C541 C537 1.376 . S
C541 C540 1.392 . S
C541 H553 0.929 . S
C542 C538 1.531 . S
C542 H554 0.960 . S
C542 H555 0.962 . S
C542 H556 0.960 . S
C543 C540 1.511 . S
C543 H557 0.961 . S
C543 H558 0.961 . S
C543 H559 0.961 . S
C544 C545 1.370 . S
C544 C546 1.363 . S
C544 H560 0.931 . S
C545 C544 1.370 . S
C545 C549 1.408 . S
C546 C544 1.363 . S
C546 C547 1.370 . S
C546 C550 1.524 . S
C547 C539 1.503 . S
C547 C546 1.370 . S
C547 C548 1.403 . S
C548 C547 1.403 . S
C548 C549 1.404 . S
C548 C551 1.539 . S
C549 C545 1.408 . S
C549 C548 1.404 . S
C549 H561 0.930 . S
C550 C546 1.524 . S
C550 H562 0.956 . S
C550 H563 0.961 . S
C550 H564 0.961 . S
C551 C548 1.539 . S
C551 H565 0.958 . S
C551 H566 0.961 . S
C551 H567 0.960 . S
H552 C536 0.931 . S
H553 C541 0.929 . S
H554 C542 0.960 . S
H555 C542 0.962 . S
H556 C542 0.960 . S
H557 C543 0.961 . S
H558 C543 0.961 . S
H559 C543 0.961 . S
H560 C544 0.931 . S
H561 C549 0.930 . S
H562 C550 0.956 . S
H563 C550 0.961 . S
H564 C550 0.961 . S
H565 C551 0.958 . S
H566 C551 0.961 . S
H567 C551 0.960 . S
C568 C569 1.391 . S
C568 C570 1.394 . S
C568 H584 0.931 . S
C569 C568 1.391 . S
C569 C573 1.376 . S
C570 C568 1.394 . S
C570 C571 1.369 . S
C570 C574 1.531 . S
C571 C570 1.369 . S
C571 C572 1.410 . S
C571 C579 1.503 . S
C572 C571 1.410 . S
C572 C573 1.392 . S
C572 C575 1.511 . S
C573 C569 1.376 . S
C573 C572 1.392 . S
C573 H585 0.929 . S
C574 C570 1.531 . S
C574 H586 0.960 . S
C574 H587 0.962 . S
C574 H588 0.960 . S
C575 C572 1.511 . S
C575 H589 0.961 . S
C575 H590 0.961 . S
C575 H591 0.961 . S
C576 C577 1.370 . S
C576 C578 1.363 . S
C576 H592 0.931 1_565 S
C577 C576 1.370 . S
C577 C581 1.408 . S
C578 C576 1.363 . S
C578 C579 1.370 . S
C578 C582 1.524 . S
C579 C571 1.503 . S
C579 C578 1.370 . S
C579 C580 1.403 . S
C580 C579 1.403 . S
C580 C581 1.404 . S
C580 C583 1.539 . S
C581 C577 1.408 . S
C581 C580 1.404 . S
C581 H593 0.930 . S
C582 C578 1.524 . S
C582 H594 0.956 . S
C582 H595 0.961 . S
C582 H596 0.961 1_565 S
C583 C580 1.539 . S
C583 H597 0.958 . S
C583 H598 0.961 . S
C583 H599 0.960 . S
H584 C568 0.931 . S
H585 C573 0.929 . S
H586 C574 0.960 . S
H587 C574 0.962 . S
H588 C574 0.960 . S
H589 C575 0.961 . S
H590 C575 0.961 . S
H591 C575 0.961 . S
H592 C576 0.931 1_545 S
H593 C581 0.930 . S
H594 C582 0.956 . S
H595 C582 0.961 . S
H596 C582 0.961 1_545 S
H597 C583 0.958 . S
H598 C583 0.961 . S
H599 C583 0.960 . S
C225 C111 1.663 . S
C217 C40 1.672 . S
C249 C4 1.659 . S
C257 C206 1.654 . S
C281 C16 1.674 . S
C289 C122 1.678 . S
C313 C28 1.610 . S
C321 C195 1.627 . S
C353 C106 1.460 . S
C345 C9 1.606 . S
C385 C199 1.707 . S
C377 C18 1.710 . S
C409 C33 1.620 . S
C417 C115 1.650 . S
C441 C45 1.591 . S
C449 C190 1.425 . S
C481 C201 1.410 . S
C473 C21 1.572 . S
C513 C117 1.370 . S
C505 C30 1.558 1_556 S
C545 C188 1.637 . S
C537 C42 1.633 . S
C569 C6 1.557 . S
C577 C104 1.591 . S
