# Generated by pormake.
# Topology cml, (3,6)-cn, num edge types: 1
# Building blocks:
#     Node 0, Type 0, BuildingBlock: ESEHIV_clean_linker_0, # of connection points: 3
#     Node 1, Type 0, BuildingBlock: ESEHIV_clean_linker_0, # of connection points: 3
#     Node 2, Type 0, BuildingBlock: ESEHIV_clean_linker_0, # of connection points: 3
#     Node 3, Type 0, BuildingBlock: ESEHIV_clean_linker_0, # of connection points: 3
#     Node 4, Type 0, BuildingBlock: ESEHIV_clean_linker_0, # of connection points: 3
#     Node 5, Type 0, BuildingBlock: ESEHIV_clean_linker_0, # of connection points: 3
#     Node 6, Type 0, BuildingBlock: ESEHIV_clean_linker_0, # of connection points: 3
#     Node 7, Type 0, BuildingBlock: ESEHIV_clean_linker_0, # of connection points: 3
#     Node 8, Type 1, BuildingBlock: IZENUY_clean_sbu_0, # of connection points: 6
#     Node 9, Type 1, BuildingBlock: IZENUY_clean_sbu_0, # of connection points: 6
#     Node 10, Type 1, BuildingBlock: IZENUY_clean_sbu_0, # of connection points: 6
#     Node 11, Type 1, BuildingBlock: IZENUY_clean_sbu_0, # of connection points: 6
#     Edge 12, Type (0, 1), BuildingBlock: TEMPAE_clean_linker_10, # of connection points: 2
#     Edge 13, Type (0, 1), BuildingBlock: TEMPAE_clean_linker_10, # of connection points: 2
#     Edge 14, Type (0, 1), BuildingBlock: TEMPAE_clean_linker_10, # of connection points: 2
#     Edge 15, Type (0, 1), BuildingBlock: TEMPAE_clean_linker_10, # of connection points: 2
#     Edge 16, Type (0, 1), BuildingBlock: TEMPAE_clean_linker_10, # of connection points: 2
#     Edge 17, Type (0, 1), BuildingBlock: TEMPAE_clean_linker_10, # of connection points: 2
#     Edge 18, Type (0, 1), BuildingBlock: TEMPAE_clean_linker_10, # of connection points: 2
#     Edge 19, Type (0, 1), BuildingBlock: TEMPAE_clean_linker_10, # of connection points: 2
#     Edge 20, Type (0, 1), BuildingBlock: TEMPAE_clean_linker_10, # of connection points: 2
#     Edge 21, Type (0, 1), BuildingBlock: TEMPAE_clean_linker_10, # of connection points: 2
#     Edge 22, Type (0, 1), BuildingBlock: TEMPAE_clean_linker_10, # of connection points: 2
#     Edge 23, Type (0, 1), BuildingBlock: TEMPAE_clean_linker_10, # of connection points: 2
#     Edge 24, Type (0, 1), BuildingBlock: TEMPAE_clean_linker_10, # of connection points: 2
#     Edge 25, Type (0, 1), BuildingBlock: TEMPAE_clean_linker_10, # of connection points: 2
#     Edge 26, Type (0, 1), BuildingBlock: TEMPAE_clean_linker_10, # of connection points: 2
#     Edge 27, Type (0, 1), BuildingBlock: TEMPAE_clean_linker_10, # of connection points: 2
#     Edge 28, Type (0, 1), BuildingBlock: TEMPAE_clean_linker_10, # of connection points: 2
#     Edge 29, Type (0, 1), BuildingBlock: TEMPAE_clean_linker_10, # of connection points: 2
#     Edge 30, Type (0, 1), BuildingBlock: TEMPAE_clean_linker_10, # of connection points: 2
#     Edge 31, Type (0, 1), BuildingBlock: TEMPAE_clean_linker_10, # of connection points: 2
#     Edge 32, Type (0, 1), BuildingBlock: TEMPAE_clean_linker_10, # of connection points: 2
#     Edge 33, Type (0, 1), BuildingBlock: TEMPAE_clean_linker_10, # of connection points: 2
#     Edge 34, Type (0, 1), BuildingBlock: TEMPAE_clean_linker_10, # of connection points: 2
#     Edge 35, Type (0, 1), BuildingBlock: TEMPAE_clean_linker_10, # of connection points: 2
# Relax obj value: 0.055
# Max RMSD: 0.070
# Mean RMSD: 0.067
data_MOF--net-cml--node1-IZENUY_clean_sbu_0--node2-ESEHIV_clean_linker_0--edge1-TEMPAE_clean_linker_10
_symmetry_space_group_name_H-M    P1
_symmetry_Int_Tables_number       1
_symmetry_cell_setting            triclinic
loop_
_symmetry_equiv_pos_as_xyz
'x, y, z'
_cell_length_a     33.884505
_cell_length_b     39.368838
_cell_length_c     36.581094
_cell_angle_alpha  90.025243
_cell_angle_beta   89.928743
_cell_angle_gamma 89.875415
loop_
_atom_site_label
_atom_site_type_symbol
_atom_site_fract_x
_atom_site_fract_y
_atom_site_fract_z
_atom_type_partial_charge
H0 H 0.34105 0.41701 0.0266 0.0
H1 H 0.2608 0.39339 0.93955 0.0
H2 H 0.26438 0.33047 0.0358 0.0
C3 C 0.31839 0.40073 0.01524 0.0
C4 C 0.3048 0.37276 0.03539 0.0
C5 C 0.30275 0.40828 0.98072 0.0
C6 C 0.27247 0.388 0.96652 0.0
C7 C 0.25859 0.35978 0.98619 0.0
C8 C 0.27485 0.35233 0.02064 0.0
H9 H 0.67318 0.57569 0.52782 0.0
H10 H 0.74891 0.60665 0.43995 0.0
H11 H 0.74221 0.66697 0.53803 0.0
C12 C 0.69454 0.59344 0.51683 0.0
C13 C 0.70557 0.62211 0.53729 0.0
C14 C 0.70993 0.58793 0.48174 0.0
C15 C 0.73742 0.61075 0.46729 0.0
C16 C 0.74966 0.63907 0.48766 0.0
C17 C 0.73344 0.64476 0.52256 0.0
H18 H 0.67121 0.41687 0.04099 0.0
H19 H 0.74826 0.33024 0.03836 0.0
H20 H 0.73921 0.39537 0.94412 0.0
C21 C 0.6926 0.40139 0.02648 0.0
C22 C 0.70306 0.40969 0.99039 0.0
C23 C 0.70863 0.37274 0.04379 0.0
C24 C 0.73616 0.35258 0.0251 0.0
C25 C 0.74775 0.36083 0.9893 0.0
C26 C 0.73091 0.38931 0.97199 0.0
H27 H 0.34428 0.59367 0.53102 0.0
H28 H 0.26565 0.61042 0.44051 0.0
H29 H 0.26455 0.67855 0.53276 0.0
C30 C 0.32144 0.60859 0.51783 0.0
C31 C 0.30641 0.63739 0.53565 0.0
C32 C 0.30693 0.59849 0.4836 0.0
C33 C 0.27676 0.6177 0.46716 0.0
C34 C 0.26114 0.64653 0.48483 0.0
C35 C 0.27586 0.656 0.51929 0.0
H36 H 0.84371 0.91481 0.0234 0.0
H37 H 0.76636 0.8896 0.93459 0.0
H38 H 0.76693 0.82828 0.03203 0.0
C39 C 0.82154 0.89826 0.01167 0.0
C40 C 0.80732 0.87061 0.03198 0.0
C41 C 0.80701 0.90524 0.97657 0.0
C42 C 0.77725 0.88464 0.96193 0.0
C43 C 0.76275 0.85675 0.98175 0.0
C44 C 0.77791 0.84988 0.01676 0.0
H45 H 0.15951 0.08672 0.52375 0.0
H46 H 0.23758 0.11181 0.43526 0.0
H47 H 0.23642 0.17319 0.53264 0.0
C48 C 0.18178 0.10324 0.51211 0.0
C49 C 0.19594 0.13088 0.5325 0.0
C50 C 0.19652 0.09625 0.47703 0.0
C51 C 0.22647 0.11676 0.46256 0.0
C52 C 0.24092 0.14458 0.48246 0.0
C53 C 0.2255 0.15156 0.51738 0.0
H54 H 0.17185 0.91774 0.04087 0.0
H55 H 0.24867 0.83093 0.03814 0.0
H56 H 0.24293 0.89835 0.94548 0.0
C57 C 0.1937 0.90252 0.0266 0.0
C58 C 0.20534 0.91158 0.99108 0.0
C59 C 0.20912 0.8735 0.04362 0.0
C60 C 0.23712 0.85362 0.02516 0.0
C61 C 0.24988 0.86264 0.98987 0.0
C62 C 0.23374 0.89161 0.97291 0.0
H63 H 0.83076 0.08451 0.54163 0.0
H64 H 0.76135 0.1063 0.44588 0.0
H65 H 0.75488 0.17189 0.54002 0.0
C66 C 0.80928 0.10012 0.52745 0.0
C67 C 0.79396 0.12898 0.5449 0.0
C68 C 0.7981 0.09182 0.49158 0.0
C69 C 0.77018 0.11237 0.47358 0.0
C70 C 0.75405 0.14109 0.4911 0.0
C71 C 0.76638 0.14935 0.52665 0.0
Fe72 Fe 0.99839 0.80789 0.31457 0.0
Fe73 Fe 0.00242 0.85019 0.38494 0.0
O74 O 0.99937 0.84795 0.33669 0.0
Fe75 Fe 0.99727 0.8857 0.31048 0.0
O76 O 0.94986 0.87407 0.29139 0.0
O77 O 0.967 0.82206 0.27654 0.0
O78 O 0.95348 0.79603 0.33837 0.0
C79 C 0.94974 0.79559 0.37269 0.0
C80 C 0.04663 0.84264 0.26821 0.0
O81 O 0.97381 0.81137 0.39296 0.0
C82 C 0.05251 0.90345 0.36127 0.0
O83 O 0.02951 0.78625 0.34854 0.0
O84 O 0.04881 0.82714 0.38516 0.0
O85 O 0.02371 0.86792 0.27115 0.0
O86 O 0.04332 0.81734 0.28918 0.0
C87 C 0.94955 0.90142 0.37202 0.0
O88 O 0.03157 0.88928 0.38553 0.0
O89 O 0.04458 0.90001 0.32778 0.0
C90 C 0.05363 0.79791 0.37176 0.0
O91 O 0.95625 0.87368 0.38819 0.0
O92 O 0.97035 0.91037 0.34494 0.0
C93 C 0.94402 0.84732 0.27323 0.0
Fe94 Fe 0.00027 0.15352 0.88583 0.0
Fe95 Fe 0.00574 0.11723 0.81174 0.0
O96 O 0.00337 0.15523 0.83754 0.0
Fe97 Fe 0.00411 0.19502 0.81492 0.0
O98 O 0.04898 0.20727 0.83835 0.0
O99 O 0.02884 0.19251 0.89326 0.0
O100 O 0.04649 0.13013 0.88936 0.0
C101 C 0.05344 0.10231 0.87337 0.0
C102 C 0.94891 0.20559 0.87211 0.0
O103 O 0.03279 0.09305 0.84636 0.0
C104 C 0.95594 0.15956 0.76931 0.0
O105 O 0.97119 0.11435 0.88693 0.0
O106 O 0.95855 0.10288 0.82928 0.0
O107 O 0.97304 0.21699 0.84871 0.0
O108 O 0.95379 0.17653 0.88586 0.0
C109 C 0.05866 0.15543 0.77384 0.0
O110 O 0.97914 0.13449 0.77231 0.0
O111 O 0.95917 0.1851 0.78993 0.0
C112 C 0.95057 0.09967 0.8628 0.0
O113 O 0.05307 0.12887 0.79239 0.0
O114 O 0.03546 0.18056 0.77689 0.0
C115 C 0.05275 0.20816 0.87265 0.0
Fe116 Fe 0.50093 0.30769 0.31548 0.0
Fe117 Fe 0.50196 0.34927 0.38651 0.0
O118 O 0.50127 0.34746 0.33813 0.0
Fe119 Fe 0.50093 0.38549 0.31246 0.0
O120 O 0.45429 0.37465 0.29138 0.0
O121 O 0.47094 0.32242 0.27674 0.0
O122 O 0.45509 0.29572 0.33762 0.0
C123 C 0.45008 0.29476 0.37178 0.0
C124 C 0.55112 0.34252 0.27101 0.0
O125 O 0.47337 0.31023 0.39304 0.0
C126 C 0.55293 0.40291 0.36583 0.0
O127 O 0.53072 0.28582 0.35021 0.0
O128 O 0.54845 0.32626 0.38823 0.0
O129 O 0.52867 0.36807 0.27385 0.0
O130 O 0.54683 0.31705 0.29154 0.0
C131 C 0.44996 0.40055 0.37178 0.0
O132 O 0.53049 0.38866 0.38881 0.0
O133 O 0.54775 0.39891 0.33196 0.0
C134 C 0.5539 0.29722 0.37442 0.0
O135 O 0.45554 0.37261 0.38798 0.0
O136 O 0.47265 0.40985 0.34618 0.0
C137 C 0.44845 0.34796 0.27309 0.0
Fe138 Fe 0.4997 0.65329 0.8856 0.0
Fe139 Fe 0.50124 0.61615 0.81194 0.0
O140 O 0.50161 0.65448 0.83722 0.0
Fe141 Fe 0.50395 0.69409 0.81417 0.0
O142 O 0.5499 0.70479 0.83674 0.0
O143 O 0.5299 0.69149 0.89205 0.0
O144 O 0.54502 0.62858 0.88832 0.0
C145 C 0.55034 0.6004 0.87253 0.0
C146 C 0.45021 0.7067 0.8722 0.0
O147 O 0.52855 0.5915 0.84613 0.0
C148 C 0.45204 0.65994 0.77051 0.0
O149 O 0.46917 0.61499 0.88804 0.0
O150 O 0.45409 0.60363 0.83099 0.0
O151 O 0.47446 0.71731 0.84841 0.0
O152 O 0.45423 0.67762 0.88618 0.0
C153 C 0.55518 0.65201 0.77226 0.0
O154 O 0.47376 0.63386 0.77331 0.0
O155 O 0.45822 0.68593 0.78988 0.0
C156 C 0.44712 0.60082 0.86469 0.0
O157 O 0.54836 0.62578 0.79097 0.0
O158 O 0.53371 0.67821 0.77569 0.0
C159 C 0.55423 0.70604 0.87095 0.0
C160 C 0.19402 0.35147 0.95443 0.0
C161 C 0.22808 0.33745 0.97008 0.0
C162 C 0.16524 0.33064 0.93849 0.0
C163 C 0.17096 0.29501 0.93787 0.0
C164 C 0.20537 0.28073 0.95356 0.0
C165 C 0.23345 0.30214 0.96966 0.0
C166 C 0.12867 0.34674 0.92244 0.0
C167 C 0.21264 0.24287 0.9531 0.0
C168 C 0.08171 0.23797 0.92665 0.0
C169 C 0.08321 0.23023 0.88922 0.0
C170 C 0.10998 0.25916 0.94278 0.0
C171 C 0.14076 0.27262 0.92105 0.0
C172 C 0.14267 0.26472 0.88333 0.0
C173 C 0.11374 0.24374 0.86781 0.0
C174 C 0.10678 0.26728 0.98304 0.0
C175 C 0.17534 0.27836 0.8594 0.0
H176 H 0.18972 0.37876 0.95501 0.0
H177 H 0.26004 0.29131 0.98134 0.0
H178 H 0.12638 0.34034 0.89298 0.0
H179 H 0.10199 0.33647 0.9361 0.0
H180 H 0.12861 0.37483 0.92537 0.0
H181 H 0.24109 0.23587 0.96618 0.0
H182 H 0.18842 0.22956 0.96759 0.0
H183 H 0.21284 0.23347 0.9245 0.0
H184 H 0.05814 0.22776 0.9434 0.0
H185 H 0.11522 0.23772 0.83892 0.0
H186 H 0.10443 0.29516 0.98698 0.0
H187 H 0.13379 0.25871 0.99746 0.0
H188 H 0.08079 0.25503 0.99602 0.0
H189 H 0.17477 0.30654 0.8596 0.0
H190 H 0.17288 0.26948 0.83067 0.0
H191 H 0.20442 0.27033 0.87034 0.0
C192 C 0.77169 0.69796 0.47195 0.0
C193 C 0.77888 0.66289 0.47191 0.0
C194 C 0.79852 0.72055 0.45576 0.0
C195 C 0.8335 0.70772 0.43959 0.0
C196 C 0.8411 0.67235 0.43992 0.0
C197 C 0.81358 0.65034 0.45591 0.0
C198 C 0.78928 0.75809 0.45563 0.0
C199 C 0.87834 0.65775 0.42342 0.0
C200 C 0.88876 0.75984 0.36878 0.0
C201 C 0.9193 0.77379 0.38979 0.0
C202 C 0.86015 0.73878 0.38478 0.0
C203 C 0.86243 0.73123 0.42256 0.0
C204 C 0.89302 0.7454 0.44394 0.0
C205 C 0.92094 0.76664 0.42735 0.0
C206 C 0.82767 0.7244 0.36121 0.0
C207 C 0.89665 0.73765 0.48424 0.0
H208 H 0.74465 0.70763 0.48398 0.0
H209 H 0.81931 0.62324 0.45618 0.0
H210 H 0.813 0.77228 0.46981 0.0
H211 H 0.78815 0.76756 0.42708 0.0
H212 H 0.7607 0.76393 0.46918 0.0
H213 H 0.87997 0.62969 0.4263 0.0
H214 H 0.87995 0.66423 0.39395 0.0
H215 H 0.90458 0.66908 0.43679 0.0
H216 H 0.88712 0.76543 0.33981 0.0
H217 H 0.94447 0.77724 0.44381 0.0
H218 H 0.79844 0.73124 0.37279 0.0
H219 H 0.82959 0.69626 0.36088 0.0
H220 H 0.8292 0.73375 0.33259 0.0
H221 H 0.86915 0.74503 0.4987 0.0
H222 H 0.92185 0.75112 0.49711 0.0
H223 H 0.90072 0.70993 0.48828 0.0
C224 C 0.76928 0.32681 0.93482 0.0
C225 C 0.77698 0.33913 0.97005 0.0
C226 C 0.79598 0.30486 0.9172 0.0
C227 C 0.8314 0.29543 0.9351 0.0
C228 C 0.83958 0.30832 0.97043 0.0
C229 C 0.81216 0.32984 0.98755 0.0
C230 C 0.78604 0.29134 0.87971 0.0
C231 C 0.87728 0.29932 0.9902 0.0
C232 C 0.88696 0.21514 0.90834 0.0
C233 C 0.9175 0.22821 0.88661 0.0
C234 C 0.85807 0.23662 0.92345 0.0
C235 C 0.86004 0.27206 0.91705 0.0
C236 C 0.89041 0.28534 0.89468 0.0
C237 C 0.9186 0.26325 0.87954 0.0
C238 C 0.8258 0.22146 0.94677 0.0
C239 C 0.89378 0.32301 0.88754 0.0
H240 H 0.7419 0.33371 0.92141 0.0
H241 H 0.81831 0.3396 0.01466 0.0
H242 H 0.80953 0.29831 0.85996 0.0
H243 H 0.78465 0.26319 0.88048 0.0
H244 H 0.75739 0.30124 0.86946 0.0
H245 H 0.87956 0.3121 0.0172 0.0
H246 H 0.87891 0.27146 0.99448 0.0
H247 H 0.90316 0.30662 0.97336 0.0
H248 H 0.88571 0.18808 0.9137 0.0
H249 H 0.94211 0.27362 0.86285 0.0
H250 H 0.79646 0.22937 0.93633 0.0
H251 H 0.82831 0.23106 0.97518 0.0
H252 H 0.8271 0.19327 0.94738 0.0
H253 H 0.86588 0.33287 0.87575 0.0
H254 H 0.91838 0.32915 0.86857 0.0
H255 H 0.89872 0.33663 0.91369 0.0
C256 C 0.19649 0.67732 0.48629 0.0
C257 C 0.23036 0.66754 0.46692 0.0
C258 C 0.16771 0.69813 0.4701 0.0
C259 C 0.17329 0.70984 0.43386 0.0
C260 C 0.20743 0.69997 0.41414 0.0
C261 C 0.23545 0.67872 0.43084 0.0
C262 C 0.1314 0.70763 0.49181 0.0
C263 C 0.21468 0.7123 0.37564 0.0
C264 C 0.08334 0.7403 0.38117 0.0
C265 C 0.08513 0.77558 0.38642 0.0
C266 C 0.11192 0.71863 0.3963 0.0
C267 C 0.14342 0.73259 0.41672 0.0
C268 C 0.14591 0.76823 0.42144 0.0
C269 C 0.11658 0.78928 0.40647 0.0
C270 C 0.10798 0.68073 0.39105 0.0
C271 C 0.17939 0.78411 0.44257 0.0
H272 H 0.19241 0.66848 0.5141 0.0
H273 H 0.26186 0.67148 0.41598 0.0
H274 H 0.12993 0.7356 0.49525 0.0
H275 H 0.10447 0.69979 0.47682 0.0
H276 H 0.13103 0.69565 0.5193 0.0
H277 H 0.24266 0.70222 0.36403 0.0
H278 H 0.18996 0.70456 0.35763 0.0
H279 H 0.21585 0.74046 0.37528 0.0
H280 H 0.05906 0.72946 0.36586 0.0
H281 H 0.11832 0.81653 0.41043 0.0
H282 H 0.10511 0.66809 0.41802 0.0
H283 H 0.13489 0.67039 0.37778 0.0
H284 H 0.08198 0.67395 0.37409 0.0
H285 H 0.17875 0.77518 0.47132 0.0
H286 H 0.17791 0.8123 0.4425 0.0
H287 H 0.20811 0.7761 0.43073 0.0
C288 C 0.73747 0.79902 0.96565 0.0
C289 C 0.73243 0.83437 0.96541 0.0
C290 C 0.70933 0.77756 0.94968 0.0
C291 C 0.67518 0.79183 0.9335 0.0
C292 C 0.66988 0.82752 0.93332 0.0
C293 C 0.69872 0.84838 0.94911 0.0
C294 C 0.71618 0.73965 0.95005 0.0
C295 C 0.63358 0.84362 0.91676 0.0
C296 C 0.61639 0.74 0.86498 0.0
C297 C 0.58563 0.72755 0.88686 0.0
C298 C 0.64601 0.76068 0.87987 0.0
C299 C 0.64456 0.76939 0.91741 0.0
C300 C 0.61362 0.7569 0.93962 0.0
C301 C 0.58468 0.73598 0.92414 0.0
C302 C 0.67884 0.77325 0.85545 0.0
C303 C 0.61087 0.76591 0.97969 0.0
H304 H 0.76378 0.7882 0.97785 0.0
H305 H 0.69468 0.87571 0.94917 0.0
H306 H 0.69198 0.72687 0.96512 0.0
H307 H 0.71593 0.72963 0.92169 0.0
H308 H 0.74469 0.73268 0.96303 0.0
H309 H 0.63402 0.87178 0.91876 0.0
H310 H 0.63111 0.83641 0.88754 0.0
H311 H 0.60675 0.83411 0.93081 0.0
H312 H 0.61746 0.73343 0.83621 0.0
H313 H 0.56096 0.7266 0.94125 0.0
H314 H 0.70783 0.76521 0.8666 0.0
H315 H 0.67868 0.80141 0.85471 0.0
H316 H 0.67617 0.76357 0.82703 0.0
H317 H 0.6379 0.75741 0.99414 0.0
H318 H 0.58485 0.75418 0.99316 0.0
H319 H 0.60889 0.79388 0.98294 0.0
C320 C 0.2662 0.20206 0.46557 0.0
C321 C 0.2715 0.16676 0.46627 0.0
C322 C 0.29451 0.2233 0.44948 0.0
C323 C 0.32912 0.20885 0.43423 0.0
C324 C 0.3347 0.17321 0.4351 0.0
C325 C 0.30564 0.15255 0.4509 0.0
C326 C 0.28734 0.26117 0.44868 0.0
C327 C 0.37151 0.15693 0.41964 0.0
C328 C 0.38891 0.25957 0.36541 0.0
C329 C 0.41891 0.27289 0.38754 0.0
C330 C 0.35925 0.23888 0.38029 0.0
C331 C 0.35991 0.23108 0.41807 0.0
C332 C 0.39016 0.24435 0.4405 0.0
C333 C 0.41914 0.26524 0.42501 0.0
C334 C 0.32716 0.22545 0.35564 0.0
C335 C 0.39208 0.23631 0.48083 0.0
H336 H 0.23955 0.213 0.47708 0.0
H337 H 0.30982 0.12525 0.45168 0.0
H338 H 0.31107 0.27447 0.46382 0.0
H339 H 0.28819 0.27048 0.42006 0.0
H340 H 0.25847 0.26827 0.46094 0.0
H341 H 0.37128 0.12884 0.42246 0.0
H342 H 0.37458 0.16339 0.39026 0.0
H343 H 0.39793 0.16701 0.43384 0.0
H344 H 0.3884 0.26552 0.33649 0.0
H345 H 0.44228 0.27531 0.44231 0.0
H346 H 0.29784 0.23362 0.36596 0.0
H347 H 0.32752 0.19727 0.35578 0.0
H348 H 0.3305 0.23434 0.32698 0.0
H349 H 0.36471 0.24507 0.49461 0.0
H350 H 0.41776 0.24843 0.49441 0.0
H351 H 0.39408 0.20842 0.48487 0.0
C352 C 0.31407 0.83115 0.98866 0.0
C353 C 0.27948 0.84124 0.97065 0.0
C354 C 0.34179 0.80997 0.97143 0.0
C355 C 0.3345 0.7982 0.93547 0.0
C356 C 0.29973 0.80851 0.91705 0.0
C357 C 0.27274 0.83011 0.93479 0.0
C358 C 0.37877 0.79999 0.99181 0.0
C359 C 0.29068 0.79618 0.87889 0.0
C360 C 0.42205 0.76511 0.88076 0.0
C361 C 0.41954 0.72998 0.88683 0.0
C362 C 0.39434 0.78759 0.89607 0.0
C363 C 0.36301 0.77462 0.91754 0.0
C364 C 0.35971 0.73912 0.92296 0.0
C365 C 0.38815 0.71726 0.90776 0.0
C366 C 0.39913 0.8253 0.89002 0.0
C367 C 0.32642 0.72424 0.94524 0.0
H368 H 0.31951 0.84001 0.01626 0.0
H369 H 0.24583 0.83762 0.92095 0.0
H370 H 0.37961 0.77204 0.99559 0.0
H371 H 0.40524 0.80709 0.97567 0.0
H372 H 0.38066 0.81228 0.0191 0.0
H373 H 0.26271 0.80698 0.86812 0.0
H374 H 0.31504 0.80308 0.86004 0.0
H375 H 0.28841 0.76806 0.8788 0.0
H376 H 0.44626 0.77519 0.86472 0.0
H377 H 0.3858 0.69013 0.91234 0.0
H378 H 0.40367 0.83823 0.91664 0.0
H379 H 0.37193 0.83608 0.87776 0.0
H380 H 0.4245 0.83125 0.87187 0.0
H381 H 0.3284 0.73332 0.97389 0.0
H382 H 0.32692 0.69603 0.94533 0.0
H383 H 0.2976 0.73291 0.93427 0.0
C384 C 0.73246 0.17549 0.43706 0.0
C385 C 0.72489 0.16307 0.47227 0.0
C386 C 0.70586 0.19773 0.41983 0.0
C387 C 0.67066 0.2073 0.43809 0.0
C388 C 0.66263 0.19434 0.47342 0.0
C389 C 0.68998 0.17257 0.49017 0.0
C390 C 0.71565 0.21133 0.38232 0.0
C391 C 0.62513 0.20346 0.49354 0.0
C392 C 0.61527 0.28765 0.41136 0.0
C393 C 0.58486 0.27458 0.38954 0.0
C394 C 0.64401 0.26614 0.42659 0.0
C395 C 0.64196 0.23068 0.42027 0.0
C396 C 0.61158 0.2174 0.39798 0.0
C397 C 0.5836 0.23951 0.38269 0.0
C398 C 0.67632 0.2813 0.4498 0.0
C399 C 0.60808 0.17971 0.39098 0.0
H400 H 0.75966 0.16843 0.42336 0.0
H401 H 0.68397 0.16274 0.51729 0.0
H402 H 0.69213 0.20431 0.36268 0.0
H403 H 0.71692 0.23948 0.38315 0.0
H404 H 0.7443 0.20152 0.37191 0.0
H405 H 0.62301 0.19071 0.52056 0.0
H406 H 0.62361 0.23133 0.49783 0.0
H407 H 0.59909 0.1962 0.47694 0.0
H408 H 0.61663 0.31474 0.41654 0.0
H409 H 0.56016 0.22913 0.36596 0.0
H410 H 0.70564 0.27347 0.43916 0.0
H411 H 0.67396 0.27161 0.47819 0.0
H412 H 0.67496 0.30949 0.45053 0.0
H413 H 0.63581 0.16981 0.37881 0.0
H414 H 0.58323 0.17352 0.37236 0.0
H415 H 0.60349 0.16614 0.41722 0.0
C416 C 0.36031 0.43984 0.9556 0.0
C417 C 0.31932 0.43676 0.95925 0.0
C418 C 0.377 0.46748 0.93721 0.0
C419 C 0.35205 0.49281 0.92229 0.0
C420 C 0.31055 0.48942 0.92504 0.0
C421 C 0.29461 0.46125 0.9434 0.0
C422 C 0.42141 0.46994 0.93452 0.0
C423 C 0.28312 0.51606 0.90966 0.0
C424 C 0.40459 0.57701 0.91402 0.0
C425 C 0.4172 0.57626 0.87751 0.0
C426 C 0.38093 0.55106 0.92832 0.0
C427 C 0.36998 0.52353 0.90564 0.0
C428 C 0.38049 0.5237 0.86817 0.0
C429 C 0.40384 0.55022 0.85446 0.0
C430 C 0.36979 0.55208 0.9683 0.0
C431 C 0.36942 0.49475 0.84316 0.0
H432 H 0.37939 0.4206 0.96737 0.0
H433 H 0.2629 0.4589 0.94635 0.0
H434 H 0.43049 0.47301 0.90557 0.0
H435 H 0.43181 0.49267 0.94962 0.0
H436 H 0.43648 0.44721 0.94591 0.0
H437 H 0.25165 0.50842 0.91166 0.0
H438 H 0.28709 0.54026 0.92476 0.0
H439 H 0.29031 0.52111 0.88058 0.0
H440 H 0.41432 0.59735 0.93182 0.0
H441 H 0.41337 0.54953 0.82617 0.0
H442 H 0.38653 0.53224 0.98328 0.0
H443 H 0.33794 0.54653 0.97186 0.0
H444 H 0.37629 0.5771 0.98096 0.0
H445 H 0.38695 0.47191 0.85049 0.0
H446 H 0.37507 0.50086 0.81397 0.0
H447 H 0.33782 0.48813 0.84649 0.0
C448 C 0.67521 0.56615 0.42664 0.0
C449 C 0.69499 0.55949 0.45944 0.0
C450 C 0.65577 0.54008 0.40775 0.0
C451 C 0.65695 0.50656 0.42175 0.0
C452 C 0.67924 0.49941 0.45358 0.0
C453 C 0.69756 0.52612 0.47239 0.0
C454 C 0.63162 0.54891 0.37441 0.0
C455 C 0.68193 0.46388 0.46891 0.0
C456 C 0.56785 0.4503 0.40802 0.0
C457 C 0.57989 0.4295 0.37899 0.0
C458 C 0.59242 0.47588 0.42152 0.0
C459 C 0.63052 0.48014 0.40631 0.0
C460 C 0.64298 0.45911 0.37701 0.0
C461 C 0.61715 0.43427 0.36323 0.0
C462 C 0.5775 0.49834 0.45211 0.0
C463 C 0.68375 0.46244 0.36077 0.0
H464 H 0.67311 0.5921 0.41688 0.0
H465 H 0.71314 0.52109 0.4977 0.0
H466 H 0.63794 0.53097 0.35177 0.0
H467 H 0.59977 0.54663 0.38109 0.0
H468 H 0.63733 0.5752 0.36474 0.0
H469 H 0.70499 0.46172 0.49035 0.0
H470 H 0.65314 0.4567 0.48112 0.0
H471 H 0.68853 0.44536 0.44685 0.0
H472 H 0.53876 0.44691 0.41987 0.0
H473 H 0.6264 0.41803 0.34085 0.0
H474 H 0.5797 0.52545 0.44407 0.0
H475 H 0.59602 0.49478 0.4768 0.0
H476 H 0.54634 0.49283 0.45947 0.0
H477 H 0.68838 0.48865 0.35056 0.0
H478 H 0.68878 0.44434 0.33791 0.0
H479 H 0.70625 0.45774 0.38221 0.0
C480 C 0.70561 0.46195 0.95079 0.0
C481 C 0.68366 0.43896 0.97188 0.0
C482 C 0.68733 0.48993 0.93384 0.0
C483 C 0.64616 0.49495 0.93803 0.0
C484 C 0.62389 0.47175 0.95917 0.0
C485 C 0.64287 0.44407 0.97573 0.0
C486 C 0.71202 0.51411 0.91146 0.0
C487 C 0.57987 0.47598 0.96409 0.0
C488 C 0.59656 0.58045 0.92189 0.0
C489 C 0.57862 0.57526 0.88779 0.0
C490 C 0.62002 0.55503 0.938 0.0
C491 C 0.62578 0.52377 0.91951 0.0
C492 C 0.60927 0.51903 0.88437 0.0
C493 C 0.58593 0.54477 0.86899 0.0
C494 C 0.6372 0.56106 0.97549 0.0
C495 C 0.61484 0.48617 0.86363 0.0
H496 H 0.73718 0.45832 0.94796 0.0
H497 H 0.62558 0.4261 0.99143 0.0
H498 H 0.70114 0.51473 0.88288 0.0
H499 H 0.70922 0.54024 0.92253 0.0
H500 H 0.74373 0.50688 0.9112 0.0
H501 H 0.567 0.45613 0.98207 0.0
H502 H 0.57327 0.50126 0.97609 0.0
H503 H 0.56496 0.47482 0.93713 0.0
H504 H 0.59124 0.60393 0.9366 0.0
H505 H 0.57259 0.54059 0.84244 0.0
H506 H 0.66919 0.55503 0.97559 0.0
H507 H 0.6228 0.54392 0.99552 0.0
H508 H 0.63307 0.5877 0.98477 0.0
H509 H 0.6466 0.47945 0.86213 0.0
H510 H 0.60289 0.48758 0.8354 0.0
H511 H 0.59965 0.46528 0.8783 0.0
C512 C 0.29968 0.54376 0.44878 0.0
C513 C 0.32403 0.56813 0.46524 0.0
C514 C 0.31579 0.51429 0.43288 0.0
C515 C 0.35718 0.5092 0.43343 0.0
C516 C 0.38187 0.53388 0.44973 0.0
C517 C 0.36502 0.56303 0.46531 0.0
C518 C 0.2886 0.48856 0.41564 0.0
C519 C 0.42619 0.52959 0.45063 0.0
C520 C 0.40614 0.42292 0.4218 0.0
C521 C 0.42102 0.42549 0.38613 0.0
C522 C 0.38341 0.4493 0.43707 0.0
C523 C 0.37525 0.47872 0.41604 0.0
C524 C 0.3881 0.48041 0.37929 0.0
C525 C 0.41084 0.45383 0.36483 0.0
C526 C 0.37013 0.44655 0.47635 0.0
C527 C 0.37979 0.51116 0.35582 0.0
H528 H 0.26796 0.54742 0.44896 0.0
H529 H 0.38405 0.58202 0.47747 0.0
H530 H 0.2964 0.48502 0.38642 0.0
H531 H 0.29225 0.46357 0.42924 0.0
H532 H 0.2571 0.49626 0.41749 0.0
H533 H 0.44113 0.55082 0.46502 0.0
H534 H 0.43403 0.50545 0.46452 0.0
H535 H 0.43792 0.52812 0.42234 0.0
H536 H 0.41378 0.40108 0.43841 0.0
H537 H 0.42175 0.4558 0.33703 0.0
H538 H 0.33842 0.4532 0.47887 0.0
H539 H 0.38692 0.46487 0.49332 0.0
H540 H 0.3748 0.42064 0.48759 0.0
H541 H 0.34806 0.51804 0.35715 0.0
H542 H 0.38803 0.50693 0.32676 0.0
H543 H 0.39678 0.53317 0.36627 0.0
C544 C 0.86494 0.93743 0.95296 0.0
C545 C 0.82391 0.93363 0.95511 0.0
C546 C 0.88176 0.96505 0.93461 0.0
C547 C 0.8569 0.98961 0.91815 0.0
C548 C 0.81542 0.98545 0.91934 0.0
C549 C 0.79936 0.95735 0.93774 0.0
C550 C 0.92617 0.96838 0.93366 0.0
C551 C 0.78804 0.01122 0.90228 0.0
C552 C 0.90678 0.07509 0.91068 0.0
C553 C 0.92112 0.0743 0.87471 0.0
C554 C 0.88355 0.04862 0.92444 0.0
C555 C 0.87474 0.02051 0.90178 0.0
C556 C 0.88704 0.02053 0.86477 0.0
C557 C 0.90997 0.04757 0.85158 0.0
C558 C 0.8705 0.04982 0.96392 0.0
C559 C 0.87824 0.99098 0.83979 0.0
H560 H 0.88396 0.91879 0.96588 0.0
H561 H 0.76761 0.95448 0.93953 0.0
H562 H 0.93654 0.97123 0.90505 0.0
H563 H 0.93523 0.99152 0.94878 0.0
H564 H 0.94129 0.94612 0.94603 0.0
H565 H 0.75674 0.0029 0.90301 0.0
H566 H 0.79049 0.03572 0.9171 0.0
H567 H 0.79659 0.01602 0.87346 0.0
H568 H 0.91482 0.09595 0.92853 0.0
H569 H 0.92088 0.04683 0.82372 0.0
H570 H 0.88701 0.03047 0.97983 0.0
H571 H 0.83866 0.04366 0.96624 0.0
H572 H 0.87571 0.07509 0.97653 0.0
H573 H 0.89608 0.96868 0.84828 0.0
H574 H 0.8852 0.99683 0.81079 0.0
H575 H 0.84672 0.98364 0.84183 0.0
C576 C 0.13861 0.06411 0.45332 0.0
C577 C 0.17964 0.068 0.45535 0.0
C578 C 0.12184 0.03675 0.4345 0.0
C579 C 0.14674 0.01258 0.41737 0.0
C580 C 0.1882 0.01683 0.41843 0.0
C581 C 0.20421 0.04463 0.43737 0.0
C582 C 0.07744 0.03328 0.43376 0.0
C583 C 0.21562 0.99147 0.40063 0.0
C584 C 0.09711 0.92714 0.40882 0.0
C585 C 0.08232 0.9285 0.37307 0.0
C586 C 0.12048 0.9534 0.42279 0.0
C587 C 0.12897 0.98186 0.40055 0.0
C588 C 0.11631 0.98238 0.36367 0.0
C589 C 0.09322 0.95553 0.35026 0.0
C590 C 0.1339 0.95163 0.46211 0.0
C591 C 0.12484 0.01229 0.33914 0.0
H592 H 0.11956 0.0825 0.46666 0.0
H593 H 0.23596 0.04754 0.43904 0.0
H594 H 0.06695 0.03092 0.40516 0.0
H595 H 0.06857 0.00983 0.44842 0.0
H596 H 0.06227 0.05525 0.44672 0.0
H597 H 0.24687 0.99992 0.40129 0.0
H598 H 0.21342 0.96672 0.41498 0.0
H599 H 0.2069 0.98712 0.37179 0.0
H600 H 0.08927 0.90602 0.42639 0.0
H601 H 0.08194 0.95668 0.32257 0.0
H602 H 0.11741 0.97065 0.47855 0.0
H603 H 0.16571 0.95789 0.46425 0.0
H604 H 0.12895 0.92614 0.47427 0.0
H605 H 0.10686 0.03439 0.34807 0.0
H606 H 0.11781 0.00678 0.31008 0.0
H607 H 0.15631 0.01976 0.34114 0.0
C608 C 0.20905 0.96523 0.95387 0.0
C609 C 0.18643 0.94115 0.97279 0.0
C610 C 0.19114 0.99357 0.93727 0.0
C611 C 0.14966 0.9977 0.93946 0.0
C612 C 0.12673 0.97335 0.95838 0.0
C613 C 0.14538 0.94544 0.97478 0.0
C614 C 0.21653 0.01904 0.91739 0.0
C615 C 0.08237 0.97656 0.96101 0.0
C616 C 0.09792 0.08236 0.92407 0.0
C617 C 0.08221 0.0778 0.88894 0.0
C618 C 0.1215 0.0571 0.94034 0.0
C619 C 0.12966 0.02671 0.92096 0.0
C620 C 0.11557 0.02278 0.88482 0.0
C621 C 0.09206 0.04831 0.8693 0.0
C622 C 0.13612 0.06227 0.9789 0.0
C623 C 0.12371 0.99086 0.86312 0.0
H624 H 0.24082 0.96216 0.95251 0.0
H625 H 0.12767 0.92663 0.98887 0.0
H626 H 0.20762 0.02045 0.88826 0.0
H627 H 0.21216 0.0447 0.9293 0.0
H628 H 0.24841 0.0125 0.91873 0.0
H629 H 0.06894 0.9558 0.97735 0.0
H630 H 0.0743 0.00122 0.97369 0.0
H631 H 0.06926 0.97615 0.93323 0.0
H632 H 0.09062 0.10507 0.93943 0.0
H633 H 0.08051 0.04469 0.84195 0.0
H634 H 0.16819 0.05677 0.98058 0.0
H635 H 0.12088 0.04429 0.9975 0.0
H636 H 0.13072 0.08854 0.98884 0.0
H637 H 0.15572 0.98493 0.86324 0.0
H638 H 0.11369 0.99304 0.8343 0.0
H639 H 0.10825 0.96909 0.87596 0.0
C640 C 0.79456 0.03926 0.45252 0.0
C641 C 0.81702 0.06247 0.4728 0.0
C642 C 0.81244 0.01113 0.43543 0.0
C643 C 0.85374 0.00627 0.43859 0.0
C644 C 0.87652 0.02973 0.45888 0.0
C645 C 0.85791 0.0575 0.47566 0.0
C646 C 0.78723 0.98665 0.41401 0.0
C647 C 0.92069 0.02569 0.46265 0.0
C648 C 0.90397 0.92112 0.42211 0.0
C649 C 0.921 0.92621 0.38756 0.0
C650 C 0.88044 0.94639 0.43846 0.0
C651 C 0.87374 0.97739 0.41979 0.0
C652 C 0.88923 0.98196 0.3842 0.0
C653 C 0.91261 0.95636 0.36856 0.0
C654 C 0.8643 0.94055 0.47641 0.0
C655 C 0.88268 0.01455 0.36328 0.0
H656 H 0.76291 0.04283 0.45047 0.0
H657 H 0.87555 0.07565 0.49075 0.0
H658 H 0.79722 0.98582 0.38513 0.0
H659 H 0.79054 0.96062 0.42523 0.0
H660 H 0.75548 0.99373 0.4146 0.0
H661 H 0.93398 0.04577 0.48003 0.0
H662 H 0.92775 1.00057 0.47475 0.0
H663 H 0.93479 0.02661 0.43528 0.0
H664 H 0.9101 0.89788 0.43696 0.0
H665 H 0.92522 0.96044 0.34167 0.0
H666 H 0.8323 0.94651 0.47732 0.0
H667 H 0.87921 0.95782 0.49597 0.0
H668 H 0.86878 0.91396 0.48574 0.0
H669 H 0.85083 0.02108 0.36266 0.0
H670 H 0.89372 0.01293 0.33472 0.0
H671 H 0.89817 0.03569 0.37724 0.0
C672 C 0.29862 0.35637 0.10153 0.0
C673 C 0.32248 0.36505 0.0716 0.0
C674 C 0.31509 0.35122 0.13634 0.0
C675 C 0.35629 0.35501 0.14122 0.0
C676 C 0.38058 0.3629 0.1109 0.0
C677 C 0.36341 0.36765 0.07648 0.0
C678 C 0.28837 0.34254 0.16801 0.0
C679 C 0.4247 0.36706 0.11494 0.0
C680 C 0.40169 0.3792 0.2321 0.0
C681 C 0.4198 0.34862 0.24253 0.0
C682 C 0.37913 0.38123 0.20005 0.0
C683 C 0.3743 0.35192 0.17809 0.0
C684 C 0.39032 0.32051 0.18968 0.0
C685 C 0.41298 0.31925 0.22172 0.0
C686 C 0.36251 0.41521 0.18859 0.0
C687 C 0.38537 0.28861 0.16723 0.0
H688 H 0.26695 0.35453 0.09797 0.0
H689 H 0.38209 0.37366 0.0533 0.0
H690 H 0.29925 0.31944 0.18217 0.0
H691 H 0.28863 0.36354 0.18823 0.0
H692 H 0.25743 0.33818 0.15919 0.0
H693 H 0.43946 0.37264 0.08849 0.0
H694 H 0.43111 0.38809 0.13424 0.0
H695 H 0.43786 0.34362 0.12656 0.0
H696 H 0.40655 0.402 0.24809 0.0
H697 H 0.42647 0.29541 0.22978 0.0
H698 H 0.33086 0.4128 0.18137 0.0
H699 H 0.37827 0.42427 0.16384 0.0
H700 H 0.36552 0.43472 0.21035 0.0
H701 H 0.35407 0.28531 0.15915 0.0
H702 H 0.39521 0.26557 0.18222 0.0
H703 H 0.40298 0.29073 0.14174 0.0
C704 C 0.70917 0.63952 0.60341 0.0
C705 C 0.68673 0.62878 0.57334 0.0
C706 C 0.69146 0.64498 0.63771 0.0
C707 C 0.65041 0.63955 0.64197 0.0
C708 C 0.62758 0.62916 0.61159 0.0
C709 C 0.64597 0.62402 0.5777 0.0
C710 C 0.7167 0.65616 0.66947 0.0
C711 C 0.58367 0.62324 0.61491 0.0
C712 C 0.60345 0.61951 0.73364 0.0
C713 C 0.58408 0.65016 0.74178 0.0
C714 C 0.62676 0.61618 0.70209 0.0
C715 C 0.63098 0.64419 0.67815 0.0
C716 C 0.61339 0.67572 0.68726 0.0
C717 C 0.59014 0.67833 0.71893 0.0
C718 C 0.64512 0.58213 0.69337 0.0
C719 C 0.61745 0.70627 0.6626 0.0
H720 H 0.74071 0.64304 0.60028 0.0
H721 H 0.62831 0.6164 0.55443 0.0
H722 H 0.70483 0.68003 0.68133 0.0
H723 H 0.71589 0.63665 0.69133 0.0
H724 H 0.74792 0.66037 0.66137 0.0
H725 H 0.57015 0.61536 0.58859 0.0
H726 H 0.57785 0.60322 0.63556 0.0
H727 H 0.56879 0.64675 0.62446 0.0
H728 H 0.59924 0.59764 0.7512 0.0
H729 H 0.57562 0.70222 0.7251 0.0
H730 H 0.67685 0.58513 0.68666 0.0
H731 H 0.6305 0.57108 0.669 0.0
H732 H 0.64229 0.5639 0.71639 0.0
H733 H 0.64885 0.71041 0.65527 0.0
H734 H 0.6057 0.72978 0.67547 0.0
H735 H 0.60111 0.70172 0.63679 0.0
C736 C 0.69417 0.3869 0.10896 0.0
C737 C 0.69447 0.36301 0.0806 0.0
C738 C 0.67572 0.37969 0.1424 0.0
C739 C 0.65644 0.34811 0.1472 0.0
C740 C 0.65866 0.32317 0.11935 0.0
C741 C 0.67794 0.33087 0.08639 0.0
C742 C 0.67463 0.40676 0.17164 0.0
C743 C 0.63806 0.2894 0.12316 0.0
C744 C 0.61582 0.32728 0.24181 0.0
C745 C 0.57769 0.34084 0.23916 0.0
C746 C 0.64193 0.32884 0.21186 0.0
C747 C 0.62901 0.34354 0.17856 0.0
C748 C 0.58983 0.35573 0.17548 0.0
C749 C 0.56488 0.35458 0.20591 0.0
C750 C 0.68365 0.31604 0.21626 0.0
C751 C 0.57445 0.37086 0.14027 0.0
H752 H 0.70734 0.41164 0.10453 0.0
H753 H 0.67803 0.31247 0.06433 0.0
H754 H 0.64448 0.41772 0.17329 0.0
H755 H 0.68161 0.39567 0.19875 0.0
H756 H 0.69572 0.42767 0.16593 0.0
H757 H 0.64735 0.27111 0.10166 0.0
H758 H 0.64396 0.27804 0.15035 0.0
H759 H 0.6057 0.29329 0.12096 0.0
H760 H 0.62567 0.31675 0.26762 0.0
H761 H 0.53513 0.36462 0.20373 0.0
H762 H 0.70442 0.33774 0.21468 0.0
H763 H 0.69136 0.29835 0.19374 0.0
H764 H 0.68812 0.30284 0.24277 0.0
H765 H 0.5906 0.39465 0.13403 0.0
H766 H 0.54241 0.37678 0.14168 0.0
H767 H 0.57957 0.35308 0.1172 0.0
C768 C 0.36464 0.64996 0.57484 0.0
C769 C 0.32357 0.64797 0.57107 0.0
C770 C 0.38194 0.65624 0.60891 0.0
C771 C 0.35756 0.66039 0.64006 0.0
C772 C 0.31597 0.6601 0.63612 0.0
C773 C 0.29941 0.65401 0.60152 0.0
C774 C 0.42642 0.65672 0.61181 0.0
C775 C 0.28905 0.66434 0.6687 0.0
C776 C 0.40862 0.63046 0.72598 0.0
C777 C 0.42281 0.661 0.74057 0.0
C778 C 0.38518 0.63017 0.6945 0.0
C779 C 0.37599 0.66119 0.67691 0.0
C780 C 0.3883 0.6923 0.69264 0.0
C781 C 0.41147 0.69186 0.72451 0.0
C782 C 0.3722 0.59645 0.67892 0.0
C783 C 0.37909 0.72586 0.67464 0.0
H784 H 0.3833 0.64583 0.55114 0.0
H785 H 0.26763 0.65242 0.5986 0.0
H786 H 0.43629 0.67969 0.62677 0.0
H787 H 0.43658 0.63426 0.62756 0.0
H788 H 0.44099 0.65626 0.58459 0.0
H789 H 0.25778 0.66799 0.66047 0.0
H790 H 0.29096 0.6414 0.68623 0.0
H791 H 0.29836 0.68634 0.68555 0.0
H792 H 0.41681 0.60656 0.73864 0.0
H793 H 0.42234 0.71555 0.73571 0.0
H794 H 0.38804 0.59156 0.65287 0.0
H795 H 0.34016 0.59692 0.67274 0.0
H796 H 0.37825 0.57501 0.69786 0.0
H797 H 0.39689 0.72838 0.64931 0.0
H798 H 0.38583 0.74773 0.69278 0.0
H799 H 0.34755 0.72713 0.66663 0.0
C800 C 0.86433 0.86643 0.07514 0.0
C801 C 0.82363 0.86359 0.06892 0.0
C802 C 0.8802 0.86205 0.11016 0.0
C803 C 0.85481 0.85432 0.13976 0.0
C804 C 0.81383 0.85045 0.13359 0.0
C805 C 0.79868 0.85521 0.0982 0.0
C806 C 0.92413 0.86628 0.11557 0.0
C807 C 0.78595 0.84197 0.16446 0.0
C808 C 0.90893 0.81847 0.22173 0.0
C809 C 0.91541 0.84787 0.2426 0.0
C810 C 0.88708 0.81975 0.1892 0.0
C811 C 0.87151 0.85119 0.17718 0.0
C812 C 0.87577 0.88048 0.19928 0.0
C813 C 0.89754 0.87844 0.23182 0.0
C814 C 0.88272 0.78785 0.16664 0.0
C815 C 0.85958 0.91449 0.18741 0.0
H816 H 0.88387 0.87224 0.05251 0.0
H817 H 0.76717 0.85323 0.09364 0.0
H818 H 0.92981 0.88729 0.1351 0.0
H819 H 0.9369 0.84283 0.12754 0.0
H820 H 0.93983 0.87191 0.0896 0.0
H821 H 0.75528 0.83783 0.15475 0.0
H822 H 0.79613 0.81879 0.17891 0.0
H823 H 0.78573 0.86296 0.1847 0.0
H824 H 0.92222 0.79463 0.23004 0.0
H825 H 0.90214 0.90127 0.24783 0.0
H826 H 0.90125 0.78986 0.14171 0.0
H827 H 0.8517 0.78468 0.15761 0.0
H828 H 0.89187 0.76479 0.18195 0.0
H829 H 0.87634 0.92367 0.16329 0.0
H830 H 0.86168 0.9339 0.20937 0.0
H831 H 0.82825 0.9121 0.17906 0.0
C832 C 0.20424 0.1466 0.59868 0.0
C833 C 0.17944 0.13794 0.56943 0.0
C834 C 0.18893 0.15153 0.63403 0.0
C835 C 0.14795 0.14752 0.64021 0.0
C836 C 0.12273 0.13945 0.61064 0.0
C837 C 0.13874 0.13495 0.57565 0.0
C838 C 0.21664 0.16037 0.66485 0.0
C839 C 0.07881 0.13504 0.61606 0.0
C840 C 0.10524 0.12406 0.73257 0.0
C841 C 0.08721 0.15468 0.7431 0.0
C842 C 0.12699 0.1218 0.69999 0.0
C843 C 0.1311 0.1509 0.67759 0.0
C844 C 0.11534 0.18239 0.68932 0.0
C845 C 0.0935 0.18389 0.72189 0.0
C846 C 0.14339 0.08775 0.68843 0.0
C847 C 0.11954 0.21409 0.66644 0.0
H848 H 0.23575 0.1487 0.59414 0.0
H849 H 0.1193 0.12894 0.55305 0.0
H850 H 0.20632 0.18367 0.67904 0.0
H851 H 0.21685 0.13959 0.68532 0.0
H852 H 0.24734 0.16451 0.65515 0.0
H853 H 0.06325 0.12907 0.59014 0.0
H854 H 0.0732 0.11421 0.63581 0.0
H855 H 0.06583 0.15855 0.62777 0.0
H856 H 0.10077 0.10138 0.74883 0.0
H857 H 0.08008 0.20775 0.73 0.0
H858 H 0.17473 0.09019 0.68007 0.0
H859 H 0.12675 0.07831 0.66438 0.0
H860 H 0.14132 0.06852 0.71056 0.0
H861 H 0.15056 0.21735 0.6574 0.0
H862 H 0.11015 0.23725 0.6815 0.0
H863 H 0.10112 0.21173 0.64151 0.0
C864 C 0.194 0.88652 0.10888 0.0
C865 C 0.19387 0.8633 0.07989 0.0
C866 C 0.17438 0.87925 0.14172 0.0
C867 C 0.15342 0.84832 0.14525 0.0
C868 C 0.15503 0.824 0.11673 0.0
C869 C 0.17555 0.83171 0.0844 0.0
C870 C 0.17399 0.90562 0.1717 0.0
C871 C 0.13263 0.79098 0.11917 0.0
C872 C 0.11092 0.82637 0.23884 0.0
C873 C 0.07343 0.84126 0.23642 0.0
C874 C 0.13735 0.82785 0.20914 0.0
C875 C 0.12542 0.84387 0.17624 0.0
C876 C 0.08687 0.85751 0.17331 0.0
C877 C 0.06158 0.85639 0.20355 0.0
C878 C 0.1784 0.81349 0.2134 0.0
C879 C 0.07254 0.8741 0.1385 0.0
H880 H 0.20846 0.91085 0.10537 0.0
H881 H 0.17527 0.81387 0.06181 0.0
H882 H 0.14432 0.91751 0.17328 0.0
H883 H 0.18004 0.89365 0.19857 0.0
H884 H 0.19608 0.92595 0.16687 0.0
H885 H 0.14125 0.77297 0.09716 0.0
H886 H 0.13756 0.77864 0.14603 0.0
H887 H 0.10053 0.7962 0.11678 0.0
H888 H 0.12008 0.81475 0.26433 0.0
H889 H 0.03234 0.86748 0.20147 0.0
H890 H 0.20023 0.83443 0.21229 0.0
H891 H 0.18532 0.79592 0.19056 0.0
H892 H 0.18214 0.79969 0.23966 0.0
H893 H 0.08981 0.89749 0.13315 0.0
H894 H 0.04077 0.88104 0.13985 0.0
H895 H 0.07711 0.8568 0.11491 0.0
C896 C 0.80866 0.11533 0.61004 0.0
C897 C 0.80908 0.13876 0.58127 0.0
C898 C 0.82802 0.12238 0.64302 0.0
C899 C 0.84902 0.15324 0.64687 0.0
C900 C 0.8477 0.17775 0.61857 0.0
C901 C 0.82742 0.17029 0.58612 0.0
C902 C 0.82809 0.09585 0.67281 0.0
C903 C 0.87021 0.2107 0.62135 0.0
C904 C 0.89144 0.17524 0.74032 0.0
C905 C 0.92899 0.16048 0.73774 0.0
C906 C 0.86494 0.17354 0.71078 0.0
C907 C 0.87687 0.15746 0.67789 0.0
C908 C 0.91543 0.14383 0.67484 0.0
C909 C 0.94078 0.14515 0.70493 0.0
C910 C 0.82386 0.18785 0.71515 0.0
C911 C 0.92974 0.12718 0.64 0.0
H912 H 0.79416 0.09105 0.60626 0.0
H913 H 0.8279 0.18828 0.56369 0.0
H914 H 0.85767 0.08378 0.67433 0.0
H915 H 0.82203 0.1077 0.69977 0.0
H916 H 0.80587 0.07567 0.66781 0.0
H917 H 0.86187 0.22884 0.5994 0.0
H918 H 0.86506 0.22294 0.64824 0.0
H919 H 0.9023 0.2054 0.61912 0.0
H920 H 0.88234 0.18699 0.76579 0.0
H921 H 0.97007 0.13414 0.70276 0.0
H922 H 0.80203 0.16691 0.71377 0.0
H923 H 0.81703 0.20561 0.69249 0.0
H924 H 0.82 0.20142 0.74155 0.0
H925 H 0.91232 0.10388 0.6346 0.0
H926 H 0.96146 0.12008 0.64133 0.0
H927 H 0.92535 0.14452 0.61644 0.0
loop_
_geom_bond_atom_site_label_1
_geom_bond_atom_site_label_2
_geom_bond_distance
_geom_bond_site_symmetry_2
_ccdc_geom_bond_type
H0 C3 0.931 . S
H1 C6 0.928 . S
H2 C8 0.930 . S
C3 H0 0.931 . S
C3 C4 1.413 . S
C3 C5 1.360 1_554 S
C4 C3 1.413 . S
C4 C8 1.429 . S
C5 C3 1.360 1_556 S
C5 C6 1.372 . S
C6 H1 0.928 . S
C6 C5 1.372 . S
C6 C7 1.404 . S
C7 C6 1.404 . S
C7 C8 1.391 1_556 S
C8 H2 0.930 . S
C8 C4 1.429 . S
C8 C7 1.391 1_554 S
H9 C12 0.931 . S
H10 C15 0.928 . S
H11 C17 0.930 . S
C12 H9 0.931 . S
C12 C13 1.413 . S
C12 C14 1.360 . S
C13 C12 1.413 . S
C13 C17 1.429 . S
C14 C12 1.360 . S
C14 C15 1.372 . S
C15 H10 0.928 . S
C15 C14 1.372 . S
C15 C16 1.404 . S
C16 C15 1.404 . S
C16 C17 1.391 . S
C17 H11 0.930 . S
C17 C13 1.429 . S
C17 C16 1.391 . S
H18 C21 0.931 . S
H19 C24 0.928 . S
H20 C26 0.930 . S
C21 H18 0.931 . S
C21 C22 1.413 1_554 S
C21 C23 1.360 . S
C22 C21 1.413 1_556 S
C22 C26 1.429 . S
C23 C21 1.360 . S
C23 C24 1.372 . S
C24 H19 0.928 . S
C24 C23 1.372 . S
C24 C25 1.404 1_554 S
C25 C24 1.404 1_556 S
C25 C26 1.391 . S
C26 H20 0.930 . S
C26 C22 1.429 . S
C26 C25 1.391 . S
H27 C30 0.931 . S
H28 C33 0.928 . S
H29 C35 0.930 . S
C30 H27 0.931 . S
C30 C31 1.413 . S
C30 C32 1.360 . S
C31 C30 1.413 . S
C31 C35 1.429 . S
C32 C30 1.360 . S
C32 C33 1.372 . S
C33 H28 0.928 . S
C33 C32 1.372 . S
C33 C34 1.404 . S
C34 C33 1.404 . S
C34 C35 1.391 . S
C35 H29 0.930 . S
C35 C31 1.429 . S
C35 C34 1.391 . S
H36 C39 0.931 . S
H37 C42 0.928 . S
H38 C44 0.930 . S
C39 H36 0.931 . S
C39 C40 1.413 . S
C39 C41 1.360 1_554 S
C40 C39 1.413 . S
C40 C44 1.429 . S
C41 C39 1.360 1_556 S
C41 C42 1.372 . S
C42 H37 0.928 . S
C42 C41 1.372 . S
C42 C43 1.404 . S
C43 C42 1.404 . S
C43 C44 1.391 1_556 S
C44 H38 0.930 . S
C44 C40 1.429 . S
C44 C43 1.391 1_554 S
H45 C48 0.931 . S
H46 C51 0.928 . S
H47 C53 0.930 . S
C48 H45 0.931 . S
C48 C49 1.413 . S
C48 C50 1.360 . S
C49 C48 1.413 . S
C49 C53 1.429 . S
C50 C48 1.360 . S
C50 C51 1.372 . S
C51 H46 0.928 . S
C51 C50 1.372 . S
C51 C52 1.404 . S
C52 C51 1.404 . S
C52 C53 1.391 . S
C53 H47 0.930 . S
C53 C49 1.429 . S
C53 C52 1.391 . S
H54 C57 0.931 . S
H55 C60 0.928 . S
H56 C62 0.930 . S
C57 H54 0.931 . S
C57 C58 1.413 1_554 S
C57 C59 1.360 . S
C58 C57 1.413 1_556 S
C58 C62 1.429 . S
C59 C57 1.360 . S
C59 C60 1.372 . S
C60 H55 0.928 . S
C60 C59 1.372 . S
C60 C61 1.404 1_554 S
C61 C60 1.404 1_556 S
C61 C62 1.391 . S
C62 H56 0.930 . S
C62 C58 1.429 . S
C62 C61 1.391 . S
H63 C66 0.931 . S
H64 C69 0.928 . S
H65 C71 0.930 . S
C66 H63 0.931 . S
C66 C67 1.413 . S
C66 C68 1.360 . S
C67 C66 1.413 . S
C67 C71 1.429 . S
C68 C66 1.360 . S
C68 C69 1.372 . S
C69 H64 0.928 . S
C69 C68 1.372 . S
C69 C70 1.404 . S
C70 C69 1.404 . S
C70 C71 1.391 . S
C71 H65 0.930 . S
C71 C67 1.429 . S
C71 C70 1.391 . S
Fe72 O74 1.918 . S
Fe72 O77 1.997 1_455 S
Fe72 O78 2.002 1_455 S
Fe72 O83 1.976 . S
Fe72 O86 1.996 . S
Fe73 O74 1.918 . S
Fe73 O81 1.997 1_455 S
Fe73 O84 1.996 . S
Fe73 O88 1.976 . S
Fe73 O91 2.002 1_455 S
O74 Fe72 1.918 . S
O74 Fe73 1.918 . S
O74 Fe75 1.918 . S
Fe75 O74 1.918 . S
Fe75 O76 2.002 1_455 S
Fe75 O85 1.976 . S
Fe75 O89 1.996 . S
Fe75 O92 1.997 1_455 S
O76 Fe75 2.002 1_655 S
O76 C93 1.295 . S
O77 Fe72 1.997 1_655 S
O77 C93 1.235 . S
O78 Fe72 2.002 1_655 S
O78 C79 1.295 . S
C79 O78 1.295 . S
C79 O81 1.235 . S
C80 O85 1.287 . S
C80 O86 1.255 . S
O81 Fe73 1.997 1_655 S
O81 C79 1.235 . S
C82 O88 1.287 . S
C82 O89 1.255 . S
O83 Fe72 1.976 . S
O83 C90 1.287 . S
O84 Fe73 1.996 . S
O84 C90 1.255 . S
O85 Fe75 1.976 . S
O85 C80 1.287 . S
O86 Fe72 1.996 . S
O86 C80 1.255 . S
C87 O91 1.295 . S
C87 O92 1.235 . S
O88 Fe73 1.976 . S
O88 C82 1.287 . S
O89 Fe75 1.996 . S
O89 C82 1.255 . S
C90 O83 1.287 . S
C90 O84 1.255 . S
O91 Fe73 2.002 1_655 S
O91 C87 1.295 . S
O92 Fe75 1.997 1_655 S
O92 C87 1.235 . S
C93 O76 1.295 . S
C93 O77 1.235 . S
Fe94 O96 1.918 . S
Fe94 O99 1.997 1_655 S
Fe94 O100 2.002 1_655 S
Fe94 O105 1.976 . S
Fe94 O108 1.996 . S
Fe95 O96 1.918 . S
Fe95 O103 1.997 1_655 S
Fe95 O106 1.996 . S
Fe95 O110 1.976 . S
Fe95 O113 2.002 1_655 S
O96 Fe94 1.918 . S
O96 Fe95 1.918 . S
O96 Fe97 1.918 . S
Fe97 O96 1.918 . S
Fe97 O98 2.002 1_655 S
Fe97 O107 1.976 . S
Fe97 O111 1.996 . S
Fe97 O114 1.997 1_655 S
O98 Fe97 2.002 1_455 S
O98 C115 1.295 . S
O99 Fe94 1.997 1_455 S
O99 C115 1.235 . S
O100 Fe94 2.002 1_455 S
O100 C101 1.295 . S
C101 O100 1.295 . S
C101 O103 1.235 . S
C102 O107 1.287 . S
C102 O108 1.255 . S
O103 Fe95 1.997 1_455 S
O103 C101 1.235 . S
C104 O110 1.287 . S
C104 O111 1.255 . S
O105 Fe94 1.976 . S
O105 C112 1.287 . S
O106 Fe95 1.996 . S
O106 C112 1.255 . S
O107 Fe97 1.976 . S
O107 C102 1.287 . S
O108 Fe94 1.996 . S
O108 C102 1.255 . S
C109 O113 1.295 . S
C109 O114 1.235 . S
O110 Fe95 1.976 . S
O110 C104 1.287 . S
O111 Fe97 1.996 . S
O111 C104 1.255 . S
C112 O105 1.287 . S
C112 O106 1.255 . S
O113 Fe95 2.002 1_455 S
O113 C109 1.295 . S
O114 Fe97 1.997 1_455 S
O114 C109 1.235 . S
C115 O98 1.295 . S
C115 O99 1.235 . S
Fe116 O118 1.918 . S
Fe116 O121 1.997 . S
Fe116 O122 2.002 . S
Fe116 O127 1.976 . S
Fe116 O130 1.996 . S
Fe117 O118 1.918 . S
Fe117 O125 1.997 . S
Fe117 O128 1.996 . S
Fe117 O132 1.976 . S
Fe117 O135 2.002 . S
O118 Fe116 1.918 . S
O118 Fe117 1.918 . S
O118 Fe119 1.918 . S
Fe119 O118 1.918 . S
Fe119 O120 2.002 . S
Fe119 O129 1.976 . S
Fe119 O133 1.996 . S
Fe119 O136 1.997 . S
O120 Fe119 2.002 . S
O120 C137 1.295 . S
O121 Fe116 1.997 . S
O121 C137 1.235 . S
O122 Fe116 2.002 . S
O122 C123 1.295 . S
C123 O122 1.295 . S
C123 O125 1.235 . S
C124 O129 1.287 . S
C124 O130 1.255 . S
O125 Fe117 1.997 . S
O125 C123 1.235 . S
C126 O132 1.287 . S
C126 O133 1.255 . S
O127 Fe116 1.976 . S
O127 C134 1.287 . S
O128 Fe117 1.996 . S
O128 C134 1.255 . S
O129 Fe119 1.976 . S
O129 C124 1.287 . S
O130 Fe116 1.996 . S
O130 C124 1.255 . S
C131 O135 1.295 . S
C131 O136 1.235 . S
O132 Fe117 1.976 . S
O132 C126 1.287 . S
O133 Fe119 1.996 . S
O133 C126 1.255 . S
C134 O127 1.287 . S
C134 O128 1.255 . S
O135 Fe117 2.002 . S
O135 C131 1.295 . S
O136 Fe119 1.997 . S
O136 C131 1.235 . S
C137 O120 1.295 . S
C137 O121 1.235 . S
Fe138 O140 1.918 . S
Fe138 O143 1.997 . S
Fe138 O144 2.002 . S
Fe138 O149 1.976 . S
Fe138 O152 1.996 . S
Fe139 O140 1.918 . S
Fe139 O147 1.997 . S
Fe139 O150 1.996 . S
Fe139 O154 1.976 . S
Fe139 O157 2.002 . S
O140 Fe138 1.918 . S
O140 Fe139 1.918 . S
O140 Fe141 1.918 . S
Fe141 O140 1.918 . S
Fe141 O142 2.002 . S
Fe141 O151 1.976 . S
Fe141 O155 1.996 . S
Fe141 O158 1.997 . S
O142 Fe141 2.002 . S
O142 C159 1.295 . S
O143 Fe138 1.997 . S
O143 C159 1.235 . S
O144 Fe138 2.002 . S
O144 C145 1.295 . S
C145 O144 1.295 . S
C145 O147 1.235 . S
C146 O151 1.287 . S
C146 O152 1.255 . S
O147 Fe139 1.997 . S
O147 C145 1.235 . S
C148 O154 1.287 . S
C148 O155 1.255 . S
O149 Fe138 1.976 . S
O149 C156 1.287 . S
O150 Fe139 1.996 . S
O150 C156 1.255 . S
O151 Fe141 1.976 . S
O151 C146 1.287 . S
O152 Fe138 1.996 . S
O152 C146 1.255 . S
C153 O157 1.295 . S
C153 O158 1.235 . S
O154 Fe139 1.976 . S
O154 C148 1.287 . S
O155 Fe141 1.996 . S
O155 C148 1.255 . S
C156 O149 1.287 . S
C156 O150 1.255 . S
O157 Fe139 2.002 . S
O157 C153 1.295 . S
O158 Fe141 1.997 . S
O158 C153 1.235 . S
C159 O142 1.295 . S
C159 O143 1.235 . S
C160 C161 1.391 . S
C160 C162 1.394 . S
C160 H176 0.931 . S
C161 C160 1.391 . S
C161 C165 1.376 . S
C162 C160 1.394 . S
C162 C163 1.369 . S
C162 C166 1.531 . S
C163 C162 1.369 . S
C163 C164 1.410 . S
C163 C171 1.503 . S
C164 C163 1.410 . S
C164 C165 1.392 . S
C164 C167 1.511 . S
C165 C161 1.376 . S
C165 C164 1.392 . S
C165 H177 0.929 . S
C166 C162 1.531 . S
C166 H178 0.960 . S
C166 H179 0.962 . S
C166 H180 0.960 . S
C167 C164 1.511 . S
C167 H181 0.961 . S
C167 H182 0.961 . S
C167 H183 0.961 . S
C168 C169 1.370 . S
C168 C170 1.363 . S
C168 H184 0.931 . S
C169 C168 1.370 . S
C169 C173 1.408 . S
C170 C168 1.363 . S
C170 C171 1.370 . S
C170 C174 1.524 . S
C171 C163 1.503 . S
C171 C170 1.370 . S
C171 C172 1.403 . S
C172 C171 1.403 . S
C172 C173 1.404 . S
C172 C175 1.539 . S
C173 C169 1.408 . S
C173 C172 1.404 . S
C173 H185 0.930 . S
C174 C170 1.524 . S
C174 H186 0.956 . S
C174 H187 0.961 . S
C174 H188 0.961 . S
C175 C172 1.539 . S
C175 H189 0.958 . S
C175 H190 0.961 . S
C175 H191 0.960 . S
H176 C160 0.931 . S
H177 C165 0.929 . S
H178 C166 0.960 . S
H179 C166 0.962 . S
H180 C166 0.960 . S
H181 C167 0.961 . S
H182 C167 0.961 . S
H183 C167 0.961 . S
H184 C168 0.931 . S
H185 C173 0.930 . S
H186 C174 0.956 . S
H187 C174 0.961 . S
H188 C174 0.961 . S
H189 C175 0.958 . S
H190 C175 0.961 . S
H191 C175 0.960 . S
C192 C193 1.391 . S
C192 C194 1.394 . S
C192 H208 0.931 . S
C193 C192 1.391 . S
C193 C197 1.376 . S
C194 C192 1.394 . S
C194 C195 1.369 . S
C194 C198 1.531 . S
C195 C194 1.369 . S
C195 C196 1.410 . S
C195 C203 1.503 . S
C196 C195 1.410 . S
C196 C197 1.392 . S
C196 C199 1.511 . S
C197 C193 1.376 . S
C197 C196 1.392 . S
C197 H209 0.929 . S
C198 C194 1.531 . S
C198 H210 0.960 . S
C198 H211 0.962 . S
C198 H212 0.960 . S
C199 C196 1.511 . S
C199 H213 0.961 . S
C199 H214 0.961 . S
C199 H215 0.961 . S
C200 C201 1.370 . S
C200 C202 1.363 . S
C200 H216 0.931 . S
C201 C200 1.370 . S
C201 C205 1.408 . S
C202 C200 1.363 . S
C202 C203 1.370 . S
C202 C206 1.524 . S
C203 C195 1.503 . S
C203 C202 1.370 . S
C203 C204 1.403 . S
C204 C203 1.403 . S
C204 C205 1.404 . S
C204 C207 1.539 . S
C205 C201 1.408 . S
C205 C204 1.404 . S
C205 H217 0.930 . S
C206 C202 1.524 . S
C206 H218 0.956 . S
C206 H219 0.961 . S
C206 H220 0.961 . S
C207 C204 1.539 . S
C207 H221 0.958 . S
C207 H222 0.961 . S
C207 H223 0.960 . S
H208 C192 0.931 . S
H209 C197 0.929 . S
H210 C198 0.960 . S
H211 C198 0.962 . S
H212 C198 0.960 . S
H213 C199 0.961 . S
H214 C199 0.961 . S
H215 C199 0.961 . S
H216 C200 0.931 . S
H217 C205 0.930 . S
H218 C206 0.956 . S
H219 C206 0.961 . S
H220 C206 0.961 . S
H221 C207 0.958 . S
H222 C207 0.961 . S
H223 C207 0.960 . S
C224 C225 1.391 . S
C224 C226 1.394 . S
C224 H240 0.931 . S
C225 C224 1.391 . S
C225 C229 1.376 . S
C226 C224 1.394 . S
C226 C227 1.369 . S
C226 C230 1.531 . S
C227 C226 1.369 . S
C227 C228 1.410 . S
C227 C235 1.503 . S
C228 C227 1.410 . S
C228 C229 1.392 . S
C228 C231 1.511 . S
C229 C225 1.376 . S
C229 C228 1.392 . S
C229 H241 0.929 1_556 S
C230 C226 1.531 . S
C230 H242 0.960 . S
C230 H243 0.962 . S
C230 H244 0.960 . S
C231 C228 1.511 . S
C231 H245 0.961 1_556 S
C231 H246 0.961 . S
C231 H247 0.961 . S
C232 C233 1.370 . S
C232 C234 1.363 . S
C232 H248 0.931 . S
C233 C232 1.370 . S
C233 C237 1.408 . S
C234 C232 1.363 . S
C234 C235 1.370 . S
C234 C238 1.524 . S
C235 C227 1.503 . S
C235 C234 1.370 . S
C235 C236 1.403 . S
C236 C235 1.403 . S
C236 C237 1.404 . S
C236 C239 1.539 . S
C237 C233 1.408 . S
C237 C236 1.404 . S
C237 H249 0.930 . S
C238 C234 1.524 . S
C238 H250 0.956 . S
C238 H251 0.961 . S
C238 H252 0.961 . S
C239 C236 1.539 . S
C239 H253 0.958 . S
C239 H254 0.961 . S
C239 H255 0.960 . S
H240 C224 0.931 . S
H241 C229 0.929 1_554 S
H242 C230 0.960 . S
H243 C230 0.962 . S
H244 C230 0.960 . S
H245 C231 0.961 1_554 S
H246 C231 0.961 . S
H247 C231 0.961 . S
H248 C232 0.931 . S
H249 C237 0.930 . S
H250 C238 0.956 . S
H251 C238 0.961 . S
H252 C238 0.961 . S
H253 C239 0.958 . S
H254 C239 0.961 . S
H255 C239 0.960 . S
C256 C257 1.391 . S
C256 C258 1.394 . S
C256 H272 0.931 . S
C257 C256 1.391 . S
C257 C261 1.376 . S
C258 C256 1.394 . S
C258 C259 1.369 . S
C258 C262 1.531 . S
C259 C258 1.369 . S
C259 C260 1.410 . S
C259 C267 1.503 . S
C260 C259 1.410 . S
C260 C261 1.392 . S
C260 C263 1.511 . S
C261 C257 1.376 . S
C261 C260 1.392 . S
C261 H273 0.929 . S
C262 C258 1.531 . S
C262 H274 0.960 . S
C262 H275 0.962 . S
C262 H276 0.960 . S
C263 C260 1.511 . S
C263 H277 0.961 . S
C263 H278 0.961 . S
C263 H279 0.961 . S
C264 C265 1.370 . S
C264 C266 1.363 . S
C264 H280 0.931 . S
C265 C264 1.370 . S
C265 C269 1.408 . S
C266 C264 1.363 . S
C266 C267 1.370 . S
C266 C270 1.524 . S
C267 C259 1.503 . S
C267 C266 1.370 . S
C267 C268 1.403 . S
C268 C267 1.403 . S
C268 C269 1.404 . S
C268 C271 1.539 . S
C269 C265 1.408 . S
C269 C268 1.404 . S
C269 H281 0.930 . S
C270 C266 1.524 . S
C270 H282 0.956 . S
C270 H283 0.961 . S
C270 H284 0.961 . S
C271 C268 1.539 . S
C271 H285 0.958 . S
C271 H286 0.961 . S
C271 H287 0.960 . S
H272 C256 0.931 . S
H273 C261 0.929 . S
H274 C262 0.960 . S
H275 C262 0.962 . S
H276 C262 0.960 . S
H277 C263 0.961 . S
H278 C263 0.961 . S
H279 C263 0.961 . S
H280 C264 0.931 . S
H281 C269 0.930 . S
H282 C270 0.956 . S
H283 C270 0.961 . S
H284 C270 0.961 . S
H285 C271 0.958 . S
H286 C271 0.961 . S
H287 C271 0.960 . S
C288 C289 1.391 . S
C288 C290 1.394 . S
C288 H304 0.931 . S
C289 C288 1.391 . S
C289 C293 1.376 . S
C290 C288 1.394 . S
C290 C291 1.369 . S
C290 C294 1.531 . S
C291 C290 1.369 . S
C291 C292 1.410 . S
C291 C299 1.503 . S
C292 C291 1.410 . S
C292 C293 1.392 . S
C292 C295 1.511 . S
C293 C289 1.376 . S
C293 C292 1.392 . S
C293 H305 0.929 . S
C294 C290 1.531 . S
C294 H306 0.960 . S
C294 H307 0.962 . S
C294 H308 0.960 . S
C295 C292 1.511 . S
C295 H309 0.961 . S
C295 H310 0.961 . S
C295 H311 0.961 . S
C296 C297 1.370 . S
C296 C298 1.363 . S
C296 H312 0.931 . S
C297 C296 1.370 . S
C297 C301 1.408 . S
C298 C296 1.363 . S
C298 C299 1.370 . S
C298 C302 1.524 . S
C299 C291 1.503 . S
C299 C298 1.370 . S
C299 C300 1.403 . S
C300 C299 1.403 . S
C300 C301 1.404 . S
C300 C303 1.539 . S
C301 C297 1.408 . S
C301 C300 1.404 . S
C301 H313 0.930 . S
C302 C298 1.524 . S
C302 H314 0.956 . S
C302 H315 0.961 . S
C302 H316 0.961 . S
C303 C300 1.539 . S
C303 H317 0.958 . S
C303 H318 0.961 . S
C303 H319 0.960 . S
H304 C288 0.931 . S
H305 C293 0.929 . S
H306 C294 0.960 . S
H307 C294 0.962 . S
H308 C294 0.960 . S
H309 C295 0.961 . S
H310 C295 0.961 . S
H311 C295 0.961 . S
H312 C296 0.931 . S
H313 C301 0.930 . S
H314 C302 0.956 . S
H315 C302 0.961 . S
H316 C302 0.961 . S
H317 C303 0.958 . S
H318 C303 0.961 . S
H319 C303 0.960 . S
C320 C321 1.391 . S
C320 C322 1.394 . S
C320 H336 0.931 . S
C321 C320 1.391 . S
C321 C325 1.376 . S
C322 C320 1.394 . S
C322 C323 1.369 . S
C322 C326 1.531 . S
C323 C322 1.369 . S
C323 C324 1.410 . S
C323 C331 1.503 . S
C324 C323 1.410 . S
C324 C325 1.392 . S
C324 C327 1.511 . S
C325 C321 1.376 . S
C325 C324 1.392 . S
C325 H337 0.929 . S
C326 C322 1.531 . S
C326 H338 0.960 . S
C326 H339 0.962 . S
C326 H340 0.960 . S
C327 C324 1.511 . S
C327 H341 0.961 . S
C327 H342 0.961 . S
C327 H343 0.961 . S
C328 C329 1.370 . S
C328 C330 1.363 . S
C328 H344 0.931 . S
C329 C328 1.370 . S
C329 C333 1.408 . S
C330 C328 1.363 . S
C330 C331 1.370 . S
C330 C334 1.524 . S
C331 C323 1.503 . S
C331 C330 1.370 . S
C331 C332 1.403 . S
C332 C331 1.403 . S
C332 C333 1.404 . S
C332 C335 1.539 . S
C333 C329 1.408 . S
C333 C332 1.404 . S
C333 H345 0.930 . S
C334 C330 1.524 . S
C334 H346 0.956 . S
C334 H347 0.961 . S
C334 H348 0.961 . S
C335 C332 1.539 . S
C335 H349 0.958 . S
C335 H350 0.961 . S
C335 H351 0.960 . S
H336 C320 0.931 . S
H337 C325 0.929 . S
H338 C326 0.960 . S
H339 C326 0.962 . S
H340 C326 0.960 . S
H341 C327 0.961 . S
H342 C327 0.961 . S
H343 C327 0.961 . S
H344 C328 0.931 . S
H345 C333 0.930 . S
H346 C334 0.956 . S
H347 C334 0.961 . S
H348 C334 0.961 . S
H349 C335 0.958 . S
H350 C335 0.961 . S
H351 C335 0.960 . S
C352 C353 1.391 . S
C352 C354 1.394 . S
C352 H368 0.931 1_556 S
C353 C352 1.391 . S
C353 C357 1.376 . S
C354 C352 1.394 . S
C354 C355 1.369 . S
C354 C358 1.531 . S
C355 C354 1.369 . S
C355 C356 1.410 . S
C355 C363 1.503 . S
C356 C355 1.410 . S
C356 C357 1.392 . S
C356 C359 1.511 . S
C357 C353 1.376 . S
C357 C356 1.392 . S
C357 H369 0.929 . S
C358 C354 1.531 . S
C358 H370 0.960 . S
C358 H371 0.962 . S
C358 H372 0.960 1_556 S
C359 C356 1.511 . S
C359 H373 0.961 . S
C359 H374 0.961 . S
C359 H375 0.961 . S
C360 C361 1.370 . S
C360 C362 1.363 . S
C360 H376 0.931 . S
C361 C360 1.370 . S
C361 C365 1.408 . S
C362 C360 1.363 . S
C362 C363 1.370 . S
C362 C366 1.524 . S
C363 C355 1.503 . S
C363 C362 1.370 . S
C363 C364 1.403 . S
C364 C363 1.403 . S
C364 C365 1.404 . S
C364 C367 1.539 . S
C365 C361 1.408 . S
C365 C364 1.404 . S
C365 H377 0.930 . S
C366 C362 1.524 . S
C366 H378 0.956 . S
C366 H379 0.961 . S
C366 H380 0.961 . S
C367 C364 1.539 . S
C367 H381 0.958 . S
C367 H382 0.961 . S
C367 H383 0.960 . S
H368 C352 0.931 1_554 S
H369 C357 0.929 . S
H370 C358 0.960 . S
H371 C358 0.962 . S
H372 C358 0.960 1_554 S
H373 C359 0.961 . S
H374 C359 0.961 . S
H375 C359 0.961 . S
H376 C360 0.931 . S
H377 C365 0.930 . S
H378 C366 0.956 . S
H379 C366 0.961 . S
H380 C366 0.961 . S
H381 C367 0.958 . S
H382 C367 0.961 . S
H383 C367 0.960 . S
C384 C385 1.391 . S
C384 C386 1.394 . S
C384 H400 0.931 . S
C385 C384 1.391 . S
C385 C389 1.376 . S
C386 C384 1.394 . S
C386 C387 1.369 . S
C386 C390 1.531 . S
C387 C386 1.369 . S
C387 C388 1.410 . S
C387 C395 1.503 . S
C388 C387 1.410 . S
C388 C389 1.392 . S
C388 C391 1.511 . S
C389 C385 1.376 . S
C389 C388 1.392 . S
C389 H401 0.929 . S
C390 C386 1.531 . S
C390 H402 0.960 . S
C390 H403 0.962 . S
C390 H404 0.960 . S
C391 C388 1.511 . S
C391 H405 0.961 . S
C391 H406 0.961 . S
C391 H407 0.961 . S
C392 C393 1.370 . S
C392 C394 1.363 . S
C392 H408 0.931 . S
C393 C392 1.370 . S
C393 C397 1.408 . S
C394 C392 1.363 . S
C394 C395 1.370 . S
C394 C398 1.524 . S
C395 C387 1.503 . S
C395 C394 1.370 . S
C395 C396 1.403 . S
C396 C395 1.403 . S
C396 C397 1.404 . S
C396 C399 1.539 . S
C397 C393 1.408 . S
C397 C396 1.404 . S
C397 H409 0.930 . S
C398 C394 1.524 . S
C398 H410 0.956 . S
C398 H411 0.961 . S
C398 H412 0.961 . S
C399 C396 1.539 . S
C399 H413 0.958 . S
C399 H414 0.961 . S
C399 H415 0.960 . S
H400 C384 0.931 . S
H401 C389 0.929 . S
H402 C390 0.960 . S
H403 C390 0.962 . S
H404 C390 0.960 . S
H405 C391 0.961 . S
H406 C391 0.961 . S
H407 C391 0.961 . S
H408 C392 0.931 . S
H409 C397 0.930 . S
H410 C398 0.956 . S
H411 C398 0.961 . S
H412 C398 0.961 . S
H413 C399 0.958 . S
H414 C399 0.961 . S
H415 C399 0.960 . S
C416 C417 1.391 . S
C416 C418 1.394 . S
C416 H432 0.931 . S
C417 C416 1.391 . S
C417 C421 1.376 . S
C418 C416 1.394 . S
C418 C419 1.369 . S
C418 C422 1.531 . S
C419 C418 1.369 . S
C419 C420 1.410 . S
C419 C427 1.503 . S
C420 C419 1.410 . S
C420 C421 1.392 . S
C420 C423 1.511 . S
C421 C417 1.376 . S
C421 C420 1.392 . S
C421 H433 0.929 . S
C422 C418 1.531 . S
C422 H434 0.960 . S
C422 H435 0.962 . S
C422 H436 0.960 . S
C423 C420 1.511 . S
C423 H437 0.961 . S
C423 H438 0.961 . S
C423 H439 0.961 . S
C424 C425 1.370 . S
C424 C426 1.363 . S
C424 H440 0.931 . S
C425 C424 1.370 . S
C425 C429 1.408 . S
C426 C424 1.363 . S
C426 C427 1.370 . S
C426 C430 1.524 . S
C427 C419 1.503 . S
C427 C426 1.370 . S
C427 C428 1.403 . S
C428 C427 1.403 . S
C428 C429 1.404 . S
C428 C431 1.539 . S
C429 C425 1.408 . S
C429 C428 1.404 . S
C429 H441 0.930 . S
C430 C426 1.524 . S
C430 H442 0.956 . S
C430 H443 0.961 . S
C430 H444 0.961 . S
C431 C428 1.539 . S
C431 H445 0.958 . S
C431 H446 0.961 . S
C431 H447 0.960 . S
H432 C416 0.931 . S
H433 C421 0.929 . S
H434 C422 0.960 . S
H435 C422 0.962 . S
H436 C422 0.960 . S
H437 C423 0.961 . S
H438 C423 0.961 . S
H439 C423 0.961 . S
H440 C424 0.931 . S
H441 C429 0.930 . S
H442 C430 0.956 . S
H443 C430 0.961 . S
H444 C430 0.961 . S
H445 C431 0.958 . S
H446 C431 0.961 . S
H447 C431 0.960 . S
C448 C449 1.391 . S
C448 C450 1.394 . S
C448 H464 0.931 . S
C449 C448 1.391 . S
C449 C453 1.376 . S
C450 C448 1.394 . S
C450 C451 1.369 . S
C450 C454 1.531 . S
C451 C450 1.369 . S
C451 C452 1.410 . S
C451 C459 1.503 . S
C452 C451 1.410 . S
C452 C453 1.392 . S
C452 C455 1.511 . S
C453 C449 1.376 . S
C453 C452 1.392 . S
C453 H465 0.929 . S
C454 C450 1.531 . S
C454 H466 0.960 . S
C454 H467 0.962 . S
C454 H468 0.960 . S
C455 C452 1.511 . S
C455 H469 0.961 . S
C455 H470 0.961 . S
C455 H471 0.961 . S
C456 C457 1.370 . S
C456 C458 1.363 . S
C456 H472 0.931 . S
C457 C456 1.370 . S
C457 C461 1.408 . S
C458 C456 1.363 . S
C458 C459 1.370 . S
C458 C462 1.524 . S
C459 C451 1.503 . S
C459 C458 1.370 . S
C459 C460 1.403 . S
C460 C459 1.403 . S
C460 C461 1.404 . S
C460 C463 1.539 . S
C461 C457 1.408 . S
C461 C460 1.404 . S
C461 H473 0.930 . S
C462 C458 1.524 . S
C462 H474 0.956 . S
C462 H475 0.961 . S
C462 H476 0.961 . S
C463 C460 1.539 . S
C463 H477 0.958 . S
C463 H478 0.961 . S
C463 H479 0.960 . S
H464 C448 0.931 . S
H465 C453 0.929 . S
H466 C454 0.960 . S
H467 C454 0.962 . S
H468 C454 0.960 . S
H469 C455 0.961 . S
H470 C455 0.961 . S
H471 C455 0.961 . S
H472 C456 0.931 . S
H473 C461 0.930 . S
H474 C462 0.956 . S
H475 C462 0.961 . S
H476 C462 0.961 . S
H477 C463 0.958 . S
H478 C463 0.961 . S
H479 C463 0.960 . S
C480 C481 1.391 . S
C480 C482 1.394 . S
C480 H496 0.931 . S
C481 C480 1.391 . S
C481 C485 1.376 . S
C482 C480 1.394 . S
C482 C483 1.369 . S
C482 C486 1.531 . S
C483 C482 1.369 . S
C483 C484 1.410 . S
C483 C491 1.503 . S
C484 C483 1.410 . S
C484 C485 1.392 . S
C484 C487 1.511 . S
C485 C481 1.376 . S
C485 C484 1.392 . S
C485 H497 0.929 1_556 S
C486 C482 1.531 . S
C486 H498 0.960 . S
C486 H499 0.962 . S
C486 H500 0.960 . S
C487 C484 1.511 . S
C487 H501 0.961 1_556 S
C487 H502 0.961 . S
C487 H503 0.961 . S
C488 C489 1.370 . S
C488 C490 1.363 . S
C488 H504 0.931 . S
C489 C488 1.370 . S
C489 C493 1.408 . S
C490 C488 1.363 . S
C490 C491 1.370 . S
C490 C494 1.524 . S
C491 C483 1.503 . S
C491 C490 1.370 . S
C491 C492 1.403 . S
C492 C491 1.403 . S
C492 C493 1.404 . S
C492 C495 1.539 . S
C493 C489 1.408 . S
C493 C492 1.404 . S
C493 H505 0.930 . S
C494 C490 1.524 . S
C494 H506 0.956 . S
C494 H507 0.961 . S
C494 H508 0.961 . S
C495 C492 1.539 . S
C495 H509 0.958 . S
C495 H510 0.961 . S
C495 H511 0.960 . S
H496 C480 0.931 . S
H497 C485 0.929 1_554 S
H498 C486 0.960 . S
H499 C486 0.962 . S
H500 C486 0.960 . S
H501 C487 0.961 1_554 S
H502 C487 0.961 . S
H503 C487 0.961 . S
H504 C488 0.931 . S
H505 C493 0.930 . S
H506 C494 0.956 . S
H507 C494 0.961 . S
H508 C494 0.961 . S
H509 C495 0.958 . S
H510 C495 0.961 . S
H511 C495 0.960 . S
C512 C513 1.391 . S
C512 C514 1.394 . S
C512 H528 0.931 . S
C513 C512 1.391 . S
C513 C517 1.376 . S
C514 C512 1.394 . S
C514 C515 1.369 . S
C514 C518 1.531 . S
C515 C514 1.369 . S
C515 C516 1.410 . S
C515 C523 1.503 . S
C516 C515 1.410 . S
C516 C517 1.392 . S
C516 C519 1.511 . S
C517 C513 1.376 . S
C517 C516 1.392 . S
C517 H529 0.929 . S
C518 C514 1.531 . S
C518 H530 0.960 . S
C518 H531 0.962 . S
C518 H532 0.960 . S
C519 C516 1.511 . S
C519 H533 0.961 . S
C519 H534 0.961 . S
C519 H535 0.961 . S
C520 C521 1.370 . S
C520 C522 1.363 . S
C520 H536 0.931 . S
C521 C520 1.370 . S
C521 C525 1.408 . S
C522 C520 1.363 . S
C522 C523 1.370 . S
C522 C526 1.524 . S
C523 C515 1.503 . S
C523 C522 1.370 . S
C523 C524 1.403 . S
C524 C523 1.403 . S
C524 C525 1.404 . S
C524 C527 1.539 . S
C525 C521 1.408 . S
C525 C524 1.404 . S
C525 H537 0.930 . S
C526 C522 1.524 . S
C526 H538 0.956 . S
C526 H539 0.961 . S
C526 H540 0.961 . S
C527 C524 1.539 . S
C527 H541 0.958 . S
C527 H542 0.961 . S
C527 H543 0.960 . S
H528 C512 0.931 . S
H529 C517 0.929 . S
H530 C518 0.960 . S
H531 C518 0.962 . S
H532 C518 0.960 . S
H533 C519 0.961 . S
H534 C519 0.961 . S
H535 C519 0.961 . S
H536 C520 0.931 . S
H537 C525 0.930 . S
H538 C526 0.956 . S
H539 C526 0.961 . S
H540 C526 0.961 . S
H541 C527 0.958 . S
H542 C527 0.961 . S
H543 C527 0.960 . S
C544 C545 1.391 . S
C544 C546 1.394 . S
C544 H560 0.931 . S
C545 C544 1.391 . S
C545 C549 1.376 . S
C546 C544 1.394 . S
C546 C547 1.369 . S
C546 C550 1.531 . S
C547 C546 1.369 . S
C547 C548 1.410 . S
C547 C555 1.503 1_565 S
C548 C547 1.410 . S
C548 C549 1.392 . S
C548 C551 1.511 1_565 S
C549 C545 1.376 . S
C549 C548 1.392 . S
C549 H561 0.929 . S
C550 C546 1.531 . S
C550 H562 0.960 . S
C550 H563 0.962 . S
C550 H564 0.960 . S
C551 C548 1.511 1_545 S
C551 H565 0.961 . S
C551 H566 0.961 . S
C551 H567 0.944 1_545 S
C552 C553 1.370 . S
C552 C554 1.363 . S
C552 H568 0.931 . S
C553 C552 1.370 . S
C553 C557 1.408 . S
C554 C552 1.363 . S
C554 C555 1.370 . S
C554 C558 1.524 . S
C555 C547 1.503 1_545 S
C555 C554 1.370 . S
C555 C556 1.403 . S
C556 C555 1.403 . S
C556 C557 1.404 . S
C556 C559 1.539 1_545 S
C557 C553 1.408 . S
C557 C556 1.404 . S
C557 H569 0.930 . S
C558 C554 1.524 . S
C558 H570 0.956 . S
C558 H571 0.961 . S
C558 H572 0.961 . S
C559 C556 1.539 1_565 S
C559 H573 0.958 . S
C559 H574 0.961 . S
C559 H575 0.960 . S
H560 C544 0.931 . S
H561 C549 0.929 . S
H562 C550 0.960 . S
H563 C550 0.962 . S
H564 C550 0.960 . S
H565 C551 0.961 . S
H566 C551 0.961 . S
H567 C551 0.944 1_565 S
H568 C552 0.931 . S
H569 C557 0.930 . S
H570 C558 0.956 . S
H571 C558 0.961 . S
H572 C558 0.961 . S
H573 C559 0.958 . S
H574 C559 0.961 . S
H575 C559 0.960 . S
C576 C577 1.391 . S
C576 C578 1.394 . S
C576 H592 0.931 . S
C577 C576 1.391 . S
C577 C581 1.376 . S
C578 C576 1.394 . S
C578 C579 1.369 . S
C578 C582 1.531 . S
C579 C578 1.369 . S
C579 C580 1.410 . S
C579 C587 1.503 1_545 S
C580 C579 1.410 . S
C580 C581 1.392 . S
C580 C583 1.511 1_545 S
C581 C577 1.376 . S
C581 C580 1.392 . S
C581 H593 0.929 . S
C582 C578 1.531 . S
C582 H594 0.960 . S
C582 H595 0.962 1_545 S
C582 H596 0.960 . S
C583 C580 1.511 1_565 S
C583 H597 0.961 . S
C583 H598 0.961 . S
C583 H599 0.961 1_565 S
C584 C585 1.370 . S
C584 C586 1.363 . S
C584 H600 0.931 . S
C585 C584 1.370 . S
C585 C589 1.408 . S
C586 C584 1.363 . S
C586 C587 1.370 . S
C586 C590 1.524 . S
C587 C579 1.503 1_565 S
C587 C586 1.370 . S
C587 C588 1.403 . S
C588 C587 1.403 . S
C588 C589 1.404 . S
C588 C591 1.539 1_565 S
C589 C585 1.408 . S
C589 C588 1.404 . S
C589 H601 0.930 . S
C590 C586 1.524 . S
C590 H602 0.956 . S
C590 H603 0.961 . S
C590 H604 0.961 . S
C591 C588 1.539 1_545 S
C591 H605 0.958 . S
C591 H606 0.961 . S
C591 H607 0.960 . S
H592 C576 0.931 . S
H593 C581 0.929 . S
H594 C582 0.960 . S
H595 C582 0.962 1_565 S
H596 C582 0.960 . S
H597 C583 0.961 . S
H598 C583 0.961 . S
H599 C583 0.961 1_545 S
H600 C584 0.931 . S
H601 C589 0.930 . S
H602 C590 0.956 . S
H603 C590 0.961 . S
H604 C590 0.961 . S
H605 C591 0.958 . S
H606 C591 0.961 . S
H607 C591 0.960 . S
C608 C609 1.391 . S
C608 C610 1.394 1_565 S
C608 H624 0.931 . S
C609 C608 1.391 . S
C609 C613 1.376 . S
C610 C608 1.394 1_545 S
C610 C611 1.369 . S
C610 C614 1.531 . S
C611 C610 1.369 . S
C611 C612 1.410 1_545 S
C611 C619 1.503 . S
C612 C611 1.410 1_565 S
C612 C613 1.392 . S
C612 C615 1.511 . S
C613 C609 1.376 . S
C613 C612 1.392 . S
C613 H625 0.929 . S
C614 C610 1.531 . S
C614 H626 0.960 . S
C614 H627 0.962 . S
C614 H628 0.960 . S
C615 C612 1.511 . S
C615 H629 0.961 . S
C615 H630 0.961 . S
C615 H631 0.961 . S
C616 C617 1.370 . S
C616 C618 1.363 . S
C616 H632 0.931 . S
C617 C616 1.370 . S
C617 C621 1.408 . S
C618 C616 1.363 . S
C618 C619 1.370 . S
C618 C622 1.524 . S
C619 C611 1.503 . S
C619 C618 1.370 . S
C619 C620 1.403 . S
C620 C619 1.403 . S
C620 C621 1.404 . S
C620 C623 1.539 . S
C621 C617 1.408 . S
C621 C620 1.404 . S
C621 H633 0.930 . S
C622 C618 1.524 . S
C622 H634 0.956 . S
C622 H635 0.961 1_545 S
C622 H636 0.961 . S
C623 C620 1.539 . S
C623 H637 0.958 . S
C623 H638 0.961 . S
C623 H639 0.960 . S
H624 C608 0.931 . S
H625 C613 0.929 . S
H626 C614 0.960 . S
H627 C614 0.962 . S
H628 C614 0.960 . S
H629 C615 0.961 . S
H630 C615 0.961 . S
H631 C615 0.961 . S
H632 C616 0.931 . S
H633 C621 0.930 . S
H634 C622 0.956 . S
H635 C622 0.961 1_565 S
H636 C622 0.961 . S
H637 C623 0.958 . S
H638 C623 0.961 . S
H639 C623 0.960 . S
C640 C641 1.391 . S
C640 C642 1.394 1_545 S
C640 H656 0.931 . S
C641 C640 1.391 . S
C641 C645 1.376 . S
C642 C640 1.394 1_565 S
C642 C643 1.369 . S
C642 C646 1.531 . S
C643 C642 1.369 . S
C643 C644 1.401 1_565 S
C643 C651 1.512 . S
C644 C643 1.401 1_545 S
C644 C645 1.392 . S
C644 C647 1.511 . S
C645 C641 1.376 . S
C645 C644 1.392 . S
C645 H657 0.929 . S
C646 C642 1.531 . S
C646 H658 0.960 . S
C646 H659 0.962 . S
C646 H660 0.960 . S
C647 C644 1.511 . S
C647 H661 0.961 . S
C647 H662 0.961 . S
C647 H663 0.961 . S
C648 C649 1.370 . S
C648 C650 1.363 . S
C648 H664 0.931 . S
C649 C648 1.370 . S
C649 C653 1.408 . S
C650 C648 1.363 . S
C650 C651 1.370 . S
C650 C654 1.524 . S
C651 C643 1.512 . S
C651 C650 1.370 . S
C651 C652 1.403 . S
C652 C651 1.403 . S
C652 C653 1.404 . S
C652 C655 1.539 1_565 S
C653 C649 1.408 . S
C653 C652 1.404 . S
C653 H665 0.930 . S
C654 C650 1.524 . S
C654 H666 0.956 . S
C654 H667 0.961 . S
C654 H668 0.961 . S
C655 C652 1.539 1_545 S
C655 H669 0.958 . S
C655 H670 0.961 . S
C655 H671 0.960 . S
H656 C640 0.931 . S
H657 C645 0.929 . S
H658 C646 0.960 . S
H659 C646 0.962 . S
H660 C646 0.960 . S
H661 C647 0.961 . S
H662 C647 0.961 . S
H663 C647 0.961 . S
H664 C648 0.931 . S
H665 C653 0.930 . S
H666 C654 0.956 . S
H667 C654 0.961 . S
H668 C654 0.961 . S
H669 C655 0.958 . S
H670 C655 0.961 . S
H671 C655 0.960 . S
C672 C673 1.391 . S
C672 C674 1.394 . S
C672 H688 0.931 . S
C673 C672 1.391 . S
C673 C677 1.376 . S
C674 C672 1.394 . S
C674 C675 1.369 . S
C674 C678 1.531 . S
C675 C674 1.369 . S
C675 C676 1.410 . S
C675 C683 1.503 . S
C676 C675 1.410 . S
C676 C677 1.392 . S
C676 C679 1.511 . S
C677 C673 1.376 . S
C677 C676 1.392 . S
C677 H689 0.929 . S
C678 C674 1.531 . S
C678 H690 0.960 . S
C678 H691 0.962 . S
C678 H692 0.960 . S
C679 C676 1.511 . S
C679 H693 0.961 . S
C679 H694 0.961 . S
C679 H695 0.961 . S
C680 C681 1.370 . S
C680 C682 1.363 . S
C680 H696 0.931 . S
C681 C680 1.370 . S
C681 C685 1.408 . S
C682 C680 1.363 . S
C682 C683 1.370 . S
C682 C686 1.524 . S
C683 C675 1.503 . S
C683 C682 1.370 . S
C683 C684 1.403 . S
C684 C683 1.403 . S
C684 C685 1.404 . S
C684 C687 1.539 . S
C685 C681 1.408 . S
C685 C684 1.404 . S
C685 H697 0.930 . S
C686 C682 1.524 . S
C686 H698 0.956 . S
C686 H699 0.961 . S
C686 H700 0.961 . S
C687 C684 1.539 . S
C687 H701 0.958 . S
C687 H702 0.961 . S
C687 H703 0.960 . S
H688 C672 0.931 . S
H689 C677 0.929 . S
H690 C678 0.960 . S
H691 C678 0.962 . S
H692 C678 0.960 . S
H693 C679 0.961 . S
H694 C679 0.961 . S
H695 C679 0.961 . S
H696 C680 0.931 . S
H697 C685 0.930 . S
H698 C686 0.956 . S
H699 C686 0.961 . S
H700 C686 0.961 . S
H701 C687 0.958 . S
H702 C687 0.961 . S
H703 C687 0.960 . S
C704 C705 1.391 . S
C704 C706 1.394 . S
C704 H720 0.931 . S
C705 C704 1.391 . S
C705 C709 1.376 . S
C706 C704 1.394 . S
C706 C707 1.369 . S
C706 C710 1.531 . S
C707 C706 1.369 . S
C707 C708 1.410 . S
C707 C715 1.503 . S
C708 C707 1.410 . S
C708 C709 1.392 . S
C708 C711 1.511 . S
C709 C705 1.376 . S
C709 C708 1.392 . S
C709 H721 0.929 . S
C710 C706 1.531 . S
C710 H722 0.960 . S
C710 H723 0.962 . S
C710 H724 0.960 . S
C711 C708 1.511 . S
C711 H725 0.961 . S
C711 H726 0.961 . S
C711 H727 0.961 . S
C712 C713 1.370 . S
C712 C714 1.363 . S
C712 H728 0.931 . S
C713 C712 1.370 . S
C713 C717 1.408 . S
C714 C712 1.363 . S
C714 C715 1.370 . S
C714 C718 1.524 . S
C715 C707 1.503 . S
C715 C714 1.370 . S
C715 C716 1.403 . S
C716 C715 1.403 . S
C716 C717 1.404 . S
C716 C719 1.539 . S
C717 C713 1.408 . S
C717 C716 1.404 . S
C717 H729 0.930 . S
C718 C714 1.524 . S
C718 H730 0.956 . S
C718 H731 0.961 . S
C718 H732 0.961 . S
C719 C716 1.539 . S
C719 H733 0.958 . S
C719 H734 0.961 . S
C719 H735 0.960 . S
H720 C704 0.931 . S
H721 C709 0.929 . S
H722 C710 0.960 . S
H723 C710 0.962 . S
H724 C710 0.960 . S
H725 C711 0.961 . S
H726 C711 0.961 . S
H727 C711 0.961 . S
H728 C712 0.931 . S
H729 C717 0.930 . S
H730 C718 0.956 . S
H731 C718 0.961 . S
H732 C718 0.961 . S
H733 C719 0.958 . S
H734 C719 0.961 . S
H735 C719 0.960 . S
C736 C737 1.391 . S
C736 C738 1.394 . S
C736 H752 0.931 . S
C737 C736 1.391 . S
C737 C741 1.376 . S
C738 C736 1.394 . S
C738 C739 1.369 . S
C738 C742 1.531 . S
C739 C738 1.369 . S
C739 C740 1.410 . S
C739 C747 1.503 . S
C740 C739 1.410 . S
C740 C741 1.392 . S
C740 C743 1.511 . S
C741 C737 1.376 . S
C741 C740 1.392 . S
C741 H753 0.929 . S
C742 C738 1.531 . S
C742 H754 0.960 . S
C742 H755 0.962 . S
C742 H756 0.960 . S
C743 C740 1.511 . S
C743 H757 0.961 . S
C743 H758 0.961 . S
C743 H759 0.961 . S
C744 C745 1.370 . S
C744 C746 1.363 . S
C744 H760 0.931 . S
C745 C744 1.370 . S
C745 C749 1.408 . S
C746 C744 1.363 . S
C746 C747 1.370 . S
C746 C750 1.524 . S
C747 C739 1.503 . S
C747 C746 1.370 . S
C747 C748 1.403 . S
C748 C747 1.403 . S
C748 C749 1.404 . S
C748 C751 1.539 . S
C749 C745 1.408 . S
C749 C748 1.404 . S
C749 H761 0.930 . S
C750 C746 1.524 . S
C750 H762 0.956 . S
C750 H763 0.961 . S
C750 H764 0.961 . S
C751 C748 1.539 . S
C751 H765 0.958 . S
C751 H766 0.961 . S
C751 H767 0.960 . S
H752 C736 0.931 . S
H753 C741 0.929 . S
H754 C742 0.960 . S
H755 C742 0.962 . S
H756 C742 0.960 . S
H757 C743 0.961 . S
H758 C743 0.961 . S
H759 C743 0.961 . S
H760 C744 0.931 . S
H761 C749 0.930 . S
H762 C750 0.956 . S
H763 C750 0.961 . S
H764 C750 0.961 . S
H765 C751 0.958 . S
H766 C751 0.961 . S
H767 C751 0.960 . S
C768 C769 1.391 . S
C768 C770 1.394 . S
C768 H784 0.931 . S
C769 C768 1.391 . S
C769 C773 1.376 . S
C770 C768 1.394 . S
C770 C771 1.369 . S
C770 C774 1.531 . S
C771 C770 1.369 . S
C771 C772 1.410 . S
C771 C779 1.503 . S
C772 C771 1.410 . S
C772 C773 1.392 . S
C772 C775 1.511 . S
C773 C769 1.376 . S
C773 C772 1.392 . S
C773 H785 0.929 . S
C774 C770 1.531 . S
C774 H786 0.960 . S
C774 H787 0.962 . S
C774 H788 0.960 . S
C775 C772 1.511 . S
C775 H789 0.961 . S
C775 H790 0.961 . S
C775 H791 0.961 . S
C776 C777 1.370 . S
C776 C778 1.363 . S
C776 H792 0.931 . S
C777 C776 1.370 . S
C777 C781 1.408 . S
C778 C776 1.363 . S
C778 C779 1.370 . S
C778 C782 1.524 . S
C779 C771 1.503 . S
C779 C778 1.370 . S
C779 C780 1.403 . S
C780 C779 1.403 . S
C780 C781 1.404 . S
C780 C783 1.539 . S
C781 C777 1.408 . S
C781 C780 1.404 . S
C781 H793 0.930 . S
C782 C778 1.524 . S
C782 H794 0.956 . S
C782 H795 0.961 . S
C782 H796 0.961 . S
C783 C780 1.539 . S
C783 H797 0.958 . S
C783 H798 0.961 . S
C783 H799 0.960 . S
H784 C768 0.931 . S
H785 C773 0.929 . S
H786 C774 0.960 . S
H787 C774 0.962 . S
H788 C774 0.960 . S
H789 C775 0.961 . S
H790 C775 0.961 . S
H791 C775 0.961 . S
H792 C776 0.931 . S
H793 C781 0.930 . S
H794 C782 0.956 . S
H795 C782 0.961 . S
H796 C782 0.961 . S
H797 C783 0.958 . S
H798 C783 0.961 . S
H799 C783 0.960 . S
C800 C801 1.391 . S
C800 C802 1.394 . S
C800 H816 0.931 . S
C801 C800 1.391 . S
C801 C805 1.376 . S
C802 C800 1.394 . S
C802 C803 1.369 . S
C802 C806 1.531 . S
C803 C802 1.369 . S
C803 C804 1.410 . S
C803 C811 1.503 . S
C804 C803 1.410 . S
C804 C805 1.392 . S
C804 C807 1.511 . S
C805 C801 1.376 . S
C805 C804 1.392 . S
C805 H817 0.929 . S
C806 C802 1.531 . S
C806 H818 0.960 . S
C806 H819 0.962 . S
C806 H820 0.960 . S
C807 C804 1.511 . S
C807 H821 0.961 . S
C807 H822 0.961 . S
C807 H823 0.961 . S
C808 C809 1.370 . S
C808 C810 1.363 . S
C808 H824 0.931 . S
C809 C808 1.370 . S
C809 C813 1.408 . S
C810 C808 1.363 . S
C810 C811 1.370 . S
C810 C814 1.524 . S
C811 C803 1.503 . S
C811 C810 1.370 . S
C811 C812 1.403 . S
C812 C811 1.403 . S
C812 C813 1.404 . S
C812 C815 1.539 . S
C813 C809 1.408 . S
C813 C812 1.404 . S
C813 H825 0.930 . S
C814 C810 1.524 . S
C814 H826 0.956 . S
C814 H827 0.961 . S
C814 H828 0.961 . S
C815 C812 1.539 . S
C815 H829 0.958 . S
C815 H830 0.961 . S
C815 H831 0.960 . S
H816 C800 0.931 . S
H817 C805 0.929 . S
H818 C806 0.960 . S
H819 C806 0.962 . S
H820 C806 0.960 . S
H821 C807 0.961 . S
H822 C807 0.961 . S
H823 C807 0.961 . S
H824 C808 0.931 . S
H825 C813 0.930 . S
H826 C814 0.956 . S
H827 C814 0.961 . S
H828 C814 0.961 . S
H829 C815 0.958 . S
H830 C815 0.961 . S
H831 C815 0.960 . S
C832 C833 1.391 . S
C832 C834 1.394 . S
C832 H848 0.931 . S
C833 C832 1.391 . S
C833 C837 1.376 . S
C834 C832 1.394 . S
C834 C835 1.369 . S
C834 C838 1.531 . S
C835 C834 1.369 . S
C835 C836 1.410 . S
C835 C843 1.503 . S
C836 C835 1.410 . S
C836 C837 1.392 . S
C836 C839 1.511 . S
C837 C833 1.376 . S
C837 C836 1.392 . S
C837 H849 0.929 . S
C838 C834 1.531 . S
C838 H850 0.960 . S
C838 H851 0.962 . S
C838 H852 0.960 . S
C839 C836 1.511 . S
C839 H853 0.961 . S
C839 H854 0.961 . S
C839 H855 0.961 . S
C840 C841 1.370 . S
C840 C842 1.363 . S
C840 H856 0.931 . S
C841 C840 1.370 . S
C841 C845 1.408 . S
C842 C840 1.363 . S
C842 C843 1.370 . S
C842 C846 1.524 . S
C843 C835 1.503 . S
C843 C842 1.370 . S
C843 C844 1.403 . S
C844 C843 1.403 . S
C844 C845 1.404 . S
C844 C847 1.539 . S
C845 C841 1.408 . S
C845 C844 1.404 . S
C845 H857 0.930 . S
C846 C842 1.524 . S
C846 H858 0.956 . S
C846 H859 0.961 . S
C846 H860 0.961 . S
C847 C844 1.539 . S
C847 H861 0.958 . S
C847 H862 0.961 . S
C847 H863 0.960 . S
H848 C832 0.931 . S
H849 C837 0.929 . S
H850 C838 0.960 . S
H851 C838 0.962 . S
H852 C838 0.960 . S
H853 C839 0.961 . S
H854 C839 0.961 . S
H855 C839 0.961 . S
H856 C840 0.931 . S
H857 C845 0.930 . S
H858 C846 0.956 . S
H859 C846 0.961 . S
H860 C846 0.961 . S
H861 C847 0.958 . S
H862 C847 0.961 . S
H863 C847 0.960 . S
C864 C865 1.391 . S
C864 C866 1.394 . S
C864 H880 0.931 . S
C865 C864 1.391 . S
C865 C869 1.376 . S
C866 C864 1.394 . S
C866 C867 1.369 . S
C866 C870 1.531 . S
C867 C866 1.369 . S
C867 C868 1.410 . S
C867 C875 1.503 . S
C868 C867 1.410 . S
C868 C869 1.392 . S
C868 C871 1.511 . S
C869 C865 1.376 . S
C869 C868 1.392 . S
C869 H881 0.929 . S
C870 C866 1.531 . S
C870 H882 0.960 . S
C870 H883 0.962 . S
C870 H884 0.960 . S
C871 C868 1.511 . S
C871 H885 0.961 . S
C871 H886 0.961 . S
C871 H887 0.961 . S
C872 C873 1.370 . S
C872 C874 1.363 . S
C872 H888 0.931 . S
C873 C872 1.370 . S
C873 C877 1.408 . S
C874 C872 1.363 . S
C874 C875 1.370 . S
C874 C878 1.524 . S
C875 C867 1.503 . S
C875 C874 1.370 . S
C875 C876 1.403 . S
C876 C875 1.403 . S
C876 C877 1.404 . S
C876 C879 1.539 . S
C877 C873 1.408 . S
C877 C876 1.404 . S
C877 H889 0.930 . S
C878 C874 1.524 . S
C878 H890 0.956 . S
C878 H891 0.961 . S
C878 H892 0.961 . S
C879 C876 1.539 . S
C879 H893 0.958 . S
C879 H894 0.961 . S
C879 H895 0.960 . S
H880 C864 0.931 . S
H881 C869 0.929 . S
H882 C870 0.960 . S
H883 C870 0.962 . S
H884 C870 0.960 . S
H885 C871 0.961 . S
H886 C871 0.961 . S
H887 C871 0.961 . S
H888 C872 0.931 . S
H889 C877 0.930 . S
H890 C878 0.956 . S
H891 C878 0.961 . S
H892 C878 0.961 . S
H893 C879 0.958 . S
H894 C879 0.961 . S
H895 C879 0.960 . S
C896 C897 1.391 . S
C896 C898 1.394 . S
C896 H912 0.931 . S
C897 C896 1.391 . S
C897 C901 1.376 . S
C898 C896 1.394 . S
C898 C899 1.369 . S
C898 C902 1.531 . S
C899 C898 1.369 . S
C899 C900 1.410 . S
C899 C907 1.503 . S
C900 C899 1.410 . S
C900 C901 1.392 . S
C900 C903 1.511 . S
C901 C897 1.376 . S
C901 C900 1.392 . S
C901 H913 0.929 . S
C902 C898 1.531 . S
C902 H914 0.960 . S
C902 H915 0.962 . S
C902 H916 0.960 . S
C903 C900 1.511 . S
C903 H917 0.961 . S
C903 H918 0.961 . S
C903 H919 0.961 . S
C904 C905 1.370 . S
C904 C906 1.363 . S
C904 H920 0.931 . S
C905 C904 1.370 . S
C905 C909 1.408 . S
C906 C904 1.363 . S
C906 C907 1.370 . S
C906 C910 1.524 . S
C907 C899 1.503 . S
C907 C906 1.370 . S
C907 C908 1.403 . S
C908 C907 1.403 . S
C908 C909 1.404 . S
C908 C911 1.539 . S
C909 C905 1.408 . S
C909 C908 1.404 . S
C909 H921 0.930 . S
C910 C906 1.524 . S
C910 H922 0.956 . S
C910 H923 0.961 . S
C910 H924 0.961 . S
C911 C908 1.539 . S
C911 H925 0.958 . S
C911 H926 0.961 . S
C911 H927 0.960 . S
H912 C896 0.931 . S
H913 C901 0.929 . S
H914 C902 0.960 . S
H915 C902 0.962 . S
H916 C902 0.960 . S
H917 C903 0.961 . S
H918 C903 0.961 . S
H919 C903 0.961 . S
H920 C904 0.931 . S
H921 C909 0.930 . S
H922 C910 0.956 . S
H923 C910 0.961 . S
H924 C910 0.961 . S
H925 C911 0.958 . S
H926 C911 0.961 . S
H927 C911 0.960 . S
C161 C7 1.509 . S
C169 C115 1.508 . S
C201 C79 1.499 . S
C193 C16 1.521 . S
C233 C102 1.491 . S
C225 C25 1.500 . S
C265 C90 1.495 . S
C257 C34 1.490 . S
C297 C159 1.502 . S
C289 C43 1.517 . S
C329 C123 1.502 . S
C321 C52 1.516 . S
C353 C61 1.487 . S
C361 C146 1.493 . S
C393 C134 1.499 . S
C385 C70 1.492 . S
C417 C5 1.457 . S
C425 C156 1.462 . S
C457 C126 1.467 . S
C449 C14 1.468 . S
C481 C22 1.470 . S
C489 C145 1.468 . S
C513 C32 1.467 . S
C521 C131 1.471 . S
C553 C112 1.461 . S
C545 C41 1.453 . S
C577 C50 1.452 . S
C585 C82 1.461 . S
C617 C101 1.479 . S
C609 C58 1.488 . S
C649 C87 1.475 . S
C641 C68 1.476 . S
C681 C137 1.457 . S
C673 C4 1.460 . S
C713 C153 1.468 . S
C705 C13 1.477 . S
C737 C23 1.428 . S
C745 C124 1.445 . S
C777 C148 1.451 . S
C769 C31 1.441 . S
C809 C93 1.465 . S
C801 C40 1.480 . S
C833 C49 1.466 . S
C841 C109 1.462 . S
C865 C59 1.427 . S
C873 C80 1.443 . S
C897 C67 1.427 . S
C905 C104 1.442 . S
