# Generated by pormake.
# Topology sqc, (4,8)-cn, num edge types: 1
# Building blocks:
#     Node 0, Type 0, BuildingBlock: NAWXER_clean_linker_0, # of connection points: 4
#     Node 1, Type 0, BuildingBlock: NAWXER_clean_linker_0, # of connection points: 4
#     Node 2, Type 0, BuildingBlock: NAWXER_clean_linker_0, # of connection points: 4
#     Node 3, Type 0, BuildingBlock: NAWXER_clean_linker_0, # of connection points: 4
#     Node 4, Type 0, BuildingBlock: NAWXER_clean_linker_0, # of connection points: 4
#     Node 5, Type 0, BuildingBlock: NAWXER_clean_linker_0, # of connection points: 4
#     Node 6, Type 0, BuildingBlock: NAWXER_clean_linker_0, # of connection points: 4
#     Node 7, Type 0, BuildingBlock: NAWXER_clean_linker_0, # of connection points: 4
#     Node 8, Type 1, BuildingBlock: VETTIZ_charged_sbu_0, # of connection points: 8
#     Node 9, Type 1, BuildingBlock: VETTIZ_charged_sbu_0, # of connection points: 8
#     Node 10, Type 1, BuildingBlock: VETTIZ_charged_sbu_0, # of connection points: 8
#     Node 11, Type 1, BuildingBlock: VETTIZ_charged_sbu_0, # of connection points: 8
#     Edge 12, Type (0, 1), BuildingBlock: CIFDUS_clean_linker_0, # of connection points: 2
#     Edge 13, Type (0, 1), BuildingBlock: CIFDUS_clean_linker_0, # of connection points: 2
#     Edge 14, Type (0, 1), BuildingBlock: CIFDUS_clean_linker_0, # of connection points: 2
#     Edge 15, Type (0, 1), BuildingBlock: CIFDUS_clean_linker_0, # of connection points: 2
#     Edge 16, Type (0, 1), BuildingBlock: CIFDUS_clean_linker_0, # of connection points: 2
#     Edge 17, Type (0, 1), BuildingBlock: CIFDUS_clean_linker_0, # of connection points: 2
#     Edge 18, Type (0, 1), BuildingBlock: CIFDUS_clean_linker_0, # of connection points: 2
#     Edge 19, Type (0, 1), BuildingBlock: CIFDUS_clean_linker_0, # of connection points: 2
#     Edge 20, Type (0, 1), BuildingBlock: CIFDUS_clean_linker_0, # of connection points: 2
#     Edge 21, Type (0, 1), BuildingBlock: CIFDUS_clean_linker_0, # of connection points: 2
#     Edge 22, Type (0, 1), BuildingBlock: CIFDUS_clean_linker_0, # of connection points: 2
#     Edge 23, Type (0, 1), BuildingBlock: CIFDUS_clean_linker_0, # of connection points: 2
#     Edge 24, Type (0, 1), BuildingBlock: CIFDUS_clean_linker_0, # of connection points: 2
#     Edge 25, Type (0, 1), BuildingBlock: CIFDUS_clean_linker_0, # of connection points: 2
#     Edge 26, Type (0, 1), BuildingBlock: CIFDUS_clean_linker_0, # of connection points: 2
#     Edge 27, Type (0, 1), BuildingBlock: CIFDUS_clean_linker_0, # of connection points: 2
#     Edge 28, Type (0, 1), BuildingBlock: CIFDUS_clean_linker_0, # of connection points: 2
#     Edge 29, Type (0, 1), BuildingBlock: CIFDUS_clean_linker_0, # of connection points: 2
#     Edge 30, Type (0, 1), BuildingBlock: CIFDUS_clean_linker_0, # of connection points: 2
#     Edge 31, Type (0, 1), BuildingBlock: CIFDUS_clean_linker_0, # of connection points: 2
#     Edge 32, Type (0, 1), BuildingBlock: CIFDUS_clean_linker_0, # of connection points: 2
#     Edge 33, Type (0, 1), BuildingBlock: CIFDUS_clean_linker_0, # of connection points: 2
#     Edge 34, Type (0, 1), BuildingBlock: CIFDUS_clean_linker_0, # of connection points: 2
#     Edge 35, Type (0, 1), BuildingBlock: CIFDUS_clean_linker_0, # of connection points: 2
#     Edge 36, Type (0, 1), BuildingBlock: CIFDUS_clean_linker_0, # of connection points: 2
#     Edge 37, Type (0, 1), BuildingBlock: CIFDUS_clean_linker_0, # of connection points: 2
#     Edge 38, Type (0, 1), BuildingBlock: CIFDUS_clean_linker_0, # of connection points: 2
#     Edge 39, Type (0, 1), BuildingBlock: CIFDUS_clean_linker_0, # of connection points: 2
#     Edge 40, Type (0, 1), BuildingBlock: CIFDUS_clean_linker_0, # of connection points: 2
#     Edge 41, Type (0, 1), BuildingBlock: CIFDUS_clean_linker_0, # of connection points: 2
#     Edge 42, Type (0, 1), BuildingBlock: CIFDUS_clean_linker_0, # of connection points: 2
#     Edge 43, Type (0, 1), BuildingBlock: CIFDUS_clean_linker_0, # of connection points: 2
# Relax obj value: 0.124
# Max RMSD: 0.266
# Mean RMSD: 0.155
data_MOF--net-sqc--node1-VETTIZ_charged_sbu_0--node2-NAWXER_clean_linker_0--edge1-CIFDUS_clean_linker_0
_symmetry_space_group_name_H-M    P1
_symmetry_Int_Tables_number       1
_symmetry_cell_setting            triclinic
loop_
_symmetry_equiv_pos_as_xyz
'x, y, z'
_cell_length_a     25.420558
_cell_length_b     25.33623
_cell_length_c     74.57905
_cell_angle_alpha  89.964153
_cell_angle_beta   90.267697
_cell_angle_gamma 90.275457
loop_
_atom_site_label
_atom_site_type_symbol
_atom_site_fract_x
_atom_site_fract_y
_atom_site_fract_z
_atom_type_partial_charge
C0 C 0.19027 0.95012 0.50759 0.0
C1 C 0.19582 0.89731 0.50207 0.0
C2 C 0.14286 0.96814 0.51458 0.0
C3 C 0.10044 0.93328 0.51719 0.0
C4 C 0.15336 0.86234 0.50471 0.0
C5 C 0.10631 0.88014 0.51223 0.0
C6 C 0.04867 0.95245 0.52359 0.0
C7 C 0.16012 0.00919 0.5684 0.0
C8 C 0.16212 0.06465 0.56988 0.0
C9 C 0.12265 0.98466 0.55731 0.0
C10 C 0.08673 0.01523 0.54748 0.0
C11 C 0.1265 0.09485 0.55976 0.0
C12 C 0.08905 0.07041 0.54882 0.0
C13 C 0.04304 0.99101 0.53719 0.0
C14 C 0.82329 0.98602 0.55877 0.0
C15 C 0.81773 0.03976 0.56311 0.0
C16 C 0.86386 0.96954 0.54752 0.0
C17 C 0.89947 0.00653 0.54051 0.0
C18 C 0.85148 0.07687 0.55508 0.0
C19 C 0.89221 0.06034 0.54402 0.0
C20 C 0.95007 0.98911 0.53314 0.0
C21 C 0.83908 0.95757 0.48733 0.0
C22 C 0.82626 0.9038 0.48498 0.0
C23 C 0.88 0.97298 0.49882 0.0
C24 C 0.90987 0.93512 0.50803 0.0
C25 C 0.85601 0.86605 0.49453 0.0
C26 C 0.89782 0.88154 0.50569 0.0
C27 C 0.95516 0.95177 0.5193 0.0
H28 H 0.22215 0.97823 0.50609 0.0
H29 H 0.13923 0.00984 0.51736 0.0
H30 H 0.15557 0.82165 0.50037 0.0
H31 H 0.07403 0.85248 0.51383 0.0
H32 H 0.18663 0.98469 0.57614 0.0
H33 H 0.12081 0.94197 0.55677 0.0
H34 H 0.12756 0.13756 0.56022 0.0
H35 H 0.06154 0.09475 0.54141 0.0
H36 H 0.79808 0.9564 0.56478 0.0
H37 H 0.86957 0.92769 0.54535 0.0
H38 H 0.84735 0.11867 0.55772 0.0
H39 H 0.91958 0.08945 0.53883 0.0
H40 H 0.81845 0.98801 0.47999 0.0
H41 H 0.88926 0.01458 0.50015 0.0
H42 H 0.84705 0.82436 0.49349 0.0
H43 H 0.92042 0.85166 0.51266 0.0
N44 N 1.00429 0.93446 0.51513 0.0
N45 N 0.99404 0.00738 0.54138 0.0
C46 C 0.27355 0.5896 0.74131 0.0
C47 C 0.25209 0.58026 0.72417 0.0
C48 C 0.2658 0.63769 0.74997 0.0
C49 C 0.23591 0.67756 0.74181 0.0
C50 C 0.22267 0.62045 0.71589 0.0
C51 C 0.21484 0.66873 0.72462 0.0
C52 C 0.2293 0.72934 0.75074 0.0
C53 C 0.14007 0.6207 0.78916 0.0
C54 C 0.16282 0.61839 0.80637 0.0
C55 C 0.15934 0.6562 0.7764 0.0
C56 C 0.20144 0.68986 0.78075 0.0
C57 C 0.2062 0.65076 0.8104 0.0
C58 C 0.22507 0.68645 0.79774 0.0
C59 C 0.21579 0.73423 0.769 0.0
C60 C 0.15966 0.95489 0.78071 0.0
C61 C 0.17814 0.96009 0.79844 0.0
C62 C 0.17809 0.91426 0.76974 0.0
C63 C 0.21486 0.87799 0.77641 0.0
C64 C 0.21749 0.92584 0.80464 0.0
C65 C 0.23529 0.88487 0.79378 0.0
C66 C 0.22401 0.82759 0.76703 0.0
C67 C 0.31654 0.94457 0.73587 0.0
C68 C 0.3003 0.95255 0.71804 0.0
C69 C 0.29601 0.90305 0.74593 0.0
C70 C 0.25853 0.86861 0.73843 0.0
C71 C 0.26354 0.91744 0.71039 0.0
C72 C 0.24303 0.87561 0.72049 0.0
C73 C 0.23898 0.82311 0.7489 0.0
H74 H 0.29782 0.56027 0.74786 0.0
H75 H 0.28435 0.64409 0.76289 0.0
H76 H 0.20566 0.61457 0.7027 0.0
H77 H 0.19217 0.69915 0.71797 0.0
H78 H 0.10688 0.59569 0.78569 0.0
H79 H 0.13992 0.65901 0.76347 0.0
H80 H 0.22422 0.65001 0.82359 0.0
H81 H 0.25719 0.71264 0.8014 0.0
H82 H 0.12958 0.98108 0.77558 0.0
H83 H 0.16107 0.90913 0.7565 0.0
H84 H 0.23219 0.92871 0.81826 0.0
H85 H 0.26324 0.85692 0.79925 0.0
H86 H 0.3459 0.96997 0.74201 0.0
H87 H 0.31043 0.89722 0.75947 0.0
H88 H 0.25019 0.92265 0.69669 0.0
H89 H 0.2148 0.84895 0.71435 0.0
N90 N 0.24062 0.77413 0.74136 0.0
N91 N 0.21343 0.78299 0.77632 0.0
C92 C 0.31461 0.01395 0.98805 0.0
C93 C 0.31369 0.0661 0.98163 0.0
C94 C 0.36123 0.99217 0.99472 0.0
C95 C 0.40766 0.02254 0.99555 0.0
C96 C 0.36047 0.09588 0.98191 0.0
C97 C 0.40692 0.07432 0.9888 0.0
C98 C 0.45729 1.00101 1.00315 0.0
C99 C 0.35292 0.98242 0.05411 0.0
C100 C 0.34177 0.92872 0.05738 0.0
C101 C 0.38839 0.99713 0.04066 0.0
C102 C 0.41327 0.95841 0.03035 0.0
C103 C 0.36496 0.89045 0.04631 0.0
C104 C 0.40083 0.90514 0.03312 0.0
C105 C 0.45917 0.97174 0.01927 0.0
C106 C 0.67694 0.99213 0.04436 0.0
C107 C 0.68375 0.94284 0.05278 0.0
C108 C 0.63599 0.99987 0.03209 0.0
C109 C 0.60103 0.95852 0.02803 0.0
C110 C 0.64941 0.90118 0.04825 0.0
C111 C 0.60816 0.90914 0.03615 0.0
C112 C 0.55256 0.9687 0.01766 0.0
C113 C 0.68622 0.9772 0.97992 0.0
C114 C 0.69289 0.02524 0.97084 0.0
C115 C 0.63955 0.9664 0.98908 0.0
C116 C 0.59928 1.0043 0.98997 0.0
C117 C 0.65145 0.06174 0.97067 0.0
C118 C 0.60509 0.05141 0.98018 0.0
C119 C 0.55117 0.99475 1.00089 0.0
H120 H 0.27942 0.98969 0.98762 0.0
H121 H 0.36091 0.95138 0.99901 0.0
H122 H 0.36093 0.13621 0.97708 0.0
H123 H 0.44217 0.09852 0.98912 0.0
H124 H 0.33614 0.01296 0.06242 0.0
H125 H 0.39851 0.03841 0.03896 0.0
H126 H 0.35627 0.84889 0.04806 0.0
H127 H 0.42017 0.87471 0.02539 0.0
H128 H 0.70216 0.02531 0.04768 0.0
H129 H 0.63028 0.03875 0.02638 0.0
H130 H 0.65412 0.86239 0.05414 0.0
H131 H 0.58122 0.87689 0.03334 0.0
H132 H 0.71742 0.94822 0.98007 0.0
H133 H 0.63538 0.92849 0.99563 0.0
H134 H 0.65582 0.09919 0.96381 0.0
H135 H 0.57447 0.08099 0.98034 0.0
N136 N 0.5035 0.01092 0.99447 0.0
N137 N 0.50659 0.95738 0.0259 0.0
C138 C 0.23589 0.08315 0.23529 0.0
C139 C 0.18468 0.0858 0.22815 0.0
C140 C 0.25711 0.12572 0.24492 0.0
C141 C 0.22695 0.17118 0.24803 0.0
C142 C 0.15502 0.13166 0.23094 0.0
C143 C 0.17591 0.17382 0.24078 0.0
C144 C 0.24853 0.21753 0.25789 0.0
C145 C 0.25524 0.08162 0.29662 0.0
C146 C 0.30697 0.06734 0.30124 0.0
C147 C 0.24527 0.12937 0.28786 0.0
C148 C 0.28686 0.16365 0.28348 0.0
C149 C 0.34849 0.10179 0.29681 0.0
C150 C 0.33845 0.14968 0.28814 0.0
C151 C 0.27682 0.21426 0.27418 0.0
C152 C 0.27882 0.43961 0.30033 0.0
C153 C 0.3246 0.43664 0.3109 0.0
C154 C 0.26636 0.39922 0.28811 0.0
C155 C 0.30012 0.35568 0.28591 0.0
C156 C 0.35892 0.39397 0.30833 0.0
C157 C 0.34685 0.3541 0.29602 0.0
C158 C 0.28459 0.30868 0.27501 0.0
C159 C 0.28286 0.43645 0.23157 0.0
C160 C 0.23432 0.44162 0.22264 0.0
C161 C 0.29029 0.39587 0.24414 0.0
C162 C 0.24898 0.36064 0.24808 0.0
C163 C 0.1926 0.40783 0.22729 0.0
C164 C 0.19991 0.36778 0.2398 0.0
C165 C 0.25785 0.31156 0.25837 0.0
H166 H 0.25996 0.04862 0.23308 0.0
H167 H 0.29732 0.12326 0.24968 0.0
H168 H 0.11537 0.13472 0.22567 0.0
H169 H 0.15196 0.20855 0.2428 0.0
H170 H 0.22244 0.05596 0.29988 0.0
H171 H 0.20504 0.13969 0.28461 0.0
H172 H 0.38864 0.09239 0.3005 0.0
H173 H 0.37104 0.17574 0.28499 0.0
H174 H 0.25137 0.47168 0.3022 0.0
H175 H 0.22907 0.40095 0.28108 0.0
H176 H 0.39469 0.3908 0.3162 0.0
H177 H 0.37355 0.32111 0.29475 0.0
H178 H 0.31555 0.46218 0.22826 0.0
H179 H 0.32885 0.3905 0.25008 0.0
H180 H 0.15437 0.41172 0.22096 0.0
H181 H 0.16748 0.34113 0.2426 0.0
N182 N 0.24051 0.266 0.25069 0.0
N183 N 0.2936 0.25985 0.2821 0.0
C184 C 0.81132 0.06259 0.24973 0.0
C185 C 0.79763 0.05567 0.23155 0.0
C186 C 0.79615 0.10785 0.25903 0.0
C187 C 0.76487 0.14634 0.25065 0.0
C188 C 0.76697 0.09474 0.22314 0.0
C189 C 0.75059 0.13923 0.2326 0.0
C190 C 0.75116 0.1965 0.25977 0.0
C191 C 0.68616 0.07065 0.29756 0.0
C192 C 0.70978 0.07105 0.31469 0.0
C193 C 0.69563 0.1118 0.28537 0.0
C194 C 0.72911 0.15401 0.29002 0.0
C195 C 0.7446 0.11258 0.319 0.0
C196 C 0.75371 0.15372 0.3069 0.0
C197 C 0.73656 0.20022 0.278 0.0
C198 C 0.6815 0.43209 0.28608 0.0
C199 C 0.69976 0.43906 0.3038 0.0
C200 C 0.69134 0.38516 0.27678 0.0
C201 C 0.72141 0.34489 0.28472 0.0
C202 C 0.72831 0.39775 0.31184 0.0
C203 C 0.73922 0.3516 0.3024 0.0
C204 C 0.7326 0.29447 0.27533 0.0
C205 C 0.79909 0.42216 0.23931 0.0
C206 C 0.78264 0.42007 0.22132 0.0
C207 C 0.78761 0.38056 0.25104 0.0
C208 C 0.75765 0.33693 0.24519 0.0
C209 C 0.75349 0.37624 0.21536 0.0
C210 C 0.74089 0.33526 0.2272 0.0
C211 C 0.74744 0.29078 0.25708 0.0
H212 H 0.83427 0.03334 0.25683 0.0
H213 H 0.81016 0.11306 0.27263 0.0
H214 H 0.7566 0.09189 0.20908 0.0
H215 H 0.7274 0.1687 0.22566 0.0
H216 H 0.65855 0.03982 0.29386 0.0
H217 H 0.67554 0.11147 0.27253 0.0
H218 H 0.76417 0.11388 0.33192 0.0
H219 H 0.7798 0.1857 0.31079 0.0
H220 H 0.65956 0.46277 0.27931 0.0
H221 H 0.67524 0.38043 0.26341 0.0
H222 H 0.74159 0.40036 0.32562 0.0
H223 H 0.76161 0.32088 0.30902 0.0
H224 H 0.82274 0.45498 0.24409 0.0
H225 H 0.80327 0.38206 0.26456 0.0
H226 H 0.74091 0.37351 0.20149 0.0
H227 H 0.71852 0.3018 0.22221 0.0
N228 N 0.75567 0.24191 0.25012 0.0
N229 N 0.72817 0.24902 0.28498 0.0
C230 C 0.67869 0.95463 0.75061 0.0
C231 C 0.68429 0.95435 0.73181 0.0
C232 C 0.69715 0.91262 0.76109 0.0
C233 C 0.72353 0.86991 0.75318 0.0
C234 C 0.70828 0.91011 0.72388 0.0
C235 C 0.72772 0.86866 0.73441 0.0
C236 C 0.74562 0.82585 0.76418 0.0
C237 C 0.82986 0.97128 0.78462 0.0
C238 C 0.8271 0.98042 0.80322 0.0
C239 C 0.8112 0.92411 0.77721 0.0
C240 C 0.78747 0.88564 0.78811 0.0
C241 C 0.80293 0.94199 0.81408 0.0
C242 C 0.78335 0.89521 0.8066 0.0
C243 C 0.77194 0.83331 0.78079 0.0
C244 C 0.8492 0.61569 0.80095 0.0
C245 C 0.83227 0.61335 0.81891 0.0
C246 C 0.8333 0.65703 0.78968 0.0
C247 C 0.79933 0.69637 0.79602 0.0
C248 C 0.79957 0.65371 0.82532 0.0
C249 C 0.78348 0.69478 0.81403 0.0
C250 C 0.78027 0.73973 0.78425 0.0
C251 C 0.71919 0.58692 0.7618 0.0
C252 C 0.72235 0.57981 0.74306 0.0
C253 C 0.72812 0.63619 0.7696 0.0
C254 C 0.74516 0.67916 0.75922 0.0
C255 C 0.73785 0.62349 0.73258 0.0
C256 C 0.74963 0.67221 0.74058 0.0
C257 C 0.75566 0.73202 0.76732 0.0
H258 H 0.66087 0.98773 0.7574 0.0
H259 H 0.69111 0.91393 0.77544 0.0
H260 H 0.71207 0.9072 0.70946 0.0
H261 H 0.74675 0.8358 0.72783 0.0
H262 H 0.84753 1.00012 0.77575 0.0
H263 H 0.81665 0.91727 0.76301 0.0
H264 H 0.80089 0.94697 0.82848 0.0
H265 H 0.76598 0.86587 0.81537 0.0
H266 H 0.87529 0.5859 0.79567 0.0
H267 H 0.84718 0.65805 0.77598 0.0
H268 H 0.78559 0.65311 0.83902 0.0
H269 H 0.75766 0.72488 0.8193 0.0
H270 H 0.70897 0.55476 0.77067 0.0
H271 H 0.72101 0.64034 0.78381 0.0
H272 H 0.73965 0.62092 0.71813 0.0
H273 H 0.76163 0.70481 0.7321 0.0
N274 N 0.73934 0.7755 0.75807 0.0
N275 N 0.78728 0.78997 0.79018 0.0
C276 C 0.67202 0.52055 0.98688 0.0
C277 C 0.67851 0.46914 0.98022 0.0
C278 C 0.63169 0.53165 0.99901 0.0
C279 C 0.5976 0.49137 1.00494 0.0
C280 C 0.64501 0.4288 0.98646 0.0
C281 C 0.60487 0.43987 0.99859 0.0
C282 C 0.5508 0.50356 0.01598 0.0
C283 C 0.68829 0.54001 0.05217 0.0
C284 C 0.69575 0.59423 0.0552 0.0
C285 C 0.64186 0.52155 0.0441 0.0
C286 C 0.60193 0.557 0.03914 0.0
C287 C 0.65553 0.62949 0.05039 0.0
C288 C 0.60883 0.61097 0.04262 0.0
C289 C 0.55222 0.53792 0.03089 0.0
C290 C 0.32519 0.54269 0.05518 0.0
C291 C 0.3181 0.5976 0.05625 0.0
C292 C 0.37088 0.52192 0.04756 0.0
C293 C 0.41021 0.55575 0.0409 0.0
C294 C 0.35812 0.63121 0.04994 0.0
C295 C 0.4038 0.61048 0.04246 0.0
C296 C 0.4584 0.53499 0.0324 0.0
C297 C 0.3249 0.48976 0.99469 0.0
C298 C 0.31579 0.43497 0.99454 0.0
C299 C 0.37043 0.51057 1.00266 0.0
C300 C 0.40784 0.4769 1.01045 0.0
C301 C 0.35314 0.40143 1.00247 0.0
C302 C 0.39907 0.42221 1.01016 0.0
C303 C 0.45723 0.49825 0.01818 0.0
H304 H 0.69681 0.55255 0.98219 0.0
H305 H 0.62596 0.57213 1.00318 0.0
H306 H 0.64953 0.38856 0.98185 0.0
H307 H 0.57894 0.40822 1.00283 0.0
H308 H 0.71873 0.51209 0.05575 0.0
H309 H 0.63696 0.47958 0.04185 0.0
H310 H 0.66015 0.67146 0.05273 0.0
H311 H 0.5784 0.63895 0.03907 0.0
H312 H 0.29504 0.51586 0.05995 0.0
H313 H 0.37547 0.4795 0.04687 0.0
H314 H 0.35421 0.67368 0.05087 0.0
H315 H 0.43383 0.63731 0.03758 0.0
H316 H 0.29667 0.51647 0.98871 0.0
H317 H 0.3768 0.55288 1.00252 0.0
H318 H 0.34731 0.35905 1.00239 0.0
H319 H 0.4277 0.39558 0.01597 0.0
N320 N 0.5034 0.48426 1.01044 0.0
N321 N 0.5059 0.55316 0.03829 0.0
C322 C 0.83698 0.53157 0.56528 0.0
C323 C 0.83512 0.4804 0.57253 0.0
C324 C 0.8793 0.54726 0.55442 0.0
C325 C 0.91945 0.51132 0.55008 0.0
C326 C 0.87551 0.44493 0.56846 0.0
C327 C 0.91693 0.46009 0.55732 0.0
C328 C 0.96642 0.52653 0.53925 0.0
C329 C 0.82877 0.56653 0.50258 0.0
C330 C 0.82936 0.61805 0.49559 0.0
C331 C 0.87222 0.54717 0.51211 0.0
C332 C 0.91642 0.57957 0.51528 0.0
C333 C 0.87322 0.65054 0.49892 0.0
C334 C 0.9162 0.63153 0.50868 0.0
C335 C 0.96524 0.55857 0.52361 0.0
C336 C 0.18116 0.52262 0.49289 0.0
C337 C 0.19609 0.5738 0.48753 0.0
C338 C 0.13649 0.51452 0.50346 0.0
C339 C 0.10578 0.55739 0.5091 0.0
C340 C 0.16465 0.61659 0.49294 0.0
C341 C 0.11983 0.60839 0.50349 0.0
C342 C 0.05856 0.54884 0.5205 0.0
C343 C 0.19901 0.5074 0.55447 0.0
C344 C 0.20251 0.45297 0.55784 0.0
C345 C 0.1526 0.52885 0.54747 0.0
C346 C 0.10894 0.49622 0.54386 0.0
C347 C 0.15844 0.42065 0.55451 0.0
C348 C 0.11195 0.44218 0.54774 0.0
C349 C 0.05979 0.51802 0.53624 0.0
H350 H 0.80644 0.55974 0.5684 0.0
H351 H 0.88095 0.58765 0.54972 0.0
H352 H 0.87484 0.40521 0.57386 0.0
H353 H 0.94731 0.43153 0.55441 0.0
H354 H 0.79583 0.54038 0.49989 0.0
H355 H 0.87194 0.50636 0.51642 0.0
H356 H 0.87469 0.69037 0.49364 0.0
H357 H 0.94993 0.65716 0.51074 0.0
H358 H 0.20356 0.48859 0.48868 0.0
H359 H 0.12571 0.47455 0.50712 0.0
H360 H 0.17508 0.65663 0.48926 0.0
H361 H 0.09663 0.64206 0.50755 0.0
H362 H 0.23242 0.53312 0.55693 0.0
H363 H 0.1508 0.57087 0.54486 0.0
H364 H 0.15988 0.37867 0.55722 0.0
H365 H 0.07859 0.41641 0.54521 0.0
N366 N 0.01385 0.50775 0.54483 0.0
N367 N 0.01146 0.56841 0.51494 0.0
Fe368 Fe 0.01296 0.71592 0.1878 0.0
O369 O 0.01233 0.7241 0.16169 0.0
Fe370 Fe 0.94568 0.75699 0.14916 0.0
Fe371 Fe 0.06806 0.76436 0.14869 0.0
O372 O 0.0069 0.72325 0.16159 0.0
O373 O 1.00172 0.79771 0.13637 0.0
O374 O 0.00707 0.79825 0.13639 0.0
Fe375 Fe 1.00331 0.80715 0.11034 0.0
C376 C 0.07675 0.81797 0.18418 0.0
O377 O 0.0752 0.66786 0.18187 0.0
O378 O 0.12502 0.72169 0.1634 0.0
O379 O 0.9489 0.74853 0.10547 0.0
O380 O 0.9447 0.69832 0.12993 0.0
O381 O 0.89549 0.70836 0.16469 0.0
O382 O 0.95262 0.66279 0.18334 0.0
O383 O 0.07166 0.70568 0.12971 0.0
O384 O 0.0634 0.75476 0.10515 0.0
C385 C 0.90725 0.66989 0.17566 0.0
O386 O 0.93923 0.8536 0.11589 0.0
O387 O 0.88935 0.79925 0.13405 0.0
O388 O 0.06891 0.77423 0.19217 0.0
O389 O 0.06743 0.82359 0.16754 0.0
C390 C 0.11865 0.68095 0.1739 0.0
C391 C 0.08081 0.714 0.1132 0.0
C392 C 0.1084 0.85089 0.12216 0.0
O393 O 0.11852 0.81198 0.13311 0.0
O394 O 0.06228 0.86117 0.11549 0.0
C395 C 0.93427 0.70651 0.11342 0.0
O396 O 0.94235 0.81576 0.16798 0.0
O397 O 0.95572 0.77084 0.19338 0.0
C398 C 0.89474 0.83847 0.12278 0.0
C399 C 0.94061 0.81176 0.18494 0.0
Fe400 Fe 0.50189 0.75991 0.41906 0.0
O401 O 0.53284 0.71503 0.39994 0.0
Fe402 Fe 0.47858 0.87828 0.39776 0.0
Fe403 Fe 0.52782 0.63794 0.40119 0.0
O404 O 0.47322 0.80128 0.39856 0.0
O405 O 0.47262 0.80081 0.39674 0.0
O406 O 0.53313 0.71499 0.39805 0.0
Fe407 Fe 0.50283 0.75547 0.37731 0.0
C408 C 0.57542 0.6768 0.43604 0.0
O409 O 0.4346 0.71617 0.41896 0.0
O410 O 0.4696 0.63651 0.42116 0.0
O411 O 0.46613 0.80619 0.35855 0.0
O412 O 0.428 0.87107 0.37612 0.0
O413 O 0.42455 0.87281 0.41793 0.0
O414 O 0.46299 0.81169 0.43671 0.0
O415 O 0.47014 0.62936 0.38226 0.0
O416 O 0.43538 0.70851 0.37647 0.0
C417 C 0.42924 0.84897 0.43323 0.0
O418 O 0.57057 0.80161 0.37551 0.0
O419 O 0.53693 0.88227 0.37916 0.0
O420 O 0.53839 0.71143 0.43844 0.0
O421 O 0.5817 0.64935 0.42154 0.0
C422 C 0.43113 0.66808 0.42339 0.0
C423 C 0.43441 0.6581 0.37542 0.0
C424 C 0.57066 0.66127 0.36369 0.0
O425 O 0.57873 0.64041 0.37946 0.0
O426 O 0.53908 0.70061 0.36023 0.0
C427 C 0.43457 0.84619 0.36102 0.0
O428 O 0.53523 0.88392 0.41811 0.0
O429 O 0.56943 0.80371 0.41954 0.0
C430 C 0.57279 0.8517 0.3736 0.0
C431 C 0.57213 0.8527 0.42275 0.0
Fe432 Fe 0.49549 0.3138 0.68804 0.0
O433 O 0.50898 0.3122 0.66205 0.0
Fe434 Fe 0.44887 0.2776 0.64627 0.0
Fe435 Fe 0.57141 0.27671 0.65106 0.0
O436 O 0.50313 0.31207 0.66184 0.0
O437 O 0.51097 0.24299 0.63516 0.0
O438 O 0.51647 0.24331 0.63533 0.0
Fe439 Fe 0.52008 0.2393 0.60914 0.0
C440 C 0.60728 0.3533 0.6817 0.0
O441 O 0.54665 0.25304 0.69415 0.0
O442 O 0.56556 0.21331 0.6683 0.0
O443 O 0.45886 0.18637 0.6115 0.0
O444 O 0.40019 0.23411 0.6285 0.0
O445 O 0.44175 0.21483 0.66367 0.0
O446 O 0.43451 0.26052 0.6888 0.0
O447 O 0.62882 0.23344 0.63702 0.0
O448 O 0.58073 0.18921 0.61529 0.0
C449 C 0.42768 0.21834 0.67993 0.0
O450 O 0.46244 0.2938 0.60347 0.0
O451 O 0.45274 0.33969 0.62852 0.0
O452 O 0.55994 0.36221 0.68731 0.0
O453 O 0.62009 0.31816 0.66964 0.0
C454 C 0.56234 0.21312 0.68531 0.0
C455 C 0.62302 0.197 0.62477 0.0
C456 C 0.59122 0.33663 0.61682 0.0
O457 O 0.58223 0.33915 0.63361 0.0
O458 O 0.57624 0.29796 0.60711 0.0
C459 C 0.41203 0.1954 0.61767 0.0
O460 O 0.391 0.32167 0.66 0.0
O461 O 0.43876 0.36776 0.68144 0.0
C462 C 0.44529 0.33399 0.61177 0.0
C463 C 0.39704 0.35969 0.67169 0.0
Fe464 Fe 0.97652 0.26737 0.93862 0.0
O465 O 0.97497 0.27208 0.91218 0.0
Fe466 Fe 0.00772 0.34001 0.90016 0.0
Fe467 Fe 0.00778 0.21772 0.89639 0.0
O468 O 0.97492 0.27751 0.91233 0.0
O469 O 0.04237 0.28516 0.8851 0.0
O470 O 0.0424 0.27986 0.88494 0.0
Fe471 Fe 0.04713 0.28867 0.859 0.0
C472 C 0.07332 0.20181 0.92974 0.0
O473 O 0.92465 0.20685 0.93354 0.0
O474 O 0.96462 0.15984 0.91075 0.0
O475 O 0.98974 0.3452 0.85665 0.0
O476 O 0.9452 0.34704 0.88247 0.0
O477 O 0.96511 0.38864 0.918 0.0
O478 O 0.92449 0.32901 0.93713 0.0
O479 O 0.94528 0.22077 0.87866 0.0
O480 O 0.99146 0.23153 0.85361 0.0
C481 C 0.92964 0.37526 0.92982 0.0
O482 O 0.09746 0.35017 0.86517 0.0
O483 O 0.04794 0.39785 0.8854 0.0
O484 O 0.03409 0.20977 0.9399 0.0
O485 O 0.07166 0.21185 0.9131 0.0
C486 C 0.92982 0.1655 0.92346 0.0
C487 C 0.95116 0.21404 0.86185 0.0
C488 C 0.08685 0.17967 0.86739 0.0
O489 O 0.04856 0.16871 0.8784 0.0
O490 O 0.09889 0.22662 0.86168 0.0
C491 C 0.94982 0.35838 0.86585 0.0
O492 O 0.07153 0.33827 0.91702 0.0
O493 O 0.03417 0.32366 0.94346 0.0
C494 C 0.08561 0.39315 0.87372 0.0
C495 C 0.07263 0.33964 0.93401 0.0
H496 H 0.2538 0.95542 0.47876 0.0
H497 H 0.24558 0.80039 0.5027 0.0
H498 H 0.31986 0.77198 0.48438 0.0
H499 H 0.38448 0.79051 0.46019 0.0
H500 H 0.39181 0.94743 0.43767 0.0
H501 H 0.32201 0.97622 0.45746 0.0
C502 C 0.26891 0.91581 0.4805 0.0
C503 C 0.24382 0.88033 0.49221 0.0
C504 C 0.3119 0.90005 0.4702 0.0
C505 C 0.26344 0.82856 0.49363 0.0
C506 C 0.30625 0.81232 0.48325 0.0
C507 C 0.37143 0.83121 0.45993 0.0
C508 C 0.39297 0.86667 0.44739 0.0
C509 C 0.33045 0.84762 0.47129 0.0
C510 C 0.37543 0.9192 0.44706 0.0
C511 C 0.33546 0.93576 0.45835 0.0
H512 H 0.31584 0.05226 0.7298 0.0
H513 H 0.33302 0.95413 0.68297 0.0
H514 H 0.37274 0.02813 0.66668 0.0
H515 H 0.40569 0.12014 0.66628 0.0
H516 H 0.38999 0.21566 0.71396 0.0
H517 H 0.3476 0.14286 0.72941 0.0
C518 C 0.32864 0.04685 0.71607 0.0
C519 C 0.32189 0.99768 0.70767 0.0
C520 C 0.35209 0.08904 0.70695 0.0
C521 C 0.33747 0.99174 0.68972 0.0
C522 C 0.36052 0.03391 0.68044 0.0
C523 C 0.39288 0.12502 0.68003 0.0
C524 C 0.40116 0.17344 0.68889 0.0
C525 C 0.36848 0.08267 0.68899 0.0
C526 C 0.38428 0.17899 0.70674 0.0
C527 C 0.35993 0.13734 0.71564 0.0
H528 H 0.30021 0.12065 0.9506 0.0
H529 H 0.2161 0.06303 0.99676 0.0
H530 H 0.13438 0.10086 0.98509 0.0
H531 H 0.0867 0.14992 0.96158 0.0
H532 H 0.17106 0.20465 0.91496 0.0
H533 H 0.25264 0.16878 0.92705 0.0
C534 C 0.26403 0.11673 0.95815 0.0
C535 C 0.26419 0.08921 0.97453 0.0
C536 C 0.21717 0.13806 0.95127 0.0
C537 C 0.21687 0.08371 0.98405 0.0
C538 C 0.17021 0.10551 0.97742 0.0
C539 C 0.12296 0.15411 0.9541 0.0
C540 C 0.1226 0.17991 0.93737 0.0
C541 C 0.16984 0.13268 0.96101 0.0
C542 C 0.16998 0.18469 0.92781 0.0
C543 C 0.21678 0.16428 0.93472 0.0
H544 H 0.18437 0.9817 0.23698 0.0
H545 H 0.13439 0.09017 0.1958 0.0
H546 H 0.09687 0.01709 0.17846 0.0
H547 H 0.07833 0.92221 0.17499 0.0
H548 H 0.12607 0.81421 0.21674 0.0
H549 H 0.16431 0.88708 0.2338 0.0
C550 C 0.16554 0.98919 0.22415 0.0
C551 C 0.16231 0.04117 0.21765 0.0
C552 C 0.14356 0.94707 0.21436 0.0
C553 C 0.13709 0.05049 0.20114 0.0
C554 C 0.11578 0.00873 0.1912 0.0
C555 C 0.09727 0.91458 0.18779 0.0
C556 C 0.09953 0.86269 0.19449 0.0
C557 C 0.11877 0.95683 0.19767 0.0
C558 C 0.12365 0.85369 0.21123 0.0
C559 C 0.14567 0.89536 0.22101 0.0
H560 H 0.2647 0.03818 0.57539 0.0
H561 H 0.14755 0.1516 0.59114 0.0
H562 H 0.21355 0.2004 0.60835 0.0
H563 H 0.306 0.21407 0.61737 0.0
H564 H 0.4222 0.09925 0.60179 0.0
H565 H 0.35487 0.04741 0.58654 0.0
C566 C 0.25328 0.07297 0.58285 0.0
C567 C 0.20131 0.09141 0.58173 0.0
C568 C 0.29136 0.10081 0.5928 0.0
C569 C 0.18753 0.13704 0.59139 0.0
C570 C 0.22519 0.16487 0.60136 0.0
C571 C 0.31645 0.17731 0.61089 0.0
C572 C 0.36929 0.16109 0.61059 0.0
C573 C 0.27749 0.14765 0.60191 0.0
C574 C 0.38202 0.11325 0.60207 0.0
C575 C 0.34351 0.08343 0.59331 0.0
H576 H 0.22701 0.02867 0.82119 0.0
H577 H 0.0736 0.97501 0.80401 0.0
H578 H 0.03193 0.03385 0.82561 0.0
H579 H 0.03903 0.10265 0.84872 0.0
H580 H 0.1917 0.16203 0.86412 0.0
H581 H 0.23408 0.09787 0.84431 0.0
C582 C 0.18449 0.02989 0.82224 0.0
C583 C 0.1534 0.99786 0.81098 0.0
C584 C 0.16082 0.0642 0.83456 0.0
C585 C 0.09831 0.99996 0.81235 0.0
C586 C 0.07449 0.0332 0.8248 0.0
C587 C 0.0816 0.10055 0.84799 0.0
C588 C 0.11249 0.13586 0.85805 0.0
C589 C 0.10533 0.06555 0.83594 0.0
C590 C 0.16747 0.13437 0.85665 0.0
C591 C 0.19154 0.09811 0.84524 0.0
H592 H 0.25266 0.97675 0.06952 0.0
H593 H 0.35392 0.84351 0.0796 0.0
H594 H 0.29374 0.81122 0.10247 0.0
H595 H 0.20832 0.81618 0.11752 0.0
H596 H 0.10729 0.94949 0.10752 0.0
H597 H 0.17259 0.98744 0.08733 0.0
C598 C 0.26222 0.94125 0.07695 0.0
C599 C 0.30729 0.91213 0.07249 0.0
C600 C 0.22765 0.92302 0.09025 0.0
C601 C 0.31869 0.86597 0.08229 0.0
C602 C 0.28456 0.84767 0.09553 0.0
C603 C 0.20125 0.85431 0.11136 0.0
C604 C 0.15288 0.87977 0.11394 0.0
C605 C 0.23833 0.87523 0.09935 0.0
C606 C 0.14413 0.92891 0.10567 0.0
C607 C 0.18129 0.95049 0.09402 0.0
H608 H 0.38414 0.99405 0.29615 0.0
H609 H 0.25317 0.03204 0.33035 0.0
H610 H 0.27608 0.95949 0.35033 0.0
H611 H 0.33993 0.89371 0.36026 0.0
H612 H 0.47292 0.8566 0.32698 0.0
H613 H 0.44202 0.91929 0.30426 0.0
C614 C 0.36039 0.98601 0.30789 0.0
C615 C 0.31736 0.01881 0.31186 0.0
C616 C 0.37413 0.94437 0.31948 0.0
C617 C 0.28633 0.00738 0.32693 0.0
C618 C 0.29957 0.96603 0.33843 0.0
C619 C 0.36144 0.8984 0.34781 0.0
C620 C 0.40883 0.871 0.34535 0.0
C621 C 0.34424 0.93539 0.33512 0.0
C622 C 0.43612 0.87699 0.32913 0.0
C623 C 0.41882 0.91338 0.31626 0.0
H624 H 0.8291 0.11454 0.58916 0.0
H625 H 0.71695 1.00364 0.56688 0.0
H626 H 0.64961 0.03622 0.58714 0.0
H627 H 0.61996 0.10253 0.60826 0.0
H628 H 0.72837 0.22017 0.62843 0.0
H629 H 0.80036 0.17767 0.61224 0.0
C630 C 0.78985 0.09763 0.58868 0.0
C631 C 0.77788 0.05722 0.5763 0.0
C632 C 0.75085 0.11756 0.60004 0.0
C633 C 0.72732 0.03463 0.57627 0.0
C634 C 0.68871 0.05339 0.5878 0.0
C635 C 0.65949 0.11861 0.60934 0.0
C636 C 0.66865 0.16503 0.61927 0.0
C637 C 0.69973 0.09568 0.59936 0.0
C638 C 0.72025 0.18455 0.62087 0.0
C639 C 0.76123 0.16063 0.61143 0.0
H640 H 0.69251 0.9639 0.31094 0.0
H641 H 0.69129 0.08969 0.35002 0.0
H642 H 0.65878 0.02912 0.37267 0.0
H643 H 0.62013 0.94415 0.38054 0.0
H644 H 0.61536 0.81822 0.3418 0.0
H645 H 0.66174 0.87439 0.32007 0.0
C646 C 0.68543 0.97791 0.32444 0.0
C647 C 0.6944 0.03159 0.32866 0.0
C648 C 0.66576 0.94272 0.33752 0.0
C649 C 0.68559 0.04872 0.34633 0.0
C650 C 0.6666 0.0141 0.35934 0.0
C651 C 0.63061 0.92849 0.36749 0.0
C652 C 0.61438 0.87722 0.36276 0.0
C653 C 0.65537 0.9615 0.35498 0.0
C654 C 0.62807 0.85733 0.34584 0.0
C655 C 0.65381 0.8898 0.33333 0.0
H656 H 0.68013 0.88476 0.08371 0.0
H657 H 0.78375 0.98296 0.05209 0.0
H658 H 0.85532 0.96648 0.07309 0.0
H659 H 0.89077 0.91781 0.09835 0.0
H660 H 0.79087 0.81196 0.1285 0.0
H661 H 0.71535 0.83857 0.11024 0.0
C662 C 0.71844 0.90234 0.08133 0.0
C663 C 0.72647 0.93476 0.06619 0.0
C664 C 0.76006 0.89146 0.09321 0.0
C665 C 0.77608 0.95829 0.06365 0.0
C666 C 0.81722 0.94863 0.07562 0.0
C667 C 0.85246 0.9008 0.10118 0.0
C668 C 0.84691 0.86227 0.1147 0.0
C669 C 0.8099 0.91447 0.09019 0.0
C670 C 0.79656 0.84153 0.11819 0.0
C671 C 0.75339 0.8564 0.10763 0.0
H672 H 0.79491 0.03918 0.8322 0.0
H673 H 0.91892 0.02764 0.79292 0.0
H674 H 0.96406 0.10211 0.80652 0.0
H675 H 0.97189 0.16656 0.83031 0.0
H676 H 0.85371 0.17531 0.87155 0.0
H677 H 0.80301 0.10542 0.85648 0.0
C678 C 0.83188 0.05278 0.82663 0.0
C679 C 0.85294 0.02775 0.81136 0.0
C680 C 0.85886 0.095 0.8349 0.0
C681 C 0.90074 0.0466 0.80431 0.0
C682 C 0.92704 0.08903 0.8122 0.0
C683 C 0.93467 0.15392 0.83597 0.0
C684 C 0.91665 0.17628 0.85208 0.0
C685 C 0.90673 0.11312 0.82755 0.0
C686 C 0.86859 0.15867 0.85921 0.0
C687 C 0.83968 0.11868 0.85061 0.0
H688 H 0.73488 0.95667 0.47661 0.0
H689 H 0.81951 0.81342 0.46452 0.0
H690 H 0.74907 0.78579 0.44444 0.0
H691 H 0.66361 0.80162 0.43018 0.0
H692 H 0.58153 0.94721 0.44046 0.0
H693 H 0.65207 0.97525 0.46078 0.0
C694 C 0.73873 0.91979 0.46941 0.0
C695 C 0.78295 0.88727 0.4724 0.0
C696 C 0.69867 0.90461 0.45734 0.0
C697 C 0.78582 0.83903 0.46304 0.0
C698 C 0.74566 0.82327 0.45132 0.0
C699 C 0.66117 0.8397 0.43676 0.0
C700 C 0.61706 0.87217 0.43379 0.0
C701 C 0.70191 0.85567 0.44838 0.0
C702 C 0.61497 0.92147 0.44239 0.0
C703 C 0.65521 0.93741 0.45412 0.0
H704 H 0.89056 1.00259 0.23569 0.0
H705 H 0.74773 1.00298 0.20397 0.0
H706 H 0.7808 0.93005 0.18613 0.0
H707 H 0.85007 0.86513 0.17958 0.0
H708 H 0.98737 0.85801 0.21358 0.0
H709 H 0.95613 0.93392 0.23075 0.0
C710 C 0.8659 0.98628 0.22516 0.0
C711 C 0.81668 0.00905 0.22123 0.0
C712 C 0.88421 0.94292 0.21533 0.0
C713 C 0.78628 0.98752 0.20715 0.0
C714 C 0.80494 0.94534 0.19698 0.0
C715 C 0.87291 0.88037 0.19078 0.0
C716 C 0.92085 0.85658 0.19536 0.0
C717 C 0.85389 0.92284 0.20091 0.0
C718 C 0.95017 0.87589 0.20995 0.0
C719 C 0.93239 0.91923 0.21971 0.0
H720 H 0.7153 0.05282 0.93627 0.0
H721 H 0.78615 0.02949 0.98828 0.0
H722 H 0.87021 0.06291 0.97713 0.0
H723 H 0.9198 0.10958 0.95375 0.0
H724 H 0.85089 0.13189 0.90152 0.0
H725 H 0.77033 0.08673 0.91127 0.0
C726 C 0.7495 0.05441 0.94501 0.0
C727 C 0.74465 0.03937 0.9631 0.0
C728 C 0.79798 0.07314 0.93842 0.0
C729 C 0.78913 0.04096 0.97431 0.0
C730 C 0.83711 0.06012 0.96796 0.0
C731 C 0.88783 0.10259 0.94434 0.0
C732 C 0.89114 0.1234 0.92693 0.0
C733 C 0.8416 0.07757 0.95018 0.0
C734 C 0.84938 0.11519 0.91487 0.0
C735 C 0.80308 0.09016 0.92056 0.0
H736 H 0.60026 0.02044 0.73757 0.0
H737 H 0.72756 0.99277 0.70058 0.0
H738 H 0.69892 0.06709 0.6824 0.0
H739 H 0.63981 0.14279 0.67739 0.0
H740 H 0.51828 0.17539 0.71591 0.0
H741 H 0.54326 0.09727 0.73317 0.0
C742 C 0.62241 0.03081 0.72569 0.0
C743 C 0.66611 1.00015 0.72059 0.0
C744 C 0.60686 0.07501 0.71552 0.0
C745 C 0.69313 0.01431 0.70481 0.0
C746 C 0.67709 0.05739 0.69441 0.0
C747 C 0.61873 0.13258 0.68953 0.0
C748 C 0.57734 0.1649 0.69538 0.0
C749 C 0.6342 0.08824 0.69967 0.0
C750 C 0.55062 0.15144 0.71121 0.0
C751 C 0.5648 0.10668 0.72107 0.0
H752 H 0.78088 0.50351 0.97887 0.0
H753 H 0.66652 0.40856 0.95037 0.0
H754 H 0.73416 0.37916 0.92969 0.0
H755 H 0.82736 0.37044 0.92243 0.0
H756 H 0.94327 0.46176 0.95115 0.0
H757 H 0.87351 0.50429 0.96859 0.0
C758 C 0.77063 0.47725 0.96792 0.0
C759 C 0.71893 0.45723 0.96645 0.0
C760 C 0.80999 0.46016 0.95605 0.0
C761 C 0.70627 0.42331 0.95214 0.0
C762 C 0.74484 0.40677 0.94021 0.0
C763 C 0.83698 0.40122 0.93204 0.0
C764 C 0.88992 0.41363 0.93544 0.0
C765 C 0.79703 0.42357 0.9424 0.0
C766 C 0.90252 0.45258 0.94812 0.0
C767 C 0.8627 0.47614 0.95826 0.0
H768 H 0.7646 0.5259 0.22277 0.0
H769 H 0.84034 0.4059 0.19129 0.0
H770 H 0.87979 0.47365 0.17214 0.0
H771 H 0.9017 0.56719 0.16692 0.0
H772 H 0.82503 0.68763 0.1978 0.0
H773 H 0.77581 0.61996 0.21435 0.0
C774 C 0.78909 0.51482 0.21153 0.0
C775 C 0.80014 0.46121 0.2085 0.0
C776 C 0.81119 0.55405 0.20046 0.0
C777 C 0.83143 0.44699 0.19383 0.0
C778 C 0.85406 0.48569 0.18292 0.0
C779 C 0.87268 0.57845 0.17682 0.0
C780 C 0.8663 0.63202 0.18106 0.0
C781 C 0.84532 0.53933 0.1864 0.0
C782 C 0.82956 0.64654 0.19411 0.0
C783 C 0.80208 0.60784 0.20374 0.0
H784 H 0.72315 0.61832 0.50138 0.0
H785 H 0.84115 0.65775 0.46216 0.0
H786 H 0.77278 0.68142 0.44057 0.0
H787 H 0.6796 0.68611 0.4322 0.0
H788 H 0.56035 0.65202 0.4714 0.0
H789 H 0.62873 0.63144 0.49375 0.0
C790 C 0.73363 0.63242 0.48813 0.0
C791 C 0.78702 0.636 0.4833 0.0
C792 C 0.69396 0.64675 0.47582 0.0
C793 C 0.80034 0.65488 0.46619 0.0
C794 C 0.76129 0.6682 0.45382 0.0
C795 C 0.66875 0.67448 0.4457 0.0
C796 C 0.61539 0.66982 0.4502 0.0
C797 C 0.70807 0.6636 0.4584 0.0
C798 C 0.60139 0.65571 0.46773 0.0
C799 C 0.64043 0.64376 0.48043 0.0
H800 H 0.75202 0.53624 0.71029 0.0
H801 H 0.65202 0.50673 0.75623 0.0
H802 H 0.62029 0.42695 0.74263 0.0
H803 H 0.60997 0.37183 0.71662 0.0
H804 H 0.69361 0.40718 0.66795 0.0
H805 H 0.74269 0.47772 0.68365 0.0
C806 C 0.72304 0.51285 0.71737 0.0
C807 C 0.70544 0.52857 0.73458 0.0
C808 C 0.70161 0.4677 0.70889 0.0
C809 C 0.66848 0.4961 0.7434 0.0
C810 C 0.64935 0.45022 0.73549 0.0
C811 C 0.63964 0.39442 0.70947 0.0
C812 C 0.64787 0.38481 0.69116 0.0
C813 C 0.66449 0.43654 0.71814 0.0
C814 C 0.68682 0.4137 0.68211 0.0
C815 C 0.71419 0.45448 0.69104 0.0
H816 H 0.74522 0.5637 0.08614 0.0
H817 H 0.75791 0.67098 0.04142 0.0
H818 H 0.83689 0.71035 0.0546 0.0
H819 H 0.89785 0.71885 0.07953 0.0
H820 H 0.88327 0.61703 0.12572 0.0
H821 H 0.81033 0.57006 0.11107 0.0
C822 C 0.76582 0.59527 0.07924 0.0
C823 C 0.74572 0.61473 0.06289 0.0
C824 C 0.81077 0.61858 0.08713 0.0
C825 C 0.77238 0.65583 0.0541 0.0
C826 C 0.81758 0.67821 0.0616 0.0
C827 C 0.87938 0.68596 0.08641 0.0
C828 C 0.89614 0.67179 0.10379 0.0
C829 C 0.83651 0.66056 0.07823 0.0
C830 C 0.87142 0.62887 0.11234 0.0
C831 C 0.82942 0.60221 0.10401 0.0
H832 H 0.61179 0.5016 0.30164 0.0
H833 H 0.76063 0.48792 0.32951 0.0
H834 H 0.73556 0.55865 0.3497 0.0
H835 H 0.66783 0.6184 0.36137 0.0
H836 H 0.52233 0.63717 0.3322 0.0
H837 H 0.55073 0.57197 0.31014 0.0
C838 C 0.63958 0.51476 0.31177 0.0
C839 C 0.68751 0.48783 0.31426 0.0
C840 C 0.6256 0.5567 0.32311 0.0
C841 C 0.72252 0.50603 0.32763 0.0
C842 C 0.70851 0.54703 0.33912 0.0
C843 C 0.64299 0.60906 0.34992 0.0
C844 C 0.5931 0.63227 0.34841 0.0
C845 C 0.65956 0.57161 0.3373 0.0
C846 C 0.56119 0.62016 0.33352 0.0
C847 C 0.57717 0.58244 0.32102 0.0
H848 H 0.7315 0.46999 0.56417 0.0
H849 H 0.84263 0.45057 0.60739 0.0
H850 H 0.77394 0.41162 0.62624 0.0
H851 H 0.68464 0.37415 0.6292 0.0
H852 H 0.57639 0.385 0.58475 0.0
H853 H 0.64063 0.43681 0.56774 0.0
C854 C 0.74017 0.4581 0.57784 0.0
C855 C 0.79177 0.46325 0.58447 0.0
C856 C 0.70088 0.434 0.58835 0.0
C857 C 0.80304 0.44697 0.60208 0.0
C858 C 0.76383 0.42464 0.61282 0.0
C859 C 0.67476 0.38918 0.61598 0.0
C860 C 0.62575 0.3764 0.60828 0.0
C861 C 0.71288 0.41678 0.60596 0.0
C862 C 0.6138 0.39478 0.59096 0.0
C863 C 0.65063 0.42409 0.58121 0.0
H864 H 0.83803 0.5083 0.81106 0.0
H865 H 0.86429 0.61956 0.85398 0.0
H866 H 0.89483 0.54839 0.87348 0.0
H867 H 0.92171 0.45549 0.87751 0.0
H868 H 0.90069 0.34587 0.83391 0.0
H869 H 0.85975 0.41482 0.81567 0.0
C870 C 0.85048 0.51701 0.82468 0.0
C871 C 0.8491 0.56939 0.83096 0.0
C872 C 0.86849 0.4759 0.83579 0.0
C873 C 0.86455 0.57966 0.84878 0.0
C874 C 0.8822 0.53895 0.85995 0.0
C875 C 0.90642 0.44645 0.86425 0.0
C876 C 0.91313 0.39552 0.85715 0.0
C877 C 0.88498 0.48697 0.85355 0.0
C878 C 0.895 0.38462 0.83972 0.0
C879 C 0.8722 0.42418 0.82923 0.0
H880 H 0.26694 0.56911 0.08694 0.0
H881 H 0.25946 0.67726 0.04229 0.0
H882 H 0.18258 0.71959 0.05528 0.0
H883 H 0.12107 0.7294 0.07997 0.0
H884 H 0.12932 0.62396 0.12542 0.0
H885 H 0.20154 0.57635 0.11126 0.0
C886 C 0.24796 0.60147 0.07996 0.0
C887 C 0.26914 0.62031 0.06374 0.0
C888 C 0.20391 0.62605 0.08762 0.0
C889 C 0.24443 0.66257 0.05492 0.0
C890 C 0.20032 0.68663 0.0623 0.0
C891 C 0.13803 0.69557 0.08674 0.0
C892 C 0.11965 0.68046 0.10378 0.0
C893 C 0.18024 0.66923 0.07875 0.0
C894 C 0.14251 0.63655 0.11229 0.0
C895 C 0.18404 0.60941 0.10424 0.0
H896 H 0.21608 0.55277 0.82853 0.0
H897 H 0.05977 0.6066 0.8155 0.0
H898 H 0.02262 0.54742 0.83811 0.0
H899 H 0.03424 0.47485 0.85954 0.0
H900 H 0.18959 0.41541 0.87047 0.0
H901 H 0.22809 0.48384 0.85128 0.0
C902 C 0.17397 0.55195 0.83083 0.0
C903 C 0.1406 0.58349 0.82032 0.0
C904 C 0.15298 0.51744 0.84364 0.0
C905 C 0.08606 0.58187 0.82325 0.0
C906 C 0.06489 0.54846 0.83626 0.0
C907 C 0.07662 0.47826 0.85816 0.0
C908 C 0.10941 0.44127 0.86654 0.0
C909 C 0.09793 0.51549 0.84632 0.0
C910 C 0.16405 0.44437 0.86428 0.0
C911 C 0.18585 0.48294 0.85318 0.0
H912 H 0.26281 0.48527 0.58619 0.0
H913 H 0.25282 0.36742 0.54458 0.0
H914 H 0.33067 0.32363 0.55661 0.0
H915 H 0.3972 0.31515 0.57995 0.0
H916 H 0.40626 0.42968 0.62266 0.0
H917 H 0.33355 0.47899 0.60908 0.0
C918 C 0.27822 0.4504 0.57967 0.0
C919 C 0.252 0.42931 0.56461 0.0
C920 C 0.32262 0.42485 0.58687 0.0
C921 C 0.272 0.38391 0.55633 0.0
C922 C 0.31657 0.359 0.56316 0.0
C923 C 0.38402 0.35137 0.5862 0.0
C924 C 0.40701 0.3685 0.6024 0.0
C925 C 0.34161 0.3786 0.57857 0.0
C926 C 0.38896 0.41539 0.61029 0.0
C927 C 0.34735 0.44353 0.60253 0.0
H928 H 0.32752 0.54534 0.30958 0.0
H929 H 0.34444 0.41309 0.34557 0.0
H930 H 0.37004 0.47237 0.36982 0.0
H931 H 0.39765 0.55947 0.37986 0.0
H932 H 0.38813 0.69259 0.34403 0.0
H933 H 0.34781 0.63607 0.32094 0.0
C934 C 0.33614 0.52982 0.32281 0.0
C935 C 0.33494 0.47476 0.3257 0.0
C936 C 0.35192 0.56436 0.33675 0.0
C937 C 0.34607 0.45512 0.34292 0.0
C938 C 0.36046 0.48903 0.35683 0.0
C939 C 0.38561 0.57649 0.36714 0.0
C940 C 0.39611 0.63011 0.36366 0.0
C941 C 0.36492 0.54341 0.35376 0.0
C942 C 0.38002 0.65159 0.34715 0.0
C943 C 0.35772 0.61902 0.33384 0.0
H944 H 0.27889 0.45562 0.96109 0.0
H945 H 0.24612 0.36387 1.00846 0.0
H946 H 0.1674 0.32673 0.9941 0.0
H947 H 0.10789 0.32038 0.96796 0.0
H948 H 0.14364 0.40915 0.92009 0.0
H949 H 0.22099 0.44736 0.93472 0.0
C950 C 0.25424 0.42775 0.96828 0.0
C951 C 0.26797 0.41274 0.98583 0.0
C952 C 0.20962 0.40597 0.95983 0.0
C953 C 0.23632 0.37589 0.99491 0.0
C954 C 0.1913 0.35477 0.98672 0.0
C955 C 0.13251 0.34827 0.96078 0.0
C956 C 0.11976 0.36214 0.94301 0.0
C957 C 0.17754 0.36952 0.96918 0.0
C958 C 0.15255 0.3977 0.93377 0.0
C959 C 0.19677 0.41971 0.94214 0.0
H960 H 0.27736 0.5655 0.68891 0.0
H961 H 0.25204 0.48102 0.73843 0.0
H962 H 0.28643 0.40069 0.72498 0.0
H963 H 0.33674 0.35889 0.7009 0.0
H964 H 0.36397 0.44279 0.65162 0.0
H965 H 0.31413 0.51836 0.66289 0.0
C966 C 0.27795 0.52918 0.6966 0.0
C967 C 0.26331 0.52968 0.71481 0.0
C968 C 0.2981 0.483 0.68879 0.0
C969 C 0.26445 0.48215 0.72456 0.0
C970 C 0.28387 0.43608 0.71686 0.0
C971 C 0.32977 0.39299 0.6924 0.0
C972 C 0.35322 0.39543 0.67544 0.0
C973 C 0.30268 0.43662 0.69923 0.0
C974 C 0.34526 0.43992 0.66459 0.0
C975 C 0.31746 0.48334 0.67116 0.0
H976 H 0.20905 0.64338 0.4599 0.0
H977 H 0.29151 0.52342 0.48981 0.0
H978 H 0.37007 0.53818 0.4717 0.0
H979 H 0.41726 0.58854 0.44811 0.0
H980 H 0.33451 0.71103 0.41949 0.0
H981 H 0.25492 0.69215 0.43636 0.0
C982 C 0.24427 0.6207 0.46261 0.0
C983 C 0.24405 0.58244 0.4763 0.0
C984 C 0.28962 0.62985 0.4523 0.0
C985 C 0.29004 0.55276 0.47926 0.0
C986 C 0.33523 0.56137 0.46894 0.0
C987 C 0.38156 0.61046 0.44541 0.0
C988 C 0.38202 0.65113 0.43252 0.0
C989 C 0.33568 0.60007 0.45547 0.0
C990 C 0.33548 0.67964 0.42936 0.0
C991 C 0.28982 0.66896 0.43903 0.0
H992 H 0.25873 0.54677 0.22303 0.0
H993 H 0.19149 0.42433 0.1898 0.0
H994 H 0.1596 0.49019 0.16861 0.0
H995 H 0.13545 0.58216 0.16304 0.0
H996 H 0.19843 0.70525 0.19666 0.0
H997 H 0.24896 0.64015 0.21382 0.0
C998 C 0.23845 0.53461 0.21088 0.0
C999 C 0.22615 0.48101 0.2082 0.0
C1000 C 0.21938 0.57292 0.19884 0.0
C1001 C 0.20012 0.46557 0.19236 0.0
C1002 C 0.18201 0.50316 0.18021 0.0
C1003 C 0.16227 0.59474 0.17359 0.0
C1004 C 0.16381 0.64799 0.17859 0.0
C1005 C 0.18918 0.55694 0.18378 0.0
C1006 C 0.19762 0.66432 0.19245 0.0
C1007 C 0.22572 0.62699 0.20244 0.0
loop_
_geom_bond_atom_site_label_1
_geom_bond_atom_site_label_2
_geom_bond_distance
_geom_bond_site_symmetry_2
_ccdc_geom_bond_type
C0 C1 1.384 . S
C0 C2 1.384 1_565 S
C0 H28 0.931 1_565 S
C1 C0 1.384 . S
C1 C4 1.382 . S
C2 C0 1.384 1_545 S
C2 C3 1.381 1_545 S
C2 H29 0.930 . S
C3 C2 1.381 1_565 S
C3 C5 1.381 . S
C3 C6 1.487 . S
C4 C1 1.382 . S
C4 C5 1.387 . S
C4 H30 0.930 . S
C5 C3 1.381 . S
C5 C4 1.387 . S
C5 H31 0.931 . S
C6 C3 1.487 . S
C6 C13 1.399 1_565 S
C6 N44 1.343 . S
C7 C8 1.384 . S
C7 C9 1.384 . S
C7 H32 0.931 . S
C8 C7 1.384 . S
C8 C11 1.382 . S
C9 C7 1.384 . S
C9 C10 1.381 . S
C9 H33 0.930 1_545 S
C10 C9 1.381 . S
C10 C12 1.381 . S
C10 C13 1.487 . S
C11 C8 1.382 . S
C11 C12 1.387 . S
C11 H34 0.930 . S
C12 C10 1.381 . S
C12 C11 1.387 . S
C12 H35 0.931 . S
C13 C6 1.399 1_545 S
C13 C10 1.487 . S
C13 N45 1.343 . S
C14 C15 1.384 . S
C14 C16 1.384 . S
C14 H36 0.931 . S
C15 C14 1.384 . S
C15 C18 1.382 . S
C16 C14 1.384 . S
C16 C17 1.381 . S
C16 H37 0.930 1_545 S
C17 C16 1.381 . S
C17 C19 1.381 . S
C17 C20 1.487 . S
C18 C15 1.382 . S
C18 C19 1.387 . S
C18 H38 0.930 . S
C19 C17 1.381 . S
C19 C18 1.387 . S
C19 H39 0.931 . S
C20 C17 1.487 . S
C20 C27 1.399 1_545 S
C20 N45 1.343 1_655 S
C21 C22 1.384 . S
C21 C23 1.384 1_565 S
C21 H40 0.931 1_565 S
C22 C21 1.384 . S
C22 C25 1.382 . S
C23 C21 1.384 1_545 S
C23 C24 1.381 1_545 S
C23 H41 0.930 . S
C24 C23 1.381 1_565 S
C24 C26 1.381 . S
C24 C27 1.487 . S
C25 C22 1.382 . S
C25 C26 1.387 . S
C25 H42 0.930 . S
C26 C24 1.381 . S
C26 C25 1.387 . S
C26 H43 0.931 . S
C27 C20 1.399 1_565 S
C27 C24 1.487 . S
C27 N44 1.343 1_655 S
H28 C0 0.931 1_545 S
H29 C2 0.930 . S
H30 C4 0.930 . S
H31 C5 0.931 . S
H32 C7 0.931 . S
H33 C9 0.930 1_565 S
H34 C11 0.930 . S
H35 C12 0.931 . S
H36 C14 0.931 . S
H37 C16 0.930 1_565 S
H38 C18 0.930 . S
H39 C19 0.931 . S
H40 C21 0.931 1_545 S
H41 C23 0.930 . S
H42 C25 0.930 . S
H43 C26 0.931 . S
N44 C6 1.343 . S
N44 C27 1.343 1_455 S
N45 C13 1.343 . S
N45 C20 1.343 1_455 S
C46 C47 1.384 . S
C46 C48 1.384 . S
C46 H74 0.931 . S
C47 C46 1.384 . S
C47 C50 1.382 . S
C48 C46 1.384 . S
C48 C49 1.381 . S
C48 H75 0.930 . S
C49 C48 1.381 . S
C49 C51 1.381 . S
C49 C52 1.487 . S
C50 C47 1.382 . S
C50 C51 1.387 . S
C50 H76 0.930 . S
C51 C49 1.381 . S
C51 C50 1.387 . S
C51 H77 0.931 . S
C52 C49 1.487 . S
C52 C59 1.399 . S
C52 N90 1.343 . S
C53 C54 1.384 . S
C53 C55 1.384 . S
C53 H78 0.931 . S
C54 C53 1.384 . S
C54 C57 1.382 . S
C55 C53 1.384 . S
C55 C56 1.381 . S
C55 H79 0.930 . S
C56 C55 1.381 . S
C56 C58 1.381 . S
C56 C59 1.487 . S
C57 C54 1.382 . S
C57 C58 1.387 . S
C57 H80 0.930 . S
C58 C56 1.381 . S
C58 C57 1.387 . S
C58 H81 0.931 . S
C59 C52 1.399 . S
C59 C56 1.487 . S
C59 N91 1.343 . S
C60 C61 1.384 . S
C60 C62 1.384 . S
C60 H82 0.931 . S
C61 C60 1.384 . S
C61 C64 1.382 . S
C62 C60 1.384 . S
C62 C63 1.381 . S
C62 H83 0.930 . S
C63 C62 1.381 . S
C63 C65 1.381 . S
C63 C66 1.487 . S
C64 C61 1.382 . S
C64 C65 1.387 . S
C64 H84 0.930 . S
C65 C63 1.381 . S
C65 C64 1.387 . S
C65 H85 0.931 . S
C66 C63 1.487 . S
C66 C73 1.399 . S
C66 N91 1.343 . S
C67 C68 1.384 . S
C67 C69 1.384 . S
C67 H86 0.931 . S
C68 C67 1.384 . S
C68 C71 1.382 . S
C69 C67 1.384 . S
C69 C70 1.381 . S
C69 H87 0.930 . S
C70 C69 1.381 . S
C70 C72 1.381 . S
C70 C73 1.487 . S
C71 C68 1.382 . S
C71 C72 1.387 . S
C71 H88 0.930 . S
C72 C70 1.381 . S
C72 C71 1.387 . S
C72 H89 0.931 . S
C73 C66 1.399 . S
C73 C70 1.487 . S
C73 N90 1.343 . S
H74 C46 0.931 . S
H75 C48 0.930 . S
H76 C50 0.930 . S
H77 C51 0.931 . S
H78 C53 0.931 . S
H79 C55 0.930 . S
H80 C57 0.930 . S
H81 C58 0.931 . S
H82 C60 0.931 . S
H83 C62 0.930 . S
H84 C64 0.930 . S
H85 C65 0.931 . S
H86 C67 0.931 . S
H87 C69 0.930 . S
H88 C71 0.930 . S
H89 C72 0.931 . S
N90 C52 1.343 . S
N90 C73 1.343 . S
N91 C59 1.343 . S
N91 C66 1.343 . S
C92 C93 1.384 . S
C92 C94 1.384 . S
C92 H120 0.931 1_545 S
C93 C92 1.384 . S
C93 C96 1.382 . S
C94 C92 1.384 . S
C94 C95 1.381 . S
C94 H121 0.930 1_545 S
C95 C94 1.381 . S
C95 C97 1.381 . S
C95 C98 1.487 1_556 S
C96 C93 1.382 . S
C96 C97 1.387 . S
C96 H122 0.930 . S
C97 C95 1.381 . S
C97 C96 1.387 . S
C97 H123 0.931 . S
C98 C95 1.487 1_554 S
C98 C105 1.399 1_545 S
C98 N136 1.343 1_554 S
C99 C100 1.384 . S
C99 C101 1.384 . S
C99 H124 0.931 1_565 S
C100 C99 1.384 . S
C100 C103 1.382 . S
C101 C99 1.384 . S
C101 C102 1.381 . S
C101 H125 0.930 1_565 S
C102 C101 1.381 . S
C102 C104 1.381 . S
C102 C105 1.487 . S
C103 C100 1.382 . S
C103 C104 1.387 . S
C103 H126 0.930 . S
C104 C102 1.381 . S
C104 C103 1.387 . S
C104 H127 0.931 . S
C105 C98 1.399 1_565 S
C105 C102 1.487 . S
C105 N137 1.343 . S
C106 C107 1.384 . S
C106 C108 1.384 . S
C106 H128 0.931 1_565 S
C107 C106 1.384 . S
C107 C110 1.382 . S
C108 C106 1.384 . S
C108 C109 1.381 . S
C108 H129 0.930 1_565 S
C109 C108 1.381 . S
C109 C111 1.381 . S
C109 C112 1.487 . S
C110 C107 1.382 . S
C110 C111 1.387 . S
C110 H130 0.930 . S
C111 C109 1.381 . S
C111 C110 1.387 . S
C111 H131 0.931 . S
C112 C109 1.487 . S
C112 C119 1.399 1_565 S
C112 N137 1.343 . S
C113 C114 1.384 . S
C113 C115 1.384 . S
C113 H132 0.931 1_545 S
C114 C113 1.384 . S
C114 C117 1.382 . S
C115 C113 1.384 . S
C115 C116 1.381 . S
C115 H133 0.930 1_545 S
C116 C115 1.381 . S
C116 C118 1.381 . S
C116 C119 1.487 1_556 S
C117 C114 1.382 . S
C117 C118 1.387 . S
C117 H134 0.930 . S
C118 C116 1.381 . S
C118 C117 1.387 . S
C118 H135 0.931 . S
C119 C112 1.399 1_545 S
C119 C116 1.487 1_554 S
C119 N136 1.343 1_554 S
H120 C92 0.931 1_565 S
H121 C94 0.930 1_565 S
H122 C96 0.930 . S
H123 C97 0.931 . S
H124 C99 0.931 1_545 S
H125 C101 0.930 1_545 S
H126 C103 0.930 . S
H127 C104 0.931 . S
H128 C106 0.931 1_545 S
H129 C108 0.930 1_545 S
H130 C110 0.930 . S
H131 C111 0.931 . S
H132 C113 0.931 1_565 S
H133 C115 0.930 1_565 S
H134 C117 0.930 . S
H135 C118 0.931 . S
N136 C98 1.343 1_556 S
N136 C119 1.343 1_556 S
N137 C105 1.343 . S
N137 C112 1.343 . S
C138 C139 1.384 . S
C138 C140 1.384 . S
C138 H166 0.931 . S
C139 C138 1.384 . S
C139 C142 1.382 . S
C140 C138 1.384 . S
C140 C141 1.381 . S
C140 H167 0.930 . S
C141 C140 1.381 . S
C141 C143 1.381 . S
C141 C144 1.487 . S
C142 C139 1.382 . S
C142 C143 1.387 . S
C142 H168 0.930 . S
C143 C141 1.381 . S
C143 C142 1.387 . S
C143 H169 0.931 . S
C144 C141 1.487 . S
C144 C151 1.399 . S
C144 N182 1.343 . S
C145 C146 1.384 . S
C145 C147 1.384 . S
C145 H170 0.931 . S
C146 C145 1.384 . S
C146 C149 1.382 . S
C147 C145 1.384 . S
C147 C148 1.381 . S
C147 H171 0.930 . S
C148 C147 1.381 . S
C148 C150 1.381 . S
C148 C151 1.487 . S
C149 C146 1.382 . S
C149 C150 1.387 . S
C149 H172 0.930 . S
C150 C148 1.381 . S
C150 C149 1.387 . S
C150 H173 0.931 . S
C151 C144 1.399 . S
C151 C148 1.487 . S
C151 N183 1.343 . S
C152 C153 1.384 . S
C152 C154 1.384 . S
C152 H174 0.931 . S
C153 C152 1.384 . S
C153 C156 1.382 . S
C154 C152 1.384 . S
C154 C155 1.381 . S
C154 H175 0.930 . S
C155 C154 1.381 . S
C155 C157 1.381 . S
C155 C158 1.487 . S
C156 C153 1.382 . S
C156 C157 1.387 . S
C156 H176 0.930 . S
C157 C155 1.381 . S
C157 C156 1.387 . S
C157 H177 0.931 . S
C158 C155 1.487 . S
C158 C165 1.399 . S
C158 N183 1.343 . S
C159 C160 1.384 . S
C159 C161 1.384 . S
C159 H178 0.931 . S
C160 C159 1.384 . S
C160 C163 1.382 . S
C161 C159 1.384 . S
C161 C162 1.381 . S
C161 H179 0.930 . S
C162 C161 1.381 . S
C162 C164 1.381 . S
C162 C165 1.487 . S
C163 C160 1.382 . S
C163 C164 1.387 . S
C163 H180 0.930 . S
C164 C162 1.381 . S
C164 C163 1.387 . S
C164 H181 0.931 . S
C165 C158 1.399 . S
C165 C162 1.487 . S
C165 N182 1.343 . S
H166 C138 0.931 . S
H167 C140 0.930 . S
H168 C142 0.930 . S
H169 C143 0.931 . S
H170 C145 0.931 . S
H171 C147 0.930 . S
H172 C149 0.930 . S
H173 C150 0.931 . S
H174 C152 0.931 . S
H175 C154 0.930 . S
H176 C156 0.930 . S
H177 C157 0.931 . S
H178 C159 0.931 . S
H179 C161 0.930 . S
H180 C163 0.930 . S
H181 C164 0.931 . S
N182 C144 1.343 . S
N182 C165 1.343 . S
N183 C151 1.343 . S
N183 C158 1.343 . S
C184 C185 1.384 . S
C184 C186 1.384 . S
C184 H212 0.931 . S
C185 C184 1.384 . S
C185 C188 1.382 . S
C186 C184 1.384 . S
C186 C187 1.381 . S
C186 H213 0.930 . S
C187 C186 1.381 . S
C187 C189 1.381 . S
C187 C190 1.487 . S
C188 C185 1.382 . S
C188 C189 1.387 . S
C188 H214 0.930 . S
C189 C187 1.381 . S
C189 C188 1.387 . S
C189 H215 0.931 . S
C190 C187 1.487 . S
C190 C197 1.399 . S
C190 N228 1.343 . S
C191 C192 1.384 . S
C191 C193 1.384 . S
C191 H216 0.931 . S
C192 C191 1.384 . S
C192 C195 1.382 . S
C193 C191 1.384 . S
C193 C194 1.381 . S
C193 H217 0.930 . S
C194 C193 1.381 . S
C194 C196 1.381 . S
C194 C197 1.487 . S
C195 C192 1.382 . S
C195 C196 1.387 . S
C195 H218 0.930 . S
C196 C194 1.381 . S
C196 C195 1.387 . S
C196 H219 0.931 . S
C197 C190 1.399 . S
C197 C194 1.487 . S
C197 N229 1.343 . S
C198 C199 1.384 . S
C198 C200 1.384 . S
C198 H220 0.931 . S
C199 C198 1.384 . S
C199 C202 1.382 . S
C200 C198 1.384 . S
C200 C201 1.381 . S
C200 H221 0.930 . S
C201 C200 1.381 . S
C201 C203 1.381 . S
C201 C204 1.487 . S
C202 C199 1.382 . S
C202 C203 1.387 . S
C202 H222 0.930 . S
C203 C201 1.381 . S
C203 C202 1.387 . S
C203 H223 0.931 . S
C204 C201 1.487 . S
C204 C211 1.399 . S
C204 N229 1.343 . S
C205 C206 1.384 . S
C205 C207 1.384 . S
C205 H224 0.931 . S
C206 C205 1.384 . S
C206 C209 1.382 . S
C207 C205 1.384 . S
C207 C208 1.381 . S
C207 H225 0.930 . S
C208 C207 1.381 . S
C208 C210 1.381 . S
C208 C211 1.487 . S
C209 C206 1.382 . S
C209 C210 1.387 . S
C209 H226 0.930 . S
C210 C208 1.381 . S
C210 C209 1.387 . S
C210 H227 0.931 . S
C211 C204 1.399 . S
C211 C208 1.487 . S
C211 N228 1.343 . S
H212 C184 0.931 . S
H213 C186 0.930 . S
H214 C188 0.930 . S
H215 C189 0.931 . S
H216 C191 0.931 . S
H217 C193 0.930 . S
H218 C195 0.930 . S
H219 C196 0.931 . S
H220 C198 0.931 . S
H221 C200 0.930 . S
H222 C202 0.930 . S
H223 C203 0.931 . S
H224 C205 0.931 . S
H225 C207 0.930 . S
H226 C209 0.930 . S
H227 C210 0.931 . S
N228 C190 1.343 . S
N228 C211 1.343 . S
N229 C197 1.343 . S
N229 C204 1.343 . S
C230 C231 1.384 . S
C230 C232 1.384 . S
C230 H258 0.931 . S
C231 C230 1.384 . S
C231 C234 1.382 . S
C232 C230 1.384 . S
C232 C233 1.381 . S
C232 H259 0.930 . S
C233 C232 1.381 . S
C233 C235 1.381 . S
C233 C236 1.487 . S
C234 C231 1.382 . S
C234 C235 1.387 . S
C234 H260 0.930 . S
C235 C233 1.381 . S
C235 C234 1.387 . S
C235 H261 0.931 . S
C236 C233 1.487 . S
C236 C243 1.399 . S
C236 N274 1.343 . S
C237 C238 1.384 . S
C237 C239 1.384 . S
C237 H262 0.931 . S
C238 C237 1.384 . S
C238 C241 1.382 . S
C239 C237 1.384 . S
C239 C240 1.381 . S
C239 H263 0.930 . S
C240 C239 1.381 . S
C240 C242 1.381 . S
C240 C243 1.487 . S
C241 C238 1.382 . S
C241 C242 1.387 . S
C241 H264 0.930 . S
C242 C240 1.381 . S
C242 C241 1.387 . S
C242 H265 0.931 . S
C243 C236 1.399 . S
C243 C240 1.487 . S
C243 N275 1.343 . S
C244 C245 1.384 . S
C244 C246 1.384 . S
C244 H266 0.931 . S
C245 C244 1.384 . S
C245 C248 1.382 . S
C246 C244 1.384 . S
C246 C247 1.381 . S
C246 H267 0.930 . S
C247 C246 1.381 . S
C247 C249 1.381 . S
C247 C250 1.487 . S
C248 C245 1.382 . S
C248 C249 1.387 . S
C248 H268 0.930 . S
C249 C247 1.381 . S
C249 C248 1.387 . S
C249 H269 0.931 . S
C250 C247 1.487 . S
C250 C257 1.399 . S
C250 N275 1.343 . S
C251 C252 1.384 . S
C251 C253 1.384 . S
C251 H270 0.931 . S
C252 C251 1.384 . S
C252 C255 1.382 . S
C253 C251 1.384 . S
C253 C254 1.381 . S
C253 H271 0.930 . S
C254 C253 1.381 . S
C254 C256 1.381 . S
C254 C257 1.487 . S
C255 C252 1.382 . S
C255 C256 1.387 . S
C255 H272 0.930 . S
C256 C254 1.381 . S
C256 C255 1.387 . S
C256 H273 0.931 . S
C257 C250 1.399 . S
C257 C254 1.487 . S
C257 N274 1.343 . S
H258 C230 0.931 . S
H259 C232 0.930 . S
H260 C234 0.930 . S
H261 C235 0.931 . S
H262 C237 0.931 . S
H263 C239 0.930 . S
H264 C241 0.930 . S
H265 C242 0.931 . S
H266 C244 0.931 . S
H267 C246 0.930 . S
H268 C248 0.930 . S
H269 C249 0.931 . S
H270 C251 0.931 . S
H271 C253 0.930 . S
H272 C255 0.930 . S
H273 C256 0.931 . S
N274 C236 1.343 . S
N274 C257 1.343 . S
N275 C243 1.343 . S
N275 C250 1.343 . S
C276 C277 1.384 . S
C276 C278 1.384 . S
C276 H304 0.931 . S
C277 C276 1.384 . S
C277 C280 1.382 . S
C278 C276 1.384 . S
C278 C279 1.381 . S
C278 H305 0.930 . S
C279 C278 1.381 . S
C279 C281 1.381 . S
C279 C282 1.487 1_556 S
C280 C277 1.382 . S
C280 C281 1.387 . S
C280 H306 0.930 . S
C281 C279 1.381 . S
C281 C280 1.387 . S
C281 H307 0.931 . S
C282 C279 1.487 1_554 S
C282 C289 1.399 . S
C282 N320 1.343 1_554 S
C283 C284 1.384 . S
C283 C285 1.384 . S
C283 H308 0.931 . S
C284 C283 1.384 . S
C284 C287 1.382 . S
C285 C283 1.384 . S
C285 C286 1.381 . S
C285 H309 0.930 . S
C286 C285 1.381 . S
C286 C288 1.381 . S
C286 C289 1.487 . S
C287 C284 1.382 . S
C287 C288 1.387 . S
C287 H310 0.930 . S
C288 C286 1.381 . S
C288 C287 1.387 . S
C288 H311 0.931 . S
C289 C282 1.399 . S
C289 C286 1.487 . S
C289 N321 1.343 . S
C290 C291 1.384 . S
C290 C292 1.384 . S
C290 H312 0.931 . S
C291 C290 1.384 . S
C291 C294 1.382 . S
C292 C290 1.384 . S
C292 C293 1.381 . S
C292 H313 0.930 . S
C293 C292 1.381 . S
C293 C295 1.381 . S
C293 C296 1.487 . S
C294 C291 1.382 . S
C294 C295 1.387 . S
C294 H314 0.930 . S
C295 C293 1.381 . S
C295 C294 1.387 . S
C295 H315 0.931 . S
C296 C293 1.487 . S
C296 C303 1.399 . S
C296 N321 1.343 . S
C297 C298 1.384 . S
C297 C299 1.384 . S
C297 H316 0.931 . S
C298 C297 1.384 . S
C298 C301 1.382 . S
C299 C297 1.384 . S
C299 C300 1.381 . S
C299 H317 0.930 . S
C300 C299 1.381 . S
C300 C302 1.381 . S
C300 C303 1.487 1_556 S
C301 C298 1.382 . S
C301 C302 1.387 . S
C301 H318 0.930 . S
C302 C300 1.381 . S
C302 C301 1.387 . S
C302 H319 0.931 . S
C303 C296 1.399 . S
C303 C300 1.487 1_554 S
C303 N320 1.343 1_554 S
H304 C276 0.931 . S
H305 C278 0.930 . S
H306 C280 0.930 . S
H307 C281 0.931 . S
H308 C283 0.931 . S
H309 C285 0.930 . S
H310 C287 0.930 . S
H311 C288 0.931 . S
H312 C290 0.931 . S
H313 C292 0.930 . S
H314 C294 0.930 . S
H315 C295 0.931 . S
H316 C297 0.931 . S
H317 C299 0.930 . S
H318 C301 0.930 . S
H319 C302 0.931 . S
N320 C282 1.343 1_556 S
N320 C303 1.343 1_556 S
N321 C289 1.343 . S
N321 C296 1.343 . S
C322 C323 1.384 . S
C322 C324 1.384 . S
C322 H350 0.931 . S
C323 C322 1.384 . S
C323 C326 1.382 . S
C324 C322 1.384 . S
C324 C325 1.381 . S
C324 H351 0.930 . S
C325 C324 1.381 . S
C325 C327 1.381 . S
C325 C328 1.487 . S
C326 C323 1.382 . S
C326 C327 1.387 . S
C326 H352 0.930 . S
C327 C325 1.381 . S
C327 C326 1.387 . S
C327 H353 0.931 . S
C328 C325 1.487 . S
C328 C335 1.399 . S
C328 N366 1.343 1_655 S
C329 C330 1.384 . S
C329 C331 1.384 . S
C329 H354 0.931 . S
C330 C329 1.384 . S
C330 C333 1.382 . S
C331 C329 1.384 . S
C331 C332 1.381 . S
C331 H355 0.930 . S
C332 C331 1.381 . S
C332 C334 1.381 . S
C332 C335 1.487 . S
C333 C330 1.382 . S
C333 C334 1.387 . S
C333 H356 0.930 . S
C334 C332 1.381 . S
C334 C333 1.387 . S
C334 H357 0.931 . S
C335 C328 1.399 . S
C335 C332 1.487 . S
C335 N367 1.343 1_655 S
C336 C337 1.384 . S
C336 C338 1.384 . S
C336 H358 0.931 . S
C337 C336 1.384 . S
C337 C340 1.382 . S
C338 C336 1.384 . S
C338 C339 1.381 . S
C338 H359 0.930 . S
C339 C338 1.381 . S
C339 C341 1.381 . S
C339 C342 1.487 . S
C340 C337 1.382 . S
C340 C341 1.387 . S
C340 H360 0.930 . S
C341 C339 1.381 . S
C341 C340 1.387 . S
C341 H361 0.931 . S
C342 C339 1.487 . S
C342 C349 1.399 . S
C342 N367 1.343 . S
C343 C344 1.384 . S
C343 C345 1.384 . S
C343 H362 0.931 . S
C344 C343 1.384 . S
C344 C347 1.382 . S
C345 C343 1.384 . S
C345 C346 1.381 . S
C345 H363 0.930 . S
C346 C345 1.381 . S
C346 C348 1.381 . S
C346 C349 1.487 . S
C347 C344 1.382 . S
C347 C348 1.387 . S
C347 H364 0.930 . S
C348 C346 1.381 . S
C348 C347 1.387 . S
C348 H365 0.931 . S
C349 C342 1.399 . S
C349 C346 1.487 . S
C349 N366 1.343 . S
H350 C322 0.931 . S
H351 C324 0.930 . S
H352 C326 0.930 . S
H353 C327 0.931 . S
H354 C329 0.931 . S
H355 C331 0.930 . S
H356 C333 0.930 . S
H357 C334 0.931 . S
H358 C336 0.931 . S
H359 C338 0.930 . S
H360 C340 0.930 . S
H361 C341 0.931 . S
H362 C343 0.931 . S
H363 C345 0.930 . S
H364 C347 0.930 . S
H365 C348 0.931 . S
N366 C328 1.343 1_455 S
N366 C349 1.343 . S
N367 C335 1.343 1_455 S
N367 C342 1.343 . S
Fe368 O369 1.886 . S
Fe368 O372 1.715 1_455 S
Fe368 O377 2.077 . S
Fe368 O382 1.935 1_455 S
Fe368 O388 2.077 . S
Fe368 O397 1.935 1_455 S
O369 Fe368 1.886 . S
O369 Fe371 1.715 . S
Fe370 O372 1.886 . S
Fe370 O373 1.715 . S
Fe370 O380 1.935 . S
Fe370 O381 2.077 . S
Fe370 O387 1.935 . S
Fe370 O396 2.077 . S
Fe371 O369 1.715 . S
Fe371 O374 1.886 . S
Fe371 O378 1.935 . S
Fe371 O383 2.077 . S
Fe371 O389 1.935 . S
Fe371 O393 2.077 . S
O372 Fe368 1.715 1_655 S
O372 Fe370 1.886 . S
O373 Fe370 1.715 . S
O373 Fe375 1.886 . S
O374 Fe371 1.886 . S
O374 Fe375 1.715 1_455 S
Fe375 O373 1.886 . S
Fe375 O374 1.715 1_655 S
Fe375 O379 2.077 . S
Fe375 O384 1.935 1_655 S
Fe375 O386 2.077 . S
Fe375 O394 1.935 1_655 S
C376 O388 1.381 . S
C376 O389 1.421 . S
O377 Fe368 2.077 . S
O377 C390 1.381 . S
O378 Fe371 1.935 . S
O378 C390 1.421 . S
O379 Fe375 2.077 . S
O379 C395 1.381 . S
O380 Fe370 1.935 . S
O380 C395 1.421 . S
O381 Fe370 2.077 . S
O381 C385 1.381 . S
O382 Fe368 1.935 1_655 S
O382 C385 1.421 . S
O383 Fe371 2.077 . S
O383 C391 1.381 . S
O384 Fe375 1.935 1_455 S
O384 C391 1.421 . S
C385 O381 1.381 . S
C385 O382 1.421 . S
O386 Fe375 2.077 . S
O386 C398 1.381 . S
O387 Fe370 1.935 . S
O387 C398 1.421 . S
O388 Fe368 2.077 . S
O388 C376 1.381 . S
O389 Fe371 1.935 . S
O389 C376 1.421 . S
C390 O377 1.381 . S
C390 O378 1.421 . S
C391 O383 1.381 . S
C391 O384 1.421 . S
C392 O393 1.381 . S
C392 O394 1.421 . S
O393 Fe371 2.077 . S
O393 C392 1.381 . S
O394 Fe375 1.935 1_455 S
O394 C392 1.421 . S
C395 O379 1.381 . S
C395 O380 1.421 . S
O396 Fe370 2.077 . S
O396 C399 1.381 . S
O397 Fe368 1.935 1_655 S
O397 C399 1.421 . S
C398 O386 1.381 . S
C398 O387 1.421 . S
C399 O396 1.381 . S
C399 O397 1.421 . S
Fe400 O401 1.886 . S
Fe400 O404 1.715 . S
Fe400 O409 2.077 . S
Fe400 O414 1.935 . S
Fe400 O420 2.077 . S
Fe400 O429 1.935 . S
O401 Fe400 1.886 . S
O401 Fe403 1.715 . S
Fe402 O404 1.886 . S
Fe402 O405 1.715 . S
Fe402 O412 1.935 . S
Fe402 O413 2.077 . S
Fe402 O419 1.935 . S
Fe402 O428 2.077 . S
Fe403 O401 1.715 . S
Fe403 O406 1.886 . S
Fe403 O410 1.935 . S
Fe403 O415 2.077 . S
Fe403 O421 1.935 . S
Fe403 O425 2.077 . S
O404 Fe400 1.715 . S
O404 Fe402 1.886 . S
O405 Fe402 1.715 . S
O405 Fe407 1.886 . S
O406 Fe403 1.886 . S
O406 Fe407 1.715 . S
Fe407 O405 1.886 . S
Fe407 O406 1.715 . S
Fe407 O411 2.077 . S
Fe407 O416 1.935 . S
Fe407 O418 2.077 . S
Fe407 O426 1.935 . S
C408 O420 1.381 . S
C408 O421 1.421 . S
O409 Fe400 2.077 . S
O409 C422 1.381 . S
O410 Fe403 1.935 . S
O410 C422 1.421 . S
O411 Fe407 2.077 . S
O411 C427 1.381 . S
O412 Fe402 1.935 . S
O412 C427 1.421 . S
O413 Fe402 2.077 . S
O413 C417 1.381 . S
O414 Fe400 1.935 . S
O414 C417 1.421 . S
O415 Fe403 2.077 . S
O415 C423 1.381 . S
O416 Fe407 1.935 . S
O416 C423 1.421 . S
C417 O413 1.381 . S
C417 O414 1.421 . S
O418 Fe407 2.077 . S
O418 C430 1.381 . S
O419 Fe402 1.935 . S
O419 C430 1.421 . S
O420 Fe400 2.077 . S
O420 C408 1.381 . S
O421 Fe403 1.935 . S
O421 C408 1.421 . S
C422 O409 1.381 . S
C422 O410 1.421 . S
C423 O415 1.381 . S
C423 O416 1.421 . S
C424 O425 1.381 . S
C424 O426 1.421 . S
O425 Fe403 2.077 . S
O425 C424 1.381 . S
O426 Fe407 1.935 . S
O426 C424 1.421 . S
C427 O411 1.381 . S
C427 O412 1.421 . S
O428 Fe402 2.077 . S
O428 C431 1.381 . S
O429 Fe400 1.935 . S
O429 C431 1.421 . S
C430 O418 1.381 . S
C430 O419 1.421 . S
C431 O428 1.381 . S
C431 O429 1.421 . S
Fe432 O433 1.886 . S
Fe432 O436 1.715 . S
Fe432 O441 2.077 . S
Fe432 O446 1.935 . S
Fe432 O452 2.077 . S
Fe432 O461 1.935 . S
O433 Fe432 1.886 . S
O433 Fe435 1.715 . S
Fe434 O436 1.886 . S
Fe434 O437 1.715 . S
Fe434 O444 1.935 . S
Fe434 O445 2.077 . S
Fe434 O451 1.935 . S
Fe434 O460 2.077 . S
Fe435 O433 1.715 . S
Fe435 O438 1.886 . S
Fe435 O442 1.935 . S
Fe435 O447 2.077 . S
Fe435 O453 1.935 . S
Fe435 O457 2.077 . S
O436 Fe432 1.715 . S
O436 Fe434 1.886 . S
O437 Fe434 1.715 . S
O437 Fe439 1.886 . S
O438 Fe435 1.886 . S
O438 Fe439 1.715 . S
Fe439 O437 1.886 . S
Fe439 O438 1.715 . S
Fe439 O443 2.077 . S
Fe439 O448 1.935 . S
Fe439 O450 2.077 . S
Fe439 O458 1.935 . S
C440 O452 1.381 . S
C440 O453 1.421 . S
O441 Fe432 2.077 . S
O441 C454 1.381 . S
O442 Fe435 1.935 . S
O442 C454 1.421 . S
O443 Fe439 2.077 . S
O443 C459 1.381 . S
O444 Fe434 1.935 . S
O444 C459 1.421 . S
O445 Fe434 2.077 . S
O445 C449 1.381 . S
O446 Fe432 1.935 . S
O446 C449 1.421 . S
O447 Fe435 2.077 . S
O447 C455 1.381 . S
O448 Fe439 1.935 . S
O448 C455 1.421 . S
C449 O445 1.381 . S
C449 O446 1.421 . S
O450 Fe439 2.077 . S
O450 C462 1.381 . S
O451 Fe434 1.935 . S
O451 C462 1.421 . S
O452 Fe432 2.077 . S
O452 C440 1.381 . S
O453 Fe435 1.935 . S
O453 C440 1.421 . S
C454 O441 1.381 . S
C454 O442 1.421 . S
C455 O447 1.381 . S
C455 O448 1.421 . S
C456 O457 1.381 . S
C456 O458 1.421 . S
O457 Fe435 2.077 . S
O457 C456 1.381 . S
O458 Fe439 1.935 . S
O458 C456 1.421 . S
C459 O443 1.381 . S
C459 O444 1.421 . S
O460 Fe434 2.077 . S
O460 C463 1.381 . S
O461 Fe432 1.935 . S
O461 C463 1.421 . S
C462 O450 1.381 . S
C462 O451 1.421 . S
C463 O460 1.381 . S
C463 O461 1.421 . S
Fe464 O465 1.886 . S
Fe464 O468 1.715 . S
Fe464 O473 2.077 1_455 S
Fe464 O478 1.935 1_455 S
Fe464 O484 2.077 . S
Fe464 O493 1.935 . S
O465 Fe464 1.886 . S
O465 Fe467 1.715 . S
Fe466 O468 1.886 . S
Fe466 O469 1.715 . S
Fe466 O476 1.935 1_455 S
Fe466 O477 2.077 1_455 S
Fe466 O483 1.935 . S
Fe466 O492 2.077 . S
Fe467 O465 1.715 . S
Fe467 O470 1.886 . S
Fe467 O474 1.935 1_455 S
Fe467 O479 2.077 1_455 S
Fe467 O485 1.935 . S
Fe467 O489 2.077 . S
O468 Fe464 1.715 . S
O468 Fe466 1.886 . S
O469 Fe466 1.715 . S
O469 Fe471 1.886 . S
O470 Fe467 1.886 . S
O470 Fe471 1.715 . S
Fe471 O469 1.886 . S
Fe471 O470 1.715 . S
Fe471 O475 2.077 1_455 S
Fe471 O480 1.935 1_455 S
Fe471 O482 2.077 . S
Fe471 O490 1.935 . S
C472 O484 1.381 . S
C472 O485 1.421 . S
O473 Fe464 2.077 1_655 S
O473 C486 1.381 . S
O474 Fe467 1.935 1_655 S
O474 C486 1.421 . S
O475 Fe471 2.077 1_655 S
O475 C491 1.381 . S
O476 Fe466 1.935 1_655 S
O476 C491 1.421 . S
O477 Fe466 2.077 1_655 S
O477 C481 1.381 . S
O478 Fe464 1.935 1_655 S
O478 C481 1.421 . S
O479 Fe467 2.077 1_655 S
O479 C487 1.381 . S
O480 Fe471 1.935 1_655 S
O480 C487 1.421 . S
C481 O477 1.381 . S
C481 O478 1.421 . S
O482 Fe471 2.077 . S
O482 C494 1.381 . S
O483 Fe466 1.935 . S
O483 C494 1.421 . S
O484 Fe464 2.077 . S
O484 C472 1.381 . S
O485 Fe467 1.935 . S
O485 C472 1.421 . S
C486 O473 1.381 . S
C486 O474 1.421 . S
C487 O479 1.381 . S
C487 O480 1.421 . S
C488 O489 1.381 . S
C488 O490 1.421 . S
O489 Fe467 2.077 . S
O489 C488 1.381 . S
O490 Fe471 1.935 . S
O490 C488 1.421 . S
C491 O475 1.381 . S
C491 O476 1.421 . S
O492 Fe466 2.077 . S
O492 C495 1.381 . S
O493 Fe464 1.935 . S
O493 C495 1.421 . S
C494 O482 1.381 . S
C494 O483 1.421 . S
C495 O492 1.381 . S
C495 O493 1.421 . S
H496 C502 0.930 . S
H497 C505 0.930 . S
H498 C506 0.930 . S
H499 C507 0.930 . S
H500 C510 0.930 . S
H501 C511 0.930 . S
C502 H496 0.930 . S
C502 C503 1.355 . S
C502 C504 1.415 . S
C503 C502 1.355 . S
C503 C505 1.419 . S
C504 C502 1.415 . S
C504 C509 1.425 . S
C504 C511 1.409 . S
C505 H497 0.930 . S
C505 C503 1.419 . S
C505 C506 1.362 . S
C506 H498 0.930 . S
C506 C505 1.362 . S
C506 C509 1.409 . S
C507 H499 0.930 . S
C507 C508 1.355 . S
C507 C509 1.415 . S
C508 C507 1.355 . S
C508 C510 1.419 . S
C509 C504 1.425 . S
C509 C506 1.409 . S
C509 C507 1.415 . S
C510 H500 0.930 . S
C510 C508 1.419 . S
C510 C511 1.362 . S
C511 H501 0.930 . S
C511 C504 1.409 . S
C511 C510 1.362 . S
H512 C518 0.930 . S
H513 C521 0.930 . S
H514 C522 0.930 . S
H515 C523 0.930 . S
H516 C526 0.930 . S
H517 C527 0.930 . S
C518 H512 0.930 . S
C518 C519 1.355 1_545 S
C518 C520 1.415 . S
C519 C518 1.355 1_565 S
C519 C521 1.419 . S
C520 C518 1.415 . S
C520 C525 1.425 . S
C520 C527 1.409 . S
C521 H513 0.930 . S
C521 C519 1.419 . S
C521 C522 1.362 1_565 S
C522 H514 0.930 . S
C522 C521 1.362 1_545 S
C522 C525 1.409 . S
C523 H515 0.930 . S
C523 C524 1.355 . S
C523 C525 1.415 . S
C524 C523 1.355 . S
C524 C526 1.419 . S
C525 C520 1.425 . S
C525 C522 1.409 . S
C525 C523 1.415 . S
C526 H516 0.930 . S
C526 C524 1.419 . S
C526 C527 1.362 . S
C527 H517 0.930 . S
C527 C520 1.409 . S
C527 C526 1.362 . S
H528 C534 0.930 . S
H529 C537 0.930 . S
H530 C538 0.930 . S
H531 C539 0.930 . S
H532 C542 0.930 . S
H533 C543 0.930 . S
C534 H528 0.930 . S
C534 C535 1.355 . S
C534 C536 1.415 . S
C535 C534 1.355 . S
C535 C537 1.419 . S
C536 C534 1.415 . S
C536 C541 1.425 . S
C536 C543 1.409 . S
C537 H529 0.930 . S
C537 C535 1.419 . S
C537 C538 1.362 . S
C538 H530 0.930 . S
C538 C537 1.362 . S
C538 C541 1.409 . S
C539 H531 0.930 . S
C539 C540 1.355 . S
C539 C541 1.415 . S
C540 C539 1.355 . S
C540 C542 1.419 . S
C541 C536 1.425 . S
C541 C538 1.409 . S
C541 C539 1.415 . S
C542 H532 0.930 . S
C542 C540 1.419 . S
C542 C543 1.362 . S
C543 H533 0.930 . S
C543 C536 1.409 . S
C543 C542 1.362 . S
H544 C550 0.930 . S
H545 C553 0.930 . S
H546 C554 0.930 . S
H547 C555 0.930 . S
H548 C558 0.930 . S
H549 C559 0.930 . S
C550 H544 0.930 . S
C550 C551 1.355 1_565 S
C550 C552 1.415 . S
C551 C550 1.355 1_545 S
C551 C553 1.419 . S
C552 C550 1.415 . S
C552 C557 1.425 . S
C552 C559 1.409 . S
C553 H545 0.930 . S
C553 C551 1.419 . S
C553 C554 1.362 . S
C554 H546 0.930 . S
C554 C553 1.362 . S
C554 C557 1.409 1_545 S
C555 H547 0.930 . S
C555 C556 1.355 . S
C555 C557 1.415 . S
C556 C555 1.355 . S
C556 C558 1.419 . S
C557 C552 1.425 . S
C557 C554 1.409 1_565 S
C557 C555 1.415 . S
C558 H548 0.930 . S
C558 C556 1.419 . S
C558 C559 1.362 . S
C559 H549 0.930 . S
C559 C552 1.409 . S
C559 C558 1.362 . S
H560 C566 0.930 . S
H561 C569 0.930 . S
H562 C570 0.930 . S
H563 C571 0.930 . S
H564 C574 0.930 . S
H565 C575 0.930 . S
C566 H560 0.930 . S
C566 C567 1.355 . S
C566 C568 1.415 . S
C567 C566 1.355 . S
C567 C569 1.419 . S
C568 C566 1.415 . S
C568 C573 1.425 . S
C568 C575 1.409 . S
C569 H561 0.930 . S
C569 C567 1.419 . S
C569 C570 1.362 . S
C570 H562 0.930 . S
C570 C569 1.362 . S
C570 C573 1.409 . S
C571 H563 0.930 . S
C571 C572 1.355 . S
C571 C573 1.415 . S
C572 C571 1.355 . S
C572 C574 1.419 . S
C573 C568 1.425 . S
C573 C570 1.409 . S
C573 C571 1.415 . S
C574 H564 0.930 . S
C574 C572 1.419 . S
C574 C575 1.362 . S
C575 H565 0.930 . S
C575 C568 1.409 . S
C575 C574 1.362 . S
H576 C582 0.930 . S
H577 C585 0.930 . S
H578 C586 0.930 . S
H579 C587 0.930 . S
H580 C590 0.930 . S
H581 C591 0.930 . S
C582 H576 0.930 . S
C582 C583 1.355 1_545 S
C582 C584 1.415 . S
C583 C582 1.355 1_565 S
C583 C585 1.419 . S
C584 C582 1.415 . S
C584 C589 1.425 . S
C584 C591 1.409 . S
C585 H577 0.930 . S
C585 C583 1.419 . S
C585 C586 1.362 . S
C586 H578 0.930 . S
C586 C585 1.362 . S
C586 C589 1.409 1_565 S
C587 H579 0.930 . S
C587 C588 1.355 . S
C587 C589 1.415 . S
C588 C587 1.355 . S
C588 C590 1.419 . S
C589 C584 1.425 . S
C589 C586 1.409 1_545 S
C589 C587 1.415 . S
C590 H580 0.930 . S
C590 C588 1.419 . S
C590 C591 1.362 . S
C591 H581 0.930 . S
C591 C584 1.409 . S
C591 C590 1.362 . S
H592 C598 0.930 . S
H593 C601 0.930 . S
H594 C602 0.930 . S
H595 C603 0.930 . S
H596 C606 0.930 . S
H597 C607 0.930 . S
C598 H592 0.930 . S
C598 C599 1.355 . S
C598 C600 1.415 . S
C599 C598 1.355 . S
C599 C601 1.419 . S
C600 C598 1.415 . S
C600 C605 1.425 . S
C600 C607 1.409 . S
C601 H593 0.930 . S
C601 C599 1.419 . S
C601 C602 1.362 . S
C602 H594 0.930 . S
C602 C601 1.362 . S
C602 C605 1.409 . S
C603 H595 0.930 . S
C603 C604 1.355 . S
C603 C605 1.415 . S
C604 C603 1.355 . S
C604 C606 1.419 . S
C605 C600 1.425 . S
C605 C602 1.409 . S
C605 C603 1.415 . S
C606 H596 0.930 . S
C606 C604 1.419 . S
C606 C607 1.362 . S
C607 H597 0.930 . S
C607 C600 1.409 . S
C607 C606 1.362 . S
H608 C614 0.930 . S
H609 C617 0.930 . S
H610 C618 0.930 . S
H611 C619 0.930 . S
H612 C622 0.930 . S
H613 C623 0.930 . S
C614 H608 0.930 . S
C614 C615 1.355 1_565 S
C614 C616 1.415 . S
C615 C614 1.355 1_545 S
C615 C617 1.419 . S
C616 C614 1.415 . S
C616 C621 1.425 . S
C616 C623 1.409 . S
C617 H609 0.930 . S
C617 C615 1.419 . S
C617 C618 1.362 . S
C618 H610 0.930 . S
C618 C617 1.362 . S
C618 C621 1.409 1_545 S
C619 H611 0.930 . S
C619 C620 1.355 . S
C619 C621 1.415 . S
C620 C619 1.355 . S
C620 C622 1.419 . S
C621 C616 1.425 . S
C621 C618 1.409 1_565 S
C621 C619 1.415 . S
C622 H612 0.930 . S
C622 C620 1.419 . S
C622 C623 1.362 . S
C623 H613 0.930 . S
C623 C616 1.409 . S
C623 C622 1.362 . S
H624 C630 0.930 . S
H625 C633 0.930 . S
H626 C634 0.930 . S
H627 C635 0.930 . S
H628 C638 0.930 . S
H629 C639 0.930 . S
C630 H624 0.930 . S
C630 C631 1.355 . S
C630 C632 1.415 . S
C631 C630 1.355 . S
C631 C633 1.419 . S
C632 C630 1.415 . S
C632 C637 1.425 . S
C632 C639 1.409 . S
C633 H625 0.930 . S
C633 C631 1.419 . S
C633 C634 1.362 . S
C634 H626 0.930 . S
C634 C633 1.362 . S
C634 C637 1.409 . S
C635 H627 0.930 . S
C635 C636 1.355 . S
C635 C637 1.415 . S
C636 C635 1.355 . S
C636 C638 1.419 . S
C637 C632 1.425 . S
C637 C634 1.409 . S
C637 C635 1.415 . S
C638 H628 0.930 . S
C638 C636 1.419 . S
C638 C639 1.362 . S
C639 H629 0.930 . S
C639 C632 1.409 . S
C639 C638 1.362 . S
H640 C646 0.930 . S
H641 C649 0.930 . S
H642 C650 0.930 . S
H643 C651 0.930 . S
H644 C654 0.930 . S
H645 C655 0.930 . S
C646 H640 0.930 . S
C646 C647 1.355 1_565 S
C646 C648 1.415 . S
C647 C646 1.355 1_545 S
C647 C649 1.419 . S
C648 C646 1.415 . S
C648 C653 1.425 . S
C648 C655 1.409 . S
C649 H641 0.930 . S
C649 C647 1.419 . S
C649 C650 1.362 . S
C650 H642 0.930 . S
C650 C649 1.362 . S
C650 C653 1.409 1_545 S
C651 H643 0.930 . S
C651 C652 1.355 . S
C651 C653 1.415 . S
C652 C651 1.355 . S
C652 C654 1.419 . S
C653 C648 1.425 . S
C653 C650 1.409 1_565 S
C653 C651 1.415 . S
C654 H644 0.930 . S
C654 C652 1.419 . S
C654 C655 1.362 . S
C655 H645 0.930 . S
C655 C648 1.409 . S
C655 C654 1.362 . S
H656 C662 0.930 . S
H657 C665 0.930 . S
H658 C666 0.930 . S
H659 C667 0.930 . S
H660 C670 0.930 . S
H661 C671 0.930 . S
C662 H656 0.930 . S
C662 C663 1.355 . S
C662 C664 1.415 . S
C663 C662 1.355 . S
C663 C665 1.419 . S
C664 C662 1.415 . S
C664 C669 1.425 . S
C664 C671 1.409 . S
C665 H657 0.930 . S
C665 C663 1.419 . S
C665 C666 1.362 . S
C666 H658 0.930 . S
C666 C665 1.362 . S
C666 C669 1.409 . S
C667 H659 0.930 . S
C667 C668 1.355 . S
C667 C669 1.415 . S
C668 C667 1.355 . S
C668 C670 1.419 . S
C669 C664 1.425 . S
C669 C666 1.409 . S
C669 C667 1.415 . S
C670 H660 0.930 . S
C670 C668 1.419 . S
C670 C671 1.362 . S
C671 H661 0.930 . S
C671 C664 1.409 . S
C671 C670 1.362 . S
H672 C678 0.930 . S
H673 C681 0.930 . S
H674 C682 0.930 . S
H675 C683 0.930 . S
H676 C686 0.930 . S
H677 C687 0.930 . S
C678 H672 0.930 . S
C678 C679 1.355 1_545 S
C678 C680 1.415 . S
C679 C678 1.355 1_565 S
C679 C681 1.419 . S
C680 C678 1.415 . S
C680 C685 1.425 . S
C680 C687 1.409 . S
C681 H673 0.930 . S
C681 C679 1.419 . S
C681 C682 1.362 1_565 S
C682 H674 0.930 . S
C682 C681 1.362 1_545 S
C682 C685 1.409 . S
C683 H675 0.930 . S
C683 C684 1.355 . S
C683 C685 1.415 . S
C684 C683 1.355 . S
C684 C686 1.419 . S
C685 C680 1.425 . S
C685 C682 1.409 . S
C685 C683 1.415 . S
C686 H676 0.930 . S
C686 C684 1.419 . S
C686 C687 1.362 . S
C687 H677 0.930 . S
C687 C680 1.409 . S
C687 C686 1.362 . S
H688 C694 0.930 . S
H689 C697 0.930 . S
H690 C698 0.930 . S
H691 C699 0.930 . S
H692 C702 0.930 . S
H693 C703 0.930 . S
C694 H688 0.930 . S
C694 C695 1.355 . S
C694 C696 1.415 . S
C695 C694 1.355 . S
C695 C697 1.419 . S
C696 C694 1.415 . S
C696 C701 1.425 . S
C696 C703 1.409 . S
C697 H689 0.930 . S
C697 C695 1.419 . S
C697 C698 1.362 . S
C698 H690 0.930 . S
C698 C697 1.362 . S
C698 C701 1.409 . S
C699 H691 0.930 . S
C699 C700 1.355 . S
C699 C701 1.415 . S
C700 C699 1.355 . S
C700 C702 1.419 . S
C701 C696 1.425 . S
C701 C698 1.409 . S
C701 C699 1.415 . S
C702 H692 0.930 . S
C702 C700 1.419 . S
C702 C703 1.362 . S
C703 H693 0.930 . S
C703 C696 1.409 . S
C703 C702 1.362 . S
H704 C710 0.930 . S
H705 C713 0.930 . S
H706 C714 0.930 1_545 S
H707 C715 0.930 . S
H708 C718 0.930 . S
H709 C719 0.930 . S
C710 H704 0.930 . S
C710 C711 1.355 1_565 S
C710 C712 1.415 . S
C711 C710 1.355 1_545 S
C711 C713 1.419 . S
C712 C710 1.415 . S
C712 C717 1.425 . S
C712 C719 1.409 . S
C713 H705 0.930 . S
C713 C711 1.419 . S
C713 C714 1.352 1_545 S
C714 H706 0.930 1_565 S
C714 C713 1.352 1_565 S
C714 C717 1.420 . S
C715 H707 0.930 . S
C715 C716 1.355 . S
C715 C717 1.415 . S
C716 C715 1.355 . S
C716 C718 1.419 . S
C717 C712 1.425 . S
C717 C714 1.420 . S
C717 C715 1.415 . S
C718 H708 0.930 . S
C718 C716 1.419 . S
C718 C719 1.362 . S
C719 H709 0.930 . S
C719 C712 1.409 . S
C719 C718 1.362 . S
H720 C726 0.930 . S
H721 C729 0.930 . S
H722 C730 0.930 . S
H723 C731 0.930 . S
H724 C734 0.930 . S
H725 C735 0.930 . S
C726 H720 0.930 . S
C726 C727 1.355 . S
C726 C728 1.415 . S
C727 C726 1.355 . S
C727 C729 1.419 . S
C728 C726 1.415 . S
C728 C733 1.425 . S
C728 C735 1.409 . S
C729 H721 0.930 . S
C729 C727 1.419 . S
C729 C730 1.362 . S
C730 H722 0.930 . S
C730 C729 1.362 . S
C730 C733 1.409 . S
C731 H723 0.930 . S
C731 C732 1.355 . S
C731 C733 1.415 . S
C732 C731 1.355 . S
C732 C734 1.419 . S
C733 C728 1.425 . S
C733 C730 1.409 . S
C733 C731 1.415 . S
C734 H724 0.930 . S
C734 C732 1.419 . S
C734 C735 1.362 . S
C735 H725 0.930 . S
C735 C728 1.409 . S
C735 C734 1.362 . S
H736 C742 0.930 1_565 S
H737 C745 0.930 . S
H738 C746 0.930 . S
H739 C747 0.930 . S
H740 C750 0.930 . S
H741 C751 0.930 . S
C742 H736 0.930 1_545 S
C742 C743 1.355 1_545 S
C742 C744 1.415 . S
C743 C742 1.355 1_565 S
C743 C745 1.419 . S
C744 C742 1.415 . S
C744 C749 1.425 . S
C744 C751 1.409 . S
C745 H737 0.930 . S
C745 C743 1.419 . S
C745 C746 1.362 1_565 S
C746 H738 0.930 . S
C746 C745 1.362 1_545 S
C746 C749 1.409 . S
C747 H739 0.930 . S
C747 C748 1.355 . S
C747 C749 1.415 . S
C748 C747 1.355 . S
C748 C750 1.419 . S
C749 C744 1.425 . S
C749 C746 1.409 . S
C749 C747 1.415 . S
C750 H740 0.930 . S
C750 C748 1.419 . S
C750 C751 1.362 . S
C751 H741 0.930 . S
C751 C744 1.409 . S
C751 C750 1.362 . S
H752 C758 0.930 . S
H753 C761 0.930 . S
H754 C762 0.930 . S
H755 C763 0.930 . S
H756 C766 0.930 . S
H757 C767 0.930 . S
C758 H752 0.930 . S
C758 C759 1.355 . S
C758 C760 1.415 . S
C759 C758 1.355 . S
C759 C761 1.419 . S
C760 C758 1.415 . S
C760 C765 1.425 . S
C760 C767 1.409 . S
C761 H753 0.930 . S
C761 C759 1.419 . S
C761 C762 1.362 . S
C762 H754 0.930 . S
C762 C761 1.362 . S
C762 C765 1.409 . S
C763 H755 0.930 . S
C763 C764 1.355 . S
C763 C765 1.415 . S
C764 C763 1.355 . S
C764 C766 1.419 . S
C765 C760 1.425 . S
C765 C762 1.409 . S
C765 C763 1.415 . S
C766 H756 0.930 . S
C766 C764 1.419 . S
C766 C767 1.362 . S
C767 H757 0.930 . S
C767 C760 1.409 . S
C767 C766 1.362 . S
H768 C774 0.930 . S
H769 C777 0.930 . S
H770 C778 0.930 . S
H771 C779 0.930 . S
H772 C782 0.930 . S
H773 C783 0.930 . S
C774 H768 0.930 . S
C774 C775 1.355 . S
C774 C776 1.415 . S
C775 C774 1.355 . S
C775 C777 1.419 . S
C776 C774 1.415 . S
C776 C781 1.425 . S
C776 C783 1.409 . S
C777 H769 0.930 . S
C777 C775 1.419 . S
C777 C778 1.362 . S
C778 H770 0.930 . S
C778 C777 1.362 . S
C778 C781 1.409 . S
C779 H771 0.930 . S
C779 C780 1.355 . S
C779 C781 1.415 . S
C780 C779 1.355 . S
C780 C782 1.419 . S
C781 C776 1.425 . S
C781 C778 1.409 . S
C781 C779 1.415 . S
C782 H772 0.930 . S
C782 C780 1.419 . S
C782 C783 1.362 . S
C783 H773 0.930 . S
C783 C776 1.409 . S
C783 C782 1.362 . S
H784 C790 0.930 . S
H785 C793 0.930 . S
H786 C794 0.930 . S
H787 C795 0.930 . S
H788 C798 0.930 . S
H789 C799 0.930 . S
C790 H784 0.930 . S
C790 C791 1.355 . S
C790 C792 1.415 . S
C791 C790 1.355 . S
C791 C793 1.419 . S
C792 C790 1.415 . S
C792 C797 1.425 . S
C792 C799 1.409 . S
C793 H785 0.930 . S
C793 C791 1.419 . S
C793 C794 1.362 . S
C794 H786 0.930 . S
C794 C793 1.362 . S
C794 C797 1.409 . S
C795 H787 0.930 . S
C795 C796 1.355 . S
C795 C797 1.415 . S
C796 C795 1.355 . S
C796 C798 1.419 . S
C797 C792 1.425 . S
C797 C794 1.409 . S
C797 C795 1.415 . S
C798 H788 0.930 . S
C798 C796 1.419 . S
C798 C799 1.362 . S
C799 H789 0.930 . S
C799 C792 1.409 . S
C799 C798 1.362 . S
H800 C806 0.930 . S
H801 C809 0.930 . S
H802 C810 0.930 . S
H803 C811 0.930 . S
H804 C814 0.930 . S
H805 C815 0.930 . S
C806 H800 0.930 . S
C806 C807 1.355 . S
C806 C808 1.415 . S
C807 C806 1.355 . S
C807 C809 1.419 . S
C808 C806 1.415 . S
C808 C813 1.425 . S
C808 C815 1.409 . S
C809 H801 0.930 . S
C809 C807 1.419 . S
C809 C810 1.362 . S
C810 H802 0.930 . S
C810 C809 1.362 . S
C810 C813 1.409 . S
C811 H803 0.930 . S
C811 C812 1.355 . S
C811 C813 1.415 . S
C812 C811 1.355 . S
C812 C814 1.419 . S
C813 C808 1.425 . S
C813 C810 1.409 . S
C813 C811 1.415 . S
C814 H804 0.930 . S
C814 C812 1.419 . S
C814 C815 1.362 . S
C815 H805 0.930 . S
C815 C808 1.409 . S
C815 C814 1.362 . S
H816 C822 0.930 . S
H817 C825 0.930 . S
H818 C826 0.930 . S
H819 C827 0.930 . S
H820 C830 0.930 . S
H821 C831 0.930 . S
C822 H816 0.930 . S
C822 C823 1.355 . S
C822 C824 1.415 . S
C823 C822 1.355 . S
C823 C825 1.419 . S
C824 C822 1.415 . S
C824 C829 1.425 . S
C824 C831 1.409 . S
C825 H817 0.930 . S
C825 C823 1.419 . S
C825 C826 1.362 . S
C826 H818 0.930 . S
C826 C825 1.362 . S
C826 C829 1.409 . S
C827 H819 0.930 . S
C827 C828 1.355 . S
C827 C829 1.415 . S
C828 C827 1.355 . S
C828 C830 1.419 . S
C829 C824 1.425 . S
C829 C826 1.409 . S
C829 C827 1.415 . S
C830 H820 0.930 . S
C830 C828 1.419 . S
C830 C831 1.362 . S
C831 H821 0.930 . S
C831 C824 1.409 . S
C831 C830 1.362 . S
H832 C838 0.930 . S
H833 C841 0.930 . S
H834 C842 0.930 . S
H835 C843 0.930 . S
H836 C846 0.930 . S
H837 C847 0.930 . S
C838 H832 0.930 . S
C838 C839 1.355 . S
C838 C840 1.415 . S
C839 C838 1.355 . S
C839 C841 1.419 . S
C840 C838 1.415 . S
C840 C845 1.425 . S
C840 C847 1.409 . S
C841 H833 0.930 . S
C841 C839 1.419 . S
C841 C842 1.362 . S
C842 H834 0.930 . S
C842 C841 1.362 . S
C842 C845 1.409 . S
C843 H835 0.930 . S
C843 C844 1.355 . S
C843 C845 1.415 . S
C844 C843 1.355 . S
C844 C846 1.419 . S
C845 C840 1.425 . S
C845 C842 1.409 . S
C845 C843 1.415 . S
C846 H836 0.930 . S
C846 C844 1.419 . S
C846 C847 1.362 . S
C847 H837 0.930 . S
C847 C840 1.409 . S
C847 C846 1.362 . S
H848 C854 0.930 . S
H849 C857 0.930 . S
H850 C858 0.930 . S
H851 C859 0.930 . S
H852 C862 0.930 . S
H853 C863 0.930 . S
C854 H848 0.930 . S
C854 C855 1.355 . S
C854 C856 1.415 . S
C855 C854 1.355 . S
C855 C857 1.419 . S
C856 C854 1.415 . S
C856 C861 1.425 . S
C856 C863 1.409 . S
C857 H849 0.930 . S
C857 C855 1.419 . S
C857 C858 1.362 . S
C858 H850 0.930 . S
C858 C857 1.362 . S
C858 C861 1.409 . S
C859 H851 0.930 . S
C859 C860 1.355 . S
C859 C861 1.415 . S
C860 C859 1.355 . S
C860 C862 1.419 . S
C861 C856 1.425 . S
C861 C858 1.409 . S
C861 C859 1.415 . S
C862 H852 0.930 . S
C862 C860 1.419 . S
C862 C863 1.362 . S
C863 H853 0.930 . S
C863 C856 1.409 . S
C863 C862 1.362 . S
H864 C870 0.930 . S
H865 C873 0.930 . S
H866 C874 0.930 . S
H867 C875 0.930 . S
H868 C878 0.930 . S
H869 C879 0.930 . S
C870 H864 0.930 . S
C870 C871 1.355 . S
C870 C872 1.415 . S
C871 C870 1.355 . S
C871 C873 1.419 . S
C872 C870 1.415 . S
C872 C877 1.425 . S
C872 C879 1.409 . S
C873 H865 0.930 . S
C873 C871 1.419 . S
C873 C874 1.362 . S
C874 H866 0.930 . S
C874 C873 1.362 . S
C874 C877 1.409 . S
C875 H867 0.930 . S
C875 C876 1.355 . S
C875 C877 1.415 . S
C876 C875 1.355 . S
C876 C878 1.419 . S
C877 C872 1.425 . S
C877 C874 1.409 . S
C877 C875 1.415 . S
C878 H868 0.930 . S
C878 C876 1.419 . S
C878 C879 1.362 . S
C879 H869 0.930 . S
C879 C872 1.409 . S
C879 C878 1.362 . S
H880 C886 0.930 . S
H881 C889 0.930 . S
H882 C890 0.930 . S
H883 C891 0.930 . S
H884 C894 0.930 . S
H885 C895 0.930 . S
C886 H880 0.930 . S
C886 C887 1.355 . S
C886 C888 1.415 . S
C887 C886 1.355 . S
C887 C889 1.419 . S
C888 C886 1.415 . S
C888 C893 1.425 . S
C888 C895 1.409 . S
C889 H881 0.930 . S
C889 C887 1.419 . S
C889 C890 1.362 . S
C890 H882 0.930 . S
C890 C889 1.362 . S
C890 C893 1.409 . S
C891 H883 0.930 . S
C891 C892 1.355 . S
C891 C893 1.415 . S
C892 C891 1.355 . S
C892 C894 1.419 . S
C893 C888 1.425 . S
C893 C890 1.409 . S
C893 C891 1.415 . S
C894 H884 0.930 . S
C894 C892 1.419 . S
C894 C895 1.362 . S
C895 H885 0.930 . S
C895 C888 1.409 . S
C895 C894 1.362 . S
H896 C902 0.930 . S
H897 C905 0.930 . S
H898 C906 0.930 . S
H899 C907 0.930 . S
H900 C910 0.930 . S
H901 C911 0.930 . S
C902 H896 0.930 . S
C902 C903 1.355 . S
C902 C904 1.415 . S
C903 C902 1.355 . S
C903 C905 1.419 . S
C904 C902 1.415 . S
C904 C909 1.425 . S
C904 C911 1.409 . S
C905 H897 0.930 . S
C905 C903 1.419 . S
C905 C906 1.362 . S
C906 H898 0.930 . S
C906 C905 1.362 . S
C906 C909 1.409 . S
C907 H899 0.930 . S
C907 C908 1.355 . S
C907 C909 1.415 . S
C908 C907 1.355 . S
C908 C910 1.419 . S
C909 C904 1.425 . S
C909 C906 1.409 . S
C909 C907 1.415 . S
C910 H900 0.930 . S
C910 C908 1.419 . S
C910 C911 1.362 . S
C911 H901 0.930 . S
C911 C904 1.409 . S
C911 C910 1.362 . S
H912 C918 0.930 . S
H913 C921 0.930 . S
H914 C922 0.930 . S
H915 C923 0.930 . S
H916 C926 0.930 . S
H917 C927 0.930 . S
C918 H912 0.930 . S
C918 C919 1.355 . S
C918 C920 1.415 . S
C919 C918 1.355 . S
C919 C921 1.419 . S
C920 C918 1.415 . S
C920 C925 1.425 . S
C920 C927 1.409 . S
C921 H913 0.930 . S
C921 C919 1.419 . S
C921 C922 1.362 . S
C922 H914 0.930 . S
C922 C921 1.362 . S
C922 C925 1.409 . S
C923 H915 0.930 . S
C923 C924 1.355 . S
C923 C925 1.415 . S
C924 C923 1.355 . S
C924 C926 1.419 . S
C925 C920 1.425 . S
C925 C922 1.409 . S
C925 C923 1.415 . S
C926 H916 0.930 . S
C926 C924 1.419 . S
C926 C927 1.362 . S
C927 H917 0.930 . S
C927 C920 1.409 . S
C927 C926 1.362 . S
H928 C934 0.930 . S
H929 C937 0.930 . S
H930 C938 0.930 . S
H931 C939 0.930 . S
H932 C942 0.930 . S
H933 C943 0.930 . S
C934 H928 0.930 . S
C934 C935 1.355 . S
C934 C936 1.415 . S
C935 C934 1.355 . S
C935 C937 1.419 . S
C936 C934 1.415 . S
C936 C941 1.425 . S
C936 C943 1.409 . S
C937 H929 0.930 . S
C937 C935 1.419 . S
C937 C938 1.362 . S
C938 H930 0.930 . S
C938 C937 1.362 . S
C938 C941 1.409 . S
C939 H931 0.930 . S
C939 C940 1.355 . S
C939 C941 1.415 . S
C940 C939 1.355 . S
C940 C942 1.419 . S
C941 C936 1.425 . S
C941 C938 1.409 . S
C941 C939 1.415 . S
C942 H932 0.930 . S
C942 C940 1.419 . S
C942 C943 1.362 . S
C943 H933 0.930 . S
C943 C936 1.409 . S
C943 C942 1.362 . S
H944 C950 0.930 . S
H945 C953 0.930 . S
H946 C954 0.930 . S
H947 C955 0.930 . S
H948 C958 0.930 . S
H949 C959 0.930 . S
C950 H944 0.930 . S
C950 C951 1.355 . S
C950 C952 1.415 . S
C951 C950 1.355 . S
C951 C953 1.419 . S
C952 C950 1.415 . S
C952 C957 1.425 . S
C952 C959 1.409 . S
C953 H945 0.930 . S
C953 C951 1.419 . S
C953 C954 1.362 . S
C954 H946 0.930 . S
C954 C953 1.362 . S
C954 C957 1.409 . S
C955 H947 0.930 . S
C955 C956 1.355 . S
C955 C957 1.415 . S
C956 C955 1.355 . S
C956 C958 1.419 . S
C957 C952 1.425 . S
C957 C954 1.409 . S
C957 C955 1.415 . S
C958 H948 0.930 . S
C958 C956 1.419 . S
C958 C959 1.362 . S
C959 H949 0.930 . S
C959 C952 1.409 . S
C959 C958 1.362 . S
H960 C966 0.930 . S
H961 C969 0.930 . S
H962 C970 0.930 . S
H963 C971 0.930 . S
H964 C974 0.930 . S
H965 C975 0.930 . S
C966 H960 0.930 . S
C966 C967 1.355 . S
C966 C968 1.415 . S
C967 C966 1.355 . S
C967 C969 1.419 . S
C968 C966 1.415 . S
C968 C973 1.425 . S
C968 C975 1.409 . S
C969 H961 0.930 . S
C969 C967 1.419 . S
C969 C970 1.362 . S
C970 H962 0.930 . S
C970 C969 1.362 . S
C970 C973 1.409 . S
C971 H963 0.930 . S
C971 C972 1.355 . S
C971 C973 1.415 . S
C972 C971 1.355 . S
C972 C974 1.419 . S
C973 C968 1.425 . S
C973 C970 1.409 . S
C973 C971 1.415 . S
C974 H964 0.930 . S
C974 C972 1.419 . S
C974 C975 1.362 . S
C975 H965 0.930 . S
C975 C968 1.409 . S
C975 C974 1.362 . S
H976 C982 0.930 . S
H977 C985 0.930 . S
H978 C986 0.930 . S
H979 C987 0.930 . S
H980 C990 0.930 . S
H981 C991 0.930 . S
C982 H976 0.930 . S
C982 C983 1.355 . S
C982 C984 1.415 . S
C983 C982 1.355 . S
C983 C985 1.419 . S
C984 C982 1.415 . S
C984 C989 1.425 . S
C984 C991 1.409 . S
C985 H977 0.930 . S
C985 C983 1.419 . S
C985 C986 1.362 . S
C986 H978 0.930 . S
C986 C985 1.362 . S
C986 C989 1.409 . S
C987 H979 0.930 . S
C987 C988 1.355 . S
C987 C989 1.415 . S
C988 C987 1.355 . S
C988 C990 1.419 . S
C989 C984 1.425 . S
C989 C986 1.409 . S
C989 C987 1.415 . S
C990 H980 0.930 . S
C990 C988 1.419 . S
C990 C991 1.362 . S
C991 H981 0.930 . S
C991 C984 1.409 . S
C991 C990 1.362 . S
H992 C998 0.930 . S
H993 C1001 0.930 . S
H994 C1002 0.930 . S
H995 C1003 0.930 . S
H996 C1006 0.930 . S
H997 C1007 0.930 . S
C998 H992 0.930 . S
C998 C999 1.355 . S
C998 C1000 1.415 . S
C999 C998 1.355 . S
C999 C1001 1.419 . S
C1000 C998 1.415 . S
C1000 C1005 1.425 . S
C1000 C1007 1.409 . S
C1001 H993 0.930 . S
C1001 C999 1.419 . S
C1001 C1002 1.362 . S
C1002 H994 0.930 . S
C1002 C1001 1.362 . S
C1002 C1005 1.409 . S
C1003 H995 0.930 . S
C1003 C1004 1.355 . S
C1003 C1005 1.415 . S
C1004 C1003 1.355 . S
C1004 C1006 1.419 . S
C1005 C1000 1.425 . S
C1005 C1002 1.409 . S
C1005 C1003 1.415 . S
C1006 H996 0.930 . S
C1006 C1004 1.419 . S
C1006 C1007 1.362 . S
C1007 H997 0.930 . S
C1007 C1000 1.409 . S
C1007 C1006 1.362 . S
C508 C417 1.517 . S
C503 C1 1.528 . S
C519 C68 1.517 . S
C524 C449 1.483 . S
C535 C93 1.529 . S
C540 C472 1.531 . S
C556 C376 1.506 . S
C551 C139 1.529 . S
C572 C459 1.362 . S
C567 C8 1.497 . S
C588 C488 1.362 . S
C583 C61 1.491 . S
C604 C392 1.362 . S
C599 C100 1.498 . S
C620 C427 1.309 . S
C615 C146 1.495 . S
C631 C15 1.497 . S
C636 C455 1.324 . S
C647 C192 1.497 . S
C652 C430 1.390 . S
C663 C107 1.504 . S
C668 C398 1.363 . S
C684 C487 1.419 . S
C679 C238 1.509 . S
C700 C431 1.507 . S
C695 C22 1.532 . S
C711 C185 1.519 . S
C716 C399 1.481 . S
C727 C114 1.528 . S
C732 C486 1.535 . S
C748 C454 1.510 . S
C743 C231 1.517 . S
C759 C277 1.529 . S
C764 C481 1.487 . S
C775 C206 1.521 . S
C780 C385 1.482 . S
C791 C330 1.530 . S
C796 C408 1.507 . S
C807 C252 1.534 . S
C812 C440 1.521 . S
C828 C395 1.366 . S
C823 C284 1.506 . S
C839 C199 1.491 . S
C844 C424 1.326 . S
C855 C323 1.502 . S
C860 C456 1.385 . S
C876 C491 1.369 . S
C871 C245 1.493 . S
C887 C291 1.497 . S
C892 C391 1.318 . S
C903 C54 1.507 . S
C908 C494 1.409 . S
C919 C344 1.497 . S
C924 C462 1.299 . S
C940 C423 1.350 . S
C935 C153 1.498 . S
C956 C495 1.527 . S
C951 C298 1.526 . S
C972 C463 1.485 . S
C967 C47 1.517 . S
C988 C422 1.520 . S
C983 C337 1.523 . S
C1004 C390 1.514 . S
C999 C160 1.529 . S
