# Generated by pormake.
# Topology tsx, (6,3)-cn, num edge types: 1
# Building blocks:
#     Node 0, Type 0, BuildingBlock: CIFDUS_clean_sbu_1, # of connection points: 6
#     Node 1, Type 0, BuildingBlock: CIFDUS_clean_sbu_1, # of connection points: 6
#     Node 2, Type 1, BuildingBlock: VETTIZ_charged_linker_0, # of connection points: 3
#     Node 3, Type 1, BuildingBlock: VETTIZ_charged_linker_0, # of connection points: 3
#     Node 4, Type 1, BuildingBlock: VETTIZ_charged_linker_0, # of connection points: 3
#     Node 5, Type 1, BuildingBlock: VETTIZ_charged_linker_0, # of connection points: 3
#     Edge 6, Type (0, 1), BuildingBlock: TEMPAE_clean_linker_10, # of connection points: 2
#     Edge 7, Type (0, 1), BuildingBlock: TEMPAE_clean_linker_10, # of connection points: 2
#     Edge 8, Type (0, 1), BuildingBlock: TEMPAE_clean_linker_10, # of connection points: 2
#     Edge 9, Type (0, 1), BuildingBlock: TEMPAE_clean_linker_10, # of connection points: 2
#     Edge 10, Type (0, 1), BuildingBlock: TEMPAE_clean_linker_10, # of connection points: 2
#     Edge 11, Type (0, 1), BuildingBlock: TEMPAE_clean_linker_10, # of connection points: 2
#     Edge 12, Type (0, 1), BuildingBlock: TEMPAE_clean_linker_10, # of connection points: 2
#     Edge 13, Type (0, 1), BuildingBlock: TEMPAE_clean_linker_10, # of connection points: 2
#     Edge 14, Type (0, 1), BuildingBlock: TEMPAE_clean_linker_10, # of connection points: 2
#     Edge 15, Type (0, 1), BuildingBlock: TEMPAE_clean_linker_10, # of connection points: 2
#     Edge 16, Type (0, 1), BuildingBlock: TEMPAE_clean_linker_10, # of connection points: 2
#     Edge 17, Type (0, 1), BuildingBlock: TEMPAE_clean_linker_10, # of connection points: 2
# Relax obj value: 0.132
# Max RMSD: 0.158
# Mean RMSD: 0.121
data_MOF--net-tsx--node1-CIFDUS_clean_sbu_1--node2-VETTIZ_charged_linker_0--edge1-TEMPAE_clean_linker_10
_symmetry_space_group_name_H-M    P1
_symmetry_Int_Tables_number       1
_symmetry_cell_setting            triclinic
loop_
_symmetry_equiv_pos_as_xyz
'x, y, z'
_cell_length_a     22.157058
_cell_length_b     26.83115
_cell_length_c     46.209801
_cell_angle_alpha  96.724236
_cell_angle_beta   90.898045
_cell_angle_gamma 90.715846
loop_
_atom_site_label
_atom_site_type_symbol
_atom_site_fract_x
_atom_site_fract_y
_atom_site_fract_z
_atom_type_partial_charge
O0 O 0.99537 0.09864 -0.00266 0.0
Mn1 Mn 0.0561 0.03996 -0.00176 0.0
O2 O 0.95509 0.07576 0.95274 0.0
Mn3 Mn 0.98281 0.0101 0.94737 0.0
O4 O 0.1151 0.97931 -0.0035 0.0
O5 O 0.12142 0.08936 0.01523 0.0
Mn6 Mn 0.15998 0.06068 0.04258 0.0
O7 O 0.02779 0.02589 0.03987 0.0
O8 O 0.19526 0.00281 0.02514 0.0
O9 O 0.08842 0.05738 0.95802 0.0
O10 O 0.05217 0.99746 0.92671 0.0
O11 O 0.19749 0.1217 0.04227 0.0
O12 O 0.10438 0.05163 0.07089 0.0
C13 C 0.9455 0.95805 0.97141 0.0
C14 C 0.96082 0.10702 0.97578 0.0
C15 C 0.16759 0.97091 0.0069 0.0
C16 C 0.15844 0.12713 0.02178 0.0
C17 C 0.05113 0.03408 0.06573 0.0
C18 C 0.08994 0.03247 0.93281 0.0
O19 O 0.98826 0.98946 0.98236 0.0
O20 O 0.92797 0.96045 0.94471 0.0
O21 O 0.51216 0.6128 0.50748 0.0
Mn22 Mn 0.56135 0.54436 0.50397 0.0
O23 O 0.41838 0.58775 0.51003 0.0
Mn24 Mn 0.43752 0.53687 0.48207 0.0
O25 O 0.61284 0.47788 0.49897 0.0
O26 O 0.63637 0.58966 0.51071 0.0
Mn27 Mn 0.68255 0.5601 0.5352 0.0
O28 O 0.55306 0.53949 0.54855 0.0
O29 O 0.70493 0.49838 0.51765 0.0
O30 O 0.5667 0.54849 0.45945 0.0
O31 O 0.46872 0.55358 0.44741 0.0
O32 O 0.72591 0.61524 0.5286 0.0
O33 O 0.64301 0.55855 0.56999 0.0
C34 C 0.44057 0.46544 0.49324 0.0
C35 C 0.45637 0.62312 0.51179 0.0
C36 C 0.6678 0.46662 0.50464 0.0
C37 C 0.67969 0.62334 0.51235 0.0
C38 C 0.58764 0.54608 0.57128 0.0
C39 C 0.5244 0.55442 0.44088 0.0
O40 O 0.48746 0.49603 0.49742 0.0
O41 O 0.39259 0.48115 0.48089 0.0
C42 C 0.16417 0.9216 0.45213 0.0
C43 C 0.20491 0.88621 0.43899 0.0
C44 C 0.20082 0.8726 0.40861 0.0
C45 C 0.11804 0.92964 0.40477 0.0
C46 C 0.12176 0.94344 0.43452 0.0
C47 C 0.07634 0.98317 0.44437 0.0
H48 H 0.87526 0.15412 0.40346 0.0
C49 C 0.07029 0.95926 0.39248 0.0
C50 C 0.04554 0.9913 0.41557 0.0
H51 H 0.92075 0.13023 0.49157 0.0
H52 H 0.98538 0.0604 0.47366 0.0
H53 H 1.00388 0.13544 0.37442 0.0
H54 H 0.84729 0.04485 0.38494 0.0
H55 H 0.87798 0.01713 0.35235 0.0
H56 H 0.85312 0.08139 0.35502 0.0
H57 H 0.934 0.13984 0.35475 0.0
H58 H 0.99239 0.09767 0.34104 0.0
C59 C 0.11117 0.0305 0.45796 0.0
C60 C 0.0327 0.96126 0.46549 0.0
C61 C 0.02449 0.93573 0.28262 0.0
C62 C 0.9858 0.9614 0.26496 0.0
C63 C 0.95118 0.00108 0.2784 0.0
C64 C 0.95453 0.01499 0.30841 0.0
C65 C 0.993 0.98927 0.32573 0.0
C66 C 0.02723 0.95032 0.31294 0.0
C67 C 0.06743 0.92919 0.33511 0.0
C68 C 0.04982 0.96097 0.36324 0.0
C69 C 1.00648 0.99597 0.35737 0.0
C70 C 0.13415 0.93827 0.32711 0.0
C71 C 0.04982 0.87332 0.33558 0.0
C72 C 0.89981 0.13427 0.41893 0.0
C73 C 0.89469 0.14824 0.44887 0.0
C74 C 0.92537 0.12031 0.46836 0.0
C75 C 0.96279 0.08009 0.4579 0.0
C76 C 0.96844 0.06718 0.42762 0.0
C77 C 0.93559 0.0936 0.40893 0.0
C78 C 0.94039 0.0723 0.37774 0.0
C79 C 0.98327 0.02967 0.38026 0.0
C80 C 1.00114 0.02693 0.40938 0.0
C81 C 0.96871 0.11327 0.36086 0.0
C82 C 0.87661 0.05315 0.3667 0.0
H83 H 0.15696 0.88155 0.36864 0.0
H84 H 0.16608 0.93262 0.47544 0.0
H85 H 0.98962 0.9813 0.46738 0.0
H86 H 0.05382 0.96173 0.48747 0.0
H87 H 0.02032 0.92168 0.45748 0.0
H88 H 0.13973 0.04571 0.44137 0.0
H89 H 0.1416 0.02132 0.4758 0.0
H90 H 0.08131 0.06074 0.46696 0.0
H91 H 0.05239 0.90548 0.27309 0.0
H92 H 0.9227 0.02289 0.26553 0.0
H93 H 0.92774 0.04617 0.31678 0.0
H94 H 0.13874 0.97013 0.31386 0.0
H95 H 0.15303 0.90464 0.31427 0.0
H96 H 0.16335 0.94912 0.34653 0.0
H97 H 0.99986 0.86858 0.33554 0.0
H98 H 0.06635 0.8579 0.35531 0.0
H99 H 0.06705 0.84996 0.31609 0.0
H100 H 0.23077 0.8448 0.398 0.0
C101 C 0.15767 0.89385 0.39155 0.0
C102 C 0.15708 0.16612 0.54599 0.0
C103 C 0.19796 0.2017 0.56035 0.0
C104 C 0.19735 0.2118 0.5908 0.0
C105 C 0.11619 0.15137 0.59276 0.0
C106 C 0.11634 0.14129 0.56278 0.0
C107 C 0.06853 0.1026 0.55191 0.0
H108 H 0.84618 0.94204 0.58695 0.0
C109 C 0.06824 0.12079 0.60396 0.0
C110 C 0.03848 0.09276 0.58026 0.0
H111 H 0.90819 0.96007 0.50067 0.0
H112 H 0.97598 0.02758 0.52095 0.0
H113 H 0.97973 0.95072 0.61852 0.0
H114 H 0.83724 0.05611 0.60971 0.0
H115 H 0.87163 0.07321 0.64401 0.0
H116 H 0.83425 0.01272 0.63641 0.0
H117 H 0.90594 0.94545 0.63358 0.0
H118 H 0.96418 0.98308 0.65297 0.0
C119 C 0.10121 0.05589 0.53765 0.0
C120 C 0.02515 0.12616 0.53111 0.0
C121 C 0.05833 0.11763 0.71285 0.0
C122 C 0.01905 0.09508 0.73131 0.0
C123 C 0.96675 0.06991 0.71858 0.0
C124 C 0.95662 0.06445 0.68824 0.0
C125 C 0.99846 0.08508 0.67026 0.0
C126 C 0.04643 0.11317 0.68291 0.0
C127 C 0.08287 0.13706 0.6611 0.0
C128 C 0.05168 0.11554 0.6329 0.0
C129 C 1.00299 0.08442 0.63823 0.0
C130 C 0.14881 0.11876 0.66315 0.0
C131 C 0.07517 0.19485 0.66723 0.0
C132 C 0.87456 0.96036 0.57237 0.0
C133 C 0.87255 0.9452 0.54225 0.0
C134 C 0.90913 0.97097 0.52399 0.0
C135 C 0.9489 0.00978 0.53584 0.0
C136 C 0.95207 0.02303 0.56625 0.0
C137 C 0.91438 0.9987 0.58382 0.0
C138 C 0.92301 0.0168 0.61559 0.0
C139 C 0.9726 0.05573 0.6145 0.0
C140 C 0.99004 0.05952 0.58557 0.0
C141 C 0.94407 0.97186 0.63122 0.0
C142 C 0.86352 0.04071 0.62727 0.0
H143 H 0.15925 0.19631 0.63016 0.0
H144 H 0.15653 0.15834 0.52245 0.0
H145 H 0.01597 0.16591 0.53939 0.0
H146 H 0.98068 0.10718 0.52938 0.0
H147 H 0.04472 0.12551 0.50909 0.0
H148 H 0.13162 0.04071 0.55378 0.0
H149 H 0.12951 0.06604 0.51963 0.0
H150 H 0.07029 0.02523 0.52894 0.0
H151 H 0.09904 0.13732 0.72103 0.0
H152 H 0.9336 0.05392 0.73188 0.0
H153 H 0.91699 0.04384 0.67989 0.0
H154 H 0.14963 0.07843 0.66663 0.0
H155 H 0.17379 0.14037 0.68164 0.0
H156 H 0.1745 0.12098 0.64308 0.0
H157 H 0.03364 0.20491 0.67973 0.0
H158 H 0.06943 0.21274 0.64695 0.0
H159 H 0.11399 0.21286 0.6801 0.0
H160 H 0.22845 0.23927 0.60207 0.0
C161 C 0.15677 0.18699 0.60703 0.0
C162 C 0.65101 0.41813 0.95287 0.0
C163 C 0.68984 0.38161 0.93942 0.0
C164 C 0.68486 0.36775 0.90915 0.0
C165 C 0.60287 0.42546 0.90592 0.0
C166 C 0.6082 0.44003 0.93556 0.0
C167 C 0.56474 0.48125 0.94536 0.0
H168 H 0.34024 0.63442 0.90634 0.0
C169 C 0.55267 0.45299 0.89427 0.0
C170 C 0.52877 0.48533 0.91734 0.0
H171 H 0.42597 0.63983 -0.00935 0.0
H172 H 0.48609 0.5668 0.97385 0.0
H173 H 0.4614 0.61091 0.86793 0.0
H174 H 0.31598 0.52315 0.89682 0.0
H175 H 0.34301 0.48628 0.86586 0.0
H176 H 0.31145 0.54716 0.86231 0.0
H177 H 0.38291 0.61584 0.85834 0.0
H178 H 0.43 0.57177 0.838 0.0
C179 C 0.60267 0.52918 0.95479 0.0
C180 C 0.52525 0.46403 0.96963 0.0
C181 C 0.51091 0.43839 0.78497 0.0
C182 C 0.46555 0.45922 0.76854 0.0
C183 C 0.414 0.47913 0.78293 0.0
C184 C 0.41132 0.4844 0.81332 0.0
C185 C 0.4608 0.47001 0.82952 0.0
C186 C 0.50711 0.44374 0.8155 0.0
C187 C 0.55177 0.42605 0.83689 0.0
C188 C 0.52745 0.45072 0.86571 0.0
C189 C 0.47549 0.47782 0.86096 0.0
C190 C 0.61508 0.44704 0.83064 0.0
C191 C 0.54759 0.36788 0.83439 0.0
C192 C 0.37203 0.61981 0.92117 0.0
C193 C 0.37977 0.64317 0.94968 0.0
C194 C 0.42027 0.62233 0.96856 0.0
C195 C 0.45498 0.5802 0.95866 0.0
C196 C 0.44816 0.55818 0.92958 0.0
C197 C 0.40622 0.57781 0.91167 0.0
C198 C 0.40377 0.55061 0.88152 0.0
C199 C 0.45261 0.51217 0.88366 0.0
C200 C 0.47899 0.51641 0.9118 0.0
C201 C 0.42013 0.58898 0.86015 0.0
C202 C 0.34034 0.52567 0.87614 0.0
H203 H 0.64007 0.3769 0.86952 0.0
H204 H 0.65447 0.42963 0.97611 0.0
H205 H 0.48488 0.48715 0.97348 0.0
H206 H 0.55141 0.4648 -0.00962 0.0
H207 H 0.50835 0.42497 0.96343 0.0
H208 H 0.6361 0.5355 0.93783 0.0
H209 H 0.62822 0.52556 0.97529 0.0
H210 H 0.57546 0.56337 0.95771 0.0
H211 H 0.5503 0.42145 0.77456 0.0
H212 H 0.3771 0.49326 0.77073 0.0
H213 H 0.37232 0.50203 0.82307 0.0
H214 H 0.61234 0.48726 0.82708 0.0
H215 H 0.6342 0.42617 0.81077 0.0
H216 H 0.64762 0.44573 0.84884 0.0
H217 H 0.50471 0.35305 0.82361 0.0
H218 H 0.54748 0.35387 0.85603 0.0
H219 H 0.5852 0.35029 0.82146 0.0
H220 H 0.71421 0.33953 0.89846 0.0
C221 C 0.64148 0.38918 0.89241 0.0
C222 C 0.63472 0.68351 0.04798 0.0
C223 C 0.67891 0.71538 0.0632 0.0
C224 C 0.68838 0.71291 0.09315 0.0
C225 C 0.61037 0.64927 0.09284 0.0
C226 C 0.60065 0.65074 0.0634 0.0
C227 C 0.55141 0.61381 0.05162 0.0
H228 H 0.36024 0.42354 0.08139 0.0
C229 C 0.56912 0.61165 0.10274 0.0
C230 C 0.53414 0.58981 0.07879 0.0
H231 H 0.38645 0.47324 -0.00308 0.0
H232 H 0.45224 0.54154 0.01929 0.0
H233 H 0.49316 0.42667 0.10089 0.0
H234 H 0.3505 0.53292 0.11605 0.0
H235 H 0.39294 0.5375 0.14866 0.0
H236 H 0.35601 0.47874 0.13523 0.0
H237 H 0.43259 0.4187 0.12534 0.0
H238 H 0.50088 0.45246 0.13743 0.0
C239 C 0.57892 0.57608 0.02801 0.0
C240 C 0.4988 0.64344 0.04034 0.0
C241 C 0.58021 0.58339 0.20914 0.0
C242 C 0.5478 0.55233 0.22596 0.0
C243 C 0.50178 0.52056 0.21238 0.0
C244 C 0.48854 0.51975 0.18257 0.0
C245 C 0.52157 0.55108 0.16605 0.0
C246 C 0.56609 0.58237 0.17951 0.0
C247 C 0.59541 0.6141 0.15896 0.0
C248 C 0.56166 0.59634 0.13076 0.0
C249 C 0.51889 0.55938 0.13495 0.0
C250 C 0.66335 0.60048 0.15739 0.0
C251 C 0.58225 0.66987 0.16977 0.0
C252 C 0.38088 0.44835 0.06737 0.0
C253 C 0.36996 0.4416 0.03721 0.0
C254 C 0.39538 0.47673 0.02018 0.0
C255 C 0.43436 0.5157 0.03305 0.0
C256 C 0.44857 0.51904 0.06308 0.0
C257 C 0.42023 0.48621 0.07962 0.0
C258 C 0.43819 0.49449 0.11112 0.0
C259 C 0.48381 0.53657 0.11104 0.0
C260 C 0.49049 0.55154 0.08296 0.0
C261 C 0.46741 0.44567 0.11942 0.0
C262 C 0.38169 0.51146 0.1289 0.0
H263 H 0.66445 0.68098 0.1307 0.0
H264 H 0.62645 0.68462 0.02491 0.0
H265 H 0.48664 0.67515 0.05682 0.0
H266 H 0.45767 0.61999 0.03611 0.0
H267 H 0.51163 0.65933 0.02011 0.0
H268 H 0.62057 0.55963 0.03643 0.0
H269 H 0.59113 0.59524 0.00886 0.0
H270 H 0.54823 0.54453 0.02067 0.0
H271 H 0.61605 0.60806 0.21876 0.0
H272 H 0.47519 0.49693 0.22494 0.0
H273 H 0.45306 0.49475 0.17358 0.0
H274 H 0.67057 0.56088 0.16142 0.0
H275 H 0.6906 0.62481 0.17391 0.0
H276 H 0.68243 0.60263 0.13559 0.0
H277 H 0.538 0.67368 0.18084 0.0
H278 H 0.57816 0.69357 0.15183 0.0
H279 H 0.61741 0.68623 0.1856 0.0
H280 H 0.72277 0.73606 0.10529 0.0
C281 C 0.65446 0.68044 0.10794 0.0
C282 C 0.20061 0.17941 0.9862 0.0
C283 C 0.1594 0.17432 0.00841 0.0
C284 C 0.22757 0.22632 0.98313 0.0
C285 C 0.21371 0.26866 0.00313 0.0
C286 C 0.16631 0.2647 0.02303 0.0
C287 C 0.13973 0.21752 0.02539 0.0
C288 C 0.27633 0.22904 0.96094 0.0
C289 C 0.14942 0.30862 0.04467 0.0
C290 C 0.34451 0.35045 0.03548 0.0
C291 C 0.33435 0.39634 0.02455 0.0
C292 C 0.30647 0.30872 0.02805 0.0
C293 C 0.25749 0.31193 0.0083 0.0
C294 C 0.24938 0.35697 -0.00456 0.0
C295 C 0.2877 0.39888 0.00388 0.0
C296 C 0.31746 0.26177 0.04244 0.0
C297 C 0.19883 0.3617 0.97376 0.0
H298 H 0.21679 0.14595 0.97336 0.0
H299 H 0.10874 0.21352 0.04294 0.0
H300 H 0.27498 0.26521 0.95152 0.0
H301 H 0.32115 0.22657 0.9717 0.0
H302 H 0.27197 0.1977 0.94302 0.0
H303 H 0.1054 0.30219 0.05492 0.0
H304 H 0.18464 0.31445 0.06214 0.0
H305 H 0.14694 0.34353 0.03405 0.0
H306 H 0.38156 0.34759 0.05078 0.0
H307 H 0.27961 0.43406 -0.00481 0.0
H308 H 0.32373 0.22926 0.02566 0.0
H309 H 0.27769 0.25333 0.05543 0.0
H310 H 0.35785 0.26537 0.05713 0.0
H311 H 0.19303 0.32669 0.95858 0.0
H312 H 0.20689 0.39356 0.9609 0.0
H313 H 0.15594 0.36831 0.98557 0.0
C314 C 0.16693 0.88339 0.98017 0.0
C315 C 0.197 0.92202 -0.00183 0.0
C316 C 0.19455 0.83682 0.97255 0.0
C317 C 0.25369 0.82879 0.98302 0.0
C318 C 0.28414 0.8676 0.00114 0.0
C319 C 0.25549 0.91353 0.0085 0.0
C320 C 0.16049 0.79619 0.95332 0.0
C321 C 0.34739 0.86083 0.01258 0.0
C322 C 0.31422 0.69665 0.98438 0.0
C323 C 0.34777 0.69059 0.95879 0.0
C324 C 0.2821 0.741 -0.00777 0.0
C325 C 0.28481 0.78049 0.97437 0.0
C326 C 0.31931 0.77462 0.9487 0.0
C327 C 0.34994 0.72967 0.94114 0.0
C328 C 0.24506 0.74557 0.01953 0.0
C329 C 0.32456 0.81608 0.92937 0.0
H330 H 0.12168 0.88937 0.97214 0.0
H331 H 0.2793 0.94295 0.02241 0.0
H332 H 0.1852 0.78639 0.93279 0.0
H333 H 0.15743 0.7617 0.96436 0.0
H334 H 0.11413 0.80769 0.94778 0.0
H335 H 0.36465 0.89462 0.0266 0.0
H336 H 0.34849 0.82842 0.02542 0.0
H337 H 0.37847 0.85252 -0.0059 0.0
H338 H 0.31218 0.66632 -0.00207 0.0
H339 H 0.37641 0.72523 0.92149 0.0
H340 H 0.19756 0.75403 0.01417 0.0
H341 H 0.26252 0.7772 0.03514 0.0
H342 H 0.24571 0.71079 0.03042 0.0
H343 H 0.27914 0.82613 0.92167 0.0
H344 H 0.35291 0.80537 0.91007 0.0
H345 H 0.34461 0.85021 0.94196 0.0
C346 C 0.84736 0.9213 0.98236 0.0
C347 C 0.90941 0.92611 0.98876 0.0
C348 C 0.81102 0.88682 -0.00528 0.0
C349 C 0.83721 0.85588 0.01405 0.0
C350 C 0.89971 0.86134 0.02136 0.0
C351 C 0.93528 0.89682 0.0087 0.0
C352 C 0.74465 0.88288 0.98652 0.0
C353 C 0.92944 0.82825 0.04145 0.0
C354 C 0.72591 0.80034 0.06331 0.0
C355 C 0.71606 0.75176 0.04897 0.0
C356 C 0.7668 0.83378 0.05274 0.0
C357 C 0.79807 0.81881 0.0268 0.0
C358 C 0.78751 0.77016 0.0118 0.0
C359 C 0.74648 0.73714 0.02306 0.0
C360 C 0.7762 0.88532 0.06931 0.0
C361 C 0.81981 0.75304 0.98396 0.0
H362 H 0.82709 0.94426 0.96711 0.0
H363 H 0.98337 0.90007 0.01337 0.0
H364 H 0.73355 0.84448 0.97601 0.0
H365 H 0.71697 0.88958 0.00635 0.0
H366 H 0.73135 0.91014 0.97132 0.0
H367 H 0.97509 0.84252 0.04879 0.0
H368 H 0.90136 0.82491 0.06082 0.0
H369 H 0.93401 0.78996 0.0298 0.0
H370 H 0.7019 0.81209 0.08316 0.0
H371 H 0.73952 0.69949 0.01208 0.0
H372 H 0.7595 0.91421 0.05595 0.0
H373 H 0.82501 0.89297 0.07366 0.0
H374 H 0.75232 0.88958 0.0904 0.0
H375 H 0.80812 0.77764 0.96706 0.0
H376 H 0.80809 0.71363 0.97539 0.0
H377 H 0.86935 0.75623 0.98775 0.0
C378 C 0.88328 0.15835 0.95391 0.0
C379 C 0.9246 0.15354 0.97677 0.0
C380 C 0.84784 0.20094 0.95347 0.0
C381 C 0.85362 0.24055 0.97643 0.0
C382 C 0.8951 0.23638 -0.0003 0.0
C383 C 0.93007 0.19272 -0.00032 0.0
C384 C 0.80436 0.20349 0.92812 0.0
C385 C 0.90274 0.27812 0.02439 0.0
C386 C 0.79581 0.35748 0.94826 0.0
C387 C 0.73509 0.35604 0.9561 0.0
C388 C 0.83716 0.32338 0.95765 0.0
C389 C 0.8169 0.28639 0.97488 0.0
C390 C 0.7568 0.28786 0.98506 0.0
C391 C 0.7165 0.32293 0.97559 0.0
C392 C 0.9008 0.32366 0.94648 0.0
C393 C 0.73321 0.24901 0.00331 0.0
H394 H 0.87821 0.12852 0.93605 0.0
H395 H 0.96184 0.18948 0.01741 0.0
H396 H 0.75784 0.20965 0.9362 0.0
H397 H 0.81661 0.2356 0.91618 0.0
H398 H 0.80419 0.16875 0.91246 0.0
H399 H 0.938 0.26981 0.04042 0.0
H400 H 0.91505 0.31366 0.0157 0.0
H401 H 0.8594 0.2844 0.03585 0.0
H402 H 0.81003 0.3832 0.93316 0.0
H403 H 0.66935 0.32162 0.98145 0.0
H404 H 0.9053 0.2932 0.92824 0.0
H405 H 0.93379 0.31666 0.9638 0.0
H406 H 0.91258 0.35985 0.93834 0.0
H407 H 0.72529 0.21305 0.98919 0.0
H408 H 0.69002 0.26053 0.01382 0.0
H409 H 0.76663 0.24198 0.02042 0.0
C410 C 0.64701 0.71104 0.5144 0.0
C411 C 0.67836 0.67106 0.49966 0.0
C412 C 0.66934 0.76061 0.5154 0.0
C413 C 0.7242 0.76991 0.50139 0.0
C414 C 0.75056 0.7305 0.48295 0.0
C415 C 0.72718 0.6815 0.48231 0.0
C416 C 0.6387 0.80159 0.53471 0.0
C417 C 0.80864 0.73836 0.46734 0.0
C418 C 0.79694 0.90091 0.50618 0.0
C419 C 0.83501 0.90062 0.53073 0.0
C420 C 0.75965 0.85906 0.49644 0.0
C421 C 0.76116 0.81587 0.51142 0.0
C422 C 0.80026 0.8154 0.53597 0.0
C423 C 0.83644 0.8576 0.54524 0.0
C424 C 0.71812 0.86124 0.47047 0.0
C425 C 0.80436 0.7701 0.55249 0.0
H426 H 0.60977 0.70304 0.52819 0.0
H427 H 0.75191 0.65049 0.47117 0.0
H428 H 0.66188 0.80679 0.55634 0.0
H429 H 0.64124 0.8378 0.52538 0.0
H430 H 0.59057 0.79194 0.53801 0.0
H431 H 0.81628 0.70759 0.44955 0.0
H432 H 0.80878 0.7746 0.45802 0.0
H433 H 0.84704 0.73931 0.48313 0.0
H434 H 0.79539 0.9342 0.49499 0.0
H435 H 0.86652 0.85679 0.56392 0.0
H436 H 0.67055 0.8574 0.47713 0.0
H437 H 0.7269 0.82947 0.45352 0.0
H438 H 0.7234 0.89693 0.46071 0.0
H439 H 0.75946 0.76121 0.56102 0.0
H440 H 0.83701 0.77595 0.57111 0.0
H441 H 0.81851 0.73694 0.53764 0.0
C442 C 0.67033 0.38273 0.47326 0.0
C443 C 0.69018 0.41471 0.49783 0.0
C444 C 0.69833 0.33611 0.46566 0.0
C445 C 0.74664 0.32129 0.48319 0.0
C446 C 0.76422 0.35239 0.50882 0.0
C447 C 0.73591 0.39845 0.51575 0.0
C448 C 0.67804 0.3037 0.43826 0.0
C449 C 0.81517 0.33832 0.52829 0.0
C450 C 0.80779 0.1881 0.47678 0.0
C451 C 0.85778 0.19244 0.45899 0.0
C452 C 0.76971 0.22922 0.48402 0.0
C453 C 0.78283 0.27586 0.47371 0.0
C454 C 0.83381 0.28031 0.45601 0.0
C455 C 0.87022 0.23849 0.44868 0.0
C456 C 0.71534 0.22279 0.50256 0.0
C457 C 0.85051 0.3295 0.44512 0.0
H458 H 0.63492 0.395 0.45938 0.0
H459 H 0.75074 0.42251 0.53512 0.0
H460 H 0.71395 0.30311 0.42177 0.0
H461 H 0.67045 0.26443 0.44282 0.0
H462 H 0.63595 0.31756 0.42879 0.0
H463 H 0.82039 0.36498 0.54849 0.0
H464 H 0.80746 0.30012 0.53454 0.0
H465 H 0.85821 0.33779 0.5163 0.0
H466 H 0.79768 0.15224 0.48437 0.0
H467 H 0.90887 0.24175 0.43488 0.0
H468 H 0.67391 0.23368 0.4912 0.0
H469 H 0.71961 0.24794 0.52334 0.0
H470 H 0.70965 0.18356 0.50764 0.0
H471 H 0.81222 0.34298 0.43254 0.0
H472 H 0.89078 0.32635 0.43102 0.0
H473 H 0.8601 0.3584 0.46389 0.0
C474 C 0.41358 0.37732 0.47959 0.0
C475 C 0.4386 0.41375 0.50072 0.0
C476 C 0.38276 0.33532 0.48752 0.0
C477 C 0.37824 0.32905 0.51736 0.0
C478 C 0.41081 0.36207 0.53849 0.0
C479 C 0.44036 0.40461 0.5299 0.0
C480 C 0.34841 0.30174 0.46421 0.0
C481 C 0.40885 0.35577 0.57047 0.0
C482 C 0.22776 0.28063 0.54145 0.0
C483 C 0.2406 0.23066 0.54455 0.0
C484 C 0.27217 0.31277 0.53239 0.0
C485 C 0.33104 0.29444 0.52653 0.0
C486 C 0.34372 0.24348 0.52895 0.0
C487 C 0.29818 0.21208 0.53803 0.0
C488 C 0.25646 0.36677 0.52993 0.0
C489 C 0.40594 0.2228 0.52318 0.0
H490 H 0.41199 0.38474 0.457 0.0
H491 H 0.45912 0.43301 0.54629 0.0
H492 H 0.35246 0.26173 0.46769 0.0
H493 H 0.29979 0.31118 0.46524 0.0
H494 H 0.36443 0.30651 0.44202 0.0
H495 H 0.44729 0.37567 0.58274 0.0
H496 H 0.36631 0.37166 0.57968 0.0
H497 H 0.40972 0.31552 0.57387 0.0
H498 H 0.18346 0.295 0.54722 0.0
H499 H 0.30821 0.17365 0.54126 0.0
H500 H 0.2666 0.37624 0.50776 0.0
H501 H 0.28437 0.39206 0.54565 0.0
H502 H 0.20812 0.37451 0.53434 0.0
H503 H 0.42153 0.23097 0.50151 0.0
H504 H 0.40736 0.18163 0.52404 0.0
H505 H 0.43833 0.24145 0.53968 0.0
C506 C 0.44491 0.71789 0.51935 0.0
C507 C 0.43191 0.67091 0.5038 0.0
C508 C 0.41444 0.76113 0.51237 0.0
C509 C 0.37039 0.75678 0.48945 0.0
C510 C 0.35945 0.70955 0.47308 0.0
C511 C 0.39044 0.66766 0.48033 0.0
C512 C 0.42804 0.811 0.52998 0.0
C513 C 0.31364 0.70269 0.44825 0.0
C514 C 0.23532 0.83967 0.48104 0.0
C515 C 0.25126 0.86218 0.45629 0.0
C516 C 0.27614 0.80873 0.49403 0.0
C517 C 0.33431 0.80048 0.48211 0.0
C518 C 0.35224 0.82688 0.4588 0.0
C519 C 0.31049 0.85717 0.44613 0.0
C520 C 0.25501 0.78127 0.51879 0.0
C521 C 0.41376 0.81978 0.4455 0.0
H522 H 0.47718 0.72055 0.53736 0.0
H523 H 0.38115 0.63151 0.46782 0.0
H524 H 0.43509 0.84054 0.51541 0.0
H525 H 0.38896 0.8222 0.54386 0.0
H526 H 0.46863 0.80955 0.54426 0.0
H527 H 0.31098 0.66336 0.43761 0.0
H528 H 0.26825 0.71346 0.45642 0.0
H529 H 0.32528 0.72741 0.43148 0.0
H530 H 0.18967 0.84343 0.48903 0.0
H531 H 0.32343 0.87528 0.42734 0.0
H532 H 0.29037 0.78249 0.53612 0.0
H533 H 0.24624 0.74123 0.51061 0.0
H534 H 0.21288 0.79728 0.52847 0.0
H535 H 0.44925 0.81967 0.4627 0.0
H536 H 0.42481 0.84956 0.43156 0.0
H537 H 0.41485 0.78296 0.43181 0.0
C538 C 0.99706 0.96937 0.0906 0.0
C539 C 0.01903 0.01863 0.09101 0.0
C540 C 0.98326 0.94979 0.11674 0.0
C541 C 0.99036 0.98079 0.14367 0.0
C542 C 0.00708 0.03195 0.14369 0.0
C543 C 0.0221 0.04997 0.11745 0.0
C544 C 0.96416 0.89539 0.11498 0.0
C545 C 0.01274 0.06705 0.17171 0.0
C546 C 0.93028 0.95656 0.21687 0.0
C547 C 0.98441 0.95131 0.23249 0.0
C548 C 0.93045 0.96164 0.18697 0.0
C549 C 0.98584 0.96025 0.17221 0.0
C550 C 0.03921 0.94773 0.18687 0.0
C551 C 0.03811 0.94401 0.21696 0.0
C552 C 0.87227 0.97282 0.17179 0.0
C553 C 0.09847 0.94248 0.17124 0.0
H554 H 0.9951 0.94491 0.07017 0.0
H555 H 0.03912 0.08812 0.11774 0.0
H556 H 0.99848 0.87165 0.10301 0.0
H557 H 0.95743 0.88204 0.13652 0.0
H558 H 0.92123 0.88991 0.10228 0.0
H559 H 0.019 0.10679 0.16768 0.0
H560 H 0.97194 0.06415 0.18507 0.0
H561 H 0.05209 0.05632 0.18466 0.0
H562 H 0.88807 0.96004 0.22843 0.0
H563 H 0.08011 0.93915 0.22857 0.0
H564 H 0.86728 0.94848 0.15073 0.0
H565 H 0.87329 0.01237 0.16692 0.0
H566 H 0.83223 0.96722 0.18528 0.0
H567 H 0.09208 0.92026 0.14956 0.0
H568 H 0.13299 0.92411 0.18392 0.0
H569 H 0.11584 0.98021 0.16766 0.0
C570 C 0.14036 0.03387 0.88525 0.0
C571 C 0.10738 0.05864 0.90804 0.0
C572 C 0.13684 0.04914 0.85723 0.0
C573 C 0.09572 0.08709 0.8517 0.0
C574 C 0.06694 0.11515 0.87528 0.0
C575 C 0.07476 0.10146 0.9034 0.0
C576 C 0.17326 0.022 0.83312 0.0
C577 C 0.02278 0.15592 0.8705 0.0
C578 C 0.07339 0.13313 0.77749 0.0
C579 C 0.03474 0.09572 0.76308 0.0
C580 C 0.09555 0.13016 0.80584 0.0
C581 C 0.07481 0.09107 0.82132 0.0
C582 C 0.03229 0.05537 0.8079 0.0
C583 C 0.01451 0.0571 0.77878 0.0
C584 C 0.1415 0.16906 0.81852 0.0
C585 C 1.00549 0.01495 0.82423 0.0
H586 H 0.16568 1.00077 0.88888 0.0
H587 H 0.04907 0.12041 0.92111 0.0
H588 H 0.14506 0.99222 0.82065 0.0
H589 H 0.18846 0.04828 0.81775 0.0
H590 H 0.21339 0.00401 0.84192 0.0
H591 H 1.00204 0.17247 0.89111 0.0
H592 H 0.04605 0.18633 0.86056 0.0
H593 H 0.98618 0.14056 0.85519 0.0
H594 H 0.08764 0.16481 0.76666 0.0
H595 H 0.98552 0.02733 0.76836 0.0
H596 H 0.16541 0.15856 0.83813 0.0
H597 H 0.11855 0.2053 0.82433 0.0
H598 H 0.17559 0.17545 0.80192 0.0
H599 H 0.03978 0.9861 0.82704 0.0
H600 H 0.96578 0.996 0.81254 0.0
H601 H 0.99129 0.03102 0.84628 0.0
C602 C 0.60202 0.54049 0.62463 0.0
C603 C 0.56447 0.5341 0.59966 0.0
C604 C 0.58322 0.52506 0.65104 0.0
C605 C 0.52539 0.50266 0.65264 0.0
C606 C 0.48705 0.49633 0.62764 0.0
C607 C 0.50691 0.51238 0.60149 0.0
C608 C 0.62533 0.53272 0.67728 0.0
C609 C 0.42513 0.47253 0.6285 0.0
C610 C 0.50229 0.43061 0.71792 0.0
C611 C 0.47533 0.46713 0.73762 0.0
C612 C 0.51667 0.44081 0.68961 0.0
C613 C 0.50418 0.48869 0.68102 0.0
C614 C 0.47549 0.52505 0.70054 0.0
C615 C 0.46157 0.51388 0.72852 0.0
C616 C 0.54719 0.40112 0.66927 0.0
C617 C 0.46202 0.57674 0.6924 0.0
H618 H 0.64665 0.55711 0.62354 0.0
H619 H 0.4776 0.50719 0.58236 0.0
H620 H 0.60419 0.55765 0.69503 0.0
H621 H 0.6337 0.49631 0.68569 0.0
H622 H 0.66943 0.54956 0.67224 0.0
H623 H 0.40161 0.46889 0.60693 0.0
H624 H 0.42875 0.43469 0.63576 0.0
H625 H 0.39701 0.49536 0.64454 0.0
H626 H 0.51283 0.39437 0.72474 0.0
H627 H 0.44211 0.54282 0.74376 0.0
H628 H 0.5939 0.41362 0.66519 0.0
H629 H 0.52299 0.39559 0.64791 0.0
H630 H 0.54924 0.36455 0.67827 0.0
H631 H 0.50495 0.59713 0.68946 0.0
H632 H 0.43546 0.59937 0.70925 0.0
H633 H 0.43658 0.57385 0.67138 0.0
C634 C 0.59817 0.55691 0.40012 0.0
C635 C 0.53885 0.56043 0.41029 0.0
C636 C 0.61018 0.55848 0.37043 0.0
C637 C 0.56167 0.56315 0.35066 0.0
C638 C 0.50217 0.56864 0.36102 0.0
C639 C 0.49161 0.56754 0.39064 0.0
C640 C 0.67433 0.55371 0.36011 0.0
C641 C 0.44908 0.57378 0.34065 0.0
C642 C 0.57058 0.60075 0.27468 0.0
C643 C 0.56027 0.55442 0.25771 0.0
C644 C 0.57662 0.6038 0.30508 0.0
C645 C 0.57128 0.55957 0.3188 0.0
C646 C 0.56459 0.51242 0.3017 0.0
C647 C 0.55937 0.51041 0.27133 0.0
C648 C 0.58433 0.65471 0.32257 0.0
C649 C 0.5585 0.46441 0.31558 0.0
H650 H 0.63498 0.55186 0.41518 0.0
H651 H 0.44563 0.571 0.39821 0.0
H652 H 0.67962 0.51721 0.34648 0.0
H653 H 0.68521 0.58367 0.3463 0.0
H654 H 0.70743 0.55592 0.37854 0.0
H655 H 0.40582 0.57902 0.35239 0.0
H656 H 0.45635 0.60624 0.32824 0.0
H657 H 0.44474 0.53971 0.32461 0.0
H658 H 0.57106 0.63502 0.26438 0.0
H659 H 0.5529 0.4744 0.25827 0.0
H660 H 0.61798 0.65337 0.34048 0.0
H661 H 0.54077 0.66625 0.33262 0.0
H662 H 0.5988 0.68381 0.30879 0.0
H663 H 0.59433 0.46241 0.33241 0.0
H664 H 0.56099 0.43057 0.29933 0.0
H665 H 0.51439 0.46372 0.32659 0.0
loop_
_geom_bond_atom_site_label_1
_geom_bond_atom_site_label_2
_geom_bond_distance
_geom_bond_site_symmetry_2
_ccdc_geom_bond_type
O0 Mn1 2.163 . S
O0 C14 1.244 1_455 S
Mn1 O0 2.163 . S
Mn1 O4 2.160 1_544 S
Mn1 O5 2.221 . S
Mn1 O7 2.163 . S
Mn1 O9 2.160 1_554 S
Mn1 O19 2.221 1_444 S
O2 Mn3 2.087 . S
O2 C14 1.256 1_556 S
Mn3 O2 2.087 . S
Mn3 O10 2.089 . S
Mn3 O19 2.290 1_545 S
Mn3 O20 2.248 1_546 S
O4 Mn1 2.160 1_566 S
O4 C15 1.239 1_556 S
O5 Mn1 2.221 . S
O5 Mn6 2.290 . S
O5 C16 1.278 . S
Mn6 O5 2.290 . S
Mn6 O8 2.089 1_545 S
Mn6 O11 2.251 . S
Mn6 O12 2.087 . S
O7 Mn1 2.163 . S
O7 C17 1.244 . S
O8 Mn6 2.089 1_565 S
O8 C15 1.256 . S
O9 Mn1 2.160 1_556 S
O9 C18 1.239 . S
O10 Mn3 2.089 . S
O10 C18 1.256 1_655 S
O11 Mn6 2.251 . S
O11 C16 1.241 . S
O12 Mn6 2.087 . S
O12 C17 1.256 . S
C13 O19 1.278 1_554 S
C13 O20 1.242 . S
C14 O0 1.244 1_655 S
C14 O2 1.256 1_554 S
C15 O4 1.239 1_554 S
C15 O8 1.256 . S
C16 O5 1.278 . S
C16 O11 1.241 . S
C17 O7 1.244 . S
C17 O12 1.256 . S
C18 O9 1.239 . S
C18 O10 1.256 1_455 S
O19 Mn1 2.221 1_666 S
O19 Mn3 2.290 1_565 S
O19 C13 1.278 1_556 S
O20 Mn3 2.248 1_564 S
O20 C13 1.242 . S
O21 Mn22 2.163 . S
O21 C35 1.244 . S
Mn22 O21 2.163 . S
Mn22 O25 2.160 . S
Mn22 O26 2.221 . S
Mn22 O28 2.163 . S
Mn22 O30 2.160 . S
Mn22 O40 2.221 . S
O23 Mn24 2.087 . S
O23 C35 1.256 . S
Mn24 O23 2.087 . S
Mn24 O31 2.089 . S
Mn24 O40 2.290 . S
Mn24 O41 2.251 . S
O25 Mn22 2.160 . S
O25 C36 1.239 . S
O26 Mn22 2.221 . S
O26 Mn27 2.290 . S
O26 C37 1.278 . S
Mn27 O26 2.290 . S
Mn27 O29 2.089 . S
Mn27 O32 2.251 . S
Mn27 O33 2.087 . S
O28 Mn22 2.163 . S
O28 C38 1.244 . S
O29 Mn27 2.089 . S
O29 C36 1.256 . S
O30 Mn22 2.160 . S
O30 C39 1.239 . S
O31 Mn24 2.089 . S
O31 C39 1.256 . S
O32 Mn27 2.251 . S
O32 C37 1.241 . S
O33 Mn27 2.087 . S
O33 C38 1.256 . S
C34 O40 1.278 . S
C34 O41 1.241 . S
C35 O21 1.244 . S
C35 O23 1.256 . S
C36 O25 1.239 . S
C36 O29 1.256 . S
C37 O26 1.278 . S
C37 O32 1.241 . S
C38 O28 1.244 . S
C38 O33 1.256 . S
C39 O30 1.239 . S
C39 O31 1.256 . S
O40 Mn22 2.221 . S
O40 Mn24 2.290 . S
O40 C34 1.278 . S
O41 Mn24 2.251 . S
O41 C34 1.241 . S
C42 C43 1.391 . S
C42 C46 1.391 . S
C42 H84 0.948 . S
C43 C42 1.391 . S
C43 C44 1.391 . S
C44 C43 1.391 . S
C44 H100 0.947 . S
C44 C101 1.392 . S
C45 C46 1.391 . S
C45 C49 1.397 . S
C45 C101 1.419 . S
C46 C42 1.391 . S
C46 C45 1.391 . S
C46 C47 1.399 . S
C47 C46 1.399 . S
C47 C50 1.396 . S
C47 C59 1.453 1_565 S
C47 C60 1.684 . S
H48 C72 0.948 . S
C49 C45 1.397 . S
C49 C50 1.394 . S
C49 C68 1.723 . S
C50 C47 1.396 . S
C50 C49 1.394 . S
C50 C80 1.723 1_565 S
H51 C74 0.947 . S
H52 C75 0.948 . S
H53 C81 0.982 1_455 S
H54 C82 0.979 . S
H55 C82 0.980 . S
H56 C82 0.983 . S
H57 C81 0.979 . S
H58 C81 0.977 . S
C59 C47 1.453 1_545 S
C59 H88 0.982 . S
C59 H89 0.979 1_545 S
C59 H90 0.977 . S
C60 C47 1.684 . S
C60 H85 0.979 1_455 S
C60 H86 0.980 1_455 S
C60 H87 0.983 . S
C61 C62 1.391 . S
C61 C66 1.391 . S
C61 H91 0.948 . S
C62 C61 1.391 . S
C62 C63 1.391 1_565 S
C63 C62 1.391 1_545 S
C63 C64 1.392 1_455 S
C63 H92 0.947 1_455 S
C64 C63 1.392 1_655 S
C64 C65 1.419 1_655 S
C64 H93 0.948 . S
C65 C64 1.419 1_455 S
C65 C66 1.391 1_545 S
C65 C69 1.397 . S
C66 C61 1.391 . S
C66 C65 1.391 1_565 S
C66 C67 1.399 . S
C67 C66 1.399 . S
C67 C68 1.396 . S
C67 C70 1.453 . S
C67 C71 1.684 . S
C68 C49 1.723 . S
C68 C67 1.396 . S
C68 C69 1.394 1_565 S
C69 C65 1.397 . S
C69 C68 1.394 1_545 S
C69 C79 1.727 . S
C70 C67 1.453 . S
C70 H94 0.982 . S
C70 H95 0.979 . S
C70 H96 0.977 . S
C71 C67 1.684 . S
C71 H97 0.979 . S
C71 H98 0.980 . S
C71 H99 0.983 . S
C72 H48 0.948 . S
C72 C73 1.391 . S
C72 C77 1.391 . S
C73 C72 1.391 . S
C73 C74 1.391 . S
C74 H51 0.947 . S
C74 C73 1.391 . S
C74 C75 1.392 . S
C75 H52 0.948 . S
C75 C74 1.392 . S
C75 C76 1.419 . S
C76 C75 1.419 . S
C76 C77 1.391 . S
C76 C80 1.397 1_655 S
C77 C72 1.391 . S
C77 C76 1.391 . S
C77 C78 1.399 . S
C78 C77 1.399 . S
C78 C79 1.391 1_655 S
C78 C81 1.453 . S
C78 C82 1.684 . S
C79 C69 1.727 . S
C79 C78 1.391 1_455 S
C79 C80 1.395 . S
C80 C50 1.723 1_545 S
C80 C76 1.397 1_455 S
C80 C79 1.395 . S
C81 H53 0.982 1_655 S
C81 H57 0.979 . S
C81 H58 0.977 . S
C81 C78 1.453 . S
C82 H54 0.979 . S
C82 H55 0.980 . S
C82 H56 0.983 . S
C82 C78 1.684 . S
H83 C101 0.948 . S
H84 C42 0.948 . S
H85 C60 0.979 1_655 S
H86 C60 0.980 1_655 S
H87 C60 0.983 . S
H88 C59 0.982 . S
H89 C59 0.979 1_565 S
H90 C59 0.977 . S
H91 C61 0.948 . S
H92 C63 0.947 1_655 S
H93 C64 0.948 . S
H94 C70 0.982 . S
H95 C70 0.979 . S
H96 C70 0.977 . S
H97 C71 0.979 . S
H98 C71 0.980 . S
H99 C71 0.983 . S
H100 C44 0.947 . S
C101 C44 1.392 . S
C101 C45 1.419 . S
C101 H83 0.948 . S
C102 C103 1.391 . S
C102 C106 1.391 . S
C102 H144 0.948 . S
C103 C102 1.391 . S
C103 C104 1.391 . S
C104 C103 1.391 . S
C104 H160 0.947 . S
C104 C161 1.392 . S
C105 C106 1.391 . S
C105 C109 1.397 . S
C105 C161 1.419 . S
C106 C102 1.391 . S
C106 C105 1.391 . S
C106 C107 1.399 . S
C107 C106 1.399 . S
C107 C110 1.396 . S
C107 C119 1.453 . S
C107 C120 1.684 1_455 S
H108 C132 0.948 . S
C109 C105 1.397 . S
C109 C110 1.394 . S
C109 C128 1.723 . S
C110 C107 1.396 . S
C110 C109 1.394 . S
C110 C140 1.723 1_455 S
H111 C134 0.947 . S
H112 C135 0.948 . S
H113 C141 0.982 . S
H114 C142 0.979 . S
H115 C142 0.980 . S
H116 C142 0.983 1_565 S
H117 C141 0.979 . S
H118 C141 0.977 . S
C119 C107 1.453 . S
C119 H148 0.982 . S
C119 H149 0.979 . S
C119 H150 0.977 . S
C120 C107 1.684 1_655 S
C120 H145 0.979 . S
C120 H146 0.980 . S
C120 H147 0.983 . S
C121 C122 1.391 1_455 S
C121 C126 1.391 . S
C121 H151 0.948 . S
C122 C121 1.391 1_655 S
C122 C123 1.391 . S
C123 C122 1.391 . S
C123 C124 1.392 . S
C123 H152 0.947 . S
C124 C123 1.392 . S
C124 C125 1.419 . S
C124 H153 0.948 . S
C125 C124 1.419 . S
C125 C126 1.391 1_655 S
C125 C129 1.397 . S
C126 C121 1.391 . S
C126 C125 1.391 1_455 S
C126 C127 1.399 . S
C127 C126 1.399 . S
C127 C128 1.396 . S
C127 C130 1.453 . S
C127 C131 1.684 . S
C128 C109 1.723 . S
C128 C127 1.396 . S
C128 C129 1.394 1_455 S
C129 C125 1.397 . S
C129 C128 1.394 1_655 S
C129 C139 1.723 . S
C130 C127 1.453 . S
C130 H154 0.982 . S
C130 H155 0.979 . S
C130 H156 0.977 . S
C131 C127 1.684 . S
C131 H157 0.979 . S
C131 H158 0.980 . S
C131 H159 0.983 . S
C132 H108 0.948 . S
C132 C133 1.391 . S
C132 C137 1.391 . S
C133 C132 1.391 . S
C133 C134 1.391 . S
C134 H111 0.947 . S
C134 C133 1.391 . S
C134 C135 1.392 1_565 S
C135 H112 0.948 . S
C135 C134 1.392 1_545 S
C135 C136 1.419 . S
C136 C135 1.419 . S
C136 C137 1.391 1_545 S
C136 C140 1.397 . S
C137 C132 1.391 . S
C137 C136 1.391 1_565 S
C137 C138 1.399 1_565 S
C138 C137 1.399 1_545 S
C138 C139 1.397 . S
C138 C141 1.452 1_545 S
C138 C142 1.684 . S
C139 C129 1.723 . S
C139 C138 1.397 . S
C139 C140 1.394 . S
C140 C110 1.723 1_655 S
C140 C136 1.397 . S
C140 C139 1.394 . S
C141 H113 0.982 . S
C141 H117 0.979 . S
C141 H118 0.977 . S
C141 C138 1.452 1_565 S
C142 H114 0.979 . S
C142 H115 0.980 . S
C142 H116 0.983 1_545 S
C142 C138 1.684 . S
H143 C161 0.948 . S
H144 C102 0.948 . S
H145 C120 0.979 . S
H146 C120 0.980 . S
H147 C120 0.983 . S
H148 C119 0.982 . S
H149 C119 0.979 . S
H150 C119 0.977 . S
H151 C121 0.948 . S
H152 C123 0.947 . S
H153 C124 0.948 . S
H154 C130 0.982 . S
H155 C130 0.979 . S
H156 C130 0.977 . S
H157 C131 0.979 . S
H158 C131 0.980 . S
H159 C131 0.983 . S
H160 C104 0.947 . S
C161 C104 1.392 . S
C161 C105 1.419 . S
C161 H143 0.948 . S
C162 C163 1.391 . S
C162 C166 1.391 . S
C162 H204 0.948 1_556 S
C163 C162 1.391 . S
C163 C164 1.391 . S
C164 C163 1.391 . S
C164 H220 0.947 . S
C164 C221 1.392 . S
C165 C166 1.391 . S
C165 C169 1.397 . S
C165 C221 1.419 . S
C166 C162 1.391 . S
C166 C165 1.391 . S
C166 C167 1.399 . S
C167 C166 1.399 . S
C167 C170 1.396 . S
C167 C179 1.453 . S
C167 C180 1.684 1_556 S
H168 C192 0.948 . S
C169 C165 1.397 . S
C169 C170 1.394 . S
C169 C188 1.723 . S
C170 C167 1.396 . S
C170 C169 1.394 . S
C170 C200 1.723 . S
H171 C194 0.947 . S
H172 C195 0.966 . S
H173 C201 0.982 . S
H174 C202 0.979 . S
H175 C202 0.980 . S
H176 C202 0.983 . S
H177 C201 0.979 . S
H178 C201 0.977 . S
C179 C167 1.453 . S
C179 H208 0.982 . S
C179 H209 0.979 1_556 S
C179 H210 0.974 1_556 S
C180 C167 1.684 1_554 S
C180 H205 0.979 1_554 S
C180 H206 0.980 . S
C180 H207 0.983 . S
C181 C182 1.391 . S
C181 C186 1.391 . S
C181 H211 0.948 . S
C182 C181 1.391 . S
C182 C183 1.391 . S
C183 C182 1.391 . S
C183 C184 1.392 . S
C183 H212 0.947 . S
C184 C183 1.392 . S
C184 C185 1.419 . S
C184 H213 0.948 . S
C185 C184 1.419 . S
C185 C186 1.391 . S
C185 C189 1.397 . S
C186 C181 1.391 . S
C186 C185 1.391 . S
C186 C187 1.399 . S
C187 C186 1.399 . S
C187 C188 1.396 . S
C187 C190 1.453 . S
C187 C191 1.684 . S
C188 C169 1.723 . S
C188 C187 1.396 . S
C188 C189 1.394 . S
C189 C185 1.397 . S
C189 C188 1.394 . S
C189 C199 1.723 . S
C190 C187 1.453 . S
C190 H214 0.982 . S
C190 H215 0.979 . S
C190 H216 0.977 . S
C191 C187 1.684 . S
C191 H217 0.979 . S
C191 H218 0.980 . S
C191 H219 0.983 . S
C192 H168 0.948 . S
C192 C193 1.391 . S
C192 C197 1.391 . S
C193 C192 1.391 . S
C193 C194 1.391 1_556 S
C194 H171 0.947 . S
C194 C193 1.391 1_554 S
C194 C195 1.392 1_554 S
C195 H172 0.966 . S
C195 C194 1.392 1_556 S
C195 C196 1.419 . S
C196 C195 1.419 . S
C196 C197 1.391 . S
C196 C200 1.397 . S
C197 C192 1.391 . S
C197 C196 1.391 . S
C197 C198 1.399 . S
C198 C197 1.399 . S
C198 C199 1.396 . S
C198 C201 1.453 . S
C198 C202 1.684 . S
C199 C189 1.723 . S
C199 C198 1.396 . S
C199 C200 1.394 . S
C200 C170 1.723 . S
C200 C196 1.397 . S
C200 C199 1.394 . S
C201 H173 0.982 . S
C201 H177 0.979 . S
C201 H178 0.977 . S
C201 C198 1.453 . S
C202 H174 0.979 . S
C202 H175 0.980 . S
C202 H176 0.983 . S
C202 C198 1.684 . S
H203 C221 0.948 . S
H204 C162 0.948 1_554 S
H205 C180 0.979 1_556 S
H206 C180 0.980 . S
H207 C180 0.983 . S
H208 C179 0.982 . S
H209 C179 0.979 1_554 S
H210 C179 0.974 1_554 S
H211 C181 0.948 . S
H212 C183 0.947 . S
H213 C184 0.948 . S
H214 C190 0.982 . S
H215 C190 0.979 . S
H216 C190 0.977 . S
H217 C191 0.979 . S
H218 C191 0.980 . S
H219 C191 0.983 . S
H220 C164 0.947 . S
C221 C164 1.392 . S
C221 C165 1.419 . S
C221 H203 0.948 . S
C222 C223 1.391 . S
C222 C226 1.391 . S
C222 H264 0.948 . S
C223 C222 1.391 . S
C223 C224 1.391 . S
C224 C223 1.391 . S
C224 H280 0.947 . S
C224 C281 1.392 . S
C225 C226 1.391 . S
C225 C229 1.397 . S
C225 C281 1.419 . S
C226 C222 1.391 . S
C226 C225 1.391 . S
C226 C227 1.399 . S
C227 C226 1.399 . S
C227 C230 1.396 . S
C227 C239 1.453 . S
C227 C240 1.684 . S
H228 C252 0.948 . S
C229 C225 1.397 . S
C229 C230 1.394 . S
C229 C248 1.723 . S
C230 C227 1.396 . S
C230 C229 1.394 . S
C230 C260 1.723 . S
H231 C254 0.947 1_556 S
H232 C255 0.948 . S
H233 C261 0.982 . S
H234 C262 0.979 . S
H235 C262 0.980 . S
H236 C262 0.983 . S
H237 C261 0.979 . S
H238 C261 0.977 . S
C239 C227 1.453 . S
C239 H268 0.982 . S
C239 H269 0.979 . S
C239 H270 0.977 . S
C240 C227 1.684 . S
C240 H265 0.979 . S
C240 H266 0.980 . S
C240 H267 0.983 1_554 S
C241 C242 1.391 . S
C241 C246 1.391 . S
C241 H271 0.948 . S
C242 C241 1.391 . S
C242 C243 1.391 . S
C243 C242 1.391 . S
C243 C244 1.392 . S
C243 H272 0.947 . S
C244 C243 1.392 . S
C244 C245 1.419 . S
C244 H273 0.948 . S
C245 C244 1.419 . S
C245 C246 1.391 . S
C245 C249 1.397 . S
C246 C241 1.391 . S
C246 C245 1.391 . S
C246 C247 1.399 . S
C247 C246 1.399 . S
C247 C248 1.396 . S
C247 C250 1.453 . S
C247 C251 1.684 . S
C248 C229 1.723 . S
C248 C247 1.396 . S
C248 C249 1.394 . S
C249 C245 1.397 . S
C249 C248 1.394 . S
C249 C259 1.723 . S
C250 C247 1.453 . S
C250 H274 0.982 . S
C250 H275 0.979 . S
C250 H276 0.977 . S
C251 C247 1.684 . S
C251 H277 0.979 . S
C251 H278 0.980 . S
C251 H279 0.983 . S
C252 H228 0.948 . S
C252 C253 1.391 . S
C252 C257 1.391 . S
C253 C252 1.391 . S
C253 C254 1.391 . S
C254 H231 0.947 1_554 S
C254 C253 1.391 . S
C254 C255 1.392 . S
C255 H232 0.948 . S
C255 C254 1.392 . S
C255 C256 1.419 . S
C256 C255 1.419 . S
C256 C257 1.391 . S
C256 C260 1.397 . S
C257 C252 1.391 . S
C257 C256 1.391 . S
C257 C258 1.399 . S
C258 C257 1.399 . S
C258 C259 1.396 . S
C258 C261 1.453 . S
C258 C262 1.684 . S
C259 C249 1.723 . S
C259 C258 1.396 . S
C259 C260 1.394 . S
C260 C230 1.723 . S
C260 C256 1.397 . S
C260 C259 1.394 . S
C261 H233 0.982 . S
C261 H237 0.979 . S
C261 H238 0.977 . S
C261 C258 1.453 . S
C262 H234 0.979 . S
C262 H235 0.980 . S
C262 H236 0.983 . S
C262 C258 1.684 . S
H263 C281 0.948 . S
H264 C222 0.948 . S
H265 C240 0.979 . S
H266 C240 0.980 . S
H267 C240 0.983 1_556 S
H268 C239 0.982 . S
H269 C239 0.979 . S
H270 C239 0.977 . S
H271 C241 0.948 . S
H272 C243 0.947 . S
H273 C244 0.948 . S
H274 C250 0.982 . S
H275 C250 0.979 . S
H276 C250 0.977 . S
H277 C251 0.979 . S
H278 C251 0.980 . S
H279 C251 0.983 . S
H280 C224 0.947 . S
C281 C224 1.392 . S
C281 C225 1.419 . S
C281 H263 0.948 . S
C282 C283 1.391 . S
C282 C284 1.394 . S
C282 H298 0.935 . S
C283 C282 1.391 . S
C283 C287 1.376 . S
C284 C282 1.394 . S
C284 C285 1.369 . S
C284 C288 1.532 . S
C285 C284 1.369 . S
C285 C286 1.410 . S
C285 C293 1.503 . S
C286 C285 1.410 . S
C286 C287 1.392 . S
C286 C289 1.511 . S
C287 C283 1.376 . S
C287 C286 1.392 . S
C287 H299 0.929 . S
C288 C284 1.532 . S
C288 H300 0.956 1_554 S
C288 H301 0.969 . S
C288 H302 0.956 1_554 S
C289 C286 1.511 . S
C289 H303 0.961 . S
C289 H304 0.961 . S
C289 H305 0.961 . S
C290 C291 1.370 . S
C290 C292 1.363 . S
C290 H306 0.931 . S
C291 C290 1.370 . S
C291 C295 1.408 1_554 S
C292 C290 1.363 . S
C292 C293 1.370 . S
C292 C296 1.524 . S
C293 C285 1.503 . S
C293 C292 1.370 . S
C293 C294 1.403 1_554 S
C294 C293 1.403 1_556 S
C294 C295 1.404 . S
C294 C297 1.539 . S
C295 C291 1.408 1_556 S
C295 C294 1.404 . S
C295 H307 0.930 . S
C296 C292 1.524 . S
C296 H308 0.956 . S
C296 H309 0.961 . S
C296 H310 0.961 . S
C297 C294 1.539 . S
C297 H311 0.958 . S
C297 H312 0.961 . S
C297 H313 0.960 . S
H298 C282 0.935 . S
H299 C287 0.929 . S
H300 C288 0.956 1_556 S
H301 C288 0.969 . S
H302 C288 0.956 1_556 S
H303 C289 0.961 . S
H304 C289 0.961 . S
H305 C289 0.961 . S
H306 C290 0.931 . S
H307 C295 0.930 . S
H308 C296 0.956 . S
H309 C296 0.961 . S
H310 C296 0.961 . S
H311 C297 0.958 . S
H312 C297 0.961 . S
H313 C297 0.960 . S
C314 C315 1.391 1_556 S
C314 C316 1.394 . S
C314 H330 0.931 . S
C315 C314 1.391 1_554 S
C315 C319 1.376 . S
C316 C314 1.394 . S
C316 C317 1.369 . S
C316 C320 1.531 . S
C317 C316 1.369 . S
C317 C318 1.410 1_556 S
C317 C325 1.503 . S
C318 C317 1.410 1_554 S
C318 C319 1.392 . S
C318 C321 1.511 . S
C319 C315 1.376 . S
C319 C318 1.392 . S
C319 H331 0.929 . S
C320 C316 1.531 . S
C320 H332 0.960 . S
C320 H333 0.962 . S
C320 H334 0.960 . S
C321 C318 1.511 . S
C321 H335 0.961 . S
C321 H336 0.961 . S
C321 H337 0.961 . S
C322 C323 1.370 1_554 S
C322 C324 1.363 . S
C322 H338 0.931 . S
C323 C322 1.370 1_556 S
C323 C327 1.408 . S
C324 C322 1.363 . S
C324 C325 1.370 1_554 S
C324 C328 1.524 . S
C325 C317 1.503 . S
C325 C324 1.370 1_556 S
C325 C326 1.403 . S
C326 C325 1.403 . S
C326 C327 1.404 . S
C326 C329 1.539 . S
C327 C323 1.408 . S
C327 C326 1.404 . S
C327 H339 0.930 . S
C328 C324 1.524 . S
C328 H340 0.970 . S
C328 H341 0.961 . S
C328 H342 0.961 . S
C329 C326 1.539 . S
C329 H343 0.958 . S
C329 H344 0.961 . S
C329 H345 0.960 . S
H330 C314 0.931 . S
H331 C319 0.929 . S
H332 C320 0.960 . S
H333 C320 0.962 . S
H334 C320 0.960 . S
H335 C321 0.961 . S
H336 C321 0.961 . S
H337 C321 0.961 . S
H338 C322 0.931 . S
H339 C327 0.930 . S
H340 C328 0.970 . S
H341 C328 0.961 . S
H342 C328 0.961 . S
H343 C329 0.958 . S
H344 C329 0.961 . S
H345 C329 0.960 . S
C346 C347 1.391 . S
C346 C348 1.394 . S
C346 H362 0.931 1_554 S
C347 C346 1.391 . S
C347 C351 1.376 . S
C348 C346 1.394 . S
C348 C349 1.369 . S
C348 C352 1.531 1_554 S
C349 C348 1.369 . S
C349 C350 1.410 . S
C349 C357 1.503 . S
C350 C349 1.410 . S
C350 C351 1.392 . S
C350 C353 1.511 . S
C351 C347 1.376 . S
C351 C350 1.392 . S
C351 H363 0.929 . S
C352 C348 1.531 1_556 S
C352 H364 0.960 . S
C352 H365 0.962 1_556 S
C352 H366 0.960 . S
C353 C350 1.511 . S
C353 H367 0.961 . S
C353 H368 0.961 . S
C353 H369 0.961 . S
C354 C355 1.370 . S
C354 C356 1.363 . S
C354 H370 0.931 . S
C355 C354 1.370 . S
C355 C359 1.408 . S
C356 C354 1.363 . S
C356 C357 1.370 . S
C356 C360 1.524 . S
C357 C349 1.503 . S
C357 C356 1.370 . S
C357 C358 1.403 . S
C358 C357 1.403 . S
C358 C359 1.404 . S
C358 C361 1.539 1_554 S
C359 C355 1.408 . S
C359 C358 1.404 . S
C359 H371 0.930 1_554 S
C360 C356 1.524 . S
C360 H372 0.956 . S
C360 H373 0.961 . S
C360 H374 0.961 . S
C361 C358 1.539 1_556 S
C361 H375 0.958 . S
C361 H376 0.961 . S
C361 H377 0.960 . S
H362 C346 0.931 1_556 S
H363 C351 0.929 . S
H364 C352 0.960 . S
H365 C352 0.962 1_554 S
H366 C352 0.960 . S
H367 C353 0.961 . S
H368 C353 0.961 . S
H369 C353 0.961 . S
H370 C354 0.931 . S
H371 C359 0.930 1_556 S
H372 C360 0.956 . S
H373 C360 0.961 . S
H374 C360 0.961 . S
H375 C361 0.958 . S
H376 C361 0.961 . S
H377 C361 0.960 . S
C378 C379 1.391 1_556 S
C378 C380 1.394 . S
C378 H394 0.931 . S
C379 C378 1.391 1_554 S
C379 C383 1.376 . S
C380 C378 1.394 . S
C380 C381 1.369 . S
C380 C384 1.531 . S
C381 C380 1.369 . S
C381 C382 1.410 1_556 S
C381 C389 1.503 . S
C382 C381 1.410 1_554 S
C382 C383 1.392 . S
C382 C385 1.511 . S
C383 C379 1.376 . S
C383 C382 1.392 . S
C383 H395 0.929 . S
C384 C380 1.531 . S
C384 H396 0.960 . S
C384 H397 0.962 . S
C384 H398 0.960 . S
C385 C382 1.511 . S
C385 H399 0.961 . S
C385 H400 0.961 . S
C385 H401 0.961 . S
C386 C387 1.370 . S
C386 C388 1.363 . S
C386 H402 0.931 . S
C387 C386 1.370 . S
C387 C391 1.408 1_556 S
C388 C386 1.363 . S
C388 C389 1.370 . S
C388 C392 1.524 . S
C389 C381 1.503 . S
C389 C388 1.370 . S
C389 C390 1.403 1_556 S
C390 C389 1.403 1_554 S
C390 C391 1.404 . S
C390 C393 1.539 . S
C391 C387 1.408 1_554 S
C391 C390 1.404 . S
C391 H403 0.930 . S
C392 C388 1.524 . S
C392 H404 0.956 . S
C392 H405 0.961 . S
C392 H406 0.961 . S
C393 C390 1.539 . S
C393 H407 0.958 . S
C393 H408 0.961 . S
C393 H409 0.960 . S
H394 C378 0.931 . S
H395 C383 0.929 . S
H396 C384 0.960 . S
H397 C384 0.962 . S
H398 C384 0.960 . S
H399 C385 0.961 . S
H400 C385 0.961 . S
H401 C385 0.961 . S
H402 C386 0.931 . S
H403 C391 0.930 . S
H404 C392 0.956 . S
H405 C392 0.961 . S
H406 C392 0.961 . S
H407 C393 0.958 . S
H408 C393 0.961 . S
H409 C393 0.960 . S
C410 C411 1.391 . S
C410 C412 1.394 . S
C410 H426 0.931 . S
C411 C410 1.391 . S
C411 C415 1.376 . S
C412 C410 1.394 . S
C412 C413 1.369 . S
C412 C416 1.531 . S
C413 C412 1.369 . S
C413 C414 1.410 . S
C413 C421 1.503 . S
C414 C413 1.410 . S
C414 C415 1.392 . S
C414 C417 1.511 . S
C415 C411 1.376 . S
C415 C414 1.392 . S
C415 H427 0.929 . S
C416 C412 1.531 . S
C416 H428 0.960 . S
C416 H429 0.962 . S
C416 H430 0.960 . S
C417 C414 1.511 . S
C417 H431 0.961 . S
C417 H432 0.961 . S
C417 H433 0.961 . S
C418 C419 1.370 . S
C418 C420 1.363 . S
C418 H434 0.931 . S
C419 C418 1.370 . S
C419 C423 1.408 . S
C420 C418 1.363 . S
C420 C421 1.370 . S
C420 C424 1.524 . S
C421 C413 1.503 . S
C421 C420 1.370 . S
C421 C422 1.403 . S
C422 C421 1.403 . S
C422 C423 1.404 . S
C422 C425 1.539 . S
C423 C419 1.408 . S
C423 C422 1.404 . S
C423 H435 0.930 . S
C424 C420 1.524 . S
C424 H436 0.956 . S
C424 H437 0.961 . S
C424 H438 0.961 . S
C425 C422 1.539 . S
C425 H439 0.958 . S
C425 H440 0.961 . S
C425 H441 0.960 . S
H426 C410 0.931 . S
H427 C415 0.929 . S
H428 C416 0.960 . S
H429 C416 0.962 . S
H430 C416 0.960 . S
H431 C417 0.961 . S
H432 C417 0.961 . S
H433 C417 0.961 . S
H434 C418 0.931 . S
H435 C423 0.930 . S
H436 C424 0.956 . S
H437 C424 0.961 . S
H438 C424 0.961 . S
H439 C425 0.958 . S
H440 C425 0.961 . S
H441 C425 0.960 . S
C442 C443 1.391 . S
C442 C444 1.394 . S
C442 H458 0.931 . S
C443 C442 1.391 . S
C443 C447 1.376 . S
C444 C442 1.394 . S
C444 C445 1.369 . S
C444 C448 1.531 . S
C445 C444 1.369 . S
C445 C446 1.410 . S
C445 C453 1.503 . S
C446 C445 1.410 . S
C446 C447 1.392 . S
C446 C449 1.511 . S
C447 C443 1.376 . S
C447 C446 1.392 . S
C447 H459 0.929 . S
C448 C444 1.531 . S
C448 H460 0.960 . S
C448 H461 0.962 . S
C448 H462 0.960 . S
C449 C446 1.511 . S
C449 H463 0.961 . S
C449 H464 0.961 . S
C449 H465 0.961 . S
C450 C451 1.370 . S
C450 C452 1.363 . S
C450 H466 0.931 . S
C451 C450 1.370 . S
C451 C455 1.408 . S
C452 C450 1.363 . S
C452 C453 1.370 . S
C452 C456 1.524 . S
C453 C445 1.503 . S
C453 C452 1.370 . S
C453 C454 1.403 . S
C454 C453 1.403 . S
C454 C455 1.404 . S
C454 C457 1.539 . S
C455 C451 1.408 . S
C455 C454 1.404 . S
C455 H467 0.930 . S
C456 C452 1.524 . S
C456 H468 0.956 . S
C456 H469 0.961 . S
C456 H470 0.961 . S
C457 C454 1.539 . S
C457 H471 0.958 . S
C457 H472 0.961 . S
C457 H473 0.960 . S
H458 C442 0.931 . S
H459 C447 0.929 . S
H460 C448 0.960 . S
H461 C448 0.962 . S
H462 C448 0.960 . S
H463 C449 0.961 . S
H464 C449 0.961 . S
H465 C449 0.961 . S
H466 C450 0.931 . S
H467 C455 0.930 . S
H468 C456 0.956 . S
H469 C456 0.961 . S
H470 C456 0.961 . S
H471 C457 0.958 . S
H472 C457 0.961 . S
H473 C457 0.960 . S
C474 C475 1.391 . S
C474 C476 1.394 . S
C474 H490 0.931 . S
C475 C474 1.391 . S
C475 C479 1.376 . S
C476 C474 1.394 . S
C476 C477 1.369 . S
C476 C480 1.531 . S
C477 C476 1.369 . S
C477 C478 1.410 . S
C477 C485 1.503 . S
C478 C477 1.410 . S
C478 C479 1.392 . S
C478 C481 1.511 . S
C479 C475 1.376 . S
C479 C478 1.392 . S
C479 H491 0.929 . S
C480 C476 1.531 . S
C480 H492 0.960 . S
C480 H493 0.962 . S
C480 H494 0.960 . S
C481 C478 1.511 . S
C481 H495 0.961 . S
C481 H496 0.961 . S
C481 H497 0.961 . S
C482 C483 1.370 . S
C482 C484 1.363 . S
C482 H498 0.931 . S
C483 C482 1.370 . S
C483 C487 1.408 . S
C484 C482 1.363 . S
C484 C485 1.370 . S
C484 C488 1.524 . S
C485 C477 1.503 . S
C485 C484 1.370 . S
C485 C486 1.403 . S
C486 C485 1.403 . S
C486 C487 1.404 . S
C486 C489 1.539 . S
C487 C483 1.408 . S
C487 C486 1.404 . S
C487 H499 0.930 . S
C488 C484 1.524 . S
C488 H500 0.956 . S
C488 H501 0.961 . S
C488 H502 0.961 . S
C489 C486 1.539 . S
C489 H503 0.958 . S
C489 H504 0.961 . S
C489 H505 0.960 . S
H490 C474 0.931 . S
H491 C479 0.929 . S
H492 C480 0.960 . S
H493 C480 0.962 . S
H494 C480 0.960 . S
H495 C481 0.961 . S
H496 C481 0.961 . S
H497 C481 0.961 . S
H498 C482 0.931 . S
H499 C487 0.930 . S
H500 C488 0.956 . S
H501 C488 0.961 . S
H502 C488 0.961 . S
H503 C489 0.958 . S
H504 C489 0.961 . S
H505 C489 0.960 . S
C506 C507 1.391 . S
C506 C508 1.394 . S
C506 H522 0.931 . S
C507 C506 1.391 . S
C507 C511 1.376 . S
C508 C506 1.394 . S
C508 C509 1.369 . S
C508 C512 1.531 . S
C509 C508 1.369 . S
C509 C510 1.410 . S
C509 C517 1.503 . S
C510 C509 1.410 . S
C510 C511 1.392 . S
C510 C513 1.511 . S
C511 C507 1.376 . S
C511 C510 1.392 . S
C511 H523 0.929 . S
C512 C508 1.531 . S
C512 H524 0.960 . S
C512 H525 0.962 . S
C512 H526 0.960 . S
C513 C510 1.511 . S
C513 H527 0.961 . S
C513 H528 0.961 . S
C513 H529 0.961 . S
C514 C515 1.370 . S
C514 C516 1.363 . S
C514 H530 0.931 . S
C515 C514 1.370 . S
C515 C519 1.408 . S
C516 C514 1.363 . S
C516 C517 1.370 . S
C516 C520 1.524 . S
C517 C509 1.503 . S
C517 C516 1.370 . S
C517 C518 1.403 . S
C518 C517 1.403 . S
C518 C519 1.404 . S
C518 C521 1.539 . S
C519 C515 1.408 . S
C519 C518 1.404 . S
C519 H531 0.930 . S
C520 C516 1.524 . S
C520 H532 0.956 . S
C520 H533 0.961 . S
C520 H534 0.961 . S
C521 C518 1.539 . S
C521 H535 0.958 . S
C521 H536 0.961 . S
C521 H537 0.960 . S
H522 C506 0.931 . S
H523 C511 0.929 . S
H524 C512 0.960 . S
H525 C512 0.962 . S
H526 C512 0.960 . S
H527 C513 0.961 . S
H528 C513 0.961 . S
H529 C513 0.961 . S
H530 C514 0.931 . S
H531 C519 0.930 . S
H532 C520 0.956 . S
H533 C520 0.961 . S
H534 C520 0.961 . S
H535 C521 0.958 . S
H536 C521 0.961 . S
H537 C521 0.960 . S
C538 C539 1.391 1_565 S
C538 C540 1.394 . S
C538 H554 0.931 . S
C539 C538 1.391 1_545 S
C539 C543 1.376 . S
C540 C538 1.394 . S
C540 C541 1.362 1_565 S
C540 C544 1.531 . S
C541 C540 1.362 1_545 S
C541 C542 1.419 . S
C541 C549 1.502 1_545 S
C542 C541 1.419 . S
C542 C543 1.392 . S
C542 C545 1.511 . S
C543 C539 1.376 . S
C543 C542 1.392 . S
C543 H555 0.929 . S
C544 C540 1.531 . S
C544 H556 0.960 . S
C544 H557 0.962 1_455 S
C544 H558 0.960 1_455 S
C545 C542 1.511 . S
C545 H559 0.961 . S
C545 H560 0.961 . S
C545 H561 0.961 . S
C546 C547 1.370 1_545 S
C546 C548 1.363 . S
C546 H562 0.931 1_455 S
C547 C546 1.370 1_565 S
C547 C551 1.408 . S
C548 C546 1.363 . S
C548 C549 1.370 1_545 S
C548 C552 1.524 1_455 S
C549 C541 1.502 1_565 S
C549 C548 1.370 1_565 S
C549 C550 1.403 . S
C550 C549 1.403 . S
C550 C551 1.404 . S
C550 C553 1.539 . S
C551 C547 1.408 . S
C551 C550 1.404 . S
C551 H563 0.930 . S
C552 C548 1.524 1_655 S
C552 H564 0.956 . S
C552 H565 0.961 . S
C552 H566 0.961 . S
C553 C550 1.539 . S
C553 H567 0.958 . S
C553 H568 0.961 . S
C553 H569 0.960 . S
H554 C538 0.931 . S
H555 C543 0.929 . S
H556 C544 0.960 . S
H557 C544 0.962 1_655 S
H558 C544 0.960 1_655 S
H559 C545 0.961 . S
H560 C545 0.961 . S
H561 C545 0.961 . S
H562 C546 0.931 1_655 S
H563 C551 0.930 . S
H564 C552 0.956 . S
H565 C552 0.961 . S
H566 C552 0.961 . S
H567 C553 0.958 . S
H568 C553 0.961 . S
H569 C553 0.960 . S
C570 C571 1.391 . S
C570 C572 1.394 . S
C570 H586 0.931 . S
C571 C570 1.391 . S
C571 C575 1.376 1_455 S
C572 C570 1.394 . S
C572 C573 1.369 . S
C572 C576 1.531 . S
C573 C572 1.369 . S
C573 C574 1.410 1_455 S
C573 C581 1.503 . S
C574 C573 1.410 1_655 S
C574 C575 1.392 . S
C574 C577 1.511 . S
C575 C571 1.376 1_655 S
C575 C574 1.392 . S
C575 H587 0.929 . S
C576 C572 1.531 . S
C576 H588 0.960 . S
C576 H589 0.962 . S
C576 H590 0.960 1_545 S
C577 C574 1.511 . S
C577 H591 0.961 . S
C577 H592 0.961 . S
C577 H593 0.961 . S
C578 C579 1.370 . S
C578 C580 1.363 . S
C578 H594 0.931 . S
C579 C578 1.370 . S
C579 C583 1.408 1_455 S
C580 C578 1.363 . S
C580 C581 1.370 . S
C580 C584 1.524 . S
C581 C573 1.503 . S
C581 C580 1.370 . S
C581 C582 1.403 1_455 S
C582 C581 1.403 1_655 S
C582 C583 1.404 . S
C582 C585 1.539 1_545 S
C583 C579 1.408 1_655 S
C583 C582 1.404 . S
C583 H595 0.930 . S
C584 C580 1.524 . S
C584 H596 0.956 . S
C584 H597 0.961 . S
C584 H598 0.961 . S
C585 C582 1.539 1_565 S
C585 H599 0.958 . S
C585 H600 0.961 . S
C585 H601 0.960 . S
H586 C570 0.931 . S
H587 C575 0.929 . S
H588 C576 0.960 . S
H589 C576 0.962 . S
H590 C576 0.960 1_565 S
H591 C577 0.961 . S
H592 C577 0.961 . S
H593 C577 0.961 . S
H594 C578 0.931 . S
H595 C583 0.930 . S
H596 C584 0.956 . S
H597 C584 0.961 . S
H598 C584 0.961 . S
H599 C585 0.958 . S
H600 C585 0.961 . S
H601 C585 0.960 . S
C602 C603 1.391 . S
C602 C604 1.394 . S
C602 H618 0.931 . S
C603 C602 1.391 . S
C603 C607 1.376 . S
C604 C602 1.394 . S
C604 C605 1.369 . S
C604 C608 1.531 . S
C605 C604 1.369 . S
C605 C606 1.410 . S
C605 C613 1.503 . S
C606 C605 1.410 . S
C606 C607 1.392 . S
C606 C609 1.511 . S
C607 C603 1.376 . S
C607 C606 1.392 . S
C607 H619 0.929 . S
C608 C604 1.531 . S
C608 H620 0.960 . S
C608 H621 0.962 . S
C608 H622 0.960 . S
C609 C606 1.511 . S
C609 H623 0.961 . S
C609 H624 0.961 . S
C609 H625 0.961 . S
C610 C611 1.370 . S
C610 C612 1.363 . S
C610 H626 0.931 . S
C611 C610 1.370 . S
C611 C615 1.408 . S
C612 C610 1.363 . S
C612 C613 1.370 . S
C612 C616 1.524 . S
C613 C605 1.503 . S
C613 C612 1.370 . S
C613 C614 1.403 . S
C614 C613 1.403 . S
C614 C615 1.404 . S
C614 C617 1.539 . S
C615 C611 1.408 . S
C615 C614 1.404 . S
C615 H627 0.930 . S
C616 C612 1.524 . S
C616 H628 0.956 . S
C616 H629 0.961 . S
C616 H630 0.961 . S
C617 C614 1.539 . S
C617 H631 0.958 . S
C617 H632 0.961 . S
C617 H633 0.960 . S
H618 C602 0.931 . S
H619 C607 0.929 . S
H620 C608 0.960 . S
H621 C608 0.962 . S
H622 C608 0.960 . S
H623 C609 0.961 . S
H624 C609 0.961 . S
H625 C609 0.961 . S
H626 C610 0.931 . S
H627 C615 0.930 . S
H628 C616 0.956 . S
H629 C616 0.961 . S
H630 C616 0.961 . S
H631 C617 0.958 . S
H632 C617 0.961 . S
H633 C617 0.960 . S
C634 C635 1.391 . S
C634 C636 1.394 . S
C634 H650 0.931 . S
C635 C634 1.391 . S
C635 C639 1.376 . S
C636 C634 1.394 . S
C636 C637 1.369 . S
C636 C640 1.531 . S
C637 C636 1.369 . S
C637 C638 1.410 . S
C637 C645 1.503 . S
C638 C637 1.410 . S
C638 C639 1.392 . S
C638 C641 1.511 . S
C639 C635 1.376 . S
C639 C638 1.392 . S
C639 H651 0.929 . S
C640 C636 1.531 . S
C640 H652 0.960 . S
C640 H653 0.962 . S
C640 H654 0.960 . S
C641 C638 1.511 . S
C641 H655 0.961 . S
C641 H656 0.961 . S
C641 H657 0.961 . S
C642 C643 1.370 . S
C642 C644 1.363 . S
C642 H658 0.931 . S
C643 C642 1.370 . S
C643 C647 1.408 . S
C644 C642 1.363 . S
C644 C645 1.370 . S
C644 C648 1.524 . S
C645 C637 1.503 . S
C645 C644 1.370 . S
C645 C646 1.403 . S
C646 C645 1.403 . S
C646 C647 1.404 . S
C646 C649 1.539 . S
C647 C643 1.408 . S
C647 C646 1.404 . S
C647 H659 0.930 . S
C648 C644 1.524 . S
C648 H660 0.956 . S
C648 H661 0.961 . S
C648 H662 0.961 . S
C649 C646 1.539 . S
C649 H663 0.958 . S
C649 H664 0.961 . S
C649 H665 0.960 . S
H650 C634 0.931 . S
H651 C639 0.929 . S
H652 C640 0.960 . S
H653 C640 0.962 . S
H654 C640 0.960 . S
H655 C641 0.961 . S
H656 C641 0.961 . S
H657 C641 0.961 . S
H658 C642 0.931 . S
H659 C647 0.930 . S
H660 C648 0.956 . S
H661 C648 0.961 . S
H662 C648 0.961 . S
H663 C649 0.958 . S
H664 C649 0.961 . S
H665 C649 0.960 . S
C291 C253 1.512 . S
C283 C16 1.382 . S
C315 C15 1.520 . S
C323 C193 1.556 . S
C347 C13 1.276 . S
C355 C223 1.436 . S
C379 C14 1.315 . S
C387 C163 1.330 . S
C411 C37 1.284 . S
C419 C133 1.505 . S
C443 C36 1.520 . S
C451 C73 1.557 . S
C483 C103 1.438 . S
C475 C34 1.259 . S
C515 C43 1.303 . S
C507 C35 1.336 . S
C539 C17 1.503 . S
C547 C62 1.537 . S
C571 C18 1.366 . S
C579 C122 1.400 1_455 S
C611 C182 1.517 . S
C603 C38 1.512 . S
C635 C39 1.380 . S
C643 C242 1.402 . S
