# Generated by pormake.
# Topology zzz, (3,6)-cn, num edge types: 1
# Building blocks:
#     Node 0, Type 0, BuildingBlock: BETDAH_clean_linker_0, # of connection points: 3
#     Node 1, Type 0, BuildingBlock: BETDAH_clean_linker_0, # of connection points: 3
#     Node 2, Type 0, BuildingBlock: BETDAH_clean_linker_0, # of connection points: 3
#     Node 3, Type 0, BuildingBlock: BETDAH_clean_linker_0, # of connection points: 3
#     Node 4, Type 0, BuildingBlock: BETDAH_clean_linker_0, # of connection points: 3
#     Node 5, Type 0, BuildingBlock: BETDAH_clean_linker_0, # of connection points: 3
#     Node 6, Type 0, BuildingBlock: BETDAH_clean_linker_0, # of connection points: 3
#     Node 7, Type 0, BuildingBlock: BETDAH_clean_linker_0, # of connection points: 3
#     Node 8, Type 1, BuildingBlock: FUNLAD_clean_sbu_0, # of connection points: 6
#     Node 9, Type 1, BuildingBlock: FUNLAD_clean_sbu_0, # of connection points: 6
#     Node 10, Type 1, BuildingBlock: FUNLAD_clean_sbu_0, # of connection points: 6
#     Node 11, Type 1, BuildingBlock: FUNLAD_clean_sbu_0, # of connection points: 6
#     Edge 12, Type (0, 1), BuildingBlock: EZIPEK_clean_linker_0, # of connection points: 2
#     Edge 13, Type (0, 1), BuildingBlock: EZIPEK_clean_linker_0, # of connection points: 2
#     Edge 14, Type (0, 1), BuildingBlock: EZIPEK_clean_linker_0, # of connection points: 2
#     Edge 15, Type (0, 1), BuildingBlock: EZIPEK_clean_linker_0, # of connection points: 2
#     Edge 16, Type (0, 1), BuildingBlock: EZIPEK_clean_linker_0, # of connection points: 2
#     Edge 17, Type (0, 1), BuildingBlock: EZIPEK_clean_linker_0, # of connection points: 2
#     Edge 18, Type (0, 1), BuildingBlock: EZIPEK_clean_linker_0, # of connection points: 2
#     Edge 19, Type (0, 1), BuildingBlock: EZIPEK_clean_linker_0, # of connection points: 2
#     Edge 20, Type (0, 1), BuildingBlock: EZIPEK_clean_linker_0, # of connection points: 2
#     Edge 21, Type (0, 1), BuildingBlock: EZIPEK_clean_linker_0, # of connection points: 2
#     Edge 22, Type (0, 1), BuildingBlock: EZIPEK_clean_linker_0, # of connection points: 2
#     Edge 23, Type (0, 1), BuildingBlock: EZIPEK_clean_linker_0, # of connection points: 2
#     Edge 24, Type (0, 1), BuildingBlock: EZIPEK_clean_linker_0, # of connection points: 2
#     Edge 25, Type (0, 1), BuildingBlock: EZIPEK_clean_linker_0, # of connection points: 2
#     Edge 26, Type (0, 1), BuildingBlock: EZIPEK_clean_linker_0, # of connection points: 2
#     Edge 27, Type (0, 1), BuildingBlock: EZIPEK_clean_linker_0, # of connection points: 2
#     Edge 28, Type (0, 1), BuildingBlock: EZIPEK_clean_linker_0, # of connection points: 2
#     Edge 29, Type (0, 1), BuildingBlock: EZIPEK_clean_linker_0, # of connection points: 2
#     Edge 30, Type (0, 1), BuildingBlock: EZIPEK_clean_linker_0, # of connection points: 2
#     Edge 31, Type (0, 1), BuildingBlock: EZIPEK_clean_linker_0, # of connection points: 2
#     Edge 32, Type (0, 1), BuildingBlock: EZIPEK_clean_linker_0, # of connection points: 2
#     Edge 33, Type (0, 1), BuildingBlock: EZIPEK_clean_linker_0, # of connection points: 2
#     Edge 34, Type (0, 1), BuildingBlock: EZIPEK_clean_linker_0, # of connection points: 2
#     Edge 35, Type (0, 1), BuildingBlock: EZIPEK_clean_linker_0, # of connection points: 2
# Relax obj value: 0.112
# Max RMSD: 0.175
# Mean RMSD: 0.094
data_MOF--net-zzz--node1-FUNLAD_clean_sbu_0--node2-BETDAH_clean_linker_0--edge1-EZIPEK_clean_linker_0
_symmetry_space_group_name_H-M    P1
_symmetry_Int_Tables_number       1
_symmetry_cell_setting            triclinic
loop_
_symmetry_equiv_pos_as_xyz
'x, y, z'
_cell_length_a     38.144966
_cell_length_b     43.634096
_cell_length_c     13.078028
_cell_angle_alpha  83.719785
_cell_angle_beta   82.759051
_cell_angle_gamma 89.519174
loop_
_atom_site_label
_atom_site_type_symbol
_atom_site_fract_x
_atom_site_fract_y
_atom_site_fract_z
_atom_type_partial_charge
H0 H 0.90782 0.47895 0.37105 0.0
H1 H 0.82929 0.495 0.16503 0.0
H2 H 0.80976 0.52121 0.47591 0.0
C3 C 0.88111 0.48582 0.35845 0.0
C4 C 0.86041 0.50046 0.43376 0.0
C5 C 0.87081 0.4854 0.26015 0.0
C6 C 0.83682 0.49502 0.24214 0.0
C7 C 0.81371 0.5064 0.32211 0.0
C8 C 0.8261 0.50999 0.41725 0.0
N9 N 0.77902 0.51633 0.30652 0.0
C10 C 0.76429 0.51357 0.21575 0.0
H11 H 0.9958 0.87425 0.06216 0.0
H12 H 0.02394 0.78491 0.97266 0.0
H13 H 0.02915 0.8045 0.28662 0.0
C14 C 1.0031 0.85051 0.08355 0.0
C15 C 0.01199 0.84212 0.18298 0.0
C16 C 0.01009 0.83088 0.00614 0.0
C17 C 0.01906 0.80015 0.03289 0.0
C18 C 0.0239 0.78998 0.13637 0.0
C19 C 0.02212 0.81149 0.20979 0.0
N20 N 0.03265 0.7589 0.16722 0.0
C21 C 0.03212 0.7353 0.10388 0.0
H22 H 0.65598 0.99986 0.19995 0.0
H23 H 0.75627 0.0154 0.01194 0.0
H24 H 0.74985 1.00412 0.34668 0.0
C25 C 0.68456 1.00202 0.194 0.0
C26 C 0.7003 1.00181 0.28404 0.0
C27 C 0.70413 0.00803 0.09662 0.0
C28 C 0.74116 0.01075 0.08785 0.0
C29 C 0.75814 0.00809 0.17847 0.0
C30 C 0.73732 1.00449 0.2767 0.0
N31 N 0.79561 0.00999 0.1746 0.0
C32 C 0.8203 0.01171 0.08539 0.0
H33 H 0.54613 0.60967 0.14157 0.0
H34 H 0.524 0.70293 0.02861 0.0
H35 H 0.5385 0.67937 0.3505 0.0
C36 C 0.54175 0.63353 0.15601 0.0
C37 C 0.54335 0.64167 0.25551 0.0
C38 C 0.53368 0.65513 0.07531 0.0
C39 C 0.52919 0.68615 0.09223 0.0
C40 C 0.53141 0.69513 0.19177 0.0
C41 C 0.53765 0.67265 0.2735 0.0
N42 N 0.52747 0.72638 0.21253 0.0
C43 C 0.52544 0.75129 0.13715 0.0
H44 H 0.15586 0.50471 0.2179 0.0
H45 H 0.24676 0.53559 0.33907 0.0
H46 H 0.25541 0.51379 0.02227 0.0
C47 C 0.18402 0.50972 0.20751 0.0
C48 C 0.20358 0.50834 0.11061 0.0
C49 C 0.19902 0.52082 0.28761 0.0
C50 C 0.23526 0.52729 0.27556 0.0
C51 C 0.2563 0.52309 0.18136 0.0
C52 C 0.24 0.51483 0.09726 0.0
N53 N 0.2935 0.52754 0.16914 0.0
C54 C 0.31248 0.52843 0.25305 0.0
H55 H 0.082 0.12997 0.47887 0.0
H56 H 0.06084 0.22357 0.53408 0.0
H57 H 0.07531 0.19852 0.22118 0.0
C58 C 0.08009 0.15406 0.44883 0.0
C59 C 0.08002 0.16149 0.34253 0.0
C60 C 0.07016 0.17579 0.51769 0.0
C61 C 0.06752 0.20686 0.47968 0.0
C62 C 0.07084 0.2155 0.37161 0.0
C63 C 0.07595 0.19247 0.30352 0.0
N64 N 0.06618 0.24649 0.32948 0.0
C65 C 0.06084 0.27121 0.38857 0.0
H66 H 0.40179 0.00574 0.34522 0.0
H67 H 0.29982 0.00543 0.52694 0.0
H68 H 0.30863 1.00136 0.19532 0.0
C69 C 0.37316 1.00499 0.34968 0.0
C70 C 0.35795 1.00384 0.25906 0.0
C71 C 0.35275 0.00532 0.44583 0.0
C72 C 0.31562 1.00468 0.45246 0.0
C73 C 0.29939 1.00323 0.36161 0.0
C74 C 0.32084 1.00264 0.26519 0.0
N75 N 0.26194 1.00274 0.36286 0.0
C76 C 0.23638 1.00084 0.45011 0.0
H77 H 0.51324 0.39955 0.36492 0.0
H78 H 0.53758 0.3063 0.47231 0.0
H79 H 0.50911 0.32857 0.16387 0.0
C80 C 0.51491 0.37537 0.35216 0.0
C81 C 0.5105 0.36689 0.25478 0.0
C82 C 0.5264 0.35405 0.42822 0.0
C83 C 0.52856 0.3227 0.4131 0.0
C84 C 0.52032 0.31316 0.31914 0.0
C85 C 0.51272 0.33554 0.23891 0.0
N86 N 0.52102 0.28167 0.30025 0.0
C87 C 0.52472 0.25661 0.37386 0.0
C88 C 0.02384 0.94258 0.81052 0.0
N89 N 0.01079 0.99561 0.53718 0.0
C90 C 0.03975 0.99157 0.4676 0.0
C91 C 0.04023 0.96814 0.40317 0.0
C92 C 0.00965 0.95048 0.40366 0.0
C93 C 0.97831 0.95912 0.46132 0.0
C94 C 0.97963 0.98135 0.52994 0.0
Zn95 Zn 0.01996 0.00599 0.68275 0.0
C96 C 0.9543 0.00865 0.83108 0.0
N97 N 0.04366 0.0163 0.98706 0.0
C98 C 0.07585 0.01295 0.02211 0.0
C99 C 0.01984 0.03692 0.0254 0.0
C100 C 0.02892 0.05709 0.0922 0.0
C101 C 0.06266 0.056 0.12291 0.0
C102 C 0.08583 0.03254 0.09208 0.0
Zn103 Zn 0.03416 1.005 0.84389 0.0
O104 O 0.01788 0.95755 0.72569 0.0
C105 C 0.0999 1.00211 0.6972 0.0
O106 O 0.03265 0.95696 0.88328 0.0
H107 H 0.99505 0.04079 -0.00438 0.0
H108 H 0.06382 1.0043 0.46785 0.0
H109 H 0.09483 0.99692 -0.00994 0.0
O110 O 0.07597 1.00305 0.63785 0.0
O111 O 0.09052 1.0025 0.79382 0.0
H112 H 0.95655 0.98449 0.58426 0.0
O113 O 0.03536 0.05327 0.80141 0.0
O114 O 0.02332 0.05414 0.64134 0.0
O115 O 0.97795 0.00593 0.8915 0.0
O116 O 0.96372 0.01006 0.73385 0.0
C117 C 0.03139 0.06834 0.71529 0.0
H118 H 0.0648 0.96285 0.35753 0.0
H119 H 0.95392 0.94658 0.46134 0.0
H120 H 0.01026 0.07475 0.11489 0.0
H121 H 0.11198 0.03081 0.11613 0.0
C122 C 0.47183 1.00071 0.66305 0.0
N123 N 0.52941 0.07791 0.71194 0.0
C124 C 0.49823 0.0927 0.70162 0.0
C125 C 0.4979 0.12301 0.65412 0.0
C126 C 0.52994 0.13839 0.61794 0.0
C127 C 0.5617 0.12324 0.6339 0.0
C128 C 0.56085 0.09278 0.68051 0.0
Zn129 Zn 0.52936 0.03109 0.76029 0.0
C130 C 0.47711 0.01068 0.93642 0.0
N131 N 0.52782 0.93284 0.82784 0.0
C132 C 0.52429 0.91101 0.76279 0.0
C133 C 0.53087 0.92466 0.92985 0.0
C134 C 0.53011 0.89373 0.97042 0.0
C135 C 0.52629 0.87083 0.90558 0.0
C136 C 0.52344 0.87959 0.80039 0.0
Zn137 Zn 0.52795 0.97954 0.78016 0.0
O138 O 0.48639 0.02549 0.67881 0.0
C139 C 0.58003 0.99834 0.60346 0.0
O140 O 0.48555 0.97504 0.69205 0.0
H141 H 0.53368 0.94223 0.98042 0.0
H142 H 0.47349 0.08065 0.72655 0.0
H143 H 0.52188 0.91795 0.68202 0.0
O144 O 0.56874 0.0242 0.63097 0.0
O145 O 0.56516 0.97398 0.65028 0.0
H146 H 0.58539 0.08066 0.68804 0.0
O147 O 0.57163 0.98586 0.86805 0.0
O148 O 0.57119 0.03642 0.84244 0.0
O149 O 0.48917 0.98542 0.90701 0.0
O150 O 0.49098 0.036 0.89226 0.0
C151 C 0.58529 0.01181 0.87803 0.0
H152 H 0.47292 0.13403 0.64284 0.0
H153 H 0.58689 0.13446 0.60662 0.0
H154 H 0.53229 0.88769 0.05196 0.0
H155 H 0.52036 0.86237 0.74849 0.0
C156 C 0.54936 0.44911 0.65895 0.0
N157 N 0.46086 0.50851 0.68101 0.0
C158 C 0.46327 0.50068 0.58233 0.0
C159 C 0.43505 0.50509 0.52504 0.0
C160 C 0.40378 0.51778 0.56895 0.0
C161 C 0.40118 0.52525 0.67147 0.0
C162 C 0.43043 0.52044 0.72669 0.0
Zn163 Zn 0.50805 0.50523 0.74278 0.0
C164 C 0.5106 0.46645 0.92492 0.0
N165 N 0.61417 0.5003 0.80929 0.0
C166 C 0.64653 0.49949 0.75186 0.0
C167 C 0.61133 0.50149 0.91348 0.0
C168 C 0.64109 0.50251 0.964 0.0
C169 C 0.67456 0.50231 0.90727 0.0
C170 C 0.67746 0.50047 0.79987 0.0
Zn171 Zn 0.56609 0.50169 0.75116 0.0
O172 O 0.5199 0.46309 0.67177 0.0
C173 C 0.56076 0.5409 0.56929 0.0
O174 O 0.57669 0.46066 0.6861 0.0
H175 H 0.58581 0.50292 0.95774 0.0
H176 H 0.48766 0.49196 0.5457 0.0
H177 H 0.64839 0.49857 0.66904 0.0
O178 O 0.5296 0.53341 0.60939 0.0
O179 O 0.58681 0.52885 0.61072 0.0
H180 H 0.42915 0.52699 0.80448 0.0
O181 O 0.55564 0.54383 0.81398 0.0
O182 O 0.4985 0.54607 0.81805 0.0
O183 O 0.54262 0.47361 0.89019 0.0
O184 O 0.4861 0.4783 0.87686 0.0
C185 C 0.5271 0.55821 0.83527 0.0
H186 H 0.43788 0.49927 0.44595 0.0
H187 H 0.37723 0.53523 0.70712 0.0
H188 H 0.63798 0.50409 0.0468 0.0
H189 H 0.70314 0.50032 0.75401 0.0
C190 C 0.08237 0.51938 0.6034 0.0
N191 N 0.03987 0.43167 0.71179 0.0
C192 C 0.07263 0.42001 0.6861 0.0
C193 C 0.07657 0.39242 0.64076 0.0
C194 C 0.04657 0.37722 0.61875 0.0
C195 C 0.01307 0.38928 0.6484 0.0
C196 C 0.01029 0.41647 0.69616 0.0
Zn197 Zn 0.03495 0.47513 0.75886 0.0
C198 C 0.08793 0.49205 0.88401 0.0
N199 N 0.02564 0.56919 0.82275 0.0
C200 C 0.02802 0.59502 0.75337 0.0
C201 C 0.02251 0.57137 0.92654 0.0
C202 C 0.02271 0.59998 0.96431 0.0
C203 C 0.02604 0.62679 0.8947 0.0
C204 C 0.02831 0.62431 0.78799 0.0
Zn205 Zn 0.02975 0.52547 0.7758 0.0
O206 O 0.07289 0.49156 0.63184 0.0
C207 C 0.97544 0.51015 0.65653 0.0
O208 O 0.0667 0.541 0.64805 0.0
H209 H 0.02059 0.55085 0.98055 0.0
H210 H 0.09581 0.43271 0.69691 0.0
H211 H 0.03038 0.59292 0.67115 0.0
O212 O 0.99139 0.48443 0.66855 0.0
O213 O 0.98696 0.53353 0.69186 0.0
H214 H 0.98447 0.42602 0.71711 0.0
O215 O 0.99335 0.50819 0.90397 0.0
O216 O 0.99886 0.45891 0.88653 0.0
O217 O 0.07255 0.51723 0.8598 0.0
O218 O 0.07687 0.46756 0.8538 0.0
C219 C 0.98453 0.4803 0.93476 0.0
H220 H 0.10282 0.38375 0.61869 0.0
H221 H 0.98938 0.37812 0.63256 0.0
H222 H 0.02092 0.60118 0.04712 0.0
H223 H 0.03093 0.64472 0.73241 0.0
C224 C 0.19824 0.0193 0.60148 0.0
C225 C 0.20457 0.99802 0.5266 0.0
C226 C 0.14555 0.97512 0.58303 0.0
C227 C 0.13774 0.99824 0.65136 0.0
N228 N 0.15971 0.03714 0.7455 0.0
N229 N 0.18464 0.95616 0.44252 0.0
C230 C 0.16508 0.0187 0.66703 0.0
C231 C 0.17849 0.97579 0.51755 0.0
N232 N 0.2234 0.04111 0.60608 0.0
N233 N 0.12195 0.95156 0.5846 0.0
H234 H 0.20898 0.95476 0.39695 0.0
H235 H 0.16529 0.94238 0.42102 0.0
H236 H 0.0981 0.94968 0.63349 0.0
H237 H 0.12712 0.93223 0.54527 0.0
H238 H 0.21947 0.05979 0.64914 0.0
H239 H 0.24817 0.04144 0.56182 0.0
H240 H 0.17923 0.05062 0.76738 0.0
H241 H 0.13639 0.03718 0.79585 0.0
C242 C 0.51303 0.22403 0.54397 0.0
C243 C 0.52804 0.22758 0.43849 0.0
C244 C 0.54256 0.17256 0.44919 0.0
C245 C 0.53016 0.16941 0.55698 0.0
N246 N 0.50952 0.19322 0.71123 0.0
N247 N 0.56297 0.20697 0.29525 0.0
C248 C 0.51709 0.1955 0.6057 0.0
C249 C 0.54473 0.20238 0.39268 0.0
N250 N 0.49405 0.24756 0.58443 0.0
N251 N 0.55053 0.14692 0.39943 0.0
H252 H 0.56471 0.22839 0.25077 0.0
H253 H 0.57889 0.19023 0.2622 0.0
H254 H 0.54851 0.12455 0.43704 0.0
H255 H 0.55594 0.14755 0.31916 0.0
H256 H 0.47929 0.24527 0.65749 0.0
H257 H 0.49078 0.26877 0.54162 0.0
H258 H 0.50331 0.21211 0.75225 0.0
H259 H 0.51249 0.1728 0.75877 0.0
C260 C 0.35656 0.55189 0.34603 0.0
C261 C 0.332 0.52798 0.34184 0.0
C262 C 0.34978 0.50012 0.5003 0.0
C263 C 0.37482 0.52372 0.50344 0.0
N264 N 0.39789 0.57459 0.44395 0.0
N265 N 0.30021 0.48233 0.42237 0.0
C266 C 0.37671 0.55053 0.43097 0.0
C267 C 0.32691 0.50309 0.42177 0.0
N268 N 0.36146 0.57526 0.26678 0.0
N269 N 0.34916 0.47418 0.56945 0.0
H270 H 0.28415 0.48294 0.36332 0.0
H271 H 0.2924 0.46567 0.48406 0.0
H272 H 0.36446 0.4719 0.63055 0.0
H273 H 0.3348 0.45437 0.56412 0.0
H274 H 0.3816 0.59162 0.25847 0.0
H275 H 0.34631 0.57745 0.20529 0.0
H276 H 0.39855 0.5959 0.3995 0.0
H277 H 0.41302 0.57407 0.50526 0.0
C278 C 0.07439 0.32589 0.40427 0.0
C279 C 0.05642 0.29811 0.44546 0.0
C280 C 0.03503 0.32106 0.60421 0.0
C281 C 0.05022 0.3498 0.55939 0.0
N282 N 0.07709 0.38121 0.40619 0.0
N283 N 0.01247 0.2717 0.57237 0.0
C284 C 0.06798 0.35271 0.45638 0.0
C285 C 0.03456 0.29638 0.54184 0.0
N286 N 0.09779 0.32668 0.31576 0.0
N287 N 0.02217 0.31692 0.70713 0.0
H288 H 0.01032 0.25398 0.52607 0.0
H289 H 0.99366 0.27052 0.63779 0.0
H290 H 0.02296 0.33415 0.75615 0.0
H291 H 0.01396 0.29555 0.74585 0.0
H292 H 0.11456 0.34533 0.28869 0.0
H293 H 0.1024 0.30775 0.27363 0.0
H294 H 0.08684 0.38489 0.32776 0.0
H295 H 0.07155 0.4016 0.4397 0.0
C296 C 0.87313 0.03971 0.98955 0.0
C297 C 0.85066 0.01345 0.00403 0.0
C298 C 0.89145 0.98852 0.87729 0.0
C299 C 0.91656 0.01247 0.87617 0.0
N300 N 0.93093 0.06207 0.92497 0.0
N301 N 0.83736 0.96286 0.96222 0.0
C302 C 0.90709 0.03857 0.92992 0.0
C303 C 0.85933 0.98799 0.947 0.0
N304 N 0.86169 0.06587 0.03204 0.0
N305 N 0.89822 0.96646 0.81111 0.0
H306 H 0.81302 0.96239 0.00887 0.0
H307 H 0.84383 0.942 0.93308 0.0
H308 H 0.92098 0.96678 0.75805 0.0
H309 H 0.88008 0.94967 0.80148 0.0
H310 H 0.87514 0.08684 0.0176 0.0
H311 H 0.83701 0.0673 0.07584 0.0
H312 H 0.928 0.07988 0.97209 0.0
H313 H 0.95463 0.06324 0.87524 0.0
C314 C 0.55408 0.78894 -0.00426 0.0
C315 C 0.52382 0.77921 0.0658 0.0
C316 C 0.49262 0.82622 0.00903 0.0
C317 C 0.52448 0.83789 0.95035 0.0
N318 N 0.58618 0.83145 0.89008 0.0
N319 N 0.46432 0.78805 0.14246 0.0
C320 C 0.55533 0.81938 0.94321 0.0
C321 C 0.49293 0.79757 0.07262 0.0
N322 N 0.58146 0.76893 0.97903 0.0
N323 N 0.46202 0.84247 0.00267 0.0
H324 H 0.46311 0.76663 0.18693 0.0
H325 H 0.44256 0.80188 0.16059 0.0
H326 H 0.46101 0.86354 0.95696 0.0
H327 H 0.4372 0.83407 0.03535 0.0
H328 H 0.60287 0.77339 0.92173 0.0
H329 H 0.58132 0.7466 0.01702 0.0
H330 H 0.61055 0.82063 0.89183 0.0
H331 H 0.58786 0.85332 0.84864 0.0
C332 C 0.74244 0.48144 0.09152 0.0
C333 C 0.74772 0.51098 0.12277 0.0
C334 C 0.71573 0.5349 0.98358 0.0
C335 C 0.70566 0.50513 0.96361 0.0
N336 N 0.70925 0.4499 -0.00513 0.0
N337 N 0.74098 0.56613 0.09917 0.0
C338 C 0.71952 0.47831 0.01528 0.0
C339 C 0.73528 0.53788 0.06787 0.0
N340 N 0.75937 0.45647 0.13482 0.0
N341 N 0.70624 0.56019 0.92203 0.0
H342 H 0.75637 0.56917 0.15791 0.0
H343 H 0.72934 0.58642 0.07073 0.0
H344 H 0.69177 0.55851 0.86026 0.0
H345 H 0.7149 0.58251 0.92621 0.0
H346 H 0.75943 0.43476 0.10886 0.0
H347 H 0.77573 0.458 0.19226 0.0
H348 H 0.71466 0.42937 0.03831 0.0
H349 H 0.69385 0.44695 0.9361 0.0
C350 C 1.00013 0.70306 0.00032 0.0
C351 C 0.03158 0.70984 0.04104 0.0
C352 C 0.0612 0.66602 0.96516 0.0
C353 C 0.02859 0.6571 0.9353 0.0
N354 N 0.96634 0.66543 0.92908 0.0
N355 N 0.09162 0.69758 0.06849 0.0
C356 C 0.9979 0.67533 0.95321 0.0
C357 C 0.06211 0.69139 0.02455 0.0
N358 N 0.97256 0.72331 0.00593 0.0
N359 N 0.09134 0.6504 0.93525 0.0
H360 H 0.09365 0.71661 0.10931 0.0
H361 H 0.11331 0.68299 0.0701 0.0
H362 H 0.09152 0.63159 0.8923 0.0
H363 H 0.11656 0.65742 0.94538 0.0
H364 H 0.95032 0.72147 0.96831 0.0
H365 H 0.97305 0.74342 0.04215 0.0
H366 H 0.94218 0.67559 0.95111 0.0
H367 H 0.96393 0.64571 0.89198 0.0
C368 C 0.07775 0.14654 0.68265 0.0
C369 C 0.05442 0.1631 0.6227 0.0
C370 C 0.01056 0.1219 0.66725 0.0
C371 C 0.03738 0.10214 0.70134 0.0
N372 N 0.09604 0.09639 0.75496 0.0
N373 N 0.99379 0.17148 0.59302 0.0
C374 C 0.07053 0.11486 0.71684 0.0
C375 C 0.01908 0.15281 0.62992 0.0
N376 N 0.10793 0.16088 0.69824 0.0
N377 N 0.97705 0.11112 0.66745 0.0
H378 H 0.99845 0.19455 0.56426 0.0
H379 H 0.99845 0.19455 0.56426 0.0
H380 H 0.96933 0.08863 0.69635 0.0
H381 H 0.95699 0.12507 0.64083 0.0
H382 H 0.12592 0.15128 0.74599 0.0
H383 H 0.11302 0.18387 0.6685 0.0
H384 H 0.12164 0.10378 0.75887 0.0
H385 H 0.09238 0.07304 0.77886 0.0
C386 C 0.37963 0.98121 0.601 0.0
C387 C 0.37283 0.00786 0.53465 0.0
C388 C 0.43051 0.02883 0.54984 0.0
C389 C 0.43748 1.00271 0.61948 0.0
N390 N 0.4113 0.96064 0.74177 0.0
N391 N 0.38538 0.06138 0.48104 0.0
C392 C 0.40984 0.98078 0.65482 0.0
C393 C 0.39581 0.03348 0.52437 0.0
N394 N 0.35826 0.95591 0.60954 0.0
N395 N 0.45727 0.04771 0.50038 0.0
H396 H 0.36004 0.06465 0.45949 0.0
H397 H 0.40048 0.0814 0.47687 0.0
H398 H 0.4839 0.04299 0.50474 0.0
H399 H 0.45329 0.06569 0.44374 0.0
H400 H 0.36453 0.93468 0.64747 0.0
H401 H 0.33526 0.9559 0.5741 0.0
H402 H 0.3904 0.94593 0.77355 0.0
H403 H 0.43105 0.96134 0.78969 0.0
C404 C 0.57212 0.38452 0.48839 0.0
C405 C 0.5406 0.36703 0.51452 0.0
C406 C 0.52493 0.39594 0.66259 0.0
C407 C 0.55062 0.41861 0.61843 0.0
N408 N 0.59917 0.43452 0.4858 0.0
N409 N 0.48786 0.35391 0.63113 0.0
C410 C 0.57514 0.41261 0.53197 0.0
C411 C 0.51761 0.37163 0.60464 0.0
N412 N 0.59807 0.37488 0.41761 0.0
N413 N 0.50813 0.39747 0.7603 0.0
H414 H 0.48292 0.33517 0.59167 0.0
H415 H 0.46776 0.35857 0.68891 0.0
H416 H 0.51454 0.41423 0.80598 0.0
H417 H 0.49114 0.3803 0.79954 0.0
H418 H 0.62284 0.38541 0.40011 0.0
H419 H 0.59565 0.3544 0.38445 0.0
H420 H 0.61485 0.43241 0.41574 0.0
H421 H 0.60158 0.45595 0.51234 0.0
C422 C 0.14775 0.54889 0.36922 0.0
C423 C 0.17494 0.52678 0.38077 0.0
C424 C 0.14612 0.50858 0.55259 0.0
C425 C 0.1153 0.52537 0.5311 0.0
N426 N 0.08616 0.56125 0.41606 0.0
N427 N 0.19885 0.48365 0.481 0.0
C428 C 0.11605 0.54598 0.43937 0.0
C429 C 0.17415 0.50635 0.47241 0.0
N430 N 0.15227 0.57221 0.29003 0.0
N431 N 0.14905 0.4955 0.65059 0.0
H432 H 0.22003 0.48121 0.42398 0.0
H433 H 0.19676 0.46586 0.54153 0.0
H434 H 0.12982 0.49841 0.71216 0.0
H435 H 0.17221 0.48541 0.67251 0.0
H436 H 0.13462 0.59039 0.28175 0.0
H437 H 0.17558 0.57487 0.23865 0.0
H438 H 0.08427 0.57393 0.34474 0.0
H439 H 0.06231 0.55937 0.46498 0.0
C440 C 0.05002 0.85915 0.8701 0.0
C441 C 0.01602 0.84623 0.89886 0.0
C442 C 0.99017 0.89256 0.81748 0.0
C443 C 0.02242 0.90842 0.82178 0.0
N444 N 0.08492 0.90613 0.83678 0.0
N445 N 0.95491 0.84622 0.87815 0.0
C446 C 0.05319 0.89139 0.84145 0.0
C447 C 0.98667 0.86124 0.86105 0.0
N448 N 0.07883 0.84072 0.87728 0.0
N449 N 0.96286 0.90748 0.7757 0.0
H450 H 0.95302 0.82311 0.90949 0.0
H451 H 0.93096 0.85645 0.86452 0.0
H452 H 0.9643 0.93043 0.74443 0.0
H453 H 0.93976 0.89654 0.76423 0.0
H454 H 0.10467 0.84817 0.85243 0.0
H455 H 0.07618 0.81704 0.89889 0.0
H456 H 0.10734 0.89546 0.86157 0.0
H457 H 0.08849 0.92954 0.81191 0.0
C458 C 0.67758 0.99136 0.94596 0.0
C459 C 0.68315 0.01465 0.00907 0.0
C460 C 0.62535 0.03667 0.9851 0.0
C461 C 0.61952 0.0135 0.92072 0.0
N462 N 0.64667 0.97711 0.80828 0.0
N463 N 0.66877 0.06523 0.05731 0.0
C464 C 0.64764 0.99327 0.89133 0.0
C465 C 0.65938 0.03965 0.01554 0.0
N466 N 0.69994 0.96683 0.94137 0.0
N467 N 0.59802 0.05415 0.02432 0.0
H468 H 0.69365 0.06736 0.08141 0.0
H469 H 0.65348 0.08513 0.05796 0.0
H470 H 0.5719 0.05095 0.01207 0.0
H471 H 0.60062 0.06938 0.07899 0.0
H472 H 0.69464 0.94735 0.90618 0.0
H473 H 0.72287 0.96543 0.97744 0.0
H474 H 0.66775 0.9639 0.77914 0.0
H475 H 0.62679 0.98028 0.76071 0.0
C476 C 0.56322 0.62973 0.93244 0.0
C477 C 0.53212 0.64356 0.97364 0.0
C478 C 0.49901 0.6094 0.88381 0.0
C479 C 0.52855 0.58895 0.87737 0.0
N480 N 0.58699 0.57922 0.93242 0.0
N481 N 0.46883 0.64736 0.98517 0.0
C482 C 0.56079 0.59919 0.90874 0.0
C483 C 0.49942 0.63398 0.94701 0.0
N484 N 0.59504 0.64354 0.93371 0.0
N485 N 0.4715 0.60652 0.82815 0.0
H486 H 0.46872 0.66611 0.02838 0.0
H487 H 0.44396 0.63883 0.9774 0.0
H488 H 0.47194 0.59178 0.77061 0.0
H489 H 0.45065 0.62213 0.82824 0.0
H490 H 0.61875 0.63434 0.9017 0.0
H491 H 0.59666 0.66549 0.95776 0.0
H492 H 0.61021 0.58624 0.9577 0.0
H493 H 0.58243 0.55573 0.94923 0.0
C494 C 0.92808 0.50259 0.16159 0.0
C495 C 0.89902 0.48199 0.17379 0.0
C496 C 0.9286 0.45422 0.03442 0.0
C497 C 0.95835 0.47425 0.02845 0.0
N498 N 0.99117 0.50626 0.12164 0.0
N499 N 0.87424 0.43437 0.13707 0.0
C500 C 0.95963 0.49468 0.10413 0.0
C501 C 0.89998 0.45652 0.11481 0.0
N502 N 0.92531 0.53019 0.20213 0.0
N503 N 0.92702 0.43373 0.96343 0.0
H504 H 0.85283 0.43576 0.19447 0.0
H505 H 0.87545 0.41365 0.10415 0.0
H506 H 0.94795 0.42957 0.90783 0.0
H507 H 0.90414 0.42162 0.95688 0.0
H508 H 0.94559 0.54659 0.18879 0.0
H509 H 0.90147 0.53807 0.23793 0.0
H510 H 0.99346 0.51994 0.18114 0.0
H511 H 0.01512 0.49896 0.08436 0.0
C512 C 0.10243 0.12952 0.1967 0.0
C513 C 0.0765 0.13541 0.27978 0.0
C514 C 0.05011 0.08475 0.2766 0.0
C515 C 0.07241 0.08066 0.18427 0.0
N516 N 0.11594 0.10237 0.04476 0.0
N517 N 0.01946 0.12204 0.37719 0.0
C518 C 0.09776 0.10383 0.141 0.0
C519 C 0.04847 0.11398 0.31338 0.0
N520 N 0.13173 0.14789 0.17226 0.0
N521 N 0.03007 0.06076 0.32828 0.0
H522 H 0.01593 0.1442 0.39956 0.0
H523 H 0.9972 0.10794 0.39755 0.0
H524 H 0.03092 0.03884 0.30313 0.0
H525 H 0.01561 0.0619 0.40094 0.0
H526 H 0.1531 0.14273 0.11914 0.0
H527 H 0.13588 0.1669 0.21123 0.0
H528 H 0.13174 0.12038 0.00554 0.0
H529 H 0.11302 0.08437 0.0003 0.0
C530 C 0.38683 0.02858 0.08376 0.0
C531 C 0.38294 1.00302 0.16149 0.0
C532 C 0.44226 0.98568 0.0997 0.0
C533 C 0.44523 0.00958 0.01613 0.0
N534 N 0.41414 0.04742 0.91164 0.0
N535 N 0.40252 0.95228 0.22057 0.0
C536 C 0.41574 0.02928 0.00287 0.0
C537 C 0.40911 0.97976 0.16064 0.0
N538 N 0.36399 0.05277 0.08866 0.0
N539 N 0.47148 0.96979 0.12543 0.0
H540 H 0.37816 0.94728 0.2652 0.0
H541 H 0.41974 0.93364 0.21698 0.0
H542 H 0.49691 0.97545 0.08941 0.0
H543 H 0.47098 0.95378 0.19087 0.0
H544 H 0.36816 0.07335 0.04009 0.0
H545 H 0.3424 0.05317 0.14585 0.0
H546 H 0.39177 0.06004 0.89583 0.0
H547 H 0.43319 0.04699 0.84739 0.0
C548 C 0.47887 0.39472 0.11149 0.0
C549 C 0.50827 0.39197 0.16851 0.0
C550 C 0.52755 0.44346 0.09283 0.0
C551 C 0.50364 0.4435 0.01878 0.0
N552 N 0.45633 0.41679 0.95515 0.0
N553 N 0.56593 0.41141 0.18983 0.0
C554 C 0.47888 0.41863 0.02751 0.0
C555 C 0.53427 0.41566 0.15201 0.0
N556 N 0.45055 0.37531 0.13915 0.0
N557 N 0.5431 0.47025 0.1089 0.0
H558 H 0.57326 0.3903 0.22631 0.0
H559 H 0.58628 0.42772 0.17344 0.0
H560 H 0.5358 0.49154 0.07333 0.0
H561 H 0.5593 0.4715 0.16696 0.0
H562 H 0.42693 0.37836 0.1071 0.0
H563 H 0.44941 0.35797 0.20101 0.0
H564 H 0.44111 0.39724 0.9525 0.0
H565 H 0.45444 0.43344 0.89303 0.0
C566 C 0.17833 0.47677 0.98658 0.0
C567 C 0.18269 0.50556 0.02394 0.0
C568 C 0.12374 0.52011 -0.00912 0.0
C569 C 0.11998 0.49346 0.9395 0.0
N570 N 0.14977 0.44888 0.8703 0.0
N571 N 0.16442 0.55839 0.02569 0.0
C572 C 0.14901 0.47234 0.93145 0.0
C573 C 0.15743 0.52879 0.00981 0.0
N574 N 0.20137 0.45344 0.00645 0.0
N575 N 0.09487 0.5355 0.03133 0.0
H576 H 0.18921 0.56503 0.04185 0.0
H577 H 0.14673 0.57634 0.01258 0.0
H578 H 0.06945 0.52652 0.0363 0.0
H579 H 0.09674 0.55408 0.07431 0.0
H580 H 0.19711 0.43084 -0.00805 0.0
H581 H 0.22371 0.45658 0.0428 0.0
H582 H 0.17205 0.43529 0.85564 0.0
H583 H 0.13007 0.44458 0.82591 0.0
C584 C 0.03462 0.89437 0.20442 0.0
C585 C 0.01532 0.86744 0.24942 0.0
C586 C 0.99904 0.89307 0.4056 0.0
C587 C 0.01134 0.92179 0.35061 0.0
N588 N 0.03369 0.94986 0.1856 0.0
N589 N 0.97405 0.8433 0.39013 0.0
C590 C 0.02721 0.92252 0.24645 0.0
C591 C 0.99612 0.86724 0.34963 0.0
N592 N 0.06012 0.89304 0.12176 0.0
N593 N 0.99169 0.8899 0.51118 0.0
H594 H 0.97025 0.82437 0.35051 0.0
H595 H 0.95711 0.84377 0.45906 0.0
H596 H 0.9962 0.90743 0.55618 0.0
H597 H 0.98529 0.86873 0.5544 0.0
H598 H 0.07628 0.91182 0.09078 0.0
H599 H 0.06769 0.87234 0.09247 0.0
H600 H 0.04258 0.95098 0.10654 0.0
H601 H 0.0263 0.97111 0.21092 0.0
C602 C 0.65351 0.02761 0.39226 0.0
C603 C 0.67571 1.00172 0.38216 0.0
C604 C 0.63682 0.97241 0.52272 0.0
C605 C 0.61178 0.99732 0.52227 0.0
N606 N 0.59311 0.04389 0.42561 0.0
N607 N 0.68587 0.94779 0.42647 0.0
C608 C 0.61933 0.02371 0.44868 0.0
C609 C 0.66671 0.97368 0.44456 0.0
N610 N 0.66461 0.05581 0.34382 0.0
N611 N 0.63339 0.94784 0.59778 0.0
H612 H 0.70883 0.94821 0.37369 0.0
H613 H 0.67773 0.92571 0.45871 0.0
H614 H 0.61244 0.94397 0.65627 0.0
H615 H 0.65354 0.93193 0.60767 0.0
H616 H 0.65052 0.076 0.35502 0.0
H617 H 0.6896 0.05924 0.3013 0.0
H618 H 0.59689 0.06216 0.36688 0.0
H619 H 0.56657 0.03984 0.45392 0.0
C620 C 0.52821 0.58958 0.35123 0.0
C621 C 0.54956 0.61655 0.33886 0.0
C622 C 0.58327 0.59264 0.475 0.0
C623 C 0.56416 0.56462 0.4776 0.0
N624 N 0.5275 0.53426 0.38975 0.0
N625 N 0.60353 0.64024 0.37199 0.0
C626 C 0.53974 0.56243 0.40574 0.0
C627 C 0.579 0.61712 0.39563 0.0
N628 N 0.49623 0.59009 0.31435 0.0
N629 N 0.60403 0.59674 0.55018 0.0
H630 H 0.60202 0.65801 0.31265 0.0
H631 H 0.62709 0.64001 0.40468 0.0
H632 H 0.60819 0.57967 0.60941 0.0
H633 H 0.61509 0.61802 0.55771 0.0
H634 H 0.47866 0.57148 0.32921 0.0
H635 H 0.48563 0.61016 0.27971 0.0
H636 H 0.51128 0.53133 0.33301 0.0
H637 H 0.53707 0.51379 0.42509 0.0
C638 C 0.90206 0.53557 0.49295 0.0
C639 C 0.87899 0.50985 0.51828 0.0
C640 C 0.91371 0.4905 0.65586 0.0
C641 C 0.94118 0.51179 0.61321 0.0
N642 N 0.96193 0.55433 0.48641 0.0
N643 N 0.86142 0.46316 0.62618 0.0
C644 C 0.93525 0.53477 0.53177 0.0
C645 C 0.88407 0.48767 0.60189 0.0
N646 N 0.89255 0.56015 0.42869 0.0
N647 N 0.91539 0.47377 0.74949 0.0
H648 H 0.83854 0.46162 0.59072 0.0
H649 H 0.86612 0.44404 0.67758 0.0
H650 H 0.93583 0.47653 0.79341 0.0
H651 H 0.89471 0.45994 0.78836 0.0
H652 H 0.90694 0.58068 0.41304 0.0
H653 H 0.86829 0.56091 0.3995 0.0
H654 H 0.96011 0.56928 0.41954 0.0
H655 H 0.98708 0.55379 0.50978 0.0
loop_
_geom_bond_atom_site_label_1
_geom_bond_atom_site_label_2
_geom_bond_distance
_geom_bond_site_symmetry_2
_ccdc_geom_bond_type
H0 C3 0.929 . S
H1 C6 0.929 . S
H2 C8 0.930 . S
C3 H0 0.929 . S
C3 C4 1.398 . S
C3 C5 1.396 . S
C4 C3 1.398 . S
C4 C8 1.407 . S
C5 C3 1.396 . S
C5 C6 1.394 . S
C6 H1 0.929 . S
C6 C5 1.394 . S
C6 C7 1.382 . S
C7 C6 1.382 . S
C7 C8 1.392 . S
C7 N9 1.420 . S
C8 H2 0.930 . S
C8 C4 1.407 . S
C8 C7 1.392 . S
N9 C7 1.420 . S
N9 C10 1.244 . S
C10 N9 1.244 . S
H11 C14 0.929 . S
H12 C17 0.929 . S
H13 C19 0.930 . S
C14 H11 0.929 . S
C14 C15 1.398 . S
C14 C16 1.396 1_554 S
C15 C14 1.398 . S
C15 C19 1.407 . S
C16 C14 1.396 1_556 S
C16 C17 1.394 . S
C17 H12 0.929 . S
C17 C16 1.394 . S
C17 C18 1.382 1_556 S
C18 C17 1.382 1_554 S
C18 C19 1.392 . S
C18 N20 1.420 . S
C19 H13 0.930 . S
C19 C15 1.407 . S
C19 C18 1.392 . S
N20 C18 1.420 . S
N20 C21 1.244 1_554 S
C21 N20 1.244 1_556 S
H22 C25 0.929 . S
H23 C28 0.929 1_556 S
H24 C30 0.930 . S
C25 H22 0.929 . S
C25 C26 1.392 1_565 S
C25 C27 1.396 1_565 S
C26 C25 1.392 1_545 S
C26 C30 1.413 . S
C27 C25 1.396 1_545 S
C27 C28 1.397 . S
C28 H23 0.929 1_554 S
C28 C27 1.397 . S
C28 C29 1.382 . S
C29 C28 1.382 . S
C29 C30 1.392 . S
C29 N31 1.420 . S
C30 H24 0.930 . S
C30 C26 1.413 . S
C30 C29 1.392 . S
N31 C29 1.420 . S
N31 C32 1.229 1_545 S
C32 N31 1.229 1_565 S
H33 C36 0.929 . S
H34 C39 0.929 1_556 S
H35 C41 0.930 . S
C36 H33 0.929 . S
C36 C37 1.398 . S
C36 C38 1.396 . S
C37 C36 1.398 . S
C37 C41 1.407 . S
C38 C36 1.396 . S
C38 C39 1.394 . S
C39 H34 0.929 1_554 S
C39 C38 1.394 . S
C39 C40 1.382 . S
C40 C39 1.382 . S
C40 C41 1.392 . S
C40 N42 1.420 . S
C41 H35 0.930 . S
C41 C37 1.407 . S
C41 C40 1.392 . S
N42 C40 1.420 . S
N42 C43 1.244 . S
C43 N42 1.244 . S
H44 C47 0.929 . S
H45 C50 0.929 . S
H46 C52 0.930 . S
C47 H44 0.929 . S
C47 C48 1.398 . S
C47 C49 1.396 . S
C48 C47 1.398 . S
C48 C52 1.407 . S
C49 C47 1.396 . S
C49 C50 1.394 . S
C50 H45 0.929 . S
C50 C49 1.394 . S
C50 C51 1.382 . S
C51 C50 1.382 . S
C51 C52 1.392 . S
C51 N53 1.420 . S
C52 H46 0.930 . S
C52 C48 1.407 . S
C52 C51 1.392 . S
N53 C51 1.420 . S
N53 C54 1.244 . S
C54 N53 1.244 . S
H55 C58 0.929 . S
H56 C61 0.929 . S
H57 C63 0.930 . S
C58 H55 0.929 . S
C58 C59 1.398 . S
C58 C60 1.396 . S
C59 C58 1.398 . S
C59 C63 1.407 . S
C60 C58 1.396 . S
C60 C61 1.394 . S
C61 H56 0.929 . S
C61 C60 1.394 . S
C61 C62 1.382 . S
C62 C61 1.382 . S
C62 C63 1.392 . S
C62 N64 1.420 . S
C63 H57 0.930 . S
C63 C59 1.407 . S
C63 C62 1.392 . S
N64 C62 1.420 . S
N64 C65 1.244 . S
C65 N64 1.244 . S
H66 C69 0.929 . S
H67 C72 0.929 . S
H68 C74 0.930 . S
C69 H66 0.929 . S
C69 C70 1.398 1_565 S
C69 C71 1.391 1_565 S
C70 C69 1.398 1_545 S
C70 C74 1.407 . S
C71 C69 1.391 1_545 S
C71 C72 1.399 . S
C72 H67 0.929 . S
C72 C71 1.399 . S
C72 C73 1.382 . S
C73 C72 1.382 . S
C73 C74 1.392 . S
C73 N75 1.420 . S
C74 H68 0.930 . S
C74 C70 1.407 . S
C74 C73 1.392 . S
N75 C73 1.420 . S
N75 C76 1.237 1_545 S
C76 N75 1.237 1_565 S
H77 C80 0.929 . S
H78 C83 0.929 . S
H79 C85 0.930 . S
C80 H77 0.929 . S
C80 C81 1.398 . S
C80 C82 1.396 . S
C81 C80 1.398 . S
C81 C85 1.407 . S
C82 C80 1.396 . S
C82 C83 1.394 . S
C83 H78 0.929 . S
C83 C82 1.394 . S
C83 C84 1.382 . S
C84 C83 1.382 . S
C84 C85 1.392 . S
C84 N86 1.420 . S
C85 H79 0.930 . S
C85 C81 1.407 . S
C85 C84 1.392 . S
N86 C84 1.420 . S
N86 C87 1.244 . S
C87 N86 1.244 . S
C88 O104 1.251 . S
C88 O106 1.254 . S
N89 C90 1.333 . S
N89 C94 1.307 1_455 S
N89 Zn95 2.020 . S
C90 N89 1.333 . S
C90 C91 1.379 . S
C90 H108 0.952 . S
C91 C90 1.379 . S
C91 C92 1.390 1_455 S
C91 H118 0.949 . S
C92 C91 1.390 1_655 S
C92 C93 1.357 . S
C93 C92 1.357 . S
C93 C94 1.370 . S
C93 H119 0.950 . S
C94 N89 1.307 1_655 S
C94 C93 1.370 . S
C94 H112 0.948 1_565 S
Zn95 N89 2.020 . S
Zn95 O104 2.039 . S
Zn95 O110 2.034 . S
Zn95 O114 2.025 1_565 S
Zn95 O116 2.024 1_455 S
C96 O115 1.246 . S
C96 O116 1.249 1_545 S
N97 C98 1.315 . S
N97 C99 1.334 . S
N97 Zn103 2.010 1_554 S
C98 N97 1.315 . S
C98 C102 1.370 . S
C98 H109 0.948 1_545 S
C99 N97 1.334 . S
C99 C100 1.379 . S
C99 H107 0.952 1_554 S
C100 C99 1.379 . S
C100 C101 1.390 . S
C100 H120 0.949 . S
C101 C100 1.390 . S
C101 C102 1.357 . S
C102 C98 1.370 . S
C102 C101 1.357 . S
C102 H121 0.950 . S
Zn103 N97 2.010 1_556 S
Zn103 O106 2.025 1_545 S
Zn103 O111 2.024 . S
Zn103 O113 2.039 . S
Zn103 O115 2.034 1_455 S
O104 C88 1.251 . S
O104 Zn95 2.039 . S
C105 O110 1.246 . S
C105 O111 1.249 1_565 S
O106 C88 1.254 . S
O106 Zn103 2.025 1_565 S
H107 C99 0.952 1_556 S
H108 C90 0.952 . S
H109 C98 0.948 1_565 S
O110 Zn95 2.034 . S
O110 C105 1.246 . S
O111 Zn103 2.024 . S
O111 C105 1.249 1_545 S
H112 C94 0.948 1_545 S
O113 Zn103 2.039 . S
O113 C117 1.251 . S
O114 Zn95 2.025 1_545 S
O114 C117 1.254 . S
O115 C96 1.246 . S
O115 Zn103 2.034 1_655 S
O116 Zn95 2.024 1_655 S
O116 C96 1.249 1_565 S
C117 O113 1.251 . S
C117 O114 1.254 . S
H118 C91 0.949 . S
H119 C93 0.950 . S
H120 C100 0.949 . S
H121 C102 0.950 . S
C122 O138 1.251 1_565 S
C122 O140 1.254 . S
N123 C124 1.333 . S
N123 C128 1.307 . S
N123 Zn129 2.020 . S
C124 N123 1.333 . S
C124 C125 1.379 . S
C124 H142 0.952 . S
C125 C124 1.379 . S
C125 C126 1.390 . S
C125 H152 0.949 . S
C126 C125 1.390 . S
C126 C127 1.357 . S
C127 C126 1.357 . S
C127 C128 1.370 . S
C127 H153 0.950 . S
C128 N123 1.307 . S
C128 C127 1.370 . S
C128 H146 0.948 . S
Zn129 N123 2.020 . S
Zn129 O138 2.039 . S
Zn129 O144 2.034 . S
Zn129 O148 2.025 . S
Zn129 O150 2.024 . S
C130 O149 1.246 1_545 S
C130 O150 1.249 . S
N131 C132 1.307 . S
N131 C133 1.333 . S
N131 Zn137 2.020 . S
C132 N131 1.307 . S
C132 C136 1.370 . S
C132 H143 0.948 . S
C133 N131 1.333 . S
C133 C134 1.379 . S
C133 H141 0.952 . S
C134 C133 1.379 . S
C134 C135 1.390 . S
C134 H154 0.949 1_556 S
C135 C134 1.390 . S
C135 C136 1.357 . S
C136 C132 1.370 . S
C136 C135 1.357 . S
C136 H155 0.950 . S
Zn137 N131 2.020 . S
Zn137 O140 2.025 . S
Zn137 O145 2.024 . S
Zn137 O147 2.039 . S
Zn137 O149 2.034 . S
O138 C122 1.251 1_545 S
O138 Zn129 2.039 . S
C139 O144 1.246 1_565 S
C139 O145 1.249 . S
O140 C122 1.254 . S
O140 Zn137 2.025 . S
H141 C133 0.952 . S
H142 C124 0.952 . S
H143 C132 0.948 . S
O144 Zn129 2.034 . S
O144 C139 1.246 1_545 S
O145 Zn137 2.024 . S
O145 C139 1.249 . S
H146 C128 0.948 . S
O147 Zn137 2.039 . S
O147 C151 1.251 1_565 S
O148 Zn129 2.025 . S
O148 C151 1.254 . S
O149 C130 1.246 1_565 S
O149 Zn137 2.034 . S
O150 Zn129 2.024 . S
O150 C130 1.249 . S
C151 O147 1.251 1_545 S
C151 O148 1.254 . S
H152 C125 0.949 . S
H153 C127 0.950 . S
H154 C134 0.949 1_554 S
H155 C136 0.950 . S
C156 O172 1.251 . S
C156 O174 1.254 . S
N157 C158 1.333 . S
N157 C162 1.307 . S
N157 Zn163 2.020 . S
C158 N157 1.333 . S
C158 C159 1.379 . S
C158 H176 0.952 . S
C159 C158 1.379 . S
C159 C160 1.390 . S
C159 H186 0.949 . S
C160 C159 1.390 . S
C160 C161 1.357 . S
C161 C160 1.357 . S
C161 C162 1.370 . S
C161 H187 0.950 . S
C162 N157 1.307 . S
C162 C161 1.370 . S
C162 H180 0.948 . S
Zn163 N157 2.020 . S
Zn163 O172 2.039 . S
Zn163 O178 2.034 . S
Zn163 O182 2.025 . S
Zn163 O184 2.024 . S
C164 O183 1.246 . S
C164 O184 1.249 . S
N165 C166 1.307 . S
N165 C167 1.333 . S
N165 Zn171 2.020 . S
C166 N165 1.307 . S
C166 C170 1.370 . S
C166 H177 0.948 . S
C167 N165 1.333 . S
C167 C168 1.379 . S
C167 H175 0.952 . S
C168 C167 1.379 . S
C168 C169 1.390 . S
C168 H188 0.949 . S
C169 C168 1.390 . S
C169 C170 1.357 . S
C170 C166 1.370 . S
C170 C169 1.357 . S
C170 H189 0.950 . S
Zn171 N165 2.020 . S
Zn171 O174 2.025 . S
Zn171 O179 2.024 . S
Zn171 O181 2.039 . S
Zn171 O183 2.034 . S
O172 C156 1.251 . S
O172 Zn163 2.039 . S
C173 O178 1.246 . S
C173 O179 1.249 . S
O174 C156 1.254 . S
O174 Zn171 2.025 . S
H175 C167 0.952 . S
H176 C158 0.952 . S
H177 C166 0.948 . S
O178 Zn163 2.034 . S
O178 C173 1.246 . S
O179 Zn171 2.024 . S
O179 C173 1.249 . S
H180 C162 0.948 . S
O181 Zn171 2.039 . S
O181 C185 1.251 . S
O182 Zn163 2.025 . S
O182 C185 1.254 . S
O183 C164 1.246 . S
O183 Zn171 2.034 . S
O184 Zn163 2.024 . S
O184 C164 1.249 . S
C185 O181 1.251 . S
C185 O182 1.254 . S
H186 C159 0.949 . S
H187 C161 0.950 . S
H188 C168 0.949 . S
H189 C170 0.950 . S
C190 O206 1.251 . S
C190 O208 1.254 . S
N191 C192 1.333 . S
N191 C196 1.307 . S
N191 Zn197 2.020 . S
C192 N191 1.333 . S
C192 C193 1.379 . S
C192 H210 0.952 . S
C193 C192 1.379 . S
C193 C194 1.390 . S
C193 H220 0.949 . S
C194 C193 1.390 . S
C194 C195 1.357 . S
C195 C194 1.357 . S
C195 C196 1.370 . S
C195 H221 0.950 . S
C196 N191 1.307 . S
C196 C195 1.370 . S
C196 H214 0.948 . S
Zn197 N191 2.020 . S
Zn197 O206 2.039 . S
Zn197 O212 2.034 1_455 S
Zn197 O216 2.025 1_455 S
Zn197 O218 2.024 . S
C198 O217 1.246 . S
C198 O218 1.249 . S
N199 C200 1.307 . S
N199 C201 1.333 . S
N199 Zn205 2.020 . S
C200 N199 1.307 . S
C200 C204 1.370 . S
C200 H211 0.948 . S
C201 N199 1.333 . S
C201 C202 1.378 1_455 S
C201 H209 0.952 1_455 S
C202 C201 1.378 1_655 S
C202 C203 1.384 1_655 S
C202 H222 0.957 . S
C203 C202 1.384 1_455 S
C203 C204 1.357 . S
C204 C200 1.370 . S
C204 C203 1.357 . S
C204 H223 0.950 . S
Zn205 N199 2.020 . S
Zn205 O208 2.025 . S
Zn205 O213 2.024 1_455 S
Zn205 O215 2.039 1_455 S
Zn205 O217 2.034 . S
O206 C190 1.251 . S
O206 Zn197 2.039 . S
C207 O212 1.246 . S
C207 O213 1.249 . S
O208 C190 1.254 . S
O208 Zn205 2.025 . S
H209 C201 0.952 1_655 S
H210 C192 0.952 . S
H211 C200 0.948 . S
O212 Zn197 2.034 1_655 S
O212 C207 1.246 . S
O213 Zn205 2.024 1_655 S
O213 C207 1.249 . S
H214 C196 0.948 . S
O215 Zn205 2.039 1_655 S
O215 C219 1.251 . S
O216 Zn197 2.025 1_655 S
O216 C219 1.254 . S
O217 C198 1.246 . S
O217 Zn205 2.034 . S
O218 Zn197 2.024 . S
O218 C198 1.249 . S
C219 O215 1.251 . S
C219 O216 1.254 . S
H220 C193 0.949 . S
H221 C195 0.950 . S
H222 C202 0.957 . S
H223 C204 0.950 . S
C224 C225 1.337 1_545 S
C224 C230 1.379 . S
C224 N232 1.356 . S
C225 C224 1.337 1_565 S
C225 C231 1.390 . S
C226 C227 1.363 . S
C226 C231 1.379 . S
C226 N233 1.356 . S
C227 C226 1.363 . S
C227 C230 1.363 1_565 S
N228 C230 1.356 . S
N228 H240 0.984 . S
N228 H241 0.985 . S
N229 C231 1.356 . S
N229 H234 0.984 . S
N229 H235 0.985 . S
C230 C224 1.379 . S
C230 C227 1.363 1_545 S
C230 N228 1.356 . S
C231 C225 1.390 . S
C231 C226 1.379 . S
C231 N229 1.356 . S
N232 C224 1.356 . S
N232 H238 0.984 . S
N232 H239 0.984 . S
N233 C226 1.356 . S
N233 H236 0.984 . S
N233 H237 0.985 . S
H234 N229 0.984 . S
H235 N229 0.985 . S
H236 N233 0.984 . S
H237 N233 0.985 . S
H238 N232 0.984 . S
H239 N232 0.984 . S
H240 N228 0.984 . S
H241 N228 0.985 . S
C242 C243 1.363 . S
C242 C248 1.379 . S
C242 N250 1.356 . S
C243 C242 1.363 . S
C243 C249 1.363 . S
C244 C245 1.363 . S
C244 C249 1.379 . S
C244 N251 1.356 . S
C245 C244 1.363 . S
C245 C248 1.363 . S
N246 C248 1.356 . S
N246 H258 0.984 . S
N246 H259 0.985 . S
N247 C249 1.356 . S
N247 H252 0.984 . S
N247 H253 0.985 . S
C248 C242 1.379 . S
C248 C245 1.363 . S
C248 N246 1.356 . S
C249 C243 1.363 . S
C249 C244 1.379 . S
C249 N247 1.356 . S
N250 C242 1.356 . S
N250 H256 0.984 . S
N250 H257 0.984 . S
N251 C244 1.356 . S
N251 H254 0.984 . S
N251 H255 0.985 . S
H252 N247 0.984 . S
H253 N247 0.985 . S
H254 N251 0.984 . S
H255 N251 0.985 . S
H256 N250 0.984 . S
H257 N250 0.984 . S
H258 N246 0.984 . S
H259 N246 0.985 . S
C260 C261 1.363 . S
C260 C266 1.379 . S
C260 N268 1.356 . S
C261 C260 1.363 . S
C261 C267 1.363 . S
C262 C263 1.363 . S
C262 C267 1.379 . S
C262 N269 1.356 . S
C263 C262 1.363 . S
C263 C266 1.363 . S
N264 C266 1.356 . S
N264 H276 0.984 . S
N264 H277 0.985 . S
N265 C267 1.356 . S
N265 H270 0.984 . S
N265 H271 0.985 . S
C266 C260 1.379 . S
C266 C263 1.363 . S
C266 N264 1.356 . S
C267 C261 1.363 . S
C267 C262 1.379 . S
C267 N265 1.356 . S
N268 C260 1.356 . S
N268 H274 0.984 . S
N268 H275 0.984 . S
N269 C262 1.356 . S
N269 H272 0.984 . S
N269 H273 0.985 . S
H270 N265 0.984 . S
H271 N265 0.985 . S
H272 N269 0.984 . S
H273 N269 0.985 . S
H274 N268 0.984 . S
H275 N268 0.984 . S
H276 N264 0.984 . S
H277 N264 0.985 . S
C278 C279 1.363 . S
C278 C284 1.379 . S
C278 N286 1.356 . S
C279 C278 1.363 . S
C279 C285 1.363 . S
C280 C281 1.363 . S
C280 C285 1.379 . S
C280 N287 1.356 . S
C281 C280 1.363 . S
C281 C284 1.363 . S
N282 C284 1.356 . S
N282 H294 0.984 . S
N282 H295 0.985 . S
N283 C285 1.356 . S
N283 H288 0.984 . S
N283 H289 0.985 . S
C284 C278 1.379 . S
C284 C281 1.363 . S
C284 N282 1.356 . S
C285 C279 1.363 . S
C285 C280 1.379 . S
C285 N283 1.356 . S
N286 C278 1.356 . S
N286 H292 0.984 . S
N286 H293 0.984 . S
N287 C280 1.356 . S
N287 H290 0.984 . S
N287 H291 0.985 . S
H288 N283 0.984 . S
H289 N283 0.985 . S
H290 N287 0.984 . S
H291 N287 0.985 . S
H292 N286 0.984 . S
H293 N286 0.984 . S
H294 N282 0.984 . S
H295 N282 0.985 . S
C296 C297 1.363 . S
C296 C302 1.379 . S
C296 N304 1.356 . S
C297 C296 1.363 . S
C297 C303 1.363 1_546 S
C298 C299 1.363 1_565 S
C298 C303 1.379 1_556 S
C298 N305 1.356 . S
C299 C298 1.363 1_545 S
C299 C302 1.363 . S
N300 C302 1.356 . S
N300 H312 0.984 . S
N300 H313 0.985 . S
N301 C303 1.356 . S
N301 H306 0.984 . S
N301 H307 0.985 . S
C302 C296 1.379 . S
C302 C299 1.363 . S
C302 N300 1.356 . S
C303 C297 1.363 1_564 S
C303 C298 1.379 1_554 S
C303 N301 1.356 . S
N304 C296 1.356 . S
N304 H310 0.984 . S
N304 H311 0.984 . S
N305 C298 1.356 . S
N305 H308 0.984 . S
N305 H309 0.985 1_556 S
H306 N301 0.984 . S
H307 N301 0.985 . S
H308 N305 0.984 . S
H309 N305 0.985 1_554 S
H310 N304 0.984 . S
H311 N304 0.984 . S
H312 N300 0.984 . S
H313 N300 0.985 . S
C314 C315 1.363 1_556 S
C314 C320 1.379 . S
C314 N322 1.356 . S
C315 C314 1.363 1_554 S
C315 C321 1.363 . S
C316 C317 1.363 1_554 S
C316 C321 1.379 . S
C316 N323 1.356 . S
C317 C316 1.363 1_556 S
C317 C320 1.363 . S
N318 C320 1.356 . S
N318 H330 0.984 . S
N318 H331 0.985 . S
N319 C321 1.356 . S
N319 H324 0.984 . S
N319 H325 0.985 . S
C320 C314 1.379 . S
C320 C317 1.363 . S
C320 N318 1.356 . S
C321 C315 1.363 . S
C321 C316 1.379 . S
C321 N319 1.356 . S
N322 C314 1.356 . S
N322 H328 0.984 . S
N322 H329 0.984 . S
N323 C316 1.356 . S
N323 H326 0.984 . S
N323 H327 0.985 . S
H324 N319 0.984 . S
H325 N319 0.985 . S
H326 N323 0.984 . S
H327 N323 0.985 . S
H328 N322 0.984 . S
H329 N322 0.984 . S
H330 N318 0.984 . S
H331 N318 0.985 . S
C332 C333 1.363 . S
C332 C338 1.379 1_554 S
C332 N340 1.356 . S
C333 C332 1.363 . S
C333 C339 1.363 . S
C334 C335 1.363 . S
C334 C339 1.379 1_556 S
C334 N341 1.356 . S
C335 C334 1.363 . S
C335 C338 1.363 . S
N336 C338 1.356 . S
N336 H348 0.984 . S
N336 H349 0.985 . S
N337 C339 1.356 . S
N337 H342 0.984 . S
N337 H343 0.985 . S
C338 C332 1.379 1_556 S
C338 C335 1.363 . S
C338 N336 1.356 . S
C339 C333 1.363 . S
C339 C334 1.379 1_554 S
C339 N337 1.356 . S
N340 C332 1.356 . S
N340 H346 0.984 . S
N340 H347 0.984 . S
N341 C334 1.356 . S
N341 H344 0.984 . S
N341 H345 0.985 . S
H342 N337 0.984 . S
H343 N337 0.985 . S
H344 N341 0.984 . S
H345 N341 0.985 . S
H346 N340 0.984 . S
H347 N340 0.984 . S
H348 N336 0.984 . S
H349 N336 0.985 . S
C350 C351 1.363 . S
C350 C356 1.379 . S
C350 N358 1.356 . S
C351 C350 1.363 . S
C351 C357 1.363 1_655 S
C352 C353 1.363 . S
C352 C357 1.379 . S
C352 N359 1.356 . S
C353 C352 1.363 . S
C353 C356 1.363 1_455 S
N354 C356 1.356 . S
N354 H366 0.984 . S
N354 H367 0.985 . S
N355 C357 1.356 1_554 S
N355 H360 0.984 . S
N355 H361 0.985 . S
C356 C350 1.379 . S
C356 C353 1.363 1_655 S
C356 N354 1.356 . S
C357 C351 1.363 1_455 S
C357 C352 1.379 . S
C357 N355 1.356 1_556 S
N358 C350 1.356 . S
N358 H364 0.984 . S
N358 H365 0.984 . S
N359 C352 1.356 . S
N359 H362 0.984 . S
N359 H363 0.985 1_556 S
H360 N355 0.984 . S
H361 N355 0.985 . S
H362 N359 0.984 . S
H363 N359 0.985 1_554 S
H364 N358 0.984 . S
H365 N358 0.984 . S
H366 N354 0.984 . S
H367 N354 0.985 . S
C368 C369 1.363 . S
C368 C374 1.379 . S
C368 N376 1.356 . S
C369 C368 1.363 . S
C369 C375 1.363 . S
C370 C371 1.363 . S
C370 C375 1.379 . S
C370 N377 1.356 . S
C371 C370 1.363 . S
C371 C374 1.363 . S
N372 C374 1.356 . S
N372 H384 0.984 . S
N372 H385 0.985 . S
N373 C375 1.356 . S
N373 H378 0.984 . S
N373 H379 0.985 . S
C374 C368 1.379 . S
C374 C371 1.363 . S
C374 N372 1.356 . S
C375 C369 1.363 . S
C375 C370 1.379 . S
C375 N373 1.356 . S
N376 C368 1.356 . S
N376 H382 0.984 . S
N376 H383 0.984 . S
N377 C370 1.356 . S
N377 H380 0.984 1_455 S
N377 H381 0.985 1_455 S
H378 N373 0.984 . S
H379 N373 0.985 . S
H380 N377 0.984 1_655 S
H381 N377 0.985 1_655 S
H382 N376 0.984 . S
H383 N376 0.984 . S
H384 N372 0.984 . S
H385 N372 0.985 . S
C386 C387 1.377 . S
C386 C392 1.379 . S
C386 N394 1.356 . S
C387 C386 1.377 . S
C387 C393 1.350 1_565 S
C388 C389 1.363 1_545 S
C388 C393 1.379 . S
C388 N395 1.356 . S
C389 C388 1.363 1_565 S
C389 C392 1.363 . S
N390 C392 1.356 . S
N390 H402 0.984 . S
N390 H403 0.985 . S
N391 C393 1.356 . S
N391 H396 0.984 . S
N391 H397 0.985 . S
C392 C386 1.379 . S
C392 C389 1.363 . S
C392 N390 1.356 . S
C393 C387 1.350 1_545 S
C393 C388 1.379 . S
C393 N391 1.356 . S
N394 C386 1.356 . S
N394 H400 0.984 . S
N394 H401 0.984 . S
N395 C388 1.356 . S
N395 H398 0.984 . S
N395 H399 0.985 . S
H396 N391 0.984 . S
H397 N391 0.985 . S
H398 N395 0.984 . S
H399 N395 0.985 . S
H400 N394 0.984 . S
H401 N394 0.984 . S
H402 N390 0.984 . S
H403 N390 0.985 . S
C404 C405 1.363 . S
C404 C410 1.379 . S
C404 N412 1.356 . S
C405 C404 1.363 . S
C405 C411 1.363 . S
C406 C407 1.363 . S
C406 C411 1.379 . S
C406 N413 1.356 . S
C407 C406 1.363 . S
C407 C410 1.363 . S
N408 C410 1.356 . S
N408 H420 0.984 . S
N408 H421 0.985 . S
N409 C411 1.356 . S
N409 H414 0.984 . S
N409 H415 0.985 . S
C410 C404 1.379 . S
C410 C407 1.363 . S
C410 N408 1.356 . S
C411 C405 1.363 . S
C411 C406 1.379 . S
C411 N409 1.356 . S
N412 C404 1.356 . S
N412 H418 0.984 . S
N412 H419 0.984 . S
N413 C406 1.356 . S
N413 H416 0.984 . S
N413 H417 0.985 . S
H414 N409 0.984 . S
H415 N409 0.985 . S
H416 N413 0.984 . S
H417 N413 0.985 . S
H418 N412 0.984 . S
H419 N412 0.984 . S
H420 N408 0.984 . S
H421 N408 0.985 . S
C422 C423 1.363 . S
C422 C428 1.379 . S
C422 N430 1.356 . S
C423 C422 1.363 . S
C423 C429 1.363 . S
C424 C425 1.363 . S
C424 C429 1.379 . S
C424 N431 1.356 . S
C425 C424 1.363 . S
C425 C428 1.363 . S
N426 C428 1.356 . S
N426 H438 0.984 . S
N426 H439 0.985 . S
N427 C429 1.356 . S
N427 H432 0.984 . S
N427 H433 0.985 . S
C428 C422 1.379 . S
C428 C425 1.363 . S
C428 N426 1.356 . S
C429 C423 1.363 . S
C429 C424 1.379 . S
C429 N427 1.356 . S
N430 C422 1.356 . S
N430 H436 0.984 . S
N430 H437 0.984 . S
N431 C424 1.356 . S
N431 H434 0.984 . S
N431 H435 0.985 . S
H432 N427 0.984 . S
H433 N427 0.985 . S
H434 N431 0.984 . S
H435 N431 0.985 . S
H436 N430 0.984 . S
H437 N430 0.984 . S
H438 N426 0.984 . S
H439 N426 0.985 . S
C440 C441 1.363 1_455 S
C440 C446 1.379 . S
C440 N448 1.356 . S
C441 C440 1.363 1_655 S
C441 C447 1.363 . S
C442 C443 1.363 1_655 S
C442 C447 1.379 . S
C442 N449 1.356 1_556 S
C443 C442 1.363 1_455 S
C443 C446 1.363 . S
N444 C446 1.356 . S
N444 H456 0.984 . S
N444 H457 0.985 . S
N445 C447 1.356 1_554 S
N445 H450 0.984 1_554 S
N445 H451 0.985 . S
C446 C440 1.379 . S
C446 C443 1.363 . S
C446 N444 1.356 . S
C447 C441 1.363 . S
C447 C442 1.379 . S
C447 N445 1.356 1_556 S
N448 C440 1.356 . S
N448 H454 0.984 . S
N448 H455 0.984 1_455 S
N449 C442 1.356 1_554 S
N449 H452 0.984 1_655 S
N449 H453 0.985 . S
H450 N445 0.984 1_556 S
H451 N445 0.985 . S
H452 N449 0.984 1_455 S
H453 N449 0.985 . S
H454 N448 0.984 . S
H455 N448 0.984 1_655 S
H456 N444 0.984 . S
H457 N444 0.985 . S
C458 C459 1.344 1_566 S
C458 C464 1.379 . S
C458 N466 1.356 . S
C459 C458 1.344 1_544 S
C459 C465 1.382 . S
C460 C461 1.363 . S
C460 C465 1.379 1_556 S
C460 N467 1.356 1_556 S
C461 C460 1.363 . S
C461 C464 1.363 1_545 S
N462 C464 1.356 . S
N462 H474 0.984 . S
N462 H475 0.985 . S
N463 C465 1.356 . S
N463 H468 0.984 . S
N463 H469 0.985 . S
C464 C458 1.379 . S
C464 C461 1.363 1_565 S
C464 N462 1.356 . S
C465 C459 1.382 . S
C465 C460 1.379 1_554 S
C465 N463 1.356 . S
N466 C458 1.356 . S
N466 H472 0.984 . S
N466 H473 0.984 . S
N467 C460 1.356 1_554 S
N467 H470 0.984 1_554 S
N467 H471 0.985 . S
H468 N463 0.984 . S
H469 N463 0.985 . S
H470 N467 0.984 1_556 S
H471 N467 0.985 . S
H472 N466 0.984 . S
H473 N466 0.984 . S
H474 N462 0.984 . S
H475 N462 0.985 . S
C476 C477 1.363 . S
C476 C482 1.379 . S
C476 N484 1.356 . S
C477 C476 1.363 . S
C477 C483 1.363 1_554 S
C478 C479 1.363 . S
C478 C483 1.379 . S
C478 N485 1.356 . S
C479 C478 1.363 . S
C479 C482 1.363 1_556 S
N480 C482 1.356 . S
N480 H492 0.984 . S
N480 H493 0.985 . S
N481 C483 1.356 . S
N481 H486 0.984 . S
N481 H487 0.985 . S
C482 C476 1.379 . S
C482 C479 1.363 1_554 S
C482 N480 1.356 . S
C483 C477 1.363 1_556 S
C483 C478 1.379 . S
C483 N481 1.356 . S
N484 C476 1.356 . S
N484 H490 0.984 . S
N484 H491 0.984 . S
N485 C478 1.356 . S
N485 H488 0.984 . S
N485 H489 0.985 . S
H486 N481 0.984 . S
H487 N481 0.985 . S
H488 N485 0.984 . S
H489 N485 0.985 . S
H490 N484 0.984 . S
H491 N484 0.984 . S
H492 N480 0.984 . S
H493 N480 0.985 . S
C494 C495 1.363 . S
C494 C500 1.379 1_554 S
C494 N502 1.356 . S
C495 C494 1.363 . S
C495 C501 1.363 . S
C496 C497 1.363 . S
C496 C501 1.379 1_556 S
C496 N503 1.356 . S
C497 C496 1.363 . S
C497 C500 1.363 . S
N498 C500 1.356 . S
N498 H510 0.984 . S
N498 H511 0.985 . S
N499 C501 1.356 . S
N499 H504 0.984 . S
N499 H505 0.985 . S
C500 C494 1.379 1_556 S
C500 C497 1.363 . S
C500 N498 1.356 . S
C501 C495 1.363 . S
C501 C496 1.379 1_554 S
C501 N499 1.356 . S
N502 C494 1.356 . S
N502 H508 0.984 . S
N502 H509 0.984 . S
N503 C496 1.356 . S
N503 H506 0.984 . S
N503 H507 0.985 . S
H504 N499 0.984 . S
H505 N499 0.985 . S
H506 N503 0.984 . S
H507 N503 0.985 . S
H508 N502 0.984 . S
H509 N502 0.984 . S
H510 N498 0.984 . S
H511 N498 0.985 . S
C512 C513 1.363 . S
C512 C518 1.379 . S
C512 N520 1.356 . S
C513 C512 1.363 . S
C513 C519 1.363 . S
C514 C515 1.363 . S
C514 C519 1.379 . S
C514 N521 1.356 . S
C515 C514 1.363 . S
C515 C518 1.363 . S
N516 C518 1.356 . S
N516 H528 0.984 . S
N516 H529 0.985 . S
N517 C519 1.356 . S
N517 H522 0.984 . S
N517 H523 0.985 1_455 S
C518 C512 1.379 . S
C518 C515 1.363 . S
C518 N516 1.356 . S
C519 C513 1.363 . S
C519 C514 1.379 . S
C519 N517 1.356 . S
N520 C512 1.356 . S
N520 H526 0.984 . S
N520 H527 0.984 . S
N521 C514 1.356 . S
N521 H524 0.984 . S
N521 H525 0.985 1_455 S
H522 N517 0.984 . S
H523 N517 0.985 1_655 S
H524 N521 0.984 . S
H525 N521 0.985 1_655 S
H526 N520 0.984 . S
H527 N520 0.984 . S
H528 N516 0.984 . S
H529 N516 0.985 . S
C530 C531 1.386 . S
C530 C536 1.379 . S
C530 N538 1.356 . S
C531 C530 1.386 . S
C531 C537 1.339 1_545 S
C532 C533 1.363 1_565 S
C532 C537 1.379 . S
C532 N539 1.356 . S
C533 C532 1.363 1_545 S
C533 C536 1.363 . S
N534 C536 1.356 1_556 S
N534 H546 0.984 . S
N534 H547 0.985 . S
N535 C537 1.356 . S
N535 H540 0.984 . S
N535 H541 0.985 . S
C536 C530 1.379 . S
C536 C533 1.363 . S
C536 N534 1.356 1_554 S
C537 C531 1.339 1_565 S
C537 C532 1.379 . S
C537 N535 1.356 . S
N538 C530 1.356 . S
N538 H544 0.984 . S
N538 H545 0.984 . S
N539 C532 1.356 . S
N539 H542 0.984 . S
N539 H543 0.985 . S
H540 N535 0.984 . S
H541 N535 0.985 . S
H542 N539 0.984 . S
H543 N539 0.985 . S
H544 N538 0.984 . S
H545 N538 0.984 . S
H546 N534 0.984 . S
H547 N534 0.985 . S
C548 C549 1.363 . S
C548 C554 1.379 . S
C548 N556 1.356 . S
C549 C548 1.363 . S
C549 C555 1.363 . S
C550 C551 1.363 . S
C550 C555 1.379 . S
C550 N557 1.356 . S
C551 C550 1.363 . S
C551 C554 1.363 . S
N552 C554 1.356 1_556 S
N552 H564 0.984 . S
N552 H565 0.985 . S
N553 C555 1.356 . S
N553 H558 0.984 . S
N553 H559 0.985 . S
C554 C548 1.379 . S
C554 C551 1.363 . S
C554 N552 1.356 1_554 S
C555 C549 1.363 . S
C555 C550 1.379 . S
C555 N553 1.356 . S
N556 C548 1.356 . S
N556 H562 0.984 . S
N556 H563 0.984 . S
N557 C550 1.356 . S
N557 H560 0.984 . S
N557 H561 0.985 . S
H558 N553 0.984 . S
H559 N553 0.985 . S
H560 N557 0.984 . S
H561 N557 0.985 . S
H562 N556 0.984 . S
H563 N556 0.984 . S
H564 N552 0.984 . S
H565 N552 0.985 . S
C566 C567 1.363 . S
C566 C572 1.379 1_554 S
C566 N574 1.356 . S
C567 C566 1.363 . S
C567 C573 1.363 . S
C568 C569 1.363 1_554 S
C568 C573 1.379 . S
C568 N575 1.356 . S
C569 C568 1.363 1_556 S
C569 C572 1.363 . S
N570 C572 1.356 . S
N570 H582 0.984 . S
N570 H583 0.985 . S
N571 C573 1.356 . S
N571 H576 0.984 . S
N571 H577 0.985 . S
C572 C566 1.379 1_556 S
C572 C569 1.363 . S
C572 N570 1.356 . S
C573 C567 1.363 . S
C573 C568 1.379 . S
C573 N571 1.356 . S
N574 C566 1.356 . S
N574 H580 0.984 . S
N574 H581 0.984 . S
N575 C568 1.356 . S
N575 H578 0.984 1_554 S
N575 H579 0.985 . S
H576 N571 0.984 . S
H577 N571 0.985 . S
H578 N575 0.984 1_556 S
H579 N575 0.985 . S
H580 N574 0.984 . S
H581 N574 0.984 . S
H582 N570 0.984 . S
H583 N570 0.985 . S
C584 C585 1.363 1_455 S
C584 C590 1.379 . S
C584 N592 1.356 . S
C585 C584 1.363 1_655 S
C585 C591 1.363 . S
C586 C587 1.363 . S
C586 C591 1.379 . S
C586 N593 1.356 . S
C587 C586 1.363 . S
C587 C590 1.363 1_655 S
N588 C590 1.356 . S
N588 H600 0.984 . S
N588 H601 0.985 . S
N589 C591 1.356 . S
N589 H594 0.984 . S
N589 H595 0.985 . S
C590 C584 1.379 . S
C590 C587 1.363 1_455 S
C590 N588 1.356 . S
C591 C585 1.363 . S
C591 C586 1.379 . S
C591 N589 1.356 . S
N592 C584 1.356 . S
N592 H598 0.984 . S
N592 H599 0.984 . S
N593 C586 1.356 . S
N593 H596 0.984 . S
N593 H597 0.985 . S
H594 N589 0.984 . S
H595 N589 0.985 . S
H596 N593 0.984 . S
H597 N593 0.985 . S
H598 N592 0.984 . S
H599 N592 0.984 . S
H600 N588 0.984 . S
H601 N588 0.985 . S
C602 C603 1.349 1_545 S
C602 C608 1.379 . S
C602 N610 1.356 . S
C603 C602 1.349 1_565 S
C603 C609 1.377 . S
C604 C605 1.363 . S
C604 C609 1.379 . S
C604 N611 1.356 . S
C605 C604 1.363 . S
C605 C608 1.363 1_565 S
N606 C608 1.356 . S
N606 H618 0.984 . S
N606 H619 0.985 . S
N607 C609 1.356 . S
N607 H612 0.984 . S
N607 H613 0.985 . S
C608 C602 1.379 . S
C608 C605 1.363 1_545 S
C608 N606 1.356 . S
C609 C603 1.377 . S
C609 C604 1.379 . S
C609 N607 1.356 . S
N610 C602 1.356 . S
N610 H616 0.984 . S
N610 H617 0.984 . S
N611 C604 1.356 . S
N611 H614 0.984 . S
N611 H615 0.985 . S
H612 N607 0.984 . S
H613 N607 0.985 . S
H614 N611 0.984 . S
H615 N611 0.985 . S
H616 N610 0.984 . S
H617 N610 0.984 . S
H618 N606 0.984 . S
H619 N606 0.985 . S
C620 C621 1.363 . S
C620 C626 1.379 . S
C620 N628 1.356 . S
C621 C620 1.363 . S
C621 C627 1.363 . S
C622 C623 1.363 . S
C622 C627 1.379 . S
C622 N629 1.356 . S
C623 C622 1.363 . S
C623 C626 1.363 . S
N624 C626 1.356 . S
N624 H636 0.984 . S
N624 H637 0.985 . S
N625 C627 1.356 . S
N625 H630 0.984 . S
N625 H631 0.985 . S
C626 C620 1.379 . S
C626 C623 1.363 . S
C626 N624 1.356 . S
C627 C621 1.363 . S
C627 C622 1.379 . S
C627 N625 1.356 . S
N628 C620 1.356 . S
N628 H634 0.984 . S
N628 H635 0.984 . S
N629 C622 1.356 . S
N629 H632 0.984 . S
N629 H633 0.985 . S
H630 N625 0.984 . S
H631 N625 0.985 . S
H632 N629 0.984 . S
H633 N629 0.985 . S
H634 N628 0.984 . S
H635 N628 0.984 . S
H636 N624 0.984 . S
H637 N624 0.985 . S
C638 C639 1.363 . S
C638 C644 1.379 . S
C638 N646 1.356 . S
C639 C638 1.363 . S
C639 C645 1.363 . S
C640 C641 1.363 . S
C640 C645 1.379 . S
C640 N647 1.356 . S
C641 C640 1.363 . S
C641 C644 1.363 . S
N642 C644 1.356 . S
N642 H654 0.984 . S
N642 H655 0.985 . S
N643 C645 1.356 . S
N643 H648 0.984 . S
N643 H649 0.985 . S
C644 C638 1.379 . S
C644 C641 1.363 . S
C644 N642 1.356 . S
C645 C639 1.363 . S
C645 C640 1.379 . S
C645 N643 1.356 . S
N646 C638 1.356 . S
N646 H652 0.984 . S
N646 H653 0.984 . S
N647 C640 1.356 . S
N647 H650 0.984 . S
N647 H651 0.985 . S
H648 N643 0.984 . S
H649 N643 0.985 . S
H650 N647 0.984 . S
H651 N647 0.985 . S
H652 N646 0.984 . S
H653 N646 0.984 . S
H654 N642 0.984 . S
H655 N642 0.985 . S
C225 C76 1.851 . S
C227 C105 1.876 . S
C245 C126 1.534 . S
C243 C87 1.507 . S
C263 C160 1.475 . S
C261 C54 1.430 . S
C281 C194 1.555 . S
C279 C65 1.533 . S
C299 C96 1.876 . S
C297 C32 1.851 1_546 S
C315 C43 1.515 . S
C317 C135 1.538 . S
C333 C10 1.431 . S
C335 C169 1.475 . S
C351 C21 1.540 . S
C353 C203 1.554 . S
C371 C117 0.881 . S
C369 C60 0.828 . S
C389 C122 1.276 . S
C387 C71 1.242 1_565 S
C407 C156 1.186 . S
C405 C82 1.169 . S
C423 C49 0.624 . S
C425 C190 0.624 . S
C441 C16 0.826 . S
C443 C88 0.884 . S
C461 C151 1.276 . S
C459 C27 1.239 . S
C479 C185 1.186 . S
C477 C38 1.163 . S
C495 C5 0.624 . S
C497 C219 0.624 . S
C513 C59 1.345 . S
C515 C101 1.388 . S
C531 C70 1.716 . S
C533 C130 1.767 1_554 S
C551 C164 1.546 1_554 S
C549 C81 1.514 . S
C569 C198 1.608 . S
C567 C48 1.557 . S
C585 C15 1.340 . S
C587 C92 1.393 . S
C605 C139 1.767 . S
C603 C26 1.719 1_565 S
C623 C173 1.546 . S
C621 C37 1.513 . S
C639 C4 1.560 . S
C641 C207 1.609 . S
