# Generated by pormake.
# Topology bwt, (3,3)-cn, num edge types: 1
# Building blocks:
#     Node 0, Type 0, BuildingBlock: WUSLED_clean_sbu_0, # of connection points: 3
#     Node 1, Type 0, BuildingBlock: WUSLED_clean_sbu_0, # of connection points: 3
#     Node 2, Type 0, BuildingBlock: WUSLED_clean_sbu_0, # of connection points: 3
#     Node 3, Type 0, BuildingBlock: WUSLED_clean_sbu_0, # of connection points: 3
#     Node 4, Type 0, BuildingBlock: WUSLED_clean_sbu_0, # of connection points: 3
#     Node 5, Type 0, BuildingBlock: WUSLED_clean_sbu_0, # of connection points: 3
#     Node 6, Type 0, BuildingBlock: WUSLED_clean_sbu_0, # of connection points: 3
#     Node 7, Type 0, BuildingBlock: WUSLED_clean_sbu_0, # of connection points: 3
#     Node 8, Type 0, BuildingBlock: WUSLED_clean_sbu_0, # of connection points: 3
#     Node 9, Type 0, BuildingBlock: WUSLED_clean_sbu_0, # of connection points: 3
#     Node 10, Type 0, BuildingBlock: WUSLED_clean_sbu_0, # of connection points: 3
#     Node 11, Type 0, BuildingBlock: WUSLED_clean_sbu_0, # of connection points: 3
#     Node 12, Type 0, BuildingBlock: WUSLED_clean_sbu_0, # of connection points: 3
#     Node 13, Type 0, BuildingBlock: WUSLED_clean_sbu_0, # of connection points: 3
#     Node 14, Type 0, BuildingBlock: WUSLED_clean_sbu_0, # of connection points: 3
#     Node 15, Type 0, BuildingBlock: WUSLED_clean_sbu_0, # of connection points: 3
#     Node 16, Type 0, BuildingBlock: WUSLED_clean_sbu_0, # of connection points: 3
#     Node 17, Type 0, BuildingBlock: WUSLED_clean_sbu_0, # of connection points: 3
#     Node 18, Type 0, BuildingBlock: WUSLED_clean_sbu_0, # of connection points: 3
#     Node 19, Type 0, BuildingBlock: WUSLED_clean_sbu_0, # of connection points: 3
#     Node 20, Type 0, BuildingBlock: WUSLED_clean_sbu_0, # of connection points: 3
#     Node 21, Type 0, BuildingBlock: WUSLED_clean_sbu_0, # of connection points: 3
#     Node 22, Type 0, BuildingBlock: WUSLED_clean_sbu_0, # of connection points: 3
#     Node 23, Type 0, BuildingBlock: WUSLED_clean_sbu_0, # of connection points: 3
#     Node 24, Type 1, BuildingBlock: PAMTOO_clean_linker_0, # of connection points: 3
#     Node 25, Type 1, BuildingBlock: PAMTOO_clean_linker_0, # of connection points: 3
#     Node 26, Type 1, BuildingBlock: PAMTOO_clean_linker_0, # of connection points: 3
#     Node 27, Type 1, BuildingBlock: PAMTOO_clean_linker_0, # of connection points: 3
#     Node 28, Type 1, BuildingBlock: PAMTOO_clean_linker_0, # of connection points: 3
#     Node 29, Type 1, BuildingBlock: PAMTOO_clean_linker_0, # of connection points: 3
#     Node 30, Type 1, BuildingBlock: PAMTOO_clean_linker_0, # of connection points: 3
#     Node 31, Type 1, BuildingBlock: PAMTOO_clean_linker_0, # of connection points: 3
#     Node 32, Type 1, BuildingBlock: PAMTOO_clean_linker_0, # of connection points: 3
#     Node 33, Type 1, BuildingBlock: PAMTOO_clean_linker_0, # of connection points: 3
#     Node 34, Type 1, BuildingBlock: PAMTOO_clean_linker_0, # of connection points: 3
#     Node 35, Type 1, BuildingBlock: PAMTOO_clean_linker_0, # of connection points: 3
#     Node 36, Type 1, BuildingBlock: PAMTOO_clean_linker_0, # of connection points: 3
#     Node 37, Type 1, BuildingBlock: PAMTOO_clean_linker_0, # of connection points: 3
#     Node 38, Type 1, BuildingBlock: PAMTOO_clean_linker_0, # of connection points: 3
#     Node 39, Type 1, BuildingBlock: PAMTOO_clean_linker_0, # of connection points: 3
#     Node 40, Type 1, BuildingBlock: PAMTOO_clean_linker_0, # of connection points: 3
#     Node 41, Type 1, BuildingBlock: PAMTOO_clean_linker_0, # of connection points: 3
#     Node 42, Type 1, BuildingBlock: PAMTOO_clean_linker_0, # of connection points: 3
#     Node 43, Type 1, BuildingBlock: PAMTOO_clean_linker_0, # of connection points: 3
#     Node 44, Type 1, BuildingBlock: PAMTOO_clean_linker_0, # of connection points: 3
#     Node 45, Type 1, BuildingBlock: PAMTOO_clean_linker_0, # of connection points: 3
#     Node 46, Type 1, BuildingBlock: PAMTOO_clean_linker_0, # of connection points: 3
#     Node 47, Type 1, BuildingBlock: PAMTOO_clean_linker_0, # of connection points: 3
#     Edge 48, Type (0, 1), BuildingBlock: XUDNAN_clean_linker_2, # of connection points: 2
#     Edge 49, Type (0, 1), BuildingBlock: XUDNAN_clean_linker_2, # of connection points: 2
#     Edge 50, Type (0, 1), BuildingBlock: XUDNAN_clean_linker_2, # of connection points: 2
#     Edge 51, Type (0, 1), BuildingBlock: XUDNAN_clean_linker_2, # of connection points: 2
#     Edge 52, Type (0, 1), BuildingBlock: XUDNAN_clean_linker_2, # of connection points: 2
#     Edge 53, Type (0, 1), BuildingBlock: XUDNAN_clean_linker_2, # of connection points: 2
#     Edge 54, Type (0, 1), BuildingBlock: XUDNAN_clean_linker_2, # of connection points: 2
#     Edge 55, Type (0, 1), BuildingBlock: XUDNAN_clean_linker_2, # of connection points: 2
#     Edge 56, Type (0, 1), BuildingBlock: XUDNAN_clean_linker_2, # of connection points: 2
#     Edge 57, Type (0, 1), BuildingBlock: XUDNAN_clean_linker_2, # of connection points: 2
#     Edge 58, Type (0, 1), BuildingBlock: XUDNAN_clean_linker_2, # of connection points: 2
#     Edge 59, Type (0, 1), BuildingBlock: XUDNAN_clean_linker_2, # of connection points: 2
#     Edge 60, Type (0, 1), BuildingBlock: XUDNAN_clean_linker_2, # of connection points: 2
#     Edge 61, Type (0, 1), BuildingBlock: XUDNAN_clean_linker_2, # of connection points: 2
#     Edge 62, Type (0, 1), BuildingBlock: XUDNAN_clean_linker_2, # of connection points: 2
#     Edge 63, Type (0, 1), BuildingBlock: XUDNAN_clean_linker_2, # of connection points: 2
#     Edge 64, Type (0, 1), BuildingBlock: XUDNAN_clean_linker_2, # of connection points: 2
#     Edge 65, Type (0, 1), BuildingBlock: XUDNAN_clean_linker_2, # of connection points: 2
#     Edge 66, Type (0, 1), BuildingBlock: XUDNAN_clean_linker_2, # of connection points: 2
#     Edge 67, Type (0, 1), BuildingBlock: XUDNAN_clean_linker_2, # of connection points: 2
#     Edge 68, Type (0, 1), BuildingBlock: XUDNAN_clean_linker_2, # of connection points: 2
#     Edge 69, Type (0, 1), BuildingBlock: XUDNAN_clean_linker_2, # of connection points: 2
#     Edge 70, Type (0, 1), BuildingBlock: XUDNAN_clean_linker_2, # of connection points: 2
#     Edge 71, Type (0, 1), BuildingBlock: XUDNAN_clean_linker_2, # of connection points: 2
#     Edge 72, Type (0, 1), BuildingBlock: XUDNAN_clean_linker_2, # of connection points: 2
#     Edge 73, Type (0, 1), BuildingBlock: XUDNAN_clean_linker_2, # of connection points: 2
#     Edge 74, Type (0, 1), BuildingBlock: XUDNAN_clean_linker_2, # of connection points: 2
#     Edge 75, Type (0, 1), BuildingBlock: XUDNAN_clean_linker_2, # of connection points: 2
#     Edge 76, Type (0, 1), BuildingBlock: XUDNAN_clean_linker_2, # of connection points: 2
#     Edge 77, Type (0, 1), BuildingBlock: XUDNAN_clean_linker_2, # of connection points: 2
#     Edge 78, Type (0, 1), BuildingBlock: XUDNAN_clean_linker_2, # of connection points: 2
#     Edge 79, Type (0, 1), BuildingBlock: XUDNAN_clean_linker_2, # of connection points: 2
#     Edge 80, Type (0, 1), BuildingBlock: XUDNAN_clean_linker_2, # of connection points: 2
#     Edge 81, Type (0, 1), BuildingBlock: XUDNAN_clean_linker_2, # of connection points: 2
#     Edge 82, Type (0, 1), BuildingBlock: XUDNAN_clean_linker_2, # of connection points: 2
#     Edge 83, Type (0, 1), BuildingBlock: XUDNAN_clean_linker_2, # of connection points: 2
#     Edge 84, Type (0, 1), BuildingBlock: XUDNAN_clean_linker_2, # of connection points: 2
#     Edge 85, Type (0, 1), BuildingBlock: XUDNAN_clean_linker_2, # of connection points: 2
#     Edge 86, Type (0, 1), BuildingBlock: XUDNAN_clean_linker_2, # of connection points: 2
#     Edge 87, Type (0, 1), BuildingBlock: XUDNAN_clean_linker_2, # of connection points: 2
#     Edge 88, Type (0, 1), BuildingBlock: XUDNAN_clean_linker_2, # of connection points: 2
#     Edge 89, Type (0, 1), BuildingBlock: XUDNAN_clean_linker_2, # of connection points: 2
#     Edge 90, Type (0, 1), BuildingBlock: XUDNAN_clean_linker_2, # of connection points: 2
#     Edge 91, Type (0, 1), BuildingBlock: XUDNAN_clean_linker_2, # of connection points: 2
#     Edge 92, Type (0, 1), BuildingBlock: XUDNAN_clean_linker_2, # of connection points: 2
#     Edge 93, Type (0, 1), BuildingBlock: XUDNAN_clean_linker_2, # of connection points: 2
#     Edge 94, Type (0, 1), BuildingBlock: XUDNAN_clean_linker_2, # of connection points: 2
#     Edge 95, Type (0, 1), BuildingBlock: XUDNAN_clean_linker_2, # of connection points: 2
#     Edge 96, Type (0, 1), BuildingBlock: XUDNAN_clean_linker_2, # of connection points: 2
#     Edge 97, Type (0, 1), BuildingBlock: XUDNAN_clean_linker_2, # of connection points: 2
#     Edge 98, Type (0, 1), BuildingBlock: XUDNAN_clean_linker_2, # of connection points: 2
#     Edge 99, Type (0, 1), BuildingBlock: XUDNAN_clean_linker_2, # of connection points: 2
#     Edge 100, Type (0, 1), BuildingBlock: XUDNAN_clean_linker_2, # of connection points: 2
#     Edge 101, Type (0, 1), BuildingBlock: XUDNAN_clean_linker_2, # of connection points: 2
#     Edge 102, Type (0, 1), BuildingBlock: XUDNAN_clean_linker_2, # of connection points: 2
#     Edge 103, Type (0, 1), BuildingBlock: XUDNAN_clean_linker_2, # of connection points: 2
#     Edge 104, Type (0, 1), BuildingBlock: XUDNAN_clean_linker_2, # of connection points: 2
#     Edge 105, Type (0, 1), BuildingBlock: XUDNAN_clean_linker_2, # of connection points: 2
#     Edge 106, Type (0, 1), BuildingBlock: XUDNAN_clean_linker_2, # of connection points: 2
#     Edge 107, Type (0, 1), BuildingBlock: XUDNAN_clean_linker_2, # of connection points: 2
#     Edge 108, Type (0, 1), BuildingBlock: XUDNAN_clean_linker_2, # of connection points: 2
#     Edge 109, Type (0, 1), BuildingBlock: XUDNAN_clean_linker_2, # of connection points: 2
#     Edge 110, Type (0, 1), BuildingBlock: XUDNAN_clean_linker_2, # of connection points: 2
#     Edge 111, Type (0, 1), BuildingBlock: XUDNAN_clean_linker_2, # of connection points: 2
#     Edge 112, Type (0, 1), BuildingBlock: XUDNAN_clean_linker_2, # of connection points: 2
#     Edge 113, Type (0, 1), BuildingBlock: XUDNAN_clean_linker_2, # of connection points: 2
#     Edge 114, Type (0, 1), BuildingBlock: XUDNAN_clean_linker_2, # of connection points: 2
#     Edge 115, Type (0, 1), BuildingBlock: XUDNAN_clean_linker_2, # of connection points: 2
#     Edge 116, Type (0, 1), BuildingBlock: XUDNAN_clean_linker_2, # of connection points: 2
#     Edge 117, Type (0, 1), BuildingBlock: XUDNAN_clean_linker_2, # of connection points: 2
#     Edge 118, Type (0, 1), BuildingBlock: XUDNAN_clean_linker_2, # of connection points: 2
#     Edge 119, Type (0, 1), BuildingBlock: XUDNAN_clean_linker_2, # of connection points: 2
# Relax obj value: 0.117
# Max RMSD: 0.171
# Mean RMSD: 0.084
data_MOF--net-bwt--node1-WUSLED_clean_sbu_0--node2-PAMTOO_clean_linker_0--edge1-XUDNAN_clean_linker_2
_symmetry_space_group_name_H-M    P1
_symmetry_Int_Tables_number       1
_symmetry_cell_setting            triclinic
loop_
_symmetry_equiv_pos_as_xyz
'x, y, z'
_cell_length_a     68.265363
_cell_length_b     68.27891
_cell_length_c     68.301938
_cell_angle_alpha  94.965955
_cell_angle_beta   94.885882
_cell_angle_gamma 94.951751
loop_
_atom_site_label
_atom_site_type_symbol
_atom_site_fract_x
_atom_site_fract_y
_atom_site_fract_z
_atom_type_partial_charge
C0 C 0.31875 0.64913 0.35851 0.0
C1 C 0.33049 0.63935 0.37168 0.0
C2 C 0.35818 0.64284 0.35137 0.0
C3 C 0.34997 0.63624 0.36815 0.0
C4 C 0.34646 0.65305 0.33846 0.0
C5 C 0.32694 0.65612 0.34199 0.0
U6 U 0.27634 0.64211 0.39029 0.0
O7 O 0.25388 0.66154 0.39964 0.0
O8 O 0.24469 0.63267 0.38314 0.0
C9 C 0.23906 0.64906 0.39156 0.0
C10 C 0.29794 0.65173 0.36186 0.0
C11 C 0.22168 0.6573 0.38194 0.0
C12 C 0.19874 0.66097 0.35334 0.0
C13 C 0.21666 0.65493 0.36143 0.0
C14 C 0.19085 0.67204 0.38609 0.0
C15 C 0.18544 0.66942 0.3656 0.0
C16 C 0.20871 0.66612 0.39409 0.0
C17 C 0.29034 0.61687 0.43814 0.0
C18 C 0.28515 0.62208 0.47296 0.0
C19 C 0.2958 0.59105 0.45994 0.0
C20 C 0.29541 0.59778 0.44114 0.0
C21 C 0.29129 0.60337 0.47619 0.0
C22 C 0.28466 0.62877 0.45414 0.0
C23 C 0.2937 0.62479 0.41908 0.0
O24 O 0.28617 0.6353 0.36076 0.0
O25 O 0.2954 0.66411 0.37707 0.0
O26 O 0.29441 0.64405 0.41867 0.0
O27 O 0.28458 0.61496 0.403 0.0
H28 H 0.32452 0.63395 0.38461 0.0
H29 H 0.3586 0.62863 0.37862 0.0
H30 H 0.35219 0.65822 0.32533 0.0
H31 H 0.31814 0.66374 0.33166 0.0
H32 H 0.19528 0.65889 0.33749 0.0
H33 H 0.22636 0.64807 0.3517 0.0
H34 H 0.18099 0.67804 0.39615 0.0
H35 H 0.21209 0.66785 0.40997 0.0
H36 H 0.28127 0.6318 0.48513 0.0
H37 H 0.30071 0.57662 0.46194 0.0
H38 H 0.29999 0.58838 0.42909 0.0
H39 H 0.2806 0.64353 0.45231 0.0
C40 C 0.20522 0.32442 0.78188 0.0
C41 C 0.19274 0.33533 0.79293 0.0
C42 C 0.16386 0.32009 0.77165 0.0
C43 C 0.17224 0.33321 0.78786 0.0
C44 C 0.17655 0.30919 0.76072 0.0
C45 C 0.19697 0.31133 0.7658 0.0
U46 U 0.25149 0.34785 0.81364 0.0
O47 O 0.28003 0.33637 0.82199 0.0
O48 O 0.27903 0.36218 0.80492 0.0
C49 C 0.29009 0.34976 0.81316 0.0
C50 C 0.22689 0.32712 0.78632 0.0
C51 C 0.30677 0.34356 0.8025 0.0
C52 C 0.32241 0.337 0.77218 0.0
C53 C 0.30537 0.33972 0.78187 0.0
C54 C 0.34217 0.34117 0.80369 0.0
C55 C 0.34108 0.33828 0.78298 0.0
C56 C 0.3252 0.34375 0.81331 0.0
C57 C 0.24711 0.38414 0.85801 0.0
C58 C 0.27137 0.41196 0.8688 0.0
C59 C 0.24503 0.40367 0.88915 0.0
C60 C 0.23783 0.38774 0.87535 0.0
C61 C 0.26143 0.41629 0.88558 0.0
C62 C 0.26439 0.39591 0.85522 0.0
C63 C 0.23783 0.36941 0.84215 0.0
O64 O 0.23512 0.34484 0.78425 0.0
O65 O 0.23402 0.31984 0.80237 0.0
O66 O 0.24158 0.35101 0.84364 0.0
O67 O 0.23886 0.37478 0.82422 0.0
H68 H 0.19886 0.34558 0.80539 0.0
H69 H 0.16296 0.34169 0.79674 0.0
H70 H 0.17075 0.29921 0.74796 0.0
H71 H 0.20636 0.30291 0.75698 0.0
H72 H 0.32111 0.33489 0.75621 0.0
H73 H 0.29129 0.33959 0.77323 0.0
H74 H 0.35627 0.34198 0.81244 0.0
H75 H 0.32661 0.34672 0.82924 0.0
H76 H 0.28414 0.42144 0.86586 0.0
H77 H 0.23715 0.40679 0.90201 0.0
H78 H 0.22455 0.37876 0.87782 0.0
H79 H 0.27196 0.39324 0.84207 0.0
C80 C 0.72399 1.00141 0.64324 0.0
C81 C 0.73954 0.00916 0.63316 0.0
C82 C 0.76354 1.00105 0.65902 0.0
C83 C 0.75914 0.00901 0.64099 0.0
C84 C 0.74784 0.9934 0.66907 0.0
C85 C 0.72825 0.99358 0.66123 0.0
U86 U 0.68745 0.00811 0.6001 0.0
O87 O 0.66151 0.98878 0.58654 0.0
O88 O 0.6581 0.01922 0.59806 0.0
C89 C 0.64927 1.00227 0.58983 0.0
C90 C 0.70343 1.00057 0.63459 0.0
C91 C 0.63055 0.99563 0.59739 0.0
C92 C 0.6117 0.98047 0.62163 0.0
C93 C 0.62992 0.98619 0.61479 0.0
C94 C 0.59474 0.99345 0.59365 0.0
C95 C 0.59386 0.98415 0.61119 0.0
C96 C 0.61289 0.99909 0.58684 0.0
C97 C 0.70467 0.0243 0.55299 0.0
C98 C 0.68053 0.01899 0.52444 0.0
C99 C 0.71502 0.02767 0.52024 0.0
C100 C 0.71955 0.02875 0.54071 0.0
C101 C 0.69562 0.02191 0.51198 0.0
C102 C 0.68502 0.02026 0.54484 0.0
C103 C 0.70977 0.02087 0.57362 0.0
O104 O 0.69686 0.01767 0.63135 0.0
O105 O 0.69871 0.98696 0.61973 0.0
O106 O 0.70717 1.00222 0.57698 0.0
O107 O 0.70274 0.03278 0.5869 0.0
H108 H 0.7365 0.01517 0.61916 0.0
H109 H 0.77082 0.01522 0.63297 0.0
H110 H 0.7507 0.98689 0.68281 0.0
H111 H 0.71644 0.98735 0.66908 0.0
H112 H 0.61157 0.97321 0.63511 0.0
H113 H 0.64346 0.98339 0.6231 0.0
H114 H 0.58141 0.99693 0.58544 0.0
H115 H 0.61314 0.00642 0.5734 0.0
H116 H 0.66552 0.01431 0.51831 0.0
H117 H 0.72689 0.02965 0.51082 0.0
H118 H 0.7348 0.03178 0.5468 0.0
H119 H 0.67336 0.01671 0.55413 0.0
C120 C 0.75929 0.02207 0.26281 0.0
C121 C 0.74809 0.03492 0.2526 0.0
C122 C 0.71794 0.02006 0.26411 0.0
C123 C 0.72762 0.03392 0.25323 0.0
C124 C 0.72889 1.00579 0.27237 0.0
C125 C 0.74938 0.00694 0.27193 0.0
U126 U 0.81612 0.02318 0.25611 0.0
O127 O 0.83806 0.02025 0.28076 0.0
O128 O 0.83911 0.04758 0.26607 0.0
C129 C 0.84803 0.0372 0.27886 0.0
C130 C 0.78082 0.02681 0.26764 0.0
C131 C 0.86922 0.03594 0.27751 0.0
C132 C 0.90298 0.04381 0.29209 0.0
C133 C 0.88305 0.04737 0.29115 0.0
C134 C 0.89544 0.01804 0.2651 0.0
C135 C 0.90914 0.02861 0.27955 0.0
C136 C 0.87562 0.02175 0.26401 0.0
C137 C 0.80889 0.99412 0.20429 0.0
C138 C 0.80853 0.9761 0.17204 0.0
C139 C 0.77783 0.98497 0.1842 0.0
C140 C 0.78827 0.99398 0.20168 0.0
C141 C 0.7879 0.9761 0.16912 0.0
C142 C 0.8189 0.98503 0.18947 0.0
C143 C 0.82051 1.00427 0.22186 0.0
O144 O 0.79127 0.01215 0.27176 0.0
O145 O 0.7901 0.03998 0.25787 0.0
O146 O 0.81983 0.99555 0.23824 0.0
O147 O 0.81965 0.02347 0.22449 0.0
H148 H 0.75523 0.04671 0.24534 0.0
H149 H 0.71955 0.04477 0.24616 0.0
H150 H 0.72199 0.9948 0.28076 0.0
H151 H 0.75756 0.99684 0.28004 0.0
H152 H 0.9133 0.05203 0.30342 0.0
H153 H 0.8783 0.05836 0.30168 0.0
H154 H 0.89993 0.00629 0.25525 0.0
H155 H 0.86512 0.01284 0.25333 0.0
H156 H 0.81667 0.96918 0.16083 0.0
H157 H 0.76196 0.98537 0.18229 0.0
H158 H 0.78034 1.00105 0.21299 0.0
H159 H 0.83483 0.98502 0.19128 0.0
C160 C 0.35648 0.31696 0.64833 0.0
C161 C 0.36979 0.33196 0.64287 0.0
C162 C 0.34622 0.35638 0.64878 0.0
C163 C 0.3647 0.35149 0.64307 0.0
C164 C 0.33293 0.34115 0.65397 0.0
C165 C 0.33803 0.32172 0.65378 0.0
U166 U 0.39041 0.27605 0.63769 0.0
O167 O 0.39993 0.25293 0.65604 0.0
O168 O 0.38335 0.24461 0.62711 0.0
C169 C 0.39147 0.23843 0.64335 0.0
C170 C 0.36155 0.29637 0.64875 0.0
C171 C 0.38129 0.22109 0.65139 0.0
C172 C 0.35876 0.19085 0.64615 0.0
C173 C 0.36538 0.20939 0.64043 0.0
C174 C 0.38312 0.19573 0.67438 0.0
C175 C 0.36802 0.18349 0.66283 0.0
C176 C 0.38969 0.21421 0.66871 0.0
C177 C 0.43825 0.29031 0.61306 0.0
C178 C 0.47211 0.28182 0.61797 0.0
C179 C 0.46123 0.29651 0.5884 0.0
C180 C 0.44232 0.29697 0.59482 0.0
C181 C 0.4765 0.28954 0.60023 0.0
C182 C 0.45317 0.28214 0.62431 0.0
C183 C 0.41924 0.2941 0.62092 0.0
O184 O 0.36081 0.28598 0.63153 0.0
O185 O 0.37711 0.29377 0.66061 0.0
O186 O 0.41872 0.29435 0.64014 0.0
O187 O 0.40309 0.28538 0.61088 0.0
H188 H 0.38414 0.32859 0.63861 0.0
H189 H 0.37538 0.3628 0.63913 0.0
H190 H 0.31844 0.34419 0.65808 0.0
H191 H 0.32752 0.31038 0.65796 0.0
H192 H 0.3472 0.18181 0.63681 0.0
H193 H 0.35866 0.21406 0.62688 0.0
H194 H 0.3904 0.19069 0.68748 0.0
H195 H 0.40209 0.22268 0.67739 0.0
H196 H 0.48352 0.2761 0.62727 0.0
H197 H 0.46417 0.30266 0.57474 0.0
H198 H 0.43108 0.30338 0.58592 0.0
H199 H 0.45045 0.27674 0.63838 0.0
C200 C 0.26577 0.75947 0.02143 0.0
C201 C 0.25975 0.75013 0.03773 0.0
C202 C 0.27039 0.71905 0.02412 0.0
C203 C 0.26187 0.73011 0.03898 0.0
C204 C 0.27455 0.72796 0.00694 0.0
C205 C 0.27227 0.74796 0.00562 0.0
U206 U 0.25943 0.81654 0.01926 0.0
O207 O 0.27387 0.8395 0.04177 0.0
O208 O 0.28331 0.83738 0.01176 0.0
C209 C 0.28548 0.84705 0.02941 0.0
C210 C 0.27036 0.78113 0.02318 0.0
C211 C 0.28774 0.86861 0.02993 0.0
C212 C 0.30843 0.89915 0.03949 0.0
C213 C 0.30486 0.87879 0.03991 0.0
C214 C 0.2774 0.8995 0.01946 0.0
C215 C 0.29492 0.9097 0.02899 0.0
C216 C 0.27384 0.87904 0.0199 0.0
C217 C 0.20527 0.80757 0.99807 0.0
C218 C 0.1695 0.80167 0.99491 0.0
C219 C 0.18902 0.7777 0.97958 0.0
C220 C 0.20631 0.78947 0.98695 0.0
C221 C 0.17037 0.7837 0.98338 0.0
C222 C 0.18678 0.8135 1.0021 0.0
C223 C 0.22318 0.82065 0.00532 0.0
O224 O 0.27191 0.79 0.00696 0.0
O225 O 0.26309 0.79178 0.03732 0.0
O226 O 0.23803 0.8201 0.99426 0.0
O227 O 0.22864 0.82114 0.0243 0.0
H228 H 0.25476 0.75854 0.05023 0.0
H229 H 0.25776 0.72359 0.05212 0.0
H230 H 0.28115 0.72003 0.99517 0.0
H231 H 0.27734 0.75475 0.99298 0.0
H232 H 0.32186 0.9066 0.04729 0.0
H233 H 0.3157 0.87092 0.04776 0.0
H234 H 0.26677 0.9072 0.01115 0.0
H235 H 0.26053 0.87132 0.01209 0.0
H236 H 0.15548 0.80659 0.99853 0.0
H237 H 0.1903 0.76408 0.97061 0.0
H238 H 0.22046 0.78452 0.98375 0.0
H239 H 0.18569 0.82736 0.01077 0.0
C240 C 0.78718 0.20168 0.32409 0.0
C241 C 0.80018 0.19199 0.33613 0.0
C242 C 0.7802 0.16054 0.32705 0.0
C243 C 0.79676 0.17164 0.33756 0.0
C244 C 0.76756 0.17028 0.31456 0.0
C245 C 0.77101 0.19063 0.31314 0.0
U246 U 0.81314 0.25117 0.34542 0.0
O247 O 0.82174 0.27896 0.3325 0.0
O248 O 0.80138 0.27873 0.35584 0.0
C249 C 0.81111 0.28931 0.34399 0.0
C250 C 0.78953 0.2234 0.32413 0.0
C251 C 0.80181 0.30625 0.33641 0.0
C252 C 0.77294 0.32399 0.32946 0.0
C253 C 0.78127 0.30632 0.33274 0.0
C254 C 0.80558 0.34149 0.33277 0.0
C255 C 0.78496 0.34199 0.33009 0.0
C256 C 0.81385 0.32385 0.3358 0.0
C257 C 0.85378 0.25282 0.38699 0.0
C258 C 0.86044 0.27908 0.4137 0.0
C259 C 0.8859 0.25783 0.40598 0.0
C260 C 0.87303 0.24748 0.39074 0.0
C261 C 0.87965 0.27358 0.41789 0.0
C262 C 0.84776 0.26898 0.39833 0.0
C263 C 0.83989 0.24126 0.37166 0.0
O264 O 0.78464 0.23306 0.34021 0.0
O265 O 0.80611 0.23105 0.31818 0.0
O266 O 0.84337 0.24335 0.35328 0.0
O267 O 0.82113 0.24149 0.37456 0.0
H268 H 0.81274 0.20026 0.34476 0.0
H269 H 0.80697 0.16465 0.3471 0.0
H270 H 0.75454 0.16234 0.30643 0.0
H271 H 0.76072 0.19785 0.30389 0.0
H272 H 0.75703 0.32361 0.32703 0.0
H273 H 0.77165 0.29292 0.33319 0.0
H274 H 0.81543 0.3549 0.33371 0.0
H275 H 0.82973 0.3242 0.33883 0.0
H276 H 0.85487 0.29087 0.42263 0.0
H277 H 0.90069 0.25341 0.40842 0.0
H278 H 0.87804 0.2352 0.38202 0.0
H279 H 0.83305 0.27358 0.39562 0.0
C280 C 0.6381 0.72363 0.99387 0.0
C281 C 0.62628 0.73544 0.98287 0.0
C282 C 0.65172 0.76299 0.98886 0.0
C283 C 0.63308 0.75481 0.98028 0.0
C284 C 0.66337 0.75147 1.00038 0.0
C285 C 0.65665 0.73186 1.00275 0.0
U286 U 0.59638 0.68852 0.00536 0.0
O287 O 0.58185 0.66121 0.98918 0.0
O288 O 0.59365 0.66112 0.02013 0.0
C289 C 0.58501 0.65067 1.00416 0.0
C290 C 0.63082 0.703 0.99634 0.0
C291 C 0.5921 0.6313 0.99946 0.0
C292 C 0.61509 0.61043 0.98493 0.0
C293 C 0.60877 0.62918 0.9891 0.0
C294 C 0.58802 0.59588 1.00127 0.0
C295 C 0.60489 0.59356 0.99116 0.0
C296 C 0.58169 0.61457 0.00534 0.0
C297 C 0.54998 0.71183 0.01779 0.0
C298 C 0.51811 0.69246 0.0139 0.0
C299 C 0.52013 0.72808 0.0207 0.0
C300 C 0.54067 0.72903 0.0216 0.0
C301 C 0.50873 0.70991 0.01602 0.0
C302 C 0.53872 0.69342 0.01474 0.0
C303 C 0.57083 0.71361 0.01415 0.0
O304 O 0.62762 0.69918 0.01442 0.0
O305 O 0.61665 0.69506 0.98305 0.0
O306 O 0.57411 0.70786 0.99597 0.0
O307 O 0.58316 0.70734 0.02754 0.0
H308 H 0.61173 0.72974 0.97617 0.0
H309 H 0.62367 0.76348 0.97162 0.0
H310 H 0.67779 0.75748 0.00718 0.0
H311 H 0.66593 0.72313 0.01146 0.0
H312 H 0.62802 0.60916 0.97693 0.0
H313 H 0.6169 0.64198 0.98434 0.0
H314 H 0.58001 0.58333 0.00661 0.0
H315 H 0.56874 0.61599 0.01331 0.0
H316 H 0.50953 0.67835 0.01002 0.0
H317 H 0.51308 0.74169 0.02226 0.0
H318 H 0.54917 0.74332 0.02394 0.0
H319 H 0.54578 0.68001 0.0117 0.0
C320 C 0.648 0.37452 0.32266 0.0
C321 C 0.6307 0.37995 0.33053 0.0
C322 C 0.64073 0.36655 0.36161 0.0
C323 C 0.62714 0.37608 0.34986 0.0
C324 C 0.6584 0.36198 0.35383 0.0
C325 C 0.66192 0.36588 0.33462 0.0
U326 U 0.64797 0.39014 0.26751 0.0
O327 O 0.64234 0.36769 0.24199 0.0
O328 O 0.67179 0.38355 0.24878 0.0
C329 C 0.66033 0.37057 0.23663 0.0
C330 C 0.65088 0.37467 0.30146 0.0
C331 C 0.66251 0.37028 0.21512 0.0
C332 C 0.65484 0.35295 0.18223 0.0
C333 C 0.65102 0.35589 0.20202 0.0
C334 C 0.68148 0.3791 0.18788 0.0
C335 C 0.67038 0.36421 0.17494 0.0
C336 C 0.67766 0.38204 0.20775 0.0
C337 C 0.62405 0.4406 0.27369 0.0
C338 C 0.6211 0.476 0.27696 0.0
C339 C 0.5976 0.45395 0.29099 0.0
C340 C 0.60748 0.43778 0.28439 0.0
C341 C 0.60401 0.47322 0.28691 0.0
C342 C 0.63095 0.4599 0.27041 0.0
C343 C 0.63293 0.42394 0.26355 0.0
O344 O 0.63523 0.3713 0.2886 0.0
O345 O 0.66485 0.38699 0.29605 0.0
O346 O 0.6224 0.40669 0.26068 0.0
O347 O 0.65189 0.42262 0.26786 0.0
H348 H 0.61965 0.38653 0.32156 0.0
H349 H 0.61353 0.38016 0.35542 0.0
H350 H 0.66913 0.35441 0.36216 0.0
H351 H 0.67515 0.36116 0.3287 0.0
H352 H 0.64571 0.34162 0.17267 0.0
H353 H 0.63942 0.3464 0.20725 0.0
H354 H 0.69364 0.38799 0.18286 0.0
H355 H 0.68701 0.39307 0.21745 0.0
H356 H 0.6267 0.49064 0.27388 0.0
H357 H 0.58445 0.45125 0.29854 0.0
H358 H 0.60175 0.42306 0.28706 0.0
H359 H 0.64362 0.46248 0.26212 0.0
C360 C 1.00446 0.27109 0.76081 0.0
C361 C 0.01571 0.26052 0.74798 0.0
C362 C 0.9962 0.27036 0.71954 0.0
C363 C 0.01153 0.26009 0.7275 0.0
C364 C 0.98407 0.27958 0.73238 0.0
C365 C 0.98825 0.28006 0.75279 0.0
U366 U 0.01465 0.26088 0.81622 0.0
O367 O 0.00931 0.28155 0.84127 0.0
O368 O 0.03949 0.27433 0.83711 0.0
C369 C 0.02784 0.28317 0.8487 0.0
C370 C 0.01102 0.27571 0.78204 0.0
C371 C 0.03095 0.28103 0.87006 0.0
C372 C 0.02297 0.29048 0.90339 0.0
C373 C 0.02037 0.29204 0.88311 0.0
C374 C 0.04718 0.26713 0.89807 0.0
C375 C 0.03643 0.27804 0.91116 0.0
C376 C 0.04444 0.26857 0.87772 0.0
C377 C 0.99532 0.20571 0.80513 0.0
C378 C 0.99581 0.17069 0.79535 0.0
C379 C 0.96935 0.18836 0.78178 0.0
C380 C 0.97791 0.20579 0.79259 0.0
C381 C 0.97808 0.17053 0.78318 0.0
C382 C 1.00425 0.18806 0.80627 0.0
C383 C 1.00374 0.22334 0.81814 0.0
O384 O 0.99719 0.2756 0.79431 0.0
O385 O 0.02727 0.26867 0.78902 0.0
O386 O 0.99207 0.23742 0.82121 0.0
O387 O 0.02195 0.23002 0.81574 0.0
H388 H 0.02836 0.25351 0.75366 0.0
H389 H 0.02099 0.25268 0.71789 0.0
H390 H 0.97207 0.28749 0.72672 0.0
H391 H 0.97943 0.28844 0.7623 0.0
H392 H 0.01415 0.29882 0.91292 0.0
H393 H 0.00993 0.30181 0.87758 0.0
H394 H 0.05786 0.25759 0.90353 0.0
H395 H 0.05291 0.25995 0.86806 0.0
H396 H 1.00323 0.15739 0.79648 0.0
H397 H 0.95561 0.1888 0.77272 0.0
H398 H 0.97068 0.21921 0.79141 0.0
H399 H 0.01768 0.18765 0.81585 0.0
C400 C 0.32463 0.78008 0.19848 0.0
C401 C 0.3296 0.79569 0.18719 0.0
C402 C 0.32177 0.77388 0.15668 0.0
C403 C 0.32814 0.79264 0.16653 0.0
C404 C 0.31702 0.75824 0.16811 0.0
C405 C 0.31841 0.76133 0.18879 0.0
U406 U 0.34583 0.81011 0.24629 0.0
O407 O 0.33358 0.81739 0.2747 0.0
O408 O 0.35991 0.80099 0.27376 0.0
C409 C 0.34729 0.80901 0.28478 0.0
C410 C 0.32654 0.78304 0.22032 0.0
C411 C 0.3419 0.79903 0.30217 0.0
C412 C 0.33757 0.76971 0.31985 0.0
C413 C 0.33958 0.77838 0.30212 0.0
C414 C 0.33966 0.80218 0.33765 0.0
C415 C 0.33812 0.78155 0.33789 0.0
C416 C 0.34146 0.81078 0.31999 0.0
C417 C 0.38053 0.85595 0.24429 0.0
C418 C 0.40389 0.86774 0.27252 0.0
C419 C 0.40353 0.88488 0.24288 0.0
C420 C 0.38788 0.87153 0.23408 0.0
C421 C 0.41215 0.8826 0.26188 0.0
C422 C 0.38812 0.85459 0.26383 0.0
C423 C 0.36668 0.83994 0.23395 0.0
O424 O 0.34422 0.78127 0.2288 0.0
O425 O 0.31839 0.79827 0.2282 0.0
O426 O 0.34803 0.84045 0.23722 0.0
O427 O 0.37281 0.82228 0.23472 0.0
H428 H 0.3347 0.81024 0.19436 0.0
H429 H 0.33222 0.80498 0.15828 0.0
H430 H 0.31191 0.74366 0.16108 0.0
H431 H 0.31463 0.74905 0.19723 0.0
H432 H 0.33652 0.75377 0.31958 0.0
H433 H 0.34002 0.76902 0.28856 0.0
H434 H 0.33991 0.81169 0.35123 0.0
H435 H 0.34333 0.82675 0.32038 0.0
H436 H 0.41017 0.86582 0.28726 0.0
H437 H 0.4097 0.8962 0.23438 0.0
H438 H 0.38216 0.8728 0.219 0.0
H439 H 0.38253 0.84272 0.272 0.0
C440 C 0.98919 0.63527 0.72426 0.0
C441 C 0.98006 0.62224 0.7363 0.0
C442 C 0.9912 0.64463 0.76557 0.0
C443 C 0.98093 0.62693 0.75666 0.0
C444 C 0.9999 0.65794 0.75347 0.0
C445 C 0.99894 0.65326 0.73297 0.0
U446 U 0.99612 0.59466 0.68619 0.0
O447 O 0.97994 0.58311 0.65772 0.0
O448 O 0.01174 0.59254 0.65933 0.0
C449 C 0.99571 0.58527 0.64807 0.0
C450 C 0.99006 0.62919 0.70306 0.0
C451 C 0.99288 0.59201 0.62828 0.0
C452 C 0.99528 0.61714 0.60532 0.0
C453 C 0.99693 0.6118 0.62471 0.0
C454 C 0.98523 0.58304 0.59312 0.0
C455 C 0.98962 0.60274 0.5893 0.0
C456 C 0.98684 0.57777 0.61242 0.0
C457 C 1.00594 0.54561 0.70371 0.0
C458 C 0.01532 0.51998 0.68039 0.0
C459 C 1.00341 0.51153 0.71131 0.0
C460 C 1.00122 0.53141 0.71656 0.0
C461 C 0.01041 0.50557 0.69312 0.0
C462 C 0.013 0.5398 0.68559 0.0
C463 C 1.00243 0.56627 0.70866 0.0
O464 O 0.00754 0.62492 0.69817 0.0
O465 O 0.97562 0.61625 0.6949 0.0
O466 O 0.98464 0.57066 0.70282 0.0
O467 O 0.0165 0.57939 0.70485 0.0
H468 H 0.97258 0.60816 0.73007 0.0
H469 H 0.97374 0.61651 0.76547 0.0
H470 H 0.00803 0.67163 0.7599 0.0
H471 H 1.00628 0.66342 0.72401 0.0
H472 H 0.99896 0.63242 0.60283 0.0
H473 H 1.00168 0.62299 0.6368 0.0
H474 H 0.98059 0.57168 0.58116 0.0
H475 H 0.98366 0.56241 0.61494 0.0
H476 H 0.02091 0.51594 0.66638 0.0
H477 H 0.99911 0.50078 0.7213 0.0
H478 H 0.99551 0.53564 0.73048 0.0
H479 H 0.01652 0.55058 0.67537 0.0
C480 C 0.6948 0.36387 0.65216 0.0
C481 C 0.68416 0.37703 0.64177 0.0
C482 C 0.65516 0.36908 0.65928 0.0
C483 C 0.66459 0.37963 0.64532 0.0
C484 C 0.66573 0.35547 0.66921 0.0
C485 C 0.68535 0.35292 0.66569 0.0
U486 U 0.7383 0.37249 0.62184 0.0
O487 O 0.76971 0.38217 0.63019 0.0
O488 O 0.76132 0.35346 0.61316 0.0
C489 C 0.77579 0.36577 0.62228 0.0
C490 C 0.71573 0.36172 0.6491 0.0
C491 C 0.79228 0.35723 0.63328 0.0
C492 C 0.81831 0.35942 0.66047 0.0
C493 C 0.80075 0.36571 0.65193 0.0
C494 C 0.81899 0.33566 0.63222 0.0
C495 C 0.82789 0.34455 0.65057 0.0
C496 C 0.80148 0.34195 0.62371 0.0
C497 C 0.72588 0.39904 0.57444 0.0
C498 C 0.73248 0.39467 0.53996 0.0
C499 C 0.72002 0.42488 0.55275 0.0
C500 C 0.72013 0.4179 0.57144 0.0
C501 C 0.72549 0.41301 0.53665 0.0
C502 C 0.73271 0.38775 0.55866 0.0
C503 C 0.7219 0.39054 0.59307 0.0
O504 O 0.71874 0.34986 0.63367 0.0
O505 O 0.7274 0.37827 0.651 0.0
O506 O 0.73042 0.4 0.6096 0.0
O507 O 0.72128 0.37123 0.59296 0.0
H508 H 0.69109 0.38547 0.63108 0.0
H509 H 0.65685 0.38998 0.63714 0.0
H510 H 0.65907 0.3472 0.68017 0.0
H511 H 0.69325 0.34261 0.67378 0.0
H512 H 0.82452 0.36645 0.67473 0.0
H513 H 0.79419 0.37762 0.6597 0.0
H514 H 0.82598 0.32441 0.62395 0.0
H515 H 0.79553 0.33536 0.60918 0.0
H516 H 0.73703 0.38531 0.52786 0.0
H517 H 0.71446 0.43901 0.55065 0.0
H518 H 0.71469 0.42684 0.58333 0.0
H519 H 0.73733 0.37319 0.56051 0.0
C520 C 0.80927 0.68154 0.23447 0.0
C521 C 0.82048 0.66553 0.23052 0.0
C522 C 0.85109 0.68625 0.24143 0.0
C523 C 0.84114 0.66782 0.23409 0.0
C524 C 0.83981 0.70225 0.24527 0.0
C525 C 0.81915 0.6999 0.24187 0.0
U526 U 0.763 0.65934 0.20282 0.0
O527 O 0.73468 0.64535 0.21015 0.0
O528 O 0.73503 0.67125 0.19314 0.0
C529 C 0.72423 0.65791 0.20133 0.0
C530 C 0.78742 0.67941 0.23067 0.0
C531 C 0.70683 0.66415 0.21084 0.0
C532 C 0.68942 0.67169 0.23985 0.0
C533 C 0.70705 0.66852 0.23132 0.0
C534 C 0.67138 0.66665 0.20748 0.0
C535 C 0.67124 0.67038 0.22807 0.0
C536 C 0.68895 0.66365 0.19902 0.0
C537 C 0.77247 0.62478 0.15763 0.0
C538 C 0.74747 0.60248 0.13753 0.0
C539 C 0.78175 0.60312 0.13065 0.0
C540 C 0.78687 0.6179 0.14609 0.0
C541 C 0.76204 0.59497 0.12633 0.0
C542 C 0.75267 0.61726 0.15312 0.0
C543 C 0.77882 0.63867 0.17508 0.0
O544 O 0.78021 0.68726 0.21499 0.0
O545 O 0.77859 0.66187 0.23259 0.0
O546 O 0.77522 0.63216 0.19207 0.0
O547 O 0.77504 0.6571 0.17385 0.0
H548 H 0.81328 0.65124 0.22456 0.0
H549 H 0.84936 0.65527 0.23071 0.0
H550 H 0.84695 0.71661 0.25106 0.0
H551 H 0.81088 0.71247 0.24498 0.0
H552 H 0.69001 0.67482 0.25571 0.0
H553 H 0.7207 0.66896 0.24075 0.0
H554 H 0.65779 0.66512 0.19785 0.0
H555 H 0.6884 0.66011 0.18319 0.0
H556 H 0.73211 0.59681 0.13443 0.0
H557 H 0.79345 0.59758 0.12262 0.0
H558 H 0.80223 0.62352 0.14943 0.0
H559 H 0.74134 0.62248 0.16191 0.0
C560 C 0.28605 0.00772 0.36411 0.0
C561 C 0.27207 1.00181 0.37688 0.0
C562 C 0.24581 0.01264 0.35534 0.0
C563 C 0.25217 1.0043 0.37258 0.0
C564 C 0.25968 0.01768 0.34205 0.0
C565 C 0.27974 0.01535 0.3465 0.0
U566 U 0.32246 0.99758 0.40417 0.0
O567 O 0.35118 0.98524 0.4064 0.0
O568 O 0.34848 0.01523 0.4199 0.0
C569 C 0.36022 1.00134 0.41634 0.0
C570 C 0.30715 0.00757 0.37051 0.0
C571 C 0.38008 0.00788 0.41131 0.0
C572 C 0.40503 0.01054 0.38817 0.0
C573 C 0.38544 1.00573 0.39193 0.0
C574 C 0.41385 0.0202 0.42301 0.0
C575 C 0.41951 0.01758 0.40373 0.0
C576 C 0.39433 0.01538 0.42673 0.0
C577 C 0.30256 0.97994 0.44946 0.0
C578 C 0.32648 0.97383 0.47607 0.0
C579 C 0.29402 0.98276 0.48319 0.0
C580 C 0.2888 0.98345 0.46308 0.0
C581 C 0.31312 0.9785 0.48994 0.0
C582 C 0.32128 0.97469 0.45599 0.0
C583 C 0.2985 0.98482 0.42916 0.0
O584 O 0.31335 0.02051 0.38561 0.0
O585 O 0.31316 0.98998 0.37252 0.0
O586 O 0.30504 0.97305 0.41541 0.0
O587 O 0.30247 1.00363 0.42701 0.0
H588 H 0.27668 0.99589 0.39057 0.0
H589 H 0.24178 1.00009 0.38295 0.0
H590 H 0.25514 0.02422 0.3287 0.0
H591 H 0.29036 0.02009 0.33654 0.0
H592 H 0.40895 0.00809 0.37318 0.0
H593 H 0.37464 0.99991 0.37983 0.0
H594 H 0.42456 0.0258 0.43526 0.0
H595 H 0.39042 0.01712 0.4418 0.0
H596 H 0.3412 0.97028 0.48079 0.0
H597 H 0.28348 0.98676 0.49347 0.0
H598 H 0.2744 0.98781 0.45829 0.0
H599 H 0.33222 0.97218 0.44567 0.0
C600 C 0.24252 1.00055 0.73387 0.0
C601 C 0.25578 0.01555 0.74437 0.0
C602 C 0.28379 0.99838 0.73474 0.0
C603 C 0.27621 0.01456 0.74466 0.0
C604 C 0.27041 0.98356 0.72411 0.0
C605 C 0.25004 0.98467 0.72362 0.0
U606 U 0.20252 0.00887 0.76642 0.0
O607 O 0.17479 0.02295 0.76376 0.0
O608 O 0.17444 0.99202 0.77062 0.0
C609 C 0.16404 0.00691 0.76727 0.0
C610 C 0.22104 1.0002 0.73539 0.0
C611 C 0.14493 1.00227 0.75548 0.0
C612 C 0.12405 0.99947 0.72454 0.0
C613 C 0.14291 1.00209 0.73485 0.0
C614 C 0.10934 0.99673 0.75536 0.0
C615 C 0.10699 0.99713 0.73474 0.0
C616 C 0.1281 0.99921 0.76556 0.0
C617 C 0.22137 0.02673 0.81994 0.0
C618 C 0.21005 0.05047 0.84402 0.0
C619 C 0.23026 0.02526 0.85489 0.0
C620 C 0.23082 0.01772 0.83532 0.0
C621 C 0.2204 0.04209 0.85934 0.0
C622 C 0.21042 0.04278 0.82445 0.0
C623 C 0.22445 0.02015 0.79943 0.0
O624 O 0.21387 0.98666 0.74611 0.0
O625 O 0.21425 0.01748 0.73907 0.0
O626 O 0.21998 0.03223 0.7861 0.0
O627 O 0.21887 1.00151 0.79361 0.0
H628 H 0.25037 0.02783 0.75276 0.0
H629 H 0.28603 0.02616 0.75308 0.0
H630 H 0.27562 0.97099 0.71617 0.0
H631 H 0.24015 0.97283 0.71562 0.0
H632 H 0.12283 0.99963 0.70865 0.0
H633 H 0.1558 1.00439 0.72683 0.0
H634 H 0.09668 0.99539 0.76384 0.0
H635 H 0.12941 0.9994 0.78151 0.0
H636 H 0.20229 0.06341 0.84714 0.0
H637 H 0.23857 0.01867 0.86642 0.0
H638 H 0.23933 1.00532 0.83215 0.0
H639 H 0.20278 0.04989 0.81287 0.0
C640 C 0.65234 0.69148 0.35493 0.0
C641 C 0.64513 0.67986 0.36927 0.0
C642 C 0.66087 0.65158 0.35559 0.0
C643 C 0.64945 0.66016 0.36967 0.0
C644 C 0.66787 0.66325 0.34118 0.0
C645 C 0.66368 0.68297 0.34089 0.0
U646 U 0.6201 0.73319 0.36638 0.0
O647 O 0.62775 0.76398 0.37914 0.0
O648 O 0.6118 0.75789 0.34964 0.0
C649 C 0.62035 0.77143 0.36331 0.0
C650 C 0.6483 0.71243 0.3545 0.0
C651 C 0.63187 0.78881 0.35687 0.0
C652 C 0.64763 0.80651 0.33189 0.0
C653 C 0.63854 0.78903 0.33794 0.0
C654 C 0.64377 0.82365 0.36362 0.0
C655 C 0.65025 0.82413 0.34462 0.0
C656 C 0.63474 0.80627 0.36962 0.0
C657 C 0.57334 0.71507 0.39245 0.0
C658 C 0.54109 0.72701 0.3962 0.0
C659 C 0.55152 0.7003 0.41451 0.0
C660 C 0.56946 0.70147 0.40616 0.0
C661 C 0.53693 0.71273 0.40936 0.0
C662 C 0.55917 0.72811 0.38769 0.0
C663 C 0.59168 0.71389 0.38264 0.0
O664 O 0.63292 0.71576 0.34274 0.0
O665 O 0.64955 0.72284 0.37175 0.0
O666 O 0.60814 0.7219 0.39263 0.0
O667 O 0.59094 0.71615 0.36367 0.0
H668 H 0.63622 0.68605 0.38021 0.0
H669 H 0.64368 0.65157 0.38086 0.0
H670 H 0.67687 0.65723 0.33024 0.0
H671 H 0.66936 0.69161 0.32968 0.0
H672 H 0.65258 0.80622 0.31723 0.0
H673 H 0.63647 0.77583 0.32772 0.0
H674 H 0.64511 0.8369 0.37376 0.0
H675 H 0.6295 0.80661 0.38417 0.0
H676 H 0.53012 0.73679 0.39195 0.0
H677 H 0.54896 0.68941 0.42487 0.0
H678 H 0.58018 0.6913 0.41005 0.0
H679 H 0.56188 0.73875 0.37712 0.0
C680 C 0.73277 0.24583 0.00975 0.0
C681 C 0.74693 0.25698 0.02345 0.0
C682 C 0.73256 0.28726 0.0164 0.0
C683 C 0.74674 0.27747 0.02685 0.0
C684 C 0.7186 0.27607 1.00263 0.0
C685 C 0.71866 0.25556 0.99928 0.0
U686 U 0.76447 0.20479 0.0105 0.0
O687 O 0.76308 0.17659 0.02377 0.0
O688 O 0.76674 0.17708 0.99206 0.0
C689 C 0.76491 0.16626 0.00697 0.0
C690 C 0.73344 0.22429 0.006 0.0
C691 C 0.75375 0.14657 1.0034 0.0
C692 C 0.73552 0.11978 0.98154 0.0
C693 C 0.74301 0.1397 0.98526 0.0
C694 C 0.74905 0.11361 0.01411 0.0
C695 C 0.73876 0.10642 0.99583 0.0
C696 C 0.75638 0.13339 0.01782 0.0
C697 C 0.81847 0.22377 0.02824 0.0
C698 C 0.84334 0.21783 0.05412 0.0
C699 C 0.8532 0.23251 0.025 0.0
C700 C 0.83346 0.23128 0.01734 0.0
C701 C 0.85816 0.22651 0.04379 0.0
C702 C 0.82365 0.21636 0.04638 0.0
C703 C 0.79775 0.22631 0.02191 0.0
O704 O 0.74332 0.21868 0.99109 0.0
O705 O 0.73767 0.21525 0.02184 0.0
O706 O 0.78468 0.22114 0.03401 0.0
O707 O 0.79167 0.22136 1.0032 0.0
H708 H 0.75819 0.24985 0.03154 0.0
H709 H 0.75774 0.28566 0.03753 0.0
H710 H 0.70739 0.28322 0.99479 0.0
H711 H 0.70769 0.24734 0.98857 0.0
H712 H 0.72751 0.1148 0.96737 0.0
H713 H 0.74091 0.1495 0.97377 0.0
H714 H 0.75231 0.1038 0.02534 0.0
H715 H 0.76495 0.1382 0.03177 0.0
H716 H 0.84691 0.21303 0.06861 0.0
H717 H 0.86442 0.23942 0.01685 0.0
H718 H 0.82984 0.23718 1.0034 0.0
H719 H 0.81246 0.21038 0.05512 0.0
C720 C 0.23727 0.80407 0.67918 0.0
C721 C 0.22311 0.81535 0.67072 0.0
C722 C 0.24623 0.84505 0.67665 0.0
C723 C 0.22751 0.8356 0.66953 0.0
C724 C 0.26022 0.83372 0.68554 0.0
C725 C 0.25578 0.81343 0.68677 0.0
U726 U 0.20346 0.75872 0.66094 0.0
O727 O 0.20866 0.72973 0.6469 0.0
O728 O 0.19364 0.73148 0.67413 0.0
C729 C 0.20088 0.72 0.66059 0.0
C730 C 0.23311 0.78244 0.67885 0.0
C731 C 0.21076 0.70275 0.66694 0.0
C732 C 0.23541 0.67935 0.6624 0.0
C733 C 0.22854 0.69777 0.65969 0.0
C734 C 0.2075 0.67092 0.68062 0.0
C735 C 0.22467 0.66542 0.67241 0.0
C736 C 0.2006 0.68931 0.67784 0.0
C737 C 0.15799 0.77007 0.62756 0.0
C738 C 0.13157 0.74627 0.61188 0.0
C739 C 0.13515 0.77939 0.60161 0.0
C740 C 0.15137 0.78417 0.61554 0.0
C741 C 0.12507 0.76035 0.59948 0.0
C742 C 0.14798 0.75108 0.62579 0.0
C743 C 0.176 0.77546 0.64093 0.0
O744 O 0.21766 0.77638 0.68776 0.0
O745 O 0.2338 0.77272 0.6615 0.0
O746 O 0.19241 0.77078 0.6338 0.0
O747 O 0.17516 0.77204 0.6595 0.0
H748 H 0.20873 0.8084 0.66472 0.0
H749 H 0.21622 0.84382 0.66289 0.0
H750 H 0.27486 0.84036 0.691 0.0
H751 H 0.26695 0.80497 0.69323 0.0
H752 H 0.24857 0.67565 0.65566 0.0
H753 H 0.23669 0.70769 0.65109 0.0
H754 H 0.199 0.66077 0.6887 0.0
H755 H 0.18677 0.69265 0.68345 0.0
H756 H 0.12407 0.73152 0.61077 0.0
H757 H 0.13094 0.7905 0.5921 0.0
H758 H 0.15905 0.79885 0.61662 0.0
H759 H 0.15299 0.73996 0.63494 0.0
C760 C 0.36602 0.28749 1.00284 0.0
C761 C 0.38044 0.27407 1.0044 0.0
C762 C 0.3558 0.24862 0.01156 0.0
C763 C 0.37541 0.25488 0.00892 0.0
C764 C 0.34111 0.2616 0.00879 0.0
C765 C 0.34624 0.28104 1.00459 0.0
U766 U 0.40625 0.3235 0.99159 0.0
O767 O 0.40891 0.35234 0.9795 0.0
O768 O 0.42203 0.34924 0.00953 0.0
C769 C 0.41891 0.36111 0.99569 0.0
C770 C 0.37229 0.3084 1.00117 0.0
C771 C 0.41446 0.38109 1.00235 0.0
C772 C 0.39194 0.40637 0.00664 0.0
C773 C 0.39518 0.38674 1.00129 0.0
C774 C 0.42715 0.41462 0.01455 0.0
C775 C 0.40795 0.42056 0.01311 0.0
C776 C 0.43035 0.39506 0.00921 0.0
C777 C 0.45267 0.30419 0.97744 0.0
C778 C 0.48162 0.32764 0.98502 0.0
C779 C 0.48526 0.29295 0.97671 0.0
C780 C 0.46475 0.28894 0.974 0.0
C781 C 0.49368 0.31215 0.98314 0.0
C782 C 0.46118 0.3237 0.98199 0.0
C783 C 0.43188 0.29959 0.98029 0.0
O784 O 0.3869 0.31567 0.01427 0.0
O785 O 0.37483 0.31321 0.98323 0.0
O786 O 0.41911 0.30649 0.96775 0.0
O787 O 0.42819 0.30302 0.99876 0.0
H788 H 0.39578 0.2787 1.00297 0.0
H789 H 0.38694 0.24508 0.01092 0.0
H790 H 0.32589 0.25701 0.01083 0.0
H791 H 0.33492 0.29118 1.0034 0.0
H792 H 0.37698 0.41055 0.00514 0.0
H793 H 0.38274 0.37612 0.99601 0.0
H794 H 0.43974 0.42512 0.01967 0.0
H795 H 0.44535 0.3909 0.01014 0.0
H796 H 0.48793 0.34248 0.99021 0.0
H797 H 0.49446 0.28082 0.97549 0.0
H798 H 0.45837 0.27381 0.97067 0.0
H799 H 0.45199 0.33562 0.98482 0.0
C800 C 0.35696 0.64796 0.6906 0.0
C801 C 0.37204 0.64015 0.68049 0.0
C802 C 0.36121 0.65545 0.65084 0.0
C803 C 0.37417 0.64388 0.66087 0.0
C804 C 0.34591 0.66295 0.66098 0.0
C805 C 0.34381 0.65923 0.68063 0.0
U806 U 0.3684 0.61867 0.73437 0.0
O807 O 0.37758 0.62814 0.7657 0.0
O808 O 0.35043 0.60839 0.75757 0.0
C809 C 0.36207 0.61859 0.77192 0.0
C810 C 0.35502 0.64461 0.71153 0.0
C811 C 0.35258 0.62839 0.78845 0.0
C812 C 0.3479 0.65718 0.81082 0.0
C813 C 0.35516 0.64892 0.79359 0.0
C814 C 0.33516 0.62464 0.81783 0.0
C815 C 0.33797 0.64512 0.82335 0.0
C816 C 0.34232 0.61645 0.80065 0.0
C817 C 0.40032 0.57478 0.72096 0.0
C818 C 0.40151 0.53984 0.72558 0.0
C819 C 0.42965 0.55833 0.71446 0.0
C820 C 0.41967 0.57536 0.71544 0.0
C821 C 0.4205 0.54024 0.71895 0.0
C822 C 0.39145 0.55694 0.72648 0.0
C823 C 0.3891 0.59207 0.7179 0.0
O824 O 0.34454 0.62826 0.71453 0.0
O825 O 0.37143 0.64803 0.72335 0.0
O826 O 0.397 0.60938 0.72615 0.0
O827 O 0.36979 0.58971 0.71798 0.0
H828 H 0.38234 0.63133 0.68785 0.0
H829 H 0.38626 0.63801 0.65372 0.0
H830 H 0.33543 0.67162 0.65371 0.0
H831 H 0.33196 0.66525 0.68807 0.0
H832 H 0.3502 0.67302 0.81438 0.0
H833 H 0.36311 0.65853 0.78454 0.0
H834 H 0.32803 0.61471 0.82715 0.0
H835 H 0.34039 0.60056 0.79723 0.0
H836 H 0.39406 0.52611 0.7291 0.0
H837 H 0.44437 0.55922 0.70961 0.0
H838 H 0.42681 0.58885 0.71098 0.0
H839 H 0.37648 0.55598 0.7307 0.0
C840 C 0.99983 0.7525 0.25072 0.0
C841 C 0.98264 0.75497 0.26028 0.0
C842 C 0.99777 0.74298 0.28992 0.0
C843 C 0.98156 0.75008 0.27966 0.0
C844 C 0.01525 0.74133 0.2807 0.0
C845 C 0.01625 0.74596 0.26124 0.0
U846 U 1.00087 0.76137 0.19238 0.0
O847 O 0.97525 0.74711 0.17315 0.0
O848 O 1.00396 0.73507 0.1722 0.0
C849 C 0.98585 0.73475 0.16386 0.0
C850 C 1.00026 0.7557 0.22962 0.0
C851 C 0.98408 0.73457 0.14222 0.0
C852 C 0.98166 0.71639 0.10979 0.0
C853 C 0.98304 0.71663 0.13038 0.0
C854 C 0.98224 0.75206 0.11269 0.0
C855 C 0.98118 0.7341 0.10074 0.0
C856 C 0.9838 0.7523 0.13325 0.0
C857 C 0.0269 0.81319 0.1939 0.0
C858 C 0.04342 0.84605 0.19373 0.0
C859 C 0.03902 0.83232 0.22481 0.0
C860 C 0.02948 0.81502 0.21459 0.0
C861 C 0.04608 0.84803 0.21448 0.0
C862 C 0.03391 0.82875 0.18354 0.0
C863 C 0.01707 0.79511 0.18297 0.0
O864 O 0.98588 0.76337 0.21974 0.0
O865 O 0.01497 0.75101 0.21941 0.0
O866 O 0.99811 0.79176 0.18489 0.0
O867 O 0.02668 0.77935 0.18427 0.0
H868 H 0.96975 0.75997 0.25255 0.0
H869 H 0.96793 0.75144 0.28649 0.0
H870 H 0.02787 0.73571 0.28829 0.0
H871 H 0.0297 0.74395 0.25429 0.0
H872 H 0.9808 0.70233 0.10095 0.0
H873 H 0.98335 0.70282 0.13705 0.0
H874 H 0.98225 0.76596 0.10615 0.0
H875 H 0.98486 0.76635 0.14214 0.0
H876 H 0.04884 0.85782 0.18536 0.0
H877 H 0.04057 0.83352 0.2408 0.0
H878 H 0.02408 0.8031 0.22279 0.0
H879 H 0.03206 0.8275 0.16755 0.0
C880 C 0.6846 0.23104 0.7997 0.0
C881 C 0.67361 0.21934 0.8116 0.0
C882 C 0.68869 0.23946 0.84118 0.0
C883 C 0.6756 0.22354 0.83218 0.0
C884 C 0.6997 0.25103 0.8291 0.0
C885 C 0.69766 0.24686 0.80858 0.0
U886 U 0.66018 0.20066 0.75375 0.0
O887 O 0.64522 0.20955 0.72657 0.0
O888 O 0.67069 0.19203 0.7249 0.0
C889 C 0.65724 0.20108 0.71518 0.0
C890 C 0.68193 0.2274 0.77802 0.0
C891 C 0.66324 0.21189 0.69858 0.0
C892 C 0.68583 0.2339 0.68298 0.0
C893 C 0.68098 0.22412 0.69946 0.0
C894 C 0.65527 0.21927 0.66486 0.0
C895 C 0.67302 0.23153 0.66543 0.0
C896 C 0.65052 0.20956 0.68119 0.0
C897 C 0.62306 0.15764 0.75934 0.0
C898 C 0.60135 0.14326 0.73076 0.0
C899 C 0.59576 0.1336 0.76331 0.0
C900 C 0.61222 0.14619 0.77143 0.0
C901 C 0.58985 0.1324 0.74296 0.0
C902 C 0.61783 0.1558 0.7389 0.0
C903 C 0.63823 0.17307 0.7683 0.0
O904 O 0.68873 0.21123 0.77046 0.0
O905 O 0.66429 0.23012 0.77004 0.0
O906 O 0.63324 0.19108 0.76698 0.0
O907 O 0.6564 0.17096 0.76406 0.0
H908 H 0.66338 0.20708 0.80496 0.0
H909 H 0.66702 0.21426 0.84103 0.0
H910 H 0.70964 0.26362 0.83547 0.0
H911 H 0.70612 0.25614 0.79963 0.0
H912 H 0.69962 0.24319 0.68394 0.0
H913 H 0.691 0.22611 0.7128 0.0
H914 H 0.64475 0.21745 0.6519 0.0
H915 H 0.63673 0.20023 0.68025 0.0
H916 H 0.59733 0.1424 0.715 0.0
H917 H 0.58713 0.12554 0.77311 0.0
H918 H 0.61599 0.14757 0.78726 0.0
H919 H 0.62607 0.1646 0.72936 0.0
C920 C 0.0095 0.36429 0.29126 0.0
C921 C 1.00049 0.37344 0.27567 0.0
C922 C 0.01041 0.34844 0.25181 0.0
C923 C 1.0009 0.36556 0.25613 0.0
C924 C 0.01916 0.33919 0.26756 0.0
C925 C 0.01872 0.34708 0.2871 0.0
U926 U 1.00375 0.40912 0.32526 0.0
O927 O 0.99334 0.4138 0.35479 0.0
O928 O 0.02356 0.42474 0.34976 0.0
C929 C 0.01056 0.42229 0.36269 0.0
C930 C 0.01074 0.37363 0.31161 0.0
C931 C 0.01796 0.41546 0.38149 0.0
C932 C 0.03663 0.39362 0.4004 0.0
C933 C 0.0298 0.39969 0.38219 0.0
C934 C 0.01984 0.41903 0.41726 0.0
C935 C 0.03167 0.40319 0.41817 0.0
C936 C 0.01309 0.4251 0.39909 0.0
C937 C 0.9874 0.45385 0.30109 0.0
C938 C 0.99485 0.48713 0.31708 0.0
C939 C 0.97948 0.48181 0.28348 0.0
C940 C 0.97917 0.46144 0.28423 0.0
C941 C 0.98815 0.49483 0.29956 0.0
C942 C 0.99451 0.46671 0.31783 0.0
C943 C 0.99098 0.43297 0.30001 0.0
O944 O 0.02461 0.38836 0.31555 0.0
O945 O 0.99384 0.37753 0.31828 0.0
O946 O 0.97903 0.42133 0.30896 0.0
O947 O 0.00965 0.42987 0.30331 0.0
H948 H 0.99346 0.38689 0.27861 0.0
H949 H 0.99383 0.37294 0.24441 0.0
H950 H 0.02689 0.32618 0.26478 0.0
H951 H 0.02598 0.33999 0.29893 0.0
H952 H 0.04578 0.38143 0.40058 0.0
H953 H 0.0337 0.39207 0.3687 0.0
H954 H 0.01532 0.42645 0.43057 0.0
H955 H 1.0039 0.43726 0.39879 0.0
H956 H 1.00167 0.49685 0.32965 0.0
H957 H 0.97396 0.4874 0.2699 0.0
H958 H 0.97356 0.45168 0.27123 0.0
H959 H 1.00091 0.46099 0.33099 0.0
H960 H 0.28539 0.571 0.6153 0.0
H961 H 0.30912 0.51757 0.59432 0.0
H962 H 0.2843 0.52163 0.65034 0.0
H963 H 0.32536 0.50504 0.64703 0.0
C964 C 0.32086 0.49527 0.63319 0.0
O965 O 0.30223 0.49892 0.62556 0.0
H966 H 0.3317 0.4988 0.62242 0.0
C967 C 0.28904 0.55614 0.61749 0.0
C968 C 0.28393 0.54775 0.63454 0.0
C969 C 0.29806 0.54549 0.60288 0.0
C970 C 0.30208 0.52598 0.60546 0.0
C971 C 0.29756 0.51748 0.6228 0.0
C972 C 0.28816 0.5283 0.6372 0.0
H973 H 0.3327 0.50579 0.98835 0.0
H974 H 0.29466 0.5521 0.97986 0.0
H975 H 0.34515 0.56174 0.02291 0.0
H976 H 0.30705 0.57437 0.03501 0.0
C977 C 0.30181 0.58085 0.02131 0.0
O978 O 0.3145 0.57737 0.007 0.0
H979 H 0.2868 0.57367 0.01612 0.0
C980 C 0.32862 0.52053 0.99228 0.0
C981 C 0.34054 0.53282 0.00687 0.0
C982 C 0.31203 0.52718 0.98233 0.0
C983 C 0.3075 0.54661 0.98719 0.0
C984 C 0.31935 0.55898 1.00191 0.0
C985 C 0.33602 0.55215 0.0116 0.0
H986 H 0.67957 0.95875 0.3647 0.0
H987 H 0.71705 0.01329 0.36915 0.0
H988 H 0.71494 0.97197 0.31775 0.0
H989 H 0.70562 0.02726 0.32941 0.0
C990 C 0.72007 0.02385 0.32415 0.0
O991 O 0.72745 0.00846 0.33353 0.0
H992 H 0.71741 0.01922 0.30816 0.0
C993 C 0.6903 0.9687 0.35879 0.0
C994 C 0.69745 0.96253 0.34089 0.0
C995 C 0.69821 0.98621 0.37 0.0
C996 C 0.71071 0.99956 0.36111 0.0
C997 C 0.71569 0.99503 0.3418 0.0
C998 C 0.70959 0.97617 0.33185 0.0
H999 H 0.73847 0.97513 0.03418 0.0
H1000 H 0.72106 0.91272 0.0269 0.0
H1001 H 0.7071 0.94823 0.97969 0.0
H1002 H 0.67579 0.91375 0.98102 0.0
C1003 C 0.68487 0.90628 0.99188 0.0
O1004 O 0.70457 0.91238 0.99103 0.0
H1005 H 0.68011 0.9105 0.00675 0.0
C1006 C 0.73156 0.96218 0.02507 0.0
C1007 C 0.72287 0.96416 0.006 0.0
C1008 C 0.73082 0.9438 0.03285 0.0
C1009 C 0.72186 0.92703 0.02112 0.0
C1010 C 0.71354 0.92865 1.00194 0.0
C1011 C 0.71407 0.94714 0.99436 0.0
H1012 H 0.62005 0.28775 0.57197 0.0
H1013 H 0.59638 0.31022 0.51879 0.0
H1014 H 0.65643 0.29484 0.52435 0.0
H1015 H 0.65234 0.32885 0.5026 0.0
C1016 C 0.63635 0.32677 0.49735 0.0
O1017 O 0.62886 0.30803 0.50079 0.0
H1018 H 0.62875 0.33808 0.50575 0.0
C1019 C 0.62177 0.29206 0.55724 0.0
C1020 C 0.63992 0.2905 0.5495 0.0
C1021 C 0.60601 0.29942 0.54656 0.0
C1022 C 0.60837 0.30452 0.52731 0.0
C1023 C 0.62656 0.30286 0.51925 0.0
C1024 C 0.64237 0.29589 0.53043 0.0
H1025 H 0.03472 0.73563 0.97505 0.0
H1026 H 0.03094 0.71726 0.9129 0.0
H1027 H 0.97813 0.71706 0.9431 0.0
H1028 H 0.96869 0.68868 0.9055 0.0
C1029 C 0.98502 0.68962 0.90558 0.0
O1030 O 0.99237 0.70925 0.90906 0.0
H1031 H 0.99059 0.68097 0.91768 0.0
C1032 C 0.02586 0.73042 0.96134 0.0
C1033 C 1.00536 0.72652 0.96127 0.0
C1034 C 0.03512 0.72737 0.94398 0.0
C1035 C 0.02384 0.72007 0.92633 0.0
C1036 C 1.00326 0.71658 0.926 0.0
C1037 C 0.99399 0.72018 0.94339 0.0
H1038 H 0.98936 0.33239 0.50361 0.0
H1039 H 0.96929 0.30904 0.55551 0.0
H1040 H 0.0282 0.33793 0.55725 0.0
H1041 H 0.0271 0.30574 0.58419 0.0
C1042 C 0.01074 0.30311 0.58362 0.0
O1043 O 1.00251 0.31967 0.57774 0.0
H1044 H 1.00593 0.29004 0.57283 0.0
C1045 C 0.99235 0.32944 0.5189 0.0
C1046 C 0.01079 0.33585 0.52905 0.0
C1047 C 0.97737 0.31993 0.52826 0.0
C1048 C 0.98085 0.31639 0.54809 0.0
C1049 C 0.99926 0.3228 0.55852 0.0
C1050 C 0.01414 0.33278 0.54908 0.0
H1051 H 0.36478 0.68738 0.95458 0.0
H1052 H 0.36079 0.71075 0.01422 0.0
H1053 H 0.30902 0.70394 0.97263 0.0
H1054 H 0.31543 0.74269 1.00239 0.0
C1055 C 0.32538 0.73652 0.01354 0.0
O1056 O 0.32361 0.71614 0.00968 0.0
H1057 H 0.34072 0.74276 0.01197 0.0
C1058 C 0.35584 0.69285 0.96589 0.0
C1059 C 0.33578 0.69476 0.96102 0.0
C1060 C 0.36507 0.69912 0.9847 0.0
C1061 C 0.35371 0.70549 0.99968 0.0
C1062 C 0.33351 0.70732 0.99545 0.0
C1063 C 0.32445 0.70191 0.97605 0.0
H1064 H 0.5699 0.6068 0.2868 0.0
H1065 H 0.51262 0.59386 0.30692 0.0
H1066 H 0.52939 0.65168 0.28975 0.0
H1067 H 0.50122 0.65501 0.31974 0.0
C1068 C 0.49714 0.63895 0.32024 0.0
O1069 O 0.5009 0.629 0.30263 0.0
H1070 H 0.50641 0.6341 0.33282 0.0
C1071 C 0.55577 0.61156 0.29037 0.0
C1072 C 0.55169 0.63103 0.28783 0.0
C1073 C 0.54188 0.59794 0.29705 0.0
C1074 C 0.52359 0.60415 0.30179 0.0
C1075 C 0.51904 0.62351 0.2991 0.0
C1076 C 0.53303 0.63684 0.29192 0.0
H1077 H 0.97753 0.04049 0.72604 0.0
H1078 H 0.91461 0.02618 0.72051 0.0
H1079 H 0.95268 0.9824 0.70206 0.0
H1080 H 0.90729 0.97346 0.6792 0.0
C1081 C 0.90596 0.98839 0.68656 0.0
O1082 O 0.9158 0.98976 0.70527 0.0
H1083 H 0.91277 0.99939 0.67739 0.0
C1084 C 0.96479 0.02981 0.72211 0.0
C1085 C 0.96741 0.01081 0.71384 0.0
C1086 C 0.94585 0.03541 0.72465 0.0
C1087 C 0.92934 0.02184 0.71896 0.0
C1088 C 0.93182 1.00268 0.71099 0.0
C1089 C 0.95087 0.9971 0.70858 0.0
H1090 H 0.5039 0.98614 0.32922 0.0
H1091 H 0.55123 0.97057 0.29498 0.0
H1092 H 0.56074 0.01955 0.33996 0.0
H1093 H 0.57196 0.02465 0.29772 0.0
C1094 C 0.5797 0.01098 0.29596 0.0
O1095 O 0.57649 0.99971 0.31141 0.0
H1096 H 0.57346 1.00253 0.28182 0.0
C1097 C 0.51897 0.98894 0.3255 0.0
C1098 C 0.53143 1.00422 0.33625 0.0
C1099 C 0.52593 0.97663 0.31073 0.0
C1100 C 0.54564 0.97989 0.30649 0.0
C1101 C 0.55805 0.99565 0.3167 0.0
C1102 C 0.55105 0.00762 0.33186 0.0
H1103 H 0.96752 0.36678 0.67686 0.0
H1104 H 0.02528 0.35677 0.70162 0.0
H1105 H 0.97546 0.31591 0.70889 0.0
H1106 H 0.01191 0.32076 0.7454 0.0
C1107 C 0.02127 0.32924 0.73592 0.0
O1108 O 0.01431 0.32415 0.71632 0.0
H1109 H 0.02024 0.34523 0.74014 0.0
C1110 C 0.97699 0.3577 0.68494 0.0
C1111 C 0.96872 0.34068 0.69248 0.0
C1112 C 0.99721 0.3637 0.68836 0.0
C1113 C 0.00963 0.35215 0.69878 0.0
C1114 C 1.00188 0.33491 0.70613 0.0
C1115 C 0.98142 0.3291 0.70295 0.0
H1116 H 0.72993 0.44139 0.39859 0.0
H1117 H 0.70136 0.49358 0.41318 0.0
H1118 H 0.72187 0.48315 0.35553 0.0
H1119 H 0.72884 0.52607 0.37531 0.0
C1120 C 0.71493 0.52605 0.38268 0.0
O1121 O 0.70432 0.50773 0.3788 0.0
H1122 H 0.71894 0.52908 0.39887 0.0
C1123 C 0.7247 0.45513 0.39437 0.0
C1124 C 0.72675 0.4605 0.37526 0.0
C1125 C 0.71531 0.46662 0.40799 0.0
C1126 C 0.70894 0.48467 0.40289 0.0
C1127 C 0.71162 0.49086 0.38406 0.0
C1128 C 0.72053 0.47873 0.37025 0.0
H1129 H 0.69104 0.50618 0.03492 0.0
H1130 H 0.72199 0.45422 0.03654 0.0
H1131 H 0.67189 0.45518 0.99396 0.0
H1132 H 0.67513 0.41204 1.00382 0.0
C1133 C 0.68716 0.41775 0.01543 0.0
O1134 O 0.69824 0.43324 0.00872 0.0
H1135 H 0.67988 0.4227 0.02877 0.0
C1136 C 0.69248 0.49109 0.02921 0.0
C1137 C 0.67977 0.48218 0.01309 0.0
C1138 C 0.7079 0.48137 0.0374 0.0
C1139 C 0.70997 0.46185 0.03039 0.0
C1140 C 0.69656 0.45225 0.01513 0.0
C1141 C 0.68164 0.46247 0.00627 0.0
H1142 H 0.33149 0.04766 0.62939 0.0
H1143 H 0.30217 0.99049 0.63557 0.0
H1144 H 0.30739 0.03581 0.68385 0.0
H1145 H 0.30709 0.98755 0.69546 0.0
C1146 C 0.30372 0.98347 0.67944 0.0
O1147 O 0.29418 0.99849 0.67147 0.0
H1148 H 0.31805 0.98172 0.67311 0.0
C1149 C 0.32358 0.03762 0.63808 0.0
C1150 C 0.32014 0.04414 0.65739 0.0
C1151 C 0.31719 0.0183 0.63003 0.0
C1152 C 0.30681 1.00558 0.64138 0.0
C1153 C 0.30336 0.0117 0.66072 0.0
C1154 C 0.3099 0.03111 0.6688 0.0
H1155 H 0.27814 0.03966 0.98868 0.0
H1156 H 0.28848 0.10328 0.99889 0.0
H1157 H 0.31974 0.06666 0.03579 0.0
H1158 H 0.31343 0.10953 0.05633 0.0
C1159 C 0.30951 0.11508 0.04181 0.0
O1160 O 0.31607 0.10287 0.02712 0.0
H1161 H 0.29316 0.11524 0.0398 0.0
C1162 C 0.28483 0.05301 0.9972 0.0
C1163 C 0.29842 0.05108 0.01334 0.0
C1164 C 0.28096 0.07174 0.99143 0.0
C1165 C 0.29112 0.08855 1.00243 0.0
C1166 C 0.30515 0.08666 0.01814 0.0
C1167 C 0.30874 0.06798 0.02368 0.0
H1168 H 0.40386 0.73176 0.44369 0.0
H1169 H 0.41306 0.70014 0.4949 0.0
H1170 H 0.35673 0.72185 0.48087 0.0
H1171 H 0.36986 0.72516 0.5253 0.0
C1172 C 0.38011 0.71335 0.52496 0.0
O1173 O 0.37764 0.70309 0.50637 0.0
H1174 H 0.3955 0.72041 0.52802 0.0
C1175 C 0.39853 0.72645 0.45697 0.0
C1176 C 0.37889 0.7284 0.46087 0.0
C1177 C 0.41088 0.71618 0.46897 0.0
C1178 C 0.40372 0.70832 0.48562 0.0
C1179 C 0.38439 0.71084 0.49028 0.0
C1180 C 0.37187 0.72059 0.47768 0.0
H1181 H 0.995 0.27169 0.04021 0.0
H1182 H 1.00257 0.28672 0.1033 0.0
H1183 H 0.04969 0.30102 0.06784 0.0
H1184 H 0.02439 0.32973 0.10369 0.0
C1185 C 0.03582 0.3225 0.11237 0.0
O1186 O 0.03805 0.30384 0.10369 0.0
H1187 H 0.05006 0.33176 0.11259 0.0
C1188 C 1.00381 0.27789 0.0536 0.0
C1189 C 0.02323 0.28563 0.05209 0.0
C1190 C 0.9959 0.27813 0.07196 0.0
C1191 C 0.00788 0.28673 0.08883 0.0
C1192 C 0.02694 0.29551 0.08727 0.0
C1193 C 0.03468 0.2949 0.06889 0.0
H1194 H 0.02518 0.68474 0.50806 0.0
H1195 H 0.03452 0.72383 0.46296 0.0
H1196 H 0.9944 0.67109 0.45024 0.0
H1197 H 0.02241 0.68051 0.41975 0.0
C1198 C 0.02196 0.69683 0.42094 0.0
O1199 O 0.01044 0.70252 0.43567 0.0
H1200 H 0.03735 0.70374 0.4246 0.0
C1201 C 0.02222 0.68839 0.49299 0.0
C1202 C 0.00861 0.67606 0.47999 0.0
C1203 C 0.0317 0.70555 0.48706 0.0
C1204 C 0.02741 0.71049 0.46774 0.0
C1205 C 0.01421 0.6979 0.45437 0.0
C1206 C 1.0048 0.68063 0.46049 0.0
H1207 H 0.63911 0.32238 0.04852 0.0
H1208 H 0.63381 0.28718 0.9925 0.0
H1209 H 0.69082 0.30305 0.02416 0.0
H1210 H 0.68582 0.30907 0.97939 0.0
C1211 C 0.67439 0.29673 0.97457 0.0
O1212 O 0.67125 0.28609 0.99053 0.0
H1213 H 0.66066 0.30326 0.96951 0.0
C1214 C 0.64563 0.314 0.03695 0.0
C1215 C 0.66606 0.31302 0.03875 0.0
C1216 C 0.63374 0.30485 0.0204 0.0
C1217 C 0.64265 0.29457 0.00538 0.0
C1218 C 0.66316 0.29431 0.00636 0.0
C1219 C 0.67499 0.30341 0.02323 0.0
H1220 H 0.44532 0.40283 0.72659 0.0
H1221 H 0.5002 0.41143 0.7003 0.0
H1222 H 0.47971 0.35388 0.71548 0.0
H1223 H 0.52349 0.35685 0.71616 0.0
C1224 C 0.5248 0.37193 0.71116 0.0
O1225 O 0.50772 0.37447 0.69959 0.0
H1226 H 0.52672 0.3826 0.72463 0.0
C1227 C 0.45864 0.39719 0.72171 0.0
C1228 C 0.46113 0.37711 0.72274 0.0
C1229 C 0.47248 0.40983 0.71367 0.0
C1230 C 0.48921 0.40201 0.7065 0.0
C1231 C 0.49183 0.38188 0.70712 0.0
C1232 C 0.47766 0.3694 0.71506 0.0
H1233 H 0.0413 0.97422 0.27295 0.0
H1234 H 0.10249 0.98842 0.29402 0.0
H1235 H 0.05904 0.02598 0.31305 0.0
H1236 H 0.10385 0.04919 0.31378 0.0
C1237 C 0.10921 0.03456 0.30992 0.0
O1238 O 0.09661 0.02001 0.31623 0.0
H1239 H 0.10961 0.03273 0.29358 0.0
C1240 C 0.0529 0.98414 0.28131 0.0
C1241 C 0.04777 1.00062 0.29279 0.0
C1242 C 0.07253 0.9795 0.28157 0.0
C1243 C 0.08729 0.99194 0.29321 0.0
C1244 C 0.08245 0.00891 0.30414 0.0
C1245 C 0.06274 0.01335 0.30384 0.0
H1246 H 0.50342 0.02824 0.68436 0.0
H1247 H 0.45212 0.03831 0.71453 0.0
H1248 H 0.45478 0.98299 0.67969 0.0
H1249 H 0.41373 0.99818 0.67783 0.0
C1250 C 0.41588 0.00758 0.69212 0.0
O1251 O 0.43315 1.00375 0.70249 0.0
H1252 H 0.41679 0.02331 0.68882 0.0
C1253 C 0.48881 0.02301 0.68796 0.0
C1254 C 0.48057 1.00401 0.68074 0.0
C1255 C 0.47878 0.03535 0.70011 0.0
C1256 C 0.45989 0.02893 0.70484 0.0
C1257 C 0.45113 0.01011 0.69731 0.0
C1258 C 0.46142 0.99765 0.68514 0.0
H1259 H 0.052 0.63538 0.31613 0.0
H1260 H 0.99287 0.64429 0.2949 0.0
H1261 H 0.0367 0.69407 0.30626 0.0
H1262 H 0.99746 0.66813 0.26441 0.0
C1263 C 0.99532 0.68253 0.27255 0.0
O1264 O 0.99943 0.68197 0.29271 0.0
H1265 H 1.00593 0.69389 0.26752 0.0
C1266 C 0.04128 0.64545 0.31193 0.0
C1267 C 0.04699 0.66576 0.31242 0.0
C1268 C 0.0219 0.63776 0.30572 0.0
C1269 C 0.00774 0.65034 0.30031 0.0
C1270 C 0.01305 0.67056 0.30014 0.0
C1271 C 0.03264 0.67841 0.30648 0.0
H1272 H 0.16047 0.65005 0.33453 0.0
H1273 H 0.16514 0.70071 0.37827 0.0
H1274 H 0.13121 0.70735 0.36728 0.0
H1275 H 0.13053 0.67291 0.29597 0.0
H1276 H 0.11634 0.64978 0.28751 0.0
H1277 H 0.14162 0.65002 0.2977 0.0
H1278 H 0.13052 0.62642 0.32326 0.0
H1279 H 0.10528 0.62611 0.31317 0.0
H1280 H 0.11189 0.63326 0.33907 0.0
H1281 H 0.09521 0.70655 0.35349 0.0
H1282 H 0.06094 0.69788 0.33825 0.0
H1283 H 0.08055 0.64934 0.30231 0.0
C1284 C 0.15464 0.66288 0.34148 0.0
C1285 C 0.16567 0.67474 0.35741 0.0
C1286 C 0.15705 0.69111 0.36629 0.0
C1287 C 0.13778 0.69515 0.36001 0.0
C1288 C 0.12724 0.68293 0.34457 0.0
C1289 C 0.13547 0.66724 0.33528 0.0
C1290 C 0.12073 0.65577 0.31966 0.0
C1291 C 0.12773 0.65721 0.29898 0.0
C1292 C 0.11688 0.63412 0.32407 0.0
C1293 C 0.10271 0.66694 0.32216 0.0
C1294 C 0.10677 0.68273 0.33641 0.0
C1295 C 0.09201 0.69442 0.34206 0.0
C1296 C 0.07258 0.68953 0.33325 0.0
C1297 C 0.06799 0.67307 0.31907 0.0
C1298 C 0.08349 0.66203 0.31314 0.0
H1299 H 0.37428 0.36391 0.79124 0.0
H1300 H 0.34933 0.3134 0.75133 0.0
H1301 H 0.37963 0.31511 0.73367 0.0
H1302 H 0.39499 0.39039 0.75548 0.0
H1303 H 0.41654 0.40082 0.77125 0.0
H1304 H 0.39398 0.39403 0.78183 0.0
H1305 H 0.41249 0.37162 0.80439 0.0
H1306 H 0.43514 0.3783 0.79379 0.0
H1307 H 0.42611 0.35267 0.7935 0.0
H1308 H 0.41211 0.32421 0.71894 0.0
H1309 H 0.44195 0.34124 0.70732 0.0
H1310 H 0.44505 0.38543 0.75729 0.0
C1311 C 0.37536 0.35287 0.77909 0.0
C1312 C 0.35954 0.33835 0.77282 0.0
C1313 C 0.36129 0.32463 0.75641 0.0
C1314 C 0.3785 0.32542 0.74639 0.0
C1315 C 0.3938 0.34004 0.75294 0.0
C1316 C 0.39229 0.35355 0.76891 0.0
C1317 C 0.4099 0.3689 0.77207 0.0
C1318 C 0.40346 0.38976 0.77003 0.0
C1319 C 0.4216 0.36779 0.79213 0.0
C1320 C 0.42145 0.36217 0.7552 0.0
C1321 C 0.41214 0.34536 0.74442 0.0
C1322 C 0.41961 0.33724 0.72743 0.0
C1323 C 0.43663 0.34691 0.72099 0.0
C1324 C 0.4458 0.36462 0.73141 0.0
C1325 C 0.43837 0.37188 0.74904 0.0
H1326 H 0.58528 0.98866 0.64967 0.0
H1327 H 0.55832 0.97001 0.59042 0.0
H1328 H 0.52548 0.96716 0.60309 0.0
H1329 H 0.55045 0.95714 0.67621 0.0
H1330 H 0.55092 0.97627 0.6962 0.0
H1331 H 0.57241 0.9738 0.6829 0.0
H1332 H 0.57254 0.01037 0.67522 0.0
H1333 H 0.55119 0.01294 0.68852 0.0
H1334 H 0.5506 0.01864 0.66322 0.0
H1335 H 0.49523 0.97203 0.62146 0.0
H1336 H 0.47121 0.98442 0.64373 0.0
H1337 H 0.51816 0.99685 0.69109 0.0
C1338 C 0.5726 0.98322 0.63944 0.0
C1339 C 0.57446 0.97954 0.61905 0.0
C1340 C 0.5573 0.97312 0.6061 0.0
C1341 C 0.53857 0.97126 0.61319 0.0
C1342 C 0.53723 0.97553 0.63333 0.0
C1343 C 0.55387 0.98116 0.64628 0.0
C1344 C 0.54845 0.98688 0.66686 0.0
C1345 C 0.556 0.97267 0.6814 0.0
C1346 C 0.55614 0.00848 0.67384 0.0
C1347 C 0.52617 0.98435 0.66334 0.0
C1348 C 0.51986 0.97763 0.64397 0.0
C1349 C 0.49996 0.97675 0.63679 0.0
C1350 C 0.48636 0.98367 0.64953 0.0
C1351 C 0.49286 0.9914 0.66911 0.0
C1352 C 0.51279 0.99074 0.67624 0.0
H1353 H 0.94549 0.04996 0.28036 0.0
H1354 H 0.91714 0.99194 0.28726 0.0
H1355 H 0.94971 0.97971 0.29419 0.0
H1356 H 0.9852 0.03239 0.25493 0.0
H1357 H 1.00357 0.05147 0.26627 0.0
H1358 H 0.97802 0.05627 0.2633 0.0
H1359 H 0.97914 0.06649 0.30082 0.0
H1360 H 1.0047 0.06159 0.30392 0.0
H1361 H 0.98695 0.04956 0.31811 0.0
H1362 H 0.98438 0.97345 0.29985 0.0
H1363 H 0.02032 0.97221 0.30081 0.0
H1364 H 0.02747 0.03369 0.28876 0.0
C1365 C 0.94627 0.03475 0.28348 0.0
C1366 C 0.92893 0.02181 0.2833 0.0
C1367 C 0.93034 1.00196 0.28721 0.0
C1368 C 0.94872 0.99495 0.29131 0.0
C1369 C 0.96556 0.00797 0.29133 0.0
C1370 C 0.96463 0.02738 0.28732 0.0
C1371 C 0.98521 0.03774 0.28706 0.0
C1372 C 0.98817 0.04488 0.26667 0.0
C1373 C 0.98923 0.05486 0.30346 0.0
C1374 C 0.99774 0.02099 0.29128 0.0
C1375 C 0.98597 1.0041 0.294 0.0
C1376 C 0.99379 0.98653 0.29771 0.0
C1377 C 0.01419 0.98596 0.29815 0.0
C1378 C 0.02659 1.00277 0.29462 0.0
C1379 C 0.01831 0.02067 0.2916 0.0
H1380 H 0.3316 0.16135 0.66088 0.0
H1381 H 0.39454 0.15767 0.67332 0.0
H1382 H 0.38825 0.12243 0.67788 0.0
H1383 H 0.31584 0.12508 0.69598 0.0
H1384 H 0.29458 0.11484 0.6797 0.0
H1385 H 0.30358 0.14046 0.67961 0.0
H1386 H 0.30667 0.1351 0.64202 0.0
H1387 H 0.29757 0.10958 0.642 0.0
H1388 H 0.32099 0.11596 0.6327 0.0
H1389 H 0.37607 0.08704 0.67664 0.0
H1390 H 0.35846 0.05371 0.66997 0.0
H1391 H 0.30305 0.07924 0.65992 0.0
C1392 C 0.34402 0.15318 0.66484 0.0
C1393 C 0.36358 0.16248 0.66698 0.0
C1394 C 0.3794 0.15114 0.67205 0.0
C1395 C 0.37599 0.13103 0.67461 0.0
C1396 C 0.35662 0.12232 0.6723 0.0
C1397 C 0.34085 0.133 0.66767 0.0
C1398 C 0.3216 0.11965 0.66497 0.0
C1399 C 0.3081 0.12535 0.68102 0.0
C1400 C 0.3111 0.1201 0.64418 0.0
C1401 C 0.32917 0.09968 0.66774 0.0
C1402 C 0.34943 0.10169 0.67228 0.0
C1403 C 0.36015 0.08533 0.67376 0.0
C1404 C 0.35003 0.06645 0.67015 0.0
C1405 C 0.32933 0.06396 0.66551 0.0
C1406 C 0.31874 0.08081 0.66445 0.0
H1407 H 0.2698 0.93908 0.03138 0.0
H1408 H 0.33049 0.92869 0.02288 0.0
H1409 H 0.33856 0.96426 0.02062 0.0
H1410 H 0.26524 0.97483 0.99689 0.0
H1411 H 0.25027 0.98981 0.0114 0.0
H1412 H 0.24962 0.96371 0.01371 0.0
H1413 H 0.25885 0.97087 0.05141 0.0
H1414 H 0.25968 0.99703 0.04918 0.0
H1415 H 0.28085 0.98672 0.06037 0.0
H1416 H 0.33997 1.00079 0.01859 0.0
H1417 H 0.33384 0.03548 0.01435 0.0
H1418 H 0.2721 0.02185 0.02271 0.0
C1419 C 0.28477 0.94428 0.02902 0.0
C1420 C 0.29957 0.93112 0.02753 0.0
C1421 C 0.31901 0.93855 0.0245 0.0
C1422 C 0.32374 0.95872 0.02314 0.0
C1423 C 0.30886 0.9713 0.02482 0.0
C1424 C 0.28975 0.96438 0.02758 0.0
C1425 C 0.27635 0.98093 0.02812 0.0
C1426 C 0.25938 0.97708 0.01154 0.0
C1427 C 0.26847 0.98407 0.04848 0.0
C1428 C 0.2908 0.99809 0.02462 0.0
C1429 C 0.30956 0.9923 0.02316 0.0
C1430 C 0.32537 1.00554 0.0198 0.0
C1431 C 0.32181 0.02517 0.01751 0.0
C1432 C 0.30257 0.03117 0.01832 0.0
C1433 C 0.28695 0.01753 0.02212 0.0
H1434 H 0.75098 0.35228 0.34569 0.0
H1435 H 0.79931 0.37618 0.31479 0.0
H1436 H 0.78743 0.40926 0.31934 0.0
H1437 H 0.71372 0.38419 0.32588 0.0
H1438 H 0.70276 0.38618 0.34898 0.0
H1439 H 0.71385 0.36408 0.34134 0.0
H1440 H 0.73631 0.36795 0.37424 0.0
H1441 H 0.72527 0.38994 0.38194 0.0
H1442 H 0.75166 0.39073 0.38125 0.0
H1443 H 0.77252 0.44091 0.33168 0.0
H1444 H 0.75571 0.46676 0.34983 0.0
H1445 H 0.71568 0.42114 0.36919 0.0
C1446 C 0.75874 0.36421 0.33916 0.0
C1447 C 0.77619 0.3614 0.32991 0.0
C1448 C 0.78609 0.37782 0.32224 0.0
C1449 C 0.77934 0.39672 0.32458 0.0
C1450 C 0.76239 0.399 0.33426 0.0
C1451 C 0.75207 0.38305 0.34111 0.0
C1452 C 0.73503 0.38942 0.35212 0.0
C1453 C 0.71517 0.38043 0.34142 0.0
C1454 C 0.73722 0.38421 0.37365 0.0
C1455 C 0.73773 0.41149 0.35099 0.0
C1456 C 0.7535 0.41689 0.34059 0.0
C1457 C 0.75986 0.43678 0.33947 0.0
C1458 C 0.75018 0.4514 0.34971 0.0
C1459 C 0.73442 0.44598 0.36093 0.0
C1460 C 0.72772 0.42578 0.36076 0.0
H1461 H 0.64341 0.5854 0.99498 0.0
H1462 H 0.58377 0.55707 0.9821 0.0
H1463 H 0.59674 0.52435 0.98218 0.0
H1464 H 0.66831 0.54863 0.96534 0.0
H1465 H 0.68943 0.55093 0.98341 0.0
H1466 H 0.67545 0.57179 0.98 0.0
H1467 H 0.6703 0.57488 0.0173 0.0
H1468 H 0.68409 0.554 0.02079 0.0
H1469 H 0.65932 0.55385 0.02804 0.0
H1470 H 0.61629 0.4948 0.98847 0.0
H1471 H 0.6405 0.47199 0.9996 0.0
H1472 H 0.68697 0.52015 0.00485 0.0
C1473 C 0.63308 0.57238 0.99145 0.0
C1474 C 0.61258 0.57387 0.98849 0.0
C1475 C 0.59956 0.55633 0.98462 0.0
C1476 C 0.60679 0.53767 0.98447 0.0
C1477 C 0.6271 0.53679 0.98793 0.0
C1478 C 0.64003 0.55374 0.9911 0.0
C1479 C 0.66098 0.54908 0.99602 0.0
C1480 C 0.67432 0.55548 0.98024 0.0
C1481 C 0.66913 0.5585 0.01676 0.0
C1482 C 0.65784 0.52688 0.99547 0.0
C1483 C 0.63825 0.51992 0.99084 0.0
C1484 C 0.63174 0.50005 0.99168 0.0
C1485 C 0.64557 0.48717 0.99793 0.0
C1486 C 0.66557 0.49433 1.00323 0.0
C1487 C 0.67175 0.51424 1.00111 0.0
H1488 H 0.67013 0.32802 0.15367 0.0
H1489 H 0.6813 0.39086 0.14882 0.0
H1490 H 0.68774 0.38382 0.11396 0.0
H1491 H 0.70645 0.31147 0.12013 0.0
H1492 H 0.69043 0.29 0.10991 0.0
H1493 H 0.68918 0.29983 0.1351 0.0
H1494 H 0.65172 0.30303 0.12791 0.0
H1495 H 0.65284 0.29287 0.10291 0.0
H1496 H 0.64341 0.31651 0.1077 0.0
H1497 H 0.68832 0.37009 0.07843 0.0
H1498 H 0.68187 0.35103 0.04561 0.0
H1499 H 0.67116 0.2973 0.07365 0.0
C1500 C 0.67405 0.34034 0.14535 0.0
C1501 C 0.6752 0.36003 0.15411 0.0
C1502 C 0.68056 0.37565 0.14262 0.0
C1503 C 0.68425 0.37178 0.12276 0.0
C1504 C 0.68277 0.35219 0.11457 0.0
C1505 C 0.67783 0.33674 0.12556 0.0
C1506 C 0.67564 0.31713 0.11297 0.0
C1507 C 0.69136 0.30382 0.11995 0.0
C1508 C 0.65466 0.30679 0.11286 0.0
C1509 C 0.67937 0.32398 0.09297 0.0
C1510 C 0.68377 0.34424 0.09423 0.0
C1511 C 0.68562 0.35416 0.07735 0.0
C1512 C 0.68219 0.34324 0.05876 0.0
C1513 C 0.67704 0.32262 0.05718 0.0
C1514 C 0.67617 0.31287 0.07453 0.0
H1515 H 0.03592 0.30717 0.94164 0.0
H1516 H 0.04178 0.24452 0.92971 0.0
H1517 H 0.04381 0.24098 0.96539 0.0
H1518 H 0.06752 0.31536 0.98867 0.0
H1519 H 0.05158 0.33202 0.99968 0.0
H1520 H 0.05331 0.3303 0.97341 0.0
H1521 H 0.01536 0.32228 0.9672 0.0
H1522 H 0.01352 0.32411 0.99339 0.0
H1523 H 1.00363 0.30189 0.97832 0.0
H1524 H 0.04175 0.24336 1.00171 0.0
H1525 H 0.03429 0.25131 0.03614 0.0
H1526 H 0.0288 0.31208 0.02472 0.0
C1527 C 0.03777 0.29271 0.94649 0.0
C1528 C 0.03885 0.27615 0.93277 0.0
C1529 C 0.04135 0.25753 0.93986 0.0
C1530 C 0.04246 0.25535 0.96013 0.0
C1531 C 0.04109 0.27192 0.97317 0.0
C1532 C 0.03876 0.29024 0.96666 0.0
C1533 C 0.03596 0.30531 0.98359 0.0
C1534 C 0.05312 0.32172 0.98651 0.0
C1535 C 0.01593 0.31389 0.98043 0.0
C1536 C 0.03647 0.29245 1.00058 0.0
C1537 C 0.03978 0.2733 0.99427 0.0
C1538 C 0.03954 0.25836 0.00691 0.0
C1539 C 0.03537 0.26299 0.0264 0.0
C1540 C 0.0315 0.28235 0.033 0.0
C1541 C 0.03236 0.29734 0.02007 0.0
H1542 H 0.36313 0.79275 0.37117 0.0
H1543 H 0.31449 0.7498 0.34771 0.0
H1544 H 0.31647 0.73426 0.37922 0.0
H1545 H 0.39106 0.75983 0.39454 0.0
H1546 H 0.40052 0.77695 0.41546 0.0
H1547 H 0.39344 0.78601 0.3922 0.0
H1548 H 0.36965 0.80818 0.40923 0.0
H1549 H 0.37659 0.79903 0.43256 0.0
H1550 H 0.35097 0.79718 0.42309 0.0
H1551 H 0.32559 0.72196 0.41261 0.0
H1552 H 0.34309 0.71208 0.44294 0.0
H1553 H 0.38591 0.76294 0.44409 0.0
C1554 C 0.35256 0.78037 0.37283 0.0
C1555 C 0.33848 0.77262 0.35706 0.0
C1556 C 0.32537 0.75599 0.3596 0.0
C1557 C 0.32629 0.74719 0.3775 0.0
C1558 C 0.34043 0.75516 0.39273 0.0
C1559 C 0.3534 0.77134 0.39048 0.0
C1560 C 0.36849 0.77595 0.40823 0.0
C1561 C 0.38961 0.77459 0.40224 0.0
C1562 C 0.36628 0.79629 0.41891 0.0
C1563 C 0.36239 0.7595 0.4206 0.0
C1564 C 0.34592 0.74789 0.41165 0.0
C1565 C 0.33833 0.73111 0.41984 0.0
C1566 C 0.34826 0.72569 0.43717 0.0
C1567 C 0.36574 0.73683 0.44593 0.0
C1568 C 0.37244 0.75427 0.43782 0.0
H1569 H 0.97495 0.63514 0.57455 0.0
H1570 H 1.00328 0.58263 0.55753 0.0
H1571 H 1.0042 0.59261 0.52372 0.0
H1572 H 0.94622 0.63825 0.52575 0.0
H1573 H 0.95031 0.66482 0.52811 0.0
H1574 H 0.94851 0.65176 0.54984 0.0
H1575 H 0.98276 0.66859 0.56472 0.0
H1576 H 0.98434 0.68191 0.54331 0.0
H1577 H 1.00371 0.6669 0.55047 0.0
H1578 H 0.00727 0.61102 0.49376 0.0
H1579 H 0.01409 0.63723 0.47167 0.0
H1580 H 0.98296 0.6771 0.50765 0.0
C1581 C 0.98104 0.62558 0.56361 0.0
C1582 C 0.9889 0.60806 0.56864 0.0
C1583 C 0.99683 0.59596 0.55392 0.0
C1584 C 0.99738 0.60149 0.53465 0.0
C1585 C 0.9897 0.61901 0.53023 0.0
C1586 C 0.98162 0.63084 0.54432 0.0
C1587 C 0.97648 0.65002 0.53659 0.0
C1588 C 0.95404 0.65128 0.53498 0.0
C1589 C 0.98749 0.66789 0.54953 0.0
C1590 C 0.98397 0.64767 0.51639 0.0
C1591 C 0.99113 0.62949 0.51274 0.0
C1592 C 1.00117 0.62505 0.49615 0.0
C1593 C 1.00484 0.63992 0.48357 0.0
C1594 C 0.99857 0.65887 0.48781 0.0
C1595 C 0.98722 0.66243 0.50382 0.0
H1596 H 0.85909 0.36909 0.66989 0.0
H1597 H 0.84167 0.30763 0.64929 0.0
H1598 H 0.87506 0.29916 0.66032 0.0
H1599 H 0.9069 0.37099 0.65505 0.0
H1600 H 0.91808 0.38701 0.67614 0.0
H1601 H 0.89244 0.38786 0.66799 0.0
H1602 H 0.88288 0.38109 0.70288 0.0
H1603 H 0.90855 0.38023 0.71114 0.0
H1604 H 0.89087 0.35968 0.71381 0.0
H1605 H 0.91169 0.29789 0.67183 0.0
H1606 H 0.94763 0.30442 0.6817 0.0
H1607 H 0.94012 0.36627 0.69593 0.0
C1608 C 0.86206 0.35375 0.66811 0.0
C1609 C 0.84757 0.33906 0.65871 0.0
C1610 C 0.85246 0.31925 0.65625 0.0
C1611 C 0.87139 0.31425 0.66261 0.0
C1612 C 0.88536 0.32915 0.6716 0.0
C1613 C 0.88084 0.34849 0.67442 0.0
C1614 C 0.89867 0.36196 0.68355 0.0
C1615 C 0.90435 0.37789 0.66986 0.0
C1616 C 0.89502 0.37129 0.70406 0.0
C1617 C 0.91405 0.3473 0.68503 0.0
C1618 C 0.90614 0.32839 0.67824 0.0
C1619 C 0.91794 0.31263 0.67735 0.0
C1620 C 0.93835 0.31643 0.68308 0.0
C1621 C 0.94681 0.33585 0.68944 0.0
C1622 C 0.93424 0.35127 0.69092 0.0
H1623 H 0.661 0.6564 0.26285 0.0
H1624 H 0.6375 0.68602 0.21349 0.0
H1625 H 0.60457 0.68306 0.22587 0.0
H1626 H 0.62207 0.62193 0.26404 0.0
H1627 H 0.62281 0.62248 0.29053 0.0
H1628 H 0.64491 0.62922 0.27921 0.0
H1629 H 0.64927 0.66319 0.29996 0.0
H1630 H 0.62736 0.65624 0.31169 0.0
H1631 H 0.62925 0.67874 0.29969 0.0
H1632 H 0.5731 0.6726 0.24131 0.0
H1633 H 0.54677 0.65588 0.25843 0.0
H1634 H 0.5914 0.63565 0.29894 0.0
C1635 C 0.64917 0.66292 0.25494 0.0
C1636 C 0.65202 0.67136 0.23707 0.0
C1637 C 0.63579 0.67917 0.22703 0.0
C1638 C 0.61699 0.67774 0.23406 0.0
C1639 C 0.61463 0.66882 0.25142 0.0
C1640 C 0.63038 0.66182 0.26187 0.0
C1641 C 0.62378 0.65171 0.2794 0.0
C1642 C 0.62868 0.63006 0.27819 0.0
C1643 C 0.63294 0.66316 0.29885 0.0
C1644 C 0.60173 0.65318 0.27659 0.0
C1645 C 0.59668 0.66335 0.26056 0.0
C1646 C 0.57694 0.665 0.25415 0.0
C1647 C 0.56205 0.65554 0.26403 0.0
C1648 C 0.56698 0.64445 0.28003 0.0
C1649 C 0.58712 0.64398 0.28673 0.0
H1650 H 0.43464 0.03464 0.3727 0.0
H1651 H 0.45194 0.00772 0.42595 0.0
H1652 H 0.48648 0.01013 0.41781 0.0
H1653 H 0.46112 0.00822 0.34272 0.0
H1654 H 0.46786 0.02766 0.32762 0.0
H1655 H 0.44595 0.02839 0.34026 0.0
H1656 H 0.45903 0.06325 0.35696 0.0
H1657 H 0.48126 0.06232 0.34454 0.0
H1658 H 0.48283 0.06676 0.37105 0.0
H1659 H 0.51722 0.00906 0.40088 0.0
H1660 H 0.53994 1.00186 0.37544 0.0
H1661 H 0.50309 0.02918 0.33311 0.0
C1662 C 0.44579 0.02968 0.38287 0.0
C1663 C 0.44059 0.02115 0.40002 0.0
C1664 C 0.45559 0.01471 0.41293 0.0
C1665 C 0.4753 0.01606 0.40844 0.0
C1666 C 0.47986 0.02411 0.39113 0.0
C1667 C 0.4655 0.03088 0.37857 0.0
C1668 C 0.4735 0.03608 0.35952 0.0
C1669 C 0.4614 0.02438 0.34149 0.0
C1670 C 0.4742 0.05843 0.35793 0.0
C1671 C 0.49411 0.02963 0.36259 0.0
C1672 C 0.4978 0.02348 0.38123 0.0
C1673 C 0.5148 0.01441 0.3865 0.0
C1674 C 0.52773 0.01051 0.37204 0.0
C1675 C 0.52337 0.01545 0.35259 0.0
C1676 C 0.50698 0.026 0.34814 0.0
H1677 H 0.07265 0.97596 0.7425 0.0
H1678 H 0.09534 0.01846 0.70427 0.0
H1679 H 0.06142 0.02201 0.69072 0.0
H1680 H 0.02837 0.95432 0.7086 0.0
H1681 H 0.01325 0.95249 0.72887 0.0
H1682 H 0.03936 0.95002 0.73261 0.0
H1683 H 0.04291 0.97814 0.76106 0.0
H1684 H 0.01691 0.98072 0.75737 0.0
H1685 H 0.03453 1.00178 0.75641 0.0
H1686 H 0.02558 0.02538 0.68537 0.0
H1687 H 0.99014 0.02823 0.68858 0.0
H1688 H 0.99006 0.98437 0.73074 0.0
C1689 C 0.07055 0.98574 0.73101 0.0
C1690 C 0.08681 0.99683 0.72441 0.0
C1691 C 0.08329 0.00944 0.70931 0.0
C1692 C 0.06401 0.01163 0.70156 0.0
C1693 C 0.04834 1.00105 0.70893 0.0
C1694 C 0.05137 0.98823 0.72323 0.0
C1695 C 0.03196 0.98035 0.73024 0.0
C1696 C 0.02801 0.95796 0.72475 0.0
C1697 C 0.03157 0.98557 0.75259 0.0
C1698 C 0.01763 0.99151 0.71836 0.0
C1699 C 0.02739 1.00306 0.70587 0.0
C1700 C 0.0177 0.01606 0.69471 0.0
C1701 C 0.99762 0.01761 0.69663 0.0
C1702 C 0.98747 0.00626 0.70962 0.0
C1703 C 0.99746 0.99274 0.7203 0.0
H1704 H 0.67538 0.8531 0.36662 0.0
H1705 H 0.64486 0.83862 0.30815 0.0
H1706 H 0.65721 0.87133 0.29872 0.0
H1707 H 0.66354 0.90214 0.37187 0.0
H1708 H 0.68666 0.91156 0.38554 0.0
H1709 H 0.67717 0.88631 0.38661 0.0
H1710 H 0.70983 0.87457 0.37509 0.0
H1711 H 0.71934 0.89984 0.37387 0.0
H1712 H 0.71843 0.88227 0.35246 0.0
H1713 H 0.67031 0.90802 0.29717 0.0
H1714 H 0.68213 0.94367 0.30425 0.0
H1715 H 0.70437 0.93269 0.36319 0.0
C1716 C 0.67136 0.85666 0.35176 0.0
C1717 C 0.6591 0.84313 0.33817 0.0
C1718 C 0.65443 0.84851 0.31881 0.0
C1719 C 0.66133 0.86715 0.31333 0.0
C1720 C 0.67305 0.88027 0.32728 0.0
C1721 C 0.67808 0.87511 0.34608 0.0
C1722 C 0.6897 0.89209 0.35888 0.0
C1723 C 0.6786 0.89839 0.37677 0.0
C1724 C 0.71057 0.88687 0.36545 0.0
C1725 C 0.6903 0.90772 0.3445 0.0
C1726 C 0.68068 0.90082 0.32629 0.0
C1727 C 0.6781 0.91344 0.31133 0.0
C1728 C 0.68492 0.93367 0.31539 0.0
C1729 C 0.69408 0.94099 0.33427 0.0
C1730 C 0.69744 0.92755 0.34857 0.0
H1731 H 0.72461 0.08077 0.02126 0.0
H1732 H 0.73992 0.08295 0.96105 0.0
H1733 H 0.73423 0.04656 0.95573 0.0
H1734 H 0.75069 0.04033 0.03065 0.0
H1735 H 0.73338 0.02988 0.04629 0.0
H1736 H 0.73574 0.05607 0.04435 0.0
H1737 H 0.69823 0.05488 0.03371 0.0
H1738 H 0.69572 0.02867 0.03576 0.0
H1739 H 0.68751 0.03815 0.01294 0.0
H1740 H 0.7305 0.0093 0.95843 0.0
H1741 H 0.7287 0.97537 0.96886 0.0
H1742 H 0.71624 0.99839 0.02726 0.0
C1743 C 0.72658 0.07369 0.00685 0.0
C1744 C 0.73271 0.08484 0.99159 0.0
C1745 C 0.73492 0.07485 0.97292 0.0
C1746 C 0.73185 0.05413 0.96979 0.0
C1747 C 0.72652 0.0436 0.98544 0.0
C1748 C 0.7238 0.05313 1.00357 0.0
C1749 C 0.71967 0.03859 0.01853 0.0
C1750 C 0.73583 0.04139 0.03597 0.0
C1751 C 0.69905 0.04017 0.02564 0.0
C1752 C 0.72064 0.01936 0.00608 0.0
C1753 C 0.72453 0.02244 0.98701 0.0
C1754 C 0.72719 0.00675 0.97327 0.0
C1755 C 0.72608 0.98751 0.97929 0.0
C1756 C 0.72246 0.98417 0.99892 0.0
C1757 C 0.71931 1.00038 0.01223 0.0
H1758 H 0.26218 0.65299 0.67611 0.0
H1759 H 0.2002 0.63088 0.66836 0.0
H1760 H 0.20949 0.5968 0.66487 0.0
H1761 H 0.27696 0.62195 0.63954 0.0
H1762 H 0.30058 0.61837 0.65199 0.0
H1763 H 0.28913 0.64052 0.65803 0.0
H1764 H 0.29133 0.63347 0.69479 0.0
H1765 H 0.30262 0.61109 0.68873 0.0
H1766 H 0.28056 0.61023 0.70149 0.0
H1767 H 0.22521 0.56547 0.65698 0.0
H1768 H 0.24587 0.54057 0.64315 0.0
H1769 H 0.29741 0.58282 0.6551 0.0
C1770 C 0.25054 0.64099 0.67405 0.0
C1771 C 0.23043 0.64478 0.67274 0.0
C1772 C 0.21571 0.62852 0.66995 0.0
C1773 C 0.22085 0.60902 0.6679 0.0
C1774 C 0.2408 0.60586 0.66882 0.0
C1775 C 0.25542 0.62143 0.6719 0.0
C1776 C 0.27565 0.61428 0.66999 0.0
C1777 C 0.28617 0.62437 0.65392 0.0
C1778 C 0.28828 0.61746 0.68994 0.0
C1779 C 0.27001 0.59247 0.66404 0.0
C1780 C 0.2499 0.58775 0.66407 0.0
C1781 C 0.24103 0.56888 0.65737 0.0
C1782 C 0.25287 0.55475 0.64969 0.0
C1783 C 0.27324 0.5597 0.64851 0.0
C1784 C 0.28196 0.57855 0.65643 0.0
H1785 H 0.37866 0.43574 0.03294 0.0
H1786 H 0.42952 0.45287 1.00219 0.0
H1787 H 0.42186 0.48754 0.00588 0.0
H1788 H 0.34727 0.46277 0.00931 0.0
H1789 H 0.33375 0.46945 0.03005 0.0
H1790 H 0.34621 0.4474 0.02945 0.0
H1791 H 0.36535 0.46002 0.06335 0.0
H1792 H 0.35308 0.4824 0.06374 0.0
H1793 H 0.37967 0.4837 0.06621 0.0
H1794 H 0.40496 0.51828 0.0062 0.0
H1795 H 0.37915 0.54108 1.00105 0.0
H1796 H 0.33949 0.5046 0.03185 0.0
C1797 C 0.38845 0.44689 0.02743 0.0
C1798 C 0.40473 0.44164 0.01741 0.0
C1799 C 0.41716 0.4566 0.01027 0.0
C1800 C 0.41296 0.47637 0.01235 0.0
C1801 C 0.39644 0.481 0.02184 0.0
C1802 C 0.38444 0.46665 0.02937 0.0
C1803 C 0.36599 0.47476 0.03618 0.0
C1804 C 0.34722 0.46291 0.0256 0.0
C1805 C 0.36603 0.47525 0.05871 0.0
C1806 C 0.36867 0.49543 0.02982 0.0
C1807 C 0.38666 0.49903 0.02222 0.0
C1808 C 0.39115 0.51595 0.01273 0.0
C1809 C 0.3765 0.52892 0.00998 0.0
C1810 C 0.35768 0.52468 0.01654 0.0
C1811 C 0.35411 0.50838 0.02744 0.0
H1812 H 0.35637 0.67578 0.8495 0.0
H1813 H 0.3046 0.63326 0.84109 0.0
H1814 H 0.29566 0.64442 0.87419 0.0
H1815 H 0.36924 0.67034 0.89856 0.0
H1816 H 0.37697 0.69605 0.90579 0.0
H1817 H 0.37808 0.68612 0.88071 0.0
H1818 H 0.35636 0.71272 0.86842 0.0
H1819 H 0.35513 0.72269 0.89356 0.0
H1820 H 0.33271 0.71513 0.87783 0.0
H1821 H 0.29453 0.6577 0.91021 0.0
H1822 H 0.30205 0.67141 0.94511 0.0
H1823 H 0.35278 0.7069 0.92886 0.0
C1824 C 0.34282 0.66917 0.85428 0.0
C1825 C 0.33131 0.6535 0.8425 0.0
C1826 C 0.31395 0.64504 0.8498 0.0
C1827 C 0.30859 0.65143 0.86858 0.0
C1828 C 0.3205 0.6666 0.87993 0.0
C1829 C 0.33715 0.6755 0.87293 0.0
C1830 C 0.34814 0.69066 0.88844 0.0
C1831 C 0.36935 0.68547 0.89368 0.0
C1832 C 0.34807 0.71154 0.88166 0.0
C1833 C 0.33554 0.68833 0.90549 0.0
C1834 C 0.31952 0.67455 0.90033 0.0
C1835 C 0.30685 0.66877 0.91429 0.0
C1836 C 0.31113 0.67672 0.93412 0.0
C1837 C 0.32801 0.69018 0.93982 0.0
C1838 C 0.33974 0.69662 0.92502 0.0
H1839 H 1.00245 0.71339 0.0753 0.0
H1840 H 0.95777 0.75482 0.07701 0.0
H1841 H 0.95708 0.7556 0.04079 0.0
H1842 H 0.02937 0.73548 0.04016 0.0
H1843 H 0.03538 0.71257 0.02801 0.0
H1844 H 0.03104 0.71405 0.05368 0.0
H1845 H 1.00388 0.68472 0.04637 0.0
H1846 H 0.00814 0.68317 0.02063 0.0
H1847 H 0.9837 0.68609 0.02787 0.0
H1848 H 0.96229 0.7526 1.00426 0.0
H1849 H 0.97464 0.74771 0.97117 0.0
H1850 H 0.01619 0.70891 0.99409 0.0
C1851 C 0.99224 0.72233 0.06801 0.0
C1852 C 0.98006 0.73394 0.07892 0.0
C1853 C 0.96728 0.74586 0.0689 0.0
C1854 C 0.96669 0.74629 0.04834 0.0
C1855 C 0.979 0.73474 0.03803 0.0
C1856 C 0.99158 0.72303 0.04757 0.0
C1857 C 1.0042 0.71296 0.03337 0.0
C1858 C 0.0263 0.71915 0.03916 0.0
C1859 C 0.9997 0.6904 0.03198 0.0
C1860 C 0.99708 0.72112 0.01443 0.0
C1861 C 0.98232 0.73341 0.01728 0.0
C1862 C 0.97378 0.74293 1.00185 0.0
C1863 C 0.9808 0.74005 0.98314 0.0
C1864 C 0.99636 0.72803 0.98023 0.0
C1865 C 1.00432 0.71826 0.99601 0.0
H1866 H 0.66549 0.21796 0.62624 0.0
H1867 H 0.68952 0.26973 0.66493 0.0
H1868 H 0.69141 0.28896 0.63607 0.0
H1869 H 0.6913 0.23022 0.58113 0.0
H1870 H 0.66959 0.22095 0.565 0.0
H1871 H 0.67515 0.21 0.58769 0.0
H1872 H 0.64055 0.21646 0.59839 0.0
H1873 H 0.6349 0.22716 0.57576 0.0
H1874 H 0.63304 0.24117 0.59904 0.0
H1875 H 0.68451 0.30407 0.6044 0.0
H1876 H 0.66722 0.31393 0.57402 0.0
H1877 H 0.64624 0.25294 0.55615 0.0
C1878 C 0.67158 0.23324 0.62864 0.0
C1879 C 0.67738 0.24228 0.64793 0.0
C1880 C 0.6853 0.26231 0.65034 0.0
C1881 C 0.68642 0.27338 0.63397 0.0
C1882 C 0.67975 0.26419 0.61524 0.0
C1883 C 0.67255 0.2445 0.61252 0.0
C1884 C 0.66347 0.23881 0.59156 0.0
C1885 C 0.67561 0.22412 0.5807 0.0
C1886 C 0.64171 0.23043 0.59119 0.0
C1887 C 0.66535 0.25867 0.58326 0.0
C1888 C 0.67547 0.273 0.5969 0.0
C1889 C 0.67711 0.29289 0.5934 0.0
C1890 C 0.6674 0.29838 0.57603 0.0
C1891 C 0.65602 0.28407 0.56254 0.0
C1892 C 0.65562 0.26395 0.56586 0.0
H1893 H 0.03209 0.36488 0.42683 0.0
H1894 H 0.04371 0.4252 0.4535 0.0
H1895 H 0.04784 0.41303 0.48643 0.0
H1896 H 1.00271 0.34849 0.4594 0.0
H1897 H 0.01093 0.32414 0.45982 0.0
H1898 H 0.01355 0.33734 0.4385 0.0
H1899 H 0.05114 0.33347 0.44143 0.0
H1900 H 0.04859 0.3203 0.46299 0.0
H1901 H 0.06595 0.34192 0.4642 0.0
H1902 H 0.04326 0.39497 0.51624 0.0
H1903 H 0.02929 0.3729 0.53945 0.0
H1904 H 0.02325 0.32417 0.49378 0.0
C1905 C 0.03641 0.37551 0.43948 0.0
C1906 C 0.0376 0.39598 0.43754 0.0
C1907 C 0.04255 0.40943 0.45461 0.0
C1908 C 0.04516 0.40264 0.47338 0.0
C1909 C 0.04317 0.38234 0.47485 0.0
C1910 C 0.03915 0.36896 0.45828 0.0
C1911 C 0.03494 0.34816 0.46385 0.0
C1912 C 0.01432 0.33903 0.45488 0.0
C1913 C 0.05112 0.3352 0.45776 0.0
C1914 C 0.03584 0.35207 0.48607 0.0
C1915 C 0.04108 0.3718 0.49224 0.0
C1916 C 0.0398 0.37939 0.51172 0.0
C1917 C 0.03198 0.36674 0.52488 0.0
C1918 C 0.02543 0.34686 0.51837 0.0
C1919 C 0.02857 0.33925 0.49914 0.0
H1920 H 0.28139 0.56721 0.48991 0.0
H1921 H 0.30935 0.62618 0.50855 0.0
H1922 H 0.31664 0.61654 0.54215 0.0
H1923 H 0.25853 0.56035 0.53442 0.0
H1924 H 0.26225 0.53451 0.53414 0.0
H1925 H 0.25988 0.54583 0.51132 0.0
H1926 H 0.29348 0.53404 0.50273 0.0
H1927 H 0.29604 0.52291 0.52569 0.0
H1928 H 0.31513 0.54078 0.51979 0.0
H1929 H 0.32076 0.60097 0.57358 0.0
H1930 H 0.31836 0.58133 0.60207 0.0
H1931 H 0.28745 0.53231 0.56381 0.0
C1932 C 0.28913 0.57804 0.50105 0.0
C1933 C 0.29475 0.59749 0.49658 0.0
C1934 C 0.30466 0.6113 0.51165 0.0
C1935 C 0.30906 0.6059 0.53074 0.0
C1936 C 0.30348 0.58662 0.5346 0.0
C1937 C 0.29356 0.57292 0.52029 0.0
C1938 C 0.28843 0.55345 0.52871 0.0
C1939 C 0.26594 0.54824 0.52705 0.0
C1940 C 0.2989 0.53681 0.51863 0.0
C1941 C 0.29679 0.55846 0.55004 0.0
C1942 C 0.30566 0.57761 0.55297 0.0
C1943 C 0.31393 0.58595 0.57146 0.0
C1944 C 0.31253 0.57468 0.58753 0.0
C1945 C 0.3028 0.55532 0.5851 0.0
C1946 C 0.29528 0.54693 0.566 0.0
H1947 H 0.27317 0.42211 0.92541 0.0
H1948 H 0.26189 0.45287 0.87328 0.0
H1949 H 0.27067 0.4849 0.89314 0.0
H1950 H 0.25564 0.45783 0.9611 0.0
H1951 H 0.2751 0.45541 0.98005 0.0
H1952 H 0.26666 0.43483 0.96214 0.0
H1953 H 0.30239 0.43265 0.95257 0.0
H1954 H 0.31092 0.45312 0.97056 0.0
H1955 H 0.31587 0.45424 0.94516 0.0
H1956 H 0.28169 0.51341 0.91813 0.0
H1957 H 0.29694 0.53651 0.9462 0.0
H1958 H 0.30122 0.48746 0.98228 0.0
C1959 C 0.2724 0.43564 0.91832 0.0
C1960 C 0.2668 0.43517 0.8979 0.0
C1961 C 0.26622 0.45305 0.88893 0.0
C1962 C 0.27105 0.47127 0.90009 0.0
C1963 C 0.27658 0.47133 0.92019 0.0
C1964 C 0.27749 0.45401 0.92923 0.0
C1965 C 0.28522 0.45826 0.95079 0.0
C1966 C 0.26972 0.45116 0.96431 0.0
C1967 C 0.30476 0.44902 0.95501 0.0
C1968 C 0.28846 0.48061 0.95236 0.0
C1969 C 0.28324 0.48785 0.9346 0.0
C1970 C 0.2857 0.50796 0.93219 0.0
C1971 C 0.29422 0.521 0.94826 0.0
C1972 C 0.30028 0.51384 0.96643 0.0
C1973 C 0.29686 0.4934 0.96854 0.0
H1974 H 0.69952 0.04225 0.47892 0.0
H1975 H 0.68436 0.9844 0.49815 0.0
H1976 H 0.68167 0.96969 0.46373 0.0
H1977 H 0.66545 0.03363 0.43217 0.0
H1978 H 0.68224 0.04751 0.41838 0.0
H1979 H 0.68174 0.05402 0.44447 0.0
H1980 H 0.71927 0.0506 0.44976 0.0
H1981 H 0.71983 0.04388 0.42375 0.0
H1982 H 0.7286 0.02772 0.4414 0.0
H1983 H 0.68612 0.96056 0.42944 0.0
H1984 H 0.69201 0.95718 0.39489 0.0
H1985 H 0.69913 0.02125 0.39493 0.0
C1986 C 0.69526 0.02658 0.47569 0.0
C1987 C 0.692 0.01437 0.49101 0.0
C1988 C 0.68664 0.99392 0.48649 0.0
C1989 C 0.68515 0.98545 0.46704 0.0
C1990 C 0.68869 0.99772 0.45227 0.0
C1991 C 0.69317 0.01788 0.45614 0.0
C1992 C 0.69636 0.02738 0.43718 0.0
C1993 C 0.6805 0.04147 0.43279 0.0
C1994 C 0.71726 0.03802 0.43809 0.0
C1995 C 0.6938 0.00923 0.42233 0.0
C1996 C 0.6895 0.99239 0.43156 0.0
C1997 C 0.68854 0.97365 0.42177 0.0
C1998 C 0.69167 0.97196 0.40185 0.0
C1999 C 0.69501 0.98894 0.39144 0.0
C2000 C 0.69622 0.00789 0.40205 0.0
H2001 H 0.79841 0.98022 0.1318 0.0
H2002 H 0.75291 0.95241 0.16363 0.0
H2003 H 0.73485 0.93826 0.13192 0.0
H2004 H 0.76686 0.99405 0.09327 0.0
H2005 H 0.78318 0.98934 0.07436 0.0
H2006 H 0.79319 0.99582 0.09953 0.0
H2007 H 0.8112 0.96389 0.09863 0.0
H2008 H 0.80113 0.95726 0.07344 0.0
H2009 H 0.7972 0.94031 0.09185 0.0
H2010 H 0.72113 0.92835 0.09671 0.0
H2011 H 0.71145 0.92579 0.06079 0.0
H2012 H 0.76599 0.96014 0.05219 0.0
C2013 C 0.78483 0.97085 0.13213 0.0
C2014 C 0.77712 0.96729 0.15018 0.0
C2015 C 0.75903 0.95539 0.14996 0.0
C2016 C 0.74878 0.94716 0.13205 0.0
C2017 C 0.75683 0.95095 0.11452 0.0
C2018 C 0.77441 0.96259 0.11442 0.0
C2019 C 0.77928 0.96547 0.09359 0.0
C2020 C 0.7807 0.98747 0.08999 0.0
C2021 C 0.79833 0.95617 0.08912 0.0
C2022 C 0.76139 0.9541 0.08197 0.0
C2023 C 0.7488 0.94551 0.09427 0.0
C2024 C 0.73097 0.93485 0.08692 0.0
C2025 C 0.72564 0.93338 0.06651 0.0
C2026 C 0.73801 0.94272 0.05377 0.0
C2027 C 0.75628 0.95284 0.06162 0.0
H2028 H 0.49123 0.28135 0.56415 0.0
H2029 H 0.50866 0.30445 0.62495 0.0
H2030 H 0.54294 0.31124 0.61693 0.0
H2031 H 0.5356 0.25725 0.55695 0.0
H2032 H 0.53647 0.26291 0.53173 0.0
H2033 H 0.51311 0.26017 0.54208 0.0
H2034 H 0.50594 0.29498 0.53269 0.0
H2035 H 0.52942 0.29791 0.52253 0.0
H2036 H 0.52336 0.31591 0.54141 0.0
H2037 H 0.57473 0.31661 0.60259 0.0
H2038 H 0.60377 0.31642 0.58363 0.0
H2039 H 0.56701 0.28854 0.53203 0.0
C2040 C 0.50229 0.28784 0.57573 0.0
C2041 C 0.49727 0.29233 0.59522 0.0
C2042 C 0.51219 0.30065 0.61001 0.0
C2043 C 0.53167 0.30475 0.60555 0.0
C2044 C 0.53608 0.30036 0.58623 0.0
C2045 C 0.52196 0.29184 0.57157 0.0
C2046 C 0.53102 0.28795 0.55219 0.0
C2047 C 0.52893 0.26575 0.54534 0.0
C2048 C 0.52189 0.2999 0.53626 0.0
C2049 C 0.55243 0.29555 0.55833 0.0
C2050 C 0.55484 0.30289 0.57798 0.0
C2051 C 0.57309 0.31076 0.58723 0.0
C2052 C 0.58949 0.31055 0.57633 0.0
C2053 C 0.58771 0.30224 0.55643 0.0
C2054 C 0.56881 0.29508 0.54717 0.0
H2055 H 0.13497 0.79623 0.96941 0.0
H2056 H 0.1637 0.74315 0.97939 0.0
H2057 H 0.13297 0.7228 0.96644 0.0
H2058 H 0.08947 0.7795 0.98611 0.0
H2059 H 0.07465 0.79138 0.96839 0.0
H2060 H 0.09951 0.80158 0.97641 0.0
H2061 H 0.10782 0.7999 0.94 0.0
H2062 H 0.08299 0.78949 0.93189 0.0
H2063 H 0.1037 0.77667 0.92489 0.0
H2064 H 0.09854 0.7082 0.95417 0.0
H2065 H 0.0624 0.70078 0.94601 0.0
H2066 H 0.05593 0.76328 0.94577 0.0
C2067 C 0.13487 0.78033 0.96892 0.0
C2068 C 0.15191 0.77134 0.97531 0.0
C2069 C 0.15105 0.75044 0.9742 0.0
C2070 C 0.13362 0.73873 0.96692 0.0
C2071 C 0.11713 0.7481 0.96082 0.0
C2072 C 0.11758 0.76844 0.96188 0.0
C2073 C 0.09748 0.77491 0.95571 0.0
C2074 C 0.08983 0.78758 0.97267 0.0
C2075 C 0.09804 0.78589 0.93701 0.0
C2076 C 0.08554 0.75504 0.95148 0.0
C2077 C 0.09721 0.73973 0.95414 0.0
C2078 C 0.08931 0.72004 0.95181 0.0
C2079 C 0.06887 0.71594 0.94708 0.0
C2080 C 0.0567 0.73147 0.94494 0.0
C2081 C 0.06514 0.7512 0.94692 0.0
H2082 H 0.9071 0.25784 0.44269 0.0
H2083 H 0.88216 0.31285 0.43199 0.0
H2084 H 0.9013 0.32912 0.462 0.0
H2085 H 0.91018 0.26287 0.49542 0.0
H2086 H 0.93393 0.25331 0.49857 0.0
H2087 H 0.91744 0.24531 0.47678 0.0
H2088 H 0.94443 0.25633 0.45445 0.0
H2089 H 0.96113 0.26384 0.47615 0.0
H2090 H 0.95614 0.28123 0.45837 0.0
H2091 H 0.9231 0.33967 0.49291 0.0
H2092 H 0.9503 0.34514 0.51968 0.0
H2093 H 0.96273 0.28418 0.50937 0.0
C2094 C 0.90574 0.27335 0.44646 0.0
C2095 C 0.89265 0.28386 0.43506 0.0
C2096 C 0.89148 0.30419 0.44072 0.0
C2097 C 0.90237 0.31364 0.45776 0.0
C2098 C 0.91463 0.30269 0.46888 0.0
C2099 C 0.91676 0.28314 0.46324 0.0
C2100 C 0.9321 0.27517 0.47703 0.0
C2101 C 0.92285 0.25816 0.48757 0.0
C2102 C 0.94948 0.26877 0.46583 0.0
C2103 C 0.93824 0.29332 0.49132 0.0
C2104 C 0.92773 0.30894 0.48649 0.0
C2105 C 0.9313 0.32752 0.49696 0.0
C2106 C 0.94658 0.33045 0.51225 0.0
C2107 C 0.95807 0.31491 0.51682 0.0
C2108 C 0.9536 0.29603 0.50655 0.0
H2109 H 0.47614 0.69256 0.03165 0.0
H2110 H 0.49439 0.72684 0.98464 0.0
H2111 H 0.45964 0.72733 0.97179 0.0
H2112 H 0.43484 0.66302 1.00314 0.0
H2113 H 0.41899 0.66353 0.02295 0.0
H2114 H 0.4454 0.66522 0.02843 0.0
H2115 H 0.44411 0.69788 0.05041 0.0
H2116 H 0.4177 0.69633 0.04491 0.0
H2117 H 0.43279 0.71806 0.04011 0.0
H2118 H 0.42411 0.72457 0.96398 0.0
H2119 H 0.38793 0.71896 0.96137 0.0
H2120 H 0.39108 0.68709 0.01371 0.0
C2121 C 0.47265 0.70011 0.01868 0.0
C2122 C 0.48773 0.70982 0.00913 0.0
C2123 C 0.48289 0.71957 0.99219 0.0
C2124 C 0.46327 0.71986 0.98477 0.0
C2125 C 0.44869 0.71042 0.99456 0.0
C2126 C 0.45297 0.70078 0.01116 0.0
C2127 C 0.43414 0.6923 0.01892 0.0
C2128 C 0.4333 0.66967 0.01831 0.0
C2129 C 0.43207 0.70171 0.03983 0.0
C2130 C 0.41876 0.69866 1.00398 0.0
C2131 C 0.42765 0.70902 0.99009 0.0
C2132 C 0.4169 0.71643 0.97469 0.0
C2133 C 0.39639 0.71309 0.9733 0.0
C2134 C 0.38682 0.7024 0.9872 0.0
C2135 C 0.39811 0.69527 1.00291 0.0
H2136 H 0.59573 0.50338 0.26438 0.0
H2137 H 0.58603 0.48167 0.32095 0.0
H2138 H 0.56696 0.51006 0.32909 0.0
H2139 H 0.60309 0.5545 0.28163 0.0
H2140 H 0.59079 0.56241 0.25968 0.0
H2141 H 0.60286 0.53999 0.25825 0.0
H2142 H 0.57017 0.5206 0.24248 0.0
H2143 H 0.55797 0.54297 0.24402 0.0
H2144 H 0.54813 0.52171 0.25516 0.0
H2145 H 0.5497 0.54204 0.33132 0.0
H2146 H 0.53725 0.57478 0.32776 0.0
H2147 H 0.55833 0.57464 0.26964 0.0
C2148 C 0.58973 0.5046 0.27856 0.0
C2149 C 0.59247 0.49026 0.29204 0.0
C2150 C 0.584 0.49233 0.31028 0.0
C2151 C 0.57318 0.50845 0.31506 0.0
C2152 C 0.57082 0.52233 0.30139 0.0
C2153 C 0.57891 0.52051 0.28352 0.0
C2154 C 0.57471 0.53754 0.27151 0.0
C2155 C 0.59401 0.5493 0.26754 0.0
C2156 C 0.56199 0.53026 0.25215 0.0
C2157 C 0.56323 0.54941 0.2855 0.0
C2158 C 0.56098 0.54042 0.30263 0.0
C2159 C 0.5513 0.54912 0.3179 0.0
C2160 C 0.54415 0.56764 0.31572 0.0
C2161 C 0.54686 0.57728 0.29847 0.0
C2162 C 0.55615 0.56772 0.28308 0.0
H2163 H 0.97654 0.13307 0.79539 0.0
H2164 H 0.95868 0.16539 0.74582 0.0
H2165 H 0.944 0.13423 0.72732 0.0
H2166 H 0.99252 0.09344 0.76725 0.0
H2167 H 0.98425 0.07495 0.7828 0.0
H2168 H 0.99069 0.10003 0.79313 0.0
H2169 H 0.9561 0.10076 0.80603 0.0
H2170 H 0.9495 0.07568 0.79552 0.0
H2171 H 0.93432 0.09487 0.78899 0.0
H2172 H 0.93339 0.09939 0.71323 0.0
H2173 H 0.93072 0.06337 0.70354 0.0
H2174 H 0.95755 0.05379 0.76126 0.0
C2175 C 0.96952 0.13368 0.78066 0.0
C2176 C 0.96869 0.15181 0.77216 0.0
C2177 C 0.95917 0.15182 0.75288 0.0
C2178 C 0.9508 0.13416 0.74222 0.0
C2179 C 0.95204 0.11659 0.75101 0.0
C2180 C 0.96128 0.1162 0.76975 0.0
C2181 C 0.96219 0.09523 0.77517 0.0
C2182 C 0.98369 0.09065 0.77985 0.0
C2183 C 0.94979 0.09142 0.79245 0.0
C2184 C 0.95283 0.08386 0.75619 0.0
C2185 C 0.94652 0.09644 0.74265 0.0
C2186 C 0.93805 0.08939 0.72378 0.0
C2187 C 0.9365 0.06897 0.71842 0.0
C2188 C 0.94372 0.05602 0.73179 0.0
C2189 C 0.95165 0.0635 0.75097 0.0
H2190 H 0.42135 0.92296 0.26564 0.0
H2191 H 0.44571 0.86759 0.27522 0.0
H2192 H 0.47821 0.88562 0.28635 0.0
H2193 H 0.46444 0.94786 0.24833 0.0
H2194 H 0.4616 0.97149 0.26118 0.0
H2195 H 0.44021 0.95438 0.25337 0.0
H2196 H 0.43039 0.95574 0.28925 0.0
H2197 H 0.45158 0.97306 0.29708 0.0
H2198 H 0.44807 0.95054 0.30882 0.0
H2199 H 0.50815 0.90932 0.29571 0.0
H2200 H 0.53261 0.93778 0.30712 0.0
H2201 H 0.48873 0.97789 0.29289 0.0
C2202 C 0.43358 0.91471 0.27008 0.0
C2203 C 0.43112 0.89391 0.26957 0.0
C2204 C 0.44732 0.88355 0.27566 0.0
C2205 C 0.46584 0.89363 0.28184 0.0
C2206 C 0.46789 0.9141 0.282 0.0
C2207 C 0.45215 0.9246 0.27662 0.0
C2208 C 0.45817 0.94663 0.27919 0.0
C2209 C 0.45597 0.95561 0.25933 0.0
C2210 C 0.44635 0.9571 0.2945 0.0
C2211 C 0.4797 0.94679 0.2868 0.0
C2212 C 0.48508 0.92786 0.28803 0.0
C2213 C 0.50416 0.92424 0.29481 0.0
C2214 C 0.51799 0.94043 0.30109 0.0
C2215 C 0.51252 0.95991 0.30076 0.0
C2216 C 0.49325 0.96309 0.29319 0.0
H2217 H 0.02273 0.47739 0.71645 0.0
H2218 H 1.00072 0.48562 0.65648 0.0
H2219 H 1.00068 0.44992 0.64724 0.0
H2220 H 0.05302 0.43608 0.70442 0.0
H2221 H 0.04614 0.42367 0.7254 0.0
H2222 H 0.04768 0.45025 0.72653 0.0
H2223 H 0.01156 0.4497 0.73574 0.0
H2224 H 0.01001 0.42323 0.73482 0.0
H2225 H 0.99225 0.435 0.71994 0.0
H2226 H 0.99829 0.41316 0.64568 0.0
H2227 H 0.99286 0.37815 0.65234 0.0
H2228 H 0.01629 0.39374 0.71318 0.0
C2229 C 0.01815 0.47174 0.7013 0.0
C2230 C 0.01187 0.48436 0.68717 0.0
C2231 C 1.00599 0.47634 0.6675 0.0
C2232 C 1.00589 0.45606 0.6621 0.0
C2233 C 0.01184 0.444 0.67649 0.0
C2234 C 0.0179 0.45155 0.69569 0.0
C2235 C 0.02153 0.43527 0.70886 0.0
C2236 C 0.0434 0.43639 0.71676 0.0
C2237 C 0.00803 0.43584 0.72582 0.0
C2238 C 0.01586 0.41734 0.69423 0.0
C2239 C 0.01059 0.42267 0.67556 0.0
C2240 C 1.00282 0.40876 0.6601 0.0
C2241 C 0.99979 0.38896 0.66398 0.0
C2242 C 1.00453 0.38335 0.68315 0.0
C2243 C 0.01321 0.39762 0.69825 0.0
H2244 H 0.73462 0.44905 0.52214 0.0
H2245 H 0.70726 0.38956 0.50504 0.0
H2246 H 0.69896 0.39848 0.47138 0.0
H2247 H 0.69997 0.47454 0.49195 0.0
H2248 H 0.7187 0.4923 0.48518 0.0
H2249 H 0.72189 0.48188 0.50849 0.0
H2250 H 0.75538 0.47009 0.49957 0.0
H2251 H 0.7524 0.48072 0.4764 0.0
H2252 H 0.75639 0.45499 0.47674 0.0
H2253 H 0.69317 0.41319 0.44007 0.0
H2254 H 0.69473 0.43166 0.41078 0.0
H2255 H 0.72687 0.48166 0.44664 0.0
C2256 C 0.7268 0.43797 0.51129 0.0
C2257 C 0.72161 0.41858 0.51621 0.0
C2258 C 0.71159 0.40441 0.50157 0.0
C2259 C 0.70658 0.40939 0.48247 0.0
C2260 C 0.71169 0.4286 0.47814 0.0
C2261 C 0.72184 0.44263 0.49195 0.0
C2262 C 0.72658 0.46184 0.48285 0.0
C2263 C 0.71617 0.47864 0.49271 0.0
C2264 C 0.74902 0.46721 0.48395 0.0
C2265 C 0.71779 0.45621 0.4617 0.0
C2266 C 0.70891 0.43707 0.45956 0.0
C2267 C 0.70005 0.42818 0.44153 0.0
C2268 C 0.70094 0.43882 0.42501 0.0
C2269 C 0.71085 0.45806 0.42651 0.0
C2270 C 0.71893 0.4671 0.44519 0.0
H2271 H 0.7348 0.5627 0.12664 0.0
H2272 H 0.77792 0.5888 0.09087 0.0
H2273 H 0.77227 0.55926 0.067 0.0
H2274 H 0.745 0.51192 0.11751 0.0
H2275 H 0.71943 0.50226 0.11577 0.0
H2276 H 0.7277 0.52481 0.13105 0.0
H2277 H 0.70164 0.54347 0.11215 0.0
H2278 H 0.69294 0.52082 0.09735 0.0
H2279 H 0.70061 0.54249 0.08561 0.0
H2280 H 0.76198 0.52715 0.04689 0.0
H2281 H 0.7429 0.49783 0.02854 0.0
H2282 H 0.70497 0.49364 0.07595 0.0
C2283 C 0.74297 0.56235 0.11373 0.0
C2284 C 0.75714 0.57801 0.11093 0.0
C2285 C 0.76744 0.5768 0.09374 0.0
C2286 C 0.76434 0.56006 0.08006 0.0
C2287 C 0.75075 0.54468 0.08363 0.0
C2288 C 0.73988 0.54586 0.09978 0.0
C2289 C 0.72503 0.52797 0.09931 0.0
C2290 C 0.72957 0.51604 0.11696 0.0
C2291 C 0.70381 0.53406 0.09855 0.0
C2292 C 0.72898 0.51676 0.08015 0.0
C2293 C 0.74427 0.5264 0.07163 0.0
C2294 C 0.75013 0.51934 0.05349 0.0
C2295 C 0.73943 0.50256 0.0433 0.0
C2296 C 0.72293 0.4933 0.05117 0.0
C2297 C 0.71799 0.50012 0.07004 0.0
H2298 H 0.2919 0.96859 0.52059 0.0
H2299 H 0.34876 0.9955 0.50764 0.0
H2300 H 0.35766 1.00493 0.54307 0.0
H2301 H 0.28258 1.00573 0.55412 0.0
H2302 H 0.27062 0.99035 0.57061 0.0
H2303 H 0.27027 0.98187 0.54492 0.0
H2304 H 0.28595 0.95024 0.5542 0.0
H2305 H 0.28619 0.9586 0.58 0.0
H2306 H 0.30872 0.95248 0.57 0.0
H2307 H 0.35858 0.01558 0.57897 0.0
H2308 H 0.35162 0.02614 0.61292 0.0
H2309 H 0.2932 0.99446 0.60185 0.0
C2310 C 0.3064 0.97609 0.52524 0.0
C2311 C 0.31967 0.98116 0.51133 0.0
C2312 C 0.33849 0.99102 0.51802 0.0
C2313 C 0.34366 0.99655 0.53813 0.0
C2314 C 0.3299 0.99202 0.55136 0.0
C2315 C 0.31171 0.98186 0.54522 0.0
C2316 C 0.29877 0.98071 0.56206 0.0
C2317 C 0.27943 0.99024 0.55765 0.0
C2318 C 0.29467 0.95923 0.56685 0.0
C2319 C 0.31214 0.9927 0.57835 0.0
C2320 C 0.33019 0.99871 0.57202 0.0
C2321 C 0.34458 0.01079 0.58418 0.0
C2322 C 0.34038 0.01692 0.60334 0.0
C2323 C 0.32181 0.01122 0.61 0.0
C2324 C 0.30764 0.99881 0.59732 0.0
H2325 H 0.21647 0.02621 0.89447 0.0
H2326 H 0.23254 0.08079 0.86923 0.0
H2327 H 0.24478 0.0966 0.9023 0.0
H2328 H 0.20305 0.05077 0.94366 0.0
H2329 H 0.21311 0.03162 0.95688 0.0
H2330 H 0.20173 0.02592 0.93199 0.0
H2331 H 0.23363 0.01151 0.92182 0.0
H2332 H 0.24523 0.01741 0.94648 0.0
H2333 H 0.25679 0.02677 0.92597 0.0
H2334 H 0.26284 0.10326 0.93525 0.0
H2335 H 0.28189 0.10208 0.96688 0.0
H2336 H 0.25019 0.04513 0.97327 0.0
C2337 C 0.22186 0.04171 0.89611 0.0
C2338 C 0.22345 0.05237 0.87943 0.0
C2339 C 0.23088 0.07251 0.88191 0.0
C2340 C 0.23791 0.08159 0.90063 0.0
C2341 C 0.23695 0.07046 0.91672 0.0
C2342 C 0.22862 0.05111 0.91478 0.0
C2343 C 0.23114 0.04191 0.93413 0.0
C2344 C 0.21106 0.03729 0.94214 0.0
C2345 C 0.24237 0.02332 0.93196 0.0
C2346 C 0.24339 0.05864 0.94679 0.0
C2347 C 0.24647 0.07498 0.93649 0.0
C2348 C 0.25985 0.09096 0.94387 0.0
C2349 C 0.27059 0.09014 0.96212 0.0
C2350 C 0.26769 0.07357 0.97316 0.0
C2351 C 0.25325 0.058 0.96547 0.0
H2352 H 0.51435 0.741 0.42504 0.0
H2353 H 0.51499 0.67782 0.41119 0.0
H2354 H 0.48388 0.672 0.42649 0.0
H2355 H 0.49484 0.73846 0.47211 0.0
H2356 H 0.47941 0.75836 0.46935 0.0
H2357 H 0.50178 0.75796 0.45715 0.0
H2358 H 0.48196 0.75993 0.42341 0.0
H2359 H 0.4596 0.76066 0.43557 0.0
H2360 H 0.46117 0.74204 0.41552 0.0
H2361 H 0.45365 0.67263 0.4445 0.0
H2362 H 0.42365 0.68012 0.46054 0.0
H2363 H 0.4413 0.74276 0.46167 0.0
C2364 C 0.5078 0.72598 0.42506 0.0
C2365 C 0.51728 0.70983 0.41717 0.0
C2366 C 0.50825 0.69038 0.41752 0.0
C2367 C 0.49055 0.68691 0.42614 0.0
C2368 C 0.48191 0.70304 0.43433 0.0
C2369 C 0.49002 0.72222 0.43364 0.0
C2370 C 0.47746 0.73685 0.44339 0.0
C2371 C 0.48907 0.7486 0.46158 0.0
C2372 C 0.46958 0.75068 0.42858 0.0
C2373 C 0.46098 0.72287 0.44938 0.0
C2374 C 0.46405 0.70343 0.4443 0.0
C2375 C 0.45105 0.68779 0.44854 0.0
C2376 C 0.43418 0.69215 0.45781 0.0
C2377 C 0.43035 0.71195 0.46246 0.0
C2378 C 0.44403 0.72749 0.45836 0.0
H2379 H 0.8935 0.21873 0.03002 0.0
H2380 H 0.86758 0.24753 0.07929 0.0
H2381 H 0.90072 0.26142 0.09386 0.0
H2382 H 0.93949 0.20749 0.05951 0.0
H2383 H 0.95444 0.21197 0.03955 0.0
H2384 H 0.92892 0.20241 0.03428 0.0
H2385 H 0.92273 0.23145 0.01324 0.0
H2386 H 0.94811 0.24127 0.01863 0.0
H2387 H 0.92863 0.25647 0.02424 0.0
H2388 H 0.93535 0.27679 0.09968 0.0
H2389 H 0.96988 0.28969 0.09862 0.0
H2390 H 0.97435 0.24748 0.04801 0.0
C2391 C 0.89495 0.22752 0.04413 0.0
C2392 C 0.87815 0.23199 0.05368 0.0
C2393 C 0.8804 0.24373 0.07198 0.0
C2394 C 0.89911 0.25173 0.08031 0.0
C2395 C 0.9154 0.24748 0.07032 0.0
C2396 C 0.91358 0.23529 0.05287 0.0
C2397 C 0.93337 0.23385 0.04468 0.0
C2398 C 0.93941 0.21267 0.04451 0.0
C2399 C 0.93319 0.2412 0.02398 0.0
C2400 C 0.94639 0.24778 0.05982 0.0
C2401 C 0.93574 0.25552 0.07443 0.0
C2402 C 0.94407 0.27035 0.08873 0.0
C2403 C 0.96383 0.2775 0.08805 0.0
C2404 C 0.97523 0.26961 0.07335 0.0
C2405 C 0.96629 0.2542 0.05936 0.0
H2406 H 0.11617 0.72531 0.57592 0.0
H2407 H 0.09649 0.78372 0.58711 0.0
H2408 H 0.07177 0.77676 0.55832 0.0
H2409 H 0.11119 0.72215 0.52404 0.0
H2410 H 0.10167 0.69651 0.52059 0.0
H2411 H 0.11769 0.70572 0.54234 0.0
H2412 H 0.09134 0.69322 0.56468 0.0
H2413 H 0.07543 0.68356 0.54298 0.0
H2414 H 0.06663 0.70054 0.56117 0.0
H2415 H 0.05031 0.76409 0.52715 0.0
H2416 H 0.03057 0.74472 0.49866 0.0
H2417 H 0.06326 0.69434 0.50896 0.0
C2418 C 0.10645 0.73653 0.5726 0.0
C2419 C 0.10856 0.7552 0.58367 0.0
C2420 C 0.09555 0.76948 0.5786 0.0
C2421 C 0.08139 0.76566 0.56231 0.0
C2422 C 0.08019 0.74737 0.55135 0.0
C2423 C 0.09207 0.73288 0.55653 0.0
C2424 C 0.0875 0.71431 0.54253 0.0
C2425 C 0.10559 0.7094 0.53174 0.0
C2426 C 0.07976 0.69688 0.5535 0.0
C2427 C 0.0714 0.72074 0.52854 0.0
C2428 C 0.06748 0.7399 0.53377 0.0
C2429 C 0.0532 0.74904 0.52295 0.0
C2430 C 0.04222 0.73806 0.5067 0.0
C2431 C 0.04553 0.71818 0.50167 0.0
C2432 C 0.06054 0.70958 0.51253 0.0
H2433 H 0.52755 0.31222 0.96433 0.0
H2434 H 0.50525 0.31773 0.02189 0.0
H2435 H 0.5391 0.31774 0.03793 0.0
H2436 H 0.56284 0.28016 0.97447 0.0
H2437 H 0.5817 0.2913 0.96091 0.0
H2438 H 0.55609 0.29364 0.95373 0.0
H2439 H 0.5628 0.3318 0.9571 0.0
H2440 H 0.58854 0.32955 0.9639 0.0
H2441 H 0.57473 0.34433 0.97988 0.0
H2442 H 0.57376 0.31192 0.04724 0.0
H2443 H 0.60882 0.30596 0.04997 0.0
H2444 H 0.60969 0.30816 0.98658 0.0
C2445 C 0.53001 0.3139 0.98029 0.0
C2446 C 0.51411 0.31504 0.99203 0.0
C2447 C 0.5175 0.31702 0.01283 0.0
C2448 C 0.53657 0.31698 0.02201 0.0
C2449 C 0.55198 0.31533 0.01009 0.0
C2450 C 0.54906 0.31435 0.98972 0.0
C2451 C 0.56824 0.31236 0.98046 0.0
C2452 C 0.56714 0.29323 0.96658 0.0
C2453 C 0.57391 0.3306 0.9697 0.0
C2454 C 0.58213 0.31148 0.99876 0.0
C2455 C 0.57242 0.31316 0.01566 0.0
C2456 C 0.58174 0.31122 0.0342 0.0
C2457 C 0.6017 0.3079 0.03558 0.0
C2458 C 0.61224 0.30694 0.01855 0.0
C2459 C 0.60218 0.3087 0.99991 0.0
H2460 H 0.42389 0.50968 0.74274 0.0
H2461 H 0.43886 0.52886 0.68648 0.0
H2462 H 0.45527 0.49851 0.67977 0.0
H2463 H 0.46928 0.48742 0.75443 0.0
H2464 H 0.45732 0.4671 0.76546 0.0
H2465 H 0.44688 0.49048 0.7661 0.0
H2466 H 0.41366 0.47313 0.7493 0.0
H2467 H 0.42399 0.44971 0.74873 0.0
H2468 H 0.4134 0.45809 0.72622 0.0
H2469 H 0.46924 0.46564 0.6786 0.0
H2470 H 0.47907 0.43219 0.68286 0.0
H2471 H 0.45637 0.43489 0.74044 0.0
C2472 C 0.43061 0.50746 0.72902 0.0
C2473 C 0.43026 0.52177 0.71523 0.0
C2474 C 0.43926 0.51831 0.69744 0.0
C2475 C 0.44855 0.50107 0.69344 0.0
C2476 C 0.44884 0.48739 0.70741 0.0
C2477 C 0.44012 0.49035 0.72484 0.0
C2478 C 0.44242 0.47318 0.73726 0.0
C2479 C 0.45471 0.47996 0.75698 0.0
C2480 C 0.42216 0.46292 0.74056 0.0
C2481 C 0.45358 0.46007 0.72397 0.0
C2482 C 0.45716 0.46854 0.70684 0.0
C2483 C 0.46668 0.45892 0.69205 0.0
C2484 C 0.47239 0.43997 0.69468 0.0
C2485 C 0.46857 0.43082 0.71198 0.0
C2486 C 0.45937 0.44131 0.72693 0.0
H2487 H 0.04028 0.88587 0.20679 0.0
H2488 H 0.07327 0.85214 0.24691 0.0
H2489 H 0.0878 0.88317 0.26597 0.0
H2490 H 0.07845 0.9283 0.2079 0.0
H2491 H 0.06017 0.94582 0.20711 0.0
H2492 H 0.05428 0.92112 0.19528 0.0
H2493 H 0.02409 0.91651 0.21561 0.0
H2494 H 0.02982 0.94116 0.22735 0.0
H2495 H 0.02767 0.92061 0.24216 0.0
H2496 H 0.09599 0.91754 0.28249 0.0
H2497 H 0.09534 0.95211 0.29627 0.0
H2498 H 0.05804 0.96341 0.24461 0.0
C2499 C 0.05098 0.88501 0.21926 0.0
C2500 C 0.05575 0.8666 0.2253 0.0
C2501 C 0.06933 0.86609 0.24209 0.0
C2502 C 0.07782 0.88364 0.25288 0.0
C2503 C 0.07268 0.90155 0.24659 0.0
C2504 C 0.05957 0.90234 0.23016 0.0
C2505 C 0.05506 0.92331 0.22752 0.0
C2506 C 0.06244 0.93003 0.20831 0.0
C2507 C 0.03285 0.92551 0.22821 0.0
C2508 C 0.06713 0.93411 0.24543 0.0
C2509 C 0.07747 0.92138 0.25608 0.0
C2510 C 0.08829 0.92773 0.27409 0.0
C2511 C 0.08795 0.94743 0.28175 0.0
C2512 C 0.07672 0.96043 0.27146 0.0
C2513 C 0.06683 0.9538 0.25274 0.0
H2514 H 0.57572 0.09544 0.75118 0.0
H2515 H 0.56146 0.14345 0.71642 0.0
H2516 H 0.5293 0.12517 0.70429 0.0
H2517 H 0.55398 0.05637 0.71557 0.0
H2518 H 0.5454 0.04112 0.73393 0.0
H2519 H 0.56698 0.05835 0.73988 0.0
H2520 H 0.55065 0.07402 0.76966 0.0
H2521 H 0.52881 0.05711 0.76344 0.0
H2522 H 0.52687 0.08336 0.76556 0.0
H2523 H 0.49887 0.10119 0.6954 0.0
H2524 H 0.47443 0.07183 0.68795 0.0
H2525 H 0.50839 0.04034 0.72918 0.0
C2526 C 0.56577 0.10218 0.74113 0.0
C2527 C 0.57106 0.1209 0.73481 0.0
C2528 C 0.55779 0.12903 0.72133 0.0
C2529 C 0.5394 0.11887 0.71452 0.0
C2530 C 0.5345 0.10061 0.72137 0.0
C2531 C 0.54741 0.09224 0.73418 0.0
C2532 C 0.53904 0.07204 0.73858 0.0
C2533 C 0.55212 0.05603 0.73156 0.0
C2534 C 0.53617 0.07162 0.76062 0.0
C2535 C 0.51942 0.0703 0.7262 0.0
C2536 C 0.51695 0.08698 0.71648 0.0
C2537 C 0.50048 0.08819 0.70318 0.0
C2538 C 0.48658 0.07161 0.6992 0.0
C2539 C 0.48935 0.05425 0.70852 0.0
C2540 C 0.50567 0.05379 0.72249 0.0
H2541 H 0.9829 0.52766 0.32459 0.0
H2542 H 1.00514 0.50936 0.26883 0.0
H2543 H 0.01548 0.54397 0.26449 0.0
H2544 H 0.9643 0.57305 0.30909 0.0
H2545 H 0.97137 0.58701 0.33263 0.0
H2546 H 0.96512 0.56073 0.33141 0.0
H2547 H 0.99897 0.55672 0.35009 0.0
H2548 H 1.00533 0.58298 0.35132 0.0
H2549 H 0.02132 0.56625 0.34051 0.0
H2550 H 0.02491 0.57957 0.26653 0.0
H2551 H 0.03156 0.61568 0.27428 0.0
H2552 H 1.00269 0.61205 0.32813 0.0
C2553 C 0.9898 0.53104 0.31143 0.0
C2554 C 0.99297 0.5159 0.29689 0.0
C2555 C 1.00216 0.52079 0.2799 0.0
C2556 C 0.00823 0.54037 0.27737 0.0
C2557 C 1.00493 0.55493 0.2919 0.0
C2558 C 0.99582 0.55065 0.30854 0.0
C2559 C 0.99419 0.56933 0.32183 0.0
C2560 C 0.97245 0.57273 0.32385 0.0
C2561 C 1.00564 0.56878 0.34214 0.0
C2562 C 1.004 0.58464 0.31008 0.0
C2563 C 0.01012 0.57588 0.29292 0.0
C2564 C 0.02005 0.58668 0.27981 0.0
C2565 C 0.02377 0.60707 0.28429 0.0
C2566 C 0.01747 0.61634 0.30163 0.0
C2567 C 0.00744 0.6051 0.31471 0.0
H2568 H 0.38721 0.66707 0.33689 0.0
H2569 H 0.37549 0.60853 0.35598 0.0
H2570 H 0.409 0.60089 0.34902 0.0
H2571 H 0.41615 0.65243 0.29678 0.0
H2572 H 0.43324 0.67435 0.30093 0.0
H2573 H 0.4082 0.67526 0.30719 0.0
H2574 H 0.42097 0.6887 0.34304 0.0
H2575 H 0.44604 0.68793 0.33687 0.0
H2576 H 0.43779 0.67513 0.35711 0.0
H2577 H 0.44396 0.59945 0.34 0.0
H2578 H 0.47834 0.60514 0.33118 0.0
H2579 H 0.46761 0.6644 0.31783 0.0
C2580 C 0.39161 0.65258 0.33944 0.0
C2581 C 0.37859 0.63843 0.34706 0.0
C2582 C 0.38517 0.61975 0.35044 0.0
C2583 C 0.40417 0.6152 0.34637 0.0
C2584 C 0.41658 0.62943 0.33888 0.0
C2585 C 0.41061 0.64778 0.33551 0.0
C2586 C 0.42704 0.66058 0.32781 0.0
C2587 C 0.42078 0.66597 0.30694 0.0
C2588 C 0.43333 0.67918 0.34206 0.0
C2589 C 0.44319 0.64661 0.3275 0.0
C2590 C 0.43678 0.62866 0.33382 0.0
C2591 C 0.44911 0.61344 0.33503 0.0
C2592 C 0.46858 0.61676 0.32996 0.0
C2593 C 0.47562 0.63516 0.3239 0.0
C2594 C 0.46261 0.65016 0.3224 0.0
H2595 H 0.13751 0.34882 0.7717 0.0
H2596 H 0.14065 0.2858 0.75893 0.0
H2597 H 0.10509 0.28165 0.74795 0.0
H2598 H 0.0891 0.34464 0.79058 0.0
H2599 H 0.08152 0.36643 0.7801 0.0
H2600 H 0.10728 0.36449 0.78709 0.0
H2601 H 0.11536 0.37081 0.75168 0.0
H2602 H 0.08961 0.3726 0.74453 0.0
H2603 H 0.10291 0.35511 0.73095 0.0
H2604 H 0.06931 0.28418 0.73776 0.0
H2605 H 0.03542 0.29336 0.73035 0.0
H2606 H 0.05475 0.35433 0.75017 0.0
C2607 C 0.1307 0.3341 0.76681 0.0
C2608 C 0.14206 0.31766 0.76603 0.0
C2609 C 0.13247 0.29871 0.75933 0.0
C2610 C 0.11221 0.29616 0.75315 0.0
C2611 C 0.10157 0.31268 0.75382 0.0
C2612 C 0.1104 0.33127 0.76061 0.0
C2613 C 0.09548 0.34652 0.75982 0.0
C2614 C 0.09321 0.35608 0.78064 0.0
C2615 C 0.10118 0.36218 0.74591 0.0
C2616 C 0.07692 0.3336 0.75143 0.0
C2617 C 0.08082 0.31412 0.74808 0.0
C2618 C 0.06611 0.29938 0.74037 0.0
C2619 C 0.0469 0.30465 0.73616 0.0
C2620 C 0.04243 0.32439 0.7396 0.0
C2621 C 0.05772 0.33908 0.74729 0.0
H2622 H 0.79543 0.99235 0.63887 0.0
H2623 H 0.77892 0.00851 0.69769 0.0
H2624 H 0.81336 0.00696 0.71136 0.0
H2625 H 0.83008 0.95837 0.6524 0.0
H2626 H 0.8471 0.96559 0.63497 0.0
H2627 H 0.82114 0.96792 0.62985 0.0
H2628 H 0.8288 1.00505 0.62558 0.0
H2629 H 0.8548 1.00286 0.63068 0.0
H2630 H 0.84297 0.02091 0.64519 0.0
H2631 H 0.84967 1.00347 0.71865 0.0
H2632 H 0.88503 0.99854 0.719 0.0
H2633 H 0.87805 0.98534 0.65533 0.0
C2634 C 0.79906 0.99577 0.65461 0.0
C2635 C 0.7844 1.00051 0.6672 0.0
C2636 C 0.78979 1.00457 0.68776 0.0
C2637 C 0.80935 1.00384 0.69566 0.0
C2638 C 0.82339 0.99906 0.68282 0.0
C2639 C 0.8185 0.99513 0.66273 0.0
C2640 C 0.83638 0.9904 0.65214 0.0
C2641 C 0.83349 0.96932 0.64173 0.0
C2642 C 0.84101 1.00572 0.63754 0.0
C2643 C 0.85207 0.99216 0.66943 0.0
C2644 C 0.84429 0.99719 0.687 0.0
C2645 C 0.85593 0.99955 0.70498 0.0
C2646 C 0.87605 0.99669 0.70501 0.0
C2647 C 0.88433 0.99147 0.68713 0.0
C2648 C 0.87209 0.98926 0.66918 0.0
H2649 H 0.68809 0.99082 0.26799 0.0
H2650 H 0.70149 0.0545 0.27281 0.0
H2651 H 0.66881 0.05884 0.28405 0.0
H2652 H 0.63766 0.98977 0.24981 0.0
H2653 H 0.62927 0.9699 0.2637 0.0
H2654 H 0.65415 0.97174 0.25671 0.0
H2655 H 0.66773 0.97203 0.29335 0.0
H2656 H 0.64284 0.96998 0.30041 0.0
H2657 H 0.66037 0.98995 0.31153 0.0
H2658 H 0.63464 0.05661 0.29418 0.0
H2659 H 0.59992 0.0478 0.30005 0.0
H2660 H 0.60811 0.9857 0.28884 0.0
C2661 C 0.68418 1.00568 0.27143 0.0
C2662 C 0.69743 0.02231 0.26929 0.0
C2663 C 0.69158 0.04149 0.27388 0.0
C2664 C 0.67309 0.04414 0.28056 0.0
C2665 C 0.66051 0.02747 0.28263 0.0
C2666 C 0.66569 0.00861 0.2781 0.0
C2667 C 0.64906 0.99326 0.28105 0.0
C2668 C 0.64213 0.98042 0.26166 0.0
C2669 C 0.65536 0.98055 0.29758 0.0
C2670 C 0.6335 0.00649 0.28725 0.0
C2671 C 0.6406 0.02617 0.28844 0.0
C2672 C 0.62891 0.04126 0.29338 0.0
C2673 C 0.60923 0.03613 0.2967 0.0
C2674 C 0.60144 0.0161 0.29491 0.0
C2675 C 0.61383 1.0011 0.29045 0.0
H2676 H 0.35411 0.38483 0.6231 0.0
H2677 H 0.32609 0.37539 0.67669 0.0
H2678 H 0.31555 0.40904 0.67769 0.0
H2679 H 0.37238 0.43601 0.63769 0.0
H2680 H 0.3682 0.4435 0.61313 0.0
H2681 H 0.37343 0.41854 0.61653 0.0
H2682 H 0.34115 0.40543 0.59494 0.0
H2683 H 0.33572 0.43036 0.59165 0.0
H2684 H 0.31798 0.41368 0.6015 0.0
H2685 H 0.30759 0.44374 0.67282 0.0
H2686 H 0.30468 0.47769 0.66334 0.0
H2687 H 0.3383 0.46512 0.61346 0.0
C2688 C 0.34591 0.38986 0.63515 0.0
C2689 C 0.34075 0.37721 0.64968 0.0
C2690 C 0.32988 0.3845 0.66511 0.0
C2691 C 0.32389 0.40369 0.66588 0.0
C2692 C 0.32892 0.41561 0.65118 0.0
C2693 C 0.33982 0.40906 0.63619 0.0
C2694 C 0.34346 0.425 0.62237 0.0
C2695 C 0.36569 0.43112 0.62245 0.0
C2696 C 0.33401 0.4182 0.60137 0.0
C2697 C 0.3329 0.44148 0.63194 0.0
C2698 C 0.32454 0.43572 0.64851 0.0
C2699 C 0.3141 0.44842 0.65989 0.0
C2700 C 0.31245 0.46762 0.65439 0.0
C2701 C 0.32126 0.47399 0.63774 0.0
C2702 C 0.33138 0.46062 0.62625 0.0
H2703 H 0.27124 0.68687 0.99666 0.0
H2704 H 0.28465 0.7062 0.059 0.0
H2705 H 0.29565 0.67367 0.0648 0.0
H2706 H 0.25328 0.63791 1.00105 0.0
H2707 H 0.26477 0.62741 0.98029 0.0
H2708 H 0.2584 0.65247 0.98095 0.0
H2709 H 0.29465 0.66489 0.97685 0.0
H2710 H 0.30096 0.63973 0.97559 0.0
H2711 H 0.31433 0.65817 0.99346 0.0
H2712 H 0.30404 0.63868 0.06415 0.0
H2713 H 0.3088 0.60337 0.05697 0.0
H2714 H 0.29127 0.60712 0.99499 0.0
C2715 C 0.27664 0.6844 0.01152 0.0
C2716 C 0.27671 0.69914 0.02742 0.0
C2717 C 0.28386 0.69507 0.04663 0.0
C2718 C 0.29042 0.67669 0.05006 0.0
C2719 C 0.29008 0.66255 0.03408 0.0
C2720 C 0.28348 0.6662 0.01519 0.0
C2721 C 0.28452 0.64838 1.00063 0.0
C2722 C 0.26402 0.64111 0.99012 0.0
C2723 C 0.29953 0.65304 0.98574 0.0
C2724 C 0.29184 0.63384 0.01444 0.0
C2725 C 0.29528 0.64244 0.03364 0.0
C2726 C 0.30159 0.63182 0.04915 0.0
C2727 C 0.30424 0.61182 0.04495 0.0
C2728 C 0.30054 0.60267 0.02543 0.0
C2729 C 0.2944 0.61389 0.01 0.0
H2730 H 0.76519 0.12989 0.29921 0.0
H2731 H 0.78395 0.14289 0.36166 0.0
H2732 H 0.77388 0.10838 0.36714 0.0
H2733 H 0.7221 0.09952 0.3045 0.0
H2734 H 0.7245 0.08268 0.28321 0.0
H2735 H 0.73502 0.10782 0.28434 0.0
H2736 H 0.7691 0.09514 0.27849 0.0
H2737 H 0.75835 0.07004 0.27782 0.0
H2738 H 0.77948 0.07865 0.29494 0.0
H2739 H 0.75848 0.07327 0.36648 0.0
H2740 H 0.73946 0.04052 0.3595 0.0
H2741 H 0.73087 0.05015 0.29762 0.0
C2742 C 0.76733 0.12547 0.31403 0.0
C2743 C 0.77548 0.13923 0.32997 0.0
C2744 C 0.77809 0.13267 0.3491 0.0
C2745 C 0.77232 0.11306 0.3524 0.0
C2746 C 0.76406 0.10001 0.33642 0.0
C2747 C 0.7617 0.10592 0.31758 0.0
C2748 C 0.75158 0.08926 0.30312 0.0
C2749 C 0.73214 0.09518 0.29323 0.0
C2750 C 0.76547 0.0829 0.28768 0.0
C2751 C 0.74787 0.07331 0.31688 0.0
C2752 C 0.75542 0.07972 0.336 0.0
C2753 C 0.75283 0.06799 0.3515 0.0
C2754 C 0.74205 0.04937 0.34741 0.0
C2755 C 0.73405 0.04255 0.32795 0.0
C2756 C 0.73718 0.05472 0.31254 0.0
H2757 H 0.66638 0.79377 0.01633 0.0
H2758 H 0.65248 0.77832 0.95346 0.0
H2759 H 0.66161 0.81288 0.94726 0.0
H2760 H 0.64621 0.83962 0.01781 0.0
H2761 H 0.66471 0.85228 0.03604 0.0
H2762 H 0.65905 0.82599 0.03551 0.0
H2763 H 0.69586 0.8208 0.03253 0.0
H2764 H 0.70166 0.84712 0.03311 0.0
H2765 H 0.70825 0.83099 0.0129 0.0
H2766 H 0.67033 0.84924 0.9479 0.0
H2767 H 0.67733 0.88543 0.95557 0.0
H2768 H 0.68512 0.87769 0.01797 0.0
C2769 C 0.66569 0.79764 1.00126 0.0
C2770 C 0.65886 0.78341 0.98534 0.0
C2771 C 0.65767 0.78905 0.96584 0.0
C2772 C 0.66289 0.8086 0.96217 0.0
C2773 C 0.66924 0.82238 0.97818 0.0
C2774 C 0.67068 0.81719 0.99735 0.0
C2775 C 0.6767 0.83517 0.01195 0.0
C2776 C 0.66071 0.83845 0.02616 0.0
C2777 C 0.69681 0.83341 0.02329 0.0
C2778 C 0.67809 0.85125 0.99801 0.0
C2779 C 0.67391 0.84351 0.97858 0.0
C2780 C 0.67369 0.85549 0.96305 0.0
C2781 C 0.67761 0.87596 0.96751 0.0
C2782 C 0.68145 0.88423 0.98731 0.0
C2783 C 0.68206 0.87167 1.00271 0.0
H2784 H 0.66616 0.36554 0.39532 0.0
H2785 H 0.60466 0.35234 0.37241 0.0
H2786 H 0.59703 0.34003 0.40405 0.0
H2787 H 0.66886 0.32204 0.42177 0.0
H2788 H 0.68507 0.33458 0.44207 0.0
H2789 H 0.68569 0.34284 0.41776 0.0
H2790 H 0.67934 0.37787 0.43158 0.0
H2791 H 0.67854 0.36977 0.45592 0.0
H2792 H 0.65805 0.38131 0.44498 0.0
H2793 H 0.59601 0.32898 0.43842 0.0
H2794 H 0.60175 0.32113 0.4731 0.0
H2795 H 0.66393 0.34035 0.47311 0.0
C2796 C 0.65108 0.35999 0.39685 0.0
C2797 C 0.63601 0.36011 0.38123 0.0
C2798 C 0.61645 0.35288 0.38415 0.0
C2799 C 0.61198 0.34562 0.40204 0.0
C2800 C 0.62722 0.34554 0.41697 0.0
C2801 C 0.64637 0.35256 0.41457 0.0
C2802 C 0.66005 0.35078 0.4329 0.0
C2803 C 0.67585 0.33672 0.42835 0.0
C2804 C 0.66954 0.37117 0.44187 0.0
C2805 C 0.64555 0.34194 0.44611 0.0
C2806 C 0.62669 0.3389 0.4366 0.0
C2807 C 0.61075 0.33119 0.44595 0.0
C2808 C 0.61412 0.3267 0.46559 0.0
C2809 C 0.63329 0.32982 0.47565 0.0
C2810 C 0.64917 0.3375 0.46569 0.0
H2811 H 0.02553 0.28194 0.69695 0.0
H2812 H 0.96232 0.26654 0.6943 0.0
H2813 H 0.95892 0.27422 0.65945 0.0
H2814 H 0.02238 0.3234 0.66742 0.0
H2815 H 0.04467 0.31888 0.65616 0.0
H2816 H 0.04162 0.31198 0.68067 0.0
H2817 H 0.04818 0.27603 0.66903 0.0
H2818 H 0.0509 0.28296 0.6445 0.0
H2819 H 0.03304 0.26293 0.64826 0.0
H2820 H 0.96263 0.28342 0.62482 0.0
H2821 H 0.97329 0.29271 0.59278 0.0
H2822 H 0.03385 0.30317 0.6188 0.0
C2823 C 0.01099 0.27998 0.68902 0.0
C2824 C 0.99419 0.27344 0.69826 0.0
C2825 C 0.97538 0.27144 0.68744 0.0
C2826 C 0.97332 0.27582 0.6677 0.0
C2827 C 0.99016 0.28254 0.65915 0.0
C2828 C 0.00863 0.28466 0.6695 0.0
C2829 C 0.02437 0.29239 0.65705 0.0
C2830 C 0.03382 0.31288 0.66586 0.0
C2831 C 0.04004 0.2777 0.65456 0.0
C2832 C 0.01198 0.29369 0.63783 0.0
C2833 C 0.99225 0.28814 0.63939 0.0
C2834 C 0.97801 0.28786 0.62344 0.0
C2835 C 0.98416 0.29315 0.60536 0.0
C2836 C 1.00432 0.29862 0.60342 0.0
C2837 C 0.01833 0.29908 0.61993 0.0
H2838 H 0.3317 0.74215 0.13253 0.0
H2839 H 0.30718 0.79863 0.13068 0.0
H2840 H 0.30408 0.79416 0.09431 0.0
H2841 H 0.35995 0.74665 0.09069 0.0
H2842 H 0.35553 0.72086 0.08183 0.0
H2843 H 0.35561 0.72839 0.10777 0.0
H2844 H 0.32099 0.71027 0.10749 0.0
H2845 H 0.32002 0.70315 0.08138 0.0
H2846 H 0.30095 0.71679 0.09122 0.0
H2847 H 0.30554 0.78481 0.0584 0.0
H2848 H 0.31058 0.77069 0.02494 0.0
H2849 H 0.33224 0.71918 0.04905 0.0
C2850 C 0.32548 0.75349 0.12448 0.0
C2851 C 0.31974 0.77081 0.1346 0.0
C2852 C 0.31196 0.78539 0.1234 0.0
C2853 C 0.31001 0.78292 0.10269 0.0
C2854 C 0.31585 0.76575 0.09324 0.0
C2855 C 0.32346 0.75128 0.10372 0.0
C2856 C 0.32905 0.73447 0.08981 0.0
C2857 C 0.35136 0.73248 0.0927 0.0
C2858 C 0.31702 0.71501 0.09262 0.0
C2859 C 0.32329 0.74172 0.06985 0.0
C2860 C 0.31582 0.75988 0.07229 0.0
C2861 C 0.31087 0.77037 0.05629 0.0
C2862 C 0.31361 0.76216 0.03731 0.0
C2863 C 0.32071 0.74338 0.03422 0.0
C2864 C 0.32587 0.73313 0.05082 0.0
H2865 H 0.98829 0.67973 0.78807 0.0
H2866 H 0.99892 0.61843 0.79265 0.0
H2867 H 1.00067 0.62403 0.82888 0.0
H2868 H 0.02115 0.69984 0.83242 0.0
H2869 H 1.00501 0.71829 0.83933 0.0
H2870 H 1.00586 0.70991 0.81368 0.0
H2871 H 0.96803 0.70063 0.81023 0.0
H2872 H 0.96707 0.70898 0.83582 0.0
H2873 H 0.95746 0.68416 0.82661 0.0
H2874 H 0.99939 0.63547 0.86428 0.0
H2875 H 0.99476 0.65214 0.89688 0.0
H2876 H 0.98512 0.70612 0.86989 0.0
C2877 C 0.99132 0.66758 0.79671 0.0
C2878 C 0.99334 0.6486 0.78747 0.0
C2879 C 0.99701 0.63302 0.79934 0.0
C2880 C 0.99821 0.63609 0.81996 0.0
C2881 C 0.99588 0.65487 0.82858 0.0
C2882 C 0.99258 0.6704 0.8174 0.0
C2883 C 0.98981 0.6889 0.83045 0.0
C2884 C 1.00645 0.7052 0.82887 0.0
C2885 C 0.96937 0.69608 0.82548 0.0
C2886 C 0.99144 0.68115 0.85062 0.0
C2887 C 0.99524 0.66155 0.84918 0.0
C2888 C 0.99672 0.6509 0.86565 0.0
C2889 C 0.99412 0.66049 0.88409 0.0
C2890 C 0.99011 0.68053 0.88596 0.0
C2891 C 0.98871 0.69095 0.86895 0.0
H2892 H 0.62451 0.34231 0.66696 0.0
H2893 H 0.63975 0.40485 0.66321 0.0
H2894 H 0.60693 0.41189 0.67292 0.0
H2895 H 0.57171 0.34187 0.64915 0.0
H2896 H 0.56391 0.32428 0.66578 0.0
H2897 H 0.5879 0.32384 0.65667 0.0
H2898 H 0.60433 0.32704 0.69257 0.0
H2899 H 0.58044 0.32745 0.70178 0.0
H2900 H 0.59938 0.3473 0.7096 0.0
H2901 H 0.57335 0.41259 0.68547 0.0
H2902 H 0.5419 0.40674 0.70065 0.0
H2903 H 0.54838 0.34398 0.69671 0.0
C2904 C 0.62092 0.35748 0.66806 0.0
C2905 C 0.6348 0.373 0.66415 0.0
C2906 C 0.62936 0.39263 0.66572 0.0
C2907 C 0.61072 0.39681 0.67131 0.0
C2908 C 0.5975 0.38122 0.6752 0.0
C2909 C 0.60231 0.36193 0.67357 0.0
C2910 C 0.58572 0.348 0.67945 0.0
C2911 C 0.57678 0.33365 0.66171 0.0
C2912 C 0.5929 0.3368 0.69689 0.0
C2913 C 0.57122 0.36257 0.68545 0.0
C2914 C 0.57816 0.38163 0.68256 0.0
C2915 C 0.5677 0.39771 0.68765 0.0
C2916 C 0.54988 0.39428 0.69623 0.0
C2917 C 0.54277 0.37497 0.69984 0.0
C2918 C 0.55344 0.3589 0.69402 0.0
H2919 H 0.87653 0.66177 0.2586 0.0
H2920 H 0.87565 0.71689 0.23144 0.0
H2921 H 0.912 0.72199 0.23691 0.0
H2922 H 0.91592 0.67807 0.29637 0.0
H2923 H 0.92688 0.65495 0.29517 0.0
H2924 H 0.90077 0.65528 0.28879 0.0
H2925 H 0.90393 0.63682 0.25462 0.0
H2926 H 0.93004 0.63635 0.26093 0.0
H2927 H 0.92136 0.6469 0.23888 0.0
H2928 H 0.9485 0.72045 0.24379 0.0
H2929 H 0.98264 0.7132 0.25339 0.0
H2930 H 0.96048 0.66051 0.27838 0.0
C2931 C 0.884 0.67486 0.25371 0.0
C2932 C 0.87314 0.68898 0.24464 0.0
C2933 C 0.88354 0.70599 0.23863 0.0
C2934 C 0.90423 0.70897 0.24158 0.0
C2935 C 0.91444 0.69487 0.25068 0.0
C2936 C 0.90471 0.67818 0.25673 0.0
C2937 C 0.91931 0.66548 0.26635 0.0
C2938 C 0.91549 0.66333 0.28796 0.0
C2939 C 0.91861 0.64519 0.25449 0.0
C2940 C 0.93872 0.67775 0.26494 0.0
C2941 C 0.93552 0.69451 0.25559 0.0
C2942 C 0.95113 0.70761 0.25152 0.0
C2943 C 0.97047 0.70354 0.25721 0.0
C2944 C 0.97419 0.68688 0.2674 0.0
C2945 C 0.95804 0.67372 0.27117 0.0
H2946 H 0.22028 1.00427 0.32164 0.0
H2947 H 0.2246 0.03164 0.38177 0.0
H2948 H 0.19021 0.04011 0.37674 0.0
H2949 H 0.19102 0.03877 0.29944 0.0
H2950 H 0.17604 0.02045 0.2827 0.0
H2951 H 0.20092 0.0162 0.29107 0.0
H2952 H 0.18805 0.98329 0.30387 0.0
H2953 H 0.16312 0.98741 0.29548 0.0
H2954 H 0.16927 0.98334 0.3209 0.0
H2955 H 0.1558 0.04641 0.36503 0.0
H2956 H 0.12299 0.04913 0.34751 0.0
H2957 H 0.14054 0.01708 0.29528 0.0
C2958 C 0.21395 0.01207 0.33369 0.0
C2959 C 0.22505 0.01731 0.35209 0.0
C2960 C 0.21626 0.02734 0.36762 0.0
C2961 C 0.19678 0.03228 0.36488 0.0
C2962 C 0.18623 0.02694 0.34657 0.0
C2963 C 0.19441 0.01692 0.33128 0.0
C2964 C 0.17972 0.01273 0.31316 0.0
C2965 C 0.18739 0.02263 0.29555 0.0
C2966 C 0.17475 0.99036 0.30806 0.0
C2967 C 0.1622 0.02235 0.32053 0.0
C2968 C 0.16627 0.03043 0.33986 0.0
C2969 C 0.15244 0.04019 0.34987 0.0
C2970 C 0.13394 0.04175 0.33984 0.0
C2971 C 0.12951 0.03369 0.32002 0.0
C2972 C 0.14375 0.02369 0.31034 0.0
H2973 H 0.31324 0.02809 0.73206 0.0
H2974 H 0.3035 0.96536 0.73812 0.0
H2975 H 0.33802 0.96144 0.73175 0.0
H2976 H 0.34309 0.02774 0.69461 0.0
H2977 H 0.35949 0.04886 0.70509 0.0
H2978 H 0.33461 0.04616 0.71176 0.0
H2979 H 0.34969 0.04924 0.74853 0.0
H2980 H 0.37432 0.05074 0.74074 0.0
H2981 H 0.36668 0.03198 0.75624 0.0
H2982 H 0.37104 0.96327 0.71821 0.0
H2983 H 0.40146 0.97153 0.70209 0.0
H2984 H 0.39105 0.03336 0.70781 0.0
C2985 C 0.31855 0.01366 0.73278 0.0
C2986 C 0.30548 0.99693 0.73508 0.0
C2987 C 0.31306 0.9783 0.73583 0.0
C2988 C 0.33272 0.97594 0.73242 0.0
C2989 C 0.34492 0.99252 0.72913 0.0
C2990 C 0.33833 0.01114 0.72996 0.0
C2991 C 0.35435 0.02639 0.72532 0.0
C2992 C 0.34739 0.03794 0.70815 0.0
C2993 C 0.3617 0.04041 0.74381 0.0
C2994 C 0.37007 0.01316 0.71963 0.0
C2995 C 0.36456 0.99371 0.72242 0.0
C2996 C 0.37577 0.97851 0.71646 0.0
C2997 C 0.39292 0.98328 0.70722 0.0
C2998 C 0.39857 1.00303 0.70385 0.0
C2999 C 0.38718 0.01816 0.71048 0.0
H3000 H 0.67271 0.63232 0.38784 0.0
H3001 H 0.66029 0.62352 0.32418 0.0
H3002 H 0.6704 0.58964 0.32441 0.0
H3003 H 0.71562 0.60741 0.39077 0.0
H3004 H 0.7109 0.59652 0.41322 0.0
H3005 H 0.70109 0.6194 0.40825 0.0
H3006 H 0.66581 0.60398 0.41226 0.0
H3007 H 0.67553 0.58102 0.41729 0.0
H3008 H 0.65624 0.5814 0.39763 0.0
H3009 H 0.68398 0.55729 0.33137 0.0
H3010 H 0.70035 0.52949 0.34457 0.0
H3011 H 0.70378 0.55923 0.4036 0.0
C3012 C 0.67175 0.62314 0.37399 0.0
C3013 C 0.66571 0.63066 0.35598 0.0
C3014 C 0.66506 0.61822 0.33814 0.0
C3015 C 0.67065 0.59888 0.33814 0.0
C3016 C 0.67683 0.59206 0.3561 0.0
C3017 C 0.67735 0.60379 0.37372 0.0
C3018 C 0.68553 0.59328 0.39088 0.0
C3019 C 0.70441 0.60484 0.40139 0.0
C3020 C 0.66984 0.58971 0.40537 0.0
C3021 C 0.69 0.574 0.38013 0.0
C3022 C 0.68465 0.57348 0.3601 0.0
C3023 C 0.68802 0.55747 0.34706 0.0
C3024 C 0.69728 0.54175 0.35465 0.0
C3025 C 0.70313 0.5421 0.37508 0.0
C3026 C 0.69924 0.55841 0.38794 0.0
H3027 H 0.72843 0.31475 0.98957 0.0
H3028 H 0.73399 0.30854 0.05235 0.0
H3029 H 0.72835 0.34362 0.05914 0.0
H3030 H 0.75103 0.36786 0.99441 0.0
H3031 H 0.73465 0.37395 0.97419 0.0
H3032 H 0.74257 0.34943 0.97427 0.0
H3033 H 0.7062 0.3349 0.97014 0.0
H3034 H 0.69824 0.35921 0.97015 0.0
H3035 H 0.68951 0.34319 0.98778 0.0
H3036 H 0.71777 0.37783 0.05897 0.0
H3037 H 0.70085 0.40737 0.05177 0.0
H3038 H 0.70185 0.39156 0.9891 0.0
C3039 C 0.72867 0.32085 1.00472 0.0
C3040 C 0.73164 0.3089 0.02043 0.0
C3041 C 0.73209 0.31748 0.04011 0.0
C3042 C 0.72888 0.3374 0.0441 0.0
C3043 C 0.72552 0.34864 0.02825 0.0
C3044 C 0.72556 0.34073 0.00893 0.0
C3045 C 0.72024 0.35563 0.99456 0.0
C3046 C 0.73819 0.3621 0.98372 0.0
C3047 C 0.70247 0.3477 0.97983 0.0
C3048 C 0.71519 0.37231 0.00876 0.0
C3049 C 0.71914 0.36835 0.02815 0.0
C3050 C 0.71466 0.3811 0.04386 0.0
C3051 C 0.70503 0.39779 0.03965 0.0
C3052 C 0.69988 0.40146 0.01989 0.0
C3053 C 0.70565 0.38895 1.00432 0.0
H3054 H 0.26905 0.87331 0.70236 0.0
H3055 H 0.23548 0.86522 0.64486 0.0
H3056 H 0.24476 0.90004 0.63996 0.0
H3057 H 0.25827 0.92451 0.71476 0.0
H3058 H 0.2826 0.93167 0.72694 0.0
H3059 H 0.2718 0.9066 0.72669 0.0
H3060 H 0.30231 0.89394 0.7112 0.0
H3061 H 0.31309 0.91897 0.71141 0.0
H3062 H 0.30948 0.90311 0.68862 0.0
H3063 H 0.2587 0.93592 0.64088 0.0
H3064 H 0.2769 0.9691 0.64728 0.0
H3065 H 0.3037 0.95258 0.70248 0.0
C3066 C 0.26363 0.8788 0.68872 0.0
C3067 C 0.25138 0.86639 0.67408 0.0
C3068 C 0.24453 0.8744 0.65653 0.0
C3069 C 0.24981 0.89419 0.65354 0.0
C3070 C 0.262 0.90593 0.6682 0.0
C3071 C 0.26884 0.89851 0.68545 0.0
C3072 C 0.28235 0.91399 0.69857 0.0
C3073 C 0.27321 0.91951 0.71788 0.0
C3074 C 0.30304 0.90709 0.70268 0.0
C3075 C 0.28269 0.93097 0.68567 0.0
C3076 C 0.27047 0.92625 0.66844 0.0
C3077 C 0.2682 0.93979 0.65441 0.0
C3078 C 0.27863 0.95863 0.65817 0.0
C3079 C 0.29128 0.96375 0.67576 0.0
C3080 C 0.29361 0.94944 0.68932 0.0
H3081 H 0.33085 0.21708 0.99399 0.0
H3082 H 0.37079 0.23683 0.04607 0.0
H3083 H 0.36356 0.20476 0.05947 0.0
H3084 H 0.29422 0.18952 0.01711 0.0
H3085 H 0.2899 0.16955 0.99771 0.0
H3086 H 0.29835 0.19396 0.99208 0.0
H3087 H 0.32822 0.18016 0.97644 0.0
H3088 H 0.31982 0.15569 0.98201 0.0
H3089 H 0.34446 0.16621 0.99074 0.0
H3090 H 0.35149 0.1711 0.06757 0.0
H3091 H 0.33586 0.13732 0.06947 0.0
H3092 H 0.30428 0.13892 0.0119 0.0
C3093 C 0.33797 0.21456 0.00822 0.0
C3094 C 0.35125 0.22932 0.01914 0.0
C3095 C 0.36058 0.22559 0.03757 0.0
C3096 C 0.35657 0.20748 0.04527 0.0
C3097 C 0.34341 0.19318 0.03419 0.0
C3098 C 0.33438 0.19639 0.01598 0.0
C3099 C 0.32114 0.17834 0.00698 0.0
C3100 C 0.29962 0.18314 1.00326 0.0
C3101 C 0.32887 0.16958 0.98792 0.0
C3102 C 0.32356 0.16482 0.02331 0.0
C3103 C 0.33662 0.1736 0.03878 0.0
C3104 C 0.34126 0.16403 0.05555 0.0
C3105 C 0.3323 0.14492 0.05655 0.0
C3106 C 0.31882 0.13571 0.04091 0.0
C3107 C 0.31446 0.14578 0.02409 0.0
H3108 H 0.35649 0.69033 0.63405 0.0
H3109 H 0.37204 0.63069 0.62036 0.0
H3110 H 0.37754 0.63837 0.58646 0.0
H3111 H 0.33024 0.69495 0.58626 0.0
H3112 H 0.33896 0.72062 0.5862 0.0
H3113 H 0.33592 0.71025 0.60925 0.0
H3114 H 0.37242 0.72187 0.62134 0.0
H3115 H 0.37557 0.73228 0.59836 0.0
H3116 H 0.39169 0.71449 0.60661 0.0
H3117 H 0.38278 0.65325 0.5541 0.0
H3118 H 0.38664 0.67383 0.52628 0.0
H3119 H 0.36652 0.72321 0.56079 0.0
C3120 C 0.36076 0.67875 0.62388 0.0
C3121 C 0.36384 0.65987 0.63005 0.0
C3122 C 0.36983 0.64534 0.61622 0.0
C3123 C 0.37287 0.64953 0.59684 0.0
C3124 C 0.36981 0.66831 0.59134 0.0
C3125 C 0.36383 0.68266 0.60447 0.0
C3126 C 0.36191 0.70179 0.59503 0.0
C3127 C 0.34048 0.70722 0.59414 0.0
C3128 C 0.37625 0.71859 0.60599 0.0
C3129 C 0.36787 0.69605 0.57458 0.0
C3130 C 0.37237 0.67667 0.57269 0.0
C3131 C 0.37898 0.66834 0.55534 0.0
C3132 C 0.38104 0.68011 0.53956 0.0
C3133 C 0.37623 0.69994 0.5411 0.0
C3134 C 0.36972 0.70793 0.55895 0.0
H3135 H 0.02164 0.75448 0.32398 0.0
H3136 H 0.97013 0.71547 0.30009 0.0
H3137 H 0.96947 0.70053 0.33175 0.0
H3138 H 0.04588 0.72289 0.35184 0.0
H3139 H 0.05384 0.74029 0.37292 0.0
H3140 H 0.04938 0.74887 0.3489 0.0
H3141 H 0.02437 0.77185 0.36232 0.0
H3142 H 0.02883 0.76342 0.38646 0.0
H3143 H 1.00404 0.76164 0.37461 0.0
H3144 H 0.97653 0.6877 0.36475 0.0
H3145 H 0.98968 0.67916 0.39757 0.0
H3146 H 0.03521 0.72797 0.40086 0.0
C3147 C 0.01008 0.743 0.3256 0.0
C3148 C 0.99607 0.7359 0.30962 0.0
C3149 C 0.98103 0.72099 0.31218 0.0
C3150 C 0.98052 0.71248 0.3301 0.0
C3151 C 0.99475 0.71955 0.34551 0.0
C3152 C 0.00896 0.73481 0.34362 0.0
C3153 C 0.02252 0.73968 0.36249 0.0
C3154 C 0.0442 0.73783 0.35881 0.0
C3155 C 0.01977 0.76037 0.37203 0.0
C3156 C 0.01466 0.72379 0.37472 0.0
C3157 C 0.99841 0.71257 0.3648 0.0
C3158 C 0.98908 0.69653 0.37277 0.0
C3159 C 0.99666 0.69173 0.39131 0.0
C3160 C 0.01348 0.70281 0.40153 0.0
C3161 C 0.02235 0.71924 0.39327 0.0
H3162 H 0.65938 0.23963 0.86673 0.0
H3163 H 0.72277 0.25065 0.86503 0.0
H3164 H 0.72623 0.26244 0.90036 0.0
H3165 H 0.65265 0.28099 0.89676 0.0
H3166 H 0.63451 0.26959 0.91096 0.0
H3167 H 0.63708 0.25929 0.88628 0.0
H3168 H 0.64273 0.22548 0.8992 0.0
H3169 H 0.6401 0.23569 0.92398 0.0
H3170 H 0.66199 0.22404 0.91864 0.0
H3171 H 0.72256 0.27751 0.93387 0.0
H3172 H 0.71202 0.29434 0.96388 0.0
H3173 H 0.65124 0.27212 0.94573 0.0
C3174 C 0.67405 0.24398 0.87393 0.0
C3175 C 0.69081 0.24432 0.86302 0.0
C3176 C 0.70968 0.25052 0.87295 0.0
C3177 C 0.71183 0.25706 0.89309 0.0
C3178 C 0.69501 0.25706 0.90327 0.0
C3179 C 0.67648 0.25048 0.89415 0.0
C3180 C 0.66069 0.25345 0.90825 0.0
C3181 C 0.64534 0.26662 0.90007 0.0
C3182 C 0.65079 0.23347 0.91279 0.0
C3183 C 0.67315 0.26377 0.9263 0.0
C3184 C 0.69294 0.26535 0.92315 0.0
C3185 C 0.70719 0.27586 0.93677 0.0
C3186 C 0.70107 0.28531 0.9539 0.0
C3187 C 0.6809 0.28412 0.95745 0.0
C3188 C 0.66682 0.27284 0.94361 0.0
H3189 H 0.01721 0.36934 0.21992 0.0
H3190 H 0.00681 0.30963 0.23655 0.0
H3191 H 0.01107 0.29643 0.20255 0.0
H3192 H 0.99134 0.3594 0.17009 0.0
H3193 H 0.00868 0.37589 0.1595 0.0
H3194 H 1.00385 0.38067 0.18492 0.0
H3195 H 0.04123 0.38134 0.19571 0.0
H3196 H 0.04616 0.37645 0.17037 0.0
H3197 H 0.05425 0.3604 0.18844 0.0
H3198 H 0.01815 0.28966 0.16733 0.0
H3199 H 0.02699 0.28969 0.13318 0.0
H3200 H 0.03193 0.35381 0.1389 0.0
C3201 C 0.01545 0.35349 0.21635 0.0
C3202 C 0.01173 0.34053 0.23099 0.0
C3203 C 0.00993 0.31987 0.22571 0.0
C3204 C 0.01219 0.31222 0.20639 0.0
C3205 C 0.0161 0.3254 0.19244 0.0
C3206 C 0.01758 0.3456 0.19711 0.0
C3207 C 0.02242 0.35652 0.17946 0.0
C3208 C 1.00557 0.36885 0.17312 0.0
C3209 C 0.04219 0.36943 0.18376 0.0
C3210 C 0.02388 0.33929 0.16428 0.0
C3211 C 0.02005 0.32148 0.17204 0.0
C3212 C 0.02103 0.30351 0.16103 0.0
C3213 C 0.02611 0.30371 0.14157 0.0
C3214 C 0.03017 0.32183 0.13329 0.0
C3215 C 0.02889 0.33978 0.14485 0.0
loop_
_geom_bond_atom_site_label_1
_geom_bond_atom_site_label_2
_geom_bond_distance
_geom_bond_site_symmetry_2
_ccdc_geom_bond_type
C0 C1 1.264 . S
C0 C5 1.479 . S
C0 C10 1.465 . S
C1 C0 1.264 . S
C1 C3 1.339 . S
C1 H28 0.931 . S
C2 C3 1.395 . S
C2 C4 1.320 . S
C3 C1 1.339 . S
C3 C2 1.395 . S
C3 H29 0.929 . S
C4 C2 1.320 . S
C4 C5 1.405 . S
C4 H30 0.930 . S
C5 C0 1.479 . S
C5 C4 1.405 . S
C5 H31 0.931 . S
U6 O7 2.454 . S
U6 O8 2.458 . S
U6 C9 2.984 . S
U6 C10 2.847 . S
U6 C23 2.882 . S
U6 O24 2.441 . S
U6 O25 2.420 . S
U6 O26 2.455 . S
U6 O27 2.449 . S
O7 U6 2.454 . S
O7 C9 1.353 . S
O8 U6 2.458 . S
O8 C9 1.286 . S
C9 U6 2.984 . S
C9 O7 1.353 . S
C9 O8 1.286 . S
C9 C11 1.363 . S
C10 C0 1.465 . S
C10 U6 2.847 . S
C10 O24 1.249 . S
C10 O25 1.202 . S
C11 C9 1.363 . S
C11 C13 1.408 . S
C11 C16 1.342 . S
C12 C13 1.310 . S
C12 C15 1.461 . S
C12 H32 0.932 . S
C13 C11 1.408 . S
C13 C12 1.310 . S
C13 H33 0.930 . S
C14 C15 1.474 . S
C14 C16 1.285 . S
C14 H34 0.929 . S
C15 C12 1.461 . S
C15 C14 1.474 . S
C16 C11 1.342 . S
C16 C14 1.285 . S
C16 H35 0.930 . S
C17 C20 1.424 . S
C17 C22 1.245 . S
C17 C23 1.428 . S
C18 C21 1.260 . S
C18 C22 1.477 . S
C18 H36 0.932 . S
C19 C20 1.384 . S
C19 C21 1.479 . S
C19 H37 0.929 . S
C20 C17 1.424 . S
C20 C19 1.384 . S
C20 H38 0.928 . S
C21 C18 1.260 . S
C21 C19 1.479 . S
C22 C17 1.245 . S
C22 C18 1.477 . S
C22 H39 0.932 . S
C23 U6 2.882 . S
C23 C17 1.428 . S
C23 O26 1.301 . S
C23 O27 1.282 . S
O24 U6 2.441 . S
O24 C10 1.249 . S
O25 U6 2.420 . S
O25 C10 1.202 . S
O26 U6 2.455 . S
O26 C23 1.301 . S
O27 U6 2.449 . S
O27 C23 1.282 . S
H28 C1 0.931 . S
H29 C3 0.929 . S
H30 C4 0.930 . S
H31 C5 0.931 . S
H32 C12 0.932 . S
H33 C13 0.930 . S
H34 C14 0.929 . S
H35 C16 0.930 . S
H36 C18 0.932 . S
H37 C19 0.929 . S
H38 C20 0.928 . S
H39 C22 0.932 . S
C40 C41 1.264 . S
C40 C45 1.479 . S
C40 C50 1.465 . S
C41 C40 1.264 . S
C41 C43 1.339 . S
C41 H68 0.931 . S
C42 C43 1.395 . S
C42 C44 1.320 . S
C43 C41 1.339 . S
C43 C42 1.395 . S
C43 H69 0.929 . S
C44 C42 1.320 . S
C44 C45 1.405 . S
C44 H70 0.930 . S
C45 C40 1.479 . S
C45 C44 1.405 . S
C45 H71 0.931 . S
U46 O47 2.454 . S
U46 O48 2.458 . S
U46 C49 2.984 . S
U46 C50 2.847 . S
U46 C63 2.882 . S
U46 O64 2.441 . S
U46 O65 2.420 . S
U46 O66 2.455 . S
U46 O67 2.449 . S
O47 U46 2.454 . S
O47 C49 1.353 . S
O48 U46 2.458 . S
O48 C49 1.286 . S
C49 U46 2.984 . S
C49 O47 1.353 . S
C49 O48 1.286 . S
C49 C51 1.363 . S
C50 C40 1.465 . S
C50 U46 2.847 . S
C50 O64 1.249 . S
C50 O65 1.202 . S
C51 C49 1.363 . S
C51 C53 1.408 . S
C51 C56 1.342 . S
C52 C53 1.310 . S
C52 C55 1.461 . S
C52 H72 0.932 . S
C53 C51 1.408 . S
C53 C52 1.310 . S
C53 H73 0.930 . S
C54 C55 1.474 . S
C54 C56 1.285 . S
C54 H74 0.929 . S
C55 C52 1.461 . S
C55 C54 1.474 . S
C56 C51 1.342 . S
C56 C54 1.285 . S
C56 H75 0.930 . S
C57 C60 1.424 . S
C57 C62 1.245 . S
C57 C63 1.428 . S
C58 C61 1.260 . S
C58 C62 1.477 . S
C58 H76 0.932 . S
C59 C60 1.384 . S
C59 C61 1.479 . S
C59 H77 0.929 . S
C60 C57 1.424 . S
C60 C59 1.384 . S
C60 H78 0.928 . S
C61 C58 1.260 . S
C61 C59 1.479 . S
C62 C57 1.245 . S
C62 C58 1.477 . S
C62 H79 0.932 . S
C63 U46 2.882 . S
C63 C57 1.428 . S
C63 O66 1.301 . S
C63 O67 1.282 . S
O64 U46 2.441 . S
O64 C50 1.249 . S
O65 U46 2.420 . S
O65 C50 1.202 . S
O66 U46 2.455 . S
O66 C63 1.301 . S
O67 U46 2.449 . S
O67 C63 1.282 . S
H68 C41 0.931 . S
H69 C43 0.929 . S
H70 C44 0.930 . S
H71 C45 0.931 . S
H72 C52 0.932 . S
H73 C53 0.930 . S
H74 C54 0.929 . S
H75 C56 0.930 . S
H76 C58 0.932 . S
H77 C59 0.929 . S
H78 C60 0.928 . S
H79 C62 0.932 . S
C80 C81 1.264 . S
C80 C85 1.479 . S
C80 C90 1.465 . S
C81 C80 1.264 . S
C81 C83 1.339 . S
C81 H108 0.931 . S
C82 C83 1.395 . S
C82 C84 1.320 . S
C83 C81 1.339 . S
C83 C82 1.395 . S
C83 H109 0.929 . S
C84 C82 1.320 . S
C84 C85 1.405 . S
C84 H110 0.925 1_565 S
C85 C80 1.479 . S
C85 C84 1.405 . S
C85 H111 0.931 . S
U86 O87 2.454 . S
U86 O88 2.458 . S
U86 C89 2.984 . S
U86 C90 2.847 . S
U86 C103 2.882 . S
U86 O104 2.441 . S
U86 O105 2.420 . S
U86 O106 2.455 . S
U86 O107 2.449 . S
O87 U86 2.454 . S
O87 C89 1.353 . S
O88 U86 2.458 . S
O88 C89 1.286 . S
C89 U86 2.984 . S
C89 O87 1.353 . S
C89 O88 1.286 . S
C89 C91 1.363 . S
C90 C80 1.465 . S
C90 U86 2.847 . S
C90 O104 1.249 . S
C90 O105 1.202 . S
C91 C89 1.363 . S
C91 C93 1.408 . S
C91 C96 1.342 . S
C92 C93 1.310 . S
C92 C95 1.461 . S
C92 H112 0.932 . S
C93 C91 1.408 . S
C93 C92 1.310 . S
C93 H113 0.930 . S
C94 C95 1.473 1_545 S
C94 C96 1.284 1_545 S
C94 H114 0.932 . S
C95 C92 1.461 . S
C95 C94 1.473 1_565 S
C96 C91 1.342 . S
C96 C94 1.284 1_565 S
C96 H115 0.935 . S
C97 C100 1.424 . S
C97 C102 1.245 . S
C97 C103 1.428 . S
C98 C101 1.260 . S
C98 C102 1.477 . S
C98 H116 0.932 . S
C99 C100 1.384 . S
C99 C101 1.479 . S
C99 H117 0.929 . S
C100 C97 1.424 . S
C100 C99 1.384 . S
C100 H118 0.928 . S
C101 C98 1.260 . S
C101 C99 1.479 . S
C102 C97 1.245 . S
C102 C98 1.477 . S
C102 H119 0.932 . S
C103 U86 2.882 . S
C103 C97 1.428 . S
C103 O106 1.301 . S
C103 O107 1.282 . S
O104 U86 2.441 . S
O104 C90 1.249 . S
O105 U86 2.420 . S
O105 C90 1.202 . S
O106 U86 2.455 . S
O106 C103 1.301 . S
O107 U86 2.449 . S
O107 C103 1.282 . S
H108 C81 0.931 . S
H109 C83 0.929 . S
H110 C84 0.925 1_545 S
H111 C85 0.931 . S
H112 C92 0.932 . S
H113 C93 0.930 . S
H114 C94 0.932 . S
H115 C96 0.935 . S
H116 C98 0.932 . S
H117 C99 0.929 . S
H118 C100 0.928 . S
H119 C102 0.932 . S
C120 C121 1.264 . S
C120 C125 1.479 . S
C120 C130 1.465 . S
C121 C120 1.264 . S
C121 C123 1.339 . S
C121 H148 0.931 . S
C122 C123 1.395 . S
C122 C124 1.320 . S
C123 C121 1.339 . S
C123 C122 1.395 . S
C123 H149 0.929 . S
C124 C122 1.320 . S
C124 C125 1.405 . S
C124 H150 0.930 . S
C125 C120 1.479 . S
C125 C124 1.405 . S
C125 H151 0.931 . S
U126 O127 2.454 . S
U126 O128 2.458 . S
U126 C129 2.984 . S
U126 C130 2.847 . S
U126 C143 2.882 . S
U126 O144 2.441 . S
U126 O145 2.420 . S
U126 O146 2.455 . S
U126 O147 2.449 . S
O127 U126 2.454 . S
O127 C129 1.353 . S
O128 U126 2.458 . S
O128 C129 1.286 . S
C129 U126 2.984 . S
C129 O127 1.353 . S
C129 O128 1.286 . S
C129 C131 1.363 . S
C130 C120 1.465 . S
C130 U126 2.847 . S
C130 O144 1.249 . S
C130 O145 1.202 . S
C131 C129 1.363 . S
C131 C133 1.408 . S
C131 C136 1.342 . S
C132 C133 1.310 . S
C132 C135 1.461 . S
C132 H152 0.932 . S
C133 C131 1.408 . S
C133 C132 1.310 . S
C133 H153 0.930 . S
C134 C135 1.474 . S
C134 C136 1.285 . S
C134 H154 0.929 . S
C135 C132 1.461 . S
C135 C134 1.474 . S
C136 C131 1.342 . S
C136 C134 1.285 . S
C136 H155 0.930 . S
C137 C140 1.424 . S
C137 C142 1.245 . S
C137 C143 1.428 1_565 S
C138 C141 1.260 . S
C138 C142 1.477 . S
C138 H156 0.932 . S
C139 C140 1.384 . S
C139 C141 1.479 . S
C139 H157 0.929 . S
C140 C137 1.424 . S
C140 C139 1.384 . S
C140 H158 0.928 . S
C141 C138 1.260 . S
C141 C139 1.479 . S
C142 C137 1.245 . S
C142 C138 1.477 . S
C142 H159 0.932 . S
C143 U126 2.882 . S
C143 C137 1.428 1_545 S
C143 O146 1.301 . S
C143 O147 1.282 . S
O144 U126 2.441 . S
O144 C130 1.249 . S
O145 U126 2.420 . S
O145 C130 1.202 . S
O146 U126 2.455 . S
O146 C143 1.301 . S
O147 U126 2.449 . S
O147 C143 1.282 . S
H148 C121 0.931 . S
H149 C123 0.929 . S
H150 C124 0.930 . S
H151 C125 0.931 . S
H152 C132 0.932 . S
H153 C133 0.930 . S
H154 C134 0.929 . S
H155 C136 0.930 . S
H156 C138 0.932 . S
H157 C139 0.929 . S
H158 C140 0.928 . S
H159 C142 0.932 . S
C160 C161 1.264 . S
C160 C165 1.479 . S
C160 C170 1.465 . S
C161 C160 1.264 . S
C161 C163 1.339 . S
C161 H188 0.931 . S
C162 C163 1.395 . S
C162 C164 1.320 . S
C163 C161 1.339 . S
C163 C162 1.395 . S
C163 H189 0.929 . S
C164 C162 1.320 . S
C164 C165 1.405 . S
C164 H190 0.930 . S
C165 C160 1.479 . S
C165 C164 1.405 . S
C165 H191 0.931 . S
U166 O167 2.454 . S
U166 O168 2.458 . S
U166 C169 2.984 . S
U166 C170 2.847 . S
U166 C183 2.882 . S
U166 O184 2.441 . S
U166 O185 2.420 . S
U166 O186 2.455 . S
U166 O187 2.449 . S
O167 U166 2.454 . S
O167 C169 1.353 . S
O168 U166 2.458 . S
O168 C169 1.286 . S
C169 U166 2.984 . S
C169 O167 1.353 . S
C169 O168 1.286 . S
C169 C171 1.363 . S
C170 C160 1.465 . S
C170 U166 2.847 . S
C170 O184 1.249 . S
C170 O185 1.202 . S
C171 C169 1.363 . S
C171 C173 1.408 . S
C171 C176 1.342 . S
C172 C173 1.310 . S
C172 C175 1.461 . S
C172 H192 0.932 . S
C173 C171 1.408 . S
C173 C172 1.310 . S
C173 H193 0.930 . S
C174 C175 1.474 . S
C174 C176 1.285 . S
C174 H194 0.929 . S
C175 C172 1.461 . S
C175 C174 1.474 . S
C176 C171 1.342 . S
C176 C174 1.285 . S
C176 H195 0.930 . S
C177 C180 1.424 . S
C177 C182 1.245 . S
C177 C183 1.428 . S
C178 C181 1.260 . S
C178 C182 1.477 . S
C178 H196 0.932 . S
C179 C180 1.384 . S
C179 C181 1.479 . S
C179 H197 0.929 . S
C180 C177 1.424 . S
C180 C179 1.384 . S
C180 H198 0.928 . S
C181 C178 1.260 . S
C181 C179 1.479 . S
C182 C177 1.245 . S
C182 C178 1.477 . S
C182 H199 0.932 . S
C183 U166 2.882 . S
C183 C177 1.428 . S
C183 O186 1.301 . S
C183 O187 1.282 . S
O184 U166 2.441 . S
O184 C170 1.249 . S
O185 U166 2.420 . S
O185 C170 1.202 . S
O186 U166 2.455 . S
O186 C183 1.301 . S
O187 U166 2.449 . S
O187 C183 1.282 . S
H188 C161 0.931 . S
H189 C163 0.929 . S
H190 C164 0.930 . S
H191 C165 0.931 . S
H192 C172 0.932 . S
H193 C173 0.930 . S
H194 C174 0.929 . S
H195 C176 0.930 . S
H196 C178 0.932 . S
H197 C179 0.929 . S
H198 C180 0.928 . S
H199 C182 0.932 . S
C200 C201 1.264 . S
C200 C205 1.479 . S
C200 C210 1.465 . S
C201 C200 1.264 . S
C201 C203 1.339 . S
C201 H228 0.931 . S
C202 C203 1.395 . S
C202 C204 1.320 . S
C203 C201 1.339 . S
C203 C202 1.395 . S
C203 H229 0.929 . S
C204 C202 1.320 . S
C204 C205 1.405 . S
C204 H230 0.930 . S
C205 C200 1.479 . S
C205 C204 1.405 . S
C205 H231 0.931 . S
U206 O207 2.454 . S
U206 O208 2.458 . S
U206 C209 2.984 . S
U206 C210 2.847 . S
U206 C223 2.882 . S
U206 O224 2.441 . S
U206 O225 2.420 . S
U206 O226 2.455 . S
U206 O227 2.449 . S
O207 U206 2.454 . S
O207 C209 1.353 . S
O208 U206 2.458 . S
O208 C209 1.286 . S
C209 U206 2.984 . S
C209 O207 1.353 . S
C209 O208 1.286 . S
C209 C211 1.363 . S
C210 C200 1.465 . S
C210 U206 2.847 . S
C210 O224 1.249 . S
C210 O225 1.202 . S
C211 C209 1.363 . S
C211 C213 1.408 . S
C211 C216 1.342 . S
C212 C213 1.310 . S
C212 C215 1.461 . S
C212 H232 0.932 . S
C213 C211 1.408 . S
C213 C212 1.310 . S
C213 H233 0.930 . S
C214 C215 1.474 . S
C214 C216 1.285 . S
C214 H234 0.929 . S
C215 C212 1.461 . S
C215 C214 1.474 . S
C216 C211 1.342 . S
C216 C214 1.285 . S
C216 H235 0.930 . S
C217 C220 1.424 . S
C217 C222 1.245 . S
C217 C223 1.428 1_556 S
C218 C221 1.260 . S
C218 C222 1.477 . S
C218 H236 0.932 . S
C219 C220 1.384 . S
C219 C221 1.479 . S
C219 H237 0.929 . S
C220 C217 1.424 . S
C220 C219 1.384 . S
C220 H238 0.928 . S
C221 C218 1.260 . S
C221 C219 1.479 . S
C222 C217 1.245 . S
C222 C218 1.477 . S
C222 H239 0.932 . S
C223 U206 2.882 . S
C223 C217 1.428 1_554 S
C223 O226 1.301 . S
C223 O227 1.282 . S
O224 U206 2.441 . S
O224 C210 1.249 . S
O225 U206 2.420 . S
O225 C210 1.202 . S
O226 U206 2.455 . S
O226 C223 1.301 . S
O227 U206 2.449 . S
O227 C223 1.282 . S
H228 C201 0.931 . S
H229 C203 0.929 . S
H230 C204 0.930 . S
H231 C205 0.931 . S
H232 C212 0.932 . S
H233 C213 0.930 . S
H234 C214 0.929 . S
H235 C216 0.930 . S
H236 C218 0.932 . S
H237 C219 0.929 . S
H238 C220 0.928 . S
H239 C222 0.932 . S
C240 C241 1.264 . S
C240 C245 1.479 . S
C240 C250 1.465 . S
C241 C240 1.264 . S
C241 C243 1.339 . S
C241 H268 0.931 . S
C242 C243 1.395 . S
C242 C244 1.320 . S
C243 C241 1.339 . S
C243 C242 1.395 . S
C243 H269 0.929 . S
C244 C242 1.320 . S
C244 C245 1.405 . S
C244 H270 0.930 . S
C245 C240 1.479 . S
C245 C244 1.405 . S
C245 H271 0.931 . S
U246 O247 2.454 . S
U246 O248 2.458 . S
U246 C249 2.984 . S
U246 C250 2.847 . S
U246 C263 2.882 . S
U246 O264 2.441 . S
U246 O265 2.420 . S
U246 O266 2.455 . S
U246 O267 2.449 . S
O247 U246 2.454 . S
O247 C249 1.353 . S
O248 U246 2.458 . S
O248 C249 1.286 . S
C249 U246 2.984 . S
C249 O247 1.353 . S
C249 O248 1.286 . S
C249 C251 1.363 . S
C250 C240 1.465 . S
C250 U246 2.847 . S
C250 O264 1.249 . S
C250 O265 1.202 . S
C251 C249 1.363 . S
C251 C253 1.408 . S
C251 C256 1.342 . S
C252 C253 1.310 . S
C252 C255 1.461 . S
C252 H272 0.932 . S
C253 C251 1.408 . S
C253 C252 1.310 . S
C253 H273 0.930 . S
C254 C255 1.474 . S
C254 C256 1.285 . S
C254 H274 0.929 . S
C255 C252 1.461 . S
C255 C254 1.474 . S
C256 C251 1.342 . S
C256 C254 1.285 . S
C256 H275 0.930 . S
C257 C260 1.424 . S
C257 C262 1.245 . S
C257 C263 1.428 . S
C258 C261 1.260 . S
C258 C262 1.477 . S
C258 H276 0.932 . S
C259 C260 1.384 . S
C259 C261 1.479 . S
C259 H277 0.929 . S
C260 C257 1.424 . S
C260 C259 1.384 . S
C260 H278 0.928 . S
C261 C258 1.260 . S
C261 C259 1.479 . S
C262 C257 1.245 . S
C262 C258 1.477 . S
C262 H279 0.932 . S
C263 U246 2.882 . S
C263 C257 1.428 . S
C263 O266 1.301 . S
C263 O267 1.282 . S
O264 U246 2.441 . S
O264 C250 1.249 . S
O265 U246 2.420 . S
O265 C250 1.202 . S
O266 U246 2.455 . S
O266 C263 1.301 . S
O267 U246 2.449 . S
O267 C263 1.282 . S
H268 C241 0.931 . S
H269 C243 0.929 . S
H270 C244 0.930 . S
H271 C245 0.931 . S
H272 C252 0.932 . S
H273 C253 0.930 . S
H274 C254 0.929 . S
H275 C256 0.930 . S
H276 C258 0.932 . S
H277 C259 0.929 . S
H278 C260 0.928 . S
H279 C262 0.932 . S
C280 C281 1.264 . S
C280 C285 1.479 . S
C280 C290 1.465 . S
C281 C280 1.264 . S
C281 C283 1.339 . S
C281 H308 0.931 . S
C282 C283 1.395 . S
C282 C284 1.320 . S
C283 C281 1.339 . S
C283 C282 1.395 . S
C283 H309 0.929 . S
C284 C282 1.320 . S
C284 C285 1.405 . S
C284 H310 0.925 1_556 S
C285 C280 1.479 . S
C285 C284 1.405 . S
C285 H311 0.931 . S
U286 O287 2.454 . S
U286 O288 2.458 . S
U286 C289 2.984 . S
U286 C290 2.847 . S
U286 C303 2.882 . S
U286 O304 2.441 . S
U286 O305 2.420 . S
U286 O306 2.455 . S
U286 O307 2.449 . S
O287 U286 2.454 . S
O287 C289 1.353 . S
O288 U286 2.458 . S
O288 C289 1.286 . S
C289 U286 2.984 . S
C289 O287 1.353 . S
C289 O288 1.286 . S
C289 C291 1.363 . S
C290 C280 1.465 . S
C290 U286 2.847 . S
C290 O304 1.249 . S
C290 O305 1.202 . S
C291 C289 1.363 . S
C291 C293 1.408 . S
C291 C296 1.342 . S
C292 C293 1.310 . S
C292 C295 1.461 . S
C292 H312 0.932 . S
C293 C291 1.408 . S
C293 C292 1.310 . S
C293 H313 0.930 . S
C294 C295 1.473 1_554 S
C294 C296 1.284 1_554 S
C294 H314 0.932 . S
C295 C292 1.461 . S
C295 C294 1.473 1_556 S
C296 C291 1.342 . S
C296 C294 1.284 1_556 S
C296 H315 0.935 . S
C297 C300 1.424 . S
C297 C302 1.245 . S
C297 C303 1.428 . S
C298 C301 1.260 . S
C298 C302 1.477 . S
C298 H316 0.932 . S
C299 C300 1.384 . S
C299 C301 1.479 . S
C299 H317 0.929 . S
C300 C297 1.424 . S
C300 C299 1.384 . S
C300 H318 0.928 . S
C301 C298 1.260 . S
C301 C299 1.479 . S
C302 C297 1.245 . S
C302 C298 1.477 . S
C302 H319 0.932 . S
C303 U286 2.882 . S
C303 C297 1.428 . S
C303 O306 1.301 . S
C303 O307 1.282 . S
O304 U286 2.441 . S
O304 C290 1.249 . S
O305 U286 2.420 . S
O305 C290 1.202 . S
O306 U286 2.455 . S
O306 C303 1.301 . S
O307 U286 2.449 . S
O307 C303 1.282 . S
H308 C281 0.931 . S
H309 C283 0.929 . S
H310 C284 0.925 1_554 S
H311 C285 0.931 . S
H312 C292 0.932 . S
H313 C293 0.930 . S
H314 C294 0.932 . S
H315 C296 0.935 . S
H316 C298 0.932 . S
H317 C299 0.929 . S
H318 C300 0.928 . S
H319 C302 0.932 . S
C320 C321 1.264 . S
C320 C325 1.479 . S
C320 C330 1.465 . S
C321 C320 1.264 . S
C321 C323 1.339 . S
C321 H348 0.931 . S
C322 C323 1.395 . S
C322 C324 1.320 . S
C323 C321 1.339 . S
C323 C322 1.395 . S
C323 H349 0.929 . S
C324 C322 1.320 . S
C324 C325 1.405 . S
C324 H350 0.930 . S
C325 C320 1.479 . S
C325 C324 1.405 . S
C325 H351 0.931 . S
U326 O327 2.454 . S
U326 O328 2.458 . S
U326 C329 2.984 . S
U326 C330 2.847 . S
U326 C343 2.882 . S
U326 O344 2.441 . S
U326 O345 2.420 . S
U326 O346 2.455 . S
U326 O347 2.449 . S
O327 U326 2.454 . S
O327 C329 1.353 . S
O328 U326 2.458 . S
O328 C329 1.286 . S
C329 U326 2.984 . S
C329 O327 1.353 . S
C329 O328 1.286 . S
C329 C331 1.363 . S
C330 C320 1.465 . S
C330 U326 2.847 . S
C330 O344 1.249 . S
C330 O345 1.202 . S
C331 C329 1.363 . S
C331 C333 1.408 . S
C331 C336 1.342 . S
C332 C333 1.310 . S
C332 C335 1.461 . S
C332 H352 0.932 . S
C333 C331 1.408 . S
C333 C332 1.310 . S
C333 H353 0.930 . S
C334 C335 1.474 . S
C334 C336 1.285 . S
C334 H354 0.929 . S
C335 C332 1.461 . S
C335 C334 1.474 . S
C336 C331 1.342 . S
C336 C334 1.285 . S
C336 H355 0.930 . S
C337 C340 1.424 . S
C337 C342 1.245 . S
C337 C343 1.428 . S
C338 C341 1.260 . S
C338 C342 1.477 . S
C338 H356 0.932 . S
C339 C340 1.384 . S
C339 C341 1.479 . S
C339 H357 0.929 . S
C340 C337 1.424 . S
C340 C339 1.384 . S
C340 H358 0.928 . S
C341 C338 1.260 . S
C341 C339 1.479 . S
C342 C337 1.245 . S
C342 C338 1.477 . S
C342 H359 0.932 . S
C343 U326 2.882 . S
C343 C337 1.428 . S
C343 O346 1.301 . S
C343 O347 1.282 . S
O344 U326 2.441 . S
O344 C330 1.249 . S
O345 U326 2.420 . S
O345 C330 1.202 . S
O346 U326 2.455 . S
O346 C343 1.301 . S
O347 U326 2.449 . S
O347 C343 1.282 . S
H348 C321 0.931 . S
H349 C323 0.929 . S
H350 C324 0.930 . S
H351 C325 0.931 . S
H352 C332 0.932 . S
H353 C333 0.930 . S
H354 C334 0.929 . S
H355 C336 0.930 . S
H356 C338 0.932 . S
H357 C339 0.929 . S
H358 C340 0.928 . S
H359 C342 0.932 . S
C360 C361 1.264 . S
C360 C365 1.479 . S
C360 C370 1.465 . S
C361 C360 1.264 . S
C361 C363 1.339 . S
C361 H388 0.931 . S
C362 C363 1.395 . S
C362 C364 1.320 . S
C363 C361 1.339 . S
C363 C362 1.395 . S
C363 H389 0.929 . S
C364 C362 1.320 . S
C364 C365 1.405 . S
C364 H390 0.930 . S
C365 C360 1.479 . S
C365 C364 1.405 . S
C365 H391 0.931 . S
U366 O367 2.454 . S
U366 O368 2.458 . S
U366 C369 2.984 . S
U366 C370 2.847 . S
U366 C383 2.882 . S
U366 O384 2.441 . S
U366 O385 2.420 . S
U366 O386 2.455 . S
U366 O387 2.449 . S
O367 U366 2.454 . S
O367 C369 1.353 . S
O368 U366 2.458 . S
O368 C369 1.286 . S
C369 U366 2.984 . S
C369 O367 1.353 . S
C369 O368 1.286 . S
C369 C371 1.363 . S
C370 C360 1.465 . S
C370 U366 2.847 . S
C370 O384 1.249 . S
C370 O385 1.202 . S
C371 C369 1.363 . S
C371 C373 1.408 . S
C371 C376 1.342 . S
C372 C373 1.310 . S
C372 C375 1.461 . S
C372 H392 0.932 . S
C373 C371 1.408 . S
C373 C372 1.310 . S
C373 H393 0.930 . S
C374 C375 1.474 . S
C374 C376 1.285 . S
C374 H394 0.929 . S
C375 C372 1.461 . S
C375 C374 1.474 . S
C376 C371 1.342 . S
C376 C374 1.285 . S
C376 H395 0.930 . S
C377 C380 1.424 . S
C377 C382 1.245 . S
C377 C383 1.428 1_655 S
C378 C381 1.260 . S
C378 C382 1.477 . S
C378 H396 0.932 . S
C379 C380 1.384 . S
C379 C381 1.479 . S
C379 H397 0.929 . S
C380 C377 1.424 . S
C380 C379 1.384 . S
C380 H398 0.928 . S
C381 C378 1.260 . S
C381 C379 1.479 . S
C382 C377 1.245 . S
C382 C378 1.477 . S
C382 H399 0.932 . S
C383 U366 2.882 . S
C383 C377 1.428 1_455 S
C383 O386 1.301 . S
C383 O387 1.282 . S
O384 U366 2.441 . S
O384 C370 1.249 . S
O385 U366 2.420 . S
O385 C370 1.202 . S
O386 U366 2.455 . S
O386 C383 1.301 . S
O387 U366 2.449 . S
O387 C383 1.282 . S
H388 C361 0.931 . S
H389 C363 0.929 . S
H390 C364 0.930 . S
H391 C365 0.931 . S
H392 C372 0.932 . S
H393 C373 0.930 . S
H394 C374 0.929 . S
H395 C376 0.930 . S
H396 C378 0.932 . S
H397 C379 0.929 . S
H398 C380 0.928 . S
H399 C382 0.932 . S
C400 C401 1.264 . S
C400 C405 1.479 . S
C400 C410 1.465 . S
C401 C400 1.264 . S
C401 C403 1.339 . S
C401 H428 0.931 . S
C402 C403 1.395 . S
C402 C404 1.320 . S
C403 C401 1.339 . S
C403 C402 1.395 . S
C403 H429 0.929 . S
C404 C402 1.320 . S
C404 C405 1.405 . S
C404 H430 0.930 . S
C405 C400 1.479 . S
C405 C404 1.405 . S
C405 H431 0.931 . S
U406 O407 2.454 . S
U406 O408 2.458 . S
U406 C409 2.984 . S
U406 C410 2.847 . S
U406 C423 2.882 . S
U406 O424 2.441 . S
U406 O425 2.420 . S
U406 O426 2.455 . S
U406 O427 2.449 . S
O407 U406 2.454 . S
O407 C409 1.353 . S
O408 U406 2.458 . S
O408 C409 1.286 . S
C409 U406 2.984 . S
C409 O407 1.353 . S
C409 O408 1.286 . S
C409 C411 1.363 . S
C410 C400 1.465 . S
C410 U406 2.847 . S
C410 O424 1.249 . S
C410 O425 1.202 . S
C411 C409 1.363 . S
C411 C413 1.408 . S
C411 C416 1.342 . S
C412 C413 1.310 . S
C412 C415 1.461 . S
C412 H432 0.932 . S
C413 C411 1.408 . S
C413 C412 1.310 . S
C413 H433 0.930 . S
C414 C415 1.474 . S
C414 C416 1.285 . S
C414 H434 0.929 . S
C415 C412 1.461 . S
C415 C414 1.474 . S
C416 C411 1.342 . S
C416 C414 1.285 . S
C416 H435 0.930 . S
C417 C420 1.424 . S
C417 C422 1.245 . S
C417 C423 1.428 . S
C418 C421 1.260 . S
C418 C422 1.477 . S
C418 H436 0.932 . S
C419 C420 1.384 . S
C419 C421 1.479 . S
C419 H437 0.929 . S
C420 C417 1.424 . S
C420 C419 1.384 . S
C420 H438 0.928 . S
C421 C418 1.260 . S
C421 C419 1.479 . S
C422 C417 1.245 . S
C422 C418 1.477 . S
C422 H439 0.932 . S
C423 U406 2.882 . S
C423 C417 1.428 . S
C423 O426 1.301 . S
C423 O427 1.282 . S
O424 U406 2.441 . S
O424 C410 1.249 . S
O425 U406 2.420 . S
O425 C410 1.202 . S
O426 U406 2.455 . S
O426 C423 1.301 . S
O427 U406 2.449 . S
O427 C423 1.282 . S
H428 C401 0.931 . S
H429 C403 0.929 . S
H430 C404 0.930 . S
H431 C405 0.931 . S
H432 C412 0.932 . S
H433 C413 0.930 . S
H434 C414 0.929 . S
H435 C416 0.930 . S
H436 C418 0.932 . S
H437 C419 0.929 . S
H438 C420 0.928 . S
H439 C422 0.932 . S
C440 C441 1.264 . S
C440 C445 1.479 . S
C440 C450 1.465 . S
C441 C440 1.264 . S
C441 C443 1.339 . S
C441 H468 0.931 . S
C442 C443 1.395 . S
C442 C444 1.320 . S
C443 C441 1.339 . S
C443 C442 1.395 . S
C443 H469 0.929 . S
C444 C442 1.320 . S
C444 C445 1.405 . S
C444 H470 0.925 1_655 S
C445 C440 1.479 . S
C445 C444 1.405 . S
C445 H471 0.931 . S
U446 O447 2.454 . S
U446 O448 2.458 . S
U446 C449 2.984 . S
U446 C450 2.847 . S
U446 C463 2.882 . S
U446 O464 2.441 . S
U446 O465 2.420 . S
U446 O466 2.455 . S
U446 O467 2.449 . S
O447 U446 2.454 . S
O447 C449 1.353 . S
O448 U446 2.458 . S
O448 C449 1.286 . S
C449 U446 2.984 . S
C449 O447 1.353 . S
C449 O448 1.286 . S
C449 C451 1.363 . S
C450 C440 1.465 . S
C450 U446 2.847 . S
C450 O464 1.249 . S
C450 O465 1.202 . S
C451 C449 1.363 . S
C451 C453 1.408 . S
C451 C456 1.342 . S
C452 C453 1.310 . S
C452 C455 1.461 . S
C452 H472 0.932 . S
C453 C451 1.408 . S
C453 C452 1.310 . S
C453 H473 0.930 . S
C454 C455 1.473 1_455 S
C454 C456 1.284 1_455 S
C454 H474 0.932 . S
C455 C452 1.461 . S
C455 C454 1.473 1_655 S
C456 C451 1.342 . S
C456 C454 1.284 1_655 S
C456 H475 0.935 . S
C457 C460 1.424 . S
C457 C462 1.245 . S
C457 C463 1.428 . S
C458 C461 1.260 . S
C458 C462 1.477 . S
C458 H476 0.932 . S
C459 C460 1.384 . S
C459 C461 1.479 . S
C459 H477 0.929 . S
C460 C457 1.424 . S
C460 C459 1.384 . S
C460 H478 0.928 . S
C461 C458 1.260 . S
C461 C459 1.479 . S
C462 C457 1.245 . S
C462 C458 1.477 . S
C462 H479 0.932 . S
C463 U446 2.882 . S
C463 C457 1.428 . S
C463 O466 1.301 . S
C463 O467 1.282 . S
O464 U446 2.441 . S
O464 C450 1.249 . S
O465 U446 2.420 . S
O465 C450 1.202 . S
O466 U446 2.455 . S
O466 C463 1.301 . S
O467 U446 2.449 . S
O467 C463 1.282 . S
H468 C441 0.931 . S
H469 C443 0.929 . S
H470 C444 0.925 1_455 S
H471 C445 0.931 . S
H472 C452 0.932 . S
H473 C453 0.930 . S
H474 C454 0.932 . S
H475 C456 0.935 . S
H476 C458 0.932 . S
H477 C459 0.929 . S
H478 C460 0.928 . S
H479 C462 0.932 . S
C480 C481 1.264 . S
C480 C485 1.479 . S
C480 C490 1.465 . S
C481 C480 1.264 . S
C481 C483 1.339 . S
C481 H508 0.931 . S
C482 C483 1.395 . S
C482 C484 1.320 . S
C483 C481 1.339 . S
C483 C482 1.395 . S
C483 H509 0.929 . S
C484 C482 1.320 . S
C484 C485 1.405 . S
C484 H510 0.930 . S
C485 C480 1.479 . S
C485 C484 1.405 . S
C485 H511 0.931 . S
U486 O487 2.454 . S
U486 O488 2.458 . S
U486 C489 2.984 . S
U486 C490 2.847 . S
U486 C503 2.882 . S
U486 O504 2.441 . S
U486 O505 2.420 . S
U486 O506 2.455 . S
U486 O507 2.449 . S
O487 U486 2.454 . S
O487 C489 1.353 . S
O488 U486 2.458 . S
O488 C489 1.286 . S
C489 U486 2.984 . S
C489 O487 1.353 . S
C489 O488 1.286 . S
C489 C491 1.363 . S
C490 C480 1.465 . S
C490 U486 2.847 . S
C490 O504 1.249 . S
C490 O505 1.202 . S
C491 C489 1.363 . S
C491 C493 1.408 . S
C491 C496 1.342 . S
C492 C493 1.310 . S
C492 C495 1.461 . S
C492 H512 0.932 . S
C493 C491 1.408 . S
C493 C492 1.310 . S
C493 H513 0.930 . S
C494 C495 1.474 . S
C494 C496 1.285 . S
C494 H514 0.929 . S
C495 C492 1.461 . S
C495 C494 1.474 . S
C496 C491 1.342 . S
C496 C494 1.285 . S
C496 H515 0.930 . S
C497 C500 1.424 . S
C497 C502 1.245 . S
C497 C503 1.428 . S
C498 C501 1.260 . S
C498 C502 1.477 . S
C498 H516 0.932 . S
C499 C500 1.384 . S
C499 C501 1.479 . S
C499 H517 0.929 . S
C500 C497 1.424 . S
C500 C499 1.384 . S
C500 H518 0.928 . S
C501 C498 1.260 . S
C501 C499 1.479 . S
C502 C497 1.245 . S
C502 C498 1.477 . S
C502 H519 0.932 . S
C503 U486 2.882 . S
C503 C497 1.428 . S
C503 O506 1.301 . S
C503 O507 1.282 . S
O504 U486 2.441 . S
O504 C490 1.249 . S
O505 U486 2.420 . S
O505 C490 1.202 . S
O506 U486 2.455 . S
O506 C503 1.301 . S
O507 U486 2.449 . S
O507 C503 1.282 . S
H508 C481 0.931 . S
H509 C483 0.929 . S
H510 C484 0.930 . S
H511 C485 0.931 . S
H512 C492 0.932 . S
H513 C493 0.930 . S
H514 C494 0.929 . S
H515 C496 0.930 . S
H516 C498 0.932 . S
H517 C499 0.929 . S
H518 C500 0.928 . S
H519 C502 0.932 . S
C520 C521 1.264 . S
C520 C525 1.479 . S
C520 C530 1.465 . S
C521 C520 1.264 . S
C521 C523 1.339 . S
C521 H548 0.931 . S
C522 C523 1.395 . S
C522 C524 1.320 . S
C523 C521 1.339 . S
C523 C522 1.395 . S
C523 H549 0.929 . S
C524 C522 1.320 . S
C524 C525 1.405 . S
C524 H550 0.930 . S
C525 C520 1.479 . S
C525 C524 1.405 . S
C525 H551 0.931 . S
U526 O527 2.454 . S
U526 O528 2.458 . S
U526 C529 2.984 . S
U526 C530 2.847 . S
U526 C543 2.882 . S
U526 O544 2.441 . S
U526 O545 2.420 . S
U526 O546 2.455 . S
U526 O547 2.449 . S
O527 U526 2.454 . S
O527 C529 1.353 . S
O528 U526 2.458 . S
O528 C529 1.286 . S
C529 U526 2.984 . S
C529 O527 1.353 . S
C529 O528 1.286 . S
C529 C531 1.363 . S
C530 C520 1.465 . S
C530 U526 2.847 . S
C530 O544 1.249 . S
C530 O545 1.202 . S
C531 C529 1.363 . S
C531 C533 1.408 . S
C531 C536 1.342 . S
C532 C533 1.310 . S
C532 C535 1.461 . S
C532 H552 0.932 . S
C533 C531 1.408 . S
C533 C532 1.310 . S
C533 H553 0.930 . S
C534 C535 1.474 . S
C534 C536 1.285 . S
C534 H554 0.929 . S
C535 C532 1.461 . S
C535 C534 1.474 . S
C536 C531 1.342 . S
C536 C534 1.285 . S
C536 H555 0.930 . S
C537 C540 1.424 . S
C537 C542 1.245 . S
C537 C543 1.428 . S
C538 C541 1.260 . S
C538 C542 1.477 . S
C538 H556 0.932 . S
C539 C540 1.384 . S
C539 C541 1.479 . S
C539 H557 0.929 . S
C540 C537 1.424 . S
C540 C539 1.384 . S
C540 H558 0.928 . S
C541 C538 1.260 . S
C541 C539 1.479 . S
C542 C537 1.245 . S
C542 C538 1.477 . S
C542 H559 0.932 . S
C543 U526 2.882 . S
C543 C537 1.428 . S
C543 O546 1.301 . S
C543 O547 1.282 . S
O544 U526 2.441 . S
O544 C530 1.249 . S
O545 U526 2.420 . S
O545 C530 1.202 . S
O546 U526 2.455 . S
O546 C543 1.301 . S
O547 U526 2.449 . S
O547 C543 1.282 . S
H548 C521 0.931 . S
H549 C523 0.929 . S
H550 C524 0.930 . S
H551 C525 0.931 . S
H552 C532 0.932 . S
H553 C533 0.930 . S
H554 C534 0.929 . S
H555 C536 0.930 . S
H556 C538 0.932 . S
H557 C539 0.929 . S
H558 C540 0.928 . S
H559 C542 0.932 . S
C560 C561 1.264 . S
C560 C565 1.479 . S
C560 C570 1.465 . S
C561 C560 1.264 . S
C561 C563 1.339 . S
C561 H588 0.931 . S
C562 C563 1.395 . S
C562 C564 1.320 . S
C563 C561 1.339 . S
C563 C562 1.395 . S
C563 H589 0.929 . S
C564 C562 1.320 . S
C564 C565 1.405 . S
C564 H590 0.920 1_565 S
C565 C560 1.479 . S
C565 C564 1.405 . S
C565 H591 0.931 . S
U566 O567 2.454 . S
U566 O568 2.458 . S
U566 C569 2.984 . S
U566 C570 2.847 . S
U566 C583 2.882 . S
U566 O584 2.441 . S
U566 O585 2.420 . S
U566 O586 2.455 . S
U566 O587 2.449 . S
O567 U566 2.454 . S
O567 C569 1.353 . S
O568 U566 2.458 . S
O568 C569 1.286 . S
C569 U566 2.984 . S
C569 O567 1.353 . S
C569 O568 1.286 . S
C569 C571 1.363 . S
C570 C560 1.465 . S
C570 U566 2.847 . S
C570 O584 1.249 . S
C570 O585 1.202 . S
C571 C569 1.363 . S
C571 C573 1.408 . S
C571 C576 1.342 . S
C572 C573 1.310 . S
C572 C575 1.460 . S
C572 H592 0.932 . S
C573 C571 1.408 . S
C573 C572 1.310 . S
C573 H593 0.930 . S
C574 C575 1.475 1_545 S
C574 C576 1.286 1_545 S
C574 H594 0.930 . S
C575 C572 1.460 . S
C575 C574 1.475 1_565 S
C576 C571 1.342 . S
C576 C574 1.286 1_565 S
C576 H595 0.929 . S
C577 C580 1.424 . S
C577 C582 1.245 . S
C577 C583 1.428 . S
C578 C581 1.260 . S
C578 C582 1.477 . S
C578 H596 0.932 . S
C579 C580 1.384 . S
C579 C581 1.479 . S
C579 H597 0.929 . S
C580 C577 1.424 . S
C580 C579 1.384 . S
C580 H598 0.928 . S
C581 C578 1.260 . S
C581 C579 1.479 . S
C582 C577 1.245 . S
C582 C578 1.477 . S
C582 H599 0.932 . S
C583 U566 2.882 . S
C583 C577 1.428 . S
C583 O586 1.301 . S
C583 O587 1.282 . S
O584 U566 2.441 . S
O584 C570 1.249 . S
O585 U566 2.420 . S
O585 C570 1.202 . S
O586 U566 2.455 . S
O586 C583 1.301 . S
O587 U566 2.449 . S
O587 C583 1.282 . S
H588 C561 0.931 . S
H589 C563 0.929 . S
H590 C564 0.920 1_545 S
H591 C565 0.931 . S
H592 C572 0.932 . S
H593 C573 0.930 . S
H594 C574 0.930 . S
H595 C576 0.929 . S
H596 C578 0.932 . S
H597 C579 0.929 . S
H598 C580 0.928 . S
H599 C582 0.932 . S
C600 C601 1.267 . S
C600 C605 1.465 1_545 S
C600 C610 1.482 . S
C601 C600 1.267 . S
C601 C603 1.339 1_545 S
C601 H628 0.931 . S
C602 C603 1.395 . S
C602 C604 1.320 . S
C603 C601 1.339 1_565 S
C603 C602 1.395 . S
C603 H629 0.929 1_565 S
C604 C602 1.320 . S
C604 C605 1.405 . S
C604 H630 0.930 . S
C605 C600 1.465 1_565 S
C605 C604 1.405 . S
C605 H631 0.931 . S
U606 O607 2.454 1_545 S
U606 O608 2.458 . S
U606 C609 2.987 . S
U606 C610 2.847 . S
U606 C623 2.882 . S
U606 O624 2.441 . S
U606 O625 2.420 . S
U606 O626 2.455 . S
U606 O627 2.449 . S
O607 U606 2.454 1_565 S
O607 C609 1.351 1_565 S
O608 U606 2.458 . S
O608 C609 1.290 . S
C609 U606 2.987 . S
C609 O607 1.351 1_545 S
C609 O608 1.290 . S
C609 C611 1.361 1_545 S
C610 C600 1.482 . S
C610 U606 2.847 . S
C610 O624 1.249 . S
C610 O625 1.202 . S
C611 C609 1.361 1_565 S
C611 C613 1.408 . S
C611 C616 1.342 . S
C612 C613 1.310 . S
C612 C615 1.461 . S
C612 H632 0.932 . S
C613 C611 1.408 . S
C613 C612 1.310 . S
C613 H633 0.930 . S
C614 C615 1.474 . S
C614 C616 1.285 . S
C614 H634 0.929 . S
C615 C612 1.461 . S
C615 C614 1.474 . S
C616 C611 1.342 . S
C616 C614 1.285 . S
C616 H635 0.932 . S
C617 C620 1.424 . S
C617 C622 1.245 . S
C617 C623 1.428 . S
C618 C621 1.260 . S
C618 C622 1.477 . S
C618 H636 0.932 . S
C619 C620 1.384 . S
C619 C621 1.479 . S
C619 H637 0.929 . S
C620 C617 1.424 . S
C620 C619 1.384 . S
C620 H638 0.928 . S
C621 C618 1.260 . S
C621 C619 1.479 . S
C622 C617 1.245 . S
C622 C618 1.477 . S
C622 H639 0.932 . S
C623 U606 2.882 . S
C623 C617 1.428 . S
C623 O626 1.301 . S
C623 O627 1.282 . S
O624 U606 2.441 . S
O624 C610 1.249 . S
O625 U606 2.420 . S
O625 C610 1.202 . S
O626 U606 2.455 . S
O626 C623 1.301 . S
O627 U606 2.449 . S
O627 C623 1.282 . S
H628 C601 0.931 . S
H629 C603 0.929 1_545 S
H630 C604 0.930 . S
H631 C605 0.931 . S
H632 C612 0.932 . S
H633 C613 0.930 . S
H634 C614 0.929 . S
H635 C616 0.932 . S
H636 C618 0.932 . S
H637 C619 0.929 . S
H638 C620 0.928 . S
H639 C622 0.932 . S
C640 C641 1.264 . S
C640 C645 1.479 . S
C640 C650 1.465 . S
C641 C640 1.264 . S
C641 C643 1.339 . S
C641 H668 0.931 . S
C642 C643 1.395 . S
C642 C644 1.320 . S
C643 C641 1.339 . S
C643 C642 1.395 . S
C643 H669 0.929 . S
C644 C642 1.320 . S
C644 C645 1.405 . S
C644 H670 0.930 . S
C645 C640 1.479 . S
C645 C644 1.405 . S
C645 H671 0.931 . S
U646 O647 2.454 . S
U646 O648 2.458 . S
U646 C649 2.984 . S
U646 C650 2.847 . S
U646 C663 2.882 . S
U646 O664 2.441 . S
U646 O665 2.420 . S
U646 O666 2.455 . S
U646 O667 2.449 . S
O647 U646 2.454 . S
O647 C649 1.353 . S
O648 U646 2.458 . S
O648 C649 1.286 . S
C649 U646 2.984 . S
C649 O647 1.353 . S
C649 O648 1.286 . S
C649 C651 1.363 . S
C650 C640 1.465 . S
C650 U646 2.847 . S
C650 O664 1.249 . S
C650 O665 1.202 . S
C651 C649 1.363 . S
C651 C653 1.408 . S
C651 C656 1.342 . S
C652 C653 1.310 . S
C652 C655 1.461 . S
C652 H672 0.932 . S
C653 C651 1.408 . S
C653 C652 1.310 . S
C653 H673 0.930 . S
C654 C655 1.474 . S
C654 C656 1.285 . S
C654 H674 0.929 . S
C655 C652 1.461 . S
C655 C654 1.474 . S
C656 C651 1.342 . S
C656 C654 1.285 . S
C656 H675 0.930 . S
C657 C660 1.424 . S
C657 C662 1.245 . S
C657 C663 1.428 . S
C658 C661 1.260 . S
C658 C662 1.477 . S
C658 H676 0.932 . S
C659 C660 1.384 . S
C659 C661 1.479 . S
C659 H677 0.929 . S
C660 C657 1.424 . S
C660 C659 1.384 . S
C660 H678 0.928 . S
C661 C658 1.260 . S
C661 C659 1.479 . S
C662 C657 1.245 . S
C662 C658 1.477 . S
C662 H679 0.932 . S
C663 U646 2.882 . S
C663 C657 1.428 . S
C663 O666 1.301 . S
C663 O667 1.282 . S
O664 U646 2.441 . S
O664 C650 1.249 . S
O665 U646 2.420 . S
O665 C650 1.202 . S
O666 U646 2.455 . S
O666 C663 1.301 . S
O667 U646 2.449 . S
O667 C663 1.282 . S
H668 C641 0.931 . S
H669 C643 0.929 . S
H670 C644 0.930 . S
H671 C645 0.931 . S
H672 C652 0.932 . S
H673 C653 0.930 . S
H674 C654 0.929 . S
H675 C656 0.930 . S
H676 C658 0.932 . S
H677 C659 0.929 . S
H678 C660 0.928 . S
H679 C662 0.932 . S
C680 C681 1.267 . S
C680 C685 1.465 1_554 S
C680 C690 1.482 . S
C681 C680 1.267 . S
C681 C683 1.339 1_554 S
C681 H708 0.931 . S
C682 C683 1.395 . S
C682 C684 1.320 . S
C683 C681 1.339 1_556 S
C683 C682 1.395 . S
C683 H709 0.929 1_556 S
C684 C682 1.320 . S
C684 C685 1.405 . S
C684 H710 0.930 . S
C685 C680 1.465 1_556 S
C685 C684 1.405 . S
C685 H711 0.931 . S
U686 O687 2.454 1_554 S
U686 O688 2.458 . S
U686 C689 2.987 . S
U686 C690 2.847 . S
U686 C703 2.882 . S
U686 O704 2.441 . S
U686 O705 2.420 . S
U686 O706 2.455 . S
U686 O707 2.449 . S
O687 U686 2.454 1_556 S
O687 C689 1.351 1_556 S
O688 U686 2.458 . S
O688 C689 1.290 . S
C689 U686 2.987 . S
C689 O687 1.351 1_554 S
C689 O688 1.290 . S
C689 C691 1.361 1_554 S
C690 C680 1.482 . S
C690 U686 2.847 . S
C690 O704 1.249 . S
C690 O705 1.202 . S
C691 C689 1.361 1_556 S
C691 C693 1.408 . S
C691 C696 1.342 . S
C692 C693 1.310 . S
C692 C695 1.461 . S
C692 H712 0.932 . S
C693 C691 1.408 . S
C693 C692 1.310 . S
C693 H713 0.930 . S
C694 C695 1.474 . S
C694 C696 1.285 . S
C694 H714 0.929 . S
C695 C692 1.461 . S
C695 C694 1.474 . S
C696 C691 1.342 . S
C696 C694 1.285 . S
C696 H715 0.932 . S
C697 C700 1.424 . S
C697 C702 1.245 . S
C697 C703 1.428 . S
C698 C701 1.260 . S
C698 C702 1.477 . S
C698 H716 0.932 . S
C699 C700 1.384 . S
C699 C701 1.479 . S
C699 H717 0.929 . S
C700 C697 1.424 . S
C700 C699 1.384 . S
C700 H718 0.928 . S
C701 C698 1.260 . S
C701 C699 1.479 . S
C702 C697 1.245 . S
C702 C698 1.477 . S
C702 H719 0.932 . S
C703 U686 2.882 . S
C703 C697 1.428 . S
C703 O706 1.301 . S
C703 O707 1.282 . S
O704 U686 2.441 . S
O704 C690 1.249 . S
O705 U686 2.420 . S
O705 C690 1.202 . S
O706 U686 2.455 . S
O706 C703 1.301 . S
O707 U686 2.449 . S
O707 C703 1.282 . S
H708 C681 0.931 . S
H709 C683 0.929 1_554 S
H710 C684 0.930 . S
H711 C685 0.931 . S
H712 C692 0.932 . S
H713 C693 0.930 . S
H714 C694 0.929 . S
H715 C696 0.932 . S
H716 C698 0.932 . S
H717 C699 0.929 . S
H718 C700 0.928 . S
H719 C702 0.932 . S
C720 C721 1.264 . S
C720 C725 1.479 . S
C720 C730 1.465 . S
C721 C720 1.264 . S
C721 C723 1.339 . S
C721 H748 0.931 . S
C722 C723 1.395 . S
C722 C724 1.320 . S
C723 C721 1.339 . S
C723 C722 1.395 . S
C723 H749 0.929 . S
C724 C722 1.320 . S
C724 C725 1.405 . S
C724 H750 0.930 . S
C725 C720 1.479 . S
C725 C724 1.405 . S
C725 H751 0.931 . S
U726 O727 2.454 . S
U726 O728 2.458 . S
U726 C729 2.984 . S
U726 C730 2.847 . S
U726 C743 2.882 . S
U726 O744 2.441 . S
U726 O745 2.420 . S
U726 O746 2.455 . S
U726 O747 2.449 . S
O727 U726 2.454 . S
O727 C729 1.353 . S
O728 U726 2.458 . S
O728 C729 1.286 . S
C729 U726 2.984 . S
C729 O727 1.353 . S
C729 O728 1.286 . S
C729 C731 1.363 . S
C730 C720 1.465 . S
C730 U726 2.847 . S
C730 O744 1.249 . S
C730 O745 1.202 . S
C731 C729 1.363 . S
C731 C733 1.408 . S
C731 C736 1.342 . S
C732 C733 1.310 . S
C732 C735 1.461 . S
C732 H752 0.932 . S
C733 C731 1.408 . S
C733 C732 1.310 . S
C733 H753 0.930 . S
C734 C735 1.474 . S
C734 C736 1.285 . S
C734 H754 0.929 . S
C735 C732 1.461 . S
C735 C734 1.474 . S
C736 C731 1.342 . S
C736 C734 1.285 . S
C736 H755 0.930 . S
C737 C740 1.424 . S
C737 C742 1.245 . S
C737 C743 1.428 . S
C738 C741 1.260 . S
C738 C742 1.477 . S
C738 H756 0.932 . S
C739 C740 1.384 . S
C739 C741 1.479 . S
C739 H757 0.929 . S
C740 C737 1.424 . S
C740 C739 1.384 . S
C740 H758 0.928 . S
C741 C738 1.260 . S
C741 C739 1.479 . S
C742 C737 1.245 . S
C742 C738 1.477 . S
C742 H759 0.932 . S
C743 U726 2.882 . S
C743 C737 1.428 . S
C743 O746 1.301 . S
C743 O747 1.282 . S
O744 U726 2.441 . S
O744 C730 1.249 . S
O745 U726 2.420 . S
O745 C730 1.202 . S
O746 U726 2.455 . S
O746 C743 1.301 . S
O747 U726 2.449 . S
O747 C743 1.282 . S
H748 C721 0.931 . S
H749 C723 0.929 . S
H750 C724 0.930 . S
H751 C725 0.931 . S
H752 C732 0.932 . S
H753 C733 0.930 . S
H754 C734 0.929 . S
H755 C736 0.930 . S
H756 C738 0.932 . S
H757 C739 0.929 . S
H758 C740 0.928 . S
H759 C742 0.932 . S
C760 C761 1.264 . S
C760 C765 1.479 . S
C760 C770 1.465 . S
C761 C760 1.264 . S
C761 C763 1.339 . S
C761 H788 0.931 . S
C762 C763 1.395 . S
C762 C764 1.320 . S
C763 C761 1.339 . S
C763 C762 1.395 . S
C763 H789 0.929 . S
C764 C762 1.320 . S
C764 C765 1.405 . S
C764 H790 0.920 1_556 S
C765 C760 1.479 . S
C765 C764 1.405 . S
C765 H791 0.931 . S
U766 O767 2.454 . S
U766 O768 2.458 . S
U766 C769 2.984 . S
U766 C770 2.847 . S
U766 C783 2.882 . S
U766 O784 2.441 . S
U766 O785 2.420 . S
U766 O786 2.455 . S
U766 O787 2.449 . S
O767 U766 2.454 . S
O767 C769 1.353 . S
O768 U766 2.458 . S
O768 C769 1.286 . S
C769 U766 2.984 . S
C769 O767 1.353 . S
C769 O768 1.286 . S
C769 C771 1.363 . S
C770 C760 1.465 . S
C770 U766 2.847 . S
C770 O784 1.249 . S
C770 O785 1.202 . S
C771 C769 1.363 . S
C771 C773 1.408 . S
C771 C776 1.342 . S
C772 C773 1.310 . S
C772 C775 1.460 . S
C772 H792 0.932 . S
C773 C771 1.408 . S
C773 C772 1.310 . S
C773 H793 0.930 . S
C774 C775 1.475 1_554 S
C774 C776 1.286 1_554 S
C774 H794 0.930 . S
C775 C772 1.460 . S
C775 C774 1.475 1_556 S
C776 C771 1.342 . S
C776 C774 1.286 1_556 S
C776 H795 0.929 . S
C777 C780 1.424 . S
C777 C782 1.245 . S
C777 C783 1.428 . S
C778 C781 1.260 . S
C778 C782 1.477 . S
C778 H796 0.932 . S
C779 C780 1.384 . S
C779 C781 1.479 . S
C779 H797 0.929 . S
C780 C777 1.424 . S
C780 C779 1.384 . S
C780 H798 0.928 . S
C781 C778 1.260 . S
C781 C779 1.479 . S
C782 C777 1.245 . S
C782 C778 1.477 . S
C782 H799 0.932 . S
C783 U766 2.882 . S
C783 C777 1.428 . S
C783 O786 1.301 . S
C783 O787 1.282 . S
O784 U766 2.441 . S
O784 C770 1.249 . S
O785 U766 2.420 . S
O785 C770 1.202 . S
O786 U766 2.455 . S
O786 C783 1.301 . S
O787 U766 2.449 . S
O787 C783 1.282 . S
H788 C761 0.931 . S
H789 C763 0.929 . S
H790 C764 0.920 1_554 S
H791 C765 0.931 . S
H792 C772 0.932 . S
H793 C773 0.930 . S
H794 C774 0.930 . S
H795 C776 0.929 . S
H796 C778 0.932 . S
H797 C779 0.929 . S
H798 C780 0.928 . S
H799 C782 0.932 . S
C800 C801 1.264 . S
C800 C805 1.479 . S
C800 C810 1.465 . S
C801 C800 1.264 . S
C801 C803 1.339 . S
C801 H828 0.931 . S
C802 C803 1.395 . S
C802 C804 1.320 . S
C803 C801 1.339 . S
C803 C802 1.395 . S
C803 H829 0.929 . S
C804 C802 1.320 . S
C804 C805 1.405 . S
C804 H830 0.930 . S
C805 C800 1.479 . S
C805 C804 1.405 . S
C805 H831 0.931 . S
U806 O807 2.454 . S
U806 O808 2.458 . S
U806 C809 2.984 . S
U806 C810 2.847 . S
U806 C823 2.882 . S
U806 O824 2.441 . S
U806 O825 2.420 . S
U806 O826 2.455 . S
U806 O827 2.449 . S
O807 U806 2.454 . S
O807 C809 1.353 . S
O808 U806 2.458 . S
O808 C809 1.286 . S
C809 U806 2.984 . S
C809 O807 1.353 . S
C809 O808 1.286 . S
C809 C811 1.363 . S
C810 C800 1.465 . S
C810 U806 2.847 . S
C810 O824 1.249 . S
C810 O825 1.202 . S
C811 C809 1.363 . S
C811 C813 1.408 . S
C811 C816 1.342 . S
C812 C813 1.310 . S
C812 C815 1.461 . S
C812 H832 0.932 . S
C813 C811 1.408 . S
C813 C812 1.310 . S
C813 H833 0.930 . S
C814 C815 1.474 . S
C814 C816 1.285 . S
C814 H834 0.929 . S
C815 C812 1.461 . S
C815 C814 1.474 . S
C816 C811 1.342 . S
C816 C814 1.285 . S
C816 H835 0.930 . S
C817 C820 1.424 . S
C817 C822 1.245 . S
C817 C823 1.428 . S
C818 C821 1.260 . S
C818 C822 1.477 . S
C818 H836 0.932 . S
C819 C820 1.384 . S
C819 C821 1.479 . S
C819 H837 0.929 . S
C820 C817 1.424 . S
C820 C819 1.384 . S
C820 H838 0.928 . S
C821 C818 1.260 . S
C821 C819 1.479 . S
C822 C817 1.245 . S
C822 C818 1.477 . S
C822 H839 0.932 . S
C823 U806 2.882 . S
C823 C817 1.428 . S
C823 O826 1.301 . S
C823 O827 1.282 . S
O824 U806 2.441 . S
O824 C810 1.249 . S
O825 U806 2.420 . S
O825 C810 1.202 . S
O826 U806 2.455 . S
O826 C823 1.301 . S
O827 U806 2.449 . S
O827 C823 1.282 . S
H828 C801 0.931 . S
H829 C803 0.929 . S
H830 C804 0.930 . S
H831 C805 0.931 . S
H832 C812 0.932 . S
H833 C813 0.930 . S
H834 C814 0.929 . S
H835 C816 0.930 . S
H836 C818 0.932 . S
H837 C819 0.929 . S
H838 C820 0.928 . S
H839 C822 0.932 . S
C840 C841 1.267 . S
C840 C845 1.465 1_455 S
C840 C850 1.482 . S
C841 C840 1.267 . S
C841 C843 1.339 1_455 S
C841 H868 0.931 . S
C842 C843 1.395 . S
C842 C844 1.320 . S
C843 C841 1.339 1_655 S
C843 C842 1.395 . S
C843 H869 0.929 1_655 S
C844 C842 1.320 . S
C844 C845 1.405 . S
C844 H870 0.930 . S
C845 C840 1.465 1_655 S
C845 C844 1.405 . S
C845 H871 0.931 . S
U846 O847 2.454 1_455 S
U846 O848 2.458 . S
U846 C849 2.987 . S
U846 C850 2.847 . S
U846 C863 2.882 . S
U846 O864 2.441 . S
U846 O865 2.420 . S
U846 O866 2.455 . S
U846 O867 2.449 . S
O847 U846 2.454 1_655 S
O847 C849 1.351 1_655 S
O848 U846 2.458 . S
O848 C849 1.290 . S
C849 U846 2.987 . S
C849 O847 1.351 1_455 S
C849 O848 1.290 . S
C849 C851 1.361 1_455 S
C850 C840 1.482 . S
C850 U846 2.847 . S
C850 O864 1.249 . S
C850 O865 1.202 . S
C851 C849 1.361 1_655 S
C851 C853 1.408 . S
C851 C856 1.342 . S
C852 C853 1.310 . S
C852 C855 1.461 . S
C852 H872 0.932 . S
C853 C851 1.408 . S
C853 C852 1.310 . S
C853 H873 0.930 . S
C854 C855 1.474 . S
C854 C856 1.285 . S
C854 H874 0.929 . S
C855 C852 1.461 . S
C855 C854 1.474 . S
C856 C851 1.342 . S
C856 C854 1.285 . S
C856 H875 0.932 . S
C857 C860 1.424 . S
C857 C862 1.245 . S
C857 C863 1.428 . S
C858 C861 1.260 . S
C858 C862 1.477 . S
C858 H876 0.932 . S
C859 C860 1.384 . S
C859 C861 1.479 . S
C859 H877 0.929 . S
C860 C857 1.424 . S
C860 C859 1.384 . S
C860 H878 0.928 . S
C861 C858 1.260 . S
C861 C859 1.479 . S
C862 C857 1.245 . S
C862 C858 1.477 . S
C862 H879 0.932 . S
C863 U846 2.882 . S
C863 C857 1.428 . S
C863 O866 1.301 . S
C863 O867 1.282 . S
O864 U846 2.441 . S
O864 C850 1.249 . S
O865 U846 2.420 . S
O865 C850 1.202 . S
O866 U846 2.455 . S
O866 C863 1.301 . S
O867 U846 2.449 . S
O867 C863 1.282 . S
H868 C841 0.931 . S
H869 C843 0.929 1_455 S
H870 C844 0.930 . S
H871 C845 0.931 . S
H872 C852 0.932 . S
H873 C853 0.930 . S
H874 C854 0.929 . S
H875 C856 0.932 . S
H876 C858 0.932 . S
H877 C859 0.929 . S
H878 C860 0.928 . S
H879 C862 0.932 . S
C880 C881 1.264 . S
C880 C885 1.479 . S
C880 C890 1.465 . S
C881 C880 1.264 . S
C881 C883 1.339 . S
C881 H908 0.931 . S
C882 C883 1.395 . S
C882 C884 1.320 . S
C883 C881 1.339 . S
C883 C882 1.395 . S
C883 H909 0.929 . S
C884 C882 1.320 . S
C884 C885 1.405 . S
C884 H910 0.930 . S
C885 C880 1.479 . S
C885 C884 1.405 . S
C885 H911 0.931 . S
U886 O887 2.454 . S
U886 O888 2.458 . S
U886 C889 2.984 . S
U886 C890 2.847 . S
U886 C903 2.882 . S
U886 O904 2.441 . S
U886 O905 2.420 . S
U886 O906 2.455 . S
U886 O907 2.449 . S
O887 U886 2.454 . S
O887 C889 1.353 . S
O888 U886 2.458 . S
O888 C889 1.286 . S
C889 U886 2.984 . S
C889 O887 1.353 . S
C889 O888 1.286 . S
C889 C891 1.363 . S
C890 C880 1.465 . S
C890 U886 2.847 . S
C890 O904 1.249 . S
C890 O905 1.202 . S
C891 C889 1.363 . S
C891 C893 1.408 . S
C891 C896 1.342 . S
C892 C893 1.310 . S
C892 C895 1.461 . S
C892 H912 0.932 . S
C893 C891 1.408 . S
C893 C892 1.310 . S
C893 H913 0.930 . S
C894 C895 1.474 . S
C894 C896 1.285 . S
C894 H914 0.929 . S
C895 C892 1.461 . S
C895 C894 1.474 . S
C896 C891 1.342 . S
C896 C894 1.285 . S
C896 H915 0.930 . S
C897 C900 1.424 . S
C897 C902 1.245 . S
C897 C903 1.428 . S
C898 C901 1.260 . S
C898 C902 1.477 . S
C898 H916 0.932 . S
C899 C900 1.384 . S
C899 C901 1.479 . S
C899 H917 0.929 . S
C900 C897 1.424 . S
C900 C899 1.384 . S
C900 H918 0.928 . S
C901 C898 1.260 . S
C901 C899 1.479 . S
C902 C897 1.245 . S
C902 C898 1.477 . S
C902 H919 0.932 . S
C903 U886 2.882 . S
C903 C897 1.428 . S
C903 O906 1.301 . S
C903 O907 1.282 . S
O904 U886 2.441 . S
O904 C890 1.249 . S
O905 U886 2.420 . S
O905 C890 1.202 . S
O906 U886 2.455 . S
O906 C903 1.301 . S
O907 U886 2.449 . S
O907 C903 1.282 . S
H908 C881 0.931 . S
H909 C883 0.929 . S
H910 C884 0.930 . S
H911 C885 0.931 . S
H912 C892 0.932 . S
H913 C893 0.930 . S
H914 C894 0.929 . S
H915 C896 0.930 . S
H916 C898 0.932 . S
H917 C899 0.929 . S
H918 C900 0.928 . S
H919 C902 0.932 . S
C920 C921 1.264 . S
C920 C925 1.479 . S
C920 C930 1.465 . S
C921 C920 1.264 . S
C921 C923 1.339 . S
C921 H948 0.931 . S
C922 C923 1.395 . S
C922 C924 1.320 . S
C923 C921 1.339 . S
C923 C922 1.395 . S
C923 H949 0.929 . S
C924 C922 1.320 . S
C924 C925 1.405 . S
C924 H950 0.920 1_655 S
C925 C920 1.479 . S
C925 C924 1.405 . S
C925 H951 0.931 . S
U926 O927 2.454 . S
U926 O928 2.458 . S
U926 C929 2.984 . S
U926 C930 2.847 . S
U926 C943 2.882 . S
U926 O944 2.441 . S
U926 O945 2.420 . S
U926 O946 2.455 . S
U926 O947 2.449 . S
O927 U926 2.454 . S
O927 C929 1.353 . S
O928 U926 2.458 . S
O928 C929 1.286 . S
C929 U926 2.984 . S
C929 O927 1.353 . S
C929 O928 1.286 . S
C929 C931 1.363 . S
C930 C920 1.465 . S
C930 U926 2.847 . S
C930 O944 1.249 . S
C930 O945 1.202 . S
C931 C929 1.363 . S
C931 C933 1.408 . S
C931 C936 1.342 . S
C932 C933 1.310 . S
C932 C935 1.460 . S
C932 H952 0.932 . S
C933 C931 1.408 . S
C933 C932 1.310 . S
C933 H953 0.930 . S
C934 C935 1.475 1_455 S
C934 C936 1.286 1_455 S
C934 H954 0.930 . S
C935 C932 1.460 . S
C935 C934 1.475 1_655 S
C936 C931 1.342 . S
C936 C934 1.286 1_655 S
C936 H955 0.929 . S
C937 C940 1.424 . S
C937 C942 1.245 . S
C937 C943 1.428 . S
C938 C941 1.260 . S
C938 C942 1.477 . S
C938 H956 0.932 . S
C939 C940 1.384 . S
C939 C941 1.479 . S
C939 H957 0.929 . S
C940 C937 1.424 . S
C940 C939 1.384 . S
C940 H958 0.928 . S
C941 C938 1.260 . S
C941 C939 1.479 . S
C942 C937 1.245 . S
C942 C938 1.477 . S
C942 H959 0.932 . S
C943 U926 2.882 . S
C943 C937 1.428 . S
C943 O946 1.301 . S
C943 O947 1.282 . S
O944 U926 2.441 . S
O944 C930 1.249 . S
O945 U926 2.420 . S
O945 C930 1.202 . S
O946 U926 2.455 . S
O946 C943 1.301 . S
O947 U926 2.449 . S
O947 C943 1.282 . S
H948 C921 0.931 . S
H949 C923 0.929 . S
H950 C924 0.920 1_455 S
H951 C925 0.931 . S
H952 C932 0.932 . S
H953 C933 0.930 . S
H954 C934 0.930 . S
H955 C936 0.929 . S
H956 C938 0.932 . S
H957 C939 0.929 . S
H958 C940 0.928 . S
H959 C942 0.932 . S
H960 C967 0.929 . S
H961 C970 0.930 . S
H962 C972 0.929 . S
H963 C964 0.969 . S
C964 H963 0.969 . S
C964 O965 1.550 . S
C964 H966 0.973 . S
O965 C964 1.550 . S
O965 C971 1.412 . S
H966 C964 0.973 . S
C967 H960 0.929 . S
C967 C968 1.400 . S
C967 C969 1.364 . S
C968 C967 1.400 . S
C968 C972 1.377 . S
C969 C967 1.364 . S
C969 C970 1.374 . S
C970 H961 0.930 . S
C970 C969 1.374 . S
C970 C971 1.383 . S
C971 O965 1.412 . S
C971 C970 1.383 . S
C971 C972 1.394 . S
C972 H962 0.929 . S
C972 C968 1.377 . S
C972 C971 1.394 . S
H973 C980 0.929 . S
H974 C983 0.930 . S
H975 C985 0.929 . S
H976 C977 0.969 . S
C977 H976 0.969 . S
C977 O978 1.550 . S
C977 H979 0.973 1_554 S
O978 C977 1.550 . S
O978 C984 1.412 . S
H979 C977 0.973 1_556 S
C980 H973 0.929 . S
C980 C981 1.400 1_556 S
C980 C982 1.364 . S
C981 C980 1.400 1_554 S
C981 C985 1.377 . S
C982 C980 1.364 . S
C982 C983 1.374 . S
C983 H974 0.930 . S
C983 C982 1.374 . S
C983 C984 1.383 1_556 S
C984 O978 1.412 . S
C984 C983 1.383 1_554 S
C984 C985 1.394 . S
C985 H975 0.929 . S
C985 C981 1.377 . S
C985 C984 1.394 . S
H986 C993 0.929 . S
H987 C996 0.930 . S
H988 C998 0.929 . S
H989 C990 0.969 . S
C990 H989 0.969 . S
C990 O991 1.550 . S
C990 H992 0.973 . S
O991 C990 1.550 . S
O991 C997 1.412 . S
H992 C990 0.973 . S
C993 H986 0.929 . S
C993 C994 1.400 . S
C993 C995 1.364 . S
C994 C993 1.400 . S
C994 C998 1.377 . S
C995 C993 1.364 . S
C995 C996 1.374 1_565 S
C996 H987 0.930 . S
C996 C995 1.374 1_545 S
C996 C997 1.383 . S
C997 O991 1.412 . S
C997 C996 1.383 . S
C997 C998 1.394 1_545 S
C998 H988 0.929 . S
C998 C994 1.377 . S
C998 C997 1.394 1_565 S
H999 C1006 0.929 . S
H1000 C1009 0.930 . S
H1001 C1011 0.929 . S
H1002 C1003 0.969 . S
C1003 H1002 0.969 . S
C1003 O1004 1.550 . S
C1003 H1005 0.954 1_556 S
O1004 C1003 1.550 . S
O1004 C1010 1.412 . S
H1005 C1003 0.954 1_554 S
C1006 H999 0.929 . S
C1006 C1007 1.400 1_554 S
C1006 C1008 1.364 . S
C1007 C1006 1.400 1_556 S
C1007 C1011 1.377 . S
C1008 C1006 1.364 . S
C1008 C1009 1.374 . S
C1009 H1000 0.930 . S
C1009 C1008 1.374 . S
C1009 C1010 1.383 1_554 S
C1010 O1004 1.412 . S
C1010 C1009 1.383 1_556 S
C1010 C1011 1.394 . S
C1011 H1001 0.929 . S
C1011 C1007 1.377 . S
C1011 C1010 1.394 . S
H1012 C1019 0.929 . S
H1013 C1022 0.930 . S
H1014 C1024 0.929 . S
H1015 C1016 0.969 . S
C1016 H1015 0.969 . S
C1016 O1017 1.550 . S
C1016 H1018 0.973 . S
O1017 C1016 1.550 . S
O1017 C1023 1.412 . S
H1018 C1016 0.973 . S
C1019 H1012 0.929 . S
C1019 C1020 1.400 . S
C1019 C1021 1.364 . S
C1020 C1019 1.400 . S
C1020 C1024 1.377 . S
C1021 C1019 1.364 . S
C1021 C1022 1.374 . S
C1022 H1013 0.930 . S
C1022 C1021 1.374 . S
C1022 C1023 1.383 . S
C1023 O1017 1.412 . S
C1023 C1022 1.383 . S
C1023 C1024 1.394 . S
C1024 H1014 0.929 . S
C1024 C1020 1.377 . S
C1024 C1023 1.394 . S
H1025 C1032 0.929 . S
H1026 C1035 0.930 . S
H1027 C1037 0.929 . S
H1028 C1029 0.969 . S
C1029 H1028 0.969 . S
C1029 O1030 1.550 . S
C1029 H1031 0.954 1_655 S
O1030 C1029 1.550 . S
O1030 C1036 1.412 . S
H1031 C1029 0.954 1_455 S
C1032 H1025 0.929 . S
C1032 C1033 1.400 1_455 S
C1032 C1034 1.364 . S
C1033 C1032 1.400 1_655 S
C1033 C1037 1.377 . S
C1034 C1032 1.364 . S
C1034 C1035 1.374 . S
C1035 H1026 0.930 . S
C1035 C1034 1.374 . S
C1035 C1036 1.383 1_455 S
C1036 O1030 1.412 . S
C1036 C1035 1.383 1_655 S
C1036 C1037 1.394 . S
C1037 H1027 0.929 . S
C1037 C1033 1.377 . S
C1037 C1036 1.394 . S
H1038 C1045 0.929 . S
H1039 C1048 0.930 . S
H1040 C1050 0.929 . S
H1041 C1042 0.969 . S
C1042 H1041 0.969 . S
C1042 O1043 1.550 . S
C1042 H1044 0.973 1_455 S
O1043 C1042 1.550 . S
O1043 C1049 1.412 . S
H1044 C1042 0.973 1_655 S
C1045 H1038 0.929 . S
C1045 C1046 1.400 1_655 S
C1045 C1047 1.364 . S
C1046 C1045 1.400 1_455 S
C1046 C1050 1.377 . S
C1047 C1045 1.364 . S
C1047 C1048 1.374 . S
C1048 H1039 0.930 . S
C1048 C1047 1.374 . S
C1048 C1049 1.383 1_655 S
C1049 O1043 1.412 . S
C1049 C1048 1.383 1_455 S
C1049 C1050 1.394 . S
C1050 H1040 0.929 . S
C1050 C1046 1.377 . S
C1050 C1049 1.394 . S
H1051 C1058 0.929 . S
H1052 C1061 0.930 . S
H1053 C1063 0.929 . S
H1054 C1055 0.969 . S
C1055 H1054 0.969 . S
C1055 O1056 1.550 . S
C1055 H1057 0.973 . S
O1056 C1055 1.550 . S
O1056 C1062 1.412 . S
H1057 C1055 0.973 . S
C1058 H1051 0.929 . S
C1058 C1059 1.400 . S
C1058 C1060 1.364 . S
C1059 C1058 1.400 . S
C1059 C1063 1.377 . S
C1060 C1058 1.364 . S
C1060 C1061 1.374 1_556 S
C1061 H1052 0.930 . S
C1061 C1060 1.374 1_554 S
C1061 C1062 1.383 . S
C1062 O1056 1.412 . S
C1062 C1061 1.383 . S
C1062 C1063 1.394 1_554 S
C1063 H1053 0.929 . S
C1063 C1059 1.377 . S
C1063 C1062 1.394 1_556 S
H1064 C1071 0.929 . S
H1065 C1074 0.930 . S
H1066 C1076 0.929 . S
H1067 C1068 0.969 . S
C1068 H1067 0.969 . S
C1068 O1069 1.550 . S
C1068 H1070 0.973 . S
O1069 C1068 1.550 . S
O1069 C1075 1.412 . S
H1070 C1068 0.973 . S
C1071 H1064 0.929 . S
C1071 C1072 1.400 . S
C1071 C1073 1.364 . S
C1072 C1071 1.400 . S
C1072 C1076 1.377 . S
C1073 C1071 1.364 . S
C1073 C1074 1.374 . S
C1074 H1065 0.930 . S
C1074 C1073 1.374 . S
C1074 C1075 1.383 . S
C1075 O1069 1.412 . S
C1075 C1074 1.383 . S
C1075 C1076 1.394 . S
C1076 H1066 0.929 . S
C1076 C1072 1.377 . S
C1076 C1075 1.394 . S
H1077 C1084 0.929 . S
H1078 C1087 0.930 . S
H1079 C1089 0.929 . S
H1080 C1081 0.969 . S
C1081 H1080 0.969 . S
C1081 O1082 1.550 . S
C1081 H1083 0.954 1_565 S
O1082 C1081 1.550 . S
O1082 C1088 1.412 . S
H1083 C1081 0.954 1_545 S
C1084 H1077 0.929 . S
C1084 C1085 1.400 1_545 S
C1084 C1086 1.364 . S
C1085 C1084 1.400 1_565 S
C1085 C1089 1.377 . S
C1086 C1084 1.364 . S
C1086 C1087 1.374 . S
C1087 H1078 0.930 . S
C1087 C1086 1.374 . S
C1087 C1088 1.383 1_545 S
C1088 O1082 1.412 . S
C1088 C1087 1.383 1_565 S
C1088 C1089 1.394 . S
C1089 H1079 0.929 . S
C1089 C1085 1.377 . S
C1089 C1088 1.394 . S
H1090 C1097 0.929 . S
H1091 C1100 0.930 . S
H1092 C1102 0.929 . S
H1093 C1094 0.969 . S
C1094 H1093 0.969 . S
C1094 O1095 1.550 . S
C1094 H1096 0.973 1_545 S
O1095 C1094 1.550 . S
O1095 C1101 1.412 . S
H1096 C1094 0.973 1_565 S
C1097 H1090 0.929 . S
C1097 C1098 1.400 1_565 S
C1097 C1099 1.364 . S
C1098 C1097 1.400 1_545 S
C1098 C1102 1.377 . S
C1099 C1097 1.364 . S
C1099 C1100 1.374 . S
C1100 H1091 0.930 . S
C1100 C1099 1.374 . S
C1100 C1101 1.383 1_565 S
C1101 O1095 1.412 . S
C1101 C1100 1.383 1_545 S
C1101 C1102 1.394 . S
C1102 H1092 0.929 . S
C1102 C1098 1.377 . S
C1102 C1101 1.394 . S
H1103 C1110 0.929 . S
H1104 C1113 0.930 . S
H1105 C1115 0.929 . S
H1106 C1107 0.969 . S
C1107 H1106 0.969 . S
C1107 O1108 1.550 . S
C1107 H1109 0.973 . S
O1108 C1107 1.550 . S
O1108 C1114 1.412 . S
H1109 C1107 0.973 . S
C1110 H1103 0.929 . S
C1110 C1111 1.400 . S
C1110 C1112 1.364 . S
C1111 C1110 1.400 . S
C1111 C1115 1.377 . S
C1112 C1110 1.364 . S
C1112 C1113 1.374 1_655 S
C1113 H1104 0.930 . S
C1113 C1112 1.374 1_455 S
C1113 C1114 1.383 . S
C1114 O1108 1.412 . S
C1114 C1113 1.383 . S
C1114 C1115 1.394 1_455 S
C1115 H1105 0.929 . S
C1115 C1111 1.377 . S
C1115 C1114 1.394 1_655 S
H1116 C1123 0.929 . S
H1117 C1126 0.930 . S
H1118 C1128 0.929 . S
H1119 C1120 0.969 . S
C1120 H1119 0.969 . S
C1120 O1121 1.550 . S
C1120 H1122 0.973 . S
O1121 C1120 1.550 . S
O1121 C1127 1.412 . S
H1122 C1120 0.973 . S
C1123 H1116 0.929 . S
C1123 C1124 1.400 . S
C1123 C1125 1.364 . S
C1124 C1123 1.400 . S
C1124 C1128 1.377 . S
C1125 C1123 1.364 . S
C1125 C1126 1.374 . S
C1126 H1117 0.930 . S
C1126 C1125 1.374 . S
C1126 C1127 1.383 . S
C1127 O1121 1.412 . S
C1127 C1126 1.383 . S
C1127 C1128 1.394 . S
C1128 H1118 0.929 . S
C1128 C1124 1.377 . S
C1128 C1127 1.394 . S
H1129 C1136 0.929 . S
H1130 C1139 0.930 . S
H1131 C1141 0.929 . S
H1132 C1133 0.933 1_554 S
C1133 H1132 0.933 1_556 S
C1133 O1134 1.583 . S
C1133 H1135 0.959 1_556 S
O1134 C1133 1.583 . S
O1134 C1140 1.412 . S
H1135 C1133 0.959 1_554 S
C1136 H1129 0.929 . S
C1136 C1137 1.400 1_554 S
C1136 C1138 1.364 . S
C1137 C1136 1.400 1_556 S
C1137 C1141 1.377 . S
C1138 C1136 1.364 . S
C1138 C1139 1.374 . S
C1139 H1130 0.930 . S
C1139 C1138 1.374 . S
C1139 C1140 1.383 1_554 S
C1140 O1134 1.412 . S
C1140 C1139 1.383 1_556 S
C1140 C1141 1.394 . S
C1141 H1131 0.929 . S
C1141 C1137 1.377 . S
C1141 C1140 1.394 . S
H1142 C1149 0.929 . S
H1143 C1152 0.930 . S
H1144 C1154 0.929 . S
H1145 C1146 0.969 . S
C1146 H1145 0.969 . S
C1146 O1147 1.550 . S
C1146 H1148 0.973 . S
O1147 C1146 1.550 . S
O1147 C1153 1.412 . S
H1148 C1146 0.973 . S
C1149 H1142 0.929 . S
C1149 C1150 1.400 . S
C1149 C1151 1.364 . S
C1150 C1149 1.400 . S
C1150 C1154 1.377 . S
C1151 C1149 1.364 . S
C1151 C1152 1.374 1_545 S
C1152 H1143 0.930 . S
C1152 C1151 1.374 1_565 S
C1152 C1153 1.383 . S
C1153 O1147 1.412 . S
C1153 C1152 1.383 . S
C1153 C1154 1.394 1_565 S
C1154 H1144 0.929 . S
C1154 C1150 1.377 . S
C1154 C1153 1.394 1_545 S
H1155 C1162 0.929 . S
H1156 C1165 0.930 . S
H1157 C1167 0.929 . S
H1158 C1159 0.969 . S
C1159 H1158 0.969 . S
C1159 O1160 1.550 . S
C1159 H1161 0.973 1_554 S
O1160 C1159 1.550 . S
O1160 C1166 1.412 . S
H1161 C1159 0.973 1_556 S
C1162 H1155 0.929 . S
C1162 C1163 1.400 1_556 S
C1162 C1164 1.364 . S
C1163 C1162 1.400 1_554 S
C1163 C1167 1.377 . S
C1164 C1162 1.364 . S
C1164 C1165 1.374 . S
C1165 H1156 0.930 . S
C1165 C1164 1.374 . S
C1165 C1166 1.383 1_556 S
C1166 O1160 1.412 . S
C1166 C1165 1.383 1_554 S
C1166 C1167 1.394 . S
C1167 H1157 0.929 . S
C1167 C1163 1.377 . S
C1167 C1166 1.394 . S
H1168 C1175 0.929 . S
H1169 C1178 0.930 . S
H1170 C1180 0.929 . S
H1171 C1172 0.969 . S
C1172 H1171 0.969 . S
C1172 O1173 1.550 . S
C1172 H1174 0.973 . S
O1173 C1172 1.550 . S
O1173 C1179 1.412 . S
H1174 C1172 0.973 . S
C1175 H1168 0.929 . S
C1175 C1176 1.400 . S
C1175 C1177 1.364 . S
C1176 C1175 1.400 . S
C1176 C1180 1.377 . S
C1177 C1175 1.364 . S
C1177 C1178 1.374 . S
C1178 H1169 0.930 . S
C1178 C1177 1.374 . S
C1178 C1179 1.383 . S
C1179 O1173 1.412 . S
C1179 C1178 1.383 . S
C1179 C1180 1.394 . S
C1180 H1170 0.929 . S
C1180 C1176 1.377 . S
C1180 C1179 1.394 . S
H1181 C1188 0.929 . S
H1182 C1191 0.930 . S
H1183 C1193 0.929 . S
H1184 C1185 0.969 . S
C1185 H1184 0.969 . S
C1185 O1186 1.550 . S
C1185 H1187 0.973 1_455 S
O1186 C1185 1.550 . S
O1186 C1192 1.412 . S
H1187 C1185 0.973 1_655 S
C1188 H1181 0.929 . S
C1188 C1189 1.400 1_655 S
C1188 C1190 1.364 . S
C1189 C1188 1.400 1_455 S
C1189 C1193 1.377 . S
C1190 C1188 1.364 . S
C1190 C1191 1.374 . S
C1191 H1182 0.930 . S
C1191 C1190 1.374 . S
C1191 C1192 1.383 1_655 S
C1192 O1186 1.412 . S
C1192 C1191 1.383 1_455 S
C1192 C1193 1.394 . S
C1193 H1183 0.929 . S
C1193 C1189 1.377 . S
C1193 C1192 1.394 . S
H1194 C1201 0.929 . S
H1195 C1204 0.930 . S
H1196 C1206 0.929 . S
H1197 C1198 0.933 1_455 S
C1198 H1197 0.933 1_655 S
C1198 O1199 1.583 . S
C1198 H1200 0.959 1_655 S
O1199 C1198 1.583 . S
O1199 C1205 1.412 . S
H1200 C1198 0.959 1_455 S
C1201 H1194 0.929 . S
C1201 C1202 1.400 1_455 S
C1201 C1203 1.364 . S
C1202 C1201 1.400 1_655 S
C1202 C1206 1.377 . S
C1203 C1201 1.364 . S
C1203 C1204 1.374 . S
C1204 H1195 0.930 . S
C1204 C1203 1.374 . S
C1204 C1205 1.383 1_455 S
C1205 O1199 1.412 . S
C1205 C1204 1.383 1_655 S
C1205 C1206 1.394 . S
C1206 H1196 0.929 . S
C1206 C1202 1.377 . S
C1206 C1205 1.394 . S
H1207 C1214 0.929 . S
H1208 C1217 0.930 . S
H1209 C1219 0.929 . S
H1210 C1211 0.969 . S
C1211 H1210 0.969 . S
C1211 O1212 1.550 . S
C1211 H1213 0.973 . S
O1212 C1211 1.550 . S
O1212 C1218 1.412 . S
H1213 C1211 0.973 . S
C1214 H1207 0.929 . S
C1214 C1215 1.400 . S
C1214 C1216 1.364 . S
C1215 C1214 1.400 . S
C1215 C1219 1.377 . S
C1216 C1214 1.364 . S
C1216 C1217 1.374 1_554 S
C1217 H1208 0.930 . S
C1217 C1216 1.374 1_556 S
C1217 C1218 1.383 . S
C1218 O1212 1.412 . S
C1218 C1217 1.383 . S
C1218 C1219 1.394 1_556 S
C1219 H1209 0.929 . S
C1219 C1215 1.377 . S
C1219 C1218 1.394 1_554 S
H1220 C1227 0.929 . S
H1221 C1230 0.930 . S
H1222 C1232 0.929 . S
H1223 C1224 0.969 . S
C1224 H1223 0.969 . S
C1224 O1225 1.550 . S
C1224 H1226 0.973 . S
O1225 C1224 1.550 . S
O1225 C1231 1.412 . S
H1226 C1224 0.973 . S
C1227 H1220 0.929 . S
C1227 C1228 1.400 . S
C1227 C1229 1.364 . S
C1228 C1227 1.400 . S
C1228 C1232 1.377 . S
C1229 C1227 1.364 . S
C1229 C1230 1.374 . S
C1230 H1221 0.930 . S
C1230 C1229 1.374 . S
C1230 C1231 1.383 . S
C1231 O1225 1.412 . S
C1231 C1230 1.383 . S
C1231 C1232 1.394 . S
C1232 H1222 0.929 . S
C1232 C1228 1.377 . S
C1232 C1231 1.394 . S
H1233 C1240 0.929 . S
H1234 C1243 0.930 . S
H1235 C1245 0.929 . S
H1236 C1237 0.969 . S
C1237 H1236 0.969 . S
C1237 O1238 1.550 . S
C1237 H1239 0.973 1_545 S
O1238 C1237 1.550 . S
O1238 C1244 1.412 . S
H1239 C1237 0.973 1_565 S
C1240 H1233 0.929 . S
C1240 C1241 1.400 1_565 S
C1240 C1242 1.364 . S
C1241 C1240 1.400 1_545 S
C1241 C1245 1.377 . S
C1242 C1240 1.364 . S
C1242 C1243 1.374 . S
C1243 H1234 0.930 . S
C1243 C1242 1.374 . S
C1243 C1244 1.383 1_565 S
C1244 O1238 1.412 . S
C1244 C1243 1.383 1_545 S
C1244 C1245 1.394 . S
C1245 H1235 0.929 . S
C1245 C1241 1.377 . S
C1245 C1244 1.394 . S
H1246 C1253 0.929 . S
H1247 C1256 0.930 . S
H1248 C1258 0.929 . S
H1249 C1250 0.933 1_545 S
C1250 H1249 0.933 1_565 S
C1250 O1251 1.583 . S
C1250 H1252 0.959 1_565 S
O1251 C1250 1.583 . S
O1251 C1257 1.412 . S
H1252 C1250 0.959 1_545 S
C1253 H1246 0.929 . S
C1253 C1254 1.400 1_545 S
C1253 C1255 1.364 . S
C1254 C1253 1.400 1_565 S
C1254 C1258 1.377 . S
C1255 C1253 1.364 . S
C1255 C1256 1.374 . S
C1256 H1247 0.930 . S
C1256 C1255 1.374 . S
C1256 C1257 1.383 1_545 S
C1257 O1251 1.412 . S
C1257 C1256 1.383 1_565 S
C1257 C1258 1.394 . S
C1258 H1248 0.929 . S
C1258 C1254 1.377 . S
C1258 C1257 1.394 . S
H1259 C1266 0.929 . S
H1260 C1269 0.930 . S
H1261 C1271 0.929 . S
H1262 C1263 0.969 . S
C1263 H1262 0.969 . S
C1263 O1264 1.550 . S
C1263 H1265 0.973 . S
O1264 C1263 1.550 . S
O1264 C1270 1.412 . S
H1265 C1263 0.973 . S
C1266 H1259 0.929 . S
C1266 C1267 1.400 . S
C1266 C1268 1.364 . S
C1267 C1266 1.400 . S
C1267 C1271 1.377 . S
C1268 C1266 1.364 . S
C1268 C1269 1.374 1_455 S
C1269 H1260 0.930 . S
C1269 C1268 1.374 1_655 S
C1269 C1270 1.383 . S
C1270 O1264 1.412 . S
C1270 C1269 1.383 . S
C1270 C1271 1.394 1_655 S
C1271 H1261 0.929 . S
C1271 C1267 1.377 . S
C1271 C1270 1.394 1_455 S
H1272 C1284 0.930 . S
H1273 C1286 0.930 . S
H1274 C1287 0.930 . S
H1275 C1291 0.959 . S
H1276 C1291 0.959 . S
H1277 C1291 0.961 . S
H1278 C1292 0.960 . S
H1279 C1292 0.961 . S
H1280 C1292 0.959 . S
H1281 C1295 0.929 . S
H1282 C1296 0.931 . S
H1283 C1298 0.930 . S
C1284 H1272 0.930 . S
C1284 C1285 1.399 . S
C1284 C1289 1.399 . S
C1285 C1284 1.399 . S
C1285 C1286 1.376 . S
C1286 H1273 0.930 . S
C1286 C1285 1.376 . S
C1286 C1287 1.388 . S
C1287 H1274 0.930 . S
C1287 C1286 1.388 . S
C1287 C1288 1.390 . S
C1288 C1287 1.390 . S
C1288 C1289 1.394 . S
C1288 C1294 1.465 . S
C1289 C1284 1.399 . S
C1289 C1288 1.394 . S
C1289 C1290 1.516 . S
C1290 C1289 1.516 . S
C1290 C1291 1.502 . S
C1290 C1292 1.561 . S
C1290 C1293 1.526 . S
C1291 H1275 0.959 . S
C1291 H1276 0.959 . S
C1291 H1277 0.961 . S
C1291 C1290 1.502 . S
C1292 H1278 0.960 . S
C1292 H1279 0.961 . S
C1292 H1280 0.959 . S
C1292 C1290 1.561 . S
C1293 C1290 1.526 . S
C1293 C1294 1.396 . S
C1293 C1298 1.390 . S
C1294 C1288 1.465 . S
C1294 C1293 1.396 . S
C1294 C1295 1.399 . S
C1295 H1281 0.929 . S
C1295 C1294 1.399 . S
C1295 C1296 1.385 . S
C1296 H1282 0.931 . S
C1296 C1295 1.385 . S
C1296 C1297 1.389 . S
C1297 C1296 1.389 . S
C1297 C1298 1.387 . S
C1298 H1283 0.930 . S
C1298 C1293 1.390 . S
C1298 C1297 1.387 . S
H1299 C1311 0.930 . S
H1300 C1313 0.930 . S
H1301 C1314 0.930 . S
H1302 C1318 0.959 . S
H1303 C1318 0.959 . S
H1304 C1318 0.961 . S
H1305 C1319 0.960 . S
H1306 C1319 0.961 . S
H1307 C1319 0.959 . S
H1308 C1322 0.929 . S
H1309 C1323 0.931 . S
H1310 C1325 0.930 . S
C1311 H1299 0.930 . S
C1311 C1312 1.399 . S
C1311 C1316 1.399 . S
C1312 C1311 1.399 . S
C1312 C1313 1.376 . S
C1313 H1300 0.930 . S
C1313 C1312 1.376 . S
C1313 C1314 1.388 . S
C1314 H1301 0.930 . S
C1314 C1313 1.388 . S
C1314 C1315 1.390 . S
C1315 C1314 1.390 . S
C1315 C1316 1.394 . S
C1315 C1321 1.465 . S
C1316 C1311 1.399 . S
C1316 C1315 1.394 . S
C1316 C1317 1.516 . S
C1317 C1316 1.516 . S
C1317 C1318 1.502 . S
C1317 C1319 1.561 . S
C1317 C1320 1.526 . S
C1318 H1302 0.959 . S
C1318 H1303 0.959 . S
C1318 H1304 0.961 . S
C1318 C1317 1.502 . S
C1319 H1305 0.960 . S
C1319 H1306 0.961 . S
C1319 H1307 0.959 . S
C1319 C1317 1.561 . S
C1320 C1317 1.526 . S
C1320 C1321 1.396 . S
C1320 C1325 1.390 . S
C1321 C1315 1.465 . S
C1321 C1320 1.396 . S
C1321 C1322 1.399 . S
C1322 H1308 0.929 . S
C1322 C1321 1.399 . S
C1322 C1323 1.385 . S
C1323 H1309 0.931 . S
C1323 C1322 1.385 . S
C1323 C1324 1.389 . S
C1324 C1323 1.389 . S
C1324 C1325 1.387 . S
C1325 H1310 0.930 . S
C1325 C1320 1.390 . S
C1325 C1324 1.387 . S
H1326 C1338 0.930 . S
H1327 C1340 0.930 . S
H1328 C1341 0.930 . S
H1329 C1345 0.910 1_565 S
H1330 C1345 0.959 . S
H1331 C1345 0.961 . S
H1332 C1346 0.960 . S
H1333 C1346 0.961 . S
H1334 C1346 0.959 . S
H1335 C1349 0.929 . S
H1336 C1350 0.931 . S
H1337 C1352 0.930 1_545 S
C1338 H1326 0.930 . S
C1338 C1339 1.375 1_545 S
C1338 C1343 1.399 . S
C1339 C1338 1.375 1_565 S
C1339 C1340 1.413 . S
C1340 H1327 0.930 . S
C1340 C1339 1.413 . S
C1340 C1341 1.388 . S
C1341 H1328 0.930 . S
C1341 C1340 1.388 . S
C1341 C1342 1.390 . S
C1342 C1341 1.390 . S
C1342 C1343 1.394 1_565 S
C1342 C1348 1.465 . S
C1343 C1338 1.399 . S
C1343 C1342 1.394 1_545 S
C1343 C1344 1.516 . S
C1344 C1343 1.516 . S
C1344 C1345 1.502 . S
C1344 C1346 1.561 . S
C1344 C1347 1.526 1_545 S
C1345 H1329 0.910 1_545 S
C1345 H1330 0.959 . S
C1345 H1331 0.961 . S
C1345 C1344 1.502 . S
C1346 H1332 0.960 . S
C1346 H1333 0.961 . S
C1346 H1334 0.959 . S
C1346 C1344 1.561 . S
C1347 C1344 1.526 1_565 S
C1347 C1348 1.396 . S
C1347 C1352 1.390 . S
C1348 C1342 1.465 . S
C1348 C1347 1.396 . S
C1348 C1349 1.399 . S
C1349 H1335 0.929 . S
C1349 C1348 1.399 . S
C1349 C1350 1.385 . S
C1350 H1336 0.931 . S
C1350 C1349 1.385 . S
C1350 C1351 1.389 . S
C1351 C1350 1.389 . S
C1351 C1352 1.387 . S
C1352 H1337 0.930 1_565 S
C1352 C1347 1.390 . S
C1352 C1351 1.387 . S
H1353 C1365 0.930 . S
H1354 C1367 0.930 . S
H1355 C1368 0.930 . S
H1356 C1372 0.959 . S
H1357 C1372 0.959 . S
H1358 C1372 0.961 . S
H1359 C1373 0.960 . S
H1360 C1373 0.961 . S
H1361 C1373 0.959 . S
H1362 C1376 0.929 . S
H1363 C1377 0.931 . S
H1364 C1379 0.930 . S
C1365 H1353 0.930 . S
C1365 C1366 1.399 . S
C1365 C1370 1.399 . S
C1366 C1365 1.399 . S
C1366 C1367 1.376 1_545 S
C1367 H1354 0.930 . S
C1367 C1366 1.376 1_565 S
C1367 C1368 1.388 . S
C1368 H1355 0.930 . S
C1368 C1367 1.388 . S
C1368 C1369 1.390 1_565 S
C1369 C1368 1.390 1_545 S
C1369 C1370 1.394 . S
C1369 C1375 1.465 . S
C1370 C1365 1.399 . S
C1370 C1369 1.394 . S
C1370 C1371 1.516 . S
C1371 C1370 1.516 . S
C1371 C1372 1.502 . S
C1371 C1373 1.561 . S
C1371 C1374 1.526 . S
C1372 H1356 0.959 . S
C1372 H1357 0.959 . S
C1372 H1358 0.961 . S
C1372 C1371 1.502 . S
C1373 H1359 0.960 . S
C1373 H1360 0.961 . S
C1373 H1361 0.959 . S
C1373 C1371 1.561 . S
C1374 C1371 1.526 . S
C1374 C1375 1.396 . S
C1374 C1379 1.390 1_655 S
C1375 C1369 1.465 . S
C1375 C1374 1.396 . S
C1375 C1376 1.399 1_545 S
C1376 H1362 0.929 . S
C1376 C1375 1.399 1_565 S
C1376 C1377 1.385 1_655 S
C1377 H1363 0.931 . S
C1377 C1376 1.385 1_455 S
C1377 C1378 1.389 1_565 S
C1378 C1377 1.389 1_545 S
C1378 C1379 1.387 . S
C1379 H1364 0.930 . S
C1379 C1374 1.390 1_455 S
C1379 C1378 1.387 . S
H1380 C1392 0.930 . S
H1381 C1394 0.930 . S
H1382 C1395 0.930 . S
H1383 C1399 0.959 . S
H1384 C1399 0.959 . S
H1385 C1399 0.961 . S
H1386 C1400 0.960 . S
H1387 C1400 0.961 . S
H1388 C1400 0.959 . S
H1389 C1403 0.929 . S
H1390 C1404 0.931 . S
H1391 C1406 0.930 . S
C1392 H1380 0.930 . S
C1392 C1393 1.399 . S
C1392 C1397 1.399 . S
C1393 C1392 1.399 . S
C1393 C1394 1.376 . S
C1394 H1381 0.930 . S
C1394 C1393 1.376 . S
C1394 C1395 1.388 . S
C1395 H1382 0.930 . S
C1395 C1394 1.388 . S
C1395 C1396 1.390 . S
C1396 C1395 1.390 . S
C1396 C1397 1.394 . S
C1396 C1402 1.465 . S
C1397 C1392 1.399 . S
C1397 C1396 1.394 . S
C1397 C1398 1.516 . S
C1398 C1397 1.516 . S
C1398 C1399 1.502 . S
C1398 C1400 1.561 . S
C1398 C1401 1.526 . S
C1399 H1383 0.959 . S
C1399 H1384 0.959 . S
C1399 H1385 0.961 . S
C1399 C1398 1.502 . S
C1400 H1386 0.960 . S
C1400 H1387 0.961 . S
C1400 H1388 0.959 . S
C1400 C1398 1.561 . S
C1401 C1398 1.526 . S
C1401 C1402 1.396 . S
C1401 C1406 1.390 . S
C1402 C1396 1.465 . S
C1402 C1401 1.396 . S
C1402 C1403 1.399 . S
C1403 H1389 0.929 . S
C1403 C1402 1.399 . S
C1403 C1404 1.385 . S
C1404 H1390 0.931 . S
C1404 C1403 1.385 . S
C1404 C1405 1.389 . S
C1405 C1404 1.389 . S
C1405 C1406 1.387 . S
C1406 H1391 0.930 . S
C1406 C1401 1.390 . S
C1406 C1405 1.387 . S
H1407 C1419 0.930 . S
H1408 C1421 0.930 . S
H1409 C1422 0.930 . S
H1410 C1426 0.959 . S
H1411 C1426 0.959 . S
H1412 C1426 0.961 . S
H1413 C1427 0.960 . S
H1414 C1427 0.961 . S
H1415 C1427 0.959 . S
H1416 C1430 0.926 1_565 S
H1417 C1431 0.931 . S
H1418 C1433 0.930 . S
C1419 H1407 0.930 . S
C1419 C1420 1.399 . S
C1419 C1424 1.399 . S
C1420 C1419 1.399 . S
C1420 C1421 1.376 1_554 S
C1421 H1408 0.930 . S
C1421 C1420 1.376 1_556 S
C1421 C1422 1.388 . S
C1422 H1409 0.930 . S
C1422 C1421 1.388 . S
C1422 C1423 1.390 1_556 S
C1423 C1422 1.390 1_554 S
C1423 C1424 1.394 . S
C1423 C1429 1.465 . S
C1424 C1419 1.399 . S
C1424 C1423 1.394 . S
C1424 C1425 1.516 . S
C1425 C1424 1.516 . S
C1425 C1426 1.502 . S
C1425 C1427 1.561 . S
C1425 C1428 1.526 . S
C1426 H1410 0.959 . S
C1426 H1411 0.959 . S
C1426 H1412 0.961 . S
C1426 C1425 1.502 . S
C1427 H1413 0.960 . S
C1427 H1414 0.961 . S
C1427 H1415 0.959 . S
C1427 C1425 1.561 . S
C1428 C1425 1.526 . S
C1428 C1429 1.396 . S
C1428 C1433 1.390 1_565 S
C1429 C1423 1.465 . S
C1429 C1428 1.396 . S
C1429 C1430 1.389 1_564 S
C1430 H1416 0.926 1_545 S
C1430 C1429 1.389 1_546 S
C1430 C1431 1.399 . S
C1431 H1417 0.931 . S
C1431 C1430 1.399 . S
C1431 C1432 1.389 1_556 S
C1432 C1431 1.389 1_554 S
C1432 C1433 1.387 . S
C1433 H1418 0.930 . S
C1433 C1428 1.390 1_545 S
C1433 C1432 1.387 . S
H1434 C1446 0.930 . S
H1435 C1448 0.930 . S
H1436 C1449 0.930 . S
H1437 C1453 0.959 . S
H1438 C1453 0.959 . S
H1439 C1453 0.961 . S
H1440 C1454 0.960 . S
H1441 C1454 0.961 . S
H1442 C1454 0.959 . S
H1443 C1457 0.929 . S
H1444 C1458 0.931 . S
H1445 C1460 0.930 . S
C1446 H1434 0.930 . S
C1446 C1447 1.399 . S
C1446 C1451 1.399 . S
C1447 C1446 1.399 . S
C1447 C1448 1.376 . S
C1448 H1435 0.930 . S
C1448 C1447 1.376 . S
C1448 C1449 1.388 . S
C1449 H1436 0.930 . S
C1449 C1448 1.388 . S
C1449 C1450 1.390 . S
C1450 C1449 1.390 . S
C1450 C1451 1.394 . S
C1450 C1456 1.465 . S
C1451 C1446 1.399 . S
C1451 C1450 1.394 . S
C1451 C1452 1.516 . S
C1452 C1451 1.516 . S
C1452 C1453 1.502 . S
C1452 C1454 1.561 . S
C1452 C1455 1.526 . S
C1453 H1437 0.959 . S
C1453 H1438 0.959 . S
C1453 H1439 0.961 . S
C1453 C1452 1.502 . S
C1454 H1440 0.960 . S
C1454 H1441 0.961 . S
C1454 H1442 0.959 . S
C1454 C1452 1.561 . S
C1455 C1452 1.526 . S
C1455 C1456 1.396 . S
C1455 C1460 1.390 . S
C1456 C1450 1.465 . S
C1456 C1455 1.396 . S
C1456 C1457 1.399 . S
C1457 H1443 0.929 . S
C1457 C1456 1.399 . S
C1457 C1458 1.385 . S
C1458 H1444 0.931 . S
C1458 C1457 1.385 . S
C1458 C1459 1.389 . S
C1459 C1458 1.389 . S
C1459 C1460 1.387 . S
C1460 H1445 0.930 . S
C1460 C1455 1.390 . S
C1460 C1459 1.387 . S
H1461 C1473 0.930 . S
H1462 C1475 0.930 . S
H1463 C1476 0.930 . S
H1464 C1480 0.959 1_556 S
H1465 C1480 0.959 . S
H1466 C1480 0.961 . S
H1467 C1481 0.960 . S
H1468 C1481 0.961 . S
H1469 C1481 0.959 . S
H1470 C1484 0.929 . S
H1471 C1485 0.931 . S
H1472 C1487 0.930 1_554 S
C1473 H1461 0.930 . S
C1473 C1474 1.376 1_554 S
C1473 C1478 1.399 . S
C1474 C1473 1.376 1_556 S
C1474 C1475 1.412 . S
C1475 H1462 0.930 . S
C1475 C1474 1.412 . S
C1475 C1476 1.388 . S
C1476 H1463 0.930 . S
C1476 C1475 1.388 . S
C1476 C1477 1.390 . S
C1477 C1476 1.390 . S
C1477 C1478 1.394 1_556 S
C1477 C1483 1.465 . S
C1478 C1473 1.399 . S
C1478 C1477 1.394 1_554 S
C1478 C1479 1.516 . S
C1479 C1478 1.516 . S
C1479 C1480 1.502 . S
C1479 C1481 1.561 . S
C1479 C1482 1.526 1_554 S
C1480 H1464 0.959 1_554 S
C1480 H1465 0.959 . S
C1480 H1466 0.961 . S
C1480 C1479 1.502 . S
C1481 H1467 0.960 . S
C1481 H1468 0.961 . S
C1481 H1469 0.959 . S
C1481 C1479 1.561 . S
C1482 C1479 1.526 1_556 S
C1482 C1483 1.396 . S
C1482 C1487 1.390 . S
C1483 C1477 1.465 . S
C1483 C1482 1.396 . S
C1483 C1484 1.399 . S
C1484 H1470 0.929 . S
C1484 C1483 1.399 . S
C1484 C1485 1.385 . S
C1485 H1471 0.931 . S
C1485 C1484 1.385 . S
C1485 C1486 1.389 . S
C1486 C1485 1.389 . S
C1486 C1487 1.387 . S
C1487 H1472 0.930 1_556 S
C1487 C1482 1.390 . S
C1487 C1486 1.387 . S
H1488 C1500 0.930 . S
H1489 C1502 0.930 . S
H1490 C1503 0.930 . S
H1491 C1507 0.959 . S
H1492 C1507 0.959 . S
H1493 C1507 0.961 . S
H1494 C1508 0.960 . S
H1495 C1508 0.961 . S
H1496 C1508 0.959 . S
H1497 C1511 0.929 . S
H1498 C1512 0.931 . S
H1499 C1514 0.930 . S
C1500 H1488 0.930 . S
C1500 C1501 1.399 . S
C1500 C1505 1.399 . S
C1501 C1500 1.399 . S
C1501 C1502 1.376 . S
C1502 H1489 0.930 . S
C1502 C1501 1.376 . S
C1502 C1503 1.388 . S
C1503 H1490 0.930 . S
C1503 C1502 1.388 . S
C1503 C1504 1.390 . S
C1504 C1503 1.390 . S
C1504 C1505 1.394 . S
C1504 C1510 1.465 . S
C1505 C1500 1.399 . S
C1505 C1504 1.394 . S
C1505 C1506 1.516 . S
C1506 C1505 1.516 . S
C1506 C1507 1.502 . S
C1506 C1508 1.561 . S
C1506 C1509 1.526 . S
C1507 H1491 0.959 . S
C1507 H1492 0.959 . S
C1507 H1493 0.961 . S
C1507 C1506 1.502 . S
C1508 H1494 0.960 . S
C1508 H1495 0.961 . S
C1508 H1496 0.959 . S
C1508 C1506 1.561 . S
C1509 C1506 1.526 . S
C1509 C1510 1.396 . S
C1509 C1514 1.390 . S
C1510 C1504 1.465 . S
C1510 C1509 1.396 . S
C1510 C1511 1.399 . S
C1511 H1497 0.929 . S
C1511 C1510 1.399 . S
C1511 C1512 1.385 . S
C1512 H1498 0.931 . S
C1512 C1511 1.385 . S
C1512 C1513 1.389 . S
C1513 C1512 1.389 . S
C1513 C1514 1.387 . S
C1514 H1499 0.930 . S
C1514 C1509 1.390 . S
C1514 C1513 1.387 . S
H1515 C1527 0.930 . S
H1516 C1529 0.930 1_655 S
H1517 C1530 0.945 . S
H1518 C1534 0.959 . S
H1519 C1534 0.959 . S
H1520 C1534 0.961 . S
H1521 C1535 0.960 . S
H1522 C1535 0.961 . S
H1523 C1535 0.959 1_655 S
H1524 C1538 0.929 1_655 S
H1525 C1539 0.931 1_655 S
H1526 C1541 0.930 . S
C1527 H1515 0.930 . S
C1527 C1528 1.399 . S
C1527 C1532 1.399 . S
C1528 C1527 1.399 . S
C1528 C1529 1.376 . S
C1529 H1516 0.930 1_455 S
C1529 C1528 1.376 . S
C1529 C1530 1.382 1_455 S
C1530 H1517 0.945 . S
C1530 C1529 1.382 1_655 S
C1530 C1531 1.382 1_655 S
C1531 C1530 1.382 1_455 S
C1531 C1532 1.394 . S
C1531 C1537 1.465 . S
C1532 C1527 1.399 . S
C1532 C1531 1.394 . S
C1532 C1533 1.516 . S
C1533 C1532 1.516 . S
C1533 C1534 1.502 . S
C1533 C1535 1.561 . S
C1533 C1536 1.526 . S
C1534 H1518 0.959 . S
C1534 H1519 0.959 . S
C1534 H1520 0.961 . S
C1534 C1533 1.502 . S
C1535 H1521 0.960 . S
C1535 H1522 0.961 . S
C1535 H1523 0.959 1_455 S
C1535 C1533 1.561 . S
C1536 C1533 1.526 . S
C1536 C1537 1.396 . S
C1536 C1541 1.390 1_556 S
C1537 C1531 1.465 . S
C1537 C1536 1.396 . S
C1537 C1538 1.399 . S
C1538 H1524 0.929 1_455 S
C1538 C1537 1.399 . S
C1538 C1539 1.385 1_556 S
C1539 H1525 0.931 1_455 S
C1539 C1538 1.385 1_554 S
C1539 C1540 1.389 . S
C1540 C1539 1.389 . S
C1540 C1541 1.387 . S
C1541 H1526 0.930 . S
C1541 C1536 1.390 1_554 S
C1541 C1540 1.387 . S
H1542 C1554 0.930 . S
H1543 C1556 0.930 . S
H1544 C1557 0.930 . S
H1545 C1561 0.959 . S
H1546 C1561 0.959 . S
H1547 C1561 0.961 . S
H1548 C1562 0.960 . S
H1549 C1562 0.961 . S
H1550 C1562 0.959 . S
H1551 C1565 0.929 . S
H1552 C1566 0.931 . S
H1553 C1568 0.930 . S
C1554 H1542 0.930 . S
C1554 C1555 1.399 . S
C1554 C1559 1.399 . S
C1555 C1554 1.399 . S
C1555 C1556 1.376 . S
C1556 H1543 0.930 . S
C1556 C1555 1.376 . S
C1556 C1557 1.388 . S
C1557 H1544 0.930 . S
C1557 C1556 1.388 . S
C1557 C1558 1.390 . S
C1558 C1557 1.390 . S
C1558 C1559 1.394 . S
C1558 C1564 1.465 . S
C1559 C1554 1.399 . S
C1559 C1558 1.394 . S
C1559 C1560 1.516 . S
C1560 C1559 1.516 . S
C1560 C1561 1.502 . S
C1560 C1562 1.561 . S
C1560 C1563 1.526 . S
C1561 H1545 0.959 . S
C1561 H1546 0.959 . S
C1561 H1547 0.961 . S
C1561 C1560 1.502 . S
C1562 H1548 0.960 . S
C1562 H1549 0.961 . S
C1562 H1550 0.959 . S
C1562 C1560 1.561 . S
C1563 C1560 1.526 . S
C1563 C1564 1.396 . S
C1563 C1568 1.390 . S
C1564 C1558 1.465 . S
C1564 C1563 1.396 . S
C1564 C1565 1.399 . S
C1565 H1551 0.929 . S
C1565 C1564 1.399 . S
C1565 C1566 1.385 . S
C1566 H1552 0.931 . S
C1566 C1565 1.385 . S
C1566 C1567 1.389 . S
C1567 C1566 1.389 . S
C1567 C1568 1.387 . S
C1568 H1553 0.930 . S
C1568 C1563 1.390 . S
C1568 C1567 1.387 . S
H1569 C1581 0.930 . S
H1570 C1583 0.930 . S
H1571 C1584 0.930 . S
H1572 C1588 0.959 . S
H1573 C1588 0.959 . S
H1574 C1588 0.961 . S
H1575 C1589 0.960 . S
H1576 C1589 0.961 . S
H1577 C1589 0.959 . S
H1578 C1592 0.941 . S
H1579 C1593 0.931 . S
H1580 C1595 0.930 . S
C1581 H1569 0.930 . S
C1581 C1582 1.399 1_655 S
C1581 C1586 1.399 . S
C1582 C1581 1.399 1_455 S
C1582 C1583 1.376 . S
C1583 H1570 0.930 . S
C1583 C1582 1.376 . S
C1583 C1584 1.388 . S
C1584 H1571 0.930 . S
C1584 C1583 1.388 . S
C1584 C1585 1.390 1_455 S
C1585 C1584 1.390 1_655 S
C1585 C1586 1.394 . S
C1585 C1591 1.465 . S
C1586 C1581 1.399 . S
C1586 C1585 1.394 . S
C1586 C1587 1.516 . S
C1587 C1586 1.516 . S
C1587 C1588 1.502 . S
C1587 C1589 1.561 1_655 S
C1587 C1590 1.526 . S
C1588 H1572 0.959 . S
C1588 H1573 0.959 . S
C1588 H1574 0.961 . S
C1588 C1587 1.502 . S
C1589 H1575 0.960 . S
C1589 H1576 0.961 . S
C1589 H1577 0.959 . S
C1589 C1587 1.561 1_455 S
C1590 C1587 1.526 . S
C1590 C1591 1.396 . S
C1590 C1595 1.390 . S
C1591 C1585 1.465 . S
C1591 C1590 1.396 . S
C1591 C1592 1.399 . S
C1592 H1578 0.941 . S
C1592 C1591 1.399 . S
C1592 C1593 1.385 . S
C1593 H1579 0.931 . S
C1593 C1592 1.385 . S
C1593 C1594 1.389 . S
C1594 C1593 1.389 . S
C1594 C1595 1.387 . S
C1595 H1580 0.930 . S
C1595 C1590 1.390 . S
C1595 C1594 1.387 . S
H1596 C1608 0.930 . S
H1597 C1610 0.930 . S
H1598 C1611 0.930 . S
H1599 C1615 0.959 . S
H1600 C1615 0.959 . S
H1601 C1615 0.961 . S
H1602 C1616 0.960 . S
H1603 C1616 0.961 . S
H1604 C1616 0.959 . S
H1605 C1619 0.929 . S
H1606 C1620 0.931 . S
H1607 C1622 0.930 . S
C1608 H1596 0.930 . S
C1608 C1609 1.399 . S
C1608 C1613 1.399 . S
C1609 C1608 1.399 . S
C1609 C1610 1.376 . S
C1610 H1597 0.930 . S
C1610 C1609 1.376 . S
C1610 C1611 1.388 . S
C1611 H1598 0.930 . S
C1611 C1610 1.388 . S
C1611 C1612 1.390 . S
C1612 C1611 1.390 . S
C1612 C1613 1.394 . S
C1612 C1618 1.465 . S
C1613 C1608 1.399 . S
C1613 C1612 1.394 . S
C1613 C1614 1.516 . S
C1614 C1613 1.516 . S
C1614 C1615 1.502 . S
C1614 C1616 1.561 . S
C1614 C1617 1.526 . S
C1615 H1599 0.959 . S
C1615 H1600 0.959 . S
C1615 H1601 0.961 . S
C1615 C1614 1.502 . S
C1616 H1602 0.960 . S
C1616 H1603 0.961 . S
C1616 H1604 0.959 . S
C1616 C1614 1.561 . S
C1617 C1614 1.526 . S
C1617 C1618 1.396 . S
C1617 C1622 1.390 . S
C1618 C1612 1.465 . S
C1618 C1617 1.396 . S
C1618 C1619 1.399 . S
C1619 H1605 0.929 . S
C1619 C1618 1.399 . S
C1619 C1620 1.385 . S
C1620 H1606 0.931 . S
C1620 C1619 1.385 . S
C1620 C1621 1.389 . S
C1621 C1620 1.389 . S
C1621 C1622 1.387 . S
C1622 H1607 0.930 . S
C1622 C1617 1.390 . S
C1622 C1621 1.387 . S
H1623 C1635 0.930 . S
H1624 C1637 0.930 . S
H1625 C1638 0.930 . S
H1626 C1642 0.959 . S
H1627 C1642 0.959 . S
H1628 C1642 0.961 . S
H1629 C1643 0.960 . S
H1630 C1643 0.961 . S
H1631 C1643 0.959 . S
H1632 C1646 0.929 . S
H1633 C1647 0.931 . S
H1634 C1649 0.930 . S
C1635 H1623 0.930 . S
C1635 C1636 1.399 . S
C1635 C1640 1.399 . S
C1636 C1635 1.399 . S
C1636 C1637 1.376 . S
C1637 H1624 0.930 . S
C1637 C1636 1.376 . S
C1637 C1638 1.388 . S
C1638 H1625 0.930 . S
C1638 C1637 1.388 . S
C1638 C1639 1.390 . S
C1639 C1638 1.390 . S
C1639 C1640 1.394 . S
C1639 C1645 1.465 . S
C1640 C1635 1.399 . S
C1640 C1639 1.394 . S
C1640 C1641 1.516 . S
C1641 C1640 1.516 . S
C1641 C1642 1.502 . S
C1641 C1643 1.561 . S
C1641 C1644 1.526 . S
C1642 H1626 0.959 . S
C1642 H1627 0.959 . S
C1642 H1628 0.961 . S
C1642 C1641 1.502 . S
C1643 H1629 0.960 . S
C1643 H1630 0.961 . S
C1643 H1631 0.959 . S
C1643 C1641 1.561 . S
C1644 C1641 1.526 . S
C1644 C1645 1.396 . S
C1644 C1649 1.390 . S
C1645 C1639 1.465 . S
C1645 C1644 1.396 . S
C1645 C1646 1.399 . S
C1646 H1632 0.929 . S
C1646 C1645 1.399 . S
C1646 C1647 1.385 . S
C1647 H1633 0.931 . S
C1647 C1646 1.385 . S
C1647 C1648 1.389 . S
C1648 C1647 1.389 . S
C1648 C1649 1.387 . S
C1649 H1634 0.930 . S
C1649 C1644 1.390 . S
C1649 C1648 1.387 . S
H1650 C1662 0.930 . S
H1651 C1664 0.930 . S
H1652 C1665 0.930 . S
H1653 C1669 0.959 . S
H1654 C1669 0.959 . S
H1655 C1669 0.961 . S
H1656 C1670 0.960 . S
H1657 C1670 0.961 . S
H1658 C1670 0.959 . S
H1659 C1673 0.929 . S
H1660 C1674 0.931 . S
H1661 C1676 0.930 . S
C1662 H1650 0.930 . S
C1662 C1663 1.399 1_545 S
C1662 C1667 1.399 . S
C1663 C1662 1.399 1_565 S
C1663 C1664 1.376 . S
C1664 H1651 0.930 . S
C1664 C1663 1.376 . S
C1664 C1665 1.388 . S
C1665 H1652 0.930 . S
C1665 C1664 1.388 . S
C1665 C1666 1.390 . S
C1666 C1665 1.390 . S
C1666 C1667 1.394 1_565 S
C1666 C1672 1.462 1_565 S
C1667 C1662 1.399 . S
C1667 C1666 1.394 1_545 S
C1667 C1668 1.516 . S
C1668 C1667 1.516 . S
C1668 C1669 1.502 . S
C1668 C1670 1.561 . S
C1668 C1671 1.526 . S
C1669 H1653 0.959 . S
C1669 H1654 0.959 . S
C1669 H1655 0.961 . S
C1669 C1668 1.502 . S
C1670 H1656 0.960 . S
C1670 H1657 0.961 . S
C1670 H1658 0.959 . S
C1670 C1668 1.561 . S
C1671 C1668 1.526 . S
C1671 C1672 1.440 . S
C1671 C1676 1.390 . S
C1672 C1666 1.462 1_545 S
C1672 C1671 1.440 . S
C1672 C1673 1.368 1_545 S
C1673 H1659 0.929 . S
C1673 C1672 1.368 1_565 S
C1673 C1674 1.385 . S
C1674 H1660 0.931 . S
C1674 C1673 1.385 . S
C1674 C1675 1.389 1_565 S
C1675 C1674 1.389 1_545 S
C1675 C1676 1.387 . S
C1676 H1661 0.930 . S
C1676 C1671 1.390 . S
C1676 C1675 1.387 . S
H1677 C1689 0.930 . S
H1678 C1691 0.930 . S
H1679 C1692 0.930 . S
H1680 C1696 0.959 . S
H1681 C1696 0.959 . S
H1682 C1696 0.961 . S
H1683 C1697 0.960 . S
H1684 C1697 0.961 . S
H1685 C1697 0.959 . S
H1686 C1700 0.929 . S
H1687 C1701 0.931 . S
H1688 C1703 0.930 . S
C1689 H1677 0.930 . S
C1689 C1690 1.399 . S
C1689 C1694 1.399 . S
C1690 C1689 1.399 . S
C1690 C1691 1.376 1_565 S
C1691 H1678 0.930 . S
C1691 C1690 1.376 1_545 S
C1691 C1692 1.388 . S
C1692 H1679 0.930 . S
C1692 C1691 1.388 . S
C1692 C1693 1.390 1_545 S
C1693 C1692 1.390 1_565 S
C1693 C1694 1.394 . S
C1693 C1699 1.465 . S
C1694 C1689 1.399 . S
C1694 C1693 1.394 . S
C1694 C1695 1.516 . S
C1695 C1694 1.516 . S
C1695 C1696 1.502 . S
C1695 C1697 1.561 . S
C1695 C1698 1.526 . S
C1696 H1680 0.959 . S
C1696 H1681 0.959 . S
C1696 H1682 0.961 . S
C1696 C1695 1.502 . S
C1697 H1683 0.960 . S
C1697 H1684 0.961 . S
C1697 H1685 0.959 . S
C1697 C1695 1.561 . S
C1698 C1695 1.526 . S
C1698 C1699 1.396 . S
C1698 C1703 1.390 1_455 S
C1699 C1693 1.465 . S
C1699 C1698 1.396 . S
C1699 C1700 1.399 1_565 S
C1700 H1686 0.929 . S
C1700 C1699 1.399 1_545 S
C1700 C1701 1.385 1_455 S
C1701 H1687 0.931 . S
C1701 C1700 1.385 1_655 S
C1701 C1702 1.389 1_545 S
C1702 C1701 1.389 1_565 S
C1702 C1703 1.387 . S
C1703 H1688 0.930 . S
C1703 C1698 1.390 1_655 S
C1703 C1702 1.387 . S
H1704 C1716 0.930 . S
H1705 C1718 0.930 . S
H1706 C1719 0.930 . S
H1707 C1723 0.959 . S
H1708 C1723 0.959 . S
H1709 C1723 0.961 . S
H1710 C1724 0.960 . S
H1711 C1724 0.961 . S
H1712 C1724 0.959 . S
H1713 C1727 0.929 . S
H1714 C1728 0.931 . S
H1715 C1730 0.930 . S
C1716 H1704 0.930 . S
C1716 C1717 1.399 . S
C1716 C1721 1.399 . S
C1717 C1716 1.399 . S
C1717 C1718 1.376 . S
C1718 H1705 0.930 . S
C1718 C1717 1.376 . S
C1718 C1719 1.388 . S
C1719 H1706 0.930 . S
C1719 C1718 1.388 . S
C1719 C1720 1.390 . S
C1720 C1719 1.390 . S
C1720 C1721 1.394 . S
C1720 C1726 1.465 . S
C1721 C1716 1.399 . S
C1721 C1720 1.394 . S
C1721 C1722 1.516 . S
C1722 C1721 1.516 . S
C1722 C1723 1.502 . S
C1722 C1724 1.561 . S
C1722 C1725 1.526 . S
C1723 H1707 0.959 . S
C1723 H1708 0.959 . S
C1723 H1709 0.961 . S
C1723 C1722 1.502 . S
C1724 H1710 0.960 . S
C1724 H1711 0.961 . S
C1724 H1712 0.959 . S
C1724 C1722 1.561 . S
C1725 C1722 1.526 . S
C1725 C1726 1.396 . S
C1725 C1730 1.390 . S
C1726 C1720 1.465 . S
C1726 C1725 1.396 . S
C1726 C1727 1.399 . S
C1727 H1713 0.929 . S
C1727 C1726 1.399 . S
C1727 C1728 1.385 . S
C1728 H1714 0.931 . S
C1728 C1727 1.385 . S
C1728 C1729 1.389 . S
C1729 C1728 1.389 . S
C1729 C1730 1.387 . S
C1730 H1715 0.930 . S
C1730 C1725 1.390 . S
C1730 C1729 1.387 . S
H1731 C1743 0.967 . S
H1732 C1745 0.930 . S
H1733 C1746 0.930 . S
H1734 C1750 0.959 . S
H1735 C1750 0.959 . S
H1736 C1750 0.961 . S
H1737 C1751 0.960 . S
H1738 C1751 0.961 . S
H1739 C1751 0.959 . S
H1740 C1754 0.940 . S
H1741 C1755 0.931 . S
H1742 C1757 0.929 . S
C1743 H1731 0.967 . S
C1743 C1744 1.366 1_554 S
C1743 C1748 1.396 1_554 S
C1744 C1743 1.366 1_556 S
C1744 C1745 1.376 . S
C1745 H1732 0.930 . S
C1745 C1744 1.376 . S
C1745 C1746 1.388 . S
C1746 H1733 0.930 . S
C1746 C1745 1.388 . S
C1746 C1747 1.390 . S
C1747 C1746 1.390 . S
C1747 C1748 1.394 . S
C1747 C1753 1.465 . S
C1748 C1743 1.396 1_556 S
C1748 C1747 1.394 . S
C1748 C1749 1.516 1_556 S
C1749 C1748 1.516 1_554 S
C1749 C1750 1.502 . S
C1749 C1751 1.561 . S
C1749 C1752 1.526 1_554 S
C1750 H1734 0.959 . S
C1750 H1735 0.959 . S
C1750 H1736 0.961 . S
C1750 C1749 1.502 . S
C1751 H1737 0.960 . S
C1751 H1738 0.961 . S
C1751 H1739 0.959 . S
C1751 C1749 1.561 . S
C1752 C1749 1.526 1_556 S
C1752 C1753 1.396 . S
C1752 C1757 1.390 1_546 S
C1753 C1747 1.465 . S
C1753 C1752 1.396 . S
C1753 C1754 1.399 1_545 S
C1754 H1740 0.940 . S
C1754 C1753 1.399 1_565 S
C1754 C1755 1.385 . S
C1755 H1741 0.931 . S
C1755 C1754 1.385 . S
C1755 C1756 1.389 . S
C1756 C1755 1.389 . S
C1756 C1757 1.387 1_556 S
C1757 H1742 0.929 . S
C1757 C1752 1.390 1_564 S
C1757 C1756 1.387 1_554 S
H1758 C1770 0.930 . S
H1759 C1772 0.930 . S
H1760 C1773 0.930 . S
H1761 C1777 0.959 . S
H1762 C1777 0.959 . S
H1763 C1777 0.961 . S
H1764 C1778 0.960 . S
H1765 C1778 0.961 . S
H1766 C1778 0.959 . S
H1767 C1781 0.929 . S
H1768 C1782 0.931 . S
H1769 C1784 0.930 . S
C1770 H1758 0.930 . S
C1770 C1771 1.399 . S
C1770 C1775 1.399 . S
C1771 C1770 1.399 . S
C1771 C1772 1.376 . S
C1772 H1759 0.930 . S
C1772 C1771 1.376 . S
C1772 C1773 1.388 . S
C1773 H1760 0.930 . S
C1773 C1772 1.388 . S
C1773 C1774 1.390 . S
C1774 C1773 1.390 . S
C1774 C1775 1.394 . S
C1774 C1780 1.465 . S
C1775 C1770 1.399 . S
C1775 C1774 1.394 . S
C1775 C1776 1.516 . S
C1776 C1775 1.516 . S
C1776 C1777 1.502 . S
C1776 C1778 1.561 . S
C1776 C1779 1.526 . S
C1777 H1761 0.959 . S
C1777 H1762 0.959 . S
C1777 H1763 0.961 . S
C1777 C1776 1.502 . S
C1778 H1764 0.960 . S
C1778 H1765 0.961 . S
C1778 H1766 0.959 . S
C1778 C1776 1.561 . S
C1779 C1776 1.526 . S
C1779 C1780 1.396 . S
C1779 C1784 1.390 . S
C1780 C1774 1.465 . S
C1780 C1779 1.396 . S
C1780 C1781 1.399 . S
C1781 H1767 0.929 . S
C1781 C1780 1.399 . S
C1781 C1782 1.385 . S
C1782 H1768 0.931 . S
C1782 C1781 1.385 . S
C1782 C1783 1.389 . S
C1783 C1782 1.389 . S
C1783 C1784 1.387 . S
C1784 H1769 0.930 . S
C1784 C1779 1.390 . S
C1784 C1783 1.387 . S
H1785 C1797 0.930 . S
H1786 C1799 0.930 . S
H1787 C1800 0.930 . S
H1788 C1804 0.959 . S
H1789 C1804 0.959 . S
H1790 C1804 0.961 . S
H1791 C1805 0.960 . S
H1792 C1805 0.961 . S
H1793 C1805 0.959 . S
H1794 C1808 0.929 . S
H1795 C1809 0.931 . S
H1796 C1811 0.930 . S
C1797 H1785 0.930 . S
C1797 C1798 1.355 1_554 S
C1797 C1802 1.399 . S
C1798 C1797 1.355 1_556 S
C1798 C1799 1.424 . S
C1799 H1786 0.930 . S
C1799 C1798 1.424 . S
C1799 C1800 1.388 . S
C1800 H1787 0.930 . S
C1800 C1799 1.388 . S
C1800 C1801 1.413 . S
C1801 C1800 1.413 . S
C1801 C1802 1.369 1_556 S
C1801 C1807 1.463 1_556 S
C1802 C1797 1.399 . S
C1802 C1801 1.369 1_554 S
C1802 C1803 1.516 . S
C1803 C1802 1.516 . S
C1803 C1804 1.502 . S
C1803 C1805 1.561 . S
C1803 C1806 1.526 . S
C1804 H1788 0.959 . S
C1804 H1789 0.959 . S
C1804 H1790 0.961 . S
C1804 C1803 1.502 . S
C1805 H1791 0.960 . S
C1805 H1792 0.961 . S
C1805 H1793 0.959 . S
C1805 C1803 1.561 . S
C1806 C1803 1.526 . S
C1806 C1807 1.396 . S
C1806 C1811 1.390 . S
C1807 C1801 1.463 1_554 S
C1807 C1806 1.396 . S
C1807 C1808 1.399 1_554 S
C1808 H1794 0.929 . S
C1808 C1807 1.399 1_556 S
C1808 C1809 1.385 . S
C1809 H1795 0.931 . S
C1809 C1808 1.385 . S
C1809 C1810 1.389 1_556 S
C1810 C1809 1.389 1_554 S
C1810 C1811 1.387 . S
C1811 H1796 0.930 . S
C1811 C1806 1.390 . S
C1811 C1810 1.387 . S
H1812 C1824 0.930 . S
H1813 C1826 0.930 . S
H1814 C1827 0.930 . S
H1815 C1831 0.959 . S
H1816 C1831 0.959 . S
H1817 C1831 0.961 . S
H1818 C1832 0.960 . S
H1819 C1832 0.961 . S
H1820 C1832 0.959 . S
H1821 C1835 0.929 . S
H1822 C1836 0.931 . S
H1823 C1838 0.930 . S
C1824 H1812 0.930 . S
C1824 C1825 1.399 . S
C1824 C1829 1.399 . S
C1825 C1824 1.399 . S
C1825 C1826 1.376 . S
C1826 H1813 0.930 . S
C1826 C1825 1.376 . S
C1826 C1827 1.388 . S
C1827 H1814 0.930 . S
C1827 C1826 1.388 . S
C1827 C1828 1.390 . S
C1828 C1827 1.390 . S
C1828 C1829 1.394 . S
C1828 C1834 1.465 . S
C1829 C1824 1.399 . S
C1829 C1828 1.394 . S
C1829 C1830 1.516 . S
C1830 C1829 1.516 . S
C1830 C1831 1.502 . S
C1830 C1832 1.561 . S
C1830 C1833 1.526 . S
C1831 H1815 0.959 . S
C1831 H1816 0.959 . S
C1831 H1817 0.961 . S
C1831 C1830 1.502 . S
C1832 H1818 0.960 . S
C1832 H1819 0.961 . S
C1832 H1820 0.959 . S
C1832 C1830 1.561 . S
C1833 C1830 1.526 . S
C1833 C1834 1.396 . S
C1833 C1838 1.390 . S
C1834 C1828 1.465 . S
C1834 C1833 1.396 . S
C1834 C1835 1.399 . S
C1835 H1821 0.929 . S
C1835 C1834 1.399 . S
C1835 C1836 1.385 . S
C1836 H1822 0.931 . S
C1836 C1835 1.385 . S
C1836 C1837 1.389 . S
C1837 C1836 1.389 . S
C1837 C1838 1.387 . S
C1838 H1823 0.930 . S
C1838 C1833 1.390 . S
C1838 C1837 1.387 . S
H1839 C1851 0.930 1_455 S
H1840 C1853 0.930 . S
H1841 C1854 0.930 . S
H1842 C1858 0.959 . S
H1843 C1858 0.959 . S
H1844 C1858 0.961 . S
H1845 C1859 0.960 . S
H1846 C1859 0.961 . S
H1847 C1859 0.959 . S
H1848 C1862 0.929 . S
H1849 C1863 0.931 . S
H1850 C1865 0.930 1_455 S
C1851 H1839 0.930 1_655 S
C1851 C1852 1.399 . S
C1851 C1856 1.399 . S
C1852 C1851 1.399 . S
C1852 C1853 1.376 . S
C1853 H1840 0.930 . S
C1853 C1852 1.376 . S
C1853 C1854 1.388 . S
C1854 H1841 0.930 . S
C1854 C1853 1.388 . S
C1854 C1855 1.390 . S
C1855 C1854 1.390 . S
C1855 C1856 1.394 . S
C1855 C1861 1.465 . S
C1856 C1851 1.399 . S
C1856 C1855 1.394 . S
C1856 C1857 1.516 . S
C1857 C1856 1.516 . S
C1857 C1858 1.502 1_655 S
C1857 C1859 1.561 . S
C1857 C1860 1.526 . S
C1858 H1842 0.959 . S
C1858 H1843 0.959 . S
C1858 H1844 0.961 . S
C1858 C1857 1.502 1_455 S
C1859 H1845 0.960 . S
C1859 H1846 0.961 . S
C1859 H1847 0.959 . S
C1859 C1857 1.561 . S
C1860 C1857 1.526 . S
C1860 C1861 1.396 . S
C1860 C1865 1.390 1_554 S
C1861 C1855 1.465 . S
C1861 C1860 1.396 . S
C1861 C1862 1.399 . S
C1862 H1848 0.929 . S
C1862 C1861 1.399 . S
C1862 C1863 1.385 1_554 S
C1863 H1849 0.931 . S
C1863 C1862 1.385 1_556 S
C1863 C1864 1.389 . S
C1864 C1863 1.389 . S
C1864 C1865 1.387 . S
C1865 H1850 0.930 1_655 S
C1865 C1860 1.390 1_556 S
C1865 C1864 1.387 . S
H1866 C1878 0.930 . S
H1867 C1880 0.930 . S
H1868 C1881 0.930 . S
H1869 C1885 0.959 . S
H1870 C1885 0.959 . S
H1871 C1885 0.961 . S
H1872 C1886 0.960 . S
H1873 C1886 0.961 . S
H1874 C1886 0.959 . S
H1875 C1889 0.929 . S
H1876 C1890 0.931 . S
H1877 C1892 0.930 . S
C1878 H1866 0.930 . S
C1878 C1879 1.399 . S
C1878 C1883 1.399 . S
C1879 C1878 1.399 . S
C1879 C1880 1.376 . S
C1880 H1867 0.930 . S
C1880 C1879 1.376 . S
C1880 C1881 1.388 . S
C1881 H1868 0.930 . S
C1881 C1880 1.388 . S
C1881 C1882 1.390 . S
C1882 C1881 1.390 . S
C1882 C1883 1.394 . S
C1882 C1888 1.465 . S
C1883 C1878 1.399 . S
C1883 C1882 1.394 . S
C1883 C1884 1.516 . S
C1884 C1883 1.516 . S
C1884 C1885 1.502 . S
C1884 C1886 1.561 . S
C1884 C1887 1.526 . S
C1885 H1869 0.959 . S
C1885 H1870 0.959 . S
C1885 H1871 0.961 . S
C1885 C1884 1.502 . S
C1886 H1872 0.960 . S
C1886 H1873 0.961 . S
C1886 H1874 0.959 . S
C1886 C1884 1.561 . S
C1887 C1884 1.526 . S
C1887 C1888 1.396 . S
C1887 C1892 1.390 . S
C1888 C1882 1.465 . S
C1888 C1887 1.396 . S
C1888 C1889 1.399 . S
C1889 H1875 0.929 . S
C1889 C1888 1.399 . S
C1889 C1890 1.385 . S
C1890 H1876 0.931 . S
C1890 C1889 1.385 . S
C1890 C1891 1.389 . S
C1891 C1890 1.389 . S
C1891 C1892 1.387 . S
C1892 H1877 0.930 . S
C1892 C1887 1.390 . S
C1892 C1891 1.387 . S
H1893 C1905 0.930 . S
H1894 C1907 0.930 . S
H1895 C1908 0.930 . S
H1896 C1912 0.959 . S
H1897 C1912 0.959 . S
H1898 C1912 0.961 . S
H1899 C1913 0.960 1_655 S
H1900 C1913 0.968 . S
H1901 C1913 0.959 . S
H1902 C1916 0.929 . S
H1903 C1917 0.931 . S
H1904 C1919 0.930 1_655 S
C1905 H1893 0.930 . S
C1905 C1906 1.399 1_655 S
C1905 C1910 1.390 1_655 S
C1906 C1905 1.399 1_455 S
C1906 C1907 1.376 . S
C1907 H1894 0.930 . S
C1907 C1906 1.376 . S
C1907 C1908 1.388 . S
C1908 H1895 0.930 . S
C1908 C1907 1.388 . S
C1908 C1909 1.390 . S
C1909 C1908 1.390 . S
C1909 C1910 1.415 . S
C1909 C1915 1.465 . S
C1910 C1905 1.390 1_455 S
C1910 C1909 1.415 . S
C1910 C1911 1.508 1_455 S
C1911 C1910 1.508 1_655 S
C1911 C1912 1.502 . S
C1911 C1913 1.561 1_655 S
C1911 C1914 1.526 1_655 S
C1912 H1896 0.959 . S
C1912 H1897 0.959 . S
C1912 H1898 0.961 . S
C1912 C1911 1.502 . S
C1913 H1899 0.960 1_455 S
C1913 H1900 0.968 . S
C1913 H1901 0.959 . S
C1913 C1911 1.561 1_455 S
C1914 C1911 1.526 1_455 S
C1914 C1915 1.396 . S
C1914 C1919 1.390 . S
C1915 C1909 1.465 . S
C1915 C1914 1.396 . S
C1915 C1916 1.399 . S
C1916 H1902 0.929 . S
C1916 C1915 1.399 . S
C1916 C1917 1.385 . S
C1917 H1903 0.931 . S
C1917 C1916 1.385 . S
C1917 C1918 1.389 . S
C1918 C1917 1.389 . S
C1918 C1919 1.387 . S
C1919 H1904 0.930 1_455 S
C1919 C1914 1.390 . S
C1919 C1918 1.387 . S
H1920 C1932 0.930 . S
H1921 C1934 0.930 . S
H1922 C1935 0.930 . S
H1923 C1939 0.959 . S
H1924 C1939 0.959 . S
H1925 C1939 0.961 . S
H1926 C1940 0.960 . S
H1927 C1940 0.961 . S
H1928 C1940 0.959 . S
H1929 C1943 0.929 . S
H1930 C1944 0.931 . S
H1931 C1946 0.930 . S
C1932 H1920 0.930 . S
C1932 C1933 1.399 . S
C1932 C1937 1.399 . S
C1933 C1932 1.399 . S
C1933 C1934 1.376 . S
C1934 H1921 0.930 . S
C1934 C1933 1.376 . S
C1934 C1935 1.388 . S
C1935 H1922 0.930 . S
C1935 C1934 1.388 . S
C1935 C1936 1.390 . S
C1936 C1935 1.390 . S
C1936 C1937 1.394 . S
C1936 C1942 1.465 . S
C1937 C1932 1.399 . S
C1937 C1936 1.394 . S
C1937 C1938 1.516 . S
C1938 C1937 1.516 . S
C1938 C1939 1.502 . S
C1938 C1940 1.561 . S
C1938 C1941 1.526 . S
C1939 H1923 0.959 . S
C1939 H1924 0.959 . S
C1939 H1925 0.961 . S
C1939 C1938 1.502 . S
C1940 H1926 0.960 . S
C1940 H1927 0.961 . S
C1940 H1928 0.959 . S
C1940 C1938 1.561 . S
C1941 C1938 1.526 . S
C1941 C1942 1.396 . S
C1941 C1946 1.390 . S
C1942 C1936 1.465 . S
C1942 C1941 1.396 . S
C1942 C1943 1.399 . S
C1943 H1929 0.929 . S
C1943 C1942 1.399 . S
C1943 C1944 1.385 . S
C1944 H1930 0.931 . S
C1944 C1943 1.385 . S
C1944 C1945 1.389 . S
C1945 C1944 1.389 . S
C1945 C1946 1.387 . S
C1946 H1931 0.930 . S
C1946 C1941 1.390 . S
C1946 C1945 1.387 . S
H1947 C1959 0.930 . S
H1948 C1961 0.930 . S
H1949 C1962 0.930 . S
H1950 C1966 0.959 . S
H1951 C1966 0.954 1_554 S
H1952 C1966 0.961 . S
H1953 C1967 0.960 . S
H1954 C1967 0.961 . S
H1955 C1967 0.959 . S
H1956 C1970 0.929 . S
H1957 C1971 0.931 . S
H1958 C1973 0.930 . S
C1959 H1947 0.930 . S
C1959 C1960 1.399 . S
C1959 C1964 1.399 . S
C1960 C1959 1.399 . S
C1960 C1961 1.376 . S
C1961 H1948 0.930 . S
C1961 C1960 1.376 . S
C1961 C1962 1.388 . S
C1962 H1949 0.930 . S
C1962 C1961 1.388 . S
C1962 C1963 1.390 . S
C1963 C1962 1.390 . S
C1963 C1964 1.394 . S
C1963 C1969 1.465 . S
C1964 C1959 1.399 . S
C1964 C1963 1.394 . S
C1964 C1965 1.516 . S
C1965 C1964 1.516 . S
C1965 C1966 1.502 . S
C1965 C1967 1.561 . S
C1965 C1968 1.526 . S
C1966 H1950 0.959 . S
C1966 H1951 0.954 1_556 S
C1966 H1952 0.961 . S
C1966 C1965 1.502 . S
C1967 H1953 0.960 . S
C1967 H1954 0.961 . S
C1967 H1955 0.959 . S
C1967 C1965 1.561 . S
C1968 C1965 1.526 . S
C1968 C1969 1.396 . S
C1968 C1973 1.390 . S
C1969 C1963 1.465 . S
C1969 C1968 1.396 . S
C1969 C1970 1.399 . S
C1970 H1956 0.929 . S
C1970 C1969 1.399 . S
C1970 C1971 1.385 . S
C1971 H1957 0.931 . S
C1971 C1970 1.385 . S
C1971 C1972 1.389 . S
C1972 C1971 1.389 . S
C1972 C1973 1.387 . S
C1973 H1958 0.930 . S
C1973 C1968 1.390 . S
C1973 C1972 1.387 . S
H1974 C1986 0.930 . S
H1975 C1988 0.930 . S
H1976 C1989 0.930 . S
H1977 C1993 0.959 . S
H1978 C1993 0.959 . S
H1979 C1993 0.961 . S
H1980 C1994 0.960 . S
H1981 C1994 0.961 . S
H1982 C1994 0.959 . S
H1983 C1997 0.929 . S
H1984 C1998 0.931 . S
H1985 C2000 0.930 . S
C1986 H1974 0.930 . S
C1986 C1987 1.399 1_545 S
C1986 C1991 1.399 . S
C1987 C1986 1.399 1_565 S
C1987 C1988 1.376 . S
C1988 H1975 0.930 . S
C1988 C1987 1.376 . S
C1988 C1989 1.388 . S
C1989 H1976 0.930 . S
C1989 C1988 1.388 . S
C1989 C1990 1.390 . S
C1990 C1989 1.390 . S
C1990 C1991 1.394 1_565 S
C1990 C1996 1.465 . S
C1991 C1986 1.399 . S
C1991 C1990 1.394 1_545 S
C1991 C1992 1.516 . S
C1992 C1991 1.516 . S
C1992 C1993 1.502 . S
C1992 C1994 1.561 . S
C1992 C1995 1.526 . S
C1993 H1977 0.959 . S
C1993 H1978 0.959 . S
C1993 H1979 0.961 . S
C1993 C1992 1.502 . S
C1994 H1980 0.960 . S
C1994 H1981 0.961 . S
C1994 H1982 0.959 . S
C1994 C1992 1.561 . S
C1995 C1992 1.526 . S
C1995 C1996 1.396 1_545 S
C1995 C2000 1.390 . S
C1996 C1990 1.465 . S
C1996 C1995 1.396 1_565 S
C1996 C1997 1.399 . S
C1997 H1983 0.929 . S
C1997 C1996 1.399 . S
C1997 C1998 1.385 . S
C1998 H1984 0.931 . S
C1998 C1997 1.385 . S
C1998 C1999 1.389 . S
C1999 C1998 1.389 . S
C1999 C2000 1.387 1_565 S
C2000 H1985 0.930 . S
C2000 C1995 1.390 . S
C2000 C1999 1.387 1_545 S
H2001 C2013 0.930 . S
H2002 C2015 0.930 . S
H2003 C2016 0.930 . S
H2004 C2020 0.959 . S
H2005 C2020 0.959 . S
H2006 C2020 0.961 . S
H2007 C2021 0.960 . S
H2008 C2021 0.961 . S
H2009 C2021 0.959 . S
H2010 C2024 0.929 . S
H2011 C2025 0.931 . S
H2012 C2027 0.930 . S
C2013 H2001 0.930 . S
C2013 C2014 1.399 . S
C2013 C2018 1.399 . S
C2014 C2013 1.399 . S
C2014 C2015 1.376 . S
C2015 H2002 0.930 . S
C2015 C2014 1.376 . S
C2015 C2016 1.388 . S
C2016 H2003 0.930 . S
C2016 C2015 1.388 . S
C2016 C2017 1.390 . S
C2017 C2016 1.390 . S
C2017 C2018 1.394 . S
C2017 C2023 1.465 . S
C2018 C2013 1.399 . S
C2018 C2017 1.394 . S
C2018 C2019 1.516 . S
C2019 C2018 1.516 . S
C2019 C2020 1.502 . S
C2019 C2021 1.561 . S
C2019 C2022 1.526 . S
C2020 H2004 0.959 . S
C2020 H2005 0.959 . S
C2020 H2006 0.961 . S
C2020 C2019 1.502 . S
C2021 H2007 0.960 . S
C2021 H2008 0.961 . S
C2021 H2009 0.959 . S
C2021 C2019 1.561 . S
C2022 C2019 1.526 . S
C2022 C2023 1.396 . S
C2022 C2027 1.390 . S
C2023 C2017 1.465 . S
C2023 C2022 1.396 . S
C2023 C2024 1.399 . S
C2024 H2010 0.929 . S
C2024 C2023 1.399 . S
C2024 C2025 1.385 . S
C2025 H2011 0.931 . S
C2025 C2024 1.385 . S
C2025 C2026 1.389 . S
C2026 C2025 1.389 . S
C2026 C2027 1.387 . S
C2027 H2012 0.930 . S
C2027 C2022 1.390 . S
C2027 C2026 1.387 . S
H2028 C2040 0.930 . S
H2029 C2042 0.930 . S
H2030 C2043 0.930 . S
H2031 C2047 0.959 . S
H2032 C2047 0.959 . S
H2033 C2047 0.961 . S
H2034 C2048 0.960 . S
H2035 C2048 0.961 . S
H2036 C2048 0.959 . S
H2037 C2051 0.929 . S
H2038 C2052 0.931 . S
H2039 C2054 0.930 . S
C2040 H2028 0.930 . S
C2040 C2041 1.399 . S
C2040 C2045 1.399 . S
C2041 C2040 1.399 . S
C2041 C2042 1.376 . S
C2042 H2029 0.930 . S
C2042 C2041 1.376 . S
C2042 C2043 1.388 . S
C2043 H2030 0.930 . S
C2043 C2042 1.388 . S
C2043 C2044 1.390 . S
C2044 C2043 1.390 . S
C2044 C2045 1.394 . S
C2044 C2050 1.465 . S
C2045 C2040 1.399 . S
C2045 C2044 1.394 . S
C2045 C2046 1.516 . S
C2046 C2045 1.516 . S
C2046 C2047 1.502 . S
C2046 C2048 1.561 . S
C2046 C2049 1.526 . S
C2047 H2031 0.959 . S
C2047 H2032 0.959 . S
C2047 H2033 0.961 . S
C2047 C2046 1.502 . S
C2048 H2034 0.960 . S
C2048 H2035 0.961 . S
C2048 H2036 0.959 . S
C2048 C2046 1.561 . S
C2049 C2046 1.526 . S
C2049 C2050 1.396 . S
C2049 C2054 1.390 . S
C2050 C2044 1.465 . S
C2050 C2049 1.396 . S
C2050 C2051 1.399 . S
C2051 H2037 0.929 . S
C2051 C2050 1.399 . S
C2051 C2052 1.385 . S
C2052 H2038 0.931 . S
C2052 C2051 1.385 . S
C2052 C2053 1.389 . S
C2053 C2052 1.389 . S
C2053 C2054 1.387 . S
C2054 H2039 0.930 . S
C2054 C2049 1.390 . S
C2054 C2053 1.387 . S
H2055 C2067 0.930 . S
H2056 C2069 0.930 . S
H2057 C2070 0.930 . S
H2058 C2074 0.959 . S
H2059 C2074 0.959 . S
H2060 C2074 0.961 . S
H2061 C2075 0.960 . S
H2062 C2075 0.961 . S
H2063 C2075 0.959 . S
H2064 C2078 0.929 . S
H2065 C2079 0.931 . S
H2066 C2081 0.930 . S
C2067 H2055 0.930 . S
C2067 C2068 1.399 . S
C2067 C2072 1.399 . S
C2068 C2067 1.399 . S
C2068 C2069 1.376 . S
C2069 H2056 0.930 . S
C2069 C2068 1.376 . S
C2069 C2070 1.388 . S
C2070 H2057 0.930 . S
C2070 C2069 1.388 . S
C2070 C2071 1.390 . S
C2071 C2070 1.390 . S
C2071 C2072 1.394 . S
C2071 C2077 1.465 . S
C2072 C2067 1.399 . S
C2072 C2071 1.394 . S
C2072 C2073 1.516 . S
C2073 C2072 1.516 . S
C2073 C2074 1.502 . S
C2073 C2075 1.561 . S
C2073 C2076 1.526 . S
C2074 H2058 0.959 . S
C2074 H2059 0.959 . S
C2074 H2060 0.961 . S
C2074 C2073 1.502 . S
C2075 H2061 0.960 . S
C2075 H2062 0.961 . S
C2075 H2063 0.959 . S
C2075 C2073 1.561 . S
C2076 C2073 1.526 . S
C2076 C2077 1.396 . S
C2076 C2081 1.390 . S
C2077 C2071 1.465 . S
C2077 C2076 1.396 . S
C2077 C2078 1.399 . S
C2078 H2064 0.929 . S
C2078 C2077 1.399 . S
C2078 C2079 1.385 . S
C2079 H2065 0.931 . S
C2079 C2078 1.385 . S
C2079 C2080 1.389 . S
C2080 C2079 1.389 . S
C2080 C2081 1.387 . S
C2081 H2066 0.930 . S
C2081 C2076 1.390 . S
C2081 C2080 1.387 . S
H2082 C2094 0.930 . S
H2083 C2096 0.930 . S
H2084 C2097 0.930 . S
H2085 C2101 0.959 . S
H2086 C2101 0.959 . S
H2087 C2101 0.961 . S
H2088 C2102 0.960 . S
H2089 C2102 0.961 . S
H2090 C2102 0.959 . S
H2091 C2105 0.929 . S
H2092 C2106 0.931 . S
H2093 C2108 0.930 . S
C2094 H2082 0.930 . S
C2094 C2095 1.399 . S
C2094 C2099 1.399 . S
C2095 C2094 1.399 . S
C2095 C2096 1.376 . S
C2096 H2083 0.930 . S
C2096 C2095 1.376 . S
C2096 C2097 1.388 . S
C2097 H2084 0.930 . S
C2097 C2096 1.388 . S
C2097 C2098 1.390 . S
C2098 C2097 1.390 . S
C2098 C2099 1.394 . S
C2098 C2104 1.465 . S
C2099 C2094 1.399 . S
C2099 C2098 1.394 . S
C2099 C2100 1.516 . S
C2100 C2099 1.516 . S
C2100 C2101 1.502 . S
C2100 C2102 1.561 . S
C2100 C2103 1.526 . S
C2101 H2085 0.959 . S
C2101 H2086 0.959 . S
C2101 H2087 0.961 . S
C2101 C2100 1.502 . S
C2102 H2088 0.960 . S
C2102 H2089 0.961 . S
C2102 H2090 0.959 . S
C2102 C2100 1.561 . S
C2103 C2100 1.526 . S
C2103 C2104 1.396 . S
C2103 C2108 1.390 . S
C2104 C2098 1.465 . S
C2104 C2103 1.396 . S
C2104 C2105 1.399 . S
C2105 H2091 0.929 . S
C2105 C2104 1.399 . S
C2105 C2106 1.385 . S
C2106 H2092 0.931 . S
C2106 C2105 1.385 . S
C2106 C2107 1.389 . S
C2107 C2106 1.389 . S
C2107 C2108 1.387 . S
C2108 H2093 0.930 . S
C2108 C2103 1.390 . S
C2108 C2107 1.387 . S
H2109 C2121 0.930 . S
H2110 C2123 0.930 . S
H2111 C2124 0.930 . S
H2112 C2128 0.959 . S
H2113 C2128 0.959 . S
H2114 C2128 0.961 . S
H2115 C2129 0.960 . S
H2116 C2129 0.961 . S
H2117 C2129 0.959 . S
H2118 C2132 0.929 . S
H2119 C2133 0.931 . S
H2120 C2135 0.930 . S
C2121 H2109 0.930 . S
C2121 C2122 1.369 1_554 S
C2121 C2126 1.399 . S
C2122 C2121 1.369 1_556 S
C2122 C2123 1.410 . S
C2123 H2110 0.930 . S
C2123 C2122 1.410 . S
C2123 C2124 1.388 . S
C2124 H2111 0.930 . S
C2124 C2123 1.388 . S
C2124 C2125 1.390 . S
C2125 C2124 1.390 . S
C2125 C2126 1.394 1_556 S
C2125 C2131 1.465 . S
C2126 C2121 1.399 . S
C2126 C2125 1.394 1_554 S
C2126 C2127 1.516 . S
C2127 C2126 1.516 . S
C2127 C2128 1.502 . S
C2127 C2129 1.561 . S
C2127 C2130 1.526 . S
C2128 H2112 0.959 . S
C2128 H2113 0.959 . S
C2128 H2114 0.961 . S
C2128 C2127 1.502 . S
C2129 H2115 0.960 . S
C2129 H2116 0.961 . S
C2129 H2117 0.959 . S
C2129 C2127 1.561 . S
C2130 C2127 1.526 . S
C2130 C2131 1.396 1_554 S
C2130 C2135 1.390 . S
C2131 C2125 1.465 . S
C2131 C2130 1.396 1_556 S
C2131 C2132 1.399 . S
C2132 H2118 0.929 . S
C2132 C2131 1.399 . S
C2132 C2133 1.385 . S
C2133 H2119 0.931 . S
C2133 C2132 1.385 . S
C2133 C2134 1.389 . S
C2134 C2133 1.389 . S
C2134 C2135 1.387 1_556 S
C2135 H2120 0.930 . S
C2135 C2130 1.390 . S
C2135 C2134 1.387 1_554 S
H2136 C2148 0.930 . S
H2137 C2150 0.930 . S
H2138 C2151 0.930 . S
H2139 C2155 0.959 . S
H2140 C2155 0.959 . S
H2141 C2155 0.961 . S
H2142 C2156 0.960 . S
H2143 C2156 0.961 . S
H2144 C2156 0.959 . S
H2145 C2159 0.929 . S
H2146 C2160 0.931 . S
H2147 C2162 0.930 . S
C2148 H2136 0.930 . S
C2148 C2149 1.399 . S
C2148 C2153 1.399 . S
C2149 C2148 1.399 . S
C2149 C2150 1.376 . S
C2150 H2137 0.930 . S
C2150 C2149 1.376 . S
C2150 C2151 1.388 . S
C2151 H2138 0.930 . S
C2151 C2150 1.388 . S
C2151 C2152 1.390 . S
C2152 C2151 1.390 . S
C2152 C2153 1.394 . S
C2152 C2158 1.465 . S
C2153 C2148 1.399 . S
C2153 C2152 1.394 . S
C2153 C2154 1.516 . S
C2154 C2153 1.516 . S
C2154 C2155 1.502 . S
C2154 C2156 1.561 . S
C2154 C2157 1.526 . S
C2155 H2139 0.959 . S
C2155 H2140 0.959 . S
C2155 H2141 0.961 . S
C2155 C2154 1.502 . S
C2156 H2142 0.960 . S
C2156 H2143 0.961 . S
C2156 H2144 0.959 . S
C2156 C2154 1.561 . S
C2157 C2154 1.526 . S
C2157 C2158 1.396 . S
C2157 C2162 1.390 . S
C2158 C2152 1.465 . S
C2158 C2157 1.396 . S
C2158 C2159 1.399 . S
C2159 H2145 0.929 . S
C2159 C2158 1.399 . S
C2159 C2160 1.385 . S
C2160 H2146 0.931 . S
C2160 C2159 1.385 . S
C2160 C2161 1.389 . S
C2161 C2160 1.389 . S
C2161 C2162 1.387 . S
C2162 H2147 0.930 . S
C2162 C2157 1.390 . S
C2162 C2161 1.387 . S
H2163 C2175 0.930 . S
H2164 C2177 0.930 . S
H2165 C2178 0.930 . S
H2166 C2182 0.959 . S
H2167 C2182 0.959 . S
H2168 C2182 0.961 . S
H2169 C2183 0.960 . S
H2170 C2183 0.961 . S
H2171 C2183 0.959 . S
H2172 C2186 0.929 . S
H2173 C2187 0.931 . S
H2174 C2189 0.930 . S
C2175 H2163 0.930 . S
C2175 C2176 1.399 . S
C2175 C2180 1.399 . S
C2176 C2175 1.399 . S
C2176 C2177 1.376 . S
C2177 H2164 0.930 . S
C2177 C2176 1.376 . S
C2177 C2178 1.388 . S
C2178 H2165 0.930 . S
C2178 C2177 1.388 . S
C2178 C2179 1.390 . S
C2179 C2178 1.390 . S
C2179 C2180 1.394 . S
C2179 C2185 1.465 . S
C2180 C2175 1.399 . S
C2180 C2179 1.394 . S
C2180 C2181 1.516 . S
C2181 C2180 1.516 . S
C2181 C2182 1.502 . S
C2181 C2183 1.561 . S
C2181 C2184 1.526 . S
C2182 H2166 0.959 . S
C2182 H2167 0.959 . S
C2182 H2168 0.961 . S
C2182 C2181 1.502 . S
C2183 H2169 0.960 . S
C2183 H2170 0.961 . S
C2183 H2171 0.959 . S
C2183 C2181 1.561 . S
C2184 C2181 1.526 . S
C2184 C2185 1.396 . S
C2184 C2189 1.390 . S
C2185 C2179 1.465 . S
C2185 C2184 1.396 . S
C2185 C2186 1.399 . S
C2186 H2172 0.929 . S
C2186 C2185 1.399 . S
C2186 C2187 1.385 . S
C2187 H2173 0.931 . S
C2187 C2186 1.385 . S
C2187 C2188 1.389 . S
C2188 C2187 1.389 . S
C2188 C2189 1.387 . S
C2189 H2174 0.930 . S
C2189 C2184 1.390 . S
C2189 C2188 1.387 . S
H2190 C2202 0.930 . S
H2191 C2204 0.930 . S
H2192 C2205 0.930 . S
H2193 C2209 0.959 . S
H2194 C2209 0.959 . S
H2195 C2209 0.961 . S
H2196 C2210 0.960 . S
H2197 C2210 0.961 1_545 S
H2198 C2210 0.959 . S
H2199 C2213 0.929 . S
H2200 C2214 0.931 . S
H2201 C2216 0.930 . S
C2202 H2190 0.930 . S
C2202 C2203 1.399 . S
C2202 C2207 1.399 . S
C2203 C2202 1.399 . S
C2203 C2204 1.376 . S
C2204 H2191 0.930 . S
C2204 C2203 1.376 . S
C2204 C2205 1.388 . S
C2205 H2192 0.930 . S
C2205 C2204 1.388 . S
C2205 C2206 1.390 . S
C2206 C2205 1.390 . S
C2206 C2207 1.394 . S
C2206 C2212 1.465 . S
C2207 C2202 1.399 . S
C2207 C2206 1.394 . S
C2207 C2208 1.516 . S
C2208 C2207 1.516 . S
C2208 C2209 1.502 . S
C2208 C2210 1.561 . S
C2208 C2211 1.526 . S
C2209 H2193 0.959 . S
C2209 H2194 0.959 . S
C2209 H2195 0.961 . S
C2209 C2208 1.502 . S
C2210 H2196 0.960 . S
C2210 H2197 0.961 1_565 S
C2210 H2198 0.959 . S
C2210 C2208 1.561 . S
C2211 C2208 1.526 . S
C2211 C2212 1.396 . S
C2211 C2216 1.390 . S
C2212 C2206 1.465 . S
C2212 C2211 1.396 . S
C2212 C2213 1.399 . S
C2213 H2199 0.929 . S
C2213 C2212 1.399 . S
C2213 C2214 1.385 . S
C2214 H2200 0.931 . S
C2214 C2213 1.385 . S
C2214 C2215 1.389 . S
C2215 C2214 1.389 . S
C2215 C2216 1.387 . S
C2216 H2201 0.930 . S
C2216 C2211 1.390 . S
C2216 C2215 1.387 . S
H2217 C2229 0.933 . S
H2218 C2231 0.930 . S
H2219 C2232 0.930 . S
H2220 C2236 0.959 . S
H2221 C2236 0.959 . S
H2222 C2236 0.961 . S
H2223 C2237 0.960 . S
H2224 C2237 0.961 . S
H2225 C2237 0.959 . S
H2226 C2240 0.929 . S
H2227 C2241 0.931 . S
H2228 C2243 0.931 1_455 S
C2229 H2217 0.933 . S
C2229 C2230 1.397 1_455 S
C2229 C2234 1.400 1_455 S
C2230 C2229 1.397 1_655 S
C2230 C2231 1.376 . S
C2231 H2218 0.930 . S
C2231 C2230 1.376 . S
C2231 C2232 1.388 . S
C2232 H2219 0.930 . S
C2232 C2231 1.388 . S
C2232 C2233 1.390 . S
C2233 C2232 1.390 . S
C2233 C2234 1.394 . S
C2233 C2239 1.465 . S
C2234 C2229 1.400 1_655 S
C2234 C2233 1.394 . S
C2234 C2235 1.517 . S
C2235 C2234 1.517 . S
C2235 C2236 1.478 1_655 S
C2235 C2237 1.590 . S
C2235 C2238 1.524 . S
C2236 H2220 0.959 . S
C2236 H2221 0.959 . S
C2236 H2222 0.961 . S
C2236 C2235 1.478 1_455 S
C2237 H2223 0.960 . S
C2237 H2224 0.961 . S
C2237 H2225 0.959 . S
C2237 C2235 1.590 . S
C2238 C2235 1.524 . S
C2238 C2239 1.396 . S
C2238 C2243 1.396 . S
C2239 C2233 1.465 . S
C2239 C2238 1.396 . S
C2239 C2240 1.399 . S
C2240 H2226 0.929 . S
C2240 C2239 1.399 . S
C2240 C2241 1.385 . S
C2241 H2227 0.931 . S
C2241 C2240 1.385 . S
C2241 C2242 1.389 . S
C2242 C2241 1.389 . S
C2242 C2243 1.385 . S
C2243 H2228 0.931 1_655 S
C2243 C2238 1.396 . S
C2243 C2242 1.385 . S
H2244 C2256 0.930 . S
H2245 C2258 0.930 . S
H2246 C2259 0.930 . S
H2247 C2263 0.959 . S
H2248 C2263 0.959 . S
H2249 C2263 0.961 . S
H2250 C2264 0.960 . S
H2251 C2264 0.961 . S
H2252 C2264 0.959 . S
H2253 C2267 0.929 . S
H2254 C2268 0.931 . S
H2255 C2270 0.930 . S
C2256 H2244 0.930 . S
C2256 C2257 1.399 . S
C2256 C2261 1.399 . S
C2257 C2256 1.399 . S
C2257 C2258 1.376 . S
C2258 H2245 0.930 . S
C2258 C2257 1.376 . S
C2258 C2259 1.388 . S
C2259 H2246 0.930 . S
C2259 C2258 1.388 . S
C2259 C2260 1.390 . S
C2260 C2259 1.390 . S
C2260 C2261 1.394 . S
C2260 C2266 1.465 . S
C2261 C2256 1.399 . S
C2261 C2260 1.394 . S
C2261 C2262 1.516 . S
C2262 C2261 1.516 . S
C2262 C2263 1.502 . S
C2262 C2264 1.561 . S
C2262 C2265 1.526 . S
C2263 H2247 0.959 . S
C2263 H2248 0.959 . S
C2263 H2249 0.961 . S
C2263 C2262 1.502 . S
C2264 H2250 0.960 . S
C2264 H2251 0.961 . S
C2264 H2252 0.959 . S
C2264 C2262 1.561 . S
C2265 C2262 1.526 . S
C2265 C2266 1.396 . S
C2265 C2270 1.390 . S
C2266 C2260 1.465 . S
C2266 C2265 1.396 . S
C2266 C2267 1.399 . S
C2267 H2253 0.929 . S
C2267 C2266 1.399 . S
C2267 C2268 1.385 . S
C2268 H2254 0.931 . S
C2268 C2267 1.385 . S
C2268 C2269 1.389 . S
C2269 C2268 1.389 . S
C2269 C2270 1.387 . S
C2270 H2255 0.930 . S
C2270 C2265 1.390 . S
C2270 C2269 1.387 . S
H2271 C2283 0.930 . S
H2272 C2285 0.930 . S
H2273 C2286 0.930 . S
H2274 C2290 0.959 . S
H2275 C2290 0.959 . S
H2276 C2290 0.961 . S
H2277 C2291 0.960 . S
H2278 C2291 0.961 . S
H2279 C2291 0.959 . S
H2280 C2294 0.929 . S
H2281 C2295 0.931 . S
H2282 C2297 0.930 . S
C2283 H2271 0.930 . S
C2283 C2284 1.399 . S
C2283 C2288 1.399 . S
C2284 C2283 1.399 . S
C2284 C2285 1.376 . S
C2285 H2272 0.930 . S
C2285 C2284 1.376 . S
C2285 C2286 1.388 . S
C2286 H2273 0.930 . S
C2286 C2285 1.388 . S
C2286 C2287 1.390 . S
C2287 C2286 1.390 . S
C2287 C2288 1.394 . S
C2287 C2293 1.465 . S
C2288 C2283 1.399 . S
C2288 C2287 1.394 . S
C2288 C2289 1.516 . S
C2289 C2288 1.516 . S
C2289 C2290 1.502 . S
C2289 C2291 1.561 . S
C2289 C2292 1.526 . S
C2290 H2274 0.959 . S
C2290 H2275 0.959 . S
C2290 H2276 0.961 . S
C2290 C2289 1.502 . S
C2291 H2277 0.960 . S
C2291 H2278 0.961 . S
C2291 H2279 0.959 . S
C2291 C2289 1.561 . S
C2292 C2289 1.526 . S
C2292 C2293 1.396 . S
C2292 C2297 1.390 . S
C2293 C2287 1.465 . S
C2293 C2292 1.396 . S
C2293 C2294 1.399 . S
C2294 H2280 0.929 . S
C2294 C2293 1.399 . S
C2294 C2295 1.385 . S
C2295 H2281 0.931 . S
C2295 C2294 1.385 . S
C2295 C2296 1.389 . S
C2296 C2295 1.389 . S
C2296 C2297 1.387 . S
C2297 H2282 0.930 . S
C2297 C2292 1.390 . S
C2297 C2296 1.387 . S
H2298 C2310 0.930 . S
H2299 C2312 0.930 . S
H2300 C2313 0.930 . S
H2301 C2317 0.959 . S
H2302 C2317 0.959 . S
H2303 C2317 0.961 . S
H2304 C2318 0.960 . S
H2305 C2318 0.961 . S
H2306 C2318 0.959 . S
H2307 C2321 0.929 . S
H2308 C2322 0.931 . S
H2309 C2324 0.930 . S
C2310 H2298 0.930 . S
C2310 C2311 1.399 1_565 S
C2310 C2315 1.399 . S
C2311 C2310 1.399 1_545 S
C2311 C2312 1.376 . S
C2312 H2299 0.930 . S
C2312 C2311 1.376 . S
C2312 C2313 1.388 . S
C2313 H2300 0.930 . S
C2313 C2312 1.388 . S
C2313 C2314 1.390 . S
C2314 C2313 1.390 . S
C2314 C2315 1.394 1_545 S
C2314 C2320 1.465 . S
C2315 C2310 1.399 . S
C2315 C2314 1.394 1_565 S
C2315 C2316 1.516 . S
C2316 C2315 1.516 . S
C2316 C2317 1.502 . S
C2316 C2318 1.561 . S
C2316 C2319 1.526 . S
C2317 H2301 0.959 . S
C2317 H2302 0.959 . S
C2317 H2303 0.961 . S
C2317 C2316 1.502 . S
C2318 H2304 0.960 . S
C2318 H2305 0.961 . S
C2318 H2306 0.959 . S
C2318 C2316 1.561 . S
C2319 C2316 1.526 . S
C2319 C2320 1.396 1_565 S
C2319 C2324 1.390 . S
C2320 C2314 1.465 . S
C2320 C2319 1.396 1_545 S
C2320 C2321 1.399 . S
C2321 H2307 0.929 . S
C2321 C2320 1.399 . S
C2321 C2322 1.385 . S
C2322 H2308 0.931 . S
C2322 C2321 1.385 . S
C2322 C2323 1.389 . S
C2323 C2322 1.389 . S
C2323 C2324 1.387 1_545 S
C2324 H2309 0.930 . S
C2324 C2319 1.390 . S
C2324 C2323 1.387 1_565 S
H2325 C2337 0.930 . S
H2326 C2339 0.930 . S
H2327 C2340 0.930 . S
H2328 C2344 0.959 . S
H2329 C2344 0.959 . S
H2330 C2344 0.961 . S
H2331 C2345 0.960 1_565 S
H2332 C2345 0.961 . S
H2333 C2345 0.959 . S
H2334 C2348 0.929 . S
H2335 C2349 0.931 . S
H2336 C2351 0.930 . S
C2337 H2325 0.930 . S
C2337 C2338 1.399 . S
C2337 C2342 1.399 . S
C2338 C2337 1.399 . S
C2338 C2339 1.376 . S
C2339 H2326 0.930 . S
C2339 C2338 1.376 . S
C2339 C2340 1.388 . S
C2340 H2327 0.930 . S
C2340 C2339 1.388 . S
C2340 C2341 1.390 . S
C2341 C2340 1.390 . S
C2341 C2342 1.394 . S
C2341 C2347 1.465 . S
C2342 C2337 1.399 . S
C2342 C2341 1.394 . S
C2342 C2343 1.516 . S
C2343 C2342 1.516 . S
C2343 C2344 1.502 . S
C2343 C2345 1.561 . S
C2343 C2346 1.526 . S
C2344 H2328 0.959 . S
C2344 H2329 0.959 . S
C2344 H2330 0.961 . S
C2344 C2343 1.502 . S
C2345 H2331 0.960 1_545 S
C2345 H2332 0.961 . S
C2345 H2333 0.959 . S
C2345 C2343 1.561 . S
C2346 C2343 1.526 . S
C2346 C2347 1.396 . S
C2346 C2351 1.390 . S
C2347 C2341 1.465 . S
C2347 C2346 1.396 . S
C2347 C2348 1.399 . S
C2348 H2334 0.929 . S
C2348 C2347 1.399 . S
C2348 C2349 1.385 . S
C2349 H2335 0.931 . S
C2349 C2348 1.385 . S
C2349 C2350 1.389 . S
C2350 C2349 1.389 . S
C2350 C2351 1.387 . S
C2351 H2336 0.930 . S
C2351 C2346 1.390 . S
C2351 C2350 1.387 . S
H2352 C2364 0.930 . S
H2353 C2366 0.930 . S
H2354 C2367 0.930 . S
H2355 C2371 0.959 . S
H2356 C2371 0.959 . S
H2357 C2371 0.961 . S
H2358 C2372 0.960 . S
H2359 C2372 0.961 . S
H2360 C2372 0.959 . S
H2361 C2375 0.929 . S
H2362 C2376 0.931 . S
H2363 C2378 0.930 . S
C2364 H2352 0.930 . S
C2364 C2365 1.399 . S
C2364 C2369 1.399 . S
C2365 C2364 1.399 . S
C2365 C2366 1.376 . S
C2366 H2353 0.930 . S
C2366 C2365 1.376 . S
C2366 C2367 1.388 . S
C2367 H2354 0.930 . S
C2367 C2366 1.388 . S
C2367 C2368 1.390 . S
C2368 C2367 1.390 . S
C2368 C2369 1.394 . S
C2368 C2374 1.465 . S
C2369 C2364 1.399 . S
C2369 C2368 1.394 . S
C2369 C2370 1.516 . S
C2370 C2369 1.516 . S
C2370 C2371 1.502 . S
C2370 C2372 1.561 . S
C2370 C2373 1.526 . S
C2371 H2355 0.959 . S
C2371 H2356 0.959 . S
C2371 H2357 0.961 . S
C2371 C2370 1.502 . S
C2372 H2358 0.960 . S
C2372 H2359 0.961 . S
C2372 H2360 0.959 . S
C2372 C2370 1.561 . S
C2373 C2370 1.526 . S
C2373 C2374 1.396 . S
C2373 C2378 1.390 . S
C2374 C2368 1.465 . S
C2374 C2373 1.396 . S
C2374 C2375 1.399 . S
C2375 H2361 0.929 . S
C2375 C2374 1.399 . S
C2375 C2376 1.385 . S
C2376 H2362 0.931 . S
C2376 C2375 1.385 . S
C2376 C2377 1.389 . S
C2377 C2376 1.389 . S
C2377 C2378 1.387 . S
C2378 H2363 0.930 . S
C2378 C2373 1.390 . S
C2378 C2377 1.387 . S
H2379 C2391 0.930 . S
H2380 C2393 0.930 . S
H2381 C2394 0.930 . S
H2382 C2398 0.959 . S
H2383 C2398 0.959 . S
H2384 C2398 0.961 . S
H2385 C2399 0.960 1_556 S
H2386 C2399 0.961 . S
H2387 C2399 0.959 . S
H2388 C2402 0.929 . S
H2389 C2403 0.931 . S
H2390 C2405 0.930 . S
C2391 H2379 0.930 . S
C2391 C2392 1.399 . S
C2391 C2396 1.399 . S
C2392 C2391 1.399 . S
C2392 C2393 1.376 . S
C2393 H2380 0.930 . S
C2393 C2392 1.376 . S
C2393 C2394 1.388 . S
C2394 H2381 0.930 . S
C2394 C2393 1.388 . S
C2394 C2395 1.390 . S
C2395 C2394 1.390 . S
C2395 C2396 1.394 . S
C2395 C2401 1.465 . S
C2396 C2391 1.399 . S
C2396 C2395 1.394 . S
C2396 C2397 1.516 . S
C2397 C2396 1.516 . S
C2397 C2398 1.502 . S
C2397 C2399 1.561 . S
C2397 C2400 1.526 . S
C2398 H2382 0.959 . S
C2398 H2383 0.959 . S
C2398 H2384 0.961 . S
C2398 C2397 1.502 . S
C2399 H2385 0.960 1_554 S
C2399 H2386 0.961 . S
C2399 H2387 0.959 . S
C2399 C2397 1.561 . S
C2400 C2397 1.526 . S
C2400 C2401 1.396 . S
C2400 C2405 1.390 . S
C2401 C2395 1.465 . S
C2401 C2400 1.396 . S
C2401 C2402 1.399 . S
C2402 H2388 0.929 . S
C2402 C2401 1.399 . S
C2402 C2403 1.385 . S
C2403 H2389 0.931 . S
C2403 C2402 1.385 . S
C2403 C2404 1.389 . S
C2404 C2403 1.389 . S
C2404 C2405 1.387 . S
C2405 H2390 0.930 . S
C2405 C2400 1.390 . S
C2405 C2404 1.387 . S
H2406 C2418 0.930 . S
H2407 C2420 0.930 . S
H2408 C2421 0.930 . S
H2409 C2425 0.959 . S
H2410 C2425 0.959 . S
H2411 C2425 0.961 . S
H2412 C2426 0.960 . S
H2413 C2426 0.961 . S
H2414 C2426 0.959 . S
H2415 C2429 0.929 . S
H2416 C2430 0.931 . S
H2417 C2432 0.930 . S
C2418 H2406 0.930 . S
C2418 C2419 1.399 . S
C2418 C2423 1.399 . S
C2419 C2418 1.399 . S
C2419 C2420 1.376 . S
C2420 H2407 0.930 . S
C2420 C2419 1.376 . S
C2420 C2421 1.388 . S
C2421 H2408 0.930 . S
C2421 C2420 1.388 . S
C2421 C2422 1.390 . S
C2422 C2421 1.390 . S
C2422 C2423 1.394 . S
C2422 C2428 1.465 . S
C2423 C2418 1.399 . S
C2423 C2422 1.394 . S
C2423 C2424 1.516 . S
C2424 C2423 1.516 . S
C2424 C2425 1.502 . S
C2424 C2426 1.561 . S
C2424 C2427 1.526 . S
C2425 H2409 0.959 . S
C2425 H2410 0.959 . S
C2425 H2411 0.961 . S
C2425 C2424 1.502 . S
C2426 H2412 0.960 . S
C2426 H2413 0.961 . S
C2426 H2414 0.959 . S
C2426 C2424 1.561 . S
C2427 C2424 1.526 . S
C2427 C2428 1.396 . S
C2427 C2432 1.390 . S
C2428 C2422 1.465 . S
C2428 C2427 1.396 . S
C2428 C2429 1.399 . S
C2429 H2415 0.929 . S
C2429 C2428 1.399 . S
C2429 C2430 1.385 . S
C2430 H2416 0.931 . S
C2430 C2429 1.385 . S
C2430 C2431 1.389 . S
C2431 C2430 1.389 . S
C2431 C2432 1.387 . S
C2432 H2417 0.930 . S
C2432 C2427 1.390 . S
C2432 C2431 1.387 . S
H2433 C2445 0.930 . S
H2434 C2447 0.930 . S
H2435 C2448 0.930 . S
H2436 C2452 0.959 . S
H2437 C2452 0.959 . S
H2438 C2452 0.961 . S
H2439 C2453 0.960 . S
H2440 C2453 0.961 . S
H2441 C2453 0.959 . S
H2442 C2456 0.929 . S
H2443 C2457 0.931 . S
H2444 C2459 0.930 . S
C2445 H2433 0.930 . S
C2445 C2446 1.399 1_556 S
C2445 C2450 1.399 . S
C2446 C2445 1.399 1_554 S
C2446 C2447 1.376 . S
C2447 H2434 0.930 . S
C2447 C2446 1.376 . S
C2447 C2448 1.388 . S
C2448 H2435 0.930 . S
C2448 C2447 1.388 . S
C2448 C2449 1.390 . S
C2449 C2448 1.390 . S
C2449 C2450 1.394 1_554 S
C2449 C2455 1.465 . S
C2450 C2445 1.399 . S
C2450 C2449 1.394 1_556 S
C2450 C2451 1.516 . S
C2451 C2450 1.516 . S
C2451 C2452 1.502 . S
C2451 C2453 1.561 . S
C2451 C2454 1.526 . S
C2452 H2436 0.959 . S
C2452 H2437 0.959 . S
C2452 H2438 0.961 . S
C2452 C2451 1.502 . S
C2453 H2439 0.960 . S
C2453 H2440 0.961 . S
C2453 H2441 0.959 . S
C2453 C2451 1.561 . S
C2454 C2451 1.526 . S
C2454 C2455 1.396 1_556 S
C2454 C2459 1.390 . S
C2455 C2449 1.465 . S
C2455 C2454 1.396 1_554 S
C2455 C2456 1.399 . S
C2456 H2442 0.929 . S
C2456 C2455 1.399 . S
C2456 C2457 1.385 . S
C2457 H2443 0.931 . S
C2457 C2456 1.385 . S
C2457 C2458 1.389 . S
C2458 C2457 1.389 . S
C2458 C2459 1.387 1_554 S
C2459 H2444 0.930 . S
C2459 C2454 1.390 . S
C2459 C2458 1.387 1_556 S
H2460 C2472 0.930 . S
H2461 C2474 0.930 . S
H2462 C2475 0.930 . S
H2463 C2479 0.959 . S
H2464 C2479 0.959 . S
H2465 C2479 0.961 . S
H2466 C2480 0.960 . S
H2467 C2480 0.961 . S
H2468 C2480 0.959 . S
H2469 C2483 0.929 . S
H2470 C2484 0.931 . S
H2471 C2486 0.930 . S
C2472 H2460 0.930 . S
C2472 C2473 1.399 . S
C2472 C2477 1.399 . S
C2473 C2472 1.399 . S
C2473 C2474 1.376 . S
C2474 H2461 0.930 . S
C2474 C2473 1.376 . S
C2474 C2475 1.388 . S
C2475 H2462 0.930 . S
C2475 C2474 1.388 . S
C2475 C2476 1.390 . S
C2476 C2475 1.390 . S
C2476 C2477 1.394 . S
C2476 C2482 1.465 . S
C2477 C2472 1.399 . S
C2477 C2476 1.394 . S
C2477 C2478 1.516 . S
C2478 C2477 1.516 . S
C2478 C2479 1.502 . S
C2478 C2480 1.561 . S
C2478 C2481 1.526 . S
C2479 H2463 0.959 . S
C2479 H2464 0.959 . S
C2479 H2465 0.961 . S
C2479 C2478 1.502 . S
C2480 H2466 0.960 . S
C2480 H2467 0.961 . S
C2480 H2468 0.959 . S
C2480 C2478 1.561 . S
C2481 C2478 1.526 . S
C2481 C2482 1.396 . S
C2481 C2486 1.390 . S
C2482 C2476 1.465 . S
C2482 C2481 1.396 . S
C2482 C2483 1.399 . S
C2483 H2469 0.929 . S
C2483 C2482 1.399 . S
C2483 C2484 1.385 . S
C2484 H2470 0.931 . S
C2484 C2483 1.385 . S
C2484 C2485 1.389 . S
C2485 C2484 1.389 . S
C2485 C2486 1.387 . S
C2486 H2471 0.930 . S
C2486 C2481 1.390 . S
C2486 C2485 1.387 . S
H2487 C2499 0.930 . S
H2488 C2501 0.930 . S
H2489 C2502 0.930 . S
H2490 C2506 0.959 . S
H2491 C2506 0.959 . S
H2492 C2506 0.961 . S
H2493 C2507 0.960 . S
H2494 C2507 0.961 . S
H2495 C2507 0.959 . S
H2496 C2510 0.929 . S
H2497 C2511 0.931 . S
H2498 C2513 0.930 . S
C2499 H2487 0.930 . S
C2499 C2500 1.399 . S
C2499 C2504 1.399 . S
C2500 C2499 1.399 . S
C2500 C2501 1.376 . S
C2501 H2488 0.930 . S
C2501 C2500 1.376 . S
C2501 C2502 1.388 . S
C2502 H2489 0.930 . S
C2502 C2501 1.388 . S
C2502 C2503 1.390 . S
C2503 C2502 1.390 . S
C2503 C2504 1.394 . S
C2503 C2509 1.465 . S
C2504 C2499 1.399 . S
C2504 C2503 1.394 . S
C2504 C2505 1.516 . S
C2505 C2504 1.516 . S
C2505 C2506 1.502 . S
C2505 C2507 1.561 . S
C2505 C2508 1.526 . S
C2506 H2490 0.959 . S
C2506 H2491 0.959 . S
C2506 H2492 0.961 . S
C2506 C2505 1.502 . S
C2507 H2493 0.960 . S
C2507 H2494 0.961 . S
C2507 H2495 0.959 . S
C2507 C2505 1.561 . S
C2508 C2505 1.526 . S
C2508 C2509 1.396 . S
C2508 C2513 1.390 . S
C2509 C2503 1.465 . S
C2509 C2508 1.396 . S
C2509 C2510 1.399 . S
C2510 H2496 0.929 . S
C2510 C2509 1.399 . S
C2510 C2511 1.385 . S
C2511 H2497 0.931 . S
C2511 C2510 1.385 . S
C2511 C2512 1.389 . S
C2512 C2511 1.389 . S
C2512 C2513 1.387 . S
C2513 H2498 0.930 . S
C2513 C2508 1.390 . S
C2513 C2512 1.387 . S
H2514 C2526 0.930 . S
H2515 C2528 0.930 . S
H2516 C2529 0.930 . S
H2517 C2533 0.959 . S
H2518 C2533 0.959 . S
H2519 C2533 0.961 . S
H2520 C2534 0.960 . S
H2521 C2534 0.961 . S
H2522 C2534 0.959 . S
H2523 C2537 0.929 . S
H2524 C2538 0.931 . S
H2525 C2540 0.930 . S
C2526 H2514 0.930 . S
C2526 C2527 1.399 . S
C2526 C2531 1.399 . S
C2527 C2526 1.399 . S
C2527 C2528 1.376 . S
C2528 H2515 0.930 . S
C2528 C2527 1.376 . S
C2528 C2529 1.388 . S
C2529 H2516 0.930 . S
C2529 C2528 1.388 . S
C2529 C2530 1.390 . S
C2530 C2529 1.390 . S
C2530 C2531 1.394 . S
C2530 C2536 1.465 . S
C2531 C2526 1.399 . S
C2531 C2530 1.394 . S
C2531 C2532 1.516 . S
C2532 C2531 1.516 . S
C2532 C2533 1.502 . S
C2532 C2534 1.561 . S
C2532 C2535 1.526 . S
C2533 H2517 0.959 . S
C2533 H2518 0.959 . S
C2533 H2519 0.961 . S
C2533 C2532 1.502 . S
C2534 H2520 0.960 . S
C2534 H2521 0.961 . S
C2534 H2522 0.959 . S
C2534 C2532 1.561 . S
C2535 C2532 1.526 . S
C2535 C2536 1.396 . S
C2535 C2540 1.390 . S
C2536 C2530 1.465 . S
C2536 C2535 1.396 . S
C2536 C2537 1.399 . S
C2537 H2523 0.929 . S
C2537 C2536 1.399 . S
C2537 C2538 1.385 . S
C2538 H2524 0.931 . S
C2538 C2537 1.385 . S
C2538 C2539 1.389 . S
C2539 C2538 1.389 . S
C2539 C2540 1.387 . S
C2540 H2525 0.930 . S
C2540 C2535 1.390 . S
C2540 C2539 1.387 . S
H2541 C2553 0.930 . S
H2542 C2555 0.930 . S
H2543 C2556 0.930 . S
H2544 C2560 0.959 . S
H2545 C2560 0.959 . S
H2546 C2560 0.961 . S
H2547 C2561 0.960 . S
H2548 C2561 0.961 . S
H2549 C2561 0.959 . S
H2550 C2564 0.929 . S
H2551 C2565 0.931 . S
H2552 C2567 0.922 1_655 S
C2553 H2541 0.930 . S
C2553 C2554 1.399 1_655 S
C2553 C2558 1.398 1_655 S
C2554 C2553 1.399 1_455 S
C2554 C2555 1.376 . S
C2555 H2542 0.930 . S
C2555 C2554 1.376 . S
C2555 C2556 1.388 . S
C2556 H2543 0.930 . S
C2556 C2555 1.388 . S
C2556 C2557 1.390 . S
C2557 C2556 1.390 . S
C2557 C2558 1.407 . S
C2557 C2563 1.465 . S
C2558 C2553 1.398 1_455 S
C2558 C2557 1.407 . S
C2558 C2559 1.507 1_455 S
C2559 C2558 1.507 1_655 S
C2559 C2560 1.511 . S
C2559 C2561 1.554 1_655 S
C2559 C2562 1.525 1_655 S
C2560 H2544 0.959 . S
C2560 H2545 0.959 . S
C2560 H2546 0.961 . S
C2560 C2559 1.511 . S
C2561 H2547 0.960 . S
C2561 H2548 0.961 . S
C2561 H2549 0.959 . S
C2561 C2559 1.554 1_455 S
C2562 C2559 1.525 1_455 S
C2562 C2563 1.396 . S
C2562 C2567 1.394 . S
C2563 C2557 1.465 . S
C2563 C2562 1.396 . S
C2563 C2564 1.399 . S
C2564 H2550 0.929 . S
C2564 C2563 1.399 . S
C2564 C2565 1.385 . S
C2565 H2551 0.931 . S
C2565 C2564 1.385 . S
C2565 C2566 1.389 . S
C2566 C2565 1.389 . S
C2566 C2567 1.391 . S
C2567 H2552 0.922 1_455 S
C2567 C2562 1.394 . S
C2567 C2566 1.391 . S
H2568 C2580 0.930 . S
H2569 C2582 0.930 . S
H2570 C2583 0.930 . S
H2571 C2587 0.959 . S
H2572 C2587 0.959 . S
H2573 C2587 0.961 . S
H2574 C2588 0.960 . S
H2575 C2588 0.961 . S
H2576 C2588 0.959 . S
H2577 C2591 0.929 . S
H2578 C2592 0.931 . S
H2579 C2594 0.930 . S
C2580 H2568 0.930 . S
C2580 C2581 1.399 . S
C2580 C2585 1.399 . S
C2581 C2580 1.399 . S
C2581 C2582 1.376 . S
C2582 H2569 0.930 . S
C2582 C2581 1.376 . S
C2582 C2583 1.388 . S
C2583 H2570 0.930 . S
C2583 C2582 1.388 . S
C2583 C2584 1.390 . S
C2584 C2583 1.390 . S
C2584 C2585 1.394 . S
C2584 C2590 1.465 . S
C2585 C2580 1.399 . S
C2585 C2584 1.394 . S
C2585 C2586 1.516 . S
C2586 C2585 1.516 . S
C2586 C2587 1.502 . S
C2586 C2588 1.561 . S
C2586 C2589 1.526 . S
C2587 H2571 0.959 . S
C2587 H2572 0.959 . S
C2587 H2573 0.961 . S
C2587 C2586 1.502 . S
C2588 H2574 0.960 . S
C2588 H2575 0.961 . S
C2588 H2576 0.959 . S
C2588 C2586 1.561 . S
C2589 C2586 1.526 . S
C2589 C2590 1.396 . S
C2589 C2594 1.390 . S
C2590 C2584 1.465 . S
C2590 C2589 1.396 . S
C2590 C2591 1.399 . S
C2591 H2577 0.929 . S
C2591 C2590 1.399 . S
C2591 C2592 1.385 . S
C2592 H2578 0.931 . S
C2592 C2591 1.385 . S
C2592 C2593 1.389 . S
C2593 C2592 1.389 . S
C2593 C2594 1.387 . S
C2594 H2579 0.930 . S
C2594 C2589 1.390 . S
C2594 C2593 1.387 . S
H2595 C2607 0.930 . S
H2596 C2609 0.930 . S
H2597 C2610 0.930 . S
H2598 C2614 0.959 . S
H2599 C2614 0.959 . S
H2600 C2614 0.961 . S
H2601 C2615 0.960 . S
H2602 C2615 0.961 . S
H2603 C2615 0.959 . S
H2604 C2618 0.929 . S
H2605 C2619 0.931 . S
H2606 C2621 0.930 . S
C2607 H2595 0.930 . S
C2607 C2608 1.399 . S
C2607 C2612 1.399 . S
C2608 C2607 1.399 . S
C2608 C2609 1.376 . S
C2609 H2596 0.930 . S
C2609 C2608 1.376 . S
C2609 C2610 1.388 . S
C2610 H2597 0.930 . S
C2610 C2609 1.388 . S
C2610 C2611 1.390 . S
C2611 C2610 1.390 . S
C2611 C2612 1.394 . S
C2611 C2617 1.465 . S
C2612 C2607 1.399 . S
C2612 C2611 1.394 . S
C2612 C2613 1.516 . S
C2613 C2612 1.516 . S
C2613 C2614 1.502 . S
C2613 C2615 1.561 . S
C2613 C2616 1.526 . S
C2614 H2598 0.959 . S
C2614 H2599 0.959 . S
C2614 H2600 0.961 . S
C2614 C2613 1.502 . S
C2615 H2601 0.960 . S
C2615 H2602 0.961 . S
C2615 H2603 0.959 . S
C2615 C2613 1.561 . S
C2616 C2613 1.526 . S
C2616 C2617 1.396 . S
C2616 C2621 1.390 . S
C2617 C2611 1.465 . S
C2617 C2616 1.396 . S
C2617 C2618 1.399 . S
C2618 H2604 0.929 . S
C2618 C2617 1.399 . S
C2618 C2619 1.385 . S
C2619 H2605 0.931 . S
C2619 C2618 1.385 . S
C2619 C2620 1.389 . S
C2620 C2619 1.389 . S
C2620 C2621 1.387 . S
C2621 H2606 0.930 . S
C2621 C2616 1.390 . S
C2621 C2620 1.387 . S
H2622 C2634 0.930 . S
H2623 C2636 0.930 . S
H2624 C2637 0.932 1_545 S
H2625 C2641 0.959 . S
H2626 C2641 0.959 . S
H2627 C2641 0.961 . S
H2628 C2642 0.960 . S
H2629 C2642 0.961 . S
H2630 C2642 0.959 . S
H2631 C2645 0.929 . S
H2632 C2646 0.931 . S
H2633 C2648 0.930 . S
C2634 H2622 0.930 . S
C2634 C2635 1.404 . S
C2634 C2639 1.399 . S
C2635 C2634 1.404 . S
C2635 C2636 1.376 1_565 S
C2636 H2623 0.930 . S
C2636 C2635 1.376 1_545 S
C2636 C2637 1.382 1_545 S
C2637 H2624 0.932 1_565 S
C2637 C2636 1.382 1_565 S
C2637 C2638 1.397 . S
C2638 C2637 1.397 . S
C2638 C2639 1.394 . S
C2638 C2644 1.465 . S
C2639 C2634 1.399 . S
C2639 C2638 1.394 . S
C2639 C2640 1.516 . S
C2640 C2639 1.516 . S
C2640 C2641 1.502 . S
C2640 C2642 1.561 1_565 S
C2640 C2643 1.526 . S
C2641 H2625 0.959 . S
C2641 H2626 0.959 . S
C2641 H2627 0.961 . S
C2641 C2640 1.502 . S
C2642 H2628 0.960 . S
C2642 H2629 0.961 . S
C2642 H2630 0.959 . S
C2642 C2640 1.561 1_545 S
C2643 C2640 1.526 . S
C2643 C2644 1.396 . S
C2643 C2648 1.390 . S
C2644 C2638 1.465 . S
C2644 C2643 1.396 . S
C2644 C2645 1.399 . S
C2645 H2631 0.929 . S
C2645 C2644 1.399 . S
C2645 C2646 1.385 . S
C2646 H2632 0.931 . S
C2646 C2645 1.385 . S
C2646 C2647 1.389 . S
C2647 C2646 1.389 . S
C2647 C2648 1.387 . S
C2648 H2633 0.930 . S
C2648 C2643 1.390 . S
C2648 C2647 1.387 . S
H2649 C2661 0.930 . S
H2650 C2663 0.930 . S
H2651 C2664 0.930 . S
H2652 C2668 0.959 . S
H2653 C2668 0.959 . S
H2654 C2668 0.961 . S
H2655 C2669 0.960 . S
H2656 C2669 0.961 . S
H2657 C2669 0.959 . S
H2658 C2672 0.929 . S
H2659 C2673 0.931 . S
H2660 C2675 0.930 . S
C2661 H2649 0.930 . S
C2661 C2662 1.399 1_565 S
C2661 C2666 1.399 1_565 S
C2662 C2661 1.399 1_545 S
C2662 C2663 1.376 . S
C2663 H2650 0.930 . S
C2663 C2662 1.376 . S
C2663 C2664 1.388 . S
C2664 H2651 0.930 . S
C2664 C2663 1.388 . S
C2664 C2665 1.390 . S
C2665 C2664 1.390 . S
C2665 C2666 1.394 . S
C2665 C2671 1.465 . S
C2666 C2661 1.399 1_545 S
C2666 C2665 1.394 . S
C2666 C2667 1.516 1_545 S
C2667 C2666 1.516 1_565 S
C2667 C2668 1.502 . S
C2667 C2669 1.561 . S
C2667 C2670 1.504 1_565 S
C2668 H2652 0.959 . S
C2668 H2653 0.959 . S
C2668 H2654 0.961 . S
C2668 C2667 1.502 . S
C2669 H2655 0.960 . S
C2669 H2656 0.961 . S
C2669 H2657 0.959 . S
C2669 C2667 1.561 . S
C2670 C2667 1.504 1_545 S
C2670 C2671 1.426 . S
C2670 C2675 1.385 1_545 S
C2671 C2665 1.465 . S
C2671 C2670 1.426 . S
C2671 C2672 1.399 . S
C2672 H2658 0.929 . S
C2672 C2671 1.399 . S
C2672 C2673 1.385 . S
C2673 H2659 0.931 . S
C2673 C2672 1.385 . S
C2673 C2674 1.389 . S
C2674 C2673 1.389 . S
C2674 C2675 1.387 1_545 S
C2675 H2660 0.930 . S
C2675 C2670 1.385 1_565 S
C2675 C2674 1.387 1_565 S
H2676 C2688 0.930 . S
H2677 C2690 0.930 . S
H2678 C2691 0.930 . S
H2679 C2695 0.959 . S
H2680 C2695 0.959 . S
H2681 C2695 0.961 . S
H2682 C2696 0.960 . S
H2683 C2696 0.961 . S
H2684 C2696 0.959 . S
H2685 C2699 0.929 . S
H2686 C2700 0.931 . S
H2687 C2702 0.930 . S
C2688 H2676 0.930 . S
C2688 C2689 1.399 . S
C2688 C2693 1.399 . S
C2689 C2688 1.399 . S
C2689 C2690 1.376 . S
C2690 H2677 0.930 . S
C2690 C2689 1.376 . S
C2690 C2691 1.388 . S
C2691 H2678 0.930 . S
C2691 C2690 1.388 . S
C2691 C2692 1.390 . S
C2692 C2691 1.390 . S
C2692 C2693 1.394 . S
C2692 C2698 1.465 . S
C2693 C2688 1.399 . S
C2693 C2692 1.394 . S
C2693 C2694 1.516 . S
C2694 C2693 1.516 . S
C2694 C2695 1.502 . S
C2694 C2696 1.561 . S
C2694 C2697 1.526 . S
C2695 H2679 0.959 . S
C2695 H2680 0.959 . S
C2695 H2681 0.961 . S
C2695 C2694 1.502 . S
C2696 H2682 0.960 . S
C2696 H2683 0.961 . S
C2696 H2684 0.959 . S
C2696 C2694 1.561 . S
C2697 C2694 1.526 . S
C2697 C2698 1.396 . S
C2697 C2702 1.390 . S
C2698 C2692 1.465 . S
C2698 C2697 1.396 . S
C2698 C2699 1.399 . S
C2699 H2685 0.929 . S
C2699 C2698 1.399 . S
C2699 C2700 1.385 . S
C2700 H2686 0.931 . S
C2700 C2699 1.385 . S
C2700 C2701 1.389 . S
C2701 C2700 1.389 . S
C2701 C2702 1.387 . S
C2702 H2687 0.930 . S
C2702 C2697 1.390 . S
C2702 C2701 1.387 . S
H2703 C2715 0.978 . S
H2704 C2717 0.930 . S
H2705 C2718 0.930 . S
H2706 C2722 0.959 . S
H2707 C2722 0.959 . S
H2708 C2722 0.961 . S
H2709 C2723 0.960 . S
H2710 C2723 0.961 . S
H2711 C2723 0.959 . S
H2712 C2726 0.929 . S
H2713 C2727 0.931 . S
H2714 C2729 0.930 . S
C2715 H2703 0.978 . S
C2715 C2716 1.363 1_556 S
C2715 C2720 1.389 1_556 S
C2716 C2715 1.363 1_554 S
C2716 C2717 1.376 . S
C2717 H2704 0.930 . S
C2717 C2716 1.376 . S
C2717 C2718 1.388 . S
C2718 H2705 0.930 . S
C2718 C2717 1.388 . S
C2718 C2719 1.390 . S
C2719 C2718 1.390 . S
C2719 C2720 1.394 . S
C2719 C2725 1.465 . S
C2720 C2715 1.389 1_554 S
C2720 C2719 1.394 . S
C2720 C2721 1.516 1_554 S
C2721 C2720 1.516 1_556 S
C2721 C2722 1.502 . S
C2721 C2723 1.561 . S
C2721 C2724 1.505 1_556 S
C2722 H2706 0.959 . S
C2722 H2707 0.959 . S
C2722 H2708 0.961 . S
C2722 C2721 1.502 . S
C2723 H2709 0.960 . S
C2723 H2710 0.961 . S
C2723 H2711 0.959 . S
C2723 C2721 1.561 . S
C2724 C2721 1.505 1_554 S
C2724 C2725 1.425 . S
C2724 C2729 1.385 1_554 S
C2725 C2719 1.465 . S
C2725 C2724 1.425 . S
C2725 C2726 1.399 . S
C2726 H2712 0.929 . S
C2726 C2725 1.399 . S
C2726 C2727 1.385 . S
C2727 H2713 0.931 . S
C2727 C2726 1.385 . S
C2727 C2728 1.389 . S
C2728 C2727 1.389 . S
C2728 C2729 1.387 1_554 S
C2729 H2714 0.930 . S
C2729 C2724 1.385 1_556 S
C2729 C2728 1.387 1_556 S
H2730 C2742 0.930 . S
H2731 C2744 0.930 . S
H2732 C2745 0.930 . S
H2733 C2749 0.959 . S
H2734 C2749 0.959 . S
H2735 C2749 0.961 . S
H2736 C2750 0.960 . S
H2737 C2750 0.961 . S
H2738 C2750 0.959 . S
H2739 C2753 0.929 . S
H2740 C2754 0.931 . S
H2741 C2756 0.930 . S
C2742 H2730 0.930 . S
C2742 C2743 1.399 . S
C2742 C2747 1.399 . S
C2743 C2742 1.399 . S
C2743 C2744 1.376 . S
C2744 H2731 0.930 . S
C2744 C2743 1.376 . S
C2744 C2745 1.388 . S
C2745 H2732 0.930 . S
C2745 C2744 1.388 . S
C2745 C2746 1.390 . S
C2746 C2745 1.390 . S
C2746 C2747 1.394 . S
C2746 C2752 1.465 . S
C2747 C2742 1.399 . S
C2747 C2746 1.394 . S
C2747 C2748 1.516 . S
C2748 C2747 1.516 . S
C2748 C2749 1.502 . S
C2748 C2750 1.561 . S
C2748 C2751 1.526 . S
C2749 H2733 0.959 . S
C2749 H2734 0.959 . S
C2749 H2735 0.961 . S
C2749 C2748 1.502 . S
C2750 H2736 0.960 . S
C2750 H2737 0.961 . S
C2750 H2738 0.959 . S
C2750 C2748 1.561 . S
C2751 C2748 1.526 . S
C2751 C2752 1.396 . S
C2751 C2756 1.390 . S
C2752 C2746 1.465 . S
C2752 C2751 1.396 . S
C2752 C2753 1.399 . S
C2753 H2739 0.929 . S
C2753 C2752 1.399 . S
C2753 C2754 1.385 . S
C2754 H2740 0.931 . S
C2754 C2753 1.385 . S
C2754 C2755 1.389 . S
C2755 C2754 1.389 . S
C2755 C2756 1.387 . S
C2756 H2741 0.930 . S
C2756 C2751 1.390 . S
C2756 C2755 1.387 . S
H2757 C2769 0.930 . S
H2758 C2771 0.930 . S
H2759 C2772 0.930 . S
H2760 C2776 0.959 . S
H2761 C2776 0.959 . S
H2762 C2776 0.961 . S
H2763 C2777 0.960 . S
H2764 C2777 0.961 . S
H2765 C2777 0.959 . S
H2766 C2780 0.929 . S
H2767 C2781 0.931 . S
H2768 C2783 0.905 1_554 S
C2769 H2757 0.930 . S
C2769 C2770 1.399 1_554 S
C2769 C2774 1.399 . S
C2770 C2769 1.399 1_556 S
C2770 C2771 1.376 . S
C2771 H2758 0.930 . S
C2771 C2770 1.376 . S
C2771 C2772 1.388 . S
C2772 H2759 0.930 . S
C2772 C2771 1.388 . S
C2772 C2773 1.390 . S
C2773 C2772 1.390 . S
C2773 C2774 1.394 1_556 S
C2773 C2779 1.465 . S
C2774 C2769 1.399 . S
C2774 C2773 1.394 1_554 S
C2774 C2775 1.516 . S
C2775 C2774 1.516 . S
C2775 C2776 1.502 . S
C2775 C2777 1.561 . S
C2775 C2778 1.526 1_554 S
C2776 H2760 0.959 . S
C2776 H2761 0.959 . S
C2776 H2762 0.961 . S
C2776 C2775 1.502 . S
C2777 H2763 0.960 . S
C2777 H2764 0.961 . S
C2777 H2765 0.959 . S
C2777 C2775 1.561 . S
C2778 C2775 1.526 1_556 S
C2778 C2779 1.396 . S
C2778 C2783 1.388 . S
C2779 C2773 1.465 . S
C2779 C2778 1.396 . S
C2779 C2780 1.399 . S
C2780 H2766 0.929 . S
C2780 C2779 1.399 . S
C2780 C2781 1.385 . S
C2781 H2767 0.931 . S
C2781 C2780 1.385 . S
C2781 C2782 1.389 . S
C2782 C2781 1.389 . S
C2782 C2783 1.415 . S
C2783 H2768 0.905 1_556 S
C2783 C2778 1.388 . S
C2783 C2782 1.415 . S
H2784 C2796 0.930 . S
H2785 C2798 0.930 . S
H2786 C2799 0.930 . S
H2787 C2803 0.959 . S
H2788 C2803 0.959 . S
H2789 C2803 0.961 . S
H2790 C2804 0.960 . S
H2791 C2804 0.961 . S
H2792 C2804 0.959 . S
H2793 C2807 0.929 . S
H2794 C2808 0.931 . S
H2795 C2810 0.930 . S
C2796 H2784 0.930 . S
C2796 C2797 1.399 . S
C2796 C2801 1.399 . S
C2797 C2796 1.399 . S
C2797 C2798 1.376 . S
C2798 H2785 0.930 . S
C2798 C2797 1.376 . S
C2798 C2799 1.388 . S
C2799 H2786 0.930 . S
C2799 C2798 1.388 . S
C2799 C2800 1.390 . S
C2800 C2799 1.390 . S
C2800 C2801 1.394 . S
C2800 C2806 1.465 . S
C2801 C2796 1.399 . S
C2801 C2800 1.394 . S
C2801 C2802 1.516 . S
C2802 C2801 1.516 . S
C2802 C2803 1.502 . S
C2802 C2804 1.561 . S
C2802 C2805 1.526 . S
C2803 H2787 0.959 . S
C2803 H2788 0.959 . S
C2803 H2789 0.961 . S
C2803 C2802 1.502 . S
C2804 H2790 0.960 . S
C2804 H2791 0.961 . S
C2804 H2792 0.959 . S
C2804 C2802 1.561 . S
C2805 C2802 1.526 . S
C2805 C2806 1.396 . S
C2805 C2810 1.390 . S
C2806 C2800 1.465 . S
C2806 C2805 1.396 . S
C2806 C2807 1.399 . S
C2807 H2793 0.929 . S
C2807 C2806 1.399 . S
C2807 C2808 1.385 . S
C2808 H2794 0.931 . S
C2808 C2807 1.385 . S
C2808 C2809 1.389 . S
C2809 C2808 1.389 . S
C2809 C2810 1.387 . S
C2810 H2795 0.930 . S
C2810 C2805 1.390 . S
C2810 C2809 1.387 . S
H2811 C2823 0.930 . S
H2812 C2825 0.930 . S
H2813 C2826 0.930 . S
H2814 C2830 0.959 . S
H2815 C2830 0.959 . S
H2816 C2830 0.961 . S
H2817 C2831 0.960 . S
H2818 C2831 0.961 . S
H2819 C2831 0.959 . S
H2820 C2834 0.929 . S
H2821 C2835 0.931 . S
H2822 C2837 0.930 . S
C2823 H2811 0.930 . S
C2823 C2824 1.399 . S
C2823 C2828 1.399 . S
C2824 C2823 1.399 . S
C2824 C2825 1.376 1_455 S
C2825 H2812 0.930 . S
C2825 C2824 1.376 1_655 S
C2825 C2826 1.388 . S
C2826 H2813 0.930 . S
C2826 C2825 1.388 . S
C2826 C2827 1.342 1_655 S
C2827 C2826 1.342 1_455 S
C2827 C2828 1.452 . S
C2827 C2833 1.469 . S
C2828 C2823 1.399 . S
C2828 C2827 1.452 . S
C2828 C2829 1.516 . S
C2829 C2828 1.516 . S
C2829 C2830 1.502 . S
C2829 C2831 1.561 . S
C2829 C2832 1.526 . S
C2830 H2814 0.959 . S
C2830 H2815 0.959 . S
C2830 H2816 0.961 . S
C2830 C2829 1.502 . S
C2831 H2817 0.960 . S
C2831 H2818 0.961 . S
C2831 H2819 0.959 . S
C2831 C2829 1.561 . S
C2832 C2829 1.526 . S
C2832 C2833 1.390 . S
C2832 C2837 1.390 . S
C2833 C2827 1.469 . S
C2833 C2832 1.390 . S
C2833 C2834 1.403 1_455 S
C2834 H2820 0.929 . S
C2834 C2833 1.403 1_655 S
C2834 C2835 1.385 . S
C2835 H2821 0.931 . S
C2835 C2834 1.385 . S
C2835 C2836 1.389 1_655 S
C2836 C2835 1.389 1_455 S
C2836 C2837 1.387 . S
C2837 H2822 0.930 . S
C2837 C2832 1.390 . S
C2837 C2836 1.387 . S
H2838 C2850 0.930 . S
H2839 C2852 0.930 . S
H2840 C2853 0.930 . S
H2841 C2857 0.959 . S
H2842 C2857 0.959 . S
H2843 C2857 0.961 . S
H2844 C2858 0.960 . S
H2845 C2858 0.961 . S
H2846 C2858 0.959 . S
H2847 C2861 0.929 . S
H2848 C2862 0.931 . S
H2849 C2864 0.930 . S
C2850 H2838 0.930 . S
C2850 C2851 1.399 . S
C2850 C2855 1.399 . S
C2851 C2850 1.399 . S
C2851 C2852 1.376 . S
C2852 H2839 0.930 . S
C2852 C2851 1.376 . S
C2852 C2853 1.388 . S
C2853 H2840 0.930 . S
C2853 C2852 1.388 . S
C2853 C2854 1.390 . S
C2854 C2853 1.390 . S
C2854 C2855 1.394 . S
C2854 C2860 1.465 . S
C2855 C2850 1.399 . S
C2855 C2854 1.394 . S
C2855 C2856 1.516 . S
C2856 C2855 1.516 . S
C2856 C2857 1.502 . S
C2856 C2858 1.561 . S
C2856 C2859 1.526 . S
C2857 H2841 0.959 . S
C2857 H2842 0.959 . S
C2857 H2843 0.961 . S
C2857 C2856 1.502 . S
C2858 H2844 0.960 . S
C2858 H2845 0.961 . S
C2858 H2846 0.959 . S
C2858 C2856 1.561 . S
C2859 C2856 1.526 . S
C2859 C2860 1.396 . S
C2859 C2864 1.390 . S
C2860 C2854 1.465 . S
C2860 C2859 1.396 . S
C2860 C2861 1.399 . S
C2861 H2847 0.929 . S
C2861 C2860 1.399 . S
C2861 C2862 1.385 . S
C2862 H2848 0.931 . S
C2862 C2861 1.385 . S
C2862 C2863 1.389 . S
C2863 C2862 1.389 . S
C2863 C2864 1.387 . S
C2864 H2849 0.930 . S
C2864 C2859 1.390 . S
C2864 C2863 1.387 . S
H2865 C2877 0.930 . S
H2866 C2879 0.930 . S
H2867 C2880 0.930 . S
H2868 C2884 0.959 . S
H2869 C2884 0.947 1_655 S
H2870 C2884 0.961 . S
H2871 C2885 0.960 . S
H2872 C2885 0.961 . S
H2873 C2885 0.959 . S
H2874 C2888 0.929 . S
H2875 C2889 0.931 . S
H2876 C2891 0.930 . S
C2877 H2865 0.930 . S
C2877 C2878 1.399 . S
C2877 C2882 1.399 . S
C2878 C2877 1.399 . S
C2878 C2879 1.376 . S
C2879 H2866 0.930 . S
C2879 C2878 1.376 . S
C2879 C2880 1.388 . S
C2880 H2867 0.930 . S
C2880 C2879 1.388 . S
C2880 C2881 1.390 . S
C2881 C2880 1.390 . S
C2881 C2882 1.394 . S
C2881 C2887 1.465 . S
C2882 C2877 1.399 . S
C2882 C2881 1.394 . S
C2882 C2883 1.516 . S
C2883 C2882 1.516 . S
C2883 C2884 1.502 1_655 S
C2883 C2885 1.561 . S
C2883 C2886 1.526 . S
C2884 H2868 0.959 . S
C2884 H2869 0.947 1_455 S
C2884 H2870 0.961 . S
C2884 C2883 1.502 1_455 S
C2885 H2871 0.960 . S
C2885 H2872 0.961 . S
C2885 H2873 0.959 . S
C2885 C2883 1.561 . S
C2886 C2883 1.526 . S
C2886 C2887 1.396 . S
C2886 C2891 1.390 . S
C2887 C2881 1.465 . S
C2887 C2886 1.396 . S
C2887 C2888 1.399 . S
C2888 H2874 0.929 . S
C2888 C2887 1.399 . S
C2888 C2889 1.385 . S
C2889 H2875 0.931 . S
C2889 C2888 1.385 . S
C2889 C2890 1.389 . S
C2890 C2889 1.389 . S
C2890 C2891 1.387 . S
C2891 H2876 0.930 . S
C2891 C2886 1.390 . S
C2891 C2890 1.387 . S
H2892 C2904 0.930 . S
H2893 C2906 0.930 . S
H2894 C2907 0.930 . S
H2895 C2911 0.959 . S
H2896 C2911 0.959 . S
H2897 C2911 0.961 . S
H2898 C2912 0.960 . S
H2899 C2912 0.961 . S
H2900 C2912 0.959 . S
H2901 C2915 0.929 . S
H2902 C2916 0.931 . S
H2903 C2918 0.930 . S
C2904 H2892 0.930 . S
C2904 C2905 1.399 . S
C2904 C2909 1.399 . S
C2905 C2904 1.399 . S
C2905 C2906 1.376 . S
C2906 H2893 0.930 . S
C2906 C2905 1.376 . S
C2906 C2907 1.388 . S
C2907 H2894 0.930 . S
C2907 C2906 1.388 . S
C2907 C2908 1.390 . S
C2908 C2907 1.390 . S
C2908 C2909 1.394 . S
C2908 C2914 1.465 . S
C2909 C2904 1.399 . S
C2909 C2908 1.394 . S
C2909 C2910 1.516 . S
C2910 C2909 1.516 . S
C2910 C2911 1.502 . S
C2910 C2912 1.561 . S
C2910 C2913 1.526 . S
C2911 H2895 0.959 . S
C2911 H2896 0.959 . S
C2911 H2897 0.961 . S
C2911 C2910 1.502 . S
C2912 H2898 0.960 . S
C2912 H2899 0.961 . S
C2912 H2900 0.959 . S
C2912 C2910 1.561 . S
C2913 C2910 1.526 . S
C2913 C2914 1.396 . S
C2913 C2918 1.390 . S
C2914 C2908 1.465 . S
C2914 C2913 1.396 . S
C2914 C2915 1.399 . S
C2915 H2901 0.929 . S
C2915 C2914 1.399 . S
C2915 C2916 1.385 . S
C2916 H2902 0.931 . S
C2916 C2915 1.385 . S
C2916 C2917 1.389 . S
C2917 C2916 1.389 . S
C2917 C2918 1.387 . S
C2918 H2903 0.930 . S
C2918 C2913 1.390 . S
C2918 C2917 1.387 . S
H2919 C2931 0.930 . S
H2920 C2933 0.930 . S
H2921 C2934 0.930 . S
H2922 C2938 0.959 . S
H2923 C2938 0.959 . S
H2924 C2938 0.961 . S
H2925 C2939 0.960 . S
H2926 C2939 0.961 . S
H2927 C2939 0.959 . S
H2928 C2942 0.929 . S
H2929 C2943 0.931 . S
H2930 C2945 0.930 . S
C2931 H2919 0.930 . S
C2931 C2932 1.399 . S
C2931 C2936 1.399 . S
C2932 C2931 1.399 . S
C2932 C2933 1.376 . S
C2933 H2920 0.930 . S
C2933 C2932 1.376 . S
C2933 C2934 1.388 . S
C2934 H2921 0.930 . S
C2934 C2933 1.388 . S
C2934 C2935 1.390 . S
C2935 C2934 1.390 . S
C2935 C2936 1.394 . S
C2935 C2941 1.465 . S
C2936 C2931 1.399 . S
C2936 C2935 1.394 . S
C2936 C2937 1.516 . S
C2937 C2936 1.516 . S
C2937 C2938 1.502 . S
C2937 C2939 1.561 . S
C2937 C2940 1.526 . S
C2938 H2922 0.959 . S
C2938 H2923 0.959 . S
C2938 H2924 0.961 . S
C2938 C2937 1.502 . S
C2939 H2925 0.960 . S
C2939 H2926 0.961 . S
C2939 H2927 0.959 . S
C2939 C2937 1.561 . S
C2940 C2937 1.526 . S
C2940 C2941 1.396 . S
C2940 C2945 1.390 . S
C2941 C2935 1.465 . S
C2941 C2940 1.396 . S
C2941 C2942 1.399 . S
C2942 H2928 0.929 . S
C2942 C2941 1.399 . S
C2942 C2943 1.385 . S
C2943 H2929 0.931 . S
C2943 C2942 1.385 . S
C2943 C2944 1.389 . S
C2944 C2943 1.389 . S
C2944 C2945 1.387 . S
C2945 H2930 0.930 . S
C2945 C2940 1.390 . S
C2945 C2944 1.387 . S
H2946 C2958 0.930 . S
H2947 C2960 0.930 . S
H2948 C2961 0.930 . S
H2949 C2965 0.966 1_545 S
H2950 C2965 0.958 . S
H2951 C2965 0.958 . S
H2952 C2966 0.960 . S
H2953 C2966 0.961 . S
H2954 C2966 0.959 . S
H2955 C2969 0.929 . S
H2956 C2970 0.931 . S
H2957 C2972 0.936 . S
C2958 H2946 0.930 . S
C2958 C2959 1.399 1_565 S
C2958 C2963 1.399 . S
C2959 C2958 1.399 1_545 S
C2959 C2960 1.376 . S
C2960 H2947 0.930 . S
C2960 C2959 1.376 . S
C2960 C2961 1.388 . S
C2961 H2948 0.930 . S
C2961 C2960 1.388 . S
C2961 C2962 1.390 . S
C2962 C2961 1.390 . S
C2962 C2963 1.394 1_545 S
C2962 C2968 1.465 . S
C2963 C2958 1.399 . S
C2963 C2962 1.394 1_565 S
C2963 C2964 1.516 . S
C2964 C2963 1.516 . S
C2964 C2965 1.500 . S
C2964 C2966 1.561 . S
C2964 C2967 1.526 1_565 S
C2965 H2949 0.966 1_565 S
C2965 H2950 0.958 . S
C2965 H2951 0.958 . S
C2965 C2964 1.500 . S
C2966 H2952 0.960 . S
C2966 H2953 0.961 . S
C2966 H2954 0.959 . S
C2966 C2964 1.561 . S
C2967 C2964 1.526 1_545 S
C2967 C2968 1.396 . S
C2967 C2972 1.390 . S
C2968 C2962 1.465 . S
C2968 C2967 1.396 . S
C2968 C2969 1.399 . S
C2969 H2955 0.929 . S
C2969 C2968 1.399 . S
C2969 C2970 1.385 . S
C2970 H2956 0.931 . S
C2970 C2969 1.385 . S
C2970 C2971 1.389 . S
C2971 C2970 1.389 . S
C2971 C2972 1.387 . S
C2972 H2957 0.936 . S
C2972 C2967 1.390 . S
C2972 C2971 1.387 . S
H2973 C2985 0.959 . S
H2974 C2987 0.930 . S
H2975 C2988 0.930 . S
H2976 C2992 0.959 . S
H2977 C2992 0.959 . S
H2978 C2992 0.961 . S
H2979 C2993 0.960 . S
H2980 C2993 0.961 . S
H2981 C2993 0.959 . S
H2982 C2996 0.929 . S
H2983 C2997 0.931 . S
H2984 C2999 0.930 . S
C2985 H2973 0.959 . S
C2985 C2986 1.377 1_545 S
C2985 C2990 1.392 1_545 S
C2986 C2985 1.377 1_565 S
C2986 C2987 1.376 . S
C2987 H2974 0.930 . S
C2987 C2986 1.376 . S
C2987 C2988 1.388 . S
C2988 H2975 0.930 . S
C2988 C2987 1.388 . S
C2988 C2989 1.390 . S
C2989 C2988 1.390 . S
C2989 C2990 1.394 . S
C2989 C2995 1.465 . S
C2990 C2985 1.392 1_565 S
C2990 C2989 1.394 . S
C2990 C2991 1.516 1_565 S
C2991 C2990 1.516 1_545 S
C2991 C2992 1.502 . S
C2991 C2993 1.561 . S
C2991 C2994 1.499 1_545 S
C2992 H2976 0.959 . S
C2992 H2977 0.959 . S
C2992 H2978 0.961 . S
C2992 C2991 1.502 . S
C2993 H2979 0.960 . S
C2993 H2980 0.961 . S
C2993 H2981 0.959 . S
C2993 C2991 1.561 . S
C2994 C2991 1.499 1_565 S
C2994 C2995 1.434 . S
C2994 C2999 1.384 1_565 S
C2995 C2989 1.465 . S
C2995 C2994 1.434 . S
C2995 C2996 1.399 . S
C2996 H2982 0.929 . S
C2996 C2995 1.399 . S
C2996 C2997 1.385 . S
C2997 H2983 0.931 . S
C2997 C2996 1.385 . S
C2997 C2998 1.389 . S
C2998 C2997 1.389 . S
C2998 C2999 1.387 1_565 S
C2999 H2984 0.930 . S
C2999 C2994 1.384 1_545 S
C2999 C2998 1.387 1_545 S
H3000 C3012 0.930 . S
H3001 C3014 0.930 . S
H3002 C3015 0.930 . S
H3003 C3019 0.959 . S
H3004 C3019 0.959 . S
H3005 C3019 0.961 . S
H3006 C3020 0.960 . S
H3007 C3020 0.961 . S
H3008 C3020 0.959 . S
H3009 C3023 0.929 . S
H3010 C3024 0.931 . S
H3011 C3026 0.930 . S
C3012 H3000 0.930 . S
C3012 C3013 1.399 . S
C3012 C3017 1.399 . S
C3013 C3012 1.399 . S
C3013 C3014 1.376 . S
C3014 H3001 0.930 . S
C3014 C3013 1.376 . S
C3014 C3015 1.388 . S
C3015 H3002 0.930 . S
C3015 C3014 1.388 . S
C3015 C3016 1.390 . S
C3016 C3015 1.390 . S
C3016 C3017 1.394 . S
C3016 C3022 1.465 . S
C3017 C3012 1.399 . S
C3017 C3016 1.394 . S
C3017 C3018 1.516 . S
C3018 C3017 1.516 . S
C3018 C3019 1.502 . S
C3018 C3020 1.561 . S
C3018 C3021 1.526 . S
C3019 H3003 0.959 . S
C3019 H3004 0.959 . S
C3019 H3005 0.961 . S
C3019 C3018 1.502 . S
C3020 H3006 0.960 . S
C3020 H3007 0.961 . S
C3020 H3008 0.959 . S
C3020 C3018 1.561 . S
C3021 C3018 1.526 . S
C3021 C3022 1.396 . S
C3021 C3026 1.390 . S
C3022 C3016 1.465 . S
C3022 C3021 1.396 . S
C3022 C3023 1.399 . S
C3023 H3009 0.929 . S
C3023 C3022 1.399 . S
C3023 C3024 1.385 . S
C3024 H3010 0.931 . S
C3024 C3023 1.385 . S
C3024 C3025 1.389 . S
C3025 C3024 1.389 . S
C3025 C3026 1.387 . S
C3026 H3011 0.930 . S
C3026 C3021 1.390 . S
C3026 C3025 1.387 . S
H3027 C3039 0.930 . S
H3028 C3041 0.930 . S
H3029 C3042 0.930 . S
H3030 C3046 0.959 . S
H3031 C3046 0.959 . S
H3032 C3046 0.961 . S
H3033 C3047 0.960 . S
H3034 C3047 0.961 . S
H3035 C3047 0.959 . S
H3036 C3050 0.929 . S
H3037 C3051 0.931 . S
H3038 C3053 0.930 . S
C3039 H3027 0.930 . S
C3039 C3040 1.399 . S
C3039 C3044 1.399 . S
C3040 C3039 1.399 . S
C3040 C3041 1.376 1_556 S
C3041 H3028 0.930 . S
C3041 C3040 1.376 1_554 S
C3041 C3042 1.388 . S
C3042 H3029 0.930 . S
C3042 C3041 1.388 . S
C3042 C3043 1.390 1_554 S
C3043 C3042 1.390 1_556 S
C3043 C3044 1.394 . S
C3043 C3049 1.465 . S
C3044 C3039 1.399 . S
C3044 C3043 1.394 . S
C3044 C3045 1.516 . S
C3045 C3044 1.516 . S
C3045 C3046 1.502 . S
C3045 C3047 1.561 . S
C3045 C3048 1.526 . S
C3046 H3030 0.959 . S
C3046 H3031 0.959 . S
C3046 H3032 0.961 . S
C3046 C3045 1.502 . S
C3047 H3033 0.960 . S
C3047 H3034 0.961 . S
C3047 H3035 0.959 . S
C3047 C3045 1.561 . S
C3048 C3045 1.526 . S
C3048 C3049 1.396 . S
C3048 C3053 1.390 . S
C3049 C3043 1.465 . S
C3049 C3048 1.396 . S
C3049 C3050 1.399 1_556 S
C3050 H3036 0.929 . S
C3050 C3049 1.399 1_554 S
C3050 C3051 1.385 . S
C3051 H3037 0.931 . S
C3051 C3050 1.385 . S
C3051 C3052 1.389 1_554 S
C3052 C3051 1.389 1_556 S
C3052 C3053 1.387 . S
C3053 H3038 0.930 . S
C3053 C3048 1.390 . S
C3053 C3052 1.387 . S
H3054 C3066 0.930 . S
H3055 C3068 0.930 . S
H3056 C3069 0.930 . S
H3057 C3073 0.959 . S
H3058 C3073 0.959 . S
H3059 C3073 0.961 . S
H3060 C3074 0.960 . S
H3061 C3074 0.961 . S
H3062 C3074 0.959 . S
H3063 C3077 0.929 . S
H3064 C3078 0.931 . S
H3065 C3080 0.930 . S
C3066 H3054 0.930 . S
C3066 C3067 1.399 . S
C3066 C3071 1.399 . S
C3067 C3066 1.399 . S
C3067 C3068 1.376 . S
C3068 H3055 0.930 . S
C3068 C3067 1.376 . S
C3068 C3069 1.388 . S
C3069 H3056 0.930 . S
C3069 C3068 1.388 . S
C3069 C3070 1.390 . S
C3070 C3069 1.390 . S
C3070 C3071 1.394 . S
C3070 C3076 1.465 . S
C3071 C3066 1.399 . S
C3071 C3070 1.394 . S
C3071 C3072 1.516 . S
C3072 C3071 1.516 . S
C3072 C3073 1.502 . S
C3072 C3074 1.561 . S
C3072 C3075 1.526 . S
C3073 H3057 0.959 . S
C3073 H3058 0.959 . S
C3073 H3059 0.961 . S
C3073 C3072 1.502 . S
C3074 H3060 0.960 . S
C3074 H3061 0.961 . S
C3074 H3062 0.959 . S
C3074 C3072 1.561 . S
C3075 C3072 1.526 . S
C3075 C3076 1.396 . S
C3075 C3080 1.390 . S
C3076 C3070 1.465 . S
C3076 C3075 1.396 . S
C3076 C3077 1.399 . S
C3077 H3063 0.929 . S
C3077 C3076 1.399 . S
C3077 C3078 1.385 . S
C3078 H3064 0.931 . S
C3078 C3077 1.385 . S
C3078 C3079 1.389 . S
C3079 C3078 1.389 . S
C3079 C3080 1.387 . S
C3080 H3065 0.930 . S
C3080 C3075 1.390 . S
C3080 C3079 1.387 . S
H3081 C3093 0.930 . S
H3082 C3095 0.930 . S
H3083 C3096 0.930 . S
H3084 C3100 0.959 . S
H3085 C3100 0.959 . S
H3086 C3100 0.961 . S
H3087 C3101 0.960 . S
H3088 C3101 0.961 . S
H3089 C3101 0.959 . S
H3090 C3104 0.929 . S
H3091 C3105 0.931 . S
H3092 C3107 0.902 1_556 S
C3093 H3081 0.930 . S
C3093 C3094 1.399 1_556 S
C3093 C3098 1.399 . S
C3094 C3093 1.399 1_554 S
C3094 C3095 1.376 . S
C3095 H3082 0.930 . S
C3095 C3094 1.376 . S
C3095 C3096 1.388 . S
C3096 H3083 0.930 . S
C3096 C3095 1.388 . S
C3096 C3097 1.390 . S
C3097 C3096 1.390 . S
C3097 C3098 1.394 1_554 S
C3097 C3103 1.465 . S
C3098 C3093 1.399 . S
C3098 C3097 1.394 1_556 S
C3098 C3099 1.516 . S
C3099 C3098 1.516 . S
C3099 C3100 1.502 . S
C3099 C3101 1.561 . S
C3099 C3102 1.526 1_556 S
C3100 H3084 0.959 . S
C3100 H3085 0.959 . S
C3100 H3086 0.961 . S
C3100 C3099 1.502 . S
C3101 H3087 0.960 . S
C3101 H3088 0.961 . S
C3101 H3089 0.959 . S
C3101 C3099 1.561 . S
C3102 C3099 1.526 1_554 S
C3102 C3103 1.396 . S
C3102 C3107 1.388 . S
C3103 C3097 1.465 . S
C3103 C3102 1.396 . S
C3103 C3104 1.399 . S
C3104 H3090 0.929 . S
C3104 C3103 1.399 . S
C3104 C3105 1.385 . S
C3105 H3091 0.931 . S
C3105 C3104 1.385 . S
C3105 C3106 1.389 . S
C3106 C3105 1.389 . S
C3106 C3107 1.417 . S
C3107 H3092 0.902 1_554 S
C3107 C3102 1.388 . S
C3107 C3106 1.417 . S
H3108 C3120 0.930 . S
H3109 C3122 0.930 . S
H3110 C3123 0.930 . S
H3111 C3127 0.959 . S
H3112 C3127 0.959 . S
H3113 C3127 0.961 . S
H3114 C3128 0.960 . S
H3115 C3128 0.961 . S
H3116 C3128 0.959 . S
H3117 C3131 0.929 . S
H3118 C3132 0.931 . S
H3119 C3134 0.930 . S
C3120 H3108 0.930 . S
C3120 C3121 1.399 . S
C3120 C3125 1.399 . S
C3121 C3120 1.399 . S
C3121 C3122 1.376 . S
C3122 H3109 0.930 . S
C3122 C3121 1.376 . S
C3122 C3123 1.388 . S
C3123 H3110 0.930 . S
C3123 C3122 1.388 . S
C3123 C3124 1.390 . S
C3124 C3123 1.390 . S
C3124 C3125 1.394 . S
C3124 C3130 1.465 . S
C3125 C3120 1.399 . S
C3125 C3124 1.394 . S
C3125 C3126 1.516 . S
C3126 C3125 1.516 . S
C3126 C3127 1.502 . S
C3126 C3128 1.561 . S
C3126 C3129 1.526 . S
C3127 H3111 0.959 . S
C3127 H3112 0.959 . S
C3127 H3113 0.961 . S
C3127 C3126 1.502 . S
C3128 H3114 0.960 . S
C3128 H3115 0.961 . S
C3128 H3116 0.959 . S
C3128 C3126 1.561 . S
C3129 C3126 1.526 . S
C3129 C3130 1.396 . S
C3129 C3134 1.390 . S
C3130 C3124 1.465 . S
C3130 C3129 1.396 . S
C3130 C3131 1.399 . S
C3131 H3117 0.929 . S
C3131 C3130 1.399 . S
C3131 C3132 1.385 . S
C3132 H3118 0.931 . S
C3132 C3131 1.385 . S
C3132 C3133 1.389 . S
C3133 C3132 1.389 . S
C3133 C3134 1.387 . S
C3134 H3119 0.930 . S
C3134 C3129 1.390 . S
C3134 C3133 1.387 . S
H3135 C3147 0.930 1_455 S
H3136 C3149 0.930 . S
H3137 C3150 0.930 . S
H3138 C3154 0.959 . S
H3139 C3154 0.959 . S
H3140 C3154 0.961 . S
H3141 C3155 0.960 . S
H3142 C3155 0.961 . S
H3143 C3155 0.959 . S
H3144 C3158 0.929 . S
H3145 C3159 0.931 . S
H3146 C3161 0.930 1_455 S
C3147 H3135 0.930 1_655 S
C3147 C3148 1.399 . S
C3147 C3152 1.399 . S
C3148 C3147 1.399 . S
C3148 C3149 1.376 . S
C3149 H3136 0.930 . S
C3149 C3148 1.376 . S
C3149 C3150 1.388 . S
C3150 H3137 0.930 . S
C3150 C3149 1.388 . S
C3150 C3151 1.390 . S
C3151 C3150 1.390 . S
C3151 C3152 1.394 . S
C3151 C3157 1.465 . S
C3152 C3147 1.399 . S
C3152 C3151 1.394 . S
C3152 C3153 1.516 1_655 S
C3153 C3152 1.516 1_455 S
C3153 C3154 1.502 . S
C3153 C3155 1.561 1_455 S
C3153 C3156 1.526 1_455 S
C3154 H3138 0.959 . S
C3154 H3139 0.959 . S
C3154 H3140 0.961 . S
C3154 C3153 1.502 . S
C3155 H3141 0.960 . S
C3155 H3142 0.961 . S
C3155 H3143 0.959 . S
C3155 C3153 1.561 1_655 S
C3156 C3153 1.526 1_655 S
C3156 C3157 1.396 . S
C3156 C3161 1.390 . S
C3157 C3151 1.465 . S
C3157 C3156 1.396 . S
C3157 C3158 1.399 . S
C3158 H3144 0.929 . S
C3158 C3157 1.399 . S
C3158 C3159 1.385 . S
C3159 H3145 0.931 . S
C3159 C3158 1.385 . S
C3159 C3160 1.389 . S
C3160 C3159 1.389 . S
C3160 C3161 1.387 . S
C3161 H3146 0.930 1_655 S
C3161 C3156 1.390 . S
C3161 C3160 1.387 . S
H3162 C3174 0.930 . S
H3163 C3176 0.930 . S
H3164 C3177 0.930 . S
H3165 C3181 0.959 . S
H3166 C3181 0.959 . S
H3167 C3181 0.961 . S
H3168 C3182 0.960 . S
H3169 C3182 0.961 . S
H3170 C3182 0.959 . S
H3171 C3185 0.929 . S
H3172 C3186 0.931 . S
H3173 C3188 0.930 . S
C3174 H3162 0.930 . S
C3174 C3175 1.399 . S
C3174 C3179 1.399 . S
C3175 C3174 1.399 . S
C3175 C3176 1.376 . S
C3176 H3163 0.930 . S
C3176 C3175 1.376 . S
C3176 C3177 1.388 . S
C3177 H3164 0.930 . S
C3177 C3176 1.388 . S
C3177 C3178 1.390 . S
C3178 C3177 1.390 . S
C3178 C3179 1.394 . S
C3178 C3184 1.465 . S
C3179 C3174 1.399 . S
C3179 C3178 1.394 . S
C3179 C3180 1.516 . S
C3180 C3179 1.516 . S
C3180 C3181 1.502 . S
C3180 C3182 1.561 . S
C3180 C3183 1.526 . S
C3181 H3165 0.959 . S
C3181 H3166 0.959 . S
C3181 H3167 0.961 . S
C3181 C3180 1.502 . S
C3182 H3168 0.960 . S
C3182 H3169 0.961 . S
C3182 H3170 0.959 . S
C3182 C3180 1.561 . S
C3183 C3180 1.526 . S
C3183 C3184 1.396 . S
C3183 C3188 1.390 . S
C3184 C3178 1.465 . S
C3184 C3183 1.396 . S
C3184 C3185 1.399 . S
C3185 H3171 0.929 . S
C3185 C3184 1.399 . S
C3185 C3186 1.385 . S
C3186 H3172 0.931 . S
C3186 C3185 1.385 . S
C3186 C3187 1.389 . S
C3187 C3186 1.389 . S
C3187 C3188 1.387 . S
C3188 H3173 0.930 . S
C3188 C3183 1.390 . S
C3188 C3187 1.387 . S
H3189 C3201 0.930 . S
H3190 C3203 0.930 . S
H3191 C3204 0.930 . S
H3192 C3208 0.959 . S
H3193 C3208 0.959 . S
H3194 C3208 0.961 . S
H3195 C3209 0.960 . S
H3196 C3209 0.961 . S
H3197 C3209 0.959 . S
H3198 C3212 0.929 . S
H3199 C3213 0.931 . S
H3200 C3215 0.930 . S
C3201 H3189 0.930 . S
C3201 C3202 1.399 . S
C3201 C3206 1.399 . S
C3202 C3201 1.399 . S
C3202 C3203 1.376 . S
C3203 H3190 0.930 . S
C3203 C3202 1.376 . S
C3203 C3204 1.388 . S
C3204 H3191 0.930 . S
C3204 C3203 1.388 . S
C3204 C3205 1.390 . S
C3205 C3204 1.390 . S
C3205 C3206 1.394 . S
C3205 C3211 1.465 . S
C3206 C3201 1.399 . S
C3206 C3205 1.394 . S
C3206 C3207 1.516 . S
C3207 C3206 1.516 . S
C3207 C3208 1.502 1_455 S
C3207 C3209 1.561 . S
C3207 C3210 1.526 . S
C3208 H3192 0.959 . S
C3208 H3193 0.959 . S
C3208 H3194 0.961 . S
C3208 C3207 1.502 1_655 S
C3209 H3195 0.960 . S
C3209 H3196 0.961 . S
C3209 H3197 0.959 . S
C3209 C3207 1.561 . S
C3210 C3207 1.526 . S
C3210 C3211 1.396 . S
C3210 C3215 1.390 . S
C3211 C3205 1.465 . S
C3211 C3210 1.396 . S
C3211 C3212 1.399 . S
C3212 H3198 0.929 . S
C3212 C3211 1.399 . S
C3212 C3213 1.385 . S
C3213 H3199 0.931 . S
C3213 C3212 1.385 . S
C3213 C3214 1.389 . S
C3214 C3213 1.389 . S
C3214 C3215 1.387 . S
C3215 H3200 0.930 . S
C3215 C3210 1.390 . S
C3215 C3214 1.387 . S
C1297 C1267 1.761 . S
C1285 C15 1.807 . S
C1324 C1228 1.538 . S
C1312 C55 1.494 . S
C1351 C1254 0.910 . S
C1339 C95 0.822 . S
C1378 C1241 1.454 . S
C1366 C135 1.495 . S
C1405 C1150 1.720 . S
C1393 C175 1.809 . S
C1420 C215 1.522 . S
C1432 C1163 1.453 . S
C1459 C1124 1.536 . S
C1447 C255 1.478 . S
C1474 C295 0.822 . S
C1486 C1137 0.910 . S
C1513 C1215 1.732 . S
C1501 C335 1.805 . S
C1528 C375 1.472 . S
C1540 C1189 1.477 . S
C1555 C415 1.503 . S
C1567 C1176 1.536 . S
C1594 C1202 0.841 . S
C1582 C455 0.845 1_455 S
C1621 C1111 1.779 . S
C1609 C495 1.823 . S
C1636 C535 1.481 . S
C1648 C1072 1.533 . S
C1675 C1098 0.772 . S
C1663 C575 0.849 . S
C1690 C615 1.474 . S
C1702 C1085 1.444 . S
C1729 C994 1.777 . S
C1717 C655 1.825 . S
C1756 C1007 1.502 . S
C1744 C695 1.524 . S
C1771 C735 1.417 . S
C1783 C968 1.505 . S
C1798 C775 0.836 . S
C1810 C981 0.800 . S
C1825 C815 1.807 . S
C1837 C1059 1.769 . S
C1852 C855 1.489 . S
C1864 C1033 1.512 . S
C1891 C1020 1.496 . S
C1879 C895 1.408 . S
C1906 C935 0.819 1_455 S
C1918 C1046 0.913 . S
C1945 C969 1.605 . S
C1933 C21 1.670 . S
C1972 C982 1.721 . S
C1960 C61 1.722 . S
C1987 C101 0.762 . S
C1999 C995 0.779 . S
C2014 C141 0.911 . S
C2026 C1008 0.892 . S
C2053 C1021 1.602 . S
C2041 C181 1.672 . S
C2068 C221 0.906 . S
C2080 C1034 0.880 . S
C2107 C1047 1.640 . S
C2095 C261 1.764 . S
C2134 C1060 0.787 . S
C2122 C301 0.782 . S
C2161 C1073 1.652 . S
C2149 C341 1.669 . S
C2176 C381 0.909 . S
C2188 C1086 0.887 . S
C2203 C421 1.732 . S
C2215 C1099 1.687 . S
C2230 C461 0.801 . S
C2242 C1112 0.795 . S
C2257 C501 1.654 . S
C2269 C1125 1.602 . S
C2284 C541 1.642 . S
C2296 C1138 1.635 . S
C2311 C581 0.838 1_545 S
C2323 C1151 0.778 . S
C2338 C621 0.872 . S
C2350 C1164 0.934 . S
C2365 C661 1.659 . S
C2377 C1177 1.624 . S
C2404 C1190 0.937 . S
C2392 C701 0.867 . S
C2431 C1203 1.685 . S
C2419 C741 1.646 . S
C2458 C1216 0.777 . S
C2446 C781 0.839 1_554 S
C2485 C1229 1.647 . S
C2473 C821 1.641 . S
C2500 C861 0.903 . S
C2512 C1242 0.901 . S
C2527 C901 1.570 . S
C2539 C1255 1.674 . S
C2554 C941 0.805 1_455 S
C2566 C1268 0.802 . S
C2581 C2 1.642 . S
C2593 C1068 1.524 . S
C2620 C1107 1.679 . S
C2608 C42 1.779 . S
C2635 C82 1.532 . S
C2647 C1081 1.341 . S
C2674 C1094 1.553 . S
C2662 C122 1.545 . S
C2689 C162 1.650 . S
C2701 C964 1.607 . S
C2716 C202 1.550 . S
C2728 C977 1.556 . S
C2743 C242 1.788 . S
C2755 C990 1.571 . S
C2770 C282 1.498 . S
C2782 C1003 1.415 . S
C2809 C1016 1.531 . S
C2797 C322 1.649 . S
C2836 C1042 1.511 . S
C2824 C362 1.535 . S
C2851 C402 1.801 . S
C2863 C1055 1.631 . S
C2878 C442 1.514 . S
C2890 C1029 1.348 . S
C2917 C1224 1.503 . S
C2905 C482 1.608 . S
C2944 C1263 1.709 . S
C2932 C522 1.734 . S
C2959 C562 1.549 1_545 S
C2971 C1237 1.444 . S
C2998 C1250 1.547 . S
C2986 C602 1.529 . S
C3013 C642 1.649 . S
C3025 C1120 1.592 . S
C3040 C682 1.526 . S
C3052 C1133 1.457 . S
C3067 C722 1.661 . S
C3079 C1146 1.612 . S
C3106 C1159 1.448 . S
C3094 C762 1.553 1_554 S
C3133 C1172 1.537 . S
C3121 C802 1.612 . S
C3160 C1198 1.536 . S
C3148 C842 1.559 . S
C3175 C882 1.734 . S
C3187 C1211 1.693 . S
C3214 C1185 1.371 . S
C3202 C922 1.546 1_455 S
