# Generated by pormake.
# Topology ssc, (4,4)-cn, num edge types: 1
# Building blocks:
#     Node 0, Type 0, BuildingBlock: ESEHIV_clean_sbu_0, # of connection points: 4
#     Node 1, Type 0, BuildingBlock: ESEHIV_clean_sbu_0, # of connection points: 4
#     Node 2, Type 0, BuildingBlock: ESEHIV_clean_sbu_0, # of connection points: 4
#     Node 3, Type 0, BuildingBlock: ESEHIV_clean_sbu_0, # of connection points: 4
#     Node 4, Type 0, BuildingBlock: ESEHIV_clean_sbu_0, # of connection points: 4
#     Node 5, Type 0, BuildingBlock: ESEHIV_clean_sbu_0, # of connection points: 4
#     Node 6, Type 0, BuildingBlock: ESEHIV_clean_sbu_0, # of connection points: 4
#     Node 7, Type 0, BuildingBlock: ESEHIV_clean_sbu_0, # of connection points: 4
#     Node 8, Type 0, BuildingBlock: ESEHIV_clean_sbu_0, # of connection points: 4
#     Node 9, Type 0, BuildingBlock: ESEHIV_clean_sbu_0, # of connection points: 4
#     Node 10, Type 0, BuildingBlock: ESEHIV_clean_sbu_0, # of connection points: 4
#     Node 11, Type 0, BuildingBlock: ESEHIV_clean_sbu_0, # of connection points: 4
#     Node 12, Type 1, BuildingBlock: GIZVER_clean_linker_0, # of connection points: 4
#     Node 13, Type 1, BuildingBlock: GIZVER_clean_linker_0, # of connection points: 4
#     Node 14, Type 1, BuildingBlock: GIZVER_clean_linker_0, # of connection points: 4
#     Node 15, Type 1, BuildingBlock: GIZVER_clean_linker_0, # of connection points: 4
#     Node 16, Type 1, BuildingBlock: GIZVER_clean_linker_0, # of connection points: 4
#     Node 17, Type 1, BuildingBlock: GIZVER_clean_linker_0, # of connection points: 4
#     Node 18, Type 1, BuildingBlock: GIZVER_clean_linker_0, # of connection points: 4
#     Node 19, Type 1, BuildingBlock: GIZVER_clean_linker_0, # of connection points: 4
#     Node 20, Type 1, BuildingBlock: GIZVER_clean_linker_0, # of connection points: 4
#     Node 21, Type 1, BuildingBlock: GIZVER_clean_linker_0, # of connection points: 4
#     Node 22, Type 1, BuildingBlock: GIZVER_clean_linker_0, # of connection points: 4
#     Node 23, Type 1, BuildingBlock: GIZVER_clean_linker_0, # of connection points: 4
#     Edge 24, Type (0, 1), BuildingBlock: ZUJKAS_clean_linker_0, # of connection points: 2
#     Edge 25, Type (0, 1), BuildingBlock: ZUJKAS_clean_linker_0, # of connection points: 2
#     Edge 26, Type (0, 1), BuildingBlock: ZUJKAS_clean_linker_0, # of connection points: 2
#     Edge 27, Type (0, 1), BuildingBlock: ZUJKAS_clean_linker_0, # of connection points: 2
#     Edge 28, Type (0, 1), BuildingBlock: ZUJKAS_clean_linker_0, # of connection points: 2
#     Edge 29, Type (0, 1), BuildingBlock: ZUJKAS_clean_linker_0, # of connection points: 2
#     Edge 30, Type (0, 1), BuildingBlock: ZUJKAS_clean_linker_0, # of connection points: 2
#     Edge 31, Type (0, 1), BuildingBlock: ZUJKAS_clean_linker_0, # of connection points: 2
#     Edge 32, Type (0, 1), BuildingBlock: ZUJKAS_clean_linker_0, # of connection points: 2
#     Edge 33, Type (0, 1), BuildingBlock: ZUJKAS_clean_linker_0, # of connection points: 2
#     Edge 34, Type (0, 1), BuildingBlock: ZUJKAS_clean_linker_0, # of connection points: 2
#     Edge 35, Type (0, 1), BuildingBlock: ZUJKAS_clean_linker_0, # of connection points: 2
#     Edge 36, Type (0, 1), BuildingBlock: ZUJKAS_clean_linker_0, # of connection points: 2
#     Edge 37, Type (0, 1), BuildingBlock: ZUJKAS_clean_linker_0, # of connection points: 2
#     Edge 38, Type (0, 1), BuildingBlock: ZUJKAS_clean_linker_0, # of connection points: 2
#     Edge 39, Type (0, 1), BuildingBlock: ZUJKAS_clean_linker_0, # of connection points: 2
#     Edge 40, Type (0, 1), BuildingBlock: ZUJKAS_clean_linker_0, # of connection points: 2
#     Edge 41, Type (0, 1), BuildingBlock: ZUJKAS_clean_linker_0, # of connection points: 2
#     Edge 42, Type (0, 1), BuildingBlock: ZUJKAS_clean_linker_0, # of connection points: 2
#     Edge 43, Type (0, 1), BuildingBlock: ZUJKAS_clean_linker_0, # of connection points: 2
#     Edge 44, Type (0, 1), BuildingBlock: ZUJKAS_clean_linker_0, # of connection points: 2
#     Edge 45, Type (0, 1), BuildingBlock: ZUJKAS_clean_linker_0, # of connection points: 2
#     Edge 46, Type (0, 1), BuildingBlock: ZUJKAS_clean_linker_0, # of connection points: 2
#     Edge 47, Type (0, 1), BuildingBlock: ZUJKAS_clean_linker_0, # of connection points: 2
#     Edge 48, Type (0, 1), BuildingBlock: ZUJKAS_clean_linker_0, # of connection points: 2
#     Edge 49, Type (0, 1), BuildingBlock: ZUJKAS_clean_linker_0, # of connection points: 2
#     Edge 50, Type (0, 1), BuildingBlock: ZUJKAS_clean_linker_0, # of connection points: 2
#     Edge 51, Type (0, 1), BuildingBlock: ZUJKAS_clean_linker_0, # of connection points: 2
#     Edge 52, Type (0, 1), BuildingBlock: ZUJKAS_clean_linker_0, # of connection points: 2
#     Edge 53, Type (0, 1), BuildingBlock: ZUJKAS_clean_linker_0, # of connection points: 2
#     Edge 54, Type (0, 1), BuildingBlock: ZUJKAS_clean_linker_0, # of connection points: 2
#     Edge 55, Type (0, 1), BuildingBlock: ZUJKAS_clean_linker_0, # of connection points: 2
#     Edge 56, Type (0, 1), BuildingBlock: ZUJKAS_clean_linker_0, # of connection points: 2
#     Edge 57, Type (0, 1), BuildingBlock: ZUJKAS_clean_linker_0, # of connection points: 2
#     Edge 58, Type (0, 1), BuildingBlock: ZUJKAS_clean_linker_0, # of connection points: 2
#     Edge 59, Type (0, 1), BuildingBlock: ZUJKAS_clean_linker_0, # of connection points: 2
#     Edge 60, Type (0, 1), BuildingBlock: ZUJKAS_clean_linker_0, # of connection points: 2
#     Edge 61, Type (0, 1), BuildingBlock: ZUJKAS_clean_linker_0, # of connection points: 2
#     Edge 62, Type (0, 1), BuildingBlock: ZUJKAS_clean_linker_0, # of connection points: 2
#     Edge 63, Type (0, 1), BuildingBlock: ZUJKAS_clean_linker_0, # of connection points: 2
#     Edge 64, Type (0, 1), BuildingBlock: ZUJKAS_clean_linker_0, # of connection points: 2
#     Edge 65, Type (0, 1), BuildingBlock: ZUJKAS_clean_linker_0, # of connection points: 2
#     Edge 66, Type (0, 1), BuildingBlock: ZUJKAS_clean_linker_0, # of connection points: 2
#     Edge 67, Type (0, 1), BuildingBlock: ZUJKAS_clean_linker_0, # of connection points: 2
#     Edge 68, Type (0, 1), BuildingBlock: ZUJKAS_clean_linker_0, # of connection points: 2
#     Edge 69, Type (0, 1), BuildingBlock: ZUJKAS_clean_linker_0, # of connection points: 2
#     Edge 70, Type (0, 1), BuildingBlock: ZUJKAS_clean_linker_0, # of connection points: 2
#     Edge 71, Type (0, 1), BuildingBlock: ZUJKAS_clean_linker_0, # of connection points: 2
# Relax obj value: 0.046
# Max RMSD: 0.289
# Mean RMSD: 0.195
data_MOF--net-ssc--node1-ESEHIV_clean_sbu_0--node2-GIZVER_clean_linker_0--edge1-ZUJKAS_clean_linker_0
_symmetry_space_group_name_H-M    P1
_symmetry_Int_Tables_number       1
_symmetry_cell_setting            triclinic
loop_
_symmetry_equiv_pos_as_xyz
'x, y, z'
_cell_length_a     42.464262
_cell_length_b     42.680406
_cell_length_c     42.39647
_cell_angle_alpha  90.318058
_cell_angle_beta   92.772048
_cell_angle_gamma 95.789872
loop_
_atom_site_label
_atom_site_type_symbol
_atom_site_fract_x
_atom_site_fract_y
_atom_site_fract_z
_atom_type_partial_charge
Cu0 Cu 0.04312 0.27071 0.16621 0.0
N1 N 0.04512 0.24912 0.20434 0.0
N2 N 0.02517 0.23228 0.24987 0.0
C3 C 0.01877 0.24192 0.22023 0.0
C4 C 0.05703 0.23261 0.25252 0.0
C5 C 0.06935 0.24328 0.2244 0.0
O6 O 0.01649 0.30427 0.17358 0.0
C7 C 0.03804 0.2199 0.12319 0.0
O8 O 0.0657 0.21544 0.13674 0.0
H9 H 0.99535 0.24553 0.21062 0.0
H10 H 0.09415 0.24839 0.21986 0.0
N11 N 0.0812 0.28949 0.15149 0.0
N12 N 0.11136 0.32241 0.12176 0.0
C13 C 0.0817 0.31239 0.12983 0.0
C14 C 0.11171 0.2845 0.15745 0.0
C15 C 0.13043 0.30495 0.13921 0.0
C16 C 0.01896 0.32208 0.19809 0.0
O17 O 0.99763 0.34182 0.20194 0.0
H18 H 0.06042 0.32168 0.12047 0.0
H19 H 0.11979 0.26709 0.1735 0.0
O20 O 0.02347 0.24246 0.13299 0.0
H21 H 0.07057 0.22759 0.27386 0.0
H22 H 0.15596 0.30629 0.13836 0.0
Cu23 Cu 0.01202 0.74496 0.38027 0.0
N24 N 0.97821 0.76257 0.39801 0.0
N25 N 0.95475 0.79247 0.43171 0.0
C26 C 0.9823 0.78257 0.42289 0.0
C27 C 0.93235 0.77803 0.4113 0.0
C28 C 0.94688 0.75957 0.39058 0.0
O29 O 0.03066 0.71976 0.41286 0.0
C30 C 0.04442 0.79597 0.34463 0.0
O31 O 0.06871 0.81721 0.34179 0.0
H32 H 1.00534 0.78998 0.43398 0.0
H33 H 0.9354 0.74524 0.37143 0.0
N34 N 1.00217 0.71974 0.34408 0.0
N35 N 0.00914 0.70083 0.29578 0.0
C36 C 0.02258 0.71721 0.32112 0.0
C37 C 0.97515 0.70285 0.33374 0.0
C38 C 0.9794 0.69114 0.30391 0.0
C39 C 0.01454 0.6958 0.42375 0.0
O40 O 0.98564 0.68796 0.41189 0.0
H41 H 0.0463 0.72921 0.32223 0.0
H42 H 0.95359 0.70006 0.34642 0.0
O43 O 0.04284 0.77993 0.36996 0.0
H44 H 0.90721 0.78025 0.41147 0.0
H45 H 0.96155 0.67765 0.28892 0.0
Cu46 Cu 0.51034 0.75547 0.64215 0.0
N47 N 0.51771 0.79675 0.62788 0.0
N48 N 0.52507 0.83925 0.59733 0.0
C49 C 0.51897 0.80748 0.59805 0.0
C50 C 0.52763 0.84861 0.6279 0.0
C51 C 0.52304 0.82244 0.64659 0.0
O52 O 0.51438 0.72554 0.60799 0.0
C53 C 0.5682 0.74426 0.67592 0.0
O54 O 0.57874 0.73907 0.64793 0.0
H55 H 0.51598 0.79224 0.57741 0.0
H56 H 0.52355 0.82208 0.67212 0.0
N57 N 0.46903 0.74946 0.65592 0.0
N58 N 0.428 0.74429 0.68723 0.0
C59 C 0.45946 0.75247 0.68555 0.0
C60 C 0.44274 0.73935 0.63828 0.0
C61 C 0.41741 0.736 0.65755 0.0
C62 C 0.50481 0.69652 0.61112 0.0
O63 O 0.4943 0.68687 0.63843 0.0
H64 H 0.47541 0.75946 0.70562 0.0
H65 H 0.44221 0.73415 0.61324 0.0
O66 O 0.53969 0.75052 0.67808 0.0
H67 H 0.5322 0.87267 0.63629 0.0
H68 H 0.39313 0.72791 0.65035 0.0
Cu69 Cu 0.48633 0.24675 0.86842 0.0
N70 N 0.45397 0.26796 0.88455 0.0
N71 N 0.43302 0.30026 0.91779 0.0
C72 C 0.45882 0.286 0.91082 0.0
C73 C 0.41088 0.29074 0.89484 0.0
C74 C 0.42383 0.27072 0.87442 0.0
O75 O 0.50043 0.21951 0.90175 0.0
C76 C 0.52539 0.29397 0.83521 0.0
O77 O 0.55188 0.31234 0.83279 0.0
H78 H 0.48136 0.2892 0.92408 0.0
H79 H 0.4122 0.25966 0.85342 0.0
N80 N 0.47694 0.22355 0.83088 0.0
N81 N 0.48791 0.20364 0.78414 0.0
C82 C 0.49973 0.21528 0.81241 0.0
C83 C 0.44947 0.21601 0.81409 0.0
C84 C 0.45622 0.20384 0.78518 0.0
C85 C 0.48516 0.19332 0.9083 0.0
O86 O 0.45958 0.18329 0.89099 0.0
H87 H 0.52476 0.22022 0.81869 0.0
H88 H 0.42634 0.22031 0.82154 0.0
O89 O 0.52126 0.27829 0.86048 0.0
H90 H 0.38703 0.29767 0.89293 0.0
H91 H 0.43924 0.19679 0.766 0.0
Cu92 Cu 0.12721 0.01244 0.25106 0.0
N93 N 0.08772 0.02846 0.24646 0.0
N94 N 0.03833 0.03537 0.2596 0.0
C95 C 0.06698 0.02703 0.26958 0.0
C96 C 0.04158 0.04339 0.22906 0.0
C97 C 0.07206 0.0392 0.22105 0.0
O98 O 0.12159 0.9764 0.27891 0.0
C99 C 0.16503 0.07085 0.25766 0.0
O100 O 0.14811 0.07803 0.23244 0.0
H101 H 0.0723 0.01771 0.29269 0.0
H102 H 0.0816 0.04283 0.19808 0.0
N103 N 0.14365 0.99812 0.21411 0.0
N104 N 0.17568 0.97205 0.18542 0.0
C105 C 0.16848 0.98083 0.21463 0.0
C106 C 0.13476 1.0006 0.18338 0.0
C107 C 0.15444 0.98444 0.16565 0.0
C108 C 0.09848 0.95475 0.27714 0.0
O109 O 0.09635 0.93336 0.29927 0.0
H110 H 0.18048 0.97416 0.2363 0.0
H111 H 0.11517 0.01272 0.17438 0.0
O112 O 0.15904 0.04394 0.27011 0.0
H113 H 0.02312 0.05103 0.2133 0.0
H114 H 0.15323 0.98217 0.14021 0.0
Cu115 Cu 0.25393 0.91631 0.53378 0.0
N116 N 0.25004 0.89151 0.49695 0.0
N117 N 0.24948 0.85157 0.46231 0.0
C118 C 0.25473 0.86096 0.49286 0.0
C119 C 0.24116 0.87727 0.44679 0.0
C120 C 0.24153 0.90173 0.46815 0.0
O121 O 0.25946 0.89052 0.57083 0.0
C122 C 0.30151 0.96486 0.55398 0.0
O123 O 0.29062 0.9593 0.5821 0.0
H124 H 0.26153 0.84589 0.5119 0.0
H125 H 0.23615 0.92547 0.46307 0.0
N126 N 0.21656 0.93551 0.53708 0.0
N127 N 0.18198 0.97137 0.54196 0.0
C128 C 0.21285 0.96639 0.54003 0.0
C129 C 0.18722 0.92044 0.53712 0.0
C130 C 0.16589 0.94239 0.54015 0.0
C131 C 0.28301 0.87468 0.57577 0.0
O132 O 0.30529 0.87582 0.55523 0.0
H133 H 0.23242 0.98473 0.54057 0.0
H134 H 0.1818 0.89516 0.53533 0.0
O135 O 0.28921 0.94856 0.53046 0.0
H136 H 0.23585 0.87859 0.42165 0.0
H137 H 0.14054 0.93719 0.54161 0.0
Cu138 Cu 0.40865 0.03559 0.78884 0.0
N139 N 0.43263 0.03793 0.82703 0.0
N140 N 0.47104 0.03253 0.86404 0.0
C141 C 0.45931 0.02443 0.83453 0.0
C142 C 0.45091 0.05192 0.87533 0.0
C143 C 0.42731 0.0552 0.85249 0.0
O144 O 0.43618 0.02725 0.75497 0.0
C145 C 0.35062 0.99847 0.77082 0.0
O146 O 0.35126 0.01561 0.74517 0.0
H147 H 0.46981 0.00898 0.81864 0.0
H148 H 0.4079 0.06963 0.85407 0.0
N149 N 0.39459 0.07517 0.78177 0.0
N150 N 0.36528 0.11591 0.77815 0.0
C151 C 0.36565 0.08494 0.78492 0.0
C152 C 0.41312 0.10069 0.77297 0.0
C153 C 0.3952 0.12575 0.77066 0.0
C154 C 0.43468 1.00221 0.73826 0.0
O155 O 0.41313 0.97882 0.74361 0.0
H156 H 0.34531 0.06956 0.79167 0.0
H157 H 0.43806 0.10102 0.76873 0.0
O158 O 0.37305 1.00333 0.79186 0.0
H159 H 0.45348 0.06369 0.8981 0.0
H160 H 0.40373 0.14944 0.76425 0.0
Cu161 Cu 0.28458 0.15026 1.00291 0.0
N162 N 0.27148 0.17018 0.96625 0.0
N163 N 0.26468 0.20517 0.92811 0.0
C164 C 0.27771 0.20033 0.95723 0.0
C165 C 0.24995 0.17695 0.91859 0.0
C166 C 0.25425 0.1555 0.94208 0.0
O167 O 0.28655 0.1786 0.03925 0.0
C168 C 0.25502 0.09298 0.02945 0.0
O169 O 0.27771 0.09609 0.05177 0.0
H170 H 0.29122 0.2183 0.97182 0.0
H171 H 0.24568 0.13075 0.94152 0.0
N172 N 0.32487 0.13829 0.9965 0.0
N173 N 0.36548 0.10965 0.99072 0.0
C174 C 0.33519 0.10955 0.99919 0.0
C175 C 0.34941 0.15714 0.986 0.0
C176 C 0.37451 0.13955 0.9824 0.0
C177 C 0.26382 0.1944 0.04592 0.0
O178 O 0.2376 0.19128 0.02791 0.0
H179 H 0.3206 0.08884 0.00643 0.0
H180 H 0.3489 0.18191 0.98101 0.0
O181 O 0.25427 0.11351 0.00785 0.0
H182 H 0.23733 0.17197 0.89605 0.0
H183 H 0.39768 0.14815 0.9746 0.0
Cu184 Cu 0.72811 0.40448 0.01767 0.0
N185 N 0.73057 0.3884 0.97697 0.0
N186 N 0.73717 0.35551 0.93709 0.0
C187 C 0.73879 0.3599 0.96878 0.0
C188 C 0.72757 0.38239 0.92502 0.0
C189 C 0.72354 0.40259 0.94966 0.0
O190 O 0.73448 0.37152 0.04794 0.0
C191 C 0.78948 0.43572 0.02506 0.0
O192 O 0.79754 0.4073 0.01979 0.0
H193 H 0.7453 0.34259 0.98581 0.0
H194 H 0.71591 0.42598 0.94786 0.0
N195 N 0.68788 0.41758 0.02184 0.0
N196 N 0.64689 0.44658 0.02 0.0
C197 C 0.67679 0.44432 0.01131 0.0
C198 C 0.66415 0.40235 0.03739 0.0
C199 C 0.6389 0.42026 0.03647 0.0
C200 C 0.73347 0.37623 0.07752 0.0
O201 O 0.72879 0.40438 0.08788 0.0
H202 H 0.69073 0.46223 0.99854 0.0
H203 H 0.66538 0.38001 0.04909 0.0
O204 O 0.76022 0.43979 0.02521 0.0
H205 H 0.72407 0.38733 0.90016 0.0
H206 H 0.61651 0.41453 0.04732 0.0
Cu207 Cu 0.91705 0.5583 0.25831 0.0
N208 N 0.94976 0.53351 0.24981 0.0
N209 N 0.99368 0.50962 0.26012 0.0
C210 C 0.96953 0.5232 0.27235 0.0
C211 C 0.98814 0.51033 0.22855 0.0
C212 C 0.96108 0.52508 0.22225 0.0
O213 O 0.93179 0.58748 0.29269 0.0
C214 C 0.86882 0.50735 0.25517 0.0
O215 O 0.88187 0.50117 0.22866 0.0
H216 H 0.96761 0.52803 0.29723 0.0
H217 H 0.95147 0.53051 0.19915 0.0
N218 N 0.903 0.582 0.22427 0.0
N219 N 0.87512 0.61735 0.1995 0.0
C220 C 0.88727 0.60767 0.22746 0.0
C221 C 0.90078 0.57513 0.19318 0.0
C222 C 0.88385 0.59697 0.17787 0.0
C223 C 0.95957 0.60141 0.29832 0.0
O224 O 0.96538 0.61788 0.32458 0.0
H225 H 0.8836 0.61803 0.25016 0.0
H226 H 0.90876 0.55452 0.18252 0.0
O227 O 0.88067 0.53095 0.27186 0.0
H228 H 1.00328 0.50203 0.21116 0.0
H229 H 0.87653 0.59637 0.15306 0.0
Cu230 Cu 0.74599 0.66038 0.55069 0.0
N231 N 0.73692 0.68286 0.51428 0.0
N232 N 0.73538 0.72159 0.47911 0.0
C233 C 0.74375 0.71388 0.50904 0.0
C234 C 0.72303 0.69431 0.46509 0.0
C235 C 0.72422 0.6705 0.48674 0.0
O236 O 0.74867 0.68793 0.5876 0.0
C237 C 0.68545 0.62429 0.54678 0.0
O238 O 0.67502 0.65057 0.53668 0.0
H239 H 0.75461 0.73037 0.52682 0.0
H240 H 0.71678 0.64576 0.48262 0.0
N241 N 0.78578 0.64637 0.54642 0.0
N242 N 0.82495 0.61565 0.54129 0.0
C243 C 0.79359 0.61657 0.54514 0.0
C244 C 0.81293 0.66489 0.54314 0.0
C245 C 0.83712 0.64608 0.54003 0.0
C246 C 0.72709 0.7048 0.5952 0.0
O247 O 0.70045 0.70332 0.57793 0.0
H248 H 0.77667 0.59608 0.54736 0.0
H249 H 0.81487 0.69036 0.54283 0.0
O250 O 0.71475 0.624 0.5547 0.0
H251 H 0.71443 0.69157 0.44068 0.0
H252 H 0.86167 0.65425 0.53665 0.0
Cu253 Cu 0.65642 0.53733 0.7899 0.0
N254 N 0.641 0.57127 0.8101 0.0
N255 N 0.61045 0.59503 0.84244 0.0
C256 C 0.62234 0.56796 0.83495 0.0
C257 C 0.6221 0.61629 0.82139 0.0
C258 C 0.64099 0.60155 0.80146 0.0
O259 O 0.62503 0.52148 0.75701 0.0
C260 C 0.68657 0.50576 0.84096 0.0
O261 O 0.68883 0.48163 0.85973 0.0
H262 H 0.61614 0.5456 0.84613 0.0
H263 H 0.65259 0.61179 0.78125 0.0
N264 N 0.69548 0.54548 0.77159 0.0
N265 N 0.74211 0.53318 0.75535 0.0
C266 C 0.7128 0.5222 0.76366 0.0
C267 C 0.71406 0.5724 0.76743 0.0
C268 C 0.74298 0.56487 0.75748 0.0
C269 C 0.62313 0.53615 0.73098 0.0
O270 O 0.64268 0.56153 0.72691 0.0
H271 H 0.70473 0.49754 0.76639 0.0
H272 H 0.70759 0.59565 0.77265 0.0
O273 O 0.66233 0.50575 0.82189 0.0
H274 H 0.61658 0.64047 0.81988 0.0
H275 H 0.76332 0.58138 0.75313 0.0
H276 H 0.1017 0.32183 0.70487 0.0
H277 H 0.05211 0.28516 0.61916 0.0
H278 H 0.09807 0.22357 0.6821 0.0
H279 H 0.07869 0.35757 0.67107 0.0
H280 H 0.08093 0.34543 0.63113 0.0
H281 H 0.02217 0.34048 0.69651 0.0
H282 H 0.94809 0.37009 0.63461 0.0
H283 H 0.03851 0.35822 0.59821 0.0
C284 C 0.09237 0.30201 0.68995 0.0
C285 C 0.10101 0.2719 0.69721 0.0
C286 C 0.07341 0.30689 0.66247 0.0
C287 C 0.06438 0.28128 0.64159 0.0
C288 C 0.07278 0.25102 0.64901 0.0
C289 C 0.09007 0.24653 0.67729 0.0
C290 C 0.068 0.34018 0.65298 0.0
C291 C 0.0334 0.34541 0.64731 0.0
C292 C 0.01324 0.34547 0.67288 0.0
C293 C 0.98217 0.35388 0.66812 0.0
C294 C 0.97139 0.3618 0.63781 0.0
C295 C 0.9916 0.36405 0.61271 0.0
C296 C 0.02251 0.35546 0.61738 0.0
H297 H 0.07568 0.7617 0.86056 0.0
H298 H 0.04804 0.78209 0.9546 0.0
H299 H 0.09435 0.85514 0.89909 0.0
H300 H 0.04996 0.72022 0.88902 0.0
H301 H 0.06491 0.72467 0.92873 0.0
H302 H 0.99181 0.7326 0.87593 0.0
H303 H 0.93002 0.69442 0.94621 0.0
H304 H 0.0297 0.7122 0.96895 0.0
C305 C 0.07284 0.7785 0.87921 0.0
C306 C 0.08576 0.80989 0.87615 0.0
C307 C 0.05779 0.76841 0.90696 0.0
C308 C 0.05716 0.79001 0.93225 0.0
C309 C 0.06977 0.82152 0.92907 0.0
C310 C 0.08307 0.83125 0.90074 0.0
C311 C 0.04774 0.73366 0.91123 0.0
C312 C 0.0143 0.72632 0.92213 0.0
C313 C 0.9881 0.72605 0.90023 0.0
C314 C 0.95748 0.71507 0.90919 0.0
C315 C 0.95326 0.70497 0.94017 0.0
C316 C 0.97906 0.70309 0.96167 0.0
C317 C 0.00952 0.71449 0.95277 0.0
H318 H 0.51014 0.74803 0.08602 0.0
H319 H 0.5881 0.79639 0.14178 0.0
H320 H 0.60463 0.72292 0.07692 0.0
H321 H 0.51383 0.77863 0.14964 0.0
H322 H 0.53741 0.81497 0.14453 0.0
H323 H 0.52889 0.82885 0.07673 0.0
H324 H 0.43162 0.84874 0.06717 0.0
H325 H 0.46168 0.79269 0.14406 0.0
C326 C 0.53535 0.75264 0.09167 0.0
C327 C 0.55644 0.73394 0.07785 0.0
C328 C 0.54679 0.77632 0.11388 0.0
C329 C 0.57936 0.77974 0.12321 0.0
C330 C 0.60046 0.76069 0.10981 0.0
C331 C 0.58883 0.73866 0.08644 0.0
C332 C 0.52423 0.79469 0.13146 0.0
C333 C 0.49786 0.80707 0.11118 0.0
C334 C 0.50475 0.82523 0.08417 0.0
C335 C 0.48071 0.83981 0.06764 0.0
C336 C 0.44986 0.83602 0.07849 0.0
C337 C 0.44276 0.81929 0.10591 0.0
C338 C 0.46684 0.80482 0.12223 0.0
H339 H 0.5785 0.29457 0.34667 0.0
H340 H 0.5235 0.30995 0.42748 0.0
H341 H 0.58778 0.38472 0.3933 0.0
H342 H 0.53515 0.25581 0.35827 0.0
H343 H 0.55298 0.25053 0.39594 0.0
H344 H 0.47722 0.26521 0.35219 0.0
H345 H 0.42044 0.22125 0.42392 0.0
H346 H 0.52121 0.23821 0.4404 0.0
C347 C 0.57109 0.31014 0.36456 0.0
C348 C 0.58543 0.34128 0.36698 0.0
C349 C 0.54783 0.29865 0.38556 0.0
C350 C 0.53986 0.31867 0.40998 0.0
C351 C 0.55375 0.35001 0.41218 0.0
C352 C 0.57603 0.36102 0.39045 0.0
C353 C 0.5353 0.26402 0.38324 0.0
C354 C 0.50276 0.25514 0.39583 0.0
C355 C 0.47521 0.25642 0.37601 0.0
C356 C 0.44534 0.2445 0.38629 0.0
C357 C 0.44319 0.23197 0.41665 0.0
C358 C 0.47034 0.22924 0.43611 0.0
C359 C 0.50008 0.24119 0.4258 0.0
H360 H 0.5921 0.02346 0.2048 0.0
H361 H 0.67113 0.07092 0.25982 0.0
H362 H 0.61549 0.12306 0.19585 0.0
H363 H 0.61992 0.99341 0.24133 0.0
H364 H 0.66001 0.0063 0.23434 0.0
H365 H 0.5999 0.01887 0.29587 0.0
H366 H 0.66235 0.99289 0.37168 0.0
H367 H 0.69392 0.99621 0.27717 0.0
C368 C 0.60607 0.04502 0.21257 0.0
C369 C 0.60012 0.07359 0.19822 0.0
C370 C 0.63097 0.0439 0.23578 0.0
C371 C 0.65057 0.07176 0.2438 0.0
C372 C 0.64437 0.10048 0.22997 0.0
C373 C 0.61887 0.10116 0.20784 0.0
C374 C 0.63937 0.01219 0.24757 0.0
C375 C 0.64709 0.01081 0.28281 0.0
C376 C 0.62328 0.01377 0.30442 0.0
C377 C 0.62905 0.00798 0.33673 0.0
C378 C 0.65881 0.99957 0.34721 0.0
C379 C 0.68213 0.99465 0.32599 0.0
C380 C 0.67637 1.00092 0.29384 0.0
H381 H 0.29742 0.34304 0.5545 0.0
H382 H 0.33234 0.43185 0.5145 0.0
H383 H 0.39608 0.37603 0.56525 0.0
H384 H 0.2604 0.37387 0.53019 0.0
H385 H 0.27287 0.41478 0.53327 0.0
H386 H 0.2657 0.34522 0.47693 0.0
H387 H 0.24134 0.40205 0.39813 0.0
H388 H 0.26692 0.44588 0.48809 0.0
C389 C 0.31703 0.35986 0.54855 0.0
C390 C 0.34766 0.35587 0.5609 0.0
C391 C 0.31141 0.38655 0.53031 0.0
C392 C 0.33679 0.40996 0.52592 0.0
C393 C 0.36752 0.40585 0.53808 0.0
C394 C 0.37275 0.37828 0.55434 0.0
C395 C 0.27761 0.39268 0.52113 0.0
C396 C 0.27084 0.39562 0.48583 0.0
C397 C 0.26452 0.36828 0.46663 0.0
C398 C 0.2543 0.37073 0.43474 0.0
C399 C 0.25124 0.40052 0.42212 0.0
C400 C 0.25473 0.42755 0.44119 0.0
C401 C 0.26522 0.42517 0.47296 0.0
H402 H 0.92868 0.01961 0.70706 0.0
H403 H 0.85516 0.00445 0.77437 0.0
H404 H 0.86988 0.93193 0.70787 0.0
H405 H 0.93038 0.05276 0.75692 0.0
H406 H 0.89732 0.0655 0.73625 0.0
H407 H 0.93077 0.04492 0.81498 0.0
H408 H 0.86516 0.09577 0.8635 0.0
H409 H 0.85092 0.07867 0.76374 0.0
C410 C 0.90987 0.00455 0.71738 0.0
C411 C 0.90158 0.97413 0.70482 0.0
C412 C 0.894 0.01571 0.74321 0.0
C413 C 0.86863 0.99619 0.75552 0.0
C414 C 0.8604 0.9658 0.74288 0.0
C415 C 0.87712 0.95507 0.71804 0.0
C416 C 0.90403 0.04908 0.75512 0.0
C417 C 0.89118 0.05885 0.78612 0.0
C418 C 0.90885 0.05591 0.81486 0.0
C419 C 0.89925 0.06886 0.84304 0.0
C420 C 0.87152 0.08413 0.84226 0.0
C421 C 0.85404 0.08803 0.81392 0.0
C422 C 0.86375 0.07497 0.78591 0.0
H423 H 0.23189 0.69807 0.04105 0.0
H424 H 0.2503 0.61319 0.08976 0.0
H425 H 0.1554 0.63796 0.07742 0.0
H426 H 0.28587 0.68792 0.06034 0.0
H427 H 0.29332 0.65071 0.07629 0.0
H428 H 0.26447 0.68513 0.9984 0.0
H429 H 0.33046 0.63958 0.9455 0.0
H430 H 0.32676 0.62412 0.04523 0.0
C431 C 0.22315 0.67559 0.05073 0.0
C432 C 0.19084 0.66985 0.05685 0.0
C433 C 0.24465 0.65376 0.06012 0.0
C434 C 0.23358 0.62763 0.07842 0.0
C435 C 0.20127 0.62214 0.08469 0.0
C436 C 0.17997 0.64154 0.07101 0.0
C437 C 0.28003 0.66208 0.057 0.0
C438 C 0.29189 0.65323 0.0252 0.0
C439 C 0.28173 0.66819 0.99742 0.0
C440 C 0.29523 0.66263 0.96858 0.0
C441 C 0.31892 0.64223 0.96753 0.0
C442 C 0.33089 0.62863 0.99494 0.0
C443 C 0.31707 0.63393 0.02378 0.0
H444 H 0.80036 0.78823 0.06719 0.0
H445 H 0.81583 0.88559 0.0402 0.0
H446 H 0.89242 0.83831 0.08083 0.0
H447 H 0.75737 0.81119 0.04356 0.0
H448 H 0.75991 0.84989 0.0594 0.0
H449 H 0.76904 0.80436 0.98407 0.0
H450 H 0.7243 0.87193 0.92771 0.0
H451 H 0.74697 0.89119 0.02625 0.0
C452 C 0.81644 0.80898 0.06292 0.0
C453 C 0.84811 0.8099 0.07424 0.0
C454 C 0.80489 0.83567 0.04866 0.0
C455 C 0.82521 0.864 0.04773 0.0
C456 C 0.85711 0.86483 0.05882 0.0
C457 C 0.86849 0.8372 0.07029 0.0
C458 C 0.76959 0.8353 0.04108 0.0
C459 C 0.76084 0.84728 0.00853 0.0
C460 C 0.76073 0.82746 0.98174 0.0
C461 C 0.74826 0.83685 0.95233 0.0
C462 C 0.73579 0.86594 0.94996 0.0
C463 C 0.73473 0.88562 0.97642 0.0
C464 C 0.74804 0.87643 1.00553 0.0
H465 H 0.40824 0.52516 0.19756 0.0
H466 H 0.33761 0.48547 0.25994 0.0
H467 H 0.38024 0.426 0.19576 0.0
H468 H 0.39098 0.55876 0.23661 0.0
H469 H 0.34972 0.54906 0.22913 0.0
H470 H 0.40983 0.52916 0.29441 0.0
H471 H 0.36104 0.57421 0.36552 0.0
H472 H 0.32449 0.57217 0.2694 0.0
C473 C 0.39526 0.50483 0.20777 0.0
C474 C 0.39739 0.47489 0.19462 0.0
C475 C 0.37504 0.50883 0.23276 0.0
C476 C 0.35546 0.48245 0.24307 0.0
C477 C 0.35791 0.45239 0.2301 0.0
C478 C 0.37971 0.4489 0.20693 0.0
C479 C 0.37058 0.54212 0.24329 0.0
C480 C 0.36592 0.5471 0.27823 0.0
C481 C 0.38932 0.54025 0.3013 0.0
C482 C 0.387 0.54941 0.333 0.0
C483 C 0.36153 0.56558 0.34142 0.0
C484 C 0.33919 0.5744 0.31872 0.0
C485 C 0.34123 0.56467 0.28721 0.0
H486 H 0.71804 0.13617 0.53299 0.0
H487 H 0.7013 0.03711 0.51028 0.0
H488 H 0.62464 0.08816 0.53674 0.0
H489 H 0.76193 0.1044 0.53017 0.0
H490 H 0.755 0.06296 0.52449 0.0
H491 H 0.7678 0.14036 0.48463 0.0
H492 H 0.79694 0.09879 0.4 0.0
H493 H 0.75931 0.03925 0.47314 0.0
C494 C 0.70168 0.11535 0.5281 0.0
C495 C 0.66958 0.11578 0.53483 0.0
C496 C 0.71313 0.08733 0.51751 0.0
C497 C 0.69222 0.0594 0.51513 0.0
C498 C 0.66014 0.05985 0.52169 0.0
C499 C 0.64892 0.0884 0.5297 0.0
C500 C 0.74845 0.08581 0.515 0.0
C501 C 0.75918 0.08945 0.4815 0.0
C502 C 0.7689 0.1197 0.4699 0.0
C503 C 0.78221 0.12303 0.44024 0.0
C504 C 0.78482 0.09616 0.42195 0.0
C505 C 0.77746 0.06593 0.43374 0.0
C506 C 0.76406 0.06257 0.46339 0.0
H507 H 0.12649 0.55052 0.72889 0.0
H508 H 0.20465 0.59398 0.78812 0.0
H509 H 0.19134 0.62286 0.6919 0.0
H510 H 0.13847 0.56671 0.80156 0.0
H511 H 0.1342 0.53041 0.78033 0.0
H512 H 0.15185 0.55074 0.85275 0.0
H513 H 0.22375 0.48899 0.87136 0.0
H514 H 0.19913 0.5128 0.77567 0.0
C515 C 0.14828 0.56605 0.73169 0.0
C516 C 0.15721 0.5862 0.70694 0.0
C517 C 0.16575 0.56797 0.76102 0.0
C518 C 0.19236 0.59058 0.76517 0.0
C519 C 0.20213 0.60979 0.73986 0.0
C520 C 0.18474 0.60694 0.71091 0.0
C521 C 0.15192 0.55 0.78876 0.0
C522 C 0.17541 0.5364 0.81164 0.0
C523 C 0.17063 0.53796 0.84433 0.0
C524 C 0.18826 0.52111 0.86603 0.0
C525 C 0.21152 0.50351 0.85487 0.0
C526 C 0.21556 0.50008 0.82244 0.0
C527 C 0.19741 0.51663 0.80079 0.0
H528 H 0.07454 0.34075 0.07252 0.0
H529 H 0.08846 0.38119 0.03405 0.0
H530 H 0.18214 0.39827 0.07848 0.0
H531 H 0.16797 0.35823 0.11815 0.0
H532 H 0.15346 0.45447 0.06168 0.0
H533 H 0.14682 0.36935 0.96177 0.0
H534 H 0.11168 0.36632 0.98389 0.0
H535 H 0.1486 0.3572 1.00247 0.0
C536 C 0.09801 0.35324 0.07454 0.0
C537 C 0.12009 0.34612 0.09864 0.0
C538 C 0.10604 0.37622 0.05223 0.0
C539 C 0.13644 0.3925 0.05313 0.0
C540 C 0.15855 0.38588 0.07728 0.0
H541 H 0.22582 0.52328 0.92057 0.0
H542 H 0.21238 0.4967 0.96991 0.0
C543 C 0.15051 0.36279 0.09977 0.0
C544 C 0.14493 0.41592 0.02835 0.0
H545 H 0.1486 0.42349 0.94846 0.0
C546 C 0.15266 0.44773 0.03693 0.0
C547 C 0.14399 0.40706 0.99608 0.0
C548 C 0.13764 0.37309 0.98546 0.0
C549 C 0.15848 0.47104 0.01392 0.0
C550 C 0.15662 0.46217 0.98165 0.0
C551 C 0.14948 0.43032 0.97321 0.0
C552 C 0.16292 0.48503 0.95587 0.0
C553 C 0.16585 0.50499 0.02413 0.0
C554 C 0.13933 0.4884 0.9321 0.0
C555 C 0.14694 0.50363 0.90393 0.0
C556 C 0.17839 0.51543 0.89888 0.0
C557 C 0.20137 0.51449 0.92385 0.0
C558 C 0.19371 0.49934 0.95209 0.0
H559 H 0.15996 0.5088 0.04903 0.0
H560 H 0.19153 0.51206 0.02205 0.0
H561 H 0.15261 0.52056 0.00865 0.0
H562 H 0.11545 0.47739 0.93449 0.0
H563 H 0.1288 0.50353 0.88505 0.0
H564 H 0.97972 0.79479 0.34323 0.0
H565 H 0.94262 0.78581 0.29715 0.0
H566 H 0.02114 0.77448 0.23848 0.0
H567 H 0.05797 0.7849 0.28423 0.0
H568 H 0.98587 0.8099 0.21061 0.0
H569 H 0.90612 0.7097 0.25096 0.0
H570 H 0.90189 0.74406 0.27428 0.0
H571 H 0.93894 0.7271 0.27568 0.0
C572 C 0.9888 0.78968 0.3206 0.0
C573 C 0.02153 0.78966 0.3174 0.0
C574 C 0.96763 0.78447 0.29421 0.0
C575 C 0.9788 0.77848 0.26423 0.0
C576 C 0.01168 0.77878 0.26121 0.0
H577 H 0.8966 0.77251 0.07134 0.0
H578 H 0.92743 0.75618 0.11773 0.0
C579 C 0.03278 0.78478 0.28736 0.0
C580 C 0.95694 0.77469 0.23542 0.0
H581 H 0.88771 0.73615 0.20401 0.0
C582 C 0.96472 0.79334 0.20915 0.0
C583 C 0.92883 0.75353 0.23336 0.0
C584 C 0.91865 0.73231 0.26005 0.0
C585 C 0.94527 0.79193 0.18138 0.0
C586 C 0.91733 0.77073 0.17934 0.0
C587 C 0.9094 0.75199 0.20542 0.0
C588 C 0.89472 0.77029 0.15143 0.0
C589 C 0.95436 0.81415 0.15495 0.0
C590 C 0.8647 0.78056 0.15486 0.0
C591 C 0.84677 0.78909 0.12836 0.0
C592 C 0.85859 0.7875 0.0981 0.0
C593 C 0.88679 0.77354 0.0944 0.0
C594 C 0.9046 0.76468 0.12092 0.0
H595 H 0.97146 0.83424 0.16335 0.0
H596 H 0.96574 0.80117 0.1366 0.0
H597 H 0.93324 0.82372 0.14377 0.0
H598 H 0.8565 0.78495 0.17813 0.0
H599 H 0.82568 0.80066 0.13187 0.0
H600 H 0.47234 0.63801 0.60668 0.0
H601 H 0.46171 0.60459 0.5597 0.0
H602 H 0.51931 0.67155 0.50587 0.0
H603 H 0.52954 0.70573 0.55273 0.0
H604 H 0.43168 0.62548 0.50423 0.0
H605 H 0.54848 0.58507 0.47954 0.0
H606 H 0.53925 0.59865 0.51816 0.0
H607 H 0.54837 0.6265 0.48754 0.0
C608 C 0.4833 0.64545 0.58505 0.0
C609 C 0.50177 0.67464 0.5835 0.0
C610 C 0.47729 0.62617 0.55823 0.0
C611 C 0.49023 0.63518 0.52943 0.0
C612 C 0.50963 0.66377 0.528 0.0
H613 H 0.44389 0.58454 0.3357 0.0
H614 H 0.47414 0.60058 0.38485 0.0
C615 C 0.51527 0.68339 0.55476 0.0
C616 C 0.48027 0.61649 0.50029 0.0
H617 H 0.5071 0.57431 0.43999 0.0
C618 C 0.44813 0.61404 0.49036 0.0
C619 C 0.50182 0.60175 0.48215 0.0
C620 C 0.53641 0.60281 0.49239 0.0
C621 C 0.43699 0.59795 0.46245 0.0
C622 C 0.45845 0.58315 0.44419 0.0
C623 C 0.49066 0.58541 0.45414 0.0
C624 C 0.44754 0.56695 0.41387 0.0
C625 C 0.4024 0.59788 0.45219 0.0
C626 C 0.42423 0.54112 0.41349 0.0
C627 C 0.40694 0.53196 0.38544 0.0
C628 C 0.41308 0.54818 0.35728 0.0
C629 C 0.43911 0.57127 0.35696 0.0
C630 C 0.45621 0.58065 0.38511 0.0
H631 H 0.39079 0.61598 0.46504 0.0
H632 H 0.39957 0.60224 0.42645 0.0
H633 H 0.38977 0.57451 0.45707 0.0
H634 H 0.41742 0.52996 0.43537 0.0
H635 H 0.38669 0.51445 0.38639 0.0
H636 H 0.54607 0.18285 0.78529 0.0
H637 H 0.57831 0.175 0.74016 0.0
H638 H 0.50324 0.20147 0.67682 0.0
H639 H 0.47103 0.20994 0.72195 0.0
H640 H 0.5636 0.13381 0.68759 0.0
H641 H 0.58197 0.25892 0.65078 0.0
H642 H 0.56823 0.24752 0.68913 0.0
H643 H 0.54148 0.24324 0.65492 0.0
C644 C 0.53645 0.18713 0.76178 0.0
C645 C 0.50598 0.19706 0.75729 0.0
C646 C 0.55488 0.18255 0.736 0.0
C647 C 0.54341 0.18811 0.70515 0.0
C648 C 0.51279 0.19753 0.70045 0.0
H649 H 0.61713 0.1472 0.52398 0.0
H650 H 0.5875 0.16991 0.56517 0.0
C651 C 0.49423 0.20193 0.72626 0.0
C652 C 0.56336 0.18325 0.678 0.0
H653 H 0.60246 0.22122 0.61819 0.0
C654 C 0.57214 0.15294 0.67249 0.0
C655 C 0.57437 0.20823 0.6582 0.0
C656 C 0.5663 0.2414 0.66357 0.0
C657 C 0.59148 0.14689 0.64767 0.0
C658 C 0.60293 0.17193 0.6282 0.0
C659 C 0.59388 0.20218 0.63337 0.0
C660 C 0.62385 0.16641 0.6021 0.0
C661 C 0.59927 0.11361 0.64214 0.0
C662 C 0.65489 0.1589 0.60882 0.0
C663 C 0.67202 0.14628 0.58525 0.0
C664 C 0.65821 0.14075 0.55466 0.0
C665 C 0.62846 0.15148 0.54727 0.0
C666 C 0.61141 0.16421 0.57083 0.0
H667 H 0.5839 0.09613 0.6553 0.0
H668 H 0.59662 0.10744 0.6166 0.0
H669 H 0.6243 0.11171 0.65005 0.0
H670 H 0.66494 0.16055 0.63283 0.0
H671 H 0.69461 0.13781 0.59181 0.0
H672 H 0.98654 0.64304 0.45154 0.0
H673 H 0.00631 0.61546 0.49769 0.0
H674 H 0.09083 0.68073 0.50336 0.0
H675 H 0.07151 0.70819 0.45693 0.0
H676 H 0.10287 0.61795 0.51249 0.0
H677 H 0.00724 0.65045 0.58779 0.0
H678 H 0.99415 0.62989 0.55168 0.0
H679 H 0.0147 0.66873 0.55025 0.0
C680 C 0.00942 0.65148 0.46249 0.0
C681 C 0.02733 0.67802 0.45065 0.0
C682 C 0.02061 0.63574 0.48898 0.0
C683 C 0.04981 0.64632 0.50429 0.0
C684 C 0.06817 0.6722 0.49198 0.0
H685 H 0.1333 0.63938 0.68734 0.0
H686 H 0.10411 0.6483 0.63778 0.0
C687 C 0.05705 0.68792 0.46545 0.0
C688 C 0.06103 0.63115 0.53366 0.0
H689 H 0.04522 0.62033 0.61134 0.0
C690 C 0.09011 0.61811 0.53403 0.0
C691 C 0.04436 0.6315 0.56176 0.0
C692 C 0.0135 0.64609 0.56311 0.0
C693 C 0.10344 0.60626 0.56197 0.0
C694 C 0.08707 0.6072 0.59019 0.0
C695 C 0.05752 0.61932 0.58958 0.0
C696 C 0.10223 0.60007 0.62128 0.0
C697 C 0.13569 0.59435 0.56147 0.0
C698 C 0.11015 0.56969 0.62893 0.0
C699 C 0.12689 0.56448 0.65752 0.0
C700 C 0.13602 0.58966 0.67858 0.0
C701 C 0.12681 0.61962 0.67136 0.0
C702 C 0.11006 0.62474 0.6431 0.0
H703 H 0.14704 0.59917 0.5387 0.0
H704 H 0.15157 0.60543 0.58088 0.0
H705 H 0.13329 0.56853 0.56519 0.0
H706 H 0.10394 0.55023 0.61256 0.0
H707 H 0.13371 0.54119 0.66262 0.0
H708 H 0.55613 0.76241 0.73576 0.0
H709 H 0.59338 0.76993 0.78153 0.0
H710 H 0.66684 0.73678 0.72726 0.0
H711 H 0.6298 0.72956 0.681 0.0
H712 H 0.66528 0.71466 0.79264 0.0
H713 H 0.66523 0.84412 0.78219 0.0
H714 H 0.62633 0.82345 0.78384 0.0
H715 H 0.65009 0.81713 0.75086 0.0
C716 C 0.58012 0.75646 0.73351 0.0
C717 C 0.59003 0.74574 0.70452 0.0
C718 C 0.60142 0.76083 0.75974 0.0
C719 C 0.63305 0.75448 0.75765 0.0
C720 C 0.64265 0.74218 0.7293 0.0
H721 H 0.77155 0.84608 0.89416 0.0
H722 H 0.74938 0.82078 0.84492 0.0
C723 C 0.62141 0.73809 0.70287 0.0
C724 C 0.65633 0.76278 0.78445 0.0
H725 H 0.68905 0.82548 0.82923 0.0
C726 C 0.67073 0.73889 0.80058 0.0
C727 C 0.6639 0.79444 0.79437 0.0
C728 C 0.65086 0.82134 0.77677 0.0
C729 C 0.69157 0.7458 0.82718 0.0
C730 C 0.69784 0.77736 0.83806 0.0
C731 C 0.68424 0.80125 0.82112 0.0
C732 C 0.71703 0.78658 0.86766 0.0
C733 C 0.70671 0.71928 0.84329 0.0
C734 C 0.70751 0.77478 0.897 0.0
C735 C 0.72063 0.78894 0.92523 0.0
C736 C 0.7432 0.81534 0.92454 0.0
C737 C 0.7545 0.8255 0.89533 0.0
C738 C 0.74164 0.81119 0.86718 0.0
H739 H 0.70793 0.69913 0.82683 0.0
H740 H 0.731 0.72723 0.85291 0.0
H741 H 0.6922 0.71069 0.86316 0.0
H742 H 0.68815 0.75632 0.89812 0.0
H743 H 0.71101 0.78113 0.94739 0.0
H744 H 0.46581 0.30207 0.97438 0.0
H745 H 0.46287 0.33914 0.01791 0.0
H746 H 0.39185 0.38464 0.96436 0.0
H747 H 0.39459 0.34742 0.9206 0.0
H748 H 0.47493 0.40347 0.02035 0.0
H749 H 0.34979 0.36744 0.04726 0.0
H750 H 0.37158 0.34459 0.02166 0.0
H751 H 0.35521 0.37931 0.00716 0.0
C752 C 0.44963 0.32001 0.97172 0.0
C753 C 0.43044 0.3217 0.94388 0.0
C754 C 0.44794 0.34119 0.99672 0.0
C755 C 0.42695 0.36455 0.99462 0.0
C756 C 0.40779 0.36645 0.96684 0.0
H757 H 0.38288 0.49996 0.13765 0.0
H758 H 0.39361 0.47824 0.08599 0.0
C759 C 0.40937 0.34513 0.94181 0.0
C760 C 0.42538 0.3868 0.02159 0.0
H761 H 0.37594 0.41059 0.07626 0.0
C762 C 0.45323 0.40512 0.03247 0.0
C763 C 0.3971 0.38897 0.0375 0.0
C764 C 0.36677 0.36886 0.02806 0.0
C765 C 0.45359 0.42528 0.0589 0.0
C766 C 0.42543 0.42711 0.07494 0.0
C767 C 0.39745 0.40937 0.06369 0.0
C768 C 0.42475 0.44513 0.10495 0.0
C769 C 0.48406 0.44442 0.06962 0.0
C770 C 0.43966 0.43457 0.1326 0.0
C771 C 0.43354 0.44693 0.16207 0.0
C772 C 0.41256 0.47021 0.16438 0.0
C773 C 0.3997 0.48256 0.1365 0.0
C774 C 0.40554 0.46992 0.10702 0.0
H775 H 0.50158 0.44598 0.05091 0.0
H776 H 0.47952 0.46861 0.07663 0.0
H777 H 0.49465 0.43313 0.09055 0.0
H778 H 0.45418 0.41516 0.13162 0.0
H779 H 0.44324 0.43659 0.18323 0.0
H780 H 0.02885 0.19371 0.30044 0.0
H781 H 0.98892 0.18304 0.34018 0.0
H782 H 0.93097 0.24839 0.29443 0.0
H783 H 0.97063 0.25946 0.25526 0.0
H784 H 0.93619 0.25237 0.36381 0.0
H785 H 0.90214 0.13086 0.31648 0.0
H786 H 0.9436 0.14296 0.32445 0.0
H787 H 0.9224 0.1612 0.2932 0.0
C788 C 0.00775 0.20599 0.29908 0.0
C789 C 1.00273 0.22699 0.27432 0.0
C790 C 0.98492 0.19981 0.32169 0.0
C791 C 0.95682 0.21469 0.32001 0.0
C792 C 0.95239 0.23655 0.29609 0.0
H793 H 0.77389 0.15552 0.38596 0.0
H794 H 0.81718 0.18463 0.35904 0.0
C795 C 0.975 0.24257 0.27348 0.0
C796 C 0.93105 0.20638 0.34187 0.0
H797 H 0.87353 0.14775 0.3582 0.0
C798 C 0.92262 0.22943 0.36283 0.0
C799 C 0.91317 0.17657 0.34021 0.0
C800 C 0.92047 0.15139 0.31731 0.0
C801 C 0.89667 0.22336 0.38217 0.0
C802 C 0.87871 0.19366 0.38024 0.0
C803 C 0.88733 0.17059 0.3595 0.0
C804 C 0.85063 0.18556 0.39922 0.0
C805 C 0.88806 0.2488 0.40399 0.0
C806 C 0.85448 0.17836 0.43135 0.0
C807 C 0.82958 0.16196 0.44689 0.0
C808 C 0.80069 0.15234 0.43035 0.0
C809 C 0.79576 0.16302 0.39936 0.0
C810 C 0.82061 0.17931 0.38385 0.0
H811 H 0.90212 0.27174 0.40015 0.0
H812 H 0.86246 0.25186 0.40055 0.0
H813 H 0.89237 0.24171 0.42885 0.0
H814 H 0.87753 0.18273 0.44355 0.0
H815 H 0.83424 0.15352 0.47054 0.0
H816 H 0.97707 0.02963 0.23596 0.0
H817 H 0.92907 0.02466 0.26598 0.0
H818 H 0.9863 0.02752 0.35294 0.0
H819 H 0.0342 0.03411 0.32338 0.0
H820 H 0.90545 0.98034 0.30801 0.0
H821 H 0.93055 0.09661 0.36766 0.0
H822 H 0.95276 0.08514 0.33505 0.0
H823 H 0.96205 0.0721 0.37441 0.0
C824 C 0.97953 0.02979 0.26147 0.0
C825 C 0.00974 0.03271 0.27713 0.0
C826 C 0.95199 0.02653 0.27862 0.0
C827 C 0.954 0.02617 0.31177 0.0
C828 C 0.98405 0.02836 0.32741 0.0
H829 H 0.82212 0.03119 0.45908 0.0
H830 H 0.86391 0.01197 0.42882 0.0
C831 C 0.01154 0.03184 0.31036 0.0
C832 C 0.92484 0.02413 0.33016 0.0
H833 H 0.88871 0.06225 0.38719 0.0
C834 C 0.90174 0.99827 0.32529 0.0
C835 C 0.91983 0.04763 0.35257 0.0
C836 C 0.94244 0.07709 0.35753 0.0
C837 C 0.87412 0.99509 0.34265 0.0
C838 C 0.86959 0.01828 0.36542 0.0
C839 C 0.89257 0.04412 0.37015 0.0
C840 C 0.84031 0.01804 0.38325 0.0
C841 C 0.85003 0.96697 0.33682 0.0
C842 C 0.81216 0.0256 0.36775 0.0
C843 C 0.78819 0.03656 0.38507 0.0
C844 C 0.79209 0.04018 0.4181 0.0
C845 C 0.81822 0.02829 0.43374 0.0
C846 C 0.84234 0.01762 0.41641 0.0
H847 H 0.85964 0.94823 0.32299 0.0
H848 H 0.84192 0.95704 0.35955 0.0
H849 H 0.82902 0.97449 0.32343 0.0
H850 H 0.81017 0.02641 0.34221 0.0
H851 H 0.76854 0.04597 0.37238 0.0
H852 H 0.24997 0.8762 0.62939 0.0
H853 H 0.24707 0.83756 0.67178 0.0
H854 H 0.31328 0.78489 0.62517 0.0
H855 H 0.31723 0.82412 0.58346 0.0
H856 H 0.22388 0.77965 0.66475 0.0
H857 H 0.34594 0.77806 0.7141 0.0
H858 H 0.33524 0.80801 0.68696 0.0
H859 H 0.34502 0.77051 0.67246 0.0
C860 C 0.26438 0.85669 0.62851 0.0
C861 C 0.28373 0.85313 0.60301 0.0
C862 C 0.26276 0.83464 0.65281 0.0
C863 C 0.28021 0.80838 0.65198 0.0
C864 C 0.30024 0.80531 0.62694 0.0
H865 H 0.25665 0.62004 0.70887 0.0
H866 H 0.28094 0.6723 0.69535 0.0
C867 C 0.30227 0.82764 0.60289 0.0
C868 C 0.27428 0.7823 0.67481 0.0
H869 H 0.31058 0.72979 0.7208 0.0
C870 C 0.24283 0.76936 0.67776 0.0
C871 C 0.29898 0.76855 0.6916 0.0
C872 C 0.33312 0.78229 0.69131 0.0
C873 C 0.23549 0.74229 0.69566 0.0
C874 C 0.26027 0.7279 0.71157 0.0
C875 C 0.29165 0.74118 0.70921 0.0
C876 C 0.25394 0.69716 0.72751 0.0
C877 C 0.20136 0.72824 0.69567 0.0
C878 C 0.23291 0.69367 0.75213 0.0
C879 C 0.21927 0.66372 0.76014 0.0
C880 C 0.22652 0.63701 0.74356 0.0
C881 C 0.25087 0.64028 0.72215 0.0
C882 C 0.26456 0.67019 0.71422 0.0
H883 H 0.18622 0.73863 0.67722 0.0
H884 H 0.19953 0.70236 0.69171 0.0
H885 H 0.19171 0.73274 0.71893 0.0
H886 H 0.22477 0.7142 0.76302 0.0
H887 H 0.20034 0.66186 0.77649 0.0
H888 H 0.52327 0.01433 0.83733 0.0
H889 H 0.57062 0.99741 0.8647 0.0
H890 H 0.53081 0.01257 0.95449 0.0
H891 H 0.48337 0.02931 0.9273 0.0
H892 H 0.61305 0.03281 0.91449 0.0
H893 H 0.55298 0.9189 0.95471 0.0
H894 H 0.53624 0.94106 0.92301 0.0
H895 H 0.5353 0.95435 0.96317 0.0
C896 C 0.52444 0.01389 0.86287 0.0
C897 C 0.49928 0.02297 0.88008 0.0
C898 C 0.55165 0.00447 0.87849 0.0
C899 C 0.55415 1.00362 0.91158 0.0
C900 C 0.52931 0.01293 0.92891 0.0
H901 H 0.69295 0.90417 0.01853 0.0
H902 H 0.65221 0.93984 0.00854 0.0
C903 C 0.50223 0.02263 0.91331 0.0
C904 C 0.5825 0.9922 0.92775 0.0
H905 H 0.60753 0.92867 0.96632 0.0
C906 C 0.61191 0.01016 0.92609 0.0
C907 C 0.58081 0.96298 0.94337 0.0
C908 C 0.54973 0.94297 0.94616 0.0
C909 C 0.63988 0.99927 0.93902 0.0
C910 C 0.63851 0.96907 0.95293 0.0
C911 C 0.60879 0.95176 0.95565 0.0
C912 C 0.66741 0.95347 0.96211 0.0
C913 C 0.67048 0.0204 0.93771 0.0
C914 C 0.69056 0.95027 0.94007 0.0
C915 C 0.71445 0.93056 0.94612 0.0
C916 C 0.71523 0.91278 0.97396 0.0
C917 C 0.69335 0.91764 0.99696 0.0
C918 C 0.66975 0.93782 0.9911 0.0
H919 H 0.6661 0.0456 0.93892 0.0
H920 H 0.68761 0.01561 0.95727 0.0
H921 H 0.68131 0.01657 0.91488 0.0
H922 H 0.68909 0.96139 0.91723 0.0
H923 H 0.73116 0.92773 0.92806 0.0
H924 H 0.3137 0.2047 0.08936 0.0
H925 H 0.32112 0.2443 0.13163 0.0
H926 H 0.23029 0.27593 0.1053 0.0
H927 H 0.22239 0.23596 0.0633 0.0
H928 H 0.32472 0.30719 0.12279 0.0
H929 H 0.2262 0.27222 0.20073 0.0
H930 H 0.23813 0.24622 0.17076 0.0
H931 H 0.21369 0.27694 0.16013 0.0
C932 C 0.29509 0.21978 0.09278 0.0
C933 C 0.26747 0.21715 0.07284 0.0
C934 C 0.29934 0.2424 0.11703 0.0
C935 C 0.2761 0.26287 0.122 0.0
C936 C 0.24825 0.25996 0.10249 0.0
H937 H 0.29668 0.44587 0.20833 0.0
H938 H 0.27057 0.39576 0.18755 0.0
C939 C 0.2439 0.23723 0.07827 0.0
C940 C 0.28251 0.28907 0.14551 0.0
H941 H 0.25467 0.32285 0.21074 0.0
C942 C 0.30952 0.31037 0.14216 0.0
C943 C 0.2625 0.29345 0.17066 0.0
C944 C 0.23365 0.27085 0.17604 0.0
C945 C 0.31693 0.33602 0.16291 0.0
C946 C 0.29704 0.34038 0.18808 0.0
C947 C 0.26993 0.31927 0.19154 0.0
C948 C 0.30446 0.3675 0.21012 0.0
C949 C 0.34585 0.35868 0.15754 0.0
C950 C 0.33048 0.36781 0.23186 0.0
C951 C 0.34527 0.39643 0.24396 0.0
C952 C 0.33427 0.42502 0.23428 0.0
C953 C 0.30536 0.42418 0.21654 0.0
C954 C 0.29061 0.39553 0.20434 0.0
H955 H 0.35632 0.35436 0.13459 0.0
H956 H 0.33974 0.38337 0.15813 0.0
H957 H 0.36413 0.35617 0.17671 0.0
H958 H 0.34151 0.3464 0.23658 0.0
H959 H 0.36774 0.39647 0.25721 0.0
H960 H 0.10331 0.94715 0.21378 0.0
H961 H 0.06082 0.94548 0.17244 0.0
H962 H 0.99311 0.95651 0.24337 0.0
H963 H 0.03578 0.95788 0.2846 0.0
H964 H 0.97258 0.91043 0.20493 0.0
H965 H 0.01324 0.01153 0.13096 0.0
H966 H 0.0425 0.98422 0.13589 0.0
H967 H 0.03098 0.0053 0.16963 0.0
C968 C 0.07957 0.95052 0.22028 0.0
C969 C 0.07301 0.95424 0.25209 0.0
C970 C 0.0552 0.94938 0.1967 0.0
C971 C 0.02375 0.95193 0.20455 0.0
C972 C 0.01717 0.95495 0.23656 0.0
H973 H 0.84358 0.91125 0.09841 0.0
H974 H 0.88377 0.94175 0.13248 0.0
C975 C 0.04149 0.95565 0.26011 0.0
C976 C 0.99735 0.94834 0.17987 0.0
H977 H 0.97238 0.97422 0.10744 0.0
C978 C 0.97234 0.92479 0.1839 0.0
C979 C 0.997 0.9669 0.15222 0.0
C980 C 0.02223 0.9936 0.14702 0.0
C981 C 0.94765 0.91859 0.16082 0.0
C982 C 0.94759 0.93671 0.13292 0.0
C983 C 0.97232 0.96055 0.12893 0.0
C984 C 0.92341 0.92888 0.10679 0.0
C985 C 0.92239 0.89182 0.16605 0.0
C986 C 0.9322 0.91431 0.07926 0.0
C987 C 0.90918 0.89736 0.05941 0.0
C988 C 0.87713 0.89454 0.06703 0.0
C989 C 0.86802 0.91317 0.09179 0.0
C990 C 0.89106 0.93023 0.1116 0.0
H991 H 0.92959 0.87597 0.18521 0.0
H992 H 0.90041 0.90162 0.1728 0.0
H993 H 0.91675 0.87759 0.14413 0.0
H994 H 0.957 0.91316 0.07495 0.0
H995 H 0.91685 0.88309 0.04058 0.0
H996 H 0.22028 0.82594 0.40841 0.0
H997 H 0.2293 0.77637 0.38306 0.0
H998 H 0.29525 0.75772 0.45951 0.0
H999 H 0.28709 0.80785 0.48462 0.0
H1000 H 0.31904 0.75009 0.40112 0.0
H1001 H 0.19916 0.68574 0.40489 0.0
H1002 H 0.19942 0.724 0.38745 0.0
H1003 H 0.21131 0.72062 0.42847 0.0
C1004 C 0.23672 0.81136 0.41991 0.0
C1005 C 0.25306 0.82109 0.44857 0.0
C1006 C 0.24153 0.78276 0.40554 0.0
C1007 C 0.26263 0.76306 0.41955 0.0
C1008 C 0.27867 0.77243 0.44836 0.0
H1009 H 0.3026 0.57448 0.3702 0.0
H1010 H 0.28062 0.62009 0.39269 0.0
C1011 C 0.27384 0.80105 0.4628 0.0
C1012 C 0.26955 0.73378 0.40315 0.0
H1013 H 0.23569 0.66319 0.3727 0.0
C1014 C 0.30081 0.73108 0.39499 0.0
C1015 C 0.2458 0.70883 0.39532 0.0
C1016 C 0.21209 0.7097 0.40473 0.0
C1017 C 0.30893 0.70439 0.37895 0.0
C1018 C 0.28504 0.67986 0.37029 0.0
C1019 C 0.25384 0.68226 0.37885 0.0
C1020 C 0.29269 0.65092 0.35384 0.0
C1021 C 0.3432 0.70238 0.37198 0.0
C1022 C 0.30516 0.65261 0.32373 0.0
C1023 C 0.31771 0.62656 0.3108 0.0
C1024 C 0.31797 0.59836 0.32777 0.0
C1025 C 0.30292 0.59596 0.35666 0.0
C1026 C 0.29037 0.622 0.36955 0.0
H1027 H 0.35941 0.71972 0.38615 0.0
H1028 H 0.35015 0.67841 0.37686 0.0
H1029 H 0.34652 0.70734 0.34663 0.0
H1030 H 0.30674 0.67459 0.31099 0.0
H1031 H 0.32934 0.6293 0.28866 0.0
H1032 H 0.43314 0.95655 0.69214 0.0
H1033 H 0.46883 0.9543 0.64865 0.0
H1034 H 0.52224 0.04008 0.68291 0.0
H1035 H 0.48634 0.04294 0.72581 0.0
H1036 H 0.50883 0.042 0.62054 0.0
H1037 H 0.55856 0.92964 0.64976 0.0
H1038 H 0.51607 0.92697 0.64526 0.0
H1039 H 0.53626 0.94992 0.67717 0.0
C1040 C 0.45262 0.97482 0.69053 0.0
C1041 C 0.45687 0.99992 0.71251 0.0
C1042 C 0.47313 0.97338 0.66574 0.0
C1043 C 0.49853 0.99677 0.66271 0.0
C1044 C 0.50287 0.0217 0.68476 0.0
H1045 H 0.6699 0.02141 0.5706 0.0
H1046 H 0.62675 0.99758 0.60119 0.0
C1047 C 0.4823 0.0233 0.70933 0.0
C1048 C 0.52 0.99633 0.63602 0.0
H1049 H 0.57544 0.95505 0.60334 0.0
C1050 C 0.52314 0.02281 0.61654 0.0
C1051 C 0.53888 0.97141 0.63102 0.0
C1052 C 0.5376 0.94296 0.65203 0.0
C1053 C 0.54517 0.02557 0.59285 0.0
C1054 C 0.56396 1.00052 0.5876 0.0
C1055 C 0.56044 0.97376 0.60673 0.0
C1056 C 0.59004 1.00384 0.56524 0.0
C1057 C 0.54934 0.05621 0.57506 0.0
C1058 C 0.5842 0.01211 0.53362 0.0
C1059 C 0.60893 0.02603 0.51613 0.0
C1060 C 0.63984 0.03112 0.5299 0.0
C1061 C 0.64636 0.01757 0.55933 0.0
C1062 C 0.62155 0.00426 0.57703 0.0
H1063 H 0.53845 0.07539 0.58702 0.0
H1064 H 0.57483 0.06402 0.57254 0.0
H1065 H 0.53772 0.05286 0.55111 0.0
H1066 H 0.56013 0.01106 0.52375 0.0
H1067 H 0.60326 0.03646 0.4936 0.0
H1068 H 0.22065 0.2213 0.88459 0.0
H1069 H 0.22045 0.27065 0.85622 0.0
H1070 H 0.30908 0.3053 0.90426 0.0
H1071 H 0.30971 0.25537 0.93258 0.0
H1072 H 0.2186 0.32781 0.88335 0.0
H1073 H 0.32528 0.32875 0.81266 0.0
H1074 H 0.30919 0.29408 0.83291 0.0
H1075 H 0.33309 0.32496 0.85442 0.0
C1076 C 0.24045 0.23909 0.88876 0.0
C1077 C 0.26524 0.23428 0.91085 0.0
C1078 C 0.24027 0.26739 0.87252 0.0
C1079 C 0.26502 0.2915 0.87763 0.0
C1080 C 0.29005 0.28678 0.89942 0.0
H1081 H 0.27572 0.48835 0.84093 0.0
H1082 H 0.2921 0.43536 0.84723 0.0
C1083 C 0.29016 0.2584 0.91591 0.0
C1084 C 0.26279 0.3224 0.86217 0.0
H1085 H 0.29954 0.37618 0.8129 0.0
C1086 C 0.23617 0.3382 0.86771 0.0
C1087 C 0.28595 0.33611 0.84206 0.0
C1088 C 0.31486 0.32 0.8349 0.0
C1089 C 0.23214 0.36744 0.85411 0.0
C1090 C 0.25496 0.381 0.83359 0.0
C1091 C 0.2818 0.36541 0.82813 0.0
C1092 C 0.25185 0.41252 0.8199 0.0
C1093 C 0.20389 0.38405 0.8627 0.0
C1094 C 0.22541 0.41746 0.80002 0.0
C1095 C 0.21594 0.44777 0.79647 0.0
C1096 C 0.23291 0.47339 0.81272 0.0
C1097 C 0.26214 0.46895 0.82829 0.0
C1098 C 0.27147 0.43864 0.83202 0.0
H1099 H 0.19242 0.3736 0.88374 0.0
H1100 H 0.21096 0.40944 0.86761 0.0
H1101 H 0.18602 0.38214 0.84262 0.0
H1102 H 0.21021 0.39757 0.79009 0.0
H1103 H 0.19329 0.4504 0.78441 0.0
H1104 H 0.36213 0.06042 0.03069 0.0
H1105 H 0.39581 0.01721 0.03255 0.0
H1106 H 0.44583 0.05648 0.95358 0.0
H1107 H 0.41176 0.09951 0.95115 0.0
H1108 H 0.43433 0.99312 0.94776 0.0
H1109 H 0.48742 0.02447 0.06608 0.0
H1110 H 0.4451 0.0189 0.06767 0.0
H1111 H 0.46332 0.05008 0.04414 0.0
C1112 C 0.38012 0.05971 0.01355 0.0
C1113 C 0.38449 0.08352 0.99098 0.0
C1114 C 0.39961 0.03521 0.01483 0.0
C1115 C 0.4239 0.03404 0.99364 0.0
C1116 C 0.42752 0.05711 0.97033 0.0
H1117 H 0.52981 0.88684 0.06616 0.0
H1118 H 0.52812 0.93592 0.03707 0.0
C1119 C 0.40816 0.08177 0.96912 0.0
C1120 C 0.44514 0.00848 0.99592 0.0
H1121 H 0.48789 0.96973 0.05012 0.0
C1122 C 0.4466 0.98822 0.96995 0.0
C1123 C 0.46243 1.00285 0.02428 0.0
C1124 C 0.46481 0.0255 0.05196 0.0
C1125 C 0.46243 0.96088 0.97256 0.0
C1126 C 0.47613 0.95302 1.0023 0.0
C1127 C 0.47715 0.97501 0.0273 0.0
C1128 C 0.48461 0.92068 0.00997 0.0
C1129 C 0.46352 0.94068 0.94342 0.0
C1130 C 0.46274 0.89451 1.0022 0.0
C1131 C 0.46467 0.86596 0.01766 0.0
C1132 C 0.48745 0.8634 0.04246 0.0
C1133 C 0.51177 0.88806 0.04738 0.0
C1134 C 0.51053 0.91638 0.03098 0.0
H1135 H 0.46924 0.95572 0.92275 0.0
H1136 H 0.48126 0.92339 0.94605 0.0
H1137 H 0.43976 0.92788 0.93812 0.0
H1138 H 0.44218 0.8968 0.98662 0.0
H1139 H 0.44598 0.84709 0.01282 0.0
H1140 H 0.85314 0.43617 0.01795 0.0
H1141 H 0.89334 0.48147 0.02105 0.0
H1142 H 0.8223 0.54185 0.0447 0.0
H1143 H 0.78178 0.49666 0.0415 0.0
H1144 H 0.88848 0.53476 0.98157 0.0
H1145 H 0.89939 0.56767 0.10853 0.0
H1146 H 0.88099 0.52987 0.0944 0.0
H1147 H 0.85936 0.56394 0.09199 0.0
C1148 C 0.84607 0.45899 0.02422 0.0
C1149 C 0.81417 0.4628 0.0293 0.0
C1150 C 0.86912 0.48483 0.02608 0.0
C1151 C 0.86089 0.51493 0.03349 0.0
C1152 C 0.82927 0.51872 0.0395 0.0
H1153 H 0.93373 0.70381 1.0054 0.0
H1154 H 0.90983 0.65649 0.03069 0.0
C1155 C 0.8061 0.4929 0.03739 0.0
C1156 C 0.88454 0.54279 0.03127 0.0
H1157 H 0.92253 0.60572 0.0727 0.0
C1158 C 0.89633 0.55001 1.00158 0.0
C1159 C 0.89444 0.56277 0.05739 0.0
C1160 C 0.88311 0.5556 0.08997 0.0
C1161 C 0.91691 0.57721 0.99697 0.0
C1162 C 0.92678 0.59739 0.02302 0.0
C1163 C 0.91533 0.59 0.05289 0.0
C1164 C 0.94653 0.62761 0.01843 0.0
C1165 C 0.92665 0.58487 0.96383 0.0
C1166 C 0.97656 0.62783 0.00587 0.0
C1167 C 0.99016 0.65483 0.99117 0.0
C1168 C 0.97391 0.68192 0.98907 0.0
C1169 C 0.94656 0.68311 0.00635 0.0
C1170 C 0.93281 0.65602 0.02074 0.0
H1171 H 0.91208 0.57018 0.94575 0.0
H1172 H 0.92454 0.61005 0.95853 0.0
H1173 H 0.95175 0.58044 0.96162 0.0
H1174 H 0.98787 0.60625 1.00449 0.0
H1175 H 0.01127 0.65312 0.97816 0.0
H1176 H 0.83693 0.64011 0.24222 0.0
H1177 H 0.7951 0.67432 0.23162 0.0
H1178 H 0.81979 0.68151 0.13435 0.0
H1179 H 0.86246 0.6479 0.1449 0.0
H1180 H 0.80276 0.73941 0.16172 0.0
H1181 H 0.71414 0.63719 0.18138 0.0
H1182 H 0.7429 0.64633 0.21342 0.0
H1183 H 0.7554 0.63281 0.17626 0.0
C1184 C 0.83407 0.64939 0.2187 0.0
C1185 C 0.85291 0.64067 0.19429 0.0
C1186 C 0.80987 0.66882 0.21263 0.0
C1187 C 0.80385 0.67991 0.18205 0.0
C1188 C 0.8238 0.67296 0.15808 0.0
H1189 H 0.65489 0.76175 0.07767 0.0
H1190 H 0.70639 0.74731 0.09811 0.0
C1191 C 0.84804 0.6535 0.1641 0.0
C1192 C 0.77534 0.69659 0.17455 0.0
H1193 H 0.69442 0.68572 0.17046 0.0
C1194 C 0.77908 0.72773 0.1637 0.0
C1195 C 0.74439 0.68135 0.17717 0.0
C1196 C 0.73879 0.6475 0.18742 0.0
C1197 C 0.75266 0.74403 0.15554 0.0
C1198 C 0.72177 0.72858 0.15772 0.0
C1199 C 0.7181 0.69763 0.16899 0.0
C1200 C 0.69281 0.74295 0.14655 0.0
C1201 C 0.75825 0.77774 0.14503 0.0
C1202 C 0.66833 0.74616 0.1671 0.0
C1203 C 0.63898 0.75469 0.15551 0.0
C1204 C 0.63343 0.75969 0.12305 0.0
C1205 C 0.65855 0.75814 0.10281 0.0
C1206 C 0.68797 0.74993 0.11446 0.0
H1207 H 0.77864 0.7902 0.15888 0.0
H1208 H 0.76409 0.77809 0.11978 0.0
H1209 H 0.73733 0.79094 0.14784 0.0
H1210 H 0.6715 0.74074 0.19192 0.0
H1211 H 0.61998 0.75522 0.17159 0.0
H1212 H 0.62703 0.61334 0.51651 0.0
H1213 H 0.59536 0.56288 0.50804 0.0
H1214 H 0.66306 0.51734 0.56612 0.0
H1215 H 0.69572 0.56768 0.57355 0.0
H1216 H 0.65285 0.48841 0.51236 0.0
H1217 H 0.53487 0.50578 0.55449 0.0
H1218 H 0.54805 0.53628 0.52805 0.0
H1219 H 0.56952 0.53241 0.56536 0.0
C1220 C 0.63492 0.59273 0.52803 0.0
C1221 C 0.66407 0.59452 0.54552 0.0
C1222 C 0.6165 0.56384 0.52345 0.0
C1223 C 0.62639 0.53622 0.53687 0.0
C1224 C 0.65478 0.53829 0.55563 0.0
H1225 H 0.56885 0.34189 0.47453 0.0
H1226 H 0.58091 0.38475 0.51348 0.0
C1227 C 0.67348 0.56709 0.55981 0.0
C1228 C 0.6097 0.50488 0.5276 0.0
H1229 H 0.53641 0.46391 0.51634 0.0
C1230 C 0.6275 0.4828 0.514 0.0
C1231 C 0.57654 0.49748 0.52948 0.0
C1232 C 0.55624 0.51919 0.54546 0.0
C1233 C 0.61301 0.45449 0.50069 0.0
C1234 C 0.57972 0.4477 0.50133 0.0
C1235 C 0.56193 0.46911 0.51598 0.0
C1236 C 0.56325 0.42044 0.48328 0.0
C1237 C 0.63329 0.43288 0.48434 0.0
C1238 C 0.54712 0.42591 0.4545 0.0
C1239 C 0.54008 0.40149 0.43241 0.0
C1240 C 0.5489 0.37122 0.43887 0.0
C1241 C 0.5615 0.36493 0.46915 0.0
C1242 C 0.56864 0.38945 0.49127 0.0
H1243 H 0.65792 0.44381 0.48197 0.0
H1244 H 0.63435 0.41098 0.49817 0.0
H1245 H 0.62286 0.42621 0.46042 0.0
H1246 H 0.54274 0.44962 0.44787 0.0
H1247 H 0.53058 0.40692 0.40912 0.0
H1248 H 0.2305 0.96592 0.21936 0.0
H1249 H 0.27206 0.93308 0.20658 0.0
H1250 H 0.21918 0.90173 0.12086 0.0
H1251 H 0.17732 0.93453 0.13356 0.0
H1252 H 0.26956 0.86827 0.19714 0.0
H1253 H 0.30584 0.93284 0.0892 0.0
H1254 H 0.28065 0.94846 0.11719 0.0
H1255 H 0.26455 0.91871 0.08908 0.0
C1256 C 0.22753 0.95193 0.19787 0.0
C1257 C 0.2005 0.95299 0.17747 0.0
C1258 C 0.2514 0.93319 0.19056 0.0
C1259 C 0.24895 0.91516 0.16262 0.0
C1260 C 0.22191 0.91591 0.14227 0.0
H1261 H 0.38467 0.80619 0.07587 0.0
H1262 H 0.3348 0.82439 0.09154 0.0
C1263 C 0.198 0.93473 0.14953 0.0
C1264 C 0.27483 0.89578 0.15493 0.0
H1265 H 0.3308 0.88716 0.10122 0.0
C1266 C 0.28292 0.87232 0.17612 0.0
C1267 C 0.29227 0.90109 0.12752 0.0
C1268 C 0.28566 0.9268 0.10454 0.0
C1269 C 0.30789 0.85399 0.17059 0.0
C1270 C 0.32554 0.85957 0.14337 0.0
C1271 C 0.31715 0.88274 0.122 0.0
C1272 C 0.3537 0.84283 0.13698 0.0
C1273 C 0.31497 0.82866 0.19377 0.0
C1274 C 0.38064 0.84594 0.15783 0.0
C1275 C 0.40913 0.83527 0.149 0.0
C1276 C 0.41123 0.82162 0.11903 0.0
C1277 C 0.38367 0.81653 0.09916 0.0
C1278 C 0.35522 0.82708 0.10802 0.0
H1279 H 0.2941 0.82114 0.20775 0.0
H1280 H 0.32234 0.80773 0.18151 0.0
H1281 H 0.33463 0.83798 0.2105 0.0
H1282 H 0.38027 0.85852 0.18005 0.0
H1283 H 0.43011 0.84002 0.16453 0.0
H1284 H 0.12119 0.98404 0.52872 0.0
H1285 H 0.0981 0.03269 0.53973 0.0
H1286 H 0.18941 0.07555 0.57492 0.0
H1287 H 0.21251 0.02648 0.5653 0.0
H1288 H 0.14414 0.08422 0.61497 0.0
H1289 H 0.10242 0.11602 0.49467 0.0
H1290 H 0.08766 0.07688 0.50554 0.0
H1291 H 0.12953 0.08654 0.5017 0.0
C1292 C 0.13648 1.0037 0.53885 0.0
C1293 C 0.16881 1.00103 0.54626 0.0
C1294 C 0.12325 0.03178 0.54468 0.0
C1295 C 0.14206 0.05803 0.5577 0.0
C1296 C 0.17443 0.05569 0.56463 0.0
H1297 H 0.10066 0.24923 0.59285 0.0
H1298 H 0.11371 0.20121 0.56657 0.0
C1299 C 0.18768 0.02757 0.55893 0.0
C1300 C 0.1276 0.08707 0.56637 0.0
H1301 H 0.08334 0.14424 0.53749 0.0
C1302 C 0.13096 0.09736 0.59796 0.0
C1303 C 0.11059 0.10445 0.54415 0.0
C1304 C 0.10756 0.09563 0.50956 0.0
C1305 C 0.11758 0.12422 0.60804 0.0
C1306 C 0.09956 0.14093 0.58611 0.0
C1307 C 0.0966 0.13104 0.55438 0.0
C1308 C 0.08512 0.16955 0.5959 0.0
C1309 C 0.12346 0.13483 0.64206 0.0
C1310 C 0.06292 0.16773 0.61949 0.0
C1311 C 0.05545 0.19511 0.63448 0.0
C1312 C 0.0697 0.22474 0.62576 0.0
C1313 C 0.08896 0.22672 0.59966 0.0
C1314 C 0.09666 0.19927 0.58484 0.0
H1315 H 0.14379 0.12415 0.65364 0.0
H1316 H 0.12824 0.16086 0.64384 0.0
H1317 H 0.10211 0.12755 0.65536 0.0
H1318 H 0.05329 0.14504 0.628 0.0
H1319 H 0.04081 0.19297 0.65474 0.0
H1320 H 0.84017 0.45341 0.22668 0.0
H1321 H 0.79248 0.42126 0.24193 0.0
H1322 H 0.78443 0.48407 0.32048 0.0
H1323 H 0.83253 0.51606 0.30576 0.0
H1324 H 0.77461 0.42225 0.33727 0.0
H1325 H 0.70197 0.44252 0.22833 0.0
H1326 H 0.73846 0.4264 0.2213 0.0
H1327 H 0.73935 0.46528 0.23812 0.0
C1328 C 0.82828 0.46046 0.24721 0.0
C1329 C 0.84015 0.48749 0.26489 0.0
C1330 C 0.80084 0.44211 0.25577 0.0
C1331 C 0.78444 0.45053 0.28201 0.0
C1332 C 0.79654 0.47717 0.30003 0.0
H1333 H 0.59443 0.39782 0.33706 0.0
H1334 H 0.64298 0.4214 0.3143 0.0
C1335 C 0.82407 0.49548 0.29157 0.0
C1336 C 0.75488 0.43148 0.29094 0.0
H1337 H 0.6792 0.40583 0.26454 0.0
C1338 C 0.75379 0.41858 0.32132 0.0
C1339 C 0.72758 0.42685 0.27022 0.0
C1340 C 0.72666 0.44121 0.23777 0.0
C1341 C 0.72621 0.40142 0.33162 0.0
C1342 C 0.69903 0.3965 0.31078 0.0
C1343 C 0.70015 0.40925 0.28035 0.0
C1344 C 0.66853 0.3804 0.3211 0.0
C1345 C 0.72606 0.38966 0.36513 0.0
C1346 C 0.6662 0.349 0.33131 0.0
C1347 C 0.63837 0.33543 0.34441 0.0
C1348 C 0.61238 0.35303 0.34747 0.0
C1349 C 0.61415 0.38376 0.33534 0.0
C1350 C 0.64188 0.39725 0.32227 0.0
H1351 H 0.74628 0.40115 0.38001 0.0
H1352 H 0.70366 0.39392 0.37615 0.0
H1353 H 0.72791 0.36392 0.36504 0.0
H1354 H 0.68624 0.33532 0.33008 0.0
H1355 H 0.63785 0.31179 0.35366 0.0
H1356 H 0.68611 0.56811 0.85607 0.0
H1357 H 0.73099 0.60895 0.85846 0.0
H1358 H 0.79249 0.54045 0.83 0.0
H1359 H 0.74764 0.49954 0.82861 0.0
H1360 H 0.81888 0.57219 0.87707 0.0
H1361 H 0.77602 0.66053 0.7944 0.0
H1362 H 0.74992 0.65168 0.82586 0.0
H1363 H 0.75584 0.62161 0.79749 0.0
C1364 C 0.70899 0.56209 0.84938 0.0
C1365 C 0.7132 0.53097 0.84103 0.0
C1366 C 0.73475 0.58546 0.85075 0.0
C1367 C 0.7652 0.57823 0.84344 0.0
C1368 C 0.76931 0.5469 0.83543 0.0
H1369 H 0.95616 0.67488 0.85913 0.0
H1370 H 0.90849 0.64366 0.83713 0.0
C1371 C 0.7437 0.52349 0.83465 0.0
C1372 C 0.79332 0.60235 0.84683 0.0
H1373 H 0.82254 0.67692 0.82646 0.0
C1374 C 0.81971 0.59487 0.86555 0.0
C1375 C 0.79449 0.63235 0.83233 0.0
C1376 C 0.76765 0.64196 0.81119 0.0
C1377 C 0.84682 0.61637 0.87047 0.0
C1378 C 0.84801 0.64616 0.85583 0.0
C1379 C 0.82171 0.6539 0.83728 0.0
C1380 C 0.87583 0.66996 0.86139 0.0
C1381 C 0.87361 0.60737 0.8922 0.0
C1382 C 0.87311 0.69666 0.88012 0.0
C1383 C 0.90032 0.71479 0.89234 0.0
C1384 C 0.93064 0.70648 0.88599 0.0
C1385 C 0.93316 0.6821 0.86411 0.0
C1386 C 0.90592 0.66394 0.85192 0.0
H1387 H 0.86632 0.58644 0.9066 0.0
H1388 H 0.89354 0.60167 0.87792 0.0
H1389 H 0.88246 0.62719 0.90842 0.0
H1390 H 0.85013 0.70185 0.88756 0.0
H1391 H 0.89773 0.73325 0.90938 0.0
H1392 H 0.5001 0.82704 0.53772 0.0
H1393 H 0.50753 0.86036 0.49132 0.0
H1394 H 0.56542 0.93007 0.54812 0.0
H1395 H 0.5583 0.8969 0.59457 0.0
H1396 H 0.52116 0.956 0.5055 0.0
H1397 H 0.59154 0.87183 0.4464 0.0
H1398 H 0.55323 0.85534 0.45787 0.0
H1399 H 0.58308 0.86905 0.48764 0.0
C1400 C 0.51455 0.84935 0.54037 0.0
C1401 C 0.52874 0.85913 0.56995 0.0
C1402 C 0.51867 0.86845 0.51382 0.0
C1403 C 0.53725 0.89759 0.51623 0.0
C1404 C 0.55086 0.90775 0.54579 0.0
H1405 H 0.62752 0.03358 0.39566 0.0
H1406 H 0.59762 0.00962 0.43866 0.0
C1407 C 0.54671 0.88873 0.57234 0.0
C1408 C 0.5437 0.91691 0.48777 0.0
H1409 H 0.5803 0.91678 0.41786 0.0
C1410 C 0.53393 0.94741 0.48622 0.0
C1411 C 0.56049 0.90571 0.46272 0.0
C1412 C 0.57298 0.87382 0.4637 0.0
C1413 C 0.54041 0.96691 0.46014 0.0
C1414 C 0.55744 0.95574 0.43529 0.0
C1415 C 0.56685 0.92515 0.43674 0.0
C1416 C 0.56842 0.97594 0.40873 0.0
C1417 C 0.52866 0.99908 0.45904 0.0
C1418 C 0.56109 0.96592 0.37737 0.0
C1419 C 0.57821 0.97965 0.35269 0.0
C1420 C 0.60319 1.00335 0.3591 0.0
C1421 C 0.60818 0.01556 0.39004 0.0
C1422 C 0.59107 1.00185 0.41467 0.0
H1423 H 0.51025 1.00154 0.4764 0.0
H1424 H 0.54872 0.01728 0.4646 0.0
H1425 H 0.51874 1.00382 0.43502 0.0
H1426 H 0.54383 0.94585 0.37228 0.0
H1427 H 0.57416 0.96943 0.32922 0.0
H1428 H 0.46333 0.3056 0.83348 0.0
H1429 H 0.42641 0.30468 0.78707 0.0
H1430 H 0.49941 0.2764 0.72881 0.0
H1431 H 0.53621 0.27782 0.77517 0.0
H1432 H 0.47493 0.32487 0.70479 0.0
H1433 H 0.37517 0.23814 0.73442 0.0
H1434 H 0.38154 0.26991 0.76261 0.0
H1435 H 0.41152 0.24353 0.75846 0.0
C1436 C 0.47096 0.29809 0.81095 0.0
C1437 C 0.50221 0.29089 0.80799 0.0
C1438 C 0.44993 0.29763 0.78437 0.0
C1439 C 0.45979 0.28979 0.75437 0.0
C1440 C 0.49105 0.28227 0.75163 0.0
H1441 H 0.3889 0.31088 0.56081 0.0
H1442 H 0.41299 0.28825 0.608 0.0
C1443 C 0.51211 0.28316 0.77808 0.0
C1444 C 0.43914 0.29303 0.72532 0.0
H1445 H 0.36595 0.27135 0.68981 0.0
C1446 C 0.45128 0.31275 0.70143 0.0
C1447 C 0.40794 0.27778 0.72103 0.0
C1448 C 0.39338 0.25594 0.7454 0.0
C1449 C 0.43323 0.31798 0.67373 0.0
C1450 C 0.40225 0.30245 0.66922 0.0
C1451 C 0.38986 0.28285 0.69309 0.0
C1452 C 0.38221 0.30791 0.64041 0.0
C1453 C 0.44722 0.34104 0.65001 0.0
C1454 C 0.35516 0.32403 0.6427 0.0
C1455 C 0.34091 0.33635 0.61563 0.0
C1456 C 0.35364 0.33282 0.58597 0.0
C1457 C 0.37853 0.31375 0.58337 0.0
C1458 C 0.39251 0.30115 0.61036 0.0
H1459 H 0.46775 0.35652 0.66044 0.0
H1460 H 0.45565 0.32783 0.62999 0.0
H1461 H 0.42923 0.35614 0.64052 0.0
H1462 H 0.34671 0.32939 0.66563 0.0
H1463 H 0.32206 0.35133 0.61835 0.0
H1464 H 0.06427 0.17094 0.09612 0.0
H1465 H 0.04471 0.14002 0.0492 0.0
H1466 H 0.96294 0.19219 0.04123 0.0
H1467 H 0.98254 0.22359 0.08794 0.0
H1468 H 0.98891 0.10149 0.03578 0.0
H1469 H 0.99948 0.20259 0.95408 0.0
H1470 H 0.01733 0.20463 0.99364 0.0
H1471 H 0.97578 0.2087 0.98708 0.0
C1472 C 0.04208 0.17586 0.08446 0.0
C1473 C 0.02512 0.19998 0.09572 0.0
C1474 C 0.03091 0.15808 0.05763 0.0
C1475 C 1.00263 0.1641 0.04133 0.0
C1476 C 0.98517 0.18755 0.053 0.0
H1477 H 0.88229 0.05608 0.90329 0.0
H1478 H 0.91122 0.07533 0.9519 0.0
C1479 C 0.99632 0.20537 0.07985 0.0
C1480 C 0.9916 0.14607 0.01199 0.0
H1481 H 0.97176 0.15501 0.93376 0.0
C1482 C 0.98534 0.11315 0.01341 0.0
C1483 C 0.98755 0.16117 0.98264 0.0
C1484 C 0.99567 0.19617 0.97907 0.0
C1485 C 0.97412 0.0951 0.98653 0.0
C1486 C 0.96861 0.1104 0.95753 0.0
C1487 C 0.97585 0.1432 0.95595 0.0
C1488 C 0.95362 0.09344 0.92892 0.0
C1489 C 0.96841 0.0598 0.98946 0.0
C1490 C 0.96795 0.09649 0.89972 0.0
C1491 C 0.95132 0.08555 0.87178 0.0
C1492 C 0.91992 0.07163 0.87252 0.0
C1493 C 0.9065 0.0666 0.90201 0.0
C1494 C 0.92309 0.07752 0.92987 0.0
H1495 H 0.98322 0.05112 0.00923 0.0
H1496 H 0.9432 0.05325 0.99446 0.0
H1497 H 0.97354 0.04769 0.96732 0.0
H1498 H 0.99144 0.10877 0.89835 0.0
H1499 H 0.96215 0.0902 0.84944 0.0
H1500 H 0.97675 0.69556 0.23853 0.0
H1501 H 0.99938 0.7011 0.1865 0.0
H1502 H 0.09344 0.71135 0.23066 0.0
H1503 H 0.07122 0.70515 0.28256 0.0
H1504 H 0.07471 0.76079 0.18056 0.0
H1505 H 0.05532 0.63426 0.14472 0.0
H1506 H 0.02362 0.65253 0.16187 0.0
H1507 H 0.05839 0.64624 0.18579 0.0
C1508 C 1.00225 0.69836 0.23721 0.0
C1509 C 0.02214 0.70003 0.2649 0.0
C1510 C 0.01512 0.70189 0.20744 0.0
C1511 C 0.04806 0.70708 0.20482 0.0
C1512 C 0.06793 0.70785 0.23223 0.0
H1513 H 0.20228 0.72059 0.09519 0.0
H1514 H 0.16077 0.73955 0.12516 0.0
C1515 C 0.05516 0.70422 0.2619 0.0
C1516 C 0.06229 0.71098 0.17363 0.0
H1517 H 0.08533 0.66806 0.11245 0.0
C1518 C 0.0766 0.74068 0.16526 0.0
C1519 C 0.06442 0.68486 0.1536 0.0
C1520 C 0.04974 0.65253 0.16175 0.0
C1521 C 0.09414 0.74462 0.13794 0.0
C1522 C 0.09808 0.71799 0.11899 0.0
C1523 C 0.08222 0.68866 0.12661 0.0
C1524 C 0.12211 0.71829 0.09443 0.0
C1525 C 0.10865 0.77715 0.13006 0.0
C1526 C 0.11464 0.70214 0.06558 0.0
C1527 C 0.13865 0.69097 0.04844 0.0
C1528 C 0.17038 0.69572 0.06004 0.0
C1529 C 0.17809 0.71673 0.08553 0.0
C1530 C 0.15412 0.7275 0.10293 0.0
H1531 H 0.09327 0.79526 0.13722 0.0
H1532 H 0.13175 0.78204 0.14344 0.0
H1533 H 0.11257 0.77954 0.10444 0.0
H1534 H 0.09016 0.69497 0.0583 0.0
H1535 H 0.13203 0.67474 0.02894 0.0
H1536 H 0.46284 0.13347 0.92524 0.0
H1537 H 0.47802 0.10496 0.97273 0.0
H1538 H 0.54387 0.18402 1.00275 0.0
H1539 H 0.52975 0.21239 0.95504 0.0
H1540 H 0.56882 0.12745 0.01004 0.0
H1541 H 0.45049 0.12187 0.06148 0.0
H1542 H 0.45077 0.10517 0.0226 0.0
H1543 H 0.46088 0.14673 0.02848 0.0
C1544 C 0.48058 0.14481 0.94192 0.0
C1545 C 0.49496 0.17534 0.93638 0.0
C1546 C 0.48898 0.12854 0.96916 0.0
C1547 C 0.51145 0.14258 0.99164 0.0
C1548 C 0.52629 0.17276 0.98584 0.0
H1549 H 0.5572 0.11617 0.18622 0.0
H1550 H 0.53234 0.12741 0.1349 0.0
C1551 C 0.51819 0.18895 0.95851 0.0
C1552 C 0.51982 0.12595 0.02117 0.0
H1553 H 0.49008 0.09712 0.08996 0.0
C1554 C 0.55157 0.12059 0.02742 0.0
C1555 C 0.49728 0.11718 0.04391 0.0
C1556 C 0.46299 0.12323 0.03904 0.0
C1557 C 0.5616 0.10741 0.05601 0.0
C1558 C 0.53911 0.09868 0.07883 0.0
C1559 C 0.50722 0.10348 0.07234 0.0
C1560 C 0.549 0.0879 0.11079 0.0
C1561 C 0.59649 0.10439 0.06213 0.0
C1562 C 0.56512 0.0609 0.11477 0.0
C1563 C 0.57957 0.05451 0.14415 0.0
C1564 C 0.57794 0.07494 0.17005 0.0
C1565 C 0.5592 0.10021 0.16663 0.0
C1566 C 0.54492 0.10663 0.1373 0.0
H1567 H 0.61127 0.11809 0.04505 0.0
H1568 H 0.60444 0.1126 0.08639 0.0
H1569 H 0.60081 0.07929 0.05987 0.0
H1570 H 0.56795 0.04569 0.09479 0.0
H1571 H 0.5939 0.03493 0.14595 0.0
H1572 H 0.01259 0.30796 0.26009 0.0
H1573 H 0.05496 0.30608 0.30151 0.0
H1574 H 0.12483 0.33172 0.23316 0.0
H1575 H 0.08246 0.33506 0.19243 0.0
H1576 H 0.10803 0.26997 0.30616 0.0
H1577 H 0.14507 0.39836 0.30282 0.0
H1578 H 0.10786 0.38096 0.28508 0.0
H1579 H 0.14397 0.37907 0.265 0.0
C1580 C 0.03705 0.31298 0.25401 0.0
C1581 C 0.04446 0.32024 0.22278 0.0
C1582 C 0.0612 0.31182 0.2776 0.0
C1583 C 0.09311 0.31869 0.27046 0.0
C1584 C 0.10042 0.32628 0.23927 0.0
H1585 H 0.27063 0.34998 0.37755 0.0
H1586 H 0.23154 0.32892 0.3366 0.0
C1587 C 0.07628 0.32746 0.21579 0.0
C1588 C 0.11872 0.31912 0.29573 0.0
H1589 H 0.17824 0.36741 0.33302 0.0
C1590 C 0.12339 0.29125 0.31209 0.0
C1591 C 0.13854 0.34699 0.30368 0.0
C1592 C 0.13351 0.37813 0.28849 0.0
C1593 C 0.14784 0.29042 0.33569 0.0
C1594 C 0.16801 0.31814 0.34306 0.0
C1595 C 0.16311 0.346 0.32691 0.0
C1596 C 0.19352 0.31979 0.36847 0.0
C1597 C 0.15227 0.25997 0.35236 0.0
C1598 C 0.18575 0.31945 0.40029 0.0
C1599 C 0.20825 0.33119 0.42383 0.0
C1600 C 0.23866 0.34377 0.41573 0.0
C1601 C 0.24753 0.34004 0.3845 0.0
C1602 C 0.22505 0.3284 0.36101 0.0
H1603 H 0.13857 0.23947 0.34015 0.0
H1604 H 0.17773 0.25598 0.35404 0.0
H1605 H 0.14412 0.2614 0.37676 0.0
H1606 H 0.1615 0.31325 0.40657 0.0
H1607 H 0.20056 0.33432 0.44754 0.0
H1608 H 0.99439 0.80587 0.48348 0.0
H1609 H 0.98734 0.84152 0.5271 0.0
H1610 H 0.89842 0.86309 0.48349 0.0
H1611 H 0.90542 0.82768 0.43931 0.0
H1612 H 0.97913 0.907 0.52739 0.0
H1613 H 0.87545 0.83399 0.5729 0.0
H1614 H 0.90087 0.81898 0.54473 0.0
H1615 H 0.87187 0.84469 0.53204 0.0
C1616 C 0.97345 0.81836 0.4828 0.0
C1617 C 0.95047 0.81369 0.45764 0.0
C1618 C 0.96943 0.83874 0.50793 0.0
C1619 C 0.94226 0.85482 0.50875 0.0
C1620 C 0.91938 0.85058 0.48362 0.0
H1621 H 0.90864 1.00156 0.64681 0.0
H1622 H 0.92089 0.97527 0.59774 0.0
C1623 C 0.9234 0.8302 0.45837 0.0
C1624 C 0.93778 0.87542 0.53633 0.0
H1625 H 0.89171 0.88194 0.59946 0.0
C1626 C 0.95992 0.90166 0.54308 0.0
C1627 C 0.91286 0.86827 0.55692 0.0
C1628 C 0.88899 0.83984 0.55157 0.0
C1629 C 0.95787 0.92081 0.56993 0.0
C1630 C 0.933 0.91358 0.59052 0.0
C1631 C 0.91073 0.88752 0.58359 0.0
C1632 C 0.93028 0.93156 0.62029 0.0
C1633 C 0.98279 0.94808 0.57664 0.0
C1634 C 0.93229 0.91609 0.64931 0.0
C1635 C 0.92551 0.93106 0.6772 0.0
C1636 C 0.91632 0.96182 0.67674 0.0
C1637 C 0.91611 0.97805 0.64796 0.0
C1638 C 0.92295 0.96298 0.6199 0.0
H1639 H 1.00342 0.94721 0.56163 0.0
H1640 H 0.97231 0.97048 0.57193 0.0
H1641 H 0.99126 0.94833 0.60184 0.0
H1642 H 0.93797 0.89191 0.65023 0.0
H1643 H 0.92588 0.91797 0.69902 0.0
H1644 H 0.43524 0.78404 0.73759 0.0
H1645 H 0.4049 0.78048 0.78552 0.0
H1646 H 0.35026 0.69657 0.74833 0.0
H1647 H 0.37967 0.70079 0.70001 0.0
H1648 H 0.31284 0.73838 0.77667 0.0
H1649 H 0.41723 0.71647 0.85472 0.0
H1650 H 0.42182 0.75209 0.83235 0.0
H1651 H 0.41786 0.7146 0.81226 0.0
C1652 C 0.41672 0.7649 0.73971 0.0
C1653 C 0.40988 0.74264 0.71516 0.0
C1654 C 0.39943 0.76285 0.76707 0.0
C1655 C 0.37548 0.73809 0.77064 0.0
C1656 C 0.36851 0.71598 0.74603 0.0
H1657 H 0.27121 0.64257 0.91054 0.0
H1658 H 0.28492 0.66837 0.86098 0.0
C1659 C 0.38531 0.71839 0.71845 0.0
C1660 C 0.35831 0.73441 0.80034 0.0
H1661 H 0.36888 0.71886 0.87882 0.0
C1662 C 0.32513 0.73425 0.79899 0.0
C1663 C 0.37431 0.72923 0.82962 0.0
C1664 C 0.40972 0.72781 0.83245 0.0
C1665 C 0.30753 0.72843 0.82598 0.0
C1666 C 0.32349 0.7225 0.85499 0.0
C1667 C 0.3567 0.72373 0.85657 0.0
C1668 C 0.30651 0.71152 0.8833 0.0
C1669 C 0.27201 0.72837 0.82323 0.0
C1670 C 0.31252 0.72785 0.91216 0.0
C1671 C 0.30422 0.71326 0.94049 0.0
C1672 C 0.29028 0.68198 0.9403 0.0
C1673 C 0.28139 0.6669 0.91121 0.0
C1674 C 0.28939 0.6816 0.8829 0.0
H1675 H 0.26446 0.74244 0.80276 0.0
H1676 H 0.26107 0.70379 0.81975 0.0
H1677 H 0.26289 0.73795 0.84503 0.0
H1678 H 0.32589 0.75086 0.91299 0.0
H1679 H 0.3119 0.7251 0.96261 0.0
H1680 H 0.5614 0.63071 0.83665 0.0
H1681 H 0.51856 0.63304 0.87272 0.0
H1682 H 0.56299 0.57019 0.93625 0.0
H1683 H 0.60545 0.56697 0.89943 0.0
H1684 H 0.50211 0.55176 0.92828 0.0
H1685 H 0.51324 0.67961 0.9531 0.0
H1686 H 0.50893 0.67189 0.91153 0.0
H1687 H 0.54345 0.66099 0.93358 0.0
C1688 C 0.56236 0.61788 0.85857 0.0
C1689 C 0.58687 0.59877 0.86523 0.0
C1690 C 0.53789 0.61931 0.87932 0.0
C1691 C 0.53773 0.60231 0.90766 0.0
C1692 C 0.56256 0.58364 0.91466 0.0
H1693 H 0.38618 0.64235 0.03034 0.0
H1694 H 0.43902 0.63114 0.0156 0.0
C1695 C 0.5868 0.5818 0.89362 0.0
C1696 C 0.51051 0.60242 0.92867 0.0
H1697 H 0.46287 0.65122 0.96309 0.0
C1698 C 0.4938 0.57353 0.93625 0.0
C1699 C 0.49984 0.63068 0.93976 0.0
C1700 C 0.51755 0.66248 0.93435 0.0
C1701 C 0.46582 0.57222 0.95289 0.0
C1702 C 0.45392 0.60059 0.96199 0.0
C1703 C 0.47164 0.62938 0.95597 0.0
C1704 C 0.42216 0.60139 0.97548 0.0
C1705 C 0.44947 0.54036 0.96064 0.0
C1706 C 0.39491 0.58725 0.9589 0.0
C1707 C 0.36473 0.59318 0.96768 0.0
C1708 C 0.36106 0.61385 0.99291 0.0
C1709 C 0.38816 0.62598 0.01109 0.0
C1710 C 0.41844 0.61988 1.00239 0.0
H1711 H 0.46686 0.52269 0.96374 0.0
H1712 H 0.43617 0.54119 0.98249 0.0
H1713 H 0.43263 0.53216 0.94077 0.0
H1714 H 0.39689 0.57346 0.93771 0.0
H1715 H 0.3443 0.58362 0.95312 0.0
H1716 H 0.72089 0.37527 0.14028 0.0
H1717 H 0.7171 0.32972 0.17507 0.0
H1718 H 0.74532 0.27152 0.10004 0.0
H1719 H 0.74835 0.31675 0.06486 0.0
H1720 H 0.69196 0.24682 0.12426 0.0
H1721 H 0.77953 0.28007 0.22289 0.0
H1722 H 0.75215 0.30892 0.21573 0.0
H1723 H 0.77923 0.30104 0.186 0.0
C1724 C 0.72681 0.35289 0.13132 0.0
C1725 C 0.73471 0.3496 0.09971 0.0
C1726 C 0.7249 0.32689 0.15138 0.0
C1727 C 0.73133 0.29722 0.14036 0.0
C1728 C 0.74039 0.2942 0.10914 0.0
H1729 H 0.70563 0.10806 0.21356 0.0
H1730 H 0.73342 0.15818 0.19756 0.0
C1731 C 0.74204 0.32008 0.08902 0.0
C1732 C 0.725 0.26867 0.15992 0.0
H1733 H 0.74118 0.23594 0.23173 0.0
C1734 C 0.70309 0.24435 0.14757 0.0
C1735 C 0.73939 0.26546 0.19045 0.0
C1736 C 0.76412 0.29014 0.20445 0.0
C1737 C 0.69467 0.2173 0.16502 0.0
C1738 C 0.70844 0.21441 0.19575 0.0
C1739 C 0.73068 0.23838 0.20815 0.0
C1740 C 0.69861 0.18668 0.21503 0.0
C1741 C 0.6706 0.19205 0.15077 0.0
C1742 C 0.67099 0.1865 0.23188 0.0
C1743 C 0.65513 0.15795 0.24101 0.0
C1744 C 0.66677 0.1293 0.23344 0.0
C1745 C 0.69646 0.12985 0.22009 0.0
C1746 C 0.71225 0.15844 0.21079 0.0
H1747 H 0.66245 0.19771 0.12636 0.0
H1748 H 0.68097 0.16921 0.15023 0.0
H1749 H 0.64967 0.189 0.16559 0.0
H1750 H 0.66002 0.20806 0.23512 0.0
H1751 H 0.63211 0.15806 0.25096 0.0
H1752 H 0.99933 0.49118 0.32097 0.0
H1753 H 0.04845 0.48463 0.3517 0.0
H1754 H 0.10205 0.50481 0.26916 0.0
H1755 H 0.0531 0.51175 0.2383 0.0
H1756 H 0.09676 0.44199 0.3381 0.0
H1757 H 0.14276 0.56901 0.33907 0.0
H1758 H 0.1012 0.55593 0.33179 0.0
H1759 H 0.12866 0.55112 0.30178 0.0
C1760 C 0.02153 0.49414 0.3093 0.0
C1761 C 0.02218 0.50211 0.27718 0.0
C1762 C 0.04957 0.49035 0.32689 0.0
C1763 C 0.07888 0.49474 0.31282 0.0
C1764 C 0.07967 0.50171 0.28055 0.0
H1765 H 0.26542 0.46064 0.38702 0.0
H1766 H 0.22367 0.48368 0.3558 0.0
C1767 C 0.05158 0.50522 0.26284 0.0
C1768 C 0.10849 0.49174 0.33209 0.0
H1769 H 0.17463 0.53402 0.36549 0.0
C1770 C 0.11377 0.46209 0.34409 0.0
C1771 C 0.13071 0.51802 0.33965 0.0
C1772 C 0.12569 0.55044 0.32763 0.0
C1773 C 0.14067 0.45798 0.36357 0.0
C1774 C 0.16252 0.48438 0.37183 0.0
C1775 C 0.15762 0.51398 0.35938 0.0
C1776 C 0.19063 0.48085 0.39313 0.0
C1777 C 0.14572 0.42535 0.3751 0.0
C1778 C 0.18672 0.47411 0.42515 0.0
C1779 C 0.21066 0.46126 0.44313 0.0
C1780 C 0.23865 0.4547 0.42915 0.0
C1781 C 0.24415 0.46562 0.39841 0.0
C1782 C 0.2202 0.4785 0.38045 0.0
H1783 H 0.12939 0.40683 0.36263 0.0
H1784 H 0.17051 0.42028 0.3718 0.0
H1785 H 0.14159 0.42393 0.40072 0.0
H1786 H 0.16407 0.47596 0.43536 0.0
H1787 H 0.20557 0.4528 0.46657 0.0
H1788 H 0.78107 0.71628 0.63297 0.0
H1789 H 0.79389 0.75868 0.67172 0.0
H1790 H 0.70063 0.78892 0.65572 0.0
H1791 H 0.68744 0.74633 0.61685 0.0
H1792 H 0.79401 0.82079 0.65356 0.0
H1793 H 0.71633 0.79475 0.75334 0.0
H1794 H 0.72227 0.76574 0.72369 0.0
H1795 H 0.69526 0.79486 0.7155 0.0
C1796 C 0.76302 0.73155 0.63801 0.0
C1797 C 0.73333 0.72808 0.62149 0.0
C1798 C 0.77038 0.75575 0.66028 0.0
C1799 C 0.74819 0.77689 0.66673 0.0
C1800 C 0.71797 0.77263 0.65144 0.0
H1801 H 0.79913 0.96829 0.72358 0.0
H1802 H 0.76354 0.92054 0.7118 0.0
C1803 C 0.71058 0.7484 0.62904 0.0
C1804 C 0.75832 0.80559 0.68606 0.0
H1805 H 0.74449 0.84625 0.75303 0.0
C1806 C 0.7832 0.82627 0.67532 0.0
C1807 C 0.7442 0.81269 0.71449 0.0
C1808 C 0.71819 0.79071 0.72764 0.0
C1809 C 0.7943 0.85386 0.69206 0.0
C1810 C 0.78003 0.86119 0.72028 0.0
C1811 C 0.75514 0.84062 0.73124 0.0
C1812 C 0.79215 0.88992 0.73851 0.0
C1813 C 0.82165 0.87489 0.67969 0.0
C1814 C 0.8184 0.8888 0.7597 0.0
C1815 C 0.83864 0.91614 0.76664 0.0
C1816 C 0.83281 0.94474 0.7523 0.0
C1817 C 0.80385 0.94665 0.73532 0.0
C1818 C 0.78362 0.91928 0.72834 0.0
H1819 H 0.83014 0.8657 0.65739 0.0
H1820 H 0.81443 0.89882 0.6753 0.0
H1821 H 0.84172 0.87715 0.69759 0.0
H1822 H 0.82545 0.86633 0.76762 0.0
H1823 H 0.86106 0.91401 0.77935 0.0
H1824 H 0.57359 0.48983 0.73371 0.0
H1825 H 0.53326 0.47342 0.6921 0.0
H1826 H 0.57794 0.54125 0.62903 0.0
H1827 H 0.61785 0.55834 0.67073 0.0
H1828 H 0.51494 0.54291 0.6258 0.0
H1829 H 0.54164 0.41935 0.61534 0.0
H1830 H 0.53357 0.42915 0.65513 0.0
H1831 H 0.56763 0.44876 0.6371 0.0
C1832 C 0.57496 0.50114 0.71094 0.0
C1833 C 0.59905 0.52533 0.70559 0.0
C1834 C 0.55196 0.49161 0.68707 0.0
C1835 C 0.55281 0.50571 0.65718 0.0
C1836 C 0.5768 0.52992 0.65181 0.0
H1837 H 0.42565 0.40845 0.51313 0.0
H1838 H 0.47352 0.43914 0.53533 0.0
C1839 C 0.59966 0.53963 0.67572 0.0
C1840 C 0.52816 0.49579 0.6319 0.0
H1841 H 0.49129 0.43101 0.59304 0.0
C1842 C 0.50993 0.51847 0.61842 0.0
C1843 C 0.52221 0.46413 0.62139 0.0
C1844 C 0.54254 0.43903 0.63274 0.0
C1845 C 0.48503 0.51007 0.59588 0.0
C1846 C 0.47749 0.478 0.58724 0.0
C1847 C 0.49669 0.45561 0.5997 0.0
C1848 C 0.44863 0.46647 0.56736 0.0
C1849 C 0.46766 0.53583 0.58111 0.0
C1850 C 0.41848 0.47303 0.57628 0.0
C1851 C 0.39107 0.4561 0.56289 0.0
C1852 C 0.39335 0.43191 0.54078 0.0
C1853 C 0.42324 0.42736 0.52972 0.0
C1854 C 0.45062 0.44461 0.54276 0.0
H1855 H 0.4837 0.55796 0.57985 0.0
H1856 H 0.45793 0.5293 0.55692 0.0
H1857 H 0.44785 0.5406 0.59598 0.0
H1858 H 0.41613 0.48919 0.59559 0.0
H1859 H 0.36842 0.4595 0.57241 0.0
H1860 H 0.77679 0.31246 0.95614 0.0
H1861 H 0.78956 0.26655 0.92651 0.0
H1862 H 0.72742 0.2903 0.84881 0.0
H1863 H 0.71385 0.33596 0.87863 0.0
H1864 H 0.72103 0.22515 0.86442 0.0
H1865 H 0.84631 0.27095 0.85014 0.0
H1866 H 0.83497 0.27125 0.89039 0.0
H1867 H 0.8168 0.29574 0.86189 0.0
C1868 C 0.76558 0.30784 0.9329 0.0
C1869 C 0.7444 0.32809 0.91976 0.0
C1870 C 0.77315 0.28172 0.91585 0.0
C1871 C 0.75981 0.27528 0.88527 0.0
C1872 C 0.73816 0.29498 0.87228 0.0
H1873 H 0.84846 0.13822 0.77514 0.0
H1874 H 0.81931 0.18355 0.78552 0.0
C1875 C 0.73063 0.32121 0.88929 0.0
C1876 C 0.76869 0.24802 0.86698 0.0
H1877 H 0.83266 0.21624 0.83928 0.0
C1878 C 0.74535 0.2233 0.85855 0.0
C1879 C 0.80028 0.24592 0.85874 0.0
C1880 C 0.826 0.27251 0.86545 0.0
C1881 C 0.75315 0.19582 0.84355 0.0
C1882 C 0.78515 0.19289 0.83718 0.0
C1883 C 0.80812 0.21833 0.84422 0.0
C1884 C 0.79614 0.16294 0.82594 0.0
C1885 C 0.72708 0.17012 0.8349 0.0
C1886 C 0.79166 0.13569 0.84425 0.0
C1887 C 0.80801 0.10966 0.83812 0.0
C1888 C 0.82946 0.1105 0.8138 0.0
C1889 C 0.83184 0.1367 0.7938 0.0
C1890 C 0.81542 0.16276 0.79991 0.0
H1891 H 0.70395 0.17987 0.83082 0.0
H1892 H 0.73231 0.157 0.8134 0.0
H1893 H 0.72467 0.15329 0.85471 0.0
H1894 H 0.77743 0.13535 0.86478 0.0
H1895 H 0.80574 0.08978 0.85393 0.0
H1896 H 0.96425 0.61698 0.23618 0.0
H1897 H 0.0093 0.61245 0.20343 0.0
H1898 H 0.059 0.57132 0.28178 0.0
H1899 H 0.01524 0.57903 0.31498 0.0
H1900 H 0.09977 0.59899 0.25743 0.0
H1901 H 0.03321 0.54616 0.153 0.0
H1902 H 0.02078 0.58459 0.15765 0.0
H1903 H 0.01297 0.55534 0.18751 0.0
C1904 C 0.98479 0.60672 0.2461 0.0
C1905 C 0.986 0.59747 0.27776 0.0
C1906 C 0.0106 0.60377 0.22727 0.0
C1907 C 0.03762 0.59008 0.23918 0.0
C1908 C 0.03876 0.58161 0.27129 0.0
H1909 H 0.16761 0.56388 0.08849 0.0
H1910 H 0.13182 0.54818 0.13062 0.0
C1911 C 0.01358 0.58586 0.29043 0.0
C1912 C 0.06532 0.58608 0.2191 0.0
H1913 H 0.08558 0.57202 0.14365 0.0
C1914 C 0.0963 0.59219 0.23275 0.0
C1915 C 0.06192 0.57637 0.18685 0.0
C1916 C 0.03041 0.5649 0.17065 0.0
C1917 C 0.1233 0.59007 0.21521 0.0
C1918 C 0.11972 0.58439 0.18219 0.0
C1919 C 0.0889 0.57694 0.16877 0.0
C1920 C 0.14692 0.58879 0.16071 0.0
C1921 C 0.15525 0.59336 0.2328 0.0
C1922 C 0.16908 0.61556 0.1641 0.0
C1923 C 0.19094 0.62316 0.14109 0.0
C1924 C 0.19018 0.60525 0.11313 0.0
C1925 C 0.16938 0.57754 0.11022 0.0
C1926 C 0.14839 0.56906 0.13408 0.0
H1927 H 0.15354 0.58254 0.25651 0.0
H1928 H 0.1733 0.58203 0.21993 0.0
H1929 H 0.16331 0.61871 0.23662 0.0
H1930 H 0.16799 0.63222 0.18323 0.0
H1931 H 0.20582 0.64533 0.14335 0.0
H1932 H 0.69853 0.74244 0.43149 0.0
H1933 H 0.70395 0.79418 0.40696 0.0
H1934 H 0.78485 0.82275 0.46958 0.0
H1935 H 0.77983 0.77057 0.49418 0.0
H1936 H 0.70419 0.85421 0.44422 0.0
H1937 H 0.81119 0.84533 0.37483 0.0
H1938 H 0.78628 0.81074 0.38606 0.0
H1939 H 0.81142 0.8326 0.41533 0.0
C1940 C 0.71775 0.7595 0.43984 0.0
C1941 C 0.73878 0.75229 0.46477 0.0
C1942 C 0.72074 0.78911 0.42585 0.0
C1943 C 0.74497 0.81212 0.43626 0.0
C1944 C 0.76619 0.80514 0.46102 0.0
H1945 H 0.72125 0.00446 0.37917 0.0
H1946 H 0.74724 0.96349 0.40736 0.0
C1947 C 0.76308 0.77546 0.47523 0.0
C1948 C 0.74646 0.84386 0.42207 0.0
H1949 H 0.78444 0.89082 0.36767 0.0
C1950 C 0.72203 0.86253 0.42791 0.0
C1951 C 0.76972 0.8544 0.40071 0.0
C1952 C 0.7962 0.83484 0.3936 0.0
C1953 C 0.71949 0.891 0.41211 0.0
C1954 C 0.74226 0.90126 0.39006 0.0
C1955 C 0.76729 0.88304 0.38484 0.0
C1956 C 0.73767 0.92882 0.36983 0.0
C1957 C 0.69146 0.90907 0.41794 0.0
C1958 C 0.72628 0.92376 0.33841 0.0
C1959 C 0.71173 0.94726 0.32211 0.0
C1960 C 0.70824 0.97607 0.33714 0.0
C1961 C 0.7235 0.98245 0.36705 0.0
C1962 C 0.73821 0.959 0.38325 0.0
H1963 H 0.67359 0.8955 0.43217 0.0
H1964 H 0.69977 0.93126 0.43089 0.0
H1965 H 0.6797 0.91538 0.39521 0.0
H1966 H 0.72572 0.90063 0.3276 0.0
H1967 H 0.70008 0.94149 0.29922 0.0
H1968 H 0.80172 0.55665 0.52179 0.0
H1969 H 0.83063 0.5099 0.52041 0.0
H1970 H 0.916 0.56534 0.55477 0.0
H1971 H 0.88736 0.61207 0.55635 0.0
H1972 H 0.92567 0.52263 0.50517 0.0
H1973 H 0.85701 0.46442 0.60094 0.0
H1974 H 0.83383 0.47653 0.56749 0.0
H1975 H 0.85642 0.5057 0.59236 0.0
C1976 C 0.82659 0.5589 0.52921 0.0
C1977 C 0.84209 0.58816 0.53944 0.0
C1978 C 0.84311 0.53216 0.52829 0.0
C1979 C 0.87539 0.53408 0.53782 0.0
C1980 C 0.89112 0.56334 0.54724 0.0
H1981 H 0.01933 0.42003 0.59329 0.0
H1982 H 0.99143 0.45973 0.56558 0.0
C1983 C 0.87467 0.59008 0.54809 0.0
C1984 C 0.89253 0.50544 0.53951 0.0
H1985 H 0.89597 0.43679 0.57971 0.0
C1986 C 0.91905 0.50366 0.52124 0.0
C1987 C 0.88386 0.48076 0.56048 0.0
C1988 C 0.8564 0.48189 0.58167 0.0
C1989 C 0.93733 0.47797 0.52363 0.0
C1990 C 0.92913 0.45369 0.54523 0.0
C1991 C 0.9021 0.45517 0.56285 0.0
C1992 C 0.94957 0.42812 0.55272 0.0
C1993 C 0.96526 0.47715 0.5031 0.0
C1994 C 0.93611 0.39668 0.55345 0.0
C1995 C 0.95204 0.37398 0.56951 0.0
C1996 C 0.98172 0.38234 0.58502 0.0
C1997 C 0.99676 0.41281 0.58103 0.0
C1998 C 0.9807 0.43561 0.56522 0.0
H1999 H 0.96171 0.49029 0.48086 0.0
H2000 H 0.98679 0.48864 0.51594 0.0
H2001 H 0.96947 0.45261 0.49709 0.0
H2002 H 0.91214 0.39031 0.54399 0.0
H2003 H 0.93982 0.35074 0.57257 0.0
H2004 H 0.33119 0.00631 0.59835 0.0
H2005 H 0.3679 0.05315 0.58907 0.0
H2006 H 0.36408 0.03045 0.4897 0.0
H2007 H 0.32746 0.98378 0.49859 0.0
H2008 H 0.43002 0.06168 0.5551 0.0
H2009 H 0.33016 0.11981 0.49975 0.0
H2010 H 0.32413 0.08606 0.52505 0.0
H2011 H 0.33421 0.081 0.48481 0.0
C2012 C 0.33844 0.01107 0.57456 0.0
C2013 C 0.32608 0.99146 0.54915 0.0
C2014 C 0.35951 0.03777 0.56936 0.0
C2015 C 0.36846 0.04532 0.53869 0.0
C2016 C 0.35727 0.02509 0.51353 0.0
H2017 H 0.49671 0.17459 0.44573 0.0
H2018 H 0.47624 0.13157 0.47919 0.0
C2019 C 0.3363 0.99843 0.51867 0.0
C2020 C 0.38727 0.07558 0.53228 0.0
H2021 H 0.38181 0.14458 0.49339 0.0
C2022 C 0.41953 0.08005 0.54193 0.0
C2023 C 0.37336 0.09965 0.51561 0.0
C2024 C 0.3385 0.09666 0.50589 0.0
C2025 C 0.43859 0.1076 0.53406 0.0
C2026 C 0.42497 0.13098 0.51585 0.0
C2027 C 0.39238 0.12683 0.50741 0.0
C2028 C 0.44386 0.15882 0.50284 0.0
C2029 C 0.47304 0.11125 0.54522 0.0
C2030 C 0.43346 0.18892 0.5057 0.0
C2031 C 0.44484 0.2134 0.48621 0.0
C2032 C 0.46711 0.20832 0.46378 0.0
C2033 C 0.47998 0.17927 0.46324 0.0
C2034 C 0.46825 0.15462 0.48244 0.0
H2035 H 0.47689 0.098 0.56733 0.0
H2036 H 0.48729 0.10151 0.52695 0.0
H2037 H 0.4819 0.13637 0.5494 0.0
H2038 H 0.41466 0.19278 0.52123 0.0
H2039 H 0.43437 0.23551 0.48685 0.0
H2040 H 0.31131 0.10474 0.81027 0.0
H2041 H 0.26579 0.1357 0.8085 0.0
H2042 H 0.31332 0.20083 0.74476 0.0
H2043 H 0.35867 0.17013 0.74617 0.0
H2044 H 0.28216 0.23072 0.79221 0.0
H2045 H 0.20365 0.13446 0.73132 0.0
H2046 H 0.22223 0.12402 0.7682 0.0
H2047 H 0.24609 0.13411 0.73517 0.0
C2048 C 0.31207 0.12552 0.79573 0.0
C2049 C 0.33869 0.13463 0.77812 0.0
C2050 C 0.28604 0.14329 0.79485 0.0
C2051 C 0.28599 0.17037 0.77618 0.0
C2052 C 0.31284 0.18004 0.75935 0.0
H2053 H 0.16179 0.29818 0.69884 0.0
H2054 H 0.20697 0.27641 0.7251 0.0
C2055 C 0.33884 0.16237 0.76024 0.0
C2056 C 0.2575 0.18785 0.77274 0.0
H2057 H 0.18122 0.18094 0.74242 0.0
C2058 C 0.25995 0.21983 0.78158 0.0
C2059 C 0.22859 0.17362 0.75882 0.0
C2060 C 0.22488 0.13976 0.74755 0.0
C2061 C 0.23433 0.23803 0.77656 0.0
C2062 C 0.20561 0.22394 0.762 0.0
C2063 C 0.20303 0.19175 0.75393 0.0
C2064 C 0.1787 0.24219 0.75224 0.0
C2065 C 0.23841 0.27214 0.7868 0.0
C2066 C 0.14755 0.23086 0.75911 0.0
C2067 C 0.12166 0.24297 0.74359 0.0
C2068 C 0.12645 0.26694 0.72125 0.0
C2069 C 0.15745 0.28025 0.71654 0.0
C2070 C 0.18337 0.26776 0.73163 0.0
H2071 H 0.25671 0.27622 0.80634 0.0
H2072 H 0.24656 0.28692 0.76675 0.0
H2073 H 0.21585 0.28002 0.79453 0.0
H2074 H 0.14326 0.21112 0.77483 0.0
H2075 H 0.09799 0.23203 0.74725 0.0
H2076 H 0.20157 0.08314 0.99089 0.0
H2077 H 0.16492 0.03545 0.98502 0.0
H2078 H 0.21869 0.99059 0.05754 0.0
H2079 H 0.25528 0.03868 0.06407 0.0
H2080 H 0.18153 0.97867 0.96618 0.0
H2081 H 0.12828 0.96672 0.08329 0.0
H2082 H 0.14924 1.00307 0.07064 0.0
H2083 H 0.17086 0.97123 0.08411 0.0
C2084 C 0.20544 0.06332 0.00594 0.0
C2085 C 0.23146 0.06475 0.02791 0.0
C2086 C 0.18439 0.03605 1.00257 0.0
C2087 C 0.18879 0.00948 0.02103 0.0
C2088 C 0.21435 0.01097 0.0435 0.0
H2089 H 0.10905 0.81747 0.98093 0.0
H2090 H 0.13573 0.86312 0.01027 0.0
C2091 C 0.23539 0.03844 0.04706 0.0
C2092 C 0.16815 0.97965 0.01449 0.0
H2093 H 0.11469 0.92481 0.0465 0.0
C2094 C 0.16691 0.96699 0.98378 0.0
C2095 C 0.14925 0.9642 0.03753 0.0
C2096 C 0.14916 0.97705 0.0707 0.0
C2097 C 0.1472 0.93959 0.97536 0.0
C2098 C 0.12786 0.92451 0.99816 0.0
C2099 C 0.12943 0.93663 0.02908 0.0
C2100 C 0.10584 0.89632 0.98936 0.0
C2101 C 0.14713 0.9269 0.94201 0.0
C2102 C 0.07892 0.89965 0.96962 0.0
C2103 C 0.06363 0.87363 0.95299 0.0
C2104 C 0.075 0.84394 0.95598 0.0
C2105 C 0.09947 0.83998 0.97868 0.0
C2106 C 0.1149 0.86609 0.99524 0.0
H2107 H 0.16704 0.93833 0.92876 0.0
H2108 H 0.14868 0.90108 0.94211 0.0
H2109 H 0.12458 0.93116 0.92918 0.0
H2110 H 0.07165 0.92282 0.96475 0.0
H2111 H 0.04516 0.87735 0.93527 0.0
H2112 H 0.80545 0.54962 0.76586 0.0
H2113 H 0.84832 0.51628 0.75808 0.0
H2114 H 0.77967 0.4402 0.72567 0.0
H2115 H 0.73703 0.47352 0.7323 0.0
H2116 H 0.8588 0.45725 0.78512 0.0
H2117 H 0.84135 0.44741 0.65481 0.0
H2118 H 0.82463 0.477 0.67748 0.0
H2119 H 0.80584 0.43729 0.67532 0.0
C2120 C 0.79953 0.52599 0.75655 0.0
C2121 C 0.76773 0.51436 0.7495 0.0
C2122 C 0.82404 0.50684 0.75245 0.0
C2123 C 0.81725 0.47583 0.74098 0.0
C2124 C 0.78557 0.46418 0.73408 0.0
H2125 H 0.92322 0.32702 0.68005 0.0
H2126 H 0.88296 0.35447 0.70506 0.0
C2127 C 0.76115 0.48323 0.73814 0.0
C2128 C 0.84307 0.45548 0.73601 0.0
H2129 H 0.8751 0.41304 0.67942 0.0
C2130 C 0.86251 0.44767 0.762 0.0
C2131 C 0.84795 0.44304 0.70584 0.0
C2132 C 0.82907 0.45181 0.6767 0.0
C2133 C 0.88615 0.42711 0.75869 0.0
C2134 C 0.89059 0.4143 0.72858 0.0
C2135 C 0.87136 0.42244 0.70262 0.0
C2136 C 0.91577 0.39345 0.7226 0.0
C2137 C 0.90577 0.41879 0.78744 0.0
C2138 C 0.9479 0.40515 0.72595 0.0
C2139 C 0.97104 0.38915 0.71206 0.0
C2140 C 0.96228 0.36145 0.69433 0.0
C2141 C 0.93065 0.34804 0.69402 0.0
C2142 C 0.90759 0.36394 0.70798 0.0
H2143 H 0.89425 0.42381 0.80964 0.0
H2144 H 0.90996 0.39353 0.78689 0.0
H2145 H 0.92914 0.43303 0.78775 0.0
H2146 H 0.95478 0.42807 0.73666 0.0
H2147 H 0.99509 0.40037 0.71202 0.0
H2148 H 0.64372 0.48346 0.96838 0.0
H2149 H 0.61452 0.53008 0.96222 0.0
H2150 H 0.58051 0.51629 0.05594 0.0
H2151 H 0.60832 0.46914 0.06142 0.0
H2152 H 0.53529 0.53615 0.01749 0.0
H2153 H 0.64798 0.61199 1.00197 0.0
H2154 H 0.63788 0.58225 0.97214 0.0
H2155 H 0.64751 0.57105 0.01206 0.0
C2156 C 0.62982 0.4904 0.9875 0.0
C2157 C 0.62852 0.47293 0.0155 0.0
C2158 C 0.61323 0.51705 0.98403 0.0
C2159 C 0.5959 0.52721 0.00892 0.0
C2160 C 0.59369 0.50901 0.03639 0.0
H2161 H 0.52898 0.67904 0.09917 0.0
H2162 H 0.53095 0.62779 0.07446 0.0
C2163 C 0.60966 0.48208 0.03956 0.0
C2164 C 0.58185 0.55778 0.00786 0.0
H2165 H 0.60255 0.63704 0.00732 0.0
C2166 C 0.54986 0.55827 0.01482 0.0
C2167 C 0.6007 0.58669 1.00402 0.0
C2168 C 0.63545 0.58815 0.99737 0.0
C2169 C 0.53677 0.58673 0.01996 0.0
C2170 C 0.55619 0.6156 0.01804 0.0
C2171 C 0.58747 0.61507 0.00872 0.0
C2172 C 0.54666 0.64618 0.02962 0.0
C2173 C 0.50261 0.58529 0.02849 0.0
C2174 C 0.55437 0.67406 0.01286 0.0
C2175 C 0.55397 0.70349 0.02743 0.0
C2176 C 0.54536 0.70557 0.05883 0.0
C2177 C 0.53478 0.67799 0.0746 0.0
C2178 C 0.5358 0.64856 0.0603 0.0
H2179 H 0.48842 0.56474 0.01698 0.0
H2180 H 0.50118 0.58201 0.05434 0.0
H2181 H 0.4919 0.6071 0.02181 0.0
H2182 H 0.56331 0.67305 0.98944 0.0
H2183 H 0.56294 0.72446 0.01512 0.0
H2184 H 0.34183 0.95943 0.82132 0.0
H2185 H 0.29621 0.92157 0.83063 0.0
H2186 H 0.25237 0.94493 0.74113 0.0
H2187 H 0.29814 0.98268 0.73142 0.0
H2188 H 0.23535 0.93675 0.83532 0.0
H2189 H 0.23986 0.84821 0.7396 0.0
H2190 H 0.2732 0.8763 0.75109 0.0
H2191 H 0.24103 0.88823 0.72643 0.0
C2192 C 0.32268 0.95632 0.80341 0.0
C2193 C 0.32366 0.97422 0.77565 0.0
C2194 C 0.29661 0.93459 0.80876 0.0
C2195 C 0.271 0.93009 0.78643 0.0
C2196 C 0.27211 0.94749 0.75842 0.0
H2197 H 0.08214 0.86048 0.83767 0.0
H2198 H 0.12615 0.8876 0.81001 0.0
C2199 C 0.29822 0.96928 0.75303 0.0
C2200 C 0.2421 0.9093 0.79389 0.0
H2201 H 0.19345 0.84395 0.76942 0.0
C2202 C 0.22626 0.91645 0.8209 0.0
C2203 C 0.23034 0.88267 0.77517 0.0
C2204 C 0.24709 0.87313 0.7466 0.0
C2205 C 0.19893 0.89796 0.82963 0.0
C2206 C 0.18668 0.8718 0.81055 0.0
C2207 C 0.20265 0.86429 0.78372 0.0
C2208 C 0.15783 0.85174 0.81924 0.0
C2209 C 0.18363 0.90631 0.85959 0.0
C2210 C 0.16035 0.82159 0.83158 0.0
C2211 C 0.13505 0.80588 0.84713 0.0
C2212 C 0.107 0.82021 0.85056 0.0
C2213 C 0.10348 0.8489 0.83529 0.0
C2214 C 0.12866 0.86449 0.81968 0.0
H2215 H 0.1996 0.92284 0.8749 0.0
H2216 H 0.16187 0.91778 0.85343 0.0
H2217 H 0.17669 0.88485 0.87334 0.0
H2218 H 0.18267 0.81134 0.83146 0.0
H2219 H 0.13856 0.784 0.859 0.0
H2220 H 0.21263 0.05934 0.30073 0.0
H2221 H 0.25836 0.09535 0.31898 0.0
H2222 H 0.22419 0.16905 0.26151 0.0
H2223 H 0.1789 0.1328 0.24231 0.0
H2224 H 0.28587 0.16814 0.25583 0.0
H2225 H 0.26269 0.16487 0.38295 0.0
H2226 H 0.26542 0.12614 0.36746 0.0
H2227 H 0.23388 0.1484 0.35318 0.0
C2228 C 0.21466 0.08329 0.29217 0.0
C2229 C 0.19194 0.0932 0.27019 0.0
C2230 C 0.2408 0.10396 0.30278 0.0
C2231 C 0.24453 0.13522 0.29216 0.0
C2232 C 0.22185 0.14515 0.2702 0.0
H2233 H 0.38727 0.26497 0.39326 0.0
H2234 H 0.33727 0.24373 0.36631 0.0
C2235 C 0.19588 0.12438 0.25931 0.0
C2236 C 0.27255 0.15717 0.30324 0.0
H2237 H 0.31489 0.18539 0.3697 0.0
C2238 C 0.29202 0.17218 0.28075 0.0
C2239 C 0.28037 0.16313 0.33571 0.0
C2240 C 0.25928 0.15006 0.36118 0.0
C2241 C 0.3196 0.19194 0.28984 0.0
C2242 C 0.32851 0.19619 0.32233 0.0
C2243 C 0.30841 0.18204 0.34476 0.0
C2244 C 0.35903 0.21398 0.33392 0.0
C2245 C 0.33864 0.20825 0.26446 0.0
C2246 C 0.38816 0.20553 0.3239 0.0
C2247 C 0.4168 0.2183 0.33882 0.0
C2248 C 0.41685 0.23931 0.36445 0.0
C2249 C 0.3879 0.24915 0.37328 0.0
C2250 C 0.35932 0.23676 0.35807 0.0
H2251 H 0.32344 0.21194 0.24299 0.0
H2252 H 0.35044 0.23142 0.27278 0.0
H2253 H 0.3571 0.19325 0.25757 0.0
H2254 H 0.38876 0.18747 0.30597 0.0
H2255 H 0.4387 0.20969 0.33209 0.0
loop_
_geom_bond_atom_site_label_1
_geom_bond_atom_site_label_2
_geom_bond_distance
_geom_bond_site_symmetry_2
_ccdc_geom_bond_type
Cu0 N1 1.999 1_455 S
Cu0 O6 1.974 . S
Cu0 N11 1.985 . S
Cu0 O20 1.959 1_455 S
N1 Cu0 1.999 1_655 S
N1 C3 1.263 . S
N1 C5 1.389 . S
N2 C3 1.358 . S
N2 C4 1.400 . S
C3 N1 1.263 . S
C3 N2 1.358 . S
C3 H9 0.930 1_655 S
C4 N2 1.400 . S
C4 C5 1.351 . S
C4 H21 0.930 . S
C5 N1 1.389 . S
C5 C4 1.351 . S
C5 H10 0.930 . S
O6 Cu0 1.974 . S
O6 C16 1.282 . S
C7 O8 1.261 1_655 S
C7 O20 1.251 . S
O8 C7 1.261 1_455 S
H9 C3 0.930 1_455 S
H10 C5 0.930 . S
N11 Cu0 1.985 . S
N11 C13 1.335 . S
N11 C14 1.390 . S
N12 C13 1.345 . S
N12 C15 1.336 . S
C13 N11 1.335 . S
C13 N12 1.345 . S
C13 H18 0.930 . S
C14 N11 1.390 . S
C14 C15 1.346 . S
C14 H19 0.930 . S
C15 N12 1.336 . S
C15 C14 1.346 . S
C15 H22 0.929 . S
C16 O6 1.282 . S
C16 O17 1.216 . S
O17 C16 1.216 . S
H18 C13 0.930 . S
H19 C14 0.930 . S
O20 Cu0 1.959 1_655 S
O20 C7 1.251 . S
H21 C4 0.930 . S
H22 C15 0.929 . S
Cu23 N24 2.005 . S
Cu23 O29 1.974 . S
Cu23 N34 1.985 . S
Cu23 O43 1.959 . S
N24 Cu23 2.005 . S
N24 C26 1.260 1_455 S
N24 C28 1.387 1_455 S
N25 C26 1.358 . S
N25 C27 1.400 . S
C26 N24 1.260 1_655 S
C26 N25 1.358 . S
C26 H32 0.930 . S
C27 N25 1.400 . S
C27 C28 1.351 . S
C27 H44 0.930 . S
C28 N24 1.387 1_655 S
C28 C27 1.351 . S
C28 H33 0.930 . S
O29 Cu23 1.974 . S
O29 C39 1.282 . S
C30 O31 1.261 . S
C30 O43 1.251 1_655 S
O31 C30 1.261 . S
H32 C26 0.930 . S
H33 C28 0.930 . S
N34 Cu23 1.985 . S
N34 C36 1.335 . S
N34 C37 1.390 . S
N35 C36 1.345 . S
N35 C38 1.336 . S
C36 N34 1.335 . S
C36 N35 1.345 . S
C36 H41 0.930 . S
C37 N34 1.390 . S
C37 C38 1.346 . S
C37 H42 0.930 . S
C38 N35 1.336 . S
C38 C37 1.346 . S
C38 H45 0.929 . S
C39 O29 1.282 . S
C39 O40 1.216 . S
O40 C39 1.216 . S
H41 C36 0.930 . S
H42 C37 0.930 . S
O43 Cu23 1.959 . S
O43 C30 1.251 1_455 S
H44 C27 0.930 . S
H45 C38 0.929 . S
Cu46 N47 1.999 . S
Cu46 O52 1.974 . S
Cu46 N57 1.985 . S
Cu46 O66 1.959 . S
N47 Cu46 1.999 . S
N47 C49 1.263 . S
N47 C51 1.389 . S
N48 C49 1.358 . S
N48 C50 1.400 . S
C49 N47 1.263 . S
C49 N48 1.358 . S
C49 H55 0.930 . S
C50 N48 1.400 . S
C50 C51 1.351 . S
C50 H67 0.930 . S
C51 N47 1.389 . S
C51 C50 1.351 . S
C51 H56 0.930 . S
O52 Cu46 1.974 . S
O52 C62 1.282 . S
C53 O54 1.261 . S
C53 O66 1.251 . S
O54 C53 1.261 . S
H55 C49 0.930 . S
H56 C51 0.930 . S
N57 Cu46 1.985 . S
N57 C59 1.335 . S
N57 C60 1.390 . S
N58 C59 1.345 . S
N58 C61 1.336 . S
C59 N57 1.335 . S
C59 N58 1.345 . S
C59 H64 0.930 . S
C60 N57 1.390 . S
C60 C61 1.346 . S
C60 H65 0.930 . S
C61 N58 1.336 . S
C61 C60 1.346 . S
C61 H68 0.929 . S
C62 O52 1.282 . S
C62 O63 1.216 . S
O63 C62 1.216 . S
H64 C59 0.930 . S
H65 C60 0.930 . S
O66 Cu46 1.959 . S
O66 C53 1.251 . S
H67 C50 0.930 . S
H68 C61 0.929 . S
Cu69 N70 1.999 . S
Cu69 O75 1.974 . S
Cu69 N80 1.985 . S
Cu69 O89 1.959 . S
N70 Cu69 1.999 . S
N70 C72 1.263 . S
N70 C74 1.389 . S
N71 C72 1.358 . S
N71 C73 1.400 . S
C72 N70 1.263 . S
C72 N71 1.358 . S
C72 H78 0.930 . S
C73 N71 1.400 . S
C73 C74 1.351 . S
C73 H90 0.930 . S
C74 N70 1.389 . S
C74 C73 1.351 . S
C74 H79 0.930 . S
O75 Cu69 1.974 . S
O75 C85 1.282 . S
C76 O77 1.261 . S
C76 O89 1.251 . S
O77 C76 1.261 . S
H78 C72 0.930 . S
H79 C74 0.930 . S
N80 Cu69 1.985 . S
N80 C82 1.335 . S
N80 C83 1.390 . S
N81 C82 1.345 . S
N81 C84 1.336 . S
C82 N80 1.335 . S
C82 N81 1.345 . S
C82 H87 0.930 . S
C83 N80 1.390 . S
C83 C84 1.346 . S
C83 H88 0.930 . S
C84 N81 1.336 . S
C84 C83 1.346 . S
C84 H91 0.929 . S
C85 O75 1.282 . S
C85 O86 1.216 . S
O86 C85 1.216 . S
H87 C82 0.930 . S
H88 C83 0.930 . S
O89 Cu69 1.959 . S
O89 C76 1.251 . S
H90 C73 0.930 . S
H91 C84 0.929 . S
Cu92 N93 1.999 1_565 S
Cu92 O98 1.974 . S
Cu92 N103 1.985 . S
Cu92 O112 1.959 1_565 S
N93 Cu92 1.999 1_545 S
N93 C95 1.263 . S
N93 C97 1.389 . S
N94 C95 1.358 . S
N94 C96 1.400 . S
C95 N93 1.263 . S
C95 N94 1.358 . S
C95 H101 0.930 . S
C96 N94 1.400 . S
C96 C97 1.351 . S
C96 H113 0.930 . S
C97 N93 1.389 . S
C97 C96 1.351 . S
C97 H102 0.930 . S
O98 Cu92 1.974 . S
O98 C108 1.282 . S
C99 O100 1.261 . S
C99 O112 1.251 . S
O100 C99 1.261 . S
H101 C95 0.930 . S
H102 C97 0.930 . S
N103 Cu92 1.985 . S
N103 C105 1.335 . S
N103 C106 1.390 . S
N104 C105 1.345 . S
N104 C107 1.336 . S
C105 N103 1.335 . S
C105 N104 1.345 . S
C105 H110 0.930 . S
C106 N103 1.390 . S
C106 C107 1.346 . S
C106 H111 0.930 . S
C107 N104 1.336 . S
C107 C106 1.346 . S
C107 H114 0.929 . S
C108 O98 1.282 . S
C108 O109 1.219 . S
O109 C108 1.219 . S
H110 C105 0.930 . S
H111 C106 0.930 . S
O112 Cu92 1.959 1_545 S
O112 C99 1.251 . S
H113 C96 0.930 . S
H114 C107 0.929 . S
Cu115 N116 1.999 . S
Cu115 O121 1.974 . S
Cu115 N126 1.985 . S
Cu115 O135 1.959 . S
N116 Cu115 1.999 . S
N116 C118 1.263 . S
N116 C120 1.389 . S
N117 C118 1.358 . S
N117 C119 1.400 . S
C118 N116 1.263 . S
C118 N117 1.358 . S
C118 H124 0.930 . S
C119 N117 1.400 . S
C119 C120 1.351 . S
C119 H136 0.930 . S
C120 N116 1.389 . S
C120 C119 1.351 . S
C120 H125 0.930 . S
O121 Cu115 1.974 . S
O121 C131 1.282 . S
C122 O123 1.261 . S
C122 O135 1.251 . S
O123 C122 1.261 . S
H124 C118 0.930 . S
H125 C120 0.930 . S
N126 Cu115 1.985 . S
N126 C128 1.335 . S
N126 C129 1.390 . S
N127 C128 1.345 . S
N127 C130 1.336 . S
C128 N126 1.335 . S
C128 N127 1.345 . S
C128 H133 0.930 . S
C129 N126 1.390 . S
C129 C130 1.346 . S
C129 H134 0.930 . S
C130 N127 1.336 . S
C130 C129 1.346 . S
C130 H137 0.929 . S
C131 O121 1.282 . S
C131 O132 1.216 . S
O132 C131 1.216 . S
H133 C128 0.930 . S
H134 C129 0.930 . S
O135 Cu115 1.959 . S
O135 C122 1.251 . S
H136 C119 0.930 . S
H137 C130 0.929 . S
Cu138 N139 1.999 . S
Cu138 O144 1.974 . S
Cu138 N149 1.985 . S
Cu138 O158 1.959 . S
N139 Cu138 1.999 . S
N139 C141 1.263 1_545 S
N139 C143 1.389 1_545 S
N140 C141 1.358 . S
N140 C142 1.400 . S
C141 N139 1.263 1_565 S
C141 N140 1.358 . S
C141 H147 0.930 . S
C142 N140 1.400 . S
C142 C143 1.351 . S
C142 H159 0.930 . S
C143 N139 1.389 1_565 S
C143 C142 1.351 . S
C143 H148 0.925 1_565 S
O144 Cu138 1.974 . S
O144 C154 1.282 . S
C145 O146 1.261 . S
C145 O158 1.251 1_565 S
O146 C145 1.261 . S
H147 C141 0.930 . S
H148 C143 0.925 1_545 S
N149 Cu138 1.985 . S
N149 C151 1.335 . S
N149 C152 1.390 . S
N150 C151 1.345 . S
N150 C153 1.336 . S
C151 N149 1.335 . S
C151 N150 1.345 . S
C151 H156 0.930 . S
C152 N149 1.390 . S
C152 C153 1.346 . S
C152 H157 0.930 . S
C153 N150 1.336 . S
C153 C152 1.346 . S
C153 H160 0.929 . S
C154 O144 1.282 . S
C154 O155 1.216 . S
O155 C154 1.216 . S
H156 C151 0.930 . S
H157 C152 0.930 . S
O158 Cu138 1.959 . S
O158 C145 1.251 1_545 S
H159 C142 0.930 . S
H160 C153 0.929 . S
Cu161 N162 1.999 . S
Cu161 O167 1.974 1_556 S
Cu161 N172 1.985 1_556 S
Cu161 O181 1.959 . S
N162 Cu161 1.999 . S
N162 C164 1.263 . S
N162 C166 1.389 . S
N163 C164 1.358 . S
N163 C165 1.400 . S
C164 N162 1.263 . S
C164 N163 1.358 . S
C164 H170 0.930 . S
C165 N163 1.400 . S
C165 C166 1.351 . S
C165 H182 0.930 . S
C166 N162 1.389 . S
C166 C165 1.351 . S
C166 H171 0.930 . S
O167 Cu161 1.974 1_554 S
O167 C177 1.282 . S
C168 O169 1.261 1_556 S
C168 O181 1.251 . S
O169 C168 1.261 1_554 S
H170 C164 0.930 . S
H171 C166 0.930 . S
N172 Cu161 1.985 1_554 S
N172 C174 1.335 . S
N172 C175 1.390 . S
N173 C174 1.345 . S
N173 C176 1.336 . S
C174 N172 1.335 . S
C174 N173 1.345 . S
C174 H179 0.930 1_554 S
C175 N172 1.390 . S
C175 C176 1.346 . S
C175 H180 0.930 . S
C176 N173 1.336 . S
C176 C175 1.346 . S
C176 H183 0.929 . S
C177 O167 1.282 . S
C177 O178 1.216 . S
O178 C177 1.216 . S
H179 C174 0.930 1_556 S
H180 C175 0.930 . S
O181 Cu161 1.959 . S
O181 C168 1.251 . S
H182 C165 0.930 . S
H183 C176 0.929 . S
Cu184 N185 1.999 . S
Cu184 O190 1.974 1_556 S
Cu184 N195 1.985 1_556 S
Cu184 O204 1.959 . S
N185 Cu184 1.999 . S
N185 C187 1.263 . S
N185 C189 1.389 . S
N186 C187 1.358 . S
N186 C188 1.400 . S
C187 N185 1.263 . S
C187 N186 1.358 . S
C187 H193 0.930 . S
C188 N186 1.400 . S
C188 C189 1.351 . S
C188 H205 0.930 . S
C189 N185 1.389 . S
C189 C188 1.351 . S
C189 H194 0.930 . S
O190 Cu184 1.974 1_554 S
O190 C200 1.282 . S
C191 O192 1.261 1_556 S
C191 O204 1.251 . S
O192 C191 1.261 1_554 S
H193 C187 0.930 . S
H194 C189 0.930 . S
N195 Cu184 1.985 1_554 S
N195 C197 1.335 . S
N195 C198 1.390 . S
N196 C197 1.345 . S
N196 C199 1.336 . S
C197 N195 1.335 . S
C197 N196 1.345 . S
C197 H202 0.930 1_554 S
C198 N195 1.390 . S
C198 C199 1.346 . S
C198 H203 0.930 . S
C199 N196 1.336 . S
C199 C198 1.346 . S
C199 H206 0.929 . S
C200 O190 1.282 . S
C200 O201 1.216 . S
O201 C200 1.216 . S
H202 C197 0.930 1_556 S
H203 C198 0.930 . S
O204 Cu184 1.959 . S
O204 C191 1.251 . S
H205 C188 0.930 . S
H206 C199 0.929 . S
Cu207 N208 1.999 . S
Cu207 O213 1.974 . S
Cu207 N218 1.985 . S
Cu207 O227 1.959 . S
N208 Cu207 1.999 . S
N208 C210 1.263 . S
N208 C212 1.389 . S
N209 C210 1.358 . S
N209 C211 1.400 . S
C210 N208 1.263 . S
C210 N209 1.358 . S
C210 H216 0.930 . S
C211 N209 1.400 . S
C211 C212 1.351 . S
C211 H228 0.930 . S
C212 N208 1.389 . S
C212 C211 1.351 . S
C212 H217 0.930 . S
O213 Cu207 1.974 . S
O213 C223 1.282 . S
C214 O215 1.261 . S
C214 O227 1.251 . S
O215 C214 1.261 . S
H216 C210 0.930 . S
H217 C212 0.930 . S
N218 Cu207 1.985 . S
N218 C220 1.335 . S
N218 C221 1.390 . S
N219 C220 1.345 . S
N219 C222 1.336 . S
C220 N218 1.335 . S
C220 N219 1.345 . S
C220 H225 0.930 . S
C221 N218 1.390 . S
C221 C222 1.346 . S
C221 H226 0.930 . S
C222 N219 1.336 . S
C222 C221 1.346 . S
C222 H229 0.929 . S
C223 O213 1.282 . S
C223 O224 1.216 . S
O224 C223 1.216 . S
H225 C220 0.930 . S
H226 C221 0.930 . S
O227 Cu207 1.959 . S
O227 C214 1.251 . S
H228 C211 0.930 . S
H229 C222 0.929 . S
Cu230 N231 1.999 . S
Cu230 O236 1.974 . S
Cu230 N241 1.985 . S
Cu230 O250 1.959 . S
N231 Cu230 1.999 . S
N231 C233 1.263 . S
N231 C235 1.389 . S
N232 C233 1.358 . S
N232 C234 1.400 . S
C233 N231 1.263 . S
C233 N232 1.358 . S
C233 H239 0.930 . S
C234 N232 1.400 . S
C234 C235 1.351 . S
C234 H251 0.930 . S
C235 N231 1.389 . S
C235 C234 1.351 . S
C235 H240 0.930 . S
O236 Cu230 1.974 . S
O236 C246 1.282 . S
C237 O238 1.261 . S
C237 O250 1.251 . S
O238 C237 1.261 . S
H239 C233 0.930 . S
H240 C235 0.930 . S
N241 Cu230 1.985 . S
N241 C243 1.335 . S
N241 C244 1.390 . S
N242 C243 1.345 . S
N242 C245 1.336 . S
C243 N241 1.335 . S
C243 N242 1.345 . S
C243 H248 0.930 . S
C244 N241 1.390 . S
C244 C245 1.346 . S
C244 H249 0.930 . S
C245 N242 1.336 . S
C245 C244 1.346 . S
C245 H252 0.929 . S
C246 O236 1.282 . S
C246 O247 1.216 . S
O247 C246 1.216 . S
H248 C243 0.930 . S
H249 C244 0.930 . S
O250 Cu230 1.959 . S
O250 C237 1.251 . S
H251 C234 0.930 . S
H252 C245 0.929 . S
Cu253 N254 1.999 . S
Cu253 O259 1.974 . S
Cu253 N264 1.985 . S
Cu253 O273 1.959 . S
N254 Cu253 1.999 . S
N254 C256 1.263 . S
N254 C258 1.389 . S
N255 C256 1.358 . S
N255 C257 1.400 . S
C256 N254 1.263 . S
C256 N255 1.358 . S
C256 H262 0.930 . S
C257 N255 1.400 . S
C257 C258 1.351 . S
C257 H274 0.930 . S
C258 N254 1.389 . S
C258 C257 1.351 . S
C258 H263 0.930 . S
O259 Cu253 1.974 . S
O259 C269 1.282 . S
C260 O261 1.261 . S
C260 O273 1.251 . S
O261 C260 1.261 . S
H262 C256 0.930 . S
H263 C258 0.930 . S
N264 Cu253 1.985 . S
N264 C266 1.335 . S
N264 C267 1.390 . S
N265 C266 1.345 . S
N265 C268 1.336 . S
C266 N264 1.335 . S
C266 N265 1.345 . S
C266 H271 0.930 . S
C267 N264 1.390 . S
C267 C268 1.346 . S
C267 H272 0.930 . S
C268 N265 1.336 . S
C268 C267 1.346 . S
C268 H275 0.929 . S
C269 O259 1.282 . S
C269 O270 1.216 . S
O270 C269 1.216 . S
H271 C266 0.930 . S
H272 C267 0.930 . S
O273 Cu253 1.959 . S
O273 C260 1.251 . S
H274 C257 0.930 . S
H275 C268 0.929 . S
H276 C284 0.930 . S
H277 C287 0.930 . S
H278 C289 0.930 . S
H279 C290 0.970 . S
H280 C290 0.970 . S
H281 C292 0.930 . S
H282 C294 0.930 . S
H283 C296 0.930 . S
C284 H276 0.930 . S
C284 C285 1.382 . S
C284 C286 1.426 . S
C285 C284 1.382 . S
C285 C289 1.389 . S
C286 C284 1.426 . S
C286 C287 1.375 . S
C286 C290 1.532 . S
C287 H277 0.930 . S
C287 C286 1.375 . S
C287 C288 1.416 . S
C288 C287 1.416 . S
C288 C289 1.371 . S
C289 H278 0.930 . S
C289 C285 1.389 . S
C289 C288 1.371 . S
C290 H279 0.970 . S
C290 H280 0.970 . S
C290 C286 1.532 . S
C290 C291 1.499 . S
C291 C290 1.499 . S
C291 C292 1.370 . S
C291 C296 1.415 . S
C292 H281 0.930 . S
C292 C291 1.370 . S
C292 C293 1.407 1_455 S
C293 C292 1.407 1_655 S
C293 C294 1.365 . S
C294 H282 0.930 . S
C294 C293 1.365 . S
C294 C295 1.393 . S
C295 C294 1.393 . S
C295 C296 1.387 1_655 S
C296 H283 0.930 . S
C296 C291 1.415 . S
C296 C295 1.387 1_455 S
H297 C305 0.930 . S
H298 C308 0.930 . S
H299 C310 0.930 . S
H300 C311 0.970 . S
H301 C311 0.970 . S
H302 C313 0.930 . S
H303 C315 0.930 . S
H304 C317 0.930 . S
C305 H297 0.930 . S
C305 C306 1.382 . S
C305 C307 1.426 . S
C306 C305 1.382 . S
C306 C310 1.389 . S
C307 C305 1.426 . S
C307 C308 1.375 . S
C307 C311 1.532 . S
C308 H298 0.930 . S
C308 C307 1.375 . S
C308 C309 1.416 . S
C309 C308 1.416 . S
C309 C310 1.371 . S
C310 H299 0.930 . S
C310 C306 1.389 . S
C310 C309 1.371 . S
C311 H300 0.970 . S
C311 H301 0.970 . S
C311 C307 1.532 . S
C311 C312 1.499 . S
C312 C311 1.499 . S
C312 C313 1.370 1_455 S
C312 C317 1.415 1_455 S
C313 H302 0.930 . S
C313 C312 1.370 1_655 S
C313 C314 1.407 . S
C314 C313 1.407 . S
C314 C315 1.365 . S
C315 H303 0.930 . S
C315 C314 1.365 . S
C315 C316 1.393 . S
C316 C315 1.393 . S
C316 C317 1.387 . S
C317 H304 0.930 . S
C317 C312 1.415 1_655 S
C317 C316 1.387 . S
H318 C326 0.930 . S
H319 C329 0.930 . S
H320 C331 0.930 . S
H321 C332 0.970 . S
H322 C332 0.970 . S
H323 C334 0.930 . S
H324 C336 0.930 . S
H325 C338 0.930 . S
C326 H318 0.930 . S
C326 C327 1.382 . S
C326 C328 1.426 . S
C327 C326 1.382 . S
C327 C331 1.389 . S
C328 C326 1.426 . S
C328 C329 1.375 . S
C328 C332 1.532 . S
C329 H319 0.930 . S
C329 C328 1.375 . S
C329 C330 1.416 . S
C330 C329 1.416 . S
C330 C331 1.371 . S
C331 H320 0.930 . S
C331 C327 1.389 . S
C331 C330 1.371 . S
C332 H321 0.970 . S
C332 H322 0.970 . S
C332 C328 1.532 . S
C332 C333 1.499 . S
C333 C332 1.499 . S
C333 C334 1.370 . S
C333 C338 1.415 . S
C334 H323 0.930 . S
C334 C333 1.370 . S
C334 C335 1.407 . S
C335 C334 1.407 . S
C335 C336 1.365 . S
C336 H324 0.930 . S
C336 C335 1.365 . S
C336 C337 1.393 . S
C337 C336 1.393 . S
C337 C338 1.387 . S
C338 H325 0.930 . S
C338 C333 1.415 . S
C338 C337 1.387 . S
H339 C347 0.930 . S
H340 C350 0.930 . S
H341 C352 0.930 . S
H342 C353 0.970 . S
H343 C353 0.970 . S
H344 C355 0.930 . S
H345 C357 0.930 . S
H346 C359 0.930 . S
C347 H339 0.930 . S
C347 C348 1.382 . S
C347 C349 1.426 . S
C348 C347 1.382 . S
C348 C352 1.389 . S
C349 C347 1.426 . S
C349 C350 1.375 . S
C349 C353 1.532 . S
C350 H340 0.930 . S
C350 C349 1.375 . S
C350 C351 1.416 . S
C351 C350 1.416 . S
C351 C352 1.371 . S
C352 H341 0.930 . S
C352 C348 1.389 . S
C352 C351 1.371 . S
C353 H342 0.970 . S
C353 H343 0.970 . S
C353 C349 1.532 . S
C353 C354 1.499 . S
C354 C353 1.499 . S
C354 C355 1.370 . S
C354 C359 1.415 . S
C355 H344 0.930 . S
C355 C354 1.370 . S
C355 C356 1.407 . S
C356 C355 1.407 . S
C356 C357 1.365 . S
C357 H345 0.930 . S
C357 C356 1.365 . S
C357 C358 1.393 . S
C358 C357 1.393 . S
C358 C359 1.387 . S
C359 H346 0.930 . S
C359 C354 1.415 . S
C359 C358 1.387 . S
H360 C368 0.930 . S
H361 C371 0.930 . S
H362 C373 0.930 . S
H363 C374 0.969 1_565 S
H364 C374 0.970 . S
H365 C376 0.930 . S
H366 C378 0.930 . S
H367 C380 0.929 . S
C368 H360 0.930 . S
C368 C369 1.382 . S
C368 C370 1.426 . S
C369 C368 1.382 . S
C369 C373 1.389 . S
C370 C368 1.426 . S
C370 C371 1.375 . S
C370 C374 1.532 . S
C371 H361 0.930 . S
C371 C370 1.375 . S
C371 C372 1.416 . S
C372 C371 1.416 . S
C372 C373 1.371 . S
C373 H362 0.930 . S
C373 C369 1.389 . S
C373 C372 1.371 . S
C374 H363 0.969 1_545 S
C374 H364 0.970 . S
C374 C370 1.532 . S
C374 C375 1.499 . S
C375 C374 1.499 . S
C375 C376 1.370 . S
C375 C380 1.423 . S
C376 H365 0.930 . S
C376 C375 1.370 . S
C376 C377 1.407 1_545 S
C377 C376 1.407 1_565 S
C377 C378 1.365 . S
C378 H366 0.930 . S
C378 C377 1.365 . S
C378 C379 1.393 . S
C379 C378 1.393 . S
C379 C380 1.382 1_565 S
C380 H367 0.929 . S
C380 C375 1.423 . S
C380 C379 1.382 1_545 S
H381 C389 0.930 . S
H382 C392 0.930 . S
H383 C394 0.930 . S
H384 C395 0.970 . S
H385 C395 0.970 . S
H386 C397 0.930 . S
H387 C399 0.930 . S
H388 C401 0.930 . S
C389 H381 0.930 . S
C389 C390 1.382 . S
C389 C391 1.426 . S
C390 C389 1.382 . S
C390 C394 1.389 . S
C391 C389 1.426 . S
C391 C392 1.375 . S
C391 C395 1.532 . S
C392 H382 0.930 . S
C392 C391 1.375 . S
C392 C393 1.416 . S
C393 C392 1.416 . S
C393 C394 1.371 . S
C394 H383 0.930 . S
C394 C390 1.389 . S
C394 C393 1.371 . S
C395 H384 0.970 . S
C395 H385 0.970 . S
C395 C391 1.532 . S
C395 C396 1.499 . S
C396 C395 1.499 . S
C396 C397 1.370 . S
C396 C401 1.415 . S
C397 H386 0.930 . S
C397 C396 1.370 . S
C397 C398 1.407 . S
C398 C397 1.407 . S
C398 C399 1.365 . S
C399 H387 0.930 . S
C399 C398 1.365 . S
C399 C400 1.393 . S
C400 C399 1.393 . S
C400 C401 1.387 . S
C401 H388 0.930 . S
C401 C396 1.415 . S
C401 C400 1.387 . S
H402 C410 0.930 . S
H403 C413 0.930 . S
H404 C415 0.930 . S
H405 C416 0.970 . S
H406 C416 0.970 . S
H407 C418 0.930 . S
H408 C420 0.930 . S
H409 C422 0.930 . S
C410 H402 0.930 . S
C410 C411 1.382 1_545 S
C410 C412 1.426 . S
C411 C410 1.382 1_565 S
C411 C415 1.389 . S
C412 C410 1.426 . S
C412 C413 1.375 . S
C412 C416 1.532 . S
C413 H403 0.930 . S
C413 C412 1.375 . S
C413 C414 1.416 1_545 S
C414 C413 1.416 1_565 S
C414 C415 1.371 . S
C415 H404 0.930 . S
C415 C411 1.389 . S
C415 C414 1.371 . S
C416 H405 0.970 . S
C416 H406 0.970 . S
C416 C412 1.532 . S
C416 C417 1.499 . S
C417 C416 1.499 . S
C417 C418 1.370 . S
C417 C422 1.415 . S
C418 H407 0.930 . S
C418 C417 1.370 . S
C418 C419 1.407 . S
C419 C418 1.407 . S
C419 C420 1.365 . S
C420 H408 0.930 . S
C420 C419 1.365 . S
C420 C421 1.393 . S
C421 C420 1.393 . S
C421 C422 1.387 . S
C422 H409 0.930 . S
C422 C417 1.415 . S
C422 C421 1.387 . S
H423 C431 0.930 . S
H424 C434 0.930 . S
H425 C436 0.930 . S
H426 C437 0.970 . S
H427 C437 0.970 . S
H428 C439 0.930 1_554 S
H429 C441 0.930 . S
H430 C443 0.948 . S
C431 H423 0.930 . S
C431 C432 1.382 . S
C431 C433 1.426 . S
C432 C431 1.382 . S
C432 C436 1.389 . S
C433 C431 1.426 . S
C433 C434 1.375 . S
C433 C437 1.532 . S
C434 H424 0.930 . S
C434 C433 1.375 . S
C434 C435 1.416 . S
C435 C434 1.416 . S
C435 C436 1.371 . S
C436 H425 0.930 . S
C436 C432 1.389 . S
C436 C435 1.371 . S
C437 H426 0.970 . S
C437 H427 0.970 . S
C437 C433 1.532 . S
C437 C438 1.499 . S
C438 C437 1.499 . S
C438 C439 1.370 1_554 S
C438 C443 1.429 . S
C439 H428 0.930 1_556 S
C439 C438 1.370 1_556 S
C439 C440 1.407 . S
C440 C439 1.407 . S
C440 C441 1.365 . S
C441 H429 0.930 . S
C441 C440 1.365 . S
C441 C442 1.393 . S
C442 C441 1.393 . S
C442 C443 1.356 1_556 S
C443 H430 0.948 . S
C443 C438 1.429 . S
C443 C442 1.356 1_554 S
H444 C452 0.930 . S
H445 C455 0.930 . S
H446 C457 0.930 . S
H447 C458 0.970 . S
H448 C458 0.970 . S
H449 C460 0.930 1_554 S
H450 C462 0.930 . S
H451 C464 0.930 1_554 S
C452 H444 0.930 . S
C452 C453 1.382 . S
C452 C454 1.426 . S
C453 C452 1.382 . S
C453 C457 1.389 . S
C454 C452 1.426 . S
C454 C455 1.375 . S
C454 C458 1.532 . S
C455 H445 0.930 . S
C455 C454 1.375 . S
C455 C456 1.416 . S
C456 C455 1.416 . S
C456 C457 1.371 . S
C457 H446 0.930 . S
C457 C453 1.389 . S
C457 C456 1.371 . S
C458 H447 0.970 . S
C458 H448 0.970 . S
C458 C454 1.532 . S
C458 C459 1.499 . S
C459 C458 1.499 . S
C459 C460 1.370 1_554 S
C459 C464 1.415 1_554 S
C460 H449 0.930 1_556 S
C460 C459 1.370 1_556 S
C460 C461 1.407 . S
C461 C460 1.407 . S
C461 C462 1.365 . S
C462 H450 0.930 . S
C462 C461 1.365 . S
C462 C463 1.393 . S
C463 C462 1.393 . S
C463 C464 1.387 . S
C464 H451 0.930 1_556 S
C464 C459 1.415 1_556 S
C464 C463 1.387 . S
H465 C473 0.930 . S
H466 C476 0.930 . S
H467 C478 0.930 . S
H468 C479 0.970 . S
H469 C479 0.970 . S
H470 C481 0.930 . S
H471 C483 0.930 . S
H472 C485 0.930 . S
C473 H465 0.930 . S
C473 C474 1.382 . S
C473 C475 1.426 . S
C474 C473 1.382 . S
C474 C478 1.389 . S
C475 C473 1.426 . S
C475 C476 1.375 . S
C475 C479 1.532 . S
C476 H466 0.930 . S
C476 C475 1.375 . S
C476 C477 1.416 . S
C477 C476 1.416 . S
C477 C478 1.371 . S
C478 H467 0.930 . S
C478 C474 1.389 . S
C478 C477 1.371 . S
C479 H468 0.970 . S
C479 H469 0.970 . S
C479 C475 1.532 . S
C479 C480 1.499 . S
C480 C479 1.499 . S
C480 C481 1.370 . S
C480 C485 1.415 . S
C481 H470 0.930 . S
C481 C480 1.370 . S
C481 C482 1.407 . S
C482 C481 1.407 . S
C482 C483 1.365 . S
C483 H471 0.930 . S
C483 C482 1.365 . S
C483 C484 1.393 . S
C484 C483 1.393 . S
C484 C485 1.387 . S
C485 H472 0.930 . S
C485 C480 1.415 . S
C485 C484 1.387 . S
H486 C494 0.930 . S
H487 C497 0.930 . S
H488 C499 0.930 . S
H489 C500 0.970 . S
H490 C500 0.970 . S
H491 C502 0.930 . S
H492 C504 0.930 . S
H493 C506 0.930 . S
C494 H486 0.930 . S
C494 C495 1.382 . S
C494 C496 1.426 . S
C495 C494 1.382 . S
C495 C499 1.389 . S
C496 C494 1.426 . S
C496 C497 1.375 . S
C496 C500 1.532 . S
C497 H487 0.930 . S
C497 C496 1.375 . S
C497 C498 1.416 . S
C498 C497 1.416 . S
C498 C499 1.371 . S
C499 H488 0.930 . S
C499 C495 1.389 . S
C499 C498 1.371 . S
C500 H489 0.970 . S
C500 H490 0.970 . S
C500 C496 1.532 . S
C500 C501 1.499 . S
C501 C500 1.499 . S
C501 C502 1.370 . S
C501 C506 1.415 . S
C502 H491 0.930 . S
C502 C501 1.370 . S
C502 C503 1.407 . S
C503 C502 1.407 . S
C503 C504 1.365 . S
C504 H492 0.930 . S
C504 C503 1.365 . S
C504 C505 1.393 . S
C505 C504 1.393 . S
C505 C506 1.387 . S
C506 H493 0.930 . S
C506 C501 1.415 . S
C506 C505 1.387 . S
H507 C515 0.930 . S
H508 C518 0.930 . S
H509 C520 0.930 . S
H510 C521 0.970 . S
H511 C521 0.970 . S
H512 C523 0.930 . S
H513 C525 0.930 . S
H514 C527 0.930 . S
C515 H507 0.930 . S
C515 C516 1.382 . S
C515 C517 1.426 . S
C516 C515 1.382 . S
C516 C520 1.389 . S
C517 C515 1.426 . S
C517 C518 1.375 . S
C517 C521 1.532 . S
C518 H508 0.930 . S
C518 C517 1.375 . S
C518 C519 1.416 . S
C519 C518 1.416 . S
C519 C520 1.371 . S
C520 H509 0.930 . S
C520 C516 1.389 . S
C520 C519 1.371 . S
C521 H510 0.970 . S
C521 H511 0.970 . S
C521 C517 1.532 . S
C521 C522 1.499 . S
C522 C521 1.499 . S
C522 C523 1.370 . S
C522 C527 1.415 . S
C523 H512 0.930 . S
C523 C522 1.370 . S
C523 C524 1.407 . S
C524 C523 1.407 . S
C524 C525 1.365 . S
C525 H513 0.930 . S
C525 C524 1.365 . S
C525 C526 1.393 . S
C526 C525 1.393 . S
C526 C527 1.387 . S
C527 H514 0.930 . S
C527 C522 1.415 . S
C527 C526 1.387 . S
H528 C536 0.929 . S
H529 C538 0.930 . S
H530 C540 0.930 . S
H531 C543 0.929 . S
H532 C546 0.930 . S
H533 C548 0.960 . S
H534 C548 0.960 . S
H535 C548 0.960 . S
C536 H528 0.929 . S
C536 C537 1.377 . S
C536 C538 1.384 1_554 S
C537 C536 1.377 . S
C537 C543 1.390 . S
C538 H529 0.930 . S
C538 C536 1.384 1_556 S
C538 C539 1.372 . S
C539 C538 1.372 . S
C539 C540 1.400 1_556 S
C539 C544 1.490 . S
C540 H530 0.930 . S
C540 C539 1.400 1_554 S
C540 C543 1.386 . S
H541 C557 0.930 . S
H542 C558 0.931 . S
C543 H531 0.929 . S
C543 C537 1.390 . S
C543 C540 1.386 . S
C544 C539 1.490 . S
C544 C546 1.395 . S
C544 C547 1.403 . S
H545 C551 0.930 . S
C546 H532 0.930 . S
C546 C544 1.395 . S
C546 C549 1.403 . S
C547 C544 1.403 . S
C547 C548 1.524 . S
C547 C551 1.400 . S
C548 H533 0.960 . S
C548 H534 0.960 . S
C548 H535 0.960 . S
C548 C547 1.524 . S
C549 C546 1.403 . S
C549 C550 1.392 . S
C549 C553 1.495 . S
C550 C549 1.392 . S
C550 C551 1.385 . S
C550 C552 1.478 . S
C551 H545 0.930 . S
C551 C547 1.400 . S
C551 C550 1.385 . S
C552 C550 1.478 . S
C552 C554 1.381 . S
C552 C558 1.383 . S
C553 C549 1.495 . S
C553 H559 0.959 . S
C553 H560 0.961 . S
C553 H561 0.960 . S
C554 C552 1.381 . S
C554 C555 1.394 . S
C554 H562 0.930 . S
C555 C554 1.394 . S
C555 C556 1.383 . S
C555 H563 0.929 . S
C556 C555 1.383 . S
C556 C557 1.377 . S
C557 H541 0.930 . S
C557 C556 1.377 . S
C557 C558 1.379 . S
C558 H542 0.931 . S
C558 C552 1.383 . S
C558 C557 1.379 . S
H559 C553 0.959 . S
H560 C553 0.961 . S
H561 C553 0.960 . S
H562 C554 0.930 . S
H563 C555 0.929 . S
H564 C572 0.929 . S
H565 C574 0.930 . S
H566 C576 0.930 . S
H567 C579 0.929 . S
H568 C582 0.930 . S
H569 C584 0.960 . S
H570 C584 0.960 . S
H571 C584 0.960 . S
C572 H564 0.929 . S
C572 C573 1.377 . S
C572 C574 1.384 . S
C573 C572 1.377 . S
C573 C579 1.390 . S
C574 H565 0.930 . S
C574 C572 1.384 . S
C574 C575 1.372 . S
C575 C574 1.372 . S
C575 C576 1.400 . S
C575 C580 1.490 . S
C576 H566 0.930 . S
C576 C575 1.400 . S
C576 C579 1.386 . S
H577 C593 0.930 . S
H578 C594 0.931 . S
C579 H567 0.929 . S
C579 C573 1.390 . S
C579 C576 1.386 . S
C580 C575 1.490 . S
C580 C582 1.395 . S
C580 C583 1.403 . S
H581 C587 0.930 . S
C582 H568 0.930 . S
C582 C580 1.395 . S
C582 C585 1.403 . S
C583 C580 1.403 . S
C583 C584 1.524 . S
C583 C587 1.400 . S
C584 H569 0.960 . S
C584 H570 0.960 . S
C584 H571 0.960 . S
C584 C583 1.524 . S
C585 C582 1.403 . S
C585 C586 1.392 . S
C585 C589 1.495 . S
C586 C585 1.392 . S
C586 C587 1.385 . S
C586 C588 1.478 . S
C587 H581 0.930 . S
C587 C583 1.400 . S
C587 C586 1.385 . S
C588 C586 1.478 . S
C588 C590 1.381 . S
C588 C594 1.383 . S
C589 C585 1.495 . S
C589 H595 0.959 . S
C589 H596 0.961 . S
C589 H597 0.960 . S
C590 C588 1.381 . S
C590 C591 1.394 . S
C590 H598 0.930 . S
C591 C590 1.394 . S
C591 C592 1.383 . S
C591 H599 0.929 . S
C592 C591 1.383 . S
C592 C593 1.377 . S
C593 H577 0.930 . S
C593 C592 1.377 . S
C593 C594 1.379 . S
C594 H578 0.931 . S
C594 C588 1.383 . S
C594 C593 1.379 . S
H595 C589 0.959 . S
H596 C589 0.961 . S
H597 C589 0.960 . S
H598 C590 0.930 . S
H599 C591 0.929 . S
H600 C608 0.929 . S
H601 C610 0.930 . S
H602 C612 0.930 . S
H603 C615 0.929 . S
H604 C618 0.930 . S
H605 C620 0.960 . S
H606 C620 0.960 . S
H607 C620 0.960 . S
C608 H600 0.929 . S
C608 C609 1.377 . S
C608 C610 1.384 . S
C609 C608 1.377 . S
C609 C615 1.390 . S
C610 H601 0.930 . S
C610 C608 1.384 . S
C610 C611 1.372 . S
C611 C610 1.372 . S
C611 C612 1.400 . S
C611 C616 1.490 . S
C612 H602 0.930 . S
C612 C611 1.400 . S
C612 C615 1.386 . S
H613 C629 0.930 . S
H614 C630 0.931 . S
C615 H603 0.929 . S
C615 C609 1.390 . S
C615 C612 1.386 . S
C616 C611 1.490 . S
C616 C618 1.395 . S
C616 C619 1.403 . S
H617 C623 0.930 . S
C618 H604 0.930 . S
C618 C616 1.395 . S
C618 C621 1.403 . S
C619 C616 1.403 . S
C619 C620 1.524 . S
C619 C623 1.400 . S
C620 H605 0.960 . S
C620 H606 0.960 . S
C620 H607 0.960 . S
C620 C619 1.524 . S
C621 C618 1.403 . S
C621 C622 1.392 . S
C621 C625 1.495 . S
C622 C621 1.392 . S
C622 C623 1.385 . S
C622 C624 1.478 . S
C623 H617 0.930 . S
C623 C619 1.400 . S
C623 C622 1.385 . S
C624 C622 1.478 . S
C624 C626 1.381 . S
C624 C630 1.383 . S
C625 C621 1.495 . S
C625 H631 0.959 . S
C625 H632 0.961 . S
C625 H633 0.960 . S
C626 C624 1.381 . S
C626 C627 1.394 . S
C626 H634 0.930 . S
C627 C626 1.394 . S
C627 C628 1.383 . S
C627 H635 0.929 . S
C628 C627 1.383 . S
C628 C629 1.377 . S
C629 H613 0.930 . S
C629 C628 1.377 . S
C629 C630 1.379 . S
C630 H614 0.931 . S
C630 C624 1.383 . S
C630 C629 1.379 . S
H631 C625 0.959 . S
H632 C625 0.961 . S
H633 C625 0.960 . S
H634 C626 0.930 . S
H635 C627 0.929 . S
H636 C644 0.929 . S
H637 C646 0.930 . S
H638 C648 0.930 . S
H639 C651 0.929 . S
H640 C654 0.930 . S
H641 C656 0.960 . S
H642 C656 0.960 . S
H643 C656 0.960 . S
C644 H636 0.929 . S
C644 C645 1.377 . S
C644 C646 1.384 . S
C645 C644 1.377 . S
C645 C651 1.390 . S
C646 H637 0.930 . S
C646 C644 1.384 . S
C646 C647 1.372 . S
C647 C646 1.372 . S
C647 C648 1.400 . S
C647 C652 1.490 . S
C648 H638 0.930 . S
C648 C647 1.400 . S
C648 C651 1.386 . S
H649 C665 0.930 . S
H650 C666 0.931 . S
C651 H639 0.929 . S
C651 C645 1.390 . S
C651 C648 1.386 . S
C652 C647 1.490 . S
C652 C654 1.395 . S
C652 C655 1.403 . S
H653 C659 0.930 . S
C654 H640 0.930 . S
C654 C652 1.395 . S
C654 C657 1.403 . S
C655 C652 1.403 . S
C655 C656 1.524 . S
C655 C659 1.400 . S
C656 H641 0.960 . S
C656 H642 0.960 . S
C656 H643 0.960 . S
C656 C655 1.524 . S
C657 C654 1.403 . S
C657 C658 1.392 . S
C657 C661 1.495 . S
C658 C657 1.392 . S
C658 C659 1.385 . S
C658 C660 1.478 . S
C659 H653 0.930 . S
C659 C655 1.400 . S
C659 C658 1.385 . S
C660 C658 1.478 . S
C660 C662 1.381 . S
C660 C666 1.383 . S
C661 C657 1.495 . S
C661 H667 0.959 . S
C661 H668 0.961 . S
C661 H669 0.960 . S
C662 C660 1.381 . S
C662 C663 1.394 . S
C662 H670 0.930 . S
C663 C662 1.394 . S
C663 C664 1.383 . S
C663 H671 0.929 . S
C664 C663 1.383 . S
C664 C665 1.377 . S
C665 H649 0.930 . S
C665 C664 1.377 . S
C665 C666 1.379 . S
C666 H650 0.931 . S
C666 C660 1.383 . S
C666 C665 1.379 . S
H667 C661 0.959 . S
H668 C661 0.961 . S
H669 C661 0.960 . S
H670 C662 0.930 . S
H671 C663 0.929 . S
H672 C680 0.929 . S
H673 C682 0.930 . S
H674 C684 0.930 . S
H675 C687 0.929 . S
H676 C690 0.930 . S
H677 C692 0.960 1_655 S
H678 C692 0.960 . S
H679 C692 0.960 1_655 S
C680 H672 0.929 . S
C680 C681 1.377 . S
C680 C682 1.384 . S
C681 C680 1.377 . S
C681 C687 1.390 . S
C682 H673 0.930 . S
C682 C680 1.384 . S
C682 C683 1.372 . S
C683 C682 1.372 . S
C683 C684 1.400 . S
C683 C688 1.490 . S
C684 H674 0.930 . S
C684 C683 1.400 . S
C684 C687 1.386 . S
H685 C701 0.930 . S
H686 C702 0.931 . S
C687 H675 0.929 . S
C687 C681 1.390 . S
C687 C684 1.386 . S
C688 C683 1.490 . S
C688 C690 1.395 . S
C688 C691 1.403 . S
H689 C695 0.930 . S
C690 H676 0.930 . S
C690 C688 1.395 . S
C690 C693 1.403 . S
C691 C688 1.403 . S
C691 C692 1.524 . S
C691 C695 1.400 . S
C692 H677 0.960 1_455 S
C692 H678 0.960 . S
C692 H679 0.960 1_455 S
C692 C691 1.524 . S
C693 C690 1.403 . S
C693 C694 1.392 . S
C693 C697 1.495 . S
C694 C693 1.392 . S
C694 C695 1.385 . S
C694 C696 1.478 . S
C695 H689 0.930 . S
C695 C691 1.400 . S
C695 C694 1.385 . S
C696 C694 1.478 . S
C696 C698 1.381 . S
C696 C702 1.383 . S
C697 C693 1.495 . S
C697 H703 0.959 . S
C697 H704 0.961 . S
C697 H705 0.960 . S
C698 C696 1.381 . S
C698 C699 1.394 . S
C698 H706 0.930 . S
C699 C698 1.394 . S
C699 C700 1.383 . S
C699 H707 0.929 . S
C700 C699 1.383 . S
C700 C701 1.377 . S
C701 H685 0.930 . S
C701 C700 1.377 . S
C701 C702 1.379 . S
C702 H686 0.931 . S
C702 C696 1.383 . S
C702 C701 1.379 . S
H703 C697 0.959 . S
H704 C697 0.961 . S
H705 C697 0.960 . S
H706 C698 0.930 . S
H707 C699 0.929 . S
H708 C716 0.929 . S
H709 C718 0.930 . S
H710 C720 0.930 . S
H711 C723 0.929 . S
H712 C726 0.930 . S
H713 C728 0.960 . S
H714 C728 0.960 . S
H715 C728 0.960 . S
C716 H708 0.929 . S
C716 C717 1.377 . S
C716 C718 1.384 . S
C717 C716 1.377 . S
C717 C723 1.390 . S
C718 H709 0.930 . S
C718 C716 1.384 . S
C718 C719 1.372 . S
C719 C718 1.372 . S
C719 C720 1.400 . S
C719 C724 1.490 . S
C720 H710 0.930 . S
C720 C719 1.400 . S
C720 C723 1.386 . S
H721 C737 0.930 . S
H722 C738 0.931 . S
C723 H711 0.929 . S
C723 C717 1.390 . S
C723 C720 1.386 . S
C724 C719 1.490 . S
C724 C726 1.395 . S
C724 C727 1.403 . S
H725 C731 0.930 . S
C726 H712 0.930 . S
C726 C724 1.395 . S
C726 C729 1.403 . S
C727 C724 1.403 . S
C727 C728 1.524 . S
C727 C731 1.400 . S
C728 H713 0.960 . S
C728 H714 0.960 . S
C728 H715 0.960 . S
C728 C727 1.524 . S
C729 C726 1.403 . S
C729 C730 1.392 . S
C729 C733 1.495 . S
C730 C729 1.392 . S
C730 C731 1.385 . S
C730 C732 1.478 . S
C731 H725 0.930 . S
C731 C727 1.400 . S
C731 C730 1.385 . S
C732 C730 1.478 . S
C732 C734 1.381 . S
C732 C738 1.383 . S
C733 C729 1.495 . S
C733 H739 0.959 . S
C733 H740 0.961 . S
C733 H741 0.960 . S
C734 C732 1.381 . S
C734 C735 1.394 . S
C734 H742 0.930 . S
C735 C734 1.394 . S
C735 C736 1.383 . S
C735 H743 0.929 . S
C736 C735 1.383 . S
C736 C737 1.377 . S
C737 H721 0.930 . S
C737 C736 1.377 . S
C737 C738 1.379 . S
C738 H722 0.931 . S
C738 C732 1.383 . S
C738 C737 1.379 . S
H739 C733 0.959 . S
H740 C733 0.961 . S
H741 C733 0.960 . S
H742 C734 0.930 . S
H743 C735 0.929 . S
H744 C752 0.929 . S
H745 C754 0.930 . S
H746 C756 0.930 . S
H747 C759 0.929 . S
H748 C762 0.930 . S
H749 C764 0.960 . S
H750 C764 0.960 . S
H751 C764 0.960 . S
C752 H744 0.929 . S
C752 C753 1.377 1_554 S
C752 C754 1.384 . S
C753 C752 1.377 1_556 S
C753 C759 1.390 . S
C754 H745 0.930 . S
C754 C752 1.384 . S
C754 C755 1.372 . S
C755 C754 1.372 . S
C755 C756 1.400 . S
C755 C760 1.490 . S
C756 H746 0.930 . S
C756 C755 1.400 . S
C756 C759 1.386 1_554 S
H757 C773 0.930 . S
H758 C774 0.931 . S
C759 H747 0.929 . S
C759 C753 1.390 . S
C759 C756 1.386 1_556 S
C760 C755 1.490 . S
C760 C762 1.395 . S
C760 C763 1.403 . S
H761 C767 0.930 . S
C762 H748 0.930 . S
C762 C760 1.395 . S
C762 C765 1.403 . S
C763 C760 1.403 . S
C763 C764 1.524 . S
C763 C767 1.400 . S
C764 H749 0.960 . S
C764 H750 0.960 . S
C764 H751 0.960 . S
C764 C763 1.524 . S
C765 C762 1.403 . S
C765 C766 1.392 . S
C765 C769 1.495 . S
C766 C765 1.392 . S
C766 C767 1.385 . S
C766 C768 1.478 . S
C767 H761 0.930 . S
C767 C763 1.400 . S
C767 C766 1.385 . S
C768 C766 1.478 . S
C768 C770 1.381 . S
C768 C774 1.383 . S
C769 C765 1.495 . S
C769 H775 0.959 . S
C769 H776 0.961 . S
C769 H777 0.960 . S
C770 C768 1.381 . S
C770 C771 1.394 . S
C770 H778 0.930 . S
C771 C770 1.394 . S
C771 C772 1.383 . S
C771 H779 0.929 . S
C772 C771 1.383 . S
C772 C773 1.377 . S
C773 H757 0.930 . S
C773 C772 1.377 . S
C773 C774 1.379 . S
C774 H758 0.931 . S
C774 C768 1.383 . S
C774 C773 1.379 . S
H775 C769 0.959 . S
H776 C769 0.961 . S
H777 C769 0.960 . S
H778 C770 0.930 . S
H779 C771 0.929 . S
H780 C788 0.929 . S
H781 C790 0.930 . S
H782 C792 0.930 . S
H783 C795 0.929 . S
H784 C798 0.930 . S
H785 C800 0.960 . S
H786 C800 0.960 . S
H787 C800 0.960 . S
C788 H780 0.929 . S
C788 C789 1.377 . S
C788 C790 1.384 . S
C789 C788 1.377 . S
C789 C795 1.390 . S
C790 H781 0.930 . S
C790 C788 1.384 . S
C790 C791 1.372 . S
C791 C790 1.372 . S
C791 C792 1.400 . S
C791 C796 1.490 . S
C792 H782 0.930 . S
C792 C791 1.400 . S
C792 C795 1.386 . S
H793 C809 0.930 . S
H794 C810 0.931 . S
C795 H783 0.929 . S
C795 C789 1.390 . S
C795 C792 1.386 . S
C796 C791 1.490 . S
C796 C798 1.395 . S
C796 C799 1.403 . S
H797 C803 0.930 . S
C798 H784 0.930 . S
C798 C796 1.395 . S
C798 C801 1.403 . S
C799 C796 1.403 . S
C799 C800 1.524 . S
C799 C803 1.400 . S
C800 H785 0.960 . S
C800 H786 0.960 . S
C800 H787 0.960 . S
C800 C799 1.524 . S
C801 C798 1.403 . S
C801 C802 1.392 . S
C801 C805 1.495 . S
C802 C801 1.392 . S
C802 C803 1.385 . S
C802 C804 1.478 . S
C803 H797 0.930 . S
C803 C799 1.400 . S
C803 C802 1.385 . S
C804 C802 1.478 . S
C804 C806 1.381 . S
C804 C810 1.383 . S
C805 C801 1.495 . S
C805 H811 0.959 . S
C805 H812 0.961 . S
C805 H813 0.960 . S
C806 C804 1.381 . S
C806 C807 1.394 . S
C806 H814 0.930 . S
C807 C806 1.394 . S
C807 C808 1.383 . S
C807 H815 0.929 . S
C808 C807 1.383 . S
C808 C809 1.377 . S
C809 H793 0.930 . S
C809 C808 1.377 . S
C809 C810 1.379 . S
C810 H794 0.931 . S
C810 C804 1.383 . S
C810 C809 1.379 . S
H811 C805 0.959 . S
H812 C805 0.961 . S
H813 C805 0.960 . S
H814 C806 0.930 . S
H815 C807 0.929 . S
H816 C824 0.929 . S
H817 C826 0.930 . S
H818 C828 0.930 . S
H819 C831 0.929 1_565 S
H820 C834 0.930 . S
H821 C836 0.960 . S
H822 C836 0.960 . S
H823 C836 0.960 . S
C824 H816 0.929 . S
C824 C825 1.377 . S
C824 C826 1.384 1_455 S
C825 C824 1.377 . S
C825 C831 1.390 . S
C826 H817 0.930 . S
C826 C824 1.384 1_655 S
C826 C827 1.372 . S
C827 C826 1.372 . S
C827 C828 1.400 . S
C827 C832 1.490 . S
C828 H818 0.930 . S
C828 C827 1.400 . S
C828 C831 1.386 1_655 S
H829 C845 0.930 . S
H830 C846 0.931 . S
C831 H819 0.929 1_545 S
C831 C825 1.390 . S
C831 C828 1.386 1_455 S
C832 C827 1.490 . S
C832 C834 1.395 . S
C832 C835 1.403 . S
H833 C839 0.930 . S
C834 H820 0.930 . S
C834 C832 1.395 . S
C834 C837 1.403 . S
C835 C832 1.403 . S
C835 C836 1.524 . S
C835 C839 1.400 . S
C836 H821 0.960 . S
C836 H822 0.960 . S
C836 H823 0.960 . S
C836 C835 1.524 . S
C837 C834 1.403 . S
C837 C838 1.392 . S
C837 C841 1.495 . S
C838 C837 1.392 . S
C838 C839 1.385 . S
C838 C840 1.478 . S
C839 H833 0.930 . S
C839 C835 1.400 . S
C839 C838 1.385 . S
C840 C838 1.478 . S
C840 C842 1.381 . S
C840 C846 1.383 . S
C841 C837 1.495 . S
C841 H847 0.959 . S
C841 H848 0.961 . S
C841 H849 0.960 . S
C842 C840 1.381 . S
C842 C843 1.394 . S
C842 H850 0.930 . S
C843 C842 1.394 . S
C843 C844 1.383 . S
C843 H851 0.929 . S
C844 C843 1.383 . S
C844 C845 1.377 . S
C845 H829 0.930 . S
C845 C844 1.377 . S
C845 C846 1.379 . S
C846 H830 0.931 . S
C846 C840 1.383 . S
C846 C845 1.379 . S
H847 C841 0.959 . S
H848 C841 0.961 . S
H849 C841 0.960 . S
H850 C842 0.930 . S
H851 C843 0.929 . S
H852 C860 0.929 . S
H853 C862 0.930 . S
H854 C864 0.930 . S
H855 C867 0.929 . S
H856 C870 0.930 . S
H857 C872 0.960 . S
H858 C872 0.960 . S
H859 C872 0.960 . S
C860 H852 0.929 . S
C860 C861 1.377 . S
C860 C862 1.384 . S
C861 C860 1.377 . S
C861 C867 1.390 . S
C862 H853 0.930 . S
C862 C860 1.384 . S
C862 C863 1.372 . S
C863 C862 1.372 . S
C863 C864 1.400 . S
C863 C868 1.490 . S
C864 H854 0.930 . S
C864 C863 1.400 . S
C864 C867 1.386 . S
H865 C881 0.930 . S
H866 C882 0.931 . S
C867 H855 0.929 . S
C867 C861 1.390 . S
C867 C864 1.386 . S
C868 C863 1.490 . S
C868 C870 1.395 . S
C868 C871 1.403 . S
H869 C875 0.930 . S
C870 H856 0.930 . S
C870 C868 1.395 . S
C870 C873 1.403 . S
C871 C868 1.403 . S
C871 C872 1.524 . S
C871 C875 1.400 . S
C872 H857 0.960 . S
C872 H858 0.960 . S
C872 H859 0.960 . S
C872 C871 1.524 . S
C873 C870 1.403 . S
C873 C874 1.392 . S
C873 C877 1.495 . S
C874 C873 1.392 . S
C874 C875 1.385 . S
C874 C876 1.478 . S
C875 H869 0.930 . S
C875 C871 1.400 . S
C875 C874 1.385 . S
C876 C874 1.478 . S
C876 C878 1.381 . S
C876 C882 1.383 . S
C877 C873 1.495 . S
C877 H883 0.959 . S
C877 H884 0.961 . S
C877 H885 0.960 . S
C878 C876 1.381 . S
C878 C879 1.394 . S
C878 H886 0.930 . S
C879 C878 1.394 . S
C879 C880 1.383 . S
C879 H887 0.929 . S
C880 C879 1.383 . S
C880 C881 1.377 . S
C881 H865 0.930 . S
C881 C880 1.377 . S
C881 C882 1.379 . S
C882 H866 0.931 . S
C882 C876 1.383 . S
C882 C881 1.379 . S
H883 C877 0.959 . S
H884 C877 0.961 . S
H885 C877 0.960 . S
H886 C878 0.930 . S
H887 C879 0.929 . S
H888 C896 0.929 . S
H889 C898 0.930 . S
H890 C900 0.930 . S
H891 C903 0.929 . S
H892 C906 0.930 . S
H893 C908 0.960 . S
H894 C908 0.960 . S
H895 C908 0.960 . S
C896 H888 0.929 . S
C896 C897 1.377 . S
C896 C898 1.384 . S
C897 C896 1.377 . S
C897 C903 1.390 . S
C898 H889 0.930 . S
C898 C896 1.384 . S
C898 C899 1.372 . S
C899 C898 1.372 . S
C899 C900 1.400 . S
C899 C904 1.490 . S
C900 H890 0.930 . S
C900 C899 1.400 . S
C900 C903 1.386 . S
H901 C917 0.930 . S
H902 C918 0.931 . S
C903 H891 0.929 . S
C903 C897 1.390 . S
C903 C900 1.386 . S
C904 C899 1.490 . S
C904 C906 1.395 . S
C904 C907 1.403 . S
H905 C911 0.930 . S
C906 H892 0.930 . S
C906 C904 1.395 . S
C906 C909 1.403 . S
C907 C904 1.403 . S
C907 C908 1.524 . S
C907 C911 1.400 . S
C908 H893 0.960 . S
C908 H894 0.960 . S
C908 H895 0.960 . S
C908 C907 1.524 . S
C909 C906 1.403 . S
C909 C910 1.392 . S
C909 C913 1.495 . S
C910 C909 1.392 . S
C910 C911 1.385 . S
C910 C912 1.478 . S
C911 H905 0.930 . S
C911 C907 1.400 . S
C911 C910 1.385 . S
C912 C910 1.478 . S
C912 C914 1.381 . S
C912 C918 1.383 . S
C913 C909 1.495 . S
C913 H919 0.959 1_565 S
C913 H920 0.959 1_565 S
C913 H921 0.960 . S
C914 C912 1.381 . S
C914 C915 1.394 . S
C914 H922 0.930 . S
C915 C914 1.394 . S
C915 C916 1.383 . S
C915 H923 0.929 . S
C916 C915 1.383 . S
C916 C917 1.377 . S
C917 H901 0.930 . S
C917 C916 1.377 . S
C917 C918 1.379 . S
C918 H902 0.931 . S
C918 C912 1.383 . S
C918 C917 1.379 . S
H919 C913 0.959 1_545 S
H920 C913 0.959 1_545 S
H921 C913 0.960 . S
H922 C914 0.930 . S
H923 C915 0.929 . S
H924 C932 0.929 . S
H925 C934 0.930 . S
H926 C936 0.930 . S
H927 C939 0.929 . S
H928 C942 0.930 . S
H929 C944 0.960 . S
H930 C944 0.960 . S
H931 C944 0.960 . S
C932 H924 0.929 . S
C932 C933 1.377 . S
C932 C934 1.384 . S
C933 C932 1.377 . S
C933 C939 1.390 . S
C934 H925 0.930 . S
C934 C932 1.384 . S
C934 C935 1.372 . S
C935 C934 1.372 . S
C935 C936 1.400 . S
C935 C940 1.490 . S
C936 H926 0.930 . S
C936 C935 1.400 . S
C936 C939 1.386 . S
H937 C953 0.930 . S
H938 C954 0.931 . S
C939 H927 0.929 . S
C939 C933 1.390 . S
C939 C936 1.386 . S
C940 C935 1.490 . S
C940 C942 1.395 . S
C940 C943 1.403 . S
H941 C947 0.930 . S
C942 H928 0.930 . S
C942 C940 1.395 . S
C942 C945 1.403 . S
C943 C940 1.403 . S
C943 C944 1.524 . S
C943 C947 1.400 . S
C944 H929 0.960 . S
C944 H930 0.960 . S
C944 H931 0.960 . S
C944 C943 1.524 . S
C945 C942 1.403 . S
C945 C946 1.392 . S
C945 C949 1.495 . S
C946 C945 1.392 . S
C946 C947 1.385 . S
C946 C948 1.478 . S
C947 H941 0.930 . S
C947 C943 1.400 . S
C947 C946 1.385 . S
C948 C946 1.478 . S
C948 C950 1.381 . S
C948 C954 1.383 . S
C949 C945 1.495 . S
C949 H955 0.959 . S
C949 H956 0.961 . S
C949 H957 0.960 . S
C950 C948 1.381 . S
C950 C951 1.394 . S
C950 H958 0.930 . S
C951 C950 1.394 . S
C951 C952 1.383 . S
C951 H959 0.929 . S
C952 C951 1.383 . S
C952 C953 1.377 . S
C953 H937 0.930 . S
C953 C952 1.377 . S
C953 C954 1.379 . S
C954 H938 0.931 . S
C954 C948 1.383 . S
C954 C953 1.379 . S
H955 C949 0.959 . S
H956 C949 0.961 . S
H957 C949 0.960 . S
H958 C950 0.930 . S
H959 C951 0.929 . S
H960 C968 0.929 . S
H961 C970 0.930 . S
H962 C972 0.930 1_655 S
H963 C975 0.929 1_545 S
H964 C978 0.930 . S
H965 C980 0.960 1_545 S
H966 C980 0.960 1_455 S
H967 C980 0.960 1_545 S
C968 H960 0.929 . S
C968 C969 1.377 . S
C968 C970 1.384 . S
C969 C968 1.377 . S
C969 C975 1.390 . S
C970 H961 0.930 . S
C970 C968 1.384 . S
C970 C971 1.372 . S
C971 C970 1.372 . S
C971 C972 1.400 . S
C971 C976 1.490 1_455 S
C972 H962 0.930 1_455 S
C972 C971 1.400 . S
C972 C975 1.386 . S
H973 C989 0.930 . S
H974 C990 0.931 . S
C975 H963 0.929 1_565 S
C975 C969 1.390 . S
C975 C972 1.386 . S
C976 C971 1.490 1_655 S
C976 C978 1.395 . S
C976 C979 1.403 . S
H977 C983 0.930 . S
C978 H964 0.930 . S
C978 C976 1.395 . S
C978 C981 1.403 . S
C979 C976 1.403 . S
C979 C980 1.524 . S
C979 C983 1.400 . S
C980 H965 0.960 1_565 S
C980 H966 0.960 1_655 S
C980 H967 0.960 1_565 S
C980 C979 1.524 . S
C981 C978 1.403 . S
C981 C982 1.392 . S
C981 C985 1.495 . S
C982 C981 1.392 . S
C982 C983 1.385 . S
C982 C984 1.478 . S
C983 H977 0.930 . S
C983 C979 1.400 . S
C983 C982 1.385 . S
C984 C982 1.478 . S
C984 C986 1.381 . S
C984 C990 1.383 . S
C985 C981 1.495 . S
C985 H991 0.959 . S
C985 H992 0.961 . S
C985 H993 0.960 . S
C986 C984 1.381 . S
C986 C987 1.394 . S
C986 H994 0.930 . S
C987 C986 1.394 . S
C987 C988 1.383 . S
C987 H995 0.929 . S
C988 C987 1.383 . S
C988 C989 1.377 . S
C989 H973 0.930 . S
C989 C988 1.377 . S
C989 C990 1.379 . S
C990 H974 0.931 . S
C990 C984 1.383 . S
C990 C989 1.379 . S
H991 C985 0.959 . S
H992 C985 0.961 . S
H993 C985 0.960 . S
H994 C986 0.930 . S
H995 C987 0.929 . S
H996 C1004 0.929 . S
H997 C1006 0.930 . S
H998 C1008 0.930 . S
H999 C1011 0.929 . S
H1000 C1014 0.930 . S
H1001 C1016 0.960 . S
H1002 C1016 0.960 . S
H1003 C1016 0.960 . S
C1004 H996 0.929 . S
C1004 C1005 1.377 . S
C1004 C1006 1.384 . S
C1005 C1004 1.377 . S
C1005 C1011 1.390 . S
C1006 H997 0.930 . S
C1006 C1004 1.384 . S
C1006 C1007 1.372 . S
C1007 C1006 1.372 . S
C1007 C1008 1.400 . S
C1007 C1012 1.490 . S
C1008 H998 0.930 . S
C1008 C1007 1.400 . S
C1008 C1011 1.386 . S
H1009 C1025 0.930 . S
H1010 C1026 0.931 . S
C1011 H999 0.929 . S
C1011 C1005 1.390 . S
C1011 C1008 1.386 . S
C1012 C1007 1.490 . S
C1012 C1014 1.395 . S
C1012 C1015 1.403 . S
H1013 C1019 0.930 . S
C1014 H1000 0.930 . S
C1014 C1012 1.395 . S
C1014 C1017 1.403 . S
C1015 C1012 1.403 . S
C1015 C1016 1.524 . S
C1015 C1019 1.400 . S
C1016 H1001 0.960 . S
C1016 H1002 0.960 . S
C1016 H1003 0.960 . S
C1016 C1015 1.524 . S
C1017 C1014 1.403 . S
C1017 C1018 1.392 . S
C1017 C1021 1.495 . S
C1018 C1017 1.392 . S
C1018 C1019 1.385 . S
C1018 C1020 1.478 . S
C1019 H1013 0.930 . S
C1019 C1015 1.400 . S
C1019 C1018 1.385 . S
C1020 C1018 1.478 . S
C1020 C1022 1.381 . S
C1020 C1026 1.383 . S
C1021 C1017 1.495 . S
C1021 H1027 0.959 . S
C1021 H1028 0.961 . S
C1021 H1029 0.960 . S
C1022 C1020 1.381 . S
C1022 C1023 1.394 . S
C1022 H1030 0.930 . S
C1023 C1022 1.394 . S
C1023 C1024 1.383 . S
C1023 H1031 0.929 . S
C1024 C1023 1.383 . S
C1024 C1025 1.377 . S
C1025 H1009 0.930 . S
C1025 C1024 1.377 . S
C1025 C1026 1.379 . S
C1026 H1010 0.931 . S
C1026 C1020 1.383 . S
C1026 C1025 1.379 . S
H1027 C1021 0.959 . S
H1028 C1021 0.961 . S
H1029 C1021 0.960 . S
H1030 C1022 0.930 . S
H1031 C1023 0.929 . S
H1032 C1040 0.929 1_565 S
H1033 C1042 0.930 . S
H1034 C1044 0.930 . S
H1035 C1047 0.929 . S
H1036 C1050 0.930 . S
H1037 C1052 0.960 . S
H1038 C1052 0.960 . S
H1039 C1052 0.960 . S
C1040 H1032 0.929 1_545 S
C1040 C1041 1.377 . S
C1040 C1042 1.384 . S
C1041 C1040 1.377 . S
C1041 C1047 1.390 . S
C1042 H1033 0.930 . S
C1042 C1040 1.384 . S
C1042 C1043 1.372 . S
C1043 C1042 1.372 . S
C1043 C1044 1.400 . S
C1043 C1048 1.490 . S
C1044 H1034 0.930 . S
C1044 C1043 1.400 . S
C1044 C1047 1.386 . S
H1045 C1061 0.930 . S
H1046 C1062 0.931 . S
C1047 H1035 0.929 . S
C1047 C1041 1.390 . S
C1047 C1044 1.386 . S
C1048 C1043 1.490 . S
C1048 C1050 1.395 . S
C1048 C1051 1.403 . S
H1049 C1055 0.930 . S
C1050 H1036 0.930 . S
C1050 C1048 1.395 . S
C1050 C1053 1.403 . S
C1051 C1048 1.403 . S
C1051 C1052 1.524 . S
C1051 C1055 1.400 . S
C1052 H1037 0.960 . S
C1052 H1038 0.960 . S
C1052 H1039 0.960 . S
C1052 C1051 1.524 . S
C1053 C1050 1.403 . S
C1053 C1054 1.392 . S
C1053 C1057 1.495 . S
C1054 C1053 1.392 . S
C1054 C1055 1.385 . S
C1054 C1056 1.478 . S
C1055 H1049 0.930 . S
C1055 C1051 1.400 . S
C1055 C1054 1.385 . S
C1056 C1054 1.478 . S
C1056 C1058 1.381 . S
C1056 C1062 1.383 . S
C1057 C1053 1.495 . S
C1057 H1063 0.959 . S
C1057 H1064 0.961 . S
C1057 H1065 0.960 . S
C1058 C1056 1.381 . S
C1058 C1059 1.394 . S
C1058 H1066 0.930 . S
C1059 C1058 1.394 . S
C1059 C1060 1.383 . S
C1059 H1067 0.929 . S
C1060 C1059 1.383 . S
C1060 C1061 1.377 . S
C1061 H1045 0.930 . S
C1061 C1060 1.377 . S
C1061 C1062 1.379 . S
C1062 H1046 0.931 . S
C1062 C1056 1.383 . S
C1062 C1061 1.379 . S
H1063 C1057 0.959 . S
H1064 C1057 0.961 . S
H1065 C1057 0.960 . S
H1066 C1058 0.930 . S
H1067 C1059 0.929 . S
H1068 C1076 0.929 . S
H1069 C1078 0.930 . S
H1070 C1080 0.930 . S
H1071 C1083 0.929 . S
H1072 C1086 0.930 . S
H1073 C1088 0.960 . S
H1074 C1088 0.960 . S
H1075 C1088 0.960 . S
C1076 H1068 0.929 . S
C1076 C1077 1.377 . S
C1076 C1078 1.384 . S
C1077 C1076 1.377 . S
C1077 C1083 1.390 . S
C1078 H1069 0.930 . S
C1078 C1076 1.384 . S
C1078 C1079 1.372 . S
C1079 C1078 1.372 . S
C1079 C1080 1.400 . S
C1079 C1084 1.490 . S
C1080 H1070 0.930 . S
C1080 C1079 1.400 . S
C1080 C1083 1.386 . S
H1081 C1097 0.930 . S
H1082 C1098 0.931 . S
C1083 H1071 0.929 . S
C1083 C1077 1.390 . S
C1083 C1080 1.386 . S
C1084 C1079 1.490 . S
C1084 C1086 1.395 . S
C1084 C1087 1.403 . S
H1085 C1091 0.930 . S
C1086 H1072 0.930 . S
C1086 C1084 1.395 . S
C1086 C1089 1.403 . S
C1087 C1084 1.403 . S
C1087 C1088 1.524 . S
C1087 C1091 1.400 . S
C1088 H1073 0.960 . S
C1088 H1074 0.960 . S
C1088 H1075 0.960 . S
C1088 C1087 1.524 . S
C1089 C1086 1.403 . S
C1089 C1090 1.392 . S
C1089 C1093 1.495 . S
C1090 C1089 1.392 . S
C1090 C1091 1.385 . S
C1090 C1092 1.478 . S
C1091 H1085 0.930 . S
C1091 C1087 1.400 . S
C1091 C1090 1.385 . S
C1092 C1090 1.478 . S
C1092 C1094 1.381 . S
C1092 C1098 1.383 . S
C1093 C1089 1.495 . S
C1093 H1099 0.959 . S
C1093 H1100 0.961 . S
C1093 H1101 0.960 . S
C1094 C1092 1.381 . S
C1094 C1095 1.394 . S
C1094 H1102 0.930 . S
C1095 C1094 1.394 . S
C1095 C1096 1.383 . S
C1095 H1103 0.929 . S
C1096 C1095 1.383 . S
C1096 C1097 1.377 . S
C1097 H1081 0.930 . S
C1097 C1096 1.377 . S
C1097 C1098 1.379 . S
C1098 H1082 0.931 . S
C1098 C1092 1.383 . S
C1098 C1097 1.379 . S
H1099 C1093 0.959 . S
H1100 C1093 0.961 . S
H1101 C1093 0.960 . S
H1102 C1094 0.930 . S
H1103 C1095 0.929 . S
H1104 C1112 0.929 . S
H1105 C1114 0.930 1_565 S
H1106 C1116 0.930 . S
H1107 C1119 0.929 . S
H1108 C1122 0.930 . S
H1109 C1124 0.960 . S
H1110 C1124 0.960 . S
H1111 C1124 0.960 . S
C1112 H1104 0.929 . S
C1112 C1113 1.377 . S
C1112 C1114 1.384 . S
C1113 C1112 1.377 . S
C1113 C1119 1.390 . S
C1114 H1105 0.930 1_545 S
C1114 C1112 1.384 . S
C1114 C1115 1.372 . S
C1115 C1114 1.372 . S
C1115 C1116 1.400 . S
C1115 C1120 1.490 1_545 S
C1116 H1106 0.930 . S
C1116 C1115 1.400 . S
C1116 C1119 1.386 . S
H1117 C1133 0.930 . S
H1118 C1134 0.931 . S
C1119 H1107 0.929 . S
C1119 C1113 1.390 . S
C1119 C1116 1.386 . S
C1120 C1115 1.490 1_565 S
C1120 C1122 1.395 . S
C1120 C1123 1.403 . S
H1121 C1127 0.930 . S
C1122 H1108 0.930 . S
C1122 C1120 1.395 . S
C1122 C1125 1.403 . S
C1123 C1120 1.403 . S
C1123 C1124 1.524 1_565 S
C1123 C1127 1.400 . S
C1124 H1109 0.960 . S
C1124 H1110 0.960 . S
C1124 H1111 0.960 . S
C1124 C1123 1.524 1_545 S
C1125 C1122 1.403 . S
C1125 C1126 1.392 . S
C1125 C1129 1.495 . S
C1126 C1125 1.392 . S
C1126 C1127 1.385 . S
C1126 C1128 1.478 . S
C1127 H1121 0.930 . S
C1127 C1123 1.400 . S
C1127 C1126 1.385 . S
C1128 C1126 1.478 . S
C1128 C1130 1.381 . S
C1128 C1134 1.383 . S
C1129 C1125 1.495 . S
C1129 H1135 0.959 . S
C1129 H1136 0.961 . S
C1129 H1137 0.960 . S
C1130 C1128 1.381 . S
C1130 C1131 1.394 . S
C1130 H1138 0.930 . S
C1131 C1130 1.394 . S
C1131 C1132 1.383 . S
C1131 H1139 0.929 . S
C1132 C1131 1.383 . S
C1132 C1133 1.377 . S
C1133 H1117 0.930 . S
C1133 C1132 1.377 . S
C1133 C1134 1.379 . S
C1134 H1118 0.931 . S
C1134 C1128 1.383 . S
C1134 C1133 1.379 . S
H1135 C1129 0.959 . S
H1136 C1129 0.961 . S
H1137 C1129 0.960 . S
H1138 C1130 0.930 . S
H1139 C1131 0.929 . S
H1140 C1148 0.929 . S
H1141 C1150 0.930 . S
H1142 C1152 0.930 . S
H1143 C1155 0.929 . S
H1144 C1158 0.930 . S
H1145 C1160 0.960 . S
H1146 C1160 0.960 1_554 S
H1147 C1160 0.960 . S
C1148 H1140 0.929 . S
C1148 C1149 1.377 . S
C1148 C1150 1.384 . S
C1149 C1148 1.377 . S
C1149 C1155 1.390 . S
C1150 H1141 0.930 . S
C1150 C1148 1.384 . S
C1150 C1151 1.372 . S
C1151 C1150 1.372 . S
C1151 C1152 1.400 . S
C1151 C1156 1.490 . S
C1152 H1142 0.930 . S
C1152 C1151 1.400 . S
C1152 C1155 1.386 . S
H1153 C1169 0.930 . S
H1154 C1170 0.931 . S
C1155 H1143 0.929 . S
C1155 C1149 1.390 . S
C1155 C1152 1.386 . S
C1156 C1151 1.490 . S
C1156 C1158 1.395 . S
C1156 C1159 1.403 . S
H1157 C1163 0.930 . S
C1158 H1144 0.930 . S
C1158 C1156 1.395 . S
C1158 C1161 1.403 . S
C1159 C1156 1.403 . S
C1159 C1160 1.524 . S
C1159 C1163 1.400 . S
C1160 H1145 0.960 . S
C1160 H1146 0.960 1_556 S
C1160 H1147 0.960 . S
C1160 C1159 1.524 . S
C1161 C1158 1.403 . S
C1161 C1162 1.392 . S
C1161 C1165 1.495 . S
C1162 C1161 1.392 . S
C1162 C1163 1.385 . S
C1162 C1164 1.478 . S
C1163 H1157 0.930 . S
C1163 C1159 1.400 . S
C1163 C1162 1.385 . S
C1164 C1162 1.478 . S
C1164 C1166 1.381 . S
C1164 C1170 1.383 . S
C1165 C1161 1.495 . S
C1165 H1171 0.959 . S
C1165 H1172 0.961 . S
C1165 H1173 0.960 . S
C1166 C1164 1.381 . S
C1166 C1167 1.394 . S
C1166 H1174 0.930 . S
C1167 C1166 1.394 . S
C1167 C1168 1.383 . S
C1167 H1175 0.929 . S
C1168 C1167 1.383 . S
C1168 C1169 1.377 . S
C1169 H1153 0.930 . S
C1169 C1168 1.377 . S
C1169 C1170 1.379 . S
C1170 H1154 0.931 . S
C1170 C1164 1.383 . S
C1170 C1169 1.379 . S
H1171 C1165 0.959 . S
H1172 C1165 0.961 . S
H1173 C1165 0.960 . S
H1174 C1166 0.930 . S
H1175 C1167 0.929 . S
H1176 C1184 0.929 . S
H1177 C1186 0.930 . S
H1178 C1188 0.930 . S
H1179 C1191 0.929 . S
H1180 C1194 0.930 . S
H1181 C1196 0.960 . S
H1182 C1196 0.960 . S
H1183 C1196 0.960 . S
C1184 H1176 0.929 . S
C1184 C1185 1.377 . S
C1184 C1186 1.384 . S
C1185 C1184 1.377 . S
C1185 C1191 1.390 . S
C1186 H1177 0.930 . S
C1186 C1184 1.384 . S
C1186 C1187 1.372 . S
C1187 C1186 1.372 . S
C1187 C1188 1.400 . S
C1187 C1192 1.490 . S
C1188 H1178 0.930 . S
C1188 C1187 1.400 . S
C1188 C1191 1.386 . S
H1189 C1205 0.930 . S
H1190 C1206 0.931 . S
C1191 H1179 0.929 . S
C1191 C1185 1.390 . S
C1191 C1188 1.386 . S
C1192 C1187 1.490 . S
C1192 C1194 1.395 . S
C1192 C1195 1.403 . S
H1193 C1199 0.930 . S
C1194 H1180 0.930 . S
C1194 C1192 1.395 . S
C1194 C1197 1.403 . S
C1195 C1192 1.403 . S
C1195 C1196 1.524 . S
C1195 C1199 1.400 . S
C1196 H1181 0.960 . S
C1196 H1182 0.960 . S
C1196 H1183 0.960 . S
C1196 C1195 1.524 . S
C1197 C1194 1.403 . S
C1197 C1198 1.392 . S
C1197 C1201 1.495 . S
C1198 C1197 1.392 . S
C1198 C1199 1.385 . S
C1198 C1200 1.478 . S
C1199 H1193 0.930 . S
C1199 C1195 1.400 . S
C1199 C1198 1.385 . S
C1200 C1198 1.478 . S
C1200 C1202 1.381 . S
C1200 C1206 1.383 . S
C1201 C1197 1.495 . S
C1201 H1207 0.959 . S
C1201 H1208 0.961 . S
C1201 H1209 0.960 . S
C1202 C1200 1.381 . S
C1202 C1203 1.394 . S
C1202 H1210 0.930 . S
C1203 C1202 1.394 . S
C1203 C1204 1.383 . S
C1203 H1211 0.929 . S
C1204 C1203 1.383 . S
C1204 C1205 1.377 . S
C1205 H1189 0.930 . S
C1205 C1204 1.377 . S
C1205 C1206 1.379 . S
C1206 H1190 0.931 . S
C1206 C1200 1.383 . S
C1206 C1205 1.379 . S
H1207 C1201 0.959 . S
H1208 C1201 0.961 . S
H1209 C1201 0.960 . S
H1210 C1202 0.930 . S
H1211 C1203 0.929 . S
H1212 C1220 0.929 . S
H1213 C1222 0.930 . S
H1214 C1224 0.930 . S
H1215 C1227 0.929 . S
H1216 C1230 0.930 . S
H1217 C1232 0.960 . S
H1218 C1232 0.960 . S
H1219 C1232 0.960 . S
C1220 H1212 0.929 . S
C1220 C1221 1.377 . S
C1220 C1222 1.384 . S
C1221 C1220 1.377 . S
C1221 C1227 1.390 . S
C1222 H1213 0.930 . S
C1222 C1220 1.384 . S
C1222 C1223 1.372 . S
C1223 C1222 1.372 . S
C1223 C1224 1.400 . S
C1223 C1228 1.490 . S
C1224 H1214 0.930 . S
C1224 C1223 1.400 . S
C1224 C1227 1.386 . S
H1225 C1241 0.930 . S
H1226 C1242 0.931 . S
C1227 H1215 0.929 . S
C1227 C1221 1.390 . S
C1227 C1224 1.386 . S
C1228 C1223 1.490 . S
C1228 C1230 1.395 . S
C1228 C1231 1.403 . S
H1229 C1235 0.930 . S
C1230 H1216 0.930 . S
C1230 C1228 1.395 . S
C1230 C1233 1.403 . S
C1231 C1228 1.403 . S
C1231 C1232 1.524 . S
C1231 C1235 1.400 . S
C1232 H1217 0.960 . S
C1232 H1218 0.960 . S
C1232 H1219 0.960 . S
C1232 C1231 1.524 . S
C1233 C1230 1.403 . S
C1233 C1234 1.392 . S
C1233 C1237 1.495 . S
C1234 C1233 1.392 . S
C1234 C1235 1.385 . S
C1234 C1236 1.478 . S
C1235 H1229 0.930 . S
C1235 C1231 1.400 . S
C1235 C1234 1.385 . S
C1236 C1234 1.478 . S
C1236 C1238 1.381 . S
C1236 C1242 1.383 . S
C1237 C1233 1.495 . S
C1237 H1243 0.959 . S
C1237 H1244 0.961 . S
C1237 H1245 0.960 . S
C1238 C1236 1.381 . S
C1238 C1239 1.394 . S
C1238 H1246 0.930 . S
C1239 C1238 1.394 . S
C1239 C1240 1.383 . S
C1239 H1247 0.929 . S
C1240 C1239 1.383 . S
C1240 C1241 1.377 . S
C1241 H1225 0.930 . S
C1241 C1240 1.377 . S
C1241 C1242 1.379 . S
C1242 H1226 0.931 . S
C1242 C1236 1.383 . S
C1242 C1241 1.379 . S
H1243 C1237 0.959 . S
H1244 C1237 0.961 . S
H1245 C1237 0.960 . S
H1246 C1238 0.930 . S
H1247 C1239 0.929 . S
H1248 C1256 0.929 . S
H1249 C1258 0.930 . S
H1250 C1260 0.930 . S
H1251 C1263 0.929 . S
H1252 C1266 0.930 . S
H1253 C1268 0.960 . S
H1254 C1268 0.960 . S
H1255 C1268 0.960 . S
C1256 H1248 0.929 . S
C1256 C1257 1.377 . S
C1256 C1258 1.384 . S
C1257 C1256 1.377 . S
C1257 C1263 1.390 . S
C1258 H1249 0.930 . S
C1258 C1256 1.384 . S
C1258 C1259 1.372 . S
C1259 C1258 1.372 . S
C1259 C1260 1.400 . S
C1259 C1264 1.490 . S
C1260 H1250 0.930 . S
C1260 C1259 1.400 . S
C1260 C1263 1.386 . S
H1261 C1277 0.930 . S
H1262 C1278 0.931 . S
C1263 H1251 0.929 . S
C1263 C1257 1.390 . S
C1263 C1260 1.386 . S
C1264 C1259 1.490 . S
C1264 C1266 1.395 . S
C1264 C1267 1.403 . S
H1265 C1271 0.930 . S
C1266 H1252 0.930 . S
C1266 C1264 1.395 . S
C1266 C1269 1.403 . S
C1267 C1264 1.403 . S
C1267 C1268 1.524 . S
C1267 C1271 1.400 . S
C1268 H1253 0.960 . S
C1268 H1254 0.960 . S
C1268 H1255 0.960 . S
C1268 C1267 1.524 . S
C1269 C1266 1.403 . S
C1269 C1270 1.392 . S
C1269 C1273 1.495 . S
C1270 C1269 1.392 . S
C1270 C1271 1.385 . S
C1270 C1272 1.478 . S
C1271 H1265 0.930 . S
C1271 C1267 1.400 . S
C1271 C1270 1.385 . S
C1272 C1270 1.478 . S
C1272 C1274 1.381 . S
C1272 C1278 1.383 . S
C1273 C1269 1.495 . S
C1273 H1279 0.959 . S
C1273 H1280 0.961 . S
C1273 H1281 0.960 . S
C1274 C1272 1.381 . S
C1274 C1275 1.394 . S
C1274 H1282 0.930 . S
C1275 C1274 1.394 . S
C1275 C1276 1.383 . S
C1275 H1283 0.929 . S
C1276 C1275 1.383 . S
C1276 C1277 1.377 . S
C1277 H1261 0.930 . S
C1277 C1276 1.377 . S
C1277 C1278 1.379 . S
C1278 H1262 0.931 . S
C1278 C1272 1.383 . S
C1278 C1277 1.379 . S
H1279 C1273 0.959 . S
H1280 C1273 0.961 . S
H1281 C1273 0.960 . S
H1282 C1274 0.930 . S
H1283 C1275 0.929 . S
H1284 C1292 0.929 1_565 S
H1285 C1294 0.930 . S
H1286 C1296 0.930 . S
H1287 C1299 0.929 . S
H1288 C1302 0.930 . S
H1289 C1304 0.960 . S
H1290 C1304 0.960 . S
H1291 C1304 0.960 . S
C1292 H1284 0.929 1_545 S
C1292 C1293 1.377 . S
C1292 C1294 1.384 . S
C1293 C1292 1.377 . S
C1293 C1299 1.390 . S
C1294 H1285 0.930 . S
C1294 C1292 1.384 . S
C1294 C1295 1.372 . S
C1295 C1294 1.372 . S
C1295 C1296 1.400 . S
C1295 C1300 1.490 . S
C1296 H1286 0.930 . S
C1296 C1295 1.400 . S
C1296 C1299 1.386 . S
H1297 C1313 0.930 . S
H1298 C1314 0.931 . S
C1299 H1287 0.929 . S
C1299 C1293 1.390 . S
C1299 C1296 1.386 . S
C1300 C1295 1.490 . S
C1300 C1302 1.395 . S
C1300 C1303 1.403 . S
H1301 C1307 0.930 . S
C1302 H1288 0.930 . S
C1302 C1300 1.395 . S
C1302 C1305 1.403 . S
C1303 C1300 1.403 . S
C1303 C1304 1.524 . S
C1303 C1307 1.400 . S
C1304 H1289 0.960 . S
C1304 H1290 0.960 . S
C1304 H1291 0.960 . S
C1304 C1303 1.524 . S
C1305 C1302 1.403 . S
C1305 C1306 1.392 . S
C1305 C1309 1.495 . S
C1306 C1305 1.392 . S
C1306 C1307 1.385 . S
C1306 C1308 1.478 . S
C1307 H1301 0.930 . S
C1307 C1303 1.400 . S
C1307 C1306 1.385 . S
C1308 C1306 1.478 . S
C1308 C1310 1.381 . S
C1308 C1314 1.383 . S
C1309 C1305 1.495 . S
C1309 H1315 0.959 . S
C1309 H1316 0.961 . S
C1309 H1317 0.960 . S
C1310 C1308 1.381 . S
C1310 C1311 1.394 . S
C1310 H1318 0.930 . S
C1311 C1310 1.394 . S
C1311 C1312 1.383 . S
C1311 H1319 0.929 . S
C1312 C1311 1.383 . S
C1312 C1313 1.377 . S
C1313 H1297 0.930 . S
C1313 C1312 1.377 . S
C1313 C1314 1.379 . S
C1314 H1298 0.931 . S
C1314 C1308 1.383 . S
C1314 C1313 1.379 . S
H1315 C1309 0.959 . S
H1316 C1309 0.961 . S
H1317 C1309 0.960 . S
H1318 C1310 0.930 . S
H1319 C1311 0.929 . S
H1320 C1328 0.929 . S
H1321 C1330 0.930 . S
H1322 C1332 0.930 . S
H1323 C1335 0.929 . S
H1324 C1338 0.930 . S
H1325 C1340 0.960 . S
H1326 C1340 0.960 . S
H1327 C1340 0.960 . S
C1328 H1320 0.929 . S
C1328 C1329 1.377 . S
C1328 C1330 1.384 . S
C1329 C1328 1.377 . S
C1329 C1335 1.390 . S
C1330 H1321 0.930 . S
C1330 C1328 1.384 . S
C1330 C1331 1.372 . S
C1331 C1330 1.372 . S
C1331 C1332 1.400 . S
C1331 C1336 1.490 . S
C1332 H1322 0.930 . S
C1332 C1331 1.400 . S
C1332 C1335 1.386 . S
H1333 C1349 0.930 . S
H1334 C1350 0.931 . S
C1335 H1323 0.929 . S
C1335 C1329 1.390 . S
C1335 C1332 1.386 . S
C1336 C1331 1.490 . S
C1336 C1338 1.395 . S
C1336 C1339 1.403 . S
H1337 C1343 0.930 . S
C1338 H1324 0.930 . S
C1338 C1336 1.395 . S
C1338 C1341 1.403 . S
C1339 C1336 1.403 . S
C1339 C1340 1.524 . S
C1339 C1343 1.400 . S
C1340 H1325 0.960 . S
C1340 H1326 0.960 . S
C1340 H1327 0.960 . S
C1340 C1339 1.524 . S
C1341 C1338 1.403 . S
C1341 C1342 1.392 . S
C1341 C1345 1.495 . S
C1342 C1341 1.392 . S
C1342 C1343 1.385 . S
C1342 C1344 1.478 . S
C1343 H1337 0.930 . S
C1343 C1339 1.400 . S
C1343 C1342 1.385 . S
C1344 C1342 1.478 . S
C1344 C1346 1.381 . S
C1344 C1350 1.383 . S
C1345 C1341 1.495 . S
C1345 H1351 0.959 . S
C1345 H1352 0.961 . S
C1345 H1353 0.960 . S
C1346 C1344 1.381 . S
C1346 C1347 1.394 . S
C1346 H1354 0.930 . S
C1347 C1346 1.394 . S
C1347 C1348 1.383 . S
C1347 H1355 0.929 . S
C1348 C1347 1.383 . S
C1348 C1349 1.377 . S
C1349 H1333 0.930 . S
C1349 C1348 1.377 . S
C1349 C1350 1.379 . S
C1350 H1334 0.931 . S
C1350 C1344 1.383 . S
C1350 C1349 1.379 . S
H1351 C1345 0.959 . S
H1352 C1345 0.961 . S
H1353 C1345 0.960 . S
H1354 C1346 0.930 . S
H1355 C1347 0.929 . S
H1356 C1364 0.929 . S
H1357 C1366 0.930 . S
H1358 C1368 0.930 . S
H1359 C1371 0.929 . S
H1360 C1374 0.930 . S
H1361 C1376 0.960 . S
H1362 C1376 0.960 . S
H1363 C1376 0.960 . S
C1364 H1356 0.929 . S
C1364 C1365 1.377 . S
C1364 C1366 1.384 . S
C1365 C1364 1.377 . S
C1365 C1371 1.390 . S
C1366 H1357 0.930 . S
C1366 C1364 1.384 . S
C1366 C1367 1.372 . S
C1367 C1366 1.372 . S
C1367 C1368 1.400 . S
C1367 C1372 1.490 . S
C1368 H1358 0.930 . S
C1368 C1367 1.400 . S
C1368 C1371 1.386 . S
H1369 C1385 0.930 . S
H1370 C1386 0.931 . S
C1371 H1359 0.929 . S
C1371 C1365 1.390 . S
C1371 C1368 1.386 . S
C1372 C1367 1.490 . S
C1372 C1374 1.395 . S
C1372 C1375 1.403 . S
H1373 C1379 0.930 . S
C1374 H1360 0.930 . S
C1374 C1372 1.395 . S
C1374 C1377 1.403 . S
C1375 C1372 1.403 . S
C1375 C1376 1.524 . S
C1375 C1379 1.400 . S
C1376 H1361 0.960 . S
C1376 H1362 0.960 . S
C1376 H1363 0.960 . S
C1376 C1375 1.524 . S
C1377 C1374 1.403 . S
C1377 C1378 1.392 . S
C1377 C1381 1.495 . S
C1378 C1377 1.392 . S
C1378 C1379 1.385 . S
C1378 C1380 1.478 . S
C1379 H1373 0.930 . S
C1379 C1375 1.400 . S
C1379 C1378 1.385 . S
C1380 C1378 1.478 . S
C1380 C1382 1.381 . S
C1380 C1386 1.383 . S
C1381 C1377 1.495 . S
C1381 H1387 0.959 . S
C1381 H1388 0.961 . S
C1381 H1389 0.960 . S
C1382 C1380 1.381 . S
C1382 C1383 1.394 . S
C1382 H1390 0.930 . S
C1383 C1382 1.394 . S
C1383 C1384 1.383 . S
C1383 H1391 0.929 . S
C1384 C1383 1.383 . S
C1384 C1385 1.377 . S
C1385 H1369 0.930 . S
C1385 C1384 1.377 . S
C1385 C1386 1.379 . S
C1386 H1370 0.931 . S
C1386 C1380 1.383 . S
C1386 C1385 1.379 . S
H1387 C1381 0.959 . S
H1388 C1381 0.961 . S
H1389 C1381 0.960 . S
H1390 C1382 0.930 . S
H1391 C1383 0.929 . S
H1392 C1400 0.929 . S
H1393 C1402 0.930 . S
H1394 C1404 0.930 . S
H1395 C1407 0.929 . S
H1396 C1410 0.930 . S
H1397 C1412 0.960 . S
H1398 C1412 0.960 . S
H1399 C1412 0.960 . S
C1400 H1392 0.929 . S
C1400 C1401 1.377 . S
C1400 C1402 1.384 . S
C1401 C1400 1.377 . S
C1401 C1407 1.390 . S
C1402 H1393 0.930 . S
C1402 C1400 1.384 . S
C1402 C1403 1.372 . S
C1403 C1402 1.372 . S
C1403 C1404 1.400 . S
C1403 C1408 1.490 . S
C1404 H1394 0.930 . S
C1404 C1403 1.400 . S
C1404 C1407 1.386 . S
H1405 C1421 0.930 1_545 S
H1406 C1422 0.931 . S
C1407 H1395 0.929 . S
C1407 C1401 1.390 . S
C1407 C1404 1.386 . S
C1408 C1403 1.490 . S
C1408 C1410 1.395 . S
C1408 C1411 1.403 . S
H1409 C1415 0.930 . S
C1410 H1396 0.930 . S
C1410 C1408 1.395 . S
C1410 C1413 1.403 . S
C1411 C1408 1.403 . S
C1411 C1412 1.524 . S
C1411 C1415 1.400 . S
C1412 H1397 0.960 . S
C1412 H1398 0.960 . S
C1412 H1399 0.960 . S
C1412 C1411 1.524 . S
C1413 C1410 1.403 . S
C1413 C1414 1.392 . S
C1413 C1417 1.495 . S
C1414 C1413 1.392 . S
C1414 C1415 1.385 . S
C1414 C1416 1.478 . S
C1415 H1409 0.930 . S
C1415 C1411 1.400 . S
C1415 C1414 1.385 . S
C1416 C1414 1.478 . S
C1416 C1418 1.381 . S
C1416 C1422 1.383 . S
C1417 C1413 1.495 . S
C1417 H1423 0.959 . S
C1417 H1424 0.961 . S
C1417 H1425 0.960 . S
C1418 C1416 1.381 . S
C1418 C1419 1.394 . S
C1418 H1426 0.930 . S
C1419 C1418 1.394 . S
C1419 C1420 1.383 . S
C1419 H1427 0.929 . S
C1420 C1419 1.383 . S
C1420 C1421 1.377 . S
C1421 H1405 0.930 1_565 S
C1421 C1420 1.377 . S
C1421 C1422 1.379 . S
C1422 H1406 0.931 . S
C1422 C1416 1.383 . S
C1422 C1421 1.379 . S
H1423 C1417 0.959 . S
H1424 C1417 0.961 . S
H1425 C1417 0.960 . S
H1426 C1418 0.930 . S
H1427 C1419 0.929 . S
H1428 C1436 0.929 . S
H1429 C1438 0.930 . S
H1430 C1440 0.930 . S
H1431 C1443 0.929 . S
H1432 C1446 0.930 . S
H1433 C1448 0.960 . S
H1434 C1448 0.960 . S
H1435 C1448 0.960 . S
C1436 H1428 0.929 . S
C1436 C1437 1.377 . S
C1436 C1438 1.384 . S
C1437 C1436 1.377 . S
C1437 C1443 1.390 . S
C1438 H1429 0.930 . S
C1438 C1436 1.384 . S
C1438 C1439 1.372 . S
C1439 C1438 1.372 . S
C1439 C1440 1.400 . S
C1439 C1444 1.490 . S
C1440 H1430 0.930 . S
C1440 C1439 1.400 . S
C1440 C1443 1.386 . S
H1441 C1457 0.930 . S
H1442 C1458 0.931 . S
C1443 H1431 0.929 . S
C1443 C1437 1.390 . S
C1443 C1440 1.386 . S
C1444 C1439 1.490 . S
C1444 C1446 1.395 . S
C1444 C1447 1.403 . S
H1445 C1451 0.930 . S
C1446 H1432 0.930 . S
C1446 C1444 1.395 . S
C1446 C1449 1.403 . S
C1447 C1444 1.403 . S
C1447 C1448 1.524 . S
C1447 C1451 1.400 . S
C1448 H1433 0.960 . S
C1448 H1434 0.960 . S
C1448 H1435 0.960 . S
C1448 C1447 1.524 . S
C1449 C1446 1.403 . S
C1449 C1450 1.392 . S
C1449 C1453 1.495 . S
C1450 C1449 1.392 . S
C1450 C1451 1.385 . S
C1450 C1452 1.478 . S
C1451 H1445 0.930 . S
C1451 C1447 1.400 . S
C1451 C1450 1.385 . S
C1452 C1450 1.478 . S
C1452 C1454 1.381 . S
C1452 C1458 1.383 . S
C1453 C1449 1.495 . S
C1453 H1459 0.959 . S
C1453 H1460 0.961 . S
C1453 H1461 0.960 . S
C1454 C1452 1.381 . S
C1454 C1455 1.394 . S
C1454 H1462 0.930 . S
C1455 C1454 1.394 . S
C1455 C1456 1.383 . S
C1455 H1463 0.929 . S
C1456 C1455 1.383 . S
C1456 C1457 1.377 . S
C1457 H1441 0.930 . S
C1457 C1456 1.377 . S
C1457 C1458 1.379 . S
C1458 H1442 0.931 . S
C1458 C1452 1.383 . S
C1458 C1457 1.379 . S
H1459 C1453 0.959 . S
H1460 C1453 0.961 . S
H1461 C1453 0.960 . S
H1462 C1454 0.930 . S
H1463 C1455 0.929 . S
H1464 C1472 0.929 . S
H1465 C1474 0.930 1_556 S
H1466 C1476 0.930 . S
H1467 C1479 0.929 . S
H1468 C1482 0.930 . S
H1469 C1484 0.960 . S
H1470 C1484 0.960 . S
H1471 C1484 0.960 1_554 S
C1472 H1464 0.929 . S
C1472 C1473 1.377 . S
C1472 C1474 1.384 . S
C1473 C1472 1.377 . S
C1473 C1479 1.390 . S
C1474 H1465 0.930 1_554 S
C1474 C1472 1.384 . S
C1474 C1475 1.372 . S
C1475 C1474 1.372 . S
C1475 C1476 1.400 . S
C1475 C1480 1.490 1_554 S
C1476 H1466 0.930 . S
C1476 C1475 1.400 . S
C1476 C1479 1.386 . S
H1477 C1493 0.930 . S
H1478 C1494 0.931 . S
C1479 H1467 0.929 . S
C1479 C1473 1.390 . S
C1479 C1476 1.386 . S
C1480 C1475 1.490 1_556 S
C1480 C1482 1.395 . S
C1480 C1483 1.403 . S
H1481 C1487 0.930 . S
C1482 H1468 0.930 . S
C1482 C1480 1.395 . S
C1482 C1485 1.403 . S
C1483 C1480 1.403 . S
C1483 C1484 1.524 . S
C1483 C1487 1.400 . S
C1484 H1469 0.960 . S
C1484 H1470 0.960 . S
C1484 H1471 0.960 1_556 S
C1484 C1483 1.524 . S
C1485 C1482 1.403 . S
C1485 C1486 1.392 . S
C1485 C1489 1.504 . S
C1486 C1485 1.392 . S
C1486 C1487 1.385 . S
C1486 C1488 1.478 . S
C1487 H1481 0.930 . S
C1487 C1483 1.400 . S
C1487 C1486 1.385 . S
C1488 C1486 1.478 . S
C1488 C1490 1.381 . S
C1488 C1494 1.383 . S
C1489 C1485 1.504 . S
C1489 H1495 0.952 1_655 S
C1489 H1496 0.954 1_655 S
C1489 H1497 0.966 . S
C1490 C1488 1.381 . S
C1490 C1491 1.394 . S
C1490 H1498 0.930 . S
C1491 C1490 1.394 . S
C1491 C1492 1.383 . S
C1491 H1499 0.929 . S
C1492 C1491 1.383 . S
C1492 C1493 1.377 . S
C1493 H1477 0.930 . S
C1493 C1492 1.377 . S
C1493 C1494 1.379 . S
C1494 H1478 0.931 . S
C1494 C1488 1.383 . S
C1494 C1493 1.379 . S
H1495 C1489 0.952 1_455 S
H1496 C1489 0.954 1_455 S
H1497 C1489 0.966 . S
H1498 C1490 0.930 . S
H1499 C1491 0.929 . S
H1500 C1508 0.929 . S
H1501 C1510 0.930 . S
H1502 C1512 0.930 . S
H1503 C1515 0.929 . S
H1504 C1518 0.930 . S
H1505 C1520 0.960 . S
H1506 C1520 0.960 . S
H1507 C1520 0.960 . S
C1508 H1500 0.929 . S
C1508 C1509 1.377 . S
C1508 C1510 1.384 . S
C1509 C1508 1.377 . S
C1509 C1515 1.390 . S
C1510 H1501 0.930 . S
C1510 C1508 1.384 . S
C1510 C1511 1.372 . S
C1511 C1510 1.372 . S
C1511 C1512 1.400 . S
C1511 C1516 1.490 . S
C1512 H1502 0.930 . S
C1512 C1511 1.400 . S
C1512 C1515 1.386 . S
H1513 C1529 0.930 . S
H1514 C1530 0.931 . S
C1515 H1503 0.929 . S
C1515 C1509 1.390 . S
C1515 C1512 1.386 . S
C1516 C1511 1.490 . S
C1516 C1518 1.395 . S
C1516 C1519 1.403 . S
H1517 C1523 0.930 . S
C1518 H1504 0.930 . S
C1518 C1516 1.395 . S
C1518 C1521 1.403 . S
C1519 C1516 1.403 . S
C1519 C1520 1.524 . S
C1519 C1523 1.400 . S
C1520 H1505 0.960 . S
C1520 H1506 0.960 . S
C1520 H1507 0.960 . S
C1520 C1519 1.524 . S
C1521 C1518 1.403 . S
C1521 C1522 1.392 . S
C1521 C1525 1.495 . S
C1522 C1521 1.392 . S
C1522 C1523 1.385 . S
C1522 C1524 1.478 . S
C1523 H1517 0.930 . S
C1523 C1519 1.400 . S
C1523 C1522 1.385 . S
C1524 C1522 1.478 . S
C1524 C1526 1.381 . S
C1524 C1530 1.383 . S
C1525 C1521 1.495 . S
C1525 H1531 0.959 . S
C1525 H1532 0.961 . S
C1525 H1533 0.960 . S
C1526 C1524 1.381 . S
C1526 C1527 1.394 . S
C1526 H1534 0.930 . S
C1527 C1526 1.394 . S
C1527 C1528 1.383 . S
C1527 H1535 0.929 . S
C1528 C1527 1.383 . S
C1528 C1529 1.377 . S
C1529 H1513 0.930 . S
C1529 C1528 1.377 . S
C1529 C1530 1.379 . S
C1530 H1514 0.931 . S
C1530 C1524 1.383 . S
C1530 C1529 1.379 . S
H1531 C1525 0.959 . S
H1532 C1525 0.961 . S
H1533 C1525 0.960 . S
H1534 C1526 0.930 . S
H1535 C1527 0.929 . S
H1536 C1544 0.929 . S
H1537 C1546 0.930 . S
H1538 C1548 0.930 . S
H1539 C1551 0.929 . S
H1540 C1554 0.930 . S
H1541 C1556 0.960 . S
H1542 C1556 0.960 . S
H1543 C1556 0.960 . S
C1544 H1536 0.929 . S
C1544 C1545 1.377 . S
C1544 C1546 1.384 . S
C1545 C1544 1.377 . S
C1545 C1551 1.390 . S
C1546 H1537 0.930 . S
C1546 C1544 1.384 . S
C1546 C1547 1.372 1_556 S
C1547 C1546 1.372 1_554 S
C1547 C1548 1.400 . S
C1547 C1552 1.490 . S
C1548 H1538 0.930 . S
C1548 C1547 1.400 . S
C1548 C1551 1.386 1_554 S
H1549 C1565 0.930 . S
H1550 C1566 0.931 . S
C1551 H1539 0.929 . S
C1551 C1545 1.390 . S
C1551 C1548 1.386 1_556 S
C1552 C1547 1.490 . S
C1552 C1554 1.395 . S
C1552 C1555 1.403 . S
H1553 C1559 0.930 . S
C1554 H1540 0.930 . S
C1554 C1552 1.395 . S
C1554 C1557 1.403 . S
C1555 C1552 1.403 . S
C1555 C1556 1.524 . S
C1555 C1559 1.400 . S
C1556 H1541 0.960 . S
C1556 H1542 0.960 . S
C1556 H1543 0.960 . S
C1556 C1555 1.524 . S
C1557 C1554 1.403 . S
C1557 C1558 1.392 . S
C1557 C1561 1.495 . S
C1558 C1557 1.392 . S
C1558 C1559 1.385 . S
C1558 C1560 1.478 . S
C1559 H1553 0.930 . S
C1559 C1555 1.400 . S
C1559 C1558 1.385 . S
C1560 C1558 1.478 . S
C1560 C1562 1.381 . S
C1560 C1566 1.383 . S
C1561 C1557 1.495 . S
C1561 H1567 0.959 . S
C1561 H1568 0.961 . S
C1561 H1569 0.960 . S
C1562 C1560 1.381 . S
C1562 C1563 1.394 . S
C1562 H1570 0.930 . S
C1563 C1562 1.394 . S
C1563 C1564 1.383 . S
C1563 H1571 0.929 . S
C1564 C1563 1.383 . S
C1564 C1565 1.377 . S
C1565 H1549 0.930 . S
C1565 C1564 1.377 . S
C1565 C1566 1.379 . S
C1566 H1550 0.931 . S
C1566 C1560 1.383 . S
C1566 C1565 1.379 . S
H1567 C1561 0.959 . S
H1568 C1561 0.961 . S
H1569 C1561 0.960 . S
H1570 C1562 0.930 . S
H1571 C1563 0.929 . S
H1572 C1580 0.929 . S
H1573 C1582 0.930 . S
H1574 C1584 0.930 . S
H1575 C1587 0.929 . S
H1576 C1590 0.930 . S
H1577 C1592 0.960 . S
H1578 C1592 0.960 . S
H1579 C1592 0.960 . S
C1580 H1572 0.929 . S
C1580 C1581 1.377 . S
C1580 C1582 1.384 . S
C1581 C1580 1.377 . S
C1581 C1587 1.390 . S
C1582 H1573 0.930 . S
C1582 C1580 1.384 . S
C1582 C1583 1.372 . S
C1583 C1582 1.372 . S
C1583 C1584 1.400 . S
C1583 C1588 1.490 . S
C1584 H1574 0.930 . S
C1584 C1583 1.400 . S
C1584 C1587 1.386 . S
H1585 C1601 0.930 . S
H1586 C1602 0.931 . S
C1587 H1575 0.929 . S
C1587 C1581 1.390 . S
C1587 C1584 1.386 . S
C1588 C1583 1.490 . S
C1588 C1590 1.395 . S
C1588 C1591 1.403 . S
H1589 C1595 0.930 . S
C1590 H1576 0.930 . S
C1590 C1588 1.395 . S
C1590 C1593 1.403 . S
C1591 C1588 1.403 . S
C1591 C1592 1.524 . S
C1591 C1595 1.400 . S
C1592 H1577 0.960 . S
C1592 H1578 0.960 . S
C1592 H1579 0.960 . S
C1592 C1591 1.524 . S
C1593 C1590 1.403 . S
C1593 C1594 1.392 . S
C1593 C1597 1.495 . S
C1594 C1593 1.392 . S
C1594 C1595 1.385 . S
C1594 C1596 1.478 . S
C1595 H1589 0.930 . S
C1595 C1591 1.400 . S
C1595 C1594 1.385 . S
C1596 C1594 1.478 . S
C1596 C1598 1.381 . S
C1596 C1602 1.383 . S
C1597 C1593 1.495 . S
C1597 H1603 0.959 . S
C1597 H1604 0.961 . S
C1597 H1605 0.960 . S
C1598 C1596 1.381 . S
C1598 C1599 1.394 . S
C1598 H1606 0.930 . S
C1599 C1598 1.394 . S
C1599 C1600 1.383 . S
C1599 H1607 0.929 . S
C1600 C1599 1.383 . S
C1600 C1601 1.377 . S
C1601 H1585 0.930 . S
C1601 C1600 1.377 . S
C1601 C1602 1.379 . S
C1602 H1586 0.931 . S
C1602 C1596 1.383 . S
C1602 C1601 1.379 . S
H1603 C1597 0.959 . S
H1604 C1597 0.961 . S
H1605 C1597 0.960 . S
H1606 C1598 0.930 . S
H1607 C1599 0.929 . S
H1608 C1616 0.929 . S
H1609 C1618 0.930 . S
H1610 C1620 0.930 . S
H1611 C1623 0.929 . S
H1612 C1626 0.930 . S
H1613 C1628 0.960 . S
H1614 C1628 0.960 . S
H1615 C1628 0.960 . S
C1616 H1608 0.929 . S
C1616 C1617 1.377 . S
C1616 C1618 1.384 . S
C1617 C1616 1.377 . S
C1617 C1623 1.390 . S
C1618 H1609 0.930 . S
C1618 C1616 1.384 . S
C1618 C1619 1.372 . S
C1619 C1618 1.372 . S
C1619 C1620 1.400 . S
C1619 C1624 1.490 . S
C1620 H1610 0.930 . S
C1620 C1619 1.400 . S
C1620 C1623 1.386 . S
H1621 C1637 0.955 . S
H1622 C1638 0.931 . S
C1623 H1611 0.929 . S
C1623 C1617 1.390 . S
C1623 C1620 1.386 . S
C1624 C1619 1.490 . S
C1624 C1626 1.395 . S
C1624 C1627 1.403 . S
H1625 C1631 0.930 . S
C1626 H1612 0.930 . S
C1626 C1624 1.395 . S
C1626 C1629 1.403 . S
C1627 C1624 1.403 . S
C1627 C1628 1.524 . S
C1627 C1631 1.400 . S
C1628 H1613 0.960 . S
C1628 H1614 0.960 . S
C1628 H1615 0.960 . S
C1628 C1627 1.524 . S
C1629 C1626 1.403 . S
C1629 C1630 1.392 . S
C1629 C1633 1.495 . S
C1630 C1629 1.392 . S
C1630 C1631 1.385 . S
C1630 C1632 1.478 . S
C1631 H1625 0.930 . S
C1631 C1627 1.400 . S
C1631 C1630 1.385 . S
C1632 C1630 1.478 . S
C1632 C1634 1.381 . S
C1632 C1638 1.383 . S
C1633 C1629 1.495 . S
C1633 H1639 0.959 1_655 S
C1633 H1640 0.961 1_655 S
C1633 H1641 0.960 . S
C1634 C1632 1.381 . S
C1634 C1635 1.394 . S
C1634 H1642 0.930 . S
C1635 C1634 1.394 . S
C1635 C1636 1.383 . S
C1635 H1643 0.929 . S
C1636 C1635 1.383 . S
C1636 C1637 1.377 . S
C1637 H1621 0.955 . S
C1637 C1636 1.377 . S
C1637 C1638 1.379 . S
C1638 H1622 0.931 . S
C1638 C1632 1.383 . S
C1638 C1637 1.379 . S
H1639 C1633 0.959 1_455 S
H1640 C1633 0.961 1_455 S
H1641 C1633 0.960 . S
H1642 C1634 0.930 . S
H1643 C1635 0.929 . S
H1644 C1652 0.929 . S
H1645 C1654 0.930 . S
H1646 C1656 0.930 . S
H1647 C1659 0.929 . S
H1648 C1662 0.930 . S
H1649 C1664 0.960 . S
H1650 C1664 0.960 . S
H1651 C1664 0.960 . S
C1652 H1644 0.929 . S
C1652 C1653 1.377 . S
C1652 C1654 1.384 . S
C1653 C1652 1.377 . S
C1653 C1659 1.390 . S
C1654 H1645 0.930 . S
C1654 C1652 1.384 . S
C1654 C1655 1.372 . S
C1655 C1654 1.372 . S
C1655 C1656 1.400 . S
C1655 C1660 1.490 . S
C1656 H1646 0.930 . S
C1656 C1655 1.400 . S
C1656 C1659 1.386 . S
H1657 C1673 0.930 . S
H1658 C1674 0.931 . S
C1659 H1647 0.929 . S
C1659 C1653 1.390 . S
C1659 C1656 1.386 . S
C1660 C1655 1.490 . S
C1660 C1662 1.395 . S
C1660 C1663 1.403 . S
H1661 C1667 0.930 . S
C1662 H1648 0.930 . S
C1662 C1660 1.395 . S
C1662 C1665 1.403 . S
C1663 C1660 1.403 . S
C1663 C1664 1.524 . S
C1663 C1667 1.400 . S
C1664 H1649 0.960 . S
C1664 H1650 0.960 . S
C1664 H1651 0.960 . S
C1664 C1663 1.524 . S
C1665 C1662 1.403 . S
C1665 C1666 1.392 . S
C1665 C1669 1.495 . S
C1666 C1665 1.392 . S
C1666 C1667 1.385 . S
C1666 C1668 1.478 . S
C1667 H1661 0.930 . S
C1667 C1663 1.400 . S
C1667 C1666 1.385 . S
C1668 C1666 1.478 . S
C1668 C1670 1.381 . S
C1668 C1674 1.383 . S
C1669 C1665 1.495 . S
C1669 H1675 0.959 . S
C1669 H1676 0.961 . S
C1669 H1677 0.960 . S
C1670 C1668 1.381 . S
C1670 C1671 1.394 . S
C1670 H1678 0.930 . S
C1671 C1670 1.394 . S
C1671 C1672 1.383 . S
C1671 H1679 0.929 . S
C1672 C1671 1.383 . S
C1672 C1673 1.377 . S
C1673 H1657 0.930 . S
C1673 C1672 1.377 . S
C1673 C1674 1.379 . S
C1674 H1658 0.931 . S
C1674 C1668 1.383 . S
C1674 C1673 1.379 . S
H1675 C1669 0.959 . S
H1676 C1669 0.961 . S
H1677 C1669 0.960 . S
H1678 C1670 0.930 . S
H1679 C1671 0.929 . S
H1680 C1688 0.929 . S
H1681 C1690 0.930 . S
H1682 C1692 0.930 . S
H1683 C1695 0.929 . S
H1684 C1698 0.930 . S
H1685 C1700 0.960 . S
H1686 C1700 0.960 . S
H1687 C1700 0.960 . S
C1688 H1680 0.929 . S
C1688 C1689 1.377 . S
C1688 C1690 1.384 . S
C1689 C1688 1.377 . S
C1689 C1695 1.390 . S
C1690 H1681 0.930 . S
C1690 C1688 1.384 . S
C1690 C1691 1.372 . S
C1691 C1690 1.372 . S
C1691 C1692 1.400 . S
C1691 C1696 1.490 . S
C1692 H1682 0.930 . S
C1692 C1691 1.400 . S
C1692 C1695 1.386 . S
H1693 C1709 0.930 . S
H1694 C1710 0.931 . S
C1695 H1683 0.929 . S
C1695 C1689 1.390 . S
C1695 C1692 1.386 . S
C1696 C1691 1.490 . S
C1696 C1698 1.395 . S
C1696 C1699 1.403 . S
H1697 C1703 0.930 . S
C1698 H1684 0.930 . S
C1698 C1696 1.395 . S
C1698 C1701 1.403 . S
C1699 C1696 1.403 . S
C1699 C1700 1.524 . S
C1699 C1703 1.400 . S
C1700 H1685 0.960 . S
C1700 H1686 0.960 . S
C1700 H1687 0.960 . S
C1700 C1699 1.524 . S
C1701 C1698 1.403 . S
C1701 C1702 1.392 . S
C1701 C1705 1.495 . S
C1702 C1701 1.392 . S
C1702 C1703 1.385 . S
C1702 C1704 1.478 . S
C1703 H1697 0.930 . S
C1703 C1699 1.400 . S
C1703 C1702 1.385 . S
C1704 C1702 1.478 . S
C1704 C1706 1.381 . S
C1704 C1710 1.383 . S
C1705 C1701 1.495 . S
C1705 H1711 0.959 . S
C1705 H1712 0.961 . S
C1705 H1713 0.960 . S
C1706 C1704 1.381 . S
C1706 C1707 1.394 . S
C1706 H1714 0.930 . S
C1707 C1706 1.394 . S
C1707 C1708 1.383 . S
C1707 H1715 0.929 . S
C1708 C1707 1.383 . S
C1708 C1709 1.377 . S
C1709 H1693 0.930 . S
C1709 C1708 1.377 . S
C1709 C1710 1.379 . S
C1710 H1694 0.931 . S
C1710 C1704 1.383 . S
C1710 C1709 1.379 . S
H1711 C1705 0.959 . S
H1712 C1705 0.961 . S
H1713 C1705 0.960 . S
H1714 C1706 0.930 . S
H1715 C1707 0.929 . S
H1716 C1724 0.929 . S
H1717 C1726 0.930 . S
H1718 C1728 0.930 . S
H1719 C1731 0.929 . S
H1720 C1734 0.930 . S
H1721 C1736 0.960 . S
H1722 C1736 0.960 . S
H1723 C1736 0.960 . S
C1724 H1716 0.929 . S
C1724 C1725 1.377 . S
C1724 C1726 1.384 . S
C1725 C1724 1.377 . S
C1725 C1731 1.390 . S
C1726 H1717 0.930 . S
C1726 C1724 1.384 . S
C1726 C1727 1.372 . S
C1727 C1726 1.372 . S
C1727 C1728 1.400 . S
C1727 C1732 1.490 . S
C1728 H1718 0.930 . S
C1728 C1727 1.400 . S
C1728 C1731 1.386 . S
H1729 C1745 0.930 . S
H1730 C1746 0.931 . S
C1731 H1719 0.929 . S
C1731 C1725 1.390 . S
C1731 C1728 1.386 . S
C1732 C1727 1.490 . S
C1732 C1734 1.395 . S
C1732 C1735 1.403 . S
H1733 C1739 0.930 . S
C1734 H1720 0.930 . S
C1734 C1732 1.395 . S
C1734 C1737 1.403 . S
C1735 C1732 1.403 . S
C1735 C1736 1.524 . S
C1735 C1739 1.400 . S
C1736 H1721 0.960 . S
C1736 H1722 0.960 . S
C1736 H1723 0.960 . S
C1736 C1735 1.524 . S
C1737 C1734 1.403 . S
C1737 C1738 1.392 . S
C1737 C1741 1.495 . S
C1738 C1737 1.392 . S
C1738 C1739 1.385 . S
C1738 C1740 1.478 . S
C1739 H1733 0.930 . S
C1739 C1735 1.400 . S
C1739 C1738 1.385 . S
C1740 C1738 1.478 . S
C1740 C1742 1.381 . S
C1740 C1746 1.383 . S
C1741 C1737 1.495 . S
C1741 H1747 0.959 . S
C1741 H1748 0.961 . S
C1741 H1749 0.960 . S
C1742 C1740 1.381 . S
C1742 C1743 1.394 . S
C1742 H1750 0.930 . S
C1743 C1742 1.394 . S
C1743 C1744 1.383 . S
C1743 H1751 0.929 . S
C1744 C1743 1.383 . S
C1744 C1745 1.377 . S
C1745 H1729 0.930 . S
C1745 C1744 1.377 . S
C1745 C1746 1.379 . S
C1746 H1730 0.931 . S
C1746 C1740 1.383 . S
C1746 C1745 1.379 . S
H1747 C1741 0.959 . S
H1748 C1741 0.961 . S
H1749 C1741 0.960 . S
H1750 C1742 0.930 . S
H1751 C1743 0.929 . S
H1752 C1760 0.929 . S
H1753 C1762 0.930 . S
H1754 C1764 0.930 . S
H1755 C1767 0.929 1_655 S
H1756 C1770 0.930 . S
H1757 C1772 0.960 . S
H1758 C1772 0.960 . S
H1759 C1772 0.960 . S
C1760 H1752 0.929 . S
C1760 C1761 1.377 . S
C1760 C1762 1.384 1_655 S
C1761 C1760 1.377 . S
C1761 C1767 1.390 1_655 S
C1762 H1753 0.930 . S
C1762 C1760 1.384 1_455 S
C1762 C1763 1.372 . S
C1763 C1762 1.372 . S
C1763 C1764 1.400 . S
C1763 C1768 1.490 . S
C1764 H1754 0.930 . S
C1764 C1763 1.400 . S
C1764 C1767 1.386 . S
H1765 C1781 0.930 . S
H1766 C1782 0.931 . S
C1767 H1755 0.929 1_455 S
C1767 C1761 1.390 1_455 S
C1767 C1764 1.386 . S
C1768 C1763 1.490 . S
C1768 C1770 1.395 . S
C1768 C1771 1.403 . S
H1769 C1775 0.930 . S
C1770 H1756 0.930 . S
C1770 C1768 1.395 . S
C1770 C1773 1.403 . S
C1771 C1768 1.403 . S
C1771 C1772 1.524 . S
C1771 C1775 1.400 . S
C1772 H1757 0.960 . S
C1772 H1758 0.960 . S
C1772 H1759 0.960 . S
C1772 C1771 1.524 . S
C1773 C1770 1.403 . S
C1773 C1774 1.392 . S
C1773 C1777 1.495 . S
C1774 C1773 1.392 . S
C1774 C1775 1.385 . S
C1774 C1776 1.478 . S
C1775 H1769 0.930 . S
C1775 C1771 1.400 . S
C1775 C1774 1.385 . S
C1776 C1774 1.478 . S
C1776 C1778 1.381 . S
C1776 C1782 1.383 . S
C1777 C1773 1.495 . S
C1777 H1783 0.959 . S
C1777 H1784 0.961 . S
C1777 H1785 0.960 . S
C1778 C1776 1.381 . S
C1778 C1779 1.394 . S
C1778 H1786 0.930 . S
C1779 C1778 1.394 . S
C1779 C1780 1.383 . S
C1779 H1787 0.929 . S
C1780 C1779 1.383 . S
C1780 C1781 1.377 . S
C1781 H1765 0.930 . S
C1781 C1780 1.377 . S
C1781 C1782 1.379 . S
C1782 H1766 0.931 . S
C1782 C1776 1.383 . S
C1782 C1781 1.379 . S
H1783 C1777 0.959 . S
H1784 C1777 0.961 . S
H1785 C1777 0.960 . S
H1786 C1778 0.930 . S
H1787 C1779 0.929 . S
H1788 C1796 0.929 . S
H1789 C1798 0.930 . S
H1790 C1800 0.930 . S
H1791 C1803 0.929 . S
H1792 C1806 0.930 . S
H1793 C1808 0.960 . S
H1794 C1808 0.960 . S
H1795 C1808 0.960 . S
C1796 H1788 0.929 . S
C1796 C1797 1.377 . S
C1796 C1798 1.384 . S
C1797 C1796 1.377 . S
C1797 C1803 1.390 . S
C1798 H1789 0.930 . S
C1798 C1796 1.384 . S
C1798 C1799 1.372 . S
C1799 C1798 1.372 . S
C1799 C1800 1.400 . S
C1799 C1804 1.490 . S
C1800 H1790 0.930 . S
C1800 C1799 1.400 . S
C1800 C1803 1.386 . S
H1801 C1817 0.930 . S
H1802 C1818 0.931 . S
C1803 H1791 0.929 . S
C1803 C1797 1.390 . S
C1803 C1800 1.386 . S
C1804 C1799 1.490 . S
C1804 C1806 1.395 . S
C1804 C1807 1.403 . S
H1805 C1811 0.930 . S
C1806 H1792 0.930 . S
C1806 C1804 1.395 . S
C1806 C1809 1.403 . S
C1807 C1804 1.403 . S
C1807 C1808 1.524 . S
C1807 C1811 1.400 . S
C1808 H1793 0.960 . S
C1808 H1794 0.960 . S
C1808 H1795 0.960 . S
C1808 C1807 1.524 . S
C1809 C1806 1.403 . S
C1809 C1810 1.392 . S
C1809 C1813 1.495 . S
C1810 C1809 1.392 . S
C1810 C1811 1.385 . S
C1810 C1812 1.478 . S
C1811 H1805 0.930 . S
C1811 C1807 1.400 . S
C1811 C1810 1.385 . S
C1812 C1810 1.478 . S
C1812 C1814 1.381 . S
C1812 C1818 1.383 . S
C1813 C1809 1.495 . S
C1813 H1819 0.959 . S
C1813 H1820 0.961 . S
C1813 H1821 0.960 . S
C1814 C1812 1.381 . S
C1814 C1815 1.394 . S
C1814 H1822 0.930 . S
C1815 C1814 1.394 . S
C1815 C1816 1.383 . S
C1815 H1823 0.929 . S
C1816 C1815 1.383 . S
C1816 C1817 1.377 . S
C1817 H1801 0.930 . S
C1817 C1816 1.377 . S
C1817 C1818 1.379 . S
C1818 H1802 0.931 . S
C1818 C1812 1.383 . S
C1818 C1817 1.379 . S
H1819 C1813 0.959 . S
H1820 C1813 0.961 . S
H1821 C1813 0.960 . S
H1822 C1814 0.930 . S
H1823 C1815 0.929 . S
H1824 C1832 0.929 . S
H1825 C1834 0.930 . S
H1826 C1836 0.930 . S
H1827 C1839 0.929 . S
H1828 C1842 0.930 . S
H1829 C1844 0.960 . S
H1830 C1844 0.960 . S
H1831 C1844 0.960 . S
C1832 H1824 0.929 . S
C1832 C1833 1.377 . S
C1832 C1834 1.384 . S
C1833 C1832 1.377 . S
C1833 C1839 1.390 . S
C1834 H1825 0.930 . S
C1834 C1832 1.384 . S
C1834 C1835 1.372 . S
C1835 C1834 1.372 . S
C1835 C1836 1.400 . S
C1835 C1840 1.490 . S
C1836 H1826 0.930 . S
C1836 C1835 1.400 . S
C1836 C1839 1.386 . S
H1837 C1853 0.930 . S
H1838 C1854 0.931 . S
C1839 H1827 0.929 . S
C1839 C1833 1.390 . S
C1839 C1836 1.386 . S
C1840 C1835 1.490 . S
C1840 C1842 1.395 . S
C1840 C1843 1.403 . S
H1841 C1847 0.930 . S
C1842 H1828 0.930 . S
C1842 C1840 1.395 . S
C1842 C1845 1.403 . S
C1843 C1840 1.403 . S
C1843 C1844 1.524 . S
C1843 C1847 1.400 . S
C1844 H1829 0.960 . S
C1844 H1830 0.960 . S
C1844 H1831 0.960 . S
C1844 C1843 1.524 . S
C1845 C1842 1.403 . S
C1845 C1846 1.392 . S
C1845 C1849 1.495 . S
C1846 C1845 1.392 . S
C1846 C1847 1.385 . S
C1846 C1848 1.478 . S
C1847 H1841 0.930 . S
C1847 C1843 1.400 . S
C1847 C1846 1.385 . S
C1848 C1846 1.478 . S
C1848 C1850 1.381 . S
C1848 C1854 1.383 . S
C1849 C1845 1.495 . S
C1849 H1855 0.959 . S
C1849 H1856 0.961 . S
C1849 H1857 0.960 . S
C1850 C1848 1.381 . S
C1850 C1851 1.394 . S
C1850 H1858 0.930 . S
C1851 C1850 1.394 . S
C1851 C1852 1.383 . S
C1851 H1859 0.929 . S
C1852 C1851 1.383 . S
C1852 C1853 1.377 . S
C1853 H1837 0.930 . S
C1853 C1852 1.377 . S
C1853 C1854 1.379 . S
C1854 H1838 0.931 . S
C1854 C1848 1.383 . S
C1854 C1853 1.379 . S
H1855 C1849 0.959 . S
H1856 C1849 0.961 . S
H1857 C1849 0.960 . S
H1858 C1850 0.930 . S
H1859 C1851 0.929 . S
H1860 C1868 0.929 . S
H1861 C1870 0.930 . S
H1862 C1872 0.930 . S
H1863 C1875 0.929 . S
H1864 C1878 0.930 . S
H1865 C1880 0.960 . S
H1866 C1880 0.960 . S
H1867 C1880 0.960 . S
C1868 H1860 0.929 . S
C1868 C1869 1.377 . S
C1868 C1870 1.384 . S
C1869 C1868 1.377 . S
C1869 C1875 1.390 . S
C1870 H1861 0.930 . S
C1870 C1868 1.384 . S
C1870 C1871 1.372 . S
C1871 C1870 1.372 . S
C1871 C1872 1.400 . S
C1871 C1876 1.490 . S
C1872 H1862 0.930 . S
C1872 C1871 1.400 . S
C1872 C1875 1.386 . S
H1873 C1889 0.930 . S
H1874 C1890 0.931 . S
C1875 H1863 0.929 . S
C1875 C1869 1.390 . S
C1875 C1872 1.386 . S
C1876 C1871 1.490 . S
C1876 C1878 1.395 . S
C1876 C1879 1.403 . S
H1877 C1883 0.930 . S
C1878 H1864 0.930 . S
C1878 C1876 1.395 . S
C1878 C1881 1.403 . S
C1879 C1876 1.403 . S
C1879 C1880 1.524 . S
C1879 C1883 1.400 . S
C1880 H1865 0.960 . S
C1880 H1866 0.960 . S
C1880 H1867 0.960 . S
C1880 C1879 1.524 . S
C1881 C1878 1.403 . S
C1881 C1882 1.392 . S
C1881 C1885 1.495 . S
C1882 C1881 1.392 . S
C1882 C1883 1.385 . S
C1882 C1884 1.478 . S
C1883 H1877 0.930 . S
C1883 C1879 1.400 . S
C1883 C1882 1.385 . S
C1884 C1882 1.478 . S
C1884 C1886 1.381 . S
C1884 C1890 1.383 . S
C1885 C1881 1.495 . S
C1885 H1891 0.959 . S
C1885 H1892 0.961 . S
C1885 H1893 0.960 . S
C1886 C1884 1.381 . S
C1886 C1887 1.394 . S
C1886 H1894 0.930 . S
C1887 C1886 1.394 . S
C1887 C1888 1.383 . S
C1887 H1895 0.929 . S
C1888 C1887 1.383 . S
C1888 C1889 1.377 . S
C1889 H1873 0.930 . S
C1889 C1888 1.377 . S
C1889 C1890 1.379 . S
C1890 H1874 0.931 . S
C1890 C1884 1.383 . S
C1890 C1889 1.379 . S
H1891 C1885 0.959 . S
H1892 C1885 0.961 . S
H1893 C1885 0.960 . S
H1894 C1886 0.930 . S
H1895 C1887 0.929 . S
H1896 C1904 0.929 . S
H1897 C1906 0.930 . S
H1898 C1908 0.930 . S
H1899 C1911 0.929 . S
H1900 C1914 0.930 . S
H1901 C1916 0.960 . S
H1902 C1916 0.960 . S
H1903 C1916 0.960 . S
C1904 H1896 0.929 . S
C1904 C1905 1.377 . S
C1904 C1906 1.383 1_655 S
C1905 C1904 1.377 . S
C1905 C1911 1.390 . S
C1906 H1897 0.930 . S
C1906 C1904 1.383 1_455 S
C1906 C1907 1.372 . S
C1907 C1906 1.372 . S
C1907 C1908 1.400 . S
C1907 C1912 1.490 . S
C1908 H1898 0.930 . S
C1908 C1907 1.400 . S
C1908 C1911 1.386 1_455 S
H1909 C1925 0.930 . S
H1910 C1926 0.931 . S
C1911 H1899 0.929 . S
C1911 C1905 1.390 . S
C1911 C1908 1.386 1_655 S
C1912 C1907 1.490 . S
C1912 C1914 1.395 . S
C1912 C1915 1.403 . S
H1913 C1919 0.930 . S
C1914 H1900 0.930 . S
C1914 C1912 1.395 . S
C1914 C1917 1.403 . S
C1915 C1912 1.403 . S
C1915 C1916 1.524 . S
C1915 C1919 1.400 . S
C1916 H1901 0.960 . S
C1916 H1902 0.960 . S
C1916 H1903 0.960 . S
C1916 C1915 1.524 . S
C1917 C1914 1.403 . S
C1917 C1918 1.392 . S
C1917 C1921 1.495 . S
C1918 C1917 1.392 . S
C1918 C1919 1.385 . S
C1918 C1920 1.478 . S
C1919 H1913 0.930 . S
C1919 C1915 1.400 . S
C1919 C1918 1.385 . S
C1920 C1918 1.478 . S
C1920 C1922 1.381 . S
C1920 C1926 1.383 . S
C1921 C1917 1.495 . S
C1921 H1927 0.959 . S
C1921 H1928 0.961 . S
C1921 H1929 0.960 . S
C1922 C1920 1.381 . S
C1922 C1923 1.394 . S
C1922 H1930 0.930 . S
C1923 C1922 1.394 . S
C1923 C1924 1.383 . S
C1923 H1931 0.929 . S
C1924 C1923 1.383 . S
C1924 C1925 1.377 . S
C1925 H1909 0.930 . S
C1925 C1924 1.377 . S
C1925 C1926 1.379 . S
C1926 H1910 0.931 . S
C1926 C1920 1.383 . S
C1926 C1925 1.379 . S
H1927 C1921 0.959 . S
H1928 C1921 0.961 . S
H1929 C1921 0.960 . S
H1930 C1922 0.930 . S
H1931 C1923 0.929 . S
H1932 C1940 0.929 . S
H1933 C1942 0.930 . S
H1934 C1944 0.930 . S
H1935 C1947 0.929 . S
H1936 C1950 0.930 . S
H1937 C1952 0.960 . S
H1938 C1952 0.960 . S
H1939 C1952 0.960 . S
C1940 H1932 0.929 . S
C1940 C1941 1.377 . S
C1940 C1942 1.384 . S
C1941 C1940 1.377 . S
C1941 C1947 1.390 . S
C1942 H1933 0.930 . S
C1942 C1940 1.384 . S
C1942 C1943 1.372 . S
C1943 C1942 1.372 . S
C1943 C1944 1.400 . S
C1943 C1948 1.490 . S
C1944 H1934 0.930 . S
C1944 C1943 1.400 . S
C1944 C1947 1.386 . S
H1945 C1961 0.930 1_545 S
H1946 C1962 0.931 . S
C1947 H1935 0.929 . S
C1947 C1941 1.390 . S
C1947 C1944 1.386 . S
C1948 C1943 1.490 . S
C1948 C1950 1.395 . S
C1948 C1951 1.403 . S
H1949 C1955 0.930 . S
C1950 H1936 0.930 . S
C1950 C1948 1.395 . S
C1950 C1953 1.403 . S
C1951 C1948 1.403 . S
C1951 C1952 1.524 . S
C1951 C1955 1.400 . S
C1952 H1937 0.960 . S
C1952 H1938 0.960 . S
C1952 H1939 0.960 . S
C1952 C1951 1.524 . S
C1953 C1950 1.403 . S
C1953 C1954 1.392 . S
C1953 C1957 1.495 . S
C1954 C1953 1.392 . S
C1954 C1955 1.385 . S
C1954 C1956 1.478 . S
C1955 H1949 0.930 . S
C1955 C1951 1.400 . S
C1955 C1954 1.385 . S
C1956 C1954 1.478 . S
C1956 C1958 1.381 . S
C1956 C1962 1.383 . S
C1957 C1953 1.495 . S
C1957 H1963 0.959 . S
C1957 H1964 0.961 . S
C1957 H1965 0.960 . S
C1958 C1956 1.381 . S
C1958 C1959 1.394 . S
C1958 H1966 0.930 . S
C1959 C1958 1.394 . S
C1959 C1960 1.383 . S
C1959 H1967 0.929 . S
C1960 C1959 1.383 . S
C1960 C1961 1.377 . S
C1961 H1945 0.930 1_565 S
C1961 C1960 1.377 . S
C1961 C1962 1.379 . S
C1962 H1946 0.931 . S
C1962 C1956 1.383 . S
C1962 C1961 1.379 . S
H1963 C1957 0.959 . S
H1964 C1957 0.961 . S
H1965 C1957 0.960 . S
H1966 C1958 0.930 . S
H1967 C1959 0.929 . S
H1968 C1976 0.929 . S
H1969 C1978 0.930 . S
H1970 C1980 0.930 . S
H1971 C1983 0.929 . S
H1972 C1986 0.930 . S
H1973 C1988 0.960 . S
H1974 C1988 0.960 . S
H1975 C1988 0.960 . S
C1976 H1968 0.929 . S
C1976 C1977 1.377 . S
C1976 C1978 1.384 . S
C1977 C1976 1.377 . S
C1977 C1983 1.390 . S
C1978 H1969 0.930 . S
C1978 C1976 1.384 . S
C1978 C1979 1.372 . S
C1979 C1978 1.372 . S
C1979 C1980 1.400 . S
C1979 C1984 1.490 . S
C1980 H1970 0.930 . S
C1980 C1979 1.400 . S
C1980 C1983 1.386 . S
H1981 C1997 0.930 . S
H1982 C1998 0.931 . S
C1983 H1971 0.929 . S
C1983 C1977 1.390 . S
C1983 C1980 1.386 . S
C1984 C1979 1.490 . S
C1984 C1986 1.395 . S
C1984 C1987 1.403 . S
H1985 C1991 0.930 . S
C1986 H1972 0.930 . S
C1986 C1984 1.395 . S
C1986 C1989 1.403 . S
C1987 C1984 1.403 . S
C1987 C1988 1.524 . S
C1987 C1991 1.400 . S
C1988 H1973 0.960 . S
C1988 H1974 0.960 . S
C1988 H1975 0.960 . S
C1988 C1987 1.524 . S
C1989 C1986 1.403 . S
C1989 C1990 1.392 . S
C1989 C1993 1.495 . S
C1990 C1989 1.392 . S
C1990 C1991 1.385 . S
C1990 C1992 1.478 . S
C1991 H1985 0.930 . S
C1991 C1987 1.400 . S
C1991 C1990 1.385 . S
C1992 C1990 1.478 . S
C1992 C1994 1.381 . S
C1992 C1998 1.383 . S
C1993 C1989 1.495 . S
C1993 H1999 0.959 . S
C1993 H2000 0.961 . S
C1993 H2001 0.960 . S
C1994 C1992 1.381 . S
C1994 C1995 1.394 . S
C1994 H2002 0.930 . S
C1995 C1994 1.394 . S
C1995 C1996 1.383 . S
C1995 H2003 0.929 . S
C1996 C1995 1.383 . S
C1996 C1997 1.377 . S
C1997 H1981 0.930 . S
C1997 C1996 1.377 . S
C1997 C1998 1.379 . S
C1998 H1982 0.931 . S
C1998 C1992 1.383 . S
C1998 C1997 1.379 . S
H1999 C1993 0.959 . S
H2000 C1993 0.961 . S
H2001 C1993 0.960 . S
H2002 C1994 0.930 . S
H2003 C1995 0.929 . S
H2004 C2012 0.946 . S
H2005 C2014 0.930 . S
H2006 C2016 0.930 . S
H2007 C2019 0.929 . S
H2008 C2022 0.930 . S
H2009 C2024 0.960 . S
H2010 C2024 0.960 . S
H2011 C2024 0.960 . S
C2012 H2004 0.946 . S
C2012 C2013 1.393 . S
C2012 C2014 1.353 1_565 S
C2013 C2012 1.393 . S
C2013 C2019 1.390 . S
C2014 H2005 0.930 . S
C2014 C2012 1.353 1_545 S
C2014 C2015 1.372 . S
C2015 C2014 1.372 . S
C2015 C2016 1.400 . S
C2015 C2020 1.490 . S
C2016 H2006 0.930 . S
C2016 C2015 1.400 . S
C2016 C2019 1.386 1_545 S
H2017 C2033 0.930 . S
H2018 C2034 0.931 . S
C2019 H2007 0.929 . S
C2019 C2013 1.390 . S
C2019 C2016 1.386 1_565 S
C2020 C2015 1.490 . S
C2020 C2022 1.395 . S
C2020 C2023 1.403 . S
H2021 C2027 0.930 . S
C2022 H2008 0.930 . S
C2022 C2020 1.395 . S
C2022 C2025 1.403 . S
C2023 C2020 1.403 . S
C2023 C2024 1.524 . S
C2023 C2027 1.400 . S
C2024 H2009 0.960 . S
C2024 H2010 0.960 . S
C2024 H2011 0.960 . S
C2024 C2023 1.524 . S
C2025 C2022 1.403 . S
C2025 C2026 1.392 . S
C2025 C2029 1.495 . S
C2026 C2025 1.392 . S
C2026 C2027 1.385 . S
C2026 C2028 1.478 . S
C2027 H2021 0.930 . S
C2027 C2023 1.400 . S
C2027 C2026 1.385 . S
C2028 C2026 1.478 . S
C2028 C2030 1.381 . S
C2028 C2034 1.383 . S
C2029 C2025 1.495 . S
C2029 H2035 0.959 . S
C2029 H2036 0.961 . S
C2029 H2037 0.960 . S
C2030 C2028 1.381 . S
C2030 C2031 1.394 . S
C2030 H2038 0.930 . S
C2031 C2030 1.394 . S
C2031 C2032 1.383 . S
C2031 H2039 0.929 . S
C2032 C2031 1.383 . S
C2032 C2033 1.377 . S
C2033 H2017 0.930 . S
C2033 C2032 1.377 . S
C2033 C2034 1.379 . S
C2034 H2018 0.931 . S
C2034 C2028 1.383 . S
C2034 C2033 1.379 . S
H2035 C2029 0.959 . S
H2036 C2029 0.961 . S
H2037 C2029 0.960 . S
H2038 C2030 0.930 . S
H2039 C2031 0.929 . S
H2040 C2048 0.929 . S
H2041 C2050 0.930 . S
H2042 C2052 0.930 . S
H2043 C2055 0.929 . S
H2044 C2058 0.930 . S
H2045 C2060 0.960 . S
H2046 C2060 0.960 . S
H2047 C2060 0.960 . S
C2048 H2040 0.929 . S
C2048 C2049 1.377 . S
C2048 C2050 1.384 . S
C2049 C2048 1.377 . S
C2049 C2055 1.390 . S
C2050 H2041 0.930 . S
C2050 C2048 1.384 . S
C2050 C2051 1.372 . S
C2051 C2050 1.372 . S
C2051 C2052 1.400 . S
C2051 C2056 1.490 . S
C2052 H2042 0.930 . S
C2052 C2051 1.400 . S
C2052 C2055 1.386 . S
H2053 C2069 0.930 . S
H2054 C2070 0.931 . S
C2055 H2043 0.929 . S
C2055 C2049 1.390 . S
C2055 C2052 1.386 . S
C2056 C2051 1.490 . S
C2056 C2058 1.395 . S
C2056 C2059 1.403 . S
H2057 C2063 0.930 . S
C2058 H2044 0.930 . S
C2058 C2056 1.395 . S
C2058 C2061 1.403 . S
C2059 C2056 1.403 . S
C2059 C2060 1.524 . S
C2059 C2063 1.400 . S
C2060 H2045 0.960 . S
C2060 H2046 0.960 . S
C2060 H2047 0.960 . S
C2060 C2059 1.524 . S
C2061 C2058 1.403 . S
C2061 C2062 1.392 . S
C2061 C2065 1.495 . S
C2062 C2061 1.392 . S
C2062 C2063 1.385 . S
C2062 C2064 1.478 . S
C2063 H2057 0.930 . S
C2063 C2059 1.400 . S
C2063 C2062 1.385 . S
C2064 C2062 1.478 . S
C2064 C2066 1.381 . S
C2064 C2070 1.383 . S
C2065 C2061 1.495 . S
C2065 H2071 0.959 . S
C2065 H2072 0.961 . S
C2065 H2073 0.960 . S
C2066 C2064 1.381 . S
C2066 C2067 1.394 . S
C2066 H2074 0.930 . S
C2067 C2066 1.394 . S
C2067 C2068 1.383 . S
C2067 H2075 0.929 . S
C2068 C2067 1.383 . S
C2068 C2069 1.377 . S
C2069 H2053 0.930 . S
C2069 C2068 1.377 . S
C2069 C2070 1.379 . S
C2070 H2054 0.931 . S
C2070 C2064 1.383 . S
C2070 C2069 1.379 . S
H2071 C2065 0.959 . S
H2072 C2065 0.961 . S
H2073 C2065 0.960 . S
H2074 C2066 0.930 . S
H2075 C2067 0.929 . S
H2076 C2084 0.929 . S
H2077 C2086 0.930 . S
H2078 C2088 0.954 . S
H2079 C2091 0.929 1_554 S
H2080 C2094 0.930 . S
H2081 C2096 0.960 1_565 S
H2082 C2096 0.960 1_556 S
H2083 C2096 0.960 . S
C2084 H2076 0.929 . S
C2084 C2085 1.377 . S
C2084 C2086 1.384 . S
C2085 C2084 1.377 . S
C2085 C2091 1.390 . S
C2086 H2077 0.930 . S
C2086 C2084 1.384 . S
C2086 C2087 1.372 . S
C2087 C2086 1.372 . S
C2087 C2088 1.400 . S
C2087 C2092 1.490 1_545 S
C2088 H2078 0.954 . S
C2088 C2087 1.400 . S
C2088 C2091 1.386 . S
H2089 C2105 0.930 . S
H2090 C2106 0.931 . S
C2091 H2079 0.929 1_556 S
C2091 C2085 1.390 . S
C2091 C2088 1.386 . S
C2092 C2087 1.490 1_565 S
C2092 C2094 1.395 . S
C2092 C2095 1.403 . S
H2093 C2099 0.930 . S
C2094 H2080 0.930 . S
C2094 C2092 1.395 . S
C2094 C2097 1.403 . S
C2095 C2092 1.403 . S
C2095 C2096 1.524 1_566 S
C2095 C2099 1.400 . S
C2096 H2081 0.960 1_545 S
C2096 H2082 0.960 1_554 S
C2096 H2083 0.960 . S
C2096 C2095 1.524 1_544 S
C2097 C2094 1.403 . S
C2097 C2098 1.392 . S
C2097 C2101 1.495 . S
C2098 C2097 1.392 . S
C2098 C2099 1.385 . S
C2098 C2100 1.478 . S
C2099 H2093 0.930 . S
C2099 C2095 1.400 . S
C2099 C2098 1.385 . S
C2100 C2098 1.478 . S
C2100 C2102 1.381 . S
C2100 C2106 1.383 . S
C2101 C2097 1.495 . S
C2101 H2107 0.959 . S
C2101 H2108 0.961 . S
C2101 H2109 0.960 . S
C2102 C2100 1.381 . S
C2102 C2103 1.394 . S
C2102 H2110 0.930 . S
C2103 C2102 1.394 . S
C2103 C2104 1.383 . S
C2103 H2111 0.929 . S
C2104 C2103 1.383 . S
C2104 C2105 1.377 . S
C2105 H2089 0.930 . S
C2105 C2104 1.377 . S
C2105 C2106 1.379 . S
C2106 H2090 0.931 . S
C2106 C2100 1.383 . S
C2106 C2105 1.379 . S
H2107 C2101 0.959 . S
H2108 C2101 0.961 . S
H2109 C2101 0.960 . S
H2110 C2102 0.930 . S
H2111 C2103 0.929 . S
H2112 C2120 0.929 . S
H2113 C2122 0.930 . S
H2114 C2124 0.930 . S
H2115 C2127 0.929 . S
H2116 C2130 0.930 . S
H2117 C2132 0.960 . S
H2118 C2132 0.960 . S
H2119 C2132 0.960 . S
C2120 H2112 0.929 . S
C2120 C2121 1.377 . S
C2120 C2122 1.384 . S
C2121 C2120 1.377 . S
C2121 C2127 1.390 . S
C2122 H2113 0.930 . S
C2122 C2120 1.384 . S
C2122 C2123 1.372 . S
C2123 C2122 1.372 . S
C2123 C2124 1.400 . S
C2123 C2128 1.490 . S
C2124 H2114 0.930 . S
C2124 C2123 1.400 . S
C2124 C2127 1.386 . S
H2125 C2141 0.930 . S
H2126 C2142 0.931 . S
C2127 H2115 0.929 . S
C2127 C2121 1.390 . S
C2127 C2124 1.386 . S
C2128 C2123 1.490 . S
C2128 C2130 1.395 . S
C2128 C2131 1.403 . S
H2129 C2135 0.930 . S
C2130 H2116 0.930 . S
C2130 C2128 1.395 . S
C2130 C2133 1.403 . S
C2131 C2128 1.403 . S
C2131 C2132 1.524 . S
C2131 C2135 1.400 . S
C2132 H2117 0.960 . S
C2132 H2118 0.960 . S
C2132 H2119 0.960 . S
C2132 C2131 1.524 . S
C2133 C2130 1.403 . S
C2133 C2134 1.392 . S
C2133 C2137 1.495 . S
C2134 C2133 1.392 . S
C2134 C2135 1.385 . S
C2134 C2136 1.478 . S
C2135 H2129 0.930 . S
C2135 C2131 1.400 . S
C2135 C2134 1.385 . S
C2136 C2134 1.478 . S
C2136 C2138 1.381 . S
C2136 C2142 1.383 . S
C2137 C2133 1.495 . S
C2137 H2143 0.959 . S
C2137 H2144 0.961 . S
C2137 H2145 0.960 . S
C2138 C2136 1.381 . S
C2138 C2139 1.394 . S
C2138 H2146 0.930 . S
C2139 C2138 1.394 . S
C2139 C2140 1.383 . S
C2139 H2147 0.929 . S
C2140 C2139 1.383 . S
C2140 C2141 1.377 . S
C2141 H2125 0.930 . S
C2141 C2140 1.377 . S
C2141 C2142 1.379 . S
C2142 H2126 0.931 . S
C2142 C2136 1.383 . S
C2142 C2141 1.379 . S
H2143 C2137 0.959 . S
H2144 C2137 0.961 . S
H2145 C2137 0.960 . S
H2146 C2138 0.930 . S
H2147 C2139 0.929 . S
H2148 C2156 0.942 . S
H2149 C2158 0.930 . S
H2150 C2160 0.930 . S
H2151 C2163 0.929 . S
H2152 C2166 0.930 . S
H2153 C2168 0.960 . S
H2154 C2168 0.960 . S
H2155 C2168 0.960 . S
C2156 H2148 0.942 . S
C2156 C2157 1.377 . S
C2156 C2158 1.384 . S
C2157 C2156 1.377 . S
C2157 C2163 1.390 . S
C2158 H2149 0.930 . S
C2158 C2156 1.384 . S
C2158 C2159 1.372 . S
C2159 C2158 1.372 . S
C2159 C2160 1.400 . S
C2159 C2164 1.490 . S
C2160 H2150 0.930 . S
C2160 C2159 1.400 . S
C2160 C2163 1.386 . S
H2161 C2177 0.930 . S
H2162 C2178 0.931 . S
C2163 H2151 0.929 . S
C2163 C2157 1.390 . S
C2163 C2160 1.386 . S
C2164 C2159 1.490 . S
C2164 C2166 1.395 . S
C2164 C2167 1.403 . S
H2165 C2171 0.930 . S
C2166 H2152 0.930 . S
C2166 C2164 1.395 . S
C2166 C2169 1.403 . S
C2167 C2164 1.403 . S
C2167 C2168 1.524 . S
C2167 C2171 1.400 . S
C2168 H2153 0.960 . S
C2168 H2154 0.960 . S
C2168 H2155 0.960 . S
C2168 C2167 1.524 . S
C2169 C2166 1.403 . S
C2169 C2170 1.392 . S
C2169 C2173 1.495 . S
C2170 C2169 1.392 . S
C2170 C2171 1.385 . S
C2170 C2172 1.478 . S
C2171 H2165 0.930 . S
C2171 C2167 1.400 . S
C2171 C2170 1.385 . S
C2172 C2170 1.478 . S
C2172 C2174 1.381 . S
C2172 C2178 1.383 . S
C2173 C2169 1.495 . S
C2173 H2179 0.959 . S
C2173 H2180 0.961 . S
C2173 H2181 0.960 . S
C2174 C2172 1.381 . S
C2174 C2175 1.394 . S
C2174 H2182 0.930 . S
C2175 C2174 1.394 . S
C2175 C2176 1.383 . S
C2175 H2183 0.929 . S
C2176 C2175 1.383 . S
C2176 C2177 1.377 . S
C2177 H2161 0.930 . S
C2177 C2176 1.377 . S
C2177 C2178 1.379 . S
C2178 H2162 0.931 . S
C2178 C2172 1.383 . S
C2178 C2177 1.379 . S
H2179 C2173 0.959 . S
H2180 C2173 0.961 . S
H2181 C2173 0.960 . S
H2182 C2174 0.930 . S
H2183 C2175 0.929 . S
H2184 C2192 0.929 . S
H2185 C2194 0.930 . S
H2186 C2196 0.930 . S
H2187 C2199 0.929 . S
H2188 C2202 0.930 . S
H2189 C2204 0.960 . S
H2190 C2204 0.960 . S
H2191 C2204 0.960 . S
C2192 H2184 0.929 . S
C2192 C2193 1.377 . S
C2192 C2194 1.384 . S
C2193 C2192 1.377 . S
C2193 C2199 1.390 . S
C2194 H2185 0.930 . S
C2194 C2192 1.384 . S
C2194 C2195 1.372 . S
C2195 C2194 1.372 . S
C2195 C2196 1.400 . S
C2195 C2200 1.490 . S
C2196 H2186 0.930 . S
C2196 C2195 1.400 . S
C2196 C2199 1.386 . S
H2197 C2213 0.930 . S
H2198 C2214 0.931 . S
C2199 H2187 0.929 . S
C2199 C2193 1.390 . S
C2199 C2196 1.386 . S
C2200 C2195 1.490 . S
C2200 C2202 1.395 . S
C2200 C2203 1.403 . S
H2201 C2207 0.930 . S
C2202 H2188 0.930 . S
C2202 C2200 1.395 . S
C2202 C2205 1.403 . S
C2203 C2200 1.403 . S
C2203 C2204 1.524 . S
C2203 C2207 1.400 . S
C2204 H2189 0.960 . S
C2204 H2190 0.960 . S
C2204 H2191 0.960 . S
C2204 C2203 1.524 . S
C2205 C2202 1.403 . S
C2205 C2206 1.392 . S
C2205 C2209 1.495 . S
C2206 C2205 1.392 . S
C2206 C2207 1.385 . S
C2206 C2208 1.478 . S
C2207 H2201 0.930 . S
C2207 C2203 1.400 . S
C2207 C2206 1.385 . S
C2208 C2206 1.478 . S
C2208 C2210 1.381 . S
C2208 C2214 1.383 . S
C2209 C2205 1.495 . S
C2209 H2215 0.959 . S
C2209 H2216 0.961 . S
C2209 H2217 0.960 . S
C2210 C2208 1.381 . S
C2210 C2211 1.394 . S
C2210 H2218 0.930 . S
C2211 C2210 1.394 . S
C2211 C2212 1.383 . S
C2211 H2219 0.929 . S
C2212 C2211 1.383 . S
C2212 C2213 1.377 . S
C2213 H2197 0.930 . S
C2213 C2212 1.377 . S
C2213 C2214 1.379 . S
C2214 H2198 0.931 . S
C2214 C2208 1.383 . S
C2214 C2213 1.379 . S
H2215 C2209 0.959 . S
H2216 C2209 0.961 . S
H2217 C2209 0.960 . S
H2218 C2210 0.930 . S
H2219 C2211 0.929 . S
H2220 C2228 0.929 . S
H2221 C2230 0.930 . S
H2222 C2232 0.930 . S
H2223 C2235 0.929 . S
H2224 C2238 0.930 . S
H2225 C2240 0.960 . S
H2226 C2240 0.960 . S
H2227 C2240 0.960 . S
C2228 H2220 0.929 . S
C2228 C2229 1.377 . S
C2228 C2230 1.384 . S
C2229 C2228 1.377 . S
C2229 C2235 1.390 . S
C2230 H2221 0.930 . S
C2230 C2228 1.384 . S
C2230 C2231 1.372 . S
C2231 C2230 1.372 . S
C2231 C2232 1.400 . S
C2231 C2236 1.490 . S
C2232 H2222 0.930 . S
C2232 C2231 1.400 . S
C2232 C2235 1.386 . S
H2233 C2249 0.930 . S
H2234 C2250 0.931 . S
C2235 H2223 0.929 . S
C2235 C2229 1.390 . S
C2235 C2232 1.386 . S
C2236 C2231 1.490 . S
C2236 C2238 1.395 . S
C2236 C2239 1.403 . S
H2237 C2243 0.930 . S
C2238 H2224 0.930 . S
C2238 C2236 1.395 . S
C2238 C2241 1.403 . S
C2239 C2236 1.403 . S
C2239 C2240 1.524 . S
C2239 C2243 1.400 . S
C2240 H2225 0.960 . S
C2240 H2226 0.960 . S
C2240 H2227 0.960 . S
C2240 C2239 1.524 . S
C2241 C2238 1.403 . S
C2241 C2242 1.392 . S
C2241 C2245 1.495 . S
C2242 C2241 1.392 . S
C2242 C2243 1.385 . S
C2242 C2244 1.478 . S
C2243 H2237 0.930 . S
C2243 C2239 1.400 . S
C2243 C2242 1.385 . S
C2244 C2242 1.478 . S
C2244 C2246 1.381 . S
C2244 C2250 1.383 . S
C2245 C2241 1.495 . S
C2245 H2251 0.959 . S
C2245 H2252 0.961 . S
C2245 H2253 0.960 . S
C2246 C2244 1.381 . S
C2246 C2247 1.394 . S
C2246 H2254 0.930 . S
C2247 C2246 1.394 . S
C2247 C2248 1.383 . S
C2247 H2255 0.929 . S
C2248 C2247 1.383 . S
C2248 C2249 1.377 . S
C2249 H2233 0.930 . S
C2249 C2248 1.377 . S
C2249 C2250 1.379 . S
C2250 H2234 0.931 . S
C2250 C2244 1.383 . S
C2250 C2249 1.379 . S
H2251 C2245 0.959 . S
H2252 C2245 0.961 . S
H2253 C2245 0.960 . S
H2254 C2246 0.930 . S
H2255 C2247 0.929 . S
C556 C524 1.224 . S
C537 N12 1.325 . S
C573 C30 1.371 . S
C592 C453 1.133 . S
C609 C62 1.275 . S
C628 C482 1.183 . S
C664 C495 1.066 . S
C645 N81 1.295 . S
C681 C39 1.264 . S
C700 C516 1.055 . S
C736 C461 1.186 . S
C717 C53 1.357 . S
C772 C474 1.155 . S
C753 N71 1.271 . S
C808 C503 1.154 . S
C789 N2 1.247 . S
C825 N94 1.308 . S
C844 C505 1.182 . S
C880 C519 1.128 . S
C861 C131 1.303 . S
C916 C463 1.214 . S
C897 N140 1.268 . S
C952 C477 1.087 . S
C933 C177 1.261 . S
C969 C108 1.249 . S
C988 C456 1.098 . S
C1005 N117 1.287 . S
C1024 C484 1.128 . S
C1041 C154 1.279 . S
C1060 C498 1.171 . S
C1096 C526 1.103 . S
C1077 N163 1.267 . S
C1132 C335 1.210 . S
C1113 N173 1.311 . S
C1168 C316 1.060 . S
C1149 C191 1.289 . S
C1204 C330 1.185 . S
C1185 N219 1.297 . S
C1240 C351 1.237 . S
C1221 C237 1.345 . S
C1257 N104 1.294 . S
C1276 C337 1.179 . S
C1293 N127 1.266 1_545 S
C1312 C288 1.122 . S
C1329 C214 1.352 . S
C1348 C348 1.111 . S
C1365 C260 1.355 . S
C1384 C314 1.151 . S
C1420 C377 1.235 . S
C1401 N48 1.287 . S
C1456 C390 1.133 . S
C1437 C76 1.334 . S
C1473 C7 1.317 . S
C1492 C419 1.217 . S
C1509 N35 1.264 . S
C1528 C432 1.157 . S
C1564 C369 1.086 . S
C1545 C85 1.296 . S
C1600 C398 1.240 . S
C1581 C16 1.321 . S
C1617 N25 1.308 . S
C1636 C411 1.204 . S
C1672 C440 1.216 . S
C1653 N58 1.288 . S
C1689 N255 1.318 . S
C1708 C442 1.218 . S
C1725 C200 1.283 . S
C1744 C372 1.190 . S
C1780 C400 1.128 . S
C1761 N209 1.264 . S
C1797 C246 1.229 . S
C1816 C414 1.056 . S
C1852 C393 1.222 . S
C1833 C269 1.287 . S
C1869 N186 1.292 . S
C1888 C421 1.221 . S
C1924 C435 1.119 . S
C1905 C223 1.304 . S
C1960 C379 1.091 . S
C1941 N232 1.259 . S
C1996 C295 1.137 . S
C1977 N242 1.307 . S
C2032 C358 1.121 . S
C2013 C122 1.325 . S
C2049 N150 1.294 . S
C2068 C285 1.092 . S
C2104 C309 1.186 . S
C2085 C168 1.374 . S
C2140 C293 1.201 . S
C2121 N265 1.289 . S
C2157 N196 1.274 . S
C2176 C327 1.073 . S
C2193 C145 1.322 . S
C2212 C306 1.156 . S
C2229 C99 1.329 . S
C2248 C356 1.195 . S
