# Generated by pormake.
# Topology zzz, (3,6)-cn, num edge types: 1
# Building blocks:
#     Node 0, Type 0, BuildingBlock: BELTOD_clean_linker_0, # of connection points: 3
#     Node 1, Type 0, BuildingBlock: BELTOD_clean_linker_0, # of connection points: 3
#     Node 2, Type 0, BuildingBlock: BELTOD_clean_linker_0, # of connection points: 3
#     Node 3, Type 0, BuildingBlock: BELTOD_clean_linker_0, # of connection points: 3
#     Node 4, Type 0, BuildingBlock: BELTOD_clean_linker_0, # of connection points: 3
#     Node 5, Type 0, BuildingBlock: BELTOD_clean_linker_0, # of connection points: 3
#     Node 6, Type 0, BuildingBlock: BELTOD_clean_linker_0, # of connection points: 3
#     Node 7, Type 0, BuildingBlock: BELTOD_clean_linker_0, # of connection points: 3
#     Node 8, Type 1, BuildingBlock: PAMTOO_clean_sbu_0, # of connection points: 6
#     Node 9, Type 1, BuildingBlock: PAMTOO_clean_sbu_0, # of connection points: 6
#     Node 10, Type 1, BuildingBlock: PAMTOO_clean_sbu_0, # of connection points: 6
#     Node 11, Type 1, BuildingBlock: PAMTOO_clean_sbu_0, # of connection points: 6
#     Edge 12, Type (0, 1), BuildingBlock: ZUJKAS_clean_linker_0, # of connection points: 2
#     Edge 13, Type (0, 1), BuildingBlock: ZUJKAS_clean_linker_0, # of connection points: 2
#     Edge 14, Type (0, 1), BuildingBlock: ZUJKAS_clean_linker_0, # of connection points: 2
#     Edge 15, Type (0, 1), BuildingBlock: ZUJKAS_clean_linker_0, # of connection points: 2
#     Edge 16, Type (0, 1), BuildingBlock: ZUJKAS_clean_linker_0, # of connection points: 2
#     Edge 17, Type (0, 1), BuildingBlock: ZUJKAS_clean_linker_0, # of connection points: 2
#     Edge 18, Type (0, 1), BuildingBlock: ZUJKAS_clean_linker_0, # of connection points: 2
#     Edge 19, Type (0, 1), BuildingBlock: ZUJKAS_clean_linker_0, # of connection points: 2
#     Edge 20, Type (0, 1), BuildingBlock: ZUJKAS_clean_linker_0, # of connection points: 2
#     Edge 21, Type (0, 1), BuildingBlock: ZUJKAS_clean_linker_0, # of connection points: 2
#     Edge 22, Type (0, 1), BuildingBlock: ZUJKAS_clean_linker_0, # of connection points: 2
#     Edge 23, Type (0, 1), BuildingBlock: ZUJKAS_clean_linker_0, # of connection points: 2
#     Edge 24, Type (0, 1), BuildingBlock: ZUJKAS_clean_linker_0, # of connection points: 2
#     Edge 25, Type (0, 1), BuildingBlock: ZUJKAS_clean_linker_0, # of connection points: 2
#     Edge 26, Type (0, 1), BuildingBlock: ZUJKAS_clean_linker_0, # of connection points: 2
#     Edge 27, Type (0, 1), BuildingBlock: ZUJKAS_clean_linker_0, # of connection points: 2
#     Edge 28, Type (0, 1), BuildingBlock: ZUJKAS_clean_linker_0, # of connection points: 2
#     Edge 29, Type (0, 1), BuildingBlock: ZUJKAS_clean_linker_0, # of connection points: 2
#     Edge 30, Type (0, 1), BuildingBlock: ZUJKAS_clean_linker_0, # of connection points: 2
#     Edge 31, Type (0, 1), BuildingBlock: ZUJKAS_clean_linker_0, # of connection points: 2
#     Edge 32, Type (0, 1), BuildingBlock: ZUJKAS_clean_linker_0, # of connection points: 2
#     Edge 33, Type (0, 1), BuildingBlock: ZUJKAS_clean_linker_0, # of connection points: 2
#     Edge 34, Type (0, 1), BuildingBlock: ZUJKAS_clean_linker_0, # of connection points: 2
#     Edge 35, Type (0, 1), BuildingBlock: ZUJKAS_clean_linker_0, # of connection points: 2
# Relax obj value: 0.311
# Max RMSD: 0.257
# Mean RMSD: 0.207
data_MOF--net-zzz--node1-PAMTOO_clean_sbu_0--node2-BELTOD_clean_linker_0--edge1-ZUJKAS_clean_linker_0
_symmetry_space_group_name_H-M    P1
_symmetry_Int_Tables_number       1
_symmetry_cell_setting            triclinic
loop_
_symmetry_equiv_pos_as_xyz
'x, y, z'
_cell_length_a     74.861871
_cell_length_b     66.211555
_cell_length_c     24.514373
_cell_angle_alpha  90.761731
_cell_angle_beta   83.085766
_cell_angle_gamma 85.020231
loop_
_atom_site_label
_atom_site_type_symbol
_atom_site_fract_x
_atom_site_fract_y
_atom_site_fract_z
_atom_type_partial_charge
P0 P 0.75081 0.48444 0.41237 0.0
H1 H 0.75659 0.49514 0.52503 0.0
H2 H 0.78319 0.50602 0.56124 0.0
H3 H 0.80639 0.51878 0.39666 0.0
H4 H 0.77991 0.50727 0.36057 0.0
H5 H 0.71331 0.47705 0.40774 0.0
H6 H 0.69174 0.48763 0.34481 0.0
H7 H 0.72893 0.52815 0.26808 0.0
H8 H 0.7506 0.51744 0.33187 0.0
H9 H 0.78037 0.45557 0.43367 0.0
H10 H 0.75404 0.47435 0.29308 0.0
O11 O 0.74078 0.47156 0.46371 0.0
H12 H 0.80487 0.43729 0.37257 0.0
H13 H 0.77851 0.45646 0.2322 0.0
C14 C 0.76615 0.5004 0.43998 0.0
C15 C 0.76707 0.50097 0.49681 0.0
C16 C 0.78239 0.50719 0.51757 0.0
C17 C 0.79715 0.51293 0.48183 0.0
C18 C 0.79545 0.51407 0.42532 0.0
C19 C 0.78011 0.50785 0.40464 0.0
C20 C 0.73353 0.49663 0.37524 0.0
C21 C 0.71667 0.4887 0.37866 0.0
C22 C 0.70429 0.49477 0.34242 0.0
C23 C 0.70859 0.50872 0.3012 0.0
C24 C 0.72524 0.51727 0.29913 0.0
C25 C 0.73758 0.51133 0.33599 0.0
C26 C 0.76546 0.46653 0.36809 0.0
C27 C 0.7796 0.45532 0.38982 0.0
C28 C 0.79365 0.44501 0.35489 0.0
C29 C 0.79372 0.44567 0.2976 0.0
C30 C 0.7788 0.45558 0.27618 0.0
C31 C 0.7648 0.46598 0.31115 0.0
P32 P 0.02339 0.70638 0.34669 0.0
H33 H 0.01587 0.71415 0.46565 0.0
H34 H 1.00498 0.74521 0.51858 0.0
H35 H 0.99092 0.77384 0.37032 0.0
H36 H 1.00153 0.74262 0.31793 0.0
H37 H 0.03254 0.66392 0.31723 0.0
H38 H 0.02061 0.64097 0.25543 0.0
H39 H 0.97665 0.68612 0.23658 0.0
H40 H 0.98891 0.70924 0.2986 0.0
H41 H 0.05048 0.73459 0.35615 0.0
H42 H 0.02567 0.70812 0.2255 0.0
O43 O 0.03716 0.69396 0.38611 0.0
H44 H 0.06441 0.75807 0.29116 0.0
H45 H 0.03923 0.73159 0.16107 0.0
C46 C 0.00961 0.72607 0.38774 0.0
C47 C 0.0099 0.72686 0.44479 0.0
C48 C 1.00384 0.74475 0.47497 0.0
C49 C 0.99742 0.76219 0.44856 0.0
C50 C 0.9957 0.76073 0.39213 0.0
C51 C 1.00173 0.74281 0.36204 0.0
C52 C 0.01147 0.68818 0.31336 0.0
C53 C 0.02 0.66869 0.30133 0.0
C54 C 0.01314 0.65552 0.2658 0.0
C55 C 0.99765 0.66165 0.24089 0.0
C56 C 0.98867 0.68096 0.25475 0.0
C57 C 0.99555 0.69413 0.2907 0.0
C58 C 0.03703 0.71961 0.29587 0.0
C59 C 0.04842 0.73346 0.31327 0.0
C60 C 0.05624 0.74696 0.27622 0.0
C61 C 0.05279 0.74678 0.22111 0.0
C62 C 0.04231 0.73198 0.20311 0.0
C63 C 0.03443 0.71857 0.24023 0.0
P64 P 0.76819 0.03374 0.28281 0.0
H65 H 0.75572 0.03291 0.40036 0.0
H66 H 0.73026 0.01783 0.44941 0.0
H67 H 0.72517 0.982 0.30434 0.0
H68 H 0.75056 0.99772 0.25483 0.0
H69 H 0.79605 0.05475 0.22354 0.0
H70 H 0.82412 0.04399 0.16628 0.0
H71 H 0.81536 0.98134 0.19841 0.0
H72 H 0.78672 0.99246 0.25533 0.0
H73 H 0.73771 0.06448 0.29598 0.0
H74 H 0.7649 0.02366 0.16779 0.0
O75 O 0.77234 0.05284 0.32324 0.0
H76 H 0.71414 0.07409 0.2378 0.0
H77 H 0.74139 0.03307 0.10967 0.0
C78 C 0.75514 0.01646 0.3238 0.0
C79 C 0.74961 0.02127 0.3795 0.0
C80 C 0.73492 0.01258 0.40769 0.0
C81 C 0.72536 -0.00111 0.38073 0.0
C82 C 0.73195 0.99278 0.32617 0.0
C83 C 0.74668 0.00152 0.29797 0.0
C84 C 0.78946 0.02444 0.24441 0.0
C85 C 0.80025 0.03868 0.21887 0.0
C86 C 0.81639 0.03248 0.18622 0.0
C87 C 0.82223 0.01177 0.17819 0.0
C88 C 0.81128 0.99741 0.20362 0.0
C89 C 0.79497 0.00371 0.23648 0.0
C90 C 0.75324 0.04372 0.23574 0.0
C91 C 0.73886 0.058 0.25477 0.0
C92 C 0.72533 0.06333 0.22171 0.0
C93 C 0.72593 0.05433 0.16918 0.0
C94 C 0.74071 0.04052 0.14956 0.0
C95 C 0.75418 0.03513 0.18279 0.0
P96 P 0.50208 0.7521 0.22464 0.0
H97 H 0.48397 0.73759 0.32581 0.0
H98 H 0.49318 0.71116 0.38726 0.0
H99 H 0.54776 0.70842 0.30534 0.0
H100 H 0.53848 0.73549 0.2444 0.0
H101 H 0.51084 0.79059 0.26833 0.0
H102 H 0.52304 0.8202 0.2233 0.0
H103 H 0.53501 0.78568 0.07071 0.0
H104 H 0.52251 0.75663 0.11482 0.0
H105 H 0.52774 0.72304 0.15856 0.0
H106 H 0.46996 0.73722 0.18532 0.0
O107 O 0.48188 0.76392 0.24719 0.0
H108 H 0.52386 0.69454 0.09812 0.0
H109 H 0.46602 0.70849 0.12532 0.0
C110 C 0.51056 0.73864 0.28077 0.0
C111 C 0.49808 0.73195 0.32233 0.0
C112 C 0.50332 0.71661 0.35706 0.0
C113 C 0.52111 0.70744 0.35041 0.0
C114 C 0.53396 0.71523 0.31151 0.0
C115 C 0.52868 0.73072 0.27675 0.0
C116 C 0.5158 0.77127 0.19531 0.0
C117 C 0.51658 0.78923 0.22559 0.0
C118 C 0.52347 0.80615 0.19981 0.0
C119 C 0.52994 0.80523 0.14348 0.0
C120 C 0.53034 0.78677 0.11431 0.0
C121 C 0.52316 0.77002 0.13981 0.0
C122 C 0.49918 0.73252 0.17561 0.0
C123 C 0.51424 0.7202 0.15086 0.0
C124 C 0.51202 0.70394 0.11629 0.0
C125 C 0.49464 0.69941 0.10692 0.0
C126 C 0.47955 0.71168 0.13195 0.0
C127 C 0.48182 0.72816 0.16593 0.0
P128 P 0.26439 0.44216 0.99387 0.0
H129 H 0.25516 0.4321 0.88465 0.0
H130 H 0.22939 0.44389 0.83886 0.0
H131 H 0.21748 0.49435 0.95505 0.0
H132 H 0.24292 0.48173 0.00246 0.0
H133 H 0.29981 0.42255 0.00713 0.0
H134 H 0.3242 0.43283 0.05489 0.0
H135 H 0.29774 0.49354 0.07574 0.0
H136 H 0.27355 0.48324 0.02521 0.0
H137 H 0.23024 0.42423 0.01172 0.0
H138 H 0.26318 0.45656 0.10966 0.0
O139 O 0.26989 0.41866 0.96817 0.0
H140 H 0.20512 0.42895 0.08547 0.0
H141 H 0.23813 0.46214 0.18161 0.0
C142 C 0.25117 0.45603 0.94705 0.0
C143 C 0.24745 0.44611 0.8993 0.0
C144 C 0.23254 0.45292 0.87297 0.0
C145 C 0.22097 0.46994 0.8936 0.0
C146 C 0.22574 0.48091 0.93858 0.0
C147 C 0.24062 0.47398 0.96513 0.0
C148 C 0.28475 0.45208 0.01227 0.0
C149 C 0.29946 0.43828 0.02014 0.0
C150 C 0.31335 0.44412 0.04846 0.0
C151 C 0.31276 0.46388 0.07077 0.0
C152 C 0.29869 0.47818 0.05925 0.0
C153 C 0.28484 0.47234 0.03003 0.0
C154 C 0.24851 0.44035 0.05448 0.0
C155 C 0.23222 0.43193 0.0495 0.0
C156 C 0.21782 0.43482 0.09145 0.0
C157 C 0.21948 0.44629 0.13898 0.0
C158 C 0.23634 0.45318 0.14571 0.0
C159 C 0.25074 0.45018 0.1039 0.0
P160 P 0.07059 0.28148 0.03254 0.0
H161 H 0.07767 0.27147 0.91463 0.0
H162 H 0.06575 0.24584 0.86009 0.0
H163 H 0.0236 0.23864 0.99315 0.0
H164 H 0.03553 0.26435 0.04735 0.0
H165 H 0.08857 0.31685 0.05903 0.0
H166 H 0.07888 0.34633 0.11865 0.0
H167 H 0.02401 0.3296 0.13402 0.0
H168 H 0.03395 0.29977 0.07435 0.0
H169 H 0.08091 0.23823 0.03092 0.0
H170 H 0.06274 0.28511 0.15414 0.0
O171 O 0.09153 0.28292 0.00151 0.0
H172 H 0.07581 0.21247 0.09958 0.0
H173 H 0.05815 0.25946 0.22329 0.0
C174 C 0.05751 0.26993 0.9852 0.0
C175 C 0.06544 0.265 0.93137 0.0
C176 C 0.05874 0.25011 0.90039 0.0
C177 C 0.04394 0.23985 0.92267 0.0
C178 C 0.03496 0.24625 0.97456 0.0
C179 C 0.0417 0.26115 0.00554 0.0
C180 C 0.06197 0.30617 0.06141 0.0
C181 C 0.07433 0.31984 0.07351 0.0
C182 C 0.06875 0.33677 0.10788 0.0
C183 C 0.05066 0.34035 0.13154 0.0
C184 C 0.03808 0.3272 0.117 0.0
C185 C 0.0437 0.31024 0.08226 0.0
C186 C 0.07178 0.26357 0.08689 0.0
C187 C 0.07631 0.24301 0.07308 0.0
C188 C 0.07346 0.22827 0.11256 0.0
C189 C 0.06625 0.2339 0.16681 0.0
C190 C 0.06327 0.25463 0.18153 0.0
C191 C 0.06598 0.26935 0.14186 0.0
P192 P 0.24728 0.04626 0.1481 0.0
H193 H 0.25806 0.0577 0.03453 0.0
H194 H 0.28412 0.04535 0.96964 0.0
H195 H 0.29333 0.99342 0.07057 0.0
H196 H 0.26717 0.00587 0.13547 0.0
H197 H 0.21455 0.06982 0.19483 0.0
H198 H 0.18588 0.06076 0.24044 0.0
H199 H 0.20181 0.9976 0.19909 0.0
H200 H 0.23087 0.00696 0.15283 0.0
H201 H 0.27916 0.06477 0.17323 0.0
H202 H 0.24592 0.01926 0.24304 0.0
O203 O 0.24557 0.07092 0.1341 0.0
H204 H 0.30139 0.05542 0.23579 0.0
H205 H 0.26796 0.01 0.30581 0.0
C206 C 0.26073 0.03287 0.09036 0.0
C207 C 0.26523 0.04325 0.04179 0.0
C208 C 0.28022 0.03618 0.00461 0.0
C209 C 0.29108 0.01862 0.01551 0.0
C210 C 0.28547 0.00722 0.06153 0.0
C211 C 0.27036 0.01421 0.09839 0.0
C212 C 0.22478 0.03913 0.16946 0.0
C213 C 0.21175 0.05406 0.19391 0.0
C214 C 0.19526 0.04884 0.22018 0.0
C215 C 0.19145 0.02844 0.22342 0.0
C216 C 0.20434 0.01345 0.19751 0.0
C217 C 0.22087 0.01878 0.17054 0.0
C218 C 0.26075 0.04295 0.20386 0.0
C219 C 0.27634 0.05326 0.20328 0.0
C220 C 0.28904 0.04788 0.23902 0.0
C221 C 0.28643 0.03191 0.27553 0.0
C222 C 0.27039 0.02225 0.27776 0.0
C223 C 0.25768 0.02769 0.24211 0.0
P224 P 0.43518 0.25885 0.2348 0.0
H225 H 0.41491 0.27222 0.145 0.0
H226 H 0.42379 0.29185 0.06474 0.0
H227 H 0.47984 0.27976 0.08975 0.0
H228 H 0.47076 0.26061 0.17136 0.0
H229 H 0.41745 0.23576 0.32082 0.0
H230 H 0.42549 0.2034 0.3611 0.0
H231 H 0.47223 0.1934 0.23893 0.0
H232 H 0.46371 0.22587 0.19754 0.0
H233 H 0.42814 0.30176 0.26195 0.0
H234 H 0.46787 0.25318 0.29102 0.0
O235 O 0.41296 0.26495 0.2488 0.0
H236 H 0.44554 0.32601 0.3037 0.0
H237 H 0.48544 0.27739 0.33227 0.0
C238 C 0.44215 0.26496 0.16445 0.0
C239 C 0.42917 0.27312 0.13221 0.0
C240 C 0.43429 0.28441 0.08605 0.0
C241 C 0.45253 0.28777 0.07131 0.0
C242 C 0.46565 0.27784 0.10062 0.0
C243 C 0.46049 0.26658 0.14686 0.0
C244 C 0.43982 0.23313 0.25571 0.0
C245 C 0.42919 0.22643 0.30171 0.0
C246 C 0.43394 0.208 0.32521 0.0
C247 C 0.44965 0.19593 0.30374 0.0
C248 C 0.45999 0.2023 0.25626 0.0
C249 C 0.45514 0.22085 0.23253 0.0
C250 C 0.44647 0.27563 0.2745 0.0
C251 C 0.44042 0.29626 0.27834 0.0
C252 C 0.4505 0.31013 0.30151 0.0
C253 C 0.46693 0.3036 0.32087 0.0
C254 C 0.47276 0.28282 0.31815 0.0
C255 C 0.46267 0.26896 0.29472 0.0
Dy256 Dy 0.99455 0.01081 0.65651 0.0
Dy257 Dy 0.02179 0.99309 0.7429 0.0
C258 C 0.03715 0.00487 0.62236 0.0
O259 O 0.98954 0.97819 0.66414 0.0
O260 O 0.01691 0.96663 0.69037 0.0
O261 O 0.98379 0.00867 0.57898 0.0
O262 O 0.9747 0.03404 0.63494 0.0
O263 O 0.99415 0.98653 0.78026 0.0
O264 O 0.97773 0.01134 0.73844 0.0
O265 O 0.01548 0.02605 0.7649 0.0
O266 O 0.00911 0.03699 0.68072 0.0
O267 O 0.02892 0.98966 0.82523 0.0
O268 O 0.04706 0.97667 0.75565 0.0
C269 C 1.00191 0.96333 0.67009 0.0
O270 O 0.02131 0.00209 0.60719 0.0
O271 O 0.03922 0.00646 0.67458 0.0
C272 C 0.98075 0.04101 0.5419 0.0
C273 C 0.9917 0.07085 0.46757 0.0
C274 C 1.00458 0.05816 0.4911 0.0
C275 C 0.99915 0.04344 0.52797 0.0
C276 C 0.9678 0.05331 0.51793 0.0
C277 C 0.97324 0.06818 0.48093 0.0
C278 C 0.97539 0.02681 0.58492 0.0
C279 C 0.97914 -0.00183 0.77769 0.0
C280 C 0.01325 0.04073 0.73018 0.0
C281 C 0.04603 0.95894 0.83778 0.0
C282 C 0.05128 0.92197 0.89133 0.0
C283 C 0.03566 0.92649 0.86552 0.0
C284 C 0.03308 0.94483 0.83878 0.0
C285 C 0.06162 0.95452 0.86326 0.0
C286 C 0.06425 0.93616 0.88982 0.0
C287 C 0.04364 0.97805 0.80902 0.0
H288 H 0.01886 0.06009 0.48266 0.0
H289 H 0.00934 0.03432 0.54683 0.0
H290 H 0.95354 0.05173 0.52872 0.0
H291 H 0.96303 0.0777 0.46323 0.0
H292 H 0.02554 0.91576 0.86545 0.0
H293 H 0.02104 0.94797 0.81873 0.0
H294 H 0.07176 0.96527 0.8626 0.0
H295 H 0.07632 0.93319 0.90984 0.0
Dy296 Dy 0.50465 0.97928 0.65564 0.0
Dy297 Dy 0.51392 0.0133 0.74364 0.0
C298 C 0.49933 0.02652 0.63194 0.0
O299 O 0.53482 0.97648 0.64924 0.0
O300 O 0.53821 0.00856 0.68041 0.0
O301 O 0.50857 0.96497 0.57488 0.0
O302 O 0.48918 0.95438 0.63846 0.0
O303 O 0.52686 0.98388 0.76946 0.0
O304 O 0.5079 0.9633 0.73396 0.0
O305 O 0.48648 0.00408 0.7745 0.0
O306 O 0.47809 0.99498 0.69175 0.0
O307 O 0.5141 0.02384 0.8272 0.0
O308 O 0.52362 0.04234 0.75942 0.0
C309 C 0.54482 0.99163 0.65391 0.0
O310 O 0.50525 0.00847 0.61114 0.0
O311 O 0.49787 0.03028 0.68507 0.0
C312 C 0.48044 0.95678 0.55006 0.0
C313 C 0.44929 0.96509 0.49718 0.0
C314 C 0.46293 0.9785 0.49317 0.0
C315 C 0.47828 0.97448 0.51964 0.0
C316 C 0.46735 0.94282 0.55169 0.0
C317 C 0.45188 0.94693 0.52551 0.0
C318 C 0.49484 0.95421 0.58602 0.0
C319 C 0.51959 0.96658 0.76822 0.0
C320 C 0.47389 0.00018 0.74387 0.0
C321 C 0.53868 0.04265 0.83779 0.0
C322 C 0.57022 0.04821 0.88591 0.0
C323 C 0.56821 0.02966 0.85968 0.0
C324 C 0.55259 0.02694 0.83563 0.0
C325 C 0.54062 0.0612 0.86354 0.0
C326 C 0.55631 0.06399 0.88737 0.0
C327 C 0.5223 0.03984 0.81235 0.0
H328 H 0.46152 0.99243 0.47077 0.0
H329 H 0.48808 0.98563 0.51796 0.0
H330 H 0.46867 0.92919 0.57539 0.0
H331 H 0.44158 0.93635 0.52978 0.0
H332 H 0.5788 0.01734 0.85727 0.0
H333 H 0.55136 0.01257 0.81531 0.0
H334 H 0.53001 0.07349 0.86529 0.0
H335 H 0.55744 0.07837 0.90769 0.0
Dy336 Dy 0.528 0.48788 0.71665 0.0
Dy337 Dy 0.48778 0.49559 0.6681 0.0
C338 C 0.49649 0.46001 0.7479 0.0
O339 O 0.53252 0.47063 0.6364 0.0
O340 O 0.50321 0.47144 0.61365 0.0
O341 O 0.54295 0.47435 0.7785 0.0
O342 O 0.5565 0.49233 0.7156 0.0
O343 O 0.50771 0.51099 0.61192 0.0
O344 O 0.52716 0.51761 0.67411 0.0
O345 O 0.48877 0.52065 0.72878 0.0
O346 O 0.50911 0.50527 0.78171 0.0
O347 O 0.46722 0.5147 0.63366 0.0
O348 O 0.46263 0.48369 0.65419 0.0
C349 C 0.52048 0.46513 0.60546 0.0
O350 O 0.51352 0.46001 0.72799 0.0
O351 O 0.485 0.47568 0.74144 0.0
C352 C 0.5678 0.49112 0.80308 0.0
C353 C 0.58904 0.50196 0.88531 0.0
C354 C 0.57059 0.49932 0.8988 0.0
C355 C 0.56007 0.49403 0.85816 0.0
C356 C 0.58603 0.49448 0.78926 0.0
C357 C 0.59652 0.49993 0.82983 0.0
C358 C 0.55778 0.48246 0.76097 0.0
C359 C 0.5202 0.52162 0.62825 0.0
C360 C 0.49672 0.51987 0.77369 0.0
C361 C 0.44771 0.49771 0.58128 0.0
C362 C 0.42896 0.49381 0.48825 0.0
C363 C 0.44467 0.50424 0.48495 0.0
C364 C 0.45399 0.50614 0.53094 0.0
C365 C 0.43214 0.48722 0.58447 0.0
C366 C 0.42289 0.48526 0.53864 0.0
C367 C 0.45652 0.50022 0.63169 0.0
H368 H 0.56434 0.50104 0.941 0.0
H369 H 0.54603 0.49162 0.87024 0.0
H370 H 0.59236 0.49219 0.74725 0.0
H371 H 0.61071 0.50168 0.81804 0.0
H372 H 0.44985 0.51083 0.4467 0.0
H373 H 0.46599 0.51429 0.52717 0.0
H374 H 0.42694 0.48072 0.62288 0.0
H375 H 0.41072 0.4774 0.54313 0.0
Dy376 Dy 0.01277 0.52101 0.65721 0.0
Dy377 Dy 1.0028 0.48162 0.73029 0.0
C378 C 0.01793 0.4768 0.60288 0.0
O379 O 0.98527 0.51444 0.63917 0.0
O380 O 0.97601 0.4975 0.71713 0.0
O381 O 0.01412 0.53648 0.58001 0.0
O382 O 0.02328 0.55038 0.65083 0.0
O383 O 1.00166 0.5078 0.78978 0.0
O384 O 0.99572 0.53395 0.7325 0.0
O385 O 0.03307 0.47955 0.71512 0.0
O386 O 0.03573 0.51344 0.70615 0.0
O387 O 1.00607 0.46327 0.80115 0.0
O388 O 0.98926 0.45419 0.74083 0.0
C389 C 0.97243 0.50715 0.67258 0.0
O390 O 0.02545 0.49386 0.60684 0.0
O391 O 1.00614 0.4712 0.64248 0.0
C392 C 0.04094 0.55209 0.56531 0.0
C393 C 0.07334 0.54763 0.49338 0.0
C394 C 0.07235 0.53897 0.54558 0.0
C395 C 0.0563 0.54113 0.58108 0.0
C396 C 0.04209 0.56176 0.51468 0.0
C397 C 0.05822 0.55959 0.47893 0.0
C398 C 0.02332 0.55054 0.59759 0.0
C399 C 0.99628 0.52687 0.7821 0.0
C400 C 0.04268 0.49521 0.71633 0.0
C401 C 0.98024 0.44674 0.83264 0.0
C402 C 0.95148 0.43889 0.91218 0.0
C403 C 0.95711 0.45856 0.90685 0.0
C404 C 0.97132 0.46248 0.86716 0.0
C405 C 0.97483 0.42706 0.83826 0.0
C406 C 0.96053 0.42316 0.87765 0.0
C407 C 0.99454 0.45077 0.78884 0.0
H408 H 0.08358 0.52936 0.55773 0.0
H409 H 0.05564 0.53323 0.6196 0.0
H410 H 0.0303 0.5701 0.50167 0.0
H411 H 0.05864 0.56657 0.43915 0.0
H412 H 0.95022 0.47102 0.93239 0.0
H413 H 0.97517 0.47784 0.8629 0.0
H414 H 0.98153 0.41477 0.8117 0.0
H415 H 0.95655 0.40784 0.88115 0.0
H416 H 0.15729 0.0476 0.22847 0.0
H417 H 0.13087 0.04197 0.29358 0.0
H418 H 0.16098 0.99178 0.36076 0.0
H419 H 0.18759 0.99741 0.29597 0.0
H420 H 0.12449 0.98473 0.34736 0.0
H421 H 0.1287 0.05751 0.45824 0.0
H422 H 0.12773 0.05976 0.38569 0.0
H423 H 0.14695 0.04608 0.40974 0.0
C424 C 0.1583 0.03529 0.25691 0.0
C425 C 0.17466 0.0231 0.25733 0.0
C426 C 0.14318 0.03211 0.29416 0.0
C427 C 0.14406 0.01672 0.33281 0.0
C428 C 0.16003 0.00382 0.33148 0.0
H429 H 0.07226 0.00966 0.63766 0.0
H430 H 0.09813 0.01167 0.56733 0.0
C431 C 0.1752 0.00699 0.29417 0.0
C432 C 0.12858 0.01466 0.3759 0.0
H433 H 0.103 0.03982 0.485 0.0
C434 C 0.11979 0.99675 0.37751 0.0
C435 C 0.12262 0.03024 0.41575 0.0
C436 C 0.13206 0.04942 0.41782 0.0
C437 C 0.10499 0.99417 0.41725 0.0
C438 C 0.0987 0.01001 0.45605 0.0
C439 C 0.10771 0.02776 0.45499 0.0
C440 C 0.08293 0.00844 0.49852 0.0
C441 C 0.0964 0.97438 0.41791 0.0
C442 C 0.0657 0.00623 0.48332 0.0
C443 C 0.05085 0.00509 0.52345 0.0
C444 C 0.0529 0.00624 0.57974 0.0
C445 C 0.07016 0.00867 0.59479 0.0
C446 C 0.08499 0.00982 0.55461 0.0
H447 H 0.10549 0.9621 0.39517 0.0
H448 H 0.09274 0.96953 0.46069 0.0
H449 H 0.08385 0.97638 0.3979 0.0
H450 H 0.06368 0.00559 0.44034 0.0
H451 H 0.03775 0.00338 0.51026 0.0
H452 H 0.46337 0.15849 0.25971 0.0
H453 H 0.47181 0.12789 0.30985 0.0
H454 H 0.45785 0.16122 0.46355 0.0
H455 H 0.44954 0.19166 0.41417 0.0
H456 H 0.49743 0.12127 0.38561 0.0
H457 H 0.42809 0.11214 0.48409 0.0
H458 H 0.4326 0.12831 0.42621 0.0
H459 H 0.43507 0.13702 0.4945 0.0
C460 C 0.46219 0.15928 0.30416 0.0
C461 C 0.4555 0.17742 0.33298 0.0
C462 C 0.46695 0.1418 0.33273 0.0
C463 C 0.46505 0.14218 0.39046 0.0
C464 C 0.45893 0.16043 0.41909 0.0
H465 H 0.48633 0.06574 0.6594 0.0
H466 H 0.47827 0.0928 0.5975 0.0
C467 C 0.45418 0.17782 0.39074 0.0
C468 C 0.46961 0.12371 0.42135 0.0
H469 H 0.45214 0.09314 0.52164 0.0
C470 C 0.48751 0.11493 0.41485 0.0
C471 C 0.45661 0.11547 0.45943 0.0
C472 C 0.43698 0.12358 0.46618 0.0
C473 C 0.49292 0.09864 0.44714 0.0
C474 C 0.48001 0.09082 0.48634 0.0
C475 C 0.46202 0.09927 0.4918 0.0
C476 C 0.48496 0.07425 0.52333 0.0
C477 C 0.51251 0.09043 0.44053 0.0
C478 C 0.49118 0.05478 0.50216 0.0
C479 C 0.49578 0.03925 0.53743 0.0
C480 C 0.4942 0.0429 0.5946 0.0
C481 C 0.48777 0.0624 0.61564 0.0
C482 C 0.48314 0.07789 0.58034 0.0
H483 H 0.52133 0.10078 0.41704 0.0
H484 H 0.5173 0.08792 0.48127 0.0
H485 H 0.51401 0.07562 0.41799 0.0
H486 H 0.49236 0.05156 0.45837 0.0
H487 H 0.50057 0.0244 0.51978 0.0
H488 H 0.32916 0.49939 0.08185 0.0
H489 H 0.3505 0.50676 0.14672 0.0
H490 H 0.34708 0.44702 0.21267 0.0
H491 H 0.32573 0.43967 0.14928 0.0
H492 H 0.34601 0.50596 0.26366 0.0
H493 H 0.40168 0.44999 0.17605 0.0
H494 H 0.38298 0.45819 0.13912 0.0
H495 H 0.38047 0.43926 0.19079 0.0
C496 C 0.33294 0.48783 0.1102 0.0
C497 C 0.3259 0.46878 0.10943 0.0
C498 C 0.34519 0.49205 0.14714 0.0
C499 C 0.35072 0.47728 0.18379 0.0
C500 C 0.34345 0.45846 0.18379 0.0
H501 H 0.41315 0.46077 0.45402 0.0
H502 H 0.39481 0.45842 0.37855 0.0
C503 C 0.33124 0.45426 0.1472 0.0
C504 C 0.36368 0.48147 0.22334 0.0
H505 H 0.40366 0.46315 0.26619 0.0
C506 C 0.35874 0.49682 0.26379 0.0
C507 C 0.38029 0.46951 0.22358 0.0
C508 C 0.38679 0.45344 0.17975 0.0
C509 C 0.36956 0.4999 0.30586 0.0
C510 C 0.38594 0.48753 0.30697 0.0
C511 C 0.3911 0.47258 0.26556 0.0
C512 C 0.39748 0.48917 0.35212 0.0
C513 C 0.36298 0.51578 0.35012 0.0
C514 C 0.40541 0.50713 0.36198 0.0
C515 C 0.41587 0.50857 0.40545 0.0
C516 C 0.41867 0.49204 0.43997 0.0
C517 C 0.41105 0.47392 0.42901 0.0
C518 C 0.40064 0.4725 0.38557 0.0
H519 H 0.3484 0.52073 0.35033 0.0
H520 H 0.36516 0.50999 0.39132 0.0
H521 H 0.37068 0.52927 0.34283 0.0
H522 H 0.40347 0.52008 0.33614 0.0
H523 H 0.42143 0.52278 0.41274 0.0
H524 H 0.06176 0.37884 0.13488 0.0
H525 H 0.05663 0.40324 0.21239 0.0
H526 H 0.0227 0.36298 0.30416 0.0
H527 H 0.02821 0.33825 0.22784 0.0
H528 H 0.0252 0.42334 0.2702 0.0
H529 H 0.06123 0.37173 0.40524 0.0
H530 H 0.06253 0.36727 0.33202 0.0
H531 H 0.04315 0.36078 0.37688 0.0
C532 C 0.05318 0.37518 0.17153 0.0
C533 C 0.04554 0.35646 0.17517 0.0
C534 C 0.0502 0.38919 0.2157 0.0
C535 C 0.0396 0.38475 0.26451 0.0
C536 C 0.03123 0.36656 0.26731 0.0
H537 H 1.00595 0.43986 0.58375 0.0
H538 H 0.01196 0.41873 0.50026 0.0
C539 C 0.0342 0.35254 0.22324 0.0
C540 C 0.03769 0.39883 0.31308 0.0
H541 H 0.04516 0.40149 0.44769 0.0
C542 C 0.02967 0.41864 0.30892 0.0
C543 C 0.04367 0.39272 0.36347 0.0
C544 C 0.05328 0.37204 0.36973 0.0
C545 C 0.02687 0.43225 0.3544 0.0
C546 C 0.03249 0.42595 0.40509 0.0
C547 C 0.04082 0.40628 0.40887 0.0
C548 C 0.02911 0.43913 0.45554 0.0
C549 C 0.01738 0.453 0.34836 0.0
C550 C 0.03697 0.45757 0.45858 0.0
C551 C 0.03358 0.46977 0.50658 0.0
C552 C 0.02229 0.46371 0.55245 0.0
C553 C 0.01468 0.44508 0.54933 0.0
C554 C 0.0181 0.43294 0.50154 0.0
H555 H 0.01055 0.45394 0.31055 0.0
H556 H 0.00719 0.45704 0.38447 0.0
H557 H 0.02743 0.46442 0.34594 0.0
H558 H 0.04579 0.46248 0.42393 0.0
H559 H 0.0397 0.48399 0.50756 0.0
H560 H 0.82956 0.98001 0.10275 0.0
H561 H 0.85709 0.97212 0.03849 0.0
H562 H 0.88089 0.02246 0.10582 0.0
H563 H 0.854 0.02972 0.17168 0.0
H564 H 0.87083 0.9946 0.95862 0.0
H565 H 0.92245 0.98025 0.09941 0.0
H566 H 0.89858 0.98145 0.12286 0.0
H567 H 0.90996 0.00435 0.1153 0.0
C568 C 0.84085 0.98906 0.10487 0.0
C569 C 0.83948 0.00557 0.14238 0.0
C570 C 0.85654 0.98463 0.06777 0.0
C571 C 0.87123 0.99652 0.06761 0.0
C572 C 0.87 0.01272 0.10577 0.0
H573 H 0.94825 0.02377 0.79628 0.0
H574 H 0.92232 0.02124 0.86547 0.0
C575 C 0.85443 0.01706 0.14298 0.0
C576 C 0.88727 0.99313 0.02506 0.0
H577 H 0.93343 0.98984 0.00741 0.0
C578 C 0.88451 0.99325 0.96937 0.0
C579 C 0.90519 0.99098 0.03871 0.0
C580 C 0.90921 0.98902 0.09735 0.0
C581 C 0.8991 0.99228 0.92725 0.0
C582 C 0.91697 0.99177 0.94106 0.0
C583 C 0.91976 0.99062 0.99663 0.0
C584 C 0.93287 0.99315 0.89874 0.0
C585 C 0.89513 0.99176 0.86835 0.0
C586 C 0.94785 0.97864 0.89549 0.0
C587 C 0.96292 0.98025 0.85638 0.0
C588 C 0.9633 0.9964 0.81963 0.0
C589 C 0.94835 0.01099 0.82338 0.0
C590 C 0.93341 0.00947 0.86276 0.0
H591 H 0.88214 0.98522 0.86477 0.0
H592 H 0.89395 0.00748 0.85314 0.0
H593 H 0.90603 0.98275 0.84144 0.0
H594 H 0.94785 0.96598 0.92306 0.0
H595 H 0.97419 0.96875 0.85474 0.0
H596 H 0.50924 0.84119 0.14875 0.0
H597 H 0.51262 0.8697 0.08734 0.0
H598 H 0.56291 0.84015 0.00833 0.0
H599 H 0.55921 0.81116 0.06866 0.0
H600 H 0.53641 0.89683 0.06206 0.0
H601 H 0.53447 0.84641 0.88028 0.0
H602 H 0.53014 0.83783 0.94965 0.0
H603 H 0.55297 0.83977 0.91871 0.0
C604 C 0.52121 0.84095 0.11905 0.0
C605 C 0.5339 0.8239 0.11319 0.0
C606 C 0.52311 0.85723 0.08381 0.0
C607 C 0.53779 0.85687 0.04225 0.0
C608 C 0.55119 0.84051 0.03895 0.0
H609 H 0.54714 0.96427 0.83312 0.0
H610 H 0.55393 0.93791 0.89871 0.0
C611 C 0.54914 0.82403 0.07367 0.0
C612 C 0.53825 0.87299 0.00056 0.0
H613 H 0.53725 0.88089 0.86351 0.0
C614 C 0.53672 0.89337 0.01857 0.0
C615 C 0.53842 0.86845 0.94384 0.0
C616 C 0.53892 0.84696 0.92188 0.0
C617 C 0.53488 0.90931 0.98176 0.0
C618 C 0.53509 0.90474 0.92508 0.0
C619 C 0.53718 0.88438 0.9069 0.0
C620 C 0.53159 0.92063 0.88443 0.0
C621 C 0.53182 0.93081 0.0044 0.0
C622 C 0.51719 0.91935 0.85318 0.0
C623 C 0.5135 0.93413 0.81503 0.0
C624 C 0.52408 0.95063 0.80744 0.0
C625 C 0.53864 0.95183 0.83832 0.0
C626 C 0.54246 0.93685 0.87613 0.0
H627 H 0.5276 0.93136 0.04947 0.0
H628 H 0.54458 0.93822 0.99661 0.0
H629 H 0.52132 0.93971 0.98414 0.0
H630 H 0.50861 0.90699 0.85875 0.0
H631 H 0.50215 0.93274 0.79211 0.0
H632 H 0.71781 0.51071 0.18997 0.0
H633 H 0.69757 0.51333 0.1185 0.0
H634 H 0.65144 0.51756 0.24292 0.0
H635 H 0.67158 0.51531 0.31466 0.0
H636 H 0.67213 0.48539 0.10347 0.0
H637 H 0.63881 0.56348 0.13816 0.0
H638 H 0.65967 0.55528 0.16476 0.0
H639 H 0.63849 0.54844 0.19869 0.0
C640 C 0.70336 0.51272 0.20222 0.0
C641 C 0.69633 0.51283 0.25813 0.0
C642 C 0.6918 0.51407 0.16127 0.0
C643 C 0.67297 0.5158 0.17528 0.0
C644 C 0.6659 0.51654 0.23106 0.0
H645 H 0.58933 0.48327 0.98413 0.0
H646 H 0.60962 0.48753 0.05382 0.0
C647 C 0.67745 0.51508 0.27204 0.0
C648 C 0.66079 0.51523 0.13168 0.0
H649 H 0.62595 0.54179 0.07808 0.0
C650 C 0.66212 0.49778 0.09773 0.0
C651 C 0.64776 0.53143 0.12401 0.0
C652 C 0.64614 0.55081 0.15796 0.0
C653 C 0.65054 0.4959 0.05723 0.0
C654 C 0.6372 0.51186 0.05057 0.0
C655 C 0.63611 0.52952 0.08358 0.0
C656 C 0.62423 0.51025 0.00967 0.0
C657 C 0.65263 0.47687 0.02169 0.0
C658 C 0.62548 0.52192 0.9622 0.0
C659 C 0.6139 0.5195 0.92214 0.0
C660 C 0.60069 0.50554 0.92917 0.0
C661 C 0.59919 0.4943 0.97761 0.0
C662 C 0.61087 0.49661 0.01734 0.0
H663 H 0.66561 0.46772 0.02484 0.0
H664 H 0.64143 0.46741 0.03487 0.0
H665 H 0.65191 0.48066 0.97797 0.0
H666 H 0.63567 0.53258 0.9556 0.0
H667 H 0.6153 0.52852 0.88558 0.0
H668 H 0.99671 0.62029 0.23894 0.0
H669 H 0.99232 0.5986 0.16095 0.0
H670 H 0.98129 0.65156 0.06591 0.0
H671 H 0.98629 0.67336 0.14293 0.0
H672 H 0.96379 0.59523 0.097 0.0
H673 H 0.02458 0.62074 0.97337 0.0
H674 H 0.01947 0.62609 0.04619 0.0
H675 H 0.00769 0.64073 0.99823 0.0
C676 C 0.99328 0.62734 0.20152 0.0
C677 C 0.99208 0.64859 0.19705 0.0
C678 C 0.99067 0.61492 0.15709 0.0
C679 C 0.98684 0.62345 0.10725 0.0
C680 C 0.98457 0.64464 0.10366 0.0
H681 H 0.98686 0.56783 0.78256 0.0
H682 H 0.98233 0.59146 0.86152 0.0
C683 C 0.98722 0.6571 0.14804 0.0
C684 C 0.98627 0.61014 0.05833 0.0
H685 H 0.00802 0.59794 0.93001 0.0
C686 C 0.97341 0.59585 0.06039 0.0
C687 C 0.99888 0.61093 0.01065 0.0
C688 C 0.01355 0.6253 0.00688 0.0
C689 C 0.97277 0.58239 0.01591 0.0
C690 C 0.98552 0.58305 0.96853 0.0
C691 C 0.9982 0.59752 0.96625 0.0
C692 C 0.98649 0.56841 0.92155 0.0
C693 C 0.95836 0.56773 0.01983 0.0
C694 C 0.99026 0.54756 0.92902 0.0
C695 C 0.99286 0.53398 0.88395 0.0
C696 C 0.99188 0.541 0.83036 0.0
C697 C 0.9877 0.56186 0.82318 0.0
C698 C 0.98511 0.57542 0.86829 0.0
H699 H 0.94675 0.57296 0.05081 0.0
H700 H 0.95333 0.56561 0.97952 0.0
H701 H 0.96415 0.55278 0.03261 0.0
H702 H 0.99177 0.54183 0.96954 0.0
H703 H 0.9961 0.51804 0.89107 0.0
H704 H 0.03527 0.23626 0.23866 0.0
H705 H 0.02296 0.20931 0.2943 0.0
H706 H 0.06972 0.16872 0.23549 0.0
H707 H 0.08259 0.19592 0.18161 0.0
H708 H 0.01396 0.17389 0.25237 0.0
H709 H 0.06415 0.15822 0.39884 0.0
H710 H 0.0633 0.18091 0.35888 0.0
H711 H 0.07404 0.1574 0.32835 0.0
C712 C 0.04325 0.22182 0.23889 0.0
C713 C 0.05998 0.21828 0.20577 0.0
C714 C 0.03608 0.20637 0.27031 0.0
C715 C 0.04547 0.18708 0.26932 0.0
C716 C 0.06239 0.18361 0.23761 0.0
H717 H 0.02045 0.06943 0.38711 0.0
H718 H 0.03267 0.09795 0.33732 0.0
C719 C 0.06964 0.1991 0.20636 0.0
C720 C 0.03688 0.17023 0.29795 0.0
H721 H 0.04282 0.13377 0.39276 0.0
C722 C 0.02019 0.16522 0.28342 0.0
C723 C 0.04507 0.15895 0.3383 0.0
C724 C 0.06254 0.16424 0.35745 0.0
C725 C 0.01163 0.14894 0.30744 0.0
C726 C 0.01995 0.13752 0.34716 0.0
C727 C 0.03657 0.14256 0.36197 0.0
C728 C 0.01166 0.12021 0.374 0.0
C729 C 0.99397 0.14377 0.28941 0.0
C730 C 0.99569 0.12335 0.41046 0.0
C731 C 0.98873 0.10712 0.43924 0.0
C732 C 0.9977 0.08754 0.43206 0.0
C733 C 0.01337 0.08439 0.39402 0.0
C734 C 0.02034 0.10061 0.36546 0.0
H735 H 0.99116 0.15145 0.25093 0.0
H736 H 0.99399 0.12714 0.28287 0.0
H737 H 0.98279 0.14866 0.3221 0.0
H738 H 0.98896 0.13845 0.41803 0.0
H739 H 0.97679 0.11009 0.46883 0.0
H740 H 0.29872 0.99247 0.28736 0.0
H741 H 0.32492 0.97953 0.33122 0.0
H742 H 0.3342 0.04059 0.37607 0.0
H743 H 0.30778 0.05369 0.33294 0.0
H744 H 0.36072 0.99132 0.29819 0.0
H745 H 0.33748 0.00793 0.51942 0.0
H746 H 0.32202 0.00642 0.4686 0.0
H747 H 0.33389 0.02864 0.47414 0.0
C748 C 0.30606 0.00312 0.30774 0.0
C749 C 0.30116 0.0241 0.30699 0.0
C750 C 0.32108 0.9957 0.33241 0.0
C751 C 0.33134 0.0091 0.35719 0.0
C752 C 0.32626 0.03001 0.35777 0.0
H753 H 0.43039 0.00234 0.50162 0.0
H754 H 0.40184 0.01184 0.46627 0.0
C755 C 0.31128 0.03747 0.33282 0.0
C756 C 0.34814 0.00134 0.37872 0.0
H757 H 0.36866 0.99773 0.49549 0.0
C758 C 0.36246 0.99253 0.34138 0.0
C759 C 0.35027 0.00306 0.43498 0.0
C760 C 0.33508 0.01187 0.47684 0.0
C761 C 0.37914 0.98592 0.35861 0.0
C762 C 0.38134 0.98778 0.4149 0.0
C763 C 0.3669 0.99632 0.45236 0.0
C764 C 0.39876 0.98173 0.43549 0.0
C765 C 0.39441 0.9777 0.31614 0.0
C766 C 0.40645 0.96159 0.43009 0.0
C767 C 0.42297 0.95614 0.44952 0.0
C768 C 0.43198 0.97073 0.47507 0.0
C769 C 0.42405 0.99082 0.48099 0.0
C770 C 0.40763 0.99625 0.46136 0.0
H771 H 0.39189 0.98196 0.27386 0.0
H772 H 0.4074 0.98332 0.32447 0.0
H773 H 0.39584 0.9609 0.31758 0.0
H774 H 0.39964 0.95007 0.41114 0.0
H775 H 0.42872 0.94056 0.44426 0.0
H776 H 0.48446 0.30108 0.41283 0.0
H777 H 0.5007 0.32736 0.45189 0.0
H778 H 0.49078 0.36605 0.3167 0.0
H779 H 0.47472 0.3399 0.27717 0.0
H780 H 0.53151 0.35245 0.40018 0.0
H781 H 0.4646 0.39468 0.46561 0.0
H782 H 0.46706 0.36789 0.44856 0.0
H783 H 0.46873 0.38608 0.39495 0.0
C784 C 0.48604 0.31504 0.39096 0.0
C785 C 0.47807 0.31859 0.34245 0.0
C786 C 0.49534 0.32998 0.41322 0.0
C787 C 0.49681 0.34859 0.38717 0.0
C788 C 0.48967 0.35177 0.33741 0.0
H789 H 0.51391 0.46695 0.49984 0.0
H790 H 0.51301 0.43784 0.43824 0.0
C791 C 0.48036 0.33692 0.31524 0.0
C792 C 0.50396 0.36555 0.41471 0.0
H793 H 0.49033 0.41099 0.47972 0.0
C794 C 0.52259 0.3653 0.41765 0.0
C795 C 0.49221 0.38214 0.43755 0.0
C796 C 0.47201 0.38277 0.43706 0.0
C797 C 0.52983 0.38163 0.44199 0.0
C798 C 0.51804 0.39834 0.4643 0.0
C799 C 0.4994 0.39832 0.46181 0.0
C800 C 0.52422 0.41591 0.49244 0.0
C801 C 0.54997 0.38105 0.4428 0.0
C802 C 0.5319 0.41338 0.54172 0.0
C803 C 0.53281 0.43013 0.57639 0.0
C804 C 0.52573 0.44943 0.56244 0.0
C805 C 0.51956 0.45218 0.51106 0.0
C806 C 0.51899 0.43556 0.47604 0.0
H807 H 0.55741 0.37028 0.41111 0.0
H808 H 0.55478 0.39632 0.43595 0.0
H809 H 0.55331 0.37596 0.48361 0.0
H810 H 0.53568 0.39834 0.55575 0.0
H811 H 0.53729 0.42768 0.61639 0.0
H812 H 0.21671 0.45065 0.25142 0.0
H813 H 0.19152 0.46811 0.31202 0.0
H814 H 0.16062 0.47561 0.17511 0.0
H815 H 0.1858 0.45888 0.11392 0.0
H816 H 0.17654 0.51041 0.28566 0.0
H817 H 0.12612 0.45307 0.30647 0.0
H818 H 0.15009 0.44615 0.29025 0.0
H819 H 0.13728 0.45673 0.23854 0.0
C820 C 0.2045 0.45584 0.23429 0.0
C821 C 0.20331 0.4534 0.17776 0.0
C822 C 0.19013 0.46573 0.26898 0.0
C823 C 0.1743 0.47304 0.24783 0.0
C824 C 0.17271 0.46982 0.19213 0.0
H825 H 0.07351 0.53758 0.38496 0.0
H826 H 0.09887 0.52199 0.32221 0.0
C827 C 0.18708 0.46011 0.15734 0.0
C828 C 0.15998 0.4855 0.28276 0.0
H829 H 0.11644 0.48599 0.34241 0.0
C830 C 0.1634 0.5051 0.29844 0.0
C831 C 0.1429 0.4785 0.29847 0.0
C832 C 0.13879 0.45742 0.28299 0.0
C833 C 0.14998 0.51812 0.32906 0.0
C834 C 0.1329 0.51107 0.34534 0.0
C835 C 0.12954 0.4914 0.32961 0.0
C836 C 0.11839 0.52349 0.38013 0.0
C837 C 0.1541 0.5394 0.34251 0.0
C838 C 0.12111 0.53008 0.43287 0.0
C839 C 0.1067 0.53935 0.46853 0.0
C840 C 0.08926 0.54187 0.45236 0.0
C841 C 0.0868 0.53615 0.3985 0.0
C842 C 0.10124 0.52703 0.36275 0.0
H843 H 0.16533 0.54434 0.31336 0.0
H844 H 0.14205 0.55037 0.34159 0.0
H845 H 0.15828 0.53988 0.38439 0.0
H846 H 0.13416 0.5272 0.44747 0.0
H847 H 0.10906 0.54375 0.50959 0.0
H848 H 0.05018 0.78717 0.24627 0.0
H849 H 0.05452 0.81496 0.18315 0.0
H850 H 0.07135 0.77199 0.04917 0.0
H851 H 0.06694 0.74394 0.11235 0.0
H852 H 0.08332 0.8266 0.11203 0.0
H853 H 0.02746 0.80452 -0.0005 0.0
H854 H 0.03183 0.79368 0.0642 0.0
H855 H 0.04583 0.78533 0.00189 0.0
C856 C 0.05522 0.78359 0.20366 0.0
C857 C 0.05813 0.76336 0.1842 0.0
C858 C 0.05761 0.7995 0.16757 0.0
C859 C 0.06294 0.79552 0.11138 0.0
C860 C 0.06687 0.77536 0.09225 0.0
H861 H 0.08213 0.89632 0.88781 0.0
H862 H 0.08646 0.86474 0.93747 0.0
C863 C 0.06438 0.75938 0.12833 0.0
C864 C 0.06316 0.81255 0.07291 0.0
H865 H 0.04141 0.83358 0.96994 0.0
C866 C 0.07431 0.82807 0.08054 0.0
C867 C 0.05118 0.81449 0.03245 0.0
C868 C 0.03827 0.79874 0.0241 0.0
C869 C 0.07354 0.84573 0.04953 0.0
C870 C 0.06152 0.84767 0.00919 0.0
C871 C 0.05067 0.83195 0.00072 0.0
C872 C 0.05903 0.86648 0.97798 0.0
C873 C 0.085 0.86249 0.06185 0.0
C874 C 0.04205 0.8776 0.98323 0.0
C875 C 0.03951 0.89552 0.95475 0.0
C876 C 0.05392 0.90266 0.92043 0.0
C877 C 0.07086 0.89135 0.91466 0.0
C878 C 0.07337 0.87334 0.943 0.0
H879 H 0.09042 0.86046 0.10186 0.0
H880 H 0.09662 0.86253 0.02917 0.0
H881 H 0.07711 0.87751 0.06262 0.0
H882 H 0.03081 0.87254 0.01003 0.0
H883 H 0.02636 0.904 0.96043 0.0
H884 H 0.69013 0.05503 0.20682 0.0
H885 H 0.66467 0.05735 0.15299 0.0
H886 H 0.70111 0.06363 0.00513 0.0
H887 H 0.72677 0.06114 0.05888 0.0
H888 H 0.65156 0.08641 0.08493 0.0
H889 H 0.67524 0.01425 0.96967 0.0
H890 H 0.685 0.02214 0.0294 0.0
H891 H 0.69105 0.03325 0.964 0.0
C892 C 0.69272 0.05725 0.16298 0.0
C893 C 0.71045 0.05783 0.137 0.0
C894 C 0.67816 0.05849 0.13225 0.0
C895 C 0.68105 0.06032 0.07501 0.0
C896 C 0.69865 0.06177 0.04915 0.0
H897 H 0.59047 0.08076 0.87964 0.0
H898 H 0.61782 0.08496 0.92291 0.0
C899 C 0.71326 0.0604 0.07985 0.0
C900 C 0.66561 0.05988 0.04266 0.0
H901 H 0.64851 0.03178 0.94679 0.0
C902 C 0.6509 0.07456 0.05444 0.0
C903 C 0.66475 0.04422 0.00348 0.0
C904 C 0.67976 0.02745 0.99108 0.0
C905 C 0.63522 0.07385 0.0286 0.0
C906 C 0.63442 0.05826 0.98918 0.0
C907 C 0.64924 0.04377 0.97681 0.0
C908 C 0.61796 0.05594 0.96258 0.0
C909 C 0.61941 0.08931 0.04528 0.0
C910 C 0.60925 0.03806 0.96953 0.0
C911 C 0.59376 0.03557 0.9446 0.0
C912 C 0.58669 0.05093 0.91221 0.0
C913 C 0.59548 0.06881 0.90506 0.0
C914 C 0.61106 0.07123 0.92978 0.0
H915 H 0.62062 0.09714 0.08487 0.0
H916 H 0.61885 0.10095 0.01325 0.0
H917 H 0.60649 0.08209 0.04927 0.0
H918 H 0.61436 0.02608 0.9947 0.0
H919 H 0.58717 0.02173 0.95129 0.0
H920 H 0.51208 0.68875 0.00528 0.0
H921 H 0.50964 0.65806 0.95089 0.0
H922 H 0.47039 0.63851 0.07834 0.0
H923 H 0.47241 0.6695 0.13203 0.0
H924 H 0.51797 0.62004 0.97593 0.0
H925 H 0.44563 0.62932 0.94508 0.0
H926 H 0.45706 0.64963 0.97107 0.0
H927 H 0.44903 0.63027 0.01622 0.0
C928 C 0.5028 0.67798 0.02131 0.0
C929 C 0.49237 0.68149 0.07264 0.0
C930 C 0.5014 0.66048 0.99029 0.0
C931 C 0.48965 0.6461 0.01019 0.0
C932 C 0.47917 0.64963 0.06144 0.0
H933 H 0.50547 0.52155 0.87893 0.0
H934 H 0.50235 0.55136 0.94053 0.0
C935 C 0.48038 0.66728 0.09217 0.0
C936 C 0.48923 0.62693 0.9786 0.0
H937 H 0.46131 0.59701 0.92073 0.0
C938 C 0.50559 0.61504 0.96371 0.0
C939 C 0.47308 0.62051 0.96226 0.0
C940 C 0.45524 0.63319 0.97398 0.0
C941 C 0.5063 0.59697 0.93278 0.0
C942 C 0.49007 0.59019 0.91798 0.0
C943 C 0.47369 0.60207 0.93286 0.0
C944 C 0.49001 0.5715 0.88406 0.0
C945 C 0.52453 0.58572 0.91473 0.0
C946 C 0.48312 0.57263 0.83334 0.0
C947 C 0.48452 0.55555 0.79863 0.0
C948 C 0.49296 0.53702 0.81382 0.0
C949 C 0.49907 0.53566 0.86579 0.0
C950 C 0.49743 0.55272 0.90086 0.0
H951 H 0.53568 0.59566 0.91644 0.0
H952 H 0.52678 0.57293 0.94259 0.0
H953 H 0.52528 0.57949 0.87217 0.0
H954 H 0.47726 0.58694 0.81967 0.0
H955 H 0.47967 0.55713 0.75888 0.0
H956 H 0.82848 0.45188 0.30953 0.0
H957 H 0.85515 0.44464 0.24242 0.0
H958 H 0.823 0.41634 0.13368 0.0
H959 H 0.79606 0.42378 0.20074 0.0
H960 H 0.87296 0.41011 0.1911 0.0
H961 H 0.84343 0.46132 0.04075 0.0
H962 H 0.83345 0.46024 0.11123 0.0
H963 H 0.83032 0.44076 0.06238 0.0
C964 C 0.82713 0.4437 0.2719 0.0
C965 C 0.81016 0.43846 0.26026 0.0
C966 C 0.84238 0.43966 0.23346 0.0
C967 C 0.84098 0.43031 0.18269 0.0
C968 C 0.82427 0.424 0.17215 0.0
H969 H 0.92311 0.41723 0.89561 0.0
H970 H 0.89649 0.41224 0.961 0.0
C971 C 0.80894 0.42818 0.21048 0.0
C972 C 0.85683 0.42839 0.14002 0.0
H973 H 0.8726 0.44556 0.01413 0.0
C974 C 0.87285 0.41771 0.1522 0.0
C975 C 0.85666 0.43844 0.08943 0.0
C976 C 0.84012 0.45099 0.07515 0.0
C977 C 0.88879 0.41706 0.11542 0.0
C978 C 0.88866 0.42743 0.06549 0.0
C979 C 0.87255 0.43757 0.0525 0.0
C980 C 0.90533 0.42905 0.02753 0.0
C981 C 0.90569 0.40545 0.13035 0.0
C982 C 0.91901 0.44021 0.04346 0.0
C983 C 0.93416 0.44316 0.00625 0.0
C984 C 0.93586 0.43495 0.95252 0.0
C985 C 0.92225 0.42352 0.93697 0.0
C986 C 0.90704 0.42071 0.9741 0.0
H987 H 0.90258 0.39443 0.16319 0.0
H988 H 0.91326 0.39717 0.09385 0.0
H989 H 0.91458 0.41627 0.14558 0.0
H990 H 0.91777 0.44703 0.08431 0.0
H991 H 0.94449 0.45194 0.0194 0.0
H992 H 0.06725 0.20907 0.87399 0.0
H993 H 0.06016 0.17693 0.8361 0.0
H994 H 1.00323 0.19536 0.8723 0.0
H995 H 0.01028 0.22766 0.9112 0.0
H996 H 0.01075 0.15776 0.90555 0.0
H997 H 0.04333 0.16301 0.69231 0.0
H998 H 0.05888 0.16653 0.74106 0.0
H999 H 0.03951 0.18457 0.73935 0.0
C1000 C 0.0532 0.20654 0.87275 0.0
C1001 C 0.03933 0.2211 0.89507 0.0
C1002 C 0.04916 0.18809 0.85097 0.0
C1003 C 0.03115 0.1838 0.8502 0.0
C1004 C 0.01724 0.19835 0.87207 0.0
H1005 H 1.00511 0.07566 0.67595 0.0
H1006 H 0.0081 0.11057 0.70504 0.0
C1007 C 0.02128 0.2168 0.89431 0.0
C1008 C 0.02698 0.16363 0.82973 0.0
H1009 H 0.03682 0.12969 0.72174 0.0
C1010 C 0.0163 0.15173 0.86511 0.0
C1011 C 0.03394 0.15579 0.77663 0.0
C1012 C 0.04439 0.16824 0.73497 0.0
C1013 C 0.01292 0.13201 0.84966 0.0
C1014 C 0.02084 0.1237 0.79791 0.0
C1015 C 0.03098 0.13587 0.76176 0.0
C1016 C 0.01889 0.1024 0.78059 0.0
C1017 C 1.00073 0.12041 0.88887 0.0
C1018 C 0.0242 0.08608 0.81282 0.0
C1019 C 0.02237 0.06609 0.79653 0.0
C1020 C 0.01544 0.06193 0.74711 0.0
C1021 C 0.01048 0.07828 0.71428 0.0
C1022 C 0.01218 0.09828 0.73087 0.0
H1023 H 0.99138 0.1308 0.9173 0.0
H1024 H 0.99259 0.11062 0.86646 0.0
H1025 H 0.0091 0.11062 0.91418 0.0
H1026 H 0.02992 0.08876 0.85051 0.0
H1027 H 0.0265 0.0539 0.82257 0.0
H1028 H 0.32309 0.0075 0.05441 0.0
H1029 H 0.35327 0.00312 0.00317 0.0
H1030 H 0.33045 0.01435 0.85191 0.0
H1031 H 0.30014 0.01916 0.9033 0.0
H1032 H 0.3694 0.97747 0.92359 0.0
H1033 H 0.36691 0.0556 0.84395 0.0
H1034 H 0.34998 0.0477 0.89601 0.0
H1035 H 0.34924 0.04132 0.82477 0.0
C1036 C 0.32443 0.00875 0.01013 0.0
C1037 C 0.30915 0.01372 0.983 0.0
C1038 C 0.34175 0.00635 0.98085 0.0
C1039 C 0.34426 0.00884 0.92371 0.0
C1040 C 0.32897 0.01295 0.89614 0.0
H1041 H 0.44359 -0.00123 0.69141 0.0
H1042 H 0.41202 0.00034 0.73316 0.0
C1043 C 0.31162 0.01556 0.92551 0.0
C1044 C 0.36291 0.00732 0.89361 0.0
H1045 H 0.39274 0.03354 0.81161 0.0
C1046 C 0.37446 0.98975 0.89912 0.0
C1047 C 0.36964 0.02337 0.86174 0.0
C1048 C 0.35838 0.04314 0.85659 0.0
C1049 C 0.39243 0.98779 0.87374 0.0
C1050 C 0.39909 0.00382 0.84206 0.0
C1051 C 0.38754 0.02125 0.83575 0.0
C1052 C 0.41821 0.00299 0.8167 0.0
C1053 C 0.40422 0.96858 0.88082 0.0
C1054 C 0.43214 0.00423 0.8498 0.0
C1055 C 0.45017 0.00353 0.82613 0.0
C1056 C 0.45468 0.00146 0.76877 0.0
C1057 C 0.44064 0.00032 0.73569 0.0
C1058 C 0.42258 0.00122 0.75944 0.0
H1059 H 0.39622 0.95623 0.89778 0.0
H1060 H 0.41194 0.9633 0.84092 0.0
H1061 H 0.41409 0.97166 0.90955 0.0
H1062 H 0.42904 0.0058 0.89406 0.0
H1063 H 0.46059 0.00443 0.8529 0.0
H1064 H 0.47696 0.3158 0.07804 0.0
H1065 H 0.48267 0.34412 0.01782 0.0
H1066 H 0.44428 0.32501 0.91445 0.0
H1067 H 0.4389 0.29605 0.97365 0.0
H1068 H 0.47562 0.33734 0.85514 0.0
H1069 H 0.44694 0.39446 0.01642 0.0
H1070 H 0.46451 0.37727 0.03774 0.0
H1071 H 0.44379 0.36782 0.02256 0.0
C1072 C 0.47 0.31727 0.04186 0.0
C1073 C 0.45744 0.30358 0.0308 0.0
C1074 C 0.47309 0.3337 0.00792 0.0
C1075 C 0.46358 0.33696 0.96242 0.0
C1076 C 0.4516 0.32291 0.94977 0.0
H1077 H 0.46221 0.45341 0.79418 0.0
H1078 H 0.45266 0.42323 0.84269 0.0
C1079 C 0.4485 0.3064 0.98373 0.0
C1080 C 0.4661 0.35517 0.92861 0.0
H1081 H 0.46384 0.4069 0.9369 0.0
C1082 C 0.4729 0.35256 0.87284 0.0
C1083 C 0.46219 0.37504 0.95147 0.0
C1084 C 0.45378 0.37888 0.01019 0.0
C1085 C 0.47664 0.36926 0.83994 0.0
C1086 C 0.47377 0.38907 0.86371 0.0
C1087 C 0.46623 0.39171 0.91884 0.0
C1088 C 0.47932 0.40713 0.83293 0.0
C1089 C 0.48365 0.36553 0.78002 0.0
C1090 C 0.49748 0.40822 0.8121 0.0
C1091 C 0.50296 0.42537 0.7845 0.0
C1092 C 0.49041 0.44194 0.77746 0.0
C1093 C 0.47221 0.44092 0.79879 0.0
C1094 C 0.46673 0.42368 0.82647 0.0
H1095 H 0.47976 0.35088 0.76458 0.0
H1096 H 0.47849 0.3779 0.75435 0.0
H1097 H 0.49862 0.36485 0.7749 0.0
H1098 H 0.50752 0.39588 0.81781 0.0
H1099 H 0.5171 0.42562 0.76895 0.0
H1100 H 0.18837 0.48456 0.95083 0.0
H1101 H 0.15902 0.48964 0.91733 0.0
H1102 H 0.18321 0.47006 0.75466 0.0
H1103 H 0.21292 0.46621 0.78693 0.0
H1104 H 0.15852 0.50056 0.74791 0.0
H1105 H 0.12834 0.44508 0.88984 0.0
H1106 H 0.13669 0.46528 0.92603 0.0
H1107 H 0.15219 0.44821 0.88161 0.0
C1108 C 0.18764 0.48174 0.9076 0.0
C1109 C 0.20321 0.47481 0.87184 0.0
C1110 C 0.17067 0.4843 0.88868 0.0
C1111 C 0.16869 0.47963 0.83377 0.0
C1112 C 0.18426 0.4735 0.79742 0.0
H1113 H 0.06368 0.45965 0.72772 0.0
H1114 H 0.09454 0.45564 0.75226 0.0
C1115 C 0.20129 0.47115 0.81614 0.0
C1116 C 0.15044 0.48107 0.81431 0.0
H1117 H 0.10789 0.46566 0.84209 0.0
C1118 C 0.14749 0.49283 0.76839 0.0
C1119 C 0.13604 0.47065 0.84006 0.0
C1120 C 0.1385 0.45643 0.88671 0.0
C1121 C 0.13056 0.49486 0.74843 0.0
C1122 C 0.11591 0.48534 0.77606 0.0
C1123 C 0.11898 0.47319 0.82117 0.0
C1124 C 0.0973 0.48783 0.75923 0.0
C1125 C 0.12873 0.50685 0.69717 0.0
C1126 C 0.08837 0.50722 0.75529 0.0
C1127 C 0.07081 0.50955 0.74063 0.0
C1128 C 0.06153 0.49253 0.73055 0.0
C1129 C 0.07038 0.4731 0.73512 0.0
C1130 C 0.08806 0.47079 0.74923 0.0
H1131 H 0.14197 0.50724 0.67146 0.0
H1132 H 0.11915 0.50041 0.67189 0.0
H1133 H 0.12362 0.52273 0.70902 0.0
H1134 H 0.09488 0.52064 0.76436 0.0
H1135 H 0.0644 0.52476 0.73806 0.0
H1136 H 0.97045 0.79283 0.44198 0.0
H1137 H 0.96788 0.82696 0.48388 0.0
H1138 H 0.01554 0.81126 0.56249 0.0
H1139 H 0.01821 0.77728 0.52102 0.0
H1140 H 0.98861 0.83305 0.63173 0.0
H1141 H 1.00049 0.87072 0.43093 0.0
H1142 H 0.98173 0.8554 0.43771 0.0
H1143 H 1.00429 0.84363 0.43759 0.0
C1144 C 0.98035 0.79664 0.46833 0.0
C1145 C 0.99454 0.78228 0.47804 0.0
C1146 C 0.97889 0.81617 0.49212 0.0
C1147 C 0.99171 0.82179 0.52557 0.0
C1148 C 1.00551 0.80729 0.53679 0.0
H1149 H 0.02308 0.92824 0.68292 0.0
H1150 H 0.01911 0.89406 0.65032 0.0
C1151 C 0.00694 0.78779 0.51326 0.0
C1152 C 0.99117 0.84286 0.54797 0.0
H1153 H 0.99491 0.89197 0.51018 0.0
C1154 C 0.98992 0.84594 0.60516 0.0
C1155 C 0.99291 0.85969 0.51327 0.0
C1156 C 0.99509 0.85727 0.45145 0.0
C1157 C 0.99042 0.86536 0.62855 0.0
C1158 C 0.99246 0.88211 0.59381 0.0
C1159 C 0.99333 0.87911 0.53673 0.0
C1160 C 0.9944 0.90275 0.61562 0.0
C1161 C 0.98865 0.8678 0.69029 0.0
C1162 C 0.98199 0.91908 0.60626 0.0
C1163 C 0.98424 0.9387 0.62471 0.0
C1164 C 0.99909 0.94241 0.65241 0.0
C1165 C 0.01148 0.92597 0.66184 0.0
C1166 C 0.00917 0.90637 0.64354 0.0
H1167 H 0.9823 0.85493 0.71102 0.0
H1168 H 1.00229 0.86829 0.70338 0.0
H1169 H 0.9805 0.88214 0.7044 0.0
H1170 H 0.97056 0.91666 0.58449 0.0
H1171 H 0.97447 0.95098 0.61656 0.0
H1172 H 0.7155 0.99033 0.48944 0.0
H1173 H 0.68518 0.98599 0.53449 0.0
H1174 H 0.6645 0.9896 0.37785 0.0
H1175 H 0.69454 0.9949 0.33286 0.0
H1176 H 0.64471 0.01471 0.4524 0.0
H1177 H 0.65412 0.93901 0.54332 0.0
H1178 H 0.66979 0.95601 0.56271 0.0
H1179 H 0.6706 0.94816 0.49182 0.0
C1180 C 0.70455 0.99005 0.46442 0.0
C1181 C 0.70758 0.993 0.40736 0.0
C1182 C 0.68721 0.98731 0.49024 0.0
C1183 C 0.67252 0.98723 0.45958 0.0
C1184 C 0.67561 0.98949 0.40243 0.0
H1185 H 0.56255 0.96115 0.58549 0.0
H1186 H 0.59341 0.95962 0.53811 0.0
C1187 C 0.6929 0.99232 0.37662 0.0
C1188 C 0.65374 0.98653 0.48738 0.0
H1189 H 0.62687 0.95937 0.57625 0.0
C1190 C 0.6408 0.00252 0.47916 0.0
C1191 C 0.64852 0.97053 0.52192 0.0
C1192 C 0.66143 0.95235 0.53009 0.0
C1193 C 0.62298 0.00319 0.50524 0.0
C1194 C 0.61797 0.98767 0.54165 0.0
C1195 C 0.63076 0.97141 0.54892 0.0
C1196 C 0.59952 0.98813 0.57243 0.0
C1197 C 0.60962 0.02043 0.4929 0.0
C1198 C 0.5928 0.00442 0.6085 0.0
C1199 C 0.57516 0.00539 0.63545 0.0
C1200 C 0.56386 0.98997 0.62737 0.0
C1201 C 0.57083 0.97332 0.59258 0.0
C1202 C 0.58848 0.97241 0.56546 0.0
H1203 H 0.61401 0.0276 0.45337 0.0
H1204 H 0.59603 0.01516 0.49098 0.0
H1205 H 0.6085 0.03223 0.52599 0.0
H1206 H 0.60118 0.0165 0.61561 0.0
H1207 H 0.57036 0.01833 0.66237 0.0
H1208 H 0.50133 0.67496 0.36156 0.0
H1209 H 0.50793 0.64343 0.40851 0.0
H1210 H 0.55748 0.66466 0.45038 0.0
H1211 H 0.5509 0.69663 0.40323 0.0
H1212 H 0.54423 0.6156 0.38596 0.0
H1213 H 0.5246 0.64711 0.599 0.0
H1214 H 0.51525 0.65881 0.54132 0.0
H1215 H 0.53851 0.6607 0.54946 0.0
C1216 C 0.51356 0.67307 0.38122 0.0
C1217 C 0.52547 0.68841 0.37943 0.0
C1218 C 0.51737 0.65497 0.4076 0.0
C1219 C 0.53312 0.65181 0.433 0.0
C1220 C 0.54521 0.66693 0.43107 0.0
H1221 H 0.54516 0.54786 0.64895 0.0
H1222 H 0.55216 0.57867 0.59963 0.0
C1223 C 0.54146 0.6851 0.40414 0.0
C1224 C 0.53646 0.63261 0.46177 0.0
H1225 H 0.52918 0.61167 0.588 0.0
C1226 C 0.54128 0.61471 0.43024 0.0
C1227 C 0.53271 0.63159 0.51945 0.0
C1228 C 0.52745 0.65051 0.55471 0.0
C1229 C 0.54174 0.59567 0.45481 0.0
C1230 C 0.53674 0.59453 0.51218 0.0
C1231 C 0.53291 0.61254 0.54401 0.0
C1232 C 0.5338 0.57495 0.53923 0.0
C1233 C 0.54729 0.57696 0.41889 0.0
C1234 C 0.52115 0.56261 0.52174 0.0
C1235 C 0.51716 0.54499 0.54964 0.0
C1236 C 0.52559 0.53942 0.59615 0.0
C1237 C 0.53845 0.55166 0.61323 0.0
C1238 C 0.54247 0.56929 0.58512 0.0
H1239 H 0.55656 0.58041 0.38197 0.0
H1240 H 0.55407 0.56473 0.44164 0.0
H1241 H 0.53511 0.57129 0.40449 0.0
H1242 H 0.51392 0.56692 0.48739 0.0
H1243 H 0.5071 0.53604 0.53549 0.0
H1244 H 0.80349 0.53115 0.57871 0.0
H1245 H 0.83242 0.5318 0.61583 0.0
H1246 H 0.85976 0.50084 0.46941 0.0
H1247 H 0.83097 0.49956 0.43282 0.0
H1248 H 0.86907 0.48329 0.56526 0.0
H1249 H 0.87452 0.5664 0.57227 0.0
H1250 H 0.8538 0.55837 0.60633 0.0
H1251 H 0.85893 0.55496 0.53313 0.0
C1252 C 0.81567 0.52458 0.55425 0.0
C1253 C 0.81484 0.51542 0.50253 0.0
C1254 C 0.83224 0.52511 0.57537 0.0
C1255 C 0.84832 0.51655 0.5452 0.0
C1256 C 0.84756 0.50765 0.49335 0.0
H1257 H 0.96015 0.52647 0.5845 0.0
H1258 H 0.92969 0.52881 0.55787 0.0
C1259 C 0.83106 0.50713 0.47221 0.0
C1260 C 0.86587 0.51593 0.56835 0.0
H1261 H 0.89678 0.54571 0.61152 0.0
C1262 C 0.87511 0.49694 0.57554 0.0
C1263 C 0.87381 0.53374 0.58136 0.0
C1264 C 0.86487 0.55455 0.57252 0.0
C1265 C 0.89207 0.49527 0.59508 0.0
C1266 C 0.89994 0.51307 0.60867 0.0
C1267 C 0.89068 0.53206 0.60163 0.0
C1268 C 0.91823 0.51229 0.62713 0.0
C1269 C 0.90168 0.47445 0.59933 0.0
C1270 C 0.92193 0.50251 0.6756 0.0
C1271 C 0.93944 0.50108 0.69102 0.0
C1272 C 0.95359 0.50949 0.65837 0.0
C1273 C 0.94967 0.51973 0.61064 0.0
C1274 C 0.93221 0.52114 0.59532 0.0
H1275 H 0.8958 0.46279 0.57567 0.0
H1276 H 0.91627 0.47437 0.58414 0.0
H1277 H 0.90044 0.47005 0.64305 0.0
H1278 H 0.9113 0.49589 0.70138 0.0
H1279 H 0.94191 0.49319 0.72816 0.0
loop_
_geom_bond_atom_site_label_1
_geom_bond_atom_site_label_2
_geom_bond_distance
_geom_bond_site_symmetry_2
_ccdc_geom_bond_type
P0 O11 1.490 . S
P0 C14 1.812 . S
P0 C20 1.803 . S
P0 C26 1.819 . S
H1 C15 0.941 . S
H2 C16 0.939 . S
H3 C18 0.940 . S
H4 C19 0.940 . S
H5 C21 0.939 . S
H6 C22 0.942 . S
H7 C24 0.940 . S
H8 C25 0.939 . S
H9 C27 0.941 . S
H10 C31 0.939 . S
O11 P0 1.490 . S
H12 C28 0.939 . S
H13 C30 0.940 . S
C14 P0 1.812 . S
C14 C15 1.389 . S
C14 C19 1.391 . S
C15 H1 0.941 . S
C15 C14 1.389 . S
C15 C16 1.397 . S
C16 H2 0.939 . S
C16 C15 1.397 . S
C16 C17 1.378 . S
C17 C16 1.378 . S
C17 C18 1.378 . S
C18 H3 0.940 . S
C18 C17 1.378 . S
C18 C19 1.396 . S
C19 H4 0.940 . S
C19 C14 1.391 . S
C19 C18 1.396 . S
C20 P0 1.803 . S
C20 C21 1.378 . S
C20 C25 1.400 . S
C21 H5 0.939 . S
C21 C20 1.378 . S
C21 C22 1.361 . S
C22 H6 0.942 . S
C22 C21 1.361 . S
C22 C23 1.369 . S
C23 C22 1.369 . S
C23 C24 1.404 . S
C24 H7 0.940 . S
C24 C23 1.404 . S
C24 C25 1.389 . S
C25 H8 0.939 . S
C25 C20 1.400 . S
C25 C24 1.389 . S
C26 P0 1.819 . S
C26 C27 1.391 . S
C26 C31 1.391 . S
C27 H9 0.941 . S
C27 C26 1.391 . S
C27 C28 1.396 . S
C28 H12 0.939 . S
C28 C27 1.396 . S
C28 C29 1.397 . S
C29 C28 1.397 . S
C29 C30 1.385 . S
C30 H13 0.940 . S
C30 C29 1.385 . S
C30 C31 1.388 . S
C31 H10 0.939 . S
C31 C26 1.391 . S
C31 C30 1.388 . S
P32 O43 1.490 . S
P32 C46 1.812 . S
P32 C52 1.803 . S
P32 C58 1.819 . S
H33 C47 0.941 . S
H34 C48 0.939 . S
H35 C50 0.940 . S
H36 C51 0.940 . S
H37 C53 0.939 . S
H38 C54 0.942 . S
H39 C56 0.940 . S
H40 C57 0.939 . S
H41 C59 0.941 . S
H42 C63 0.939 . S
O43 P32 1.490 . S
H44 C60 0.939 . S
H45 C62 0.940 . S
C46 P32 1.812 . S
C46 C47 1.389 . S
C46 C51 1.391 1_455 S
C47 H33 0.941 . S
C47 C46 1.389 . S
C47 C48 1.397 . S
C48 H34 0.939 . S
C48 C47 1.397 . S
C48 C49 1.378 1_455 S
C49 C48 1.378 1_655 S
C49 C50 1.378 . S
C50 H35 0.940 . S
C50 C49 1.378 . S
C50 C51 1.396 . S
C51 H36 0.940 . S
C51 C46 1.391 1_655 S
C51 C50 1.396 . S
C52 P32 1.803 . S
C52 C53 1.378 . S
C52 C57 1.400 1_455 S
C53 H37 0.939 . S
C53 C52 1.378 . S
C53 C54 1.361 . S
C54 H38 0.942 . S
C54 C53 1.361 . S
C54 C55 1.369 1_455 S
C55 C54 1.369 1_655 S
C55 C56 1.404 . S
C56 H39 0.940 . S
C56 C55 1.404 . S
C56 C57 1.389 . S
C57 H40 0.939 . S
C57 C52 1.400 1_655 S
C57 C56 1.389 . S
C58 P32 1.819 . S
C58 C59 1.391 . S
C58 C63 1.391 1_455 S
C59 H41 0.941 . S
C59 C58 1.391 . S
C59 C60 1.396 . S
C60 H44 0.939 . S
C60 C59 1.396 . S
C60 C61 1.397 1_455 S
C61 C60 1.397 1_655 S
C61 C62 1.385 . S
C62 H45 0.940 . S
C62 C61 1.385 . S
C62 C63 1.388 . S
C63 H42 0.939 . S
C63 C58 1.391 1_655 S
C63 C62 1.388 . S
P64 O75 1.490 . S
P64 C78 1.812 . S
P64 C84 1.803 . S
P64 C90 1.819 . S
H65 C79 0.941 . S
H66 C80 0.939 . S
H67 C82 0.940 . S
H68 C83 0.950 . S
H69 C85 0.939 . S
H70 C86 0.942 . S
H71 C88 0.940 . S
H72 C89 0.961 . S
H73 C91 0.941 . S
H74 C95 0.932 1_565 S
O75 P64 1.490 . S
H76 C92 0.939 . S
H77 C94 0.940 . S
C78 P64 1.812 . S
C78 C79 1.389 . S
C78 C83 1.374 1_545 S
C79 H65 0.941 . S
C79 C78 1.389 . S
C79 C80 1.397 . S
C80 H66 0.939 . S
C80 C79 1.397 . S
C80 C81 1.378 . S
C81 C80 1.378 . S
C81 C82 1.378 1_545 S
C82 H67 0.940 . S
C82 C81 1.378 1_565 S
C82 C83 1.403 . S
C83 H68 0.950 . S
C83 C78 1.374 1_565 S
C83 C82 1.403 . S
C84 P64 1.803 . S
C84 C85 1.378 . S
C84 C89 1.369 1_545 S
C85 H69 0.939 . S
C85 C84 1.378 . S
C85 C86 1.361 . S
C86 H70 0.942 . S
C86 C85 1.361 . S
C86 C87 1.369 . S
C87 C86 1.369 . S
C87 C88 1.404 1_545 S
C88 H71 0.940 . S
C88 C87 1.404 1_565 S
C88 C89 1.399 . S
C89 H72 0.961 . S
C89 C84 1.369 1_565 S
C89 C88 1.399 . S
C90 P64 1.819 . S
C90 C91 1.391 . S
C90 C95 1.391 . S
C91 H73 0.941 . S
C91 C90 1.391 . S
C91 C92 1.396 . S
C92 H76 0.939 . S
C92 C91 1.396 . S
C92 C93 1.397 . S
C93 C92 1.397 . S
C93 C94 1.385 1_545 S
C94 H77 0.940 . S
C94 C93 1.385 1_565 S
C94 C95 1.388 1_565 S
C95 H74 0.932 1_545 S
C95 C90 1.391 . S
C95 C94 1.388 1_545 S
P96 O107 1.490 . S
P96 C110 1.812 . S
P96 C116 1.803 . S
P96 C122 1.819 . S
H97 C111 0.941 . S
H98 C112 0.939 . S
H99 C114 0.940 . S
H100 C115 0.940 . S
H101 C117 0.939 . S
H102 C118 0.942 . S
H103 C120 0.940 . S
H104 C121 0.939 . S
H105 C123 0.941 . S
H106 C127 0.939 . S
O107 P96 1.490 . S
H108 C124 0.939 . S
H109 C126 0.940 . S
C110 P96 1.812 . S
C110 C111 1.389 . S
C110 C115 1.391 . S
C111 H97 0.941 . S
C111 C110 1.389 . S
C111 C112 1.397 . S
C112 H98 0.939 . S
C112 C111 1.397 . S
C112 C113 1.378 . S
C113 C112 1.378 . S
C113 C114 1.378 . S
C114 H99 0.940 . S
C114 C113 1.378 . S
C114 C115 1.396 . S
C115 H100 0.940 . S
C115 C110 1.391 . S
C115 C114 1.396 . S
C116 P96 1.803 . S
C116 C117 1.378 . S
C116 C121 1.400 . S
C117 H101 0.939 . S
C117 C116 1.378 . S
C117 C118 1.361 . S
C118 H102 0.942 . S
C118 C117 1.361 . S
C118 C119 1.369 . S
C119 C118 1.369 . S
C119 C120 1.404 . S
C120 H103 0.940 . S
C120 C119 1.404 . S
C120 C121 1.389 . S
C121 H104 0.939 . S
C121 C116 1.400 . S
C121 C120 1.389 . S
C122 P96 1.819 . S
C122 C123 1.391 . S
C122 C127 1.391 1_554 S
C123 H105 0.941 . S
C123 C122 1.391 . S
C123 C124 1.396 1_554 S
C124 H108 0.939 . S
C124 C123 1.396 1_556 S
C124 C125 1.397 . S
C125 C124 1.397 . S
C125 C126 1.385 . S
C126 H109 0.940 . S
C126 C125 1.385 . S
C126 C127 1.388 . S
C127 H106 0.939 . S
C127 C122 1.391 1_556 S
C127 C126 1.388 . S
P128 O139 1.490 . S
P128 C142 1.812 . S
P128 C148 1.803 1_556 S
P128 C154 1.819 1_556 S
H129 C143 0.941 . S
H130 C144 0.939 . S
H131 C146 0.940 . S
H132 C147 0.940 . S
H133 C149 0.939 . S
H134 C150 0.942 . S
H135 C152 0.940 1_556 S
H136 C153 0.939 . S
H137 C155 0.941 . S
H138 C159 0.939 . S
O139 P128 1.490 . S
H140 C156 0.939 . S
H141 C158 0.940 . S
C142 P128 1.812 . S
C142 C143 1.389 . S
C142 C147 1.391 . S
C143 H129 0.941 . S
C143 C142 1.389 . S
C143 C144 1.397 . S
C144 H130 0.939 . S
C144 C143 1.397 . S
C144 C145 1.378 . S
C145 C144 1.378 . S
C145 C146 1.378 . S
C146 H131 0.940 . S
C146 C145 1.378 . S
C146 C147 1.396 . S
C147 H132 0.940 . S
C147 C142 1.391 . S
C147 C146 1.396 . S
C148 P128 1.803 1_554 S
C148 C149 1.378 . S
C148 C153 1.400 1_554 S
C149 H133 0.939 . S
C149 C148 1.378 . S
C149 C150 1.361 . S
C150 H134 0.942 . S
C150 C149 1.361 . S
C150 C151 1.369 . S
C151 C150 1.369 . S
C151 C152 1.404 . S
C152 H135 0.940 1_554 S
C152 C151 1.404 . S
C152 C153 1.389 1_554 S
C153 H136 0.939 . S
C153 C148 1.400 1_556 S
C153 C152 1.389 1_556 S
C154 P128 1.819 1_554 S
C154 C155 1.391 . S
C154 C159 1.391 . S
C155 H137 0.941 . S
C155 C154 1.391 . S
C155 C156 1.396 . S
C156 H140 0.939 . S
C156 C155 1.396 . S
C156 C157 1.397 . S
C157 C156 1.397 . S
C157 C158 1.385 . S
C158 H141 0.940 . S
C158 C157 1.385 . S
C158 C159 1.388 . S
C159 H138 0.939 . S
C159 C154 1.391 . S
C159 C158 1.388 . S
P160 O171 1.490 . S
P160 C174 1.812 . S
P160 C180 1.803 . S
P160 C186 1.819 . S
H161 C175 0.941 . S
H162 C176 0.939 . S
H163 C178 0.940 . S
H164 C179 0.940 . S
H165 C181 0.939 . S
H166 C182 0.942 . S
H167 C184 0.940 . S
H168 C185 0.939 . S
H169 C187 0.941 . S
H170 C191 0.939 . S
O171 P160 1.490 . S
H172 C188 0.939 . S
H173 C190 0.940 . S
C174 P160 1.812 . S
C174 C175 1.389 1_554 S
C174 C179 1.391 . S
C175 H161 0.941 . S
C175 C174 1.389 1_556 S
C175 C176 1.397 . S
C176 H162 0.939 . S
C176 C175 1.397 . S
C176 C177 1.378 . S
C177 C176 1.378 . S
C177 C178 1.378 . S
C178 H163 0.940 . S
C178 C177 1.378 . S
C178 C179 1.396 1_556 S
C179 H164 0.940 . S
C179 C174 1.391 . S
C179 C178 1.396 1_554 S
C180 P160 1.803 . S
C180 C181 1.378 . S
C180 C185 1.400 . S
C181 H165 0.939 . S
C181 C180 1.378 . S
C181 C182 1.361 . S
C182 H166 0.942 . S
C182 C181 1.361 . S
C182 C183 1.369 . S
C183 C182 1.369 . S
C183 C184 1.404 . S
C184 H167 0.940 . S
C184 C183 1.404 . S
C184 C185 1.389 . S
C185 H168 0.939 . S
C185 C180 1.400 . S
C185 C184 1.389 . S
C186 P160 1.819 . S
C186 C187 1.391 . S
C186 C191 1.391 . S
C187 H169 0.941 . S
C187 C186 1.391 . S
C187 C188 1.396 . S
C188 H172 0.939 . S
C188 C187 1.396 . S
C188 C189 1.397 . S
C189 C188 1.397 . S
C189 C190 1.385 . S
C190 H173 0.940 . S
C190 C189 1.385 . S
C190 C191 1.388 . S
C191 H170 0.939 . S
C191 C186 1.391 . S
C191 C190 1.388 . S
P192 O203 1.490 . S
P192 C206 1.812 . S
P192 C212 1.803 . S
P192 C218 1.819 . S
H193 C207 0.941 . S
H194 C208 0.939 1_556 S
H195 C210 0.940 . S
H196 C211 0.943 . S
H197 C213 0.939 . S
H198 C214 0.942 . S
H199 C216 0.940 . S
H200 C217 0.950 . S
H201 C219 0.941 . S
H202 C223 0.932 1_565 S
O203 P192 1.490 . S
H204 C220 0.939 . S
H205 C222 0.940 . S
C206 P192 1.812 . S
C206 C207 1.389 . S
C206 C211 1.387 1_545 S
C207 H193 0.941 . S
C207 C206 1.389 . S
C207 C208 1.397 . S
C208 H194 0.939 1_554 S
C208 C207 1.397 . S
C208 C209 1.378 . S
C209 C208 1.378 . S
C209 C210 1.388 1_545 S
C210 H195 0.940 . S
C210 C209 1.388 1_565 S
C210 C211 1.398 . S
C211 H196 0.943 . S
C211 C206 1.387 1_565 S
C211 C210 1.398 . S
C212 P192 1.803 . S
C212 C213 1.378 . S
C212 C217 1.380 1_545 S
C213 H197 0.939 . S
C213 C212 1.378 . S
C213 C214 1.361 . S
C214 H198 0.942 . S
C214 C213 1.361 . S
C214 C215 1.369 . S
C215 C214 1.369 . S
C215 C216 1.404 1_545 S
C216 H199 0.940 . S
C216 C215 1.404 1_565 S
C216 C217 1.398 . S
C217 H200 0.950 . S
C217 C212 1.380 1_565 S
C217 C216 1.398 . S
C218 P192 1.819 . S
C218 C219 1.391 . S
C218 C223 1.391 . S
C219 H201 0.941 . S
C219 C218 1.391 . S
C219 C220 1.396 . S
C220 H204 0.939 . S
C220 C219 1.396 . S
C220 C221 1.397 . S
C221 C220 1.397 . S
C221 C222 1.385 1_545 S
C222 H205 0.940 . S
C222 C221 1.385 1_565 S
C222 C223 1.388 1_565 S
C223 H202 0.932 1_545 S
C223 C218 1.391 . S
C223 C222 1.388 1_545 S
P224 O235 1.490 . S
P224 C238 1.812 . S
P224 C244 1.803 . S
P224 C250 1.819 . S
H225 C239 0.941 . S
H226 C240 0.939 . S
H227 C242 0.940 . S
H228 C243 0.940 . S
H229 C245 0.939 . S
H230 C246 0.942 . S
H231 C248 0.940 . S
H232 C249 0.939 . S
H233 C251 0.941 . S
H234 C255 0.939 . S
O235 P224 1.490 . S
H236 C252 0.939 . S
H237 C254 0.940 . S
C238 P224 1.812 . S
C238 C239 1.389 . S
C238 C243 1.391 . S
C239 H225 0.941 . S
C239 C238 1.389 . S
C239 C240 1.397 . S
C240 H226 0.939 . S
C240 C239 1.397 . S
C240 C241 1.378 . S
C241 C240 1.378 . S
C241 C242 1.378 . S
C242 H227 0.940 . S
C242 C241 1.378 . S
C242 C243 1.396 . S
C243 H228 0.940 . S
C243 C238 1.391 . S
C243 C242 1.396 . S
C244 P224 1.803 . S
C244 C245 1.378 . S
C244 C249 1.400 . S
C245 H229 0.939 . S
C245 C244 1.378 . S
C245 C246 1.361 . S
C246 H230 0.942 . S
C246 C245 1.361 . S
C246 C247 1.369 . S
C247 C246 1.369 . S
C247 C248 1.404 . S
C248 H231 0.940 . S
C248 C247 1.404 . S
C248 C249 1.389 . S
C249 H232 0.939 . S
C249 C244 1.400 . S
C249 C248 1.389 . S
C250 P224 1.819 . S
C250 C251 1.391 . S
C250 C255 1.391 . S
C251 H233 0.941 . S
C251 C250 1.391 . S
C251 C252 1.396 . S
C252 H236 0.939 . S
C252 C251 1.396 . S
C252 C253 1.397 . S
C253 C252 1.397 . S
C253 C254 1.385 . S
C254 H237 0.940 . S
C254 C253 1.385 . S
C254 C255 1.388 . S
C255 H234 0.939 . S
C255 C250 1.391 . S
C255 C254 1.388 . S
Dy256 O259 2.307 1_545 S
Dy256 O261 2.395 1_655 S
Dy256 O262 2.379 . S
Dy256 O264 2.339 . S
Dy256 O266 2.298 . S
Dy256 O270 2.275 1_655 S
Dy256 C278 2.738 . S
Dy257 O260 2.298 . S
Dy257 O263 2.275 1_455 S
Dy257 O265 2.307 1_565 S
Dy257 O267 2.384 1_455 S
Dy257 O268 2.379 . S
Dy257 O271 2.339 . S
Dy257 C287 2.738 . S
C258 O270 1.254 1_565 S
C258 O271 1.257 . S
O259 Dy256 2.307 1_565 S
O259 C269 1.266 . S
O260 Dy257 2.298 . S
O260 C269 1.236 1_455 S
O261 Dy256 2.395 1_455 S
O261 C278 1.255 1_455 S
O262 Dy256 2.379 . S
O262 C278 1.249 . S
O263 Dy257 2.275 1_655 S
O263 C279 1.254 1_565 S
O264 Dy256 2.339 . S
O264 C279 1.257 . S
O265 Dy257 2.307 1_545 S
O265 C280 1.266 . S
O266 Dy256 2.298 . S
O266 C280 1.236 1_655 S
O267 Dy257 2.384 1_655 S
O267 C287 1.234 1_655 S
O268 Dy257 2.379 . S
O268 C287 1.249 . S
C269 O259 1.266 . S
C269 O260 1.236 1_655 S
O270 Dy256 2.275 1_455 S
O270 C258 1.254 1_545 S
O271 Dy257 2.339 . S
O271 C258 1.257 . S
C272 C275 1.344 1_655 S
C272 C276 1.328 . S
C272 C278 1.516 . S
C273 C274 1.304 1_655 S
C273 C277 1.323 . S
C274 C273 1.304 1_455 S
C274 C275 1.371 . S
C274 H288 0.930 . S
C275 C272 1.344 1_455 S
C275 C274 1.371 . S
C275 H289 0.931 . S
C276 C272 1.328 . S
C276 C277 1.433 . S
C276 H290 0.931 . S
C277 C273 1.323 . S
C277 C276 1.433 . S
C277 H291 0.933 . S
C278 Dy256 2.738 . S
C278 O261 1.255 1_655 S
C278 O262 1.249 . S
C278 C272 1.516 . S
C279 O263 1.254 1_545 S
C279 O264 1.257 . S
C280 O265 1.266 . S
C280 O266 1.236 1_455 S
C281 C284 1.300 1_455 S
C281 C285 1.328 . S
C281 C287 1.516 . S
C282 C283 1.283 1_455 S
C282 C286 1.323 . S
C283 C282 1.283 1_655 S
C283 C284 1.371 . S
C283 H292 0.953 . S
C284 C281 1.300 1_655 S
C284 C283 1.371 . S
C284 H293 0.977 . S
C285 C281 1.328 . S
C285 C286 1.433 . S
C285 H294 0.931 . S
C286 C282 1.323 . S
C286 C285 1.433 . S
C286 H295 0.933 . S
C287 Dy257 2.738 . S
C287 O267 1.234 1_455 S
C287 O268 1.249 . S
C287 C281 1.516 . S
H288 C274 0.930 . S
H289 C275 0.931 . S
H290 C276 0.931 . S
H291 C277 0.933 . S
H292 C283 0.953 . S
H293 C284 0.977 . S
H294 C285 0.931 . S
H295 C286 0.933 . S
Dy296 O299 2.307 . S
Dy296 O301 2.395 1_565 S
Dy296 O302 2.379 . S
Dy296 O304 2.339 . S
Dy296 O306 2.298 . S
Dy296 O310 2.275 1_565 S
Dy296 C318 2.738 . S
Dy297 O300 2.298 . S
Dy297 O303 2.275 1_545 S
Dy297 O305 2.307 . S
Dy297 O307 2.395 1_545 S
Dy297 O308 2.379 . S
Dy297 O311 2.339 . S
Dy297 C327 2.738 . S
C298 O310 1.254 . S
C298 O311 1.257 . S
O299 Dy296 2.307 . S
O299 C309 1.266 . S
O300 Dy297 2.298 . S
O300 C309 1.236 1_545 S
O301 Dy296 2.395 1_545 S
O301 C318 1.255 1_545 S
O302 Dy296 2.379 . S
O302 C318 1.249 . S
O303 Dy297 2.275 1_565 S
O303 C319 1.254 . S
O304 Dy296 2.339 . S
O304 C319 1.257 . S
O305 Dy297 2.307 . S
O305 C320 1.266 . S
O306 Dy296 2.298 . S
O306 C320 1.236 1_565 S
O307 Dy297 2.395 1_565 S
O307 C327 1.255 1_565 S
O308 Dy297 2.379 . S
O308 C327 1.249 . S
C309 O299 1.266 . S
C309 O300 1.236 1_565 S
O310 Dy296 2.275 1_545 S
O310 C298 1.254 . S
O311 Dy297 2.339 . S
O311 C298 1.257 . S
C312 C315 1.344 1_565 S
C312 C316 1.328 . S
C312 C318 1.516 . S
C313 C314 1.303 . S
C313 C317 1.323 . S
C314 C313 1.303 . S
C314 C315 1.371 1_565 S
C314 H328 0.932 1_565 S
C315 C312 1.344 1_545 S
C315 C314 1.371 1_545 S
C315 H329 0.931 . S
C316 C312 1.328 . S
C316 C317 1.433 . S
C316 H330 0.931 . S
C317 C313 1.323 . S
C317 C316 1.433 . S
C317 H331 0.933 . S
C318 Dy296 2.738 . S
C318 O301 1.255 1_565 S
C318 O302 1.249 . S
C318 C312 1.516 . S
C319 O303 1.254 . S
C319 O304 1.257 . S
C320 O305 1.266 . S
C320 O306 1.236 1_545 S
C321 C324 1.303 1_545 S
C321 C325 1.328 . S
C321 C327 1.516 . S
C322 C323 1.314 . S
C322 C326 1.323 . S
C323 C322 1.314 . S
C323 C324 1.364 1_545 S
C323 H332 0.921 1_545 S
C324 C321 1.303 1_565 S
C324 C323 1.364 1_565 S
C324 H333 0.980 . S
C325 C321 1.328 . S
C325 C326 1.433 . S
C325 H334 0.931 . S
C326 C322 1.323 . S
C326 C325 1.433 . S
C326 H335 0.933 . S
C327 Dy297 2.738 . S
C327 O307 1.255 1_545 S
C327 O308 1.249 . S
C327 C321 1.516 . S
H328 C314 0.932 1_545 S
H329 C315 0.931 . S
H330 C316 0.931 . S
H331 C317 0.933 . S
H332 C323 0.921 1_565 S
H333 C324 0.980 . S
H334 C325 0.931 . S
H335 C326 0.933 . S
Dy336 O339 2.307 . S
Dy336 O341 2.395 . S
Dy336 O342 2.379 . S
Dy336 O344 2.339 . S
Dy336 O346 2.298 . S
Dy336 O350 2.275 . S
Dy336 C358 2.738 . S
Dy337 O340 2.298 . S
Dy337 O343 2.275 . S
Dy337 O345 2.307 . S
Dy337 O347 2.395 . S
Dy337 O348 2.379 . S
Dy337 O351 2.339 . S
Dy337 C367 2.738 . S
C338 O350 1.254 . S
C338 O351 1.257 . S
O339 Dy336 2.307 . S
O339 C349 1.266 . S
O340 Dy337 2.298 . S
O340 C349 1.236 . S
O341 Dy336 2.395 . S
O341 C358 1.255 . S
O342 Dy336 2.379 . S
O342 C358 1.249 . S
O343 Dy337 2.275 . S
O343 C359 1.254 . S
O344 Dy336 2.339 . S
O344 C359 1.257 . S
O345 Dy337 2.307 . S
O345 C360 1.266 . S
O346 Dy336 2.298 . S
O346 C360 1.236 . S
O347 Dy337 2.395 . S
O347 C367 1.255 . S
O348 Dy337 2.379 . S
O348 C367 1.249 . S
C349 O339 1.266 . S
C349 O340 1.236 . S
O350 Dy336 2.275 . S
O350 C338 1.254 . S
O351 Dy337 2.339 . S
O351 C338 1.257 . S
C352 C355 1.344 . S
C352 C356 1.328 . S
C352 C358 1.516 . S
C353 C354 1.304 . S
C353 C357 1.323 . S
C354 C353 1.304 . S
C354 C355 1.371 . S
C354 H368 0.930 . S
C355 C352 1.344 . S
C355 C354 1.371 . S
C355 H369 0.931 . S
C356 C352 1.328 . S
C356 C357 1.433 . S
C356 H370 0.931 . S
C357 C353 1.323 . S
C357 C356 1.433 . S
C357 H371 0.933 . S
C358 Dy336 2.738 . S
C358 O341 1.255 . S
C358 O342 1.249 . S
C358 C352 1.516 . S
C359 O343 1.254 . S
C359 O344 1.257 . S
C360 O345 1.266 . S
C360 O346 1.236 . S
C361 C364 1.344 . S
C361 C365 1.328 . S
C361 C367 1.516 . S
C362 C363 1.304 . S
C362 C366 1.323 . S
C363 C362 1.304 . S
C363 C364 1.371 . S
C363 H372 0.930 . S
C364 C361 1.344 . S
C364 C363 1.371 . S
C364 H373 0.931 . S
C365 C361 1.328 . S
C365 C366 1.433 . S
C365 H374 0.931 . S
C366 C362 1.323 . S
C366 C365 1.433 . S
C366 H375 0.933 . S
C367 Dy337 2.738 . S
C367 O347 1.255 . S
C367 O348 1.249 . S
C367 C361 1.516 . S
H368 C354 0.930 . S
H369 C355 0.931 . S
H370 C356 0.931 . S
H371 C357 0.933 . S
H372 C363 0.930 . S
H373 C364 0.931 . S
H374 C365 0.931 . S
H375 C366 0.933 . S
Dy376 O379 2.307 1_455 S
Dy376 O381 2.395 . S
Dy376 O382 2.379 . S
Dy376 O384 2.339 . S
Dy376 O386 2.298 . S
Dy376 O390 2.275 . S
Dy376 C398 2.738 . S
Dy377 O380 2.298 . S
Dy377 O383 2.290 . S
Dy377 O385 2.307 1_655 S
Dy377 O387 2.395 . S
Dy377 O388 2.379 . S
Dy377 O391 2.339 . S
Dy377 C407 2.738 . S
C378 O390 1.254 . S
C378 O391 1.257 1_455 S
O379 Dy376 2.307 1_655 S
O379 C389 1.266 . S
O380 Dy377 2.298 . S
O380 C389 1.236 . S
O381 Dy376 2.395 . S
O381 C398 1.255 . S
O382 Dy376 2.379 . S
O382 C398 1.249 . S
O383 Dy377 2.290 . S
O383 C399 1.242 1_655 S
O384 Dy376 2.339 . S
O384 C399 1.257 . S
O385 Dy377 2.307 1_455 S
O385 C400 1.266 . S
O386 Dy376 2.298 . S
O386 C400 1.236 . S
O387 Dy377 2.395 . S
O387 C407 1.255 . S
O388 Dy377 2.379 . S
O388 C407 1.249 . S
C389 O379 1.266 . S
C389 O380 1.236 . S
O390 Dy376 2.275 . S
O390 C378 1.254 . S
O391 Dy377 2.339 . S
O391 C378 1.257 1_655 S
C392 C395 1.344 . S
C392 C396 1.328 . S
C392 C398 1.516 . S
C393 C394 1.304 . S
C393 C397 1.323 . S
C394 C393 1.304 . S
C394 C395 1.371 . S
C394 H408 0.930 . S
C395 C392 1.344 . S
C395 C394 1.371 . S
C395 H409 0.931 . S
C396 C392 1.328 . S
C396 C397 1.433 . S
C396 H410 0.931 . S
C397 C393 1.323 . S
C397 C396 1.433 . S
C397 H411 0.933 . S
C398 Dy376 2.738 . S
C398 O381 1.255 . S
C398 O382 1.249 . S
C398 C392 1.516 . S
C399 O383 1.242 1_455 S
C399 O384 1.257 . S
C400 O385 1.266 . S
C400 O386 1.236 . S
C401 C404 1.344 . S
C401 C405 1.328 . S
C401 C407 1.516 . S
C402 C403 1.304 . S
C402 C406 1.323 . S
C403 C402 1.304 . S
C403 C404 1.371 . S
C403 H412 0.930 . S
C404 C401 1.344 . S
C404 C403 1.371 . S
C404 H413 0.931 . S
C405 C401 1.328 . S
C405 C406 1.433 . S
C405 H414 0.931 . S
C406 C402 1.323 . S
C406 C405 1.433 . S
C406 H415 0.933 . S
C407 Dy377 2.738 . S
C407 O387 1.255 . S
C407 O388 1.249 . S
C407 C401 1.516 . S
H408 C394 0.930 . S
H409 C395 0.931 . S
H410 C396 0.931 . S
H411 C397 0.933 . S
H412 C403 0.930 . S
H413 C404 0.931 . S
H414 C405 0.931 . S
H415 C406 0.933 . S
H416 C424 0.929 . S
H417 C426 0.930 . S
H418 C428 0.930 . S
H419 C431 0.929 . S
H420 C434 0.930 . S
H421 C436 0.960 . S
H422 C436 0.927 1_545 S
H423 C436 0.960 . S
C424 H416 0.929 . S
C424 C425 1.391 . S
C424 C426 1.384 . S
C425 C424 1.391 . S
C425 C431 1.375 1_545 S
C426 H417 0.930 . S
C426 C424 1.384 . S
C426 C427 1.372 . S
C427 C426 1.372 . S
C427 C428 1.400 1_545 S
C427 C432 1.490 . S
C428 H418 0.930 . S
C428 C427 1.400 1_565 S
C428 C431 1.386 . S
H429 C445 0.930 . S
H430 C446 0.931 . S
C431 H419 0.929 . S
C431 C425 1.375 1_565 S
C431 C428 1.386 . S
C432 C427 1.490 . S
C432 C434 1.395 . S
C432 C435 1.403 1_545 S
H433 C439 0.930 . S
C434 H420 0.930 . S
C434 C432 1.395 . S
C434 C437 1.403 . S
C435 C432 1.403 1_565 S
C435 C436 1.524 . S
C435 C439 1.400 . S
C436 H421 0.960 . S
C436 H422 0.927 1_565 S
C436 H423 0.960 . S
C436 C435 1.524 . S
C437 C434 1.403 . S
C437 C438 1.392 . S
C437 C441 1.495 . S
C438 C437 1.392 . S
C438 C439 1.385 1_545 S
C438 C440 1.478 . S
C439 H433 0.930 . S
C439 C435 1.400 . S
C439 C438 1.385 1_565 S
C440 C438 1.478 . S
C440 C442 1.381 . S
C440 C446 1.383 1_545 S
C441 C437 1.495 . S
C441 H447 0.959 . S
C441 H448 0.961 . S
C441 H449 0.960 . S
C442 C440 1.381 . S
C442 C443 1.394 . S
C442 H450 0.930 . S
C443 C442 1.394 . S
C443 C444 1.408 . S
C443 H451 0.929 . S
C444 C443 1.408 . S
C444 C445 1.355 1_545 S
C445 H429 0.930 . S
C445 C444 1.355 1_565 S
C445 C446 1.379 . S
C446 H430 0.931 . S
C446 C440 1.383 1_565 S
C446 C445 1.379 . S
H447 C441 0.959 . S
H448 C441 0.961 . S
H449 C441 0.960 . S
H450 C442 0.930 . S
H451 C443 0.929 . S
H452 C460 0.929 . S
H453 C462 0.930 . S
H454 C464 0.930 . S
H455 C467 0.929 . S
H456 C470 0.930 . S
H457 C472 0.960 . S
H458 C472 0.960 . S
H459 C472 0.960 . S
C460 H452 0.929 . S
C460 C461 1.377 . S
C460 C462 1.384 . S
C461 C460 1.377 . S
C461 C467 1.390 . S
C462 H453 0.930 . S
C462 C460 1.384 . S
C462 C463 1.372 . S
C463 C462 1.372 . S
C463 C464 1.400 . S
C463 C468 1.490 . S
C464 H454 0.930 . S
C464 C463 1.400 . S
C464 C467 1.386 . S
H465 C481 0.930 . S
H466 C482 0.931 . S
C467 H455 0.929 . S
C467 C461 1.390 . S
C467 C464 1.386 . S
C468 C463 1.490 . S
C468 C470 1.395 . S
C468 C471 1.403 . S
H469 C475 0.930 . S
C470 H456 0.930 . S
C470 C468 1.395 . S
C470 C473 1.403 . S
C471 C468 1.403 . S
C471 C472 1.524 . S
C471 C475 1.400 . S
C472 H457 0.960 . S
C472 H458 0.960 . S
C472 H459 0.960 . S
C472 C471 1.524 . S
C473 C470 1.403 . S
C473 C474 1.392 . S
C473 C477 1.495 . S
C474 C473 1.392 . S
C474 C475 1.385 . S
C474 C476 1.478 . S
C475 H469 0.930 . S
C475 C471 1.400 . S
C475 C474 1.385 . S
C476 C474 1.478 . S
C476 C478 1.381 . S
C476 C482 1.383 . S
C477 C473 1.495 . S
C477 H483 0.959 . S
C477 H484 0.961 . S
C477 H485 0.960 . S
C478 C476 1.381 . S
C478 C479 1.394 . S
C478 H486 0.930 . S
C479 C478 1.394 . S
C479 C480 1.383 . S
C479 H487 0.929 . S
C480 C479 1.383 . S
C480 C481 1.377 . S
C481 H465 0.930 . S
C481 C480 1.377 . S
C481 C482 1.379 . S
C482 H466 0.931 . S
C482 C476 1.383 . S
C482 C481 1.379 . S
H483 C477 0.959 . S
H484 C477 0.961 . S
H485 C477 0.960 . S
H486 C478 0.930 . S
H487 C479 0.929 . S
H488 C496 0.929 . S
H489 C498 0.930 . S
H490 C500 0.930 . S
H491 C503 0.929 . S
H492 C506 0.930 . S
H493 C508 0.960 . S
H494 C508 0.960 . S
H495 C508 0.960 . S
C496 H488 0.929 . S
C496 C497 1.377 . S
C496 C498 1.384 . S
C497 C496 1.377 . S
C497 C503 1.390 . S
C498 H489 0.930 . S
C498 C496 1.384 . S
C498 C499 1.372 . S
C499 C498 1.372 . S
C499 C500 1.400 . S
C499 C504 1.490 . S
C500 H490 0.930 . S
C500 C499 1.400 . S
C500 C503 1.386 . S
H501 C517 0.930 . S
H502 C518 0.931 . S
C503 H491 0.929 . S
C503 C497 1.390 . S
C503 C500 1.386 . S
C504 C499 1.490 . S
C504 C506 1.395 . S
C504 C507 1.403 . S
H505 C511 0.930 . S
C506 H492 0.930 . S
C506 C504 1.395 . S
C506 C509 1.403 . S
C507 C504 1.403 . S
C507 C508 1.524 . S
C507 C511 1.400 . S
C508 H493 0.960 . S
C508 H494 0.960 . S
C508 H495 0.960 . S
C508 C507 1.524 . S
C509 C506 1.403 . S
C509 C510 1.392 . S
C509 C513 1.495 . S
C510 C509 1.392 . S
C510 C511 1.385 . S
C510 C512 1.478 . S
C511 H505 0.930 . S
C511 C507 1.400 . S
C511 C510 1.385 . S
C512 C510 1.478 . S
C512 C514 1.381 . S
C512 C518 1.383 . S
C513 C509 1.495 . S
C513 H519 0.959 . S
C513 H520 0.961 . S
C513 H521 0.960 . S
C514 C512 1.381 . S
C514 C515 1.394 . S
C514 H522 0.930 . S
C515 C514 1.394 . S
C515 C516 1.383 . S
C515 H523 0.929 . S
C516 C515 1.383 . S
C516 C517 1.377 . S
C517 H501 0.930 . S
C517 C516 1.377 . S
C517 C518 1.379 . S
C518 H502 0.931 . S
C518 C512 1.383 . S
C518 C517 1.379 . S
H519 C513 0.959 . S
H520 C513 0.961 . S
H521 C513 0.960 . S
H522 C514 0.930 . S
H523 C515 0.929 . S
H524 C532 0.929 . S
H525 C534 0.930 . S
H526 C536 0.930 . S
H527 C539 0.929 . S
H528 C542 0.930 . S
H529 C544 0.960 . S
H530 C544 0.960 . S
H531 C544 0.960 . S
C532 H524 0.929 . S
C532 C533 1.377 . S
C532 C534 1.384 . S
C533 C532 1.377 . S
C533 C539 1.390 . S
C534 H525 0.930 . S
C534 C532 1.384 . S
C534 C535 1.372 . S
C535 C534 1.372 . S
C535 C536 1.400 . S
C535 C540 1.490 . S
C536 H526 0.930 . S
C536 C535 1.400 . S
C536 C539 1.386 . S
H537 C553 0.930 . S
H538 C554 0.969 . S
C539 H527 0.929 . S
C539 C533 1.390 . S
C539 C536 1.386 . S
C540 C535 1.490 . S
C540 C542 1.395 . S
C540 C543 1.403 . S
H541 C547 0.930 . S
C542 H528 0.930 . S
C542 C540 1.395 . S
C542 C545 1.403 . S
C543 C540 1.403 . S
C543 C544 1.524 . S
C543 C547 1.400 . S
C544 H529 0.960 . S
C544 H530 0.960 . S
C544 H531 0.960 . S
C544 C543 1.524 . S
C545 C542 1.403 . S
C545 C546 1.392 . S
C545 C549 1.495 1_455 S
C546 C545 1.392 . S
C546 C547 1.385 . S
C546 C548 1.478 . S
C547 H541 0.930 . S
C547 C543 1.400 . S
C547 C546 1.385 . S
C548 C546 1.478 . S
C548 C550 1.381 . S
C548 C554 1.355 1_455 S
C549 C545 1.495 1_655 S
C549 H555 0.959 . S
C549 H556 0.961 . S
C549 H557 0.969 . S
C550 C548 1.381 . S
C550 C551 1.394 . S
C550 H558 0.930 . S
C551 C550 1.394 . S
C551 C552 1.383 . S
C551 H559 0.929 . S
C552 C551 1.383 . S
C552 C553 1.377 1_455 S
C553 H537 0.930 . S
C553 C552 1.377 1_655 S
C553 C554 1.374 . S
C554 H538 0.969 . S
C554 C548 1.355 1_655 S
C554 C553 1.374 . S
H555 C549 0.959 . S
H556 C549 0.961 . S
H557 C549 0.969 . S
H558 C550 0.930 . S
H559 C551 0.929 . S
H560 C568 0.929 . S
H561 C570 0.930 . S
H562 C572 0.930 . S
H563 C575 0.929 . S
H564 C578 0.930 . S
H565 C580 0.960 . S
H566 C580 0.960 1_565 S
H567 C580 0.960 . S
C568 H560 0.929 . S
C568 C569 1.384 . S
C568 C570 1.384 . S
C569 C568 1.384 . S
C569 C575 1.383 1_565 S
C570 H561 0.930 . S
C570 C568 1.384 . S
C570 C571 1.372 . S
C571 C570 1.372 . S
C571 C572 1.400 1_565 S
C571 C576 1.490 . S
C572 H562 0.930 . S
C572 C571 1.400 1_545 S
C572 C575 1.386 . S
H573 C589 0.930 . S
H574 C590 0.931 . S
C575 H563 0.929 . S
C575 C569 1.383 1_545 S
C575 C572 1.386 . S
C576 C571 1.490 . S
C576 C578 1.395 1_554 S
C576 C579 1.403 1_565 S
H577 C583 0.930 . S
C578 H564 0.930 . S
C578 C576 1.395 1_556 S
C578 C581 1.403 . S
C579 C576 1.403 1_545 S
C579 C580 1.524 . S
C579 C583 1.400 1_554 S
C580 H565 0.960 . S
C580 H566 0.960 1_545 S
C580 H567 0.960 . S
C580 C579 1.524 . S
C581 C578 1.403 . S
C581 C582 1.392 . S
C581 C585 1.495 . S
C582 C581 1.392 . S
C582 C583 1.385 1_565 S
C582 C584 1.484 . S
C583 H577 0.930 . S
C583 C579 1.400 1_556 S
C583 C582 1.385 1_545 S
C584 C582 1.484 . S
C584 C586 1.424 . S
C584 C590 1.335 1_565 S
C585 C581 1.495 . S
C585 H591 0.959 . S
C585 H592 0.952 1_565 S
C585 H593 0.960 . S
C586 C584 1.424 . S
C586 C587 1.394 . S
C586 H594 0.930 . S
C587 C586 1.394 . S
C587 C588 1.389 1_565 S
C587 H595 0.929 . S
C588 C587 1.389 1_545 S
C588 C589 1.372 . S
C589 H573 0.930 . S
C589 C588 1.372 . S
C589 C590 1.379 . S
C590 H574 0.931 . S
C590 C584 1.335 1_545 S
C590 C589 1.379 . S
H591 C585 0.959 . S
H592 C585 0.952 1_545 S
H593 C585 0.960 . S
H594 C586 0.930 . S
H595 C587 0.929 . S
H596 C604 0.929 . S
H597 C606 0.930 . S
H598 C608 0.930 . S
H599 C611 0.929 . S
H600 C614 0.930 . S
H601 C616 0.960 . S
H602 C616 0.960 . S
H603 C616 0.960 . S
C604 H596 0.929 . S
C604 C605 1.377 . S
C604 C606 1.384 . S
C605 C604 1.377 . S
C605 C611 1.390 1_556 S
C606 H597 0.930 . S
C606 C604 1.384 . S
C606 C607 1.372 . S
C607 C606 1.372 . S
C607 C608 1.400 . S
C607 C612 1.490 . S
C608 H598 0.930 . S
C608 C607 1.400 . S
C608 C611 1.386 1_556 S
H609 C625 0.930 . S
H610 C626 0.931 . S
C611 H599 0.929 . S
C611 C605 1.390 1_554 S
C611 C608 1.386 1_554 S
C612 C607 1.490 . S
C612 C614 1.395 . S
C612 C615 1.403 . S
H613 C619 0.930 . S
C614 H600 0.930 . S
C614 C612 1.395 . S
C614 C617 1.403 . S
C615 C612 1.403 . S
C615 C616 1.524 . S
C615 C619 1.400 . S
C616 H601 0.960 . S
C616 H602 0.960 . S
C616 H603 0.960 . S
C616 C615 1.524 . S
C617 C614 1.403 . S
C617 C618 1.392 . S
C617 C621 1.495 . S
C618 C617 1.392 . S
C618 C619 1.385 . S
C618 C620 1.478 . S
C619 H613 0.930 . S
C619 C615 1.400 . S
C619 C618 1.385 . S
C620 C618 1.478 . S
C620 C622 1.381 . S
C620 C626 1.383 . S
C621 C617 1.495 . S
C621 H627 0.959 . S
C621 H628 0.961 . S
C621 H629 0.960 . S
C622 C620 1.381 . S
C622 C623 1.394 . S
C622 H630 0.930 . S
C623 C622 1.394 . S
C623 C624 1.383 . S
C623 H631 0.929 . S
C624 C623 1.383 . S
C624 C625 1.377 . S
C625 H609 0.930 . S
C625 C624 1.377 . S
C625 C626 1.379 . S
C626 H610 0.931 . S
C626 C620 1.383 . S
C626 C625 1.379 . S
H627 C621 0.959 . S
H628 C621 0.961 . S
H629 C621 0.960 . S
H630 C622 0.930 . S
H631 C623 0.929 . S
H632 C640 0.929 . S
H633 C642 0.930 . S
H634 C644 0.930 . S
H635 C647 0.929 . S
H636 C650 0.930 . S
H637 C652 0.960 . S
H638 C652 0.960 . S
H639 C652 0.960 . S
C640 H632 0.929 . S
C640 C641 1.377 . S
C640 C642 1.384 . S
C641 C640 1.377 . S
C641 C647 1.390 . S
C642 H633 0.930 . S
C642 C640 1.384 . S
C642 C643 1.372 . S
C643 C642 1.372 . S
C643 C644 1.400 . S
C643 C648 1.490 . S
C644 H634 0.930 . S
C644 C643 1.400 . S
C644 C647 1.386 . S
H645 C661 0.930 . S
H646 C662 0.931 1_554 S
C647 H635 0.929 . S
C647 C641 1.390 . S
C647 C644 1.386 . S
C648 C643 1.490 . S
C648 C650 1.395 . S
C648 C651 1.403 . S
H649 C655 0.930 . S
C650 H636 0.930 . S
C650 C648 1.395 . S
C650 C653 1.403 . S
C651 C648 1.403 . S
C651 C652 1.524 . S
C651 C655 1.400 . S
C652 H637 0.960 . S
C652 H638 0.960 . S
C652 H639 0.960 . S
C652 C651 1.524 . S
C653 C650 1.403 . S
C653 C654 1.392 . S
C653 C657 1.495 . S
C654 C653 1.392 . S
C654 C655 1.385 . S
C654 C656 1.478 . S
C655 H649 0.930 . S
C655 C651 1.400 . S
C655 C654 1.385 . S
C656 C654 1.478 . S
C656 C658 1.381 1_554 S
C656 C662 1.383 1_554 S
C657 C653 1.495 . S
C657 H663 0.959 . S
C657 H664 0.961 1_554 S
C657 H665 0.960 1_554 S
C658 C656 1.381 1_556 S
C658 C659 1.394 . S
C658 H666 0.937 . S
C659 C658 1.394 . S
C659 C660 1.383 . S
C659 H667 0.929 . S
C660 C659 1.383 . S
C660 C661 1.377 . S
C661 H645 0.930 . S
C661 C660 1.377 . S
C661 C662 1.379 . S
C662 H646 0.931 1_556 S
C662 C656 1.383 1_556 S
C662 C661 1.379 . S
H663 C657 0.959 . S
H664 C657 0.961 1_556 S
H665 C657 0.960 1_556 S
H666 C658 0.937 . S
H667 C659 0.929 . S
H668 C676 0.929 . S
H669 C678 0.930 . S
H670 C680 0.930 . S
H671 C683 0.929 . S
H672 C686 0.930 . S
H673 C688 0.960 . S
H674 C688 0.960 . S
H675 C688 0.960 . S
C676 H668 0.929 . S
C676 C677 1.377 . S
C676 C678 1.384 . S
C677 C676 1.377 . S
C677 C683 1.390 . S
C678 H669 0.930 . S
C678 C676 1.384 . S
C678 C679 1.372 . S
C679 C678 1.372 . S
C679 C680 1.400 . S
C679 C684 1.490 . S
C680 H670 0.930 . S
C680 C679 1.400 . S
C680 C683 1.386 . S
H681 C697 0.930 1_455 S
H682 C698 0.931 . S
C683 H671 0.929 . S
C683 C677 1.390 . S
C683 C680 1.386 . S
C684 C679 1.490 . S
C684 C686 1.395 . S
C684 C687 1.403 1_655 S
H685 C691 0.930 . S
C686 H672 0.930 . S
C686 C684 1.395 . S
C686 C689 1.403 1_554 S
C687 C684 1.403 1_455 S
C687 C688 1.524 . S
C687 C691 1.400 1_554 S
C688 H673 0.960 . S
C688 H674 0.960 . S
C688 H675 0.960 . S
C688 C687 1.524 . S
C689 C686 1.403 1_556 S
C689 C690 1.392 . S
C689 C693 1.495 . S
C690 C689 1.392 . S
C690 C691 1.385 1_655 S
C690 C692 1.478 . S
C691 H685 0.930 . S
C691 C687 1.400 1_556 S
C691 C690 1.385 1_455 S
C692 C690 1.478 . S
C692 C694 1.381 . S
C692 C698 1.383 . S
C693 C689 1.495 . S
C693 H699 0.959 1_556 S
C693 H700 0.961 . S
C693 H701 0.960 . S
C694 C692 1.381 . S
C694 C695 1.394 . S
C694 H702 0.930 . S
C695 C694 1.394 . S
C695 C696 1.383 . S
C695 H703 0.929 . S
C696 C695 1.383 . S
C696 C697 1.377 . S
C697 H681 0.930 1_655 S
C697 C696 1.377 . S
C697 C698 1.379 . S
C698 H682 0.931 . S
C698 C692 1.383 . S
C698 C697 1.379 . S
H699 C693 0.959 1_554 S
H700 C693 0.961 . S
H701 C693 0.960 . S
H702 C694 0.930 . S
H703 C695 0.929 . S
H704 C712 0.929 1_655 S
H705 C714 0.873 1_655 S
H706 C716 0.930 . S
H707 C719 0.929 . S
H708 C722 0.928 . S
H709 C724 0.960 . S
H710 C724 0.960 . S
H711 C724 0.960 . S
C712 H704 0.929 1_455 S
C712 C713 1.377 . S
C712 C714 1.399 . S
C713 C712 1.377 . S
C713 C719 1.390 . S
C714 H705 0.873 1_455 S
C714 C712 1.399 . S
C714 C715 1.414 . S
C715 C714 1.414 . S
C715 C716 1.400 . S
C715 C720 1.490 . S
C716 H706 0.930 . S
C716 C715 1.400 . S
C716 C719 1.386 . S
H717 C733 0.930 . S
H718 C734 0.931 . S
C719 H707 0.929 . S
C719 C713 1.390 . S
C719 C716 1.386 . S
C720 C715 1.490 . S
C720 C722 1.398 1_455 S
C720 C723 1.403 . S
H721 C727 0.930 . S
C722 H708 0.928 . S
C722 C720 1.398 1_655 S
C722 C725 1.402 . S
C723 C720 1.403 . S
C723 C724 1.524 . S
C723 C727 1.400 . S
C724 H709 0.960 . S
C724 H710 0.960 . S
C724 H711 0.960 . S
C724 C723 1.524 . S
C725 C722 1.402 . S
C725 C726 1.407 . S
C725 C729 1.495 . S
C726 C725 1.407 . S
C726 C727 1.362 1_655 S
C726 C728 1.486 . S
C727 H721 0.930 . S
C727 C723 1.400 . S
C727 C726 1.362 1_455 S
C728 C726 1.486 . S
C728 C730 1.381 . S
C728 C734 1.383 1_655 S
C729 C725 1.495 . S
C729 H735 0.959 . S
C729 H736 0.961 . S
C729 H737 0.960 . S
C730 C728 1.381 . S
C730 C731 1.394 . S
C730 H738 0.930 . S
C731 C730 1.394 . S
C731 C732 1.383 . S
C731 H739 0.929 . S
C732 C731 1.383 . S
C732 C733 1.377 1_655 S
C733 H717 0.930 . S
C733 C732 1.377 1_455 S
C733 C734 1.379 . S
C734 H718 0.931 . S
C734 C728 1.383 1_455 S
C734 C733 1.379 . S
H735 C729 0.959 . S
H736 C729 0.961 . S
H737 C729 0.960 . S
H738 C730 0.930 . S
H739 C731 0.929 . S
H740 C748 0.929 . S
H741 C750 0.930 . S
H742 C752 0.930 . S
H743 C755 0.929 . S
H744 C758 0.930 . S
H745 C760 0.960 . S
H746 C760 0.960 . S
H747 C760 0.960 1_545 S
C748 H740 0.929 . S
C748 C749 1.352 1_565 S
C748 C750 1.384 . S
C749 C748 1.352 1_545 S
C749 C755 1.413 . S
C750 H741 0.930 . S
C750 C748 1.384 . S
C750 C751 1.372 . S
C751 C750 1.372 . S
C751 C752 1.400 1_565 S
C751 C756 1.490 . S
C752 H742 0.930 . S
C752 C751 1.400 1_545 S
C752 C755 1.386 . S
H753 C769 0.930 1_545 S
H754 C770 0.948 . S
C755 H743 0.929 . S
C755 C749 1.413 . S
C755 C752 1.386 . S
C756 C751 1.490 . S
C756 C758 1.395 . S
C756 C759 1.403 . S
H757 C763 0.930 . S
C758 H744 0.930 . S
C758 C756 1.395 . S
C758 C761 1.403 . S
C759 C756 1.403 . S
C759 C760 1.524 . S
C759 C763 1.400 . S
C760 H745 0.960 . S
C760 H746 0.960 . S
C760 H747 0.960 1_565 S
C760 C759 1.524 . S
C761 C758 1.403 . S
C761 C762 1.392 . S
C761 C765 1.495 . S
C762 C761 1.392 . S
C762 C763 1.385 . S
C762 C764 1.478 . S
C763 H757 0.930 . S
C763 C759 1.400 . S
C763 C762 1.385 . S
C764 C762 1.478 . S
C764 C766 1.381 . S
C764 C770 1.367 1_565 S
C765 C761 1.495 . S
C765 H771 0.959 . S
C765 H772 0.961 . S
C765 H773 0.960 . S
C766 C764 1.381 . S
C766 C767 1.394 . S
C766 H774 0.930 . S
C767 C766 1.394 . S
C767 C768 1.383 . S
C767 H775 0.929 . S
C768 C767 1.383 . S
C768 C769 1.377 . S
C769 H753 0.930 1_565 S
C769 C768 1.377 . S
C769 C770 1.379 1_565 S
C770 H754 0.948 . S
C770 C764 1.367 1_545 S
C770 C769 1.379 1_545 S
H771 C765 0.959 . S
H772 C765 0.961 . S
H773 C765 0.960 . S
H774 C766 0.930 . S
H775 C767 0.929 . S
H776 C784 0.929 . S
H777 C786 0.930 . S
H778 C788 0.930 . S
H779 C791 0.929 . S
H780 C794 0.930 . S
H781 C796 0.960 . S
H782 C796 0.960 . S
H783 C796 0.960 . S
C784 H776 0.929 . S
C784 C785 1.377 . S
C784 C786 1.384 . S
C785 C784 1.377 . S
C785 C791 1.390 . S
C786 H777 0.930 . S
C786 C784 1.384 . S
C786 C787 1.372 . S
C787 C786 1.372 . S
C787 C788 1.400 . S
C787 C792 1.490 . S
C788 H778 0.930 . S
C788 C787 1.400 . S
C788 C791 1.386 . S
H789 C805 0.930 . S
H790 C806 0.931 . S
C791 H779 0.929 . S
C791 C785 1.390 . S
C791 C788 1.386 . S
C792 C787 1.490 . S
C792 C794 1.395 . S
C792 C795 1.403 . S
H793 C799 0.930 . S
C794 H780 0.930 . S
C794 C792 1.395 . S
C794 C797 1.403 . S
C795 C792 1.403 . S
C795 C796 1.524 . S
C795 C799 1.400 . S
C796 H781 0.960 . S
C796 H782 0.960 . S
C796 H783 0.960 . S
C796 C795 1.524 . S
C797 C794 1.403 . S
C797 C798 1.392 . S
C797 C801 1.495 . S
C798 C797 1.392 . S
C798 C799 1.385 . S
C798 C800 1.478 . S
C799 H793 0.930 . S
C799 C795 1.400 . S
C799 C798 1.385 . S
C800 C798 1.478 . S
C800 C802 1.381 . S
C800 C806 1.383 . S
C801 C797 1.495 . S
C801 H807 0.959 . S
C801 H808 0.961 . S
C801 H809 0.960 . S
C802 C800 1.381 . S
C802 C803 1.394 . S
C802 H810 0.930 . S
C803 C802 1.394 . S
C803 C804 1.383 . S
C803 H811 0.929 . S
C804 C803 1.383 . S
C804 C805 1.377 . S
C805 H789 0.930 . S
C805 C804 1.377 . S
C805 C806 1.379 . S
C806 H790 0.931 . S
C806 C800 1.383 . S
C806 C805 1.379 . S
H807 C801 0.959 . S
H808 C801 0.961 . S
H809 C801 0.960 . S
H810 C802 0.930 . S
H811 C803 0.929 . S
H812 C820 0.929 . S
H813 C822 0.930 . S
H814 C824 0.930 . S
H815 C827 0.929 . S
H816 C830 0.930 . S
H817 C832 0.960 . S
H818 C832 0.960 . S
H819 C832 0.960 . S
C820 H812 0.929 . S
C820 C821 1.377 . S
C820 C822 1.384 . S
C821 C820 1.377 . S
C821 C827 1.390 . S
C822 H813 0.930 . S
C822 C820 1.384 . S
C822 C823 1.372 . S
C823 C822 1.372 . S
C823 C824 1.400 . S
C823 C828 1.490 . S
C824 H814 0.930 . S
C824 C823 1.400 . S
C824 C827 1.386 . S
H825 C841 0.930 . S
H826 C842 0.931 . S
C827 H815 0.929 . S
C827 C821 1.390 . S
C827 C824 1.386 . S
C828 C823 1.490 . S
C828 C830 1.395 . S
C828 C831 1.403 . S
H829 C835 0.930 . S
C830 H816 0.930 . S
C830 C828 1.395 . S
C830 C833 1.403 . S
C831 C828 1.403 . S
C831 C832 1.524 . S
C831 C835 1.400 . S
C832 H817 0.960 . S
C832 H818 0.960 . S
C832 H819 0.960 . S
C832 C831 1.524 . S
C833 C830 1.403 . S
C833 C834 1.392 . S
C833 C837 1.495 . S
C834 C833 1.392 . S
C834 C835 1.385 . S
C834 C836 1.478 . S
C835 H829 0.930 . S
C835 C831 1.400 . S
C835 C834 1.385 . S
C836 C834 1.478 . S
C836 C838 1.381 . S
C836 C842 1.383 . S
C837 C833 1.495 . S
C837 H843 0.959 . S
C837 H844 0.961 . S
C837 H845 0.960 . S
C838 C836 1.381 . S
C838 C839 1.394 . S
C838 H846 0.930 . S
C839 C838 1.394 . S
C839 C840 1.383 . S
C839 H847 0.929 . S
C840 C839 1.383 . S
C840 C841 1.377 . S
C841 H825 0.930 . S
C841 C840 1.377 . S
C841 C842 1.379 . S
C842 H826 0.931 . S
C842 C836 1.383 . S
C842 C841 1.379 . S
H843 C837 0.959 . S
H844 C837 0.961 . S
H845 C837 0.960 . S
H846 C838 0.930 . S
H847 C839 0.929 . S
H848 C856 0.929 . S
H849 C858 0.930 . S
H850 C860 0.930 . S
H851 C863 0.929 1_455 S
H852 C866 0.930 . S
H853 C868 0.960 . S
H854 C868 0.960 . S
H855 C868 0.960 1_455 S
C856 H848 0.929 . S
C856 C857 1.377 . S
C856 C858 1.384 . S
C857 C856 1.377 . S
C857 C863 1.390 . S
C858 H849 0.930 . S
C858 C856 1.384 . S
C858 C859 1.372 . S
C859 C858 1.372 . S
C859 C860 1.400 1_655 S
C859 C864 1.490 . S
C860 H850 0.930 . S
C860 C859 1.400 1_455 S
C860 C863 1.386 1_455 S
H861 C877 0.930 . S
H862 C878 0.931 . S
C863 H851 0.929 1_655 S
C863 C857 1.390 . S
C863 C860 1.386 1_655 S
C864 C859 1.490 . S
C864 C866 1.395 . S
C864 C867 1.403 . S
H865 C871 0.930 . S
C866 H852 0.930 . S
C866 C864 1.395 . S
C866 C869 1.403 1_655 S
C867 C864 1.403 . S
C867 C868 1.524 1_554 S
C867 C871 1.400 1_654 S
C868 H853 0.960 . S
C868 H854 0.960 . S
C868 H855 0.960 1_655 S
C868 C867 1.524 1_556 S
C869 C866 1.403 1_455 S
C869 C870 1.392 . S
C869 C873 1.495 . S
C870 C869 1.392 . S
C870 C871 1.385 1_554 S
C870 C872 1.478 1_554 S
C871 H865 0.930 . S
C871 C867 1.400 1_456 S
C871 C870 1.385 1_556 S
C872 C870 1.478 1_556 S
C872 C874 1.381 1_455 S
C872 C878 1.383 . S
C873 C869 1.495 . S
C873 H879 0.959 . S
C873 H880 0.961 . S
C873 H881 0.960 1_455 S
C874 C872 1.381 1_655 S
C874 C875 1.394 1_655 S
C874 H882 0.930 . S
C875 C874 1.394 1_455 S
C875 C876 1.383 . S
C875 H883 0.929 1_455 S
C876 C875 1.383 . S
C876 C877 1.377 . S
C877 H861 0.930 . S
C877 C876 1.377 . S
C877 C878 1.379 . S
C878 H862 0.931 . S
C878 C872 1.383 . S
C878 C877 1.379 . S
H879 C873 0.959 . S
H880 C873 0.961 . S
H881 C873 0.960 1_655 S
H882 C874 0.930 . S
H883 C875 0.929 1_655 S
H884 C892 0.929 . S
H885 C894 0.930 . S
H886 C896 0.930 1_556 S
H887 C899 0.929 . S
H888 C902 0.930 . S
H889 C904 0.960 . S
H890 C904 0.960 . S
H891 C904 0.960 1_545 S
C892 H884 0.929 . S
C892 C893 1.377 . S
C892 C894 1.384 . S
C893 C892 1.377 . S
C893 C899 1.390 1_565 S
C894 H885 0.930 . S
C894 C892 1.384 . S
C894 C895 1.372 1_565 S
C895 C894 1.372 1_545 S
C895 C896 1.400 . S
C895 C900 1.490 . S
C896 H886 0.930 1_554 S
C896 C895 1.400 . S
C896 C899 1.386 . S
H897 C913 0.930 . S
H898 C914 0.931 . S
C899 H887 0.929 . S
C899 C893 1.390 1_545 S
C899 C896 1.386 . S
C900 C895 1.490 . S
C900 C902 1.395 . S
C900 C903 1.403 1_554 S
H901 C907 0.930 . S
C902 H888 0.930 . S
C902 C900 1.395 . S
C902 C905 1.403 . S
C903 C900 1.403 1_556 S
C903 C904 1.524 1_545 S
C903 C907 1.400 . S
C904 H889 0.960 . S
C904 H890 0.960 . S
C904 H891 0.960 1_565 S
C904 C903 1.524 1_565 S
C905 C902 1.403 . S
C905 C906 1.392 1_554 S
C905 C909 1.495 . S
C906 C905 1.392 1_556 S
C906 C907 1.385 . S
C906 C908 1.478 . S
C907 H901 0.930 . S
C907 C903 1.400 . S
C907 C906 1.385 . S
C908 C906 1.478 . S
C908 C910 1.381 . S
C908 C914 1.383 . S
C909 C905 1.495 . S
C909 H915 0.959 . S
C909 H916 0.961 . S
C909 H917 0.960 . S
C910 C908 1.381 . S
C910 C911 1.394 . S
C910 H918 0.930 1_545 S
C911 C910 1.394 . S
C911 C912 1.383 . S
C911 H919 0.929 1_545 S
C912 C911 1.383 . S
C912 C913 1.377 . S
C913 H897 0.930 . S
C913 C912 1.377 . S
C913 C914 1.379 . S
C914 H898 0.931 . S
C914 C908 1.383 . S
C914 C913 1.379 . S
H915 C909 0.959 . S
H916 C909 0.961 . S
H917 C909 0.960 . S
H918 C910 0.930 1_565 S
H919 C911 0.929 1_565 S
H920 C928 0.929 . S
H921 C930 0.930 . S
H922 C932 0.930 . S
H923 C935 0.929 1_554 S
H924 C938 0.930 . S
H925 C940 0.960 . S
H926 C940 0.960 . S
H927 C940 0.960 . S
C928 H920 0.929 . S
C928 C929 1.377 . S
C928 C930 1.384 . S
C929 C928 1.377 . S
C929 C935 1.390 . S
C930 H921 0.930 . S
C930 C928 1.384 . S
C930 C931 1.372 . S
C931 C930 1.372 . S
C931 C932 1.400 . S
C931 C936 1.490 . S
C932 H922 0.930 . S
C932 C931 1.400 . S
C932 C935 1.386 . S
H933 C949 0.930 . S
H934 C950 0.931 . S
C935 H923 0.929 1_556 S
C935 C929 1.390 . S
C935 C932 1.386 . S
C936 C931 1.490 . S
C936 C938 1.395 . S
C936 C939 1.403 . S
H937 C943 0.930 . S
C938 H924 0.930 . S
C938 C936 1.395 . S
C938 C941 1.403 . S
C939 C936 1.403 . S
C939 C940 1.524 . S
C939 C943 1.400 . S
C940 H925 0.960 . S
C940 H926 0.960 . S
C940 H927 0.960 . S
C940 C939 1.524 . S
C941 C938 1.403 . S
C941 C942 1.392 . S
C941 C945 1.495 . S
C942 C941 1.392 . S
C942 C943 1.385 . S
C942 C944 1.478 . S
C943 H937 0.930 . S
C943 C939 1.400 . S
C943 C942 1.385 . S
C944 C942 1.478 . S
C944 C946 1.381 . S
C944 C950 1.383 . S
C945 C941 1.495 . S
C945 H951 0.959 . S
C945 H952 0.961 . S
C945 H953 0.960 . S
C946 C944 1.381 . S
C946 C947 1.394 . S
C946 H954 0.930 . S
C947 C946 1.394 . S
C947 C948 1.383 . S
C947 H955 0.929 . S
C948 C947 1.383 . S
C948 C949 1.377 . S
C949 H933 0.930 . S
C949 C948 1.377 . S
C949 C950 1.379 . S
C950 H934 0.931 . S
C950 C944 1.383 . S
C950 C949 1.379 . S
H951 C945 0.959 . S
H952 C945 0.961 . S
H953 C945 0.960 . S
H954 C946 0.930 . S
H955 C947 0.929 . S
H956 C964 0.929 . S
H957 C966 0.930 . S
H958 C968 0.930 . S
H959 C971 0.929 . S
H960 C974 0.930 . S
H961 C976 0.960 . S
H962 C976 0.960 . S
H963 C976 0.960 . S
C964 H956 0.929 . S
C964 C965 1.377 . S
C964 C966 1.384 . S
C965 C964 1.377 . S
C965 C971 1.390 . S
C966 H957 0.930 . S
C966 C964 1.384 . S
C966 C967 1.372 . S
C967 C966 1.372 . S
C967 C968 1.400 . S
C967 C972 1.490 . S
C968 H958 0.930 . S
C968 C967 1.400 . S
C968 C971 1.386 . S
H969 C985 0.930 . S
H970 C986 0.930 1_554 S
C971 H959 0.929 . S
C971 C965 1.390 . S
C971 C968 1.386 . S
C972 C967 1.490 . S
C972 C974 1.395 . S
C972 C975 1.403 . S
H973 C979 0.930 . S
C974 H960 0.930 . S
C974 C972 1.395 . S
C974 C977 1.403 . S
C975 C972 1.403 . S
C975 C976 1.524 . S
C975 C979 1.400 . S
C976 H961 0.960 . S
C976 H962 0.960 . S
C976 H963 0.960 . S
C976 C975 1.524 . S
C977 C974 1.403 . S
C977 C978 1.392 . S
C977 C981 1.495 . S
C978 C977 1.392 . S
C978 C979 1.385 . S
C978 C980 1.478 . S
C979 H973 0.930 . S
C979 C975 1.400 . S
C979 C978 1.385 . S
C980 C978 1.478 . S
C980 C982 1.381 . S
C980 C986 1.383 1_554 S
C981 C977 1.495 . S
C981 H987 0.959 . S
C981 H988 0.961 . S
C981 H989 0.960 . S
C982 C980 1.381 . S
C982 C983 1.394 1_554 S
C982 H990 0.930 . S
C983 C982 1.394 1_556 S
C983 C984 1.383 . S
C983 H991 0.929 . S
C984 C983 1.383 . S
C984 C985 1.377 . S
C985 H969 0.930 . S
C985 C984 1.377 . S
C985 C986 1.379 . S
C986 H970 0.930 1_556 S
C986 C980 1.383 1_556 S
C986 C985 1.379 . S
H987 C981 0.959 . S
H988 C981 0.961 . S
H989 C981 0.960 . S
H990 C982 0.930 . S
H991 C983 0.929 . S
H992 C1000 0.929 . S
H993 C1002 0.930 . S
H994 C1004 0.930 1_655 S
H995 C1007 0.929 1_655 S
H996 C1010 0.930 . S
H997 C1012 0.960 . S
H998 C1012 0.960 . S
H999 C1012 0.960 . S
C1000 H992 0.929 . S
C1000 C1001 1.377 . S
C1000 C1002 1.384 . S
C1001 C1000 1.377 . S
C1001 C1007 1.390 . S
C1002 H993 0.930 . S
C1002 C1000 1.384 . S
C1002 C1003 1.372 . S
C1003 C1002 1.372 . S
C1003 C1004 1.400 . S
C1003 C1008 1.490 . S
C1004 H994 0.930 1_455 S
C1004 C1003 1.400 . S
C1004 C1007 1.386 . S
H1005 C1021 0.989 . S
H1006 C1022 0.926 . S
C1007 H995 0.929 1_455 S
C1007 C1001 1.390 . S
C1007 C1004 1.386 . S
C1008 C1003 1.490 . S
C1008 C1010 1.395 . S
C1008 C1011 1.403 . S
H1009 C1015 0.930 . S
C1010 H996 0.930 . S
C1010 C1008 1.395 . S
C1010 C1013 1.403 . S
C1011 C1008 1.403 . S
C1011 C1012 1.524 . S
C1011 C1015 1.400 . S
C1012 H997 0.960 . S
C1012 H998 0.960 . S
C1012 H999 0.960 . S
C1012 C1011 1.524 . S
C1013 C1010 1.403 . S
C1013 C1014 1.392 . S
C1013 C1017 1.495 . S
C1014 C1013 1.392 . S
C1014 C1015 1.385 . S
C1014 C1016 1.478 . S
C1015 H1009 0.930 . S
C1015 C1011 1.400 . S
C1015 C1014 1.385 . S
C1016 C1014 1.478 . S
C1016 C1018 1.381 . S
C1016 C1022 1.389 1_455 S
C1017 C1013 1.495 . S
C1017 H1023 0.959 . S
C1017 H1024 0.961 . S
C1017 H1025 0.960 . S
C1018 C1016 1.381 . S
C1018 C1019 1.394 . S
C1018 H1026 0.930 . S
C1019 C1018 1.394 . S
C1019 C1020 1.383 . S
C1019 H1027 0.929 . S
C1020 C1019 1.383 . S
C1020 C1021 1.330 1_455 S
C1021 H1005 0.989 . S
C1021 C1020 1.330 1_655 S
C1021 C1022 1.369 . S
C1022 H1006 0.926 . S
C1022 C1016 1.389 1_655 S
C1022 C1021 1.369 . S
H1023 C1017 0.959 . S
H1024 C1017 0.961 . S
H1025 C1017 0.960 . S
H1026 C1018 0.930 . S
H1027 C1019 0.929 . S
H1028 C1036 0.929 1_554 S
H1029 C1038 0.930 . S
H1030 C1040 0.930 . S
H1031 C1043 0.929 . S
H1032 C1046 0.930 . S
H1033 C1048 0.960 . S
H1034 C1048 0.960 . S
H1035 C1048 0.960 . S
C1036 H1028 0.929 1_556 S
C1036 C1037 1.352 1_565 S
C1036 C1038 1.384 . S
C1037 C1036 1.352 1_545 S
C1037 C1043 1.423 . S
C1038 H1029 0.930 . S
C1038 C1036 1.384 . S
C1038 C1039 1.372 1_565 S
C1039 C1038 1.372 1_545 S
C1039 C1040 1.400 . S
C1039 C1044 1.490 . S
C1040 H1030 0.930 . S
C1040 C1039 1.400 . S
C1040 C1043 1.386 . S
H1041 C1057 0.930 . S
H1042 C1058 0.931 . S
C1043 H1031 0.929 . S
C1043 C1037 1.423 . S
C1043 C1040 1.386 . S
C1044 C1039 1.490 . S
C1044 C1046 1.395 1_545 S
C1044 C1047 1.403 . S
H1045 C1051 0.930 . S
C1046 H1032 0.930 . S
C1046 C1044 1.395 1_565 S
C1046 C1049 1.403 . S
C1047 C1044 1.403 . S
C1047 C1048 1.524 . S
C1047 C1051 1.400 . S
C1048 H1033 0.960 . S
C1048 H1034 0.960 . S
C1048 H1035 0.960 . S
C1048 C1047 1.524 . S
C1049 C1046 1.403 . S
C1049 C1050 1.380 1_565 S
C1049 C1053 1.495 . S
C1050 C1049 1.380 1_545 S
C1050 C1051 1.397 . S
C1050 C1052 1.479 . S
C1051 H1045 0.930 . S
C1051 C1047 1.400 . S
C1051 C1050 1.397 . S
C1052 C1050 1.479 . S
C1052 C1054 1.381 1_545 S
C1052 C1058 1.383 . S
C1053 C1049 1.495 . S
C1053 H1059 0.959 . S
C1053 H1060 0.961 . S
C1053 H1061 0.960 . S
C1054 C1052 1.381 1_565 S
C1054 C1055 1.394 . S
C1054 H1062 0.930 . S
C1055 C1054 1.394 . S
C1055 C1056 1.383 1_565 S
C1055 H1063 0.929 . S
C1056 C1055 1.383 1_545 S
C1056 C1057 1.377 . S
C1057 H1041 0.930 . S
C1057 C1056 1.377 . S
C1057 C1058 1.379 . S
C1058 H1042 0.931 . S
C1058 C1052 1.383 . S
C1058 C1057 1.379 . S
H1059 C1053 0.959 . S
H1060 C1053 0.961 . S
H1061 C1053 0.960 . S
H1062 C1054 0.930 . S
H1063 C1055 0.929 . S
H1064 C1072 0.929 . S
H1065 C1074 0.930 . S
H1066 C1076 0.930 1_556 S
H1067 C1079 0.929 . S
H1068 C1082 0.930 . S
H1069 C1084 0.960 1_556 S
H1070 C1084 0.960 . S
H1071 C1084 0.960 1_556 S
C1072 H1064 0.929 . S
C1072 C1073 1.377 . S
C1072 C1074 1.384 . S
C1073 C1072 1.377 . S
C1073 C1079 1.390 . S
C1074 H1065 0.930 . S
C1074 C1072 1.384 . S
C1074 C1075 1.372 . S
C1075 C1074 1.372 . S
C1075 C1076 1.400 . S
C1075 C1080 1.490 . S
C1076 H1066 0.930 1_554 S
C1076 C1075 1.400 . S
C1076 C1079 1.386 . S
H1077 C1093 0.930 . S
H1078 C1094 0.931 . S
C1079 H1067 0.929 . S
C1079 C1073 1.390 . S
C1079 C1076 1.386 . S
C1080 C1075 1.490 . S
C1080 C1082 1.395 1_554 S
C1080 C1083 1.403 1_554 S
H1081 C1087 0.930 . S
C1082 H1068 0.930 . S
C1082 C1080 1.395 1_556 S
C1082 C1085 1.403 . S
C1083 C1080 1.403 1_556 S
C1083 C1084 1.524 1_556 S
C1083 C1087 1.400 . S
C1084 H1069 0.960 1_554 S
C1084 H1070 0.960 . S
C1084 H1071 0.960 1_554 S
C1084 C1083 1.524 1_554 S
C1085 C1082 1.403 . S
C1085 C1086 1.392 . S
C1085 C1089 1.495 . S
C1086 C1085 1.392 . S
C1086 C1087 1.385 . S
C1086 C1088 1.478 . S
C1087 H1081 0.930 . S
C1087 C1083 1.400 . S
C1087 C1086 1.385 . S
C1088 C1086 1.478 . S
C1088 C1090 1.381 . S
C1088 C1094 1.383 . S
C1089 C1085 1.495 . S
C1089 H1095 0.959 . S
C1089 H1096 0.961 . S
C1089 H1097 0.960 . S
C1090 C1088 1.381 . S
C1090 C1091 1.394 . S
C1090 H1098 0.930 . S
C1091 C1090 1.394 . S
C1091 C1092 1.383 . S
C1091 H1099 0.929 . S
C1092 C1091 1.383 . S
C1092 C1093 1.377 . S
C1093 H1077 0.930 . S
C1093 C1092 1.377 . S
C1093 C1094 1.379 . S
C1094 H1078 0.931 . S
C1094 C1088 1.383 . S
C1094 C1093 1.379 . S
H1095 C1089 0.959 . S
H1096 C1089 0.961 . S
H1097 C1089 0.960 . S
H1098 C1090 0.930 . S
H1099 C1091 0.929 . S
H1100 C1108 0.929 . S
H1101 C1110 0.930 . S
H1102 C1112 0.930 . S
H1103 C1115 0.929 . S
H1104 C1118 0.930 . S
H1105 C1120 0.960 . S
H1106 C1120 0.960 . S
H1107 C1120 0.960 . S
C1108 H1100 0.929 . S
C1108 C1109 1.377 . S
C1108 C1110 1.384 . S
C1109 C1108 1.377 . S
C1109 C1115 1.390 . S
C1110 H1101 0.930 . S
C1110 C1108 1.384 . S
C1110 C1111 1.372 . S
C1111 C1110 1.372 . S
C1111 C1112 1.400 . S
C1111 C1116 1.490 . S
C1112 H1102 0.930 . S
C1112 C1111 1.400 . S
C1112 C1115 1.386 . S
H1113 C1129 0.930 . S
H1114 C1130 0.931 . S
C1115 H1103 0.929 . S
C1115 C1109 1.390 . S
C1115 C1112 1.386 . S
C1116 C1111 1.490 . S
C1116 C1118 1.395 . S
C1116 C1119 1.403 . S
H1117 C1123 0.930 . S
C1118 H1104 0.930 . S
C1118 C1116 1.395 . S
C1118 C1121 1.403 . S
C1119 C1116 1.403 . S
C1119 C1120 1.524 . S
C1119 C1123 1.400 . S
C1120 H1105 0.960 . S
C1120 H1106 0.960 . S
C1120 H1107 0.960 . S
C1120 C1119 1.524 . S
C1121 C1118 1.403 . S
C1121 C1122 1.392 . S
C1121 C1125 1.495 . S
C1122 C1121 1.392 . S
C1122 C1123 1.385 . S
C1122 C1124 1.478 . S
C1123 H1117 0.930 . S
C1123 C1119 1.400 . S
C1123 C1122 1.385 . S
C1124 C1122 1.478 . S
C1124 C1126 1.381 . S
C1124 C1130 1.383 . S
C1125 C1121 1.495 . S
C1125 H1131 0.959 . S
C1125 H1132 0.961 . S
C1125 H1133 0.960 . S
C1126 C1124 1.381 . S
C1126 C1127 1.394 . S
C1126 H1134 0.930 . S
C1127 C1126 1.394 . S
C1127 C1128 1.383 . S
C1127 H1135 0.929 . S
C1128 C1127 1.383 . S
C1128 C1129 1.377 . S
C1129 H1113 0.930 . S
C1129 C1128 1.377 . S
C1129 C1130 1.379 . S
C1130 H1114 0.931 . S
C1130 C1124 1.383 . S
C1130 C1129 1.379 . S
H1131 C1125 0.959 . S
H1132 C1125 0.961 . S
H1133 C1125 0.960 . S
H1134 C1126 0.930 . S
H1135 C1127 0.929 . S
H1136 C1144 0.929 . S
H1137 C1146 0.930 . S
H1138 C1148 0.930 . S
H1139 C1151 0.929 . S
H1140 C1154 0.930 . S
H1141 C1156 0.960 . S
H1142 C1156 0.960 . S
H1143 C1156 0.960 1_455 S
C1144 H1136 0.929 . S
C1144 C1145 1.377 . S
C1144 C1146 1.384 . S
C1145 C1144 1.377 . S
C1145 C1151 1.390 1_655 S
C1146 H1137 0.930 . S
C1146 C1144 1.384 . S
C1146 C1147 1.372 . S
C1147 C1146 1.372 . S
C1147 C1148 1.400 1_655 S
C1147 C1152 1.490 . S
C1148 H1138 0.930 . S
C1148 C1147 1.400 1_455 S
C1148 C1151 1.386 . S
H1149 C1165 0.930 . S
H1150 C1166 0.931 . S
C1151 H1139 0.929 . S
C1151 C1145 1.390 1_455 S
C1151 C1148 1.386 . S
C1152 C1147 1.490 . S
C1152 C1154 1.395 . S
C1152 C1155 1.403 . S
H1153 C1159 0.930 . S
C1154 H1140 0.930 . S
C1154 C1152 1.395 . S
C1154 C1157 1.403 . S
C1155 C1152 1.403 . S
C1155 C1156 1.524 . S
C1155 C1159 1.400 . S
C1156 H1141 0.960 . S
C1156 H1142 0.960 . S
C1156 H1143 0.960 1_655 S
C1156 C1155 1.524 . S
C1157 C1154 1.403 . S
C1157 C1158 1.392 . S
C1157 C1161 1.495 . S
C1158 C1157 1.392 . S
C1158 C1159 1.385 . S
C1158 C1160 1.478 . S
C1159 H1153 0.930 . S
C1159 C1155 1.400 . S
C1159 C1158 1.385 . S
C1160 C1158 1.478 . S
C1160 C1162 1.381 . S
C1160 C1166 1.383 1_655 S
C1161 C1157 1.495 . S
C1161 H1167 0.959 . S
C1161 H1168 0.961 . S
C1161 H1169 0.960 . S
C1162 C1160 1.381 . S
C1162 C1163 1.394 . S
C1162 H1170 0.930 . S
C1163 C1162 1.394 . S
C1163 C1164 1.383 . S
C1163 H1171 0.929 . S
C1164 C1163 1.383 . S
C1164 C1165 1.377 1_655 S
C1165 H1149 0.930 . S
C1165 C1164 1.377 1_455 S
C1165 C1166 1.379 . S
C1166 H1150 0.931 . S
C1166 C1160 1.383 1_455 S
C1166 C1165 1.379 . S
H1167 C1161 0.959 . S
H1168 C1161 0.961 . S
H1169 C1161 0.960 . S
H1170 C1162 0.930 . S
H1171 C1163 0.929 . S
H1172 C1180 0.929 . S
H1173 C1182 0.930 1_545 S
H1174 C1184 0.930 . S
H1175 C1187 0.929 . S
H1176 C1190 0.930 . S
H1177 C1192 0.960 . S
H1178 C1192 0.960 . S
H1179 C1192 0.960 . S
C1180 H1172 0.929 . S
C1180 C1181 1.378 1_545 S
C1180 C1182 1.382 1_545 S
C1181 C1180 1.378 1_565 S
C1181 C1187 1.399 . S
C1182 H1173 0.930 1_565 S
C1182 C1180 1.382 1_565 S
C1182 C1183 1.375 . S
C1183 C1182 1.375 . S
C1183 C1184 1.400 . S
C1183 C1188 1.490 . S
C1184 H1174 0.930 . S
C1184 C1183 1.400 . S
C1184 C1187 1.386 . S
H1185 C1201 0.930 . S
H1186 C1202 0.935 . S
C1187 H1175 0.929 . S
C1187 C1181 1.399 . S
C1187 C1184 1.386 . S
C1188 C1183 1.490 . S
C1188 C1190 1.395 1_565 S
C1188 C1191 1.403 . S
H1189 C1195 0.930 . S
C1190 H1176 0.930 . S
C1190 C1188 1.395 1_545 S
C1190 C1193 1.403 . S
C1191 C1188 1.403 . S
C1191 C1192 1.524 . S
C1191 C1195 1.400 . S
C1192 H1177 0.960 . S
C1192 H1178 0.960 . S
C1192 H1179 0.960 . S
C1192 C1191 1.524 . S
C1193 C1190 1.403 . S
C1193 C1194 1.354 1_545 S
C1193 C1197 1.495 . S
C1194 C1193 1.354 1_565 S
C1194 C1195 1.421 . S
C1194 C1196 1.483 . S
C1195 H1189 0.930 . S
C1195 C1191 1.400 . S
C1195 C1194 1.421 . S
C1196 C1194 1.483 . S
C1196 C1198 1.381 . S
C1196 C1202 1.383 . S
C1197 C1193 1.495 . S
C1197 H1203 0.959 . S
C1197 H1204 0.961 . S
C1197 H1205 0.960 . S
C1198 C1196 1.381 . S
C1198 C1199 1.394 . S
C1198 H1206 0.930 . S
C1199 C1198 1.394 . S
C1199 C1200 1.383 . S
C1199 H1207 0.929 . S
C1200 C1199 1.383 . S
C1200 C1201 1.377 . S
C1201 H1185 0.930 . S
C1201 C1200 1.377 . S
C1201 C1202 1.379 . S
C1202 H1186 0.935 . S
C1202 C1196 1.383 . S
C1202 C1201 1.379 . S
H1203 C1197 0.959 . S
H1204 C1197 0.961 . S
H1205 C1197 0.960 . S
H1206 C1198 0.930 . S
H1207 C1199 0.929 . S
H1208 C1216 0.929 . S
H1209 C1218 0.930 . S
H1210 C1220 0.930 . S
H1211 C1223 0.929 . S
H1212 C1226 0.930 . S
H1213 C1228 0.960 . S
H1214 C1228 0.960 . S
H1215 C1228 0.960 . S
C1216 H1208 0.929 . S
C1216 C1217 1.377 . S
C1216 C1218 1.384 . S
C1217 C1216 1.377 . S
C1217 C1223 1.390 . S
C1218 H1209 0.930 . S
C1218 C1216 1.384 . S
C1218 C1219 1.372 . S
C1219 C1218 1.372 . S
C1219 C1220 1.400 . S
C1219 C1224 1.490 . S
C1220 H1210 0.930 . S
C1220 C1219 1.400 . S
C1220 C1223 1.386 . S
H1221 C1237 0.930 . S
H1222 C1238 0.931 . S
C1223 H1211 0.929 . S
C1223 C1217 1.390 . S
C1223 C1220 1.386 . S
C1224 C1219 1.490 . S
C1224 C1226 1.395 . S
C1224 C1227 1.403 . S
H1225 C1231 0.930 . S
C1226 H1212 0.930 . S
C1226 C1224 1.395 . S
C1226 C1229 1.403 . S
C1227 C1224 1.403 . S
C1227 C1228 1.524 . S
C1227 C1231 1.400 . S
C1228 H1213 0.960 . S
C1228 H1214 0.960 . S
C1228 H1215 0.960 . S
C1228 C1227 1.524 . S
C1229 C1226 1.403 . S
C1229 C1230 1.392 . S
C1229 C1233 1.495 . S
C1230 C1229 1.392 . S
C1230 C1231 1.385 . S
C1230 C1232 1.478 . S
C1231 H1225 0.930 . S
C1231 C1227 1.400 . S
C1231 C1230 1.385 . S
C1232 C1230 1.478 . S
C1232 C1234 1.381 . S
C1232 C1238 1.383 . S
C1233 C1229 1.495 . S
C1233 H1239 0.959 . S
C1233 H1240 0.961 . S
C1233 H1241 0.960 . S
C1234 C1232 1.381 . S
C1234 C1235 1.394 . S
C1234 H1242 0.930 . S
C1235 C1234 1.394 . S
C1235 C1236 1.383 . S
C1235 H1243 0.929 . S
C1236 C1235 1.383 . S
C1236 C1237 1.377 . S
C1237 H1221 0.930 . S
C1237 C1236 1.377 . S
C1237 C1238 1.379 . S
C1238 H1222 0.931 . S
C1238 C1232 1.383 . S
C1238 C1237 1.379 . S
H1239 C1233 0.959 . S
H1240 C1233 0.961 . S
H1241 C1233 0.960 . S
H1242 C1234 0.930 . S
H1243 C1235 0.929 . S
H1244 C1252 0.929 . S
H1245 C1254 0.930 . S
H1246 C1256 0.930 . S
H1247 C1259 0.929 . S
H1248 C1262 0.930 . S
H1249 C1264 0.960 . S
H1250 C1264 0.960 . S
H1251 C1264 0.960 . S
C1252 H1244 0.929 . S
C1252 C1253 1.377 . S
C1252 C1254 1.384 . S
C1253 C1252 1.377 . S
C1253 C1259 1.390 . S
C1254 H1245 0.930 . S
C1254 C1252 1.384 . S
C1254 C1255 1.372 . S
C1255 C1254 1.372 . S
C1255 C1256 1.400 . S
C1255 C1260 1.490 . S
C1256 H1246 0.930 . S
C1256 C1255 1.400 . S
C1256 C1259 1.386 . S
H1257 C1273 0.930 . S
H1258 C1274 0.931 . S
C1259 H1247 0.929 . S
C1259 C1253 1.390 . S
C1259 C1256 1.386 . S
C1260 C1255 1.490 . S
C1260 C1262 1.395 . S
C1260 C1263 1.403 . S
H1261 C1267 0.930 . S
C1262 H1248 0.930 . S
C1262 C1260 1.395 . S
C1262 C1265 1.403 . S
C1263 C1260 1.403 . S
C1263 C1264 1.524 . S
C1263 C1267 1.400 . S
C1264 H1249 0.960 . S
C1264 H1250 0.960 . S
C1264 H1251 0.960 . S
C1264 C1263 1.524 . S
C1265 C1262 1.403 . S
C1265 C1266 1.392 . S
C1265 C1269 1.495 . S
C1266 C1265 1.392 . S
C1266 C1267 1.385 . S
C1266 C1268 1.478 . S
C1267 H1261 0.930 . S
C1267 C1263 1.400 . S
C1267 C1266 1.385 . S
C1268 C1266 1.478 . S
C1268 C1270 1.381 . S
C1268 C1274 1.383 . S
C1269 C1265 1.495 . S
C1269 H1275 0.959 . S
C1269 H1276 0.961 . S
C1269 H1277 0.960 . S
C1270 C1268 1.381 . S
C1270 C1271 1.394 . S
C1270 H1278 0.930 . S
C1271 C1270 1.394 . S
C1271 C1272 1.383 . S
C1271 H1279 0.929 . S
C1272 C1271 1.383 . S
C1272 C1273 1.377 . S
C1273 H1257 0.930 . S
C1273 C1272 1.377 . S
C1273 C1274 1.379 . S
C1274 H1258 0.931 . S
C1274 C1268 1.383 . S
C1274 C1273 1.379 . S
H1275 C1269 0.959 . S
H1276 C1269 0.961 . S
H1277 C1269 0.960 . S
H1278 C1270 0.930 . S
H1279 C1271 0.929 . S
C425 C215 1.750 . S
C444 C258 1.804 1_545 S
C480 C298 2.024 . S
C461 C247 2.029 . S
C516 C362 2.104 . S
C497 C151 2.070 . S
C552 C378 1.617 . S
C533 C183 1.532 . S
C588 C279 1.806 . S
C569 C87 1.751 1_565 S
C605 C119 1.949 1_556 S
C624 C319 2.030 . S
C641 C23 2.012 . S
C660 C353 2.126 . S
C677 C55 1.503 . S
C696 C399 1.636 1_655 S
C732 C273 0.363 . S
C713 C189 0.159 . S
C768 C313 0.430 . S
C749 C221 0.434 . S
C804 C349 0.537 . S
C785 C253 0.226 . S
C821 C157 0.328 . S
C840 C393 0.535 . S
C857 C61 0.490 . S
C876 C282 0.340 . S
C912 C322 0.444 . S
C893 C93 0.480 1_565 S
C948 C360 0.457 . S
C929 C125 0.681 . S
C965 C29 0.577 . S
C984 C402 0.500 . S
C1001 C177 2.184 . S
C1020 C280 2.372 . S
C1037 C209 1.976 1_556 S
C1056 C320 2.142 . S
C1092 C338 1.648 . S
C1073 C241 1.640 . S
C1128 C400 2.670 . S
C1109 C145 2.469 . S
C1145 C49 2.168 . S
C1164 C269 2.368 . S
C1200 C309 2.135 . S
C1181 C81 1.983 1_565 S
C1236 C359 1.651 . S
C1217 C113 1.577 . S
C1253 C17 2.425 . S
C1272 C389 2.673 . S
