# Generated by pormake.
# Topology ptr, (4,4)-cn, num edge types: 1
# Building blocks:
#     Node 0, Type 0, BuildingBlock: GALJAG_clean_sbu_0, # of connection points: 4
#     Node 1, Type 0, BuildingBlock: GALJAG_clean_sbu_0, # of connection points: 4
#     Node 2, Type 0, BuildingBlock: GALJAG_clean_sbu_0, # of connection points: 4
#     Node 3, Type 0, BuildingBlock: GALJAG_clean_sbu_0, # of connection points: 4
#     Node 4, Type 0, BuildingBlock: GALJAG_clean_sbu_0, # of connection points: 4
#     Node 5, Type 0, BuildingBlock: GALJAG_clean_sbu_0, # of connection points: 4
#     Node 6, Type 0, BuildingBlock: GALJAG_clean_sbu_0, # of connection points: 4
#     Node 7, Type 0, BuildingBlock: GALJAG_clean_sbu_0, # of connection points: 4
#     Node 8, Type 0, BuildingBlock: GALJAG_clean_sbu_0, # of connection points: 4
#     Node 9, Type 0, BuildingBlock: GALJAG_clean_sbu_0, # of connection points: 4
#     Node 10, Type 0, BuildingBlock: GALJAG_clean_sbu_0, # of connection points: 4
#     Node 11, Type 0, BuildingBlock: GALJAG_clean_sbu_0, # of connection points: 4
#     Node 12, Type 0, BuildingBlock: GALJAG_clean_sbu_0, # of connection points: 4
#     Node 13, Type 0, BuildingBlock: GALJAG_clean_sbu_0, # of connection points: 4
#     Node 14, Type 0, BuildingBlock: GALJAG_clean_sbu_0, # of connection points: 4
#     Node 15, Type 0, BuildingBlock: GALJAG_clean_sbu_0, # of connection points: 4
#     Node 16, Type 0, BuildingBlock: GALJAG_clean_sbu_0, # of connection points: 4
#     Node 17, Type 0, BuildingBlock: GALJAG_clean_sbu_0, # of connection points: 4
#     Node 18, Type 1, BuildingBlock: MIFKUJ_clean_linker_1, # of connection points: 4
#     Node 19, Type 1, BuildingBlock: MIFKUJ_clean_linker_1, # of connection points: 4
#     Node 20, Type 1, BuildingBlock: MIFKUJ_clean_linker_1, # of connection points: 4
#     Node 21, Type 1, BuildingBlock: MIFKUJ_clean_linker_1, # of connection points: 4
#     Node 22, Type 1, BuildingBlock: MIFKUJ_clean_linker_1, # of connection points: 4
#     Node 23, Type 1, BuildingBlock: MIFKUJ_clean_linker_1, # of connection points: 4
#     Node 24, Type 1, BuildingBlock: MIFKUJ_clean_linker_1, # of connection points: 4
#     Node 25, Type 1, BuildingBlock: MIFKUJ_clean_linker_1, # of connection points: 4
#     Node 26, Type 1, BuildingBlock: MIFKUJ_clean_linker_1, # of connection points: 4
#     Node 27, Type 1, BuildingBlock: MIFKUJ_clean_linker_1, # of connection points: 4
#     Node 28, Type 1, BuildingBlock: MIFKUJ_clean_linker_1, # of connection points: 4
#     Node 29, Type 1, BuildingBlock: MIFKUJ_clean_linker_1, # of connection points: 4
#     Node 30, Type 1, BuildingBlock: MIFKUJ_clean_linker_1, # of connection points: 4
#     Node 31, Type 1, BuildingBlock: MIFKUJ_clean_linker_1, # of connection points: 4
#     Node 32, Type 1, BuildingBlock: MIFKUJ_clean_linker_1, # of connection points: 4
#     Node 33, Type 1, BuildingBlock: MIFKUJ_clean_linker_1, # of connection points: 4
#     Node 34, Type 1, BuildingBlock: MIFKUJ_clean_linker_1, # of connection points: 4
#     Node 35, Type 1, BuildingBlock: MIFKUJ_clean_linker_1, # of connection points: 4
#     Edge 36, Type (0, 1), BuildingBlock: EZIPEK_clean_linker_0, # of connection points: 2
#     Edge 37, Type (0, 1), BuildingBlock: EZIPEK_clean_linker_0, # of connection points: 2
#     Edge 38, Type (0, 1), BuildingBlock: EZIPEK_clean_linker_0, # of connection points: 2
#     Edge 39, Type (0, 1), BuildingBlock: EZIPEK_clean_linker_0, # of connection points: 2
#     Edge 40, Type (0, 1), BuildingBlock: EZIPEK_clean_linker_0, # of connection points: 2
#     Edge 41, Type (0, 1), BuildingBlock: EZIPEK_clean_linker_0, # of connection points: 2
#     Edge 42, Type (0, 1), BuildingBlock: EZIPEK_clean_linker_0, # of connection points: 2
#     Edge 43, Type (0, 1), BuildingBlock: EZIPEK_clean_linker_0, # of connection points: 2
#     Edge 44, Type (0, 1), BuildingBlock: EZIPEK_clean_linker_0, # of connection points: 2
#     Edge 45, Type (0, 1), BuildingBlock: EZIPEK_clean_linker_0, # of connection points: 2
#     Edge 46, Type (0, 1), BuildingBlock: EZIPEK_clean_linker_0, # of connection points: 2
#     Edge 47, Type (0, 1), BuildingBlock: EZIPEK_clean_linker_0, # of connection points: 2
#     Edge 48, Type (0, 1), BuildingBlock: EZIPEK_clean_linker_0, # of connection points: 2
#     Edge 49, Type (0, 1), BuildingBlock: EZIPEK_clean_linker_0, # of connection points: 2
#     Edge 50, Type (0, 1), BuildingBlock: EZIPEK_clean_linker_0, # of connection points: 2
#     Edge 51, Type (0, 1), BuildingBlock: EZIPEK_clean_linker_0, # of connection points: 2
#     Edge 52, Type (0, 1), BuildingBlock: EZIPEK_clean_linker_0, # of connection points: 2
#     Edge 53, Type (0, 1), BuildingBlock: EZIPEK_clean_linker_0, # of connection points: 2
#     Edge 54, Type (0, 1), BuildingBlock: EZIPEK_clean_linker_0, # of connection points: 2
#     Edge 55, Type (0, 1), BuildingBlock: EZIPEK_clean_linker_0, # of connection points: 2
#     Edge 56, Type (0, 1), BuildingBlock: EZIPEK_clean_linker_0, # of connection points: 2
#     Edge 57, Type (0, 1), BuildingBlock: EZIPEK_clean_linker_0, # of connection points: 2
#     Edge 58, Type (0, 1), BuildingBlock: EZIPEK_clean_linker_0, # of connection points: 2
#     Edge 59, Type (0, 1), BuildingBlock: EZIPEK_clean_linker_0, # of connection points: 2
#     Edge 60, Type (0, 1), BuildingBlock: EZIPEK_clean_linker_0, # of connection points: 2
#     Edge 61, Type (0, 1), BuildingBlock: EZIPEK_clean_linker_0, # of connection points: 2
#     Edge 62, Type (0, 1), BuildingBlock: EZIPEK_clean_linker_0, # of connection points: 2
#     Edge 63, Type (0, 1), BuildingBlock: EZIPEK_clean_linker_0, # of connection points: 2
#     Edge 64, Type (0, 1), BuildingBlock: EZIPEK_clean_linker_0, # of connection points: 2
#     Edge 65, Type (0, 1), BuildingBlock: EZIPEK_clean_linker_0, # of connection points: 2
#     Edge 66, Type (0, 1), BuildingBlock: EZIPEK_clean_linker_0, # of connection points: 2
#     Edge 67, Type (0, 1), BuildingBlock: EZIPEK_clean_linker_0, # of connection points: 2
#     Edge 68, Type (0, 1), BuildingBlock: EZIPEK_clean_linker_0, # of connection points: 2
#     Edge 69, Type (0, 1), BuildingBlock: EZIPEK_clean_linker_0, # of connection points: 2
#     Edge 70, Type (0, 1), BuildingBlock: EZIPEK_clean_linker_0, # of connection points: 2
#     Edge 71, Type (0, 1), BuildingBlock: EZIPEK_clean_linker_0, # of connection points: 2
#     Edge 72, Type (0, 1), BuildingBlock: EZIPEK_clean_linker_0, # of connection points: 2
#     Edge 73, Type (0, 1), BuildingBlock: EZIPEK_clean_linker_0, # of connection points: 2
#     Edge 74, Type (0, 1), BuildingBlock: EZIPEK_clean_linker_0, # of connection points: 2
#     Edge 75, Type (0, 1), BuildingBlock: EZIPEK_clean_linker_0, # of connection points: 2
#     Edge 76, Type (0, 1), BuildingBlock: EZIPEK_clean_linker_0, # of connection points: 2
#     Edge 77, Type (0, 1), BuildingBlock: EZIPEK_clean_linker_0, # of connection points: 2
#     Edge 78, Type (0, 1), BuildingBlock: EZIPEK_clean_linker_0, # of connection points: 2
#     Edge 79, Type (0, 1), BuildingBlock: EZIPEK_clean_linker_0, # of connection points: 2
#     Edge 80, Type (0, 1), BuildingBlock: EZIPEK_clean_linker_0, # of connection points: 2
#     Edge 81, Type (0, 1), BuildingBlock: EZIPEK_clean_linker_0, # of connection points: 2
#     Edge 82, Type (0, 1), BuildingBlock: EZIPEK_clean_linker_0, # of connection points: 2
#     Edge 83, Type (0, 1), BuildingBlock: EZIPEK_clean_linker_0, # of connection points: 2
#     Edge 84, Type (0, 1), BuildingBlock: EZIPEK_clean_linker_0, # of connection points: 2
#     Edge 85, Type (0, 1), BuildingBlock: EZIPEK_clean_linker_0, # of connection points: 2
#     Edge 86, Type (0, 1), BuildingBlock: EZIPEK_clean_linker_0, # of connection points: 2
#     Edge 87, Type (0, 1), BuildingBlock: EZIPEK_clean_linker_0, # of connection points: 2
#     Edge 88, Type (0, 1), BuildingBlock: EZIPEK_clean_linker_0, # of connection points: 2
#     Edge 89, Type (0, 1), BuildingBlock: EZIPEK_clean_linker_0, # of connection points: 2
#     Edge 90, Type (0, 1), BuildingBlock: EZIPEK_clean_linker_0, # of connection points: 2
#     Edge 91, Type (0, 1), BuildingBlock: EZIPEK_clean_linker_0, # of connection points: 2
#     Edge 92, Type (0, 1), BuildingBlock: EZIPEK_clean_linker_0, # of connection points: 2
#     Edge 93, Type (0, 1), BuildingBlock: EZIPEK_clean_linker_0, # of connection points: 2
#     Edge 94, Type (0, 1), BuildingBlock: EZIPEK_clean_linker_0, # of connection points: 2
#     Edge 95, Type (0, 1), BuildingBlock: EZIPEK_clean_linker_0, # of connection points: 2
#     Edge 96, Type (0, 1), BuildingBlock: EZIPEK_clean_linker_0, # of connection points: 2
#     Edge 97, Type (0, 1), BuildingBlock: EZIPEK_clean_linker_0, # of connection points: 2
#     Edge 98, Type (0, 1), BuildingBlock: EZIPEK_clean_linker_0, # of connection points: 2
#     Edge 99, Type (0, 1), BuildingBlock: EZIPEK_clean_linker_0, # of connection points: 2
#     Edge 100, Type (0, 1), BuildingBlock: EZIPEK_clean_linker_0, # of connection points: 2
#     Edge 101, Type (0, 1), BuildingBlock: EZIPEK_clean_linker_0, # of connection points: 2
#     Edge 102, Type (0, 1), BuildingBlock: EZIPEK_clean_linker_0, # of connection points: 2
#     Edge 103, Type (0, 1), BuildingBlock: EZIPEK_clean_linker_0, # of connection points: 2
#     Edge 104, Type (0, 1), BuildingBlock: EZIPEK_clean_linker_0, # of connection points: 2
#     Edge 105, Type (0, 1), BuildingBlock: EZIPEK_clean_linker_0, # of connection points: 2
#     Edge 106, Type (0, 1), BuildingBlock: EZIPEK_clean_linker_0, # of connection points: 2
#     Edge 107, Type (0, 1), BuildingBlock: EZIPEK_clean_linker_0, # of connection points: 2
# Relax obj value: 0.053
# Max RMSD: 0.081
# Mean RMSD: 0.075
data_MOF--net-ptr--node1-GALJAG_clean_sbu_0--node2-MIFKUJ_clean_linker_1--edge1-EZIPEK_clean_linker_0
_symmetry_space_group_name_H-M    P1
_symmetry_Int_Tables_number       1
_symmetry_cell_setting            triclinic
loop_
_symmetry_equiv_pos_as_xyz
'x, y, z'
_cell_length_a     68.827147
_cell_length_b     68.929593
_cell_length_c     50.383216
_cell_angle_alpha  90.14348
_cell_angle_beta   89.973455
_cell_angle_gamma 120.09984
loop_
_atom_site_label
_atom_site_type_symbol
_atom_site_fract_x
_atom_site_fract_y
_atom_site_fract_z
_atom_type_partial_charge
In0 In 0.00321 0.35729 0.01636 0.0
O1 O 0.98312 0.36305 0.04863 0.0
O2 O 0.01805 0.38664 0.0452 0.0
C3 C 0.97348 0.31759 0.99463 0.0
C4 C 0.03303 0.34732 0.03751 0.0
C5 C 0.00717 0.38475 0.97608 0.0
O6 O 0.96878 0.32523 0.01496 0.0
O7 O 0.99317 0.32955 0.98591 0.0
O8 O 0.02374 0.3835 0.98471 0.0
O9 O 0.98887 0.37239 0.98783 0.0
C10 C 0.99986 0.38086 0.0572 0.0
O11 O 0.03677 0.35805 0.016 0.0
O12 O 0.01405 0.34106 0.04772 0.0
In13 In 0.64952 0.64932 0.01348 0.0
O14 O 0.64636 0.6255 0.04683 0.0
O15 O 0.61959 0.63232 0.0412 0.0
C16 C 0.688 0.65569 0.99131 0.0
C17 C 0.65838 0.68843 0.03607 0.0
C18 C 0.62192 0.6273 0.97233 0.0
O19 O 0.68024 0.64464 0.01245 0.0
O20 O 0.67672 0.66389 0.98195 0.0
O21 O 0.63207 0.64842 0.97436 0.0
O22 O 0.6254 0.61748 0.99126 0.0
C23 C 0.62743 0.62225 0.05442 0.0
O24 O 0.64351 0.67896 0.01842 0.0
O25 O 0.6691 0.67862 0.04174 0.0
In26 In 0.35285 0.99949 0.01397 0.0
O27 O 0.36151 0.03533 1.00394 0.0
O28 O 0.32983 0.00867 0.99133 0.0
C29 C 0.38158 0.00706 0.05425 0.0
C30 C 0.37171 0.99147 0.97145 0.0
C31 C 0.31581 0.96867 0.03943 0.0
O32 O 0.37486 0.02061 0.0487 0.0
O33 O 0.37409 0.99005 0.03939 0.0
O34 O 0.32371 0.96375 0.01956 0.0
O35 O 0.32626 0.98906 0.04615 0.0
C36 C 0.34347 0.02947 0.99156 0.0
O37 O 0.35146 0.97852 0.97779 0.0
O38 O 0.38234 0.00817 0.98651 0.0
In39 In 0.00198 0.64733 0.01289 0.0
O40 O 0.01774 0.64902 0.97207 0.0
O41 O 0.99695 0.61706 0.98947 0.0
C42 C 0.03494 0.68542 0.03486 0.0
C43 C 0.96836 0.65133 0.99109 0.0
C44 C 0.99585 0.62158 0.05593 0.0
O45 O 0.03916 0.67322 0.01996 0.0
O46 O 0.0144 0.6789 0.0378 0.0
O47 O 0.98633 0.63312 0.0536 0.0
O48 O 0.00764 0.62254 0.03625 0.0
C49 C 0.00858 0.62795 0.96976 0.0
O50 O 0.96459 0.63508 0.00595 0.0
O51 O 0.9888 0.66576 0.98819 0.0
In52 In 0.3543 0.3538 0.01904 0.0
O53 O 0.35376 0.37311 0.98221 0.0
O54 O 0.38444 0.37454 0.99254 0.0
C55 C 0.31648 0.34718 0.04328 0.0
C56 C 0.34531 0.31526 0.99485 0.0
C57 C 0.38197 0.37286 0.06087 0.0
O58 O 0.32835 0.36418 0.02905 0.0
O59 O 0.32335 0.33334 0.04464 0.0
O60 O 0.37358 0.35228 0.05542 0.0
O61 O 0.37654 0.38363 0.0453 0.0
C62 C 0.37417 0.38034 0.97665 0.0
O63 O 0.36267 0.32647 0.00889 0.0
O64 O 0.33219 0.32302 0.99382 0.0
In65 In 0.64927 0.9999 0.01416 0.0
O66 O 0.65042 0.02206 0.04905 0.0
O67 O 0.61923 0.99308 0.0394 0.0
C68 C 0.68869 0.0336 0.99633 0.0
C69 C 0.65624 0.96679 0.03158 0.0
C70 C 0.62189 0.99275 0.97193 0.0
O71 O 0.67483 0.03718 0.00878 0.0
O72 O 0.68305 0.01321 0.99378 0.0
O73 O 0.61456 0.98347 0.99405 0.0
O74 O 0.64288 0.00494 0.97087 0.0
C75 C 0.62979 0.00987 0.05433 0.0
O76 O 0.64752 0.96607 0.00935 0.0
O77 O 0.66148 0.98414 0.04504 0.0
In78 In 0.67055 0.69009 0.349 0.0
O79 O 0.65037 0.69312 0.38314 0.0
O80 O 0.68345 0.72054 0.3759 0.0
C81 C 0.63826 0.65142 0.32719 0.0
C82 C 0.70117 0.68213 0.3724 0.0
C83 C 0.67667 0.71757 0.30758 0.0
O84 O 0.63392 0.66157 0.34504 0.0
O85 O 0.65868 0.6603 0.32105 0.0
O86 O 0.68641 0.70621 0.30896 0.0
O87 O 0.6645 0.71542 0.32728 0.0
C88 C 0.66582 0.71253 0.38982 0.0
O89 O 0.70588 0.6949 0.35258 0.0
O90 O 0.68099 0.67298 0.37982 0.0
In91 In 0.31818 0.98084 0.34877 0.0
O92 O 0.31665 0.9658 0.38988 0.0
O93 O 0.28596 0.95689 0.37057 0.0
C94 C 0.3571 0.98615 0.32916 0.0
C95 C 0.32543 0.0204 0.36858 0.0
C96 C 0.29132 0.95843 0.30756 0.0
O97 O 0.34687 0.97332 0.34835 0.0
O98 O 0.34785 0.99654 0.31997 0.0
O99 O 0.29684 0.97853 0.31279 0.0
O100 O 0.2994 0.94982 0.32295 0.0
C101 C 0.29549 0.95494 0.39088 0.0
O102 O 0.31095 0.00998 0.35078 0.0
O103 O 0.33661 0.01139 0.37555 0.0
In104 In 0.02068 0.33617 0.35083 0.0
O105 O 0.03036 0.37224 0.34062 0.0
O106 O 0.99926 0.34586 0.32588 0.0
C107 C 0.04825 0.3444 0.3927 0.0
C108 C 0.0396 0.32813 0.30843 0.0
C109 C 0.98268 0.30535 0.37496 0.0
O110 O 0.03994 0.35667 0.38752 0.0
O111 O 0.04286 0.32835 0.3768 0.0
O112 O 0.99438 0.29998 0.36075 0.0
O113 O 0.98976 0.32611 0.37638 0.0
C114 C 0.01301 0.36664 0.32681 0.0
O115 O 0.01907 0.31567 0.31405 0.0
O116 O 0.05043 0.34427 0.3242 0.0
In117 In 0.66748 0.98081 0.34712 0.0
O118 O 0.68863 0.98026 0.31239 0.0
O119 O 0.65712 0.95081 0.32017 0.0
C120 C 0.69973 0.01934 0.36905 0.0
C121 C 0.63618 0.98718 0.323 0.0
C122 C 0.66073 0.95418 0.38965 0.0
O123 O 0.70434 0.00725 0.35452 0.0
O124 O 0.6791 0.0125 0.37173 0.0
O125 O 0.65201 0.96645 0.38798 0.0
O126 O 0.67201 0.95484 0.36964 0.0
C127 C 0.67448 0.96033 0.30582 0.0
O128 O 0.63124 0.97305 0.34138 0.0
O129 O 0.65675 0.99838 0.31729 0.0
In130 In 0.02184 0.6893 0.35476 0.0
O131 O 0.02122 0.70285 0.31319 0.0
O132 O 0.05249 0.71623 0.33298 0.0
C133 C 0.98437 0.68478 0.3782 0.0
C134 C 0.01484 0.65085 0.332 0.0
C135 C 0.04975 0.70667 0.39659 0.0
O136 O 0.99584 0.70038 0.36204 0.0
O137 O 0.99153 0.6714 0.38211 0.0
O138 O 0.0418 0.68646 0.38952 0.0
O139 O 0.04384 0.71796 0.38254 0.0
C140 C 0.04217 0.71597 0.31224 0.0
O141 O 0.03177 0.66275 0.34635 0.0
O142 O 1.00119 0.65788 0.3298 0.0
In143 In 0.31709 0.33736 0.34965 0.0
O144 O 0.30809 0.30093 0.35528 0.0
O145 O 0.33701 0.32618 0.3753 0.0
C146 C 0.28911 0.33168 0.30931 0.0
C147 C 0.29794 0.34554 0.39159 0.0
C148 C 0.35551 0.36743 0.32561 0.0
O149 O 0.29666 0.34829 0.32481 0.0
O150 O 0.29537 0.3177 0.31425 0.0
O151 O 0.34869 0.37183 0.34681 0.0
O152 O 0.34341 0.3477 0.31709 0.0
C153 C 0.32414 0.30558 0.37092 0.0
O154 O 0.28832 0.32741 0.37871 0.0
O155 O 0.31725 0.35976 0.38339 0.0
In156 In 0.33759 0.02467 0.68036 0.0
O157 O 0.37139 0.02588 0.68067 0.0
O158 O 0.34817 0.00814 0.71166 0.0
C159 C 0.34198 0.05211 0.63981 0.0
C160 C 0.33294 0.04733 0.72135 0.0
C161 C 0.30811 0.98509 0.65822 0.0
O162 O 0.35846 0.05088 0.64883 0.0
O163 O 0.32358 0.03986 0.65143 0.0
O164 O 0.30317 0.99273 0.67835 0.0
O165 O 0.32794 0.99697 0.6499 0.0
C166 C 0.36734 0.01471 0.70186 0.0
O167 O 0.31665 0.02937 0.71239 0.0
O168 O 0.35137 0.05383 0.70959 0.0
In169 In 0.98287 0.3124 0.68382 0.0
O170 O 0.9794 0.3437 0.68594 0.0
O171 O 1.00035 0.34019 0.71436 0.0
C172 C 0.95548 0.28906 0.64314 0.0
C173 C 0.96022 0.28447 0.72424 0.0
C174 C 0.0228 0.32332 0.66195 0.0
O175 O 0.95668 0.30678 0.65212 0.0
O176 O 0.968 0.28321 0.65466 0.0
O177 O 0.0161 0.31244 0.68339 0.0
O178 O 0.00972 0.32925 0.65214 0.0
C179 C 0.99188 0.35158 0.70612 0.0
O180 O 0.97813 0.28622 0.71505 0.0
O181 O 0.95375 0.29651 0.71291 0.0
In182 In 0.68406 0.66711 0.68346 0.0
O183 O 0.69317 0.70345 0.67657 0.0
O184 O 0.66586 0.67785 0.65443 0.0
C185 C 0.7122 0.67362 0.72431 0.0
C186 C 0.70269 0.65821 0.64154 0.0
C187 C 0.64468 0.63875 0.70736 0.0
O188 O 0.70515 0.68699 0.71953 0.0
O189 O 0.70525 0.65725 0.70857 0.0
O190 O 0.65485 0.63196 0.69256 0.0
O191 O 0.65391 0.65976 0.70946 0.0
C192 C 0.67814 0.69852 0.65922 0.0
O193 O 0.68335 0.64416 0.64993 0.0
O194 O 0.7125 0.67646 0.65418 0.0
In195 In 0.33267 0.31178 0.68144 0.0
O196 O 0.35379 0.30592 0.65051 0.0
O197 O 0.31839 0.28446 0.64977 0.0
C198 C 0.36292 0.35036 0.7051 0.0
C199 C 0.30463 0.32331 0.65835 0.0
C200 C 0.32603 0.28379 0.72243 0.0
O201 O 0.36805 0.34207 0.68577 0.0
O202 O 0.3425 0.33965 0.71177 0.0
O203 O 0.31117 0.28829 0.71514 0.0
O204 O 0.34377 0.29297 0.70885 0.0
C205 C 0.33708 0.28938 0.63977 0.0
O206 O 0.29792 0.30754 0.675 0.0
O207 O 0.32554 0.33377 0.65414 0.0
In208 In 0.68968 0.02242 0.68591 0.0
O209 O 0.69012 0.04393 0.65093 0.0
O210 O 0.71969 0.04241 0.65881 0.0
C211 C 0.65122 0.01476 0.70969 0.0
C212 C 0.68076 0.98383 0.66168 0.0
C213 C 0.71823 0.04241 0.72702 0.0
O214 O 0.66202 0.03088 0.69395 0.0
O215 O 0.65955 0.0023 0.71311 0.0
O216 O 0.71166 0.02241 0.72025 0.0
O217 O 0.71065 0.05226 0.71301 0.0
C218 C 0.71005 0.04993 0.64432 0.0
O219 O 0.69559 0.99288 0.67947 0.0
O220 O 0.67017 0.99389 0.65647 0.0
In221 In 0.98392 0.6659 0.68351 0.0
O222 O 0.97107 0.62816 0.68082 0.0
O223 O 0.99895 0.64777 0.7058 0.0
C224 C 0.95664 0.65932 0.64181 0.0
C225 C 0.96698 0.67544 0.7267 0.0
C226 C 0.02324 0.70062 0.66634 0.0
O227 O 0.94956 0.65545 0.66542 0.0
O228 O 0.97715 0.66552 0.63914 0.0
O229 O 0.01186 0.703 0.68437 0.0
O230 O 0.01512 0.68087 0.65789 0.0
C231 C 0.98536 0.62862 0.69683 0.0
O232 O 0.96086 0.67644 0.7034 0.0
O233 O 0.98259 0.67094 0.72824 0.0
H234 H 0.14936 0.35551 0.21296 0.0
H235 H 0.12006 0.35286 0.24273 0.0
H236 H 0.07045 0.29478 0.19994 0.0
H237 H 0.10001 0.29703 0.17026 0.0
H238 H 0.16293 0.32684 0.20837 0.0
H239 H 0.12989 0.35685 0.15168 0.0
H240 H 0.10189 0.35977 0.12479 0.0
H241 H 0.0957 0.30646 0.07409 0.0
H242 H 0.12277 0.30252 0.10193 0.0
H243 H 0.18212 0.3018 0.10627 0.0
H244 H 0.2145 0.30594 0.08085 0.0
H245 H 0.25816 0.3664 0.1243 0.0
H246 H 0.22586 0.36244 0.14957 0.0
H247 H 0.16449 0.3292 0.11008 0.0
H248 H 0.19844 0.30012 0.17183 0.0
H249 H 0.22611 0.29954 0.20234 0.0
H250 H 0.23314 0.35809 0.24235 0.0
H251 H 0.2058 0.35888 0.2119 0.0
C252 C 0.12693 0.32646 0.18937 0.0
C253 C 0.1322 0.3422 0.20986 0.0
C254 C 0.11552 0.34073 0.22682 0.0
C255 C 0.09321 0.32352 0.22364 0.0
C256 C 0.08765 0.30809 0.20272 0.0
C257 C 0.10445 0.30948 0.18576 0.0
C258 C 0.14537 0.32721 0.17321 0.0
C259 C 0.16333 0.32761 0.18684 0.0
C260 C 0.14565 0.32768 0.14508 0.0
C261 C 0.12816 0.32911 0.12926 0.0
C262 C 0.12211 0.34532 0.13528 0.0
C263 C 0.1063 0.34717 0.11977 0.0
C264 C 0.09669 0.33327 0.09754 0.0
C265 C 0.10284 0.31724 0.09127 0.0
C266 C 0.11833 0.31508 0.1071 0.0
C267 C 0.20161 0.33165 0.13005 0.0
C268 C 0.19865 0.31597 0.11029 0.0
C269 C 0.21705 0.31831 0.09583 0.0
C270 C 0.23864 0.33646 0.10078 0.0
C271 C 0.2416 0.35228 0.12029 0.0
C272 C 0.22322 0.34992 0.13477 0.0
C273 C 0.18205 0.32914 0.14538 0.0
C274 C 0.16388 0.32828 0.13158 0.0
C275 C 0.18172 0.32881 0.17342 0.0
C276 C 0.20008 0.32956 0.18961 0.0
C277 C 0.20626 0.31307 0.18684 0.0
C278 C 0.22191 0.31267 0.20424 0.0
C279 C 0.23146 0.32871 0.22458 0.0
C280 C 0.22586 0.34558 0.22678 0.0
C281 C 0.21027 0.34599 0.20946 0.0
H282 H 0.71596 0.88998 0.19705 0.0
H283 H 0.71581 0.91694 0.22883 0.0
H284 H 0.64881 0.8987 0.20409 0.0
H285 H 0.64881 0.87156 0.17235 0.0
H286 H 0.6871 0.84581 0.2018 0.0
H287 H 0.70537 0.90111 0.13195 0.0
H288 H 0.70171 0.92622 0.10168 0.0
H289 H 0.63432 0.87369 0.08264 0.0
H290 H 0.63846 0.84891 0.11246 0.0
H291 H 0.64106 0.79147 0.11101 0.0
H292 H 0.63757 0.75957 0.08532 0.0
H293 H 0.70427 0.77618 0.10938 0.0
H294 H 0.70784 0.80817 0.13526 0.0
H295 H 0.66984 0.83519 0.10569 0.0
H296 H 0.65305 0.77864 0.16887 0.0
H297 H 0.65382 0.75153 0.19928 0.0
H298 H 0.71215 0.80473 0.23808 0.0
H299 H 0.71299 0.8316 0.20586 0.0
C300 C 0.68243 0.8788 0.18225 0.0
C301 C 0.70142 0.89212 0.198 0.0
C302 C 0.70137 0.9075 0.21607 0.0
C303 C 0.6823 0.90972 0.21874 0.0
C304 C 0.66372 0.89727 0.20212 0.0
C305 C 0.66377 0.88188 0.18397 0.0
C306 C 0.68109 0.85978 0.16684 0.0
C307 C 0.68397 0.8437 0.1806 0.0
C308 C 0.67562 0.85649 0.13958 0.0
C309 C 0.67263 0.87274 0.12342 0.0
C310 C 0.69005 0.89489 0.12052 0.0
C311 C 0.68814 0.90906 0.10217 0.0
C312 C 0.66924 0.90115 0.08512 0.0
C313 C 0.65068 0.87983 0.09131 0.0
C314 C 0.65263 0.86562 0.10944 0.0
C315 C 0.67466 0.80211 0.12518 0.0
C316 C 0.65497 0.78832 0.11073 0.0
C317 C 0.65295 0.77016 0.09613 0.0
C318 C 0.67068 0.76567 0.0955 0.0
C319 C 0.69047 0.7795 0.10968 0.0
C320 C 0.69244 0.79761 0.12448 0.0
C321 C 0.67661 0.82144 0.14046 0.0
C322 C 0.67352 0.83741 0.12679 0.0
C323 C 0.68167 0.82443 0.16796 0.0
C324 C 0.68316 0.80733 0.18462 0.0
C325 C 0.66668 0.78447 0.18301 0.0
C326 C 0.6669 0.76896 0.20066 0.0
C327 C 0.6829 0.77613 0.22114 0.0
C328 C 0.69963 0.79882 0.22247 0.0
C329 C 0.69997 0.81417 0.20417 0.0
H330 H 0.12005 0.82654 0.20746 0.0
H331 H 0.09341 0.79988 0.23943 0.0
H332 H 0.0995 0.7466 0.20271 0.0
H333 H 0.12781 0.7736 0.17224 0.0
H334 H 0.16063 0.83996 0.2058 0.0
H335 H 0.10265 0.8012 0.13869 0.0
H336 H 0.07548 0.76919 0.11176 0.0
H337 H 0.12848 0.75784 0.08509 0.0
H338 H 0.15559 0.78948 0.11225 0.0
H339 H 0.21327 0.84676 0.11406 0.0
H340 H 0.24538 0.87525 0.0886 0.0
H341 H 0.2297 0.92561 0.11394 0.0
H342 H 0.19759 0.8972 0.1395 0.0
H343 H 0.16893 0.83215 0.10934 0.0
H344 H 0.22538 0.86676 0.17629 0.0
H345 H 0.25317 0.89415 0.20732 0.0
H346 H 0.20435 0.91128 0.23488 0.0
H347 H 0.17656 0.88407 0.20374 0.0
C348 C 0.1261 0.80226 0.18723 0.0
C349 C 0.11567 0.80912 0.20611 0.0
C350 C 0.10033 0.79388 0.2243 0.0
C351 C 0.09454 0.77126 0.22359 0.0
C352 C 0.10376 0.764 0.20365 0.0
C353 C 0.11976 0.77942 0.18602 0.0
C354 C 0.14522 0.81945 0.17115 0.0
C355 C 0.16202 0.83842 0.18454 0.0
C356 C 0.14789 0.81704 0.14361 0.0
C357 C 0.13115 0.79764 0.1277 0.0
C358 C 0.10841 0.79173 0.12724 0.0
C359 C 0.09296 0.77362 0.11179 0.0
C360 C 0.10008 0.76131 0.09645 0.0
C361 C 0.12276 0.76725 0.09674 0.0
C362 C 0.13817 0.78527 0.11221 0.0
C363 C 0.20313 0.8699 0.1288 0.0
C364 C 0.21671 0.86392 0.11413 0.0
C365 C 0.235 0.88011 0.09969 0.0
C366 C 0.23979 0.90242 0.09948 0.0
C367 C 0.22619 0.90844 0.11395 0.0
C368 C 0.20799 0.89228 0.12856 0.0
C369 C 0.18368 0.85263 0.14401 0.0
C370 C 0.16708 0.83371 0.1305 0.0
C371 C 0.18121 0.85492 0.17146 0.0
C372 C 0.1989 0.87342 0.1876 0.0
C373 C 0.2208 0.8768 0.18848 0.0
C374 C 0.23663 0.89235 0.2062 0.0
C375 C 0.23074 0.90467 0.2233 0.0
C376 C 0.20917 0.90195 0.22173 0.0
C377 C 0.19335 0.88641 0.20406 0.0
H378 H 0.28575 0.17286 0.83119 0.0
H379 H 0.28595 0.1997 0.79915 0.0
H380 H 0.35126 0.25006 0.82714 0.0
H381 H 0.35135 0.22314 0.85892 0.0
H382 H 0.31481 0.15838 0.82866 0.0
H383 H 0.29471 0.19553 0.89568 0.0
H384 H 0.29906 0.22783 0.92137 0.0
H385 H 0.36467 0.24205 0.94707 0.0
H386 H 0.36044 0.20984 0.92133 0.0
H387 H 0.36009 0.15157 0.92167 0.0
H388 H 0.36371 0.12301 0.94674 0.0
H389 H 0.29845 0.07224 0.91899 0.0
H390 H 0.29477 0.10074 0.89385 0.0
H391 H 0.3308 0.16603 0.92519 0.0
H392 H 0.35267 0.13104 0.86008 0.0
H393 H 0.35469 0.10522 0.8281 0.0
H394 H 0.2909 0.09043 0.79519 0.0
H395 H 0.28838 0.11563 0.82771 0.0
C396 C 0.3185 0.19597 0.84754 0.0
C397 C 0.29993 0.1898 0.83085 0.0
C398 C 0.29998 0.20509 0.81267 0.0
C399 C 0.31858 0.22679 0.81092 0.0
C400 C 0.33668 0.23341 0.82845 0.0
C401 C 0.33668 0.21807 0.84661 0.0
C402 C 0.31992 0.17857 0.86342 0.0
C403 C 0.31771 0.15972 0.84993 0.0
C404 C 0.32493 0.18099 0.89087 0.0
C405 C 0.32734 0.20039 0.90641 0.0
C406 C 0.31007 0.20564 0.90672 0.0
C407 C 0.31248 0.22395 0.92144 0.0
C408 C 0.33217 0.23722 0.93605 0.0
C409 C 0.34936 0.23192 0.93593 0.0
C410 C 0.34692 0.21358 0.9213 0.0
C411 C 0.32724 0.12825 0.90572 0.0
C412 C 0.34652 0.13431 0.92104 0.0
C413 C 0.3486 0.11808 0.9353 0.0
C414 C 0.33134 0.09559 0.93467 0.0
C415 C 0.31193 0.08953 0.91966 0.0
C416 C 0.30991 0.10574 0.90526 0.0
C417 C 0.32517 0.14553 0.89047 0.0
C418 C 0.32744 0.16441 0.90402 0.0
C419 C 0.32051 0.14329 0.86292 0.0
C420 C 0.32028 0.12522 0.84648 0.0
C421 C 0.33872 0.12168 0.84667 0.0
C422 C 0.33996 0.10706 0.82835 0.0
C423 C 0.32295 0.09603 0.80937 0.0
C424 C 0.30412 0.09879 0.80979 0.0
C425 C 0.30276 0.11321 0.82827 0.0
H426 H 0.83194 0.11286 0.83463 0.0
H427 H 0.80482 0.08632 0.80244 0.0
H428 H 0.75613 0.10439 0.82772 0.0
H429 H 0.78329 0.13116 0.85981 0.0
H430 H 0.84823 0.1569 0.83167 0.0
H431 H 0.80722 0.09992 0.89724 0.0
H432 H 0.7745 0.07317 0.92333 0.0
H433 H 0.76523 0.12722 0.95101 0.0
H434 H 0.79751 0.15391 0.92453 0.0
H435 H 0.85338 0.20979 0.92258 0.0
H436 H 0.88106 0.24256 0.94789 0.0
H437 H 0.93316 0.22887 0.92401 0.0
H438 H 0.9055 0.19601 0.8986 0.0
H439 H 0.83954 0.16643 0.92762 0.0
H440 H 0.87578 0.22236 0.86187 0.0
H441 H 0.90212 0.24958 0.82983 0.0
H442 H 0.91696 0.19987 0.79967 0.0
H443 H 0.89122 0.17277 0.83229 0.0
C444 C 0.80965 0.12395 0.84976 0.0
C445 C 0.8153 0.11084 0.83363 0.0
C446 C 0.79987 0.0957 0.81531 0.0
C447 C 0.77856 0.09348 0.81274 0.0
C448 C 0.77249 0.10584 0.82956 0.0
C449 C 0.78794 0.121 0.84792 0.0
C450 C 0.82727 0.14247 0.86598 0.0
C451 C 0.84662 0.1587 0.85283 0.0
C452 C 0.82459 0.14535 0.8933 0.0
C453 C 0.8047 0.12891 0.90868 0.0
C454 C 0.79803 0.10601 0.90868 0.0
C455 C 0.77954 0.0908 0.92372 0.0
C456 C 0.76762 0.09833 0.93912 0.0
C457 C 0.77434 0.12118 0.93932 0.0
C458 C 0.79272 0.13635 0.92422 0.0
C459 C 0.87739 0.20053 0.90856 0.0
C460 C 0.87073 0.21375 0.92285 0.0
C461 C 0.88646 0.2324 0.93725 0.0
C462 C 0.90903 0.23798 0.9378 0.0
C463 C 0.91575 0.22471 0.9238 0.0
C464 C 0.90003 0.2061 0.90924 0.0
C465 C 0.86052 0.18078 0.89328 0.0
C466 C 0.84135 0.1644 0.90656 0.0
C467 C 0.86314 0.17796 0.86593 0.0
C468 C 0.88161 0.1955 0.84968 0.0
C469 C 0.88528 0.2175 0.8491 0.0
C470 C 0.9002 0.23301 0.83075 0.0
C471 C 0.91139 0.22664 0.81249 0.0
C472 C 0.9085 0.20504 0.81373 0.0
C473 C 0.89379 0.18961 0.83225 0.0
H474 H 0.79726 0.64566 0.81596 0.0
H475 H 0.77036 0.64816 0.78644 0.0
H476 H 0.77816 0.70543 0.83029 0.0
H477 H 0.80553 0.70322 0.85982 0.0
H478 H 0.84006 0.67534 0.822 0.0
H479 H 0.77457 0.64343 0.87649 0.0
H480 H 0.74332 0.64062 0.90274 0.0
H481 H 0.79026 0.69181 0.95592 0.0
H482 H 0.82158 0.69579 0.92871 0.0
H483 H 0.88194 0.69713 0.92514 0.0
H484 H 0.90891 0.69162 0.95136 0.0
H485 H 0.89082 0.63112 0.90737 0.0
H486 H 0.86406 0.63674 0.88095 0.0
H487 H 0.83591 0.66898 0.92002 0.0
H488 H 0.90133 0.70086 0.86347 0.0
H489 H 0.93167 0.70337 0.83519 0.0
H490 H 0.88285 0.6487 0.78725 0.0
H491 H 0.85262 0.64579 0.81566 0.0
C492 C 0.80341 0.67423 0.84015 0.0
C493 C 0.79321 0.65876 0.81932 0.0
C494 C 0.77785 0.66014 0.80251 0.0
C495 C 0.77243 0.67703 0.80615 0.0
C496 C 0.78224 0.69232 0.8272 0.0
C497 C 0.79772 0.69098 0.84407 0.0
C498 C 0.8208 0.67326 0.85664 0.0
C499 C 0.83899 0.67371 0.84345 0.0
C500 C 0.81973 0.6718 0.88473 0.0
C501 C 0.80053 0.67021 0.90019 0.0
C502 C 0.77823 0.65453 0.89333 0.0
C503 C 0.76037 0.65271 0.90848 0.0
C504 C 0.7645 0.66604 0.93123 0.0
C505 C 0.78674 0.68144 0.93838 0.0
C506 C 0.80457 0.68364 0.92288 0.0
C507 C 0.8712 0.66748 0.90093 0.0
C508 C 0.8838 0.6827 0.92114 0.0
C509 C 0.89911 0.67955 0.93608 0.0
C510 C 0.90179 0.66096 0.93127 0.0
C511 C 0.88897 0.64556 0.91133 0.0
C512 C 0.87384 0.64884 0.89621 0.0
C513 C 0.85483 0.67072 0.88525 0.0
C514 C 0.83694 0.67077 0.8986 0.0
C515 C 0.85598 0.6724 0.85728 0.0
C516 C 0.87467 0.67307 0.84174 0.0
C517 C 0.89717 0.68914 0.84718 0.0
C518 C 0.91445 0.6907 0.831 0.0
C519 C 0.90939 0.67634 0.80907 0.0
C520 C 0.88702 0.65999 0.80401 0.0
C521 C 0.86981 0.65837 0.82019 0.0
H522 H 0.81512 0.68605 0.55179 0.0
H523 H 0.785 0.68239 0.58091 0.0
H524 H 0.73632 0.62722 0.53349 0.0
H525 H 0.76664 0.63042 0.50448 0.0
H526 H 0.82867 0.65768 0.54473 0.0
H527 H 0.79606 0.68999 0.49036 0.0
H528 H 0.76833 0.69355 0.46365 0.0
H529 H 0.76536 0.64401 0.40881 0.0
H530 H 0.79186 0.63914 0.43653 0.0
H531 H 0.85082 0.63638 0.44333 0.0
H532 H 0.88373 0.64209 0.41777 0.0
H533 H 0.92514 0.7039 0.46009 0.0
H534 H 0.89236 0.69798 0.48601 0.0
H535 H 0.8327 0.6652 0.44684 0.0
H536 H 0.86681 0.63431 0.50442 0.0
H537 H 0.89465 0.63278 0.53363 0.0
H538 H 0.89727 0.6859 0.58165 0.0
H539 H 0.87012 0.688 0.5522 0.0
C540 C 0.7932 0.65853 0.52589 0.0
C541 C 0.798 0.67315 0.54755 0.0
C542 C 0.78085 0.67112 0.56414 0.0
C543 C 0.75855 0.65451 0.55936 0.0
C544 C 0.7535 0.64014 0.53742 0.0
C545 C 0.77075 0.64205 0.52086 0.0
C546 C 0.81201 0.66 0.50975 0.0
C547 C 0.82962 0.6596 0.52331 0.0
C548 C 0.81297 0.6619 0.48169 0.0
C549 C 0.79576 0.6639 0.46589 0.0
C550 C 0.78901 0.67937 0.47307 0.0
C551 C 0.77338 0.68162 0.45765 0.0
C552 C 0.76477 0.66901 0.43429 0.0
C553 C 0.77173 0.65381 0.42683 0.0
C554 C 0.78691 0.65113 0.44261 0.0
C555 C 0.86921 0.66665 0.46671 0.0
C556 C 0.86699 0.65113 0.44713 0.0
C557 C 0.8857 0.65439 0.43256 0.0
C558 C 0.90683 0.67343 0.43704 0.0
C559 C 0.90898 0.6891 0.45638 0.0
C560 C 0.89034 0.68568 0.4712 0.0
C561 C 0.84933 0.66326 0.48198 0.0
C562 C 0.83153 0.66318 0.46823 0.0
C563 C 0.84835 0.66144 0.50994 0.0
C564 C 0.86642 0.66136 0.52602 0.0
C565 C 0.8737 0.64594 0.5209 0.0
C566 C 0.8894 0.64492 0.53764 0.0
C567 C 0.89777 0.65908 0.55989 0.0
C568 C 0.89087 0.67476 0.56467 0.0
C569 C 0.87538 0.67591 0.54788 0.0
H570 H 0.38152 0.22145 0.53219 0.0
H571 H 0.37938 0.24715 0.56433 0.0
H572 H 0.31367 0.22924 0.53489 0.0
H573 H 0.31555 0.20325 0.50299 0.0
H574 H 0.35455 0.17756 0.5328 0.0
H575 H 0.37264 0.23559 0.46945 0.0
H576 H 0.36782 0.26357 0.4448 0.0
H577 H 0.30516 0.21109 0.41295 0.0
H578 H 0.30953 0.1831 0.43815 0.0
H579 H 0.3081 0.12533 0.44164 0.0
H580 H 0.30352 0.09294 0.41597 0.0
H581 H 0.37027 0.10852 0.43841 0.0
H582 H 0.37485 0.14085 0.46436 0.0
H583 H 0.33836 0.16973 0.43632 0.0
H584 H 0.31799 0.11261 0.50157 0.0
H585 H 0.31737 0.08549 0.53351 0.0
H586 H 0.38172 0.13582 0.56397 0.0
H587 H 0.3828 0.16282 0.53153 0.0
C588 C 0.34875 0.21047 0.51507 0.0
C589 C 0.36682 0.22334 0.53228 0.0
C590 C 0.36567 0.23805 0.55051 0.0
C591 C 0.34642 0.2401 0.55181 0.0
C592 C 0.32873 0.228 0.53392 0.0
C593 C 0.32986 0.21324 0.51571 0.0
C594 C 0.34865 0.19249 0.49859 0.0
C595 C 0.35161 0.17615 0.51154 0.0
C596 C 0.34389 0.19021 0.47106 0.0
C597 C 0.34131 0.20724 0.45592 0.0
C598 C 0.35774 0.23008 0.4574 0.0
C599 C 0.35511 0.24602 0.44323 0.0
C600 C 0.33616 0.23931 0.42712 0.0
C601 C 0.3199 0.21651 0.42528 0.0
C602 C 0.32244 0.20059 0.43959 0.0
C603 C 0.34177 0.13541 0.45504 0.0
C604 C 0.32179 0.12184 0.44098 0.0
C605 C 0.31916 0.10342 0.42637 0.0
C606 C 0.33659 0.0985 0.42528 0.0
C607 C 0.35669 0.11218 0.439 0.0
C608 C 0.35924 0.13049 0.45387 0.0
C609 C 0.34433 0.15485 0.4706 0.0
C610 C 0.34177 0.1714 0.45748 0.0
C611 C 0.34936 0.15728 0.49805 0.0
C612 C 0.35053 0.13977 0.51398 0.0
C613 C 0.33237 0.11763 0.51438 0.0
C614 C 0.33193 0.10218 0.53268 0.0
C615 C 0.34949 0.10876 0.55101 0.0
C616 C 0.36809 0.13049 0.54986 0.0
C617 C 0.36864 0.14586 0.53143 0.0
H618 H 0.78106 0.16025 0.53381 0.0
H619 H 0.75426 0.13391 0.56624 0.0
H620 H 0.77137 0.08419 0.54255 0.0
H621 H 0.79834 0.11057 0.51013 0.0
H622 H 0.82538 0.17525 0.5379 0.0
H623 H 0.7678 0.13553 0.47207 0.0
H624 H 0.74045 0.10318 0.44583 0.0
H625 H 0.79344 0.09219 0.41817 0.0
H626 H 0.82078 0.12421 0.44474 0.0
H627 H 0.87769 0.182 0.44476 0.0
H628 H 0.90988 0.21073 0.41967 0.0
H629 H 0.89508 0.26112 0.44745 0.0
H630 H 0.86283 0.23245 0.4725 0.0
H631 H 0.83396 0.16689 0.44159 0.0
H632 H 0.89086 0.2031 0.50622 0.0
H633 H 0.91882 0.22963 0.53765 0.0
H634 H 0.86937 0.24369 0.57057 0.0
H635 H 0.84151 0.21781 0.53854 0.0
C636 C 0.79167 0.13737 0.51948 0.0
C637 C 0.77873 0.14353 0.53518 0.0
C638 C 0.76345 0.12855 0.55363 0.0
C639 C 0.76095 0.10721 0.55676 0.0
C640 C 0.77305 0.10059 0.54027 0.0
C641 C 0.78834 0.11559 0.52174 0.0
C642 C 0.81047 0.15463 0.50339 0.0
C643 C 0.82701 0.17372 0.51668 0.0
C644 C 0.81313 0.15192 0.47602 0.0
C645 C 0.79634 0.13218 0.46062 0.0
C646 C 0.77353 0.12603 0.46064 0.0
C647 C 0.75797 0.10773 0.44556 0.0
C648 C 0.76503 0.09545 0.43009 0.0
C649 C 0.78777 0.10157 0.42995 0.0
C650 C 0.8033 0.11981 0.44507 0.0
C651 C 0.86795 0.2051 0.46067 0.0
C652 C 0.88128 0.1992 0.44536 0.0
C653 C 0.89962 0.21553 0.43111 0.0
C654 C 0.90478 0.23796 0.43179 0.0
C655 C 0.89132 0.24387 0.44677 0.0
C656 C 0.87304 0.22756 0.46111 0.0
C657 C 0.84867 0.18776 0.47607 0.0
C658 C 0.83216 0.16862 0.46273 0.0
C659 C 0.84622 0.19018 0.50357 0.0
C660 C 0.86405 0.20852 0.51983 0.0
C661 C 0.88617 0.21243 0.51951 0.0
C662 C 0.90211 0.22746 0.53751 0.0
C663 C 0.89606 0.23851 0.55635 0.0
C664 C 0.87429 0.23532 0.55608 0.0
C665 C 0.85843 0.22051 0.53789 0.0
H666 H 0.96144 0.51022 0.15912 0.0
H667 H 0.96228 0.53729 0.12731 0.0
H668 H 0.01999 0.59039 0.16716 0.0
H669 H 0.02071 0.56301 0.19736 0.0
H670 H 0.98854 0.49715 0.16216 0.0
H671 H 0.96688 0.53439 0.22829 0.0
H672 H 0.97103 0.56635 0.25467 0.0
H673 H 0.03481 0.57796 0.28408 0.0
H674 H 0.03098 0.54637 0.25746 0.0
H675 H 0.03146 0.48933 0.25595 0.0
H676 H 0.03476 0.46069 0.28124 0.0
H677 H 0.96963 0.4101 0.25294 0.0
H678 H 0.96626 0.43869 0.22758 0.0
H679 H 1.00158 0.50348 0.25923 0.0
H680 H 0.02404 0.46792 0.19421 0.0
H681 H 0.02485 0.44103 0.16281 0.0
H682 H 0.96168 0.42809 0.1298 0.0
H683 H 0.96038 0.45437 0.16168 0.0
C684 C 0.991 0.53439 0.18085 0.0
C685 C 0.97433 0.52768 0.16115 0.0
C686 C 0.97467 0.54315 0.14306 0.0
C687 C 0.99127 0.56585 0.14472 0.0
C688 C 0.00706 0.57293 0.16546 0.0
C689 C 0.00727 0.55728 0.18295 0.0
C690 C 0.99249 0.51702 0.197 0.0
C691 C 0.99074 0.49831 0.18354 0.0
C692 C 0.99663 0.51899 0.22474 0.0
C693 C 0.99872 0.5381 0.24069 0.0
C694 C 0.98182 0.54388 0.24027 0.0
C695 C 0.9841 0.56198 0.25537 0.0
C696 C 0.0032 0.57438 0.27126 0.0
C697 C 0.01995 0.5685 0.27196 0.0
C698 C 0.01772 0.55049 0.25682 0.0
C699 C 0.99869 0.46611 0.23972 0.0
C700 C 0.01785 0.47209 0.25524 0.0
C701 C 0.01976 0.45581 0.26962 0.0
C702 C 0.00244 0.43335 0.2689 0.0
C703 C 0.98316 0.42737 0.25367 0.0
C704 C 0.9813 0.44363 0.23916 0.0
C705 C 0.99685 0.48347 0.22437 0.0
C706 C 0.99879 0.50219 0.23794 0.0
C707 C 0.99285 0.48154 0.19671 0.0
C708 C 0.99207 0.46312 0.18045 0.0
C709 C 0.00998 0.45878 0.18086 0.0
C710 C 0.01052 0.44354 0.16289 0.0
C711 C 0.99332 0.43267 0.14408 0.0
C712 C 0.97503 0.4363 0.14428 0.0
C713 C 0.97437 0.45134 0.16238 0.0
H714 H 0.47444 0.43516 0.19822 0.0
H715 H 0.44675 0.40522 0.1691 0.0
H716 H 0.44268 0.45483 0.12125 0.0
H717 H 0.46989 0.48458 0.1503 0.0
H718 H 0.51232 0.4962 0.15903 0.0
H719 H 0.48929 0.46126 0.26615 0.0
H720 H 0.4571 0.43375 0.29208 0.0
H721 H 0.41189 0.43665 0.23511 0.0
H722 H 0.444 0.46522 0.20999 0.0
H723 H 0.51704 0.54715 0.25057 0.0
H724 H 0.54442 0.5794 0.27691 0.0
H725 H 0.59636 0.56492 0.25483 0.0
H726 H 0.56905 0.53275 0.2282 0.0
H727 H 0.50351 0.50266 0.25571 0.0
H728 H 0.5393 0.56046 0.18944 0.0
H729 H 0.56617 0.58765 0.15761 0.0
H730 H 0.58292 0.53844 0.1306 0.0
H731 H 0.55633 0.51133 0.16257 0.0
C732 C 0.47419 0.46211 0.17647 0.0
C733 C 0.46743 0.43955 0.1816 0.0
C734 C 0.45177 0.42252 0.165 0.0
C735 C 0.44287 0.42793 0.14301 0.0
C736 C 0.44948 0.4504 0.13806 0.0
C737 C 0.46501 0.46733 0.1546 0.0
C738 C 0.49136 0.48061 0.19306 0.0
C739 C 0.51049 0.49747 0.18026 0.0
C740 C 0.48886 0.48231 0.22075 0.0
C741 C 0.46915 0.46511 0.23582 0.0
C742 C 0.47247 0.45611 0.25925 0.0
C743 C 0.45415 0.44036 0.274 0.0
C744 C 0.43217 0.43307 0.26539 0.0
C745 C 0.42876 0.44197 0.24197 0.0
C746 C 0.44709 0.45811 0.22752 0.0
C747 C 0.54105 0.53765 0.23731 0.0
C748 C 0.53431 0.55089 0.25141 0.0
C749 C 0.54986 0.56923 0.26641 0.0
C750 C 0.5723 0.57439 0.26782 0.0
C751 C 0.57906 0.56108 0.25397 0.0
C752 C 0.56355 0.54286 0.23873 0.0
C753 C 0.52439 0.51816 0.22158 0.0
C754 C 0.50545 0.50112 0.23457 0.0
C755 C 0.52702 0.51621 0.19405 0.0
C756 C 0.54587 0.53388 0.17846 0.0
C757 C 0.54925 0.55573 0.17729 0.0
C758 C 0.56448 0.5712 0.1591 0.0
C759 C 0.57641 0.56495 0.14182 0.0
C760 C 0.57387 0.54352 0.14386 0.0
C761 C 0.55871 0.5281 0.16204 0.0
H762 H 0.55552 0.04973 0.16194 0.0
H763 H 0.58369 0.05174 0.13034 0.0
H764 H 0.56585 0.98396 0.15 0.0
H765 H 0.53764 0.98183 0.18147 0.0
H766 H 0.51127 0.02169 0.15752 0.0
H767 H 0.56685 0.03685 0.22467 0.0
H768 H 0.59451 0.03215 0.25051 0.0
H769 H 0.54385 0.96428 0.26912 0.0
H770 H 0.51614 0.96887 0.24334 0.0
H771 H 0.45457 0.96622 0.23995 0.0
H772 H 0.4248 0.96033 0.26944 0.0
H773 H 0.44353 0.03001 0.26151 0.0
H774 H 0.47288 0.03531 0.23077 0.0
H775 H 0.50063 0.99692 0.25128 0.0
H776 H 0.44573 0.98024 0.18429 0.0
H777 H 0.41885 0.98087 0.15281 0.0
H778 H 0.46741 0.04879 0.13141 0.0
H779 H 0.49428 0.04837 0.16311 0.0
C780 C 0.54453 0.01567 0.17419 0.0
C781 C 0.55792 0.03543 0.15978 0.0
C782 C 0.57399 0.03661 0.14184 0.0
C783 C 0.57675 0.01798 0.13787 0.0
C784 C 0.56398 0.99852 0.15292 0.0
C785 C 0.54797 0.99736 0.17093 0.0
C786 C 0.52555 0.01341 0.19057 0.0
C787 C 0.50921 0.01683 0.17826 0.0
C788 C 0.52243 0.00614 0.21726 0.0
C789 C 0.53945 0.00316 0.23194 0.0
C790 C 0.56172 0.02089 0.23409 0.0
C791 C 0.57744 0.01828 0.24891 0.0
C792 C 0.57111 0.9979 0.26169 0.0
C793 C 0.54896 0.98012 0.2594 0.0
C794 C 0.53321 0.98277 0.24474 0.0
C795 C 0.4667 0.00146 0.23418 0.0
C796 C 0.4526 0.98039 0.24525 0.0
C797 C 0.43591 0.97732 0.26334 0.0
C798 C 0.43389 0.99567 0.27257 0.0
C799 C 0.44627 0.01605 0.2584 0.0
C800 C 0.46276 0.01905 0.23994 0.0
C801 C 0.48641 0.0053 0.21824 0.0
C802 C 0.50288 0.00215 0.23067 0.0
C803 C 0.48956 0.0127 0.19162 0.0
C804 C 0.47201 0.01433 0.17625 0.0
C805 C 0.45038 0.99554 0.17352 0.0
C806 C 0.43509 0.99583 0.15546 0.0
C807 C 0.44123 0.01485 0.13982 0.0
C808 C 0.4624 0.03399 0.14338 0.0
C809 C 0.47769 0.03372 0.16143 0.0
H810 H 0.48086 0.01677 0.87619 0.0
H811 H 0.45176 0.0148 0.90581 0.0
H812 H 0.40143 0.95753 0.86252 0.0
H813 H 0.43076 0.95925 0.83279 0.0
H814 H 0.49218 0.98557 0.87164 0.0
H815 H 0.46263 0.02007 0.81614 0.0
H816 H 0.43537 0.02443 0.78949 0.0
H817 H 0.42904 0.97246 0.73631 0.0
H818 H 0.45535 0.96706 0.76387 0.0
H819 H 0.5156 0.96438 0.77092 0.0
H820 H 0.54892 0.9699 0.74644 0.0
H821 H 0.58981 0.03162 0.78915 0.0
H822 H 0.5566 0.02595 0.81392 0.0
H823 H 0.4973 0.99312 0.77378 0.0
H824 H 0.53392 0.96484 0.8316 0.0
H825 H 0.56239 0.96507 0.86125 0.0
H826 H 0.55824 0.01356 0.9116 0.0
H827 H 0.53133 0.01474 0.88119 0.0
C828 C 0.458 0.98812 0.85231 0.0
C829 C 0.46357 0.00382 0.87291 0.0
C830 C 0.44701 0.00274 0.88978 0.0
C831 C 0.42457 0.98593 0.88642 0.0
C832 C 0.41873 0.97055 0.8654 0.0
C833 C 0.4354 0.97161 0.84844 0.0
C834 C 0.47631 0.98844 0.83637 0.0
C835 C 0.49348 0.98752 0.85023 0.0
C836 C 0.4775 0.99029 0.80836 0.0
C837 C 0.46069 0.99282 0.79246 0.0
C838 C 0.45497 0.00914 0.79921 0.0
C839 C 0.4396 0.01183 0.78385 0.0
C840 C 0.43014 0.9987 0.76102 0.0
C841 C 0.43608 0.98265 0.75395 0.0
C842 C 0.45112 0.97964 0.76962 0.0
C843 C 0.53369 0.99465 0.79438 0.0
C844 C 0.53174 0.97909 0.775 0.0
C845 C 0.55068 0.98222 0.76108 0.0
C846 C 0.57178 0.00115 0.76603 0.0
C847 C 0.57367 0.01689 0.78512 0.0
C848 C 0.55478 0.01363 0.79925 0.0
C849 C 0.51363 0.9912 0.80929 0.0
C850 C 0.49599 0.99116 0.79518 0.0
C851 C 0.51237 0.98936 0.83728 0.0
C852 C 0.53048 0.98989 0.85398 0.0
C853 C 0.53954 0.97596 0.84861 0.0
C854 C 0.55556 0.97586 0.86568 0.0
C855 C 0.56217 0.98911 0.88879 0.0
C856 C 0.55325 0.00308 0.89399 0.0
C857 C 0.53782 0.00367 0.87665 0.0
H858 H 0.04368 0.55088 0.86694 0.0
H859 H 0.04315 0.57784 0.89796 0.0
H860 H 0.98359 0.5703 0.86005 0.0
H861 H 0.98243 0.5413 0.83109 0.0
H862 H 0.01766 0.51071 0.86692 0.0
H863 H 0.03429 0.56313 0.78912 0.0
H864 H 0.02729 0.58506 0.75684 0.0
H865 H 0.95796 0.53158 0.75182 0.0
H866 H 0.9656 0.51011 0.78268 0.0
H867 H 0.97159 0.45414 0.77735 0.0
H868 H 0.96891 0.4221 0.7527 0.0
H869 H 0.03577 0.4403 0.77801 0.0
H870 H 0.03854 0.47241 0.80278 0.0
H871 H 0.99933 0.49772 0.77122 0.0
H872 H 0.98136 0.44422 0.83876 0.0
H873 H 0.98163 0.41791 0.87121 0.0
H874 H 0.04531 0.46983 0.90136 0.0
H875 H 0.04555 0.49608 0.86834 0.0
C876 C 0.01311 0.54382 0.84638 0.0
C877 C 0.03046 0.55496 0.86512 0.0
C878 C 0.03029 0.57054 0.88277 0.0
C879 C 0.01324 0.57601 0.88151 0.0
C880 C 0.99689 0.56629 0.86145 0.0
C881 C 0.99647 0.54993 0.84454 0.0
C882 C 0.01122 0.52413 0.83151 0.0
C883 C 0.01437 0.50836 0.84577 0.0
C884 C 0.00528 0.51988 0.80431 0.0
C885 C 1.00068 0.53466 0.78747 0.0
C886 C 0.01772 0.55612 0.78041 0.0
C887 C 0.01369 0.56838 0.76127 0.0
C888 C 0.99272 0.55924 0.74796 0.0
C889 C 0.97513 0.5387 0.75788 0.0
C890 C 0.97925 0.52636 0.77665 0.0
C891 C 0.00521 0.46559 0.79204 0.0
C892 C 0.9857 0.45129 0.77759 0.0
C893 C 0.98415 0.43305 0.76357 0.0
C894 C 0.00217 0.429 0.76355 0.0
C895 C 0.02174 0.44329 0.77782 0.0
C896 C 0.02325 0.46146 0.79202 0.0
C897 C 0.00688 0.48518 0.80643 0.0
C898 C 0.00338 0.50062 0.7922 0.0
C899 C 0.01211 0.48891 0.83375 0.0
C900 C 0.01354 0.47214 0.85091 0.0
C901 C 0.99577 0.44981 0.85169 0.0
C902 C 0.99583 0.43482 0.87026 0.0
C903 C 0.0135 0.44201 0.88854 0.0
C904 C 0.03162 0.46403 0.88727 0.0
C905 C 0.03167 0.47897 0.86854 0.0
H906 H 0.43109 0.46803 0.83602 0.0
H907 H 0.40303 0.44079 0.86695 0.0
H908 H 0.45521 0.4356 0.90791 0.0
H909 H 0.48315 0.46238 0.87686 0.0
H910 H 0.49393 0.50454 0.8724 0.0
H911 H 0.44437 0.48282 0.77662 0.0
H912 H 0.41645 0.45014 0.75118 0.0
H913 H 0.44366 0.41059 0.78274 0.0
H914 H 0.47107 0.44306 0.80881 0.0
H915 H 0.53797 0.51697 0.77321 0.0
H916 H 0.56939 0.54643 0.74802 0.0
H917 H 0.5566 0.59615 0.78279 0.0
H918 H 0.52498 0.56662 0.80804 0.0
H919 H 0.49372 0.50239 0.7741 0.0
H920 H 0.55727 0.54242 0.83259 0.0
H921 H 0.58571 0.57102 0.86176 0.0
H922 H 0.53345 0.57106 0.909 0.0
H923 H 0.50514 0.54431 0.87839 0.0
C924 C 0.45924 0.46719 0.85405 0.0
C925 C 0.43642 0.46064 0.85125 0.0
C926 C 0.42046 0.44527 0.86897 0.0
C927 C 0.42717 0.43643 0.8898 0.0
C928 C 0.44979 0.44237 0.89203 0.0
C929 C 0.46568 0.45762 0.87433 0.0
C930 C 0.47674 0.48556 0.8377 0.0
C931 C 0.4939 0.50427 0.85087 0.0
C932 C 0.47662 0.48498 0.80969 0.0
C933 C 0.45964 0.46525 0.79465 0.0
C934 C 0.44423 0.46708 0.77812 0.0
C935 C 0.42838 0.4485 0.76363 0.0
C936 C 0.42807 0.428 0.76503 0.0
C937 C 0.44364 0.42626 0.78141 0.0
C938 C 0.4592 0.44471 0.79628 0.0
C939 C 0.52924 0.53961 0.79266 0.0
C940 C 0.54174 0.53416 0.77523 0.0
C941 C 0.55966 0.55092 0.76092 0.0
C942 C 0.56529 0.57339 0.76366 0.0
C943 C 0.55247 0.57887 0.78052 0.0
C944 C 0.53454 0.56207 0.79492 0.0
C945 C 0.5111 0.52171 0.80884 0.0
C946 C 0.49373 0.50304 0.79562 0.0
C947 C 0.51112 0.52244 0.83699 0.0
C948 C 0.5289 0.54125 0.85294 0.0
C949 C 0.55187 0.54919 0.84851 0.0
C950 C 0.56814 0.56532 0.86539 0.0
C951 C 0.5617 0.57298 0.88777 0.0
C952 C 0.53883 0.56537 0.89193 0.0
C953 C 0.52267 0.54996 0.87451 0.0
H954 H 0.62538 0.84153 0.49123 0.0
H955 H 0.62643 0.8689 0.4597 0.0
H956 H 0.68428 0.92153 0.49987 0.0
H957 H 0.6847 0.89387 0.52988 0.0
H958 H 0.65272 0.82845 0.49419 0.0
H959 H 0.63045 0.8654 0.55968 0.0
H960 H 0.6347 0.89776 0.58528 0.0
H961 H 0.69764 0.90863 0.61667 0.0
H962 H 0.6938 0.87673 0.59072 0.0
H963 H 0.69454 0.82111 0.59017 0.0
H964 H 0.69836 0.79282 0.61548 0.0
H965 H 0.63632 0.74075 0.58191 0.0
H966 H 0.6321 0.76902 0.55703 0.0
H967 H 0.66488 0.83406 0.59142 0.0
H968 H 0.68971 0.80121 0.5245 0.0
H969 H 0.69102 0.77478 0.49267 0.0
H970 H 0.62579 0.75831 0.4629 0.0
H971 H 0.62426 0.78445 0.49483 0.0
C972 C 0.65493 0.86547 0.51315 0.0
C973 C 0.63832 0.85895 0.4934 0.0
C974 C 0.63879 0.87458 0.47547 0.0
C975 C 0.65549 0.89724 0.47732 0.0
C976 C 0.67127 0.90411 0.49806 0.0
C977 C 0.67132 0.8883 0.51541 0.0
C978 C 0.65625 0.84799 0.5292 0.0
C979 C 0.65479 0.82947 0.51559 0.0
C980 C 0.66007 0.84973 0.55701 0.0
C981 C 0.66193 0.86875 0.57303 0.0
C982 C 0.64522 0.87478 0.57196 0.0
C983 C 0.64755 0.89312 0.58661 0.0
C984 C 0.66647 0.90547 0.60279 0.0
C985 C 0.68292 0.89922 0.60432 0.0
C986 C 0.68068 0.88101 0.58957 0.0
C987 C 0.66314 0.79721 0.57148 0.0
C988 C 0.68167 0.80364 0.58833 0.0
C989 C 0.6839 0.78754 0.60269 0.0
C990 C 0.66764 0.76476 0.60047 0.0
C991 C 0.64904 0.75827 0.58378 0.0
C992 C 0.64674 0.77438 0.5695 0.0
C993 C 0.66088 0.81447 0.55633 0.0
C994 C 0.66232 0.83293 0.5701 0.0
C995 C 0.65712 0.81279 0.52862 0.0
C996 C 0.65683 0.79475 0.51213 0.0
C997 C 0.67543 0.79149 0.51163 0.0
C998 C 0.67622 0.77651 0.49346 0.0
C999 C 0.65849 0.76468 0.47553 0.0
C1000 C 0.63957 0.76727 0.47668 0.0
C1001 C 0.63875 0.7822 0.49482 0.0
H1002 H 0.14713 0.771 0.52844 0.0
H1003 H 0.12163 0.74139 0.4974 0.0
H1004 H 0.0985 0.78503 0.46807 0.0
H1005 H 0.12446 0.81478 0.49827 0.0
H1006 H 0.17337 0.82937 0.49557 0.0
H1007 H 0.15723 0.79633 0.60506 0.0
H1008 H 0.12659 0.77017 0.63378 0.0
H1009 H 0.0783 0.76948 0.57871 0.0
H1010 H 0.10882 0.79729 0.5513 0.0
H1011 H 0.1857 0.88019 0.58965 0.0
H1012 H 0.21511 0.91209 0.61451 0.0
H1013 H 0.26448 0.8963 0.58535 0.0
H1014 H 0.23504 0.86433 0.56027 0.0
H1015 H 0.17146 0.83591 0.59333 0.0
H1016 H 0.20956 0.89521 0.5305 0.0
H1017 H 0.2378 0.92249 0.50019 0.0
H1018 H 0.24027 0.86894 0.45877 0.0
H1019 H 0.21368 0.84187 0.49046 0.0
C1020 C 0.13748 0.79495 0.51572 0.0
C1021 C 0.13625 0.77399 0.51565 0.0
C1022 C 0.12179 0.75718 0.498 0.0
C1023 C 0.10813 0.76105 0.48062 0.0
C1024 C 0.10879 0.78171 0.48148 0.0
C1025 C 0.12355 0.79862 0.49865 0.0
C1026 C 0.15504 0.81393 0.53118 0.0
C1027 C 0.17321 0.83072 0.51703 0.0
C1028 C 0.15433 0.81559 0.55912 0.0
C1029 C 0.13549 0.79853 0.57552 0.0
C1030 C 0.14008 0.79073 0.59915 0.0
C1031 C 0.12262 0.77573 0.61553 0.0
C1032 C 0.10018 0.76769 0.60823 0.0
C1033 C 0.09551 0.77531 0.58458 0.0
C1034 C 0.11299 0.79091 0.56866 0.0
C1035 C 0.20823 0.87001 0.57297 0.0
C1036 C 0.20282 0.88351 0.58868 0.0
C1037 C 0.21953 0.90165 0.60282 0.0
C1038 C 0.24184 0.90641 0.60171 0.0
C1039 C 0.24729 0.89277 0.58641 0.0
C1040 C 0.23057 0.87467 0.57206 0.0
C1041 C 0.19031 0.851 0.5578 0.0
C1042 C 0.17198 0.83428 0.57195 0.0
C1043 C 0.19103 0.84921 0.52985 0.0
C1044 C 0.20954 0.86635 0.5131 0.0
C1045 C 0.21675 0.88933 0.51562 0.0
C1046 C 0.23269 0.90492 0.4981 0.0
C1047 C 0.24096 0.89771 0.47705 0.0
C1048 C 0.23409 0.87487 0.47481 0.0
C1049 C 0.21878 0.85942 0.49283 0.0
H1050 H 0.1339 0.31966 0.48631 0.0
H1051 H 0.10668 0.32145 0.45671 0.0
H1052 H 0.11346 0.37854 0.50003 0.0
H1053 H 0.14128 0.37714 0.52957 0.0
H1054 H 0.17601 0.34898 0.49151 0.0
H1055 H 0.11232 0.31724 0.54745 0.0
H1056 H 0.08074 0.31316 0.57404 0.0
H1057 H 0.12665 0.36669 0.62552 0.0
H1058 H 0.15831 0.37178 0.59799 0.0
H1059 H 0.222 0.37551 0.5916 0.0
H1060 H 0.24998 0.37101 0.61711 0.0
H1061 H 0.22853 0.30762 0.57822 0.0
H1062 H 0.2009 0.31229 0.55242 0.0
H1063 H 0.17445 0.34611 0.5898 0.0
H1064 H 0.23801 0.37735 0.52854 0.0
H1065 H 0.26704 0.3791 0.49842 0.0
H1066 H 0.21708 0.31931 0.45859 0.0
H1067 H 0.18812 0.31748 0.48855 0.0
C1068 C 0.13968 0.34827 0.51019 0.0
C1069 C 0.12957 0.33259 0.48955 0.0
C1070 C 0.11403 0.33356 0.47268 0.0
C1071 C 0.10825 0.35022 0.4761 0.0
C1072 C 0.11784 0.36564 0.49708 0.0
C1073 C 0.13357 0.36474 0.51396 0.0
C1074 C 0.15753 0.34795 0.5265 0.0
C1075 C 0.17547 0.34813 0.51303 0.0
C1076 C 0.15711 0.34732 0.55464 0.0
C1077 C 0.13777 0.34518 0.57029 0.0
C1078 C 0.11566 0.32857 0.56397 0.0
C1079 C 0.09762 0.32606 0.5793 0.0
C1080 C 0.10137 0.33967 0.60168 0.0
C1081 C 0.12342 0.35611 0.60824 0.0
C1082 C 0.14145 0.35893 0.59258 0.0
C1083 C 0.20953 0.34432 0.56999 0.0
C1084 C 0.22337 0.36068 0.58855 0.0
C1085 C 0.23928 0.35813 0.60306 0.0
C1086 C 0.24126 0.33896 0.59956 0.0
C1087 C 0.22726 0.32252 0.58117 0.0
C1088 C 0.21159 0.32522 0.56644 0.0
C1089 C 0.19257 0.34688 0.55466 0.0
C1090 C 0.17491 0.34718 0.56831 0.0
C1091 C 0.19282 0.34738 0.52665 0.0
C1092 C 0.21091 0.34726 0.51078 0.0
C1093 C 0.23339 0.36439 0.51367 0.0
C1094 C 0.2499 0.36545 0.49649 0.0
C1095 C 0.24407 0.34935 0.47636 0.0
C1096 C 0.22181 0.33184 0.47407 0.0
C1097 C 0.20534 0.33083 0.49109 0.0
C1098 C 0.98901 0.38346 0.1043 0.0
C1099 C 0.99847 0.39412 0.07971 0.0
C1100 C 0.007 0.4304 0.09878 0.0
C1101 C 0.99553 0.41934 0.12231 0.0
N1102 N 0.97336 0.38523 0.14684 0.0
N1103 N 0.01387 0.42733 0.05232 0.0
C1104 C 0.98583 0.3958 0.12487 0.0
C1105 C 0.0069 0.41752 0.07666 0.0
N1106 N 0.98424 0.36192 0.10856 0.0
N1107 N 0.01829 0.45333 0.09767 0.0
H1108 H 0.01447 0.41879 0.0356 0.0
H1109 H 0.01738 0.44355 0.04807 0.0
H1110 H 0.01803 0.46341 0.11297 0.0
H1111 H 0.02932 0.46248 0.08245 0.0
H1112 H 0.97952 0.35403 0.12694 0.0
H1113 H 0.98708 0.35255 0.09443 0.0
H1114 H 0.96367 0.36787 0.14853 0.0
H1115 H 0.97144 0.39386 0.16273 0.0
C1116 C 0.59336 0.58843 0.07212 0.0
C1117 C 0.61491 0.6073 0.07682 0.0
C1118 C 0.61199 0.59754 0.12407 0.0
C1119 C 0.5897 0.57987 0.11966 0.0
N1120 N 0.55767 0.56056 0.09061 0.0
N1121 N 0.6436 0.632 0.10763 0.0
C1122 C 0.57995 0.57591 0.09398 0.0
C1123 C 0.624 0.61243 0.10289 0.0
N1124 N 0.58608 0.58189 0.04665 0.0
N1125 N 0.62179 0.59979 0.14833 0.0
H1126 H 0.6529 0.64333 0.09268 0.0
H1127 H 0.64978 0.63793 0.12658 0.0
H1128 H 0.61328 0.58949 0.16441 0.0
H1129 H 0.63876 0.61074 0.15203 0.0
H1130 H 0.57162 0.56688 0.0419 0.0
H1131 H 0.59556 0.59038 0.03005 0.0
H1132 H 0.549 0.55877 0.07301 0.0
H1133 H 0.54729 0.55083 0.10607 0.0
C1134 C 0.39184 0.01272 0.10281 0.0
C1135 C 0.3975 0.01086 0.07616 0.0
C1136 C 0.43116 0.01059 0.09149 0.0
C1137 C 0.42634 0.01397 0.11793 0.0
N1138 N 0.40436 0.02198 0.14853 0.0
N1139 N 0.42487 0.01298 0.04462 0.0
C1140 C 0.40734 0.01618 0.12352 0.0
C1141 C 0.41784 0.01121 0.07035 0.0
N1142 N 0.37122 0.01009 0.10852 0.0
N1143 N 0.44802 0.00602 0.08662 0.0
H1144 H 0.41585 0.01404 0.0286 0.0
H1145 H 0.44066 0.01567 0.03931 0.0
H1146 H 0.4583 0.00554 0.1015 0.0
H1147 H 0.45062 1.00085 0.06818 0.0
H1148 H 0.36511 0.00863 0.12775 0.0
H1149 H 0.35938 0.00755 0.09401 0.0
H1150 H 0.39223 0.02622 0.15325 0.0
H1151 H 0.41523 0.02432 0.16421 0.0
C1152 C 0.38952 0.00357 0.92659 0.0
C1153 C 0.38233 0.9879 0.94778 0.0
C1154 C 0.4007 0.96905 0.92702 0.0
C1155 C 0.40757 0.98453 0.90568 0.0
N1156 N 0.40446 0.01304 0.88185 0.0
N1157 N 0.37746 0.95345 0.96618 0.0
C1158 C 0.40063 1.00069 0.90444 0.0
C1159 C 0.38658 0.96977 0.9472 0.0
N1160 N 0.38624 0.02154 0.92795 0.0
N1161 N 0.40874 0.95453 0.92877 0.0
H1162 H 0.36812 0.95402 0.98215 0.0
H1163 H 0.37779 0.93853 0.96517 0.0
H1164 H 0.41877 0.95322 0.91418 0.0
H1165 H 0.40672 0.94477 0.9454 0.0
H1166 H 0.39341 0.03495 0.91478 0.0
H1167 H 0.37742 0.02383 0.94328 0.0
H1168 H 0.39795 0.02357 0.87852 0.0
H1169 H 0.41253 0.01122 0.86529 0.0
C1170 C 1.00105 0.41487 0.95674 0.0
C1171 C 0.00882 0.39939 0.95358 0.0
C1172 C 0.02102 0.41291 0.90816 0.0
C1173 C 0.0119 0.42723 0.9108 0.0
N1174 N 0.99037 0.43979 0.93585 0.0
N1175 N 0.02186 0.38033 0.92463 0.0
C1176 C 1.00106 0.42759 0.93459 0.0
C1177 C 0.01774 0.39755 0.92887 0.0
N1178 N 0.9945 0.41815 0.98118 0.0
N1179 N 0.03302 0.41416 0.88595 0.0
H1180 H 0.01893 0.36824 0.93891 0.0
H1181 H 0.02611 0.37669 0.90619 0.0
H1182 H 0.03508 0.42468 0.87002 0.0
H1183 H 0.04228 0.40605 0.88411 0.0
H1184 H 0.99149 0.43118 0.9855 0.0
H1185 H 0.99369 0.40892 0.99786 0.0
H1186 H 0.97976 0.43851 0.95132 0.0
H1187 H 0.99073 0.45008 0.92048 0.0
C1188 C 0.59252 0.62052 0.93753 0.0
C1189 C 0.60782 0.61478 0.94906 0.0
C1190 C 0.59217 0.58107 0.92126 0.0
C1191 C 0.57859 0.58802 0.90777 0.0
N1192 N 0.57056 0.61766 0.89865 0.0
N1193 N 0.62687 0.59343 0.94502 0.0
C1194 C 0.58028 0.60883 0.91449 0.0
C1195 C 0.60908 0.59622 0.93885 0.0
N1196 N 0.58856 0.6361 0.94925 0.0
N1197 N 0.58832 0.5597 0.91848 0.0
H1198 H 0.64056 0.60504 0.9562 0.0
H1199 H 0.62932 0.58112 0.93621 0.0
H1200 H 0.57531 0.54753 0.90698 0.0
H1201 H 0.59652 0.55343 0.92996 0.0
H1202 H 0.57595 0.63917 0.94286 0.0
H1203 H 0.59602 0.64417 0.967 0.0
H1204 H 0.57304 0.63374 0.90139 0.0
H1205 H 0.56206 0.6099 0.88116 0.0
C1206 C 0.03016 0.62382 0.93121 0.0
C1207 C 0.00972 0.61639 0.94527 0.0
C1208 C 0.99202 0.58215 0.91841 0.0
C1209 C 0.01164 0.5905 0.90253 0.0
N1210 N 0.04729 0.6222 0.88986 0.0
N1211 N 0.96934 0.5922 0.94515 0.0
C1212 C 0.03008 0.6123 0.90766 0.0
C1213 C 0.99006 0.59671 0.93668 0.0
N1214 N 0.04988 0.64097 0.94089 0.0
N1215 N 0.97571 0.56006 0.9173 0.0
H1216 H 0.96692 0.60327 0.95696 0.0
H1217 H 0.95448 0.57891 0.93764 0.0
H1218 H 0.97699 0.54826 0.90561 0.0
H1219 H 0.96214 0.55301 0.93035 0.0
H1220 H 0.06545 0.64542 0.93263 0.0
H1221 H 0.05104 0.64924 0.95866 0.0
H1222 H 0.06012 0.63884 0.89152 0.0
H1223 H 0.04742 0.61455 0.87201 0.0
C1224 C 0.38956 0.41635 0.95114 0.0
C1225 C 0.38532 0.394 0.9528 0.0
C1226 C 0.4041 0.39836 0.90996 0.0
C1227 C 0.41085 0.42145 0.91006 0.0
N1228 N 0.41206 0.45327 0.93175 0.0
N1229 N 0.3901 0.36403 0.93512 0.0
C1230 C 0.40391 0.43065 0.93076 0.0
C1231 C 0.39297 0.38506 0.93254 0.0
N1232 N 0.38018 0.42403 0.96924 0.0
N1233 N 0.40797 0.38911 0.88798 0.0
H1234 H 0.3814 0.35339 0.95083 0.0
H1235 H 0.3976 0.35761 0.92266 0.0
H1236 H 0.41602 0.39844 0.87109 0.0
H1237 H 0.40145 0.37195 0.88546 0.0
H1238 H 0.38049 0.43922 0.96733 0.0
H1239 H 0.37066 0.41456 0.98534 0.0
H1240 H 0.4099 0.46142 0.94793 0.0
H1241 H 0.42246 0.4643 0.91715 0.0
C1242 C 0.58892 0.97004 0.94157 0.0
C1243 C 0.60704 0.99114 0.94966 0.0
C1244 C 0.5987 0.00916 0.91316 0.0
C1245 C 0.57855 0.98885 0.90784 0.0
N1246 N 0.55249 0.9505 0.92031 0.0
N1247 N 0.62507 0.03157 0.9472 0.0
C1248 C 0.5731 0.96934 0.92286 0.0
C1249 C 0.61096 0.01096 0.93647 0.0
N1250 N 0.58711 0.95066 0.95109 0.0
N1251 N 0.60615 0.02675 0.89595 0.0
H1252 H 0.63251 0.03366 0.96579 0.0
H1253 H 0.627 0.0464 0.93933 0.0
H1254 H 0.59781 0.02582 0.87828 0.0
H1255 H 0.62178 0.04125 0.89787 0.0
H1256 H 0.57541 0.93485 0.94386 0.0
H1257 H 0.59873 0.95044 0.96417 0.0
H1258 H 0.54689 0.93672 0.93285 0.0
H1259 H 0.54018 0.94938 0.90732 0.0
C1260 C 0.6246 0.01567 0.1027 0.0
C1261 C 0.61822 0.01495 0.07575 0.0
C1262 C 0.58474 0.01621 0.08956 0.0
C1263 C 0.59167 0.01811 0.11644 0.0
N1264 N 0.62016 0.02402 0.14841 0.0
N1265 N 0.5955 0.02009 0.04326 0.0
C1266 C 0.61227 0.01924 0.12295 0.0
C1267 C 0.59927 0.01692 0.06911 0.0
N1268 N 0.64162 0.01172 0.10909 0.0
N1269 N 0.56384 0.01272 0.08358 0.0
H1270 H 0.6061 0.02122 0.02778 0.0
H1271 H 0.58326 0.02389 0.03749 0.0
H1272 H 0.55255 0.01198 0.09793 0.0
H1273 H 0.55691 0.00863 0.06461 0.0
H1274 H 0.64532 0.00946 0.12847 0.0
H1275 H 0.65101 0.00895 0.09491 0.0
H1276 H 0.63613 0.02735 0.1539 0.0
H1277 H 0.61145 0.02657 0.16371 0.0
C1278 C 0.0145 0.60931 0.08929 0.0
C1279 C 0.99474 0.60894 0.08036 0.0
C1280 C 0.97429 0.58463 0.11795 0.0
C1281 C 0.9929 0.58174 0.12355 0.0
N1282 N 0.02924 0.5878 0.10973 0.0
N1283 N 0.95445 0.5927 0.08412 0.0
C1284 C 0.01266 0.59313 0.10794 0.0
C1285 C 0.97422 0.59576 0.09421 0.0
N1286 N 0.03519 0.62556 0.08078 0.0
N1287 N 0.95687 0.57716 0.13548 0.0
H1288 H 0.9533 0.59946 0.06613 0.0
H1289 H 0.93887 0.58145 0.09225 0.0
H1290 H 0.95667 0.56954 0.15342 0.0
H1291 H 0.94387 0.58067 0.13348 0.0
H1292 H 0.05009 0.62749 0.08859 0.0
H1293 H 0.03755 0.63875 0.06855 0.0
H1294 H 0.04293 0.59431 0.09684 0.0
H1295 H 0.02816 0.5751 0.12192 0.0
C1296 C 0.41863 0.38697 0.08492 0.0
C1297 C 0.39658 0.38377 0.08422 0.0
C1298 C 0.40361 0.40442 0.12619 0.0
C1299 C 0.42649 0.41034 0.12479 0.0
N1300 N 0.45652 0.40855 0.10244 0.0
N1301 N 0.36807 0.39016 0.10329 0.0
C1302 C 0.43416 0.40169 0.10427 0.0
C1303 C 0.38902 0.39259 0.10471 0.0
N1304 N 0.42484 0.37625 0.06686 0.0
N1305 N 0.39586 0.40992 0.14831 0.0
H1306 H 0.35648 0.38082 0.08854 0.0
H1307 H 0.36256 0.39848 0.11576 0.0
H1308 H 0.4062 0.41856 0.16438 0.0
H1309 H 0.37895 0.40424 0.15187 0.0
H1310 H 0.43975 0.3759 0.06808 0.0
H1311 H 0.41439 0.36631 0.05153 0.0
H1312 H 0.46372 0.40515 0.08622 0.0
H1313 H 0.4683 0.41894 0.1165 0.0
C1314 C 0.65947 0.71692 0.43816 0.0
C1315 C 0.66335 0.72544 0.41185 0.0
C1316 C 0.66642 0.76045 0.42801 0.0
C1317 C 0.66054 0.75117 0.45385 0.0
N1318 N 0.64846 0.71964 0.48319 0.0
N1319 N 0.66622 0.75343 0.3809 0.0
C1320 C 0.65618 0.7291 0.45884 0.0
C1321 C 0.6657 0.74672 0.40654 0.0
N1322 N 0.65996 0.69774 0.44359 0.0
N1323 N 0.67327 0.7826 0.42408 0.0
H1324 H 0.6652 0.74367 0.36456 0.0
H1325 H 0.66545 0.76765 0.37576 0.0
H1326 H 0.67388 0.79322 0.43925 0.0
H1327 H 0.68021 0.79095 0.40634 0.0
H1328 H 0.65968 0.692 0.46276 0.0
H1329 H 0.66258 0.68849 0.42906 0.0
H1330 H 0.6426 0.70279 0.48724 0.0
H1331 H 0.6463 0.72825 0.49892 0.0
C1332 C 0.26298 0.94183 0.42239 0.0
C1333 C 0.28258 0.94148 0.41428 0.0
C1334 C 0.27727 0.91631 0.45137 0.0
C1335 C 0.2558 0.91372 0.45636 0.0
N1336 N 0.22619 0.9205 0.44198 0.0
N1337 N 0.30569 0.92427 0.41828 0.0
C1338 C 0.24806 0.92551 0.44061 0.0
C1339 C 0.28914 0.9277 0.42808 0.0
N1340 N 0.25891 0.95821 0.41362 0.0
N1341 N 0.28653 0.90826 0.46905 0.0
H1342 H 0.3139 0.93097 0.40039 0.0
H1343 H 0.30948 0.91267 0.42641 0.0
H1344 H 0.27858 0.90035 0.48668 0.0
H1345 H 0.30302 0.91155 0.46753 0.0
H1346 H 0.24584 0.96018 0.42097 0.0
H1347 H 0.27002 0.97142 0.40158 0.0
H1348 H 0.21937 0.92721 0.42892 0.0
H1349 H 0.21426 0.90791 0.45407 0.0
C1350 C 0.05497 0.33144 0.43644 0.0
C1351 C 0.06275 0.34788 0.41608 0.0
C1352 C 0.10015 0.3674 0.43657 0.0
C1353 C 0.09217 0.35124 0.45723 0.0
N1354 N 0.06111 0.32124 0.48043 0.0
N1355 N 0.0913 0.38363 0.39905 0.0
C1356 C 0.06925 0.33431 0.45828 0.0
C1357 C 0.08483 0.36667 0.41704 0.0
N1358 N 0.03414 0.31276 0.4346 0.0
N1359 N 0.1226 0.38262 0.43473 0.0
H1360 H 0.08103 0.38317 0.38358 0.0
H1361 H 0.10625 0.39888 0.40051 0.0
H1362 H 0.13431 0.38384 0.44873 0.0
H1363 H 0.12992 0.39305 0.41844 0.0
H1364 H 0.02856 0.29896 0.44707 0.0
H1365 H 0.02282 0.31032 0.41946 0.0
H1366 H 0.04412 0.31009 0.48367 0.0
H1367 H 0.07117 0.32306 0.49681 0.0
C1368 C 0.05386 0.30626 0.28333 0.0
C1369 C 0.05032 0.32483 0.28467 0.0
C1370 C 0.06961 0.33853 0.24202 0.0
C1371 C 0.07601 0.32195 0.24273 0.0
N1372 N 0.07592 0.29093 0.26489 0.0
N1373 N 0.05611 0.35972 0.26642 0.0
C1374 C 0.06832 0.30581 0.26341 0.0
C1375 C 0.05846 0.34123 0.26425 0.0
N1376 N 0.04377 0.28927 0.30138 0.0
N1377 N 0.07396 0.35147 0.21985 0.0
H1378 H 0.04747 0.36207 0.28192 0.0
H1379 H 0.06398 0.3735 0.25383 0.0
H1380 H 0.08198 0.34974 0.20318 0.0
H1381 H 0.0678 0.36236 0.21692 0.0
H1382 H 0.04365 0.27415 0.2997 0.0
H1383 H 0.03406 0.28953 0.31711 0.0
H1384 H 0.07319 0.28058 0.28115 0.0
H1385 H 0.08635 0.28992 0.25061 0.0
C1386 C 0.65894 0.73219 0.27581 0.0
C1387 C 0.67832 0.73158 0.28428 0.0
C1388 C 0.69947 0.75681 0.24766 0.0
C1389 C 0.68119 0.76029 0.24236 0.0
N1390 N 0.64533 0.75516 0.25669 0.0
N1391 N 0.71863 0.74753 0.28108 0.0
C1392 C 0.66141 0.74909 0.25794 0.0
C1393 C 0.69907 0.74497 0.27093 0.0
N1394 N 0.63798 0.71614 0.28383 0.0
N1395 N 0.71699 0.76435 0.23026 0.0
H1396 H 0.71951 0.74045 0.29894 0.0
H1397 H 0.73434 0.7588 0.27326 0.0
H1398 H 0.71755 0.77251 0.21261 0.0
H1399 H 0.72971 0.76041 0.23202 0.0
H1400 H 0.62336 0.715 0.27623 0.0
H1401 H 0.63504 0.70239 0.29533 0.0
H1402 H 0.63165 0.74875 0.26958 0.0
H1403 H 0.64693 0.76835 0.24502 0.0
C1404 C 0.28073 0.95263 0.2591 0.0
C1405 C 0.27558 0.94533 0.28585 0.0
C1406 C 0.24237 0.91063 0.27108 0.0
C1407 C 0.24638 0.91878 0.24466 0.0
N1408 N 0.26734 0.94875 0.21373 0.0
N1409 N 0.24897 0.91971 0.3178 0.0
C1410 C 0.26499 0.94017 0.23871 0.0
C1411 C 0.2557 0.92495 0.29199 0.0
N1412 N 0.30108 0.97085 0.25303 0.0
N1413 N 0.22623 0.88893 0.27615 0.0
H1414 H 0.25787 0.93004 0.33371 0.0
H1415 H 0.23343 0.90629 0.32327 0.0
H1416 H 0.21605 0.87782 0.26141 0.0
H1417 H 0.2243 0.88132 0.29456 0.0
H1418 H 0.30679 0.97555 0.23367 0.0
H1419 H 0.31315 0.98024 0.26733 0.0
H1420 H 0.27915 0.96521 0.20883 0.0
H1421 H 0.2563 0.93993 0.19826 0.0
C1422 C 0.67765 0.92799 0.28861 0.0
C1423 C 0.67807 0.94842 0.2835 0.0
C1424 C 0.68378 0.94476 0.23603 0.0
C1425 C 0.68092 0.92322 0.24091 0.0
N1426 N 0.6715 0.89262 0.2711 0.0
N1427 N 0.6786 0.97507 0.25208 0.0
C1428 C 0.67685 0.91435 0.26701 0.0
C1429 C 0.68048 0.9566 0.25714 0.0
N1430 N 0.67895 0.92204 0.31414 0.0
N1431 N 0.69008 0.95405 0.21136 0.0
H1432 H 0.67628 0.98427 0.26693 0.0
H1433 H 0.67757 0.98029 0.23302 0.0
H1434 H 0.69227 0.94567 0.19539 0.0
H1435 H 0.6948 0.97063 0.2072 0.0
H1436 H 0.68109 0.90855 0.31897 0.0
H1437 H 0.68022 0.9319 0.33051 0.0
H1438 H 0.66585 0.88446 0.28923 0.0
H1439 H 0.67079 0.88202 0.25585 0.0
C1440 C 0.07443 0.72925 0.28055 0.0
C1441 C 0.05426 0.72869 0.28806 0.0
C1442 C 0.05817 0.752 0.24943 0.0
C1443 C 0.08016 0.75571 0.24498 0.0
N1444 N 0.11104 0.75152 0.26093 0.0
N1445 N 0.02875 0.74281 0.28168 0.0
C1446 C 0.08882 0.74533 0.2618 0.0
C1447 C 0.04648 0.74084 0.27297 0.0
N1448 N 0.0795 0.71387 0.29044 0.0
N1449 N 0.04823 0.75866 0.23093 0.0
H1450 H 0.02027 0.73577 0.29933 0.0
H1451 H 0.02393 0.75336 0.27272 0.0
H1452 H 0.05605 0.76632 0.21315 0.0
H1453 H 0.03145 0.7545 0.23203 0.0
H1454 H 0.09311 0.71254 0.2837 0.0
H1455 H 0.06868 0.70072 0.30276 0.0
H1456 H 0.1184 0.74585 0.27464 0.0
H1457 H 0.12262 0.76412 0.24856 0.0
C1458 C 0.28404 0.34422 0.26458 0.0
C1459 C 0.27471 0.32932 0.28638 0.0
C1460 C 0.23715 0.31285 0.26671 0.0
C1461 C 0.24654 0.32745 0.24466 0.0
N1462 N 0.27889 0.35393 0.21981 0.0
N1463 N 0.24347 0.29706 0.30655 0.0
C1464 C 0.27002 0.34222 0.24276 0.0
C1465 C 0.2516 0.31277 0.28683 0.0
N1466 N 0.30624 0.36047 0.26493 0.0
N1467 N 0.21433 0.29988 0.26903 0.0
H1468 H 0.25326 0.29713 0.32238 0.0
H1469 H 0.22742 0.28303 0.30638 0.0
H1470 H 0.20318 0.29913 0.2545 0.0
H1471 H 0.20625 0.29093 0.28606 0.0
H1472 H 0.31349 0.37356 0.25135 0.0
H1473 H 0.31737 0.36159 0.27971 0.0
H1474 H 0.29603 0.36334 0.21598 0.0
H1475 H 0.26902 0.35281 0.20352 0.0
C1476 C 0.27777 0.36348 0.41227 0.0
C1477 C 0.28725 0.34947 0.41486 0.0
C1478 C 0.27259 0.33959 0.46025 0.0
C1479 C 0.26082 0.35135 0.45638 0.0
N1480 N 0.25128 0.37404 0.42907 0.0
N1481 N 0.29467 0.32459 0.44081 0.0
C1482 C 0.26339 0.36343 0.4326 0.0
C1483 C 0.28506 0.33774 0.43882 0.0
N1484 N 0.28249 0.37677 0.39034 0.0
N1485 N 0.27199 0.3305 0.48454 0.0
H1486 H 0.30537 0.32432 0.42634 0.0
H1487 H 0.29157 0.31341 0.45624 0.0
H1488 H 0.26282 0.33145 0.5005 0.0
H1489 H 0.28169 0.32338 0.48965 0.0
H1490 H 0.2781 0.3891 0.38838 0.0
H1491 H 0.29231 0.37662 0.37464 0.0
H1492 H 0.25016 0.38084 0.41112 0.0
H1493 H 0.24124 0.37508 0.44387 0.0
C1494 C 0.63897 0.9282 0.4277 0.0
C1495 C 0.65947 0.94116 0.41377 0.0
C1496 C 0.67697 0.92453 0.44064 0.0
C1497 C 0.65726 0.91331 0.45636 0.0
N1498 N 0.62153 0.90923 0.46878 0.0
N1499 N 0.69981 0.957 0.41365 0.0
C1500 C 0.63887 0.91666 0.45114 0.0
C1501 C 0.67905 0.94098 0.42226 0.0
N1502 N 0.61935 0.92577 0.41796 0.0
N1503 N 0.69329 0.9188 0.44211 0.0
H1504 H 0.70235 0.97038 0.40166 0.0
H1505 H 0.71464 0.95854 0.42115 0.0
H1506 H 0.69202 0.90594 0.45415 0.0
H1507 H 0.7069 0.92516 0.42912 0.0
H1508 H 0.60371 0.91468 0.42608 0.0
H1509 H 0.61833 0.93297 0.40024 0.0
H1510 H 0.60873 0.91306 0.46712 0.0
H1511 H 0.62121 0.90128 0.4865 0.0
C1512 C 0.08821 0.73418 0.41254 0.0
C1513 C 0.06603 0.71717 0.41864 0.0
C1514 C 0.07342 0.72551 0.46624 0.0
C1515 C 0.09452 0.74442 0.45975 0.0
N1516 N 0.12283 0.76665 0.42738 0.0
N1517 N 0.03758 0.69488 0.45065 0.0
C1518 C 0.10224 0.74857 0.43307 0.0
C1519 C 0.05878 0.71206 0.44539 0.0
N1520 N 0.09597 0.73602 0.38712 0.0
N1521 N 0.06741 0.72064 0.49231 0.0
H1522 H 0.02714 0.68388 0.43602 0.0
H1523 H 0.02998 0.69161 0.4692 0.0
H1524 H 0.07734 0.73067 0.50792 0.0
H1525 H 0.05322 0.70618 0.49883 0.0
H1526 H 0.11252 0.7467 0.38145 0.0
H1527 H 0.08617 0.72534 0.37184 0.0
H1528 H 0.1284 0.77246 0.40828 0.0
H1529 H 0.13427 0.77658 0.44201 0.0
C1530 C 0.32132 0.04857 0.76845 0.0
C1531 C 0.33073 0.05985 0.74415 0.0
C1532 C 0.33736 0.09526 0.76398 0.0
C1533 C 0.32594 0.0835 0.78723 0.0
N1534 N 0.30473 0.04876 0.81092 0.0
N1535 N 0.34511 0.09339 0.71752 0.0
C1536 C 0.31719 0.06007 0.78925 0.0
C1537 C 0.3382 0.08309 0.74162 0.0
N1538 N 0.31749 0.02729 0.77224 0.0
N1539 N 0.34771 0.11816 0.76338 0.0
H1540 H 0.34637 0.08536 0.70067 0.0
H1541 H 0.34794 0.10942 0.71359 0.0
H1542 H 0.34672 0.1277 0.77886 0.0
H1543 H 0.3587 0.1279 0.74841 0.0
H1544 H 0.31286 0.01905 0.79042 0.0
H1545 H 0.32106 0.01857 0.75793 0.0
H1546 H 0.29568 0.03134 0.81221 0.0
H1547 H 0.30211 0.05679 0.82696 0.0
C1548 C 0.95904 0.27191 0.77137 0.0
C1549 C 0.94779 0.2697 0.74692 0.0
C1550 C 0.91232 0.24086 0.76659 0.0
C1551 C 0.92403 0.24165 0.7901 0.0
N1552 N 0.95875 0.25569 0.81419 0.0
N1553 N 0.91429 0.25019 0.72005 0.0
C1554 C 0.94749 0.25649 0.79226 0.0
C1555 C 0.92454 0.25374 0.74424 0.0
N1556 N 0.98031 0.28952 0.77518 0.0
N1557 N 0.8894 0.22804 0.76576 0.0
H1558 H 0.92234 0.25953 0.70327 0.0
H1559 H 0.89829 0.23685 0.71598 0.0
H1560 H 0.87983 0.21755 0.78122 0.0
H1561 H 0.87964 0.22895 0.75057 0.0
H1562 H 0.9885 0.2934 0.79344 0.0
H1563 H 0.98909 0.30164 0.76076 0.0
H1564 H 0.97619 0.26421 0.81565 0.0
H1565 H 0.95068 0.24518 0.83027 0.0
C1566 C 0.74967 0.69421 0.74715 0.0
C1567 C 0.72705 0.67636 0.74704 0.0
C1568 C 0.73336 0.66251 0.78916 0.0
C1569 C 0.75656 0.67852 0.7874 0.0
N1570 N 0.78751 0.7086 0.76397 0.0
N1571 N 0.69737 0.64254 0.76682 0.0
C1572 C 0.76489 0.69431 0.76637 0.0
C1573 C 0.71887 0.66027 0.7678 0.0
N1574 N 0.75669 0.71088 0.72866 0.0
N1575 N 0.72518 0.64976 0.81156 0.0
H1576 H 0.68589 0.64076 0.75219 0.0
H1577 H 0.69125 0.62884 0.77953 0.0
H1578 H 0.73539 0.65109 0.82757 0.0
H1579 H 0.70814 0.63937 0.81537 0.0
H1580 H 0.77217 0.72563 0.72949 0.0
H1581 H 0.74647 0.71077 0.71333 0.0
H1582 H 0.79499 0.71862 0.74742 0.0
H1583 H 0.79915 0.70941 0.77783 0.0
C1584 C 0.72297 0.63994 0.62169 0.0
C1585 C 0.71344 0.6539 0.61861 0.0
C1586 C 0.73104 0.66596 0.57485 0.0
C1587 C 0.74078 0.65219 0.57802 0.0
N1588 N 0.74269 0.62274 0.6014 0.0
N1589 N 0.70393 0.67612 0.59058 0.0
C1590 C 0.73555 0.63801 0.60045 0.0
C1591 C 0.71609 0.66565 0.5946 0.0
N1592 N 0.72097 0.62951 0.64542 0.0
N1593 N 0.7367 0.67984 0.55336 0.0
H1594 H 0.69262 0.67585 0.60459 0.0
H1595 H 0.7035 0.6834 0.57269 0.0
H1596 H 0.74675 0.6797 0.53793 0.0
H1597 H 0.73242 0.69226 0.55136 0.0
H1598 H 0.72973 0.62132 0.65019 0.0
H1599 H 0.71144 0.63012 0.66117 0.0
H1600 H 0.73761 0.61036 0.61582 0.0
H1601 H 0.7524 0.62129 0.58649 0.0
C1602 C 0.33627 0.08219 0.61954 0.0
C1603 C 0.34381 0.06648 0.61693 0.0
C1604 C 0.35606 0.07922 0.57128 0.0
C1605 C 0.34725 0.09384 0.57342 0.0
N1606 N 0.32607 0.10717 0.59785 0.0
N1607 N 0.35648 0.04668 0.58871 0.0
C1608 C 0.33647 0.09467 0.59704 0.0
C1609 C 0.35261 0.06412 0.59238 0.0
N1610 N 0.32981 0.08591 0.64379 0.0
N1611 N 0.36794 0.07995 0.54918 0.0
H1612 H 0.35346 0.0348 0.60331 0.0
H1613 H 0.36063 0.04266 0.57043 0.0
H1614 H 0.37007 0.0902 0.53295 0.0
H1615 H 0.37701 0.07162 0.54768 0.0
H1616 H 0.32694 0.0991 0.64773 0.0
H1617 H 0.32893 0.07689 0.6607 0.0
H1618 H 0.31552 0.10626 0.6132 0.0
H1619 H 0.3266 0.11732 0.58223 0.0
C1620 C 0.92538 0.25268 0.62345 0.0
C1621 C 0.94061 0.27607 0.62063 0.0
C1622 C 0.92588 0.27505 0.57589 0.0
C1623 C 0.91173 0.25152 0.57818 0.0
N1624 N 0.90007 0.2172 0.60223 0.0
N1625 N 0.95872 0.30855 0.59223 0.0
C1626 C 0.91214 0.24013 0.60139 0.0
C1627 C 0.94173 0.28705 0.59634 0.0
N1628 N 0.92272 0.24258 0.64756 0.0
N1629 N 0.924 0.28594 0.55427 0.0
H1630 H 0.97117 0.31766 0.60626 0.0
H1631 H 0.96182 0.31667 0.57401 0.0
H1632 H 0.91321 0.27757 0.53845 0.0
H1633 H 0.93193 0.30333 0.55284 0.0
H1634 H 0.90986 0.2264 0.65177 0.0
H1635 H 0.93228 0.25085 0.66417 0.0
H1636 H 0.90191 0.20777 0.61709 0.0
H1637 H 0.88931 0.20736 0.58705 0.0
C1638 C 0.34962 0.2882 0.59312 0.0
C1639 C 0.33915 0.27671 0.617 0.0
C1640 C 0.33285 0.24121 0.59756 0.0
C1641 C 0.34367 0.2528 0.57397 0.0
N1642 N 0.36453 0.28721 0.54966 0.0
N1643 N 0.31772 0.24179 0.64075 0.0
C1644 C 0.35263 0.27628 0.57183 0.0
C1645 C 0.32987 0.25307 0.61885 0.0
N1646 N 0.35526 0.31015 0.59016 0.0
N1647 N 0.32645 0.21901 0.60007 0.0
H1648 H 0.31614 0.24969 0.65751 0.0
H1649 H 0.30794 0.22443 0.64193 0.0
H1650 H 0.32777 0.20953 0.58476 0.0
H1651 H 0.32122 0.21013 0.61778 0.0
H1652 H 0.36076 0.31896 0.57244 0.0
H1653 H 0.3527 0.31928 0.60489 0.0
H1654 H 0.37386 0.30457 0.5479 0.0
H1655 H 0.36624 0.27887 0.53331 0.0
C1656 C 0.71357 0.05923 0.5955 0.0
C1657 C 0.72179 0.06529 0.62187 0.0
C1658 C 0.75605 0.09789 0.60525 0.0
C1659 C 0.74728 0.09268 0.57906 0.0
N1660 N 0.71639 0.07073 0.54946 0.0
N1661 N 0.748 0.09315 0.65233 0.0
C1662 C 0.72562 0.07402 0.57424 0.0
C1663 C 0.74224 0.08543 0.62688 0.0
N1664 N 0.69483 0.03895 0.59061 0.0
N1665 N 0.77783 0.11432 0.60941 0.0
H1666 H 0.73776 0.08496 0.66857 0.0
H1667 H 0.76161 0.10881 0.65707 0.0
H1668 H 0.78856 0.12391 0.59412 0.0
H1669 H 0.78588 0.11713 0.62769 0.0
H1670 H 0.68958 0.03241 0.57162 0.0
H1671 H 0.68529 0.02782 0.60559 0.0
H1672 H 0.69974 0.05891 0.54526 0.0
H1673 H 0.7249 0.08104 0.53338 0.0
C1674 C 0.94952 0.67712 0.60228 0.0
C1675 C 0.94232 0.65826 0.61921 0.0
C1676 C 0.9058 0.63937 0.59669 0.0
C1677 C 0.9136 0.65759 0.57869 0.0
N1678 N 0.9445 0.69113 0.56031 0.0
N1679 N 0.91573 0.61945 0.6285 0.0
C1680 C 0.93603 0.67559 0.58018 0.0
C1681 C 0.92107 0.63876 0.61521 0.0
N1682 N 0.96842 0.69702 0.60821 0.0
N1683 N 0.88362 0.62316 0.59692 0.0
H1684 H 0.92671 0.61821 0.64172 0.0
H1685 H 0.9014 0.60412 0.62443 0.0
H1686 H 0.87187 0.62294 0.5837 0.0
H1687 H 0.87653 0.61092 0.61158 0.0
H1688 H 0.97302 0.71186 0.59809 0.0
H1689 H 0.97834 0.69942 0.62488 0.0
H1690 H 0.96141 0.70336 0.55899 0.0
H1691 H 0.93508 0.69042 0.54373 0.0
C1692 C 0.94525 0.65966 0.76904 0.0
C1693 C 0.95518 0.67743 0.7503 0.0
C1694 C 0.93638 0.69566 0.77146 0.0
C1695 C 0.92725 0.67838 0.79077 0.0
N1696 N 0.92749 0.64727 0.81205 0.0
N1697 N 0.96468 0.71485 0.73757 0.0
C1698 C 0.93326 0.66151 0.79092 0.0
C1699 C 0.95214 0.69624 0.75274 0.0
N1700 N 0.9458 0.6403 0.76503 0.0
N1701 N 0.92925 0.71091 0.77019 0.0
H1702 H 0.9767 0.71598 0.72407 0.0
H1703 H 0.96479 0.72989 0.74023 0.0
H1704 H 0.91791 0.71122 0.78367 0.0
H1705 H 0.93329 0.72222 0.75464 0.0
H1706 H 0.93665 0.62595 0.77646 0.0
H1707 H 0.95359 0.63764 0.74882 0.0
H1708 H 0.93333 0.63607 0.81455 0.0
H1709 H 0.91867 0.64821 0.82839 0.0
C1710 C 0.31767 0.27326 0.77078 0.0
C1711 C 0.32314 0.26879 0.7451 0.0
C1712 C 0.32766 0.23832 0.76344 0.0
C1713 C 0.32028 0.24151 0.7885 0.0
N1714 N 0.30538 0.25979 0.81563 0.0
N1715 N 0.32944 0.24453 0.71611 0.0
C1716 C 0.3144 0.25832 0.79205 0.0
C1717 C 0.32711 0.25064 0.74121 0.0
N1718 N 0.31682 0.2924 0.77523 0.0
N1719 N 0.33574 0.22386 0.761 0.0
H1720 H 0.32901 0.25299 0.69926 0.0
H1721 H 0.3297 0.22989 0.71175 0.0
H1722 H 0.33605 0.21415 0.77665 0.0
H1723 H 0.34387 0.22284 0.74407 0.0
H1724 H 0.31543 0.29784 0.79407 0.0
H1725 H 0.31947 0.30399 0.76041 0.0
H1726 H 0.29842 0.27 0.81853 0.0
H1727 H 0.30335 0.24951 0.8318 0.0
C1728 C 0.75456 0.07438 0.74332 0.0
C1729 C 0.73445 0.05409 0.74892 0.0
C1730 C 0.74477 0.05813 0.79615 0.0
C1731 C 0.76337 0.07969 0.79084 0.0
N1732 N 0.78431 0.1099 0.76003 0.0
N1733 N 0.70908 0.02738 0.78093 0.0
C1734 C 0.76783 0.08825 0.76458 0.0
C1735 C 0.72924 0.04603 0.7754 0.0
N1736 N 0.7615 0.07991 0.71762 0.0
N1737 N 0.74221 0.04906 0.82089 0.0
H1738 H 0.6975 0.01775 0.76632 0.0
H1739 H 0.70313 0.02225 0.80012 0.0
H1740 H 0.75307 0.05762 0.83659 0.0
H1741 H 0.73045 0.0325 0.82535 0.0
H1742 H 0.77708 0.09338 0.71235 0.0
H1743 H 0.75274 0.06959 0.7016 0.0
H1744 H 0.78661 0.11784 0.74178 0.0
H1745 H 0.79452 0.12064 0.77502 0.0
C1746 C 0.04325 0.32161 0.06105 0.0
C1747 C 0.04991 0.34321 0.05072 0.0
C1748 C 0.08824 0.35658 0.06655 0.0
C1749 C 0.0807 0.33614 0.08039 0.0
N1750 N 0.04993 0.30032 0.09428 0.0
N1751 N 0.07799 0.38265 0.0486 0.0
C1752 C 0.0579 0.31889 0.07855 0.0
C1753 C 0.07225 0.3611 0.05462 0.0
N1754 N 0.02328 0.30353 0.05348 0.0
N1755 N 0.11071 0.37154 0.06435 0.0
H1756 H 0.06666 0.38712 0.04119 0.0
H1757 H 0.09345 0.39644 0.05369 0.0
H1758 H 0.12298 0.36864 0.07239 0.0
H1759 H 0.11715 0.38567 0.05226 0.0
H1760 H 0.01858 0.2871 0.05849 0.0
H1761 H 0.01251 0.30467 0.03981 0.0
H1762 H 0.03293 0.2884 0.09572 0.0
H1763 H 0.05998 0.29786 0.10776 0.0
C1764 C 0.65485 0.70581 0.07804 0.0
C1765 C 0.66155 0.70829 0.05102 0.0
C1766 C 0.67347 0.74829 0.0528 0.0
C1767 C 0.66819 0.74609 0.08028 0.0
N1768 N 0.65668 0.72381 0.12014 0.0
N1769 N 0.67982 0.73192 0.01333 0.0
C1770 C 0.65975 0.72514 0.09323 0.0
C1771 C 0.67151 0.72955 0.03852 0.0
N1772 N 0.64291 0.68483 0.08881 0.0
N1773 N 0.67998 0.76822 0.04032 0.0
H1774 H 0.67848 0.71849 1.00225 0.0
H1775 H 0.68946 0.74734 0.00406 0.0
H1776 H 0.68246 0.78255 0.05036 0.0
H1777 H 0.68159 0.77028 0.01983 0.0
H1778 H 0.63542 0.68164 0.10746 0.0
H1779 H 0.63876 0.67023 0.07825 0.0
H1780 H 0.65309 0.70967 0.13123 0.0
H1781 H 0.65932 0.73743 0.13184 0.0
C1782 C 0.29941 0.94702 0.08126 0.0
C1783 C 0.29633 0.9516 0.05462 0.0
C1784 C 0.25645 0.92288 0.05685 0.0
C1785 C 0.2592 0.91955 0.08408 0.0
N1786 N 0.28226 0.93022 0.12342 0.0
N1787 N 0.27171 0.94651 0.01796 0.0
C1788 C 0.28039 0.9322 0.09666 0.0
C1789 C 0.27479 0.94017 0.04259 0.0
N1790 N 0.32065 0.95602 0.09141 0.0
N1791 N 0.23637 0.90926 0.04456 0.0
H1792 H 0.28475 0.9591 0.00694 0.0
H1793 H 0.25601 0.94059 0.00925 0.0
H1794 H 0.2223 0.89701 0.0546 0.0
H1795 H 0.23401 0.90904 0.02414 0.0
H1796 H 0.32423 0.95154 0.1097 0.0
H1797 H 0.33503 0.96657 0.08055 0.0
H1798 H 0.29658 0.94083 0.13432 0.0
H1799 H 0.26888 0.91896 0.13522 0.0
C1800 C 0.33823 0.04511 0.94896 0.0
C1801 C 0.3392 0.0457 0.97715 0.0
C1802 C 0.33244 0.07745 0.97748 0.0
C1803 C 0.3338 0.07826 0.94935 0.0
N1804 N 0.34162 0.06537 0.90836 0.0
N1805 N 0.33908 0.06333 0.01852 0.0
C1806 C 0.33759 0.0627 0.93507 0.0
C1807 C 0.33694 0.06221 0.9915 0.0
N1808 N 0.33783 0.02772 0.93536 0.0
N1809 N 0.326 0.09066 0.99071 0.0
H1810 H 0.34079 0.05154 0.02968 0.0
H1811 H 0.34039 0.0766 0.02983 0.0
H1812 H 0.32245 0.10191 0.98108 0.0
H1813 H 0.32236 0.08922 0.0109 0.0
H1814 H 0.33449 0.02504 0.91511 0.0
H1815 H 0.33912 0.01487 0.94448 0.0
H1816 H 0.34709 0.05621 0.89735 0.0
H1817 H 0.34145 0.07812 0.89745 0.0
C1818 C 0.95095 0.29894 0.95389 0.0
C1819 C 0.95669 0.29713 0.98049 0.0
C1820 C 0.93008 0.25662 0.97968 0.0
C1821 C 0.92576 0.25823 0.95246 0.0
N1822 N 0.93413 0.28006 0.9124 0.0
N1823 N 0.95442 0.27417 0.01769 0.0
C1824 C 0.93685 0.27915 0.93918 0.0
C1825 C 0.94691 0.27595 0.9932 0.0
N1826 N 0.9581 0.31964 0.94308 0.0
N1827 N 0.91783 0.23669 0.99268 0.0
H1828 H 0.96675 0.28794 0.02814 0.0
H1829 H 0.94979 0.25893 0.02682 0.0
H1830 H 0.90594 0.22202 0.98319 0.0
H1831 H 0.91831 0.23498 0.01315 0.0
H1832 H 0.95251 0.32208 0.92489 0.0
H1833 H 0.9681 0.33458 0.95331 0.0
H1834 H 0.94377 0.29433 0.90103 0.0
H1835 H 0.92338 0.26604 0.90106 0.0
C1836 C 0.72465 0.67998 0.96822 0.0
C1837 C 0.70843 0.65851 0.9778 0.0
C1838 C 0.7312 0.64302 0.96073 0.0
C1839 C 0.74548 0.66363 0.94777 0.0
N1840 N 0.75313 0.70061 0.93517 0.0
N1841 N 0.69406 0.61845 0.97811 0.0
C1842 C 0.7415 0.68185 0.95041 0.0
C1843 C 0.71111 0.63968 0.97283 0.0
N1844 N 0.72451 0.69873 0.97682 0.0
N1845 N 0.73705 0.6268 0.96207 0.0
H1846 H 0.67857 0.61495 0.98575 0.0
H1847 H 0.69442 0.60413 0.97224 0.0
H1848 H 0.7519 0.6288 0.95398 0.0
H1849 H 0.72831 0.61238 0.97353 0.0
H1850 H 0.73722 0.71494 0.97233 0.0
H1851 H 0.7131 0.69821 0.99084 0.0
H1852 H 0.74922 0.71337 0.93441 0.0
H1853 H 0.76519 0.70243 0.92131 0.0
C1854 C 0.93204 0.65193 0.98929 0.0
C1855 C 0.95051 0.65255 0.97599 0.0
C1856 C 0.93791 0.66034 0.93391 0.0
C1857 C 0.91845 0.65787 0.94673 0.0
N1858 N 0.89468 0.64696 0.98547 0.0
N1859 N 0.96778 0.65154 0.93462 0.0
C1860 C 0.91482 0.65237 0.97412 0.0
C1861 C 0.95254 0.65511 0.94799 0.0
N1862 N 0.93138 0.65191 0.01641 0.0
N1863 N 0.94288 0.66843 0.90857 0.0
H1864 H 0.97819 0.64673 0.94401 0.0
H1865 H 0.96838 0.65095 0.91399 0.0
H1866 H 0.93279 0.6728 0.89763 0.0
H1867 H 0.95808 0.67282 0.89933 0.0
H1868 H 0.9196 0.65393 0.02719 0.0
H1869 H 0.94378 0.65184 0.02823 0.0
H1870 H 0.8902 0.64056 0.00461 0.0
H1871 H 0.88162 0.64693 0.97495 0.0
C1872 C 0.33811 0.27573 0.9938 0.0
C1873 C 0.34104 0.29492 0.97989 0.0
C1874 C 0.33935 0.27666 0.93737 0.0
C1875 C 0.33499 0.25699 0.95119 0.0
N1876 N 0.32654 0.23617 0.99202 0.0
N1877 N 0.34069 0.3124 0.93842 0.0
C1878 C 0.33341 0.25609 0.9793 0.0
C1879 C 0.34041 0.29497 0.95167 0.0
N1880 N 0.33972 0.27623 0.02087 0.0
N1881 N 0.34349 0.27823 0.91066 0.0
H1882 H 0.34247 0.32668 0.94778 0.0
H1883 H 0.33752 0.31206 0.91817 0.0
H1884 H 0.34288 0.2652 0.89943 0.0
H1885 H 0.34941 0.29304 0.89996 0.0
H1886 H 0.34063 0.26397 0.03192 0.0
H1887 H 0.34132 0.28954 0.0324 0.0
H1888 H 0.32267 0.23369 0.01214 0.0
H1889 H 0.32291 0.22145 0.98204 0.0
C1890 C 0.70672 0.06253 0.96063 0.0
C1891 C 0.70906 0.0516 0.98326 0.0
C1892 C 0.75007 0.07298 0.97842 0.0
C1893 C 0.74752 0.08218 0.9544 0.0
N1894 N 0.72356 0.08322 0.92022 0.0
N1895 N 0.73253 0.04469 0.0127 0.0
C1896 C 0.72587 0.07636 0.9449 0.0
C1897 C 0.73064 0.0563 0.99184 0.0
N1898 N 0.68619 0.05972 0.95409 0.0
N1899 N 0.77105 0.08073 0.98882 0.0
H1900 H 0.71882 0.03345 0.02409 0.0
H1901 H 0.74745 0.04528 0.01789 0.0
H1902 H 0.78563 0.09285 0.97946 0.0
H1903 H 0.77398 0.0765 0.00762 0.0
H1904 H 0.68387 0.06924 0.93977 0.0
H1905 H 0.67157 0.0491 0.96437 0.0
H1906 H 0.70814 0.07741 0.91082 0.0
H1907 H 0.73717 0.09329 0.90799 0.0
C1908 C 0.68293 0.95444 0.04779 0.0
C1909 C 0.66074 0.949 0.04075 0.0
C1910 C 0.64816 0.90952 0.04881 0.0
C1911 C 0.66812 0.91588 0.06329 0.0
N1912 N 0.70767 0.93959 0.05563 0.0
N1913 N 0.62168 0.9205 0.03466 0.0
C1914 C 0.68676 0.93715 0.057 0.0
C1915 C 0.64322 0.92626 0.04094 0.0
N1916 N 0.70036 0.97595 0.04553 0.0
N1917 N 0.63605 0.8884 0.03864 0.0
H1918 H 0.61692 0.93218 0.02956 0.0
H1919 H 0.60828 0.90418 0.03689 0.0
H1920 H 0.64193 0.87708 0.03973 0.0
H1921 H 0.62239 0.88353 0.02596 0.0
H1922 H 0.71621 0.98122 0.05354 0.0
H1923 H 0.69881 0.98871 0.03654 0.0
H1924 H 0.72176 0.95405 0.04877 0.0
H1925 H 0.71012 0.92591 0.05788 0.0
C1926 C 0.05371 0.70241 0.07814 0.0
C1927 C 0.05245 0.70456 0.05022 0.0
C1928 C 0.08172 0.74421 0.05277 0.0
C1929 C 0.08369 0.74177 0.08046 0.0
N1930 N 0.07442 0.71815 0.11903 0.0
N1931 N 0.06689 0.72616 0.01019 0.0
C1932 C 0.07045 0.72074 0.09303 0.0
C1933 C 0.06704 0.72506 0.03728 0.0
N1934 N 0.03874 0.68287 0.09045 0.0
N1935 N 0.09333 0.76502 0.04152 0.0
H1936 H 0.05575 0.71273 0.99833 0.0
H1937 H 0.07871 0.7398 0.99928 0.0
H1938 H 0.1044 0.77934 0.05221 0.0
H1939 H 0.09091 0.76849 0.02211 0.0
H1940 H 0.03684 0.68112 0.11095 0.0
H1941 H 0.0272 0.66852 0.08019 0.0
H1942 H 0.06723 0.70273 0.12862 0.0
H1943 H 0.08629 0.73128 0.13071 0.0
C1944 C 0.27936 0.34605 0.04424 0.0
C1945 C 0.29626 0.34391 0.05784 0.0
C1946 C 0.2738 0.33406 0.09867 0.0
C1947 C 0.2583 0.33874 0.08583 0.0
N1948 N 0.248 0.35263 0.04762 0.0
N1949 N 0.31139 0.33966 0.09939 0.0
C1950 C 0.26155 0.34572 0.05894 0.0
C1951 C 0.29396 0.33885 0.08543 0.0
N1952 N 0.27966 0.34728 0.01715 0.0
N1953 N 0.269 0.32448 0.12331 0.0
H1954 H 0.32661 0.34331 0.0908 0.0
H1955 H 0.31157 0.33875 0.12001 0.0
H1956 H 0.25443 0.32077 0.13371 0.0
H1957 H 0.27843 0.31836 0.13241 0.0
H1958 H 0.26654 0.34654 0.00604 0.0
H1959 H 0.29189 0.34669 0.00552 0.0
H1960 H 0.25111 0.36024 0.02907 0.0
H1961 H 0.23471 0.35254 0.05771 0.0
C1962 C 0.71242 0.65674 0.39493 0.0
C1963 C 0.71806 0.67865 0.38671 0.0
C1964 C 0.75567 0.6933 0.40568 0.0
C1965 C 0.7488 0.67211 0.41734 0.0
N1966 N 0.71885 0.63461 0.42716 0.0
N1967 N 0.74373 0.71869 0.38984 0.0
C1968 C 0.72665 0.65405 0.41311 0.0
C1969 C 0.73937 0.69723 0.39347 0.0
N1970 N 0.69395 0.6384 0.38464 0.0
N1971 N 0.77783 0.70954 0.40565 0.0
H1972 H 0.73194 0.72258 0.38253 0.0
H1973 H 0.75824 0.73266 0.39693 0.0
H1974 H 0.7904 0.70713 0.41375 0.0
H1975 H 0.78394 0.72449 0.39513 0.0
H1976 H 0.69031 0.62202 0.38819 0.0
H1977 H 0.68371 0.63954 0.37021 0.0
H1978 H 0.7021 0.62183 0.42672 0.0
H1979 H 0.72849 0.63216 0.44126 0.0
C1980 C 0.33573 0.06093 0.36894 0.0
C1981 C 0.32755 0.0403 0.38255 0.0
C1982 C 0.32642 0.05812 0.42432 0.0
C1983 C 0.33346 0.07847 0.41046 0.0
N1984 N 0.34225 0.09898 0.36935 0.0
N1985 N 0.31134 0.01796 0.42184 0.0
C1986 C 0.33731 0.07978 0.38265 0.0
C1987 C 0.32191 0.03855 0.4099 0.0
N1988 N 0.34292 0.06274 0.34328 0.0
N1989 N 0.32434 0.05761 0.45136 0.0
H1990 H 0.30767 0.00318 0.412 0.0
H1991 H 0.30446 0.01513 0.4408 0.0
H1992 H 0.32642 0.07127 0.46255 0.0
H1993 H 0.32203 0.04415 0.46298 0.0
H1994 H 0.35137 0.07786 0.33307 0.0
H1995 H 0.34189 0.04926 0.33262 0.0
H1996 H 0.34273 0.10025 0.34875 0.0
H1997 H 0.3445 0.11342 0.37888 0.0
C1998 C 0.96228 0.28862 0.41766 0.0
C1999 C 0.96241 0.28856 0.38944 0.0
C2000 C 0.92383 0.25664 0.38907 0.0
C2001 C 0.92458 0.25541 0.41714 0.0
N2002 N 0.94558 0.26771 0.458 0.0
N2003 N 0.94418 0.27169 0.34793 0.0
C2004 C 0.94408 0.27077 0.43142 0.0
C2005 C 0.94346 0.27223 0.37504 0.0
N2006 N 0.97943 0.30579 0.43143 0.0
N2007 N 0.90404 0.2435 0.37596 0.0
H2008 H 0.95746 0.28384 0.33677 0.0
H2009 H 0.93215 0.25857 0.33647 0.0
H2010 H 0.88933 0.23193 0.38559 0.0
H2011 H 0.90163 0.24523 0.35591 0.0
H2012 H 0.97893 0.30811 0.45179 0.0
H2013 H 0.99356 0.3188 0.42241 0.0
H2014 H 0.96031 0.27669 0.46894 0.0
H2015 H 0.93265 0.2548 0.46881 0.0
C2016 C 0.0071 0.39979 0.32621 0.0
C2017 C 0.00939 0.38318 0.31209 0.0
C2018 C 0.00849 0.40035 0.2698 0.0
C2019 C 0.00467 0.41599 0.28383 0.0
N2020 N 0.99651 0.42849 0.32487 0.0
N2021 N 0.00827 0.36515 0.27039 0.0
C2022 C 0.00298 0.41517 0.31193 0.0
C2023 C 0.00876 0.38263 0.28387 0.0
N2024 N 0.00877 0.40081 0.35328 0.0
N2025 N 0.01288 0.40303 0.24316 0.0
H2026 H 0.00927 0.35218 0.2796 0.0
H2027 H 0.00514 0.36253 0.2501 0.0
H2028 H 0.01296 0.41585 0.23213 0.0
H2029 H 0.0184 0.3938 0.23238 0.0
H2030 H 0.01012 0.41416 0.36447 0.0
H2031 H 0.00999 0.38885 0.36464 0.0
H2032 H 0.99259 0.42705 0.34498 0.0
H2033 H 0.99323 0.43985 0.31506 0.0
C2034 C 0.61739 0.6341 0.28513 0.0
C2035 C 0.62066 0.63183 0.31253 0.0
C2036 C 0.59084 0.59234 0.31115 0.0
C2037 C 0.58889 0.59418 0.28332 0.0
N2038 N 0.60152 0.61584 0.24304 0.0
N2039 N 0.61271 0.60863 0.35125 0.0
C2040 C 0.60254 0.6148 0.27008 0.0
C2041 C 0.60787 0.61093 0.32552 0.0
N2042 N 0.62781 0.65492 0.27375 0.0
N2043 N 0.57627 0.57285 0.32383 0.0
H2044 H 0.62496 0.62192 0.3624 0.0
H2045 H 0.6058 0.59332 0.36105 0.0
H2046 H 0.56427 0.55858 0.31381 0.0
H2047 H 0.57504 0.57119 0.34438 0.0
H2048 H 0.62422 0.65813 0.25474 0.0
H2049 H 0.6388 0.66949 0.28407 0.0
H2050 H 0.61292 0.62953 0.23185 0.0
H2051 H 0.59009 0.60239 0.2314 0.0
C2052 C 0.38005 0.9696 0.31232 0.0
C2053 C 0.37841 0.98885 0.31843 0.0
C2054 C 0.41802 0.01258 0.30584 0.0
C2055 C 0.41772 0.99348 0.2947 0.0
N2056 N 0.40646 0.95661 0.31145 0.0
N2057 N 0.39699 0.02915 0.32384 0.0
C2058 C 0.40103 0.9724 0.30454 0.0
C2059 C 0.39778 0.01054 0.31613 0.0
N2060 N 0.36164 0.94859 0.31307 0.0
N2061 N 0.43818 0.03158 0.31018 0.0
H2062 H 0.38342 0.02839 0.33396 0.0
H2063 H 0.40956 0.0454 0.31929 0.0
H2064 H 0.45336 0.03208 0.30653 0.0
H2065 H 0.43997 0.04552 0.32043 0.0
H2066 H 0.36227 0.93448 0.30676 0.0
H2067 H 0.34552 0.94551 0.31741 0.0
H2068 H 0.39511 0.9416 0.32068 0.0
H2069 H 0.42316 0.96038 0.31208 0.0
C2070 C 0.61545 0.98281 0.28062 0.0
C2071 C 0.61901 0.98937 0.30773 0.0
C2072 C 0.5899 0.99991 0.30518 0.0
C2073 C 0.58772 0.99511 0.27756 0.0
N2074 N 0.60006 0.98468 0.23801 0.0
N2075 N 0.61196 0.00663 0.34531 0.0
C2076 C 0.601 0.98736 0.26498 0.0
C2077 C 0.60679 0.99849 0.31995 0.0
N2078 N 0.62512 0.97134 0.27015 0.0
N2079 N 0.5756 0.00549 0.31733 0.0
H2080 H 0.6241 0.0057 0.35676 0.0
H2081 H 0.60549 0.01575 0.3544 0.0
H2082 H 0.56358 0.00748 0.307 0.0
H2083 H 0.57456 0.0067 0.33782 0.0
H2084 H 0.6214 0.96405 0.25136 0.0
H2085 H 0.63543 0.9673 0.28114 0.0
H2086 H 0.61118 0.98161 0.22728 0.0
H2087 H 0.58914 0.98712 0.22599 0.0
C2088 C 0.00511 0.61062 0.32965 0.0
C2089 C 0.01222 0.63134 0.31668 0.0
C2090 C 0.01468 0.61507 0.27428 0.0
C2091 C 0.006 0.59393 0.28686 0.0
N2092 N 0.99041 0.57051 0.3254 0.0
N2093 N 0.02218 0.65339 0.27661 0.0
C2094 C 1.00056 0.59141 0.31429 0.0
C2095 C 0.0165 0.63358 0.28894 0.0
N2096 N 0.00292 0.60939 0.35667 0.0
N2097 N 0.02189 0.61758 0.24853 0.0
H2098 H 0.02511 0.66779 0.28684 0.0
H2099 H 0.02284 0.65537 0.2561 0.0
H2100 H 0.02043 0.60432 0.237 0.0
H2101 H 0.03074 0.633 0.23902 0.0
H2102 H 1.00022 0.59552 0.36772 0.0
H2103 H 0.00529 0.6229 0.3684 0.0
H2104 H 0.98381 0.56705 0.34451 0.0
H2105 H 0.9871 0.55614 0.31482 0.0
C2106 C 0.37778 0.40567 0.3051 0.0
C2107 C 0.37548 0.38445 0.31091 0.0
C2108 C 0.40891 0.39422 0.28421 0.0
C2109 C 0.41268 0.41632 0.28116 0.0
N2110 N 0.40329 0.44444 0.29386 0.0
N2111 N 0.39162 0.36039 0.31062 0.0
C2112 C 0.39789 0.42247 0.29316 0.0
C2113 C 0.39182 0.37922 0.30176 0.0
N2114 N 0.36038 0.40947 0.30957 0.0
N2115 N 0.42107 0.38727 0.26966 0.0
H2116 H 0.37991 0.3494 0.32429 0.0
H2117 H 0.40444 0.35695 0.30658 0.0
H2118 H 0.43338 0.39757 0.25609 0.0
H2119 H 0.41742 0.37066 0.26913 0.0
H2120 H 0.36049 0.42388 0.30314 0.0
H2121 H 0.34486 0.39732 0.317 0.0
H2122 H 0.39416 0.45004 0.30472 0.0
H2123 H 0.41812 0.45737 0.28586 0.0
C2124 C 0.34453 0.28432 0.37715 0.0
C2125 C 0.32684 0.28813 0.38457 0.0
C2126 C 0.31656 0.26138 0.42115 0.0
C2127 C 0.33308 0.25624 0.41247 0.0
N2128 N 0.3604 0.25992 0.3799 0.0
N2129 N 0.29374 0.27802 0.4108 0.0
C2130 C 0.34647 0.26695 0.38984 0.0
C2131 C 0.3121 0.2759 0.40566 0.0
N2132 N 0.35952 0.29737 0.35808 0.0
N2133 N 0.30581 0.25313 0.44481 0.0
H2134 H 0.29019 0.28897 0.40048 0.0
H2135 H 0.28105 0.26771 0.42392 0.0
H2136 H 0.30875 0.24258 0.45686 0.0
H2137 H 0.29546 0.25826 0.45369 0.0
H2138 H 0.37428 0.29724 0.35396 0.0
H2139 H 0.35793 0.30944 0.34738 0.0
H2140 H 0.36881 0.26535 0.36188 0.0
H2141 H 0.3622 0.24719 0.38861 0.0
C2142 C 0.73089 0.05938 0.37141 0.0
C2143 C 0.717 0.03867 0.38433 0.0
C2144 C 0.73587 0.05472 0.42676 0.0
C2145 C 0.74852 0.07588 0.41426 0.0
N2146 N 0.7568 0.09941 0.37576 0.0
N2147 N 0.70466 0.01653 0.42433 0.0
C2148 C 0.74574 0.0785 0.38682 0.0
C2149 C 0.71902 0.03633 0.41204 0.0
N2150 N 0.72995 0.06068 0.3444 0.0
N2151 N 0.7405 0.0521 0.45248 0.0
H2152 H 0.69302 0.00221 0.41409 0.0
H2153 H 0.70333 0.0145 0.44484 0.0
H2154 H 0.75242 0.06529 0.46404 0.0
H2155 H 0.73375 0.03666 0.46194 0.0
H2156 H 0.74125 0.07453 0.33337 0.0
H2157 H 0.71867 0.04723 0.33265 0.0
H2158 H 0.75377 0.10297 0.35666 0.0
H2159 H 0.76805 0.11371 0.38636 0.0
C2160 C 0.96463 0.68177 0.42111 0.0
C2161 C 0.96486 0.683 0.39298 0.0
C2162 C 0.92827 0.68104 0.39404 0.0
C2163 C 0.92682 0.67679 0.42177 0.0
N2164 N 0.94196 0.66891 0.46086 0.0
N2165 N 0.94531 0.68038 0.35218 0.0
C2166 C 0.94454 0.67595 0.43509 0.0
C2167 C 0.94627 0.68179 0.37926 0.0
N2168 N 0.98394 0.68727 0.4346 0.0
N2169 N 0.91286 0.68505 0.38197 0.0
H2170 H 0.95796 0.68053 0.34065 0.0
H2171 H 0.93108 0.67703 0.34132 0.0
H2172 H 0.89962 0.68495 0.39218 0.0
H2173 H 0.9144 0.69053 0.36242 0.0
H2174 H 0.98525 0.68868 0.45521 0.0
H2175 H 0.99931 0.69302 0.42509 0.0
H2176 H 0.95348 0.66581 0.47059 0.0
H2177 H 0.92733 0.66407 0.47172 0.0
C2178 C 0.37715 0.98835 0.72455 0.0
C2179 C 0.38399 0.01023 0.71503 0.0
C2180 C 0.42211 0.02307 0.73128 0.0
C2181 C 0.41437 0.00223 0.74426 0.0
N2182 N 0.38334 0.96615 0.75695 0.0
N2183 N 0.41215 0.04967 0.71434 0.0
C2184 C 0.39155 0.98511 0.74188 0.0
C2185 C 0.4063 0.02796 0.71958 0.0
N2186 N 0.35726 0.97051 0.71632 0.0
N2187 N 0.44461 0.03806 0.72965 0.0
H2188 H 0.40093 0.05435 0.70708 0.0
H2189 H 0.42756 0.06331 0.71991 0.0
H2190 H 0.45677 0.0349 0.73753 0.0
H2191 H 0.45123 0.05253 0.71814 0.0
H2192 H 0.35247 0.95394 0.72072 0.0
H2193 H 0.34668 0.97201 0.7027 0.0
H2194 H 0.3663 0.95426 0.75801 0.0
H2195 H 0.39319 0.9633 0.77033 0.0
C2196 C 0.00515 0.3928 0.70808 0.0
C2197 C 0.99477 0.37155 0.72067 0.0
C2198 C 0.99164 0.38856 0.76212 0.0
C2199 C 1.00025 0.40941 0.7489 0.0
N2200 N 0.01296 0.43128 0.7088 0.0
N2201 N 0.97463 0.34826 0.7581 0.0
C2202 C 0.00636 0.4115 0.7217 0.0
C2203 C 0.98716 0.36917 0.74733 0.0
N2204 N 0.01465 0.39526 0.68357 0.0
N2205 N 0.98799 0.38737 0.78891 0.0
H2206 H 0.97057 0.33354 0.74785 0.0
H2207 H 0.96651 0.34526 0.77633 0.0
H2208 H 0.99035 0.40105 0.80031 0.0
H2209 H 0.98427 0.37331 0.80024 0.0
H2210 H 0.02457 0.41072 0.6745 0.0
H2211 H 0.01417 0.38196 0.67309 0.0
H2212 H 0.01515 0.43316 0.68834 0.0
H2213 H 0.01486 0.44557 0.71837 0.0
C2214 C 0.62415 0.62225 0.75006 0.0
C2215 C 0.62385 0.62317 0.72188 0.0
C2216 C 0.58408 0.59376 0.72162 0.0
C2217 C 0.58516 0.59121 0.74943 0.0
N2218 N 0.60686 0.60065 0.78982 0.0
N2219 N 0.60415 0.60919 0.68038 0.0
C2220 C 0.60533 0.60491 0.76362 0.0
C2221 C 0.60398 0.60869 0.70752 0.0
N2222 N 0.64241 0.63791 0.76395 0.0
N2223 N 0.56383 0.58242 0.70889 0.0
H2224 H 0.61782 0.62098 0.66938 0.0
H2225 H 0.59121 0.59724 0.66865 0.0
H2226 H 0.54894 0.57142 0.71864 0.0
H2227 H 0.56134 0.58519 0.68921 0.0
H2228 H 0.64255 0.63969 0.78449 0.0
H2229 H 0.65697 0.65035 0.75497 0.0
H2230 H 0.62185 0.60819 0.80046 0.0
H2231 H 0.59347 0.58815 0.80053 0.0
C2232 C 0.65814 0.71998 0.65145 0.0
C2233 C 0.67567 0.71575 0.64463 0.0
C2234 C 0.68652 0.74205 0.60743 0.0
C2235 C 0.67022 0.74768 0.61557 0.0
N2236 N 0.64276 0.74475 0.6475 0.0
N2237 N 0.70856 0.72468 0.61867 0.0
C2238 C 0.65658 0.73735 0.63817 0.0
C2239 C 0.69051 0.72741 0.6234 0.0
N2240 N 0.64287 0.70726 0.67046 0.0
N2241 N 0.69756 0.75001 0.58387 0.0
H2242 H 0.71171 0.71364 0.62945 0.0
H2243 H 0.72136 0.7345 0.60541 0.0
H2244 H 0.69501 0.76069 0.57157 0.0
H2245 H 0.70781 0.74459 0.57536 0.0
H2246 H 0.62823 0.70771 0.67421 0.0
H2247 H 0.64405 0.69506 0.68141 0.0
H2248 H 0.63422 0.73964 0.66548 0.0
H2249 H 0.64117 0.75742 0.63831 0.0
C2250 C 0.2857 0.96679 0.61729 0.0
C2251 C 0.29139 0.96477 0.64385 0.0
C2252 C 0.26412 0.92445 0.64308 0.0
C2253 C 0.25957 0.92626 0.616 0.0
N2254 N 0.26812 0.94814 0.57596 0.0
N2255 N 0.28889 0.94157 0.68087 0.0
C2256 C 0.27106 0.94714 0.60268 0.0
C2257 C 0.28134 0.94356 0.65649 0.0
N2258 N 0.29336 0.98758 0.60648 0.0
N2259 N 0.2517 0.90453 0.65605 0.0
H2260 H 0.30151 0.9552 0.69122 0.0
H2261 H 0.284 0.92625 0.68996 0.0
H2262 H 0.2396 0.88996 0.64659 0.0
H2263 H 0.25233 0.90272 0.67649 0.0
H2264 H 0.28783 0.99025 0.58837 0.0
H2265 H 0.30382 0.00245 0.61659 0.0
H2266 H 0.27796 0.9623 0.56451 0.0
H2267 H 0.25693 0.93426 0.56472 0.0
C2268 C 0.05855 0.34973 0.6382 0.0
C2269 C 0.04388 0.32797 0.64841 0.0
C2270 C 0.06945 0.31551 0.63227 0.0
C2271 C 0.08215 0.33613 0.61866 0.0
N2272 N 0.08646 0.37166 0.60507 0.0
N2273 N 0.03317 0.28874 0.65003 0.0
C2274 C 0.07611 0.35297 0.62066 0.0
C2275 C 0.04876 0.31046 0.64422 0.0
N2276 N 0.05624 0.36749 0.64596 0.0
N2277 N 0.07734 0.3009 0.63426 0.0
H2278 H 0.01725 0.28389 0.65744 0.0
H2279 H 0.03513 0.27519 0.64475 0.0
H2280 H 0.09267 0.3042 0.62623 0.0
H2281 H 0.0698 0.28667 0.6462 0.0
H2282 H 0.06778 0.38403 0.64105 0.0
H2283 H 0.04421 0.366 0.65966 0.0
H2284 H 0.08105 0.38329 0.60375 0.0
H2285 H 0.0991 0.37449 0.59156 0.0
C2286 C 0.27255 0.33105 0.65737 0.0
C2287 C 0.28892 0.32821 0.64351 0.0
C2288 C 0.27622 0.33609 0.60151 0.0
C2289 C 0.25809 0.33605 0.61496 0.0
N2290 N 0.23666 0.32953 0.65522 0.0
N2291 N 0.30301 0.32317 0.60158 0.0
C2292 C 0.2556 0.33246 0.6428 0.0
C2293 C 0.28995 0.3295 0.61534 0.0
N2294 N 0.27364 0.33326 0.68438 0.0
N2295 N 0.28066 0.34289 0.57565 0.0
H2296 H 0.31247 0.31707 0.61068 0.0
H2297 H 0.30256 0.32163 0.58098 0.0
H2298 H 0.27117 0.34815 0.56492 0.0
H2299 H 0.29502 0.34541 0.56572 0.0
H2300 H 0.2635 0.33761 0.69523 0.0
H2301 H 0.28619 0.33302 0.69572 0.0
H2302 H 0.23287 0.32448 0.67492 0.0
H2303 H 0.2237 0.33013 0.64524 0.0
C2304 C 0.66647 0.94245 0.65925 0.0
C2305 C 0.67707 0.96373 0.6467 0.0
C2306 C 0.68109 0.94687 0.60552 0.0
C2307 C 0.66951 0.92544 0.61768 0.0
N2308 N 0.64889 0.90198 0.65459 0.0
N2309 N 0.69339 0.98659 0.60783 0.0
C2310 C 0.66158 0.923 0.64416 0.0
C2311 C 0.68399 0.96602 0.61976 0.0
N2312 N 0.66131 0.94092 0.68567 0.0
N2313 N 0.68991 0.94892 0.58064 0.0
H2314 H 0.69761 0.0013 0.61816 0.0
H2315 H 0.69624 0.98912 0.58753 0.0
H2316 H 0.68748 0.9352 0.56928 0.0
H2317 H 0.7007 0.96417 0.57164 0.0
H2318 H 0.65591 0.92645 0.69687 0.0
H2319 H 0.66364 0.95461 0.697 0.0
H2320 H 0.64053 0.89868 0.67267 0.0
H2321 H 0.64542 0.88743 0.64429 0.0
C2322 C 0.06209 0.71546 0.64865 0.0
C2323 C 0.04417 0.71929 0.65489 0.0
C2324 C 0.06577 0.75695 0.63592 0.0
C2325 C 0.08149 0.75138 0.62539 0.0
N2326 N 0.09198 0.72316 0.61784 0.0
N2327 N 0.02739 0.74271 0.64963 0.0
C2328 C 0.07901 0.73005 0.63075 0.0
C2329 C 0.04559 0.73985 0.64745 0.0
N2330 N 0.0633 0.69822 0.66031 0.0
N2331 N 0.07025 0.77863 0.63536 0.0
H2332 H 0.0118 0.73039 0.65662 0.0
H2333 H 0.02711 0.75656 0.64183 0.0
H2334 H 0.08517 0.79175 0.62776 0.0
H2335 H 0.06026 0.78387 0.64499 0.0
H2336 H 0.07708 0.69592 0.65809 0.0
H2337 H 0.05187 0.68787 0.67465 0.0
H2338 H 0.0892 0.70688 0.61924 0.0
H2339 H 0.10392 0.73287 0.60362 0.0
C2340 C 0.00707 0.60842 0.70243 0.0
C2341 C 0.98642 0.60841 0.70439 0.0
C2342 C 0.96824 0.56966 0.71955 0.0
C2343 C 0.98949 0.57232 0.72576 0.0
N2344 N 0.02603 0.58678 0.70647 0.0
N2345 N 0.94689 0.5884 0.7162 0.0
C2346 C 0.00825 0.58965 0.71225 0.0
C2347 C 0.9668 0.58882 0.71314 0.0
N2348 N 0.02549 0.62632 0.69147 0.0
N2349 N 0.95043 0.54893 0.7144 0.0
H2350 H 0.94494 0.60224 0.71287 0.0
H2351 H 0.93283 0.57464 0.72447 0.0
H2352 H 0.95266 0.53518 0.7115 0.0
H2353 H 0.93492 0.54645 0.70804 0.0
H2354 H 0.04164 0.62869 0.69266 0.0
H2355 H 0.02474 0.6392 0.6816 0.0
H2356 H 0.03966 0.59774 0.69488 0.0
H2357 H 0.02577 0.57187 0.71102 0.0
C2358 C 0.39465 0.39046 0.70675 0.0
C2359 C 0.3798 0.37028 0.72017 0.0
C2360 C 0.3948 0.38888 0.76294 0.0
C2361 C 0.41131 0.40822 0.74948 0.0
N2362 N 0.42976 0.42575 0.70838 0.0
N2363 N 0.36971 0.34879 0.76079 0.0
C2364 C 0.41205 0.40856 0.72129 0.0
C2365 C 0.38094 0.36905 0.74823 0.0
N2366 N 0.39161 0.39275 0.68039 0.0
N2367 N 0.39187 0.38958 0.78969 0.0
H2368 H 0.36035 0.33365 0.75069 0.0
H2369 H 0.37174 0.34674 0.78089 0.0
H2370 H 0.40135 0.40393 0.80116 0.0
H2371 H 0.37857 0.37665 0.8 0.0
H2372 H 0.40049 0.40791 0.6703 0.0
H2373 H 0.37872 0.38014 0.66916 0.0
H2374 H 0.43231 0.42567 0.688 0.0
H2375 H 0.44307 0.43909 0.71828 0.0
C2376 C 0.61249 0.01007 0.70964 0.0
C2377 C 0.63081 0.01124 0.72396 0.0
C2378 C 0.60925 0.00312 0.76527 0.0
C2379 C 0.592 0.00442 0.75142 0.0
N2380 N 0.57907 0.01334 0.71123 0.0
N2381 N 0.64855 0.01402 0.76627 0.0
C2382 C 0.59414 0.00909 0.7238 0.0
C2383 C 0.62972 0.00913 0.75204 0.0
N2384 N 0.61213 0.00892 0.68254 0.0
N2385 N 0.60588 0.99556 0.79085 0.0
H2386 H 0.66417 0.01963 0.75748 0.0
H2387 H 0.64923 0.01492 0.78693 0.0
H2388 H 0.59099 0.9907 0.80117 0.0
H2389 H 0.61699 0.99208 0.80094 0.0
H2390 H 0.59815 0.00571 0.67124 0.0
H2391 H 0.62493 0.00896 0.67142 0.0
H2392 H 0.58116 0.01917 0.69179 0.0
H2393 H 0.56554 0.01304 0.72095 0.0
loop_
_geom_bond_atom_site_label_1
_geom_bond_atom_site_label_2
_geom_bond_distance
_geom_bond_site_symmetry_2
_ccdc_geom_bond_type
In0 O1 2.274 1_455 S
In0 O2 2.329 . S
In0 O6 2.244 1_455 S
In0 O7 2.331 1_454 S
In0 O8 2.273 1_554 S
In0 O9 2.300 1_454 S
In0 O11 2.329 . S
In0 O12 2.346 . S
O1 In0 2.274 1_655 S
O1 C10 1.227 1_655 S
O2 In0 2.329 . S
O2 C10 1.277 . S
C3 O6 1.252 1_556 S
C3 O7 1.260 . S
C4 O11 1.240 . S
C4 O12 1.252 . S
C5 O8 1.261 . S
C5 O9 1.253 1_455 S
O6 In0 2.244 1_655 S
O6 C3 1.252 1_554 S
O7 In0 2.331 1_656 S
O7 C3 1.260 . S
O8 In0 2.273 1_556 S
O8 C5 1.261 . S
O9 In0 2.300 1_656 S
O9 C5 1.253 1_655 S
C10 O1 1.227 1_455 S
C10 O2 1.277 . S
O11 In0 2.329 . S
O11 C4 1.240 . S
O12 In0 2.346 . S
O12 C4 1.252 . S
In13 O14 2.294 . S
In13 O15 2.326 . S
In13 O19 2.266 . S
In13 O20 2.326 1_554 S
In13 O21 2.266 1_554 S
In13 O22 2.326 1_554 S
In13 O24 2.294 . S
In13 O25 2.326 . S
O14 In13 2.294 . S
O14 C23 1.240 . S
O15 In13 2.326 . S
O15 C23 1.252 . S
C16 O19 1.252 1_556 S
C16 O20 1.260 . S
C17 O24 1.240 . S
C17 O25 1.252 . S
C18 O21 1.252 . S
C18 O22 1.260 . S
O19 In13 2.266 . S
O19 C16 1.252 1_554 S
O20 In13 2.326 1_556 S
O20 C16 1.260 . S
O21 In13 2.266 1_556 S
O21 C18 1.252 . S
O22 In13 2.326 1_556 S
O22 C18 1.260 . S
C23 O14 1.240 . S
C23 O15 1.252 . S
O24 In13 2.294 . S
O24 C17 1.240 . S
O25 In13 2.326 . S
O25 C17 1.252 . S
In26 O27 2.341 . S
In26 O28 2.352 1_554 S
In26 O32 2.276 . S
In26 O33 2.291 1_545 S
In26 O34 2.237 1_545 S
In26 O35 2.332 1_545 S
In26 O37 2.267 1_544 S
In26 O38 2.330 1_554 S
O27 In26 2.341 . S
O27 C36 1.240 1_554 S
O28 In26 2.352 1_556 S
O28 C36 1.252 . S
C29 O32 1.276 . S
C29 O33 1.243 1_545 S
C30 O37 1.222 1_545 S
C30 O38 1.287 . S
C31 O34 1.252 . S
C31 O35 1.260 . S
O32 In26 2.276 . S
O32 C29 1.276 . S
O33 In26 2.291 1_565 S
O33 C29 1.243 1_565 S
O34 In26 2.237 1_565 S
O34 C31 1.252 . S
O35 In26 2.332 1_565 S
O35 C31 1.260 . S
C36 O27 1.240 1_556 S
C36 O28 1.252 . S
O37 In26 2.267 1_566 S
O37 C30 1.222 1_565 S
O38 In26 2.330 1_556 S
O38 C30 1.287 . S
In39 O40 2.293 1_554 S
In39 O41 2.326 1_454 S
In39 O45 2.265 . S
In39 O46 2.326 . S
In39 O47 2.267 1_455 S
In39 O48 2.324 . S
In39 O50 2.296 1_455 S
In39 O51 2.328 1_454 S
O40 In39 2.293 1_556 S
O40 C49 1.239 . S
O41 In39 2.326 1_656 S
O41 C49 1.254 1_655 S
C42 O45 1.252 . S
C42 O46 1.260 . S
C43 O50 1.240 1_556 S
C43 O51 1.252 . S
C44 O47 1.232 1_455 S
C44 O48 1.275 . S
O45 In39 2.265 . S
O45 C42 1.252 . S
O46 In39 2.326 . S
O46 C42 1.260 . S
O47 In39 2.267 1_655 S
O47 C44 1.232 1_655 S
O48 In39 2.324 . S
O48 C44 1.275 . S
C49 O40 1.239 . S
C49 O41 1.254 1_455 S
O50 In39 2.296 1_655 S
O50 C43 1.240 1_554 S
O51 In39 2.328 1_656 S
O51 C43 1.252 . S
In52 O53 2.294 1_554 S
In52 O54 2.326 1_554 S
In52 O58 2.266 . S
In52 O59 2.326 . S
In52 O60 2.266 . S
In52 O61 2.326 . S
In52 O63 2.294 . S
In52 O64 2.326 1_554 S
O53 In52 2.294 1_556 S
O53 C62 1.240 . S
O54 In52 2.326 1_556 S
O54 C62 1.252 . S
C55 O58 1.252 . S
C55 O59 1.260 . S
C56 O63 1.240 1_556 S
C56 O64 1.252 . S
C57 O60 1.252 . S
C57 O61 1.260 . S
O58 In52 2.266 . S
O58 C55 1.252 . S
O59 In52 2.326 . S
O59 C55 1.260 . S
O60 In52 2.266 . S
O60 C57 1.252 . S
O61 In52 2.326 . S
O61 C57 1.260 . S
C62 O53 1.240 . S
C62 O54 1.252 . S
O63 In52 2.294 . S
O63 C56 1.240 1_554 S
O64 In52 2.326 1_556 S
O64 C56 1.252 . S
In65 O66 2.293 . S
In65 O67 2.326 1_545 S
In65 O71 2.265 . S
In65 O72 2.326 1_554 S
In65 O73 2.267 1_544 S
In65 O74 2.324 1_554 S
In65 O76 2.296 1_545 S
In65 O77 2.328 1_545 S
O66 In65 2.293 . S
O66 C75 1.238 . S
O67 In65 2.326 1_565 S
O67 C75 1.255 1_565 S
C68 O71 1.252 1_556 S
C68 O72 1.260 . S
C69 O76 1.240 . S
C69 O77 1.252 . S
C70 O73 1.234 1_545 S
C70 O74 1.273 . S
O71 In65 2.265 . S
O71 C68 1.252 1_554 S
O72 In65 2.326 1_556 S
O72 C68 1.260 . S
O73 In65 2.267 1_566 S
O73 C70 1.234 1_565 S
O74 In65 2.324 1_556 S
O74 C70 1.273 . S
C75 O66 1.238 . S
C75 O67 1.255 1_545 S
O76 In65 2.296 1_565 S
O76 C69 1.240 . S
O77 In65 2.328 1_565 S
O77 C69 1.252 . S
In78 O79 2.294 . S
In78 O80 2.326 . S
In78 O84 2.266 . S
In78 O85 2.326 . S
In78 O86 2.266 . S
In78 O87 2.326 . S
In78 O89 2.294 . S
In78 O90 2.326 . S
O79 In78 2.294 . S
O79 C88 1.240 . S
O80 In78 2.326 . S
O80 C88 1.252 . S
C81 O84 1.252 . S
C81 O85 1.260 . S
C82 O89 1.240 . S
C82 O90 1.252 . S
C83 O86 1.252 . S
C83 O87 1.260 . S
O84 In78 2.266 . S
O84 C81 1.252 . S
O85 In78 2.326 . S
O85 C81 1.260 . S
O86 In78 2.266 . S
O86 C83 1.252 . S
O87 In78 2.326 . S
O87 C83 1.260 . S
C88 O79 1.240 . S
C88 O80 1.252 . S
O89 In78 2.294 . S
O89 C82 1.240 . S
O90 In78 2.326 . S
O90 C82 1.252 . S
In91 O92 2.294 . S
In91 O93 2.326 . S
In91 O97 2.266 . S
In91 O98 2.330 . S
In91 O99 2.266 . S
In91 O100 2.326 . S
In91 O102 2.294 1_565 S
In91 O103 2.326 1_565 S
O92 In91 2.294 . S
O92 C101 1.240 . S
O93 In91 2.326 . S
O93 C101 1.252 . S
C94 O97 1.252 . S
C94 O98 1.284 . S
C95 O102 1.240 . S
C95 O103 1.252 . S
C96 O99 1.252 . S
C96 O100 1.260 . S
O97 In91 2.266 . S
O97 C94 1.252 . S
O98 In91 2.330 . S
O98 C94 1.284 . S
O99 In91 2.266 . S
O99 C96 1.252 . S
O100 In91 2.326 . S
O100 C96 1.260 . S
C101 O92 1.240 . S
C101 O93 1.252 . S
O102 In91 2.294 1_545 S
O102 C95 1.240 . S
O103 In91 2.326 1_545 S
O103 C95 1.252 . S
In104 O105 2.294 . S
In104 O106 2.326 . S
In104 O110 2.266 . S
In104 O111 2.326 . S
In104 O112 2.266 1_455 S
In104 O113 2.326 1_455 S
In104 O115 2.294 . S
In104 O116 2.326 . S
O105 In104 2.294 . S
O105 C114 1.240 . S
O106 In104 2.326 . S
O106 C114 1.252 . S
C107 O110 1.252 . S
C107 O111 1.260 . S
C108 O115 1.240 . S
C108 O116 1.252 . S
C109 O112 1.252 . S
C109 O113 1.260 . S
O110 In104 2.266 . S
O110 C107 1.252 . S
O111 In104 2.326 . S
O111 C107 1.260 . S
O112 In104 2.266 1_655 S
O112 C109 1.252 . S
O113 In104 2.326 1_655 S
O113 C109 1.260 . S
C114 O105 1.240 . S
C114 O106 1.252 . S
O115 In104 2.294 . S
O115 C108 1.240 . S
O116 In104 2.326 . S
O116 C108 1.252 . S
In117 O118 2.294 . S
In117 O119 2.326 . S
In117 O123 2.266 1_565 S
In117 O124 2.326 1_565 S
In117 O125 2.266 . S
In117 O126 2.326 . S
In117 O128 2.294 . S
In117 O129 2.326 . S
O118 In117 2.294 . S
O118 C127 1.240 . S
O119 In117 2.326 . S
O119 C127 1.252 . S
C120 O123 1.252 . S
C120 O124 1.260 . S
C121 O128 1.240 . S
C121 O129 1.252 . S
C122 O125 1.252 . S
C122 O126 1.260 . S
O123 In117 2.266 1_545 S
O123 C120 1.252 . S
O124 In117 2.326 1_545 S
O124 C120 1.260 . S
O125 In117 2.266 . S
O125 C122 1.252 . S
O126 In117 2.326 . S
O126 C122 1.260 . S
C127 O118 1.240 . S
C127 O119 1.252 . S
O128 In117 2.294 . S
O128 C121 1.240 . S
O129 In117 2.326 . S
O129 C121 1.252 . S
In130 O131 2.294 . S
In130 O132 2.326 . S
In130 O136 2.266 1_455 S
In130 O137 2.326 1_455 S
In130 O138 2.266 . S
In130 O139 2.326 . S
In130 O141 2.294 . S
In130 O142 2.326 . S
O131 In130 2.294 . S
O131 C140 1.240 . S
O132 In130 2.326 . S
O132 C140 1.252 . S
C133 O136 1.252 . S
C133 O137 1.260 . S
C134 O141 1.240 . S
C134 O142 1.252 . S
C135 O138 1.252 . S
C135 O139 1.260 . S
O136 In130 2.266 1_655 S
O136 C133 1.252 . S
O137 In130 2.326 1_655 S
O137 C133 1.260 . S
O138 In130 2.266 . S
O138 C135 1.252 . S
O139 In130 2.326 . S
O139 C135 1.260 . S
C140 O131 1.240 . S
C140 O132 1.252 . S
O141 In130 2.294 . S
O141 C134 1.240 . S
O142 In130 2.326 . S
O142 C134 1.252 . S
In143 O144 2.294 . S
In143 O145 2.326 . S
In143 O149 2.266 . S
In143 O150 2.326 . S
In143 O151 2.266 . S
In143 O152 2.326 . S
In143 O154 2.294 . S
In143 O155 2.326 . S
O144 In143 2.294 . S
O144 C153 1.240 . S
O145 In143 2.326 . S
O145 C153 1.252 . S
C146 O149 1.252 . S
C146 O150 1.260 . S
C147 O154 1.240 . S
C147 O155 1.252 . S
C148 O151 1.252 . S
C148 O152 1.260 . S
O149 In143 2.266 . S
O149 C146 1.252 . S
O150 In143 2.326 . S
O150 C146 1.260 . S
O151 In143 2.266 . S
O151 C148 1.252 . S
O152 In143 2.326 . S
O152 C148 1.260 . S
C153 O144 1.240 . S
C153 O145 1.252 . S
O154 In143 2.294 . S
O154 C147 1.240 . S
O155 In143 2.326 . S
O155 C147 1.252 . S
In156 O157 2.294 . S
In156 O158 2.326 . S
In156 O162 2.266 . S
In156 O163 2.326 . S
In156 O164 2.266 1_545 S
In156 O165 2.326 1_545 S
In156 O167 2.294 . S
In156 O168 2.326 . S
O157 In156 2.294 . S
O157 C166 1.240 . S
O158 In156 2.326 . S
O158 C166 1.252 . S
C159 O162 1.252 . S
C159 O163 1.260 . S
C160 O167 1.240 . S
C160 O168 1.252 . S
C161 O164 1.252 . S
C161 O165 1.260 . S
O162 In156 2.266 . S
O162 C159 1.252 . S
O163 In156 2.326 . S
O163 C159 1.260 . S
O164 In156 2.266 1_565 S
O164 C161 1.252 . S
O165 In156 2.326 1_565 S
O165 C161 1.260 . S
C166 O157 1.240 . S
C166 O158 1.252 . S
O167 In156 2.294 . S
O167 C160 1.240 . S
O168 In156 2.326 . S
O168 C160 1.252 . S
In169 O170 2.294 . S
In169 O171 2.326 . S
In169 O175 2.266 . S
In169 O176 2.326 . S
In169 O177 2.266 1_655 S
In169 O178 2.326 1_655 S
In169 O180 2.294 . S
In169 O181 2.326 . S
O170 In169 2.294 . S
O170 C179 1.240 . S
O171 In169 2.326 . S
O171 C179 1.252 . S
C172 O175 1.252 . S
C172 O176 1.260 . S
C173 O180 1.240 . S
C173 O181 1.252 . S
C174 O177 1.252 . S
C174 O178 1.260 . S
O175 In169 2.266 . S
O175 C172 1.252 . S
O176 In169 2.326 . S
O176 C172 1.260 . S
O177 In169 2.266 1_455 S
O177 C174 1.252 . S
O178 In169 2.326 1_455 S
O178 C174 1.260 . S
C179 O170 1.240 . S
C179 O171 1.252 . S
O180 In169 2.294 . S
O180 C173 1.240 . S
O181 In169 2.326 . S
O181 C173 1.252 . S
In182 O183 2.294 . S
In182 O184 2.326 . S
In182 O188 2.266 . S
In182 O189 2.326 . S
In182 O190 2.266 . S
In182 O191 2.326 . S
In182 O193 2.294 . S
In182 O194 2.326 . S
O183 In182 2.294 . S
O183 C192 1.240 . S
O184 In182 2.326 . S
O184 C192 1.252 . S
C185 O188 1.252 . S
C185 O189 1.260 . S
C186 O193 1.240 . S
C186 O194 1.252 . S
C187 O190 1.252 . S
C187 O191 1.260 . S
O188 In182 2.266 . S
O188 C185 1.252 . S
O189 In182 2.326 . S
O189 C185 1.260 . S
O190 In182 2.266 . S
O190 C187 1.252 . S
O191 In182 2.326 . S
O191 C187 1.260 . S
C192 O183 1.240 . S
C192 O184 1.252 . S
O193 In182 2.294 . S
O193 C186 1.240 . S
O194 In182 2.326 . S
O194 C186 1.252 . S
In195 O196 2.294 . S
In195 O197 2.326 . S
In195 O201 2.266 . S
In195 O202 2.326 . S
In195 O203 2.266 . S
In195 O204 2.326 . S
In195 O206 2.294 . S
In195 O207 2.326 . S
O196 In195 2.294 . S
O196 C205 1.240 . S
O197 In195 2.326 . S
O197 C205 1.252 . S
C198 O201 1.252 . S
C198 O202 1.260 . S
C199 O206 1.240 . S
C199 O207 1.252 . S
C200 O203 1.252 . S
C200 O204 1.260 . S
O201 In195 2.266 . S
O201 C198 1.252 . S
O202 In195 2.326 . S
O202 C198 1.260 . S
O203 In195 2.266 . S
O203 C200 1.252 . S
O204 In195 2.326 . S
O204 C200 1.260 . S
C205 O196 1.240 . S
C205 O197 1.252 . S
O206 In195 2.294 . S
O206 C199 1.240 . S
O207 In195 2.326 . S
O207 C199 1.252 . S
In208 O209 2.294 . S
In208 O210 2.326 . S
In208 O214 2.266 . S
In208 O215 2.326 . S
In208 O216 2.266 . S
In208 O217 2.326 . S
In208 O219 2.294 1_545 S
In208 O220 2.326 1_545 S
O209 In208 2.294 . S
O209 C218 1.240 . S
O210 In208 2.326 . S
O210 C218 1.252 . S
C211 O214 1.252 . S
C211 O215 1.260 . S
C212 O219 1.240 . S
C212 O220 1.252 . S
C213 O216 1.252 . S
C213 O217 1.260 . S
O214 In208 2.266 . S
O214 C211 1.252 . S
O215 In208 2.326 . S
O215 C211 1.260 . S
O216 In208 2.266 . S
O216 C213 1.252 . S
O217 In208 2.326 . S
O217 C213 1.260 . S
C218 O209 1.240 . S
C218 O210 1.252 . S
O219 In208 2.294 1_565 S
O219 C212 1.240 . S
O220 In208 2.326 1_565 S
O220 C212 1.252 . S
In221 O222 2.294 . S
In221 O223 2.326 . S
In221 O227 2.266 . S
In221 O228 2.326 . S
In221 O229 2.266 1_655 S
In221 O230 2.326 1_655 S
In221 O232 2.294 . S
In221 O233 2.326 . S
O222 In221 2.294 . S
O222 C231 1.240 . S
O223 In221 2.326 . S
O223 C231 1.252 . S
C224 O227 1.252 . S
C224 O228 1.260 . S
C225 O232 1.240 . S
C225 O233 1.252 . S
C226 O229 1.252 . S
C226 O230 1.260 . S
O227 In221 2.266 . S
O227 C224 1.252 . S
O228 In221 2.326 . S
O228 C224 1.260 . S
O229 In221 2.266 1_455 S
O229 C226 1.252 . S
O230 In221 2.326 1_455 S
O230 C226 1.260 . S
C231 O222 1.240 . S
C231 O223 1.252 . S
O232 In221 2.294 . S
O232 C225 1.240 . S
O233 In221 2.326 . S
O233 C225 1.252 . S
H234 C253 0.949 . S
H235 C254 0.950 . S
H236 C256 0.950 . S
H237 C257 0.950 . S
H238 C259 0.950 . S
H239 C262 0.950 . S
H240 C263 0.950 . S
H241 C265 0.951 . S
H242 C266 0.949 . S
H243 C268 0.949 . S
H244 C269 0.950 . S
H245 C271 0.950 . S
H246 C272 0.950 . S
H247 C274 0.950 . S
H248 C277 0.950 . S
H249 C278 0.950 . S
H250 C280 0.951 . S
H251 C281 0.949 . S
C252 C253 1.376 . S
C252 C257 1.386 . S
C252 C258 1.483 . S
C253 H234 0.949 . S
C253 C252 1.376 . S
C253 C254 1.397 . S
C254 H235 0.950 . S
C254 C253 1.397 . S
C254 C255 1.391 . S
C255 C254 1.391 . S
C255 C256 1.405 . S
C256 H236 0.950 . S
C256 C255 1.405 . S
C256 C257 1.367 . S
C257 H237 0.950 . S
C257 C252 1.386 . S
C257 C256 1.367 . S
C258 C252 1.483 . S
C258 C259 1.382 . S
C258 C260 1.403 . S
C259 H238 0.950 . S
C259 C258 1.382 . S
C259 C275 1.411 . S
C260 C258 1.403 . S
C260 C261 1.489 . S
C260 C274 1.411 . S
C261 C260 1.489 . S
C261 C262 1.383 . S
C261 C266 1.382 . S
C262 H239 0.950 . S
C262 C261 1.383 . S
C262 C263 1.395 . S
C263 H240 0.950 . S
C263 C262 1.395 . S
C263 C264 1.288 . S
C264 C263 1.288 . S
C264 C265 1.392 . S
C265 H241 0.951 . S
C265 C264 1.392 . S
C265 C266 1.392 . S
C266 H242 0.949 . S
C266 C261 1.382 . S
C266 C265 1.392 . S
C267 C268 1.376 . S
C267 C272 1.386 . S
C267 C273 1.483 . S
C268 H243 0.949 . S
C268 C267 1.376 . S
C268 C269 1.397 . S
C269 H244 0.950 . S
C269 C268 1.397 . S
C269 C270 1.391 . S
C270 C269 1.391 . S
C270 C271 1.405 . S
C271 H245 0.950 . S
C271 C270 1.405 . S
C271 C272 1.367 . S
C272 H246 0.950 . S
C272 C267 1.386 . S
C272 C271 1.367 . S
C273 C267 1.483 . S
C273 C274 1.382 . S
C273 C275 1.403 . S
C274 H247 0.950 . S
C274 C260 1.411 . S
C274 C273 1.382 . S
C275 C259 1.411 . S
C275 C273 1.403 . S
C275 C276 1.489 . S
C276 C275 1.489 . S
C276 C277 1.383 . S
C276 C281 1.382 . S
C277 H248 0.950 . S
C277 C276 1.383 . S
C277 C278 1.395 . S
C278 H249 0.950 . S
C278 C277 1.395 . S
C278 C279 1.288 . S
C279 C278 1.288 . S
C279 C280 1.392 . S
C280 H250 0.951 . S
C280 C279 1.392 . S
C280 C281 1.392 . S
C281 H251 0.949 . S
C281 C276 1.382 . S
C281 C280 1.392 . S
H282 C301 0.949 . S
H283 C302 0.950 . S
H284 C304 0.950 . S
H285 C305 0.950 . S
H286 C307 0.950 . S
H287 C310 0.950 . S
H288 C311 0.950 . S
H289 C313 0.951 . S
H290 C314 0.949 . S
H291 C316 0.949 . S
H292 C317 0.950 . S
H293 C319 0.950 . S
H294 C320 0.950 . S
H295 C322 0.950 . S
H296 C325 0.950 . S
H297 C326 0.950 . S
H298 C328 0.951 . S
H299 C329 0.949 . S
C300 C301 1.376 . S
C300 C305 1.386 . S
C300 C306 1.483 . S
C301 H282 0.949 . S
C301 C300 1.376 . S
C301 C302 1.397 . S
C302 H283 0.950 . S
C302 C301 1.397 . S
C302 C303 1.391 . S
C303 C302 1.391 . S
C303 C304 1.405 . S
C304 H284 0.950 . S
C304 C303 1.405 . S
C304 C305 1.367 . S
C305 H285 0.950 . S
C305 C300 1.386 . S
C305 C304 1.367 . S
C306 C300 1.483 . S
C306 C307 1.382 . S
C306 C308 1.403 . S
C307 H286 0.950 . S
C307 C306 1.382 . S
C307 C323 1.411 . S
C308 C306 1.403 . S
C308 C309 1.489 . S
C308 C322 1.411 . S
C309 C308 1.489 . S
C309 C310 1.383 . S
C309 C314 1.382 . S
C310 H287 0.950 . S
C310 C309 1.383 . S
C310 C311 1.395 . S
C311 H288 0.950 . S
C311 C310 1.395 . S
C311 C312 1.288 . S
C312 C311 1.288 . S
C312 C313 1.392 . S
C313 H289 0.951 . S
C313 C312 1.392 . S
C313 C314 1.392 . S
C314 H290 0.949 . S
C314 C309 1.382 . S
C314 C313 1.392 . S
C315 C316 1.376 . S
C315 C320 1.386 . S
C315 C321 1.483 . S
C316 H291 0.949 . S
C316 C315 1.376 . S
C316 C317 1.397 . S
C317 H292 0.950 . S
C317 C316 1.397 . S
C317 C318 1.391 . S
C318 C317 1.391 . S
C318 C319 1.405 . S
C319 H293 0.950 . S
C319 C318 1.405 . S
C319 C320 1.367 . S
C320 H294 0.950 . S
C320 C315 1.386 . S
C320 C319 1.367 . S
C321 C315 1.483 . S
C321 C322 1.382 . S
C321 C323 1.403 . S
C322 H295 0.950 . S
C322 C308 1.411 . S
C322 C321 1.382 . S
C323 C307 1.411 . S
C323 C321 1.403 . S
C323 C324 1.489 . S
C324 C323 1.489 . S
C324 C325 1.383 . S
C324 C329 1.382 . S
C325 H296 0.950 . S
C325 C324 1.383 . S
C325 C326 1.395 . S
C326 H297 0.950 . S
C326 C325 1.395 . S
C326 C327 1.288 . S
C327 C326 1.288 . S
C327 C328 1.392 . S
C328 H298 0.951 . S
C328 C327 1.392 . S
C328 C329 1.392 . S
C329 H299 0.949 . S
C329 C324 1.382 . S
C329 C328 1.392 . S
H330 C349 0.949 . S
H331 C350 0.950 . S
H332 C352 0.950 . S
H333 C353 0.950 . S
H334 C355 0.950 . S
H335 C358 0.950 . S
H336 C359 0.950 . S
H337 C361 0.951 . S
H338 C362 0.949 . S
H339 C364 0.949 . S
H340 C365 0.950 . S
H341 C367 0.950 . S
H342 C368 0.950 . S
H343 C370 0.950 . S
H344 C373 0.950 . S
H345 C374 0.950 . S
H346 C376 0.951 . S
H347 C377 0.949 . S
C348 C349 1.376 . S
C348 C353 1.386 . S
C348 C354 1.483 . S
C349 H330 0.949 . S
C349 C348 1.376 . S
C349 C350 1.397 . S
C350 H331 0.950 . S
C350 C349 1.397 . S
C350 C351 1.391 . S
C351 C350 1.391 . S
C351 C352 1.405 . S
C352 H332 0.950 . S
C352 C351 1.405 . S
C352 C353 1.367 . S
C353 H333 0.950 . S
C353 C348 1.386 . S
C353 C352 1.367 . S
C354 C348 1.483 . S
C354 C355 1.382 . S
C354 C356 1.403 . S
C355 H334 0.950 . S
C355 C354 1.382 . S
C355 C371 1.411 . S
C356 C354 1.403 . S
C356 C357 1.489 . S
C356 C370 1.411 . S
C357 C356 1.489 . S
C357 C358 1.383 . S
C357 C362 1.382 . S
C358 H335 0.950 . S
C358 C357 1.383 . S
C358 C359 1.395 . S
C359 H336 0.950 . S
C359 C358 1.395 . S
C359 C360 1.288 . S
C360 C359 1.288 . S
C360 C361 1.392 . S
C361 H337 0.951 . S
C361 C360 1.392 . S
C361 C362 1.392 . S
C362 H338 0.949 . S
C362 C357 1.382 . S
C362 C361 1.392 . S
C363 C364 1.376 . S
C363 C368 1.386 . S
C363 C369 1.483 . S
C364 H339 0.949 . S
C364 C363 1.376 . S
C364 C365 1.397 . S
C365 H340 0.950 . S
C365 C364 1.397 . S
C365 C366 1.391 . S
C366 C365 1.391 . S
C366 C367 1.405 . S
C367 H341 0.950 . S
C367 C366 1.405 . S
C367 C368 1.367 . S
C368 H342 0.950 . S
C368 C363 1.386 . S
C368 C367 1.367 . S
C369 C363 1.483 . S
C369 C370 1.382 . S
C369 C371 1.403 . S
C370 H343 0.950 . S
C370 C356 1.411 . S
C370 C369 1.382 . S
C371 C355 1.411 . S
C371 C369 1.403 . S
C371 C372 1.489 . S
C372 C371 1.489 . S
C372 C373 1.383 . S
C372 C377 1.382 . S
C373 H344 0.950 . S
C373 C372 1.383 . S
C373 C374 1.395 . S
C374 H345 0.950 . S
C374 C373 1.395 . S
C374 C375 1.288 . S
C375 C374 1.288 . S
C375 C376 1.392 . S
C376 H346 0.951 . S
C376 C375 1.392 . S
C376 C377 1.392 . S
C377 H347 0.949 . S
C377 C372 1.382 . S
C377 C376 1.392 . S
H378 C397 0.949 . S
H379 C398 0.950 . S
H380 C400 0.950 . S
H381 C401 0.950 . S
H382 C403 0.950 . S
H383 C406 0.950 . S
H384 C407 0.950 . S
H385 C409 0.951 . S
H386 C410 0.949 . S
H387 C412 0.949 . S
H388 C413 0.950 . S
H389 C415 0.950 . S
H390 C416 0.950 . S
H391 C418 0.950 . S
H392 C421 0.950 . S
H393 C422 0.950 . S
H394 C424 0.951 . S
H395 C425 0.949 . S
C396 C397 1.376 . S
C396 C401 1.386 . S
C396 C402 1.483 . S
C397 H378 0.949 . S
C397 C396 1.376 . S
C397 C398 1.397 . S
C398 H379 0.950 . S
C398 C397 1.397 . S
C398 C399 1.391 . S
C399 C398 1.391 . S
C399 C400 1.405 . S
C400 H380 0.950 . S
C400 C399 1.405 . S
C400 C401 1.367 . S
C401 H381 0.950 . S
C401 C396 1.386 . S
C401 C400 1.367 . S
C402 C396 1.483 . S
C402 C403 1.382 . S
C402 C404 1.403 . S
C403 H382 0.950 . S
C403 C402 1.382 . S
C403 C419 1.411 . S
C404 C402 1.403 . S
C404 C405 1.489 . S
C404 C418 1.411 . S
C405 C404 1.489 . S
C405 C406 1.383 . S
C405 C410 1.382 . S
C406 H383 0.950 . S
C406 C405 1.383 . S
C406 C407 1.395 . S
C407 H384 0.950 . S
C407 C406 1.395 . S
C407 C408 1.288 . S
C408 C407 1.288 . S
C408 C409 1.392 . S
C409 H385 0.951 . S
C409 C408 1.392 . S
C409 C410 1.392 . S
C410 H386 0.949 . S
C410 C405 1.382 . S
C410 C409 1.392 . S
C411 C412 1.376 . S
C411 C416 1.386 . S
C411 C417 1.483 . S
C412 H387 0.949 . S
C412 C411 1.376 . S
C412 C413 1.397 . S
C413 H388 0.950 . S
C413 C412 1.397 . S
C413 C414 1.391 . S
C414 C413 1.391 . S
C414 C415 1.405 . S
C415 H389 0.950 . S
C415 C414 1.405 . S
C415 C416 1.367 . S
C416 H390 0.950 . S
C416 C411 1.386 . S
C416 C415 1.367 . S
C417 C411 1.483 . S
C417 C418 1.382 . S
C417 C419 1.403 . S
C418 H391 0.950 . S
C418 C404 1.411 . S
C418 C417 1.382 . S
C419 C403 1.411 . S
C419 C417 1.403 . S
C419 C420 1.489 . S
C420 C419 1.489 . S
C420 C421 1.383 . S
C420 C425 1.382 . S
C421 H392 0.950 . S
C421 C420 1.383 . S
C421 C422 1.395 . S
C422 H393 0.950 . S
C422 C421 1.395 . S
C422 C423 1.288 . S
C423 C422 1.288 . S
C423 C424 1.392 . S
C424 H394 0.951 . S
C424 C423 1.392 . S
C424 C425 1.392 . S
C425 H395 0.949 . S
C425 C420 1.382 . S
C425 C424 1.392 . S
H426 C445 0.949 . S
H427 C446 0.950 . S
H428 C448 0.950 . S
H429 C449 0.950 . S
H430 C451 0.950 . S
H431 C454 0.950 . S
H432 C455 0.950 . S
H433 C457 0.951 . S
H434 C458 0.949 . S
H435 C460 0.949 . S
H436 C461 0.950 . S
H437 C463 0.950 . S
H438 C464 0.950 . S
H439 C466 0.950 . S
H440 C469 0.950 . S
H441 C470 0.950 . S
H442 C472 0.951 . S
H443 C473 0.949 . S
C444 C445 1.376 . S
C444 C449 1.386 . S
C444 C450 1.483 . S
C445 H426 0.949 . S
C445 C444 1.376 . S
C445 C446 1.397 . S
C446 H427 0.950 . S
C446 C445 1.397 . S
C446 C447 1.391 . S
C447 C446 1.391 . S
C447 C448 1.405 . S
C448 H428 0.950 . S
C448 C447 1.405 . S
C448 C449 1.367 . S
C449 H429 0.950 . S
C449 C444 1.386 . S
C449 C448 1.367 . S
C450 C444 1.483 . S
C450 C451 1.382 . S
C450 C452 1.403 . S
C451 H430 0.950 . S
C451 C450 1.382 . S
C451 C467 1.411 . S
C452 C450 1.403 . S
C452 C453 1.489 . S
C452 C466 1.411 . S
C453 C452 1.489 . S
C453 C454 1.383 . S
C453 C458 1.382 . S
C454 H431 0.950 . S
C454 C453 1.383 . S
C454 C455 1.395 . S
C455 H432 0.950 . S
C455 C454 1.395 . S
C455 C456 1.288 . S
C456 C455 1.288 . S
C456 C457 1.392 . S
C457 H433 0.951 . S
C457 C456 1.392 . S
C457 C458 1.392 . S
C458 H434 0.949 . S
C458 C453 1.382 . S
C458 C457 1.392 . S
C459 C460 1.376 . S
C459 C464 1.386 . S
C459 C465 1.483 . S
C460 H435 0.949 . S
C460 C459 1.376 . S
C460 C461 1.397 . S
C461 H436 0.950 . S
C461 C460 1.397 . S
C461 C462 1.391 . S
C462 C461 1.391 . S
C462 C463 1.405 . S
C463 H437 0.950 . S
C463 C462 1.405 . S
C463 C464 1.367 . S
C464 H438 0.950 . S
C464 C459 1.386 . S
C464 C463 1.367 . S
C465 C459 1.483 . S
C465 C466 1.382 . S
C465 C467 1.403 . S
C466 H439 0.950 . S
C466 C452 1.411 . S
C466 C465 1.382 . S
C467 C451 1.411 . S
C467 C465 1.403 . S
C467 C468 1.489 . S
C468 C467 1.489 . S
C468 C469 1.383 . S
C468 C473 1.382 . S
C469 H440 0.950 . S
C469 C468 1.383 . S
C469 C470 1.395 . S
C470 H441 0.950 . S
C470 C469 1.395 . S
C470 C471 1.288 . S
C471 C470 1.288 . S
C471 C472 1.392 . S
C472 H442 0.951 . S
C472 C471 1.392 . S
C472 C473 1.392 . S
C473 H443 0.949 . S
C473 C468 1.382 . S
C473 C472 1.392 . S
H474 C493 0.949 . S
H475 C494 0.950 . S
H476 C496 0.950 . S
H477 C497 0.950 . S
H478 C499 0.950 . S
H479 C502 0.950 . S
H480 C503 0.950 . S
H481 C505 0.951 . S
H482 C506 0.949 . S
H483 C508 0.949 . S
H484 C509 0.950 . S
H485 C511 0.950 . S
H486 C512 0.950 . S
H487 C514 0.950 . S
H488 C517 0.950 . S
H489 C518 0.950 . S
H490 C520 0.951 . S
H491 C521 0.949 . S
C492 C493 1.376 . S
C492 C497 1.386 . S
C492 C498 1.483 . S
C493 H474 0.949 . S
C493 C492 1.376 . S
C493 C494 1.397 . S
C494 H475 0.950 . S
C494 C493 1.397 . S
C494 C495 1.391 . S
C495 C494 1.391 . S
C495 C496 1.405 . S
C496 H476 0.950 . S
C496 C495 1.405 . S
C496 C497 1.367 . S
C497 H477 0.950 . S
C497 C492 1.386 . S
C497 C496 1.367 . S
C498 C492 1.483 . S
C498 C499 1.382 . S
C498 C500 1.403 . S
C499 H478 0.950 . S
C499 C498 1.382 . S
C499 C515 1.411 . S
C500 C498 1.403 . S
C500 C501 1.489 . S
C500 C514 1.411 . S
C501 C500 1.489 . S
C501 C502 1.383 . S
C501 C506 1.382 . S
C502 H479 0.950 . S
C502 C501 1.383 . S
C502 C503 1.395 . S
C503 H480 0.950 . S
C503 C502 1.395 . S
C503 C504 1.288 . S
C504 C503 1.288 . S
C504 C505 1.392 . S
C505 H481 0.951 . S
C505 C504 1.392 . S
C505 C506 1.392 . S
C506 H482 0.949 . S
C506 C501 1.382 . S
C506 C505 1.392 . S
C507 C508 1.376 . S
C507 C512 1.386 . S
C507 C513 1.483 . S
C508 H483 0.949 . S
C508 C507 1.376 . S
C508 C509 1.397 . S
C509 H484 0.950 . S
C509 C508 1.397 . S
C509 C510 1.391 . S
C510 C509 1.391 . S
C510 C511 1.405 . S
C511 H485 0.950 . S
C511 C510 1.405 . S
C511 C512 1.367 . S
C512 H486 0.950 . S
C512 C507 1.386 . S
C512 C511 1.367 . S
C513 C507 1.483 . S
C513 C514 1.382 . S
C513 C515 1.403 . S
C514 H487 0.950 . S
C514 C500 1.411 . S
C514 C513 1.382 . S
C515 C499 1.411 . S
C515 C513 1.403 . S
C515 C516 1.489 . S
C516 C515 1.489 . S
C516 C517 1.383 . S
C516 C521 1.382 . S
C517 H488 0.950 . S
C517 C516 1.383 . S
C517 C518 1.395 . S
C518 H489 0.950 . S
C518 C517 1.395 . S
C518 C519 1.288 . S
C519 C518 1.288 . S
C519 C520 1.392 . S
C520 H490 0.951 . S
C520 C519 1.392 . S
C520 C521 1.392 . S
C521 H491 0.949 . S
C521 C516 1.382 . S
C521 C520 1.392 . S
H522 C541 0.949 . S
H523 C542 0.950 . S
H524 C544 0.950 . S
H525 C545 0.950 . S
H526 C547 0.950 . S
H527 C550 0.950 . S
H528 C551 0.950 . S
H529 C553 0.951 . S
H530 C554 0.949 . S
H531 C556 0.949 . S
H532 C557 0.950 . S
H533 C559 0.950 . S
H534 C560 0.950 . S
H535 C562 0.950 . S
H536 C565 0.950 . S
H537 C566 0.950 . S
H538 C568 0.951 . S
H539 C569 0.949 . S
C540 C541 1.376 . S
C540 C545 1.386 . S
C540 C546 1.483 . S
C541 H522 0.949 . S
C541 C540 1.376 . S
C541 C542 1.397 . S
C542 H523 0.950 . S
C542 C541 1.397 . S
C542 C543 1.391 . S
C543 C542 1.391 . S
C543 C544 1.405 . S
C544 H524 0.950 . S
C544 C543 1.405 . S
C544 C545 1.367 . S
C545 H525 0.950 . S
C545 C540 1.386 . S
C545 C544 1.367 . S
C546 C540 1.483 . S
C546 C547 1.382 . S
C546 C548 1.403 . S
C547 H526 0.950 . S
C547 C546 1.382 . S
C547 C563 1.411 . S
C548 C546 1.403 . S
C548 C549 1.489 . S
C548 C562 1.411 . S
C549 C548 1.489 . S
C549 C550 1.383 . S
C549 C554 1.382 . S
C550 H527 0.950 . S
C550 C549 1.383 . S
C550 C551 1.395 . S
C551 H528 0.950 . S
C551 C550 1.395 . S
C551 C552 1.288 . S
C552 C551 1.288 . S
C552 C553 1.392 . S
C553 H529 0.951 . S
C553 C552 1.392 . S
C553 C554 1.392 . S
C554 H530 0.949 . S
C554 C549 1.382 . S
C554 C553 1.392 . S
C555 C556 1.376 . S
C555 C560 1.386 . S
C555 C561 1.483 . S
C556 H531 0.949 . S
C556 C555 1.376 . S
C556 C557 1.397 . S
C557 H532 0.950 . S
C557 C556 1.397 . S
C557 C558 1.391 . S
C558 C557 1.391 . S
C558 C559 1.405 . S
C559 H533 0.950 . S
C559 C558 1.405 . S
C559 C560 1.367 . S
C560 H534 0.950 . S
C560 C555 1.386 . S
C560 C559 1.367 . S
C561 C555 1.483 . S
C561 C562 1.382 . S
C561 C563 1.403 . S
C562 H535 0.950 . S
C562 C548 1.411 . S
C562 C561 1.382 . S
C563 C547 1.411 . S
C563 C561 1.403 . S
C563 C564 1.489 . S
C564 C563 1.489 . S
C564 C565 1.383 . S
C564 C569 1.382 . S
C565 H536 0.950 . S
C565 C564 1.383 . S
C565 C566 1.395 . S
C566 H537 0.950 . S
C566 C565 1.395 . S
C566 C567 1.288 . S
C567 C566 1.288 . S
C567 C568 1.392 . S
C568 H538 0.951 . S
C568 C567 1.392 . S
C568 C569 1.392 . S
C569 H539 0.949 . S
C569 C564 1.382 . S
C569 C568 1.392 . S
H570 C589 0.949 . S
H571 C590 0.950 . S
H572 C592 0.950 . S
H573 C593 0.950 . S
H574 C595 0.950 . S
H575 C598 0.950 . S
H576 C599 0.950 . S
H577 C601 0.951 . S
H578 C602 0.949 . S
H579 C604 0.949 . S
H580 C605 0.950 . S
H581 C607 0.950 . S
H582 C608 0.950 . S
H583 C610 0.950 . S
H584 C613 0.950 . S
H585 C614 0.950 . S
H586 C616 0.951 . S
H587 C617 0.949 . S
C588 C589 1.376 . S
C588 C593 1.386 . S
C588 C594 1.483 . S
C589 H570 0.949 . S
C589 C588 1.376 . S
C589 C590 1.397 . S
C590 H571 0.950 . S
C590 C589 1.397 . S
C590 C591 1.391 . S
C591 C590 1.391 . S
C591 C592 1.405 . S
C592 H572 0.950 . S
C592 C591 1.405 . S
C592 C593 1.367 . S
C593 H573 0.950 . S
C593 C588 1.386 . S
C593 C592 1.367 . S
C594 C588 1.483 . S
C594 C595 1.382 . S
C594 C596 1.403 . S
C595 H574 0.950 . S
C595 C594 1.382 . S
C595 C611 1.411 . S
C596 C594 1.403 . S
C596 C597 1.489 . S
C596 C610 1.411 . S
C597 C596 1.489 . S
C597 C598 1.383 . S
C597 C602 1.382 . S
C598 H575 0.950 . S
C598 C597 1.383 . S
C598 C599 1.395 . S
C599 H576 0.950 . S
C599 C598 1.395 . S
C599 C600 1.288 . S
C600 C599 1.288 . S
C600 C601 1.392 . S
C601 H577 0.951 . S
C601 C600 1.392 . S
C601 C602 1.392 . S
C602 H578 0.949 . S
C602 C597 1.382 . S
C602 C601 1.392 . S
C603 C604 1.376 . S
C603 C608 1.386 . S
C603 C609 1.483 . S
C604 H579 0.949 . S
C604 C603 1.376 . S
C604 C605 1.397 . S
C605 H580 0.950 . S
C605 C604 1.397 . S
C605 C606 1.391 . S
C606 C605 1.391 . S
C606 C607 1.405 . S
C607 H581 0.950 . S
C607 C606 1.405 . S
C607 C608 1.367 . S
C608 H582 0.950 . S
C608 C603 1.386 . S
C608 C607 1.367 . S
C609 C603 1.483 . S
C609 C610 1.382 . S
C609 C611 1.403 . S
C610 H583 0.950 . S
C610 C596 1.411 . S
C610 C609 1.382 . S
C611 C595 1.411 . S
C611 C609 1.403 . S
C611 C612 1.489 . S
C612 C611 1.489 . S
C612 C613 1.383 . S
C612 C617 1.382 . S
C613 H584 0.950 . S
C613 C612 1.383 . S
C613 C614 1.395 . S
C614 H585 0.950 . S
C614 C613 1.395 . S
C614 C615 1.288 . S
C615 C614 1.288 . S
C615 C616 1.392 . S
C616 H586 0.951 . S
C616 C615 1.392 . S
C616 C617 1.392 . S
C617 H587 0.949 . S
C617 C612 1.382 . S
C617 C616 1.392 . S
H618 C637 0.949 . S
H619 C638 0.950 . S
H620 C640 0.950 . S
H621 C641 0.950 . S
H622 C643 0.950 . S
H623 C646 0.950 . S
H624 C647 0.950 . S
H625 C649 0.951 . S
H626 C650 0.949 . S
H627 C652 0.949 . S
H628 C653 0.950 . S
H629 C655 0.950 . S
H630 C656 0.950 . S
H631 C658 0.950 . S
H632 C661 0.950 . S
H633 C662 0.950 . S
H634 C664 0.951 . S
H635 C665 0.949 . S
C636 C637 1.376 . S
C636 C641 1.386 . S
C636 C642 1.483 . S
C637 H618 0.949 . S
C637 C636 1.376 . S
C637 C638 1.397 . S
C638 H619 0.950 . S
C638 C637 1.397 . S
C638 C639 1.391 . S
C639 C638 1.391 . S
C639 C640 1.405 . S
C640 H620 0.950 . S
C640 C639 1.405 . S
C640 C641 1.367 . S
C641 H621 0.950 . S
C641 C636 1.386 . S
C641 C640 1.367 . S
C642 C636 1.483 . S
C642 C643 1.382 . S
C642 C644 1.403 . S
C643 H622 0.950 . S
C643 C642 1.382 . S
C643 C659 1.411 . S
C644 C642 1.403 . S
C644 C645 1.489 . S
C644 C658 1.411 . S
C645 C644 1.489 . S
C645 C646 1.383 . S
C645 C650 1.382 . S
C646 H623 0.950 . S
C646 C645 1.383 . S
C646 C647 1.395 . S
C647 H624 0.950 . S
C647 C646 1.395 . S
C647 C648 1.288 . S
C648 C647 1.288 . S
C648 C649 1.392 . S
C649 H625 0.951 . S
C649 C648 1.392 . S
C649 C650 1.392 . S
C650 H626 0.949 . S
C650 C645 1.382 . S
C650 C649 1.392 . S
C651 C652 1.376 . S
C651 C656 1.386 . S
C651 C657 1.483 . S
C652 H627 0.949 . S
C652 C651 1.376 . S
C652 C653 1.397 . S
C653 H628 0.950 . S
C653 C652 1.397 . S
C653 C654 1.391 . S
C654 C653 1.391 . S
C654 C655 1.405 . S
C655 H629 0.950 . S
C655 C654 1.405 . S
C655 C656 1.367 . S
C656 H630 0.950 . S
C656 C651 1.386 . S
C656 C655 1.367 . S
C657 C651 1.483 . S
C657 C658 1.382 . S
C657 C659 1.403 . S
C658 H631 0.950 . S
C658 C644 1.411 . S
C658 C657 1.382 . S
C659 C643 1.411 . S
C659 C657 1.403 . S
C659 C660 1.489 . S
C660 C659 1.489 . S
C660 C661 1.383 . S
C660 C665 1.382 . S
C661 H632 0.950 . S
C661 C660 1.383 . S
C661 C662 1.395 . S
C662 H633 0.950 . S
C662 C661 1.395 . S
C662 C663 1.288 . S
C663 C662 1.288 . S
C663 C664 1.392 . S
C664 H634 0.951 . S
C664 C663 1.392 . S
C664 C665 1.392 . S
C665 H635 0.949 . S
C665 C660 1.382 . S
C665 C664 1.392 . S
H666 C685 0.949 . S
H667 C686 0.950 . S
H668 C688 0.950 . S
H669 C689 0.950 . S
H670 C691 0.950 . S
H671 C694 0.950 . S
H672 C695 0.950 . S
H673 C697 0.951 . S
H674 C698 0.949 . S
H675 C700 0.949 . S
H676 C701 0.950 . S
H677 C703 0.950 . S
H678 C704 0.950 . S
H679 C706 0.950 . S
H680 C709 0.950 . S
H681 C710 0.950 . S
H682 C712 0.951 . S
H683 C713 0.949 . S
C684 C685 1.376 . S
C684 C689 1.386 1_655 S
C684 C690 1.483 . S
C685 H666 0.949 . S
C685 C684 1.376 . S
C685 C686 1.397 . S
C686 H667 0.950 . S
C686 C685 1.397 . S
C686 C687 1.391 . S
C687 C686 1.391 . S
C687 C688 1.405 1_655 S
C688 H668 0.950 . S
C688 C687 1.405 1_455 S
C688 C689 1.367 . S
C689 H669 0.950 . S
C689 C684 1.386 1_455 S
C689 C688 1.367 . S
C690 C684 1.483 . S
C690 C691 1.382 . S
C690 C692 1.403 1_655 S
C691 H670 0.950 . S
C691 C690 1.382 . S
C691 C707 1.411 . S
C692 C690 1.403 1_455 S
C692 C693 1.489 . S
C692 C706 1.411 . S
C693 C692 1.489 . S
C693 C694 1.383 1_455 S
C693 C698 1.382 . S
C694 H671 0.950 . S
C694 C693 1.383 1_655 S
C694 C695 1.395 . S
C695 H672 0.950 . S
C695 C694 1.395 . S
C695 C696 1.288 1_655 S
C696 C695 1.288 1_455 S
C696 C697 1.392 . S
C697 H673 0.951 . S
C697 C696 1.392 . S
C697 C698 1.392 . S
C698 H674 0.949 . S
C698 C693 1.382 . S
C698 C697 1.392 . S
C699 C700 1.376 . S
C699 C704 1.386 1_455 S
C699 C705 1.483 . S
C700 H675 0.949 . S
C700 C699 1.376 . S
C700 C701 1.397 . S
C701 H676 0.950 . S
C701 C700 1.397 . S
C701 C702 1.391 . S
C702 C701 1.391 . S
C702 C703 1.405 1_455 S
C703 H677 0.950 . S
C703 C702 1.405 1_655 S
C703 C704 1.367 . S
C704 H678 0.950 . S
C704 C699 1.386 1_655 S
C704 C703 1.367 . S
C705 C699 1.483 . S
C705 C706 1.382 . S
C705 C707 1.403 1_455 S
C706 H679 0.950 . S
C706 C692 1.411 . S
C706 C705 1.382 . S
C707 C691 1.411 . S
C707 C705 1.403 1_655 S
C707 C708 1.489 . S
C708 C707 1.489 . S
C708 C709 1.383 1_655 S
C708 C713 1.382 . S
C709 H680 0.950 . S
C709 C708 1.383 1_455 S
C709 C710 1.395 . S
C710 H681 0.950 . S
C710 C709 1.395 . S
C710 C711 1.288 1_455 S
C711 C710 1.288 1_655 S
C711 C712 1.392 . S
C712 H682 0.951 . S
C712 C711 1.392 . S
C712 C713 1.392 . S
C713 H683 0.949 . S
C713 C708 1.382 . S
C713 C712 1.392 . S
H714 C733 0.949 . S
H715 C734 0.950 . S
H716 C736 0.950 . S
H717 C737 0.950 . S
H718 C739 0.950 . S
H719 C742 0.950 . S
H720 C743 0.950 . S
H721 C745 0.951 . S
H722 C746 0.949 . S
H723 C748 0.949 . S
H724 C749 0.950 . S
H725 C751 0.950 . S
H726 C752 0.950 . S
H727 C754 0.950 . S
H728 C757 0.950 . S
H729 C758 0.950 . S
H730 C760 0.951 . S
H731 C761 0.949 . S
C732 C733 1.376 . S
C732 C737 1.386 . S
C732 C738 1.483 . S
C733 H714 0.949 . S
C733 C732 1.376 . S
C733 C734 1.397 . S
C734 H715 0.950 . S
C734 C733 1.397 . S
C734 C735 1.391 . S
C735 C734 1.391 . S
C735 C736 1.405 . S
C736 H716 0.950 . S
C736 C735 1.405 . S
C736 C737 1.367 . S
C737 H717 0.950 . S
C737 C732 1.386 . S
C737 C736 1.367 . S
C738 C732 1.483 . S
C738 C739 1.382 . S
C738 C740 1.403 . S
C739 H718 0.950 . S
C739 C738 1.382 . S
C739 C755 1.411 . S
C740 C738 1.403 . S
C740 C741 1.489 . S
C740 C754 1.411 . S
C741 C740 1.489 . S
C741 C742 1.383 . S
C741 C746 1.382 . S
C742 H719 0.950 . S
C742 C741 1.383 . S
C742 C743 1.395 . S
C743 H720 0.950 . S
C743 C742 1.395 . S
C743 C744 1.288 . S
C744 C743 1.288 . S
C744 C745 1.392 . S
C745 H721 0.951 . S
C745 C744 1.392 . S
C745 C746 1.392 . S
C746 H722 0.949 . S
C746 C741 1.382 . S
C746 C745 1.392 . S
C747 C748 1.376 . S
C747 C752 1.386 . S
C747 C753 1.483 . S
C748 H723 0.949 . S
C748 C747 1.376 . S
C748 C749 1.397 . S
C749 H724 0.950 . S
C749 C748 1.397 . S
C749 C750 1.391 . S
C750 C749 1.391 . S
C750 C751 1.405 . S
C751 H725 0.950 . S
C751 C750 1.405 . S
C751 C752 1.367 . S
C752 H726 0.950 . S
C752 C747 1.386 . S
C752 C751 1.367 . S
C753 C747 1.483 . S
C753 C754 1.382 . S
C753 C755 1.403 . S
C754 H727 0.950 . S
C754 C740 1.411 . S
C754 C753 1.382 . S
C755 C739 1.411 . S
C755 C753 1.403 . S
C755 C756 1.489 . S
C756 C755 1.489 . S
C756 C757 1.383 . S
C756 C761 1.382 . S
C757 H728 0.950 . S
C757 C756 1.383 . S
C757 C758 1.395 . S
C758 H729 0.950 . S
C758 C757 1.395 . S
C758 C759 1.288 . S
C759 C758 1.288 . S
C759 C760 1.392 . S
C760 H730 0.951 . S
C760 C759 1.392 . S
C760 C761 1.392 . S
C761 H731 0.949 . S
C761 C756 1.382 . S
C761 C760 1.392 . S
H762 C781 0.949 . S
H763 C782 0.950 . S
H764 C784 0.950 . S
H765 C785 0.950 . S
H766 C787 0.950 . S
H767 C790 0.950 . S
H768 C791 0.950 . S
H769 C793 0.951 . S
H770 C794 0.949 . S
H771 C796 0.949 . S
H772 C797 0.950 . S
H773 C799 0.950 . S
H774 C800 0.950 . S
H775 C802 0.950 . S
H776 C805 0.950 . S
H777 C806 0.950 . S
H778 C808 0.951 . S
H779 C809 0.949 . S
C780 C781 1.376 . S
C780 C785 1.386 1_545 S
C780 C786 1.483 . S
C781 H762 0.949 . S
C781 C780 1.376 . S
C781 C782 1.397 . S
C782 H763 0.950 . S
C782 C781 1.397 . S
C782 C783 1.391 . S
C783 C782 1.391 . S
C783 C784 1.405 1_545 S
C784 H764 0.950 . S
C784 C783 1.405 1_565 S
C784 C785 1.367 . S
C785 H765 0.950 . S
C785 C780 1.386 1_565 S
C785 C784 1.367 . S
C786 C780 1.483 . S
C786 C787 1.382 . S
C786 C788 1.403 1_545 S
C787 H766 0.950 . S
C787 C786 1.382 . S
C787 C803 1.411 . S
C788 C786 1.403 1_565 S
C788 C789 1.489 . S
C788 C802 1.411 . S
C789 C788 1.489 . S
C789 C790 1.383 1_565 S
C789 C794 1.382 . S
C790 H767 0.950 . S
C790 C789 1.383 1_545 S
C790 C791 1.395 . S
C791 H768 0.950 . S
C791 C790 1.395 . S
C791 C792 1.288 1_545 S
C792 C791 1.288 1_565 S
C792 C793 1.392 . S
C793 H769 0.951 . S
C793 C792 1.392 . S
C793 C794 1.392 . S
C794 H770 0.949 . S
C794 C789 1.382 . S
C794 C793 1.392 . S
C795 C796 1.376 . S
C795 C800 1.386 1_565 S
C795 C801 1.483 . S
C796 H771 0.949 . S
C796 C795 1.376 . S
C796 C797 1.397 . S
C797 H772 0.950 . S
C797 C796 1.397 . S
C797 C798 1.391 . S
C798 C797 1.391 . S
C798 C799 1.405 1_565 S
C799 H773 0.950 . S
C799 C798 1.405 1_545 S
C799 C800 1.367 . S
C800 H774 0.950 . S
C800 C795 1.386 1_545 S
C800 C799 1.367 . S
C801 C795 1.483 . S
C801 C802 1.382 . S
C801 C803 1.403 1_565 S
C802 H775 0.950 . S
C802 C788 1.411 . S
C802 C801 1.382 . S
C803 C787 1.411 . S
C803 C801 1.403 1_545 S
C803 C804 1.489 . S
C804 C803 1.489 . S
C804 C805 1.383 1_545 S
C804 C809 1.382 . S
C805 H776 0.950 . S
C805 C804 1.383 1_565 S
C805 C806 1.395 . S
C806 H777 0.950 . S
C806 C805 1.395 . S
C806 C807 1.288 1_565 S
C807 C806 1.288 1_545 S
C807 C808 1.392 . S
C808 H778 0.951 . S
C808 C807 1.392 . S
C808 C809 1.392 . S
C809 H779 0.949 . S
C809 C804 1.382 . S
C809 C808 1.392 . S
H810 C829 0.949 . S
H811 C830 0.950 . S
H812 C832 0.950 . S
H813 C833 0.950 . S
H814 C835 0.950 . S
H815 C838 0.950 . S
H816 C839 0.950 . S
H817 C841 0.951 . S
H818 C842 0.949 . S
H819 C844 0.949 . S
H820 C845 0.950 . S
H821 C847 0.950 . S
H822 C848 0.950 . S
H823 C850 0.950 . S
H824 C853 0.950 . S
H825 C854 0.950 . S
H826 C856 0.951 . S
H827 C857 0.949 . S
C828 C829 1.383 . S
C828 C833 1.383 1_545 S
C828 C834 1.505 . S
C829 H810 0.949 . S
C829 C828 1.383 . S
C829 C830 1.397 . S
C830 H811 0.950 . S
C830 C829 1.397 . S
C830 C831 1.391 1_545 S
C831 C830 1.391 1_565 S
C831 C832 1.405 . S
C832 H812 0.950 . S
C832 C831 1.405 . S
C832 C833 1.367 . S
C833 H813 0.950 . S
C833 C828 1.383 1_565 S
C833 C832 1.367 . S
C834 C828 1.505 . S
C834 C835 1.359 . S
C834 C836 1.398 1_545 S
C835 H814 0.950 . S
C835 C834 1.359 . S
C835 C851 1.411 . S
C836 C834 1.398 1_565 S
C836 C837 1.484 . S
C836 C850 1.437 . S
C837 C836 1.484 . S
C837 C838 1.345 1_565 S
C837 C842 1.403 . S
C838 H815 0.950 . S
C838 C837 1.345 1_545 S
C838 C839 1.395 . S
C839 H816 0.950 . S
C839 C838 1.395 . S
C839 C840 1.288 . S
C840 C839 1.288 . S
C840 C841 1.392 1_545 S
C841 H817 0.951 . S
C841 C840 1.392 1_565 S
C841 C842 1.392 . S
C842 H818 0.949 . S
C842 C837 1.403 . S
C842 C841 1.392 . S
C843 C844 1.372 . S
C843 C848 1.388 1_565 S
C843 C849 1.505 . S
C844 H819 0.949 . S
C844 C843 1.372 . S
C844 C845 1.397 . S
C845 H820 0.950 . S
C845 C844 1.397 . S
C845 C846 1.391 1_565 S
C846 C845 1.391 1_545 S
C846 C847 1.405 . S
C847 H821 0.950 . S
C847 C846 1.405 . S
C847 C848 1.367 . S
C848 H822 0.950 . S
C848 C843 1.388 1_545 S
C848 C847 1.367 . S
C849 C843 1.505 . S
C849 C850 1.363 . S
C849 C851 1.400 1_565 S
C850 H823 0.950 . S
C850 C836 1.437 . S
C850 C849 1.363 . S
C851 C835 1.411 . S
C851 C849 1.400 1_545 S
C851 C852 1.512 . S
C852 C851 1.512 . S
C852 C853 1.331 1_545 S
C852 C857 1.410 . S
C853 H824 0.950 . S
C853 C852 1.331 1_565 S
C853 C854 1.395 . S
C854 H825 0.950 . S
C854 C853 1.395 . S
C854 C855 1.288 . S
C855 C854 1.288 . S
C855 C856 1.392 1_565 S
C856 H826 0.951 . S
C856 C855 1.392 1_545 S
C856 C857 1.392 . S
C857 H827 0.949 . S
C857 C852 1.410 . S
C857 C856 1.392 . S
H858 C877 0.949 . S
H859 C878 0.950 . S
H860 C880 0.950 . S
H861 C881 0.950 . S
H862 C883 0.950 . S
H863 C886 0.950 . S
H864 C887 0.950 . S
H865 C889 0.951 . S
H866 C890 0.949 . S
H867 C892 0.949 . S
H868 C893 0.950 . S
H869 C895 0.950 . S
H870 C896 0.950 . S
H871 C898 0.950 . S
H872 C901 0.950 . S
H873 C902 0.950 . S
H874 C904 0.951 . S
H875 C905 0.949 . S
C876 C877 1.376 . S
C876 C881 1.386 1_455 S
C876 C882 1.483 . S
C877 H858 0.949 . S
C877 C876 1.376 . S
C877 C878 1.397 . S
C878 H859 0.950 . S
C878 C877 1.397 . S
C878 C879 1.391 . S
C879 C878 1.391 . S
C879 C880 1.405 1_455 S
C880 H860 0.950 . S
C880 C879 1.405 1_655 S
C880 C881 1.367 . S
C881 H861 0.950 . S
C881 C876 1.386 1_655 S
C881 C880 1.367 . S
C882 C876 1.483 . S
C882 C883 1.382 . S
C882 C884 1.403 1_455 S
C883 H862 0.950 . S
C883 C882 1.382 . S
C883 C899 1.411 . S
C884 C882 1.403 1_655 S
C884 C885 1.489 . S
C884 C898 1.411 . S
C885 C884 1.489 . S
C885 C886 1.383 1_655 S
C885 C890 1.382 . S
C886 H863 0.950 . S
C886 C885 1.383 1_455 S
C886 C887 1.395 . S
C887 H864 0.950 . S
C887 C886 1.395 . S
C887 C888 1.288 1_455 S
C888 C887 1.288 1_655 S
C888 C889 1.392 . S
C889 H865 0.951 . S
C889 C888 1.392 . S
C889 C890 1.392 . S
C890 H866 0.949 . S
C890 C885 1.382 . S
C890 C889 1.392 . S
C891 C892 1.376 . S
C891 C896 1.386 1_655 S
C891 C897 1.483 . S
C892 H867 0.949 . S
C892 C891 1.376 . S
C892 C893 1.397 . S
C893 H868 0.950 . S
C893 C892 1.397 . S
C893 C894 1.391 . S
C894 C893 1.391 . S
C894 C895 1.405 1_655 S
C895 H869 0.950 . S
C895 C894 1.405 1_455 S
C895 C896 1.367 . S
C896 H870 0.950 . S
C896 C891 1.386 1_455 S
C896 C895 1.367 . S
C897 C891 1.483 . S
C897 C898 1.382 . S
C897 C899 1.403 1_655 S
C898 H871 0.950 . S
C898 C884 1.411 . S
C898 C897 1.382 . S
C899 C883 1.411 . S
C899 C897 1.403 1_455 S
C899 C900 1.489 . S
C900 C899 1.489 . S
C900 C901 1.383 1_455 S
C900 C905 1.382 . S
C901 H872 0.950 . S
C901 C900 1.383 1_655 S
C901 C902 1.395 . S
C902 H873 0.950 . S
C902 C901 1.395 . S
C902 C903 1.288 1_655 S
C903 C902 1.288 1_455 S
C903 C904 1.392 . S
C904 H874 0.951 . S
C904 C903 1.392 . S
C904 C905 1.392 . S
C905 H875 0.949 . S
C905 C900 1.382 . S
C905 C904 1.392 . S
H906 C925 0.949 . S
H907 C926 0.950 . S
H908 C928 0.950 . S
H909 C929 0.950 . S
H910 C931 0.950 . S
H911 C934 0.950 . S
H912 C935 0.950 . S
H913 C937 0.951 . S
H914 C938 0.949 . S
H915 C940 0.949 . S
H916 C941 0.950 . S
H917 C943 0.950 . S
H918 C944 0.950 . S
H919 C946 0.950 . S
H920 C949 0.950 . S
H921 C950 0.950 . S
H922 C952 0.951 . S
H923 C953 0.949 . S
C924 C925 1.376 . S
C924 C929 1.386 . S
C924 C930 1.483 . S
C925 H906 0.949 . S
C925 C924 1.376 . S
C925 C926 1.397 . S
C926 H907 0.950 . S
C926 C925 1.397 . S
C926 C927 1.391 . S
C927 C926 1.391 . S
C927 C928 1.405 . S
C928 H908 0.950 . S
C928 C927 1.405 . S
C928 C929 1.367 . S
C929 H909 0.950 . S
C929 C924 1.386 . S
C929 C928 1.367 . S
C930 C924 1.483 . S
C930 C931 1.382 . S
C930 C932 1.403 . S
C931 H910 0.950 . S
C931 C930 1.382 . S
C931 C947 1.411 . S
C932 C930 1.403 . S
C932 C933 1.489 . S
C932 C946 1.411 . S
C933 C932 1.489 . S
C933 C934 1.383 . S
C933 C938 1.382 . S
C934 H911 0.950 . S
C934 C933 1.383 . S
C934 C935 1.395 . S
C935 H912 0.950 . S
C935 C934 1.395 . S
C935 C936 1.288 . S
C936 C935 1.288 . S
C936 C937 1.392 . S
C937 H913 0.951 . S
C937 C936 1.392 . S
C937 C938 1.392 . S
C938 H914 0.949 . S
C938 C933 1.382 . S
C938 C937 1.392 . S
C939 C940 1.376 . S
C939 C944 1.386 . S
C939 C945 1.483 . S
C940 H915 0.949 . S
C940 C939 1.376 . S
C940 C941 1.397 . S
C941 H916 0.950 . S
C941 C940 1.397 . S
C941 C942 1.391 . S
C942 C941 1.391 . S
C942 C943 1.405 . S
C943 H917 0.950 . S
C943 C942 1.405 . S
C943 C944 1.367 . S
C944 H918 0.950 . S
C944 C939 1.386 . S
C944 C943 1.367 . S
C945 C939 1.483 . S
C945 C946 1.382 . S
C945 C947 1.403 . S
C946 H919 0.950 . S
C946 C932 1.411 . S
C946 C945 1.382 . S
C947 C931 1.411 . S
C947 C945 1.403 . S
C947 C948 1.489 . S
C948 C947 1.489 . S
C948 C949 1.383 . S
C948 C953 1.382 . S
C949 H920 0.950 . S
C949 C948 1.383 . S
C949 C950 1.395 . S
C950 H921 0.950 . S
C950 C949 1.395 . S
C950 C951 1.288 . S
C951 C950 1.288 . S
C951 C952 1.392 . S
C952 H922 0.951 . S
C952 C951 1.392 . S
C952 C953 1.392 . S
C953 H923 0.949 . S
C953 C948 1.382 . S
C953 C952 1.392 . S
H954 C973 0.949 . S
H955 C974 0.950 . S
H956 C976 0.950 . S
H957 C977 0.950 . S
H958 C979 0.950 . S
H959 C982 0.950 . S
H960 C983 0.950 . S
H961 C985 0.951 . S
H962 C986 0.949 . S
H963 C988 0.949 . S
H964 C989 0.950 . S
H965 C991 0.950 . S
H966 C992 0.950 . S
H967 C994 0.950 . S
H968 C997 0.950 . S
H969 C998 0.950 . S
H970 C1000 0.951 . S
H971 C1001 0.949 . S
C972 C973 1.376 . S
C972 C977 1.386 . S
C972 C978 1.483 . S
C973 H954 0.949 . S
C973 C972 1.376 . S
C973 C974 1.397 . S
C974 H955 0.950 . S
C974 C973 1.397 . S
C974 C975 1.391 . S
C975 C974 1.391 . S
C975 C976 1.405 . S
C976 H956 0.950 . S
C976 C975 1.405 . S
C976 C977 1.367 . S
C977 H957 0.950 . S
C977 C972 1.386 . S
C977 C976 1.367 . S
C978 C972 1.483 . S
C978 C979 1.382 . S
C978 C980 1.403 . S
C979 H958 0.950 . S
C979 C978 1.382 . S
C979 C995 1.411 . S
C980 C978 1.403 . S
C980 C981 1.489 . S
C980 C994 1.411 . S
C981 C980 1.489 . S
C981 C982 1.383 . S
C981 C986 1.382 . S
C982 H959 0.950 . S
C982 C981 1.383 . S
C982 C983 1.395 . S
C983 H960 0.950 . S
C983 C982 1.395 . S
C983 C984 1.288 . S
C984 C983 1.288 . S
C984 C985 1.392 . S
C985 H961 0.951 . S
C985 C984 1.392 . S
C985 C986 1.392 . S
C986 H962 0.949 . S
C986 C981 1.382 . S
C986 C985 1.392 . S
C987 C988 1.376 . S
C987 C992 1.386 . S
C987 C993 1.483 . S
C988 H963 0.949 . S
C988 C987 1.376 . S
C988 C989 1.397 . S
C989 H964 0.950 . S
C989 C988 1.397 . S
C989 C990 1.391 . S
C990 C989 1.391 . S
C990 C991 1.405 . S
C991 H965 0.950 . S
C991 C990 1.405 . S
C991 C992 1.367 . S
C992 H966 0.950 . S
C992 C987 1.386 . S
C992 C991 1.367 . S
C993 C987 1.483 . S
C993 C994 1.382 . S
C993 C995 1.403 . S
C994 H967 0.950 . S
C994 C980 1.411 . S
C994 C993 1.382 . S
C995 C979 1.411 . S
C995 C993 1.403 . S
C995 C996 1.489 . S
C996 C995 1.489 . S
C996 C997 1.383 . S
C996 C1001 1.382 . S
C997 H968 0.950 . S
C997 C996 1.383 . S
C997 C998 1.395 . S
C998 H969 0.950 . S
C998 C997 1.395 . S
C998 C999 1.288 . S
C999 C998 1.288 . S
C999 C1000 1.392 . S
C1000 H970 0.951 . S
C1000 C999 1.392 . S
C1000 C1001 1.392 . S
C1001 H971 0.949 . S
C1001 C996 1.382 . S
C1001 C1000 1.392 . S
H1002 C1021 0.949 . S
H1003 C1022 0.950 . S
H1004 C1024 0.950 . S
H1005 C1025 0.950 . S
H1006 C1027 0.950 . S
H1007 C1030 0.950 . S
H1008 C1031 0.950 . S
H1009 C1033 0.951 . S
H1010 C1034 0.949 . S
H1011 C1036 0.949 . S
H1012 C1037 0.950 . S
H1013 C1039 0.950 . S
H1014 C1040 0.950 . S
H1015 C1042 0.950 . S
H1016 C1045 0.950 . S
H1017 C1046 0.950 . S
H1018 C1048 0.951 . S
H1019 C1049 0.949 . S
C1020 C1021 1.376 . S
C1020 C1025 1.386 . S
C1020 C1026 1.483 . S
C1021 H1002 0.949 . S
C1021 C1020 1.376 . S
C1021 C1022 1.397 . S
C1022 H1003 0.950 . S
C1022 C1021 1.397 . S
C1022 C1023 1.391 . S
C1023 C1022 1.391 . S
C1023 C1024 1.405 . S
C1024 H1004 0.950 . S
C1024 C1023 1.405 . S
C1024 C1025 1.367 . S
C1025 H1005 0.950 . S
C1025 C1020 1.386 . S
C1025 C1024 1.367 . S
C1026 C1020 1.483 . S
C1026 C1027 1.382 . S
C1026 C1028 1.403 . S
C1027 H1006 0.950 . S
C1027 C1026 1.382 . S
C1027 C1043 1.411 . S
C1028 C1026 1.403 . S
C1028 C1029 1.489 . S
C1028 C1042 1.411 . S
C1029 C1028 1.489 . S
C1029 C1030 1.383 . S
C1029 C1034 1.382 . S
C1030 H1007 0.950 . S
C1030 C1029 1.383 . S
C1030 C1031 1.395 . S
C1031 H1008 0.950 . S
C1031 C1030 1.395 . S
C1031 C1032 1.288 . S
C1032 C1031 1.288 . S
C1032 C1033 1.392 . S
C1033 H1009 0.951 . S
C1033 C1032 1.392 . S
C1033 C1034 1.392 . S
C1034 H1010 0.949 . S
C1034 C1029 1.382 . S
C1034 C1033 1.392 . S
C1035 C1036 1.376 . S
C1035 C1040 1.386 . S
C1035 C1041 1.483 . S
C1036 H1011 0.949 . S
C1036 C1035 1.376 . S
C1036 C1037 1.397 . S
C1037 H1012 0.950 . S
C1037 C1036 1.397 . S
C1037 C1038 1.391 . S
C1038 C1037 1.391 . S
C1038 C1039 1.405 . S
C1039 H1013 0.950 . S
C1039 C1038 1.405 . S
C1039 C1040 1.367 . S
C1040 H1014 0.950 . S
C1040 C1035 1.386 . S
C1040 C1039 1.367 . S
C1041 C1035 1.483 . S
C1041 C1042 1.382 . S
C1041 C1043 1.403 . S
C1042 H1015 0.950 . S
C1042 C1028 1.411 . S
C1042 C1041 1.382 . S
C1043 C1027 1.411 . S
C1043 C1041 1.403 . S
C1043 C1044 1.489 . S
C1044 C1043 1.489 . S
C1044 C1045 1.383 . S
C1044 C1049 1.382 . S
C1045 H1016 0.950 . S
C1045 C1044 1.383 . S
C1045 C1046 1.395 . S
C1046 H1017 0.950 . S
C1046 C1045 1.395 . S
C1046 C1047 1.288 . S
C1047 C1046 1.288 . S
C1047 C1048 1.392 . S
C1048 H1018 0.951 . S
C1048 C1047 1.392 . S
C1048 C1049 1.392 . S
C1049 H1019 0.949 . S
C1049 C1044 1.382 . S
C1049 C1048 1.392 . S
H1050 C1069 0.949 . S
H1051 C1070 0.950 . S
H1052 C1072 0.950 . S
H1053 C1073 0.950 . S
H1054 C1075 0.950 . S
H1055 C1078 0.950 . S
H1056 C1079 0.950 . S
H1057 C1081 0.951 . S
H1058 C1082 0.949 . S
H1059 C1084 0.949 . S
H1060 C1085 0.950 . S
H1061 C1087 0.950 . S
H1062 C1088 0.950 . S
H1063 C1090 0.950 . S
H1064 C1093 0.950 . S
H1065 C1094 0.950 . S
H1066 C1096 0.951 . S
H1067 C1097 0.949 . S
C1068 C1069 1.376 . S
C1068 C1073 1.386 . S
C1068 C1074 1.483 . S
C1069 H1050 0.949 . S
C1069 C1068 1.376 . S
C1069 C1070 1.397 . S
C1070 H1051 0.950 . S
C1070 C1069 1.397 . S
C1070 C1071 1.391 . S
C1071 C1070 1.391 . S
C1071 C1072 1.405 . S
C1072 H1052 0.950 . S
C1072 C1071 1.405 . S
C1072 C1073 1.367 . S
C1073 H1053 0.950 . S
C1073 C1068 1.386 . S
C1073 C1072 1.367 . S
C1074 C1068 1.483 . S
C1074 C1075 1.382 . S
C1074 C1076 1.403 . S
C1075 H1054 0.950 . S
C1075 C1074 1.382 . S
C1075 C1091 1.411 . S
C1076 C1074 1.403 . S
C1076 C1077 1.489 . S
C1076 C1090 1.411 . S
C1077 C1076 1.489 . S
C1077 C1078 1.383 . S
C1077 C1082 1.382 . S
C1078 H1055 0.950 . S
C1078 C1077 1.383 . S
C1078 C1079 1.395 . S
C1079 H1056 0.950 . S
C1079 C1078 1.395 . S
C1079 C1080 1.288 . S
C1080 C1079 1.288 . S
C1080 C1081 1.392 . S
C1081 H1057 0.951 . S
C1081 C1080 1.392 . S
C1081 C1082 1.392 . S
C1082 H1058 0.949 . S
C1082 C1077 1.382 . S
C1082 C1081 1.392 . S
C1083 C1084 1.376 . S
C1083 C1088 1.386 . S
C1083 C1089 1.483 . S
C1084 H1059 0.949 . S
C1084 C1083 1.376 . S
C1084 C1085 1.397 . S
C1085 H1060 0.950 . S
C1085 C1084 1.397 . S
C1085 C1086 1.391 . S
C1086 C1085 1.391 . S
C1086 C1087 1.405 . S
C1087 H1061 0.950 . S
C1087 C1086 1.405 . S
C1087 C1088 1.367 . S
C1088 H1062 0.950 . S
C1088 C1083 1.386 . S
C1088 C1087 1.367 . S
C1089 C1083 1.483 . S
C1089 C1090 1.382 . S
C1089 C1091 1.403 . S
C1090 H1063 0.950 . S
C1090 C1076 1.411 . S
C1090 C1089 1.382 . S
C1091 C1075 1.411 . S
C1091 C1089 1.403 . S
C1091 C1092 1.489 . S
C1092 C1091 1.489 . S
C1092 C1093 1.383 . S
C1092 C1097 1.382 . S
C1093 H1064 0.950 . S
C1093 C1092 1.383 . S
C1093 C1094 1.395 . S
C1094 H1065 0.950 . S
C1094 C1093 1.395 . S
C1094 C1095 1.288 . S
C1095 C1094 1.288 . S
C1095 C1096 1.392 . S
C1096 H1066 0.951 . S
C1096 C1095 1.392 . S
C1096 C1097 1.392 . S
C1097 H1067 0.949 . S
C1097 C1092 1.382 . S
C1097 C1096 1.392 . S
C1098 C1099 1.388 . S
C1098 C1104 1.379 . S
C1098 N1106 1.356 . S
C1099 C1098 1.388 . S
C1099 C1105 1.356 1_655 S
C1100 C1101 1.363 1_455 S
C1100 C1105 1.379 . S
C1100 N1107 1.356 . S
C1101 C1100 1.363 1_655 S
C1101 C1104 1.363 . S
N1102 C1104 1.356 . S
N1102 H1114 0.984 . S
N1102 H1115 0.985 . S
N1103 C1105 1.356 . S
N1103 H1108 0.984 . S
N1103 H1109 0.985 . S
C1104 C1098 1.379 . S
C1104 C1101 1.363 . S
C1104 N1102 1.356 . S
C1105 C1099 1.356 1_455 S
C1105 C1100 1.379 . S
C1105 N1103 1.356 . S
N1106 C1098 1.356 . S
N1106 H1112 0.984 . S
N1106 H1113 0.984 . S
N1107 C1100 1.356 . S
N1107 H1110 0.984 . S
N1107 H1111 0.985 . S
H1108 N1103 0.984 . S
H1109 N1103 0.985 . S
H1110 N1107 0.984 . S
H1111 N1107 0.985 . S
H1112 N1106 0.984 . S
H1113 N1106 0.984 . S
H1114 N1102 0.984 . S
H1115 N1102 0.985 . S
C1116 C1117 1.363 . S
C1116 C1122 1.379 . S
C1116 N1124 1.356 . S
C1117 C1116 1.363 . S
C1117 C1123 1.363 . S
C1118 C1119 1.363 . S
C1118 C1123 1.379 . S
C1118 N1125 1.356 . S
C1119 C1118 1.363 . S
C1119 C1122 1.363 . S
N1120 C1122 1.356 . S
N1120 H1132 0.984 . S
N1120 H1133 0.985 . S
N1121 C1123 1.356 . S
N1121 H1126 0.984 . S
N1121 H1127 0.985 . S
C1122 C1116 1.379 . S
C1122 C1119 1.363 . S
C1122 N1120 1.356 . S
C1123 C1117 1.363 . S
C1123 C1118 1.379 . S
C1123 N1121 1.356 . S
N1124 C1116 1.356 . S
N1124 H1130 0.984 . S
N1124 H1131 0.984 . S
N1125 C1118 1.356 . S
N1125 H1128 0.984 . S
N1125 H1129 0.985 . S
H1126 N1121 0.984 . S
H1127 N1121 0.985 . S
H1128 N1125 0.984 . S
H1129 N1125 0.985 . S
H1130 N1124 0.984 . S
H1131 N1124 0.984 . S
H1132 N1120 0.984 . S
H1133 N1120 0.985 . S
C1134 C1135 1.363 . S
C1134 C1140 1.379 . S
C1134 N1142 1.356 . S
C1135 C1134 1.363 . S
C1135 C1141 1.363 1_545 S
C1136 C1137 1.363 1_565 S
C1136 C1141 1.379 . S
C1136 N1143 1.356 . S
C1137 C1136 1.363 1_545 S
C1137 C1140 1.363 . S
N1138 C1140 1.356 . S
N1138 H1150 0.984 . S
N1138 H1151 0.985 . S
N1139 C1141 1.356 . S
N1139 H1144 0.984 . S
N1139 H1145 0.985 . S
C1140 C1134 1.379 . S
C1140 C1137 1.363 . S
C1140 N1138 1.356 . S
C1141 C1135 1.363 1_565 S
C1141 C1136 1.379 . S
C1141 N1139 1.356 . S
N1142 C1134 1.356 . S
N1142 H1148 0.984 . S
N1142 H1149 0.984 . S
N1143 C1136 1.356 . S
N1143 H1146 0.984 . S
N1143 H1147 0.985 . S
H1144 N1139 0.984 . S
H1145 N1139 0.985 . S
H1146 N1143 0.984 . S
H1147 N1143 0.985 . S
H1148 N1142 0.984 . S
H1149 N1142 0.984 . S
H1150 N1138 0.984 . S
H1151 N1138 0.985 . S
C1152 C1153 1.345 1_545 S
C1152 C1158 1.379 . S
C1152 N1160 1.356 . S
C1153 C1152 1.345 1_565 S
C1153 C1159 1.394 . S
C1154 C1155 1.363 . S
C1154 C1159 1.379 . S
C1154 N1161 1.356 . S
C1155 C1154 1.363 . S
C1155 C1158 1.363 1_565 S
N1156 C1158 1.356 . S
N1156 H1168 0.984 . S
N1156 H1169 0.985 . S
N1157 C1159 1.356 . S
N1157 H1162 0.984 . S
N1157 H1163 0.985 . S
C1158 C1152 1.379 . S
C1158 C1155 1.363 1_545 S
C1158 N1156 1.356 . S
C1159 C1153 1.394 . S
C1159 C1154 1.379 . S
C1159 N1157 1.356 . S
N1160 C1152 1.356 . S
N1160 H1166 0.984 . S
N1160 H1167 0.984 . S
N1161 C1154 1.356 . S
N1161 H1164 0.984 . S
N1161 H1165 0.985 . S
H1162 N1157 0.984 . S
H1163 N1157 0.985 . S
H1164 N1161 0.984 . S
H1165 N1161 0.985 . S
H1166 N1160 0.984 . S
H1167 N1160 0.984 . S
H1168 N1156 0.984 . S
H1169 N1156 0.985 . S
C1170 C1171 1.363 1_655 S
C1170 C1176 1.379 . S
C1170 N1178 1.356 . S
C1171 C1170 1.363 1_455 S
C1171 C1177 1.363 . S
C1172 C1173 1.363 . S
C1172 C1177 1.379 . S
C1172 N1179 1.356 . S
C1173 C1172 1.363 . S
C1173 C1176 1.363 1_455 S
N1174 C1176 1.356 . S
N1174 H1186 0.984 . S
N1174 H1187 0.985 . S
N1175 C1177 1.356 . S
N1175 H1180 0.984 . S
N1175 H1181 0.985 . S
C1176 C1170 1.379 . S
C1176 C1173 1.363 1_655 S
C1176 N1174 1.356 . S
C1177 C1171 1.363 . S
C1177 C1172 1.379 . S
C1177 N1175 1.356 . S
N1178 C1170 1.356 . S
N1178 H1184 0.984 . S
N1178 H1185 0.984 . S
N1179 C1172 1.356 . S
N1179 H1182 0.984 . S
N1179 H1183 0.985 . S
H1180 N1175 0.984 . S
H1181 N1175 0.985 . S
H1182 N1179 0.984 . S
H1183 N1179 0.985 . S
H1184 N1178 0.984 . S
H1185 N1178 0.984 . S
H1186 N1174 0.984 . S
H1187 N1174 0.985 . S
C1188 C1189 1.363 . S
C1188 C1194 1.379 . S
C1188 N1196 1.356 . S
C1189 C1188 1.363 . S
C1189 C1195 1.363 . S
C1190 C1191 1.363 . S
C1190 C1195 1.379 . S
C1190 N1197 1.356 . S
C1191 C1190 1.363 . S
C1191 C1194 1.363 . S
N1192 C1194 1.356 . S
N1192 H1204 0.984 . S
N1192 H1205 0.985 . S
N1193 C1195 1.356 . S
N1193 H1198 0.984 . S
N1193 H1199 0.985 . S
C1194 C1188 1.379 . S
C1194 C1191 1.363 . S
C1194 N1192 1.356 . S
C1195 C1189 1.363 . S
C1195 C1190 1.379 . S
C1195 N1193 1.356 . S
N1196 C1188 1.356 . S
N1196 H1202 0.984 . S
N1196 H1203 0.984 . S
N1197 C1190 1.356 . S
N1197 H1200 0.984 . S
N1197 H1201 0.985 . S
H1198 N1193 0.984 . S
H1199 N1193 0.985 . S
H1200 N1197 0.984 . S
H1201 N1197 0.985 . S
H1202 N1196 0.984 . S
H1203 N1196 0.984 . S
H1204 N1192 0.984 . S
H1205 N1192 0.985 . S
C1206 C1207 1.363 . S
C1206 C1212 1.379 . S
C1206 N1214 1.356 . S
C1207 C1206 1.363 . S
C1207 C1213 1.363 1_455 S
C1208 C1209 1.363 1_655 S
C1208 C1213 1.379 . S
C1208 N1215 1.356 . S
C1209 C1208 1.363 1_455 S
C1209 C1212 1.363 . S
N1210 C1212 1.356 . S
N1210 H1222 0.984 . S
N1210 H1223 0.985 . S
N1211 C1213 1.356 . S
N1211 H1216 0.984 . S
N1211 H1217 0.985 . S
C1212 C1206 1.379 . S
C1212 C1209 1.363 . S
C1212 N1210 1.356 . S
C1213 C1207 1.363 1_655 S
C1213 C1208 1.379 . S
C1213 N1211 1.356 . S
N1214 C1206 1.356 . S
N1214 H1220 0.984 . S
N1214 H1221 0.984 . S
N1215 C1208 1.356 . S
N1215 H1218 0.984 . S
N1215 H1219 0.985 . S
H1216 N1211 0.984 . S
H1217 N1211 0.985 . S
H1218 N1215 0.984 . S
H1219 N1215 0.985 . S
H1220 N1214 0.984 . S
H1221 N1214 0.984 . S
H1222 N1210 0.984 . S
H1223 N1210 0.985 . S
C1224 C1225 1.363 . S
C1224 C1230 1.379 . S
C1224 N1232 1.356 . S
C1225 C1224 1.363 . S
C1225 C1231 1.363 . S
C1226 C1227 1.363 . S
C1226 C1231 1.379 . S
C1226 N1233 1.356 . S
C1227 C1226 1.363 . S
C1227 C1230 1.363 . S
N1228 C1230 1.356 . S
N1228 H1240 0.984 . S
N1228 H1241 0.985 . S
N1229 C1231 1.356 . S
N1229 H1234 0.984 . S
N1229 H1235 0.985 . S
C1230 C1224 1.379 . S
C1230 C1227 1.363 . S
C1230 N1228 1.356 . S
C1231 C1225 1.363 . S
C1231 C1226 1.379 . S
C1231 N1229 1.356 . S
N1232 C1224 1.356 . S
N1232 H1238 0.984 . S
N1232 H1239 0.984 . S
N1233 C1226 1.356 . S
N1233 H1236 0.984 . S
N1233 H1237 0.985 . S
H1234 N1229 0.984 . S
H1235 N1229 0.985 . S
H1236 N1233 0.984 . S
H1237 N1233 0.985 . S
H1238 N1232 0.984 . S
H1239 N1232 0.984 . S
H1240 N1228 0.984 . S
H1241 N1228 0.985 . S
C1242 C1243 1.403 . S
C1242 C1248 1.379 . S
C1242 N1250 1.356 . S
C1243 C1242 1.403 . S
C1243 C1249 1.307 1_565 S
C1244 C1245 1.363 1_545 S
C1244 C1249 1.379 . S
C1244 N1251 1.356 . S
C1245 C1244 1.363 1_565 S
C1245 C1248 1.363 . S
N1246 C1248 1.356 . S
N1246 H1258 0.984 . S
N1246 H1259 0.985 . S
N1247 C1249 1.356 . S
N1247 H1252 0.984 . S
N1247 H1253 0.985 . S
C1248 C1242 1.379 . S
C1248 C1245 1.363 . S
C1248 N1246 1.356 . S
C1249 C1243 1.307 1_545 S
C1249 C1244 1.379 . S
C1249 N1247 1.356 . S
N1250 C1242 1.356 . S
N1250 H1256 0.984 . S
N1250 H1257 0.984 . S
N1251 C1244 1.356 . S
N1251 H1254 0.984 . S
N1251 H1255 0.985 . S
H1252 N1247 0.984 . S
H1253 N1247 0.985 . S
H1254 N1251 0.984 . S
H1255 N1251 0.985 . S
H1256 N1250 0.984 . S
H1257 N1250 0.984 . S
H1258 N1246 0.984 . S
H1259 N1246 0.985 . S
C1260 C1261 1.363 . S
C1260 C1266 1.379 . S
C1260 N1268 1.356 . S
C1261 C1260 1.363 . S
C1261 C1267 1.363 1_545 S
C1262 C1263 1.363 1_565 S
C1262 C1267 1.379 . S
C1262 N1269 1.356 . S
C1263 C1262 1.363 1_545 S
C1263 C1266 1.363 . S
N1264 C1266 1.356 . S
N1264 H1276 0.984 . S
N1264 H1277 0.985 . S
N1265 C1267 1.356 . S
N1265 H1270 0.984 . S
N1265 H1271 0.985 . S
C1266 C1260 1.379 . S
C1266 C1263 1.363 . S
C1266 N1264 1.356 . S
C1267 C1261 1.363 1_565 S
C1267 C1262 1.379 . S
C1267 N1265 1.356 . S
N1268 C1260 1.356 . S
N1268 H1274 0.984 . S
N1268 H1275 0.984 . S
N1269 C1262 1.356 . S
N1269 H1272 0.984 . S
N1269 H1273 0.985 . S
H1270 N1265 0.984 . S
H1271 N1265 0.985 . S
H1272 N1269 0.984 . S
H1273 N1269 0.985 . S
H1274 N1268 0.984 . S
H1275 N1268 0.984 . S
H1276 N1264 0.984 . S
H1277 N1264 0.985 . S
C1278 C1279 1.313 1_455 S
C1278 C1284 1.379 . S
C1278 N1286 1.356 . S
C1279 C1278 1.313 1_655 S
C1279 C1285 1.397 . S
C1280 C1281 1.363 . S
C1280 C1285 1.379 . S
C1280 N1287 1.356 . S
C1281 C1280 1.363 . S
C1281 C1284 1.363 1_655 S
N1282 C1284 1.356 . S
N1282 H1294 0.984 . S
N1282 H1295 0.985 . S
N1283 C1285 1.356 . S
N1283 H1288 0.984 . S
N1283 H1289 0.985 . S
C1284 C1278 1.379 . S
C1284 C1281 1.363 1_455 S
C1284 N1282 1.356 . S
C1285 C1279 1.397 . S
C1285 C1280 1.379 . S
C1285 N1283 1.356 . S
N1286 C1278 1.356 . S
N1286 H1292 0.984 . S
N1286 H1293 0.984 . S
N1287 C1280 1.356 . S
N1287 H1290 0.984 . S
N1287 H1291 0.985 . S
H1288 N1283 0.984 . S
H1289 N1283 0.985 . S
H1290 N1287 0.984 . S
H1291 N1287 0.985 . S
H1292 N1286 0.984 . S
H1293 N1286 0.984 . S
H1294 N1282 0.984 . S
H1295 N1282 0.985 . S
C1296 C1297 1.363 . S
C1296 C1302 1.379 . S
C1296 N1304 1.356 . S
C1297 C1296 1.363 . S
C1297 C1303 1.363 . S
C1298 C1299 1.363 . S
C1298 C1303 1.379 . S
C1298 N1305 1.356 . S
C1299 C1298 1.363 . S
C1299 C1302 1.363 . S
N1300 C1302 1.356 . S
N1300 H1312 0.984 . S
N1300 H1313 0.985 . S
N1301 C1303 1.356 . S
N1301 H1306 0.984 . S
N1301 H1307 0.985 . S
C1302 C1296 1.379 . S
C1302 C1299 1.363 . S
C1302 N1300 1.356 . S
C1303 C1297 1.363 . S
C1303 C1298 1.379 . S
C1303 N1301 1.356 . S
N1304 C1296 1.356 . S
N1304 H1310 0.984 . S
N1304 H1311 0.984 . S
N1305 C1298 1.356 . S
N1305 H1308 0.984 . S
N1305 H1309 0.985 . S
H1306 N1301 0.984 . S
H1307 N1301 0.985 . S
H1308 N1305 0.984 . S
H1309 N1305 0.985 . S
H1310 N1304 0.984 . S
H1311 N1304 0.984 . S
H1312 N1300 0.984 . S
H1313 N1300 0.985 . S
C1314 C1315 1.363 . S
C1314 C1320 1.379 . S
C1314 N1322 1.356 . S
C1315 C1314 1.363 . S
C1315 C1321 1.363 . S
C1316 C1317 1.363 . S
C1316 C1321 1.379 . S
C1316 N1323 1.356 . S
C1317 C1316 1.363 . S
C1317 C1320 1.363 . S
N1318 C1320 1.356 . S
N1318 H1330 0.984 . S
N1318 H1331 0.985 . S
N1319 C1321 1.356 . S
N1319 H1324 0.984 . S
N1319 H1325 0.985 . S
C1320 C1314 1.379 . S
C1320 C1317 1.363 . S
C1320 N1318 1.356 . S
C1321 C1315 1.363 . S
C1321 C1316 1.379 . S
C1321 N1319 1.356 . S
N1322 C1314 1.356 . S
N1322 H1328 0.984 . S
N1322 H1329 0.984 . S
N1323 C1316 1.356 . S
N1323 H1326 0.984 . S
N1323 H1327 0.985 . S
H1324 N1319 0.984 . S
H1325 N1319 0.985 . S
H1326 N1323 0.984 . S
H1327 N1323 0.985 . S
H1328 N1322 0.984 . S
H1329 N1322 0.984 . S
H1330 N1318 0.984 . S
H1331 N1318 0.985 . S
C1332 C1333 1.363 . S
C1332 C1338 1.379 . S
C1332 N1340 1.356 . S
C1333 C1332 1.363 . S
C1333 C1339 1.363 . S
C1334 C1335 1.363 . S
C1334 C1339 1.379 . S
C1334 N1341 1.356 . S
C1335 C1334 1.363 . S
C1335 C1338 1.363 . S
N1336 C1338 1.356 . S
N1336 H1348 0.984 . S
N1336 H1349 0.985 . S
N1337 C1339 1.356 . S
N1337 H1342 0.984 . S
N1337 H1343 0.985 . S
C1338 C1332 1.379 . S
C1338 C1335 1.363 . S
C1338 N1336 1.356 . S
C1339 C1333 1.363 . S
C1339 C1334 1.379 . S
C1339 N1337 1.356 . S
N1340 C1332 1.356 . S
N1340 H1346 0.984 . S
N1340 H1347 0.984 . S
N1341 C1334 1.356 . S
N1341 H1344 0.984 . S
N1341 H1345 0.985 . S
H1342 N1337 0.984 . S
H1343 N1337 0.985 . S
H1344 N1341 0.984 . S
H1345 N1341 0.985 . S
H1346 N1340 0.984 . S
H1347 N1340 0.984 . S
H1348 N1336 0.984 . S
H1349 N1336 0.985 . S
C1350 C1351 1.363 . S
C1350 C1356 1.379 . S
C1350 N1358 1.356 . S
C1351 C1350 1.363 . S
C1351 C1357 1.363 . S
C1352 C1353 1.363 . S
C1352 C1357 1.379 . S
C1352 N1359 1.356 . S
C1353 C1352 1.363 . S
C1353 C1356 1.363 . S
N1354 C1356 1.356 . S
N1354 H1366 0.984 . S
N1354 H1367 0.985 . S
N1355 C1357 1.356 . S
N1355 H1360 0.984 . S
N1355 H1361 0.985 . S
C1356 C1350 1.379 . S
C1356 C1353 1.363 . S
C1356 N1354 1.356 . S
C1357 C1351 1.363 . S
C1357 C1352 1.379 . S
C1357 N1355 1.356 . S
N1358 C1350 1.356 . S
N1358 H1364 0.984 . S
N1358 H1365 0.984 . S
N1359 C1352 1.356 . S
N1359 H1362 0.984 . S
N1359 H1363 0.985 . S
H1360 N1355 0.984 . S
H1361 N1355 0.985 . S
H1362 N1359 0.984 . S
H1363 N1359 0.985 . S
H1364 N1358 0.984 . S
H1365 N1358 0.984 . S
H1366 N1354 0.984 . S
H1367 N1354 0.985 . S
C1368 C1369 1.363 . S
C1368 C1374 1.379 . S
C1368 N1376 1.356 . S
C1369 C1368 1.363 . S
C1369 C1375 1.363 . S
C1370 C1371 1.363 . S
C1370 C1375 1.379 . S
C1370 N1377 1.356 . S
C1371 C1370 1.363 . S
C1371 C1374 1.363 . S
N1372 C1374 1.356 . S
N1372 H1384 0.984 . S
N1372 H1385 0.985 . S
N1373 C1375 1.356 . S
N1373 H1378 0.984 . S
N1373 H1379 0.985 . S
C1374 C1368 1.379 . S
C1374 C1371 1.363 . S
C1374 N1372 1.356 . S
C1375 C1369 1.363 . S
C1375 C1370 1.379 . S
C1375 N1373 1.356 . S
N1376 C1368 1.356 . S
N1376 H1382 0.984 . S
N1376 H1383 0.984 . S
N1377 C1370 1.356 . S
N1377 H1380 0.984 . S
N1377 H1381 0.985 . S
H1378 N1373 0.984 . S
H1379 N1373 0.985 . S
H1380 N1377 0.984 . S
H1381 N1377 0.985 . S
H1382 N1376 0.984 . S
H1383 N1376 0.984 . S
H1384 N1372 0.984 . S
H1385 N1372 0.985 . S
C1386 C1387 1.363 . S
C1386 C1392 1.379 . S
C1386 N1394 1.356 . S
C1387 C1386 1.363 . S
C1387 C1393 1.363 . S
C1388 C1389 1.363 . S
C1388 C1393 1.379 . S
C1388 N1395 1.356 . S
C1389 C1388 1.363 . S
C1389 C1392 1.363 . S
N1390 C1392 1.356 . S
N1390 H1402 0.984 . S
N1390 H1403 0.985 . S
N1391 C1393 1.356 . S
N1391 H1396 0.984 . S
N1391 H1397 0.985 . S
C1392 C1386 1.379 . S
C1392 C1389 1.363 . S
C1392 N1390 1.356 . S
C1393 C1387 1.363 . S
C1393 C1388 1.379 . S
C1393 N1391 1.356 . S
N1394 C1386 1.356 . S
N1394 H1400 0.984 . S
N1394 H1401 0.984 . S
N1395 C1388 1.356 . S
N1395 H1398 0.984 . S
N1395 H1399 0.985 . S
H1396 N1391 0.984 . S
H1397 N1391 0.985 . S
H1398 N1395 0.984 . S
H1399 N1395 0.985 . S
H1400 N1394 0.984 . S
H1401 N1394 0.984 . S
H1402 N1390 0.984 . S
H1403 N1390 0.985 . S
C1404 C1405 1.363 . S
C1404 C1410 1.379 . S
C1404 N1412 1.356 . S
C1405 C1404 1.363 . S
C1405 C1411 1.363 . S
C1406 C1407 1.363 . S
C1406 C1411 1.379 . S
C1406 N1413 1.356 . S
C1407 C1406 1.363 . S
C1407 C1410 1.363 . S
N1408 C1410 1.356 . S
N1408 H1420 0.984 . S
N1408 H1421 0.985 . S
N1409 C1411 1.356 . S
N1409 H1414 0.984 . S
N1409 H1415 0.985 . S
C1410 C1404 1.379 . S
C1410 C1407 1.363 . S
C1410 N1408 1.356 . S
C1411 C1405 1.363 . S
C1411 C1406 1.379 . S
C1411 N1409 1.356 . S
N1412 C1404 1.356 . S
N1412 H1418 0.984 . S
N1412 H1419 0.984 . S
N1413 C1406 1.356 . S
N1413 H1416 0.984 . S
N1413 H1417 0.985 . S
H1414 N1409 0.984 . S
H1415 N1409 0.985 . S
H1416 N1413 0.984 . S
H1417 N1413 0.985 . S
H1418 N1412 0.984 . S
H1419 N1412 0.984 . S
H1420 N1408 0.984 . S
H1421 N1408 0.985 . S
C1422 C1423 1.363 . S
C1422 C1428 1.379 . S
C1422 N1430 1.356 . S
C1423 C1422 1.363 . S
C1423 C1429 1.363 . S
C1424 C1425 1.363 . S
C1424 C1429 1.379 . S
C1424 N1431 1.356 . S
C1425 C1424 1.363 . S
C1425 C1428 1.363 . S
N1426 C1428 1.356 . S
N1426 H1438 0.984 . S
N1426 H1439 0.985 . S
N1427 C1429 1.356 . S
N1427 H1432 0.984 . S
N1427 H1433 0.985 . S
C1428 C1422 1.379 . S
C1428 C1425 1.363 . S
C1428 N1426 1.356 . S
C1429 C1423 1.363 . S
C1429 C1424 1.379 . S
C1429 N1427 1.356 . S
N1430 C1422 1.356 . S
N1430 H1436 0.984 . S
N1430 H1437 0.984 . S
N1431 C1424 1.356 . S
N1431 H1434 0.984 . S
N1431 H1435 0.985 . S
H1432 N1427 0.984 . S
H1433 N1427 0.985 . S
H1434 N1431 0.984 . S
H1435 N1431 0.985 . S
H1436 N1430 0.984 . S
H1437 N1430 0.984 . S
H1438 N1426 0.984 . S
H1439 N1426 0.985 . S
C1440 C1441 1.363 . S
C1440 C1446 1.379 . S
C1440 N1448 1.356 . S
C1441 C1440 1.363 . S
C1441 C1447 1.363 . S
C1442 C1443 1.363 . S
C1442 C1447 1.379 . S
C1442 N1449 1.356 . S
C1443 C1442 1.363 . S
C1443 C1446 1.363 . S
N1444 C1446 1.356 . S
N1444 H1456 0.984 . S
N1444 H1457 0.985 . S
N1445 C1447 1.356 . S
N1445 H1450 0.984 . S
N1445 H1451 0.985 . S
C1446 C1440 1.379 . S
C1446 C1443 1.363 . S
C1446 N1444 1.356 . S
C1447 C1441 1.363 . S
C1447 C1442 1.379 . S
C1447 N1445 1.356 . S
N1448 C1440 1.356 . S
N1448 H1454 0.984 . S
N1448 H1455 0.984 . S
N1449 C1442 1.356 . S
N1449 H1452 0.984 . S
N1449 H1453 0.985 . S
H1450 N1445 0.984 . S
H1451 N1445 0.985 . S
H1452 N1449 0.984 . S
H1453 N1449 0.985 . S
H1454 N1448 0.984 . S
H1455 N1448 0.984 . S
H1456 N1444 0.984 . S
H1457 N1444 0.985 . S
C1458 C1459 1.363 . S
C1458 C1464 1.379 . S
C1458 N1466 1.356 . S
C1459 C1458 1.363 . S
C1459 C1465 1.363 . S
C1460 C1461 1.363 . S
C1460 C1465 1.379 . S
C1460 N1467 1.356 . S
C1461 C1460 1.363 . S
C1461 C1464 1.363 . S
N1462 C1464 1.356 . S
N1462 H1474 0.984 . S
N1462 H1475 0.985 . S
N1463 C1465 1.356 . S
N1463 H1468 0.984 . S
N1463 H1469 0.985 . S
C1464 C1458 1.379 . S
C1464 C1461 1.363 . S
C1464 N1462 1.356 . S
C1465 C1459 1.363 . S
C1465 C1460 1.379 . S
C1465 N1463 1.356 . S
N1466 C1458 1.356 . S
N1466 H1472 0.984 . S
N1466 H1473 0.984 . S
N1467 C1460 1.356 . S
N1467 H1470 0.984 . S
N1467 H1471 0.985 . S
H1468 N1463 0.984 . S
H1469 N1463 0.985 . S
H1470 N1467 0.984 . S
H1471 N1467 0.985 . S
H1472 N1466 0.984 . S
H1473 N1466 0.984 . S
H1474 N1462 0.984 . S
H1475 N1462 0.985 . S
C1476 C1477 1.363 . S
C1476 C1482 1.379 . S
C1476 N1484 1.356 . S
C1477 C1476 1.363 . S
C1477 C1483 1.363 . S
C1478 C1479 1.363 . S
C1478 C1483 1.379 . S
C1478 N1485 1.356 . S
C1479 C1478 1.363 . S
C1479 C1482 1.363 . S
N1480 C1482 1.356 . S
N1480 H1492 0.984 . S
N1480 H1493 0.985 . S
N1481 C1483 1.356 . S
N1481 H1486 0.984 . S
N1481 H1487 0.985 . S
C1482 C1476 1.379 . S
C1482 C1479 1.363 . S
C1482 N1480 1.356 . S
C1483 C1477 1.363 . S
C1483 C1478 1.379 . S
C1483 N1481 1.356 . S
N1484 C1476 1.356 . S
N1484 H1490 0.984 . S
N1484 H1491 0.984 . S
N1485 C1478 1.356 . S
N1485 H1488 0.984 . S
N1485 H1489 0.985 . S
H1486 N1481 0.984 . S
H1487 N1481 0.985 . S
H1488 N1485 0.984 . S
H1489 N1485 0.985 . S
H1490 N1484 0.984 . S
H1491 N1484 0.984 . S
H1492 N1480 0.984 . S
H1493 N1480 0.985 . S
C1494 C1495 1.363 . S
C1494 C1500 1.379 . S
C1494 N1502 1.356 . S
C1495 C1494 1.363 . S
C1495 C1501 1.363 . S
C1496 C1497 1.363 . S
C1496 C1501 1.379 . S
C1496 N1503 1.356 . S
C1497 C1496 1.363 . S
C1497 C1500 1.363 . S
N1498 C1500 1.356 . S
N1498 H1510 0.984 . S
N1498 H1511 0.985 . S
N1499 C1501 1.356 . S
N1499 H1504 0.984 . S
N1499 H1505 0.985 . S
C1500 C1494 1.379 . S
C1500 C1497 1.363 . S
C1500 N1498 1.356 . S
C1501 C1495 1.363 . S
C1501 C1496 1.379 . S
C1501 N1499 1.356 . S
N1502 C1494 1.356 . S
N1502 H1508 0.984 . S
N1502 H1509 0.984 . S
N1503 C1496 1.356 . S
N1503 H1506 0.984 . S
N1503 H1507 0.985 . S
H1504 N1499 0.984 . S
H1505 N1499 0.985 . S
H1506 N1503 0.984 . S
H1507 N1503 0.985 . S
H1508 N1502 0.984 . S
H1509 N1502 0.984 . S
H1510 N1498 0.984 . S
H1511 N1498 0.985 . S
C1512 C1513 1.363 . S
C1512 C1518 1.379 . S
C1512 N1520 1.356 . S
C1513 C1512 1.363 . S
C1513 C1519 1.363 . S
C1514 C1515 1.363 . S
C1514 C1519 1.379 . S
C1514 N1521 1.356 . S
C1515 C1514 1.363 . S
C1515 C1518 1.363 . S
N1516 C1518 1.356 . S
N1516 H1528 0.984 . S
N1516 H1529 0.985 . S
N1517 C1519 1.356 . S
N1517 H1522 0.984 . S
N1517 H1523 0.985 . S
C1518 C1512 1.379 . S
C1518 C1515 1.363 . S
C1518 N1516 1.356 . S
C1519 C1513 1.363 . S
C1519 C1514 1.379 . S
C1519 N1517 1.356 . S
N1520 C1512 1.356 . S
N1520 H1526 0.984 . S
N1520 H1527 0.984 . S
N1521 C1514 1.356 . S
N1521 H1524 0.984 . S
N1521 H1525 0.985 . S
H1522 N1517 0.984 . S
H1523 N1517 0.985 . S
H1524 N1521 0.984 . S
H1525 N1521 0.985 . S
H1526 N1520 0.984 . S
H1527 N1520 0.984 . S
H1528 N1516 0.984 . S
H1529 N1516 0.985 . S
C1530 C1531 1.363 . S
C1530 C1536 1.379 . S
C1530 N1538 1.356 . S
C1531 C1530 1.363 . S
C1531 C1537 1.363 . S
C1532 C1533 1.363 . S
C1532 C1537 1.379 . S
C1532 N1539 1.356 . S
C1533 C1532 1.363 . S
C1533 C1536 1.363 . S
N1534 C1536 1.356 . S
N1534 H1546 0.984 . S
N1534 H1547 0.985 . S
N1535 C1537 1.356 . S
N1535 H1540 0.984 . S
N1535 H1541 0.985 . S
C1536 C1530 1.379 . S
C1536 C1533 1.363 . S
C1536 N1534 1.356 . S
C1537 C1531 1.363 . S
C1537 C1532 1.379 . S
C1537 N1535 1.356 . S
N1538 C1530 1.356 . S
N1538 H1544 0.984 . S
N1538 H1545 0.984 . S
N1539 C1532 1.356 . S
N1539 H1542 0.984 . S
N1539 H1543 0.985 . S
H1540 N1535 0.984 . S
H1541 N1535 0.985 . S
H1542 N1539 0.984 . S
H1543 N1539 0.985 . S
H1544 N1538 0.984 . S
H1545 N1538 0.984 . S
H1546 N1534 0.984 . S
H1547 N1534 0.985 . S
C1548 C1549 1.363 . S
C1548 C1554 1.379 . S
C1548 N1556 1.356 . S
C1549 C1548 1.363 . S
C1549 C1555 1.363 . S
C1550 C1551 1.363 . S
C1550 C1555 1.379 . S
C1550 N1557 1.356 . S
C1551 C1550 1.363 . S
C1551 C1554 1.363 . S
N1552 C1554 1.356 . S
N1552 H1564 0.984 . S
N1552 H1565 0.985 . S
N1553 C1555 1.356 . S
N1553 H1558 0.984 . S
N1553 H1559 0.985 . S
C1554 C1548 1.379 . S
C1554 C1551 1.363 . S
C1554 N1552 1.356 . S
C1555 C1549 1.363 . S
C1555 C1550 1.379 . S
C1555 N1553 1.356 . S
N1556 C1548 1.356 . S
N1556 H1562 0.984 . S
N1556 H1563 0.984 . S
N1557 C1550 1.356 . S
N1557 H1560 0.984 . S
N1557 H1561 0.985 . S
H1558 N1553 0.984 . S
H1559 N1553 0.985 . S
H1560 N1557 0.984 . S
H1561 N1557 0.985 . S
H1562 N1556 0.984 . S
H1563 N1556 0.984 . S
H1564 N1552 0.984 . S
H1565 N1552 0.985 . S
C1566 C1567 1.363 . S
C1566 C1572 1.379 . S
C1566 N1574 1.356 . S
C1567 C1566 1.363 . S
C1567 C1573 1.363 . S
C1568 C1569 1.363 . S
C1568 C1573 1.379 . S
C1568 N1575 1.356 . S
C1569 C1568 1.363 . S
C1569 C1572 1.363 . S
N1570 C1572 1.356 . S
N1570 H1582 0.984 . S
N1570 H1583 0.985 . S
N1571 C1573 1.356 . S
N1571 H1576 0.984 . S
N1571 H1577 0.985 . S
C1572 C1566 1.379 . S
C1572 C1569 1.363 . S
C1572 N1570 1.356 . S
C1573 C1567 1.363 . S
C1573 C1568 1.379 . S
C1573 N1571 1.356 . S
N1574 C1566 1.356 . S
N1574 H1580 0.984 . S
N1574 H1581 0.984 . S
N1575 C1568 1.356 . S
N1575 H1578 0.984 . S
N1575 H1579 0.985 . S
H1576 N1571 0.984 . S
H1577 N1571 0.985 . S
H1578 N1575 0.984 . S
H1579 N1575 0.985 . S
H1580 N1574 0.984 . S
H1581 N1574 0.984 . S
H1582 N1570 0.984 . S
H1583 N1570 0.985 . S
C1584 C1585 1.363 . S
C1584 C1590 1.379 . S
C1584 N1592 1.356 . S
C1585 C1584 1.363 . S
C1585 C1591 1.363 . S
C1586 C1587 1.363 . S
C1586 C1591 1.379 . S
C1586 N1593 1.356 . S
C1587 C1586 1.363 . S
C1587 C1590 1.363 . S
N1588 C1590 1.356 . S
N1588 H1600 0.984 . S
N1588 H1601 0.985 . S
N1589 C1591 1.356 . S
N1589 H1594 0.984 . S
N1589 H1595 0.985 . S
C1590 C1584 1.379 . S
C1590 C1587 1.363 . S
C1590 N1588 1.356 . S
C1591 C1585 1.363 . S
C1591 C1586 1.379 . S
C1591 N1589 1.356 . S
N1592 C1584 1.356 . S
N1592 H1598 0.984 . S
N1592 H1599 0.984 . S
N1593 C1586 1.356 . S
N1593 H1596 0.984 . S
N1593 H1597 0.985 . S
H1594 N1589 0.984 . S
H1595 N1589 0.985 . S
H1596 N1593 0.984 . S
H1597 N1593 0.985 . S
H1598 N1592 0.984 . S
H1599 N1592 0.984 . S
H1600 N1588 0.984 . S
H1601 N1588 0.985 . S
C1602 C1603 1.363 . S
C1602 C1608 1.379 . S
C1602 N1610 1.356 . S
C1603 C1602 1.363 . S
C1603 C1609 1.363 . S
C1604 C1605 1.363 . S
C1604 C1609 1.379 . S
C1604 N1611 1.356 . S
C1605 C1604 1.363 . S
C1605 C1608 1.363 . S
N1606 C1608 1.356 . S
N1606 H1618 0.984 . S
N1606 H1619 0.985 . S
N1607 C1609 1.356 . S
N1607 H1612 0.984 . S
N1607 H1613 0.985 . S
C1608 C1602 1.379 . S
C1608 C1605 1.363 . S
C1608 N1606 1.356 . S
C1609 C1603 1.363 . S
C1609 C1604 1.379 . S
C1609 N1607 1.356 . S
N1610 C1602 1.356 . S
N1610 H1616 0.984 . S
N1610 H1617 0.984 . S
N1611 C1604 1.356 . S
N1611 H1614 0.984 . S
N1611 H1615 0.985 . S
H1612 N1607 0.984 . S
H1613 N1607 0.985 . S
H1614 N1611 0.984 . S
H1615 N1611 0.985 . S
H1616 N1610 0.984 . S
H1617 N1610 0.984 . S
H1618 N1606 0.984 . S
H1619 N1606 0.985 . S
C1620 C1621 1.363 . S
C1620 C1626 1.379 . S
C1620 N1628 1.356 . S
C1621 C1620 1.363 . S
C1621 C1627 1.363 . S
C1622 C1623 1.363 . S
C1622 C1627 1.379 . S
C1622 N1629 1.356 . S
C1623 C1622 1.363 . S
C1623 C1626 1.363 . S
N1624 C1626 1.356 . S
N1624 H1636 0.984 . S
N1624 H1637 0.985 . S
N1625 C1627 1.356 . S
N1625 H1630 0.984 . S
N1625 H1631 0.985 . S
C1626 C1620 1.379 . S
C1626 C1623 1.363 . S
C1626 N1624 1.356 . S
C1627 C1621 1.363 . S
C1627 C1622 1.379 . S
C1627 N1625 1.356 . S
N1628 C1620 1.356 . S
N1628 H1634 0.984 . S
N1628 H1635 0.984 . S
N1629 C1622 1.356 . S
N1629 H1632 0.984 . S
N1629 H1633 0.985 . S
H1630 N1625 0.984 . S
H1631 N1625 0.985 . S
H1632 N1629 0.984 . S
H1633 N1629 0.985 . S
H1634 N1628 0.984 . S
H1635 N1628 0.984 . S
H1636 N1624 0.984 . S
H1637 N1624 0.985 . S
C1638 C1639 1.363 . S
C1638 C1644 1.379 . S
C1638 N1646 1.356 . S
C1639 C1638 1.363 . S
C1639 C1645 1.363 . S
C1640 C1641 1.363 . S
C1640 C1645 1.379 . S
C1640 N1647 1.356 . S
C1641 C1640 1.363 . S
C1641 C1644 1.363 . S
N1642 C1644 1.356 . S
N1642 H1654 0.984 . S
N1642 H1655 0.985 . S
N1643 C1645 1.356 . S
N1643 H1648 0.984 . S
N1643 H1649 0.985 . S
C1644 C1638 1.379 . S
C1644 C1641 1.363 . S
C1644 N1642 1.356 . S
C1645 C1639 1.363 . S
C1645 C1640 1.379 . S
C1645 N1643 1.356 . S
N1646 C1638 1.356 . S
N1646 H1652 0.984 . S
N1646 H1653 0.984 . S
N1647 C1640 1.356 . S
N1647 H1650 0.984 . S
N1647 H1651 0.985 . S
H1648 N1643 0.984 . S
H1649 N1643 0.985 . S
H1650 N1647 0.984 . S
H1651 N1647 0.985 . S
H1652 N1646 0.984 . S
H1653 N1646 0.984 . S
H1654 N1642 0.984 . S
H1655 N1642 0.985 . S
C1656 C1657 1.363 . S
C1656 C1662 1.379 . S
C1656 N1664 1.356 . S
C1657 C1656 1.363 . S
C1657 C1663 1.363 . S
C1658 C1659 1.363 . S
C1658 C1663 1.379 . S
C1658 N1665 1.356 . S
C1659 C1658 1.363 . S
C1659 C1662 1.363 . S
N1660 C1662 1.356 . S
N1660 H1672 0.984 . S
N1660 H1673 0.985 . S
N1661 C1663 1.356 . S
N1661 H1666 0.984 . S
N1661 H1667 0.985 . S
C1662 C1656 1.379 . S
C1662 C1659 1.363 . S
C1662 N1660 1.356 . S
C1663 C1657 1.363 . S
C1663 C1658 1.379 . S
C1663 N1661 1.356 . S
N1664 C1656 1.356 . S
N1664 H1670 0.984 . S
N1664 H1671 0.984 . S
N1665 C1658 1.356 . S
N1665 H1668 0.984 . S
N1665 H1669 0.985 . S
H1666 N1661 0.984 . S
H1667 N1661 0.985 . S
H1668 N1665 0.984 . S
H1669 N1665 0.985 . S
H1670 N1664 0.984 . S
H1671 N1664 0.984 . S
H1672 N1660 0.984 . S
H1673 N1660 0.985 . S
C1674 C1675 1.363 . S
C1674 C1680 1.379 . S
C1674 N1682 1.356 . S
C1675 C1674 1.363 . S
C1675 C1681 1.363 . S
C1676 C1677 1.363 . S
C1676 C1681 1.379 . S
C1676 N1683 1.356 . S
C1677 C1676 1.363 . S
C1677 C1680 1.363 . S
N1678 C1680 1.356 . S
N1678 H1690 0.984 . S
N1678 H1691 0.985 . S
N1679 C1681 1.356 . S
N1679 H1684 0.984 . S
N1679 H1685 0.985 . S
C1680 C1674 1.379 . S
C1680 C1677 1.363 . S
C1680 N1678 1.356 . S
C1681 C1675 1.363 . S
C1681 C1676 1.379 . S
C1681 N1679 1.356 . S
N1682 C1674 1.356 . S
N1682 H1688 0.984 . S
N1682 H1689 0.984 . S
N1683 C1676 1.356 . S
N1683 H1686 0.984 . S
N1683 H1687 0.985 . S
H1684 N1679 0.984 . S
H1685 N1679 0.985 . S
H1686 N1683 0.984 . S
H1687 N1683 0.985 . S
H1688 N1682 0.984 . S
H1689 N1682 0.984 . S
H1690 N1678 0.984 . S
H1691 N1678 0.985 . S
C1692 C1693 1.363 . S
C1692 C1698 1.379 . S
C1692 N1700 1.356 . S
C1693 C1692 1.363 . S
C1693 C1699 1.363 . S
C1694 C1695 1.363 . S
C1694 C1699 1.379 . S
C1694 N1701 1.356 . S
C1695 C1694 1.363 . S
C1695 C1698 1.363 . S
N1696 C1698 1.356 . S
N1696 H1708 0.984 . S
N1696 H1709 0.985 . S
N1697 C1699 1.356 . S
N1697 H1702 0.984 . S
N1697 H1703 0.985 . S
C1698 C1692 1.379 . S
C1698 C1695 1.363 . S
C1698 N1696 1.356 . S
C1699 C1693 1.363 . S
C1699 C1694 1.379 . S
C1699 N1697 1.356 . S
N1700 C1692 1.356 . S
N1700 H1706 0.984 . S
N1700 H1707 0.984 . S
N1701 C1694 1.356 . S
N1701 H1704 0.984 . S
N1701 H1705 0.985 . S
H1702 N1697 0.984 . S
H1703 N1697 0.985 . S
H1704 N1701 0.984 . S
H1705 N1701 0.985 . S
H1706 N1700 0.984 . S
H1707 N1700 0.984 . S
H1708 N1696 0.984 . S
H1709 N1696 0.985 . S
C1710 C1711 1.363 . S
C1710 C1716 1.379 . S
C1710 N1718 1.356 . S
C1711 C1710 1.363 . S
C1711 C1717 1.363 . S
C1712 C1713 1.363 . S
C1712 C1717 1.379 . S
C1712 N1719 1.356 . S
C1713 C1712 1.363 . S
C1713 C1716 1.363 . S
N1714 C1716 1.356 . S
N1714 H1726 0.984 . S
N1714 H1727 0.985 . S
N1715 C1717 1.356 . S
N1715 H1720 0.984 . S
N1715 H1721 0.985 . S
C1716 C1710 1.379 . S
C1716 C1713 1.363 . S
C1716 N1714 1.356 . S
C1717 C1711 1.363 . S
C1717 C1712 1.379 . S
C1717 N1715 1.356 . S
N1718 C1710 1.356 . S
N1718 H1724 0.984 . S
N1718 H1725 0.984 . S
N1719 C1712 1.356 . S
N1719 H1722 0.984 . S
N1719 H1723 0.985 . S
H1720 N1715 0.984 . S
H1721 N1715 0.985 . S
H1722 N1719 0.984 . S
H1723 N1719 0.985 . S
H1724 N1718 0.984 . S
H1725 N1718 0.984 . S
H1726 N1714 0.984 . S
H1727 N1714 0.985 . S
C1728 C1729 1.363 . S
C1728 C1734 1.379 . S
C1728 N1736 1.356 . S
C1729 C1728 1.363 . S
C1729 C1735 1.363 . S
C1730 C1731 1.363 . S
C1730 C1735 1.379 . S
C1730 N1737 1.356 . S
C1731 C1730 1.363 . S
C1731 C1734 1.363 . S
N1732 C1734 1.356 . S
N1732 H1744 0.984 . S
N1732 H1745 0.985 . S
N1733 C1735 1.356 . S
N1733 H1738 0.984 . S
N1733 H1739 0.985 . S
C1734 C1728 1.379 . S
C1734 C1731 1.363 . S
C1734 N1732 1.356 . S
C1735 C1729 1.363 . S
C1735 C1730 1.379 . S
C1735 N1733 1.356 . S
N1736 C1728 1.356 . S
N1736 H1742 0.984 . S
N1736 H1743 0.984 . S
N1737 C1730 1.356 . S
N1737 H1740 0.984 . S
N1737 H1741 0.985 . S
H1738 N1733 0.984 . S
H1739 N1733 0.985 . S
H1740 N1737 0.984 . S
H1741 N1737 0.985 . S
H1742 N1736 0.984 . S
H1743 N1736 0.984 . S
H1744 N1732 0.984 . S
H1745 N1732 0.985 . S
C1746 C1747 1.363 . S
C1746 C1752 1.379 . S
C1746 N1754 1.356 . S
C1747 C1746 1.363 . S
C1747 C1753 1.363 . S
C1748 C1749 1.363 . S
C1748 C1753 1.379 . S
C1748 N1755 1.356 . S
C1749 C1748 1.363 . S
C1749 C1752 1.363 . S
N1750 C1752 1.356 . S
N1750 H1762 0.984 . S
N1750 H1763 0.985 . S
N1751 C1753 1.356 . S
N1751 H1756 0.984 . S
N1751 H1757 0.985 . S
C1752 C1746 1.379 . S
C1752 C1749 1.363 . S
C1752 N1750 1.356 . S
C1753 C1747 1.363 . S
C1753 C1748 1.379 . S
C1753 N1751 1.356 . S
N1754 C1746 1.356 . S
N1754 H1760 0.984 . S
N1754 H1761 0.984 . S
N1755 C1748 1.356 . S
N1755 H1758 0.984 . S
N1755 H1759 0.985 . S
H1756 N1751 0.984 . S
H1757 N1751 0.985 . S
H1758 N1755 0.984 . S
H1759 N1755 0.985 . S
H1760 N1754 0.984 . S
H1761 N1754 0.984 . S
H1762 N1750 0.984 . S
H1763 N1750 0.985 . S
C1764 C1765 1.363 . S
C1764 C1770 1.379 . S
C1764 N1772 1.356 . S
C1765 C1764 1.363 . S
C1765 C1771 1.363 . S
C1766 C1767 1.363 . S
C1766 C1771 1.379 . S
C1766 N1773 1.356 . S
C1767 C1766 1.363 . S
C1767 C1770 1.363 . S
N1768 C1770 1.356 . S
N1768 H1780 0.984 . S
N1768 H1781 0.985 . S
N1769 C1771 1.356 . S
N1769 H1774 0.984 . S
N1769 H1775 0.985 . S
C1770 C1764 1.379 . S
C1770 C1767 1.363 . S
C1770 N1768 1.356 . S
C1771 C1765 1.363 . S
C1771 C1766 1.379 . S
C1771 N1769 1.356 . S
N1772 C1764 1.356 . S
N1772 H1778 0.984 . S
N1772 H1779 0.984 . S
N1773 C1766 1.356 . S
N1773 H1776 0.984 . S
N1773 H1777 0.985 . S
H1774 N1769 0.984 . S
H1775 N1769 0.985 . S
H1776 N1773 0.984 . S
H1777 N1773 0.985 . S
H1778 N1772 0.984 . S
H1779 N1772 0.984 . S
H1780 N1768 0.984 . S
H1781 N1768 0.985 . S
C1782 C1783 1.363 . S
C1782 C1788 1.379 . S
C1782 N1790 1.356 . S
C1783 C1782 1.363 . S
C1783 C1789 1.363 . S
C1784 C1785 1.363 . S
C1784 C1789 1.379 . S
C1784 N1791 1.356 . S
C1785 C1784 1.363 . S
C1785 C1788 1.363 . S
N1786 C1788 1.356 . S
N1786 H1798 0.984 . S
N1786 H1799 0.985 . S
N1787 C1789 1.356 . S
N1787 H1792 0.984 . S
N1787 H1793 0.985 1_554 S
C1788 C1782 1.379 . S
C1788 C1785 1.363 . S
C1788 N1786 1.356 . S
C1789 C1783 1.363 . S
C1789 C1784 1.379 . S
C1789 N1787 1.356 . S
N1790 C1782 1.356 . S
N1790 H1796 0.984 . S
N1790 H1797 0.984 . S
N1791 C1784 1.356 . S
N1791 H1794 0.984 . S
N1791 H1795 0.985 . S
H1792 N1787 0.984 . S
H1793 N1787 0.985 1_556 S
H1794 N1791 0.984 . S
H1795 N1791 0.985 . S
H1796 N1790 0.984 . S
H1797 N1790 0.984 . S
H1798 N1786 0.984 . S
H1799 N1786 0.985 . S
C1800 C1801 1.363 . S
C1800 C1806 1.379 . S
C1800 N1808 1.356 . S
C1801 C1800 1.363 . S
C1801 C1807 1.363 . S
C1802 C1803 1.363 . S
C1802 C1807 1.379 . S
C1802 N1809 1.356 . S
C1803 C1802 1.363 . S
C1803 C1806 1.363 . S
N1804 C1806 1.356 . S
N1804 H1816 0.984 . S
N1804 H1817 0.985 . S
N1805 C1807 1.356 1_554 S
N1805 H1810 0.984 . S
N1805 H1811 0.985 . S
C1806 C1800 1.379 . S
C1806 C1803 1.363 . S
C1806 N1804 1.356 . S
C1807 C1801 1.363 . S
C1807 C1802 1.379 . S
C1807 N1805 1.356 1_556 S
N1808 C1800 1.356 . S
N1808 H1814 0.984 . S
N1808 H1815 0.984 . S
N1809 C1802 1.356 . S
N1809 H1812 0.984 . S
N1809 H1813 0.985 . S
H1810 N1805 0.984 . S
H1811 N1805 0.985 . S
H1812 N1809 0.984 . S
H1813 N1809 0.985 . S
H1814 N1808 0.984 . S
H1815 N1808 0.984 . S
H1816 N1804 0.984 . S
H1817 N1804 0.985 . S
C1818 C1819 1.363 . S
C1818 C1824 1.379 . S
C1818 N1826 1.356 . S
C1819 C1818 1.363 . S
C1819 C1825 1.363 . S
C1820 C1821 1.363 . S
C1820 C1825 1.379 . S
C1820 N1827 1.356 . S
C1821 C1820 1.363 . S
C1821 C1824 1.363 . S
N1822 C1824 1.356 . S
N1822 H1834 0.984 . S
N1822 H1835 0.985 . S
N1823 C1825 1.356 1_554 S
N1823 H1828 0.984 . S
N1823 H1829 0.985 . S
C1824 C1818 1.379 . S
C1824 C1821 1.363 . S
C1824 N1822 1.356 . S
C1825 C1819 1.363 . S
C1825 C1820 1.379 . S
C1825 N1823 1.356 1_556 S
N1826 C1818 1.356 . S
N1826 H1832 0.984 . S
N1826 H1833 0.984 . S
N1827 C1820 1.356 . S
N1827 H1830 0.984 . S
N1827 H1831 0.985 . S
H1828 N1823 0.984 . S
H1829 N1823 0.985 . S
H1830 N1827 0.984 . S
H1831 N1827 0.985 . S
H1832 N1826 0.984 . S
H1833 N1826 0.984 . S
H1834 N1822 0.984 . S
H1835 N1822 0.985 . S
C1836 C1837 1.363 . S
C1836 C1842 1.379 . S
C1836 N1844 1.356 . S
C1837 C1836 1.363 . S
C1837 C1843 1.363 . S
C1838 C1839 1.363 . S
C1838 C1843 1.379 . S
C1838 N1845 1.356 . S
C1839 C1838 1.363 . S
C1839 C1842 1.363 . S
N1840 C1842 1.356 . S
N1840 H1852 0.984 . S
N1840 H1853 0.985 . S
N1841 C1843 1.356 . S
N1841 H1846 0.984 . S
N1841 H1847 0.985 . S
C1842 C1836 1.379 . S
C1842 C1839 1.363 . S
C1842 N1840 1.356 . S
C1843 C1837 1.363 . S
C1843 C1838 1.379 . S
C1843 N1841 1.356 . S
N1844 C1836 1.356 . S
N1844 H1850 0.984 . S
N1844 H1851 0.984 . S
N1845 C1838 1.356 . S
N1845 H1848 0.984 . S
N1845 H1849 0.985 . S
H1846 N1841 0.984 . S
H1847 N1841 0.985 . S
H1848 N1845 0.984 . S
H1849 N1845 0.985 . S
H1850 N1844 0.984 . S
H1851 N1844 0.984 . S
H1852 N1840 0.984 . S
H1853 N1840 0.985 . S
C1854 C1855 1.363 . S
C1854 C1860 1.379 . S
C1854 N1862 1.384 . S
C1855 C1854 1.363 . S
C1855 C1861 1.363 . S
C1856 C1857 1.363 . S
C1856 C1861 1.379 . S
C1856 N1863 1.356 . S
C1857 C1856 1.363 . S
C1857 C1860 1.363 . S
N1858 C1860 1.356 . S
N1858 H1870 0.984 . S
N1858 H1871 0.985 . S
N1859 C1861 1.356 . S
N1859 H1864 0.984 . S
N1859 H1865 0.985 . S
C1860 C1854 1.379 . S
C1860 C1857 1.363 . S
C1860 N1858 1.356 . S
C1861 C1855 1.363 . S
C1861 C1856 1.379 . S
C1861 N1859 1.356 . S
N1862 C1854 1.384 . S
N1862 H1868 0.967 1_556 S
N1862 H1869 0.976 1_556 S
N1863 C1856 1.356 . S
N1863 H1866 0.984 . S
N1863 H1867 0.985 . S
H1864 N1859 0.984 . S
H1865 N1859 0.985 . S
H1866 N1863 0.984 . S
H1867 N1863 0.985 . S
H1868 N1862 0.967 1_554 S
H1869 N1862 0.976 1_554 S
H1870 N1858 0.984 . S
H1871 N1858 0.985 . S
C1872 C1873 1.363 . S
C1872 C1878 1.379 . S
C1872 N1880 1.356 1_556 S
C1873 C1872 1.363 . S
C1873 C1879 1.363 . S
C1874 C1875 1.363 . S
C1874 C1879 1.379 . S
C1874 N1881 1.356 . S
C1875 C1874 1.363 . S
C1875 C1878 1.363 . S
N1876 C1878 1.356 . S
N1876 H1888 0.984 . S
N1876 H1889 0.985 . S
N1877 C1879 1.356 . S
N1877 H1882 0.984 . S
N1877 H1883 0.985 . S
C1878 C1872 1.379 . S
C1878 C1875 1.363 . S
C1878 N1876 1.356 . S
C1879 C1873 1.363 . S
C1879 C1874 1.379 . S
C1879 N1877 1.356 . S
N1880 C1872 1.356 1_554 S
N1880 H1886 0.984 . S
N1880 H1887 0.984 . S
N1881 C1874 1.356 . S
N1881 H1884 0.984 . S
N1881 H1885 0.985 . S
H1882 N1877 0.984 . S
H1883 N1877 0.985 . S
H1884 N1881 0.984 . S
H1885 N1881 0.985 . S
H1886 N1880 0.984 . S
H1887 N1880 0.984 . S
H1888 N1876 0.984 . S
H1889 N1876 0.985 . S
C1890 C1891 1.363 . S
C1890 C1896 1.379 . S
C1890 N1898 1.356 . S
C1891 C1890 1.363 . S
C1891 C1897 1.363 . S
C1892 C1893 1.363 . S
C1892 C1897 1.379 . S
C1892 N1899 1.356 . S
C1893 C1892 1.363 . S
C1893 C1896 1.363 . S
N1894 C1896 1.356 . S
N1894 H1906 0.984 . S
N1894 H1907 0.985 . S
N1895 C1897 1.379 . S
N1895 H1900 0.977 1_556 S
N1895 H1901 0.970 1_556 S
C1896 C1890 1.379 . S
C1896 C1893 1.363 . S
C1896 N1894 1.356 . S
C1897 C1891 1.363 . S
C1897 C1892 1.379 . S
C1897 N1895 1.379 . S
N1898 C1890 1.356 . S
N1898 H1904 0.984 . S
N1898 H1905 0.984 . S
N1899 C1892 1.356 . S
N1899 H1902 0.984 . S
N1899 H1903 0.985 . S
H1900 N1895 0.977 1_554 S
H1901 N1895 0.970 1_554 S
H1902 N1899 0.984 . S
H1903 N1899 0.985 . S
H1904 N1898 0.984 . S
H1905 N1898 0.984 . S
H1906 N1894 0.984 . S
H1907 N1894 0.985 . S
C1908 C1909 1.363 . S
C1908 C1914 1.379 . S
C1908 N1916 1.356 . S
C1909 C1908 1.363 . S
C1909 C1915 1.363 . S
C1910 C1911 1.363 . S
C1910 C1915 1.379 . S
C1910 N1917 1.356 . S
C1911 C1910 1.363 . S
C1911 C1914 1.363 . S
N1912 C1914 1.356 . S
N1912 H1924 0.984 . S
N1912 H1925 0.985 . S
N1913 C1915 1.356 . S
N1913 H1918 0.984 . S
N1913 H1919 0.985 . S
C1914 C1908 1.379 . S
C1914 C1911 1.363 . S
C1914 N1912 1.356 . S
C1915 C1909 1.363 . S
C1915 C1910 1.379 . S
C1915 N1913 1.356 . S
N1916 C1908 1.356 . S
N1916 H1922 0.984 . S
N1916 H1923 0.984 . S
N1917 C1910 1.356 . S
N1917 H1920 0.984 . S
N1917 H1921 0.985 . S
H1918 N1913 0.984 . S
H1919 N1913 0.985 . S
H1920 N1917 0.984 . S
H1921 N1917 0.985 . S
H1922 N1916 0.984 . S
H1923 N1916 0.984 . S
H1924 N1912 0.984 . S
H1925 N1912 0.985 . S
C1926 C1927 1.363 . S
C1926 C1932 1.379 . S
C1926 N1934 1.356 . S
C1927 C1926 1.363 . S
C1927 C1933 1.363 . S
C1928 C1929 1.363 . S
C1928 C1933 1.379 . S
C1928 N1935 1.356 . S
C1929 C1928 1.363 . S
C1929 C1932 1.363 . S
N1930 C1932 1.356 . S
N1930 H1942 0.984 . S
N1930 H1943 0.985 . S
N1931 C1933 1.356 . S
N1931 H1936 0.984 . S
N1931 H1937 0.985 . S
C1932 C1926 1.379 . S
C1932 C1929 1.363 . S
C1932 N1930 1.356 . S
C1933 C1927 1.363 . S
C1933 C1928 1.379 . S
C1933 N1931 1.356 . S
N1934 C1926 1.356 . S
N1934 H1940 0.984 . S
N1934 H1941 0.984 . S
N1935 C1928 1.356 . S
N1935 H1938 0.984 . S
N1935 H1939 0.985 . S
H1936 N1931 0.984 . S
H1937 N1931 0.985 . S
H1938 N1935 0.984 . S
H1939 N1935 0.985 . S
H1940 N1934 0.984 . S
H1941 N1934 0.984 . S
H1942 N1930 0.984 . S
H1943 N1930 0.985 . S
C1944 C1945 1.363 . S
C1944 C1950 1.379 . S
C1944 N1952 1.356 . S
C1945 C1944 1.363 . S
C1945 C1951 1.363 . S
C1946 C1947 1.363 . S
C1946 C1951 1.379 . S
C1946 N1953 1.356 . S
C1947 C1946 1.363 . S
C1947 C1950 1.363 . S
N1948 C1950 1.356 . S
N1948 H1960 0.984 . S
N1948 H1961 0.985 . S
N1949 C1951 1.356 . S
N1949 H1954 0.984 . S
N1949 H1955 0.985 . S
C1950 C1944 1.379 . S
C1950 C1947 1.363 . S
C1950 N1948 1.356 . S
C1951 C1945 1.363 . S
C1951 C1946 1.379 . S
C1951 N1949 1.356 . S
N1952 C1944 1.356 . S
N1952 H1958 0.984 . S
N1952 H1959 0.984 . S
N1953 C1946 1.356 . S
N1953 H1956 0.984 . S
N1953 H1957 0.985 . S
H1954 N1949 0.984 . S
H1955 N1949 0.985 . S
H1956 N1953 0.984 . S
H1957 N1953 0.985 . S
H1958 N1952 0.984 . S
H1959 N1952 0.984 . S
H1960 N1948 0.984 . S
H1961 N1948 0.985 . S
C1962 C1963 1.363 . S
C1962 C1968 1.379 . S
C1962 N1970 1.356 . S
C1963 C1962 1.363 . S
C1963 C1969 1.363 . S
C1964 C1965 1.363 . S
C1964 C1969 1.379 . S
C1964 N1971 1.356 . S
C1965 C1964 1.363 . S
C1965 C1968 1.363 . S
N1966 C1968 1.356 . S
N1966 H1978 0.984 . S
N1966 H1979 0.985 . S
N1967 C1969 1.356 . S
N1967 H1972 0.984 . S
N1967 H1973 0.985 . S
C1968 C1962 1.379 . S
C1968 C1965 1.363 . S
C1968 N1966 1.356 . S
C1969 C1963 1.363 . S
C1969 C1964 1.379 . S
C1969 N1967 1.356 . S
N1970 C1962 1.356 . S
N1970 H1976 0.984 . S
N1970 H1977 0.984 . S
N1971 C1964 1.356 . S
N1971 H1974 0.984 . S
N1971 H1975 0.985 . S
H1972 N1967 0.984 . S
H1973 N1967 0.985 . S
H1974 N1971 0.984 . S
H1975 N1971 0.985 . S
H1976 N1970 0.984 . S
H1977 N1970 0.984 . S
H1978 N1966 0.984 . S
H1979 N1966 0.985 . S
C1980 C1981 1.363 . S
C1980 C1986 1.379 . S
C1980 N1988 1.356 . S
C1981 C1980 1.363 . S
C1981 C1987 1.363 . S
C1982 C1983 1.363 . S
C1982 C1987 1.379 . S
C1982 N1989 1.356 . S
C1983 C1982 1.363 . S
C1983 C1986 1.363 . S
N1984 C1986 1.356 . S
N1984 H1996 0.984 . S
N1984 H1997 0.985 . S
N1985 C1987 1.356 . S
N1985 H1990 0.984 . S
N1985 H1991 0.985 . S
C1986 C1980 1.379 . S
C1986 C1983 1.363 . S
C1986 N1984 1.356 . S
C1987 C1981 1.363 . S
C1987 C1982 1.379 . S
C1987 N1985 1.356 . S
N1988 C1980 1.356 . S
N1988 H1994 0.984 . S
N1988 H1995 0.984 . S
N1989 C1982 1.356 . S
N1989 H1992 0.984 . S
N1989 H1993 0.985 . S
H1990 N1985 0.984 . S
H1991 N1985 0.985 . S
H1992 N1989 0.984 . S
H1993 N1989 0.985 . S
H1994 N1988 0.984 . S
H1995 N1988 0.984 . S
H1996 N1984 0.984 . S
H1997 N1984 0.985 . S
C1998 C1999 1.363 . S
C1998 C2004 1.379 . S
C1998 N2006 1.356 . S
C1999 C1998 1.363 . S
C1999 C2005 1.363 . S
C2000 C2001 1.363 . S
C2000 C2005 1.379 . S
C2000 N2007 1.356 . S
C2001 C2000 1.363 . S
C2001 C2004 1.363 . S
N2002 C2004 1.356 . S
N2002 H2014 0.984 . S
N2002 H2015 0.985 . S
N2003 C2005 1.356 . S
N2003 H2008 0.984 . S
N2003 H2009 0.985 . S
C2004 C1998 1.379 . S
C2004 C2001 1.363 . S
C2004 N2002 1.356 . S
C2005 C1999 1.363 . S
C2005 C2000 1.379 . S
C2005 N2003 1.356 . S
N2006 C1998 1.356 . S
N2006 H2012 0.984 . S
N2006 H2013 0.984 . S
N2007 C2000 1.356 . S
N2007 H2010 0.984 . S
N2007 H2011 0.985 . S
H2008 N2003 0.984 . S
H2009 N2003 0.985 . S
H2010 N2007 0.984 . S
H2011 N2007 0.985 . S
H2012 N2006 0.984 . S
H2013 N2006 0.984 . S
H2014 N2002 0.984 . S
H2015 N2002 0.985 . S
C2016 C2017 1.363 . S
C2016 C2022 1.379 . S
C2016 N2024 1.353 . S
C2017 C2016 1.363 . S
C2017 C2023 1.363 . S
C2018 C2019 1.363 . S
C2018 C2023 1.379 . S
C2018 N2025 1.356 . S
C2019 C2018 1.363 . S
C2019 C2022 1.363 . S
N2020 C2022 1.356 1_655 S
N2020 H2032 0.984 . S
N2020 H2033 0.985 . S
N2021 C2023 1.356 . S
N2021 H2026 0.984 . S
N2021 H2027 0.985 . S
C2022 C2016 1.379 . S
C2022 C2019 1.363 . S
C2022 N2020 1.356 1_455 S
C2023 C2017 1.363 . S
C2023 C2018 1.379 . S
C2023 N2021 1.356 . S
N2024 C2016 1.353 . S
N2024 H2030 0.966 1_455 S
N2024 H2031 1.008 . S
N2025 C2018 1.356 . S
N2025 H2028 0.984 . S
N2025 H2029 0.985 . S
H2026 N2021 0.984 . S
H2027 N2021 0.985 . S
H2028 N2025 0.984 . S
H2029 N2025 0.985 . S
H2030 N2024 0.966 1_655 S
H2031 N2024 1.008 . S
H2032 N2020 0.984 . S
H2033 N2020 0.985 . S
C2034 C2035 1.363 . S
C2034 C2040 1.379 . S
C2034 N2042 1.356 . S
C2035 C2034 1.363 . S
C2035 C2041 1.363 . S
C2036 C2037 1.363 . S
C2036 C2041 1.379 . S
C2036 N2043 1.356 . S
C2037 C2036 1.363 . S
C2037 C2040 1.363 . S
N2038 C2040 1.356 . S
N2038 H2050 0.984 . S
N2038 H2051 0.985 . S
N2039 C2041 1.356 . S
N2039 H2044 0.984 . S
N2039 H2045 0.985 . S
C2040 C2034 1.379 . S
C2040 C2037 1.363 . S
C2040 N2038 1.356 . S
C2041 C2035 1.363 . S
C2041 C2036 1.379 . S
C2041 N2039 1.356 . S
N2042 C2034 1.356 . S
N2042 H2048 0.984 . S
N2042 H2049 0.984 . S
N2043 C2036 1.356 . S
N2043 H2046 0.984 . S
N2043 H2047 0.985 . S
H2044 N2039 0.984 . S
H2045 N2039 0.985 . S
H2046 N2043 0.984 . S
H2047 N2043 0.985 . S
H2048 N2042 0.984 . S
H2049 N2042 0.984 . S
H2050 N2038 0.984 . S
H2051 N2038 0.985 . S
C2052 C2053 1.363 . S
C2052 C2058 1.379 . S
C2052 N2060 1.356 . S
C2053 C2052 1.363 . S
C2053 C2059 1.363 1_565 S
C2054 C2055 1.363 1_545 S
C2054 C2059 1.379 . S
C2054 N2061 1.356 . S
C2055 C2054 1.363 1_565 S
C2055 C2058 1.363 . S
N2056 C2058 1.356 . S
N2056 H2068 0.984 . S
N2056 H2069 0.985 . S
N2057 C2059 1.356 . S
N2057 H2062 0.984 . S
N2057 H2063 0.985 . S
C2058 C2052 1.379 . S
C2058 C2055 1.363 . S
C2058 N2056 1.356 . S
C2059 C2053 1.363 1_545 S
C2059 C2054 1.379 . S
C2059 N2057 1.356 . S
N2060 C2052 1.356 . S
N2060 H2066 0.984 . S
N2060 H2067 0.984 . S
N2061 C2054 1.356 . S
N2061 H2064 0.984 . S
N2061 H2065 0.985 . S
H2062 N2057 0.984 . S
H2063 N2057 0.985 . S
H2064 N2061 0.984 . S
H2065 N2061 0.985 . S
H2066 N2060 0.984 . S
H2067 N2060 0.984 . S
H2068 N2056 0.984 . S
H2069 N2056 0.985 . S
C2070 C2071 1.363 . S
C2070 C2076 1.379 . S
C2070 N2078 1.356 . S
C2071 C2070 1.363 . S
C2071 C2077 1.363 1_565 S
C2072 C2073 1.363 1_545 S
C2072 C2077 1.379 . S
C2072 N2079 1.356 . S
C2073 C2072 1.363 1_565 S
C2073 C2076 1.363 . S
N2074 C2076 1.356 . S
N2074 H2086 0.984 . S
N2074 H2087 0.985 . S
N2075 C2077 1.356 . S
N2075 H2080 0.984 . S
N2075 H2081 0.985 . S
C2076 C2070 1.379 . S
C2076 C2073 1.363 . S
C2076 N2074 1.356 . S
C2077 C2071 1.363 1_545 S
C2077 C2072 1.379 . S
C2077 N2075 1.356 . S
N2078 C2070 1.356 . S
N2078 H2084 0.984 . S
N2078 H2085 0.984 . S
N2079 C2072 1.356 . S
N2079 H2082 0.984 . S
N2079 H2083 0.985 . S
H2080 N2075 0.984 . S
H2081 N2075 0.985 . S
H2082 N2079 0.984 . S
H2083 N2079 0.985 . S
H2084 N2078 0.984 . S
H2085 N2078 0.984 . S
H2086 N2074 0.984 . S
H2087 N2074 0.985 . S
C2088 C2089 1.363 . S
C2088 C2094 1.379 . S
C2088 N2096 1.356 . S
C2089 C2088 1.363 . S
C2089 C2095 1.363 1_455 S
C2090 C2091 1.363 1_655 S
C2090 C2095 1.379 . S
C2090 N2097 1.356 . S
C2091 C2090 1.363 1_455 S
C2091 C2094 1.363 . S
N2092 C2094 1.356 . S
N2092 H2104 0.984 . S
N2092 H2105 0.985 . S
N2093 C2095 1.356 . S
N2093 H2098 0.984 . S
N2093 H2099 0.985 . S
C2094 C2088 1.379 . S
C2094 C2091 1.363 . S
C2094 N2092 1.356 . S
C2095 C2089 1.363 1_655 S
C2095 C2090 1.379 . S
C2095 N2093 1.356 . S
N2096 C2088 1.356 . S
N2096 H2102 0.984 . S
N2096 H2103 0.984 . S
N2097 C2090 1.356 . S
N2097 H2100 0.984 . S
N2097 H2101 0.985 . S
H2098 N2093 0.984 . S
H2099 N2093 0.985 . S
H2100 N2097 0.984 . S
H2101 N2097 0.985 . S
H2102 N2096 0.984 . S
H2103 N2096 0.984 . S
H2104 N2092 0.984 . S
H2105 N2092 0.985 . S
C2106 C2107 1.363 . S
C2106 C2112 1.379 . S
C2106 N2114 1.356 . S
C2107 C2106 1.363 . S
C2107 C2113 1.363 . S
C2108 C2109 1.363 . S
C2108 C2113 1.379 . S
C2108 N2115 1.356 . S
C2109 C2108 1.363 . S
C2109 C2112 1.363 . S
N2110 C2112 1.356 . S
N2110 H2122 0.984 . S
N2110 H2123 0.985 . S
N2111 C2113 1.356 . S
N2111 H2116 0.984 . S
N2111 H2117 0.985 . S
C2112 C2106 1.379 . S
C2112 C2109 1.363 . S
C2112 N2110 1.356 . S
C2113 C2107 1.363 . S
C2113 C2108 1.379 . S
C2113 N2111 1.356 . S
N2114 C2106 1.356 . S
N2114 H2120 0.984 . S
N2114 H2121 0.984 . S
N2115 C2108 1.356 . S
N2115 H2118 0.984 . S
N2115 H2119 0.985 . S
H2116 N2111 0.984 . S
H2117 N2111 0.985 . S
H2118 N2115 0.984 . S
H2119 N2115 0.985 . S
H2120 N2114 0.984 . S
H2121 N2114 0.984 . S
H2122 N2110 0.984 . S
H2123 N2110 0.985 . S
C2124 C2125 1.363 . S
C2124 C2130 1.379 . S
C2124 N2132 1.356 . S
C2125 C2124 1.363 . S
C2125 C2131 1.363 . S
C2126 C2127 1.363 . S
C2126 C2131 1.379 . S
C2126 N2133 1.356 . S
C2127 C2126 1.363 . S
C2127 C2130 1.363 . S
N2128 C2130 1.356 . S
N2128 H2140 0.984 . S
N2128 H2141 0.985 . S
N2129 C2131 1.356 . S
N2129 H2134 0.984 . S
N2129 H2135 0.985 . S
C2130 C2124 1.379 . S
C2130 C2127 1.363 . S
C2130 N2128 1.356 . S
C2131 C2125 1.363 . S
C2131 C2126 1.379 . S
C2131 N2129 1.356 . S
N2132 C2124 1.356 . S
N2132 H2138 0.984 . S
N2132 H2139 0.984 . S
N2133 C2126 1.356 . S
N2133 H2136 0.984 . S
N2133 H2137 0.985 . S
H2134 N2129 0.984 . S
H2135 N2129 0.985 . S
H2136 N2133 0.984 . S
H2137 N2133 0.985 . S
H2138 N2132 0.984 . S
H2139 N2132 0.984 . S
H2140 N2128 0.984 . S
H2141 N2128 0.985 . S
C2142 C2143 1.363 . S
C2142 C2148 1.379 . S
C2142 N2150 1.356 . S
C2143 C2142 1.363 . S
C2143 C2149 1.363 . S
C2144 C2145 1.363 . S
C2144 C2149 1.379 . S
C2144 N2151 1.356 . S
C2145 C2144 1.363 . S
C2145 C2148 1.363 . S
N2146 C2148 1.356 . S
N2146 H2158 0.984 . S
N2146 H2159 0.985 . S
N2147 C2149 1.356 . S
N2147 H2152 0.984 . S
N2147 H2153 0.985 . S
C2148 C2142 1.379 . S
C2148 C2145 1.363 . S
C2148 N2146 1.356 . S
C2149 C2143 1.363 . S
C2149 C2144 1.379 . S
C2149 N2147 1.356 . S
N2150 C2142 1.356 . S
N2150 H2156 0.984 . S
N2150 H2157 0.984 . S
N2151 C2144 1.356 . S
N2151 H2154 0.984 . S
N2151 H2155 0.985 . S
H2152 N2147 0.984 . S
H2153 N2147 0.985 . S
H2154 N2151 0.984 . S
H2155 N2151 0.985 . S
H2156 N2150 0.984 . S
H2157 N2150 0.984 . S
H2158 N2146 0.984 . S
H2159 N2146 0.985 . S
C2160 C2161 1.363 . S
C2160 C2166 1.379 . S
C2160 N2168 1.356 . S
C2161 C2160 1.363 . S
C2161 C2167 1.363 . S
C2162 C2163 1.363 . S
C2162 C2167 1.379 . S
C2162 N2169 1.356 . S
C2163 C2162 1.363 . S
C2163 C2166 1.363 . S
N2164 C2166 1.356 . S
N2164 H2176 0.984 . S
N2164 H2177 0.985 . S
N2165 C2167 1.356 . S
N2165 H2170 0.984 . S
N2165 H2171 0.985 . S
C2166 C2160 1.379 . S
C2166 C2163 1.363 . S
C2166 N2164 1.356 . S
C2167 C2161 1.363 . S
C2167 C2162 1.379 . S
C2167 N2165 1.356 . S
N2168 C2160 1.356 . S
N2168 H2174 0.984 . S
N2168 H2175 0.984 . S
N2169 C2162 1.356 . S
N2169 H2172 0.984 . S
N2169 H2173 0.985 . S
H2170 N2165 0.984 . S
H2171 N2165 0.985 . S
H2172 N2169 0.984 . S
H2173 N2169 0.985 . S
H2174 N2168 0.984 . S
H2175 N2168 0.984 . S
H2176 N2164 0.984 . S
H2177 N2164 0.985 . S
C2178 C2179 1.363 1_565 S
C2178 C2184 1.379 . S
C2178 N2186 1.356 . S
C2179 C2178 1.363 1_545 S
C2179 C2185 1.363 . S
C2180 C2181 1.363 . S
C2180 C2185 1.379 . S
C2180 N2187 1.356 . S
C2181 C2180 1.363 . S
C2181 C2184 1.363 1_545 S
N2182 C2184 1.356 . S
N2182 H2194 0.984 . S
N2182 H2195 0.985 . S
N2183 C2185 1.356 . S
N2183 H2188 0.984 . S
N2183 H2189 0.985 . S
C2184 C2178 1.379 . S
C2184 C2181 1.363 1_565 S
C2184 N2182 1.356 . S
C2185 C2179 1.363 . S
C2185 C2180 1.379 . S
C2185 N2183 1.356 . S
N2186 C2178 1.356 . S
N2186 H2192 0.984 . S
N2186 H2193 0.984 . S
N2187 C2180 1.356 . S
N2187 H2190 0.984 . S
N2187 H2191 0.985 . S
H2188 N2183 0.984 . S
H2189 N2183 0.985 . S
H2190 N2187 0.984 . S
H2191 N2187 0.985 . S
H2192 N2186 0.984 . S
H2193 N2186 0.984 . S
H2194 N2182 0.984 . S
H2195 N2182 0.985 . S
C2196 C2197 1.363 1_455 S
C2196 C2202 1.379 . S
C2196 N2204 1.356 . S
C2197 C2196 1.363 1_655 S
C2197 C2203 1.363 . S
C2198 C2199 1.363 . S
C2198 C2203 1.379 . S
C2198 N2205 1.356 . S
C2199 C2198 1.363 . S
C2199 C2202 1.363 1_655 S
N2200 C2202 1.356 . S
N2200 H2212 0.984 . S
N2200 H2213 0.985 . S
N2201 C2203 1.356 . S
N2201 H2206 0.984 . S
N2201 H2207 0.985 . S
C2202 C2196 1.379 . S
C2202 C2199 1.363 1_455 S
C2202 N2200 1.356 . S
C2203 C2197 1.363 . S
C2203 C2198 1.379 . S
C2203 N2201 1.356 . S
N2204 C2196 1.356 . S
N2204 H2210 0.984 . S
N2204 H2211 0.984 . S
N2205 C2198 1.356 . S
N2205 H2208 0.984 . S
N2205 H2209 0.985 . S
H2206 N2201 0.984 . S
H2207 N2201 0.985 . S
H2208 N2205 0.984 . S
H2209 N2205 0.985 . S
H2210 N2204 0.984 . S
H2211 N2204 0.984 . S
H2212 N2200 0.984 . S
H2213 N2200 0.985 . S
C2214 C2215 1.363 . S
C2214 C2220 1.379 . S
C2214 N2222 1.356 . S
C2215 C2214 1.363 . S
C2215 C2221 1.363 . S
C2216 C2217 1.363 . S
C2216 C2221 1.379 . S
C2216 N2223 1.356 . S
C2217 C2216 1.363 . S
C2217 C2220 1.363 . S
N2218 C2220 1.356 . S
N2218 H2230 0.984 . S
N2218 H2231 0.985 . S
N2219 C2221 1.356 . S
N2219 H2224 0.984 . S
N2219 H2225 0.985 . S
C2220 C2214 1.379 . S
C2220 C2217 1.363 . S
C2220 N2218 1.356 . S
C2221 C2215 1.363 . S
C2221 C2216 1.379 . S
C2221 N2219 1.356 . S
N2222 C2214 1.356 . S
N2222 H2228 0.984 . S
N2222 H2229 0.984 . S
N2223 C2216 1.356 . S
N2223 H2226 0.984 . S
N2223 H2227 0.985 . S
H2224 N2219 0.984 . S
H2225 N2219 0.985 . S
H2226 N2223 0.984 . S
H2227 N2223 0.985 . S
H2228 N2222 0.984 . S
H2229 N2222 0.984 . S
H2230 N2218 0.984 . S
H2231 N2218 0.985 . S
C2232 C2233 1.363 . S
C2232 C2238 1.379 . S
C2232 N2240 1.356 . S
C2233 C2232 1.363 . S
C2233 C2239 1.363 . S
C2234 C2235 1.363 . S
C2234 C2239 1.379 . S
C2234 N2241 1.356 . S
C2235 C2234 1.363 . S
C2235 C2238 1.363 . S
N2236 C2238 1.356 . S
N2236 H2248 0.984 . S
N2236 H2249 0.985 . S
N2237 C2239 1.356 . S
N2237 H2242 0.984 . S
N2237 H2243 0.985 . S
C2238 C2232 1.379 . S
C2238 C2235 1.363 . S
C2238 N2236 1.356 . S
C2239 C2233 1.363 . S
C2239 C2234 1.379 . S
C2239 N2237 1.356 . S
N2240 C2232 1.356 . S
N2240 H2246 0.984 . S
N2240 H2247 0.984 . S
N2241 C2234 1.356 . S
N2241 H2244 0.984 . S
N2241 H2245 0.985 . S
H2242 N2237 0.984 . S
H2243 N2237 0.985 . S
H2244 N2241 0.984 . S
H2245 N2241 0.985 . S
H2246 N2240 0.984 . S
H2247 N2240 0.984 . S
H2248 N2236 0.984 . S
H2249 N2236 0.985 . S
C2250 C2251 1.363 . S
C2250 C2256 1.379 . S
C2250 N2258 1.356 . S
C2251 C2250 1.363 . S
C2251 C2257 1.363 . S
C2252 C2253 1.363 . S
C2252 C2257 1.379 . S
C2252 N2259 1.356 . S
C2253 C2252 1.363 . S
C2253 C2256 1.363 . S
N2254 C2256 1.356 . S
N2254 H2266 0.984 . S
N2254 H2267 0.985 . S
N2255 C2257 1.356 . S
N2255 H2260 0.984 . S
N2255 H2261 0.985 . S
C2256 C2250 1.379 . S
C2256 C2253 1.363 . S
C2256 N2254 1.356 . S
C2257 C2251 1.363 . S
C2257 C2252 1.379 . S
C2257 N2255 1.356 . S
N2258 C2250 1.356 . S
N2258 H2264 0.984 . S
N2258 H2265 0.984 . S
N2259 C2252 1.356 . S
N2259 H2262 0.984 . S
N2259 H2263 0.985 . S
H2260 N2255 0.984 . S
H2261 N2255 0.985 . S
H2262 N2259 0.984 . S
H2263 N2259 0.985 . S
H2264 N2258 0.984 . S
H2265 N2258 0.984 . S
H2266 N2254 0.984 . S
H2267 N2254 0.985 . S
C2268 C2269 1.363 . S
C2268 C2274 1.379 . S
C2268 N2276 1.356 . S
C2269 C2268 1.363 . S
C2269 C2275 1.363 . S
C2270 C2271 1.363 . S
C2270 C2275 1.379 . S
C2270 N2277 1.356 . S
C2271 C2270 1.363 . S
C2271 C2274 1.363 . S
N2272 C2274 1.356 . S
N2272 H2284 0.984 . S
N2272 H2285 0.985 . S
N2273 C2275 1.356 . S
N2273 H2278 0.984 . S
N2273 H2279 0.985 . S
C2274 C2268 1.379 . S
C2274 C2271 1.363 . S
C2274 N2272 1.356 . S
C2275 C2269 1.363 . S
C2275 C2270 1.379 . S
C2275 N2273 1.356 . S
N2276 C2268 1.356 . S
N2276 H2282 0.984 . S
N2276 H2283 0.984 . S
N2277 C2270 1.356 . S
N2277 H2280 0.984 . S
N2277 H2281 0.985 . S
H2278 N2273 0.984 . S
H2279 N2273 0.985 . S
H2280 N2277 0.984 . S
H2281 N2277 0.985 . S
H2282 N2276 0.984 . S
H2283 N2276 0.984 . S
H2284 N2272 0.984 . S
H2285 N2272 0.985 . S
C2286 C2287 1.363 . S
C2286 C2292 1.379 . S
C2286 N2294 1.356 . S
C2287 C2286 1.363 . S
C2287 C2293 1.363 . S
C2288 C2289 1.363 . S
C2288 C2293 1.379 . S
C2288 N2295 1.356 . S
C2289 C2288 1.363 . S
C2289 C2292 1.363 . S
N2290 C2292 1.356 . S
N2290 H2302 0.984 . S
N2290 H2303 0.985 . S
N2291 C2293 1.356 . S
N2291 H2296 0.984 . S
N2291 H2297 0.985 . S
C2292 C2286 1.379 . S
C2292 C2289 1.363 . S
C2292 N2290 1.356 . S
C2293 C2287 1.363 . S
C2293 C2288 1.379 . S
C2293 N2291 1.356 . S
N2294 C2286 1.356 . S
N2294 H2300 0.984 . S
N2294 H2301 0.984 . S
N2295 C2288 1.356 . S
N2295 H2298 0.984 . S
N2295 H2299 0.985 . S
H2296 N2291 0.984 . S
H2297 N2291 0.985 . S
H2298 N2295 0.984 . S
H2299 N2295 0.985 . S
H2300 N2294 0.984 . S
H2301 N2294 0.984 . S
H2302 N2290 0.984 . S
H2303 N2290 0.985 . S
C2304 C2305 1.363 . S
C2304 C2310 1.379 . S
C2304 N2312 1.356 . S
C2305 C2304 1.363 . S
C2305 C2311 1.363 . S
C2306 C2307 1.363 . S
C2306 C2311 1.379 . S
C2306 N2313 1.356 . S
C2307 C2306 1.363 . S
C2307 C2310 1.363 . S
N2308 C2310 1.356 . S
N2308 H2320 0.984 . S
N2308 H2321 0.985 . S
N2309 C2311 1.356 . S
N2309 H2314 0.984 . S
N2309 H2315 0.985 . S
C2310 C2304 1.379 . S
C2310 C2307 1.363 . S
C2310 N2308 1.356 . S
C2311 C2305 1.363 . S
C2311 C2306 1.379 . S
C2311 N2309 1.356 . S
N2312 C2304 1.356 . S
N2312 H2318 0.984 . S
N2312 H2319 0.984 . S
N2313 C2306 1.356 . S
N2313 H2316 0.984 . S
N2313 H2317 0.985 . S
H2314 N2309 0.984 . S
H2315 N2309 0.985 . S
H2316 N2313 0.984 . S
H2317 N2313 0.985 . S
H2318 N2312 0.984 . S
H2319 N2312 0.984 . S
H2320 N2308 0.984 . S
H2321 N2308 0.985 . S
C2322 C2323 1.363 . S
C2322 C2328 1.379 . S
C2322 N2330 1.356 . S
C2323 C2322 1.363 . S
C2323 C2329 1.363 . S
C2324 C2325 1.363 . S
C2324 C2329 1.379 . S
C2324 N2331 1.356 . S
C2325 C2324 1.363 . S
C2325 C2328 1.363 . S
N2326 C2328 1.356 . S
N2326 H2338 0.984 . S
N2326 H2339 0.985 . S
N2327 C2329 1.356 . S
N2327 H2332 0.984 . S
N2327 H2333 0.985 . S
C2328 C2322 1.379 . S
C2328 C2325 1.363 . S
C2328 N2326 1.356 . S
C2329 C2323 1.363 . S
C2329 C2324 1.379 . S
C2329 N2327 1.356 . S
N2330 C2322 1.356 . S
N2330 H2336 0.984 . S
N2330 H2337 0.984 . S
N2331 C2324 1.356 . S
N2331 H2334 0.984 . S
N2331 H2335 0.985 . S
H2332 N2327 0.984 . S
H2333 N2327 0.985 . S
H2334 N2331 0.984 . S
H2335 N2331 0.985 . S
H2336 N2330 0.984 . S
H2337 N2330 0.984 . S
H2338 N2326 0.984 . S
H2339 N2326 0.985 . S
C2340 C2341 1.363 1_455 S
C2340 C2346 1.379 . S
C2340 N2348 1.356 . S
C2341 C2340 1.363 1_655 S
C2341 C2347 1.363 . S
C2342 C2343 1.363 . S
C2342 C2347 1.379 . S
C2342 N2349 1.356 . S
C2343 C2342 1.363 . S
C2343 C2346 1.363 1_655 S
N2344 C2346 1.356 . S
N2344 H2356 0.984 . S
N2344 H2357 0.985 . S
N2345 C2347 1.356 . S
N2345 H2350 0.984 . S
N2345 H2351 0.985 . S
C2346 C2340 1.379 . S
C2346 C2343 1.363 1_455 S
C2346 N2344 1.356 . S
C2347 C2341 1.363 . S
C2347 C2342 1.379 . S
C2347 N2345 1.356 . S
N2348 C2340 1.356 . S
N2348 H2354 0.984 . S
N2348 H2355 0.984 . S
N2349 C2342 1.356 . S
N2349 H2352 0.984 . S
N2349 H2353 0.985 . S
H2350 N2345 0.984 . S
H2351 N2345 0.985 . S
H2352 N2349 0.984 . S
H2353 N2349 0.985 . S
H2354 N2348 0.984 . S
H2355 N2348 0.984 . S
H2356 N2344 0.984 . S
H2357 N2344 0.985 . S
C2358 C2359 1.363 . S
C2358 C2364 1.379 . S
C2358 N2366 1.356 . S
C2359 C2358 1.363 . S
C2359 C2365 1.363 . S
C2360 C2361 1.363 . S
C2360 C2365 1.379 . S
C2360 N2367 1.356 . S
C2361 C2360 1.363 . S
C2361 C2364 1.363 . S
N2362 C2364 1.356 . S
N2362 H2374 0.984 . S
N2362 H2375 0.985 . S
N2363 C2365 1.356 . S
N2363 H2368 0.984 . S
N2363 H2369 0.985 . S
C2364 C2358 1.379 . S
C2364 C2361 1.363 . S
C2364 N2362 1.356 . S
C2365 C2359 1.363 . S
C2365 C2360 1.379 . S
C2365 N2363 1.356 . S
N2366 C2358 1.356 . S
N2366 H2372 0.984 . S
N2366 H2373 0.984 . S
N2367 C2360 1.356 . S
N2367 H2370 0.984 . S
N2367 H2371 0.985 . S
H2368 N2363 0.984 . S
H2369 N2363 0.985 . S
H2370 N2367 0.984 . S
H2371 N2367 0.985 . S
H2372 N2366 0.984 . S
H2373 N2366 0.984 . S
H2374 N2362 0.984 . S
H2375 N2362 0.985 . S
C2376 C2377 1.363 1_565 S
C2376 C2382 1.379 . S
C2376 N2384 1.356 . S
C2377 C2376 1.363 1_545 S
C2377 C2383 1.363 . S
C2378 C2379 1.363 . S
C2378 C2383 1.379 . S
C2378 N2385 1.356 . S
C2379 C2378 1.363 . S
C2379 C2382 1.363 1_545 S
N2380 C2382 1.356 . S
N2380 H2392 0.984 . S
N2380 H2393 0.985 . S
N2381 C2383 1.356 . S
N2381 H2386 0.984 . S
N2381 H2387 0.985 . S
C2382 C2376 1.379 . S
C2382 C2379 1.363 1_565 S
C2382 N2380 1.356 . S
C2383 C2377 1.363 . S
C2383 C2378 1.379 . S
C2383 N2381 1.356 . S
N2384 C2376 1.356 . S
N2384 H2390 0.984 . S
N2384 H2391 0.984 . S
N2385 C2378 1.356 . S
N2385 H2388 0.984 . S
N2385 H2389 0.985 . S
H2386 N2381 0.984 . S
H2387 N2381 0.985 . S
H2388 N2385 0.984 . S
H2389 N2385 0.985 . S
H2390 N2384 0.984 . S
H2391 N2384 0.984 . S
H2392 N2380 0.984 . S
H2393 N2380 0.985 . S
C1099 C10 1.584 1_655 S
C1101 C711 1.589 . S
C1117 C23 1.631 . S
C1119 C759 1.614 . S
C1137 C807 1.595 . S
C1135 C29 1.608 . S
C1153 C30 1.585 1_565 S
C1155 C831 1.597 . S
C1171 C5 1.613 . S
C1173 C903 1.600 . S
C1189 C18 1.637 . S
C1191 C951 1.620 . S
C1207 C49 1.609 . S
C1209 C879 1.597 . S
C1227 C927 1.624 . S
C1225 C62 1.635 . S
C1245 C855 1.583 . S
C1243 C70 1.637 1_565 S
C1261 C75 1.605 . S
C1263 C783 1.594 . S
C1281 C687 1.615 . S
C1279 C44 1.645 1_655 S
C1297 C57 1.639 . S
C1299 C735 1.629 . S
C1315 C88 1.655 . S
C1317 C999 1.638 . S
C1333 C101 1.654 . S
C1335 C1047 1.636 . S
C1353 C1071 1.633 . S
C1351 C107 1.653 . S
C1369 C108 1.641 . S
C1371 C255 1.621 . S
C1387 C83 1.652 . S
C1389 C327 1.634 . S
C1405 C96 1.650 . S
C1407 C375 1.631 . S
C1423 C127 1.640 . S
C1425 C303 1.629 . S
C1441 C140 1.647 . S
C1443 C351 1.635 . S
C1461 C279 1.601 . S
C1459 C146 1.644 . S
C1479 C1095 1.609 . S
C1477 C147 1.653 . S
C1497 C975 1.647 . S
C1495 C122 1.657 . S
C1515 C1023 1.651 . S
C1513 C135 1.662 . S
C1531 C160 1.639 . S
C1533 C423 1.622 . S
C1549 C173 1.643 . S
C1551 C471 1.624 . S
C1567 C185 1.648 . S
C1569 C495 1.629 . S
C1585 C186 1.656 . S
C1587 C543 1.636 . S
C1605 C615 1.638 . S
C1603 C159 1.655 . S
C1623 C663 1.641 . S
C1621 C172 1.659 . S
C1641 C591 1.647 . S
C1639 C205 1.658 . S
C1659 C639 1.646 . S
C1657 C218 1.658 . S
C1675 C224 1.648 . S
C1677 C567 1.604 . S
C1695 C519 1.592 . S
C1693 C225 1.636 . S
C1711 C200 1.654 . S
C1713 C399 1.644 . S
C1731 C447 1.640 . S
C1729 C213 1.652 . S
C1749 C264 1.523 . S
C1747 C4 1.525 . S
C1765 C17 1.508 . S
C1767 C318 1.492 . S
C1785 C366 1.511 . S
C1783 C31 1.527 . S
C1803 C414 1.511 . S
C1801 C36 1.527 . S
C1821 C462 1.513 . S
C1819 C3 1.530 . S
C1839 C504 1.510 . S
C1837 C16 1.512 . S
C1855 C43 1.531 . S
C1857 C510 1.527 . S
C1873 C56 1.510 . S
C1875 C408 1.489 . S
C1891 C68 1.522 . S
C1893 C456 1.497 . S
C1909 C69 1.526 . S
C1911 C312 1.511 . S
C1929 C360 1.507 . S
C1927 C42 1.528 . S
C1945 C55 1.515 . S
C1947 C270 1.506 . S
C1965 C552 1.522 . S
C1963 C82 1.524 . S
C1981 C95 1.534 . S
C1983 C606 1.519 . S
C1999 C109 1.547 . S
C2001 C654 1.530 . S
C2019 C702 1.496 . S
C2017 C114 1.499 . S
C2035 C81 1.531 . S
C2037 C750 1.515 . S
C2053 C94 1.501 . S
C2055 C798 1.496 . S
C2071 C121 1.500 . S
C2073 C792 1.491 . S
C2089 C134 1.495 . S
C2091 C696 1.492 . S
C2109 C744 1.506 . S
C2107 C148 1.525 . S
C2125 C153 1.524 . S
C2127 C600 1.504 . S
C2143 C120 1.547 . S
C2145 C648 1.527 . S
C2163 C558 1.532 . S
C2161 C133 1.542 . S
C2181 C840 1.498 . S
C2179 C166 1.496 . S
C2197 C179 1.493 . S
C2199 C894 1.490 . S
C2215 C187 1.529 . S
C2217 C942 1.514 . S
C2235 C990 1.511 . S
C2233 C192 1.528 . S
C2253 C1038 1.531 . S
C2251 C161 1.548 . S
C2269 C174 1.538 . S
C2271 C1080 1.536 . S
C2287 C199 1.530 . S
C2289 C1086 1.520 . S
C2305 C212 1.534 . S
C2307 C984 1.515 . S
C2325 C1032 1.521 . S
C2323 C226 1.541 . S
C2343 C888 1.489 . S
C2341 C231 1.491 . S
C2361 C936 1.513 . S
C2359 C198 1.533 . S
C2377 C211 1.505 . S
C2379 C846 1.501 . S
