# Generated by pormake.
# Topology anh, (6,3)-cn, num edge types: 1
# Building blocks:
#     Node 0, Type 0, BuildingBlock: PAMTOO_clean_sbu_0, # of connection points: 6
#     Node 1, Type 0, BuildingBlock: PAMTOO_clean_sbu_0, # of connection points: 6
#     Node 2, Type 0, BuildingBlock: PAMTOO_clean_sbu_0, # of connection points: 6
#     Node 3, Type 1, BuildingBlock: QEWDON_clean_linker_0, # of connection points: 3
#     Node 4, Type 1, BuildingBlock: QEWDON_clean_linker_0, # of connection points: 3
#     Node 5, Type 1, BuildingBlock: QEWDON_clean_linker_0, # of connection points: 3
#     Node 6, Type 1, BuildingBlock: QEWDON_clean_linker_0, # of connection points: 3
#     Node 7, Type 1, BuildingBlock: QEWDON_clean_linker_0, # of connection points: 3
#     Node 8, Type 1, BuildingBlock: QEWDON_clean_linker_0, # of connection points: 3
#     Edge 9, Type (0, 1), BuildingBlock: CIFDUS_clean_linker_0, # of connection points: 2
#     Edge 10, Type (0, 1), BuildingBlock: CIFDUS_clean_linker_0, # of connection points: 2
#     Edge 11, Type (0, 1), BuildingBlock: CIFDUS_clean_linker_0, # of connection points: 2
#     Edge 12, Type (0, 1), BuildingBlock: CIFDUS_clean_linker_0, # of connection points: 2
#     Edge 13, Type (0, 1), BuildingBlock: CIFDUS_clean_linker_0, # of connection points: 2
#     Edge 14, Type (0, 1), BuildingBlock: CIFDUS_clean_linker_0, # of connection points: 2
#     Edge 15, Type (0, 1), BuildingBlock: CIFDUS_clean_linker_0, # of connection points: 2
#     Edge 16, Type (0, 1), BuildingBlock: CIFDUS_clean_linker_0, # of connection points: 2
#     Edge 17, Type (0, 1), BuildingBlock: CIFDUS_clean_linker_0, # of connection points: 2
#     Edge 18, Type (0, 1), BuildingBlock: CIFDUS_clean_linker_0, # of connection points: 2
#     Edge 19, Type (0, 1), BuildingBlock: CIFDUS_clean_linker_0, # of connection points: 2
#     Edge 20, Type (0, 1), BuildingBlock: CIFDUS_clean_linker_0, # of connection points: 2
#     Edge 21, Type (0, 1), BuildingBlock: CIFDUS_clean_linker_0, # of connection points: 2
#     Edge 22, Type (0, 1), BuildingBlock: CIFDUS_clean_linker_0, # of connection points: 2
#     Edge 23, Type (0, 1), BuildingBlock: CIFDUS_clean_linker_0, # of connection points: 2
#     Edge 24, Type (0, 1), BuildingBlock: CIFDUS_clean_linker_0, # of connection points: 2
#     Edge 25, Type (0, 1), BuildingBlock: CIFDUS_clean_linker_0, # of connection points: 2
#     Edge 26, Type (0, 1), BuildingBlock: CIFDUS_clean_linker_0, # of connection points: 2
# Relax obj value: 0.150
# Max RMSD: 0.157
# Mean RMSD: 0.119
data_MOF--net-anh--node1-PAMTOO_clean_sbu_0--node2-QEWDON_clean_linker_0--edge1-CIFDUS_clean_linker_0
_symmetry_space_group_name_H-M    P1
_symmetry_Int_Tables_number       1
_symmetry_cell_setting            triclinic
loop_
_symmetry_equiv_pos_as_xyz
'x, y, z'
_cell_length_a     27.644685
_cell_length_b     27.166774
_cell_length_c     42.260049
_cell_angle_alpha  92.952227
_cell_angle_beta   99.346056
_cell_angle_gamma 98.638968
loop_
_atom_site_label
_atom_site_type_symbol
_atom_site_fract_x
_atom_site_fract_y
_atom_site_fract_z
_atom_type_partial_charge
Dy0 Dy 0.14197 0.66208 0.16225 0.0
Dy1 Dy 0.12542 0.54337 0.13522 0.0
C2 C 0.13948 0.63254 0.08937 0.0
O3 O 1.05959 0.64332 0.14216 0.0
O4 O 1.05264 0.55884 0.1464 0.0
O5 O 0.13781 0.73972 0.15496 0.0
O6 O 0.17062 0.71848 0.20139 0.0
O7 O 0.15055 0.55038 0.18868 0.0
O8 O 0.11404 0.61737 0.19994 0.0
O9 O 0.20627 0.56817 0.1331 0.0
O10 O 0.21708 0.63688 0.16946 0.0
O11 O 0.12617 0.46606 0.14566 0.0
O12 O 1.0956 0.48364 0.0981 0.0
C13 C 1.03209 0.59908 0.14193 0.0
O14 O 0.16475 0.65988 0.11465 0.0
O15 O 0.11307 0.58898 0.09228 0.0
C16 C 0.20625 0.79512 0.18495 0.0
C17 C 0.29289 0.86833 0.19371 0.0
C18 C 0.25071 0.87701 0.20666 0.0
C19 C 0.20808 0.84067 0.20251 0.0
C20 C 0.24704 0.78704 0.17058 0.0
C21 C 0.29006 0.82315 0.17503 0.0
C22 C 0.16309 0.7553 0.1835 0.0
C23 C 0.13122 0.57696 0.20864 0.0
C24 C 0.23542 0.60508 0.15169 0.0
C25 C 1.05191 0.41412 0.11974 0.0
C26 C 0.96237 0.35083 0.12548 0.0
C27 C 1.00817 0.3439 0.1433 0.0
C28 C 1.05239 0.37508 0.14038 0.0
C29 C 1.00613 0.42089 0.10188 0.0
C30 C 0.96209 0.38985 0.10478 0.0
C31 C 1.09852 0.44889 0.1182 0.0
H32 H 0.25081 0.91171 0.22049 0.0
H33 H 0.17685 0.8478 0.21358 0.0
H34 H 0.24597 0.75228 0.15658 0.0
H35 H 0.32164 0.8148 0.16481 0.0
H36 H 1.00995 0.31404 0.15925 0.0
H37 H 1.08703 0.36892 0.15449 0.0
H38 H 1.00404 0.45071 0.08591 0.0
H39 H 0.92755 0.39704 0.09108 0.0
Dy40 Dy 0.62153 1.00157 0.49818 0.0
Dy41 Dy 0.74282 0.0309 0.51262 0.0
C42 C 0.68257 0.01302 0.56941 0.0
O43 O 0.63672 0.08424 0.49324 0.0
O44 O 0.71385 0.10036 0.52483 0.0
O45 O 0.55317 0.98296 0.51619 0.0
O46 O 0.55139 0.99102 0.46533 0.0
O47 O 0.71432 0.04944 0.46261 0.0
O48 O 0.65037 0.9847 0.45321 0.0
O49 O 0.72871 0.94817 0.50133 0.0
O50 O 0.64703 0.9284 0.50784 0.0
O51 O 0.8126 0.03501 0.49534 0.0
O52 O 0.81111 0.0625 0.54413 0.0
C53 C 0.67357 0.11558 0.51052 0.0
O54 O 0.64443 0.02498 0.55041 0.0
O55 O 0.72218 1.00361 0.55835 0.0
C56 C 0.48944 0.93043 0.48086 0.0
C57 C 0.41881 0.84219 0.46927 0.0
C58 C 0.42941 0.8689 0.4996 0.0
C59 C 0.46406 0.91267 0.50525 0.0
C60 C 0.4792 0.90368 0.45054 0.0
C61 C 0.4442 0.85997 0.44481 0.0
C62 C 0.52593 0.97689 0.48765 0.0
C63 C 0.68228 0.01742 0.44243 0.0
C64 C 0.68998 0.91525 0.50453 0.0
C65 C 0.86641 0.10898 0.5166 0.0
C66 C 0.91733 0.20594 0.51348 0.0
C67 C 0.86923 0.1908 0.49583 0.0
C68 C 0.8439 0.14281 0.49749 0.0
C69 C 0.91482 0.12335 0.53359 0.0
C70 C 0.94016 0.17153 0.53206 0.0
C71 C 0.83752 0.06089 0.52132 0.0
H72 H 0.41104 0.85591 0.5191 0.0
H73 H 0.47108 0.93264 0.52882 0.0
H74 H 0.49793 0.91657 0.43117 0.0
H75 H 0.43632 0.84066 0.42103 0.0
H76 H 0.85038 0.21668 0.48172 0.0
H77 H 0.80615 0.1326 0.48464 0.0
H78 H 0.93248 0.09779 0.54869 0.0
H79 H 0.97732 0.18211 0.54573 0.0
Dy80 Dy 0.66239 0.49561 0.82624 0.0
Dy81 Dy 0.54275 0.4587 0.80715 0.0
C82 C 0.60856 0.48418 0.75393 0.0
O83 O 0.63156 0.56713 0.83033 0.0
O84 O 0.5526 0.54058 0.80225 0.0
O85 O 0.72702 0.53252 0.85915 0.0
O86 O 0.73524 0.49442 0.81434 0.0
O87 O 0.56048 0.49421 0.8575 0.0
O88 O 0.63514 0.46886 0.87025 0.0
O89 O 0.57251 0.38835 0.8182 0.0
O90 O 0.6526 0.41418 0.81098 0.0
O91 O 0.47354 0.42391 0.81981 0.0
O92 O 0.47418 0.45486 0.77358 0.0
C93 C 0.58805 0.5763 0.81636 0.0
O94 O 0.6396 0.51419 0.77591 0.0
O95 O 0.57442 0.45041 0.76205 0.0
C96 C 0.79114 0.56777 0.83271 0.0
C97 C 0.85885 0.65107 0.82256 0.0
C98 C 0.80941 0.6559 0.82426 0.0
C99 C 0.77564 0.6144 0.8291 0.0
C100 C 0.8398 0.56247 0.82986 0.0
C101 C 0.8734 0.60373 0.82478 0.0
C102 C 0.75712 0.52429 0.83936 0.0
C103 C 0.59651 0.48444 0.87922 0.0
C104 C 0.61614 0.37853 0.8138 0.0
C105 C 0.41712 0.4786 0.80378 0.0
C106 C 0.37716 0.56705 0.8124 0.0
C107 C 0.41537 0.55517 0.83552 0.0
C108 C 0.4348 0.51145 0.83137 0.0
C109 C 0.37746 0.48888 0.78127 0.0
C110 C 0.35733 0.5326 0.78566 0.0
C111 C 0.44767 0.44155 0.79551 0.0
H112 H 0.79725 0.69191 0.82258 0.0
H113 H 0.73782 0.61894 0.83071 0.0
H114 H 0.85215 0.52662 0.83232 0.0
H115 H 0.91146 0.59899 0.82416 0.0
H116 H 0.43258 0.58094 0.85605 0.0
H117 H 0.46604 0.5052 0.84886 0.0
H118 H 0.36385 0.46451 0.75954 0.0
H119 H 0.32726 0.54006 0.76766 0.0
H120 H 0.6846 0.13333 0.24766 0.0
C121 C 0.65051 0.10793 0.23849 0.0
C122 C 0.63107 0.07274 0.25844 0.0
C123 C 0.62503 0.1117 0.20717 0.0
H124 H 0.56984 0.01513 0.26204 0.0
C125 C 0.58574 0.04137 0.24663 0.0
C126 C 0.55956 0.04419 0.21563 0.0
C127 C 0.58004 0.07873 0.19581 0.0
C128 C 0.64228 0.15286 0.18732 0.0
H129 H 0.55993 0.08114 0.17186 0.0
C130 C 0.69321 0.16847 0.18591 0.0
C131 C 0.70772 0.20734 0.16659 0.0
C132 C 0.60674 0.17779 0.16989 0.0
H133 H 0.56767 0.16822 0.17113 0.0
C134 C 0.62095 0.21622 0.15113 0.0
H135 H 0.72122 0.14984 0.19911 0.0
C136 C 0.67081 0.23083 0.1494 0.0
H137 H 0.68059 0.26139 0.13495 0.0
H138 H 0.5931 0.23509 0.13801 0.0
H139 H 0.63287 0.53363 0.55986 0.0
C140 C 0.62832 0.49598 0.54888 0.0
C141 C 0.60976 0.45603 0.56575 0.0
C142 C 0.64269 0.48713 0.51875 0.0
H143 H 0.59571 0.37597 0.56675 0.0
C144 C 0.60714 0.40694 0.55296 0.0
C145 C 0.62202 0.39705 0.52355 0.0
C146 C 0.63778 0.43698 0.50593 0.0
C147 C 0.66693 0.52937 0.50213 0.0
H148 H 0.64827 0.42847 0.48292 0.0
C149 C 0.65619 0.57867 0.50567 0.0
C150 C 0.68171 0.61822 0.49124 0.0
C151 C 0.70335 0.52085 0.48358 0.0
H152 H 0.71472 0.48464 0.4812 0.0
C153 C 0.72705 0.55927 0.46832 0.0
H154 H 0.62877 0.58662 0.51996 0.0
C155 C 0.71633 0.60741 0.47198 0.0
H156 H 0.7355 0.63638 0.45975 0.0
H157 H 0.75453 0.55182 0.45392 0.0
H158 H 0.22392 0.82327 0.94186 0.0
C159 C 0.18687 0.82745 0.9304 0.0
C160 C 0.14592 0.80845 0.94433 0.0
C161 C 0.1801 0.84762 0.90029 0.0
H162 H 1.06629 0.79603 0.93883 0.0
C163 C 1.09807 0.81214 0.92864 0.0
C164 C 1.0906 0.83212 0.89856 0.0
C165 C 0.13186 0.85053 0.8847 0.0
C166 C 0.22207 0.85586 0.88244 0.0
H167 H 0.12616 0.86319 0.86065 0.0
C168 C 0.25043 0.8177 0.87981 0.0
C169 C 0.28776 0.8216 0.86084 0.0
C170 C 0.23157 0.89882 0.86592 0.0
H171 H 0.20978 0.92858 0.86734 0.0
C172 C 0.26924 0.90333 0.84723 0.0
H173 H 0.24166 0.7835 0.89133 0.0
C174 C 0.29705 0.86475 0.84445 0.0
H175 H 0.32558 0.86854 0.82955 0.0
H176 H 0.27647 0.93652 0.83453 0.0
H177 H 1.05841 0.53797 0.40478 0.0
C178 C 1.09231 0.56325 0.41471 0.0
C179 C 0.12488 0.58154 0.39425 0.0
C180 C 1.10287 0.57856 0.44776 0.0
H181 H 0.19174 0.6312 0.39072 0.0
C182 C 0.16795 0.61537 0.4069 0.0
C183 C 0.17855 0.6318 0.43963 0.0
C184 C 0.14609 0.61283 0.45999 0.0
C185 C 1.06852 0.55962 0.46953 0.0
H186 H 0.15459 0.62469 0.48543 0.0
C187 C 1.049 0.50851 0.46786 0.0
C188 C 1.01817 0.49009 0.48939 0.0
C189 C 1.05605 0.59238 0.49265 0.0
H190 H 1.07004 0.63203 0.4942 0.0
C191 C 1.02506 0.57432 0.51386 0.0
H192 H 1.05917 0.48281 0.45054 0.0
C193 C 1.00636 0.52346 0.5124 0.0
H194 H 0.9823 0.51024 0.52907 0.0
H195 H 1.01557 0.59982 0.53154 0.0
H196 H 0.59576 0.94503 0.75405 0.0
C197 C 0.60119 0.98329 0.76425 0.0
C198 C 0.61732 0.02201 0.7458 0.0
C199 C 0.59 0.99388 0.79497 0.0
H200 H 0.63154 0.10148 0.74274 0.0
C201 C 0.62168 0.07182 0.75787 0.0
C202 C 0.60927 0.08344 0.78801 0.0
C203 C 0.59478 0.04426 0.80671 0.0
C204 C 0.5695 0.95274 0.81359 0.0
H205 H 0.58648 0.05325 0.83031 0.0
C206 C 0.58563 0.90577 0.81279 0.0
C207 C 0.56362 0.86634 0.82881 0.0
C208 C 0.53167 0.95965 0.83126 0.0
H209 H 0.51725 0.99453 0.83182 0.0
C210 C 0.51071 0.92109 0.84775 0.0
H211 H 0.61455 0.89948 0.79928 0.0
C212 C 0.52636 0.87475 0.84649 0.0
H213 H 0.50919 0.84531 0.85934 0.0
H214 H 0.48165 0.92696 0.86121 0.0
H215 H 0.59323 0.57351 0.07505 0.0
C216 C 0.6322 0.57849 0.08548 0.0
C217 C 0.66541 0.56038 0.06741 0.0
C218 C 0.64934 0.60312 0.11652 0.0
H219 H 0.74228 0.55733 0.06536 0.0
C220 C 0.71645 0.56867 0.07997 0.0
C221 C 0.73514 0.59291 0.11045 0.0
C222 C 0.70137 0.60899 0.12881 0.0
C223 C 0.61411 0.62421 0.13579 0.0
H224 H 0.71633 0.6254 0.1529 0.0
C225 C 0.56157 0.607 0.13079 0.0
C226 C 0.53046 0.62827 0.14973 0.0
C227 C 0.63359 0.66365 0.15961 0.0
H228 H 0.67208 0.68098 0.16335 0.0
C229 C 0.60391 0.68245 0.17925 0.0
H230 H 0.54475 0.57772 0.11229 0.0
C231 C 0.5534 0.66453 0.17483 0.0
H232 H 0.53225 0.67982 0.19125 0.0
H233 H 0.62023 0.71166 0.198 0.0
H234 H 0.29775 0.54056 0.13331 0.0
H235 H 0.29785 0.69209 0.16973 0.0
H236 H 0.38567 0.71287 0.16845 0.0
H237 H 0.46282 0.68955 0.15785 0.0
H238 H 0.46988 0.53665 0.12858 0.0
H239 H 0.37939 0.5157 0.12495 0.0
C240 C 0.31708 0.57804 0.14102 0.0
C241 C 0.29037 0.61469 0.15151 0.0
C242 C 0.36913 0.58979 0.14124 0.0
C243 C 0.31659 0.66295 0.16152 0.0
C244 C 0.3672 0.67506 0.16075 0.0
C245 C 0.4453 0.65115 0.15132 0.0
C246 C 0.47434 0.61469 0.14425 0.0
C247 C 0.39389 0.63887 0.15087 0.0
C248 C 0.44928 0.56588 0.13421 0.0
C249 C 0.39731 0.55371 0.13243 0.0
H250 H 0.92295 0.26255 0.46255 0.0
H251 H 0.96682 0.267 0.56555 0.0
H252 H 1.00272 0.35507 0.56709 0.0
H253 H 1.01894 0.43157 0.53943 0.0
H254 H 0.97481 0.42756 0.43653 0.0
H255 H 0.94151 0.33856 0.43465 0.0
C256 C 0.94037 0.28287 0.48531 0.0
C257 C 0.94216 0.25834 0.51389 0.0
C258 C 0.96063 0.33356 0.48605 0.0
C259 C 0.96547 0.28488 0.54317 0.0
C260 C 0.98565 0.33532 0.54411 0.0
C261 C 1.00181 0.41118 0.51664 0.0
C262 C 0.99894 0.43602 0.4882 0.0
C263 C 0.98296 0.36014 0.51575 0.0
C264 C 0.97755 0.40909 0.45872 0.0
C265 C 0.9584 0.35832 0.45765 0.0
H266 H 0.65339 0.66467 0.82863 0.0
H267 H 0.49704 0.6043 0.80533 0.0
H268 H 0.47619 0.68795 0.80701 0.0
H269 H 0.5016 0.77832 0.81509 0.0
H270 H 0.6571 0.84093 0.83681 0.0
H271 H 0.67906 0.7567 0.83514 0.0
C272 C 0.61483 0.66992 0.82394 0.0
C273 C 0.57691 0.62806 0.81703 0.0
C274 C 0.60289 0.71862 0.82441 0.0
C275 C 0.52709 0.63562 0.81072 0.0
C276 C 0.515 0.68357 0.81165 0.0
C277 C 0.54033 0.77353 0.8196 0.0
C278 C 0.57765 0.81572 0.82635 0.0
C279 C 0.55253 0.72528 0.81849 0.0
C280 C 0.62769 0.80899 0.83146 0.0
C281 C 0.64022 0.76085 0.83067 0.0
H282 H 0.96871 0.66818 0.14943 0.0
H283 H 0.96922 0.51321 0.12128 0.0
H284 H 0.87926 0.49733 0.11112 0.0
H285 H 0.79948 0.52659 0.10866 0.0
H286 H 0.79538 0.68008 0.13747 0.0
H287 H 0.8866 0.69691 0.1495 0.0
C288 C 0.94908 0.63104 0.14103 0.0
C289 C 0.97639 0.59211 0.13603 0.0
C290 C 0.89626 0.6216 0.13556 0.0
C291 C 0.94985 0.54407 0.12545 0.0
C292 C 0.89804 0.53477 0.11958 0.0
C293 C 0.81847 0.56374 0.11774 0.0
C294 C 0.79035 0.602 0.12197 0.0
C295 C 0.8708 0.57313 0.12441 0.0
C296 C 0.81586 0.64973 0.13419 0.0
C297 C 0.86816 0.65948 0.14079 0.0
H298 H 0.32972 0.82782 0.48948 0.0
H299 H 0.42132 0.75468 0.4348 0.0
H300 H 0.35611 0.68167 0.42247 0.0
H301 H 0.27201 0.63998 0.42571 0.0
H302 H 0.18062 0.71388 0.4801 0.0
H303 H 0.24783 0.78443 0.49522 0.0
C304 C 0.33586 0.7956 0.47532 0.0
C305 C 0.38028 0.79684 0.46297 0.0
C306 C 0.29844 0.75373 0.46851 0.0
C307 C 0.38716 0.75505 0.44418 0.0
C308 C 0.35005 0.71316 0.4373 0.0
C309 C 0.26691 0.67149 0.44095 0.0
C310 C 0.22135 0.67175 0.45167 0.0
C311 C 0.30534 0.71236 0.44904 0.0
C312 C 0.2155 0.71246 0.47182 0.0
C313 C 0.25373 0.75305 0.48022 0.0
H314 H 0.55535 0.29456 0.8251 0.0
H315 H 0.69515 0.34362 0.79443 0.0
H316 H 0.70674 0.25715 0.78552 0.0
H317 H 0.67564 0.16722 0.78403 0.0
H318 H 0.53582 0.11805 0.81442 0.0
H319 H 0.52641 0.20461 0.82634 0.0
C320 C 0.58846 0.2864 0.81659 0.0
C321 C 0.62406 0.32575 0.81024 0.0
C322 C 0.59508 0.2364 0.81154 0.0
C323 C 0.66697 0.31428 0.79949 0.0
C324 C 0.67369 0.26472 0.79432 0.0
C325 C 0.64321 0.17548 0.79337 0.0
C326 C 0.60652 0.13611 0.79827 0.0
C327 C 0.63773 0.22545 0.79989 0.0
C328 C 0.56499 0.1475 0.81078 0.0
C329 C 0.55932 0.19708 0.81735 0.0
H330 H 0.61731 0.8328 0.5009 0.0
H331 H 0.77581 0.87659 0.50798 0.0
H332 H 0.78681 0.78949 0.50654 0.0
H333 H 0.75224 0.70105 0.502 0.0
H334 H 0.594 0.6548 0.49248 0.0
H335 H 0.58237 0.74249 0.49705 0.0
C336 C 0.65426 0.8233 0.50224 0.0
C337 C 0.69561 0.86157 0.50437 0.0
C338 C 0.6605 0.77261 0.50114 0.0
C339 C 0.74318 0.84828 0.50608 0.0
C340 C 0.74963 0.79832 0.50535 0.0
C341 C 0.71504 0.70997 0.50065 0.0
C342 C 0.67402 0.67116 0.49646 0.0
C343 C 0.7086 0.76024 0.50259 0.0
C344 C 0.62632 0.68373 0.49579 0.0
C345 C 0.61963 0.73394 0.49816 0.0
H346 H 0.87155 0.7371 0.86024 0.0
H347 H 0.9328 0.66399 0.78653 0.0
H348 H 1.00895 0.72514 0.79902 0.0
H349 H 1.06373 0.78533 0.8392 0.0
H350 H 1.00453 0.8538 0.91561 0.0
H351 H 0.92125 0.80979 0.89311 0.0
C352 C 0.90076 0.73574 0.84605 0.0
C353 C 0.89716 0.69557 0.823 0.0
C354 C 0.94499 0.7699 0.85416 0.0
C355 C 0.93532 0.6941 0.80486 0.0
C356 C 0.97883 0.72896 0.81203 0.0
C357 C 1.03221 0.79237 0.85006 0.0
C358 C 1.0401 0.82209 0.87921 0.0
C359 C 0.9851 0.7651 0.8379 0.0
C360 C 0.99914 0.83064 0.89327 0.0
C361 C 0.9517 0.80514 0.88058 0.0
H362 H 0.36217 0.89543 0.15483 0.0
H363 H 0.33132 0.92334 0.25058 0.0
H364 H 0.4084 0.98188 0.26457 0.0
H365 H 0.48567 0.02375 0.25071 0.0
H366 H 0.52088 0.99336 0.15661 0.0
H367 H 0.44102 0.93783 0.14092 0.0
C368 C 0.37237 0.91408 0.17881 0.0
C369 C 0.34025 0.90494 0.20144 0.0
C370 C 0.41766 0.94745 0.18707 0.0
C371 C 0.35427 0.93013 0.2323 0.0
C372 C 0.39876 0.96347 0.2405 0.0
C373 C 0.47628 1.00464 0.22682 0.0
C374 C 0.50978 1.01239 0.20505 0.0
C375 C 0.43085 0.97217 0.2182 0.0
C376 C 0.49593 0.98836 0.17388 0.0
C377 C 0.45034 0.9563 0.16497 0.0
H378 H 0.61444 0.17144 0.47344 0.0
H379 H 0.72428 0.18035 0.5597 0.0
H380 H 0.71876 0.26785 0.57039 0.0
H381 H 0.68179 0.34163 0.55648 0.0
H382 H 0.57456 0.33669 0.46981 0.0
H383 H 0.58022 0.24825 0.45777 0.0
C384 C 0.63706 0.19262 0.49455 0.0
C385 C 0.66953 0.16913 0.51581 0.0
C386 C 0.63431 0.2437 0.50043 0.0
C387 C 0.69907 0.19731 0.54286 0.0
C388 C 0.69593 0.24746 0.54908 0.0
C389 C 0.65985 0.32112 0.53487 0.0
C390 C 0.62757 0.34515 0.51415 0.0
C391 C 0.66361 0.27092 0.52818 0.0
C392 C 0.59967 0.3187 0.48604 0.0
C393 C 0.60278 0.2682 0.4793 0.0
H394 H 0.36868 0.61873 0.86764 0.0
H395 H 0.34859 0.6271 0.76464 0.0
H396 H 0.3229 0.70873 0.77058 0.0
H397 H 0.30347 0.77665 0.80518 0.0
H398 H 0.32922 0.76934 0.90816 0.0
H399 H 0.3578 0.68926 0.90208 0.0
C400 C 0.35962 0.63857 0.84641 0.0
C401 C 0.36031 0.61631 0.81572 0.0
C402 C 0.34655 0.68609 0.85003 0.0
C403 C 0.34726 0.64254 0.78856 0.0
C404 C 0.3332 0.68961 0.79194 0.0
C405 C 0.31649 0.75802 0.82625 0.0
C406 C 0.3139 0.77854 0.85704 0.0
C407 C 0.33249 0.71167 0.82257 0.0
C408 C 0.33043 0.75388 0.8842 0.0
C409 C 0.34654 0.70806 0.88074 0.0
H410 H 0.93114 0.31392 0.17964 0.0
H411 H 0.8864 0.3125 0.0768 0.0
H412 H 0.80594 0.26449 0.08032 0.0
H413 H 0.74612 0.22725 0.11254 0.0
H414 H 0.78858 0.22862 0.21537 0.0
H415 H 0.87238 0.2705 0.21178 0.0
C416 C 0.90407 0.30249 0.15795 0.0
C417 C 0.91486 0.31772 0.12802 0.0
C418 C 0.85739 0.2746 0.1601 0.0
C419 C 0.87899 0.30255 0.10024 0.0
C420 C 0.83294 0.27471 0.10217 0.0
C421 C 0.77379 0.23642 0.1342 0.0
C422 C 0.7608 0.22522 0.16424 0.0
C423 C 0.82139 0.26133 0.13199 0.0
C424 C 0.7975 0.23654 0.19193 0.0
C425 C 0.84533 0.26095 0.1899 0.0
H426 H 0.19779 0.71569 0.07669 0.0
H427 H 1.07814 0.60002 0.0317 0.0
H428 H 1.07042 0.64411 0.98238 0.0
H429 H 1.09494 0.71792 0.95339 0.0
H430 H 0.21294 0.83405 -0.00025 0.0
H431 H 0.22399 0.7871 0.04751 0.0
C432 C 0.17009 0.69973 0.05609 0.0
C433 C 0.13826 0.6547 0.058 0.0
C434 C 0.16532 0.72564 0.02826 0.0
C435 C 1.10311 0.63452 0.03088 0.0
C436 C 1.0985 0.65991 0.00278 0.0
C437 C 0.12276 0.73314 0.97409 0.0
C438 C 0.15266 0.77979 0.97326 0.0
C439 C 0.12878 0.70598 0.00146 0.0
C440 C 0.18947 0.79836 -0.00014 0.0
C441 C 0.19574 0.77156 0.02713 0.0
H442 H 0.70311 0.0991 0.40905 0.0
H443 H 0.6551 0.93967 0.39716 0.0
H444 H 0.64287 0.94214 0.33878 0.0
H445 H 0.63884 0.98997 0.29144 0.0
H446 H 0.67635 0.15067 0.30278 0.0
H447 H 0.70168 0.14721 0.36071 0.0
C448 C 0.69067 0.06491 0.39359 0.0
C449 C 0.67986 0.01926 0.40732 0.0
C450 C 0.68198 0.06684 0.35991 0.0
C451 C 0.6633 0.97526 0.38711 0.0
C452 C 0.65637 0.97664 0.35375 0.0
C453 C 0.65249 0.02437 0.30651 0.0
C454 C 0.65485 0.07055 0.29263 0.0
C455 C 0.6644 0.02233 0.33992 0.0
C456 C 0.67427 0.11451 0.31257 0.0
C457 C 0.68823 0.11261 0.34584 0.0
H458 H 0.54399 0.43952 0.70102 0.0
H459 H 0.68345 0.53888 0.72989 0.0
H460 H 0.69356 0.5433 0.67384 0.0
H461 H 0.66599 0.51404 0.61682 0.0
H462 H 0.52707 0.41436 0.58789 0.0
H463 H 0.5133 0.41547 0.6436 0.0
C464 C 0.57649 0.46228 0.69505 0.0
C465 C 0.61308 0.48835 0.71969 0.0
C466 C 0.58216 0.46475 0.66269 0.0
C467 C 0.65472 0.51817 0.71146 0.0
C468 C 0.6606 0.52079 0.67937 0.0
C469 C 0.63217 0.49358 0.62265 0.0
C470 C 0.59765 0.46409 0.59836 0.0
C471 C 0.62491 0.49372 0.6548 0.0
C472 C 0.55429 0.43712 0.60629 0.0
C473 C 0.5465 0.43759 0.63812 0.0
H474 H 0.60267 0.98199 0.5964 0.0
H475 H 0.75855 0.04258 0.61984 0.0
H476 H 0.7528 0.04944 0.67719 0.0
H477 H 0.70153 0.04297 0.72029 0.0
H478 H 0.54701 0.97741 0.69652 0.0
H479 H 0.55393 0.96732 0.63962 0.0
C480 C 0.63543 0.99633 0.61415 0.0
C481 C 0.68082 1.01228 0.60407 0.0
C482 C 0.63195 0.99931 0.64691 0.0
C483 C 0.72324 0.03005 0.62717 0.0
C484 C 0.71988 0.03418 0.65988 0.0
C485 C 0.66972 0.02594 0.70257 0.0
C486 C 0.62381 1.01103 0.71228 0.0
C487 C 0.67423 0.01963 0.66998 0.0
C488 C 0.58269 0.98884 0.68939 0.0
C489 C 0.5866 0.98332 0.65693 0.0
H490 H 0.64694 0.4476 0.93097 0.0
H491 H 0.54725 0.55227 0.90477 0.0
H492 H 0.55583 0.58241 0.96123 0.0
H493 H 0.59839 0.58461 0.01761 0.0
H494 H 0.69485 0.47679 0.04362 0.0
H495 H 0.68048 0.44222 0.98794 0.0
C496 C 0.62671 0.47663 0.93769 0.0
C497 C 0.59705 0.49805 0.91369 0.0
C498 C 0.63144 0.49351 0.97023 0.0
C499 C 0.57044 0.53517 0.92278 0.0
C500 C 0.57546 0.55259 0.95508 0.0
C501 C 0.6153 0.55281 0.01123 0.0
C502 C 0.64852 0.53411 0.03471 0.0
C503 C 0.60672 0.53278 0.97899 0.0
C504 C 0.67007 0.49278 0.02592 0.0
C505 C 0.66185 0.47287 -0.00595 0.0
H506 H 1.06331 0.59078 0.24597 0.0
H507 H 0.20114 0.53461 0.24607 0.0
H508 H 0.20867 0.52529 0.30393 0.0
H509 H 0.1807 0.54288 0.35532 0.0
H510 H 1.04183 0.59701 0.35475 0.0
H511 H 1.0293 0.59647 0.29604 0.0
C512 C 1.09462 0.57589 0.25866 0.0
C513 C 0.13207 0.56417 0.24212 0.0
C514 C 1.09841 0.57031 0.29172 0.0
C515 C 0.17201 0.54402 0.25847 0.0
C516 C 0.1764 0.5389 0.29152 0.0
C517 C 0.14721 0.5534 0.34214 0.0
C518 C 0.11233 0.57023 0.35907 0.0
C519 C 0.14051 0.55327 0.30851 0.0
C520 C 1.06893 0.58365 0.34203 0.0
C521 C 1.06203 0.58379 0.30857 0.0
loop_
_geom_bond_atom_site_label_1
_geom_bond_atom_site_label_2
_geom_bond_distance
_geom_bond_site_symmetry_2
_ccdc_geom_bond_type
Dy0 O3 2.307 1_455 S
Dy0 O5 2.395 . S
Dy0 O6 2.379 . S
Dy0 O8 2.339 . S
Dy0 O10 2.298 . S
Dy0 O14 2.275 . S
Dy0 C22 2.738 . S
Dy1 O4 2.298 . S
Dy1 O7 2.275 1_655 S
Dy1 O9 2.307 1_655 S
Dy1 O11 2.395 . S
Dy1 O12 2.379 . S
Dy1 O15 2.339 . S
Dy1 C31 2.738 . S
C2 O14 1.254 . S
C2 O15 1.257 1_455 S
O3 Dy0 2.307 1_655 S
O3 C13 1.266 . S
O4 Dy1 2.298 . S
O4 C13 1.236 . S
O5 Dy0 2.395 . S
O5 C22 1.255 . S
O6 Dy0 2.379 . S
O6 C22 1.249 . S
O7 Dy1 2.275 1_455 S
O7 C23 1.254 . S
O8 Dy0 2.339 . S
O8 C23 1.257 . S
O9 Dy1 2.307 1_455 S
O9 C24 1.266 . S
O10 Dy0 2.298 . S
O10 C24 1.236 . S
O11 Dy1 2.395 . S
O11 C31 1.255 . S
O12 Dy1 2.379 . S
O12 C31 1.249 . S
C13 O3 1.266 . S
C13 O4 1.236 . S
O14 Dy0 2.275 . S
O14 C2 1.254 . S
O15 Dy1 2.339 . S
O15 C2 1.257 1_655 S
C16 C19 1.344 . S
C16 C20 1.328 . S
C16 C22 1.516 . S
C17 C18 1.304 . S
C17 C21 1.323 . S
C18 C17 1.304 . S
C18 C19 1.371 . S
C18 H32 0.930 . S
C19 C16 1.344 . S
C19 C18 1.371 . S
C19 H33 0.931 . S
C20 C16 1.328 . S
C20 C21 1.433 . S
C20 H34 0.931 . S
C21 C17 1.323 . S
C21 C20 1.433 . S
C21 H35 0.933 . S
C22 Dy0 2.738 . S
C22 O5 1.255 . S
C22 O6 1.249 . S
C22 C16 1.516 . S
C23 O7 1.254 . S
C23 O8 1.257 . S
C24 O9 1.266 . S
C24 O10 1.236 . S
C25 C28 1.344 . S
C25 C29 1.328 . S
C25 C31 1.516 . S
C26 C27 1.304 . S
C26 C30 1.323 . S
C27 C26 1.304 . S
C27 C28 1.371 . S
C27 H36 0.930 . S
C28 C25 1.344 . S
C28 C27 1.371 . S
C28 H37 0.931 . S
C29 C25 1.328 . S
C29 C30 1.433 . S
C29 H38 0.931 . S
C30 C26 1.323 . S
C30 C29 1.433 . S
C30 H39 0.933 . S
C31 Dy1 2.738 . S
C31 O11 1.255 . S
C31 O12 1.249 . S
C31 C25 1.516 . S
H32 C18 0.930 . S
H33 C19 0.931 . S
H34 C20 0.931 . S
H35 C21 0.933 . S
H36 C27 0.930 . S
H37 C28 0.931 . S
H38 C29 0.931 . S
H39 C30 0.933 . S
Dy40 O43 2.307 . S
Dy40 O45 2.395 1_545 S
Dy40 O46 2.379 1_545 S
Dy40 O48 2.339 . S
Dy40 O50 2.298 1_545 S
Dy40 O54 2.275 . S
Dy40 C62 2.738 1_545 S
Dy41 O44 2.298 . S
Dy41 O47 2.275 . S
Dy41 O49 2.307 1_545 S
Dy41 O51 2.395 . S
Dy41 O52 2.379 . S
Dy41 O55 2.339 . S
Dy41 C71 2.738 . S
C42 O54 1.254 . S
C42 O55 1.257 . S
O43 Dy40 2.307 . S
O43 C53 1.266 . S
O44 Dy41 2.298 . S
O44 C53 1.236 . S
O45 Dy40 2.395 1_565 S
O45 C62 1.255 . S
O46 Dy40 2.379 1_565 S
O46 C62 1.249 . S
O47 Dy41 2.275 . S
O47 C63 1.254 . S
O48 Dy40 2.339 . S
O48 C63 1.257 . S
O49 Dy41 2.307 1_565 S
O49 C64 1.266 . S
O50 Dy40 2.298 1_565 S
O50 C64 1.236 . S
O51 Dy41 2.395 . S
O51 C71 1.255 . S
O52 Dy41 2.379 . S
O52 C71 1.249 . S
C53 O43 1.266 . S
C53 O44 1.236 . S
O54 Dy40 2.275 . S
O54 C42 1.254 . S
O55 Dy41 2.339 . S
O55 C42 1.257 . S
C56 C59 1.344 . S
C56 C60 1.328 . S
C56 C62 1.516 . S
C57 C58 1.304 . S
C57 C61 1.323 . S
C58 C57 1.304 . S
C58 C59 1.371 . S
C58 H72 0.930 . S
C59 C56 1.344 . S
C59 C58 1.371 . S
C59 H73 0.931 . S
C60 C56 1.328 . S
C60 C61 1.433 . S
C60 H74 0.931 . S
C61 C57 1.323 . S
C61 C60 1.433 . S
C61 H75 0.933 . S
C62 Dy40 2.738 1_565 S
C62 O45 1.255 . S
C62 O46 1.249 . S
C62 C56 1.516 . S
C63 O47 1.254 . S
C63 O48 1.257 . S
C64 O49 1.266 . S
C64 O50 1.236 . S
C65 C68 1.344 . S
C65 C69 1.328 . S
C65 C71 1.516 . S
C66 C67 1.304 . S
C66 C70 1.323 . S
C67 C66 1.304 . S
C67 C68 1.371 . S
C67 H76 0.930 . S
C68 C65 1.344 . S
C68 C67 1.371 . S
C68 H77 0.931 . S
C69 C65 1.328 . S
C69 C70 1.433 . S
C69 H78 0.931 . S
C70 C66 1.323 . S
C70 C69 1.433 . S
C70 H79 0.933 . S
C71 Dy41 2.738 . S
C71 O51 1.255 . S
C71 O52 1.249 . S
C71 C65 1.516 . S
H72 C58 0.930 . S
H73 C59 0.931 . S
H74 C60 0.931 . S
H75 C61 0.933 . S
H76 C67 0.930 . S
H77 C68 0.931 . S
H78 C69 0.931 . S
H79 C70 0.933 . S
Dy80 O83 2.307 . S
Dy80 O85 2.395 . S
Dy80 O86 2.379 . S
Dy80 O88 2.339 . S
Dy80 O90 2.298 . S
Dy80 O94 2.275 . S
Dy80 C102 2.738 . S
Dy81 O84 2.298 . S
Dy81 O87 2.275 . S
Dy81 O89 2.307 . S
Dy81 O91 2.395 . S
Dy81 O92 2.379 . S
Dy81 O95 2.339 . S
Dy81 C111 2.738 . S
C82 O94 1.254 . S
C82 O95 1.257 . S
O83 Dy80 2.307 . S
O83 C93 1.266 . S
O84 Dy81 2.298 . S
O84 C93 1.236 . S
O85 Dy80 2.395 . S
O85 C102 1.255 . S
O86 Dy80 2.379 . S
O86 C102 1.249 . S
O87 Dy81 2.275 . S
O87 C103 1.254 . S
O88 Dy80 2.339 . S
O88 C103 1.257 . S
O89 Dy81 2.307 . S
O89 C104 1.266 . S
O90 Dy80 2.298 . S
O90 C104 1.236 . S
O91 Dy81 2.395 . S
O91 C111 1.255 . S
O92 Dy81 2.379 . S
O92 C111 1.249 . S
C93 O83 1.266 . S
C93 O84 1.236 . S
O94 Dy80 2.275 . S
O94 C82 1.254 . S
O95 Dy81 2.339 . S
O95 C82 1.257 . S
C96 C99 1.344 . S
C96 C100 1.328 . S
C96 C102 1.516 . S
C97 C98 1.304 . S
C97 C101 1.323 . S
C98 C97 1.304 . S
C98 C99 1.371 . S
C98 H112 0.930 . S
C99 C96 1.344 . S
C99 C98 1.371 . S
C99 H113 0.931 . S
C100 C96 1.328 . S
C100 C101 1.433 . S
C100 H114 0.931 . S
C101 C97 1.323 . S
C101 C100 1.433 . S
C101 H115 0.933 . S
C102 Dy80 2.738 . S
C102 O85 1.255 . S
C102 O86 1.249 . S
C102 C96 1.516 . S
C103 O87 1.254 . S
C103 O88 1.257 . S
C104 O89 1.266 . S
C104 O90 1.236 . S
C105 C108 1.344 . S
C105 C109 1.328 . S
C105 C111 1.516 . S
C106 C107 1.304 . S
C106 C110 1.323 . S
C107 C106 1.304 . S
C107 C108 1.371 . S
C107 H116 0.930 . S
C108 C105 1.344 . S
C108 C107 1.371 . S
C108 H117 0.931 . S
C109 C105 1.328 . S
C109 C110 1.433 . S
C109 H118 0.931 . S
C110 C106 1.323 . S
C110 C109 1.433 . S
C110 H119 0.933 . S
C111 Dy81 2.738 . S
C111 O91 1.255 . S
C111 O92 1.249 . S
C111 C105 1.516 . S
H112 C98 0.930 . S
H113 C99 0.931 . S
H114 C100 0.931 . S
H115 C101 0.933 . S
H116 C107 0.930 . S
H117 C108 0.931 . S
H118 C109 0.931 . S
H119 C110 0.933 . S
H120 C121 0.949 . S
C121 H120 0.949 . S
C121 C122 1.395 . S
C121 C123 1.391 . S
C122 C121 1.395 . S
C122 C125 1.390 . S
C123 C121 1.391 . S
C123 C127 1.387 . S
C123 C128 1.491 . S
H124 C125 0.950 . S
C125 C122 1.390 . S
C125 H124 0.950 . S
C125 C126 1.378 . S
C126 C125 1.378 . S
C126 C127 1.409 . S
C127 C123 1.387 . S
C127 C126 1.409 . S
C127 H129 0.951 . S
C128 C123 1.491 . S
C128 C130 1.382 . S
C128 C132 1.404 . S
H129 C127 0.951 . S
C130 C128 1.382 . S
C130 C131 1.390 . S
C130 H135 0.949 . S
C131 C130 1.390 . S
C131 C136 1.399 . S
C132 C128 1.404 . S
C132 H133 0.950 . S
C132 C134 1.375 . S
H133 C132 0.950 . S
C134 C132 1.375 . S
C134 C136 1.382 . S
C134 H138 0.950 . S
H135 C130 0.949 . S
C136 C131 1.399 . S
C136 C134 1.382 . S
C136 H137 0.952 . S
H137 C136 0.952 . S
H138 C134 0.950 . S
H139 C140 0.949 . S
C140 H139 0.949 . S
C140 C141 1.395 . S
C140 C142 1.391 . S
C141 C140 1.395 . S
C141 C144 1.390 . S
C142 C140 1.391 . S
C142 C146 1.387 . S
C142 C147 1.491 . S
H143 C144 0.950 . S
C144 C141 1.390 . S
C144 H143 0.950 . S
C144 C145 1.378 . S
C145 C144 1.378 . S
C145 C146 1.409 . S
C146 C142 1.387 . S
C146 C145 1.409 . S
C146 H148 0.951 . S
C147 C142 1.491 . S
C147 C149 1.382 . S
C147 C151 1.404 . S
H148 C146 0.951 . S
C149 C147 1.382 . S
C149 C150 1.390 . S
C149 H154 0.949 . S
C150 C149 1.390 . S
C150 C155 1.399 . S
C151 C147 1.404 . S
C151 H152 0.950 . S
C151 C153 1.375 . S
H152 C151 0.950 . S
C153 C151 1.375 . S
C153 C155 1.382 . S
C153 H157 0.950 . S
H154 C149 0.949 . S
C155 C150 1.399 . S
C155 C153 1.382 . S
C155 H156 0.952 . S
H156 C155 0.952 . S
H157 C153 0.950 . S
H158 C159 0.949 . S
C159 H158 0.949 . S
C159 C160 1.395 . S
C159 C161 1.391 . S
C160 C159 1.395 . S
C160 C163 1.390 1_455 S
C161 C159 1.391 . S
C161 C165 1.387 . S
C161 C166 1.491 . S
H162 C163 0.950 . S
C163 C160 1.390 1_655 S
C163 H162 0.950 . S
C163 C164 1.378 . S
C164 C163 1.378 . S
C164 C165 1.409 1_655 S
C165 C161 1.387 . S
C165 C164 1.409 1_455 S
C165 H167 0.951 1_455 S
C166 C161 1.491 . S
C166 C168 1.382 . S
C166 C170 1.404 . S
H167 C165 0.951 1_655 S
C168 C166 1.382 . S
C168 C169 1.390 . S
C168 H173 0.949 . S
C169 C168 1.390 . S
C169 C174 1.399 . S
C170 C166 1.404 . S
C170 H171 0.950 . S
C170 C172 1.375 . S
H171 C170 0.950 . S
C172 C170 1.375 . S
C172 C174 1.382 . S
C172 H176 0.950 . S
H173 C168 0.949 . S
C174 C169 1.399 . S
C174 C172 1.382 . S
C174 H175 0.952 . S
H175 C174 0.952 . S
H176 C172 0.950 . S
H177 C178 0.949 1_655 S
C178 H177 0.949 1_455 S
C178 C179 1.395 . S
C178 C180 1.391 . S
C179 C178 1.395 . S
C179 C182 1.390 . S
C180 C178 1.391 . S
C180 C184 1.387 . S
C180 C185 1.491 1_455 S
H181 C182 0.950 . S
C182 C179 1.390 . S
C182 H181 0.950 . S
C182 C183 1.378 . S
C183 C182 1.378 . S
C183 C184 1.409 . S
C184 C180 1.387 . S
C184 C183 1.409 . S
C184 H186 0.951 . S
C185 C180 1.491 1_655 S
C185 C187 1.382 . S
C185 C189 1.404 . S
H186 C184 0.951 . S
C187 C185 1.382 . S
C187 C188 1.390 . S
C187 H192 0.949 . S
C188 C187 1.390 . S
C188 C193 1.399 . S
C189 C185 1.404 . S
C189 H190 0.948 1_655 S
C189 C191 1.375 . S
H190 C189 0.948 1_455 S
C191 C189 1.375 . S
C191 C193 1.382 . S
C191 H195 0.950 . S
H192 C187 0.949 . S
C193 C188 1.399 . S
C193 C191 1.382 . S
C193 H194 0.952 . S
H194 C193 0.952 . S
H195 C191 0.950 . S
H196 C197 0.949 1_565 S
C197 H196 0.949 1_545 S
C197 C198 1.395 . S
C197 C199 1.391 . S
C198 C197 1.395 . S
C198 C201 1.390 . S
C199 C197 1.391 . S
C199 C203 1.387 . S
C199 C204 1.491 1_545 S
H200 C201 0.950 . S
C201 C198 1.390 . S
C201 H200 0.950 . S
C201 C202 1.378 . S
C202 C201 1.378 . S
C202 C203 1.409 . S
C203 C199 1.387 . S
C203 C202 1.409 . S
C203 H205 0.951 . S
C204 C199 1.491 1_565 S
C204 C206 1.382 . S
C204 C208 1.404 . S
H205 C203 0.951 . S
C206 C204 1.382 . S
C206 C207 1.390 . S
C206 H211 0.949 . S
C207 C206 1.390 . S
C207 C212 1.399 . S
C208 C204 1.404 . S
C208 H209 0.950 . S
C208 C210 1.375 . S
H209 C208 0.950 . S
C210 C208 1.375 . S
C210 C212 1.382 . S
C210 H214 0.950 . S
H211 C206 0.949 . S
C212 C207 1.399 . S
C212 C210 1.382 . S
C212 H213 0.952 . S
H213 C212 0.952 . S
H214 C210 0.950 . S
H215 C216 0.949 . S
C216 H215 0.949 . S
C216 C217 1.395 . S
C216 C218 1.391 . S
C217 C216 1.395 . S
C217 C220 1.390 . S
C218 C216 1.391 . S
C218 C222 1.387 . S
C218 C223 1.491 . S
H219 C220 0.950 . S
C220 C217 1.390 . S
C220 H219 0.950 . S
C220 C221 1.378 . S
C221 C220 1.378 . S
C221 C222 1.409 . S
C222 C218 1.387 . S
C222 C221 1.409 . S
C222 H224 0.951 . S
C223 C218 1.491 . S
C223 C225 1.382 . S
C223 C227 1.404 . S
H224 C222 0.951 . S
C225 C223 1.382 . S
C225 C226 1.390 . S
C225 H230 0.949 . S
C226 C225 1.390 . S
C226 C231 1.399 . S
C227 C223 1.404 . S
C227 H228 0.950 . S
C227 C229 1.375 . S
H228 C227 0.950 . S
C229 C227 1.375 . S
C229 C231 1.382 . S
C229 H233 0.950 . S
H230 C225 0.949 . S
C231 C226 1.399 . S
C231 C229 1.382 . S
C231 H232 0.952 . S
H232 C231 0.952 . S
H233 C229 0.950 . S
H234 C240 0.930 . S
H235 C243 0.930 . S
H236 C244 0.930 . S
H237 C245 0.930 . S
H238 C248 0.930 . S
H239 C249 0.930 . S
C240 H234 0.930 . S
C240 C241 1.355 . S
C240 C242 1.415 . S
C241 C240 1.355 . S
C241 C243 1.419 . S
C242 C240 1.415 . S
C242 C247 1.425 . S
C242 C249 1.409 . S
C243 H235 0.930 . S
C243 C241 1.419 . S
C243 C244 1.362 . S
C244 H236 0.930 . S
C244 C243 1.362 . S
C244 C247 1.409 . S
C245 H237 0.930 . S
C245 C246 1.355 . S
C245 C247 1.415 . S
C246 C245 1.355 . S
C246 C248 1.419 . S
C247 C242 1.425 . S
C247 C244 1.409 . S
C247 C245 1.415 . S
C248 H238 0.930 . S
C248 C246 1.419 . S
C248 C249 1.362 . S
C249 H239 0.930 . S
C249 C242 1.409 . S
C249 C248 1.362 . S
H250 C256 0.930 . S
H251 C259 0.930 . S
H252 C260 0.930 . S
H253 C261 0.930 . S
H254 C264 0.930 . S
H255 C265 0.930 . S
C256 H250 0.930 . S
C256 C257 1.355 . S
C256 C258 1.415 . S
C257 C256 1.355 . S
C257 C259 1.419 . S
C258 C256 1.415 . S
C258 C263 1.425 . S
C258 C265 1.409 . S
C259 H251 0.930 . S
C259 C257 1.419 . S
C259 C260 1.362 . S
C260 H252 0.930 . S
C260 C259 1.362 . S
C260 C263 1.409 . S
C261 H253 0.930 . S
C261 C262 1.355 . S
C261 C263 1.415 . S
C262 C261 1.355 . S
C262 C264 1.419 . S
C263 C258 1.425 . S
C263 C260 1.409 . S
C263 C261 1.415 . S
C264 H254 0.930 . S
C264 C262 1.419 . S
C264 C265 1.362 . S
C265 H255 0.930 . S
C265 C258 1.409 . S
C265 C264 1.362 . S
H266 C272 0.930 . S
H267 C275 0.930 . S
H268 C276 0.930 . S
H269 C277 0.930 . S
H270 C280 0.930 . S
H271 C281 0.930 . S
C272 H266 0.930 . S
C272 C273 1.355 . S
C272 C274 1.415 . S
C273 C272 1.355 . S
C273 C275 1.419 . S
C274 C272 1.415 . S
C274 C279 1.425 . S
C274 C281 1.409 . S
C275 H267 0.930 . S
C275 C273 1.419 . S
C275 C276 1.362 . S
C276 H268 0.930 . S
C276 C275 1.362 . S
C276 C279 1.409 . S
C277 H269 0.930 . S
C277 C278 1.355 . S
C277 C279 1.415 . S
C278 C277 1.355 . S
C278 C280 1.419 . S
C279 C274 1.425 . S
C279 C276 1.409 . S
C279 C277 1.415 . S
C280 H270 0.930 . S
C280 C278 1.419 . S
C280 C281 1.362 . S
C281 H271 0.930 . S
C281 C274 1.409 . S
C281 C280 1.362 . S
H282 C288 0.930 . S
H283 C291 0.930 . S
H284 C292 0.930 . S
H285 C293 0.930 . S
H286 C296 0.930 . S
H287 C297 0.930 . S
C288 H282 0.930 . S
C288 C289 1.355 . S
C288 C290 1.415 . S
C289 C288 1.355 . S
C289 C291 1.419 . S
C290 C288 1.415 . S
C290 C295 1.425 . S
C290 C297 1.409 . S
C291 H283 0.930 . S
C291 C289 1.419 . S
C291 C292 1.362 . S
C292 H284 0.930 . S
C292 C291 1.362 . S
C292 C295 1.409 . S
C293 H285 0.930 . S
C293 C294 1.355 . S
C293 C295 1.415 . S
C294 C293 1.355 . S
C294 C296 1.419 . S
C295 C290 1.425 . S
C295 C292 1.409 . S
C295 C293 1.415 . S
C296 H286 0.930 . S
C296 C294 1.419 . S
C296 C297 1.362 . S
C297 H287 0.930 . S
C297 C290 1.409 . S
C297 C296 1.362 . S
H298 C304 0.930 . S
H299 C307 0.930 . S
H300 C308 0.930 . S
H301 C309 0.930 . S
H302 C312 0.930 . S
H303 C313 0.930 . S
C304 H298 0.930 . S
C304 C305 1.355 . S
C304 C306 1.415 . S
C305 C304 1.355 . S
C305 C307 1.419 . S
C306 C304 1.415 . S
C306 C311 1.425 . S
C306 C313 1.409 . S
C307 H299 0.930 . S
C307 C305 1.419 . S
C307 C308 1.362 . S
C308 H300 0.930 . S
C308 C307 1.362 . S
C308 C311 1.409 . S
C309 H301 0.930 . S
C309 C310 1.355 . S
C309 C311 1.415 . S
C310 C309 1.355 . S
C310 C312 1.419 . S
C311 C306 1.425 . S
C311 C308 1.409 . S
C311 C309 1.415 . S
C312 H302 0.930 . S
C312 C310 1.419 . S
C312 C313 1.362 . S
C313 H303 0.930 . S
C313 C306 1.409 . S
C313 C312 1.362 . S
H314 C320 0.930 . S
H315 C323 0.930 . S
H316 C324 0.930 . S
H317 C325 0.930 . S
H318 C328 0.930 . S
H319 C329 0.930 . S
C320 H314 0.930 . S
C320 C321 1.355 . S
C320 C322 1.415 . S
C321 C320 1.355 . S
C321 C323 1.419 . S
C322 C320 1.415 . S
C322 C327 1.425 . S
C322 C329 1.409 . S
C323 H315 0.930 . S
C323 C321 1.419 . S
C323 C324 1.362 . S
C324 H316 0.930 . S
C324 C323 1.362 . S
C324 C327 1.409 . S
C325 H317 0.930 . S
C325 C326 1.355 . S
C325 C327 1.415 . S
C326 C325 1.355 . S
C326 C328 1.419 . S
C327 C322 1.425 . S
C327 C324 1.409 . S
C327 C325 1.415 . S
C328 H318 0.930 . S
C328 C326 1.419 . S
C328 C329 1.362 . S
C329 H319 0.930 . S
C329 C322 1.409 . S
C329 C328 1.362 . S
H330 C336 0.930 . S
H331 C339 0.930 . S
H332 C340 0.930 . S
H333 C341 0.930 . S
H334 C344 0.930 . S
H335 C345 0.930 . S
C336 H330 0.930 . S
C336 C337 1.355 . S
C336 C338 1.415 . S
C337 C336 1.355 . S
C337 C339 1.419 . S
C338 C336 1.415 . S
C338 C343 1.425 . S
C338 C345 1.409 . S
C339 H331 0.930 . S
C339 C337 1.419 . S
C339 C340 1.362 . S
C340 H332 0.930 . S
C340 C339 1.362 . S
C340 C343 1.409 . S
C341 H333 0.930 . S
C341 C342 1.355 . S
C341 C343 1.415 . S
C342 C341 1.355 . S
C342 C344 1.419 . S
C343 C338 1.425 . S
C343 C340 1.409 . S
C343 C341 1.415 . S
C344 H334 0.930 . S
C344 C342 1.419 . S
C344 C345 1.362 . S
C345 H335 0.930 . S
C345 C338 1.409 . S
C345 C344 1.362 . S
H346 C352 0.930 . S
H347 C355 0.930 . S
H348 C356 0.930 . S
H349 C357 0.930 . S
H350 C360 0.930 . S
H351 C361 0.930 . S
C352 H346 0.930 . S
C352 C353 1.355 . S
C352 C354 1.415 . S
C353 C352 1.355 . S
C353 C355 1.419 . S
C354 C352 1.415 . S
C354 C359 1.425 . S
C354 C361 1.409 . S
C355 H347 0.930 . S
C355 C353 1.419 . S
C355 C356 1.362 . S
C356 H348 0.930 . S
C356 C355 1.362 . S
C356 C359 1.409 . S
C357 H349 0.930 . S
C357 C358 1.355 . S
C357 C359 1.415 . S
C358 C357 1.355 . S
C358 C360 1.419 . S
C359 C354 1.425 . S
C359 C356 1.409 . S
C359 C357 1.415 . S
C360 H350 0.930 . S
C360 C358 1.419 . S
C360 C361 1.362 . S
C361 H351 0.930 . S
C361 C354 1.409 . S
C361 C360 1.362 . S
H362 C368 0.930 . S
H363 C371 0.930 . S
H364 C372 0.930 1_545 S
H365 C373 0.933 . S
H366 C376 0.930 . S
H367 C377 0.930 . S
C368 H362 0.930 . S
C368 C369 1.355 . S
C368 C370 1.415 . S
C369 C368 1.355 . S
C369 C371 1.419 . S
C370 C368 1.415 . S
C370 C375 1.425 . S
C370 C377 1.409 . S
C371 H363 0.930 . S
C371 C369 1.419 . S
C371 C372 1.362 . S
C372 H364 0.930 1_565 S
C372 C371 1.362 . S
C372 C375 1.409 . S
C373 H365 0.933 . S
C373 C374 1.353 1_545 S
C373 C375 1.413 1_545 S
C374 C373 1.353 1_565 S
C374 C376 1.419 . S
C375 C370 1.425 . S
C375 C372 1.409 . S
C375 C373 1.413 1_565 S
C376 H366 0.930 . S
C376 C374 1.419 . S
C376 C377 1.362 . S
C377 H367 0.930 . S
C377 C370 1.409 . S
C377 C376 1.362 . S
H378 C384 0.930 . S
H379 C387 0.930 . S
H380 C388 0.930 . S
H381 C389 0.930 . S
H382 C392 0.930 . S
H383 C393 0.930 . S
C384 H378 0.930 . S
C384 C385 1.355 . S
C384 C386 1.415 . S
C385 C384 1.355 . S
C385 C387 1.419 . S
C386 C384 1.415 . S
C386 C391 1.425 . S
C386 C393 1.409 . S
C387 H379 0.930 . S
C387 C385 1.419 . S
C387 C388 1.362 . S
C388 H380 0.930 . S
C388 C387 1.362 . S
C388 C391 1.409 . S
C389 H381 0.930 . S
C389 C390 1.355 . S
C389 C391 1.415 . S
C390 C389 1.355 . S
C390 C392 1.419 . S
C391 C386 1.425 . S
C391 C388 1.409 . S
C391 C389 1.415 . S
C392 H382 0.930 . S
C392 C390 1.419 . S
C392 C393 1.362 . S
C393 H383 0.930 . S
C393 C386 1.409 . S
C393 C392 1.362 . S
H394 C400 0.930 . S
H395 C403 0.930 . S
H396 C404 0.930 . S
H397 C405 0.930 . S
H398 C408 0.930 . S
H399 C409 0.930 . S
C400 H394 0.930 . S
C400 C401 1.355 . S
C400 C402 1.415 . S
C401 C400 1.355 . S
C401 C403 1.419 . S
C402 C400 1.415 . S
C402 C407 1.425 . S
C402 C409 1.409 . S
C403 H395 0.930 . S
C403 C401 1.419 . S
C403 C404 1.362 . S
C404 H396 0.930 . S
C404 C403 1.362 . S
C404 C407 1.409 . S
C405 H397 0.930 . S
C405 C406 1.355 . S
C405 C407 1.415 . S
C406 C405 1.355 . S
C406 C408 1.419 . S
C407 C402 1.425 . S
C407 C404 1.409 . S
C407 C405 1.415 . S
C408 H398 0.930 . S
C408 C406 1.419 . S
C408 C409 1.362 . S
C409 H399 0.930 . S
C409 C402 1.409 . S
C409 C408 1.362 . S
H410 C416 0.930 . S
H411 C419 0.930 . S
H412 C420 0.930 . S
H413 C421 0.930 . S
H414 C424 0.930 . S
H415 C425 0.930 . S
C416 H410 0.930 . S
C416 C417 1.355 . S
C416 C418 1.415 . S
C417 C416 1.355 . S
C417 C419 1.419 . S
C418 C416 1.415 . S
C418 C423 1.425 . S
C418 C425 1.409 . S
C419 H411 0.930 . S
C419 C417 1.419 . S
C419 C420 1.362 . S
C420 H412 0.930 . S
C420 C419 1.362 . S
C420 C423 1.409 . S
C421 H413 0.930 . S
C421 C422 1.355 . S
C421 C423 1.415 . S
C422 C421 1.355 . S
C422 C424 1.419 . S
C423 C418 1.425 . S
C423 C420 1.409 . S
C423 C421 1.415 . S
C424 H414 0.930 . S
C424 C422 1.419 . S
C424 C425 1.362 . S
C425 H415 0.930 . S
C425 C418 1.409 . S
C425 C424 1.362 . S
H426 C432 0.930 . S
H427 C435 0.930 . S
H428 C436 0.930 . S
H429 C437 0.930 1_655 S
H430 C440 0.930 . S
H431 C441 0.930 . S
C432 H426 0.930 . S
C432 C433 1.355 . S
C432 C434 1.415 . S
C433 C432 1.355 . S
C433 C435 1.419 1_455 S
C434 C432 1.415 . S
C434 C439 1.425 . S
C434 C441 1.409 . S
C435 H427 0.930 . S
C435 C433 1.419 1_655 S
C435 C436 1.362 . S
C436 H428 0.930 . S
C436 C435 1.362 . S
C436 C439 1.409 1_655 S
C437 H429 0.930 1_455 S
C437 C438 1.355 . S
C437 C439 1.415 1_556 S
C438 C437 1.355 . S
C438 C440 1.419 . S
C439 C434 1.425 . S
C439 C436 1.409 1_455 S
C439 C437 1.415 1_554 S
C440 H430 0.930 . S
C440 C438 1.419 . S
C440 C441 1.362 1_556 S
C441 H431 0.930 . S
C441 C434 1.409 . S
C441 C440 1.362 1_554 S
H442 C448 0.930 . S
H443 C451 0.930 1_565 S
H444 C452 0.930 1_565 S
H445 C453 0.930 . S
H446 C456 0.930 . S
H447 C457 0.930 . S
C448 H442 0.930 . S
C448 C449 1.355 . S
C448 C450 1.415 . S
C449 C448 1.355 . S
C449 C451 1.419 . S
C450 C448 1.415 . S
C450 C455 1.425 . S
C450 C457 1.409 . S
C451 H443 0.930 1_545 S
C451 C449 1.419 . S
C451 C452 1.362 . S
C452 H444 0.930 1_545 S
C452 C451 1.362 . S
C452 C455 1.409 . S
C453 H445 0.930 . S
C453 C454 1.355 . S
C453 C455 1.415 . S
C454 C453 1.355 . S
C454 C456 1.419 . S
C455 C450 1.425 . S
C455 C452 1.409 . S
C455 C453 1.415 . S
C456 H446 0.930 . S
C456 C454 1.419 . S
C456 C457 1.362 . S
C457 H447 0.930 . S
C457 C450 1.409 . S
C457 C456 1.362 . S
H458 C464 0.930 . S
H459 C467 0.930 . S
H460 C468 0.930 . S
H461 C469 0.930 . S
H462 C472 0.930 . S
H463 C473 0.930 . S
C464 H458 0.930 . S
C464 C465 1.355 . S
C464 C466 1.415 . S
C465 C464 1.355 . S
C465 C467 1.419 . S
C466 C464 1.415 . S
C466 C471 1.425 . S
C466 C473 1.409 . S
C467 H459 0.930 . S
C467 C465 1.419 . S
C467 C468 1.362 . S
C468 H460 0.930 . S
C468 C467 1.362 . S
C468 C471 1.409 . S
C469 H461 0.930 . S
C469 C470 1.355 . S
C469 C471 1.415 . S
C470 C469 1.355 . S
C470 C472 1.419 . S
C471 C466 1.425 . S
C471 C468 1.409 . S
C471 C469 1.415 . S
C472 H462 0.930 . S
C472 C470 1.419 . S
C472 C473 1.362 . S
C473 H463 0.930 . S
C473 C466 1.409 . S
C473 C472 1.362 . S
H474 C480 0.930 . S
H475 C483 0.930 . S
H476 C484 0.930 . S
H477 C485 0.930 . S
H478 C488 0.930 1_565 S
H479 C489 0.930 1_565 S
C480 H474 0.930 . S
C480 C481 1.355 . S
C480 C482 1.415 . S
C481 C480 1.355 . S
C481 C483 1.419 . S
C482 C480 1.415 . S
C482 C487 1.425 . S
C482 C489 1.409 . S
C483 H475 0.930 . S
C483 C481 1.419 . S
C483 C484 1.362 . S
C484 H476 0.930 . S
C484 C483 1.362 . S
C484 C487 1.409 . S
C485 H477 0.930 . S
C485 C486 1.355 . S
C485 C487 1.415 . S
C486 C485 1.355 . S
C486 C488 1.419 . S
C487 C482 1.425 . S
C487 C484 1.409 . S
C487 C485 1.415 . S
C488 H478 0.930 1_545 S
C488 C486 1.419 . S
C488 C489 1.362 . S
C489 H479 0.930 1_545 S
C489 C482 1.409 . S
C489 C488 1.362 . S
H490 C496 0.930 . S
H491 C499 0.930 . S
H492 C500 0.930 . S
H493 C501 0.930 . S
H494 C504 0.930 . S
H495 C505 0.930 . S
C496 H490 0.930 . S
C496 C497 1.355 . S
C496 C498 1.415 . S
C497 C496 1.355 . S
C497 C499 1.419 . S
C498 C496 1.415 . S
C498 C503 1.425 . S
C498 C505 1.409 1_556 S
C499 H491 0.930 . S
C499 C497 1.419 . S
C499 C500 1.362 . S
C500 H492 0.930 . S
C500 C499 1.362 . S
C500 C503 1.409 . S
C501 H493 0.930 . S
C501 C502 1.355 . S
C501 C503 1.415 1_554 S
C502 C501 1.355 . S
C502 C504 1.419 . S
C503 C498 1.425 . S
C503 C500 1.409 . S
C503 C501 1.415 1_556 S
C504 H494 0.930 . S
C504 C502 1.419 . S
C504 C505 1.362 . S
C505 H495 0.930 . S
C505 C498 1.409 1_554 S
C505 C504 1.362 . S
H506 C512 0.930 . S
H507 C515 0.930 . S
H508 C516 0.930 . S
H509 C517 0.930 1_655 S
H510 C520 0.930 . S
H511 C521 0.930 . S
C512 H506 0.930 . S
C512 C513 1.355 . S
C512 C514 1.415 . S
C513 C512 1.355 . S
C513 C515 1.419 1_455 S
C514 C512 1.415 . S
C514 C519 1.425 . S
C514 C521 1.409 . S
C515 H507 0.930 . S
C515 C513 1.419 1_655 S
C515 C516 1.362 . S
C516 H508 0.930 . S
C516 C515 1.362 . S
C516 C519 1.409 1_655 S
C517 H509 0.930 1_455 S
C517 C518 1.355 . S
C517 C519 1.415 . S
C518 C517 1.355 . S
C518 C520 1.419 . S
C519 C514 1.425 . S
C519 C516 1.409 1_455 S
C519 C517 1.415 . S
C520 H510 0.930 . S
C520 C518 1.419 . S
C520 C521 1.362 . S
C521 H511 0.930 . S
C521 C514 1.409 . S
C521 C520 1.362 . S
C241 C24 3.098 . S
C246 C226 3.033 . S
C257 C66 1.257 . S
C262 C188 1.181 . S
C273 C93 1.920 . S
C278 C207 1.869 . S
C289 C13 3.037 . S
C294 C221 3.016 . S
C310 C183 1.087 . S
C305 C57 1.066 . S
C326 C202 1.859 . S
C321 C104 1.898 . S
C337 C64 2.041 . S
C342 C150 1.948 . S
C353 C97 0.521 . S
C358 C164 0.407 . S
C369 C17 1.270 . S
C374 C126 1.257 1_565 S
C390 C145 1.725 . S
C385 C53 1.755 . S
C406 C169 0.620 . S
C401 C106 0.484 . S
C417 C26 1.278 . S
C422 C131 1.200 . S
C438 C160 1.329 . S
C433 C2 1.246 . S
C449 C63 1.496 . S
C454 C122 1.513 . S
C465 C82 1.489 . S
C470 C141 1.509 . S
C486 C198 1.511 . S
C481 C42 1.447 . S
C502 C217 1.719 . S
C497 C103 1.749 . S
C513 C23 1.603 . S
C518 C179 1.555 . S
