# Generated by pormake.
# Topology tsx, (6,3)-cn, num edge types: 1
# Building blocks:
#     Node 0, Type 0, BuildingBlock: JUFBIX_clean_sbu_0, # of connection points: 6
#     Node 1, Type 0, BuildingBlock: JUFBIX_clean_sbu_0, # of connection points: 6
#     Node 2, Type 1, BuildingBlock: BETDIP_clean_linker_0, # of connection points: 3
#     Node 3, Type 1, BuildingBlock: BETDIP_clean_linker_0, # of connection points: 3
#     Node 4, Type 1, BuildingBlock: BETDIP_clean_linker_0, # of connection points: 3
#     Node 5, Type 1, BuildingBlock: BETDIP_clean_linker_0, # of connection points: 3
#     Edge 6, Type (0, 1), BuildingBlock: FUNLAD_clean_linker_1, # of connection points: 2
#     Edge 7, Type (0, 1), BuildingBlock: FUNLAD_clean_linker_1, # of connection points: 2
#     Edge 8, Type (0, 1), BuildingBlock: FUNLAD_clean_linker_1, # of connection points: 2
#     Edge 9, Type (0, 1), BuildingBlock: FUNLAD_clean_linker_1, # of connection points: 2
#     Edge 10, Type (0, 1), BuildingBlock: FUNLAD_clean_linker_1, # of connection points: 2
#     Edge 11, Type (0, 1), BuildingBlock: FUNLAD_clean_linker_1, # of connection points: 2
#     Edge 12, Type (0, 1), BuildingBlock: FUNLAD_clean_linker_1, # of connection points: 2
#     Edge 13, Type (0, 1), BuildingBlock: FUNLAD_clean_linker_1, # of connection points: 2
#     Edge 14, Type (0, 1), BuildingBlock: FUNLAD_clean_linker_1, # of connection points: 2
#     Edge 15, Type (0, 1), BuildingBlock: FUNLAD_clean_linker_1, # of connection points: 2
#     Edge 16, Type (0, 1), BuildingBlock: FUNLAD_clean_linker_1, # of connection points: 2
#     Edge 17, Type (0, 1), BuildingBlock: FUNLAD_clean_linker_1, # of connection points: 2
# Relax obj value: 0.106
# Max RMSD: 0.132
# Mean RMSD: 0.118
data_MOF--net-tsx--node1-JUFBIX_clean_sbu_0--node2-BETDIP_clean_linker_0--edge1-FUNLAD_clean_linker_1
_symmetry_space_group_name_H-M    P1
_symmetry_Int_Tables_number       1
_symmetry_cell_setting            triclinic
loop_
_symmetry_equiv_pos_as_xyz
'x, y, z'
_cell_length_a     21.339493
_cell_length_b     24.550158
_cell_length_c     34.19148
_cell_angle_alpha  91.435612
_cell_angle_beta   99.714329
_cell_angle_gamma 99.999237
loop_
_atom_site_label
_atom_site_type_symbol
_atom_site_fract_x
_atom_site_fract_y
_atom_site_fract_z
_atom_type_partial_charge
Co0 Co 0.03993 0.97144 0.99306 0.0
C1 C 0.96952 1.00994 0.92629 0.0
Co2 Co 0.97385 0.02735 0.00582 0.0
C3 C 0.14938 0.91344 0.99306 0.0
C4 C 0.06523 0.88026 0.95011 0.0
N5 N 0.08872 0.92115 0.97865 0.0
N6 N 0.16366 0.86871 0.97502 0.0
C7 C 0.11097 0.84812 0.94778 0.0
H8 H 0.18196 0.93947 0.01664 0.0
H9 H 0.01744 0.87399 0.93215 0.0
C10 C 0.04485 0.9887 0.07253 0.0
N11 N 0.92206 0.07606 0.01899 0.0
C12 C 0.91093 0.12298 0.00143 0.0
C13 C 0.88492 0.07064 0.0474 0.0
N14 N 0.86794 0.14676 0.01744 0.0
C15 C 0.85156 0.114 0.04654 0.0
C16 C 0.9155 0.91774 -0.0006 0.0
O17 O 0.06785 0.96254 0.04746 0.0
O18 O 1.00406 0.01948 0.06054 0.0
O19 O 0.90483 0.96617 0.00608 0.0
O20 O 0.97042 0.91173 0.99252 0.0
O21 O 0.94428 0.03456 0.95095 0.0
H22 H 0.88157 0.03685 0.06709 0.0
H23 H 0.93298 0.13889 0.97675 0.0
O24 O 0.01174 0.98099 0.93887 0.0
O25 O 0.10939 0.0316 -0.00586 0.0
O26 O 0.04375 0.08774 0.0057 0.0
C27 C 0.09946 0.08045 0.00028 0.0
H28 H 0.10615 0.81296 0.92706 0.0
H29 H 0.81766 0.12031 0.06569 0.0
Co30 Co 0.57622 0.48092 0.50032 0.0
C31 C 0.50937 0.51865 0.4316 0.0
Co32 Co 0.51597 0.5431 0.5107 0.0
C33 C 0.67978 0.41674 0.49809 0.0
C34 C 0.58806 0.37911 0.46413 0.0
N35 N 0.61793 0.42417 0.48783 0.0
N36 N 0.68884 0.36835 0.48222 0.0
C37 C 0.63124 0.34484 0.46069 0.0
H38 H 0.71741 0.44622 0.51657 0.0
H39 H 0.53803 0.37201 0.44955 0.0
C40 C 0.58365 0.5047 0.57941 0.0
N41 N 0.47278 0.59931 0.52259 0.0
C42 C 0.41783 0.61298 0.50277 0.0
C43 C 0.49368 0.63843 0.55258 0.0
N44 N 0.40387 0.6591 0.5191 0.0
C45 C 0.45154 0.67514 0.55058 0.0
C46 C 0.44774 0.43823 0.50846 0.0
O47 O 0.60503 0.47552 0.55529 0.0
O48 O 0.54474 0.53644 0.56607 0.0
O49 O 0.44128 0.48846 0.51258 0.0
O50 O 0.50159 0.42728 0.50297 0.0
O51 O 0.48797 0.54862 0.45525 0.0
H52 H 0.53793 0.64115 0.57389 0.0
H53 H 0.38956 0.59055 0.4761 0.0
O54 O 0.54749 0.48678 0.44542 0.0
O55 O 0.65041 0.53537 0.49823 0.0
O56 O 0.59107 0.59725 0.5087 0.0
C57 C 0.64477 0.58574 0.5028 0.0
H58 H 0.62144 0.30663 0.44244 0.0
H59 H 0.45716 0.71162 0.57012 0.0
H60 H 0.09888 0.9952 0.49239 0.0
H61 H 0.01755 0.05532 0.38153 0.0
H62 H 0.12363 0.9225 0.38118 0.0
H63 H 0.04552 0.13786 0.42095 0.0
C64 C 0.0222 0.12225 0.44539 0.0
C65 C 0.09055 0.99307 0.46018 0.0
C66 C 0.11396 0.95293 0.43941 0.0
C67 C 0.05678 0.03085 0.43955 0.0
C68 C 0.04538 0.02762 0.39784 0.0
C69 C 0.07016 0.9893 0.37677 0.0
C70 C 0.10431 0.95196 0.3976 0.0
N71 N 0.03317 0.07097 0.46098 0.0
H72 H 0.9879 1.00548 0.51401 0.0
H73 H 0.06085 0.09278 0.6282 0.0
H74 H 0.94227 0.93284 0.62121 0.0
H75 H 0.03318 0.16462 0.58715 0.0
C76 C 0.06359 0.1563 0.56603 0.0
C77 C 0.99285 1.00721 0.54603 0.0
C78 C 0.96264 0.96206 0.56484 0.0
C79 C 0.02811 0.05494 0.56865 0.0
C80 C 0.03313 0.05687 0.61023 0.0
C81 C 1.0006 1.01359 0.62881 0.0
C82 C 0.96671 0.96613 0.60624 0.0
N83 N 0.0574 0.10126 0.54972 0.0
H84 H 0.57999 0.49743 -0.00444 0.0
H85 H 0.53646 0.58375 0.88927 0.0
H86 H 0.64327 0.45119 0.88855 0.0
H87 H 0.54397 0.65487 0.93634 0.0
C88 C 0.51378 0.63267 0.95551 0.0
C89 C 0.58407 0.50384 0.96476 0.0
C90 C 0.61812 0.47102 0.94494 0.0
C91 C 0.55596 0.54558 0.94524 0.0
C92 C 0.56016 0.55314 0.90508 0.0
C93 C 0.59279 0.52025 0.88451 0.0
C94 C 0.62142 0.47905 0.90464 0.0
N95 N 0.52171 0.57826 0.96592 0.0
H96 H 0.45689 0.49197 0.0233 0.0
H97 H 0.49842 0.59403 0.13222 0.0
H98 H 0.35678 0.44508 0.12008 0.0
H99 H 0.49751 0.66036 0.08159 0.0
C100 C 0.53412 0.64476 0.06825 0.0
C101 C 0.44872 0.49967 0.05322 0.0
C102 C 0.40399 0.46182 0.06947 0.0
C103 C 0.4824 0.54796 0.07559 0.0
C104 C 0.47189 0.55744 0.11456 0.0
C105 C 0.42673 0.52026 0.13065 0.0
C106 C 0.3925 0.47321 0.10779 0.0
N107 N 0.52655 0.58693 0.05889 0.0
H108 H 0.20217 0.11895 0.00477 0.0
C109 C 0.15376 0.1277 0.00398 0.0
H110 H 0.09757 0.18912 0.0099 0.0
H111 H 0.31119 0.35122 0.1259 0.0
H112 H 0.23977 0.31402 0.17017 0.0
H113 H 0.15048 0.23557 0.14795 0.0
H114 H 0.13197 0.19447 0.08102 0.0
C115 C 0.14562 0.18026 0.00943 0.0
C116 C 0.20173 0.22599 0.02243 0.0
C117 C 0.21244 0.24941 0.06182 0.0
C118 C 0.26485 0.29386 0.07481 0.0
C119 C 0.27317 0.31691 0.11424 0.0
C120 C 0.23225 0.29597 0.14015 0.0
C121 C 0.18196 0.25191 0.12764 0.0
C122 C 0.17185 0.22881 0.08901 0.0
H123 H 0.33633 0.41626 0.01805 0.0
C124 C 0.36593 0.41144 0.04644 0.0
H125 H 0.39201 0.35846 0.09111 0.0
H126 H 0.193 0.19231 0.94453 0.0
H127 H 0.26879 0.22501 0.90105 0.0
H128 H 0.36465 0.29699 0.92507 0.0
H129 H 0.38462 0.33753 0.99241 0.0
C130 C 0.36124 0.36187 0.06283 0.0
C131 C 0.30722 0.31459 0.04847 0.0
C132 C 0.29776 0.28975 0.00945 0.0
C133 C 0.24412 0.24626 -0.00384 0.0
C134 C 0.23404 0.22411 0.95652 0.0
C135 C 0.27704 0.24264 0.93121 0.0
C136 C 0.33089 0.28333 0.94469 0.0
C137 C 0.34147 0.30664 0.98334 0.0
H138 H 0.26856 0.87783 0.99187 0.0
C139 C 0.2239 0.84874 0.98148 0.0
H140 H 0.18074 0.7663 0.96295 0.0
H141 H 0.40059 0.69828 0.88491 0.0
H142 H 0.31902 0.70382 0.82727 0.0
H143 H 0.22222 0.74316 0.83371 0.0
H144 H 0.2062 0.77677 0.89781 0.0
C145 C 0.22556 0.79532 0.97279 0.0
C146 C 0.28646 0.77549 0.96944 0.0
C147 C 0.29559 0.75691 0.93151 0.0
C148 C 0.35195 0.73526 0.92765 0.0
C149 C 0.35916 0.71591 0.88953 0.0
C150 C 0.31263 0.71873 0.85614 0.0
C151 C 0.2581 0.74078 0.85978 0.0
C152 C 0.24943 0.75975 0.89688 0.0
H153 H 0.43375 0.63462 0.9859 0.0
C154 C 0.4664 0.65757 0.96843 0.0
H155 H 0.49033 0.7328 0.93867 0.0
H156 H 0.28165 0.80321 0.04692 0.0
H157 H 0.36532 0.80054 0.1042 0.0
H158 H 0.46669 0.76924 0.09652 0.0
H159 H 0.48409 0.73967 0.03142 0.0
C160 C 0.45833 0.71058 0.95689 0.0
C161 C 0.39946 0.73287 0.9616 0.0
C162 C 0.39097 0.75241 -0.00063 0.0
C163 C 0.33377 0.77271 0.00348 0.0
C164 C 0.32509 0.78916 0.0419 0.0
C165 C 0.37261 0.78759 0.07505 0.0
C166 C 0.42957 0.76981 0.07076 0.0
C167 C 0.43887 0.75253 0.03339 0.0
H168 H 0.88108 0.82785 -0.00363 0.0
C169 C 0.86733 0.86766 0.00172 0.0
H170 H 0.79684 0.90807 0.02008 0.0
H171 H 0.65281 0.64309 0.97352 0.0
H172 H 0.66758 0.66043 0.90583 0.0
H173 H 0.72649 0.75039 0.88975 0.0
H174 H 0.77195 0.82285 0.94137 0.0
C175 C 0.81012 0.86879 0.01267 0.0
C176 C 0.76877 0.81641 0.02101 0.0
C177 C 0.74032 0.77535 0.99013 0.0
C178 C 0.70335 0.72456 -0.00101 0.0
C179 C 0.67849 0.68325 0.96804 0.0
C180 C 0.68721 0.69252 0.92914 0.0
C181 C 0.72061 0.74307 0.92012 0.0
C182 C 0.74688 0.78417 0.95011 0.0
H183 H 0.58573 0.7267 0.06817 0.0
C184 C 0.58617 0.6835 0.06068 0.0
H185 H 0.64056 0.62795 0.03694 0.0
H186 H 0.82168 0.88381 0.08782 0.0
H187 H 0.80994 0.8641 0.15555 0.0
H188 H 0.74619 0.77576 0.1706 0.0
H189 H 0.69313 0.70689 0.11778 0.0
C190 C 0.63902 0.67057 0.04538 0.0
C191 C 0.69101 0.71649 0.03808 0.0
C192 C 0.72306 0.75589 0.06932 0.0
C193 C 0.7612 0.80617 0.06073 0.0
C194 C 0.79203 0.84492 0.09254 0.0
C195 C 0.78592 0.83406 0.13164 0.0
C196 C 0.7499 0.7844 0.1401 0.0
C197 C 0.71903 0.74553 0.10947 0.0
H198 H 0.86538 0.21854 0.98125 0.0
C199 C 0.84382 0.1957 0.00398 0.0
H200 H 0.77202 0.19136 0.04018 0.0
H201 H 0.74297 0.44266 0.03008 0.0
H202 H 0.79276 0.44046 0.09907 0.0
H203 H 0.83185 0.35698 0.12439 0.0
H204 H 0.8217 0.27527 0.08082 0.0
C205 C 0.79396 0.21274 0.01714 0.0
C206 C 0.76833 0.26243 0.00179 0.0
C207 C 0.77351 0.30958 0.02781 0.0
C208 C 0.75024 0.35759 0.01332 0.0
C209 C 0.75833 0.4047 0.03967 0.0
C210 C 0.7872 0.40411 0.07932 0.0
C211 C 0.80926 0.35712 0.09357 0.0
C212 C 0.80293 0.31042 0.06824 0.0
H213 H 0.62332 0.40654 0.98925 0.0
C214 C 0.6464 0.42609 0.96586 0.0
H215 H 0.72344 0.42837 0.93394 0.0
H216 H 0.74219 0.17661 0.94503 0.0
H217 H 0.69189 0.17873 0.87625 0.0
H218 H 0.65444 0.26276 0.85072 0.0
H219 H 0.66652 0.34493 0.89397 0.0
C220 C 0.69883 0.40859 0.95658 0.0
C221 C 0.72099 0.35808 0.97291 0.0
C222 C 0.71486 0.31063 0.94703 0.0
C223 C 0.73772 0.26254 0.96156 0.0
C224 C 0.72802 0.21498 0.93538 0.0
C225 C 0.69861 0.21542 0.89582 0.0
C226 C 0.67745 0.26268 0.88146 0.0
C227 C 0.68498 0.3097 0.90664 0.0
H228 H 0.74901 0.61938 0.50707 0.0
C229 C 0.70133 0.63041 0.50412 0.0
H230 H 0.64786 0.69516 0.50303 0.0
H231 H 0.86116 0.85945 0.61736 0.0
H232 H 0.78674 0.82809 0.66145 0.0
H233 H 0.69588 0.75048 0.64055 0.0
H234 H 0.67889 0.70444 0.57524 0.0
C235 C 0.6954 0.68404 0.50507 0.0
C236 C 0.75236 0.72906 0.51732 0.0
C237 C 0.76194 0.75543 0.55574 0.0
C238 C 0.81501 0.79948 0.56798 0.0
C239 C 0.82257 0.82533 0.60647 0.0
C240 C 0.77995 0.80776 0.63219 0.0
C241 C 0.72876 0.7642 0.62041 0.0
C242 C 0.71956 0.73822 0.58271 0.0
H243 H 0.89002 0.91977 0.51406 0.0
C244 C 0.9209 0.91303 0.54154 0.0
H245 H 0.94724 0.85543 0.58313 0.0
H246 H 0.74603 0.68888 0.44124 0.0
H247 H 0.82283 0.71803 0.39753 0.0
H248 H 0.9179 0.79153 0.4198 0.0
H249 H 0.93635 0.83694 0.48565 0.0
C250 C 0.91532 0.86214 0.55607 0.0
C251 C 0.85884 0.81709 0.54181 0.0
C252 C 0.84967 0.79019 0.50353 0.0
C253 C 0.79587 0.74652 0.49111 0.0
C254 C 0.78678 0.7214 0.45239 0.0
C255 C 0.8304 0.73782 0.42701 0.0
C256 C 0.88386 0.77931 0.43952 0.0
C257 C 0.89371 0.80526 0.47733 0.0
H258 H 0.79392 0.37824 0.48882 0.0
C259 C 0.74883 0.34853 0.48405 0.0
H260 H 0.70418 0.26476 0.47314 0.0
H261 H 0.89346 0.18266 0.37575 0.0
H262 H 0.7999 0.18325 0.32473 0.0
H263 H 0.70912 0.22614 0.33867 0.0
H264 H 0.71112 0.26817 0.40381 0.0
C265 C 0.74924 0.29435 0.4775 0.0
C266 C 0.80717 0.27358 0.46897 0.0
C267 C 0.80578 0.25016 0.43039 0.0
C268 C 0.85871 0.2266 0.42208 0.0
C269 C 0.85516 0.20207 0.3836 0.0
C270 C 0.80162 0.20198 0.35399 0.0
C271 C 0.75048 0.22602 0.36185 0.0
C272 C 0.75221 0.24985 0.3995 0.0
H273 H 0.95488 0.13522 0.48339 0.0
C274 C 0.9802 0.15191 0.46006 0.0
H275 H 0.99167 0.21675 0.41912 0.0
H276 H 0.82395 0.31193 0.54671 0.0
H277 H 0.92072 0.31678 0.59647 0.0
H278 H 0.01654 0.28404 0.57998 0.0
H279 H 0.01529 0.24486 0.51365 0.0
C280 C 0.96762 0.20118 0.44327 0.0
C281 C 0.91347 0.22739 0.45214 0.0
C282 C 0.91607 0.25301 0.49014 0.0
C283 C 0.86213 0.27477 0.49896 0.0
C284 C 0.86444 0.29674 0.53796 0.0
C285 C 0.91959 0.29955 0.56685 0.0
C286 C 0.97346 0.28086 0.55761 0.0
C287 C 0.97199 0.25796 0.5197 0.0
H288 H 0.40615 0.35005 0.50864 0.0
C289 C 0.39539 0.39158 0.51127 0.0
H290 H 0.32378 0.43821 0.51998 0.0
H291 H 0.1092 0.22119 0.4615 0.0
H292 H 0.09638 0.27383 0.40233 0.0
H293 H 0.17167 0.36087 0.39754 0.0
H294 H 0.25985 0.39571 0.45184 0.0
C295 C 0.33685 0.39751 0.51807 0.0
C296 C 0.28842 0.34747 0.52227 0.0
C297 C 0.23716 0.32784 0.49041 0.0
C298 C 0.19385 0.27756 0.49312 0.0
C299 C 0.14314 0.25899 0.46085 0.0
C300 C 0.13542 0.28884 0.42678 0.0
C301 C 0.17784 0.33782 0.42407 0.0
C302 C 0.22825 0.3573 0.45541 0.0
H303 H 0.11285 0.23976 0.57449 0.0
C304 C 0.10991 0.20041 0.55839 0.0
H305 H 0.14947 0.15983 0.51362 0.0
H306 H 0.37851 0.37584 0.59002 0.0
H307 H 0.39222 0.32218 0.64846 0.0
H308 H 0.32054 0.23268 0.65183 0.0
H309 H 0.23393 0.19678 0.59704 0.0
C310 C 0.15283 0.19724 0.5321 0.0
C311 C 0.20153 0.24722 0.52781 0.0
C312 C 0.25323 0.26672 0.5596 0.0
C313 C 0.29604 0.31733 0.55709 0.0
C314 C 0.34572 0.33688 0.58989 0.0
C315 C 0.35401 0.30659 0.62369 0.0
C316 C 0.31348 0.25632 0.62565 0.0
C317 C 0.26367 0.23637 0.59407 0.0
H318 H 0.32097 0.67062 0.47518 0.0
C319 C 0.35225 0.68738 0.50286 0.0
H320 H 0.37275 0.75225 0.54768 0.0
H321 H 0.22835 0.87254 0.39534 0.0
H322 H 0.31953 0.86187 0.36406 0.0
H323 H 0.4017 0.80958 0.39531 0.0
H324 H 0.39285 0.76731 0.45773 0.0
C325 C 0.34383 0.73536 0.51945 0.0
C326 C 0.29447 0.76712 0.50034 0.0
C327 C 0.30115 0.79247 0.46403 0.0
C328 C 0.25451 0.82366 0.44643 0.0
C329 C 0.26219 0.84831 0.41007 0.0
C330 C 0.31449 0.84271 0.3918 0.0
C331 C 0.36067 0.81321 0.40936 0.0
C332 C 0.3546 0.78866 0.44513 0.0
H333 H 0.18016 0.92923 0.49083 0.0
C334 C 0.15207 0.91478 0.46172 0.0
H335 H 0.12576 0.84817 0.41821 0.0
H336 H 0.26793 0.72496 0.57029 0.0
H337 H 0.1772 0.73674 0.60195 0.0
H338 H 0.09627 0.79067 0.57124 0.0
H339 H 0.10575 0.8334 0.50881 0.0
C340 C 0.15449 0.86404 0.44679 0.0
C341 C 0.20232 0.83083 0.46565 0.0
C342 C 0.19581 0.80586 0.50202 0.0
C343 C 0.24216 0.77425 0.5195 0.0
C344 C 0.23436 0.74961 0.55579 0.0
C345 C 0.18238 0.75589 0.57422 0.0
C346 C 0.13684 0.78629 0.55695 0.0
C347 C 0.14306 0.81087 0.5212 0.0
H348 H 0.09704 0.95351 0.12428 0.0
C349 C 0.06396 0.98173 0.11516 0.0
H350 H 0.00808 0.03717 0.13422 0.0
H351 H 0.03057 0.88225 0.2883 0.0
H352 H 0.95465 0.81236 0.24445 0.0
H353 H 0.92431 0.82729 0.17317 0.0
H354 H 0.96952 0.91206 0.14529 0.0
C355 C 0.04006 1.00785 0.14261 0.0
C356 C 0.05782 0.99865 0.18536 0.0
C357 C 0.03 0.9491 0.20108 0.0
C358 C 0.04647 0.94092 0.24224 0.0
C359 C 0.01883 0.89086 0.2573 0.0
C360 C 0.97536 0.85039 0.23245 0.0
C361 C 0.95832 0.85877 0.19231 0.0
C362 C 0.98496 0.90753 0.17666 0.0
H363 H 0.01619 1.00382 0.31808 0.0
C364 C 0.05902 0.9893 0.33289 0.0
H365 H 0.14742 0.96624 0.32473 0.0
H366 H 0.11986 0.09789 0.16423 0.0
H367 H 0.1948 0.16807 0.20831 0.0
H368 H 0.22272 0.15407 0.27994 0.0
H369 H 0.17594 0.06973 0.30792 0.0
C370 C 0.10169 0.97676 0.311 0.0
C371 C 0.08963 0.98269 0.26751 0.0
C372 C 0.11806 0.03186 0.2517 0.0
C373 C 0.10186 0.03998 0.21051 0.0
C374 C 0.13038 0.0897 0.19539 0.0
C375 C 0.17348 0.1303 0.22034 0.0
C376 C 0.18921 0.12241 0.26067 0.0
C377 C 0.16198 0.07385 0.27635 0.0
H378 H 0.91267 0.03798 0.87275 0.0
C379 C 0.95138 0.01564 0.88339 0.0
H380 H 0.02115 0.97137 0.86812 0.0
H381 H 0.90415 0.89961 0.69236 0.0
H382 H 0.87852 0.81291 0.72346 0.0
H383 H 0.89147 0.81013 0.79642 0.0
H384 H 0.93074 0.89415 0.83869 0.0
C385 C 0.98334 0.99476 0.85768 0.0
C386 C 0.96637 0.99866 0.8142 0.0
C387 C 0.94183 0.94939 0.78996 0.0
C388 C 0.93322 0.95117 0.74798 0.0
C389 C 0.91073 0.90097 0.72445 0.0
C390 C 0.89589 0.85078 0.74191 0.0
C391 C 0.90328 0.84921 0.78298 0.0
C392 C 0.92605 0.89774 0.80688 0.0
H393 H 0.04588 0.03671 0.69144 0.0
C394 C 1.00099 0.01862 0.6719 0.0
H395 H 0.90151 0.98612 0.66746 0.0
H396 H 0.01587 0.10105 0.85216 0.0
H397 H 0.03351 0.18857 0.82099 0.0
H398 H 0.00904 0.19248 0.74807 0.0
H399 H 0.96826 0.10848 0.70593 0.0
C400 C 0.94688 1.00281 0.68699 0.0
C401 C 0.9486 1.00241 0.73048 0.0
C402 C 0.96858 0.05224 0.75464 0.0
C403 C 0.9793 0.05025 0.79667 0.0
C404 C 1.00421 0.10018 0.82012 0.0
C405 C 0.01493 0.15079 0.80259 0.0
C406 C 1.0014 0.15298 0.76154 0.0
C407 C 0.97849 0.10442 0.73769 0.0
H408 H 0.63813 0.47473 0.63287 0.0
C409 C 0.60266 0.50043 0.62255 0.0
H410 H 0.54097 0.55217 0.63905 0.0
H411 H 0.58994 0.40654 0.79915 0.0
H412 H 0.53792 0.32554 0.75619 0.0
H413 H 0.50826 0.33282 0.68388 0.0
H414 H 0.5305 0.42086 0.65404 0.0
C415 C 0.57544 0.52545 0.64901 0.0
C416 C 0.5932 0.5201 0.69256 0.0
C417 C 0.57809 0.46824 0.70952 0.0
C418 C 0.5936 0.46425 0.75135 0.0
C419 C 0.57877 0.41199 0.76758 0.0
C420 C 0.54882 0.36515 0.74328 0.0
C421 C 0.53217 0.36924 0.70257 0.0
C422 C 0.54597 0.42009 0.68576 0.0
H423 H 0.55537 0.54962 0.82598 0.0
C424 C 0.59153 0.52762 0.84133 0.0
H425 H 0.66909 0.48686 0.83372 0.0
H426 H 0.63072 0.62524 0.66965 0.0
H427 H 0.68221 0.70608 0.71295 0.0
H428 H 0.70715 0.69916 0.7856 0.0
H429 H 0.68089 0.61122 0.81538 0.0
C430 C 0.63159 0.50853 0.82009 0.0
C431 C 0.62174 0.51232 0.77622 0.0
C432 C 0.63749 0.56395 0.75932 0.0
C433 C 0.62317 0.56786 0.71743 0.0
C434 C 0.63991 0.61992 0.7013 0.0
C435 C 0.66969 0.66666 0.72581 0.0
C436 C 0.68373 0.66277 0.76671 0.0
C437 C 0.6681 0.61211 0.78343 0.0
H438 H 0.51725 0.49651 0.37056 0.0
C439 C 0.49284 0.52062 0.38828 0.0
H440 H 0.42677 0.57585 0.38674 0.0
H441 H 0.48792 0.65154 0.21782 0.0
H442 H 0.51514 0.73831 0.2577 0.0
H443 H 0.50889 0.7404 0.32911 0.0
H444 H 0.47471 0.65584 0.361 0.0
C445 C 0.45056 0.55026 0.36979 0.0
C446 C 0.44037 0.55118 0.32561 0.0
C447 C 0.46005 0.60102 0.30748 0.0
C448 C 0.46464 0.59966 0.26645 0.0
C449 C 0.48447 0.65007 0.24901 0.0
C450 C 0.50009 0.70018 0.27153 0.0
C451 C 0.49654 0.70136 0.31173 0.0
C452 C 0.47694 0.65249 0.32969 0.0
H453 H 0.36558 0.51473 0.17705 0.0
C454 C 0.41421 0.52911 0.17137 0.0
H455 H 0.51126 0.56036 0.1973 0.0
H456 H 0.38298 0.45175 0.34861 0.0
H457 H 0.35692 0.36413 0.30956 0.0
H458 H 0.37784 0.35913 0.24087 0.0
H459 H 0.42275 0.44134 0.21054 0.0
C460 C 0.46205 0.54692 0.20217 0.0
C461 C 0.45023 0.54841 0.24383 0.0
C462 C 0.42744 0.4988 0.26163 0.0
C463 C 0.41978 0.50082 0.30208 0.0
C464 C 0.39274 0.45171 0.31855 0.0
C465 C 0.37721 0.40133 0.29643 0.0
C466 C 0.38868 0.39857 0.25771 0.0
C467 C 0.41384 0.44646 0.24046 0.0
loop_
_geom_bond_atom_site_label_1
_geom_bond_atom_site_label_2
_geom_bond_distance
_geom_bond_site_symmetry_2
_ccdc_geom_bond_type
Co0 N5 2.057 . S
Co0 O17 2.021 . S
Co0 O20 2.062 1_455 S
Co0 O24 2.117 1_554 S
Co0 O25 2.020 1_565 S
C1 O21 1.259 1_455 S
C1 O24 1.258 1_545 S
Co2 N11 2.057 . S
Co2 O18 2.117 1_655 S
Co2 O19 2.020 1_545 S
Co2 O21 2.021 1_554 S
Co2 O26 2.062 1_655 S
C3 N5 1.316 . S
C3 N6 1.347 . S
C3 H8 0.931 . S
C4 N5 1.375 1_556 S
C4 C7 1.350 . S
C4 H9 0.930 . S
N5 Co0 2.057 . S
N5 C3 1.316 . S
N5 C4 1.375 1_554 S
N6 C3 1.347 . S
N6 C7 1.373 1_554 S
C7 C4 1.350 . S
C7 N6 1.373 1_556 S
C7 H28 0.931 . S
H8 C3 0.931 . S
H9 C4 0.930 . S
C10 O17 1.250 1_545 S
C10 O18 1.268 . S
N11 Co2 2.057 . S
N11 C12 1.316 1_554 S
N11 C13 1.375 . S
C12 N11 1.316 1_556 S
C12 N14 1.347 1_556 S
C12 H23 0.931 . S
C13 N11 1.375 . S
C13 C15 1.350 . S
C13 H22 0.930 . S
N14 C12 1.347 1_554 S
N14 C15 1.373 . S
C15 C13 1.350 . S
C15 N14 1.373 . S
C15 H29 0.931 . S
C16 O19 1.256 . S
C16 O20 1.255 . S
O17 Co0 2.021 . S
O17 C10 1.250 1_565 S
O18 Co2 2.117 1_455 S
O18 C10 1.268 . S
O19 Co2 2.020 1_565 S
O19 C16 1.256 . S
O20 Co0 2.062 1_655 S
O20 C16 1.255 . S
O21 C1 1.259 1_655 S
O21 Co2 2.021 1_556 S
H22 C13 0.930 . S
H23 C12 0.931 . S
O24 Co0 2.117 1_556 S
O24 C1 1.258 1_565 S
O25 Co0 2.020 1_545 S
O25 C27 1.256 . S
O26 Co2 2.062 1_455 S
O26 C27 1.255 . S
C27 O25 1.256 . S
C27 O26 1.255 . S
H28 C7 0.931 . S
H29 C15 0.931 . S
Co30 N35 2.057 . S
Co30 O47 2.021 . S
Co30 O50 2.062 . S
Co30 O54 2.117 . S
Co30 O55 2.020 . S
C31 O51 1.259 . S
C31 O54 1.258 . S
Co32 N41 2.057 . S
Co32 O48 2.117 . S
Co32 O49 2.020 . S
Co32 O51 2.021 . S
Co32 O56 2.062 . S
C33 N35 1.316 . S
C33 N36 1.347 . S
C33 H38 0.931 . S
C34 N35 1.375 . S
C34 C37 1.350 . S
C34 H39 0.930 . S
N35 Co30 2.057 . S
N35 C33 1.316 . S
N35 C34 1.375 . S
N36 C33 1.347 . S
N36 C37 1.373 . S
C37 C34 1.350 . S
C37 N36 1.373 . S
C37 H58 0.931 . S
H38 C33 0.931 . S
H39 C34 0.930 . S
C40 O47 1.259 . S
C40 O48 1.258 . S
N41 Co32 2.057 . S
N41 C42 1.316 . S
N41 C43 1.375 . S
C42 N41 1.316 . S
C42 N44 1.347 . S
C42 H53 0.931 . S
C43 N41 1.375 . S
C43 C45 1.350 . S
C43 H52 0.930 . S
N44 C42 1.347 . S
N44 C45 1.373 . S
C45 C43 1.350 . S
C45 N44 1.373 . S
C45 H59 0.931 . S
C46 O49 1.256 . S
C46 O50 1.255 . S
O47 Co30 2.021 . S
O47 C40 1.259 . S
O48 Co32 2.117 . S
O48 C40 1.258 . S
O49 Co32 2.020 . S
O49 C46 1.256 . S
O50 Co30 2.062 . S
O50 C46 1.255 . S
O51 C31 1.259 . S
O51 Co32 2.021 . S
H52 C43 0.930 . S
H53 C42 0.931 . S
O54 Co30 2.117 . S
O54 C31 1.258 . S
O55 Co30 2.020 . S
O55 C57 1.256 . S
O56 Co32 2.062 . S
O56 C57 1.255 . S
C57 O55 1.256 . S
C57 O56 1.255 . S
H58 C37 0.931 . S
H59 C45 0.931 . S
H60 C65 0.930 . S
H61 C68 0.930 1_655 S
H62 C70 0.930 . S
H63 C64 1.016 . S
C64 H63 1.016 . S
C64 N71 1.286 . S
C65 H60 0.930 . S
C65 C66 1.397 . S
C65 C67 1.361 1_565 S
C66 C65 1.397 . S
C66 C70 1.390 . S
C67 C65 1.361 1_545 S
C67 C68 1.393 . S
C67 N71 1.413 1_455 S
C68 H61 0.930 1_455 S
C68 C67 1.393 . S
C68 C69 1.399 1_545 S
C69 C68 1.399 1_565 S
C69 C70 1.381 . S
C70 H62 0.930 . S
C70 C66 1.390 . S
C70 C69 1.381 . S
N71 C64 1.286 . S
N71 C67 1.413 1_655 S
H72 C77 0.930 . S
H73 C80 0.930 . S
H74 C82 0.930 . S
H75 C76 1.016 . S
C76 H75 1.016 . S
C76 N83 1.286 . S
C77 H72 0.930 . S
C77 C78 1.397 . S
C77 C79 1.361 1_665 S
C78 C77 1.397 . S
C78 C82 1.390 . S
C79 C77 1.361 1_445 S
C79 C80 1.393 . S
C79 N83 1.413 . S
C80 H73 0.930 . S
C80 C79 1.393 . S
C80 C81 1.393 1_445 S
C81 C80 1.393 1_665 S
C81 C82 1.389 . S
C82 H74 0.930 . S
C82 C78 1.390 . S
C82 C81 1.389 . S
N83 C76 1.286 . S
N83 C79 1.413 . S
H84 C89 0.930 1_554 S
H85 C92 0.930 . S
H86 C94 0.930 . S
H87 C88 1.016 . S
C88 H87 1.016 . S
C88 N95 1.286 . S
C89 H84 0.930 1_556 S
C89 C90 1.397 . S
C89 C91 1.361 . S
C90 C89 1.397 . S
C90 C94 1.390 . S
C91 C89 1.361 . S
C91 C92 1.393 . S
C91 N95 1.413 . S
C92 H85 0.930 . S
C92 C91 1.393 . S
C92 C93 1.399 . S
C93 C92 1.399 . S
C93 C94 1.381 . S
C94 H86 0.930 . S
C94 C90 1.390 . S
C94 C93 1.381 . S
N95 C88 1.286 . S
N95 C91 1.413 . S
H96 C101 0.930 . S
H97 C104 0.930 . S
H98 C106 0.930 . S
H99 C100 1.016 . S
C100 H99 1.016 . S
C100 N107 1.286 . S
C101 H96 0.930 . S
C101 C102 1.397 . S
C101 C103 1.361 . S
C102 C101 1.397 . S
C102 C106 1.390 . S
C103 C101 1.361 . S
C103 C104 1.393 . S
C103 N107 1.413 . S
C104 H97 0.930 . S
C104 C103 1.393 . S
C104 C105 1.399 . S
C105 C104 1.399 . S
C105 C106 1.381 . S
C106 H98 0.930 . S
C106 C102 1.390 . S
C106 C105 1.381 . S
N107 C100 1.286 . S
N107 C103 1.413 . S
H108 C109 0.951 . S
C109 H108 0.951 . S
C109 C115 1.265 . S
H110 C115 0.950 . S
H111 C119 0.949 . S
H112 C120 0.950 . S
H113 C121 0.951 . S
H114 C122 0.951 . S
C115 C109 1.265 . S
C115 H110 0.950 . S
C115 C116 1.478 . S
C116 C115 1.478 . S
C116 C117 1.397 . S
C116 C133 1.394 1_554 S
C117 C116 1.397 . S
C117 C118 1.438 . S
C117 C122 1.429 . S
C118 C117 1.438 . S
C118 C119 1.428 . S
C118 C131 1.394 . S
C119 H111 0.949 . S
C119 C118 1.428 . S
C119 C120 1.345 . S
C120 H112 0.950 . S
C120 C119 1.345 . S
C120 C121 1.424 . S
C121 H113 0.951 . S
C121 C120 1.424 . S
C121 C122 1.347 . S
C122 H114 0.951 . S
C122 C117 1.429 . S
C122 C121 1.347 . S
H123 C124 0.951 . S
C124 H123 0.951 . S
C124 C130 1.265 . S
H125 C130 0.950 . S
H126 C134 0.949 . S
H127 C135 0.950 . S
H128 C136 0.951 . S
H129 C137 0.951 . S
C130 C124 1.265 . S
C130 H125 0.950 . S
C130 C131 1.478 . S
C131 C118 1.394 . S
C131 C130 1.478 . S
C131 C132 1.397 1_554 S
C132 C131 1.397 1_556 S
C132 C133 1.438 . S
C132 C137 1.429 . S
C133 C116 1.394 1_556 S
C133 C132 1.438 . S
C133 C134 1.428 . S
C134 H126 0.949 . S
C134 C133 1.428 . S
C134 C135 1.345 . S
C135 H127 0.950 . S
C135 C134 1.345 . S
C135 C136 1.424 . S
C136 H128 0.951 . S
C136 C135 1.424 . S
C136 C137 1.347 . S
C137 H129 0.951 . S
C137 C132 1.429 . S
C137 C136 1.347 . S
H138 C139 0.951 . S
C139 H138 0.951 . S
C139 C145 1.265 . S
H140 C145 0.950 . S
H141 C149 0.949 . S
H142 C150 0.950 . S
H143 C151 0.951 . S
H144 C152 0.951 . S
C145 C139 1.265 . S
C145 H140 0.950 . S
C145 C146 1.478 . S
C146 C145 1.478 . S
C146 C147 1.397 1_554 S
C146 C163 1.394 . S
C147 C146 1.397 1_556 S
C147 C148 1.438 . S
C147 C152 1.429 . S
C148 C147 1.438 . S
C148 C149 1.428 . S
C148 C161 1.394 1_556 S
C149 H141 0.949 . S
C149 C148 1.428 . S
C149 C150 1.345 . S
C150 H142 0.950 . S
C150 C149 1.345 . S
C150 C151 1.424 . S
C151 H143 0.951 . S
C151 C150 1.424 . S
C151 C152 1.347 . S
C152 H144 0.951 . S
C152 C147 1.429 . S
C152 C151 1.347 . S
H153 C154 0.951 . S
C154 H153 0.951 . S
C154 C160 1.265 . S
H155 C160 0.949 . S
H156 C164 0.949 . S
H157 C165 0.950 . S
H158 C166 0.951 . S
H159 C167 0.951 . S
C160 C154 1.265 . S
C160 H155 0.949 . S
C160 C161 1.478 1_556 S
C161 C148 1.394 1_554 S
C161 C160 1.478 1_554 S
C161 C162 1.397 . S
C162 C161 1.397 . S
C162 C163 1.438 . S
C162 C167 1.429 . S
C163 C146 1.394 . S
C163 C162 1.438 . S
C163 C164 1.428 . S
C164 H156 0.949 . S
C164 C163 1.428 . S
C164 C165 1.345 . S
C165 H157 0.950 . S
C165 C164 1.345 . S
C165 C166 1.424 . S
C166 H158 0.951 . S
C166 C165 1.424 . S
C166 C167 1.347 . S
C167 H159 0.951 . S
C167 C162 1.429 . S
C167 C166 1.347 . S
H168 C169 0.951 . S
C169 H168 0.951 . S
C169 C175 1.265 1_554 S
H170 C175 0.950 . S
H171 C179 0.949 . S
H172 C180 0.950 . S
H173 C181 0.951 . S
H174 C182 0.951 . S
C175 C169 1.265 1_556 S
C175 H170 0.950 . S
C175 C176 1.478 1_556 S
C176 C175 1.478 1_554 S
C176 C177 1.397 1_554 S
C176 C193 1.394 . S
C177 C176 1.397 1_556 S
C177 C178 1.438 . S
C177 C182 1.429 . S
C178 C177 1.438 . S
C178 C179 1.428 . S
C178 C191 1.394 1_556 S
C179 H171 0.949 . S
C179 C178 1.428 . S
C179 C180 1.345 . S
C180 H172 0.950 . S
C180 C179 1.345 . S
C180 C181 1.424 . S
C181 H173 0.951 . S
C181 C180 1.424 . S
C181 C182 1.347 . S
C182 H174 0.951 . S
C182 C177 1.429 . S
C182 C181 1.347 . S
H183 C184 0.951 . S
C184 H183 0.951 . S
C184 C190 1.265 . S
H185 C190 0.950 . S
H186 C194 0.949 . S
H187 C195 0.950 . S
H188 C196 0.951 . S
H189 C197 0.951 . S
C190 C184 1.265 . S
C190 H185 0.950 . S
C190 C191 1.478 . S
C191 C178 1.394 1_554 S
C191 C190 1.478 . S
C191 C192 1.397 . S
C192 C191 1.397 . S
C192 C193 1.438 . S
C192 C197 1.429 . S
C193 C176 1.394 . S
C193 C192 1.438 . S
C193 C194 1.428 . S
C194 H186 0.949 . S
C194 C193 1.428 . S
C194 C195 1.345 . S
C195 H187 0.950 . S
C195 C194 1.345 . S
C195 C196 1.424 . S
C196 H188 0.951 . S
C196 C195 1.424 . S
C196 C197 1.347 . S
C197 H189 0.951 . S
C197 C192 1.429 . S
C197 C196 1.347 . S
H198 C199 0.951 1_554 S
C199 H198 0.951 1_556 S
C199 C205 1.265 . S
H200 C205 0.950 . S
H201 C209 0.949 . S
H202 C210 0.950 . S
H203 C211 0.951 . S
H204 C212 0.951 . S
C205 C199 1.265 . S
C205 H200 0.950 . S
C205 C206 1.478 . S
C206 C205 1.478 . S
C206 C207 1.397 1_556 S
C206 C223 1.394 . S
C207 C206 1.397 1_554 S
C207 C208 1.438 . S
C207 C212 1.429 . S
C208 C207 1.438 . S
C208 C209 1.428 . S
C208 C221 1.394 1_554 S
C209 H201 0.949 . S
C209 C208 1.428 . S
C209 C210 1.345 . S
C210 H202 0.950 . S
C210 C209 1.345 . S
C210 C211 1.424 . S
C211 H203 0.951 . S
C211 C210 1.424 . S
C211 C212 1.347 . S
C212 H204 0.951 . S
C212 C207 1.429 . S
C212 C211 1.347 . S
H213 C214 0.951 . S
C214 H213 0.951 . S
C214 C220 1.265 . S
H215 C220 0.950 . S
H216 C224 0.949 . S
H217 C225 0.950 . S
H218 C226 0.951 . S
H219 C227 0.951 . S
C220 C214 1.265 . S
C220 H215 0.950 . S
C220 C221 1.478 . S
C221 C208 1.394 1_556 S
C221 C220 1.478 . S
C221 C222 1.397 . S
C222 C221 1.397 . S
C222 C223 1.438 . S
C222 C227 1.429 . S
C223 C206 1.394 . S
C223 C222 1.438 . S
C223 C224 1.428 . S
C224 H216 0.949 . S
C224 C223 1.428 . S
C224 C225 1.345 . S
C225 H217 0.950 . S
C225 C224 1.345 . S
C225 C226 1.424 . S
C226 H218 0.951 . S
C226 C225 1.424 . S
C226 C227 1.347 . S
C227 H219 0.951 . S
C227 C222 1.429 . S
C227 C226 1.347 . S
H228 C229 0.951 . S
C229 H228 0.951 . S
C229 C235 1.265 . S
H230 C235 0.950 . S
H231 C239 0.949 . S
H232 C240 0.950 . S
H233 C241 0.951 . S
H234 C242 0.951 . S
C235 C229 1.265 . S
C235 H230 0.950 . S
C235 C236 1.478 . S
C236 C235 1.478 . S
C236 C237 1.397 . S
C236 C253 1.394 . S
C237 C236 1.397 . S
C237 C238 1.438 . S
C237 C242 1.429 . S
C238 C237 1.438 . S
C238 C239 1.428 . S
C238 C251 1.394 . S
C239 H231 0.949 . S
C239 C238 1.428 . S
C239 C240 1.345 . S
C240 H232 0.950 . S
C240 C239 1.345 . S
C240 C241 1.424 . S
C241 H233 0.951 . S
C241 C240 1.424 . S
C241 C242 1.347 . S
C242 H234 0.951 . S
C242 C237 1.429 . S
C242 C241 1.347 . S
H243 C244 0.951 . S
C244 H243 0.951 . S
C244 C250 1.265 . S
H245 C250 0.950 . S
H246 C254 0.949 . S
H247 C255 0.950 . S
H248 C256 0.951 . S
H249 C257 0.951 . S
C250 C244 1.265 . S
C250 H245 0.950 . S
C250 C251 1.478 . S
C251 C238 1.394 . S
C251 C250 1.478 . S
C251 C252 1.397 . S
C252 C251 1.397 . S
C252 C253 1.438 . S
C252 C257 1.429 . S
C253 C236 1.394 . S
C253 C252 1.438 . S
C253 C254 1.428 . S
C254 H246 0.949 . S
C254 C253 1.428 . S
C254 C255 1.345 . S
C255 H247 0.950 . S
C255 C254 1.345 . S
C255 C256 1.424 . S
C256 H248 0.951 . S
C256 C255 1.424 . S
C256 C257 1.347 . S
C257 H249 0.951 . S
C257 C252 1.429 . S
C257 C256 1.347 . S
H258 C259 0.951 . S
C259 H258 0.951 . S
C259 C265 1.265 . S
H260 C265 0.950 . S
H261 C269 0.949 . S
H262 C270 0.950 . S
H263 C271 0.951 . S
H264 C272 0.951 . S
C265 C259 1.265 . S
C265 H260 0.950 . S
C265 C266 1.478 . S
C266 C265 1.478 . S
C266 C267 1.397 . S
C266 C283 1.394 . S
C267 C266 1.397 . S
C267 C268 1.438 . S
C267 C272 1.429 . S
C268 C267 1.438 . S
C268 C269 1.428 . S
C268 C281 1.394 . S
C269 H261 0.949 . S
C269 C268 1.428 . S
C269 C270 1.345 . S
C270 H262 0.950 . S
C270 C269 1.345 . S
C270 C271 1.424 . S
C271 H263 0.951 . S
C271 C270 1.424 . S
C271 C272 1.347 . S
C272 H264 0.951 . S
C272 C267 1.429 . S
C272 C271 1.347 . S
H273 C274 0.951 . S
C274 H273 0.951 . S
C274 C280 1.265 . S
H275 C280 0.950 . S
H276 C284 0.949 . S
H277 C285 0.950 . S
H278 C286 0.951 . S
H279 C287 0.951 . S
C280 C274 1.265 . S
C280 H275 0.950 . S
C280 C281 1.478 . S
C281 C268 1.394 . S
C281 C280 1.478 . S
C281 C282 1.397 . S
C282 C281 1.397 . S
C282 C283 1.438 . S
C282 C287 1.429 . S
C283 C266 1.394 . S
C283 C282 1.438 . S
C283 C284 1.428 . S
C284 H276 0.949 . S
C284 C283 1.428 . S
C284 C285 1.345 . S
C285 H277 0.950 . S
C285 C284 1.345 . S
C285 C286 1.424 . S
C286 H278 0.951 . S
C286 C285 1.424 . S
C286 C287 1.347 . S
C287 H279 0.951 . S
C287 C282 1.429 . S
C287 C286 1.347 . S
H288 C289 0.951 . S
C289 H288 0.951 . S
C289 C295 1.265 . S
H290 C295 0.950 . S
H291 C299 0.949 . S
H292 C300 0.950 . S
H293 C301 0.951 . S
H294 C302 0.951 . S
C295 C289 1.265 . S
C295 H290 0.950 . S
C295 C296 1.478 . S
C296 C295 1.478 . S
C296 C297 1.397 . S
C296 C313 1.394 . S
C297 C296 1.397 . S
C297 C298 1.438 . S
C297 C302 1.429 . S
C298 C297 1.438 . S
C298 C299 1.428 . S
C298 C311 1.394 . S
C299 H291 0.949 . S
C299 C298 1.428 . S
C299 C300 1.345 . S
C300 H292 0.950 . S
C300 C299 1.345 . S
C300 C301 1.424 . S
C301 H293 0.951 . S
C301 C300 1.424 . S
C301 C302 1.347 . S
C302 H294 0.951 . S
C302 C297 1.429 . S
C302 C301 1.347 . S
H303 C304 0.951 . S
C304 H303 0.951 . S
C304 C310 1.265 . S
H305 C310 0.950 . S
H306 C314 0.949 . S
H307 C315 0.950 . S
H308 C316 0.951 . S
H309 C317 0.951 . S
C310 C304 1.265 . S
C310 H305 0.950 . S
C310 C311 1.478 . S
C311 C298 1.394 . S
C311 C310 1.478 . S
C311 C312 1.397 . S
C312 C311 1.397 . S
C312 C313 1.438 . S
C312 C317 1.429 . S
C313 C296 1.394 . S
C313 C312 1.438 . S
C313 C314 1.428 . S
C314 H306 0.949 . S
C314 C313 1.428 . S
C314 C315 1.345 . S
C315 H307 0.950 . S
C315 C314 1.345 . S
C315 C316 1.424 . S
C316 H308 0.951 . S
C316 C315 1.424 . S
C316 C317 1.347 . S
C317 H309 0.951 . S
C317 C312 1.429 . S
C317 C316 1.347 . S
H318 C319 0.951 . S
C319 H318 0.951 . S
C319 C325 1.265 . S
H320 C325 0.950 . S
H321 C329 0.949 . S
H322 C330 0.950 . S
H323 C331 0.951 . S
H324 C332 0.951 . S
C325 C319 1.265 . S
C325 H320 0.950 . S
C325 C326 1.478 . S
C326 C325 1.478 . S
C326 C327 1.397 . S
C326 C343 1.394 . S
C327 C326 1.397 . S
C327 C328 1.438 . S
C327 C332 1.429 . S
C328 C327 1.438 . S
C328 C329 1.428 . S
C328 C341 1.394 . S
C329 H321 0.949 . S
C329 C328 1.428 . S
C329 C330 1.345 . S
C330 H322 0.950 . S
C330 C329 1.345 . S
C330 C331 1.424 . S
C331 H323 0.951 . S
C331 C330 1.424 . S
C331 C332 1.347 . S
C332 H324 0.951 . S
C332 C327 1.429 . S
C332 C331 1.347 . S
H333 C334 0.951 . S
C334 H333 0.951 . S
C334 C340 1.265 . S
H335 C340 0.950 . S
H336 C344 0.949 . S
H337 C345 0.950 . S
H338 C346 0.951 . S
H339 C347 0.951 . S
C340 C334 1.265 . S
C340 H335 0.950 . S
C340 C341 1.478 . S
C341 C328 1.394 . S
C341 C340 1.478 . S
C341 C342 1.397 . S
C342 C341 1.397 . S
C342 C343 1.438 . S
C342 C347 1.429 . S
C343 C326 1.394 . S
C343 C342 1.438 . S
C343 C344 1.428 . S
C344 H336 0.949 . S
C344 C343 1.428 . S
C344 C345 1.345 . S
C345 H337 0.950 . S
C345 C344 1.345 . S
C345 C346 1.424 . S
C346 H338 0.951 . S
C346 C345 1.424 . S
C346 C347 1.347 . S
C347 H339 0.951 . S
C347 C342 1.429 . S
C347 C346 1.347 . S
H348 C349 0.951 . S
C349 H348 0.951 . S
C349 C355 1.265 1_545 S
H350 C355 0.950 1_655 S
H351 C359 0.949 . S
H352 C360 0.950 . S
H353 C361 0.951 . S
H354 C362 0.951 . S
C355 C349 1.265 1_565 S
C355 H350 0.950 1_455 S
C355 C356 1.478 . S
C356 C355 1.478 . S
C356 C357 1.397 . S
C356 C373 1.394 1_565 S
C357 C356 1.397 . S
C357 C358 1.438 . S
C357 C362 1.429 1_455 S
C358 C357 1.438 . S
C358 C359 1.428 . S
C358 C371 1.394 1_565 S
C359 H351 0.949 . S
C359 C358 1.428 . S
C359 C360 1.345 1_455 S
C360 H352 0.950 . S
C360 C359 1.345 1_655 S
C360 C361 1.424 . S
C361 H353 0.951 . S
C361 C360 1.424 . S
C361 C362 1.347 . S
C362 H354 0.951 . S
C362 C357 1.429 1_655 S
C362 C361 1.347 . S
H363 C364 0.951 1_655 S
C364 H363 0.951 1_455 S
C364 C370 1.265 1_565 S
H365 C370 0.950 . S
H366 C374 0.949 . S
H367 C375 0.950 . S
H368 C376 0.951 . S
H369 C377 0.951 . S
C370 C364 1.265 1_545 S
C370 H365 0.950 . S
C370 C371 1.478 . S
C371 C358 1.394 1_545 S
C371 C370 1.478 . S
C371 C372 1.397 . S
C372 C371 1.397 . S
C372 C373 1.438 . S
C372 C377 1.429 . S
C373 C356 1.394 1_545 S
C373 C372 1.438 . S
C373 C374 1.428 . S
C374 H366 0.949 . S
C374 C373 1.428 . S
C374 C375 1.345 . S
C375 H367 0.950 . S
C375 C374 1.345 . S
C375 C376 1.424 . S
C376 H368 0.951 . S
C376 C375 1.424 . S
C376 C377 1.347 . S
C377 H369 0.951 . S
C377 C372 1.429 . S
C377 C376 1.347 . S
H378 C379 0.951 . S
C379 H378 0.951 . S
C379 C385 1.265 1_655 S
H380 C385 0.954 . S
H381 C389 0.949 . S
H382 C390 0.950 . S
H383 C391 0.951 . S
H384 C392 0.951 . S
C385 C379 1.265 1_455 S
C385 H380 0.954 . S
C385 C386 1.478 . S
C386 C385 1.478 . S
C386 C387 1.397 1_545 S
C386 C403 1.394 1_455 S
C387 C386 1.397 1_565 S
C387 C388 1.438 . S
C387 C392 1.429 . S
C388 C387 1.438 . S
C388 C389 1.428 . S
C388 C401 1.394 1_465 S
C389 H381 0.949 . S
C389 C388 1.428 . S
C389 C390 1.345 . S
C390 H382 0.950 . S
C390 C389 1.345 . S
C390 C391 1.424 . S
C391 H383 0.951 . S
C391 C390 1.424 . S
C391 C392 1.347 . S
C392 H384 0.951 . S
C392 C387 1.429 . S
C392 C391 1.347 . S
H393 C394 0.951 . S
C394 H393 0.951 . S
C394 C400 1.265 1_455 S
H395 C400 0.950 . S
H396 C404 0.949 . S
H397 C405 0.950 . S
H398 C406 0.951 . S
H399 C407 0.951 . S
C400 C394 1.265 1_655 S
C400 H395 0.950 . S
C400 C401 1.478 . S
C401 C388 1.394 1_645 S
C401 C400 1.478 . S
C401 C402 1.397 . S
C402 C401 1.397 . S
C402 C403 1.438 . S
C402 C407 1.429 . S
C403 C386 1.394 1_655 S
C403 C402 1.438 . S
C403 C404 1.428 . S
C404 H396 0.949 . S
C404 C403 1.428 . S
C404 C405 1.345 . S
C405 H397 0.950 . S
C405 C404 1.345 . S
C405 C406 1.424 . S
C406 H398 0.951 . S
C406 C405 1.424 . S
C406 C407 1.347 . S
C407 H399 0.951 . S
C407 C402 1.429 . S
C407 C406 1.347 . S
H408 C409 0.951 . S
C409 H408 0.951 . S
C409 C415 1.265 . S
H410 C415 0.950 . S
H411 C419 0.949 . S
H412 C420 0.950 . S
H413 C421 0.951 . S
H414 C422 0.951 . S
C415 C409 1.265 . S
C415 H410 0.950 . S
C415 C416 1.478 . S
C416 C415 1.478 . S
C416 C417 1.397 . S
C416 C433 1.394 . S
C417 C416 1.397 . S
C417 C418 1.438 . S
C417 C422 1.429 . S
C418 C417 1.438 . S
C418 C419 1.428 . S
C418 C431 1.394 . S
C419 H411 0.949 . S
C419 C418 1.428 . S
C419 C420 1.345 . S
C420 H412 0.950 . S
C420 C419 1.345 . S
C420 C421 1.424 . S
C421 H413 0.951 . S
C421 C420 1.424 . S
C421 C422 1.347 . S
C422 H414 0.951 . S
C422 C417 1.429 . S
C422 C421 1.347 . S
H423 C424 0.951 . S
C424 H423 0.951 . S
C424 C430 1.265 . S
H425 C430 0.950 . S
H426 C434 0.949 . S
H427 C435 0.950 . S
H428 C436 0.951 . S
H429 C437 0.951 . S
C430 C424 1.265 . S
C430 H425 0.950 . S
C430 C431 1.478 . S
C431 C418 1.394 . S
C431 C430 1.478 . S
C431 C432 1.397 . S
C432 C431 1.397 . S
C432 C433 1.438 . S
C432 C437 1.429 . S
C433 C416 1.394 . S
C433 C432 1.438 . S
C433 C434 1.428 . S
C434 H426 0.949 . S
C434 C433 1.428 . S
C434 C435 1.345 . S
C435 H427 0.950 . S
C435 C434 1.345 . S
C435 C436 1.424 . S
C436 H428 0.951 . S
C436 C435 1.424 . S
C436 C437 1.347 . S
C437 H429 0.951 . S
C437 C432 1.429 . S
C437 C436 1.347 . S
H438 C439 0.951 . S
C439 H438 0.951 . S
C439 C445 1.265 . S
H440 C445 0.950 . S
H441 C449 0.949 . S
H442 C450 0.950 . S
H443 C451 0.951 . S
H444 C452 0.951 . S
C445 C439 1.265 . S
C445 H440 0.950 . S
C445 C446 1.478 . S
C446 C445 1.478 . S
C446 C447 1.397 . S
C446 C463 1.394 . S
C447 C446 1.397 . S
C447 C448 1.438 . S
C447 C452 1.429 . S
C448 C447 1.438 . S
C448 C449 1.428 . S
C448 C461 1.394 . S
C449 H441 0.949 . S
C449 C448 1.428 . S
C449 C450 1.345 . S
C450 H442 0.950 . S
C450 C449 1.345 . S
C450 C451 1.424 . S
C451 H443 0.951 . S
C451 C450 1.424 . S
C451 C452 1.347 . S
C452 H444 0.951 . S
C452 C447 1.429 . S
C452 C451 1.347 . S
H453 C454 0.951 . S
C454 H453 0.951 . S
C454 C460 1.265 . S
H455 C460 0.950 . S
H456 C464 0.949 . S
H457 C465 0.950 . S
H458 C466 0.951 . S
H459 C467 0.951 . S
C460 C454 1.265 . S
C460 H455 0.950 . S
C460 C461 1.478 . S
C461 C448 1.394 . S
C461 C460 1.478 . S
C461 C462 1.397 . S
C462 C461 1.397 . S
C462 C463 1.438 . S
C462 C467 1.429 . S
C463 C446 1.394 . S
C463 C462 1.438 . S
C463 C464 1.428 . S
C464 H456 0.949 . S
C464 C463 1.428 . S
C464 C465 1.345 . S
C465 H457 0.950 . S
C465 C464 1.345 . S
C465 C466 1.424 . S
C466 H458 0.951 . S
C466 C465 1.424 . S
C466 C467 1.347 . S
C467 H459 0.951 . S
C467 C462 1.429 . S
C467 C466 1.347 . S
C124 C102 1.450 . S
C109 C27 1.478 . S
C139 N6 1.307 . S
C154 C88 1.362 . S
C169 C16 1.407 . S
C184 C100 1.386 . S
C199 N14 1.439 1_556 S
C214 C90 1.415 . S
C229 C57 1.478 . S
C244 C78 1.452 . S
C259 N36 1.335 . S
C274 C64 1.337 . S
C304 C76 1.360 . S
C289 C46 1.415 . S
C334 C66 1.423 . S
C319 N44 1.401 . S
C349 C10 1.460 . S
C364 C69 1.467 . S
C379 C1 1.527 1_655 S
C394 C81 1.533 1_445 S
C424 C93 1.467 . S
C409 C40 1.460 . S
C439 C31 1.542 . S
C454 C105 1.528 . S
