# Generated by pormake.
# Topology tsx, (6,3)-cn, num edge types: 1
# Building blocks:
#     Node 0, Type 0, BuildingBlock: CIFDUS_clean_sbu_1, # of connection points: 6
#     Node 1, Type 0, BuildingBlock: CIFDUS_clean_sbu_1, # of connection points: 6
#     Node 2, Type 1, BuildingBlock: QEWDON_clean_linker_0, # of connection points: 3
#     Node 3, Type 1, BuildingBlock: QEWDON_clean_linker_0, # of connection points: 3
#     Node 4, Type 1, BuildingBlock: QEWDON_clean_linker_0, # of connection points: 3
#     Node 5, Type 1, BuildingBlock: QEWDON_clean_linker_0, # of connection points: 3
#     Edge 6, Type (0, 1), BuildingBlock: XUDNAN_clean_linker_2, # of connection points: 2
#     Edge 7, Type (0, 1), BuildingBlock: XUDNAN_clean_linker_2, # of connection points: 2
#     Edge 8, Type (0, 1), BuildingBlock: XUDNAN_clean_linker_2, # of connection points: 2
#     Edge 9, Type (0, 1), BuildingBlock: XUDNAN_clean_linker_2, # of connection points: 2
#     Edge 10, Type (0, 1), BuildingBlock: XUDNAN_clean_linker_2, # of connection points: 2
#     Edge 11, Type (0, 1), BuildingBlock: XUDNAN_clean_linker_2, # of connection points: 2
#     Edge 12, Type (0, 1), BuildingBlock: XUDNAN_clean_linker_2, # of connection points: 2
#     Edge 13, Type (0, 1), BuildingBlock: XUDNAN_clean_linker_2, # of connection points: 2
#     Edge 14, Type (0, 1), BuildingBlock: XUDNAN_clean_linker_2, # of connection points: 2
#     Edge 15, Type (0, 1), BuildingBlock: XUDNAN_clean_linker_2, # of connection points: 2
#     Edge 16, Type (0, 1), BuildingBlock: XUDNAN_clean_linker_2, # of connection points: 2
#     Edge 17, Type (0, 1), BuildingBlock: XUDNAN_clean_linker_2, # of connection points: 2
# Relax obj value: 0.104
# Max RMSD: 0.201
# Mean RMSD: 0.146
data_MOF--net-tsx--node1-CIFDUS_clean_sbu_1--node2-QEWDON_clean_linker_0--edge1-XUDNAN_clean_linker_2
_symmetry_space_group_name_H-M    P1
_symmetry_Int_Tables_number       1
_symmetry_cell_setting            triclinic
loop_
_symmetry_equiv_pos_as_xyz
'x, y, z'
_cell_length_a     19.018902
_cell_length_b     25.362996
_cell_length_c     33.456267
_cell_angle_alpha  97.616266
_cell_angle_beta   110.71824
_cell_angle_gamma 91.519766
loop_
_atom_site_label
_atom_site_type_symbol
_atom_site_fract_x
_atom_site_fract_y
_atom_site_fract_z
_atom_type_partial_charge
O0 O 0.07746 0.0902 0.03578 0.0
Mn1 Mn 0.1272 0.01642 0.03924 0.0
O2 O 0.9534 0.0745 1.00142 0.0
Mn3 Mn 0.96858 0.01086 0.97392 0.0
O4 O 0.18112 0.94447 0.04331 0.0
O5 O 0.22812 0.05898 0.06467 0.0
Mn6 Mn 0.28767 0.03495 0.11067 0.0
O7 O 0.1215 0.01664 0.10103 0.0
O8 O 0.30062 0.9664 0.09028 0.0
O9 O 0.1325 0.01509 0.9777 0.0
O10 O 1.01202 0.01481 0.93289 0.0
O11 O 0.34302 0.09083 0.10285 0.0
O12 O 0.23836 0.04273 0.14955 0.0
C13 C 0.96524 0.93978 0.99896 0.0
C14 C 1.01042 0.10597 0.02374 0.0
C15 C 0.24961 0.93322 0.06262 0.0
C16 C 0.2828 0.09357 0.06969 0.0
C17 C 0.16842 0.03015 0.14007 0.0
C18 C 0.08238 0.01501 0.93991 0.0
O19 O 1.02533 0.97292 1.01249 0.0
O20 O 0.90696 0.95297 0.96869 0.0
O21 O 0.51514 0.55171 0.51943 0.0
Mn22 Mn 0.57764 0.48481 0.52546 0.0
O23 O 0.41428 0.53171 0.45801 0.0
Mn24 Mn 0.44087 0.46428 0.44314 0.0
O25 O 0.64227 0.41841 0.53337 0.0
O26 O 0.66926 0.53339 0.55916 0.0
Mn27 Mn 0.72615 0.51157 0.60681 0.0
O28 O 0.55648 0.47712 0.58208 0.0
O29 O 0.75385 0.44669 0.58707 0.0
O30 O 0.60334 0.49431 0.47026 0.0
O31 O 0.5036 0.45944 0.41241 0.0
O32 O 0.77343 0.57507 0.60321 0.0
O33 O 0.66381 0.50769 0.63834 0.0
C34 C 0.42432 0.40028 0.47333 0.0
C35 C 0.45347 0.56352 0.49183 0.0
C36 C 0.71039 0.41128 0.55714 0.0
C37 C 0.71759 0.57321 0.567 0.0
C38 C 0.59475 0.4895 0.62286 0.0
C39 C 0.57154 0.47839 0.42948 0.0
O40 O 0.48243 0.43534 0.49085 0.0
O41 O 0.37707 0.40694 0.43576 0.0
H42 H 0.1095 0.02632 0.43939 0.0
C43 C 0.13036 -0.01198 0.44601 0.0
C44 C 0.1538 0.95736 0.41554 0.0
C45 C 0.13519 0.9706 0.48497 0.0
H46 H 0.20086 0.88414 0.40128 0.0
C47 C 0.1828 0.90808 0.42462 0.0
C48 C 0.19011 0.89023 0.46403 0.0
C49 C 0.1656 0.92188 0.49378 0.0
C50 C 0.11121 0.00484 0.51674 0.0
H51 H 0.17095 0.90884 0.52411 0.0
C52 C 0.04605 0.04904 0.49802 0.0
C53 C 1.02709 0.11106 0.56239 0.0
C54 C 0.15481 0.00438 0.57067 0.0
H55 H 0.19724 -0.02365 0.58021 0.0
C56 C 0.14399 0.04495 0.61265 0.0
H57 H 1.01815 0.04592 0.46294 0.0
C58 C 0.08506 0.09463 0.6105 0.0
H59 H 0.08387 0.11607 0.64041 0.0
H60 H 0.17895 0.03818 0.64467 0.0
H61 H 1.03941 0.0196 0.63847 0.0
C62 C 1.02521 -0.01851 0.61793 0.0
C63 C 1.01907 0.93708 0.63732 0.0
C64 C 1.01443 -0.02354 0.57356 0.0
H65 H 0.97777 0.85489 0.62593 0.0
C66 C 0.98797 0.88853 0.61123 0.0
C67 C 0.9623 0.88481 0.56601 0.0
C68 C 0.97947 0.9277 0.5473 0.0
C69 C 1.0241 0.02467 0.55241 0.0
H70 H 0.96133 0.92436 0.51243 0.0
C71 C 0.13256 0.09304 0.55445 0.0
C72 C 0.09772 0.13877 0.52165 0.0
C73 C 0.93927 0.04044 0.51711 0.0
H74 H 0.88815 0.01655 0.5123 0.0
C75 C 0.93317 0.09296 0.48956 0.0
H76 H 0.19357 0.09724 0.57239 0.0
C77 C 1.00451 0.13704 0.49173 0.0
H78 H 0.98777 0.16831 0.47199 0.0
H79 H 0.87725 0.09951 0.46833 0.0
H80 H 0.55681 0.49544 0.93015 0.0
C81 C 0.60912 0.47676 0.94085 0.0
C82 C 0.63393 0.44962 0.90934 0.0
C83 C 0.65159 0.48065 0.98542 0.0
H84 H 0.71735 0.39773 0.90017 0.0
C85 C 0.69681 0.4195 0.92333 0.0
C86 C 0.73457 0.41748 0.96751 0.0
C87 C 0.71325 0.44926 0.99831 0.0
C88 C 0.63582 0.52119 0.01738 0.0
H89 H 0.7472 0.45048 0.03205 0.0
C90 C 0.58524 0.57315 0.99875 0.0
C91 C 0.57539 0.64089 0.06314 0.0
C92 C 0.67296 0.51813 0.07135 0.0
H93 H 0.7032 0.48383 0.08114 0.0
C94 C 0.66857 0.56234 0.11331 0.0
H95 H 0.56211 0.57307 0.96386 0.0
C96 C 0.62399 0.61966 0.11116 0.0
H97 H 0.62422 0.64229 0.141 0.0
H98 H 0.69679 0.55228 0.14527 0.0
H99 H 0.54698 0.5613 0.13347 0.0
C100 C 0.52789 0.52262 0.11487 0.0
C101 C 0.5066 0.48335 0.13493 0.0
C102 C 0.527 0.51193 0.07221 0.0
H103 H 0.45022 0.40482 0.12319 0.0
C104 C 0.47169 0.4349 0.10933 0.0
C105 C 0.46079 0.42592 0.06509 0.0
C106 C 0.49057 0.46352 0.0469 0.0
C107 C 0.55122 0.55507 0.05108 0.0
H108 H 0.48284 0.45604 1.01289 0.0
C109 C 0.67604 0.60823 0.05705 0.0
C110 C 0.65685 0.65675 0.02544 0.0
C111 C 0.47508 0.57966 1.0149 0.0
H112 H 0.41883 0.56255 1.00871 0.0
C113 C 0.48547 0.63106 0.98906 0.0
H114 H 0.73552 0.60548 0.07639 0.0
C115 C 0.56719 0.66571 0.99411 0.0
H116 H 0.56058 0.69816 0.97543 0.0
H117 H 0.43403 0.64384 0.96724 0.0
H118 H 0.39315 0.12443 0.04314 0.0
H119 H 0.17366 0.16066 0.04345 0.0
H120 H 0.18365 0.24416 1.0152 0.0
H121 H 0.47379 0.23854 0.09356 0.0
H122 H 0.54104 0.24734 0.06771 0.0
H123 H 0.50482 0.18158 0.06775 0.0
H124 H 0.45895 0.16305 0.98414 0.0
H125 H 0.49583 0.22925 0.9839 0.0
H126 H 0.39839 0.20776 0.95267 0.0
H127 H 0.22921 0.33126 1.00875 0.0
H128 H 0.30915 0.41594 0.03202 0.0
H129 H 0.50642 0.32969 0.04304 0.0
C130 C 0.34548 0.1486 0.0344 0.0
C131 C 0.2799 0.1347 0.04233 0.0
C132 C 0.22055 0.16839 0.03362 0.0
C133 C 0.22679 0.21639 0.01825 0.0
C134 C 0.29356 0.2304 1.01241 0.0
C135 C 0.35218 0.19728 0.02019 0.0
C136 C 0.42441 0.2266 0.02257 0.0
C137 C 0.48971 0.22335 0.06545 0.0
C138 C 0.44562 0.20541 0.98348 0.0
C139 C 0.39952 0.28262 0.0199 0.0
C140 C 0.32281 0.28335 1.01156 0.0
C141 C 0.28863 0.33106 1.0138 0.0
C142 C 0.33428 0.37896 0.02703 0.0
C143 C 0.41308 0.37861 0.03825 0.0
C144 C 0.44575 0.33035 0.03297 0.0
H145 H 0.3678 0.91304 0.03831 0.0
H146 H 0.19257 0.83626 0.07021 0.0
H147 H 0.2602 0.75349 0.07568 0.0
H148 H 0.40773 0.79219 0.97529 0.0
H149 H 0.50711 0.8125 0.99528 0.0
H150 H 0.4394 0.86212 0.98845 0.0
H151 H 0.5077 0.90384 0.06868 0.0
H152 H 0.5741 0.85342 0.07613 0.0
H153 H 0.51936 0.86304 0.11047 0.0
H154 H 0.35677 0.68537 0.08842 0.0
H155 H 0.46013 0.62783 0.09153 0.0
H156 H 0.57364 0.75008 0.05176 0.0
C157 C 0.34231 0.87799 0.04478 0.0
C158 C 0.27461 0.88029 0.05321 0.0
C159 C 0.24343 0.83453 0.06266 0.0
C160 C 0.28203 0.78782 0.06638 0.0
C161 C 0.35094 0.78788 0.06011 0.0
C162 C 0.37976 0.8313 0.04833 0.0
C163 C 0.45598 0.822 0.04483 0.0
C164 C 0.45231 0.82221 0.99819 0.0
C165 C 0.51791 0.86302 0.07695 0.0
C166 C 0.46653 0.76681 0.0573 0.0
C167 C 0.40549 0.74807 0.06624 0.0
C168 C 0.40351 0.699 0.08011 0.0
C169 C 0.46286 0.66679 0.08204 0.0
C170 C 0.52233 0.6828 0.06886 0.0
C171 C 0.52664 0.7351 0.05921 0.0
H172 H 0.89729 0.84941 0.94802 0.0
H173 H 1.01262 0.91718 0.08229 0.0
H174 H 0.9573 0.84147 0.1044 0.0
H175 H 0.73325 0.82487 0.95577 0.0
H176 H 0.70293 0.7635 0.91831 0.0
H177 H 0.76944 0.81079 0.91272 0.0
H178 H 0.86576 0.73943 0.91741 0.0
H179 H 0.79837 0.69094 0.92134 0.0
H180 H 0.89178 0.70205 0.96203 0.0
H181 H 0.86785 0.77023 0.11034 0.0
H182 H 0.75985 0.70699 0.10059 0.0
H183 H 0.69536 0.6917 0.96154 0.0
C184 C 0.91408 0.84666 0.98214 0.0
C185 C 0.95968 0.88834 1.01359 0.0
C186 C 0.97922 0.88475 0.0579 0.0
C187 C 0.9474 0.84214 0.07057 0.0
C188 C 0.89711 0.80385 0.03838 0.0
C189 C 0.8818 0.80529 0.99498 0.0
C190 C 0.81722 0.76535 0.96642 0.0
C191 C 0.75192 0.79281 0.9366 0.0
C192 C 0.84496 0.72185 0.94026 0.0
C193 C 0.79526 0.74315 1.00034 0.0
C194 C 0.84316 0.76471 0.04165 0.0
C195 C 0.83126 0.75236 0.07819 0.0
C196 C 0.76966 0.71668 0.07232 0.0
C197 C 0.71999 0.69471 0.03029 0.0
C198 C 0.73275 0.70818 0.99392 0.0
H199 H 0.91616 0.15944 0.0571 0.0
H200 H 0.06612 0.17713 0.98748 0.0
H201 H 1.0269 0.2674 0.97652 0.0
H202 H 0.769 0.21081 0.98588 0.0
H203 H 0.73227 0.24464 0.02428 0.0
H204 H 0.78566 0.18773 0.03693 0.0
H205 H 0.87892 0.24356 0.10716 0.0
H206 H 0.82513 0.30068 0.09501 0.0
H207 H 0.9246 0.30546 0.10441 0.0
H208 H 0.95533 0.34712 0.96108 0.0
H209 H 0.85815 0.41199 0.94382 0.0
H210 H 0.74964 0.34261 0.02092 0.0
C211 C 0.94344 0.18376 0.04168 0.0
C212 C 0.99873 0.16323 0.02611 0.0
C213 C 1.02921 0.19417 1.00312 0.0
C214 C 1.00583 0.24508 0.99591 0.0
C215 C 0.95062 0.26412 1.01122 0.0
C216 C 0.91993 0.23458 0.03385 0.0
C217 C 0.85407 0.2609 0.04139 0.0
C218 C 0.78097 0.22381 0.02088 0.0
C219 C 0.87177 0.27872 0.08988 0.0
C220 C 0.85064 0.30848 0.01791 0.0
C221 C 0.90743 0.30994 1.00121 0.0
C222 C 0.91164 0.34715 0.9748 0.0
C223 C 0.85606 0.38357 0.96493 0.0
C224 C 0.79711 0.38246 0.9814 0.0
C225 C 0.79526 0.34502 1.0088 0.0
H226 H 0.67413 0.67299 0.57151 0.0
H227 H 0.77059 0.55978 0.50154 0.0
H228 H 0.82227 0.63348 0.47605 0.0
H229 H 0.64484 0.78128 0.49396 0.0
H230 H 0.67007 0.83282 0.54034 0.0
H231 H 0.61873 0.7716 0.53947 0.0
H232 H 0.72125 0.7581 0.61167 0.0
H233 H 0.77363 0.81816 0.61263 0.0
H234 H 0.81805 0.75615 0.61526 0.0
H235 H 0.89752 0.71781 0.47972 0.0
H236 H 0.9771 0.80354 0.50662 0.0
H237 H 0.82755 0.86295 0.57092 0.0
C238 C 0.7014 0.66387 0.54824 0.0
C239 C 0.71688 0.61113 0.53742 0.0
C240 C 0.75628 0.60006 0.50892 0.0
C241 C 0.78621 0.6418 0.49454 0.0
C242 C 0.77511 0.69422 0.50851 0.0
C243 C 0.73131 0.70524 0.53366 0.0
C244 C 0.7382 0.76422 0.55064 0.0
C245 C 0.66351 0.78895 0.52983 0.0
C246 C 0.7644 0.77468 0.60045 0.0
C247 C 0.79809 0.78384 0.53487 0.0
C248 C 0.81764 0.74339 0.50968 0.0
C249 C 0.8806 0.75032 0.49785 0.0
C250 C 0.92561 0.79901 0.51318 0.0
C251 C 0.90741 0.83962 0.54022 0.0
C252 C 0.84124 0.83261 0.54942 0.0
H253 H 0.84754 0.39349 0.55274 0.0
H254 H 0.6436 0.3129 0.55257 0.0
H255 H 0.70612 0.22809 0.55885 0.0
H256 H 0.89636 0.28191 0.48797 0.0
H257 H 0.99617 0.29644 0.51711 0.0
H258 H 0.93396 0.34957 0.51137 0.0
H259 H 0.98482 0.37608 0.59472 0.0
H260 H 0.04584 0.32224 0.60069 0.0
H261 H 0.97952 0.32704 0.62816 0.0
H262 H 0.7968 0.15556 0.574 0.0
H263 H 0.89719 0.09428 0.57859 0.0
H264 H 1.03825 0.2212 0.56324 0.0
C265 C 0.8157 0.35763 0.55314 0.0
C266 C 0.7409 0.35923 0.55204 0.0
C267 C 0.70066 0.31196 0.5528 0.0
C268 C 0.73601 0.26398 0.55688 0.0
C269 C 0.81089 0.26415 0.55939 0.0
C270 C 0.84951 0.30939 0.55627 0.0
C271 C 0.9287 0.2987 0.55846 0.0
C272 C 0.93939 0.30714 0.51621 0.0
C273 C 0.9882 0.33307 0.59786 0.0
C274 C 0.92896 0.2404 0.56371 0.0
C275 C 0.86101 0.2215 0.56495 0.0
C276 C 0.84912 0.16944 0.57145 0.0
C277 C 0.90635 0.13494 0.57388 0.0
C278 C 0.97293 0.15193 0.56775 0.0
C279 C 0.98626 0.20628 0.56553 0.0
H280 H 0.34992 0.30636 0.4319 0.0
H281 H 0.44955 0.39889 0.55978 0.0
H282 H 0.38052 0.33744 0.58752 0.0
H283 H 0.17373 0.29321 0.43205 0.0
H284 H 0.14854 0.22642 0.40261 0.0
H285 H 0.21876 0.26845 0.39485 0.0
H286 H 0.31649 0.19803 0.41558 0.0
H287 H 0.24541 0.15482 0.42164 0.0
H288 H 0.33448 0.17192 0.46555 0.0
H289 H 0.28572 0.27329 0.59793 0.0
H290 H 0.18216 0.20787 0.59201 0.0
H291 H 0.13776 0.16352 0.45532 0.0
C292 C 0.35963 0.31245 0.46618 0.0
C293 C 0.40555 0.35692 0.49391 0.0
C294 C 0.41605 0.36434 0.53831 0.0
C295 C 0.37629 0.32993 0.55411 0.0
C296 C 0.32701 0.28859 0.52497 0.0
C297 C 0.31978 0.27922 0.48204 0.0
C298 C 0.2578 0.23615 0.45608 0.0
C299 C 0.1961 0.25738 0.41925 0.0
C300 C 0.29053 0.18733 0.43871 0.0
C301 C 0.22887 0.22387 0.49066 0.0
C302 C 0.27025 0.25384 0.53034 0.0
C303 C 0.25343 0.24956 0.56709 0.0
C304 C 0.19421 0.21285 0.56334 0.0
C305 C 0.15158 0.18199 0.52302 0.0
C306 C 0.16861 0.18781 0.48619 0.0
H307 H 0.46142 0.65522 0.45888 0.0
H308 H 0.3707 0.5825 0.54223 0.0
H309 H 0.29604 0.6602 0.54647 0.0
H310 H 0.47237 0.79539 0.51253 0.0
H311 H 0.44599 0.82147 0.4621 0.0
H312 H 0.49719 0.76253 0.46871 0.0
H313 H 0.39362 0.7108 0.40094 0.0
H314 H 0.34116 0.76907 0.39394 0.0
H315 H 0.2972 0.70731 0.39824 0.0
H316 H 0.21815 0.73828 0.53257 0.0
H317 H 0.15468 0.81849 0.51055 0.0
H318 H 0.30508 0.84572 0.44178 0.0
C319 C 0.42755 0.65676 0.47905 0.0
C320 C 0.42207 0.61382 0.50082 0.0
C321 C 0.37612 0.61585 0.52608 0.0
C322 C 0.33339 0.65953 0.52841 0.0
C323 C 0.33821 0.70084 0.50564 0.0
C324 C 0.38537 0.70049 0.48222 0.0
C325 C 0.37811 0.74917 0.45965 0.0
C326 C 0.45286 0.78425 0.47681 0.0
C327 C 0.35089 0.73309 0.41027 0.0
C328 C 0.31818 0.77616 0.47314 0.0
C329 C 0.29559 0.7474 0.49936 0.0
C330 C 0.23694 0.76209 0.51315 0.0
C331 C 0.20144 0.80806 0.50057 0.0
C332 C 0.22546 0.83962 0.47504 0.0
C333 C 0.28465 0.82289 0.46113 0.0
H334 H 0.11518 0.94587 0.16756 0.0
H335 H 0.17373 0.1164 0.1975 0.0
H336 H 0.16585 0.11687 0.26961 0.0
H337 H 0.98703 0.94167 0.23247 0.0
H338 H 1.02048 0.87956 0.2496 0.0
H339 H 1.01633 0.89415 0.19755 0.0
H340 H 0.15777 0.87823 0.21806 0.0
H341 H 0.16303 0.86489 0.2705 0.0
H342 H 0.22584 0.91646 0.26617 0.0
H343 H 0.17422 0.09731 0.34127 0.0
H344 H 0.18475 0.06061 0.40723 0.0
H345 H 0.11698 0.90195 0.33246 0.0
C346 C 0.12254 -0.01649 0.18865 0.0
C347 C 0.14299 0.03144 0.17685 0.0
C348 C 0.15618 0.07968 0.20583 0.0
C349 C 0.15224 0.08022 0.24686 0.0
C350 C 0.13523 0.03207 0.25844 0.0
C351 C 0.11928 -0.01536 0.23008 0.0
C352 C 0.10951 0.93798 0.25236 0.0
C353 C 1.02851 0.9118 0.23177 0.0
C354 C 0.1675 0.897 0.25172 0.0
C355 C 0.12513 0.96646 0.29789 0.0
C356 C 0.13942 0.02073 0.30043 0.0
C357 C 0.16085 0.05511 0.33947 0.0
C358 C 0.16642 0.03377 0.37685 0.0
C359 C 0.14995 -0.02157 0.37521 0.0
C360 C 0.12952 0.94441 0.33499 0.0
H361 H 1.01954 0.06013 0.86789 0.0
H362 H 0.18831 0.95308 0.92431 0.0
H363 H 0.19603 0.92378 0.85237 0.0
H364 H 0.9196 -0.02352 0.77638 0.0
H365 H 0.8979 0.02552 0.74028 0.0
H366 H 0.9154 0.04533 0.79678 0.0
H367 H 1.02203 0.11523 0.80293 0.0
H368 H 1.00348 0.09679 0.74602 0.0
H369 H 0.0972 0.09478 0.7848 0.0
H370 H 0.16736 0.89514 0.772 0.0
H371 H 0.11991 0.88006 0.69176 0.0
H372 H 0.9719 0.00745 0.68962 0.0
C373 C 0.06026 0.03205 0.86535 0.0
C374 C 0.10372 0.00902 0.90144 0.0
C375 C 0.15559 0.97181 0.89705 0.0
C376 C 0.15974 0.95463 0.85628 0.0
C377 C 0.11268 -0.02405 0.82074 0.0
C378 C 0.06548 0.01501 0.8252 0.0
C379 C 1.01708 0.02924 0.78194 0.0
C380 C 0.93253 0.01847 0.77338 0.0
C381 C 1.03612 0.08746 0.77874 0.0
C382 C 0.04218 -0.00926 0.75217 0.0
C383 C 0.09734 0.96026 0.77497 0.0
C384 C 0.12535 0.91955 0.75393 0.0
C385 C 0.09757 0.91083 0.7085 0.0
C386 C 0.04276 0.94283 0.68487 0.0
C387 C 1.01455 -0.01708 0.70708 0.0
H388 H 0.60196 0.40428 0.66456 0.0
H389 H 0.51961 0.56126 0.65615 0.0
H390 H 0.49978 0.56135 0.72537 0.0
H391 H 0.47778 0.35484 0.72412 0.0
H392 H 0.55376 0.31944 0.75568 0.0
H393 H 0.54288 0.32613 0.70084 0.0
H394 H 0.68056 0.36748 0.72797 0.0
H395 H 0.69151 0.36221 0.78282 0.0
H396 H 0.70893 0.42611 0.76861 0.0
H397 H 0.51965 0.554 0.80177 0.0
H398 H 0.56526 0.53719 0.87663 0.0
H399 H 0.62552 0.38048 0.83524 0.0
C400 C 0.57553 0.43713 0.67621 0.0
C401 C 0.55987 0.48207 0.65468 0.0
C402 C 0.52937 0.52585 0.67166 0.0
C403 C 0.51842 0.52627 0.71104 0.0
C404 C 0.53769 0.48233 0.7327 0.0
C405 C 0.5639 0.4379 0.7154 0.0
C406 C 0.58908 0.39886 0.74748 0.0
C407 C 0.5378 0.34672 0.73105 0.0
C408 C 0.67244 0.38809 0.75728 0.0
C409 C 0.57784 0.42985 0.78646 0.0
C410 C 0.54726 0.47753 0.77704 0.0
C411 C 0.54077 0.51587 0.80912 0.0
C412 C 0.56668 0.50557 0.85189 0.0
C413 C 0.59839 0.45688 0.8627 0.0
C414 C 0.60201 0.41818 0.82887 0.0
H415 H 0.60036 0.40792 0.37045 0.0
H416 H 0.60955 0.57641 0.41684 0.0
H417 H 0.60407 0.5972 0.34579 0.0
H418 H 0.70841 0.42474 0.29238 0.0
H419 H 0.6498 0.36961 0.25455 0.0
H420 H 0.67538 0.36973 0.31186 0.0
H421 H 0.53379 0.356 0.30005 0.0
H422 H 0.50713 0.35861 0.24325 0.0
H423 H 0.47064 0.40428 0.27575 0.0
H424 H 0.55543 0.59644 0.26615 0.0
H425 H 0.50661 0.5782 0.18703 0.0
H426 H 0.54456 0.41049 0.19222 0.0
C427 C 0.60685 0.44924 0.36644 0.0
C428 C 0.60671 0.49071 0.399 0.0
C429 C 0.61178 0.54436 0.39253 0.0
C430 C 0.60757 0.55639 0.35206 0.0
C431 C 0.60077 0.51424 0.31921 0.0
C432 C 0.60425 0.4618 0.32651 0.0
C433 C 0.589 0.42372 0.28484 0.0
C434 C 0.65988 0.39528 0.28597 0.0
C435 C 0.52112 0.38332 0.27547 0.0
C436 C 0.57109 0.46259 0.25263 0.0
C437 C 0.57789 0.5145 0.27311 0.0
C438 C 0.55415 0.5564 0.24988 0.0
C439 C 0.52648 0.54544 0.20465 0.0
C440 C 0.52453 0.49308 0.18273 0.0
C441 C 0.54602 0.4511 0.20746 0.0
loop_
_geom_bond_atom_site_label_1
_geom_bond_atom_site_label_2
_geom_bond_distance
_geom_bond_site_symmetry_2
_ccdc_geom_bond_type
O0 Mn1 2.163 . S
O0 C14 1.244 1_454 S
Mn1 O0 2.163 . S
Mn1 O4 2.160 1_545 S
Mn1 O5 2.221 . S
Mn1 O7 2.163 1_545 S
Mn1 O9 2.160 1_554 S
Mn1 O19 2.221 1_444 S
O2 Mn3 2.087 1_545 S
O2 C14 1.256 . S
Mn3 O2 2.087 1_565 S
Mn3 O10 2.089 1_565 S
Mn3 O19 2.290 . S
Mn3 O20 2.251 . S
O4 Mn1 2.160 1_565 S
O4 C15 1.239 . S
O5 Mn1 2.221 . S
O5 Mn6 2.290 . S
O5 C16 1.278 . S
Mn6 O5 2.290 . S
Mn6 O8 2.089 1_545 S
Mn6 O11 2.251 . S
Mn6 O12 2.087 . S
O7 Mn1 2.163 1_565 S
O7 C17 1.244 1_565 S
O8 Mn6 2.089 1_565 S
O8 C15 1.256 . S
O9 Mn1 2.160 1_556 S
O9 C18 1.239 . S
O10 Mn3 2.089 1_545 S
O10 C18 1.256 1_655 S
O11 Mn6 2.251 . S
O11 C16 1.241 . S
O12 Mn6 2.087 . S
O12 C17 1.256 . S
C13 O19 1.278 . S
C13 O20 1.241 . S
C14 O0 1.244 1_656 S
C14 O2 1.256 . S
C15 O4 1.239 . S
C15 O8 1.256 . S
C16 O5 1.278 . S
C16 O11 1.241 . S
C17 O7 1.244 1_545 S
C17 O12 1.256 . S
C18 O9 1.239 . S
C18 O10 1.256 1_455 S
O19 Mn1 2.221 1_666 S
O19 Mn3 2.290 . S
O19 C13 1.278 . S
O20 Mn3 2.251 . S
O20 C13 1.241 . S
O21 Mn22 2.163 . S
O21 C35 1.244 . S
Mn22 O21 2.163 . S
Mn22 O25 2.160 . S
Mn22 O26 2.221 . S
Mn22 O28 2.163 . S
Mn22 O30 2.160 . S
Mn22 O40 2.221 . S
O23 Mn24 2.087 . S
O23 C35 1.256 . S
Mn24 O23 2.087 . S
Mn24 O31 2.089 . S
Mn24 O40 2.290 . S
Mn24 O41 2.251 . S
O25 Mn22 2.160 . S
O25 C36 1.239 . S
O26 Mn22 2.221 . S
O26 Mn27 2.290 . S
O26 C37 1.278 . S
Mn27 O26 2.290 . S
Mn27 O29 2.089 . S
Mn27 O32 2.251 . S
Mn27 O33 2.087 . S
O28 Mn22 2.163 . S
O28 C38 1.244 . S
O29 Mn27 2.089 . S
O29 C36 1.256 . S
O30 Mn22 2.160 . S
O30 C39 1.239 . S
O31 Mn24 2.089 . S
O31 C39 1.256 . S
O32 Mn27 2.251 . S
O32 C37 1.241 . S
O33 Mn27 2.087 . S
O33 C38 1.256 . S
C34 O40 1.278 . S
C34 O41 1.241 . S
C35 O21 1.244 . S
C35 O23 1.256 . S
C36 O25 1.239 . S
C36 O29 1.256 . S
C37 O26 1.278 . S
C37 O32 1.241 . S
C38 O28 1.244 . S
C38 O33 1.256 . S
C39 O30 1.239 . S
C39 O31 1.256 . S
O40 Mn22 2.221 . S
O40 Mn24 2.290 . S
O40 C34 1.278 . S
O41 Mn24 2.251 . S
O41 C34 1.241 . S
H42 C43 0.949 . S
C43 H42 0.949 . S
C43 C44 1.395 1_545 S
C43 C45 1.391 . S
C44 C43 1.395 1_565 S
C44 C47 1.390 . S
C45 C43 1.391 . S
C45 C49 1.387 1_545 S
C45 C50 1.491 . S
H46 C47 0.950 . S
C47 C44 1.390 . S
C47 H46 0.950 . S
C47 C48 1.378 . S
C48 C47 1.378 . S
C48 C49 1.409 . S
C49 C45 1.387 1_565 S
C49 C48 1.409 . S
C49 H51 0.951 . S
C50 C45 1.491 . S
C50 C52 1.382 . S
C50 C54 1.404 . S
H51 C49 0.951 . S
C52 C50 1.382 . S
C52 C53 1.390 1_455 S
C52 H57 0.949 1_455 S
C53 C52 1.390 1_655 S
C53 C58 1.399 1_655 S
C54 C50 1.404 . S
C54 H55 0.950 . S
C54 C56 1.375 . S
H55 C54 0.950 . S
C56 C54 1.375 . S
C56 C58 1.382 . S
C56 H60 0.950 . S
H57 C52 0.949 1_655 S
C58 C53 1.399 1_455 S
C58 C56 1.382 . S
C58 H59 0.952 . S
H59 C58 0.952 . S
H60 C56 0.950 . S
H61 C62 0.951 . S
C62 H61 0.951 . S
C62 C63 1.392 1_455 S
C62 C64 1.391 1_455 S
C63 C62 1.392 1_655 S
C63 C66 1.390 1_545 S
C64 C62 1.391 1_655 S
C64 C68 1.387 . S
C64 C69 1.491 1_655 S
H65 C66 0.950 . S
C66 C63 1.390 1_565 S
C66 H65 0.950 . S
C66 C67 1.378 . S
C67 C66 1.378 . S
C67 C68 1.409 1_565 S
C68 C64 1.387 . S
C68 C67 1.409 1_545 S
C68 H70 0.951 . S
C69 C64 1.491 1_455 S
C69 C71 1.382 . S
C69 C73 1.404 1_455 S
H70 C68 0.951 . S
C71 C69 1.382 . S
C71 C72 1.390 . S
C71 H76 0.949 . S
C72 C71 1.390 . S
C72 C77 1.399 . S
C73 C69 1.404 1_655 S
C73 H74 0.950 . S
C73 C75 1.375 . S
H74 C73 0.950 . S
C75 C73 1.375 . S
C75 C77 1.382 1_655 S
C75 H79 0.950 . S
H76 C71 0.949 . S
C77 C72 1.399 . S
C77 C75 1.382 1_455 S
C77 H78 0.952 . S
H78 C77 0.952 . S
H79 C75 0.950 . S
H80 C81 0.949 . S
C81 H80 0.949 . S
C81 C82 1.395 . S
C81 C83 1.391 . S
C82 C81 1.395 . S
C82 C85 1.390 . S
C83 C81 1.391 . S
C83 C87 1.387 . S
C83 C88 1.491 1_556 S
H84 C85 0.950 . S
C85 C82 1.390 . S
C85 H84 0.950 . S
C85 C86 1.378 . S
C86 C85 1.378 . S
C86 C87 1.409 . S
C87 C83 1.387 . S
C87 C86 1.409 . S
C87 H89 0.951 1_556 S
C88 C83 1.491 1_554 S
C88 C90 1.382 1_554 S
C88 C92 1.404 . S
H89 C87 0.951 1_554 S
C90 C88 1.382 1_556 S
C90 C91 1.390 1_556 S
C90 H95 0.949 . S
C91 C90 1.390 1_554 S
C91 C96 1.399 . S
C92 C88 1.404 . S
C92 H93 0.950 . S
C92 C94 1.375 . S
H93 C92 0.950 . S
C94 C92 1.375 . S
C94 C96 1.382 . S
C94 H98 0.950 . S
H95 C90 0.949 . S
C96 C91 1.399 . S
C96 C94 1.382 . S
C96 H97 0.952 . S
H97 C96 0.952 . S
H98 C94 0.950 . S
H99 C100 0.949 . S
C100 H99 0.949 . S
C100 C101 1.395 . S
C100 C102 1.391 . S
C101 C100 1.395 . S
C101 C104 1.390 . S
C102 C100 1.391 . S
C102 C106 1.387 . S
C102 C107 1.491 . S
H103 C104 0.950 . S
C104 C101 1.390 . S
C104 H103 0.950 . S
C104 C105 1.378 . S
C105 C104 1.378 . S
C105 C106 1.409 . S
C106 C102 1.387 . S
C106 C105 1.409 . S
C106 H108 0.954 . S
C107 C102 1.491 . S
C107 C109 1.382 . S
C107 C111 1.404 1_554 S
H108 C106 0.954 . S
C109 C107 1.382 . S
C109 C110 1.390 . S
C109 H114 0.949 . S
C110 C109 1.390 . S
C110 C115 1.399 1_554 S
C111 C107 1.404 1_556 S
C111 H112 0.950 . S
C111 C113 1.375 . S
H112 C111 0.950 . S
C113 C111 1.375 . S
C113 C115 1.382 . S
C113 H117 0.950 . S
H114 C109 0.949 . S
C115 C110 1.399 1_556 S
C115 C113 1.382 . S
C115 H116 0.952 . S
H116 C115 0.952 . S
H117 C113 0.950 . S
H118 C130 0.930 1_556 S
H119 C132 0.930 . S
H120 C133 0.930 . S
H121 C137 0.959 1_554 S
H122 C137 0.959 . S
H123 C137 0.961 . S
H124 C138 0.960 . S
H125 C138 0.961 . S
H126 C138 0.959 . S
H127 C141 0.929 . S
H128 C142 0.931 . S
H129 C144 0.930 1_556 S
C130 H118 0.930 1_554 S
C130 C131 1.399 . S
C130 C135 1.399 . S
C131 C130 1.399 . S
C131 C132 1.376 . S
C132 H119 0.930 . S
C132 C131 1.376 . S
C132 C133 1.388 . S
C133 H120 0.930 . S
C133 C132 1.388 . S
C133 C134 1.390 . S
C134 C133 1.390 . S
C134 C135 1.394 . S
C134 C140 1.465 . S
C135 C130 1.399 . S
C135 C134 1.394 . S
C135 C136 1.516 1_554 S
C136 C135 1.516 1_556 S
C136 C137 1.502 . S
C136 C138 1.561 . S
C136 C139 1.526 1_556 S
C137 H121 0.959 1_556 S
C137 H122 0.959 . S
C137 H123 0.961 . S
C137 C136 1.502 . S
C138 H124 0.960 . S
C138 H125 0.961 . S
C138 H126 0.959 . S
C138 C136 1.561 . S
C139 C136 1.526 1_554 S
C139 C140 1.396 . S
C139 C144 1.390 . S
C140 C134 1.465 . S
C140 C139 1.396 . S
C140 C141 1.399 . S
C141 H127 0.929 . S
C141 C140 1.399 . S
C141 C142 1.385 . S
C142 H128 0.931 . S
C142 C141 1.385 . S
C142 C143 1.389 . S
C143 C142 1.389 . S
C143 C144 1.387 . S
C144 H129 0.930 1_554 S
C144 C139 1.390 . S
C144 C143 1.387 . S
H145 C157 0.930 . S
H146 C159 0.930 . S
H147 C160 0.930 . S
H148 C164 0.959 . S
H149 C164 0.959 . S
H150 C164 0.961 . S
H151 C165 0.960 . S
H152 C165 0.961 . S
H153 C165 0.959 . S
H154 C168 0.929 . S
H155 C169 0.931 . S
H156 C171 0.930 . S
C157 H145 0.930 . S
C157 C158 1.399 1_556 S
C157 C162 1.399 . S
C158 C157 1.399 1_554 S
C158 C159 1.376 . S
C159 H146 0.930 . S
C159 C158 1.376 . S
C159 C160 1.388 . S
C160 H147 0.930 . S
C160 C159 1.388 . S
C160 C161 1.390 . S
C161 C160 1.390 . S
C161 C162 1.394 1_554 S
C161 C167 1.465 . S
C162 C157 1.399 . S
C162 C161 1.394 1_556 S
C162 C163 1.516 . S
C163 C162 1.516 . S
C163 C164 1.502 . S
C163 C165 1.561 . S
C163 C166 1.526 . S
C164 H148 0.959 . S
C164 H149 0.959 . S
C164 H150 0.961 . S
C164 C163 1.502 . S
C165 H151 0.960 . S
C165 H152 0.961 . S
C165 H153 0.959 . S
C165 C163 1.561 . S
C166 C163 1.526 . S
C166 C167 1.396 1_556 S
C166 C171 1.390 . S
C167 C161 1.465 . S
C167 C166 1.396 1_554 S
C167 C168 1.399 . S
C168 H154 0.929 . S
C168 C167 1.399 . S
C168 C169 1.385 . S
C169 H155 0.931 . S
C169 C168 1.385 . S
C169 C170 1.389 . S
C170 C169 1.389 . S
C170 C171 1.387 1_554 S
C171 H156 0.930 . S
C171 C166 1.390 . S
C171 C170 1.387 1_556 S
H172 C184 0.930 . S
H173 C186 0.930 . S
H174 C187 0.930 . S
H175 C191 0.959 . S
H176 C191 0.959 . S
H177 C191 0.961 . S
H178 C192 0.960 . S
H179 C192 0.961 . S
H180 C192 0.959 . S
H181 C195 0.929 . S
H182 C196 0.931 . S
H183 C198 0.930 . S
C184 H172 0.930 . S
C184 C185 1.399 1_556 S
C184 C189 1.399 . S
C185 C184 1.399 1_554 S
C185 C186 1.376 . S
C186 H173 0.930 . S
C186 C185 1.376 . S
C186 C187 1.388 . S
C187 H174 0.930 . S
C187 C186 1.388 . S
C187 C188 1.390 . S
C188 C187 1.390 . S
C188 C189 1.394 1_554 S
C188 C194 1.465 . S
C189 C184 1.399 . S
C189 C188 1.394 1_556 S
C189 C190 1.516 . S
C190 C189 1.516 . S
C190 C191 1.502 . S
C190 C192 1.561 . S
C190 C193 1.526 . S
C191 H175 0.959 . S
C191 H176 0.959 . S
C191 H177 0.961 . S
C191 C190 1.502 . S
C192 H178 0.960 . S
C192 H179 0.961 . S
C192 H180 0.959 . S
C192 C190 1.561 . S
C193 C190 1.526 . S
C193 C194 1.396 1_556 S
C193 C198 1.390 . S
C194 C188 1.465 . S
C194 C193 1.396 1_554 S
C194 C195 1.399 . S
C195 H181 0.929 . S
C195 C194 1.399 . S
C195 C196 1.385 . S
C196 H182 0.931 . S
C196 C195 1.385 . S
C196 C197 1.389 . S
C197 C196 1.389 . S
C197 C198 1.387 1_554 S
C198 H183 0.930 . S
C198 C193 1.390 . S
C198 C197 1.387 1_556 S
H199 C211 0.930 . S
H200 C213 0.930 . S
H201 C214 0.930 . S
H202 C218 0.959 . S
H203 C218 0.959 . S
H204 C218 0.961 . S
H205 C219 0.960 . S
H206 C219 0.961 . S
H207 C219 0.959 . S
H208 C222 0.929 . S
H209 C223 0.931 . S
H210 C225 0.930 . S
C211 H199 0.930 . S
C211 C212 1.399 1_554 S
C211 C216 1.399 . S
C212 C211 1.399 1_556 S
C212 C213 1.376 . S
C213 H200 0.930 . S
C213 C212 1.376 . S
C213 C214 1.388 . S
C214 H201 0.930 . S
C214 C213 1.388 . S
C214 C215 1.390 . S
C215 C214 1.390 . S
C215 C216 1.394 1_556 S
C215 C221 1.465 . S
C216 C211 1.399 . S
C216 C215 1.394 1_554 S
C216 C217 1.516 . S
C217 C216 1.516 . S
C217 C218 1.502 . S
C217 C219 1.561 . S
C217 C220 1.526 1_554 S
C218 H202 0.959 . S
C218 H203 0.959 . S
C218 H204 0.961 . S
C218 C217 1.502 . S
C219 H205 0.960 . S
C219 H206 0.961 . S
C219 H207 0.959 . S
C219 C217 1.561 . S
C220 C217 1.526 1_556 S
C220 C221 1.396 . S
C220 C225 1.390 1_556 S
C221 C215 1.465 . S
C221 C220 1.396 . S
C221 C222 1.399 . S
C222 H208 0.929 . S
C222 C221 1.399 . S
C222 C223 1.385 . S
C223 H209 0.931 . S
C223 C222 1.385 . S
C223 C224 1.389 . S
C224 C223 1.389 . S
C224 C225 1.387 1_556 S
C225 H210 0.930 . S
C225 C220 1.390 1_554 S
C225 C224 1.387 1_554 S
H226 C238 0.930 . S
H227 C240 0.930 . S
H228 C241 0.930 . S
H229 C245 0.959 . S
H230 C245 0.959 . S
H231 C245 0.961 . S
H232 C246 0.960 . S
H233 C246 0.961 . S
H234 C246 0.959 . S
H235 C249 0.929 . S
H236 C250 0.931 . S
H237 C252 0.930 . S
C238 H226 0.930 . S
C238 C239 1.399 . S
C238 C243 1.399 . S
C239 C238 1.399 . S
C239 C240 1.376 . S
C240 H227 0.930 . S
C240 C239 1.376 . S
C240 C241 1.388 . S
C241 H228 0.930 . S
C241 C240 1.388 . S
C241 C242 1.390 . S
C242 C241 1.390 . S
C242 C243 1.394 . S
C242 C248 1.465 . S
C243 C238 1.399 . S
C243 C242 1.394 . S
C243 C244 1.516 . S
C244 C243 1.516 . S
C244 C245 1.502 . S
C244 C246 1.561 . S
C244 C247 1.526 . S
C245 H229 0.959 . S
C245 H230 0.959 . S
C245 H231 0.961 . S
C245 C244 1.502 . S
C246 H232 0.960 . S
C246 H233 0.961 . S
C246 H234 0.959 . S
C246 C244 1.561 . S
C247 C244 1.526 . S
C247 C248 1.396 . S
C247 C252 1.390 . S
C248 C242 1.465 . S
C248 C247 1.396 . S
C248 C249 1.399 . S
C249 H235 0.929 . S
C249 C248 1.399 . S
C249 C250 1.385 . S
C250 H236 0.931 . S
C250 C249 1.385 . S
C250 C251 1.389 . S
C251 C250 1.389 . S
C251 C252 1.387 . S
C252 H237 0.930 . S
C252 C247 1.390 . S
C252 C251 1.387 . S
H253 C265 0.930 . S
H254 C267 0.930 . S
H255 C268 0.930 . S
H256 C272 0.959 . S
H257 C272 0.959 . S
H258 C272 0.961 . S
H259 C273 0.960 . S
H260 C273 0.961 . S
H261 C273 0.959 . S
H262 C276 0.929 . S
H263 C277 0.931 . S
H264 C279 0.930 . S
C265 H253 0.930 . S
C265 C266 1.399 . S
C265 C270 1.399 . S
C266 C265 1.399 . S
C266 C267 1.376 . S
C267 H254 0.930 . S
C267 C266 1.376 . S
C267 C268 1.388 . S
C268 H255 0.930 . S
C268 C267 1.388 . S
C268 C269 1.390 . S
C269 C268 1.390 . S
C269 C270 1.394 . S
C269 C275 1.465 . S
C270 C265 1.399 . S
C270 C269 1.394 . S
C270 C271 1.516 . S
C271 C270 1.516 . S
C271 C272 1.502 . S
C271 C273 1.561 . S
C271 C274 1.526 . S
C272 H256 0.959 . S
C272 H257 0.959 . S
C272 H258 0.961 . S
C272 C271 1.502 . S
C273 H259 0.960 . S
C273 H260 0.961 . S
C273 H261 0.959 . S
C273 C271 1.561 . S
C274 C271 1.526 . S
C274 C275 1.396 . S
C274 C279 1.390 . S
C275 C269 1.465 . S
C275 C274 1.396 . S
C275 C276 1.399 . S
C276 H262 0.929 . S
C276 C275 1.399 . S
C276 C277 1.385 . S
C277 H263 0.931 . S
C277 C276 1.385 . S
C277 C278 1.389 . S
C278 C277 1.389 . S
C278 C279 1.387 . S
C279 H264 0.930 . S
C279 C274 1.390 . S
C279 C278 1.387 . S
H280 C292 0.930 . S
H281 C294 0.930 . S
H282 C295 0.930 . S
H283 C299 0.959 . S
H284 C299 0.959 . S
H285 C299 0.961 . S
H286 C300 0.960 . S
H287 C300 0.961 . S
H288 C300 0.959 . S
H289 C303 0.929 . S
H290 C304 0.931 . S
H291 C306 0.930 . S
C292 H280 0.930 . S
C292 C293 1.399 . S
C292 C297 1.399 . S
C293 C292 1.399 . S
C293 C294 1.376 . S
C294 H281 0.930 . S
C294 C293 1.376 . S
C294 C295 1.388 . S
C295 H282 0.930 . S
C295 C294 1.388 . S
C295 C296 1.390 . S
C296 C295 1.390 . S
C296 C297 1.394 . S
C296 C302 1.465 . S
C297 C292 1.399 . S
C297 C296 1.394 . S
C297 C298 1.516 . S
C298 C297 1.516 . S
C298 C299 1.502 . S
C298 C300 1.561 . S
C298 C301 1.526 . S
C299 H283 0.959 . S
C299 H284 0.959 . S
C299 H285 0.961 . S
C299 C298 1.502 . S
C300 H286 0.960 . S
C300 H287 0.961 . S
C300 H288 0.959 . S
C300 C298 1.561 . S
C301 C298 1.526 . S
C301 C302 1.396 . S
C301 C306 1.390 . S
C302 C296 1.465 . S
C302 C301 1.396 . S
C302 C303 1.399 . S
C303 H289 0.929 . S
C303 C302 1.399 . S
C303 C304 1.385 . S
C304 H290 0.931 . S
C304 C303 1.385 . S
C304 C305 1.389 . S
C305 C304 1.389 . S
C305 C306 1.387 . S
C306 H291 0.930 . S
C306 C301 1.390 . S
C306 C305 1.387 . S
H307 C319 0.930 . S
H308 C321 0.930 . S
H309 C322 0.930 . S
H310 C326 0.959 . S
H311 C326 0.959 . S
H312 C326 0.961 . S
H313 C327 0.960 . S
H314 C327 0.961 . S
H315 C327 0.959 . S
H316 C330 0.929 . S
H317 C331 0.931 . S
H318 C333 0.930 . S
C319 H307 0.930 . S
C319 C320 1.399 . S
C319 C324 1.399 . S
C320 C319 1.399 . S
C320 C321 1.376 . S
C321 H308 0.930 . S
C321 C320 1.376 . S
C321 C322 1.388 . S
C322 H309 0.930 . S
C322 C321 1.388 . S
C322 C323 1.390 . S
C323 C322 1.390 . S
C323 C324 1.394 . S
C323 C329 1.465 . S
C324 C319 1.399 . S
C324 C323 1.394 . S
C324 C325 1.516 . S
C325 C324 1.516 . S
C325 C326 1.502 . S
C325 C327 1.561 . S
C325 C328 1.526 . S
C326 H310 0.959 . S
C326 H311 0.959 . S
C326 H312 0.961 . S
C326 C325 1.502 . S
C327 H313 0.960 . S
C327 H314 0.961 . S
C327 H315 0.959 . S
C327 C325 1.561 . S
C328 C325 1.526 . S
C328 C329 1.396 . S
C328 C333 1.390 . S
C329 C323 1.465 . S
C329 C328 1.396 . S
C329 C330 1.399 . S
C330 H316 0.929 . S
C330 C329 1.399 . S
C330 C331 1.385 . S
C331 H317 0.931 . S
C331 C330 1.385 . S
C331 C332 1.389 . S
C332 C331 1.389 . S
C332 C333 1.387 . S
C333 H318 0.930 . S
C333 C328 1.390 . S
C333 C332 1.387 . S
H334 C346 0.930 . S
H335 C348 0.930 . S
H336 C349 0.930 . S
H337 C353 0.959 1_545 S
H338 C353 0.959 . S
H339 C353 0.961 . S
H340 C354 0.960 . S
H341 C354 0.961 1_655 S
H342 C354 0.959 . S
H343 C357 0.929 . S
H344 C358 0.931 . S
H345 C360 0.930 . S
C346 H334 0.930 . S
C346 C347 1.399 . S
C346 C351 1.399 . S
C347 C346 1.399 . S
C347 C348 1.376 1_565 S
C348 H335 0.930 . S
C348 C347 1.376 1_545 S
C348 C349 1.388 . S
C349 H336 0.930 . S
C349 C348 1.388 . S
C349 C350 1.392 . S
C350 C349 1.392 . S
C350 C351 1.392 1_545 S
C350 C356 1.462 1_545 S
C351 C346 1.399 . S
C351 C350 1.392 1_565 S
C351 C352 1.516 . S
C352 C351 1.516 . S
C352 C353 1.502 1_455 S
C352 C354 1.561 . S
C352 C355 1.526 . S
C353 H337 0.959 1_565 S
C353 H338 0.959 . S
C353 H339 0.961 . S
C353 C352 1.502 1_655 S
C354 H340 0.960 . S
C354 H341 0.961 1_455 S
C354 H342 0.959 . S
C354 C352 1.561 . S
C355 C352 1.526 . S
C355 C356 1.402 . S
C355 C360 1.390 . S
C356 C350 1.462 1_565 S
C356 C355 1.402 . S
C356 C357 1.396 1_565 S
C357 H343 0.929 . S
C357 C356 1.396 1_545 S
C357 C358 1.385 . S
C358 H344 0.931 . S
C358 C357 1.385 . S
C358 C359 1.389 1_545 S
C359 C358 1.389 1_565 S
C359 C360 1.387 . S
C360 H345 0.930 . S
C360 C355 1.390 . S
C360 C359 1.387 . S
H361 C373 0.930 1_655 S
H362 C375 0.930 . S
H363 C376 0.930 . S
H364 C380 0.959 . S
H365 C380 0.959 . S
H366 C380 0.961 . S
H367 C381 0.960 . S
H368 C381 0.961 . S
H369 C381 0.959 . S
H370 C384 0.929 . S
H371 C385 0.931 . S
H372 C387 0.930 . S
C373 H361 0.930 1_455 S
C373 C374 1.399 . S
C373 C378 1.399 . S
C374 C373 1.399 . S
C374 C375 1.376 1_545 S
C375 H362 0.930 . S
C375 C374 1.376 1_565 S
C375 C376 1.388 . S
C376 H363 0.930 . S
C376 C375 1.388 . S
C376 C377 1.390 1_565 S
C377 C376 1.390 1_545 S
C377 C378 1.394 . S
C377 C383 1.465 . S
C378 C373 1.399 . S
C378 C377 1.394 . S
C378 C379 1.516 1_455 S
C379 C378 1.516 1_655 S
C379 C380 1.502 . S
C379 C381 1.561 1_655 S
C379 C382 1.526 . S
C380 H364 0.959 . S
C380 H365 0.959 . S
C380 H366 0.961 . S
C380 C379 1.502 . S
C381 H367 0.960 . S
C381 H368 0.961 . S
C381 H369 0.959 . S
C381 C379 1.561 1_455 S
C382 C379 1.526 . S
C382 C383 1.396 1_655 S
C382 C387 1.390 . S
C383 C377 1.465 . S
C383 C382 1.396 1_455 S
C383 C384 1.399 1_545 S
C384 H370 0.929 . S
C384 C383 1.399 1_565 S
C384 C385 1.385 . S
C385 H371 0.931 . S
C385 C384 1.385 . S
C385 C386 1.389 1_465 S
C386 C385 1.389 1_645 S
C386 C387 1.387 . S
C387 H372 0.930 . S
C387 C382 1.390 . S
C387 C386 1.387 . S
H388 C400 0.930 . S
H389 C402 0.930 . S
H390 C403 0.930 . S
H391 C407 0.959 . S
H392 C407 0.959 . S
H393 C407 0.961 . S
H394 C408 0.960 . S
H395 C408 0.961 . S
H396 C408 0.959 . S
H397 C411 0.929 . S
H398 C412 0.931 . S
H399 C414 0.930 . S
C400 H388 0.930 . S
C400 C401 1.399 . S
C400 C405 1.399 . S
C401 C400 1.399 . S
C401 C402 1.376 . S
C402 H389 0.930 . S
C402 C401 1.376 . S
C402 C403 1.388 . S
C403 H390 0.930 . S
C403 C402 1.388 . S
C403 C404 1.390 . S
C404 C403 1.390 . S
C404 C405 1.394 . S
C404 C410 1.465 . S
C405 C400 1.399 . S
C405 C404 1.394 . S
C405 C406 1.516 . S
C406 C405 1.516 . S
C406 C407 1.502 . S
C406 C408 1.561 . S
C406 C409 1.526 . S
C407 H391 0.959 . S
C407 H392 0.959 . S
C407 H393 0.961 . S
C407 C406 1.502 . S
C408 H394 0.960 . S
C408 H395 0.961 . S
C408 H396 0.959 . S
C408 C406 1.561 . S
C409 C406 1.526 . S
C409 C410 1.396 . S
C409 C414 1.390 . S
C410 C404 1.465 . S
C410 C409 1.396 . S
C410 C411 1.399 . S
C411 H397 0.929 . S
C411 C410 1.399 . S
C411 C412 1.385 . S
C412 H398 0.931 . S
C412 C411 1.385 . S
C412 C413 1.389 . S
C413 C412 1.389 . S
C413 C414 1.387 . S
C414 H399 0.930 . S
C414 C409 1.390 . S
C414 C413 1.387 . S
H415 C427 0.930 . S
H416 C429 0.930 . S
H417 C430 0.930 . S
H418 C434 0.959 . S
H419 C434 0.959 . S
H420 C434 0.961 . S
H421 C435 0.960 . S
H422 C435 0.961 . S
H423 C435 0.959 . S
H424 C438 0.929 . S
H425 C439 0.931 . S
H426 C441 0.930 . S
C427 H415 0.930 . S
C427 C428 1.399 . S
C427 C432 1.399 . S
C428 C427 1.399 . S
C428 C429 1.376 . S
C429 H416 0.930 . S
C429 C428 1.376 . S
C429 C430 1.388 . S
C430 H417 0.930 . S
C430 C429 1.388 . S
C430 C431 1.390 . S
C431 C430 1.390 . S
C431 C432 1.394 . S
C431 C437 1.465 . S
C432 C427 1.399 . S
C432 C431 1.394 . S
C432 C433 1.516 . S
C433 C432 1.516 . S
C433 C434 1.502 . S
C433 C435 1.561 . S
C433 C436 1.526 . S
C434 H418 0.959 . S
C434 H419 0.959 . S
C434 H420 0.961 . S
C434 C433 1.502 . S
C435 H421 0.960 . S
C435 H422 0.961 . S
C435 H423 0.959 . S
C435 C433 1.561 . S
C436 C433 1.526 . S
C436 C437 1.396 . S
C436 C441 1.390 . S
C437 C431 1.465 . S
C437 C436 1.396 . S
C437 C438 1.399 . S
C438 H424 0.929 . S
C438 C437 1.399 . S
C438 C439 1.385 . S
C439 H425 0.931 . S
C439 C438 1.385 . S
C439 C440 1.389 . S
C440 C439 1.389 . S
C440 C441 1.387 . S
C441 H426 0.930 . S
C441 C436 1.390 . S
C441 C440 1.387 . S
C143 C105 1.504 . S
C131 C16 1.407 . S
C158 C15 1.405 . S
C170 C91 1.392 . S
C185 C13 1.334 1_554 S
C197 C110 1.463 . S
C212 C14 1.501 . S
C224 C86 1.495 . S
C239 C37 1.392 . S
C251 C67 1.537 . S
C266 C36 1.459 . S
C278 C53 1.451 . S
C305 C72 1.466 . S
C293 C34 1.338 . S
C332 C48 1.528 . S
C320 C35 1.464 . S
C347 C17 1.606 1_565 S
C359 C44 1.653 . S
C374 C18 1.430 . S
C386 C63 1.409 . S
C413 C82 1.657 . S
C401 C38 1.600 . S
C428 C39 1.386 . S
C440 C101 1.440 . S
