# Generated by pormake.
# Topology nom, (4,4)-cn, num edge types: 1
# Building blocks:
#     Node 0, Type 0, BuildingBlock: KUFVIS_clean_linker_0, # of connection points: 4
#     Node 1, Type 0, BuildingBlock: KUFVIS_clean_linker_0, # of connection points: 4
#     Node 2, Type 0, BuildingBlock: KUFVIS_clean_linker_0, # of connection points: 4
#     Node 3, Type 0, BuildingBlock: KUFVIS_clean_linker_0, # of connection points: 4
#     Node 4, Type 0, BuildingBlock: KUFVIS_clean_linker_0, # of connection points: 4
#     Node 5, Type 0, BuildingBlock: KUFVIS_clean_linker_0, # of connection points: 4
#     Node 6, Type 1, BuildingBlock: UXUYUI_clean_sbu_0, # of connection points: 4
#     Node 7, Type 1, BuildingBlock: UXUYUI_clean_sbu_0, # of connection points: 4
#     Node 8, Type 1, BuildingBlock: UXUYUI_clean_sbu_0, # of connection points: 4
#     Node 9, Type 1, BuildingBlock: UXUYUI_clean_sbu_0, # of connection points: 4
#     Node 10, Type 1, BuildingBlock: UXUYUI_clean_sbu_0, # of connection points: 4
#     Node 11, Type 1, BuildingBlock: UXUYUI_clean_sbu_0, # of connection points: 4
#     Edge 12, Type (0, 1), BuildingBlock: UVAHIK_clean_linker_0, # of connection points: 2
#     Edge 13, Type (0, 1), BuildingBlock: UVAHIK_clean_linker_0, # of connection points: 2
#     Edge 14, Type (0, 1), BuildingBlock: UVAHIK_clean_linker_0, # of connection points: 2
#     Edge 15, Type (0, 1), BuildingBlock: UVAHIK_clean_linker_0, # of connection points: 2
#     Edge 16, Type (0, 1), BuildingBlock: UVAHIK_clean_linker_0, # of connection points: 2
#     Edge 17, Type (0, 1), BuildingBlock: UVAHIK_clean_linker_0, # of connection points: 2
#     Edge 18, Type (0, 1), BuildingBlock: UVAHIK_clean_linker_0, # of connection points: 2
#     Edge 19, Type (0, 1), BuildingBlock: UVAHIK_clean_linker_0, # of connection points: 2
#     Edge 20, Type (0, 1), BuildingBlock: UVAHIK_clean_linker_0, # of connection points: 2
#     Edge 21, Type (0, 1), BuildingBlock: UVAHIK_clean_linker_0, # of connection points: 2
#     Edge 22, Type (0, 1), BuildingBlock: UVAHIK_clean_linker_0, # of connection points: 2
#     Edge 23, Type (0, 1), BuildingBlock: UVAHIK_clean_linker_0, # of connection points: 2
#     Edge 24, Type (0, 1), BuildingBlock: UVAHIK_clean_linker_0, # of connection points: 2
#     Edge 25, Type (0, 1), BuildingBlock: UVAHIK_clean_linker_0, # of connection points: 2
#     Edge 26, Type (0, 1), BuildingBlock: UVAHIK_clean_linker_0, # of connection points: 2
#     Edge 27, Type (0, 1), BuildingBlock: UVAHIK_clean_linker_0, # of connection points: 2
#     Edge 28, Type (0, 1), BuildingBlock: UVAHIK_clean_linker_0, # of connection points: 2
#     Edge 29, Type (0, 1), BuildingBlock: UVAHIK_clean_linker_0, # of connection points: 2
#     Edge 30, Type (0, 1), BuildingBlock: UVAHIK_clean_linker_0, # of connection points: 2
#     Edge 31, Type (0, 1), BuildingBlock: UVAHIK_clean_linker_0, # of connection points: 2
#     Edge 32, Type (0, 1), BuildingBlock: UVAHIK_clean_linker_0, # of connection points: 2
#     Edge 33, Type (0, 1), BuildingBlock: UVAHIK_clean_linker_0, # of connection points: 2
#     Edge 34, Type (0, 1), BuildingBlock: UVAHIK_clean_linker_0, # of connection points: 2
#     Edge 35, Type (0, 1), BuildingBlock: UVAHIK_clean_linker_0, # of connection points: 2
# Relax obj value: 0.035
# Max RMSD: 0.147
# Mean RMSD: 0.094
data_MOF--net-nom--node1-UXUYUI_clean_sbu_0--node2-KUFVIS_clean_linker_0--edge1-UVAHIK_clean_linker_0
_symmetry_space_group_name_H-M    P1
_symmetry_Int_Tables_number       1
_symmetry_cell_setting            triclinic
loop_
_symmetry_equiv_pos_as_xyz
'x, y, z'
_cell_length_a     69.148697
_cell_length_b     69.144972
_cell_length_c     70.062868
_cell_angle_alpha  89.990633
_cell_angle_beta   89.979772
_cell_angle_gamma 119.98982
loop_
_atom_site_label
_atom_site_type_symbol
_atom_site_fract_x
_atom_site_fract_y
_atom_site_fract_z
_atom_type_partial_charge
H0 H 0.09563 0.58338 0.34172 0.0
H1 H 0.04312 0.55419 0.30024 0.0
H2 H 0.03133 0.53008 0.35854 0.0
H3 H 0.99756 0.52812 0.35166 0.0
H4 H 0.94763 0.48148 0.31356 0.0
H5 H 0.01612 0.51682 0.29551 0.0
C6 C 0.07839 0.57148 0.33819 0.0
C7 C 0.06419 0.55718 0.35234 0.0
C8 C 0.07102 0.57027 0.31942 0.0
C9 C 0.04884 0.55461 0.3147 0.0
C10 C 0.03402 0.54017 0.32884 0.0
C11 C 0.04214 0.54134 0.34757 0.0
C12 C 1.01005 0.52415 0.32432 0.0
C13 C 0.9933 0.5195 0.33807 0.0
C14 C 0.97089 0.50377 0.33436 0.0
C15 C 0.96508 0.49303 0.31666 0.0
C16 C 0.98119 0.49795 0.3025 0.0
C17 C 1.00368 0.51346 0.30637 0.0
H18 H 0.55618 0.0952 0.50294 0.0
H19 H 0.51237 0.04267 0.46517 0.0
H20 H 0.5243 0.0274 0.52242 0.0
H21 H 0.48796 0.99815 0.51746 0.0
H22 H 0.46696 0.94376 0.47811 0.0
H23 H 0.51373 0.01018 0.4597 0.0
C24 C 0.54542 0.07752 0.5001 0.0
C25 C 0.54126 0.06208 0.51466 0.0
C26 C 0.53515 0.07067 0.48226 0.0
C27 C 0.52054 0.04785 0.47892 0.0
C28 C 0.51665 0.03181 0.49319 0.0
C29 C 0.52691 0.03925 0.51121 0.0
C30 C 0.50253 0.00741 0.48907 0.0
C31 C 0.48892 0.99223 0.50337 0.0
C32 C 0.47601 0.96932 0.49935 0.0
C33 C 0.47689 0.96148 0.48116 0.0
C34 C 0.49036 0.97614 0.46687 0.0
C35 C 0.50301 0.99905 0.47078 0.0
H36 H 0.55404 0.47414 0.64706 0.0
H37 H 0.51805 0.49163 0.68667 0.0
H38 H 0.52638 0.51408 0.62794 0.0
H39 H 0.49275 0.51197 0.63467 0.0
H40 H 0.48426 0.55625 0.67204 0.0
H41 H 0.52266 0.52681 0.69096 0.0
C42 C 0.54477 0.48265 0.65004 0.0
C43 C 0.54074 0.49388 0.63537 0.0
C44 C 0.53666 0.48185 0.66845 0.0
C45 C 0.52439 0.49255 0.67237 0.0
C46 C 0.52057 0.50451 0.65787 0.0
C47 C 0.52867 0.50477 0.63928 0.0
C48 C 0.50927 0.51767 0.66221 0.0
C49 C 0.49609 0.52051 0.64826 0.0
C50 C 0.48747 0.53478 0.65165 0.0
C51 C 0.49137 0.54565 0.66924 0.0
C52 C 0.50357 0.54241 0.68354 0.0
C53 C 0.51255 0.5285 0.68001 0.0
H54 H 0.09869 0.53025 0.81106 0.0
H55 H 0.04859 0.51043 0.85451 0.0
H56 H 0.03237 0.51443 0.79551 0.0
H57 H 0.99977 0.48113 0.80631 0.0
H58 H 0.95162 0.47785 0.84662 0.0
H59 H 0.02138 0.52135 0.8576 0.0
C60 C 0.08154 0.52467 0.81513 0.0
C61 C 0.06617 0.52249 0.80113 0.0
C62 C 0.07542 0.52074 0.83437 0.0
C63 C 0.05334 0.51399 0.83964 0.0
C64 C 0.03736 0.51111 0.82567 0.0
C65 C 0.04415 0.51589 0.80641 0.0
C66 C 0.01359 0.50263 0.83112 0.0
C67 C 0.99609 0.48702 0.81939 0.0
C68 C 0.97375 0.47798 0.82507 0.0
C69 C 0.9689 0.48506 0.8422 0.0
C70 C 0.98589 0.50063 0.854 0.0
C71 C 1.00824 0.5093 0.84846 0.0
H72 H 0.52683 0.95077 0.00481 0.0
H73 H 0.54439 1.00195 0.96293 0.0
H74 H 0.53689 0.01455 0.02229 0.0
H75 H 0.56478 0.04967 0.01382 0.0
H76 H 0.56256 0.09574 0.97428 0.0
H77 H 0.53252 0.02668 0.95894 0.0
C78 C 0.53155 0.96787 0.00134 0.0
C79 C 0.5322 0.98214 0.01579 0.0
C80 C 0.53546 0.97478 0.98229 0.0
C81 C 0.54083 0.99667 0.97768 0.0
C82 C 0.54187 0.01158 0.99203 0.0
C83 C 0.53706 1.00385 0.01108 0.0
C84 C 0.54757 0.03496 0.98715 0.0
C85 C 0.55926 0.05265 0.00024 0.0
C86 C 0.56404 0.07442 0.99582 0.0
C87 C 0.55784 0.07871 0.97801 0.0
C88 C 0.54701 0.0617 0.96451 0.0
C89 C 0.54157 0.03982 0.96925 0.0
H90 H 0.49033 0.56274 0.14427 0.0
H91 H 0.53669 0.5602 0.18313 0.0
H92 H 0.52954 0.53392 0.12583 0.0
H93 H 0.56548 0.54349 0.13084 0.0
H94 H 0.59643 0.52172 0.17189 0.0
H95 H 0.54252 0.53127 0.18953 0.0
C96 C 0.50242 0.55753 0.14736 0.0
C97 C 0.50907 0.54811 0.13291 0.0
C98 C 0.51221 0.56171 0.16544 0.0
C99 C 0.52875 0.55614 0.16925 0.0
C100 C 0.53502 0.54559 0.15522 0.0
C101 C 0.5251 0.54186 0.13695 0.0
C102 C 0.55195 0.53871 0.15966 0.0
C103 C 0.56634 0.53855 0.14534 0.0
C104 C 0.5824 0.53246 0.14975 0.0
C105 C 0.58433 0.52685 0.16855 0.0
C106 C 0.5702 0.52663 0.18291 0.0
C107 C 0.55378 0.53214 0.17839 0.0
Li108 Li 0.6447 0.39999 0.42552 0.0
Li109 Li 0.63785 0.3657 0.40968 0.0
Li110 Li 0.67506 0.40178 0.40696 0.0
Li111 Li 0.64173 0.39743 0.3902 0.0
C112 C 0.66096 0.3832 0.44934 0.0
N113 N 0.66105 0.38464 0.48874 0.0
C114 C 0.64388 0.36576 0.4597 0.0
C115 C 0.6782 0.40128 0.459 0.0
C116 C 0.6442 0.36682 0.47962 0.0
C117 C 0.67792 0.40173 0.47892 0.0
C118 C 0.59737 0.36501 0.40323 0.0
C119 C 0.57255 0.34175 0.37834 0.0
N120 N 0.55481 0.33593 0.39008 0.0
C121 C 0.57887 0.35898 0.41499 0.0
C122 C 0.59417 0.35647 0.38472 0.0
C123 C 0.5575 0.34418 0.40811 0.0
C124 C 0.64794 0.43326 0.4513 0.0
N125 N 0.63651 0.4111 0.44713 0.0
C126 C 0.61009 0.40449 0.47187 0.0
C127 C 0.61806 0.39667 0.4572 0.0
C128 C 0.62133 0.42737 0.47626 0.0
C129 C 0.64071 0.44178 0.46598 0.0
H130 H 0.66231 0.44446 0.44291 0.0
H131 H 0.60931 0.37912 0.4536 0.0
C132 C 0.63426 0.32341 0.40445 0.0
N133 N 0.6238 0.33396 0.4118 0.0
C134 C 0.62459 0.30025 0.40612 0.0
C135 C 0.59372 0.29928 0.42312 0.0
C136 C 0.60397 0.32243 0.4211 0.0
C137 C 0.60406 0.28785 0.41563 0.0
H138 H 0.65022 0.33303 0.3974 0.0
H139 H 0.59622 0.33123 0.42722 0.0
C140 C 0.68088 0.44366 0.40385 0.0
N141 N 0.71721 0.4859 0.39862 0.0
C142 C 0.68302 0.45545 0.38703 0.0
C143 C 0.69713 0.45344 0.41807 0.0
C144 C 0.70153 0.47677 0.38465 0.0
C145 C 0.7154 0.47478 0.41514 0.0
C146 C 0.65829 0.3728 0.36877 0.0
C147 C 0.67712 0.38565 0.35748 0.0
C148 C 0.64117 0.35247 0.36175 0.0
C149 C 0.67826 0.37826 0.33918 0.0
C150 C 0.64294 0.34563 0.34338 0.0
N151 N 0.66128 0.35858 0.33256 0.0
C152 C 0.71723 0.40712 0.41718 0.0
C153 C 0.71839 0.42976 0.39132 0.0
C154 C 0.74033 0.41589 0.41602 0.0
N155 N 0.70677 0.41419 0.40495 0.0
C156 C 0.74149 0.43918 0.38983 0.0
C157 C 0.75276 0.43223 0.40226 0.0
H158 H 0.7076 0.39461 0.42781 0.0
H159 H 0.70973 0.43489 0.38154 0.0
C160 C 0.61388 0.41008 0.3717 0.0
N161 N 0.63141 0.40671 0.36874 0.0
C162 C 0.60657 0.41871 0.35717 0.0
C163 C 0.6356 0.42041 0.33681 0.0
C164 C 0.64224 0.41159 0.35169 0.0
C165 C 0.61768 0.42429 0.33953 0.0
H166 H 0.60591 0.40659 0.38554 0.0
H167 H 0.6565 0.40941 0.34982 0.0
O168 O 0.66063 0.38273 0.42983 0.0
O169 O 0.61844 0.37939 0.40982 0.0
O170 O 0.66294 0.42268 0.40634 0.0
O171 O 0.65706 0.37967 0.38686 0.0
H172 H 0.6304 0.35167 0.45244 0.0
H173 H 0.69163 0.41483 0.45119 0.0
H174 H 0.63101 0.3535 0.48783 0.0
H175 H 0.6911 0.41566 0.48659 0.0
H176 H 0.56986 0.33502 0.36403 0.0
H177 H 0.58097 0.36558 0.4293 0.0
H178 H 0.60818 0.36143 0.37527 0.0
H179 H 0.54305 0.33929 0.4171 0.0
H180 H 0.59523 0.39281 0.47962 0.0
H181 H 0.64971 0.45956 0.46879 0.0
H182 H 0.63337 0.29222 0.40042 0.0
H183 H 0.57784 0.29044 0.43048 0.0
H184 H 0.67056 0.44825 0.37593 0.0
H185 H 0.6958 0.44455 0.43114 0.0
H186 H 0.70342 0.48605 0.37168 0.0
H187 H 0.72817 0.48247 0.42598 0.0
H188 H 0.69062 0.40128 0.36267 0.0
H189 H 0.62673 0.34192 0.37039 0.0
H190 H 0.69267 0.38816 0.33025 0.0
H191 H 0.62977 0.32998 0.33777 0.0
H192 H 0.74842 0.41011 0.42589 0.0
H193 H 0.7504 0.45147 0.37881 0.0
H194 H 0.59292 0.42177 0.35996 0.0
H195 H 0.64457 0.42442 0.3234 0.0
Li196 Li 0.26691 0.643 0.59386 0.0
Li197 Li 0.29502 0.63692 0.57739 0.0
Li198 Li 0.29467 0.67306 0.57435 0.0
Li199 Li 0.26629 0.63936 0.55801 0.0
C200 C 0.30281 0.66149 0.61678 0.0
N201 N 0.30789 0.66505 0.65597 0.0
C202 C 0.31087 0.64932 0.62652 0.0
C203 C 0.29759 0.67567 0.62695 0.0
C204 C 0.31326 0.6513 0.64634 0.0
C205 C 0.30018 0.67718 0.64676 0.0
C206 C 0.25456 0.59482 0.57756 0.0
C207 C 0.24565 0.56125 0.56017 0.0
N208 N 0.23904 0.54941 0.57672 0.0
C209 C 0.24737 0.58223 0.59435 0.0
C210 C 0.25343 0.58419 0.56029 0.0
C211 C 0.23971 0.55934 0.59365 0.0
C212 C 0.22954 0.63804 0.61389 0.0
N213 N 0.24737 0.63486 0.61533 0.0
C214 C 0.23457 0.6171 0.64565 0.0
C215 C 0.25014 0.62464 0.63081 0.0
C216 C 0.21579 0.61983 0.64442 0.0
C217 C 0.21348 0.63064 0.62834 0.0
H218 H 0.2275 0.64587 0.6013 0.0
H219 H 0.26409 0.62172 0.63141 0.0
C220 C 0.33298 0.63267 0.56952 0.0
N221 N 0.31343 0.6235 0.57938 0.0
C222 C 0.34694 0.6235 0.57083 0.0
C223 C 0.32058 0.59579 0.59264 0.0
C224 C 0.30717 0.60552 0.59092 0.0
C225 C 0.3408 0.60478 0.58252 0.0
H226 H 0.33779 0.6472 0.56067 0.0
H227 H 0.29202 0.59902 0.59918 0.0
C228 C 0.25954 0.67881 0.57161 0.0
N229 N 0.25603 0.71656 0.56648 0.0
C230 C 0.25535 0.6843 0.55347 0.0
C231 C 0.26164 0.69235 0.58718 0.0
C232 C 0.25371 0.70349 0.55116 0.0
C233 C 0.2599 0.71142 0.58428 0.0
C234 C 0.30427 0.65142 0.53608 0.0
C235 C 0.31255 0.6683 0.52229 0.0
C236 C 0.30135 0.63047 0.53147 0.0
C237 C 0.31734 0.66378 0.50401 0.0
C238 C 0.30635 0.6266 0.51304 0.0
N239 N 0.31414 0.64318 0.49979 0.0
C240 C 0.32598 0.71713 0.58674 0.0
C241 C 0.31211 0.71471 0.55541 0.0
C242 C 0.33906 0.74035 0.5852 0.0
N243 N 0.31279 0.70484 0.57199 0.0
C244 C 0.32493 0.73785 0.55324 0.0
C245 C 0.33866 0.75106 0.56826 0.0
H246 H 0.32639 0.70892 0.59972 0.0
H247 H 0.30156 0.70459 0.54386 0.0
C248 C 0.2259 0.60939 0.54066 0.0
N249 N 0.24617 0.62757 0.53699 0.0
C250 C 0.20949 0.60063 0.52654 0.0
C251 C 0.23499 0.6296 0.50512 0.0
C252 C 0.25099 0.6377 0.51963 0.0
C253 C 0.21384 0.61091 0.50855 0.0
H254 H 0.22229 0.60201 0.55474 0.0
H255 H 0.26697 0.65248 0.5172 0.0
O256 O 0.30025 0.65968 0.59738 0.0
O257 O 0.26205 0.61727 0.57801 0.0
O258 O 0.26158 0.66029 0.57411 0.0
O259 O 0.29935 0.65554 0.55402 0.0
H260 H 0.31521 0.63845 0.61888 0.0
H261 H 0.29149 0.68533 0.61963 0.0
H262 H 0.3194 0.64191 0.65407 0.0
H263 H 0.29608 0.68799 0.65481 0.0
H264 H 0.24475 0.55285 0.54689 0.0
H265 H 0.24789 0.59008 0.60782 0.0
H266 H 0.2582 0.59344 0.54705 0.0
H267 H 0.23429 0.54946 0.60657 0.0
H268 H 0.23681 0.60851 0.65763 0.0
H269 H 0.19932 0.63319 0.62687 0.0
H270 H 0.36233 0.63094 0.56271 0.0
H271 H 0.31543 0.58173 0.60218 0.0
H272 H 0.25363 0.67398 0.54127 0.0
H273 H 0.26459 0.6882 0.60135 0.0
H274 H 0.25063 0.70803 0.53717 0.0
H275 H 0.26162 0.72211 0.5962 0.0
H276 H 0.31517 0.6847 0.52563 0.0
H277 H 0.29554 0.61741 0.54207 0.0
H278 H 0.32362 0.67665 0.49317 0.0
H279 H 0.30412 0.61043 0.5093 0.0
H280 H 0.3492 0.74981 0.59724 0.0
H281 H 0.32432 0.74524 0.53979 0.0
H282 H 0.19329 0.58645 0.5299 0.0
H283 H 0.23903 0.638 0.49143 0.0
Li284 Li 0.67564 0.2866 0.74481 0.0
Li285 Li 0.63989 0.25771 0.75775 0.0
Li286 Li 0.64713 0.26163 0.72328 0.0
Li287 Li 0.6414 0.2891 0.73972 0.0
C288 C 0.67815 0.24795 0.7451 0.0
N289 N 0.7112 0.23689 0.74937 0.0
C290 C 0.67698 0.23393 0.75998 0.0
C291 C 0.69615 0.25633 0.7324 0.0
C292 C 0.69385 0.22853 0.7619 0.0
C293 C 0.71268 0.25055 0.73479 0.0
C294 C 0.66698 0.29475 0.78189 0.0
C295 C 0.68306 0.31902 0.80908 0.0
N296 N 0.68882 0.30447 0.81662 0.0
C297 C 0.67304 0.28005 0.78992 0.0
C298 C 0.672 0.3144 0.79155 0.0
C299 C 0.68407 0.28525 0.80748 0.0
C300 C 0.71875 0.32445 0.74087 0.0
N301 N 0.70721 0.3043 0.74971 0.0
C302 C 0.74029 0.31046 0.76587 0.0
C303 C 0.71753 0.29722 0.76209 0.0
C304 C 0.75265 0.33152 0.75718 0.0
C305 C 0.74156 0.33839 0.74441 0.0
H306 H 0.71014 0.32986 0.73126 0.0
H307 H 0.70818 0.28128 0.76912 0.0
C308 C 0.61686 0.21426 0.77094 0.0
N309 N 0.62434 0.23557 0.77675 0.0
C310 C 0.60581 0.19654 0.78367 0.0
C311 C 0.60972 0.22297 0.80807 0.0
C312 C 0.62056 0.2402 0.79477 0.0
C313 C 0.60242 0.20076 0.80264 0.0
H314 H 0.61975 0.21109 0.75639 0.0
H315 H 0.62621 0.25727 0.79892 0.0
C316 C 0.6683 0.29591 0.70194 0.0
N317 N 0.6731 0.29635 0.66278 0.0
C318 C 0.65158 0.29478 0.69002 0.0
C319 C 0.68756 0.29747 0.69397 0.0
C320 C 0.65429 0.29496 0.67024 0.0
C321 C 0.68965 0.29762 0.67413 0.0
C322 C 0.59968 0.25171 0.74472 0.0
C323 C 0.57983 0.23521 0.73651 0.0
C324 C 0.59886 0.26275 0.76117 0.0
C325 C 0.55944 0.23009 0.74483 0.0
C326 C 0.57815 0.25714 0.76906 0.0
N327 N 0.55904 0.24107 0.76079 0.0
C328 C 0.65378 0.23679 0.694 0.0
C329 C 0.61984 0.23731 0.69232 0.0
C330 C 0.64719 0.22169 0.67886 0.0
N331 N 0.64 0.24401 0.70059 0.0
C332 C 0.61255 0.2222 0.67713 0.0
C333 C 0.62614 0.21387 0.67042 0.0
H334 H 0.66963 0.2422 0.70079 0.0
H335 H 0.60923 0.24337 0.6978 0.0
C336 C 0.63912 0.32808 0.74758 0.0
N337 N 0.6295 0.30868 0.73755 0.0
C338 C 0.6309 0.34283 0.74612 0.0
C339 C 0.60306 0.31739 0.72391 0.0
C340 C 0.61175 0.30309 0.72589 0.0
C341 C 0.61268 0.33766 0.73406 0.0
H342 H 0.65329 0.33216 0.75664 0.0
H343 H 0.60447 0.28759 0.71799 0.0
O344 O 0.66182 0.25351 0.74312 0.0
O345 O 0.65634 0.29009 0.7646 0.0
O346 O 0.66563 0.29506 0.72131 0.0
O347 O 0.61974 0.25675 0.73676 0.0
H348 H 0.66326 0.22734 0.77001 0.0
H349 H 0.6976 0.26756 0.72105 0.0
H350 H 0.69316 0.21773 0.77337 0.0
H351 H 0.72676 0.25704 0.72512 0.0
H352 H 0.68707 0.33418 0.8167 0.0
H353 H 0.66935 0.26481 0.78266 0.0
H354 H 0.66745 0.32599 0.78559 0.0
H355 H 0.68889 0.27401 0.81381 0.0
H356 H 0.74807 0.30419 0.77556 0.0
H357 H 0.75024 0.3546 0.73758 0.0
H358 H 0.60002 0.1797 0.77867 0.0
H359 H 0.60761 0.22709 0.82253 0.0
H360 H 0.63653 0.29347 0.69597 0.0
H361 H 0.70073 0.29852 0.703 0.0
H362 H 0.6414 0.29393 0.66084 0.0
H363 H 0.70442 0.29873 0.66776 0.0
H364 H 0.58016 0.2264 0.72386 0.0
H365 H 0.614 0.27549 0.76781 0.0
H366 H 0.54395 0.21736 0.73861 0.0
H367 H 0.57728 0.26556 0.78176 0.0
H368 H 0.65814 0.21559 0.67431 0.0
H369 H 0.59636 0.21692 0.67085 0.0
H370 H 0.63872 0.35808 0.75441 0.0
H371 H 0.58926 0.31282 0.7142 0.0
Li372 Li 0.40246 0.64202 0.92594 0.0
Li373 Li 0.40862 0.67625 0.91049 0.0
Li374 Li 0.37395 0.64042 0.90678 0.0
Li375 Li 0.40703 0.64487 0.89102 0.0
C376 C 0.38363 0.65545 0.94954 0.0
N377 N 0.37998 0.64856 0.98855 0.0
C378 C 0.39713 0.67284 0.96195 0.0
C379 C 0.36806 0.63463 0.957 0.0
C380 C 0.39509 0.66901 0.98162 0.0
C381 C 0.36652 0.63145 0.97675 0.0
C382 C 0.44922 0.67801 0.90348 0.0
C383 C 0.47159 0.70458 0.8792 0.0
N384 N 0.49036 0.7069 0.88763 0.0
C385 C 0.4687 0.68064 0.91189 0.0
C386 C 0.45064 0.69005 0.88699 0.0
C387 C 0.48935 0.69534 0.90367 0.0
C388 C 0.39919 0.60882 0.95162 0.0
N389 N 0.41082 0.63097 0.94744 0.0
C390 C 0.43762 0.63721 0.97168 0.0
C391 C 0.42958 0.64523 0.95722 0.0
C392 C 0.42619 0.6143 0.97608 0.0
C393 C 0.40652 0.60011 0.96606 0.0
H394 H 0.38456 0.59781 0.94341 0.0
H395 H 0.43856 0.66276 0.95347 0.0
C396 C 0.41978 0.72009 0.89864 0.0
N397 N 0.42332 0.70811 0.91218 0.0
C398 C 0.4306 0.74338 0.89978 0.0
C399 C 0.44891 0.74164 0.92855 0.0
C400 C 0.43788 0.71841 0.92675 0.0
C401 C 0.44527 0.75452 0.915 0.0
H402 H 0.40873 0.71161 0.88682 0.0
H403 H 0.44095 0.70854 0.93699 0.0
C404 C 0.36772 0.59959 0.90029 0.0
N405 N 0.33165 0.56008 0.88775 0.0
C406 C 0.3666 0.59287 0.8813 0.0
C407 C 0.35053 0.58609 0.91292 0.0
C408 C 0.34823 0.57286 0.87524 0.0
C409 C 0.33242 0.56623 0.90629 0.0
C410 C 0.37604 0.6635 0.87593 0.0
C411 C 0.36987 0.65348 0.85795 0.0
C412 C 0.36505 0.67403 0.88364 0.0
C413 C 0.35269 0.65411 0.84799 0.0
C414 C 0.34794 0.67427 0.87324 0.0
N415 N 0.34216 0.66439 0.85578 0.0
C416 C 0.33023 0.63015 0.91821 0.0
C417 C 0.33148 0.61517 0.88817 0.0
C418 C 0.30704 0.62052 0.91688 0.0
N419 N 0.34194 0.62713 0.90406 0.0
C420 C 0.30838 0.60534 0.88621 0.0
C421 C 0.29576 0.60779 0.90074 0.0
H422 H 0.33886 0.64004 0.93057 0.0
H423 H 0.34107 0.61329 0.87691 0.0
C424 C 0.42827 0.62371 0.87528 0.0
N425 N 0.42082 0.63798 0.87079 0.0
C426 C 0.43874 0.61754 0.86152 0.0
C427 C 0.43399 0.64115 0.83878 0.0
C428 C 0.42363 0.64692 0.85304 0.0
C429 C 0.44162 0.62616 0.84292 0.0
H430 H 0.42602 0.61712 0.88962 0.0
H431 H 0.41787 0.65853 0.84997 0.0
O432 O 0.38576 0.65867 0.9302 0.0
O433 O 0.42891 0.66366 0.9114 0.0
O434 O 0.38559 0.61916 0.9065 0.0
O435 O 0.39256 0.66274 0.88605 0.0
H436 H 0.40905 0.68912 0.95648 0.0
H437 H 0.35744 0.62101 0.94762 0.0
H438 H 0.40552 0.6823 0.99138 0.0
H439 H 0.35467 0.61537 0.98269 0.0
H440 H 0.47294 0.714 0.86645 0.0
H441 H 0.46787 0.67141 0.92464 0.0
H442 H 0.43575 0.68824 0.88026 0.0
H443 H 0.50458 0.69755 0.91003 0.0
H444 H 0.45274 0.64874 0.97919 0.0
H445 H 0.39735 0.58232 0.96886 0.0
H446 H 0.42765 0.75253 0.88872 0.0
H447 H 0.4599 0.74934 0.94061 0.0
H448 H 0.37958 0.60308 0.87125 0.0
H449 H 0.35101 0.59096 0.92763 0.0
H450 H 0.34711 0.56754 0.86057 0.0
H451 H 0.31894 0.55573 0.91588 0.0
H452 H 0.378 0.645 0.85188 0.0
H453 H 0.36949 0.68167 0.89763 0.0
H454 H 0.34765 0.64632 0.83411 0.0
H455 H 0.33919 0.68224 0.87908 0.0
H456 H 0.29804 0.62281 0.9285 0.0
H457 H 0.30056 0.59614 0.87329 0.0
H458 H 0.4447 0.60628 0.86548 0.0
H459 H 0.4357 0.64809 0.82462 0.0
Li460 Li 0.75737 0.40985 0.07676 0.0
Li461 Li 0.78476 0.40287 0.09321 0.0
Li462 Li 0.78609 0.40907 0.05767 0.0
Li463 Li 0.75668 0.37365 0.07173 0.0
C464 C 0.79193 0.44964 0.08384 0.0
N465 N 0.79411 0.48921 0.09424 0.0
C466 C 0.79462 0.45607 0.10301 0.0
C467 C 0.79058 0.46341 0.06994 0.0
C468 C 0.79565 0.47614 0.10798 0.0
C469 C 0.79163 0.48332 0.0755 0.0
C470 C 0.74477 0.37373 0.11232 0.0
C471 C 0.74176 0.34356 0.13177 0.0
N472 N 0.73118 0.34876 0.14547 0.0
C473 C 0.73376 0.37871 0.12654 0.0
C474 C 0.74873 0.35596 0.1149 0.0
C475 C 0.72705 0.36591 0.14322 0.0
C476 C 0.72836 0.42531 0.06413 0.0
N477 N 0.73934 0.42355 0.07954 0.0
C478 C 0.72559 0.44239 0.09914 0.0
C479 C 0.73801 0.43164 0.09688 0.0
C480 C 0.71425 0.44469 0.08343 0.0
C481 C 0.71567 0.43586 0.06576 0.0
H482 H 0.72949 0.41859 0.05054 0.0
H483 H 0.74674 0.42986 0.10894 0.0
C484 C 0.82633 0.41909 0.10924 0.0
N485 N 0.80445 0.40924 0.11429 0.0
C486 C 0.84281 0.42497 0.12312 0.0
C487 C 0.81395 0.41033 0.14724 0.0
C488 C 0.798 0.4049 0.13287 0.0
C489 C 0.8367 0.42057 0.14242 0.0
H490 H 0.83095 0.42238 0.09434 0.0
H491 H 0.78059 0.39742 0.13664 0.0
C492 C 0.75207 0.39396 0.03317 0.0
N493 N 0.75019 0.39577 0.99387 0.0
C494 C 0.74435 0.37451 0.02233 0.0
C495 C 0.75867 0.41431 0.02404 0.0
C496 C 0.74356 0.37578 0.00247 0.0
C497 C 0.75765 0.41488 0.00415 0.0
C498 C 0.79819 0.3726 0.0719 0.0
C499 C 0.80528 0.36804 0.05466 0.0
C500 C 0.80074 0.36342 0.08884 0.0
C501 C 0.81435 0.35397 0.05459 0.0
C502 C 0.80992 0.34945 0.08819 0.0
N503 N 0.81645 0.34502 0.07121 0.0
C504 C 0.82514 0.44311 0.04132 0.0
C505 C 0.80588 0.41197 0.02084 0.0
C506 C 0.84245 0.45366 0.02811 0.0
N507 N 0.80736 0.42263 0.03754 0.0
C508 C 0.82269 0.42201 0.0071 0.0
C509 C 0.84149 0.44307 0.01072 0.0
H510 H 0.82617 0.45106 0.05487 0.0
H511 H 0.79185 0.39549 0.01828 0.0
C512 C 0.71725 0.332 0.07623 0.0
N513 N 0.73777 0.34212 0.06791 0.0
C514 C 0.70263 0.30915 0.07374 0.0
C515 C 0.73033 0.3075 0.05389 0.0
C516 C 0.74444 0.33039 0.05682 0.0
C517 C 0.70905 0.29654 0.06236 0.0
H518 H 0.71219 0.34173 0.08478 0.0
H519 H 0.76052 0.33884 0.04989 0.0
O520 O 0.79042 0.42986 0.07874 0.0
O521 O 0.75153 0.38619 0.09596 0.0
O522 O 0.75298 0.39304 0.05263 0.0
O523 O 0.78949 0.38655 0.07224 0.0
H524 H 0.79566 0.44557 0.11394 0.0
H525 H 0.78858 0.45868 0.05504 0.0
H526 H 0.79759 0.48127 0.12277 0.0
H527 H 0.79046 0.49408 0.06491 0.0
H528 H 0.74473 0.32977 0.13395 0.0
H529 H 0.73047 0.39234 0.12474 0.0
H530 H 0.75694 0.35169 0.10395 0.0
H531 H 0.71858 0.36962 0.15438 0.0
H532 H 0.72469 0.44861 0.1131 0.0
H533 H 0.70735 0.43738 0.05323 0.0
H534 H 0.86013 0.43266 0.11877 0.0
H535 H 0.80857 0.40694 0.16198 0.0
H536 H 0.73905 0.35861 0.02917 0.0
H537 H 0.76472 0.42952 0.03222 0.0
H538 H 0.73768 0.36087 0.9939 0.0
H539 H 0.76283 0.43053 0.99689 0.0
H540 H 0.80358 0.37511 0.04144 0.0
H541 H 0.79588 0.36716 0.1024 0.0
H542 H 0.81974 0.35016 0.04132 0.0
H543 H 0.81192 0.34218 0.10118 0.0
H544 H 0.85673 0.46964 0.03177 0.0
H545 H 0.82099 0.41327 0.99383 0.0
H546 H 0.6865 0.30145 0.0807 0.0
H547 H 0.73584 0.29863 0.04466 0.0
Li548 Li 0.40235 0.77901 0.25684 0.0
Li549 Li 0.36778 0.75238 0.2405 0.0
Li550 Li 0.40315 0.7498 0.23867 0.0
Li551 Li 0.40071 0.77948 0.22146 0.0
C552 C 0.38291 0.74621 0.2806 0.0
N553 N 0.38162 0.74806 0.31993 0.0
C554 C 0.36485 0.74612 0.28965 0.0
C555 C 0.40023 0.74708 0.29152 0.0
C556 C 0.36453 0.7471 0.30956 0.0
C557 C 0.39929 0.74806 0.3114 0.0
C558 C 0.37116 0.79497 0.23312 0.0
C559 C 0.34997 0.79885 0.20758 0.0
N560 N 0.34779 0.8142 0.21808 0.0
C561 C 0.3689 0.81094 0.24359 0.0
C562 C 0.36177 0.789 0.21492 0.0
C563 C 0.35695 0.8204 0.23576 0.0
C564 C 0.43511 0.80778 0.28363 0.0
N565 N 0.41328 0.79819 0.27847 0.0
C566 C 0.40674 0.81902 0.30226 0.0
C567 C 0.39903 0.80324 0.2876 0.0
C568 C 0.4293 0.82953 0.30764 0.0
C569 C 0.44348 0.82347 0.29837 0.0
H570 H 0.44617 0.80374 0.27598 0.0
H571 H 0.38174 0.79531 0.28322 0.0
C572 C 0.32576 0.71285 0.24123 0.0
N573 N 0.33588 0.73546 0.24255 0.0
C574 C 0.30267 0.69962 0.24385 0.0
C575 C 0.30078 0.73321 0.24863 0.0
C576 C 0.32388 0.74573 0.24621 0.0
C577 C 0.28982 0.70976 0.24779 0.0
H578 H 0.33573 0.70507 0.23854 0.0
H579 H 0.33219 0.76363 0.24764 0.0
C580 C 0.4455 0.78402 0.23585 0.0
N581 N 0.48637 0.78657 0.23095 0.0
C582 C 0.45743 0.79248 0.21887 0.0
C583 C 0.45446 0.77703 0.25039 0.0
C584 C 0.47805 0.79361 0.21666 0.0
C585 C 0.47511 0.77839 0.24762 0.0
C586 C 0.37369 0.73786 0.20039 0.0
C587 C 0.38576 0.73165 0.18832 0.0
C588 C 0.35278 0.73423 0.19459 0.0
C589 C 0.37701 0.72249 0.17046 0.0
C590 C 0.34459 0.72501 0.17662 0.0
N591 N 0.35679 0.71941 0.16501 0.0
C592 C 0.4085 0.71319 0.25019 0.0
C593 C 0.4289 0.73232 0.22259 0.0
C594 C 0.41688 0.69851 0.24914 0.0
N595 N 0.41464 0.7297 0.23702 0.0
C596 C 0.43783 0.71821 0.22111 0.0
C597 C 0.43183 0.70099 0.23447 0.0
H598 H 0.39707 0.7114 0.2615 0.0
H599 H 0.43344 0.74545 0.21221 0.0
C600 C 0.41658 0.82078 0.20373 0.0
N601 N 0.41108 0.7993 0.20014 0.0
C602 C 0.42579 0.83692 0.1894 0.0
C603 C 0.42391 0.80865 0.16796 0.0
C604 C 0.4145 0.79298 0.18267 0.0
C605 C 0.42981 0.83097 0.1713 0.0
H606 H 0.41426 0.8255 0.21789 0.0
H607 H 0.41056 0.776 0.18027 0.0
O608 O 0.38382 0.74588 0.26113 0.0
O609 O 0.38288 0.78559 0.24057 0.0
O610 O 0.42519 0.78261 0.23818 0.0
O611 O 0.38182 0.74647 0.21811 0.0
H612 H 0.35136 0.74555 0.28139 0.0
H613 H 0.4143 0.74713 0.28472 0.0
H614 H 0.35072 0.74717 0.31677 0.0
H615 H 0.41263 0.74885 0.32004 0.0
H616 H 0.34263 0.79437 0.19349 0.0
H617 H 0.3763 0.816 0.2576 0.0
H618 H 0.36389 0.77718 0.20643 0.0
H619 H 0.35499 0.83271 0.24374 0.0
H620 H 0.39522 0.82306 0.30923 0.0
H621 H 0.46103 0.83135 0.302 0.0
H622 H 0.29514 0.68163 0.24336 0.0
H623 H 0.29168 0.74191 0.25133 0.0
H624 H 0.45083 0.79807 0.2075 0.0
H625 H 0.4454 0.77031 0.26357 0.0
H626 H 0.48742 0.80005 0.20357 0.0
H627 H 0.48214 0.77287 0.2587 0.0
H628 H 0.40182 0.73408 0.19258 0.0
H629 H 0.34285 0.73832 0.20386 0.0
H630 H 0.3863 0.71781 0.16092 0.0
H631 H 0.32848 0.72221 0.17195 0.0
H632 H 0.41188 0.6855 0.25977 0.0
H633 H 0.44902 0.72052 0.2094 0.0
H634 H 0.43044 0.85401 0.19266 0.0
H635 H 0.42672 0.8034 0.15418 0.0
C636 C 0.09863 0.60858 0.30872 0.0
C637 C 0.08733 0.58552 0.30519 0.0
C638 C 0.1184 0.62276 0.29909 0.0
C639 C 0.1566 0.62866 0.25977 0.0
H640 H 0.20213 0.66365 0.29722 0.0
C641 C 0.25185 0.67558 0.24263 0.0
C642 C 0.2654 0.69607 0.25193 0.0
C643 C 0.22917 0.66244 0.24726 0.0
C644 C 0.18965 0.65438 0.28644 0.0
H645 H 0.08674 0.55934 0.28786 0.0
H646 H 0.1215 0.58429 0.27079 0.0
H647 H 0.16362 0.64095 0.30726 0.0
H648 H 0.26533 0.7187 0.27341 0.0
H649 H 0.22596 0.69654 0.28071 0.0
H650 H 0.18283 0.64229 0.2389 0.0
C651 C 0.11497 0.59138 0.28096 0.0
C652 C 0.16751 0.64129 0.29224 0.0
C653 C 0.09506 0.57712 0.29064 0.0
C654 C 0.25551 0.70324 0.26568 0.0
C655 C 0.23288 0.69028 0.27013 0.0
C656 C 0.17886 0.64202 0.25388 0.0
C657 C 0.12736 0.61416 0.28579 0.0
C658 C 0.1507 0.62836 0.27901 0.0
C659 C 0.21944 0.66952 0.26124 0.0
C660 C 0.19567 0.65513 0.26717 0.0
H661 H 0.09296 0.6154 0.3199 0.0
H662 H 0.12737 0.64031 0.30285 0.0
H663 H 0.14398 0.61881 0.24927 0.0
H664 H 0.25874 0.66961 0.23177 0.0
H665 H 0.21942 0.6465 0.24019 0.0
C666 C 0.52205 0.08981 0.45955 0.0
C667 C 0.5396 0.08795 0.46768 0.0
C668 C 0.52655 0.10884 0.44899 0.0
C669 C 0.57249 0.16044 0.42643 0.0
H670 H 0.5376 0.1871 0.44312 0.0
C671 C 0.59445 0.24971 0.40363 0.0
C672 C 0.59386 0.2633 0.4183 0.0
C673 C 0.58541 0.22673 0.40644 0.0
C674 C 0.54751 0.17989 0.4383 0.0
H675 H 0.57555 0.10353 0.46999 0.0
H676 H 0.58343 0.1366 0.45174 0.0
H677 H 0.5264 0.14904 0.45262 0.0
H678 H 0.58341 0.26329 0.4475 0.0
H679 H 0.56778 0.22341 0.4524 0.0
H680 H 0.59428 0.19173 0.41297 0.0
C681 C 0.56621 0.12351 0.45335 0.0
C682 C 0.5409 0.15793 0.44352 0.0
C683 C 0.56171 0.10462 0.46392 0.0
C684 C 0.58381 0.2533 0.43576 0.0
C685 C 0.57479 0.23038 0.43857 0.0
C686 C 0.57912 0.18242 0.42122 0.0
C687 C 0.54868 0.12624 0.4463 0.0
C688 C 0.55364 0.14812 0.43807 0.0
C689 C 0.57557 0.2168 0.42399 0.0
C690 C 0.56704 0.19262 0.42752 0.0
H691 H 0.50486 0.07722 0.46231 0.0
H692 H 0.51268 0.1103 0.44353 0.0
H693 H 0.58254 0.15331 0.4218 0.0
H694 H 0.6018 0.25682 0.38991 0.0
H695 H 0.58608 0.21674 0.39483 0.0
C696 C 0.45369 0.52104 0.63075 0.0
C697 C 0.47416 0.53866 0.63721 0.0
C698 C 0.43911 0.52551 0.62024 0.0
C699 C 0.43505 0.57002 0.59367 0.0
H700 H 0.37529 0.54224 0.61486 0.0
C701 C 0.37892 0.60917 0.58646 0.0
C702 C 0.35571 0.59514 0.58472 0.0
C703 C 0.39285 0.6002 0.58952 0.0
C704 C 0.39175 0.54987 0.60847 0.0
H705 H 0.49616 0.57449 0.63685 0.0
H706 H 0.47099 0.58231 0.61839 0.0
H707 H 0.40084 0.52966 0.62509 0.0
H708 H 0.32905 0.5606 0.58411 0.0
H709 H 0.35337 0.54494 0.58938 0.0
H710 H 0.42614 0.59061 0.5774 0.0
C711 C 0.46606 0.56507 0.62133 0.0
C712 C 0.40641 0.54262 0.61433 0.0
C713 C 0.48046 0.56063 0.63196 0.0
C714 C 0.34682 0.57189 0.58569 0.0
C715 C 0.36077 0.56291 0.58871 0.0
C716 C 0.42037 0.57722 0.58776 0.0
C717 C 0.44492 0.54765 0.61585 0.0
C718 C 0.42841 0.55297 0.60735 0.0
C719 C 0.38395 0.57697 0.59086 0.0
C720 C 0.39871 0.56762 0.59544 0.0
H721 H 0.44844 0.50399 0.63476 0.0
H722 H 0.42301 0.51172 0.61607 0.0
H723 H 0.4518 0.57813 0.58783 0.0
H724 H 0.3863 0.62715 0.58607 0.0
H725 H 0.41055 0.61157 0.59145 0.0
C726 C 0.93923 0.44085 0.82338 0.0
C727 C 0.95493 0.46039 0.81397 0.0
C728 C 0.91884 0.42635 0.81483 0.0
C729 C 0.88587 0.40822 0.77106 0.0
H730 H 0.83744 0.39865 0.80488 0.0
C731 C 0.7922 0.36029 0.74814 0.0
C732 C 0.77669 0.3464 0.76199 0.0
C733 C 0.81466 0.37446 0.75296 0.0
C734 C 0.85068 0.40083 0.79531 0.0
H735 H 0.96247 0.47924 0.78768 0.0
H736 H 0.92652 0.45347 0.77243 0.0
H737 H 0.87582 0.42166 0.81534 0.0
H738 H 0.77286 0.3368 0.79186 0.0
H739 H 0.81181 0.36055 0.79999 0.0
H740 H 0.86057 0.38685 0.75116 0.0
C741 C 0.9301 0.44956 0.7865 0.0
C742 C 0.8727 0.41412 0.8013 0.0
C743 C 0.95063 0.46422 0.79516 0.0
C744 C 0.78428 0.34694 0.7807 0.0
C745 C 0.80666 0.36091 0.78546 0.0
C746 C 0.86369 0.39461 0.7651 0.0
C747 C 0.9137 0.431 0.79663 0.0
C748 C 0.89052 0.4177 0.78939 0.0
C749 C 0.82214 0.37505 0.77174 0.0
C750 C 0.84581 0.39048 0.7773 0.0
H751 H 0.94226 0.43741 0.83782 0.0
H752 H 0.90665 0.41195 0.8228 0.0
H753 H 0.89935 0.41078 0.7616 0.0
H754 H 0.78704 0.36015 0.73352 0.0
H755 H 0.82606 0.3852 0.74204 0.0
C756 C 0.51502 0.95188 0.95383 0.0
C757 C 0.53195 0.95804 0.96749 0.0
C758 C 0.5076 0.93228 0.94317 0.0
C759 C 0.51999 0.88752 0.92997 0.0
H760 H 0.45606 0.84852 0.93518 0.0
C761 C 0.47831 0.79167 0.92414 0.0
C762 C 0.45646 0.77932 0.91689 0.0
C763 C 0.48836 0.81475 0.92682 0.0
C764 C 0.47386 0.85923 0.93318 0.0
H765 H 0.55556 0.94968 0.97976 0.0
H766 H 0.54297 0.91575 0.96095 0.0
H767 H 0.47295 0.88745 0.94461 0.0
H768 H 0.4283 0.78193 0.90645 0.0
H769 H 0.44611 0.82217 0.91041 0.0
H770 H 0.52097 0.85923 0.91875 0.0
C771 C 0.53533 0.9259 0.95844 0.0
C772 C 0.48356 0.88162 0.93861 0.0
C773 C 0.54254 0.9453 0.96922 0.0
C774 C 0.44521 0.79083 0.9119 0.0
C775 C 0.45534 0.81394 0.91443 0.0
C776 C 0.51027 0.86515 0.92436 0.0
C777 C 0.51718 0.91869 0.94586 0.0
C778 C 0.50678 0.89591 0.93745 0.0
C779 C 0.47695 0.8262 0.92217 0.0
C780 C 0.48712 0.85056 0.92629 0.0
H781 H 0.50645 0.96132 0.95238 0.0
H782 H 0.49372 0.92725 0.93344 0.0
H783 H 0.53791 0.89818 0.92876 0.0
H784 H 0.48769 0.78352 0.92785 0.0
H785 H 0.50491 0.82349 0.93303 0.0
C786 C 0.58689 0.5152 0.1199 0.0
C787 C 0.59663 0.5304 0.135 0.0
C788 C 0.59973 0.50864 0.10913 0.0
C789 C 0.65807 0.52078 0.10004 0.0
H790 H 0.63026 0.45632 0.09727 0.0
C791 C 0.70897 0.47555 0.09666 0.0
C792 C 0.70096 0.45614 0.0855 0.0
C793 C 0.69628 0.48601 0.09904 0.0
C794 C 0.63821 0.47436 0.09759 0.0
H795 H 0.6276 0.55207 0.14968 0.0
H796 H 0.64999 0.54083 0.13097 0.0
H797 H 0.60807 0.47315 0.10658 0.0
H798 H 0.6733 0.43262 0.06797 0.0
H799 H 0.65125 0.45102 0.07195 0.0
H800 H 0.68841 0.5219 0.09166 0.0
C801 C 0.63255 0.53391 0.12729 0.0
C802 C 0.62544 0.48404 0.10288 0.0
C803 C 0.61973 0.54034 0.13808 0.0
C804 C 0.68006 0.44763 0.07655 0.0
C805 C 0.66732 0.45807 0.07897 0.0
C806 C 0.67085 0.51109 0.09477 0.0
C807 C 0.62254 0.51729 0.11321 0.0
C808 C 0.63532 0.50736 0.10462 0.0
C809 C 0.67521 0.47731 0.09034 0.0
C810 C 0.66119 0.48773 0.09391 0.0
H811 H 0.56908 0.50718 0.11735 0.0
H812 H 0.59159 0.49605 0.09819 0.0
H813 H 0.66614 0.5388 0.10096 0.0
H814 H 0.72511 0.48271 0.10357 0.0
H815 H 0.70277 0.50064 0.10808 0.0
C816 C 0.43855 0.93991 0.51045 0.0
C817 C 0.46158 0.95286 0.51382 0.0
C818 C 0.42538 0.92081 0.52131 0.0
C819 C 0.43071 0.87736 0.54584 0.0
H820 H 0.3689 0.85552 0.55968 0.0
C821 C 0.37446 0.78736 0.57357 0.0
C822 C 0.35266 0.77576 0.56611 0.0
C823 C 0.38791 0.8104 0.5708 0.0
C824 C 0.3861 0.86131 0.5558 0.0
H825 H 0.48886 0.95674 0.53159 0.0
H826 H 0.46578 0.92315 0.55073 0.0
H827 H 0.39215 0.89417 0.54926 0.0
H828 H 0.32772 0.77961 0.55047 0.0
H829 H 0.35133 0.8195 0.54512 0.0
H830 H 0.42453 0.84436 0.55153 0.0
C831 C 0.45791 0.92782 0.5397 0.0
C832 C 0.39944 0.88349 0.54993 0.0
C833 C 0.47106 0.94713 0.52894 0.0
C834 C 0.34453 0.7879 0.55617 0.0
C835 C 0.35799 0.8109 0.55335 0.0
C836 C 0.41734 0.85515 0.5516 0.0
C837 C 0.43504 0.91408 0.5356 0.0
C838 C 0.42178 0.89165 0.54452 0.0
C839 C 0.37994 0.82245 0.56047 0.0
C840 C 0.39473 0.84668 0.55627 0.0
H841 H 0.43098 0.94392 0.49869 0.0
H842 H 0.40791 0.91051 0.51763 0.0
H843 H 0.44774 0.88299 0.54149 0.0
H844 H 0.38138 0.77857 0.58116 0.0
H845 H 0.40463 0.81875 0.57669 0.0
C846 C 0.56362 0.47956 0.69034 0.0
C847 C 0.54179 0.4699 0.68323 0.0
C848 C 0.57065 0.46653 0.70008 0.0
C849 C 0.5522 0.41094 0.72203 0.0
H850 H 0.60859 0.4205 0.70196 0.0
C851 C 0.58125 0.34576 0.72928 0.0
C852 C 0.6042 0.35356 0.73162 0.0
C853 C 0.57348 0.36069 0.72604 0.0
C854 C 0.59302 0.41779 0.70804 0.0
H855 H 0.50988 0.43949 0.68125 0.0
H856 H 0.52209 0.41653 0.69834 0.0
H857 H 0.59515 0.44555 0.69282 0.0
H858 H 0.6369 0.3834 0.73266 0.0
H859 H 0.62334 0.40935 0.72764 0.0
H860 H 0.55 0.38289 0.73705 0.0
C861 C 0.53371 0.43423 0.69671 0.0
C862 C 0.5853 0.43221 0.70278 0.0
C863 C 0.52667 0.44733 0.68699 0.0
C864 C 0.6191 0.37673 0.73111 0.0
C865 C 0.61133 0.39164 0.72797 0.0
C866 C 0.56 0.3965 0.72737 0.0
C867 C 0.55605 0.44351 0.70269 0.0
C868 C 0.56474 0.42892 0.7096 0.0
C869 C 0.58846 0.38382 0.72512 0.0
C870 C 0.58045 0.39966 0.72031 0.0
H871 H 0.5756 0.49689 0.68735 0.0
H872 H 0.58785 0.47428 0.70479 0.0
H873 H 0.53636 0.40802 0.72763 0.0
H874 H 0.56923 0.32807 0.72987 0.0
H875 H 0.55578 0.35402 0.72376 0.0
C876 C 0.10578 0.51446 0.84637 0.0
C877 C 0.0928 0.52472 0.84864 0.0
C878 C 0.12518 0.52151 0.85709 0.0
C879 C 0.16913 0.57239 0.87853 0.0
H880 H 0.19098 0.53378 0.8965 0.0
C881 C 0.25986 0.60839 0.90516 0.0
C882 C 0.27104 0.59722 0.89894 0.0
C883 C 0.23676 0.59873 0.90276 0.0
C884 C 0.1852 0.54482 0.89145 0.0
H885 H 0.08917 0.54957 0.8645 0.0
H886 H 0.12333 0.5621 0.88333 0.0
H887 H 0.15214 0.51755 0.88643 0.0
H888 H 0.2664 0.56671 0.88595 0.0
H889 H 0.22644 0.55029 0.88116 0.0
H890 H 0.20231 0.59957 0.88265 0.0
C891 C 0.11845 0.54857 0.87323 0.0
C892 C 0.1629 0.5355 0.88579 0.0
C893 C 0.09884 0.54129 0.86263 0.0
C894 C 0.25845 0.57597 0.89063 0.0
C895 C 0.2354 0.56638 0.88816 0.0
C896 C 0.19146 0.5817 0.88406 0.0
C897 C 0.13216 0.53918 0.87017 0.0
C898 C 0.15474 0.54915 0.87888 0.0
C899 C 0.22425 0.57769 0.89405 0.0
C900 C 0.19993 0.568 0.89019 0.0
H901 H 0.10147 0.5017 0.83559 0.0
H902 H 0.13543 0.51405 0.85426 0.0
H903 H 0.16345 0.58334 0.87302 0.0
H904 H 0.26902 0.62484 0.91149 0.0
H905 H 0.22873 0.60784 0.90766 0.0
C906 C 0.56803 0.1076 0.01333 0.0
C907 C 0.57653 0.09344 0.00903 0.0
C908 C 0.5814 0.12808 0.0223 0.0
C909 C 0.63506 0.1632 0.04779 0.0
H910 H 0.63088 0.21137 0.02345 0.0
C911 C 0.70114 0.25706 0.05777 0.0
C912 C 0.69336 0.27235 0.05881 0.0
C913 C 0.68647 0.23451 0.05366 0.0
C914 C 0.63208 0.19814 0.03064 0.0
H915 H 0.60519 0.08891 0.01168 0.0
H916 H 0.62883 0.12496 0.02729 0.0
H917 H 0.60582 0.1731 0.01374 0.0
H918 H 0.66388 0.2757 0.05649 0.0
H919 H 0.63833 0.23646 0.04978 0.0
H920 H 0.66166 0.18853 0.0645 0.0
C921 C 0.61172 0.12013 0.0239 0.0
C922 C 0.61765 0.17612 0.02508 0.0
C923 C 0.59821 0.09948 0.015 0.0
C924 C 0.67047 0.26442 0.05599 0.0
C925 C 0.65583 0.24192 0.05191 0.0
C926 C 0.64955 0.18534 0.05338 0.0
C927 C 0.6037 0.13501 0.02702 0.0
C928 C 0.61888 0.15833 0.03359 0.0
C929 C 0.66366 0.22672 0.05046 0.0
C930 C 0.6482 0.20307 0.04487 0.0
H931 H 0.5513 0.10323 0.00897 0.0
H932 H 0.57449 0.13885 0.02494 0.0
H933 H 0.63638 0.1499 0.0547 0.0
H934 H 0.71861 0.26251 0.06009 0.0
H935 H 0.69311 0.22331 0.05252 0.0
C936 C 0.5204 0.59518 0.18498 0.0
C937 C 0.50554 0.57303 0.17969 0.0
C938 C 0.51269 0.6075 0.19505 0.0
C939 C 0.45989 0.60801 0.20232 0.0
H940 H 0.49594 0.65724 0.23641 0.0
C941 C 0.42645 0.66227 0.23455 0.0
C942 C 0.4407 0.68543 0.23266 0.0
C943 C 0.43441 0.64753 0.23123 0.0
C944 C 0.4857 0.64354 0.22689 0.0
H945 H 0.47149 0.54582 0.18169 0.0
H946 H 0.45815 0.56684 0.20004 0.0
H947 H 0.50981 0.63273 0.22572 0.0
H948 H 0.47472 0.71133 0.22675 0.0
H949 H 0.48859 0.68558 0.22089 0.0
H950 H 0.43589 0.61889 0.20337 0.0
C951 C 0.47558 0.57507 0.19595 0.0
C952 C 0.49366 0.62952 0.22072 0.0
C953 C 0.48322 0.56291 0.18566 0.0
C954 C 0.46328 0.69355 0.2281 0.0
C955 C 0.47128 0.67882 0.22494 0.0
C956 C 0.45189 0.62187 0.20862 0.0
C957 C 0.48999 0.5978 0.20013 0.0
C958 C 0.48097 0.61171 0.20815 0.0
C959 C 0.45684 0.65562 0.22611 0.0
C960 C 0.46479 0.63996 0.22077 0.0
H961 H 0.53763 0.60336 0.18028 0.0
H962 H 0.52427 0.62497 0.19783 0.0
H963 H 0.44981 0.59486 0.1923 0.0
H964 H 0.40895 0.65549 0.23795 0.0
H965 H 0.42292 0.62974 0.2324 0.0
C966 C 0.93733 0.4768 0.35299 0.0
C967 C 0.95293 0.49901 0.34831 0.0
C968 C 0.91812 0.47178 0.36335 0.0
C969 C 0.88001 0.49299 0.36988 0.0
H970 H 0.85247 0.44613 0.40786 0.0
C971 C 0.7915 0.46474 0.39804 0.0
C972 C 0.77725 0.44166 0.40043 0.0
C973 C 0.81438 0.4735 0.39507 0.0
C974 C 0.85983 0.45914 0.39716 0.0
H975 H 0.96127 0.53347 0.35146 0.0
H976 H 0.92746 0.52469 0.36954 0.0
H977 H 0.89053 0.45851 0.3972 0.0
H978 H 0.77582 0.40968 0.40183 0.0
H979 H 0.81559 0.42479 0.39613 0.0
H980 H 0.84915 0.493 0.36903 0.0
C981 C 0.93015 0.51118 0.3652 0.0
C982 C 0.88169 0.46631 0.39115 0.0
C983 C 0.94955 0.51623 0.35502 0.0
C984 C 0.78644 0.42757 0.40022 0.0
C985 C 0.80929 0.43629 0.39703 0.0
C986 C 0.8581 0.48569 0.37573 0.0
C987 C 0.91397 0.48886 0.36905 0.0
C988 C 0.89189 0.48309 0.37723 0.0
C989 C 0.82355 0.45936 0.39417 0.0
C990 C 0.84756 0.46841 0.38923 0.0
H991 H 0.93959 0.46324 0.34796 0.0
H992 H 0.90592 0.45442 0.36594 0.0
H993 H 0.88727 0.5057 0.3589 0.0
H994 H 0.78492 0.47604 0.39842 0.0
H995 H 0.82485 0.49138 0.39334 0.0
C996 C 0.0851 0.5803 0.38046 0.0
C997 C 0.07298 0.55914 0.37197 0.0
C998 C 0.09643 0.58304 0.39759 0.0
C999 C 0.12308 0.55761 0.42497 0.0
H1000 H 0.13134 0.60262 0.46219 0.0
C1001 C 0.182 0.57991 0.4905 0.0
C1002 C 0.19599 0.60288 0.49386 0.0
C1003 C 0.16471 0.57243 0.47712 0.0
C1004 C 0.12925 0.59005 0.45188 0.0
H1005 H 0.06226 0.52406 0.37517 0.0
H1006 H 0.08201 0.52878 0.40542 0.0
H1007 H 0.10356 0.59256 0.43703 0.0
H1008 H 0.20269 0.63598 0.48594 0.0
H1009 H 0.17271 0.62296 0.4625 0.0
H1010 H 0.14908 0.55543 0.43969 0.0
C1011 C 0.08291 0.54329 0.39865 0.0
C1012 C 0.11332 0.58425 0.43749 0.0
C1013 C 0.07143 0.54053 0.38147 0.0
C1014 C 0.19236 0.61819 0.48353 0.0
C1015 C 0.175 0.61072 0.47028 0.0
C1016 C 0.13897 0.56335 0.43944 0.0
C1017 C 0.09594 0.56468 0.40668 0.0
C1018 C 0.11043 0.56838 0.42356 0.0
C1019 C 0.16093 0.58776 0.46697 0.0
C1020 C 0.1426 0.58003 0.45276 0.0
H1021 H 0.08644 0.5949 0.37347 0.0
H1022 H 0.10646 0.59978 0.40321 0.0
H1023 H 0.12148 0.54551 0.41436 0.0
H1024 H 0.18448 0.56772 0.49818 0.0
H1025 H 0.15411 0.55464 0.47491 0.0
C1026 C 0.53805 0.06757 0.54953 0.0
C1027 C 0.55152 0.07064 0.53354 0.0
C1028 C 0.54732 0.08039 0.566 0.0
C1029 C 0.59425 0.13562 0.57834 0.0
H1030 H 0.57521 0.1176 0.63055 0.0
C1031 C 0.63283 0.19718 0.64103 0.0
C1032 C 0.61816 0.19654 0.65523 0.0
C1033 C 0.62546 0.18055 0.62707 0.0
C1034 C 0.58056 0.1229 0.61601 0.0
H1035 H 0.58535 0.08784 0.52267 0.0
H1036 H 0.60169 0.1097 0.55155 0.0
H1037 H 0.56139 0.0895 0.60521 0.0
H1038 H 0.58426 0.17768 0.66602 0.0
H1039 H 0.57127 0.149 0.64137 0.0
H1040 H 0.61303 0.16897 0.58893 0.0
C1041 C 0.58391 0.09794 0.55128 0.0
C1042 C 0.57269 0.1068 0.60152 0.0
C1043 C 0.57463 0.08529 0.53482 0.0
C1044 C 0.59593 0.17886 0.65513 0.0
C1045 C 0.58856 0.16222 0.64117 0.0
C1046 C 0.60208 0.15166 0.59277 0.0
C1047 C 0.57022 0.0964 0.56673 0.0
C1048 C 0.57941 0.113 0.5825 0.0
C1049 C 0.60323 0.16288 0.62696 0.0
C1050 C 0.59527 0.14554 0.61177 0.0
H1051 H 0.52015 0.05652 0.54877 0.0
H1052 H 0.5363 0.07883 0.57762 0.0
H1053 H 0.59935 0.1411 0.56379 0.0
H1054 H 0.65001 0.21064 0.6406 0.0
H1055 H 0.63726 0.18147 0.61644 0.0
C1056 C 0.51412 0.57637 0.70309 0.0
C1057 C 0.506 0.5533 0.70224 0.0
C1058 C 0.51203 0.58614 0.71981 0.0
C1059 C 0.49606 0.57582 0.77129 0.0
H1060 H 0.47446 0.61696 0.76138 0.0
C1061 C 0.44771 0.59712 0.82688 0.0
C1062 C 0.45227 0.61933 0.82793 0.0
C1063 C 0.45736 0.59054 0.81263 0.0
C1064 C 0.4808 0.60578 0.76444 0.0
H1065 H 0.49051 0.52249 0.71835 0.0
H1066 H 0.48639 0.5394 0.74758 0.0
H1067 H 0.48681 0.60308 0.73497 0.0
H1068 H 0.47111 0.65217 0.81508 0.0
H1069 H 0.48774 0.6406 0.79005 0.0
H1070 H 0.48923 0.57808 0.80081 0.0
C1071 C 0.49472 0.55009 0.73547 0.0
C1072 C 0.48797 0.59784 0.74928 0.0
C1073 C 0.49707 0.54036 0.71876 0.0
C1074 C 0.46692 0.63485 0.81449 0.0
C1075 C 0.47651 0.62824 0.80019 0.0
C1076 C 0.48875 0.5837 0.78648 0.0
C1077 C 0.50145 0.57298 0.73597 0.0
C1078 C 0.49554 0.58262 0.75246 0.0
C1079 C 0.47174 0.60598 0.79903 0.0
C1080 C 0.48085 0.59862 0.78319 0.0
H1081 H 0.52119 0.58668 0.69051 0.0
H1082 H 0.51794 0.6039 0.71982 0.0
H1083 H 0.50201 0.56432 0.77428 0.0
H1084 H 0.43623 0.58463 0.8368 0.0
H1085 H 0.45305 0.57318 0.81194 0.0
C1086 C 0.98909 0.50393 0.88968 0.0
C1087 C 0.9796 0.50607 0.87266 0.0
C1088 C 0.97926 0.50346 0.90729 0.0
C1089 C 0.93348 0.50977 0.93017 0.0
H1090 H 0.92711 0.46083 0.96165 0.0
C1091 C 0.87229 0.47689 0.99418 0.0
C1092 C 0.86027 0.45358 0.99678 0.0
C1093 C 0.89015 0.4867 0.98131 0.0
C1094 C 0.92858 0.47447 0.95297 0.0
H1095 H 0.95395 0.51177 0.86079 0.0
H1096 H 0.9365 0.51033 0.89116 0.0
H1097 H 0.95335 0.47377 0.93529 0.0
H1098 H 0.85803 0.42243 0.98796 0.0
H1099 H 0.88818 0.4393 0.96494 0.0
H1100 H 0.90748 0.50932 0.94701 0.0
C1101 C 0.95153 0.50916 0.8912 0.0
C1102 C 0.94402 0.48222 0.93802 0.0
C1103 C 0.96143 0.5098 0.8737 0.0
C1104 C 0.86659 0.44038 0.98615 0.0
C1105 C 0.88425 0.45015 0.97317 0.0
C1106 C 0.91782 0.50181 0.94499 0.0
C1107 C 0.95971 0.50502 0.90818 0.0
C1108 C 0.94626 0.49958 0.92606 0.0
C1109 C 0.89633 0.47345 0.97058 0.0
C1110 C 0.91473 0.48364 0.95626 0.0
H1111 H 1.00311 0.50106 0.8893 0.0
H1112 H 0.98635 0.50079 0.92011 0.0
H1113 H 0.93502 0.52345 0.92152 0.0
H1114 H 0.8678 0.48761 0.00193 0.0
H1115 H 0.89914 0.50469 0.97986 0.0
C1116 C 0.53587 0.96114 0.04315 0.0
C1117 C 0.52636 0.97325 0.03549 0.0
C1118 C 0.52712 0.94844 0.05966 0.0
C1119 C 0.49007 0.93671 0.10112 0.0
H1120 H 0.47775 0.87603 0.09342 0.0
C1121 C 0.43468 0.86427 0.15282 0.0
C1122 C 0.44104 0.8482 0.1563 0.0
C1123 C 0.44558 0.88069 0.13885 0.0
C1124 C 0.48135 0.89295 0.09599 0.0
H1125 H 0.50137 0.98296 0.03982 0.0
H1126 H 0.48606 0.96076 0.06896 0.0
H1127 H 0.49716 0.90388 0.06882 0.0
H1128 H 0.46421 0.83712 0.14832 0.0
H1129 H 0.48346 0.86587 0.12424 0.0
H1130 H 0.47436 0.92573 0.12844 0.0
C1131 C 0.50029 0.96112 0.06212 0.0
C1132 C 0.49247 0.90893 0.08186 0.0
C1133 C 0.50907 0.97386 0.04551 0.0
C1134 C 0.45865 0.84901 0.14569 0.0
C1135 C 0.46967 0.8655 0.13187 0.0
C1136 C 0.47907 0.92071 0.11542 0.0
C1137 C 0.50868 0.94759 0.06889 0.0
C1138 C 0.49706 0.931 0.08428 0.0
C1139 C 0.46321 0.88149 0.12818 0.0
C1140 C 0.47466 0.89863 0.11304 0.0
H1141 H 0.5494 0.96062 0.03582 0.0
H1142 H 0.53423 0.93856 0.06479 0.0
H1143 H 0.49343 0.95361 0.10336 0.0
H1144 H 0.42105 0.86395 0.16072 0.0
H1145 H 0.43995 0.89251 0.13622 0.0
C1146 C 0.55446 0.50195 0.21171 0.0
C1147 C 0.5726 0.51978 0.20239 0.0
C1148 C 0.55794 0.49268 0.22825 0.0
C1149 C 0.60227 0.48554 0.2493 0.0
H1150 H 0.56535 0.46552 0.29473 0.0
C1151 C 0.62804 0.45364 0.31448 0.0
C1152 C 0.6114 0.43516 0.32442 0.0
C1153 C 0.62233 0.46418 0.3004 0.0
C1154 C 0.57566 0.47079 0.28203 0.0
H1155 H 0.60814 0.54318 0.20383 0.0
H1156 H 0.61418 0.52724 0.2327 0.0
H1157 H 0.55674 0.48436 0.26928 0.0
H1158 H 0.57569 0.41324 0.32744 0.0
H1159 H 0.56566 0.43144 0.30254 0.0
H1160 H 0.62095 0.47176 0.26163 0.0
C1161 C 0.59739 0.52004 0.22707 0.0
C1162 C 0.57076 0.48163 0.26752 0.0
C1163 C 0.59392 0.52924 0.21063 0.0
C1164 C 0.58887 0.42754 0.32007 0.0
C1165 C 0.58314 0.43801 0.30587 0.0
C1166 C 0.60706 0.47464 0.26367 0.0
C1167 C 0.57961 0.50115 0.23564 0.0
C1168 C 0.58421 0.48935 0.25111 0.0
C1169 C 0.59983 0.45641 0.2958 0.0
C1170 C 0.594 0.46734 0.28032 0.0
H1171 H 0.53788 0.49431 0.20557 0.0
H1172 H 0.54393 0.47811 0.23457 0.0
H1173 H 0.61261 0.49078 0.23661 0.0
H1174 H 0.64553 0.46022 0.31779 0.0
H1175 H 0.63561 0.4786 0.29325 0.0
C1176 C 0.49536 0.94944 0.44646 0.0
C1177 C 0.49077 0.967 0.4479 0.0
C1178 C 0.49236 0.93825 0.42918 0.0
C1179 C 0.45702 0.92244 0.38735 0.0
H1180 H 0.49615 0.90187 0.36799 0.0
C1181 C 0.43278 0.86438 0.32183 0.0
C1182 C 0.43817 0.84731 0.32237 0.0
C1183 C 0.44129 0.88132 0.33554 0.0
C1184 C 0.48492 0.90728 0.37331 0.0
H1185 H 0.48036 0.98732 0.43241 0.0
H1186 H 0.47479 0.96748 0.40204 0.0
H1187 H 0.50843 0.92831 0.39448 0.0
H1188 H 0.45655 0.83447 0.33771 0.0
H1189 H 0.47089 0.8636 0.36203 0.0
H1190 H 0.43307 0.90076 0.36691 0.0
C1191 C 0.48079 0.96246 0.41429 0.0
C1192 C 0.49205 0.92255 0.38839 0.0
C1193 C 0.48411 0.97389 0.43156 0.0
C1194 C 0.45228 0.84753 0.33688 0.0
C1195 C 0.46059 0.86433 0.35073 0.0
C1196 C 0.44978 0.907 0.37242 0.0
C1197 C 0.48442 0.94421 0.41307 0.0
C1198 C 0.47806 0.93007 0.39571 0.0
C1199 C 0.4552 0.88145 0.35026 0.0
C1200 C 0.46351 0.89897 0.36536 0.0
H1201 H 0.50052 0.94386 0.45891 0.0
H1202 H 0.49512 0.92415 0.42871 0.0
H1203 H 0.44572 0.92767 0.39291 0.0
H1204 H 0.42224 0.86483 0.31061 0.0
H1205 H 0.43709 0.89441 0.33448 0.0
C1206 C 0.53423 0.48462 0.6006 0.0
C1207 C 0.5491 0.49365 0.61599 0.0
C1208 C 0.54147 0.48051 0.58319 0.0
C1209 C 0.59146 0.49268 0.55481 0.0
H1210 H 0.55575 0.43138 0.53773 0.0
C1211 C 0.62683 0.45202 0.50442 0.0
C1212 C 0.61248 0.43632 0.49099 0.0
C1213 C 0.61848 0.46062 0.51814 0.0
C1214 C 0.56576 0.44868 0.54201 0.0
H1215 H 0.58336 0.50685 0.62505 0.0
H1216 H 0.59612 0.50003 0.59462 0.0
H1217 H 0.54215 0.44503 0.56351 0.0
H1218 H 0.57827 0.41774 0.48106 0.0
H1219 H 0.56371 0.43301 0.50475 0.0
H1220 H 0.61515 0.49635 0.53342 0.0
C1221 C 0.57889 0.49602 0.59593 0.0
C1222 C 0.55792 0.4565 0.55681 0.0
C1223 C 0.5716 0.49985 0.61335 0.0
C1224 C 0.58965 0.42955 0.49145 0.0
C1225 C 0.58133 0.43831 0.50504 0.0
C1226 C 0.59922 0.48493 0.53988 0.0
C1227 C 0.56376 0.48567 0.58086 0.0
C1228 C 0.57087 0.47844 0.56359 0.0
C1229 C 0.59561 0.4539 0.51862 0.0
C1230 C 0.58666 0.4627 0.53353 0.0
H1231 H 0.51677 0.4796 0.60236 0.0
H1232 H 0.5295 0.47267 0.57175 0.0
H1233 H 0.6017 0.50974 0.55965 0.0
H1234 H 0.64447 0.45739 0.50451 0.0
H1235 H 0.62992 0.47224 0.52858 0.0
C1236 C 0.07514 0.54673 0.77225 0.0
C1237 C 0.07403 0.52806 0.78122 0.0
C1238 C 0.08754 0.55524 0.75545 0.0
C1239 C 0.1359 0.5567 0.73207 0.0
H1240 H 0.12352 0.5865 0.691 0.0
C1241 C 0.20422 0.61263 0.67882 0.0
C1242 C 0.19829 0.61059 0.65945 0.0
C1243 C 0.18781 0.60277 0.6929 0.0
C1244 C 0.12714 0.5781 0.7023 0.0
H1245 H 0.08331 0.50254 0.77911 0.0
H1246 H 0.10424 0.51678 0.74946 0.0
H1247 H 0.09538 0.56685 0.71573 0.0
H1248 H 0.17043 0.59682 0.63968 0.0
H1249 H 0.14177 0.57945 0.66427 0.0
H1250 H 0.16741 0.56754 0.71867 0.0
C1251 C 0.09618 0.52533 0.75559 0.0
C1252 C 0.11109 0.567 0.71654 0.0
C1253 C 0.08401 0.51701 0.77242 0.0
C1254 C 0.17553 0.59891 0.6545 0.0
C1255 C 0.1591 0.58896 0.6686 0.0
C1256 C 0.15186 0.56773 0.7179 0.0
C1257 C 0.09893 0.54511 0.74735 0.0
C1258 C 0.1153 0.55616 0.73161 0.0
C1259 C 0.16506 0.59051 0.68795 0.0
C1260 C 0.14778 0.57869 0.70289 0.0
H1261 H 0.06775 0.55563 0.77894 0.0
H1262 H 0.08937 0.57054 0.74953 0.0
H1263 H 0.13994 0.54892 0.74363 0.0
H1264 H 0.22158 0.62183 0.6831 0.0
H1265 H 0.19297 0.6047 0.7077 0.0
C1266 C 0.5358 0.08279 0.9423 0.0
C1267 C 0.54355 0.06767 0.94496 0.0
C1268 C 0.53731 0.09242 0.92444 0.0
C1269 C 0.57361 0.10877 0.88279 0.0
H1270 H 0.53306 0.12695 0.86229 0.0
C1271 C 0.59686 0.16471 0.81628 0.0
C1272 C 0.59203 0.18221 0.81677 0.0
C1273 C 0.58791 0.14772 0.82992 0.0
C1274 C 0.54461 0.12211 0.86791 0.0
H1275 H 0.55733 0.04944 0.9307 0.0
H1276 H 0.5597 0.06604 0.89938 0.0
H1277 H 0.52141 0.10119 0.88934 0.0
H1278 H 0.57337 0.19506 0.83178 0.0
H1279 H 0.55844 0.16587 0.85601 0.0
H1280 H 0.59714 0.13023 0.862 0.0
C1281 C 0.55276 0.07069 0.91119 0.0
C1282 C 0.53789 0.10728 0.88333 0.0
C1283 C 0.55117 0.06099 0.92907 0.0
C1284 C 0.57771 0.18204 0.8311 0.0
C1285 C 0.56886 0.16509 0.84485 0.0
C1286 C 0.58035 0.12364 0.86747 0.0
C1287 C 0.54666 0.08715 0.90887 0.0
C1288 C 0.55244 0.10067 0.8911 0.0
C1289 C 0.57406 0.14785 0.84455 0.0
C1290 C 0.56608 0.13075 0.85998 0.0
H1291 H 0.52967 0.08808 0.95429 0.0
H1292 H 0.53252 0.10508 0.92317 0.0
H1293 H 0.58541 0.1044 0.88867 0.0
H1294 H 0.60802 0.16438 0.80561 0.0
H1295 H 0.59204 0.13456 0.82908 0.0
C1296 C 0.51542 0.55712 0.0981 0.0
C1297 C 0.50047 0.54695 0.11331 0.0
C1298 C 0.50788 0.56085 0.0807 0.0
C1299 C 0.45732 0.54755 0.0523 0.0
H1300 H 0.49197 0.60953 0.03668 0.0
C1301 C 0.42097 0.58904 0.00376 0.0
C1302 C 0.43519 0.60509 0.99047 0.0
C1303 C 0.42946 0.58016 0.0171 0.0
C1304 C 0.48226 0.59206 0.04056 0.0
H1305 H 0.46573 0.53097 0.12182 0.0
H1306 H 0.45253 0.53734 0.09149 0.0
H1307 H 0.50595 0.59559 0.06185 0.0
H1308 H 0.46936 0.62398 0.98041 0.0
H1309 H 0.48415 0.60834 0.00349 0.0
H1310 H 0.43345 0.54412 0.03117 0.0
C1311 C 0.47005 0.54252 0.09292 0.0
C1312 C 0.49032 0.58405 0.055 0.0
C1313 C 0.47761 0.53895 0.11032 0.0
C1314 C 0.45805 0.61194 0.9907 0.0
C1315 C 0.46651 0.60294 0.00393 0.0
C1316 C 0.44929 0.55553 0.03775 0.0
C1317 C 0.48523 0.5543 0.07818 0.0
C1318 C 0.47779 0.56181 0.06125 0.0
C1319 C 0.45235 0.58699 0.01736 0.0
C1320 C 0.4615 0.578 0.03192 0.0
H1321 H 0.53314 0.56355 0.10005 0.0
H1322 H 0.51991 0.56969 0.0695 0.0
H1323 H 0.44738 0.53028 0.0567 0.0
H1324 H 0.40331 0.58359 0.00404 0.0
H1325 H 0.41812 0.56823 0.02743 0.0
C1326 C 0.95847 0.4647 0.28189 0.0
C1327 C 0.97358 0.48772 0.2834 0.0
C1328 C 0.94672 0.45569 0.26499 0.0
C1329 C 0.94149 0.46673 0.21395 0.0
H1330 H 0.87812 0.43045 0.22448 0.0
C1331 C 0.87367 0.44778 0.15694 0.0
C1332 C 0.85401 0.42686 0.15742 0.0
C1333 C 0.88975 0.45391 0.1713 0.0
C1334 C 0.89576 0.44018 0.22118 0.0
H1335 H 0.98959 0.51906 0.26801 0.0
H1336 H 0.969 0.50331 0.23832 0.0
H1337 H 0.9046 0.4429 0.25065 0.0
H1338 H 0.83613 0.39567 0.17293 0.0
H1339 H 0.86427 0.40617 0.19782 0.0
H1340 H 0.93251 0.46413 0.1844 0.0
C1341 C 0.9663 0.49221 0.2502 0.0
C1342 C 0.91099 0.44734 0.23624 0.0
C1343 C 0.97814 0.50124 0.26717 0.0
C1344 C 0.85094 0.41205 0.17236 0.0
C1345 C 0.86709 0.4181 0.18662 0.0
C1346 C 0.92621 0.45942 0.19881 0.0
C1347 C 0.94975 0.46951 0.24923 0.0
C1348 C 0.93402 0.4608 0.23284 0.0
C1349 C 0.8866 0.43921 0.1864 0.0
C1350 C 0.90312 0.44619 0.20227 0.0
H1351 H 0.95482 0.45389 0.29418 0.0
H1352 H 0.93446 0.43805 0.26455 0.0
H1353 H 0.95913 0.47699 0.21087 0.0
H1354 H 0.8764 0.45964 0.14571 0.0
H1355 H 0.90435 0.47043 0.1708 0.0
loop_
_geom_bond_atom_site_label_1
_geom_bond_atom_site_label_2
_geom_bond_distance
_geom_bond_site_symmetry_2
_ccdc_geom_bond_type
H0 C6 0.930 . S
H1 C9 0.931 . S
H2 C11 0.931 . S
H3 C13 0.930 . S
H4 C15 0.930 . S
H5 C17 0.931 1_455 S
C6 H0 0.930 . S
C6 C7 1.380 . S
C6 C8 1.394 . S
C7 C6 1.380 . S
C7 C11 1.382 . S
C8 C6 1.394 . S
C8 C9 1.400 . S
C9 H1 0.931 . S
C9 C8 1.400 . S
C9 C10 1.375 . S
C10 C9 1.375 . S
C10 C11 1.415 . S
C10 C12 1.501 . S
C11 H2 0.931 . S
C11 C7 1.382 . S
C11 C10 1.415 . S
C12 C10 1.501 . S
C12 C13 1.384 1_455 S
C12 C17 1.408 1_455 S
C13 H3 0.930 . S
C13 C12 1.384 1_655 S
C13 C14 1.389 . S
C14 C13 1.389 . S
C14 C15 1.405 . S
C15 H4 0.930 . S
C15 C14 1.405 . S
C15 C16 1.364 . S
C16 C15 1.364 . S
C16 C17 1.400 . S
C17 H5 0.931 1_655 S
C17 C12 1.408 1_655 S
C17 C16 1.400 . S
H18 C24 0.930 . S
H19 C27 0.931 . S
H20 C29 0.931 . S
H21 C31 0.930 . S
H22 C33 0.930 . S
H23 C35 0.931 1_545 S
C24 H18 0.930 . S
C24 C25 1.380 . S
C24 C26 1.394 . S
C25 C24 1.380 . S
C25 C29 1.382 . S
C26 C24 1.394 . S
C26 C27 1.400 . S
C27 H19 0.931 . S
C27 C26 1.400 . S
C27 C28 1.375 . S
C28 C27 1.375 . S
C28 C29 1.415 . S
C28 C30 1.501 . S
C29 H20 0.931 . S
C29 C25 1.382 . S
C29 C28 1.415 . S
C30 C28 1.501 . S
C30 C31 1.384 1_545 S
C30 C35 1.408 1_545 S
C31 H21 0.930 . S
C31 C30 1.384 1_565 S
C31 C32 1.389 . S
C32 C31 1.389 . S
C32 C33 1.405 . S
C33 H22 0.930 . S
C33 C32 1.405 . S
C33 C34 1.364 . S
C34 C33 1.364 . S
C34 C35 1.400 . S
C35 H23 0.931 1_565 S
C35 C30 1.408 1_565 S
C35 C34 1.400 . S
H36 C42 0.930 . S
H37 C45 0.931 . S
H38 C47 0.931 . S
H39 C49 0.930 . S
H40 C51 0.930 . S
H41 C53 0.931 . S
C42 H36 0.930 . S
C42 C43 1.380 . S
C42 C44 1.394 . S
C43 C42 1.380 . S
C43 C47 1.382 . S
C44 C42 1.394 . S
C44 C45 1.400 . S
C45 H37 0.931 . S
C45 C44 1.400 . S
C45 C46 1.375 . S
C46 C45 1.375 . S
C46 C47 1.415 . S
C46 C48 1.501 . S
C47 H38 0.931 . S
C47 C43 1.382 . S
C47 C46 1.415 . S
C48 C46 1.501 . S
C48 C49 1.384 . S
C48 C53 1.408 . S
C49 H39 0.930 . S
C49 C48 1.384 . S
C49 C50 1.389 . S
C50 C49 1.389 . S
C50 C51 1.405 . S
C51 H40 0.930 . S
C51 C50 1.405 . S
C51 C52 1.364 . S
C52 C51 1.364 . S
C52 C53 1.400 . S
C53 H41 0.931 . S
C53 C48 1.408 . S
C53 C52 1.400 . S
H54 C60 0.930 . S
H55 C63 0.931 . S
H56 C65 0.931 . S
H57 C67 0.930 . S
H58 C69 0.930 . S
H59 C71 0.931 1_455 S
C60 H54 0.930 . S
C60 C61 1.380 . S
C60 C62 1.394 . S
C61 C60 1.380 . S
C61 C65 1.382 . S
C62 C60 1.394 . S
C62 C63 1.400 . S
C63 H55 0.931 . S
C63 C62 1.400 . S
C63 C64 1.375 . S
C64 C63 1.375 . S
C64 C65 1.415 . S
C64 C66 1.501 . S
C65 H56 0.931 . S
C65 C61 1.382 . S
C65 C64 1.415 . S
C66 C64 1.501 . S
C66 C67 1.384 1_455 S
C66 C71 1.408 1_455 S
C67 H57 0.930 . S
C67 C66 1.384 1_655 S
C67 C68 1.389 . S
C68 C67 1.389 . S
C68 C69 1.405 . S
C69 H58 0.930 . S
C69 C68 1.405 . S
C69 C70 1.364 . S
C70 C69 1.364 . S
C70 C71 1.400 . S
C71 H59 0.931 1_655 S
C71 C66 1.408 1_655 S
C71 C70 1.400 . S
H72 C78 0.930 . S
H73 C81 0.931 . S
H74 C83 0.931 1_545 S
H75 C85 0.930 . S
H76 C87 0.930 . S
H77 C89 0.931 . S
C78 H72 0.930 . S
C78 C79 1.380 . S
C78 C80 1.394 1_554 S
C79 C78 1.380 . S
C79 C83 1.382 . S
C80 C78 1.394 1_556 S
C80 C81 1.400 . S
C81 H73 0.931 . S
C81 C80 1.400 . S
C81 C82 1.375 1_565 S
C82 C81 1.375 1_545 S
C82 C83 1.415 1_546 S
C82 C84 1.501 . S
C83 H74 0.931 1_565 S
C83 C79 1.382 . S
C83 C82 1.415 1_564 S
C84 C82 1.501 . S
C84 C85 1.384 1_556 S
C84 C89 1.408 . S
C85 H75 0.930 . S
C85 C84 1.384 1_554 S
C85 C86 1.389 1_554 S
C86 C85 1.389 1_556 S
C86 C87 1.405 . S
C87 H76 0.930 . S
C87 C86 1.405 . S
C87 C88 1.364 . S
C88 C87 1.364 . S
C88 C89 1.400 . S
C89 H77 0.931 . S
C89 C84 1.408 . S
C89 C88 1.400 . S
H90 C96 0.930 . S
H91 C99 0.931 . S
H92 C101 0.931 . S
H93 C103 0.930 . S
H94 C105 0.930 . S
H95 C107 0.931 . S
C96 H90 0.930 . S
C96 C97 1.380 . S
C96 C98 1.394 . S
C97 C96 1.380 . S
C97 C101 1.382 . S
C98 C96 1.394 . S
C98 C99 1.400 . S
C99 H91 0.931 . S
C99 C98 1.400 . S
C99 C100 1.375 . S
C100 C99 1.375 . S
C100 C101 1.415 . S
C100 C102 1.501 . S
C101 H92 0.931 . S
C101 C97 1.382 . S
C101 C100 1.415 . S
C102 C100 1.501 . S
C102 C103 1.384 . S
C102 C107 1.408 . S
C103 H93 0.930 . S
C103 C102 1.384 . S
C103 C104 1.389 . S
C104 C103 1.389 . S
C104 C105 1.405 . S
C105 H94 0.930 . S
C105 C104 1.405 . S
C105 C106 1.364 . S
C106 C105 1.364 . S
C106 C107 1.400 . S
C107 H95 0.931 . S
C107 C102 1.408 . S
C107 C106 1.400 . S
Li108 N125 1.990 . S
Li108 O168 1.956 . S
Li108 O169 1.970 . S
Li108 O170 1.961 . S
Li109 N133 1.990 . S
Li109 O168 1.970 . S
Li109 O169 1.956 . S
Li109 O171 1.961 . S
Li110 N155 1.990 . S
Li110 O168 1.961 . S
Li110 O170 1.956 . S
Li110 O171 1.970 . S
Li111 N161 1.990 . S
Li111 O169 1.961 . S
Li111 O170 1.970 . S
Li111 O171 1.956 . S
C112 C114 1.348 . S
C112 C115 1.356 . S
C112 O168 1.325 . S
N113 C116 1.314 . S
N113 C117 1.279 . S
C114 C112 1.348 . S
C114 C116 1.353 . S
C114 H172 0.929 . S
C115 C112 1.356 . S
C115 C117 1.358 . S
C115 H173 0.930 . S
C116 N113 1.314 . S
C116 C114 1.353 . S
C116 H174 0.930 . S
C117 N113 1.279 . S
C117 C115 1.358 . S
C117 H175 0.930 . S
C118 C121 1.348 . S
C118 C122 1.356 . S
C118 O169 1.325 . S
C119 N120 1.279 . S
C119 C122 1.358 . S
C119 H176 0.930 . S
N120 C119 1.279 . S
N120 C123 1.314 . S
C121 C118 1.348 . S
C121 C123 1.353 . S
C121 H177 0.929 . S
C122 C118 1.356 . S
C122 C119 1.358 . S
C122 H178 0.930 . S
C123 N120 1.314 . S
C123 C121 1.353 . S
C123 H179 0.930 . S
C124 N125 1.314 . S
C124 C129 1.353 . S
C124 H130 0.930 . S
N125 Li108 1.990 . S
N125 C124 1.314 . S
N125 C127 1.279 . S
C126 C127 1.358 . S
C126 C128 1.356 . S
C126 H180 0.930 . S
C127 N125 1.279 . S
C127 C126 1.358 . S
C127 H131 0.930 . S
C128 C126 1.356 . S
C128 C129 1.348 . S
C129 C124 1.353 . S
C129 C128 1.348 . S
C129 H181 0.929 . S
H130 C124 0.930 . S
H131 C127 0.930 . S
C132 N133 1.314 . S
C132 C134 1.353 . S
C132 H138 0.930 . S
N133 Li109 1.990 . S
N133 C132 1.314 . S
N133 C136 1.279 . S
C134 C132 1.353 . S
C134 C137 1.348 . S
C134 H182 0.929 . S
C135 C136 1.358 . S
C135 C137 1.356 . S
C135 H183 0.930 . S
C136 N133 1.279 . S
C136 C135 1.358 . S
C136 H139 0.930 . S
C137 C134 1.348 . S
C137 C135 1.356 . S
H138 C132 0.930 . S
H139 C136 0.930 . S
C140 C142 1.348 . S
C140 C143 1.356 . S
C140 O170 1.325 . S
N141 C144 1.314 . S
N141 C145 1.279 . S
C142 C140 1.348 . S
C142 C144 1.353 . S
C142 H184 0.929 . S
C143 C140 1.356 . S
C143 C145 1.358 . S
C143 H185 0.930 . S
C144 N141 1.314 . S
C144 C142 1.353 . S
C144 H186 0.930 . S
C145 N141 1.279 . S
C145 C143 1.358 . S
C145 H187 0.930 . S
C146 C147 1.348 . S
C146 C148 1.356 . S
C146 O171 1.325 . S
C147 C146 1.348 . S
C147 C149 1.353 . S
C147 H188 0.929 . S
C148 C146 1.356 . S
C148 C150 1.358 . S
C148 H189 0.930 . S
C149 C147 1.353 . S
C149 N151 1.314 . S
C149 H190 0.930 . S
C150 C148 1.358 . S
C150 N151 1.279 . S
C150 H191 0.930 . S
N151 C149 1.314 . S
N151 C150 1.279 . S
C152 C154 1.353 . S
C152 N155 1.314 . S
C152 H158 0.930 . S
C153 N155 1.279 . S
C153 C156 1.358 . S
C153 H159 0.930 . S
C154 C152 1.353 . S
C154 C157 1.348 . S
C154 H192 0.929 . S
N155 Li110 1.990 . S
N155 C152 1.314 . S
N155 C153 1.279 . S
C156 C153 1.358 . S
C156 C157 1.356 . S
C156 H193 0.930 . S
C157 C154 1.348 . S
C157 C156 1.356 . S
H158 C152 0.930 . S
H159 C153 0.930 . S
C160 N161 1.314 . S
C160 C162 1.353 . S
C160 H166 0.930 . S
N161 Li111 1.990 . S
N161 C160 1.314 . S
N161 C164 1.279 . S
C162 C160 1.353 . S
C162 C165 1.348 . S
C162 H194 0.929 . S
C163 C164 1.358 . S
C163 C165 1.356 . S
C163 H195 0.930 . S
C164 N161 1.279 . S
C164 C163 1.358 . S
C164 H167 0.930 . S
C165 C162 1.348 . S
C165 C163 1.356 . S
H166 C160 0.930 . S
H167 C164 0.930 . S
O168 Li108 1.956 . S
O168 Li109 1.970 . S
O168 Li110 1.961 . S
O168 C112 1.325 . S
O169 Li108 1.970 . S
O169 Li109 1.956 . S
O169 Li111 1.961 . S
O169 C118 1.325 . S
O170 Li108 1.961 . S
O170 Li110 1.956 . S
O170 Li111 1.970 . S
O170 C140 1.325 . S
O171 Li109 1.961 . S
O171 Li110 1.970 . S
O171 Li111 1.956 . S
O171 C146 1.325 . S
H172 C114 0.929 . S
H173 C115 0.930 . S
H174 C116 0.930 . S
H175 C117 0.930 . S
H176 C119 0.930 . S
H177 C121 0.929 . S
H178 C122 0.930 . S
H179 C123 0.930 . S
H180 C126 0.930 . S
H181 C129 0.929 . S
H182 C134 0.929 . S
H183 C135 0.930 . S
H184 C142 0.929 . S
H185 C143 0.930 . S
H186 C144 0.930 . S
H187 C145 0.930 . S
H188 C147 0.929 . S
H189 C148 0.930 . S
H190 C149 0.930 . S
H191 C150 0.930 . S
H192 C154 0.929 . S
H193 C156 0.930 . S
H194 C162 0.929 . S
H195 C163 0.930 . S
Li196 N213 1.990 . S
Li196 O256 1.956 . S
Li196 O257 1.970 . S
Li196 O258 1.961 . S
Li197 N221 1.990 . S
Li197 O256 1.970 . S
Li197 O257 1.956 . S
Li197 O259 1.961 . S
Li198 N243 1.990 . S
Li198 O256 1.961 . S
Li198 O258 1.956 . S
Li198 O259 1.970 . S
Li199 N249 1.990 . S
Li199 O257 1.961 . S
Li199 O258 1.970 . S
Li199 O259 1.956 . S
C200 C202 1.348 . S
C200 C203 1.356 . S
C200 O256 1.325 . S
N201 C204 1.314 . S
N201 C205 1.279 . S
C202 C200 1.348 . S
C202 C204 1.353 . S
C202 H260 0.929 . S
C203 C200 1.356 . S
C203 C205 1.358 . S
C203 H261 0.930 . S
C204 N201 1.314 . S
C204 C202 1.353 . S
C204 H262 0.930 . S
C205 N201 1.279 . S
C205 C203 1.358 . S
C205 H263 0.930 . S
C206 C209 1.348 . S
C206 C210 1.356 . S
C206 O257 1.325 . S
C207 N208 1.279 . S
C207 C210 1.358 . S
C207 H264 0.930 . S
N208 C207 1.279 . S
N208 C211 1.314 . S
C209 C206 1.348 . S
C209 C211 1.353 . S
C209 H265 0.929 . S
C210 C206 1.356 . S
C210 C207 1.358 . S
C210 H266 0.930 . S
C211 N208 1.314 . S
C211 C209 1.353 . S
C211 H267 0.930 . S
C212 N213 1.314 . S
C212 C217 1.353 . S
C212 H218 0.930 . S
N213 Li196 1.990 . S
N213 C212 1.314 . S
N213 C215 1.279 . S
C214 C215 1.358 . S
C214 C216 1.356 . S
C214 H268 0.930 . S
C215 N213 1.279 . S
C215 C214 1.358 . S
C215 H219 0.930 . S
C216 C214 1.356 . S
C216 C217 1.348 . S
C217 C212 1.353 . S
C217 C216 1.348 . S
C217 H269 0.929 . S
H218 C212 0.930 . S
H219 C215 0.930 . S
C220 N221 1.314 . S
C220 C222 1.353 . S
C220 H226 0.930 . S
N221 Li197 1.990 . S
N221 C220 1.314 . S
N221 C224 1.279 . S
C222 C220 1.353 . S
C222 C225 1.348 . S
C222 H270 0.929 . S
C223 C224 1.358 . S
C223 C225 1.356 . S
C223 H271 0.930 . S
C224 N221 1.279 . S
C224 C223 1.358 . S
C224 H227 0.930 . S
C225 C222 1.348 . S
C225 C223 1.356 . S
H226 C220 0.930 . S
H227 C224 0.930 . S
C228 C230 1.348 . S
C228 C231 1.356 . S
C228 O258 1.325 . S
N229 C232 1.314 . S
N229 C233 1.279 . S
C230 C228 1.348 . S
C230 C232 1.353 . S
C230 H272 0.929 . S
C231 C228 1.356 . S
C231 C233 1.358 . S
C231 H273 0.930 . S
C232 N229 1.314 . S
C232 C230 1.353 . S
C232 H274 0.930 . S
C233 N229 1.279 . S
C233 C231 1.358 . S
C233 H275 0.930 . S
C234 C235 1.348 . S
C234 C236 1.356 . S
C234 O259 1.325 . S
C235 C234 1.348 . S
C235 C237 1.353 . S
C235 H276 0.929 . S
C236 C234 1.356 . S
C236 C238 1.358 . S
C236 H277 0.930 . S
C237 C235 1.353 . S
C237 N239 1.314 . S
C237 H278 0.930 . S
C238 C236 1.358 . S
C238 N239 1.279 . S
C238 H279 0.930 . S
N239 C237 1.314 . S
N239 C238 1.279 . S
C240 C242 1.353 . S
C240 N243 1.314 . S
C240 H246 0.930 . S
C241 N243 1.279 . S
C241 C244 1.358 . S
C241 H247 0.930 . S
C242 C240 1.353 . S
C242 C245 1.348 . S
C242 H280 0.929 . S
N243 Li198 1.990 . S
N243 C240 1.314 . S
N243 C241 1.279 . S
C244 C241 1.358 . S
C244 C245 1.356 . S
C244 H281 0.930 . S
C245 C242 1.348 . S
C245 C244 1.356 . S
H246 C240 0.930 . S
H247 C241 0.930 . S
C248 N249 1.314 . S
C248 C250 1.353 . S
C248 H254 0.930 . S
N249 Li199 1.990 . S
N249 C248 1.314 . S
N249 C252 1.279 . S
C250 C248 1.353 . S
C250 C253 1.348 . S
C250 H282 0.929 . S
C251 C252 1.358 . S
C251 C253 1.356 . S
C251 H283 0.930 . S
C252 N249 1.279 . S
C252 C251 1.358 . S
C252 H255 0.930 . S
C253 C250 1.348 . S
C253 C251 1.356 . S
H254 C248 0.930 . S
H255 C252 0.930 . S
O256 Li196 1.956 . S
O256 Li197 1.970 . S
O256 Li198 1.961 . S
O256 C200 1.325 . S
O257 Li196 1.970 . S
O257 Li197 1.956 . S
O257 Li199 1.961 . S
O257 C206 1.325 . S
O258 Li196 1.961 . S
O258 Li198 1.956 . S
O258 Li199 1.970 . S
O258 C228 1.325 . S
O259 Li197 1.961 . S
O259 Li198 1.970 . S
O259 Li199 1.956 . S
O259 C234 1.325 . S
H260 C202 0.929 . S
H261 C203 0.930 . S
H262 C204 0.930 . S
H263 C205 0.930 . S
H264 C207 0.930 . S
H265 C209 0.929 . S
H266 C210 0.930 . S
H267 C211 0.930 . S
H268 C214 0.930 . S
H269 C217 0.929 . S
H270 C222 0.929 . S
H271 C223 0.930 . S
H272 C230 0.929 . S
H273 C231 0.930 . S
H274 C232 0.930 . S
H275 C233 0.930 . S
H276 C235 0.929 . S
H277 C236 0.930 . S
H278 C237 0.930 . S
H279 C238 0.930 . S
H280 C242 0.929 . S
H281 C244 0.930 . S
H282 C250 0.929 . S
H283 C251 0.930 . S
Li284 N301 1.990 . S
Li284 O344 1.956 . S
Li284 O345 1.970 . S
Li284 O346 1.961 . S
Li285 N309 1.990 . S
Li285 O344 1.970 . S
Li285 O345 1.956 . S
Li285 O347 1.961 . S
Li286 N331 1.990 . S
Li286 O344 1.961 . S
Li286 O346 1.956 . S
Li286 O347 1.970 . S
Li287 N337 1.990 . S
Li287 O345 1.961 . S
Li287 O346 1.970 . S
Li287 O347 1.956 . S
C288 C290 1.348 . S
C288 C291 1.356 . S
C288 O344 1.325 . S
N289 C292 1.314 . S
N289 C293 1.279 . S
C290 C288 1.348 . S
C290 C292 1.353 . S
C290 H348 0.929 . S
C291 C288 1.356 . S
C291 C293 1.358 . S
C291 H349 0.930 . S
C292 N289 1.314 . S
C292 C290 1.353 . S
C292 H350 0.930 . S
C293 N289 1.279 . S
C293 C291 1.358 . S
C293 H351 0.930 . S
C294 C297 1.348 . S
C294 C298 1.356 . S
C294 O345 1.325 . S
C295 N296 1.279 . S
C295 C298 1.358 . S
C295 H352 0.930 . S
N296 C295 1.279 . S
N296 C299 1.314 . S
C297 C294 1.348 . S
C297 C299 1.353 . S
C297 H353 0.929 . S
C298 C294 1.356 . S
C298 C295 1.358 . S
C298 H354 0.930 . S
C299 N296 1.314 . S
C299 C297 1.353 . S
C299 H355 0.930 . S
C300 N301 1.314 . S
C300 C305 1.353 . S
C300 H306 0.930 . S
N301 Li284 1.990 . S
N301 C300 1.314 . S
N301 C303 1.279 . S
C302 C303 1.358 . S
C302 C304 1.356 . S
C302 H356 0.930 . S
C303 N301 1.279 . S
C303 C302 1.358 . S
C303 H307 0.930 . S
C304 C302 1.356 . S
C304 C305 1.348 . S
C305 C300 1.353 . S
C305 C304 1.348 . S
C305 H357 0.929 . S
H306 C300 0.930 . S
H307 C303 0.930 . S
C308 N309 1.314 . S
C308 C310 1.353 . S
C308 H314 0.930 . S
N309 Li285 1.990 . S
N309 C308 1.314 . S
N309 C312 1.279 . S
C310 C308 1.353 . S
C310 C313 1.348 . S
C310 H358 0.929 . S
C311 C312 1.358 . S
C311 C313 1.356 . S
C311 H359 0.930 . S
C312 N309 1.279 . S
C312 C311 1.358 . S
C312 H315 0.930 . S
C313 C310 1.348 . S
C313 C311 1.356 . S
H314 C308 0.930 . S
H315 C312 0.930 . S
C316 C318 1.348 . S
C316 C319 1.356 . S
C316 O346 1.325 . S
N317 C320 1.314 . S
N317 C321 1.279 . S
C318 C316 1.348 . S
C318 C320 1.353 . S
C318 H360 0.929 . S
C319 C316 1.356 . S
C319 C321 1.358 . S
C319 H361 0.930 . S
C320 N317 1.314 . S
C320 C318 1.353 . S
C320 H362 0.930 . S
C321 N317 1.279 . S
C321 C319 1.358 . S
C321 H363 0.930 . S
C322 C323 1.348 . S
C322 C324 1.356 . S
C322 O347 1.325 . S
C323 C322 1.348 . S
C323 C325 1.353 . S
C323 H364 0.929 . S
C324 C322 1.356 . S
C324 C326 1.358 . S
C324 H365 0.930 . S
C325 C323 1.353 . S
C325 N327 1.314 . S
C325 H366 0.930 . S
C326 C324 1.358 . S
C326 N327 1.279 . S
C326 H367 0.930 . S
N327 C325 1.314 . S
N327 C326 1.279 . S
C328 C330 1.353 . S
C328 N331 1.314 . S
C328 H334 0.930 . S
C329 N331 1.279 . S
C329 C332 1.358 . S
C329 H335 0.930 . S
C330 C328 1.353 . S
C330 C333 1.348 . S
C330 H368 0.929 . S
N331 Li286 1.990 . S
N331 C328 1.314 . S
N331 C329 1.279 . S
C332 C329 1.358 . S
C332 C333 1.356 . S
C332 H369 0.930 . S
C333 C330 1.348 . S
C333 C332 1.356 . S
H334 C328 0.930 . S
H335 C329 0.930 . S
C336 N337 1.314 . S
C336 C338 1.353 . S
C336 H342 0.930 . S
N337 Li287 1.990 . S
N337 C336 1.314 . S
N337 C340 1.279 . S
C338 C336 1.353 . S
C338 C341 1.348 . S
C338 H370 0.929 . S
C339 C340 1.358 . S
C339 C341 1.356 . S
C339 H371 0.930 . S
C340 N337 1.279 . S
C340 C339 1.358 . S
C340 H343 0.930 . S
C341 C338 1.348 . S
C341 C339 1.356 . S
H342 C336 0.930 . S
H343 C340 0.930 . S
O344 Li284 1.956 . S
O344 Li285 1.970 . S
O344 Li286 1.961 . S
O344 C288 1.325 . S
O345 Li284 1.970 . S
O345 Li285 1.956 . S
O345 Li287 1.961 . S
O345 C294 1.325 . S
O346 Li284 1.961 . S
O346 Li286 1.956 . S
O346 Li287 1.970 . S
O346 C316 1.325 . S
O347 Li285 1.961 . S
O347 Li286 1.970 . S
O347 Li287 1.956 . S
O347 C322 1.325 . S
H348 C290 0.929 . S
H349 C291 0.930 . S
H350 C292 0.930 . S
H351 C293 0.930 . S
H352 C295 0.930 . S
H353 C297 0.929 . S
H354 C298 0.930 . S
H355 C299 0.930 . S
H356 C302 0.930 . S
H357 C305 0.929 . S
H358 C310 0.929 . S
H359 C311 0.930 . S
H360 C318 0.929 . S
H361 C319 0.930 . S
H362 C320 0.930 . S
H363 C321 0.930 . S
H364 C323 0.929 . S
H365 C324 0.930 . S
H366 C325 0.930 . S
H367 C326 0.930 . S
H368 C330 0.929 . S
H369 C332 0.930 . S
H370 C338 0.929 . S
H371 C339 0.930 . S
Li372 N389 1.990 . S
Li372 O432 1.956 . S
Li372 O433 1.970 . S
Li372 O434 1.961 . S
Li373 N397 1.990 . S
Li373 O432 1.970 . S
Li373 O433 1.956 . S
Li373 O435 1.961 . S
Li374 N419 1.990 . S
Li374 O432 1.961 . S
Li374 O434 1.956 . S
Li374 O435 1.970 . S
Li375 N425 1.990 . S
Li375 O433 1.961 . S
Li375 O434 1.970 . S
Li375 O435 1.956 . S
C376 C378 1.348 . S
C376 C379 1.356 . S
C376 O432 1.325 . S
N377 C380 1.314 . S
N377 C381 1.279 . S
C378 C376 1.348 . S
C378 C380 1.353 . S
C378 H436 0.929 . S
C379 C376 1.356 . S
C379 C381 1.358 . S
C379 H437 0.930 . S
C380 N377 1.314 . S
C380 C378 1.353 . S
C380 H438 0.930 . S
C381 N377 1.279 . S
C381 C379 1.358 . S
C381 H439 0.930 . S
C382 C385 1.348 . S
C382 C386 1.356 . S
C382 O433 1.325 . S
C383 N384 1.279 . S
C383 C386 1.358 . S
C383 H440 0.930 . S
N384 C383 1.279 . S
N384 C387 1.314 . S
C385 C382 1.348 . S
C385 C387 1.353 . S
C385 H441 0.929 . S
C386 C382 1.356 . S
C386 C383 1.358 . S
C386 H442 0.930 . S
C387 N384 1.314 . S
C387 C385 1.353 . S
C387 H443 0.930 . S
C388 N389 1.314 . S
C388 C393 1.353 . S
C388 H394 0.930 . S
N389 Li372 1.990 . S
N389 C388 1.314 . S
N389 C391 1.279 . S
C390 C391 1.358 . S
C390 C392 1.356 . S
C390 H444 0.930 . S
C391 N389 1.279 . S
C391 C390 1.358 . S
C391 H395 0.930 . S
C392 C390 1.356 . S
C392 C393 1.348 . S
C393 C388 1.353 . S
C393 C392 1.348 . S
C393 H445 0.929 . S
H394 C388 0.930 . S
H395 C391 0.930 . S
C396 N397 1.314 . S
C396 C398 1.353 . S
C396 H402 0.930 . S
N397 Li373 1.990 . S
N397 C396 1.314 . S
N397 C400 1.279 . S
C398 C396 1.353 . S
C398 C401 1.348 . S
C398 H446 0.929 . S
C399 C400 1.358 . S
C399 C401 1.356 . S
C399 H447 0.930 . S
C400 N397 1.279 . S
C400 C399 1.358 . S
C400 H403 0.930 . S
C401 C398 1.348 . S
C401 C399 1.356 . S
H402 C396 0.930 . S
H403 C400 0.930 . S
C404 C406 1.348 . S
C404 C407 1.356 . S
C404 O434 1.325 . S
N405 C408 1.314 . S
N405 C409 1.279 . S
C406 C404 1.348 . S
C406 C408 1.353 . S
C406 H448 0.929 . S
C407 C404 1.356 . S
C407 C409 1.358 . S
C407 H449 0.930 . S
C408 N405 1.314 . S
C408 C406 1.353 . S
C408 H450 0.930 . S
C409 N405 1.279 . S
C409 C407 1.358 . S
C409 H451 0.930 . S
C410 C411 1.348 . S
C410 C412 1.356 . S
C410 O435 1.325 . S
C411 C410 1.348 . S
C411 C413 1.353 . S
C411 H452 0.929 . S
C412 C410 1.356 . S
C412 C414 1.358 . S
C412 H453 0.930 . S
C413 C411 1.353 . S
C413 N415 1.314 . S
C413 H454 0.930 . S
C414 C412 1.358 . S
C414 N415 1.279 . S
C414 H455 0.930 . S
N415 C413 1.314 . S
N415 C414 1.279 . S
C416 C418 1.353 . S
C416 N419 1.314 . S
C416 H422 0.930 . S
C417 N419 1.279 . S
C417 C420 1.358 . S
C417 H423 0.930 . S
C418 C416 1.353 . S
C418 C421 1.348 . S
C418 H456 0.929 . S
N419 Li374 1.990 . S
N419 C416 1.314 . S
N419 C417 1.279 . S
C420 C417 1.358 . S
C420 C421 1.356 . S
C420 H457 0.930 . S
C421 C418 1.348 . S
C421 C420 1.356 . S
H422 C416 0.930 . S
H423 C417 0.930 . S
C424 N425 1.314 . S
C424 C426 1.353 . S
C424 H430 0.930 . S
N425 Li375 1.990 . S
N425 C424 1.314 . S
N425 C428 1.279 . S
C426 C424 1.353 . S
C426 C429 1.348 . S
C426 H458 0.929 . S
C427 C428 1.358 . S
C427 C429 1.356 . S
C427 H459 0.930 . S
C428 N425 1.279 . S
C428 C427 1.358 . S
C428 H431 0.930 . S
C429 C426 1.348 . S
C429 C427 1.356 . S
H430 C424 0.930 . S
H431 C428 0.930 . S
O432 Li372 1.956 . S
O432 Li373 1.970 . S
O432 Li374 1.961 . S
O432 C376 1.325 . S
O433 Li372 1.970 . S
O433 Li373 1.956 . S
O433 Li375 1.961 . S
O433 C382 1.325 . S
O434 Li372 1.961 . S
O434 Li374 1.956 . S
O434 Li375 1.970 . S
O434 C404 1.325 . S
O435 Li373 1.961 . S
O435 Li374 1.970 . S
O435 Li375 1.956 . S
O435 C410 1.325 . S
H436 C378 0.929 . S
H437 C379 0.930 . S
H438 C380 0.930 . S
H439 C381 0.930 . S
H440 C383 0.930 . S
H441 C385 0.929 . S
H442 C386 0.930 . S
H443 C387 0.930 . S
H444 C390 0.930 . S
H445 C393 0.929 . S
H446 C398 0.929 . S
H447 C399 0.930 . S
H448 C406 0.929 . S
H449 C407 0.930 . S
H450 C408 0.930 . S
H451 C409 0.930 . S
H452 C411 0.929 . S
H453 C412 0.930 . S
H454 C413 0.930 . S
H455 C414 0.930 . S
H456 C418 0.929 . S
H457 C420 0.930 . S
H458 C426 0.929 . S
H459 C427 0.930 . S
Li460 N477 1.990 . S
Li460 O520 1.956 . S
Li460 O521 1.970 . S
Li460 O522 1.961 . S
Li461 N485 1.990 . S
Li461 O520 1.970 . S
Li461 O521 1.956 . S
Li461 O523 1.961 . S
Li462 N507 1.990 . S
Li462 O520 1.961 . S
Li462 O522 1.956 . S
Li462 O523 1.970 . S
Li463 N513 1.990 . S
Li463 O521 1.961 . S
Li463 O522 1.970 . S
Li463 O523 1.956 . S
C464 C466 1.348 . S
C464 C467 1.356 . S
C464 O520 1.325 . S
N465 C468 1.314 . S
N465 C469 1.279 . S
C466 C464 1.348 . S
C466 C468 1.353 . S
C466 H524 0.929 . S
C467 C464 1.356 . S
C467 C469 1.358 . S
C467 H525 0.930 . S
C468 N465 1.314 . S
C468 C466 1.353 . S
C468 H526 0.930 . S
C469 N465 1.279 . S
C469 C467 1.358 . S
C469 H527 0.930 . S
C470 C473 1.348 . S
C470 C474 1.356 . S
C470 O521 1.325 . S
C471 N472 1.279 . S
C471 C474 1.358 . S
C471 H528 0.930 . S
N472 C471 1.279 . S
N472 C475 1.314 . S
C473 C470 1.348 . S
C473 C475 1.353 . S
C473 H529 0.929 . S
C474 C470 1.356 . S
C474 C471 1.358 . S
C474 H530 0.930 . S
C475 N472 1.314 . S
C475 C473 1.353 . S
C475 H531 0.930 . S
C476 N477 1.314 . S
C476 C481 1.353 . S
C476 H482 0.930 . S
N477 Li460 1.990 . S
N477 C476 1.314 . S
N477 C479 1.279 . S
C478 C479 1.358 . S
C478 C480 1.356 . S
C478 H532 0.930 . S
C479 N477 1.279 . S
C479 C478 1.358 . S
C479 H483 0.930 . S
C480 C478 1.356 . S
C480 C481 1.348 . S
C481 C476 1.353 . S
C481 C480 1.348 . S
C481 H533 0.929 . S
H482 C476 0.930 . S
H483 C479 0.930 . S
C484 N485 1.314 . S
C484 C486 1.353 . S
C484 H490 0.930 . S
N485 Li461 1.990 . S
N485 C484 1.314 . S
N485 C488 1.279 . S
C486 C484 1.353 . S
C486 C489 1.348 . S
C486 H534 0.929 . S
C487 C488 1.358 . S
C487 C489 1.356 . S
C487 H535 0.930 . S
C488 N485 1.279 . S
C488 C487 1.358 . S
C488 H491 0.930 . S
C489 C486 1.348 . S
C489 C487 1.356 . S
H490 C484 0.930 . S
H491 C488 0.930 . S
C492 C494 1.348 . S
C492 C495 1.356 . S
C492 O522 1.325 . S
N493 C496 1.314 . S
N493 C497 1.279 . S
C494 C492 1.348 . S
C494 C496 1.353 . S
C494 H536 0.929 . S
C495 C492 1.356 . S
C495 C497 1.358 . S
C495 H537 0.930 . S
C496 N493 1.314 . S
C496 C494 1.353 . S
C496 H538 0.930 . S
C497 N493 1.279 . S
C497 C495 1.358 . S
C497 H539 0.930 . S
C498 C499 1.348 . S
C498 C500 1.356 . S
C498 O523 1.325 . S
C499 C498 1.348 . S
C499 C501 1.353 . S
C499 H540 0.929 . S
C500 C498 1.356 . S
C500 C502 1.358 . S
C500 H541 0.930 . S
C501 C499 1.353 . S
C501 N503 1.314 . S
C501 H542 0.930 . S
C502 C500 1.358 . S
C502 N503 1.279 . S
C502 H543 0.930 . S
N503 C501 1.314 . S
N503 C502 1.279 . S
C504 C506 1.353 . S
C504 N507 1.314 . S
C504 H510 0.930 . S
C505 N507 1.279 . S
C505 C508 1.358 . S
C505 H511 0.930 . S
C506 C504 1.353 . S
C506 C509 1.348 . S
C506 H544 0.929 . S
N507 Li462 1.990 . S
N507 C504 1.314 . S
N507 C505 1.279 . S
C508 C505 1.358 . S
C508 C509 1.356 . S
C508 H545 0.930 1_554 S
C509 C506 1.348 . S
C509 C508 1.356 . S
H510 C504 0.930 . S
H511 C505 0.930 . S
C512 N513 1.314 . S
C512 C514 1.353 . S
C512 H518 0.930 . S
N513 Li463 1.990 . S
N513 C512 1.314 . S
N513 C516 1.279 . S
C514 C512 1.353 . S
C514 C517 1.348 . S
C514 H546 0.929 . S
C515 C516 1.358 . S
C515 C517 1.356 . S
C515 H547 0.930 . S
C516 N513 1.279 . S
C516 C515 1.358 . S
C516 H519 0.930 . S
C517 C514 1.348 . S
C517 C515 1.356 . S
H518 C512 0.930 . S
H519 C516 0.930 . S
O520 Li460 1.956 . S
O520 Li461 1.970 . S
O520 Li462 1.961 . S
O520 C464 1.325 . S
O521 Li460 1.970 . S
O521 Li461 1.956 . S
O521 Li463 1.961 . S
O521 C470 1.325 . S
O522 Li460 1.961 . S
O522 Li462 1.956 . S
O522 Li463 1.970 . S
O522 C492 1.325 . S
O523 Li461 1.961 . S
O523 Li462 1.970 . S
O523 Li463 1.956 . S
O523 C498 1.325 . S
H524 C466 0.929 . S
H525 C467 0.930 . S
H526 C468 0.930 . S
H527 C469 0.930 . S
H528 C471 0.930 . S
H529 C473 0.929 . S
H530 C474 0.930 . S
H531 C475 0.930 . S
H532 C478 0.930 . S
H533 C481 0.929 . S
H534 C486 0.929 . S
H535 C487 0.930 . S
H536 C494 0.929 . S
H537 C495 0.930 . S
H538 C496 0.930 . S
H539 C497 0.930 . S
H540 C499 0.929 . S
H541 C500 0.930 . S
H542 C501 0.930 . S
H543 C502 0.930 . S
H544 C506 0.929 . S
H545 C508 0.930 1_556 S
H546 C514 0.929 . S
H547 C515 0.930 . S
Li548 N565 1.990 . S
Li548 O608 1.956 . S
Li548 O609 1.970 . S
Li548 O610 1.961 . S
Li549 N573 1.990 . S
Li549 O608 1.970 . S
Li549 O609 1.956 . S
Li549 O611 1.961 . S
Li550 N595 1.990 . S
Li550 O608 1.961 . S
Li550 O610 1.956 . S
Li550 O611 1.970 . S
Li551 N601 1.990 . S
Li551 O609 1.961 . S
Li551 O610 1.970 . S
Li551 O611 1.956 . S
C552 C554 1.348 . S
C552 C555 1.356 . S
C552 O608 1.325 . S
N553 C556 1.314 . S
N553 C557 1.279 . S
C554 C552 1.348 . S
C554 C556 1.353 . S
C554 H612 0.929 . S
C555 C552 1.356 . S
C555 C557 1.358 . S
C555 H613 0.930 . S
C556 N553 1.314 . S
C556 C554 1.353 . S
C556 H614 0.930 . S
C557 N553 1.279 . S
C557 C555 1.358 . S
C557 H615 0.930 . S
C558 C561 1.348 . S
C558 C562 1.356 . S
C558 O609 1.325 . S
C559 N560 1.279 . S
C559 C562 1.358 . S
C559 H616 0.930 . S
N560 C559 1.279 . S
N560 C563 1.314 . S
C561 C558 1.348 . S
C561 C563 1.353 . S
C561 H617 0.929 . S
C562 C558 1.356 . S
C562 C559 1.358 . S
C562 H618 0.930 . S
C563 N560 1.314 . S
C563 C561 1.353 . S
C563 H619 0.930 . S
C564 N565 1.314 . S
C564 C569 1.353 . S
C564 H570 0.930 . S
N565 Li548 1.990 . S
N565 C564 1.314 . S
N565 C567 1.279 . S
C566 C567 1.358 . S
C566 C568 1.356 . S
C566 H620 0.930 . S
C567 N565 1.279 . S
C567 C566 1.358 . S
C567 H571 0.930 . S
C568 C566 1.356 . S
C568 C569 1.348 . S
C569 C564 1.353 . S
C569 C568 1.348 . S
C569 H621 0.929 . S
H570 C564 0.930 . S
H571 C567 0.930 . S
C572 N573 1.314 . S
C572 C574 1.353 . S
C572 H578 0.930 . S
N573 Li549 1.990 . S
N573 C572 1.314 . S
N573 C576 1.279 . S
C574 C572 1.353 . S
C574 C577 1.348 . S
C574 H622 0.929 . S
C575 C576 1.358 . S
C575 C577 1.356 . S
C575 H623 0.930 . S
C576 N573 1.279 . S
C576 C575 1.358 . S
C576 H579 0.930 . S
C577 C574 1.348 . S
C577 C575 1.356 . S
H578 C572 0.930 . S
H579 C576 0.930 . S
C580 C582 1.348 . S
C580 C583 1.356 . S
C580 O610 1.325 . S
N581 C584 1.314 . S
N581 C585 1.279 . S
C582 C580 1.348 . S
C582 C584 1.353 . S
C582 H624 0.929 . S
C583 C580 1.356 . S
C583 C585 1.358 . S
C583 H625 0.930 . S
C584 N581 1.314 . S
C584 C582 1.353 . S
C584 H626 0.930 . S
C585 N581 1.279 . S
C585 C583 1.358 . S
C585 H627 0.930 . S
C586 C587 1.348 . S
C586 C588 1.356 . S
C586 O611 1.325 . S
C587 C586 1.348 . S
C587 C589 1.353 . S
C587 H628 0.929 . S
C588 C586 1.356 . S
C588 C590 1.358 . S
C588 H629 0.930 . S
C589 C587 1.353 . S
C589 N591 1.314 . S
C589 H630 0.930 . S
C590 C588 1.358 . S
C590 N591 1.279 . S
C590 H631 0.930 . S
N591 C589 1.314 . S
N591 C590 1.279 . S
C592 C594 1.353 . S
C592 N595 1.314 . S
C592 H598 0.930 . S
C593 N595 1.279 . S
C593 C596 1.358 . S
C593 H599 0.930 . S
C594 C592 1.353 . S
C594 C597 1.348 . S
C594 H632 0.929 . S
N595 Li550 1.990 . S
N595 C592 1.314 . S
N595 C593 1.279 . S
C596 C593 1.358 . S
C596 C597 1.356 . S
C596 H633 0.930 . S
C597 C594 1.348 . S
C597 C596 1.356 . S
H598 C592 0.930 . S
H599 C593 0.930 . S
C600 N601 1.314 . S
C600 C602 1.353 . S
C600 H606 0.930 . S
N601 Li551 1.990 . S
N601 C600 1.314 . S
N601 C604 1.279 . S
C602 C600 1.353 . S
C602 C605 1.348 . S
C602 H634 0.929 . S
C603 C604 1.358 . S
C603 C605 1.356 . S
C603 H635 0.930 . S
C604 N601 1.279 . S
C604 C603 1.358 . S
C604 H607 0.930 . S
C605 C602 1.348 . S
C605 C603 1.356 . S
H606 C600 0.930 . S
H607 C604 0.930 . S
O608 Li548 1.956 . S
O608 Li549 1.970 . S
O608 Li550 1.961 . S
O608 C552 1.325 . S
O609 Li548 1.970 . S
O609 Li549 1.956 . S
O609 Li551 1.961 . S
O609 C558 1.325 . S
O610 Li548 1.961 . S
O610 Li550 1.956 . S
O610 Li551 1.970 . S
O610 C580 1.325 . S
O611 Li549 1.961 . S
O611 Li550 1.970 . S
O611 Li551 1.956 . S
O611 C586 1.325 . S
H612 C554 0.929 . S
H613 C555 0.930 . S
H614 C556 0.930 . S
H615 C557 0.930 . S
H616 C559 0.930 . S
H617 C561 0.929 . S
H618 C562 0.930 . S
H619 C563 0.930 . S
H620 C566 0.930 . S
H621 C569 0.929 . S
H622 C574 0.929 . S
H623 C575 0.930 . S
H624 C582 0.929 . S
H625 C583 0.930 . S
H626 C584 0.930 . S
H627 C585 0.930 . S
H628 C587 0.929 . S
H629 C588 0.930 . S
H630 C589 0.930 . S
H631 C590 0.930 . S
H632 C594 0.929 . S
H633 C596 0.930 . S
H634 C602 0.929 . S
H635 C603 0.930 . S
C636 C637 1.349 . S
C636 C638 1.327 . S
C636 H661 0.950 . S
C637 C636 1.349 . S
C637 C653 1.349 . S
C638 C636 1.327 . S
C638 C657 1.429 . S
C638 H662 0.950 . S
C639 C656 1.574 . S
C639 C658 1.368 . S
C639 H663 0.949 . S
H640 C644 0.949 . S
C641 C642 1.349 . S
C641 C643 1.327 . S
C641 H664 0.950 . S
C642 C641 1.349 . S
C642 C654 1.349 . S
C643 C641 1.327 . S
C643 C659 1.429 . S
C643 H665 0.950 . S
C644 H640 0.949 . S
C644 C652 1.574 . S
C644 C660 1.368 . S
H645 C653 0.950 . S
H646 C651 0.950 . S
H647 C652 0.949 . S
H648 C654 0.950 . S
H649 C655 0.950 . S
H650 C656 0.949 . S
C651 H646 0.950 . S
C651 C653 1.327 . S
C651 C657 1.429 . S
C652 C644 1.574 . S
C652 H647 0.949 . S
C652 C658 1.368 . S
C653 C637 1.349 . S
C653 H645 0.950 . S
C653 C651 1.327 . S
C654 C642 1.349 . S
C654 H648 0.950 . S
C654 C655 1.327 . S
C655 H649 0.950 . S
C655 C654 1.327 . S
C655 C659 1.429 . S
C656 C639 1.574 . S
C656 H650 0.949 . S
C656 C660 1.368 . S
C657 C638 1.429 . S
C657 C651 1.429 . S
C657 C658 1.523 . S
C658 C639 1.368 . S
C658 C652 1.368 . S
C658 C657 1.523 . S
C659 C643 1.429 . S
C659 C655 1.429 . S
C659 C660 1.523 . S
C660 C644 1.368 . S
C660 C656 1.368 . S
C660 C659 1.523 . S
H661 C636 0.950 . S
H662 C638 0.950 . S
H663 C639 0.949 . S
H664 C641 0.950 . S
H665 C643 0.950 . S
C666 C667 1.349 . S
C666 C668 1.327 . S
C666 H691 0.950 . S
C667 C666 1.349 . S
C667 C683 1.349 . S
C668 C666 1.327 . S
C668 C687 1.429 . S
C668 H692 0.950 . S
C669 C686 1.574 . S
C669 C688 1.368 . S
C669 H693 0.949 . S
H670 C674 0.949 . S
C671 C672 1.349 . S
C671 C673 1.327 . S
C671 H694 0.950 . S
C672 C671 1.349 . S
C672 C684 1.349 . S
C673 C671 1.327 . S
C673 C689 1.429 . S
C673 H695 0.950 . S
C674 H670 0.949 . S
C674 C682 1.574 . S
C674 C690 1.368 . S
H675 C683 0.950 . S
H676 C681 0.950 . S
H677 C682 0.949 . S
H678 C684 0.950 . S
H679 C685 0.950 . S
H680 C686 0.949 . S
C681 H676 0.950 . S
C681 C683 1.327 . S
C681 C687 1.429 . S
C682 C674 1.574 . S
C682 H677 0.949 . S
C682 C688 1.368 . S
C683 C667 1.349 . S
C683 H675 0.950 . S
C683 C681 1.327 . S
C684 C672 1.349 . S
C684 H678 0.950 . S
C684 C685 1.327 . S
C685 H679 0.950 . S
C685 C684 1.327 . S
C685 C689 1.429 . S
C686 C669 1.574 . S
C686 H680 0.949 . S
C686 C690 1.368 . S
C687 C668 1.429 . S
C687 C681 1.429 . S
C687 C688 1.523 . S
C688 C669 1.368 . S
C688 C682 1.368 . S
C688 C687 1.523 . S
C689 C673 1.429 . S
C689 C685 1.429 . S
C689 C690 1.523 . S
C690 C674 1.368 . S
C690 C686 1.368 . S
C690 C689 1.523 . S
H691 C666 0.950 . S
H692 C668 0.950 . S
H693 C669 0.949 . S
H694 C671 0.950 . S
H695 C673 0.950 . S
C696 C697 1.349 . S
C696 C698 1.327 . S
C696 H721 0.950 . S
C697 C696 1.349 . S
C697 C713 1.349 . S
C698 C696 1.327 . S
C698 C717 1.429 . S
C698 H722 0.950 . S
C699 C716 1.574 . S
C699 C718 1.368 . S
C699 H723 0.949 . S
H700 C704 0.949 . S
C701 C702 1.349 . S
C701 C703 1.327 . S
C701 H724 0.950 . S
C702 C701 1.349 . S
C702 C714 1.349 . S
C703 C701 1.327 . S
C703 C719 1.429 . S
C703 H725 0.950 . S
C704 H700 0.949 . S
C704 C712 1.574 . S
C704 C720 1.368 . S
H705 C713 0.950 . S
H706 C711 0.950 . S
H707 C712 0.949 . S
H708 C714 0.950 . S
H709 C715 0.950 . S
H710 C716 0.949 . S
C711 H706 0.950 . S
C711 C713 1.327 . S
C711 C717 1.429 . S
C712 C704 1.574 . S
C712 H707 0.949 . S
C712 C718 1.368 . S
C713 C697 1.349 . S
C713 H705 0.950 . S
C713 C711 1.327 . S
C714 C702 1.349 . S
C714 H708 0.950 . S
C714 C715 1.327 . S
C715 H709 0.950 . S
C715 C714 1.327 . S
C715 C719 1.429 . S
C716 C699 1.574 . S
C716 H710 0.949 . S
C716 C720 1.368 . S
C717 C698 1.429 . S
C717 C711 1.429 . S
C717 C718 1.523 . S
C718 C699 1.368 . S
C718 C712 1.368 . S
C718 C717 1.523 . S
C719 C703 1.429 . S
C719 C715 1.429 . S
C719 C720 1.523 . S
C720 C704 1.368 . S
C720 C716 1.368 . S
C720 C719 1.523 . S
H721 C696 0.950 . S
H722 C698 0.950 . S
H723 C699 0.949 . S
H724 C701 0.950 . S
H725 C703 0.950 . S
C726 C727 1.349 . S
C726 C728 1.327 . S
C726 H751 0.950 . S
C727 C726 1.349 . S
C727 C743 1.349 . S
C728 C726 1.327 . S
C728 C747 1.429 . S
C728 H752 0.950 . S
C729 C746 1.574 . S
C729 C748 1.368 . S
C729 H753 0.949 . S
H730 C734 0.949 . S
C731 C732 1.349 . S
C731 C733 1.327 . S
C731 H754 0.950 . S
C732 C731 1.349 . S
C732 C744 1.349 . S
C733 C731 1.327 . S
C733 C749 1.429 . S
C733 H755 0.950 . S
C734 H730 0.949 . S
C734 C742 1.574 . S
C734 C750 1.368 . S
H735 C743 0.950 . S
H736 C741 0.950 . S
H737 C742 0.949 . S
H738 C744 0.950 . S
H739 C745 0.950 . S
H740 C746 0.949 . S
C741 H736 0.950 . S
C741 C743 1.327 . S
C741 C747 1.429 . S
C742 C734 1.574 . S
C742 H737 0.949 . S
C742 C748 1.368 . S
C743 C727 1.349 . S
C743 H735 0.950 . S
C743 C741 1.327 . S
C744 C732 1.349 . S
C744 H738 0.950 . S
C744 C745 1.327 . S
C745 H739 0.950 . S
C745 C744 1.327 . S
C745 C749 1.429 . S
C746 C729 1.574 . S
C746 H740 0.949 . S
C746 C750 1.368 . S
C747 C728 1.429 . S
C747 C741 1.429 . S
C747 C748 1.523 . S
C748 C729 1.368 . S
C748 C742 1.368 . S
C748 C747 1.523 . S
C749 C733 1.429 . S
C749 C745 1.429 . S
C749 C750 1.523 . S
C750 C734 1.368 . S
C750 C746 1.368 . S
C750 C749 1.523 . S
H751 C726 0.950 . S
H752 C728 0.950 . S
H753 C729 0.949 . S
H754 C731 0.950 . S
H755 C733 0.950 . S
C756 C757 1.349 . S
C756 C758 1.327 . S
C756 H781 0.950 . S
C757 C756 1.349 . S
C757 C773 1.349 . S
C758 C756 1.327 . S
C758 C777 1.429 . S
C758 H782 0.950 . S
C759 C776 1.574 . S
C759 C778 1.368 . S
C759 H783 0.949 . S
H760 C764 0.949 . S
C761 C762 1.349 . S
C761 C763 1.327 . S
C761 H784 0.950 . S
C762 C761 1.349 . S
C762 C774 1.349 . S
C763 C761 1.327 . S
C763 C779 1.429 . S
C763 H785 0.950 . S
C764 H760 0.949 . S
C764 C772 1.574 . S
C764 C780 1.368 . S
H765 C773 0.950 . S
H766 C771 0.950 . S
H767 C772 0.949 . S
H768 C774 0.950 . S
H769 C775 0.950 . S
H770 C776 0.949 . S
C771 H766 0.950 . S
C771 C773 1.327 . S
C771 C777 1.429 . S
C772 C764 1.574 . S
C772 H767 0.949 . S
C772 C778 1.368 . S
C773 C757 1.349 . S
C773 H765 0.950 . S
C773 C771 1.327 . S
C774 C762 1.349 . S
C774 H768 0.950 . S
C774 C775 1.327 . S
C775 H769 0.950 . S
C775 C774 1.327 . S
C775 C779 1.429 . S
C776 C759 1.574 . S
C776 H770 0.949 . S
C776 C780 1.368 . S
C777 C758 1.429 . S
C777 C771 1.429 . S
C777 C778 1.523 . S
C778 C759 1.368 . S
C778 C772 1.368 . S
C778 C777 1.523 . S
C779 C763 1.429 . S
C779 C775 1.429 . S
C779 C780 1.523 . S
C780 C764 1.368 . S
C780 C776 1.368 . S
C780 C779 1.523 . S
H781 C756 0.950 . S
H782 C758 0.950 . S
H783 C759 0.949 . S
H784 C761 0.950 . S
H785 C763 0.950 . S
C786 C787 1.349 . S
C786 C788 1.327 . S
C786 H811 0.950 . S
C787 C786 1.349 . S
C787 C803 1.349 . S
C788 C786 1.327 . S
C788 C807 1.429 . S
C788 H812 0.950 . S
C789 C806 1.574 . S
C789 C808 1.368 . S
C789 H813 0.949 . S
H790 C794 0.949 . S
C791 C792 1.349 . S
C791 C793 1.327 . S
C791 H814 0.950 . S
C792 C791 1.349 . S
C792 C804 1.349 . S
C793 C791 1.327 . S
C793 C809 1.429 . S
C793 H815 0.950 . S
C794 H790 0.949 . S
C794 C802 1.574 . S
C794 C810 1.368 . S
H795 C803 0.950 . S
H796 C801 0.950 . S
H797 C802 0.949 . S
H798 C804 0.950 . S
H799 C805 0.950 . S
H800 C806 0.949 . S
C801 H796 0.950 . S
C801 C803 1.327 . S
C801 C807 1.429 . S
C802 C794 1.574 . S
C802 H797 0.949 . S
C802 C808 1.368 . S
C803 C787 1.349 . S
C803 H795 0.950 . S
C803 C801 1.327 . S
C804 C792 1.349 . S
C804 H798 0.950 . S
C804 C805 1.327 . S
C805 H799 0.950 . S
C805 C804 1.327 . S
C805 C809 1.429 . S
C806 C789 1.574 . S
C806 H800 0.949 . S
C806 C810 1.368 . S
C807 C788 1.429 . S
C807 C801 1.429 . S
C807 C808 1.523 . S
C808 C789 1.368 . S
C808 C802 1.368 . S
C808 C807 1.523 . S
C809 C793 1.429 . S
C809 C805 1.429 . S
C809 C810 1.523 . S
C810 C794 1.368 . S
C810 C806 1.368 . S
C810 C809 1.523 . S
H811 C786 0.950 . S
H812 C788 0.950 . S
H813 C789 0.949 . S
H814 C791 0.950 . S
H815 C793 0.950 . S
C816 C817 1.349 . S
C816 C818 1.327 . S
C816 H841 0.950 . S
C817 C816 1.349 . S
C817 C833 1.349 . S
C818 C816 1.327 . S
C818 C837 1.429 . S
C818 H842 0.950 . S
C819 C836 1.574 . S
C819 C838 1.368 . S
C819 H843 0.949 . S
H820 C824 0.949 . S
C821 C822 1.349 . S
C821 C823 1.327 . S
C821 H844 0.950 . S
C822 C821 1.349 . S
C822 C834 1.349 . S
C823 C821 1.327 . S
C823 C839 1.429 . S
C823 H845 0.950 . S
C824 H820 0.949 . S
C824 C832 1.574 . S
C824 C840 1.368 . S
H825 C833 0.950 . S
H826 C831 0.950 . S
H827 C832 0.949 . S
H828 C834 0.950 . S
H829 C835 0.950 . S
H830 C836 0.949 . S
C831 H826 0.950 . S
C831 C833 1.327 . S
C831 C837 1.429 . S
C832 C824 1.574 . S
C832 H827 0.949 . S
C832 C838 1.368 . S
C833 C817 1.349 . S
C833 H825 0.950 . S
C833 C831 1.327 . S
C834 C822 1.349 . S
C834 H828 0.950 . S
C834 C835 1.327 . S
C835 H829 0.950 . S
C835 C834 1.327 . S
C835 C839 1.429 . S
C836 C819 1.574 . S
C836 H830 0.949 . S
C836 C840 1.368 . S
C837 C818 1.429 . S
C837 C831 1.429 . S
C837 C838 1.523 . S
C838 C819 1.368 . S
C838 C832 1.368 . S
C838 C837 1.523 . S
C839 C823 1.429 . S
C839 C835 1.429 . S
C839 C840 1.523 . S
C840 C824 1.368 . S
C840 C836 1.368 . S
C840 C839 1.523 . S
H841 C816 0.950 . S
H842 C818 0.950 . S
H843 C819 0.949 . S
H844 C821 0.950 . S
H845 C823 0.950 . S
C846 C847 1.349 . S
C846 C848 1.327 . S
C846 H871 0.950 . S
C847 C846 1.349 . S
C847 C863 1.349 . S
C848 C846 1.327 . S
C848 C867 1.429 . S
C848 H872 0.950 . S
C849 C866 1.574 . S
C849 C868 1.368 . S
C849 H873 0.949 . S
H850 C854 0.949 . S
C851 C852 1.349 . S
C851 C853 1.327 . S
C851 H874 0.950 . S
C852 C851 1.349 . S
C852 C864 1.349 . S
C853 C851 1.327 . S
C853 C869 1.429 . S
C853 H875 0.950 . S
C854 H850 0.949 . S
C854 C862 1.574 . S
C854 C870 1.368 . S
H855 C863 0.950 . S
H856 C861 0.950 . S
H857 C862 0.949 . S
H858 C864 0.950 . S
H859 C865 0.950 . S
H860 C866 0.949 . S
C861 H856 0.950 . S
C861 C863 1.327 . S
C861 C867 1.429 . S
C862 C854 1.574 . S
C862 H857 0.949 . S
C862 C868 1.368 . S
C863 C847 1.349 . S
C863 H855 0.950 . S
C863 C861 1.327 . S
C864 C852 1.349 . S
C864 H858 0.950 . S
C864 C865 1.327 . S
C865 H859 0.950 . S
C865 C864 1.327 . S
C865 C869 1.429 . S
C866 C849 1.574 . S
C866 H860 0.949 . S
C866 C870 1.368 . S
C867 C848 1.429 . S
C867 C861 1.429 . S
C867 C868 1.523 . S
C868 C849 1.368 . S
C868 C862 1.368 . S
C868 C867 1.523 . S
C869 C853 1.429 . S
C869 C865 1.429 . S
C869 C870 1.523 . S
C870 C854 1.368 . S
C870 C866 1.368 . S
C870 C869 1.523 . S
H871 C846 0.950 . S
H872 C848 0.950 . S
H873 C849 0.949 . S
H874 C851 0.950 . S
H875 C853 0.950 . S
C876 C877 1.349 . S
C876 C878 1.327 . S
C876 H901 0.950 . S
C877 C876 1.349 . S
C877 C893 1.349 . S
C878 C876 1.327 . S
C878 C897 1.429 . S
C878 H902 0.950 . S
C879 C896 1.574 . S
C879 C898 1.368 . S
C879 H903 0.949 . S
H880 C884 0.949 . S
C881 C882 1.349 . S
C881 C883 1.327 . S
C881 H904 0.950 . S
C882 C881 1.349 . S
C882 C894 1.349 . S
C883 C881 1.327 . S
C883 C899 1.429 . S
C883 H905 0.950 . S
C884 H880 0.949 . S
C884 C892 1.574 . S
C884 C900 1.368 . S
H885 C893 0.950 . S
H886 C891 0.950 . S
H887 C892 0.949 . S
H888 C894 0.950 . S
H889 C895 0.950 . S
H890 C896 0.949 . S
C891 H886 0.950 . S
C891 C893 1.327 . S
C891 C897 1.429 . S
C892 C884 1.574 . S
C892 H887 0.949 . S
C892 C898 1.368 . S
C893 C877 1.349 . S
C893 H885 0.950 . S
C893 C891 1.327 . S
C894 C882 1.349 . S
C894 H888 0.950 . S
C894 C895 1.327 . S
C895 H889 0.950 . S
C895 C894 1.327 . S
C895 C899 1.429 . S
C896 C879 1.574 . S
C896 H890 0.949 . S
C896 C900 1.368 . S
C897 C878 1.429 . S
C897 C891 1.429 . S
C897 C898 1.523 . S
C898 C879 1.368 . S
C898 C892 1.368 . S
C898 C897 1.523 . S
C899 C883 1.429 . S
C899 C895 1.429 . S
C899 C900 1.523 . S
C900 C884 1.368 . S
C900 C896 1.368 . S
C900 C899 1.523 . S
H901 C876 0.950 . S
H902 C878 0.950 . S
H903 C879 0.949 . S
H904 C881 0.950 . S
H905 C883 0.950 . S
C906 C907 1.318 1_556 S
C906 C908 1.311 1_556 S
C906 H931 1.000 . S
C907 C906 1.318 1_554 S
C907 C923 1.349 . S
C908 C906 1.311 1_554 S
C908 C927 1.429 . S
C908 H932 0.950 1_554 S
C909 C926 1.574 . S
C909 C928 1.368 . S
C909 H933 0.949 . S
H910 C914 0.949 . S
C911 C912 1.349 . S
C911 C913 1.327 . S
C911 H934 0.950 . S
C912 C911 1.349 . S
C912 C924 1.349 . S
C913 C911 1.327 . S
C913 C929 1.429 . S
C913 H935 0.950 . S
C914 H910 0.949 . S
C914 C922 1.574 . S
C914 C930 1.368 . S
H915 C923 0.950 . S
H916 C921 0.950 . S
H917 C922 0.949 . S
H918 C924 0.950 . S
H919 C925 0.950 . S
H920 C926 0.949 . S
C921 H916 0.950 . S
C921 C923 1.327 . S
C921 C927 1.429 . S
C922 C914 1.574 . S
C922 H917 0.949 . S
C922 C928 1.368 . S
C923 C907 1.349 . S
C923 H915 0.950 . S
C923 C921 1.327 . S
C924 C912 1.349 . S
C924 H918 0.950 . S
C924 C925 1.327 . S
C925 H919 0.950 . S
C925 C924 1.327 . S
C925 C929 1.429 . S
C926 C909 1.574 . S
C926 H920 0.949 . S
C926 C930 1.368 . S
C927 C908 1.429 . S
C927 C921 1.429 . S
C927 C928 1.523 . S
C928 C909 1.368 . S
C928 C922 1.368 . S
C928 C927 1.523 . S
C929 C913 1.429 . S
C929 C925 1.429 . S
C929 C930 1.523 . S
C930 C914 1.368 . S
C930 C926 1.368 . S
C930 C929 1.523 . S
H931 C906 1.000 . S
H932 C908 0.950 1_556 S
H933 C909 0.949 . S
H934 C911 0.950 . S
H935 C913 0.950 . S
C936 C937 1.349 . S
C936 C938 1.327 . S
C936 H961 0.950 . S
C937 C936 1.349 . S
C937 C953 1.349 . S
C938 C936 1.327 . S
C938 C957 1.429 . S
C938 H962 0.950 . S
C939 C956 1.574 . S
C939 C958 1.368 . S
C939 H963 0.949 . S
H940 C944 0.949 . S
C941 C942 1.349 . S
C941 C943 1.327 . S
C941 H964 0.950 . S
C942 C941 1.349 . S
C942 C954 1.349 . S
C943 C941 1.327 . S
C943 C959 1.429 . S
C943 H965 0.950 . S
C944 H940 0.949 . S
C944 C952 1.574 . S
C944 C960 1.368 . S
H945 C953 0.950 . S
H946 C951 0.950 . S
H947 C952 0.949 . S
H948 C954 0.950 . S
H949 C955 0.950 . S
H950 C956 0.949 . S
C951 H946 0.950 . S
C951 C953 1.327 . S
C951 C957 1.429 . S
C952 C944 1.574 . S
C952 H947 0.949 . S
C952 C958 1.368 . S
C953 C937 1.349 . S
C953 H945 0.950 . S
C953 C951 1.327 . S
C954 C942 1.349 . S
C954 H948 0.950 . S
C954 C955 1.327 . S
C955 H949 0.950 . S
C955 C954 1.327 . S
C955 C959 1.429 . S
C956 C939 1.574 . S
C956 H950 0.949 . S
C956 C960 1.368 . S
C957 C938 1.429 . S
C957 C951 1.429 . S
C957 C958 1.523 . S
C958 C939 1.368 . S
C958 C952 1.368 . S
C958 C957 1.523 . S
C959 C943 1.429 . S
C959 C955 1.429 . S
C959 C960 1.523 . S
C960 C944 1.368 . S
C960 C956 1.368 . S
C960 C959 1.523 . S
H961 C936 0.950 . S
H962 C938 0.950 . S
H963 C939 0.949 . S
H964 C941 0.950 . S
H965 C943 0.950 . S
C966 C967 1.349 . S
C966 C968 1.327 . S
C966 H991 0.950 . S
C967 C966 1.349 . S
C967 C983 1.349 . S
C968 C966 1.327 . S
C968 C987 1.429 . S
C968 H992 0.950 . S
C969 C986 1.574 . S
C969 C988 1.368 . S
C969 H993 0.949 . S
H970 C974 0.949 . S
C971 C972 1.349 . S
C971 C973 1.327 . S
C971 H994 0.950 . S
C972 C971 1.349 . S
C972 C984 1.349 . S
C973 C971 1.327 . S
C973 C989 1.429 . S
C973 H995 0.950 . S
C974 H970 0.949 . S
C974 C982 1.574 . S
C974 C990 1.368 . S
H975 C983 0.950 . S
H976 C981 0.950 . S
H977 C982 0.949 . S
H978 C984 0.950 . S
H979 C985 0.950 . S
H980 C986 0.949 . S
C981 H976 0.950 . S
C981 C983 1.327 . S
C981 C987 1.429 . S
C982 C974 1.574 . S
C982 H977 0.949 . S
C982 C988 1.368 . S
C983 C967 1.349 . S
C983 H975 0.950 . S
C983 C981 1.327 . S
C984 C972 1.349 . S
C984 H978 0.950 . S
C984 C985 1.327 . S
C985 H979 0.950 . S
C985 C984 1.327 . S
C985 C989 1.429 . S
C986 C969 1.574 . S
C986 H980 0.949 . S
C986 C990 1.368 . S
C987 C968 1.429 . S
C987 C981 1.429 . S
C987 C988 1.523 . S
C988 C969 1.368 . S
C988 C982 1.368 . S
C988 C987 1.523 . S
C989 C973 1.429 . S
C989 C985 1.429 . S
C989 C990 1.523 . S
C990 C974 1.368 . S
C990 C986 1.368 . S
C990 C989 1.523 . S
H991 C966 0.950 . S
H992 C968 0.950 . S
H993 C969 0.949 . S
H994 C971 0.950 . S
H995 C973 0.950 . S
C996 C997 1.349 . S
C996 C998 1.327 . S
C996 H1021 0.950 . S
C997 C996 1.349 . S
C997 C1013 1.349 . S
C998 C996 1.327 . S
C998 C1017 1.429 . S
C998 H1022 0.950 . S
C999 C1016 1.574 . S
C999 C1018 1.368 . S
C999 H1023 0.949 . S
H1000 C1004 0.949 . S
C1001 C1002 1.349 . S
C1001 C1003 1.327 . S
C1001 H1024 0.950 . S
C1002 C1001 1.349 . S
C1002 C1014 1.349 . S
C1003 C1001 1.327 . S
C1003 C1019 1.429 . S
C1003 H1025 0.950 . S
C1004 H1000 0.949 . S
C1004 C1012 1.574 . S
C1004 C1020 1.368 . S
H1005 C1013 0.950 . S
H1006 C1011 0.950 . S
H1007 C1012 0.949 . S
H1008 C1014 0.950 . S
H1009 C1015 0.950 . S
H1010 C1016 0.949 . S
C1011 H1006 0.950 . S
C1011 C1013 1.327 . S
C1011 C1017 1.429 . S
C1012 C1004 1.574 . S
C1012 H1007 0.949 . S
C1012 C1018 1.368 . S
C1013 C997 1.349 . S
C1013 H1005 0.950 . S
C1013 C1011 1.327 . S
C1014 C1002 1.349 . S
C1014 H1008 0.950 . S
C1014 C1015 1.327 . S
C1015 H1009 0.950 . S
C1015 C1014 1.327 . S
C1015 C1019 1.429 . S
C1016 C999 1.574 . S
C1016 H1010 0.949 . S
C1016 C1020 1.368 . S
C1017 C998 1.429 . S
C1017 C1011 1.429 . S
C1017 C1018 1.523 . S
C1018 C999 1.368 . S
C1018 C1012 1.368 . S
C1018 C1017 1.523 . S
C1019 C1003 1.429 . S
C1019 C1015 1.429 . S
C1019 C1020 1.523 . S
C1020 C1004 1.368 . S
C1020 C1016 1.368 . S
C1020 C1019 1.523 . S
H1021 C996 0.950 . S
H1022 C998 0.950 . S
H1023 C999 0.949 . S
H1024 C1001 0.950 . S
H1025 C1003 0.950 . S
C1026 C1027 1.349 . S
C1026 C1028 1.327 . S
C1026 H1051 0.950 . S
C1027 C1026 1.349 . S
C1027 C1043 1.349 . S
C1028 C1026 1.327 . S
C1028 C1047 1.429 . S
C1028 H1052 0.950 . S
C1029 C1046 1.574 . S
C1029 C1048 1.368 . S
C1029 H1053 0.949 . S
H1030 C1034 0.949 . S
C1031 C1032 1.349 . S
C1031 C1033 1.327 . S
C1031 H1054 0.950 . S
C1032 C1031 1.349 . S
C1032 C1044 1.349 . S
C1033 C1031 1.327 . S
C1033 C1049 1.429 . S
C1033 H1055 0.950 . S
C1034 H1030 0.949 . S
C1034 C1042 1.574 . S
C1034 C1050 1.368 . S
H1035 C1043 0.950 . S
H1036 C1041 0.950 . S
H1037 C1042 0.949 . S
H1038 C1044 0.950 . S
H1039 C1045 0.950 . S
H1040 C1046 0.949 . S
C1041 H1036 0.950 . S
C1041 C1043 1.327 . S
C1041 C1047 1.429 . S
C1042 C1034 1.574 . S
C1042 H1037 0.949 . S
C1042 C1048 1.368 . S
C1043 C1027 1.349 . S
C1043 H1035 0.950 . S
C1043 C1041 1.327 . S
C1044 C1032 1.349 . S
C1044 H1038 0.950 . S
C1044 C1045 1.327 . S
C1045 H1039 0.950 . S
C1045 C1044 1.327 . S
C1045 C1049 1.429 . S
C1046 C1029 1.574 . S
C1046 H1040 0.949 . S
C1046 C1050 1.368 . S
C1047 C1028 1.429 . S
C1047 C1041 1.429 . S
C1047 C1048 1.523 . S
C1048 C1029 1.368 . S
C1048 C1042 1.368 . S
C1048 C1047 1.523 . S
C1049 C1033 1.429 . S
C1049 C1045 1.429 . S
C1049 C1050 1.523 . S
C1050 C1034 1.368 . S
C1050 C1046 1.368 . S
C1050 C1049 1.523 . S
H1051 C1026 0.950 . S
H1052 C1028 0.950 . S
H1053 C1029 0.949 . S
H1054 C1031 0.950 . S
H1055 C1033 0.950 . S
C1056 C1057 1.349 . S
C1056 C1058 1.327 . S
C1056 H1081 0.950 . S
C1057 C1056 1.349 . S
C1057 C1073 1.349 . S
C1058 C1056 1.327 . S
C1058 C1077 1.429 . S
C1058 H1082 0.950 . S
C1059 C1076 1.574 . S
C1059 C1078 1.368 . S
C1059 H1083 0.949 . S
H1060 C1064 0.949 . S
C1061 C1062 1.349 . S
C1061 C1063 1.327 . S
C1061 H1084 0.950 . S
C1062 C1061 1.349 . S
C1062 C1074 1.349 . S
C1063 C1061 1.327 . S
C1063 C1079 1.429 . S
C1063 H1085 0.950 . S
C1064 H1060 0.949 . S
C1064 C1072 1.574 . S
C1064 C1080 1.368 . S
H1065 C1073 0.950 . S
H1066 C1071 0.950 . S
H1067 C1072 0.949 . S
H1068 C1074 0.950 . S
H1069 C1075 0.950 . S
H1070 C1076 0.949 . S
C1071 H1066 0.950 . S
C1071 C1073 1.327 . S
C1071 C1077 1.429 . S
C1072 C1064 1.574 . S
C1072 H1067 0.949 . S
C1072 C1078 1.368 . S
C1073 C1057 1.349 . S
C1073 H1065 0.950 . S
C1073 C1071 1.327 . S
C1074 C1062 1.349 . S
C1074 H1068 0.950 . S
C1074 C1075 1.327 . S
C1075 H1069 0.950 . S
C1075 C1074 1.327 . S
C1075 C1079 1.429 . S
C1076 C1059 1.574 . S
C1076 H1070 0.949 . S
C1076 C1080 1.368 . S
C1077 C1058 1.429 . S
C1077 C1071 1.429 . S
C1077 C1078 1.523 . S
C1078 C1059 1.368 . S
C1078 C1072 1.368 . S
C1078 C1077 1.523 . S
C1079 C1063 1.429 . S
C1079 C1075 1.429 . S
C1079 C1080 1.523 . S
C1080 C1064 1.368 . S
C1080 C1076 1.368 . S
C1080 C1079 1.523 . S
H1081 C1056 0.950 . S
H1082 C1058 0.950 . S
H1083 C1059 0.949 . S
H1084 C1061 0.950 . S
H1085 C1063 0.950 . S
C1086 C1087 1.349 . S
C1086 C1088 1.327 . S
C1086 H1111 0.950 . S
C1087 C1086 1.349 . S
C1087 C1103 1.349 . S
C1088 C1086 1.327 . S
C1088 C1107 1.429 . S
C1088 H1112 0.950 . S
C1089 C1106 1.574 . S
C1089 C1108 1.368 . S
C1089 H1113 0.949 . S
H1090 C1094 0.949 . S
C1091 C1092 1.349 . S
C1091 C1093 1.327 . S
C1091 H1114 0.950 . S
C1092 C1091 1.349 . S
C1092 C1104 1.349 . S
C1093 C1091 1.327 . S
C1093 C1109 1.429 . S
C1093 H1115 0.950 . S
C1094 H1090 0.949 . S
C1094 C1102 1.574 . S
C1094 C1110 1.368 . S
H1095 C1103 0.950 . S
H1096 C1101 0.950 . S
H1097 C1102 0.949 . S
H1098 C1104 0.950 . S
H1099 C1105 0.950 . S
H1100 C1106 0.949 . S
C1101 H1096 0.950 . S
C1101 C1103 1.327 . S
C1101 C1107 1.429 . S
C1102 C1094 1.574 . S
C1102 H1097 0.949 . S
C1102 C1108 1.368 . S
C1103 C1087 1.349 . S
C1103 H1095 0.950 . S
C1103 C1101 1.327 . S
C1104 C1092 1.349 . S
C1104 H1098 0.950 . S
C1104 C1105 1.327 . S
C1105 H1099 0.950 . S
C1105 C1104 1.327 . S
C1105 C1109 1.429 . S
C1106 C1089 1.574 . S
C1106 H1100 0.949 . S
C1106 C1110 1.368 . S
C1107 C1088 1.429 . S
C1107 C1101 1.429 . S
C1107 C1108 1.523 . S
C1108 C1089 1.368 . S
C1108 C1102 1.368 . S
C1108 C1107 1.523 . S
C1109 C1093 1.429 . S
C1109 C1105 1.429 . S
C1109 C1110 1.523 . S
C1110 C1094 1.368 . S
C1110 C1106 1.368 . S
C1110 C1109 1.523 . S
H1111 C1086 0.950 . S
H1112 C1088 0.950 . S
H1113 C1089 0.949 . S
H1114 C1091 0.950 . S
H1115 C1093 0.950 . S
C1116 C1117 1.349 . S
C1116 C1118 1.327 . S
C1116 H1141 0.950 . S
C1117 C1116 1.349 . S
C1117 C1133 1.349 . S
C1118 C1116 1.327 . S
C1118 C1137 1.429 . S
C1118 H1142 0.950 . S
C1119 C1136 1.574 . S
C1119 C1138 1.368 . S
C1119 H1143 0.949 . S
H1120 C1124 0.949 . S
C1121 C1122 1.349 . S
C1121 C1123 1.327 . S
C1121 H1144 0.950 . S
C1122 C1121 1.349 . S
C1122 C1134 1.349 . S
C1123 C1121 1.327 . S
C1123 C1139 1.429 . S
C1123 H1145 0.950 . S
C1124 H1120 0.949 . S
C1124 C1132 1.574 . S
C1124 C1140 1.368 . S
H1125 C1133 0.950 . S
H1126 C1131 0.950 . S
H1127 C1132 0.949 . S
H1128 C1134 0.950 . S
H1129 C1135 0.950 . S
H1130 C1136 0.949 . S
C1131 H1126 0.950 . S
C1131 C1133 1.327 . S
C1131 C1137 1.429 . S
C1132 C1124 1.574 . S
C1132 H1127 0.949 . S
C1132 C1138 1.368 . S
C1133 C1117 1.349 . S
C1133 H1125 0.950 . S
C1133 C1131 1.327 . S
C1134 C1122 1.349 . S
C1134 H1128 0.950 . S
C1134 C1135 1.327 . S
C1135 H1129 0.950 . S
C1135 C1134 1.327 . S
C1135 C1139 1.429 . S
C1136 C1119 1.574 . S
C1136 H1130 0.949 . S
C1136 C1140 1.368 . S
C1137 C1118 1.429 . S
C1137 C1131 1.429 . S
C1137 C1138 1.523 . S
C1138 C1119 1.368 . S
C1138 C1132 1.368 . S
C1138 C1137 1.523 . S
C1139 C1123 1.429 . S
C1139 C1135 1.429 . S
C1139 C1140 1.523 . S
C1140 C1124 1.368 . S
C1140 C1136 1.368 . S
C1140 C1139 1.523 . S
H1141 C1116 0.950 . S
H1142 C1118 0.950 . S
H1143 C1119 0.949 . S
H1144 C1121 0.950 . S
H1145 C1123 0.950 . S
C1146 C1147 1.349 . S
C1146 C1148 1.327 . S
C1146 H1171 0.950 . S
C1147 C1146 1.349 . S
C1147 C1163 1.349 . S
C1148 C1146 1.327 . S
C1148 C1167 1.429 . S
C1148 H1172 0.950 . S
C1149 C1166 1.574 . S
C1149 C1168 1.368 . S
C1149 H1173 0.949 . S
H1150 C1154 0.949 . S
C1151 C1152 1.349 . S
C1151 C1153 1.327 . S
C1151 H1174 0.950 . S
C1152 C1151 1.349 . S
C1152 C1164 1.349 . S
C1153 C1151 1.327 . S
C1153 C1169 1.429 . S
C1153 H1175 0.950 . S
C1154 H1150 0.949 . S
C1154 C1162 1.574 . S
C1154 C1170 1.368 . S
H1155 C1163 0.950 . S
H1156 C1161 0.950 . S
H1157 C1162 0.949 . S
H1158 C1164 0.950 . S
H1159 C1165 0.950 . S
H1160 C1166 0.949 . S
C1161 H1156 0.950 . S
C1161 C1163 1.327 . S
C1161 C1167 1.429 . S
C1162 C1154 1.574 . S
C1162 H1157 0.949 . S
C1162 C1168 1.368 . S
C1163 C1147 1.349 . S
C1163 H1155 0.950 . S
C1163 C1161 1.327 . S
C1164 C1152 1.349 . S
C1164 H1158 0.950 . S
C1164 C1165 1.327 . S
C1165 H1159 0.950 . S
C1165 C1164 1.327 . S
C1165 C1169 1.429 . S
C1166 C1149 1.574 . S
C1166 H1160 0.949 . S
C1166 C1170 1.368 . S
C1167 C1148 1.429 . S
C1167 C1161 1.429 . S
C1167 C1168 1.523 . S
C1168 C1149 1.368 . S
C1168 C1162 1.368 . S
C1168 C1167 1.523 . S
C1169 C1153 1.429 . S
C1169 C1165 1.429 . S
C1169 C1170 1.523 . S
C1170 C1154 1.368 . S
C1170 C1166 1.368 . S
C1170 C1169 1.523 . S
H1171 C1146 0.950 . S
H1172 C1148 0.950 . S
H1173 C1149 0.949 . S
H1174 C1151 0.950 . S
H1175 C1153 0.950 . S
C1176 C1177 1.349 . S
C1176 C1178 1.327 . S
C1176 H1201 0.950 . S
C1177 C1176 1.349 . S
C1177 C1193 1.349 . S
C1178 C1176 1.327 . S
C1178 C1197 1.429 . S
C1178 H1202 0.950 . S
C1179 C1196 1.574 . S
C1179 C1198 1.368 . S
C1179 H1203 0.949 . S
H1180 C1184 0.949 . S
C1181 C1182 1.349 . S
C1181 C1183 1.327 . S
C1181 H1204 0.950 . S
C1182 C1181 1.349 . S
C1182 C1194 1.349 . S
C1183 C1181 1.327 . S
C1183 C1199 1.429 . S
C1183 H1205 0.950 . S
C1184 H1180 0.949 . S
C1184 C1192 1.574 . S
C1184 C1200 1.368 . S
H1185 C1193 0.950 . S
H1186 C1191 0.950 . S
H1187 C1192 0.949 . S
H1188 C1194 0.950 . S
H1189 C1195 0.950 . S
H1190 C1196 0.949 . S
C1191 H1186 0.950 . S
C1191 C1193 1.327 . S
C1191 C1197 1.429 . S
C1192 C1184 1.574 . S
C1192 H1187 0.949 . S
C1192 C1198 1.368 . S
C1193 C1177 1.349 . S
C1193 H1185 0.950 . S
C1193 C1191 1.327 . S
C1194 C1182 1.349 . S
C1194 H1188 0.950 . S
C1194 C1195 1.327 . S
C1195 H1189 0.950 . S
C1195 C1194 1.327 . S
C1195 C1199 1.429 . S
C1196 C1179 1.574 . S
C1196 H1190 0.949 . S
C1196 C1200 1.368 . S
C1197 C1178 1.429 . S
C1197 C1191 1.429 . S
C1197 C1198 1.523 . S
C1198 C1179 1.368 . S
C1198 C1192 1.368 . S
C1198 C1197 1.523 . S
C1199 C1183 1.429 . S
C1199 C1195 1.429 . S
C1199 C1200 1.523 . S
C1200 C1184 1.368 . S
C1200 C1196 1.368 . S
C1200 C1199 1.523 . S
H1201 C1176 0.950 . S
H1202 C1178 0.950 . S
H1203 C1179 0.949 . S
H1204 C1181 0.950 . S
H1205 C1183 0.950 . S
C1206 C1207 1.349 . S
C1206 C1208 1.327 . S
C1206 H1231 0.950 . S
C1207 C1206 1.349 . S
C1207 C1223 1.349 . S
C1208 C1206 1.327 . S
C1208 C1227 1.429 . S
C1208 H1232 0.950 . S
C1209 C1226 1.574 . S
C1209 C1228 1.368 . S
C1209 H1233 0.949 . S
H1210 C1214 0.949 . S
C1211 C1212 1.349 . S
C1211 C1213 1.327 . S
C1211 H1234 0.950 . S
C1212 C1211 1.349 . S
C1212 C1224 1.349 . S
C1213 C1211 1.327 . S
C1213 C1229 1.429 . S
C1213 H1235 0.950 . S
C1214 H1210 0.949 . S
C1214 C1222 1.574 . S
C1214 C1230 1.368 . S
H1215 C1223 0.950 . S
H1216 C1221 0.950 . S
H1217 C1222 0.949 . S
H1218 C1224 0.950 . S
H1219 C1225 0.950 . S
H1220 C1226 0.949 . S
C1221 H1216 0.950 . S
C1221 C1223 1.327 . S
C1221 C1227 1.429 . S
C1222 C1214 1.574 . S
C1222 H1217 0.949 . S
C1222 C1228 1.368 . S
C1223 C1207 1.349 . S
C1223 H1215 0.950 . S
C1223 C1221 1.327 . S
C1224 C1212 1.349 . S
C1224 H1218 0.950 . S
C1224 C1225 1.327 . S
C1225 H1219 0.950 . S
C1225 C1224 1.327 . S
C1225 C1229 1.429 . S
C1226 C1209 1.574 . S
C1226 H1220 0.949 . S
C1226 C1230 1.368 . S
C1227 C1208 1.429 . S
C1227 C1221 1.429 . S
C1227 C1228 1.523 . S
C1228 C1209 1.368 . S
C1228 C1222 1.368 . S
C1228 C1227 1.523 . S
C1229 C1213 1.429 . S
C1229 C1225 1.429 . S
C1229 C1230 1.523 . S
C1230 C1214 1.368 . S
C1230 C1226 1.368 . S
C1230 C1229 1.523 . S
H1231 C1206 0.950 . S
H1232 C1208 0.950 . S
H1233 C1209 0.949 . S
H1234 C1211 0.950 . S
H1235 C1213 0.950 . S
C1236 C1237 1.349 . S
C1236 C1238 1.327 . S
C1236 H1261 0.950 . S
C1237 C1236 1.349 . S
C1237 C1253 1.349 . S
C1238 C1236 1.327 . S
C1238 C1257 1.429 . S
C1238 H1262 0.950 . S
C1239 C1256 1.574 . S
C1239 C1258 1.368 . S
C1239 H1263 0.949 . S
H1240 C1244 0.949 . S
C1241 C1242 1.349 . S
C1241 C1243 1.327 . S
C1241 H1264 0.950 . S
C1242 C1241 1.349 . S
C1242 C1254 1.349 . S
C1243 C1241 1.327 . S
C1243 C1259 1.429 . S
C1243 H1265 0.950 . S
C1244 H1240 0.949 . S
C1244 C1252 1.574 . S
C1244 C1260 1.368 . S
H1245 C1253 0.950 . S
H1246 C1251 0.950 . S
H1247 C1252 0.949 . S
H1248 C1254 0.950 . S
H1249 C1255 0.950 . S
H1250 C1256 0.949 . S
C1251 H1246 0.950 . S
C1251 C1253 1.327 . S
C1251 C1257 1.429 . S
C1252 C1244 1.574 . S
C1252 H1247 0.949 . S
C1252 C1258 1.368 . S
C1253 C1237 1.349 . S
C1253 H1245 0.950 . S
C1253 C1251 1.327 . S
C1254 C1242 1.349 . S
C1254 H1248 0.950 . S
C1254 C1255 1.327 . S
C1255 H1249 0.950 . S
C1255 C1254 1.327 . S
C1255 C1259 1.429 . S
C1256 C1239 1.574 . S
C1256 H1250 0.949 . S
C1256 C1260 1.368 . S
C1257 C1238 1.429 . S
C1257 C1251 1.429 . S
C1257 C1258 1.523 . S
C1258 C1239 1.368 . S
C1258 C1252 1.368 . S
C1258 C1257 1.523 . S
C1259 C1243 1.429 . S
C1259 C1255 1.429 . S
C1259 C1260 1.523 . S
C1260 C1244 1.368 . S
C1260 C1256 1.368 . S
C1260 C1259 1.523 . S
H1261 C1236 0.950 . S
H1262 C1238 0.950 . S
H1263 C1239 0.949 . S
H1264 C1241 0.950 . S
H1265 C1243 0.950 . S
C1266 C1267 1.349 . S
C1266 C1268 1.327 . S
C1266 H1291 0.950 . S
C1267 C1266 1.349 . S
C1267 C1283 1.349 . S
C1268 C1266 1.327 . S
C1268 C1287 1.429 . S
C1268 H1292 0.950 . S
C1269 C1286 1.574 . S
C1269 C1288 1.368 . S
C1269 H1293 0.949 . S
H1270 C1274 0.949 . S
C1271 C1272 1.349 . S
C1271 C1273 1.327 . S
C1271 H1294 0.950 . S
C1272 C1271 1.349 . S
C1272 C1284 1.349 . S
C1273 C1271 1.327 . S
C1273 C1289 1.429 . S
C1273 H1295 0.950 . S
C1274 H1270 0.949 . S
C1274 C1282 1.574 . S
C1274 C1290 1.368 . S
H1275 C1283 0.950 . S
H1276 C1281 0.950 . S
H1277 C1282 0.949 . S
H1278 C1284 0.950 . S
H1279 C1285 0.950 . S
H1280 C1286 0.949 . S
C1281 H1276 0.950 . S
C1281 C1283 1.327 . S
C1281 C1287 1.429 . S
C1282 C1274 1.574 . S
C1282 H1277 0.949 . S
C1282 C1288 1.368 . S
C1283 C1267 1.349 . S
C1283 H1275 0.950 . S
C1283 C1281 1.327 . S
C1284 C1272 1.349 . S
C1284 H1278 0.950 . S
C1284 C1285 1.327 . S
C1285 H1279 0.950 . S
C1285 C1284 1.327 . S
C1285 C1289 1.429 . S
C1286 C1269 1.574 . S
C1286 H1280 0.949 . S
C1286 C1290 1.368 . S
C1287 C1268 1.429 . S
C1287 C1281 1.429 . S
C1287 C1288 1.523 . S
C1288 C1269 1.368 . S
C1288 C1282 1.368 . S
C1288 C1287 1.523 . S
C1289 C1273 1.429 . S
C1289 C1285 1.429 . S
C1289 C1290 1.523 . S
C1290 C1274 1.368 . S
C1290 C1286 1.368 . S
C1290 C1289 1.523 . S
H1291 C1266 0.950 . S
H1292 C1268 0.950 . S
H1293 C1269 0.949 . S
H1294 C1271 0.950 . S
H1295 C1273 0.950 . S
C1296 C1297 1.349 . S
C1296 C1298 1.327 . S
C1296 H1321 0.950 . S
C1297 C1296 1.349 . S
C1297 C1313 1.349 . S
C1298 C1296 1.327 . S
C1298 C1317 1.429 . S
C1298 H1322 0.950 . S
C1299 C1316 1.574 . S
C1299 C1318 1.368 . S
C1299 H1323 0.949 . S
H1300 C1304 0.949 . S
C1301 C1302 1.363 . S
C1301 C1303 1.327 . S
C1301 H1324 0.932 1_554 S
C1302 C1301 1.363 . S
C1302 C1314 1.373 . S
C1303 C1301 1.327 . S
C1303 C1319 1.429 . S
C1303 H1325 0.950 . S
C1304 H1300 0.949 . S
C1304 C1312 1.574 . S
C1304 C1320 1.368 . S
H1305 C1313 0.950 . S
H1306 C1311 0.950 . S
H1307 C1312 0.949 . S
H1308 C1314 0.950 . S
H1309 C1315 0.950 . S
H1310 C1316 0.949 . S
C1311 H1306 0.950 . S
C1311 C1313 1.327 . S
C1311 C1317 1.429 . S
C1312 C1304 1.574 . S
C1312 H1307 0.949 . S
C1312 C1318 1.368 . S
C1313 C1297 1.349 . S
C1313 H1305 0.950 . S
C1313 C1311 1.327 . S
C1314 C1302 1.373 . S
C1314 H1308 0.950 . S
C1314 C1315 1.327 . S
C1315 H1309 0.950 . S
C1315 C1314 1.327 . S
C1315 C1319 1.429 . S
C1316 C1299 1.574 . S
C1316 H1310 0.949 . S
C1316 C1320 1.368 . S
C1317 C1298 1.429 . S
C1317 C1311 1.429 . S
C1317 C1318 1.523 . S
C1318 C1299 1.368 . S
C1318 C1312 1.368 . S
C1318 C1317 1.523 . S
C1319 C1303 1.429 . S
C1319 C1315 1.429 . S
C1319 C1320 1.523 . S
C1320 C1304 1.368 . S
C1320 C1316 1.368 . S
C1320 C1319 1.523 . S
H1321 C1296 0.950 . S
H1322 C1298 0.950 . S
H1323 C1299 0.949 . S
H1324 C1301 0.932 1_556 S
H1325 C1303 0.950 . S
C1326 C1327 1.349 . S
C1326 C1328 1.327 . S
C1326 H1351 0.950 . S
C1327 C1326 1.349 . S
C1327 C1343 1.349 . S
C1328 C1326 1.327 . S
C1328 C1347 1.429 . S
C1328 H1352 0.950 . S
C1329 C1346 1.574 . S
C1329 C1348 1.368 . S
C1329 H1353 0.949 . S
H1330 C1334 0.949 . S
C1331 C1332 1.349 . S
C1331 C1333 1.327 . S
C1331 H1354 0.950 . S
C1332 C1331 1.349 . S
C1332 C1344 1.349 . S
C1333 C1331 1.327 . S
C1333 C1349 1.429 . S
C1333 H1355 0.950 . S
C1334 H1330 0.949 . S
C1334 C1342 1.574 . S
C1334 C1350 1.368 . S
H1335 C1343 0.950 . S
H1336 C1341 0.950 . S
H1337 C1342 0.949 . S
H1338 C1344 0.950 . S
H1339 C1345 0.950 . S
H1340 C1346 0.949 . S
C1341 H1336 0.950 . S
C1341 C1343 1.327 . S
C1341 C1347 1.429 . S
C1342 C1334 1.574 . S
C1342 H1337 0.949 . S
C1342 C1348 1.368 . S
C1343 C1327 1.349 . S
C1343 H1335 0.950 . S
C1343 C1341 1.327 . S
C1344 C1332 1.349 . S
C1344 H1338 0.950 . S
C1344 C1345 1.327 . S
C1345 H1339 0.950 . S
C1345 C1344 1.327 . S
C1345 C1349 1.429 . S
C1346 C1329 1.574 . S
C1346 H1340 0.949 . S
C1346 C1350 1.368 . S
C1347 C1328 1.429 . S
C1347 C1341 1.429 . S
C1347 C1348 1.523 . S
C1348 C1329 1.368 . S
C1348 C1342 1.368 . S
C1348 C1347 1.523 . S
C1349 C1333 1.429 . S
C1349 C1345 1.429 . S
C1349 C1350 1.523 . S
C1350 C1334 1.368 . S
C1350 C1346 1.368 . S
C1350 C1349 1.523 . S
H1351 C1326 0.950 . S
H1352 C1328 0.950 . S
H1353 C1329 0.949 . S
H1354 C1331 0.950 . S
H1355 C1333 0.950 . S
C642 C577 1.555 . S
C637 C8 1.517 . S
C667 C26 1.519 . S
C672 C137 1.557 . S
C697 C50 1.524 . S
C702 C225 1.567 . S
C727 C68 1.516 . S
C732 C304 1.560 . S
C762 C401 1.555 . S
C757 C80 1.517 . S
C787 C104 1.517 . S
C792 C480 1.560 . S
C817 C32 1.524 . S
C822 C245 1.568 . S
C847 C44 1.519 . S
C852 C341 1.557 . S
C877 C62 1.517 . S
C882 C421 1.555 . S
C912 C517 1.560 . S
C907 C86 1.517 1_554 S
C942 C597 1.555 . S
C937 C98 1.517 . S
C972 C157 1.559 . S
C967 C14 1.516 . S
C997 C7 1.462 . S
C1002 C253 1.518 . S
C1027 C25 1.459 . S
C1032 C333 1.516 . S
C1062 C429 1.512 . S
C1057 C52 1.458 . S
C1087 C70 1.463 . S
C1092 C509 1.518 1_556 S
C1122 C605 1.515 . S
C1117 C79 1.458 . S
C1152 C165 1.513 . S
C1147 C106 1.458 . S
C1182 C568 1.512 . S
C1177 C34 1.458 . S
C1207 C43 1.459 . S
C1212 C128 1.516 . S
C1242 C216 1.519 . S
C1237 C61 1.462 . S
C1267 C88 1.459 . S
C1272 C313 1.514 . S
C1297 C97 1.458 . S
C1302 C392 1.476 1_554 S
C1327 C16 1.463 . S
C1332 C489 1.518 . S
