# Generated by pormake.
# Topology nom, (4,4)-cn, num edge types: 1
# Building blocks:
#     Node 0, Type 0, BuildingBlock: KUFVIS_clean_linker_0, # of connection points: 4
#     Node 1, Type 0, BuildingBlock: KUFVIS_clean_linker_0, # of connection points: 4
#     Node 2, Type 0, BuildingBlock: KUFVIS_clean_linker_0, # of connection points: 4
#     Node 3, Type 0, BuildingBlock: KUFVIS_clean_linker_0, # of connection points: 4
#     Node 4, Type 0, BuildingBlock: KUFVIS_clean_linker_0, # of connection points: 4
#     Node 5, Type 0, BuildingBlock: KUFVIS_clean_linker_0, # of connection points: 4
#     Node 6, Type 1, BuildingBlock: GALJAG_clean_sbu_0, # of connection points: 4
#     Node 7, Type 1, BuildingBlock: GALJAG_clean_sbu_0, # of connection points: 4
#     Node 8, Type 1, BuildingBlock: GALJAG_clean_sbu_0, # of connection points: 4
#     Node 9, Type 1, BuildingBlock: GALJAG_clean_sbu_0, # of connection points: 4
#     Node 10, Type 1, BuildingBlock: GALJAG_clean_sbu_0, # of connection points: 4
#     Node 11, Type 1, BuildingBlock: GALJAG_clean_sbu_0, # of connection points: 4
#     Edge 12, Type (0, 1), BuildingBlock: OJICUG_clean_linker_0, # of connection points: 2
#     Edge 13, Type (0, 1), BuildingBlock: OJICUG_clean_linker_0, # of connection points: 2
#     Edge 14, Type (0, 1), BuildingBlock: OJICUG_clean_linker_0, # of connection points: 2
#     Edge 15, Type (0, 1), BuildingBlock: OJICUG_clean_linker_0, # of connection points: 2
#     Edge 16, Type (0, 1), BuildingBlock: OJICUG_clean_linker_0, # of connection points: 2
#     Edge 17, Type (0, 1), BuildingBlock: OJICUG_clean_linker_0, # of connection points: 2
#     Edge 18, Type (0, 1), BuildingBlock: OJICUG_clean_linker_0, # of connection points: 2
#     Edge 19, Type (0, 1), BuildingBlock: OJICUG_clean_linker_0, # of connection points: 2
#     Edge 20, Type (0, 1), BuildingBlock: OJICUG_clean_linker_0, # of connection points: 2
#     Edge 21, Type (0, 1), BuildingBlock: OJICUG_clean_linker_0, # of connection points: 2
#     Edge 22, Type (0, 1), BuildingBlock: OJICUG_clean_linker_0, # of connection points: 2
#     Edge 23, Type (0, 1), BuildingBlock: OJICUG_clean_linker_0, # of connection points: 2
#     Edge 24, Type (0, 1), BuildingBlock: OJICUG_clean_linker_0, # of connection points: 2
#     Edge 25, Type (0, 1), BuildingBlock: OJICUG_clean_linker_0, # of connection points: 2
#     Edge 26, Type (0, 1), BuildingBlock: OJICUG_clean_linker_0, # of connection points: 2
#     Edge 27, Type (0, 1), BuildingBlock: OJICUG_clean_linker_0, # of connection points: 2
#     Edge 28, Type (0, 1), BuildingBlock: OJICUG_clean_linker_0, # of connection points: 2
#     Edge 29, Type (0, 1), BuildingBlock: OJICUG_clean_linker_0, # of connection points: 2
#     Edge 30, Type (0, 1), BuildingBlock: OJICUG_clean_linker_0, # of connection points: 2
#     Edge 31, Type (0, 1), BuildingBlock: OJICUG_clean_linker_0, # of connection points: 2
#     Edge 32, Type (0, 1), BuildingBlock: OJICUG_clean_linker_0, # of connection points: 2
#     Edge 33, Type (0, 1), BuildingBlock: OJICUG_clean_linker_0, # of connection points: 2
#     Edge 34, Type (0, 1), BuildingBlock: OJICUG_clean_linker_0, # of connection points: 2
#     Edge 35, Type (0, 1), BuildingBlock: OJICUG_clean_linker_0, # of connection points: 2
# Relax obj value: 0.012
# Max RMSD: 0.070
# Mean RMSD: 0.062
data_MOF--net-nom--node1-GALJAG_clean_sbu_0--node2-KUFVIS_clean_linker_0--edge1-OJICUG_clean_linker_0
_symmetry_space_group_name_H-M    P1
_symmetry_Int_Tables_number       1
_symmetry_cell_setting            triclinic
loop_
_symmetry_equiv_pos_as_xyz
'x, y, z'
_cell_length_a     31.808228
_cell_length_b     32.023707
_cell_length_c     37.583821
_cell_angle_alpha  90.393227
_cell_angle_beta   89.79565
_cell_angle_gamma 119.43066
loop_
_atom_site_label
_atom_site_type_symbol
_atom_site_fract_x
_atom_site_fract_y
_atom_site_fract_z
_atom_type_partial_charge
H0 H 0.22449 0.65865 0.32369 0.0
H1 H 0.11747 0.62626 0.24323 0.0
H2 H 0.07624 0.55864 0.34647 0.0
H3 H 1.00776 0.56565 0.33219 0.0
H4 H 0.90522 0.48174 0.25166 0.0
H5 H 0.05645 0.54827 0.22821 0.0
C6 C 0.18706 0.63895 0.31523 0.0
C7 C 0.15174 0.60786 0.33893 0.0
C8 C 0.17492 0.64562 0.28089 0.0
C9 C 0.12656 0.62053 0.26983 0.0
C10 C 0.09011 0.58903 0.29342 0.0
C11 C 0.10328 0.58328 0.32813 0.0
C12 C 1.03875 0.56086 0.28163 0.0
C13 C 1.0004 0.55108 0.30541 0.0
C14 C 0.95229 0.52168 0.29474 0.0
C15 C 0.94249 0.50323 0.26011 0.0
C16 C 0.97968 0.51302 0.23596 0.0
C17 C 1.02776 0.54187 0.24676 0.0
H18 H 0.61699 0.20031 0.49785 0.0
H19 H 0.53655 0.0991 0.41566 0.0
H20 H 0.5552 0.05008 0.51848 0.0
H21 H 0.48012 0.98591 0.50248 0.0
H22 H 0.46247 0.88486 0.42059 0.0
H23 H 0.54864 0.03512 0.3998 0.0
C24 C 0.59628 0.16337 0.48885 0.0
C25 C 0.58765 0.12623 0.51218 0.0
C26 C 0.57839 0.15389 0.45411 0.0
C27 C 0.55039 0.10617 0.44262 0.0
C28 C 0.54172 0.0679 0.46563 0.0
C29 C 0.56026 0.07857 0.5006 0.0
C30 C 0.51695 1.01722 0.45263 0.0
C31 C 0.4876 0.9789 0.47563 0.0
C32 C 0.46893 0.93122 0.4642 0.0
C33 C 0.4781 0.9218 0.42958 0.0
C34 C 0.50628 0.95894 0.40625 0.0
C35 C 0.52555 1.0066 0.41773 0.0
H36 H 0.60195 0.41858 0.58932 0.0
H37 H 0.52895 0.45117 0.67171 0.0
H38 H 0.55479 0.52076 0.56925 0.0
H39 H 0.48207 0.51729 0.58445 0.0
H40 H 0.46239 0.59789 0.66806 0.0
H41 H 0.54343 0.52652 0.68893 0.0
C42 C 0.58435 0.43841 0.5984 0.0
C43 C 0.5802 0.47027 0.57533 0.0
C44 C 0.56614 0.43164 0.63302 0.0
C45 C 0.54336 0.45717 0.64492 0.0
C46 C 0.53842 0.48942 0.62206 0.0
C47 C 0.55691 0.49542 0.58707 0.0
C48 C 0.5157 0.51803 0.63497 0.0
C49 C 0.48856 0.53025 0.61167 0.0
C50 C 0.47022 0.55994 0.62338 0.0
C51 C 0.47773 0.57612 0.65864 0.0
C52 C 0.50342 0.56371 0.68232 0.0
C53 C 0.52239 0.53472 0.67055 0.0
H54 H 0.21963 0.59757 0.7475 0.0
H55 H 0.11933 0.51845 0.83044 0.0
H56 H 0.06813 0.52694 0.7255 0.0
H57 H 1.00792 0.45101 0.74253 0.0
H58 H 0.90191 0.42198 0.8233 0.0
H59 H 1.05024 0.52442 0.84422 0.0
C60 C 0.18268 0.57606 0.75665 0.0
C61 C 0.14488 0.56373 0.73272 0.0
C62 C 0.17389 0.56026 0.79186 0.0
C63 C 0.12602 0.53102 0.80323 0.0
C64 C 0.08702 0.51881 0.77956 0.0
C65 C 0.09715 0.5351 0.74409 0.0
C66 C 1.03588 0.49093 0.79196 0.0
C67 C 0.9992 0.45803 0.769 0.0
C68 C 0.95102 0.43337 0.78041 0.0
C69 C 0.93923 0.44155 0.8146 0.0
C70 C 0.97471 0.47418 0.83771 0.0
C71 C 1.02304 0.49853 0.82645 0.0
H72 H 0.49905 0.88564 -0.00255 0.0
H73 H 0.58346 0.98631 0.91674 0.0
H74 H 0.56777 0.0361 0.02074 0.0
H75 H 0.64725 0.09556 0.00539 0.0
H76 H 0.67912 0.20174 0.92537 0.0
H77 H 0.57536 0.05483 0.90327 0.0
C78 C 0.52074 0.92252 -0.01114 0.0
C79 C 0.53122 0.95978 0.01293 0.0
C80 C 0.53903 0.93168 0.95423 0.0
C81 C 0.56895 0.97932 0.94351 0.0
C82 C 0.57946 1.01773 -0.03269 0.0
C83 C 0.56065 1.00734 0.00217 0.0
C84 C 0.60816 0.06857 0.95558 0.0
C85 C 0.64099 0.10464 -0.02105 0.0
C86 C 0.66654 0.15258 -0.0321 0.0
C87 C 0.65898 0.16464 0.93381 0.0
C88 C 0.62624 0.12971 0.91043 0.0
C89 C 0.60126 0.08167 0.92125 0.0
H90 H 0.5176 0.65643 0.09168 0.0
H91 H 0.59594 0.62699 0.1709 0.0
H92 H 0.57049 0.55949 0.06703 0.0
H93 H 0.64827 0.5713 0.08041 0.0
H94 H 0.68071 0.49638 0.16023 0.0
H95 H 0.58408 0.55 0.18514 0.0
C96 C 0.53628 0.63736 0.09975 0.0
C97 C 0.54157 0.60692 0.07555 0.0
C98 C 0.5557 0.64462 0.13396 0.0
C99 C 0.58043 0.62057 0.14447 0.0
C100 C 0.58641 0.58968 0.12043 0.0
C101 C 0.56695 0.5834 0.08581 0.0
C102 C 0.6127 0.56393 0.13137 0.0
C103 C 0.64285 0.55697 0.1071 0.0
C104 C 0.66738 0.53272 0.11763 0.0
C105 C 0.66137 0.51479 0.15217 0.0
C106 C 0.63157 0.52099 0.17659 0.0
C107 C 0.60758 0.54586 0.16623 0.0
In108 In 0.67473 0.43079 0.37578 0.0
O109 O 0.75479 0.49017 0.37433 0.0
O110 O 0.73532 0.42197 0.35196 0.0
C111 C 0.64935 0.45931 0.43625 0.0
C112 C 0.64657 0.45582 0.31549 0.0
C113 C 0.63981 0.33732 0.39198 0.0
O114 O 0.6911 0.46515 0.43112 0.0
O115 O 0.62063 0.43992 0.41063 0.0
O116 O 0.61396 0.35176 0.37677 0.0
O117 O 0.68204 0.36985 0.39926 0.0
C118 C 0.76863 0.46377 0.359 0.0
O119 O 0.63959 0.41406 0.32087 0.0
O120 O 0.66709 0.48486 0.34077 0.0
In121 In 0.28642 0.65296 0.53773 0.0
O122 O 0.31029 0.59559 0.5385 0.0
O123 O 0.3519 0.66069 0.56703 0.0
C124 C 0.23408 0.62398 0.47709 0.0
C125 C 0.22829 0.6261 0.59532 0.0
C126 C 0.34547 0.7466 0.52279 0.0
O127 O 0.2709 0.61959 0.48208 0.0
O128 O 0.22351 0.64264 0.50273 0.0
O129 O 0.30498 0.73222 0.53756 0.0
O130 O 0.35514 0.71389 0.51506 0.0
C131 C 0.34687 0.6206 0.55768 0.0
O132 O 0.26027 0.66894 0.58982 0.0
O133 O 0.22548 0.59671 0.57168 0.0
In134 In 0.67048 0.25715 0.7107 0.0
O135 O 0.74455 0.3239 0.70205 0.0
O136 O 0.74188 0.26657 0.73167 0.0
C137 C 0.65204 0.20338 0.6513 0.0
C138 C 0.63785 0.20763 0.77178 0.0
C139 C 0.62441 0.30805 0.69877 0.0
O140 O 0.69049 0.24278 0.65541 0.0
O141 O 0.62343 0.19091 0.67734 0.0
O142 O 0.66218 0.32422 0.71742 0.0
O143 O 0.60946 0.26612 0.68714 0.0
C144 C 0.76761 0.30816 0.71948 0.0
O145 O 0.6416 0.24839 0.76751 0.0
O146 O 0.64972 0.19174 0.74511 0.0
In147 In 0.45008 0.65374 0.87799 0.0
O148 O 0.36936 0.59642 0.87705 0.0
O149 O 0.3921 0.66108 0.84852 0.0
C150 C 0.4749 0.62492 0.93804 0.0
C151 C 0.48169 0.62664 0.82016 0.0
C152 C 0.48203 0.74711 0.89413 0.0
O153 O 0.43315 0.61899 0.93294 0.0
O154 O 0.50402 0.64517 0.91285 0.0
O155 O 0.50839 0.7337 0.87815 0.0
O156 O 0.4408 0.71361 0.90247 0.0
C157 C 0.35746 0.62117 0.85784 0.0
O158 O 0.49233 0.66955 0.82606 0.0
O159 O 0.45519 0.59734 0.84351 0.0
In160 In 0.84517 0.43119 0.03798 0.0
O161 O 0.86071 0.41153 0.09281 0.0
O162 O 0.91122 0.47914 0.07152 0.0
C163 C 0.79366 0.33459 0.02912 0.0
C164 C 0.79231 0.47559 0.05006 0.0
C165 C 0.89557 0.46315 -0.02325 0.0
O166 O 0.83511 0.36016 0.01609 0.0
O167 O 0.77836 0.35753 0.04743 0.0
O168 O 0.85476 0.46001 -0.01878 0.0
O169 O 0.91106 0.45098 0.00326 0.0
C170 C 0.89964 0.45041 0.09715 0.0
O171 O 0.77644 0.43741 0.03205 0.0
O172 O 0.835 0.49187 0.06092 0.0
In173 In 0.45439 0.82384 0.20901 0.0
O174 O 0.46329 0.75755 0.21809 0.0
O175 O 0.5127 0.81164 0.18364 0.0
C176 C 0.48978 0.87808 0.26812 0.0
C177 C 0.47214 0.87822 0.15059 0.0
C178 C 0.3576 0.77137 0.21936 0.0
O179 O 0.48968 0.83888 0.26392 0.0
O180 O 0.47233 0.88974 0.24253 0.0
O181 O 0.38372 0.81173 0.23364 0.0
O182 O 0.3801 0.7574 0.19919 0.0
C183 C 0.49917 0.77136 0.19762 0.0
O184 O 0.43307 0.8395 0.15486 0.0
O185 O 0.50191 0.88924 0.1757 0.0
C186 C 0.23425 0.66232 0.23198 0.0
C187 C 0.21427 0.67948 0.25765 0.0
H188 H 0.29581 0.67833 0.19934 0.0
C189 C 0.2388 0.72829 0.26682 0.0
H190 H 0.21624 0.62456 0.22508 0.0
C191 C 0.28417 0.7589 0.25241 0.0
C192 C 0.30606 0.74113 0.22878 0.0
H193 H 0.22424 0.74204 0.28697 0.0
H194 H 0.30326 0.79585 0.26142 0.0
C195 C 0.27988 0.693 0.21755 0.0
C196 C 0.6415 0.22772 0.42559 0.0
C197 C 0.59224 0.1953 0.43041 0.0
H198 H 0.6949 0.29788 0.40964 0.0
C199 C 0.55798 0.20758 0.4184 0.0
H200 H 0.66853 0.21899 0.43473 0.0
C201 C 0.57312 0.25316 0.40399 0.0
C202 C 0.62261 0.28685 0.40177 0.0
H203 H 0.5198 0.18326 0.42228 0.0
H204 H 0.54625 0.26292 0.39649 0.0
C205 C 0.65653 0.27299 0.41153 0.0
C206 C 0.40027 0.54162 0.58288 0.0
C207 C 0.44308 0.57526 0.59983 0.0
H208 H 0.33561 0.52962 0.55604 0.0
C209 C 0.45619 0.62399 0.59901 0.0
H210 H 0.38926 0.5038 0.5834 0.0
C211 C 0.42554 0.63855 0.58405 0.0
C212 C 0.38117 0.60477 0.56922 0.0
H213 H 0.48921 0.65069 0.61163 0.0
H214 H 0.43596 0.67623 0.58518 0.0
C215 C 0.3695 0.55634 0.56755 0.0
C216 C 0.88644 0.35057 0.76656 0.0
C217 C 0.91138 0.39922 0.75737 0.0
H218 H 0.82152 0.28328 0.7612 0.0
C219 C 0.89165 0.4163 0.73176 0.0
H220 H 0.90081 0.33693 0.78668 0.0
C221 C 0.84586 0.38582 0.71748 0.0
C222 C 0.8193 0.33788 0.72867 0.0
H223 H 0.90999 0.45395 0.72483 0.0
H224 H 0.83015 0.40051 0.69935 0.0
C225 C 0.84095 0.32007 0.75217 0.0
C226 C 0.5607 0.87875 0.91801 0.0
C227 C 0.52569 0.88991 0.93053 0.0
H228 H 0.57429 0.82411 0.89643 0.0
C229 C 0.47664 0.85587 0.92669 0.0
H230 H 0.59875 0.90426 0.9211 0.0
C231 C 0.46277 0.81022 0.91339 0.0
C232 C 0.49762 0.79763 0.90329 0.0
H233 H 0.449 0.86367 0.93617 0.0
H234 H 0.42465 0.78413 0.91236 0.0
C235 C 0.54671 0.83284 0.90429 0.0
C236 C 0.68215 0.48893 0.06822 0.0
C237 C 0.70046 0.52599 0.09363 0.0
H238 H 0.69717 0.44383 0.03411 0.0
C239 C 0.75007 0.55016 0.10108 0.0
H240 H 0.64381 0.46934 0.06257 0.0
C241 C 0.78053 0.53573 0.08497 0.0
C242 C 0.76181 0.4964 0.06141 0.0
H243 H 0.76474 0.57844 0.12098 0.0
H244 H 0.81824 0.55367 0.09257 0.0
C245 C 0.71263 0.47421 0.05219 0.0
C246 C 0.45774 0.8569 0.49248 0.0
C247 C 0.44104 0.88968 0.48763 0.0
H248 H 0.44042 0.78599 0.5073 0.0
C249 C 0.39415 0.87731 0.49873 0.0
H250 H 0.49375 0.86569 0.48399 0.0
C251 C 0.3633 0.83131 0.51212 0.0
C252 C 0.37902 0.79729 0.51416 0.0
H253 H 0.38039 0.90188 0.49477 0.0
H254 H 0.32646 0.82153 0.51886 0.0
C255 C 0.42704 0.81117 0.50547 0.0
C256 C 0.60717 0.41552 0.68333 0.0
C257 C 0.5725 0.39803 0.65611 0.0
H258 H 0.65104 0.40045 0.71846 0.0
C259 C 0.55073 0.34945 0.64647 0.0
H260 H 0.62486 0.4531 0.69076 0.0
C261 C 0.56543 0.31938 0.66225 0.0
C262 C 0.60273 0.33755 0.68759 0.0
H263 H 0.52425 0.33543 0.62527 0.0
H264 H 0.5495 0.2826 0.65301 0.0
C265 C 0.6223 0.38549 0.69894 0.0
C266 C 0.25121 0.6244 0.81683 0.0
C267 C 0.21608 0.57565 0.81569 0.0
H268 H 0.32322 0.67667 0.83086 0.0
C269 C 0.2257 0.54208 0.83236 0.0
H270 H 0.24455 0.65103 0.80438 0.0
C271 C 0.27113 0.55686 0.84771 0.0
C272 C 0.3074 0.60529 0.84631 0.0
H273 H 0.1993 0.50426 0.83158 0.0
H274 H 0.27864 0.53018 0.85898 0.0
C275 C 0.29635 0.639 0.83178 0.0
C276 C 0.75012 0.21618 -0.01834 0.0
C277 C 0.70114 0.19169 -0.00888 0.0
H278 H 0.81809 0.28047 -0.01321 0.0
C279 C 0.68426 0.21156 0.01708 0.0
H280 H 0.76364 0.20174 0.96127 0.0
C281 C 0.71524 0.25703 0.03142 0.0
C282 C 0.76348 0.28317 0.01991 0.0
H283 H 0.64637 0.19359 0.02423 0.0
H284 H 0.70067 0.27286 0.04981 0.0
C285 C 0.78109 0.26138 -0.00393 0.0
C286 C 0.5142 0.66207 0.18367 0.0
C287 C 0.55022 0.67881 0.15742 0.0
H288 H 0.4697 0.67864 0.21739 0.0
C289 C 0.57357 0.72745 0.14819 0.0
H290 H 0.4952 0.62445 0.19067 0.0
C291 C 0.55898 0.75829 0.16317 0.0
C292 C 0.52043 0.74094 0.18746 0.0
H293 H 0.601 0.74087 0.12763 0.0
H294 H 0.57609 0.79508 0.15413 0.0
C295 C 0.49943 0.69299 0.19867 0.0
C296 C 0.89949 0.54305 0.33172 0.0
C297 C 0.91079 0.50844 0.31887 0.0
H298 H 0.84491 0.55603 0.35478 0.0
C299 C 0.87739 0.45968 0.32346 0.0
H300 H 0.92455 0.58086 0.32808 0.0
C301 C 0.83212 0.44558 0.33811 0.0
C302 C 0.81921 0.47991 0.34866 0.0
H303 H 0.88535 0.43237 0.31376 0.0
H304 H 0.80648 0.40761 0.3398 0.0
C305 C 0.8539 0.52884 0.34667 0.0
C306 C 0.1463 0.61281 0.40508 0.0
C307 C 0.1666 0.60297 0.37519 0.0
H308 H 0.15208 0.62743 0.4611 0.0
C309 C 0.2057 0.59467 0.37977 0.0
H310 H 0.11632 0.6196 0.40212 0.0
C311 C 0.22609 0.59905 0.41334 0.0
C312 C 0.20797 0.61218 0.44289 0.0
H313 H 0.22174 0.58673 0.35708 0.0
H314 H 0.25742 0.59432 0.41581 0.0
C315 C 0.16698 0.61759 0.43869 0.0
C316 C 0.65486 0.1753 0.55424 0.0
C317 C 0.60714 0.1385 0.54874 0.0
H318 H 0.70668 0.22453 0.59126 0.0
C319 C 0.57663 0.11841 0.57817 0.0
H320 H 0.67931 0.19088 0.53196 0.0
C321 C 0.59235 0.13764 0.61218 0.0
C322 C 0.63878 0.17713 0.61716 0.0
H323 H 0.53969 0.09009 0.57459 0.0
H324 H 0.56721 0.12334 0.63418 0.0
C325 C 0.67053 0.19449 0.58814 0.0
C326 C 0.52569 0.62955 0.72647 0.0
C327 C 0.50826 0.58062 0.71953 0.0
H328 H 0.53133 0.68253 0.764 0.0
C329 C 0.48768 0.54757 0.7473 0.0
H330 H 0.54168 0.65563 0.70536 0.0
C331 C 0.48118 0.56285 0.78084 0.0
C332 C 0.49549 0.61141 0.78702 0.0
H333 H 0.47361 0.50963 0.74241 0.0
H334 H 0.46285 0.53635 0.80133 0.0
C335 C 0.51955 0.64485 0.75995 0.0
C336 C 0.91895 0.48583 0.87844 0.0
C337 C 0.96023 0.48094 0.87387 0.0
H338 H 0.86629 0.48445 0.91473 0.0
C339 C 0.98363 0.4765 0.90399 0.0
H340 H 0.90059 0.48996 0.85563 0.0
C341 C 0.96397 0.47334 0.93787 0.0
C342 C 0.92072 0.47475 0.94211 0.0
H343 H 1.01538 0.4725 0.90118 0.0
H344 H 0.98137 0.46745 0.9605 0.0
C345 C 0.89938 0.48278 0.91224 0.0
C346 C 0.46517 0.91148 0.05582 0.0
C347 C 0.51308 0.94743 0.04976 0.0
H348 H 0.41452 0.86131 0.09275 0.0
C349 C 0.54527 0.96542 0.07851 0.0
H350 H 0.43952 0.89747 0.03409 0.0
C351 C 0.53095 0.94473 0.11211 0.0
C352 C 0.48428 0.90583 0.11734 0.0
H353 H 0.58242 0.99296 0.07447 0.0
H354 H 0.55729 0.95736 0.1334 0.0
C355 C 0.4509 0.89077 0.08932 0.0
C356 C 0.61744 0.45486 0.21813 0.0
C357 C 0.62733 0.50226 0.21309 0.0
H358 H 0.61513 0.40283 0.25464 0.0
C359 C 0.63867 0.53289 0.24269 0.0
H360 H 0.60835 0.4305 0.1957 0.0
C361 C 0.64306 0.51723 0.27646 0.0
C362 C 0.63565 0.47054 0.28113 0.0
H363 H 0.64672 0.56968 0.2394 0.0
H364 H 0.65395 0.54219 0.29861 0.0
C365 C 0.62131 0.43907 0.25185 0.0
C366 C 0.50142 0.96544 0.3404 0.0
C367 C 0.51347 0.94647 0.36966 0.0
H368 H 0.48454 0.95845 0.28486 0.0
C369 C 0.52492 0.90974 0.36411 0.0
H370 H 0.49231 0.99364 0.34404 0.0
C371 C 0.52009 0.8893 0.33045 0.0
C372 C 0.50391 0.90542 0.30177 0.0
H373 H 0.53494 0.89496 0.38627 0.0
H374 H 0.52654 0.85926 0.32735 0.0
C375 C 0.49666 0.94502 0.30664 0.0
C376 C 0.57053 0.46666 0.50908 0.0
C377 C 0.60027 0.47612 0.53896 0.0
H378 H 0.56281 0.45368 0.45279 0.0
C379 C 0.64789 0.48532 0.53419 0.0
H380 H 0.5336 0.45919 0.51217 0.0
C381 C 0.66468 0.48245 0.50041 0.0
C382 C 0.63398 0.4698 0.47077 0.0
H383 H 0.67155 0.49293 0.55688 0.0
H384 H 0.70097 0.48791 0.49781 0.0
C385 C 0.58719 0.46326 0.47522 0.0
C386 C 0.14441 0.5474 0.66766 0.0
C387 C 0.15692 0.58053 0.69569 0.0
H388 H 0.15761 0.53599 0.61345 0.0
C389 C 0.18803 0.6294 0.68914 0.0
H390 H 0.12077 0.50949 0.67227 0.0
C391 C 0.20907 0.64457 0.65574 0.0
C392 C 0.19965 0.61104 0.62838 0.0
H393 H 0.19807 0.65552 0.71047 0.0
H394 H 0.23468 0.68221 0.65195 0.0
C395 C 0.16579 0.56255 0.63419 0.0
C396 C 0.61561 0.18559 0.87015 0.0
C397 C 0.61995 0.14429 0.87444 0.0
H398 H 0.61742 0.23785 0.8341 0.0
C399 C 0.62383 0.12052 0.84417 0.0
H400 H 0.61185 0.20418 0.89309 0.0
C401 C 0.62697 0.13978 0.81037 0.0
C402 C 0.6261 0.18298 0.80637 0.0
H403 H 0.62737 0.08872 0.84678 0.0
H404 H 0.63242 0.12207 0.7876 0.0
C405 C 0.61865 0.20477 0.83642 0.0
C406 C 0.47428 0.59291 0.03456 0.0
C407 C 0.52196 0.60227 0.03921 0.0
H408 H 0.42185 0.59226 -0.00127 0.0
C409 C 0.55242 0.61389 0.0095 0.0
H410 H 0.45008 0.5837 0.05712 0.0
C411 C 0.53645 0.61931 -0.02391 0.0
C412 C 0.48965 0.61276 -0.0281 0.0
H413 H 0.58943 0.62161 0.0125 0.0
H414 H 0.56136 0.63048 0.95388 0.0
C415 C 0.4582 0.59789 0.00119 0.0
C416 C 0.98583 0.52516 0.17005 0.0
C417 C 0.96687 0.49417 0.19918 0.0
H418 H 0.97925 0.53539 0.11453 0.0
C419 C 0.93031 0.4466 0.19337 0.0
H420 H 1.01387 0.56203 0.17385 0.0
C421 C 0.91026 0.43145 0.1596 0.0
C422 C 0.92653 0.46356 0.13102 0.0
H423 H 0.91553 0.4218 0.21536 0.0
H424 H 0.88046 0.39532 0.15632 0.0
C425 C 0.96576 0.50996 0.1362 0.0
loop_
_geom_bond_atom_site_label_1
_geom_bond_atom_site_label_2
_geom_bond_distance
_geom_bond_site_symmetry_2
_ccdc_geom_bond_type
H0 C6 0.930 . S
H1 C9 0.931 . S
H2 C11 0.931 . S
H3 C13 0.930 . S
H4 C15 0.930 . S
H5 C17 0.924 1_455 S
C6 H0 0.930 . S
C6 C7 1.380 . S
C6 C8 1.394 . S
C7 C6 1.380 . S
C7 C11 1.382 . S
C8 C6 1.394 . S
C8 C9 1.400 . S
C9 H1 0.931 . S
C9 C8 1.400 . S
C9 C10 1.375 . S
C10 C9 1.375 . S
C10 C11 1.415 . S
C10 C12 1.501 1_455 S
C11 H2 0.931 . S
C11 C7 1.382 . S
C11 C10 1.415 . S
C12 C10 1.501 1_655 S
C12 C13 1.384 . S
C12 C17 1.408 . S
C13 H3 0.930 . S
C13 C12 1.384 . S
C13 C14 1.389 . S
C14 C13 1.389 . S
C14 C15 1.405 . S
C15 H4 0.930 . S
C15 C14 1.405 . S
C15 C16 1.364 . S
C16 C15 1.364 . S
C16 C17 1.400 . S
C17 H5 0.924 1_655 S
C17 C12 1.408 . S
C17 C16 1.400 . S
H18 C24 0.930 . S
H19 C27 0.931 . S
H20 C29 0.931 . S
H21 C31 0.930 . S
H22 C33 0.930 . S
H23 C35 0.924 1_545 S
C24 H18 0.930 . S
C24 C25 1.380 . S
C24 C26 1.394 . S
C25 C24 1.380 . S
C25 C29 1.382 . S
C26 C24 1.394 . S
C26 C27 1.400 . S
C27 H19 0.931 . S
C27 C26 1.400 . S
C27 C28 1.375 . S
C28 C27 1.375 . S
C28 C29 1.415 . S
C28 C30 1.501 1_545 S
C29 H20 0.931 . S
C29 C25 1.382 . S
C29 C28 1.415 . S
C30 C28 1.501 1_565 S
C30 C31 1.384 . S
C30 C35 1.408 . S
C31 H21 0.930 . S
C31 C30 1.384 . S
C31 C32 1.389 . S
C32 C31 1.389 . S
C32 C33 1.405 . S
C33 H22 0.930 . S
C33 C32 1.405 . S
C33 C34 1.364 . S
C34 C33 1.364 . S
C34 C35 1.400 . S
C35 H23 0.924 1_565 S
C35 C30 1.408 . S
C35 C34 1.400 . S
H36 C42 0.930 . S
H37 C45 0.931 . S
H38 C47 0.931 . S
H39 C49 0.930 . S
H40 C51 0.930 . S
H41 C53 0.931 . S
C42 H36 0.930 . S
C42 C43 1.380 . S
C42 C44 1.394 . S
C43 C42 1.380 . S
C43 C47 1.382 . S
C44 C42 1.394 . S
C44 C45 1.400 . S
C45 H37 0.931 . S
C45 C44 1.400 . S
C45 C46 1.375 . S
C46 C45 1.375 . S
C46 C47 1.415 . S
C46 C48 1.501 . S
C47 H38 0.931 . S
C47 C43 1.382 . S
C47 C46 1.415 . S
C48 C46 1.501 . S
C48 C49 1.384 . S
C48 C53 1.408 . S
C49 H39 0.930 . S
C49 C48 1.384 . S
C49 C50 1.389 . S
C50 C49 1.389 . S
C50 C51 1.405 . S
C51 H40 0.930 . S
C51 C50 1.405 . S
C51 C52 1.364 . S
C52 C51 1.364 . S
C52 C53 1.400 . S
C53 H41 0.931 . S
C53 C48 1.408 . S
C53 C52 1.400 . S
H54 C60 0.930 . S
H55 C63 0.931 . S
H56 C65 0.931 . S
H57 C67 0.930 . S
H58 C69 0.930 . S
H59 C71 0.936 . S
C60 H54 0.930 . S
C60 C61 1.380 . S
C60 C62 1.394 . S
C61 C60 1.380 . S
C61 C65 1.382 . S
C62 C60 1.394 . S
C62 C63 1.400 . S
C63 H55 0.931 . S
C63 C62 1.400 . S
C63 C64 1.375 . S
C64 C63 1.375 . S
C64 C65 1.415 . S
C64 C66 1.501 1_455 S
C65 H56 0.931 . S
C65 C61 1.382 . S
C65 C64 1.415 . S
C66 C64 1.501 1_655 S
C66 C67 1.384 . S
C66 C71 1.408 . S
C67 H57 0.930 . S
C67 C66 1.384 . S
C67 C68 1.389 . S
C68 C67 1.389 . S
C68 C69 1.405 . S
C69 H58 0.930 . S
C69 C68 1.405 . S
C69 C70 1.364 . S
C70 C69 1.364 . S
C70 C71 1.400 . S
C71 H59 0.936 . S
C71 C66 1.408 . S
C71 C70 1.400 . S
H72 C78 0.930 . S
H73 C81 0.931 . S
H74 C83 0.925 1_545 S
H75 C85 0.930 . S
H76 C87 0.930 . S
H77 C89 0.931 . S
C78 H72 0.930 . S
C78 C79 1.380 . S
C78 C80 1.394 1_554 S
C79 C78 1.380 . S
C79 C83 1.382 . S
C80 C78 1.394 1_556 S
C80 C81 1.400 . S
C81 H73 0.931 . S
C81 C80 1.400 . S
C81 C82 1.375 . S
C82 C81 1.375 . S
C82 C83 1.415 1_556 S
C82 C84 1.501 1_565 S
C83 H74 0.925 1_565 S
C83 C79 1.382 . S
C83 C82 1.415 1_554 S
C84 C82 1.501 1_545 S
C84 C85 1.384 1_556 S
C84 C89 1.408 . S
C85 H75 0.930 . S
C85 C84 1.384 1_554 S
C85 C86 1.389 1_554 S
C86 C85 1.389 1_556 S
C86 C87 1.405 . S
C87 H76 0.930 . S
C87 C86 1.405 . S
C87 C88 1.364 . S
C88 C87 1.364 . S
C88 C89 1.400 . S
C89 H77 0.931 . S
C89 C84 1.408 . S
C89 C88 1.400 . S
H90 C96 0.930 . S
H91 C99 0.931 . S
H92 C101 0.931 . S
H93 C103 0.930 . S
H94 C105 0.930 . S
H95 C107 0.931 . S
C96 H90 0.930 . S
C96 C97 1.380 . S
C96 C98 1.394 . S
C97 C96 1.380 . S
C97 C101 1.382 . S
C98 C96 1.394 . S
C98 C99 1.400 . S
C99 H91 0.931 . S
C99 C98 1.400 . S
C99 C100 1.375 . S
C100 C99 1.375 . S
C100 C101 1.415 . S
C100 C102 1.501 . S
C101 H92 0.931 . S
C101 C97 1.382 . S
C101 C100 1.415 . S
C102 C100 1.501 . S
C102 C103 1.384 . S
C102 C107 1.408 . S
C103 H93 0.930 . S
C103 C102 1.384 . S
C103 C104 1.389 . S
C104 C103 1.389 . S
C104 C105 1.405 . S
C105 H94 0.930 . S
C105 C104 1.405 . S
C105 C106 1.364 . S
C106 C105 1.364 . S
C106 C107 1.400 . S
C107 H95 0.931 . S
C107 C102 1.408 . S
C107 C106 1.400 . S
In108 O109 2.294 . S
In108 O110 2.326 . S
In108 O114 2.266 . S
In108 O115 2.326 . S
In108 O116 2.266 . S
In108 O117 2.326 . S
In108 O119 2.294 . S
In108 O120 2.326 . S
O109 In108 2.294 . S
O109 C118 1.240 . S
O110 In108 2.326 . S
O110 C118 1.252 . S
C111 O114 1.252 . S
C111 O115 1.260 . S
C112 O119 1.240 . S
C112 O120 1.252 . S
C113 O116 1.252 . S
C113 O117 1.260 . S
O114 In108 2.266 . S
O114 C111 1.252 . S
O115 In108 2.326 . S
O115 C111 1.260 . S
O116 In108 2.266 . S
O116 C113 1.252 . S
O117 In108 2.326 . S
O117 C113 1.260 . S
C118 O109 1.240 . S
C118 O110 1.252 . S
O119 In108 2.294 . S
O119 C112 1.240 . S
O120 In108 2.326 . S
O120 C112 1.252 . S
In121 O122 2.294 . S
In121 O123 2.326 . S
In121 O127 2.266 . S
In121 O128 2.326 . S
In121 O129 2.266 . S
In121 O130 2.326 . S
In121 O132 2.294 . S
In121 O133 2.326 . S
O122 In121 2.294 . S
O122 C131 1.240 . S
O123 In121 2.326 . S
O123 C131 1.252 . S
C124 O127 1.252 . S
C124 O128 1.260 . S
C125 O132 1.240 . S
C125 O133 1.252 . S
C126 O129 1.252 . S
C126 O130 1.260 . S
O127 In121 2.266 . S
O127 C124 1.252 . S
O128 In121 2.326 . S
O128 C124 1.260 . S
O129 In121 2.266 . S
O129 C126 1.252 . S
O130 In121 2.326 . S
O130 C126 1.260 . S
C131 O122 1.240 . S
C131 O123 1.252 . S
O132 In121 2.294 . S
O132 C125 1.240 . S
O133 In121 2.326 . S
O133 C125 1.252 . S
In134 O135 2.294 . S
In134 O136 2.326 . S
In134 O140 2.266 . S
In134 O141 2.326 . S
In134 O142 2.266 . S
In134 O143 2.326 . S
In134 O145 2.294 . S
In134 O146 2.326 . S
O135 In134 2.294 . S
O135 C144 1.240 . S
O136 In134 2.326 . S
O136 C144 1.252 . S
C137 O140 1.252 . S
C137 O141 1.260 . S
C138 O145 1.240 . S
C138 O146 1.252 . S
C139 O142 1.252 . S
C139 O143 1.260 . S
O140 In134 2.266 . S
O140 C137 1.252 . S
O141 In134 2.326 . S
O141 C137 1.260 . S
O142 In134 2.266 . S
O142 C139 1.252 . S
O143 In134 2.326 . S
O143 C139 1.260 . S
C144 O135 1.240 . S
C144 O136 1.252 . S
O145 In134 2.294 . S
O145 C138 1.240 . S
O146 In134 2.326 . S
O146 C138 1.252 . S
In147 O148 2.294 . S
In147 O149 2.326 . S
In147 O153 2.266 . S
In147 O154 2.326 . S
In147 O155 2.266 . S
In147 O156 2.326 . S
In147 O158 2.294 . S
In147 O159 2.326 . S
O148 In147 2.294 . S
O148 C157 1.240 . S
O149 In147 2.326 . S
O149 C157 1.252 . S
C150 O153 1.252 . S
C150 O154 1.260 . S
C151 O158 1.240 . S
C151 O159 1.252 . S
C152 O155 1.252 . S
C152 O156 1.260 . S
O153 In147 2.266 . S
O153 C150 1.252 . S
O154 In147 2.326 . S
O154 C150 1.260 . S
O155 In147 2.266 . S
O155 C152 1.252 . S
O156 In147 2.326 . S
O156 C152 1.260 . S
C157 O148 1.240 . S
C157 O149 1.252 . S
O158 In147 2.294 . S
O158 C151 1.240 . S
O159 In147 2.326 . S
O159 C151 1.252 . S
In160 O161 2.294 . S
In160 O162 2.326 . S
In160 O166 2.266 . S
In160 O167 2.326 . S
In160 O168 2.266 . S
In160 O169 2.326 . S
In160 O171 2.294 . S
In160 O172 2.326 . S
O161 In160 2.294 . S
O161 C170 1.240 . S
O162 In160 2.326 . S
O162 C170 1.252 . S
C163 O166 1.252 . S
C163 O167 1.260 . S
C164 O171 1.240 . S
C164 O172 1.252 . S
C165 O168 1.252 . S
C165 O169 1.260 . S
O166 In160 2.266 . S
O166 C163 1.252 . S
O167 In160 2.326 . S
O167 C163 1.260 . S
O168 In160 2.266 . S
O168 C165 1.252 . S
O169 In160 2.326 . S
O169 C165 1.260 . S
C170 O161 1.240 . S
C170 O162 1.252 . S
O171 In160 2.294 . S
O171 C164 1.240 . S
O172 In160 2.326 . S
O172 C164 1.252 . S
In173 O174 2.294 . S
In173 O175 2.326 . S
In173 O179 2.266 . S
In173 O180 2.326 . S
In173 O181 2.266 . S
In173 O182 2.326 . S
In173 O184 2.294 . S
In173 O185 2.326 . S
O174 In173 2.294 . S
O174 C183 1.240 . S
O175 In173 2.326 . S
O175 C183 1.252 . S
C176 O179 1.252 . S
C176 O180 1.260 . S
C177 O184 1.240 . S
C177 O185 1.252 . S
C178 O181 1.252 . S
C178 O182 1.260 . S
O179 In173 2.266 . S
O179 C176 1.252 . S
O180 In173 2.326 . S
O180 C176 1.260 . S
O181 In173 2.266 . S
O181 C178 1.252 . S
O182 In173 2.326 . S
O182 C178 1.260 . S
C183 O174 1.240 . S
C183 O175 1.252 . S
O184 In173 2.294 . S
O184 C177 1.240 . S
O185 In173 2.326 . S
O185 C177 1.252 . S
C186 C187 1.387 . S
C186 H190 0.950 . S
C186 C195 1.390 . S
C187 C186 1.387 . S
C187 C189 1.387 . S
H188 C195 0.950 . S
C189 C187 1.387 . S
C189 C191 1.390 . S
C189 H193 0.950 . S
H190 C186 0.950 . S
C191 C189 1.390 . S
C191 C192 1.387 . S
C191 H194 0.950 . S
C192 C191 1.387 . S
C192 C195 1.387 . S
H193 C189 0.950 . S
H194 C191 0.950 . S
C195 C186 1.390 . S
C195 H188 0.950 . S
C195 C192 1.387 . S
C196 C197 1.387 . S
C196 H200 0.950 . S
C196 C205 1.390 . S
C197 C196 1.387 . S
C197 C199 1.387 . S
H198 C205 0.950 . S
C199 C197 1.387 . S
C199 C201 1.390 . S
C199 H203 0.950 . S
H200 C196 0.950 . S
C201 C199 1.390 . S
C201 C202 1.387 . S
C201 H204 0.950 . S
C202 C201 1.387 . S
C202 C205 1.387 . S
H203 C199 0.950 . S
H204 C201 0.950 . S
C205 C196 1.390 . S
C205 H198 0.950 . S
C205 C202 1.387 . S
C206 C207 1.387 . S
C206 H210 0.950 . S
C206 C215 1.390 . S
C207 C206 1.387 . S
C207 C209 1.387 . S
H208 C215 0.950 . S
C209 C207 1.387 . S
C209 C211 1.390 . S
C209 H213 0.950 . S
H210 C206 0.950 . S
C211 C209 1.390 . S
C211 C212 1.387 . S
C211 H214 0.950 . S
C212 C211 1.387 . S
C212 C215 1.387 . S
H213 C209 0.950 . S
H214 C211 0.950 . S
C215 C206 1.390 . S
C215 H208 0.950 . S
C215 C212 1.387 . S
C216 C217 1.387 . S
C216 H220 0.950 . S
C216 C225 1.390 . S
C217 C216 1.387 . S
C217 C219 1.387 . S
H218 C225 0.950 . S
C219 C217 1.387 . S
C219 C221 1.390 . S
C219 H223 0.950 . S
H220 C216 0.950 . S
C221 C219 1.390 . S
C221 C222 1.387 . S
C221 H224 0.950 . S
C222 C221 1.387 . S
C222 C225 1.387 . S
H223 C219 0.950 . S
H224 C221 0.950 . S
C225 C216 1.390 . S
C225 H218 0.950 . S
C225 C222 1.387 . S
C226 C227 1.387 . S
C226 H230 0.950 . S
C226 C235 1.390 . S
C227 C226 1.387 . S
C227 C229 1.387 . S
H228 C235 0.950 . S
C229 C227 1.387 . S
C229 C231 1.390 . S
C229 H233 0.950 . S
H230 C226 0.950 . S
C231 C229 1.390 . S
C231 C232 1.387 . S
C231 H234 0.950 . S
C232 C231 1.387 . S
C232 C235 1.387 . S
H233 C229 0.950 . S
H234 C231 0.950 . S
C235 C226 1.390 . S
C235 H228 0.950 . S
C235 C232 1.387 . S
C236 C237 1.387 . S
C236 H240 0.950 . S
C236 C245 1.390 . S
C237 C236 1.387 . S
C237 C239 1.387 . S
H238 C245 0.950 . S
C239 C237 1.387 . S
C239 C241 1.390 . S
C239 H243 0.950 . S
H240 C236 0.950 . S
C241 C239 1.390 . S
C241 C242 1.387 . S
C241 H244 0.950 . S
C242 C241 1.387 . S
C242 C245 1.387 . S
H243 C239 0.950 . S
H244 C241 0.950 . S
C245 C236 1.390 . S
C245 H238 0.950 . S
C245 C242 1.387 . S
C246 C247 1.387 . S
C246 H250 0.950 . S
C246 C255 1.390 . S
C247 C246 1.387 . S
C247 C249 1.387 . S
H248 C255 0.950 . S
C249 C247 1.387 . S
C249 C251 1.390 . S
C249 H253 0.950 . S
H250 C246 0.950 . S
C251 C249 1.390 . S
C251 C252 1.387 . S
C251 H254 0.950 . S
C252 C251 1.387 . S
C252 C255 1.387 . S
H253 C249 0.950 . S
H254 C251 0.950 . S
C255 C246 1.390 . S
C255 H248 0.950 . S
C255 C252 1.387 . S
C256 C257 1.387 . S
C256 H260 0.950 . S
C256 C265 1.390 . S
C257 C256 1.387 . S
C257 C259 1.387 . S
H258 C265 0.950 . S
C259 C257 1.387 . S
C259 C261 1.390 . S
C259 H263 0.950 . S
H260 C256 0.950 . S
C261 C259 1.390 . S
C261 C262 1.387 . S
C261 H264 0.950 . S
C262 C261 1.387 . S
C262 C265 1.387 . S
H263 C259 0.950 . S
H264 C261 0.950 . S
C265 C256 1.390 . S
C265 H258 0.950 . S
C265 C262 1.387 . S
C266 C267 1.387 . S
C266 H270 0.950 . S
C266 C275 1.390 . S
C267 C266 1.387 . S
C267 C269 1.387 . S
H268 C275 0.950 . S
C269 C267 1.387 . S
C269 C271 1.390 . S
C269 H273 0.950 . S
H270 C266 0.950 . S
C271 C269 1.390 . S
C271 C272 1.387 . S
C271 H274 0.950 . S
C272 C271 1.387 . S
C272 C275 1.387 . S
H273 C269 0.950 . S
H274 C271 0.950 . S
C275 C266 1.390 . S
C275 H268 0.950 . S
C275 C272 1.387 . S
C276 C277 1.387 . S
C276 H280 0.950 . S
C276 C285 1.390 . S
C277 C276 1.387 . S
C277 C279 1.387 . S
H278 C285 0.950 . S
C279 C277 1.387 . S
C279 C281 1.390 . S
C279 H283 0.950 . S
H280 C276 0.950 . S
C281 C279 1.390 . S
C281 C282 1.387 . S
C281 H284 0.950 . S
C282 C281 1.387 . S
C282 C285 1.387 . S
H283 C279 0.950 . S
H284 C281 0.950 . S
C285 C276 1.390 . S
C285 H278 0.950 . S
C285 C282 1.387 . S
C286 C287 1.387 . S
C286 H290 0.950 . S
C286 C295 1.390 . S
C287 C286 1.387 . S
C287 C289 1.387 . S
H288 C295 0.950 . S
C289 C287 1.387 . S
C289 C291 1.390 . S
C289 H293 0.950 . S
H290 C286 0.950 . S
C291 C289 1.390 . S
C291 C292 1.387 . S
C291 H294 0.950 . S
C292 C291 1.387 . S
C292 C295 1.387 . S
H293 C289 0.950 . S
H294 C291 0.950 . S
C295 C286 1.390 . S
C295 H288 0.950 . S
C295 C292 1.387 . S
C296 C297 1.387 . S
C296 H300 0.950 . S
C296 C305 1.390 . S
C297 C296 1.387 . S
C297 C299 1.387 . S
H298 C305 0.950 . S
C299 C297 1.387 . S
C299 C301 1.390 . S
C299 H303 0.950 . S
H300 C296 0.950 . S
C301 C299 1.390 . S
C301 C302 1.387 . S
C301 H304 0.950 . S
C302 C301 1.387 . S
C302 C305 1.387 . S
H303 C299 0.950 . S
H304 C301 0.950 . S
C305 C296 1.390 . S
C305 H298 0.950 . S
C305 C302 1.387 . S
C306 C307 1.387 . S
C306 H310 0.950 . S
C306 C315 1.390 . S
C307 C306 1.387 . S
C307 C309 1.387 . S
H308 C315 0.950 . S
C309 C307 1.387 . S
C309 C311 1.390 . S
C309 H313 0.950 . S
H310 C306 0.950 . S
C311 C309 1.390 . S
C311 C312 1.387 . S
C311 H314 0.950 . S
C312 C311 1.387 . S
C312 C315 1.387 . S
H313 C309 0.950 . S
H314 C311 0.950 . S
C315 C306 1.390 . S
C315 H308 0.950 . S
C315 C312 1.387 . S
C316 C317 1.387 . S
C316 H320 0.950 . S
C316 C325 1.390 . S
C317 C316 1.387 . S
C317 C319 1.387 . S
H318 C325 0.950 . S
C319 C317 1.387 . S
C319 C321 1.390 . S
C319 H323 0.950 . S
H320 C316 0.950 . S
C321 C319 1.390 . S
C321 C322 1.387 . S
C321 H324 0.950 . S
C322 C321 1.387 . S
C322 C325 1.387 . S
H323 C319 0.950 . S
H324 C321 0.950 . S
C325 C316 1.390 . S
C325 H318 0.950 . S
C325 C322 1.387 . S
C326 C327 1.387 . S
C326 H330 0.950 . S
C326 C335 1.390 . S
C327 C326 1.387 . S
C327 C329 1.387 . S
H328 C335 0.950 . S
C329 C327 1.387 . S
C329 C331 1.390 . S
C329 H333 0.950 . S
H330 C326 0.950 . S
C331 C329 1.390 . S
C331 C332 1.387 . S
C331 H334 0.950 . S
C332 C331 1.387 . S
C332 C335 1.387 . S
H333 C329 0.950 . S
H334 C331 0.950 . S
C335 C326 1.390 . S
C335 H328 0.950 . S
C335 C332 1.387 . S
C336 C337 1.387 . S
C336 H340 0.950 . S
C336 C345 1.390 . S
C337 C336 1.387 . S
C337 C339 1.387 . S
H338 C345 0.950 . S
C339 C337 1.387 . S
C339 C341 1.390 . S
C339 H343 0.950 . S
H340 C336 0.950 . S
C341 C339 1.390 . S
C341 C342 1.387 . S
C341 H344 0.950 . S
C342 C341 1.387 . S
C342 C345 1.387 . S
H343 C339 0.950 . S
H344 C341 0.950 . S
C345 C336 1.390 . S
C345 H338 0.950 . S
C345 C342 1.387 . S
C346 C347 1.387 . S
C346 H350 0.950 . S
C346 C355 1.390 . S
C347 C346 1.387 . S
C347 C349 1.387 . S
H348 C355 0.950 . S
C349 C347 1.387 . S
C349 C351 1.390 . S
C349 H353 0.950 . S
H350 C346 0.950 . S
C351 C349 1.390 . S
C351 C352 1.387 . S
C351 H354 0.950 . S
C352 C351 1.387 . S
C352 C355 1.387 . S
H353 C349 0.950 . S
H354 C351 0.950 . S
C355 C346 1.390 . S
C355 H348 0.950 . S
C355 C352 1.387 . S
C356 C357 1.387 . S
C356 H360 0.950 . S
C356 C365 1.390 . S
C357 C356 1.387 . S
C357 C359 1.387 . S
H358 C365 0.950 . S
C359 C357 1.387 . S
C359 C361 1.390 . S
C359 H363 0.950 . S
H360 C356 0.950 . S
C361 C359 1.390 . S
C361 C362 1.387 . S
C361 H364 0.950 . S
C362 C361 1.387 . S
C362 C365 1.387 . S
H363 C359 0.950 . S
H364 C361 0.950 . S
C365 C356 1.390 . S
C365 H358 0.950 . S
C365 C362 1.387 . S
C366 C367 1.387 . S
C366 H370 0.950 . S
C366 C375 1.390 . S
C367 C366 1.387 . S
C367 C369 1.387 . S
H368 C375 0.950 . S
C369 C367 1.387 . S
C369 C371 1.390 . S
C369 H373 0.950 . S
H370 C366 0.950 . S
C371 C369 1.390 . S
C371 C372 1.387 . S
C371 H374 0.950 . S
C372 C371 1.387 . S
C372 C375 1.387 . S
H373 C369 0.950 . S
H374 C371 0.950 . S
C375 C366 1.390 . S
C375 H368 0.950 . S
C375 C372 1.387 . S
C376 C377 1.387 . S
C376 H380 0.950 . S
C376 C385 1.390 . S
C377 C376 1.387 . S
C377 C379 1.387 . S
H378 C385 0.950 . S
C379 C377 1.387 . S
C379 C381 1.390 . S
C379 H383 0.950 . S
H380 C376 0.950 . S
C381 C379 1.390 . S
C381 C382 1.387 . S
C381 H384 0.950 . S
C382 C381 1.387 . S
C382 C385 1.387 . S
H383 C379 0.950 . S
H384 C381 0.950 . S
C385 C376 1.390 . S
C385 H378 0.950 . S
C385 C382 1.387 . S
C386 C387 1.387 . S
C386 H390 0.950 . S
C386 C395 1.390 . S
C387 C386 1.387 . S
C387 C389 1.387 . S
H388 C395 0.950 . S
C389 C387 1.387 . S
C389 C391 1.390 . S
C389 H393 0.950 . S
H390 C386 0.950 . S
C391 C389 1.390 . S
C391 C392 1.387 . S
C391 H394 0.950 . S
C392 C391 1.387 . S
C392 C395 1.387 . S
H393 C389 0.950 . S
H394 C391 0.950 . S
C395 C386 1.390 . S
C395 H388 0.950 . S
C395 C392 1.387 . S
C396 C397 1.387 . S
C396 H400 0.950 . S
C396 C405 1.390 . S
C397 C396 1.387 . S
C397 C399 1.387 . S
H398 C405 0.950 . S
C399 C397 1.387 . S
C399 C401 1.390 . S
C399 H403 0.950 . S
H400 C396 0.950 . S
C401 C399 1.390 . S
C401 C402 1.387 . S
C401 H404 0.950 . S
C402 C401 1.387 . S
C402 C405 1.387 . S
H403 C399 0.950 . S
H404 C401 0.950 . S
C405 C396 1.390 . S
C405 H398 0.950 . S
C405 C402 1.387 . S
C406 C407 1.387 . S
C406 H410 0.950 . S
C406 C415 1.390 . S
C407 C406 1.387 . S
C407 C409 1.387 . S
H408 C415 0.950 1_556 S
C409 C407 1.387 . S
C409 C411 1.390 . S
C409 H413 0.950 . S
H410 C406 0.950 . S
C411 C409 1.390 . S
C411 C412 1.387 . S
C411 H414 0.950 . S
C412 C411 1.387 . S
C412 C415 1.387 . S
H413 C409 0.950 . S
H414 C411 0.950 . S
C415 C406 1.390 . S
C415 H408 0.950 1_554 S
C415 C412 1.387 . S
C416 C417 1.387 . S
C416 H420 0.950 . S
C416 C425 1.390 . S
C417 C416 1.387 . S
C417 C419 1.387 . S
H418 C425 0.950 . S
C419 C417 1.387 . S
C419 C421 1.390 . S
C419 H423 0.950 . S
H420 C416 0.950 . S
C421 C419 1.390 . S
C421 C422 1.387 . S
C421 H424 0.950 . S
C422 C421 1.387 . S
C422 C425 1.387 . S
H423 C419 0.950 . S
H424 C421 0.950 . S
C425 C416 1.390 . S
C425 H418 0.950 . S
C425 C422 1.387 . S
C192 C178 1.578 . S
C187 C8 1.537 . S
C197 C26 1.541 . S
C202 C113 1.582 . S
C207 C50 1.544 . S
C212 C131 1.583 . S
C217 C68 1.534 . S
C222 C144 1.572 . S
C232 C152 1.580 . S
C227 C80 1.541 . S
C237 C104 1.538 . S
C242 C164 1.577 . S
C247 C32 1.545 . S
C252 C126 1.589 . S
C257 C44 1.538 . S
C262 C139 1.579 . S
C267 C62 1.536 . S
C272 C157 1.574 . S
C282 C163 1.584 . S
C277 C86 1.543 1_554 S
C292 C183 1.569 . S
C287 C98 1.532 . S
C302 C118 1.577 . S
C297 C14 1.538 . S
C307 C7 1.520 . S
C312 C124 1.569 . S
C317 C25 1.521 . S
C322 C137 1.569 . S
C332 C151 1.565 . S
C327 C52 1.522 . S
C337 C70 1.530 . S
C342 C165 1.573 1_556 S
C352 C177 1.562 . S
C347 C79 1.514 . S
C362 C112 1.564 . S
C357 C106 1.521 . S
C372 C176 1.567 . S
C367 C34 1.523 . S
C377 C43 1.517 . S
C382 C111 1.567 . S
C392 C125 1.568 . S
C387 C61 1.518 . S
C397 C88 1.519 . S
C402 C138 1.562 . S
C407 C97 1.523 . S
C412 C150 1.570 1_554 S
C417 C16 1.523 . S
C422 C170 1.568 . S
