# Generated by pormake.
# Topology pts, (4,4)-cn, num edge types: 1
# Building blocks:
#     Node 0, Type 0, BuildingBlock: MIFKUJ_clean_linker_1, # of connection points: 4
#     Node 1, Type 0, BuildingBlock: MIFKUJ_clean_linker_1, # of connection points: 4
#     Node 2, Type 1, BuildingBlock: QUQFOY_clean_sbu_1, # of connection points: 4
#     Node 3, Type 1, BuildingBlock: QUQFOY_clean_sbu_1, # of connection points: 4
#     Edge 4, Type (0, 1), BuildingBlock: XUDNAN_clean_linker_2, # of connection points: 2
#     Edge 5, Type (0, 1), BuildingBlock: XUDNAN_clean_linker_2, # of connection points: 2
#     Edge 6, Type (0, 1), BuildingBlock: XUDNAN_clean_linker_2, # of connection points: 2
#     Edge 7, Type (0, 1), BuildingBlock: XUDNAN_clean_linker_2, # of connection points: 2
#     Edge 8, Type (0, 1), BuildingBlock: XUDNAN_clean_linker_2, # of connection points: 2
#     Edge 9, Type (0, 1), BuildingBlock: XUDNAN_clean_linker_2, # of connection points: 2
#     Edge 10, Type (0, 1), BuildingBlock: XUDNAN_clean_linker_2, # of connection points: 2
#     Edge 11, Type (0, 1), BuildingBlock: XUDNAN_clean_linker_2, # of connection points: 2
# Relax obj value: 0.096
# Max RMSD: 0.259
# Mean RMSD: 0.154
data_MOF--net-pts--node1-QUQFOY_clean_sbu_1--node2-MIFKUJ_clean_linker_1--edge1-XUDNAN_clean_linker_2
_symmetry_space_group_name_H-M    P1
_symmetry_Int_Tables_number       1
_symmetry_cell_setting            triclinic
loop_
_symmetry_equiv_pos_as_xyz
'x, y, z'
_cell_length_a     28.418489
_cell_length_b     31.178069
_cell_length_c     43.647738
_cell_angle_alpha  89.85371
_cell_angle_beta   90.071313
_cell_angle_gamma 89.87716
loop_
_atom_site_label
_atom_site_type_symbol
_atom_site_fract_x
_atom_site_fract_y
_atom_site_fract_z
_atom_type_partial_charge
H0 H 0.6072 0.93902 0.03784 0.0
H1 H 0.67683 0.95357 0.06919 0.0
H2 H 0.62971 0.08463 0.08089 0.0
H3 H 0.56219 0.07021 0.04804 0.0
H4 H 0.49656 0.98715 0.0639 0.0
H5 H 0.61519 0.95146 0.98187 0.0
H6 H 0.68197 0.96874 0.94875 0.0
H7 H 0.61364 0.08736 0.92252 0.0
H8 H 0.54837 0.07076 0.95675 0.0
H9 H 0.41952 0.04624 0.94823 0.0
H10 H 0.35162 0.03931 0.91462 0.0
H11 H 0.31045 0.92391 0.96268 0.0
H12 H 0.38012 0.92985 0.99528 0.0
H13 H 0.49105 0.99811 0.95066 0.0
H14 H 0.3844 0.04874 0.02495 0.0
H15 H 0.32123 0.05752 0.06242 0.0
H16 H 0.36054 0.93747 0.10494 0.0
H17 H 0.42389 0.92876 0.06729 0.0
C18 C 0.58029 1.0038 0.04025 0.0
C19 C 0.61264 0.97104 0.04671 0.0
C20 C 0.65204 0.97934 0.06498 0.0
C21 C 0.65912 0.02036 0.07765 0.0
C22 C 0.62622 0.05296 0.07106 0.0
C23 C 0.58735 0.04476 0.05244 0.0
C24 C 0.53702 0.99501 0.02271 0.0
C25 C 0.49527 0.98827 0.03906 0.0
C26 C 0.53536 0.99907 0.99056 0.0
C27 C 0.57729 0.01019 0.97216 0.0
C28 C 0.61528 0.98166 0.9696 0.0
C29 C 0.65304 0.9913 0.95026 0.0
C30 C 0.65318 0.02946 0.93294 0.0
C31 C 0.61514 0.05807 0.93587 0.0
C32 C 0.57763 0.04851 0.95528 0.0
C33 C 0.40515 0.98846 0.97422 0.0
C34 C 0.39578 0.01951 0.95164 0.0
C35 C 0.35657 0.01573 0.9326 0.0
C36 C 0.3256 0.98091 0.9358 0.0
C37 C 0.334 0.95075 0.95926 0.0
C38 C 0.37351 0.9544 0.9782 0.0
C39 C 0.44988 0.99014 0.99177 0.0
C40 C 0.49201 0.99561 0.97546 0.0
C41 C 0.45155 0.98677 0.02408 0.0
C42 C 0.40863 0.98797 0.04325 0.0
C43 C 0.37866 0.02374 0.04181 0.0
C44 C 0.3429 0.02893 0.06338 0.0
C45 C 0.33637 0.99834 0.08668 0.0
C46 C 0.36473 0.96139 0.08711 0.0
C47 C 0.4009 0.95644 0.0657 0.0
H48 H 0.08092 0.4594 0.45585 0.0
H49 H 0.08258 0.39907 0.42037 0.0
H50 H 0.95269 0.35164 0.4588 0.0
H51 H 0.95118 0.41243 0.49453 0.0
H52 H 0.01273 0.51881 0.45465 0.0
H53 H 0.07787 0.42029 0.52558 0.0
H54 H 0.08048 0.35125 0.55214 0.0
H55 H 0.95202 0.3832 0.59965 0.0
H56 H 0.94857 0.45192 0.57219 0.0
H57 H 0.93732 0.58563 0.56791 0.0
H58 H 0.93116 0.65523 0.59355 0.0
H59 H 0.05963 0.6961 0.54956 0.0
H60 H 0.06579 0.62652 0.52425 0.0
H61 H 0.00189 0.5215 0.56797 0.0
H62 H 0.94158 0.62398 0.49276 0.0
H63 H 0.93693 0.68312 0.45549 0.0
H64 H 0.06645 0.63995 0.4142 0.0
H65 H 0.07189 0.58197 0.45176 0.0
C66 C 0.01576 0.44061 0.47764 0.0
C67 C 0.0531 0.43573 0.45695 0.0
C68 C 0.05398 0.4013 0.43669 0.0
C69 C 0.01741 0.37104 0.43657 0.0
C70 C 0.98139 0.37444 0.45849 0.0
C71 C 0.98047 0.40914 0.47884 0.0
C72 C 0.01199 0.48073 0.49571 0.0
C73 C 0.01111 0.51951 0.47949 0.0
C74 C 0.00873 0.48122 0.52805 0.0
C75 C 0.01239 0.44098 0.54631 0.0
C76 C 0.04996 0.41238 0.54148 0.0
C77 C 0.05152 0.37296 0.55671 0.0
C78 C 0.01618 0.36171 0.57767 0.0
C79 C 0.97973 0.39111 0.5836 0.0
C80 C 0.97778 0.43036 0.56797 0.0
C81 C 0.00161 0.60106 0.54379 0.0
C82 C 0.96436 0.60946 0.56402 0.0
C83 C 0.96089 0.64924 0.57864 0.0
C84 C 0.99463 0.68135 0.57329 0.0
C85 C 0.03255 0.67239 0.55365 0.0
C86 C 0.03616 0.63258 0.53923 0.0
C87 C 0.00371 0.55992 0.52676 0.0
C88 C 0.00378 0.52088 0.54316 0.0
C89 C 0.00743 0.55908 0.49442 0.0
C90 C 0.00706 0.59839 0.47503 0.0
C91 C 0.96966 0.62798 0.47625 0.0
C92 C 0.96696 0.66167 0.45497 0.0
C93 C 0.00115 0.66568 0.43194 0.0
C94 C 0.03948 0.63726 0.43163 0.0
C95 C 0.04253 0.60412 0.45303 0.0
O96 O 0.93208 0.98743 0.23238 0.0
Cd97 Cd 0.99123 0.96829 0.25628 0.0
Cd98 Cd -0.00158 0.06186 0.26661 0.0
O99 O 0.94033 0.05737 0.23846 0.0
O100 O 0.98675 0.90468 0.25628 0.0
O101 O 0.98718 0.94266 0.2989 0.0
C102 C 0.98564 0.90561 0.28576 0.0
C103 C -0.00022 0.12537 0.29577 0.0
C104 C 0.91854 0.0256 0.2271 0.0
C105 C 0.07932 0.01383 0.23574 0.0
O106 O 0.06298 0.04769 0.24789 0.0
O107 O 0.05577 0.97924 0.23595 0.0
O108 O 0.00454 0.12533 0.26655 0.0
O109 O 0.99375 0.08884 0.30911 0.0
O110 O 0.94042 0.06458 0.77816 0.0
Cd111 Cd 0.0027 0.06169 0.75429 0.0
Cd112 Cd 0.97979 0.97701 0.75144 0.0
O113 O 0.91985 0.99665 0.77426 0.0
O114 O 0.01522 0.12212 0.74178 0.0
O115 O 0.00366 0.06968 0.70854 0.0
C116 C 0.01137 0.10987 0.71369 0.0
C117 C 0.97419 0.93097 0.70946 0.0
C118 C 0.91168 0.03444 0.7838 0.0
C119 C 0.06857 1.00093 0.78545 0.0
O120 O 0.04051 0.97156 0.77699 0.0
O121 O 0.0608 0.03983 0.77818 0.0
O122 O 0.96719 0.91753 0.73703 0.0
O123 O 0.9831 0.97124 0.70555 0.0
H124 H 0.26892 0.94432 0.11017 0.0
H125 H 0.32848 0.07157 0.11994 0.0
H126 H 0.27324 0.0868 0.16213 0.0
H127 H 0.15007 0.97571 0.12237 0.0
H128 H 0.13409 0.92799 0.14326 0.0
H129 H 0.1805 0.92592 0.11528 0.0
H130 H 0.23748 0.89572 0.15646 0.0
H131 H 0.19123 0.89794 0.18464 0.0
H132 H 0.24622 0.92495 0.19159 0.0
H133 H 0.21069 0.08935 0.20172 0.0
H134 H 0.14059 0.08119 0.23421 0.0
H135 H 0.11979 0.95256 0.19864 0.0
C136 C 0.2705 0.97518 0.12145 0.0
C137 C 0.30281 0.00685 0.11185 0.0
C138 C 0.3036 0.04709 0.1268 0.0
C139 C 0.27269 0.05588 0.15093 0.0
C140 C 0.24114 0.02411 0.15979 0.0
C141 C 0.23951 0.98467 0.14545 0.0
C142 C 0.20022 0.95722 0.15834 0.0
C143 C 0.16408 0.94608 0.13332 0.0
C144 C 0.21999 0.91655 0.17367 0.0
C145 C 0.17966 0.98769 0.18183 0.0
C146 C 0.20427 0.02584 0.18251 0.0
C147 C 0.19122 0.05956 0.20153 0.0
C148 C 0.15129 0.05457 0.21992 0.0
C149 C 0.12458 0.01623 0.21903 0.0
C150 C 0.13963 0.9821 0.20008 0.0
H151 H 0.00544 0.34367 0.6388 0.0
H152 H 0.029 0.28366 0.55061 0.0
H153 H 0.03055 0.21234 0.57559 0.0
H154 H 0.0821 0.27393 0.68178 0.0
H155 H 0.04495 0.27311 0.71522 0.0
H156 H 0.04476 0.31919 0.69024 0.0
H157 H 0.95449 0.31218 0.68341 0.0
H158 H 0.95439 0.26614 0.7084 0.0
H159 H 0.93012 0.2621 0.67035 0.0
H160 H 0.02737 0.14728 0.6103 0.0
H161 H 0.02341 0.09398 0.65237 0.0
H162 H 0.00529 0.19716 0.71788 0.0
C163 C 0.01065 0.31546 0.62478 0.0
C164 C 0.017 0.31906 0.5928 0.0
C165 C 0.02437 0.28152 0.5752 0.0
C166 C 0.02512 0.24093 0.58915 0.0
C167 C 0.01887 0.23846 0.62077 0.0
C168 C 0.01208 0.27476 0.63838 0.0
C169 C 0.00727 0.26345 0.67198 0.0
C170 C 0.04716 0.28362 0.69091 0.0
C171 C 0.95868 0.27675 0.68425 0.0
C172 C 0.01218 0.21513 0.67052 0.0
C173 C 0.01853 0.20126 0.64077 0.0
C174 C 0.02271 0.1578 0.63371 0.0
C175 C 0.02038 0.12777 0.65772 0.0
C176 C 0.01442 0.14142 0.68839 0.0
C177 C 0.01042 0.18572 0.69472 0.0
H178 H 0.70025 0.96594 0.11998 0.0
H179 H 0.71088 0.09451 0.08189 0.0
H180 H 0.77524 0.11049 0.11785 0.0
H181 H 0.72582 0.99214 0.19785 0.0
H182 H 0.76095 0.9449 0.20481 0.0
H183 H 0.71437 0.94359 0.17679 0.0
H184 H 0.77349 0.91875 0.13527 0.0
H185 H 0.82015 0.91957 0.16321 0.0
H186 H 0.8257 0.95001 0.12824 0.0
H187 H 0.83695 0.11336 0.15852 0.0
H188 H 0.89773 0.10071 0.19782 0.0
H189 H 0.8513 0.96865 0.20701 0.0
C190 C 0.71639 0.99731 0.11883 0.0
C191 C 0.69984 0.0291 0.09821 0.0
C192 C 0.7219 0.06988 0.0979 0.0
C193 C 0.75874 0.07925 0.11814 0.0
C194 C 0.77363 0.04738 0.13834 0.0
C195 C 0.75367 0.00705 0.13857 0.0
C196 C 0.77745 0.97813 0.1619 0.0
C197 C 0.74256 0.96386 0.18681 0.0
C198 C 0.80057 0.93933 0.14621 0.0
C199 C 0.81397 0.00855 0.17469 0.0
C200 C 0.81068 0.04848 0.16103 0.0
C201 C 0.84007 0.08218 0.16929 0.0
C202 C 0.87434 0.07469 0.19176 0.0
C203 C 0.87937 0.03365 0.20546 0.0
C204 C 0.84845 1.0003 0.19689 0.0
H205 H 0.97145 0.69919 0.63297 0.0
H206 H 0.00846 0.76015 0.54686 0.0
H207 H 0.00354 0.83124 0.57159 0.0
H208 H 0.88821 0.78071 0.65846 0.0
H209 H 0.90587 0.77627 0.69802 0.0
H210 H 0.91031 0.73044 0.67312 0.0
H211 H -0.00112 0.72306 0.68643 0.0
H212 H 0.99471 0.76881 0.71135 0.0
H213 H 0.03734 0.76832 0.68082 0.0
H214 H -0.00301 0.89572 0.60636 0.0
H215 H 0.99133 0.94806 0.64872 0.0
H216 H 0.95822 0.8445 0.71172 0.0
C217 C 0.97785 0.72753 0.61921 0.0
C218 C 0.99032 0.72412 0.58798 0.0
C219 C -0.00069 0.76197 0.5709 0.0
C220 C -0.00371 0.80249 0.58469 0.0
C221 C 0.98418 0.80468 0.61557 0.0
C222 C 0.97513 0.76818 0.63261 0.0
C223 C 0.96461 0.77913 0.66567 0.0
C224 C 0.91425 0.76585 0.67431 0.0
C225 C 0.00107 0.75862 0.68733 0.0
C226 C 0.9696 0.82745 0.66465 0.0
C227 C 0.9806 0.84165 0.63553 0.0
C228 C 0.98811 0.88498 0.62923 0.0
C229 C 0.98479 0.91448 0.65342 0.0
C230 C 0.97421 0.90045 0.68352 0.0
C231 C 0.9661 0.85636 0.68896 0.0
H232 H 0.26847 0.04293 0.91022 0.0
H233 H 0.29457 0.90559 0.91056 0.0
H234 H 0.23237 0.896 0.87178 0.0
H235 H 0.14305 0.03818 0.89992 0.0
H236 H 0.14104 0.08414 0.87481 0.0
H237 H 0.18651 0.07993 0.90344 0.0
H238 H 0.24998 0.08849 0.86129 0.0
H239 H 0.20471 0.09243 0.83249 0.0
H240 H 0.25019 0.05234 0.82911 0.0
H241 H 0.16803 0.9013 0.83263 0.0
H242 H 0.10461 0.92099 0.79657 0.0
H243 H 0.12297 0.05523 0.82001 0.0
C244 C 0.2613 0.01081 0.9021 0.0
C245 C 0.28638 0.97499 0.91363 0.0
C246 C 0.27533 0.93348 0.90259 0.0
C247 C 0.24034 0.92772 0.88032 0.0
C248 C 0.21685 0.96378 0.8692 0.0
C249 C 0.22677 1.00451 0.87972 0.0
C250 C 0.19665 0.03794 0.86379 0.0
C251 C 0.16493 0.06141 0.88687 0.0
C252 C 0.22722 0.06967 0.84559 0.0
C253 C 0.16819 0.0096 0.84264 0.0
C254 C 0.18036 0.96694 0.84617 0.0
C255 C 0.15826 0.93461 0.8296 0.0
C256 C 0.1223 0.94614 0.80917 0.0
C257 C 0.10894 0.98966 0.80536 0.0
C258 C 0.13268 0.02174 0.82214 0.0
H259 H -0.00052 0.28398 0.44082 0.0
H260 H 0.02897 0.38612 0.37587 0.0
H261 H 0.02606 0.33431 0.33349 0.0
H262 H 0.06927 0.20324 0.40342 0.0
H263 H 0.02898 0.15997 0.41113 0.0
H264 H 0.03192 0.20508 0.43676 0.0
H265 H 0.94244 0.21789 0.42995 0.0
H266 H 0.9392 0.17278 0.4043 0.0
H267 H 0.91855 0.22473 0.39196 0.0
H268 H 0.02088 0.27316 0.29841 0.0
H269 H 0.01518 0.20434 0.27158 0.0
H270 H 0.98967 0.13938 0.3582 0.0
C271 C 0.00503 0.2953 0.41763 0.0
C272 C 0.01486 0.33899 0.4116 0.0
C273 C 0.02217 0.3527 0.38102 0.0
C274 C 0.02029 0.32359 0.35678 0.0
C275 C 0.01104 0.28079 0.36343 0.0
C276 C 0.00359 0.26645 0.393 0.0
C277 C 0.99537 0.21831 0.39351 0.0
C278 C 0.03368 0.1953 0.41232 0.0
C279 C 0.94594 0.20782 0.40565 0.0
C280 C -0.0004 0.20805 0.35963 0.0
C281 C 0.0084 0.2448 0.34284 0.0
C282 C 0.01396 0.24409 0.31123 0.0
C283 C 0.01064 0.20472 0.29621 0.0
C284 C 0.00199 0.16635 0.31275 0.0
C285 C -0.00372 0.16813 0.34494 0.0
H286 H 0.69941 0.9732 0.8949 0.0
H287 H 0.69479 0.10724 0.92163 0.0
H288 H 0.75683 0.12363 0.88394 0.0
H289 H 0.82498 0.9676 0.88614 0.0
H290 H 0.82236 0.93174 0.85386 0.0
H291 H 0.77634 0.931 0.88216 0.0
H292 H 0.7144 0.94415 0.83949 0.0
H293 H 0.76032 0.94537 0.81108 0.0
H294 H 0.72034 0.99004 0.81459 0.0
H295 H 0.81987 0.1254 0.844 0.0
H296 H 0.88303 0.11187 0.80661 0.0
H297 H 0.84805 0.97628 0.80675 0.0
C298 C 0.7117 0.00595 0.89309 0.0
C299 C 0.69196 0.03897 0.91116 0.0
C300 C 0.70875 0.0815 0.90771 0.0
C301 C 0.74409 0.09112 0.88643 0.0
C302 C 0.76241 0.05788 0.86882 0.0
C303 C 0.74708 0.0161 0.87206 0.0
C304 C 0.77358 0.98613 0.85093 0.0
C305 C 0.80094 0.95212 0.86938 0.0
C306 C 0.74016 0.9652 0.82764 0.0
C307 C 0.80648 0.01757 0.83547 0.0
C308 C 0.79918 0.05882 0.84597 0.0
C309 C 0.82588 0.09325 0.83555 0.0
C310 C 0.86165 0.08521 0.81426 0.0
C311 C 0.87055 0.043 0.80367 0.0
C312 C 0.84199 0.00894 0.81418 0.0
H313 H 0.99 0.75355 0.43461 0.0
H314 H -0.00111 0.6465 0.37161 0.0
H315 H 0.99167 0.69628 0.32782 0.0
H316 H 0.90666 0.81844 0.38977 0.0
H317 H 0.93504 0.86846 0.3989 0.0
H318 H 0.93753 0.82434 0.42562 0.0
H319 H 0.02855 0.82834 0.42574 0.0
H320 H 0.02636 0.8724 0.39901 0.0
H321 H 0.05997 0.82501 0.38996 0.0
H322 H 0.98616 0.75644 0.29115 0.0
H323 H 0.9854 0.8246 0.26278 0.0
H324 H 0.98247 0.89465 0.3487 0.0
C325 C 0.98982 0.74079 0.41156 0.0
C326 C 0.99491 0.69631 0.40632 0.0
C327 C 0.99523 0.68055 0.37595 0.0
C328 C 0.99095 0.70851 0.351 0.0
C329 C 0.9866 0.7522 0.3568 0.0
C330 C 0.98615 0.76845 0.38623 0.0
C331 C 0.98356 0.81711 0.38575 0.0
C332 C 0.93798 0.83302 0.40091 0.0
C333 C 0.02722 0.83687 0.40102 0.0
C334 C 0.98309 0.8255 0.35146 0.0
C335 C 0.98439 0.78745 0.33533 0.0
C336 C 0.98498 0.78649 0.30348 0.0
C337 C 0.98457 0.82548 0.28757 0.0
C338 C 0.98389 0.86506 0.30347 0.0
C339 C 0.98286 0.86495 0.33589 0.0
loop_
_geom_bond_atom_site_label_1
_geom_bond_atom_site_label_2
_geom_bond_distance
_geom_bond_site_symmetry_2
_ccdc_geom_bond_type
H0 C19 0.949 . S
H1 C20 0.950 . S
H2 C22 0.950 . S
H3 C23 0.950 . S
H4 C25 0.950 1_565 S
H5 C28 0.950 . S
H6 C29 0.950 . S
H7 C31 0.951 . S
H8 C32 0.949 . S
H9 C34 0.949 . S
H10 C35 0.950 . S
H11 C37 0.950 . S
H12 C38 0.950 . S
H13 C40 0.950 . S
H14 C43 0.950 . S
H15 C44 0.950 . S
H16 C46 0.951 . S
H17 C47 0.949 . S
C18 C19 1.376 1_545 S
C18 C23 1.386 . S
C18 C24 1.483 . S
C19 H0 0.949 . S
C19 C18 1.376 1_565 S
C19 C20 1.397 . S
C20 H1 0.950 . S
C20 C19 1.397 . S
C20 C21 1.391 1_565 S
C21 C20 1.391 1_545 S
C21 C22 1.405 . S
C22 H2 0.950 . S
C22 C21 1.405 . S
C22 C23 1.367 . S
C23 H3 0.950 . S
C23 C18 1.386 . S
C23 C22 1.367 . S
C24 C18 1.483 . S
C24 C25 1.382 . S
C24 C26 1.403 1_554 S
C25 H4 0.950 1_545 S
C25 C24 1.382 . S
C25 C41 1.411 . S
C26 C24 1.403 1_556 S
C26 C27 1.489 . S
C26 C40 1.411 . S
C27 C26 1.489 . S
C27 C28 1.383 1_545 S
C27 C32 1.382 . S
C28 H5 0.950 . S
C28 C27 1.383 1_565 S
C28 C29 1.395 . S
C29 H6 0.950 . S
C29 C28 1.395 . S
C29 C30 1.288 1_565 S
C30 C29 1.288 1_545 S
C30 C31 1.392 . S
C31 H7 0.951 . S
C31 C30 1.392 . S
C31 C32 1.392 . S
C32 H8 0.949 . S
C32 C27 1.382 . S
C32 C31 1.392 . S
C33 C34 1.376 . S
C33 C38 1.386 1_545 S
C33 C39 1.483 . S
C34 H9 0.949 . S
C34 C33 1.376 . S
C34 C35 1.397 . S
C35 H10 0.950 . S
C35 C34 1.397 . S
C35 C36 1.391 . S
C36 C35 1.391 . S
C36 C37 1.405 1_545 S
C37 H11 0.950 . S
C37 C36 1.405 1_565 S
C37 C38 1.367 . S
C38 H12 0.950 . S
C38 C33 1.386 1_565 S
C38 C37 1.367 . S
C39 C33 1.483 . S
C39 C40 1.382 . S
C39 C41 1.403 1_556 S
C40 H13 0.950 . S
C40 C26 1.411 . S
C40 C39 1.382 . S
C41 C25 1.411 . S
C41 C39 1.403 1_554 S
C41 C42 1.489 . S
C42 C41 1.489 . S
C42 C43 1.383 . S
C42 C47 1.382 1_545 S
C43 H14 0.950 . S
C43 C42 1.383 . S
C43 C44 1.395 . S
C44 H15 0.950 . S
C44 C43 1.395 . S
C44 C45 1.288 . S
C45 C44 1.288 . S
C45 C46 1.392 1_545 S
C46 H16 0.951 . S
C46 C45 1.392 1_565 S
C46 C47 1.392 . S
C47 H17 0.949 . S
C47 C42 1.382 1_565 S
C47 C46 1.392 . S
H48 C67 0.949 . S
H49 C68 0.950 . S
H50 C70 0.950 . S
H51 C71 0.950 . S
H52 C73 0.950 . S
H53 C76 0.950 . S
H54 C77 0.950 . S
H55 C79 0.951 . S
H56 C80 0.949 . S
H57 C82 0.949 . S
H58 C83 0.950 . S
H59 C85 0.950 . S
H60 C86 0.950 . S
H61 C88 0.950 . S
H62 C91 0.950 . S
H63 C92 0.950 . S
H64 C94 0.951 . S
H65 C95 0.949 . S
C66 C67 1.376 . S
C66 C71 1.386 1_455 S
C66 C72 1.483 . S
C67 H48 0.949 . S
C67 C66 1.376 . S
C67 C68 1.397 . S
C68 H49 0.950 . S
C68 C67 1.397 . S
C68 C69 1.391 . S
C69 C68 1.391 . S
C69 C70 1.405 1_455 S
C70 H50 0.950 . S
C70 C69 1.405 1_655 S
C70 C71 1.367 . S
C71 H51 0.950 . S
C71 C66 1.386 1_655 S
C71 C70 1.367 . S
C72 C66 1.483 . S
C72 C73 1.382 . S
C72 C74 1.403 1_455 S
C73 H52 0.950 . S
C73 C72 1.382 . S
C73 C89 1.411 . S
C74 C72 1.403 1_655 S
C74 C75 1.489 . S
C74 C88 1.411 . S
C75 C74 1.489 . S
C75 C76 1.383 1_655 S
C75 C80 1.382 . S
C76 H53 0.950 . S
C76 C75 1.383 1_455 S
C76 C77 1.395 . S
C77 H54 0.950 . S
C77 C76 1.395 . S
C77 C78 1.288 1_455 S
C78 C77 1.288 1_655 S
C78 C79 1.392 . S
C79 H55 0.951 . S
C79 C78 1.392 . S
C79 C80 1.392 . S
C80 H56 0.949 . S
C80 C75 1.382 . S
C80 C79 1.392 . S
C81 C82 1.376 . S
C81 C86 1.386 1_655 S
C81 C87 1.483 . S
C82 H57 0.949 . S
C82 C81 1.376 . S
C82 C83 1.397 . S
C83 H58 0.950 . S
C83 C82 1.397 . S
C83 C84 1.406 . S
C84 C83 1.406 . S
C84 C85 1.391 1_655 S
C85 H59 0.950 . S
C85 C84 1.391 1_455 S
C85 C86 1.367 . S
C86 H60 0.950 . S
C86 C81 1.386 1_455 S
C86 C85 1.367 . S
C87 C81 1.483 . S
C87 C88 1.382 . S
C87 C89 1.403 1_655 S
C88 H61 0.950 . S
C88 C74 1.411 . S
C88 C87 1.382 . S
C89 C73 1.411 . S
C89 C87 1.403 1_455 S
C89 C90 1.489 . S
C90 C89 1.489 . S
C90 C91 1.383 1_455 S
C90 C95 1.382 . S
C91 H62 0.950 . S
C91 C90 1.383 1_655 S
C91 C92 1.395 . S
C92 H63 0.950 . S
C92 C91 1.395 . S
C92 C93 1.288 1_655 S
C93 C92 1.288 1_455 S
C93 C94 1.392 . S
C94 H64 0.951 . S
C94 C93 1.392 . S
C94 C95 1.392 . S
C95 H65 0.949 . S
C95 C90 1.382 . S
C95 C94 1.392 . S
O96 Cd97 2.223 1_655 S
O96 C104 1.315 . S
Cd97 O96 2.223 1_455 S
Cd97 O100 2.297 1_455 S
Cd97 O101 2.439 1_455 S
Cd97 O107 2.240 1_565 S
Cd98 O99 2.240 . S
Cd98 O106 2.223 1_655 S
Cd98 O108 2.297 1_655 S
Cd98 O109 2.439 1_655 S
O99 Cd98 2.240 . S
O99 C104 1.279 1_545 S
O100 Cd97 2.297 1_655 S
O100 C102 1.247 . S
O101 Cd97 2.439 1_655 S
O101 C102 1.208 . S
C102 O100 1.247 . S
C102 O101 1.208 . S
C103 O108 1.247 . S
C103 O109 1.208 . S
C104 O96 1.315 . S
C104 O99 1.279 1_565 S
C105 O106 1.315 . S
C105 O107 1.279 . S
O106 Cd98 2.223 1_455 S
O106 C105 1.315 . S
O107 Cd97 2.240 1_545 S
O107 C105 1.279 . S
O108 Cd98 2.297 1_455 S
O108 C103 1.247 . S
O109 Cd98 2.439 1_455 S
O109 C103 1.208 . S
O110 Cd111 2.223 1_655 S
O110 C118 1.315 . S
Cd111 O110 2.223 1_455 S
Cd111 O114 2.297 1_455 S
Cd111 O115 2.439 1_455 S
Cd111 O121 2.240 . S
Cd112 O113 2.240 1_565 S
Cd112 O120 2.223 1_655 S
Cd112 O122 2.297 1_655 S
Cd112 O123 2.439 1_655 S
O113 Cd112 2.240 1_545 S
O113 C118 1.279 . S
O114 Cd111 2.297 1_655 S
O114 C116 1.247 . S
O115 Cd111 2.439 1_655 S
O115 C116 1.208 . S
C116 O114 1.247 . S
C116 O115 1.208 . S
C117 O122 1.247 . S
C117 O123 1.208 . S
C118 O110 1.315 . S
C118 O113 1.279 . S
C119 O120 1.315 . S
C119 O121 1.279 1_565 S
O120 Cd112 2.223 1_455 S
O120 C119 1.315 . S
O121 Cd111 2.240 . S
O121 C119 1.279 1_545 S
O122 Cd112 2.297 1_455 S
O122 C117 1.247 . S
O123 Cd112 2.439 1_455 S
O123 C117 1.208 . S
H124 C136 0.930 . S
H125 C138 0.930 . S
H126 C139 0.930 . S
H127 C143 0.959 . S
H128 C143 0.959 . S
H129 C143 0.961 . S
H130 C144 0.960 . S
H131 C144 0.961 . S
H132 C144 0.959 . S
H133 C147 0.929 . S
H134 C148 0.931 . S
H135 C150 0.912 1_565 S
C136 H124 0.930 . S
C136 C137 1.399 1_565 S
C136 C141 1.399 . S
C137 C136 1.399 1_545 S
C137 C138 1.376 . S
C138 H125 0.930 . S
C138 C137 1.376 . S
C138 C139 1.388 . S
C139 H126 0.930 . S
C139 C138 1.388 . S
C139 C140 1.390 . S
C140 C139 1.390 . S
C140 C141 1.394 1_545 S
C140 C146 1.465 . S
C141 C136 1.399 . S
C141 C140 1.394 1_565 S
C141 C142 1.516 . S
C142 C141 1.516 . S
C142 C143 1.502 . S
C142 C144 1.561 . S
C142 C145 1.526 1_565 S
C143 H127 0.959 . S
C143 H128 0.959 . S
C143 H129 0.961 . S
C143 C142 1.502 . S
C144 H130 0.960 . S
C144 H131 0.961 . S
C144 H132 0.959 . S
C144 C142 1.561 . S
C145 C142 1.526 1_545 S
C145 C146 1.396 . S
C145 C150 1.392 . S
C146 C140 1.465 . S
C146 C145 1.396 . S
C146 C147 1.399 . S
C147 H133 0.929 . S
C147 C146 1.399 . S
C147 C148 1.385 . S
C148 H134 0.931 . S
C148 C147 1.385 . S
C148 C149 1.389 . S
C149 C148 1.389 . S
C149 C150 1.403 . S
C150 H135 0.912 1_545 S
C150 C145 1.392 . S
C150 C149 1.403 . S
H151 C163 0.930 . S
H152 C165 0.930 . S
H153 C166 0.930 . S
H154 C170 0.959 . S
H155 C170 0.959 . S
H156 C170 0.961 . S
H157 C171 0.960 . S
H158 C171 0.961 . S
H159 C171 0.959 . S
H160 C174 0.929 . S
H161 C175 0.931 . S
H162 C177 0.930 . S
C163 H151 0.930 . S
C163 C164 1.399 . S
C163 C168 1.399 . S
C164 C163 1.399 . S
C164 C165 1.376 . S
C165 H152 0.930 . S
C165 C164 1.376 . S
C165 C166 1.388 . S
C166 H153 0.930 . S
C166 C165 1.388 . S
C166 C167 1.390 . S
C167 C166 1.390 . S
C167 C168 1.394 . S
C167 C173 1.465 . S
C168 C163 1.399 . S
C168 C167 1.394 . S
C168 C169 1.516 . S
C169 C168 1.516 . S
C169 C170 1.502 1_655 S
C169 C171 1.561 . S
C169 C172 1.526 . S
C170 H154 0.959 . S
C170 H155 0.959 . S
C170 H156 0.961 . S
C170 C169 1.502 1_455 S
C171 H157 0.960 . S
C171 H158 0.961 . S
C171 H159 0.959 . S
C171 C169 1.561 . S
C172 C169 1.526 . S
C172 C173 1.396 . S
C172 C177 1.390 . S
C173 C167 1.465 . S
C173 C172 1.396 . S
C173 C174 1.399 . S
C174 H160 0.929 . S
C174 C173 1.399 . S
C174 C175 1.385 . S
C175 H161 0.931 . S
C175 C174 1.385 . S
C175 C176 1.389 . S
C176 C175 1.389 . S
C176 C177 1.387 . S
C177 H162 0.930 . S
C177 C172 1.390 . S
C177 C176 1.387 . S
H178 C190 0.930 . S
H179 C192 0.930 . S
H180 C193 0.930 . S
H181 C197 0.959 . S
H182 C197 0.959 . S
H183 C197 0.961 . S
H184 C198 0.960 . S
H185 C198 0.961 . S
H186 C198 0.959 . S
H187 C201 0.929 . S
H188 C202 0.931 . S
H189 C204 0.930 . S
C190 H178 0.930 . S
C190 C191 1.399 1_565 S
C190 C195 1.399 . S
C191 C190 1.399 1_545 S
C191 C192 1.376 . S
C192 H179 0.930 . S
C192 C191 1.376 . S
C192 C193 1.388 . S
C193 H180 0.930 . S
C193 C192 1.388 . S
C193 C194 1.390 . S
C194 C193 1.390 . S
C194 C195 1.394 1_545 S
C194 C200 1.465 . S
C195 C190 1.399 . S
C195 C194 1.394 1_565 S
C195 C196 1.516 . S
C196 C195 1.516 . S
C196 C197 1.502 . S
C196 C198 1.561 . S
C196 C199 1.526 . S
C197 H181 0.959 . S
C197 H182 0.959 . S
C197 H183 0.961 . S
C197 C196 1.502 . S
C198 H184 0.960 . S
C198 H185 0.961 . S
C198 H186 0.959 . S
C198 C196 1.561 . S
C199 C196 1.526 . S
C199 C200 1.396 1_565 S
C199 C204 1.390 . S
C200 C194 1.465 . S
C200 C199 1.396 1_545 S
C200 C201 1.399 . S
C201 H187 0.929 . S
C201 C200 1.399 . S
C201 C202 1.385 . S
C202 H188 0.931 . S
C202 C201 1.385 . S
C202 C203 1.389 1_545 S
C203 C202 1.389 1_565 S
C203 C204 1.387 . S
C204 H189 0.930 . S
C204 C199 1.390 . S
C204 C203 1.387 . S
H205 C217 0.930 . S
H206 C219 0.930 . S
H207 C220 0.930 . S
H208 C224 0.959 . S
H209 C224 0.959 . S
H210 C224 0.961 . S
H211 C225 0.960 . S
H212 C225 0.961 . S
H213 C225 0.959 . S
H214 C228 0.929 . S
H215 C229 0.931 . S
H216 C231 0.930 1_655 S
C217 H205 0.930 . S
C217 C218 1.399 1_655 S
C217 C222 1.399 1_655 S
C218 C217 1.399 1_455 S
C218 C219 1.376 . S
C219 H206 0.930 . S
C219 C218 1.376 . S
C219 C220 1.388 . S
C220 H207 0.930 . S
C220 C219 1.388 . S
C220 C221 1.390 . S
C221 C220 1.390 . S
C221 C222 1.394 . S
C221 C227 1.465 . S
C222 C217 1.399 1_455 S
C222 C221 1.394 . S
C222 C223 1.516 1_455 S
C223 C222 1.516 1_655 S
C223 C224 1.502 . S
C223 C225 1.561 1_655 S
C223 C226 1.526 1_655 S
C224 H208 0.959 . S
C224 H209 0.959 . S
C224 H210 0.961 . S
C224 C223 1.502 . S
C225 H211 0.960 . S
C225 H212 0.961 . S
C225 H213 0.959 . S
C225 C223 1.561 1_455 S
C226 C223 1.526 1_455 S
C226 C227 1.396 . S
C226 C231 1.390 . S
C227 C221 1.465 . S
C227 C226 1.396 . S
C227 C228 1.399 . S
C228 H214 0.929 . S
C228 C227 1.399 . S
C228 C229 1.385 . S
C229 H215 0.931 . S
C229 C228 1.385 . S
C229 C230 1.389 . S
C230 C229 1.389 . S
C230 C231 1.387 . S
C231 H216 0.930 1_455 S
C231 C226 1.390 . S
C231 C230 1.387 . S
H232 C244 0.930 . S
H233 C246 0.930 . S
H234 C247 0.930 . S
H235 C251 0.959 . S
H236 C251 0.959 . S
H237 C251 0.961 . S
H238 C252 0.960 . S
H239 C252 0.961 . S
H240 C252 0.959 . S
H241 C255 0.929 . S
H242 C256 0.931 . S
H243 C258 0.930 . S
C244 H232 0.930 . S
C244 C245 1.399 . S
C244 C249 1.399 . S
C245 C244 1.399 . S
C245 C246 1.376 1_545 S
C246 H233 0.930 . S
C246 C245 1.376 1_565 S
C246 C247 1.388 . S
C247 H234 0.930 . S
C247 C246 1.388 . S
C247 C248 1.390 . S
C248 C247 1.390 . S
C248 C249 1.394 1_565 S
C248 C254 1.465 . S
C249 C244 1.399 . S
C249 C248 1.394 1_545 S
C249 C250 1.516 . S
C250 C249 1.516 . S
C250 C251 1.502 . S
C250 C252 1.561 . S
C250 C253 1.526 . S
C251 H235 0.959 . S
C251 H236 0.959 . S
C251 H237 0.961 . S
C251 C250 1.502 . S
C252 H238 0.960 . S
C252 H239 0.961 . S
C252 H240 0.959 . S
C252 C250 1.561 . S
C253 C250 1.526 . S
C253 C254 1.396 1_545 S
C253 C258 1.390 . S
C254 C248 1.465 . S
C254 C253 1.396 1_565 S
C254 C255 1.399 . S
C255 H241 0.929 . S
C255 C254 1.399 . S
C255 C256 1.385 . S
C256 H242 0.931 . S
C256 C255 1.385 . S
C256 C257 1.389 . S
C257 C256 1.389 . S
C257 C258 1.387 1_565 S
C258 H243 0.930 . S
C258 C253 1.390 . S
C258 C257 1.387 1_545 S
H259 C271 0.930 . S
H260 C273 0.930 . S
H261 C274 0.930 . S
H262 C278 0.959 . S
H263 C278 0.959 . S
H264 C278 0.961 . S
H265 C279 0.960 . S
H266 C279 0.961 . S
H267 C279 0.959 . S
H268 C282 0.929 . S
H269 C283 0.931 . S
H270 C285 0.930 . S
C271 H259 0.930 . S
C271 C272 1.399 1_655 S
C271 C276 1.399 . S
C272 C271 1.399 1_455 S
C272 C273 1.376 . S
C273 H260 0.930 . S
C273 C272 1.376 . S
C273 C274 1.388 . S
C274 H261 0.930 . S
C274 C273 1.388 . S
C274 C275 1.390 . S
C275 C274 1.390 . S
C275 C276 1.394 1_455 S
C275 C281 1.465 . S
C276 C271 1.399 . S
C276 C275 1.394 1_655 S
C276 C277 1.516 . S
C277 C276 1.516 . S
C277 C278 1.502 . S
C277 C279 1.561 . S
C277 C280 1.518 1_655 S
C278 H262 0.959 . S
C278 H263 0.959 . S
C278 H264 0.961 . S
C278 C277 1.502 . S
C279 H265 0.960 . S
C279 H266 0.961 . S
C279 H267 0.959 . S
C279 C277 1.561 . S
C280 C277 1.518 1_455 S
C280 C281 1.405 . S
C280 C285 1.389 1_455 S
C281 C275 1.465 . S
C281 C280 1.405 . S
C281 C282 1.399 . S
C282 H268 0.929 . S
C282 C281 1.399 . S
C282 C283 1.385 . S
C283 H269 0.931 . S
C283 C282 1.385 . S
C283 C284 1.389 . S
C284 C283 1.389 . S
C284 C285 1.387 1_455 S
C285 H270 0.930 . S
C285 C280 1.389 1_655 S
C285 C284 1.387 1_655 S
H286 C298 0.930 . S
H287 C300 0.930 . S
H288 C301 0.930 . S
H289 C305 0.959 . S
H290 C305 0.959 . S
H291 C305 0.961 . S
H292 C306 0.960 . S
H293 C306 0.961 . S
H294 C306 0.959 . S
H295 C309 0.929 . S
H296 C310 0.931 . S
H297 C312 0.930 1_565 S
C298 H286 0.930 . S
C298 C299 1.399 1_565 S
C298 C303 1.399 . S
C299 C298 1.399 1_545 S
C299 C300 1.376 . S
C300 H287 0.930 . S
C300 C299 1.376 . S
C300 C301 1.388 . S
C301 H288 0.930 . S
C301 C300 1.388 . S
C301 C302 1.390 . S
C302 C301 1.390 . S
C302 C303 1.394 1_545 S
C302 C308 1.465 . S
C303 C298 1.399 . S
C303 C302 1.394 1_565 S
C303 C304 1.516 . S
C304 C303 1.516 . S
C304 C305 1.502 . S
C304 C306 1.561 . S
C304 C307 1.526 1_565 S
C305 H289 0.959 . S
C305 H290 0.959 . S
C305 H291 0.961 . S
C305 C304 1.502 . S
C306 H292 0.960 . S
C306 H293 0.961 . S
C306 H294 0.959 . S
C306 C304 1.561 . S
C307 C304 1.526 1_545 S
C307 C308 1.396 . S
C307 C312 1.390 . S
C308 C302 1.465 . S
C308 C307 1.396 . S
C308 C309 1.399 . S
C309 H295 0.929 . S
C309 C308 1.399 . S
C309 C310 1.385 . S
C310 H296 0.931 . S
C310 C309 1.385 . S
C310 C311 1.389 . S
C311 C310 1.389 . S
C311 C312 1.387 . S
C312 H297 0.930 1_545 S
C312 C307 1.390 . S
C312 C311 1.387 . S
H313 C325 0.930 . S
H314 C327 0.930 . S
H315 C328 0.930 . S
H316 C332 0.959 . S
H317 C332 0.959 . S
H318 C332 0.960 1_455 S
H319 C333 0.960 . S
H320 C333 0.961 . S
H321 C333 0.959 . S
H322 C336 0.929 . S
H323 C337 0.931 . S
H324 C339 0.930 . S
C325 H313 0.930 . S
C325 C326 1.399 1_455 S
C325 C330 1.399 . S
C326 C325 1.399 1_655 S
C326 C327 1.376 . S
C327 H314 0.930 . S
C327 C326 1.376 . S
C327 C328 1.388 . S
C328 H315 0.930 . S
C328 C327 1.388 . S
C328 C329 1.390 . S
C329 C328 1.390 . S
C329 C330 1.394 1_655 S
C329 C335 1.465 . S
C330 C325 1.399 . S
C330 C329 1.394 1_455 S
C330 C331 1.516 . S
C331 C330 1.516 . S
C331 C332 1.502 1_455 S
C331 C333 1.561 . S
C331 C334 1.526 1_455 S
C332 H316 0.959 . S
C332 H317 0.959 . S
C332 H318 0.960 1_655 S
C332 C331 1.502 1_655 S
C333 H319 0.960 . S
C333 H320 0.961 . S
C333 H321 0.959 . S
C333 C331 1.561 . S
C334 C331 1.526 1_655 S
C334 C335 1.396 . S
C334 C339 1.390 . S
C335 C329 1.465 . S
C335 C334 1.396 . S
C335 C336 1.399 . S
C336 H322 0.929 . S
C336 C335 1.399 . S
C336 C337 1.385 . S
C337 H323 0.931 . S
C337 C336 1.385 . S
C337 C338 1.389 . S
C338 C337 1.389 . S
C338 C339 1.387 . S
C339 H324 0.930 . S
C339 C334 1.390 . S
C339 C338 1.387 . S
C149 C105 1.621 . S
C137 C45 1.621 . S
C176 C116 1.568 . S
C164 C78 1.593 . S
C203 C104 1.633 . S
C191 C21 1.627 . S
C230 C117 1.579 . S
C218 C84 1.605 1_455 S
C257 C119 1.622 . S
C245 C36 1.627 . S
C284 C103 1.552 . S
C272 C69 1.605 . S
C311 C118 1.621 . S
C299 C30 1.596 . S
C326 C93 1.610 1_655 S
C338 C102 1.526 . S
