# Generated by pormake.
# Topology pyr, (3,6)-cn, num edge types: 1
# Building blocks:
#     Node 0, Type 0, BuildingBlock: BETDAH_clean_linker_0, # of connection points: 3
#     Node 1, Type 0, BuildingBlock: BETDAH_clean_linker_0, # of connection points: 3
#     Node 2, Type 0, BuildingBlock: BETDAH_clean_linker_0, # of connection points: 3
#     Node 3, Type 0, BuildingBlock: BETDAH_clean_linker_0, # of connection points: 3
#     Node 4, Type 0, BuildingBlock: BETDAH_clean_linker_0, # of connection points: 3
#     Node 5, Type 0, BuildingBlock: BETDAH_clean_linker_0, # of connection points: 3
#     Node 6, Type 0, BuildingBlock: BETDAH_clean_linker_0, # of connection points: 3
#     Node 7, Type 0, BuildingBlock: BETDAH_clean_linker_0, # of connection points: 3
#     Node 8, Type 1, BuildingBlock: VOLQOD_clean_sbu_1, # of connection points: 6
#     Node 9, Type 1, BuildingBlock: VOLQOD_clean_sbu_1, # of connection points: 6
#     Node 10, Type 1, BuildingBlock: VOLQOD_clean_sbu_1, # of connection points: 6
#     Node 11, Type 1, BuildingBlock: VOLQOD_clean_sbu_1, # of connection points: 6
#     Edge 12, Type (0, 1), BuildingBlock: AJUNOK_clean_linker_0, # of connection points: 2
#     Edge 13, Type (0, 1), BuildingBlock: AJUNOK_clean_linker_0, # of connection points: 2
#     Edge 14, Type (0, 1), BuildingBlock: AJUNOK_clean_linker_0, # of connection points: 2
#     Edge 15, Type (0, 1), BuildingBlock: AJUNOK_clean_linker_0, # of connection points: 2
#     Edge 16, Type (0, 1), BuildingBlock: AJUNOK_clean_linker_0, # of connection points: 2
#     Edge 17, Type (0, 1), BuildingBlock: AJUNOK_clean_linker_0, # of connection points: 2
#     Edge 18, Type (0, 1), BuildingBlock: AJUNOK_clean_linker_0, # of connection points: 2
#     Edge 19, Type (0, 1), BuildingBlock: AJUNOK_clean_linker_0, # of connection points: 2
#     Edge 20, Type (0, 1), BuildingBlock: AJUNOK_clean_linker_0, # of connection points: 2
#     Edge 21, Type (0, 1), BuildingBlock: AJUNOK_clean_linker_0, # of connection points: 2
#     Edge 22, Type (0, 1), BuildingBlock: AJUNOK_clean_linker_0, # of connection points: 2
#     Edge 23, Type (0, 1), BuildingBlock: AJUNOK_clean_linker_0, # of connection points: 2
#     Edge 24, Type (0, 1), BuildingBlock: AJUNOK_clean_linker_0, # of connection points: 2
#     Edge 25, Type (0, 1), BuildingBlock: AJUNOK_clean_linker_0, # of connection points: 2
#     Edge 26, Type (0, 1), BuildingBlock: AJUNOK_clean_linker_0, # of connection points: 2
#     Edge 27, Type (0, 1), BuildingBlock: AJUNOK_clean_linker_0, # of connection points: 2
#     Edge 28, Type (0, 1), BuildingBlock: AJUNOK_clean_linker_0, # of connection points: 2
#     Edge 29, Type (0, 1), BuildingBlock: AJUNOK_clean_linker_0, # of connection points: 2
#     Edge 30, Type (0, 1), BuildingBlock: AJUNOK_clean_linker_0, # of connection points: 2
#     Edge 31, Type (0, 1), BuildingBlock: AJUNOK_clean_linker_0, # of connection points: 2
#     Edge 32, Type (0, 1), BuildingBlock: AJUNOK_clean_linker_0, # of connection points: 2
#     Edge 33, Type (0, 1), BuildingBlock: AJUNOK_clean_linker_0, # of connection points: 2
#     Edge 34, Type (0, 1), BuildingBlock: AJUNOK_clean_linker_0, # of connection points: 2
#     Edge 35, Type (0, 1), BuildingBlock: AJUNOK_clean_linker_0, # of connection points: 2
# Relax obj value: 0.110
# Max RMSD: 0.188
# Mean RMSD: 0.146
data_MOF--net-pry--node1-VOLQOD_clean_sbu_1--node2-BETDAH_clean_linker_0--edge1-AJUNOK_clean_linker_0
_symmetry_space_group_name_H-M    P1
_symmetry_Int_Tables_number       1
_symmetry_cell_setting            triclinic
loop_
_symmetry_equiv_pos_as_xyz
'x, y, z'
_cell_length_a     26.844314
_cell_length_b     27.209107
_cell_length_c     28.458749
_cell_angle_alpha  90.54308
_cell_angle_beta   90.861672
_cell_angle_gamma 96.609138
loop_
_atom_site_label
_atom_site_type_symbol
_atom_site_fract_x
_atom_site_fract_y
_atom_site_fract_z
_atom_type_partial_charge
H0 H 0.20707 0.11214 0.22602 0.0
H1 H 0.18029 0.15224 0.08268 0.0
H2 H 0.07666 0.18308 0.18944 0.0
C3 C 0.1847 0.12871 0.19988 0.0
C4 C 0.14009 0.14698 0.21349 0.0
C5 C 0.19974 0.13012 0.15277 0.0
C6 C 0.17012 0.15178 0.1194 0.0
C7 C 0.12683 0.17237 0.13264 0.0
C8 C 0.11151 0.16951 0.17966 0.0
N9 N 0.09631 0.19018 0.09695 0.0
C10 C 0.08153 0.23758 0.09654 0.0
H11 H 0.45121 0.84711 0.75556 0.0
H12 H 0.41916 0.99787 0.74019 0.0
H13 H 0.41096 0.90148 0.62 0.0
C14 C 0.44094 0.87694 0.73382 0.0
C15 C 0.43228 0.86851 0.68522 0.0
C16 C 0.43587 0.92345 0.75435 0.0
C17 C 0.42207 0.96142 0.7255 0.0
C18 C 0.4117 0.95303 0.67768 0.0
C19 C 0.41683 0.90675 0.65755 0.0
N20 N 0.39871 0.99256 0.64984 0.0
C21 C 0.35448 0.98907 0.62352 0.0
H22 H 0.65541 0.35943 0.99915 0.0
H23 H 0.61476 0.49317 0.93752 0.0
H24 H 0.50542 0.36572 0.94542 0.0
C25 C 0.62742 0.37975 0.98287 0.0
C26 C 0.57876 0.35623 0.9744 0.0
C27 C 0.64075 0.42903 0.96989 0.0
C28 C 0.60493 0.45511 0.94791 0.0
C29 C 0.55589 0.43238 0.94031 0.0
C30 C 0.54293 0.38321 0.95343 0.0
N31 N 0.51922 0.45848 0.91903 0.0
C32 C 0.52511 0.47581 0.87361 0.0
H33 H 0.84523 0.73275 0.47968 0.0
H34 H 0.94993 0.68143 0.38274 0.0
H35 H 0.82973 0.58 0.43519 0.0
C36 C 0.85795 0.70303 0.45904 0.0
C37 C 0.83231 0.65523 0.46123 0.0
C38 C 0.90067 0.71252 0.43125 0.0
C39 C 0.91706 0.67421 0.40436 0.0
C40 C 0.8914 0.62634 0.4061 0.0
C41 C 0.84978 0.61692 0.43499 0.0
N42 N 0.90681 0.58692 0.37929 0.0
C43 C 0.92018 0.59206 0.33254 0.0
H44 H 0.96205 0.85551 0.82656 0.0
H45 H 0.88576 0.89522 0.95111 0.0
H46 H 0.90328 0.99613 0.83649 0.0
C47 C 0.9416 0.88135 0.84538 0.0
C48 C 0.93384 0.92688 0.82478 0.0
C49 C 0.9246 0.86958 0.89109 0.0
C50 C 0.89932 0.90383 0.91613 0.0
C51 C 0.89262 0.94974 0.89643 0.0
C52 C 0.90984 0.96084 0.85127 0.0
N53 N 0.87093 0.98682 0.92174 0.0
C54 C 0.83133 0.97764 0.95247 0.0
H55 H 0.70374 0.09321 0.36485 0.0
H56 H 0.69425 0.15908 0.50202 0.0
H57 H 0.58078 0.1758 0.39747 0.0
C58 C 0.6851 0.11549 0.38933 0.0
C59 C 0.64064 0.13433 0.37522 0.0
C60 C 0.70495 0.12393 0.43503 0.0
C61 C 0.6793 0.15126 0.46683 0.0
C62 C 0.63496 0.17018 0.45353 0.0
C63 C 0.61555 0.16186 0.4076 0.0
N64 N 0.60917 0.19435 0.48837 0.0
C65 C 0.58795 0.23801 0.48161 0.0
H66 H 0.32795 0.72352 0.0992 0.0
H67 H 0.31321 0.56981 0.13698 0.0
H68 H 0.43854 0.66895 0.18935 0.0
C69 C 0.34161 0.69314 0.118 0.0
C70 C 0.38605 0.70159 0.14473 0.0
C71 C 0.31475 0.64589 0.11532 0.0
C72 C 0.33388 0.60646 0.13822 0.0
C73 C 0.37787 0.61464 0.16554 0.0
C74 C 0.40422 0.66234 0.16854 0.0
N75 N 0.39374 0.57476 0.19115 0.0
C76 C 0.41554 0.58166 0.23555 0.0
H77 H 0.17182 0.36942 0.57571 0.0
H78 H 0.13439 0.51342 0.61498 0.0
H79 H 0.02591 0.38626 0.63053 0.0
C80 C 0.14527 0.39248 0.59004 0.0
C81 C 0.09765 0.37102 0.60364 0.0
C82 C 0.15928 0.44356 0.59465 0.0
C83 C 0.1241 0.47394 0.61055 0.0
C84 C 0.076 0.45321 0.62281 0.0
C85 C 0.06291 0.40189 0.61986 0.0
N86 N 0.04123 0.48414 0.6394 0.0
C87 C 0.03381 0.4888 0.68721 0.0
O88 O 0.01148 0.13661 0.57314 0.0
Zn89 Zn 0.98384 0.0659 0.55916 0.0
O90 O 0.02819 0.03522 0.51628 0.0
Zn91 Zn 0.99343 0.02149 0.45574 0.0
Zn92 Zn 0.08951 0.0796 0.50575 0.0
Zn93 Zn 0.04594 0.97392 0.54428 0.0
O94 O 0.98153 0.94782 0.44358 0.0
O95 O 0.02059 0.91576 0.50343 0.0
O96 O 0.91501 0.06851 0.52982 0.0
O97 O 0.92578 0.04655 0.4556 0.0
O98 O 0.03183 0.05487 0.40183 0.0
O99 O 0.09833 0.09625 0.43678 0.0
O100 O 0.15069 0.04993 0.52894 0.0
O101 O 0.97682 0.02939 0.62104 0.0
O102 O 0.12092 0.97549 0.55375 0.0
O103 O 0.01497 0.96231 0.60835 0.0
C104 C 0.05335 0.16154 0.56452 0.0
C105 C 0.99515 0.91067 0.46522 0.0
C106 C 0.07247 0.08396 0.3997 0.0
C107 C 0.89874 0.06205 0.48766 0.0
C108 C 0.15768 0.00842 0.54674 0.0
C109 C 0.98993 0.98819 0.63465 0.0
O110 O 0.08682 0.1437 0.54056 0.0
O111 O 0.49873 0.12405 0.01458 0.0
Zn112 Zn 0.46944 0.05488 0.02855 0.0
O113 O 0.51447 0.0244 0.0716 0.0
Zn114 Zn 0.53144 0.96291 0.04337 0.0
Zn115 Zn 0.577 0.06778 0.0827 0.0
Zn116 Zn 0.48027 0.01135 0.13139 0.0
O117 O 0.50412 0.90479 0.08152 0.0
O118 O 0.46762 0.93792 0.14184 0.0
O119 O 0.4586 0.01661 0.96669 0.0
O120 O 0.50283 0.95353 0.97774 0.0
O121 O 0.60568 0.96231 0.0358 0.0
O122 O 0.63736 0.03778 0.0581 0.0
O123 O 0.58803 0.08273 0.15207 0.0
O124 O 0.40311 0.06319 0.05823 0.0
O125 O 0.52111 0.04399 0.1862 0.0
O126 O 0.41244 0.03707 0.1312 0.0
C127 C 0.53998 0.14974 0.02534 0.0
C128 C 0.47921 0.90032 0.11927 0.0
C129 C 0.64302 0.99523 0.04127 0.0
C130 C 0.47523 0.97734 0.95175 0.0
C131 C 0.56298 0.07135 0.18887 0.0
C132 C 0.38657 0.05578 0.09957 0.0
O133 O 0.57365 0.13268 0.05031 0.0
O134 O 0.54785 0.56657 0.66241 0.0
Zn135 Zn 0.54566 0.60101 0.59966 0.0
O136 O 0.50352 0.55962 0.55392 0.0
Zn137 Zn 0.54358 0.54205 0.50118 0.0
Zn138 Zn 0.47592 0.49794 0.5826 0.0
Zn139 Zn 0.44878 0.59599 0.53148 0.0
O140 O 0.51424 0.56285 0.44071 0.0
O141 O 0.45074 0.60376 0.4608 0.0
O142 O 0.61656 0.61752 0.57555 0.0
O143 O 0.61299 0.57626 0.50731 0.0
O144 O 0.54863 0.46869 0.49558 0.0
O145 O 0.49872 0.43745 0.55161 0.0
O146 O 0.40102 0.49067 0.58031 0.0
O147 O 0.51604 0.66494 0.6128 0.0
O148 O 0.38153 0.55865 0.54566 0.0
O149 O 0.45014 0.6625 0.56456 0.0
C150 C 0.52493 0.52623 0.67734 0.0
C151 C 0.47837 0.5874 0.42956 0.0
C152 C 0.52786 0.43156 0.51766 0.0
C153 C 0.63685 0.60441 0.53792 0.0
C154 C 0.36846 0.51734 0.56509 0.0
C155 C 0.47827 0.68426 0.59674 0.0
O156 O 0.49628 0.49771 0.6503 0.0
O157 O 0.94348 0.53574 0.11543 0.0
Zn158 Zn 0.94688 0.50546 0.05162 0.0
O159 O 0.98424 0.55206 0.00974 0.0
Zn160 Zn 0.94172 0.56627 0.95664 0.0
Zn161 Zn 0.00469 0.61478 0.04323 0.0
Zn162 Zn 0.04239 0.52145 0.98728 0.0
O163 O 0.96784 0.54074 0.89693 0.0
O164 O 0.04036 0.514 0.91618 0.0
O165 O 0.87571 0.48982 0.02879 0.0
O166 O 0.87104 0.53471 0.96449 0.0
O167 O 0.93987 0.63947 0.94785 0.0
O168 O 0.98287 0.67447 0.00876 0.0
O169 O 0.07956 0.62404 0.04915 0.0
O170 O 0.97869 0.44191 0.06009 0.0
O171 O 0.1062 0.56242 0.00845 0.0
O172 O 0.04574 0.4535 0.01549 0.0
C173 C 0.95651 0.57813 0.13388 0.0
C174 C 0.0074 0.52224 0.88539 0.0
C175 C 0.95755 0.67806 0.9709 0.0
C176 C 0.85054 0.50498 0.99468 0.0
C177 C 0.11506 0.60138 0.03384 0.0
C178 C 0.01835 0.42691 0.04394 0.0
O179 O 0.97898 0.61318 0.11006 0.0
C180 C 0.07391 0.1109 0.26834 0.0
C181 C 0.12145 0.13726 0.2619 0.0
C182 C 0.05832 0.09445 0.31296 0.0
C183 C 0.08952 0.10388 0.35315 0.0
H184 H 0.04931 0.10113 0.23835 0.0
H185 H 0.02171 0.07342 0.31569 0.0
S186 S 0.21617 0.17552 0.35532 0.0
N187 N 0.19841 0.17498 0.29951 0.0
N188 N 0.16949 0.14433 0.38337 0.0
C189 C 0.13652 0.132 0.34731 0.0
C190 C 0.15237 0.14855 0.30176 0.0
C191 C 0.41221 0.96002 0.83114 0.0
C192 C 0.44511 0.9334 0.80562 0.0
C193 C 0.4218 0.97347 0.87842 0.0
C194 C 0.46438 0.96031 0.90245 0.0
H195 H 0.37882 0.97099 0.81429 0.0
H196 H 0.39565 0.99447 0.89623 0.0
S197 S 0.56302 0.89142 0.85174 0.0
N198 N 0.52268 0.89528 0.80793 0.0
N199 N 0.54001 0.91915 0.89703 0.0
C200 C 0.49713 0.93281 0.8777 0.0
C201 C 0.48765 0.91964 0.82933 0.0
C202 C 0.49473 0.46193 0.79279 0.0
C203 C 0.52753 0.4888 0.8248 0.0
C204 C 0.49516 0.47377 0.74511 0.0
C205 C 0.52838 0.51315 0.72773 0.0
H206 H 0.46821 0.43172 0.80472 0.0
H207 H 0.46847 0.45224 0.72194 0.0
S208 S 0.62369 0.59305 0.79854 0.0
N209 N 0.59531 0.55479 0.83707 0.0
N210 N 0.59646 0.57781 0.74716 0.0
C211 C 0.56216 0.53977 0.75979 0.0
C212 C 0.56165 0.52739 0.80848 0.0
C213 C 0.90427 0.55285 0.25542 0.0
C214 C 0.92896 0.59145 0.28277 0.0
C215 C 0.91269 0.54973 0.20719 0.0
C216 C 0.94616 0.58527 0.18446 0.0
H217 H 0.87857 0.52446 0.27151 0.0
H218 H 0.893 0.51883 0.18771 0.0
S219 S 0.01907 0.69465 0.24164 0.0
N220 N 0.9871 0.66657 0.28485 0.0
N221 N 0.00342 0.66119 0.19378 0.0
C222 C 0.97037 0.62484 0.21168 0.0
C223 C 0.96171 0.62778 0.26103 0.0
C224 C 0.27934 0.13488 0.10677 0.0
C225 C 0.24619 0.10894 0.13828 0.0
C226 C 0.32398 0.11672 0.09354 0.0
C227 C 0.33772 0.07231 0.11188 0.0
H228 H 0.2713 0.1701 0.09288 0.0
H229 H 0.34866 0.13843 0.06981 0.0
S230 S 0.26234 0.98743 0.19158 0.0
N231 N 0.2285 0.03381 0.18396 0.0
N232 N 0.31362 0.0012 0.16081 0.0
C233 C 0.30477 0.04548 0.14269 0.0
C234 C 0.25877 0.0634 0.15547 0.0
C235 C 0.29658 0.03416 0.57783 0.0
C236 C 0.30683 0.99053 0.59982 0.0
C237 C 0.24872 0.03882 0.55928 0.0
C238 C 0.20923 1.00003 0.56237 0.0
H239 H 0.32535 0.06545 0.57609 0.0
H240 H 0.24242 0.07376 0.54365 0.0
S241 S 0.21929 0.87663 0.61456 0.0
N242 N 0.27578 0.90702 0.6221 0.0
N243 N 0.18548 0.91507 0.58733 0.0
C244 C 0.21998 0.95536 0.58306 0.0
C245 C 0.2689 0.95082 0.60184 0.0
C246 C 0.72038 0.47425 0.94071 0.0
C247 C 0.69281 0.45211 0.97805 0.0
C248 C 0.77124 0.49186 0.94658 0.0
C249 C 0.79632 0.48779 0.98997 0.0
H250 H 0.70294 0.47658 0.90634 0.0
H251 H 0.79125 0.50769 0.91652 0.0
S252 S 0.73879 0.4379 0.10013 0.0
N253 N 0.69265 0.4309 0.06079 0.0
N254 N 0.78832 0.46343 0.07192 0.0
C255 C 0.76852 0.46726 0.02803 0.0
C256 C 0.71674 0.44959 0.02205 0.0
C257 C 0.74714 0.67686 0.48153 0.0
C258 C 0.78529 0.64599 0.48812 0.0
C259 C 0.69967 0.66507 0.50099 0.0
C260 C 0.68909 0.6224 0.528 0.0
H261 H 0.75308 0.70883 0.45903 0.0
H262 H 0.67033 0.688 0.49281 0.0
S263 S 0.77698 0.53251 0.56017 0.0
N264 N 0.81035 0.57341 0.52732 0.0
N265 N 0.7206 0.55102 0.56315 0.0
C266 C 0.72737 0.59271 0.53699 0.0
C267 C 0.77569 0.60461 0.51726 0.0
C268 C 0.09497 0.31773 0.05646 0.0
C269 C 0.06646 0.28604 0.08699 0.0
C270 C 0.07914 0.36303 0.04291 0.0
C271 C 0.03395 0.3784 0.05928 0.0
H272 H 0.12948 0.3071 0.04228 0.0
H273 H 0.10251 0.38596 0.0191 0.0
S274 S 0.94615 0.30767 0.14083 0.0
N275 N 0.99157 0.27228 0.13369 0.0
N276 N 0.96133 0.35731 0.10879 0.0
C277 C 0.00538 0.34677 0.09046 0.0
C278 C 0.02173 0.30061 0.10415 0.0
C279 C 0.60188 0.2697 0.97687 0.0
C280 C 0.56666 0.30311 0.98611 0.0
C281 C 0.59296 0.21997 0.98957 0.0
C282 C 0.5479 0.20153 0.01063 0.0
H283 H 0.6368 0.28203 0.95975 0.0
H284 H 0.62133 0.19568 0.98252 0.0
S285 S 0.44389 0.2727 0.04371 0.0
N286 N 0.4856 0.31388 0.01965 0.0
N287 N 0.4678 0.21951 0.04083 0.0
C288 C 0.51188 0.23386 0.01931 0.0
C289 C 0.52144 0.28486 0.00759 0.0
C290 C 0.90494 0.80351 0.41945 0.0
C291 C 0.92889 0.76232 0.43243 0.0
C292 C 0.9283 0.8517 0.42715 0.0
C293 C 0.97591 0.86018 0.44908 0.0
H294 H 0.8672 0.79838 0.40476 0.0
H295 H 0.90763 0.88239 0.41842 0.0
S296 S 0.0557 0.76429 0.48598 0.0
N297 N 0.0039 0.73261 0.46483 0.0
N298 N 0.04771 0.82324 0.48023 0.0
C299 C 0.00116 0.81914 0.4601 0.0
C300 C 0.97765 0.77013 0.45153 0.0
C301 C 0.48762 0.80149 0.67244 0.0
C302 C 0.44223 0.8209 0.66287 0.0
C303 C 0.49909 0.75789 0.65044 0.0
C304 C 0.46565 0.73166 0.61788 0.0
H305 H 0.51497 0.82059 0.69665 0.0
H306 H 0.53465 0.74476 0.65914 0.0
S307 S 0.34023 0.76576 0.58262 0.0
N308 N 0.36265 0.80972 0.62015 0.0
N309 N 0.38405 0.72811 0.57842 0.0
C310 C 0.41981 0.75061 0.60826 0.0
C311 C 0.40817 0.79505 0.6308 0.0
C312 C 0.97092 0.98926 0.76642 0.0
C313 C 0.95078 0.94021 0.7761 0.0
C314 C 0.98309 0.00438 0.72063 0.0
C315 C 0.97709 0.97085 0.68263 0.0
H316 H 0.97717 0.01653 0.79448 0.0
H317 H 0.99785 0.0426 0.71502 0.0
S318 S 0.92598 0.83857 0.68769 0.0
N319 N 0.9244 0.85846 0.7426 0.0
N320 N 0.95026 0.88649 0.65707 0.0
C321 C 0.95841 0.92149 0.69156 0.0
C322 C 0.94469 0.90625 0.73811 0.0
C323 C 0.57113 0.09868 0.32077 0.0
C324 C 0.61993 0.12288 0.32712 0.0
C325 C 0.55297 0.08254 0.27602 0.0
C326 C 0.58278 0.0903 0.23573 0.0
H327 H 0.54737 0.09072 0.35084 0.0
H328 H 0.51539 0.06333 0.27319 0.0
S329 S 0.71229 0.15565 0.2337 0.0
N330 N 0.69685 0.15642 0.28959 0.0
N331 N 0.66318 0.12648 0.20555 0.0
C332 C 0.63124 0.11602 0.24166 0.0
C333 C 0.64967 0.13215 0.28727 0.0
C334 C 0.40148 0.60027 0.31844 0.0
C335 C 0.43396 0.58817 0.28315 0.0
C336 C 0.41704 0.60251 0.36571 0.0
C337 C 0.46553 0.59233 0.3791 0.0
H338 H 0.36337 0.60671 0.30961 0.0
H339 H 0.39013 0.61024 0.39199 0.0
S340 S 0.56591 0.5638 0.298 0.0
N341 N 0.51719 0.56956 0.26318 0.0
N342 N 0.54715 0.57369 0.35193 0.0
C343 C 0.49901 0.58241 0.34337 0.0
C344 C 0.483 0.58029 0.29533 0.0
C345 C 0.98592 0.51658 0.75308 0.0
C346 C 0.02738 0.49504 0.73691 0.0
C347 C 0.97972 0.52465 0.80117 0.0
C348 C 0.01494 0.51155 0.83482 0.0
H349 H 0.95827 0.52767 0.7284 0.0
H350 H 0.94716 0.54179 0.81183 0.0
S351 S 0.12982 0.45258 0.80877 0.0
N352 N 0.10379 0.45981 0.7567 0.0
N353 N 0.09269 0.47476 0.84747 0.0
C354 C 0.05653 0.48934 0.81859 0.0
C355 C 0.06261 0.48114 0.76947 0.0
C356 C 0.78124 0.01621 0.01084 0.0
C357 C 0.78685 0.97644 0.98047 0.0
C358 C 0.73521 0.02071 0.03221 0.0
C359 C 0.69307 0.98559 0.02375 0.0
H360 H 0.81203 0.04518 0.01663 0.0
H361 H 0.73228 0.05293 0.05419 0.0
S362 S 0.69056 0.87273 0.94844 0.0
N363 N 0.74846 0.90018 0.9443 0.0
N364 N 0.66171 0.90781 0.98432 0.0
C365 C 0.69932 0.94425 0.99488 0.0
C366 C 0.74629 0.93994 0.97316 0.0
C367 C 0.79376 0.11048 0.41776 0.0
C368 C 0.75324 0.10554 0.44889 0.0
C369 C 0.84025 0.09535 0.43032 0.0
C370 C 0.84843 0.07539 0.47481 0.0
H371 H 0.78993 0.12718 0.38368 0.0
H372 H 0.87046 0.10058 0.40539 0.0
S373 S 0.75377 0.04994 0.56761 0.0
N374 N 0.72343 0.07505 0.52482 0.0
N375 N 0.81161 0.0487 0.54908 0.0
C376 C 0.80821 0.06941 0.50605 0.0
C377 C 0.76049 0.08397 0.49295 0.0
C378 C 0.25382 0.59853 0.0595 0.0
C379 C 0.26519 0.63827 0.09117 0.0
C380 C 0.20582 0.58838 0.03925 0.0
C381 C 0.16724 0.61743 0.05018 0.0
H382 H 0.28204 0.57461 0.05089 0.0
H383 H 0.19863 0.55649 0.01605 0.0
S384 S 0.17891 0.72726 0.13008 0.0
N385 N 0.23482 0.70766 0.13182 0.0
N386 N 0.1449 0.68943 0.09331 0.0
C387 C 0.17886 0.65853 0.08058 0.0
C388 C 0.22771 0.66871 0.10121 0.0
C389 C 0.25088 0.44057 0.60644 0.0
C390 C 0.2119 0.46389 0.58611 0.0
C391 C 0.30108 0.45814 0.59921 0.0
C392 C 0.31456 0.49996 0.5714 0.0
H393 H 0.24252 0.40859 0.62859 0.0
H394 H 0.32948 0.43877 0.61598 0.0
S395 S 0.22621 0.57359 0.50912 0.0
N396 N 0.18961 0.53016 0.53617 0.0
N397 N 0.28428 0.56392 0.52275 0.0
C398 C 0.27581 0.52376 0.55078 0.0
C399 C 0.22446 0.50563 0.55816 0.0
C400 C 0.9199 0.77699 0.88758 0.0
C401 C 0.93336 0.82146 0.91254 0.0
C402 C 0.92744 0.73113 0.90698 0.0
C403 C 0.94927 0.72766 0.9521 0.0
H404 H 0.9029 0.77758 0.85284 0.0
H405 H 0.91627 0.69813 0.88607 0.0
S406 S 0.99279 0.83386 0.03128 0.0
N407 N 0.9706 0.8596 0.98426 0.0
N408 N 0.98488 0.77364 0.02087 0.0
C409 C 0.96322 0.77209 0.97734 0.0
C410 C 0.9552 0.81882 0.95759 0.0
C411 C 0.46077 0.76069 0.12649 0.0
C412 C 0.4133 0.75174 0.1467 0.0
C413 C 0.48321 0.80916 0.11996 0.0
C414 C 0.45914 0.8501 0.13406 0.0
H415 H 0.47935 0.73018 0.1133 0.0
H416 H 0.51881 0.81459 0.10221 0.0
S417 S 0.33633 0.84522 0.19319 0.0
N418 N 0.34444 0.78668 0.18395 0.0
N419 N 0.38671 0.87797 0.17248 0.0
C420 C 0.41302 0.84129 0.15716 0.0
C421 C 0.39 0.79198 0.16319 0.0
C422 C 0.03789 0.29698 0.57962 0.0
C423 C 0.08437 0.31657 0.5996 0.0
C424 C 0.02702 0.24612 0.57046 0.0
C425 C 0.06258 0.21342 0.58023 0.0
H426 H 0.01054 0.32127 0.56918 0.0
H427 H 0.99157 0.23266 0.55353 0.0
S428 S 0.18622 0.24428 0.63923 0.0
N429 N 0.16321 0.29782 0.63483 0.0
N430 N 0.14364 0.20272 0.61494 0.0
C431 C 0.10806 0.23195 0.60212 0.0
C432 C 0.11872 0.28342 0.61252 0.0
C433 C 0.59494 0.32768 0.46637 0.0
C434 C 0.56825 0.28513 0.48493 0.0
C435 C 0.58059 0.37479 0.47583 0.0
C436 C 0.5394 0.38093 0.50474 0.0
H437 H 0.62808 0.32472 0.44571 0.0
H438 H 0.60308 0.40669 0.46169 0.0
S439 S 0.45573 0.27945 0.55912 0.0
N440 N 0.49783 0.25093 0.53123 0.0
N441 N 0.47047 0.33905 0.54932 0.0
C442 C 0.5115 0.33799 0.52209 0.0
C443 C 0.52608 0.29017 0.51213 0.0
loop_
_geom_bond_atom_site_label_1
_geom_bond_atom_site_label_2
_geom_bond_distance
_geom_bond_site_symmetry_2
_ccdc_geom_bond_type
H0 C3 0.929 . S
H1 C6 0.929 . S
H2 C8 0.930 . S
C3 H0 0.929 . S
C3 C4 1.398 . S
C3 C5 1.396 . S
C4 C3 1.398 . S
C4 C8 1.407 . S
C5 C3 1.396 . S
C5 C6 1.394 . S
C6 H1 0.929 . S
C6 C5 1.394 . S
C6 C7 1.382 . S
C7 C6 1.382 . S
C7 C8 1.392 . S
C7 N9 1.420 . S
C8 H2 0.930 . S
C8 C4 1.407 . S
C8 C7 1.392 . S
N9 C7 1.420 . S
N9 C10 1.244 . S
C10 N9 1.244 . S
H11 C14 0.929 . S
H12 C17 0.929 . S
H13 C19 0.930 . S
C14 H11 0.929 . S
C14 C15 1.398 . S
C14 C16 1.396 . S
C15 C14 1.398 . S
C15 C19 1.407 . S
C16 C14 1.396 . S
C16 C17 1.394 . S
C17 H12 0.929 . S
C17 C16 1.394 . S
C17 C18 1.382 . S
C18 C17 1.382 . S
C18 C19 1.392 . S
C18 N20 1.420 . S
C19 H13 0.930 . S
C19 C15 1.407 . S
C19 C18 1.392 . S
N20 C18 1.420 . S
N20 C21 1.244 . S
C21 N20 1.244 . S
H22 C25 0.929 1_554 S
H23 C28 0.929 . S
H24 C30 0.930 . S
C25 H22 0.929 1_556 S
C25 C26 1.398 . S
C25 C27 1.396 . S
C26 C25 1.398 . S
C26 C30 1.407 . S
C27 C25 1.396 . S
C27 C28 1.394 . S
C28 H23 0.929 . S
C28 C27 1.394 . S
C28 C29 1.382 . S
C29 C28 1.382 . S
C29 C30 1.392 . S
C29 N31 1.420 . S
C30 H24 0.930 . S
C30 C26 1.407 . S
C30 C29 1.392 . S
N31 C29 1.420 . S
N31 C32 1.244 . S
C32 N31 1.244 . S
H33 C36 0.929 . S
H34 C39 0.929 . S
H35 C41 0.930 . S
C36 H33 0.929 . S
C36 C37 1.398 . S
C36 C38 1.396 . S
C37 C36 1.398 . S
C37 C41 1.407 . S
C38 C36 1.396 . S
C38 C39 1.394 . S
C39 H34 0.929 . S
C39 C38 1.394 . S
C39 C40 1.382 . S
C40 C39 1.382 . S
C40 C41 1.392 . S
C40 N42 1.420 . S
C41 H35 0.930 . S
C41 C37 1.407 . S
C41 C40 1.392 . S
N42 C40 1.420 . S
N42 C43 1.244 . S
C43 N42 1.244 . S
H44 C47 0.929 . S
H45 C50 0.929 . S
H46 C52 0.930 . S
C47 H44 0.929 . S
C47 C48 1.398 . S
C47 C49 1.396 . S
C48 C47 1.398 . S
C48 C52 1.407 1_565 S
C49 C47 1.396 . S
C49 C50 1.394 . S
C50 H45 0.929 . S
C50 C49 1.394 . S
C50 C51 1.382 . S
C51 C50 1.382 . S
C51 C52 1.392 1_565 S
C51 N53 1.420 1_565 S
C52 H46 0.930 . S
C52 C48 1.407 1_545 S
C52 C51 1.392 1_545 S
N53 C51 1.420 1_545 S
N53 C54 1.244 1_545 S
C54 N53 1.244 1_565 S
H55 C58 0.929 . S
H56 C61 0.929 . S
H57 C63 0.930 . S
C58 H55 0.929 . S
C58 C59 1.398 . S
C58 C60 1.396 . S
C59 C58 1.398 . S
C59 C63 1.407 . S
C60 C58 1.396 . S
C60 C61 1.394 . S
C61 H56 0.929 . S
C61 C60 1.394 . S
C61 C62 1.382 . S
C62 C61 1.382 . S
C62 C63 1.392 . S
C62 N64 1.420 . S
C63 H57 0.930 . S
C63 C59 1.407 . S
C63 C62 1.392 . S
N64 C62 1.420 . S
N64 C65 1.244 . S
C65 N64 1.244 . S
H66 C69 0.929 . S
H67 C72 0.929 . S
H68 C74 0.930 . S
C69 H66 0.929 . S
C69 C70 1.398 . S
C69 C71 1.396 . S
C70 C69 1.398 . S
C70 C74 1.407 . S
C71 C69 1.396 . S
C71 C72 1.394 . S
C72 H67 0.929 . S
C72 C71 1.394 . S
C72 C73 1.382 . S
C73 C72 1.382 . S
C73 C74 1.392 . S
C73 N75 1.420 . S
C74 H68 0.930 . S
C74 C70 1.407 . S
C74 C73 1.392 . S
N75 C73 1.420 . S
N75 C76 1.244 . S
C76 N75 1.244 . S
H77 C80 0.929 . S
H78 C83 0.929 . S
H79 C85 0.930 . S
C80 H77 0.929 . S
C80 C81 1.398 . S
C80 C82 1.396 . S
C81 C80 1.398 . S
C81 C85 1.407 . S
C82 C80 1.396 . S
C82 C83 1.394 . S
C83 H78 0.929 . S
C83 C82 1.394 . S
C83 C84 1.382 . S
C84 C83 1.382 . S
C84 C85 1.392 . S
C84 N86 1.420 . S
C85 H79 0.930 . S
C85 C81 1.407 . S
C85 C84 1.392 . S
N86 C84 1.420 . S
N86 C87 1.244 . S
C87 N86 1.244 . S
O88 Zn89 1.953 . S
O88 C104 1.225 1_655 S
Zn89 O88 1.953 . S
Zn89 O90 1.949 1_655 S
Zn89 O96 1.919 . S
Zn89 O101 1.924 . S
O90 Zn89 1.949 1_455 S
O90 Zn91 1.923 1_455 S
O90 Zn92 1.950 . S
O90 Zn93 1.945 1_545 S
Zn91 O90 1.923 1_655 S
Zn91 O94 1.933 1_545 S
Zn91 O97 1.941 . S
Zn91 O98 1.965 1_655 S
Zn92 O90 1.950 . S
Zn92 O99 1.938 . S
Zn92 O100 1.906 . S
Zn92 O110 1.953 . S
Zn93 O90 1.945 1_565 S
Zn93 O95 1.932 1_455 S
Zn93 O102 1.977 . S
Zn93 O103 1.910 1_455 S
O94 Zn91 1.933 1_565 S
O94 C105 1.226 . S
O95 Zn93 1.932 1_655 S
O95 C105 1.307 . S
O96 Zn89 1.919 . S
O96 C107 1.253 . S
O97 Zn91 1.941 . S
O97 C107 1.283 . S
O98 Zn91 1.965 1_455 S
O98 C106 1.303 . S
O99 Zn92 1.938 . S
O99 C106 1.247 . S
O100 Zn92 1.906 . S
O100 C108 1.304 1_545 S
O101 Zn89 1.924 . S
O101 C109 1.311 . S
O102 Zn93 1.977 . S
O102 C108 1.272 . S
O103 Zn93 1.910 1_655 S
O103 C109 1.231 1_565 S
C104 O88 1.225 1_455 S
C104 O110 1.298 . S
C105 O94 1.226 . S
C105 O95 1.307 . S
C106 O98 1.303 . S
C106 O99 1.247 . S
C107 O96 1.253 . S
C107 O97 1.283 . S
C108 O100 1.304 1_565 S
C108 O102 1.272 . S
C109 O101 1.311 . S
C109 O103 1.231 1_545 S
O110 Zn92 1.953 . S
O110 C104 1.298 . S
O111 Zn112 1.953 1_556 S
O111 C127 1.225 1_556 S
Zn112 O111 1.953 1_554 S
Zn112 O113 1.949 . S
Zn112 O119 1.919 1_554 S
Zn112 O124 1.924 . S
O113 Zn112 1.949 . S
O113 Zn114 1.923 1_545 S
O113 Zn115 1.950 . S
O113 Zn116 1.945 . S
Zn114 O113 1.923 1_565 S
Zn114 O117 1.933 . S
Zn114 O120 1.941 1_554 S
Zn114 O121 1.965 . S
Zn115 O113 1.950 . S
Zn115 O122 1.938 . S
Zn115 O123 1.906 . S
Zn115 O133 1.953 . S
Zn116 O113 1.945 . S
Zn116 O118 1.932 1_545 S
Zn116 O125 1.977 . S
Zn116 O126 1.910 . S
O117 Zn114 1.933 . S
O117 C128 1.226 . S
O118 Zn116 1.932 1_565 S
O118 C128 1.307 . S
O119 Zn112 1.919 1_556 S
O119 C130 1.253 1_545 S
O120 Zn114 1.941 1_556 S
O120 C130 1.283 . S
O121 Zn114 1.965 . S
O121 C129 1.303 1_565 S
O122 Zn115 1.938 . S
O122 C129 1.247 . S
O123 Zn115 1.906 . S
O123 C131 1.304 . S
O124 Zn112 1.924 . S
O124 C132 1.311 . S
O125 Zn116 1.977 . S
O125 C131 1.272 . S
O126 Zn116 1.910 . S
O126 C132 1.231 . S
C127 O111 1.225 1_554 S
C127 O133 1.298 . S
C128 O117 1.226 . S
C128 O118 1.307 . S
C129 O121 1.303 1_545 S
C129 O122 1.247 . S
C130 O119 1.253 1_565 S
C130 O120 1.283 . S
C131 O123 1.304 . S
C131 O125 1.272 . S
C132 O124 1.311 . S
C132 O126 1.231 . S
O133 Zn115 1.953 . S
O133 C127 1.298 . S
O134 Zn135 1.953 . S
O134 C150 1.225 . S
Zn135 O134 1.953 . S
Zn135 O136 1.949 . S
Zn135 O142 1.919 . S
Zn135 O147 1.924 . S
O136 Zn135 1.949 . S
O136 Zn137 1.923 . S
O136 Zn138 1.950 . S
O136 Zn139 1.945 . S
Zn137 O136 1.923 . S
Zn137 O140 1.933 . S
Zn137 O143 1.941 . S
Zn137 O144 1.965 . S
Zn138 O136 1.950 . S
Zn138 O145 1.938 . S
Zn138 O146 1.906 . S
Zn138 O156 1.953 . S
Zn139 O136 1.945 . S
Zn139 O141 1.932 . S
Zn139 O148 1.977 . S
Zn139 O149 1.910 . S
O140 Zn137 1.933 . S
O140 C151 1.226 . S
O141 Zn139 1.932 . S
O141 C151 1.307 . S
O142 Zn135 1.919 . S
O142 C153 1.253 . S
O143 Zn137 1.941 . S
O143 C153 1.283 . S
O144 Zn137 1.965 . S
O144 C152 1.303 . S
O145 Zn138 1.938 . S
O145 C152 1.247 . S
O146 Zn138 1.906 . S
O146 C154 1.304 . S
O147 Zn135 1.924 . S
O147 C155 1.311 . S
O148 Zn139 1.977 . S
O148 C154 1.272 . S
O149 Zn139 1.910 . S
O149 C155 1.231 . S
C150 O134 1.225 . S
C150 O156 1.298 . S
C151 O140 1.226 . S
C151 O141 1.307 . S
C152 O144 1.303 . S
C152 O145 1.247 . S
C153 O142 1.253 . S
C153 O143 1.283 . S
C154 O146 1.304 . S
C154 O148 1.272 . S
C155 O147 1.311 . S
C155 O149 1.231 . S
O156 Zn138 1.953 . S
O156 C150 1.298 . S
O157 Zn158 1.953 . S
O157 C173 1.225 . S
Zn158 O157 1.953 . S
Zn158 O159 1.949 1_655 S
Zn158 O165 1.919 . S
Zn158 O170 1.924 . S
O159 Zn158 1.949 1_455 S
O159 Zn160 1.923 1_454 S
O159 Zn161 1.950 . S
O159 Zn162 1.945 1_554 S
Zn160 O159 1.923 1_656 S
Zn160 O163 1.933 1_655 S
Zn160 O166 1.941 . S
Zn160 O167 1.965 . S
Zn161 O159 1.950 . S
Zn161 O168 1.938 . S
Zn161 O169 1.906 . S
Zn161 O179 1.953 . S
Zn162 O159 1.945 1_556 S
Zn162 O164 1.932 . S
Zn162 O171 1.977 1_556 S
Zn162 O172 1.910 1_556 S
O163 Zn160 1.933 1_455 S
O163 C174 1.226 . S
O164 Zn162 1.932 . S
O164 C174 1.307 . S
O165 Zn158 1.919 . S
O165 C176 1.253 1_554 S
O166 Zn160 1.941 . S
O166 C176 1.283 . S
O167 Zn160 1.965 . S
O167 C175 1.303 . S
O168 Zn161 1.938 . S
O168 C175 1.247 1_454 S
O169 Zn161 1.906 . S
O169 C177 1.304 . S
O170 Zn158 1.924 . S
O170 C178 1.311 1_655 S
O171 Zn162 1.977 1_554 S
O171 C177 1.272 . S
O172 Zn162 1.910 1_554 S
O172 C178 1.231 . S
C173 O157 1.225 . S
C173 O179 1.298 1_655 S
C174 O163 1.226 . S
C174 O164 1.307 . S
C175 O167 1.303 . S
C175 O168 1.247 1_656 S
C176 O165 1.253 1_556 S
C176 O166 1.283 . S
C177 O169 1.304 . S
C177 O171 1.272 . S
C178 O170 1.311 1_455 S
C178 O172 1.231 . S
O179 Zn161 1.953 . S
O179 C173 1.298 1_455 S
C180 C181 1.369 . S
C180 C182 1.419 . S
C180 H184 0.930 . S
C181 C180 1.369 . S
C181 C190 1.429 . S
C182 C180 1.419 . S
C182 C183 1.363 . S
C182 H185 0.914 1_455 S
C183 C182 1.363 . S
C183 C189 1.428 . S
H184 C180 0.930 . S
H185 C182 0.914 1_655 S
S186 N187 1.613 . S
S186 N188 1.610 . S
N187 S186 1.613 . S
N187 C190 1.350 . S
N188 S186 1.610 . S
N188 C189 1.351 . S
C189 C183 1.428 . S
C189 N188 1.351 . S
C189 C190 1.434 . S
C190 C181 1.429 . S
C190 N187 1.350 . S
C190 C189 1.434 . S
C191 C192 1.369 . S
C191 C193 1.419 . S
C191 H195 0.930 . S
C192 C191 1.369 . S
C192 C201 1.429 . S
C193 C191 1.419 . S
C193 C194 1.363 . S
C193 H196 0.929 . S
C194 C193 1.363 . S
C194 C200 1.428 . S
H195 C191 0.930 . S
H196 C193 0.929 . S
S197 N198 1.613 . S
S197 N199 1.610 . S
N198 S197 1.613 . S
N198 C201 1.350 . S
N199 S197 1.610 . S
N199 C200 1.351 . S
C200 C194 1.428 . S
C200 N199 1.351 . S
C200 C201 1.434 . S
C201 C192 1.429 . S
C201 N198 1.350 . S
C201 C200 1.434 . S
C202 C203 1.369 . S
C202 C204 1.419 . S
C202 H206 0.930 . S
C203 C202 1.369 . S
C203 C212 1.429 . S
C204 C202 1.419 . S
C204 C205 1.363 . S
C204 H207 0.929 . S
C205 C204 1.363 . S
C205 C211 1.428 . S
H206 C202 0.930 . S
H207 C204 0.929 . S
S208 N209 1.613 . S
S208 N210 1.610 . S
N209 S208 1.613 . S
N209 C212 1.350 . S
N210 S208 1.610 . S
N210 C211 1.351 . S
C211 C205 1.428 . S
C211 N210 1.351 . S
C211 C212 1.434 . S
C212 C203 1.429 . S
C212 N209 1.350 . S
C212 C211 1.434 . S
C213 C214 1.369 . S
C213 C215 1.419 . S
C213 H217 0.930 . S
C214 C213 1.369 . S
C214 C223 1.429 . S
C215 C213 1.419 . S
C215 C216 1.363 . S
C215 H218 0.929 . S
C216 C215 1.363 . S
C216 C222 1.428 . S
H217 C213 0.930 . S
H218 C215 0.929 . S
S219 N220 1.613 . S
S219 N221 1.610 . S
N220 S219 1.613 . S
N220 C223 1.350 1_455 S
N221 S219 1.610 . S
N221 C222 1.351 1_455 S
C222 C216 1.428 . S
C222 N221 1.351 1_655 S
C222 C223 1.434 . S
C223 C214 1.429 . S
C223 N220 1.350 1_655 S
C223 C222 1.434 . S
C224 C225 1.369 . S
C224 C226 1.419 . S
C224 H228 0.930 . S
C225 C224 1.369 . S
C225 C234 1.429 . S
C226 C224 1.419 . S
C226 C227 1.363 . S
C226 H229 0.929 . S
C227 C226 1.363 . S
C227 C233 1.428 . S
H228 C224 0.930 . S
H229 C226 0.929 . S
S230 N231 1.613 1_565 S
S230 N232 1.610 1_565 S
N231 S230 1.613 1_545 S
N231 C234 1.350 . S
N232 S230 1.610 1_545 S
N232 C233 1.351 . S
C233 C227 1.428 . S
C233 N232 1.351 . S
C233 C234 1.434 . S
C234 C225 1.429 . S
C234 N231 1.350 . S
C234 C233 1.434 . S
C235 C236 1.369 . S
C235 C237 1.419 . S
C235 H239 0.930 . S
C236 C235 1.369 . S
C236 C245 1.429 . S
C237 C235 1.419 . S
C237 C238 1.363 . S
C237 H240 0.929 . S
C238 C237 1.363 . S
C238 C244 1.428 . S
H239 C235 0.930 . S
H240 C237 0.929 . S
S241 N242 1.613 . S
S241 N243 1.610 . S
N242 S241 1.613 . S
N242 C245 1.350 . S
N243 S241 1.610 . S
N243 C244 1.351 . S
C244 C238 1.428 . S
C244 N243 1.351 . S
C244 C245 1.434 . S
C245 C236 1.429 . S
C245 N242 1.350 . S
C245 C244 1.434 . S
C246 C247 1.369 . S
C246 C248 1.419 . S
C246 H250 0.930 . S
C247 C246 1.369 . S
C247 C256 1.429 . S
C248 C246 1.419 . S
C248 C249 1.363 . S
C248 H251 0.929 . S
C249 C248 1.363 . S
C249 C255 1.428 . S
H250 C246 0.930 . S
H251 C248 0.929 . S
S252 N253 1.613 . S
S252 N254 1.610 . S
N253 S252 1.613 . S
N253 C256 1.350 1_554 S
N254 S252 1.610 . S
N254 C255 1.351 1_554 S
C255 C249 1.428 . S
C255 N254 1.351 1_556 S
C255 C256 1.434 . S
C256 C247 1.429 . S
C256 N253 1.350 1_556 S
C256 C255 1.434 . S
C257 C258 1.369 . S
C257 C259 1.419 . S
C257 H261 0.930 . S
C258 C257 1.369 . S
C258 C267 1.429 . S
C259 C257 1.419 . S
C259 C260 1.363 . S
C259 H262 0.929 . S
C260 C259 1.363 . S
C260 C266 1.428 . S
H261 C257 0.930 . S
H262 C259 0.929 . S
S263 N264 1.613 . S
S263 N265 1.610 . S
N264 S263 1.613 . S
N264 C267 1.350 . S
N265 S263 1.610 . S
N265 C266 1.351 . S
C266 C260 1.428 . S
C266 N265 1.351 . S
C266 C267 1.434 . S
C267 C258 1.429 . S
C267 N264 1.350 . S
C267 C266 1.434 . S
C268 C269 1.369 . S
C268 C270 1.419 . S
C268 H272 0.930 . S
C269 C268 1.369 . S
C269 C278 1.429 . S
C270 C268 1.419 . S
C270 C271 1.363 . S
C270 H273 0.929 . S
C271 C270 1.363 . S
C271 C277 1.428 . S
H272 C268 0.930 . S
H273 C270 0.929 . S
S274 N275 1.613 1_655 S
S274 N276 1.610 . S
N275 S274 1.613 1_455 S
N275 C278 1.350 . S
N276 S274 1.610 . S
N276 C277 1.351 1_655 S
C277 C271 1.428 . S
C277 N276 1.351 1_455 S
C277 C278 1.434 . S
C278 C269 1.429 . S
C278 N275 1.350 . S
C278 C277 1.434 . S
C279 C280 1.369 . S
C279 C281 1.419 1_556 S
C279 H283 0.930 1_556 S
C280 C279 1.369 . S
C280 C289 1.429 . S
C281 C279 1.419 1_554 S
C281 C282 1.363 . S
C281 H284 0.929 . S
C282 C281 1.363 . S
C282 C288 1.428 1_554 S
H283 C279 0.930 1_554 S
H284 C281 0.929 . S
S285 N286 1.613 . S
S285 N287 1.610 . S
N286 S285 1.613 . S
N286 C289 1.350 . S
N287 S285 1.610 . S
N287 C288 1.351 . S
C288 C282 1.428 1_556 S
C288 N287 1.351 . S
C288 C289 1.434 . S
C289 C280 1.429 . S
C289 N286 1.350 . S
C289 C288 1.434 . S
C290 C291 1.369 . S
C290 C292 1.419 . S
C290 H294 0.930 . S
C291 C290 1.369 . S
C291 C300 1.429 . S
C292 C290 1.419 . S
C292 C293 1.363 . S
C292 H295 0.929 . S
C293 C292 1.363 . S
C293 C299 1.428 . S
H294 C290 0.930 . S
H295 C292 0.929 . S
S296 N297 1.613 . S
S296 N298 1.610 . S
N297 S296 1.613 . S
N297 C300 1.350 . S
N298 S296 1.610 . S
N298 C299 1.351 . S
C299 C293 1.428 . S
C299 N298 1.351 . S
C299 C300 1.434 . S
C300 C291 1.429 . S
C300 N297 1.350 . S
C300 C299 1.434 . S
C301 C302 1.369 . S
C301 C303 1.419 . S
C301 H305 0.930 . S
C302 C301 1.369 . S
C302 C311 1.429 . S
C303 C301 1.419 . S
C303 C304 1.363 . S
C303 H306 0.929 . S
C304 C303 1.363 . S
C304 C310 1.428 . S
H305 C301 0.930 . S
H306 C303 0.929 . S
S307 N308 1.613 . S
S307 N309 1.610 . S
N308 S307 1.613 . S
N308 C311 1.350 . S
N309 S307 1.610 . S
N309 C310 1.351 . S
C310 C304 1.428 . S
C310 N309 1.351 . S
C310 C311 1.434 . S
C311 C302 1.429 . S
C311 N308 1.350 . S
C311 C310 1.434 . S
C312 C313 1.369 1_545 S
C312 C314 1.419 . S
C312 H316 0.930 . S
C313 C312 1.369 1_565 S
C313 C322 1.429 . S
C314 C312 1.419 . S
C314 C315 1.363 . S
C314 H317 0.929 . S
C315 C314 1.363 . S
C315 C321 1.428 1_545 S
H316 C312 0.930 . S
H317 C314 0.929 . S
S318 N319 1.621 . S
S318 N320 1.616 . S
N319 S318 1.621 . S
N319 C322 1.339 1_455 S
N320 S318 1.616 . S
N320 C321 1.343 1_455 S
C321 C315 1.428 1_565 S
C321 N320 1.343 1_655 S
C321 C322 1.434 . S
C322 C313 1.429 . S
C322 N319 1.339 1_655 S
C322 C321 1.434 . S
C323 C324 1.369 . S
C323 C325 1.419 . S
C323 H327 0.930 1_545 S
C324 C323 1.369 . S
C324 C333 1.429 . S
C325 C323 1.419 . S
C325 C326 1.363 . S
C325 H328 0.929 1_545 S
C326 C325 1.363 . S
C326 C332 1.428 . S
H327 C323 0.930 1_565 S
H328 C325 0.929 1_565 S
S329 N330 1.613 . S
S329 N331 1.610 . S
N330 S329 1.613 . S
N330 C333 1.350 . S
N331 S329 1.610 . S
N331 C332 1.351 . S
C332 C326 1.428 . S
C332 N331 1.351 . S
C332 C333 1.434 . S
C333 C324 1.429 . S
C333 N330 1.350 . S
C333 C332 1.434 . S
C334 C335 1.369 . S
C334 C336 1.419 . S
C334 H338 0.930 . S
C335 C334 1.369 . S
C335 C344 1.429 . S
C336 C334 1.419 . S
C336 C337 1.363 . S
C336 H339 0.929 . S
C337 C336 1.363 . S
C337 C343 1.428 . S
H338 C334 0.930 . S
H339 C336 0.929 . S
S340 N341 1.613 . S
S340 N342 1.610 . S
N341 S340 1.613 . S
N341 C344 1.350 . S
N342 S340 1.610 . S
N342 C343 1.351 . S
C343 C337 1.428 . S
C343 N342 1.351 . S
C343 C344 1.434 . S
C344 C335 1.429 . S
C344 N341 1.350 . S
C344 C343 1.434 . S
C345 C346 1.369 . S
C345 C347 1.419 . S
C345 H349 0.930 . S
C346 C345 1.369 . S
C346 C355 1.429 . S
C347 C345 1.419 . S
C347 C348 1.363 . S
C347 H350 0.929 . S
C348 C347 1.363 . S
C348 C354 1.428 . S
H349 C345 0.930 . S
H350 C347 0.929 . S
S351 N352 1.613 . S
S351 N353 1.610 . S
N352 S351 1.613 . S
N352 C355 1.350 . S
N353 S351 1.610 . S
N353 C354 1.351 . S
C354 C348 1.428 . S
C354 N353 1.351 . S
C354 C355 1.434 . S
C355 C346 1.429 . S
C355 N352 1.350 . S
C355 C354 1.434 . S
C356 C357 1.369 . S
C356 C358 1.419 1_556 S
C356 H360 0.930 . S
C357 C356 1.369 . S
C357 C366 1.429 1_545 S
C358 C356 1.419 1_554 S
C358 C359 1.363 . S
C358 H361 0.929 . S
C359 C358 1.363 . S
C359 C365 1.428 1_544 S
H360 C356 0.930 . S
H361 C358 0.929 . S
S362 N363 1.613 . S
S362 N364 1.610 . S
N363 S362 1.613 . S
N363 C366 1.350 . S
N364 S362 1.610 . S
N364 C365 1.351 . S
C365 C359 1.428 1_566 S
C365 N364 1.351 . S
C365 C366 1.434 . S
C366 C357 1.429 1_565 S
C366 N363 1.350 . S
C366 C365 1.434 . S
C367 C368 1.369 . S
C367 C369 1.419 . S
C367 H371 0.930 . S
C368 C367 1.369 . S
C368 C377 1.429 . S
C369 C367 1.419 . S
C369 C370 1.363 . S
C369 H372 0.929 . S
C370 C369 1.363 . S
C370 C376 1.428 . S
H371 C367 0.930 . S
H372 C369 0.929 . S
S373 N374 1.613 . S
S373 N375 1.610 . S
N374 S373 1.613 . S
N374 C377 1.350 . S
N375 S373 1.610 . S
N375 C376 1.351 . S
C376 C370 1.428 . S
C376 N375 1.351 . S
C376 C377 1.434 . S
C377 C368 1.429 . S
C377 N374 1.350 . S
C377 C376 1.434 . S
C378 C379 1.369 . S
C378 C380 1.419 . S
C378 H382 0.930 . S
C379 C378 1.369 . S
C379 C388 1.429 . S
C380 C378 1.419 . S
C380 C381 1.363 . S
C380 H383 0.929 1_554 S
C381 C380 1.363 . S
C381 C387 1.428 . S
H382 C378 0.930 . S
H383 C380 0.929 1_556 S
S384 N385 1.613 . S
S384 N386 1.610 . S
N385 S384 1.613 . S
N385 C388 1.350 . S
N386 S384 1.610 . S
N386 C387 1.351 . S
C387 C381 1.428 . S
C387 N386 1.351 . S
C387 C388 1.434 . S
C388 C379 1.429 . S
C388 N385 1.350 . S
C388 C387 1.434 . S
C389 C390 1.369 . S
C389 C391 1.419 . S
C389 H393 0.930 . S
C390 C389 1.369 . S
C390 C399 1.429 . S
C391 C389 1.419 . S
C391 C392 1.363 . S
C391 H394 0.929 . S
C392 C391 1.363 . S
C392 C398 1.428 . S
H393 C389 0.930 . S
H394 C391 0.929 . S
S395 N396 1.613 . S
S395 N397 1.610 . S
N396 S395 1.613 . S
N396 C399 1.350 . S
N397 S395 1.610 . S
N397 C398 1.351 . S
C398 C392 1.428 . S
C398 N397 1.351 . S
C398 C399 1.434 . S
C399 C390 1.429 . S
C399 N396 1.350 . S
C399 C398 1.434 . S
C400 C401 1.369 . S
C400 C402 1.419 . S
C400 H404 0.930 . S
C401 C400 1.369 . S
C401 C410 1.429 1_655 S
C402 C400 1.419 . S
C402 C403 1.363 . S
C402 H405 0.929 . S
C403 C402 1.363 . S
C403 C409 1.428 1_655 S
H404 C400 0.930 . S
H405 C402 0.929 . S
S406 N407 1.613 . S
S406 N408 1.610 . S
N407 S406 1.613 . S
N407 C410 1.350 . S
N408 S406 1.610 . S
N408 C409 1.351 . S
C409 C403 1.428 1_455 S
C409 N408 1.351 . S
C409 C410 1.434 . S
C410 C401 1.429 1_455 S
C410 N407 1.350 . S
C410 C409 1.434 . S
C411 C412 1.369 . S
C411 C413 1.419 . S
C411 H415 0.930 . S
C412 C411 1.369 . S
C412 C421 1.429 . S
C413 C411 1.419 . S
C413 C414 1.363 . S
C413 H416 0.929 . S
C414 C413 1.363 . S
C414 C420 1.428 . S
H415 C411 0.930 . S
H416 C413 0.929 . S
S417 N418 1.613 . S
S417 N419 1.610 . S
N418 S417 1.613 . S
N418 C421 1.350 . S
N419 S417 1.610 . S
N419 C420 1.351 . S
C420 C414 1.428 . S
C420 N419 1.351 . S
C420 C421 1.434 . S
C421 C412 1.429 . S
C421 N418 1.350 . S
C421 C420 1.434 . S
C422 C423 1.369 . S
C422 C424 1.419 . S
C422 H426 0.930 . S
C423 C422 1.369 . S
C423 C432 1.429 . S
C424 C422 1.419 . S
C424 C425 1.363 . S
C424 H427 0.929 1_455 S
C425 C424 1.363 . S
C425 C431 1.428 . S
H426 C422 0.930 . S
H427 C424 0.929 1_655 S
S428 N429 1.613 . S
S428 N430 1.610 . S
N429 S428 1.613 . S
N429 C432 1.350 . S
N430 S428 1.610 . S
N430 C431 1.351 . S
C431 C425 1.428 . S
C431 N430 1.351 . S
C431 C432 1.434 . S
C432 C423 1.429 . S
C432 N429 1.350 . S
C432 C431 1.434 . S
C433 C434 1.369 . S
C433 C435 1.419 . S
C433 H437 0.930 . S
C434 C433 1.369 . S
C434 C443 1.429 . S
C435 C433 1.419 . S
C435 C436 1.363 . S
C435 H438 0.929 . S
C436 C435 1.363 . S
C436 C442 1.428 . S
H437 C433 0.930 . S
H438 C435 0.929 . S
S439 N440 1.613 . S
S439 N441 1.610 . S
N440 S439 1.613 . S
N440 C443 1.350 . S
N441 S439 1.610 . S
N441 C442 1.351 . S
C442 C436 1.428 . S
C442 N441 1.351 . S
C442 C443 1.434 . S
C443 C434 1.429 . S
C443 N440 1.350 . S
C443 C442 1.434 . S
C181 C4 1.732 . S
C183 C106 1.690 . S
C192 C16 1.865 . S
C194 C130 1.801 . S
C205 C150 1.162 . S
C203 C32 1.149 . S
C214 C43 1.347 . S
C216 C173 1.378 . S
C227 C132 1.965 . S
C225 C5 2.004 . S
C238 C108 1.428 . S
C236 C21 1.512 . S
C249 C176 1.494 . S
C247 C27 1.564 . S
C260 C153 1.437 . S
C258 C37 1.473 . S
C269 C10 1.528 . S
C271 C178 1.468 . S
C282 C127 1.675 . S
C280 C26 1.653 . S
C291 C38 1.396 . S
C293 C105 1.406 . S
C302 C15 1.614 . S
C304 C155 1.571 . S
C315 C109 1.871 . S
C313 C48 1.859 . S
C324 C59 1.657 . S
C326 C131 1.685 . S
C335 C76 1.563 . S
C337 C151 1.593 . S
C346 C87 1.422 . S
C348 C174 1.471 . S
C357 C54 1.409 1_545 S
C359 C129 1.418 . S
C370 C107 1.842 . S
C368 C60 1.831 . S
C381 C177 1.404 . S
C379 C71 1.473 . S
C392 C154 1.409 . S
C390 C82 1.422 . S
C401 C49 1.962 . S
C403 C175 1.925 . S
C414 C128 1.341 . S
C412 C70 1.316 . S
C425 C104 1.615 . S
C423 C81 1.595 . S
C434 C65 1.691 . S
C436 C152 1.672 . S
