# Generated by pormake.
# Topology anh, (6,3)-cn, num edge types: 1
# Building blocks:
#     Node 0, Type 0, BuildingBlock: VOLQOD_clean_sbu_1, # of connection points: 6
#     Node 1, Type 0, BuildingBlock: VOLQOD_clean_sbu_1, # of connection points: 6
#     Node 2, Type 0, BuildingBlock: VOLQOD_clean_sbu_1, # of connection points: 6
#     Node 3, Type 1, BuildingBlock: BETDIP_clean_linker_0, # of connection points: 3
#     Node 4, Type 1, BuildingBlock: BETDIP_clean_linker_0, # of connection points: 3
#     Node 5, Type 1, BuildingBlock: BETDIP_clean_linker_0, # of connection points: 3
#     Node 6, Type 1, BuildingBlock: BETDIP_clean_linker_0, # of connection points: 3
#     Node 7, Type 1, BuildingBlock: BETDIP_clean_linker_0, # of connection points: 3
#     Node 8, Type 1, BuildingBlock: BETDIP_clean_linker_0, # of connection points: 3
#     Edge 9, Type (0, 1), BuildingBlock: CIFDUS_clean_linker_0, # of connection points: 2
#     Edge 10, Type (0, 1), BuildingBlock: CIFDUS_clean_linker_0, # of connection points: 2
#     Edge 11, Type (0, 1), BuildingBlock: CIFDUS_clean_linker_0, # of connection points: 2
#     Edge 12, Type (0, 1), BuildingBlock: CIFDUS_clean_linker_0, # of connection points: 2
#     Edge 13, Type (0, 1), BuildingBlock: CIFDUS_clean_linker_0, # of connection points: 2
#     Edge 14, Type (0, 1), BuildingBlock: CIFDUS_clean_linker_0, # of connection points: 2
#     Edge 15, Type (0, 1), BuildingBlock: CIFDUS_clean_linker_0, # of connection points: 2
#     Edge 16, Type (0, 1), BuildingBlock: CIFDUS_clean_linker_0, # of connection points: 2
#     Edge 17, Type (0, 1), BuildingBlock: CIFDUS_clean_linker_0, # of connection points: 2
#     Edge 18, Type (0, 1), BuildingBlock: CIFDUS_clean_linker_0, # of connection points: 2
#     Edge 19, Type (0, 1), BuildingBlock: CIFDUS_clean_linker_0, # of connection points: 2
#     Edge 20, Type (0, 1), BuildingBlock: CIFDUS_clean_linker_0, # of connection points: 2
#     Edge 21, Type (0, 1), BuildingBlock: CIFDUS_clean_linker_0, # of connection points: 2
#     Edge 22, Type (0, 1), BuildingBlock: CIFDUS_clean_linker_0, # of connection points: 2
#     Edge 23, Type (0, 1), BuildingBlock: CIFDUS_clean_linker_0, # of connection points: 2
#     Edge 24, Type (0, 1), BuildingBlock: CIFDUS_clean_linker_0, # of connection points: 2
#     Edge 25, Type (0, 1), BuildingBlock: CIFDUS_clean_linker_0, # of connection points: 2
#     Edge 26, Type (0, 1), BuildingBlock: CIFDUS_clean_linker_0, # of connection points: 2
# Relax obj value: 0.172
# Max RMSD: 0.216
# Mean RMSD: 0.151
data_MOF--net-anh--node1-VOLQOD_clean_sbu_1--node2-BETDIP_clean_linker_0--edge1-CIFDUS_clean_linker_0
_symmetry_space_group_name_H-M    P1
_symmetry_Int_Tables_number       1
_symmetry_cell_setting            triclinic
loop_
_symmetry_equiv_pos_as_xyz
'x, y, z'
_cell_length_a     26.124729
_cell_length_b     25.772765
_cell_length_c     49.8643
_cell_angle_alpha  93.905359
_cell_angle_beta   90.378404
_cell_angle_gamma 119.97974
loop_
_atom_site_label
_atom_site_type_symbol
_atom_site_fract_x
_atom_site_fract_y
_atom_site_fract_z
_atom_type_partial_charge
O0 O -0.00491 0.59865 0.2237 0.0
Zn1 Zn -0.00168 0.61934 0.18477 0.0
O2 O 0.01769 0.56779 0.16146 0.0
Zn3 Zn 0.95901 0.52497 0.13287 0.0
Zn4 Zn 0.0218 0.50827 0.18175 0.0
Zn5 Zn 0.09003 0.61547 0.14404 0.0
O6 O 0.99277 0.52565 0.09679 0.0
O7 O 0.0805 0.6082 0.10352 0.0
O8 O 0.91968 0.60903 0.17127 0.0
O9 O 0.9097 0.56279 0.13052 0.0
O10 O 0.90256 0.44048 0.14118 0.0
O11 O 0.94804 0.42704 0.17535 0.0
O12 O 0.0954 0.50434 0.17417 0.0
O13 O 0.06361 0.70705 0.18499 0.0
O14 O 0.14539 0.58668 0.15245 0.0
O15 O 0.12748 0.70129 0.15756 0.0
C16 C 0.00962 0.56434 0.23478 0.0
C17 C 0.04077 0.56592 0.08785 0.0
C18 C 0.90377 0.40767 0.15882 0.0
C19 C 0.89375 0.58958 0.14796 0.0
C20 C 0.1422 0.54197 0.16332 0.0
C21 C 0.11276 0.73185 0.17343 0.0
O22 O 0.02378 0.53056 0.22087 0.0
O23 O 0.48041 0.07514 0.43439 0.0
Zn24 Zn 0.46325 0.0777 0.47356 0.0
O25 O 0.5197 0.0671 0.49541 0.0
Zn26 Zn 0.56553 0.13764 0.52026 0.0
Zn27 Zn 0.57304 0.05374 0.47198 0.0
Zn28 Zn 0.47692 -0.00095 0.51665 0.0
O29 O 0.55702 0.11858 0.55906 0.0
O30 O 0.4881 0.02215 0.55657 0.0
O31 O 0.46779 0.1575 0.48351 0.0
O32 O 0.53947 0.19729 0.51575 0.0
O33 O 0.65109 0.18004 0.51192 0.0
O34 O 0.656 0.12435 0.4772 0.0
O35 O 0.57408 0.97764 0.47937 0.0
O36 O 0.37985 0.00945 0.4766 0.0
O37 O 0.50758 0.9427 0.51067 0.0
O38 O 0.39071 0.95349 0.50553 0.0
C39 C 0.51438 0.06191 0.42111 0.0
C40 C 0.52334 0.07095 0.57039 0.0
C41 C 0.68042 0.17076 0.49386 0.0
C42 C 0.50159 0.20017 0.50076 0.0
C43 C 0.54505 0.93855 0.49588 0.0
C44 C 0.35827 0.96271 0.48963 0.0
O45 O 0.55023 0.04994 0.43288 0.0
O46 O 0.5059 0.46583 0.78473 0.0
Zn47 Zn 0.48321 0.4479 0.82266 0.0
O48 O 0.54536 0.51257 0.84664 0.0
Zn49 Zn 0.51407 0.55601 0.86773 0.0
Zn50 Zn 0.61316 0.56907 0.82672 0.0
Zn51 Zn 0.57106 0.47511 0.87113 0.0
O52 O 0.51455 0.54488 0.9078 0.0
O53 O 0.54192 0.47604 0.90777 0.0
O54 O 0.40407 0.44437 0.82653 0.0
O55 O 0.43039 0.5252 0.85483 0.0
O56 O 0.55515 0.64338 0.86054 0.0
O57 O 0.61797 0.65049 0.82928 0.0
O58 O 0.69168 0.57816 0.84092 0.0
O59 O 0.47701 0.36679 0.82647 0.0
O60 O 0.65823 0.5191 0.87461 0.0
O61 O 0.5466 0.39054 0.85822 0.0
C62 C 0.55261 0.50196 0.77338 0.0
C63 C 0.52368 0.50814 0.92004 0.0
C64 C 0.59292 0.67352 0.84362 0.0
C65 C 0.39212 0.48123 0.83935 0.0
C66 C 0.70072 0.55622 0.86143 0.0
C67 C 0.50798 0.35253 0.84082 0.0
O68 O 0.59872 0.54187 0.78702 0.0
H69 H 0.46145 0.06514 0.18549 0.0
H70 H 0.55677 0.14001 0.26177 0.0
H71 H 0.37507 -0.00085 0.25886 0.0
H72 H 0.53382 0.14806 0.17012 0.0
C73 C 0.57315 0.16064 0.18257 0.0
C74 C 0.4625 0.06742 0.20722 0.0
C75 C 0.41146 0.02783 0.22023 0.0
C76 C 0.51501 0.10804 0.2222 0.0
C77 C 0.51612 0.10903 0.25029 0.0
C78 C 0.46533 0.07088 0.26362 0.0
C79 C 0.41325 0.0306 0.2485 0.0
N80 N 0.56836 0.14653 0.20983 0.0
H81 H 0.54072 0.54666 0.53983 0.0
H82 H 0.60416 0.64238 0.6179 0.0
H83 H 0.53899 0.45228 0.60785 0.0
H84 H 0.58945 0.64305 0.52482 0.0
C85 C 0.58158 0.66775 0.54123 0.0
C86 C 0.55097 0.54738 0.56096 0.0
C87 C 0.53655 0.49328 0.57201 0.0
C88 C 0.57606 0.60142 0.57763 0.0
C89 C 0.58691 0.6009 0.60511 0.0
C90 C 0.57308 0.54725 0.61634 0.0
C91 C 0.54856 0.49383 0.59953 0.0
N92 N 0.58577 0.65624 0.56834 0.0
H93 H 0.98337 0.47866 0.85222 0.0
H94 H 0.05593 0.44133 0.92061 0.0
H95 H 0.99073 0.56385 0.93107 0.0
H96 H 0.07339 0.48265 0.83495 0.0
C97 C 0.07438 0.44611 0.84417 0.0
C98 C -0.00391 0.4877 0.87345 0.0
C99 C 0.98062 0.52368 0.89025 0.0
C100 C 0.02511 0.4598 0.88439 0.0
C101 C 0.03609 0.46521 0.91217 0.0
C102 C 0.02358 0.50272 0.92898 0.0
C103 C -0.00118 0.53404 0.91776 0.0
N104 N 0.04385 0.42579 0.86806 0.0
H105 H 0.04793 0.59545 0.47223 0.0
H106 H 0.96514 0.50895 0.39509 0.0
H107 H 0.09448 0.697 0.40223 0.0
H108 H 0.97713 0.43332 0.41293 0.0
C109 C 0.95937 0.43437 0.43249 0.0
C110 C 0.04274 0.59836 0.45091 0.0
C111 C 0.07583 0.65342 0.43942 0.0
C112 C 0.00476 0.54596 0.43488 0.0
C113 C -0.00361 0.54906 0.40735 0.0
C114 C 0.02791 0.60367 0.39551 0.0
C115 C 0.06763 0.65565 0.41165 0.0
N116 N 0.97584 0.49046 0.44682 0.0
H117 H 0.523 0.03304 0.80578 0.0
H118 H 0.54991 0.96297 0.72963 0.0
H119 H 0.485 0.08646 0.73163 0.0
H120 H 0.6241 0.96422 0.75502 0.0
C121 C 0.60135 0.94555 0.77313 0.0
C122 C 0.52118 0.03072 0.78399 0.0
C123 C 0.50093 0.06383 0.77051 0.0
C124 C 0.54012 0.99519 0.76949 0.0
C125 C 0.53684 0.99126 0.74113 0.0
C126 C 0.51708 0.02427 0.72743 0.0
C127 C 0.4994 0.06032 0.74225 0.0
N128 N 0.56151 0.96332 0.78382 0.0
H129 H 0.43652 0.49149 0.15282 0.0
H130 H 0.53268 0.48497 0.08418 0.0
H131 H 0.41394 0.55378 0.07828 0.0
H132 H 0.54095 0.41559 0.10724 0.0
C133 C 0.55154 0.44038 0.12691 0.0
C134 C 0.44681 0.4991 0.13192 0.0
C135 C 0.42168 0.52547 0.11698 0.0
C136 C 0.48629 0.48369 0.1203 0.0
C137 C 0.50066 0.49479 0.09326 0.0
C138 C 0.4747 0.52007 0.07788 0.0
C139 C 0.43542 0.53554 0.09002 0.0
N140 N 0.51343 0.46062 0.1368 0.0
H141 H 0.25139 0.62134 0.14876 0.0
H142 H 0.14762 0.44152 0.17374 0.0
H143 H 0.22898 0.42271 0.16423 0.0
H144 H 0.32484 0.45398 0.14386 0.0
H145 H 0.42484 0.63209 0.11689 0.0
H146 H 0.3492 0.65511 0.13213 0.0
C147 C 0.24653 0.57807 0.15235 0.0
C148 C 0.19322 0.5325 0.16147 0.0
C149 C 0.29254 0.56722 0.14626 0.0
C150 C 0.18815 0.47719 0.16652 0.0
C151 C 0.23449 0.46634 0.16098 0.0
C152 C 0.33033 0.49811 0.14183 0.0
C153 C 0.37964 0.54123 0.12913 0.0
C154 C 0.28616 0.51049 0.15012 0.0
C155 C 0.3866 0.59817 0.12634 0.0
C156 C 0.34356 0.61129 0.13506 0.0
H157 H 0.74851 0.17866 0.45154 0.0
H158 H 0.74859 0.2732 0.5265 0.0
H159 H 0.83878 0.36235 0.51511 0.0
H160 H 0.9102 0.41715 0.48152 0.0
H161 H 0.90871 0.32389 0.40608 0.0
H162 H 0.82653 0.23035 0.42008 0.0
C163 C 0.76886 0.21828 0.46567 0.0
C164 C 0.74124 0.21942 0.48965 0.0
C165 C 0.81997 0.26995 0.45873 0.0
C166 C 0.7685 0.27119 0.50776 0.0
C167 C 0.81998 0.32238 0.50122 0.0
C168 C 0.89228 0.37623 0.46826 0.0
C169 C 0.91464 0.37734 0.44264 0.0
C170 C 0.84483 0.32292 0.47635 0.0
C171 C 0.89166 0.32393 0.42582 0.0
C172 C 0.84473 0.27056 0.4338 0.0
H173 H 0.65331 0.74226 0.80308 0.0
H174 H 0.54702 0.73676 0.86997 0.0
H175 H 0.54246 0.82251 0.85496 0.0
H176 H 0.56057 0.8931 0.82041 0.0
H177 H 0.66584 0.89764 0.75339 0.0
H178 H 0.67874 0.81838 0.77087 0.0
C179 C 0.63006 0.76041 0.81471 0.0
C180 C 0.60016 0.73248 0.83752 0.0
C181 C 0.62661 0.80917 0.8057 0.0
C182 C 0.57028 0.75695 0.85226 0.0
C183 C 0.56731 0.80591 0.84361 0.0
C184 C 0.58667 0.87703 0.80976 0.0
C185 C 0.61171 0.90067 0.78547 0.0
C186 C 0.59387 0.83131 0.81993 0.0
C187 C 0.64586 0.8798 0.77205 0.0
C188 C 0.65327 0.83451 0.78203 0.0
H189 H 0.80632 0.56606 0.18232 0.0
H190 H 0.85253 0.59952 0.09989 0.0
H191 H 0.74855 0.55651 0.08606 0.0
H192 H 0.64433 0.49572 0.09636 0.0
H193 H 0.59644 0.46289 0.17848 0.0
H194 H 0.70135 0.51835 0.19364 0.0
C195 C 0.79368 0.56608 0.16155 0.0
C196 C 0.83663 0.58541 0.14208 0.0
C197 C 0.73359 0.53935 0.1536 0.0
C198 C 0.81991 0.58468 0.11516 0.0
C199 C 0.76051 0.55939 0.10719 0.0
C200 C 0.6572 0.50095 0.11755 0.0
C201 C 0.6138 0.47427 0.13631 0.0
C202 C 0.71698 0.53395 0.12602 0.0
C203 C 0.62992 0.48245 0.16379 0.0
C204 C 0.68961 0.51435 0.17241 0.0
H205 H 0.30587 0.84912 0.50493 0.0
H206 H 0.27209 0.96659 0.45953 0.0
H207 H 0.1772 0.88131 0.44245 0.0
H208 H 0.10964 0.77194 0.43643 0.0
H209 H 0.15022 0.65503 0.47872 0.0
H210 H 0.23558 0.74168 0.50145 0.0
C211 C 0.2774 0.85648 0.49169 0.0
C212 C 0.29648 0.91413 0.48331 0.0
C213 C 0.22403 0.80712 0.48123 0.0
C214 C 0.25876 0.92261 0.46616 0.0
C215 C 0.20457 0.87381 0.45629 0.0
C216 C 0.13706 0.76538 0.45066 0.0
C217 C 0.12336 0.70676 0.45565 0.0
C218 C 0.18776 0.81556 0.46297 0.0
C219 C 0.15881 0.69934 0.47465 0.0
C220 C 0.20821 0.74899 0.48751 0.0
H221 H 0.43046 0.2577 0.80622 0.0
H222 H 0.57895 0.31485 0.86242 0.0
H223 H 0.58565 0.22656 0.84773 0.0
H224 H 0.55783 0.14026 0.81494 0.0
H225 H 0.40837 0.08161 0.75929 0.0
H226 H 0.39368 0.16305 0.77782 0.0
C227 C 0.46367 0.25039 0.81558 0.0
C228 C 0.50466 0.29358 0.83509 0.0
C229 C 0.46769 0.1995 0.80691 0.0
C230 C 0.547 0.28281 0.84719 0.0
C231 C 0.55109 0.2323 0.83874 0.0
C232 C 0.52106 0.14423 0.80733 0.0
C233 C 0.48507 0.10555 0.78538 0.0
C234 C 0.51287 0.19133 0.81804 0.0
C235 C 0.43772 0.11168 0.77575 0.0
C236 C 0.42915 0.15818 0.78637 0.0
H237 H 0.51774 0.87186 0.53828 0.0
H238 H 0.59784 0.89312 0.46141 0.0
H239 H 0.61471 0.80925 0.46816 0.0
H240 H 0.60683 0.72997 0.49655 0.0
H241 H 0.53008 0.71479 0.57408 0.0
H242 H 0.51145 0.79605 0.56631 0.0
C243 C 0.53863 0.85811 0.52284 0.0
C244 C 0.55612 0.88839 0.49928 0.0
C245 C 0.54883 0.81092 0.52703 0.0
C246 C 0.58397 0.87048 0.47974 0.0
C247 C 0.5935 0.82251 0.48358 0.0
C248 C 0.58598 0.74464 0.51162 0.0
C249 C 0.57016 0.71675 0.53586 0.0
C250 C 0.57614 0.7924 0.50721 0.0
C251 C 0.5433 0.73596 0.55536 0.0
C252 C 0.53242 0.78233 0.55093 0.0
H253 H 0.79315 0.56993 0.83065 0.0
H254 H 0.74114 0.57167 0.91254 0.0
H255 H 0.82613 0.56641 0.92873 0.0
H256 H 0.90278 0.54375 0.9192 0.0
H257 H 0.96373 0.54899 0.83844 0.0
H258 H 0.88585 0.56676 0.82218 0.0
C259 C 0.80174 0.57117 0.85206 0.0
C260 C 0.76056 0.57033 0.87037 0.0
C261 C 0.85076 0.56719 0.86136 0.0
C262 C 0.77189 0.57161 0.89805 0.0
C263 C 0.82027 0.56824 0.90733 0.0
C264 C 0.90182 0.55136 0.89818 0.0
C265 C 0.93986 0.54432 0.88027 0.0
C266 C 0.85841 0.56342 0.88909 0.0
C267 C 0.93455 0.5523 0.85287 0.0
C268 C 0.89021 0.56314 0.8435 0.0
H269 H 0.21989 0.79611 0.15237 0.0
H270 H 0.10686 0.81096 0.2115 0.0
H271 H 0.18847 0.90905 0.22902 0.0
H272 H 0.29486 0.98414 0.23096 0.0
H273 H 0.40825 0.96179 0.1743 0.0
H274 H 0.32313 0.87394 0.15207 0.0
C275 C 0.21258 0.82097 0.16888 0.0
C276 C 0.15747 0.79564 0.18086 0.0
C277 C 0.26 0.87607 0.17939 0.0
C278 C 0.14888 0.82912 0.20198 0.0
C279 C 0.19565 0.88508 0.21211 0.0
C280 C 0.30096 0.96017 0.2137 0.0
C281 C 0.35823 0.97959 0.20454 0.0
C282 C 0.25196 0.90793 0.20157 0.0
C283 C 0.36492 0.94869 0.1817 0.0
C284 C 0.31623 0.89788 0.16909 0.0
H285 H 0.43057 0.22331 0.53174 0.0
H286 H 0.57168 0.30182 0.47717 0.0
H287 H 0.5889 0.40235 0.49143 0.0
H288 H 0.57543 0.46799 0.52537 0.0
H289 H 0.4381 0.38896 0.5819 0.0
H290 H 0.40683 0.28865 0.56081 0.0
C291 C 0.46346 0.26242 0.52235 0.0
C292 C 0.4995 0.2559 0.50337 0.0
C293 C 0.47437 0.31995 0.53138 0.0
C294 C 0.54306 0.3064 0.4916 0.0
C295 C 0.55322 0.36374 0.49994 0.0
C296 C 0.53755 0.42886 0.53246 0.0
C297 C 0.50963 0.43543 0.55532 0.0
C298 C 0.5209 0.37123 0.52068 0.0
C299 C 0.46073 0.38457 0.56451 0.0
C300 C 0.44292 0.3273 0.55251 0.0
H301 H 0.28142 0.38755 0.84574 0.0
H302 H 0.37631 0.56876 0.82208 0.0
H303 H 0.28395 0.57028 0.81739 0.0
H304 H 0.17794 0.52413 0.82444 0.0
H305 H 0.0838 0.34766 0.85324 0.0
H306 H 0.17325 0.33945 0.85119 0.0
C307 C 0.28134 0.42677 0.83917 0.0
C308 C 0.33507 0.47792 0.8342 0.0
C309 C 0.22821 0.42817 0.83757 0.0
C310 C 0.33513 0.52902 0.82605 0.0
C311 C 0.28246 0.52991 0.82338 0.0
C312 C 0.17687 0.48345 0.82971 0.0
C313 C 0.12473 0.43658 0.8389 0.0
C314 C 0.22895 0.48032 0.82968 0.0
C315 C 0.12374 0.38434 0.84611 0.0
C316 C 0.17487 0.37976 0.84505 0.0
H317 H 0.79891 0.35687 0.12986 0.0
H318 H 0.88498 0.33039 0.19756 0.0
H319 H 0.79015 0.24842 0.20994 0.0
H320 H 0.68173 0.19192 0.20445 0.0
H321 H 0.5955 0.21926 0.13727 0.0
H322 H 0.69168 0.29343 0.12177 0.0
C323 C 0.79726 0.33256 0.14706 0.0
C324 C 0.84907 0.35043 0.16293 0.0
C325 C 0.74241 0.28626 0.15441 0.0
C326 C 0.84589 0.31795 0.18502 0.0
C327 C 0.79156 0.27125 0.19225 0.0
C328 C 0.68401 0.21386 0.18633 0.0
C329 C 0.63171 0.2011 0.17222 0.0
C330 C 0.73935 0.25638 0.17761 0.0
C331 C 0.63532 0.22893 0.14853 0.0
C332 C 0.69021 0.27126 0.1397 0.0
H333 H -0.00296 0.46744 0.05255 0.0
H334 H 0.10455 0.66072 0.05792 0.0
H335 H 0.11209 0.65836 0.009 0.0
H336 H 0.08214 0.60134 0.96442 0.0
H337 H 0.97812 0.40791 0.95953 0.0
H338 H 0.97584 0.41009 0.00858 0.0
C339 C 0.02236 0.50898 0.04299 0.0
C340 C 0.0495 0.56419 0.05868 0.0
C341 C 0.02721 0.50719 0.01499 0.0
C342 C 0.08313 0.61767 0.04618 0.0
C343 C 0.08732 0.61636 0.01824 0.0
C344 C 0.0597 0.55979 0.97422 0.0
C345 C 0.03016 0.50459 0.95855 0.0
C346 C 0.05874 0.56143 0.00241 0.0
C347 C 0.00151 0.45087 0.9713 0.0
C348 C -0.00018 0.45213 -0.00072 0.0
H349 H 0.43398 0.06883 0.38888 0.0
H350 H 0.5922 0.05539 0.38651 0.0
H351 H 0.5918 0.0586 0.33771 0.0
H352 H 0.54646 0.06515 0.29561 0.0
H353 H 0.38715 0.07612 0.29794 0.0
H354 H 0.38804 0.07399 0.34691 0.0
C355 C 0.46843 0.06661 0.37773 0.0
C356 C 0.51311 0.062 0.39141 0.0
C357 C 0.4678 0.06817 0.34966 0.0
C358 C 0.55715 0.05877 0.37654 0.0
C359 C 0.55709 0.06079 0.34862 0.0
C360 C 0.5123 0.06761 0.30693 0.0
C361 C 0.46701 0.07114 0.29331 0.0
C362 C 0.51274 0.06564 0.33499 0.0
C363 C 0.42235 0.07321 0.30806 0.0
C364 C 0.42289 0.07208 0.33601 0.0
H365 H 0.63496 0.58172 0.74142 0.0
H366 H 0.46695 0.41619 0.73838 0.0
H367 H 0.45961 0.41531 0.68969 0.0
H368 H 0.49754 0.46387 0.64839 0.0
H369 H 0.66572 0.62853 0.65049 0.0
H370 H 0.67575 0.62785 0.69927 0.0
C371 C 0.59704 0.54512 0.73009 0.0
C372 C 0.55148 0.49929 0.74363 0.0
C373 C 0.5927 0.54505 0.70199 0.0
C374 C 0.50258 0.45229 0.72858 0.0
C375 C 0.49822 0.45171 0.70069 0.0
C376 C 0.53697 0.4991 0.65939 0.0
C377 C 0.58084 0.5461 0.64578 0.0
C378 C 0.54258 0.49821 0.68726 0.0
C379 C 0.63096 0.59214 0.66052 0.0
C380 C 0.63688 0.5916 0.68837 0.0
H381 H 0.48286 0.97532 0.60083 0.0
H382 H 0.57163 0.16923 0.60675 0.0
H383 H 0.57836 0.17163 0.65569 0.0
H384 H 0.55908 0.11895 0.69681 0.0
H385 H 0.47192 0.92541 0.69125 0.0
H386 H 0.46535 0.92258 0.64209 0.0
C387 C 0.50342 0.01811 0.61283 0.0
C388 C 0.52639 0.07201 0.60011 0.0
C389 C 0.50785 0.01924 0.64099 0.0
C390 C 0.55358 0.12707 0.61598 0.0
C391 C 0.55747 0.12852 0.64398 0.0
C392 C 0.53841 0.07614 0.68482 0.0
C393 C 0.51568 0.02244 0.6976 0.0
C394 C 0.53477 0.07493 0.65668 0.0
C395 C 0.49004 0.96735 0.68183 0.0
C396 C 0.48596 0.96572 0.65377 0.0
H397 H 0.51555 0.58665 0.95703 0.0
H398 H 0.50968 0.41586 0.94837 0.0
H399 H 0.49538 0.4053 0.99628 0.0
H400 H 0.48322 0.44341 0.04054 0.0
H401 H 0.49261 0.61567 0.05015 0.0
H402 H 0.50639 0.62649 0.00202 0.0
C403 C 0.51087 0.54705 0.96563 0.0
C404 C 0.51355 0.50213 0.9491 0.0
C405 C 0.50333 0.54145 0.99339 0.0
C406 C 0.50798 0.45129 0.96062 0.0
C407 C 0.49977 0.44511 0.98805 0.0
C408 C 0.48919 0.48377 0.03222 0.0
C409 C 0.48678 0.52854 0.04895 0.0
C410 C 0.49752 0.48992 0.00462 0.0
C411 C 0.49353 0.58009 0.03767 0.0
C412 C 0.50162 0.58644 0.01016 0.0
H413 H 0.00665 0.64434 0.27301 0.0
H414 H 0.01513 0.48094 0.26322 0.0
H415 H 0.02082 0.47882 0.31172 0.0
H416 H 0.0262 0.524 0.35686 0.0
H417 H 0.01841 0.68728 0.36789 0.0
H418 H 0.01048 0.68922 0.31899 0.0
C419 C 0.00937 0.60813 0.28152 0.0
C420 C 0.01057 0.563 0.26441 0.0
C421 C 0.0132 0.6073 0.30964 0.0
C422 C 0.01446 0.51653 0.27581 0.0
C423 C 0.01769 0.51515 0.3036 0.0
C424 C 0.02195 0.55962 0.34861 0.0
C425 C 0.02242 0.60514 0.36595 0.0
C426 C 0.01744 0.5604 0.32067 0.0
C427 C 0.0184 0.65182 0.35491 0.0
C428 C 0.01362 0.6528 0.32699 0.0
loop_
_geom_bond_atom_site_label_1
_geom_bond_atom_site_label_2
_geom_bond_distance
_geom_bond_site_symmetry_2
_ccdc_geom_bond_type
O0 Zn1 1.953 . S
O0 C16 1.225 . S
Zn1 O0 1.953 . S
Zn1 O2 1.949 . S
Zn1 O8 1.919 1_455 S
Zn1 O13 1.924 . S
O2 Zn1 1.949 . S
O2 Zn3 1.923 1_455 S
O2 Zn4 1.950 . S
O2 Zn5 1.945 . S
Zn3 O2 1.923 1_655 S
Zn3 O6 1.933 1_655 S
Zn3 O9 1.941 . S
Zn3 O10 1.965 . S
Zn4 O2 1.950 . S
Zn4 O11 1.938 . S
Zn4 O12 1.906 . S
Zn4 O22 1.953 . S
Zn5 O2 1.945 . S
Zn5 O7 1.932 . S
Zn5 O14 1.977 . S
Zn5 O15 1.910 . S
O6 Zn3 1.933 1_455 S
O6 C17 1.226 . S
O7 Zn5 1.932 . S
O7 C17 1.307 . S
O8 Zn1 1.919 1_655 S
O8 C19 1.253 . S
O9 Zn3 1.941 . S
O9 C19 1.283 . S
O10 Zn3 1.965 . S
O10 C18 1.303 . S
O11 Zn4 1.938 . S
O11 C18 1.247 1_455 S
O12 Zn4 1.906 . S
O12 C20 1.304 . S
O13 Zn1 1.924 . S
O13 C21 1.311 . S
O14 Zn5 1.977 . S
O14 C20 1.272 . S
O15 Zn5 1.910 . S
O15 C21 1.231 . S
C16 O0 1.225 . S
C16 O22 1.298 . S
C17 O6 1.226 . S
C17 O7 1.307 . S
C18 O10 1.303 . S
C18 O11 1.247 1_655 S
C19 O8 1.253 . S
C19 O9 1.283 . S
C20 O12 1.304 . S
C20 O14 1.272 . S
C21 O13 1.311 . S
C21 O15 1.231 . S
O22 Zn4 1.953 . S
O22 C16 1.298 . S
O23 Zn24 1.953 . S
O23 C39 1.225 . S
Zn24 O23 1.953 . S
Zn24 O25 1.949 . S
Zn24 O31 1.919 . S
Zn24 O36 1.924 1_545 S
O25 Zn24 1.949 . S
O25 Zn26 1.923 . S
O25 Zn27 1.950 . S
O25 Zn28 1.945 1_545 S
Zn26 O25 1.923 . S
Zn26 O29 1.933 . S
Zn26 O32 1.941 . S
Zn26 O33 1.965 . S
Zn27 O25 1.950 . S
Zn27 O34 1.938 . S
Zn27 O35 1.906 1_545 S
Zn27 O45 1.953 . S
Zn28 O25 1.945 1_565 S
Zn28 O30 1.932 . S
Zn28 O37 1.977 . S
Zn28 O38 1.910 . S
O29 Zn26 1.933 . S
O29 C40 1.226 . S
O30 Zn28 1.932 . S
O30 C40 1.307 1_565 S
O31 Zn24 1.919 . S
O31 C42 1.253 . S
O32 Zn26 1.941 . S
O32 C42 1.283 . S
O33 Zn26 1.965 . S
O33 C41 1.303 . S
O34 Zn27 1.938 . S
O34 C41 1.247 . S
O35 Zn27 1.906 1_565 S
O35 C43 1.304 . S
O36 Zn24 1.924 1_565 S
O36 C44 1.311 . S
O37 Zn28 1.977 . S
O37 C43 1.272 . S
O38 Zn28 1.910 . S
O38 C44 1.231 . S
C39 O23 1.225 . S
C39 O45 1.298 . S
C40 O29 1.226 . S
C40 O30 1.307 1_545 S
C41 O33 1.303 . S
C41 O34 1.247 . S
C42 O31 1.253 . S
C42 O32 1.283 . S
C43 O35 1.304 . S
C43 O37 1.272 . S
C44 O36 1.311 . S
C44 O38 1.231 . S
O45 Zn27 1.953 . S
O45 C39 1.298 . S
O46 Zn47 1.953 . S
O46 C62 1.225 . S
Zn47 O46 1.953 . S
Zn47 O48 1.949 . S
Zn47 O54 1.919 . S
Zn47 O59 1.924 . S
O48 Zn47 1.949 . S
O48 Zn49 1.923 . S
O48 Zn50 1.950 . S
O48 Zn51 1.945 . S
Zn49 O48 1.923 . S
Zn49 O52 1.933 . S
Zn49 O55 1.941 . S
Zn49 O56 1.965 . S
Zn50 O48 1.950 . S
Zn50 O57 1.938 . S
Zn50 O58 1.906 . S
Zn50 O68 1.953 . S
Zn51 O48 1.945 . S
Zn51 O53 1.932 . S
Zn51 O60 1.977 . S
Zn51 O61 1.910 . S
O52 Zn49 1.933 . S
O52 C63 1.226 . S
O53 Zn51 1.932 . S
O53 C63 1.307 . S
O54 Zn47 1.919 . S
O54 C65 1.253 . S
O55 Zn49 1.941 . S
O55 C65 1.283 . S
O56 Zn49 1.965 . S
O56 C64 1.303 . S
O57 Zn50 1.938 . S
O57 C64 1.247 . S
O58 Zn50 1.906 . S
O58 C66 1.304 . S
O59 Zn47 1.924 . S
O59 C67 1.311 . S
O60 Zn51 1.977 . S
O60 C66 1.272 . S
O61 Zn51 1.910 . S
O61 C67 1.231 . S
C62 O46 1.225 . S
C62 O68 1.298 . S
C63 O52 1.226 . S
C63 O53 1.307 . S
C64 O56 1.303 . S
C64 O57 1.247 . S
C65 O54 1.253 . S
C65 O55 1.283 . S
C66 O58 1.304 . S
C66 O60 1.272 . S
C67 O59 1.311 . S
C67 O61 1.231 . S
O68 Zn50 1.953 . S
O68 C62 1.298 . S
H69 C74 0.930 . S
H70 C77 0.930 . S
H71 C79 0.927 1_565 S
H72 C73 1.016 . S
C73 H72 1.016 . S
C73 N80 1.286 . S
C74 H69 0.930 . S
C74 C75 1.397 1_545 S
C74 C76 1.361 . S
C75 C74 1.397 1_565 S
C75 C79 1.389 1_565 S
C76 C74 1.361 . S
C76 C77 1.393 . S
C76 N80 1.413 . S
C77 H70 0.930 . S
C77 C76 1.393 . S
C77 C78 1.399 . S
C78 C77 1.399 . S
C78 C79 1.386 . S
C79 H71 0.927 1_545 S
C79 C75 1.389 1_545 S
C79 C78 1.386 . S
N80 C73 1.286 . S
N80 C76 1.413 . S
H81 C86 0.930 . S
H82 C89 0.930 . S
H83 C91 0.930 . S
H84 C85 1.016 . S
C85 H84 1.016 . S
C85 N92 1.286 . S
C86 H81 0.930 . S
C86 C87 1.397 . S
C86 C88 1.361 . S
C87 C86 1.397 . S
C87 C91 1.390 . S
C88 C86 1.361 . S
C88 C89 1.393 . S
C88 N92 1.413 . S
C89 H82 0.930 . S
C89 C88 1.393 . S
C89 C90 1.399 . S
C90 C89 1.399 . S
C90 C91 1.381 . S
C91 H83 0.930 . S
C91 C87 1.390 . S
C91 C90 1.381 . S
N92 C85 1.286 . S
N92 C88 1.413 . S
H93 C98 0.930 1_655 S
H94 C101 0.930 . S
H95 C103 0.930 . S
H96 C97 1.016 . S
C97 H96 1.016 . S
C97 N104 1.286 . S
C98 H93 0.930 1_455 S
C98 C99 1.397 1_455 S
C98 C100 1.361 . S
C99 C98 1.397 1_655 S
C99 C103 1.390 . S
C100 C98 1.361 . S
C100 C101 1.393 . S
C100 N104 1.413 . S
C101 H94 0.930 . S
C101 C100 1.393 . S
C101 C102 1.399 . S
C102 C101 1.399 . S
C102 C103 1.381 1_455 S
C103 H95 0.930 . S
C103 C99 1.390 . S
C103 C102 1.381 1_655 S
N104 C97 1.286 . S
N104 C100 1.413 . S
H105 C110 0.930 . S
H106 C113 0.930 . S
H107 C115 0.930 . S
H108 C109 1.016 . S
C109 H108 1.016 . S
C109 N116 1.286 . S
C110 H105 0.930 . S
C110 C111 1.397 . S
C110 C112 1.361 . S
C111 C110 1.397 . S
C111 C115 1.390 . S
C112 C110 1.361 . S
C112 C113 1.393 1_455 S
C112 N116 1.413 1_455 S
C113 H106 0.930 . S
C113 C112 1.393 1_655 S
C113 C114 1.399 1_655 S
C114 C113 1.399 1_455 S
C114 C115 1.381 . S
C115 H107 0.930 . S
C115 C111 1.390 . S
C115 C114 1.381 . S
N116 C109 1.286 . S
N116 C112 1.413 1_655 S
H117 C122 0.930 . S
H118 C125 0.930 1_565 S
H119 C127 0.930 . S
H120 C121 1.016 . S
C121 H120 1.016 . S
C121 N128 1.286 . S
C122 H117 0.930 . S
C122 C123 1.397 . S
C122 C124 1.361 . S
C123 C122 1.397 . S
C123 C127 1.390 . S
C124 C122 1.361 . S
C124 C125 1.393 . S
C124 N128 1.413 1_545 S
C125 H118 0.930 1_545 S
C125 C124 1.393 . S
C125 C126 1.399 . S
C126 C125 1.399 . S
C126 C127 1.381 . S
C127 H119 0.930 . S
C127 C123 1.390 . S
C127 C126 1.381 . S
N128 C121 1.286 . S
N128 C124 1.413 1_565 S
H129 C134 0.930 . S
H130 C137 0.930 . S
H131 C139 0.930 . S
H132 C133 1.016 . S
C133 H132 1.016 . S
C133 N140 1.286 . S
C134 H129 0.930 . S
C134 C135 1.397 . S
C134 C136 1.361 . S
C135 C134 1.397 . S
C135 C139 1.390 . S
C136 C134 1.361 . S
C136 C137 1.393 . S
C136 N140 1.413 . S
C137 H130 0.930 . S
C137 C136 1.393 . S
C137 C138 1.399 . S
C138 C137 1.399 . S
C138 C139 1.381 . S
C139 H131 0.930 . S
C139 C135 1.390 . S
C139 C138 1.381 . S
N140 C133 1.286 . S
N140 C136 1.413 . S
H141 C147 0.930 . S
H142 C150 0.930 . S
H143 C151 0.930 . S
H144 C152 0.930 . S
H145 C155 0.930 . S
H146 C156 0.930 . S
C147 H141 0.930 . S
C147 C148 1.355 . S
C147 C149 1.415 . S
C148 C147 1.355 . S
C148 C150 1.419 . S
C149 C147 1.415 . S
C149 C154 1.425 . S
C149 C156 1.409 . S
C150 H142 0.930 . S
C150 C148 1.419 . S
C150 C151 1.362 . S
C151 H143 0.930 . S
C151 C150 1.362 . S
C151 C154 1.409 . S
C152 H144 0.930 . S
C152 C153 1.355 . S
C152 C154 1.415 . S
C153 C152 1.355 . S
C153 C155 1.419 . S
C154 C149 1.425 . S
C154 C151 1.409 . S
C154 C152 1.415 . S
C155 H145 0.930 . S
C155 C153 1.419 . S
C155 C156 1.362 . S
C156 H146 0.930 . S
C156 C149 1.409 . S
C156 C155 1.362 . S
H157 C163 0.930 . S
H158 C166 0.930 . S
H159 C167 0.930 . S
H160 C168 0.930 . S
H161 C171 0.930 . S
H162 C172 0.930 . S
C163 H157 0.930 . S
C163 C164 1.355 . S
C163 C165 1.415 . S
C164 C163 1.355 . S
C164 C166 1.419 . S
C165 C163 1.415 . S
C165 C170 1.425 . S
C165 C172 1.409 . S
C166 H158 0.930 . S
C166 C164 1.419 . S
C166 C167 1.362 . S
C167 H159 0.930 . S
C167 C166 1.362 . S
C167 C170 1.409 . S
C168 H160 0.930 . S
C168 C169 1.355 . S
C168 C170 1.415 . S
C169 C168 1.355 . S
C169 C171 1.419 . S
C170 C165 1.425 . S
C170 C167 1.409 . S
C170 C168 1.415 . S
C171 H161 0.930 . S
C171 C169 1.419 . S
C171 C172 1.362 . S
C172 H162 0.930 . S
C172 C165 1.409 . S
C172 C171 1.362 . S
H173 C179 0.930 . S
H174 C182 0.930 . S
H175 C183 0.930 . S
H176 C184 0.930 . S
H177 C187 0.930 . S
H178 C188 0.930 . S
C179 H173 0.930 . S
C179 C180 1.355 . S
C179 C181 1.415 . S
C180 C179 1.355 . S
C180 C182 1.419 . S
C181 C179 1.415 . S
C181 C186 1.425 . S
C181 C188 1.409 . S
C182 H174 0.930 . S
C182 C180 1.419 . S
C182 C183 1.362 . S
C183 H175 0.930 . S
C183 C182 1.362 . S
C183 C186 1.409 . S
C184 H176 0.930 . S
C184 C185 1.355 . S
C184 C186 1.415 . S
C185 C184 1.355 . S
C185 C187 1.419 . S
C186 C181 1.425 . S
C186 C183 1.409 . S
C186 C184 1.415 . S
C187 H177 0.930 . S
C187 C185 1.419 . S
C187 C188 1.362 . S
C188 H178 0.930 . S
C188 C181 1.409 . S
C188 C187 1.362 . S
H189 C195 0.930 . S
H190 C198 0.930 . S
H191 C199 0.930 . S
H192 C200 0.930 . S
H193 C203 0.930 . S
H194 C204 0.930 . S
C195 H189 0.930 . S
C195 C196 1.355 . S
C195 C197 1.415 . S
C196 C195 1.355 . S
C196 C198 1.419 . S
C197 C195 1.415 . S
C197 C202 1.425 . S
C197 C204 1.409 . S
C198 H190 0.930 . S
C198 C196 1.419 . S
C198 C199 1.362 . S
C199 H191 0.930 . S
C199 C198 1.362 . S
C199 C202 1.409 . S
C200 H192 0.930 . S
C200 C201 1.355 . S
C200 C202 1.415 . S
C201 C200 1.355 . S
C201 C203 1.419 . S
C202 C197 1.425 . S
C202 C199 1.409 . S
C202 C200 1.415 . S
C203 H193 0.930 . S
C203 C201 1.419 . S
C203 C204 1.362 . S
C204 H194 0.930 . S
C204 C197 1.409 . S
C204 C203 1.362 . S
H205 C211 0.930 . S
H206 C214 0.930 . S
H207 C215 0.930 . S
H208 C216 0.930 . S
H209 C219 0.930 . S
H210 C220 0.930 . S
C211 H205 0.930 . S
C211 C212 1.355 . S
C211 C213 1.415 . S
C212 C211 1.355 . S
C212 C214 1.419 . S
C213 C211 1.415 . S
C213 C218 1.425 . S
C213 C220 1.409 . S
C214 H206 0.930 . S
C214 C212 1.419 . S
C214 C215 1.362 . S
C215 H207 0.930 . S
C215 C214 1.362 . S
C215 C218 1.409 . S
C216 H208 0.930 . S
C216 C217 1.355 . S
C216 C218 1.415 . S
C217 C216 1.355 . S
C217 C219 1.419 . S
C218 C213 1.425 . S
C218 C215 1.409 . S
C218 C216 1.415 . S
C219 H209 0.930 . S
C219 C217 1.419 . S
C219 C220 1.362 . S
C220 H210 0.930 . S
C220 C213 1.409 . S
C220 C219 1.362 . S
H221 C227 0.930 . S
H222 C230 0.930 . S
H223 C231 0.930 . S
H224 C232 0.930 . S
H225 C235 0.930 . S
H226 C236 0.930 . S
C227 H221 0.930 . S
C227 C228 1.355 . S
C227 C229 1.415 . S
C228 C227 1.355 . S
C228 C230 1.419 . S
C229 C227 1.415 . S
C229 C234 1.425 . S
C229 C236 1.409 . S
C230 H222 0.930 . S
C230 C228 1.419 . S
C230 C231 1.362 . S
C231 H223 0.930 . S
C231 C230 1.362 . S
C231 C234 1.409 . S
C232 H224 0.930 . S
C232 C233 1.355 . S
C232 C234 1.415 . S
C233 C232 1.355 . S
C233 C235 1.419 . S
C234 C229 1.425 . S
C234 C231 1.409 . S
C234 C232 1.415 . S
C235 H225 0.930 . S
C235 C233 1.419 . S
C235 C236 1.362 . S
C236 H226 0.930 . S
C236 C229 1.409 . S
C236 C235 1.362 . S
H237 C243 0.930 . S
H238 C246 0.930 . S
H239 C247 0.930 . S
H240 C248 0.930 . S
H241 C251 0.930 . S
H242 C252 0.930 . S
C243 H237 0.930 . S
C243 C244 1.355 . S
C243 C245 1.415 . S
C244 C243 1.355 . S
C244 C246 1.419 . S
C245 C243 1.415 . S
C245 C250 1.425 . S
C245 C252 1.409 . S
C246 H238 0.930 . S
C246 C244 1.419 . S
C246 C247 1.362 . S
C247 H239 0.930 . S
C247 C246 1.362 . S
C247 C250 1.409 . S
C248 H240 0.930 . S
C248 C249 1.355 . S
C248 C250 1.415 . S
C249 C248 1.355 . S
C249 C251 1.419 . S
C250 C245 1.425 . S
C250 C247 1.409 . S
C250 C248 1.415 . S
C251 H241 0.930 . S
C251 C249 1.419 . S
C251 C252 1.362 . S
C252 H242 0.930 . S
C252 C245 1.409 . S
C252 C251 1.362 . S
H253 C259 0.930 . S
H254 C262 0.930 . S
H255 C263 0.930 . S
H256 C264 0.930 . S
H257 C267 0.930 . S
H258 C268 0.930 . S
C259 H253 0.930 . S
C259 C260 1.355 . S
C259 C261 1.415 . S
C260 C259 1.355 . S
C260 C262 1.419 . S
C261 C259 1.415 . S
C261 C266 1.425 . S
C261 C268 1.409 . S
C262 H254 0.930 . S
C262 C260 1.419 . S
C262 C263 1.362 . S
C263 H255 0.930 . S
C263 C262 1.362 . S
C263 C266 1.409 . S
C264 H256 0.930 . S
C264 C265 1.355 . S
C264 C266 1.415 . S
C265 C264 1.355 . S
C265 C267 1.419 . S
C266 C261 1.425 . S
C266 C263 1.409 . S
C266 C264 1.415 . S
C267 H257 0.930 . S
C267 C265 1.419 . S
C267 C268 1.362 . S
C268 H258 0.930 . S
C268 C261 1.409 . S
C268 C267 1.362 . S
H269 C275 0.930 . S
H270 C278 0.930 . S
H271 C279 0.930 . S
H272 C280 0.930 . S
H273 C283 0.930 . S
H274 C284 0.930 . S
C275 H269 0.930 . S
C275 C276 1.355 . S
C275 C277 1.415 . S
C276 C275 1.355 . S
C276 C278 1.419 . S
C277 C275 1.415 . S
C277 C282 1.425 . S
C277 C284 1.409 . S
C278 H270 0.930 . S
C278 C276 1.419 . S
C278 C279 1.362 . S
C279 H271 0.930 . S
C279 C278 1.362 . S
C279 C282 1.409 . S
C280 H272 0.930 . S
C280 C281 1.355 . S
C280 C282 1.415 . S
C281 C280 1.355 . S
C281 C283 1.419 . S
C282 C277 1.425 . S
C282 C279 1.409 . S
C282 C280 1.415 . S
C283 H273 0.930 . S
C283 C281 1.419 . S
C283 C284 1.362 . S
C284 H274 0.930 . S
C284 C277 1.409 . S
C284 C283 1.362 . S
H285 C291 0.930 . S
H286 C294 0.930 . S
H287 C295 0.930 . S
H288 C296 0.930 . S
H289 C299 0.930 . S
H290 C300 0.930 . S
C291 H285 0.930 . S
C291 C292 1.355 . S
C291 C293 1.415 . S
C292 C291 1.355 . S
C292 C294 1.419 . S
C293 C291 1.415 . S
C293 C298 1.425 . S
C293 C300 1.409 . S
C294 H286 0.930 . S
C294 C292 1.419 . S
C294 C295 1.362 . S
C295 H287 0.930 . S
C295 C294 1.362 . S
C295 C298 1.409 . S
C296 H288 0.930 . S
C296 C297 1.355 . S
C296 C298 1.415 . S
C297 C296 1.355 . S
C297 C299 1.419 . S
C298 C293 1.425 . S
C298 C295 1.409 . S
C298 C296 1.415 . S
C299 H289 0.930 . S
C299 C297 1.419 . S
C299 C300 1.362 . S
C300 H290 0.930 . S
C300 C293 1.409 . S
C300 C299 1.362 . S
H301 C307 0.930 . S
H302 C310 0.930 . S
H303 C311 0.930 . S
H304 C312 0.930 . S
H305 C315 0.930 . S
H306 C316 0.930 . S
C307 H301 0.930 . S
C307 C308 1.355 . S
C307 C309 1.415 . S
C308 C307 1.355 . S
C308 C310 1.419 . S
C309 C307 1.415 . S
C309 C314 1.425 . S
C309 C316 1.409 . S
C310 H302 0.930 . S
C310 C308 1.419 . S
C310 C311 1.362 . S
C311 H303 0.930 . S
C311 C310 1.362 . S
C311 C314 1.409 . S
C312 H304 0.930 . S
C312 C313 1.355 . S
C312 C314 1.415 . S
C313 C312 1.355 . S
C313 C315 1.419 . S
C314 C309 1.425 . S
C314 C311 1.409 . S
C314 C312 1.415 . S
C315 H305 0.930 . S
C315 C313 1.419 . S
C315 C316 1.362 . S
C316 H306 0.930 . S
C316 C309 1.409 . S
C316 C315 1.362 . S
H317 C323 0.930 . S
H318 C326 0.930 . S
H319 C327 0.930 . S
H320 C328 0.930 . S
H321 C331 0.930 . S
H322 C332 0.930 . S
C323 H317 0.930 . S
C323 C324 1.355 . S
C323 C325 1.415 . S
C324 C323 1.355 . S
C324 C326 1.419 . S
C325 C323 1.415 . S
C325 C330 1.425 . S
C325 C332 1.409 . S
C326 H318 0.930 . S
C326 C324 1.419 . S
C326 C327 1.362 . S
C327 H319 0.930 . S
C327 C326 1.362 . S
C327 C330 1.409 . S
C328 H320 0.930 . S
C328 C329 1.355 . S
C328 C330 1.415 . S
C329 C328 1.355 . S
C329 C331 1.419 . S
C330 C325 1.425 . S
C330 C327 1.409 . S
C330 C328 1.415 . S
C331 H321 0.930 . S
C331 C329 1.419 . S
C331 C332 1.362 . S
C332 H322 0.930 . S
C332 C325 1.409 . S
C332 C331 1.362 . S
H333 C339 0.930 . S
H334 C342 0.930 . S
H335 C343 0.930 . S
H336 C344 0.930 . S
H337 C347 0.930 . S
H338 C348 0.930 1_554 S
C339 H333 0.930 . S
C339 C340 1.355 . S
C339 C341 1.415 . S
C340 C339 1.355 . S
C340 C342 1.419 . S
C341 C339 1.415 . S
C341 C346 1.425 . S
C341 C348 1.409 1_554 S
C342 H334 0.930 . S
C342 C340 1.419 . S
C342 C343 1.362 . S
C343 H335 0.930 . S
C343 C342 1.362 . S
C343 C346 1.409 . S
C344 H336 0.930 . S
C344 C345 1.355 . S
C344 C346 1.415 1_556 S
C345 C344 1.355 . S
C345 C347 1.419 . S
C346 C341 1.425 . S
C346 C343 1.409 . S
C346 C344 1.415 1_554 S
C347 H337 0.930 . S
C347 C345 1.419 . S
C347 C348 1.362 . S
C348 H338 0.930 1_556 S
C348 C341 1.409 1_556 S
C348 C347 1.362 . S
H349 C355 0.930 . S
H350 C358 0.930 . S
H351 C359 0.930 . S
H352 C360 0.930 . S
H353 C363 0.930 . S
H354 C364 0.930 . S
C355 H349 0.930 . S
C355 C356 1.355 . S
C355 C357 1.415 . S
C356 C355 1.355 . S
C356 C358 1.419 . S
C357 C355 1.415 . S
C357 C362 1.425 . S
C357 C364 1.409 . S
C358 H350 0.930 . S
C358 C356 1.419 . S
C358 C359 1.362 . S
C359 H351 0.930 . S
C359 C358 1.362 . S
C359 C362 1.409 . S
C360 H352 0.930 . S
C360 C361 1.355 . S
C360 C362 1.415 . S
C361 C360 1.355 . S
C361 C363 1.419 . S
C362 C357 1.425 . S
C362 C359 1.409 . S
C362 C360 1.415 . S
C363 H353 0.930 . S
C363 C361 1.419 . S
C363 C364 1.362 . S
C364 H354 0.930 . S
C364 C357 1.409 . S
C364 C363 1.362 . S
H365 C371 0.930 . S
H366 C374 0.930 . S
H367 C375 0.930 . S
H368 C376 0.930 . S
H369 C379 0.930 . S
H370 C380 0.930 . S
C371 H365 0.930 . S
C371 C372 1.355 . S
C371 C373 1.415 . S
C372 C371 1.355 . S
C372 C374 1.419 . S
C373 C371 1.415 . S
C373 C378 1.425 . S
C373 C380 1.409 . S
C374 H366 0.930 . S
C374 C372 1.419 . S
C374 C375 1.362 . S
C375 H367 0.930 . S
C375 C374 1.362 . S
C375 C378 1.409 . S
C376 H368 0.930 . S
C376 C377 1.355 . S
C376 C378 1.415 . S
C377 C376 1.355 . S
C377 C379 1.419 . S
C378 C373 1.425 . S
C378 C375 1.409 . S
C378 C376 1.415 . S
C379 H369 0.930 . S
C379 C377 1.419 . S
C379 C380 1.362 . S
C380 H370 0.930 . S
C380 C373 1.409 . S
C380 C379 1.362 . S
H381 C387 0.930 . S
H382 C390 0.930 . S
H383 C391 0.930 1_565 S
H384 C392 0.930 . S
H385 C395 0.930 . S
H386 C396 0.930 . S
C387 H381 0.930 . S
C387 C388 1.355 . S
C387 C389 1.415 . S
C388 C387 1.355 . S
C388 C390 1.419 . S
C389 C387 1.415 . S
C389 C394 1.425 . S
C389 C396 1.409 . S
C390 H382 0.930 . S
C390 C388 1.419 . S
C390 C391 1.362 . S
C391 H383 0.930 1_545 S
C391 C390 1.362 . S
C391 C394 1.409 . S
C392 H384 0.930 . S
C392 C393 1.355 . S
C392 C394 1.415 . S
C393 C392 1.355 . S
C393 C395 1.419 . S
C394 C389 1.425 . S
C394 C391 1.409 . S
C394 C392 1.415 . S
C395 H385 0.930 . S
C395 C393 1.419 . S
C395 C396 1.362 . S
C396 H386 0.930 . S
C396 C389 1.409 . S
C396 C395 1.362 . S
H397 C403 0.930 . S
H398 C406 0.930 . S
H399 C407 0.930 . S
H400 C408 0.930 . S
H401 C411 0.930 . S
H402 C412 0.930 . S
C403 H397 0.930 . S
C403 C404 1.355 . S
C403 C405 1.415 . S
C404 C403 1.355 . S
C404 C406 1.419 . S
C405 C403 1.415 . S
C405 C410 1.425 . S
C405 C412 1.409 . S
C406 H398 0.930 . S
C406 C404 1.419 . S
C406 C407 1.362 . S
C407 H399 0.930 . S
C407 C406 1.362 . S
C407 C410 1.409 . S
C408 H400 0.930 . S
C408 C409 1.355 . S
C408 C410 1.415 1_554 S
C409 C408 1.355 . S
C409 C411 1.419 . S
C410 C405 1.425 . S
C410 C407 1.409 . S
C410 C408 1.415 1_556 S
C411 H401 0.930 . S
C411 C409 1.419 . S
C411 C412 1.362 1_554 S
C412 H402 0.930 . S
C412 C405 1.409 . S
C412 C411 1.362 1_556 S
H413 C419 0.930 . S
H414 C422 0.930 . S
H415 C423 0.930 . S
H416 C424 0.930 . S
H417 C427 0.930 1_655 S
H418 C428 0.930 1_655 S
C419 H413 0.930 . S
C419 C420 1.355 . S
C419 C421 1.415 . S
C420 C419 1.355 . S
C420 C422 1.419 . S
C421 C419 1.415 . S
C421 C426 1.425 . S
C421 C428 1.409 . S
C422 H414 0.930 . S
C422 C420 1.419 . S
C422 C423 1.362 . S
C423 H415 0.930 . S
C423 C422 1.362 . S
C423 C426 1.409 . S
C424 H416 0.930 . S
C424 C425 1.355 . S
C424 C426 1.415 . S
C425 C424 1.355 . S
C425 C427 1.419 . S
C426 C421 1.425 . S
C426 C423 1.409 . S
C426 C424 1.415 . S
C427 H417 0.930 1_455 S
C427 C425 1.419 . S
C427 C428 1.362 . S
C428 H418 0.930 1_455 S
C428 C421 1.409 . S
C428 C427 1.362 . S
C148 C20 1.525 . S
C153 C135 1.543 . S
C164 C41 1.352 . S
C169 C109 1.332 . S
C180 C64 1.364 . S
C185 C121 1.330 . S
C196 C19 1.084 . S
C201 C133 1.157 . S
C217 C111 1.362 . S
C212 C44 1.360 . S
C233 C123 1.292 . S
C228 C67 1.285 . S
C244 C43 1.279 . S
C249 C85 1.331 . S
C260 C66 1.498 . S
C265 C99 1.555 . S
C276 C21 1.324 . S
C281 C75 1.340 . S
C297 C87 1.349 . S
C292 C42 1.274 . S
C313 C97 1.124 . S
C308 C65 1.055 . S
C324 C18 1.353 . S
C329 C73 1.328 . S
C345 C102 1.520 . S
C340 C17 1.528 . S
C356 C39 1.526 . S
C361 C78 1.524 . S
C372 C62 1.538 . S
C377 C90 1.536 . S
C393 C126 1.506 . S
C388 C40 1.495 . S
C409 C138 1.521 . S
C404 C63 1.525 . S
C420 C16 1.514 . S
C425 C114 1.510 . S
