# Generated by pormake.
# Topology pyr, (3,6)-cn, num edge types: 1
# Building blocks:
#     Node 0, Type 0, BuildingBlock: VETTIZ_charged_linker_0, # of connection points: 3
#     Node 1, Type 0, BuildingBlock: VETTIZ_charged_linker_0, # of connection points: 3
#     Node 2, Type 0, BuildingBlock: VETTIZ_charged_linker_0, # of connection points: 3
#     Node 3, Type 0, BuildingBlock: VETTIZ_charged_linker_0, # of connection points: 3
#     Node 4, Type 0, BuildingBlock: VETTIZ_charged_linker_0, # of connection points: 3
#     Node 5, Type 0, BuildingBlock: VETTIZ_charged_linker_0, # of connection points: 3
#     Node 6, Type 0, BuildingBlock: VETTIZ_charged_linker_0, # of connection points: 3
#     Node 7, Type 0, BuildingBlock: VETTIZ_charged_linker_0, # of connection points: 3
#     Node 8, Type 1, BuildingBlock: JUFBIX_clean_sbu_0, # of connection points: 6
#     Node 9, Type 1, BuildingBlock: JUFBIX_clean_sbu_0, # of connection points: 6
#     Node 10, Type 1, BuildingBlock: JUFBIX_clean_sbu_0, # of connection points: 6
#     Node 11, Type 1, BuildingBlock: JUFBIX_clean_sbu_0, # of connection points: 6
#     Edge 12, Type (0, 1), BuildingBlock: CIFDUS_clean_linker_0, # of connection points: 2
#     Edge 13, Type (0, 1), BuildingBlock: CIFDUS_clean_linker_0, # of connection points: 2
#     Edge 14, Type (0, 1), BuildingBlock: CIFDUS_clean_linker_0, # of connection points: 2
#     Edge 15, Type (0, 1), BuildingBlock: CIFDUS_clean_linker_0, # of connection points: 2
#     Edge 16, Type (0, 1), BuildingBlock: CIFDUS_clean_linker_0, # of connection points: 2
#     Edge 17, Type (0, 1), BuildingBlock: CIFDUS_clean_linker_0, # of connection points: 2
#     Edge 18, Type (0, 1), BuildingBlock: CIFDUS_clean_linker_0, # of connection points: 2
#     Edge 19, Type (0, 1), BuildingBlock: CIFDUS_clean_linker_0, # of connection points: 2
#     Edge 20, Type (0, 1), BuildingBlock: CIFDUS_clean_linker_0, # of connection points: 2
#     Edge 21, Type (0, 1), BuildingBlock: CIFDUS_clean_linker_0, # of connection points: 2
#     Edge 22, Type (0, 1), BuildingBlock: CIFDUS_clean_linker_0, # of connection points: 2
#     Edge 23, Type (0, 1), BuildingBlock: CIFDUS_clean_linker_0, # of connection points: 2
#     Edge 24, Type (0, 1), BuildingBlock: CIFDUS_clean_linker_0, # of connection points: 2
#     Edge 25, Type (0, 1), BuildingBlock: CIFDUS_clean_linker_0, # of connection points: 2
#     Edge 26, Type (0, 1), BuildingBlock: CIFDUS_clean_linker_0, # of connection points: 2
#     Edge 27, Type (0, 1), BuildingBlock: CIFDUS_clean_linker_0, # of connection points: 2
#     Edge 28, Type (0, 1), BuildingBlock: CIFDUS_clean_linker_0, # of connection points: 2
#     Edge 29, Type (0, 1), BuildingBlock: CIFDUS_clean_linker_0, # of connection points: 2
#     Edge 30, Type (0, 1), BuildingBlock: CIFDUS_clean_linker_0, # of connection points: 2
#     Edge 31, Type (0, 1), BuildingBlock: CIFDUS_clean_linker_0, # of connection points: 2
#     Edge 32, Type (0, 1), BuildingBlock: CIFDUS_clean_linker_0, # of connection points: 2
#     Edge 33, Type (0, 1), BuildingBlock: CIFDUS_clean_linker_0, # of connection points: 2
#     Edge 34, Type (0, 1), BuildingBlock: CIFDUS_clean_linker_0, # of connection points: 2
#     Edge 35, Type (0, 1), BuildingBlock: CIFDUS_clean_linker_0, # of connection points: 2
# Relax obj value: 0.054
# Max RMSD: 0.096
# Mean RMSD: 0.033
data_MOF--net-pyr--node1-JUFBIX_clean_sbu_0--node2-VETTIZ_charged_linker_0--edge1-CIFDUS_clean_linker_0
_symmetry_space_group_name_H-M    P1
_symmetry_Int_Tables_number       1
_symmetry_cell_setting            triclinic
loop_
_symmetry_equiv_pos_as_xyz
'x, y, z'
_cell_length_a     40.659935
_cell_length_b     38.941872
_cell_length_c     40.945979
_cell_angle_alpha  84.505643
_cell_angle_beta   89.915406
_cell_angle_gamma 91.024675
loop_
_atom_site_label
_atom_site_type_symbol
_atom_site_fract_x
_atom_site_fract_y
_atom_site_fract_z
_atom_type_partial_charge
C0 C 0.16057 0.11216 0.27272 0.0
C1 C 0.13007 0.12273 0.2849 0.0
C2 C 0.11162 0.1467 0.2648 0.0
C3 C 0.15503 0.15287 0.22407 0.0
C4 C 0.17241 0.12745 0.24205 0.0
C5 C 0.20387 0.11964 0.22443 0.0
H6 H 0.30831 0.15677 0.09389 0.0
C7 C 0.17452 0.16563 0.1947 0.0
C8 C 0.20306 0.14599 0.19416 0.0
H9 H 0.31624 0.07572 0.17316 0.0
H10 H 0.26616 0.09416 0.19733 0.0
H11 H 0.28636 0.21495 0.14196 0.0
H12 H 0.22676 0.15136 0.08324 0.0
H13 H 0.21553 0.19514 0.07642 0.0
H14 H 0.25619 0.18278 0.06548 0.0
H15 H 0.28588 0.22198 0.09797 0.0
H16 H 0.25506 0.23997 0.12274 0.0
C17 C 0.23328 0.12638 0.24697 0.0
C18 C 0.20119 0.08212 0.21508 0.0
C19 C 0.13558 0.27311 0.12746 0.0
C20 C 0.14891 0.29507 0.10134 0.0
C21 C 0.17836 0.28515 0.08666 0.0
C22 C 0.19457 0.25466 0.09864 0.0
C23 C 0.18136 0.23379 0.12573 0.0
C24 C 0.15215 0.24329 0.13933 0.0
C25 C 0.14162 0.21924 0.16836 0.0
C26 C 0.16962 0.19391 0.17072 0.0
C27 C 0.19286 0.20205 0.14557 0.0
C28 C 0.14022 0.24052 0.19852 0.0
C29 C 0.10852 0.20171 0.15981 0.0
C30 C 0.29899 0.14274 0.1162 0.0
C31 C 0.31643 0.11455 0.13145 0.0
C32 C 0.30362 0.09757 0.16091 0.0
C33 C 0.27434 0.10819 0.17488 0.0
C34 C 0.25731 0.13636 0.1595 0.0
C35 C 0.26977 0.15331 0.13071 0.0
C36 C 0.24898 0.18373 0.11868 0.0
C37 C 0.22127 0.18116 0.14396 0.0
C38 C 0.22637 0.15333 0.16807 0.0
C39 C 0.27003 0.21704 0.1201 0.0
C40 C 0.2362 0.17825 0.08401 0.0
H41 H 0.10865 0.18038 0.22158 0.0
H42 H 0.17517 0.09321 0.28696 0.0
H43 H 0.17544 0.07545 0.20859 0.0
H44 H 0.21579 0.07794 0.19311 0.0
H45 H 0.20875 0.06343 0.23579 0.0
H46 H 0.23 0.15089 0.25841 0.0
H47 H 0.23546 0.10522 0.26702 0.0
H48 H 0.25689 0.12941 0.23362 0.0
H49 H 0.11264 0.27914 0.13892 0.0
H50 H 0.18937 0.3014 0.06648 0.0
H51 H 0.21698 0.24871 0.08665 0.0
H52 H 0.16084 0.25976 0.19781 0.0
H53 H 0.11687 0.25485 0.19897 0.0
H54 H 0.143 0.22486 0.22219 0.0
H55 H 0.1055 0.20117 0.13285 0.0
H56 H 0.10692 0.17424 0.16968 0.0
H57 H 0.0872 0.21557 0.16885 0.0
H58 H 0.08747 0.15424 0.27236 0.0
C59 C 0.12387 0.16177 0.23487 0.0
C60 C 0.2817 0.84275 0.63131 0.0
C61 C 0.26305 0.8613 0.65244 0.0
C62 C 0.27719 0.86973 0.68214 0.0
C63 C 0.32944 0.84801 0.66595 0.0
C64 C 0.31476 0.83619 0.6387 0.0
C65 C 0.33865 0.81783 0.6186 0.0
H66 H 0.49216 0.75808 0.60208 0.0
C67 C 0.36492 0.84144 0.66427 0.0
C68 C 0.37049 0.82312 0.63707 0.0
H69 H 0.40385 0.73318 0.55002 0.0
H70 H 0.37404 0.77602 0.5762 0.0
H71 H 0.47788 0.84459 0.59555 0.0
H72 H 0.46141 0.76063 0.67081 0.0
H73 H 0.47892 0.79613 0.68868 0.0
H74 H 0.50179 0.77624 0.65823 0.0
H75 H 0.5108 0.82654 0.62037 0.0
H76 H 0.48557 0.86034 0.63363 0.0
C77 C 0.34002 0.83649 0.58347 0.0
C78 C 0.32788 0.77923 0.62016 0.0
C79 C 0.44153 0.89851 0.74034 0.0
C80 C 0.47586 0.90078 0.7432 0.0
C81 C 0.49567 0.8823 0.72297 0.0
C82 C 0.48121 0.86258 0.69956 0.0
C83 C 0.44668 0.86121 0.6967 0.0
C84 C 0.42759 0.87903 0.71703 0.0
C85 C 0.39147 0.8754 0.71071 0.0
C86 C 0.3918 0.85292 0.68258 0.0
C87 C 0.42408 0.84448 0.67454 0.0
C88 C 0.37821 0.91188 0.70025 0.0
C89 C 0.37486 0.85682 0.74188 0.0
C90 C 0.46664 0.76264 0.59578 0.0
C91 C 0.45007 0.74209 0.57445 0.0
C92 C 0.41685 0.74847 0.5668 0.0
C93 C 0.39953 0.77304 0.58224 0.0
C94 C 0.41559 0.79128 0.60566 0.0
C95 C 0.44886 0.78697 0.6113 0.0
C96 C 0.4614 0.80846 0.6375 0.0
C97 C 0.42963 0.82388 0.64838 0.0
C98 C 0.40299 0.81379 0.62949 0.0
C99 C 0.48537 0.83638 0.6212 0.0
C100 C 0.47692 0.78432 0.66532 0.0
H101 H 0.31996 0.87163 0.71125 0.0
H102 H 0.27155 0.83545 0.60849 0.0
H103 H 0.31118 0.77167 0.64129 0.0
H104 H 0.34895 0.76167 0.62397 0.0
H105 H 0.3146 0.77349 0.59758 0.0
H106 H 0.34101 0.86496 0.58435 0.0
H107 H 0.3179 0.83008 0.5692 0.0
H108 H 0.36213 0.83022 0.56968 0.0
H109 H 0.42557 0.91147 0.75626 0.0
H110 H 0.52221 0.88339 0.72507 0.0
H111 H 0.49738 0.84909 0.68468 0.0
H112 H 0.39514 0.92626 0.68221 0.0
H113 H 0.37609 0.9271 0.72174 0.0
H114 H 0.35411 0.91161 0.68805 0.0
H115 H 0.39276 0.84142 0.75744 0.0
H116 H 0.35573 0.83781 0.73589 0.0
H117 H 0.36379 0.87559 0.75728 0.0
H118 H 0.26306 0.88294 0.6994 0.0
C119 C 0.31029 0.86326 0.68895 0.0
C120 C 0.66845 0.25574 0.92269 0.0
C121 C 0.64312 0.23566 0.90999 0.0
C122 C 0.63133 0.24576 0.87812 0.0
C123 C 0.66787 0.29582 0.8734 0.0
C124 C 0.68066 0.28528 0.90384 0.0
C125 C 0.70851 0.30858 0.91286 0.0
H126 H 0.80799 0.44851 0.8752 0.0
C127 C 0.68524 0.32801 0.86055 0.0
C128 C 0.70953 0.33534 0.88319 0.0
H129 H 0.81048 0.37348 0.96007 0.0
H130 H 0.76398 0.34322 0.93979 0.0
H131 H 0.7263 0.45382 0.87586 0.0
H132 H 0.78954 0.39369 0.81894 0.0
H133 H 0.76049 0.4166 0.7936 0.0
H134 H 0.79087 0.44009 0.81485 0.0
H135 H 0.75309 0.4739 0.84442 0.0
H136 H 0.71327 0.4566 0.83473 0.0
C137 C 0.6986 0.3247 0.94452 0.0
C138 C 0.74029 0.28702 0.91594 0.0
C139 C 0.64255 0.39331 0.75703 0.0
C140 C 0.65043 0.42522 0.7396 0.0
C141 C 0.67806 0.44402 0.74974 0.0
C142 C 0.69661 0.43163 0.77743 0.0
C143 C 0.68746 0.40013 0.79525 0.0
C144 C 0.66094 0.38155 0.78455 0.0
C145 C 0.65406 0.34885 0.806 0.0
C146 C 0.68016 0.35104 0.83209 0.0
C147 C 0.70004 0.38096 0.82585 0.0
C148 C 0.61881 0.35085 0.82019 0.0
C149 C 0.65949 0.31795 0.7854 0.0
C150 C 0.79854 0.42537 0.88911 0.0
C151 C 0.813 0.41329 0.91931 0.0
C152 C 0.79971 0.38342 0.93696 0.0
C153 C 0.77272 0.36575 0.92504 0.0
C154 C 0.7584 0.37802 0.8951 0.0
C155 C 0.77103 0.40749 0.87762 0.0
C156 C 0.75121 0.41714 0.84692 0.0
C157 C 0.72573 0.38777 0.84828 0.0
C158 C 0.73022 0.36506 0.87676 0.0
C159 C 0.73517 0.45232 0.85033 0.0
C160 C 0.77413 0.41711 0.81682 0.0
H161 H 0.63292 0.28189 0.83619 0.0
H162 H 0.67846 0.24899 0.94688 0.0
H163 H 0.73919 0.26526 0.9002 0.0
H164 H 0.76248 0.30209 0.90734 0.0
H165 H 0.74416 0.27581 0.94159 0.0
H166 H 0.67215 0.3316 0.94382 0.0
H167 H 0.70241 0.30633 0.9666 0.0
H168 H 0.71201 0.34905 0.9477 0.0
H169 H 0.62215 0.37763 0.74954 0.0
H170 H 0.68486 0.46866 0.73675 0.0
H171 H 0.71716 0.44715 0.7841 0.0
H172 H 0.61412 0.37718 0.82735 0.0
H173 H 0.6 0.345 0.80177 0.0
H174 H 0.61452 0.33346 0.8427 0.0
H175 H 0.67699 0.3248 0.76478 0.0
H176 H 0.67085 0.29576 0.79982 0.0
H177 H 0.63607 0.30929 0.77463 0.0
H178 H 0.6129 0.2304 0.86683 0.0
C179 C 0.64334 0.27564 0.85999 0.0
C180 C 1.01327 0.73595 0.44046 0.0
C181 C 1.00666 0.74935 0.47045 0.0
C182 C 0.98516 0.73109 0.49314 0.0
C183 C 0.9738 0.68937 0.45428 0.0
C184 C 0.99698 0.70559 0.43314 0.0
C185 C 1.00082 0.68746 0.40248 0.0
H186 H 0.94025 0.56999 0.3055 0.0
C187 C 0.95879 0.66063 0.43831 0.0
C188 C 0.97524 0.65854 0.40834 0.0
H189 H 0.02282 0.63981 0.28486 0.0
H190 H 1.01883 0.65872 0.33969 0.0
H191 H 0.96196 0.54472 0.38268 0.0
H192 H 0.89703 0.61621 0.33204 0.0
H193 H 0.87809 0.60758 0.37033 0.0
H194 H 0.88385 0.57291 0.3448 0.0
H195 H 0.92431 0.5331 0.36339 0.0
H196 H 0.92531 0.54264 0.40571 0.0
C197 C 0.03617 0.67346 0.40163 0.0
C198 C 0.99214 0.71312 0.37265 0.0
C199 C 0.84791 0.61071 0.47825 0.0
C200 C 0.82611 0.58715 0.46508 0.0
C201 C 0.83742 0.56774 0.44012 0.0
C202 C 0.86889 0.57345 0.42683 0.0
C203 C 0.88926 0.59919 0.43819 0.0
C204 C 0.8794 0.6163 0.46443 0.0
C205 C 0.90496 0.64231 0.47338 0.0
C206 C 0.93049 0.6396 0.44646 0.0
C207 C 0.92073 0.61465 0.42578 0.0
C208 C 0.91858 0.63046 0.50792 0.0
C209 C 0.88894 0.67824 0.47096 0.0
C210 C 0.9578 0.58895 0.31307 0.0
C211 C 0.98169 0.60368 0.29116 0.0
C212 C 1.00421 0.62821 0.3016 0.0
C213 C 1.00168 0.63923 0.33326 0.0
C214 C 0.97634 0.6255 0.35441 0.0
C215 C 0.95555 0.60012 0.34433 0.0
C216 C 0.92962 0.58873 0.36924 0.0
C217 C 0.93787 0.61168 0.39604 0.0
C218 C 0.96512 0.63333 0.38733 0.0
C219 C 0.93522 0.55022 0.38085 0.0
C220 C 0.89534 0.59644 0.35351 0.0
H221 H 0.95194 0.68877 0.50301 0.0
H222 H 0.03014 0.74929 0.42286 0.0
H223 H 0.96962 0.72754 0.37778 0.0
H224 H 0.98664 0.70041 0.35032 0.0
H225 H 1.01243 0.73226 0.36701 0.0
H226 H 0.04514 0.66553 0.42684 0.0
H227 H 0.0536 0.69337 0.39017 0.0
H228 H 0.03766 0.64996 0.3886 0.0
H229 H 0.84012 0.62541 0.49794 0.0
H230 H 0.82125 0.54956 0.42933 0.0
H231 H 0.87545 0.55883 0.40701 0.0
H232 H 0.91316 0.60266 0.51517 0.0
H233 H 0.90772 0.64529 0.52701 0.0
H234 H 0.94577 0.63296 0.50887 0.0
H235 H 0.87625 0.68346 0.44699 0.0
H236 H 0.90678 0.69957 0.4727 0.0
H237 H 0.87045 0.67964 0.49076 0.0
H238 H 0.97981 0.741 0.51638 0.0
C239 C 0.96876 0.7011 0.48523 0.0
C240 C 0.88543 0.75804 0.90378 0.0
C241 C 0.91414 0.74432 0.89076 0.0
C242 C 0.92922 0.76257 0.86315 0.0
C243 C 0.88625 0.80502 0.85986 0.0
C244 C 0.87191 0.78849 0.88785 0.0
C245 C 0.84129 0.807 0.8973 0.0
H246 H 0.73121 0.93599 0.85997 0.0
C247 C 0.86577 0.83466 0.84789 0.0
C248 C 0.83928 0.83636 0.86972 0.0
H249 H 0.73068 0.8613 0.94515 0.0
H250 H 0.78053 0.83652 0.92608 0.0
H251 H 0.75247 0.88229 0.80721 0.0
H252 H 0.80994 0.95253 0.86062 0.0
H253 H 0.82365 0.95586 0.81963 0.0
H254 H 0.78209 0.96742 0.82854 0.0
H255 H 0.75003 0.9283 0.79887 0.0
H256 H 0.78128 0.90423 0.7803 0.0
C257 C 0.81164 0.78166 0.89689 0.0
C258 C 0.84743 0.8207 0.93101 0.0
C259 C 0.89775 0.9028 0.74004 0.0
C260 C 0.884 0.93079 0.72077 0.0
C261 C 0.855 0.94523 0.73228 0.0
C262 C 0.84014 0.93204 0.76215 0.0
C263 C 0.85426 0.90393 0.78099 0.0
C264 C 0.88266 0.88999 0.7697 0.0
C265 C 0.89443 0.8602 0.7924 0.0
C266 C 0.86847 0.85831 0.81927 0.0
C267 C 0.84485 0.88391 0.81266 0.0
C268 C 0.89357 0.82765 0.77326 0.0
C269 C 0.92889 0.87005 0.80532 0.0
C270 C 0.74163 0.91416 0.87448 0.0
C271 C 0.7266 0.9007 0.90422 0.0
C272 C 0.74166 0.87256 0.92241 0.0
C273 C 0.77063 0.85804 0.91119 0.0
C274 C 0.78519 0.87174 0.88143 0.0
C275 C 0.77072 0.89953 0.86373 0.0
C276 C 0.78978 0.91124 0.83291 0.0
C277 C 0.81808 0.88611 0.83495 0.0
C278 C 0.81529 0.86267 0.86341 0.0
C279 C 0.76734 0.90659 0.80309 0.0
C280 C 0.80194 0.94882 0.8352 0.0
H281 H 0.92828 0.80442 0.82661 0.0
H282 H 0.87336 0.74494 0.92516 0.0
H283 H 0.87322 0.83037 0.93281 0.0
H284 H 0.83198 0.8429 0.93514 0.0
H285 H 0.84329 0.80001 0.95131 0.0
H286 H 0.81247 0.76738 0.87464 0.0
H287 H 0.81185 0.76242 0.91874 0.0
H288 H 0.78779 0.79475 0.89596 0.0
H289 H 0.9196 0.89049 0.73198 0.0
H290 H 0.84389 0.96704 0.71834 0.0
H291 H 0.8182 0.94425 0.76945 0.0
H292 H 0.87232 0.8282 0.75613 0.0
H293 H 0.91629 0.82599 0.75846 0.0
H294 H 0.89009 0.80338 0.78924 0.0
H295 H 0.93171 0.89843 0.80611 0.0
H296 H 0.93316 0.85922 0.83091 0.0
H297 H 0.94881 0.86176 0.78939 0.0
H298 H 0.95176 0.75344 0.85309 0.0
C299 C 0.91555 0.79249 0.84776 0.0
C300 C 0.70128 0.07983 0.47065 0.0
C301 C 0.71435 0.04935 0.46043 0.0
C302 C 0.69549 0.03024 0.43932 0.0
C303 C 0.65368 0.07383 0.43586 0.0
C304 C 0.6712 0.09172 0.45783 0.0
C305 C 0.65561 0.12546 0.46328 0.0
H306 H 0.53875 0.24332 0.42208 0.0
C307 C 0.62551 0.09493 0.42421 0.0
C308 C 0.62637 0.12517 0.44026 0.0
H309 H 0.6167 0.2487 0.4931 0.0
H310 H 0.63497 0.19225 0.48207 0.0
H311 H 0.51837 0.16058 0.44022 0.0
H312 H 0.58159 0.21685 0.36903 0.0
H313 H 0.56739 0.1808 0.35031 0.0
H314 H 0.53835 0.21204 0.36193 0.0
H315 H 0.50413 0.19004 0.40702 0.0
H316 H 0.51112 0.14543 0.40154 0.0
C317 C 0.64472 0.12387 0.49966 0.0
C318 C 0.68058 0.155 0.45252 0.0
C319 C 0.55843 0.05952 0.32855 0.0
C320 C 0.53604 0.07757 0.30769 0.0
C321 C 0.52315 0.1087 0.31646 0.0
C322 C 0.53372 0.12255 0.34512 0.0
C323 C 0.5581 0.10553 0.36454 0.0
C324 C 0.56956 0.07419 0.35646 0.0
C325 C 0.5978 0.06154 0.37768 0.0
C326 C 0.6016 0.09054 0.39967 0.0
C327 C 0.57824 0.11613 0.39198 0.0
C328 C 0.58686 0.02728 0.39733 0.0
C329 C 0.62836 0.05869 0.35529 0.0
C330 C 0.55956 0.23208 0.4354 0.0
C331 C 0.57633 0.25018 0.45853 0.0
C332 C 0.60364 0.23516 0.47502 0.0
C333 C 0.61407 0.20237 0.46867 0.0
C334 C 0.59729 0.18464 0.44523 0.0
C335 C 0.57054 0.19954 0.42901 0.0
C336 C 0.55664 0.1776 0.40388 0.0
C337 C 0.57876 0.14655 0.40851 0.0
C338 C 0.6026 0.15093 0.43262 0.0
C339 C 0.52056 0.16792 0.41336 0.0
C340 C 0.5609 0.19771 0.36947 0.0
H341 H 0.65256 0.02685 0.41065 0.0
H342 H 0.7147 0.09491 0.48728 0.0
H343 H 0.69536 0.14865 0.43108 0.0
H344 H 0.66873 0.17954 0.44414 0.0
H345 H 0.69798 0.15947 0.47263 0.0
H346 H 0.63581 0.09746 0.50866 0.0
H347 H 0.66549 0.13063 0.51558 0.0
H348 H 0.62382 0.14077 0.50351 0.0
H349 H 0.56942 0.03611 0.32162 0.0
H350 H 0.50619 0.1231 0.30026 0.0
H351 H 0.52371 0.14679 0.35015 0.0
H352 H 0.5607 0.02834 0.40516 0.0
H353 H 0.58909 1.00521 0.38222 0.0
H354 H 0.6008 0.02179 0.42031 0.0
H355 H 0.62743 0.07758 0.33314 0.0
H356 H 0.65175 0.06499 0.3672 0.0
H357 H 0.6299 0.03255 0.34674 0.0
H358 H 0.70486 1.00693 0.43057 0.0
C359 C 0.66517 0.04212 0.4273 0.0
C360 C 0.41512 0.61502 0.28198 0.0
C361 C 0.40453 0.58336 0.29828 0.0
C362 C 0.37511 0.56805 0.28772 0.0
C363 C 0.36872 0.61513 0.24448 0.0
C364 C 0.3972 0.63014 0.25545 0.0
C365 C 0.40636 0.66328 0.23565 0.0
H366 H 0.37724 0.78508 0.11128 0.0
C367 C 0.35668 0.6378 0.21569 0.0
C368 C 0.3789 0.66594 0.21067 0.0
H369 H 0.45732 0.77982 0.18097 0.0
H370 H 0.43546 0.72655 0.20687 0.0
H371 H 0.32034 0.75989 0.16308 0.0
H372 H 0.37852 0.70384 0.09892 0.0
H373 H 0.33811 0.68728 0.0981 0.0
H374 H 0.34623 0.73196 0.08403 0.0
H375 H 0.31409 0.76304 0.11952 0.0
H376 H 0.29406 0.72976 0.14657 0.0
C377 C 0.40521 0.69268 0.25868 0.0
C378 C 0.44035 0.65866 0.21943 0.0
C379 C 0.25256 0.60716 0.15352 0.0
C380 C 0.23651 0.62344 0.12576 0.0
C381 C 0.24989 0.65481 0.11091 0.0
C382 C 0.27853 0.66954 0.12305 0.0
C383 C 0.29434 0.65294 0.15052 0.0
C384 C 0.28138 0.62226 0.16538 0.0
C385 C 0.3019 0.60837 0.19429 0.0
C386 C 0.32914 0.63576 0.19428 0.0
C387 C 0.32446 0.66186 0.16846 0.0
C388 C 0.28041 0.60695 0.22557 0.0
C389 C 0.31535 0.57299 0.18706 0.0
C390 C 0.39013 0.77227 0.13198 0.0
C391 C 0.41895 0.78711 0.14426 0.0
C392 C 0.43477 0.76954 0.17138 0.0
C393 C 0.4221 0.73831 0.18633 0.0
C394 C 0.3932 0.72399 0.17415 0.0
C395 C 0.37772 0.74078 0.14734 0.0
C396 C 0.34726 0.72132 0.13795 0.0
C397 C 0.34709 0.69028 0.16366 0.0
C398 C 0.37409 0.69215 0.18468 0.0
C399 C 0.31723 0.74458 0.14166 0.0
C400 C 0.35243 0.71062 0.10285 0.0
H401 H 0.33523 0.57069 0.25382 0.0
H402 H 0.43711 0.62805 0.28974 0.0
H403 H 0.44374 0.63149 0.214 0.0
H404 H 0.44322 0.6739 0.19537 0.0
H405 H 0.46078 0.66544 0.23574 0.0
H406 H 0.38563 0.68754 0.27763 0.0
H407 H 0.42894 0.69529 0.2717 0.0
H408 H 0.39893 0.71789 0.24574 0.0
H409 H 0.24318 0.58294 0.16547 0.0
H410 H 0.23792 0.66835 0.08998 0.0
H411 H 0.28722 0.69344 0.11054 0.0
H412 H 0.26542 0.63059 0.22551 0.0
H413 H 0.26326 0.58432 0.22711 0.0
H414 H 0.29508 0.60601 0.24827 0.0
H415 H 0.32366 0.57376 0.16109 0.0
H416 H 0.33706 0.56538 0.20197 0.0
H417 H 0.29608 0.55243 0.19116 0.0
H418 H 0.3663 0.54364 0.29977 0.0
C419 C 0.3572 0.58371 0.2609 0.0
C420 C 0.058 0.27828 0.59338 0.0
C421 C 0.07099 0.26006 0.56847 0.0
C422 C 0.09429 0.27619 0.54643 0.0
C423 C 0.09371 0.32723 0.5757 0.0
C424 C 0.06959 0.31201 0.59641 0.0
C425 C 0.05985 0.33501 0.62227 0.0
H426 H 0.08318 0.48576 0.68994 0.0
C427 C 0.10222 0.36127 0.58654 0.0
C428 C 0.08186 0.36653 0.6133 0.0
H429 H 0.02312 0.39783 0.72747 0.0
H430 H 0.03491 0.36961 0.67886 0.0
H431 H 0.07068 0.48415 0.60844 0.0
H432 H 0.13853 0.44612 0.68214 0.0
H433 H 0.1612 0.44514 0.64595 0.0
H434 H 0.14674 0.48582 0.6576 0.0
H435 H 0.09914 0.50961 0.62996 0.0
H436 H 0.11105 0.49153 0.59288 0.0
C437 C 0.02303 0.34342 0.61777 0.0
C438 C 0.06844 0.31661 0.65637 0.0
C439 C 0.20704 0.42322 0.54526 0.0
C440 C 0.22346 0.45234 0.55542 0.0
C441 C 0.2066 0.47467 0.57435 0.0
C442 C 0.17441 0.46678 0.58506 0.0
C443 C 0.15948 0.43563 0.57771 0.0
C444 C 0.17514 0.41513 0.55696 0.0
C445 C 0.15574 0.38259 0.5526 0.0
C446 C 0.12719 0.38587 0.57611 0.0
C447 C 0.12968 0.41688 0.59078 0.0
C448 C 0.14421 0.38395 0.51641 0.0
C449 C 0.17757 0.35137 0.56364 0.0
C450 C 0.07234 0.46046 0.68791 0.0
C451 C 0.05256 0.444 0.71314 0.0
C452 C 0.0384 0.4114 0.70858 0.0
C453 C 0.04569 0.39474 0.6805 0.0
C454 C 0.06804 0.41039 0.65711 0.0
C455 C 0.08079 0.44282 0.66109 0.0
C456 C 0.10771 0.45369 0.63698 0.0
C457 C 0.10831 0.42293 0.61697 0.0
C458 C 0.08478 0.39776 0.62851 0.0
C459 C 0.09684 0.48664 0.61594 0.0
C460 C 0.14021 0.45815 0.65641 0.0
H461 H 0.12373 0.32053 0.53257 0.0
H462 H 0.04013 0.26616 0.61066 0.0
H463 H 0.0904 0.30017 0.6549 0.0
H464 H 0.07522 0.33481 0.67443 0.0
H465 H 0.04776 0.29972 0.66632 0.0
H466 H 1.0173 0.34988 0.59136 0.0
H467 H 1.00725 0.32096 0.62697 0.0
H468 H 1.01573 0.36604 0.63019 0.0
H469 H 0.21977 0.40569 0.53081 0.0
H470 H 0.21898 0.49734 0.58219 0.0
H471 H 0.16305 0.48432 0.60004 0.0
H472 H 0.14388 0.41087 0.50452 0.0
H473 H 0.16069 0.36906 0.50159 0.0
H474 H 0.1186 0.37421 0.51431 0.0
H475 H 0.19005 0.35533 0.58719 0.0
H476 H 0.16368 0.32684 0.56819 0.0
H477 H 0.19686 0.34794 0.54506 0.0
H478 H 0.10445 0.26233 0.52714 0.0
C479 C 0.10551 0.30981 0.54973 0.0
Co480 Co 1.00022 0.01552 0.4949 0.0
C481 C 0.02574 0.94881 0.49195 0.0
Co482 Co 0.04797 1.00574 0.51869 0.0
C483 C 0.9323 0.03334 0.48505 0.0
C484 C 0.95137 1.00594 0.44639 0.0
N485 N 0.96005 0.01956 0.4743 0.0
N486 N 0.90669 0.02828 0.46518 0.0
C487 C 0.9184 0.01101 0.44089 0.0
H488 H 0.93057 0.04552 0.50767 0.0
H489 H 0.96774 0.99225 0.43155 0.0
C490 C 0.02259 0.07263 0.52136 0.0
N491 N 0.08834 1.0023 0.53879 0.0
C492 C 0.10024 0.97719 0.56032 0.0
C493 C 0.11221 0.02691 0.5357 0.0
N494 N 0.13043 0.98555 0.57102 0.0
C495 C 0.13805 0.01674 0.55555 0.0
C496 C 0.05324 0.03062 0.45252 0.0
O497 O 0.99802 0.06155 0.50615 0.0
O498 O 0.04636 0.05257 0.52837 0.0
O499 O 0.06949 0.01948 0.47767 0.0
O500 O 0.02207 0.03197 0.45452 0.0
O501 O 0.04928 0.959 0.50915 0.0
H502 H 0.11077 0.05093 0.52017 0.0
H503 H 0.0868 0.95367 0.56846 0.0
O504 O 1.00271 0.96937 0.48347 0.0
O505 O 0.97854 0.99918 0.53572 0.0
O506 O 0.02648 0.99177 0.55939 0.0
C507 C 0.99524 0.99043 0.56138 0.0
H508 H 0.90399 1.00239 0.4209 0.0
H509 H 0.16088 0.03096 0.55811 0.0
Co510 Co 0.50805 1.00762 0.99112 0.0
C511 C 0.49685 0.95354 0.03967 0.0
Co512 Co 0.53343 0.01437 0.03752 0.0
C513 C 0.4992 0.99913 0.92264 0.0
C514 C 0.45317 1.00052 0.94793 0.0
N515 N 0.48603 1.00191 0.95253 0.0
N516 N 0.47589 0.9964 0.89971 0.0
C517 C 0.44688 0.99731 0.91539 0.0
H518 H 0.52534 0.99923 0.91761 0.0
H519 H 0.43486 1.0014 0.967 0.0
C520 C 0.5439 0.06849 0.98866 0.0
N521 N 0.55579 0.02114 0.07566 0.0
C522 C 0.54332 0.02546 0.10553 0.0
C523 C 0.5881 0.0292 0.07769 0.0
N524 N 0.56643 0.03667 0.12574 0.0
C525 C 0.59467 0.03892 0.10841 0.0
C526 C 0.57152 0.98031 0.99348 0.0
O527 O 0.5244 0.05083 0.97248 0.0
O528 O 0.55165 0.05715 0.0177 0.0
O529 O 0.57059 0.99035 0.02213 0.0
O530 O 0.54645 0.98528 0.97518 0.0
O531 O 0.51501 0.97171 0.05692 0.0
H532 H 0.60533 0.03022 0.05745 0.0
H533 H 0.5174 0.02305 0.11158 0.0
O534 O 0.49133 0.96426 1.00989 0.0
O535 O 0.4702 0.03009 1.00745 0.0
O536 O 0.49596 0.03825 0.05285 0.0
C537 C 0.47013 0.04165 0.03547 0.0
H538 H 0.42294 0.99463 0.90429 0.0
H539 H 0.61799 0.04855 0.11686 0.0
Co540 Co 0.54632 0.51269 0.50584 0.0
C541 C 0.4911 0.51053 0.46613 0.0
Co542 Co 0.50441 0.48493 0.53094 0.0
C543 C 0.61363 0.52773 0.48942 0.0
C544 C 0.58217 0.56731 0.46821 0.0
N545 N 0.58177 0.53626 0.48589 0.0
N546 N 0.63401 0.55242 0.47514 0.0
C547 C 0.61434 0.57739 0.46164 0.0
H548 H 0.62178 0.50457 0.50363 0.0
H549 H 0.56055 0.58217 0.46158 0.0
C550 C 0.55985 0.4875 0.57058 0.0
N551 N 0.46902 0.46161 0.55144 0.0
C552 C 0.43697 0.46949 0.54798 0.0
C553 C 0.46949 0.43377 0.57374 0.0
N554 N 0.41747 0.44785 0.56733 0.0
C555 C 0.43777 0.42537 0.58372 0.0
C556 C 0.54493 0.44283 0.49886 0.0
O557 O 0.57152 0.50441 0.545 0.0
O558 O 0.53028 0.47633 0.57009 0.0
O559 O 0.51894 0.4436 0.51598 0.0
O560 O 0.56134 0.47059 0.49142 0.0
O561 O 0.47896 0.49395 0.49174 0.0
H562 H 0.49149 0.42058 0.58232 0.0
H563 H 0.42813 0.49122 0.53213 0.0
O564 O 0.52093 0.52093 0.46663 0.0
O565 O 0.53096 0.55458 0.52045 0.0
O566 O 0.48981 0.52619 0.54566 0.0
C567 C 0.50502 0.55448 0.5378 0.0
H568 H 0.62261 0.60138 0.44839 0.0
H569 H 0.43017 0.40428 0.60143 0.0
Co570 Co 0.04624 0.52476 0.97677 0.0
C571 C 0.98494 0.49236 0.97636 0.0
Co572 Co 0.0213 0.52252 0.02488 0.0
C573 C 0.05711 0.52236 0.90681 0.0
C574 C 0.10178 0.52342 0.93431 0.0
N575 N 0.06884 0.52503 0.93736 0.0
N576 N 0.08148 0.51891 0.88493 0.0
C577 C 0.10959 0.51977 0.90227 0.0
H578 H 0.03118 0.52189 0.90097 0.0
H579 H 0.11904 0.52305 0.9544 0.0
C580 C 0.08288 0.55507 0.02481 0.0
N581 N 0.99907 0.52217 0.06469 0.0
C582 C 1.01166 0.5276 0.09434 0.0
C583 C 0.96618 0.52139 0.06921 0.0
N584 N 0.988 0.53098 0.1169 0.0
C585 C 0.95933 0.52671 0.1012 0.0
C586 C 0.06076 0.46599 0.01951 0.0
O587 O 0.08222 0.54928 0.99481 0.0
O588 O 0.05817 0.54583 0.04272 0.0
O589 O 0.04096 0.47902 0.03888 0.0
O590 O 0.06622 0.48185 0.99134 0.0
O591 O 0.98461 0.49901 1.0062 0.0
H592 H 0.94815 0.51893 0.05016 0.0
H593 H 0.03762 0.53114 0.09891 0.0
O594 O 1.01037 0.50059 0.95914 0.0
O595 O 0.02572 0.56742 0.96235 0.0
O596 O 1.00187 0.56614 1.01059 0.0
C597 C 1.00643 0.58102 0.98181 0.0
H598 H 0.13405 0.51597 0.89296 0.0
H599 H 0.93505 0.52849 0.1117 0.0
H600 H 0.13305 0.05768 0.31894 0.0
H601 H 0.098 0.16054 0.32732 0.0
H602 H 0.06998 0.14091 0.37821 0.0
H603 H 0.05341 0.09436 0.42007 0.0
H604 H 0.0926 0.99293 0.41624 0.0
H605 H 0.12091 0.01196 0.36438 0.0
C606 C 0.11968 0.07589 0.33209 0.0
C607 C 0.11694 0.1104 0.31839 0.0
C608 C 0.10401 0.06459 0.36224 0.0
C609 C 0.09964 0.13355 0.33628 0.0
C610 C 0.08367 0.12243 0.36568 0.0
C611 C 0.06813 0.0765 0.40776 0.0
C612 C 0.07057 0.04224 0.4215 0.0
C613 C 0.08516 0.08794 0.37863 0.0
C614 C 0.09025 0.01942 0.40584 0.0
C615 C 0.10645 0.03033 0.37625 0.0
H616 H 0.45845 0.96472 0.75546 0.0
H617 H 0.52391 0.88265 0.78814 0.0
H618 H 0.53471 0.9098 0.83871 0.0
H619 H 0.51647 0.95027 0.8778 0.0
H620 H 0.44493 0.02689 0.84729 0.0
H621 H 0.44507 0.00853 0.79177 0.0
C622 C 0.47553 0.95311 0.77346 0.0
C623 C 0.48979 0.9214 0.76856 0.0
C624 C 0.47987 0.9676 0.80311 0.0
C625 C 0.51254 0.90701 0.79149 0.0
C626 C 0.51836 0.9223 0.82056 0.0
C627 C 0.50166 0.96338 0.85862 0.0
C628 C 0.48051 0.98962 0.86628 0.0
C629 C 0.50082 0.95157 0.82731 0.0
C630 C 0.46107 1.00641 0.84166 0.0
C631 C 0.46119 0.99592 0.81009 0.0
H632 H 0.66902 0.45801 0.67973 0.0
H633 H 0.58341 0.42241 0.7365 0.0
H634 H 0.54806 0.43842 0.68977 0.0
H635 H 0.54121 0.46051 0.632 0.0
H636 H 0.62628 0.4979 0.57532 0.0
H637 H 0.66169 0.48362 0.62262 0.0
C638 C 0.64261 0.45421 0.68202 0.0
C639 C 0.62911 0.43846 0.71158 0.0
C640 C 0.62216 0.46368 0.65491 0.0
C641 C 0.59471 0.43369 0.71391 0.0
C642 C 0.57435 0.443 0.68719 0.0
C643 C 0.56748 0.46565 0.63 0.0
C644 C 0.58096 0.4801 0.6 0.0
C645 C 0.5878 0.45754 0.6574 0.0
C646 C 0.61511 0.48679 0.59804 0.0
C647 C 0.63547 0.47858 0.62512 0.0
H648 H 0.02736 0.57067 0.25741 0.0
H649 H 0.93223 0.61766 0.2488 0.0
H650 H 0.92571 0.59933 0.19373 0.0
H651 H 0.94614 0.5686 0.149 0.0
H652 H 0.04033 0.51942 0.15727 0.0
H653 H 0.04835 0.54003 0.21138 0.0
C654 C 1.00552 0.57719 0.24313 0.0
C655 C 0.98035 0.59554 0.25677 0.0
C656 C 1.00165 0.56592 0.21168 0.0
C657 C 0.95188 0.6036 0.23849 0.0
C658 C 0.94809 0.59302 0.20716 0.0
C659 C 0.96824 0.56194 0.16274 0.0
C660 C 0.99243 0.54219 0.14919 0.0
C661 C 0.97259 0.57375 0.19373 0.0
C662 C 0.02135 0.53467 0.16709 0.0
C663 C 0.02593 0.54641 0.19805 0.0
H664 H 0.33117 0.10395 0.06752 0.0
H665 H 0.37344 0.09891 0.16435 0.0
H666 H 0.42459 0.07732 0.1434 0.0
H667 H 0.45724 0.05808 0.0979 0.0
H668 H 0.41453 0.06105 1.00131 0.0
H669 H 0.36424 0.0852 0.02168 0.0
C670 C 0.35169 0.09843 0.08396 0.0
C671 C 0.3482 0.10303 0.11759 0.0
C672 C 0.38115 0.08546 0.07177 0.0
C673 C 0.3751 0.09532 0.13849 0.0
C674 C 0.40451 0.08303 0.12649 0.0
C675 C 0.43704 0.0642 0.08121 0.0
C676 C 0.43995 0.05771 0.04799 0.0
C677 C 0.40779 0.07769 0.09323 0.0
C678 C 0.41321 0.06566 0.02695 0.0
C679 C 0.38431 0.07952 0.03861 0.0
H680 H 0.24289 0.92563 0.65985 0.0
H681 H 0.2128 0.83208 0.6187 0.0
H682 H 0.16598 0.86196 0.59217 0.0
H683 H 0.13771 0.91671 0.57575 0.0
H684 H 0.1699 0.00969 0.61634 0.0
H685 H 0.2115 0.97769 0.64883 0.0
C686 C 0.22558 0.91129 0.646 0.0
C687 C 0.23141 0.87666 0.64124 0.0
C688 C 0.19927 0.92868 0.63051 0.0
C689 C 0.20906 0.85888 0.62246 0.0
C690 C 0.1823 0.87594 0.60731 0.0
C691 C 0.15342 0.92964 0.59229 0.0
C692 C 0.15121 0.96548 0.59344 0.0
C693 C 0.17777 0.91114 0.61038 0.0
C694 C 0.1717 0.98219 0.61473 0.0
C695 C 0.19538 0.96393 0.6333 0.0
H696 H 0.87201 0.43196 0.89003 0.0
H697 H 0.81822 0.43413 0.98056 0.0
H698 H 0.86643 0.45817 1.00642 0.0
H699 H 0.92447 0.47714 1.00397 0.0
H700 H 0.97889 0.47414 0.91373 0.0
H701 H 0.93025 0.45179 0.88738 0.0
C702 C 0.87081 0.43818 0.91526 0.0
C703 C 0.84155 0.43133 0.93332 0.0
C704 C 0.89894 0.45147 0.93023 0.0
C705 C 0.84048 0.43907 0.96616 0.0
C706 C 0.86807 0.45274 0.981 0.0
C707 C 0.92578 0.47146 0.97859 0.0
C708 C 0.9555 0.47722 0.96103 0.0
C709 C 0.89759 0.45866 0.96344 0.0
C710 C 0.95649 0.46988 0.92802 0.0
C711 C 0.92858 0.45717 0.91281 0.0
H712 H 0.78615 0.53016 0.4746 0.0
H713 H 0.78625 0.64103 0.47436 0.0
H714 H 0.72641 0.63992 0.47881 0.0
H715 H 0.6738 0.60799 0.47776 0.0
H716 H 0.6736 0.49751 0.47575 0.0
H717 H 0.73369 0.49793 0.47672 0.0
C718 C 0.77308 0.55406 0.47575 0.0
C719 C 0.79067 0.58562 0.47391 0.0
C720 C 0.73862 0.55336 0.47733 0.0
C721 C 0.77341 0.61631 0.47608 0.0
C722 C 0.73913 0.61576 0.47819 0.0
C723 C 0.68696 0.58408 0.47735 0.0
C724 C 0.66936 0.55282 0.47626 0.0
C725 C 0.72146 0.58455 0.4779 0.0
C726 C 0.68665 0.52187 0.47661 0.0
C727 C 0.72097 0.52212 0.47712 0.0
H728 H 0.14106 0.32705 0.03878 0.0
H729 H 0.11962 0.33902 0.14033 0.0
H730 H 0.08952 0.39131 0.1242 0.0
H731 H 0.06879 0.43413 0.08142 0.0
H732 H 0.0924 0.42434 0.98004 0.0
H733 H 0.12204 0.37134 0.99595 0.0
C734 C 0.13012 0.34125 0.05742 0.0
C735 C 0.13235 0.32846 0.09076 0.0
C736 C 0.11298 0.37189 0.04801 0.0
C737 C 0.11775 0.34745 0.11443 0.0
C738 C 0.10061 0.37764 0.10526 0.0
C739 C 0.08027 0.42032 0.06278 0.0
C740 C 0.07808 0.43323 0.02955 0.0
C741 C 0.09781 0.39002 0.07213 0.0
C742 C 0.09356 0.4151 1.00582 0.0
C743 C 0.1106 0.38471 1.01489 0.0
H744 H 0.57988 0.21059 0.90946 0.0
H745 H 0.67429 0.18963 0.95471 0.0
H746 H 0.65116 0.13796 0.98523 0.0
H747 H 0.60469 0.09669 0.99698 0.0
H748 H 0.51286 0.11452 0.94613 0.0
H749 H 0.5347 0.1689 0.91926 0.0
C750 C 0.59577 0.19457 0.92548 0.0
C751 C 0.62899 0.2043 0.92941 0.0
C752 C 0.58274 0.16405 0.94191 0.0
C753 C 0.64855 0.18342 0.95135 0.0
C754 C 0.63541 0.15354 0.96866 0.0
C755 C 0.58949 0.11269 0.98017 0.0
C756 C 0.55721 0.10181 0.97359 0.0
C757 C 0.60261 0.14342 0.96392 0.0
C758 C 0.53783 0.1224 0.95146 0.0
C759 C 0.55028 0.15348 0.93614 0.0
H760 H 0.99723 0.8084 0.43244 0.0
H761 H 0.0415 0.76794 0.52325 0.0
H762 H 0.05458 0.82673 0.53668 0.0
H763 H 0.04892 0.88985 0.52449 0.0
H764 H 0.99948 0.92917 0.43592 0.0
H765 H 0.99309 0.87083 0.41951 0.0
C766 C 1.01037 0.81255 0.45482 0.0
C767 C 1.01874 0.78413 0.4767 0.0
C768 C 1.01653 0.84625 0.46288 0.0
C769 C 0.03503 0.78962 0.50602 0.0
C770 C 0.04236 0.82316 0.51372 0.0
C771 C 0.03716 0.88554 0.50144 0.0
C772 C 0.02462 0.91363 0.48146 0.0
C773 C 0.03257 0.85172 0.49266 0.0
C774 C 1.00909 0.90784 0.4518 0.0
C775 C 1.00547 0.87453 0.44238 0.0
H776 H 0.42472 0.67805 0.58271 0.0
H777 H 0.51021 0.73595 0.54518 0.0
H778 H 0.5354 0.68252 0.53066 0.0
H779 H 0.53243 0.61925 0.52868 0.0
H780 H 0.44672 0.56245 0.56825 0.0
H781 H 0.42225 0.61572 0.58199 0.0
C782 C 0.44871 0.679 0.57095 0.0
C783 C 0.46543 0.71072 0.5644 0.0
C784 C 0.463 0.64843 0.56329 0.0
C785 C 0.49688 0.71167 0.55013 0.0
C786 C 0.51121 0.68121 0.54191 0.0
C787 C 0.50846 0.61858 0.5404 0.0
C788 C 0.49144 0.58693 0.54738 0.0
C789 C 0.49445 0.64941 0.54842 0.0
C790 C 0.46043 0.58642 0.56267 0.0
C791 C 0.44631 0.61687 0.57046 0.0
H792 H 0.94971 0.93811 0.70605 0.0
H793 H 0.85376 0.95392 0.66289 0.0
H794 H 0.87926 0.9741 0.61027 0.0
H795 H 0.92904 0.98609 0.5758 0.0
H796 H 0.02469 0.96885 0.61939 0.0
H797 H 0.99904 0.94995 0.67201 0.0
C798 C 0.93425 0.94565 0.68513 0.0
C799 C 0.8997 0.9443 0.68873 0.0
C800 C 0.94908 0.95689 0.65474 0.0
C801 C 0.88034 0.955 0.66124 0.0
C802 C 0.89494 0.96633 0.63095 0.0
C803 C 0.94429 0.97819 0.59679 0.0
C804 C 0.97887 0.97892 0.59337 0.0
C805 C 0.92932 0.96724 0.62731 0.0
C806 C 0.99809 0.96862 0.62104 0.0
C807 C 0.98342 0.95777 0.65129 0.0
H808 H 0.5611 0.11175 0.25374 0.0
H809 H 0.50505 0.0204 0.28756 0.0
H810 H 0.5075 1.00036 0.23246 0.0
H811 H 0.52978 1.00719 0.17571 0.0
H812 H 0.59049 0.09616 0.14471 0.0
H813 H 0.58235 0.11898 0.1976 0.0
C814 C 0.5488 0.08786 0.24869 0.0
C815 C 0.53236 0.06779 0.27408 0.0
C816 C 0.55174 0.07594 0.21768 0.0
C817 C 0.51733 0.03637 0.26794 0.0
C818 C 0.51899 0.02488 0.23663 0.0
C819 C 0.54094 0.03162 0.1807 0.0
C820 C 0.5609 0.04992 0.15673 0.0
C821 C 0.53676 0.04412 0.21149 0.0
C822 C 0.5755 0.08149 0.16316 0.0
C823 C 0.57068 0.0946 0.19324 0.0
H824 H 0.38374 0.55052 0.35746 0.0
H825 H 0.47135 0.57898 0.30087 0.0
H826 H 0.50559 0.55861 0.34719 0.0
H827 H 0.51108 0.53547 0.40471 0.0
H828 H 0.42406 0.50501 0.46139 0.0
H829 H 0.38947 0.52289 0.41421 0.0
C830 C 0.41031 0.55175 0.35509 0.0
C831 C 0.4248 0.5669 0.32575 0.0
C832 C 0.43011 0.53976 0.38199 0.0
C833 C 0.45938 0.56828 0.32331 0.0
C834 C 0.47908 0.55648 0.3498 0.0
C835 C 0.48455 0.53254 0.40673 0.0
C836 C 0.47028 0.51911 0.4367 0.0
C837 C 0.46476 0.54274 0.37945 0.0
C838 C 0.43581 0.51526 0.43867 0.0
C839 C 0.41595 0.52558 0.41168 0.0
H840 H 0.10021 0.48014 0.74224 0.0
H841 H 1.00084 0.44066 0.75753 0.0
H842 H 1.00039 0.46161 0.81201 0.0
H843 H 0.02955 0.48894 0.85614 0.0
H844 H 0.12719 0.5319 0.83735 0.0
H845 H 0.12635 0.51266 0.78265 0.0
C846 C 0.07786 0.47695 0.75674 0.0
C847 C 0.05049 0.45894 0.74533 0.0
C848 C 0.07748 0.48968 0.78754 0.0
C849 C 0.02246 0.45405 0.7656 0.0
C850 C 0.0221 0.46624 0.79673 0.0
C851 C 0.05038 0.49471 0.8399 0.0
C852 C 0.07868 0.51136 0.85122 0.0
C853 C 0.04966 0.4838 0.80809 0.0
C854 C 0.10546 0.5184 0.82971 0.0
C855 C 0.10496 0.50753 0.79832 0.0
H856 H 0.70943 0.91316 0.967 0.0
H857 H 0.67271 0.92199 0.86784 0.0
H858 H 0.62174 0.94641 0.8863 0.0
H859 H 0.58718 0.9658 0.93074 0.0
H860 H 0.62474 0.95793 0.02964 0.0
H861 H 0.67509 0.93247 1.01125 0.0
C862 C 0.69021 0.92015 0.94941 0.0
C863 C 0.69524 0.91562 0.91594 0.0
C864 C 0.66081 0.93442 0.9602 0.0
C865 C 0.66998 0.92545 0.89363 0.0
C866 C 0.64061 0.9393 0.90422 0.0
C867 C 0.6063 0.95837 0.94832 0.0
C868 C 0.60184 0.96381 0.98167 0.0
C869 C 0.63569 0.94401 0.93747 0.0
C870 C 0.62721 0.95417 1.00389 0.0
C871 C 0.65617 0.93955 0.99336 0.0
H872 H 0.76757 0.09199 0.46625 0.0
H873 H 0.73893 0.98413 0.47257 0.0
H874 H 0.79658 0.96803 0.47555 0.0
H875 H 0.8553 0.98488 0.47136 0.0
H876 H 0.88384 0.09191 0.46919 0.0
H877 H 0.82579 0.10828 0.47039 0.0
C878 C 0.77369 0.0649 0.46928 0.0
C879 C 0.74877 0.03937 0.46852 0.0
C880 C 0.80686 0.05575 0.47148 0.0
C881 C 0.75754 1.00441 0.47212 0.0
C882 C 0.79051 0.99512 0.47398 0.0
C883 C 0.84853 0.01167 0.47156 0.0
C884 C 0.87322 0.03734 0.46977 0.0
C885 C 0.81535 0.02061 0.47273 0.0
C886 C 0.86483 0.07198 0.47048 0.0
C887 C 0.8318 0.08122 0.47107 0.0
H888 H 0.22017 0.62028 0.06139 0.0
H889 H 0.18366 0.59254 0.15952 0.0
H890 H 0.13276 0.56989 0.13723 0.0
H891 H 0.09823 0.55834 0.08965 0.0
H892 H 0.13549 0.58588 0.99169 0.0
H893 H 0.18599 0.60878 1.01415 0.0
C894 C 0.20101 0.60954 0.07798 0.0
C895 C 0.20588 0.60832 0.11218 0.0
C896 C 0.1717 0.59671 0.06498 0.0
C897 C 0.18089 0.59357 0.13315 0.0
C898 C 0.1516 0.58083 0.12039 0.0
C899 C 0.11728 0.56959 0.0732 0.0
C900 C 0.11283 0.57052 0.03894 0.0
C901 C 0.14665 0.58236 0.08632 0.0
C902 C 0.13807 0.58486 0.0181 0.0
C903 C 0.16707 0.59792 0.03093 0.0
H904 H 0.26776 0.44499 0.60348 0.0
H905 H 0.25896 0.46586 0.49871 0.0
H906 H 0.31922 0.46795 0.49317 0.0
H907 H 0.37426 0.46171 0.51852 0.0
H908 H 0.38209 0.43636 0.62294 0.0
H909 H 0.32224 0.4379 0.62851 0.0
C910 C 0.2792 0.4504 0.57952 0.0
C911 C 0.25939 0.45583 0.55155 0.0
C912 C 0.3135 0.45041 0.57658 0.0
C913 C 0.27405 0.46198 0.52049 0.0
C914 C 0.30835 0.46305 0.51738 0.0
C915 C 0.36272 0.45679 0.54243 0.0
C916 C 0.38233 0.449 0.57033 0.0
C917 C 0.3283 0.45703 0.54527 0.0
C918 C 0.36732 0.44212 0.60119 0.0
C919 C 0.33321 0.44316 0.60437 0.0
H920 H 0.92564 0.71953 0.95535 0.0
H921 H 0.93514 0.69295 0.85589 0.0
H922 H 0.96529 0.64153 0.8749 0.0
H923 H 0.99094 0.60469 0.91922 0.0
H924 H 0.97946 0.62811 0.01931 0.0
H925 H 0.94842 0.67973 1.00076 0.0
C926 C 0.93391 0.70222 0.93794 0.0
C927 C 0.92854 0.71067 0.9041 0.0
C928 C 0.95133 0.67216 0.94912 0.0
C929 C 0.93948 0.68771 0.88197 0.0
C930 C 0.95675 0.65814 0.89281 0.0
C931 C 0.98182 0.62118 0.937 0.0
C932 C 0.98801 0.61274 0.97058 0.0
C933 C 0.96335 0.65037 0.92622 0.0
C934 C 0.97531 0.63408 0.99328 0.0
C935 C 0.95745 0.66361 0.98267 0.0
H936 H 0.42483 0.81001 0.07911 0.0
H937 H 0.44447 0.84 0.17607 0.0
H938 H 0.4712 0.89319 0.15248 0.0
H939 H 0.48972 0.93115 0.1044 0.0
H940 H 0.46839 0.90259 1.00731 0.0
H941 H 0.44158 0.84921 0.03082 0.0
C942 C 0.43459 0.82837 0.09507 0.0
C943 C 0.43289 0.82071 0.12935 0.0
C944 C 0.44985 0.85919 0.08131 0.0
C945 C 0.44595 0.8448 0.14961 0.0
C946 C 0.46116 0.87536 0.13615 0.0
C947 C 0.47936 0.91317 0.08838 0.0
C948 C 0.4813 0.9208 0.05415 0.0
C949 C 0.46355 0.8827 0.10205 0.0
C950 C 0.46732 0.89738 0.03376 0.0
C951 C 0.45193 0.86682 0.04718 0.0
H952 H 1.01836 0.23214 0.53919 0.0
H953 H 0.10693 0.20644 0.59294 0.0
H954 H 0.09882 0.14549 0.58454 0.0
H955 H 0.06874 0.10054 0.55885 0.0
H956 H 0.9804 0.12545 0.50392 0.0
H957 H 0.98599 0.18568 0.51594 0.0
C958 C 0.03541 0.21293 0.54945 0.0
C959 C 0.06304 0.22328 0.5668 0.0
C960 C 0.03081 0.17803 0.54405 0.0
C961 C 0.0854 0.19864 0.57974 0.0
C962 C 0.08085 0.16395 0.5748 0.0
C963 C 0.05055 0.11905 0.54961 0.0
C964 C 0.02436 0.10857 0.53026 0.0
C965 C 0.05399 0.15348 0.55648 0.0
C966 C 1.00089 0.13288 0.51877 0.0
C967 C 1.00408 0.16732 0.5256 0.0
H968 H 0.61316 0.30893 0.45825 0.0
H969 H 0.51457 0.26813 0.47441 0.0
H970 H 0.49604 0.32455 0.48773 0.0
H971 H 0.5082 0.38478 0.49608 0.0
H972 H 0.60625 0.4267 0.47819 0.0
H973 H 0.62476 0.37048 0.46403 0.0
C974 C 0.58766 0.31253 0.46476 0.0
C975 C 0.56524 0.28458 0.46563 0.0
C976 C 0.57716 0.34509 0.472 0.0
C977 C 0.53216 0.28944 0.47355 0.0
C978 C 0.52161 0.32159 0.48123 0.0
C979 C 0.53362 0.38164 0.48904 0.0
C980 C 0.55591 0.4097 0.48842 0.0
C981 C 0.54394 0.34949 0.48071 0.0
C982 C 0.58865 0.40542 0.47882 0.0
C983 C 0.59925 0.3733 0.47085 0.0
loop_
_geom_bond_atom_site_label_1
_geom_bond_atom_site_label_2
_geom_bond_distance
_geom_bond_site_symmetry_2
_ccdc_geom_bond_type
C0 C1 1.391 . S
C0 C4 1.391 . S
C0 H42 0.948 . S
C1 C0 1.391 . S
C1 C2 1.391 . S
C2 C1 1.391 . S
C2 H58 0.947 . S
C2 C59 1.392 . S
C3 C4 1.391 . S
C3 C7 1.397 . S
C3 C59 1.419 . S
C4 C0 1.391 . S
C4 C3 1.391 . S
C4 C5 1.399 . S
C5 C4 1.399 . S
C5 C8 1.396 . S
C5 C17 1.453 . S
C5 C18 1.684 . S
H6 C30 0.948 . S
C7 C3 1.397 . S
C7 C8 1.394 . S
C7 C26 1.723 . S
C8 C5 1.396 . S
C8 C7 1.394 . S
C8 C38 1.723 . S
H9 C32 0.947 . S
H10 C33 0.948 . S
H11 C39 0.982 . S
H12 C40 0.979 . S
H13 C40 0.980 . S
H14 C40 0.983 . S
H15 C39 0.979 . S
H16 C39 0.977 . S
C17 C5 1.453 . S
C17 H46 0.982 . S
C17 H47 0.979 . S
C17 H48 0.977 . S
C18 C5 1.684 . S
C18 H43 0.979 . S
C18 H44 0.980 . S
C18 H45 0.983 . S
C19 C20 1.391 . S
C19 C24 1.391 . S
C19 H49 0.948 . S
C20 C19 1.391 . S
C20 C21 1.391 . S
C21 C20 1.391 . S
C21 C22 1.392 . S
C21 H50 0.947 . S
C22 C21 1.392 . S
C22 C23 1.419 . S
C22 H51 0.948 . S
C23 C22 1.419 . S
C23 C24 1.391 . S
C23 C27 1.397 . S
C24 C19 1.391 . S
C24 C23 1.391 . S
C24 C25 1.399 . S
C25 C24 1.399 . S
C25 C26 1.396 . S
C25 C28 1.453 . S
C25 C29 1.684 . S
C26 C7 1.723 . S
C26 C25 1.396 . S
C26 C27 1.394 . S
C27 C23 1.397 . S
C27 C26 1.394 . S
C27 C37 1.723 . S
C28 C25 1.453 . S
C28 H52 0.982 . S
C28 H53 0.979 . S
C28 H54 0.977 . S
C29 C25 1.684 . S
C29 H55 0.979 . S
C29 H56 0.980 . S
C29 H57 0.983 . S
C30 H6 0.948 . S
C30 C31 1.391 . S
C30 C35 1.391 . S
C31 C30 1.391 . S
C31 C32 1.391 . S
C32 H9 0.947 . S
C32 C31 1.391 . S
C32 C33 1.392 . S
C33 H10 0.948 . S
C33 C32 1.392 . S
C33 C34 1.419 . S
C34 C33 1.419 . S
C34 C35 1.391 . S
C34 C38 1.397 . S
C35 C30 1.391 . S
C35 C34 1.391 . S
C35 C36 1.399 . S
C36 C35 1.399 . S
C36 C37 1.396 . S
C36 C39 1.453 . S
C36 C40 1.684 . S
C37 C27 1.723 . S
C37 C36 1.396 . S
C37 C38 1.394 . S
C38 C8 1.723 . S
C38 C34 1.397 . S
C38 C37 1.394 . S
C39 H11 0.982 . S
C39 H15 0.979 . S
C39 H16 0.977 . S
C39 C36 1.453 . S
C40 H12 0.979 . S
C40 H13 0.980 . S
C40 H14 0.983 . S
C40 C36 1.684 . S
H41 C59 0.948 . S
H42 C0 0.948 . S
H43 C18 0.979 . S
H44 C18 0.980 . S
H45 C18 0.983 . S
H46 C17 0.982 . S
H47 C17 0.979 . S
H48 C17 0.977 . S
H49 C19 0.948 . S
H50 C21 0.947 . S
H51 C22 0.948 . S
H52 C28 0.982 . S
H53 C28 0.979 . S
H54 C28 0.977 . S
H55 C29 0.979 . S
H56 C29 0.980 . S
H57 C29 0.983 . S
H58 C2 0.947 . S
C59 C2 1.392 . S
C59 C3 1.419 . S
C59 H41 0.948 . S
C60 C61 1.391 . S
C60 C64 1.391 . S
C60 H102 0.948 . S
C61 C60 1.391 . S
C61 C62 1.391 . S
C62 C61 1.391 . S
C62 H118 0.947 . S
C62 C119 1.392 . S
C63 C64 1.391 . S
C63 C67 1.397 . S
C63 C119 1.419 . S
C64 C60 1.391 . S
C64 C63 1.391 . S
C64 C65 1.399 . S
C65 C64 1.399 . S
C65 C68 1.396 . S
C65 C77 1.453 . S
C65 C78 1.684 . S
H66 C90 0.948 . S
C67 C63 1.397 . S
C67 C68 1.394 . S
C67 C86 1.723 . S
C68 C65 1.396 . S
C68 C67 1.394 . S
C68 C98 1.723 . S
H69 C92 0.947 . S
H70 C93 0.948 . S
H71 C99 0.982 . S
H72 C100 0.979 . S
H73 C100 0.980 . S
H74 C100 0.983 . S
H75 C99 0.979 . S
H76 C99 0.977 . S
C77 C65 1.453 . S
C77 H106 0.982 . S
C77 H107 0.979 . S
C77 H108 0.977 . S
C78 C65 1.684 . S
C78 H103 0.979 . S
C78 H104 0.980 . S
C78 H105 0.983 . S
C79 C80 1.391 . S
C79 C84 1.391 . S
C79 H109 0.948 . S
C80 C79 1.391 . S
C80 C81 1.391 . S
C81 C80 1.391 . S
C81 C82 1.392 . S
C81 H110 0.947 . S
C82 C81 1.392 . S
C82 C83 1.419 . S
C82 H111 0.948 . S
C83 C82 1.419 . S
C83 C84 1.391 . S
C83 C87 1.397 . S
C84 C79 1.391 . S
C84 C83 1.391 . S
C84 C85 1.399 . S
C85 C84 1.399 . S
C85 C86 1.396 . S
C85 C88 1.453 . S
C85 C89 1.684 . S
C86 C67 1.723 . S
C86 C85 1.396 . S
C86 C87 1.394 . S
C87 C83 1.397 . S
C87 C86 1.394 . S
C87 C97 1.723 . S
C88 C85 1.453 . S
C88 H112 0.982 . S
C88 H113 0.979 . S
C88 H114 0.977 . S
C89 C85 1.684 . S
C89 H115 0.979 . S
C89 H116 0.980 . S
C89 H117 0.983 . S
C90 H66 0.948 . S
C90 C91 1.391 . S
C90 C95 1.391 . S
C91 C90 1.391 . S
C91 C92 1.391 . S
C92 H69 0.947 . S
C92 C91 1.391 . S
C92 C93 1.392 . S
C93 H70 0.948 . S
C93 C92 1.392 . S
C93 C94 1.419 . S
C94 C93 1.419 . S
C94 C95 1.391 . S
C94 C98 1.397 . S
C95 C90 1.391 . S
C95 C94 1.391 . S
C95 C96 1.399 . S
C96 C95 1.399 . S
C96 C97 1.396 . S
C96 C99 1.453 . S
C96 C100 1.684 . S
C97 C87 1.723 . S
C97 C96 1.396 . S
C97 C98 1.394 . S
C98 C68 1.723 . S
C98 C94 1.397 . S
C98 C97 1.394 . S
C99 H71 0.982 . S
C99 H75 0.979 . S
C99 H76 0.977 . S
C99 C96 1.453 . S
C100 H72 0.979 . S
C100 H73 0.980 . S
C100 H74 0.983 . S
C100 C96 1.684 . S
H101 C119 0.948 . S
H102 C60 0.948 . S
H103 C78 0.979 . S
H104 C78 0.980 . S
H105 C78 0.983 . S
H106 C77 0.982 . S
H107 C77 0.979 . S
H108 C77 0.977 . S
H109 C79 0.948 . S
H110 C81 0.947 . S
H111 C82 0.948 . S
H112 C88 0.982 . S
H113 C88 0.979 . S
H114 C88 0.977 . S
H115 C89 0.979 . S
H116 C89 0.980 . S
H117 C89 0.983 . S
H118 C62 0.947 . S
C119 C62 1.392 . S
C119 C63 1.419 . S
C119 H101 0.948 . S
C120 C121 1.391 . S
C120 C124 1.391 . S
C120 H162 0.948 . S
C121 C120 1.391 . S
C121 C122 1.391 . S
C122 C121 1.391 . S
C122 H178 0.947 . S
C122 C179 1.392 . S
C123 C124 1.391 . S
C123 C127 1.397 . S
C123 C179 1.419 . S
C124 C120 1.391 . S
C124 C123 1.391 . S
C124 C125 1.399 . S
C125 C124 1.399 . S
C125 C128 1.396 . S
C125 C137 1.453 . S
C125 C138 1.684 . S
H126 C150 0.948 . S
C127 C123 1.397 . S
C127 C128 1.394 . S
C127 C146 1.723 . S
C128 C125 1.396 . S
C128 C127 1.394 . S
C128 C158 1.723 . S
H129 C152 0.947 . S
H130 C153 0.948 . S
H131 C159 0.982 . S
H132 C160 0.979 . S
H133 C160 0.980 . S
H134 C160 0.983 . S
H135 C159 0.979 . S
H136 C159 0.977 . S
C137 C125 1.453 . S
C137 H166 0.982 . S
C137 H167 0.979 . S
C137 H168 0.977 . S
C138 C125 1.684 . S
C138 H163 0.979 . S
C138 H164 0.980 . S
C138 H165 0.983 . S
C139 C140 1.391 . S
C139 C144 1.391 . S
C139 H169 0.948 . S
C140 C139 1.391 . S
C140 C141 1.391 . S
C141 C140 1.391 . S
C141 C142 1.392 . S
C141 H170 0.947 . S
C142 C141 1.392 . S
C142 C143 1.419 . S
C142 H171 0.948 . S
C143 C142 1.419 . S
C143 C144 1.391 . S
C143 C147 1.397 . S
C144 C139 1.391 . S
C144 C143 1.391 . S
C144 C145 1.399 . S
C145 C144 1.399 . S
C145 C146 1.396 . S
C145 C148 1.453 . S
C145 C149 1.684 . S
C146 C127 1.723 . S
C146 C145 1.396 . S
C146 C147 1.394 . S
C147 C143 1.397 . S
C147 C146 1.394 . S
C147 C157 1.723 . S
C148 C145 1.453 . S
C148 H172 0.982 . S
C148 H173 0.979 . S
C148 H174 0.977 . S
C149 C145 1.684 . S
C149 H175 0.979 . S
C149 H176 0.980 . S
C149 H177 0.983 . S
C150 H126 0.948 . S
C150 C151 1.391 . S
C150 C155 1.391 . S
C151 C150 1.391 . S
C151 C152 1.391 . S
C152 H129 0.947 . S
C152 C151 1.391 . S
C152 C153 1.392 . S
C153 H130 0.948 . S
C153 C152 1.392 . S
C153 C154 1.419 . S
C154 C153 1.419 . S
C154 C155 1.391 . S
C154 C158 1.397 . S
C155 C150 1.391 . S
C155 C154 1.391 . S
C155 C156 1.399 . S
C156 C155 1.399 . S
C156 C157 1.396 . S
C156 C159 1.453 . S
C156 C160 1.684 . S
C157 C147 1.723 . S
C157 C156 1.396 . S
C157 C158 1.394 . S
C158 C128 1.723 . S
C158 C154 1.397 . S
C158 C157 1.394 . S
C159 H131 0.982 . S
C159 H135 0.979 . S
C159 H136 0.977 . S
C159 C156 1.453 . S
C160 H132 0.979 . S
C160 H133 0.980 . S
C160 H134 0.983 . S
C160 C156 1.684 . S
H161 C179 0.948 . S
H162 C120 0.948 . S
H163 C138 0.979 . S
H164 C138 0.980 . S
H165 C138 0.983 . S
H166 C137 0.982 . S
H167 C137 0.979 . S
H168 C137 0.977 . S
H169 C139 0.948 . S
H170 C141 0.947 . S
H171 C142 0.948 . S
H172 C148 0.982 . S
H173 C148 0.979 . S
H174 C148 0.977 . S
H175 C149 0.979 . S
H176 C149 0.980 . S
H177 C149 0.983 . S
H178 C122 0.947 . S
C179 C122 1.392 . S
C179 C123 1.419 . S
C179 H161 0.948 . S
C180 C181 1.391 . S
C180 C184 1.391 . S
C180 H222 0.948 . S
C181 C180 1.391 . S
C181 C182 1.391 . S
C182 C181 1.391 . S
C182 H238 0.947 . S
C182 C239 1.392 . S
C183 C184 1.391 . S
C183 C187 1.397 . S
C183 C239 1.419 . S
C184 C180 1.391 . S
C184 C183 1.391 . S
C184 C185 1.399 . S
C185 C184 1.399 . S
C185 C188 1.396 . S
C185 C197 1.453 . S
C185 C198 1.684 . S
H186 C210 0.948 . S
C187 C183 1.397 . S
C187 C188 1.394 . S
C187 C206 1.723 . S
C188 C185 1.396 . S
C188 C187 1.394 . S
C188 C218 1.723 . S
H189 C212 0.947 . S
H190 C213 0.948 . S
H191 C219 0.982 . S
H192 C220 0.979 . S
H193 C220 0.980 . S
H194 C220 0.983 . S
H195 C219 0.979 . S
H196 C219 0.977 . S
C197 C185 1.453 . S
C197 H226 0.982 . S
C197 H227 1.000 . S
C197 H228 0.977 . S
C198 C185 1.684 . S
C198 H223 0.979 . S
C198 H224 0.980 . S
C198 H225 0.983 . S
C199 C200 1.391 . S
C199 C204 1.391 . S
C199 H229 0.948 . S
C200 C199 1.391 . S
C200 C201 1.391 . S
C201 C200 1.391 . S
C201 C202 1.392 . S
C201 H230 0.947 . S
C202 C201 1.392 . S
C202 C203 1.419 . S
C202 H231 0.948 . S
C203 C202 1.419 . S
C203 C204 1.391 . S
C203 C207 1.397 . S
C204 C199 1.391 . S
C204 C203 1.391 . S
C204 C205 1.399 . S
C205 C204 1.399 . S
C205 C206 1.396 . S
C205 C208 1.453 . S
C205 C209 1.684 . S
C206 C187 1.723 . S
C206 C205 1.396 . S
C206 C207 1.394 . S
C207 C203 1.397 . S
C207 C206 1.394 . S
C207 C217 1.723 . S
C208 C205 1.453 . S
C208 H232 0.982 . S
C208 H233 0.979 . S
C208 H234 0.977 . S
C209 C205 1.684 . S
C209 H235 0.979 . S
C209 H236 0.980 . S
C209 H237 0.983 . S
C210 H186 0.948 . S
C210 C211 1.391 . S
C210 C215 1.391 . S
C211 C210 1.391 . S
C211 C212 1.391 . S
C212 H189 0.947 . S
C212 C211 1.391 . S
C212 C213 1.392 . S
C213 H190 0.948 . S
C213 C212 1.392 . S
C213 C214 1.419 . S
C214 C213 1.419 . S
C214 C215 1.391 . S
C214 C218 1.397 . S
C215 C210 1.391 . S
C215 C214 1.391 . S
C215 C216 1.399 . S
C216 C215 1.399 . S
C216 C217 1.396 . S
C216 C219 1.453 . S
C216 C220 1.684 . S
C217 C207 1.723 . S
C217 C216 1.396 . S
C217 C218 1.394 . S
C218 C188 1.723 . S
C218 C214 1.397 . S
C218 C217 1.394 . S
C219 H191 0.982 . S
C219 H195 0.979 . S
C219 H196 0.977 . S
C219 C216 1.453 . S
C220 H192 0.979 . S
C220 H193 0.980 . S
C220 H194 0.983 . S
C220 C216 1.684 . S
H221 C239 0.948 . S
H222 C180 0.948 . S
H223 C198 0.979 . S
H224 C198 0.980 . S
H225 C198 0.983 . S
H226 C197 0.982 . S
H227 C197 1.000 . S
H228 C197 0.977 . S
H229 C199 0.948 . S
H230 C201 0.947 . S
H231 C202 0.948 . S
H232 C208 0.982 . S
H233 C208 0.979 . S
H234 C208 0.977 . S
H235 C209 0.979 . S
H236 C209 0.980 . S
H237 C209 0.983 . S
H238 C182 0.947 . S
C239 C182 1.392 . S
C239 C183 1.419 . S
C239 H221 0.948 . S
C240 C241 1.391 . S
C240 C244 1.391 . S
C240 H282 0.948 . S
C241 C240 1.391 . S
C241 C242 1.391 . S
C242 C241 1.391 . S
C242 H298 0.947 . S
C242 C299 1.392 . S
C243 C244 1.391 . S
C243 C247 1.397 . S
C243 C299 1.419 . S
C244 C240 1.391 . S
C244 C243 1.391 . S
C244 C245 1.399 . S
C245 C244 1.399 . S
C245 C248 1.396 . S
C245 C257 1.453 . S
C245 C258 1.684 . S
H246 C270 0.948 . S
C247 C243 1.397 . S
C247 C248 1.394 . S
C247 C266 1.723 . S
C248 C245 1.396 . S
C248 C247 1.394 . S
C248 C278 1.723 . S
H249 C272 0.947 . S
H250 C273 0.948 . S
H251 C279 0.982 . S
H252 C280 0.979 . S
H253 C280 0.980 . S
H254 C280 0.983 . S
H255 C279 0.979 . S
H256 C279 0.977 . S
C257 C245 1.453 . S
C257 H286 0.982 . S
C257 H287 0.979 . S
C257 H288 0.977 . S
C258 C245 1.684 . S
C258 H283 0.979 . S
C258 H284 0.980 . S
C258 H285 0.983 . S
C259 C260 1.391 . S
C259 C264 1.391 . S
C259 H289 0.948 . S
C260 C259 1.391 . S
C260 C261 1.391 . S
C261 C260 1.391 . S
C261 C262 1.392 . S
C261 H290 0.947 . S
C262 C261 1.392 . S
C262 C263 1.419 . S
C262 H291 0.948 . S
C263 C262 1.419 . S
C263 C264 1.391 . S
C263 C267 1.397 . S
C264 C259 1.391 . S
C264 C263 1.391 . S
C264 C265 1.399 . S
C265 C264 1.399 . S
C265 C266 1.396 . S
C265 C268 1.453 . S
C265 C269 1.684 . S
C266 C247 1.723 . S
C266 C265 1.396 . S
C266 C267 1.394 . S
C267 C263 1.397 . S
C267 C266 1.394 . S
C267 C277 1.723 . S
C268 C265 1.453 . S
C268 H292 0.982 . S
C268 H293 0.979 . S
C268 H294 0.977 . S
C269 C265 1.684 . S
C269 H295 0.979 . S
C269 H296 0.980 . S
C269 H297 0.983 . S
C270 H246 0.948 . S
C270 C271 1.391 . S
C270 C275 1.391 . S
C271 C270 1.391 . S
C271 C272 1.391 . S
C272 H249 0.947 . S
C272 C271 1.391 . S
C272 C273 1.392 . S
C273 H250 0.948 . S
C273 C272 1.392 . S
C273 C274 1.419 . S
C274 C273 1.419 . S
C274 C275 1.391 . S
C274 C278 1.397 . S
C275 C270 1.391 . S
C275 C274 1.391 . S
C275 C276 1.399 . S
C276 C275 1.399 . S
C276 C277 1.396 . S
C276 C279 1.453 . S
C276 C280 1.684 . S
C277 C267 1.723 . S
C277 C276 1.396 . S
C277 C278 1.394 . S
C278 C248 1.723 . S
C278 C274 1.397 . S
C278 C277 1.394 . S
C279 H251 0.982 . S
C279 H255 0.979 . S
C279 H256 0.977 . S
C279 C276 1.453 . S
C280 H252 0.979 . S
C280 H253 0.980 . S
C280 H254 0.983 . S
C280 C276 1.684 . S
H281 C299 0.948 . S
H282 C240 0.948 . S
H283 C258 0.979 . S
H284 C258 0.980 . S
H285 C258 0.983 . S
H286 C257 0.982 . S
H287 C257 0.979 . S
H288 C257 0.977 . S
H289 C259 0.948 . S
H290 C261 0.947 . S
H291 C262 0.948 . S
H292 C268 0.982 . S
H293 C268 0.979 . S
H294 C268 0.977 . S
H295 C269 0.979 . S
H296 C269 0.980 . S
H297 C269 0.983 . S
H298 C242 0.947 . S
C299 C242 1.392 . S
C299 C243 1.419 . S
C299 H281 0.948 . S
C300 C301 1.391 . S
C300 C304 1.391 . S
C300 H342 0.948 . S
C301 C300 1.391 . S
C301 C302 1.391 . S
C302 C301 1.391 . S
C302 H358 0.947 . S
C302 C359 1.392 . S
C303 C304 1.391 . S
C303 C307 1.397 . S
C303 C359 1.419 . S
C304 C300 1.391 . S
C304 C303 1.391 . S
C304 C305 1.399 . S
C305 C304 1.399 . S
C305 C308 1.396 . S
C305 C317 1.453 . S
C305 C318 1.684 . S
H306 C330 0.948 . S
C307 C303 1.397 . S
C307 C308 1.394 . S
C307 C326 1.723 . S
C308 C305 1.396 . S
C308 C307 1.394 . S
C308 C338 1.723 . S
H309 C332 0.947 . S
H310 C333 0.948 . S
H311 C339 0.982 . S
H312 C340 0.979 . S
H313 C340 0.980 . S
H314 C340 0.983 . S
H315 C339 0.979 . S
H316 C339 0.977 . S
C317 C305 1.453 . S
C317 H346 0.982 . S
C317 H347 0.979 . S
C317 H348 0.977 . S
C318 C305 1.684 . S
C318 H343 0.979 . S
C318 H344 0.980 . S
C318 H345 0.983 . S
C319 C320 1.391 . S
C319 C324 1.391 . S
C319 H349 0.948 . S
C320 C319 1.391 . S
C320 C321 1.391 . S
C321 C320 1.391 . S
C321 C322 1.392 . S
C321 H350 0.947 . S
C322 C321 1.392 . S
C322 C323 1.419 . S
C322 H351 0.948 . S
C323 C322 1.419 . S
C323 C324 1.391 . S
C323 C327 1.397 . S
C324 C319 1.391 . S
C324 C323 1.391 . S
C324 C325 1.399 . S
C325 C324 1.399 . S
C325 C326 1.396 . S
C325 C328 1.453 . S
C325 C329 1.684 . S
C326 C307 1.723 . S
C326 C325 1.396 . S
C326 C327 1.394 . S
C327 C323 1.397 . S
C327 C326 1.394 . S
C327 C337 1.723 . S
C328 C325 1.453 . S
C328 H352 0.982 . S
C328 H353 0.979 . S
C328 H354 0.977 . S
C329 C325 1.684 . S
C329 H355 0.979 . S
C329 H356 0.980 . S
C329 H357 0.983 . S
C330 H306 0.948 . S
C330 C331 1.391 . S
C330 C335 1.391 . S
C331 C330 1.391 . S
C331 C332 1.391 . S
C332 H309 0.947 . S
C332 C331 1.391 . S
C332 C333 1.392 . S
C333 H310 0.948 . S
C333 C332 1.392 . S
C333 C334 1.419 . S
C334 C333 1.419 . S
C334 C335 1.391 . S
C334 C338 1.397 . S
C335 C330 1.391 . S
C335 C334 1.391 . S
C335 C336 1.399 . S
C336 C335 1.399 . S
C336 C337 1.396 . S
C336 C339 1.453 . S
C336 C340 1.684 . S
C337 C327 1.723 . S
C337 C336 1.396 . S
C337 C338 1.394 . S
C338 C308 1.723 . S
C338 C334 1.397 . S
C338 C337 1.394 . S
C339 H311 0.982 . S
C339 H315 0.979 . S
C339 H316 0.977 . S
C339 C336 1.453 . S
C340 H312 0.979 . S
C340 H313 0.980 . S
C340 H314 0.983 . S
C340 C336 1.684 . S
H341 C359 0.948 . S
H342 C300 0.948 . S
H343 C318 0.979 . S
H344 C318 0.980 . S
H345 C318 0.983 . S
H346 C317 0.982 . S
H347 C317 0.979 . S
H348 C317 0.977 . S
H349 C319 0.948 . S
H350 C321 0.947 . S
H351 C322 0.948 . S
H352 C328 0.982 . S
H353 C328 0.979 . S
H354 C328 0.977 . S
H355 C329 0.979 . S
H356 C329 0.980 . S
H357 C329 0.983 . S
H358 C302 0.947 . S
C359 C302 1.392 . S
C359 C303 1.419 . S
C359 H341 0.948 . S
C360 C361 1.391 . S
C360 C364 1.391 . S
C360 H402 0.948 . S
C361 C360 1.391 . S
C361 C362 1.391 . S
C362 C361 1.391 . S
C362 H418 0.947 . S
C362 C419 1.392 . S
C363 C364 1.391 . S
C363 C367 1.397 . S
C363 C419 1.419 . S
C364 C360 1.391 . S
C364 C363 1.391 . S
C364 C365 1.399 . S
C365 C364 1.399 . S
C365 C368 1.396 . S
C365 C377 1.453 . S
C365 C378 1.684 . S
H366 C390 0.948 . S
C367 C363 1.397 . S
C367 C368 1.394 . S
C367 C386 1.723 . S
C368 C365 1.396 . S
C368 C367 1.394 . S
C368 C398 1.723 . S
H369 C392 0.947 . S
H370 C393 0.948 . S
H371 C399 0.982 . S
H372 C400 0.979 . S
H373 C400 0.980 . S
H374 C400 0.983 . S
H375 C399 0.979 . S
H376 C399 0.977 . S
C377 C365 1.453 . S
C377 H406 0.982 . S
C377 H407 0.979 . S
C377 H408 0.977 . S
C378 C365 1.684 . S
C378 H403 0.979 . S
C378 H404 0.980 . S
C378 H405 0.983 . S
C379 C380 1.391 . S
C379 C384 1.391 . S
C379 H409 0.948 . S
C380 C379 1.391 . S
C380 C381 1.391 . S
C381 C380 1.391 . S
C381 C382 1.392 . S
C381 H410 0.947 . S
C382 C381 1.392 . S
C382 C383 1.419 . S
C382 H411 0.948 . S
C383 C382 1.419 . S
C383 C384 1.391 . S
C383 C387 1.397 . S
C384 C379 1.391 . S
C384 C383 1.391 . S
C384 C385 1.399 . S
C385 C384 1.399 . S
C385 C386 1.396 . S
C385 C388 1.453 . S
C385 C389 1.684 . S
C386 C367 1.723 . S
C386 C385 1.396 . S
C386 C387 1.394 . S
C387 C383 1.397 . S
C387 C386 1.394 . S
C387 C397 1.723 . S
C388 C385 1.453 . S
C388 H412 0.982 . S
C388 H413 0.979 . S
C388 H414 0.977 . S
C389 C385 1.684 . S
C389 H415 0.979 . S
C389 H416 0.980 . S
C389 H417 0.983 . S
C390 H366 0.948 . S
C390 C391 1.391 . S
C390 C395 1.391 . S
C391 C390 1.391 . S
C391 C392 1.391 . S
C392 H369 0.947 . S
C392 C391 1.391 . S
C392 C393 1.392 . S
C393 H370 0.948 . S
C393 C392 1.392 . S
C393 C394 1.419 . S
C394 C393 1.419 . S
C394 C395 1.391 . S
C394 C398 1.397 . S
C395 C390 1.391 . S
C395 C394 1.391 . S
C395 C396 1.399 . S
C396 C395 1.399 . S
C396 C397 1.396 . S
C396 C399 1.453 . S
C396 C400 1.684 . S
C397 C387 1.723 . S
C397 C396 1.396 . S
C397 C398 1.394 . S
C398 C368 1.723 . S
C398 C394 1.397 . S
C398 C397 1.394 . S
C399 H371 0.982 . S
C399 H375 0.979 . S
C399 H376 0.977 . S
C399 C396 1.453 . S
C400 H372 0.979 . S
C400 H373 0.980 . S
C400 H374 0.983 . S
C400 C396 1.684 . S
H401 C419 0.948 . S
H402 C360 0.948 . S
H403 C378 0.979 . S
H404 C378 0.980 . S
H405 C378 0.983 . S
H406 C377 0.982 . S
H407 C377 0.979 . S
H408 C377 0.977 . S
H409 C379 0.948 . S
H410 C381 0.947 . S
H411 C382 0.948 . S
H412 C388 0.982 . S
H413 C388 0.979 . S
H414 C388 0.977 . S
H415 C389 0.979 . S
H416 C389 0.980 . S
H417 C389 0.983 . S
H418 C362 0.947 . S
C419 C362 1.392 . S
C419 C363 1.419 . S
C419 H401 0.948 . S
C420 C421 1.391 . S
C420 C424 1.391 . S
C420 H462 0.948 . S
C421 C420 1.391 . S
C421 C422 1.391 . S
C422 C421 1.391 . S
C422 H478 0.947 . S
C422 C479 1.392 . S
C423 C424 1.391 . S
C423 C427 1.397 . S
C423 C479 1.419 . S
C424 C420 1.391 . S
C424 C423 1.391 . S
C424 C425 1.399 . S
C425 C424 1.399 . S
C425 C428 1.396 . S
C425 C437 1.453 . S
C425 C438 1.684 . S
H426 C450 0.948 . S
C427 C423 1.397 . S
C427 C428 1.394 . S
C427 C446 1.723 . S
C428 C425 1.396 . S
C428 C427 1.394 . S
C428 C458 1.723 . S
H429 C452 0.947 . S
H430 C453 0.948 . S
H431 C459 0.982 . S
H432 C460 0.979 . S
H433 C460 0.980 . S
H434 C460 0.983 . S
H435 C459 0.979 . S
H436 C459 0.977 . S
C437 C425 1.453 . S
C437 H466 0.982 . S
C437 H467 0.979 . S
C437 H468 0.977 . S
C438 C425 1.684 . S
C438 H463 0.979 . S
C438 H464 0.980 . S
C438 H465 0.983 . S
C439 C440 1.391 . S
C439 C444 1.391 . S
C439 H469 0.948 . S
C440 C439 1.391 . S
C440 C441 1.391 . S
C441 C440 1.391 . S
C441 C442 1.392 . S
C441 H470 0.947 . S
C442 C441 1.392 . S
C442 C443 1.419 . S
C442 H471 0.948 . S
C443 C442 1.419 . S
C443 C444 1.391 . S
C443 C447 1.397 . S
C444 C439 1.391 . S
C444 C443 1.391 . S
C444 C445 1.399 . S
C445 C444 1.399 . S
C445 C446 1.396 . S
C445 C448 1.453 . S
C445 C449 1.684 . S
C446 C427 1.723 . S
C446 C445 1.396 . S
C446 C447 1.394 . S
C447 C443 1.397 . S
C447 C446 1.394 . S
C447 C457 1.723 . S
C448 C445 1.453 . S
C448 H472 0.982 . S
C448 H473 0.979 . S
C448 H474 0.977 . S
C449 C445 1.684 . S
C449 H475 0.979 . S
C449 H476 0.980 . S
C449 H477 0.983 . S
C450 H426 0.948 . S
C450 C451 1.391 . S
C450 C455 1.391 . S
C451 C450 1.391 . S
C451 C452 1.391 . S
C452 H429 0.947 . S
C452 C451 1.391 . S
C452 C453 1.392 . S
C453 H430 0.948 . S
C453 C452 1.392 . S
C453 C454 1.419 . S
C454 C453 1.419 . S
C454 C455 1.391 . S
C454 C458 1.397 . S
C455 C450 1.391 . S
C455 C454 1.391 . S
C455 C456 1.399 . S
C456 C455 1.399 . S
C456 C457 1.396 . S
C456 C459 1.453 . S
C456 C460 1.684 . S
C457 C447 1.723 . S
C457 C456 1.396 . S
C457 C458 1.394 . S
C458 C428 1.723 . S
C458 C454 1.397 . S
C458 C457 1.394 . S
C459 H431 0.982 . S
C459 H435 0.979 . S
C459 H436 0.977 . S
C459 C456 1.453 . S
C460 H432 0.979 . S
C460 H433 0.980 . S
C460 H434 0.983 . S
C460 C456 1.684 . S
H461 C479 0.948 . S
H462 C420 0.948 . S
H463 C438 0.979 . S
H464 C438 0.980 . S
H465 C438 0.983 . S
H466 C437 0.982 . S
H467 C437 0.979 . S
H468 C437 0.977 . S
H469 C439 0.948 . S
H470 C441 0.947 . S
H471 C442 0.948 . S
H472 C448 0.982 . S
H473 C448 0.979 . S
H474 C448 0.977 . S
H475 C449 0.979 . S
H476 C449 0.980 . S
H477 C449 0.983 . S
H478 C422 0.947 . S
C479 C422 1.392 . S
C479 C423 1.419 . S
C479 H461 0.948 . S
Co480 N485 2.057 . S
Co480 O497 2.021 . S
Co480 O500 2.062 . S
Co480 O504 2.117 1_545 S
Co480 O505 2.020 1_545 S
C481 O501 1.259 1_655 S
C481 O504 1.258 . S
Co482 N491 2.057 . S
Co482 O498 2.117 1_565 S
Co482 O499 2.020 1_565 S
Co482 O501 2.021 . S
Co482 O506 2.062 . S
C483 N485 1.316 . S
C483 N486 1.347 . S
C483 H488 0.931 . S
C484 N485 1.375 1_565 S
C484 C487 1.350 1_565 S
C484 H489 0.930 . S
N485 Co480 2.057 . S
N485 C483 1.316 . S
N485 C484 1.375 1_545 S
N486 C483 1.347 . S
N486 C487 1.373 . S
C487 C484 1.350 1_545 S
C487 N486 1.373 . S
C487 H508 0.931 1_545 S
H488 C483 0.931 . S
H489 C484 0.930 . S
C490 O497 1.259 1_455 S
C490 O498 1.258 . S
N491 Co482 2.057 . S
N491 C492 1.316 . S
N491 C493 1.375 1_565 S
C492 N491 1.316 . S
C492 N494 1.347 . S
C492 H503 0.931 . S
C493 N491 1.375 1_545 S
C493 C495 1.350 1_545 S
C493 H502 0.930 . S
N494 C492 1.347 . S
N494 C495 1.373 . S
C495 C493 1.350 1_565 S
C495 N494 1.373 . S
C495 H509 0.931 1_565 S
C496 O499 1.256 . S
C496 O500 1.255 1_455 S
O497 Co480 2.021 . S
O497 C490 1.259 1_655 S
O498 Co482 2.117 1_545 S
O498 C490 1.258 . S
O499 Co482 2.020 1_545 S
O499 C496 1.256 . S
O500 Co480 2.062 . S
O500 C496 1.255 1_655 S
O501 C481 1.259 1_455 S
O501 Co482 2.021 . S
H502 C493 0.930 . S
H503 C492 0.931 . S
O504 Co480 2.117 1_565 S
O504 C481 1.258 . S
O505 Co480 2.020 1_565 S
O505 C507 1.256 . S
O506 Co482 2.062 . S
O506 C507 1.255 1_455 S
C507 O505 1.256 . S
C507 O506 1.255 1_655 S
H508 C487 0.931 1_565 S
H509 C495 0.931 1_545 S
Co510 N515 2.057 . S
Co510 O527 2.021 1_565 S
Co510 O530 2.062 . S
Co510 O534 2.117 . S
Co510 O535 2.020 1_565 S
C511 O531 1.259 . S
C511 O534 1.258 1_554 S
Co512 N521 2.057 . S
Co512 O528 2.117 . S
Co512 O529 2.020 1_545 S
Co512 O531 2.021 1_545 S
Co512 O536 2.062 . S
C513 N515 1.316 . S
C513 N516 1.347 . S
C513 H518 0.931 1_565 S
C514 N515 1.375 . S
C514 C517 1.350 . S
C514 H519 0.930 . S
N515 Co510 2.057 . S
N515 C513 1.316 . S
N515 C514 1.375 . S
N516 C513 1.347 . S
N516 C517 1.373 . S
C517 C514 1.350 . S
C517 N516 1.373 . S
C517 H538 0.931 . S
H518 C513 0.931 1_545 S
H519 C514 0.930 . S
C520 O527 1.259 . S
C520 O528 1.258 1_556 S
N521 Co512 2.057 . S
N521 C522 1.316 . S
N521 C523 1.375 . S
C522 N521 1.316 . S
C522 N524 1.347 . S
C522 H533 0.931 1_545 S
C523 N521 1.375 . S
C523 C525 1.350 . S
C523 H532 0.930 . S
N524 C522 1.347 . S
N524 C525 1.373 . S
C525 C523 1.350 . S
C525 N524 1.373 . S
C525 H539 0.931 . S
C526 O529 1.256 1_556 S
C526 O530 1.255 . S
O527 Co510 2.021 1_545 S
O527 C520 1.259 . S
O528 Co512 2.117 . S
O528 C520 1.258 1_554 S
O529 Co512 2.020 1_565 S
O529 C526 1.256 1_554 S
O530 Co510 2.062 . S
O530 C526 1.255 . S
O531 C511 1.259 . S
O531 Co512 2.021 1_565 S
H532 C523 0.930 . S
H533 C522 0.931 1_565 S
O534 Co510 2.117 . S
O534 C511 1.258 1_556 S
O535 Co510 2.020 1_545 S
O535 C537 1.256 1_556 S
O536 Co512 2.062 . S
O536 C537 1.255 . S
C537 O535 1.256 1_554 S
C537 O536 1.255 . S
H538 C517 0.931 . S
H539 C525 0.931 . S
Co540 N545 2.057 . S
Co540 O557 2.021 . S
Co540 O560 2.062 . S
Co540 O564 2.117 . S
Co540 O565 2.020 . S
C541 O561 1.259 . S
C541 O564 1.258 . S
Co542 N551 2.057 . S
Co542 O558 2.117 . S
Co542 O559 2.020 . S
Co542 O561 2.021 . S
Co542 O566 2.062 . S
C543 N545 1.316 . S
C543 N546 1.347 . S
C543 H548 0.931 . S
C544 N545 1.375 . S
C544 C547 1.350 . S
C544 H549 0.930 . S
N545 Co540 2.057 . S
N545 C543 1.316 . S
N545 C544 1.375 . S
N546 C543 1.347 . S
N546 C547 1.373 . S
C547 C544 1.350 . S
C547 N546 1.373 . S
C547 H568 0.931 . S
H548 C543 0.931 . S
H549 C544 0.930 . S
C550 O557 1.259 . S
C550 O558 1.258 . S
N551 Co542 2.057 . S
N551 C552 1.316 . S
N551 C553 1.375 . S
C552 N551 1.316 . S
C552 N554 1.347 . S
C552 H563 0.931 . S
C553 N551 1.375 . S
C553 C555 1.350 . S
C553 H562 0.930 . S
N554 C552 1.347 . S
N554 C555 1.373 . S
C555 C553 1.350 . S
C555 N554 1.373 . S
C555 H569 0.931 . S
C556 O559 1.256 . S
C556 O560 1.255 . S
O557 Co540 2.021 . S
O557 C550 1.259 . S
O558 Co542 2.117 . S
O558 C550 1.258 . S
O559 Co542 2.020 . S
O559 C556 1.256 . S
O560 Co540 2.062 . S
O560 C556 1.255 . S
O561 C541 1.259 . S
O561 Co542 2.021 . S
H562 C553 0.930 . S
H563 C552 0.931 . S
O564 Co540 2.117 . S
O564 C541 1.258 . S
O565 Co540 2.020 . S
O565 C567 1.256 . S
O566 Co542 2.062 . S
O566 C567 1.255 . S
C567 O565 1.256 . S
C567 O566 1.255 . S
H568 C547 0.931 . S
H569 C555 0.931 . S
Co570 N575 2.057 . S
Co570 O587 2.021 . S
Co570 O590 2.062 . S
Co570 O594 2.117 1_455 S
Co570 O595 2.020 1_455 S
C571 O591 1.259 1_556 S
C571 O594 1.258 . S
Co572 N581 2.057 . S
Co572 O588 2.117 1_655 S
Co572 O589 2.020 1_655 S
Co572 O591 2.021 . S
Co572 O596 2.062 . S
C573 N575 1.316 . S
C573 N576 1.347 . S
C573 H578 0.931 . S
C574 N575 1.375 1_655 S
C574 C577 1.350 1_655 S
C574 H579 0.930 . S
N575 Co570 2.057 . S
N575 C573 1.316 . S
N575 C574 1.375 1_455 S
N576 C573 1.347 . S
N576 C577 1.373 . S
C577 C574 1.350 1_455 S
C577 N576 1.373 . S
C577 H598 0.931 1_455 S
H578 C573 0.931 . S
H579 C574 0.930 . S
C580 O587 1.259 1_554 S
C580 O588 1.258 . S
N581 Co572 2.057 . S
N581 C582 1.316 . S
N581 C583 1.375 1_655 S
C582 N581 1.316 . S
C582 N584 1.347 . S
C582 H593 0.931 . S
C583 N581 1.375 1_455 S
C583 C585 1.350 1_455 S
C583 H592 0.930 . S
N584 C582 1.347 . S
N584 C585 1.373 . S
C585 C583 1.350 1_655 S
C585 N584 1.373 . S
C585 H599 0.931 1_655 S
C586 O589 1.256 . S
C586 O590 1.255 1_554 S
O587 Co570 2.021 . S
O587 C580 1.259 1_556 S
O588 Co572 2.117 1_455 S
O588 C580 1.258 . S
O589 Co572 2.020 1_455 S
O589 C586 1.256 . S
O590 Co570 2.062 . S
O590 C586 1.255 1_556 S
O591 C571 1.259 1_554 S
O591 Co572 2.021 . S
H592 C583 0.930 . S
H593 C582 0.931 . S
O594 Co570 2.117 1_655 S
O594 C571 1.258 . S
O595 Co570 2.020 1_655 S
O595 C597 1.256 . S
O596 Co572 2.062 . S
O596 C597 1.255 1_554 S
C597 O595 1.256 . S
C597 O596 1.255 1_556 S
H598 C577 0.931 1_655 S
H599 C585 0.931 1_455 S
H600 C606 0.930 . S
H601 C609 0.930 . S
H602 C610 0.930 . S
H603 C611 0.930 . S
H604 C614 0.930 . S
H605 C615 0.930 . S
C606 H600 0.930 . S
C606 C607 1.355 . S
C606 C608 1.415 . S
C607 C606 1.355 . S
C607 C609 1.419 . S
C608 C606 1.415 . S
C608 C613 1.425 . S
C608 C615 1.409 1_545 S
C609 H601 0.930 . S
C609 C607 1.419 . S
C609 C610 1.362 . S
C610 H602 0.930 . S
C610 C609 1.362 . S
C610 C613 1.409 . S
C611 H603 0.930 . S
C611 C612 1.355 . S
C611 C613 1.415 . S
C612 C611 1.355 . S
C612 C614 1.419 1_545 S
C613 C608 1.425 . S
C613 C610 1.409 . S
C613 C611 1.415 . S
C614 H604 0.930 . S
C614 C612 1.419 1_565 S
C614 C615 1.362 . S
C615 H605 0.930 . S
C615 C608 1.409 1_565 S
C615 C614 1.362 . S
H616 C622 0.930 . S
H617 C625 0.930 . S
H618 C626 0.930 . S
H619 C627 0.930 . S
H620 C630 0.927 . S
H621 C631 0.930 . S
C622 H616 0.930 . S
C622 C623 1.355 . S
C622 C624 1.415 . S
C623 C622 1.355 . S
C623 C625 1.419 . S
C624 C622 1.415 . S
C624 C629 1.425 . S
C624 C631 1.409 . S
C625 H617 0.930 . S
C625 C623 1.419 . S
C625 C626 1.362 . S
C626 H618 0.930 . S
C626 C625 1.362 . S
C626 C629 1.409 . S
C627 H619 0.930 . S
C627 C628 1.355 . S
C627 C629 1.415 . S
C628 C627 1.355 . S
C628 C630 1.419 . S
C629 C624 1.425 . S
C629 C626 1.409 . S
C629 C627 1.415 . S
C630 H620 0.927 . S
C630 C628 1.419 . S
C630 C631 1.362 . S
C631 H621 0.930 . S
C631 C624 1.409 . S
C631 C630 1.362 . S
H632 C638 0.930 . S
H633 C641 0.930 . S
H634 C642 0.930 . S
H635 C643 0.930 . S
H636 C646 0.930 . S
H637 C647 0.930 . S
C638 H632 0.930 . S
C638 C639 1.355 . S
C638 C640 1.415 . S
C639 C638 1.355 . S
C639 C641 1.419 . S
C640 C638 1.415 . S
C640 C645 1.425 . S
C640 C647 1.409 . S
C641 H633 0.930 . S
C641 C639 1.419 . S
C641 C642 1.362 . S
C642 H634 0.930 . S
C642 C641 1.362 . S
C642 C645 1.409 . S
C643 H635 0.930 . S
C643 C644 1.355 . S
C643 C645 1.415 . S
C644 C643 1.355 . S
C644 C646 1.419 . S
C645 C640 1.425 . S
C645 C642 1.409 . S
C645 C643 1.415 . S
C646 H636 0.930 . S
C646 C644 1.419 . S
C646 C647 1.362 . S
C647 H637 0.930 . S
C647 C640 1.409 . S
C647 C646 1.362 . S
H648 C654 0.930 . S
H649 C657 0.930 . S
H650 C658 0.930 . S
H651 C659 0.930 . S
H652 C662 0.930 . S
H653 C663 0.930 1_455 S
C654 H648 0.930 . S
C654 C655 1.355 . S
C654 C656 1.415 . S
C655 C654 1.355 . S
C655 C657 1.419 . S
C656 C654 1.415 . S
C656 C661 1.425 . S
C656 C663 1.409 . S
C657 H649 0.930 . S
C657 C655 1.419 . S
C657 C658 1.362 . S
C658 H650 0.930 . S
C658 C657 1.362 . S
C658 C661 1.409 . S
C659 H651 0.930 . S
C659 C660 1.355 . S
C659 C661 1.415 . S
C660 C659 1.355 . S
C660 C662 1.419 . S
C661 C656 1.425 . S
C661 C658 1.409 . S
C661 C659 1.415 . S
C662 H652 0.930 . S
C662 C660 1.419 . S
C662 C663 1.362 . S
C663 H653 0.930 1_655 S
C663 C656 1.409 . S
C663 C662 1.362 . S
H664 C670 0.930 . S
H665 C673 0.930 . S
H666 C674 0.930 . S
H667 C675 0.930 . S
H668 C678 0.949 1_556 S
H669 C679 0.930 1_556 S
C670 H664 0.930 . S
C670 C671 1.355 . S
C670 C672 1.415 . S
C671 C670 1.355 . S
C671 C673 1.419 . S
C672 C670 1.415 . S
C672 C677 1.425 . S
C672 C679 1.409 . S
C673 H665 0.930 . S
C673 C671 1.419 . S
C673 C674 1.362 . S
C674 H666 0.930 . S
C674 C673 1.362 . S
C674 C677 1.409 . S
C675 H667 0.930 . S
C675 C676 1.355 . S
C675 C677 1.415 . S
C676 C675 1.355 . S
C676 C678 1.419 . S
C677 C672 1.425 . S
C677 C674 1.409 . S
C677 C675 1.415 . S
C678 H668 0.949 1_554 S
C678 C676 1.419 . S
C678 C679 1.362 . S
C679 H669 0.930 1_554 S
C679 C672 1.409 . S
C679 C678 1.362 . S
H680 C686 0.930 . S
H681 C689 0.930 . S
H682 C690 0.930 . S
H683 C691 0.930 . S
H684 C694 0.930 . S
H685 C695 0.930 . S
C686 H680 0.930 . S
C686 C687 1.355 . S
C686 C688 1.415 . S
C687 C686 1.355 . S
C687 C689 1.419 . S
C688 C686 1.415 . S
C688 C693 1.425 . S
C688 C695 1.409 . S
C689 H681 0.930 . S
C689 C687 1.419 . S
C689 C690 1.362 . S
C690 H682 0.930 . S
C690 C689 1.362 . S
C690 C693 1.409 . S
C691 H683 0.930 . S
C691 C692 1.355 . S
C691 C693 1.415 . S
C692 C691 1.355 . S
C692 C694 1.419 . S
C693 C688 1.425 . S
C693 C690 1.409 . S
C693 C691 1.415 . S
C694 H684 0.930 . S
C694 C692 1.419 . S
C694 C695 1.362 . S
C695 H685 0.930 . S
C695 C688 1.409 . S
C695 C694 1.362 . S
H696 C702 0.930 . S
H697 C705 0.930 . S
H698 C706 0.930 1_554 S
H699 C707 0.930 1_554 S
H700 C710 0.930 . S
H701 C711 0.930 . S
C702 H696 0.930 . S
C702 C703 1.355 . S
C702 C704 1.415 . S
C703 C702 1.355 . S
C703 C705 1.419 . S
C704 C702 1.415 . S
C704 C709 1.425 . S
C704 C711 1.409 . S
C705 H697 0.930 . S
C705 C703 1.419 . S
C705 C706 1.362 . S
C706 H698 0.930 1_556 S
C706 C705 1.362 . S
C706 C709 1.409 . S
C707 H699 0.930 1_556 S
C707 C708 1.355 . S
C707 C709 1.415 . S
C708 C707 1.355 . S
C708 C710 1.419 . S
C709 C704 1.425 . S
C709 C706 1.409 . S
C709 C707 1.415 . S
C710 H700 0.930 . S
C710 C708 1.419 . S
C710 C711 1.362 . S
C711 H701 0.930 . S
C711 C704 1.409 . S
C711 C710 1.362 . S
H712 C718 0.930 . S
H713 C721 0.930 . S
H714 C722 0.930 . S
H715 C723 0.930 . S
H716 C726 0.930 . S
H717 C727 0.930 . S
C718 H712 0.930 . S
C718 C719 1.355 . S
C718 C720 1.415 . S
C719 C718 1.355 . S
C719 C721 1.419 . S
C720 C718 1.415 . S
C720 C725 1.425 . S
C720 C727 1.409 . S
C721 H713 0.930 . S
C721 C719 1.419 . S
C721 C722 1.362 . S
C722 H714 0.930 . S
C722 C721 1.362 . S
C722 C725 1.409 . S
C723 H715 0.930 . S
C723 C724 1.355 . S
C723 C725 1.415 . S
C724 C723 1.355 . S
C724 C726 1.419 . S
C725 C720 1.425 . S
C725 C722 1.409 . S
C725 C723 1.415 . S
C726 H716 0.930 . S
C726 C724 1.419 . S
C726 C727 1.362 . S
C727 H717 0.930 . S
C727 C720 1.409 . S
C727 C726 1.362 . S
H728 C734 0.930 . S
H729 C737 0.930 . S
H730 C738 0.930 1_655 S
H731 C739 0.930 1_655 S
H732 C742 0.930 . S
H733 C743 0.930 . S
C734 H728 0.930 . S
C734 C735 1.355 . S
C734 C736 1.415 . S
C735 C734 1.355 . S
C735 C737 1.419 . S
C736 C734 1.415 . S
C736 C741 1.425 . S
C736 C743 1.409 . S
C737 H729 0.930 . S
C737 C735 1.419 . S
C737 C738 1.362 . S
C738 H730 0.930 1_455 S
C738 C737 1.362 . S
C738 C741 1.409 . S
C739 H731 0.930 1_455 S
C739 C740 1.355 . S
C739 C741 1.415 . S
C740 C739 1.355 . S
C740 C742 1.419 . S
C741 C736 1.425 . S
C741 C738 1.409 . S
C741 C739 1.415 . S
C742 H732 0.930 . S
C742 C740 1.419 . S
C742 C743 1.362 . S
C743 H733 0.930 . S
C743 C736 1.409 . S
C743 C742 1.362 . S
H744 C750 0.930 . S
H745 C753 0.930 . S
H746 C754 0.930 . S
H747 C755 0.930 . S
H748 C758 0.930 . S
H749 C759 0.930 . S
C750 H744 0.930 . S
C750 C751 1.355 . S
C750 C752 1.415 . S
C751 C750 1.355 . S
C751 C753 1.419 . S
C752 C750 1.415 . S
C752 C757 1.425 . S
C752 C759 1.409 . S
C753 H745 0.930 . S
C753 C751 1.419 . S
C753 C754 1.362 . S
C754 H746 0.930 . S
C754 C753 1.362 . S
C754 C757 1.409 . S
C755 H747 0.930 . S
C755 C756 1.355 . S
C755 C757 1.415 . S
C756 C755 1.355 . S
C756 C758 1.419 . S
C757 C752 1.425 . S
C757 C754 1.409 . S
C757 C755 1.415 . S
C758 H748 0.930 . S
C758 C756 1.419 . S
C758 C759 1.362 . S
C759 H749 0.930 . S
C759 C752 1.409 . S
C759 C758 1.362 . S
H760 C766 0.930 . S
H761 C769 0.930 . S
H762 C770 0.930 1_455 S
H763 C771 0.913 1_455 S
H764 C774 0.930 . S
H765 C775 0.930 . S
C766 H760 0.930 . S
C766 C767 1.355 . S
C766 C768 1.415 . S
C767 C766 1.355 . S
C767 C769 1.419 . S
C768 C766 1.415 . S
C768 C773 1.425 . S
C768 C775 1.409 . S
C769 H761 0.930 . S
C769 C767 1.419 . S
C769 C770 1.362 . S
C770 H762 0.930 1_655 S
C770 C769 1.362 . S
C770 C773 1.409 . S
C771 H763 0.913 1_655 S
C771 C772 1.355 . S
C771 C773 1.415 . S
C772 C771 1.355 . S
C772 C774 1.419 . S
C773 C768 1.425 . S
C773 C770 1.409 . S
C773 C771 1.415 . S
C774 H764 0.930 . S
C774 C772 1.419 . S
C774 C775 1.362 . S
C775 H765 0.930 . S
C775 C768 1.409 . S
C775 C774 1.362 . S
H776 C782 0.930 . S
H777 C785 0.930 . S
H778 C786 0.930 . S
H779 C787 0.930 . S
H780 C790 0.930 . S
H781 C791 0.930 . S
C782 H776 0.930 . S
C782 C783 1.355 . S
C782 C784 1.415 . S
C783 C782 1.355 . S
C783 C785 1.419 . S
C784 C782 1.415 . S
C784 C789 1.425 . S
C784 C791 1.409 . S
C785 H777 0.930 . S
C785 C783 1.419 . S
C785 C786 1.362 . S
C786 H778 0.930 . S
C786 C785 1.362 . S
C786 C789 1.409 . S
C787 H779 0.930 . S
C787 C788 1.355 . S
C787 C789 1.415 . S
C788 C787 1.355 . S
C788 C790 1.419 . S
C789 C784 1.425 . S
C789 C786 1.409 . S
C789 C787 1.415 . S
C790 H780 0.930 . S
C790 C788 1.419 . S
C790 C791 1.362 . S
C791 H781 0.930 . S
C791 C784 1.409 . S
C791 C790 1.362 . S
H792 C798 0.930 . S
H793 C801 0.930 . S
H794 C802 0.930 . S
H795 C803 0.930 . S
H796 C806 0.930 . S
H797 C807 0.910 1_455 S
C798 H792 0.930 . S
C798 C799 1.355 . S
C798 C800 1.415 . S
C799 C798 1.355 . S
C799 C801 1.419 . S
C800 C798 1.415 . S
C800 C805 1.425 . S
C800 C807 1.432 . S
C801 H793 0.930 . S
C801 C799 1.419 . S
C801 C802 1.362 . S
C802 H794 0.930 . S
C802 C801 1.362 . S
C802 C805 1.409 . S
C803 H795 0.930 . S
C803 C804 1.355 . S
C803 C805 1.415 . S
C804 C803 1.355 . S
C804 C806 1.419 1_655 S
C805 C800 1.425 . S
C805 C802 1.409 . S
C805 C803 1.415 . S
C806 H796 0.930 . S
C806 C804 1.419 1_455 S
C806 C807 1.360 1_455 S
C807 H797 0.910 1_655 S
C807 C800 1.432 . S
C807 C806 1.360 1_655 S
H808 C814 0.930 . S
H809 C817 0.930 . S
H810 C818 0.930 . S
H811 C819 0.930 . S
H812 C822 0.930 . S
H813 C823 0.930 . S
C814 H808 0.930 . S
C814 C815 1.355 . S
C814 C816 1.415 . S
C815 C814 1.355 . S
C815 C817 1.419 . S
C816 C814 1.415 . S
C816 C821 1.425 . S
C816 C823 1.409 . S
C817 H809 0.930 . S
C817 C815 1.419 . S
C817 C818 1.362 . S
C818 H810 0.930 . S
C818 C817 1.362 . S
C818 C821 1.409 . S
C819 H811 0.930 . S
C819 C820 1.355 . S
C819 C821 1.415 . S
C820 C819 1.355 . S
C820 C822 1.419 . S
C821 C816 1.425 . S
C821 C818 1.409 . S
C821 C819 1.415 . S
C822 H812 0.930 . S
C822 C820 1.419 . S
C822 C823 1.362 . S
C823 H813 0.930 . S
C823 C816 1.409 . S
C823 C822 1.362 . S
H824 C830 0.930 . S
H825 C833 0.930 . S
H826 C834 0.930 . S
H827 C835 0.930 . S
H828 C838 0.930 . S
H829 C839 0.930 . S
C830 H824 0.930 . S
C830 C831 1.355 . S
C830 C832 1.415 . S
C831 C830 1.355 . S
C831 C833 1.419 . S
C832 C830 1.415 . S
C832 C837 1.425 . S
C832 C839 1.409 . S
C833 H825 0.930 . S
C833 C831 1.419 . S
C833 C834 1.362 . S
C834 H826 0.930 . S
C834 C833 1.362 . S
C834 C837 1.409 . S
C835 H827 0.930 . S
C835 C836 1.355 . S
C835 C837 1.415 . S
C836 C835 1.355 . S
C836 C838 1.419 . S
C837 C832 1.425 . S
C837 C834 1.409 . S
C837 C835 1.415 . S
C838 H828 0.930 . S
C838 C836 1.419 . S
C838 C839 1.362 . S
C839 H829 0.930 . S
C839 C832 1.409 . S
C839 C838 1.362 . S
H840 C846 0.930 . S
H841 C849 0.930 1_655 S
H842 C850 0.930 1_655 S
H843 C851 0.930 . S
H844 C854 0.930 . S
H845 C855 0.930 . S
C846 H840 0.930 . S
C846 C847 1.355 . S
C846 C848 1.415 . S
C847 C846 1.355 . S
C847 C849 1.419 . S
C848 C846 1.415 . S
C848 C853 1.425 . S
C848 C855 1.409 . S
C849 H841 0.930 1_455 S
C849 C847 1.419 . S
C849 C850 1.362 . S
C850 H842 0.930 1_455 S
C850 C849 1.362 . S
C850 C853 1.409 . S
C851 H843 0.930 . S
C851 C852 1.355 . S
C851 C853 1.415 . S
C852 C851 1.355 . S
C852 C854 1.419 . S
C853 C848 1.425 . S
C853 C850 1.409 . S
C853 C851 1.415 . S
C854 H844 0.930 . S
C854 C852 1.419 . S
C854 C855 1.362 . S
C855 H845 0.930 . S
C855 C848 1.409 . S
C855 C854 1.362 . S
H856 C862 0.930 . S
H857 C865 0.930 . S
H858 C866 0.930 . S
H859 C867 0.930 . S
H860 C870 0.931 1_545 S
H861 C871 0.928 . S
C862 H856 0.930 . S
C862 C863 1.355 . S
C862 C864 1.415 . S
C863 C862 1.355 . S
C863 C865 1.419 . S
C864 C862 1.415 . S
C864 C869 1.425 . S
C864 C871 1.411 1_565 S
C865 H857 0.930 . S
C865 C863 1.419 . S
C865 C866 1.362 . S
C866 H858 0.930 . S
C866 C865 1.362 . S
C866 C869 1.409 . S
C867 H859 0.930 . S
C867 C868 1.355 . S
C867 C869 1.415 . S
C868 C867 1.355 . S
C868 C870 1.418 . S
C869 C864 1.425 . S
C869 C866 1.409 . S
C869 C867 1.415 . S
C870 H860 0.931 1_565 S
C870 C868 1.418 . S
C870 C871 1.362 1_565 S
C871 H861 0.928 . S
C871 C864 1.411 1_545 S
C871 C870 1.362 1_545 S
H872 C878 0.930 . S
H873 C881 0.930 . S
H874 C882 0.930 . S
H875 C883 0.930 . S
H876 C886 0.930 . S
H877 C887 0.930 . S
C878 H872 0.930 . S
C878 C879 1.355 . S
C878 C880 1.415 . S
C879 C878 1.355 . S
C879 C881 1.419 . S
C880 C878 1.415 . S
C880 C885 1.425 . S
C880 C887 1.409 . S
C881 H873 0.930 . S
C881 C879 1.419 . S
C881 C882 1.362 . S
C882 H874 0.930 . S
C882 C881 1.362 . S
C882 C885 1.409 . S
C883 H875 0.930 . S
C883 C884 1.355 . S
C883 C885 1.415 . S
C884 C883 1.355 . S
C884 C886 1.419 . S
C885 C880 1.425 . S
C885 C882 1.409 . S
C885 C883 1.415 . S
C886 H876 0.930 . S
C886 C884 1.419 . S
C886 C887 1.362 . S
C887 H877 0.930 . S
C887 C880 1.409 . S
C887 C886 1.362 . S
H888 C894 0.930 . S
H889 C897 0.930 . S
H890 C898 0.930 . S
H891 C899 0.930 . S
H892 C902 0.930 1_556 S
H893 C903 0.930 1_556 S
C894 H888 0.930 . S
C894 C895 1.355 . S
C894 C896 1.415 . S
C895 C894 1.355 . S
C895 C897 1.419 . S
C896 C894 1.415 . S
C896 C901 1.425 . S
C896 C903 1.409 . S
C897 H889 0.930 . S
C897 C895 1.419 . S
C897 C898 1.362 . S
C898 H890 0.930 . S
C898 C897 1.362 . S
C898 C901 1.409 . S
C899 H891 0.930 . S
C899 C900 1.355 . S
C899 C901 1.415 . S
C900 C899 1.355 . S
C900 C902 1.419 . S
C901 C896 1.425 . S
C901 C898 1.409 . S
C901 C899 1.415 . S
C902 H892 0.930 1_554 S
C902 C900 1.419 . S
C902 C903 1.362 . S
C903 H893 0.930 1_554 S
C903 C896 1.409 . S
C903 C902 1.362 . S
H904 C910 0.930 . S
H905 C913 0.930 . S
H906 C914 0.930 . S
H907 C915 0.930 . S
H908 C918 0.930 . S
H909 C919 0.930 . S
C910 H904 0.930 . S
C910 C911 1.355 . S
C910 C912 1.415 . S
C911 C910 1.355 . S
C911 C913 1.419 . S
C912 C910 1.415 . S
C912 C917 1.425 . S
C912 C919 1.409 . S
C913 H905 0.930 . S
C913 C911 1.419 . S
C913 C914 1.362 . S
C914 H906 0.930 . S
C914 C913 1.362 . S
C914 C917 1.409 . S
C915 H907 0.930 . S
C915 C916 1.355 . S
C915 C917 1.415 . S
C916 C915 1.355 . S
C916 C918 1.419 . S
C917 C912 1.425 . S
C917 C914 1.409 . S
C917 C915 1.415 . S
C918 H908 0.930 . S
C918 C916 1.419 . S
C918 C919 1.362 . S
C919 H909 0.930 . S
C919 C912 1.409 . S
C919 C918 1.362 . S
H920 C926 0.930 . S
H921 C929 0.930 . S
H922 C930 0.930 . S
H923 C931 0.930 . S
H924 C934 0.930 . S
H925 C935 0.911 1_554 S
C926 H920 0.930 . S
C926 C927 1.355 . S
C926 C928 1.415 . S
C927 C926 1.355 . S
C927 C929 1.419 . S
C928 C926 1.415 . S
C928 C933 1.425 . S
C928 C935 1.428 . S
C929 H921 0.930 . S
C929 C927 1.419 . S
C929 C930 1.362 . S
C930 H922 0.930 . S
C930 C929 1.362 . S
C930 C933 1.409 . S
C931 H923 0.930 . S
C931 C932 1.355 . S
C931 C933 1.415 . S
C932 C931 1.355 . S
C932 C934 1.419 1_556 S
C933 C928 1.425 . S
C933 C930 1.409 . S
C933 C931 1.415 . S
C934 H924 0.930 . S
C934 C932 1.419 1_554 S
C934 C935 1.363 1_554 S
C935 H925 0.911 1_556 S
C935 C928 1.428 . S
C935 C934 1.363 1_556 S
H936 C942 0.930 . S
H937 C945 0.930 . S
H938 C946 0.930 . S
H939 C947 0.930 . S
H940 C950 0.930 1_556 S
H941 C951 0.930 1_556 S
C942 H936 0.930 . S
C942 C943 1.355 . S
C942 C944 1.415 . S
C943 C942 1.355 . S
C943 C945 1.419 . S
C944 C942 1.415 . S
C944 C949 1.425 . S
C944 C951 1.409 . S
C945 H937 0.930 . S
C945 C943 1.419 . S
C945 C946 1.362 . S
C946 H938 0.930 . S
C946 C945 1.362 . S
C946 C949 1.409 . S
C947 H939 0.930 . S
C947 C948 1.355 . S
C947 C949 1.415 . S
C948 C947 1.355 . S
C948 C950 1.419 . S
C949 C944 1.425 . S
C949 C946 1.409 . S
C949 C947 1.415 . S
C950 H940 0.930 1_554 S
C950 C948 1.419 . S
C950 C951 1.362 . S
C951 H941 0.930 1_554 S
C951 C944 1.409 . S
C951 C950 1.362 . S
H952 C958 0.930 1_655 S
H953 C961 0.930 . S
H954 C962 0.930 . S
H955 C963 0.930 . S
H956 C966 0.930 . S
H957 C967 0.930 . S
C958 H952 0.930 1_455 S
C958 C959 1.355 . S
C958 C960 1.415 . S
C959 C958 1.355 . S
C959 C961 1.419 . S
C960 C958 1.415 . S
C960 C965 1.425 . S
C960 C967 1.409 1_455 S
C961 H953 0.930 . S
C961 C959 1.419 . S
C961 C962 1.362 . S
C962 H954 0.930 . S
C962 C961 1.362 . S
C962 C965 1.409 . S
C963 H955 0.930 . S
C963 C964 1.355 . S
C963 C965 1.415 . S
C964 C963 1.355 . S
C964 C966 1.419 1_455 S
C965 C960 1.425 . S
C965 C962 1.409 . S
C965 C963 1.415 . S
C966 H956 0.930 . S
C966 C964 1.419 1_655 S
C966 C967 1.362 . S
C967 H957 0.930 . S
C967 C960 1.409 1_655 S
C967 C966 1.362 . S
H968 C974 0.930 . S
H969 C977 0.930 . S
H970 C978 0.930 . S
H971 C979 0.930 . S
H972 C982 0.930 . S
H973 C983 0.930 . S
C974 H968 0.930 . S
C974 C975 1.355 . S
C974 C976 1.415 . S
C975 C974 1.355 . S
C975 C977 1.419 . S
C976 C974 1.415 . S
C976 C981 1.425 . S
C976 C983 1.409 . S
C977 H969 0.930 . S
C977 C975 1.419 . S
C977 C978 1.362 . S
C978 H970 0.930 . S
C978 C977 1.362 . S
C978 C981 1.409 . S
C979 H971 0.930 . S
C979 C980 1.355 . S
C979 C981 1.415 . S
C980 C979 1.355 . S
C980 C982 1.419 . S
C981 C976 1.425 . S
C981 C978 1.409 . S
C981 C979 1.415 . S
C982 H972 0.930 . S
C982 C980 1.419 . S
C982 C983 1.362 . S
C983 H973 0.930 . S
C983 C976 1.409 . S
C983 C982 1.362 . S
C607 C1 2.106 . S
C612 C496 2.157 . S
C623 C80 1.121 . S
C628 N516 1.144 . S
C644 C550 2.001 . S
C639 C140 1.958 . S
C655 C211 1.291 . S
C660 N584 1.236 . S
C676 C537 2.319 . S
C671 C31 2.297 . S
C692 N494 1.135 . S
C687 C61 1.158 . S
C708 C571 2.021 . S
C703 C151 1.927 . S
C724 N546 1.093 . S
C719 C200 0.974 . S
C735 C20 1.844 . S
C740 C586 1.841 . S
C756 C520 1.728 . S
C751 C121 1.643 . S
C767 C181 1.467 . S
C772 C481 1.531 . S
C783 C91 1.437 . S
C788 C567 1.479 . S
C804 C507 2.166 . S
C799 C260 2.144 . S
C815 C320 1.166 . S
C820 N524 1.104 . S
C831 C361 2.012 . S
C836 C541 2.016 . S
C847 C451 1.345 . S
C852 N576 1.340 . S
C863 C271 2.291 . S
C868 C526 2.318 . S
C884 N486 1.200 . S
C879 C301 1.137 . S
C900 C580 2.013 . S
C895 C380 1.981 . S
C916 N554 1.082 . S
C911 C440 1.084 . S
C927 C241 1.786 . S
C932 C597 1.840 . S
C948 C511 1.731 . S
C943 C391 1.691 . S
C964 C490 1.485 . S
C959 C421 1.368 . S
C975 C331 1.419 . S
C980 C556 1.487 . S
