# Generated by pormake.
# Topology llj, (12,3)-cn, num edge types: 1
# Building blocks:
#     Node 0, Type 0, BuildingBlock: QEWDON_clean_sbu_0, # of connection points: 12
#     Node 1, Type 0, BuildingBlock: QEWDON_clean_sbu_0, # of connection points: 12
#     Node 2, Type 1, BuildingBlock: VETTIZ_charged_linker_0, # of connection points: 3
#     Node 3, Type 1, BuildingBlock: VETTIZ_charged_linker_0, # of connection points: 3
#     Node 4, Type 1, BuildingBlock: VETTIZ_charged_linker_0, # of connection points: 3
#     Node 5, Type 1, BuildingBlock: VETTIZ_charged_linker_0, # of connection points: 3
#     Node 6, Type 1, BuildingBlock: VETTIZ_charged_linker_0, # of connection points: 3
#     Node 7, Type 1, BuildingBlock: VETTIZ_charged_linker_0, # of connection points: 3
#     Node 8, Type 1, BuildingBlock: VETTIZ_charged_linker_0, # of connection points: 3
#     Node 9, Type 1, BuildingBlock: VETTIZ_charged_linker_0, # of connection points: 3
#     Edge 10, Type (0, 1), BuildingBlock: XUDNAN_clean_linker_2, # of connection points: 2
#     Edge 11, Type (0, 1), BuildingBlock: XUDNAN_clean_linker_2, # of connection points: 2
#     Edge 12, Type (0, 1), BuildingBlock: XUDNAN_clean_linker_2, # of connection points: 2
#     Edge 13, Type (0, 1), BuildingBlock: XUDNAN_clean_linker_2, # of connection points: 2
#     Edge 14, Type (0, 1), BuildingBlock: XUDNAN_clean_linker_2, # of connection points: 2
#     Edge 15, Type (0, 1), BuildingBlock: XUDNAN_clean_linker_2, # of connection points: 2
#     Edge 16, Type (0, 1), BuildingBlock: XUDNAN_clean_linker_2, # of connection points: 2
#     Edge 17, Type (0, 1), BuildingBlock: XUDNAN_clean_linker_2, # of connection points: 2
#     Edge 18, Type (0, 1), BuildingBlock: XUDNAN_clean_linker_2, # of connection points: 2
#     Edge 19, Type (0, 1), BuildingBlock: XUDNAN_clean_linker_2, # of connection points: 2
#     Edge 20, Type (0, 1), BuildingBlock: XUDNAN_clean_linker_2, # of connection points: 2
#     Edge 21, Type (0, 1), BuildingBlock: XUDNAN_clean_linker_2, # of connection points: 2
#     Edge 22, Type (0, 1), BuildingBlock: XUDNAN_clean_linker_2, # of connection points: 2
#     Edge 23, Type (0, 1), BuildingBlock: XUDNAN_clean_linker_2, # of connection points: 2
#     Edge 24, Type (0, 1), BuildingBlock: XUDNAN_clean_linker_2, # of connection points: 2
#     Edge 25, Type (0, 1), BuildingBlock: XUDNAN_clean_linker_2, # of connection points: 2
#     Edge 26, Type (0, 1), BuildingBlock: XUDNAN_clean_linker_2, # of connection points: 2
#     Edge 27, Type (0, 1), BuildingBlock: XUDNAN_clean_linker_2, # of connection points: 2
#     Edge 28, Type (0, 1), BuildingBlock: XUDNAN_clean_linker_2, # of connection points: 2
#     Edge 29, Type (0, 1), BuildingBlock: XUDNAN_clean_linker_2, # of connection points: 2
#     Edge 30, Type (0, 1), BuildingBlock: XUDNAN_clean_linker_2, # of connection points: 2
#     Edge 31, Type (0, 1), BuildingBlock: XUDNAN_clean_linker_2, # of connection points: 2
#     Edge 32, Type (0, 1), BuildingBlock: XUDNAN_clean_linker_2, # of connection points: 2
#     Edge 33, Type (0, 1), BuildingBlock: XUDNAN_clean_linker_2, # of connection points: 2
# Relax obj value: 0.012
# Max RMSD: 0.057
# Mean RMSD: 0.053
data_MOF--net-llj--node1-QEWDON_clean_sbu_0--node2-VETTIZ_charged_linker_0--edge1-XUDNAN_clean_linker_2
_symmetry_space_group_name_H-M    P1
_symmetry_Int_Tables_number       1
_symmetry_cell_setting            triclinic
loop_
_symmetry_equiv_pos_as_xyz
'x, y, z'
_cell_length_a     44.990941
_cell_length_b     44.911811
_cell_length_c     31.454988
_cell_angle_alpha  89.976649
_cell_angle_beta   90.046064
_cell_angle_gamma 89.772332
loop_
_atom_site_label
_atom_site_type_symbol
_atom_site_fract_x
_atom_site_fract_y
_atom_site_fract_z
_atom_type_partial_charge
Zn0 Zn 0.95079 0.04648 0.97673 0.0
Zn1 Zn 0.96557 0.04515 0.07468 0.0
O2 O 0.98403 0.03773 0.01823 0.0
H3 H 0.00321 0.02939 0.01107 0.0
C4 C 0.89933 0.99165 0.92922 0.0
O5 O 0.90668 0.00441 0.96525 0.0
Zn6 Zn 0.04871 0.95703 0.07331 0.0
Zn7 Zn 0.04445 0.9645 0.97709 0.0
O8 O 0.0189 0.96603 0.02907 0.0
H9 H 0.00225 0.9793 0.03311 0.0
Zn10 Zn 0.92114 0.9424 0.97793 0.0
O11 O 0.94066 0.96788 0.02238 0.0
Zn12 Zn 0.94309 0.94396 0.07563 0.0
H13 H 0.95112 0.98611 0.01636 0.0
Zn14 Zn 0.08435 0.05477 0.95232 0.0
O15 O 0.07895 0.02629 0.00137 0.0
H16 H 0.0828 0.00513 0.00066 0.0
Zn17 Zn 0.07631 0.05158 0.05329 0.0
C18 C 0.09934 0.0097 0.88912 0.0
O19 O 0.08553 0.99274 0.91673 0.0
O20 O 0.92062 0.07753 -0.00109 0.0
O21 O 0.93281 0.07657 0.06748 0.0
O22 O 0.07766 0.93334 0.98286 0.0
O23 O 0.0787 0.92599 0.05284 0.0
O24 O 0.90504 0.90306 0.00162 0.0
O25 O 0.92202 0.90395 0.06837 0.0
C26 C 0.02428 0.06185 0.10629 0.0
O27 O 0.09779 0.09643 0.97169 0.0
O28 O 0.09174 0.09341 0.04195 0.0
O29 O 0.01996 0.96371 0.92231 0.0
C30 C 0.9172 0.08693 0.03685 0.0
O31 O 0.96421 0.04773 0.91415 0.0
C32 C -0.00097 0.93977 0.12354 0.0
O33 O 0.90244 0.96363 0.92561 0.0
C34 C 0.08795 0.91988 0.01541 0.0
O35 O 0.10152 0.03743 0.89643 0.0
C36 C 0.93167 0.99589 0.12376 0.0
O37 O 0.99686 0.0606 0.11572 0.0
O38 O 0.03314 0.05267 0.07035 0.0
C39 C 0.90789 0.8911 0.03821 0.0
O40 O 0.02676 0.94471 0.12608 0.0
O41 O 0.98675 0.9391 0.08726 0.0
C42 C 0.08974 0.0045 0.10456 0.0
O43 O 0.92486 0.96843 0.1231 0.0
O44 O 0.94867 0.00552 0.09445 0.0
C45 C 0.09918 0.10793 0.0087 0.0
O46 O 0.09966 0.03069 0.09973 0.0
O47 O 0.06839 0.99632 0.08112 0.0
C48 C 0.99724 0.94703 0.92279 0.0
O49 O 0.99129 0.93157 0.9572 0.0
C50 C 0.98375 0.06693 0.90467 0.0
O51 O 0.99289 0.0855 0.93415 0.0
Zn52 Zn 0.45994 0.53278 0.48086 0.0
Zn53 Zn 0.45552 0.54668 0.5803 0.0
O54 O 0.4839 0.53519 0.53449 0.0
H55 H 0.5026 0.5249 0.53793 0.0
C56 C 0.38672 0.48984 0.43911 0.0
O57 O 0.38595 0.499 0.47877 0.0
Zn58 Zn 0.54649 0.4548 0.57556 0.0
Zn59 Zn 0.51678 0.42077 0.50437 0.0
O60 O 0.51727 0.46216 0.52985 0.0
H61 H 0.50006 0.47495 0.53211 0.0
Zn62 Zn 0.41699 0.44231 0.48265 0.0
O63 O 0.43722 0.46758 0.52674 0.0
Zn64 Zn 0.43826 0.44476 0.58113 0.0
H65 H 0.44661 0.48644 0.5211 0.0
Zn66 Zn 0.57053 0.55785 0.47269 0.0
O67 O 0.56239 0.53113 0.52275 0.0
H68 H 0.55581 0.51079 0.52 0.0
Zn69 Zn 0.56181 0.55687 0.57466 0.0
C70 C 0.56558 0.51414 0.40786 0.0
O71 O 0.54393 0.50732 0.43405 0.0
O72 O 0.42273 0.55852 0.48689 0.0
O73 O 0.42126 0.57171 0.55516 0.0
O74 O 0.55784 0.3996 0.50603 0.0
O75 O 0.58015 0.42942 0.55242 0.0
O76 O 0.39941 0.40371 0.50767 0.0
O77 O 0.4174 0.40466 0.5739 0.0
C78 C 0.50563 0.57262 0.62246 0.0
O79 O 0.58987 0.59716 0.49063 0.0
O80 O 0.58226 0.59664 0.56088 0.0
O81 O 0.48966 0.41615 0.45175 0.0
C82 C 0.41106 0.57327 0.51721 0.0
O83 O 0.48427 0.54437 0.42829 0.0
C84 C 0.49824 0.42708 0.6225 0.0
O85 O 0.39833 0.46463 0.431 0.0
C86 C 0.58095 0.40752 0.5266 0.0
O87 O 0.58136 0.53684 0.41594 0.0
C88 C 0.42281 0.49704 0.62632 0.0
O89 O 0.47772 0.56923 0.6267 0.0
O90 O 0.51843 0.56162 0.59015 0.0
C91 C 0.40253 0.39192 0.54438 0.0
O92 O 0.52622 0.43087 0.62128 0.0
O93 O 0.48209 0.4408 0.59558 0.0
C94 C 0.57895 0.50618 0.62323 0.0
O95 O 0.41675 0.46949 0.6257 0.0
O96 O 0.44122 0.5068 0.59932 0.0
C97 C 0.59221 0.6092 0.5272 0.0
O98 O 0.58306 0.53423 0.62226 0.0
O99 O 0.56143 0.49514 0.59564 0.0
C100 C 0.48394 0.43998 0.4315 0.0
O101 O 0.49498 0.46525 0.44511 0.0
C102 C 0.49869 0.56822 0.4345 0.0
O103 O 0.49701 0.58117 0.47189 0.0
C104 C 0.37157 0.34635 0.87799 0.0
C105 C 0.40135 0.35533 0.87503 0.0
C106 C 0.41638 0.36495 0.91177 0.0
C107 C 0.37223 0.35653 0.95377 0.0
C108 C 0.35759 0.34677 0.91777 0.0
C109 C 0.32659 0.33633 0.92743 0.0
H110 H 0.22716 0.29396 0.07506 0.0
C111 C 0.35175 0.35381 0.99007 0.0
C112 C 0.32502 0.34183 0.97509 0.0
H113 H 0.21967 0.28858 0.93797 0.0
H114 H 0.26474 0.31659 0.93036 0.0
H115 H 0.29722 0.28452 0.08621 0.0
H116 H 0.2447 0.36433 0.07178 0.0
H117 H 0.27521 0.37364 0.10388 0.0
H118 H 0.24878 0.34635 0.12236 0.0
H119 H 0.27022 0.29711 0.12434 0.0
H120 H 0.30757 0.31095 0.12516 0.0
C121 C 0.32509 0.30275 0.91634 0.0
C122 C 0.30426 0.35611 0.90252 0.0
C123 C 0.38524 0.3887 0.1351 0.0
C124 C 0.37141 0.39012 0.17505 0.0
C125 C 0.34276 0.37789 0.17985 0.0
C126 C 0.32795 0.36511 0.14501 0.0
C127 C 0.34195 0.36458 0.10504 0.0
C128 C 0.37014 0.37624 0.10077 0.0
C129 C 0.38163 0.37434 0.05612 0.0
C130 C 0.35525 0.36056 0.03377 0.0
C131 C 0.33221 0.3545 0.06252 0.0
C132 C 0.40919 0.35341 0.05597 0.0
C133 C 0.38774 0.40643 0.04022 0.0
C134 C 0.2349 0.2991 0.04334 0.0
C135 C 0.22027 0.28789 0.0071 0.0
C136 C 0.23108 0.29572 0.9665 0.0
C137 C 0.25727 0.31206 0.96206 0.0
C138 C 0.27284 0.32091 -0.00149 0.0
C139 C 0.26091 0.31578 0.03827 0.0
C140 C 0.27946 0.32928 0.07314 0.0
C141 C 0.30556 0.34119 0.04779 0.0
C142 C 0.30171 0.33572 0.00416 0.0
C143 C 0.28912 0.30429 0.10415 0.0
C144 C 0.26121 0.35461 0.09426 0.0
H145 H 0.41458 0.37344 0.97774 0.0
H146 H 0.35966 0.33869 0.85015 0.0
H147 H 0.31338 0.37876 0.89686 0.0
H148 H 0.28339 0.36001 0.9203 0.0
H149 H 0.29892 0.34629 0.87104 0.0
H150 H 0.34529 0.29094 0.92803 0.0
H151 H 0.32381 0.29943 0.88139 0.0
H152 H 0.30624 0.29117 0.93118 0.0
H153 H 0.40752 0.39715 0.13044 0.0
H154 H 0.33159 0.37869 0.21032 0.0
H155 H 0.30617 0.35623 0.15044 0.0
H156 H 0.40832 0.33702 0.08249 0.0
H157 H 0.43012 0.36619 0.05951 0.0
H158 H 0.41054 0.33955 0.02696 0.0
H159 H 0.37018 0.42204 0.05157 0.0
H160 H 0.38738 0.40846 0.00526 0.0
H161 H 0.40943 0.41467 0.05221 0.0
H162 H 0.43926 0.37228 0.90993 0.0
C163 C 0.40196 0.36572 0.95105 0.0
C164 C 0.69576 0.39063 0.87694 0.0
C165 C 0.67749 0.41567 0.8696 0.0
C166 C 0.66677 0.432 0.90466 0.0
C167 C 0.68979 0.3969 0.95311 0.0
C168 C 0.70171 0.38174 0.91887 0.0
C169 C 0.72009 0.35529 0.93269 0.0
H170 H 0.76354 0.2629 0.09177 0.0
C171 C 0.69761 0.38043 0.99218 0.0
C172 C 0.71547 0.35604 0.98057 0.0
H173 H 0.79336 0.2624 0.96093 0.0
H174 H 0.76158 0.30449 0.9456 0.0
H175 H 0.77045 0.33359 0.10281 0.0
H176 H 0.69601 0.27713 0.07464 0.0
H177 H 0.68227 0.30586 0.10698 0.0
H178 H 0.71037 0.28088 0.12757 0.0
H179 H 0.75433 0.3087 0.14096 0.0
H180 H 0.74029 0.34595 0.13368 0.0
C181 C 0.75292 0.3611 0.92041 0.0
C182 C 0.70677 0.32692 0.91246 0.0
C183 C 0.65287 0.41263 0.13326 0.0
C184 C 0.65219 0.3992 0.17353 0.0
C185 C 0.66761 0.37228 0.18024 0.0
C186 C 0.68366 0.35889 0.1472 0.0
C187 C 0.68398 0.37238 0.10686 0.0
C188 C 0.66853 0.39866 0.10034 0.0
C189 C 0.6694 0.40849 0.05466 0.0
C190 C 0.68853 0.38417 0.03508 0.0
C191 C 0.69722 0.36329 0.06588 0.0
C192 C 0.68486 0.43922 0.05269 0.0
C193 C 0.63711 0.40825 0.0372 0.0
C194 C 0.76362 0.27189 0.05984 0.0
C195 C 0.78123 0.25906 0.02767 0.0
C196 C 0.77982 0.27137 0.98635 0.0
C197 C 0.76159 0.29609 0.97754 0.0
C198 C 0.74468 0.30892 0.01037 0.0
C199 C 0.74607 0.29686 0.05073 0.0
C200 C 0.72786 0.31415 0.08231 0.0
C201 C 0.71568 0.33889 0.05443 0.0
C202 C 0.72515 0.3355 0.01215 0.0
C203 C 0.7491 0.32618 0.11707 0.0
C204 C 0.70289 0.29357 0.09917 0.0
H205 H 0.66342 0.43579 0.97151 0.0
H206 H 0.70472 0.37795 0.85059 0.0
H207 H 0.68217 0.32683 0.91607 0.0
H208 H 0.71479 0.30622 0.92751 0.0
H209 H 0.71191 0.32583 0.87796 0.0
H210 H 0.75783 0.38536 0.91941 0.0
H211 H 0.75815 0.35179 0.88856 0.0
H212 H 0.76875 0.35196 0.944 0.0
H213 H 0.64064 0.43303 0.12719 0.0
H214 H 0.66721 0.36164 0.21116 0.0
H215 H 0.69494 0.3384 0.15428 0.0
H216 H 0.70364 0.44024 0.07568 0.0
H217 H 0.6691 0.45745 0.06078 0.0
H218 H 0.69493 0.44387 0.02138 0.0
H219 H 0.62344 0.39105 0.05341 0.0
H220 H 0.63586 0.40227 0.0032 0.0
H221 H 0.62599 0.43009 0.04214 0.0
H222 H 0.65252 0.45122 0.89994 0.0
C223 C 0.67285 0.42279 0.94627 0.0
C224 C 0.62337 0.64745 0.16979 0.0
C225 C 0.59435 0.63613 0.17188 0.0
C226 C 0.57938 0.62924 0.13373 0.0
C227 C 0.62199 0.64564 0.0928 0.0
C228 C 0.63657 0.65217 0.13027 0.0
C229 C 0.66679 0.66522 0.12308 0.0
H230 H 0.77086 0.71649 0.98783 0.0
C231 C 0.64207 0.65348 0.05737 0.0
C232 C 0.66831 0.66491 0.07499 0.0
H233 H 0.76985 0.72003 0.1254 0.0
H234 H 0.72458 0.69219 0.12667 0.0
H235 H 0.74883 0.64891 0.97938 0.0
H236 H 0.7006 0.73194 0.97584 0.0
H237 H 0.68911 0.7095 0.93293 0.0
H238 H 0.72723 0.72097 0.93624 0.0
H239 H 0.74801 0.67168 0.93253 0.0
H240 H 0.71958 0.64433 0.94302 0.0
C241 C 0.69016 0.64402 0.1432 0.0
C242 C 0.66677 0.69737 0.14132 0.0
C243 C 0.60838 0.63914 0.90471 0.0
C244 C 0.62246 0.64329 0.86521 0.0
C245 C 0.65227 0.65309 0.86472 0.0
C246 C 0.6674 0.6594 0.90259 0.0
C247 C 0.65276 0.65574 0.9416 0.0
C248 C 0.62396 0.64518 0.94224 0.0
C249 C 0.61246 0.64114 0.98672 0.0
C250 C 0.63896 0.65144 0.01259 0.0
C251 C 0.66237 0.66039 0.98599 0.0
C252 C 0.60591 0.60762 0.99355 0.0
C253 C 0.58519 0.66187 0.99268 0.0
C254 C 0.76086 0.71128 0.01822 0.0
C255 C 0.77416 0.72059 0.05656 0.0
C256 C 0.76055 0.71282 0.09537 0.0
C257 C 0.73392 0.69693 0.09607 0.0
C258 C 0.72033 0.68888 0.0576 0.0
C259 C 0.73395 0.69564 0.01949 0.0
C260 C 0.71585 0.68551 0.98185 0.0
C261 C 0.68878 0.67242 0.00383 0.0
C262 C 0.69166 0.67451 0.04812 0.0
C263 C 0.73391 0.6615 0.95755 0.0
C264 C 0.70778 0.71327 0.95494 0.0
H265 H 0.58047 0.62849 0.06629 0.0
H266 H 0.63577 0.65253 0.19839 0.0
H267 H 0.64412 0.70741 0.14049 0.0
H268 H 0.68052 0.71288 0.12251 0.0
H269 H 0.6744 0.69765 0.1749 0.0
H270 H 0.68367 0.62034 0.13873 0.0
H271 H 0.69232 0.64803 0.17791 0.0
H272 H 0.71231 0.64584 0.12833 0.0
H273 H 0.58554 0.63178 0.90658 0.0
H274 H 0.66408 0.65573 0.835 0.0
H275 H 0.68991 0.66694 0.90002 0.0
H276 H 0.62197 0.59348 0.97569 0.0
H277 H 0.58322 0.60186 0.98236 0.0
H278 H 0.60842 0.60059 0.02701 0.0
H279 H 0.58876 0.68358 0.97643 0.0
H280 H 0.58098 0.66762 0.02625 0.0
H281 H 0.56482 0.65174 0.97904 0.0
H282 H 0.5569 0.62072 0.13441 0.0
C283 C 0.59306 0.63392 0.0942 0.0
C284 C 0.31922 0.62103 0.1662 0.0
C285 C 0.34068 0.59886 0.17478 0.0
C286 C 0.35887 0.58894 0.14088 0.0
C287 C 0.33404 0.62268 0.09203 0.0
C288 C 0.31683 0.633 0.12526 0.0
C289 C 0.2971 0.65854 0.11233 0.0
H290 H 0.25193 0.75506 0.96043 0.0
C291 C 0.32631 0.64018 0.0537 0.0
C292 C 0.30521 0.66175 0.06579 0.0
H293 H 0.22049 0.74859 0.0902 0.0
H294 H 0.2547 0.7082 0.10321 0.0
H295 H 0.32276 0.74077 0.97667 0.0
H296 H 0.24548 0.69075 0.94315 0.0
H297 H 0.27489 0.66987 0.92192 0.0
H298 H 0.26834 0.70733 0.90315 0.0
H299 H 0.30323 0.74353 0.92698 0.0
H300 H 0.33248 0.71654 0.93473 0.0
C301 C 0.30618 0.68625 0.13861 0.0
C302 C 0.26434 0.6489 0.11824 0.0
C303 C 0.36218 0.60782 0.90711 0.0
C304 C 0.35536 0.61857 0.86623 0.0
C305 C 0.34007 0.64575 0.86184 0.0
C306 C 0.33034 0.66143 0.89761 0.0
C307 C 0.33538 0.64951 0.93826 0.0
C308 C 0.35176 0.62357 0.94278 0.0
C309 C 0.3546 0.61444 0.98883 0.0
C310 C 0.33541 0.63797 0.01049 0.0
C311 C 0.32442 0.65845 0.98058 0.0
C312 C 0.3877 0.61691 0.00199 0.0
C313 C 0.34155 0.58283 0.99399 0.0
C314 C 0.25214 0.74502 0.99172 0.0
C315 C 0.23325 0.75536 0.02424 0.0
C316 C 0.23498 0.74163 0.06459 0.0
C317 C 0.25473 0.71789 0.07202 0.0
C318 C 0.2728 0.70743 0.03871 0.0
C319 C 0.27111 0.72089 -0.00066 0.0
C320 C 0.28981 0.70534 0.96655 0.0
C321 C 0.30401 0.68095 0.99316 0.0
C322 C 0.29419 0.6824 0.03541 0.0
C323 C 0.31328 0.72762 0.94996 0.0
C324 C 0.26878 0.69276 0.93168 0.0
H325 H 0.36994 0.59207 0.07536 0.0
H326 H 0.30445 0.62921 0.19069 0.0
H327 H 0.2615 0.62492 0.11039 0.0
H328 H 0.24888 0.66076 0.09676 0.0
H329 H 0.25698 0.65219 0.15161 0.0
H330 H 0.33067 0.68678 0.14358 0.0
H331 H 0.29549 0.68609 0.17042 0.0
H332 H 0.3009 0.70747 0.12257 0.0
H333 H 0.37387 0.58687 0.91108 0.0
H334 H 0.33481 0.65436 0.83052 0.0
H335 H 0.31841 0.68176 0.8921 0.0
H336 H 0.39964 0.63361 0.98228 0.0
H337 H 0.39945 0.59527 -0.00178 0.0
H338 H 0.3904 0.62483 0.03507 0.0
H339 H 0.31946 0.58141 0.97823 0.0
H340 H 0.33801 0.5765 0.02745 0.0
H341 H 0.35635 0.56587 0.97929 0.0
H342 H 0.37621 0.57259 0.14609 0.0
C343 C 0.3555 0.60055 0.09967 0.0
C344 C 0.86719 0.86986 0.38193 0.0
C345 C 0.89456 0.885 0.37982 0.0
C346 C 0.91337 0.88502 0.41562 0.0
C347 C 0.87585 0.86012 0.45683 0.0
C348 C 0.85831 0.85742 0.42099 0.0
C349 C 0.82975 0.84116 0.4307 0.0
H350 H 0.73913 0.78154 0.58112 0.0
C351 C 0.85909 0.84904 0.49356 0.0
C352 C 0.83211 0.83751 0.47882 0.0
H353 H 0.72901 0.77725 0.44444 0.0
H354 H 0.77374 0.80624 0.43553 0.0
H355 H 0.81045 0.77122 0.58617 0.0
H356 H 0.75535 0.84975 0.58315 0.0
H357 H 0.78735 0.85945 0.61188 0.0
H358 H 0.76313 0.83071 0.632 0.0
H359 H 0.78415 0.78132 0.62674 0.0
H360 H 0.82116 0.79603 0.62711 0.0
C361 C 0.83054 0.8108 0.40737 0.0
C362 C 0.80323 0.86128 0.41798 0.0
C363 C 0.89669 0.87593 0.63946 0.0
C364 C 0.88297 0.87741 0.67942 0.0
C365 C 0.85516 0.86355 0.68508 0.0
C366 C 0.84061 0.84999 0.65057 0.0
C367 C 0.85391 0.85065 0.61007 0.0
C368 C 0.88157 0.86339 0.60532 0.0
C369 C 0.8913 0.8651 0.55987 0.0
C370 C 0.86456 0.85185 0.5377 0.0
C371 C 0.8431 0.84268 0.56713 0.0
C372 C 0.91913 0.84496 0.55471 0.0
C373 C 0.89626 0.89847 0.54827 0.0
C374 C 0.7462 0.78713 0.54922 0.0
C375 C 0.73049 0.77683 0.51349 0.0
C376 C 0.7409 0.78442 0.47255 0.0
C377 C 0.76686 0.80125 0.46738 0.0
C378 C 0.78259 0.81072 0.50348 0.0
C379 C 0.772 0.8039 0.54355 0.0
C380 C 0.79139 0.81605 0.57836 0.0
C381 C 0.81643 0.82942 0.55256 0.0
C382 C 0.81102 0.82664 0.50866 0.0
C383 C 0.80238 0.78989 0.60637 0.0
C384 C 0.77351 0.84012 0.60294 0.0
H385 H 0.91924 0.87427 0.48021 0.0
H386 H 0.85267 0.86877 0.35451 0.0
H387 H 0.80664 0.88434 0.42985 0.0
H388 H 0.78195 0.85376 0.4316 0.0
H389 H 0.80081 0.86234 0.38286 0.0
H390 H 0.85374 0.8026 0.40335 0.0
H391 H 0.82046 0.81253 0.37521 0.0
H392 H 0.81926 0.793 0.42543 0.0
H393 H 0.91834 0.88572 0.63409 0.0
H394 H 0.84414 0.86423 0.71566 0.0
H395 H 0.81925 0.84027 0.65642 0.0
H396 H 0.91713 0.82444 0.57435 0.0
H397 H 0.93958 0.85672 0.56503 0.0
H398 H 0.92214 0.83685 0.5218 0.0
H399 H 0.88522 0.9138 0.57118 0.0
H400 H 0.88641 0.90466 0.51727 0.0
H401 H 0.92025 0.90417 0.54803 0.0
H402 H 0.93509 0.89532 0.41427 0.0
C403 C 0.9042 0.87266 0.45394 0.0
C404 C 0.15588 0.85278 0.35379 0.0
C405 C 0.14092 0.88006 0.34852 0.0
C406 C 0.13047 0.89536 0.38464 0.0
C407 C 0.15273 0.85807 0.43044 0.0
C408 C 0.16132 0.84209 0.39498 0.0
C409 C 0.1772 0.81365 0.40658 0.0
H410 H 0.25944 0.73855 0.54907 0.0
C411 C 0.16436 0.84254 0.46838 0.0
C412 C 0.17833 0.81627 0.45487 0.0
H413 H 0.23579 0.71269 0.42079 0.0
H414 H 0.20139 0.75345 0.41645 0.0
H415 H 0.25836 0.81093 0.53931 0.0
H416 H 0.18913 0.74924 0.57401 0.0
H417 H 0.18328 0.78225 0.60278 0.0
H418 H 0.21681 0.7608 0.61156 0.0
H419 H 0.25961 0.78804 0.5862 0.0
H420 H 0.24008 0.82293 0.58612 0.0
C421 C 0.20856 0.81447 0.3864 0.0
C422 C 0.15796 0.78696 0.39175 0.0
C423 C 0.15965 0.89513 0.61034 0.0
C424 C 0.17061 0.88847 0.65098 0.0
C425 C 0.18569 0.8613 0.65768 0.0
C426 C 0.19058 0.84148 0.62371 0.0
C427 C 0.18002 0.8489 0.58288 0.0
C428 C 0.16443 0.87516 0.57709 0.0
C429 C 0.15433 0.87951 0.5321 0.0
C430 C 0.16606 0.85133 0.51161 0.0
C431 C 0.18152 0.83361 0.54122 0.0
C432 C 0.16984 0.90782 0.51474 0.0
C433 C 0.11987 0.88084 0.53155 0.0
C434 C 0.24676 0.74153 0.52012 0.0
C435 C 0.25176 0.72319 0.48437 0.0
C436 C 0.23381 0.72736 0.44797 0.0
C437 C 0.21367 0.75099 0.4454 0.0
C438 C 0.211 0.77065 0.47965 0.0
C439 C 0.22592 0.76489 0.51716 0.0
C440 C 0.21704 0.78649 0.55169 0.0
C441 C 0.19591 0.80705 0.52755 0.0
C442 C 0.19329 0.79799 0.48498 0.0
C443 C 0.24518 0.803 0.56698 0.0
C444 C 0.20088 0.76896 0.58716 0.0
H445 H 0.12835 0.89756 0.45173 0.0
H446 H 0.16351 0.84028 0.32642 0.0
H447 H 0.13476 0.79377 0.38405 0.0
H448 H 0.15567 0.76985 0.41697 0.0
H449 H 0.16735 0.77636 0.3628 0.0
H450 H 0.21992 0.83569 0.39445 0.0
H451 H 0.20715 0.81285 0.35122 0.0
H452 H 0.22321 0.79636 0.39747 0.0
H453 H 0.14748 0.91561 0.60449 0.0
H454 H 0.19422 0.85574 0.68892 0.0
H455 H 0.20267 0.82137 0.63035 0.0
H456 H 0.19315 0.90916 0.52642 0.0
H457 H 0.15807 0.92831 0.52533 0.0
H458 H 0.17174 0.90828 0.47984 0.0
H459 H 0.11022 0.86757 0.55802 0.0
H460 H 0.11026 0.87096 0.50242 0.0
H461 H 0.11167 0.90407 0.53498 0.0
H462 H 0.11887 0.91642 0.3813 0.0
C463 C 0.13624 0.88448 0.42552 0.0
C464 C 0.12535 0.11301 0.6479 0.0
C465 C 0.09909 0.09626 0.64306 0.0
C466 C 0.08832 0.09087 0.60162 0.0
C467 C 0.12966 0.11774 0.57126 0.0
C468 C 0.14005 0.12371 0.61167 0.0
C469 C 0.16729 0.14315 0.61086 0.0
H470 H 0.2692 0.21885 0.49487 0.0
C471 C 0.1498 0.13192 0.54043 0.0
C472 C 0.17189 0.14701 0.56327 0.0
H473 H 0.25953 0.21689 0.63173 0.0
H474 H 0.21875 0.18251 0.6251 0.0
H475 H 0.25719 0.14869 0.47844 0.0
H476 H 0.20023 0.22602 0.47598 0.0
H477 H 0.19079 0.20367 0.43224 0.0
H478 H 0.22767 0.21897 0.4358 0.0
H479 H 0.25875 0.17578 0.43654 0.0
H480 H 0.23316 0.14497 0.43472 0.0
C481 C 0.19324 0.12578 0.63174 0.0
C482 C 0.15956 0.173 0.63307 0.0
C483 C 0.13014 0.11906 0.38287 0.0
C484 C 0.14466 0.12914 0.34609 0.0
C485 C 0.17083 0.14609 0.35046 0.0
C486 C 0.18213 0.15306 0.39084 0.0
C487 C 0.16705 0.14311 0.42731 0.0
C488 C 0.14167 0.1262 0.42282 0.0
C489 C 0.12846 0.11747 0.46478 0.0
C490 C 0.15006 0.13196 0.49536 0.0
C491 C 0.17253 0.14707 0.47335 0.0
C492 C 0.12935 0.08302 0.46788 0.0
C493 C 0.09688 0.13139 0.46785 0.0
C494 C 0.25825 0.21124 0.5235 0.0
C495 C 0.26771 0.22084 0.56389 0.0
C496 C 0.25306 0.2097 0.60022 0.0
C497 C 0.22912 0.18995 0.59631 0.0
C498 C 0.21945 0.18134 0.55565 0.0
C499 C 0.23409 0.19187 0.52013 0.0
C500 C 0.22027 0.18117 0.4794 0.0
C501 C 0.19471 0.16274 0.49628 0.0
C502 C 0.19439 0.16276 0.54099 0.0
C503 C 0.24345 0.16178 0.45563 0.0
C504 C 0.20926 0.20873 0.45414 0.0
H505 H 0.09399 0.09633 0.53549 0.0
H506 H 0.13436 0.11774 0.67907 0.0
H507 H 0.1357 0.17886 0.62862 0.0
H508 H 0.17177 0.1921 0.61963 0.0
H509 H 0.16384 0.17175 0.66781 0.0
H510 H 0.19333 0.10219 0.62095 0.0
H511 H 0.19115 0.12581 0.66692 0.0
H512 H 0.21526 0.13462 0.62309 0.0
H513 H 0.10971 0.10646 0.38079 0.0
H514 H 0.1826 0.1539 0.32261 0.0
H515 H 0.20205 0.16609 0.39209 0.0
H516 H 0.15005 0.074 0.45332 0.0
H517 H 0.11022 0.07294 0.4509 0.0
H518 H 0.12971 0.07475 0.50092 0.0
H519 H 0.09534 0.15248 0.44937 0.0
H520 H 0.09085 0.13788 0.50065 0.0
H521 H 0.07975 0.11602 0.45518 0.0
H522 H 0.06771 0.07903 0.59656 0.0
C523 C 0.10349 0.10128 0.56592 0.0
C524 C 0.80906 0.10604 0.65796 0.0
C525 C 0.82689 0.08053 0.66289 0.0
C526 C 0.83476 0.06389 0.62656 0.0
C527 C 0.80929 0.09964 0.58138 0.0
C528 C 0.80066 0.11518 0.61722 0.0
C529 C 0.7832 0.14277 0.60677 0.0
H530 H 0.72799 0.23813 0.46025 0.0
C531 C 0.79842 0.11632 0.54383 0.0
C532 C 0.78301 0.14151 0.55863 0.0
H533 H 0.7247 0.24499 0.59718 0.0
H534 H 0.74974 0.19774 0.60401 0.0
H535 H 0.7936 0.21792 0.4563 0.0
H536 H 0.71382 0.16554 0.4545 0.0
H537 H 0.73801 0.15129 0.41543 0.0
H538 H 0.72497 0.18921 0.4114 0.0
H539 H 0.77174 0.21381 0.40898 0.0
H540 H 0.80087 0.18774 0.42259 0.0
C541 C 0.80067 0.17005 0.62376 0.0
C542 C 0.75156 0.13924 0.62552 0.0
C543 C 0.82889 0.08413 0.39519 0.0
C544 C 0.8252 0.09753 0.35517 0.0
C545 C 0.80671 0.12275 0.35128 0.0
C546 C 0.79293 0.1352 0.38702 0.0
C547 C 0.79809 0.12258 0.42724 0.0
C548 C 0.81538 0.09716 0.4308 0.0
C549 C 0.81942 0.08767 0.47634 0.0
C550 C 0.8021 0.11182 0.49945 0.0
C551 C 0.78968 0.13221 0.47048 0.0
C552 C 0.85307 0.08864 0.4869 0.0
C553 C 0.80502 0.05667 0.48197 0.0
C554 C 0.73247 0.22917 0.49159 0.0
C555 C 0.72454 0.24518 0.52827 0.0
C556 C 0.73096 0.2331 0.56856 0.0
C557 C 0.74541 0.20562 0.57242 0.0
C558 C 0.75393 0.19013 0.53559 0.0
C559 C 0.74737 0.20184 0.49601 0.0
C560 C 0.75939 0.18276 0.46056 0.0
C561 C 0.77386 0.15756 0.48548 0.0
C562 C 0.77054 0.16207 0.52933 0.0
C563 C 0.78246 0.20136 0.43542 0.0
C564 C 0.73282 0.17165 0.43367 0.0
H565 H 0.83314 0.06002 0.55934 0.0
H566 H 0.80216 0.11903 0.68526 0.0
H567 H 0.74394 0.11576 0.62302 0.0
H568 H 0.7346 0.15235 0.60823 0.0
H569 H 0.75107 0.1455 0.65967 0.0
H570 H 0.82507 0.16585 0.62317 0.0
H571 H 0.79443 0.17525 0.6571 0.0
H572 H 0.79764 0.1902 0.60405 0.0
H573 H 0.84332 0.06495 0.39905 0.0
H574 H 0.80347 0.13325 0.32059 0.0
H575 H 0.77951 0.15468 0.3821 0.0
H576 H 0.86387 0.10787 0.47092 0.0
H577 H 0.86451 0.06806 0.47599 0.0
H578 H 0.85767 0.09184 0.52102 0.0
H579 H 0.78449 0.05478 0.46243 0.0
H580 H 0.79774 0.05243 0.51493 0.0
H581 H 0.82046 0.03865 0.47188 0.0
H582 H 0.84856 0.04417 0.6295 0.0
C583 C 0.82599 0.07327 0.58583 0.0
H584 H 0.13793 0.13605 0.95588 0.0
H585 H 0.0876 0.14816 0.07205 0.0
H586 H 0.10971 0.19805 0.0813 0.0
H587 H 0.20365 0.16773 0.99415 0.0
H588 H 0.21386 0.18464 0.9443 0.0
H589 H 0.19143 0.1516 0.94469 0.0
H590 H 0.15109 0.17883 0.90015 0.0
H591 H 0.17343 0.21205 0.89978 0.0
H592 H 0.13576 0.21349 0.91917 0.0
H593 H 0.13931 0.24585 0.07901 0.0
H594 H 0.17618 0.28577 0.06831 0.0
H595 H 0.20908 0.23976 0.95621 0.0
C596 C 0.13112 0.14943 0.98283 0.0
C597 C 0.11094 0.13838 0.01322 0.0
C598 C 0.10311 0.15622 0.04858 0.0
C599 C 0.11539 0.18465 0.05387 0.0
C600 C 0.13555 0.19475 0.02355 0.0
C601 C 0.14346 0.17757 0.98886 0.0
C602 C 0.16748 0.1923 0.96283 0.0
C603 C 0.19577 0.17291 0.96145 0.0
C604 C 0.15626 0.1996 0.91782 0.0
C605 C 0.17218 0.22027 0.98861 0.0
C606 C 0.15327 0.2216 0.02311 0.0
C607 C 0.15421 0.24507 0.05204 0.0
C608 C 0.1754 0.26753 0.04586 0.0
C609 C 0.19564 0.26608 0.01136 0.0
C610 C 0.19359 0.24217 0.9823 0.0
H611 H 0.87655 0.11161 0.98156 0.0
H612 H 0.90996 0.11828 0.11085 0.0
H613 H 0.87775 0.16198 0.12298 0.0
H614 H 0.87283 0.18848 0.96 0.0
H615 H 0.83876 0.18683 0.92992 0.0
H616 H 0.8631 0.15494 0.93182 0.0
H617 H 0.81998 0.12228 0.9597 0.0
H618 H 0.79538 0.15401 0.95753 0.0
H619 H 0.79989 0.13369 0.00656 0.0
H620 H 0.84554 0.20742 0.11908 0.0
H621 H 0.81245 0.24933 0.10162 0.0
H622 H 0.79715 0.21148 0.97633 0.0
C623 C 0.87689 0.12204 0.01259 0.0
C624 C 0.89594 0.11154 0.04519 0.0
C625 C 0.89561 0.12585 0.08534 0.0
C626 C 0.87741 0.15075 0.09255 0.0
C627 C 0.8594 0.16087 0.05948 0.0
C628 C 0.85866 0.14676 0.02049 0.0
C629 C 0.83752 0.16239 0.99019 0.0
C630 C 0.85405 0.17384 0.95065 0.0
C631 C 0.81166 0.14187 0.97778 0.0
C632 C 0.82699 0.18788 0.01798 0.0
C633 C 0.83993 0.18656 0.05777 0.0
C634 C 0.83477 0.20836 0.08832 0.0
C635 C 0.8157 0.23204 0.0781 0.0
C636 C 0.8016 0.23369 0.03775 0.0
C637 C 0.8075 0.21114 0.0074 0.0
H638 H 0.8642 0.86515 0.99102 0.0
H639 H 0.9189 0.85159 0.1032 0.0
H640 H 0.89371 0.80357 0.11632 0.0
H641 H 0.79811 0.83844 0.0361 0.0
H642 H 0.78481 0.82156 0.98775 0.0
H643 H 0.80921 0.85313 0.98521 0.0
H644 H 0.84583 0.82287 0.93832 0.0
H645 H 0.82157 0.79108 0.94094 0.0
H646 H 0.85984 0.7876 0.95722 0.0
H647 H 0.8612 0.75779 0.1181 0.0
H648 H 0.82139 0.72036 0.11238 0.0
H649 H 0.78651 0.76617 0.0013 0.0
C650 C 0.87126 0.85191 0.01801 0.0
C651 C 0.89369 0.86197 0.0459 0.0
C652 C 0.9018 0.84426 0.08137 0.0
C653 C 0.88775 0.8169 0.08892 0.0
C654 C 0.86562 0.80771 0.06079 0.0
C655 C 0.85729 0.82484 0.02624 0.0
C656 C 0.83134 0.81127 0.0027 0.0
C657 C 0.80428 0.83235 0.00299 0.0
C658 C 0.84019 0.80269 0.95709 0.0
C659 C 0.82602 0.78397 0.02972 0.0
C660 C 0.84629 0.78203 0.06266 0.0
C661 C 0.84521 0.75911 0.09244 0.0
C662 C 0.82238 0.73806 0.08905 0.0
C663 C 0.80063 0.74033 0.0565 0.0
C664 C 0.80299 0.76336 0.02609 0.0
H665 H 0.12573 0.89421 0.07432 0.0
H666 H 0.09964 0.89082 0.94133 0.0
H667 H 0.13403 0.84895 0.92973 0.0
H668 H 0.20406 0.87743 0.05524 0.0
H669 H 0.20802 0.85541 0.10285 0.0
H670 H 0.18136 0.88543 0.10108 0.0
H671 H 0.1396 0.84888 0.1223 0.0
H672 H 0.16602 0.81867 0.12387 0.0
H673 H 0.13344 0.81597 0.09073 0.0
H674 H 0.16769 0.80542 0.93328 0.0
H675 H 0.2031 0.76543 0.94962 0.0
H676 H 0.2118 0.79916 0.07867 0.0
C677 C 0.12733 0.88467 0.04278 0.0
C678 C 0.10983 0.89568 0.00881 0.0
C679 C 0.11279 0.88281 0.96788 0.0
C680 C 0.1322 0.85893 0.96094 0.0
C681 C 0.14884 0.84839 0.99509 0.0
C682 C 0.14703 0.86102 0.03505 0.0
C683 C 0.16798 0.84558 0.06588 0.0
C684 C 0.19177 0.86726 0.08221 0.0
C685 C 0.15072 0.83144 0.10287 0.0
C686 C 0.18139 0.82202 0.03703 0.0
C687 C 0.16979 0.82401 0.99649 0.0
C688 C 0.1775 0.80399 0.96464 0.0
C689 C 0.19794 0.78145 0.97425 0.0
C690 C 0.21104 0.77931 0.01523 0.0
C691 C 0.20238 0.79996 0.04703 0.0
H692 H 0.63434 0.63103 0.47335 0.0
H693 H 0.58577 0.65203 0.58854 0.0
H694 H 0.61329 0.69943 0.59472 0.0
H695 H 0.70368 0.65759 0.50923 0.0
H696 H 0.71499 0.67172 0.45812 0.0
H697 H 0.68966 0.6409 0.46115 0.0
H698 H 0.65162 0.67002 0.41501 0.0
H699 H 0.67684 0.70103 0.41199 0.0
H700 H 0.63958 0.70654 0.4316 0.0
H701 H 0.64714 0.7439 0.58886 0.0
H702 H 0.68699 0.78016 0.57481 0.0
H703 H 0.71508 0.72817 0.46548 0.0
C704 C 0.62918 0.64579 0.49957 0.0
C705 C 0.60784 0.63797 0.5305 0.0
C706 C 0.60215 0.65758 0.56475 0.0
C707 C 0.6175 0.68461 0.56828 0.0
C708 C 0.63856 0.69155 0.53735 0.0
C709 C 0.64454 0.67259 0.50382 0.0
C710 C 0.66962 0.68417 0.47647 0.0
C711 C 0.69605 0.6623 0.47626 0.0
C712 C 0.65875 0.69084 0.43108 0.0
C713 C 0.67707 0.71251 0.50008 0.0
C714 C 0.65866 0.71659 0.53475 0.0
C715 C 0.66172 0.7409 0.56184 0.0
C716 C 0.68457 0.76127 0.55373 0.0
C717 C 0.70436 0.75701 0.51914 0.0
C718 C 0.70012 0.73245 0.49174 0.0
H719 H 0.36853 0.59978 0.56943 0.0
H720 H 0.4007 0.59641 0.43919 0.0
H721 H 0.36383 0.63382 0.41829 0.0
H722 H 0.29013 0.60845 0.54086 0.0
H723 H 0.2819 0.63363 0.58393 0.0
H724 H 0.31095 0.60619 0.58976 0.0
H725 H 0.34836 0.64785 0.60842 0.0
H726 H 0.31948 0.67545 0.60244 0.0
H727 H 0.35331 0.67852 0.57214 0.0
H728 H 0.32666 0.67296 0.41111 0.0
H729 H 0.28689 0.71 0.41631 0.0
H730 H 0.27425 0.68727 0.54953 0.0
C731 C 0.36766 0.60691 0.53656 0.0
C732 C 0.38751 0.59501 0.50598 0.0
C733 C 0.38566 0.60489 0.46323 0.0
C734 C 0.36485 0.62631 0.45095 0.0
C735 C 0.34574 0.63761 0.48162 0.0
C736 C 0.34655 0.6282 0.52342 0.0
C737 C 0.32278 0.64408 0.54938 0.0
C738 C 0.30009 0.62175 0.56702 0.0
C739 C 0.33683 0.66257 0.58522 0.0
C740 C 0.30892 0.66398 0.51554 0.0
C741 C 0.32283 0.65983 0.47689 0.0
C742 C 0.31511 0.67605 0.44095 0.0
C743 C 0.29218 0.69691 0.44423 0.0
C744 C 0.27662 0.70114 0.48301 0.0
C745 C 0.28545 0.68456 0.51934 0.0
H746 H 0.35751 0.36646 0.49893 0.0
H747 H 0.41267 0.35336 0.61072 0.0
H748 H 0.38511 0.30722 0.62742 0.0
H749 H 0.29001 0.34297 0.54598 0.0
H750 H 0.27631 0.32526 0.49848 0.0
H751 H 0.30146 0.35619 0.49442 0.0
H752 H 0.33745 0.3241 0.44907 0.0
H753 H 0.31238 0.29305 0.45294 0.0
H754 H 0.35052 0.28891 0.46955 0.0
H755 H 0.35057 0.26259 0.63197 0.0
H756 H 0.31166 0.22421 0.62496 0.0
H757 H 0.27829 0.26875 0.5119 0.0
C758 C 0.3641 0.35375 0.52667 0.0
C759 C 0.38728 0.36349 0.55351 0.0
C760 C 0.39488 0.34637 0.58981 0.0
C761 C 0.37943 0.32009 0.59945 0.0
C762 C 0.35645 0.31132 0.57249 0.0
C763 C 0.34882 0.32771 0.53689 0.0
C764 C 0.32258 0.31426 0.51389 0.0
C765 C 0.29602 0.33596 0.51318 0.0
C766 C 0.33127 0.3045 0.46869 0.0
C767 C 0.31652 0.28773 0.54211 0.0
C768 C 0.33635 0.28623 0.57561 0.0
C769 C 0.3349 0.26361 0.60589 0.0
C770 C 0.31257 0.24201 0.6018 0.0
C771 C 0.29183 0.2433 0.56783 0.0
C772 C 0.29403 0.26662 0.53779 0.0
H773 H 0.58957 0.35503 0.48324 0.0
H774 H 0.63464 0.41912 0.56389 0.0
H775 H 0.67876 0.38657 0.56599 0.0
H776 H 0.61369 0.29224 0.53616 0.0
H777 H 0.61844 0.2692 0.48973 0.0
H778 H 0.592 0.29932 0.48896 0.0
H779 H 0.61769 0.32158 0.42252 0.0
H780 H 0.64418 0.29135 0.4229 0.0
H781 H 0.65696 0.32933 0.42401 0.0
H782 H 0.71503 0.34472 0.56757 0.0
H783 H 0.74176 0.29655 0.56665 0.0
H784 H 0.674 0.25963 0.48425 0.0
C785 C 0.60899 0.36261 0.50044 0.0
C786 C 0.60863 0.38973 0.52326 0.0
C787 C 0.63436 0.39854 0.54599 0.0
C788 C 0.6596 0.38021 0.5473 0.0
C789 C 0.65891 0.35328 0.52545 0.0
C790 C 0.63441 0.34457 0.50209 0.0
C791 C 0.63852 0.31344 0.48439 0.0
C792 C 0.61423 0.29231 0.50081 0.0
C793 C 0.63939 0.31397 0.43555 0.0
C794 C 0.66867 0.30561 0.50279 0.0
C795 C 0.68016 0.32904 0.526 0.0
C796 C 0.70657 0.3264 0.54885 0.0
C797 C 0.72149 0.29898 0.54834 0.0
C798 C 0.70997 0.27463 0.52513 0.0
C799 C 0.68352 0.27817 0.50149 0.0
H800 H 0.04703 0.03804 0.17939 0.0
H801 H 0.04773 0.1166 0.09964 0.0
H802 H 0.08213 0.14141 0.14998 0.0
H803 H 0.04665 0.07471 0.27805 0.0
H804 H 0.07109 0.04873 0.30449 0.0
H805 H 0.0485 0.03648 0.2607 0.0
H806 H 0.09546 0.01772 0.22196 0.0
H807 H 0.1185 0.02995 0.26528 0.0
H808 H 0.12581 0.04271 0.21192 0.0
H809 H 0.114 0.1584 0.21031 0.0
H810 H 0.13984 0.16729 0.27838 0.0
H811 H 0.11942 0.0771 0.31826 0.0
C812 C 0.05479 0.06034 0.17254 0.0
C813 C 0.0453 0.07557 0.13579 0.0
C814 C 0.05541 0.1047 0.12754 0.0
C815 C 0.07486 0.11884 0.15579 0.0
C816 C 0.08408 0.10329 0.1918 0.0
C817 C 0.07449 0.07465 0.20023 0.0
C818 C 0.08689 0.06341 0.24205 0.0
C819 C 0.06178 0.05538 0.27316 0.0
C820 C 0.10796 0.03689 0.23487 0.0
C821 C 0.10386 0.09061 0.25655 0.0
C822 C 0.10238 0.11319 0.22681 0.0
C823 C 0.11562 0.14077 0.23368 0.0
C824 C 0.1304 0.14556 0.27232 0.0
C825 C 0.13169 0.12291 0.30364 0.0
C826 C 0.11862 0.09495 0.29513 0.0
H827 H 0.89176 0.98153 0.18672 0.0
H828 H 0.94429 0.05476 0.13837 0.0
H829 H 0.92178 0.08836 0.19045 0.0
H830 H 0.82557 0.02336 0.2098 0.0
H831 H 0.81763 0.00381 0.25852 0.0
H832 H 0.83747 0.98525 0.21639 0.0
H833 H 0.88015 0.97301 0.2682 0.0
H834 H 0.86095 0.99168 0.31079 0.0
H835 H 0.8982 0.00266 0.29694 0.0
H836 H 0.89237 0.11461 0.24554 0.0
H837 H 0.86098 0.13116 0.30546 0.0
H838 H 0.8295 0.04078 0.32264 0.0
C839 C 0.89849 0.00466 0.18697 0.0
C840 C 0.91923 0.01572 0.15705 0.0
C841 C 0.92782 0.04592 0.15939 0.0
C842 C 0.91525 0.0652 0.18933 0.0
C843 C 0.89445 0.05379 0.21753 0.0
C844 C 0.88639 0.02416 0.21717 0.0
C845 C 0.86402 0.01759 0.25196 0.0
C846 C 0.83442 0.00688 0.23302 0.0
C847 C 0.87661 0.9949 0.28389 0.0
C848 C 0.86083 0.04822 0.27177 0.0
C849 C 0.87838 0.06878 0.25099 0.0
C850 C 0.87865 0.09873 0.26232 0.0
C851 C 0.86066 0.10794 0.29613 0.0
C852 C 0.8429 0.08723 0.31843 0.0
C853 C 0.84305 0.05697 0.30615 0.0
H854 H 0.95633 0.89961 0.1447 0.0
H855 H 0.00184 0.97858 0.18918 0.0
H856 H 0.97254 0.97741 0.25558 0.0
H857 H 0.88275 0.91556 0.19698 0.0
H858 H 0.87723 0.87682 0.20971 0.0
H859 H 0.89766 0.88707 0.16266 0.0
H860 H 0.94226 0.85503 0.18835 0.0
H861 H 0.92209 0.84492 0.23545 0.0
H862 H 0.95814 0.86203 0.24004 0.0
H863 H 0.94269 0.96534 0.31851 0.0
H864 H 0.91754 0.94073 0.37818 0.0
H865 H 0.89341 0.86715 0.29586 0.0
C866 C 0.95953 0.91691 0.16822 0.0
C867 C 0.98098 0.9393 0.16218 0.0
C868 C 0.98538 0.9613 0.19362 0.0
C869 C 0.96867 0.96097 0.23107 0.0
C870 C 0.94788 0.93837 0.23649 0.0
C871 C 0.94334 0.9166 0.20614 0.0
C872 C 0.92228 0.89285 0.22215 0.0
C873 C 0.89325 0.89309 0.19634 0.0
C874 C 0.9371 0.86189 0.22148 0.0
C875 C 0.91707 0.90376 0.26713 0.0
C876 C 0.93132 0.93058 0.27404 0.0
C877 C 0.9313 0.94446 0.31349 0.0
C878 C 0.91711 0.9302 0.3472 0.0
C879 C 0.90393 0.90185 0.34169 0.0
C880 C 0.90303 0.88894 0.30079 0.0
H881 H 0.06144 0.97756 0.16991 0.0
H882 H 0.14749 0.98669 0.11003 0.0
H883 H 0.16926 0.95165 0.16268 0.0
H884 H 0.08791 0.97706 0.27612 0.0
H885 H 0.06048 0.95091 0.29428 0.0
H886 H 0.05239 0.9747 0.24967 0.0
H887 H 0.04001 0.92733 0.20611 0.0
H888 H 0.04991 0.90352 0.24985 0.0
H889 H 0.06789 0.89886 0.19905 0.0
H890 H 0.18143 0.91634 0.22245 0.0
H891 H 0.18465 0.88798 0.28976 0.0
H892 H 0.09087 0.90397 0.3123 0.0
C893 C 0.08464 0.97137 0.16729 0.0
C894 C 0.1028 0.98397 0.13565 0.0
C895 C 0.13339 0.97693 0.13416 0.0
C896 C 0.1458 0.95699 0.16366 0.0
C897 C 0.12726 0.94476 0.19457 0.0
C898 C 0.09739 0.95196 0.1969 0.0
C899 C 0.08285 0.93779 0.23527 0.0
C900 C 0.07018 0.96154 0.26559 0.0
C901 C 0.05876 0.91554 0.22172 0.0
C902 C 0.10931 0.92188 0.25455 0.0
C903 C 0.13456 0.92563 0.23013 0.0
C904 C 0.16179 0.91318 0.24177 0.0
C905 C 0.16338 0.89699 0.27984 0.0
C906 C 0.138 0.89382 0.306 0.0
C907 C 0.11059 0.90612 0.29283 0.0
H908 H 0.10252 0.95057 0.86754 0.0
H909 H 0.12749 0.03888 0.82432 0.0
H910 H 0.15128 0.0168 0.76111 0.0
H911 H 0.16939 0.91254 0.83276 0.0
H912 H 0.14999 0.87942 0.81642 0.0
H913 H 0.13542 0.90197 0.85901 0.0
H914 H 0.08532 0.90727 0.81908 0.0
H915 H 0.09957 0.88455 0.77654 0.0
H916 H 0.08501 0.92116 0.7653 0.0
H917 H 0.17103 0.98567 0.70204 0.0
H918 H 0.18375 0.94739 0.6487 0.0
H919 H 0.1467 0.87904 0.73017 0.0
C920 C 0.11306 0.96529 0.84485 0.0
C921 C 0.11319 0.99648 0.85091 0.0
C922 C 0.12714 0.01494 0.8204 0.0
C923 C 0.14081 0.0026 0.78447 0.0
C924 C 0.14049 0.97177 0.77967 0.0
C925 C 0.12693 0.95334 0.80889 0.0
C926 C 0.12901 0.92098 0.79545 0.0
C927 C 0.14703 0.90266 0.82784 0.0
C928 C 0.09788 0.90772 0.78868 0.0
C929 C 0.14559 0.92416 0.75379 0.0
C930 C 0.15211 0.95367 0.74551 0.0
C931 C 0.16622 0.96249 0.70825 0.0
C932 C 0.17332 0.94064 0.67819 0.0
C933 C 0.16628 0.91036 0.68553 0.0
C934 C 0.15275 0.90197 0.72418 0.0
H935 H 0.02525 0.10586 0.8737 0.0
H936 H 0.97386 0.02782 0.83964 0.0
H937 H 0.00079 0.02458 0.77142 0.0
H938 H 0.02371 0.13815 0.76916 0.0
H939 H 0.0606 0.1534 0.77334 0.0
H940 H 0.03848 0.14831 0.82042 0.0
H941 H 0.08073 0.11656 0.85366 0.0
H942 H 0.10286 0.12107 0.80639 0.0
H943 H 0.09433 0.08429 0.82566 0.0
H944 H 0.0347 0.02875 0.70853 0.0
H945 H 0.06741 0.04418 0.65001 0.0
H946 H 0.09245 0.12296 0.72172 0.0
C947 C 0.01964 0.08807 0.85192 0.0
C948 C 0.99798 0.06661 0.86238 0.0
C949 C 0.99089 0.04405 0.83266 0.0
C950 C 0.00606 0.04204 0.79387 0.0
C951 C 0.02779 0.06314 0.78499 0.0
C952 C 0.03412 0.0861 0.81272 0.0
C953 C 0.05707 0.10702 0.79429 0.0
C954 C 0.04419 0.13858 0.78898 0.0
C955 C 0.08543 0.10724 0.82163 0.0
C956 C 0.06255 0.09229 0.75171 0.0
C957 C 0.04588 0.06671 0.7474 0.0
C958 C 0.0475 0.04901 0.71121 0.0
C959 C 0.06601 0.05816 0.67796 0.0
C960 C 0.08217 0.0852 0.68058 0.0
C961 C 0.08069 0.10211 0.71848 0.0
H962 H 0.87391 0.97277 0.85437 0.0
H963 H 0.90108 0.05211 0.92276 0.0
H964 H 0.88533 0.08317 0.86226 0.0
H965 H 0.89607 0.995 0.752 0.0
H966 H 0.86433 0.98016 0.72419 0.0
H967 H 0.87629 0.96343 0.77331 0.0
H968 H 0.82484 0.97053 0.80668 0.0
H969 H 0.81166 0.98659 0.75763 0.0
H970 H 0.80781 0.00693 0.80673 0.0
H971 H 0.86825 0.10551 0.79414 0.0
H972 H 0.84923 0.11815 0.7229 0.0
H973 H 0.83107 0.02474 0.69908 0.0
C974 C 0.87646 0.99666 0.85663 0.0
C975 C 0.88888 0.01 0.89321 0.0
C976 C 0.89167 0.04138 0.89507 0.0
C977 C 0.88279 0.05924 0.86086 0.0
C978 C 0.87074 0.04541 0.82525 0.0
C979 C 0.86722 0.01491 0.823 0.0
C980 C 0.85317 0.00585 0.78118 0.0
C981 C 0.87373 0.9849 0.75614 0.0
C982 C 0.82255 0.99165 0.78851 0.0
C983 C 0.85027 0.03594 0.75978 0.0
C984 C 0.86033 0.05844 0.78599 0.0
C985 C 0.86006 0.08814 0.77342 0.0
C986 C 0.84906 0.09509 0.73299 0.0
C987 C 0.83844 0.07246 0.70556 0.0
C988 C 0.83919 0.04248 0.71922 0.0
H989 H 0.95299 0.9065 0.90839 0.0
H990 H 0.00018 0.98021 0.85051 0.0
H991 H 0.97093 0.97388 0.7849 0.0
H992 H 0.95464 0.86142 0.81882 0.0
H993 H 0.91849 0.84511 0.82649 0.0
H994 H 0.93922 0.85838 0.87153 0.0
H995 H 0.89524 0.89276 0.8932 0.0
H996 H 0.87428 0.87894 0.84853 0.0
H997 H 0.88 0.91836 0.85472 0.0
H998 H 0.94055 0.95728 0.72451 0.0
H999 H 0.91144 0.93058 0.67081 0.0
H1000 H 0.88668 0.86452 0.76521 0.0
C1001 C 0.95671 0.92169 0.8822 0.0
C1002 C 0.9785 0.94419 0.88465 0.0
C1003 C 0.98324 0.96318 0.84945 0.0
C1004 C 0.96673 0.95977 0.81212 0.0
C1005 C 0.94581 0.93706 0.81045 0.0
C1006 C 0.94073 0.91827 0.84442 0.0
C1007 C 0.91922 0.89372 0.83263 0.0
C1008 C 0.93378 0.86284 0.83765 0.0
C1009 C 0.89048 0.8961 0.85884 0.0
C1010 C 0.91371 0.9012 0.78633 0.0
C1011 C 0.92899 0.92654 0.77457 0.0
C1012 C 0.92851 0.93739 0.73324 0.0
C1013 C 0.9121 0.92185 0.7029 0.0
C1014 C 0.89723 0.89507 0.71358 0.0
C1015 C 0.89758 0.885 0.75614 0.0
H1016 H 0.50951 0.56082 0.7075 0.0
H1017 H 0.54035 0.62045 0.60886 0.0
H1018 H 0.57199 0.64662 0.66139 0.0
H1019 H 0.50952 0.61595 0.79507 0.0
H1020 H 0.52252 0.58907 0.8335 0.0
H1021 H 0.50015 0.57722 0.78915 0.0
H1022 H 0.54029 0.53928 0.76982 0.0
H1023 H 0.56517 0.55151 0.81111 0.0
H1024 H 0.57698 0.55174 0.75624 0.0
H1025 H 0.60101 0.66509 0.72298 0.0
H1026 H 0.62713 0.67438 0.79036 0.0
H1027 H 0.58029 0.6002 0.84825 0.0
C1028 C 0.52263 0.57969 0.69731 0.0
C1029 C 0.5229 0.58874 0.65442 0.0
C1030 C 0.54051 0.6131 0.64164 0.0
C1031 C 0.55823 0.62816 0.67116 0.0
C1032 C 0.55807 0.6184 0.71314 0.0
C1033 C 0.5407 0.59482 0.72634 0.0
C1034 C 0.54618 0.58766 0.77274 0.0
C1035 C 0.51791 0.5928 0.79919 0.0
C1036 C 0.55788 0.55565 0.77787 0.0
C1037 C 0.5698 0.61052 0.78322 0.0
C1038 C 0.57588 0.62833 0.74856 0.0
C1039 C 0.59659 0.65122 0.75038 0.0
C1040 C 0.61156 0.6561 0.78877 0.0
C1041 C 0.60614 0.63787 0.82475 0.0
C1042 C 0.58486 0.6148 0.82167 0.0
H1043 H 0.4481 0.53333 0.68567 0.0
H1044 H 0.36347 0.50348 0.63598 0.0
H1045 H 0.33717 0.53312 0.69066 0.0
H1046 H 0.42731 0.52728 0.7937 0.0
H1047 H 0.44779 0.55929 0.8117 0.0
H1048 H 0.46026 0.53885 0.76573 0.0
H1049 H 0.45869 0.58691 0.72002 0.0
H1050 H 0.44708 0.6076 0.76619 0.0
H1051 H 0.42509 0.60881 0.71827 0.0
H1052 H 0.32024 0.56461 0.75088 0.0
H1053 H 0.31327 0.5947 0.81589 0.0
H1054 H 0.4088 0.60135 0.83091 0.0
C1055 C 0.42403 0.53379 0.68581 0.0
C1056 C 0.40757 0.51687 0.6563 0.0
C1057 C 0.37622 0.51676 0.65815 0.0
C1058 C 0.36118 0.53348 0.68901 0.0
C1059 C 0.37796 0.54966 0.71815 0.0
C1060 C 0.40868 0.54985 0.7171 0.0
C1061 C 0.42129 0.56719 0.75434 0.0
C1062 C 0.44029 0.54694 0.78306 0.0
C1063 C 0.43908 0.59424 0.73878 0.0
C1064 C 0.39284 0.57671 0.77643 0.0
C1065 C 0.36816 0.56658 0.75462 0.0
C1066 C 0.33935 0.57265 0.76828 0.0
C1067 C 0.3356 0.58967 0.80513 0.0
C1068 C 0.36049 0.60007 0.82817 0.0
C1069 C 0.38948 0.59339 0.81385 0.0
H1070 H 0.44075 0.42451 0.65213 0.0
H1071 H 0.528 0.3848 0.66759 0.0
H1072 H 0.50943 0.35517 0.72766 0.0
H1073 H 0.42799 0.43583 0.75714 0.0
H1074 H 0.38874 0.42797 0.75671 0.0
H1075 H 0.40655 0.44117 0.70927 0.0
H1076 H 0.38817 0.39482 0.6674 0.0
H1077 H 0.36954 0.38222 0.71483 0.0
H1078 H 0.39563 0.35811 0.68823 0.0
H1079 H 0.48453 0.33623 0.79181 0.0
H1080 H 0.45479 0.32987 0.85712 0.0
H1081 H 0.38357 0.38223 0.80149 0.0
C1082 C 0.45565 0.40905 0.66726 0.0
C1083 C 0.48572 0.40706 0.65507 0.0
C1084 C 0.5048 0.3868 0.67641 0.0
C1085 C 0.49442 0.36966 0.71037 0.0
C1086 C 0.46486 0.37292 0.72253 0.0
C1087 C 0.44565 0.39201 0.70155 0.0
C1088 C 0.41611 0.39436 0.72443 0.0
C1089 C 0.40949 0.42674 0.73767 0.0
C1090 C 0.39087 0.38161 0.69707 0.0
C1091 C 0.42231 0.37471 0.76259 0.0
C1092 C 0.45035 0.36207 0.76032 0.0
C1093 C 0.46229 0.34541 0.7936 0.0
C1094 C 0.44537 0.34204 0.83056 0.0
C1095 C 0.41694 0.35537 0.83387 0.0
C1096 C 0.40498 0.37126 0.79912 0.0
H1097 H 0.61398 0.52428 0.69038 0.0
H1098 H 0.58046 0.44519 0.62796 0.0
H1099 H 0.6061 0.4137 0.67993 0.0
H1100 H 0.68722 0.49119 0.71908 0.0
H1101 H 0.68861 0.51051 0.76926 0.0
H1102 H 0.66957 0.52707 0.72462 0.0
H1103 H 0.62361 0.53261 0.77101 0.0
H1104 H 0.64018 0.51402 0.8156 0.0
H1105 H 0.6059 0.50018 0.79353 0.0
H1106 H 0.63306 0.39053 0.74069 0.0
H1107 H 0.65695 0.37756 0.80891 0.0
H1108 H 0.67368 0.47115 0.83285 0.0
C1109 C 0.61227 0.50032 0.68734 0.0
C1110 C 0.59499 0.48726 0.65464 0.0
C1111 C 0.59325 0.45585 0.65232 0.0
C1112 C 0.60801 0.43768 0.68175 0.0
C1113 C 0.62471 0.4512 0.71347 0.0
C1114 C 0.62699 0.4818 0.71656 0.0
C1115 C 0.64543 0.49054 0.75498 0.0
C1116 C 0.67443 0.50572 0.74115 0.0
C1117 C 0.62765 0.51046 0.7856 0.0
C1118 C 0.65166 0.46015 0.77408 0.0
C1119 C 0.64017 0.43774 0.74899 0.0
C1120 C 0.64243 0.40785 0.76044 0.0
C1121 C 0.6562 0.40068 0.79911 0.0
C1122 C 0.66723 0.42333 0.8261 0.0
C1123 C 0.66539 0.45339 0.81288 0.0
H1124 H 0.60761 0.52217 0.34528 0.0
H1125 H 0.54037 0.46054 0.38975 0.0
H1126 H 0.55374 0.42558 0.33273 0.0
H1127 H 0.59802 0.50685 0.23108 0.0
H1128 H 0.63718 0.50964 0.22004 0.0
H1129 H 0.62115 0.53103 0.26269 0.0
H1130 H 0.65899 0.50799 0.31541 0.0
H1131 H 0.67515 0.48651 0.27294 0.0
H1132 H 0.66174 0.46806 0.32004 0.0
H1133 H 0.57717 0.39536 0.27533 0.0
H1134 H 0.60709 0.37331 0.21721 0.0
H1135 H 0.65787 0.45485 0.20762 0.0
C1136 C 0.59544 0.5015 0.34265 0.0
C1137 C 0.5727 0.49424 0.37181 0.0
C1138 C 0.55753 0.46683 0.36751 0.0
C1139 C 0.56504 0.44673 0.33526 0.0
C1140 C 0.58771 0.45442 0.30733 0.0
C1141 C 0.6025 0.48126 0.31029 0.0
C1142 C 0.62663 0.48357 0.27684 0.0
C1143 C 0.62033 0.50931 0.24585 0.0
C1144 C 0.65745 0.48671 0.29756 0.0
C1145 C 0.62331 0.45367 0.25512 0.0
C1146 C 0.60081 0.43716 0.27337 0.0
C1147 C 0.59457 0.4082 0.26035 0.0
C1148 C 0.61169 0.39583 0.22759 0.0
C1149 C 0.63447 0.41255 0.20806 0.0
C1150 C 0.64024 0.44186 0.22183 0.0
H1151 H 0.50423 0.54923 0.35186 0.0
H1152 H 0.53111 0.61927 0.43889 0.0
H1153 H 0.55675 0.64494 0.38035 0.0
H1154 H 0.57217 0.54807 0.29047 0.0
H1155 H 0.55306 0.54079 0.24122 0.0
H1156 H 0.53745 0.52816 0.29074 0.0
H1157 H 0.48879 0.55693 0.2722 0.0
H1158 H 0.50506 0.57029 0.22351 0.0
H1159 H 0.49047 0.59637 0.26178 0.0
H1160 H 0.57789 0.66384 0.31284 0.0
H1161 H 0.59749 0.67289 0.241 0.0
H1162 H 0.5588 0.5897 0.19784 0.0
C1163 C 0.51556 0.56993 0.35861 0.0
C1164 C 0.51547 0.58241 0.39983 0.0
C1165 C 0.53072 0.60941 0.40749 0.0
C1166 C 0.54529 0.62421 0.37444 0.0
C1167 C 0.54443 0.61166 0.33403 0.0
C1168 C 0.53025 0.58502 0.32599 0.0
C1169 C 0.53317 0.5762 0.27971 0.0
C1170 C 0.54995 0.54651 0.27528 0.0
C1171 C 0.50254 0.57488 0.25803 0.0
C1172 C 0.55141 0.60199 0.26313 0.0
C1173 C 0.55735 0.62229 0.29499 0.0
C1174 C 0.57368 0.64799 0.28766 0.0
C1175 C 0.58487 0.65281 0.2468 0.0
C1176 C 0.58006 0.63181 0.21388 0.0
C1177 C 0.5627 0.60628 0.22217 0.0
H1178 H 0.38967 0.48044 0.35264 0.0
H1179 H 0.3593 0.54388 0.44745 0.0
H1180 H 0.34343 0.57815 0.39044 0.0
H1181 H 0.41763 0.53647 0.27876 0.0
H1182 H 0.40731 0.51422 0.23338 0.0
H1183 H 0.41615 0.49669 0.28337 0.0
H1184 H 0.36446 0.46992 0.27947 0.0
H1185 H 0.35594 0.48936 0.23087 0.0
H1186 H 0.33134 0.4925 0.27588 0.0
H1187 H 0.33521 0.60738 0.32343 0.0
H1188 H 0.33022 0.62749 0.2513 0.0
H1189 H 0.36092 0.54291 0.19957 0.0
C1190 C 0.37944 0.50142 0.36144 0.0
C1191 C 0.37579 0.50948 0.40458 0.0
C1192 C 0.36247 0.53724 0.41467 0.0
C1193 C 0.35339 0.5569 0.38252 0.0
C1194 C 0.35766 0.54846 0.34038 0.0
C1195 C 0.37011 0.52131 0.32973 0.0
C1196 C 0.3726 0.51796 0.28194 0.0
C1197 C 0.40537 0.51624 0.26848 0.0
C1198 C 0.35503 0.49083 0.26611 0.0
C1199 C 0.3588 0.54702 0.2674 0.0
C1200 C 0.35104 0.5646 0.30163 0.0
C1201 C 0.34044 0.5935 0.2963 0.0
C1202 C 0.33744 0.60463 0.25487 0.0
C1203 C 0.3444 0.58675 0.21889 0.0
C1204 C 0.35526 0.55746 0.22575 0.0
H1205 H 0.44128 0.39996 0.40793 0.0
H1206 H 0.48916 0.478 0.36469 0.0
H1207 H 0.46422 0.47463 0.29513 0.0
H1208 H 0.442 0.35997 0.3116 0.0
H1209 H 0.40477 0.34573 0.31679 0.0
H1210 H 0.42598 0.35465 0.36357 0.0
H1211 H 0.38393 0.39003 0.38903 0.0
H1212 H 0.36253 0.38122 0.34225 0.0
H1213 H 0.37118 0.41944 0.35444 0.0
H1214 H 0.43572 0.46166 0.22967 0.0
H1215 H 0.40465 0.44089 0.17272 0.0
H1216 H 0.37421 0.37163 0.25851 0.0
C1217 C 0.44621 0.41648 0.38387 0.0
C1218 C 0.46725 0.43909 0.39136 0.0
C1219 C 0.47305 0.46051 0.35948 0.0
C1220 C 0.45891 0.45885 0.31995 0.0
C1221 C 0.43823 0.4363 0.31347 0.0
C1222 C 0.43159 0.41569 0.34464 0.0
C1223 C 0.40868 0.39354 0.32928 0.0
C1224 C 0.42112 0.36159 0.33037 0.0
C1225 C 0.37987 0.39623 0.3553 0.0
C1226 C 0.40415 0.40437 0.28413 0.0
C1227 C 0.42131 0.42916 0.27583 0.0
C1228 C 0.42185 0.44254 0.23597 0.0
C1229 C 0.40436 0.43035 0.20369 0.0
C1230 C 0.38714 0.40448 0.21103 0.0
C1231 C 0.38676 0.39165 0.25206 0.0
loop_
_geom_bond_atom_site_label_1
_geom_bond_atom_site_label_2
_geom_bond_distance
_geom_bond_site_symmetry_2
_ccdc_geom_bond_type
Zn0 O2 1.933 1_556 S
Zn0 O20 1.985 . S
Zn0 O31 1.955 . S
Zn1 O2 1.911 . S
Zn1 O21 1.970 . S
Zn1 O37 1.945 . S
Zn1 O44 1.981 . S
O2 Zn0 1.933 1_554 S
O2 Zn1 1.911 . S
O2 H3 0.841 1_655 S
H3 O2 0.841 1_455 S
C4 O5 1.246 . S
C4 O33 1.276 1_545 S
O5 C4 1.246 . S
Zn6 O8 1.911 . S
Zn6 O23 1.970 . S
Zn6 O40 1.945 . S
Zn6 O47 1.981 . S
Zn7 O8 1.933 1_556 S
Zn7 O22 1.985 . S
Zn7 O29 1.955 . S
O8 Zn6 1.911 . S
O8 Zn7 1.933 1_554 S
O8 H9 0.841 1_455 S
H9 O8 0.841 1_655 S
Zn10 O11 1.933 1_556 S
Zn10 O24 1.985 . S
Zn10 O33 1.955 . S
O11 Zn10 1.933 1_554 S
O11 Zn12 1.911 . S
O11 H13 0.841 1_565 S
Zn12 O11 1.911 . S
Zn12 O25 1.970 . S
Zn12 O41 1.981 . S
Zn12 O43 1.945 . S
H13 O11 0.841 1_545 S
Zn14 O15 1.933 1_556 S
Zn14 O27 1.985 . S
Zn14 O35 1.955 . S
O15 Zn14 1.933 1_554 S
O15 H16 0.841 1_545 S
O15 Zn17 1.911 . S
H16 O15 0.841 1_565 S
Zn17 O15 1.911 . S
Zn17 O28 1.970 . S
Zn17 O38 1.981 . S
Zn17 O46 1.945 . S
C18 O19 1.246 . S
C18 O35 1.276 1_565 S
O19 C18 1.246 . S
O20 Zn0 1.985 . S
O20 C30 1.245 1_556 S
O21 Zn1 1.970 . S
O21 C30 1.263 . S
O22 Zn7 1.985 . S
O22 C34 1.245 1_556 S
O23 Zn6 1.970 . S
O23 C34 1.263 . S
O24 Zn10 1.985 . S
O24 C39 1.245 1_556 S
O25 Zn12 1.970 . S
O25 C39 1.263 . S
C26 O37 1.262 1_455 S
C26 O38 1.245 . S
O27 Zn14 1.985 . S
O27 C45 1.245 1_556 S
O28 Zn17 1.970 . S
O28 C45 1.263 . S
O29 Zn7 1.955 . S
O29 C48 1.276 1_455 S
C30 O20 1.245 1_554 S
C30 O21 1.263 . S
O31 Zn0 1.955 . S
O31 C50 1.276 1_655 S
C32 O40 1.262 1_655 S
C32 O41 1.245 . S
O33 C4 1.276 1_565 S
O33 Zn10 1.955 . S
C34 O22 1.245 1_554 S
C34 O23 1.263 . S
O35 Zn14 1.955 . S
O35 C18 1.276 1_545 S
C36 O43 1.262 1_545 S
C36 O44 1.245 . S
O37 Zn1 1.945 . S
O37 C26 1.262 1_655 S
O38 Zn17 1.981 . S
O38 C26 1.245 . S
C39 O24 1.245 1_554 S
C39 O25 1.263 . S
O40 Zn6 1.945 . S
O40 C32 1.262 1_455 S
O41 Zn12 1.981 . S
O41 C32 1.245 . S
C42 O46 1.262 1_565 S
C42 O47 1.245 . S
O43 Zn12 1.945 . S
O43 C36 1.262 1_565 S
O44 Zn1 1.981 . S
O44 C36 1.245 . S
C45 O27 1.245 1_554 S
C45 O28 1.263 . S
O46 Zn17 1.945 . S
O46 C42 1.262 1_545 S
O47 Zn6 1.981 . S
O47 C42 1.245 . S
C48 O29 1.276 1_655 S
C48 O49 1.246 . S
O49 C48 1.246 . S
C50 O31 1.276 1_455 S
C50 O51 1.246 . S
O51 C50 1.246 . S
Zn52 O54 1.933 . S
Zn52 O72 1.985 . S
Zn52 O83 1.955 . S
Zn53 O54 1.911 . S
Zn53 O73 1.970 . S
Zn53 O89 1.945 . S
Zn53 O96 1.981 . S
O54 Zn52 1.933 . S
O54 Zn53 1.911 . S
O54 H55 0.841 . S
H55 O54 0.841 . S
C56 O57 1.246 . S
C56 O85 1.276 . S
O57 C56 1.246 . S
Zn58 O60 1.911 . S
Zn58 O75 1.970 . S
Zn58 O92 1.945 . S
Zn58 O99 1.981 . S
Zn59 O60 1.933 . S
Zn59 O74 1.985 . S
Zn59 O81 1.955 . S
O60 Zn58 1.911 . S
O60 Zn59 1.933 . S
O60 H61 0.841 . S
H61 O60 0.841 . S
Zn62 O63 1.933 . S
Zn62 O76 1.985 . S
Zn62 O85 1.955 . S
O63 Zn62 1.933 . S
O63 Zn64 1.911 . S
O63 H65 0.841 . S
Zn64 O63 1.911 . S
Zn64 O77 1.970 . S
Zn64 O93 1.981 . S
Zn64 O95 1.945 . S
H65 O63 0.841 . S
Zn66 O67 1.933 . S
Zn66 O79 1.985 . S
Zn66 O87 1.955 . S
O67 Zn66 1.933 . S
O67 H68 0.841 . S
O67 Zn69 1.911 . S
H68 O67 0.841 . S
Zn69 O67 1.911 . S
Zn69 O80 1.970 . S
Zn69 O90 1.981 . S
Zn69 O98 1.945 . S
C70 O71 1.246 . S
C70 O87 1.276 . S
O71 C70 1.246 . S
O72 Zn52 1.985 . S
O72 C82 1.245 . S
O73 Zn53 1.970 . S
O73 C82 1.263 . S
O74 Zn59 1.985 . S
O74 C86 1.245 . S
O75 Zn58 1.970 . S
O75 C86 1.263 . S
O76 Zn62 1.985 . S
O76 C91 1.245 . S
O77 Zn64 1.970 . S
O77 C91 1.263 . S
C78 O89 1.262 . S
C78 O90 1.245 . S
O79 Zn66 1.985 . S
O79 C97 1.245 . S
O80 Zn69 1.970 . S
O80 C97 1.263 . S
O81 Zn59 1.955 . S
O81 C100 1.276 . S
C82 O72 1.245 . S
C82 O73 1.263 . S
O83 Zn52 1.955 . S
O83 C102 1.276 . S
C84 O92 1.262 . S
C84 O93 1.245 . S
O85 C56 1.276 . S
O85 Zn62 1.955 . S
C86 O74 1.245 . S
C86 O75 1.263 . S
O87 Zn66 1.955 . S
O87 C70 1.276 . S
C88 O95 1.262 . S
C88 O96 1.245 . S
O89 Zn53 1.945 . S
O89 C78 1.262 . S
O90 Zn69 1.981 . S
O90 C78 1.245 . S
C91 O76 1.245 . S
C91 O77 1.263 . S
O92 Zn58 1.945 . S
O92 C84 1.262 . S
O93 Zn64 1.981 . S
O93 C84 1.245 . S
C94 O98 1.262 . S
C94 O99 1.245 . S
O95 Zn64 1.945 . S
O95 C88 1.262 . S
O96 Zn53 1.981 . S
O96 C88 1.245 . S
C97 O79 1.245 . S
C97 O80 1.263 . S
O98 Zn69 1.945 . S
O98 C94 1.262 . S
O99 Zn58 1.981 . S
O99 C94 1.245 . S
C100 O81 1.276 . S
C100 O101 1.246 . S
O101 C100 1.246 . S
C102 O83 1.276 . S
C102 O103 1.246 . S
O103 C102 1.246 . S
C104 C105 1.391 . S
C104 C108 1.391 . S
C104 H146 0.948 . S
C105 C104 1.391 . S
C105 C106 1.391 . S
C106 C105 1.391 . S
C106 H162 0.947 . S
C106 C163 1.392 . S
C107 C108 1.391 . S
C107 C111 1.397 . S
C107 C163 1.419 . S
C108 C104 1.391 . S
C108 C107 1.391 . S
C108 C109 1.399 . S
C109 C108 1.399 . S
C109 C112 1.396 . S
C109 C121 1.453 . S
C109 C122 1.684 . S
H110 C134 0.948 . S
C111 C107 1.397 . S
C111 C112 1.394 . S
C111 C130 1.723 1_556 S
C112 C109 1.396 . S
C112 C111 1.394 . S
C112 C142 1.723 1_556 S
H113 C136 0.947 . S
H114 C137 0.948 . S
H115 C143 0.982 . S
H116 C144 0.979 . S
H117 C144 0.980 . S
H118 C144 0.983 . S
H119 C143 0.979 . S
H120 C143 0.977 . S
C121 C109 1.453 . S
C121 H150 0.982 . S
C121 H151 0.979 . S
C121 H152 0.977 . S
C122 C109 1.684 . S
C122 H147 0.979 . S
C122 H148 0.980 . S
C122 H149 0.983 . S
C123 C124 1.391 . S
C123 C128 1.391 . S
C123 H153 0.948 . S
C124 C123 1.391 . S
C124 C125 1.391 . S
C125 C124 1.391 . S
C125 C126 1.392 . S
C125 H154 0.947 . S
C126 C125 1.392 . S
C126 C127 1.419 . S
C126 H155 0.948 . S
C127 C126 1.419 . S
C127 C128 1.391 . S
C127 C131 1.397 . S
C128 C123 1.391 . S
C128 C127 1.391 . S
C128 C129 1.399 . S
C129 C128 1.399 . S
C129 C130 1.396 . S
C129 C132 1.453 . S
C129 C133 1.684 . S
C130 C111 1.723 1_554 S
C130 C129 1.396 . S
C130 C131 1.394 . S
C131 C127 1.397 . S
C131 C130 1.394 . S
C131 C141 1.723 . S
C132 C129 1.453 . S
C132 H156 0.982 . S
C132 H157 0.979 . S
C132 H158 0.977 . S
C133 C129 1.684 . S
C133 H159 0.979 . S
C133 H160 0.980 . S
C133 H161 0.983 . S
C134 H110 0.948 . S
C134 C135 1.391 . S
C134 C139 1.391 . S
C135 C134 1.391 . S
C135 C136 1.391 1_554 S
C136 H113 0.947 . S
C136 C135 1.391 1_556 S
C136 C137 1.392 . S
C137 H114 0.948 . S
C137 C136 1.392 . S
C137 C138 1.419 1_556 S
C138 C137 1.419 1_554 S
C138 C139 1.391 . S
C138 C142 1.397 . S
C139 C134 1.391 . S
C139 C138 1.391 . S
C139 C140 1.399 . S
C140 C139 1.399 . S
C140 C141 1.396 . S
C140 C143 1.453 . S
C140 C144 1.684 . S
C141 C131 1.723 . S
C141 C140 1.396 . S
C141 C142 1.394 . S
C142 C112 1.723 1_554 S
C142 C138 1.397 . S
C142 C141 1.394 . S
C143 H115 0.982 . S
C143 H119 0.979 . S
C143 H120 0.977 . S
C143 C140 1.453 . S
C144 H116 0.979 . S
C144 H117 0.980 . S
C144 H118 0.983 . S
C144 C140 1.684 . S
H145 C163 0.948 . S
H146 C104 0.948 . S
H147 C122 0.979 . S
H148 C122 0.980 . S
H149 C122 0.983 . S
H150 C121 0.982 . S
H151 C121 0.979 . S
H152 C121 0.977 . S
H153 C123 0.948 . S
H154 C125 0.947 . S
H155 C126 0.948 . S
H156 C132 0.982 . S
H157 C132 0.979 . S
H158 C132 0.977 . S
H159 C133 0.979 . S
H160 C133 0.980 . S
H161 C133 0.983 . S
H162 C106 0.947 . S
C163 C106 1.392 . S
C163 C107 1.419 . S
C163 H145 0.948 . S
C164 C165 1.391 . S
C164 C168 1.391 . S
C164 H206 0.948 . S
C165 C164 1.391 . S
C165 C166 1.391 . S
C166 C165 1.391 . S
C166 H222 0.947 . S
C166 C223 1.392 . S
C167 C168 1.391 . S
C167 C171 1.397 . S
C167 C223 1.419 . S
C168 C164 1.391 . S
C168 C167 1.391 . S
C168 C169 1.399 . S
C169 C168 1.399 . S
C169 C172 1.396 . S
C169 C181 1.453 . S
C169 C182 1.684 . S
H170 C194 0.948 . S
C171 C167 1.397 . S
C171 C172 1.394 . S
C171 C190 1.723 1_556 S
C172 C169 1.396 . S
C172 C171 1.394 . S
C172 C202 1.723 1_556 S
H173 C196 0.947 . S
H174 C197 0.948 . S
H175 C203 0.982 . S
H176 C204 0.979 . S
H177 C204 0.980 . S
H178 C204 0.983 . S
H179 C203 0.979 . S
H180 C203 0.977 . S
C181 C169 1.453 . S
C181 H210 0.982 . S
C181 H211 0.979 . S
C181 H212 0.977 . S
C182 C169 1.684 . S
C182 H207 0.979 . S
C182 H208 0.980 . S
C182 H209 0.983 . S
C183 C184 1.391 . S
C183 C188 1.391 . S
C183 H213 0.948 . S
C184 C183 1.391 . S
C184 C185 1.391 . S
C185 C184 1.391 . S
C185 C186 1.392 . S
C185 H214 0.947 . S
C186 C185 1.392 . S
C186 C187 1.419 . S
C186 H215 0.948 . S
C187 C186 1.419 . S
C187 C188 1.391 . S
C187 C191 1.397 . S
C188 C183 1.391 . S
C188 C187 1.391 . S
C188 C189 1.399 . S
C189 C188 1.399 . S
C189 C190 1.396 . S
C189 C192 1.453 . S
C189 C193 1.684 . S
C190 C171 1.723 1_554 S
C190 C189 1.396 . S
C190 C191 1.394 . S
C191 C187 1.397 . S
C191 C190 1.394 . S
C191 C201 1.723 . S
C192 C189 1.453 . S
C192 H216 0.982 . S
C192 H217 0.979 . S
C192 H218 0.977 . S
C193 C189 1.684 . S
C193 H219 0.979 . S
C193 H220 0.980 . S
C193 H221 0.983 . S
C194 H170 0.948 . S
C194 C195 1.391 . S
C194 C199 1.391 . S
C195 C194 1.391 . S
C195 C196 1.391 1_554 S
C196 H173 0.947 . S
C196 C195 1.391 1_556 S
C196 C197 1.392 . S
C197 H174 0.948 . S
C197 C196 1.392 . S
C197 C198 1.419 1_556 S
C198 C197 1.419 1_554 S
C198 C199 1.391 . S
C198 C202 1.397 . S
C199 C194 1.391 . S
C199 C198 1.391 . S
C199 C200 1.399 . S
C200 C199 1.399 . S
C200 C201 1.396 . S
C200 C203 1.453 . S
C200 C204 1.684 . S
C201 C191 1.723 . S
C201 C200 1.396 . S
C201 C202 1.394 . S
C202 C172 1.723 1_554 S
C202 C198 1.397 . S
C202 C201 1.394 . S
C203 H175 0.982 . S
C203 H179 0.979 . S
C203 H180 0.977 . S
C203 C200 1.453 . S
C204 H176 0.979 . S
C204 H177 0.980 . S
C204 H178 0.983 . S
C204 C200 1.684 . S
H205 C223 0.948 . S
H206 C164 0.948 . S
H207 C182 0.979 . S
H208 C182 0.980 . S
H209 C182 0.983 . S
H210 C181 0.982 . S
H211 C181 0.979 . S
H212 C181 0.977 . S
H213 C183 0.948 . S
H214 C185 0.947 . S
H215 C186 0.948 . S
H216 C192 0.982 . S
H217 C192 0.979 . S
H218 C192 0.977 . S
H219 C193 0.979 . S
H220 C193 0.980 . S
H221 C193 0.983 . S
H222 C166 0.947 . S
C223 C166 1.392 . S
C223 C167 1.419 . S
C223 H205 0.948 . S
C224 C225 1.391 . S
C224 C228 1.391 . S
C224 H266 0.948 . S
C225 C224 1.391 . S
C225 C226 1.391 . S
C226 C225 1.391 . S
C226 H282 0.947 . S
C226 C283 1.392 . S
C227 C228 1.391 . S
C227 C231 1.397 . S
C227 C283 1.419 . S
C228 C224 1.391 . S
C228 C227 1.391 . S
C228 C229 1.399 . S
C229 C228 1.399 . S
C229 C232 1.396 . S
C229 C241 1.453 . S
C229 C242 1.684 . S
H230 C254 0.948 . S
C231 C227 1.397 . S
C231 C232 1.394 . S
C231 C250 1.723 . S
C232 C229 1.396 . S
C232 C231 1.394 . S
C232 C262 1.723 . S
H233 C256 0.947 . S
H234 C257 0.948 . S
H235 C263 0.982 . S
H236 C264 0.979 . S
H237 C264 0.980 . S
H238 C264 0.983 . S
H239 C263 0.979 . S
H240 C263 0.977 . S
C241 C229 1.453 . S
C241 H270 0.982 . S
C241 H271 0.979 . S
C241 H272 0.977 . S
C242 C229 1.684 . S
C242 H267 0.979 . S
C242 H268 0.980 . S
C242 H269 0.983 . S
C243 C244 1.391 . S
C243 C248 1.391 . S
C243 H273 0.948 . S
C244 C243 1.391 . S
C244 C245 1.391 . S
C245 C244 1.391 . S
C245 C246 1.392 . S
C245 H274 0.947 . S
C246 C245 1.392 . S
C246 C247 1.419 . S
C246 H275 0.948 . S
C247 C246 1.419 . S
C247 C248 1.391 . S
C247 C251 1.397 . S
C248 C243 1.391 . S
C248 C247 1.391 . S
C248 C249 1.399 . S
C249 C248 1.399 . S
C249 C250 1.396 1_556 S
C249 C252 1.453 . S
C249 C253 1.684 . S
C250 C231 1.723 . S
C250 C249 1.396 1_554 S
C250 C251 1.394 1_554 S
C251 C247 1.397 . S
C251 C250 1.394 1_556 S
C251 C261 1.723 . S
C252 C249 1.453 . S
C252 H276 0.982 . S
C252 H277 0.979 . S
C252 H278 0.977 1_556 S
C253 C249 1.684 . S
C253 H279 0.979 . S
C253 H280 0.980 1_556 S
C253 H281 0.983 . S
C254 H230 0.948 . S
C254 C255 1.391 1_556 S
C254 C259 1.391 . S
C255 C254 1.391 1_554 S
C255 C256 1.391 . S
C256 H233 0.947 . S
C256 C255 1.391 . S
C256 C257 1.392 . S
C257 H234 0.948 . S
C257 C256 1.392 . S
C257 C258 1.419 . S
C258 C257 1.419 . S
C258 C259 1.391 1_554 S
C258 C262 1.397 . S
C259 C254 1.391 . S
C259 C258 1.391 1_556 S
C259 C260 1.399 . S
C260 C259 1.399 . S
C260 C261 1.396 . S
C260 C263 1.453 . S
C260 C264 1.684 . S
C261 C251 1.723 . S
C261 C260 1.396 . S
C261 C262 1.394 1_556 S
C262 C232 1.723 . S
C262 C258 1.397 . S
C262 C261 1.394 1_554 S
C263 H235 0.982 . S
C263 H239 0.979 . S
C263 H240 0.977 . S
C263 C260 1.453 . S
C264 H236 0.979 . S
C264 H237 0.980 . S
C264 H238 0.983 . S
C264 C260 1.684 . S
H265 C283 0.948 . S
H266 C224 0.948 . S
H267 C242 0.979 . S
H268 C242 0.980 . S
H269 C242 0.983 . S
H270 C241 0.982 . S
H271 C241 0.979 . S
H272 C241 0.977 . S
H273 C243 0.948 . S
H274 C245 0.947 . S
H275 C246 0.948 . S
H276 C252 0.982 . S
H277 C252 0.979 . S
H278 C252 0.977 1_554 S
H279 C253 0.979 . S
H280 C253 0.980 1_554 S
H281 C253 0.983 . S
H282 C226 0.947 . S
C283 C226 1.392 . S
C283 C227 1.419 . S
C283 H265 0.948 . S
C284 C285 1.391 . S
C284 C288 1.391 . S
C284 H326 0.948 . S
C285 C284 1.391 . S
C285 C286 1.391 . S
C286 C285 1.391 . S
C286 H342 0.947 . S
C286 C343 1.392 . S
C287 C288 1.391 . S
C287 C291 1.397 . S
C287 C343 1.419 . S
C288 C284 1.391 . S
C288 C287 1.391 . S
C288 C289 1.399 . S
C289 C288 1.399 . S
C289 C292 1.396 . S
C289 C301 1.453 . S
C289 C302 1.684 . S
H290 C314 0.948 . S
C291 C287 1.397 . S
C291 C292 1.394 . S
C291 C310 1.723 . S
C292 C289 1.396 . S
C292 C291 1.394 . S
C292 C322 1.723 . S
H293 C316 0.947 . S
H294 C317 0.948 . S
H295 C323 0.982 . S
H296 C324 0.979 . S
H297 C324 0.980 . S
H298 C324 0.983 . S
H299 C323 0.979 . S
H300 C323 0.977 . S
C301 C289 1.453 . S
C301 H330 0.982 . S
C301 H331 0.979 . S
C301 H332 0.977 . S
C302 C289 1.684 . S
C302 H327 0.979 . S
C302 H328 0.980 . S
C302 H329 0.983 . S
C303 C304 1.391 . S
C303 C308 1.391 . S
C303 H333 0.948 . S
C304 C303 1.391 . S
C304 C305 1.391 . S
C305 C304 1.391 . S
C305 C306 1.392 . S
C305 H334 0.947 . S
C306 C305 1.392 . S
C306 C307 1.419 . S
C306 H335 0.948 . S
C307 C306 1.419 . S
C307 C308 1.391 . S
C307 C311 1.397 . S
C308 C303 1.391 . S
C308 C307 1.391 . S
C308 C309 1.399 . S
C309 C308 1.399 . S
C309 C310 1.396 1_556 S
C309 C312 1.453 . S
C309 C313 1.684 . S
C310 C291 1.723 . S
C310 C309 1.396 1_554 S
C310 C311 1.394 1_554 S
C311 C307 1.397 . S
C311 C310 1.394 1_556 S
C311 C321 1.723 . S
C312 C309 1.453 . S
C312 H336 0.982 . S
C312 H337 0.979 . S
C312 H338 0.977 1_556 S
C313 C309 1.684 . S
C313 H339 0.979 . S
C313 H340 0.980 1_556 S
C313 H341 0.983 . S
C314 H290 0.948 . S
C314 C315 1.391 1_556 S
C314 C319 1.391 . S
C315 C314 1.391 1_554 S
C315 C316 1.391 . S
C316 H293 0.947 . S
C316 C315 1.391 . S
C316 C317 1.392 . S
C317 H294 0.948 . S
C317 C316 1.392 . S
C317 C318 1.419 . S
C318 C317 1.419 . S
C318 C319 1.391 1_554 S
C318 C322 1.397 . S
C319 C314 1.391 . S
C319 C318 1.391 1_556 S
C319 C320 1.399 . S
C320 C319 1.399 . S
C320 C321 1.396 . S
C320 C323 1.453 . S
C320 C324 1.684 . S
C321 C311 1.723 . S
C321 C320 1.396 . S
C321 C322 1.394 1_556 S
C322 C292 1.723 . S
C322 C318 1.397 . S
C322 C321 1.394 1_554 S
C323 H295 0.982 . S
C323 H299 0.979 . S
C323 H300 0.977 . S
C323 C320 1.453 . S
C324 H296 0.979 . S
C324 H297 0.980 . S
C324 H298 0.983 . S
C324 C320 1.684 . S
H325 C343 0.948 . S
H326 C284 0.948 . S
H327 C302 0.979 . S
H328 C302 0.980 . S
H329 C302 0.983 . S
H330 C301 0.982 . S
H331 C301 0.979 . S
H332 C301 0.977 . S
H333 C303 0.948 . S
H334 C305 0.947 . S
H335 C306 0.948 . S
H336 C312 0.982 . S
H337 C312 0.979 . S
H338 C312 0.977 1_554 S
H339 C313 0.979 . S
H340 C313 0.980 1_554 S
H341 C313 0.983 . S
H342 C286 0.947 . S
C343 C286 1.392 . S
C343 C287 1.419 . S
C343 H325 0.948 . S
C344 C345 1.391 . S
C344 C348 1.391 . S
C344 H386 0.948 . S
C345 C344 1.391 . S
C345 C346 1.391 . S
C346 C345 1.391 . S
C346 H402 0.947 . S
C346 C403 1.392 . S
C347 C348 1.391 . S
C347 C351 1.397 . S
C347 C403 1.419 . S
C348 C344 1.391 . S
C348 C347 1.391 . S
C348 C349 1.399 . S
C349 C348 1.399 . S
C349 C352 1.396 . S
C349 C361 1.453 . S
C349 C362 1.684 . S
H350 C374 0.948 . S
C351 C347 1.397 . S
C351 C352 1.394 . S
C351 C370 1.723 . S
C352 C349 1.396 . S
C352 C351 1.394 . S
C352 C382 1.723 . S
H353 C376 0.947 . S
H354 C377 0.948 . S
H355 C383 0.982 . S
H356 C384 0.979 . S
H357 C384 0.980 . S
H358 C384 0.983 . S
H359 C383 0.979 . S
H360 C383 0.977 . S
C361 C349 1.453 . S
C361 H390 0.982 . S
C361 H391 0.979 . S
C361 H392 0.977 . S
C362 C349 1.684 . S
C362 H387 0.979 . S
C362 H388 0.980 . S
C362 H389 0.983 . S
C363 C364 1.391 . S
C363 C368 1.391 . S
C363 H393 0.948 . S
C364 C363 1.391 . S
C364 C365 1.391 . S
C365 C364 1.391 . S
C365 C366 1.392 . S
C365 H394 0.947 . S
C366 C365 1.392 . S
C366 C367 1.419 . S
C366 H395 0.948 . S
C367 C366 1.419 . S
C367 C368 1.391 . S
C367 C371 1.397 . S
C368 C363 1.391 . S
C368 C367 1.391 . S
C368 C369 1.399 . S
C369 C368 1.399 . S
C369 C370 1.396 . S
C369 C372 1.453 . S
C369 C373 1.684 . S
C370 C351 1.723 . S
C370 C369 1.396 . S
C370 C371 1.394 . S
C371 C367 1.397 . S
C371 C370 1.394 . S
C371 C381 1.723 . S
C372 C369 1.453 . S
C372 H396 0.982 . S
C372 H397 0.979 . S
C372 H398 0.977 . S
C373 C369 1.684 . S
C373 H399 0.979 . S
C373 H400 0.980 . S
C373 H401 0.983 . S
C374 H350 0.948 . S
C374 C375 1.391 . S
C374 C379 1.391 . S
C375 C374 1.391 . S
C375 C376 1.391 . S
C376 H353 0.947 . S
C376 C375 1.391 . S
C376 C377 1.392 . S
C377 H354 0.948 . S
C377 C376 1.392 . S
C377 C378 1.419 . S
C378 C377 1.419 . S
C378 C379 1.391 . S
C378 C382 1.397 . S
C379 C374 1.391 . S
C379 C378 1.391 . S
C379 C380 1.399 . S
C380 C379 1.399 . S
C380 C381 1.396 . S
C380 C383 1.453 . S
C380 C384 1.684 . S
C381 C371 1.723 . S
C381 C380 1.396 . S
C381 C382 1.394 . S
C382 C352 1.723 . S
C382 C378 1.397 . S
C382 C381 1.394 . S
C383 H355 0.982 . S
C383 H359 0.979 . S
C383 H360 0.977 . S
C383 C380 1.453 . S
C384 H356 0.979 . S
C384 H357 0.980 . S
C384 H358 0.983 . S
C384 C380 1.684 . S
H385 C403 0.948 . S
H386 C344 0.948 . S
H387 C362 0.979 . S
H388 C362 0.980 . S
H389 C362 0.983 . S
H390 C361 0.982 . S
H391 C361 0.979 . S
H392 C361 0.977 . S
H393 C363 0.948 . S
H394 C365 0.947 . S
H395 C366 0.948 . S
H396 C372 0.982 . S
H397 C372 0.979 . S
H398 C372 0.977 . S
H399 C373 0.979 . S
H400 C373 0.980 . S
H401 C373 0.983 . S
H402 C346 0.947 . S
C403 C346 1.392 . S
C403 C347 1.419 . S
C403 H385 0.948 . S
C404 C405 1.391 . S
C404 C408 1.391 . S
C404 H446 0.948 . S
C405 C404 1.391 . S
C405 C406 1.391 . S
C406 C405 1.391 . S
C406 H462 0.947 . S
C406 C463 1.392 . S
C407 C408 1.391 . S
C407 C411 1.397 . S
C407 C463 1.419 . S
C408 C404 1.391 . S
C408 C407 1.391 . S
C408 C409 1.399 . S
C409 C408 1.399 . S
C409 C412 1.396 . S
C409 C421 1.453 . S
C409 C422 1.684 . S
H410 C434 0.948 . S
C411 C407 1.397 . S
C411 C412 1.394 . S
C411 C430 1.723 . S
C412 C409 1.396 . S
C412 C411 1.394 . S
C412 C442 1.723 . S
H413 C436 0.947 . S
H414 C437 0.948 . S
H415 C443 0.982 . S
H416 C444 0.979 . S
H417 C444 0.980 . S
H418 C444 0.983 . S
H419 C443 0.979 . S
H420 C443 0.977 . S
C421 C409 1.453 . S
C421 H450 0.982 . S
C421 H451 0.979 . S
C421 H452 0.977 . S
C422 C409 1.684 . S
C422 H447 0.979 . S
C422 H448 0.980 . S
C422 H449 0.983 . S
C423 C424 1.391 . S
C423 C428 1.391 . S
C423 H453 0.948 . S
C424 C423 1.391 . S
C424 C425 1.391 . S
C425 C424 1.391 . S
C425 C426 1.392 . S
C425 H454 0.947 . S
C426 C425 1.392 . S
C426 C427 1.419 . S
C426 H455 0.948 . S
C427 C426 1.419 . S
C427 C428 1.391 . S
C427 C431 1.397 . S
C428 C423 1.391 . S
C428 C427 1.391 . S
C428 C429 1.399 . S
C429 C428 1.399 . S
C429 C430 1.396 . S
C429 C432 1.453 . S
C429 C433 1.684 . S
C430 C411 1.723 . S
C430 C429 1.396 . S
C430 C431 1.394 . S
C431 C427 1.397 . S
C431 C430 1.394 . S
C431 C441 1.723 . S
C432 C429 1.453 . S
C432 H456 0.982 . S
C432 H457 0.979 . S
C432 H458 0.977 . S
C433 C429 1.684 . S
C433 H459 0.979 . S
C433 H460 0.980 . S
C433 H461 0.983 . S
C434 H410 0.948 . S
C434 C435 1.391 . S
C434 C439 1.391 . S
C435 C434 1.391 . S
C435 C436 1.391 . S
C436 H413 0.947 . S
C436 C435 1.391 . S
C436 C437 1.392 . S
C437 H414 0.948 . S
C437 C436 1.392 . S
C437 C438 1.419 . S
C438 C437 1.419 . S
C438 C439 1.391 . S
C438 C442 1.397 . S
C439 C434 1.391 . S
C439 C438 1.391 . S
C439 C440 1.399 . S
C440 C439 1.399 . S
C440 C441 1.396 . S
C440 C443 1.453 . S
C440 C444 1.684 . S
C441 C431 1.723 . S
C441 C440 1.396 . S
C441 C442 1.394 . S
C442 C412 1.723 . S
C442 C438 1.397 . S
C442 C441 1.394 . S
C443 H415 0.982 . S
C443 H419 0.979 . S
C443 H420 0.977 . S
C443 C440 1.453 . S
C444 H416 0.979 . S
C444 H417 0.980 . S
C444 H418 0.983 . S
C444 C440 1.684 . S
H445 C463 0.948 . S
H446 C404 0.948 . S
H447 C422 0.979 . S
H448 C422 0.980 . S
H449 C422 0.983 . S
H450 C421 0.982 . S
H451 C421 0.979 . S
H452 C421 0.977 . S
H453 C423 0.948 . S
H454 C425 0.947 . S
H455 C426 0.948 . S
H456 C432 0.982 . S
H457 C432 0.979 . S
H458 C432 0.977 . S
H459 C433 0.979 . S
H460 C433 0.980 . S
H461 C433 0.983 . S
H462 C406 0.947 . S
C463 C406 1.392 . S
C463 C407 1.419 . S
C463 H445 0.948 . S
C464 C465 1.391 . S
C464 C468 1.391 . S
C464 H506 0.948 . S
C465 C464 1.391 . S
C465 C466 1.391 . S
C466 C465 1.391 . S
C466 H522 0.947 . S
C466 C523 1.392 . S
C467 C468 1.391 . S
C467 C471 1.397 . S
C467 C523 1.419 . S
C468 C464 1.391 . S
C468 C467 1.391 . S
C468 C469 1.399 . S
C469 C468 1.399 . S
C469 C472 1.396 . S
C469 C481 1.453 . S
C469 C482 1.684 . S
H470 C494 0.948 . S
C471 C467 1.397 . S
C471 C472 1.394 . S
C471 C490 1.723 . S
C472 C469 1.396 . S
C472 C471 1.394 . S
C472 C502 1.723 . S
H473 C496 0.947 . S
H474 C497 0.948 . S
H475 C503 0.982 . S
H476 C504 0.979 . S
H477 C504 0.980 . S
H478 C504 0.983 . S
H479 C503 0.979 . S
H480 C503 0.977 . S
C481 C469 1.453 . S
C481 H510 0.982 . S
C481 H511 0.979 . S
C481 H512 0.977 . S
C482 C469 1.684 . S
C482 H507 0.979 . S
C482 H508 0.980 . S
C482 H509 0.983 . S
C483 C484 1.391 . S
C483 C488 1.391 . S
C483 H513 0.948 . S
C484 C483 1.391 . S
C484 C485 1.391 . S
C485 C484 1.391 . S
C485 C486 1.392 . S
C485 H514 0.947 . S
C486 C485 1.392 . S
C486 C487 1.419 . S
C486 H515 0.948 . S
C487 C486 1.419 . S
C487 C488 1.391 . S
C487 C491 1.397 . S
C488 C483 1.391 . S
C488 C487 1.391 . S
C488 C489 1.399 . S
C489 C488 1.399 . S
C489 C490 1.396 . S
C489 C492 1.453 . S
C489 C493 1.684 . S
C490 C471 1.723 . S
C490 C489 1.396 . S
C490 C491 1.394 . S
C491 C487 1.397 . S
C491 C490 1.394 . S
C491 C501 1.723 . S
C492 C489 1.453 . S
C492 H516 0.982 . S
C492 H517 0.979 . S
C492 H518 0.977 . S
C493 C489 1.684 . S
C493 H519 0.979 . S
C493 H520 0.980 . S
C493 H521 0.983 . S
C494 H470 0.948 . S
C494 C495 1.391 . S
C494 C499 1.391 . S
C495 C494 1.391 . S
C495 C496 1.391 . S
C496 H473 0.947 . S
C496 C495 1.391 . S
C496 C497 1.392 . S
C497 H474 0.948 . S
C497 C496 1.392 . S
C497 C498 1.419 . S
C498 C497 1.419 . S
C498 C499 1.391 . S
C498 C502 1.397 . S
C499 C494 1.391 . S
C499 C498 1.391 . S
C499 C500 1.399 . S
C500 C499 1.399 . S
C500 C501 1.396 . S
C500 C503 1.453 . S
C500 C504 1.684 . S
C501 C491 1.723 . S
C501 C500 1.396 . S
C501 C502 1.394 . S
C502 C472 1.723 . S
C502 C498 1.397 . S
C502 C501 1.394 . S
C503 H475 0.982 . S
C503 H479 0.979 . S
C503 H480 0.977 . S
C503 C500 1.453 . S
C504 H476 0.979 . S
C504 H477 0.980 . S
C504 H478 0.983 . S
C504 C500 1.684 . S
H505 C523 0.948 . S
H506 C464 0.948 . S
H507 C482 0.979 . S
H508 C482 0.980 . S
H509 C482 0.983 . S
H510 C481 0.982 . S
H511 C481 0.979 . S
H512 C481 0.977 . S
H513 C483 0.948 . S
H514 C485 0.947 . S
H515 C486 0.948 . S
H516 C492 0.982 . S
H517 C492 0.979 . S
H518 C492 0.977 . S
H519 C493 0.979 . S
H520 C493 0.980 . S
H521 C493 0.983 . S
H522 C466 0.947 . S
C523 C466 1.392 . S
C523 C467 1.419 . S
C523 H505 0.948 . S
C524 C525 1.391 . S
C524 C528 1.391 . S
C524 H566 0.948 . S
C525 C524 1.391 . S
C525 C526 1.391 . S
C526 C525 1.391 . S
C526 H582 0.947 . S
C526 C583 1.392 . S
C527 C528 1.391 . S
C527 C531 1.397 . S
C527 C583 1.419 . S
C528 C524 1.391 . S
C528 C527 1.391 . S
C528 C529 1.399 . S
C529 C528 1.399 . S
C529 C532 1.396 . S
C529 C541 1.453 . S
C529 C542 1.684 . S
H530 C554 0.948 . S
C531 C527 1.397 . S
C531 C532 1.394 . S
C531 C550 1.723 . S
C532 C529 1.396 . S
C532 C531 1.394 . S
C532 C562 1.723 . S
H533 C556 0.947 . S
H534 C557 0.948 . S
H535 C563 0.982 . S
H536 C564 0.979 . S
H537 C564 0.980 . S
H538 C564 0.983 . S
H539 C563 0.979 . S
H540 C563 0.977 . S
C541 C529 1.453 . S
C541 H570 0.982 . S
C541 H571 0.979 . S
C541 H572 0.977 . S
C542 C529 1.684 . S
C542 H567 0.979 . S
C542 H568 0.980 . S
C542 H569 0.983 . S
C543 C544 1.391 . S
C543 C548 1.391 . S
C543 H573 0.948 . S
C544 C543 1.391 . S
C544 C545 1.391 . S
C545 C544 1.391 . S
C545 C546 1.392 . S
C545 H574 0.947 . S
C546 C545 1.392 . S
C546 C547 1.419 . S
C546 H575 0.948 . S
C547 C546 1.419 . S
C547 C548 1.391 . S
C547 C551 1.397 . S
C548 C543 1.391 . S
C548 C547 1.391 . S
C548 C549 1.399 . S
C549 C548 1.399 . S
C549 C550 1.396 . S
C549 C552 1.453 . S
C549 C553 1.684 . S
C550 C531 1.723 . S
C550 C549 1.396 . S
C550 C551 1.394 . S
C551 C547 1.397 . S
C551 C550 1.394 . S
C551 C561 1.723 . S
C552 C549 1.453 . S
C552 H576 0.982 . S
C552 H577 0.979 . S
C552 H578 0.977 . S
C553 C549 1.684 . S
C553 H579 0.979 . S
C553 H580 0.980 . S
C553 H581 0.983 . S
C554 H530 0.948 . S
C554 C555 1.391 . S
C554 C559 1.391 . S
C555 C554 1.391 . S
C555 C556 1.391 . S
C556 H533 0.947 . S
C556 C555 1.391 . S
C556 C557 1.392 . S
C557 H534 0.948 . S
C557 C556 1.392 . S
C557 C558 1.419 . S
C558 C557 1.419 . S
C558 C559 1.391 . S
C558 C562 1.397 . S
C559 C554 1.391 . S
C559 C558 1.391 . S
C559 C560 1.399 . S
C560 C559 1.399 . S
C560 C561 1.396 . S
C560 C563 1.453 . S
C560 C564 1.684 . S
C561 C551 1.723 . S
C561 C560 1.396 . S
C561 C562 1.394 . S
C562 C532 1.723 . S
C562 C558 1.397 . S
C562 C561 1.394 . S
C563 H535 0.982 . S
C563 H539 0.979 . S
C563 H540 0.977 . S
C563 C560 1.453 . S
C564 H536 0.979 . S
C564 H537 0.980 . S
C564 H538 0.983 . S
C564 C560 1.684 . S
H565 C583 0.948 . S
H566 C524 0.948 . S
H567 C542 0.979 . S
H568 C542 0.980 . S
H569 C542 0.983 . S
H570 C541 0.982 . S
H571 C541 0.979 . S
H572 C541 0.977 . S
H573 C543 0.948 . S
H574 C545 0.947 . S
H575 C546 0.948 . S
H576 C552 0.982 . S
H577 C552 0.979 . S
H578 C552 0.977 . S
H579 C553 0.979 . S
H580 C553 0.980 . S
H581 C553 0.983 . S
H582 C526 0.947 . S
C583 C526 1.392 . S
C583 C527 1.419 . S
C583 H565 0.948 . S
H584 C596 0.930 . S
H585 C598 0.930 . S
H586 C599 0.930 . S
H587 C603 0.959 1_554 S
H588 C603 0.959 . S
H589 C603 0.961 . S
H590 C604 0.960 . S
H591 C604 0.961 . S
H592 C604 0.959 . S
H593 C607 0.929 . S
H594 C608 0.931 . S
H595 C610 0.930 . S
C596 H584 0.930 . S
C596 C597 1.399 1_556 S
C596 C601 1.399 1_556 S
C597 C596 1.399 1_554 S
C597 C598 1.376 . S
C598 H585 0.930 . S
C598 C597 1.376 . S
C598 C599 1.388 . S
C599 H586 0.930 . S
C599 C598 1.388 . S
C599 C600 1.390 . S
C600 C599 1.390 . S
C600 C601 1.394 . S
C600 C606 1.465 . S
C601 C596 1.399 1_554 S
C601 C600 1.394 . S
C601 C602 1.516 1_554 S
C602 C601 1.516 1_556 S
C602 C603 1.502 . S
C602 C604 1.561 . S
C602 C605 1.526 1_556 S
C603 H587 0.959 1_556 S
C603 H588 0.959 . S
C603 H589 0.961 . S
C603 C602 1.502 . S
C604 H590 0.960 . S
C604 H591 0.961 . S
C604 H592 0.959 . S
C604 C602 1.561 . S
C605 C602 1.526 1_554 S
C605 C606 1.396 . S
C605 C610 1.390 1_554 S
C606 C600 1.465 . S
C606 C605 1.396 . S
C606 C607 1.399 . S
C607 H593 0.929 . S
C607 C606 1.399 . S
C607 C608 1.385 . S
C608 H594 0.931 . S
C608 C607 1.385 . S
C608 C609 1.389 . S
C609 C608 1.389 . S
C609 C610 1.387 1_554 S
C610 H595 0.930 . S
C610 C605 1.390 1_556 S
C610 C609 1.387 1_556 S
H611 C623 0.930 . S
H612 C625 0.930 . S
H613 C626 0.930 . S
H614 C630 0.959 . S
H615 C630 0.959 . S
H616 C630 0.961 . S
H617 C631 0.960 . S
H618 C631 0.961 . S
H619 C631 0.959 . S
H620 C634 0.929 . S
H621 C635 0.931 . S
H622 C637 0.930 . S
C623 H611 0.930 . S
C623 C624 1.399 1_556 S
C623 C628 1.399 1_556 S
C624 C623 1.399 1_554 S
C624 C625 1.376 . S
C625 H612 0.930 . S
C625 C624 1.376 . S
C625 C626 1.388 . S
C626 H613 0.930 . S
C626 C625 1.388 . S
C626 C627 1.390 . S
C627 C626 1.390 . S
C627 C628 1.394 . S
C627 C633 1.465 . S
C628 C623 1.399 1_554 S
C628 C627 1.394 . S
C628 C629 1.516 1_554 S
C629 C628 1.516 1_556 S
C629 C630 1.502 . S
C629 C631 1.561 . S
C629 C632 1.526 1_556 S
C630 H614 0.959 . S
C630 H615 0.959 . S
C630 H616 0.961 . S
C630 C629 1.502 . S
C631 H617 0.960 . S
C631 H618 0.961 . S
C631 H619 0.959 . S
C631 C629 1.561 . S
C632 C629 1.526 1_554 S
C632 C633 1.396 . S
C632 C637 1.390 1_554 S
C633 C627 1.465 . S
C633 C632 1.396 . S
C633 C634 1.399 . S
C634 H620 0.929 . S
C634 C633 1.399 . S
C634 C635 1.385 . S
C635 H621 0.931 . S
C635 C634 1.385 . S
C635 C636 1.389 . S
C636 C635 1.389 . S
C636 C637 1.387 1_554 S
C637 H622 0.930 . S
C637 C632 1.390 1_556 S
C637 C636 1.387 1_556 S
H638 C650 0.930 1_556 S
H639 C652 0.930 . S
H640 C653 0.930 . S
H641 C657 0.959 1_554 S
H642 C657 0.959 . S
H643 C657 0.961 . S
H644 C658 0.960 . S
H645 C658 0.961 . S
H646 C658 0.959 . S
H647 C661 0.929 . S
H648 C662 0.931 . S
H649 C664 0.925 1_556 S
C650 H638 0.930 1_554 S
C650 C651 1.399 . S
C650 C655 1.399 . S
C651 C650 1.399 . S
C651 C652 1.376 . S
C652 H639 0.930 . S
C652 C651 1.376 . S
C652 C653 1.388 . S
C653 H640 0.930 . S
C653 C652 1.388 . S
C653 C654 1.390 . S
C654 C653 1.390 . S
C654 C655 1.394 . S
C654 C660 1.465 . S
C655 C650 1.399 . S
C655 C654 1.394 . S
C655 C656 1.516 1_554 S
C656 C655 1.516 1_556 S
C656 C657 1.502 . S
C656 C658 1.561 . S
C656 C659 1.526 1_556 S
C657 H641 0.959 1_556 S
C657 H642 0.959 . S
C657 H643 0.961 . S
C657 C656 1.502 . S
C658 H644 0.960 . S
C658 H645 0.961 . S
C658 H646 0.959 . S
C658 C656 1.561 . S
C659 C656 1.526 1_554 S
C659 C660 1.396 . S
C659 C664 1.390 . S
C660 C654 1.465 . S
C660 C659 1.396 . S
C660 C661 1.399 . S
C661 H647 0.929 . S
C661 C660 1.399 . S
C661 C662 1.385 . S
C662 H648 0.931 . S
C662 C661 1.385 . S
C662 C663 1.389 . S
C663 C662 1.389 . S
C663 C664 1.391 . S
C664 H649 0.925 1_554 S
C664 C659 1.390 . S
C664 C663 1.391 . S
H665 C677 0.930 . S
H666 C679 0.930 . S
H667 C680 0.930 . S
H668 C684 0.959 . S
H669 C684 0.959 . S
H670 C684 0.961 . S
H671 C685 0.960 . S
H672 C685 0.961 . S
H673 C685 0.959 . S
H674 C688 0.929 . S
H675 C689 0.931 . S
H676 C691 0.930 . S
C677 H665 0.930 . S
C677 C678 1.399 . S
C677 C682 1.399 . S
C678 C677 1.399 . S
C678 C679 1.376 1_554 S
C679 H666 0.930 . S
C679 C678 1.376 1_556 S
C679 C680 1.388 . S
C680 H667 0.930 . S
C680 C679 1.388 . S
C680 C681 1.390 1_556 S
C681 C680 1.390 1_554 S
C681 C682 1.394 . S
C681 C687 1.465 . S
C682 C677 1.399 . S
C682 C681 1.394 . S
C682 C683 1.516 . S
C683 C682 1.516 . S
C683 C684 1.502 . S
C683 C685 1.561 . S
C683 C686 1.526 . S
C684 H668 0.959 . S
C684 H669 0.959 . S
C684 H670 0.961 . S
C684 C683 1.502 . S
C685 H671 0.960 . S
C685 H672 0.961 . S
C685 H673 0.959 . S
C685 C683 1.561 . S
C686 C683 1.526 . S
C686 C687 1.396 . S
C686 C691 1.390 . S
C687 C681 1.465 . S
C687 C686 1.396 . S
C687 C688 1.399 1_554 S
C688 H674 0.929 . S
C688 C687 1.399 1_556 S
C688 C689 1.385 . S
C689 H675 0.931 . S
C689 C688 1.385 . S
C689 C690 1.389 1_556 S
C690 C689 1.389 1_554 S
C690 C691 1.387 . S
C691 H676 0.930 . S
C691 C686 1.390 . S
C691 C690 1.387 . S
H692 C704 0.930 . S
H693 C706 0.930 . S
H694 C707 0.930 . S
H695 C711 0.959 . S
H696 C711 0.959 . S
H697 C711 0.961 . S
H698 C712 0.960 . S
H699 C712 0.961 . S
H700 C712 0.959 . S
H701 C715 0.929 . S
H702 C716 0.931 . S
H703 C718 0.930 . S
C704 H692 0.930 . S
C704 C705 1.399 . S
C704 C709 1.399 . S
C705 C704 1.399 . S
C705 C706 1.376 . S
C706 H693 0.930 . S
C706 C705 1.376 . S
C706 C707 1.388 . S
C707 H694 0.930 . S
C707 C706 1.388 . S
C707 C708 1.390 . S
C708 C707 1.390 . S
C708 C709 1.394 . S
C708 C714 1.465 . S
C709 C704 1.399 . S
C709 C708 1.394 . S
C709 C710 1.516 . S
C710 C709 1.516 . S
C710 C711 1.502 . S
C710 C712 1.561 . S
C710 C713 1.526 . S
C711 H695 0.959 . S
C711 H696 0.959 . S
C711 H697 0.961 . S
C711 C710 1.502 . S
C712 H698 0.960 . S
C712 H699 0.961 . S
C712 H700 0.959 . S
C712 C710 1.561 . S
C713 C710 1.526 . S
C713 C714 1.396 . S
C713 C718 1.390 . S
C714 C708 1.465 . S
C714 C713 1.396 . S
C714 C715 1.399 . S
C715 H701 0.929 . S
C715 C714 1.399 . S
C715 C716 1.385 . S
C716 H702 0.931 . S
C716 C715 1.385 . S
C716 C717 1.389 . S
C717 C716 1.389 . S
C717 C718 1.387 . S
C718 H703 0.930 . S
C718 C713 1.390 . S
C718 C717 1.387 . S
H719 C731 0.930 . S
H720 C733 0.930 . S
H721 C734 0.930 . S
H722 C738 0.959 . S
H723 C738 0.959 . S
H724 C738 0.961 . S
H725 C739 0.960 . S
H726 C739 0.961 . S
H727 C739 0.959 . S
H728 C742 0.929 . S
H729 C743 0.931 . S
H730 C745 0.930 . S
C731 H719 0.930 . S
C731 C732 1.399 . S
C731 C736 1.399 . S
C732 C731 1.399 . S
C732 C733 1.376 . S
C733 H720 0.930 . S
C733 C732 1.376 . S
C733 C734 1.388 . S
C734 H721 0.930 . S
C734 C733 1.388 . S
C734 C735 1.390 . S
C735 C734 1.390 . S
C735 C736 1.394 . S
C735 C741 1.465 . S
C736 C731 1.399 . S
C736 C735 1.394 . S
C736 C737 1.516 . S
C737 C736 1.516 . S
C737 C738 1.502 . S
C737 C739 1.561 . S
C737 C740 1.526 . S
C738 H722 0.959 . S
C738 H723 0.959 . S
C738 H724 0.961 . S
C738 C737 1.502 . S
C739 H725 0.960 . S
C739 H726 0.961 . S
C739 H727 0.959 . S
C739 C737 1.561 . S
C740 C737 1.526 . S
C740 C741 1.396 . S
C740 C745 1.390 . S
C741 C735 1.465 . S
C741 C740 1.396 . S
C741 C742 1.399 . S
C742 H728 0.929 . S
C742 C741 1.399 . S
C742 C743 1.385 . S
C743 H729 0.931 . S
C743 C742 1.385 . S
C743 C744 1.389 . S
C744 C743 1.389 . S
C744 C745 1.387 . S
C745 H730 0.930 . S
C745 C740 1.390 . S
C745 C744 1.387 . S
H746 C758 0.930 . S
H747 C760 0.930 . S
H748 C761 0.930 . S
H749 C765 0.959 . S
H750 C765 0.959 . S
H751 C765 0.961 . S
H752 C766 0.960 . S
H753 C766 0.961 . S
H754 C766 0.959 . S
H755 C769 0.929 . S
H756 C770 0.931 . S
H757 C772 0.930 . S
C758 H746 0.930 . S
C758 C759 1.399 . S
C758 C763 1.399 . S
C759 C758 1.399 . S
C759 C760 1.376 . S
C760 H747 0.930 . S
C760 C759 1.376 . S
C760 C761 1.388 . S
C761 H748 0.930 . S
C761 C760 1.388 . S
C761 C762 1.390 . S
C762 C761 1.390 . S
C762 C763 1.394 . S
C762 C768 1.465 . S
C763 C758 1.399 . S
C763 C762 1.394 . S
C763 C764 1.516 . S
C764 C763 1.516 . S
C764 C765 1.502 . S
C764 C766 1.561 . S
C764 C767 1.526 . S
C765 H749 0.959 . S
C765 H750 0.959 . S
C765 H751 0.961 . S
C765 C764 1.502 . S
C766 H752 0.960 . S
C766 H753 0.961 . S
C766 H754 0.959 . S
C766 C764 1.561 . S
C767 C764 1.526 . S
C767 C768 1.396 . S
C767 C772 1.390 . S
C768 C762 1.465 . S
C768 C767 1.396 . S
C768 C769 1.399 . S
C769 H755 0.929 . S
C769 C768 1.399 . S
C769 C770 1.385 . S
C770 H756 0.931 . S
C770 C769 1.385 . S
C770 C771 1.389 . S
C771 C770 1.389 . S
C771 C772 1.387 . S
C772 H757 0.930 . S
C772 C767 1.390 . S
C772 C771 1.387 . S
H773 C785 0.930 . S
H774 C787 0.930 . S
H775 C788 0.930 . S
H776 C792 0.959 . S
H777 C792 0.959 . S
H778 C792 0.961 . S
H779 C793 0.960 . S
H780 C793 0.961 . S
H781 C793 0.959 . S
H782 C796 0.929 . S
H783 C797 0.931 . S
H784 C799 0.930 . S
C785 H773 0.930 . S
C785 C786 1.399 . S
C785 C790 1.399 . S
C786 C785 1.399 . S
C786 C787 1.376 . S
C787 H774 0.930 . S
C787 C786 1.376 . S
C787 C788 1.388 . S
C788 H775 0.930 . S
C788 C787 1.388 . S
C788 C789 1.390 . S
C789 C788 1.390 . S
C789 C790 1.394 . S
C789 C795 1.465 . S
C790 C785 1.399 . S
C790 C789 1.394 . S
C790 C791 1.516 . S
C791 C790 1.516 . S
C791 C792 1.502 . S
C791 C793 1.561 . S
C791 C794 1.526 . S
C792 H776 0.959 . S
C792 H777 0.959 . S
C792 H778 0.961 . S
C792 C791 1.502 . S
C793 H779 0.960 . S
C793 H780 0.961 . S
C793 H781 0.959 . S
C793 C791 1.561 . S
C794 C791 1.526 . S
C794 C795 1.396 . S
C794 C799 1.390 . S
C795 C789 1.465 . S
C795 C794 1.396 . S
C795 C796 1.399 . S
C796 H782 0.929 . S
C796 C795 1.399 . S
C796 C797 1.385 . S
C797 H783 0.931 . S
C797 C796 1.385 . S
C797 C798 1.389 . S
C798 C797 1.389 . S
C798 C799 1.387 . S
C799 H784 0.930 . S
C799 C794 1.390 . S
C799 C798 1.387 . S
H800 C812 0.930 . S
H801 C814 0.930 . S
H802 C815 0.930 . S
H803 C819 0.959 . S
H804 C819 0.959 . S
H805 C819 0.961 . S
H806 C820 0.960 . S
H807 C820 0.961 . S
H808 C820 0.959 . S
H809 C823 0.929 . S
H810 C824 0.931 . S
H811 C826 0.930 . S
C812 H800 0.930 . S
C812 C813 1.399 . S
C812 C817 1.399 . S
C813 C812 1.399 . S
C813 C814 1.376 . S
C814 H801 0.930 . S
C814 C813 1.376 . S
C814 C815 1.388 . S
C815 H802 0.930 . S
C815 C814 1.388 . S
C815 C816 1.390 . S
C816 C815 1.390 . S
C816 C817 1.394 . S
C816 C822 1.465 . S
C817 C812 1.399 . S
C817 C816 1.394 . S
C817 C818 1.516 . S
C818 C817 1.516 . S
C818 C819 1.502 . S
C818 C820 1.561 . S
C818 C821 1.526 . S
C819 H803 0.959 . S
C819 H804 0.959 . S
C819 H805 0.961 . S
C819 C818 1.502 . S
C820 H806 0.960 . S
C820 H807 0.961 . S
C820 H808 0.959 . S
C820 C818 1.561 . S
C821 C818 1.526 . S
C821 C822 1.396 . S
C821 C826 1.390 . S
C822 C816 1.465 . S
C822 C821 1.396 . S
C822 C823 1.399 . S
C823 H809 0.929 . S
C823 C822 1.399 . S
C823 C824 1.385 . S
C824 H810 0.931 . S
C824 C823 1.385 . S
C824 C825 1.389 . S
C825 C824 1.389 . S
C825 C826 1.387 . S
C826 H811 0.930 . S
C826 C821 1.390 . S
C826 C825 1.387 . S
H827 C839 0.930 1_565 S
H828 C841 0.930 . S
H829 C842 0.930 . S
H830 C846 0.959 . S
H831 C846 0.959 . S
H832 C846 0.961 . S
H833 C847 0.984 . S
H834 C847 0.980 . S
H835 C847 0.930 1_545 S
H836 C850 0.929 . S
H837 C851 0.931 . S
H838 C853 0.930 . S
C839 H827 0.930 1_545 S
C839 C840 1.399 . S
C839 C844 1.399 . S
C840 C839 1.399 . S
C840 C841 1.376 . S
C841 H828 0.930 . S
C841 C840 1.376 . S
C841 C842 1.388 . S
C842 H829 0.930 . S
C842 C841 1.388 . S
C842 C843 1.390 . S
C843 C842 1.390 . S
C843 C844 1.394 . S
C843 C849 1.465 . S
C844 C839 1.399 . S
C844 C843 1.394 . S
C844 C845 1.516 . S
C845 C844 1.516 . S
C845 C846 1.502 1_545 S
C845 C847 1.549 1_545 S
C845 C848 1.526 . S
C846 H830 0.959 . S
C846 H831 0.959 . S
C846 H832 0.961 . S
C846 C845 1.502 1_565 S
C847 H833 0.984 . S
C847 H834 0.980 . S
C847 H835 0.930 1_565 S
C847 C845 1.549 1_565 S
C848 C845 1.526 . S
C848 C849 1.396 . S
C848 C853 1.390 . S
C849 C843 1.465 . S
C849 C848 1.396 . S
C849 C850 1.399 . S
C850 H836 0.929 . S
C850 C849 1.399 . S
C850 C851 1.385 . S
C851 H837 0.931 . S
C851 C850 1.385 . S
C851 C852 1.389 . S
C852 C851 1.389 . S
C852 C853 1.387 . S
C853 H838 0.930 . S
C853 C848 1.390 . S
C853 C852 1.387 . S
H854 C866 0.930 . S
H855 C868 0.930 . S
H856 C869 0.930 . S
H857 C873 0.959 . S
H858 C873 0.959 . S
H859 C873 0.961 . S
H860 C874 0.960 . S
H861 C874 0.961 . S
H862 C874 0.953 1_455 S
H863 C877 0.929 . S
H864 C878 0.931 . S
H865 C880 0.930 . S
C866 H854 0.930 . S
C866 C867 1.399 . S
C866 C871 1.399 . S
C867 C866 1.399 . S
C867 C868 1.376 . S
C868 H855 0.930 . S
C868 C867 1.376 . S
C868 C869 1.388 . S
C869 H856 0.930 . S
C869 C868 1.388 . S
C869 C870 1.390 . S
C870 C869 1.390 . S
C870 C871 1.394 . S
C870 C876 1.465 . S
C871 C866 1.399 . S
C871 C870 1.394 . S
C871 C872 1.516 . S
C872 C871 1.516 . S
C872 C873 1.502 . S
C872 C874 1.561 . S
C872 C875 1.526 . S
C873 H857 0.959 . S
C873 H858 0.959 . S
C873 H859 0.961 . S
C873 C872 1.502 . S
C874 H860 0.960 . S
C874 H861 0.961 . S
C874 H862 0.953 1_655 S
C874 C872 1.561 . S
C875 C872 1.526 . S
C875 C876 1.396 . S
C875 C880 1.390 . S
C876 C870 1.465 . S
C876 C875 1.396 . S
C876 C877 1.399 . S
C877 H863 0.929 . S
C877 C876 1.399 . S
C877 C878 1.385 . S
C878 H864 0.931 . S
C878 C877 1.385 . S
C878 C879 1.389 . S
C879 C878 1.389 . S
C879 C880 1.387 . S
C880 H865 0.930 . S
C880 C875 1.390 . S
C880 C879 1.387 . S
H881 C893 0.930 . S
H882 C895 0.930 . S
H883 C896 0.930 . S
H884 C900 0.959 1_545 S
H885 C900 0.959 . S
H886 C900 0.961 . S
H887 C901 0.960 . S
H888 C901 0.961 . S
H889 C901 0.959 . S
H890 C904 0.929 . S
H891 C905 0.931 . S
H892 C907 0.930 . S
C893 H881 0.930 . S
C893 C894 1.399 . S
C893 C898 1.399 . S
C894 C893 1.399 . S
C894 C895 1.376 . S
C895 H882 0.930 . S
C895 C894 1.376 . S
C895 C896 1.388 . S
C896 H883 0.930 . S
C896 C895 1.388 . S
C896 C897 1.390 . S
C897 C896 1.390 . S
C897 C898 1.394 . S
C897 C903 1.465 . S
C898 C893 1.399 . S
C898 C897 1.394 . S
C898 C899 1.516 . S
C899 C898 1.516 . S
C899 C900 1.502 . S
C899 C901 1.561 . S
C899 C902 1.526 . S
C900 H884 0.959 1_565 S
C900 H885 0.959 . S
C900 H886 0.961 . S
C900 C899 1.502 . S
C901 H887 0.960 . S
C901 H888 0.961 . S
C901 H889 0.959 . S
C901 C899 1.561 . S
C902 C899 1.526 . S
C902 C903 1.396 . S
C902 C907 1.390 . S
C903 C897 1.465 . S
C903 C902 1.396 . S
C903 C904 1.399 . S
C904 H890 0.929 . S
C904 C903 1.399 . S
C904 C905 1.385 . S
C905 H891 0.931 . S
C905 C904 1.385 . S
C905 C906 1.389 . S
C906 C905 1.389 . S
C906 C907 1.387 . S
C907 H892 0.930 . S
C907 C902 1.390 . S
C907 C906 1.387 . S
H908 C920 0.930 . S
H909 C922 0.930 1_545 S
H910 C923 0.930 1_545 S
H911 C927 0.959 . S
H912 C927 0.959 . S
H913 C927 0.961 . S
H914 C928 0.960 . S
H915 C928 0.961 . S
H916 C928 0.959 . S
H917 C931 0.929 1_545 S
H918 C932 0.931 . S
H919 C934 0.930 . S
C920 H908 0.930 . S
C920 C921 1.399 . S
C920 C925 1.399 . S
C921 C920 1.399 . S
C921 C922 1.376 . S
C922 H909 0.930 1_565 S
C922 C921 1.376 . S
C922 C923 1.388 . S
C923 H910 0.930 1_565 S
C923 C922 1.388 . S
C923 C924 1.390 . S
C924 C923 1.390 . S
C924 C925 1.394 . S
C924 C930 1.465 . S
C925 C920 1.399 . S
C925 C924 1.394 . S
C925 C926 1.516 . S
C926 C925 1.516 . S
C926 C927 1.502 . S
C926 C928 1.561 . S
C926 C929 1.526 . S
C927 H911 0.959 . S
C927 H912 0.959 . S
C927 H913 0.961 . S
C927 C926 1.502 . S
C928 H914 0.960 . S
C928 H915 0.961 . S
C928 H916 0.959 . S
C928 C926 1.561 . S
C929 C926 1.526 . S
C929 C930 1.396 . S
C929 C934 1.390 . S
C930 C924 1.465 . S
C930 C929 1.396 . S
C930 C931 1.399 . S
C931 H917 0.929 1_565 S
C931 C930 1.399 . S
C931 C932 1.385 . S
C932 H918 0.931 . S
C932 C931 1.385 . S
C932 C933 1.389 . S
C933 C932 1.389 . S
C933 C934 1.387 . S
C934 H919 0.930 . S
C934 C929 1.390 . S
C934 C933 1.387 . S
H935 C947 0.930 . S
H936 C949 0.930 . S
H937 C950 0.930 . S
H938 C954 0.959 . S
H939 C954 0.959 . S
H940 C954 0.961 . S
H941 C955 0.960 . S
H942 C955 0.961 . S
H943 C955 0.959 . S
H944 C958 0.929 . S
H945 C959 0.931 . S
H946 C961 0.930 . S
C947 H935 0.930 . S
C947 C948 1.399 . S
C947 C952 1.399 . S
C948 C947 1.399 . S
C948 C949 1.376 . S
C949 H936 0.930 . S
C949 C948 1.376 . S
C949 C950 1.388 . S
C950 H937 0.930 . S
C950 C949 1.388 . S
C950 C951 1.390 . S
C951 C950 1.390 . S
C951 C952 1.394 . S
C951 C957 1.465 . S
C952 C947 1.399 . S
C952 C951 1.394 . S
C952 C953 1.516 . S
C953 C952 1.516 . S
C953 C954 1.502 . S
C953 C955 1.561 . S
C953 C956 1.526 . S
C954 H938 0.959 . S
C954 H939 0.959 . S
C954 H940 0.961 . S
C954 C953 1.502 . S
C955 H941 0.960 . S
C955 H942 0.961 . S
C955 H943 0.959 . S
C955 C953 1.561 . S
C956 C953 1.526 . S
C956 C957 1.396 . S
C956 C961 1.390 . S
C957 C951 1.465 . S
C957 C956 1.396 . S
C957 C958 1.399 . S
C958 H944 0.929 . S
C958 C957 1.399 . S
C958 C959 1.385 . S
C959 H945 0.931 . S
C959 C958 1.385 . S
C959 C960 1.389 . S
C960 C959 1.389 . S
C960 C961 1.387 . S
C961 H946 0.930 . S
C961 C956 1.390 . S
C961 C960 1.387 . S
H962 C974 0.922 1_565 S
H963 C976 0.930 . S
H964 C977 0.930 . S
H965 C981 0.967 . S
H966 C981 0.954 1_565 S
H967 C981 0.955 1_565 S
H968 C982 0.960 . S
H969 C982 0.961 . S
H970 C982 0.959 . S
H971 C985 0.929 . S
H972 C986 0.931 . S
H973 C988 0.930 . S
C974 H962 0.922 1_545 S
C974 C975 1.399 . S
C974 C979 1.399 . S
C975 C974 1.399 . S
C975 C976 1.376 . S
C976 H963 0.930 . S
C976 C975 1.376 . S
C976 C977 1.388 . S
C977 H964 0.930 . S
C977 C976 1.388 . S
C977 C978 1.390 . S
C978 C977 1.390 . S
C978 C979 1.394 . S
C978 C984 1.465 . S
C979 C974 1.399 . S
C979 C978 1.394 . S
C979 C980 1.516 . S
C980 C979 1.516 . S
C980 C981 1.505 . S
C980 C982 1.561 1_545 S
C980 C983 1.526 . S
C981 H965 0.967 . S
C981 H966 0.954 1_545 S
C981 H967 0.955 1_545 S
C981 C980 1.505 . S
C982 H968 0.960 . S
C982 H969 0.961 . S
C982 H970 0.959 . S
C982 C980 1.561 1_565 S
C983 C980 1.526 . S
C983 C984 1.396 . S
C983 C988 1.390 . S
C984 C978 1.465 . S
C984 C983 1.396 . S
C984 C985 1.399 . S
C985 H971 0.929 . S
C985 C984 1.399 . S
C985 C986 1.385 . S
C986 H972 0.931 . S
C986 C985 1.385 . S
C986 C987 1.389 . S
C987 C986 1.389 . S
C987 C988 1.387 . S
C988 H973 0.930 . S
C988 C983 1.390 . S
C988 C987 1.387 . S
H989 C1001 0.930 . S
H990 C1003 0.930 . S
H991 C1004 0.930 . S
H992 C1008 0.959 . S
H993 C1008 0.959 . S
H994 C1008 0.961 . S
H995 C1009 0.960 . S
H996 C1009 0.961 . S
H997 C1009 0.959 . S
H998 C1012 0.929 . S
H999 C1013 0.931 . S
H1000 C1015 0.930 . S
C1001 H989 0.930 . S
C1001 C1002 1.399 . S
C1001 C1006 1.399 . S
C1002 C1001 1.399 . S
C1002 C1003 1.376 . S
C1003 H990 0.930 . S
C1003 C1002 1.376 . S
C1003 C1004 1.388 . S
C1004 H991 0.930 . S
C1004 C1003 1.388 . S
C1004 C1005 1.390 . S
C1005 C1004 1.390 . S
C1005 C1006 1.394 . S
C1005 C1011 1.465 . S
C1006 C1001 1.399 . S
C1006 C1005 1.394 . S
C1006 C1007 1.516 . S
C1007 C1006 1.516 . S
C1007 C1008 1.502 . S
C1007 C1009 1.561 . S
C1007 C1010 1.526 . S
C1008 H992 0.959 . S
C1008 H993 0.959 . S
C1008 H994 0.961 . S
C1008 C1007 1.502 . S
C1009 H995 0.960 . S
C1009 H996 0.961 . S
C1009 H997 0.959 . S
C1009 C1007 1.561 . S
C1010 C1007 1.526 . S
C1010 C1011 1.396 . S
C1010 C1015 1.390 . S
C1011 C1005 1.465 . S
C1011 C1010 1.396 . S
C1011 C1012 1.399 . S
C1012 H998 0.929 . S
C1012 C1011 1.399 . S
C1012 C1013 1.385 . S
C1013 H999 0.931 . S
C1013 C1012 1.385 . S
C1013 C1014 1.389 . S
C1014 C1013 1.389 . S
C1014 C1015 1.387 . S
C1015 H1000 0.930 . S
C1015 C1010 1.390 . S
C1015 C1014 1.387 . S
H1016 C1028 0.930 . S
H1017 C1030 0.930 . S
H1018 C1031 0.930 . S
H1019 C1035 0.959 . S
H1020 C1035 0.959 . S
H1021 C1035 0.961 . S
H1022 C1036 0.960 . S
H1023 C1036 0.961 . S
H1024 C1036 0.959 . S
H1025 C1039 0.929 . S
H1026 C1040 0.931 . S
H1027 C1042 0.930 . S
C1028 H1016 0.930 . S
C1028 C1029 1.399 . S
C1028 C1033 1.399 . S
C1029 C1028 1.399 . S
C1029 C1030 1.376 . S
C1030 H1017 0.930 . S
C1030 C1029 1.376 . S
C1030 C1031 1.388 . S
C1031 H1018 0.930 . S
C1031 C1030 1.388 . S
C1031 C1032 1.390 . S
C1032 C1031 1.390 . S
C1032 C1033 1.394 . S
C1032 C1038 1.465 . S
C1033 C1028 1.399 . S
C1033 C1032 1.394 . S
C1033 C1034 1.516 . S
C1034 C1033 1.516 . S
C1034 C1035 1.502 . S
C1034 C1036 1.561 . S
C1034 C1037 1.526 . S
C1035 H1019 0.959 . S
C1035 H1020 0.959 . S
C1035 H1021 0.961 . S
C1035 C1034 1.502 . S
C1036 H1022 0.960 . S
C1036 H1023 0.961 . S
C1036 H1024 0.959 . S
C1036 C1034 1.561 . S
C1037 C1034 1.526 . S
C1037 C1038 1.396 . S
C1037 C1042 1.390 . S
C1038 C1032 1.465 . S
C1038 C1037 1.396 . S
C1038 C1039 1.399 . S
C1039 H1025 0.929 . S
C1039 C1038 1.399 . S
C1039 C1040 1.385 . S
C1040 H1026 0.931 . S
C1040 C1039 1.385 . S
C1040 C1041 1.389 . S
C1041 C1040 1.389 . S
C1041 C1042 1.387 . S
C1042 H1027 0.930 . S
C1042 C1037 1.390 . S
C1042 C1041 1.387 . S
H1043 C1055 0.930 . S
H1044 C1057 0.930 . S
H1045 C1058 0.930 . S
H1046 C1062 0.959 . S
H1047 C1062 0.959 . S
H1048 C1062 0.961 . S
H1049 C1063 0.960 . S
H1050 C1063 0.961 . S
H1051 C1063 0.959 . S
H1052 C1066 0.929 . S
H1053 C1067 0.931 . S
H1054 C1069 0.930 . S
C1055 H1043 0.930 . S
C1055 C1056 1.399 . S
C1055 C1060 1.399 . S
C1056 C1055 1.399 . S
C1056 C1057 1.376 . S
C1057 H1044 0.930 . S
C1057 C1056 1.376 . S
C1057 C1058 1.388 . S
C1058 H1045 0.930 . S
C1058 C1057 1.388 . S
C1058 C1059 1.390 . S
C1059 C1058 1.390 . S
C1059 C1060 1.394 . S
C1059 C1065 1.465 . S
C1060 C1055 1.399 . S
C1060 C1059 1.394 . S
C1060 C1061 1.516 . S
C1061 C1060 1.516 . S
C1061 C1062 1.502 . S
C1061 C1063 1.561 . S
C1061 C1064 1.526 . S
C1062 H1046 0.959 . S
C1062 H1047 0.959 . S
C1062 H1048 0.961 . S
C1062 C1061 1.502 . S
C1063 H1049 0.960 . S
C1063 H1050 0.961 . S
C1063 H1051 0.959 . S
C1063 C1061 1.561 . S
C1064 C1061 1.526 . S
C1064 C1065 1.396 . S
C1064 C1069 1.390 . S
C1065 C1059 1.465 . S
C1065 C1064 1.396 . S
C1065 C1066 1.399 . S
C1066 H1052 0.929 . S
C1066 C1065 1.399 . S
C1066 C1067 1.385 . S
C1067 H1053 0.931 . S
C1067 C1066 1.385 . S
C1067 C1068 1.389 . S
C1068 C1067 1.389 . S
C1068 C1069 1.387 . S
C1069 H1054 0.930 . S
C1069 C1064 1.390 . S
C1069 C1068 1.387 . S
H1070 C1082 0.930 . S
H1071 C1084 0.930 . S
H1072 C1085 0.930 . S
H1073 C1089 0.959 . S
H1074 C1089 0.959 . S
H1075 C1089 0.961 . S
H1076 C1090 0.960 . S
H1077 C1090 0.961 . S
H1078 C1090 0.959 . S
H1079 C1093 0.929 . S
H1080 C1094 0.931 . S
H1081 C1096 0.930 . S
C1082 H1070 0.930 . S
C1082 C1083 1.399 . S
C1082 C1087 1.399 . S
C1083 C1082 1.399 . S
C1083 C1084 1.376 . S
C1084 H1071 0.930 . S
C1084 C1083 1.376 . S
C1084 C1085 1.388 . S
C1085 H1072 0.930 . S
C1085 C1084 1.388 . S
C1085 C1086 1.390 . S
C1086 C1085 1.390 . S
C1086 C1087 1.394 . S
C1086 C1092 1.465 . S
C1087 C1082 1.399 . S
C1087 C1086 1.394 . S
C1087 C1088 1.516 . S
C1088 C1087 1.516 . S
C1088 C1089 1.502 . S
C1088 C1090 1.561 . S
C1088 C1091 1.526 . S
C1089 H1073 0.959 . S
C1089 H1074 0.959 . S
C1089 H1075 0.961 . S
C1089 C1088 1.502 . S
C1090 H1076 0.960 . S
C1090 H1077 0.961 . S
C1090 H1078 0.959 . S
C1090 C1088 1.561 . S
C1091 C1088 1.526 . S
C1091 C1092 1.396 . S
C1091 C1096 1.390 . S
C1092 C1086 1.465 . S
C1092 C1091 1.396 . S
C1092 C1093 1.399 . S
C1093 H1079 0.929 . S
C1093 C1092 1.399 . S
C1093 C1094 1.385 . S
C1094 H1080 0.931 . S
C1094 C1093 1.385 . S
C1094 C1095 1.389 . S
C1095 C1094 1.389 . S
C1095 C1096 1.387 . S
C1096 H1081 0.930 . S
C1096 C1091 1.390 . S
C1096 C1095 1.387 . S
H1097 C1109 0.930 . S
H1098 C1111 0.930 . S
H1099 C1112 0.930 . S
H1100 C1116 0.959 . S
H1101 C1116 0.959 . S
H1102 C1116 0.961 . S
H1103 C1117 0.960 . S
H1104 C1117 0.961 . S
H1105 C1117 0.959 . S
H1106 C1120 0.929 . S
H1107 C1121 0.931 . S
H1108 C1123 0.930 . S
C1109 H1097 0.930 . S
C1109 C1110 1.399 . S
C1109 C1114 1.399 . S
C1110 C1109 1.399 . S
C1110 C1111 1.376 . S
C1111 H1098 0.930 . S
C1111 C1110 1.376 . S
C1111 C1112 1.388 . S
C1112 H1099 0.930 . S
C1112 C1111 1.388 . S
C1112 C1113 1.390 . S
C1113 C1112 1.390 . S
C1113 C1114 1.394 . S
C1113 C1119 1.465 . S
C1114 C1109 1.399 . S
C1114 C1113 1.394 . S
C1114 C1115 1.516 . S
C1115 C1114 1.516 . S
C1115 C1116 1.502 . S
C1115 C1117 1.561 . S
C1115 C1118 1.526 . S
C1116 H1100 0.959 . S
C1116 H1101 0.959 . S
C1116 H1102 0.961 . S
C1116 C1115 1.502 . S
C1117 H1103 0.960 . S
C1117 H1104 0.961 . S
C1117 H1105 0.959 . S
C1117 C1115 1.561 . S
C1118 C1115 1.526 . S
C1118 C1119 1.396 . S
C1118 C1123 1.390 . S
C1119 C1113 1.465 . S
C1119 C1118 1.396 . S
C1119 C1120 1.399 . S
C1120 H1106 0.929 . S
C1120 C1119 1.399 . S
C1120 C1121 1.385 . S
C1121 H1107 0.931 . S
C1121 C1120 1.385 . S
C1121 C1122 1.389 . S
C1122 C1121 1.389 . S
C1122 C1123 1.387 . S
C1123 H1108 0.930 . S
C1123 C1118 1.390 . S
C1123 C1122 1.387 . S
H1124 C1136 0.930 . S
H1125 C1138 0.930 . S
H1126 C1139 0.930 . S
H1127 C1143 0.959 . S
H1128 C1143 0.959 . S
H1129 C1143 0.961 . S
H1130 C1144 0.960 . S
H1131 C1144 0.961 . S
H1132 C1144 0.959 . S
H1133 C1147 0.929 . S
H1134 C1148 0.931 . S
H1135 C1150 0.930 . S
C1136 H1124 0.930 . S
C1136 C1137 1.399 . S
C1136 C1141 1.399 . S
C1137 C1136 1.399 . S
C1137 C1138 1.376 . S
C1138 H1125 0.930 . S
C1138 C1137 1.376 . S
C1138 C1139 1.388 . S
C1139 H1126 0.930 . S
C1139 C1138 1.388 . S
C1139 C1140 1.390 . S
C1140 C1139 1.390 . S
C1140 C1141 1.394 . S
C1140 C1146 1.465 . S
C1141 C1136 1.399 . S
C1141 C1140 1.394 . S
C1141 C1142 1.516 . S
C1142 C1141 1.516 . S
C1142 C1143 1.502 . S
C1142 C1144 1.561 . S
C1142 C1145 1.526 . S
C1143 H1127 0.959 . S
C1143 H1128 0.959 . S
C1143 H1129 0.961 . S
C1143 C1142 1.502 . S
C1144 H1130 0.960 . S
C1144 H1131 0.961 . S
C1144 H1132 0.959 . S
C1144 C1142 1.561 . S
C1145 C1142 1.526 . S
C1145 C1146 1.396 . S
C1145 C1150 1.390 . S
C1146 C1140 1.465 . S
C1146 C1145 1.396 . S
C1146 C1147 1.399 . S
C1147 H1133 0.929 . S
C1147 C1146 1.399 . S
C1147 C1148 1.385 . S
C1148 H1134 0.931 . S
C1148 C1147 1.385 . S
C1148 C1149 1.389 . S
C1149 C1148 1.389 . S
C1149 C1150 1.387 . S
C1150 H1135 0.930 . S
C1150 C1145 1.390 . S
C1150 C1149 1.387 . S
H1151 C1163 0.930 . S
H1152 C1165 0.930 . S
H1153 C1166 0.930 . S
H1154 C1170 0.959 . S
H1155 C1170 0.959 . S
H1156 C1170 0.961 . S
H1157 C1171 0.960 . S
H1158 C1171 0.961 . S
H1159 C1171 0.959 . S
H1160 C1174 0.929 . S
H1161 C1175 0.931 . S
H1162 C1177 0.930 . S
C1163 H1151 0.930 . S
C1163 C1164 1.399 . S
C1163 C1168 1.399 . S
C1164 C1163 1.399 . S
C1164 C1165 1.376 . S
C1165 H1152 0.930 . S
C1165 C1164 1.376 . S
C1165 C1166 1.388 . S
C1166 H1153 0.930 . S
C1166 C1165 1.388 . S
C1166 C1167 1.390 . S
C1167 C1166 1.390 . S
C1167 C1168 1.394 . S
C1167 C1173 1.465 . S
C1168 C1163 1.399 . S
C1168 C1167 1.394 . S
C1168 C1169 1.516 . S
C1169 C1168 1.516 . S
C1169 C1170 1.502 . S
C1169 C1171 1.561 . S
C1169 C1172 1.526 . S
C1170 H1154 0.959 . S
C1170 H1155 0.959 . S
C1170 H1156 0.961 . S
C1170 C1169 1.502 . S
C1171 H1157 0.960 . S
C1171 H1158 0.961 . S
C1171 H1159 0.959 . S
C1171 C1169 1.561 . S
C1172 C1169 1.526 . S
C1172 C1173 1.396 . S
C1172 C1177 1.390 . S
C1173 C1167 1.465 . S
C1173 C1172 1.396 . S
C1173 C1174 1.399 . S
C1174 H1160 0.929 . S
C1174 C1173 1.399 . S
C1174 C1175 1.385 . S
C1175 H1161 0.931 . S
C1175 C1174 1.385 . S
C1175 C1176 1.389 . S
C1176 C1175 1.389 . S
C1176 C1177 1.387 . S
C1177 H1162 0.930 . S
C1177 C1172 1.390 . S
C1177 C1176 1.387 . S
H1178 C1190 0.930 . S
H1179 C1192 0.930 . S
H1180 C1193 0.930 . S
H1181 C1197 0.959 . S
H1182 C1197 0.959 . S
H1183 C1197 0.961 . S
H1184 C1198 0.960 . S
H1185 C1198 0.961 . S
H1186 C1198 0.959 . S
H1187 C1201 0.929 . S
H1188 C1202 0.931 . S
H1189 C1204 0.930 . S
C1190 H1178 0.930 . S
C1190 C1191 1.399 . S
C1190 C1195 1.399 . S
C1191 C1190 1.399 . S
C1191 C1192 1.376 . S
C1192 H1179 0.930 . S
C1192 C1191 1.376 . S
C1192 C1193 1.388 . S
C1193 H1180 0.930 . S
C1193 C1192 1.388 . S
C1193 C1194 1.390 . S
C1194 C1193 1.390 . S
C1194 C1195 1.394 . S
C1194 C1200 1.465 . S
C1195 C1190 1.399 . S
C1195 C1194 1.394 . S
C1195 C1196 1.516 . S
C1196 C1195 1.516 . S
C1196 C1197 1.502 . S
C1196 C1198 1.561 . S
C1196 C1199 1.526 . S
C1197 H1181 0.959 . S
C1197 H1182 0.959 . S
C1197 H1183 0.961 . S
C1197 C1196 1.502 . S
C1198 H1184 0.960 . S
C1198 H1185 0.961 . S
C1198 H1186 0.959 . S
C1198 C1196 1.561 . S
C1199 C1196 1.526 . S
C1199 C1200 1.396 . S
C1199 C1204 1.390 . S
C1200 C1194 1.465 . S
C1200 C1199 1.396 . S
C1200 C1201 1.399 . S
C1201 H1187 0.929 . S
C1201 C1200 1.399 . S
C1201 C1202 1.385 . S
C1202 H1188 0.931 . S
C1202 C1201 1.385 . S
C1202 C1203 1.389 . S
C1203 C1202 1.389 . S
C1203 C1204 1.387 . S
C1204 H1189 0.930 . S
C1204 C1199 1.390 . S
C1204 C1203 1.387 . S
H1205 C1217 0.930 . S
H1206 C1219 0.930 . S
H1207 C1220 0.930 . S
H1208 C1224 0.959 . S
H1209 C1224 0.959 . S
H1210 C1224 0.961 . S
H1211 C1225 0.960 . S
H1212 C1225 0.961 . S
H1213 C1225 0.959 . S
H1214 C1228 0.929 . S
H1215 C1229 0.931 . S
H1216 C1231 0.930 . S
C1217 H1205 0.930 . S
C1217 C1218 1.399 . S
C1217 C1222 1.399 . S
C1218 C1217 1.399 . S
C1218 C1219 1.376 . S
C1219 H1206 0.930 . S
C1219 C1218 1.376 . S
C1219 C1220 1.388 . S
C1220 H1207 0.930 . S
C1220 C1219 1.388 . S
C1220 C1221 1.390 . S
C1221 C1220 1.390 . S
C1221 C1222 1.394 . S
C1221 C1227 1.465 . S
C1222 C1217 1.399 . S
C1222 C1221 1.394 . S
C1222 C1223 1.516 . S
C1223 C1222 1.516 . S
C1223 C1224 1.502 . S
C1223 C1225 1.561 . S
C1223 C1226 1.526 . S
C1224 H1208 0.959 . S
C1224 H1209 0.959 . S
C1224 H1210 0.961 . S
C1224 C1223 1.502 . S
C1225 H1211 0.960 . S
C1225 H1212 0.961 . S
C1225 H1213 0.959 . S
C1225 C1223 1.561 . S
C1226 C1223 1.526 . S
C1226 C1227 1.396 . S
C1226 C1231 1.390 . S
C1227 C1221 1.465 . S
C1227 C1226 1.396 . S
C1227 C1228 1.399 . S
C1228 H1214 0.929 . S
C1228 C1227 1.399 . S
C1228 C1229 1.385 . S
C1229 H1215 0.931 . S
C1229 C1228 1.385 . S
C1229 C1230 1.389 . S
C1230 C1229 1.389 . S
C1230 C1231 1.387 . S
C1231 H1216 0.930 . S
C1231 C1226 1.390 . S
C1231 C1230 1.387 . S
C597 C45 1.647 . S
C609 C135 1.566 . S
C624 C30 1.626 . S
C636 C195 1.606 . S
C651 C39 1.648 . S
C663 C255 1.620 . S
C690 C315 1.655 . S
C678 C34 1.595 . S
C705 C97 1.641 . S
C717 C375 1.585 . S
C744 C435 1.586 . S
C732 C82 1.598 . S
C771 C495 1.612 . S
C759 C91 1.639 . S
C798 C555 1.612 . S
C786 C86 1.641 . S
C825 C484 1.562 . S
C813 C26 1.440 . S
C852 C544 1.539 . S
C840 C36 1.521 . S
C879 C345 1.427 . S
C867 C32 1.506 . S
C906 C405 1.509 . S
C894 C42 1.473 . S
C921 C18 1.567 . S
C933 C424 1.622 . S
C960 C465 1.584 . S
C948 C50 1.591 . S
C975 C4 1.552 . S
C987 C525 1.640 . S
C1002 C48 1.605 . S
C1014 C364 1.588 . S
C1041 C244 1.555 . S
C1029 C78 1.456 . S
C1056 C88 1.441 . S
C1068 C304 1.566 . S
C1095 C105 1.461 . S
C1083 C84 1.464 . S
C1122 C165 1.432 . S
C1110 C94 1.530 . S
C1149 C184 1.570 . S
C1137 C70 1.554 . S
C1176 C225 1.640 . S
C1164 C102 1.515 . S
C1191 C56 1.558 . S
C1203 C285 1.634 . S
C1218 C100 1.603 . S
C1230 C124 1.563 . S
