# Generated by pormake.
# Topology cml, (3,6)-cn, num edge types: 1
# Building blocks:
#     Node 0, Type 0, BuildingBlock: ESEHIV_clean_linker_0, # of connection points: 3
#     Node 1, Type 0, BuildingBlock: ESEHIV_clean_linker_0, # of connection points: 3
#     Node 2, Type 0, BuildingBlock: ESEHIV_clean_linker_0, # of connection points: 3
#     Node 3, Type 0, BuildingBlock: ESEHIV_clean_linker_0, # of connection points: 3
#     Node 4, Type 0, BuildingBlock: ESEHIV_clean_linker_0, # of connection points: 3
#     Node 5, Type 0, BuildingBlock: ESEHIV_clean_linker_0, # of connection points: 3
#     Node 6, Type 0, BuildingBlock: ESEHIV_clean_linker_0, # of connection points: 3
#     Node 7, Type 0, BuildingBlock: ESEHIV_clean_linker_0, # of connection points: 3
#     Node 8, Type 1, BuildingBlock: IZENUY_clean_sbu_0, # of connection points: 6
#     Node 9, Type 1, BuildingBlock: IZENUY_clean_sbu_0, # of connection points: 6
#     Node 10, Type 1, BuildingBlock: IZENUY_clean_sbu_0, # of connection points: 6
#     Node 11, Type 1, BuildingBlock: IZENUY_clean_sbu_0, # of connection points: 6
#     Edge 12, Type (0, 1), BuildingBlock: KIFKEQ_clean_linker_1, # of connection points: 2
#     Edge 13, Type (0, 1), BuildingBlock: KIFKEQ_clean_linker_1, # of connection points: 2
#     Edge 14, Type (0, 1), BuildingBlock: KIFKEQ_clean_linker_1, # of connection points: 2
#     Edge 15, Type (0, 1), BuildingBlock: KIFKEQ_clean_linker_1, # of connection points: 2
#     Edge 16, Type (0, 1), BuildingBlock: KIFKEQ_clean_linker_1, # of connection points: 2
#     Edge 17, Type (0, 1), BuildingBlock: KIFKEQ_clean_linker_1, # of connection points: 2
#     Edge 18, Type (0, 1), BuildingBlock: KIFKEQ_clean_linker_1, # of connection points: 2
#     Edge 19, Type (0, 1), BuildingBlock: KIFKEQ_clean_linker_1, # of connection points: 2
#     Edge 20, Type (0, 1), BuildingBlock: KIFKEQ_clean_linker_1, # of connection points: 2
#     Edge 21, Type (0, 1), BuildingBlock: KIFKEQ_clean_linker_1, # of connection points: 2
#     Edge 22, Type (0, 1), BuildingBlock: KIFKEQ_clean_linker_1, # of connection points: 2
#     Edge 23, Type (0, 1), BuildingBlock: KIFKEQ_clean_linker_1, # of connection points: 2
#     Edge 24, Type (0, 1), BuildingBlock: KIFKEQ_clean_linker_1, # of connection points: 2
#     Edge 25, Type (0, 1), BuildingBlock: KIFKEQ_clean_linker_1, # of connection points: 2
#     Edge 26, Type (0, 1), BuildingBlock: KIFKEQ_clean_linker_1, # of connection points: 2
#     Edge 27, Type (0, 1), BuildingBlock: KIFKEQ_clean_linker_1, # of connection points: 2
#     Edge 28, Type (0, 1), BuildingBlock: KIFKEQ_clean_linker_1, # of connection points: 2
#     Edge 29, Type (0, 1), BuildingBlock: KIFKEQ_clean_linker_1, # of connection points: 2
#     Edge 30, Type (0, 1), BuildingBlock: KIFKEQ_clean_linker_1, # of connection points: 2
#     Edge 31, Type (0, 1), BuildingBlock: KIFKEQ_clean_linker_1, # of connection points: 2
#     Edge 32, Type (0, 1), BuildingBlock: KIFKEQ_clean_linker_1, # of connection points: 2
#     Edge 33, Type (0, 1), BuildingBlock: KIFKEQ_clean_linker_1, # of connection points: 2
#     Edge 34, Type (0, 1), BuildingBlock: KIFKEQ_clean_linker_1, # of connection points: 2
#     Edge 35, Type (0, 1), BuildingBlock: KIFKEQ_clean_linker_1, # of connection points: 2
# Relax obj value: 0.055
# Max RMSD: 0.070
# Mean RMSD: 0.067
data_MOF--net-cml--node1-IZENUY_clean_sbu_0--node2-ESEHIV_clean_linker_0--edge1-KIFKEQ_clean_linker_1
_symmetry_space_group_name_H-M    P1
_symmetry_Int_Tables_number       1
_symmetry_cell_setting            triclinic
loop_
_symmetry_equiv_pos_as_xyz
'x, y, z'
_cell_length_a     33.969479
_cell_length_b     39.448021
_cell_length_c     36.615601
_cell_angle_alpha  89.993929
_cell_angle_beta   90.017837
_cell_angle_gamma 90.319284
loop_
_atom_site_label
_atom_site_type_symbol
_atom_site_fract_x
_atom_site_fract_y
_atom_site_fract_z
_atom_type_partial_charge
H0 H 0.32947 0.41783 0.0416 0.0
H1 H 0.25629 0.39354 0.94918 0.0
H2 H 0.2608 0.32649 0.04214 0.0
C3 C 0.30808 0.40155 0.02824 0.0
C4 C 0.2955 0.37203 0.04618 0.0
C5 C 0.29478 0.40938 0.99291 0.0
C6 C 0.26788 0.38717 0.97585 0.0
C7 C 0.25524 0.35713 0.99326 0.0
C8 C 0.26965 0.34966 0.02843 0.0
H9 H 0.66878 0.59617 0.53734 0.0
H10 H 0.75127 0.61293 0.45052 0.0
H11 H 0.74762 0.68185 0.54193 0.0
C12 C 0.69232 0.61125 0.52549 0.0
C13 C 0.70628 0.64017 0.54387 0.0
C14 C 0.70842 0.60132 0.492 0.0
C15 C 0.73914 0.62039 0.47668 0.0
C16 C 0.75349 0.64957 0.49448 0.0
C17 C 0.73729 0.65904 0.52839 0.0
H18 H 0.68387 0.42053 0.0341 0.0
H19 H 0.7476 0.32668 0.03462 0.0
H20 H 0.75306 0.39229 0.94067 0.0
C21 C 0.7037 0.40303 0.02068 0.0
C22 C 0.71686 0.40987 0.9851 0.0
C23 C 0.71443 0.37304 0.03855 0.0
C24 C 0.73892 0.34975 0.02076 0.0
C25 C 0.75359 0.357 0.98571 0.0
C26 C 0.74219 0.38691 0.96792 0.0
H27 H 0.34308 0.59163 0.53502 0.0
H28 H 0.2763 0.62284 0.44113 0.0
H29 H 0.27021 0.67958 0.54183 0.0
C30 C 0.32262 0.60889 0.52209 0.0
C31 C 0.30749 0.63583 0.54243 0.0
C32 C 0.31244 0.60448 0.4852 0.0
C33 C 0.28493 0.62657 0.46932 0.0
C34 C 0.26888 0.65361 0.48961 0.0
C35 C 0.28111 0.65837 0.52605 0.0
H36 H 0.82995 0.92463 0.04148 0.0
H37 H 0.75935 0.89382 0.95022 0.0
H38 H 0.75812 0.83454 0.04908 0.0
C39 C 0.80844 0.90731 0.0299 0.0
C40 C 0.79563 0.87896 0.05001 0.0
C41 C 0.79536 0.9128 0.99412 0.0
C42 C 0.76901 0.88974 0.97809 0.0
C43 C 0.75536 0.86138 0.99776 0.0
C44 C 0.76894 0.85611 0.03366 0.0
H45 H 0.17188 0.09755 0.5331 0.0
H46 H 0.23988 0.12742 0.43938 0.0
H47 H 0.247 0.18493 0.53956 0.0
C48 C 0.19275 0.11463 0.52016 0.0
C49 C 0.20851 0.14156 0.54043 0.0
C50 C 0.20311 0.10975 0.48343 0.0
C51 C 0.23109 0.13154 0.46745 0.0
C52 C 0.24759 0.15865 0.48753 0.0
C53 C 0.23543 0.16379 0.52391 0.0
H54 H 0.15712 0.90383 0.02663 0.0
H55 H 0.23602 0.81948 0.03486 0.0
H56 H 0.23248 0.87926 0.93639 0.0
C57 C 0.17911 0.88759 0.0144 0.0
C58 C 0.19225 0.8944 0.9788 0.0
C59 C 0.19425 0.86045 0.03473 0.0
C60 C 0.22437 0.8407 0.01956 0.0
C61 C 0.23838 0.84741 0.98407 0.0
C62 C 0.22205 0.87421 0.96384 0.0
H63 H 0.82391 0.08127 0.5405 0.0
H64 H 0.75456 0.10676 0.44606 0.0
H65 H 0.75729 0.17304 0.53968 0.0
C66 C 0.80318 0.09765 0.52668 0.0
C67 C 0.79136 0.12751 0.54408 0.0
C68 C 0.79036 0.08985 0.49115 0.0
C69 C 0.76466 0.11244 0.47343 0.0
C70 C 0.75262 0.14272 0.49043 0.0
C71 C 0.76639 0.15007 0.52588 0.0
Fe72 Fe 0.00952 0.81584 0.32119 0.0
Fe73 Fe 0.00833 0.85727 0.39245 0.0
O74 O 0.00839 0.85551 0.3441 0.0
Fe75 Fe 0.007 0.89366 0.31867 0.0
O76 O 0.96081 0.88143 0.2974 0.0
O77 O 0.97892 0.82977 0.28254 0.0
O78 O 0.96434 0.80176 0.34326 0.0
C79 C 0.95862 0.80121 0.37731 0.0
C80 C 0.05864 0.85252 0.27705 0.0
O81 O 0.98068 0.81779 0.39872 0.0
C82 C 0.05826 0.91229 0.37236 0.0
O83 O 0.04037 0.79503 0.35572 0.0
O84 O 0.05505 0.83543 0.39501 0.0
O85 O 0.03549 0.87735 0.28019 0.0
O86 O 0.05476 0.82677 0.29718 0.0
C87 C 0.95555 0.90734 0.37763 0.0
O88 O 0.03616 0.89716 0.39505 0.0
O89 O 0.0531 0.9085 0.33845 0.0
C90 C 0.06223 0.80701 0.38072 0.0
O91 O 0.96136 0.87933 0.39333 0.0
O92 O 0.97812 0.9172 0.35227 0.0
C93 C 0.95572 0.85465 0.2791 0.0
Fe94 Fe 0.00451 0.1489 0.88717 0.0
Fe95 Fe 1.00177 0.11098 0.8141 0.0
O96 O 0.0035 0.14957 0.83876 0.0
Fe97 Fe 0.0041 0.18891 0.81522 0.0
O98 O 0.03512 0.21078 0.84936 0.0
O99 O 0.05153 0.17065 0.88808 0.0
O100 O 0.03151 0.109 0.89064 0.0
C101 C 0.05292 0.09321 0.86816 0.0
C102 C 0.95436 0.20386 0.87148 0.0
O103 O 0.04754 0.09642 0.83427 0.0
C104 C 0.95076 0.14882 0.7734 0.0
O105 O 0.95755 0.12688 0.88952 0.0
O106 O 0.97187 0.08838 0.84815 0.0
O107 O 0.95881 0.20207 0.83736 0.0
O108 O 0.9776 0.18871 0.89287 0.0
C109 C 0.05387 0.15204 0.77213 0.0
O110 O 0.95605 0.12244 0.79212 0.0
O111 O 0.97341 0.17426 0.77682 0.0
C112 C 0.95039 0.09894 0.87399 0.0
O113 O 0.03102 0.12677 0.77561 0.0
O114 O 0.04923 0.17835 0.79125 0.0
C115 C 0.05786 0.1993 0.8739 0.0
Fe116 Fe 0.50898 0.31757 0.31546 0.0
Fe117 Fe 0.51215 0.35942 0.38653 0.0
O118 O 0.51037 0.35742 0.33816 0.0
Fe119 Fe 0.50996 0.39558 0.3126 0.0
O120 O 0.48025 0.37875 0.27519 0.0
O121 O 0.46293 0.32754 0.29238 0.0
O122 O 0.47917 0.29649 0.35078 0.0
C123 C 0.45822 0.30829 0.37642 0.0
C124 C 0.56055 0.3576 0.27156 0.0
O125 O 0.4659 0.33673 0.39054 0.0
C126 C 0.56339 0.41061 0.36999 0.0
O127 O 0.55484 0.30415 0.33651 0.0
O128 O 0.54052 0.3205 0.39225 0.0
O129 O 0.55522 0.38447 0.28955 0.0
O130 O 0.53855 0.33185 0.2762 0.0
C131 C 0.46046 0.41311 0.36801 0.0
O132 O 0.55872 0.38251 0.38595 0.0
O133 O 0.53985 0.41972 0.34514 0.0
C134 C 0.56165 0.30377 0.37038 0.0
O135 O 0.48386 0.39872 0.38993 0.0
O136 O 0.46443 0.40942 0.33396 0.0
C137 C 0.45743 0.35347 0.2729 0.0
Fe138 Fe 0.50525 0.64864 0.89322 0.0
Fe139 Fe 0.50757 0.6119 0.81962 0.0
O140 O 0.50648 0.65023 0.84483 0.0
Fe141 Fe 0.50654 0.68983 0.82173 0.0
O142 O 0.53588 0.71199 0.85671 0.0
O143 O 0.55082 0.67248 0.8968 0.0
O144 O 0.53486 0.61006 0.8967 0.0
C145 C 0.55861 0.59646 0.87452 0.0
C146 C 0.45368 0.70258 0.87665 0.0
O147 O 0.5538 0.59957 0.84052 0.0
C148 C 0.4555 0.64844 0.77876 0.0
O149 O 0.45935 0.6246 0.89312 0.0
O150 O 0.47891 0.58721 0.85282 0.0
O151 O 0.46043 0.70216 0.8428 0.0
O152 O 0.47568 0.68692 0.8987 0.0
C153 C 0.55821 0.65493 0.7787 0.0
O154 O 0.46162 0.62179 0.79696 0.0
O155 O 0.47709 0.67452 0.78284 0.0
C156 C 0.45523 0.59625 0.87759 0.0
O157 O 0.53616 0.62918 0.78166 0.0
O158 O 0.5527 0.68067 0.79846 0.0
C159 C 0.55727 0.7011 0.88254 0.0
H160 H 0.19407 0.32151 0.02396 0.0
H161 H 0.25215 0.33951 0.92067 0.0
H162 H 0.14836 0.28265 0.99406 0.0
H163 H 0.20558 0.30123 0.89069 0.0
H164 H 0.08439 0.26057 0.84815 0.0
H165 H 0.13298 0.29838 0.87621 0.0
H166 H 0.15031 0.22603 0.96314 0.0
H167 H 0.10188 0.18827 0.93532 0.0
C168 C 0.19735 0.31702 0.99495 0.0
C169 C 0.22699 0.33365 0.97482 0.0
C170 C 0.17104 0.29479 0.97781 0.0
C171 C 0.17344 0.28883 0.94004 0.0
C172 C 0.20277 0.30559 0.91977 0.0
C173 C 0.22936 0.32762 0.93698 0.0
C174 C 0.09871 0.25264 0.87315 0.0
C175 C 0.08904 0.22144 0.88955 0.0
C176 C 0.12666 0.27424 0.88911 0.0
C177 C 0.14525 0.26526 0.922 0.0
C178 C 0.13609 0.23384 0.93805 0.0
C179 C 0.10848 0.21212 0.92194 0.0
H180 H 0.82015 0.67624 0.52509 0.0
H181 H 0.75536 0.67142 0.4238 0.0
H182 H 0.86984 0.71198 0.49594 0.0
H183 H 0.80427 0.70795 0.39477 0.0
H184 H 0.91875 0.74847 0.34473 0.0
H185 H 0.87003 0.71084 0.37271 0.0
H186 H 0.8789 0.76755 0.47344 0.0
H187 H 0.92837 0.80412 0.44599 0.0
C188 C 0.81646 0.68305 0.49664 0.0
C189 C 0.78398 0.67101 0.47671 0.0
C190 C 0.84481 0.70365 0.4799 0.0
C191 C 0.84108 0.71305 0.44295 0.0
C192 C 0.80854 0.70083 0.42305 0.0
C193 C 0.78042 0.67996 0.4397 0.0
C194 C 0.9102 0.75286 0.37282 0.0
C195 C 0.92767 0.77911 0.3932 0.0
C196 C 0.88214 0.73138 0.38886 0.0
C197 C 0.87065 0.73593 0.4255 0.0
C198 C 0.88764 0.76269 0.4455 0.0
C199 C 0.91588 0.78386 0.42963 0.0
H200 H 0.74375 0.29016 0.96848 0.0
H201 H 0.82738 0.37277 0.9633 0.0
H202 H 0.79172 0.25271 0.9386 0.0
H203 H 0.87555 0.33519 0.93452 0.0
H204 H 0.95721 0.23683 0.93658 0.0
H205 H 0.90742 0.27395 0.96309 0.0
H206 H 0.83311 0.25823 0.86901 0.0
H207 H 0.88354 0.22165 0.84167 0.0
C208 C 0.77241 0.30015 0.96101 0.0
C209 C 0.78209 0.33417 0.96805 0.0
C210 C 0.7996 0.27891 0.94384 0.0
C211 C 0.83705 0.2913 0.93434 0.0
C212 C 0.84676 0.32523 0.94163 0.0
C213 C 0.81933 0.34661 0.95799 0.0
C214 C 0.93029 0.2413 0.92149 0.0
C215 C 0.92421 0.22645 0.88703 0.0
C216 C 0.90196 0.26254 0.93663 0.0
C217 C 0.86665 0.26869 0.91803 0.0
C218 C 0.86018 0.25363 0.8838 0.0
C219 C 0.88901 0.23296 0.86817 0.0
H220 H 0.204 0.68162 0.522 0.0
H221 H 0.26682 0.67845 0.41937 0.0
H222 H 0.15614 0.72005 0.49519 0.0
H223 H 0.218 0.71611 0.39236 0.0
H224 H 0.10308 0.81614 0.44453 0.0
H225 H 0.15408 0.77981 0.47018 0.0
H226 H 0.14531 0.71381 0.37646 0.0
H227 H 0.09426 0.75002 0.35071 0.0
C228 C 0.20788 0.6893 0.49383 0.0
C229 C 0.23947 0.67691 0.47294 0.0
C230 C 0.18033 0.71127 0.47846 0.0
C231 C 0.18338 0.72112 0.44172 0.0
C232 C 0.21472 0.70867 0.42068 0.0
C233 C 0.24258 0.68696 0.43616 0.0
C234 C 0.11213 0.79398 0.42927 0.0
C235 C 0.09442 0.78589 0.39564 0.0
C236 C 0.14119 0.7731 0.44408 0.0
C237 C 0.15356 0.74393 0.42537 0.0
C238 C 0.13655 0.73625 0.39137 0.0
C239 C 0.10715 0.75689 0.37676 0.0
H240 H 0.75742 0.79203 0.99801 0.0
H241 H 0.68909 0.87654 0.95897 0.0
H242 H 0.71121 0.75271 0.96916 0.0
H243 H 0.64233 0.83743 0.93088 0.0
H244 H 0.58579 0.76083 0.85494 0.0
H245 H 0.63469 0.79861 0.8819 0.0
H246 H 0.64615 0.73069 0.97388 0.0
H247 H 0.59828 0.69236 0.94628 0.0
C248 C 0.73228 0.80217 0.98354 0.0
C249 C 0.72693 0.83736 0.9807 0.0
C250 C 0.70571 0.77965 0.96705 0.0
C251 C 0.67295 0.79181 0.94756 0.0
C252 C 0.66758 0.82708 0.94498 0.0
C253 C 0.6943 0.84955 0.96121 0.0
C254 C 0.59884 0.75389 0.88086 0.0
C255 C 0.58795 0.72359 0.89847 0.0
C256 C 0.62675 0.77569 0.89647 0.0
C257 C 0.64429 0.76791 0.93026 0.0
C258 C 0.63372 0.73737 0.94763 0.0
C259 C 0.60604 0.71542 0.93187 0.0
H260 H 0.31335 0.18588 0.51977 0.0
H261 H 0.2504 0.18291 0.41714 0.0
H262 H 0.36273 0.22304 0.49251 0.0
H263 H 0.30068 0.21928 0.3897 0.0
H264 H 0.41841 0.31807 0.44049 0.0
H265 H 0.36669 0.28252 0.46677 0.0
H266 H 0.37341 0.21536 0.37393 0.0
H267 H 0.42524 0.25083 0.34751 0.0
C268 C 0.30978 0.19335 0.49151 0.0
C269 C 0.27772 0.18139 0.47073 0.0
C270 C 0.33819 0.21457 0.47589 0.0
C271 C 0.33552 0.22405 0.43901 0.0
C272 C 0.30368 0.21206 0.41811 0.0
C273 C 0.27498 0.19112 0.43383 0.0
C274 C 0.40883 0.29579 0.42559 0.0
C275 C 0.42611 0.28721 0.39196 0.0
C276 C 0.37934 0.27536 0.44075 0.0
C277 C 0.36613 0.24615 0.42243 0.0
C278 C 0.38285 0.23786 0.38853 0.0
C279 C 0.41269 0.25807 0.37354 0.0
H280 H 0.24032 0.81958 0.91577 0.0
H281 H 0.30706 0.82734 0.0158 0.0
H282 H 0.29171 0.78437 0.8892 0.0
H283 H 0.35891 0.7928 0.98911 0.0
H284 H 0.42408 0.70154 0.94575 0.0
H285 H 0.3717 0.736 0.97097 0.0
H286 H 0.358 0.78602 0.86674 0.0
H287 H 0.40979 0.75061 0.84108 0.0
C288 C 0.2662 0.814 0.93193 0.0
C289 C 0.26969 0.82613 0.96787 0.0
C290 C 0.29571 0.79391 0.91668 0.0
C291 C 0.32948 0.78568 0.93699 0.0
C292 C 0.333 0.79808 0.9729 0.0
C293 C 0.30336 0.81794 0.98821 0.0
C294 C 0.40994 0.71989 0.92815 0.0
C295 C 0.42128 0.72344 0.89143 0.0
C296 C 0.38 0.73981 0.94271 0.0
C297 C 0.36079 0.76402 0.92102 0.0
C298 C 0.37187 0.76738 0.88414 0.0
C299 C 0.4017 0.7472 0.86946 0.0
H300 H 0.75595 0.21226 0.49034 0.0
H301 H 0.68952 0.12797 0.44607 0.0
H302 H 0.712 0.25168 0.45954 0.0
H303 H 0.64627 0.16755 0.41456 0.0
H304 H 0.59913 0.25041 0.3371 0.0
H305 H 0.6471 0.21181 0.36447 0.0
H306 H 0.64132 0.26789 0.46556 0.0
H307 H 0.59372 0.3063 0.43847 0.0
C308 C 0.73191 0.20208 0.47422 0.0
C309 C 0.72624 0.16684 0.47094 0.0
C310 C 0.70685 0.22471 0.45641 0.0
C311 C 0.6757 0.21271 0.4346 0.0
C312 C 0.67035 0.17756 0.43076 0.0
C313 C 0.6952 0.15489 0.44884 0.0
C314 C 0.60835 0.25462 0.36507 0.0
C315 C 0.59245 0.28134 0.38564 0.0
C316 C 0.63561 0.23241 0.38079 0.0
C317 C 0.64792 0.2368 0.41718 0.0
C318 C 0.63271 0.264 0.43738 0.0
C319 C 0.60521 0.28589 0.42187 0.0
H320 H 0.31321 0.47197 0.02162 0.0
H321 H 0.31251 0.41612 0.92006 0.0
H322 H 0.34804 0.5183 0.992 0.0
H323 H 0.34438 0.46362 0.88973 0.0
H324 H 0.45106 0.52892 0.86162 0.0
H325 H 0.40767 0.48647 0.88747 0.0
H326 H 0.34907 0.56389 0.95059 0.0
H327 H 0.39416 0.60649 0.92567 0.0
C328 C 0.32006 0.46966 0.99285 0.0
C329 C 0.31064 0.43984 0.97351 0.0
C330 C 0.33953 0.4966 0.97565 0.0
C331 C 0.34963 0.49471 0.93846 0.0
C332 C 0.33802 0.46575 0.91861 0.0
C333 C 0.31908 0.4386 0.93594 0.0
C334 C 0.42878 0.53706 0.88082 0.0
C335 C 0.42631 0.57116 0.89172 0.0
C336 C 0.40351 0.51262 0.89549 0.0
C337 C 0.37457 0.52156 0.92115 0.0
C338 C 0.37134 0.55589 0.93134 0.0
C339 C 0.39705 0.58039 0.91691 0.0
H340 H 0.74554 0.54441 0.46687 0.0
H341 H 0.63212 0.59282 0.47296 0.0
H342 H 0.71507 0.49559 0.43549 0.0
H343 H 0.60204 0.54473 0.44127 0.0
H344 H 0.57428 0.47526 0.346 0.0
H345 H 0.61327 0.51994 0.3741 0.0
H346 H 0.65629 0.4493 0.45445 0.0
H347 H 0.61648 0.40396 0.42662 0.0
C348 C 0.71423 0.5446 0.46126 0.0
C349 C 0.69105 0.57219 0.47222 0.0
C350 C 0.69687 0.51674 0.44362 0.0
C351 C 0.65634 0.5166 0.43599 0.0
C352 C 0.6334 0.54438 0.44669 0.0
C353 C 0.65052 0.57177 0.46486 0.0
C354 C 0.59229 0.4689 0.3694 0.0
C355 C 0.59173 0.43603 0.38439 0.0
C356 C 0.61461 0.4946 0.38544 0.0
C357 C 0.63737 0.48804 0.41653 0.0
C358 C 0.63892 0.45485 0.43039 0.0
C359 C 0.61608 0.42903 0.41454 0.0
H360 H 0.68591 0.41291 0.91653 0.0
H361 H 0.71487 0.47502 0.00987 0.0
H362 H 0.65357 0.46107 0.88775 0.0
H363 H 0.68364 0.52359 0.98077 0.0
H364 H 0.57285 0.58083 0.94571 0.0
H365 H 0.61709 0.53848 0.96975 0.0
H366 H 0.65785 0.51651 0.8605 0.0
H367 H 0.61224 0.55853 0.83608 0.0
C368 C 0.68619 0.43715 0.93044 0.0
C369 C 0.70245 0.44022 0.96556 0.0
C370 C 0.66779 0.4648 0.91393 0.0
C371 C 0.66558 0.49615 0.93212 0.0
C372 C 0.684 0.49962 0.96635 0.0
C373 C 0.702 0.4719 0.983 0.0
C374 C 0.5914 0.56723 0.9267 0.0
C375 C 0.58864 0.57287 0.88889 0.0
C376 C 0.61715 0.54307 0.94059 0.0
C377 C 0.64112 0.52402 0.9171 0.0
C378 C 0.63942 0.53044 0.87932 0.0
C379 C 0.61343 0.55463 0.86534 0.0
H380 H 0.38975 0.58679 0.48657 0.0
H381 H 0.27942 0.5611 0.43437 0.0
H382 H 0.42123 0.5394 0.45614 0.0
H383 H 0.31172 0.51379 0.40287 0.0
H384 H 0.4105 0.4557 0.33034 0.0
H385 H 0.37145 0.5023 0.35585 0.0
H386 H 0.40949 0.47488 0.46428 0.0
H387 H 0.4479 0.42865 0.4394 0.0
C388 C 0.37215 0.57099 0.46863 0.0
C389 C 0.33182 0.57733 0.46356 0.0
C390 C 0.39027 0.54394 0.45107 0.0
C391 C 0.36874 0.52269 0.42761 0.0
C392 C 0.32891 0.52984 0.4209 0.0
C393 C 0.31052 0.55691 0.43886 0.0
C394 C 0.41006 0.45937 0.35965 0.0
C395 C 0.43284 0.43871 0.38275 0.0
C396 C 0.38766 0.48595 0.37419 0.0
C397 C 0.38804 0.49241 0.41193 0.0
C398 C 0.40924 0.47078 0.43501 0.0
C399 C 0.43119 0.44422 0.42066 0.0
H400 H 0.79152 0.97956 0.01227 0.0
H401 H 0.835 0.91153 0.92968 0.0
H402 H 0.8223 0.02741 0.98087 0.0
H403 H 0.86799 0.95867 0.89926 0.0
H404 H 0.90874 0.04999 0.83839 0.0
H405 H 0.86482 0.00758 0.86478 0.0
H406 H 0.88365 0.05144 0.97174 0.0
H407 H 0.92546 0.09494 0.94475 0.0
C408 C 0.80767 0.975 0.98725 0.0
C409 C 0.81095 0.94204 0.97326 0.0
C410 C 0.82566 1.00231 0.96939 0.0
C411 C 0.84813 0.99712 0.93756 0.0
C412 C 0.85045 0.96401 0.92323 0.0
C413 C 0.83175 0.93685 0.94071 0.0
C414 C 0.9029 0.05078 0.86747 0.0
C415 C 0.92059 0.07565 0.88955 0.0
C416 C 0.87799 0.02627 0.88272 0.0
C417 C 0.8709 0.02556 0.9206 0.0
C418 C 0.88773 0.05127 0.94243 0.0
C419 C 0.91195 0.07622 0.92701 0.0
H420 H 0.12571 0.09144 0.4843 0.0
H421 H 0.23675 0.06563 0.43415 0.0
H422 H 0.09479 0.0427 0.4552 0.0
H423 H 0.20502 0.01703 0.40395 0.0
H424 H 0.10705 0.95503 0.33307 0.0
H425 H 0.14509 1.00339 0.35681 0.0
H426 H 0.10803 0.97833 0.46626 0.0
H427 H 0.07069 0.9303 0.44316 0.0
C428 C 0.14356 0.07538 0.46703 0.0
C429 C 0.18392 0.08205 0.4622 0.0
C430 C 0.12576 0.04757 0.45024 0.0
C431 C 0.1477 0.02592 0.42779 0.0
C432 C 0.18754 0.03341 0.4212 0.0
C433 C 0.20559 0.06122 0.4384 0.0
C434 C 0.1075 0.95959 0.36224 0.0
C435 C 0.08536 0.93901 0.38613 0.0
C436 C 0.12931 0.98719 0.37575 0.0
C437 C 0.1289 0.99477 0.41324 0.0
C438 C 0.10829 0.97332 0.43715 0.0
C439 C 0.08698 0.94572 0.42384 0.0
H440 H 0.11464 0.91132 0.97574 0.0
H441 H 0.22869 0.94088 0.93366 0.0
H442 H 0.08531 0.96071 0.94701 0.0
H443 H 0.19856 0.99 0.90365 0.0
H444 H 0.10293 0.05171 0.82946 0.0
H445 H 0.14002 1.00318 0.85323 0.0
H446 H 0.09905 0.02566 0.96201 0.0
H447 H 0.06269 0.07395 0.93892 0.0
C448 C 0.13348 0.92831 0.96031 0.0
C449 C 0.17418 0.9225 0.95765 0.0
C450 C 0.1166 0.95647 0.94372 0.0
C451 C 0.13983 0.97925 0.92358 0.0
C452 C 0.18012 0.97269 0.91909 0.0
C453 C 0.19724 0.94458 0.93616 0.0
C454 C 0.10234 0.04656 0.85851 0.0
C455 C 0.07942 0.06649 0.8822 0.0
C456 C 0.12359 0.01889 0.87203 0.0
C457 C 0.12181 0.01058 0.90929 0.0
C458 C 0.10041 0.03135 0.93308 0.0
C459 C 0.07968 0.05907 0.91977 0.0
H460 H 0.80782 0.02725 0.5201 0.0
H461 H 0.80918 0.08317 0.41852 0.0
H462 H 0.84366 0.98147 0.49112 0.0
H463 H 0.84157 0.03612 0.3888 0.0
H464 H 0.95008 0.97458 0.36265 0.0
H465 H 0.90522 0.01544 0.38812 0.0
H466 H 0.84759 0.9359 0.4498 0.0
H467 H 0.89438 0.89481 0.42526 0.0
C468 C 0.81524 0.02967 0.49146 0.0
C469 C 0.80622 0.05943 0.47198 0.0
C470 C 0.83528 1.00303 0.47462 0.0
C471 C 0.84624 0.00517 0.43766 0.0
C472 C 0.83467 0.03387 0.41757 0.0
C473 C 0.81534 0.06076 0.43455 0.0
C474 C 0.92771 0.96559 0.38145 0.0
C475 C 0.92596 0.93136 0.392 0.0
C476 C 0.90157 0.98913 0.39588 0.0
C477 C 0.87235 0.97913 0.42091 0.0
C478 C 0.86997 0.94467 0.43094 0.0
C479 C 0.89665 0.92105 0.41678 0.0
H480 H 0.33446 0.31575 0.07017 0.0
H481 H 0.29001 0.41246 0.10572 0.0
H482 H 0.36786 0.30862 0.12899 0.0
H483 H 0.32178 0.40497 0.16485 0.0
H484 H 0.43369 0.40759 0.23314 0.0
H485 H 0.38894 0.40872 0.18197 0.0
H486 H 0.36578 0.30161 0.19546 0.0
H487 H 0.41213 0.30025 0.24688 0.0
C488 C 0.33105 0.33502 0.091 0.0
C489 C 0.31024 0.36486 0.08342 0.0
C490 C 0.34999 0.33092 0.12472 0.0
C491 C 0.34807 0.3565 0.15147 0.0
C492 C 0.32475 0.38517 0.14457 0.0
C493 C 0.30638 0.38944 0.11082 0.0
C494 C 0.41897 0.3842 0.22553 0.0
C495 C 0.42681 0.35375 0.24402 0.0
C496 C 0.39285 0.38494 0.19626 0.0
C497 C 0.37348 0.3553 0.1846 0.0
C498 C 0.38044 0.32486 0.2036 0.0
C499 C 0.40677 0.32411 0.23317 0.0
H500 H 0.74163 0.66144 0.60765 0.0
H501 H 0.62789 0.64233 0.55872 0.0
H502 H 0.7096 0.66988 0.66724 0.0
H503 H 0.59653 0.64988 0.61795 0.0
H504 H 0.57536 0.60371 0.73193 0.0
H505 H 0.61396 0.6063 0.67631 0.0
H506 H 0.64445 0.71048 0.69869 0.0
H507 H 0.60479 0.7084 0.75497 0.0
C508 C 0.70986 0.65973 0.60945 0.0
C509 C 0.68733 0.6505 0.57869 0.0
C510 C 0.69164 0.66456 0.64345 0.0
C511 C 0.65078 0.66014 0.64699 0.0
C512 C 0.62816 0.65309 0.61585 0.0
C513 C 0.64617 0.64854 0.58206 0.0
C514 C 0.59043 0.62723 0.72545 0.0
C515 C 0.5864 0.65605 0.74775 0.0
C516 C 0.61255 0.62861 0.69353 0.0
C517 C 0.63167 0.65865 0.68319 0.0
C518 C 0.62981 0.68705 0.70625 0.0
C519 C 0.60713 0.68582 0.73832 0.0
H520 H 0.72775 0.41042 0.09943 0.0
H521 H 0.66648 0.3215 0.06065 0.0
H522 H 0.69677 0.40402 0.15913 0.0
H523 H 0.63336 0.31591 0.11958 0.0
H524 H 0.5914 0.30315 0.23532 0.0
H525 H 0.63473 0.30392 0.1822 0.0
H526 H 0.63545 0.41356 0.18464 0.0
H527 H 0.59408 0.41259 0.23851 0.0
C528 C 0.70773 0.38935 0.10396 0.0
C529 C 0.69934 0.36646 0.0757 0.0
C530 C 0.68962 0.38582 0.13799 0.0
C531 C 0.66192 0.35976 0.14423 0.0
C532 C 0.65479 0.33606 0.11613 0.0
C533 C 0.67358 0.33926 0.08228 0.0
C534 C 0.60129 0.32737 0.22469 0.0
C535 C 0.58922 0.3578 0.24109 0.0
C536 C 0.62593 0.32785 0.19405 0.0
C537 C 0.63863 0.3588 0.17879 0.0
C538 C 0.62711 0.38916 0.19584 0.0
C539 C 0.60304 0.38866 0.22673 0.0
H540 H 0.29676 0.5934 0.6 0.0
H541 H 0.34951 0.68888 0.56958 0.0
H542 H 0.3256 0.59813 0.66087 0.0
H543 H 0.38063 0.69299 0.62946 0.0
H544 H 0.41969 0.70212 0.74565 0.0
H545 H 0.37701 0.70108 0.69213 0.0
H546 H 0.38629 0.59179 0.68836 0.0
H547 H 0.42688 0.59292 0.74287 0.0
C548 C 0.31441 0.61552 0.60663 0.0
C549 C 0.32098 0.64081 0.5804 0.0
C550 C 0.33134 0.61814 0.64132 0.0
C551 C 0.35605 0.64573 0.65022 0.0
C552 C 0.3614 0.6716 0.62407 0.0
C553 C 0.34376 0.66927 0.58963 0.0
C554 C 0.41207 0.67788 0.73359 0.0
C555 C 0.42675 0.64762 0.74839 0.0
C556 C 0.38782 0.67726 0.7027 0.0
C557 C 0.37828 0.64638 0.68544 0.0
C558 C 0.39221 0.61607 0.70103 0.0
C559 C 0.4158 0.61668 0.73229 0.0
H560 H 0.8114 0.926 0.10319 0.0
H561 H 0.81611 0.81838 0.08176 0.0
H562 H 0.84587 0.9176 0.16037 0.0
H563 H 0.84797 0.80956 0.14053 0.0
H564 H 0.95384 0.81384 0.21892 0.0
H565 H 0.91013 0.8177 0.16662 0.0
H566 H 0.84578 0.89785 0.22024 0.0
H567 H 0.89101 0.89504 0.27183 0.0
C568 C 0.81938 0.90043 0.11087 0.0
C569 C 0.81155 0.87297 0.08741 0.0
C570 C 0.83866 0.8955 0.14411 0.0
C571 C 0.85013 0.86287 0.15522 0.0
C572 C 0.84038 0.83515 0.13265 0.0
C573 C 0.82151 0.84015 0.09909 0.0
C574 C 0.93009 0.83205 0.21972 0.0
C575 C 0.92615 0.85439 0.24936 0.0
C576 C 0.90475 0.83414 0.18973 0.0
C577 C 0.87439 0.85828 0.18886 0.0
C578 C 0.86933 0.87948 0.21943 0.0
C579 C 0.8951 0.87776 0.24917 0.0
H580 H 0.1759 0.19795 0.571 0.0
H581 H 0.21152 0.09569 0.59555 0.0
H582 H 0.14412 0.20201 0.63083 0.0
H583 H 0.18124 0.09992 0.65574 0.0
H584 H 0.07089 0.09959 0.72668 0.0
H585 H 0.11436 0.09942 0.67444 0.0
H586 H 0.14812 0.2031 0.69713 0.0
H587 H 0.10325 0.20361 0.74946 0.0
C588 C 0.17782 0.17673 0.58969 0.0
C589 C 0.19564 0.14638 0.57868 0.0
C590 C 0.15976 0.17902 0.62398 0.0
C591 C 0.15953 0.15107 0.6479 0.0
C592 C 0.17994 0.12162 0.63766 0.0
C593 C 0.19749 0.11921 0.60333 0.0
C594 C 0.0877 0.12238 0.72085 0.0
C595 C 0.08328 0.15171 0.74221 0.0
C596 C 0.11304 0.12216 0.69095 0.0
C597 C 0.13497 0.1512 0.68158 0.0
C598 C 0.13139 0.18038 0.70342 0.0
C599 C 0.10584 0.18062 0.7335 0.0
H600 H 0.23343 0.84326 0.09805 0.0
H601 H 0.11703 0.86036 0.05431 0.0
H602 H 0.20509 0.83797 0.15966 0.0
H603 H 0.08942 0.85614 0.11546 0.0
H604 H 0.07156 0.90322 0.22819 0.0
H605 H 0.10777 0.90058 0.17116 0.0
H606 H 0.14406 0.79856 0.19593 0.0
H607 H 0.10694 0.8007 0.25359 0.0
C608 C 0.20187 0.84535 0.10146 0.0
C609 C 0.17755 0.85294 0.07142 0.0
C610 C 0.18577 0.84237 0.13663 0.0
C611 C 0.14527 0.84713 0.14211 0.0
C612 C 0.12084 0.85284 0.11189 0.0
C613 C 0.13672 0.85547 0.07696 0.0
C614 C 0.08748 0.88023 0.22194 0.0
C615 C 0.08575 0.85195 0.2453 0.0
C616 C 0.10822 0.8788 0.18921 0.0
C617 C 0.12819 0.84927 0.17914 0.0
C618 C 0.12876 0.82159 0.20326 0.0
C619 C 0.1075 0.82286 0.23612 0.0
H620 H 0.84005 0.17938 0.56347 0.0
H621 H 0.77856 0.09239 0.60668 0.0
H622 H 0.87446 0.18663 0.62153 0.0
H623 H 0.81079 0.10054 0.66561 0.0
H624 H 0.91506 0.09337 0.74337 0.0
H625 H 0.87223 0.0912 0.69055 0.0
H626 H 0.87537 0.20065 0.68348 0.0
H627 H 0.92023 0.20254 0.73552 0.0
C628 C 0.83315 0.16245 0.5859 0.0
C629 C 0.80692 0.1353 0.58082 0.0
C630 C 0.85269 0.16661 0.61928 0.0
C631 C 0.8459 0.14394 0.64841 0.0
C632 C 0.81771 0.11796 0.64366 0.0
C633 C 0.79885 0.11344 0.61008 0.0
C634 C 0.90635 0.11703 0.7308 0.0
C635 C 0.92131 0.14812 0.74354 0.0
C636 C 0.88141 0.11584 0.70051 0.0
C637 C 0.8701 0.14576 0.68245 0.0
C638 C 0.88394 0.17701 0.69612 0.0
C639 C 0.90948 0.17815 0.72614 0.0
loop_
_geom_bond_atom_site_label_1
_geom_bond_atom_site_label_2
_geom_bond_distance
_geom_bond_site_symmetry_2
_ccdc_geom_bond_type
H0 C3 0.931 . S
H1 C6 0.928 . S
H2 C8 0.930 . S
C3 H0 0.931 . S
C3 C4 1.413 . S
C3 C5 1.360 1_554 S
C4 C3 1.413 . S
C4 C8 1.429 . S
C5 C3 1.360 1_556 S
C5 C6 1.372 . S
C6 H1 0.928 . S
C6 C5 1.372 . S
C6 C7 1.404 . S
C7 C6 1.404 . S
C7 C8 1.391 1_556 S
C8 H2 0.930 . S
C8 C4 1.429 . S
C8 C7 1.391 1_554 S
H9 C12 0.931 . S
H10 C15 0.928 . S
H11 C17 0.930 . S
C12 H9 0.931 . S
C12 C13 1.413 . S
C12 C14 1.360 . S
C13 C12 1.413 . S
C13 C17 1.429 . S
C14 C12 1.360 . S
C14 C15 1.372 . S
C15 H10 0.928 . S
C15 C14 1.372 . S
C15 C16 1.404 . S
C16 C15 1.404 . S
C16 C17 1.391 . S
C17 H11 0.930 . S
C17 C13 1.429 . S
C17 C16 1.391 . S
H18 C21 0.931 . S
H19 C24 0.928 . S
H20 C26 0.930 . S
C21 H18 0.931 . S
C21 C22 1.413 1_554 S
C21 C23 1.360 . S
C22 C21 1.413 1_556 S
C22 C26 1.429 . S
C23 C21 1.360 . S
C23 C24 1.372 . S
C24 H19 0.928 . S
C24 C23 1.372 . S
C24 C25 1.404 1_554 S
C25 C24 1.404 1_556 S
C25 C26 1.391 . S
C26 H20 0.930 . S
C26 C22 1.429 . S
C26 C25 1.391 . S
H27 C30 0.931 . S
H28 C33 0.928 . S
H29 C35 0.930 . S
C30 H27 0.931 . S
C30 C31 1.413 . S
C30 C32 1.360 . S
C31 C30 1.413 . S
C31 C35 1.429 . S
C32 C30 1.360 . S
C32 C33 1.372 . S
C33 H28 0.928 . S
C33 C32 1.372 . S
C33 C34 1.404 . S
C34 C33 1.404 . S
C34 C35 1.391 . S
C35 H29 0.930 . S
C35 C31 1.429 . S
C35 C34 1.391 . S
H36 C39 0.931 . S
H37 C42 0.928 . S
H38 C44 0.930 . S
C39 H36 0.931 . S
C39 C40 1.413 . S
C39 C41 1.360 1_554 S
C40 C39 1.413 . S
C40 C44 1.429 . S
C41 C39 1.360 1_556 S
C41 C42 1.372 . S
C42 H37 0.928 . S
C42 C41 1.372 . S
C42 C43 1.404 . S
C43 C42 1.404 . S
C43 C44 1.391 1_556 S
C44 H38 0.930 . S
C44 C40 1.429 . S
C44 C43 1.391 1_554 S
H45 C48 0.931 . S
H46 C51 0.928 . S
H47 C53 0.930 . S
C48 H45 0.931 . S
C48 C49 1.413 . S
C48 C50 1.360 . S
C49 C48 1.413 . S
C49 C53 1.429 . S
C50 C48 1.360 . S
C50 C51 1.372 . S
C51 H46 0.928 . S
C51 C50 1.372 . S
C51 C52 1.404 . S
C52 C51 1.404 . S
C52 C53 1.391 . S
C53 H47 0.930 . S
C53 C49 1.429 . S
C53 C52 1.391 . S
H54 C57 0.931 . S
H55 C60 0.928 . S
H56 C62 0.930 . S
C57 H54 0.931 . S
C57 C58 1.413 1_554 S
C57 C59 1.360 . S
C58 C57 1.413 1_556 S
C58 C62 1.429 . S
C59 C57 1.360 . S
C59 C60 1.372 . S
C60 H55 0.928 . S
C60 C59 1.372 . S
C60 C61 1.404 1_554 S
C61 C60 1.404 1_556 S
C61 C62 1.391 . S
C62 H56 0.930 . S
C62 C58 1.429 . S
C62 C61 1.391 . S
H63 C66 0.931 . S
H64 C69 0.928 . S
H65 C71 0.930 . S
C66 H63 0.931 . S
C66 C67 1.413 . S
C66 C68 1.360 . S
C67 C66 1.413 . S
C67 C71 1.429 . S
C68 C66 1.360 . S
C68 C69 1.372 . S
C69 H64 0.928 . S
C69 C68 1.372 . S
C69 C70 1.404 . S
C70 C69 1.404 . S
C70 C71 1.391 . S
C71 H65 0.930 . S
C71 C67 1.429 . S
C71 C70 1.391 . S
Fe72 O74 1.918 . S
Fe72 O77 1.997 1_455 S
Fe72 O78 2.002 1_455 S
Fe72 O83 1.976 . S
Fe72 O86 1.996 . S
Fe73 O74 1.918 . S
Fe73 O81 1.997 1_455 S
Fe73 O84 1.996 . S
Fe73 O88 1.976 . S
Fe73 O91 2.002 1_455 S
O74 Fe72 1.918 . S
O74 Fe73 1.918 . S
O74 Fe75 1.918 . S
Fe75 O74 1.918 . S
Fe75 O76 2.002 1_455 S
Fe75 O85 1.976 . S
Fe75 O89 1.996 . S
Fe75 O92 1.997 1_455 S
O76 Fe75 2.002 1_655 S
O76 C93 1.295 . S
O77 Fe72 1.997 1_655 S
O77 C93 1.235 . S
O78 Fe72 2.002 1_655 S
O78 C79 1.295 . S
C79 O78 1.295 . S
C79 O81 1.235 . S
C80 O85 1.287 . S
C80 O86 1.255 . S
O81 Fe73 1.997 1_655 S
O81 C79 1.235 . S
C82 O88 1.287 . S
C82 O89 1.255 . S
O83 Fe72 1.976 . S
O83 C90 1.287 . S
O84 Fe73 1.996 . S
O84 C90 1.255 . S
O85 Fe75 1.976 . S
O85 C80 1.287 . S
O86 Fe72 1.996 . S
O86 C80 1.255 . S
C87 O91 1.295 . S
C87 O92 1.235 . S
O88 Fe73 1.976 . S
O88 C82 1.287 . S
O89 Fe75 1.996 . S
O89 C82 1.255 . S
C90 O83 1.287 . S
C90 O84 1.255 . S
O91 Fe73 2.002 1_655 S
O91 C87 1.295 . S
O92 Fe75 1.997 1_655 S
O92 C87 1.235 . S
C93 O76 1.295 . S
C93 O77 1.235 . S
Fe94 O96 1.918 . S
Fe94 O99 1.997 1_655 S
Fe94 O100 2.002 1_655 S
Fe94 O105 1.976 . S
Fe94 O108 1.996 . S
Fe95 O96 1.918 . S
Fe95 O103 1.997 1_655 S
Fe95 O106 1.996 . S
Fe95 O110 1.976 . S
Fe95 O113 2.002 1_655 S
O96 Fe94 1.918 . S
O96 Fe95 1.918 . S
O96 Fe97 1.918 . S
Fe97 O96 1.918 . S
Fe97 O98 2.002 1_655 S
Fe97 O107 1.976 . S
Fe97 O111 1.996 . S
Fe97 O114 1.997 1_655 S
O98 Fe97 2.002 1_455 S
O98 C115 1.295 . S
O99 Fe94 1.997 1_455 S
O99 C115 1.235 . S
O100 Fe94 2.002 1_455 S
O100 C101 1.295 . S
C101 O100 1.295 . S
C101 O103 1.235 . S
C102 O107 1.287 . S
C102 O108 1.255 . S
O103 Fe95 1.997 1_455 S
O103 C101 1.235 . S
C104 O110 1.287 . S
C104 O111 1.255 . S
O105 Fe94 1.976 . S
O105 C112 1.287 . S
O106 Fe95 1.996 . S
O106 C112 1.255 . S
O107 Fe97 1.976 . S
O107 C102 1.287 . S
O108 Fe94 1.996 . S
O108 C102 1.255 . S
C109 O113 1.295 . S
C109 O114 1.235 . S
O110 Fe95 1.976 . S
O110 C104 1.287 . S
O111 Fe97 1.996 . S
O111 C104 1.255 . S
C112 O105 1.287 . S
C112 O106 1.255 . S
O113 Fe95 2.002 1_455 S
O113 C109 1.295 . S
O114 Fe97 1.997 1_455 S
O114 C109 1.235 . S
C115 O98 1.295 . S
C115 O99 1.235 . S
Fe116 O118 1.918 . S
Fe116 O121 1.997 . S
Fe116 O122 2.002 . S
Fe116 O127 1.976 . S
Fe116 O130 1.996 . S
Fe117 O118 1.918 . S
Fe117 O125 1.997 . S
Fe117 O128 1.996 . S
Fe117 O132 1.976 . S
Fe117 O135 2.002 . S
O118 Fe116 1.918 . S
O118 Fe117 1.918 . S
O118 Fe119 1.918 . S
Fe119 O118 1.918 . S
Fe119 O120 2.002 . S
Fe119 O129 1.976 . S
Fe119 O133 1.996 . S
Fe119 O136 1.997 . S
O120 Fe119 2.002 . S
O120 C137 1.295 . S
O121 Fe116 1.997 . S
O121 C137 1.235 . S
O122 Fe116 2.002 . S
O122 C123 1.295 . S
C123 O122 1.295 . S
C123 O125 1.235 . S
C124 O129 1.287 . S
C124 O130 1.255 . S
O125 Fe117 1.997 . S
O125 C123 1.235 . S
C126 O132 1.287 . S
C126 O133 1.255 . S
O127 Fe116 1.976 . S
O127 C134 1.287 . S
O128 Fe117 1.996 . S
O128 C134 1.255 . S
O129 Fe119 1.976 . S
O129 C124 1.287 . S
O130 Fe116 1.996 . S
O130 C124 1.255 . S
C131 O135 1.295 . S
C131 O136 1.235 . S
O132 Fe117 1.976 . S
O132 C126 1.287 . S
O133 Fe119 1.996 . S
O133 C126 1.255 . S
C134 O127 1.287 . S
C134 O128 1.255 . S
O135 Fe117 2.002 . S
O135 C131 1.295 . S
O136 Fe119 1.997 . S
O136 C131 1.235 . S
C137 O120 1.295 . S
C137 O121 1.235 . S
Fe138 O140 1.918 . S
Fe138 O143 1.997 . S
Fe138 O144 2.002 . S
Fe138 O149 1.976 . S
Fe138 O152 1.996 . S
Fe139 O140 1.918 . S
Fe139 O147 1.997 . S
Fe139 O150 1.996 . S
Fe139 O154 1.976 . S
Fe139 O157 2.002 . S
O140 Fe138 1.918 . S
O140 Fe139 1.918 . S
O140 Fe141 1.918 . S
Fe141 O140 1.918 . S
Fe141 O142 2.002 . S
Fe141 O151 1.976 . S
Fe141 O155 1.996 . S
Fe141 O158 1.997 . S
O142 Fe141 2.002 . S
O142 C159 1.295 . S
O143 Fe138 1.997 . S
O143 C159 1.235 . S
O144 Fe138 2.002 . S
O144 C145 1.295 . S
C145 O144 1.295 . S
C145 O147 1.235 . S
C146 O151 1.287 . S
C146 O152 1.255 . S
O147 Fe139 1.997 . S
O147 C145 1.235 . S
C148 O154 1.287 . S
C148 O155 1.255 . S
O149 Fe138 1.976 . S
O149 C156 1.287 . S
O150 Fe139 1.996 . S
O150 C156 1.255 . S
O151 Fe141 1.976 . S
O151 C146 1.287 . S
O152 Fe138 1.996 . S
O152 C146 1.255 . S
C153 O157 1.295 . S
C153 O158 1.235 . S
O154 Fe139 1.976 . S
O154 C148 1.287 . S
O155 Fe141 1.996 . S
O155 C148 1.255 . S
C156 O149 1.287 . S
C156 O150 1.255 . S
O157 Fe139 2.002 . S
O157 C153 1.295 . S
O158 Fe141 1.997 . S
O158 C153 1.235 . S
C159 O142 1.295 . S
C159 O143 1.235 . S
H160 C168 0.950 1_554 S
H161 C173 0.950 . S
H162 C170 0.950 . S
H163 C172 0.950 . S
H164 C174 0.950 . S
H165 C176 0.950 . S
H166 C178 0.950 . S
H167 C179 0.950 . S
C168 H160 0.950 1_556 S
C168 C169 1.386 . S
C168 C170 1.391 . S
C169 C168 1.386 . S
C169 C173 1.393 . S
C170 H162 0.950 . S
C170 C168 1.391 . S
C170 C171 1.400 . S
C171 C170 1.400 . S
C171 C172 1.398 . S
C171 C177 1.491 . S
C172 H163 0.950 . S
C172 C171 1.398 . S
C172 C173 1.391 . S
C173 H161 0.950 . S
C173 C169 1.393 . S
C173 C172 1.391 . S
C174 H164 0.950 . S
C174 C175 1.386 . S
C174 C176 1.391 . S
C175 C174 1.386 . S
C175 C179 1.393 . S
C176 H165 0.950 . S
C176 C174 1.391 . S
C176 C177 1.400 . S
C177 C171 1.491 . S
C177 C176 1.400 . S
C177 C178 1.398 . S
C178 H166 0.950 . S
C178 C177 1.398 . S
C178 C179 1.391 . S
C179 H167 0.950 . S
C179 C175 1.393 . S
C179 C178 1.391 . S
H180 C188 0.950 . S
H181 C193 0.950 . S
H182 C190 0.950 . S
H183 C192 0.950 . S
H184 C194 0.950 . S
H185 C196 0.950 . S
H186 C198 0.950 . S
H187 C199 0.950 . S
C188 H180 0.950 . S
C188 C189 1.386 . S
C188 C190 1.391 . S
C189 C188 1.386 . S
C189 C193 1.393 . S
C190 H182 0.950 . S
C190 C188 1.391 . S
C190 C191 1.400 . S
C191 C190 1.400 . S
C191 C192 1.398 . S
C191 C197 1.491 . S
C192 H183 0.950 . S
C192 C191 1.398 . S
C192 C193 1.391 . S
C193 H181 0.950 . S
C193 C189 1.393 . S
C193 C192 1.391 . S
C194 H184 0.950 . S
C194 C195 1.386 . S
C194 C196 1.391 . S
C195 C194 1.386 . S
C195 C199 1.393 . S
C196 H185 0.950 . S
C196 C194 1.391 . S
C196 C197 1.400 . S
C197 C191 1.491 . S
C197 C196 1.400 . S
C197 C198 1.398 . S
C198 H186 0.950 . S
C198 C197 1.398 . S
C198 C199 1.391 . S
C199 H187 0.950 . S
C199 C195 1.393 . S
C199 C198 1.391 . S
H200 C208 0.950 . S
H201 C213 0.950 . S
H202 C210 0.950 . S
H203 C212 0.950 . S
H204 C214 0.950 . S
H205 C216 0.950 . S
H206 C218 0.950 . S
H207 C219 0.950 . S
C208 H200 0.950 . S
C208 C209 1.386 . S
C208 C210 1.391 . S
C209 C208 1.386 . S
C209 C213 1.393 . S
C210 H202 0.950 . S
C210 C208 1.391 . S
C210 C211 1.400 . S
C211 C210 1.400 . S
C211 C212 1.398 . S
C211 C217 1.491 . S
C212 H203 0.950 . S
C212 C211 1.398 . S
C212 C213 1.391 . S
C213 H201 0.950 . S
C213 C209 1.393 . S
C213 C212 1.391 . S
C214 H204 0.950 . S
C214 C215 1.386 . S
C214 C216 1.391 . S
C215 C214 1.386 . S
C215 C219 1.393 . S
C216 H205 0.950 . S
C216 C214 1.391 . S
C216 C217 1.400 . S
C217 C211 1.491 . S
C217 C216 1.400 . S
C217 C218 1.398 . S
C218 H206 0.950 . S
C218 C217 1.398 . S
C218 C219 1.391 . S
C219 H207 0.950 . S
C219 C215 1.393 . S
C219 C218 1.391 . S
H220 C228 0.950 . S
H221 C233 0.950 . S
H222 C230 0.950 . S
H223 C232 0.950 . S
H224 C234 0.950 . S
H225 C236 0.950 . S
H226 C238 0.950 . S
H227 C239 0.950 . S
C228 H220 0.950 . S
C228 C229 1.386 . S
C228 C230 1.391 . S
C229 C228 1.386 . S
C229 C233 1.393 . S
C230 H222 0.950 . S
C230 C228 1.391 . S
C230 C231 1.400 . S
C231 C230 1.400 . S
C231 C232 1.398 . S
C231 C237 1.491 . S
C232 H223 0.950 . S
C232 C231 1.398 . S
C232 C233 1.391 . S
C233 H221 0.950 . S
C233 C229 1.393 . S
C233 C232 1.391 . S
C234 H224 0.950 . S
C234 C235 1.386 . S
C234 C236 1.391 . S
C235 C234 1.386 . S
C235 C239 1.393 . S
C236 H225 0.950 . S
C236 C234 1.391 . S
C236 C237 1.400 . S
C237 C231 1.491 . S
C237 C236 1.400 . S
C237 C238 1.398 . S
C238 H226 0.950 . S
C238 C237 1.398 . S
C238 C239 1.391 . S
C239 H227 0.950 . S
C239 C235 1.393 . S
C239 C238 1.391 . S
H240 C248 0.950 . S
H241 C253 0.950 . S
H242 C250 0.950 . S
H243 C252 0.950 . S
H244 C254 0.950 . S
H245 C256 0.950 . S
H246 C258 0.950 . S
H247 C259 0.950 . S
C248 H240 0.950 . S
C248 C249 1.386 . S
C248 C250 1.391 . S
C249 C248 1.386 . S
C249 C253 1.393 . S
C250 H242 0.950 . S
C250 C248 1.391 . S
C250 C251 1.400 . S
C251 C250 1.400 . S
C251 C252 1.398 . S
C251 C257 1.491 . S
C252 H243 0.950 . S
C252 C251 1.398 . S
C252 C253 1.391 . S
C253 H241 0.950 . S
C253 C249 1.393 . S
C253 C252 1.391 . S
C254 H244 0.950 . S
C254 C255 1.386 . S
C254 C256 1.391 . S
C255 C254 1.386 . S
C255 C259 1.393 . S
C256 H245 0.950 . S
C256 C254 1.391 . S
C256 C257 1.400 . S
C257 C251 1.491 . S
C257 C256 1.400 . S
C257 C258 1.398 . S
C258 H246 0.950 . S
C258 C257 1.398 . S
C258 C259 1.391 . S
C259 H247 0.950 . S
C259 C255 1.393 . S
C259 C258 1.391 . S
H260 C268 0.950 . S
H261 C273 0.950 . S
H262 C270 0.950 . S
H263 C272 0.950 . S
H264 C274 0.950 . S
H265 C276 0.950 . S
H266 C278 0.950 . S
H267 C279 0.950 . S
C268 H260 0.950 . S
C268 C269 1.386 . S
C268 C270 1.391 . S
C269 C268 1.386 . S
C269 C273 1.393 . S
C270 H262 0.950 . S
C270 C268 1.391 . S
C270 C271 1.400 . S
C271 C270 1.400 . S
C271 C272 1.398 . S
C271 C277 1.491 . S
C272 H263 0.950 . S
C272 C271 1.398 . S
C272 C273 1.391 . S
C273 H261 0.950 . S
C273 C269 1.393 . S
C273 C272 1.391 . S
C274 H264 0.950 . S
C274 C275 1.386 . S
C274 C276 1.391 . S
C275 C274 1.386 . S
C275 C279 1.393 . S
C276 H265 0.950 . S
C276 C274 1.391 . S
C276 C277 1.400 . S
C277 C271 1.491 . S
C277 C276 1.400 . S
C277 C278 1.398 . S
C278 H266 0.950 . S
C278 C277 1.398 . S
C278 C279 1.391 . S
C279 H267 0.950 . S
C279 C275 1.393 . S
C279 C278 1.391 . S
H280 C288 0.950 . S
H281 C293 0.950 1_554 S
H282 C290 0.950 . S
H283 C292 0.950 . S
H284 C294 0.950 . S
H285 C296 0.950 . S
H286 C298 0.950 . S
H287 C299 0.950 . S
C288 H280 0.950 . S
C288 C289 1.386 . S
C288 C290 1.391 . S
C289 C288 1.386 . S
C289 C293 1.393 . S
C290 H282 0.950 . S
C290 C288 1.391 . S
C290 C291 1.400 . S
C291 C290 1.400 . S
C291 C292 1.398 . S
C291 C297 1.491 . S
C292 H283 0.950 . S
C292 C291 1.398 . S
C292 C293 1.391 . S
C293 H281 0.950 1_556 S
C293 C289 1.393 . S
C293 C292 1.391 . S
C294 H284 0.950 . S
C294 C295 1.386 . S
C294 C296 1.391 . S
C295 C294 1.386 . S
C295 C299 1.393 . S
C296 H285 0.950 . S
C296 C294 1.391 . S
C296 C297 1.400 . S
C297 C291 1.491 . S
C297 C296 1.400 . S
C297 C298 1.398 . S
C298 H286 0.950 . S
C298 C297 1.398 . S
C298 C299 1.391 . S
C299 H287 0.950 . S
C299 C295 1.393 . S
C299 C298 1.391 . S
H300 C308 0.950 . S
H301 C313 0.950 . S
H302 C310 0.950 . S
H303 C312 0.950 . S
H304 C314 0.950 . S
H305 C316 0.950 . S
H306 C318 0.950 . S
H307 C319 0.950 . S
C308 H300 0.950 . S
C308 C309 1.386 . S
C308 C310 1.391 . S
C309 C308 1.386 . S
C309 C313 1.393 . S
C310 H302 0.950 . S
C310 C308 1.391 . S
C310 C311 1.400 . S
C311 C310 1.400 . S
C311 C312 1.398 . S
C311 C317 1.491 . S
C312 H303 0.950 . S
C312 C311 1.398 . S
C312 C313 1.391 . S
C313 H301 0.950 . S
C313 C309 1.393 . S
C313 C312 1.391 . S
C314 H304 0.950 . S
C314 C315 1.386 . S
C314 C316 1.391 . S
C315 C314 1.386 . S
C315 C319 1.393 . S
C316 H305 0.950 . S
C316 C314 1.391 . S
C316 C317 1.400 . S
C317 C311 1.491 . S
C317 C316 1.400 . S
C317 C318 1.398 . S
C318 H306 0.950 . S
C318 C317 1.398 . S
C318 C319 1.391 . S
C319 H307 0.950 . S
C319 C315 1.393 . S
C319 C318 1.391 . S
H320 C328 0.950 1_554 S
H321 C333 0.950 . S
H322 C330 0.950 . S
H323 C332 0.950 . S
H324 C334 0.950 . S
H325 C336 0.950 . S
H326 C338 0.950 . S
H327 C339 0.950 . S
C328 H320 0.950 1_556 S
C328 C329 1.386 . S
C328 C330 1.391 . S
C329 C328 1.386 . S
C329 C333 1.393 . S
C330 H322 0.950 . S
C330 C328 1.391 . S
C330 C331 1.400 . S
C331 C330 1.400 . S
C331 C332 1.398 . S
C331 C337 1.491 . S
C332 H323 0.950 . S
C332 C331 1.398 . S
C332 C333 1.391 . S
C333 H321 0.950 . S
C333 C329 1.393 . S
C333 C332 1.391 . S
C334 H324 0.950 . S
C334 C335 1.386 . S
C334 C336 1.391 . S
C335 C334 1.386 . S
C335 C339 1.393 . S
C336 H325 0.950 . S
C336 C334 1.391 . S
C336 C337 1.400 . S
C337 C331 1.491 . S
C337 C336 1.400 . S
C337 C338 1.398 . S
C338 H326 0.950 . S
C338 C337 1.398 . S
C338 C339 1.391 . S
C339 H327 0.950 . S
C339 C335 1.393 . S
C339 C338 1.391 . S
H340 C348 0.950 . S
H341 C353 0.950 . S
H342 C350 0.950 . S
H343 C352 0.950 . S
H344 C354 0.950 . S
H345 C356 0.950 . S
H346 C358 0.950 . S
H347 C359 0.950 . S
C348 H340 0.950 . S
C348 C349 1.386 . S
C348 C350 1.391 . S
C349 C348 1.386 . S
C349 C353 1.393 . S
C350 H342 0.950 . S
C350 C348 1.391 . S
C350 C351 1.400 . S
C351 C350 1.400 . S
C351 C352 1.398 . S
C351 C357 1.491 . S
C352 H343 0.950 . S
C352 C351 1.398 . S
C352 C353 1.391 . S
C353 H341 0.950 . S
C353 C349 1.393 . S
C353 C352 1.391 . S
C354 H344 0.950 . S
C354 C355 1.386 . S
C354 C356 1.391 . S
C355 C354 1.386 . S
C355 C359 1.393 . S
C356 H345 0.950 . S
C356 C354 1.391 . S
C356 C357 1.400 . S
C357 C351 1.491 . S
C357 C356 1.400 . S
C357 C358 1.398 . S
C358 H346 0.950 . S
C358 C357 1.398 . S
C358 C359 1.391 . S
C359 H347 0.950 . S
C359 C355 1.393 . S
C359 C358 1.391 . S
H360 C368 0.950 . S
H361 C373 0.950 . S
H362 C370 0.950 . S
H363 C372 0.950 . S
H364 C374 0.950 . S
H365 C376 0.950 . S
H366 C378 0.950 . S
H367 C379 0.950 . S
C368 H360 0.950 . S
C368 C369 1.386 . S
C368 C370 1.391 . S
C369 C368 1.386 . S
C369 C373 1.393 . S
C370 H362 0.950 . S
C370 C368 1.391 . S
C370 C371 1.400 . S
C371 C370 1.400 . S
C371 C372 1.398 . S
C371 C377 1.491 . S
C372 H363 0.950 . S
C372 C371 1.398 . S
C372 C373 1.391 . S
C373 H361 0.950 . S
C373 C369 1.393 . S
C373 C372 1.391 . S
C374 H364 0.950 . S
C374 C375 1.386 . S
C374 C376 1.391 . S
C375 C374 1.386 . S
C375 C379 1.393 . S
C376 H365 0.950 . S
C376 C374 1.391 . S
C376 C377 1.400 . S
C377 C371 1.491 . S
C377 C376 1.400 . S
C377 C378 1.398 . S
C378 H366 0.950 . S
C378 C377 1.398 . S
C378 C379 1.391 . S
C379 H367 0.950 . S
C379 C375 1.393 . S
C379 C378 1.391 . S
H380 C388 0.950 . S
H381 C393 0.950 . S
H382 C390 0.950 . S
H383 C392 0.950 . S
H384 C394 0.950 . S
H385 C396 0.950 . S
H386 C398 0.950 . S
H387 C399 0.950 . S
C388 H380 0.950 . S
C388 C389 1.386 . S
C388 C390 1.391 . S
C389 C388 1.386 . S
C389 C393 1.393 . S
C390 H382 0.950 . S
C390 C388 1.391 . S
C390 C391 1.400 . S
C391 C390 1.400 . S
C391 C392 1.398 . S
C391 C397 1.491 . S
C392 H383 0.950 . S
C392 C391 1.398 . S
C392 C393 1.391 . S
C393 H381 0.950 . S
C393 C389 1.393 . S
C393 C392 1.391 . S
C394 H384 0.950 . S
C394 C395 1.386 . S
C394 C396 1.391 . S
C395 C394 1.386 . S
C395 C399 1.393 . S
C396 H385 0.950 . S
C396 C394 1.391 . S
C396 C397 1.400 . S
C397 C391 1.491 . S
C397 C396 1.400 . S
C397 C398 1.398 . S
C398 H386 0.950 . S
C398 C397 1.398 . S
C398 C399 1.391 . S
C399 H387 0.950 . S
C399 C395 1.393 . S
C399 C398 1.391 . S
H400 C408 0.950 . S
H401 C413 0.950 . S
H402 C410 0.950 . S
H403 C412 0.950 . S
H404 C414 0.950 . S
H405 C416 0.950 1_565 S
H406 C418 0.950 . S
H407 C419 0.950 . S
C408 H400 0.950 . S
C408 C409 1.386 . S
C408 C410 1.391 1_565 S
C409 C408 1.386 . S
C409 C413 1.393 . S
C410 H402 0.950 . S
C410 C408 1.391 1_545 S
C410 C411 1.407 . S
C411 C410 1.407 . S
C411 C412 1.372 1_545 S
C411 C417 1.510 . S
C412 H403 0.950 . S
C412 C411 1.372 1_565 S
C412 C413 1.391 . S
C413 H401 0.950 . S
C413 C409 1.393 . S
C413 C412 1.391 . S
C414 H404 0.950 . S
C414 C415 1.386 . S
C414 C416 1.391 . S
C415 C414 1.386 . S
C415 C419 1.393 . S
C416 H405 0.950 1_545 S
C416 C414 1.391 . S
C416 C417 1.400 . S
C417 C411 1.510 . S
C417 C416 1.400 . S
C417 C418 1.398 . S
C418 H406 0.950 . S
C418 C417 1.398 . S
C418 C419 1.391 . S
C419 H407 0.950 . S
C419 C415 1.393 . S
C419 C418 1.391 . S
H420 C428 0.950 . S
H421 C433 0.950 . S
H422 C430 0.950 . S
H423 C432 0.950 . S
H424 C434 0.950 . S
H425 C436 0.950 . S
H426 C438 0.950 . S
H427 C439 0.950 . S
C428 H420 0.950 . S
C428 C429 1.386 . S
C428 C430 1.391 . S
C429 C428 1.386 . S
C429 C433 1.393 . S
C430 H422 0.950 . S
C430 C428 1.391 . S
C430 C431 1.383 1_545 S
C431 C430 1.383 1_565 S
C431 C432 1.400 . S
C431 C437 1.506 . S
C432 H423 0.950 . S
C432 C431 1.400 . S
C432 C433 1.391 1_565 S
C433 H421 0.950 . S
C433 C429 1.393 . S
C433 C432 1.391 1_545 S
C434 H424 0.950 . S
C434 C435 1.386 . S
C434 C436 1.391 . S
C435 C434 1.386 . S
C435 C439 1.393 . S
C436 H425 0.950 . S
C436 C434 1.391 . S
C436 C437 1.400 . S
C437 C431 1.506 . S
C437 C436 1.400 . S
C437 C438 1.398 . S
C438 H426 0.950 . S
C438 C437 1.398 . S
C438 C439 1.391 . S
C439 H427 0.950 . S
C439 C435 1.393 . S
C439 C438 1.391 . S
H440 C448 0.950 . S
H441 C453 0.950 . S
H442 C450 0.950 . S
H443 C452 0.950 . S
H444 C454 0.950 . S
H445 C456 0.950 . S
H446 C458 0.950 . S
H447 C459 0.950 . S
C448 H440 0.950 . S
C448 C449 1.386 . S
C448 C450 1.391 . S
C449 C448 1.386 . S
C449 C453 1.393 . S
C450 H442 0.950 . S
C450 C448 1.391 . S
C450 C451 1.400 1_565 S
C451 C450 1.400 1_545 S
C451 C452 1.398 . S
C451 C457 1.491 . S
C452 H443 0.950 . S
C452 C451 1.398 . S
C452 C453 1.391 1_545 S
C453 H441 0.950 . S
C453 C449 1.393 . S
C453 C452 1.391 1_565 S
C454 H444 0.950 . S
C454 C455 1.386 . S
C454 C456 1.391 . S
C455 C454 1.386 . S
C455 C459 1.393 . S
C456 H445 0.950 . S
C456 C454 1.391 . S
C456 C457 1.400 . S
C457 C451 1.491 . S
C457 C456 1.400 . S
C457 C458 1.398 . S
C458 H446 0.950 . S
C458 C457 1.398 . S
C458 C459 1.391 . S
C459 H447 0.950 . S
C459 C455 1.393 . S
C459 C458 1.391 . S
H460 C468 0.950 . S
H461 C473 0.950 . S
H462 C470 0.950 . S
H463 C472 0.950 . S
H464 C474 0.950 . S
H465 C476 0.950 . S
H466 C478 0.950 . S
H467 C479 0.950 . S
C468 H460 0.950 . S
C468 C469 1.386 . S
C468 C470 1.391 1_545 S
C469 C468 1.386 . S
C469 C473 1.393 . S
C470 H462 0.950 . S
C470 C468 1.391 1_565 S
C470 C471 1.400 . S
C471 C470 1.400 . S
C471 C472 1.398 1_565 S
C471 C477 1.491 . S
C472 H463 0.950 . S
C472 C471 1.398 1_545 S
C472 C473 1.391 . S
C473 H461 0.950 . S
C473 C469 1.393 . S
C473 C472 1.391 . S
C474 H464 0.950 . S
C474 C475 1.386 . S
C474 C476 1.391 . S
C475 C474 1.386 . S
C475 C479 1.393 . S
C476 H465 0.950 . S
C476 C474 1.391 . S
C476 C477 1.400 . S
C477 C471 1.491 . S
C477 C476 1.400 . S
C477 C478 1.398 . S
C478 H466 0.950 . S
C478 C477 1.398 . S
C478 C479 1.391 . S
C479 H467 0.950 . S
C479 C475 1.393 . S
C479 C478 1.391 . S
H480 C488 0.950 . S
H481 C493 0.950 . S
H482 C490 0.950 . S
H483 C492 0.950 . S
H484 C494 0.950 . S
H485 C496 0.950 . S
H486 C498 0.950 . S
H487 C499 0.950 . S
C488 H480 0.950 . S
C488 C489 1.386 . S
C488 C490 1.391 . S
C489 C488 1.386 . S
C489 C493 1.393 . S
C490 H482 0.950 . S
C490 C488 1.391 . S
C490 C491 1.400 . S
C491 C490 1.400 . S
C491 C492 1.398 . S
C491 C497 1.491 . S
C492 H483 0.950 . S
C492 C491 1.398 . S
C492 C493 1.391 . S
C493 H481 0.950 . S
C493 C489 1.393 . S
C493 C492 1.391 . S
C494 H484 0.950 . S
C494 C495 1.386 . S
C494 C496 1.391 . S
C495 C494 1.386 . S
C495 C499 1.393 . S
C496 H485 0.950 . S
C496 C494 1.391 . S
C496 C497 1.400 . S
C497 C491 1.491 . S
C497 C496 1.400 . S
C497 C498 1.398 . S
C498 H486 0.950 . S
C498 C497 1.398 . S
C498 C499 1.391 . S
C499 H487 0.950 . S
C499 C495 1.393 . S
C499 C498 1.391 . S
H500 C508 0.950 . S
H501 C513 0.950 . S
H502 C510 0.950 . S
H503 C512 0.950 . S
H504 C514 0.950 . S
H505 C516 0.950 . S
H506 C518 0.950 . S
H507 C519 0.950 . S
C508 H500 0.950 . S
C508 C509 1.386 . S
C508 C510 1.391 . S
C509 C508 1.386 . S
C509 C513 1.393 . S
C510 H502 0.950 . S
C510 C508 1.391 . S
C510 C511 1.400 . S
C511 C510 1.400 . S
C511 C512 1.398 . S
C511 C517 1.491 . S
C512 H503 0.950 . S
C512 C511 1.398 . S
C512 C513 1.391 . S
C513 H501 0.950 . S
C513 C509 1.393 . S
C513 C512 1.391 . S
C514 H504 0.950 . S
C514 C515 1.386 . S
C514 C516 1.391 . S
C515 C514 1.386 . S
C515 C519 1.393 . S
C516 H505 0.950 . S
C516 C514 1.391 . S
C516 C517 1.400 . S
C517 C511 1.491 . S
C517 C516 1.400 . S
C517 C518 1.398 . S
C518 H506 0.950 . S
C518 C517 1.398 . S
C518 C519 1.391 . S
C519 H507 0.950 . S
C519 C515 1.393 . S
C519 C518 1.391 . S
H520 C528 0.950 . S
H521 C533 0.950 . S
H522 C530 0.950 . S
H523 C532 0.950 . S
H524 C534 0.950 . S
H525 C536 0.950 . S
H526 C538 0.950 . S
H527 C539 0.950 . S
C528 H520 0.950 . S
C528 C529 1.386 . S
C528 C530 1.391 . S
C529 C528 1.386 . S
C529 C533 1.393 . S
C530 H522 0.950 . S
C530 C528 1.391 . S
C530 C531 1.400 . S
C531 C530 1.400 . S
C531 C532 1.398 . S
C531 C537 1.491 . S
C532 H523 0.950 . S
C532 C531 1.398 . S
C532 C533 1.391 . S
C533 H521 0.950 . S
C533 C529 1.393 . S
C533 C532 1.391 . S
C534 H524 0.950 . S
C534 C535 1.386 . S
C534 C536 1.391 . S
C535 C534 1.386 . S
C535 C539 1.393 . S
C536 H525 0.950 . S
C536 C534 1.391 . S
C536 C537 1.400 . S
C537 C531 1.491 . S
C537 C536 1.400 . S
C537 C538 1.398 . S
C538 H526 0.950 . S
C538 C537 1.398 . S
C538 C539 1.391 . S
C539 H527 0.950 . S
C539 C535 1.393 . S
C539 C538 1.391 . S
H540 C548 0.950 . S
H541 C553 0.950 . S
H542 C550 0.950 . S
H543 C552 0.950 . S
H544 C554 0.950 . S
H545 C556 0.950 . S
H546 C558 0.950 . S
H547 C559 0.950 . S
C548 H540 0.950 . S
C548 C549 1.386 . S
C548 C550 1.391 . S
C549 C548 1.386 . S
C549 C553 1.393 . S
C550 H542 0.950 . S
C550 C548 1.391 . S
C550 C551 1.400 . S
C551 C550 1.400 . S
C551 C552 1.398 . S
C551 C557 1.491 . S
C552 H543 0.950 . S
C552 C551 1.398 . S
C552 C553 1.391 . S
C553 H541 0.950 . S
C553 C549 1.393 . S
C553 C552 1.391 . S
C554 H544 0.950 . S
C554 C555 1.386 . S
C554 C556 1.391 . S
C555 C554 1.386 . S
C555 C559 1.393 . S
C556 H545 0.950 . S
C556 C554 1.391 . S
C556 C557 1.400 . S
C557 C551 1.491 . S
C557 C556 1.400 . S
C557 C558 1.398 . S
C558 H546 0.950 . S
C558 C557 1.398 . S
C558 C559 1.391 . S
C559 H547 0.950 . S
C559 C555 1.393 . S
C559 C558 1.391 . S
H560 C568 0.950 . S
H561 C573 0.950 . S
H562 C570 0.950 . S
H563 C572 0.950 . S
H564 C574 0.950 . S
H565 C576 0.950 . S
H566 C578 0.950 . S
H567 C579 0.950 . S
C568 H560 0.950 . S
C568 C569 1.386 . S
C568 C570 1.391 . S
C569 C568 1.386 . S
C569 C573 1.393 . S
C570 H562 0.950 . S
C570 C568 1.391 . S
C570 C571 1.400 . S
C571 C570 1.400 . S
C571 C572 1.398 . S
C571 C577 1.491 . S
C572 H563 0.950 . S
C572 C571 1.398 . S
C572 C573 1.391 . S
C573 H561 0.950 . S
C573 C569 1.393 . S
C573 C572 1.391 . S
C574 H564 0.950 . S
C574 C575 1.386 . S
C574 C576 1.391 . S
C575 C574 1.386 . S
C575 C579 1.393 . S
C576 H565 0.950 . S
C576 C574 1.391 . S
C576 C577 1.400 . S
C577 C571 1.491 . S
C577 C576 1.400 . S
C577 C578 1.398 . S
C578 H566 0.950 . S
C578 C577 1.398 . S
C578 C579 1.391 . S
C579 H567 0.950 . S
C579 C575 1.393 . S
C579 C578 1.391 . S
H580 C588 0.950 . S
H581 C593 0.950 . S
H582 C590 0.950 . S
H583 C592 0.950 . S
H584 C594 0.950 . S
H585 C596 0.950 . S
H586 C598 0.950 . S
H587 C599 0.950 . S
C588 H580 0.950 . S
C588 C589 1.386 . S
C588 C590 1.391 . S
C589 C588 1.386 . S
C589 C593 1.393 . S
C590 H582 0.950 . S
C590 C588 1.391 . S
C590 C591 1.400 . S
C591 C590 1.400 . S
C591 C592 1.398 . S
C591 C597 1.491 . S
C592 H583 0.950 . S
C592 C591 1.398 . S
C592 C593 1.391 . S
C593 H581 0.950 . S
C593 C589 1.393 . S
C593 C592 1.391 . S
C594 H584 0.950 . S
C594 C595 1.386 . S
C594 C596 1.391 . S
C595 C594 1.386 . S
C595 C599 1.393 . S
C596 H585 0.950 . S
C596 C594 1.391 . S
C596 C597 1.400 . S
C597 C591 1.491 . S
C597 C596 1.400 . S
C597 C598 1.398 . S
C598 H586 0.950 . S
C598 C597 1.398 . S
C598 C599 1.391 . S
C599 H587 0.950 . S
C599 C595 1.393 . S
C599 C598 1.391 . S
H600 C608 0.950 . S
H601 C613 0.950 . S
H602 C610 0.950 . S
H603 C612 0.950 . S
H604 C614 0.950 . S
H605 C616 0.950 . S
H606 C618 0.950 . S
H607 C619 0.950 . S
C608 H600 0.950 . S
C608 C609 1.386 . S
C608 C610 1.391 . S
C609 C608 1.386 . S
C609 C613 1.393 . S
C610 H602 0.950 . S
C610 C608 1.391 . S
C610 C611 1.400 . S
C611 C610 1.400 . S
C611 C612 1.398 . S
C611 C617 1.491 . S
C612 H603 0.950 . S
C612 C611 1.398 . S
C612 C613 1.391 . S
C613 H601 0.950 . S
C613 C609 1.393 . S
C613 C612 1.391 . S
C614 H604 0.950 . S
C614 C615 1.386 . S
C614 C616 1.391 . S
C615 C614 1.386 . S
C615 C619 1.393 . S
C616 H605 0.950 . S
C616 C614 1.391 . S
C616 C617 1.400 . S
C617 C611 1.491 . S
C617 C616 1.400 . S
C617 C618 1.398 . S
C618 H606 0.950 . S
C618 C617 1.398 . S
C618 C619 1.391 . S
C619 H607 0.950 . S
C619 C615 1.393 . S
C619 C618 1.391 . S
H620 C628 0.950 . S
H621 C633 0.950 . S
H622 C630 0.950 . S
H623 C632 0.950 . S
H624 C634 0.950 . S
H625 C636 0.950 . S
H626 C638 0.950 . S
H627 C639 0.950 . S
C628 H620 0.950 . S
C628 C629 1.386 . S
C628 C630 1.391 . S
C629 C628 1.386 . S
C629 C633 1.393 . S
C630 H622 0.950 . S
C630 C628 1.391 . S
C630 C631 1.400 . S
C631 C630 1.400 . S
C631 C632 1.398 . S
C631 C637 1.491 . S
C632 H623 0.950 . S
C632 C631 1.398 . S
C632 C633 1.391 . S
C633 H621 0.950 . S
C633 C629 1.393 . S
C633 C632 1.391 . S
C634 H624 0.950 . S
C634 C635 1.386 . S
C634 C636 1.391 . S
C635 C634 1.386 . S
C635 C639 1.393 . S
C636 H625 0.950 . S
C636 C634 1.391 . S
C636 C637 1.400 . S
C637 C631 1.491 . S
C637 C636 1.400 . S
C637 C638 1.398 . S
C638 H626 0.950 . S
C638 C637 1.398 . S
C638 C639 1.391 . S
C639 H627 0.950 . S
C639 C635 1.393 . S
C639 C638 1.391 . S
C169 C7 1.516 . S
C175 C115 1.505 . S
C195 C79 1.510 . S
C189 C16 1.519 . S
C215 C102 1.489 . S
C209 C25 1.497 . S
C235 C90 1.499 . S
C229 C34 1.497 . S
C255 C159 1.512 . S
C249 C43 1.521 . S
C275 C123 1.504 . S
C269 C52 1.516 . S
C289 C61 1.500 . S
C295 C146 1.494 . S
C315 C134 1.492 . S
C309 C70 1.492 . S
C329 C5 1.454 . S
C335 C156 1.466 . S
C355 C126 1.463 . S
C349 C14 1.456 . S
C369 C22 1.477 . S
C375 C145 1.477 . S
C389 C32 1.483 . S
C395 C131 1.475 . S
C415 C112 1.465 . S
C409 C41 1.454 . S
C429 C50 1.461 . S
C435 C82 1.463 . S
C455 C101 1.472 . S
C449 C58 1.480 . S
C475 C87 1.470 . S
C469 C68 1.487 . S
C495 C137 1.467 . S
C489 C4 1.471 . S
C515 C153 1.462 . S
C509 C13 1.470 . S
C529 C23 1.439 . S
C535 C124 1.450 . S
C555 C148 1.450 . S
C549 C31 1.436 . S
C575 C93 1.452 . S
C569 C40 1.477 . S
C589 C49 1.472 . S
C595 C109 1.467 . S
C609 C59 1.447 . S
C615 C80 1.446 . S
C629 C67 1.445 . S
C635 C104 1.441 . S
