# Generated by pormake.
# Topology zzz, (3,6)-cn, num edge types: 1
# Building blocks:
#     Node 0, Type 0, BuildingBlock: BETDAH_clean_linker_0, # of connection points: 3
#     Node 1, Type 0, BuildingBlock: BETDAH_clean_linker_0, # of connection points: 3
#     Node 2, Type 0, BuildingBlock: BETDAH_clean_linker_0, # of connection points: 3
#     Node 3, Type 0, BuildingBlock: BETDAH_clean_linker_0, # of connection points: 3
#     Node 4, Type 0, BuildingBlock: BETDAH_clean_linker_0, # of connection points: 3
#     Node 5, Type 0, BuildingBlock: BETDAH_clean_linker_0, # of connection points: 3
#     Node 6, Type 0, BuildingBlock: BETDAH_clean_linker_0, # of connection points: 3
#     Node 7, Type 0, BuildingBlock: BETDAH_clean_linker_0, # of connection points: 3
#     Node 8, Type 1, BuildingBlock: VOLQOD_clean_sbu_1, # of connection points: 6
#     Node 9, Type 1, BuildingBlock: VOLQOD_clean_sbu_1, # of connection points: 6
#     Node 10, Type 1, BuildingBlock: VOLQOD_clean_sbu_1, # of connection points: 6
#     Node 11, Type 1, BuildingBlock: VOLQOD_clean_sbu_1, # of connection points: 6
#     Edge 12, Type (0, 1), BuildingBlock: UVAHIK_clean_linker_0, # of connection points: 2
#     Edge 13, Type (0, 1), BuildingBlock: UVAHIK_clean_linker_0, # of connection points: 2
#     Edge 14, Type (0, 1), BuildingBlock: UVAHIK_clean_linker_0, # of connection points: 2
#     Edge 15, Type (0, 1), BuildingBlock: UVAHIK_clean_linker_0, # of connection points: 2
#     Edge 16, Type (0, 1), BuildingBlock: UVAHIK_clean_linker_0, # of connection points: 2
#     Edge 17, Type (0, 1), BuildingBlock: UVAHIK_clean_linker_0, # of connection points: 2
#     Edge 18, Type (0, 1), BuildingBlock: UVAHIK_clean_linker_0, # of connection points: 2
#     Edge 19, Type (0, 1), BuildingBlock: UVAHIK_clean_linker_0, # of connection points: 2
#     Edge 20, Type (0, 1), BuildingBlock: UVAHIK_clean_linker_0, # of connection points: 2
#     Edge 21, Type (0, 1), BuildingBlock: UVAHIK_clean_linker_0, # of connection points: 2
#     Edge 22, Type (0, 1), BuildingBlock: UVAHIK_clean_linker_0, # of connection points: 2
#     Edge 23, Type (0, 1), BuildingBlock: UVAHIK_clean_linker_0, # of connection points: 2
#     Edge 24, Type (0, 1), BuildingBlock: UVAHIK_clean_linker_0, # of connection points: 2
#     Edge 25, Type (0, 1), BuildingBlock: UVAHIK_clean_linker_0, # of connection points: 2
#     Edge 26, Type (0, 1), BuildingBlock: UVAHIK_clean_linker_0, # of connection points: 2
#     Edge 27, Type (0, 1), BuildingBlock: UVAHIK_clean_linker_0, # of connection points: 2
#     Edge 28, Type (0, 1), BuildingBlock: UVAHIK_clean_linker_0, # of connection points: 2
#     Edge 29, Type (0, 1), BuildingBlock: UVAHIK_clean_linker_0, # of connection points: 2
#     Edge 30, Type (0, 1), BuildingBlock: UVAHIK_clean_linker_0, # of connection points: 2
#     Edge 31, Type (0, 1), BuildingBlock: UVAHIK_clean_linker_0, # of connection points: 2
#     Edge 32, Type (0, 1), BuildingBlock: UVAHIK_clean_linker_0, # of connection points: 2
#     Edge 33, Type (0, 1), BuildingBlock: UVAHIK_clean_linker_0, # of connection points: 2
#     Edge 34, Type (0, 1), BuildingBlock: UVAHIK_clean_linker_0, # of connection points: 2
#     Edge 35, Type (0, 1), BuildingBlock: UVAHIK_clean_linker_0, # of connection points: 2
# Relax obj value: 0.203
# Max RMSD: 0.239
# Mean RMSD: 0.111
data_MOF--net-zzz--node1-VOLQOD_clean_sbu_1--node2-BETDAH_clean_linker_0--edge1-UVAHIK_clean_linker_0
_symmetry_space_group_name_H-M    P1
_symmetry_Int_Tables_number       1
_symmetry_cell_setting            triclinic
loop_
_symmetry_equiv_pos_as_xyz
'x, y, z'
_cell_length_a     65.594106
_cell_length_b     65.18171
_cell_length_c     22.368317
_cell_angle_alpha  90.16484
_cell_angle_beta   89.893165
_cell_angle_gamma 90.822215
loop_
_atom_site_label
_atom_site_type_symbol
_atom_site_fract_x
_atom_site_fract_y
_atom_site_fract_z
_atom_type_partial_charge
H0 H 0.8254 0.51996 0.1024 0.0
H1 H 0.762 0.50796 0.07001 0.0
H2 H 0.78181 0.5297 0.2432 0.0
C3 C 0.80976 0.51998 0.11825 0.0
C4 C 0.80561 0.52545 0.17761 0.0
C5 C 0.79415 0.5136 0.07964 0.0
C6 C 0.77394 0.51324 0.09993 0.0
C7 C 0.76937 0.51955 0.15885 0.0
C8 C 0.78528 0.52555 0.19738 0.0
N9 N 0.74907 0.51951 0.18114 0.0
C10 C 0.73213 0.51539 0.14569 0.0
H11 H 0.98701 0.81079 0.16187 0.0
H12 H 0.00876 0.75157 0.10969 0.0
H13 H 0.98321 0.76053 0.2855 0.0
C14 C 0.98907 0.79467 0.1718 0.0
C15 C 0.98365 0.78714 0.22825 0.0
C16 C 0.99831 0.78203 0.12925 0.0
C17 C 0.00158 0.76133 0.14261 0.0
C18 C 0.99574 0.75342 0.19886 0.0
C19 C 0.9873 0.76653 0.24187 0.0
N20 N 0.99831 0.73247 0.2137 0.0
C21 C 0.99967 0.71704 0.17102 0.0
H22 H 0.68993 0.02621 0.1657 0.0
H23 H 0.74847 0.01881 0.0834 0.0
H24 H 0.73831 0.99821 0.2642 0.0
C25 C 0.70574 0.02172 0.16919 0.0
C26 C 0.71256 0.0122 0.22136 0.0
C27 C 0.71857 0.02421 0.11957 0.0
C28 C 0.73869 0.01721 0.12222 0.0
C29 C 0.74591 0.00804 0.17508 0.0
C30 C 0.73276 0.00553 0.22406 0.0
N31 N 0.7661 0.00076 0.18055 0.0
C32 C 0.78074 0.00198 0.13578 0.0
H33 H 0.50509 0.68006 0.17168 0.0
H34 H 0.4974 0.74076 0.10196 0.0
H35 H 0.53936 0.73053 0.24643 0.0
C36 C 0.50883 0.6963 0.17279 0.0
C37 C 0.52344 0.70355 0.21365 0.0
C38 C 0.49932 0.70952 0.13241 0.0
C39 C 0.50456 0.7305 0.13331 0.0
C40 C 0.51889 0.73811 0.17515 0.0
C41 C 0.52811 0.7246 0.2152 0.0
N42 N 0.52462 0.75916 0.17789 0.0
C43 C 0.51939 0.77348 0.13497 0.0
H44 H 0.18312 0.51177 0.24111 0.0
H45 H 0.24521 0.51271 0.30095 0.0
H46 H 0.22654 0.47163 0.15907 0.0
C47 C 0.19856 0.50616 0.23712 0.0
C48 C 0.20283 0.49054 0.19604 0.0
C49 C 0.21372 0.51419 0.27483 0.0
C50 C 0.23363 0.50674 0.27086 0.0
C51 C 0.23837 0.4916 0.22795 0.0
C52 C 0.22293 0.48365 0.19079 0.0
N53 N 0.25832 0.4837 0.22159 0.0
C54 C 0.2746 0.48897 0.25847 0.0
H55 H 0.07129 0.17894 0.24325 0.0
H56 H 0.05913 0.24032 0.3009 0.0
H57 H 0.08766 0.22979 0.12991 0.0
C58 C 0.07283 0.19534 0.23597 0.0
C59 C 0.08079 0.20265 0.18178 0.0
C60 C 0.06493 0.20883 0.27863 0.0
C61 C 0.06559 0.23002 0.26808 0.0
C62 C 0.07427 0.23768 0.21473 0.0
C63 C 0.08167 0.22391 0.17178 0.0
N64 N 0.07514 0.25899 0.20177 0.0
C65 C 0.06817 0.2741 0.24035 0.0
H66 H 0.32138 0.04913 0.22573 0.0
H67 H 0.26131 0.03012 0.27926 0.0
H68 H 0.27032 0.06151 0.1116 0.0
C69 C 0.30507 0.04893 0.21772 0.0
C70 C 0.29745 0.05679 0.16413 0.0
C71 C 0.29211 0.0392 0.2589 0.0
C72 C 0.27115 0.03792 0.24747 0.0
C73 C 0.26312 0.04646 0.19482 0.0
C74 C 0.2764 0.05555 0.15299 0.0
N75 N 0.24192 0.04575 0.18203 0.0
C76 C 0.22732 0.03865 0.22237 0.0
H77 H 0.45485 0.31638 0.21974 0.0
H78 H 0.46264 0.25653 0.29396 0.0
H79 H 0.42984 0.26358 0.12838 0.0
C80 C 0.45173 0.3 0.21777 0.0
C81 C 0.44106 0.29162 0.16906 0.0
C82 C 0.45953 0.28739 0.26239 0.0
C83 C 0.45638 0.26613 0.25931 0.0
C84 C 0.4454 0.25746 0.21105 0.0
C85 C 0.43791 0.27029 0.16606 0.0
N86 N 0.442 0.23597 0.20566 0.0
C87 C 0.44969 0.2217 0.24542 0.0
O88 O 0.06087 0.99544 0.66931 0.0
Zn89 Zn 0.03906 0.99471 0.73385 0.0
O90 O 0.0118 0.99753 0.69668 0.0
Zn91 Zn 0.99868 0.02196 0.7266 0.0
Zn92 Zn 0.01393 0.99934 0.6094 0.0
Zn93 Zn 0.99447 0.97422 0.71719 0.0
O94 O 0.97235 0.01592 0.76963 0.0
O95 O 0.97038 0.98195 0.76807 0.0
O96 O 0.04542 0.0184 0.7912 0.0
O97 O 0.01728 0.03669 0.78235 0.0
O98 O 0.99368 0.04219 0.66162 0.0
O99 O 0.00491 0.02707 0.57927 0.0
O100 O 0.99801 0.97657 0.56796 0.0
O101 O 0.0414 0.96716 0.7764 0.0
O102 O 0.98366 0.96019 0.6443 0.0
O103 O 0.01082 0.95312 0.75887 0.0
C104 C 0.06011 0.9959 0.61235 0.0
C105 C 0.96327 0.99923 0.78369 0.0
C106 C 0.99727 0.04251 0.60577 0.0
C107 C 0.03499 0.0342 0.80394 0.0
C108 C 0.98655 0.96227 0.58844 0.0
C109 C 0.02876 0.95217 0.78002 0.0
O110 O 0.04319 0.99685 0.58478 0.0
O111 O 0.50236 0.051 0.66609 0.0
Zn112 Zn 0.50393 0.02834 0.72783 0.0
O113 O 0.50016 0.00117 0.68924 0.0
Zn114 Zn 0.47628 0.98713 0.72188 0.0
Zn115 Zn 0.4968 0.00426 0.60292 0.0
Zn116 Zn 0.52366 0.9841 0.70389 0.0
O117 O 0.48314 0.96072 0.76358 0.0
O118 O 0.51639 0.95817 0.74778 0.0
O119 O 0.48103 0.03388 0.78707 0.0
O120 O 0.46196 0.00558 0.77882 0.0
O121 O 0.45577 0.98081 0.65804 0.0
O122 O 0.47003 0.99213 0.5742 0.0
O123 O 0.52031 0.99223 0.5575 0.0
O124 O 0.53171 0.03066 0.76838 0.0
O125 O 0.5382 0.97693 0.62809 0.0
O126 O 0.54431 0.99971 0.75163 0.0
C127 C 0.4992 0.05081 0.60988 0.0
C128 C 0.49976 0.95106 0.76924 0.0
C129 C 0.45515 0.98367 0.60186 0.0
C130 C 0.46513 0.02339 0.8006 0.0
C131 C 0.53556 0.98173 0.57364 0.0
C132 C 0.54605 0.01773 0.77324 0.0
O133 O 0.49666 0.03405 0.5814 0.0
O134 O 0.45624 0.50054 0.66601 0.0
Zn135 Zn 0.47756 0.49944 0.73082 0.0
O136 O 0.50499 0.49738 0.69449 0.0
Zn137 Zn 0.51857 0.47265 0.72145 0.0
Zn138 Zn 0.50316 0.49712 0.60682 0.0
Zn139 Zn 0.52164 0.52052 0.71964 0.0
O140 O 0.54434 0.47833 0.76923 0.0
O141 O 0.54629 0.51225 0.76536 0.0
O142 O 0.47092 0.47423 0.78143 0.0
O143 O 0.49918 0.45609 0.7707 0.0
O144 O 0.5252 0.45425 0.65257 0.0
O145 O 0.51315 0.47025 0.57297 0.0
O146 O 0.51907 0.52086 0.56998 0.0
O147 O 0.47463 0.52569 0.77984 0.0
O148 O 0.53106 0.53713 0.65003 0.0
O149 O 0.50574 0.53924 0.77138 0.0
C150 C 0.45692 0.5007 0.60907 0.0
C151 C 0.55341 0.49518 0.78215 0.0
C152 C 0.52164 0.45481 0.59671 0.0
C153 C 0.48117 0.45808 0.79091 0.0
C154 C 0.52914 0.53565 0.59365 0.0
C155 C 0.48761 0.5399 0.79133 0.0
O156 O 0.47383 0.4997 0.5811 0.0
O157 O 0.98634 0.53125 0.58725 0.0
Zn158 Zn 0.00792 0.52609 0.65021 0.0
O159 O 0.00638 0.49756 0.67921 0.0
Zn160 Zn 0.99966 0.49698 0.76473 0.0
Zn161 Zn 0.98584 0.48212 0.63412 0.0
Zn162 Zn 0.03236 0.48442 0.66711 0.0
O163 O 0.02111 0.48235 0.81352 0.0
O164 O 0.04428 0.47547 0.74433 0.0
O165 O 0.00364 0.5459 0.71833 0.0
O166 O 0.99855 0.52584 0.7972 0.0
O167 O 0.97184 0.48408 0.778 0.0
O168 O 0.96211 0.47439 0.68701 0.0
O169 O 0.99703 0.45658 0.59511 0.0
O170 O 0.03595 0.53284 0.61564 0.0
O171 O 0.03006 0.45944 0.61478 0.0
O172 O 0.05258 0.50393 0.6314 0.0
C173 C 0.97482 0.51885 0.55831 0.0
C174 C 0.03837 0.47521 0.79847 0.0
C175 C 0.95863 0.47613 0.74281 0.0
C176 C 0.0003 0.54362 0.77407 0.0
C177 C 0.01514 0.44994 0.59047 0.0
C178 C 0.05222 0.52239 0.6132 0.0
O179 O 0.97419 0.49975 0.57003 0.0
C180 C 0.19355 0.02369 0.24472 0.0
C181 C 0.21225 0.03163 0.26477 0.0
C182 C 0.17868 0.01739 0.28585 0.0
C183 C 0.16262 0.02518 0.44237 0.0
H184 H 0.12772 0.97793 0.41016 0.0
C185 C 0.09821 -6e-05 0.60435 0.0
C186 C 0.07923 0.99625 0.57692 0.0
C187 C 0.11594 0.00192 0.56976 0.0
C188 C 0.13733 0.99119 0.4197 0.0
H189 H 0.23054 0.03919 0.34234 0.0
H190 H 0.20468 0.0279 0.41468 0.0
H191 H 0.15603 0.98591 0.34286 0.0
H192 H 0.06415 0.99095 0.49181 0.0
H193 H 0.09494 0.9944 0.4319 0.0
H194 H 0.14372 0.03061 0.51876 0.0
C195 C 0.20129 0.02672 0.36742 0.0
C196 C 0.15351 0.9958 0.38107 0.0
C197 C 0.21612 0.03306 0.32619 0.0
C198 C 0.07849 0.99388 0.51445 0.0
C199 C 0.09618 0.9957 0.48005 0.0
C200 C 0.14648 0.02053 0.48112 0.0
C201 C 0.18233 0.01892 0.34774 0.0
C202 C 0.16613 0.01306 0.39134 0.0
C203 C 0.11506 5e-05 0.50717 0.0
C204 C 0.13344 0.00369 0.46961 0.0
H205 H 0.19034 0.02258 0.1973 0.0
H206 H 0.16415 0.01177 0.26911 0.0
H207 H 0.17188 0.03873 0.45126 0.0
H208 H 0.09932 0.00183 0.65236 0.0
H209 H 0.13031 0.00509 0.59194 0.0
C210 C 0.46381 0.18757 0.26275 0.0
C211 C 0.45758 0.2065 0.28538 0.0
C212 C 0.47098 0.17251 0.30139 0.0
C213 C 0.46848 0.15611 0.45874 0.0
H214 H 0.51228 0.12034 0.41009 0.0
C215 C 0.49613 0.08923 0.6068 0.0
C216 C 0.4979 0.07038 0.57662 0.0
C217 C 0.49365 0.10744 0.57471 0.0
C218 C 0.50001 0.13019 0.42425 0.0
H219 H 0.454 0.22504 0.36493 0.0
H220 H 0.46675 0.19875 0.43304 0.0
H221 H 0.5034 0.14942 0.34743 0.0
H222 H 0.49907 0.056 0.48901 0.0
H223 H 0.49476 0.08761 0.43347 0.0
H224 H 0.4649 0.13663 0.53509 0.0
C225 C 0.46593 0.19536 0.38567 0.0
C226 C 0.49488 0.14682 0.38831 0.0
C227 C 0.45875 0.21042 0.34687 0.0
C228 C 0.49769 0.07022 0.51376 0.0
C229 C 0.49538 0.08838 0.48182 0.0
C230 C 0.47366 0.1395 0.4948 0.0
C231 C 0.47204 0.17618 0.36338 0.0
C232 C 0.47878 0.15973 0.40447 0.0
C233 C 0.4931 0.10716 0.51186 0.0
C234 C 0.48919 0.12611 0.47729 0.0
H235 H 0.46292 0.18433 0.21527 0.0
H236 H 0.47523 0.15782 0.2828 0.0
H237 H 0.45587 0.16562 0.47223 0.0
H238 H 0.49624 0.08989 0.65518 0.0
H239 H 0.49207 0.12172 0.59904 0.0
C240 C 0.31146 0.49491 0.26907 0.0
C241 C 0.29212 0.49327 0.29529 0.0
C242 C 0.32872 0.4978 0.30479 0.0
C243 C 0.34709 0.48939 0.45814 0.0
H244 H 0.39209 0.52452 0.40769 0.0
C245 C 0.41872 0.50234 0.60427 0.0
C246 C 0.43765 0.50178 0.57467 0.0
C247 C 0.40054 0.50284 0.57179 0.0
C248 C 0.37971 0.51453 0.42217 0.0
H249 H 0.27517 0.49361 0.37825 0.0
H250 H 0.30538 0.49887 0.44127 0.0
H251 H 0.36094 0.523 0.3483 0.0
H252 H 0.45222 0.50154 0.48747 0.0
H253 H 0.42055 0.50224 0.43098 0.0
H254 H 0.36593 0.48073 0.53161 0.0
C255 C 0.30733 0.49773 0.3933 0.0
C256 C 0.36186 0.51367 0.38815 0.0
C257 C 0.29007 0.49486 0.35742 0.0
C258 C 0.43795 0.50198 0.5118 0.0
C259 C 0.41977 0.50252 0.47936 0.0
C260 C 0.36493 0.49026 0.49217 0.0
C261 C 0.3269 0.49905 0.3674 0.0
C262 C 0.34541 0.50093 0.40541 0.0
C263 C 0.40085 0.50284 0.50894 0.0
C264 C 0.38153 0.50269 0.47428 0.0
H265 H 0.31327 0.49359 0.22105 0.0
H266 H 0.34355 0.49846 0.28345 0.0
H267 H 0.33483 0.47919 0.47225 0.0
H268 H 0.41789 0.50227 0.65265 0.0
H269 H 0.38623 0.50333 0.59594 0.0
C270 C 0.04083 0.29582 0.27992 0.0
C271 C 0.06136 0.29022 0.27933 0.0
C272 C 0.03441 0.31202 0.31621 0.0
C273 C 0.04979 0.3434 0.44745 0.0
H274 H 0.01302 0.38342 0.38104 0.0
C275 C 0.03886 0.42282 0.55417 0.0
C276 C 0.01908 0.43081 0.55656 0.0
C277 C 0.04276 0.40483 0.52241 0.0
C278 C 0.02307 0.37223 0.40055 0.0
H279 H 0.09134 0.29658 0.31538 0.0
H280 H 0.08029 0.32504 0.37859 0.0
H281 H 0.02211 0.35332 0.32216 0.0
H282 H 0.98784 0.42606 0.52724 0.0
H283 H 0.99469 0.39454 0.47175 0.0
H284 H 0.05098 0.36245 0.52546 0.0
C285 C 0.06902 0.31688 0.35194 0.0
C286 C 0.02828 0.35497 0.36683 0.0
C287 C 0.0754 0.30071 0.31562 0.0
C288 C 0.00326 0.42035 0.5263 0.0
C289 C 0.00719 0.40234 0.49428 0.0
C290 C 0.04461 0.36065 0.48109 0.0
C291 C 0.04846 0.32281 0.35245 0.0
C292 C 0.04191 0.34049 0.38961 0.0
C293 C 0.02699 0.39437 0.4921 0.0
C294 C 0.0314 0.3754 0.45774 0.0
H295 H 0.02981 0.28779 0.25206 0.0
H296 H 0.01845 0.31605 0.31607 0.0
H297 H 0.06002 0.33234 0.46678 0.0
H298 H 0.05144 0.43046 0.57679 0.0
H299 H 0.05824 0.39929 0.52086 0.0
C300 C 0.80515 0.98401 0.07183 0.0
C301 C 0.79709 0.00243 0.09294 0.0
C302 C 0.82218 0.98427 0.03424 0.0
C303 C 0.86659 0.01662 -0.00484 0.0
H304 H 0.87208 0.97835 0.86324 0.0
C305 C 0.93557 0.01892 0.83449 0.0
C306 C 0.94392 -2e-05 0.81788 0.0
C307 C 0.91717 0.01966 0.8659 0.0
C308 C 0.87084 0.989 0.90028 0.0
H309 H 0.79977 0.03552 0.09149 0.0
H310 H 0.82954 0.03612 0.02497 0.0
H311 H 0.84033 0.97908 0.92018 0.0
H312 H 0.93945 0.96695 0.82163 0.0
H313 H 0.90747 0.96827 0.87699 0.0
H314 H 0.89715 0.02641 0.97569 0.0
C315 C 0.82292 0.02146 0.03774 0.0
C316 C 0.85265 0.98944 0.93282 0.0
C317 C 0.80586 0.02116 0.07533 0.0
C318 C 0.93345 0.9818 0.83357 0.0
C319 C 0.91504 0.98255 0.86496 0.0
C320 C 0.88477 0.01618 0.96263 0.0
C321 C 0.83143 0.00299 0.01739 0.0
C322 C 0.85036 0.00317 0.98086 0.0
C323 C 0.90667 0.00149 0.88142 0.0
C324 C 0.88716 0.00228 0.91505 0.0
H325 H 0.79857 0.96941 0.08552 0.0
H326 H 0.82849 0.96979 0.02 0.0
H327 H 0.86545 0.02714 0.03253 0.0
H328 H 0.94318 0.03324 0.82299 0.0
H329 H 0.91102 0.0345 0.87733 0.0
C330 C 0.49567 0.79711 0.08632 0.0
C331 C 0.51524 0.789 0.09135 0.0
C332 C 0.49207 0.81313 0.0464 0.0
C333 C 0.51395 0.84018 0.91486 0.0
H334 H 0.48277 0.88615 0.9737 0.0
C335 C 0.51793 0.92005 0.80631 0.0
C336 C 0.49985 0.93126 0.8016 0.0
C337 C 0.5182 0.90156 0.83762 0.0
C338 C 0.49125 0.87331 0.95621 0.0
H339 H 0.54632 0.79057 0.05926 0.0
H340 H 0.54021 0.8187 0.98976 0.0
H341 H 0.48597 0.85556 0.03516 0.0
H342 H 0.46778 0.93162 0.82564 0.0
H343 H 0.46828 0.89928 0.88025 0.0
H344 H 0.51957 0.85813 0.83641 0.0
C345 C 0.52753 0.81264 0.01564 0.0
C346 C 0.49307 0.85577 0.99141 0.0
C347 C 0.53109 0.79666 0.05555 0.0
C348 C 0.48198 0.92342 0.82853 0.0
C349 C 0.48228 0.90493 0.86003 0.0
C350 C 0.51215 0.85773 0.8797 0.0
C351 C 0.50803 0.82122 0.01104 0.0
C352 C 0.50469 0.83912 0.97151 0.0
C353 C 0.50041 0.89384 0.86508 0.0
C354 C 0.50103 0.87461 0.90037 0.0
H355 H 0.48328 0.79127 0.11379 0.0
H356 H 0.47684 0.81924 0.04341 0.0
H357 H 0.52272 0.82747 0.89781 0.0
H358 H 0.53198 0.9256 0.78617 0.0
H359 H 0.53248 0.89354 0.8414 0.0
C360 C 0.70648 0.49191 0.10148 0.0
C361 C 0.71479 0.51171 0.10762 0.0
C362 C 0.6897 0.48843 0.06407 0.0
C363 C 0.66203 0.51129 0.93715 0.0
H364 H 0.61693 0.47677 0.99031 0.0
C365 C 0.58333 0.51375 0.82689 0.0
C366 C 0.57259 0.49521 0.81715 0.0
C367 C 0.60132 0.51415 0.85992 0.0
C368 C 0.62953 0.48621 0.97447 0.0
H369 H 0.71258 0.5434 0.0806 0.0
H370 H 0.68311 0.53751 0.01562 0.0
H371 H 0.64723 0.48058 0.05298 0.0
H372 H 0.57246 0.46249 0.83474 0.0
H373 H 0.60407 0.46323 0.89279 0.0
H374 H 0.64426 0.5172 0.85918 0.0
C375 C 0.68957 0.52457 0.03877 0.0
C376 C 0.64688 0.4884 0.01035 0.0
C377 C 0.7063 0.528 0.07617 0.0
C378 C 0.58034 0.47703 0.84138 0.0
C379 C 0.59839 0.47745 0.87483 0.0
C380 C 0.64472 0.50913 0.9014 0.0
C381 C 0.68107 0.50473 0.03217 0.0
C382 C 0.66319 0.50124 0.99251 0.0
C383 C 0.60909 0.49604 0.88426 0.0
C384 C 0.62813 0.49684 0.92008 0.0
H385 H 0.71298 0.47915 0.12543 0.0
H386 H 0.68364 0.47296 0.05953 0.0
H387 H 0.67451 0.52094 0.92148 0.0
H388 H 0.57783 0.52808 0.80907 0.0
H389 H 0.60901 0.52876 0.86719 0.0
C390 C 0.01797 0.69169 0.10997 0.0
C391 C 0.99966 0.70063 0.12786 0.0
C392 C 0.01774 0.67524 0.06968 0.0
C393 C 0.98401 0.6339 0.01251 0.0
H394 H 0.02451 0.62991 0.88667 0.0
C395 C 0.9954 0.5599 0.87478 0.0
C396 C 0.99907 0.562 0.8131 0.0
C397 C 0.99498 0.57715 0.91197 0.0
C398 C 0.01299 0.63089 0.92127 0.0
H399 H 0.96687 0.70004 0.11825 0.0
H400 H 0.96635 0.67136 0.04733 0.0
H401 H 0.02474 0.65976 0.95281 0.0
H402 H 0.0049 0.58399 0.74216 0.0
H403 H 0.004 0.61406 0.80712 0.0
H404 H 0.97212 0.60516 0.98062 0.0
C405 C 0.98088 0.67676 0.06466 0.0
C406 C 0.01327 0.64787 0.95958 0.0
C407 C 0.98115 0.69321 0.10484 0.0
C408 C 0.00208 0.58179 0.78948 0.0
C409 C 0.0017 0.59903 0.82673 0.0
C410 C 0.98377 0.61691 0.97433 0.0
C411 C 0.99916 0.66748 0.04691 0.0
C412 C 0.99879 0.64956 0.00569 0.0
C413 C 0.99824 0.5969 0.88845 0.0
C414 C 0.99828 0.61517 0.92835 0.0
H415 H 0.0324 0.69726 0.12764 0.0
H416 H 0.03206 0.6683 0.0574 0.0
H417 H 0.97278 0.63463 0.04797 0.0
H418 H 0.99306 0.54492 0.89458 0.0
H419 H 0.9925 0.57496 0.95944 0.0
C420 C 0.06444 0.1875 0.37052 0.0
C421 C 0.054 0.20001 0.33029 0.0
C422 C 0.05364 0.1747 0.4096 0.0
C423 C 0.02606 0.15246 0.49937 0.0
H424 H 0.98977 0.11649 0.4091 0.0
C425 C 0.99077 0.08025 0.60538 0.0
C426 C 0.99535 0.06223 0.57353 0.0
C427 C 0.99295 0.09945 0.57844 0.0
C428 C 0.99968 0.12653 0.43501 0.0
H429 H 0.02432 0.20983 0.30071 0.0
H430 H 0.00528 0.18715 0.36886 0.0
H431 H 0.00361 0.14763 0.36254 0.0
H432 H 0.00418 0.05023 0.48683 0.0
H433 H 0.00776 0.0838 0.43965 0.0
H434 H 0.02281 0.13097 0.57099 0.0
C435 C 0.02179 0.18742 0.37057 0.0
C436 C 0.00745 0.14442 0.40863 0.0
C437 C 0.03263 0.2005 0.33212 0.0
C438 C 0.0006 0.06378 0.51273 0.0
C439 C 0.00259 0.08302 0.48562 0.0
C440 C 0.01808 0.13472 0.526 0.0
C441 C 0.03221 0.17392 0.40822 0.0
C442 C 0.02117 0.15724 0.44 0.0
C443 C 0.9995 0.10105 0.51888 0.0
C444 C 0.00527 0.12129 0.49349 0.0
H445 H 0.08092 0.18672 0.36908 0.0
H446 H 0.06206 0.16431 0.43771 0.0
H447 H 0.03659 0.16209 0.52447 0.0
H448 H 0.98655 0.07967 0.6522 0.0
H449 H 0.99023 0.1131 0.60484 0.0
C450 C 0.31355 0.04012 0.35046 0.0
C451 C 0.30121 0.02887 0.31072 0.0
C452 C 0.32576 0.03001 0.39164 0.0
C453 C 0.35489 0.98394 0.3999 0.0
H454 H 0.36689 0.00297 0.56058 0.0
C455 C 0.41788 0.97484 0.60232 0.0
C456 C 0.43572 0.97969 0.56992 0.0
C457 C 0.39885 0.97508 0.57449 0.0
C458 C 0.36352 0.99717 0.5162 0.0
H459 H 0.2911 0.99845 0.28404 0.0
H460 H 0.31282 0.98061 0.35581 0.0
H461 H 0.33644 0.01502 0.50969 0.0
H462 H 0.44766 0.98683 0.48177 0.0
H463 H 0.41444 0.98711 0.43321 0.0
H464 H 0.3826 0.96698 0.4052 0.0
C465 C 0.31286 0.99723 0.35545 0.0
C466 C 0.34617 0.00417 0.48703 0.0
C467 C 0.30037 0.00739 0.31486 0.0
C468 C 0.43424 0.98315 0.5081 0.0
C469 C 0.41519 0.98321 0.48019 0.0
C470 C 0.37239 0.97712 0.42883 0.0
C471 C 0.32608 0.00846 0.39301 0.0
C472 C 0.34201 0.99807 0.42803 0.0
C473 C 0.39728 0.97993 0.51361 0.0
C474 C 0.37716 0.98412 0.48664 0.0
H475 H 0.31451 0.0567 0.34754 0.0
H476 H 0.33596 0.03904 0.41961 0.0
H477 H 0.35214 0.97914 0.35418 0.0
H478 H 0.41844 0.97197 0.64996 0.0
H479 H 0.38528 0.97228 0.60111 0.0
C480 C 0.49282 0.30031 0.30032 0.0
C481 C 0.47191 0.29696 0.30981 0.0
C482 C 0.50376 0.31387 0.33709 0.0
C483 C 0.5152 0.35647 0.38301 0.0
H484 H 0.50524 0.36442 0.5523 0.0
C485 C 0.51844 0.43496 0.50086 0.0
C486 C 0.52476 0.43596 0.56082 0.0
C487 C 0.51758 0.41614 0.47077 0.0
C488 C 0.50851 0.36225 0.50524 0.0
H489 H 0.44605 0.30419 0.36558 0.0
H490 H 0.46512 0.32777 0.43056 0.0
H491 H 0.49315 0.33304 0.50349 0.0
H492 H 0.53679 0.41817 0.63447 0.0
H493 H 0.53529 0.38545 0.58177 0.0
H494 H 0.52994 0.38601 0.38436 0.0
C495 C 0.47322 0.3198 0.39544 0.0
C496 C 0.50142 0.34436 0.47724 0.0
C497 C 0.46228 0.30633 0.35845 0.0
C498 C 0.53164 0.41797 0.58848 0.0
C499 C 0.5307 0.39917 0.55846 0.0
C500 C 0.52219 0.37443 0.41095 0.0
C501 C 0.4939 0.32429 0.38379 0.0
C502 C 0.50424 0.34151 0.41555 0.0
C503 C 0.52299 0.39795 0.50003 0.0
C504 C 0.51847 0.37773 0.47204 0.0
H505 H 0.50039 0.29341 0.26231 0.0
H506 H 0.5197 0.31692 0.32738 0.0
H507 H 0.51744 0.35482 0.33526 0.0
H508 H 0.5131 0.4485 0.47811 0.0
H509 H 0.51146 0.4157 0.42582 0.0
C510 C 0.20686 0.52199 0.3815 0.0
C511 C 0.20744 0.52865 0.32203 0.0
C512 C 0.19408 0.53157 0.42278 0.0
C513 C 0.14467 0.55602 0.41344 0.0
H514 H 0.14705 0.55079 0.58576 0.0
C515 C 0.09005 0.52236 0.60295 0.0
C516 C 0.07138 0.53169 0.59013 0.0
C517 C 0.10821 0.53008 0.57906 0.0
C518 C 0.14619 0.55256 0.53769 0.0
H519 H 0.19744 0.55196 0.26047 0.0
H520 H 0.17574 0.56928 0.33306 0.0
H521 H 0.17863 0.55134 0.52766 0.0
H522 H 0.05724 0.55701 0.54413 0.0
H523 H 0.08918 0.57034 0.50101 0.0
H524 H 0.11225 0.55607 0.42305 0.0
C525 C 0.18457 0.55631 0.34765 0.0
C526 C 0.16426 0.55285 0.50443 0.0
C527 C 0.19715 0.54657 0.30625 0.0
C528 C 0.07137 0.54942 0.55452 0.0
C529 C 0.08963 0.55705 0.52992 0.0
C530 C 0.12664 0.55582 0.44669 0.0
C531 C 0.1818 0.54804 0.40515 0.0
C532 C 0.16365 0.55353 0.44164 0.0
C533 C 0.1082 0.54725 0.54134 0.0
C534 C 0.12717 0.55303 0.50884 0.0
H535 H 0.21452 0.50807 0.39442 0.0
H536 H 0.19234 0.52468 0.46652 0.0
H537 H 0.14347 0.55634 0.36518 0.0
H538 H 0.09066 0.5088 0.63076 0.0
H539 H 0.12216 0.52195 0.58797 0.0
C540 C 0.9918 0.80254 0.03805 0.0
C541 C 0.00551 0.79146 0.07299 0.0
C542 C 0.99896 0.81589 0.99396 0.0
C543 C 0.04317 0.84886 0.96487 0.0
H544 H 0.01212 0.86205 0.82331 0.0
C545 C 0.03963 0.93035 0.8656 0.0
C546 C 0.03504 0.93242 0.80482 0.0
C547 C 0.04124 0.91077 0.89077 0.0
C548 C 0.02134 0.85846 0.86187 0.0
H549 H 0.0373 0.78457 0.08734 0.0
H550 H 0.04997 0.80793 0.00937 0.0
H551 H 0.00499 0.83027 0.87583 0.0
H552 H 0.03013 0.91621 0.72146 0.0
H553 H 0.03398 0.88216 0.76429 0.0
H554 H 0.05937 0.87725 0.95121 0.0
C555 C 0.03368 0.80636 0.01638 0.0
C556 C 0.01705 0.84028 0.8924 0.0
C557 C 0.02646 0.79283 0.06038 0.0
C558 C 0.03359 0.91487 0.76864 0.0
C559 C 0.0356 0.89539 0.79335 0.0
C560 C 0.04756 0.86706 0.93405 0.0
C561 C 0.02002 0.81855 0.98411 0.0
C562 C 0.02741 0.83559 0.94538 0.0
C563 C 0.03852 0.89303 0.8552 0.0
C564 C 0.03627 0.87239 0.88316 0.0
H565 H 0.97559 0.80181 0.04744 0.0
H566 H 0.988 0.82517 0.97053 0.0
H567 H 0.05136 0.84578 0.0058 0.0
H568 H 0.0406 0.94375 0.89427 0.0
H569 H 0.04333 0.9096 0.93862 0.0
C570 C 0.70676 0.01897 0.01501 0.0
C571 C 0.70951 0.03216 0.06402 0.0
C572 C 0.69229 0.02344 0.97127 0.0
C573 C 0.64337 0.04964 0.96655 0.0
H574 H 0.6423 0.02888 0.80409 0.0
C575 C 0.56865 0.04304 0.82852 0.0
C576 C 0.56576 0.02378 0.80108 0.0
C577 C 0.58763 0.04854 0.85299 0.0
C578 C 0.64239 0.03482 0.84937 0.0
H579 H 0.70118 0.0613 0.10287 0.0
H580 H 0.67644 0.06955 0.0254 0.0
H581 H 0.67475 0.0317 0.85707 0.0
H582 H 0.5807 0.9953 0.77751 0.0
H583 H 0.61339 0.00482 0.82019 0.0
H584 H 0.61095 0.05204 0.95961 0.0
C585 C 0.68494 0.05549 0.02139 0.0
C586 C 0.66097 0.03644 0.87968 0.0
C587 C 0.69926 0.05092 0.06532 0.0
C588 C 0.58227 0.01026 0.79838 0.0
C589 C 0.60116 0.0158 0.82226 0.0
C590 C 0.62482 0.04809 0.93616 0.0
C591 C 0.68043 0.04124 0.9758 0.0
C592 C 0.6616 0.04323 0.93934 0.0
C593 C 0.6041 0.03497 0.84984 0.0
C594 C 0.62405 0.04 0.878 0.0
H595 H 0.71432 0.00431 0.01355 0.0
H596 H 0.68919 0.01205 0.93702 0.0
H597 H 0.64316 0.05464 0.01274 0.0
H598 H 0.55629 0.05384 0.83115 0.0
H599 H 0.58947 0.06343 0.87404 0.0
C600 C 0.47205 0.68437 0.10244 0.0
C601 C 0.48544 0.70049 0.08665 0.0
C602 C 0.46413 0.67119 0.05882 0.0
C603 C 0.48237 0.65281 0.91363 0.0
H604 H 0.44069 0.61114 0.94175 0.0
C605 C 0.49697 0.57042 0.85249 0.0
C606 C 0.48169 0.55844 0.82501 0.0
C607 C 0.49252 0.58951 0.87665 0.0
C608 C 0.45219 0.62279 0.93253 0.0
H609 H 0.4982 0.71758 0.0122 0.0
H610 H 0.48336 0.69534 0.93558 0.0
H611 H 0.43849 0.64433 0.99227 0.0
H612 H 0.44947 0.55663 0.8039 0.0
H613 H 0.44161 0.59043 0.84654 0.0
H614 H 0.49609 0.63136 0.85424 0.0
C615 C 0.4799 0.69211 0.98198 0.0
C616 C 0.45107 0.64177 0.96188 0.0
C617 C 0.48819 0.70509 0.02588 0.0
C618 C 0.46154 0.56554 0.82497 0.0
C619 C 0.45707 0.58488 0.84909 0.0
C620 C 0.48334 0.63404 0.88395 0.0
C621 C 0.46911 0.67409 -0.00181 0.0
C622 C 0.46675 0.65663 0.95522 0.0
C623 C 0.47269 0.59729 0.87356 0.0
C624 C 0.46891 0.61842 0.89555 0.0
H625 H 0.46916 0.68083 0.14902 0.0
H626 H 0.4558 0.65768 0.07364 0.0
H627 H 0.49486 0.66361 0.90705 0.0
H628 H 0.51259 0.56525 0.85409 0.0
H629 H 0.50477 0.59836 0.89708 0.0
C630 C 0.81084 0.51847 0.98094 0.0
C631 C 0.79996 0.50567 0.02031 0.0
C632 C 0.8222 0.51005 0.93439 0.0
C633 C 0.8522 0.46474 0.91376 0.0
H634 H 0.86729 0.49158 0.76538 0.0
C635 C 0.92155 0.46799 0.72657 0.0
C636 C 0.93801 0.47101 0.76608 0.0
C637 C 0.90157 0.46658 0.74825 0.0
C638 C 0.86306 0.48358 0.80604 0.0
H639 H 0.79093 0.47434 0.03964 0.0
H640 H 0.81086 0.45948 0.95789 0.0
H641 H 0.83522 0.50017 0.81438 0.0
H642 H 0.94647 0.47344 0.85956 0.0
H643 H 0.91171 0.47087 0.89728 0.0
H644 H 0.88052 0.44895 0.90705 0.0
C645 C 0.81061 0.476 0.96297 0.0
C646 C 0.84476 0.4886 0.83424 0.0
C647 C 0.79906 0.48448 0.00928 0.0
C648 C 0.93416 0.47122 0.82789 0.0
C649 C 0.91422 0.46961 0.84954 0.0
C650 C 0.87055 0.45982 0.88576 0.0
C651 C 0.82307 0.48865 0.92693 0.0
C652 C 0.83952 0.47982 0.88958 0.0
C653 C 0.89767 0.46789 0.80988 0.0
C654 C 0.87653 0.46977 0.83283 0.0
H655 H 0.81187 0.53484 0.98919 0.0
H656 H 0.83174 0.52023 0.90785 0.0
H657 H 0.84872 0.45782 0.95661 0.0
H658 H 0.92397 0.46772 0.67866 0.0
H659 H 0.88912 0.4651 0.71671 0.0
C660 C 0.0758 0.19027 0.07719 0.0
C661 C 0.08501 0.18775 0.13324 0.0
C662 C 0.07481 0.17394 0.03678 0.0
C663 C 0.09223 0.12249 -0.00392 0.0
H664 H 0.03488 0.11254 0.96366 0.0
C665 C 0.06012 0.04811 0.88001 0.0
C666 C 0.04374 0.05106 0.84065 0.0
C667 C 0.06759 0.06451 0.91494 0.0
C668 C 0.051 0.11519 0.97135 0.0
H669 H 0.10234 0.167 0.18836 0.0
H670 H 0.10067 0.1384 0.11719 0.0
H671 H 0.04523 0.14268 0.0202 0.0
H672 H 0.02322 0.07373 0.80443 0.0
H673 H 0.03647 0.10199 0.86307 0.0
H674 H 0.09793 0.095 0.94597 0.0
C675 C 0.09413 0.15295 0.10487 0.0
C676 C 0.05691 0.13248 0.00382 0.0
C677 C 0.095 0.16927 0.14559 0.0
C678 C 0.03552 0.07075 0.83535 0.0
C679 C 0.0431 0.08702 0.86926 0.0
C680 C 0.0863 0.10519 0.96252 0.0
C681 C 0.08314 0.15486 0.05149 0.0
C682 C 0.07755 0.13647 0.01594 0.0
C683 C 0.05891 0.08409 0.91046 0.0
C684 C 0.0656 0.10153 0.94912 0.0
H685 H 0.06787 0.20425 0.0665 0.0
H686 H 0.06641 0.17581 -0.00447 0.0
H687 H 0.10824 0.12517 0.0055 0.0
H688 H 0.06684 0.03312 0.8847 0.0
H689 H 0.07979 0.06174 0.94634 0.0
C690 C 0.31148 0.0551 0.06054 0.0
C691 C 0.31206 0.0639 0.11781 0.0
C692 C 0.32789 0.05778 0.02131 0.0
C693 C 0.38325 0.06695 0.02978 0.0
H694 H 0.3791 0.06094 0.85779 0.0
C695 C 0.45227 0.0504 0.8718 0.0
C696 C 0.44882 0.03259 0.83737 0.0
C697 C 0.43622 0.0593 0.90374 0.0
C698 C 0.38049 0.06284 0.90575 0.0
H699 H 0.32922 0.08399 0.17704 0.0
H700 H 0.35766 0.08924 0.10784 0.0
H701 H 0.34881 0.06934 0.91595 0.0
H702 H 0.42576 0.01034 0.80913 0.0
H703 H 0.39803 0.02597 0.86386 0.0
H704 H 0.41491 0.05996 0.01925 0.0
C705 C 0.34486 0.07973 0.09379 0.0
C706 C 0.36315 0.06753 0.93912 0.0
C707 C 0.32853 0.07687 0.13324 0.0
C708 C 0.42905 0.02396 0.83545 0.0
C709 C 0.41307 0.03303 0.86626 0.0
C710 C 0.40065 0.0625 -0.00376 0.0
C711 C 0.34515 0.0695 0.03837 0.0
C712 C 0.36413 0.06882 0.00182 0.0
C713 C 0.41644 0.0508 0.9005 0.0
C714 C 0.39923 0.05962 0.93425 0.0
H715 H 0.29908 0.04485 0.04776 0.0
H716 H 0.32759 0.04945 0.97937 0.0
H717 H 0.38462 0.06758 0.07798 0.0
H718 H 0.46732 0.05742 0.87406 0.0
H719 H 0.43917 0.07296 0.93023 0.0
C720 C 0.42693 0.32454 0.13076 0.0
C721 C 0.43546 0.30527 0.11902 0.0
C722 C 0.42647 0.33953 0.08629 0.0
C723 C 0.45862 0.35459 0.9629 0.0
H724 H 0.41873 0.39677 0.93417 0.0
C725 C 0.4777 0.42049 0.80507 0.0
C726 C 0.47176 0.44031 0.82165 0.0
C727 C 0.4698 0.40335 0.83449 0.0
C728 C 0.43007 0.38519 0.94213 0.0
H729 H 0.4484 0.28589 0.0503 0.0
H730 H 0.44746 0.31204 0.97241 0.0
H731 H 0.40958 0.36701 -0.00402 0.0
H732 H 0.45233 0.45779 0.88054 0.0
H733 H 0.43913 0.4277 0.93462 0.0
H734 H 0.47949 0.3729 0.91246 0.0
C735 C 0.44134 0.31561 0.01618 0.0
C736 C 0.42477 0.36811 0.97709 0.0
C737 C 0.44172 0.30059 0.06057 0.0
C738 C 0.45722 0.44265 0.8672 0.0
C739 C 0.44958 0.4254 0.89776 0.0
C740 C 0.46397 0.37167 0.92879 0.0
C741 C 0.43461 0.33551 0.02943 0.0
C742 C 0.43904 0.35267 0.98783 0.0
C743 C 0.45611 0.40556 0.88239 0.0
C744 C 0.44982 0.38723 0.91787 0.0
H745 H 0.42182 0.32844 0.17539 0.0
H746 H 0.42121 0.35471 0.09784 0.0
H747 H 0.47014 0.34326 0.97176 0.0
H748 H 0.4885 0.41817 0.76906 0.0
H749 H 0.47468 0.38834 0.81998 0.0
C750 C 0.16701 0.47718 0.18767 0.0
C751 C 0.18595 0.48135 0.16036 0.0
C752 C 0.15025 0.47099 0.15357 0.0
C753 C 0.13363 0.4506 0.00767 0.0
H754 H 0.08682 0.4853 0.03282 0.0
C755 C 0.07284 0.46308 0.82816 0.0
C756 C 0.05291 0.46842 0.84475 0.0
C757 C 0.0877 0.45977 0.8714 0.0
C758 C 0.09947 0.47505 0.02597 0.0
H759 H 0.20248 0.481 0.07641 0.0
H760 H 0.17307 0.46995 0.01654 0.0
H761 H 0.11591 0.48825 0.09935 0.0
H762 H 0.03259 0.47286 0.92011 0.0
H763 H 0.05845 0.46648 -0.00409 0.0
H764 H 0.11725 0.4375 0.93391 0.0
C765 C 0.17128 0.47155 0.06447 0.0
C766 C 0.11623 0.47685 0.06404 0.0
C767 C 0.18809 0.47789 0.09866 0.0
C768 C 0.04784 0.46899 0.9058 0.0
C769 C 0.06272 0.46547 0.94922 0.0
C770 C 0.11673 0.44861 0.96993 0.0
C771 C 0.15207 0.46863 0.09145 0.0
C772 C 0.13364 0.46497 0.05451 0.0
C773 C 0.083 0.46148 0.93251 0.0
C774 C 0.09964 0.46119 0.97769 0.0
H775 H 0.16501 0.47919 0.23541 0.0
H776 H 0.13571 0.4685 0.17564 0.0
H777 H 0.14677 0.44108 -0.00017 0.0
H778 H 0.07733 0.4624 0.78156 0.0
H779 H 0.10314 0.45698 0.85657 0.0
C780 C 0.96001 0.81512 0.25753 0.0
C781 C 0.97553 0.80155 0.27327 0.0
C782 C 0.95518 0.83155 0.29483 0.0
C783 C 0.9645 0.85451 0.44514 0.0
H784 H 0.96198 0.9058 0.35805 0.0
C785 C 0.96416 0.93158 0.5695 0.0
C786 C 0.97822 0.94628 0.54785 0.0
C787 C 0.95887 0.91442 0.53509 0.0
C788 C 0.96263 0.89162 0.38304 0.0
H789 H 0.99728 0.79363 0.34179 0.0
H790 H 0.9891 0.82248 0.40686 0.0
H791 H 0.96175 0.87348 0.30345 0.0
H792 H 0.99676 0.95512 0.47154 0.0
H793 H 0.98777 0.92507 0.4118 0.0
H794 H 0.96659 0.87273 0.52452 0.0
C795 C 0.98042 0.82035 0.36612 0.0
C796 C 0.96222 0.87304 0.35181 0.0
C797 C 0.98514 0.80381 0.32891 0.0
C798 C 0.98588 0.94411 0.48953 0.0
C799 C 0.98066 0.92688 0.45518 0.0
C800 C 0.96496 0.8731 0.47637 0.0
C801 C 0.96591 0.83483 0.34843 0.0
C802 C 0.96359 0.85428 0.38241 0.0
C803 C 0.96757 0.91154 0.47832 0.0
C804 C 0.96448 0.89189 0.44557 0.0
H805 H 0.95223 0.81354 0.21504 0.0
H806 H 0.94361 0.84215 0.28056 0.0
H807 H 0.96536 0.84033 0.47007 0.0
H808 H 0.95777 0.9329 0.61402 0.0
H809 H 0.94841 0.90311 0.55368 0.0
C810 C 0.69668 0.98858 0.29734 0.0
C811 C 0.69786 0.00803 0.27045 0.0
C812 C 0.68062 0.98366 0.33622 0.0
C813 C 0.63751 0.00683 0.42092 0.0
H814 H 0.61176 0.95342 0.39761 0.0
C815 C 0.55427 0.99075 0.47995 0.0
C816 C 0.5524 0.9783 0.53093 0.0
C817 C 0.57252 0.99147 0.44787 0.0
C818 C 0.61893 0.9683 0.40457 0.0
H819 H 0.68405 0.03801 0.26654 0.0
H820 H 0.65582 0.02932 0.33215 0.0
H821 H 0.64422 0.96135 0.34787 0.0
H822 H 0.56742 0.95532 0.58462 0.0
H823 H 0.59922 0.95625 0.52696 0.0
H824 H 0.61161 0.01404 0.47506 0.0
C825 C 0.6673 0.01785 0.3242 0.0
C826 C 0.63757 0.97283 0.37671 0.0
C827 C 0.68339 0.0228 0.28592 0.0
C828 C 0.56845 0.96514 0.54572 0.0
C829 C 0.58661 0.96563 0.51288 0.0
C830 C 0.61877 0.00242 0.44773 0.0
C831 C 0.66541 0.99807 0.34875 0.0
C832 C 0.64691 0.9923 0.38375 0.0
C833 C 0.58899 0.97943 0.4654 0.0
C834 C 0.60924 0.98328 0.43899 0.0
H835 H 0.70757 0.97684 0.28608 0.0
H836 H 0.67985 0.9684 0.3552 0.0
H837 H 0.64446 0.02177 0.42861 0.0
H838 H 0.54224 0.00109 0.46737 0.0
H839 H 0.57413 0.00216 0.4111 0.0
C840 C 0.53876 0.66926 0.2333 0.0
C841 C 0.53351 0.68884 0.2543 0.0
C842 C 0.54504 0.65414 0.27282 0.0
C843 C 0.53909 0.64093 0.43201 0.0
H844 H 0.5698 0.59322 0.38359 0.0
C845 C 0.54499 0.57055 0.58299 0.0
C846 C 0.53727 0.55253 0.55595 0.0
C847 C 0.55008 0.58766 0.54852 0.0
C848 C 0.56131 0.60653 0.39771 0.0
H849 H 0.5327 0.70849 0.3326 0.0
H850 H 0.54469 0.68237 0.40141 0.0
H851 H 0.57012 0.62377 0.32047 0.0
H852 H 0.53021 0.53793 0.47104 0.0
H853 H 0.53934 0.56793 0.41064 0.0
H854 H 0.53032 0.62362 0.50915 0.0
C855 C 0.5431 0.67843 0.35458 0.0
C856 C 0.56137 0.62399 0.36155 0.0
C857 C 0.53647 0.69352 0.31502 0.0
C858 C 0.53599 0.5516 0.49326 0.0
C859 C 0.54132 0.56871 0.45867 0.0
C860 C 0.53936 0.62365 0.46855 0.0
C861 C 0.54666 0.6583 0.33435 0.0
C862 C 0.54972 0.6412 0.3773 0.0
C863 C 0.54782 0.58706 0.48624 0.0
C864 C 0.55 0.6061 0.45096 0.0
H865 H 0.53724 0.66533 0.18642 0.0
H866 H 0.5475 0.63889 0.25522 0.0
H867 H 0.52962 0.65361 0.44537 0.0
H868 H 0.54632 0.5718 0.63114 0.0
H869 H 0.55519 0.60161 0.5707 0.0
C870 C 0.82324 0.54658 0.25756 0.0
C871 C 0.8229 0.52955 0.21883 0.0
C872 C 0.84052 0.55086 0.29263 0.0
C873 C 0.89562 0.53978 0.29799 0.0
H874 H 0.89164 0.54941 0.46868 0.0
C875 C 0.95514 0.51376 0.46453 0.0
C876 C 0.96081 0.52657 0.51236 0.0
C877 C 0.93992 0.5196 0.42498 0.0
C878 C 0.893 0.54721 0.42082 0.0
H879 H 0.83974 0.50296 0.18937 0.0
H880 H 0.86958 0.51034 0.24993 0.0
H881 H 0.86069 0.54913 0.40749 0.0
H882 H 0.95542 0.55578 0.55571 0.0
H883 H 0.9282 0.56585 0.48678 0.0
H884 H 0.92771 0.53669 0.31167 0.0
C885 C 0.85689 0.52079 0.25211 0.0
C886 C 0.8753 0.54703 0.38586 0.0
C887 C 0.83976 0.51651 0.21753 0.0
C888 C 0.95142 0.54571 0.51883 0.0
C889 C 0.93581 0.5514 0.47979 0.0
C890 C 0.91322 0.53986 0.33284 0.0
C891 C 0.85767 0.53818 0.28923 0.0
C892 C 0.87639 0.54245 0.32451 0.0
C893 C 0.92978 0.53825 0.43296 0.0
C894 C 0.91198 0.54278 0.39488 0.0
H895 H 0.81043 0.55687 0.25944 0.0
H896 H 0.84066 0.5643 0.32122 0.0
H897 H 0.89698 0.5367 0.25053 0.0
H898 H 0.96213 0.49893 0.45852 0.0
H899 H 0.93543 0.50906 0.38968 0.0
loop_
_geom_bond_atom_site_label_1
_geom_bond_atom_site_label_2
_geom_bond_distance
_geom_bond_site_symmetry_2
_ccdc_geom_bond_type
H0 C3 0.929 . S
H1 C6 0.929 . S
H2 C8 0.930 . S
C3 H0 0.929 . S
C3 C4 1.398 . S
C3 C5 1.396 . S
C4 C3 1.398 . S
C4 C8 1.407 . S
C5 C3 1.396 . S
C5 C6 1.394 1_554 S
C6 H1 0.929 . S
C6 C5 1.394 1_556 S
C6 C7 1.382 1_556 S
C7 C6 1.382 1_554 S
C7 C8 1.392 . S
C7 N9 1.420 . S
C8 H2 0.930 . S
C8 C4 1.407 . S
C8 C7 1.392 . S
N9 C7 1.420 . S
N9 C10 1.244 1_554 S
C10 N9 1.244 1_556 S
H11 C14 0.937 . S
H12 C17 0.929 . S
H13 C19 0.930 . S
C14 H11 0.937 . S
C14 C15 1.395 1_655 S
C14 C16 1.391 1_655 S
C15 C14 1.395 1_455 S
C15 C19 1.407 . S
C16 C14 1.391 1_455 S
C16 C17 1.404 . S
C17 H12 0.929 . S
C17 C16 1.404 . S
C17 C18 1.382 . S
C18 C17 1.382 . S
C18 C19 1.392 . S
C18 N20 1.420 . S
C19 H13 0.930 . S
C19 C15 1.407 . S
C19 C18 1.392 . S
N20 C18 1.420 . S
N20 C21 1.244 1_455 S
C21 N20 1.244 1_655 S
H22 C25 0.929 . S
H23 C28 0.929 . S
H24 C30 0.930 . S
C25 H22 0.929 . S
C25 C26 1.395 1_565 S
C25 C27 1.394 1_565 S
C26 C25 1.395 1_545 S
C26 C30 1.415 . S
C27 C25 1.394 1_545 S
C27 C28 1.398 . S
C28 H23 0.929 . S
C28 C27 1.398 . S
C28 C29 1.382 . S
C29 C28 1.382 . S
C29 C30 1.392 . S
C29 N31 1.420 . S
C30 H24 0.930 . S
C30 C26 1.415 . S
C30 C29 1.392 . S
N31 C29 1.420 . S
N31 C32 1.244 1_545 S
C32 N31 1.244 1_565 S
H33 C36 0.929 . S
H34 C39 0.929 1_556 S
H35 C41 0.930 . S
C36 H33 0.929 . S
C36 C37 1.398 . S
C36 C38 1.396 . S
C37 C36 1.398 . S
C37 C41 1.407 . S
C38 C36 1.396 . S
C38 C39 1.394 . S
C39 H34 0.929 1_554 S
C39 C38 1.394 . S
C39 C40 1.382 . S
C40 C39 1.382 . S
C40 C41 1.392 . S
C40 N42 1.420 . S
C41 H35 0.930 . S
C41 C37 1.407 . S
C41 C40 1.392 . S
N42 C40 1.420 . S
N42 C43 1.244 . S
C43 N42 1.244 . S
H44 C47 0.929 . S
H45 C50 0.929 . S
H46 C52 0.930 . S
C47 H44 0.929 . S
C47 C48 1.398 . S
C47 C49 1.396 . S
C48 C47 1.398 . S
C48 C52 1.407 . S
C49 C47 1.396 . S
C49 C50 1.394 . S
C50 H45 0.929 . S
C50 C49 1.394 . S
C50 C51 1.382 . S
C51 C50 1.382 . S
C51 C52 1.392 . S
C51 N53 1.420 . S
C52 H46 0.930 . S
C52 C48 1.407 . S
C52 C51 1.392 . S
N53 C51 1.420 . S
N53 C54 1.244 . S
C54 N53 1.244 . S
H55 C58 0.929 . S
H56 C61 0.929 . S
H57 C63 0.930 . S
C58 H55 0.929 . S
C58 C59 1.398 . S
C58 C60 1.396 . S
C59 C58 1.398 . S
C59 C63 1.407 . S
C60 C58 1.396 . S
C60 C61 1.394 . S
C61 H56 0.929 . S
C61 C60 1.394 . S
C61 C62 1.382 . S
C62 C61 1.382 . S
C62 C63 1.392 . S
C62 N64 1.420 . S
C63 H57 0.930 . S
C63 C59 1.407 . S
C63 C62 1.392 . S
N64 C62 1.420 . S
N64 C65 1.244 . S
C65 N64 1.244 . S
H66 C69 0.929 . S
H67 C72 0.929 . S
H68 C74 0.930 . S
C69 H66 0.929 . S
C69 C70 1.398 . S
C69 C71 1.396 . S
C70 C69 1.398 . S
C70 C74 1.407 . S
C71 C69 1.396 . S
C71 C72 1.394 . S
C72 H67 0.929 . S
C72 C71 1.394 . S
C72 C73 1.382 . S
C73 C72 1.382 . S
C73 C74 1.392 . S
C73 N75 1.420 . S
C74 H68 0.930 . S
C74 C70 1.407 . S
C74 C73 1.392 . S
N75 C73 1.420 . S
N75 C76 1.244 . S
C76 N75 1.244 . S
H77 C80 0.929 . S
H78 C83 0.929 . S
H79 C85 0.930 . S
C80 H77 0.929 . S
C80 C81 1.398 . S
C80 C82 1.396 . S
C81 C80 1.398 . S
C81 C85 1.407 . S
C82 C80 1.396 . S
C82 C83 1.394 . S
C83 H78 0.929 . S
C83 C82 1.394 . S
C83 C84 1.382 . S
C84 C83 1.382 . S
C84 C85 1.392 . S
C84 N86 1.420 . S
C85 H79 0.930 . S
C85 C81 1.407 . S
C85 C84 1.392 . S
N86 C84 1.420 . S
N86 C87 1.244 . S
C87 N86 1.244 . S
O88 Zn89 1.956 . S
O88 C104 1.225 1_545 S
Zn89 O88 1.956 . S
Zn89 O90 1.948 1_545 S
Zn89 O96 1.950 . S
Zn89 O101 1.887 1_545 S
O90 Zn89 1.948 1_565 S
O90 Zn91 1.903 1_465 S
O90 Zn92 1.952 . S
O90 Zn93 1.963 1_455 S
Zn91 O90 1.903 1_645 S
Zn91 O94 1.933 . S
Zn91 O97 1.941 1_655 S
Zn91 O98 1.965 1_655 S
Zn92 O90 1.952 . S
Zn92 O99 1.938 1_565 S
Zn92 O100 1.906 . S
Zn92 O110 1.953 . S
Zn93 O90 1.963 1_655 S
Zn93 O95 1.932 . S
Zn93 O102 1.977 . S
Zn93 O103 1.910 1_655 S
O94 Zn91 1.933 . S
O94 C105 1.226 . S
O95 Zn93 1.932 . S
O95 C105 1.307 1_565 S
O96 Zn89 1.950 . S
O96 C107 1.253 . S
O97 Zn91 1.941 1_455 S
O97 C107 1.283 . S
O98 Zn91 1.965 1_455 S
O98 C106 1.303 . S
O99 Zn92 1.938 1_545 S
O99 C106 1.247 . S
O100 Zn92 1.906 . S
O100 C108 1.304 1_455 S
O101 Zn89 1.887 1_565 S
O101 C109 1.311 . S
O102 Zn93 1.977 . S
O102 C108 1.272 . S
O103 Zn93 1.910 1_455 S
O103 C109 1.231 . S
C104 O88 1.225 1_565 S
C104 O110 1.298 . S
C105 O94 1.226 . S
C105 O95 1.307 1_545 S
C106 O98 1.303 . S
C106 O99 1.247 . S
C107 O96 1.253 . S
C107 O97 1.283 . S
C108 O100 1.304 1_655 S
C108 O102 1.272 . S
C109 O101 1.311 . S
C109 O103 1.231 . S
O110 Zn92 1.953 . S
O110 C104 1.298 . S
O111 Zn112 1.953 . S
O111 C127 1.225 . S
Zn112 O111 1.953 . S
Zn112 O113 1.949 . S
Zn112 O119 1.919 . S
Zn112 O124 1.924 . S
O113 Zn112 1.949 . S
O113 Zn114 1.923 1_545 S
O113 Zn115 1.950 . S
O113 Zn116 1.945 1_545 S
Zn114 O113 1.923 1_565 S
Zn114 O117 1.933 . S
Zn114 O120 1.941 . S
Zn114 O121 1.965 . S
Zn115 O113 1.950 . S
Zn115 O122 1.938 . S
Zn115 O123 1.906 . S
Zn115 O133 1.953 . S
Zn116 O113 1.945 1_565 S
Zn116 O118 1.932 . S
Zn116 O125 1.977 . S
Zn116 O126 1.910 1_565 S
O117 Zn114 1.933 . S
O117 C128 1.226 . S
O118 Zn116 1.932 . S
O118 C128 1.307 . S
O119 Zn112 1.919 . S
O119 C130 1.253 . S
O120 Zn114 1.941 . S
O120 C130 1.283 1_565 S
O121 Zn114 1.965 . S
O121 C129 1.303 1_565 S
O122 Zn115 1.938 . S
O122 C129 1.247 . S
O123 Zn115 1.906 . S
O123 C131 1.304 1_545 S
O124 Zn112 1.924 . S
O124 C132 1.311 . S
O125 Zn116 1.977 . S
O125 C131 1.272 . S
O126 Zn116 1.910 1_545 S
O126 C132 1.231 . S
C127 O111 1.225 . S
C127 O133 1.298 . S
C128 O117 1.226 . S
C128 O118 1.307 . S
C129 O121 1.303 1_545 S
C129 O122 1.247 . S
C130 O119 1.253 . S
C130 O120 1.283 1_545 S
C131 O123 1.304 1_565 S
C131 O125 1.272 . S
C132 O124 1.311 . S
C132 O126 1.231 . S
O133 Zn115 1.953 . S
O133 C127 1.298 . S
O134 Zn135 1.953 . S
O134 C150 1.225 . S
Zn135 O134 1.953 . S
Zn135 O136 1.949 . S
Zn135 O142 1.919 . S
Zn135 O147 1.924 . S
O136 Zn135 1.949 . S
O136 Zn137 1.923 . S
O136 Zn138 1.950 . S
O136 Zn139 1.945 . S
Zn137 O136 1.923 . S
Zn137 O140 1.933 . S
Zn137 O143 1.941 . S
Zn137 O144 1.965 . S
Zn138 O136 1.950 . S
Zn138 O145 1.938 . S
Zn138 O146 1.906 . S
Zn138 O156 1.953 . S
Zn139 O136 1.945 . S
Zn139 O141 1.932 . S
Zn139 O148 1.977 . S
Zn139 O149 1.910 . S
O140 Zn137 1.933 . S
O140 C151 1.226 . S
O141 Zn139 1.932 . S
O141 C151 1.307 . S
O142 Zn135 1.919 . S
O142 C153 1.253 . S
O143 Zn137 1.941 . S
O143 C153 1.283 . S
O144 Zn137 1.965 . S
O144 C152 1.303 . S
O145 Zn138 1.938 . S
O145 C152 1.247 . S
O146 Zn138 1.906 . S
O146 C154 1.304 . S
O147 Zn135 1.924 . S
O147 C155 1.311 . S
O148 Zn139 1.977 . S
O148 C154 1.272 . S
O149 Zn139 1.910 . S
O149 C155 1.231 . S
C150 O134 1.225 . S
C150 O156 1.298 . S
C151 O140 1.226 . S
C151 O141 1.307 . S
C152 O144 1.303 . S
C152 O145 1.247 . S
C153 O142 1.253 . S
C153 O143 1.283 . S
C154 O146 1.304 . S
C154 O148 1.272 . S
C155 O147 1.311 . S
C155 O149 1.231 . S
O156 Zn138 1.953 . S
O156 C150 1.298 . S
O157 Zn158 1.927 1_655 S
O157 C173 1.225 . S
Zn158 O157 1.927 1_455 S
Zn158 O159 1.949 . S
Zn158 O165 1.919 . S
Zn158 O170 1.952 . S
O159 Zn158 1.949 . S
O159 Zn160 1.918 1_455 S
O159 Zn161 1.929 1_455 S
O159 Zn162 1.973 . S
Zn160 O159 1.918 1_655 S
Zn160 O163 1.933 1_655 S
Zn160 O166 1.941 . S
Zn160 O167 1.965 . S
Zn161 O159 1.929 1_655 S
Zn161 O168 1.938 . S
Zn161 O169 1.906 . S
Zn161 O179 1.953 . S
Zn162 O159 1.973 . S
Zn162 O164 1.932 . S
Zn162 O171 1.977 . S
Zn162 O172 1.910 . S
O163 Zn160 1.933 1_455 S
O163 C174 1.226 . S
O164 Zn162 1.932 . S
O164 C174 1.307 . S
O165 Zn158 1.919 . S
O165 C176 1.252 . S
O166 Zn160 1.941 . S
O166 C176 1.285 1_655 S
O167 Zn160 1.965 . S
O167 C175 1.303 . S
O168 Zn161 1.938 . S
O168 C175 1.247 . S
O169 Zn161 1.906 . S
O169 C177 1.304 1_655 S
O170 Zn158 1.952 . S
O170 C178 1.311 . S
O171 Zn162 1.977 . S
O171 C177 1.272 . S
O172 Zn162 1.910 . S
O172 C178 1.231 . S
C173 O157 1.225 . S
C173 O179 1.298 . S
C174 O163 1.226 . S
C174 O164 1.307 . S
C175 O167 1.303 . S
C175 O168 1.247 . S
C176 O165 1.252 . S
C176 O166 1.285 1_455 S
C177 O169 1.304 1_455 S
C177 O171 1.272 . S
C178 O170 1.311 . S
C178 O172 1.231 . S
O179 Zn161 1.953 . S
O179 C173 1.298 . S
C180 C181 1.349 1_565 S
C180 C182 1.327 . S
C180 H205 0.950 . S
C181 C180 1.349 1_545 S
C181 C197 1.349 . S
C182 C180 1.327 . S
C182 C201 1.429 1_565 S
C182 H206 0.950 . S
C183 C200 1.574 . S
C183 C202 1.368 . S
C183 H207 0.949 . S
H184 C188 0.949 . S
C185 C186 1.349 1_545 S
C185 C187 1.327 . S
C185 H208 0.950 . S
C186 C185 1.349 1_565 S
C186 C198 1.349 . S
C187 C185 1.327 . S
C187 C203 1.467 . S
C187 H209 0.950 . S
C188 H184 0.949 . S
C188 C196 1.574 . S
C188 C204 1.368 1_565 S
H189 C197 0.950 . S
H190 C195 0.950 . S
H191 C196 0.949 . S
H192 C198 0.950 . S
H193 C199 0.950 . S
H194 C200 0.949 . S
C195 H190 0.950 . S
C195 C197 1.327 . S
C195 C201 1.429 . S
C196 C188 1.574 . S
C196 H191 0.949 . S
C196 C202 1.368 1_565 S
C197 C181 1.349 . S
C197 H189 0.950 . S
C197 C195 1.327 . S
C198 C186 1.349 . S
C198 H192 0.950 . S
C198 C199 1.327 . S
C199 H193 0.950 . S
C199 C198 1.327 . S
C199 C203 1.388 1_565 S
C200 C183 1.574 . S
C200 H194 0.949 . S
C200 C204 1.368 . S
C201 C182 1.429 1_545 S
C201 C195 1.429 . S
C201 C202 1.523 . S
C202 C183 1.368 . S
C202 C196 1.368 1_545 S
C202 C201 1.523 . S
C203 C187 1.467 . S
C203 C199 1.388 1_545 S
C203 C204 1.526 . S
C204 C188 1.368 1_545 S
C204 C200 1.368 . S
C204 C203 1.526 . S
H205 C180 0.950 . S
H206 C182 0.950 . S
H207 C183 0.949 . S
H208 C185 0.950 . S
H209 C187 0.950 . S
C210 C211 1.349 . S
C210 C212 1.327 . S
C210 H235 0.950 . S
C211 C210 1.349 . S
C211 C227 1.349 . S
C212 C210 1.327 . S
C212 C231 1.429 . S
C212 H236 0.950 . S
C213 C230 1.574 . S
C213 C232 1.368 . S
C213 H237 0.949 . S
H214 C218 0.949 . S
C215 C216 1.349 . S
C215 C217 1.327 . S
C215 H238 0.950 . S
C216 C215 1.349 . S
C216 C228 1.349 . S
C217 C215 1.327 . S
C217 C233 1.429 . S
C217 H239 0.950 . S
C218 H214 0.949 . S
C218 C226 1.574 . S
C218 C234 1.368 . S
H219 C227 0.950 . S
H220 C225 0.950 . S
H221 C226 0.949 . S
H222 C228 0.950 . S
H223 C229 0.950 . S
H224 C230 0.949 . S
C225 H220 0.950 . S
C225 C227 1.327 . S
C225 C231 1.429 . S
C226 C218 1.574 . S
C226 H221 0.949 . S
C226 C232 1.368 . S
C227 C211 1.349 . S
C227 H219 0.950 . S
C227 C225 1.327 . S
C228 C216 1.349 . S
C228 H222 0.950 . S
C228 C229 1.327 . S
C229 H223 0.950 . S
C229 C228 1.327 . S
C229 C233 1.429 . S
C230 C213 1.574 . S
C230 H224 0.949 . S
C230 C234 1.368 . S
C231 C212 1.429 . S
C231 C225 1.429 . S
C231 C232 1.523 . S
C232 C213 1.368 . S
C232 C226 1.368 . S
C232 C231 1.523 . S
C233 C217 1.429 . S
C233 C229 1.429 . S
C233 C234 1.523 . S
C234 C218 1.368 . S
C234 C230 1.368 . S
C234 C233 1.523 . S
H235 C210 0.950 . S
H236 C212 0.950 . S
H237 C213 0.949 . S
H238 C215 0.950 . S
H239 C217 0.950 . S
C240 C241 1.349 . S
C240 C242 1.327 . S
C240 H265 0.950 . S
C241 C240 1.349 . S
C241 C257 1.349 . S
C242 C240 1.327 . S
C242 C261 1.429 . S
C242 H266 0.950 . S
C243 C260 1.574 . S
C243 C262 1.368 . S
C243 H267 0.949 . S
H244 C248 0.949 . S
C245 C246 1.349 . S
C245 C247 1.327 . S
C245 H268 0.950 . S
C246 C245 1.349 . S
C246 C258 1.349 . S
C247 C245 1.327 . S
C247 C263 1.429 . S
C247 H269 0.950 . S
C248 H244 0.949 . S
C248 C256 1.574 . S
C248 C264 1.368 . S
H249 C257 0.950 . S
H250 C255 0.950 . S
H251 C256 0.949 . S
H252 C258 0.950 . S
H253 C259 0.950 . S
H254 C260 0.949 . S
C255 H250 0.950 . S
C255 C257 1.327 . S
C255 C261 1.429 . S
C256 C248 1.574 . S
C256 H251 0.949 . S
C256 C262 1.368 . S
C257 C241 1.349 . S
C257 H249 0.950 . S
C257 C255 1.327 . S
C258 C246 1.349 . S
C258 H252 0.950 . S
C258 C259 1.327 . S
C259 H253 0.950 . S
C259 C258 1.327 . S
C259 C263 1.429 . S
C260 C243 1.574 . S
C260 H254 0.949 . S
C260 C264 1.368 . S
C261 C242 1.429 . S
C261 C255 1.429 . S
C261 C262 1.523 . S
C262 C243 1.368 . S
C262 C256 1.368 . S
C262 C261 1.523 . S
C263 C247 1.429 . S
C263 C259 1.429 . S
C263 C264 1.523 . S
C264 C248 1.368 . S
C264 C260 1.368 . S
C264 C263 1.523 . S
H265 C240 0.950 . S
H266 C242 0.950 . S
H267 C243 0.949 . S
H268 C245 0.950 . S
H269 C247 0.950 . S
C270 C271 1.349 . S
C270 C272 1.327 . S
C270 H295 0.950 . S
C271 C270 1.349 . S
C271 C287 1.349 . S
C272 C270 1.327 . S
C272 C291 1.429 . S
C272 H296 0.950 . S
C273 C290 1.574 . S
C273 C292 1.368 . S
C273 H297 0.949 . S
H274 C278 0.949 . S
C275 C276 1.349 . S
C275 C277 1.327 . S
C275 H298 0.950 . S
C276 C275 1.349 . S
C276 C288 1.349 . S
C277 C275 1.327 . S
C277 C293 1.429 . S
C277 H299 0.950 . S
C278 H274 0.949 . S
C278 C286 1.574 . S
C278 C294 1.368 . S
H279 C287 0.950 . S
H280 C285 0.950 . S
H281 C286 0.949 . S
H282 C288 0.950 1_655 S
H283 C289 0.941 1_655 S
H284 C290 0.949 . S
C285 H280 0.950 . S
C285 C287 1.327 . S
C285 C291 1.429 . S
C286 C278 1.574 . S
C286 H281 0.949 . S
C286 C292 1.368 . S
C287 C271 1.349 . S
C287 H279 0.950 . S
C287 C285 1.327 . S
C288 C276 1.349 . S
C288 H282 0.950 1_455 S
C288 C289 1.327 . S
C289 H283 0.941 1_455 S
C289 C288 1.327 . S
C289 C293 1.429 . S
C290 C273 1.574 . S
C290 H284 0.949 . S
C290 C294 1.368 . S
C291 C272 1.429 . S
C291 C285 1.429 . S
C291 C292 1.523 . S
C292 C273 1.368 . S
C292 C286 1.368 . S
C292 C291 1.523 . S
C293 C277 1.429 . S
C293 C289 1.429 . S
C293 C294 1.523 . S
C294 C278 1.368 . S
C294 C290 1.368 . S
C294 C293 1.523 . S
H295 C270 0.950 . S
H296 C272 0.950 . S
H297 C273 0.949 . S
H298 C275 0.950 . S
H299 C277 0.950 . S
C300 C301 1.360 1_556 S
C300 C302 1.327 . S
C300 H325 0.950 . S
C301 C300 1.360 1_554 S
C301 C317 1.338 1_565 S
C302 C300 1.327 . S
C302 C321 1.425 1_565 S
C302 H326 0.950 . S
C303 C320 1.574 . S
C303 C322 1.386 . S
C303 H327 0.949 . S
H304 C308 0.949 . S
C305 C306 1.349 . S
C305 C307 1.327 . S
C305 H328 0.950 . S
C306 C305 1.349 . S
C306 C318 1.349 1_545 S
C307 C305 1.327 . S
C307 C323 1.429 . S
C307 H329 0.950 . S
C308 H304 0.949 . S
C308 C316 1.574 . S
C308 C324 1.328 1_565 S
H309 C317 0.950 . S
H310 C315 0.950 . S
H311 C316 0.949 . S
H312 C318 0.950 . S
H313 C319 0.950 . S
H314 C320 0.949 . S
C315 H310 0.950 . S
C315 C317 1.327 . S
C315 C321 1.432 1_554 S
C316 C308 1.574 . S
C316 H311 0.949 . S
C316 C322 1.351 1_565 S
C317 C301 1.338 1_545 S
C317 H309 0.950 . S
C317 C315 1.327 . S
C318 C306 1.349 1_565 S
C318 H312 0.950 . S
C318 C319 1.327 . S
C319 H313 0.950 . S
C319 C318 1.327 . S
C319 C323 1.429 1_565 S
C320 C303 1.574 . S
C320 H314 0.949 . S
C320 C324 1.410 . S
C321 C302 1.425 1_545 S
C321 C315 1.432 1_556 S
C321 C322 1.523 . S
C322 C303 1.386 . S
C322 C316 1.351 1_545 S
C322 C321 1.523 . S
C323 C307 1.429 . S
C323 C319 1.429 1_545 S
C323 C324 1.524 . S
C324 C308 1.328 1_545 S
C324 C320 1.410 . S
C324 C323 1.524 . S
H325 C300 0.950 . S
H326 C302 0.950 . S
H327 C303 0.949 . S
H328 C305 0.950 . S
H329 C307 0.950 . S
C330 C331 1.348 1_556 S
C330 C332 1.327 . S
C330 H355 0.950 1_556 S
C331 C330 1.348 1_554 S
C331 C347 1.348 1_554 S
C332 C330 1.327 . S
C332 C351 1.429 . S
C332 H356 0.950 . S
C333 C350 1.574 . S
C333 C352 1.368 . S
C333 H357 0.949 . S
H334 C338 0.949 . S
C335 C336 1.349 . S
C335 C337 1.327 . S
C335 H358 0.950 . S
C336 C335 1.349 . S
C336 C348 1.349 . S
C337 C335 1.327 . S
C337 C353 1.429 . S
C337 H359 0.950 . S
C338 H334 0.949 . S
C338 C346 1.574 . S
C338 C354 1.368 . S
H339 C347 0.950 . S
H340 C345 0.950 . S
H341 C346 0.949 . S
H342 C348 0.950 . S
H343 C349 0.950 . S
H344 C350 0.949 . S
C345 H340 0.950 . S
C345 C347 1.327 . S
C345 C351 1.429 . S
C346 C338 1.574 . S
C346 H341 0.949 . S
C346 C352 1.368 . S
C347 C331 1.348 1_556 S
C347 H339 0.950 . S
C347 C345 1.327 . S
C348 C336 1.349 . S
C348 H342 0.950 . S
C348 C349 1.327 . S
C349 H343 0.950 . S
C349 C348 1.327 . S
C349 C353 1.429 . S
C350 C333 1.574 . S
C350 H344 0.949 . S
C350 C354 1.368 . S
C351 C332 1.429 . S
C351 C345 1.429 . S
C351 C352 1.523 . S
C352 C333 1.368 . S
C352 C346 1.368 . S
C352 C351 1.523 . S
C353 C337 1.429 . S
C353 C349 1.429 . S
C353 C354 1.523 . S
C354 C338 1.368 . S
C354 C350 1.368 . S
C354 C353 1.523 . S
H355 C330 0.950 1_554 S
H356 C332 0.950 . S
H357 C333 0.949 . S
H358 C335 0.950 . S
H359 C337 0.950 . S
C360 C361 1.349 . S
C360 C362 1.327 . S
C360 H385 0.950 1_556 S
C361 C360 1.349 . S
C361 C377 1.349 . S
C362 C360 1.327 . S
C362 C381 1.429 . S
C362 H386 0.950 . S
C363 C380 1.574 . S
C363 C382 1.368 . S
C363 H387 0.949 . S
H364 C368 0.949 . S
C365 C366 1.349 . S
C365 C367 1.327 . S
C365 H388 0.950 . S
C366 C365 1.349 . S
C366 C378 1.349 . S
C367 C365 1.327 . S
C367 C383 1.429 . S
C367 H389 0.950 . S
C368 H364 0.949 . S
C368 C376 1.574 . S
C368 C384 1.368 . S
H369 C377 0.950 . S
H370 C375 0.950 . S
H371 C376 0.949 . S
H372 C378 0.950 . S
H373 C379 0.950 . S
H374 C380 0.949 . S
C375 H370 0.950 . S
C375 C377 1.327 . S
C375 C381 1.429 . S
C376 C368 1.574 . S
C376 H371 0.949 . S
C376 C382 1.368 . S
C377 C361 1.349 . S
C377 H369 0.950 . S
C377 C375 1.327 . S
C378 C366 1.349 . S
C378 H372 0.950 . S
C378 C379 1.327 . S
C379 H373 0.950 . S
C379 C378 1.327 . S
C379 C383 1.429 . S
C380 C363 1.574 . S
C380 H374 0.949 . S
C380 C384 1.368 . S
C381 C362 1.429 . S
C381 C375 1.429 . S
C381 C382 1.523 . S
C382 C363 1.368 . S
C382 C376 1.368 . S
C382 C381 1.523 . S
C383 C367 1.429 . S
C383 C379 1.429 . S
C383 C384 1.523 . S
C384 C368 1.368 . S
C384 C380 1.368 . S
C384 C383 1.523 . S
H385 C360 0.950 1_554 S
H386 C362 0.950 . S
H387 C363 0.949 . S
H388 C365 0.950 . S
H389 C367 0.950 . S
C390 C391 1.349 1_455 S
C390 C392 1.327 1_554 S
C390 H415 0.950 1_554 S
C391 C390 1.349 1_655 S
C391 C407 1.349 . S
C392 C390 1.327 1_556 S
C392 C411 1.430 1_455 S
C392 H416 0.950 . S
C393 C410 1.574 . S
C393 C412 1.354 1_655 S
C393 H417 0.949 1_556 S
H394 C398 0.949 . S
C395 C396 1.349 1_655 S
C395 C397 1.327 . S
C395 H418 0.950 . S
C396 C395 1.349 1_455 S
C396 C408 1.349 . S
C397 C395 1.327 . S
C397 C413 1.429 1_655 S
C397 H419 0.950 . S
C398 H394 0.949 . S
C398 C406 1.574 . S
C398 C414 1.368 . S
H399 C407 0.950 . S
H400 C405 0.950 . S
H401 C406 0.949 . S
H402 C408 0.950 . S
H403 C409 0.950 . S
H404 C410 0.949 . S
C405 H400 0.950 . S
C405 C407 1.327 . S
C405 C411 1.427 1_554 S
C406 C398 1.574 . S
C406 H401 0.949 . S
C406 C412 1.384 . S
C407 C391 1.349 . S
C407 H399 0.950 . S
C407 C405 1.327 . S
C408 C396 1.349 . S
C408 H402 0.950 . S
C408 C409 1.327 . S
C409 H403 0.950 . S
C409 C408 1.327 . S
C409 C413 1.429 . S
C410 C393 1.574 . S
C410 H404 0.949 . S
C410 C414 1.368 1_655 S
C411 C392 1.430 1_655 S
C411 C405 1.427 1_556 S
C411 C412 1.522 1_655 S
C412 C393 1.354 1_455 S
C412 C406 1.384 . S
C412 C411 1.522 1_455 S
C413 C397 1.429 1_455 S
C413 C409 1.429 . S
C413 C414 1.523 . S
C414 C398 1.368 . S
C414 C410 1.368 1_455 S
C414 C413 1.523 . S
H415 C390 0.950 1_556 S
H416 C392 0.950 . S
H417 C393 0.949 1_554 S
H418 C395 0.950 . S
H419 C397 0.950 . S
C420 C421 1.349 . S
C420 C422 1.327 . S
C420 H445 0.950 . S
C421 C420 1.349 . S
C421 C437 1.349 . S
C422 C420 1.327 . S
C422 C441 1.429 . S
C422 H446 0.950 . S
C423 C440 1.574 . S
C423 C442 1.368 . S
C423 H447 0.949 . S
H424 C428 0.949 . S
C425 C426 1.349 . S
C425 C427 1.327 . S
C425 H448 0.950 . S
C426 C425 1.349 . S
C426 C438 1.349 . S
C427 C425 1.327 . S
C427 C443 1.429 . S
C427 H449 0.950 . S
C428 H424 0.949 . S
C428 C436 1.574 . S
C428 C444 1.368 . S
H429 C437 0.950 . S
H430 C435 0.950 . S
H431 C436 0.949 . S
H432 C438 0.950 . S
H433 C439 0.950 . S
H434 C440 0.949 . S
C435 H430 0.950 . S
C435 C437 1.327 . S
C435 C441 1.429 . S
C436 C428 1.574 . S
C436 H431 0.949 . S
C436 C442 1.368 . S
C437 C421 1.349 . S
C437 H429 0.950 . S
C437 C435 1.327 . S
C438 C426 1.349 . S
C438 H432 0.950 . S
C438 C439 1.327 . S
C439 H433 0.950 . S
C439 C438 1.327 . S
C439 C443 1.429 . S
C440 C423 1.574 . S
C440 H434 0.949 . S
C440 C444 1.368 . S
C441 C422 1.429 . S
C441 C435 1.429 . S
C441 C442 1.523 . S
C442 C423 1.368 . S
C442 C436 1.368 . S
C442 C441 1.523 . S
C443 C427 1.429 . S
C443 C439 1.429 . S
C443 C444 1.523 . S
C444 C428 1.368 . S
C444 C440 1.368 . S
C444 C443 1.523 . S
H445 C420 0.950 . S
H446 C422 0.950 . S
H447 C423 0.949 . S
H448 C425 0.950 . S
H449 C427 0.950 . S
C450 C451 1.349 . S
C450 C452 1.327 . S
C450 H475 0.950 . S
C451 C450 1.349 . S
C451 C467 1.349 1_545 S
C452 C450 1.327 . S
C452 C471 1.429 . S
C452 H476 0.950 . S
C453 C470 1.574 . S
C453 C472 1.368 1_565 S
C453 H477 0.949 . S
H454 C458 0.949 . S
C455 C456 1.349 1_565 S
C455 C457 1.327 . S
C455 H478 0.950 . S
C456 C455 1.349 1_545 S
C456 C468 1.349 . S
C457 C455 1.327 . S
C457 C473 1.429 1_565 S
C457 H479 0.950 . S
C458 H454 0.949 . S
C458 C466 1.574 . S
C458 C474 1.368 . S
H459 C467 0.950 . S
H460 C465 0.950 . S
H461 C466 0.949 . S
H462 C468 0.950 . S
H463 C469 0.950 . S
H464 C470 0.949 . S
C465 H460 0.950 . S
C465 C467 1.327 . S
C465 C471 1.429 1_565 S
C466 C458 1.574 . S
C466 H461 0.949 . S
C466 C472 1.368 . S
C467 C451 1.349 1_565 S
C467 H459 0.950 . S
C467 C465 1.327 . S
C468 C456 1.349 . S
C468 H462 0.950 . S
C468 C469 1.327 . S
C469 H463 0.950 . S
C469 C468 1.327 . S
C469 C473 1.429 . S
C470 C453 1.574 . S
C470 H464 0.949 . S
C470 C474 1.368 1_565 S
C471 C452 1.429 . S
C471 C465 1.429 1_545 S
C471 C472 1.523 . S
C472 C453 1.368 1_545 S
C472 C466 1.368 . S
C472 C471 1.523 . S
C473 C457 1.429 1_545 S
C473 C469 1.429 . S
C473 C474 1.523 . S
C474 C458 1.368 . S
C474 C470 1.368 1_545 S
C474 C473 1.523 . S
H475 C450 0.950 . S
H476 C452 0.950 . S
H477 C453 0.949 . S
H478 C455 0.950 . S
H479 C457 0.950 . S
C480 C481 1.349 . S
C480 C482 1.327 . S
C480 H505 0.950 . S
C481 C480 1.349 . S
C481 C497 1.349 . S
C482 C480 1.327 . S
C482 C501 1.429 . S
C482 H506 0.950 . S
C483 C500 1.574 . S
C483 C502 1.368 . S
C483 H507 0.949 . S
H484 C488 0.949 . S
C485 C486 1.349 . S
C485 C487 1.327 . S
C485 H508 0.950 . S
C486 C485 1.349 . S
C486 C498 1.349 . S
C487 C485 1.327 . S
C487 C503 1.429 . S
C487 H509 0.950 . S
C488 H484 0.949 . S
C488 C496 1.574 . S
C488 C504 1.368 . S
H489 C497 0.950 . S
H490 C495 0.950 . S
H491 C496 0.949 . S
H492 C498 0.950 . S
H493 C499 0.950 . S
H494 C500 0.949 . S
C495 H490 0.950 . S
C495 C497 1.327 . S
C495 C501 1.429 . S
C496 C488 1.574 . S
C496 H491 0.949 . S
C496 C502 1.368 . S
C497 C481 1.349 . S
C497 H489 0.950 . S
C497 C495 1.327 . S
C498 C486 1.349 . S
C498 H492 0.950 . S
C498 C499 1.327 . S
C499 H493 0.950 . S
C499 C498 1.327 . S
C499 C503 1.429 . S
C500 C483 1.574 . S
C500 H494 0.949 . S
C500 C504 1.368 . S
C501 C482 1.429 . S
C501 C495 1.429 . S
C501 C502 1.523 . S
C502 C483 1.368 . S
C502 C496 1.368 . S
C502 C501 1.523 . S
C503 C487 1.429 . S
C503 C499 1.429 . S
C503 C504 1.523 . S
C504 C488 1.368 . S
C504 C500 1.368 . S
C504 C503 1.523 . S
H505 C480 0.950 . S
H506 C482 0.950 . S
H507 C483 0.949 . S
H508 C485 0.950 . S
H509 C487 0.950 . S
C510 C511 1.349 . S
C510 C512 1.327 . S
C510 H535 0.950 . S
C511 C510 1.349 . S
C511 C527 1.349 . S
C512 C510 1.327 . S
C512 C531 1.429 . S
C512 H536 0.950 . S
C513 C530 1.574 . S
C513 C532 1.368 . S
C513 H537 0.949 . S
H514 C518 0.949 . S
C515 C516 1.349 . S
C515 C517 1.327 . S
C515 H538 0.950 . S
C516 C515 1.349 . S
C516 C528 1.349 . S
C517 C515 1.327 . S
C517 C533 1.429 . S
C517 H539 0.950 . S
C518 H514 0.949 . S
C518 C526 1.574 . S
C518 C534 1.368 . S
H519 C527 0.950 . S
H520 C525 0.950 . S
H521 C526 0.949 . S
H522 C528 0.950 . S
H523 C529 0.950 . S
H524 C530 0.949 . S
C525 H520 0.950 . S
C525 C527 1.327 . S
C525 C531 1.429 . S
C526 C518 1.574 . S
C526 H521 0.949 . S
C526 C532 1.368 . S
C527 C511 1.349 . S
C527 H519 0.950 . S
C527 C525 1.327 . S
C528 C516 1.349 . S
C528 H522 0.950 . S
C528 C529 1.327 . S
C529 H523 0.950 . S
C529 C528 1.327 . S
C529 C533 1.429 . S
C530 C513 1.574 . S
C530 H524 0.949 . S
C530 C534 1.368 . S
C531 C512 1.429 . S
C531 C525 1.429 . S
C531 C532 1.523 . S
C532 C513 1.368 . S
C532 C526 1.368 . S
C532 C531 1.523 . S
C533 C517 1.429 . S
C533 C529 1.429 . S
C533 C534 1.523 . S
C534 C518 1.368 . S
C534 C530 1.368 . S
C534 C533 1.523 . S
H535 C510 0.950 . S
H536 C512 0.950 . S
H537 C513 0.949 . S
H538 C515 0.950 . S
H539 C517 0.950 . S
C540 C541 1.358 . S
C540 C542 1.327 1_554 S
C540 H565 0.950 . S
C541 C540 1.358 . S
C541 C557 1.337 1_655 S
C542 C540 1.327 1_556 S
C542 C561 1.429 1_656 S
C542 H566 0.950 . S
C543 C560 1.574 1_554 S
C543 C562 1.368 1_554 S
C543 H567 0.949 . S
H544 C548 0.949 1_655 S
C545 C546 1.349 . S
C545 C547 1.327 . S
C545 H568 0.950 . S
C546 C545 1.349 . S
C546 C558 1.349 . S
C547 C545 1.327 . S
C547 C563 1.429 . S
C547 H569 0.950 . S
C548 H544 0.949 1_455 S
C548 C556 1.574 . S
C548 C564 1.368 . S
H549 C557 0.950 . S
H550 C555 0.950 . S
H551 C556 0.949 1_655 S
H552 C558 0.950 . S
H553 C559 0.950 . S
H554 C560 0.949 . S
C555 H550 0.950 . S
C555 C557 1.327 . S
C555 C561 1.429 . S
C556 C548 1.574 . S
C556 H551 0.949 1_455 S
C556 C562 1.368 . S
C557 C541 1.337 1_455 S
C557 H549 0.950 . S
C557 C555 1.327 . S
C558 C546 1.349 . S
C558 H552 0.950 . S
C558 C559 1.327 . S
C559 H553 0.950 . S
C559 C558 1.327 . S
C559 C563 1.429 . S
C560 C543 1.574 1_556 S
C560 H554 0.949 . S
C560 C564 1.368 . S
C561 C542 1.429 1_454 S
C561 C555 1.429 . S
C561 C562 1.523 1_554 S
C562 C543 1.368 1_556 S
C562 C556 1.368 . S
C562 C561 1.523 1_556 S
C563 C547 1.429 . S
C563 C559 1.429 . S
C563 C564 1.523 . S
C564 C548 1.368 . S
C564 C560 1.368 . S
C564 C563 1.523 . S
H565 C540 0.950 . S
H566 C542 0.950 . S
H567 C543 0.949 . S
H568 C545 0.950 . S
H569 C547 0.950 . S
C570 C571 1.384 . S
C570 C572 1.327 1_554 S
C570 H595 0.950 . S
C571 C570 1.384 . S
C571 C587 1.306 1_565 S
C572 C570 1.327 1_556 S
C572 C591 1.429 1_565 S
C572 H596 0.950 . S
C573 C590 1.574 . S
C573 C592 1.368 . S
C573 H597 0.949 . S
H574 C578 0.949 . S
C575 C576 1.349 . S
C575 C577 1.327 . S
C575 H598 0.950 . S
C576 C575 1.349 . S
C576 C588 1.349 . S
C577 C575 1.327 . S
C577 C593 1.429 . S
C577 H599 0.950 . S
C578 H574 0.949 . S
C578 C586 1.574 . S
C578 C594 1.368 1_565 S
H579 C587 0.950 . S
H580 C585 0.950 . S
H581 C586 0.949 . S
H582 C588 0.950 1_565 S
H583 C589 0.950 1_565 S
H584 C590 0.949 . S
C585 H580 0.950 . S
C585 C587 1.327 1_556 S
C585 C591 1.429 . S
C586 C578 1.574 . S
C586 H581 0.949 . S
C586 C592 1.368 1_565 S
C587 C571 1.306 1_545 S
C587 H579 0.950 . S
C587 C585 1.327 1_554 S
C588 C576 1.349 . S
C588 H582 0.950 1_545 S
C588 C589 1.327 . S
C589 H583 0.950 1_545 S
C589 C588 1.327 . S
C589 C593 1.429 . S
C590 C573 1.574 . S
C590 H584 0.949 . S
C590 C594 1.368 . S
C591 C572 1.429 1_545 S
C591 C585 1.429 . S
C591 C592 1.523 . S
C592 C573 1.368 . S
C592 C586 1.368 1_545 S
C592 C591 1.523 . S
C593 C577 1.429 . S
C593 C589 1.429 . S
C593 C594 1.523 . S
C594 C578 1.368 1_545 S
C594 C590 1.368 . S
C594 C593 1.523 . S
H595 C570 0.950 . S
H596 C572 0.950 . S
H597 C573 0.949 . S
H598 C575 0.950 . S
H599 C577 0.950 . S
C600 C601 1.349 1_556 S
C600 C602 1.327 . S
C600 H625 0.950 . S
C601 C600 1.349 1_554 S
C601 C617 1.349 . S
C602 C600 1.327 . S
C602 C621 1.429 . S
C602 H626 0.950 . S
C603 C620 1.574 . S
C603 C622 1.368 . S
C603 H627 0.949 . S
H604 C608 0.949 . S
C605 C606 1.349 . S
C605 C607 1.327 . S
C605 H628 0.950 . S
C606 C605 1.349 . S
C606 C618 1.349 . S
C607 C605 1.327 . S
C607 C623 1.429 . S
C607 H629 0.950 . S
C608 H604 0.949 . S
C608 C616 1.574 . S
C608 C624 1.368 . S
H609 C617 0.950 . S
H610 C615 0.952 . S
H611 C616 0.949 . S
H612 C618 0.950 . S
H613 C619 0.950 . S
H614 C620 0.949 . S
C615 H610 0.952 . S
C615 C617 1.330 . S
C615 C621 1.424 1_554 S
C616 C608 1.574 . S
C616 H611 0.949 . S
C616 C622 1.368 . S
C617 C601 1.349 . S
C617 H609 0.950 . S
C617 C615 1.330 . S
C618 C606 1.349 . S
C618 H612 0.950 . S
C618 C619 1.327 . S
C619 H613 0.950 . S
C619 C618 1.327 . S
C619 C623 1.429 . S
C620 C603 1.574 . S
C620 H614 0.949 . S
C620 C624 1.368 . S
C621 C602 1.429 . S
C621 C615 1.424 1_556 S
C621 C622 1.523 . S
C622 C603 1.368 . S
C622 C616 1.368 . S
C622 C621 1.523 . S
C623 C607 1.429 . S
C623 C619 1.429 . S
C623 C624 1.523 . S
C624 C608 1.368 . S
C624 C620 1.368 . S
C624 C623 1.523 . S
H625 C600 0.950 . S
H626 C602 0.950 . S
H627 C603 0.949 . S
H628 C605 0.950 . S
H629 C607 0.950 . S
C630 C631 1.349 . S
C630 C632 1.327 . S
C630 H655 0.950 1_556 S
C631 C630 1.349 . S
C631 C647 1.349 . S
C632 C630 1.327 . S
C632 C651 1.429 . S
C632 H656 0.950 . S
C633 C650 1.574 . S
C633 C652 1.368 . S
C633 H657 0.949 . S
H634 C638 0.949 . S
C635 C636 1.349 . S
C635 C637 1.327 . S
C635 H658 0.950 . S
C636 C635 1.349 . S
C636 C648 1.349 . S
C637 C635 1.327 . S
C637 C653 1.429 . S
C637 H659 0.950 . S
C638 H634 0.949 . S
C638 C646 1.574 . S
C638 C654 1.368 . S
H639 C647 0.950 . S
H640 C645 0.950 . S
H641 C646 0.949 . S
H642 C648 0.950 . S
H643 C649 0.950 . S
H644 C650 0.949 . S
C645 H640 0.950 . S
C645 C647 1.327 . S
C645 C651 1.429 . S
C646 C638 1.574 . S
C646 H641 0.949 . S
C646 C652 1.368 . S
C647 C631 1.349 . S
C647 H639 0.950 . S
C647 C645 1.327 . S
C648 C636 1.349 . S
C648 H642 0.950 . S
C648 C649 1.327 . S
C649 H643 0.950 . S
C649 C648 1.327 . S
C649 C653 1.429 . S
C650 C633 1.574 . S
C650 H644 0.949 . S
C650 C654 1.368 . S
C651 C632 1.429 . S
C651 C645 1.429 . S
C651 C652 1.523 . S
C652 C633 1.368 . S
C652 C646 1.368 . S
C652 C651 1.523 . S
C653 C637 1.429 . S
C653 C649 1.429 . S
C653 C654 1.523 . S
C654 C638 1.368 . S
C654 C650 1.368 . S
C654 C653 1.523 . S
H655 C630 0.950 1_554 S
H656 C632 0.950 . S
H657 C633 0.949 . S
H658 C635 0.950 . S
H659 C637 0.950 . S
C660 C661 1.349 . S
C660 C662 1.327 . S
C660 H685 0.950 . S
C661 C660 1.349 . S
C661 C677 1.349 . S
C662 C660 1.327 . S
C662 C681 1.429 . S
C662 H686 0.950 . S
C663 C680 1.574 . S
C663 C682 1.368 . S
C663 H687 0.949 . S
H664 C668 0.949 . S
C665 C666 1.349 . S
C665 C667 1.327 . S
C665 H688 0.950 . S
C666 C665 1.349 . S
C666 C678 1.349 . S
C667 C665 1.327 . S
C667 C683 1.429 . S
C667 H689 0.950 . S
C668 H664 0.949 . S
C668 C676 1.574 . S
C668 C684 1.368 . S
H669 C677 0.950 . S
H670 C675 0.950 . S
H671 C676 0.949 . S
H672 C678 0.950 1_655 S
H673 C679 0.956 1_554 S
H674 C680 0.949 1_556 S
C675 H670 0.950 . S
C675 C677 1.327 . S
C675 C681 1.429 . S
C676 C668 1.574 . S
C676 H671 0.949 . S
C676 C682 1.368 . S
C677 C661 1.349 . S
C677 H669 0.950 . S
C677 C675 1.327 . S
C678 C666 1.349 . S
C678 H672 0.950 1_455 S
C678 C679 1.327 . S
C679 H673 0.956 1_556 S
C679 C678 1.327 . S
C679 C683 1.429 . S
C680 C663 1.574 . S
C680 H674 0.949 1_554 S
C680 C684 1.368 . S
C681 C662 1.429 . S
C681 C675 1.429 . S
C681 C682 1.523 . S
C682 C663 1.368 . S
C682 C676 1.368 . S
C682 C681 1.523 . S
C683 C667 1.429 . S
C683 C679 1.429 . S
C683 C684 1.523 1_556 S
C684 C668 1.368 . S
C684 C680 1.368 . S
C684 C683 1.523 1_554 S
H685 C660 0.950 . S
H686 C662 0.950 . S
H687 C663 0.949 . S
H688 C665 0.950 . S
H689 C667 0.950 . S
C690 C691 1.349 1_565 S
C690 C692 1.327 . S
C690 H715 0.950 . S
C691 C690 1.349 1_545 S
C691 C707 1.349 . S
C692 C690 1.327 . S
C692 C711 1.429 1_565 S
C692 H716 0.950 . S
C693 C710 1.574 . S
C693 C712 1.368 . S
C693 H717 0.949 . S
H694 C698 0.949 . S
C695 C696 1.349 . S
C695 C697 1.327 . S
C695 H718 0.950 . S
C696 C695 1.349 . S
C696 C708 1.349 1_545 S
C697 C695 1.327 . S
C697 C713 1.429 . S
C697 H719 0.950 . S
C698 H694 0.949 . S
C698 C706 1.574 1_556 S
C698 C714 1.368 1_565 S
H699 C707 0.950 . S
H700 C705 0.950 . S
H701 C706 0.949 . S
H702 C708 0.950 . S
H703 C709 0.950 . S
H704 C710 0.949 . S
C705 H700 0.950 . S
C705 C707 1.327 . S
C705 C711 1.429 . S
C706 C698 1.574 1_554 S
C706 H701 0.949 . S
C706 C712 1.368 1_565 S
C707 C691 1.349 . S
C707 H699 0.950 . S
C707 C705 1.327 . S
C708 C696 1.349 1_565 S
C708 H702 0.950 . S
C708 C709 1.327 . S
C709 H703 0.950 . S
C709 C708 1.327 . S
C709 C713 1.429 1_565 S
C710 C693 1.574 . S
C710 H704 0.949 . S
C710 C714 1.368 1_554 S
C711 C692 1.429 1_545 S
C711 C705 1.429 . S
C711 C712 1.523 . S
C712 C693 1.368 . S
C712 C706 1.368 1_545 S
C712 C711 1.523 . S
C713 C697 1.429 . S
C713 C709 1.429 1_545 S
C713 C714 1.523 . S
C714 C698 1.368 1_545 S
C714 C710 1.368 1_556 S
C714 C713 1.523 . S
H715 C690 0.950 . S
H716 C692 0.950 . S
H717 C693 0.949 . S
H718 C695 0.950 . S
H719 C697 0.950 . S
C720 C721 1.349 . S
C720 C722 1.327 . S
C720 H745 0.950 . S
C721 C720 1.349 . S
C721 C737 1.349 . S
C722 C720 1.327 . S
C722 C741 1.429 . S
C722 H746 0.950 . S
C723 C740 1.574 . S
C723 C742 1.368 . S
C723 H747 0.949 . S
H724 C728 0.949 . S
C725 C726 1.349 . S
C725 C727 1.327 . S
C725 H748 0.950 . S
C726 C725 1.349 . S
C726 C738 1.349 . S
C727 C725 1.327 . S
C727 C743 1.429 . S
C727 H749 0.950 . S
C728 H724 0.949 . S
C728 C736 1.574 . S
C728 C744 1.368 . S
H729 C737 0.950 . S
H730 C735 0.950 . S
H731 C736 0.949 . S
H732 C738 0.950 . S
H733 C739 0.950 . S
H734 C740 0.949 . S
C735 H730 0.950 . S
C735 C737 1.327 . S
C735 C741 1.429 . S
C736 C728 1.574 . S
C736 H731 0.949 . S
C736 C742 1.368 1_556 S
C737 C721 1.349 . S
C737 H729 0.950 . S
C737 C735 1.327 . S
C738 C726 1.349 . S
C738 H732 0.950 . S
C738 C739 1.327 . S
C739 H733 0.950 . S
C739 C738 1.327 . S
C739 C743 1.429 . S
C740 C723 1.574 . S
C740 H734 0.949 . S
C740 C744 1.368 1_554 S
C741 C722 1.429 . S
C741 C735 1.429 . S
C741 C742 1.523 . S
C742 C723 1.368 . S
C742 C736 1.368 1_554 S
C742 C741 1.523 . S
C743 C727 1.429 . S
C743 C739 1.429 . S
C743 C744 1.523 . S
C744 C728 1.368 . S
C744 C740 1.368 1_556 S
C744 C743 1.523 . S
H745 C720 0.950 . S
H746 C722 0.950 . S
H747 C723 0.949 . S
H748 C725 0.950 . S
H749 C727 0.950 . S
C750 C751 1.349 . S
C750 C752 1.327 . S
C750 H775 0.950 . S
C751 C750 1.349 . S
C751 C767 1.349 . S
C752 C750 1.327 . S
C752 C771 1.429 . S
C752 H776 0.950 . S
C753 C770 1.574 . S
C753 C772 1.368 1_556 S
C753 H777 0.949 . S
H754 C758 0.949 . S
C755 C756 1.349 . S
C755 C757 1.327 . S
C755 H778 0.950 . S
C756 C755 1.349 . S
C756 C768 1.349 . S
C757 C755 1.327 . S
C757 C773 1.429 . S
C757 H779 0.950 . S
C758 H754 0.949 . S
C758 C766 1.574 . S
C758 C774 1.368 1_554 S
H759 C767 0.950 . S
H760 C765 0.950 . S
H761 C766 0.949 . S
H762 C768 0.950 . S
H763 C769 0.950 . S
H764 C770 0.949 . S
C765 H760 0.950 . S
C765 C767 1.327 . S
C765 C771 1.429 . S
C766 C758 1.574 . S
C766 H761 0.949 . S
C766 C772 1.368 . S
C767 C751 1.349 . S
C767 H759 0.950 . S
C767 C765 1.327 . S
C768 C756 1.349 . S
C768 H762 0.950 . S
C768 C769 1.327 . S
C769 H763 0.950 . S
C769 C768 1.327 . S
C769 C773 1.429 . S
C770 C753 1.574 . S
C770 H764 0.949 . S
C770 C774 1.368 . S
C771 C752 1.429 . S
C771 C765 1.429 . S
C771 C772 1.523 . S
C772 C753 1.368 1_554 S
C772 C766 1.368 . S
C772 C771 1.523 . S
C773 C757 1.429 . S
C773 C769 1.429 . S
C773 C774 1.523 . S
C774 C758 1.368 1_556 S
C774 C770 1.368 . S
C774 C773 1.523 . S
H775 C750 0.950 . S
H776 C752 0.950 . S
H777 C753 0.949 . S
H778 C755 0.950 . S
H779 C757 0.950 . S
C780 C781 1.351 . S
C780 C782 1.327 . S
C780 H805 0.950 . S
C781 C780 1.351 . S
C781 C797 1.347 1_655 S
C782 C780 1.327 . S
C782 C801 1.429 . S
C782 H806 0.950 . S
C783 C800 1.574 . S
C783 C802 1.368 1_455 S
C783 H807 0.949 . S
H784 C788 0.949 . S
C785 C786 1.342 1_455 S
C785 C787 1.328 . S
C785 H808 0.956 . S
C786 C785 1.342 1_655 S
C786 C798 1.349 . S
C787 C785 1.328 . S
C787 C803 1.429 1_455 S
C787 H809 0.950 . S
C788 H784 0.949 . S
C788 C796 1.574 . S
C788 C804 1.368 . S
H789 C797 0.950 . S
H790 C795 0.950 . S
H791 C796 0.949 . S
H792 C798 0.950 . S
H793 C799 0.950 . S
H794 C800 0.949 . S
C795 H790 0.950 . S
C795 C797 1.327 . S
C795 C801 1.429 1_455 S
C796 C788 1.574 . S
C796 H791 0.949 . S
C796 C802 1.368 . S
C797 C781 1.347 1_455 S
C797 H789 0.950 . S
C797 C795 1.327 . S
C798 C786 1.349 . S
C798 H792 0.950 . S
C798 C799 1.327 . S
C799 H793 0.950 . S
C799 C798 1.327 . S
C799 C803 1.429 . S
C800 C783 1.574 . S
C800 H794 0.949 . S
C800 C804 1.368 1_455 S
C801 C782 1.429 . S
C801 C795 1.429 1_655 S
C801 C802 1.523 . S
C802 C783 1.368 1_655 S
C802 C796 1.368 . S
C802 C801 1.523 . S
C803 C787 1.429 1_655 S
C803 C799 1.429 . S
C803 C804 1.523 . S
C804 C788 1.368 . S
C804 C800 1.368 1_655 S
C804 C803 1.523 . S
H805 C780 0.950 . S
H806 C782 0.950 . S
H807 C783 0.949 . S
H808 C785 0.956 . S
H809 C787 0.950 . S
C810 C811 1.383 . S
C810 C812 1.327 . S
C810 H835 0.950 . S
C811 C810 1.383 . S
C811 C827 1.318 1_565 S
C812 C810 1.327 . S
C812 C831 1.429 . S
C812 H836 0.950 . S
C813 C830 1.574 . S
C813 C832 1.368 1_545 S
C813 H837 0.949 . S
H814 C818 0.949 . S
C815 C816 1.349 1_545 S
C815 C817 1.327 . S
C815 H838 0.950 . S
C816 C815 1.349 1_565 S
C816 C828 1.349 . S
C817 C815 1.327 . S
C817 C833 1.429 1_545 S
C817 H839 0.950 . S
C818 H814 0.949 . S
C818 C826 1.574 . S
C818 C834 1.368 . S
H819 C827 0.950 . S
H820 C825 0.950 . S
H821 C826 0.949 . S
H822 C828 0.950 . S
H823 C829 0.950 . S
H824 C830 0.949 . S
C825 H820 0.950 . S
C825 C827 1.327 . S
C825 C831 1.429 1_545 S
C826 C818 1.574 . S
C826 H821 0.949 . S
C826 C832 1.368 . S
C827 C811 1.318 1_545 S
C827 H819 0.950 . S
C827 C825 1.327 . S
C828 C816 1.349 . S
C828 H822 0.950 . S
C828 C829 1.327 . S
C829 H823 0.950 . S
C829 C828 1.327 . S
C829 C833 1.429 . S
C830 C813 1.574 . S
C830 H824 0.949 . S
C830 C834 1.368 1_545 S
C831 C812 1.429 . S
C831 C825 1.429 1_565 S
C831 C832 1.523 . S
C832 C813 1.368 1_565 S
C832 C826 1.368 . S
C832 C831 1.523 . S
C833 C817 1.429 1_565 S
C833 C829 1.429 . S
C833 C834 1.523 . S
C834 C818 1.368 . S
C834 C830 1.368 1_565 S
C834 C833 1.523 . S
H835 C810 0.950 . S
H836 C812 0.950 . S
H837 C813 0.949 . S
H838 C815 0.950 . S
H839 C817 0.950 . S
C840 C841 1.349 . S
C840 C842 1.327 . S
C840 H865 0.950 . S
C841 C840 1.349 . S
C841 C857 1.349 . S
C842 C840 1.327 . S
C842 C861 1.429 . S
C842 H866 0.950 . S
C843 C860 1.574 . S
C843 C862 1.368 . S
C843 H867 0.949 . S
H844 C848 0.949 . S
C845 C846 1.349 . S
C845 C847 1.327 . S
C845 H868 0.950 . S
C846 C845 1.349 . S
C846 C858 1.349 . S
C847 C845 1.327 . S
C847 C863 1.429 . S
C847 H869 0.950 . S
C848 H844 0.949 . S
C848 C856 1.574 . S
C848 C864 1.368 . S
H849 C857 0.950 . S
H850 C855 0.950 . S
H851 C856 0.949 . S
H852 C858 0.950 . S
H853 C859 0.950 . S
H854 C860 0.949 . S
C855 H850 0.950 . S
C855 C857 1.327 . S
C855 C861 1.429 . S
C856 C848 1.574 . S
C856 H851 0.949 . S
C856 C862 1.368 . S
C857 C841 1.349 . S
C857 H849 0.950 . S
C857 C855 1.327 . S
C858 C846 1.349 . S
C858 H852 0.950 . S
C858 C859 1.327 . S
C859 H853 0.950 . S
C859 C858 1.327 . S
C859 C863 1.429 . S
C860 C843 1.574 . S
C860 H854 0.949 . S
C860 C864 1.368 . S
C861 C842 1.429 . S
C861 C855 1.429 . S
C861 C862 1.523 . S
C862 C843 1.368 . S
C862 C856 1.368 . S
C862 C861 1.523 . S
C863 C847 1.429 . S
C863 C859 1.429 . S
C863 C864 1.523 . S
C864 C848 1.368 . S
C864 C860 1.368 . S
C864 C863 1.523 . S
H865 C840 0.950 . S
H866 C842 0.950 . S
H867 C843 0.949 . S
H868 C845 0.950 . S
H869 C847 0.950 . S
C870 C871 1.349 . S
C870 C872 1.327 . S
C870 H895 0.950 . S
C871 C870 1.349 . S
C871 C887 1.349 . S
C872 C870 1.327 . S
C872 C891 1.429 . S
C872 H896 0.950 . S
C873 C890 1.574 . S
C873 C892 1.368 . S
C873 H897 0.949 . S
H874 C878 0.949 . S
C875 C876 1.349 . S
C875 C877 1.327 . S
C875 H898 0.950 . S
C876 C875 1.349 . S
C876 C888 1.349 . S
C877 C875 1.327 . S
C877 C893 1.429 . S
C877 H899 0.950 . S
C878 H874 0.949 . S
C878 C886 1.574 . S
C878 C894 1.368 . S
H879 C887 0.950 . S
H880 C885 0.950 . S
H881 C886 0.949 . S
H882 C888 0.950 . S
H883 C889 0.950 . S
H884 C890 0.949 . S
C885 H880 0.950 . S
C885 C887 1.327 . S
C885 C891 1.429 . S
C886 C878 1.574 . S
C886 H881 0.949 . S
C886 C892 1.368 . S
C887 C871 1.349 . S
C887 H879 0.950 . S
C887 C885 1.327 . S
C888 C876 1.349 . S
C888 H882 0.950 . S
C888 C889 1.327 . S
C889 H883 0.950 . S
C889 C888 1.327 . S
C889 C893 1.429 . S
C890 C873 1.574 . S
C890 H884 0.949 . S
C890 C894 1.368 . S
C891 C872 1.429 . S
C891 C885 1.429 . S
C891 C892 1.523 . S
C892 C873 1.368 . S
C892 C886 1.368 . S
C892 C891 1.523 . S
C893 C877 1.429 . S
C893 C889 1.429 . S
C893 C894 1.523 . S
C894 C878 1.368 . S
C894 C890 1.368 . S
C894 C893 1.523 . S
H895 C870 0.950 . S
H896 C872 0.950 . S
H897 C873 0.949 . S
H898 C875 0.950 . S
H899 C877 0.950 . S
C181 C76 1.543 . S
C186 C104 1.565 . S
C216 C127 1.613 . S
C211 C87 1.588 . S
C246 C150 1.641 . S
C241 C54 1.618 . S
C276 C177 1.497 . S
C271 C65 1.541 . S
C306 C105 1.563 . S
C301 C32 1.542 . S
C331 C43 1.463 . S
C336 C128 1.484 . S
C361 C10 1.443 . S
C366 C151 1.462 . S
C391 C21 1.578 . S
C396 C176 1.585 . S
C426 C106 0.140 . S
C421 C60 0.386 . S
C456 C129 0.193 . S
C451 C71 0.325 . S
C486 C152 0.204 . S
C481 C82 0.328 . S
C511 C49 0.368 . S
C516 C178 0.469 . S
C541 C16 0.415 1_655 S
C546 C109 0.508 . S
C576 C132 0.514 . S
C571 C27 0.406 1_565 S
C606 C155 0.508 . S
C601 C38 0.391 . S
C631 C5 0.329 1_556 S
C636 C175 0.161 . S
C661 C59 1.579 . S
C666 C107 1.563 . S
C691 C70 1.521 . S
C696 C130 1.526 . S
C726 C153 1.542 . S
C721 C81 1.539 . S
C756 C174 1.323 . S
C751 C48 1.283 . S
C781 C15 1.565 1_655 S
C786 C108 1.521 . S
C816 C131 1.469 . S
C811 C26 1.519 1_565 S
C846 C154 1.454 . S
C841 C37 1.501 . S
C871 C4 1.720 . S
C876 C173 1.766 . S
