# Generated by pormake.
# Topology zzz, (3,6)-cn, num edge types: 1
# Building blocks:
#     Node 0, Type 0, BuildingBlock: ESEHIV_clean_linker_0, # of connection points: 3
#     Node 1, Type 0, BuildingBlock: ESEHIV_clean_linker_0, # of connection points: 3
#     Node 2, Type 0, BuildingBlock: ESEHIV_clean_linker_0, # of connection points: 3
#     Node 3, Type 0, BuildingBlock: ESEHIV_clean_linker_0, # of connection points: 3
#     Node 4, Type 0, BuildingBlock: ESEHIV_clean_linker_0, # of connection points: 3
#     Node 5, Type 0, BuildingBlock: ESEHIV_clean_linker_0, # of connection points: 3
#     Node 6, Type 0, BuildingBlock: ESEHIV_clean_linker_0, # of connection points: 3
#     Node 7, Type 0, BuildingBlock: ESEHIV_clean_linker_0, # of connection points: 3
#     Node 8, Type 1, BuildingBlock: JUFBIX_clean_sbu_0, # of connection points: 6
#     Node 9, Type 1, BuildingBlock: JUFBIX_clean_sbu_0, # of connection points: 6
#     Node 10, Type 1, BuildingBlock: JUFBIX_clean_sbu_0, # of connection points: 6
#     Node 11, Type 1, BuildingBlock: JUFBIX_clean_sbu_0, # of connection points: 6
#     Edge 12, Type (0, 1), BuildingBlock: MIFKUJ_clean_linker_0, # of connection points: 2
#     Edge 13, Type (0, 1), BuildingBlock: MIFKUJ_clean_linker_0, # of connection points: 2
#     Edge 14, Type (0, 1), BuildingBlock: MIFKUJ_clean_linker_0, # of connection points: 2
#     Edge 15, Type (0, 1), BuildingBlock: MIFKUJ_clean_linker_0, # of connection points: 2
#     Edge 16, Type (0, 1), BuildingBlock: MIFKUJ_clean_linker_0, # of connection points: 2
#     Edge 17, Type (0, 1), BuildingBlock: MIFKUJ_clean_linker_0, # of connection points: 2
#     Edge 18, Type (0, 1), BuildingBlock: MIFKUJ_clean_linker_0, # of connection points: 2
#     Edge 19, Type (0, 1), BuildingBlock: MIFKUJ_clean_linker_0, # of connection points: 2
#     Edge 20, Type (0, 1), BuildingBlock: MIFKUJ_clean_linker_0, # of connection points: 2
#     Edge 21, Type (0, 1), BuildingBlock: MIFKUJ_clean_linker_0, # of connection points: 2
#     Edge 22, Type (0, 1), BuildingBlock: MIFKUJ_clean_linker_0, # of connection points: 2
#     Edge 23, Type (0, 1), BuildingBlock: MIFKUJ_clean_linker_0, # of connection points: 2
#     Edge 24, Type (0, 1), BuildingBlock: MIFKUJ_clean_linker_0, # of connection points: 2
#     Edge 25, Type (0, 1), BuildingBlock: MIFKUJ_clean_linker_0, # of connection points: 2
#     Edge 26, Type (0, 1), BuildingBlock: MIFKUJ_clean_linker_0, # of connection points: 2
#     Edge 27, Type (0, 1), BuildingBlock: MIFKUJ_clean_linker_0, # of connection points: 2
#     Edge 28, Type (0, 1), BuildingBlock: MIFKUJ_clean_linker_0, # of connection points: 2
#     Edge 29, Type (0, 1), BuildingBlock: MIFKUJ_clean_linker_0, # of connection points: 2
#     Edge 30, Type (0, 1), BuildingBlock: MIFKUJ_clean_linker_0, # of connection points: 2
#     Edge 31, Type (0, 1), BuildingBlock: MIFKUJ_clean_linker_0, # of connection points: 2
#     Edge 32, Type (0, 1), BuildingBlock: MIFKUJ_clean_linker_0, # of connection points: 2
#     Edge 33, Type (0, 1), BuildingBlock: MIFKUJ_clean_linker_0, # of connection points: 2
#     Edge 34, Type (0, 1), BuildingBlock: MIFKUJ_clean_linker_0, # of connection points: 2
#     Edge 35, Type (0, 1), BuildingBlock: MIFKUJ_clean_linker_0, # of connection points: 2
# Relax obj value: 0.290
# Max RMSD: 0.223
# Mean RMSD: 0.188
data_MOF--net-zzz--node1-JUFBIX_clean_sbu_0--node2-ESEHIV_clean_linker_0--edge1-MIFKUJ_clean_linker_0
_symmetry_space_group_name_H-M    P1
_symmetry_Int_Tables_number       1
_symmetry_cell_setting            triclinic
loop_
_symmetry_equiv_pos_as_xyz
'x, y, z'
_cell_length_a     58.345963
_cell_length_b     60.197408
_cell_length_c     23.107867
_cell_angle_alpha  82.986367
_cell_angle_beta   90.181342
_cell_angle_gamma 86.592486
loop_
_atom_site_label
_atom_site_type_symbol
_atom_site_fract_x
_atom_site_fract_y
_atom_site_fract_z
_atom_type_partial_charge
H0 H 0.81574 0.56547 0.28383 0.0
H1 H 0.76331 0.56433 0.15348 0.0
H2 H 0.74461 0.5694 0.33187 0.0
C3 C 0.79776 0.56671 0.27106 0.0
C4 C 0.781 0.56862 0.31375 0.0
C5 C 0.7916 0.56481 0.21334 0.0
C6 C 0.76828 0.56582 0.19805 0.0
C7 C 0.75125 0.56767 0.24028 0.0
C8 C 0.75762 0.5687 0.29867 0.0
H9 H 0.01997 0.80356 0.27981 0.0
H10 H 0.02253 0.75259 0.16534 0.0
H11 H 0.001 0.73684 0.34328 0.0
C12 C 0.01809 0.78625 0.27281 0.0
C13 C 0.01049 0.77099 0.31854 0.0
C14 C 0.02211 0.7798 0.21745 0.0
C15 C 0.0192 0.75766 0.20817 0.0
C16 C 0.01192 0.74195 0.25322 0.0
C17 C 0.00699 0.74874 0.30848 0.0
H18 H 0.7088 0.94624 0.27473 0.0
H19 H 0.75226 0.95844 0.12609 0.0
H20 H 0.77849 0.96275 0.29875 0.0
C21 C 0.72541 0.94992 0.25619 0.0
C22 C 0.74325 0.95399 0.29335 0.0
C23 C 0.72818 0.95218 0.19566 0.0
C24 C 0.74989 0.95675 0.17284 0.0
C25 C 0.76837 0.96019 0.20945 0.0
C26 C 0.76486 0.95901 0.27015 0.0
H27 H 0.49185 0.69389 0.24528 0.0
H28 H 0.49379 0.76342 0.26943 0.0
H29 H 0.48573 0.74405 0.09669 0.0
C30 C 0.49125 0.7114 0.22693 0.0
C31 C 0.48861 0.71709 0.16677 0.0
C32 C 0.4931 0.72791 0.26404 0.0
C33 C 0.49238 0.75064 0.24062 0.0
C34 C 0.48923 0.75673 0.17992 0.0
C35 C 0.48738 0.73973 0.14351 0.0
H36 H 0.18746 0.46906 0.23214 0.0
H37 H 0.23657 0.4869 0.35407 0.0
H38 H 0.25893 0.46904 0.18718 0.0
C39 C 0.20512 0.47099 0.24434 0.0
C40 C 0.22259 0.46741 0.20437 0.0
C41 C 0.20989 0.47857 0.29768 0.0
C42 C 0.23269 0.48172 0.31199 0.0
C43 C 0.25058 0.47827 0.27279 0.0
C44 C 0.24544 0.47116 0.2185 0.0
H45 H 0.98233 0.21077 0.26903 0.0
H46 H 0.97407 0.25992 0.38771 0.0
H47 H 0.99746 0.27921 0.21269 0.0
C48 C 0.98326 0.22796 0.27809 0.0
C49 C 0.99049 0.24419 0.23433 0.0
C50 C 0.97733 0.23353 0.33326 0.0
C51 C 0.97823 0.25575 0.34446 0.0
C52 C 0.98523 0.27251 0.30148 0.0
C53 C 0.99188 0.26656 0.24625 0.0
H54 H 0.28805 0.05962 0.31991 0.0
H55 H 0.23044 0.06934 0.43082 0.0
H56 H 0.21985 0.05157 0.25784 0.0
C57 C 0.26963 0.06061 0.3265 0.0
C58 C 0.25507 0.05572 0.282 0.0
C59 C 0.26095 0.0655 0.38024 0.0
C60 C 0.23722 0.06607 0.38883 0.0
C61 C 0.22223 0.0611 0.3451 0.0
C62 C 0.23121 0.05593 0.29132 0.0
H63 H 0.51899 0.32101 0.28187 0.0
H64 H 0.50928 0.2522 0.26162 0.0
H65 H 0.52546 0.27116 0.43096 0.0
C66 C 0.51884 0.30363 0.30072 0.0
C67 C 0.52321 0.29791 0.36029 0.0
C68 C 0.51373 0.28739 0.26508 0.0
C69 C 0.51302 0.26483 0.28933 0.0
C70 C 0.51757 0.25873 0.3495 0.0
C71 C 0.52238 0.2755 0.38455 0.0
Co72 Co 0.00434 0.01798 0.8079 0.0
C73 C 0.96391 0.99737 0.84421 0.0
Co74 Co 0.98839 0.999 0.74269 0.0
C75 C 0.01539 0.05656 0.86711 0.0
C76 C 0.02267 0.0251 0.91952 0.0
N77 N 0.01575 0.03407 0.86547 0.0
N78 N 0.02143 0.06182 0.92017 0.0
C79 C 0.0262 0.04199 0.95294 0.0
H80 H 0.00947 0.06886 0.83128 0.0
H81 H 0.02389 0.00737 0.93495 0.0
C82 C 0.02873 0.01967 0.70606 0.0
N83 N 0.97695 0.98292 0.68509 0.0
C84 C 0.97801 0.96047 0.68268 0.0
C85 C 0.96942 0.99194 0.63154 0.0
N86 N 0.97187 0.95529 0.62965 0.0
C87 C 0.96628 0.97511 0.59766 0.0
C88 C 0.97271 0.04347 0.73333 0.0
O89 O 0.02867 0.02649 0.75619 0.0
O90 O 0.01292 0.00749 0.69262 0.0
O91 O 0.97082 0.02533 0.71134 0.0
O92 O 0.98626 0.0437 0.77629 0.0
O93 O 0.96386 0.99086 0.79376 0.0
H94 H 0.96761 0.00968 0.61657 0.0
H95 H 0.98459 0.94817 0.71774 0.0
O96 O 0.97995 0.00916 0.85836 0.0
O97 O 0.02219 0.99177 0.83864 0.0
O98 O 0.00617 0.97312 0.77521 0.0
C99 C 0.01996 0.97346 0.81765 0.0
H100 H 0.0312 0.03979 0.99853 0.0
H101 H 0.96114 0.97736 0.55216 0.0
Co102 Co 0.48923 0.01759 0.80258 0.0
C103 C 0.49501 0.97105 0.82881 0.0
Co104 Co 0.50674 1.00048 0.73369 0.0
C105 C 0.45157 0.0262 0.87835 0.0
C106 C 0.47791 0.04905 0.88481 0.0
N107 N 0.47272 0.03111 0.85882 0.0
N108 N 0.44319 0.04047 0.915 0.0
C109 C 0.45985 0.05481 0.91944 0.0
H110 H 0.44236 0.01253 0.86518 0.0
H111 H 0.4935 0.05782 0.87755 0.0
C112 C 0.50124 0.04703 0.70756 0.0
N113 N 0.52304 0.98756 0.67543 0.0
C114 C 0.5452 0.97935 0.67645 0.0
C115 C 0.51676 0.98956 0.61865 0.0
N116 N 0.55301 0.9768 0.62259 0.0
C117 C 0.53511 0.98306 0.5862 0.0
C118 C 0.46026 0.00525 0.71729 0.0
O119 O 0.49203 0.04622 0.75757 0.0
O120 O 0.50889 0.02893 0.68961 0.0
O121 O 0.47848 0.99735 0.69555 0.0
O122 O 0.46142 0.01455 0.76342 0.0
O123 O 0.50445 0.97193 0.77893 0.0
H124 H 0.5005 0.99706 0.60111 0.0
H125 H 0.55605 0.97717 0.715 0.0
O126 O 0.48679 0.98907 0.84644 0.0
O127 O 0.51733 0.02028 0.84183 0.0
O128 O 0.53451 0.00394 0.7726 0.0
C129 C 0.53563 0.0125 0.81998 0.0
H130 H 0.45875 0.06898 0.94416 0.0
H131 H 0.53569 0.9842 0.53911 0.0
Co132 Co 0.52341 0.5078 0.7723 0.0
C133 C 0.5016 0.47067 0.82675 0.0
Co134 Co 0.48655 0.50729 0.74975 0.0
C135 C 0.56353 0.52047 0.83288 0.0
C136 C 0.57004 0.49072 0.79195 0.0
N137 N 0.55391 0.50738 0.79699 0.0
N138 N 0.58471 0.51231 0.85128 0.0
C139 C 0.58892 0.49369 0.82522 0.0
H140 H 0.55458 0.53474 0.84884 0.0
H141 H 0.56769 0.47642 0.7689 0.0
C142 C 0.50856 0.54429 0.69496 0.0
N143 N 0.45617 0.50701 0.72544 0.0
C144 C 0.44862 0.50591 0.67057 0.0
C145 C 0.43698 0.50736 0.75782 0.0
N146 N 0.42559 0.50547 0.66742 0.0
C147 C 0.41813 0.50653 0.72217 0.0
C148 C 0.49332 0.53015 0.843 0.0
O149 O 0.52614 0.53552 0.72394 0.0
O150 O 0.48988 0.53431 0.69908 0.0
O151 O 0.4777 0.52468 0.81002 0.0
O152 O 0.51406 0.52375 0.83481 0.0
O153 O 0.48358 0.48007 0.80104 0.0
H154 H 0.43671 0.50788 0.80444 0.0
H155 H 0.45979 0.50554 0.63335 0.0
O156 O 0.52042 0.4802 0.81999 0.0
O157 O 0.53226 0.4918 0.70935 0.0
O158 O 0.49573 0.49011 0.68975 0.0
C159 C 0.51655 0.48514 0.67875 0.0
H160 H 0.60412 0.48244 0.83194 0.0
H161 H 0.40039 0.50612 0.73567 0.0
Co162 Co 0.00302 0.52917 0.7731 0.0
C163 C 0.03754 0.49856 0.8215 0.0
Co164 Co 0.99797 0.49392 0.75831 0.0
C165 C 0.00448 0.56556 0.84462 0.0
C166 C 0.01183 0.57662 0.7555 0.0
N167 N 0.00653 0.55829 0.79154 0.0
N168 N 0.00833 0.5875 0.84305 0.0
C169 C 0.01311 0.59453 0.78711 0.0
H170 H 0.00065 0.55496 0.88419 0.0
H171 H 0.01454 0.57705 0.70912 0.0
C172 C 0.96365 0.52481 0.70934 0.0
N173 N 0.99448 0.46493 0.73959 0.0
C174 C 0.99436 0.45831 0.68564 0.0
C175 C 0.9917 0.44603 0.77608 0.0
N176 N 0.99166 0.43614 0.68702 0.0
C177 C 0.98982 0.42835 0.74389 0.0
C178 C 0.97702 0.50437 0.85729 0.0
O179 O 0.9754 0.53899 0.73103 0.0
O180 O 0.97076 0.50424 0.71543 0.0
O181 O 0.97999 0.48835 0.82653 0.0
O182 O 0.98583 0.52287 0.8414 0.0
O183 O 0.02556 0.48403 0.8019 0.0
H184 H 0.99123 0.4451 0.82309 0.0
H185 H 0.99596 0.46958 0.64583 0.0
O186 O 0.03042 0.5191 0.81428 0.0
O187 O 0.02037 0.53482 0.70425 0.0
O188 O 0.0157 0.49997 0.69066 0.0
C189 C 0.02399 0.51868 0.6742 0.0
H190 H 0.01688 0.61147 0.77018 0.0
H191 H 0.98777 0.41103 0.76102 0.0
H192 H 0.19758 0.02412 0.34512 0.0
H193 H 0.16104 0.01749 0.39483 0.0
H194 H 0.15604 0.08602 0.43263 0.0
H195 H 0.19257 0.09261 0.38334 0.0
H196 H 0.15593 0.02103 0.51202 0.0
H197 H 0.09719 0.10155 0.44449 0.0
H198 H 0.08946 0.12927 0.35787 0.0
H199 H 0.11308 0.08068 0.2467 0.0
H200 H 0.12024 0.05249 0.33231 0.0
H201 H 0.07026 0.03703 0.72461 0.0
H202 H 0.10062 0.04501 0.65305 0.0
H203 H 0.05832 0.02396 0.51887 0.0
H204 H 0.02809 0.0158 0.58982 0.0
H205 H 0.08036 0.06329 0.48165 0.0
H206 H 0.09843 0.98856 0.57695 0.0
H207 H 0.10587 0.95997 0.66187 0.0
H208 H 0.16328 0.99504 0.71213 0.0
H209 H 0.15596 0.02402 0.62792 0.0
C210 C 0.18822 0.03795 0.36217 0.0
C211 C 0.19775 0.0589 0.36016 0.0
C212 C 0.16751 0.0341 0.3911 0.0
C213 C 0.15587 0.05124 0.41763 0.0
C214 C 0.16462 0.0726 0.41214 0.0
C215 C 0.18542 0.07638 0.38385 0.0
C216 C 0.13596 0.04628 0.456 0.0
C217 C 0.13939 0.03023 0.50516 0.0
C218 C 0.11436 0.05827 0.44709 0.0
C219 C 0.10952 0.07496 0.39503 0.0
C220 C 0.10057 0.09672 0.40154 0.0
C221 C 0.09625 0.11252 0.35256 0.0
C222 C 0.1008 0.10676 0.29679 0.0
C223 C 0.10954 0.08514 0.28986 0.0
C224 C 0.11374 0.06925 0.33863 0.0
C225 C 0.06739 0.03424 0.67981 0.0
C226 C 0.04684 0.02563 0.66303 0.0
C227 C 0.08474 0.03876 0.63901 0.0
C228 C 0.08174 0.03497 0.5807 0.0
C229 C 0.06098 0.02703 0.56356 0.0
C230 C 0.04378 0.02226 0.60434 0.0
C231 C 0.10055 0.03837 0.53797 0.0
C232 C 0.09692 0.05413 0.48826 0.0
C233 C 0.12196 0.02606 0.54607 0.0
C234 C 0.12651 0.00856 0.59646 0.0
C235 C 0.11253 0.99026 0.60637 0.0
C236 C 0.11674 0.97398 0.65433 0.0
C237 C 0.135 0.97572 0.69246 0.0
C238 C 0.14913 0.99373 0.6826 0.0
C239 C 0.14496 0.01008 0.63474 0.0
H240 H 0.13824 0.96309 0.72956 0.0
H241 H 0.09753 0.11904 0.25894 0.0
H242 H 0.48564 0.22796 0.33546 0.0
H243 H 0.483 0.1908 0.39129 0.0
H244 H 0.54561 0.19959 0.48348 0.0
H245 H 0.5487 0.23617 0.42675 0.0
H246 H 0.54524 0.15811 0.46225 0.0
H247 H 0.49232 0.21002 0.5422 0.0
H248 H 0.45991 0.23836 0.54001 0.0
H249 H 0.41431 0.19125 0.48574 0.0
H250 H 0.44653 0.16271 0.48684 0.0
H251 H 0.49282 0.08984 0.73549 0.0
H252 H 0.49588 0.12512 0.67139 0.0
H253 H 0.51478 0.08799 0.52869 0.0
H254 H 0.51247 0.05289 0.59258 0.0
H255 H 0.47452 0.14384 0.57611 0.0
H256 H 0.55165 0.11555 0.43943 0.0
H257 H 0.58584 0.08916 0.45105 0.0
H258 H 0.5864 0.09261 0.63555 0.0
H259 H 0.55242 0.11923 0.62494 0.0
C260 C 0.49906 0.22172 0.36678 0.0
C261 C 0.51722 0.2351 0.3772 0.0
C262 C 0.49742 0.2006 0.39909 0.0
C263 C 0.51388 0.19254 0.44245 0.0
C264 C 0.53262 0.20543 0.4506 0.0
C265 C 0.53428 0.22643 0.41838 0.0
C266 C 0.51129 0.1712 0.4812 0.0
C267 C 0.52971 0.15495 0.48682 0.0
C268 C 0.49128 0.16723 0.51453 0.0
C269 C 0.47187 0.18432 0.51398 0.0
C270 C 0.47541 0.20576 0.52937 0.0
C271 C 0.45707 0.22185 0.52839 0.0
C272 C 0.43508 0.21663 0.51258 0.0
C273 C 0.43136 0.19528 0.49787 0.0
C274 C 0.44965 0.17914 0.49869 0.0
C275 C 0.49771 0.08923 0.69051 0.0
C276 C 0.50266 0.06856 0.66937 0.0
C277 C 0.49936 0.1094 0.65383 0.0
C278 C 0.5059 0.10927 0.59533 0.0
C279 C 0.51022 0.0886 0.5739 0.0
C280 C 0.50883 0.06851 0.61057 0.0
C281 C 0.50839 0.13066 0.55671 0.0
C282 C 0.48998 0.14692 0.55115 0.0
C283 C 0.52867 0.13492 0.52465 0.0
C284 C 0.54935 0.11921 0.53141 0.0
C285 C 0.55914 0.11075 0.48243 0.0
C286 C 0.57846 0.09574 0.48885 0.0
C287 C 0.58824 0.08915 0.54403 0.0
C288 C 0.57876 0.09765 0.59287 0.0
C289 C 0.55946 0.11268 0.58668 0.0
H290 H 0.60318 0.07751 0.54891 0.0
H291 H 0.4209 0.2291 0.51187 0.0
H292 H 0.26427 0.515 0.31752 0.0
H293 H 0.30051 0.51915 0.36577 0.0
H294 H 0.32718 0.45599 0.31509 0.0
H295 H 0.29009 0.45131 0.2686 0.0
H296 H 0.33496 0.45576 0.42429 0.0
H297 H 0.35061 0.50768 0.26293 0.0
H298 H 0.34407 0.539 0.18432 0.0
H299 H 0.33291 0.58491 0.31119 0.0
H300 H 0.33907 0.55384 0.39065 0.0
H301 H 0.43666 0.48037 0.58106 0.0
H302 H 0.41272 0.47543 0.49643 0.0
H303 H 0.36 0.52073 0.55408 0.0
H304 H 0.38369 0.52536 0.63928 0.0
H305 H 0.37299 0.52723 0.42631 0.0
H306 H 0.35119 0.47068 0.58494 0.0
H307 H 0.36032 0.43839 0.6595 0.0
H308 H 0.38734 0.40003 0.52748 0.0
H309 H 0.37864 0.43225 0.45223 0.0
C310 C 0.27798 0.50215 0.31574 0.0
C311 C 0.27427 0.4827 0.28989 0.0
C312 C 0.29887 0.50466 0.34287 0.0
C313 C 0.31681 0.48799 0.34386 0.0
C314 C 0.31364 0.46911 0.31493 0.0
C315 C 0.29254 0.46652 0.28794 0.0
C316 C 0.33751 0.48937 0.38092 0.0
C317 C 0.34366 0.47123 0.42347 0.0
C318 C 0.34899 0.50951 0.38042 0.0
C319 C 0.34522 0.52836 0.33284 0.0
C320 C 0.34661 0.52443 0.27413 0.0
C321 C 0.343 0.54215 0.22939 0.0
C322 C 0.33806 0.56393 0.24275 0.0
C323 C 0.33676 0.56803 0.30091 0.0
C324 C 0.34036 0.55037 0.34583 0.0
C325 C 0.42005 0.4894 0.57528 0.0
C326 C 0.41196 0.50322 0.61666 0.0
C327 C 0.40641 0.48654 0.52712 0.0
C328 C 0.38467 0.49777 0.51908 0.0
C329 C 0.3768 0.512 0.55952 0.0
C330 C 0.39022 0.51451 0.60826 0.0
C331 C 0.36954 0.49401 0.47007 0.0
C332 C 0.36456 0.51168 0.42566 0.0
C333 C 0.35953 0.47331 0.46797 0.0
C334 C 0.36454 0.45394 0.51313 0.0
C335 C 0.35927 0.45543 0.57191 0.0
C336 C 0.36432 0.43713 0.61427 0.0
C337 C 0.37447 0.41719 0.59827 0.0
C338 C 0.37952 0.4155 0.53983 0.0
C339 C 0.37452 0.43376 0.49732 0.0
H340 H 0.37838 0.40305 0.63112 0.0
H341 H 0.33526 0.57763 0.20805 0.0
H342 H 0.95097 0.29549 0.35185 0.0
H343 H 0.95379 0.32867 0.40066 0.0
H344 H 0.02262 0.33603 0.33606 0.0
H345 H 0.0202 0.30158 0.2895 0.0
H346 H 0.02365 0.34025 0.44365 0.0
H347 H 0.97482 0.37577 0.29351 0.0
H348 H 0.94233 0.3814 0.22376 0.0
H349 H 0.89481 0.3799 0.36547 0.0
H350 H 0.92698 0.37394 0.43616 0.0
H351 H 0.01771 0.44143 0.59005 0.0
H352 H 0.01818 0.41864 0.50857 0.0
H353 H 0.96522 0.37946 0.59146 0.0
H354 H 0.96513 0.4018 0.67354 0.0
H355 H 0.9599 0.39733 0.46062 0.0
H356 H 0.01236 0.35578 0.60765 0.0
H357 H 0.04641 0.35292 0.67228 0.0
H358 H 0.08915 0.37037 0.52471 0.0
H359 H 0.05526 0.37365 0.4593 0.0
C360 C 0.96657 0.30442 0.34695 0.0
C361 C 0.98542 0.2958 0.31712 0.0
C362 C 0.96811 0.32362 0.37458 0.0
C363 C 0.98835 0.33523 0.37192 0.0
C364 C 0.00678 0.32746 0.33895 0.0
C365 C 0.00533 0.30792 0.31169 0.0
C366 C 0.99071 0.35386 0.40861 0.0
C367 C 0.0099 0.35303 0.44604 0.0
C368 C 0.97286 0.37071 0.4125 0.0
C369 C 0.95336 0.3743 0.3702 0.0
C370 C 0.95744 0.37649 0.30985 0.0
C371 C 0.93908 0.37976 0.27013 0.0
C372 C 0.91652 0.38098 0.29017 0.0
C373 C 0.91229 0.37897 0.35 0.0
C374 C 0.9306 0.37568 0.38993 0.0
C375 C 0.00609 0.42803 0.5906 0.0
C376 C 0.9914 0.42333 0.63815 0.0
C377 C 0.00641 0.41502 0.54419 0.0
C378 C 0.99171 0.3974 0.54399 0.0
C379 C 0.97667 0.39302 0.59075 0.0
C380 C 0.97671 0.40568 0.63771 0.0
C381 C 0.99232 0.38302 0.49602 0.0
C382 C 0.97373 0.38475 0.45683 0.0
C383 C 0.01092 0.36742 0.48947 0.0
C384 C 0.03126 0.36523 0.52874 0.0
C385 C 0.02899 0.35922 0.58908 0.0
C386 C 0.04826 0.35747 0.62583 0.0
C387 C 0.06992 0.36153 0.60264 0.0
C388 C 0.07236 0.36727 0.54263 0.0
C389 C 0.05313 0.36906 0.5057 0.0
H390 H 0.08482 0.36018 0.63116 0.0
H391 H 0.90233 0.38352 0.25934 0.0
H392 H 0.77579 0.98948 0.11228 0.0
H393 H 0.81169 0.99466 0.05973 0.0
H394 H 0.84792 0.94984 0.19364 0.0
H395 H 0.8117 0.94383 0.24589 0.0
H396 H 0.86159 0.0051 0.11669 0.0
H397 H 0.85627 0.92083 0.12378 0.0
H398 H 0.83173 0.88926 0.11607 0.0
H399 H 0.80525 0.92142 0.95125 0.0
H400 H 0.82946 0.95329 0.95852 0.0
H401 H 0.96534 0.9975 0.96194 0.0
H402 H 0.9346 0.98989 0.03152 0.0
H403 H 0.88956 0.9782 0.89123 0.0
H404 H 0.92078 0.98461 0.82176 0.0
H405 H 0.88113 0.95016 0.97816 0.0
H406 H 0.88863 0.0296 0.95684 0.0
H407 H 0.90891 0.06443 0.95646 0.0
H408 H 0.92636 0.04681 0.13758 0.0
H409 H 0.90642 0.01173 0.13883 0.0
C410 C 0.79136 0.98068 0.13072 0.0
C411 C 0.79081 0.96587 0.18277 0.0
C412 C 0.81188 0.98381 0.10078 0.0
C413 C 0.83231 0.97241 0.12248 0.0
C414 C 0.8322 0.95862 0.17605 0.0
C415 C 0.81157 0.95533 0.206 0.0
C416 C 0.85328 0.97409 0.08674 0.0
C417 C 0.8663 0.99287 0.0873 0.0
C418 C 0.85865 0.95868 0.04671 0.0
C419 C 0.84446 0.93943 0.04194 0.0
C420 C 0.84509 0.92119 0.08614 0.0
C421 C 0.83128 0.90325 0.08181 0.0
C422 C 0.8169 0.90336 0.03326 0.0
C423 C 0.81636 0.92137 0.98886 0.0
C424 C 0.83013 0.93936 0.99305 0.0
C425 C 0.9489 0.99322 0.94592 0.0
C426 C 0.94542 0.99181 0.88627 0.0
C427 C 0.93126 0.98899 0.98577 0.0
C428 C 0.90948 0.98399 0.96671 0.0
C429 C 0.90614 0.98207 0.90722 0.0
C430 C 0.92398 0.9858 0.86744 0.0
C431 C 0.89015 0.98107 0.00852 0.0
C432 C 0.87704 0.96222 0.00841 0.0
C433 C 0.88447 0.99674 0.04824 0.0
C434 C 0.89623 0.01795 0.04777 0.0
C435 C 0.89691 0.0331 0.99649 0.0
C436 C 0.90833 0.05289 0.99613 0.0
C437 C 0.91897 0.0578 0.04692 0.0
C438 C 0.91814 0.04297 0.09824 0.0
C439 C 0.90676 0.02314 0.09883 0.0
H440 H 0.92783 0.07311 0.04653 0.0
H441 H 0.80621 0.88946 0.02999 0.0
H442 H 0.4596 0.77712 0.09548 0.0
H443 H 0.46094 0.8145 0.04196 0.0
H444 H 0.51733 0.82819 0.15086 0.0
H445 H 0.5166 0.79028 0.20348 0.0
H446 H 0.45542 0.85564 0.06627 0.0
H447 H 0.55379 0.86164 0.06679 0.0
H448 H 0.58909 0.83669 0.07539 0.0
H449 H 0.55306 0.7851 0.00781 0.0
H450 H 0.51767 0.80984 0.99807 0.0
H451 H 0.48057 0.96476 0.94158 0.0
H452 H 0.48016 0.92969 0.00656 0.0
H453 H 0.50766 0.8935 0.86979 0.0
H454 H 0.50865 0.92873 0.80465 0.0
H455 H 0.52799 0.87791 0.9706 0.0
H456 H 0.45 0.89434 0.90413 0.0
H457 H 0.41387 0.91765 0.88656 0.0
H458 H 0.4073 0.92101 0.07036 0.0
H459 H 0.44358 0.89795 0.08896 0.0
C460 C 0.4723 0.78807 0.10815 0.0
C461 C 0.48822 0.78058 0.15322 0.0
C462 C 0.47293 0.80954 0.07775 0.0
C463 C 0.48946 0.8241 0.09165 0.0
C464 C 0.50466 0.81713 0.13865 0.0
C465 C 0.50408 0.79554 0.1691 0.0
C466 C 0.49116 0.84611 0.05513 0.0
C467 C 0.47134 0.86055 0.0457 0.0
C468 C 0.51181 0.85244 0.02732 0.0
C469 C 0.53303 0.83749 0.03246 0.0
C470 C 0.55344 0.84498 0.05367 0.0
C471 C 0.57345 0.83089 0.05873 0.0
C472 C 0.57329 0.8093 0.04238 0.0
C473 C 0.55314 0.80179 0.02069 0.0
C474 C 0.53309 0.81584 0.01545 0.0
C475 C 0.48647 0.94936 0.92509 0.0
C476 C 0.4944 0.94954 0.86757 0.0
C477 C 0.48619 0.92928 0.96239 0.0
C478 C 0.49356 0.90888 0.9429 0.0
C479 C 0.50185 0.90903 0.88582 0.0
C480 C 0.50227 0.92916 0.84849 0.0
C481 C 0.49225 0.88737 0.98172 0.0
C482 C 0.51214 0.87308 0.99165 0.0
C483 C 0.47153 0.88091 0.00889 0.0
C484 C 0.44961 0.8946 0.99787 0.0
C485 C 0.44093 0.90017 0.94076 0.0
C486 C 0.42041 0.91332 0.93062 0.0
C487 C 0.40833 0.92086 0.9773 0.0
C488 C 0.4167 0.91519 0.03424 0.0
C489 C 0.43722 0.90207 0.04461 0.0
H490 H 0.39245 0.93105 0.96936 0.0
H491 H 0.5888 0.7984 0.04638 0.0
H492 H 0.72477 0.59868 0.17057 0.0
H493 H 0.69007 0.59155 0.11708 0.0
H494 H 0.69043 0.52505 0.21083 0.0
H495 H 0.7248 0.53238 0.26529 0.0
H496 H 0.69645 0.52913 0.08404 0.0
H497 H 0.64698 0.55621 0.22951 0.0
H498 H 0.63166 0.58361 0.29273 0.0
H499 H 0.61332 0.63042 0.14201 0.0
H500 H 0.62888 0.60344 0.07784 0.0
H501 H 0.60845 0.48584 0.9361 0.0
H502 H 0.63202 0.49765 0.01277 0.0
H503 H 0.61539 0.56697 0.94689 0.0
H504 H 0.59094 0.55501 0.87088 0.0
H505 H 0.61676 0.56282 0.06144 0.0
H506 H 0.66739 0.53974 0.91617 0.0
H507 H 0.68405 0.51502 0.84764 0.0
H508 H 0.70264 0.46457 0.99052 0.0
H509 H 0.68579 0.48887 0.05989 0.0
C510 C 0.71673 0.58297 0.18158 0.0
C511 C 0.72716 0.56614 0.22233 0.0
C512 C 0.69701 0.57888 0.15098 0.0
C513 C 0.68773 0.55778 0.16006 0.0
C514 C 0.69725 0.54149 0.2036 0.0
C515 C 0.71675 0.54572 0.2349 0.0
C516 C 0.671 0.55143 0.11754 0.0
C517 C 0.67887 0.53616 0.07979 0.0
C518 C 0.64851 0.56153 0.11028 0.0
C519 C 0.63936 0.57787 0.14885 0.0
C520 C 0.63995 0.57244 0.20982 0.0
C521 C 0.63115 0.58788 0.24584 0.0
C522 C 0.6216 0.60877 0.22142 0.0
C523 C 0.62078 0.61425 0.16089 0.0
C524 C 0.62957 0.59888 0.12467 0.0
C525 C 0.60992 0.50359 0.93777 0.0
C526 C 0.59826 0.51953 0.8969 0.0
C527 C 0.62336 0.51035 0.98168 0.0
C528 C 0.62598 0.53322 0.98486 0.0
C529 C 0.61376 0.54924 0.94518 0.0
C530 C 0.59989 0.54243 0.9017 0.0
C531 C 0.64208 0.54014 0.0285 0.0
C532 C 0.63427 0.55566 0.06593 0.0
C533 C 0.66493 0.53072 0.03474 0.0
C534 C 0.67512 0.51605 0.99318 0.0
C535 C 0.67488 0.52331 0.93295 0.0
C536 C 0.68438 0.50938 0.89396 0.0
C537 C 0.69434 0.48822 0.9147 0.0
C538 C 0.69488 0.48096 0.97451 0.0
C539 C 0.68538 0.49481 0.01369 0.0
H540 H 0.7017 0.47746 0.88445 0.0
H541 H 0.61477 0.62069 0.24938 0.0
H542 H 0.04625 0.71293 0.22726 0.0
H543 H 0.0425 0.68186 0.1696 0.0
H544 H 0.96888 0.68871 0.18452 0.0
H545 H 0.97261 0.72021 0.2419 0.0
H546 H 0.99654 0.6394 0.18201 0.0
H547 H 0.97902 0.71483 0.07783 0.0
H548 H 0.98786 0.75454 0.05639 0.0
H549 H 0.05496 0.7348 0.99797 0.0
H550 H 0.0466 0.69492 0.01993 0.0
H551 H 0.9766 0.58651 0.92787 0.0
H552 H 0.97384 0.61001 0.00723 0.0
H553 H 0.03623 0.64046 0.94844 0.0
H554 H 0.03766 0.61828 0.86642 0.0
H555 H 0.01073 0.67107 0.97761 0.0
H556 H 0.03053 0.59715 0.07721 0.0
H557 H 0.02562 0.55679 0.1041 0.0
H558 H 0.95939 0.57188 0.17516 0.0
H559 H 0.96383 0.61233 0.14823 0.0
C560 C 0.02933 0.70709 0.22066 0.0
C561 C 0.00972 0.71881 0.23933 0.0
C562 C 0.0272 0.68942 0.18749 0.0
C563 C 0.00542 0.6831 0.17255 0.0
C564 C 0.98584 0.69325 0.19603 0.0
C565 C 0.98798 0.71113 0.22906 0.0
C566 C 0.00334 0.66905 0.1245 0.0
C567 C 0.99925 0.64628 0.13711 0.0
C568 C 0.00753 0.67798 0.06631 0.0
C569 C 0.01225 0.70192 0.05094 0.0
C570 C 0.9957 0.71897 0.0607 0.0
C571 C 0.00062 0.7415 0.04843 0.0
C572 C 0.02198 0.7472 0.02598 0.0
C573 C 0.03842 0.73036 0.01542 0.0
C574 C 0.03359 0.70779 0.02769 0.0
C575 C 0.98961 0.59832 0.93208 0.0
C576 C 0.00728 0.60069 0.89108 0.0
C577 C 0.98821 0.61161 0.97782 0.0
C578 C 0.00509 0.62685 0.98513 0.0
C579 C 0.02288 0.62899 0.94413 0.0
C580 C 0.02379 0.61627 0.89728 0.0
C581 C 0.00416 0.64092 0.03441 0.0
C582 C 0.00778 0.66391 0.02215 0.0
C583 C 0.99993 0.63201 0.09302 0.0
C584 C 0.99743 0.60774 0.11027 0.0
C585 C 0.01489 0.59185 0.0984 0.0
C586 C 0.01219 0.56896 0.11365 0.0
C587 C 0.99218 0.56177 0.14118 0.0
C588 C 0.97487 0.57747 0.15378 0.0
C589 C 0.97749 0.60038 0.13863 0.0
H590 H 0.9901 0.54404 0.15284 0.0
H591 H 0.02578 0.76465 0.01669 0.0
H592 H 0.94154 0.23504 0.40936 0.0
H593 H 0.93256 0.20634 0.48966 0.0
H594 H 0.98976 0.16383 0.44185 0.0
H595 H 0.99903 0.19242 0.36254 0.0
H596 H 0.9225 0.16082 0.49098 0.0
H597 H 0.0175 0.14168 0.5648 0.0
H598 H 0.05313 0.16163 0.56737 0.0
H599 H 0.01363 0.2239 0.57172 0.0
H600 H 0.97777 0.20428 0.57008 0.0
H601 H 0.95302 0.05163 0.62492 0.0
H602 H 0.9438 0.08828 0.57006 0.0
H603 H 0.95847 0.12019 0.72234 0.0
H604 H 0.96833 0.08355 0.77709 0.0
H605 H 0.9839 0.13526 0.63718 0.0
H606 H 0.90426 0.12614 0.65706 0.0
H607 H 0.86806 0.10704 0.65658 0.0
H608 H 0.87477 0.10316 0.47305 0.0
H609 H 0.91119 0.12194 0.47253 0.0
C610 C 0.95217 0.21956 0.41616 0.0
C611 C 0.97102 0.21594 0.37993 0.0
C612 C 0.94693 0.20318 0.46162 0.0
C613 C 0.96063 0.18314 0.47178 0.0
C614 C 0.97912 0.17932 0.43488 0.0
C615 C 0.98429 0.19557 0.38942 0.0
C616 C 0.9563 0.16628 0.52185 0.0
C617 C 0.93575 0.15527 0.52344 0.0
C618 C 0.97341 0.15962 0.56489 0.0
C619 C 0.99493 0.17151 0.56697 0.0
C620 C 0.01641 0.15961 0.56668 0.0
C621 C 0.03665 0.17087 0.5679 0.0
C622 C 0.03565 0.19403 0.56959 0.0
C623 C 0.01439 0.20597 0.57025 0.0
C624 C 0.9941 0.19479 0.56911 0.0
C625 C 0.95362 0.06639 0.64725 0.0
C626 C 0.96179 0.06476 0.70496 0.0
C627 C 0.94819 0.08738 0.6159 0.0
C628 C 0.95049 0.10701 0.64206 0.0
C629 C 0.95668 0.10526 0.70124 0.0
C630 C 0.96233 0.08431 0.73243 0.0
C631 C 0.95039 0.12898 0.60533 0.0
C632 C 0.97026 0.14099 0.60591 0.0
C633 C 0.93251 0.13665 0.56492 0.0
C634 C 0.91055 0.12539 0.56485 0.0
C635 C 0.89811 0.12108 0.61666 0.0
C636 C 0.87753 0.11033 0.61655 0.0
C637 C 0.86913 0.10387 0.56483 0.0
C638 C 0.88128 0.10819 0.51308 0.0
C639 C 0.90189 0.11893 0.51294 0.0
H640 H 0.85319 0.09554 0.56484 0.0
H641 H 0.05134 0.20271 0.57047 0.0
H642 H 0.30062 0.08761 0.37804 0.0
H643 H 0.33231 0.07983 0.44838 0.0
H644 H 0.28975 0.03848 0.56326 0.0
H645 H 0.25819 0.04553 0.49251 0.0
H646 H 0.32778 0.06583 0.61646 0.0
H647 H 0.31264 0.01065 0.48144 0.0
H648 H 0.30418 0.0022 0.38202 0.0
H649 H 0.3661 0.03176 0.32014 0.0
H650 H 0.37464 0.04082 0.41903 0.0
H651 H 0.41801 0.99945 0.76327 0.0
H652 H 0.38111 0.00946 0.71338 0.0
H653 H 0.41668 0.02743 0.55223 0.0
H654 H 0.45334 0.01569 0.60117 0.0
H655 H 0.37999 0.0119 0.52628 0.0
H656 H 0.39762 0.0665 0.65299 0.0
H657 H 0.40745 0.0792 0.74704 0.0
H658 H 0.34422 0.05611 0.81956 0.0
H659 H 0.33413 0.043 0.72607 0.0
C660 C 0.29779 0.07739 0.41902 0.0
C661 C 0.27712 0.06676 0.42917 0.0
C662 C 0.31582 0.07315 0.45932 0.0
C663 C 0.31331 0.05841 0.51043 0.0
C664 C 0.29187 0.04999 0.52404 0.0
C665 C 0.27386 0.05405 0.48348 0.0
C666 C 0.33395 0.04808 0.54218 0.0
C667 C 0.33915 0.05385 0.59739 0.0
C668 C 0.34885 0.03286 0.51628 0.0
C669 C 0.34418 0.02656 0.45745 0.0
C670 C 0.32437 0.01546 0.44655 0.0
C671 C 0.31956 0.01057 0.39031 0.0
C672 C 0.33459 0.01646 0.34478 0.0
C673 C 0.35448 0.02721 0.35545 0.0
C674 C 0.35931 0.03223 0.41157 0.0
C675 C 0.41777 0.00489 0.71679 0.0
C676 C 0.43832 0.0068 0.68576 0.0
C677 C 0.39676 0.01092 0.6885 0.0
C678 C 0.39613 0.01997 0.62948 0.0
C679 C 0.41668 0.02062 0.59785 0.0
C680 C 0.43762 0.01384 0.62569 0.0
C681 C 0.37435 0.02972 0.60107 0.0
C682 C 0.36876 0.02378 0.54611 0.0
C683 C 0.35947 0.04522 0.62682 0.0
C684 C 0.36521 0.0536 0.68265 0.0
C685 C 0.38584 0.06407 0.68903 0.0
C686 C 0.39146 0.07133 0.74224 0.0
C687 C 0.37647 0.06844 0.78924 0.0
C688 C 0.3558 0.05834 0.78309 0.0
C689 C 0.35011 0.051 0.72998 0.0
H690 H 0.38087 0.07406 0.8304 0.0
H691 H 0.33086 0.01265 0.30129 0.0
H692 H 0.50318 0.30542 0.46323 0.0
H693 H 0.50686 0.33803 0.51573 0.0
H694 H 0.55703 0.36322 0.39147 0.0
H695 H 0.55341 0.33064 0.33904 0.0
H696 H 0.5399 0.35658 0.56968 0.0
H697 H 0.54663 0.41955 0.35965 0.0
H698 H 0.53343 0.42498 0.25701 0.0
H699 H 0.47766 0.38286 0.30134 0.0
H700 H 0.49042 0.37731 0.40423 0.0
H701 H 0.55732 0.46172 0.66366 0.0
H702 H 0.56358 0.43094 0.60414 0.0
H703 H 0.49409 0.44246 0.53806 0.0
H704 H 0.48776 0.4732 0.59673 0.0
H705 H 0.52301 0.431 0.45472 0.0
H706 H 0.50526 0.40595 0.65307 0.0
H707 H 0.51095 0.4033 0.75949 0.0
H708 H 0.5771 0.36936 0.74466 0.0
H709 H 0.57216 0.37253 0.63776 0.0
C710 C 0.51533 0.3177 0.44794 0.0
C711 C 0.5278 0.31573 0.39676 0.0
C712 C 0.51739 0.33632 0.47782 0.0
C713 C 0.53193 0.35321 0.45691 0.0
C714 C 0.5454 0.35058 0.40773 0.0
C715 C 0.54332 0.33201 0.37785 0.0
C716 C 0.53194 0.37417 0.48437 0.0
C717 C 0.53643 0.37286 0.54447 0.0
C718 C 0.52687 0.39538 0.45169 0.0
C719 C 0.51963 0.39785 0.38949 0.0
C720 C 0.53157 0.41142 0.34743 0.0
C721 C 0.52413 0.41458 0.28927 0.0
C722 C 0.50463 0.40439 0.27275 0.0
C723 C 0.4927 0.39081 0.31424 0.0
C724 C 0.5001 0.38757 0.37243 0.0
C725 C 0.54358 0.45804 0.63533 0.0
C726 C 0.52196 0.46966 0.63534 0.0
C727 C 0.54716 0.44042 0.6016 0.0
C728 C 0.52918 0.43427 0.56751 0.0
C729 C 0.50816 0.44693 0.56421 0.0
C730 C 0.50455 0.46443 0.59798 0.0
C731 C 0.53127 0.41343 0.53965 0.0
C732 C 0.52705 0.41475 0.4796 0.0
C733 C 0.5357 0.39221 0.57281 0.0
C734 C 0.53847 0.38974 0.63726 0.0
C735 C 0.52111 0.39809 0.6724 0.0
C736 C 0.5242 0.39651 0.73282 0.0
C737 C 0.54436 0.38616 0.75883 0.0
C738 C 0.5615 0.3774 0.72443 0.0
C739 C 0.55859 0.37914 0.66389 0.0
H740 H 0.5467 0.38492 0.80564 0.0
H741 H 0.49888 0.40687 0.22772 0.0
H742 H 0.17093 0.45623 0.32355 0.0
H743 H 0.13844 0.46776 0.38173 0.0
H744 H 0.17323 0.52581 0.41817 0.0
H745 H 0.2056 0.51477 0.35878 0.0
H746 H 0.15345 0.50273 0.51703 0.0
H747 H 0.12865 0.53688 0.32378 0.0
H748 H 0.12111 0.53771 0.21841 0.0
H749 H 0.07827 0.48212 0.25282 0.0
H750 H 0.085 0.48145 0.35864 0.0
H751 H 0.05553 0.55003 0.64628 0.0
H752 H 0.08629 0.5481 0.57469 0.0
H753 H 0.05878 0.48905 0.51941 0.0
H754 H 0.02808 0.49092 0.59015 0.0
H755 H 0.07558 0.51657 0.4278 0.0
H756 H 0.09858 0.48353 0.62143 0.0
H757 H 0.10366 0.48433 0.72712 0.0
H758 H 0.15101 0.53621 0.69365 0.0
H759 H 0.14566 0.53621 0.58764 0.0
C760 C 0.17164 0.47152 0.34364 0.0
C761 C 0.19085 0.48459 0.33642 0.0
C762 C 0.15308 0.47807 0.37687 0.0
C763 C 0.1534 0.49776 0.40359 0.0
C764 C 0.17272 0.51057 0.39779 0.0
C765 C 0.19124 0.50412 0.36421 0.0
C766 C 0.13349 0.50484 0.43771 0.0
C767 C 0.13649 0.50617 0.49743 0.0
C768 C 0.11135 0.50889 0.41223 0.0
C769 C 0.10746 0.50902 0.34886 0.0
C770 C 0.1177 0.52479 0.30877 0.0
C771 C 0.1135 0.52529 0.24904 0.0
C772 C 0.09943 0.50983 0.22885 0.0
C773 C 0.08923 0.49404 0.26848 0.0
C774 C 0.09307 0.49372 0.32836 0.0
C775 C 0.05573 0.537 0.61779 0.0
C776 C 0.03963 0.52045 0.62424 0.0
C777 C 0.07333 0.53587 0.57719 0.0
C778 C 0.07494 0.51822 0.54262 0.0
C779 C 0.05785 0.50274 0.54589 0.0
C780 C 0.04039 0.50379 0.58653 0.0
C781 C 0.09548 0.5144 0.50718 0.0
C782 C 0.09259 0.5135 0.44732 0.0
C783 C 0.11767 0.51059 0.53278 0.0
C784 C 0.1215 0.51007 0.59654 0.0
C785 C 0.10995 0.49523 0.63657 0.0
C786 C 0.11287 0.49554 0.69655 0.0
C787 C 0.12762 0.51034 0.71708 0.0
C788 C 0.13954 0.5248 0.67767 0.0
C789 C 0.13654 0.52468 0.61762 0.0
H790 H 0.12983 0.51059 0.76351 0.0
H791 H 0.09636 0.51014 0.18252 0.0
H792 H 0.00176 0.7876 0.11041 0.0
H793 H 0.00851 0.81798 0.03296 0.0
H794 H 0.06216 0.84029 0.13665 0.0
H795 H 0.05524 0.81008 0.21498 0.0
H796 H 0.01368 0.87006 0.08401 0.0
H797 H 0.0985 0.8452 0.99075 0.0
H798 H 0.12199 0.81132 0.97226 0.0
H799 H 0.06085 0.77848 0.93832 0.0
H800 H 0.03712 0.81229 0.95559 0.0
H801 H 0.04479 0.96708 0.91943 0.0
H802 H 0.05362 0.93135 0.97966 0.0
H803 H 0.02753 0.89602 0.84433 0.0
H804 H 0.01883 0.93163 0.78346 0.0
H805 H 0.06399 0.87145 0.91074 0.0
H806 H 0.99088 0.91152 0.9379 0.0
H807 H 0.96607 0.94441 0.95676 0.0
H808 H 1.0002 0.94535 0.1213 0.0
H809 H 0.02542 0.91259 0.10301 0.0
C810 C 0.01536 0.79866 0.11608 0.0
C811 C 0.02801 0.79656 0.16849 0.0
C812 C 0.01922 0.81592 0.07185 0.0
C813 C 0.03611 0.83098 0.07893 0.0
C814 C 0.0493 0.82852 0.13033 0.0
C815 C 0.04524 0.81143 0.17498 0.0
C816 C 0.03777 0.85104 0.0363 0.0
C817 C 0.02477 0.87045 0.04631 0.0
C818 C 0.052 0.85127 0.98701 0.0
C819 C 0.06608 0.8311 0.97533 0.0
C820 C 0.09012 0.83074 0.97924 0.0
C821 C 0.10347 0.81158 0.96892 0.0
C822 C 0.09292 0.79272 0.9544 0.0
C823 C 0.069 0.79304 0.94987 0.0
C824 C 0.0556 0.81218 0.96004 0.0
C825 C 0.04158 0.95171 0.90168 0.0
C826 C 0.03058 0.9522 0.8473 0.0
C827 C 0.04666 0.9313 0.93615 0.0
C828 C 0.04078 0.91116 0.91678 0.0
C829 C 0.03209 0.91143 0.86008 0.0
C830 C 0.02698 0.93182 0.82555 0.0
C831 C 0.03993 0.89062 0.95861 0.0
C832 C 0.05303 0.87115 0.94864 0.0
C833 C 0.02541 0.89016 0.00768 0.0
C834 C 0.01019 0.90978 0.01881 0.0
C835 C 0.99321 0.91886 0.97787 0.0
C836 C 0.97906 0.93747 0.98849 0.0
C837 C 0.98161 0.94701 0.04013 0.0
C838 C 0.99828 0.93795 0.08129 0.0
C839 C 0.01249 0.91937 0.07084 0.0
H840 H 0.97065 0.96138 0.04844 0.0
H841 H 0.10327 0.77789 0.9465 0.0
H842 H 0.7254 0.93675 0.08822 0.0
H843 H 0.69324 0.9435 0.01858 0.0
H844 H 0.65265 0.97496 0.14488 0.0
H845 H 0.68473 0.96961 0.21314 0.0
H846 H 0.62821 0.94541 0.07672 0.0
H847 H 0.6799 0.00739 0.05686 0.0
H848 H 0.71817 0.02215 0.03995 0.0
H849 H 0.72134 0.99685 0.87407 0.0
H850 H 0.68322 0.9816 0.89054 0.0
H851 H 0.54224 0.01712 0.93489 0.0
H852 H 0.57646 0.00429 0.99381 0.0
H853 H 0.61209 0.98801 0.83976 0.0
H854 H 0.57813 1.00106 0.78044 0.0
H855 H 0.64045 0.00501 0.91322 0.0
H856 H 0.58792 0.94785 0.92195 0.0
H857 H 0.55068 0.93064 0.93505 0.0
H858 H 0.54982 0.94271 0.11435 0.0
H859 H 0.58684 0.96043 0.10207 0.0
C860 C 0.70961 0.94502 0.10133 0.0
C861 C 0.70782 0.95272 0.15639 0.0
C862 C 0.69121 0.94864 0.06169 0.0
C863 C 0.67068 0.95972 0.07685 0.0
C864 C 0.66832 0.96617 0.13276 0.0
C865 C 0.68674 0.96294 0.1719 0.0
C866 C 0.65251 0.96703 0.03299 0.0
C867 C 0.63077 0.95846 0.041 0.0
C868 C 0.65621 0.98356 0.98557 0.0
C869 C 0.67887 0.99315 0.97521 0.0
C870 C 0.68884 0.00484 0.01699 0.0
C871 C 0.71049 0.01331 0.00747 0.0
C872 C 0.72221 0.01039 0.95604 0.0
C873 C 0.71226 0.99906 0.91393 0.0
C874 C 0.69064 0.99051 0.92333 0.0
C875 C 0.55755 0.01137 0.91334 0.0
C876 C 0.55742 0.00983 0.8532 0.0
C877 C 0.57699 0.00385 0.9471 0.0
C878 C 0.59653 0.99469 0.9212 0.0
C879 C 0.59708 0.99481 0.86057 0.0
C880 C 0.57765 0.00227 0.82681 0.0
C881 C 0.61585 0.98387 0.95781 0.0
C882 C 0.63783 0.99175 0.94838 0.0
C883 C 0.61243 0.96636 0.00318 0.0
C884 C 0.59011 0.95568 0.01093 0.0
C885 C 0.57971 0.94704 0.96406 0.0
C886 C 0.55864 0.93716 0.97133 0.0
C887 C 0.54789 0.93561 0.02547 0.0
C888 C 0.55817 0.94394 0.07242 0.0
C889 C 0.5792 0.95391 0.06533 0.0
H890 H 0.53162 0.92789 0.03109 0.0
H891 H 0.73898 0.01694 0.94876 0.0
H892 H 0.5176 0.68006 0.16849 0.0
H893 H 0.5149 0.64885 0.11107 0.0
H894 H 0.45483 0.682 0.02213 0.0
H895 H 0.45735 0.71341 0.08029 0.0
H896 H 0.45007 0.63607 0.06245 0.0
H897 H 0.50251 0.68142 0.94957 0.0
H898 H 0.53636 0.70394 0.9333 0.0
H899 H 0.5806 0.64649 0.99651 0.0
H900 H 0.54698 0.62368 0.01391 0.0
H901 H 0.45513 0.55852 0.84715 0.0
H902 H 0.45081 0.59039 0.9034 0.0
H903 H 0.51577 0.57012 0.98961 0.0
H904 H 0.52044 0.53866 0.93262 0.0
H905 H 0.51537 0.61211 0.94299 0.0
H906 H 0.46375 0.56721 0.06181 0.0
H907 H 0.43035 0.54433 0.082 0.0
H908 H 0.38512 0.59997 0.01129 0.0
H909 H 0.4183 0.6231 0.98994 0.0
C910 C 0.50383 0.68072 0.13663 0.0
C911 C 0.48765 0.69908 0.1288 0.0
C912 C 0.50237 0.66295 0.10375 0.0
C913 C 0.48473 0.66321 0.06228 0.0
C914 C 0.46856 0.68156 0.05398 0.0
C915 C 0.47012 0.6995 0.08674 0.0
C916 C 0.48331 0.64402 0.02839 0.0
C917 C 0.46412 0.63099 0.03538 0.0
C918 C 0.5019 0.63725 0.99427 0.0
C919 C 0.52219 0.65088 0.98342 0.0
C920 C 0.51944 0.67362 0.96038 0.0
C921 C 0.53859 0.68643 0.95088 0.0
C922 C 0.56061 0.67666 0.96395 0.0
C923 C 0.56353 0.65404 0.98641 0.0
C924 C 0.54444 0.64115 0.99602 0.0
C925 C 0.46819 0.56055 0.87919 0.0
C926 C 0.48822 0.54623 0.88518 0.0
C927 C 0.4657 0.57877 0.91132 0.0
C928 C 0.48303 0.5827 0.95049 0.0
C929 C 0.50228 0.56751 0.95923 0.0
C930 C 0.50489 0.54949 0.92681 0.0
C931 C 0.48238 0.60367 0.97819 0.0
C932 C 0.50119 0.61717 0.9697 0.0
C933 C 0.4635 0.61073 0.01115 0.0
C934 C 0.44354 0.59681 0.02366 0.0
C935 C 0.44671 0.5745 0.05004 0.0
C936 C 0.42781 0.5615 0.06181 0.0
C937 C 0.40563 0.57067 0.04778 0.0
C938 C 0.40231 0.59288 0.02204 0.0
C939 C 0.42115 0.60594 0.01014 0.0
H940 H 0.39103 0.56058 0.05698 0.0
H941 H 0.57542 0.68661 0.95657 0.0
H942 H 0.79087 0.53376 0.13658 0.0
H943 H 0.82236 0.52149 0.0763 0.0
H944 H 0.86486 0.57035 0.13691 0.0
H945 H 0.83315 0.58328 0.19578 0.0
H946 H 0.87096 0.56771 0.02261 0.0
H947 H 0.86917 0.51618 0.19856 0.0
H948 H 0.85134 0.4897 0.27243 0.0
H949 H 0.83811 0.44682 0.14215 0.0
H950 H 0.85557 0.47324 0.06729 0.0
H951 H 0.97869 0.52699 0.95139 0.0
H952 H 0.94716 0.53373 0.01728 0.0
H953 H 0.90719 0.48711 0.9386 0.0
H954 H 0.93901 0.47999 0.87283 0.0
H955 H 0.89896 0.48765 0.05934 0.0
H956 H 0.90223 0.53941 0.88377 0.0
H957 H 0.9217 0.56554 0.81234 0.0
H958 H 0.93282 0.60832 0.94422 0.0
H959 H 0.91395 0.58212 0.01685 0.0
C960 C 0.80672 0.54229 0.13598 0.0
C961 C 0.80958 0.55943 0.17116 0.0
C962 C 0.82478 0.53506 0.10205 0.0
C963 C 0.84606 0.54471 0.1031 0.0
C964 C 0.84861 0.56257 0.13585 0.0
C965 C 0.83054 0.56986 0.16967 0.0
C966 C 0.86596 0.53565 0.07191 0.0
C967 C 0.87719 0.55027 0.03105 0.0
C968 C 0.87383 0.51277 0.08223 0.0
C969 C 0.86346 0.4968 0.12722 0.0
C970 C 0.8623 0.50119 0.18558 0.0
C971 C 0.85228 0.48618 0.22764 0.0
C972 C 0.84354 0.46662 0.21196 0.0
C973 C 0.84486 0.462 0.15421 0.0
C974 C 0.85482 0.47698 0.11196 0.0
C975 C 0.96346 0.51764 0.94935 0.0
C976 C 0.96108 0.50323 0.90656 0.0
C977 C 0.94547 0.52154 0.98691 0.0
C978 C 0.9247 0.51136 0.98159 0.0
C979 C 0.92309 0.49522 0.94296 0.0
C980 C 0.94126 0.49112 0.90559 0.0
C981 C 0.904 0.51977 0.01068 0.0
C982 C 0.89261 0.50506 0.05086 0.0
C983 C 0.89601 0.5426 0.99992 0.0
C984 C 0.90682 0.5587 0.95589 0.0
C985 C 0.90895 0.55431 0.89764 0.0
C986 C 0.9199 0.56913 0.85694 0.0
C987 C 0.92852 0.58856 0.87376 0.0
C988 C 0.92613 0.59325 0.93127 0.0
C989 C 0.91534 0.57841 0.97225 0.0
H990 H 0.93705 0.59999 0.84225 0.0
H991 H 0.8358 0.45502 0.24459 0.0
H992 H 0.03302 0.23822 0.18767 0.0
H993 H 0.04309 0.21354 0.11324 0.0
H994 H 0.97111 0.20541 0.08436 0.0
H995 H 0.96124 0.2304 0.1571 0.0
H996 H 0.03672 0.17174 0.12492 0.0
H997 H 0.95983 0.18678 0.95859 0.0
H998 H 0.93696 0.2187 0.90567 0.0
H999 H 0.99203 0.26167 0.92369 0.0
H1000 H 0.01538 0.22996 0.97597 0.0
H1001 H 0.01023 0.07144 0.02823 0.0
H1002 H 0.009 0.10788 0.06395 0.0
H1003 H 0.02861 0.13872 0.89442 0.0
H1004 H 0.0294 0.10196 0.85792 0.0
H1005 H 0.9973 0.16511 0.93781 0.0
H1006 H 0.06792 0.12922 0.00971 0.0
H1007 H 0.09348 0.09809 0.05678 0.0
H1008 H 0.05709 0.1 0.21747 0.0
H1009 H 0.0311 0.13097 0.17117 0.0
C1010 C 0.01942 0.23208 0.16308 0.0
C1011 C 0.99636 0.23651 0.17733 0.0
C1012 C 0.02514 0.21769 0.12114 0.0
C1013 C 0.0079 0.20748 0.09282 0.0
C1014 C 0.98481 0.21329 0.1043 0.0
C1015 C 0.97912 0.22768 0.14589 0.0
C1016 C 0.01375 0.18853 0.05807 0.0
C1017 C 0.02827 0.1705 0.08366 0.0
C1018 C 0.00321 0.18685 0.00349 0.0
C1019 C 0.98931 0.20598 0.97157 0.0
C1020 C 0.96713 0.203 0.95098 0.0
C1021 C 0.95406 0.22107 0.92116 0.0
C1022 C 0.96301 0.24221 0.91144 0.0
C1023 C 0.98508 0.24531 0.93141 0.0
C1024 C 0.99823 0.22729 0.96123 0.0
C1025 C 0.01451 0.08589 0.99855 0.0
C1026 C 0.02031 0.08368 0.9404 0.0
C1027 C 0.01379 0.1068 0.01908 0.0
C1028 C 0.01927 0.1261 0.98244 0.0
C1029 C 0.02447 0.12411 0.92379 0.0
C1030 C 0.02494 0.1031 0.90293 0.0
C1031 C 0.01943 0.14815 0.00607 0.0
C1032 C 0.00603 0.16663 0.97851 0.0
C1033 C 0.03147 0.15052 0.05813 0.0
C1034 C 0.04747 0.13234 0.08681 0.0
C1035 C 0.06532 0.12297 0.05504 0.0
C1036 C 0.07988 0.10535 0.08158 0.0
C1037 C 0.07686 0.09704 0.14 0.0
C1038 C 0.05939 0.10645 0.17218 0.0
C1039 C 0.04476 0.12407 0.14584 0.0
H1040 H 0.08804 0.08328 0.16025 0.0
H1041 H 0.95286 0.25617 0.88836 0.0
H1042 H 0.24851 0.07643 0.17031 0.0
H1043 H 0.27375 0.07184 0.08697 0.0
H1044 H 0.31257 0.01791 0.19108 0.0
H1045 H 0.287 0.02196 0.27265 0.0
H1046 H 0.31625 0.08 0.08126 0.0
H1047 H 0.34204 0.98369 0.11514 0.0
H1048 H 0.32316 0.94817 0.1385 0.0
H1049 H 0.25873 0.98046 0.07552 0.0
H1050 H 0.27726 0.0161 0.05096 0.0
H1051 H 0.43117 0.05733 0.01484 0.0
H1052 H 0.39318 0.05893 0.05846 0.0
H1053 H 0.36593 0.02662 0.91875 0.0
H1054 H 0.40396 0.02507 0.87458 0.0
H1055 H 0.34992 0.00879 0.02134 0.0
H1056 H 0.35322 0.08151 0.9217 0.0
H1057 H 0.37002 0.11743 0.88871 0.0
H1058 H 0.37124 0.13319 0.06496 0.0
H1059 H 0.35479 0.09716 0.09919 0.0
C1060 C 0.26186 0.06302 0.17426 0.0
C1061 C 0.26583 0.04951 0.2277 0.0
C1062 C 0.27644 0.06055 0.12695 0.0
C1063 C 0.29513 0.04447 0.13239 0.0
C1064 C 0.29811 0.03013 0.1849 0.0
C1065 C 0.28354 0.03251 0.23176 0.0
C1066 C 0.31317 0.04428 0.08673 0.0
C1067 C 0.32338 0.06443 0.0677 0.0
C1068 C 0.32227 0.02412 0.06743 0.0
C1069 C 0.31105 0.00263 0.08146 0.0
C1070 C 0.32387 0.98319 0.10589 0.0
C1071 C 0.31322 0.96304 0.11944 0.0
C1072 C 0.28975 0.96207 0.1086 0.0
C1073 C 0.27689 0.98125 0.08405 0.0
C1074 C 0.28746 0.00144 0.07038 0.0
C1075 C 0.41711 0.05073 0.99305 0.0
C1076 C 0.42072 0.04108 0.94116 0.0
C1077 C 0.39534 0.05164 0.01806 0.0
C1078 C 0.37659 0.04312 0.99159 0.0
C1079 C 0.38013 0.03326 0.94007 0.0
C1080 C 0.40195 0.0323 0.91502 0.0
C1081 C 0.35349 0.04428 0.0187 0.0
C1082 C 0.34244 0.02436 0.03415 0.0
C1083 C 0.34321 0.06472 0.03331 0.0
C1084 C 0.35287 0.08656 0.01305 0.0
C1085 C 0.3572 0.09257 0.95349 0.0
C1086 C 0.36665 0.11296 0.93456 0.0
C1087 C 0.37172 0.12758 0.97473 0.0
C1088 C 0.3673 0.12185 0.0339 0.0
C1089 C 0.35788 0.10145 0.05309 0.0
H1090 H 0.37905 0.14336 0.96 0.0
H1091 H 0.28154 0.94645 0.11916 0.0
H1092 H 0.54537 0.29171 0.17991 0.0
H1093 H 0.54156 0.3183 0.09078 0.0
H1094 H 0.46943 0.32986 0.12412 0.0
H1095 H 0.47328 0.30318 0.21325 0.0
H1096 H 0.48039 0.33391 0.00179 0.0
H1097 H 0.50423 0.36067 0.18093 0.0
H1098 H 0.52887 0.36057 0.2678 0.0
H1099 H 0.58763 0.37098 0.1589 0.0
H1100 H 0.56343 0.37073 0.07121 0.0
H1101 H 0.46426 0.44837 0.87016 0.0
H1102 H 0.46469 0.4124 0.93302 0.0
H1103 H 0.53866 0.40669 0.92516 0.0
H1104 H 0.53837 0.44267 0.8642 0.0
H1105 H 0.5262 0.39844 0.03241 0.0
H1106 H 0.50375 0.37277 0.85338 0.0
H1107 H 0.48024 0.37241 0.76456 0.0
H1108 H 0.42064 0.36001 0.86929 0.0
H1109 H 0.44375 0.36045 0.95872 0.0
C1110 C 0.52848 0.29898 0.16635 0.0
C1111 C 0.50954 0.29518 0.20271 0.0
C1112 C 0.52635 0.31436 0.11585 0.0
C1113 C 0.50528 0.32632 0.10136 0.0
C1114 C 0.48582 0.3208 0.1344 0.0
C1115 C 0.48797 0.30543 0.18503 0.0
C1116 C 0.5044 0.34681 0.05824 0.0
C1117 C 0.49027 0.3481 0.0085 0.0
C1118 C 0.51751 0.36523 0.06672 0.0
C1119 C 0.53206 0.3654 0.1195 0.0
C1120 C 0.52244 0.36269 0.17547 0.0
C1121 C 0.53633 0.36272 0.22486 0.0
C1122 C 0.55979 0.36569 0.21893 0.0
C1123 C 0.56945 0.36864 0.16348 0.0
C1124 C 0.55566 0.36855 0.11389 0.0
C1125 C 0.48058 0.43937 0.88172 0.0
C1126 C 0.50128 0.44852 0.86276 0.0
C1127 C 0.48081 0.41872 0.9173 0.0
C1128 C 0.50172 0.4067 0.93375 0.0
C1129 C 0.52231 0.41564 0.91351 0.0
C1130 C 0.52211 0.43628 0.87864 0.0
C1131 C 0.50247 0.38557 0.97495 0.0
C1132 C 0.51644 0.38423 0.02499 0.0
C1133 C 0.48938 0.36714 0.96631 0.0
C1134 C 0.47543 0.36688 0.91268 0.0
C1135 C 0.48559 0.37015 0.85742 0.0
C1136 C 0.47235 0.36989 0.80699 0.0
C1137 C 0.44895 0.36629 0.81129 0.0
C1138 C 0.43876 0.36284 0.86603 0.0
C1139 C 0.45192 0.36305 0.91661 0.0
H1140 H 0.43873 0.36611 0.77219 0.0
H1141 H 0.57046 0.36577 0.2573 0.0
H1142 H 0.22712 0.4937 0.10146 0.0
H1143 H 0.20147 0.49435 0.01711 0.0
H1144 H 0.17438 0.43245 0.09309 0.0
H1145 H 0.20007 0.43174 0.17729 0.0
H1146 H 0.17234 0.44007 0.96439 0.0
H1147 H 0.1501 0.47552 0.13714 0.0
H1148 H 0.1579 0.50026 0.21168 0.0
H1149 H 0.16391 0.5556 0.07775 0.0
H1150 H 0.15627 0.53114 0.00237 0.0
H1151 H 0.05395 0.45712 0.87386 0.0
H1152 H 0.09086 0.44782 0.92499 0.0
H1153 H 0.10934 0.5162 0.8817 0.0
H1154 H 0.07238 0.52567 0.83297 0.0
H1155 H 0.11757 0.50436 0.99007 0.0
H1156 H 0.1352 0.47031 0.8168 0.0
H1157 H 0.12923 0.44557 0.74115 0.0
H1158 H 0.13289 0.38817 0.8716 0.0
H1159 H 0.13867 0.41261 0.94806 0.0
C1160 C 0.21669 0.47957 0.09847 0.0
C1161 C 0.21545 0.46272 0.14581 0.0
C1162 C 0.20191 0.48003 0.05048 0.0
C1163 C 0.18574 0.46365 0.04946 0.0
C1164 C 0.18671 0.44523 0.093 0.0
C1165 C 0.20142 0.44481 0.14104 0.0
C1166 C 0.16499 0.46828 0.01164 0.0
C1167 C 0.16028 0.45406 0.96985 0.0
C1168 C 0.14933 0.48657 0.01882 0.0
C1169 C 0.15285 0.50149 0.06418 0.0
C1170 C 0.15317 0.49295 0.12362 0.0
C1171 C 0.15762 0.50689 0.16597 0.0
C1172 C 0.16163 0.52941 0.1494 0.0
C1173 C 0.16091 0.53812 0.09048 0.0
C1174 C 0.15648 0.52425 0.04794 0.0
C1175 C 0.06597 0.47009 0.87516 0.0
C1176 C 0.06013 0.49218 0.85013 0.0
C1177 C 0.08714 0.46474 0.90396 0.0
C1178 C 0.10303 0.48128 0.90705 0.0
C1179 C 0.09739 0.50316 0.88041 0.0
C1180 C 0.07618 0.50857 0.85261 0.0
C1181 C 0.12484 0.47644 0.94124 0.0
C1182 C 0.12964 0.49051 0.98343 0.0
C1183 C 0.14051 0.45807 0.934 0.0
C1184 C 0.13714 0.44332 0.88816 0.0
C1185 C 0.13455 0.45243 0.82935 0.0
C1186 C 0.13124 0.43847 0.78634 0.0
C1187 C 0.13059 0.41533 0.80159 0.0
C1188 C 0.13336 0.4061 0.85986 0.0
C1189 C 0.13669 0.42 0.90304 0.0
H1190 H 0.12801 0.40454 0.76824 0.0
H1191 H 0.16513 0.54016 0.18227 0.0
H1192 H 0.96898 0.77591 0.37128 0.0
H1193 H 0.9596 0.80158 0.44384 0.0
H1194 H 0.03144 0.81302 0.46108 0.0
H1195 H 0.04076 0.78729 0.38935 0.0
H1196 H 0.00969 0.81727 0.5632 0.0
H1197 H 0.99962 0.84469 0.35966 0.0
H1198 H 0.984 0.84452 0.26045 0.0
H1199 H 0.91544 0.85338 0.32443 0.0
H1200 H 0.93069 0.85318 0.42432 0.0
H1201 H 0.98462 0.94699 0.52173 0.0
H1202 H 0.98905 0.91079 0.48503 0.0
H1203 H 0.96859 0.87801 0.65184 0.0
H1204 H 0.96482 0.91453 0.68939 0.0
H1205 H 0.96138 0.88173 0.46552 0.0
H1206 H 0.99244 0.82373 0.67153 0.0
H1207 H 0.01275 0.82602 0.7643 0.0
H1208 H 0.04746 0.88274 0.68496 0.0
H1209 H 0.02761 0.88058 0.59156 0.0
C1210 C 0.9828 0.78308 0.39274 0.0
C1211 C 0.00558 0.77961 0.37493 0.0
C1212 C 0.97744 0.79791 0.43378 0.0
C1213 C 0.99479 0.80958 0.4572 0.0
C1214 C 0.01776 0.80428 0.44379 0.0
C1215 C 0.02309 0.78953 0.40283 0.0
C1216 C 0.98904 0.8297 0.48743 0.0
C1217 C 0.99887 0.83127 0.5423 0.0
C1218 C 0.97547 0.84827 0.45956 0.0
C1219 C 0.96626 0.84863 0.39952 0.0
C1220 C 0.98121 0.84644 0.35262 0.0
C1221 C 0.97243 0.84642 0.29628 0.0
C1222 C 0.94874 0.84888 0.28617 0.0
C1223 C 0.93379 0.85142 0.33237 0.0
C1224 C 0.94248 0.85135 0.38887 0.0
C1225 C 0.98091 0.93212 0.55058 0.0
C1226 C 0.97422 0.93367 0.60842 0.0
C1227 C 0.98348 0.91135 0.52953 0.0
C1228 C 0.97924 0.89149 0.56548 0.0
C1229 C 0.97234 0.89296 0.62331 0.0
C1230 C 0.97012 0.91383 0.64477 0.0
C1231 C 0.98211 0.86951 0.54148 0.0
C1232 C 0.97177 0.86761 0.48741 0.0
C1233 C 0.99586 0.851 0.5693 0.0
C1234 C 0.00831 0.85215 0.62481 0.0
C1235 C 0.00448 0.83663 0.67386 0.0
C1236 C 0.0159 0.83791 0.72654 0.0
C1237 C 0.03131 0.85458 0.73059 0.0
C1238 C 0.03545 0.8699 0.68184 0.0
C1239 C 0.02411 0.86866 0.62903 0.0
H1240 H 0.04007 0.85559 0.77147 0.0
H1241 H 0.94197 0.84888 0.2425 0.0
H1242 H 0.72729 0.9917 0.33409 0.0
H1243 H 0.70229 0.99344 0.41743 0.0
H1244 H 0.71852 0.92304 0.47222 0.0
H1245 H 0.74248 0.92117 0.38569 0.0
H1246 H 0.67633 0.92811 0.46679 0.0
H1247 H 0.72903 0.96823 0.56089 0.0
H1248 H 0.75731 0.99616 0.57323 0.0
H1249 H 0.70597 0.04949 0.52649 0.0
H1250 H 0.67744 0.02192 0.51299 0.0
H1251 H 0.58456 0.94554 0.67298 0.0
H1252 H 0.62465 0.93928 0.64206 0.0
H1253 H 0.61468 0.99478 0.50589 0.0
H1254 H 0.57475 1.00061 0.53553 0.0
H1255 H 0.65832 0.99209 0.57866 0.0
H1256 H 0.61006 0.94881 0.46358 0.0
H1257 H 0.58249 0.91979 0.45553 0.0
H1258 H 0.62848 0.87055 0.55299 0.0
H1259 H 0.65618 0.89941 0.56224 0.0
C1260 C 0.72643 0.9769 0.36563 0.0
C1261 C 0.73706 0.95641 0.35419 0.0
C1262 C 0.71206 0.97785 0.41356 0.0
C1263 C 0.70843 0.95839 0.45195 0.0
C1264 C 0.7209 0.9383 0.44342 0.0
C1265 C 0.7349 0.93727 0.39452 0.0
C1266 C 0.68891 0.95836 0.49373 0.0
C1267 C 0.67293 0.94179 0.49266 0.0
C1268 C 0.68402 0.9762 0.52755 0.0
C1269 C 0.70108 0.99294 0.53576 0.0
C1270 C 0.72378 0.98591 0.55289 0.0
C1271 C 0.73986 0.00169 0.56014 0.0
C1272 C 0.73344 0.02458 0.55062 0.0
C1273 C 0.71091 0.03174 0.53392 0.0
C1274 C 0.69476 0.01604 0.52659 0.0
C1275 C 0.59108 0.95635 0.63661 0.0
C1276 C 0.57659 0.97332 0.60604 0.0
C1277 C 0.61388 0.95284 0.61915 0.0
C1278 C 0.62258 0.96665 0.57186 0.0
C1279 C 0.6083 0.98403 0.54263 0.0
C1280 C 0.58547 0.98719 0.55916 0.0
C1281 C 0.64602 0.96233 0.54966 0.0
C1282 C 0.66246 0.97811 0.55428 0.0
C1283 C 0.65161 0.94358 0.52012 0.0
C1284 C 0.63501 0.92629 0.51428 0.0
C1285 C 0.61417 0.93184 0.48377 0.0
C1286 C 0.59855 0.91542 0.47888 0.0
C1287 C 0.60369 0.89335 0.50392 0.0
C1288 C 0.62449 0.88766 0.53374 0.0
C1289 C 0.64016 0.90403 0.53881 0.0
H1290 H 0.59158 0.88066 0.50008 0.0
H1291 H 0.74592 0.03677 0.55623 0.0
H1292 H 0.46008 0.71299 0.3377 0.0
H1293 H 0.46631 0.68752 0.4276 0.0
H1294 H 0.53888 0.69778 0.41964 0.0
H1295 H 0.53253 0.72302 0.32846 0.0
H1296 H 0.53238 0.65522 0.42506 0.0
H1297 H 0.5049 0.71203 0.53687 0.0
H1298 H 0.47914 0.74291 0.56429 0.0
H1299 H 0.42389 0.69874 0.58801 0.0
H1300 H 0.44921 0.66766 0.55992 0.0
H1301 H 0.54586 0.56953 0.67026 0.0
H1302 H 0.54653 0.60609 0.6106 0.0
H1303 H 0.47378 0.60537 0.57787 0.0
H1304 H 0.47293 0.56901 0.63719 0.0
H1305 H 0.48579 0.64633 0.60457 0.0
H1306 H 0.5118 0.59204 0.47706 0.0
H1307 H 0.53716 0.56128 0.44728 0.0
H1308 H 0.59526 0.60159 0.45258 0.0
H1309 H 0.57027 0.63248 0.48325 0.0
C1310 C 0.47716 0.71067 0.35685 0.0
C1311 C 0.49577 0.72021 0.32695 0.0
C1312 C 0.48077 0.69602 0.4082 0.0
C1313 C 0.50309 0.69069 0.43078 0.0
C1314 C 0.52151 0.70164 0.40323 0.0
C1315 C 0.51787 0.71629 0.35163 0.0
C1316 C 0.50735 0.67136 0.47712 0.0
C1317 C 0.52264 0.6536 0.46512 0.0
C1318 C 0.49429 0.66888 0.52883 0.0
C1319 C 0.47896 0.68752 0.54597 0.0
C1320 C 0.48722 0.70893 0.54754 0.0
C1321 C 0.47269 0.72647 0.56328 0.0
C1322 C 0.44989 0.72279 0.57782 0.0
C1323 C 0.44157 0.70156 0.57676 0.0
C1324 C 0.45601 0.68396 0.56103 0.0
C1325 C 0.53001 0.57715 0.65029 0.0
C1326 C 0.50937 0.56626 0.65828 0.0
C1327 C 0.53043 0.59805 0.61624 0.0
C1328 C 0.5102 0.60845 0.58966 0.0
C1329 C 0.48957 0.59772 0.59814 0.0
C1330 C 0.48916 0.57683 0.63181 0.0
C1331 C 0.51041 0.63024 0.55166 0.0
C1332 C 0.49591 0.64831 0.56518 0.0
C1333 C 0.5242 0.63305 0.50134 0.0
C1334 C 0.53923 0.61444 0.48323 0.0
C1335 C 0.53002 0.59426 0.47245 0.0
C1336 C 0.54432 0.57682 0.4553 0.0
C1337 C 0.56782 0.57945 0.44826 0.0
C1338 C 0.57706 0.59955 0.45822 0.0
C1339 C 0.56284 0.61703 0.47549 0.0
H1340 H 0.57886 0.56594 0.4349 0.0
H1341 H 0.43867 0.7364 0.58997 0.0
H1342 H 0.78634 0.53292 0.39675 0.0
H1343 H 0.81231 0.52989 0.48096 0.0
H1344 H 0.8217 0.60091 0.44837 0.0
H1345 H 0.79624 0.60366 0.3629 0.0
H1346 H 0.86105 0.57915 0.45001 0.0
H1347 H 0.79779 0.57579 0.57872 0.0
H1348 H 0.76106 0.56339 0.61965 0.0
H1349 H 0.79069 0.49618 0.65862 0.0
H1350 H 0.82753 0.5081 0.61715 0.0
H1351 H 0.94518 0.56763 0.67876 0.0
H1352 H 0.90913 0.57911 0.62579 0.0
H1353 H 0.89624 0.50974 0.6178 0.0
H1354 H 0.93219 0.49812 0.67036 0.0
H1355 H 0.85699 0.53544 0.64566 0.0
H1356 H 0.91788 0.53856 0.50341 0.0
H1357 H 0.95451 0.551 0.46178 0.0
H1358 H 0.92831 0.61963 0.44899 0.0
H1359 H 0.89161 0.60759 0.49135 0.0
C1360 C 0.79309 0.54802 0.40945 0.0
C1361 C 0.78908 0.56858 0.37426 0.0
C1362 C 0.80802 0.54631 0.45748 0.0
C1363 C 0.81901 0.56519 0.47129 0.0
C1364 C 0.81346 0.58611 0.43869 0.0
C1365 C 0.79871 0.58776 0.39034 0.0
C1366 C 0.83871 0.56241 0.51324 0.0
C1367 C 0.85992 0.57011 0.49341 0.0
C1368 C 0.83754 0.55012 0.56937 0.0
C1369 C 0.81541 0.54284 0.59444 0.0
C1370 C 0.79644 0.55833 0.5956 0.0
C1371 C 0.7756 0.55139 0.61899 0.0
C1372 C 0.77353 0.529 0.64163 0.0
C1373 C 0.79232 0.51352 0.64105 0.0
C1374 C 0.8132 0.52037 0.61769 0.0
C1375 C 0.93465 0.55482 0.66584 0.0
C1376 C 0.94169 0.53196 0.67828 0.0
C1377 C 0.91404 0.56141 0.63568 0.0
C1378 C 0.90005 0.54527 0.61772 0.0
C1379 C 0.90674 0.52246 0.63144 0.0
C1380 C 0.92739 0.51586 0.66112 0.0
C1381 C 0.87906 0.55203 0.58191 0.0
C1382 C 0.85779 0.54494 0.60276 0.0
C1383 C 0.88008 0.56495 0.52674 0.0
C1384 C 0.90212 0.5722 0.50123 0.0
C1385 C 0.92001 0.55631 0.49222 0.0
C1386 C 0.94077 0.56329 0.4684 0.0
C1387 C 0.94377 0.58609 0.45294 0.0
C1388 C 0.92598 0.60197 0.46112 0.0
C1389 C 0.9052 0.59508 0.48501 0.0
H1390 H 0.95984 0.59146 0.43447 0.0
H1391 H 0.75738 0.52366 0.65972 0.0
loop_
_geom_bond_atom_site_label_1
_geom_bond_atom_site_label_2
_geom_bond_distance
_geom_bond_site_symmetry_2
_ccdc_geom_bond_type
H0 C3 0.931 . S
H1 C6 0.928 . S
H2 C8 0.930 . S
C3 H0 0.931 . S
C3 C4 1.413 . S
C3 C5 1.360 . S
C4 C3 1.413 . S
C4 C8 1.429 . S
C5 C3 1.360 . S
C5 C6 1.372 . S
C6 H1 0.928 . S
C6 C5 1.372 . S
C6 C7 1.404 . S
C7 C6 1.404 . S
C7 C8 1.391 . S
C8 H2 0.930 . S
C8 C4 1.429 . S
C8 C7 1.391 . S
H9 C12 0.931 . S
H10 C15 0.928 . S
H11 C17 0.931 . S
C12 H9 0.931 . S
C12 C13 1.414 . S
C12 C14 1.360 . S
C13 C12 1.414 . S
C13 C17 1.430 1_655 S
C14 C12 1.360 . S
C14 C15 1.374 . S
C15 H10 0.928 . S
C15 C14 1.374 . S
C15 C16 1.404 . S
C16 C15 1.404 . S
C16 C17 1.390 1_655 S
C17 H11 0.931 . S
C17 C13 1.430 1_455 S
C17 C16 1.390 1_455 S
H18 C21 0.931 . S
H19 C24 0.928 . S
H20 C26 0.930 . S
C21 H18 0.931 . S
C21 C22 1.413 . S
C21 C23 1.360 . S
C22 C21 1.413 . S
C22 C26 1.429 . S
C23 C21 1.360 . S
C23 C24 1.372 . S
C24 H19 0.928 . S
C24 C23 1.372 . S
C24 C25 1.404 . S
C25 C24 1.404 . S
C25 C26 1.391 . S
C26 H20 0.930 . S
C26 C22 1.429 . S
C26 C25 1.391 . S
H27 C30 0.931 . S
H28 C33 0.928 . S
H29 C35 0.930 . S
C30 H27 0.931 . S
C30 C31 1.413 . S
C30 C32 1.360 . S
C31 C30 1.413 . S
C31 C35 1.429 . S
C32 C30 1.360 . S
C32 C33 1.372 . S
C33 H28 0.928 . S
C33 C32 1.372 . S
C33 C34 1.404 . S
C34 C33 1.404 . S
C34 C35 1.391 . S
C35 H29 0.930 . S
C35 C31 1.429 . S
C35 C34 1.391 . S
H36 C39 0.931 . S
H37 C42 0.928 . S
H38 C44 0.930 . S
C39 H36 0.931 . S
C39 C40 1.413 . S
C39 C41 1.360 . S
C40 C39 1.413 . S
C40 C44 1.429 . S
C41 C39 1.360 . S
C41 C42 1.372 . S
C42 H37 0.928 . S
C42 C41 1.372 . S
C42 C43 1.404 . S
C43 C42 1.404 . S
C43 C44 1.391 . S
C44 H38 0.930 . S
C44 C40 1.429 . S
C44 C43 1.391 . S
H45 C48 0.930 . S
H46 C51 0.928 . S
H47 C53 0.929 . S
C48 H45 0.930 . S
C48 C49 1.413 . S
C48 C50 1.360 . S
C49 C48 1.413 . S
C49 C53 1.429 1_655 S
C50 C48 1.360 . S
C50 C51 1.371 . S
C51 H46 0.928 . S
C51 C50 1.371 . S
C51 C52 1.404 . S
C52 C51 1.404 . S
C52 C53 1.391 1_655 S
C53 H47 0.929 . S
C53 C49 1.429 1_455 S
C53 C52 1.391 1_455 S
H54 C57 0.931 . S
H55 C60 0.928 . S
H56 C62 0.930 . S
C57 H54 0.931 . S
C57 C58 1.413 . S
C57 C59 1.360 . S
C58 C57 1.413 . S
C58 C62 1.429 . S
C59 C57 1.360 . S
C59 C60 1.372 . S
C60 H55 0.928 . S
C60 C59 1.372 . S
C60 C61 1.404 . S
C61 C60 1.404 . S
C61 C62 1.391 . S
C62 H56 0.930 . S
C62 C58 1.429 . S
C62 C61 1.391 . S
H63 C66 0.931 . S
H64 C69 0.928 . S
H65 C71 0.930 . S
C66 H63 0.931 . S
C66 C67 1.413 . S
C66 C68 1.360 . S
C67 C66 1.413 . S
C67 C71 1.429 . S
C68 C66 1.360 . S
C68 C69 1.372 . S
C69 H64 0.928 . S
C69 C68 1.372 . S
C69 C70 1.404 . S
C70 C69 1.404 . S
C70 C71 1.391 . S
C71 H65 0.930 . S
C71 C67 1.429 . S
C71 C70 1.391 . S
Co72 N77 2.057 . S
Co72 O89 2.021 . S
Co72 O92 2.062 1_455 S
Co72 O96 2.117 1_455 S
Co72 O97 2.020 1_545 S
C73 O93 1.259 1_545 S
C73 O96 1.258 . S
Co74 N83 2.057 . S
Co74 O90 2.117 1_665 S
Co74 O91 2.020 1_565 S
Co74 O93 2.021 . S
Co74 O98 2.062 1_655 S
C75 N77 1.316 . S
C75 N78 1.347 . S
C75 H80 0.931 . S
C76 N77 1.375 1_655 S
C76 C79 1.350 . S
C76 H81 0.930 . S
N77 Co72 2.057 . S
N77 C75 1.316 . S
N77 C76 1.375 1_455 S
N78 C75 1.347 . S
N78 C79 1.373 1_455 S
C79 C76 1.350 . S
C79 N78 1.373 1_655 S
C79 H100 0.931 . S
H80 C75 0.931 . S
H81 C76 0.930 . S
C82 O89 1.259 . S
C82 O90 1.258 . S
N83 Co74 2.057 . S
N83 C84 1.316 . S
N83 C85 1.375 1_655 S
C84 N83 1.316 . S
C84 N86 1.347 . S
C84 H95 0.931 . S
C85 N83 1.375 1_455 S
C85 C87 1.350 . S
C85 H94 0.930 . S
N86 C84 1.347 . S
N86 C87 1.373 1_655 S
C87 C85 1.350 . S
C87 N86 1.373 1_455 S
C87 H101 0.931 . S
C88 O91 1.256 . S
C88 O92 1.255 . S
O89 Co72 2.021 . S
O89 C82 1.259 . S
O90 Co74 2.117 1_445 S
O90 C82 1.258 . S
O91 Co74 2.020 1_545 S
O91 C88 1.256 . S
O92 Co72 2.062 1_655 S
O92 C88 1.255 . S
O93 C73 1.259 1_565 S
O93 Co74 2.021 . S
H94 C85 0.930 . S
H95 C84 0.931 . S
O96 Co72 2.117 1_655 S
O96 C73 1.258 . S
O97 Co72 2.020 1_565 S
O97 C99 1.256 . S
O98 Co74 2.062 1_455 S
O98 C99 1.255 . S
C99 O97 1.256 . S
C99 O98 1.255 . S
H100 C79 0.931 . S
H101 C87 0.931 . S
Co102 N107 2.057 . S
Co102 O119 2.021 . S
Co102 O122 2.062 . S
Co102 O126 2.117 1_545 S
Co102 O127 2.020 . S
C103 O123 1.259 . S
C103 O126 1.258 . S
Co104 N113 2.054 1_545 S
Co104 O120 2.137 . S
Co104 O121 2.022 . S
Co104 O123 2.002 1_545 S
Co104 O128 2.062 1_545 S
C105 N107 1.316 . S
C105 N108 1.347 . S
C105 H110 0.931 . S
C106 N107 1.375 . S
C106 C109 1.350 . S
C106 H111 0.930 1_545 S
N107 Co102 2.057 . S
N107 C105 1.316 . S
N107 C106 1.375 . S
N108 C105 1.347 . S
N108 C109 1.373 . S
C109 C106 1.350 . S
C109 N108 1.373 . S
C109 H130 0.931 . S
H110 C105 0.931 . S
H111 C106 0.930 1_565 S
C112 O119 1.259 . S
C112 O120 1.258 . S
N113 Co104 2.054 1_565 S
N113 C114 1.316 . S
N113 C115 1.375 1_565 S
C114 N113 1.316 . S
C114 N116 1.347 . S
C114 H125 0.931 . S
C115 N113 1.375 1_545 S
C115 C117 1.350 . S
C115 H124 0.930 . S
N116 C114 1.347 . S
N116 C117 1.373 1_565 S
C117 C115 1.350 . S
C117 N116 1.373 1_545 S
C117 H131 0.931 . S
C118 O121 1.256 . S
C118 O122 1.255 . S
O119 Co102 2.021 . S
O119 C112 1.259 . S
O120 Co104 2.137 . S
O120 C112 1.258 . S
O121 Co104 2.022 . S
O121 C118 1.256 . S
O122 Co102 2.062 . S
O122 C118 1.255 . S
O123 C103 1.259 . S
O123 Co104 2.002 1_565 S
H124 C115 0.930 . S
H125 C114 0.931 . S
O126 Co102 2.117 1_565 S
O126 C103 1.258 . S
O127 Co102 2.020 . S
O127 C129 1.256 . S
O128 Co104 2.062 1_565 S
O128 C129 1.255 1_565 S
C129 O127 1.256 . S
C129 O128 1.255 1_545 S
H130 C109 0.931 . S
H131 C117 0.931 . S
Co132 N137 2.057 . S
Co132 O149 2.021 . S
Co132 O152 2.062 . S
Co132 O156 2.117 . S
Co132 O157 2.020 . S
C133 O153 1.259 . S
C133 O156 1.258 . S
Co134 N143 2.057 . S
Co134 O150 2.117 . S
Co134 O151 2.020 . S
Co134 O153 2.021 . S
Co134 O158 2.062 . S
C135 N137 1.316 . S
C135 N138 1.347 . S
C135 H140 0.931 . S
C136 N137 1.375 . S
C136 C139 1.350 . S
C136 H141 0.930 . S
N137 Co132 2.057 . S
N137 C135 1.316 . S
N137 C136 1.375 . S
N138 C135 1.347 . S
N138 C139 1.373 . S
C139 C136 1.350 . S
C139 N138 1.373 . S
C139 H160 0.931 . S
H140 C135 0.931 . S
H141 C136 0.930 . S
C142 O149 1.259 . S
C142 O150 1.258 . S
N143 Co134 2.057 . S
N143 C144 1.316 . S
N143 C145 1.375 . S
C144 N143 1.316 . S
C144 N146 1.347 . S
C144 H155 0.931 . S
C145 N143 1.375 . S
C145 C147 1.350 . S
C145 H154 0.930 . S
N146 C144 1.347 . S
N146 C147 1.373 . S
C147 C145 1.350 . S
C147 N146 1.373 . S
C147 H161 0.931 . S
C148 O151 1.256 . S
C148 O152 1.255 . S
O149 Co132 2.021 . S
O149 C142 1.259 . S
O150 Co134 2.117 . S
O150 C142 1.258 . S
O151 Co134 2.020 . S
O151 C148 1.256 . S
O152 Co132 2.062 . S
O152 C148 1.255 . S
O153 C133 1.259 . S
O153 Co134 2.021 . S
H154 C145 0.930 . S
H155 C144 0.931 . S
O156 Co132 2.117 . S
O156 C133 1.258 . S
O157 Co132 2.020 . S
O157 C159 1.256 . S
O158 Co134 2.062 . S
O158 C159 1.255 . S
C159 O157 1.256 . S
C159 O158 1.255 . S
H160 C139 0.931 . S
H161 C147 0.931 . S
Co162 N167 2.057 . S
Co162 O179 2.021 1_455 S
Co162 O182 2.062 1_455 S
Co162 O186 2.117 . S
Co162 O187 2.020 . S
C163 O183 1.259 . S
C163 O186 1.258 . S
Co164 N173 2.057 . S
Co164 O180 2.117 . S
Co164 O181 2.020 . S
Co164 O183 2.021 1_655 S
Co164 O188 2.062 1_655 S
C165 N167 1.316 . S
C165 N168 1.347 . S
C165 H170 0.931 1_455 S
C166 N167 1.375 . S
C166 C169 1.350 . S
C166 H171 0.930 . S
N167 Co162 2.057 . S
N167 C165 1.316 . S
N167 C166 1.375 . S
N168 C165 1.347 . S
N168 C169 1.373 . S
C169 C166 1.350 . S
C169 N168 1.373 . S
C169 H190 0.931 . S
H170 C165 0.931 1_655 S
H171 C166 0.930 . S
C172 O179 1.259 . S
C172 O180 1.258 . S
N173 Co164 2.057 . S
N173 C174 1.316 . S
N173 C175 1.375 . S
C174 N173 1.316 . S
C174 N176 1.347 . S
C174 H185 0.931 1_655 S
C175 N173 1.375 . S
C175 C177 1.350 . S
C175 H184 0.930 . S
N176 C174 1.347 . S
N176 C177 1.373 . S
C177 C175 1.350 . S
C177 N176 1.373 . S
C177 H191 0.931 . S
C178 O181 1.256 . S
C178 O182 1.255 . S
O179 Co162 2.021 1_655 S
O179 C172 1.259 . S
O180 Co164 2.117 . S
O180 C172 1.258 . S
O181 Co164 2.020 . S
O181 C178 1.256 . S
O182 Co162 2.062 1_655 S
O182 C178 1.255 . S
O183 C163 1.259 . S
O183 Co164 2.021 1_455 S
H184 C175 0.930 . S
H185 C174 0.931 1_455 S
O186 Co162 2.117 . S
O186 C163 1.258 . S
O187 Co162 2.020 . S
O187 C189 1.256 . S
O188 Co164 2.062 1_455 S
O188 C189 1.255 . S
C189 O187 1.256 . S
C189 O188 1.255 . S
H190 C169 0.931 . S
H191 C177 0.931 . S
H192 C210 0.951 . S
H193 C212 0.951 . S
H194 C214 0.950 . S
H195 C215 0.950 . S
H196 C217 0.950 . S
H197 C220 0.950 . S
H198 C221 0.950 . S
H199 C223 0.950 . S
H200 C224 0.950 . S
H201 C225 0.951 . S
H202 C227 0.951 . S
H203 C229 0.950 . S
H204 C230 0.950 . S
H205 C232 0.950 . S
H206 C235 0.950 1_565 S
H207 C236 0.950 . S
H208 C238 0.950 . S
H209 C239 0.950 . S
C210 H192 0.951 . S
C210 C211 1.366 . S
C210 C212 1.388 . S
C211 C210 1.366 . S
C211 C215 1.385 . S
C212 H193 0.951 . S
C212 C210 1.388 . S
C212 C213 1.366 . S
C213 C212 1.366 . S
C213 C214 1.414 . S
C213 C216 1.499 . S
C214 H194 0.950 . S
C214 C213 1.414 . S
C214 C215 1.374 . S
C215 H195 0.950 . S
C215 C211 1.385 . S
C215 C214 1.374 . S
C216 C213 1.499 . S
C216 C217 1.373 . S
C216 C218 1.389 . S
C217 H196 0.950 . S
C217 C216 1.373 . S
C217 C233 1.377 . S
C218 C216 1.389 . S
C218 C219 1.524 . S
C218 C232 1.377 . S
C219 C218 1.524 . S
C219 C220 1.397 . S
C219 C224 1.363 . S
C220 H197 0.950 . S
C220 C219 1.397 . S
C220 C221 1.334 . S
C221 H198 0.950 . S
C221 C220 1.334 . S
C221 C222 1.287 . S
C222 C221 1.287 . S
C222 C223 1.524 . S
C222 H241 0.913 . S
C223 H199 0.950 . S
C223 C222 1.524 . S
C223 C224 1.415 . S
C224 H200 0.950 . S
C224 C219 1.363 . S
C224 C223 1.415 . S
C225 H201 0.951 . S
C225 C226 1.366 . S
C225 C227 1.388 . S
C226 C225 1.366 . S
C226 C230 1.385 . S
C227 H202 0.951 . S
C227 C225 1.388 . S
C227 C228 1.366 . S
C228 C227 1.366 . S
C228 C229 1.414 . S
C228 C231 1.499 . S
C229 H203 0.950 . S
C229 C228 1.414 . S
C229 C230 1.374 . S
C230 H204 0.950 . S
C230 C226 1.385 . S
C230 C229 1.374 . S
C231 C228 1.499 . S
C231 C232 1.373 . S
C231 C233 1.389 . S
C232 H205 0.950 . S
C232 C218 1.377 . S
C232 C231 1.373 . S
C233 C217 1.377 . S
C233 C231 1.389 . S
C233 C234 1.524 . S
C234 C233 1.524 . S
C234 C235 1.397 . S
C234 C239 1.363 . S
C235 H206 0.950 1_545 S
C235 C234 1.397 . S
C235 C236 1.334 1_545 S
C236 H207 0.950 . S
C236 C235 1.334 1_565 S
C236 C237 1.287 . S
C237 C236 1.287 . S
C237 C238 1.524 1_565 S
C237 H240 0.999 . S
C238 H208 0.950 . S
C238 C237 1.524 1_545 S
C238 C239 1.415 . S
C239 H209 0.950 . S
C239 C234 1.363 . S
C239 C238 1.415 . S
H240 C237 0.999 . S
H241 C222 0.913 . S
H242 C260 0.951 . S
H243 C262 0.951 . S
H244 C264 0.950 . S
H245 C265 0.950 . S
H246 C267 0.950 . S
H247 C270 0.950 . S
H248 C271 0.950 . S
H249 C273 0.950 . S
H250 C274 0.950 . S
H251 C275 0.951 . S
H252 C277 0.951 . S
H253 C279 0.950 . S
H254 C280 0.950 . S
H255 C282 0.950 . S
H256 C285 0.950 . S
H257 C286 0.950 . S
H258 C288 0.950 . S
H259 C289 0.950 . S
C260 H242 0.951 . S
C260 C261 1.366 . S
C260 C262 1.388 . S
C261 C260 1.366 . S
C261 C265 1.385 . S
C262 H243 0.951 . S
C262 C260 1.388 . S
C262 C263 1.366 . S
C263 C262 1.366 . S
C263 C264 1.414 . S
C263 C266 1.499 . S
C264 H244 0.950 . S
C264 C263 1.414 . S
C264 C265 1.374 . S
C265 H245 0.950 . S
C265 C261 1.385 . S
C265 C264 1.374 . S
C266 C263 1.499 . S
C266 C267 1.373 . S
C266 C268 1.389 . S
C267 H246 0.950 . S
C267 C266 1.373 . S
C267 C283 1.377 . S
C268 C266 1.389 . S
C268 C269 1.524 . S
C268 C282 1.377 . S
C269 C268 1.524 . S
C269 C270 1.397 . S
C269 C274 1.363 . S
C270 H247 0.950 . S
C270 C269 1.397 . S
C270 C271 1.334 . S
C271 H248 0.950 . S
C271 C270 1.334 . S
C271 C272 1.287 . S
C272 C271 1.287 . S
C272 C273 1.524 . S
C272 H291 0.913 . S
C273 H249 0.950 . S
C273 C272 1.524 . S
C273 C274 1.415 . S
C274 H250 0.950 . S
C274 C269 1.363 . S
C274 C273 1.415 . S
C275 H251 0.951 . S
C275 C276 1.366 . S
C275 C277 1.388 . S
C276 C275 1.366 . S
C276 C280 1.385 . S
C277 H252 0.951 . S
C277 C275 1.388 . S
C277 C278 1.366 . S
C278 C277 1.366 . S
C278 C279 1.414 . S
C278 C281 1.499 . S
C279 H253 0.950 . S
C279 C278 1.414 . S
C279 C280 1.374 . S
C280 H254 0.950 . S
C280 C276 1.385 . S
C280 C279 1.374 . S
C281 C278 1.499 . S
C281 C282 1.373 . S
C281 C283 1.389 . S
C282 H255 0.950 . S
C282 C268 1.377 . S
C282 C281 1.373 . S
C283 C267 1.377 . S
C283 C281 1.389 . S
C283 C284 1.524 . S
C284 C283 1.524 . S
C284 C285 1.397 . S
C284 C289 1.363 . S
C285 H256 0.950 . S
C285 C284 1.397 . S
C285 C286 1.334 . S
C286 H257 0.950 . S
C286 C285 1.334 . S
C286 C287 1.287 . S
C287 C286 1.287 . S
C287 C288 1.524 . S
C287 H290 0.999 . S
C288 H258 0.950 . S
C288 C287 1.524 . S
C288 C289 1.415 . S
C289 H259 0.950 . S
C289 C284 1.363 . S
C289 C288 1.415 . S
H290 C287 0.999 . S
H291 C272 0.913 . S
H292 C310 0.951 . S
H293 C312 0.951 . S
H294 C314 0.950 . S
H295 C315 0.950 . S
H296 C317 0.950 . S
H297 C320 0.950 . S
H298 C321 0.950 . S
H299 C323 0.950 . S
H300 C324 0.950 . S
H301 C325 0.951 . S
H302 C327 0.951 . S
H303 C329 0.950 . S
H304 C330 0.950 . S
H305 C332 0.950 . S
H306 C335 0.950 . S
H307 C336 0.950 . S
H308 C338 0.950 . S
H309 C339 0.950 . S
C310 H292 0.951 . S
C310 C311 1.366 . S
C310 C312 1.388 . S
C311 C310 1.366 . S
C311 C315 1.385 . S
C312 H293 0.951 . S
C312 C310 1.388 . S
C312 C313 1.366 . S
C313 C312 1.366 . S
C313 C314 1.414 . S
C313 C316 1.499 . S
C314 H294 0.950 . S
C314 C313 1.414 . S
C314 C315 1.374 . S
C315 H295 0.950 . S
C315 C311 1.385 . S
C315 C314 1.374 . S
C316 C313 1.499 . S
C316 C317 1.373 . S
C316 C318 1.389 . S
C317 H296 0.950 . S
C317 C316 1.373 . S
C317 C333 1.377 . S
C318 C316 1.389 . S
C318 C319 1.524 . S
C318 C332 1.377 . S
C319 C318 1.524 . S
C319 C320 1.397 . S
C319 C324 1.363 . S
C320 H297 0.950 . S
C320 C319 1.397 . S
C320 C321 1.334 . S
C321 H298 0.950 . S
C321 C320 1.334 . S
C321 C322 1.287 . S
C322 C321 1.287 . S
C322 C323 1.524 . S
C322 H341 0.913 . S
C323 H299 0.950 . S
C323 C322 1.524 . S
C323 C324 1.415 . S
C324 H300 0.950 . S
C324 C319 1.363 . S
C324 C323 1.415 . S
C325 H301 0.951 . S
C325 C326 1.366 . S
C325 C327 1.388 . S
C326 C325 1.366 . S
C326 C330 1.385 . S
C327 H302 0.951 . S
C327 C325 1.388 . S
C327 C328 1.366 . S
C328 C327 1.366 . S
C328 C329 1.414 . S
C328 C331 1.499 . S
C329 H303 0.950 . S
C329 C328 1.414 . S
C329 C330 1.374 . S
C330 H304 0.950 . S
C330 C326 1.385 . S
C330 C329 1.374 . S
C331 C328 1.499 . S
C331 C332 1.373 . S
C331 C333 1.389 . S
C332 H305 0.950 . S
C332 C318 1.377 . S
C332 C331 1.373 . S
C333 C317 1.377 . S
C333 C331 1.389 . S
C333 C334 1.524 . S
C334 C333 1.524 . S
C334 C335 1.397 . S
C334 C339 1.363 . S
C335 H306 0.950 . S
C335 C334 1.397 . S
C335 C336 1.334 . S
C336 H307 0.950 . S
C336 C335 1.334 . S
C336 C337 1.287 . S
C337 C336 1.287 . S
C337 C338 1.524 . S
C337 H340 0.999 . S
C338 H308 0.950 . S
C338 C337 1.524 . S
C338 C339 1.415 . S
C339 H309 0.950 . S
C339 C334 1.363 . S
C339 C338 1.415 . S
H340 C337 0.999 . S
H341 C322 0.913 . S
H342 C360 0.951 . S
H343 C362 0.951 . S
H344 C364 0.950 . S
H345 C365 0.950 . S
H346 C367 0.950 . S
H347 C370 0.950 . S
H348 C371 0.950 . S
H349 C373 0.950 . S
H350 C374 0.950 . S
H351 C375 0.951 1_455 S
H352 C377 0.951 1_455 S
H353 C379 0.950 . S
H354 C380 0.950 . S
H355 C382 0.950 . S
H356 C385 0.950 . S
H357 C386 0.950 . S
H358 C388 0.950 . S
H359 C389 0.950 . S
C360 H342 0.951 . S
C360 C361 1.372 . S
C360 C362 1.388 . S
C361 C360 1.372 . S
C361 C365 1.379 1_655 S
C362 H343 0.951 . S
C362 C360 1.388 . S
C362 C363 1.366 . S
C363 C362 1.366 . S
C363 C364 1.414 1_655 S
C363 C366 1.499 . S
C364 H344 0.950 . S
C364 C363 1.414 1_455 S
C364 C365 1.374 . S
C365 H345 0.950 . S
C365 C361 1.379 1_455 S
C365 C364 1.374 . S
C366 C363 1.499 . S
C366 C367 1.373 1_655 S
C366 C368 1.389 . S
C367 H346 0.950 . S
C367 C366 1.373 1_455 S
C367 C383 1.377 . S
C368 C366 1.389 . S
C368 C369 1.524 . S
C368 C382 1.377 . S
C369 C368 1.524 . S
C369 C370 1.397 . S
C369 C374 1.363 . S
C370 H347 0.950 . S
C370 C369 1.397 . S
C370 C371 1.334 . S
C371 H348 0.950 . S
C371 C370 1.334 . S
C371 C372 1.287 . S
C372 C371 1.287 . S
C372 C373 1.524 . S
C372 H391 0.913 . S
C373 H349 0.950 . S
C373 C372 1.524 . S
C373 C374 1.415 . S
C374 H350 0.950 . S
C374 C369 1.363 . S
C374 C373 1.415 . S
C375 H351 0.951 1_655 S
C375 C376 1.366 . S
C375 C377 1.388 . S
C376 C375 1.366 . S
C376 C380 1.385 . S
C377 H352 0.951 1_655 S
C377 C375 1.388 . S
C377 C378 1.366 . S
C378 C377 1.366 . S
C378 C379 1.414 . S
C378 C381 1.499 . S
C379 H353 0.950 . S
C379 C378 1.414 . S
C379 C380 1.374 . S
C380 H354 0.950 . S
C380 C376 1.385 . S
C380 C379 1.374 . S
C381 C378 1.499 . S
C381 C382 1.373 . S
C381 C383 1.389 1_655 S
C382 H355 0.950 . S
C382 C368 1.377 . S
C382 C381 1.373 . S
C383 C367 1.377 . S
C383 C381 1.389 1_455 S
C383 C384 1.524 . S
C384 C383 1.524 . S
C384 C385 1.397 . S
C384 C389 1.363 . S
C385 H356 0.950 . S
C385 C384 1.397 . S
C385 C386 1.334 . S
C386 H357 0.950 . S
C386 C385 1.334 . S
C386 C387 1.287 . S
C387 C386 1.287 . S
C387 C388 1.524 . S
C387 H390 0.999 . S
C388 H358 0.950 . S
C388 C387 1.524 . S
C388 C389 1.415 . S
C389 H359 0.950 . S
C389 C384 1.363 . S
C389 C388 1.415 . S
H390 C387 0.999 . S
H391 C372 0.913 . S
H392 C410 0.951 1_556 S
H393 C412 0.951 . S
H394 C414 0.950 . S
H395 C415 0.950 . S
H396 C417 0.950 1_554 S
H397 C420 0.950 . S
H398 C421 0.950 . S
H399 C423 0.950 . S
H400 C424 0.950 . S
H401 C425 0.951 . S
H402 C427 0.951 . S
H403 C429 0.950 . S
H404 C430 0.950 . S
H405 C432 0.950 . S
H406 C435 0.950 . S
H407 C436 0.950 . S
H408 C438 0.950 . S
H409 C439 0.950 . S
C410 H392 0.951 1_554 S
C410 C411 1.366 . S
C410 C412 1.388 1_554 S
C411 C410 1.366 . S
C411 C415 1.385 . S
C412 H393 0.951 . S
C412 C410 1.388 1_556 S
C412 C413 1.361 1_556 S
C413 C412 1.361 1_554 S
C413 C414 1.423 . S
C413 C416 1.494 1_554 S
C414 H394 0.950 . S
C414 C413 1.423 . S
C414 C415 1.374 . S
C415 H395 0.950 . S
C415 C411 1.385 . S
C415 C414 1.374 . S
C416 C413 1.494 1_556 S
C416 C417 1.373 . S
C416 C418 1.389 . S
C417 H396 0.950 1_556 S
C417 C416 1.373 . S
C417 C433 1.377 . S
C418 C416 1.389 . S
C418 C419 1.524 . S
C418 C432 1.377 . S
C419 C418 1.524 . S
C419 C420 1.397 . S
C419 C424 1.363 . S
C420 H397 0.950 . S
C420 C419 1.397 . S
C420 C421 1.334 . S
C421 H398 0.950 . S
C421 C420 1.334 . S
C421 C422 1.287 . S
C422 C421 1.287 . S
C422 C423 1.524 . S
C422 H441 0.913 . S
C423 H399 0.950 . S
C423 C422 1.524 . S
C423 C424 1.415 . S
C424 H400 0.950 . S
C424 C419 1.363 . S
C424 C423 1.415 . S
C425 H401 0.951 . S
C425 C426 1.366 . S
C425 C427 1.388 . S
C426 C425 1.366 . S
C426 C430 1.385 1_565 S
C427 H402 0.951 . S
C427 C425 1.388 . S
C427 C428 1.366 . S
C428 C427 1.366 . S
C428 C429 1.414 . S
C428 C431 1.499 . S
C429 H403 0.950 . S
C429 C428 1.414 . S
C429 C430 1.374 1_565 S
C430 H404 0.950 . S
C430 C426 1.385 1_545 S
C430 C429 1.374 1_545 S
C431 C428 1.499 . S
C431 C432 1.373 . S
C431 C433 1.389 . S
C432 H405 0.950 . S
C432 C418 1.377 . S
C432 C431 1.373 . S
C433 C417 1.377 . S
C433 C431 1.389 . S
C433 C434 1.524 . S
C434 C433 1.524 . S
C434 C435 1.397 1_565 S
C434 C439 1.363 1_556 S
C435 H406 0.950 . S
C435 C434 1.397 1_545 S
C435 C436 1.334 . S
C436 H407 0.950 . S
C436 C435 1.334 . S
C436 C437 1.287 1_556 S
C437 C436 1.287 1_554 S
C437 C438 1.524 . S
C437 H440 0.999 . S
C438 H408 0.950 . S
C438 C437 1.524 . S
C438 C439 1.415 1_545 S
C439 H409 0.950 . S
C439 C434 1.363 1_554 S
C439 C438 1.415 1_565 S
H440 C437 0.999 . S
H441 C422 0.913 . S
H442 C460 0.951 . S
H443 C462 0.951 . S
H444 C464 0.950 . S
H445 C465 0.950 . S
H446 C467 0.950 . S
H447 C470 0.950 . S
H448 C471 0.950 . S
H449 C473 0.950 . S
H450 C474 0.950 . S
H451 C475 0.951 . S
H452 C477 0.951 . S
H453 C479 0.950 . S
H454 C480 0.950 . S
H455 C482 0.950 . S
H456 C485 0.950 . S
H457 C486 0.950 . S
H458 C488 0.950 . S
H459 C489 0.950 . S
C460 H442 0.951 . S
C460 C461 1.366 . S
C460 C462 1.388 1_554 S
C461 C460 1.366 . S
C461 C465 1.385 . S
C462 H443 0.951 . S
C462 C460 1.388 1_556 S
C462 C463 1.366 1_556 S
C463 C462 1.366 1_554 S
C463 C464 1.414 . S
C463 C466 1.499 1_554 S
C464 H444 0.950 . S
C464 C463 1.414 . S
C464 C465 1.374 . S
C465 H445 0.950 . S
C465 C461 1.385 . S
C465 C464 1.374 . S
C466 C463 1.499 1_556 S
C466 C467 1.373 1_556 S
C466 C468 1.389 . S
C467 H446 0.950 . S
C467 C466 1.373 1_554 S
C467 C483 1.377 1_554 S
C468 C466 1.389 . S
C468 C469 1.524 . S
C468 C482 1.377 . S
C469 C468 1.524 . S
C469 C470 1.397 . S
C469 C474 1.363 . S
C470 H447 0.950 . S
C470 C469 1.397 . S
C470 C471 1.334 . S
C471 H448 0.950 . S
C471 C470 1.334 . S
C471 C472 1.287 . S
C472 C471 1.287 . S
C472 C473 1.524 . S
C472 H491 0.913 . S
C473 H449 0.950 . S
C473 C472 1.524 . S
C473 C474 1.415 . S
C474 H450 0.950 . S
C474 C469 1.363 . S
C474 C473 1.415 . S
C475 H451 0.951 . S
C475 C476 1.366 . S
C475 C477 1.388 . S
C476 C475 1.366 . S
C476 C480 1.385 . S
C477 H452 0.951 . S
C477 C475 1.388 . S
C477 C478 1.366 . S
C478 C477 1.366 . S
C478 C479 1.414 . S
C478 C481 1.499 . S
C479 H453 0.950 . S
C479 C478 1.414 . S
C479 C480 1.374 . S
C480 H454 0.950 . S
C480 C476 1.385 . S
C480 C479 1.374 . S
C481 C478 1.499 . S
C481 C482 1.373 . S
C481 C483 1.389 . S
C482 H455 0.950 . S
C482 C468 1.377 . S
C482 C481 1.373 . S
C483 C467 1.377 1_556 S
C483 C481 1.389 . S
C483 C484 1.524 1_556 S
C484 C483 1.524 1_554 S
C484 C485 1.397 1_554 S
C484 C489 1.363 . S
C485 H456 0.950 . S
C485 C484 1.397 1_556 S
C485 C486 1.334 . S
C486 H457 0.950 . S
C486 C485 1.334 . S
C486 C487 1.287 1_556 S
C487 C486 1.287 1_554 S
C487 C488 1.524 . S
C487 H490 0.999 . S
C488 H458 0.950 . S
C488 C487 1.524 . S
C488 C489 1.415 . S
C489 H459 0.950 . S
C489 C484 1.363 . S
C489 C488 1.415 . S
H490 C487 0.999 . S
H491 C472 0.913 . S
H492 C510 0.951 . S
H493 C512 0.951 . S
H494 C514 0.950 . S
H495 C515 0.950 . S
H496 C517 0.950 . S
H497 C520 0.950 . S
H498 C521 0.950 . S
H499 C523 0.950 . S
H500 C524 0.950 1_556 S
H501 C525 0.951 . S
H502 C527 0.951 . S
H503 C529 0.950 . S
H504 C530 0.950 . S
H505 C532 0.950 . S
H506 C535 0.950 . S
H507 C536 0.950 . S
H508 C538 0.950 . S
H509 C539 0.950 . S
C510 H492 0.951 . S
C510 C511 1.366 . S
C510 C512 1.388 . S
C511 C510 1.366 . S
C511 C515 1.385 . S
C512 H493 0.951 . S
C512 C510 1.388 . S
C512 C513 1.366 . S
C513 C512 1.366 . S
C513 C514 1.414 . S
C513 C516 1.499 . S
C514 H494 0.950 . S
C514 C513 1.414 . S
C514 C515 1.374 . S
C515 H495 0.950 . S
C515 C511 1.385 . S
C515 C514 1.374 . S
C516 C513 1.499 . S
C516 C517 1.373 1_554 S
C516 C518 1.389 . S
C517 H496 0.950 . S
C517 C516 1.373 1_556 S
C517 C533 1.377 . S
C518 C516 1.389 . S
C518 C519 1.524 . S
C518 C532 1.377 1_554 S
C519 C518 1.524 . S
C519 C520 1.397 . S
C519 C524 1.363 . S
C520 H497 0.950 . S
C520 C519 1.397 . S
C520 C521 1.334 . S
C521 H498 0.950 . S
C521 C520 1.334 . S
C521 C522 1.287 . S
C522 C521 1.287 . S
C522 C523 1.524 . S
C522 H541 0.913 . S
C523 H499 0.950 . S
C523 C522 1.524 . S
C523 C524 1.415 . S
C524 H500 0.950 1_554 S
C524 C519 1.363 . S
C524 C523 1.415 . S
C525 H501 0.951 . S
C525 C526 1.366 . S
C525 C527 1.388 . S
C526 C525 1.366 . S
C526 C530 1.385 . S
C527 H502 0.951 . S
C527 C525 1.388 . S
C527 C528 1.366 . S
C528 C527 1.366 . S
C528 C529 1.414 . S
C528 C531 1.499 . S
C529 H503 0.950 . S
C529 C528 1.414 . S
C529 C530 1.374 . S
C530 H504 0.950 . S
C530 C526 1.385 . S
C530 C529 1.374 . S
C531 C528 1.499 . S
C531 C532 1.373 . S
C531 C533 1.389 . S
C532 H505 0.950 . S
C532 C518 1.377 1_556 S
C532 C531 1.373 . S
C533 C517 1.377 . S
C533 C531 1.389 . S
C533 C534 1.524 . S
C534 C533 1.524 . S
C534 C535 1.397 . S
C534 C539 1.363 . S
C535 H506 0.950 . S
C535 C534 1.397 . S
C535 C536 1.334 . S
C536 H507 0.950 . S
C536 C535 1.334 . S
C536 C537 1.287 . S
C537 C536 1.287 . S
C537 C538 1.524 . S
C537 H540 0.999 . S
C538 H508 0.950 . S
C538 C537 1.524 . S
C538 C539 1.415 . S
C539 H509 0.950 . S
C539 C534 1.363 . S
C539 C538 1.415 . S
H540 C537 0.999 . S
H541 C522 0.913 . S
H542 C560 0.951 . S
H543 C562 0.951 . S
H544 C564 0.950 . S
H545 C565 0.950 . S
H546 C567 0.942 1_655 S
H547 C570 0.950 . S
H548 C571 0.950 . S
H549 C573 0.950 . S
H550 C574 0.950 . S
H551 C575 0.951 . S
H552 C577 0.951 . S
H553 C579 0.950 . S
H554 C580 0.950 . S
H555 C582 0.950 . S
H556 C585 0.950 . S
H557 C586 0.950 . S
H558 C588 0.950 . S
H559 C589 0.950 . S
C560 H542 0.951 . S
C560 C561 1.380 . S
C560 C562 1.388 . S
C561 C560 1.380 . S
C561 C565 1.371 1_455 S
C562 H543 0.951 . S
C562 C560 1.388 . S
C562 C563 1.366 . S
C563 C562 1.366 . S
C563 C564 1.414 1_455 S
C563 C566 1.499 1_554 S
C564 H544 0.950 . S
C564 C563 1.414 1_655 S
C564 C565 1.374 . S
C565 H545 0.950 . S
C565 C561 1.371 1_655 S
C565 C564 1.374 . S
C566 C563 1.499 1_556 S
C566 C567 1.379 1_556 S
C566 C568 1.389 . S
C567 H546 0.942 1_455 S
C567 C566 1.379 1_554 S
C567 C583 1.379 1_554 S
C568 C566 1.389 . S
C568 C569 1.524 . S
C568 C582 1.377 . S
C569 C568 1.524 . S
C569 C570 1.397 1_455 S
C569 C574 1.363 . S
C570 H547 0.950 . S
C570 C569 1.397 1_655 S
C570 C571 1.334 . S
C571 H548 0.950 . S
C571 C570 1.334 . S
C571 C572 1.287 1_655 S
C572 C571 1.287 1_455 S
C572 C573 1.524 . S
C572 H591 0.913 . S
C573 H549 0.950 . S
C573 C572 1.524 . S
C573 C574 1.415 . S
C574 H550 0.950 . S
C574 C569 1.363 . S
C574 C573 1.415 . S
C575 H551 0.951 . S
C575 C576 1.366 1_655 S
C575 C577 1.388 . S
C576 C575 1.366 1_455 S
C576 C580 1.385 . S
C577 H552 0.951 . S
C577 C575 1.388 . S
C577 C578 1.366 1_655 S
C578 C577 1.366 1_455 S
C578 C579 1.414 . S
C578 C581 1.499 . S
C579 H553 0.950 . S
C579 C578 1.414 . S
C579 C580 1.374 . S
C580 H554 0.950 . S
C580 C576 1.385 . S
C580 C579 1.374 . S
C581 C578 1.499 . S
C581 C582 1.373 . S
C581 C583 1.389 . S
C582 H555 0.950 . S
C582 C568 1.377 . S
C582 C581 1.373 . S
C583 C567 1.379 1_556 S
C583 C581 1.389 . S
C583 C584 1.524 1_556 S
C584 C583 1.524 1_554 S
C584 C585 1.397 . S
C584 C589 1.363 1_455 S
C585 H556 0.950 . S
C585 C584 1.397 . S
C585 C586 1.334 . S
C586 H557 0.950 . S
C586 C585 1.334 . S
C586 C587 1.287 . S
C587 C586 1.287 . S
C587 C588 1.524 1_455 S
C587 H590 0.999 . S
C588 H558 0.950 . S
C588 C587 1.524 1_655 S
C588 C589 1.415 . S
C589 H559 0.950 . S
C589 C584 1.363 1_655 S
C589 C588 1.415 . S
H590 C587 0.999 . S
H591 C572 0.913 . S
H592 C610 0.951 . S
H593 C612 0.951 . S
H594 C614 0.950 . S
H595 C615 0.950 . S
H596 C617 0.950 . S
H597 C620 0.950 . S
H598 C621 0.950 . S
H599 C623 0.950 . S
H600 C624 0.950 . S
H601 C625 0.951 . S
H602 C627 0.951 . S
H603 C629 0.950 . S
H604 C630 0.950 . S
H605 C632 0.950 . S
H606 C635 0.950 . S
H607 C636 0.950 . S
H608 C638 0.950 . S
H609 C639 0.950 . S
C610 H592 0.951 . S
C610 C611 1.366 . S
C610 C612 1.392 . S
C611 C610 1.366 . S
C611 C615 1.384 1_455 S
C612 H593 0.951 . S
C612 C610 1.392 . S
C612 C613 1.359 1_455 S
C613 C612 1.359 1_655 S
C613 C614 1.416 . S
C613 C616 1.505 . S
C614 H594 0.950 . S
C614 C613 1.416 . S
C614 C615 1.374 . S
C615 H595 0.950 . S
C615 C611 1.384 1_655 S
C615 C614 1.374 . S
C616 C613 1.505 . S
C616 C617 1.373 . S
C616 C618 1.389 1_655 S
C617 H596 0.950 . S
C617 C616 1.373 . S
C617 C633 1.377 . S
C618 C616 1.389 1_455 S
C618 C619 1.524 . S
C618 C632 1.377 . S
C619 C618 1.524 . S
C619 C620 1.397 . S
C619 C624 1.363 . S
C620 H597 0.950 . S
C620 C619 1.397 . S
C620 C621 1.334 . S
C621 H598 0.950 . S
C621 C620 1.334 . S
C621 C622 1.287 . S
C622 C621 1.287 . S
C622 C623 1.524 . S
C622 H641 0.913 . S
C623 H599 0.950 . S
C623 C622 1.524 . S
C623 C624 1.415 . S
C624 H600 0.950 . S
C624 C619 1.363 . S
C624 C623 1.415 . S
C625 H601 0.951 . S
C625 C626 1.366 . S
C625 C627 1.388 . S
C626 C625 1.366 . S
C626 C630 1.385 . S
C627 H602 0.951 . S
C627 C625 1.388 . S
C627 C628 1.366 . S
C628 C627 1.366 . S
C628 C629 1.414 . S
C628 C631 1.499 . S
C629 H603 0.950 . S
C629 C628 1.414 . S
C629 C630 1.374 . S
C630 H604 0.950 . S
C630 C626 1.385 . S
C630 C629 1.374 . S
C631 C628 1.499 . S
C631 C632 1.373 1_655 S
C631 C633 1.389 . S
C632 H605 0.950 . S
C632 C618 1.377 . S
C632 C631 1.373 1_455 S
C633 C617 1.377 . S
C633 C631 1.389 . S
C633 C634 1.524 . S
C634 C633 1.524 . S
C634 C635 1.397 . S
C634 C639 1.363 . S
C635 H606 0.950 . S
C635 C634 1.397 . S
C635 C636 1.334 . S
C636 H607 0.950 . S
C636 C635 1.334 . S
C636 C637 1.287 . S
C637 C636 1.287 . S
C637 C638 1.524 . S
C637 H640 0.999 . S
C638 H608 0.950 . S
C638 C637 1.524 . S
C638 C639 1.415 . S
C639 H609 0.950 . S
C639 C634 1.363 . S
C639 C638 1.415 . S
H640 C637 0.999 . S
H641 C622 0.913 . S
H642 C660 0.951 . S
H643 C662 0.951 . S
H644 C664 0.950 . S
H645 C665 0.950 . S
H646 C667 0.950 . S
H647 C670 0.950 . S
H648 C671 0.950 . S
H649 C673 0.950 . S
H650 C674 0.950 . S
H651 C675 0.951 . S
H652 C677 0.951 . S
H653 C679 0.950 . S
H654 C680 0.950 . S
H655 C682 0.950 . S
H656 C685 0.950 . S
H657 C686 0.950 . S
H658 C688 0.950 . S
H659 C689 0.950 . S
C660 H642 0.951 . S
C660 C661 1.366 . S
C660 C662 1.388 . S
C661 C660 1.366 . S
C661 C665 1.385 . S
C662 H643 0.951 . S
C662 C660 1.388 . S
C662 C663 1.366 . S
C663 C662 1.366 . S
C663 C664 1.414 . S
C663 C666 1.499 . S
C664 H644 0.950 . S
C664 C663 1.414 . S
C664 C665 1.374 . S
C665 H645 0.950 . S
C665 C661 1.385 . S
C665 C664 1.374 . S
C666 C663 1.499 . S
C666 C667 1.373 . S
C666 C668 1.389 . S
C667 H646 0.950 . S
C667 C666 1.373 . S
C667 C683 1.377 . S
C668 C666 1.389 . S
C668 C669 1.524 . S
C668 C682 1.377 . S
C669 C668 1.524 . S
C669 C670 1.397 . S
C669 C674 1.363 . S
C670 H647 0.950 . S
C670 C669 1.397 . S
C670 C671 1.334 . S
C671 H648 0.950 . S
C671 C670 1.334 . S
C671 C672 1.287 . S
C672 C671 1.287 . S
C672 C673 1.524 . S
C672 H691 0.913 . S
C673 H649 0.950 . S
C673 C672 1.524 . S
C673 C674 1.415 . S
C674 H650 0.950 . S
C674 C669 1.363 . S
C674 C673 1.415 . S
C675 H651 0.951 . S
C675 C676 1.366 . S
C675 C677 1.388 . S
C676 C675 1.366 . S
C676 C680 1.385 . S
C677 H652 0.951 . S
C677 C675 1.388 . S
C677 C678 1.366 . S
C678 C677 1.366 . S
C678 C679 1.414 . S
C678 C681 1.499 . S
C679 H653 0.950 . S
C679 C678 1.414 . S
C679 C680 1.374 . S
C680 H654 0.950 . S
C680 C676 1.385 . S
C680 C679 1.374 . S
C681 C678 1.499 . S
C681 C682 1.373 . S
C681 C683 1.389 . S
C682 H655 0.950 . S
C682 C668 1.377 . S
C682 C681 1.373 . S
C683 C667 1.377 . S
C683 C681 1.389 . S
C683 C684 1.524 . S
C684 C683 1.524 . S
C684 C685 1.397 . S
C684 C689 1.363 . S
C685 H656 0.950 . S
C685 C684 1.397 . S
C685 C686 1.334 . S
C686 H657 0.950 . S
C686 C685 1.334 . S
C686 C687 1.287 . S
C687 C686 1.287 . S
C687 C688 1.524 . S
C687 H690 0.999 . S
C688 H658 0.950 . S
C688 C687 1.524 . S
C688 C689 1.415 . S
C689 H659 0.950 . S
C689 C684 1.363 . S
C689 C688 1.415 . S
H690 C687 0.999 . S
H691 C672 0.913 . S
H692 C710 0.951 . S
H693 C712 0.951 . S
H694 C714 0.950 . S
H695 C715 0.950 . S
H696 C717 0.950 . S
H697 C720 0.950 . S
H698 C721 0.950 . S
H699 C723 0.950 . S
H700 C724 0.950 . S
H701 C725 0.951 . S
H702 C727 0.951 . S
H703 C729 0.950 . S
H704 C730 0.950 . S
H705 C732 0.950 . S
H706 C735 0.950 . S
H707 C736 0.950 . S
H708 C738 0.950 . S
H709 C739 0.950 . S
C710 H692 0.951 . S
C710 C711 1.366 . S
C710 C712 1.388 . S
C711 C710 1.366 . S
C711 C715 1.385 . S
C712 H693 0.951 . S
C712 C710 1.388 . S
C712 C713 1.366 . S
C713 C712 1.366 . S
C713 C714 1.414 . S
C713 C716 1.499 . S
C714 H694 0.950 . S
C714 C713 1.414 . S
C714 C715 1.374 . S
C715 H695 0.950 . S
C715 C711 1.385 . S
C715 C714 1.374 . S
C716 C713 1.499 . S
C716 C717 1.373 . S
C716 C718 1.389 . S
C717 H696 0.950 . S
C717 C716 1.373 . S
C717 C733 1.377 . S
C718 C716 1.389 . S
C718 C719 1.524 . S
C718 C732 1.377 . S
C719 C718 1.524 . S
C719 C720 1.397 . S
C719 C724 1.363 . S
C720 H697 0.950 . S
C720 C719 1.397 . S
C720 C721 1.334 . S
C721 H698 0.950 . S
C721 C720 1.334 . S
C721 C722 1.287 . S
C722 C721 1.287 . S
C722 C723 1.524 . S
C722 H741 0.913 . S
C723 H699 0.950 . S
C723 C722 1.524 . S
C723 C724 1.415 . S
C724 H700 0.950 . S
C724 C719 1.363 . S
C724 C723 1.415 . S
C725 H701 0.951 . S
C725 C726 1.366 . S
C725 C727 1.388 . S
C726 C725 1.366 . S
C726 C730 1.385 . S
C727 H702 0.951 . S
C727 C725 1.388 . S
C727 C728 1.366 . S
C728 C727 1.366 . S
C728 C729 1.414 . S
C728 C731 1.499 . S
C729 H703 0.950 . S
C729 C728 1.414 . S
C729 C730 1.374 . S
C730 H704 0.950 . S
C730 C726 1.385 . S
C730 C729 1.374 . S
C731 C728 1.499 . S
C731 C732 1.373 . S
C731 C733 1.389 . S
C732 H705 0.950 . S
C732 C718 1.377 . S
C732 C731 1.373 . S
C733 C717 1.377 . S
C733 C731 1.389 . S
C733 C734 1.524 . S
C734 C733 1.524 . S
C734 C735 1.397 . S
C734 C739 1.363 . S
C735 H706 0.950 . S
C735 C734 1.397 . S
C735 C736 1.334 . S
C736 H707 0.950 . S
C736 C735 1.334 . S
C736 C737 1.287 . S
C737 C736 1.287 . S
C737 C738 1.524 . S
C737 H740 0.999 . S
C738 H708 0.950 . S
C738 C737 1.524 . S
C738 C739 1.415 . S
C739 H709 0.950 . S
C739 C734 1.363 . S
C739 C738 1.415 . S
H740 C737 0.999 . S
H741 C722 0.913 . S
H742 C760 0.951 . S
H743 C762 0.951 . S
H744 C764 0.950 . S
H745 C765 0.950 . S
H746 C767 0.950 . S
H747 C770 0.950 . S
H748 C771 0.950 . S
H749 C773 0.950 . S
H750 C774 0.950 . S
H751 C775 0.951 . S
H752 C777 0.951 . S
H753 C779 0.950 . S
H754 C780 0.950 . S
H755 C782 0.950 . S
H756 C785 0.950 . S
H757 C786 0.950 . S
H758 C788 0.950 . S
H759 C789 0.950 . S
C760 H742 0.951 . S
C760 C761 1.366 . S
C760 C762 1.388 . S
C761 C760 1.366 . S
C761 C765 1.385 . S
C762 H743 0.951 . S
C762 C760 1.388 . S
C762 C763 1.366 . S
C763 C762 1.366 . S
C763 C764 1.414 . S
C763 C766 1.499 . S
C764 H744 0.950 . S
C764 C763 1.414 . S
C764 C765 1.374 . S
C765 H745 0.950 . S
C765 C761 1.385 . S
C765 C764 1.374 . S
C766 C763 1.499 . S
C766 C767 1.373 . S
C766 C768 1.389 . S
C767 H746 0.950 . S
C767 C766 1.373 . S
C767 C783 1.377 . S
C768 C766 1.389 . S
C768 C769 1.524 . S
C768 C782 1.377 . S
C769 C768 1.524 . S
C769 C770 1.397 . S
C769 C774 1.363 . S
C770 H747 0.950 . S
C770 C769 1.397 . S
C770 C771 1.334 . S
C771 H748 0.950 . S
C771 C770 1.334 . S
C771 C772 1.287 . S
C772 C771 1.287 . S
C772 C773 1.524 . S
C772 H791 0.913 . S
C773 H749 0.950 . S
C773 C772 1.524 . S
C773 C774 1.415 . S
C774 H750 0.950 . S
C774 C769 1.363 . S
C774 C773 1.415 . S
C775 H751 0.951 . S
C775 C776 1.366 . S
C775 C777 1.388 . S
C776 C775 1.366 . S
C776 C780 1.385 . S
C777 H752 0.951 . S
C777 C775 1.388 . S
C777 C778 1.366 . S
C778 C777 1.366 . S
C778 C779 1.414 . S
C778 C781 1.499 . S
C779 H753 0.950 . S
C779 C778 1.414 . S
C779 C780 1.374 . S
C780 H754 0.950 . S
C780 C776 1.385 . S
C780 C779 1.374 . S
C781 C778 1.499 . S
C781 C782 1.373 . S
C781 C783 1.389 . S
C782 H755 0.950 . S
C782 C768 1.377 . S
C782 C781 1.373 . S
C783 C767 1.377 . S
C783 C781 1.389 . S
C783 C784 1.524 . S
C784 C783 1.524 . S
C784 C785 1.397 . S
C784 C789 1.363 . S
C785 H756 0.950 . S
C785 C784 1.397 . S
C785 C786 1.334 . S
C786 H757 0.950 . S
C786 C785 1.334 . S
C786 C787 1.287 . S
C787 C786 1.287 . S
C787 C788 1.524 . S
C787 H790 0.999 . S
C788 H758 0.950 . S
C788 C787 1.524 . S
C788 C789 1.415 . S
C789 H759 0.950 . S
C789 C784 1.363 . S
C789 C788 1.415 . S
H790 C787 0.999 . S
H791 C772 0.913 . S
H792 C810 0.951 . S
H793 C812 0.951 . S
H794 C814 0.950 . S
H795 C815 0.950 . S
H796 C817 0.950 . S
H797 C820 0.959 . S
H798 C821 0.950 . S
H799 C823 0.950 . S
H800 C824 0.950 . S
H801 C825 0.951 . S
H802 C827 0.951 . S
H803 C829 0.950 . S
H804 C830 0.950 . S
H805 C832 0.950 . S
H806 C835 0.950 . S
H807 C836 0.950 . S
H808 C838 0.950 . S
H809 C839 0.950 . S
C810 H792 0.951 . S
C810 C811 1.366 . S
C810 C812 1.388 1_554 S
C811 C810 1.366 . S
C811 C815 1.385 1_655 S
C812 H793 0.951 . S
C812 C810 1.388 1_556 S
C812 C813 1.366 1_656 S
C813 C812 1.366 1_454 S
C813 C814 1.414 . S
C813 C816 1.499 1_554 S
C814 H794 0.950 . S
C814 C813 1.414 . S
C814 C815 1.374 . S
C815 H795 0.950 . S
C815 C811 1.385 1_455 S
C815 C814 1.374 . S
C816 C813 1.499 1_556 S
C816 C817 1.373 1_456 S
C816 C818 1.389 . S
C817 H796 0.950 . S
C817 C816 1.373 1_654 S
C817 C833 1.377 1_554 S
C818 C816 1.389 . S
C818 C819 1.524 . S
C818 C832 1.377 . S
C819 C818 1.524 . S
C819 C820 1.397 . S
C819 C824 1.363 . S
C820 H797 0.959 . S
C820 C819 1.397 . S
C820 C821 1.334 . S
C821 H798 0.950 . S
C821 C820 1.334 . S
C821 C822 1.287 . S
C822 C821 1.287 . S
C822 C823 1.524 . S
C822 H841 0.913 . S
C823 H799 0.950 . S
C823 C822 1.524 . S
C823 C824 1.415 . S
C824 H800 0.950 . S
C824 C819 1.363 . S
C824 C823 1.415 . S
C825 H801 0.951 . S
C825 C826 1.366 . S
C825 C827 1.388 . S
C826 C825 1.366 . S
C826 C830 1.385 . S
C827 H802 0.951 . S
C827 C825 1.388 . S
C827 C828 1.366 . S
C828 C827 1.366 . S
C828 C829 1.414 . S
C828 C831 1.499 . S
C829 H803 0.950 . S
C829 C828 1.414 . S
C829 C830 1.374 . S
C830 H804 0.950 . S
C830 C826 1.385 . S
C830 C829 1.374 . S
C831 C828 1.499 . S
C831 C832 1.373 . S
C831 C833 1.389 1_455 S
C832 H805 0.950 . S
C832 C818 1.377 . S
C832 C831 1.373 . S
C833 C817 1.377 1_556 S
C833 C831 1.389 1_655 S
C833 C834 1.524 . S
C834 C833 1.524 . S
C834 C835 1.397 . S
C834 C839 1.363 1_556 S
C835 H806 0.950 . S
C835 C834 1.397 . S
C835 C836 1.334 . S
C836 H807 0.950 . S
C836 C835 1.334 . S
C836 C837 1.287 1_556 S
C837 C836 1.287 1_554 S
C837 C838 1.524 . S
C837 H840 0.999 . S
C838 H808 0.950 . S
C838 C837 1.524 . S
C838 C839 1.415 . S
C839 H809 0.950 . S
C839 C834 1.363 1_554 S
C839 C838 1.415 . S
H840 C837 0.999 . S
H841 C822 0.913 . S
H842 C860 0.951 . S
H843 C862 0.951 . S
H844 C864 0.950 . S
H845 C865 0.950 . S
H846 C867 0.950 1_554 S
H847 C870 0.950 . S
H848 C871 0.950 . S
H849 C873 0.950 . S
H850 C874 0.950 . S
H851 C875 0.951 . S
H852 C877 0.951 . S
H853 C879 0.950 . S
H854 C880 0.951 1_545 S
H855 C882 0.950 . S
H856 C885 0.950 . S
H857 C886 0.950 . S
H858 C888 0.950 . S
H859 C889 0.950 . S
C860 H842 0.951 . S
C860 C861 1.366 1_556 S
C860 C862 1.388 . S
C861 C860 1.366 1_554 S
C861 C865 1.385 . S
C862 H843 0.951 . S
C862 C860 1.388 . S
C862 C863 1.366 . S
C863 C862 1.366 . S
C863 C864 1.414 1_556 S
C863 C866 1.499 . S
C864 H844 0.950 . S
C864 C863 1.414 1_554 S
C864 C865 1.374 . S
C865 H845 0.950 . S
C865 C861 1.385 . S
C865 C864 1.374 . S
C866 C863 1.499 . S
C866 C867 1.373 . S
C866 C868 1.389 . S
C867 H846 0.950 1_556 S
C867 C866 1.373 . S
C867 C883 1.377 . S
C868 C866 1.389 . S
C868 C869 1.524 . S
C868 C882 1.377 . S
C869 C868 1.524 . S
C869 C870 1.398 . S
C869 C874 1.363 . S
C870 H847 0.950 . S
C870 C869 1.398 . S
C870 C871 1.332 1_565 S
C871 H848 0.950 . S
C871 C870 1.332 1_545 S
C871 C872 1.287 . S
C872 C871 1.287 . S
C872 C873 1.524 . S
C872 H891 0.913 . S
C873 H849 0.950 . S
C873 C872 1.524 . S
C873 C874 1.415 1_545 S
C874 H850 0.950 . S
C874 C869 1.363 . S
C874 C873 1.415 1_565 S
C875 H851 0.951 . S
C875 C876 1.366 . S
C875 C877 1.388 1_545 S
C876 C875 1.366 . S
C876 C880 1.372 1_545 S
C877 H852 0.951 . S
C877 C875 1.388 1_565 S
C877 C878 1.366 . S
C878 C877 1.366 . S
C878 C879 1.414 . S
C878 C881 1.499 . S
C879 H853 0.950 . S
C879 C878 1.414 . S
C879 C880 1.388 . S
C880 H854 0.951 1_565 S
C880 C876 1.372 1_565 S
C880 C879 1.388 . S
C881 C878 1.499 . S
C881 C882 1.373 . S
C881 C883 1.389 . S
C882 H855 0.950 . S
C882 C868 1.377 . S
C882 C881 1.373 . S
C883 C867 1.377 . S
C883 C881 1.389 . S
C883 C884 1.524 . S
C884 C883 1.524 . S
C884 C885 1.397 . S
C884 C889 1.363 1_556 S
C885 H856 0.950 . S
C885 C884 1.397 . S
C885 C886 1.334 . S
C886 H857 0.950 . S
C886 C885 1.334 . S
C886 C887 1.287 . S
C887 C886 1.287 . S
C887 C888 1.524 1_556 S
C887 H890 0.999 1_556 S
C888 H858 0.950 . S
C888 C887 1.524 1_554 S
C888 C889 1.415 . S
C889 H859 0.950 . S
C889 C884 1.363 1_554 S
C889 C888 1.415 . S
H890 C887 0.999 1_554 S
H891 C872 0.913 . S
H892 C910 0.951 . S
H893 C912 0.951 . S
H894 C914 0.950 . S
H895 C915 0.950 . S
H896 C917 0.950 1_554 S
H897 C920 0.950 . S
H898 C921 0.950 . S
H899 C923 0.950 . S
H900 C924 0.950 . S
H901 C925 0.951 . S
H902 C927 0.951 . S
H903 C929 0.950 . S
H904 C930 0.950 . S
H905 C932 0.950 . S
H906 C935 0.950 . S
H907 C936 0.950 . S
H908 C938 0.950 . S
H909 C939 0.950 1_556 S
C910 H892 0.951 . S
C910 C911 1.366 . S
C910 C912 1.388 . S
C911 C910 1.366 . S
C911 C915 1.385 . S
C912 H893 0.951 . S
C912 C910 1.388 . S
C912 C913 1.366 . S
C913 C912 1.366 . S
C913 C914 1.414 . S
C913 C916 1.499 1_554 S
C914 H894 0.950 . S
C914 C913 1.414 . S
C914 C915 1.374 . S
C915 H895 0.950 . S
C915 C911 1.385 . S
C915 C914 1.374 . S
C916 C913 1.499 1_556 S
C916 C917 1.373 . S
C916 C918 1.389 . S
C917 H896 0.950 1_556 S
C917 C916 1.373 . S
C917 C933 1.377 . S
C918 C916 1.389 . S
C918 C919 1.524 . S
C918 C932 1.377 . S
C919 C918 1.524 . S
C919 C920 1.397 . S
C919 C924 1.363 . S
C920 H897 0.950 . S
C920 C919 1.397 . S
C920 C921 1.334 . S
C921 H898 0.950 . S
C921 C920 1.334 . S
C921 C922 1.287 . S
C922 C921 1.287 . S
C922 C923 1.524 . S
C922 H941 0.913 . S
C923 H899 0.950 . S
C923 C922 1.524 . S
C923 C924 1.415 . S
C924 H900 0.950 . S
C924 C919 1.363 . S
C924 C923 1.415 . S
C925 H901 0.951 . S
C925 C926 1.366 . S
C925 C927 1.388 . S
C926 C925 1.366 . S
C926 C930 1.385 . S
C927 H902 0.951 . S
C927 C925 1.388 . S
C927 C928 1.366 . S
C928 C927 1.366 . S
C928 C929 1.414 . S
C928 C931 1.499 . S
C929 H903 0.950 . S
C929 C928 1.414 . S
C929 C930 1.374 . S
C930 H904 0.950 . S
C930 C926 1.385 . S
C930 C929 1.374 . S
C931 C928 1.499 . S
C931 C932 1.373 . S
C931 C933 1.389 . S
C932 H905 0.950 . S
C932 C918 1.377 . S
C932 C931 1.373 . S
C933 C917 1.377 . S
C933 C931 1.389 . S
C933 C934 1.527 . S
C934 C933 1.527 . S
C934 C935 1.395 1_556 S
C934 C939 1.361 1_556 S
C935 H906 0.950 . S
C935 C934 1.395 1_554 S
C935 C936 1.334 . S
C936 H907 0.950 . S
C936 C935 1.334 . S
C936 C937 1.287 . S
C937 C936 1.287 . S
C937 C938 1.524 . S
C937 H940 0.999 . S
C938 H908 0.950 . S
C938 C937 1.524 . S
C938 C939 1.415 . S
C939 H909 0.950 1_554 S
C939 C934 1.361 1_554 S
C939 C938 1.415 . S
H940 C937 0.999 . S
H941 C922 0.913 . S
H942 C960 0.951 . S
H943 C962 0.951 1_556 S
H944 C964 0.950 . S
H945 C965 0.950 . S
H946 C967 0.950 . S
H947 C970 0.950 . S
H948 C971 0.950 . S
H949 C973 0.950 . S
H950 C974 0.950 . S
H951 C975 0.951 . S
H952 C977 0.951 . S
H953 C979 0.950 . S
H954 C980 0.950 . S
H955 C982 0.950 . S
H956 C985 0.950 . S
H957 C986 0.950 . S
H958 C988 0.950 . S
H959 C989 0.950 . S
C960 H942 0.951 . S
C960 C961 1.366 . S
C960 C962 1.388 . S
C961 C960 1.366 . S
C961 C965 1.385 . S
C962 H943 0.951 1_554 S
C962 C960 1.388 . S
C962 C963 1.366 . S
C963 C962 1.366 . S
C963 C964 1.414 . S
C963 C966 1.499 1_554 S
C964 H944 0.950 . S
C964 C963 1.414 . S
C964 C965 1.374 . S
C965 H945 0.950 . S
C965 C961 1.385 . S
C965 C964 1.374 . S
C966 C963 1.499 1_556 S
C966 C967 1.373 . S
C966 C968 1.389 . S
C967 H946 0.950 . S
C967 C966 1.373 . S
C967 C983 1.377 . S
C968 C966 1.389 . S
C968 C969 1.524 . S
C968 C982 1.377 . S
C969 C968 1.524 . S
C969 C970 1.397 1_556 S
C969 C974 1.363 . S
C970 H947 0.950 . S
C970 C969 1.397 1_554 S
C970 C971 1.334 . S
C971 H948 0.950 . S
C971 C970 1.334 . S
C971 C972 1.287 . S
C972 C971 1.287 . S
C972 C973 1.524 1_554 S
C972 H991 0.913 . S
C973 H949 0.950 . S
C973 C972 1.524 1_556 S
C973 C974 1.415 . S
C974 H950 0.950 . S
C974 C969 1.363 . S
C974 C973 1.415 . S
C975 H951 0.951 . S
C975 C976 1.366 . S
C975 C977 1.388 . S
C976 C975 1.366 . S
C976 C980 1.385 . S
C977 H952 0.951 . S
C977 C975 1.388 . S
C977 C978 1.366 . S
C978 C977 1.366 . S
C978 C979 1.414 . S
C978 C981 1.499 . S
C979 H953 0.950 . S
C979 C978 1.414 . S
C979 C980 1.374 . S
C980 H954 0.950 . S
C980 C976 1.385 . S
C980 C979 1.374 . S
C981 C978 1.499 . S
C981 C982 1.373 . S
C981 C983 1.389 . S
C982 H955 0.950 . S
C982 C968 1.377 . S
C982 C981 1.373 . S
C983 C967 1.377 . S
C983 C981 1.389 . S
C983 C984 1.524 . S
C984 C983 1.524 . S
C984 C985 1.397 . S
C984 C989 1.363 . S
C985 H956 0.950 . S
C985 C984 1.397 . S
C985 C986 1.334 . S
C986 H957 0.950 . S
C986 C985 1.334 . S
C986 C987 1.287 . S
C987 C986 1.287 . S
C987 C988 1.524 . S
C987 H990 0.999 . S
C988 H958 0.950 . S
C988 C987 1.524 . S
C988 C989 1.415 . S
C989 H959 0.950 . S
C989 C984 1.363 . S
C989 C988 1.415 . S
H990 C987 0.999 . S
H991 C972 0.913 . S
H992 C1010 0.951 . S
H993 C1012 0.951 . S
H994 C1014 0.950 . S
H995 C1015 0.950 . S
H996 C1017 0.950 . S
H997 C1020 0.950 . S
H998 C1021 0.950 . S
H999 C1023 0.950 1_556 S
H1000 C1024 0.950 1_455 S
H1001 C1025 0.946 1_655 S
H1002 C1027 0.964 . S
H1003 C1029 0.950 1_556 S
H1004 C1030 0.950 . S
H1005 C1032 0.950 1_655 S
H1006 C1035 0.950 . S
H1007 C1036 0.950 . S
H1008 C1038 0.950 . S
H1009 C1039 0.950 . S
C1010 H992 0.951 . S
C1010 C1011 1.384 . S
C1010 C1012 1.388 . S
C1011 C1010 1.384 . S
C1011 C1015 1.367 1_455 S
C1012 H993 0.951 . S
C1012 C1010 1.388 . S
C1012 C1013 1.366 . S
C1013 C1012 1.366 . S
C1013 C1014 1.414 1_455 S
C1013 C1016 1.499 . S
C1014 H994 0.950 . S
C1014 C1013 1.414 1_655 S
C1014 C1015 1.374 . S
C1015 H995 0.950 . S
C1015 C1011 1.367 1_655 S
C1015 C1014 1.374 . S
C1016 C1013 1.499 . S
C1016 C1017 1.373 . S
C1016 C1018 1.389 1_455 S
C1017 H996 0.950 . S
C1017 C1016 1.373 . S
C1017 C1033 1.377 . S
C1018 C1016 1.389 1_655 S
C1018 C1019 1.524 . S
C1018 C1032 1.377 1_655 S
C1019 C1018 1.524 . S
C1019 C1020 1.397 . S
C1019 C1024 1.363 . S
C1020 H997 0.950 . S
C1020 C1019 1.397 . S
C1020 C1021 1.334 . S
C1021 H998 0.950 . S
C1021 C1020 1.334 . S
C1021 C1022 1.287 . S
C1022 C1021 1.287 . S
C1022 C1023 1.524 . S
C1022 H1041 0.913 . S
C1023 H999 0.950 1_554 S
C1023 C1022 1.524 . S
C1023 C1024 1.415 . S
C1024 H1000 0.950 1_655 S
C1024 C1019 1.363 . S
C1024 C1023 1.415 . S
C1025 H1001 0.946 1_455 S
C1025 C1026 1.371 1_554 S
C1025 C1027 1.388 1_455 S
C1026 C1025 1.371 1_556 S
C1026 C1030 1.385 . S
C1027 H1002 0.964 . S
C1027 C1025 1.388 1_655 S
C1027 C1028 1.353 1_655 S
C1028 C1027 1.353 1_455 S
C1028 C1029 1.414 . S
C1028 C1031 1.499 . S
C1029 H1003 0.950 1_554 S
C1029 C1028 1.414 . S
C1029 C1030 1.374 1_554 S
C1030 H1004 0.950 . S
C1030 C1026 1.385 . S
C1030 C1029 1.374 1_556 S
C1031 C1028 1.499 . S
C1031 C1032 1.373 . S
C1031 C1033 1.389 . S
C1032 H1005 0.950 1_455 S
C1032 C1018 1.377 1_455 S
C1032 C1031 1.373 . S
C1033 C1017 1.377 . S
C1033 C1031 1.389 . S
C1033 C1034 1.524 . S
C1034 C1033 1.524 . S
C1034 C1035 1.397 . S
C1034 C1039 1.363 . S
C1035 H1006 0.950 . S
C1035 C1034 1.397 . S
C1035 C1036 1.334 . S
C1036 H1007 0.950 . S
C1036 C1035 1.334 . S
C1036 C1037 1.287 . S
C1037 C1036 1.287 . S
C1037 C1038 1.524 . S
C1037 H1040 0.999 . S
C1038 H1008 0.950 . S
C1038 C1037 1.524 . S
C1038 C1039 1.415 . S
C1039 H1009 0.950 . S
C1039 C1034 1.363 . S
C1039 C1038 1.415 . S
H1040 C1037 0.999 . S
H1041 C1022 0.913 . S
H1042 C1060 0.951 . S
H1043 C1062 0.951 . S
H1044 C1064 0.950 . S
H1045 C1065 0.950 . S
H1046 C1067 0.950 . S
H1047 C1070 0.950 . S
H1048 C1071 0.950 . S
H1049 C1073 0.950 . S
H1050 C1074 0.950 . S
H1051 C1075 0.951 . S
H1052 C1077 0.951 . S
H1053 C1079 0.950 1_556 S
H1054 C1080 0.950 . S
H1055 C1082 0.950 . S
H1056 C1085 0.950 . S
H1057 C1086 0.950 . S
H1058 C1088 0.950 . S
H1059 C1089 0.950 . S
C1060 H1042 0.951 . S
C1060 C1061 1.366 . S
C1060 C1062 1.388 . S
C1061 C1060 1.366 . S
C1061 C1065 1.385 . S
C1062 H1043 0.951 . S
C1062 C1060 1.388 . S
C1062 C1063 1.366 . S
C1063 C1062 1.366 . S
C1063 C1064 1.414 . S
C1063 C1066 1.499 . S
C1064 H1044 0.950 . S
C1064 C1063 1.414 . S
C1064 C1065 1.374 . S
C1065 H1045 0.950 . S
C1065 C1061 1.385 . S
C1065 C1064 1.374 . S
C1066 C1063 1.499 . S
C1066 C1067 1.373 . S
C1066 C1068 1.389 . S
C1067 H1046 0.950 . S
C1067 C1066 1.373 . S
C1067 C1083 1.377 . S
C1068 C1066 1.389 . S
C1068 C1069 1.524 . S
C1068 C1082 1.377 . S
C1069 C1068 1.524 . S
C1069 C1070 1.397 . S
C1069 C1074 1.363 . S
C1070 H1047 0.950 . S
C1070 C1069 1.397 . S
C1070 C1071 1.334 . S
C1071 H1048 0.950 . S
C1071 C1070 1.334 . S
C1071 C1072 1.287 . S
C1072 C1071 1.287 . S
C1072 C1073 1.524 . S
C1072 H1091 0.913 . S
C1073 H1049 0.950 . S
C1073 C1072 1.524 . S
C1073 C1074 1.415 . S
C1074 H1050 0.950 . S
C1074 C1069 1.363 . S
C1074 C1073 1.415 . S
C1075 H1051 0.951 . S
C1075 C1076 1.366 1_554 S
C1075 C1077 1.388 . S
C1076 C1075 1.366 1_556 S
C1076 C1080 1.385 . S
C1077 H1052 0.951 . S
C1077 C1075 1.388 . S
C1077 C1078 1.366 . S
C1078 C1077 1.366 . S
C1078 C1079 1.414 . S
C1078 C1081 1.499 . S
C1079 H1053 0.950 1_554 S
C1079 C1078 1.414 . S
C1079 C1080 1.374 1_554 S
C1080 H1054 0.950 . S
C1080 C1076 1.385 . S
C1080 C1079 1.374 1_556 S
C1081 C1078 1.499 . S
C1081 C1082 1.373 . S
C1081 C1083 1.389 . S
C1082 H1055 0.950 . S
C1082 C1068 1.377 . S
C1082 C1081 1.373 . S
C1083 C1067 1.377 . S
C1083 C1081 1.389 . S
C1083 C1084 1.524 . S
C1084 C1083 1.524 . S
C1084 C1085 1.397 . S
C1084 C1089 1.363 . S
C1085 H1056 0.950 . S
C1085 C1084 1.397 . S
C1085 C1086 1.334 . S
C1086 H1057 0.950 . S
C1086 C1085 1.334 . S
C1086 C1087 1.287 . S
C1087 C1086 1.287 . S
C1087 C1088 1.524 . S
C1087 H1090 0.999 . S
C1088 H1058 0.950 . S
C1088 C1087 1.524 . S
C1088 C1089 1.415 . S
C1089 H1059 0.950 . S
C1089 C1084 1.363 . S
C1089 C1088 1.415 . S
H1090 C1087 0.999 . S
H1091 C1072 0.913 . S
H1092 C1110 0.951 . S
H1093 C1112 0.951 . S
H1094 C1114 0.950 . S
H1095 C1115 0.950 . S
H1096 C1117 0.950 . S
H1097 C1120 0.950 . S
H1098 C1121 0.950 . S
H1099 C1123 0.950 . S
H1100 C1124 0.950 . S
H1101 C1125 0.951 . S
H1102 C1127 0.958 . S
H1103 C1129 0.950 . S
H1104 C1130 0.950 . S
H1105 C1132 0.950 . S
H1106 C1135 0.950 . S
H1107 C1136 0.950 . S
H1108 C1138 0.950 . S
H1109 C1139 0.950 . S
C1110 H1092 0.951 . S
C1110 C1111 1.366 . S
C1110 C1112 1.388 . S
C1111 C1110 1.366 . S
C1111 C1115 1.385 . S
C1112 H1093 0.951 . S
C1112 C1110 1.388 . S
C1112 C1113 1.366 . S
C1113 C1112 1.366 . S
C1113 C1114 1.414 . S
C1113 C1116 1.499 . S
C1114 H1094 0.950 . S
C1114 C1113 1.414 . S
C1114 C1115 1.374 . S
C1115 H1095 0.950 . S
C1115 C1111 1.385 . S
C1115 C1114 1.374 . S
C1116 C1113 1.499 . S
C1116 C1117 1.373 . S
C1116 C1118 1.389 . S
C1117 H1096 0.950 . S
C1117 C1116 1.373 . S
C1117 C1133 1.377 . S
C1118 C1116 1.389 . S
C1118 C1119 1.524 . S
C1118 C1132 1.377 . S
C1119 C1118 1.524 . S
C1119 C1120 1.397 . S
C1119 C1124 1.363 . S
C1120 H1097 0.950 . S
C1120 C1119 1.397 . S
C1120 C1121 1.334 . S
C1121 H1098 0.950 . S
C1121 C1120 1.334 . S
C1121 C1122 1.287 . S
C1122 C1121 1.287 . S
C1122 C1123 1.524 . S
C1122 H1141 0.913 . S
C1123 H1099 0.950 . S
C1123 C1122 1.524 . S
C1123 C1124 1.415 . S
C1124 H1100 0.950 . S
C1124 C1119 1.363 . S
C1124 C1123 1.415 . S
C1125 H1101 0.951 . S
C1125 C1126 1.366 . S
C1125 C1127 1.381 1_556 S
C1126 C1125 1.366 . S
C1126 C1130 1.385 . S
C1127 H1102 0.958 . S
C1127 C1125 1.381 1_554 S
C1127 C1128 1.365 . S
C1128 C1127 1.365 . S
C1128 C1129 1.414 1_554 S
C1128 C1131 1.499 . S
C1129 H1103 0.950 . S
C1129 C1128 1.414 1_556 S
C1129 C1130 1.374 . S
C1130 H1104 0.950 . S
C1130 C1126 1.385 . S
C1130 C1129 1.374 . S
C1131 C1128 1.499 . S
C1131 C1132 1.373 . S
C1131 C1133 1.389 . S
C1132 H1105 0.950 . S
C1132 C1118 1.377 . S
C1132 C1131 1.373 . S
C1133 C1117 1.377 . S
C1133 C1131 1.389 . S
C1133 C1134 1.524 . S
C1134 C1133 1.524 . S
C1134 C1135 1.397 1_554 S
C1134 C1139 1.363 . S
C1135 H1106 0.950 . S
C1135 C1134 1.397 1_556 S
C1135 C1136 1.334 . S
C1136 H1107 0.950 . S
C1136 C1135 1.334 . S
C1136 C1137 1.287 . S
C1137 C1136 1.287 . S
C1137 C1138 1.524 1_556 S
C1137 H1140 0.999 . S
C1138 H1108 0.950 . S
C1138 C1137 1.524 1_554 S
C1138 C1139 1.415 . S
C1139 H1109 0.950 . S
C1139 C1134 1.363 . S
C1139 C1138 1.415 . S
H1140 C1137 0.999 . S
H1141 C1122 0.913 . S
H1142 C1160 0.951 . S
H1143 C1162 0.951 . S
H1144 C1164 0.950 . S
H1145 C1165 0.950 . S
H1146 C1167 0.950 . S
H1147 C1170 0.950 . S
H1148 C1171 0.950 . S
H1149 C1173 0.950 . S
H1150 C1174 0.950 . S
H1151 C1175 0.951 . S
H1152 C1177 0.951 1_554 S
H1153 C1179 0.950 . S
H1154 C1180 0.950 . S
H1155 C1182 0.950 . S
H1156 C1185 0.950 . S
H1157 C1186 0.950 . S
H1158 C1188 0.950 . S
H1159 C1189 0.950 . S
C1160 H1142 0.951 . S
C1160 C1161 1.366 . S
C1160 C1162 1.388 . S
C1161 C1160 1.366 . S
C1161 C1165 1.385 . S
C1162 H1143 0.951 . S
C1162 C1160 1.388 . S
C1162 C1163 1.366 . S
C1163 C1162 1.366 . S
C1163 C1164 1.414 . S
C1163 C1166 1.499 . S
C1164 H1144 0.950 . S
C1164 C1163 1.414 . S
C1164 C1165 1.374 . S
C1165 H1145 0.950 . S
C1165 C1161 1.385 . S
C1165 C1164 1.374 . S
C1166 C1163 1.499 . S
C1166 C1167 1.373 . S
C1166 C1168 1.389 . S
C1167 H1146 0.950 . S
C1167 C1166 1.373 . S
C1167 C1183 1.377 . S
C1168 C1166 1.389 . S
C1168 C1169 1.524 . S
C1168 C1182 1.377 . S
C1169 C1168 1.524 . S
C1169 C1170 1.397 . S
C1169 C1174 1.363 . S
C1170 H1147 0.950 . S
C1170 C1169 1.397 . S
C1170 C1171 1.334 . S
C1171 H1148 0.950 . S
C1171 C1170 1.334 . S
C1171 C1172 1.287 . S
C1172 C1171 1.287 . S
C1172 C1173 1.524 . S
C1172 H1191 0.913 . S
C1173 H1149 0.950 . S
C1173 C1172 1.524 . S
C1173 C1174 1.415 . S
C1174 H1150 0.950 . S
C1174 C1169 1.363 . S
C1174 C1173 1.415 . S
C1175 H1151 0.951 . S
C1175 C1176 1.366 . S
C1175 C1177 1.388 . S
C1176 C1175 1.366 . S
C1176 C1180 1.385 . S
C1177 H1152 0.951 1_556 S
C1177 C1175 1.388 . S
C1177 C1178 1.366 1_556 S
C1178 C1177 1.366 1_554 S
C1178 C1179 1.414 1_554 S
C1178 C1181 1.499 . S
C1179 H1153 0.950 . S
C1179 C1178 1.414 1_556 S
C1179 C1180 1.374 . S
C1180 H1154 0.950 . S
C1180 C1176 1.385 . S
C1180 C1179 1.374 . S
C1181 C1178 1.499 . S
C1181 C1182 1.373 . S
C1181 C1183 1.389 . S
C1182 H1155 0.950 . S
C1182 C1168 1.377 . S
C1182 C1181 1.373 . S
C1183 C1167 1.377 . S
C1183 C1181 1.389 . S
C1183 C1184 1.524 . S
C1184 C1183 1.524 . S
C1184 C1185 1.397 1_554 S
C1184 C1189 1.363 . S
C1185 H1156 0.950 . S
C1185 C1184 1.397 1_556 S
C1185 C1186 1.334 . S
C1186 H1157 0.950 . S
C1186 C1185 1.334 . S
C1186 C1187 1.287 . S
C1187 C1186 1.287 . S
C1187 C1188 1.524 1_556 S
C1187 H1190 0.999 . S
C1188 H1158 0.950 . S
C1188 C1187 1.524 1_554 S
C1188 C1189 1.415 . S
C1189 H1159 0.950 . S
C1189 C1184 1.363 . S
C1189 C1188 1.415 . S
H1190 C1187 0.999 . S
H1191 C1172 0.913 . S
H1192 C1210 0.951 . S
H1193 C1212 0.951 . S
H1194 C1214 0.950 . S
H1195 C1215 0.950 . S
H1196 C1217 0.950 . S
H1197 C1220 0.950 . S
H1198 C1221 0.950 . S
H1199 C1223 0.950 . S
H1200 C1224 0.950 . S
H1201 C1225 0.951 . S
H1202 C1227 0.951 . S
H1203 C1229 0.950 . S
H1204 C1230 0.950 . S
H1205 C1232 0.950 . S
H1206 C1235 0.950 . S
H1207 C1236 0.950 . S
H1208 C1238 0.950 . S
H1209 C1239 0.950 . S
C1210 H1192 0.951 . S
C1210 C1211 1.393 . S
C1210 C1212 1.388 . S
C1211 C1210 1.393 . S
C1211 C1215 1.358 1_655 S
C1212 H1193 0.951 . S
C1212 C1210 1.388 . S
C1212 C1213 1.366 . S
C1213 C1212 1.366 . S
C1213 C1214 1.414 1_655 S
C1213 C1216 1.499 . S
C1214 H1194 0.950 . S
C1214 C1213 1.414 1_455 S
C1214 C1215 1.374 . S
C1215 H1195 0.950 . S
C1215 C1211 1.358 1_455 S
C1215 C1214 1.374 . S
C1216 C1213 1.499 . S
C1216 C1217 1.373 1_655 S
C1216 C1218 1.389 . S
C1217 H1196 0.950 . S
C1217 C1216 1.373 1_455 S
C1217 C1233 1.377 . S
C1218 C1216 1.389 . S
C1218 C1219 1.524 . S
C1218 C1232 1.377 . S
C1219 C1218 1.524 . S
C1219 C1220 1.397 . S
C1219 C1224 1.363 . S
C1220 H1197 0.950 . S
C1220 C1219 1.397 . S
C1220 C1221 1.334 . S
C1221 H1198 0.950 . S
C1221 C1220 1.334 . S
C1221 C1222 1.287 . S
C1222 C1221 1.287 . S
C1222 C1223 1.524 . S
C1222 H1241 0.913 . S
C1223 H1199 0.950 . S
C1223 C1222 1.524 . S
C1223 C1224 1.415 . S
C1224 H1200 0.950 . S
C1224 C1219 1.363 . S
C1224 C1223 1.415 . S
C1225 H1201 0.951 . S
C1225 C1226 1.366 1_455 S
C1225 C1227 1.388 . S
C1226 C1225 1.366 1_655 S
C1226 C1230 1.385 . S
C1227 H1202 0.951 . S
C1227 C1225 1.388 . S
C1227 C1228 1.366 1_455 S
C1228 C1227 1.366 1_655 S
C1228 C1229 1.414 . S
C1228 C1231 1.499 . S
C1229 H1203 0.950 . S
C1229 C1228 1.414 . S
C1229 C1230 1.374 . S
C1230 H1204 0.950 . S
C1230 C1226 1.385 . S
C1230 C1229 1.374 . S
C1231 C1228 1.499 . S
C1231 C1232 1.373 . S
C1231 C1233 1.389 1_655 S
C1232 H1205 0.950 . S
C1232 C1218 1.377 . S
C1232 C1231 1.373 . S
C1233 C1217 1.377 . S
C1233 C1231 1.389 1_455 S
C1233 C1234 1.524 . S
C1234 C1233 1.524 . S
C1234 C1235 1.397 . S
C1234 C1239 1.363 . S
C1235 H1206 0.950 . S
C1235 C1234 1.397 . S
C1235 C1236 1.334 . S
C1236 H1207 0.950 . S
C1236 C1235 1.334 . S
C1236 C1237 1.287 . S
C1237 C1236 1.287 . S
C1237 C1238 1.524 . S
C1237 H1240 0.999 . S
C1238 H1208 0.950 . S
C1238 C1237 1.524 . S
C1238 C1239 1.415 . S
C1239 H1209 0.950 . S
C1239 C1234 1.363 . S
C1239 C1238 1.415 . S
H1240 C1237 0.999 . S
H1241 C1222 0.913 . S
H1242 C1260 0.951 . S
H1243 C1262 0.951 . S
H1244 C1264 0.950 . S
H1245 C1265 0.950 . S
H1246 C1267 0.950 . S
H1247 C1270 0.950 . S
H1248 C1271 0.956 . S
H1249 C1273 0.950 . S
H1250 C1274 0.950 . S
H1251 C1275 0.951 . S
H1252 C1277 0.951 . S
H1253 C1279 0.950 . S
H1254 C1280 0.950 1_545 S
H1255 C1282 0.950 . S
H1256 C1285 0.950 . S
H1257 C1286 0.950 . S
H1258 C1288 0.950 . S
H1259 C1289 0.950 . S
C1260 H1242 0.951 . S
C1260 C1261 1.366 . S
C1260 C1262 1.388 . S
C1261 C1260 1.366 . S
C1261 C1265 1.385 . S
C1262 H1243 0.951 . S
C1262 C1260 1.388 . S
C1262 C1263 1.366 . S
C1263 C1262 1.366 . S
C1263 C1264 1.414 . S
C1263 C1266 1.499 . S
C1264 H1244 0.950 . S
C1264 C1263 1.414 . S
C1264 C1265 1.374 . S
C1265 H1245 0.950 . S
C1265 C1261 1.385 . S
C1265 C1264 1.374 . S
C1266 C1263 1.499 . S
C1266 C1267 1.373 . S
C1266 C1268 1.389 . S
C1267 H1246 0.950 . S
C1267 C1266 1.373 . S
C1267 C1283 1.377 . S
C1268 C1266 1.389 . S
C1268 C1269 1.524 . S
C1268 C1282 1.377 . S
C1269 C1268 1.524 . S
C1269 C1270 1.397 . S
C1269 C1274 1.363 1_565 S
C1270 H1247 0.950 . S
C1270 C1269 1.397 . S
C1270 C1271 1.334 1_565 S
C1271 H1248 0.956 . S
C1271 C1270 1.334 1_545 S
C1271 C1272 1.287 . S
C1272 C1271 1.287 . S
C1272 C1273 1.524 . S
C1272 H1291 0.913 . S
C1273 H1249 0.950 . S
C1273 C1272 1.524 . S
C1273 C1274 1.415 . S
C1274 H1250 0.950 . S
C1274 C1269 1.363 1_545 S
C1274 C1273 1.415 . S
C1275 H1251 0.951 . S
C1275 C1276 1.366 . S
C1275 C1277 1.388 . S
C1276 C1275 1.366 . S
C1276 C1280 1.385 . S
C1277 H1252 0.951 . S
C1277 C1275 1.388 . S
C1277 C1278 1.366 . S
C1278 C1277 1.366 . S
C1278 C1279 1.414 . S
C1278 C1281 1.499 . S
C1279 H1253 0.950 . S
C1279 C1278 1.414 . S
C1279 C1280 1.374 . S
C1280 H1254 0.950 1_565 S
C1280 C1276 1.385 . S
C1280 C1279 1.374 . S
C1281 C1278 1.499 . S
C1281 C1282 1.373 . S
C1281 C1283 1.389 . S
C1282 H1255 0.950 . S
C1282 C1268 1.377 . S
C1282 C1281 1.373 . S
C1283 C1267 1.377 . S
C1283 C1281 1.389 . S
C1283 C1284 1.524 . S
C1284 C1283 1.524 . S
C1284 C1285 1.397 . S
C1284 C1289 1.363 . S
C1285 H1256 0.950 . S
C1285 C1284 1.397 . S
C1285 C1286 1.334 . S
C1286 H1257 0.950 . S
C1286 C1285 1.334 . S
C1286 C1287 1.287 . S
C1287 C1286 1.287 . S
C1287 C1288 1.524 . S
C1287 H1290 0.999 . S
C1288 H1258 0.950 . S
C1288 C1287 1.524 . S
C1288 C1289 1.415 . S
C1289 H1259 0.950 . S
C1289 C1284 1.363 . S
C1289 C1288 1.415 . S
H1290 C1287 0.999 . S
H1291 C1272 0.913 . S
H1292 C1310 0.951 . S
H1293 C1312 0.951 . S
H1294 C1314 0.950 . S
H1295 C1315 0.950 . S
H1296 C1317 0.950 . S
H1297 C1320 0.950 . S
H1298 C1321 0.950 . S
H1299 C1323 0.950 . S
H1300 C1324 0.950 . S
H1301 C1325 0.951 . S
H1302 C1327 0.951 . S
H1303 C1329 0.950 . S
H1304 C1330 0.950 . S
H1305 C1332 0.950 . S
H1306 C1335 0.950 . S
H1307 C1336 0.950 . S
H1308 C1338 0.950 . S
H1309 C1339 0.950 . S
C1310 H1292 0.951 . S
C1310 C1311 1.366 . S
C1310 C1312 1.388 . S
C1311 C1310 1.366 . S
C1311 C1315 1.385 . S
C1312 H1293 0.951 . S
C1312 C1310 1.388 . S
C1312 C1313 1.366 . S
C1313 C1312 1.366 . S
C1313 C1314 1.414 . S
C1313 C1316 1.499 . S
C1314 H1294 0.950 . S
C1314 C1313 1.414 . S
C1314 C1315 1.374 . S
C1315 H1295 0.950 . S
C1315 C1311 1.385 . S
C1315 C1314 1.374 . S
C1316 C1313 1.499 . S
C1316 C1317 1.373 . S
C1316 C1318 1.389 . S
C1317 H1296 0.950 . S
C1317 C1316 1.373 . S
C1317 C1333 1.377 . S
C1318 C1316 1.389 . S
C1318 C1319 1.524 . S
C1318 C1332 1.377 . S
C1319 C1318 1.524 . S
C1319 C1320 1.397 . S
C1319 C1324 1.363 . S
C1320 H1297 0.950 . S
C1320 C1319 1.397 . S
C1320 C1321 1.334 . S
C1321 H1298 0.950 . S
C1321 C1320 1.334 . S
C1321 C1322 1.287 . S
C1322 C1321 1.287 . S
C1322 C1323 1.524 . S
C1322 H1341 0.913 . S
C1323 H1299 0.950 . S
C1323 C1322 1.524 . S
C1323 C1324 1.415 . S
C1324 H1300 0.950 . S
C1324 C1319 1.363 . S
C1324 C1323 1.415 . S
C1325 H1301 0.951 . S
C1325 C1326 1.366 . S
C1325 C1327 1.388 . S
C1326 C1325 1.366 . S
C1326 C1330 1.385 . S
C1327 H1302 0.951 . S
C1327 C1325 1.388 . S
C1327 C1328 1.366 . S
C1328 C1327 1.366 . S
C1328 C1329 1.414 . S
C1328 C1331 1.499 . S
C1329 H1303 0.950 . S
C1329 C1328 1.414 . S
C1329 C1330 1.374 . S
C1330 H1304 0.950 . S
C1330 C1326 1.385 . S
C1330 C1329 1.374 . S
C1331 C1328 1.499 . S
C1331 C1332 1.373 . S
C1331 C1333 1.389 . S
C1332 H1305 0.950 . S
C1332 C1318 1.377 . S
C1332 C1331 1.373 . S
C1333 C1317 1.377 . S
C1333 C1331 1.389 . S
C1333 C1334 1.524 . S
C1334 C1333 1.524 . S
C1334 C1335 1.397 . S
C1334 C1339 1.363 . S
C1335 H1306 0.950 . S
C1335 C1334 1.397 . S
C1335 C1336 1.334 . S
C1336 H1307 0.950 . S
C1336 C1335 1.334 . S
C1336 C1337 1.287 . S
C1337 C1336 1.287 . S
C1337 C1338 1.524 . S
C1337 H1340 0.999 . S
C1338 H1308 0.950 . S
C1338 C1337 1.524 . S
C1338 C1339 1.415 . S
C1339 H1309 0.950 . S
C1339 C1334 1.363 . S
C1339 C1338 1.415 . S
H1340 C1337 0.999 . S
H1341 C1322 0.913 . S
H1342 C1360 0.951 . S
H1343 C1362 0.951 . S
H1344 C1364 0.950 . S
H1345 C1365 0.950 . S
H1346 C1367 0.950 . S
H1347 C1370 0.950 . S
H1348 C1371 0.950 . S
H1349 C1373 0.950 . S
H1350 C1374 0.950 . S
H1351 C1375 0.951 . S
H1352 C1377 0.951 . S
H1353 C1379 0.950 . S
H1354 C1380 0.950 . S
H1355 C1382 0.950 . S
H1356 C1385 0.950 . S
H1357 C1386 0.950 . S
H1358 C1388 0.950 . S
H1359 C1389 0.950 . S
C1360 H1342 0.951 . S
C1360 C1361 1.366 . S
C1360 C1362 1.388 . S
C1361 C1360 1.366 . S
C1361 C1365 1.385 . S
C1362 H1343 0.951 . S
C1362 C1360 1.388 . S
C1362 C1363 1.366 . S
C1363 C1362 1.366 . S
C1363 C1364 1.414 . S
C1363 C1366 1.499 . S
C1364 H1344 0.950 . S
C1364 C1363 1.414 . S
C1364 C1365 1.374 . S
C1365 H1345 0.950 . S
C1365 C1361 1.385 . S
C1365 C1364 1.374 . S
C1366 C1363 1.499 . S
C1366 C1367 1.373 . S
C1366 C1368 1.389 . S
C1367 H1346 0.950 . S
C1367 C1366 1.373 . S
C1367 C1383 1.377 . S
C1368 C1366 1.389 . S
C1368 C1369 1.524 . S
C1368 C1382 1.377 . S
C1369 C1368 1.524 . S
C1369 C1370 1.397 . S
C1369 C1374 1.363 . S
C1370 H1347 0.950 . S
C1370 C1369 1.397 . S
C1370 C1371 1.334 . S
C1371 H1348 0.950 . S
C1371 C1370 1.334 . S
C1371 C1372 1.287 . S
C1372 C1371 1.287 . S
C1372 C1373 1.524 . S
C1372 H1391 0.913 . S
C1373 H1349 0.950 . S
C1373 C1372 1.524 . S
C1373 C1374 1.415 . S
C1374 H1350 0.950 . S
C1374 C1369 1.363 . S
C1374 C1373 1.415 . S
C1375 H1351 0.951 . S
C1375 C1376 1.366 . S
C1375 C1377 1.388 . S
C1376 C1375 1.366 . S
C1376 C1380 1.385 . S
C1377 H1352 0.951 . S
C1377 C1375 1.388 . S
C1377 C1378 1.366 . S
C1378 C1377 1.366 . S
C1378 C1379 1.414 . S
C1378 C1381 1.499 . S
C1379 H1353 0.950 . S
C1379 C1378 1.414 . S
C1379 C1380 1.374 . S
C1380 H1354 0.950 . S
C1380 C1376 1.385 . S
C1380 C1379 1.374 . S
C1381 C1378 1.499 . S
C1381 C1382 1.373 . S
C1381 C1383 1.389 . S
C1382 H1355 0.950 . S
C1382 C1368 1.377 . S
C1382 C1381 1.373 . S
C1383 C1367 1.377 . S
C1383 C1381 1.389 . S
C1383 C1384 1.524 . S
C1384 C1383 1.524 . S
C1384 C1385 1.397 . S
C1384 C1389 1.363 . S
C1385 H1356 0.950 . S
C1385 C1384 1.397 . S
C1385 C1386 1.334 . S
C1386 H1357 0.950 . S
C1386 C1385 1.334 . S
C1386 C1387 1.287 . S
C1387 C1386 1.287 . S
C1387 C1388 1.524 . S
C1387 H1390 0.999 . S
C1388 H1358 0.950 . S
C1388 C1387 1.524 . S
C1388 C1389 1.415 . S
C1389 H1359 0.950 . S
C1389 C1384 1.363 . S
C1389 C1388 1.415 . S
H1390 C1387 0.999 . S
H1391 C1372 0.913 . S
C211 C61 1.624 . S
C226 C82 1.644 . S
C276 C112 1.651 . S
C261 C70 1.641 . S
C326 N146 1.461 . S
C311 C43 1.473 . S
C376 N176 1.167 . S
C361 C52 1.195 . S
C426 C73 1.649 1_565 S
C411 C25 1.634 . S
C461 C34 1.642 . S
C476 C103 1.651 . S
C511 C7 1.477 . S
C526 N138 1.462 . S
C561 C16 1.196 1_455 S
C576 N168 1.170 . S
C626 C88 0.509 . S
C611 C50 0.496 1_455 S
C676 C118 0.243 . S
C661 C59 0.390 . S
C726 C159 0.398 . S
C711 C67 0.408 . S
C761 C41 0.381 . S
C776 C189 0.279 . S
C811 C14 0.495 . S
C826 C99 0.504 . S
C876 C129 0.243 . S
C861 C23 0.365 . S
C926 C148 0.398 . S
C911 C31 0.406 . S
C961 C5 0.351 . S
C976 C178 0.287 . S
C1011 C49 1.326 1_455 S
C1026 N78 1.319 . S
C1061 C58 1.457 . S
C1076 N108 1.455 . S
C1126 C133 1.593 . S
C1111 C68 1.552 . S
C1176 C163 1.763 . S
C1161 C40 1.704 . S
C1211 C13 1.327 . S
C1226 N86 1.322 . S
C1276 N116 1.455 . S
C1261 C22 1.459 . S
C1326 C142 1.592 . S
C1311 C32 1.554 . S
C1361 C4 1.709 . S
C1376 C172 1.767 . S
