# Generated by pormake.
# Topology ssa, (4,4)-cn, num edge types: 1
# Building blocks:
#     Node 0, Type 0, BuildingBlock: ESEHIV_clean_sbu_0, # of connection points: 4
#     Node 1, Type 0, BuildingBlock: ESEHIV_clean_sbu_0, # of connection points: 4
#     Node 2, Type 0, BuildingBlock: ESEHIV_clean_sbu_0, # of connection points: 4
#     Node 3, Type 0, BuildingBlock: ESEHIV_clean_sbu_0, # of connection points: 4
#     Node 4, Type 0, BuildingBlock: ESEHIV_clean_sbu_0, # of connection points: 4
#     Node 5, Type 0, BuildingBlock: ESEHIV_clean_sbu_0, # of connection points: 4
#     Node 6, Type 1, BuildingBlock: MIFKUJ_clean_linker_1, # of connection points: 4
#     Node 7, Type 1, BuildingBlock: MIFKUJ_clean_linker_1, # of connection points: 4
#     Node 8, Type 1, BuildingBlock: MIFKUJ_clean_linker_1, # of connection points: 4
#     Node 9, Type 1, BuildingBlock: MIFKUJ_clean_linker_1, # of connection points: 4
#     Node 10, Type 1, BuildingBlock: MIFKUJ_clean_linker_1, # of connection points: 4
#     Node 11, Type 1, BuildingBlock: MIFKUJ_clean_linker_1, # of connection points: 4
#     Edge 12, Type (0, 1), BuildingBlock: TEMPAE_clean_linker_10, # of connection points: 2
#     Edge 13, Type (0, 1), BuildingBlock: TEMPAE_clean_linker_10, # of connection points: 2
#     Edge 14, Type (0, 1), BuildingBlock: TEMPAE_clean_linker_10, # of connection points: 2
#     Edge 15, Type (0, 1), BuildingBlock: TEMPAE_clean_linker_10, # of connection points: 2
#     Edge 16, Type (0, 1), BuildingBlock: TEMPAE_clean_linker_10, # of connection points: 2
#     Edge 17, Type (0, 1), BuildingBlock: TEMPAE_clean_linker_10, # of connection points: 2
#     Edge 18, Type (0, 1), BuildingBlock: TEMPAE_clean_linker_10, # of connection points: 2
#     Edge 19, Type (0, 1), BuildingBlock: TEMPAE_clean_linker_10, # of connection points: 2
#     Edge 20, Type (0, 1), BuildingBlock: TEMPAE_clean_linker_10, # of connection points: 2
#     Edge 21, Type (0, 1), BuildingBlock: TEMPAE_clean_linker_10, # of connection points: 2
#     Edge 22, Type (0, 1), BuildingBlock: TEMPAE_clean_linker_10, # of connection points: 2
#     Edge 23, Type (0, 1), BuildingBlock: TEMPAE_clean_linker_10, # of connection points: 2
#     Edge 24, Type (0, 1), BuildingBlock: TEMPAE_clean_linker_10, # of connection points: 2
#     Edge 25, Type (0, 1), BuildingBlock: TEMPAE_clean_linker_10, # of connection points: 2
#     Edge 26, Type (0, 1), BuildingBlock: TEMPAE_clean_linker_10, # of connection points: 2
#     Edge 27, Type (0, 1), BuildingBlock: TEMPAE_clean_linker_10, # of connection points: 2
#     Edge 28, Type (0, 1), BuildingBlock: TEMPAE_clean_linker_10, # of connection points: 2
#     Edge 29, Type (0, 1), BuildingBlock: TEMPAE_clean_linker_10, # of connection points: 2
#     Edge 30, Type (0, 1), BuildingBlock: TEMPAE_clean_linker_10, # of connection points: 2
#     Edge 31, Type (0, 1), BuildingBlock: TEMPAE_clean_linker_10, # of connection points: 2
#     Edge 32, Type (0, 1), BuildingBlock: TEMPAE_clean_linker_10, # of connection points: 2
#     Edge 33, Type (0, 1), BuildingBlock: TEMPAE_clean_linker_10, # of connection points: 2
#     Edge 34, Type (0, 1), BuildingBlock: TEMPAE_clean_linker_10, # of connection points: 2
#     Edge 35, Type (0, 1), BuildingBlock: TEMPAE_clean_linker_10, # of connection points: 2
# Relax obj value: 0.007
# Max RMSD: 0.106
# Mean RMSD: 0.056
data_MOF--net-ssa--node1-ESEHIV_clean_sbu_0--node2-MIFKUJ_clean_linker_1--edge1-TEMPAE_clean_linker_10
_symmetry_space_group_name_H-M    P1
_symmetry_Int_Tables_number       1
_symmetry_cell_setting            triclinic
loop_
_symmetry_equiv_pos_as_xyz
'x, y, z'
_cell_length_a     61.066066
_cell_length_b     64.602974
_cell_length_c     40.210649
_cell_angle_alpha  88.157329
_cell_angle_beta   90.876431
_cell_angle_gamma 122.08647
loop_
_atom_site_label
_atom_site_type_symbol
_atom_site_fract_x
_atom_site_fract_y
_atom_site_fract_z
_atom_type_partial_charge
Cu0 Cu 0.99626 0.50944 0.01551 0.0
N1 N 0.96949 0.47718 0.02164 0.0
N2 N 0.9392 0.43941 0.00729 0.0
C3 C 0.95667 0.46233 0.99645 0.0
C4 C 0.94097 0.4399 0.04081 0.0
C5 C 0.95988 0.46329 0.04962 0.0
O6 O 0.98769 0.51985 0.97371 0.0
C7 C 0.0508 0.52655 0.01152 0.0
O8 O 0.05478 0.54755 0.99999 0.0
H9 H 0.96026 0.46832 0.97057 0.0
H10 H 0.96649 0.46959 0.07451 0.0
N11 N 0.99757 0.52758 0.05153 0.0
N12 N 0.01496 0.55341 0.09332 0.0
C13 C 0.01929 0.54644 0.06422 0.0
C14 C 0.97869 0.52254 0.0733 0.0
C15 C 0.98943 0.53841 0.09931 0.0
C16 C 0.9834 0.53709 0.97075 0.0
O17 O 0.98958 0.55222 0.99523 0.0
H18 H 0.03825 0.55395 0.05354 0.0
H19 H 0.9588 0.50763 0.07122 0.0
O20 O 0.02775 0.50866 0.0163 0.0
H21 H 0.92998 0.42436 0.05765 0.0
H22 H 0.97947 0.53847 0.12131 0.0
Cu23 Cu 0.51003 0.016 0.49222 0.0
N24 N 0.52191 0.01262 0.45129 0.0
N25 N 0.5289 0.99332 0.41158 0.0
C26 C 0.51662 0.99094 0.44035 0.0
C27 C 0.54247 0.01748 0.40395 0.0
C28 C 0.53793 0.02936 0.42837 0.0
O29 O 0.47777 0.98523 0.49919 0.0
C30 C 0.55846 0.03681 0.52167 0.0
O31 O 0.56571 0.04709 0.4919 0.0
H32 H 0.50485 0.97382 0.45402 0.0
H33 H 0.54643 0.04886 0.42985 0.0
N34 N 0.50566 0.04255 0.49322 0.0
N35 N 0.50341 0.07281 0.51505 0.0
C36 C 0.50265 0.05176 0.52119 0.0
C37 C 0.50825 0.05822 0.46845 0.0
C38 C 0.50695 0.07696 0.48188 0.0
C39 C 0.45784 0.9813 0.48324 0.0
O40 O 0.45828 0.99973 0.46772 0.0
H41 H 0.50122 0.0438 0.54578 0.0
H42 H 0.51161 0.05656 0.44264 0.0
O43 O 0.53461 0.0213 0.52709 0.0
H44 H 0.55503 0.02594 0.38255 0.0
H45 H 0.50882 0.0926 0.46839 0.0
Cu46 Cu 0.53862 0.51895 0.03074 0.0
N47 N 0.53515 0.4884 0.03325 0.0
N48 N 0.53018 0.45384 0.01471 0.0
C49 C 0.53168 0.47499 0.00649 0.0
C50 C 0.53294 0.45407 0.04815 0.0
C51 C 0.53601 0.47543 0.05952 0.0
O52 O 0.56069 0.53552 0.99258 0.0
C53 C 0.48554 0.49759 0.04 0.0
O54 O 0.48745 0.48013 0.05456 0.0
H55 H 0.5308 0.48101 0.98135 0.0
H56 H 0.5386 0.48106 0.08506 0.0
N57 N 0.55256 0.53719 0.06908 0.0
N58 N 0.55964 0.56441 0.10747 0.0
C59 C 0.54678 0.55335 0.0795 0.0
C60 C 0.56957 0.53786 0.09138 0.0
C61 C 0.57411 0.55478 0.11501 0.0
C62 C 0.584 0.5411 0.99491 0.0
O63 O 0.59238 0.53818 0.02388 0.0
H64 H 0.53371 0.55725 0.06635 0.0
H65 H 0.57817 0.52694 0.09045 0.0
O66 O 0.50522 0.51531 0.02539 0.0
H67 H 0.53249 0.43975 0.06342 0.0
H68 H 0.58688 0.55947 0.13621 0.0
Cu69 Cu 0.99912 0.47277 0.49984 0.0
N70 N 1.0008 0.45968 0.46025 0.0
N71 N 0.01872 0.45597 0.41471 0.0
C72 C 0.02146 0.47036 0.43998 0.0
C73 C 0.99524 0.43537 0.4192 0.0
C74 C 0.98415 0.43776 0.44737 0.0
O75 O 0.03412 0.50149 0.50512 0.0
C76 C 0.98436 0.4495 0.56531 0.0
O77 O 0.99597 0.47168 0.57689 0.0
H78 H 0.03877 0.48785 0.44473 0.0
H79 H 0.96573 0.42421 0.45832 0.0
N80 N 0.97526 0.4822 0.49493 0.0
N81 N 0.94768 0.49315 0.50878 0.0
C82 C 0.96377 0.48618 0.51996 0.0
C83 C 0.96598 0.48657 0.46678 0.0
C84 C 0.9488 0.49327 0.47528 0.0
C85 C 0.03886 0.52325 0.50557 0.0
O86 O 0.0198 0.52656 0.51098 0.0
H87 H 0.96704 0.48391 0.54593 0.0
H88 H 0.97142 0.48508 0.44191 0.0
O89 O 0.98579 0.44682 0.53432 0.0
H90 H 0.98693 0.41952 0.40374 0.0
H91 H 0.9383 0.49819 0.45823 0.0
Cu92 Cu 0.51081 0.00817 0.04599 0.0
N93 N 0.50662 0.03476 0.04439 0.0
N94 N 0.50724 0.06733 0.02288 0.0
C95 C 0.51681 0.05284 0.02104 0.0
C96 C 0.49088 0.05852 0.04905 0.0
C97 C 0.4905 0.03831 0.06228 0.0
O98 O 0.52809 0.00945 0.00483 0.0
C99 C 0.47504 0.95727 0.05911 0.0
O100 O 0.49424 0.95501 0.05014 0.0
H101 H 0.53015 0.0548 1.00202 0.0
H102 H 0.47827 0.02626 0.08227 0.0
N103 N 0.53294 0.01178 0.08061 0.0
N104 N 0.55561 1.00186 0.11423 0.0
C105 C 0.54408 0.9987 0.08433 0.0
C106 C 0.53784 0.02409 0.10887 0.0
C107 C 0.55184 0.01797 0.12976 0.0
C108 C 0.5213 0.013 0.97617 0.0
O109 O 0.49841 0.01014 0.97277 0.0
H110 H 0.54209 0.98572 0.06634 0.0
H111 H 0.53056 0.03561 0.11458 0.0
O112 O 0.47762 0.97816 0.05608 0.0
H113 H 0.47875 0.06513 0.05651 0.0
H114 H 0.55773 0.02406 0.15491 0.0
Cu115 Cu 0.4779 0.49354 0.52296 0.0
N116 N 0.47995 0.52284 0.53051 0.0
N117 N 0.48211 0.55761 0.51688 0.0
C118 C 0.47717 0.53602 0.50619 0.0
C119 C 0.48822 0.55816 0.54933 0.0
C120 C 0.48664 0.53651 0.5578 0.0
O121 O 0.46484 0.48588 0.47728 0.0
C122 C 0.51927 0.50082 0.5613 0.0
O123 O 0.50379 0.5005 0.5839 0.0
H124 H 0.473 0.5305 0.48061 0.0
H125 H 0.49079 0.53155 0.58191 0.0
N126 N 0.45538 0.46927 0.55327 0.0
N127 N 0.44236 0.43786 0.58921 0.0
C128 C 0.45596 0.44921 0.5613 0.0
C129 C 0.4406 0.47054 0.57661 0.0
C130 C 0.4326 0.45115 0.59898 0.0
C131 C 0.44074 0.47164 0.47157 0.0
O132 O 0.42536 0.45825 0.49622 0.0
H133 H 0.46823 0.44446 0.54882 0.0
H134 H 0.43755 0.48548 0.57865 0.0
O135 O 0.51203 0.49812 0.53092 0.0
H136 H 0.49393 0.57331 0.56548 0.0
H137 H 0.42173 0.44789 0.62163 0.0
H138 H 0.21526 0.47894 0.14303 0.0
H139 H 0.18422 0.48342 0.10946 0.0
H140 H 0.19764 0.54316 0.17002 0.0
H141 H 0.2284 0.53835 0.20368 0.0
H142 H 0.26528 0.50812 0.15436 0.0
H143 H 0.18998 0.46778 0.21946 0.0
H144 H 0.15164 0.46124 0.24784 0.0
H145 H 0.20028 0.5202 0.31337 0.0
H146 H 0.2387 0.52688 0.28459 0.0
H147 H 0.31104 0.53262 0.2838 0.0
H148 H 0.34221 0.52952 0.31897 0.0
H149 H 0.32406 0.46393 0.26907 0.0
H150 H 0.29356 0.46772 0.23329 0.0
H151 H 0.25792 0.49897 0.27735 0.0
H152 H 0.33435 0.53698 0.20596 0.0
H153 H 0.36923 0.5387 0.17429 0.0
H154 H 0.31286 0.47552 0.12003 0.0
H155 H 0.27816 0.47407 0.15151 0.0
C156 C 0.22405 0.50814 0.17613 0.0
C157 C 0.2116 0.49307 0.14899 0.0
C158 C 0.19388 0.49572 0.12973 0.0
C159 C 0.18832 0.51364 0.13699 0.0
C160 C 0.20107 0.52889 0.16399 0.0
C161 C 0.21874 0.5262 0.18326 0.0
C162 C 0.24268 0.50509 0.19689 0.0
C163 C 0.26347 0.50584 0.18123 0.0
C164 C 0.24042 0.5021 0.23197 0.0
C165 C 0.21722 0.49806 0.24958 0.0
C166 C 0.19241 0.47951 0.23967 0.0
C167 C 0.17051 0.47578 0.25589 0.0
C168 C 0.17297 0.49031 0.28268 0.0
C169 C 0.19782 0.50864 0.29291 0.0
C170 C 0.21976 0.51248 0.27651 0.0
C171 C 0.30001 0.5005 0.25576 0.0
C172 C 0.31386 0.51763 0.28038 0.0
C173 C 0.33162 0.51572 0.30062 0.0
C174 C 0.33573 0.4964 0.29712 0.0
C175 C 0.32184 0.4793 0.27226 0.0
C176 C 0.30423 0.48135 0.25182 0.0
C177 C 0.28075 0.50241 0.23482 0.0
C178 C 0.25976 0.50137 0.2505 0.0
C179 C 0.28238 0.50438 0.19965 0.0
C180 C 0.3037 0.50527 0.18125 0.0
C181 C 0.32956 0.5234 0.18742 0.0
C182 C 0.34945 0.52437 0.16929 0.0
C183 C 0.34379 0.50729 0.14458 0.0
C184 C 0.31784 0.48918 0.1385 0.0
C185 C 0.29801 0.48824 0.15659 0.0
H186 H 0.69642 0.20492 0.8193 0.0
H187 H 0.65898 0.17045 0.84733 0.0
H188 H 0.68656 0.12355 0.82217 0.0
H189 H 0.72332 0.15798 0.793 0.0
H190 H 0.74892 0.22616 0.83041 0.0
H191 H 0.68914 0.18882 0.74362 0.0
H192 H 0.65721 0.15529 0.70997 0.0
H193 H 0.7159 0.142 0.67826 0.0
H194 H 0.74768 0.17516 0.71315 0.0
H195 H 0.81668 0.24552 0.71783 0.0
H196 H 0.85272 0.27998 0.68744 0.0
H197 H 0.82822 0.32746 0.72087 0.0
H198 H 0.79188 0.29283 0.75045 0.0
H199 H 0.76525 0.22403 0.71046 0.0
H200 H 0.82585 0.26541 0.79968 0.0
H201 H 0.85419 0.2985 0.83684 0.0
H202 H 0.79009 0.30534 0.86371 0.0
H203 H 0.76209 0.27275 0.8259 0.0
C204 C 0.71266 0.18406 0.80394 0.0
C205 C 0.69438 0.1872 0.81988 0.0
C206 C 0.67299 0.16741 0.83607 0.0
C207 C 0.66957 0.14402 0.83724 0.0
C208 C 0.68813 0.14106 0.82139 0.0
C209 C 0.70934 0.16081 0.80485 0.0
C210 C 0.73514 0.20508 0.78621 0.0
C211 C 0.75237 0.22583 0.80409 0.0
C212 C 0.73983 0.20454 0.752 0.0
C213 C 0.72072 0.1843 0.73115 0.0
C214 C 0.69508 0.1785 0.72976 0.0
C215 C 0.6769 0.15946 0.7103 0.0
C216 C 0.68404 0.14601 0.69146 0.0
C217 C 0.70975 0.15184 0.69286 0.0
C218 C 0.72797 0.17091 0.71247 0.0
C219 C 0.8016 0.26651 0.73678 0.0
C220 C 0.81905 0.26334 0.71862 0.0
C221 C 0.8398 0.28315 0.70144 0.0
C222 C 0.8435 0.3066 0.70172 0.0
C223 C 0.82591 0.30968 0.71983 0.0
C224 C 0.80522 0.28989 0.73708 0.0
C225 C 0.77932 0.24528 0.75473 0.0
C226 C 0.76203 0.22439 0.73683 0.0
C227 C 0.77432 0.24589 0.78888 0.0
C228 C 0.79193 0.26676 0.80986 0.0
C229 C 0.81803 0.2743 0.81321 0.0
C230 C 0.83411 0.29301 0.8347 0.0
C231 C 0.82432 0.30445 0.85326 0.0
C232 C 0.79825 0.29705 0.8495 0.0
C233 C 0.7822 0.27835 0.82807 0.0
H234 H 0.56813 0.82395 0.33855 0.0
H235 H 0.56498 0.85772 0.35807 0.0
H236 H 0.50688 0.84235 0.28339 0.0
H237 H 0.51104 0.80931 0.26328 0.0
H238 H 0.52923 0.77242 0.32957 0.0
H239 H 0.59054 0.84464 0.26817 0.0
H240 H 0.59723 0.88194 0.2415 0.0
H241 H 0.54341 0.8392 0.16408 0.0
H242 H 0.5355 0.80176 0.19239 0.0
H243 H 0.52848 0.7357 0.19992 0.0
H244 H 0.53122 0.70306 0.17514 0.0
H245 H 0.57591 0.70272 0.25916 0.0
H246 H 0.57364 0.73579 0.28358 0.0
H247 H 0.56276 0.78095 0.21502 0.0
H248 H 0.50436 0.70698 0.27837 0.0
H249 H 0.49129 0.67124 0.31532 0.0
H250 H 0.5399 0.71874 0.39282 0.0
H251 H 0.55416 0.75433 0.3555 0.0
C252 C 0.53989 0.81419 0.29945 0.0
C253 C 0.55455 0.82775 0.32666 0.0
C254 C 0.55265 0.84705 0.33781 0.0
C255 C 0.53571 0.85295 0.32229 0.0
C256 C 0.52051 0.83876 0.29558 0.0
C257 C 0.52265 0.81966 0.28424 0.0
C258 C 0.54379 0.79533 0.28554 0.0
C259 C 0.5369 0.77429 0.30474 0.0
C260 C 0.55362 0.7979 0.25306 0.0
C261 C 0.56205 0.82042 0.23269 0.0
C262 C 0.58039 0.84335 0.24525 0.0
C263 C 0.58436 0.86471 0.22976 0.0
C264 C 0.57051 0.8636 0.2009 0.0
C265 C 0.55386 0.84068 0.18678 0.0
C266 C 0.54958 0.81926 0.20263 0.0
C267 C 0.55056 0.73808 0.24387 0.0
C268 C 0.53908 0.72878 0.21292 0.0
C269 C 0.54065 0.71011 0.19876 0.0
C270 C 0.55367 0.70022 0.21527 0.0
C271 C 0.56544 0.70972 0.24606 0.0
C272 C 0.56413 0.72863 0.26004 0.0
C273 C 0.54808 0.75751 0.25907 0.0
C274 C 0.55527 0.77887 0.24001 0.0
C275 C 0.53885 0.75529 0.29205 0.0
C276 C 0.53061 0.73338 0.31392 0.0
C277 C 0.51261 0.70972 0.30306 0.0
C278 C 0.50499 0.68936 0.32416 0.0
C279 C 0.51462 0.69247 0.35671 0.0
C280 C 0.5322 0.71605 0.3678 0.0
C281 C 0.54027 0.73631 0.34651 0.0
H282 H 0.70545 0.48094 0.68695 0.0
H283 H 0.67008 0.47748 0.65318 0.0
H284 H 0.6898 0.54886 0.684 0.0
H285 H 0.72574 0.55258 0.71667 0.0
H286 H 0.7559 0.5121 0.68195 0.0
H287 H 0.69186 0.4924 0.76611 0.0
H288 H 0.66133 0.49744 0.79812 0.0
H289 H 0.72367 0.56882 0.82717 0.0
H290 H 0.75389 0.56401 0.79421 0.0
H291 H 0.81527 0.5592 0.80319 0.0
H292 H 0.85048 0.56182 0.83669 0.0
H293 H 0.83777 0.49632 0.79281 0.0
H294 H 0.80142 0.49263 0.76095 0.0
H295 H 0.76764 0.53101 0.80176 0.0
H296 H 0.83138 0.55254 0.71593 0.0
H297 H 0.86176 0.54968 0.68016 0.0
H298 H 0.80073 0.47738 0.65223 0.0
H299 H 0.77074 0.48011 0.68856 0.0
C300 C 0.71816 0.51691 0.70473 0.0
C301 C 0.7022 0.49589 0.68637 0.0
C302 C 0.68184 0.49386 0.66722 0.0
C303 C 0.67699 0.51287 0.66582 0.0
C304 C 0.6931 0.53397 0.68412 0.0
C305 C 0.7135 0.536 0.70322 0.0
C306 C 0.74015 0.51908 0.72449 0.0
C307 C 0.75828 0.51591 0.70829 0.0
C308 C 0.74382 0.52487 0.75859 0.0
C309 C 0.72513 0.52791 0.77759 0.0
C310 C 0.69887 0.50926 0.77901 0.0
C311 C 0.68148 0.5121 0.7975 0.0
C312 C 0.69007 0.53356 0.81512 0.0
C313 C 0.71636 0.55224 0.81346 0.0
C314 C 0.73371 0.54941 0.79494 0.0
C315 C 0.8057 0.52593 0.77886 0.0
C316 C 0.81982 0.54524 0.80083 0.0
C317 C 0.84004 0.54682 0.8199 0.0
C318 C 0.84694 0.5294 0.81704 0.0
C319 C 0.83303 0.51017 0.79509 0.0
C320 C 0.81236 0.50821 0.77665 0.0
C321 C 0.78364 0.52404 0.75921 0.0
C322 C 0.76542 0.52725 0.77542 0.0
C323 C 0.78 0.51855 0.72494 0.0
C324 C 0.79888 0.51646 0.70504 0.0
C325 C 0.8247 0.53596 0.70245 0.0
C326 C 0.84193 0.5344 0.6818 0.0
C327 C 0.83359 0.51332 0.66338 0.0
C328 C 0.8078 0.49373 0.66641 0.0
C329 C 0.79061 0.49532 0.68698 0.0
H330 H 0.27093 0.79203 0.22426 0.0
H331 H 0.30316 0.82427 0.18718 0.0
H332 H 0.36299 0.81789 0.2357 0.0
H333 H 0.33063 0.78557 0.2727 0.0
H334 H 0.25401 0.74681 0.23196 0.0
H335 H 0.29483 0.81352 0.30107 0.0
H336 H 0.32659 0.84833 0.33321 0.0
H337 H 0.34293 0.80102 0.3919 0.0
H338 H 0.31204 0.76625 0.3586 0.0
H339 H 0.24797 0.69604 0.35427 0.0
H340 H 0.21618 0.66129 0.38881 0.0
H341 H 0.1569 0.67428 0.35495 0.0
H342 H 0.18878 0.70892 0.32038 0.0
H343 H 0.26391 0.74492 0.35438 0.0
H344 H 0.21613 0.67699 0.27845 0.0
H345 H 0.17607 0.64593 0.25202 0.0
H346 H 0.16612 0.70278 0.20965 0.0
H347 H 0.2052 0.73346 0.23767 0.0
C348 C 0.29822 0.78632 0.25156 0.0
C349 C 0.29097 0.79748 0.22692 0.0
C350 C 0.30946 0.81593 0.20562 0.0
C351 C 0.33574 0.82372 0.20835 0.0
C352 C 0.34301 0.81262 0.23314 0.0
C353 C 0.32447 0.79408 0.25436 0.0
C354 C 0.27823 0.76613 0.27357 0.0
C355 C 0.25619 0.7466 0.25877 0.0
C356 C 0.28079 0.76575 0.30871 0.0
C357 C 0.30128 0.78721 0.32689 0.0
C358 C 0.30574 0.81064 0.32014 0.0
C359 C 0.32374 0.83053 0.33868 0.0
C360 C 0.33713 0.82727 0.36494 0.0
C361 C 0.33273 0.80392 0.37181 0.0
C362 C 0.31511 0.7841 0.3528 0.0
C363 C 0.22077 0.70495 0.33432 0.0
C364 C 0.22814 0.69146 0.35439 0.0
C365 C 0.20993 0.67161 0.37422 0.0
C366 C 0.18388 0.66482 0.37458 0.0
C367 C 0.17665 0.67865 0.35486 0.0
C368 C 0.1949 0.69854 0.33511 0.0
C369 C 0.24022 0.72563 0.31262 0.0
C370 C 0.26211 0.7452 0.32751 0.0
C371 C 0.23699 0.72662 0.27776 0.0
C372 C 0.2135 0.70756 0.26046 0.0
C373 C 0.20514 0.68271 0.26375 0.0
C374 C 0.18235 0.66498 0.24835 0.0
C375 C 0.16769 0.67181 0.2289 0.0
C376 C 0.17654 0.69678 0.22503 0.0
C377 C 0.19911 0.71441 0.2407 0.0
H378 H 0.54755 0.30683 0.82421 0.0
H379 H 0.55103 0.33751 0.86164 0.0
H380 H 0.47127 0.31338 0.84215 0.0
H381 H 0.46774 0.28227 0.80527 0.0
H382 H 0.51625 0.25759 0.82982 0.0
H383 H 0.52686 0.32115 0.75347 0.0
H384 H 0.51545 0.34902 0.72839 0.0
H385 H 0.44346 0.28726 0.69385 0.0
H386 H 0.45416 0.25953 0.72121 0.0
H387 H 0.46071 0.20017 0.71682 0.0
H388 H 0.45985 0.17082 0.67925 0.0
H389 H 0.5414 0.2015 0.69689 0.0
H390 H 0.54155 0.22977 0.73588 0.0
H391 H 0.49039 0.2509 0.71134 0.0
H392 H 0.47628 0.18771 0.78635 0.0
H393 H 0.47885 0.15785 0.82194 0.0
H394 H 0.55087 0.21575 0.86258 0.0
H395 H 0.54907 0.24525 0.82521 0.0
C396 C 0.50745 0.29234 0.81169 0.0
C397 C 0.5308 0.30815 0.82796 0.0
C398 C 0.53283 0.32582 0.84917 0.0
C399 C 0.51146 0.32799 0.85483 0.0
C400 C 0.48804 0.31209 0.83855 0.0
C401 C 0.48605 0.29443 0.81723 0.0
C402 C 0.50548 0.27324 0.78984 0.0
C403 C 0.51115 0.25641 0.80369 0.0
C404 C 0.4975 0.27103 0.75618 0.0
C405 C 0.49117 0.28819 0.73983 0.0
C406 C 0.50841 0.31359 0.74101 0.0
C407 C 0.502 0.32955 0.72618 0.0
C408 C 0.47845 0.32046 0.7091 0.0
C409 C 0.4615 0.29498 0.70735 0.0
C410 C 0.46774 0.27905 0.72265 0.0
C411 C 0.50115 0.2171 0.72928 0.0
C412 C 0.47834 0.2004 0.71274 0.0
C413 C 0.47797 0.18373 0.69098 0.0
C414 C 0.50061 0.18371 0.68458 0.0
C415 C 0.52343 0.2005 0.70144 0.0
C416 C 0.52363 0.21685 0.72368 0.0
C417 C 0.50176 0.23553 0.7512 0.0
C418 C 0.49581 0.25222 0.73736 0.0
C419 C 0.50911 0.2374 0.78507 0.0
C420 C 0.51258 0.21879 0.80281 0.0
C421 C 0.49312 0.1939 0.80198 0.0
C422 C 0.49437 0.17686 0.82289 0.0
C423 C 0.51487 0.18439 0.84559 0.0
C424 C 0.5349 0.20918 0.8453 0.0
C425 C 0.53381 0.22615 0.82406 0.0
C426 C 0.09735 0.54575 0.0284 0.0
C427 C 0.07264 0.52472 0.02477 0.0
C428 C 0.11718 0.54463 0.04502 0.0
C429 C 0.11227 0.52194 0.05824 0.0
C430 C 0.08767 0.50053 0.05354 0.0
C431 C 0.06821 0.50218 0.03693 0.0
C432 C 0.14311 0.56789 0.04949 0.0
C433 C 0.08161 0.47595 0.06708 0.0
C434 C 0.16819 0.51404 0.08193 0.0
C435 C 0.16922 0.51633 0.11664 0.0
C436 C 0.15002 0.51611 0.06258 0.0
C437 C 0.1324 0.52065 0.07821 0.0
C438 C 0.13351 0.52328 0.11315 0.0
C439 C 0.15181 0.52103 0.1319 0.0
C440 C 0.14956 0.51329 0.02541 0.0
C441 C 0.11512 0.52815 0.13085 0.0
H442 H 0.101 0.56328 0.01929 0.0
H443 H 0.04923 0.4858 0.03426 0.0
H444 H 0.14641 0.57216 0.07629 0.0
H445 H 0.15885 0.56557 0.04094 0.0
H446 H 0.1445 0.58372 0.03566 0.0
H447 H 0.06203 0.46087 0.05984 0.0
H448 H 0.09605 0.472 0.058 0.0
H449 H 0.08281 0.47621 0.09464 0.0
H450 H 0.18178 0.5108 0.06978 0.0
H451 H 0.15215 0.5225 0.1587 0.0
H452 H 0.15218 0.52985 0.01234 0.0
H453 H 0.13049 0.4976 0.01784 0.0
H454 H 0.16487 0.51028 0.01696 0.0
H455 H 0.11675 0.545 0.12032 0.0
H456 H 0.11888 0.5303 0.15803 0.0
H457 H 0.09491 0.51287 0.12698 0.0
C458 C 0.56872 0.04264 0.58248 0.0
C459 C 0.5772 0.0466 0.54934 0.0
C460 C 0.58598 0.05577 0.6082 0.0
C461 C 0.61222 0.07313 0.60048 0.0
C462 C 0.62121 0.07573 0.56747 0.0
C463 C 0.60358 0.06243 0.5423 0.0
C464 C 0.57572 0.05236 0.64317 0.0
C465 C 0.64908 0.09392 0.55823 0.0
C466 C 0.64837 0.13087 0.64983 0.0
C467 C 0.66492 0.12668 0.66937 0.0
C468 C 0.63065 0.11325 0.62805 0.0
C469 C 0.62948 0.09087 0.62563 0.0
C470 C 0.64578 0.08628 0.64569 0.0
C471 C 0.6634 0.1043 0.66732 0.0
C472 C 0.61365 0.1189 0.60698 0.0
C473 C 0.64492 0.06256 0.64389 0.0
H474 H 0.54837 0.03037 0.58812 0.0
H475 H 0.61032 0.06533 0.5168 0.0
H476 H 0.58891 0.05124 0.66138 0.0
H477 H 0.57461 0.06838 0.64945 0.0
H478 H 0.55613 0.03565 0.64604 0.0
H479 H 0.65358 0.09163 0.53244 0.0
H480 H 0.65316 0.11276 0.5602 0.0
H481 H 0.66226 0.09209 0.57562 0.0
H482 H 0.64971 0.14825 0.65095 0.0
H483 H 0.67594 0.10088 0.68269 0.0
H484 H 0.59303 0.10435 0.61067 0.0
H485 H 0.61822 0.11934 0.58026 0.0
H486 H 0.61619 0.13673 0.61291 0.0
H487 H 0.62485 0.04684 0.64778 0.0
H488 H 0.65768 0.0612 0.66265 0.0
H489 H 0.65104 0.06094 0.61877 0.0
C490 C 0.58044 0.60169 0.1408 0.0
C491 C 0.5585 0.58305 0.12484 0.0
C492 C 0.5799 0.62061 0.15637 0.0
C493 C 0.55676 0.62073 0.15639 0.0
C494 C 0.53437 0.60161 0.14097 0.0
C495 C 0.53557 0.58312 0.12523 0.0
C496 C 0.60427 0.64076 0.17218 0.0
C497 C 0.50919 0.6008 0.1408 0.0
C498 C 0.54963 0.65943 0.21982 0.0
C499 C 0.55484 0.68 0.20039 0.0
C500 C 0.55006 0.63996 0.20584 0.0
C501 C 0.55617 0.6412 0.17169 0.0
C502 C 0.56169 0.66204 0.15206 0.0
C503 C 0.56082 0.6811 0.16658 0.0
C504 C 0.54373 0.61795 0.22755 0.0
C505 C 0.56858 0.66425 0.11567 0.0
H506 H 0.59826 0.60187 0.14029 0.0
H507 H 0.51845 0.56857 0.11335 0.0
H508 H 0.61018 0.65855 0.15965 0.0
H509 H 0.60069 0.64219 0.19872 0.0
H510 H 0.62052 0.63775 0.17066 0.0
H511 H 0.49326 0.58411 0.12908 0.0
H512 H 0.50346 0.6014 0.16663 0.0
H513 H 0.51165 0.61706 0.12702 0.0
H514 H 0.5447 0.65834 0.24587 0.0
H515 H 0.56513 0.69705 0.15152 0.0
H516 H 0.56021 0.61524 0.22775 0.0
H517 H 0.52684 0.60128 0.21724 0.0
H518 H 0.5393 0.61976 0.2536 0.0
H519 H 0.58578 0.66284 0.11273 0.0
H520 H 0.57278 0.68181 0.10397 0.0
H521 H 0.55246 0.64901 0.10197 0.0
C522 C 0.90807 0.49349 0.51838 0.0
C523 C 0.93247 0.49889 0.529 0.0
C524 C 0.89225 0.49712 0.53926 0.0
C525 C 0.90118 0.50647 0.57135 0.0
C526 C 0.9262 0.51282 0.58166 0.0
C527 C 0.94152 0.50895 0.56035 0.0
C528 C 0.86564 0.49014 0.52747 0.0
C529 C 0.93649 0.52303 0.61559 0.0
C530 C 0.86757 0.53169 0.61895 0.0
C531 C 0.85143 0.51188 0.64036 0.0
C532 C 0.88383 0.5302 0.59618 0.0
C533 C 0.8839 0.50837 0.5949 0.0
C534 C 0.86777 0.48837 0.61661 0.0
C535 C 0.85174 0.49037 0.6391 0.0
C536 C 0.90081 0.55189 0.57341 0.0
C537 C 0.86748 0.46485 0.61613 0.0
H538 H 0.90098 0.4856 0.49426 0.0
H539 H 0.96061 0.51364 0.56834 0.0
H540 H 0.85078 0.47468 0.54312 0.0
H541 H 0.86288 0.50564 0.53015 0.0
H542 H 0.86227 0.48464 0.50108 0.0
H543 H 0.9569 0.52832 0.61903 0.0
H544 H 0.93522 0.5393 0.6194 0.0
H545 H 0.92453 0.5092 0.63517 0.0
H546 H 0.86714 0.54823 0.61955 0.0
H547 H 0.83951 0.47513 0.6559 0.0
H548 H 0.89611 0.54659 0.54708 0.0
H549 H 0.92139 0.55797 0.57723 0.0
H550 H 0.89852 0.56755 0.57764 0.0
H551 H 0.86229 0.45712 0.59093 0.0
H552 H 0.85357 0.45091 0.63437 0.0
H553 H 0.88704 0.46851 0.62186 0.0
C554 C 0.45059 0.91421 0.08249 0.0
C555 C 0.45241 0.93668 0.07724 0.0
C556 C 0.43101 0.89546 0.10262 0.0
C557 C 0.4127 0.89916 0.11805 0.0
C558 C 0.41395 0.92151 0.11209 0.0
C559 C 0.43373 0.93996 0.09177 0.0
C560 C 0.43038 0.87191 0.10813 0.0
C561 C 0.39483 0.92624 0.128 0.0
C562 C 0.35001 0.84346 0.15118 0.0
C563 C 0.3554 0.84318 0.18524 0.0
C564 C 0.36837 0.86155 0.1291 0.0
C565 C 0.39279 0.87995 0.14125 0.0
C566 C 0.39833 0.87984 0.1756 0.0
C567 C 0.37964 0.86149 0.1971 0.0
C568 C 0.3617 0.86085 0.09268 0.0
C569 C 0.42405 0.89914 0.18968 0.0
H570 H 0.46488 0.91141 0.07147 0.0
H571 H 0.43493 0.95722 0.08803 0.0
H572 H 0.43388 0.86968 0.13478 0.0
H573 H 0.41102 0.85609 0.10181 0.0
H574 H 0.44513 0.87137 0.09301 0.0
H575 H 0.39769 0.94409 0.11976 0.0
H576 H 0.37479 0.91153 0.12191 0.0
H577 H 0.3968 0.92604 0.15546 0.0
H578 H 0.33152 0.82924 0.14162 0.0
H579 H 0.38392 0.86166 0.22339 0.0
H580 H 0.37549 0.85886 0.07756 0.0
H581 H 0.36354 0.87828 0.0846 0.0
H582 H 0.34177 0.84555 0.08721 0.0
H583 H 0.43991 0.89863 0.17744 0.0
H584 H 0.42528 0.89668 0.21697 0.0
H585 H 0.42732 0.91756 0.18448 0.0
C586 C 0.44268 0.39997 0.59127 0.0
C587 C 0.44334 0.41901 0.60788 0.0
C588 C 0.44665 0.38301 0.60848 0.0
C589 C 0.45191 0.38548 0.64303 0.0
C590 C 0.45192 0.40432 0.66011 0.0
C591 C 0.44742 0.42077 0.64233 0.0
C592 C 0.44599 0.36289 0.58949 0.0
C593 C 0.45786 0.40779 0.69682 0.0
C594 C 0.44604 0.33169 0.69267 0.0
C595 C 0.4717 0.33743 0.69287 0.0
C596 C 0.4393 0.34714 0.67659 0.0
C597 C 0.45873 0.36913 0.66086 0.0
C598 C 0.48473 0.37533 0.6615 0.0
C599 C 0.49085 0.35932 0.67719 0.0
C600 C 0.41134 0.33981 0.67615 0.0
C601 C 0.50608 0.39879 0.64531 0.0
H602 H 0.43942 0.39863 0.56465 0.0
H603 H 0.44834 0.43573 0.65508 0.0
H604 H 0.4655 0.36558 0.58941 0.0
H605 H 0.43268 0.34488 0.60184 0.0
H606 H 0.43969 0.36239 0.5633 0.0
H607 H 0.45561 0.4224 0.70677 0.0
H608 H 0.44499 0.39052 0.71103 0.0
H609 H 0.47802 0.41266 0.70125 0.0
H610 H 0.43115 0.3151 0.70522 0.0
H611 H 0.51064 0.36381 0.67665 0.0
H612 H 0.40457 0.33833 0.65007 0.0
H613 H 0.40932 0.35405 0.68781 0.0
H614 H 0.39854 0.32207 0.6895 0.0
H615 H 0.50267 0.39868 0.61812 0.0
H616 H 0.52546 0.40151 0.64945 0.0
H617 H 0.50615 0.41466 0.65523 0.0
C618 C 0.50649 0.95092 0.39264 0.0
C619 C 0.52914 0.97408 0.39477 0.0
C620 C 0.50674 0.93146 0.37844 0.0
C621 C 0.53041 0.93503 0.3671 0.0
C622 C 0.55326 0.95854 0.36866 0.0
C623 C 0.55228 0.97785 0.38211 0.0
C624 C 0.48177 0.90694 0.37653 0.0
C625 C 0.57896 0.96304 0.35741 0.0
C626 C 0.53625 0.87924 0.36764 0.0
C627 C 0.5341 0.87391 0.33372 0.0
C628 C 0.53528 0.89914 0.3787 0.0
C629 C 0.53155 0.91392 0.35544 0.0
C630 C 0.52895 0.90848 0.32123 0.0
C631 C 0.53056 0.88877 0.31076 0.0
C632 C 0.53832 0.90439 0.41538 0.0
C633 C 0.52446 0.92348 0.29567 0.0
H634 H 0.48855 0.94805 0.40221 0.0
H635 H 0.56984 0.99568 0.3841 0.0
H636 H 0.48022 0.89823 0.35255 0.0
H637 H 0.48123 0.89463 0.39682 0.0
H638 H 0.46466 0.90854 0.37924 0.0
H639 H 0.59476 0.98253 0.35921 0.0
H640 H 0.5841 0.95172 0.37294 0.0
H641 H 0.57769 0.9575 0.33129 0.0
H642 H 0.5385 0.86771 0.38573 0.0
H643 H 0.52933 0.8852 0.28443 0.0
H644 H 0.52051 0.90268 0.42513 0.0
H645 H 0.55448 0.92345 0.41932 0.0
H646 H 0.54214 0.89179 0.43009 0.0
H647 H 0.50804 0.92506 0.30334 0.0
H648 H 0.52031 0.91544 0.27063 0.0
H649 H 0.54182 0.94225 0.29382 0.0
C650 C 0.62573 0.55289 0.96826 0.0
C651 C 0.59978 0.54575 0.96481 0.0
C652 C 0.63987 0.55294 0.94112 0.0
C653 C 0.62777 0.54572 0.9097 0.0
C654 C 0.60211 0.54008 0.9055 0.0
C655 C 0.58838 0.54017 0.93316 0.0
C656 C 0.66727 0.55927 0.9466 0.0
C657 C 0.58864 0.53248 0.87231 0.0
C658 C 0.67333 0.55831 0.83798 0.0
C659 C 0.67206 0.53601 0.83666 0.0
C660 C 0.65809 0.56146 0.86058 0.0
C661 C 0.64128 0.54187 0.8824 0.0
C662 C 0.63907 0.519 0.88017 0.0
C663 C 0.65451 0.51636 0.85736 0.0
C664 C 0.66073 0.58601 0.86199 0.0
C665 C 0.62131 0.49761 0.90298 0.0
H666 H 0.63474 0.55744 0.99257 0.0
H667 H 0.56832 0.53462 0.93029 0.0
H668 H 0.66815 0.5427 0.94371 0.0
H669 H 0.6804 0.57308 0.92773 0.0
H670 H 0.67456 0.56649 0.97175 0.0
H671 H 0.57028 0.53219 0.87195 0.0
H672 H 0.60135 0.545 0.85205 0.0
H673 H 0.58417 0.51389 0.86689 0.0
H674 H 0.68654 0.57344 0.82165 0.0
H675 H 0.65359 0.49915 0.85673 0.0
H676 H 0.67009 0.59477 0.88571 0.0
H677 H 0.64141 0.58376 0.86144 0.0
H678 H 0.6725 0.59849 0.84105 0.0
H679 H 0.62823 0.50189 0.92901 0.0
H680 H 0.62033 0.48057 0.89631 0.0
H681 H 0.60149 0.4942 0.90217 0.0
C682 C 0.06891 0.56805 0.49351 0.0
C683 C 0.06382 0.54418 0.49241 0.0
C684 C 0.08987 0.5876 0.47611 0.0
C685 C 0.10623 0.58328 0.45688 0.0
C686 C 0.10194 0.55945 0.45685 0.0
C687 C 0.08093 0.54024 0.47481 0.0
C688 C 0.09373 0.61269 0.47701 0.0
C689 C 0.11891 0.55403 0.43675 0.0
C690 C 0.13946 0.62722 0.38294 0.0
C691 C 0.16431 0.64342 0.39538 0.0
C692 C 0.12064 0.60733 0.40242 0.0
C693 C 0.1267 0.60341 0.43528 0.0
C694 C 0.15187 0.6194 0.4478 0.0
C695 C 0.17033 0.63918 0.42777 0.0
C696 C 0.09412 0.59066 0.38793 0.0
C697 C 0.15915 0.61593 0.48265 0.0
H698 H 0.05591 0.57137 0.50708 0.0
H699 H 0.07725 0.52192 0.47374 0.0
H700 H 0.11397 0.62646 0.4838 0.0
H701 H 0.09019 0.61798 0.45191 0.0
H702 H 0.08055 0.61343 0.49499 0.0
H703 H 0.11302 0.53455 0.43923 0.0
H704 H 0.11815 0.55851 0.41006 0.0
H705 H 0.13931 0.56567 0.44482 0.0
H706 H 0.13472 0.63002 0.35779 0.0
H707 H 0.18936 0.65167 0.43779 0.0
H708 H 0.07939 0.59129 0.40291 0.0
H709 H 0.08928 0.57149 0.38895 0.0
H710 H 0.09269 0.59576 0.3617 0.0
H711 H 0.14726 0.61825 0.50096 0.0
H712 H 0.17988 0.62912 0.48809 0.0
H713 H 0.15506 0.5971 0.48635 0.0
C714 C 0.51224 0.10674 0.00662 0.0
C715 C 0.50969 0.08479 0.99779 0.0
C716 C 0.51426 0.12365 0.98206 0.0
C717 C 0.51288 0.11802 0.948 0.0
C718 C 0.51004 0.09572 0.93907 0.0
C719 C 0.50887 0.07955 0.96406 0.0
C720 C 0.51775 0.14746 0.9925 0.0
C721 C 0.50768 0.08868 0.90314 0.0
C722 C 0.49106 0.1492 0.88639 0.0
C723 C 0.51443 0.16687 0.87102 0.0
C724 C 0.4903 0.13315 0.91132 0.0
C725 C 0.51353 0.13504 0.92166 0.0
C726 C 0.53721 0.15279 0.90636 0.0
C727 C 0.53735 0.16837 0.88107 0.0
C728 C 0.46459 0.11414 0.92659 0.0
C729 C 0.56239 0.15537 0.91684 0.0
H730 H 0.51296 0.11072 0.03273 0.0
H731 H 0.50649 0.06237 0.95728 0.0
H732 H 0.53522 0.16305 0.98041 0.0
H733 H 0.50098 0.14854 0.98417 0.0
H734 H 0.5197 0.14955 0.01989 0.0
H735 H 0.50383 0.06996 0.90062 0.0
H736 H 0.49176 0.08954 0.8909 0.0
H737 H 0.52574 0.10179 0.88955 0.0
H738 H 0.47331 0.14816 0.87939 0.0
H739 H 0.55546 0.18172 0.86911 0.0
H740 H 0.46476 0.11703 0.95365 0.0
H741 H 0.46116 0.09561 0.92367 0.0
H742 H 0.44821 0.11464 0.91511 0.0
H743 H 0.56533 0.15848 0.94396 0.0
H744 H 0.57925 0.17071 0.90337 0.0
H745 H 0.56175 0.13824 0.91213 0.0
C746 C 0.44135 0.49579 0.42086 0.0
C747 C 0.42904 0.47395 0.44004 0.0
C748 C 0.42809 0.50006 0.39524 0.0
C749 C 0.40212 0.48179 0.38802 0.0
C750 C 0.39027 0.45909 0.40581 0.0
C751 C 0.40375 0.45555 0.43174 0.0
C752 C 0.44139 0.52461 0.37716 0.0
C753 C 0.36279 0.43895 0.3987 0.0
C754 C 0.35553 0.4994 0.35367 0.0
C755 C 0.3538 0.4937 0.31992 0.0
C756 C 0.37176 0.49634 0.3757 0.0
C757 C 0.38652 0.48699 0.36401 0.0
C758 C 0.38521 0.48149 0.32994 0.0
C759 C 0.36899 0.485 0.30833 0.0
C760 C 0.37268 0.50263 0.41176 0.0
C761 C 0.40055 0.47144 0.31645 0.0
H762 H 0.46086 0.51014 0.42707 0.0
H763 H 0.39412 0.43858 0.44632 0.0
H764 H 0.44131 0.52215 0.34997 0.0
H765 H 0.4307 0.53381 0.3814 0.0
H766 H 0.46169 0.5368 0.38543 0.0
H767 H 0.35726 0.42162 0.41237 0.0
H768 H 0.34937 0.44466 0.40609 0.0
H769 H 0.36012 0.43544 0.37167 0.0
H770 H 0.34367 0.50575 0.36322 0.0
H771 H 0.36825 0.48091 0.28227 0.0
H772 H 0.39297 0.5154 0.4195 0.0
H773 H 0.36488 0.48584 0.42771 0.0
H774 H 0.36134 0.51115 0.4165 0.0
H775 H 0.42137 0.48386 0.32204 0.0
H776 H 0.3982 0.46896 0.28914 0.0
H777 H 0.39425 0.45352 0.32882 0.0
C778 C 0.93091 0.41788 0.95475 0.0
C779 C 0.92285 0.41885 0.98683 0.0
C780 C 0.91487 0.39872 0.93374 0.0
C781 C 0.89014 0.37996 0.94512 0.0
C782 C 0.88204 0.38049 0.97773 0.0
C783 C 0.89854 0.39995 0.99826 0.0
C784 C 0.92426 0.39873 0.89919 0.0
C785 C 0.85576 0.36077 0.99065 0.0
C786 C 0.84023 0.34493 0.8786 0.0
C787 C 0.84106 0.32371 0.87698 0.0
C788 C 0.85581 0.36321 0.90108 0.0
C789 C 0.87261 0.36018 0.92243 0.0
C790 C 0.87342 0.33873 0.92109 0.0
C791 C 0.85763 0.32075 0.89834 0.0
C792 C 0.85457 0.38594 0.90165 0.0
C793 C 0.89109 0.33488 0.94351 0.0
H794 H 0.94989 0.43213 0.94602 0.0
H795 H 0.89217 0.40071 0.02292 0.0
H796 H 0.92377 0.38154 0.89553 0.0
H797 H 0.91126 0.39954 0.88035 0.0
H798 H 0.94426 0.41441 0.89445 0.0
H799 H 0.85279 0.36334 0.01702 0.0
H800 H 0.84047 0.3607 0.97531 0.0
H801 H 0.85329 0.34256 0.98856 0.0
H802 H 0.82765 0.34741 0.8619 0.0
H803 H 0.85805 0.30421 0.89751 0.0
H804 H 0.87369 0.40221 0.89478 0.0
H805 H 0.84997 0.38863 0.92713 0.0
H806 H 0.83984 0.3851 0.88422 0.0
H807 H 0.91151 0.34948 0.93851 0.0
H808 H 0.8889 0.31688 0.93997 0.0
H809 H 0.88705 0.33609 0.96994 0.0
C810 C 0.96716 0.55834 0.93416 0.0
C811 C 0.96678 0.53701 0.94327 0.0
C812 C 0.94917 0.5578 0.91129 0.0
C813 C 0.92975 0.53524 0.89799 0.0
C814 C 0.92969 0.51374 0.9065 0.0
C815 C 0.94839 0.51495 0.92863 0.0
C816 C 0.95047 0.58127 0.90217 0.0
C817 C 0.90903 0.4892 0.89363 0.0
C818 C 0.86651 0.5298 0.87234 0.0
C819 C 0.86821 0.53098 0.83755 0.0
C820 C 0.88623 0.53084 0.8922 0.0
C821 C 0.90858 0.53386 0.87695 0.0
C822 C 0.91051 0.53544 0.84174 0.0
C823 C 0.89012 0.5336 0.82246 0.0
C824 C 0.88299 0.52844 0.92955 0.0
C825 C 0.93424 0.53931 0.82447 0.0
H826 H 0.98133 0.57545 0.94532 0.0
H827 H 0.94772 0.49831 0.93584 0.0
H828 H 0.94982 0.58338 0.87474 0.0
H829 H 0.93347 0.58075 0.91264 0.0
H830 H 0.96828 0.59756 0.91171 0.0
H831 H 0.91234 0.4744 0.90135 0.0
H832 H 0.88988 0.4844 0.90314 0.0
H833 H 0.9082 0.48996 0.86609 0.0
H834 H 0.84948 0.52761 0.88398 0.0
H835 H 0.89148 0.53465 0.79554 0.0
H836 H 0.89862 0.54525 0.94125 0.0
H837 H 0.88457 0.513 0.9392 0.0
H838 H 0.86408 0.52531 0.93746 0.0
H839 H 0.95168 0.5562 0.83337 0.0
H840 H 0.93309 0.54088 0.79699 0.0
H841 H 0.93684 0.5239 0.83067 0.0
C842 C 0.44355 0.93784 0.47411 0.0
C843 C 0.43766 0.95608 0.47455 0.0
C844 C 0.42683 0.91546 0.45903 0.0
C845 C 0.40334 0.91097 0.44498 0.0
C846 C 0.39646 0.92861 0.44758 0.0
C847 C 0.41385 0.95109 0.46199 0.0
C848 C 0.43501 0.89724 0.45638 0.0
C849 C 0.37134 0.92431 0.43352 0.0
C850 C 0.37475 0.86993 0.37083 0.0
C851 C 0.35499 0.84815 0.38573 0.0
C852 C 0.3911 0.89027 0.39004 0.0
C853 C 0.38714 0.88892 0.42488 0.0
C854 C 0.36734 0.86685 0.44009 0.0
C855 C 0.35163 0.84661 0.42032 0.0
C856 C 0.41231 0.91333 0.37293 0.0
C857 C 0.36223 0.86486 0.47702 0.0
H858 H 0.46199 0.94162 0.48362 0.0
H859 H 0.4092 0.96511 0.46239 0.0
H860 H 0.42055 0.87965 0.46876 0.0
H861 H 0.43585 0.89348 0.42986 0.0
H862 H 0.45422 0.90379 0.46781 0.0
H863 H 0.36746 0.93845 0.44112 0.0
H864 H 0.37203 0.92454 0.40595 0.0
H865 H 0.35496 0.90608 0.44177 0.0
H866 H 0.3774 0.87103 0.34408 0.0
H867 H 0.33616 0.82978 0.43174 0.0
H868 H 0.431 0.92014 0.38589 0.0
H869 H 0.4078 0.92781 0.37394 0.0
H870 H 0.41468 0.91049 0.34644 0.0
H871 H 0.38006 0.86986 0.49111 0.0
H872 H 0.34665 0.84616 0.48514 0.0
H873 H 0.35657 0.87792 0.4837 0.0
C874 C 0.51479 0.43279 0.96119 0.0
C875 C 0.5267 0.43527 0.99223 0.0
C876 C 0.51186 0.41531 0.93865 0.0
C877 C 0.52095 0.39976 0.94731 0.0
C878 C 0.53274 0.40193 0.9787 0.0
C879 C 0.53548 0.41964 1.00073 0.0
C880 C 0.49913 0.41358 0.90549 0.0
C881 C 0.5427 0.3857 0.98886 0.0
C882 C 0.49384 0.34042 0.90102 0.0
C883 C 0.51361 0.34653 0.87805 0.0
C884 C 0.49596 0.35753 0.92368 0.0
C885 C 0.51836 0.38139 0.92335 0.0
C886 C 0.53828 0.38776 0.90004 0.0
C887 C 0.53568 0.37027 0.87773 0.0
C888 C 0.47432 0.35 0.94817 0.0
C889 C 0.56238 0.41306 0.89866 0.0
H890 H 0.5075 0.4444 0.95451 0.0
H891 H 0.54496 0.42153 0.02441 0.0
H892 H 0.51268 0.41688 0.88499 0.0
H893 H 0.48192 0.39491 0.90267 0.0
H894 H 0.493 0.42694 0.90258 0.0
H895 H 0.55088 0.38931 0.0144 0.0
H896 H 0.52687 0.36621 0.98777 0.0
H897 H 0.55793 0.38856 0.97123 0.0
H898 H 0.47688 0.32205 0.90174 0.0
H899 H 0.55088 0.37526 0.85978 0.0
H900 H 0.46675 0.36221 0.94512 0.0
H901 H 0.48172 0.3519 0.97397 0.0
H902 H 0.45809 0.33082 0.94503 0.0
H903 H 0.55713 0.42689 0.89377 0.0
H904 H 0.57607 0.41512 0.87905 0.0
H905 H 0.57241 0.41717 0.92302 0.0
C906 C 0.05718 0.48493 0.38147 0.0
C907 C 0.0385 0.46078 0.39109 0.0
C908 C 0.07839 0.49026 0.36174 0.0
C909 C 0.08102 0.47095 0.35145 0.0
C910 C 0.06169 0.44646 0.3599 0.0
C911 C 0.0406 0.44166 0.37956 0.0
C912 C 0.09846 0.51663 0.35308 0.0
C913 C 0.06388 0.42538 0.34945 0.0
C914 C 0.12808 0.48234 0.28213 0.0
C915 C 0.14963 0.48599 0.30021 0.0
C916 C 0.10566 0.47765 0.29844 0.0
C917 C 0.10476 0.47644 0.33364 0.0
C918 C 0.12653 0.48027 0.35201 0.0
C919 C 0.14873 0.48506 0.33506 0.0
C920 C 0.08296 0.47398 0.27805 0.0
C921 C 0.12626 0.47903 0.38959 0.0
H922 H 0.05544 0.49976 0.3899 0.0
H923 H 0.0264 0.423 0.38716 0.0
H924 H 0.11659 0.52213 0.36677 0.0
H925 H 0.10306 0.51897 0.32612 0.0
H926 H 0.09203 0.52917 0.3596 0.0
H927 H 0.04641 0.40737 0.35614 0.0
H928 H 0.06697 0.42637 0.32218 0.0
H929 H 0.08089 0.42652 0.36166 0.0
H930 H 0.12884 0.48334 0.25517 0.0
H931 H 0.16523 0.4876 0.34911 0.0
H932 H 0.07798 0.48751 0.28489 0.0
H933 H 0.06576 0.45555 0.28352 0.0
H934 H 0.08691 0.47587 0.25089 0.0
H935 H 0.12245 0.49269 0.39937 0.0
H936 H 0.1448 0.48249 0.40014 0.0
H937 H 0.11043 0.46074 0.39858 0.0
C938 C 0.53662 0.03816 0.92294 0.0
C939 C 0.54158 0.02722 0.95037 0.0
C940 C 0.55674 0.0555 0.90201 0.0
C941 C 0.58251 0.06214 0.90859 0.0
C942 C 0.58741 0.05005 0.93493 0.0
C943 C 0.56694 0.03278 0.95546 0.0
C944 C 0.55057 0.06778 0.87412 0.0
C945 C 0.61451 0.05631 0.94258 0.0
C946 C 0.63494 0.0991 0.84323 0.0
C947 C 0.64696 0.12296 0.85519 0.0
C948 C 0.61401 0.07915 0.86026 0.0
C949 C 0.60451 0.08306 0.88978 0.0
C950 C 0.61623 0.10707 0.90171 0.0
C951 C 0.63737 0.12661 0.88452 0.0
C952 C 0.60202 0.05387 0.84663 0.0
C953 C 0.60649 0.11214 0.93283 0.0
H954 H 0.51718 0.03413 0.9187 0.0
H955 H 0.57105 0.02442 0.97645 0.0
H956 H 0.55673 0.08655 0.88134 0.0
H957 H 0.56124 0.06942 0.85112 0.0
H958 H 0.52958 0.05768 0.86843 0.0
H959 H 0.61483 0.04367 0.96171 0.0
H960 H 0.62406 0.05572 0.91969 0.0
H961 H 0.62612 0.0752 0.95178 0.0
H962 H 0.64172 0.09599 0.82032 0.0
H963 H 0.64662 0.14476 0.89446 0.0
H964 H 0.58127 0.04621 0.84122 0.0
H965 H 0.60309 0.04151 0.86548 0.0
H966 H 0.61172 0.05382 0.8235 0.0
H967 H 0.58576 0.10583 0.92996 0.0
H968 H 0.61742 0.13188 0.93857 0.0
H969 H 0.60803 0.10182 0.95437 0.0
C970 C 0.46577 0.57154 0.4708 0.0
C971 C 0.48387 0.57695 0.49617 0.0
C972 C 0.46857 0.58978 0.44818 0.0
C973 C 0.49042 0.61381 0.45052 0.0
C974 C 0.50855 0.61942 0.47646 0.0
C975 C 0.50486 0.60094 0.49927 0.0
C976 C 0.44849 0.58317 0.42138 0.0
C977 C 0.53241 0.6447 0.47931 0.0
C978 C 0.51404 0.65468 0.37272 0.0
C979 C 0.50663 0.67124 0.3793 0.0
C980 C 0.5086 0.63566 0.39557 0.0
C981 C 0.49492 0.63293 0.42519 0.0
C982 C 0.48653 0.64912 0.43122 0.0
C983 C 0.49284 0.66836 0.40836 0.0
C984 C 0.51828 0.61903 0.38856 0.0
C985 C 0.47127 0.64634 0.46203 0.0
H986 H 0.44951 0.55294 0.46857 0.0
H987 H 0.51903 0.60495 0.5186 0.0
H988 H 0.44232 0.59654 0.42022 0.0
H989 H 0.4569 0.58386 0.39682 0.0
H990 H 0.43116 0.56455 0.42555 0.0
H991 H 0.54443 0.64611 0.50117 0.0
H992 H 0.54435 0.64952 0.45649 0.0
H993 H 0.52688 0.65841 0.4814 0.0
H994 H 0.52488 0.65718 0.35025 0.0
H995 H 0.48711 0.68125 0.41318 0.0
H996 H 0.50195 0.59972 0.38875 0.0
H997 H 0.53187 0.62062 0.40843 0.0
H998 H 0.52834 0.62345 0.36418 0.0
H999 H 0.45419 0.62742 0.46437 0.0
H1000 H 0.46455 0.65931 0.46174 0.0
H1001 H 0.48335 0.64957 0.48447 0.0
C1002 C 0.48625 0.07828 0.56704 0.0
C1003 C 0.5026 0.08841 0.53926 0.0
C1004 C 0.48533 0.09326 0.59092 0.0
C1005 C 0.50161 0.11901 0.58735 0.0
C1006 C 0.51838 0.12931 0.55949 0.0
C1007 C 0.51845 0.1139 0.53562 0.0
C1008 C 0.46677 0.08152 0.61979 0.0
C1009 C 0.53646 0.15662 0.55507 0.0
C1010 C 0.48485 0.16022 0.63146 0.0
C1011 C 0.50054 0.16669 0.65998 0.0
C1012 C 0.48467 0.14442 0.60804 0.0
C1013 C 0.50103 0.13521 0.61262 0.0
C1014 C 0.51703 0.14172 0.64113 0.0
C1015 C 0.51637 0.15709 0.66458 0.0
C1016 C 0.46702 0.13768 0.57826 0.0
C1017 C 0.53503 0.13258 0.64675 0.0
H1018 H 0.47385 0.05859 0.56975 0.0
H1019 H 0.53136 0.12177 0.51443 0.0
H1020 H 0.47755 0.08667 0.64361 0.0
H1021 H 0.45345 0.08829 0.62004 0.0
H1022 H 0.4551 0.06127 0.61868 0.0
H1023 H 0.54868 0.16171 0.53244 0.0
H1024 H 0.52522 0.16559 0.5533 0.0
H1025 H 0.54925 0.164 0.57709 0.0
H1026 H 0.4729 0.16779 0.62703 0.0
H1027 H 0.52824 0.16146 0.68667 0.0
H1028 H 0.45447 0.1175 0.57686 0.0
H1029 H 0.47866 0.14446 0.55506 0.0
H1030 H 0.45455 0.14538 0.57913 0.0
H1031 H 0.52379 0.11233 0.64851 0.0
H1032 H 0.54666 0.13973 0.66978 0.0
H1033 H 0.54841 0.13811 0.62528 0.0
C1034 C 0.44018 0.47855 0.05975 0.0
C1035 C 0.46277 0.49913 0.04696 0.0
C1036 C 0.42011 0.48052 0.07233 0.0
C1037 C 0.42279 0.50367 0.0723 0.0
C1038 C 0.4449 0.52427 0.0577 0.0
C1039 C 0.46462 0.52173 0.04504 0.0
C1040 C 0.3967 0.45806 0.08738 0.0
C1041 C 0.44848 0.54927 0.0573 0.0
C1042 C 0.36228 0.50399 0.09118 0.0
C1043 C 0.36482 0.50799 0.12552 0.0
C1044 C 0.38134 0.50321 0.07325 0.0
C1045 C 0.40346 0.50653 0.09007 0.0
C1046 C 0.4065 0.51129 0.12451 0.0
C1047 C 0.38712 0.51192 0.14183 0.0
C1048 C 0.37757 0.49829 0.0365 0.0
C1049 C 0.42989 0.51502 0.1433 0.0
H1050 H 0.4386 0.46101 0.0611 0.0
H1051 H 0.4821 0.53776 0.03536 0.0
H1052 H 0.39643 0.46006 0.11466 0.0
H1053 H 0.3787 0.45599 0.07708 0.0
H1054 H 0.39654 0.44111 0.08282 0.0
H1055 H 0.465 0.56266 0.04135 0.0
H1056 H 0.43072 0.54833 0.0483 0.0
H1057 H 0.45213 0.55615 0.08299 0.0
H1058 H 0.34528 0.50136 0.07833 0.0
H1059 H 0.38908 0.51478 0.1684 0.0
H1060 H 0.37582 0.48066 0.03174 0.0
H1061 H 0.39462 0.51274 0.02235 0.0
H1062 H 0.36001 0.49749 0.02676 0.0
H1063 H 0.43042 0.49813 0.14279 0.0
H1064 H 0.42989 0.51966 0.16967 0.0
H1065 H 0.44786 0.5299 0.13118 0.0
C1066 C 0.96302 0.43085 0.62063 0.0
C1067 C 0.96644 0.42794 0.587 0.0
C1068 C 0.94412 0.41116 0.6404 0.0
C1069 C 0.9281 0.38793 0.6263 0.0
C1070 C 0.93197 0.3847 0.59267 0.0
C1071 C 0.95107 0.40466 0.57351 0.0
C1072 C 0.9408 0.41541 0.67617 0.0
C1073 C 0.91536 0.3603 0.57656 0.0
C1074 C 0.89006 0.33104 0.68279 0.0
C1075 C 0.86535 0.32764 0.68282 0.0
C1076 C 0.91068 0.35063 0.66482 0.0
C1077 C 0.90658 0.36728 0.64621 0.0
C1078 C 0.88171 0.36401 0.64622 0.0
C1079 C 0.86148 0.34433 0.66451 0.0
C1080 C 0.93688 0.35351 0.66573 0.0
C1081 C 0.87637 0.38119 0.62661 0.0
H1082 H 0.97471 0.4487 0.63139 0.0
H1083 H 0.95344 0.40212 0.54759 0.0
H1084 H 0.92153 0.41291 0.67955 0.0
H1085 H 0.94162 0.40183 0.69286 0.0
H1086 H 0.95582 0.43406 0.68405 0.0
H1087 H 0.92157 0.36045 0.55068 0.0
H1088 H 0.916 0.34582 0.59131 0.0
H1089 H 0.89494 0.3553 0.57607 0.0
H1090 H 0.89339 0.31849 0.69717 0.0
H1091 H 0.84243 0.34174 0.66394 0.0
H1092 H 0.95155 0.37173 0.67521 0.0
H1093 H 0.94285 0.35255 0.6402 0.0
H1094 H 0.93704 0.33924 0.68171 0.0
H1095 H 0.8895 0.40019 0.63481 0.0
H1096 H 0.85609 0.37633 0.62945 0.0
H1097 H 0.88026 0.38091 0.59981 0.0
C1098 C 0.56212 0.98097 0.16243 0.0
C1099 C 0.56477 0.987 0.12827 0.0
C1100 C 0.56649 0.963 0.17527 0.0
C1101 C 0.57343 0.95067 0.15336 0.0
C1102 C 0.57785 0.95785 0.11931 0.0
C1103 C 0.57369 0.97607 0.10727 0.0
C1104 C 0.56198 0.95608 0.21187 0.0
C1105 C 0.58516 0.9451 0.0951 0.0
C1106 C 0.59509 0.90882 0.18752 0.0
C1107 C 0.57183 0.88593 0.18728 0.0
C1108 C 0.59594 0.93016 0.17686 0.0
C1109 C 0.57311 0.92849 0.16516 0.0
C1110 C 0.54969 0.90544 0.16437 0.0
C1111 C 0.54929 0.88452 0.17571 0.0
C1112 C 0.62118 0.95449 0.17843 0.0
C1113 C 0.52493 0.90287 0.15177 0.0
H1114 H 0.5552 0.98922 0.17889 0.0
H1115 H 0.57639 0.98107 0.08102 0.0
H1116 H 0.54393 0.93792 0.21517 0.0
H1117 H 0.578 0.95462 0.2225 0.0
H1118 H 0.56017 0.96951 0.22624 0.0
H1119 H 0.59053 0.95453 0.07028 0.0
H1120 H 0.60157 0.94393 0.10482 0.0
H1121 H 0.56857 0.92612 0.09196 0.0
H1122 H 0.61266 0.9101 0.19611 0.0
H1123 H 0.53109 0.86708 0.17618 0.0
H1124 H 0.61891 0.96694 0.1944 0.0
H1125 H 0.6267 0.96326 0.15326 0.0
H1126 H 0.63716 0.9527 0.18848 0.0
H1127 H 0.5196 0.91333 0.16751 0.0
H1128 H 0.50854 0.88353 0.15182 0.0
H1129 H 0.52772 0.9106 0.12603 0.0
C1130 C 0.55875 0.49848 0.55157 0.0
C1131 C 0.54403 0.50357 0.57233 0.0
C1132 C 0.58128 0.49973 0.56351 0.0
C1133 C 0.58929 0.50637 0.59686 0.0
C1134 C 0.57474 0.512 0.61757 0.0
C1135 C 0.5524 0.51049 0.60512 0.0
C1136 C 0.59624 0.49351 0.54072 0.0
C1137 C 0.58257 0.51932 0.65318 0.0
C1138 C 0.63103 0.48844 0.64536 0.0
C1139 C 0.65505 0.51062 0.64572 0.0
C1140 C 0.60981 0.48644 0.62809 0.0
C1141 C 0.61255 0.50715 0.61077 0.0
C1142 C 0.63696 0.52935 0.61005 0.0
C1143 C 0.65787 0.53081 0.62747 0.0
C1144 C 0.58413 0.46243 0.62963 0.0
C1145 C 0.64075 0.55188 0.59197 0.0
H1146 H 0.55239 0.49303 0.52628 0.0
H1147 H 0.54132 0.51465 0.62139 0.0
H1148 H 0.61673 0.50883 0.53928 0.0
H1149 H 0.5961 0.47728 0.55093 0.0
H1150 H 0.5881 0.48958 0.51517 0.0
H1151 H 0.56949 0.52368 0.66578 0.0
H1152 H 0.58245 0.5043 0.6675 0.0
H1153 H 0.60254 0.53555 0.654 0.0
H1154 H 0.62851 0.47277 0.65957 0.0
H1155 H 0.67644 0.5479 0.627 0.0
H1156 H 0.5759 0.45711 0.60431 0.0
H1157 H 0.57023 0.46442 0.6445 0.0
H1158 H 0.58579 0.44744 0.64109 0.0
H1159 H 0.63338 0.54755 0.56614 0.0
H1160 H 0.66138 0.567 0.59111 0.0
H1161 H 0.62954 0.55833 0.60466 0.0
C1162 C 0.056 0.59225 0.10138 0.0
C1163 C 0.03456 0.571 0.11496 0.0
C1164 C 0.07665 0.60849 0.1215 0.0
C1165 C 0.07598 0.60315 0.15602 0.0
C1166 C 0.05411 0.58196 0.17004 0.0
C1167 C 0.03352 0.5662 0.14932 0.0
C1168 C 0.0994 0.63111 0.10566 0.0
C1169 C 0.05288 0.5755 0.20666 0.0
C1170 C 0.14178 0.63296 0.19748 0.0
C1171 C 0.14345 0.65314 0.21227 0.0
C1172 C 0.11953 0.61603 0.18011 0.0
C1173 C 0.09856 0.61952 0.1771 0.0
C1174 C 0.09984 0.63949 0.19261 0.0
C1175 C 0.12217 0.65593 0.2102 0.0
C1176 C 0.11878 0.59481 0.16415 0.0
C1177 C 0.07795 0.6439 0.18977 0.0
H1178 H 0.05666 0.596 0.07483 0.0
H1179 H 0.01709 0.54958 0.15973 0.0
H1180 H 0.10313 0.64763 0.1185 0.0
H1181 H 0.11703 0.63028 0.10835 0.0
H1182 H 0.09629 0.63321 0.07879 0.0
H1183 H 0.03404 0.55897 0.21391 0.0
H1184 H 0.06851 0.57214 0.21299 0.0
H1185 H 0.0561 0.59096 0.22174 0.0
H1186 H 0.15817 0.63075 0.19862 0.0
H1187 H 0.12302 0.67114 0.22215 0.0
H1188 H 0.1184 0.59679 0.13667 0.0
H1189 H 0.10091 0.57737 0.17158 0.0
H1190 H 0.13574 0.59357 0.17104 0.0
H1191 H 0.07525 0.64747 0.16331 0.0
H1192 H 0.08151 0.65968 0.20445 0.0
H1193 H 0.05961 0.62742 0.19841 0.0
loop_
_geom_bond_atom_site_label_1
_geom_bond_atom_site_label_2
_geom_bond_distance
_geom_bond_site_symmetry_2
_ccdc_geom_bond_type
Cu0 N1 1.999 1_454 S
Cu0 O6 1.974 1_454 S
Cu0 N11 1.985 . S
Cu0 O20 1.959 . S
N1 Cu0 1.999 1_656 S
N1 C3 1.263 . S
N1 C5 1.389 1_556 S
N2 C3 1.358 . S
N2 C4 1.400 . S
C3 N1 1.263 . S
C3 N2 1.358 . S
C3 H9 0.930 . S
C4 N2 1.400 . S
C4 C5 1.351 1_556 S
C4 H21 0.930 . S
C5 N1 1.389 1_554 S
C5 C4 1.351 1_554 S
C5 H10 0.930 . S
O6 Cu0 1.974 1_656 S
O6 C16 1.282 . S
C7 O8 1.261 1_554 S
C7 O20 1.251 . S
O8 C7 1.261 1_556 S
H9 C3 0.930 . S
H10 C5 0.930 . S
N11 Cu0 1.985 . S
N11 C13 1.335 . S
N11 C14 1.390 . S
N12 C13 1.345 . S
N12 C15 1.336 . S
C13 N11 1.335 . S
C13 N12 1.345 . S
C13 H18 0.930 . S
C14 N11 1.390 . S
C14 C15 1.346 . S
C14 H19 0.930 1_554 S
C15 N12 1.336 . S
C15 C14 1.346 . S
C15 H22 0.929 . S
C16 O6 1.282 . S
C16 O17 1.216 1_655 S
O17 C16 1.216 1_455 S
H18 C13 0.930 . S
H19 C14 0.930 1_556 S
O20 Cu0 1.959 . S
O20 C7 1.251 . S
H21 C4 0.930 . S
H22 C15 0.929 . S
Cu23 N24 1.999 . S
Cu23 O29 1.974 . S
Cu23 N34 1.985 1_565 S
Cu23 O43 1.959 1_565 S
N24 Cu23 1.999 . S
N24 C26 1.263 . S
N24 C28 1.389 . S
N25 C26 1.358 . S
N25 C27 1.400 . S
C26 N24 1.263 . S
C26 N25 1.358 . S
C26 H32 0.930 . S
C27 N25 1.400 . S
C27 C28 1.351 . S
C27 H44 0.930 . S
C28 N24 1.389 . S
C28 C27 1.351 . S
C28 H33 0.930 . S
O29 Cu23 1.974 . S
O29 C39 1.282 . S
C30 O31 1.261 . S
C30 O43 1.251 . S
O31 C30 1.261 . S
H32 C26 0.930 . S
H33 C28 0.930 . S
N34 Cu23 1.985 1_545 S
N34 C36 1.335 . S
N34 C37 1.390 . S
N35 C36 1.345 . S
N35 C38 1.336 . S
C36 N34 1.335 . S
C36 N35 1.345 . S
C36 H41 0.930 . S
C37 N34 1.390 . S
C37 C38 1.346 . S
C37 H42 0.930 . S
C38 N35 1.336 . S
C38 C37 1.346 . S
C38 H45 0.929 . S
C39 O29 1.282 . S
C39 O40 1.216 . S
O40 C39 1.216 . S
H41 C36 0.930 . S
H42 C37 0.930 . S
O43 Cu23 1.959 1_545 S
O43 C30 1.251 . S
H44 C27 0.930 . S
H45 C38 0.929 . S
Cu46 N47 1.999 1_554 S
Cu46 O52 1.974 1_554 S
Cu46 N57 1.985 . S
Cu46 O66 1.959 . S
N47 Cu46 1.999 1_556 S
N47 C49 1.263 . S
N47 C51 1.389 . S
N48 C49 1.358 . S
N48 C50 1.400 . S
C49 N47 1.263 . S
C49 N48 1.358 . S
C49 H55 0.930 . S
C50 N48 1.400 . S
C50 C51 1.351 . S
C50 H67 0.930 . S
C51 N47 1.389 . S
C51 C50 1.351 . S
C51 H56 0.930 . S
O52 Cu46 1.974 1_556 S
O52 C62 1.282 . S
C53 O54 1.261 . S
C53 O66 1.251 . S
O54 C53 1.261 . S
H55 C49 0.930 . S
H56 C51 0.930 . S
N57 Cu46 1.985 . S
N57 C59 1.335 . S
N57 C60 1.390 . S
N58 C59 1.345 . S
N58 C61 1.336 . S
C59 N57 1.335 . S
C59 N58 1.345 . S
C59 H64 0.930 . S
C60 N57 1.390 . S
C60 C61 1.346 . S
C60 H65 0.930 . S
C61 N58 1.336 . S
C61 C60 1.346 . S
C61 H68 0.929 . S
C62 O52 1.282 . S
C62 O63 1.216 1_556 S
O63 C62 1.216 1_554 S
H64 C59 0.930 . S
H65 C60 0.930 . S
O66 Cu46 1.959 . S
O66 C53 1.251 . S
H67 C50 0.930 . S
H68 C61 0.929 . S
Cu69 N70 1.999 1_655 S
Cu69 O75 1.974 1_655 S
Cu69 N80 1.985 . S
Cu69 O89 1.959 . S
N70 Cu69 1.999 1_455 S
N70 C72 1.263 . S
N70 C74 1.389 1_455 S
N71 C72 1.358 . S
N71 C73 1.400 . S
C72 N70 1.263 . S
C72 N71 1.358 . S
C72 H78 0.930 . S
C73 N71 1.400 . S
C73 C74 1.351 1_455 S
C73 H90 0.930 . S
C74 N70 1.389 1_655 S
C74 C73 1.351 1_655 S
C74 H79 0.930 . S
O75 Cu69 1.974 1_455 S
O75 C85 1.282 . S
C76 O77 1.261 . S
C76 O89 1.251 . S
O77 C76 1.261 . S
H78 C72 0.930 . S
H79 C74 0.930 . S
N80 Cu69 1.985 . S
N80 C82 1.335 . S
N80 C83 1.390 . S
N81 C82 1.345 . S
N81 C84 1.336 . S
C82 N80 1.335 . S
C82 N81 1.345 . S
C82 H87 0.930 . S
C83 N80 1.390 . S
C83 C84 1.346 . S
C83 H88 0.930 1_655 S
C84 N81 1.336 . S
C84 C83 1.346 . S
C84 H91 0.929 . S
C85 O75 1.282 . S
C85 O86 1.216 . S
O86 C85 1.216 . S
H87 C82 0.930 . S
H88 C83 0.930 1_455 S
O89 Cu69 1.959 . S
O89 C76 1.251 . S
H90 C73 0.930 . S
H91 C84 0.929 . S
Cu92 N93 1.999 . S
Cu92 O98 1.976 . S
Cu92 N103 1.985 1_545 S
Cu92 O112 1.959 1_545 S
N93 Cu92 1.999 . S
N93 C95 1.263 1_554 S
N93 C97 1.389 . S
N94 C95 1.358 . S
N94 C96 1.400 1_556 S
C95 N93 1.263 1_556 S
C95 N94 1.358 . S
C95 H101 0.930 . S
C96 N94 1.400 1_554 S
C96 C97 1.351 . S
C96 H113 0.930 . S
C97 N93 1.389 . S
C97 C96 1.351 . S
C97 H102 0.930 . S
O98 Cu92 1.976 . S
O98 C108 1.279 1_554 S
C99 O100 1.261 . S
C99 O112 1.251 . S
O100 C99 1.261 . S
H101 C95 0.930 . S
H102 C97 0.930 . S
N103 Cu92 1.985 1_565 S
N103 C105 1.335 . S
N103 C106 1.390 . S
N104 C105 1.345 . S
N104 C107 1.336 . S
C105 N103 1.335 . S
C105 N104 1.345 . S
C105 H110 0.930 . S
C106 N103 1.390 . S
C106 C107 1.346 . S
C106 H111 0.934 . S
C107 N104 1.336 . S
C107 C106 1.346 . S
C107 H114 0.929 . S
C108 O98 1.279 1_556 S
C108 O109 1.216 . S
O109 C108 1.216 . S
H110 C105 0.930 . S
H111 C106 0.934 . S
O112 Cu92 1.959 1_565 S
O112 C99 1.251 . S
H113 C96 0.930 . S
H114 C107 0.929 . S
Cu115 N116 1.999 . S
Cu115 O121 1.974 . S
Cu115 N126 1.985 . S
Cu115 O135 1.959 . S
N116 Cu115 1.999 . S
N116 C118 1.263 . S
N116 C120 1.389 . S
N117 C118 1.358 . S
N117 C119 1.400 . S
C118 N116 1.263 . S
C118 N117 1.358 . S
C118 H124 0.930 . S
C119 N117 1.400 . S
C119 C120 1.351 . S
C119 H136 0.930 . S
C120 N116 1.389 . S
C120 C119 1.351 . S
C120 H125 0.930 . S
O121 Cu115 1.974 . S
O121 C131 1.282 . S
C122 O123 1.261 . S
C122 O135 1.251 . S
O123 C122 1.261 . S
H124 C118 0.930 . S
H125 C120 0.930 . S
N126 Cu115 1.985 . S
N126 C128 1.335 . S
N126 C129 1.390 . S
N127 C128 1.345 . S
N127 C130 1.336 . S
C128 N126 1.335 . S
C128 N127 1.345 . S
C128 H133 0.930 . S
C129 N126 1.390 . S
C129 C130 1.346 . S
C129 H134 0.930 . S
C130 N127 1.336 . S
C130 C129 1.346 . S
C130 H137 0.929 . S
C131 O121 1.282 . S
C131 O132 1.216 . S
O132 C131 1.216 . S
H133 C128 0.930 . S
H134 C129 0.930 . S
O135 Cu115 1.959 . S
O135 C122 1.251 . S
H136 C119 0.930 . S
H137 C130 0.929 . S
H138 C157 0.949 . S
H139 C158 0.950 . S
H140 C160 0.950 . S
H141 C161 0.950 . S
H142 C163 0.950 . S
H143 C166 0.950 . S
H144 C167 0.950 . S
H145 C169 0.951 . S
H146 C170 0.949 . S
H147 C172 0.949 . S
H148 C173 0.950 . S
H149 C175 0.950 . S
H150 C176 0.950 . S
H151 C178 0.950 . S
H152 C181 0.950 . S
H153 C182 0.950 . S
H154 C184 0.951 . S
H155 C185 0.949 . S
C156 C157 1.376 . S
C156 C161 1.386 . S
C156 C162 1.483 . S
C157 H138 0.949 . S
C157 C156 1.376 . S
C157 C158 1.397 . S
C158 H139 0.950 . S
C158 C157 1.397 . S
C158 C159 1.391 . S
C159 C158 1.391 . S
C159 C160 1.405 . S
C160 H140 0.950 . S
C160 C159 1.405 . S
C160 C161 1.367 . S
C161 H141 0.950 . S
C161 C156 1.386 . S
C161 C160 1.367 . S
C162 C156 1.483 . S
C162 C163 1.382 . S
C162 C164 1.403 . S
C163 H142 0.950 . S
C163 C162 1.382 . S
C163 C179 1.411 . S
C164 C162 1.403 . S
C164 C165 1.489 . S
C164 C178 1.411 . S
C165 C164 1.489 . S
C165 C166 1.383 . S
C165 C170 1.382 . S
C166 H143 0.950 . S
C166 C165 1.383 . S
C166 C167 1.395 . S
C167 H144 0.950 . S
C167 C166 1.395 . S
C167 C168 1.288 . S
C168 C167 1.288 . S
C168 C169 1.392 . S
C169 H145 0.951 . S
C169 C168 1.392 . S
C169 C170 1.392 . S
C170 H146 0.949 . S
C170 C165 1.382 . S
C170 C169 1.392 . S
C171 C172 1.376 . S
C171 C176 1.386 . S
C171 C177 1.483 . S
C172 H147 0.949 . S
C172 C171 1.376 . S
C172 C173 1.397 . S
C173 H148 0.950 . S
C173 C172 1.397 . S
C173 C174 1.391 . S
C174 C173 1.391 . S
C174 C175 1.405 . S
C175 H149 0.950 . S
C175 C174 1.405 . S
C175 C176 1.367 . S
C176 H150 0.950 . S
C176 C171 1.386 . S
C176 C175 1.367 . S
C177 C171 1.483 . S
C177 C178 1.382 . S
C177 C179 1.403 . S
C178 H151 0.950 . S
C178 C164 1.411 . S
C178 C177 1.382 . S
C179 C163 1.411 . S
C179 C177 1.403 . S
C179 C180 1.489 . S
C180 C179 1.489 . S
C180 C181 1.383 . S
C180 C185 1.382 . S
C181 H152 0.950 . S
C181 C180 1.383 . S
C181 C182 1.395 . S
C182 H153 0.950 . S
C182 C181 1.395 . S
C182 C183 1.288 . S
C183 C182 1.288 . S
C183 C184 1.392 . S
C184 H154 0.951 . S
C184 C183 1.392 . S
C184 C185 1.392 . S
C185 H155 0.949 . S
C185 C180 1.382 . S
C185 C184 1.392 . S
H186 C205 0.949 . S
H187 C206 0.950 . S
H188 C208 0.950 . S
H189 C209 0.950 . S
H190 C211 0.950 . S
H191 C214 0.950 . S
H192 C215 0.950 . S
H193 C217 0.951 . S
H194 C218 0.949 . S
H195 C220 0.949 . S
H196 C221 0.950 . S
H197 C223 0.950 . S
H198 C224 0.950 . S
H199 C226 0.950 . S
H200 C229 0.950 . S
H201 C230 0.950 . S
H202 C232 0.951 . S
H203 C233 0.949 . S
C204 C205 1.376 . S
C204 C209 1.386 . S
C204 C210 1.483 . S
C205 H186 0.949 . S
C205 C204 1.376 . S
C205 C206 1.397 . S
C206 H187 0.950 . S
C206 C205 1.397 . S
C206 C207 1.391 . S
C207 C206 1.391 . S
C207 C208 1.405 . S
C208 H188 0.950 . S
C208 C207 1.405 . S
C208 C209 1.367 . S
C209 H189 0.950 . S
C209 C204 1.386 . S
C209 C208 1.367 . S
C210 C204 1.483 . S
C210 C211 1.382 . S
C210 C212 1.403 . S
C211 H190 0.950 . S
C211 C210 1.382 . S
C211 C227 1.411 . S
C212 C210 1.403 . S
C212 C213 1.489 . S
C212 C226 1.411 . S
C213 C212 1.489 . S
C213 C214 1.383 . S
C213 C218 1.382 . S
C214 H191 0.950 . S
C214 C213 1.383 . S
C214 C215 1.395 . S
C215 H192 0.950 . S
C215 C214 1.395 . S
C215 C216 1.288 . S
C216 C215 1.288 . S
C216 C217 1.392 . S
C217 H193 0.951 . S
C217 C216 1.392 . S
C217 C218 1.392 . S
C218 H194 0.949 . S
C218 C213 1.382 . S
C218 C217 1.392 . S
C219 C220 1.376 . S
C219 C224 1.386 . S
C219 C225 1.483 . S
C220 H195 0.949 . S
C220 C219 1.376 . S
C220 C221 1.397 . S
C221 H196 0.950 . S
C221 C220 1.397 . S
C221 C222 1.391 . S
C222 C221 1.391 . S
C222 C223 1.405 . S
C223 H197 0.950 . S
C223 C222 1.405 . S
C223 C224 1.367 . S
C224 H198 0.950 . S
C224 C219 1.386 . S
C224 C223 1.367 . S
C225 C219 1.483 . S
C225 C226 1.382 . S
C225 C227 1.403 . S
C226 H199 0.950 . S
C226 C212 1.411 . S
C226 C225 1.382 . S
C227 C211 1.411 . S
C227 C225 1.403 . S
C227 C228 1.489 . S
C228 C227 1.489 . S
C228 C229 1.383 . S
C228 C233 1.382 . S
C229 H200 0.950 . S
C229 C228 1.383 . S
C229 C230 1.395 . S
C230 H201 0.950 . S
C230 C229 1.395 . S
C230 C231 1.288 . S
C231 C230 1.288 . S
C231 C232 1.392 . S
C232 H202 0.951 . S
C232 C231 1.392 . S
C232 C233 1.392 . S
C233 H203 0.949 . S
C233 C228 1.382 . S
C233 C232 1.392 . S
H234 C253 0.949 . S
H235 C254 0.950 . S
H236 C256 0.950 . S
H237 C257 0.950 . S
H238 C259 0.950 . S
H239 C262 0.950 . S
H240 C263 0.950 . S
H241 C265 0.951 . S
H242 C266 0.949 . S
H243 C268 0.949 . S
H244 C269 0.950 . S
H245 C271 0.950 . S
H246 C272 0.950 . S
H247 C274 0.950 . S
H248 C277 0.950 . S
H249 C278 0.950 . S
H250 C280 0.951 . S
H251 C281 0.949 . S
C252 C253 1.376 . S
C252 C257 1.386 . S
C252 C258 1.483 . S
C253 H234 0.949 . S
C253 C252 1.376 . S
C253 C254 1.397 . S
C254 H235 0.950 . S
C254 C253 1.397 . S
C254 C255 1.391 . S
C255 C254 1.391 . S
C255 C256 1.405 . S
C256 H236 0.950 . S
C256 C255 1.405 . S
C256 C257 1.367 . S
C257 H237 0.950 . S
C257 C252 1.386 . S
C257 C256 1.367 . S
C258 C252 1.483 . S
C258 C259 1.382 . S
C258 C260 1.403 . S
C259 H238 0.950 . S
C259 C258 1.382 . S
C259 C275 1.411 . S
C260 C258 1.403 . S
C260 C261 1.489 . S
C260 C274 1.411 . S
C261 C260 1.489 . S
C261 C262 1.383 . S
C261 C266 1.382 . S
C262 H239 0.950 . S
C262 C261 1.383 . S
C262 C263 1.395 . S
C263 H240 0.950 . S
C263 C262 1.395 . S
C263 C264 1.288 . S
C264 C263 1.288 . S
C264 C265 1.392 . S
C265 H241 0.951 . S
C265 C264 1.392 . S
C265 C266 1.392 . S
C266 H242 0.949 . S
C266 C261 1.382 . S
C266 C265 1.392 . S
C267 C268 1.376 . S
C267 C272 1.386 . S
C267 C273 1.483 . S
C268 H243 0.949 . S
C268 C267 1.376 . S
C268 C269 1.397 . S
C269 H244 0.950 . S
C269 C268 1.397 . S
C269 C270 1.391 . S
C270 C269 1.391 . S
C270 C271 1.405 . S
C271 H245 0.950 . S
C271 C270 1.405 . S
C271 C272 1.367 . S
C272 H246 0.950 . S
C272 C267 1.386 . S
C272 C271 1.367 . S
C273 C267 1.483 . S
C273 C274 1.382 . S
C273 C275 1.403 . S
C274 H247 0.950 . S
C274 C260 1.411 . S
C274 C273 1.382 . S
C275 C259 1.411 . S
C275 C273 1.403 . S
C275 C276 1.489 . S
C276 C275 1.489 . S
C276 C277 1.383 . S
C276 C281 1.382 . S
C277 H248 0.950 . S
C277 C276 1.383 . S
C277 C278 1.395 . S
C278 H249 0.950 . S
C278 C277 1.395 . S
C278 C279 1.288 . S
C279 C278 1.288 . S
C279 C280 1.392 . S
C280 H250 0.951 . S
C280 C279 1.392 . S
C280 C281 1.392 . S
C281 H251 0.949 . S
C281 C276 1.382 . S
C281 C280 1.392 . S
H282 C301 0.949 . S
H283 C302 0.950 . S
H284 C304 0.950 . S
H285 C305 0.950 . S
H286 C307 0.950 . S
H287 C310 0.950 . S
H288 C311 0.950 . S
H289 C313 0.951 . S
H290 C314 0.949 . S
H291 C316 0.949 . S
H292 C317 0.950 . S
H293 C319 0.950 . S
H294 C320 0.950 . S
H295 C322 0.950 . S
H296 C325 0.950 . S
H297 C326 0.950 . S
H298 C328 0.951 . S
H299 C329 0.949 . S
C300 C301 1.376 . S
C300 C305 1.386 . S
C300 C306 1.483 . S
C301 H282 0.949 . S
C301 C300 1.376 . S
C301 C302 1.397 . S
C302 H283 0.950 . S
C302 C301 1.397 . S
C302 C303 1.391 . S
C303 C302 1.391 . S
C303 C304 1.405 . S
C304 H284 0.950 . S
C304 C303 1.405 . S
C304 C305 1.367 . S
C305 H285 0.950 . S
C305 C300 1.386 . S
C305 C304 1.367 . S
C306 C300 1.483 . S
C306 C307 1.382 . S
C306 C308 1.403 . S
C307 H286 0.950 . S
C307 C306 1.382 . S
C307 C323 1.411 . S
C308 C306 1.403 . S
C308 C309 1.489 . S
C308 C322 1.411 . S
C309 C308 1.489 . S
C309 C310 1.383 . S
C309 C314 1.382 . S
C310 H287 0.950 . S
C310 C309 1.383 . S
C310 C311 1.395 . S
C311 H288 0.950 . S
C311 C310 1.395 . S
C311 C312 1.288 . S
C312 C311 1.288 . S
C312 C313 1.392 . S
C313 H289 0.951 . S
C313 C312 1.392 . S
C313 C314 1.392 . S
C314 H290 0.949 . S
C314 C309 1.382 . S
C314 C313 1.392 . S
C315 C316 1.376 . S
C315 C320 1.386 . S
C315 C321 1.483 . S
C316 H291 0.949 . S
C316 C315 1.376 . S
C316 C317 1.397 . S
C317 H292 0.950 . S
C317 C316 1.397 . S
C317 C318 1.391 . S
C318 C317 1.391 . S
C318 C319 1.405 . S
C319 H293 0.950 . S
C319 C318 1.405 . S
C319 C320 1.367 . S
C320 H294 0.950 . S
C320 C315 1.386 . S
C320 C319 1.367 . S
C321 C315 1.483 . S
C321 C322 1.382 . S
C321 C323 1.403 . S
C322 H295 0.950 . S
C322 C308 1.411 . S
C322 C321 1.382 . S
C323 C307 1.411 . S
C323 C321 1.403 . S
C323 C324 1.489 . S
C324 C323 1.489 . S
C324 C325 1.383 . S
C324 C329 1.382 . S
C325 H296 0.950 . S
C325 C324 1.383 . S
C325 C326 1.395 . S
C326 H297 0.950 . S
C326 C325 1.395 . S
C326 C327 1.288 . S
C327 C326 1.288 . S
C327 C328 1.392 . S
C328 H298 0.951 . S
C328 C327 1.392 . S
C328 C329 1.392 . S
C329 H299 0.949 . S
C329 C324 1.382 . S
C329 C328 1.392 . S
H330 C349 0.949 . S
H331 C350 0.950 . S
H332 C352 0.950 . S
H333 C353 0.950 . S
H334 C355 0.950 . S
H335 C358 0.950 . S
H336 C359 0.950 . S
H337 C361 0.951 . S
H338 C362 0.949 . S
H339 C364 0.949 . S
H340 C365 0.950 . S
H341 C367 0.950 . S
H342 C368 0.950 . S
H343 C370 0.950 . S
H344 C373 0.950 . S
H345 C374 0.950 . S
H346 C376 0.951 . S
H347 C377 0.949 . S
C348 C349 1.376 . S
C348 C353 1.386 . S
C348 C354 1.483 . S
C349 H330 0.949 . S
C349 C348 1.376 . S
C349 C350 1.397 . S
C350 H331 0.950 . S
C350 C349 1.397 . S
C350 C351 1.391 . S
C351 C350 1.391 . S
C351 C352 1.405 . S
C352 H332 0.950 . S
C352 C351 1.405 . S
C352 C353 1.367 . S
C353 H333 0.950 . S
C353 C348 1.386 . S
C353 C352 1.367 . S
C354 C348 1.483 . S
C354 C355 1.382 . S
C354 C356 1.403 . S
C355 H334 0.950 . S
C355 C354 1.382 . S
C355 C371 1.411 . S
C356 C354 1.403 . S
C356 C357 1.489 . S
C356 C370 1.411 . S
C357 C356 1.489 . S
C357 C358 1.383 . S
C357 C362 1.382 . S
C358 H335 0.950 . S
C358 C357 1.383 . S
C358 C359 1.395 . S
C359 H336 0.950 . S
C359 C358 1.395 . S
C359 C360 1.288 . S
C360 C359 1.288 . S
C360 C361 1.392 . S
C361 H337 0.951 . S
C361 C360 1.392 . S
C361 C362 1.392 . S
C362 H338 0.949 . S
C362 C357 1.382 . S
C362 C361 1.392 . S
C363 C364 1.376 . S
C363 C368 1.386 . S
C363 C369 1.483 . S
C364 H339 0.949 . S
C364 C363 1.376 . S
C364 C365 1.397 . S
C365 H340 0.950 . S
C365 C364 1.397 . S
C365 C366 1.391 . S
C366 C365 1.391 . S
C366 C367 1.405 . S
C367 H341 0.950 . S
C367 C366 1.405 . S
C367 C368 1.367 . S
C368 H342 0.950 . S
C368 C363 1.386 . S
C368 C367 1.367 . S
C369 C363 1.483 . S
C369 C370 1.382 . S
C369 C371 1.403 . S
C370 H343 0.950 . S
C370 C356 1.411 . S
C370 C369 1.382 . S
C371 C355 1.411 . S
C371 C369 1.403 . S
C371 C372 1.489 . S
C372 C371 1.489 . S
C372 C373 1.383 . S
C372 C377 1.382 . S
C373 H344 0.950 . S
C373 C372 1.383 . S
C373 C374 1.395 . S
C374 H345 0.950 . S
C374 C373 1.395 . S
C374 C375 1.288 . S
C375 C374 1.288 . S
C375 C376 1.392 . S
C376 H346 0.951 . S
C376 C375 1.392 . S
C376 C377 1.392 . S
C377 H347 0.949 . S
C377 C372 1.382 . S
C377 C376 1.392 . S
H378 C397 0.949 . S
H379 C398 0.950 . S
H380 C400 0.950 . S
H381 C401 0.950 . S
H382 C403 0.950 . S
H383 C406 0.950 . S
H384 C407 0.950 . S
H385 C409 0.951 . S
H386 C410 0.949 . S
H387 C412 0.949 . S
H388 C413 0.950 . S
H389 C415 0.950 . S
H390 C416 0.950 . S
H391 C418 0.950 . S
H392 C421 0.950 . S
H393 C422 0.950 . S
H394 C424 0.951 . S
H395 C425 0.949 . S
C396 C397 1.376 . S
C396 C401 1.386 . S
C396 C402 1.483 . S
C397 H378 0.949 . S
C397 C396 1.376 . S
C397 C398 1.397 . S
C398 H379 0.950 . S
C398 C397 1.397 . S
C398 C399 1.391 . S
C399 C398 1.391 . S
C399 C400 1.405 . S
C400 H380 0.950 . S
C400 C399 1.405 . S
C400 C401 1.367 . S
C401 H381 0.950 . S
C401 C396 1.386 . S
C401 C400 1.367 . S
C402 C396 1.483 . S
C402 C403 1.382 . S
C402 C404 1.403 . S
C403 H382 0.950 . S
C403 C402 1.382 . S
C403 C419 1.411 . S
C404 C402 1.403 . S
C404 C405 1.489 . S
C404 C418 1.411 . S
C405 C404 1.489 . S
C405 C406 1.383 . S
C405 C410 1.382 . S
C406 H383 0.950 . S
C406 C405 1.383 . S
C406 C407 1.395 . S
C407 H384 0.950 . S
C407 C406 1.395 . S
C407 C408 1.288 . S
C408 C407 1.288 . S
C408 C409 1.392 . S
C409 H385 0.951 . S
C409 C408 1.392 . S
C409 C410 1.392 . S
C410 H386 0.949 . S
C410 C405 1.382 . S
C410 C409 1.392 . S
C411 C412 1.376 . S
C411 C416 1.386 . S
C411 C417 1.483 . S
C412 H387 0.949 . S
C412 C411 1.376 . S
C412 C413 1.397 . S
C413 H388 0.950 . S
C413 C412 1.397 . S
C413 C414 1.391 . S
C414 C413 1.391 . S
C414 C415 1.405 . S
C415 H389 0.950 . S
C415 C414 1.405 . S
C415 C416 1.367 . S
C416 H390 0.950 . S
C416 C411 1.386 . S
C416 C415 1.367 . S
C417 C411 1.483 . S
C417 C418 1.382 . S
C417 C419 1.403 . S
C418 H391 0.950 . S
C418 C404 1.411 . S
C418 C417 1.382 . S
C419 C403 1.411 . S
C419 C417 1.403 . S
C419 C420 1.489 . S
C420 C419 1.489 . S
C420 C421 1.383 . S
C420 C425 1.382 . S
C421 H392 0.950 . S
C421 C420 1.383 . S
C421 C422 1.395 . S
C422 H393 0.950 . S
C422 C421 1.395 . S
C422 C423 1.288 . S
C423 C422 1.288 . S
C423 C424 1.392 . S
C424 H394 0.951 . S
C424 C423 1.392 . S
C424 C425 1.392 . S
C425 H395 0.949 . S
C425 C420 1.382 . S
C425 C424 1.392 . S
C426 C427 1.391 . S
C426 C428 1.394 . S
C426 H442 0.931 . S
C427 C426 1.391 . S
C427 C431 1.376 . S
C428 C426 1.394 . S
C428 C429 1.369 . S
C428 C432 1.531 . S
C429 C428 1.369 . S
C429 C430 1.410 . S
C429 C437 1.503 . S
C430 C429 1.410 . S
C430 C431 1.392 . S
C430 C433 1.511 . S
C431 C427 1.376 . S
C431 C430 1.392 . S
C431 H443 0.929 . S
C432 C428 1.531 . S
C432 H444 0.960 . S
C432 H445 0.962 . S
C432 H446 0.960 . S
C433 C430 1.511 . S
C433 H447 0.961 . S
C433 H448 0.961 . S
C433 H449 0.961 . S
C434 C435 1.370 . S
C434 C436 1.363 . S
C434 H450 0.931 . S
C435 C434 1.370 . S
C435 C439 1.408 . S
C436 C434 1.363 . S
C436 C437 1.370 . S
C436 C440 1.524 . S
C437 C429 1.503 . S
C437 C436 1.370 . S
C437 C438 1.403 . S
C438 C437 1.403 . S
C438 C439 1.404 . S
C438 C441 1.539 . S
C439 C435 1.408 . S
C439 C438 1.404 . S
C439 H451 0.930 . S
C440 C436 1.524 . S
C440 H452 0.956 . S
C440 H453 0.961 . S
C440 H454 0.961 . S
C441 C438 1.539 . S
C441 H455 0.958 . S
C441 H456 0.961 . S
C441 H457 0.960 . S
H442 C426 0.931 . S
H443 C431 0.929 . S
H444 C432 0.960 . S
H445 C432 0.962 . S
H446 C432 0.960 . S
H447 C433 0.961 . S
H448 C433 0.961 . S
H449 C433 0.961 . S
H450 C434 0.931 . S
H451 C439 0.930 . S
H452 C440 0.956 . S
H453 C440 0.961 . S
H454 C440 0.961 . S
H455 C441 0.958 . S
H456 C441 0.961 . S
H457 C441 0.960 . S
C458 C459 1.391 . S
C458 C460 1.394 . S
C458 H474 0.931 . S
C459 C458 1.391 . S
C459 C463 1.376 . S
C460 C458 1.394 . S
C460 C461 1.369 . S
C460 C464 1.531 . S
C461 C460 1.369 . S
C461 C462 1.410 . S
C461 C469 1.503 . S
C462 C461 1.410 . S
C462 C463 1.392 . S
C462 C465 1.511 . S
C463 C459 1.376 . S
C463 C462 1.392 . S
C463 H475 0.929 . S
C464 C460 1.531 . S
C464 H476 0.960 . S
C464 H477 0.962 . S
C464 H478 0.960 . S
C465 C462 1.511 . S
C465 H479 0.961 . S
C465 H480 0.961 . S
C465 H481 0.961 . S
C466 C467 1.370 . S
C466 C468 1.363 . S
C466 H482 0.931 . S
C467 C466 1.370 . S
C467 C471 1.408 . S
C468 C466 1.363 . S
C468 C469 1.370 . S
C468 C472 1.524 . S
C469 C461 1.503 . S
C469 C468 1.370 . S
C469 C470 1.403 . S
C470 C469 1.403 . S
C470 C471 1.404 . S
C470 C473 1.539 . S
C471 C467 1.408 . S
C471 C470 1.404 . S
C471 H483 0.930 . S
C472 C468 1.524 . S
C472 H484 0.956 . S
C472 H485 0.961 . S
C472 H486 0.961 . S
C473 C470 1.539 . S
C473 H487 0.958 . S
C473 H488 0.961 . S
C473 H489 0.960 . S
H474 C458 0.931 . S
H475 C463 0.929 . S
H476 C464 0.960 . S
H477 C464 0.962 . S
H478 C464 0.960 . S
H479 C465 0.961 . S
H480 C465 0.961 . S
H481 C465 0.961 . S
H482 C466 0.931 . S
H483 C471 0.930 . S
H484 C472 0.956 . S
H485 C472 0.961 . S
H486 C472 0.961 . S
H487 C473 0.958 . S
H488 C473 0.961 . S
H489 C473 0.960 . S
C490 C491 1.391 . S
C490 C492 1.394 . S
C490 H506 0.931 . S
C491 C490 1.391 . S
C491 C495 1.376 . S
C492 C490 1.394 . S
C492 C493 1.369 . S
C492 C496 1.531 . S
C493 C492 1.369 . S
C493 C494 1.410 . S
C493 C501 1.503 . S
C494 C493 1.410 . S
C494 C495 1.392 . S
C494 C497 1.511 . S
C495 C491 1.376 . S
C495 C494 1.392 . S
C495 H507 0.929 . S
C496 C492 1.531 . S
C496 H508 0.960 . S
C496 H509 0.962 . S
C496 H510 0.960 . S
C497 C494 1.511 . S
C497 H511 0.961 . S
C497 H512 0.961 . S
C497 H513 0.961 . S
C498 C499 1.370 . S
C498 C500 1.363 . S
C498 H514 0.931 . S
C499 C498 1.370 . S
C499 C503 1.408 . S
C500 C498 1.363 . S
C500 C501 1.370 . S
C500 C504 1.524 . S
C501 C493 1.503 . S
C501 C500 1.370 . S
C501 C502 1.403 . S
C502 C501 1.403 . S
C502 C503 1.404 . S
C502 C505 1.539 . S
C503 C499 1.408 . S
C503 C502 1.404 . S
C503 H515 0.930 . S
C504 C500 1.524 . S
C504 H516 0.956 . S
C504 H517 0.961 . S
C504 H518 0.961 . S
C505 C502 1.539 . S
C505 H519 0.958 . S
C505 H520 0.961 . S
C505 H521 0.960 . S
H506 C490 0.931 . S
H507 C495 0.929 . S
H508 C496 0.960 . S
H509 C496 0.962 . S
H510 C496 0.960 . S
H511 C497 0.961 . S
H512 C497 0.961 . S
H513 C497 0.961 . S
H514 C498 0.931 . S
H515 C503 0.930 . S
H516 C504 0.956 . S
H517 C504 0.961 . S
H518 C504 0.961 . S
H519 C505 0.958 . S
H520 C505 0.961 . S
H521 C505 0.960 . S
C522 C523 1.391 . S
C522 C524 1.394 . S
C522 H538 0.931 . S
C523 C522 1.391 . S
C523 C527 1.376 . S
C524 C522 1.394 . S
C524 C525 1.369 . S
C524 C528 1.531 . S
C525 C524 1.369 . S
C525 C526 1.410 . S
C525 C533 1.503 . S
C526 C525 1.410 . S
C526 C527 1.392 . S
C526 C529 1.511 . S
C527 C523 1.376 . S
C527 C526 1.392 . S
C527 H539 0.929 . S
C528 C524 1.531 . S
C528 H540 0.960 . S
C528 H541 0.962 . S
C528 H542 0.960 . S
C529 C526 1.511 . S
C529 H543 0.961 . S
C529 H544 0.961 . S
C529 H545 0.961 . S
C530 C531 1.370 . S
C530 C532 1.363 . S
C530 H546 0.931 . S
C531 C530 1.370 . S
C531 C535 1.408 . S
C532 C530 1.363 . S
C532 C533 1.370 . S
C532 C536 1.524 . S
C533 C525 1.503 . S
C533 C532 1.370 . S
C533 C534 1.403 . S
C534 C533 1.403 . S
C534 C535 1.404 . S
C534 C537 1.539 . S
C535 C531 1.408 . S
C535 C534 1.404 . S
C535 H547 0.930 . S
C536 C532 1.524 . S
C536 H548 0.956 . S
C536 H549 0.961 . S
C536 H550 0.961 . S
C537 C534 1.539 . S
C537 H551 0.958 . S
C537 H552 0.961 . S
C537 H553 0.960 . S
H538 C522 0.931 . S
H539 C527 0.929 . S
H540 C528 0.960 . S
H541 C528 0.962 . S
H542 C528 0.960 . S
H543 C529 0.961 . S
H544 C529 0.961 . S
H545 C529 0.961 . S
H546 C530 0.931 . S
H547 C535 0.930 . S
H548 C536 0.956 . S
H549 C536 0.961 . S
H550 C536 0.961 . S
H551 C537 0.958 . S
H552 C537 0.961 . S
H553 C537 0.960 . S
C554 C555 1.391 . S
C554 C556 1.394 . S
C554 H570 0.931 . S
C555 C554 1.391 . S
C555 C559 1.376 . S
C556 C554 1.394 . S
C556 C557 1.369 . S
C556 C560 1.531 . S
C557 C556 1.369 . S
C557 C558 1.410 . S
C557 C565 1.503 . S
C558 C557 1.410 . S
C558 C559 1.392 . S
C558 C561 1.511 . S
C559 C555 1.376 . S
C559 C558 1.392 . S
C559 H571 0.929 . S
C560 C556 1.531 . S
C560 H572 0.960 . S
C560 H573 0.962 . S
C560 H574 0.960 . S
C561 C558 1.511 . S
C561 H575 0.961 . S
C561 H576 0.961 . S
C561 H577 0.961 . S
C562 C563 1.370 . S
C562 C564 1.363 . S
C562 H578 0.931 . S
C563 C562 1.370 . S
C563 C567 1.408 . S
C564 C562 1.363 . S
C564 C565 1.370 . S
C564 C568 1.524 . S
C565 C557 1.503 . S
C565 C564 1.370 . S
C565 C566 1.403 . S
C566 C565 1.403 . S
C566 C567 1.404 . S
C566 C569 1.539 . S
C567 C563 1.408 . S
C567 C566 1.404 . S
C567 H579 0.930 . S
C568 C564 1.524 . S
C568 H580 0.956 . S
C568 H581 0.961 . S
C568 H582 0.961 . S
C569 C566 1.539 . S
C569 H583 0.958 . S
C569 H584 0.961 . S
C569 H585 0.960 . S
H570 C554 0.931 . S
H571 C559 0.929 . S
H572 C560 0.960 . S
H573 C560 0.962 . S
H574 C560 0.960 . S
H575 C561 0.961 . S
H576 C561 0.961 . S
H577 C561 0.961 . S
H578 C562 0.931 . S
H579 C567 0.930 . S
H580 C568 0.956 . S
H581 C568 0.961 . S
H582 C568 0.961 . S
H583 C569 0.958 . S
H584 C569 0.961 . S
H585 C569 0.960 . S
C586 C587 1.391 . S
C586 C588 1.394 . S
C586 H602 0.931 . S
C587 C586 1.391 . S
C587 C591 1.376 . S
C588 C586 1.394 . S
C588 C589 1.369 . S
C588 C592 1.531 . S
C589 C588 1.369 . S
C589 C590 1.410 . S
C589 C597 1.503 . S
C590 C589 1.410 . S
C590 C591 1.392 . S
C590 C593 1.511 . S
C591 C587 1.376 . S
C591 C590 1.392 . S
C591 H603 0.929 . S
C592 C588 1.531 . S
C592 H604 0.960 . S
C592 H605 0.962 . S
C592 H606 0.960 . S
C593 C590 1.511 . S
C593 H607 0.961 . S
C593 H608 0.961 . S
C593 H609 0.961 . S
C594 C595 1.370 . S
C594 C596 1.363 . S
C594 H610 0.931 . S
C595 C594 1.370 . S
C595 C599 1.408 . S
C596 C594 1.363 . S
C596 C597 1.370 . S
C596 C600 1.524 . S
C597 C589 1.503 . S
C597 C596 1.370 . S
C597 C598 1.403 . S
C598 C597 1.403 . S
C598 C599 1.404 . S
C598 C601 1.539 . S
C599 C595 1.408 . S
C599 C598 1.404 . S
C599 H611 0.930 . S
C600 C596 1.524 . S
C600 H612 0.956 . S
C600 H613 0.961 . S
C600 H614 0.961 . S
C601 C598 1.539 . S
C601 H615 0.958 . S
C601 H616 0.961 . S
C601 H617 0.960 . S
H602 C586 0.931 . S
H603 C591 0.929 . S
H604 C592 0.960 . S
H605 C592 0.962 . S
H606 C592 0.960 . S
H607 C593 0.961 . S
H608 C593 0.961 . S
H609 C593 0.961 . S
H610 C594 0.931 . S
H611 C599 0.930 . S
H612 C600 0.956 . S
H613 C600 0.961 . S
H614 C600 0.961 . S
H615 C601 0.958 . S
H616 C601 0.961 . S
H617 C601 0.960 . S
C618 C619 1.391 . S
C618 C620 1.394 . S
C618 H634 0.931 . S
C619 C618 1.391 . S
C619 C623 1.376 . S
C620 C618 1.394 . S
C620 C621 1.369 . S
C620 C624 1.531 . S
C621 C620 1.369 . S
C621 C622 1.410 . S
C621 C629 1.503 . S
C622 C621 1.410 . S
C622 C623 1.392 . S
C622 C625 1.511 . S
C623 C619 1.376 . S
C623 C622 1.392 . S
C623 H635 0.929 . S
C624 C620 1.531 . S
C624 H636 0.960 . S
C624 H637 0.962 . S
C624 H638 0.960 . S
C625 C622 1.511 . S
C625 H639 0.961 . S
C625 H640 0.961 . S
C625 H641 0.961 . S
C626 C627 1.370 . S
C626 C628 1.363 . S
C626 H642 0.931 . S
C627 C626 1.370 . S
C627 C631 1.408 . S
C628 C626 1.363 . S
C628 C629 1.370 . S
C628 C632 1.524 . S
C629 C621 1.503 . S
C629 C628 1.370 . S
C629 C630 1.403 . S
C630 C629 1.403 . S
C630 C631 1.404 . S
C630 C633 1.539 . S
C631 C627 1.408 . S
C631 C630 1.404 . S
C631 H643 0.930 . S
C632 C628 1.524 . S
C632 H644 0.956 . S
C632 H645 0.961 . S
C632 H646 0.961 . S
C633 C630 1.539 . S
C633 H647 0.958 . S
C633 H648 0.961 . S
C633 H649 0.960 . S
H634 C618 0.931 . S
H635 C623 0.929 . S
H636 C624 0.960 . S
H637 C624 0.962 . S
H638 C624 0.960 . S
H639 C625 0.961 . S
H640 C625 0.961 . S
H641 C625 0.961 . S
H642 C626 0.931 . S
H643 C631 0.930 . S
H644 C632 0.956 . S
H645 C632 0.961 . S
H646 C632 0.961 . S
H647 C633 0.958 . S
H648 C633 0.961 . S
H649 C633 0.960 . S
C650 C651 1.391 . S
C650 C652 1.394 . S
C650 H666 0.931 . S
C651 C650 1.391 . S
C651 C655 1.376 . S
C652 C650 1.394 . S
C652 C653 1.369 . S
C652 C656 1.531 . S
C653 C652 1.369 . S
C653 C654 1.410 . S
C653 C661 1.503 . S
C654 C653 1.410 . S
C654 C655 1.392 . S
C654 C657 1.511 . S
C655 C651 1.376 . S
C655 C654 1.392 . S
C655 H667 0.929 . S
C656 C652 1.531 . S
C656 H668 0.960 . S
C656 H669 0.962 . S
C656 H670 0.960 . S
C657 C654 1.511 . S
C657 H671 0.961 . S
C657 H672 0.961 . S
C657 H673 0.961 . S
C658 C659 1.370 . S
C658 C660 1.363 . S
C658 H674 0.931 . S
C659 C658 1.370 . S
C659 C663 1.408 . S
C660 C658 1.363 . S
C660 C661 1.370 . S
C660 C664 1.524 . S
C661 C653 1.503 . S
C661 C660 1.370 . S
C661 C662 1.403 . S
C662 C661 1.403 . S
C662 C663 1.404 . S
C662 C665 1.539 . S
C663 C659 1.408 . S
C663 C662 1.404 . S
C663 H675 0.930 . S
C664 C660 1.524 . S
C664 H676 0.956 . S
C664 H677 0.961 . S
C664 H678 0.961 . S
C665 C662 1.539 . S
C665 H679 0.958 . S
C665 H680 0.961 . S
C665 H681 0.960 . S
H666 C650 0.931 . S
H667 C655 0.929 . S
H668 C656 0.960 . S
H669 C656 0.962 . S
H670 C656 0.960 . S
H671 C657 0.961 . S
H672 C657 0.961 . S
H673 C657 0.961 . S
H674 C658 0.931 . S
H675 C663 0.930 . S
H676 C664 0.956 . S
H677 C664 0.961 . S
H678 C664 0.961 . S
H679 C665 0.958 . S
H680 C665 0.961 . S
H681 C665 0.960 . S
C682 C683 1.391 . S
C682 C684 1.394 . S
C682 H698 0.931 . S
C683 C682 1.391 . S
C683 C687 1.376 . S
C684 C682 1.394 . S
C684 C685 1.369 . S
C684 C688 1.531 . S
C685 C684 1.369 . S
C685 C686 1.410 . S
C685 C693 1.503 . S
C686 C685 1.410 . S
C686 C687 1.392 . S
C686 C689 1.511 . S
C687 C683 1.376 . S
C687 C686 1.392 . S
C687 H699 0.929 . S
C688 C684 1.531 . S
C688 H700 0.960 . S
C688 H701 0.962 . S
C688 H702 0.960 . S
C689 C686 1.511 . S
C689 H703 0.961 . S
C689 H704 0.961 . S
C689 H705 0.961 . S
C690 C691 1.370 . S
C690 C692 1.363 . S
C690 H706 0.931 . S
C691 C690 1.370 . S
C691 C695 1.408 . S
C692 C690 1.363 . S
C692 C693 1.370 . S
C692 C696 1.524 . S
C693 C685 1.503 . S
C693 C692 1.370 . S
C693 C694 1.403 . S
C694 C693 1.403 . S
C694 C695 1.404 . S
C694 C697 1.539 . S
C695 C691 1.408 . S
C695 C694 1.404 . S
C695 H707 0.930 . S
C696 C692 1.524 . S
C696 H708 0.956 . S
C696 H709 0.961 . S
C696 H710 0.961 . S
C697 C694 1.539 . S
C697 H711 0.958 . S
C697 H712 0.961 . S
C697 H713 0.960 . S
H698 C682 0.931 . S
H699 C687 0.929 . S
H700 C688 0.960 . S
H701 C688 0.962 . S
H702 C688 0.960 . S
H703 C689 0.961 . S
H704 C689 0.961 . S
H705 C689 0.961 . S
H706 C690 0.931 . S
H707 C695 0.930 . S
H708 C696 0.956 . S
H709 C696 0.961 . S
H710 C696 0.961 . S
H711 C697 0.958 . S
H712 C697 0.961 . S
H713 C697 0.960 . S
C714 C715 1.391 . S
C714 C716 1.394 . S
C714 H730 0.931 . S
C715 C714 1.391 . S
C715 C719 1.376 . S
C716 C714 1.394 . S
C716 C717 1.369 . S
C716 C720 1.531 . S
C717 C716 1.369 . S
C717 C718 1.410 . S
C717 C725 1.503 . S
C718 C717 1.410 . S
C718 C719 1.392 . S
C718 C721 1.511 . S
C719 C715 1.376 . S
C719 C718 1.392 . S
C719 H731 0.929 . S
C720 C716 1.531 . S
C720 H732 0.960 . S
C720 H733 0.962 . S
C720 H734 0.960 . S
C721 C718 1.511 . S
C721 H735 0.961 . S
C721 H736 0.961 . S
C721 H737 0.961 . S
C722 C723 1.370 . S
C722 C724 1.363 . S
C722 H738 0.931 . S
C723 C722 1.370 . S
C723 C727 1.408 . S
C724 C722 1.363 . S
C724 C725 1.370 . S
C724 C728 1.524 . S
C725 C717 1.503 . S
C725 C724 1.370 . S
C725 C726 1.403 . S
C726 C725 1.403 . S
C726 C727 1.404 . S
C726 C729 1.539 . S
C727 C723 1.408 . S
C727 C726 1.404 . S
C727 H739 0.930 . S
C728 C724 1.524 . S
C728 H740 0.956 . S
C728 H741 0.961 . S
C728 H742 0.961 . S
C729 C726 1.539 . S
C729 H743 0.958 . S
C729 H744 0.961 . S
C729 H745 0.960 . S
H730 C714 0.931 . S
H731 C719 0.929 . S
H732 C720 0.960 . S
H733 C720 0.962 . S
H734 C720 0.960 . S
H735 C721 0.961 . S
H736 C721 0.961 . S
H737 C721 0.961 . S
H738 C722 0.931 . S
H739 C727 0.930 . S
H740 C728 0.956 . S
H741 C728 0.961 . S
H742 C728 0.961 . S
H743 C729 0.958 . S
H744 C729 0.961 . S
H745 C729 0.960 . S
C746 C747 1.391 . S
C746 C748 1.394 . S
C746 H762 0.931 . S
C747 C746 1.391 . S
C747 C751 1.376 . S
C748 C746 1.394 . S
C748 C749 1.369 . S
C748 C752 1.531 . S
C749 C748 1.369 . S
C749 C750 1.410 . S
C749 C757 1.503 . S
C750 C749 1.410 . S
C750 C751 1.392 . S
C750 C753 1.511 . S
C751 C747 1.376 . S
C751 C750 1.392 . S
C751 H763 0.929 . S
C752 C748 1.531 . S
C752 H764 0.960 . S
C752 H765 0.962 . S
C752 H766 0.960 . S
C753 C750 1.511 . S
C753 H767 0.961 . S
C753 H768 0.961 . S
C753 H769 0.961 . S
C754 C755 1.370 . S
C754 C756 1.363 . S
C754 H770 0.931 . S
C755 C754 1.370 . S
C755 C759 1.408 . S
C756 C754 1.363 . S
C756 C757 1.370 . S
C756 C760 1.524 . S
C757 C749 1.503 . S
C757 C756 1.370 . S
C757 C758 1.403 . S
C758 C757 1.403 . S
C758 C759 1.404 . S
C758 C761 1.539 . S
C759 C755 1.408 . S
C759 C758 1.404 . S
C759 H771 0.930 . S
C760 C756 1.524 . S
C760 H772 0.956 . S
C760 H773 0.961 . S
C760 H774 0.961 . S
C761 C758 1.539 . S
C761 H775 0.958 . S
C761 H776 0.961 . S
C761 H777 0.960 . S
H762 C746 0.931 . S
H763 C751 0.929 . S
H764 C752 0.960 . S
H765 C752 0.962 . S
H766 C752 0.960 . S
H767 C753 0.961 . S
H768 C753 0.961 . S
H769 C753 0.961 . S
H770 C754 0.931 . S
H771 C759 0.930 . S
H772 C760 0.956 . S
H773 C760 0.961 . S
H774 C760 0.961 . S
H775 C761 0.958 . S
H776 C761 0.961 . S
H777 C761 0.960 . S
C778 C779 1.391 . S
C778 C780 1.394 . S
C778 H794 0.931 . S
C779 C778 1.391 . S
C779 C783 1.376 . S
C780 C778 1.394 . S
C780 C781 1.369 . S
C780 C784 1.531 . S
C781 C780 1.369 . S
C781 C782 1.410 . S
C781 C789 1.503 . S
C782 C781 1.410 . S
C782 C783 1.392 . S
C782 C785 1.511 . S
C783 C779 1.376 . S
C783 C782 1.392 . S
C783 H795 0.929 . S
C784 C780 1.531 . S
C784 H796 0.960 . S
C784 H797 0.962 . S
C784 H798 0.960 . S
C785 C782 1.511 . S
C785 H799 0.961 . S
C785 H800 0.961 . S
C785 H801 0.961 . S
C786 C787 1.370 . S
C786 C788 1.363 . S
C786 H802 0.931 . S
C787 C786 1.370 . S
C787 C791 1.408 . S
C788 C786 1.363 . S
C788 C789 1.370 . S
C788 C792 1.524 . S
C789 C781 1.503 . S
C789 C788 1.370 . S
C789 C790 1.403 . S
C790 C789 1.403 . S
C790 C791 1.404 . S
C790 C793 1.539 . S
C791 C787 1.408 . S
C791 C790 1.404 . S
C791 H803 0.930 . S
C792 C788 1.524 . S
C792 H804 0.956 . S
C792 H805 0.961 . S
C792 H806 0.961 . S
C793 C790 1.539 . S
C793 H807 0.958 . S
C793 H808 0.961 . S
C793 H809 0.960 . S
H794 C778 0.931 . S
H795 C783 0.929 . S
H796 C784 0.960 . S
H797 C784 0.962 . S
H798 C784 0.960 . S
H799 C785 0.961 . S
H800 C785 0.961 . S
H801 C785 0.961 . S
H802 C786 0.931 . S
H803 C791 0.930 . S
H804 C792 0.956 . S
H805 C792 0.961 . S
H806 C792 0.961 . S
H807 C793 0.958 . S
H808 C793 0.961 . S
H809 C793 0.960 . S
C810 C811 1.391 . S
C810 C812 1.394 . S
C810 H826 0.931 . S
C811 C810 1.391 . S
C811 C815 1.376 . S
C812 C810 1.394 . S
C812 C813 1.369 . S
C812 C816 1.531 . S
C813 C812 1.369 . S
C813 C814 1.410 . S
C813 C821 1.503 . S
C814 C813 1.410 . S
C814 C815 1.392 . S
C814 C817 1.511 . S
C815 C811 1.376 . S
C815 C814 1.392 . S
C815 H827 0.929 . S
C816 C812 1.531 . S
C816 H828 0.960 . S
C816 H829 0.962 . S
C816 H830 0.960 . S
C817 C814 1.511 . S
C817 H831 0.961 . S
C817 H832 0.961 . S
C817 H833 0.961 . S
C818 C819 1.370 . S
C818 C820 1.363 . S
C818 H834 0.931 . S
C819 C818 1.370 . S
C819 C823 1.408 . S
C820 C818 1.363 . S
C820 C821 1.370 . S
C820 C824 1.524 . S
C821 C813 1.503 . S
C821 C820 1.370 . S
C821 C822 1.403 . S
C822 C821 1.403 . S
C822 C823 1.404 . S
C822 C825 1.539 . S
C823 C819 1.408 . S
C823 C822 1.404 . S
C823 H835 0.930 . S
C824 C820 1.524 . S
C824 H836 0.956 . S
C824 H837 0.961 . S
C824 H838 0.961 . S
C825 C822 1.539 . S
C825 H839 0.958 . S
C825 H840 0.961 . S
C825 H841 0.960 . S
H826 C810 0.931 . S
H827 C815 0.929 . S
H828 C816 0.960 . S
H829 C816 0.962 . S
H830 C816 0.960 . S
H831 C817 0.961 . S
H832 C817 0.961 . S
H833 C817 0.961 . S
H834 C818 0.931 . S
H835 C823 0.930 . S
H836 C824 0.956 . S
H837 C824 0.961 . S
H838 C824 0.961 . S
H839 C825 0.958 . S
H840 C825 0.961 . S
H841 C825 0.960 . S
C842 C843 1.391 . S
C842 C844 1.394 . S
C842 H858 0.931 . S
C843 C842 1.391 . S
C843 C847 1.376 . S
C844 C842 1.394 . S
C844 C845 1.369 . S
C844 C848 1.531 . S
C845 C844 1.369 . S
C845 C846 1.410 . S
C845 C853 1.503 . S
C846 C845 1.410 . S
C846 C847 1.392 . S
C846 C849 1.511 . S
C847 C843 1.376 . S
C847 C846 1.392 . S
C847 H859 0.929 . S
C848 C844 1.531 . S
C848 H860 0.960 . S
C848 H861 0.962 . S
C848 H862 0.960 . S
C849 C846 1.511 . S
C849 H863 0.961 . S
C849 H864 0.961 . S
C849 H865 0.961 . S
C850 C851 1.370 . S
C850 C852 1.363 . S
C850 H866 0.931 . S
C851 C850 1.370 . S
C851 C855 1.408 . S
C852 C850 1.363 . S
C852 C853 1.370 . S
C852 C856 1.524 . S
C853 C845 1.503 . S
C853 C852 1.370 . S
C853 C854 1.403 . S
C854 C853 1.403 . S
C854 C855 1.404 . S
C854 C857 1.539 . S
C855 C851 1.408 . S
C855 C854 1.404 . S
C855 H867 0.930 . S
C856 C852 1.524 . S
C856 H868 0.956 . S
C856 H869 0.961 . S
C856 H870 0.961 . S
C857 C854 1.539 . S
C857 H871 0.958 . S
C857 H872 0.961 . S
C857 H873 0.960 . S
H858 C842 0.931 . S
H859 C847 0.929 . S
H860 C848 0.960 . S
H861 C848 0.962 . S
H862 C848 0.960 . S
H863 C849 0.961 . S
H864 C849 0.961 . S
H865 C849 0.961 . S
H866 C850 0.931 . S
H867 C855 0.930 . S
H868 C856 0.956 . S
H869 C856 0.961 . S
H870 C856 0.961 . S
H871 C857 0.958 . S
H872 C857 0.961 . S
H873 C857 0.960 . S
C874 C875 1.391 . S
C874 C876 1.394 . S
C874 H890 0.931 . S
C875 C874 1.391 . S
C875 C879 1.376 . S
C876 C874 1.394 . S
C876 C877 1.369 . S
C876 C880 1.531 . S
C877 C876 1.369 . S
C877 C878 1.410 . S
C877 C885 1.503 . S
C878 C877 1.410 . S
C878 C879 1.392 . S
C878 C881 1.511 . S
C879 C875 1.376 . S
C879 C878 1.392 . S
C879 H891 0.929 . S
C880 C876 1.531 . S
C880 H892 0.960 . S
C880 H893 0.962 . S
C880 H894 0.960 . S
C881 C878 1.511 . S
C881 H895 0.961 . S
C881 H896 0.961 . S
C881 H897 0.961 . S
C882 C883 1.370 . S
C882 C884 1.363 . S
C882 H898 0.931 . S
C883 C882 1.370 . S
C883 C887 1.408 . S
C884 C882 1.363 . S
C884 C885 1.370 . S
C884 C888 1.524 . S
C885 C877 1.503 . S
C885 C884 1.370 . S
C885 C886 1.403 . S
C886 C885 1.403 . S
C886 C887 1.404 . S
C886 C889 1.539 . S
C887 C883 1.408 . S
C887 C886 1.404 . S
C887 H899 0.930 . S
C888 C884 1.524 . S
C888 H900 0.956 . S
C888 H901 0.961 . S
C888 H902 0.961 . S
C889 C886 1.539 . S
C889 H903 0.958 . S
C889 H904 0.961 . S
C889 H905 0.960 . S
H890 C874 0.931 . S
H891 C879 0.929 . S
H892 C880 0.960 . S
H893 C880 0.962 . S
H894 C880 0.960 . S
H895 C881 0.961 . S
H896 C881 0.961 . S
H897 C881 0.961 . S
H898 C882 0.931 . S
H899 C887 0.930 . S
H900 C888 0.956 . S
H901 C888 0.961 . S
H902 C888 0.961 . S
H903 C889 0.958 . S
H904 C889 0.961 . S
H905 C889 0.960 . S
C906 C907 1.391 . S
C906 C908 1.394 . S
C906 H922 0.931 . S
C907 C906 1.391 . S
C907 C911 1.376 . S
C908 C906 1.394 . S
C908 C909 1.369 . S
C908 C912 1.531 . S
C909 C908 1.369 . S
C909 C910 1.410 . S
C909 C917 1.503 . S
C910 C909 1.410 . S
C910 C911 1.392 . S
C910 C913 1.511 . S
C911 C907 1.376 . S
C911 C910 1.392 . S
C911 H923 0.929 . S
C912 C908 1.531 . S
C912 H924 0.960 . S
C912 H925 0.962 . S
C912 H926 0.960 . S
C913 C910 1.511 . S
C913 H927 0.961 . S
C913 H928 0.961 . S
C913 H929 0.961 . S
C914 C915 1.370 . S
C914 C916 1.363 . S
C914 H930 0.931 . S
C915 C914 1.370 . S
C915 C919 1.408 . S
C916 C914 1.363 . S
C916 C917 1.370 . S
C916 C920 1.524 . S
C917 C909 1.503 . S
C917 C916 1.370 . S
C917 C918 1.403 . S
C918 C917 1.403 . S
C918 C919 1.404 . S
C918 C921 1.539 . S
C919 C915 1.408 . S
C919 C918 1.404 . S
C919 H931 0.930 . S
C920 C916 1.524 . S
C920 H932 0.956 . S
C920 H933 0.961 . S
C920 H934 0.961 . S
C921 C918 1.539 . S
C921 H935 0.958 . S
C921 H936 0.961 . S
C921 H937 0.960 . S
H922 C906 0.931 . S
H923 C911 0.929 . S
H924 C912 0.960 . S
H925 C912 0.962 . S
H926 C912 0.960 . S
H927 C913 0.961 . S
H928 C913 0.961 . S
H929 C913 0.961 . S
H930 C914 0.931 . S
H931 C919 0.930 . S
H932 C920 0.956 . S
H933 C920 0.961 . S
H934 C920 0.961 . S
H935 C921 0.958 . S
H936 C921 0.961 . S
H937 C921 0.960 . S
C938 C939 1.391 . S
C938 C940 1.394 . S
C938 H954 0.931 . S
C939 C938 1.391 . S
C939 C943 1.376 . S
C940 C938 1.394 . S
C940 C941 1.369 . S
C940 C944 1.531 . S
C941 C940 1.369 . S
C941 C942 1.410 . S
C941 C949 1.503 . S
C942 C941 1.410 . S
C942 C943 1.392 . S
C942 C945 1.511 . S
C943 C939 1.376 . S
C943 C942 1.392 . S
C943 H955 0.929 . S
C944 C940 1.531 . S
C944 H956 0.960 . S
C944 H957 0.962 . S
C944 H958 0.960 . S
C945 C942 1.511 . S
C945 H959 0.961 . S
C945 H960 0.961 . S
C945 H961 0.961 . S
C946 C947 1.370 . S
C946 C948 1.363 . S
C946 H962 0.931 . S
C947 C946 1.370 . S
C947 C951 1.408 . S
C948 C946 1.363 . S
C948 C949 1.370 . S
C948 C952 1.524 . S
C949 C941 1.503 . S
C949 C948 1.370 . S
C949 C950 1.403 . S
C950 C949 1.403 . S
C950 C951 1.404 . S
C950 C953 1.539 . S
C951 C947 1.408 . S
C951 C950 1.404 . S
C951 H963 0.930 . S
C952 C948 1.524 . S
C952 H964 0.956 . S
C952 H965 0.961 . S
C952 H966 0.961 . S
C953 C950 1.539 . S
C953 H967 0.958 . S
C953 H968 0.961 . S
C953 H969 0.960 . S
H954 C938 0.931 . S
H955 C943 0.929 . S
H956 C944 0.960 . S
H957 C944 0.962 . S
H958 C944 0.960 . S
H959 C945 0.961 . S
H960 C945 0.961 . S
H961 C945 0.961 . S
H962 C946 0.931 . S
H963 C951 0.930 . S
H964 C952 0.956 . S
H965 C952 0.961 . S
H966 C952 0.961 . S
H967 C953 0.958 . S
H968 C953 0.961 . S
H969 C953 0.960 . S
C970 C971 1.391 . S
C970 C972 1.394 . S
C970 H986 0.931 . S
C971 C970 1.391 . S
C971 C975 1.376 . S
C972 C970 1.394 . S
C972 C973 1.369 . S
C972 C976 1.531 . S
C973 C972 1.369 . S
C973 C974 1.410 . S
C973 C981 1.503 . S
C974 C973 1.410 . S
C974 C975 1.392 . S
C974 C977 1.511 . S
C975 C971 1.376 . S
C975 C974 1.392 . S
C975 H987 0.929 . S
C976 C972 1.531 . S
C976 H988 0.960 . S
C976 H989 0.962 . S
C976 H990 0.960 . S
C977 C974 1.511 . S
C977 H991 0.961 . S
C977 H992 0.961 . S
C977 H993 0.961 . S
C978 C979 1.370 . S
C978 C980 1.363 . S
C978 H994 0.931 . S
C979 C978 1.370 . S
C979 C983 1.408 . S
C980 C978 1.363 . S
C980 C981 1.370 . S
C980 C984 1.524 . S
C981 C973 1.503 . S
C981 C980 1.370 . S
C981 C982 1.403 . S
C982 C981 1.403 . S
C982 C983 1.404 . S
C982 C985 1.539 . S
C983 C979 1.408 . S
C983 C982 1.404 . S
C983 H995 0.930 . S
C984 C980 1.524 . S
C984 H996 0.956 . S
C984 H997 0.961 . S
C984 H998 0.961 . S
C985 C982 1.539 . S
C985 H999 0.958 . S
C985 H1000 0.961 . S
C985 H1001 0.960 . S
H986 C970 0.931 . S
H987 C975 0.929 . S
H988 C976 0.960 . S
H989 C976 0.962 . S
H990 C976 0.960 . S
H991 C977 0.961 . S
H992 C977 0.961 . S
H993 C977 0.961 . S
H994 C978 0.931 . S
H995 C983 0.930 . S
H996 C984 0.956 . S
H997 C984 0.961 . S
H998 C984 0.961 . S
H999 C985 0.958 . S
H1000 C985 0.961 . S
H1001 C985 0.960 . S
C1002 C1003 1.391 . S
C1002 C1004 1.394 . S
C1002 H1018 0.931 . S
C1003 C1002 1.391 . S
C1003 C1007 1.376 . S
C1004 C1002 1.394 . S
C1004 C1005 1.369 . S
C1004 C1008 1.531 . S
C1005 C1004 1.369 . S
C1005 C1006 1.410 . S
C1005 C1013 1.503 . S
C1006 C1005 1.410 . S
C1006 C1007 1.392 . S
C1006 C1009 1.511 . S
C1007 C1003 1.376 . S
C1007 C1006 1.392 . S
C1007 H1019 0.929 . S
C1008 C1004 1.531 . S
C1008 H1020 0.960 . S
C1008 H1021 0.962 . S
C1008 H1022 0.960 . S
C1009 C1006 1.511 . S
C1009 H1023 0.961 . S
C1009 H1024 0.961 . S
C1009 H1025 0.961 . S
C1010 C1011 1.370 . S
C1010 C1012 1.363 . S
C1010 H1026 0.931 . S
C1011 C1010 1.370 . S
C1011 C1015 1.408 . S
C1012 C1010 1.363 . S
C1012 C1013 1.370 . S
C1012 C1016 1.524 . S
C1013 C1005 1.503 . S
C1013 C1012 1.370 . S
C1013 C1014 1.403 . S
C1014 C1013 1.403 . S
C1014 C1015 1.404 . S
C1014 C1017 1.539 . S
C1015 C1011 1.408 . S
C1015 C1014 1.404 . S
C1015 H1027 0.930 . S
C1016 C1012 1.524 . S
C1016 H1028 0.956 . S
C1016 H1029 0.961 . S
C1016 H1030 0.961 . S
C1017 C1014 1.539 . S
C1017 H1031 0.958 . S
C1017 H1032 0.961 . S
C1017 H1033 0.960 . S
H1018 C1002 0.931 . S
H1019 C1007 0.929 . S
H1020 C1008 0.960 . S
H1021 C1008 0.962 . S
H1022 C1008 0.960 . S
H1023 C1009 0.961 . S
H1024 C1009 0.961 . S
H1025 C1009 0.961 . S
H1026 C1010 0.931 . S
H1027 C1015 0.930 . S
H1028 C1016 0.956 . S
H1029 C1016 0.961 . S
H1030 C1016 0.961 . S
H1031 C1017 0.958 . S
H1032 C1017 0.961 . S
H1033 C1017 0.960 . S
C1034 C1035 1.391 . S
C1034 C1036 1.394 . S
C1034 H1050 0.931 . S
C1035 C1034 1.391 . S
C1035 C1039 1.376 . S
C1036 C1034 1.394 . S
C1036 C1037 1.369 . S
C1036 C1040 1.531 . S
C1037 C1036 1.369 . S
C1037 C1038 1.410 . S
C1037 C1045 1.503 . S
C1038 C1037 1.410 . S
C1038 C1039 1.392 . S
C1038 C1041 1.511 . S
C1039 C1035 1.376 . S
C1039 C1038 1.392 . S
C1039 H1051 0.929 . S
C1040 C1036 1.531 . S
C1040 H1052 0.960 . S
C1040 H1053 0.962 . S
C1040 H1054 0.960 . S
C1041 C1038 1.511 . S
C1041 H1055 0.961 . S
C1041 H1056 0.961 . S
C1041 H1057 0.961 . S
C1042 C1043 1.370 . S
C1042 C1044 1.363 . S
C1042 H1058 0.931 . S
C1043 C1042 1.370 . S
C1043 C1047 1.408 . S
C1044 C1042 1.363 . S
C1044 C1045 1.370 . S
C1044 C1048 1.524 . S
C1045 C1037 1.503 . S
C1045 C1044 1.370 . S
C1045 C1046 1.403 . S
C1046 C1045 1.403 . S
C1046 C1047 1.404 . S
C1046 C1049 1.539 . S
C1047 C1043 1.408 . S
C1047 C1046 1.404 . S
C1047 H1059 0.930 . S
C1048 C1044 1.524 . S
C1048 H1060 0.956 . S
C1048 H1061 0.961 . S
C1048 H1062 0.961 . S
C1049 C1046 1.539 . S
C1049 H1063 0.958 . S
C1049 H1064 0.961 . S
C1049 H1065 0.960 . S
H1050 C1034 0.931 . S
H1051 C1039 0.929 . S
H1052 C1040 0.960 . S
H1053 C1040 0.962 . S
H1054 C1040 0.960 . S
H1055 C1041 0.961 . S
H1056 C1041 0.961 . S
H1057 C1041 0.961 . S
H1058 C1042 0.931 . S
H1059 C1047 0.930 . S
H1060 C1048 0.956 . S
H1061 C1048 0.961 . S
H1062 C1048 0.961 . S
H1063 C1049 0.958 . S
H1064 C1049 0.961 . S
H1065 C1049 0.960 . S
C1066 C1067 1.391 . S
C1066 C1068 1.394 . S
C1066 H1082 0.931 . S
C1067 C1066 1.391 . S
C1067 C1071 1.376 . S
C1068 C1066 1.394 . S
C1068 C1069 1.369 . S
C1068 C1072 1.531 . S
C1069 C1068 1.369 . S
C1069 C1070 1.410 . S
C1069 C1077 1.503 . S
C1070 C1069 1.410 . S
C1070 C1071 1.392 . S
C1070 C1073 1.511 . S
C1071 C1067 1.376 . S
C1071 C1070 1.392 . S
C1071 H1083 0.929 . S
C1072 C1068 1.531 . S
C1072 H1084 0.960 . S
C1072 H1085 0.962 . S
C1072 H1086 0.960 . S
C1073 C1070 1.511 . S
C1073 H1087 0.961 . S
C1073 H1088 0.961 . S
C1073 H1089 0.961 . S
C1074 C1075 1.370 . S
C1074 C1076 1.363 . S
C1074 H1090 0.931 . S
C1075 C1074 1.370 . S
C1075 C1079 1.408 . S
C1076 C1074 1.363 . S
C1076 C1077 1.370 . S
C1076 C1080 1.524 . S
C1077 C1069 1.503 . S
C1077 C1076 1.370 . S
C1077 C1078 1.403 . S
C1078 C1077 1.403 . S
C1078 C1079 1.404 . S
C1078 C1081 1.539 . S
C1079 C1075 1.408 . S
C1079 C1078 1.404 . S
C1079 H1091 0.930 . S
C1080 C1076 1.524 . S
C1080 H1092 0.956 . S
C1080 H1093 0.961 . S
C1080 H1094 0.961 . S
C1081 C1078 1.539 . S
C1081 H1095 0.958 . S
C1081 H1096 0.961 . S
C1081 H1097 0.960 . S
H1082 C1066 0.931 . S
H1083 C1071 0.929 . S
H1084 C1072 0.960 . S
H1085 C1072 0.962 . S
H1086 C1072 0.960 . S
H1087 C1073 0.961 . S
H1088 C1073 0.961 . S
H1089 C1073 0.961 . S
H1090 C1074 0.931 . S
H1091 C1079 0.930 . S
H1092 C1080 0.956 . S
H1093 C1080 0.961 . S
H1094 C1080 0.961 . S
H1095 C1081 0.958 . S
H1096 C1081 0.961 . S
H1097 C1081 0.960 . S
C1098 C1099 1.391 . S
C1098 C1100 1.394 . S
C1098 H1114 0.931 . S
C1099 C1098 1.391 . S
C1099 C1103 1.376 . S
C1100 C1098 1.394 . S
C1100 C1101 1.369 . S
C1100 C1104 1.531 . S
C1101 C1100 1.369 . S
C1101 C1102 1.410 . S
C1101 C1109 1.503 . S
C1102 C1101 1.410 . S
C1102 C1103 1.392 . S
C1102 C1105 1.511 . S
C1103 C1099 1.376 . S
C1103 C1102 1.392 . S
C1103 H1115 0.929 . S
C1104 C1100 1.531 . S
C1104 H1116 0.960 . S
C1104 H1117 0.962 . S
C1104 H1118 0.960 . S
C1105 C1102 1.511 . S
C1105 H1119 0.961 . S
C1105 H1120 0.961 . S
C1105 H1121 0.961 . S
C1106 C1107 1.370 . S
C1106 C1108 1.363 . S
C1106 H1122 0.931 . S
C1107 C1106 1.370 . S
C1107 C1111 1.408 . S
C1108 C1106 1.363 . S
C1108 C1109 1.370 . S
C1108 C1112 1.524 . S
C1109 C1101 1.503 . S
C1109 C1108 1.370 . S
C1109 C1110 1.403 . S
C1110 C1109 1.403 . S
C1110 C1111 1.404 . S
C1110 C1113 1.539 . S
C1111 C1107 1.408 . S
C1111 C1110 1.404 . S
C1111 H1123 0.930 . S
C1112 C1108 1.524 . S
C1112 H1124 0.956 . S
C1112 H1125 0.961 . S
C1112 H1126 0.961 . S
C1113 C1110 1.539 . S
C1113 H1127 0.958 . S
C1113 H1128 0.961 . S
C1113 H1129 0.960 . S
H1114 C1098 0.931 . S
H1115 C1103 0.929 . S
H1116 C1104 0.960 . S
H1117 C1104 0.962 . S
H1118 C1104 0.960 . S
H1119 C1105 0.961 . S
H1120 C1105 0.961 . S
H1121 C1105 0.961 . S
H1122 C1106 0.931 . S
H1123 C1111 0.930 . S
H1124 C1112 0.956 . S
H1125 C1112 0.961 . S
H1126 C1112 0.961 . S
H1127 C1113 0.958 . S
H1128 C1113 0.961 . S
H1129 C1113 0.960 . S
C1130 C1131 1.391 . S
C1130 C1132 1.394 . S
C1130 H1146 0.931 . S
C1131 C1130 1.391 . S
C1131 C1135 1.376 . S
C1132 C1130 1.394 . S
C1132 C1133 1.369 . S
C1132 C1136 1.531 . S
C1133 C1132 1.369 . S
C1133 C1134 1.410 . S
C1133 C1141 1.503 . S
C1134 C1133 1.410 . S
C1134 C1135 1.392 . S
C1134 C1137 1.511 . S
C1135 C1131 1.376 . S
C1135 C1134 1.392 . S
C1135 H1147 0.929 . S
C1136 C1132 1.531 . S
C1136 H1148 0.960 . S
C1136 H1149 0.962 . S
C1136 H1150 0.960 . S
C1137 C1134 1.511 . S
C1137 H1151 0.961 . S
C1137 H1152 0.961 . S
C1137 H1153 0.961 . S
C1138 C1139 1.370 . S
C1138 C1140 1.363 . S
C1138 H1154 0.931 . S
C1139 C1138 1.370 . S
C1139 C1143 1.408 . S
C1140 C1138 1.363 . S
C1140 C1141 1.370 . S
C1140 C1144 1.524 . S
C1141 C1133 1.503 . S
C1141 C1140 1.370 . S
C1141 C1142 1.403 . S
C1142 C1141 1.403 . S
C1142 C1143 1.404 . S
C1142 C1145 1.539 . S
C1143 C1139 1.408 . S
C1143 C1142 1.404 . S
C1143 H1155 0.930 . S
C1144 C1140 1.524 . S
C1144 H1156 0.956 . S
C1144 H1157 0.961 . S
C1144 H1158 0.961 . S
C1145 C1142 1.539 . S
C1145 H1159 0.958 . S
C1145 H1160 0.961 . S
C1145 H1161 0.960 . S
H1146 C1130 0.931 . S
H1147 C1135 0.929 . S
H1148 C1136 0.960 . S
H1149 C1136 0.962 . S
H1150 C1136 0.960 . S
H1151 C1137 0.961 . S
H1152 C1137 0.961 . S
H1153 C1137 0.961 . S
H1154 C1138 0.931 . S
H1155 C1143 0.930 . S
H1156 C1144 0.956 . S
H1157 C1144 0.961 . S
H1158 C1144 0.961 . S
H1159 C1145 0.958 . S
H1160 C1145 0.961 . S
H1161 C1145 0.960 . S
C1162 C1163 1.391 . S
C1162 C1164 1.394 . S
C1162 H1178 0.931 . S
C1163 C1162 1.391 . S
C1163 C1167 1.376 . S
C1164 C1162 1.394 . S
C1164 C1165 1.369 . S
C1164 C1168 1.531 . S
C1165 C1164 1.369 . S
C1165 C1166 1.410 . S
C1165 C1173 1.503 . S
C1166 C1165 1.410 . S
C1166 C1167 1.392 . S
C1166 C1169 1.511 . S
C1167 C1163 1.376 . S
C1167 C1166 1.392 . S
C1167 H1179 0.929 . S
C1168 C1164 1.531 . S
C1168 H1180 0.960 . S
C1168 H1181 0.962 . S
C1168 H1182 0.960 . S
C1169 C1166 1.511 . S
C1169 H1183 0.961 . S
C1169 H1184 0.961 . S
C1169 H1185 0.961 . S
C1170 C1171 1.370 . S
C1170 C1172 1.363 . S
C1170 H1186 0.931 . S
C1171 C1170 1.370 . S
C1171 C1175 1.408 . S
C1172 C1170 1.363 . S
C1172 C1173 1.370 . S
C1172 C1176 1.524 . S
C1173 C1165 1.503 . S
C1173 C1172 1.370 . S
C1173 C1174 1.403 . S
C1174 C1173 1.403 . S
C1174 C1175 1.404 . S
C1174 C1177 1.539 . S
C1175 C1171 1.408 . S
C1175 C1174 1.404 . S
C1175 H1187 0.930 . S
C1176 C1172 1.524 . S
C1176 H1188 0.956 . S
C1176 H1189 0.961 . S
C1176 H1190 0.961 . S
C1177 C1174 1.539 . S
C1177 H1191 0.958 . S
C1177 H1192 0.961 . S
C1177 H1193 0.960 . S
H1178 C1162 0.931 . S
H1179 C1167 0.929 . S
H1180 C1168 0.960 . S
H1181 C1168 0.962 . S
H1182 C1168 0.960 . S
H1183 C1169 0.961 . S
H1184 C1169 0.961 . S
H1185 C1169 0.961 . S
H1186 C1170 0.931 . S
H1187 C1175 0.930 . S
H1188 C1176 0.956 . S
H1189 C1176 0.961 . S
H1190 C1176 0.961 . S
H1191 C1177 0.958 . S
H1192 C1177 0.961 . S
H1193 C1177 0.960 . S
C427 C7 1.855 . S
C435 C159 1.851 . S
C459 C30 1.608 . S
C467 C216 1.627 . S
C499 C270 1.724 . S
C491 N58 1.707 . S
C531 C327 1.446 . S
C523 N81 1.470 . S
C563 C351 1.751 . S
C555 C99 1.765 . S
C595 C408 1.539 . S
C587 N127 1.511 . S
C619 N25 1.732 . S
C627 C255 1.746 . S
C651 C62 1.622 . S
C659 C312 1.612 . S
C691 C366 1.775 . S
C683 C85 1.802 . S
C723 C423 1.482 . S
C715 N94 1.529 . S
C747 C131 1.803 . S
C755 C174 1.777 . S
C787 C231 1.469 . S
C779 N2 1.452 . S
C819 C318 1.794 . S
C811 C16 1.813 . S
C843 C39 1.586 . S
C851 C360 1.552 . S
C883 C399 1.704 . S
C875 N48 1.718 . S
C907 N71 1.444 . S
C915 C168 1.454 . S
C939 C108 1.772 . S
C947 C207 1.742 . S
C971 N117 1.485 . S
C979 C279 1.541 . S
C1003 N35 1.709 . S
C1011 C414 1.723 . S
C1043 C183 1.622 . S
C1035 C53 1.620 . S
C1067 C76 1.849 . S
C1075 C222 1.823 . S
C1099 N104 1.496 . S
C1107 C264 1.470 . S
C1131 C122 1.737 . S
C1139 C303 1.734 . S
C1163 N12 1.389 . S
C1171 C375 1.478 . S
