# Generated by pormake.
# Topology csq, (4,8)-cn, num edge types: 1
# Building blocks:
#     Node 0, Type 0, BuildingBlock: AZAVOO_clean_linker_0, # of connection points: 4
#     Node 1, Type 0, BuildingBlock: AZAVOO_clean_linker_0, # of connection points: 4
#     Node 2, Type 0, BuildingBlock: AZAVOO_clean_linker_0, # of connection points: 4
#     Node 3, Type 0, BuildingBlock: AZAVOO_clean_linker_0, # of connection points: 4
#     Node 4, Type 0, BuildingBlock: AZAVOO_clean_linker_0, # of connection points: 4
#     Node 5, Type 0, BuildingBlock: AZAVOO_clean_linker_0, # of connection points: 4
#     Node 6, Type 1, BuildingBlock: TAGTUT_clean_sbu_3, # of connection points: 8
#     Node 7, Type 1, BuildingBlock: TAGTUT_clean_sbu_3, # of connection points: 8
#     Node 8, Type 1, BuildingBlock: TAGTUT_clean_sbu_3, # of connection points: 8
#     Edge 9, Type (0, 1), BuildingBlock: AJUNOK_clean_linker_0, # of connection points: 2
#     Edge 10, Type (0, 1), BuildingBlock: AJUNOK_clean_linker_0, # of connection points: 2
#     Edge 11, Type (0, 1), BuildingBlock: AJUNOK_clean_linker_0, # of connection points: 2
#     Edge 12, Type (0, 1), BuildingBlock: AJUNOK_clean_linker_0, # of connection points: 2
#     Edge 13, Type (0, 1), BuildingBlock: AJUNOK_clean_linker_0, # of connection points: 2
#     Edge 14, Type (0, 1), BuildingBlock: AJUNOK_clean_linker_0, # of connection points: 2
#     Edge 15, Type (0, 1), BuildingBlock: AJUNOK_clean_linker_0, # of connection points: 2
#     Edge 16, Type (0, 1), BuildingBlock: AJUNOK_clean_linker_0, # of connection points: 2
#     Edge 17, Type (0, 1), BuildingBlock: AJUNOK_clean_linker_0, # of connection points: 2
#     Edge 18, Type (0, 1), BuildingBlock: AJUNOK_clean_linker_0, # of connection points: 2
#     Edge 19, Type (0, 1), BuildingBlock: AJUNOK_clean_linker_0, # of connection points: 2
#     Edge 20, Type (0, 1), BuildingBlock: AJUNOK_clean_linker_0, # of connection points: 2
#     Edge 21, Type (0, 1), BuildingBlock: AJUNOK_clean_linker_0, # of connection points: 2
#     Edge 22, Type (0, 1), BuildingBlock: AJUNOK_clean_linker_0, # of connection points: 2
#     Edge 23, Type (0, 1), BuildingBlock: AJUNOK_clean_linker_0, # of connection points: 2
#     Edge 24, Type (0, 1), BuildingBlock: AJUNOK_clean_linker_0, # of connection points: 2
#     Edge 25, Type (0, 1), BuildingBlock: AJUNOK_clean_linker_0, # of connection points: 2
#     Edge 26, Type (0, 1), BuildingBlock: AJUNOK_clean_linker_0, # of connection points: 2
#     Edge 27, Type (0, 1), BuildingBlock: AJUNOK_clean_linker_0, # of connection points: 2
#     Edge 28, Type (0, 1), BuildingBlock: AJUNOK_clean_linker_0, # of connection points: 2
#     Edge 29, Type (0, 1), BuildingBlock: AJUNOK_clean_linker_0, # of connection points: 2
#     Edge 30, Type (0, 1), BuildingBlock: AJUNOK_clean_linker_0, # of connection points: 2
#     Edge 31, Type (0, 1), BuildingBlock: AJUNOK_clean_linker_0, # of connection points: 2
#     Edge 32, Type (0, 1), BuildingBlock: AJUNOK_clean_linker_0, # of connection points: 2
# Relax obj value: 0.149
# Max RMSD: 0.242
# Mean RMSD: 0.201
data_MOF--net-csq--node1-TAGTUT_clean_sbu_3--node2-AZAVOO_clean_linker_0--edge1-AJUNOK_clean_linker_0
_symmetry_space_group_name_H-M    P1
_symmetry_Int_Tables_number       1
_symmetry_cell_setting            triclinic
loop_
_symmetry_equiv_pos_as_xyz
'x, y, z'
_cell_length_a     45.552443
_cell_length_b     44.884494
_cell_length_c     18.352869
_cell_angle_alpha  92.574714
_cell_angle_beta   92.797765
_cell_angle_gamma 120.15187
loop_
_atom_site_label
_atom_site_type_symbol
_atom_site_fract_x
_atom_site_fract_y
_atom_site_fract_z
_atom_type_partial_charge
H0 H 0.15689 0.43404 0.63877 0.0
H1 H 0.4474 0.54525 0.19677 0.0
H2 H 0.132 0.42282 0.21624 0.0
H3 H 0.08967 0.42517 0.2897 0.0
H4 H 0.1467 0.53661 0.29878 0.0
H5 H 0.18911 0.53409 0.22618 0.0
H6 H 0.172 0.42515 0.32691 0.0
H7 H 0.15571 0.41918 0.45247 0.0
H8 H 0.22101 0.52946 0.50128 0.0
H9 H 0.23675 0.53513 0.3746 0.0
H10 H 0.23626 0.43412 0.33805 0.0
H11 H 0.27696 0.42781 0.41693 0.0
H12 H 0.35339 0.53377 0.38965 0.0
H13 H 0.31095 0.54111 0.3199 0.0
H14 H 0.27965 0.43934 0.19776 0.0
H15 H 0.33715 0.4478 0.20067 0.0
H16 H 0.37774 0.55631 0.17178 0.0
H17 H 0.32004 0.54739 0.16849 0.0
H18 H 0.22901 0.41992 0.06715 0.0
H19 H 0.27045 0.41479 0.99722 0.0
H20 H 0.31849 0.52318 0.9599 0.0
H21 H 0.27758 0.52833 0.03355 0.0
H22 H 0.15452 0.40889 0.09944 0.0
H23 H 0.10818 0.38792 0.00209 0.0
H24 H 0.15286 0.49093 0.92947 0.0
H25 H 0.19926 0.51156 0.02651 0.0
O26 O 0.1612 0.43761 0.58792 0.0
O27 O 0.18948 0.49492 0.60806 0.0
O28 O 0.40188 0.48414 0.19719 0.0
O29 O 0.42427 0.54087 0.19287 0.0
C30 C 0.19564 0.47805 0.20433 0.0
C31 C 0.21737 0.48321 0.26709 0.0
C32 C 0.25001 0.48826 0.25932 0.0
C33 C 0.26127 0.48829 0.1892 0.0
C34 C 0.23877 0.48048 0.12623 0.0
C35 C 0.20549 0.47459 0.13376 0.0
C36 C 0.16372 0.47828 0.21581 0.0
C37 C 0.13438 0.44766 0.23047 0.0
C38 C 0.11044 0.44908 0.27335 0.0
C39 C 0.11557 0.48112 0.30178 0.0
C40 C 0.14263 0.5116 0.27907 0.0
C41 C 0.16651 0.51016 0.23634 0.0
C42 C 0.20519 0.48062 0.34148 0.0
C43 C 0.18219 0.44811 0.36433 0.0
C44 C 0.17316 0.44473 0.4363 0.0
C45 C 0.18721 0.47382 0.48702 0.0
C46 C 0.20975 0.50654 0.46353 0.0
C47 C 0.21872 0.50988 0.39128 0.0
C48 C 0.27079 0.48806 0.32333 0.0
C49 C 0.26115 0.45655 0.35308 0.0
C50 C 0.28472 0.45276 0.39649 0.0
C51 C 0.31859 0.48005 0.40841 0.0
C52 C 0.32741 0.51239 0.38298 0.0
C53 C 0.30327 0.51662 0.34258 0.0
C54 C 0.29572 0.49273 0.18259 0.0
C55 C 0.30096 0.46479 0.19096 0.0
C56 C 0.33383 0.46974 0.19292 0.0
C57 C 0.36207 0.50281 0.18696 0.0
C58 C 0.35658 0.53057 0.17692 0.0
C59 C 0.32366 0.52552 0.17448 0.0
C60 C 0.25016 0.47446 0.05558 0.0
C61 C 0.2473 0.44217 0.04067 0.0
C62 C 0.27155 0.43948 0.00168 0.0
C63 C 0.29874 0.46893 0.97541 0.0
C64 C 0.2988 0.50032 0.98209 0.0
C65 C 0.27468 0.50306 0.02199 0.0
C66 C 0.18003 0.46175 0.07004 0.0
C67 C 0.15453 0.42676 0.06165 0.0
C68 C 0.12819 0.41482 0.00612 0.0
C69 C 0.1271 0.43767 0.95774 0.0
C70 C 0.15346 0.47252 0.96478 0.0
C71 C 0.17981 0.48445 0.02045 0.0
C72 C 0.17925 0.46961 0.56458 0.0
C73 C 0.3972 0.50855 0.19248 0.0
H74 H 0.82241 0.27351 0.60873 0.0
H75 H 0.60597 0.99854 0.96439 0.0
H76 H 0.77592 0.30333 0.19345 0.0
H77 H 0.81379 0.35419 0.27658 0.0
H78 H 0.88777 0.32091 0.28927 0.0
H79 H 0.84941 0.26971 0.20677 0.0
H80 H 0.75727 0.2564 0.31508 0.0
H81 H 0.77948 0.2686 0.44368 0.0
H82 H 0.83006 0.21033 0.40455 0.0
H83 H 0.80802 0.19874 0.27578 0.0
H84 H 0.69312 0.17904 0.26385 0.0
H85 H 0.65268 0.12492 0.31348 0.0
H86 H 0.71198 0.07922 0.24749 0.0
H87 H 0.75244 0.13362 0.19702 0.0
H88 H 0.66274 0.15889 0.11045 0.0
H89 H 0.61516 0.10078 0.07257 0.0
H90 H 0.68625 0.07039 0.00261 0.0
H91 H 0.73363 0.12846 0.04162 0.0
H92 H 0.69036 0.21403 0.00696 0.0
H93 H 0.64878 0.17355 0.91078 0.0
H94 H 0.72143 0.14471 0.84475 0.0
H95 H 0.76267 0.1848 0.94264 0.0
H96 H 0.75349 0.28912 0.04133 0.0
H97 H 0.78236 0.33407 0.95591 0.0
H98 H 0.85616 0.30153 0.93179 0.0
H99 H 0.82732 0.25697 0.01666 0.0
O100 O 0.81358 0.26805 0.55787 0.0
O101 O 0.83829 0.23701 0.53538 0.0
O102 O 0.58872 0.03879 0.01561 0.0
O103 O 0.62429 0.0216 0.98052 0.0
C104 C 0.78364 0.24843 0.1608 0.0
C105 C 0.76926 0.22109 0.20738 0.0
C106 C 0.74307 0.18825 0.17917 0.0
C107 C 0.73048 0.18257 0.10537 0.0
C108 C 0.74454 0.20971 0.05865 0.0
C109 C 0.77146 0.24268 0.08596 0.0
C110 C 0.81014 0.28314 0.19319 0.0
C111 C 0.80081 0.30768 0.21202 0.0
C112 C 0.82231 0.33649 0.26012 0.0
C113 C 0.85365 0.34137 0.28964 0.0
C114 C 0.86361 0.31755 0.26795 0.0
C115 C 0.84207 0.28872 0.21986 0.0
C116 C 0.78125 0.2269 0.28619 0.0
C117 C 0.77316 0.24632 0.33446 0.0
C118 C 0.78587 0.25322 0.40786 0.0
C119 C 0.80666 0.24054 0.43437 0.0
C120 C 0.81418 0.22054 0.38591 0.0
C121 C 0.80156 0.21378 0.31245 0.0
C122 C 0.72564 0.16011 0.22745 0.0
C123 C 0.698 0.15775 0.26233 0.0
C124 C 0.6747 0.12678 0.28924 0.0
C125 C 0.67901 0.09798 0.2821 0.0
C126 C 0.70815 0.10115 0.25248 0.0
C127 C 0.73135 0.13215 0.22479 0.0
C128 C 0.70153 0.14792 0.07786 0.0
C129 C 0.66792 0.1397 0.08628 0.0
C130 C 0.64082 0.10654 0.06454 0.0
C131 C 0.64687 0.08106 0.03368 0.0
C132 C 0.68067 0.08942 0.02583 0.0
C133 C 0.70776 0.1226 0.04762 0.0
C134 C 0.72946 0.20221 0.98208 0.0
C135 C 0.69811 0.20068 0.96876 0.0
C136 C 0.67416 0.17714 0.91412 0.0
C137 C 0.68158 0.15532 0.87143 0.0
C138 C 0.71485 0.16075 0.87785 0.0
C139 C 0.73872 0.18419 0.93275 0.0
C140 C 0.78851 0.27002 0.03528 0.0
C141 C 0.77593 0.29186 0.01754 0.0
C142 C 0.79241 0.31745 0.96901 0.0
C143 C 0.82146 0.32122 0.93723 0.0
C144 C 0.83365 0.29899 0.9549 0.0
C145 C 0.81739 0.27371 0.00362 0.0
C146 C 0.8205 0.24832 0.51216 0.0
C147 C 0.61813 0.04593 0.00958 0.0
H148 H 0.65145 0.90404 0.7377 0.0
H149 H 0.50134 0.53891 0.94543 0.0
H150 H 0.58554 0.852 0.07315 0.0
H151 H 0.57861 0.89273 0.00076 0.0
H152 H 0.47071 0.81972 0.96391 0.0
H153 H 0.47819 0.7785 0.0335 0.0
H154 H 0.61698 0.81569 0.98166 0.0
H155 H 0.64134 0.85605 0.8868 0.0
H156 H 0.5399 0.82325 0.79251 0.0
H157 H 0.51581 0.7836 0.88861 0.0
H158 H 0.59922 0.72645 0.97294 0.0
H159 H 0.59849 0.6892 0.87092 0.0
H160 H 0.51611 0.69454 0.75753 0.0
H161 H 0.51432 0.72814 0.86268 0.0
H162 H 0.57444 0.69573 0.12302 0.0
H163 H 0.57008 0.63923 0.10459 0.0
H164 H 0.48673 0.60734 0.93917 0.0
H165 H 0.49086 0.6636 0.95926 0.0
H166 H 0.56065 0.74029 0.25172 0.0
H167 H 0.55074 0.69758 0.33992 0.0
H168 H 0.46202 0.62097 0.20417 0.0
H169 H 0.47065 0.66462 0.11885 0.0
H170 H 0.5727 0.82135 0.20331 0.0
H171 H 0.56439 0.84459 0.31792 0.0
H172 H 0.46498 0.75342 0.3206 0.0
H173 H 0.47244 0.73149 0.20251 0.0
O174 O 0.64133 0.88772 0.77435 0.0
O175 O 0.58854 0.8704 0.72909 0.0
O176 O 0.54458 0.57794 0.04371 0.0
O177 O 0.50321 0.56122 0.9548 0.0
C178 C 0.53881 0.78269 0.06351 0.0
C179 C 0.55035 0.77312 0.00148 0.0
C180 C 0.54869 0.74106 0.99538 0.0
C181 C 0.53629 0.71851 0.05201 0.0
C182 C 0.5271 0.72893 0.11703 0.0
C183 C 0.52887 0.76155 0.12333 0.0
C184 C 0.53249 0.81198 0.05772 0.0
C185 C 0.56013 0.84544 0.05259 0.0
C186 C 0.55619 0.86849 0.00998 0.0
C187 C 0.52437 0.85869 0.97339 0.0
C188 C 0.49585 0.82732 0.98833 0.0
C189 C 0.49989 0.80412 0.03016 0.0
C190 C 0.56468 0.7969 0.94228 0.0
C191 C 0.60008 0.81732 0.94051 0.0
C192 C 0.6139 0.84035 0.88632 0.0
C193 C 0.5925 0.84309 0.83248 0.0
C194 C 0.55701 0.82208 0.83374 0.0
C195 C 0.54322 0.79933 0.88838 0.0
C196 C 0.55636 0.72934 0.92586 0.0
C197 C 0.58182 0.72052 0.92496 0.0
C198 C 0.58182 0.69982 0.86591 0.0
C199 C 0.55683 0.68863 0.80689 0.0
C200 C 0.53543 0.70268 0.80272 0.0
C201 C 0.53445 0.722 0.86283 0.0
C202 C 0.53297 0.68377 0.04255 0.0
C203 C 0.55508 0.6764 0.08332 0.0
C204 C 0.5526 0.64416 0.07246 0.0
C205 C 0.52813 0.61881 0.02014 0.0
C206 C 0.50589 0.62626 0.97975 0.0
C207 C 0.50821 0.65839 0.99109 0.0
C208 C 0.51675 0.70557 0.17804 0.0
C209 C 0.53842 0.71467 0.24218 0.0
C210 C 0.53298 0.69001 0.29195 0.0
C211 C 0.50632 0.65548 0.27761 0.0
C212 C 0.48295 0.64719 0.21657 0.0
C213 C 0.48796 0.67212 0.16763 0.0
C214 C 0.52305 0.7749 0.1936 0.0
C215 C 0.54891 0.80652 0.22803 0.0
C216 C 0.54438 0.81948 0.2944 0.0
C217 C 0.51397 0.80095 0.32855 0.0
C218 C 0.48846 0.76867 0.29521 0.0
C219 C 0.49279 0.75599 0.2279 0.0
C220 C 0.6072 0.86781 0.7754 0.0
C221 C 0.52588 0.5848 0.00722 0.0
H222 H 0.78235 0.64333 0.54436 0.0
H223 H 0.9822 0.64951 0.95172 0.0
H224 H 0.72104 0.51974 0.14093 0.0
H225 H 0.67446 0.50629 0.21855 0.0
H226 H 0.70123 0.61343 0.23218 0.0
H227 H 0.74785 0.62677 0.15394 0.0
H228 H 0.77475 0.56596 0.27237 0.0
H229 H 0.7733 0.58894 0.39461 0.0
H230 H 0.82903 0.6928 0.32617 0.0
H231 H 0.82979 0.66941 0.20358 0.0
H232 H 0.83698 0.57334 0.24011 0.0
H233 H 0.88954 0.58152 0.30017 0.0
H234 H 0.94792 0.67205 0.18371 0.0
H235 H 0.89446 0.66445 0.12462 0.0
H236 H 0.85521 0.54877 0.09015 0.0
H237 H 0.90746 0.55171 0.05326 0.0
H238 H 0.92951 0.64108 0.93543 0.0
H239 H 0.87727 0.63771 0.97267 0.0
H240 H 0.79461 0.50987 0.99298 0.0
H241 H 0.82701 0.49761 0.90747 0.0
H242 H 0.84203 0.58476 0.78961 0.0
H243 H 0.81121 0.59803 0.87865 0.0
H244 H 0.73088 0.50159 0.97991 0.0
H245 H 0.67431 0.47486 0.91195 0.0
H246 H 0.67884 0.57332 0.92704 0.0
H247 H 0.73547 0.6001 0.99161 0.0
O248 O 0.78362 0.63485 0.49588 0.0
O249 O 0.81291 0.68778 0.45853 0.0
O250 O 0.95665 0.57203 0.96875 0.0
O251 O 0.98105 0.62735 0.94835 0.0
C252 C 0.77021 0.58304 0.10919 0.0
C253 C 0.80125 0.60197 0.15334 0.0
C254 C 0.83147 0.60612 0.12712 0.0
C255 C 0.83085 0.59126 0.05731 0.0
C256 C 0.79993 0.57245 0.01259 0.0
C257 C 0.76963 0.56906 0.03785 0.0
C258 C 0.73792 0.57424 0.1421 0.0
C259 C 0.71627 0.54014 0.1589 0.0
C260 C 0.68988 0.53255 0.20367 0.0
C261 C 0.68484 0.55899 0.23261 0.0
C262 C 0.70516 0.59277 0.21193 0.0
C263 C 0.73145 0.60031 0.16668 0.0
C264 C 0.802 0.61601 0.22887 0.0
C265 C 0.78654 0.59366 0.28382 0.0
C266 C 0.78582 0.60687 0.35366 0.0
C267 C 0.8009 0.64271 0.37008 0.0
C268 C 0.81706 0.66506 0.31526 0.0
C269 C 0.81762 0.6518 0.24529 0.0
C270 C 0.862 0.61829 0.17818 0.0
C271 C 0.86088 0.59588 0.22993 0.0
C272 C 0.89085 0.60018 0.263 0.0
C273 C 0.92233 0.62675 0.24435 0.0
C274 C 0.92367 0.65117 0.19767 0.0
C275 C 0.89337 0.64703 0.16477 0.0
C276 C 0.86244 0.59292 0.03368 0.0
C277 C 0.87142 0.56893 0.05632 0.0
C278 C 0.90126 0.57069 0.0352 0.0
C279 C 0.92298 0.59683 0.99196 0.0
C280 C 0.91394 0.62102 0.96997 0.0
C281 C 0.88386 0.61896 0.99042 0.0
C282 C 0.80068 0.55501 0.94253 0.0
C283 C 0.80301 0.52505 0.94608 0.0
C284 C 0.82191 0.5182 0.89714 0.0
C285 C 0.83783 0.54064 0.84241 0.0
C286 C 0.83075 0.56742 0.83221 0.0
C287 C 0.81242 0.57463 0.8821 0.0
C288 C 0.73744 0.55288 0.99006 0.0
C289 C 0.71994 0.51747 0.96714 0.0
C290 C 0.68754 0.50216 0.92961 0.0
C291 C 0.67212 0.52198 0.91641 0.0
C292 C 0.68993 0.5574 0.93841 0.0
C293 C 0.72237 0.57275 0.97434 0.0
C294 C 0.79961 0.6566 0.44405 0.0
C295 C 0.95445 0.59806 0.96891 0.0
H296 H 0.23407 0.84272 0.62031 0.0
H297 H 0.05499 0.56447 0.06696 0.0
H298 H 0.2608 0.88476 0.22442 0.0
H299 H 0.31376 0.91942 0.3018 0.0
H300 H 0.35341 0.85743 0.21187 0.0
H301 H 0.29989 0.82227 0.13586 0.0
H302 H 0.19479 0.82555 0.30775 0.0
H303 H 0.2067 0.83983 0.43992 0.0
H304 H 0.29135 0.8219 0.43504 0.0
H305 H 0.2791 0.80751 0.30261 0.0
H306 H 0.13776 0.74636 0.26993 0.0
H307 H 0.12099 0.71454 0.37983 0.0
H308 H 0.21508 0.71264 0.39275 0.0
H309 H 0.22996 0.74147 0.27941 0.0
H310 H 0.11623 0.73451 0.11392 0.0
H311 H 0.06759 0.6757 0.09011 0.0
H312 H 0.13616 0.63548 0.10283 0.0
H313 H 0.18466 0.69454 0.12391 0.0
H314 H 0.14217 0.76687 0.99425 0.0
H315 H 0.1056 0.71684 0.90846 0.0
H316 H 0.18689 0.69412 0.89614 0.0
H317 H 0.22181 0.74189 0.98759 0.0
H318 H 0.22978 0.86902 0.07062 0.0
H319 H 0.26574 0.91432 0.99257 0.0
H320 H 0.29646 0.84639 0.8936 0.0
H321 H 0.26189 0.80175 0.97417 0.0
O322 O 0.23214 0.84057 0.56737 0.0
O323 O 0.27941 0.83782 0.56139 0.0
O324 O 0.03981 0.61014 0.06731 0.0
O325 O 0.07371 0.58794 0.07718 0.0
C326 C 0.24132 0.82087 0.15948 0.0
C327 C 0.22486 0.8015 0.2182 0.0
C328 C 0.19694 0.76784 0.20444 0.0
C329 C 0.18334 0.75448 0.13229 0.0
C330 C 0.19825 0.7747 0.07279 0.0
C331 C 0.22731 0.80827 0.08654 0.0
C332 C 0.2763 0.85065 0.17573 0.0
C333 C 0.28158 0.87985 0.21847 0.0
C334 C 0.3118 0.89943 0.26311 0.0
C335 C 0.33712 0.89018 0.26465 0.0
C336 C 0.33383 0.86437 0.21322 0.0
C337 C 0.30353 0.84469 0.16883 0.0
C338 C 0.23632 0.81592 0.29554 0.0
C339 C 0.21641 0.82553 0.33507 0.0
C340 C 0.22312 0.83342 0.41062 0.0
C341 C 0.24991 0.83183 0.44797 0.0
C342 C 0.2707 0.82356 0.40769 0.0
C343 C 0.26392 0.81559 0.33204 0.0
C344 C 0.18477 0.74571 0.26636 0.0
C345 C 0.15424 0.73827 0.29565 0.0
C346 C 0.14517 0.72084 0.35925 0.0
C347 C 0.1668 0.71114 0.39513 0.0
C348 C 0.19757 0.71911 0.36582 0.0
C349 C 0.2061 0.73558 0.30118 0.0
C350 C 0.15391 0.7187 0.11938 0.0
C351 C 0.12066 0.71294 0.11094 0.0
C352 C 0.09295 0.67935 0.09753 0.0
C353 C 0.09801 0.65088 0.09382 0.0
C354 C 0.13138 0.65681 0.10453 0.0
C355 C 0.15912 0.69047 0.11669 0.0
C356 C 0.18465 0.75803 0.99772 0.0
C357 C 0.15264 0.75202 0.97054 0.0
C358 C 0.13162 0.72315 0.92181 0.0
C359 C 0.14278 0.70051 0.89814 0.0
C360 C 0.17692 0.71005 0.91619 0.0
C361 C 0.19743 0.73813 0.96676 0.0
C362 C 0.24263 0.8317 0.02743 0.0
C363 C 0.24349 0.86349 0.03062 0.0
C364 C 0.264 0.88935 0.98627 0.0
C365 C 0.28343 0.88357 0.93681 0.0
C366 C 0.28109 0.8511 0.93045 0.0
C367 C 0.2611 0.82545 0.97599 0.0
C368 C 0.25499 0.83718 0.52893 0.0
C369 C 0.06868 0.61517 0.07869 0.0
H370 H 0.51896 0.33121 0.76684 0.0
H371 H 0.51308 0.04709 0.13938 0.0
H372 H 0.48768 0.31089 0.19412 0.0
H373 H 0.48045 0.3486 0.11249 0.0
H374 H 0.39164 0.2595 0.00193 0.0
H375 H 0.3966 0.22318 0.08993 0.0
H376 H 0.52736 0.29254 0.06425 0.0
H377 H 0.53391 0.31627 0.94463 0.0
H378 H 0.43295 0.23312 0.86842 0.0
H379 H 0.42747 0.20879 0.98698 0.0
H380 H 0.55394 0.2401 0.09044 0.0
H381 H 0.57626 0.22293 0.98667 0.0
H382 H 0.47296 0.14852 0.90302 0.0
H383 H 0.45134 0.16529 0.00585 0.0
H384 H 0.54598 0.20732 0.22933 0.0
H385 H 0.56499 0.16501 0.22496 0.0
H386 H 0.46399 0.08578 0.13778 0.0
H387 H 0.44527 0.12818 0.14374 0.0
H388 H 0.51631 0.2177 0.35129 0.0
H389 H 0.51576 0.17506 0.43084 0.0
H390 H 0.41074 0.1041 0.35523 0.0
H391 H 0.4115 0.14675 0.27532 0.0
H392 H 0.49424 0.26293 0.35395 0.0
H393 H 0.48197 0.29478 0.44596 0.0
H394 H 0.38009 0.2517 0.34255 0.0
H395 H 0.3928 0.2197 0.24944 0.0
O396 O 0.51625 0.32085 0.81298 0.0
O397 O 0.46373 0.27819 0.77769 0.0
O398 O 0.55693 0.10496 0.19487 0.0
O399 O 0.50603 0.06406 0.14495 0.0
C400 C 0.45713 0.24111 0.16267 0.0
C401 C 0.47346 0.23423 0.10628 0.0
C402 C 0.48703 0.21272 0.11699 0.0
C403 C 0.48361 0.19683 0.18262 0.0
C404 C 0.46822 0.20412 0.24045 0.0
C405 C 0.45543 0.22689 0.23113 0.0
C406 C 0.44324 0.26408 0.14668 0.0
C407 C 0.46542 0.29992 0.15535 0.0
C408 C 0.46196 0.32123 0.10637 0.0
C409 C 0.43725 0.30674 0.04607 0.0
C410 C 0.41165 0.27176 0.04595 0.0
C411 C 0.41422 0.25081 0.09715 0.0
C412 C 0.47663 0.24949 0.03471 0.0
C413 C 0.50668 0.27962 0.02166 0.0
C414 C 0.51034 0.29305 0.9533 0.0
C415 C 0.48373 0.27691 0.89734 0.0
C416 C 0.4538 0.24642 0.91051 0.0
C417 C 0.45051 0.23258 0.97828 0.0
C418 C 0.50116 0.20357 0.0552 0.0
C419 C 0.53639 0.2203 0.04901 0.0
C420 C 0.549 0.21087 0.98978 0.0
C421 C 0.52629 0.18499 0.93641 0.0
C422 C 0.49101 0.16925 0.94228 0.0
C423 C 0.47859 0.17833 0.00138 0.0
C424 C 0.4942 0.17062 0.18771 0.0
C425 C 0.52791 0.18066 0.21063 0.0
C426 C 0.53871 0.1565 0.20765 0.0
C427 C 0.51601 0.12201 0.18083 0.0
C428 C 0.48212 0.11208 0.15874 0.0
C429 C 0.47129 0.13617 0.16245 0.0
C430 C 0.46392 0.1854 0.30753 0.0
C431 C 0.49265 0.19368 0.35476 0.0
C432 C 0.49237 0.16922 0.39991 0.0
C433 C 0.46338 0.13613 0.39817 0.0
C434 C 0.4335 0.12935 0.35703 0.0
C435 C 0.43378 0.15383 0.312 0.0
C436 C 0.44454 0.23925 0.29463 0.0
C437 C 0.46879 0.25917 0.3527 0.0
C438 C 0.46159 0.27719 0.40582 0.0
C439 C 0.42995 0.27563 0.40185 0.0
C440 C 0.40466 0.25332 0.34698 0.0
C441 C 0.41192 0.23522 0.29366 0.0
C442 C 0.48719 0.29189 0.82566 0.0
C443 C 0.52767 0.09659 0.17433 0.0
C444 C 0.03573 0.47962 0.54016 0.0
C445 C 0.01455 0.42729 0.78893 0.0
C446 C 0.91923 0.42632 0.7695 0.0
Mg447 Mg 0.02 0.53497 0.48096 0.0
Mg448 Mg 0.0079 0.58575 0.59258 0.0
O449 O 0.9908 0.53983 0.55402 0.0
Mg450 Mg 0.99419 0.51003 0.6272 0.0
O451 O -0.00043 0.47983 0.69457 0.0
Mg452 Mg 0.97321 0.43365 0.63742 0.0
Mg453 Mg 0.99319 0.48306 0.79403 0.0
C454 C 0.95187 0.54399 0.70197 0.0
O455 O 0.03436 0.55701 0.70348 0.0
O456 O 0.00554 0.56773 0.40996 0.0
O457 O 0.02542 0.53883 0.81718 0.0
O458 O 0.06822 0.58475 0.52011 0.0
O459 O -0.0003 0.60315 0.49151 0.0
O460 O 0.06264 0.61435 0.61285 0.0
O461 O 0.95341 0.46093 0.55628 0.0
O462 O 0.97134 0.48375 0.44918 0.0
C463 C 0.95061 0.45892 0.48558 0.0
C464 C 0.00041 0.59291 0.42566 0.0
O465 O 0.9544 0.51693 0.68907 0.0
O466 O 0.0011 0.41659 0.72271 0.0
O467 O 0.97201 0.57311 0.67663 0.0
O468 O 0.92807 0.41636 0.71224 0.0
O469 O 0.01376 0.45176 0.82561 0.0
O470 O 0.93978 0.45474 0.80657 0.0
O471 O 0.03303 0.50565 0.5606 0.0
O472 O 0.01694 0.45005 0.56373 0.0
C473 C 0.08112 0.61027 0.56822 0.0
C474 C 0.04033 0.56263 0.77339 0.0
C475 C 0.4863 0.02851 0.5063 0.0
C476 C 0.574 0.99153 0.42801 0.0
C477 C 0.51081 0.89892 0.5285 0.0
Mg478 Mg 0.44444 0.01005 0.65098 0.0
Mg479 Mg 0.47476 0.99557 0.79953 0.0
O480 O 0.45984 0.98064 0.70104 0.0
Mg481 Mg 0.49434 0.98372 0.6343 0.0
O482 O 0.52646 0.98661 0.56201 0.0
Mg483 Mg 0.49387 0.96076 0.47434 0.0
Mg484 Mg 0.55832 0.9732 0.58883 0.0
C485 C 0.50336 0.9451 0.77745 0.0
O486 O 0.54175 0.02514 0.70456 0.0
O487 O 0.40241 0.99044 0.73473 0.0
O488 O 0.58094 0.0092 0.68716 0.0
O489 O 0.48038 0.05988 0.72437 0.0
O490 O 0.42631 0.98267 0.83695 0.0
O491 O 0.50938 0.04919 0.80933 0.0
O492 O 0.45039 0.9448 0.5523 0.0
O493 O 0.41309 0.96257 0.5712 0.0
C494 C 0.42209 0.94364 0.53555 0.0
C495 C 0.40088 0.9813 0.80064 0.0
O496 O 0.5007 0.94431 0.70667 0.0
O497 O 0.54252 0.98167 0.41072 0.0
O498 O 0.49673 0.96428 0.81899 0.0
O499 O 0.49664 0.91204 0.49037 0.0
O500 O 0.58489 0.99005 0.49267 0.0
O501 O 0.53438 0.91724 0.57899 0.0
O502 O 0.48737 0.02402 0.5746 0.0
O503 O 0.49065 0.00944 0.45933 0.0
C504 C 0.5044 0.07038 0.77516 0.0
C505 C 0.57163 0.02926 0.71738 0.0
C506 C 0.5135 0.54826 0.72719 0.0
C507 C 0.40509 0.45439 0.84109 0.0
C508 C 0.44675 0.38933 0.80342 0.0
Mg509 Mg 0.55139 0.54047 0.58937 0.0
Mg510 Mg 0.50274 0.48156 0.46211 0.0
O511 O 0.52248 0.48963 0.55885 0.0
Mg512 Mg 0.48838 0.47544 0.63488 0.0
O513 O 0.45592 0.46385 0.71165 0.0
Mg514 Mg 0.48574 0.47668 0.80366 0.0
Mg515 Mg 0.41621 0.42016 0.70151 0.0
C516 C 0.45933 0.40701 0.52259 0.0
O517 O 0.4467 0.47224 0.55909 0.0
O518 O 0.58683 0.54148 0.5005 0.0
O519 O 0.40009 0.42394 0.58961 0.0
O520 O 0.52782 0.55947 0.5031 0.0
O521 O 0.55051 0.50052 0.41371 0.0
O522 O 0.48495 0.51667 0.43313 0.0
O523 O 0.527 0.47873 0.72405 0.0
O524 O 0.57339 0.5211 0.67856 0.0
C525 C 0.5594 0.49889 0.72597 0.0
C526 C 0.58063 0.5245 0.43764 0.0
O527 O 0.46743 0.41904 0.59019 0.0
O528 O 0.43744 0.47167 0.86084 0.0
O529 O 0.46766 0.42657 0.46905 0.0
O530 O 0.46791 0.42079 0.82473 0.0
O531 O 0.39288 0.43392 0.78286 0.0
O532 O 0.42453 0.3812 0.74952 0.0
O533 O 0.51045 0.53201 0.66633 0.0
O534 O 0.50348 0.53253 0.78498 0.0
C535 C 0.5037 0.54879 0.45271 0.0
C536 C 0.41493 0.44953 0.54966 0.0
C537 C 0.05959 0.46263 0.35452 0.0
C538 C 0.09538 0.48273 0.3615 0.0
C539 C 0.0404 0.46217 0.41251 0.0
C540 C 0.05636 0.4819 0.47915 0.0
H541 H 0.04639 0.44699 0.30411 0.0
H542 H 0.01289 0.44618 0.40533 0.0
S543 S 0.14905 0.53568 0.52852 0.0
N544 N 0.14591 0.52082 0.44278 0.0
N545 N 0.10958 0.52032 0.55077 0.0
C546 C 0.09193 0.50193 0.48715 0.0
C547 C 0.11152 0.50224 0.42853 0.0
C548 C 0.66059 0.05027 0.36397 0.0
C549 C 0.65266 0.06483 0.30583 0.0
C550 C 0.63467 0.02365 0.39872 0.0
C551 C 0.6 0.01094 0.37665 0.0
H552 H 0.68676 0.06118 0.3861 0.0
H553 H 0.64197 0.01484 0.44659 0.0
S554 S 0.56723 0.03508 0.21407 0.0
N555 N 0.60895 0.06082 0.21818 0.0
N556 N 0.55985 0.01065 0.28333 0.0
C557 C 0.59215 0.02266 0.31279 0.0
C558 C 0.61863 0.04982 0.27759 0.0
C559 C 0.47425 0.60167 0.34605 0.0
C560 C 0.5051 0.62777 0.32185 0.0
C561 C 0.47332 0.57553 0.38766 0.0
C562 C 0.50328 0.57494 0.40687 0.0
H563 H 0.45078 0.60169 0.33347 0.0
H564 H 0.44927 0.55619 0.40604 0.0
S565 S 0.58928 0.6336 0.34761 0.0
N566 N 0.56533 0.64831 0.31306 0.0
N567 N 0.56376 0.60037 0.39264 0.0
C568 C 0.53389 0.60008 0.38091 0.0
C569 C 0.53477 0.62618 0.33811 0.0
C570 C 0.95552 0.59744 0.25409 0.0
C571 C 0.95292 0.62673 0.27235 0.0
C572 C 0.97446 0.58838 0.30052 0.0
C573 C 0.99109 0.60839 0.36641 0.0
H574 H 0.93988 0.57953 0.20793 0.0
H575 H 0.97306 0.56382 0.28839 0.0
S576 S -0.00019 0.69276 0.42649 0.0
N577 N 0.97379 0.67932 0.35113 0.0
N578 N 0.01037 0.66297 0.43834 0.0
C579 C 0.99277 0.64044 0.37913 0.0
C580 C 0.97336 0.64951 0.33185 0.0
C581 C 0.38102 0.9392 0.34931 0.0
C582 C 0.36359 0.90375 0.327 0.0
C583 C 0.40089 0.95175 0.41598 0.0
C584 C 0.4046 0.92951 0.46225 0.0
H585 H 0.37808 0.95715 0.31649 0.0
H586 H 0.41251 0.979 0.43285 0.0
S587 S 0.36394 0.83468 0.43064 0.0
N588 N 0.35118 0.84644 0.35722 0.0
N589 N 0.38955 0.87072 0.48207 0.0
C590 C 0.38857 0.89432 0.43976 0.0
C591 C 0.36787 0.88128 0.37207 0.0
C592 C 0.41771 0.3236 0.4037 0.0
C593 C 0.42688 0.30297 0.44318 0.0
C594 C 0.4254 0.35618 0.43314 0.0
C595 C 0.44255 0.36938 0.50314 0.0
H596 H 0.40751 0.3161 0.34706 0.0
H597 H 0.42013 0.37215 0.39851 0.0
S598 S 0.46415 0.3219 0.63542 0.0
N599 N 0.44783 0.29504 0.56088 0.0
N600 N 0.46266 0.35675 0.61633 0.0
C601 C 0.44794 0.34732 0.54668 0.0
C602 C 0.44008 0.31399 0.51653 0.0
C603 C 0.5376 0.91643 0.93312 0.0
C604 C 0.52141 0.88048 0.91772 0.0
C605 C 0.53375 0.93735 0.88383 0.0
C606 C 0.51377 0.92336 0.81669 0.0
H607 H 0.55222 0.92843 0.98506 0.0
H608 H 0.54532 0.9647 0.90001 0.0
S609 S 0.46968 0.83148 0.74534 0.0
N610 N 0.48725 0.83212 0.82676 0.0
N611 N 0.48013 0.87187 0.73429 0.0
C612 C 0.49924 0.88786 0.79818 0.0
C613 C 0.50288 0.86632 0.84881 0.0
C614 C 0.6359 0.4959 0.8001 0.0
C615 C 0.63879 0.5071 0.87406 0.0
C616 C 0.60821 0.49046 0.75321 0.0
C617 C 0.58229 0.49536 0.77923 0.0
H618 H 0.65644 0.49402 0.77714 0.0
H619 H 0.60808 0.48439 0.69532 0.0
S620 S 0.57583 0.51997 0.97028 0.0
N621 N 0.61201 0.51969 0.97288 0.0
N622 N 0.55939 0.50859 0.88444 0.0
C623 C 0.58335 0.50359 0.85417 0.0
C624 C 0.61185 0.50972 0.90179 0.0
C625 C 0.09235 0.66041 0.80985 0.0
C626 C 0.11782 0.66525 0.8637 0.0
C627 C 0.06719 0.62714 0.78094 0.0
C628 C 0.06659 0.59751 0.80475 0.0
H629 H 0.09172 0.68248 0.79011 0.0
H630 H 0.04762 0.62455 0.74093 0.0
S631 S 0.12656 0.59543 0.9454 0.0
N632 N 0.13993 0.63691 0.94083 0.0
N633 N 0.09311 0.57481 0.88529 0.0
C634 C 0.09161 0.60183 0.85865 0.0
C635 C 0.11719 0.63557 0.88812 0.0
C636 C 0.52193 0.16081 0.81048 0.0
C637 C 0.53782 0.16895 0.88191 0.0
C638 C 0.51449 0.13014 0.77117 0.0
C639 C 0.52327 0.10727 0.80211 0.0
H640 H 0.51077 0.17543 0.78958 0.0
H641 H 0.49864 0.12272 0.72014 0.0
S642 S 0.57802 0.12505 0.97368 0.0
N643 N 0.57115 0.1578 0.97222 0.0
N644 N 0.55841 0.1006 0.89728 0.0
C645 C 0.54547 0.11901 0.86642 0.0
C646 C 0.55273 0.1501 0.90658 0.0
C647 C 0.31934 0.43754 0.89654 0.0
C648 C 0.3271 0.46653 0.94352 0.0
C649 C 0.34493 0.43348 0.86723 0.0
C650 C 0.37978 0.45839 0.88255 0.0
H651 H 0.29309 0.41784 0.8812 0.0
H652 H 0.33703 0.4106 0.83085 0.0
S653 S 0.41424 0.53873 0.00494 0.0
N654 N 0.3725 0.52016 0.00709 0.0
N655 N 0.42075 0.51292 0.94965 0.0
C656 C 0.38816 0.48735 0.93052 0.0
C657 C 0.36185 0.49143 0.96111 0.0
C658 C 0.84884 0.34005 0.8202 0.0
C659 C 0.8401 0.34865 0.88714 0.0
C660 C 0.87197 0.36568 0.77836 0.0
C661 C 0.88775 0.40101 0.8024 0.0
H662 H 0.83897 0.31319 0.80175 0.0
H663 H 0.87929 0.35745 0.72956 0.0
S664 S 0.86904 0.43718 0.96816 0.0
N665 N 0.84551 0.39487 0.9711 0.0
N666 N 0.88914 0.44322 0.89291 0.0
C667 C 0.87686 0.40999 0.86613 0.0
C668 C 0.85303 0.38378 0.90843 0.0
C669 C 0.89668 0.57123 0.80031 0.0
C670 C 0.86597 0.54 0.80513 0.0
C671 C 0.92455 0.57194 0.76974 0.0
C672 C 0.92308 0.54145 0.74188 0.0
H673 H 0.89947 0.59554 0.82101 0.0
H674 H 0.9474 0.59682 0.76742 0.0
S675 S 0.84801 0.4528 0.73754 0.0
N676 N 0.83542 0.47769 0.77749 0.0
N677 N 0.88779 0.47892 0.71952 0.0
C678 C 0.89257 0.50988 0.74644 0.0
C679 C 0.86407 0.50918 0.77796 0.0
C680 C 0.33786 0.93978 0.94183 0.0
C681 C 0.30975 0.9126 0.89969 0.0
C682 C 0.36641 0.96414 0.90869 0.0
C683 C 0.36758 0.96254 0.83217 0.0
H684 H 0.3387 0.94088 0.00106 0.0
H685 H 0.38851 0.98318 0.94345 0.0
S686 S 0.29855 0.89887 0.69763 0.0
N687 N 0.28337 0.88709 0.77788 0.0
N688 N 0.33671 0.93344 0.71508 0.0
C689 C 0.33844 0.93712 0.78929 0.0
C690 C 0.30964 0.91189 0.82321 0.0
C691 C 0.41066 0.3209 0.93835 0.0
C692 C 0.44012 0.32649 0.98016 0.0
C693 C 0.41284 0.33887 0.87606 0.0
C694 C 0.44456 0.36335 0.85323 0.0
H695 H 0.38559 0.30344 0.95521 0.0
H696 H 0.38953 0.33521 0.84857 0.0
S697 S 0.52949 0.38558 0.9371 0.0
N698 N 0.50229 0.35658 0.98847 0.0
N699 N 0.50594 0.39062 0.87326 0.0
C700 C 0.47412 0.36811 0.89205 0.0
C701 C 0.47203 0.34979 0.95506 0.0
C702 C 0.06412 0.41067 0.93299 0.0
C703 C 0.09661 0.42639 0.90613 0.0
C704 C 0.0358 0.40689 0.8907 0.0
C705 C 0.03885 0.41783 0.81957 0.0
H706 H 0.06109 0.40394 0.98918 0.0
H707 H 0.01202 0.3979 0.91581 0.0
S708 S 0.11718 0.45705 0.72112 0.0
N709 N 0.12942 0.45011 0.80166 0.0
N710 N 0.07595 0.44246 0.722 0.0
C711 C 0.0704 0.43068 0.7898 0.0
C712 C 0.0994 0.43518 0.83321 0.0
C713 C 0.6508 0.09144 0.83922 0.0
C714 C 0.6536 0.12374 0.82985 0.0
C715 C 0.62359 0.06078 0.80471 0.0
C716 C 0.59805 0.06122 0.75967 0.0
H717 H 0.6697 0.08974 0.87395 0.0
H718 H 0.62263 0.03656 0.81311 0.0
S719 S 0.5958 0.13932 0.7094 0.0
N720 N 0.62984 0.15447 0.76771 0.0
N721 N 0.57876 0.0969 0.7022 0.0
C722 C 0.60077 0.09336 0.74869 0.0
C723 C 0.62852 0.12459 0.78388 0.0
C724 C 0.51136 0.62865 0.77246 0.0
C725 C 0.54531 0.65487 0.767 0.0
C726 C 0.50094 0.59417 0.7548 0.0
C727 C 0.5239 0.58469 0.73021 0.0
H728 H 0.49328 0.63437 0.79633 0.0
H729 H 0.47517 0.5746 0.76413 0.0
S730 S 0.61407 0.6431 0.69708 0.0
N731 N 0.60098 0.66918 0.72863 0.0
N732 N 0.58084 0.60351 0.69416 0.0
C733 C 0.55709 0.61044 0.71878 0.0
C734 C 0.56797 0.64583 0.73767 0.0
C735 C 0.47792 0.10901 0.50105 0.0
C736 C 0.46635 0.10733 0.42761 0.0
C737 C 0.48344 0.08298 0.52691 0.0
C738 C 0.47845 0.05486 0.47973 0.0
H739 H 0.48298 0.1307 0.53853 0.0
H740 H 0.4926 0.08546 0.58369 0.0
S741 S 0.4488 0.03914 0.28186 0.0
N742 N 0.45 0.07537 0.30833 0.0
N743 N 0.4612 0.02728 0.35546 0.0
C744 C 0.46686 0.05308 0.40606 0.0
C745 C 0.46061 0.07908 0.38042 0.0
C746 C 0.34401 0.44238 0.42264 0.0
C747 C 0.34489 0.47366 0.44187 0.0
C748 C 0.36752 0.43479 0.45577 0.0
C749 C 0.39336 0.45883 0.50684 0.0
H750 H 0.32477 0.42339 0.38226 0.0
H751 H 0.36533 0.40999 0.44198 0.0
S752 S 0.40733 0.54424 0.57631 0.0
N753 N 0.37355 0.52832 0.51706 0.0
N754 N 0.41917 0.51501 0.57534 0.0
C755 C 0.39545 0.49065 0.52467 0.0
C756 C 0.3709 0.49791 0.49297 0.0
C757 C 0.88951 0.36648 0.40931 0.0
C758 C 0.87597 0.37125 0.34294 0.0
C759 C 0.91217 0.39481 0.45842 0.0
C760 C 0.9222 0.42874 0.44215 0.0
H761 H 0.88289 0.3407 0.42282 0.0
H762 H 0.92303 0.39024 0.50751 0.0
S763 S 0.89253 0.45493 0.2779 0.0
N764 N 0.87332 0.41242 0.26539 0.0
N765 N 0.91521 0.46537 0.35744 0.0
C766 C 0.90776 0.43364 0.37737 0.0
C767 C 0.88482 0.40498 0.3278 0.0
C768 C 0.53469 0.83613 0.44999 0.0
C769 C 0.50818 0.81744 0.39438 0.0
C770 C 0.53343 0.85951 0.50152 0.0
C771 C 0.50568 0.86515 0.49886 0.0
H772 H 0.55765 0.83454 0.45048 0.0
H773 H 0.55583 0.87568 0.53853 0.0
S774 S 0.4268 0.81744 0.37409 0.0
N775 N 0.45126 0.80245 0.34709 0.0
N776 N 0.44846 0.84545 0.44487 0.0
C777 C 0.47723 0.84335 0.44963 0.0
C778 C 0.47862 0.8198 0.39695 0.0
C779 C 0.62572 0.52337 0.26962 0.0
C780 C 0.65899 0.55121 0.2859 0.0
C781 C 0.60098 0.5148 0.31956 0.0
C782 C 0.60843 0.53364 0.38824 0.0
H783 H 0.61865 0.50821 0.21745 0.0
H784 H 0.57567 0.49324 0.30353 0.0
S785 S 0.69278 0.60804 0.45845 0.0
N786 N 0.69888 0.59689 0.37607 0.0
N787 N 0.65232 0.58115 0.4702 0.0
C788 C 0.64191 0.56142 0.40553 0.0
C789 C 0.66714 0.57015 0.3543 0.0
C790 C 0.13877 0.69783 0.51282 0.0
C791 C 0.15536 0.69002 0.45885 0.0
C792 C 0.11874 0.67313 0.56017 0.0
C793 C 0.11448 0.63981 0.55413 0.0
H794 H 0.13886 0.72203 0.51423 0.0
H795 H 0.10319 0.67877 0.59459 0.0
S796 S 0.15985 0.60988 0.43612 0.0
N797 N 0.17154 0.64909 0.41241 0.0
N798 N 0.13484 0.6033 0.50303 0.0
C799 C 0.13551 0.63394 0.50922 0.0
C800 C 0.15553 0.65882 0.46046 0.0
loop_
_geom_bond_atom_site_label_1
_geom_bond_atom_site_label_2
_geom_bond_distance
_geom_bond_site_symmetry_2
_ccdc_geom_bond_type
H0 O26 0.856 . S
H1 O29 0.854 . S
H2 C37 0.930 . S
H3 C38 0.930 . S
H4 C40 0.930 . S
H5 C41 0.930 . S
H6 C43 0.931 . S
H7 C44 0.930 . S
H8 C46 0.930 . S
H9 C47 0.929 . S
H10 C49 0.930 . S
H11 C50 0.931 . S
H12 C52 0.930 . S
H13 C53 0.929 . S
H14 C55 0.931 . S
H15 C56 0.930 . S
H16 C58 0.930 . S
H17 C59 0.932 . S
H18 C61 0.930 . S
H19 C62 0.929 . S
H20 C64 0.931 1_556 S
H21 C65 0.930 . S
H22 C67 0.929 . S
H23 C68 0.931 . S
H24 C70 0.930 . S
H25 C71 0.929 . S
O26 H0 0.856 . S
O26 C72 1.300 . S
O27 C72 1.209 . S
O28 C73 1.199 . S
O29 H1 0.854 . S
O29 C73 1.297 . S
C30 C31 1.404 . S
C30 C35 1.397 . S
C30 C36 1.492 . S
C31 C30 1.404 . S
C31 C32 1.396 . S
C31 C42 1.492 . S
C32 C31 1.396 . S
C32 C33 1.397 . S
C32 C48 1.509 . S
C33 C32 1.397 . S
C33 C34 1.412 . S
C33 C54 1.485 . S
C34 C33 1.412 . S
C34 C35 1.388 . S
C34 C60 1.490 . S
C35 C30 1.397 . S
C35 C34 1.388 . S
C35 C66 1.519 . S
C36 C30 1.492 . S
C36 C37 1.363 . S
C36 C41 1.390 . S
C37 H2 0.930 . S
C37 C36 1.363 . S
C37 C38 1.372 . S
C38 H3 0.930 . S
C38 C37 1.372 . S
C38 C39 1.383 . S
C39 C38 1.383 . S
C39 C40 1.395 . S
C40 H4 0.930 . S
C40 C39 1.395 . S
C40 C41 1.362 . S
C41 H5 0.930 . S
C41 C36 1.390 . S
C41 C40 1.362 . S
C42 C31 1.492 . S
C42 C43 1.377 . S
C42 C47 1.397 . S
C43 H6 0.931 . S
C43 C42 1.377 . S
C43 C44 1.376 . S
C44 H7 0.930 . S
C44 C43 1.376 . S
C44 C45 1.376 . S
C45 C44 1.376 . S
C45 C46 1.378 . S
C45 C72 1.486 . S
C46 H8 0.930 . S
C46 C45 1.378 . S
C46 C47 1.376 . S
C47 H9 0.929 . S
C47 C42 1.397 . S
C47 C46 1.376 . S
C48 C32 1.509 . S
C48 C49 1.391 . S
C48 C53 1.386 . S
C49 H10 0.930 . S
C49 C48 1.391 . S
C49 C50 1.375 . S
C50 H11 0.931 . S
C50 C49 1.375 . S
C50 C51 1.375 . S
C51 C50 1.375 . S
C51 C52 1.361 . S
C52 H12 0.930 . S
C52 C51 1.361 . S
C52 C53 1.399 . S
C53 H13 0.929 . S
C53 C48 1.386 . S
C53 C52 1.399 . S
C54 C33 1.485 . S
C54 C55 1.394 . S
C54 C59 1.360 . S
C55 H14 0.931 . S
C55 C54 1.394 . S
C55 C56 1.372 . S
C56 H15 0.930 . S
C56 C55 1.372 . S
C56 C57 1.397 . S
C57 C56 1.397 . S
C57 C58 1.390 . S
C57 C73 1.476 . S
C58 H16 0.930 . S
C58 C57 1.390 . S
C58 C59 1.366 . S
C59 H17 0.932 . S
C59 C54 1.360 . S
C59 C58 1.366 . S
C60 C34 1.490 . S
C60 C61 1.380 . S
C60 C65 1.386 . S
C61 H18 0.930 . S
C61 C60 1.380 . S
C61 C62 1.381 1_554 S
C62 H19 0.929 . S
C62 C61 1.381 1_556 S
C62 C63 1.371 . S
C63 C62 1.371 . S
C63 C64 1.380 1_556 S
C64 H20 0.931 1_554 S
C64 C63 1.380 1_554 S
C64 C65 1.387 . S
C65 H21 0.930 . S
C65 C60 1.386 . S
C65 C64 1.387 . S
C66 C35 1.519 . S
C66 C67 1.377 . S
C66 C71 1.361 . S
C67 H22 0.929 . S
C67 C66 1.377 . S
C67 C68 1.386 . S
C68 H23 0.931 . S
C68 C67 1.386 . S
C68 C69 1.363 . S
C69 C68 1.363 . S
C69 C70 1.385 . S
C70 H24 0.930 . S
C70 C69 1.385 . S
C70 C71 1.396 . S
C71 H25 0.929 . S
C71 C66 1.361 . S
C71 C70 1.396 . S
C72 O26 1.300 . S
C72 O27 1.209 . S
C72 C45 1.486 . S
C73 O28 1.199 . S
C73 O29 1.297 . S
C73 C57 1.476 . S
H74 O100 0.856 . S
H75 O103 0.852 1_565 S
H76 C111 0.930 . S
H77 C112 0.930 . S
H78 C114 0.930 . S
H79 C115 0.930 . S
H80 C117 0.931 . S
H81 C118 0.930 . S
H82 C120 0.930 . S
H83 C121 0.929 . S
H84 C123 0.930 . S
H85 C124 0.931 . S
H86 C126 0.930 . S
H87 C127 0.929 . S
H88 C129 0.931 . S
H89 C130 0.930 . S
H90 C132 0.930 . S
H91 C133 0.932 . S
H92 C135 0.930 . S
H93 C136 0.929 . S
H94 C138 0.931 . S
H95 C139 0.930 . S
H96 C141 0.929 . S
H97 C142 0.931 . S
H98 C144 0.930 . S
H99 C145 0.929 . S
O100 H74 0.856 . S
O100 C146 1.300 . S
O101 C146 1.209 . S
O102 C147 1.199 1_556 S
O103 H75 0.852 1_545 S
O103 C147 1.297 . S
C104 C105 1.404 . S
C104 C109 1.397 . S
C104 C110 1.492 . S
C105 C104 1.404 . S
C105 C106 1.396 . S
C105 C116 1.492 . S
C106 C105 1.396 . S
C106 C107 1.397 . S
C106 C122 1.509 . S
C107 C106 1.397 . S
C107 C108 1.412 . S
C107 C128 1.485 . S
C108 C107 1.412 . S
C108 C109 1.388 . S
C108 C134 1.481 1_554 S
C109 C104 1.397 . S
C109 C108 1.388 . S
C109 C140 1.519 . S
C110 C104 1.492 . S
C110 C111 1.363 . S
C110 C115 1.390 . S
C111 H76 0.930 . S
C111 C110 1.363 . S
C111 C112 1.372 . S
C112 H77 0.930 . S
C112 C111 1.372 . S
C112 C113 1.383 . S
C113 C112 1.383 . S
C113 C114 1.395 . S
C114 H78 0.930 . S
C114 C113 1.395 . S
C114 C115 1.362 . S
C115 H79 0.930 . S
C115 C110 1.390 . S
C115 C114 1.362 . S
C116 C105 1.492 . S
C116 C117 1.377 . S
C116 C121 1.397 . S
C117 H80 0.931 . S
C117 C116 1.377 . S
C117 C118 1.376 . S
C118 H81 0.930 . S
C118 C117 1.376 . S
C118 C119 1.376 . S
C119 C118 1.376 . S
C119 C120 1.378 . S
C119 C146 1.486 . S
C120 H82 0.930 . S
C120 C119 1.378 . S
C120 C121 1.376 . S
C121 H83 0.929 . S
C121 C116 1.397 . S
C121 C120 1.376 . S
C122 C106 1.509 . S
C122 C123 1.391 . S
C122 C127 1.386 . S
C123 H84 0.930 . S
C123 C122 1.391 . S
C123 C124 1.375 . S
C124 H85 0.931 . S
C124 C123 1.375 . S
C124 C125 1.375 . S
C125 C124 1.375 . S
C125 C126 1.361 . S
C126 H86 0.930 . S
C126 C125 1.361 . S
C126 C127 1.399 . S
C127 H87 0.929 . S
C127 C122 1.386 . S
C127 C126 1.399 . S
C128 C107 1.485 . S
C128 C129 1.394 . S
C128 C133 1.360 . S
C129 H88 0.931 . S
C129 C128 1.394 . S
C129 C130 1.372 . S
C130 H89 0.930 . S
C130 C129 1.372 . S
C130 C131 1.397 . S
C131 C130 1.397 . S
C131 C132 1.390 . S
C131 C147 1.476 . S
C132 H90 0.930 . S
C132 C131 1.390 . S
C132 C133 1.366 . S
C133 H91 0.932 . S
C133 C128 1.360 . S
C133 C132 1.366 . S
C134 C108 1.481 1_556 S
C134 C135 1.385 . S
C134 C139 1.390 . S
C135 H92 0.930 . S
C135 C134 1.385 . S
C135 C136 1.381 . S
C136 H93 0.929 . S
C136 C135 1.381 . S
C136 C137 1.371 . S
C137 C136 1.371 . S
C137 C138 1.380 . S
C138 H94 0.931 . S
C138 C137 1.380 . S
C138 C139 1.387 . S
C139 H95 0.930 . S
C139 C134 1.390 . S
C139 C138 1.387 . S
C140 C109 1.519 . S
C140 C141 1.377 . S
C140 C145 1.361 . S
C141 H96 0.929 . S
C141 C140 1.377 . S
C141 C142 1.386 1_554 S
C142 H97 0.931 . S
C142 C141 1.386 1_556 S
C142 C143 1.363 . S
C143 C142 1.363 . S
C143 C144 1.385 . S
C144 H98 0.930 . S
C144 C143 1.385 . S
C144 C145 1.396 1_556 S
C145 H99 0.929 . S
C145 C140 1.361 . S
C145 C144 1.396 1_554 S
C146 O100 1.300 . S
C146 O101 1.209 . S
C146 C119 1.486 . S
C147 O102 1.199 1_554 S
C147 O103 1.297 . S
C147 C131 1.476 . S
H148 O174 0.856 . S
H149 O177 0.854 . S
H150 C185 0.930 . S
H151 C186 0.930 . S
H152 C188 0.930 . S
H153 C189 0.930 . S
H154 C191 0.931 . S
H155 C192 0.930 . S
H156 C194 0.930 . S
H157 C195 0.929 . S
H158 C197 0.930 . S
H159 C198 0.931 . S
H160 C200 0.930 . S
H161 C201 0.929 . S
H162 C203 0.931 . S
H163 C204 0.930 . S
H164 C206 0.930 . S
H165 C207 0.932 1_556 S
H166 C209 0.930 . S
H167 C210 0.929 . S
H168 C212 0.931 . S
H169 C213 0.930 . S
H170 C215 0.929 . S
H171 C216 0.931 . S
H172 C218 0.930 . S
H173 C219 0.929 . S
O174 H148 0.856 . S
O174 C220 1.300 . S
O175 C220 1.209 . S
O176 C221 1.199 . S
O177 H149 0.854 . S
O177 C221 1.297 . S
C178 C179 1.404 . S
C178 C183 1.397 1_556 S
C178 C184 1.492 . S
C179 C178 1.404 . S
C179 C180 1.396 . S
C179 C190 1.492 . S
C180 C179 1.396 . S
C180 C181 1.397 1_556 S
C180 C196 1.509 . S
C181 C180 1.397 1_554 S
C181 C182 1.412 . S
C181 C202 1.485 . S
C182 C181 1.412 . S
C182 C183 1.388 . S
C182 C208 1.490 . S
C183 C178 1.397 1_554 S
C183 C182 1.388 . S
C183 C214 1.519 . S
C184 C178 1.492 . S
C184 C185 1.363 . S
C184 C189 1.390 . S
C185 H150 0.930 . S
C185 C184 1.363 . S
C185 C186 1.372 . S
C186 H151 0.930 . S
C186 C185 1.372 . S
C186 C187 1.383 . S
C187 C186 1.383 . S
C187 C188 1.395 . S
C188 H152 0.930 . S
C188 C187 1.395 . S
C188 C189 1.362 . S
C189 H153 0.930 . S
C189 C184 1.390 . S
C189 C188 1.362 . S
C190 C179 1.492 . S
C190 C191 1.377 . S
C190 C195 1.397 . S
C191 H154 0.931 . S
C191 C190 1.377 . S
C191 C192 1.376 . S
C192 H155 0.930 . S
C192 C191 1.376 . S
C192 C193 1.376 . S
C193 C192 1.376 . S
C193 C194 1.378 . S
C193 C220 1.486 . S
C194 H156 0.930 . S
C194 C193 1.378 . S
C194 C195 1.376 . S
C195 H157 0.929 . S
C195 C190 1.397 . S
C195 C194 1.376 . S
C196 C180 1.509 . S
C196 C197 1.391 . S
C196 C201 1.386 . S
C197 H158 0.930 . S
C197 C196 1.391 . S
C197 C198 1.375 . S
C198 H159 0.931 . S
C198 C197 1.375 . S
C198 C199 1.375 . S
C199 C198 1.375 . S
C199 C200 1.361 . S
C200 H160 0.930 . S
C200 C199 1.361 . S
C200 C201 1.399 . S
C201 H161 0.929 . S
C201 C196 1.386 . S
C201 C200 1.399 . S
C202 C181 1.485 . S
C202 C203 1.394 . S
C202 C207 1.360 . S
C203 H162 0.931 . S
C203 C202 1.394 . S
C203 C204 1.372 . S
C204 H163 0.930 . S
C204 C203 1.372 . S
C204 C205 1.397 . S
C205 C204 1.397 . S
C205 C206 1.390 . S
C205 C221 1.476 . S
C206 H164 0.930 . S
C206 C205 1.390 . S
C206 C207 1.366 . S
C207 H165 0.932 1_554 S
C207 C202 1.360 . S
C207 C206 1.366 . S
C208 C182 1.490 . S
C208 C209 1.380 . S
C208 C213 1.386 . S
C209 H166 0.930 . S
C209 C208 1.380 . S
C209 C210 1.381 . S
C210 H167 0.929 . S
C210 C209 1.381 . S
C210 C211 1.371 . S
C211 C210 1.371 . S
C211 C212 1.380 . S
C212 H168 0.931 . S
C212 C211 1.380 . S
C212 C213 1.387 . S
C213 H169 0.930 . S
C213 C208 1.386 . S
C213 C212 1.387 . S
C214 C183 1.519 . S
C214 C215 1.377 . S
C214 C219 1.361 . S
C215 H170 0.929 . S
C215 C214 1.377 . S
C215 C216 1.386 . S
C216 H171 0.931 . S
C216 C215 1.386 . S
C216 C217 1.363 . S
C217 C216 1.363 . S
C217 C218 1.385 . S
C218 H172 0.930 . S
C218 C217 1.385 . S
C218 C219 1.396 . S
C219 H173 0.929 . S
C219 C214 1.361 . S
C219 C218 1.396 . S
C220 O174 1.300 . S
C220 O175 1.209 . S
C220 C193 1.486 . S
C221 O176 1.199 . S
C221 O177 1.297 . S
C221 C205 1.476 . S
H222 O248 0.856 . S
H223 O251 0.854 1_455 S
H224 C259 0.930 . S
H225 C260 0.930 . S
H226 C262 0.930 . S
H227 C263 0.930 . S
H228 C265 0.931 . S
H229 C266 0.930 . S
H230 C268 0.930 . S
H231 C269 0.929 . S
H232 C271 0.930 . S
H233 C272 0.931 . S
H234 C274 0.930 . S
H235 C275 0.929 . S
H236 C277 0.931 1_556 S
H237 C278 0.930 . S
H238 C280 0.930 . S
H239 C281 0.932 . S
H240 C283 0.930 . S
H241 C284 0.929 . S
H242 C286 0.931 . S
H243 C287 0.930 . S
H244 C289 0.929 . S
H245 C290 0.931 . S
H246 C292 0.930 . S
H247 C293 0.929 . S
O248 H222 0.856 . S
O248 C294 1.300 . S
O249 C294 1.209 . S
O250 C295 1.199 . S
O251 H223 0.854 1_655 S
O251 C295 1.297 1_554 S
C252 C253 1.404 . S
C252 C257 1.397 . S
C252 C258 1.492 . S
C253 C252 1.404 . S
C253 C254 1.396 . S
C253 C264 1.492 . S
C254 C253 1.396 . S
C254 C255 1.397 . S
C254 C270 1.509 . S
C255 C254 1.397 . S
C255 C256 1.412 . S
C255 C276 1.485 . S
C256 C255 1.412 . S
C256 C257 1.388 . S
C256 C282 1.490 1_554 S
C257 C252 1.397 . S
C257 C256 1.388 . S
C257 C288 1.519 1_554 S
C258 C252 1.492 . S
C258 C259 1.363 . S
C258 C263 1.390 . S
C259 H224 0.930 . S
C259 C258 1.363 . S
C259 C260 1.372 . S
C260 H225 0.930 . S
C260 C259 1.372 . S
C260 C261 1.383 . S
C261 C260 1.383 . S
C261 C262 1.395 . S
C262 H226 0.930 . S
C262 C261 1.395 . S
C262 C263 1.362 . S
C263 H227 0.930 . S
C263 C258 1.390 . S
C263 C262 1.362 . S
C264 C253 1.492 . S
C264 C265 1.377 . S
C264 C269 1.397 . S
C265 H228 0.931 . S
C265 C264 1.377 . S
C265 C266 1.376 . S
C266 H229 0.930 . S
C266 C265 1.376 . S
C266 C267 1.376 . S
C267 C266 1.376 . S
C267 C268 1.378 . S
C267 C294 1.486 . S
C268 H230 0.930 . S
C268 C267 1.378 . S
C268 C269 1.376 . S
C269 H231 0.929 . S
C269 C264 1.397 . S
C269 C268 1.376 . S
C270 C254 1.509 . S
C270 C271 1.391 . S
C270 C275 1.386 . S
C271 H232 0.930 . S
C271 C270 1.391 . S
C271 C272 1.375 . S
C272 H233 0.931 . S
C272 C271 1.375 . S
C272 C273 1.375 . S
C273 C272 1.375 . S
C273 C274 1.361 . S
C274 H234 0.930 . S
C274 C273 1.361 . S
C274 C275 1.399 . S
C275 H235 0.929 . S
C275 C270 1.386 . S
C275 C274 1.399 . S
C276 C255 1.485 . S
C276 C277 1.394 . S
C276 C281 1.360 . S
C277 H236 0.931 1_554 S
C277 C276 1.394 . S
C277 C278 1.372 1_554 S
C278 H237 0.930 . S
C278 C277 1.372 1_556 S
C278 C279 1.397 1_556 S
C279 C278 1.397 1_554 S
C279 C280 1.390 . S
C279 C295 1.476 1_554 S
C280 H238 0.930 . S
C280 C279 1.390 . S
C280 C281 1.366 . S
C281 H239 0.932 . S
C281 C276 1.360 . S
C281 C280 1.366 . S
C282 C256 1.490 1_556 S
C282 C283 1.380 . S
C282 C287 1.386 . S
C283 H240 0.930 . S
C283 C282 1.380 . S
C283 C284 1.381 . S
C284 H241 0.929 . S
C284 C283 1.381 . S
C284 C285 1.371 . S
C285 C284 1.371 . S
C285 C286 1.380 . S
C286 H242 0.931 . S
C286 C285 1.380 . S
C286 C287 1.387 . S
C287 H243 0.930 . S
C287 C282 1.386 . S
C287 C286 1.387 . S
C288 C257 1.519 1_556 S
C288 C289 1.377 . S
C288 C293 1.361 . S
C289 H244 0.929 . S
C289 C288 1.377 . S
C289 C290 1.386 . S
C290 H245 0.931 . S
C290 C289 1.386 . S
C290 C291 1.363 . S
C291 C290 1.363 . S
C291 C292 1.385 . S
C292 H246 0.930 . S
C292 C291 1.385 . S
C292 C293 1.396 . S
C293 H247 0.929 . S
C293 C288 1.361 . S
C293 C292 1.396 . S
C294 O248 1.300 . S
C294 O249 1.209 . S
C294 C267 1.486 . S
C295 O250 1.199 . S
C295 O251 1.297 1_556 S
C295 C279 1.476 1_556 S
H296 O322 0.856 . S
H297 O325 0.854 . S
H298 C333 0.930 . S
H299 C334 0.930 . S
H300 C336 0.930 . S
H301 C337 0.930 . S
H302 C339 0.931 . S
H303 C340 0.930 . S
H304 C342 0.930 . S
H305 C343 0.929 . S
H306 C345 0.930 . S
H307 C346 0.931 . S
H308 C348 0.930 . S
H309 C349 0.929 . S
H310 C351 0.931 . S
H311 C352 0.930 . S
H312 C354 0.930 . S
H313 C355 0.932 . S
H314 C357 0.930 1_554 S
H315 C358 0.929 . S
H316 C360 0.931 . S
H317 C361 0.924 1_554 S
H318 C363 0.929 . S
H319 C364 0.931 1_556 S
H320 C366 0.930 . S
H321 C367 0.929 . S
O322 H296 0.856 . S
O322 C368 1.300 . S
O323 C368 1.209 . S
O324 C369 1.199 . S
O325 H297 0.854 . S
O325 C369 1.297 . S
C326 C327 1.404 . S
C326 C331 1.397 . S
C326 C332 1.492 . S
C327 C326 1.404 . S
C327 C328 1.396 . S
C327 C338 1.492 . S
C328 C327 1.396 . S
C328 C329 1.397 . S
C328 C344 1.509 . S
C329 C328 1.397 . S
C329 C330 1.412 . S
C329 C350 1.485 . S
C330 C329 1.412 . S
C330 C331 1.388 . S
C330 C356 1.490 . S
C331 C326 1.397 . S
C331 C330 1.388 . S
C331 C362 1.519 . S
C332 C326 1.492 . S
C332 C333 1.363 . S
C332 C337 1.390 . S
C333 H298 0.930 . S
C333 C332 1.363 . S
C333 C334 1.372 . S
C334 H299 0.930 . S
C334 C333 1.372 . S
C334 C335 1.383 . S
C335 C334 1.383 . S
C335 C336 1.395 . S
C336 H300 0.930 . S
C336 C335 1.395 . S
C336 C337 1.362 . S
C337 H301 0.930 . S
C337 C332 1.390 . S
C337 C336 1.362 . S
C338 C327 1.492 . S
C338 C339 1.377 . S
C338 C343 1.397 . S
C339 H302 0.931 . S
C339 C338 1.377 . S
C339 C340 1.376 . S
C340 H303 0.930 . S
C340 C339 1.376 . S
C340 C341 1.376 . S
C341 C340 1.376 . S
C341 C342 1.378 . S
C341 C368 1.486 . S
C342 H304 0.930 . S
C342 C341 1.378 . S
C342 C343 1.376 . S
C343 H305 0.929 . S
C343 C338 1.397 . S
C343 C342 1.376 . S
C344 C328 1.509 . S
C344 C345 1.391 . S
C344 C349 1.386 . S
C345 H306 0.930 . S
C345 C344 1.391 . S
C345 C346 1.375 . S
C346 H307 0.931 . S
C346 C345 1.375 . S
C346 C347 1.375 . S
C347 C346 1.375 . S
C347 C348 1.361 . S
C348 H308 0.930 . S
C348 C347 1.361 . S
C348 C349 1.399 . S
C349 H309 0.929 . S
C349 C344 1.386 . S
C349 C348 1.399 . S
C350 C329 1.485 . S
C350 C351 1.394 . S
C350 C355 1.360 . S
C351 H310 0.931 . S
C351 C350 1.394 . S
C351 C352 1.372 . S
C352 H311 0.930 . S
C352 C351 1.372 . S
C352 C353 1.397 . S
C353 C352 1.397 . S
C353 C354 1.390 . S
C353 C369 1.476 . S
C354 H312 0.930 . S
C354 C353 1.390 . S
C354 C355 1.366 . S
C355 H313 0.932 . S
C355 C350 1.360 . S
C355 C354 1.366 . S
C356 C330 1.490 . S
C356 C357 1.380 1_554 S
C356 C361 1.386 1_554 S
C357 H314 0.930 1_556 S
C357 C356 1.380 1_556 S
C357 C358 1.381 . S
C358 H315 0.929 . S
C358 C357 1.381 . S
C358 C359 1.371 . S
C359 C358 1.371 . S
C359 C360 1.380 . S
C360 H316 0.931 . S
C360 C359 1.380 . S
C360 C361 1.387 . S
C361 H317 0.924 1_556 S
C361 C356 1.386 1_556 S
C361 C360 1.387 . S
C362 C331 1.519 . S
C362 C363 1.377 . S
C362 C367 1.361 . S
C363 H318 0.929 . S
C363 C362 1.377 . S
C363 C364 1.386 . S
C364 H319 0.931 1_554 S
C364 C363 1.386 . S
C364 C365 1.363 1_554 S
C365 C364 1.363 1_556 S
C365 C366 1.385 . S
C366 H320 0.930 . S
C366 C365 1.385 . S
C366 C367 1.396 1_556 S
C367 H321 0.929 . S
C367 C362 1.361 . S
C367 C366 1.396 1_554 S
C368 O322 1.300 . S
C368 O323 1.209 . S
C368 C341 1.486 . S
C369 O324 1.199 . S
C369 O325 1.297 . S
C369 C353 1.476 . S
H370 O396 0.856 . S
H371 O399 0.854 . S
H372 C407 0.930 . S
H373 C408 0.930 . S
H374 C410 0.930 . S
H375 C411 0.930 . S
H376 C413 0.931 . S
H377 C414 0.930 . S
H378 C416 0.930 . S
H379 C417 0.929 . S
H380 C419 0.930 . S
H381 C420 0.931 . S
H382 C422 0.930 . S
H383 C423 0.929 1_554 S
H384 C425 0.931 . S
H385 C426 0.930 . S
H386 C428 0.930 . S
H387 C429 0.932 . S
H388 C431 0.930 . S
H389 C432 0.929 . S
H390 C434 0.931 . S
H391 C435 0.930 . S
H392 C437 0.929 . S
H393 C438 0.931 . S
H394 C440 0.930 . S
H395 C441 0.929 . S
O396 H370 0.856 . S
O396 C442 1.300 . S
O397 C442 1.209 . S
O398 C443 1.199 . S
O399 H371 0.854 . S
O399 C443 1.297 . S
C400 C401 1.404 . S
C400 C405 1.397 . S
C400 C406 1.492 . S
C401 C400 1.404 . S
C401 C402 1.396 . S
C401 C412 1.495 . S
C402 C401 1.396 . S
C402 C403 1.397 . S
C402 C418 1.509 . S
C403 C402 1.397 . S
C403 C404 1.412 . S
C403 C424 1.485 . S
C404 C403 1.412 . S
C404 C405 1.388 . S
C404 C430 1.490 . S
C405 C400 1.397 . S
C405 C404 1.388 . S
C405 C436 1.519 . S
C406 C400 1.492 . S
C406 C407 1.363 . S
C406 C411 1.390 . S
C407 H372 0.930 . S
C407 C406 1.363 . S
C407 C408 1.372 . S
C408 H373 0.930 . S
C408 C407 1.372 . S
C408 C409 1.383 . S
C409 C408 1.383 . S
C409 C410 1.395 . S
C410 H374 0.930 . S
C410 C409 1.395 . S
C410 C411 1.362 . S
C411 H375 0.930 . S
C411 C406 1.390 . S
C411 C410 1.362 . S
C412 C401 1.495 . S
C412 C413 1.376 1_554 S
C412 C417 1.396 1_554 S
C413 H376 0.931 . S
C413 C412 1.376 1_556 S
C413 C414 1.376 . S
C414 H377 0.930 . S
C414 C413 1.376 . S
C414 C415 1.376 . S
C415 C414 1.376 . S
C415 C416 1.378 . S
C415 C442 1.486 . S
C416 H378 0.930 . S
C416 C415 1.378 . S
C416 C417 1.376 . S
C417 H379 0.929 . S
C417 C412 1.396 1_556 S
C417 C416 1.376 . S
C418 C402 1.509 . S
C418 C419 1.391 . S
C418 C423 1.386 1_554 S
C419 H380 0.930 . S
C419 C418 1.391 . S
C419 C420 1.375 1_554 S
C420 H381 0.931 . S
C420 C419 1.375 1_556 S
C420 C421 1.375 . S
C421 C420 1.375 . S
C421 C422 1.361 . S
C422 H382 0.930 . S
C422 C421 1.361 . S
C422 C423 1.399 . S
C423 H383 0.929 1_556 S
C423 C418 1.386 1_556 S
C423 C422 1.399 . S
C424 C403 1.485 . S
C424 C425 1.394 . S
C424 C429 1.360 . S
C425 H384 0.931 . S
C425 C424 1.394 . S
C425 C426 1.372 . S
C426 H385 0.930 . S
C426 C425 1.372 . S
C426 C427 1.397 . S
C427 C426 1.397 . S
C427 C428 1.390 . S
C427 C443 1.476 . S
C428 H386 0.930 . S
C428 C427 1.390 . S
C428 C429 1.366 . S
C429 H387 0.932 . S
C429 C424 1.360 . S
C429 C428 1.366 . S
C430 C404 1.490 . S
C430 C431 1.380 . S
C430 C435 1.386 . S
C431 H388 0.930 . S
C431 C430 1.380 . S
C431 C432 1.381 . S
C432 H389 0.929 . S
C432 C431 1.381 . S
C432 C433 1.371 . S
C433 C432 1.371 . S
C433 C434 1.380 . S
C434 H390 0.931 . S
C434 C433 1.380 . S
C434 C435 1.387 . S
C435 H391 0.930 . S
C435 C430 1.386 . S
C435 C434 1.387 . S
C436 C405 1.519 . S
C436 C437 1.377 . S
C436 C441 1.361 . S
C437 H392 0.929 . S
C437 C436 1.377 . S
C437 C438 1.386 . S
C438 H393 0.931 . S
C438 C437 1.386 . S
C438 C439 1.363 . S
C439 C438 1.363 . S
C439 C440 1.385 . S
C440 H394 0.930 . S
C440 C439 1.385 . S
C440 C441 1.396 . S
C441 H395 0.929 . S
C441 C436 1.361 . S
C441 C440 1.396 . S
C442 O396 1.300 . S
C442 O397 1.209 . S
C442 C415 1.486 . S
C443 O398 1.199 . S
C443 O399 1.297 . S
C443 C427 1.476 . S
C444 O471 1.312 . S
C444 O472 1.208 . S
C445 O466 1.331 . S
C445 O469 1.244 . S
C446 O468 1.264 . S
C446 O470 1.273 . S
Mg447 O449 1.936 1_455 S
Mg447 O456 2.081 1_455 S
Mg447 O458 2.023 . S
Mg447 O462 2.031 1_455 S
Mg447 O471 2.291 . S
Mg448 O449 1.963 . S
Mg448 O459 1.942 . S
Mg448 O460 1.955 1_655 S
Mg448 O467 1.986 . S
O449 Mg447 1.936 1_655 S
O449 Mg448 1.963 . S
O449 Mg450 1.915 1_655 S
Mg450 O449 1.915 1_455 S
Mg450 O451 1.915 . S
Mg450 O455 2.013 . S
Mg450 O461 2.114 1_455 S
Mg450 O465 2.013 1_455 S
Mg450 O471 2.114 . S
O451 Mg450 1.915 . S
O451 Mg452 1.936 . S
O451 Mg453 1.963 . S
Mg452 O451 1.936 . S
Mg452 O461 2.291 1_455 S
Mg452 O466 2.081 . S
Mg452 O468 2.023 1_455 S
Mg452 O472 2.031 . S
Mg453 O451 1.963 . S
Mg453 O457 1.986 . S
Mg453 O469 1.942 . S
Mg453 O470 1.955 1_455 S
C454 O465 1.191 . S
C454 O467 1.307 . S
O455 Mg450 2.013 . S
O455 C474 1.191 . S
O456 Mg447 2.081 1_655 S
O456 C464 1.331 . S
O457 Mg453 1.986 . S
O457 C474 1.307 . S
O458 Mg447 2.023 . S
O458 C473 1.264 . S
O459 Mg448 1.942 . S
O459 C464 1.244 . S
O460 Mg448 1.955 1_455 S
O460 C473 1.273 . S
O461 Mg450 2.114 1_655 S
O461 Mg452 2.291 1_655 S
O461 C463 1.312 . S
O462 Mg447 2.031 1_655 S
O462 C463 1.208 . S
C463 O461 1.312 . S
C463 O462 1.208 . S
C464 O456 1.331 . S
C464 O459 1.244 . S
O465 Mg450 2.013 1_655 S
O465 C454 1.191 . S
O466 C445 1.331 . S
O466 Mg452 2.081 . S
O467 Mg448 1.986 . S
O467 C454 1.307 . S
O468 C446 1.264 . S
O468 Mg452 2.023 1_655 S
O469 C445 1.244 . S
O469 Mg453 1.942 . S
O470 C446 1.273 . S
O470 Mg453 1.955 1_655 S
O471 C444 1.312 . S
O471 Mg447 2.291 . S
O471 Mg450 2.114 . S
O472 C444 1.208 . S
O472 Mg452 2.031 . S
C473 O458 1.264 . S
C473 O460 1.273 . S
C474 O455 1.191 . S
C474 O457 1.307 . S
C475 O502 1.312 . S
C475 O503 1.208 . S
C476 O497 1.331 . S
C476 O500 1.244 . S
C477 O499 1.264 . S
C477 O501 1.273 . S
Mg478 O480 1.936 1_545 S
Mg478 O487 2.081 1_545 S
Mg478 O489 2.023 . S
Mg478 O493 2.031 1_545 S
Mg478 O502 2.291 . S
Mg479 O480 1.963 . S
Mg479 O490 1.942 . S
Mg479 O491 1.955 1_565 S
Mg479 O498 1.986 . S
O480 Mg478 1.936 1_565 S
O480 Mg479 1.963 . S
O480 Mg481 1.915 1_565 S
Mg481 O480 1.915 1_545 S
Mg481 O482 1.915 . S
Mg481 O486 2.013 . S
Mg481 O492 2.114 1_545 S
Mg481 O496 2.013 1_545 S
Mg481 O502 2.114 . S
O482 Mg481 1.915 . S
O482 Mg483 1.936 . S
O482 Mg484 1.963 . S
Mg483 O482 1.936 . S
Mg483 O492 2.291 1_545 S
Mg483 O497 2.081 . S
Mg483 O499 2.023 1_545 S
Mg483 O503 2.031 . S
Mg484 O482 1.963 . S
Mg484 O488 1.986 . S
Mg484 O500 1.942 . S
Mg484 O501 1.955 1_545 S
C485 O496 1.191 . S
C485 O498 1.307 . S
O486 Mg481 2.013 . S
O486 C505 1.191 . S
O487 Mg478 2.081 1_565 S
O487 C495 1.331 . S
O488 Mg484 1.986 . S
O488 C505 1.307 . S
O489 Mg478 2.023 . S
O489 C504 1.264 . S
O490 Mg479 1.942 . S
O490 C495 1.244 . S
O491 Mg479 1.955 1_545 S
O491 C504 1.273 . S
O492 Mg481 2.114 1_565 S
O492 Mg483 2.291 1_565 S
O492 C494 1.312 . S
O493 Mg478 2.031 1_565 S
O493 C494 1.208 . S
C494 O492 1.312 . S
C494 O493 1.208 . S
C495 O487 1.331 . S
C495 O490 1.244 . S
O496 Mg481 2.013 1_565 S
O496 C485 1.191 . S
O497 C476 1.331 . S
O497 Mg483 2.081 . S
O498 Mg479 1.986 . S
O498 C485 1.307 . S
O499 C477 1.264 . S
O499 Mg483 2.023 1_565 S
O500 C476 1.244 . S
O500 Mg484 1.942 . S
O501 C477 1.273 . S
O501 Mg484 1.955 1_565 S
O502 C475 1.312 . S
O502 Mg478 2.291 . S
O502 Mg481 2.114 . S
O503 C475 1.208 . S
O503 Mg483 2.031 . S
C504 O489 1.264 . S
C504 O491 1.273 . S
C505 O486 1.191 . S
C505 O488 1.307 . S
C506 O533 1.312 . S
C506 O534 1.208 . S
C507 O528 1.331 . S
C507 O531 1.244 . S
C508 O530 1.264 . S
C508 O532 1.273 . S
Mg509 O511 1.936 . S
Mg509 O518 2.081 . S
Mg509 O520 2.023 . S
Mg509 O524 2.031 . S
Mg509 O533 2.291 . S
Mg510 O511 1.963 . S
Mg510 O521 1.942 . S
Mg510 O522 1.955 . S
Mg510 O529 1.986 . S
O511 Mg509 1.936 . S
O511 Mg510 1.963 . S
O511 Mg512 1.915 . S
Mg512 O511 1.915 . S
Mg512 O513 1.915 . S
Mg512 O517 2.013 . S
Mg512 O523 2.114 . S
Mg512 O527 2.013 . S
Mg512 O533 2.114 . S
O513 Mg512 1.915 . S
O513 Mg514 1.936 . S
O513 Mg515 1.963 . S
Mg514 O513 1.936 . S
Mg514 O523 2.291 . S
Mg514 O528 2.081 . S
Mg514 O530 2.023 . S
Mg514 O534 2.031 . S
Mg515 O513 1.963 . S
Mg515 O519 1.986 . S
Mg515 O531 1.942 . S
Mg515 O532 1.955 . S
C516 O527 1.191 . S
C516 O529 1.307 . S
O517 Mg512 2.013 . S
O517 C536 1.191 . S
O518 Mg509 2.081 . S
O518 C526 1.331 . S
O519 Mg515 1.986 . S
O519 C536 1.307 . S
O520 Mg509 2.023 . S
O520 C535 1.264 . S
O521 Mg510 1.942 . S
O521 C526 1.244 . S
O522 Mg510 1.955 . S
O522 C535 1.273 . S
O523 Mg512 2.114 . S
O523 Mg514 2.291 . S
O523 C525 1.312 . S
O524 Mg509 2.031 . S
O524 C525 1.208 . S
C525 O523 1.312 . S
C525 O524 1.208 . S
C526 O518 1.331 . S
C526 O521 1.244 . S
O527 Mg512 2.013 . S
O527 C516 1.191 . S
O528 C507 1.331 . S
O528 Mg514 2.081 . S
O529 Mg510 1.986 . S
O529 C516 1.307 . S
O530 C508 1.264 . S
O530 Mg514 2.023 . S
O531 C507 1.244 . S
O531 Mg515 1.942 . S
O532 C508 1.273 . S
O532 Mg515 1.955 . S
O533 C506 1.312 . S
O533 Mg509 2.291 . S
O533 Mg512 2.114 . S
O534 C506 1.208 . S
O534 Mg514 2.031 . S
C535 O520 1.264 . S
C535 O522 1.273 . S
C536 O517 1.191 . S
C536 O519 1.307 . S
C537 C538 1.369 . S
C537 C539 1.419 . S
C537 H541 0.930 . S
C538 C537 1.369 . S
C538 C547 1.429 . S
C539 C537 1.419 . S
C539 C540 1.363 . S
C539 H542 0.929 . S
C540 C539 1.363 . S
C540 C546 1.428 . S
H541 C537 0.930 . S
H542 C539 0.929 . S
S543 N544 1.613 . S
S543 N545 1.610 . S
N544 S543 1.613 . S
N544 C547 1.350 . S
N545 S543 1.610 . S
N545 C546 1.351 . S
C546 C540 1.428 . S
C546 N545 1.351 . S
C546 C547 1.434 . S
C547 C538 1.429 . S
C547 N544 1.350 . S
C547 C546 1.434 . S
C548 C549 1.369 . S
C548 C550 1.419 . S
C548 H552 0.930 . S
C549 C548 1.369 . S
C549 C558 1.429 . S
C550 C548 1.419 . S
C550 C551 1.363 . S
C550 H553 0.929 . S
C551 C550 1.363 . S
C551 C557 1.428 . S
H552 C548 0.930 . S
H553 C550 0.929 . S
S554 N555 1.613 . S
S554 N556 1.610 . S
N555 S554 1.613 . S
N555 C558 1.350 . S
N556 S554 1.610 . S
N556 C557 1.351 . S
C557 C551 1.428 . S
C557 N556 1.351 . S
C557 C558 1.434 . S
C558 C549 1.429 . S
C558 N555 1.350 . S
C558 C557 1.434 . S
C559 C560 1.369 . S
C559 C561 1.419 . S
C559 H563 0.930 . S
C560 C559 1.369 . S
C560 C569 1.429 . S
C561 C559 1.419 . S
C561 C562 1.363 . S
C561 H564 0.929 . S
C562 C561 1.363 . S
C562 C568 1.428 . S
H563 C559 0.930 . S
H564 C561 0.929 . S
S565 N566 1.613 . S
S565 N567 1.610 . S
N566 S565 1.613 . S
N566 C569 1.350 . S
N567 S565 1.610 . S
N567 C568 1.351 . S
C568 C562 1.428 . S
C568 N567 1.351 . S
C568 C569 1.434 . S
C569 C560 1.429 . S
C569 N566 1.350 . S
C569 C568 1.434 . S
C570 C571 1.369 . S
C570 C572 1.419 . S
C570 H574 0.930 . S
C571 C570 1.369 . S
C571 C580 1.429 . S
C572 C570 1.419 . S
C572 C573 1.363 . S
C572 H575 0.929 . S
C573 C572 1.363 . S
C573 C579 1.428 . S
H574 C570 0.930 . S
H575 C572 0.929 . S
S576 N577 1.613 . S
S576 N578 1.610 . S
N577 S576 1.613 . S
N577 C580 1.350 . S
N578 S576 1.610 . S
N578 C579 1.351 . S
C579 C573 1.428 . S
C579 N578 1.351 . S
C579 C580 1.434 . S
C580 C571 1.429 . S
C580 N577 1.350 . S
C580 C579 1.434 . S
C581 C582 1.369 . S
C581 C583 1.419 . S
C581 H585 0.930 . S
C582 C581 1.369 . S
C582 C591 1.429 . S
C583 C581 1.419 . S
C583 C584 1.363 . S
C583 H586 0.929 . S
C584 C583 1.363 . S
C584 C590 1.428 . S
H585 C581 0.930 . S
H586 C583 0.929 . S
S587 N588 1.613 . S
S587 N589 1.610 . S
N588 S587 1.613 . S
N588 C591 1.350 . S
N589 S587 1.610 . S
N589 C590 1.351 . S
C590 C584 1.428 . S
C590 N589 1.351 . S
C590 C591 1.434 . S
C591 C582 1.429 . S
C591 N588 1.350 . S
C591 C590 1.434 . S
C592 C593 1.369 . S
C592 C594 1.419 . S
C592 H596 0.930 . S
C593 C592 1.369 . S
C593 C602 1.429 . S
C594 C592 1.419 . S
C594 C595 1.363 . S
C594 H597 0.929 . S
C595 C594 1.363 . S
C595 C601 1.428 . S
H596 C592 0.930 . S
H597 C594 0.929 . S
S598 N599 1.613 . S
S598 N600 1.610 . S
N599 S598 1.613 . S
N599 C602 1.350 . S
N600 S598 1.610 . S
N600 C601 1.351 . S
C601 C595 1.428 . S
C601 N600 1.351 . S
C601 C602 1.434 . S
C602 C593 1.429 . S
C602 N599 1.350 . S
C602 C601 1.434 . S
C603 C604 1.369 . S
C603 C605 1.419 . S
C603 H607 0.930 . S
C604 C603 1.369 . S
C604 C613 1.429 . S
C605 C603 1.419 . S
C605 C606 1.363 . S
C605 H608 0.929 . S
C606 C605 1.363 . S
C606 C612 1.428 . S
H607 C603 0.930 . S
H608 C605 0.929 . S
S609 N610 1.613 . S
S609 N611 1.610 . S
N610 S609 1.613 . S
N610 C613 1.350 . S
N611 S609 1.610 . S
N611 C612 1.351 . S
C612 C606 1.428 . S
C612 N611 1.351 . S
C612 C613 1.434 . S
C613 C604 1.429 . S
C613 N610 1.350 . S
C613 C612 1.434 . S
C614 C615 1.369 . S
C614 C616 1.419 . S
C614 H618 0.930 . S
C615 C614 1.369 . S
C615 C624 1.429 . S
C616 C614 1.419 . S
C616 C617 1.363 . S
C616 H619 0.929 . S
C617 C616 1.363 . S
C617 C623 1.428 . S
H618 C614 0.930 . S
H619 C616 0.929 . S
S620 N621 1.613 . S
S620 N622 1.610 . S
N621 S620 1.613 . S
N621 C624 1.350 . S
N622 S620 1.610 . S
N622 C623 1.351 . S
C623 C617 1.428 . S
C623 N622 1.351 . S
C623 C624 1.434 . S
C624 C615 1.429 . S
C624 N621 1.350 . S
C624 C623 1.434 . S
C625 C626 1.369 . S
C625 C627 1.419 . S
C625 H629 0.930 . S
C626 C625 1.369 . S
C626 C635 1.429 . S
C627 C625 1.419 . S
C627 C628 1.363 . S
C627 H630 0.929 . S
C628 C627 1.363 . S
C628 C634 1.428 . S
H629 C625 0.930 . S
H630 C627 0.929 . S
S631 N632 1.613 . S
S631 N633 1.610 . S
N632 S631 1.613 . S
N632 C635 1.350 . S
N633 S631 1.610 . S
N633 C634 1.351 . S
C634 C628 1.428 . S
C634 N633 1.351 . S
C634 C635 1.434 . S
C635 C626 1.429 . S
C635 N632 1.350 . S
C635 C634 1.434 . S
C636 C637 1.369 . S
C636 C638 1.419 . S
C636 H640 0.930 . S
C637 C636 1.369 . S
C637 C646 1.429 . S
C638 C636 1.419 . S
C638 C639 1.363 . S
C638 H641 0.929 . S
C639 C638 1.363 . S
C639 C645 1.428 . S
H640 C636 0.930 . S
H641 C638 0.929 . S
S642 N643 1.611 1_554 S
S642 N644 1.610 1_554 S
N643 S642 1.611 1_556 S
N643 C646 1.361 . S
N644 S642 1.610 1_556 S
N644 C645 1.351 . S
C645 C639 1.428 . S
C645 N644 1.351 . S
C645 C646 1.434 . S
C646 C637 1.429 . S
C646 N643 1.361 . S
C646 C645 1.434 . S
C647 C648 1.369 . S
C647 C649 1.419 . S
C647 H651 0.930 . S
C648 C647 1.369 . S
C648 C657 1.429 . S
C649 C647 1.419 . S
C649 C650 1.363 . S
C649 H652 0.929 . S
C650 C649 1.363 . S
C650 C656 1.428 . S
H651 C647 0.930 . S
H652 C649 0.929 . S
S653 N654 1.613 . S
S653 N655 1.610 1_554 S
N654 S653 1.613 . S
N654 C657 1.350 1_554 S
N655 S653 1.610 1_556 S
N655 C656 1.351 . S
C656 C650 1.428 . S
C656 N655 1.351 . S
C656 C657 1.434 . S
C657 C648 1.429 . S
C657 N654 1.350 1_556 S
C657 C656 1.434 . S
C658 C659 1.369 . S
C658 C660 1.419 . S
C658 H662 0.930 . S
C659 C658 1.369 . S
C659 C668 1.429 . S
C660 C658 1.419 . S
C660 C661 1.363 . S
C660 H663 0.929 . S
C661 C660 1.363 . S
C661 C667 1.428 . S
H662 C658 0.930 . S
H663 C660 0.929 . S
S664 N665 1.613 . S
S664 N666 1.610 . S
N665 S664 1.613 . S
N665 C668 1.350 . S
N666 S664 1.610 . S
N666 C667 1.351 . S
C667 C661 1.428 . S
C667 N666 1.351 . S
C667 C668 1.434 . S
C668 C659 1.429 . S
C668 N665 1.350 . S
C668 C667 1.434 . S
C669 C670 1.369 . S
C669 C671 1.419 . S
C669 H673 0.930 . S
C670 C669 1.369 . S
C670 C679 1.429 . S
C671 C669 1.419 . S
C671 C672 1.363 . S
C671 H674 0.929 . S
C672 C671 1.363 . S
C672 C678 1.428 . S
H673 C669 0.930 . S
H674 C671 0.929 . S
S675 N676 1.613 . S
S675 N677 1.610 . S
N676 S675 1.613 . S
N676 C679 1.350 . S
N677 S675 1.610 . S
N677 C678 1.351 . S
C678 C672 1.428 . S
C678 N677 1.351 . S
C678 C679 1.434 . S
C679 C670 1.429 . S
C679 N676 1.350 . S
C679 C678 1.434 . S
C680 C681 1.369 . S
C680 C682 1.419 . S
C680 H684 0.930 . S
C681 C680 1.369 . S
C681 C690 1.429 . S
C682 C680 1.419 . S
C682 C683 1.363 . S
C682 H685 0.929 . S
C683 C682 1.363 . S
C683 C689 1.428 . S
H684 C680 0.930 . S
H685 C682 0.929 . S
S686 N687 1.613 . S
S686 N688 1.610 . S
N687 S686 1.613 . S
N687 C690 1.350 . S
N688 S686 1.610 . S
N688 C689 1.351 . S
C689 C683 1.428 . S
C689 N688 1.351 . S
C689 C690 1.434 . S
C690 C681 1.429 . S
C690 N687 1.350 . S
C690 C689 1.434 . S
C691 C692 1.369 1_556 S
C691 C693 1.419 . S
C691 H695 0.930 . S
C692 C691 1.369 1_554 S
C692 C701 1.429 1_554 S
C693 C691 1.419 . S
C693 C694 1.363 . S
C693 H696 0.929 . S
C694 C693 1.363 . S
C694 C700 1.428 . S
H695 C691 0.930 . S
H696 C693 0.929 . S
S697 N698 1.613 . S
S697 N699 1.610 . S
N698 S697 1.613 . S
N698 C701 1.350 . S
N699 S697 1.610 . S
N699 C700 1.351 . S
C700 C694 1.428 . S
C700 N699 1.351 . S
C700 C701 1.434 . S
C701 C692 1.429 1_556 S
C701 N698 1.350 . S
C701 C700 1.434 . S
C702 C703 1.369 . S
C702 C704 1.419 . S
C702 H706 0.930 . S
C703 C702 1.369 . S
C703 C712 1.429 . S
C704 C702 1.419 . S
C704 C705 1.363 . S
C704 H707 0.929 . S
C705 C704 1.363 . S
C705 C711 1.428 . S
H706 C702 0.930 . S
H707 C704 0.929 . S
S708 N709 1.613 . S
S708 N710 1.610 . S
N709 S708 1.613 . S
N709 C712 1.350 . S
N710 S708 1.610 . S
N710 C711 1.351 . S
C711 C705 1.428 . S
C711 N710 1.351 . S
C711 C712 1.434 . S
C712 C703 1.429 . S
C712 N709 1.350 . S
C712 C711 1.434 . S
C713 C714 1.369 . S
C713 C715 1.419 . S
C713 H717 0.930 . S
C714 C713 1.369 . S
C714 C723 1.429 . S
C715 C713 1.419 . S
C715 C716 1.363 . S
C715 H718 0.929 . S
C716 C715 1.363 . S
C716 C722 1.428 . S
H717 C713 0.930 . S
H718 C715 0.929 . S
S719 N720 1.613 . S
S719 N721 1.610 . S
N720 S719 1.613 . S
N720 C723 1.350 . S
N721 S719 1.610 . S
N721 C722 1.351 . S
C722 C716 1.428 . S
C722 N721 1.351 . S
C722 C723 1.434 . S
C723 C714 1.429 . S
C723 N720 1.350 . S
C723 C722 1.434 . S
C724 C725 1.369 . S
C724 C726 1.419 . S
C724 H728 0.930 . S
C725 C724 1.369 . S
C725 C734 1.429 . S
C726 C724 1.419 . S
C726 C727 1.363 . S
C726 H729 0.929 . S
C727 C726 1.363 . S
C727 C733 1.428 . S
H728 C724 0.930 . S
H729 C726 0.929 . S
S730 N731 1.613 . S
S730 N732 1.610 . S
N731 S730 1.613 . S
N731 C734 1.350 . S
N732 S730 1.610 . S
N732 C733 1.351 . S
C733 C727 1.428 . S
C733 N732 1.351 . S
C733 C734 1.434 . S
C734 C725 1.429 . S
C734 N731 1.350 . S
C734 C733 1.434 . S
C735 C736 1.369 . S
C735 C737 1.419 . S
C735 H739 0.930 . S
C736 C735 1.369 . S
C736 C745 1.429 . S
C737 C735 1.419 . S
C737 C738 1.363 . S
C737 H740 0.929 . S
C738 C737 1.363 . S
C738 C744 1.428 . S
H739 C735 0.930 . S
H740 C737 0.929 . S
S741 N742 1.613 . S
S741 N743 1.610 . S
N742 S741 1.613 . S
N742 C745 1.350 . S
N743 S741 1.610 . S
N743 C744 1.351 . S
C744 C738 1.428 . S
C744 N743 1.351 . S
C744 C745 1.434 . S
C745 C736 1.429 . S
C745 N742 1.350 . S
C745 C744 1.434 . S
C746 C747 1.369 . S
C746 C748 1.419 . S
C746 H750 0.930 . S
C747 C746 1.369 . S
C747 C756 1.429 . S
C748 C746 1.419 . S
C748 C749 1.363 . S
C748 H751 0.929 . S
C749 C748 1.363 . S
C749 C755 1.428 . S
H750 C746 0.930 . S
H751 C748 0.929 . S
S752 N753 1.613 . S
S752 N754 1.610 . S
N753 S752 1.613 . S
N753 C756 1.350 . S
N754 S752 1.610 . S
N754 C755 1.351 . S
C755 C749 1.428 . S
C755 N754 1.351 . S
C755 C756 1.434 . S
C756 C747 1.429 . S
C756 N753 1.350 . S
C756 C755 1.434 . S
C757 C758 1.369 . S
C757 C759 1.419 . S
C757 H761 0.930 . S
C758 C757 1.369 . S
C758 C767 1.429 . S
C759 C757 1.419 . S
C759 C760 1.363 . S
C759 H762 0.929 . S
C760 C759 1.363 . S
C760 C766 1.428 . S
H761 C757 0.930 . S
H762 C759 0.929 . S
S763 N764 1.613 . S
S763 N765 1.610 . S
N764 S763 1.613 . S
N764 C767 1.350 . S
N765 S763 1.610 . S
N765 C766 1.351 . S
C766 C760 1.428 . S
C766 N765 1.351 . S
C766 C767 1.434 . S
C767 C758 1.429 . S
C767 N764 1.350 . S
C767 C766 1.434 . S
C768 C769 1.369 . S
C768 C770 1.419 . S
C768 H772 0.930 . S
C769 C768 1.369 . S
C769 C778 1.429 . S
C770 C768 1.419 . S
C770 C771 1.363 . S
C770 H773 0.929 . S
C771 C770 1.363 . S
C771 C777 1.428 . S
H772 C768 0.930 . S
H773 C770 0.929 . S
S774 N775 1.613 . S
S774 N776 1.610 . S
N775 S774 1.613 . S
N775 C778 1.350 . S
N776 S774 1.610 . S
N776 C777 1.351 . S
C777 C771 1.428 . S
C777 N776 1.351 . S
C777 C778 1.434 . S
C778 C769 1.429 . S
C778 N775 1.350 . S
C778 C777 1.434 . S
C779 C780 1.369 . S
C779 C781 1.419 . S
C779 H783 0.930 . S
C780 C779 1.369 . S
C780 C789 1.429 . S
C781 C779 1.419 . S
C781 C782 1.363 . S
C781 H784 0.929 . S
C782 C781 1.363 . S
C782 C788 1.428 . S
H783 C779 0.930 . S
H784 C781 0.929 . S
S785 N786 1.613 . S
S785 N787 1.610 . S
N786 S785 1.613 . S
N786 C789 1.350 . S
N787 S785 1.610 . S
N787 C788 1.351 . S
C788 C782 1.428 . S
C788 N787 1.351 . S
C788 C789 1.434 . S
C789 C780 1.429 . S
C789 N786 1.350 . S
C789 C788 1.434 . S
C790 C791 1.369 . S
C790 C792 1.419 . S
C790 H794 0.930 . S
C791 C790 1.369 . S
C791 C800 1.429 . S
C792 C790 1.419 . S
C792 C793 1.363 . S
C792 H795 0.929 . S
C793 C792 1.363 . S
C793 C799 1.428 . S
H794 C790 0.930 . S
H795 C792 0.929 . S
S796 N797 1.613 . S
S796 N798 1.610 . S
N797 S796 1.613 . S
N797 C800 1.350 . S
N798 S796 1.610 . S
N798 C799 1.351 . S
C799 C793 1.428 . S
C799 N798 1.351 . S
C799 C800 1.434 . S
C800 C791 1.429 . S
C800 N797 1.350 . S
C800 C799 1.434 . S
C538 C39 1.842 . S
C540 C444 1.806 . S
C549 C125 1.034 . S
C551 C476 1.054 . S
C562 C535 2.309 . S
C560 C211 2.129 . S
C573 C464 0.938 . S
C571 C273 0.937 . S
C582 C335 1.958 . S
C584 C494 1.972 . S
C595 C516 1.721 . S
C593 C439 1.691 . S
C606 C485 1.822 . S
C604 C187 1.823 . S
C615 C291 1.791 . S
C617 C525 1.732 . S
C628 C474 2.342 . S
C626 C359 2.034 . S
C637 C421 0.940 . S
C639 C504 0.939 . S
C648 C63 2.062 . S
C650 C507 2.237 . S
C661 C446 1.939 . S
C659 C143 1.947 . S
C672 C454 2.250 . S
C670 C285 2.067 . S
C683 C495 1.792 . S
C681 C365 1.833 . S
C694 C508 2.083 . S
C692 C409 2.068 . S
C705 C445 1.731 . S
C703 C69 1.786 1_556 S
C716 C505 2.019 . S
C714 C137 1.912 . S
C725 C199 0.640 . S
C727 C506 0.599 . S
C738 C475 2.278 . S
C736 C433 2.025 . S
C749 C536 0.692 . S
C747 C51 0.692 . S
C760 C463 1.756 . S
C758 C113 1.862 . S
C771 C477 1.800 . S
C769 C217 1.855 . S
C780 C261 2.008 . S
C782 C526 2.025 . S
C791 C347 0.832 . S
C793 C473 0.838 . S
