# Generated by pormake.
# Topology ptr, (4,4)-cn, num edge types: 1
# Building blocks:
#     Node 0, Type 0, BuildingBlock: TATPOV_clean_sbu_0, # of connection points: 4
#     Node 1, Type 0, BuildingBlock: TATPOV_clean_sbu_0, # of connection points: 4
#     Node 2, Type 0, BuildingBlock: TATPOV_clean_sbu_0, # of connection points: 4
#     Node 3, Type 0, BuildingBlock: TATPOV_clean_sbu_0, # of connection points: 4
#     Node 4, Type 0, BuildingBlock: TATPOV_clean_sbu_0, # of connection points: 4
#     Node 5, Type 0, BuildingBlock: TATPOV_clean_sbu_0, # of connection points: 4
#     Node 6, Type 0, BuildingBlock: TATPOV_clean_sbu_0, # of connection points: 4
#     Node 7, Type 0, BuildingBlock: TATPOV_clean_sbu_0, # of connection points: 4
#     Node 8, Type 0, BuildingBlock: TATPOV_clean_sbu_0, # of connection points: 4
#     Node 9, Type 0, BuildingBlock: TATPOV_clean_sbu_0, # of connection points: 4
#     Node 10, Type 0, BuildingBlock: TATPOV_clean_sbu_0, # of connection points: 4
#     Node 11, Type 0, BuildingBlock: TATPOV_clean_sbu_0, # of connection points: 4
#     Node 12, Type 0, BuildingBlock: TATPOV_clean_sbu_0, # of connection points: 4
#     Node 13, Type 0, BuildingBlock: TATPOV_clean_sbu_0, # of connection points: 4
#     Node 14, Type 0, BuildingBlock: TATPOV_clean_sbu_0, # of connection points: 4
#     Node 15, Type 0, BuildingBlock: TATPOV_clean_sbu_0, # of connection points: 4
#     Node 16, Type 0, BuildingBlock: TATPOV_clean_sbu_0, # of connection points: 4
#     Node 17, Type 0, BuildingBlock: TATPOV_clean_sbu_0, # of connection points: 4
#     Node 18, Type 1, BuildingBlock: AZAVOO_clean_linker_0, # of connection points: 4
#     Node 19, Type 1, BuildingBlock: AZAVOO_clean_linker_0, # of connection points: 4
#     Node 20, Type 1, BuildingBlock: AZAVOO_clean_linker_0, # of connection points: 4
#     Node 21, Type 1, BuildingBlock: AZAVOO_clean_linker_0, # of connection points: 4
#     Node 22, Type 1, BuildingBlock: AZAVOO_clean_linker_0, # of connection points: 4
#     Node 23, Type 1, BuildingBlock: AZAVOO_clean_linker_0, # of connection points: 4
#     Node 24, Type 1, BuildingBlock: AZAVOO_clean_linker_0, # of connection points: 4
#     Node 25, Type 1, BuildingBlock: AZAVOO_clean_linker_0, # of connection points: 4
#     Node 26, Type 1, BuildingBlock: AZAVOO_clean_linker_0, # of connection points: 4
#     Node 27, Type 1, BuildingBlock: AZAVOO_clean_linker_0, # of connection points: 4
#     Node 28, Type 1, BuildingBlock: AZAVOO_clean_linker_0, # of connection points: 4
#     Node 29, Type 1, BuildingBlock: AZAVOO_clean_linker_0, # of connection points: 4
#     Node 30, Type 1, BuildingBlock: AZAVOO_clean_linker_0, # of connection points: 4
#     Node 31, Type 1, BuildingBlock: AZAVOO_clean_linker_0, # of connection points: 4
#     Node 32, Type 1, BuildingBlock: AZAVOO_clean_linker_0, # of connection points: 4
#     Node 33, Type 1, BuildingBlock: AZAVOO_clean_linker_0, # of connection points: 4
#     Node 34, Type 1, BuildingBlock: AZAVOO_clean_linker_0, # of connection points: 4
#     Node 35, Type 1, BuildingBlock: AZAVOO_clean_linker_0, # of connection points: 4
#     Edge 36, Type (0, 1), BuildingBlock: CIFDUS_clean_linker_0, # of connection points: 2
#     Edge 37, Type (0, 1), BuildingBlock: CIFDUS_clean_linker_0, # of connection points: 2
#     Edge 38, Type (0, 1), BuildingBlock: CIFDUS_clean_linker_0, # of connection points: 2
#     Edge 39, Type (0, 1), BuildingBlock: CIFDUS_clean_linker_0, # of connection points: 2
#     Edge 40, Type (0, 1), BuildingBlock: CIFDUS_clean_linker_0, # of connection points: 2
#     Edge 41, Type (0, 1), BuildingBlock: CIFDUS_clean_linker_0, # of connection points: 2
#     Edge 42, Type (0, 1), BuildingBlock: CIFDUS_clean_linker_0, # of connection points: 2
#     Edge 43, Type (0, 1), BuildingBlock: CIFDUS_clean_linker_0, # of connection points: 2
#     Edge 44, Type (0, 1), BuildingBlock: CIFDUS_clean_linker_0, # of connection points: 2
#     Edge 45, Type (0, 1), BuildingBlock: CIFDUS_clean_linker_0, # of connection points: 2
#     Edge 46, Type (0, 1), BuildingBlock: CIFDUS_clean_linker_0, # of connection points: 2
#     Edge 47, Type (0, 1), BuildingBlock: CIFDUS_clean_linker_0, # of connection points: 2
#     Edge 48, Type (0, 1), BuildingBlock: CIFDUS_clean_linker_0, # of connection points: 2
#     Edge 49, Type (0, 1), BuildingBlock: CIFDUS_clean_linker_0, # of connection points: 2
#     Edge 50, Type (0, 1), BuildingBlock: CIFDUS_clean_linker_0, # of connection points: 2
#     Edge 51, Type (0, 1), BuildingBlock: CIFDUS_clean_linker_0, # of connection points: 2
#     Edge 52, Type (0, 1), BuildingBlock: CIFDUS_clean_linker_0, # of connection points: 2
#     Edge 53, Type (0, 1), BuildingBlock: CIFDUS_clean_linker_0, # of connection points: 2
#     Edge 54, Type (0, 1), BuildingBlock: CIFDUS_clean_linker_0, # of connection points: 2
#     Edge 55, Type (0, 1), BuildingBlock: CIFDUS_clean_linker_0, # of connection points: 2
#     Edge 56, Type (0, 1), BuildingBlock: CIFDUS_clean_linker_0, # of connection points: 2
#     Edge 57, Type (0, 1), BuildingBlock: CIFDUS_clean_linker_0, # of connection points: 2
#     Edge 58, Type (0, 1), BuildingBlock: CIFDUS_clean_linker_0, # of connection points: 2
#     Edge 59, Type (0, 1), BuildingBlock: CIFDUS_clean_linker_0, # of connection points: 2
#     Edge 60, Type (0, 1), BuildingBlock: CIFDUS_clean_linker_0, # of connection points: 2
#     Edge 61, Type (0, 1), BuildingBlock: CIFDUS_clean_linker_0, # of connection points: 2
#     Edge 62, Type (0, 1), BuildingBlock: CIFDUS_clean_linker_0, # of connection points: 2
#     Edge 63, Type (0, 1), BuildingBlock: CIFDUS_clean_linker_0, # of connection points: 2
#     Edge 64, Type (0, 1), BuildingBlock: CIFDUS_clean_linker_0, # of connection points: 2
#     Edge 65, Type (0, 1), BuildingBlock: CIFDUS_clean_linker_0, # of connection points: 2
#     Edge 66, Type (0, 1), BuildingBlock: CIFDUS_clean_linker_0, # of connection points: 2
#     Edge 67, Type (0, 1), BuildingBlock: CIFDUS_clean_linker_0, # of connection points: 2
#     Edge 68, Type (0, 1), BuildingBlock: CIFDUS_clean_linker_0, # of connection points: 2
#     Edge 69, Type (0, 1), BuildingBlock: CIFDUS_clean_linker_0, # of connection points: 2
#     Edge 70, Type (0, 1), BuildingBlock: CIFDUS_clean_linker_0, # of connection points: 2
#     Edge 71, Type (0, 1), BuildingBlock: CIFDUS_clean_linker_0, # of connection points: 2
#     Edge 72, Type (0, 1), BuildingBlock: CIFDUS_clean_linker_0, # of connection points: 2
#     Edge 73, Type (0, 1), BuildingBlock: CIFDUS_clean_linker_0, # of connection points: 2
#     Edge 74, Type (0, 1), BuildingBlock: CIFDUS_clean_linker_0, # of connection points: 2
#     Edge 75, Type (0, 1), BuildingBlock: CIFDUS_clean_linker_0, # of connection points: 2
#     Edge 76, Type (0, 1), BuildingBlock: CIFDUS_clean_linker_0, # of connection points: 2
#     Edge 77, Type (0, 1), BuildingBlock: CIFDUS_clean_linker_0, # of connection points: 2
#     Edge 78, Type (0, 1), BuildingBlock: CIFDUS_clean_linker_0, # of connection points: 2
#     Edge 79, Type (0, 1), BuildingBlock: CIFDUS_clean_linker_0, # of connection points: 2
#     Edge 80, Type (0, 1), BuildingBlock: CIFDUS_clean_linker_0, # of connection points: 2
#     Edge 81, Type (0, 1), BuildingBlock: CIFDUS_clean_linker_0, # of connection points: 2
#     Edge 82, Type (0, 1), BuildingBlock: CIFDUS_clean_linker_0, # of connection points: 2
#     Edge 83, Type (0, 1), BuildingBlock: CIFDUS_clean_linker_0, # of connection points: 2
#     Edge 84, Type (0, 1), BuildingBlock: CIFDUS_clean_linker_0, # of connection points: 2
#     Edge 85, Type (0, 1), BuildingBlock: CIFDUS_clean_linker_0, # of connection points: 2
#     Edge 86, Type (0, 1), BuildingBlock: CIFDUS_clean_linker_0, # of connection points: 2
#     Edge 87, Type (0, 1), BuildingBlock: CIFDUS_clean_linker_0, # of connection points: 2
#     Edge 88, Type (0, 1), BuildingBlock: CIFDUS_clean_linker_0, # of connection points: 2
#     Edge 89, Type (0, 1), BuildingBlock: CIFDUS_clean_linker_0, # of connection points: 2
#     Edge 90, Type (0, 1), BuildingBlock: CIFDUS_clean_linker_0, # of connection points: 2
#     Edge 91, Type (0, 1), BuildingBlock: CIFDUS_clean_linker_0, # of connection points: 2
#     Edge 92, Type (0, 1), BuildingBlock: CIFDUS_clean_linker_0, # of connection points: 2
#     Edge 93, Type (0, 1), BuildingBlock: CIFDUS_clean_linker_0, # of connection points: 2
#     Edge 94, Type (0, 1), BuildingBlock: CIFDUS_clean_linker_0, # of connection points: 2
#     Edge 95, Type (0, 1), BuildingBlock: CIFDUS_clean_linker_0, # of connection points: 2
#     Edge 96, Type (0, 1), BuildingBlock: CIFDUS_clean_linker_0, # of connection points: 2
#     Edge 97, Type (0, 1), BuildingBlock: CIFDUS_clean_linker_0, # of connection points: 2
#     Edge 98, Type (0, 1), BuildingBlock: CIFDUS_clean_linker_0, # of connection points: 2
#     Edge 99, Type (0, 1), BuildingBlock: CIFDUS_clean_linker_0, # of connection points: 2
#     Edge 100, Type (0, 1), BuildingBlock: CIFDUS_clean_linker_0, # of connection points: 2
#     Edge 101, Type (0, 1), BuildingBlock: CIFDUS_clean_linker_0, # of connection points: 2
#     Edge 102, Type (0, 1), BuildingBlock: CIFDUS_clean_linker_0, # of connection points: 2
#     Edge 103, Type (0, 1), BuildingBlock: CIFDUS_clean_linker_0, # of connection points: 2
#     Edge 104, Type (0, 1), BuildingBlock: CIFDUS_clean_linker_0, # of connection points: 2
#     Edge 105, Type (0, 1), BuildingBlock: CIFDUS_clean_linker_0, # of connection points: 2
#     Edge 106, Type (0, 1), BuildingBlock: CIFDUS_clean_linker_0, # of connection points: 2
#     Edge 107, Type (0, 1), BuildingBlock: CIFDUS_clean_linker_0, # of connection points: 2
# Relax obj value: 0.096
# Max RMSD: 0.271
# Mean RMSD: 0.172
data_MOF--net-ptr--node1-TATPOV_clean_sbu_0--node2-AZAVOO_clean_linker_0--edge1-CIFDUS_clean_linker_0
_symmetry_space_group_name_H-M    P1
_symmetry_Int_Tables_number       1
_symmetry_cell_setting            triclinic
loop_
_symmetry_equiv_pos_as_xyz
'x, y, z'
_cell_length_a     73.156173
_cell_length_b     73.316876
_cell_length_c     60.975943
_cell_angle_alpha  92.550181
_cell_angle_beta   93.356117
_cell_angle_gamma 121.55733
loop_
_atom_site_label
_atom_site_type_symbol
_atom_site_fract_x
_atom_site_fract_y
_atom_site_fract_z
_atom_type_partial_charge
Zn0 Zn 0.95236 0.36643 0.02351 0.0
Zn1 Zn 0.99237 0.37289 0.02825 0.0
O2 O 0.97222 0.3405 0.02012 0.0
O3 O 0.93929 0.33419 0.01926 0.0
O4 O 0.02053 0.37522 0.03757 0.0
O5 O 0.95595 0.3812 0.05355 0.0
O6 O 0.98815 0.38563 0.05695 0.0
C7 C 0.95193 0.32739 0.01757 0.0
C8 C 0.98205 0.39308 0.99134 0.0
O9 O 0.99615 0.39047 0.00157 0.0
O10 O 0.96322 0.38449 0.99755 0.0
C11 C 0.02535 0.3618 0.03057 0.0
O12 O 0.01319 0.34753 0.01407 0.0
C13 C 0.97376 0.38813 0.06482 0.0
Zn14 Zn 0.611 0.5657 0.04403 0.0
Zn15 Zn 0.61586 0.60261 0.05917 0.0
O16 O 0.64591 0.6117 0.04979 0.0
O17 O 0.64151 0.58125 0.03608 0.0
O18 O 0.62045 0.63107 0.07088 0.0
O19 O 0.60366 0.55407 0.07337 0.0
O20 O 0.60598 0.58394 0.08574 0.0
C21 C 0.65335 0.6014 0.04041 0.0
C22 C 0.5832 0.57539 0.01934 0.0
O23 O 0.59291 0.59249 0.03245 0.0
O24 O 0.58754 0.56092 0.02143 0.0
C25 C 0.62033 0.64388 0.05755 0.0
O26 O 0.61666 0.6381 0.03628 0.0
C27 C 0.60205 0.56514 0.08877 0.0
Zn28 Zn 0.39738 0.96656 0.03516 0.0
Zn29 Zn 0.39509 0.00106 0.02968 0.0
O30 O 0.36475 0.97855 0.03744 0.0
O31 O 0.36683 0.95032 0.04343 0.0
O32 O 0.39213 0.02635 0.02364 0.0
O33 O 0.40422 0.96503 0.00413 0.0
O34 O 0.40422 0.99468 0.99994 0.0
C35 C 0.35616 0.95944 0.04304 0.0
C36 C 0.42682 0.00268 0.06594 0.0
O37 O 0.41774 0.01165 0.05682 0.0
O38 O 0.42158 0.98388 0.05897 0.0
C39 C 0.37948 0.03026 0.03339 0.0
O40 O 0.36872 0.01822 0.04889 0.0
C41 C 0.4069 0.97982 0.99229 0.0
Zn42 Zn 0.04829 0.63531 0.05354 0.0
Zn43 Zn 0.00813 0.62805 0.05124 0.0
O44 O 0.02911 0.66058 0.0573 0.0
O45 O 0.06191 0.6675 0.05478 0.0
O46 O 0.98059 0.62749 0.04368 0.0
O47 O 0.04211 0.61755 0.02465 0.0
O48 O 0.00967 0.61249 0.02316 0.0
C49 C 0.04924 0.67406 0.05767 0.0
C50 C 0.02161 0.61265 0.08973 0.0
O51 O 0.00606 0.61274 0.07923 0.0
O52 O 0.03989 0.62113 0.08221 0.0
C53 C 0.98286 0.63904 0.02783 0.0
O54 O 0.00119 0.64822 0.01882 0.0
C55 C 0.02346 0.6094 0.01474 0.0
Zn56 Zn 0.39573 0.43389 0.02661 0.0
Zn57 Zn 0.38498 0.3951 0.01066 0.0
O58 O 0.35661 0.39003 0.02161 0.0
O59 O 0.36632 0.42187 0.03712 0.0
O60 O 0.3766 0.36536 0.99849 0.0
O61 O 0.40136 0.44483 0.9968 0.0
O62 O 0.39567 0.41357 0.9839 0.0
C63 C 0.35206 0.40221 0.0324 0.0
C64 C 0.42082 0.41949 0.04863 0.0
O65 O 0.40809 0.40225 0.03638 0.0
O66 O 0.41966 0.43599 0.04678 0.0
C67 C 0.36753 0.35005 0.0108 0.0
O68 O 0.36416 0.35425 0.03083 0.0
C69 C 0.4009 0.4328 0.98098 0.0
Zn70 Zn 0.61385 0.03842 0.04802 0.0
Zn71 Zn 0.60922 0.9992 0.04471 0.0
O72 O 0.64099 0.02083 0.04055 0.0
O73 O 0.64574 0.05299 0.04518 0.0
O74 O 0.60807 0.97098 0.04454 0.0
O75 O 0.60276 0.03319 0.07803 0.0
O76 O 0.59993 0.00176 0.07542 0.0
C77 C 0.65326 0.04118 0.04134 0.0
C78 C 0.58457 0.00943 0.01056 0.0
O79 O 0.58843 0.99578 0.01831 0.0
O80 O 0.59343 0.02823 0.02011 0.0
C81 C 0.62124 0.96791 0.03472 0.0
O82 O 0.63486 0.9827 0.02277 0.0
C83 C 0.59811 0.0159 0.0863 0.0
Zn84 Zn 0.61939 0.71282 0.35365 0.0
Zn85 Zn 0.65664 0.71505 0.36348 0.0
O86 O 0.63458 0.683 0.35456 0.0
O87 O 0.60435 0.68126 0.34425 0.0
O88 O 0.68281 0.71399 0.37363 0.0
O89 O 0.61946 0.7232 0.3848 0.0
O90 O 0.65184 0.72842 0.39144 0.0
C91 C 0.6149 0.67214 0.34674 0.0
C92 C 0.65337 0.73971 0.32627 0.0
O93 O 0.6644 0.73351 0.33695 0.0
O94 O 0.63455 0.73383 0.33113 0.0
C95 C 0.68778 0.70227 0.36274 0.0
O96 O 0.67695 0.6925 0.3436 0.0
C97 C 0.63631 0.72989 0.39773 0.0
Zn98 Zn 0.27866 0.89294 0.38542 0.0
Zn99 Zn 0.2843 0.93032 0.4018 0.0
O100 O 0.31414 0.93861 0.39283 0.0
O101 O 0.31012 0.90804 0.38015 0.0
O102 O 0.2897 0.9584 0.41544 0.0
O103 O 0.26875 0.87991 0.41389 0.0
O104 O 0.27271 0.91035 0.42698 0.0
C105 C 0.32193 0.9282 0.38448 0.0
C106 C 0.25338 0.90656 0.36061 0.0
O107 O 0.26264 0.92278 0.37485 0.0
O108 O 0.25722 0.89164 0.36188 0.0
C109 C 0.29966 0.97529 0.40538 0.0
O110 O 0.30572 0.97392 0.38582 0.0
C111 C 0.26742 0.89105 0.42944 0.0
Zn112 Zn 0.07567 0.30926 0.36369 0.0
Zn113 Zn 0.07543 0.34553 0.36149 0.0
O114 O 0.04454 0.32339 0.36766 0.0
O115 O 0.04479 0.29378 0.3712 0.0
O116 O 0.07384 0.37197 0.35862 0.0
O117 O 0.08284 0.3102 0.33226 0.0
O118 O 0.08384 0.34064 0.33093 0.0
C119 C 0.03497 0.30377 0.37171 0.0
C120 C 0.10512 0.34265 0.39707 0.0
O121 O 0.09735 0.35307 0.38858 0.0
O122 O 0.09916 0.32402 0.38869 0.0
C123 C 0.06339 0.37639 0.37155 0.0
O124 O 0.05493 0.36435 0.38784 0.0
C125 C 0.0858 0.32587 0.32171 0.0
Zn126 Zn 0.71582 0.95743 0.38781 0.0
Zn127 Zn 0.67741 0.95444 0.38088 0.0
O128 O 0.70037 0.98659 0.38755 0.0
O129 O 0.73199 0.98975 0.39069 0.0
O130 O 0.65082 0.95544 0.37223 0.0
O131 O 0.71078 0.94112 0.35836 0.0
O132 O 0.67994 0.93948 0.35287 0.0
C133 C 0.72082 0.99833 0.39075 0.0
C134 C 0.68506 0.93485 0.4203 0.0
O135 O 0.67187 0.93756 0.4084 0.0
O136 O 0.70398 0.9419 0.41496 0.0
C137 C 0.64897 0.97052 0.38064 0.0
O138 O 0.66287 0.98351 0.39705 0.0
C139 C 0.69367 0.9353 0.34621 0.0
Zn140 Zn 0.06107 0.77218 0.36287 0.0
Zn141 Zn 0.05086 0.73251 0.35105 0.0
O142 O 0.02163 0.72766 0.35913 0.0
O143 O 0.0306 0.76056 0.37009 0.0
O144 O 0.0438 0.70281 0.34048 0.0
O145 O 0.06991 0.78188 0.33298 0.0
O146 O 0.06332 0.7495 0.32378 0.0
C147 C 0.01656 0.74066 0.36701 0.0
C148 C 0.08399 0.75874 0.3908 0.0
O149 O 0.07246 0.7411 0.37871 0.0
O150 O 0.08279 0.7749 0.38675 0.0
C151 C 0.05909 0.69992 0.33688 0.0
O152 O 0.07905 0.71628 0.34057 0.0
C153 C 0.06978 0.76858 0.31893 0.0
Zn154 Zn 0.28224 0.36874 0.37926 0.0
Zn155 Zn 0.27473 0.32858 0.37937 0.0
O156 O 0.30619 0.34762 0.3732 0.0
O157 O 0.31375 0.38089 0.37529 0.0
O158 O 0.27399 0.30118 0.38312 0.0
O159 O 0.27216 0.367 0.40978 0.0
O160 O 0.26661 0.33446 0.40943 0.0
C161 C 0.31961 0.36757 0.37225 0.0
C162 C 0.25119 0.33752 0.34334 0.0
O163 O 0.25382 0.32365 0.3525 0.0
O164 O 0.26119 0.35689 0.35162 0.0
C165 C 0.27426 0.28895 0.36788 0.0
O166 O 0.27222 0.29239 0.34717 0.0
C167 C 0.26634 0.35001 0.41926 0.0
Zn168 Zn 0.288 0.04845 0.68214 0.0
Zn169 Zn 0.32372 0.04721 0.689 0.0
O170 O 0.30024 0.01625 0.67776 0.0
O171 O 0.27124 0.01745 0.66946 0.0
O172 O 0.348 0.04312 0.69874 0.0
O173 O 0.28848 0.05663 0.7143 0.0
O174 O 0.32021 0.05998 0.71808 0.0
C175 C 0.28059 0.00701 0.67004 0.0
C176 C 0.32346 0.07678 0.65647 0.0
O177 O 0.33313 0.0679 0.6644 0.0
O178 O 0.30519 0.07188 0.66231 0.0
C179 C 0.36813 0.05545 0.69771 0.0
O180 O 0.37542 0.07349 0.68833 0.0
C181 C 0.30568 0.06213 0.72611 0.0
Zn182 Zn 0.9593 0.23851 0.72861 0.0
Zn183 Zn 0.95962 0.27499 0.73376 0.0
O184 O 0.99091 0.2853 0.72748 0.0
O185 O 0.99007 0.25505 0.72142 0.0
O186 O 0.96097 0.30287 0.74083 0.0
O187 O 0.952 0.23162 0.75963 0.0
O188 O 0.94857 0.2597 0.76204 0.0
C189 C 0.00024 0.27535 0.72225 0.0
C190 C 0.92986 0.24101 0.69672 0.0
O191 O 0.9381 0.2599 0.70613 0.0
O192 O 0.93556 0.22858 0.70386 0.0
C193 C 0.95251 0.31082 0.72887 0.0
O194 O 0.94182 0.3006 0.70982 0.0
C195 C 0.94699 0.24332 0.7703 0.0
Zn196 Zn 0.72493 0.62866 0.69253 0.0
Zn197 Zn 0.72302 0.66402 0.69 0.0
O198 O 0.69255 0.64126 0.69729 0.0
O199 O 0.69491 0.613 0.70225 0.0
O200 O 0.7211 0.69024 0.68623 0.0
O201 O 0.72926 0.6278 0.66024 0.0
O202 O 0.73199 0.65916 0.65972 0.0
C203 C 0.68417 0.62205 0.70255 0.0
C204 C 0.75501 0.66373 0.72438 0.0
O205 O 0.74554 0.67281 0.71653 0.0
O206 O 0.75015 0.64542 0.71599 0.0
C207 C 0.70823 0.69386 0.69595 0.0
O208 O 0.69606 0.68053 0.70991 0.0
C209 C 0.73286 0.64387 0.65009 0.0
Zn210 Zn 0.38109 0.28548 0.72045 0.0
Zn211 Zn 0.34451 0.2857 0.71353 0.0
O212 O 0.36849 0.31719 0.72184 0.0
O213 O 0.39897 0.31791 0.72343 0.0
O214 O 0.31922 0.28882 0.70484 0.0
O215 O 0.37532 0.26897 0.69093 0.0
O216 O 0.3467 0.27129 0.68487 0.0
C217 C 0.38899 0.3277 0.72451 0.0
C218 C 0.34935 0.2636 0.75221 0.0
O219 O 0.33708 0.26745 0.7402 0.0
O220 O 0.36828 0.26996 0.74733 0.0
C221 C 0.32314 0.3029 0.69131 0.0
O222 O 0.34241 0.31355 0.68432 0.0
C223 C 0.3592 0.26538 0.67834 0.0
Zn224 Zn 0.70979 0.10189 0.6852 0.0
Zn225 Zn 0.70569 0.06459 0.67292 0.0
O226 O 0.67482 0.05672 0.67896 0.0
O227 O 0.67798 0.08797 0.68627 0.0
O228 O 0.70114 0.03571 0.66297 0.0
O229 O 0.72292 0.11408 0.6575 0.0
O230 O 0.7192 0.08314 0.64684 0.0
C231 C 0.66638 0.06769 0.68363 0.0
C232 C 0.73337 0.09036 0.71536 0.0
O233 O 0.72645 0.07425 0.70124 0.0
O234 O 0.72825 0.10419 0.71241 0.0
C235 C 0.69177 0.02035 0.67516 0.0
O236 O 0.68564 0.02389 0.69388 0.0
C237 C 0.72513 0.10243 0.64332 0.0
Zn238 Zn 0.93854 0.70437 0.70883 0.0
Zn239 Zn 0.93667 0.66667 0.70562 0.0
O240 O 0.96783 0.68955 0.70051 0.0
O241 O 0.96884 0.72003 0.70003 0.0
O242 O 0.93759 0.63948 0.70632 0.0
O243 O 0.93334 0.70165 0.74087 0.0
O244 O 0.92725 0.66888 0.73642 0.0
C245 C 0.97803 0.70955 0.69796 0.0
C246 C 0.90705 0.67316 0.67422 0.0
O247 O 0.91485 0.66178 0.67956 0.0
O248 O 0.91362 0.69105 0.68496 0.0
C249 C 0.95223 0.63772 0.69802 0.0
O250 O 0.96598 0.65301 0.68662 0.0
C251 C 0.92769 0.68383 0.74841 0.0
H252 H 0.13211 0.32962 0.99131 0.0
H253 H 0.28692 0.31943 0.17517 0.0
H254 H 0.1479 0.3551 0.12629 0.0
H255 H 0.12194 0.36092 0.10618 0.0
H256 H 0.08325 0.29307 0.08451 0.0
H257 H 0.11018 0.28779 0.10387 0.0
H258 H 0.16328 0.35077 0.08495 0.0
H259 H 0.1516 0.34808 0.04591 0.0
H260 H 0.13776 0.28298 0.03851 0.0
H261 H 0.14918 0.28579 0.07771 0.0
H262 H 0.20314 0.35696 0.09336 0.0
H263 H 0.23281 0.36775 0.07061 0.0
H264 H 0.23001 0.30821 0.07983 0.0
H265 H 0.19898 0.29678 0.10119 0.0
H266 H 0.22613 0.35929 0.14609 0.0
H267 H 0.26142 0.36514 0.15847 0.0
H268 H 0.23277 0.29642 0.15823 0.0
H269 H 0.19764 0.29086 0.14576 0.0
H270 H 0.18951 0.35548 0.18174 0.0
H271 H 0.20315 0.36088 0.22025 0.0
H272 H 0.1912 0.29635 0.21626 0.0
H273 H 0.17533 0.29047 0.1782 0.0
H274 H 0.15432 0.35182 0.16888 0.0
H275 H 0.1373 0.34965 0.20275 0.0
H276 H 0.1053 0.28035 0.19497 0.0
H277 H 0.12358 0.28295 0.16194 0.0
O278 O 0.13675 0.33036 0.00669 0.0
O279 O 0.13023 0.29709 0.00368 0.0
O280 O 0.28713 0.35278 0.17006 0.0
O281 O 0.27318 0.3176 0.17027 0.0
C282 C 0.14945 0.31916 0.12388 0.0
C283 C 0.16307 0.31959 0.10808 0.0
C284 C 0.18265 0.32116 0.11496 0.0
C285 C 0.18813 0.32129 0.1376 0.0
C286 C 0.17422 0.32013 0.15332 0.0
C287 C 0.1549 0.31917 0.14645 0.0
C288 C 0.13085 0.32102 0.11663 0.0
C289 C 0.13347 0.34139 0.11775 0.0
C290 C 0.11856 0.34467 0.10614 0.0
C291 C 0.1005 0.32752 0.0934 0.0
C292 C 0.0972 0.30678 0.09365 0.0
C293 C 0.11234 0.3036 0.10503 0.0
C294 C 0.15683 0.31838 0.08419 0.0
C295 C 0.15759 0.3359 0.0749 0.0
C296 C 0.15098 0.33434 0.05257 0.0
C297 C 0.14366 0.31528 0.0391 0.0
C298 C 0.14325 0.29787 0.04844 0.0
C299 C 0.1498 0.29944 0.07079 0.0
C300 C 0.19892 0.32612 0.09901 0.0
C301 C 0.20849 0.34595 0.08993 0.0
C302 C 0.22571 0.35224 0.0772 0.0
C303 C 0.23417 0.33908 0.07377 0.0
C304 C 0.2239 0.31873 0.08205 0.0
C305 C 0.2063 0.31225 0.09445 0.0
C306 C 0.20942 0.32468 0.1451 0.0
C307 C 0.22756 0.34556 0.14874 0.0
C308 C 0.24766 0.34883 0.1558 0.0
C309 C 0.24991 0.33123 0.15936 0.0
C310 C 0.23162 0.31032 0.15567 0.0
C311 C 0.21154 0.30708 0.14859 0.0
C312 C 0.18126 0.32255 0.17721 0.0
C313 C 0.18925 0.34231 0.18938 0.0
C314 C 0.19746 0.34546 0.21136 0.0
C315 C 0.19878 0.32922 0.22146 0.0
C316 C 0.19032 0.30921 0.20926 0.0
C317 C 0.18144 0.30586 0.18739 0.0
C318 C 0.14034 0.31755 0.16315 0.0
C319 C 0.14324 0.33617 0.17427 0.0
C320 C 0.13342 0.33485 0.19363 0.0
C321 C 0.12023 0.31483 0.20193 0.0
C322 C 0.11586 0.29609 0.18948 0.0
C323 C 0.12602 0.29747 0.1704 0.0
C324 C 0.13647 0.31362 0.01543 0.0
C325 C 0.27122 0.33461 0.16688 0.0
H326 H 0.62525 0.78961 0.00141 0.0
H327 H 0.72394 0.98324 0.16625 0.0
H328 H 0.63238 0.78876 0.11732 0.0
H329 H 0.62353 0.7524 0.10594 0.0
H330 H 0.68816 0.77009 0.12902 0.0
H331 H 0.69708 0.80669 0.13996 0.0
H332 H 0.63267 0.82264 0.09269 0.0
H333 H 0.62368 0.8082 0.05401 0.0
H334 H 0.68535 0.81341 0.05366 0.0
H335 H 0.69423 0.82806 0.09229 0.0
H336 H 0.64128 0.86352 0.12606 0.0
H337 H 0.6335 0.88502 0.10278 0.0
H338 H 0.6841 0.89405 0.06273 0.0
H339 H 0.69286 0.87368 0.08752 0.0
H340 H 0.65784 0.87765 0.17085 0.0
H341 H 0.66715 0.91444 0.18068 0.0
H342 H 0.72382 0.93856 0.14522 0.0
H343 H 0.71447 0.90169 0.13575 0.0
H344 H 0.65234 0.83954 0.19394 0.0
H345 H 0.65828 0.85475 0.23205 0.0
H346 H 0.72508 0.89997 0.22308 0.0
H347 H 0.7191 0.88416 0.1851 0.0
H348 H 0.63996 0.79579 0.1679 0.0
H349 H 0.63487 0.77712 0.20124 0.0
H350 H 0.70299 0.81761 0.22173 0.0
H351 H 0.7081 0.83581 0.18774 0.0
O352 O 0.62917 0.79542 0.01669 0.0
O353 O 0.66102 0.79832 0.01741 0.0
O354 O 0.6906 0.95531 0.18072 0.0
O355 O 0.7199 0.96853 0.16264 0.0
C356 C 0.67097 0.82279 0.1352 0.0
C357 C 0.66965 0.83523 0.11874 0.0
C358 C 0.67339 0.85583 0.12474 0.0
C359 C 0.68011 0.86469 0.14687 0.0
C360 C 0.68117 0.85225 0.16333 0.0
C361 C 0.6763 0.83115 0.15758 0.0
C362 C 0.66548 0.80049 0.12915 0.0
C363 C 0.64469 0.78486 0.11974 0.0
C364 C 0.63965 0.76411 0.1133 0.0
C365 C 0.6552 0.75849 0.11648 0.0
C366 C 0.67584 0.77399 0.12647 0.0
C367 C 0.68097 0.79486 0.13267 0.0
C368 C 0.66417 0.82655 0.09523 0.0
C369 C 0.64428 0.8208 0.08418 0.0
C370 C 0.63915 0.81248 0.06211 0.0
C371 C 0.65381 0.80968 0.05072 0.0
C372 C 0.6737 0.81539 0.06192 0.0
C373 C 0.67882 0.82375 0.08398 0.0
C374 C 0.66781 0.86725 0.10868 0.0
C375 C 0.65072 0.87016 0.11226 0.0
C376 C 0.64608 0.88224 0.09864 0.0
C377 C 0.65806 0.8913 0.08065 0.0
C378 C 0.67472 0.88763 0.07658 0.0
C379 C 0.67964 0.87582 0.09058 0.0
C380 C 0.68562 0.88703 0.15281 0.0
C381 C 0.67236 0.89091 0.16539 0.0
C382 C 0.67767 0.91194 0.1709 0.0
C383 C 0.69628 0.92946 0.16378 0.0
C384 C 0.70941 0.92546 0.15101 0.0
C385 C 0.70411 0.90442 0.14557 0.0
C386 C 0.68533 0.86069 0.18684 0.0
C387 C 0.66833 0.8525 0.20034 0.0
C388 C 0.6717 0.86135 0.22201 0.0
C389 C 0.69211 0.87865 0.23052 0.0
C390 C 0.70923 0.88652 0.21706 0.0
C391 C 0.70585 0.87761 0.19537 0.0
C392 C 0.67438 0.8172 0.1754 0.0
C393 C 0.65391 0.80017 0.17918 0.0
C394 C 0.651 0.78972 0.19839 0.0
C395 C 0.66847 0.79621 0.2143 0.0
C396 C 0.68924 0.81226 0.20977 0.0
C397 C 0.69217 0.82267 0.19041 0.0
C398 C 0.6483 0.80081 0.02729 0.0
C399 C 0.70201 0.95183 0.1696 0.0
H400 H 0.1373 0.85905 0.00314 0.0
H401 H 0.31073 0.98328 0.19306 0.0
H402 H 0.11853 0.84235 0.11342 0.0
H403 H 0.09758 0.80611 0.09385 0.0
H404 H 0.13781 0.78846 0.12994 0.0
H405 H 0.15887 0.82442 0.14861 0.0
H406 H 0.15955 0.89253 0.09596 0.0
H407 H 0.14942 0.88353 0.05624 0.0
H408 H 0.15827 0.82982 0.0598 0.0
H409 H 0.16866 0.83915 0.09939 0.0
H410 H 0.21308 0.93266 0.12173 0.0
H411 H 0.2444 0.94929 0.10031 0.0
H412 H 0.23626 0.88696 0.08593 0.0
H413 H 0.20719 0.87135 0.10939 0.0
H414 H 0.2038 0.93458 0.17477 0.0
H415 H 0.23861 0.96615 0.18908 0.0
H416 H 0.27045 0.93308 0.16952 0.0
H417 H 0.23554 0.90158 0.15548 0.0
H418 H 0.16754 0.89851 0.2042 0.0
H419 H 0.17672 0.9 0.24412 0.0
H420 H 0.2202 0.8789 0.22975 0.0
H421 H 0.21117 0.87756 0.19031 0.0
H422 H 0.12388 0.8603 0.17219 0.0
H423 H 0.10176 0.8409 0.20159 0.0
H424 H 0.14549 0.81985 0.21919 0.0
H425 H 0.1672 0.83892 0.18953 0.0
O426 O 0.14145 0.86237 0.01885 0.0
O427 O 0.14615 0.83492 0.02158 0.0
O428 O 0.2796 0.98729 0.19736 0.0
O429 O 0.29676 0.97102 0.18756 0.0
C430 C 0.15663 0.8587 0.14002 0.0
C431 C 0.17056 0.87205 0.1248 0.0
C432 C 0.19066 0.89061 0.1325 0.0
C433 C 0.19596 0.8968 0.15541 0.0
C434 C 0.18152 0.88408 0.17053 0.0
C435 C 0.16186 0.86504 0.16283 0.0
C436 C 0.14019 0.836 0.1325 0.0
C437 C 0.12233 0.8304 0.11752 0.0
C438 C 0.11049 0.8098 0.10632 0.0
C439 C 0.11646 0.79474 0.11008 0.0
C440 C 0.13317 0.79993 0.1264 0.0
C441 C 0.14497 0.82036 0.13741 0.0
C442 C 0.16455 0.86634 0.10064 0.0
C443 C 0.15928 0.87882 0.08813 0.0
C444 C 0.15349 0.87364 0.06544 0.0
C445 C 0.15293 0.85589 0.05485 0.0
C446 C 0.15844 0.84353 0.06744 0.0
C447 C 0.16429 0.84878 0.09009 0.0
C448 C 0.20767 0.90072 0.11705 0.0
C449 C 0.21814 0.92269 0.11389 0.0
C450 C 0.23593 0.93211 0.10146 0.0
C451 C 0.2432 0.91958 0.09158 0.0
C452 C 0.23173 0.89736 0.09379 0.0
C453 C 0.21462 0.88821 0.1068 0.0
C454 C 0.21719 0.91593 0.16386 0.0
C455 C 0.21833 0.93423 0.17357 0.0
C456 C 0.23822 0.95222 0.18172 0.0
C457 C 0.25734 0.95217 0.18036 0.0
C458 C 0.25608 0.9337 0.17075 0.0
C459 C 0.23617 0.91571 0.16265 0.0
C460 C 0.18884 0.88809 0.19442 0.0
C461 C 0.17936 0.89465 0.20977 0.0
C462 C 0.18454 0.89544 0.23243 0.0
C463 C 0.19896 0.88934 0.23984 0.0
C464 C 0.20888 0.88347 0.22439 0.0
C465 C 0.20392 0.88292 0.20191 0.0
C466 C 0.14721 0.85116 0.17886 0.0
C467 C 0.12844 0.85119 0.18217 0.0
C468 C 0.11594 0.84023 0.19903 0.0
C469 C 0.12197 0.82896 0.2128 0.0
C470 C 0.14029 0.82819 0.20876 0.0
C471 C 0.15279 0.83919 0.19193 0.0
C472 C 0.14666 0.85036 0.03078 0.0
C473 C 0.27851 0.97125 0.18896 0.0
H474 H 0.32757 0.1974 0.07347 0.0
H475 H 0.30916 0.02409 0.9156 0.0
H476 H 0.30037 0.1852 0.95548 0.0
H477 H 0.30898 0.22181 0.96522 0.0
H478 H 0.37067 0.24716 0.93913 0.0
H479 H 0.36191 0.2105 0.92946 0.0
H480 H 0.29797 0.14845 0.987 0.0
H481 H 0.30436 0.16454 0.02483 0.0
H482 H 0.36964 0.21237 0.01311 0.0
H483 H 0.3631 0.19596 0.9754 0.0
H484 H 0.29376 0.10355 0.96954 0.0
H485 H 0.30297 0.08253 0.99281 0.0
H486 H 0.37007 0.13344 0.99752 0.0
H487 H 0.36083 0.15393 0.97371 0.0
H488 H 0.27858 0.09538 0.9153 0.0
H489 H 0.26967 0.05831 0.90868 0.0
H490 H 0.33594 0.07905 0.92846 0.0
H491 H 0.34469 0.11606 0.93468 0.0
H492 H 0.28606 0.1339 0.87952 0.0
H493 H 0.28027 0.11735 0.84206 0.0
H494 H 0.33543 0.11117 0.85587 0.0
H495 H 0.34217 0.12956 0.89228 0.0
H496 H 0.29883 0.18052 0.89994 0.0
H497 H 0.30632 0.20356 0.8694 0.0
H498 H 0.3617 0.19907 0.8582 0.0
H499 H 0.35459 0.17693 0.88897 0.0
O500 O 0.32543 0.19122 0.05847 0.0
O501 O 0.35883 0.21548 0.05159 0.0
O502 O 0.27844 0.02881 0.90773 0.0
O503 O 0.31226 0.03861 0.91799 0.0
C504 C 0.32587 0.17299 0.93742 0.0
C505 C 0.32585 0.16139 0.9554 0.0
C506 C 0.3223 0.14059 0.95152 0.0
C507 C 0.3174 0.13081 0.92972 0.0
C508 C 0.31778 0.14248 0.91171 0.0
C509 C 0.32252 0.16378 0.91555 0.0
C510 C 0.33047 0.19519 0.94169 0.0
C511 C 0.31566 0.19868 0.95171 0.0
C512 C 0.32065 0.21958 0.95736 0.0
C513 C 0.34054 0.23739 0.95302 0.0
C514 C 0.35512 0.23381 0.94247 0.0
C515 C 0.35016 0.21289 0.93694 0.0
C516 C 0.33001 0.17114 0.97842 0.0
C517 C 0.31365 0.16237 0.99266 0.0
C518 C 0.31734 0.17162 0.01425 0.0
C519 C 0.33749 0.1898 0.02198 0.0
C520 C 0.35391 0.19843 0.00767 0.0
C521 C 0.35021 0.18913 0.98611 0.0
C522 C 0.32665 0.13018 0.96978 0.0
C523 C 0.31036 0.11035 0.97607 0.0
C524 C 0.31565 0.0984 0.98939 0.0
C525 C 0.33731 0.10619 0.99668 0.0
C526 C 0.35331 0.12683 0.99179 0.0
C527 C 0.34803 0.13868 0.97843 0.0
C528 C 0.31221 0.10836 0.92565 0.0
C529 C 0.29114 0.09187 0.91816 0.0
C530 C 0.2861 0.07073 0.91442 0.0
C531 C 0.30209 0.06571 0.91811 0.0
C532 C 0.32323 0.08234 0.92551 0.0
C533 C 0.32826 0.10348 0.92916 0.0
C534 C 0.31437 0.13269 0.88876 0.0
C535 C 0.29702 0.12919 0.87427 0.0
C536 C 0.2936 0.11946 0.85294 0.0
C537 C 0.30725 0.11267 0.84581 0.0
C538 C 0.32472 0.11641 0.86045 0.0
C539 C 0.32843 0.12663 0.8815 0.0
C540 C 0.32619 0.17709 0.89668 0.0
C541 C 0.31257 0.1846 0.89086 0.0
C542 C 0.31679 0.19761 0.87335 0.0
C543 C 0.33471 0.2033 0.86149 0.0
C544 C 0.34801 0.19536 0.86723 0.0
C545 C 0.34387 0.18253 0.88469 0.0
C546 C 0.34132 0.19966 0.04488 0.0
C547 C 0.2968 0.04325 0.91427 0.0
H548 H 0.82782 0.15071 0.07043 0.0
H549 H 0.70749 0.00184 0.86501 0.0
H550 H 0.83142 0.17156 0.94381 0.0
H551 H 0.85228 0.20651 0.96463 0.0
H552 H 0.90547 0.19698 0.97638 0.0
H553 H 0.8843 0.16177 0.95463 0.0
H554 H 0.80637 0.14046 0.97498 0.0
H555 H 0.81093 0.14655 0.01523 0.0
H556 H 0.8581 0.12787 0.01752 0.0
H557 H 0.85321 0.12167 0.97723 0.0
H558 H 0.77213 0.11026 0.93916 0.0
H559 H 0.74322 0.09232 0.96301 0.0
H560 H 0.77378 0.0605 0.99071 0.0
H561 H 0.80289 0.07856 0.96637 0.0
H562 H 0.77248 0.10726 0.89216 0.0
H563 H 0.73875 0.07712 0.87369 0.0
H564 H 0.75739 0.0331 0.89479 0.0
H565 H 0.79118 0.06342 0.91298 0.0
H566 H 0.81912 0.15154 0.88073 0.0
H567 H 0.8052 0.14905 0.843 0.0
H568 H 0.79435 0.08527 0.8321 0.0
H569 H 0.81085 0.08905 0.86944 0.0
H570 H 0.85558 0.1817 0.90761 0.0
H571 H 0.88353 0.20472 0.88471 0.0
H572 H 0.88974 0.15122 0.86359 0.0
H573 H 0.86326 0.12899 0.88821 0.0
O574 O 0.82622 0.14815 0.05453 0.0
O575 O 0.85041 0.13848 0.05479 0.0
O576 O 0.7119 0.03736 0.8617 0.0
O577 O 0.7207 0.01405 0.87218 0.0
C578 C 0.84211 0.14243 0.93647 0.0
C579 C 0.82661 0.12675 0.94883 0.0
C580 C 0.80789 0.10864 0.938 0.0
C581 C 0.80496 0.10583 0.91473 0.0
C582 C 0.821 0.12103 0.90223 0.0
C583 C 0.84 0.139 0.91323 0.0
C584 C 0.85647 0.16432 0.94752 0.0
C585 C 0.84768 0.17712 0.95066 0.0
C586 C 0.85954 0.19697 0.96282 0.0
C587 C 0.88041 0.20439 0.97251 0.0
C588 C 0.88943 0.1917 0.96906 0.0
C589 C 0.87746 0.17167 0.95665 0.0
C590 C 0.82927 0.13037 0.97327 0.0
C591 C 0.81754 0.13753 0.98424 0.0
C592 C 0.82025 0.14107 0.00722 0.0
C593 C 0.83484 0.13764 0.01961 0.0
C594 C 0.84669 0.13061 0.00848 0.0
C595 C 0.84393 0.12705 0.9855 0.0
C596 C 0.78945 0.09553 0.95091 0.0
C597 C 0.77241 0.09911 0.95006 0.0
C598 C 0.75609 0.08909 0.96389 0.0
C599 C 0.75649 0.07529 0.9789 0.0
C600 C 0.77318 0.0711 0.97927 0.0
C601 C 0.7897 0.08131 0.96542 0.0
C602 C 0.78438 0.08752 0.90366 0.0
C603 C 0.76929 0.0911 0.89265 0.0
C604 C 0.75002 0.07386 0.88218 0.0
C605 C 0.7454 0.05269 0.8827 0.0
C606 C 0.76046 0.04918 0.894 0.0
C607 C 0.77976 0.06646 0.90442 0.0
C608 C 0.81599 0.12046 0.87804 0.0
C609 C 0.81465 0.13739 0.86998 0.0
C610 C 0.80615 0.13569 0.84844 0.0
C611 C 0.79786 0.11663 0.83462 0.0
C612 C 0.8005 0.10019 0.8422 0.0
C613 C 0.80978 0.10224 0.86364 0.0
C614 C 0.85773 0.15374 0.90017 0.0
C615 C 0.8636 0.17518 0.89881 0.0
C616 C 0.8793 0.18823 0.88522 0.0
C617 C 0.88903 0.17994 0.87218 0.0
C618 C 0.8831 0.15844 0.8737 0.0
C619 C 0.86776 0.14558 0.88765 0.0
C620 C 0.83769 0.14142 0.04402 0.0
C621 C 0.72497 0.03431 0.87154 0.0
H622 H 0.86248 0.68814 0.07868 0.0
H623 H 0.70513 0.64568 0.87768 0.0
H624 H 0.89361 0.71016 0.95863 0.0
H625 H 0.92273 0.70633 0.97531 0.0
H626 H 0.88341 0.63768 0.9589 0.0
H627 H 0.85458 0.64168 0.94233 0.0
H628 H 0.84998 0.70596 0.98829 0.0
H629 H 0.85668 0.70461 0.02781 0.0
H630 H 0.84107 0.63921 0.01545 0.0
H631 H 0.8342 0.64073 0.97604 0.0
H632 H 0.79857 0.69337 0.96259 0.0
H633 H 0.76521 0.67695 0.98099 0.0
H634 H 0.76495 0.61783 0.98108 0.0
H635 H 0.79709 0.63378 0.96147 0.0
H636 H 0.80859 0.70827 0.91669 0.0
H637 H 0.775 0.70461 0.90145 0.0
H638 H 0.74388 0.63543 0.89751 0.0
H639 H 0.77765 0.63936 0.91264 0.0
H640 H 0.83745 0.71382 0.88768 0.0
H641 H 0.82894 0.71303 0.84795 0.0
H642 H 0.80713 0.6455 0.84054 0.0
H643 H 0.81614 0.64668 0.87994 0.0
H644 H 0.87721 0.71731 0.89979 0.0
H645 H 0.89874 0.72117 0.86939 0.0
H646 H 0.88262 0.65559 0.87297 0.0
H647 H 0.85963 0.65148 0.90217 0.0
O648 O 0.8597 0.68831 0.06299 0.0
O649 O 0.85158 0.65474 0.05575 0.0
O650 O 0.73536 0.68323 0.8861 0.0
O651 O 0.7186 0.64759 0.88373 0.0
C652 C 0.85367 0.67791 0.94105 0.0
C653 C 0.83797 0.67474 0.95539 0.0
C654 C 0.81875 0.67323 0.94712 0.0
C655 C 0.81591 0.67641 0.9248 0.0
C656 C 0.83192 0.6803 0.91063 0.0
C657 C 0.85076 0.68091 0.9187 0.0
C658 C 0.87212 0.67621 0.94922 0.0
C659 C 0.89148 0.69438 0.95843 0.0
C660 C 0.908 0.69214 0.96795 0.0
C661 C 0.90521 0.67167 0.96856 0.0
C662 C 0.88588 0.65359 0.95896 0.0
C663 C 0.86952 0.65587 0.94931 0.0
C664 C 0.84184 0.67355 0.97931 0.0
C665 C 0.84803 0.69138 0.99418 0.0
C666 C 0.85186 0.69055 0.01673 0.0
C667 C 0.8495 0.67183 0.02479 0.0
C668 C 0.84313 0.65392 0.00979 0.0
C669 C 0.83929 0.65477 0.98726 0.0
C670 C 0.80028 0.66478 0.96075 0.0
C671 C 0.7913 0.67693 0.96674 0.0
C672 C 0.77236 0.66757 0.97738 0.0
C673 C 0.76227 0.64599 0.9823 0.0
C674 C 0.77199 0.63432 0.97714 0.0
C675 C 0.79059 0.64352 0.96623 0.0
C676 C 0.79547 0.67408 0.91575 0.0
C677 C 0.79449 0.69236 0.91248 0.0
C678 C 0.77529 0.69021 0.90381 0.0
C679 C 0.75674 0.66971 0.89826 0.0
C680 C 0.75785 0.65144 0.9016 0.0
C681 C 0.77708 0.65362 0.91025 0.0
C682 C 0.82737 0.6803 0.88659 0.0
C683 C 0.83094 0.69894 0.87736 0.0
C684 C 0.82601 0.69842 0.85471 0.0
C685 C 0.81743 0.67922 0.841 0.0
C686 C 0.81411 0.66067 0.85046 0.0
C687 C 0.81906 0.66123 0.873 0.0
C688 C 0.86699 0.68419 0.90331 0.0
C689 C 0.87863 0.70391 0.8942 0.0
C690 C 0.89107 0.70609 0.87688 0.0
C691 C 0.89245 0.68866 0.86853 0.0
C692 C 0.88166 0.66925 0.87861 0.0
C693 C 0.86882 0.66697 0.89564 0.0
C694 C 0.85363 0.67102 0.04875 0.0
C695 C 0.73631 0.66734 0.88901 0.0
H696 H 0.80516 0.69397 0.33023 0.0
H697 H 0.93702 0.63816 0.50025 0.0
H698 H 0.81768 0.70408 0.46332 0.0
H699 H 0.79156 0.71286 0.44908 0.0
H700 H 0.74844 0.64665 0.42358 0.0
H701 H 0.77465 0.63789 0.43839 0.0
H702 H 0.833 0.70194 0.42387 0.0
H703 H 0.8233 0.70493 0.38572 0.0
H704 H 0.8024 0.63842 0.36928 0.0
H705 H 0.81188 0.63557 0.40761 0.0
H706 H 0.86982 0.70184 0.42918 0.0
H707 H 0.89916 0.71204 0.40624 0.0
H708 H 0.89016 0.64898 0.40899 0.0
H709 H 0.85906 0.63819 0.42993 0.0
H710 H 0.89064 0.69427 0.47957 0.0
H711 H 0.92298 0.69348 0.49036 0.0
H712 H 0.88478 0.62399 0.48401 0.0
H713 H 0.85265 0.62506 0.47308 0.0
H714 H 0.85626 0.68986 0.51933 0.0
H715 H 0.86673 0.68618 0.55694 0.0
H716 H 0.83827 0.6181 0.5406 0.0
H717 H 0.82775 0.62198 0.50292 0.0
H718 H 0.81924 0.6962 0.50015 0.0
H719 H 0.80076 0.69662 0.53182 0.0
H720 H 0.77413 0.62836 0.5343 0.0
H721 H 0.79066 0.62787 0.50098 0.0
O722 O 0.80892 0.69244 0.34522 0.0
O723 O 0.79864 0.65826 0.33756 0.0
O724 O 0.94345 0.67469 0.4989 0.0
O725 O 0.92451 0.63895 0.49599 0.0
C726 C 0.81505 0.66588 0.45828 0.0
C727 C 0.82813 0.66632 0.44184 0.0
C728 C 0.846 0.66433 0.44741 0.0
C729 C 0.84985 0.66036 0.46916 0.0
C730 C 0.83621 0.6589 0.48535 0.0
C731 C 0.81906 0.66213 0.48008 0.0
C732 C 0.79778 0.67022 0.45249 0.0
C733 C 0.80224 0.69129 0.45546 0.0
C734 C 0.78739 0.69632 0.44711 0.0
C735 C 0.76795 0.68043 0.43525 0.0
C736 C 0.76335 0.65922 0.43258 0.0
C737 C 0.77815 0.65415 0.4412 0.0
C738 C 0.82289 0.66846 0.41855 0.0
C739 C 0.82615 0.68799 0.41205 0.0
C740 C 0.82069 0.68968 0.39021 0.0
C741 C 0.812 0.67189 0.37445 0.0
C742 C 0.80901 0.65241 0.38101 0.0
C743 C 0.81444 0.65074 0.40286 0.0
C744 C 0.86229 0.66929 0.43139 0.0
C745 C 0.87368 0.68997 0.42423 0.0
C746 C 0.89081 0.69591 0.41144 0.0
C747 C 0.89757 0.68158 0.4062 0.0
C748 C 0.88549 0.66049 0.41258 0.0
C749 C 0.86784 0.65434 0.42483 0.0
C750 C 0.86936 0.65973 0.47564 0.0
C751 C 0.88934 0.67892 0.48053 0.0
C752 C 0.90775 0.6784 0.48668 0.0
C753 C 0.90646 0.65865 0.48808 0.0
C754 C 0.88635 0.63946 0.48314 0.0
C755 C 0.86796 0.64001 0.47695 0.0
C756 C 0.84136 0.65621 0.50844 0.0
C757 C 0.8521 0.67413 0.52396 0.0
C758 C 0.85796 0.67196 0.54544 0.0
C759 C 0.85329 0.65182 0.55173 0.0
C760 C 0.84224 0.63383 0.53617 0.0
C761 C 0.83622 0.636 0.51471 0.0
C762 C 0.80581 0.66191 0.49777 0.0
C763 C 0.80854 0.68117 0.50687 0.0
C764 C 0.79838 0.68143 0.52547 0.0
C765 C 0.78597 0.66256 0.53604 0.0
C766 C 0.78306 0.6432 0.52658 0.0
C767 C 0.79265 0.64286 0.50753 0.0
C768 C 0.8061 0.6737 0.35129 0.0
C769 C 0.92596 0.65801 0.49465 0.0
H770 H 0.31086 0.1145 0.33421 0.0
H771 H 0.36404 0.30418 0.511 0.0
H772 H 0.30962 0.11667 0.47159 0.0
H773 H 0.30393 0.08214 0.45769 0.0
H774 H 0.36686 0.11505 0.43335 0.0
H775 H 0.37214 0.1496 0.44697 0.0
H776 H 0.30654 0.13297 0.42742 0.0
H777 H 0.30229 0.12004 0.38867 0.0
H778 H 0.36576 0.17408 0.3804 0.0
H779 H 0.3699 0.18669 0.41927 0.0
H780 H 0.30371 0.17273 0.43106 0.0
H781 H 0.29292 0.19454 0.41141 0.0
H782 H 0.35789 0.24938 0.42383 0.0
H783 H 0.36873 0.22736 0.443 0.0
H784 H 0.31034 0.19998 0.47572 0.0
H785 H 0.31042 0.23293 0.48443 0.0
H786 H 0.37897 0.26682 0.50366 0.0
H787 H 0.37871 0.23383 0.49453 0.0
H788 H 0.31586 0.18095 0.51862 0.0
H789 H 0.31972 0.19441 0.55708 0.0
H790 H 0.3876 0.21666 0.56141 0.0
H791 H 0.38328 0.20238 0.52314 0.0
H792 H 0.31421 0.14071 0.51452 0.0
H793 H 0.31584 0.12311 0.547 0.0
H794 H 0.38046 0.14013 0.53576 0.0
H795 H 0.37873 0.15798 0.50307 0.0
O796 O 0.31287 0.11992 0.34948 0.0
O797 O 0.34552 0.14807 0.34606 0.0
O798 O 0.32837 0.27283 0.49704 0.0
O799 O 0.36353 0.29089 0.50757 0.0
C800 C 0.34342 0.15643 0.46645 0.0
C801 C 0.34138 0.16828 0.44978 0.0
C802 C 0.34168 0.18729 0.45563 0.0
C803 C 0.34462 0.1948 0.4781 0.0
C804 C 0.34696 0.18315 0.49465 0.0
C805 C 0.34607 0.16381 0.48888 0.0
C806 C 0.34131 0.13558 0.46033 0.0
C807 C 0.32231 0.11636 0.4636 0.0
C808 C 0.31912 0.09666 0.45566 0.0
C809 C 0.33492 0.09582 0.44433 0.0
C810 C 0.35425 0.11515 0.44171 0.0
C811 C 0.35739 0.13487 0.44962 0.0
C812 C 0.33859 0.16066 0.42616 0.0
C813 C 0.31954 0.14193 0.41723 0.0
C814 C 0.31714 0.13461 0.39508 0.0
C815 C 0.33371 0.146 0.38144 0.0
C816 C 0.3527 0.16491 0.39045 0.0
C817 C 0.3551 0.17217 0.41262 0.0
C818 C 0.33696 0.19853 0.43861 0.0
C819 C 0.31583 0.18919 0.42869 0.0
C820 C 0.30966 0.20167 0.41756 0.0
C821 C 0.32452 0.22367 0.41643 0.0
C822 C 0.34611 0.23248 0.42468 0.0
C823 C 0.35234 0.21993 0.43551 0.0
C824 C 0.34454 0.21458 0.4844 0.0
C825 C 0.32535 0.21455 0.48181 0.0
C826 C 0.32544 0.23338 0.48682 0.0
C827 C 0.34473 0.25253 0.4947 0.0
C828 C 0.36386 0.25237 0.4976 0.0
C829 C 0.36376 0.23355 0.49247 0.0
C830 C 0.34931 0.19078 0.51817 0.0
C831 C 0.33151 0.18865 0.52798 0.0
C832 C 0.33381 0.19647 0.54989 0.0
C833 C 0.35402 0.20677 0.56234 0.0
C834 C 0.37176 0.20859 0.55244 0.0
C835 C 0.36938 0.20058 0.53056 0.0
C836 C 0.34641 0.15075 0.50661 0.0
C837 C 0.32864 0.14046 0.51893 0.0
C838 C 0.32965 0.13055 0.53751 0.0
C839 C 0.34842 0.1306 0.54408 0.0
C840 C 0.36584 0.13993 0.53106 0.0
C841 C 0.36487 0.15006 0.51244 0.0
C842 C 0.33113 0.13814 0.35793 0.0
C843 C 0.34495 0.27264 0.49983 0.0
H844 H 0.82891 0.1772 0.33648 0.0
H845 H 0.98684 0.30947 0.53541 0.0
H846 H 0.80092 0.16767 0.44528 0.0
H847 H 0.77887 0.1314 0.42611 0.0
H848 H 0.81321 0.11027 0.46719 0.0
H849 H 0.83555 0.14636 0.48542 0.0
H850 H 0.84371 0.21423 0.42748 0.0
H851 H 0.83685 0.20371 0.3878 0.0
H852 H 0.84472 0.15028 0.39912 0.0
H853 H 0.85187 0.16115 0.43868 0.0
H854 H 0.89407 0.25465 0.45509 0.0
H855 H 0.92685 0.27049 0.43579 0.0
H856 H 0.92183 0.20893 0.43063 0.0
H857 H 0.89066 0.19407 0.4515 0.0
H858 H 0.88117 0.25921 0.50568 0.0
H859 H 0.91482 0.29156 0.52115 0.0
H860 H 0.94855 0.25818 0.51262 0.0
H861 H 0.91476 0.2259 0.49739 0.0
H862 H 0.84483 0.22731 0.53337 0.0
H863 H 0.85477 0.23686 0.57343 0.0
H864 H 0.89614 0.21128 0.5712 0.0
H865 H 0.88638 0.20209 0.53155 0.0
H866 H 0.8001 0.18062 0.5016 0.0
H867 H 0.77473 0.15768 0.52719 0.0
H868 H 0.82125 0.14276 0.55306 0.0
H869 H 0.84618 0.16523 0.52708 0.0
O870 O 0.83177 0.18113 0.35222 0.0
O871 O 0.83589 0.15386 0.35894 0.0
O872 O 0.95522 0.31334 0.53343 0.0
O873 O 0.97332 0.29692 0.52936 0.0
C874 C 0.83678 0.18207 0.47464 0.0
C875 C 0.85198 0.19489 0.46009 0.0
C876 C 0.87156 0.21365 0.4685 0.0
C877 C 0.87504 0.22071 0.49115 0.0
C878 C 0.85949 0.20835 0.50556 0.0
C879 C 0.84049 0.18889 0.49737 0.0
C880 C 0.81979 0.15963 0.46679 0.0
C881 C 0.80322 0.15501 0.45047 0.0
C882 C 0.79073 0.13437 0.43953 0.0
C883 C 0.79469 0.1182 0.44488 0.0
C884 C 0.81014 0.12255 0.46239 0.0
C885 C 0.82265 0.14307 0.47313 0.0
C886 C 0.84798 0.1883 0.436 0.0
C887 C 0.84395 0.20026 0.42135 0.0
C888 C 0.84001 0.1942 0.3987 0.0
C889 C 0.84013 0.17609 0.39029 0.0
C890 C 0.84441 0.16426 0.40504 0.0
C891 C 0.8484 0.17038 0.42767 0.0
C892 C 0.88987 0.22316 0.45458 0.0
C893 C 0.9001 0.24467 0.44969 0.0
C894 C 0.91872 0.25361 0.43851 0.0
C895 C 0.92717 0.24105 0.43181 0.0
C896 C 0.91619 0.21928 0.43596 0.0
C897 C 0.89805 0.21059 0.44755 0.0
C898 C 0.8956 0.24033 0.50022 0.0
C899 C 0.89586 0.25896 0.50714 0.0
C900 C 0.9151 0.27739 0.51597 0.0
C901 C 0.9344 0.27748 0.51806 0.0
C902 C 0.93401 0.25869 0.51119 0.0
C903 C 0.91475 0.24026 0.50241 0.0
C904 C 0.86489 0.214 0.52968 0.0
C905 C 0.85599 0.22379 0.54164 0.0
C906 C 0.8617 0.22925 0.56439 0.0
C907 C 0.87605 0.2246 0.57536 0.0
C908 C 0.8848 0.21474 0.56322 0.0
C909 C 0.87935 0.2096 0.54059 0.0
C910 C 0.8251 0.17488 0.51277 0.0
C911 C 0.80474 0.17235 0.51279 0.0
C912 C 0.79033 0.15929 0.52743 0.0
C913 C 0.79602 0.14846 0.5422 0.0
C914 C 0.81629 0.15071 0.54176 0.0
C915 C 0.83067 0.16378 0.52716 0.0
C916 C 0.83582 0.16962 0.36624 0.0
C917 C 0.95488 0.29702 0.52742 0.0
H918 H 0.03067 0.54578 0.40564 0.0
H919 H 0.02126 0.38709 0.23147 0.0
H920 H 0.98321 0.52644 0.29269 0.0
H921 H 0.98872 0.56134 0.30505 0.0
H922 H 0.04426 0.59284 0.26792 0.0
H923 H 0.03906 0.55793 0.25635 0.0
H924 H 0.9919 0.4942 0.32114 0.0
H925 H 0.00278 0.51103 0.359 0.0
H926 H 0.06171 0.56328 0.33793 0.0
H927 H 0.05074 0.54614 0.30021 0.0
H928 H 0.98998 0.45249 0.30023 0.0
H929 H 0.00468 0.43433 0.3209 0.0
H930 H 0.06919 0.48815 0.31645 0.0
H931 H 0.05436 0.50604 0.29557 0.0
H932 H 0.97062 0.43932 0.24972 0.0
H933 H 0.96905 0.40566 0.2404 0.0
H934 H 0.03869 0.44045 0.24482 0.0
H935 H 0.03999 0.47399 0.25385 0.0
H936 H 0.96178 0.46529 0.21863 0.0
H937 H 0.95269 0.44548 0.18225 0.0
H938 H 0.02049 0.47178 0.17622 0.0
H939 H 0.02918 0.49061 0.21294 0.0
H940 H 0.97045 0.51613 0.23515 0.0
H941 H 0.96809 0.53582 0.20449 0.0
H942 H 0.02911 0.54739 0.18564 0.0
H943 H 0.03158 0.5285 0.2164 0.0
O944 O 0.02672 0.53936 0.39057 0.0
O945 O 0.05673 0.56588 0.37888 0.0
O946 O 0.98564 0.38304 0.23284 0.0
O947 O 0.02141 0.40015 0.23507 0.0
C948 C 0.00873 0.51868 0.26817 0.0
C949 C 0.01367 0.50877 0.28499 0.0
C950 C 0.01283 0.48936 0.27984 0.0
C951 C 0.00624 0.4794 0.25811 0.0
C952 C 0.00146 0.4893 0.24132 0.0
C953 C 0.00309 0.50914 0.2462 0.0
C954 C 0.01066 0.53963 0.27354 0.0
C955 C 0.99642 0.54088 0.28706 0.0
C956 C 0.99955 0.56084 0.29402 0.0
C957 C 0.017 0.57992 0.28755 0.0
C958 C 0.03086 0.5785 0.27346 0.0
C959 C 0.02775 0.55856 0.26659 0.0
C960 C 0.02046 0.51903 0.30794 0.0
C961 C 0.00717 0.50926 0.32477 0.0
C962 C 0.01341 0.51893 0.34636 0.0
C963 C 0.03309 0.53854 0.35149 0.0
C964 C 0.04643 0.54821 0.33455 0.0
C965 C 0.04018 0.53849 0.31298 0.0
C966 C 0.02112 0.48054 0.2964 0.0
C967 C 0.00724 0.46058 0.30427 0.0
C968 C 0.01567 0.45027 0.31608 0.0
C969 C 0.0381 0.45976 0.32009 0.0
C970 C 0.05186 0.48037 0.31337 0.0
C971 C 0.04342 0.49069 0.30166 0.0
C972 C 0.0054 0.45902 0.25256 0.0
C973 C 0.98549 0.4396 0.24863 0.0
C974 C 0.98466 0.42043 0.24334 0.0
C975 C 0.00376 0.42036 0.24191 0.0
C976 C 0.02368 0.43991 0.24582 0.0
C977 C 0.02448 0.45908 0.25103 0.0
C978 C 0.99611 0.47935 0.21832 0.0
C979 C 0.97461 0.46687 0.20928 0.0
C980 C 0.96949 0.45563 0.18848 0.0
C981 C 0.98584 0.45686 0.17632 0.0
C982 C 0.00744 0.47004 0.18526 0.0
C983 C 0.01249 0.48103 0.20612 0.0
C984 C 0.00117 0.52087 0.2279 0.0
C985 C 0.98328 0.52303 0.22438 0.0
C986 C 0.98191 0.53413 0.20684 0.0
C987 C 0.99849 0.5433 0.19275 0.0
C988 C 0.01625 0.54089 0.1964 0.0
C989 C 0.01761 0.52992 0.21384 0.0
C990 C 0.03964 0.54881 0.37443 0.0
C991 C 0.00296 0.40003 0.23633 0.0
H992 H 0.47815 0.49543 0.39622 0.0
H993 H 0.40163 0.32806 0.20371 0.0
H994 H 0.49389 0.50926 0.27903 0.0
H995 H 0.51361 0.54683 0.2932 0.0
H996 H 0.57363 0.54877 0.29156 0.0
H997 H 0.55338 0.5104 0.27839 0.0
H998 H 0.46576 0.47639 0.30049 0.0
H999 H 0.46558 0.48473 0.3397 0.0
H1000 H 0.52277 0.48214 0.35386 0.0
H1001 H 0.52255 0.47346 0.31457 0.0
H1002 H 0.43878 0.44195 0.26104 0.0
H1003 H 0.40903 0.42743 0.28423 0.0
H1004 H 0.44413 0.41054 0.32976 0.0
H1005 H 0.47413 0.42508 0.30618 0.0
H1006 H 0.44488 0.43412 0.21764 0.0
H1007 H 0.4172 0.39899 0.19953 0.0
H1008 H 0.44552 0.36928 0.23639 0.0
H1009 H 0.47328 0.40458 0.2542 0.0
H1010 H 0.48172 0.47859 0.20739 0.0
H1011 H 0.47661 0.47361 0.16733 0.0
H1012 H 0.4933 0.42518 0.16826 0.0
H1013 H 0.49927 0.4309 0.20892 0.0
H1014 H 0.51093 0.51462 0.23176 0.0
H1015 H 0.53388 0.53821 0.20514 0.0
H1016 H 0.56789 0.50455 0.20447 0.0
H1017 H 0.54419 0.48048 0.23033 0.0
O1018 O 0.47851 0.49209 0.38077 0.0
O1019 O 0.50802 0.49075 0.38716 0.0
O1020 O 0.39851 0.35823 0.19199 0.0
O1021 O 0.4124 0.34216 0.2106 0.0
C1022 C 0.50946 0.48432 0.26857 0.0
C1023 C 0.494 0.46858 0.28094 0.0
C1024 C 0.47804 0.44823 0.27049 0.0
C1025 C 0.47824 0.44324 0.24788 0.0
C1026 C 0.49394 0.45889 0.23556 0.0
C1027 C 0.50977 0.47932 0.24604 0.0
C1028 C 0.52217 0.50704 0.27797 0.0
C1029 C 0.51127 0.51766 0.28213 0.0
C1030 C 0.52262 0.53924 0.28992 0.0
C1031 C 0.54524 0.5509 0.29328 0.0
C1032 C 0.55621 0.54019 0.2893 0.0
C1033 C 0.54472 0.51836 0.28169 0.0
C1034 C 0.49399 0.474 0.30474 0.0
C1035 C 0.47812 0.47744 0.3121 0.0
C1036 C 0.47812 0.4823 0.33451 0.0
C1037 C 0.49412 0.48403 0.34994 0.0
C1038 C 0.51017 0.48086 0.34243 0.0
C1039 C 0.5101 0.47591 0.32001 0.0
C1040 C 0.45858 0.4345 0.28187 0.0
C1041 C 0.43979 0.43441 0.27556 0.0
C1042 C 0.42296 0.42641 0.28896 0.0
C1043 C 0.42457 0.41828 0.3089 0.0
C1044 C 0.44263 0.41681 0.31445 0.0
C1045 C 0.45965 0.42497 0.301 0.0
C1046 C 0.46126 0.42192 0.23699 0.0
C1047 C 0.44519 0.42004 0.22163 0.0
C1048 C 0.42934 0.39993 0.21138 0.0
C1049 C 0.42919 0.38132 0.21645 0.0
C1050 C 0.4452 0.38328 0.23206 0.0
C1051 C 0.46107 0.40341 0.24226 0.0
C1052 C 0.49141 0.45553 0.21107 0.0
C1053 C 0.48486 0.4673 0.19901 0.0
C1054 C 0.4819 0.46441 0.17611 0.0
C1055 C 0.48494 0.44928 0.1647 0.0
C1056 C 0.49108 0.43709 0.17672 0.0
C1057 C 0.49448 0.44033 0.19983 0.0
C1058 C 0.52585 0.49579 0.23283 0.0
C1059 C 0.52363 0.51265 0.22615 0.0
C1060 C 0.53682 0.52617 0.211 0.0
C1061 C 0.55258 0.52313 0.20242 0.0
C1062 C 0.5556 0.50704 0.21032 0.0
C1063 C 0.54222 0.49337 0.22523 0.0
C1064 C 0.49405 0.48916 0.37375 0.0
C1065 C 0.41242 0.35993 0.20557 0.0
H1066 H 0.50938 0.969 0.40986 0.0
H1067 H 0.37911 0.99097 0.2138 0.0
H1068 H 0.54653 0.0195 0.31074 0.0
H1069 H 0.57107 0.01124 0.32968 0.0
H1070 H 0.55075 0.95806 0.28049 0.0
H1071 H 0.52431 0.96499 0.26346 0.0
H1072 H 0.51058 0.01334 0.33203 0.0
H1073 H 0.51196 0.00048 0.36808 0.0
H1074 H 0.4908 0.93778 0.33621 0.0
H1075 H 0.48931 0.95084 0.30027 0.0
H1076 H 0.47639 0.01346 0.3196 0.0
H1077 H 0.44654 0.99859 0.34312 0.0
H1078 H 0.41459 0.93874 0.30159 0.0
H1079 H 0.44482 0.95343 0.27898 0.0
H1080 H 0.47284 0.03022 0.27492 0.0
H1081 H 0.44223 0.03337 0.26254 0.0
H1082 H 0.41432 0.97328 0.22203 0.0
H1083 H 0.44492 0.97025 0.23472 0.0
H1084 H 0.5041 0.03945 0.23187 0.0
H1085 H 0.49822 0.04473 0.19302 0.0
H1086 H 0.47373 0.97764 0.17511 0.0
H1087 H 0.47931 0.97253 0.21361 0.0
H1088 H 0.54952 0.03789 0.24931 0.0
H1089 H 0.57128 0.045 0.21812 0.0
H1090 H 0.53292 0.97753 0.19505 0.0
H1091 H 0.51207 0.9706 0.22672 0.0
O1092 O 0.50861 0.97372 0.39543 0.0
O1093 O 0.49775 0.9418 0.37825 0.0
O1094 O 0.40631 0.02084 0.24025 0.0
O1095 O 0.39135 0.99009 0.21903 0.0
C1096 C 0.5153 0.99505 0.27762 0.0
C1097 C 0.49909 0.99084 0.29175 0.0
C1098 C 0.48134 0.99241 0.28443 0.0
C1099 C 0.47979 0.99841 0.26309 0.0
C1100 C 0.49556 0.002 0.24872 0.0
C1101 C 0.51329 0.00025 0.25593 0.0
C1102 C 0.53364 0.99294 0.28563 0.0
C1103 C 0.54758 0.0062 0.30395 0.0
C1104 C 0.5618 0.00148 0.31469 0.0
C1105 C 0.56302 0.98378 0.30687 0.0
C1106 C 0.54999 0.97144 0.28752 0.0
C1107 C 0.5352 0.97573 0.27728 0.0
C1108 C 0.49972 0.98297 0.31362 0.0
C1109 C 0.50609 0.9968 0.33292 0.0
C1110 C 0.50694 0.98942 0.35346 0.0
C1111 C 0.50147 0.96809 0.35503 0.0
C1112 C 0.4951 0.95429 0.33559 0.0
C1113 C 0.49422 0.96169 0.31506 0.0
C1114 C 0.46276 0.98442 0.29776 0.0
C1115 C 0.46291 0.99714 0.31571 0.0
C1116 C 0.44582 0.98865 0.32901 0.0
C1117 C 0.42829 0.96737 0.3244 0.0
C1118 C 0.42805 0.95498 0.30597 0.0
C1119 C 0.44517 0.9634 0.29286 0.0
C1120 C 0.46114 0.00012 0.25555 0.0
C1121 C 0.46008 0.01777 0.26338 0.0
C1122 C 0.4426 0.01953 0.25627 0.0
C1123 C 0.42585 0.0036 0.24122 0.0
C1124 C 0.42696 0.98585 0.23355 0.0
C1125 C 0.44444 0.98411 0.24071 0.0
C1126 C 0.49245 0.00569 0.22542 0.0
C1127 C 0.49757 0.02599 0.21945 0.0
C1128 C 0.49419 0.02896 0.19736 0.0
C1129 C 0.48585 0.01167 0.18101 0.0
C1130 C 0.48066 0.99138 0.18722 0.0
C1131 C 0.48379 0.98841 0.2092 0.0
C1132 C 0.52936 0.00373 0.24032 0.0
C1133 C 0.54639 0.02459 0.23791 0.0
C1134 C 0.55857 0.02863 0.2199 0.0
C1135 C 0.55368 0.01189 0.20385 0.0
C1136 C 0.53738 0.99079 0.20715 0.0
C1137 C 0.5254 0.98677 0.22526 0.0
C1138 C 0.50247 0.96033 0.37688 0.0
C1139 C 0.40729 0.00544 0.23353 0.0
H1140 H 0.48513 0.03296 0.66619 0.0
H1141 H 0.60813 0.98314 0.83839 0.0
H1142 H 0.4834 0.03962 0.79468 0.0
H1143 H 0.45737 0.04719 0.77733 0.0
H1144 H 0.41254 0.97908 0.76127 0.0
H1145 H 0.43861 0.97172 0.77926 0.0
H1146 H 0.51177 0.03851 0.75984 0.0
H1147 H 0.50486 0.0427 0.72117 0.0
H1148 H 0.45961 0.97412 0.70987 0.0
H1149 H 0.46678 0.97021 0.74858 0.0
H1150 H 0.54857 0.03809 0.78269 0.0
H1151 H 0.57585 0.04485 0.75756 0.0
H1152 H 0.53875 0.97811 0.73193 0.0
H1153 H 0.51131 0.97148 0.75733 0.0
H1154 H 0.55215 0.03151 0.83403 0.0
H1155 H 0.58488 0.03211 0.84655 0.0
H1156 H 0.5577 0.96828 0.8143 0.0
H1157 H 0.52496 0.9678 0.80211 0.0
H1158 H 0.51224 0.02988 0.85733 0.0
H1159 H 0.52568 0.03322 0.89552 0.0
H1160 H 0.52213 0.97265 0.88465 0.0
H1161 H 0.50617 0.96833 0.84699 0.0
H1162 H 0.47993 0.03113 0.83734 0.0
H1163 H 0.46019 0.02909 0.86907 0.0
H1164 H 0.43355 0.96055 0.86649 0.0
H1165 H 0.45426 0.96307 0.83555 0.0
O1166 O 0.48769 0.03094 0.68138 0.0
O1167 O 0.46452 0.99562 0.67647 0.0
O1168 O 0.60858 0.0161 0.85003 0.0
O1169 O 0.59538 0.98333 0.83365 0.0
C1170 C 0.47993 0.0012 0.79579 0.0
C1171 C 0.49379 0.00163 0.78037 0.0
C1172 C 0.51195 0.00071 0.78741 0.0
C1173 C 0.51623 0.99915 0.80988 0.0
C1174 C 0.50215 0.99827 0.82536 0.0
C1175 C 0.48382 0.99908 0.8182 0.0
C1176 C 0.46273 0.00513 0.78845 0.0
C1177 C 0.46774 0.02634 0.78788 0.0
C1178 C 0.45297 0.03062 0.77768 0.0
C1179 C 0.43295 0.01375 0.76769 0.0
C1180 C 0.42772 0.99243 0.76896 0.0
C1181 C 0.44253 0.98816 0.77926 0.0
C1182 C 0.4898 0.00407 0.75689 0.0
C1183 C 0.50044 0.02443 0.74893 0.0
C1184 C 0.49643 0.02676 0.72686 0.0
C1185 C 0.48167 0.00874 0.71242 0.0
C1186 C 0.47107 0.98833 0.72054 0.0
C1187 C 0.47513 0.98604 0.74261 0.0
C1188 C 0.52806 0.00434 0.77177 0.0
C1189 C 0.5463 0.02496 0.77158 0.0
C1190 C 0.56175 0.02879 0.75713 0.0
C1191 C 0.5593 0.01203 0.74265 0.0
C1192 C 0.54101 0.99129 0.74293 0.0
C1193 C 0.52538 0.9875 0.75732 0.0
C1194 C 0.53618 0.99957 0.81727 0.0
C1195 C 0.55329 0.01765 0.82976 0.0
C1196 C 0.57197 0.01797 0.83685 0.0
C1197 C 0.5739 0.00022 0.83145 0.0
C1198 C 0.55674 0.98219 0.81877 0.0
C1199 C 0.53804 0.98188 0.81175 0.0
C1200 C 0.50797 0.99876 0.84932 0.0
C1201 C 0.51347 0.01687 0.86342 0.0
C1202 C 0.52171 0.01899 0.8852 0.0
C1203 C 0.5256 0.00348 0.89322 0.0
C1204 C 0.51928 0.9849 0.87927 0.0
C1205 C 0.51031 0.98246 0.85761 0.0
C1206 C 0.46864 0.99727 0.8343 0.0
C1207 C 0.46945 0.01563 0.84337 0.0
C1208 C 0.45811 0.0144 0.86151 0.0
C1209 C 0.44554 0.99471 0.87066 0.0
C1210 C 0.44354 0.97609 0.86032 0.0
C1211 C 0.45515 0.97742 0.84247 0.0
C1212 C 0.47739 0.01128 0.68901 0.0
C1213 C 0.59369 0.00045 0.83897 0.0
H1214 H 0.92499 0.44327 0.67733 0.0
H1215 H 0.02392 0.639 0.84031 0.0
H1216 H 0.94415 0.44414 0.7916 0.0
H1217 H 0.94042 0.41002 0.7792 0.0
H1218 H 0.00845 0.43768 0.7971 0.0
H1219 H 0.01205 0.47177 0.80935 0.0
H1220 H 0.93773 0.47709 0.76932 0.0
H1221 H 0.92632 0.4618 0.73095 0.0
H1222 H 0.98967 0.47256 0.72406 0.0
H1223 H 0.00093 0.48803 0.7624 0.0
H1224 H 0.94675 0.51956 0.80183 0.0
H1225 H 0.93654 0.53962 0.77885 0.0
H1226 H 0.985 0.54886 0.73554 0.0
H1227 H 0.99623 0.5301 0.7599 0.0
H1228 H 0.96541 0.53303 0.8472 0.0
H1229 H 0.97267 0.56896 0.85778 0.0
H1230 H 0.02582 0.59616 0.81709 0.0
H1231 H 0.01857 0.56015 0.8069 0.0
H1232 H 0.96699 0.499 0.87115 0.0
H1233 H 0.97724 0.51723 0.90846 0.0
H1234 H 0.04062 0.56281 0.88988 0.0
H1235 H 0.03035 0.54421 0.85279 0.0
H1236 H 0.95294 0.45301 0.84074 0.0
H1237 H 0.95076 0.43275 0.87211 0.0
H1238 H 0.01862 0.47708 0.89133 0.0
H1239 H 0.0209 0.49678 0.85903 0.0
O1240 O 0.92987 0.44944 0.69244 0.0
O1241 O 0.96266 0.45523 0.6898 0.0
O1242 O 0.9933 0.60983 0.8572 0.0
O1243 O 0.02072 0.62461 0.83643 0.0
C1244 C 0.98096 0.48152 0.80783 0.0
C1245 C 0.97706 0.49291 0.79191 0.0
C1246 C 0.9795 0.51289 0.7983 0.0
C1247 C 0.98737 0.52221 0.82019 0.0
C1248 C 0.99101 0.51076 0.83614 0.0
C1249 C 0.98713 0.49008 0.83015 0.0
C1250 C 0.97842 0.4605 0.80118 0.0
C1251 C 0.95825 0.44284 0.79275 0.0
C1252 C 0.95616 0.4234 0.78564 0.0
C1253 C 0.97416 0.4212 0.78707 0.0
C1254 C 0.99425 0.43882 0.79595 0.0
C1255 C 0.99635 0.45829 0.80291 0.0
C1256 C 0.97017 0.48374 0.76859 0.0
C1257 C 0.94914 0.47624 0.75945 0.0
C1258 C 0.94266 0.46746 0.73755 0.0
C1259 C 0.95709 0.46596 0.72443 0.0
C1260 C 0.97816 0.47348 0.7337 0.0
C1261 C 0.98463 0.4823 0.75558 0.0
C1262 C 0.97238 0.52354 0.78271 0.0
C1263 C 0.95521 0.52598 0.7874 0.0
C1264 C 0.94919 0.53724 0.77399 0.0
C1265 C 0.95986 0.54593 0.75517 0.0
C1266 C 0.97662 0.54276 0.75006 0.0
C1267 C 0.98294 0.53183 0.76382 0.0
C1268 C 0.99159 0.54402 0.82645 0.0
C1269 C 0.97871 0.54678 0.84073 0.0
C1270 C 0.98284 0.56732 0.84667 0.0
C1271 C -0.00013 0.58546 0.83831 0.0
C1272 C 0.01262 0.58256 0.82386 0.0
C1273 C 0.0085 0.56202 0.81798 0.0
C1274 C 0.99795 0.52029 0.85933 0.0
C1275 C 0.9832 0.51268 0.87531 0.0
C1276 C 0.98902 0.52322 0.8965 0.0
C1277 C 0.00969 0.54154 0.90205 0.0
C1278 C 0.02466 0.54863 0.88618 0.0
C1279 C 0.01881 0.5381 0.86499 0.0
C1280 C 0.98704 0.47647 0.84761 0.0
C1281 C 0.96748 0.45807 0.85137 0.0
C1282 C 0.96622 0.44666 0.86948 0.0
C1283 C 0.98443 0.45355 0.88449 0.0
C1284 C 0.00431 0.47134 0.88008 0.0
C1285 C 0.00561 0.48268 0.86173 0.0
C1286 C 0.95013 0.45658 0.70119 0.0
C1287 C 0.00435 0.60732 0.8446 0.0
H1288 H 0.46336 0.51431 0.66189 0.0
H1289 H 0.63651 0.64351 0.85027 0.0
H1290 H 0.44564 0.49823 0.77441 0.0
H1291 H 0.4212 0.46111 0.75792 0.0
H1292 H 0.46241 0.44242 0.79008 0.0
H1293 H 0.48693 0.47927 0.80542 0.0
H1294 H 0.48624 0.5479 0.75467 0.0
H1295 H 0.47572 0.53879 0.71502 0.0
H1296 H 0.48511 0.48539 0.71821 0.0
H1297 H 0.4959 0.49485 0.75774 0.0
H1298 H 0.53851 0.58901 0.78022 0.0
H1299 H 0.56989 0.60696 0.75902 0.0
H1300 H 0.56409 0.54587 0.74341 0.0
H1301 H 0.53489 0.52892 0.7666 0.0
H1302 H 0.52922 0.59052 0.83254 0.0
H1303 H 0.56337 0.62309 0.84651 0.0
H1304 H 0.59768 0.59253 0.82718 0.0
H1305 H 0.56342 0.56002 0.81348 0.0
H1306 H 0.493 0.5536 0.8609 0.0
H1307 H 0.50241 0.55782 0.90111 0.0
H1308 H 0.54986 0.54111 0.89039 0.0
H1309 H 0.54071 0.53722 0.85056 0.0
H1310 H 0.45038 0.50968 0.83182 0.0
H1311 H 0.42939 0.48599 0.85962 0.0
H1312 H 0.48027 0.47385 0.87524 0.0
H1313 H 0.50079 0.49706 0.84714 0.0
O1314 O 0.46761 0.51765 0.67758 0.0
O1315 O 0.47258 0.49035 0.68013 0.0
O1316 O 0.60438 0.64581 0.85457 0.0
O1317 O 0.62278 0.63084 0.84489 0.0
C1318 C 0.48473 0.514 0.79869 0.0
C1319 C 0.49791 0.52773 0.78327 0.0
C1320 C 0.51766 0.54684 0.79071 0.0
C1321 C 0.52307 0.55327 0.81359 0.0
C1322 C 0.50925 0.54013 0.82893 0.0
C1323 C 0.49032 0.52031 0.8215 0.0
C1324 C 0.46797 0.49139 0.79122 0.0
C1325 C 0.44912 0.48598 0.77807 0.0
C1326 C 0.43523 0.46484 0.76871 0.0
C1327 C 0.44011 0.44897 0.77244 0.0
C1328 C 0.45846 0.45436 0.7865 0.0
C1329 C 0.47231 0.47535 0.7956 0.0
C1330 C 0.49151 0.52187 0.75917 0.0
C1331 C 0.48598 0.53422 0.74677 0.0
C1332 C 0.47998 0.52898 0.72413 0.0
C1333 C 0.47947 0.51129 0.71345 0.0
C1334 C 0.48522 0.49904 0.72592 0.0
C1335 C 0.49126 0.50434 0.74855 0.0
C1336 C 0.53431 0.55759 0.77501 0.0
C1337 C 0.54407 0.57958 0.77215 0.0
C1338 C 0.5619 0.58976 0.75984 0.0
C1339 C 0.56989 0.57799 0.74977 0.0
C1340 C 0.55899 0.5557 0.75148 0.0
C1341 C 0.54183 0.54579 0.76435 0.0
C1342 C 0.54389 0.57304 0.82179 0.0
C1343 C 0.54414 0.59093 0.83132 0.0
C1344 C 0.56366 0.60949 0.83928 0.0
C1345 C 0.58327 0.61044 0.83789 0.0
C1346 C 0.5829 0.59238 0.82844 0.0
C1347 C 0.56337 0.57382 0.82054 0.0
C1348 C 0.5163 0.54526 0.85288 0.0
C1349 C 0.5057 0.55127 0.8673 0.0
C1350 C 0.51102 0.55364 0.89013 0.0
C1351 C 0.52671 0.54962 0.89865 0.0
C1352 C 0.53763 0.54416 0.88412 0.0
C1353 C 0.53255 0.54211 0.86144 0.0
C1354 C 0.47721 0.50532 0.83772 0.0
C1355 C 0.45687 0.50177 0.84117 0.0
C1356 C 0.44498 0.48831 0.85707 0.0
C1357 C 0.45321 0.4781 0.86967 0.0
C1358 C 0.47337 0.48127 0.86567 0.0
C1359 C 0.48523 0.49473 0.84983 0.0
C1360 C 0.47303 0.50573 0.6894 0.0
C1361 C 0.60406 0.63012 0.84631 0.0
H1362 H 0.65514 0.86318 0.7422 0.0
H1363 H 0.66622 0.70683 0.58532 0.0
H1364 H 0.63986 0.85789 0.62375 0.0
H1365 H 0.64552 0.89347 0.63301 0.0
H1366 H 0.70982 0.92308 0.61232 0.0
H1367 H 0.70399 0.88747 0.6031 0.0
H1368 H 0.63582 0.81987 0.65349 0.0
H1369 H 0.63777 0.83331 0.69155 0.0
H1370 H 0.70387 0.88416 0.68735 0.0
H1371 H 0.70177 0.87041 0.64938 0.0
H1372 H 0.63389 0.77753 0.63433 0.0
H1373 H 0.63985 0.75404 0.65703 0.0
H1374 H 0.70685 0.80433 0.67114 0.0
H1375 H 0.70084 0.82751 0.64807 0.0
H1376 H 0.6276 0.77147 0.58028 0.0
H1377 H 0.62242 0.73587 0.57301 0.0
H1378 H 0.6879 0.76082 0.60042 0.0
H1379 H 0.69298 0.79638 0.60722 0.0
H1380 H 0.63482 0.80993 0.54684 0.0
H1381 H 0.63373 0.79556 0.50949 0.0
H1382 H 0.69266 0.79734 0.52814 0.0
H1383 H 0.69434 0.81309 0.5648 0.0
H1384 H 0.64095 0.85383 0.56936 0.0
H1385 H 0.6468 0.87654 0.53886 0.0
H1386 H 0.70699 0.88035 0.53063 0.0
H1387 H 0.70144 0.85858 0.56148 0.0
O1388 O 0.65476 0.85808 0.72715 0.0
O1389 O 0.68868 0.88395 0.72413 0.0
O1390 O 0.63446 0.70882 0.57351 0.0
O1391 O 0.66787 0.72076 0.58783 0.0
C1392 C 0.66835 0.84852 0.60792 0.0
C1393 C 0.6672 0.83608 0.62552 0.0
C1394 C 0.66509 0.81595 0.62112 0.0
C1395 C 0.66347 0.80793 0.59911 0.0
C1396 C 0.66487 0.8204 0.58155 0.0
C1397 C 0.66749 0.84079 0.58595 0.0
C1398 C 0.67147 0.8701 0.61267 0.0
C1399 C 0.65513 0.87208 0.62116 0.0
C1400 C 0.65843 0.8924 0.62653 0.0
C1401 C 0.67814 0.91111 0.62342 0.0
C1402 C 0.69437 0.90901 0.61464 0.0
C1403 C 0.69109 0.8887 0.60939 0.0
C1404 C 0.6686 0.84424 0.64866 0.0
C1405 C 0.65072 0.83387 0.66086 0.0
C1406 C 0.65187 0.84161 0.68257 0.0
C1407 C 0.67096 0.85985 0.69248 0.0
C1408 C 0.6889 0.87011 0.68021 0.0
C1409 C 0.68774 0.86233 0.65851 0.0
C1410 C 0.66697 0.80414 0.63943 0.0
C1411 C 0.64967 0.78368 0.64291 0.0
C1412 C 0.65312 0.7703 0.65588 0.0
C1413 C 0.67391 0.77725 0.66556 0.0
C1414 C 0.69074 0.79844 0.66358 0.0
C1415 C 0.68728 0.81179 0.65063 0.0
C1416 C 0.66059 0.78644 0.59442 0.0
C1417 C 0.64081 0.76921 0.58462 0.0
C1418 C 0.6379 0.7489 0.58053 0.0
C1419 C 0.65474 0.74548 0.58621 0.0
C1420 C 0.67459 0.76287 0.59589 0.0
C1421 C 0.67751 0.78318 0.59986 0.0
C1422 C 0.66453 0.81235 0.5586 0.0
C1423 C 0.6476 0.80744 0.54271 0.0
C1424 C 0.64691 0.799 0.52145 0.0
C1425 C 0.663 0.79504 0.51577 0.0
C1426 C 0.68012 0.80037 0.53173 0.0
C1427 C 0.68098 0.80913 0.55283 0.0
C1428 C 0.67077 0.85457 0.56761 0.0
C1429 C 0.65544 0.85975 0.56101 0.0
C1430 C 0.65873 0.87255 0.5435 0.0
C1431 C 0.67741 0.88036 0.53237 0.0
C1432 C 0.69262 0.87498 0.53907 0.0
C1433 C 0.6894 0.86236 0.55658 0.0
C1434 C 0.67209 0.86808 0.71552 0.0
C1435 C 0.65166 0.7239 0.58209 0.0
H1436 H 0.20038 0.83054 0.75009 0.0
H1437 H 0.04523 0.67503 0.54428 0.0
H1438 H 0.17221 0.84451 0.62192 0.0
H1439 H 0.19596 0.88208 0.63491 0.0
H1440 H 0.25089 0.87472 0.63388 0.0
H1441 H 0.22632 0.83622 0.62217 0.0
H1442 H 0.16916 0.82911 0.65929 0.0
H1443 H 0.18119 0.83457 0.69846 0.0
H1444 H 0.19519 0.78437 0.69013 0.0
H1445 H 0.18341 0.77927 0.65076 0.0
H1446 H 0.1327 0.80025 0.64535 0.0
H1447 H 0.10229 0.78309 0.66696 0.0
H1448 H 0.09284 0.72114 0.64691 0.0
H1449 H 0.12545 0.73907 0.62747 0.0
H1450 H 0.10447 0.77347 0.5964 0.0
H1451 H 0.06929 0.74303 0.58116 0.0
H1452 H 0.09965 0.70873 0.56068 0.0
H1453 H 0.1347 0.73922 0.57618 0.0
H1454 H 0.13272 0.80213 0.56116 0.0
H1455 H 0.12318 0.79919 0.5215 0.0
H1456 H 0.15846 0.76807 0.5094 0.0
H1457 H 0.16831 0.77141 0.54943 0.0
H1458 H 0.17359 0.84037 0.57112 0.0
H1459 H 0.19476 0.86241 0.5425 0.0
H1460 H 0.23405 0.83439 0.54717 0.0
H1461 H 0.21236 0.81202 0.57532 0.0
O1462 O 0.19583 0.8282 0.73446 0.0
O1463 O 0.20271 0.80223 0.72932 0.0
O1464 O 0.04409 0.70553 0.56147 0.0
O1465 O 0.05893 0.68727 0.55051 0.0
C1466 C 0.1821 0.81492 0.61339 0.0
C1467 C 0.16862 0.80044 0.62804 0.0
C1468 C 0.14863 0.78202 0.61978 0.0
C1469 C 0.14339 0.77693 0.59669 0.0
C1470 C 0.15793 0.79043 0.58207 0.0
C1471 C 0.17715 0.80952 0.59047 0.0
C1472 C 0.19753 0.83763 0.62155 0.0
C1473 C 0.18937 0.85096 0.62475 0.0
C1474 C 0.20307 0.87256 0.63187 0.0
C1475 C 0.22548 0.88164 0.63518 0.0
C1476 C 0.23372 0.86823 0.63172 0.0
C1477 C 0.21978 0.8463 0.62497 0.0
C1478 C 0.17576 0.80404 0.652 0.0
C1479 C 0.17516 0.81953 0.66577 0.0
C1480 C 0.18188 0.82251 0.68826 0.0
C1481 C 0.18924 0.80997 0.69743 0.0
C1482 C 0.18968 0.79435 0.6836 0.0
C1483 C 0.18295 0.79141 0.66111 0.0
C1484 C 0.1316 0.77104 0.635 0.0
C1485 C 0.12479 0.7831 0.64645 0.0
C1486 C 0.10691 0.77311 0.65835 0.0
C1487 C 0.09459 0.7506 0.65818 0.0
C1488 C 0.10193 0.7385 0.64749 0.0
C1489 C 0.12047 0.7487 0.6362 0.0
C1490 C 0.12205 0.75841 0.58757 0.0
C1491 C 0.10344 0.7593 0.58872 0.0
C1492 C 0.08339 0.74193 0.57996 0.0
C1493 C 0.08165 0.72342 0.56974 0.0
C1494 C 0.10041 0.7227 0.56848 0.0
C1495 C 0.12044 0.74007 0.57731 0.0
C1496 C 0.15116 0.78696 0.55808 0.0
C1497 C 0.13829 0.79456 0.54997 0.0
C1498 C 0.13298 0.79298 0.52737 0.0
C1499 C 0.14025 0.78355 0.51246 0.0
C1500 C 0.15267 0.77537 0.52062 0.0
C1501 C 0.15827 0.77726 0.54335 0.0
C1502 C 0.19141 0.82455 0.57506 0.0
C1503 C 0.18693 0.83922 0.56607 0.0
C1504 C 0.19911 0.85186 0.54986 0.0
C1505 C 0.21599 0.85003 0.54247 0.0
C1506 C 0.22094 0.83592 0.55227 0.0
C1507 C 0.2087 0.82324 0.56841 0.0
C1508 C 0.19635 0.81316 0.72134 0.0
C1509 C 0.06039 0.70492 0.56036 0.0
H1510 H 0.21715 0.36365 0.75273 0.0
H1511 H 0.04269 0.3147 0.57114 0.0
H1512 H 0.235 0.37961 0.63773 0.0
H1513 H 0.26406 0.37443 0.65165 0.0
H1514 H 0.22935 0.31008 0.61925 0.0
H1515 H 0.20054 0.31541 0.60532 0.0
H1516 H 0.19287 0.37733 0.66468 0.0
H1517 H 0.20361 0.3773 0.70343 0.0
H1518 H 0.19757 0.31601 0.68876 0.0
H1519 H 0.18651 0.31608 0.65016 0.0
H1520 H 0.14214 0.36486 0.64026 0.0
H1521 H 0.11048 0.34902 0.66111 0.0
H1522 H 0.11573 0.2934 0.66787 0.0
H1523 H 0.1456 0.30824 0.64517 0.0
H1524 H 0.1497 0.37758 0.59035 0.0
H1525 H 0.11492 0.37328 0.5789 0.0
H1526 H 0.08289 0.3056 0.58856 0.0
H1527 H 0.11778 0.31009 0.59975 0.0
H1528 H 0.18757 0.38474 0.5621 0.0
H1529 H 0.17893 0.38439 0.52238 0.0
H1530 H 0.13362 0.31591 0.51934 0.0
H1531 H 0.14225 0.31641 0.55881 0.0
H1532 H 0.22905 0.38585 0.58356 0.0
H1533 H 0.24828 0.3895 0.55084 0.0
H1534 H 0.20195 0.32283 0.52899 0.0
H1535 H 0.1835 0.31924 0.56207 0.0
O1536 O 0.21279 0.36329 0.73734 0.0
O1537 O 0.20954 0.33184 0.72891 0.0
O1538 O 0.0739 0.35172 0.57076 0.0
O1539 O 0.05665 0.31685 0.57555 0.0
C1540 C 0.19673 0.34956 0.61471 0.0
C1541 C 0.18284 0.34722 0.63103 0.0
C1542 C 0.16276 0.34504 0.62498 0.0
C1543 C 0.15738 0.3469 0.60284 0.0
C1544 C 0.17174 0.35026 0.58679 0.0
C1545 C 0.19113 0.35101 0.59261 0.0
C1546 C 0.21577 0.34792 0.62044 0.0
C1547 C 0.23394 0.36459 0.63329 0.0
C1548 C 0.25043 0.36158 0.64125 0.0
C1549 C 0.24879 0.34178 0.63668 0.0
C1550 C 0.23087 0.3254 0.62322 0.0
C1551 C 0.21457 0.3285 0.61506 0.0
C1552 C 0.18917 0.34685 0.65455 0.0
C1553 C 0.19386 0.36391 0.66988 0.0
C1554 C 0.20002 0.36386 0.692 0.0
C1555 C 0.20155 0.3467 0.69918 0.0
C1556 C 0.19665 0.32953 0.68377 0.0
C1557 C 0.19045 0.32958 0.66168 0.0
C1558 C 0.14617 0.33768 0.64101 0.0
C1559 C 0.13645 0.34929 0.64636 0.0
C1560 C 0.11845 0.34028 0.65848 0.0
C1561 C 0.11021 0.31969 0.6659 0.0
C1562 C 0.12111 0.30895 0.66189 0.0
C1563 C 0.13857 0.31764 0.64925 0.0
C1564 C 0.13622 0.34419 0.59603 0.0
C1565 C 0.13514 0.36185 0.58996 0.0
C1566 C 0.11526 0.35934 0.58346 0.0
C1567 C 0.0961 0.33909 0.58287 0.0
C1568 C 0.0973 0.32142 0.58887 0.0
C1569 C 0.1172 0.32394 0.59531 0.0
C1570 C 0.16545 0.35061 0.56328 0.0
C1571 C 0.17562 0.36975 0.55283 0.0
C1572 C 0.17069 0.36953 0.53024 0.0
C1573 C 0.15576 0.3501 0.51782 0.0
C1574 C 0.14538 0.33106 0.52848 0.0
C1575 C 0.15013 0.33134 0.55101 0.0
C1576 C 0.20488 0.35232 0.57508 0.0
C1577 C 0.22346 0.37194 0.57195 0.0
C1578 C 0.23424 0.37403 0.55314 0.0
C1579 C 0.22653 0.35652 0.53714 0.0
C1580 C 0.20851 0.33659 0.54102 0.0
C1581 C 0.19787 0.3345 0.55987 0.0
C1582 C 0.20818 0.34674 0.72267 0.0
C1583 C 0.07494 0.33636 0.57602 0.0
H1584 H 0.95265 0.40618 0.08163 0.0
H1585 H 0.00493 0.39623 0.09741 0.0
H1586 H 0.01284 0.4161 0.13343 0.0
H1587 H 0.00507 0.43639 0.16028 0.0
H1588 H 0.95432 0.4484 0.14361 0.0
H1589 H 0.94541 0.42724 0.10826 0.0
C1590 C 0.96571 0.40826 0.09299 0.0
C1591 C 0.97815 0.39968 0.08685 0.0
C1592 C 0.97041 0.42001 0.11353 0.0
C1593 C 0.99514 0.4027 0.10169 0.0
C1594 C -0.00033 0.41405 0.1223 0.0
C1595 C 0.99225 0.43467 0.14883 0.0
C1596 C 0.98045 0.44408 0.15467 0.0
C1597 C 0.9875 0.42288 0.12833 0.0
C1598 C 0.96353 0.44115 0.13975 0.0
C1599 C 0.95849 0.42916 0.11944 0.0
H1600 H 0.59653 0.58329 0.12618 0.0
H1601 H 0.59041 0.52485 0.09842 0.0
H1602 H 0.57551 0.5073 0.13132 0.0
H1603 H 0.56219 0.50754 0.16677 0.0
H1604 H 0.56883 0.5657 0.19589 0.0
H1605 H 0.58527 0.5842 0.16352 0.0
C1606 C 0.59208 0.56678 0.12742 0.0
C1607 C 0.59449 0.55543 0.10972 0.0
C1608 C 0.58345 0.55662 0.14653 0.0
C1609 C 0.58871 0.53403 0.11167 0.0
C1610 C 0.58013 0.5239 0.1305 0.0
C1611 C 0.56768 0.52442 0.16638 0.0
C1612 C 0.56431 0.53518 0.18382 0.0
C1613 C 0.57721 0.53494 0.14789 0.0
C1614 C 0.57102 0.55692 0.18261 0.0
C1615 C 0.5805 0.56754 0.16413 0.0
H1616 H 0.45894 0.99686 0.07959 0.0
H1617 H 0.42733 0.03017 0.09827 0.0
H1618 H 0.4455 0.03868 0.13568 0.0
H1619 H 0.46564 0.03127 0.16435 0.0
H1620 H 0.49653 0.99733 0.14507 0.0
H1621 H 0.48348 0.99454 0.10659 0.0
C1622 C 0.45641 0.00641 0.09173 0.0
C1623 C 0.44161 0.01262 0.08633 0.0
C1624 C 0.46652 0.01082 0.11318 0.0
C1625 C 0.43867 0.02522 0.10206 0.0
C1626 C 0.44889 0.0299 0.12351 0.0
C1627 C 0.46997 0.02379 0.15162 0.0
C1628 C 0.48164 0.01411 0.15756 0.0
C1629 C 0.46216 0.022 0.12948 0.0
C1630 C 0.48716 0.00446 0.14093 0.0
C1631 C 0.47974 0.00289 0.11894 0.0
H1632 H 0.40748 0.00375 0.95862 0.0
H1633 H 0.42242 0.95613 0.97581 0.0
H1634 H 0.43519 0.9564 0.93989 0.0
H1635 H 0.44332 0.97078 0.90423 0.0
H1636 H 0.42719 0.0171 0.88538 0.0
H1637 H 0.41404 0.01694 0.9214 0.0
C1638 C 0.41349 0.99342 0.95446 0.0
C1639 C 0.414 0.97999 0.96998 0.0
C1640 C 0.42071 0.99347 0.93352 0.0
C1641 C 0.42174 0.9666 0.96424 0.0
C1642 C 0.42911 0.96675 0.94367 0.0
C1643 C 0.4365 0.98052 0.90769 0.0
C1644 C 0.43618 0.99383 0.89195 0.0
C1645 C 0.42874 0.98014 0.92824 0.0
C1646 C 0.42785 0.00681 0.89719 0.0
C1647 C 0.42023 0.00667 0.91778 0.0
H1648 H 0.95792 0.40673 0.9716 0.0
H1649 H 0.01733 0.40818 0.96738 0.0
H1650 H 0.02375 0.42752 0.93408 0.0
H1651 H 0.01148 0.44279 0.90529 0.0
H1652 H 0.95214 0.44128 0.91103 0.0
H1653 H 0.94665 0.42298 0.94449 0.0
C1654 C 0.97234 0.41125 0.96348 0.0
C1655 C 0.98704 0.40584 0.97192 0.0
C1656 C 0.97585 0.42223 0.94446 0.0
C1657 C 0.00573 0.41211 0.96124 0.0
C1658 C 0.00937 0.42312 0.94216 0.0
C1659 C 0.99745 0.43858 0.91398 0.0
C1660 C 0.98204 0.44307 0.90537 0.0
C1661 C 0.99441 0.4281 0.93349 0.0
C1662 C 0.96396 0.43752 0.91688 0.0
C1663 C 0.96087 0.42719 0.93615 0.0
H1664 H 0.55611 0.53923 0.993 0.0
H1665 H 0.57811 0.60659 0.00199 0.0
H1666 H 0.55981 0.60392 0.96596 0.0
H1667 H 0.54189 0.58339 0.92972 0.0
H1668 H 0.52211 0.51668 0.92077 0.0
H1669 H 0.53509 0.51805 0.959 0.0
C1670 C 0.55666 0.55329 0.98726 0.0
C1671 C 0.56875 0.57315 -0.0 0.0
C1672 C 0.54666 0.55177 0.9664 0.0
C1673 C 0.56899 0.59112 0.99246 0.0
C1674 C 0.55866 0.58963 0.97179 0.0
C1675 C 0.54006 0.56912 0.93641 0.0
C1676 C 0.5313 0.55001 0.92259 0.0
C1677 C 0.54809 0.5702 0.95828 0.0
C1678 C 0.52902 0.53157 0.9312 0.0
C1679 C 0.53644 0.53237 0.95298 0.0
H1680 H 0.04793 0.59764 0.99345 0.0
H1681 H 0.98567 0.59127 0.98821 0.0
H1682 H 0.97583 0.56934 0.95326 0.0
H1683 H 0.98505 0.55247 0.92387 0.0
H1684 H 0.04712 0.55857 0.92908 0.0
H1685 H 0.05692 0.58024 0.96432 0.0
C1686 C 0.03221 0.59147 0.98468 0.0
C1687 C 0.01759 0.59614 0.99348 0.0
C1688 C 0.02661 0.57883 0.96458 0.0
C1689 C 0.99726 0.58795 0.98187 0.0
C1690 C 0.99159 0.57539 0.96186 0.0
C1691 C 0.00061 0.55829 0.93287 0.0
C1692 C 0.0153 0.55386 0.92391 0.0
C1693 C 0.00613 0.57074 0.95307 0.0
C1694 C 0.03558 0.5619 0.93555 0.0
C1695 C 0.04117 0.57423 0.95572 0.0
H1696 H 0.41427 0.41822 0.94712 0.0
H1697 H 0.402 0.46786 0.96676 0.0
H1698 H 0.41568 0.48531 0.93336 0.0
H1699 H 0.43362 0.48815 0.90006 0.0
H1700 H 0.44698 0.4394 0.88028 0.0
H1701 H 0.43052 0.42003 0.91223 0.0
C1702 C 0.41435 0.43269 0.94392 0.0
C1703 C 0.40725 0.44177 0.9595 0.0
C1704 C 0.42263 0.44295 0.92475 0.0
C1705 C 0.40755 0.46061 0.95516 0.0
C1706 C 0.41537 0.47063 0.93604 0.0
C1707 C 0.43256 0.47307 0.90248 0.0
C1708 C 0.44153 0.46525 0.88783 0.0
C1709 C 0.42331 0.46218 0.92094 0.0
C1710 C 0.44039 0.44588 0.89146 0.0
C1711 C 0.43093 0.43477 0.90969 0.0
H1712 H 0.58602 0.0374 0.98254 0.0
H1713 H 0.55285 0.96967 0.9912 0.0
H1714 H 0.53089 0.96173 0.95601 0.0
H1715 H 0.52137 0.97434 0.92277 0.0
H1716 H 0.55791 0.04216 0.91342 0.0
H1717 H 0.57784 0.04968 0.94914 0.0
C1718 C 0.57388 0.02087 0.97685 0.0
C1719 C 0.57091 0.00416 0.98955 0.0
C1720 C 0.56178 0.01645 0.95652 0.0
C1721 C 0.5554 0.98283 0.98171 0.0
C1722 C 0.54285 0.9783 0.96163 0.0
C1723 C 0.5338 0.99075 0.9284 0.0
C1724 C 0.53766 0.00764 0.91534 0.0
C1725 C 0.54597 0.99502 0.94882 0.0
C1726 C 0.55385 0.02881 0.92321 0.0
C1727 C 0.56555 0.03318 0.94362 0.0
H1728 H 0.58982 0.04137 0.1121 0.0
H1729 H 0.58973 0.9824 0.11091 0.0
H1730 H 0.57727 0.97662 0.14775 0.0
H1731 H 0.56577 0.98802 0.17999 0.0
H1732 H 0.5642 0.04611 0.17989 0.0
H1733 H 0.57851 0.05276 0.14413 0.0
C1734 C 0.58713 0.02725 0.11987 0.0
C1735 C 0.59066 0.01232 0.10868 0.0
C1736 C 0.57986 0.02396 0.14094 0.0
C1737 C 0.58706 0.99412 0.11907 0.0
C1738 C 0.57998 0.99082 0.14017 0.0
C1739 C 0.56849 0.00211 0.17214 0.0
C1740 C 0.56399 0.01658 0.1828 0.0
C1741 C 0.57621 0.00558 0.15121 0.0
C1742 C 0.56792 0.0349 0.17241 0.0
C1743 C 0.57589 0.03862 0.15179 0.0
H1744 H 0.98519 0.57964 0.1049 0.0
H1745 H 0.05295 0.62525 0.12283 0.0
H1746 H 0.05108 0.60912 0.15724 0.0
H1747 H 0.03118 0.58082 0.18106 0.0
H1748 H 0.96407 0.53321 0.163 0.0
H1749 H 0.96451 0.55161 0.13022 0.0
C1750 C 0.99942 0.58612 0.1165 0.0
C1751 C 0.01922 0.60346 0.11122 0.0
C1752 C 0.99838 0.57641 0.13622 0.0
C1753 C 0.03759 0.61172 0.12635 0.0
C1754 C 0.03654 0.60255 0.14608 0.0
C1755 C 0.01663 0.57441 0.16994 0.0
C1756 C 0.99773 0.55551 0.17427 0.0
C1757 C 0.01718 0.58465 0.15095 0.0
C1758 C 0.97885 0.54777 0.16004 0.0
C1759 C 0.97914 0.5582 0.14121 0.0
H1760 H 0.45792 0.45404 0.06742 0.0
H1761 H 0.41562 0.38592 0.07125 0.0
H1762 H 0.43449 0.38853 0.10689 0.0
H1763 H 0.45886 0.41144 0.13963 0.0
H1764 H 0.5004 0.47964 0.13551 0.0
H1765 H 0.48624 0.47574 0.09721 0.0
C1766 C 0.45315 0.43969 0.07584 0.0
C1767 C 0.43521 0.41991 0.06697 0.0
C1768 C 0.46381 0.44139 0.09639 0.0
C1769 C 0.42937 0.40136 0.07781 0.0
C1770 C 0.44005 0.40288 0.09827 0.0
C1771 C 0.46525 0.42529 0.13008 0.0
C1772 C 0.48035 0.44584 0.1404 0.0
C1773 C 0.4567 0.42298 0.10814 0.0
C1774 C 0.48851 0.46372 0.12793 0.0
C1775 C 0.48039 0.46151 0.10608 0.0
H1776 H 0.67265 0.75956 0.4233 0.0
H1777 H 0.60334 0.72226 0.42194 0.0
H1778 H 0.60549 0.73886 0.45839 0.0
H1779 H 0.62698 0.76383 0.49057 0.0
H1780 H 0.69617 0.8034 0.49077 0.0
H1781 H 0.69414 0.78581 0.45504 0.0
C1782 C 0.65805 0.75501 0.43107 0.0
C1783 C 0.63789 0.73965 0.42002 0.0
C1784 C 0.65937 0.76499 0.45182 0.0
C1785 C 0.61906 0.73409 0.43012 0.0
C1786 C 0.62027 0.74356 0.45095 0.0
C1787 C 0.64163 0.76891 0.48271 0.0
C1788 C 0.6617 0.78492 0.49352 0.0
C1789 C 0.64033 0.75911 0.4619 0.0
C1790 C 0.6805 0.79088 0.48312 0.0
C1791 C 0.67936 0.78092 0.46258 0.0
H1792 H 0.25992 0.90885 0.46553 0.0
H1793 H 0.25597 0.85089 0.43976 0.0
H1794 H 0.24051 0.83359 0.47269 0.0
H1795 H 0.22663 0.83415 0.50794 0.0
H1796 H 0.23044 0.89175 0.53433 0.0
H1797 H 0.24724 0.90985 0.5019 0.0
C1798 C 0.2558 0.89248 0.46717 0.0
C1799 C 0.25905 0.8812 0.4501 0.0
C1800 C 0.24677 0.88249 0.48619 0.0
C1801 C 0.2536 0.85998 0.45255 0.0
C1802 C 0.24473 0.85002 0.4714 0.0
C1803 C 0.23149 0.8508 0.50682 0.0
C1804 C 0.22736 0.8616 0.52356 0.0
C1805 C 0.24108 0.86105 0.48821 0.0
C1806 C 0.23329 0.88301 0.52157 0.0
C1807 C 0.24296 0.89339 0.50308 0.0
H1808 H 0.12667 0.32599 0.41659 0.0
H1809 H 0.11417 0.37708 0.4256 0.0
H1810 H 0.13099 0.38551 0.46356 0.0
H1811 H 0.14514 0.37525 0.49553 0.0
H1812 H 0.15582 0.32299 0.48618 0.0
H1813 H 0.14377 0.3181 0.44702 0.0
C1814 C 0.12787 0.3392 0.4267 0.0
C1815 C 0.1189 0.35069 0.41832 0.0
C1816 C 0.13698 0.34354 0.44859 0.0
C1817 C 0.12088 0.36792 0.43163 0.0
C1818 C 0.13036 0.37265 0.4534 0.0
C1819 C 0.14516 0.36307 0.48477 0.0
C1820 C 0.15103 0.34927 0.49371 0.0
C1821 C 0.13784 0.3601 0.46227 0.0
C1822 C 0.15098 0.33352 0.47969 0.0
C1823 C 0.14416 0.33076 0.45731 0.0
H1824 H 0.09634 0.30012 0.30001 0.0
H1825 H 0.08785 0.35347 0.29153 0.0
H1826 H 0.09677 0.35419 0.25337 0.0
H1827 H 0.10711 0.33963 0.22247 0.0
H1828 H 0.11747 0.28759 0.23249 0.0
H1829 H 0.1071 0.28611 0.26976 0.0
C1830 C 0.09638 0.31192 0.28985 0.0
C1831 C 0.09141 0.32671 0.29866 0.0
C1832 C 0.10164 0.31234 0.26807 0.0
C1833 C 0.09168 0.34193 0.28522 0.0
C1834 C 0.09672 0.34232 0.26337 0.0
C1835 C 0.1072 0.32803 0.23281 0.0
C1836 C 0.11284 0.31358 0.2244 0.0
C1837 C 0.10178 0.32761 0.25463 0.0
C1838 C 0.11265 0.29854 0.23812 0.0
C1839 C 0.10697 0.29783 0.25962 0.0
H1840 H 0.63566 0.7588 0.30444 0.0
H1841 H 0.689 0.74912 0.30466 0.0
H1842 H 0.69913 0.76665 0.27029 0.0
H1843 H 0.69108 0.78254 0.23876 0.0
H1844 H 0.63714 0.79127 0.23943 0.0
H1845 H 0.62889 0.77605 0.27477 0.0
C1846 C 0.64961 0.7606 0.29712 0.0
C1847 C 0.66143 0.75248 0.30704 0.0
C1848 C 0.65507 0.77029 0.27732 0.0
C1849 C 0.6796 0.75522 0.29737 0.0
C1850 C 0.68533 0.76513 0.27765 0.0
C1851 C 0.67764 0.78122 0.24677 0.0
C1852 C 0.66448 0.78763 0.23626 0.0
C1853 C 0.67292 0.77238 0.26725 0.0
C1854 C 0.64716 0.78592 0.24686 0.0
C1855 C 0.64252 0.77738 0.26716 0.0
H1856 H 0.22695 0.87225 0.33161 0.0
H1857 H 0.24955 0.93934 0.34582 0.0
H1858 H 0.23211 0.93933 0.3103 0.0
H1859 H 0.21443 0.92124 0.27317 0.0
H1860 H 0.19352 0.85462 0.25912 0.0
H1861 H 0.20614 0.85338 0.29666 0.0
C1862 C 0.22784 0.88683 0.32711 0.0
C1863 C 0.23982 0.90584 0.34119 0.0
C1864 C 0.21821 0.88681 0.30657 0.0
C1865 C 0.24052 0.92449 0.33523 0.0
C1866 C 0.23065 0.92453 0.31487 0.0
C1867 C 0.21228 0.9064 0.27858 0.0
C1868 C 0.20334 0.88811 0.26349 0.0
C1869 C 0.22004 0.90595 0.3001 0.0
C1870 C 0.20062 0.86893 0.2705 0.0
C1871 C 0.20784 0.86822 0.29191 0.0
H1872 H 0.71962 0.92417 0.32728 0.0
H1873 H 0.65913 0.92091 0.31548 0.0
H1874 H 0.65325 0.90285 0.27884 0.0
H1875 H 0.66564 0.88871 0.24988 0.0
H1876 H 0.72595 0.89175 0.26176 0.0
H1877 H 0.73165 0.90943 0.29863 0.0
C1878 C 0.70511 0.91948 0.31675 0.0
C1879 C 0.68985 0.92393 0.32416 0.0
C1880 C 0.70184 0.90916 0.29568 0.0
C1881 C 0.67115 0.91771 0.31023 0.0
C1882 C 0.66777 0.90738 0.28926 0.0
C1883 C 0.6799 0.893 0.26064 0.0
C1884 C 0.69533 0.88889 0.2531 0.0
C1885 C 0.68304 0.9031 0.2818 0.0
C1886 C 0.71393 0.89493 0.26709 0.0
C1887 C 0.71715 0.90494 0.28819 0.0
H1888 H 0.07805 0.80525 0.3016 0.0
H1889 H 0.07957 0.74787 0.28747 0.0
H1890 H 0.09512 0.76108 0.25286 0.0
H1891 H 0.10971 0.78977 0.22738 0.0
H1892 H 0.10813 0.84702 0.2422 0.0
H1893 H 0.09095 0.83288 0.27565 0.0
C1894 C 0.08169 0.79555 0.29095 0.0
C1895 C 0.0778 0.77567 0.29723 0.0
C1896 C 0.09061 0.80322 0.27116 0.0
C1897 C 0.08242 0.76325 0.28306 0.0
C1898 C 0.09137 0.77082 0.2633 0.0
C1899 C 0.10556 0.7991 0.23795 0.0
C1900 C 0.11018 0.81942 0.23228 0.0
C1901 C 0.09577 0.79092 0.25731 0.0
C1902 C 0.1045 0.83123 0.24599 0.0
C1903 C 0.09481 0.82323 0.26523 0.0
H1904 H 0.25689 0.36433 0.31222 0.0
H1905 H 0.21686 0.29817 0.32595 0.0
H1906 H 0.19639 0.28974 0.28967 0.0
H1907 H 0.1902 0.3015 0.25401 0.0
H1908 H 0.23366 0.36722 0.23988 0.0
H1909 H 0.25207 0.37549 0.27656 0.0
C1910 C 0.24355 0.34807 0.3074 0.0
C1911 C 0.2382 0.33195 0.32184 0.0
C1912 C 0.23239 0.34329 0.28645 0.0
C1913 C 0.22121 0.31088 0.31513 0.0
C1914 C 0.20954 0.30608 0.29441 0.0
C1915 C 0.20381 0.31759 0.25881 0.0
C1916 C 0.21008 0.33376 0.24408 0.0
C1917 C 0.21506 0.32218 0.27987 0.0
C1918 C 0.22779 0.35453 0.25089 0.0
C1919 C 0.23859 0.35929 0.27187 0.0
H1920 H 0.26262 0.37944 0.44418 0.0
H1921 H 0.2543 0.31667 0.4451 0.0
H1922 H 0.24238 0.31365 0.48205 0.0
H1923 H 0.23367 0.32851 0.51383 0.0
H1924 H 0.24067 0.39066 0.51217 0.0
H1925 H 0.25423 0.3944 0.47602 0.0
C1926 C 0.25824 0.36509 0.45244 0.0
C1927 C 0.2593 0.34829 0.44179 0.0
C1928 C 0.25131 0.3634 0.47366 0.0
C1929 C 0.25358 0.32984 0.45283 0.0
C1930 C 0.24678 0.3281 0.474 0.0
C1931 C 0.23809 0.34285 0.50554 0.0
C1932 C 0.23618 0.35929 0.5158 0.0
C1933 C 0.24546 0.34472 0.48451 0.0
C1934 C 0.24231 0.3779 0.50491 0.0
C1935 C 0.24987 0.37997 0.4841 0.0
H1936 H 0.71174 0.94171 0.45611 0.0
H1937 H 0.64482 0.90382 0.43061 0.0
H1938 H 0.63614 0.88408 0.46378 0.0
H1939 H 0.64836 0.87615 0.49889 0.0
H1940 H 0.71535 0.9157 0.52428 0.0
H1941 H 0.72322 0.93618 0.49215 0.0
C1942 C 0.69521 0.92916 0.45781 0.0
C1943 C 0.67899 0.92397 0.44083 0.0
C1944 C 0.69041 0.9181 0.47682 0.0
C1945 C 0.6576 0.90802 0.44346 0.0
C1946 C 0.65267 0.89671 0.46237 0.0
C1947 C 0.6646 0.88947 0.49755 0.0
C1948 C 0.68132 0.89407 0.51381 0.0
C1949 C 0.66903 0.90142 0.47902 0.0
C1950 C 0.70228 0.9114 0.51177 0.0
C1951 C 0.70679 0.92323 0.49345 0.0
H1952 H 0.11238 0.79452 0.41724 0.0
H1953 H 0.08487 0.72595 0.41002 0.0
H1954 H 0.10201 0.72788 0.44649 0.0
H1955 H 0.12136 0.74864 0.48222 0.0
H1956 H 0.14718 0.81686 0.48924 0.0
H1957 H 0.13423 0.8155 0.45104 0.0
C1958 C 0.11031 0.77998 0.42346 0.0
C1959 C 0.0971 0.76008 0.41101 0.0
C1960 C 0.11977 0.78114 0.44455 0.0
C1961 C 0.09486 0.74148 0.41929 0.0
C1962 C 0.10457 0.74256 0.4402 0.0
C1963 C 0.12445 0.76321 0.47517 0.0
C1964 C 0.13497 0.78278 0.4885 0.0
C1965 C 0.11654 0.76222 0.45325 0.0
C1966 C 0.13886 0.80158 0.47931 0.0
C1967 C 0.13147 0.80082 0.4575 0.0
H1968 H 0.27565 0.05961 0.75218 0.0
H1969 H 0.34412 0.08732 0.75092 0.0
H1970 H 0.35064 0.10587 0.78742 0.0
H1971 H 0.33706 0.11513 0.819 0.0
H1972 H 0.26835 0.08493 0.82181 0.0
H1973 H 0.26189 0.06703 0.78507 0.0
C1974 C 0.29199 0.06966 0.75993 0.0
C1975 C 0.30937 0.07215 0.74881 0.0
C1976 C 0.29563 0.08007 0.78106 0.0
C1977 C 0.33044 0.08505 0.75915 0.0
C1978 C 0.3342 0.09576 0.77999 0.0
C1979 C 0.32061 0.10435 0.81187 0.0
C1980 C 0.30327 0.10159 0.82334 0.0
C1981 C 0.31692 0.09346 0.79103 0.0
C1982 C 0.28212 0.08787 0.81334 0.0
C1983 C 0.27835 0.07739 0.79236 0.0
H1984 H 0.95329 0.21946 0.79892 0.0
H1985 H 0.91889 0.25192 0.7886 0.0
H1986 H 0.89867 0.2361 0.82018 0.0
H1987 H 0.88822 0.21013 0.848 0.0
H1988 H 0.92437 0.17954 0.85993 0.0
H1989 H 0.94623 0.19735 0.83014 0.0
C1990 C 0.94156 0.22328 0.80378 0.0
C1991 C 0.93739 0.2366 0.79132 0.0
C1992 C 0.93008 0.21422 0.82197 0.0
C1993 C 0.92239 0.24169 0.79795 0.0
C1994 C 0.91073 0.23255 0.81591 0.0
C1995 C 0.90121 0.20772 0.84458 0.0
C1996 C 0.90425 0.19309 0.85605 0.0
C1997 C 0.91409 0.21838 0.8277 0.0
C1998 C 0.92112 0.19014 0.85101 0.0
C1999 C 0.9338 0.20047 0.83406 0.0
H2000 H 0.78365 0.65358 0.74046 0.0
H2001 H 0.75899 0.69448 0.7548 0.0
H2002 H 0.77793 0.70456 0.79182 0.0
H2003 H 0.79763 0.69809 0.82149 0.0
H2004 H 0.82275 0.65763 0.8067 0.0
H2005 H 0.80736 0.65098 0.76852 0.0
C2006 C 0.78268 0.66497 0.75156 0.0
C2007 C 0.76968 0.67302 0.74498 0.0
C2008 C 0.79342 0.67052 0.77287 0.0
C2009 C 0.76885 0.68799 0.75945 0.0
C2010 C 0.77956 0.69366 0.78069 0.0
C2011 C 0.8002 0.68823 0.80982 0.0
C2012 C 0.81096 0.67802 0.81712 0.0
C2013 C 0.79134 0.6845 0.7878 0.0
C2014 C 0.81403 0.66522 0.80171 0.0
C2015 C 0.80533 0.66149 0.77982 0.0
H2016 H 0.76463 0.67799 0.63199 0.0
H2017 H 0.71398 0.61162 0.61728 0.0
H2018 H 0.72462 0.61211 0.57989 0.0
H2019 H 0.74918 0.63095 0.55208 0.0
H2020 H 0.80325 0.69579 0.56893 0.0
H2021 H 0.79003 0.69654 0.60434 0.0
C2022 C 0.75582 0.66376 0.62045 0.0
C2023 C 0.73849 0.64485 0.62719 0.0
C2024 C 0.76261 0.66391 0.59932 0.0
C2025 C 0.72738 0.62635 0.61234 0.0
C2026 C 0.73347 0.62663 0.59101 0.0
C2027 C 0.75832 0.64522 0.56349 0.0
C2028 C 0.77723 0.66328 0.55745 0.0
C2029 C 0.75128 0.64523 0.58443 0.0
C2030 C 0.78837 0.68173 0.57257 0.0
C2031 C 0.78097 0.68214 0.59308 0.0
H2032 H 0.34535 0.07563 0.62214 0.0
H2033 H 0.32102 0.11191 0.65265 0.0
H2034 H 0.32907 0.13355 0.62131 0.0
H2035 H 0.33872 0.13919 0.58357 0.0
H2036 H 0.36116 0.10201 0.55139 0.0
H2037 H 0.3585 0.0839 0.58504 0.0
C2038 C 0.34234 0.08863 0.62208 0.0
C2039 C 0.3325 0.09214 0.63955 0.0
C2040 C 0.34638 0.10061 0.60358 0.0
C2041 C 0.32845 0.10886 0.63927 0.0
C2042 C 0.33298 0.12119 0.62134 0.0
C2043 C 0.34315 0.1272 0.58399 0.0
C2044 C 0.34972 0.12161 0.56499 0.0
C2045 C 0.34119 0.11668 0.60311 0.0
C2046 C 0.35595 0.10647 0.56584 0.0
C2047 C 0.35433 0.09607 0.58503 0.0
H2048 H 0.92063 0.26536 0.67097 0.0
H2049 H 0.90573 0.20051 0.67646 0.0
H2050 H 0.88561 0.18928 0.64022 0.0
H2051 H 0.87566 0.19856 0.6054 0.0
H2052 H 0.89106 0.26326 0.59881 0.0
H2053 H 0.90718 0.27378 0.63715 0.0
C2054 C 0.91268 0.2487 0.66439 0.0
C2055 C 0.91499 0.23389 0.67631 0.0
C2056 C 0.90132 0.24234 0.64328 0.0
C2057 C 0.90448 0.21234 0.66756 0.0
C2058 C 0.89296 0.20586 0.6468 0.0
C2059 C 0.88234 0.2149 0.61249 0.0
C2060 C 0.88246 0.23019 0.59933 0.0
C2061 C 0.89184 0.22085 0.63427 0.0
C2062 C 0.8908 0.25123 0.6087 0.0
C2063 C 0.90014 0.25726 0.63054 0.0
H2064 H 0.37701 0.24359 0.66242 0.0
H2065 H 0.33228 0.2631 0.64385 0.0
H2066 H 0.32666 0.24658 0.60643 0.0
H2067 H 0.33533 0.22765 0.57876 0.0
H2068 H 0.37876 0.20668 0.59781 0.0
H2069 H 0.38426 0.22308 0.63521 0.0
C2070 C 0.366 0.24422 0.6502 0.0
C2071 C 0.35517 0.25467 0.65591 0.0
C2072 C 0.36273 0.23457 0.62877 0.0
C2073 C 0.34082 0.25515 0.63992 0.0
C2074 C 0.33763 0.24575 0.61849 0.0
C2075 C 0.34574 0.22634 0.59114 0.0
C2076 C 0.35668 0.216 0.58537 0.0
C2077 C 0.34858 0.23551 0.61272 0.0
C2078 C 0.37042 0.21485 0.60162 0.0
C2079 C 0.37347 0.2241 0.62308 0.0
H2080 H 0.74291 0.08776 0.61456 0.0
H2081 H 0.73062 0.13865 0.62698 0.0
H2082 H 0.7503 0.15658 0.59604 0.0
H2083 H 0.77309 0.15927 0.56713 0.0
H2084 H 0.7863 0.1091 0.55464 0.0
H2085 H 0.76433 0.08954 0.58396 0.0
C2086 C 0.74433 0.10263 0.61031 0.0
C2087 C 0.73541 0.11189 0.62318 0.0
C2088 C 0.75603 0.11313 0.59261 0.0
C2089 C 0.73748 0.13123 0.6175 0.0
C2090 C 0.74874 0.14154 0.59979 0.0
C2091 C 0.77086 0.14387 0.57054 0.0
C2092 C 0.78135 0.13569 0.55875 0.0
C2093 C 0.75838 0.13283 0.58748 0.0
C2094 C 0.77859 0.11588 0.56366 0.0
C2095 C 0.76597 0.10465 0.58037 0.0
H2096 H 0.90069 0.646 0.63848 0.0
H2097 H 0.87965 0.68688 0.66491 0.0
H2098 H 0.85934 0.68209 0.62978 0.0
H2099 H 0.8507 0.66953 0.59055 0.0
H2100 H 0.87296 0.63009 0.56326 0.0
H2101 H 0.88926 0.63075 0.5997 0.0
C2102 C 0.89129 0.65348 0.63666 0.0
C2103 C 0.89186 0.66694 0.65422 0.0
C2104 C 0.88002 0.65109 0.61617 0.0
C2105 C 0.87967 0.67661 0.65158 0.0
C2106 C 0.86808 0.67393 0.63148 0.0
C2107 C 0.85904 0.661 0.59261 0.0
C2108 C 0.86083 0.65001 0.57421 0.0
C2109 C 0.8687 0.66178 0.61348 0.0
C2110 C 0.87128 0.63863 0.5772 0.0
C2111 C 0.88073 0.63911 0.59801 0.0
H2112 H 0.9428 0.71338 0.78349 0.0
H2113 H 0.89709 0.64638 0.76352 0.0
H2114 H 0.88276 0.64162 0.79954 0.0
H2115 H 0.88127 0.65737 0.83521 0.0
H2116 H 0.92905 0.7238 0.85625 0.0
H2117 H 0.94438 0.72794 0.82109 0.0
C2118 C 0.92983 0.6977 0.78714 0.0
C2119 C 0.92079 0.68031 0.77088 0.0
C2120 C 0.92191 0.69504 0.80791 0.0
C2121 C 0.90426 0.65999 0.77583 0.0
C2122 C 0.89602 0.6573 0.79636 0.0
C2123 C 0.89539 0.67263 0.83247 0.0
C2124 C 0.90368 0.69033 0.84839 0.0
C2125 C 0.90448 0.67482 0.81237 0.0
C2126 C 0.92186 0.71002 0.84417 0.0
C2127 C 0.93077 0.7124 0.82409 0.0
H2128 H 0.37468 0.26649 0.78761 0.0
H2129 H 0.30797 0.23496 0.7619 0.0
H2130 H 0.29719 0.21405 0.79421 0.0
H2131 H 0.3073 0.20322 0.82867 0.0
H2132 H 0.37434 0.23629 0.85403 0.0
H2133 H 0.38441 0.25806 0.82283 0.0
C2134 C 0.35775 0.25507 0.78904 0.0
C2135 C 0.34216 0.25203 0.77225 0.0
C2136 C 0.35176 0.2433 0.80754 0.0
C2137 C 0.32027 0.23751 0.7746 0.0
C2138 C 0.31414 0.22553 0.79302 0.0
C2139 C 0.32406 0.2154 0.8275 0.0
C2140 C 0.34009 0.2178 0.84347 0.0
C2141 C 0.3298 0.22808 0.80946 0.0
C2142 C 0.36174 0.23369 0.8417 0.0
C2143 C 0.36752 0.24625 0.82393 0.0
H2144 H 0.73772 0.11258 0.75363 0.0
H2145 H 0.75866 0.07333 0.72296 0.0
H2146 H 0.78102 0.07832 0.757 0.0
H2147 H 0.79489 0.09442 0.79545 0.0
H2148 H 0.77063 0.1309 0.8261 0.0
H2149 H 0.74972 0.12673 0.79193 0.0
C2150 C 0.74725 0.10517 0.75431 0.0
C2151 C 0.74672 0.0928 0.73576 0.0
C2152 C 0.75965 0.10777 0.77391 0.0
C2153 C 0.75883 0.08298 0.73705 0.0
C2154 C 0.77164 0.08586 0.75649 0.0
C2155 C 0.78493 0.10133 0.79474 0.0
C2156 C 0.78491 0.11345 0.81337 0.0
C2157 C 0.77219 0.09828 0.77505 0.0
C2158 C 0.77177 0.12221 0.81196 0.0
C2159 C 0.75951 0.11962 0.79244 0.0
H2160 H 0.03892 0.33432 0.02126 0.0
H2161 H 0.04856 0.38429 0.06944 0.0
H2162 H 0.07208 0.37771 0.09326 0.0
H2163 H 0.0883 0.35653 0.10137 0.0
H2164 H 0.08045 0.30796 0.05231 0.0
H2165 H 0.05728 0.3148 0.02831 0.0
C2166 C 0.04635 0.34395 0.03686 0.0
C2167 C 0.04186 0.35972 0.04353 0.0
C2168 C 0.05983 0.34003 0.05058 0.0
C2169 C 0.0517 0.37206 0.06381 0.0
C2170 C 0.06507 0.36822 0.07755 0.0
C2171 C 0.08181 0.34759 0.08533 0.0
C2172 C 0.08603 0.33155 0.07892 0.0
C2173 C 0.069 0.35204 0.07124 0.0
C2174 C 0.07708 0.31999 0.0581 0.0
C2175 C 0.06402 0.32407 0.04417 0.0
H2176 H 0.63873 0.66527 0.09805 0.0
H2177 H 0.61241 0.67073 0.0352 0.0
H2178 H 0.62058 0.70645 0.04803 0.0
H2179 H 0.63567 0.7364 0.07684 0.0
H2180 H 0.66314 0.73171 0.13927 0.0
H2181 H 0.65424 0.69551 0.12683 0.0
C2182 C 0.63468 0.67424 0.08721 0.0
C2183 C 0.6249 0.66531 0.06573 0.0
C2184 C 0.63974 0.69495 0.09458 0.0
C2185 C 0.61997 0.67723 0.0518 0.0
C2186 C 0.62462 0.69766 0.05912 0.0
C2187 C 0.63955 0.72736 0.08776 0.0
C2188 C 0.64994 0.73662 0.10896 0.0
C2189 C 0.63456 0.7067 0.08043 0.0
C2190 C 0.65524 0.72493 0.12282 0.0
C2191 C 0.65008 0.70422 0.11575 0.0
H2192 H 0.32669 0.97177 0.04092 0.0
H2193 H 0.33726 0.92285 0.06407 0.0
H2194 H 0.30365 0.90673 0.0812 0.0
H2195 H 0.27263 0.90759 0.09146 0.0
H2196 H 0.25966 0.9543 0.0664 0.0
H2197 H 0.29333 0.97067 0.04883 0.0
C2198 C 0.32152 0.95746 0.04953 0.0
C2199 C 0.33457 0.94861 0.05125 0.0
C2200 C 0.30198 0.94809 0.05932 0.0
C2201 C 0.32757 0.93001 0.0624 0.0
C2202 C 0.30838 0.92081 0.07234 0.0
C2203 C 0.27669 0.92098 0.0817 0.0
C2204 C 0.26336 0.92951 0.08021 0.0
C2205 C 0.29562 0.92985 0.0711 0.0
C2206 C 0.26963 0.94747 0.06812 0.0
C2207 C 0.28882 0.95675 0.05788 0.0
H2208 H 0.34901 0.03831 0.04591 0.0
H2209 H 0.4009 0.05968 0.00403 0.0
H2210 H 0.39293 0.0856 0.98985 0.0
H2211 H 0.37017 0.10087 0.98785 0.0
H2212 H 0.31791 0.07945 0.02913 0.0
H2213 H 0.32697 0.05469 0.0449 0.0
C2214 C 0.35871 0.04877 0.03383 0.0
C2215 C 0.37552 0.047 0.02603 0.0
C2216 C 0.35388 0.0635 0.02552 0.0
C2217 C 0.38785 0.06063 0.0103 0.0
C2218 C 0.38329 0.07546 0.00215 0.0
C2219 C 0.36099 0.09109 0.00061 0.0
C2220 C 0.34347 0.09211 0.00742 0.0
C2221 C 0.36621 0.07687 0.00946 0.0
C2222 C 0.33141 0.07889 0.02354 0.0
C2223 C 0.33662 0.06479 0.03259 0.0
H2224 H 0.91261 0.29369 0.02418 0.0
H2225 H 0.9715 0.30967 0.9962 0.0
H2226 H 0.95522 0.27234 0.98123 0.0
H2227 H 0.92292 0.23598 0.97294 0.0
H2228 H 0.86469 0.22002 0.00251 0.0
H2229 H 0.88207 0.25646 0.02003 0.0
C2230 C 0.92194 0.28894 0.01499 0.0
C2231 C 0.94308 0.30443 0.01103 0.0
C2232 C 0.91254 0.26749 0.00654 0.0
C2233 C 0.95514 0.29802 0.99942 0.0
C2234 C 0.94582 0.2767 0.99077 0.0
C2235 C 0.9142 0.24035 0.9836 0.0
C2236 C 0.89237 0.22544 0.98594 0.0
C2237 C 0.92435 0.26139 0.9938 0.0
C2238 C 0.88132 0.23137 0.99988 0.0
C2239 C 0.89125 0.25219 0.01 0.0
H2240 H 0.66894 0.58599 0.01074 0.0
H2241 H 0.68666 0.64281 0.05279 0.0
H2242 H 0.72222 0.66177 0.03874 0.0
H2243 H 0.7481 0.66203 0.01413 0.0
H2244 H 0.72841 0.60536 0.97067 0.0
H2245 H 0.69385 0.58649 0.98587 0.0
C2246 C 0.6806 0.60247 0.01702 0.0
C2247 C 0.67522 0.61291 0.03292 0.0
C2248 C 0.70068 0.61331 0.00861 0.0
C2249 C 0.69044 0.63439 0.04059 0.0
C2250 C 0.71074 0.64523 0.03254 0.0
C2251 C 0.73618 0.64561 0.00789 0.0
C2252 C 0.74105 0.63506 0.99151 0.0
C2253 C 0.716 0.63487 0.01643 0.0
C2254 C 0.7254 0.61373 0.98367 0.0
C2255 C 0.70552 0.60294 0.99223 0.0
H2256 H 0.98713 0.66938 0.00148 0.0
H2257 H 0.94028 0.61722 0.03594 0.0
H2258 H 0.9121 0.62308 0.02095 0.0
H2259 H 0.90079 0.64256 0.99726 0.0
H2260 H 0.94809 0.69489 0.96334 0.0
H2261 H 0.97625 0.68955 0.97915 0.0
C2262 C 0.97075 0.65924 0.00573 0.0
C2263 C 0.96575 0.64275 0.01964 0.0
C2264 C 0.95478 0.66278 0.99719 0.0
C2265 C 0.94452 0.62999 0.02523 0.0
C2266 C 0.92843 0.63331 0.01663 0.0
C2267 C 0.91727 0.65274 0.99331 0.0
C2268 C 0.92237 0.66902 0.97906 0.0
C2269 C 0.93336 0.64957 0.00247 0.0
C2270 C 0.94382 0.68235 0.97437 0.0
C2271 C 0.95988 0.67923 0.9833 0.0
H2272 H 0.37283 0.33588 0.97088 0.0
H2273 H 0.34711 0.31412 0.03297 0.0
H2274 H 0.33619 0.27748 0.02042 0.0
H2275 H 0.33448 0.25165 0.99218 0.0
H2276 H 0.36002 0.27306 0.93002 0.0
H2277 H 0.37062 0.30979 0.94231 0.0
C2278 C 0.36481 0.32312 0.98166 0.0
C2279 C 0.36084 0.32781 0.00286 0.0
C2280 C 0.35859 0.30201 0.97436 0.0
C2281 C 0.35042 0.31105 0.01659 0.0
C2282 C 0.34414 0.29004 0.00943 0.0
C2283 C 0.34212 0.2643 0.9812 0.0
C2284 C 0.3464 0.2596 0.96019 0.0
C2285 C 0.34817 0.28535 0.98838 0.0
C2286 C 0.35671 0.27628 0.94635 0.0
C2287 C 0.3627 0.29727 0.95334 0.0
H2288 H 0.67301 0.02066 0.02678 0.0
H2289 H 0.68387 0.08386 0.04227 0.0
H2290 H 0.71832 0.10008 0.02654 0.0
H2291 H 0.74309 0.09613 0.00448 0.0
H2292 H 0.7318 0.03314 0.98731 0.0
H2293 H 0.69991 0.01699 0.00796 0.0
C2294 C 0.68302 0.03799 0.02701 0.0
C2295 C 0.67563 0.05097 0.03533 0.0
C2296 C 0.70265 0.04723 0.0175 0.0
C2297 C 0.68899 0.07344 0.03573 0.0
C2298 C 0.7087 0.08275 0.0267 0.0
C2299 C 0.73372 0.07887 0.00545 0.0
C2300 C 0.73946 0.06576 0.99414 0.0
C2301 C 0.7153 0.06976 0.01688 0.0
C2302 C 0.72758 0.0435 0.99587 0.0
C2303 C 0.70932 0.03429 0.00754 0.0
H2304 H 0.65741 0.96638 0.0346 0.0
H2305 H 0.59042 0.92882 0.0466 0.0
H2306 H 0.59541 0.90031 0.05908 0.0
H2307 H 0.6194 0.88756 0.06936 0.0
H2308 H 0.68741 0.92749 0.06187 0.0
H2309 H 0.68125 0.95312 0.04405 0.0
C2310 C 0.64382 0.95179 0.03959 0.0
C2311 C 0.62356 0.94966 0.03968 0.0
C2312 C 0.64701 0.93588 0.04755 0.0
C2313 C 0.60617 0.93082 0.04647 0.0
C2314 C 0.60904 0.91455 0.05362 0.0
C2315 C 0.63296 0.90191 0.064 0.0
C2316 C 0.6539 0.90556 0.06729 0.0
C2317 C 0.62951 0.91718 0.05476 0.0
C2318 C 0.67107 0.92398 0.05944 0.0
C2319 C 0.66761 0.93884 0.04944 0.0
H2320 H 0.09094 0.70691 0.05979 0.0
H2321 H 0.02702 0.69301 0.06943 0.0
H2322 H 0.04201 0.72995 0.08479 0.0
H2323 H 0.07371 0.7652 0.09915 0.0
H2324 H 0.13739 0.77843 0.0897 0.0
H2325 H 0.12206 0.74284 0.07058 0.0
C2326 C 0.08023 0.712 0.06498 0.0
C2327 C 0.05794 0.69712 0.06375 0.0
C2328 C 0.08895 0.73313 0.07408 0.0
C2329 C 0.04429 0.70408 0.07034 0.0
C2330 C 0.05285 0.72521 0.07921 0.0
C2331 C 0.08414 0.76034 0.09257 0.0
C2332 C 0.10661 0.77416 0.0962 0.0
C2333 C 0.07521 0.73972 0.08172 0.0
C2334 C 0.12002 0.7678 0.08754 0.0
C2335 C 0.11129 0.74751 0.07654 0.0
H2336 H 0.31677 0.36121 0.02508 0.0
H2337 H 0.339 0.42366 0.0582 0.0
H2338 H 0.30468 0.40957 0.07354 0.0
H2339 H 0.26911 0.3796 0.07891 0.0
H2340 H 0.24542 0.31719 0.04512 0.0
H2341 H 0.27975 0.33114 0.02909 0.0
C2342 C 0.31404 0.37175 0.03554 0.0
C2343 C 0.33053 0.39347 0.04048 0.0
C2344 C 0.2941 0.36355 0.04438 0.0
C2345 C 0.32668 0.40689 0.05407 0.0
C2346 C 0.30703 0.39885 0.06293 0.0
C2347 C 0.27117 0.36907 0.06767 0.0
C2348 C 0.25458 0.34739 0.06313 0.0
C2349 C 0.29072 0.37722 0.05832 0.0
C2350 C 0.25796 0.33391 0.04906 0.0
C2351 C 0.27755 0.3419 0.03979 0.0
H2352 H 0.70855 0.71503 0.40419 0.0
H2353 H 0.70249 0.67851 0.34373 0.0
H2354 H 0.72641 0.66826 0.36092 0.0
H2355 H 0.74859 0.66911 0.39333 0.0
H2356 H 0.75442 0.70537 0.4538 0.0
H2357 H 0.73105 0.71626 0.43639 0.0
C2358 C 0.71258 0.70496 0.39469 0.0
C2359 C 0.7037 0.69756 0.37268 0.0
C2360 C 0.72619 0.69894 0.40473 0.0
C2361 C 0.70907 0.68446 0.36069 0.0
C2362 C 0.72271 0.67852 0.37052 0.0
C2363 C 0.74454 0.67921 0.40275 0.0
C2364 C 0.7531 0.68632 0.42486 0.0
C2365 C 0.73118 0.68548 0.3926 0.0
C2366 C 0.74808 0.69976 0.43673 0.0
C2367 C 0.73471 0.70596 0.4268 0.0
H2368 H 0.32069 0.01405 0.38834 0.0
H2369 H 0.29045 0.98377 0.446 0.0
H2370 H 0.29932 0.01843 0.46338 0.0
H2371 H 0.31554 0.0573 0.46219 0.0
H2372 H 0.34477 0.08734 0.40407 0.0
H2373 H 0.33681 0.05287 0.38713 0.0
C2374 C 0.31601 0.015 0.40471 0.0
C2375 C 0.30487 0.9963 0.4158 0.0
C2376 C 0.32113 0.03498 0.41461 0.0
C2377 C 0.29899 0.99788 0.43703 0.0
C2378 C 0.30408 0.01771 0.44701 0.0
C2379 C 0.32005 0.05629 0.44576 0.0
C2380 C 0.33078 0.07493 0.43447 0.0
C2381 C 0.3151 0.03635 0.43594 0.0
C2382 C 0.33681 0.07336 0.41331 0.0
C2383 C 0.33209 0.0536 0.40351 0.0
H2384 H 0.01747 0.27089 0.39739 0.0
H2385 H 0.00409 0.31376 0.36378 0.0
H2386 H 0.96908 0.29774 0.37889 0.0
H2387 H 0.9427 0.27193 0.40239 0.0
H2388 H 0.95868 0.232 0.43868 0.0
H2389 H 0.99209 0.24633 0.42154 0.0
C2390 C 0.00679 0.27656 0.39313 0.0
C2391 C 0.01321 0.29328 0.37931 0.0
C2392 C 0.98715 0.26781 0.4024 0.0
C2393 C 0.99941 0.30079 0.37432 0.0
C2394 C 0.97945 0.29169 0.38299 0.0
C2395 C 0.95356 0.26649 0.4067 0.0
C2396 C 0.94787 0.25058 0.42156 0.0
C2397 C 0.97324 0.27531 0.39726 0.0
C2398 C 0.9622 0.24371 0.42682 0.0
C2399 C 0.98147 0.25204 0.41717 0.0
H2400 H 0.07985 0.40521 0.34075 0.0
H2401 H 0.03589 0.38508 0.39135 0.0
H2402 H 0.02496 0.40996 0.38071 0.0
H2403 H 0.02616 0.43578 0.3554 0.0
H2404 H 0.06995 0.45552 0.30472 0.0
H2405 H 0.08281 0.43266 0.31718 0.0
C2406 C 0.06802 0.40639 0.3496 0.0
C2407 C 0.05859 0.39315 0.36669 0.0
C2408 C 0.06172 0.42065 0.34334 0.0
C2409 C 0.0434 0.39503 0.37808 0.0
C2410 C 0.03707 0.40921 0.37197 0.0
C2411 C 0.0386 0.43513 0.3472 0.0
C2412 C 0.04709 0.44732 0.32919 0.0
C2413 C 0.04583 0.42181 0.35436 0.0
C2414 C 0.06334 0.4465 0.31882 0.0
C2415 C 0.0706 0.43331 0.32582 0.0
H2416 H 0.58054 0.64896 0.3168 0.0
H2417 H 0.62665 0.644 0.35941 0.0
H2418 H 0.60946 0.60596 0.34633 0.0
H2419 H 0.58068 0.57396 0.32321 0.0
H2420 H 0.5364 0.58039 0.27905 0.0
H2421 H 0.55352 0.61803 0.29241 0.0
C2422 C 0.58677 0.63954 0.32334 0.0
C2423 C 0.60462 0.64916 0.33924 0.0
C2424 C 0.57714 0.61795 0.31546 0.0
C2425 C 0.61281 0.63687 0.34723 0.0
C2426 C 0.60301 0.61516 0.33974 0.0
C2427 C 0.57497 0.58367 0.31633 0.0
C2428 C 0.55703 0.57422 0.30042 0.0
C2429 C 0.58512 0.60551 0.32386 0.0
C2430 C 0.54981 0.58706 0.29172 0.0
C2431 C 0.55965 0.60864 0.29925 0.0
H2432 H 0.34561 0.91118 0.3734 0.0
H2433 H 0.3478 0.97117 0.37989 0.0
H2434 H 0.38187 0.98909 0.36312 0.0
H2435 H 0.40898 0.98674 0.34319 0.0
H2436 H 0.40693 0.92675 0.33761 0.0
H2437 H 0.37471 0.90979 0.35725 0.0
C2438 C 0.35366 0.92824 0.37139 0.0
C2439 C 0.34405 0.93975 0.37764 0.0
C2440 C 0.3731 0.93838 0.3616 0.0
C2441 C 0.35483 0.96191 0.37519 0.0
C2442 C 0.37425 0.97214 0.36548 0.0
C2443 C 0.40174 0.97007 0.34664 0.0
C2444 C 0.41014 0.95795 0.33852 0.0
C2445 C 0.38325 0.9604 0.35812 0.0
C2446 C 0.40047 0.93632 0.3431 0.0
C2447 C 0.38211 0.92663 0.35447 0.0
H2448 H 0.61149 0.94357 0.35492 0.0
H2449 H 0.6534 0.00968 0.38107 0.0
H2450 H 0.63124 0.01975 0.35981 0.0
H2451 H 0.60108 0.01017 0.3327 0.0
H2452 H 0.55643 0.94335 0.30992 0.0
H2453 H 0.57905 0.93344 0.33025 0.0
C2454 C 0.61562 0.96013 0.35608 0.0
C2455 C 0.63406 0.97584 0.36951 0.0
C2456 C 0.6026 0.96581 0.34407 0.0
C2457 C 0.63919 0.99723 0.37099 0.0
C2458 C 0.62661 0.00305 0.35871 0.0
C2459 C 0.59589 0.99334 0.33241 0.0
C2460 C 0.57699 0.97769 0.31939 0.0
C2461 C 0.60839 0.9875 0.34506 0.0
C2462 C 0.57114 0.95603 0.31909 0.0
C2463 C 0.58394 0.95021 0.33102 0.0
H2464 H 0.02 0.664 0.32314 0.0
H2465 H 0.08812 0.68788 0.33113 0.0
H2466 H 0.08109 0.65306 0.31655 0.0
H2467 H 0.05572 0.61578 0.30179 0.0
H2468 H 0.98767 0.59194 0.29283 0.0
H2469 H 0.99457 0.6267 0.30776 0.0
C2470 C 0.03331 0.66159 0.32173 0.0
C2471 C 0.05456 0.67857 0.32826 0.0
C2472 C 0.02918 0.6415 0.31319 0.0
C2473 C 0.07161 0.67514 0.32623 0.0
C2474 C 0.06761 0.65521 0.31788 0.0
C2475 C 0.0424 0.61824 0.30282 0.0
C2476 C 0.02121 0.60124 0.29612 0.0
C2477 C 0.04649 0.6383 0.31127 0.0
C2478 C 0.00412 0.60464 0.29805 0.0
C2479 C 0.00806 0.62456 0.3065 0.0
H2480 H 0.34982 0.40772 0.36294 0.0
H2481 H 0.33773 0.34354 0.36494 0.0
H2482 H 0.37066 0.3542 0.34741 0.0
H2483 H 0.4008 0.38078 0.32774 0.0
H2484 H 0.41146 0.44421 0.32447 0.0
H2485 H 0.3813 0.43487 0.34634 0.0
C2486 C 0.35453 0.39612 0.35988 0.0
C2487 C 0.34118 0.37482 0.36503 0.0
C2488 C 0.37316 0.40217 0.34932 0.0
C2489 C 0.34762 0.36003 0.361 0.0
C2490 C 0.36643 0.36608 0.35089 0.0
C2491 C 0.39664 0.39257 0.33217 0.0
C2492 C 0.40801 0.413 0.32434 0.0
C2493 C 0.37899 0.38694 0.3444 0.0
C2494 C 0.40261 0.42825 0.33009 0.0
C2495 C 0.38543 0.42295 0.3426 0.0
H2496 H 0.29674 0.2909 0.40546 0.0
H2497 H 0.26707 0.25322 0.34315 0.0
H2498 H 0.27991 0.22936 0.3526 0.0
H2499 H 0.30021 0.21966 0.37866 0.0
H2500 H 0.33135 0.25918 0.43978 0.0
H2501 H 0.31747 0.28204 0.43063 0.0
C2502 C 0.29286 0.27733 0.394 0.0
C2503 C 0.28074 0.27365 0.37375 0.0
C2504 C 0.30081 0.2642 0.39925 0.0
C2505 C 0.27627 0.25629 0.3589 0.0
C2506 C 0.28366 0.2427 0.36428 0.0
C2507 C 0.30396 0.23335 0.38984 0.0
C2508 C 0.31692 0.23791 0.40973 0.0
C2509 C 0.29607 0.24659 0.38437 0.0
C2510 C 0.32172 0.25563 0.42419 0.0
C2511 C 0.31366 0.26859 0.41906 0.0
H2512 H 0.76369 0.02768 0.39715 0.0
H2513 H 0.70173 0.02148 0.39819 0.0
H2514 H 0.71923 0.05875 0.41366 0.0
H2515 H 0.75202 0.09203 0.43035 0.0
H2516 H 0.81367 0.09763 0.42909 0.0
H2517 H 0.79637 0.06167 0.41032 0.0
C2518 C 0.75398 0.03451 0.4005 0.0
C2519 C 0.73142 0.02168 0.39683 0.0
C2520 C 0.76409 0.05581 0.40964 0.0
C2521 C 0.71914 0.03092 0.40103 0.0
C2522 C 0.72912 0.05223 0.40996 0.0
C2523 C 0.76163 0.08545 0.42567 0.0
C2524 C 0.784 0.09723 0.43153 0.0
C2525 C 0.75156 0.06466 0.41488 0.0
C2526 C 0.79633 0.08859 0.42528 0.0
C2527 C 0.78649 0.0681 0.41444 0.0
H2528 H 0.9799 0.70056 0.3583 0.0
H2529 H 0.00454 0.76299 0.39273 0.0
H2530 H 0.97021 0.75016 0.40759 0.0
H2531 H 0.9341 0.7212 0.41249 0.0
H2532 H 0.90751 0.65914 0.37648 0.0
H2533 H 0.94189 0.67175 0.36109 0.0
C2534 C 0.97768 0.71136 0.36893 0.0
C2535 C 0.99488 0.7327 0.3744 0.0
C2536 C 0.95765 0.70393 0.37738 0.0
C2537 C 0.99166 0.74652 0.38813 0.0
C2538 C 0.97201 0.73919 0.39676 0.0
C2539 C 0.93545 0.71046 0.40083 0.0
C2540 C 0.91801 0.68923 0.39565 0.0
C2541 C 0.95499 0.71793 0.39164 0.0
C2542 C 0.92064 0.6755 0.38107 0.0
C2543 C 0.94029 0.68274 0.37211 0.0
H2544 H 0.35813 0.02263 0.72324 0.0
H2545 H 0.4119 0.07599 0.69651 0.0
H2546 H 0.4366 0.06753 0.71551 0.0
H2547 H 0.4429 0.04525 0.74008 0.0
H2548 H 0.38912 0.99273 0.7677 0.0
H2549 H 0.36439 0.00047 0.74769 0.0
C2550 C 0.37524 0.03239 0.72144 0.0
C2551 C 0.38314 0.04995 0.70844 0.0
C2552 C 0.38934 0.02758 0.73257 0.0
C2553 C 0.40538 0.06242 0.70642 0.0
C2554 C 0.41951 0.0576 0.7173 0.0
C2555 C 0.4258 0.03563 0.74192 0.0
C2556 C 0.41791 0.01848 0.75547 0.0
C2557 C 0.41168 0.04031 0.73055 0.0
C2558 C 0.39563 0.00589 0.75724 0.0
C2559 C 0.38148 0.01038 0.74589 0.0
H2560 H 0.97434 0.3361 0.76669 0.0
H2561 H 0.9353 0.33168 0.70838 0.0
H2562 H 0.93843 0.3653 0.72131 0.0
H2563 H 0.95238 0.39606 0.74913 0.0
H2564 H 0.99131 0.40031 0.80739 0.0
H2565 H 0.98822 0.36672 0.79441 0.0
C2566 C 0.96649 0.34246 0.75678 0.0
C2567 C 0.95457 0.33133 0.73659 0.0
C2568 C 0.96838 0.3618 0.76428 0.0
C2569 C 0.94457 0.33988 0.72397 0.0
C2570 C 0.94634 0.35911 0.73136 0.0
C2571 C 0.96002 0.38952 0.75907 0.0
C2572 C 0.97204 0.40066 0.77921 0.0
C2573 C 0.95817 0.37019 0.75151 0.0
C2574 C 0.98215 0.39217 0.79173 0.0
C2575 C 0.98031 0.37292 0.78437 0.0
H2576 H 0.65391 0.6334 0.70073 0.0
H2577 H 0.66621 0.5855 0.72358 0.0
H2578 H 0.63239 0.56823 0.74032 0.0
H2579 H 0.60045 0.56754 0.75002 0.0
H2580 H 0.58576 0.61319 0.72527 0.0
H2581 H 0.61981 0.63094 0.70836 0.0
C2582 C 0.64908 0.61909 0.70922 0.0
C2583 C 0.66265 0.61082 0.71091 0.0
C2584 C 0.62938 0.609 0.71875 0.0
C2585 C 0.65611 0.59221 0.72192 0.0
C2586 C 0.63679 0.58234 0.73162 0.0
C2587 C 0.60425 0.58102 0.74047 0.0
C2588 C 0.59029 0.5888 0.73883 0.0
C2589 C 0.62342 0.59069 0.73028 0.0
C2590 C 0.5962 0.60689 0.72705 0.0
C2591 C 0.61562 0.61697 0.71721 0.0
H2592 H 0.67776 0.7021 0.70796 0.0
H2593 H 0.73334 0.72635 0.67095 0.0
H2594 H 0.72824 0.75496 0.65947 0.0
H2595 H 0.70694 0.77185 0.65819 0.0
H2596 H 0.65084 0.7474 0.69426 0.0
H2597 H 0.65714 0.71999 0.7078 0.0
C2598 C 0.68888 0.71375 0.69755 0.0
C2599 C 0.70589 0.71202 0.6903 0.0
C2600 C 0.68569 0.73004 0.69075 0.0
C2601 C 0.72007 0.72723 0.67672 0.0
C2602 C 0.71717 0.74361 0.67013 0.0
C2603 C 0.69633 0.76081 0.66938 0.0
C2604 C 0.67855 0.76175 0.67537 0.0
C2605 C 0.69991 0.74501 0.67684 0.0
C2606 C 0.66461 0.74695 0.68939 0.0
C2607 C 0.66823 0.73132 0.69714 0.0
H2608 H 0.2896 0.97626 0.67912 0.0
H2609 H 0.24533 0.98693 0.6402 0.0
H2610 H 0.22582 0.94967 0.62455 0.0
H2611 H 0.22086 0.91415 0.62235 0.0
H2612 H 0.2625 0.90189 0.6638 0.0
H2613 H 0.28404 0.93991 0.67735 0.0
C2614 C 0.2757 0.9704 0.66719 0.0
C2615 C 0.26887 0.98431 0.6609 0.0
C2616 C 0.26423 0.94877 0.65854 0.0
C2617 C 0.25079 0.9765 0.64549 0.0
C2618 C 0.23968 0.95523 0.63644 0.0
C2619 C 0.23445 0.91963 0.63459 0.0
C2620 C 0.2398 0.905 0.64222 0.0
C2621 C 0.24615 0.94121 0.64299 0.0
C2622 C 0.25803 0.91272 0.65747 0.0
C2623 C 0.27024 0.93445 0.66541 0.0
H2624 H 0.01874 0.25866 0.6984 0.0
H2625 H 0.03103 0.31849 0.72964 0.0
H2626 H 0.06669 0.33757 0.71578 0.0
H2627 H 0.09397 0.3371 0.69397 0.0
H2628 H 0.07903 0.27705 0.66024 0.0
H2629 H 0.04504 0.25826 0.6763 0.0
C2630 C 0.02926 0.27586 0.70242 0.0
C2631 C 0.02229 0.2871 0.71517 0.0
C2632 C 0.04935 0.2867 0.69398 0.0
C2633 C 0.03604 0.30944 0.71988 0.0
C2634 C 0.0564 0.32035 0.71194 0.0
C2635 C 0.08325 0.31994 0.69001 0.0
C2636 C 0.08944 0.30857 0.67615 0.0
C2637 C 0.06315 0.30915 0.69877 0.0
C2638 C 0.07522 0.28626 0.67137 0.0
C2639 C 0.05557 0.27544 0.68036 0.0
H2640 H 0.32938 0.33736 0.67063 0.0
H2641 H 0.27956 0.27848 0.69395 0.0
H2642 H 0.25213 0.28538 0.67906 0.0
H2643 H 0.24234 0.30788 0.65876 0.0
H2644 H 0.29237 0.36719 0.63649 0.0
H2645 H 0.31978 0.36045 0.65174 0.0
C2646 C 0.31252 0.32601 0.67247 0.0
C2647 C 0.30649 0.30734 0.68323 0.0
C2648 C 0.29692 0.33017 0.66405 0.0
C2649 C 0.28461 0.29296 0.68572 0.0
C2650 C 0.26893 0.29687 0.67717 0.0
C2651 C 0.25926 0.31925 0.65719 0.0
C2652 C 0.26538 0.33791 0.64638 0.0
C2653 C 0.2749 0.31535 0.66617 0.0
C2654 C 0.28733 0.35275 0.64479 0.0
C2655 C 0.30297 0.34886 0.65344 0.0
H2656 H 0.70208 0.00746 0.63763 0.0
H2657 H 0.67198 0.98448 0.69755 0.0
H2658 H 0.6649 0.94878 0.68672 0.0
H2659 H 0.66758 0.92408 0.66052 0.0
H2660 H 0.6974 0.94679 0.60047 0.0
H2661 H 0.7044 0.98258 0.61117 0.0
C2662 C 0.69397 0.99465 0.64833 0.0
C2663 C 0.6876 0.99871 0.66839 0.0
C2664 C 0.68993 0.97408 0.64201 0.0
C2665 C 0.6771 0.98188 0.68203 0.0
C2666 C 0.67301 0.96141 0.67585 0.0
C2667 C 0.6754 0.9368 0.64965 0.0
C2668 C 0.68193 0.93274 0.62971 0.0
C2669 C 0.67935 0.95732 0.65589 0.0
C2670 C 0.6924 0.94952 0.61601 0.0
C2671 C 0.69633 0.96998 0.62208 0.0
H2672 H 0.00603 0.69546 0.69994 0.0
H2673 H 0.99939 0.74766 0.67989 0.0
H2674 H 0.03451 0.76446 0.66564 0.0
H2675 H 0.06606 0.76366 0.65741 0.0
H2676 H 0.0749 0.7134 0.67958 0.0
H2677 H 0.03951 0.69611 0.69382 0.0
C2678 C 0.01234 0.71057 0.69256 0.0
C2679 C 6e-05 0.72025 0.69093 0.0
C2680 C 0.03275 0.72034 0.68454 0.0
C2681 C 0.00851 0.7399 0.68145 0.0
C2682 C 0.02856 0.74949 0.67319 0.0
C2683 C 0.06066 0.74923 0.66585 0.0
C2684 C 0.07338 0.74004 0.66757 0.0
C2685 C 0.04071 0.73978 0.67453 0.0
C2686 C 0.06546 0.72081 0.67781 0.0
C2687 C 0.04527 0.71098 0.68612 0.0
H2688 H 0.92351 0.59904 0.71238 0.0
H2689 H 0.98975 0.63833 0.69824 0.0
H2690 H 0.99774 0.61281 0.71353 0.0
H2691 H 0.98678 0.58129 0.7341 0.0
H2692 H 0.91993 0.54043 0.74586 0.0
H2693 H 0.91148 0.56478 0.72857 0.0
C2694 C 0.93962 0.60185 0.71241 0.0
C2695 C 0.95604 0.62065 0.7044 0.0
C2696 C 0.94411 0.58701 0.72109 0.0
C2697 C 0.97679 0.62398 0.70429 0.0
C2698 C 0.98142 0.60944 0.71315 0.0
C2699 C 0.97023 0.57731 0.73245 0.0
C2700 C 0.95417 0.55917 0.7418 0.0
C2701 C 0.96532 0.59114 0.72202 0.0
C2702 C 0.93286 0.55459 0.73953 0.0
C2703 C 0.92792 0.56844 0.72946 0.0
H2704 H 0.37315 0.35264 0.73663 0.0
H2705 H 0.43225 0.3556 0.72474 0.0
H2706 H 0.45292 0.39385 0.73674 0.0
H2707 H 0.45451 0.42578 0.75274 0.0
H2708 H 0.39601 0.42293 0.76678 0.0
H2709 H 0.3747 0.38538 0.75127 0.0
C2710 C 0.39053 0.3617 0.73646 0.0
C2711 C 0.40115 0.35122 0.72997 0.0
C2712 C 0.4024 0.38367 0.74377 0.0
C2713 C 0.42368 0.36321 0.72984 0.0
C2714 C 0.43553 0.38509 0.73669 0.0
C2715 C 0.43708 0.41692 0.75249 0.0
C2716 C 0.42685 0.42697 0.76123 0.0
C2717 C 0.42509 0.39534 0.74409 0.0
C2718 C 0.40424 0.41552 0.76017 0.0
C2719 C 0.39209 0.39404 0.75144 0.0
H2720 H 0.64097 0.02774 0.69748 0.0
H2721 H 0.64092 0.08432 0.6808 0.0
H2722 H 0.6061 0.07054 0.69526 0.0
H2723 H 0.57812 0.04486 0.71681 0.0
H2724 H 0.57863 0.98913 0.73556 0.0
H2725 H 0.61051 -0.00016 0.71579 0.0
C2726 C 0.63306 0.03678 0.69655 0.0
C2727 C 0.6436 0.05712 0.6883 0.0
C2728 C 0.61324 0.02902 0.70549 0.0
C2729 C 0.63324 0.06872 0.68729 0.0
C2730 C 0.61335 0.06089 0.6956 0.0
C2731 C 0.58511 0.03497 0.71638 0.0
C2732 C 0.57629 0.01645 0.72787 0.0
C2733 C 0.60362 0.04147 0.70546 0.0
C2734 C 0.58517 0.00349 0.72682 0.0
C2735 C 0.60348 0.00969 0.71565 0.0
loop_
_geom_bond_atom_site_label_1
_geom_bond_atom_site_label_2
_geom_bond_distance
_geom_bond_site_symmetry_2
_ccdc_geom_bond_type
Zn0 O3 2.031 . S
Zn0 O5 2.049 . S
Zn0 O10 2.067 . S
Zn1 O2 1.962 1_455 S
Zn1 O4 1.986 . S
Zn1 O6 1.996 1_455 S
Zn1 O9 1.943 . S
O2 Zn1 1.962 1_655 S
O2 C7 1.254 . S
O3 Zn0 2.031 . S
O3 C7 1.269 . S
O4 Zn1 1.986 . S
O4 C11 1.262 . S
O5 Zn0 2.049 . S
O5 C13 1.260 . S
O6 Zn1 1.996 1_655 S
O6 C13 1.257 . S
C7 O2 1.254 . S
C7 O3 1.269 . S
C8 O9 1.223 1_556 S
C8 O10 1.257 1_456 S
O9 Zn1 1.943 . S
O9 C8 1.223 1_554 S
O10 Zn0 2.067 . S
O10 C8 1.257 1_654 S
C11 O4 1.262 . S
C11 O12 1.232 . S
O12 C11 1.232 . S
C13 O5 1.260 . S
C13 O6 1.257 . S
Zn14 O17 2.031 . S
Zn14 O19 2.049 . S
Zn14 O24 2.067 . S
Zn15 O16 1.962 . S
Zn15 O18 1.986 . S
Zn15 O20 1.996 . S
Zn15 O23 1.943 . S
O16 Zn15 1.962 . S
O16 C21 1.254 . S
O17 Zn14 2.031 . S
O17 C21 1.269 . S
O18 Zn15 1.986 . S
O18 C25 1.262 . S
O19 Zn14 2.049 . S
O19 C27 1.260 . S
O20 Zn15 1.996 . S
O20 C27 1.257 . S
C21 O16 1.254 . S
C21 O17 1.269 . S
C22 O23 1.249 . S
C22 O24 1.270 . S
O23 Zn15 1.943 . S
O23 C22 1.249 . S
O24 Zn14 2.067 . S
O24 C22 1.270 . S
C25 O18 1.262 . S
C25 O26 1.232 . S
O26 C25 1.232 . S
C27 O19 1.260 . S
C27 O20 1.257 . S
Zn28 O31 2.031 . S
Zn28 O33 2.049 . S
Zn28 O38 2.067 . S
Zn29 O30 1.962 1_545 S
Zn29 O32 1.973 1_554 S
Zn29 O34 1.996 1_545 S
Zn29 O37 1.943 . S
O30 Zn29 1.962 1_565 S
O30 C35 1.254 . S
O31 Zn28 2.031 . S
O31 C35 1.269 . S
O32 Zn29 1.973 1_556 S
O32 C39 1.252 1_556 S
O33 Zn28 2.049 . S
O33 C41 1.260 1_554 S
O34 Zn29 1.996 1_565 S
O34 C41 1.257 1_554 S
C35 O30 1.254 . S
C35 O31 1.269 . S
C36 O37 1.249 . S
C36 O38 1.270 1_545 S
O37 Zn29 1.943 . S
O37 C36 1.249 . S
O38 Zn28 2.067 . S
O38 C36 1.270 1_565 S
C39 O32 1.252 1_554 S
C39 O40 1.232 . S
O40 C39 1.232 . S
C41 O33 1.260 1_556 S
C41 O34 1.257 1_556 S
Zn42 O45 2.031 . S
Zn42 O47 2.049 . S
Zn42 O52 2.067 . S
Zn43 O44 1.962 1_655 S
Zn43 O46 1.986 . S
Zn43 O48 1.996 1_655 S
Zn43 O51 1.943 . S
O44 Zn43 1.962 1_455 S
O44 C49 1.254 . S
O45 Zn42 2.031 . S
O45 C49 1.269 . S
O46 Zn43 1.986 . S
O46 C53 1.262 . S
O47 Zn42 2.049 . S
O47 C55 1.260 . S
O48 Zn43 1.996 1_455 S
O48 C55 1.257 . S
C49 O44 1.254 . S
C49 O45 1.269 . S
C50 O51 1.249 . S
C50 O52 1.270 1_655 S
O51 Zn43 1.943 . S
O51 C50 1.249 . S
O52 Zn42 2.067 . S
O52 C50 1.270 1_455 S
C53 O46 1.262 . S
C53 O54 1.232 . S
O54 C53 1.232 . S
C55 O47 1.260 . S
C55 O48 1.257 . S
Zn56 O59 2.031 . S
Zn56 O61 2.049 1_554 S
Zn56 O66 2.067 . S
Zn57 O58 1.962 . S
Zn57 O60 1.986 1_554 S
Zn57 O62 1.996 1_554 S
Zn57 O65 1.943 . S
O58 Zn57 1.962 . S
O58 C63 1.254 . S
O59 Zn56 2.031 . S
O59 C63 1.269 . S
O60 Zn57 1.986 1_556 S
O60 C67 1.262 . S
O61 Zn56 2.049 1_556 S
O61 C69 1.260 . S
O62 Zn57 1.996 1_556 S
O62 C69 1.257 . S
C63 O58 1.254 . S
C63 O59 1.269 . S
C64 O65 1.249 . S
C64 O66 1.270 . S
O65 Zn57 1.943 . S
O65 C64 1.249 . S
O66 Zn56 2.067 . S
O66 C64 1.270 . S
C67 O60 1.262 . S
C67 O68 1.232 1_556 S
O68 C67 1.232 1_554 S
C69 O61 1.260 . S
C69 O62 1.257 . S
Zn70 O73 2.031 . S
Zn70 O75 2.049 . S
Zn70 O80 2.067 . S
Zn71 O72 1.962 1_565 S
Zn71 O74 1.986 . S
Zn71 O76 1.996 1_565 S
Zn71 O79 1.943 . S
O72 Zn71 1.962 1_545 S
O72 C77 1.254 . S
O73 Zn70 2.031 . S
O73 C77 1.269 . S
O74 Zn71 1.986 . S
O74 C81 1.262 . S
O75 Zn70 2.049 . S
O75 C83 1.260 . S
O76 Zn71 1.996 1_545 S
O76 C83 1.257 . S
C77 O72 1.254 . S
C77 O73 1.269 . S
C78 O79 1.249 . S
C78 O80 1.270 1_565 S
O79 Zn71 1.943 . S
O79 C78 1.249 . S
O80 Zn70 2.067 . S
O80 C78 1.270 1_545 S
C81 O74 1.262 . S
C81 O82 1.232 . S
O82 C81 1.232 . S
C83 O75 1.260 . S
C83 O76 1.257 . S
Zn84 O87 2.031 . S
Zn84 O89 2.049 . S
Zn84 O94 2.067 . S
Zn85 O86 1.962 . S
Zn85 O88 1.986 . S
Zn85 O90 1.996 . S
Zn85 O93 1.943 . S
O86 Zn85 1.962 . S
O86 C91 1.254 . S
O87 Zn84 2.031 . S
O87 C91 1.269 . S
O88 Zn85 1.986 . S
O88 C95 1.262 . S
O89 Zn84 2.049 . S
O89 C97 1.260 . S
O90 Zn85 1.996 . S
O90 C97 1.257 . S
C91 O86 1.254 . S
C91 O87 1.269 . S
C92 O93 1.249 . S
C92 O94 1.270 . S
O93 Zn85 1.943 . S
O93 C92 1.249 . S
O94 Zn84 2.067 . S
O94 C92 1.270 . S
C95 O88 1.262 . S
C95 O96 1.232 . S
O96 C95 1.232 . S
C97 O89 1.260 . S
C97 O90 1.257 . S
Zn98 O101 2.031 . S
Zn98 O103 2.049 . S
Zn98 O108 2.067 . S
Zn99 O100 1.962 . S
Zn99 O102 1.986 . S
Zn99 O104 1.996 . S
Zn99 O107 1.943 . S
O100 Zn99 1.962 . S
O100 C105 1.254 . S
O101 Zn98 2.031 . S
O101 C105 1.269 . S
O102 Zn99 1.986 . S
O102 C109 1.262 1_565 S
O103 Zn98 2.049 . S
O103 C111 1.260 . S
O104 Zn99 1.996 . S
O104 C111 1.257 . S
C105 O100 1.254 . S
C105 O101 1.269 . S
C106 O107 1.249 . S
C106 O108 1.270 . S
O107 Zn99 1.943 . S
O107 C106 1.249 . S
O108 Zn98 2.067 . S
O108 C106 1.270 . S
C109 O102 1.262 1_545 S
C109 O110 1.232 . S
O110 C109 1.232 . S
C111 O103 1.260 . S
C111 O104 1.257 . S
Zn112 O115 2.031 . S
Zn112 O117 2.049 . S
Zn112 O122 2.067 . S
Zn113 O114 1.962 . S
Zn113 O116 1.986 . S
Zn113 O118 1.996 . S
Zn113 O121 1.943 . S
O114 Zn113 1.962 . S
O114 C119 1.254 . S
O115 Zn112 2.031 . S
O115 C119 1.269 . S
O116 Zn113 1.986 . S
O116 C123 1.262 . S
O117 Zn112 2.049 . S
O117 C125 1.260 . S
O118 Zn113 1.996 . S
O118 C125 1.257 . S
C119 O114 1.254 . S
C119 O115 1.269 . S
C120 O121 1.249 . S
C120 O122 1.270 . S
O121 Zn113 1.943 . S
O121 C120 1.249 . S
O122 Zn112 2.067 . S
O122 C120 1.270 . S
C123 O116 1.262 . S
C123 O124 1.232 . S
O124 C123 1.232 . S
C125 O117 1.260 . S
C125 O118 1.257 . S
Zn126 O129 2.031 . S
Zn126 O131 2.049 . S
Zn126 O136 2.067 . S
Zn127 O128 1.962 . S
Zn127 O130 1.986 . S
Zn127 O132 1.996 . S
Zn127 O135 1.943 . S
O128 Zn127 1.962 . S
O128 C133 1.254 . S
O129 Zn126 2.031 . S
O129 C133 1.269 . S
O130 Zn127 1.986 . S
O130 C137 1.262 . S
O131 Zn126 2.049 . S
O131 C139 1.260 . S
O132 Zn127 1.996 . S
O132 C139 1.257 . S
C133 O128 1.254 . S
C133 O129 1.269 . S
C134 O135 1.249 . S
C134 O136 1.270 . S
O135 Zn127 1.943 . S
O135 C134 1.249 . S
O136 Zn126 2.067 . S
O136 C134 1.270 . S
C137 O130 1.262 . S
C137 O138 1.232 . S
O138 C137 1.232 . S
C139 O131 1.260 . S
C139 O132 1.257 . S
Zn140 O143 2.031 . S
Zn140 O145 2.049 . S
Zn140 O150 2.067 . S
Zn141 O142 1.962 . S
Zn141 O144 1.986 . S
Zn141 O146 1.996 . S
Zn141 O149 1.943 . S
O142 Zn141 1.962 . S
O142 C147 1.254 . S
O143 Zn140 2.031 . S
O143 C147 1.269 . S
O144 Zn141 1.986 . S
O144 C151 1.262 . S
O145 Zn140 2.049 . S
O145 C153 1.260 . S
O146 Zn141 1.996 . S
O146 C153 1.257 . S
C147 O142 1.254 . S
C147 O143 1.269 . S
C148 O149 1.249 . S
C148 O150 1.270 . S
O149 Zn141 1.943 . S
O149 C148 1.249 . S
O150 Zn140 2.067 . S
O150 C148 1.270 . S
C151 O144 1.262 . S
C151 O152 1.232 . S
O152 C151 1.232 . S
C153 O145 1.260 . S
C153 O146 1.257 . S
Zn154 O157 2.031 . S
Zn154 O159 2.049 . S
Zn154 O164 2.067 . S
Zn155 O156 1.962 . S
Zn155 O158 1.986 . S
Zn155 O160 1.996 . S
Zn155 O163 1.943 . S
O156 Zn155 1.962 . S
O156 C161 1.254 . S
O157 Zn154 2.031 . S
O157 C161 1.269 . S
O158 Zn155 1.986 . S
O158 C165 1.262 . S
O159 Zn154 2.049 . S
O159 C167 1.260 . S
O160 Zn155 1.996 . S
O160 C167 1.257 . S
C161 O156 1.254 . S
C161 O157 1.269 . S
C162 O163 1.249 . S
C162 O164 1.270 . S
O163 Zn155 1.943 . S
O163 C162 1.249 . S
O164 Zn154 2.067 . S
O164 C162 1.270 . S
C165 O158 1.262 . S
C165 O166 1.232 . S
O166 C165 1.232 . S
C167 O159 1.260 . S
C167 O160 1.257 . S
Zn168 O171 2.031 . S
Zn168 O173 2.049 . S
Zn168 O178 2.067 . S
Zn169 O170 1.962 . S
Zn169 O172 1.986 . S
Zn169 O174 1.996 . S
Zn169 O177 1.943 . S
O170 Zn169 1.962 . S
O170 C175 1.254 . S
O171 Zn168 2.031 . S
O171 C175 1.269 . S
O172 Zn169 1.986 . S
O172 C179 1.262 . S
O173 Zn168 2.049 . S
O173 C181 1.260 . S
O174 Zn169 1.996 . S
O174 C181 1.257 . S
C175 O170 1.254 . S
C175 O171 1.269 . S
C176 O177 1.249 . S
C176 O178 1.270 . S
O177 Zn169 1.943 . S
O177 C176 1.249 . S
O178 Zn168 2.067 . S
O178 C176 1.270 . S
C179 O172 1.262 . S
C179 O180 1.232 . S
O180 C179 1.232 . S
C181 O173 1.260 . S
C181 O174 1.257 . S
Zn182 O185 2.031 . S
Zn182 O187 2.049 . S
Zn182 O192 2.067 . S
Zn183 O184 1.962 . S
Zn183 O186 1.986 . S
Zn183 O188 1.996 . S
Zn183 O191 1.943 . S
O184 Zn183 1.962 . S
O184 C189 1.254 . S
O185 Zn182 2.031 . S
O185 C189 1.269 . S
O186 Zn183 1.986 . S
O186 C193 1.262 . S
O187 Zn182 2.049 . S
O187 C195 1.260 . S
O188 Zn183 1.996 . S
O188 C195 1.257 . S
C189 O184 1.254 . S
C189 O185 1.269 . S
C190 O191 1.249 . S
C190 O192 1.270 . S
O191 Zn183 1.943 . S
O191 C190 1.249 . S
O192 Zn182 2.067 . S
O192 C190 1.270 . S
C193 O186 1.262 . S
C193 O194 1.232 . S
O194 C193 1.232 . S
C195 O187 1.260 . S
C195 O188 1.257 . S
Zn196 O199 2.031 . S
Zn196 O201 2.049 . S
Zn196 O206 2.067 . S
Zn197 O198 1.962 . S
Zn197 O200 1.986 . S
Zn197 O202 1.996 . S
Zn197 O205 1.943 . S
O198 Zn197 1.962 . S
O198 C203 1.254 . S
O199 Zn196 2.031 . S
O199 C203 1.269 . S
O200 Zn197 1.986 . S
O200 C207 1.262 . S
O201 Zn196 2.049 . S
O201 C209 1.260 . S
O202 Zn197 1.996 . S
O202 C209 1.257 . S
C203 O198 1.254 . S
C203 O199 1.269 . S
C204 O205 1.249 . S
C204 O206 1.270 . S
O205 Zn197 1.943 . S
O205 C204 1.249 . S
O206 Zn196 2.067 . S
O206 C204 1.270 . S
C207 O200 1.262 . S
C207 O208 1.232 . S
O208 C207 1.232 . S
C209 O201 1.260 . S
C209 O202 1.257 . S
Zn210 O213 2.031 . S
Zn210 O215 2.049 . S
Zn210 O220 2.067 . S
Zn211 O212 1.962 . S
Zn211 O214 1.986 . S
Zn211 O216 1.996 . S
Zn211 O219 1.943 . S
O212 Zn211 1.962 . S
O212 C217 1.254 . S
O213 Zn210 2.031 . S
O213 C217 1.269 . S
O214 Zn211 1.986 . S
O214 C221 1.262 . S
O215 Zn210 2.049 . S
O215 C223 1.260 . S
O216 Zn211 1.996 . S
O216 C223 1.257 . S
C217 O212 1.254 . S
C217 O213 1.269 . S
C218 O219 1.249 . S
C218 O220 1.270 . S
O219 Zn211 1.943 . S
O219 C218 1.249 . S
O220 Zn210 2.067 . S
O220 C218 1.270 . S
C221 O214 1.262 . S
C221 O222 1.232 . S
O222 C221 1.232 . S
C223 O215 1.260 . S
C223 O216 1.257 . S
Zn224 O227 2.031 . S
Zn224 O229 2.049 . S
Zn224 O234 2.067 . S
Zn225 O226 1.962 . S
Zn225 O228 1.986 . S
Zn225 O230 1.996 . S
Zn225 O233 1.943 . S
O226 Zn225 1.962 . S
O226 C231 1.254 . S
O227 Zn224 2.031 . S
O227 C231 1.269 . S
O228 Zn225 1.986 . S
O228 C235 1.262 1_545 S
O229 Zn224 2.049 . S
O229 C237 1.260 . S
O230 Zn225 1.996 . S
O230 C237 1.257 . S
C231 O226 1.254 . S
C231 O227 1.269 . S
C232 O233 1.249 . S
C232 O234 1.270 . S
O233 Zn225 1.943 . S
O233 C232 1.249 . S
O234 Zn224 2.067 . S
O234 C232 1.270 . S
C235 O228 1.262 1_565 S
C235 O236 1.232 . S
O236 C235 1.232 . S
C237 O229 1.260 . S
C237 O230 1.257 . S
Zn238 O241 2.031 . S
Zn238 O243 2.049 . S
Zn238 O248 2.067 . S
Zn239 O240 1.962 . S
Zn239 O242 1.986 . S
Zn239 O244 1.996 . S
Zn239 O247 1.943 . S
O240 Zn239 1.962 . S
O240 C245 1.254 . S
O241 Zn238 2.031 . S
O241 C245 1.269 . S
O242 Zn239 1.986 . S
O242 C249 1.262 . S
O243 Zn238 2.049 . S
O243 C251 1.260 . S
O244 Zn239 1.996 . S
O244 C251 1.257 . S
C245 O240 1.254 . S
C245 O241 1.269 . S
C246 O247 1.249 . S
C246 O248 1.270 . S
O247 Zn239 1.943 . S
O247 C246 1.249 . S
O248 Zn238 2.067 . S
O248 C246 1.270 . S
C249 O242 1.262 . S
C249 O250 1.232 . S
O250 C249 1.232 . S
C251 O243 1.260 . S
C251 O244 1.257 . S
H252 O278 0.856 . S
H253 O281 0.854 . S
H254 C289 0.930 . S
H255 C290 0.930 . S
H256 C292 0.930 . S
H257 C293 0.930 . S
H258 C295 0.931 . S
H259 C296 0.930 . S
H260 C298 0.930 . S
H261 C299 0.929 . S
H262 C301 0.930 . S
H263 C302 0.931 . S
H264 C304 0.930 . S
H265 C305 0.929 . S
H266 C307 0.931 . S
H267 C308 0.930 . S
H268 C310 0.930 . S
H269 C311 0.932 . S
H270 C313 0.930 . S
H271 C314 0.929 . S
H272 C316 0.931 . S
H273 C317 0.930 . S
H274 C319 0.929 . S
H275 C320 0.931 . S
H276 C322 0.930 . S
H277 C323 0.929 . S
O278 H252 0.856 . S
O278 C324 1.300 . S
O279 C324 1.209 . S
O280 C325 1.199 . S
O281 H253 0.854 . S
O281 C325 1.297 . S
C282 C283 1.404 . S
C282 C287 1.397 . S
C282 C288 1.492 . S
C283 C282 1.404 . S
C283 C284 1.396 . S
C283 C294 1.492 . S
C284 C283 1.396 . S
C284 C285 1.397 . S
C284 C300 1.509 . S
C285 C284 1.397 . S
C285 C286 1.412 . S
C285 C306 1.485 . S
C286 C285 1.412 . S
C286 C287 1.388 . S
C286 C312 1.490 . S
C287 C282 1.397 . S
C287 C286 1.388 . S
C287 C318 1.519 . S
C288 C282 1.492 . S
C288 C289 1.363 . S
C288 C293 1.390 . S
C289 H254 0.930 . S
C289 C288 1.363 . S
C289 C290 1.372 . S
C290 H255 0.930 . S
C290 C289 1.372 . S
C290 C291 1.383 . S
C291 C290 1.383 . S
C291 C292 1.395 . S
C292 H256 0.930 . S
C292 C291 1.395 . S
C292 C293 1.362 . S
C293 H257 0.930 . S
C293 C288 1.390 . S
C293 C292 1.362 . S
C294 C283 1.492 . S
C294 C295 1.377 . S
C294 C299 1.397 . S
C295 H258 0.931 . S
C295 C294 1.377 . S
C295 C296 1.376 . S
C296 H259 0.930 . S
C296 C295 1.376 . S
C296 C297 1.376 . S
C297 C296 1.376 . S
C297 C298 1.378 . S
C297 C324 1.486 . S
C298 H260 0.930 . S
C298 C297 1.378 . S
C298 C299 1.376 . S
C299 H261 0.929 . S
C299 C294 1.397 . S
C299 C298 1.376 . S
C300 C284 1.509 . S
C300 C301 1.391 . S
C300 C305 1.386 . S
C301 H262 0.930 . S
C301 C300 1.391 . S
C301 C302 1.375 . S
C302 H263 0.931 . S
C302 C301 1.375 . S
C302 C303 1.375 . S
C303 C302 1.375 . S
C303 C304 1.361 . S
C304 H264 0.930 . S
C304 C303 1.361 . S
C304 C305 1.399 . S
C305 H265 0.929 . S
C305 C300 1.386 . S
C305 C304 1.399 . S
C306 C285 1.485 . S
C306 C307 1.394 . S
C306 C311 1.360 . S
C307 H266 0.931 . S
C307 C306 1.394 . S
C307 C308 1.372 . S
C308 H267 0.930 . S
C308 C307 1.372 . S
C308 C309 1.397 . S
C309 C308 1.397 . S
C309 C310 1.390 . S
C309 C325 1.476 . S
C310 H268 0.930 . S
C310 C309 1.390 . S
C310 C311 1.366 . S
C311 H269 0.932 . S
C311 C306 1.360 . S
C311 C310 1.366 . S
C312 C286 1.490 . S
C312 C313 1.380 . S
C312 C317 1.386 . S
C313 H270 0.930 . S
C313 C312 1.380 . S
C313 C314 1.381 . S
C314 H271 0.929 . S
C314 C313 1.381 . S
C314 C315 1.371 . S
C315 C314 1.371 . S
C315 C316 1.380 . S
C316 H272 0.931 . S
C316 C315 1.380 . S
C316 C317 1.387 . S
C317 H273 0.930 . S
C317 C312 1.386 . S
C317 C316 1.387 . S
C318 C287 1.519 . S
C318 C319 1.377 . S
C318 C323 1.361 . S
C319 H274 0.929 . S
C319 C318 1.377 . S
C319 C320 1.386 . S
C320 H275 0.931 . S
C320 C319 1.386 . S
C320 C321 1.363 . S
C321 C320 1.363 . S
C321 C322 1.385 . S
C322 H276 0.930 . S
C322 C321 1.385 . S
C322 C323 1.396 . S
C323 H277 0.929 . S
C323 C318 1.361 . S
C323 C322 1.396 . S
C324 O278 1.300 . S
C324 O279 1.209 . S
C324 C297 1.486 . S
C325 O280 1.199 . S
C325 O281 1.297 . S
C325 C309 1.476 . S
H326 O352 0.856 . S
H327 O355 0.854 . S
H328 C363 0.930 . S
H329 C364 0.930 . S
H330 C366 0.930 . S
H331 C367 0.930 . S
H332 C369 0.931 . S
H333 C370 0.930 . S
H334 C372 0.930 . S
H335 C373 0.929 . S
H336 C375 0.930 . S
H337 C376 0.931 . S
H338 C378 0.930 . S
H339 C379 0.929 . S
H340 C381 0.931 . S
H341 C382 0.930 . S
H342 C384 0.930 . S
H343 C385 0.932 . S
H344 C387 0.930 . S
H345 C388 0.929 . S
H346 C390 0.931 . S
H347 C391 0.930 . S
H348 C393 0.929 . S
H349 C394 0.931 . S
H350 C396 0.930 . S
H351 C397 0.929 . S
O352 H326 0.856 . S
O352 C398 1.300 . S
O353 C398 1.209 . S
O354 C399 1.199 . S
O355 H327 0.854 . S
O355 C399 1.297 . S
C356 C357 1.404 . S
C356 C361 1.397 . S
C356 C362 1.492 . S
C357 C356 1.404 . S
C357 C358 1.396 . S
C357 C368 1.492 . S
C358 C357 1.396 . S
C358 C359 1.397 . S
C358 C374 1.509 . S
C359 C358 1.397 . S
C359 C360 1.412 . S
C359 C380 1.485 . S
C360 C359 1.412 . S
C360 C361 1.388 . S
C360 C386 1.490 . S
C361 C356 1.397 . S
C361 C360 1.388 . S
C361 C392 1.519 . S
C362 C356 1.492 . S
C362 C363 1.363 . S
C362 C367 1.390 . S
C363 H328 0.930 . S
C363 C362 1.363 . S
C363 C364 1.372 . S
C364 H329 0.930 . S
C364 C363 1.372 . S
C364 C365 1.383 . S
C365 C364 1.383 . S
C365 C366 1.395 . S
C366 H330 0.930 . S
C366 C365 1.395 . S
C366 C367 1.362 . S
C367 H331 0.930 . S
C367 C362 1.390 . S
C367 C366 1.362 . S
C368 C357 1.492 . S
C368 C369 1.377 . S
C368 C373 1.397 . S
C369 H332 0.931 . S
C369 C368 1.377 . S
C369 C370 1.376 . S
C370 H333 0.930 . S
C370 C369 1.376 . S
C370 C371 1.376 . S
C371 C370 1.376 . S
C371 C372 1.378 . S
C371 C398 1.486 . S
C372 H334 0.930 . S
C372 C371 1.378 . S
C372 C373 1.376 . S
C373 H335 0.929 . S
C373 C368 1.397 . S
C373 C372 1.376 . S
C374 C358 1.509 . S
C374 C375 1.391 . S
C374 C379 1.386 . S
C375 H336 0.930 . S
C375 C374 1.391 . S
C375 C376 1.375 . S
C376 H337 0.931 . S
C376 C375 1.375 . S
C376 C377 1.375 . S
C377 C376 1.375 . S
C377 C378 1.361 . S
C378 H338 0.930 . S
C378 C377 1.361 . S
C378 C379 1.399 . S
C379 H339 0.929 . S
C379 C374 1.386 . S
C379 C378 1.399 . S
C380 C359 1.485 . S
C380 C381 1.394 . S
C380 C385 1.360 . S
C381 H340 0.931 . S
C381 C380 1.394 . S
C381 C382 1.372 . S
C382 H341 0.930 . S
C382 C381 1.372 . S
C382 C383 1.397 . S
C383 C382 1.397 . S
C383 C384 1.390 . S
C383 C399 1.476 . S
C384 H342 0.930 . S
C384 C383 1.390 . S
C384 C385 1.366 . S
C385 H343 0.932 . S
C385 C380 1.360 . S
C385 C384 1.366 . S
C386 C360 1.490 . S
C386 C387 1.380 . S
C386 C391 1.386 . S
C387 H344 0.930 . S
C387 C386 1.380 . S
C387 C388 1.381 . S
C388 H345 0.929 . S
C388 C387 1.381 . S
C388 C389 1.371 . S
C389 C388 1.371 . S
C389 C390 1.380 . S
C390 H346 0.931 . S
C390 C389 1.380 . S
C390 C391 1.387 . S
C391 H347 0.930 . S
C391 C386 1.386 . S
C391 C390 1.387 . S
C392 C361 1.519 . S
C392 C393 1.377 . S
C392 C397 1.361 . S
C393 H348 0.929 . S
C393 C392 1.377 . S
C393 C394 1.386 . S
C394 H349 0.931 . S
C394 C393 1.386 . S
C394 C395 1.363 . S
C395 C394 1.363 . S
C395 C396 1.385 . S
C396 H350 0.930 . S
C396 C395 1.385 . S
C396 C397 1.396 . S
C397 H351 0.929 . S
C397 C392 1.361 . S
C397 C396 1.396 . S
C398 O352 1.300 . S
C398 O353 1.209 . S
C398 C371 1.486 . S
C399 O354 1.199 . S
C399 O355 1.297 . S
C399 C383 1.476 . S
H400 O426 0.856 . S
H401 O429 0.854 . S
H402 C437 0.930 . S
H403 C438 0.930 . S
H404 C440 0.930 . S
H405 C441 0.930 . S
H406 C443 0.931 . S
H407 C444 0.930 . S
H408 C446 0.930 . S
H409 C447 0.929 . S
H410 C449 0.930 . S
H411 C450 0.931 . S
H412 C452 0.930 . S
H413 C453 0.929 . S
H414 C455 0.931 . S
H415 C456 0.930 . S
H416 C458 0.930 . S
H417 C459 0.932 . S
H418 C461 0.930 . S
H419 C462 0.929 . S
H420 C464 0.931 . S
H421 C465 0.930 . S
H422 C467 0.929 . S
H423 C468 0.931 . S
H424 C470 0.930 . S
H425 C471 0.929 . S
O426 H400 0.856 . S
O426 C472 1.300 . S
O427 C472 1.209 . S
O428 C473 1.199 . S
O429 H401 0.854 . S
O429 C473 1.297 . S
C430 C431 1.404 . S
C430 C435 1.397 . S
C430 C436 1.492 . S
C431 C430 1.404 . S
C431 C432 1.396 . S
C431 C442 1.492 . S
C432 C431 1.396 . S
C432 C433 1.397 . S
C432 C448 1.509 . S
C433 C432 1.397 . S
C433 C434 1.412 . S
C433 C454 1.485 . S
C434 C433 1.412 . S
C434 C435 1.388 . S
C434 C460 1.490 . S
C435 C430 1.397 . S
C435 C434 1.388 . S
C435 C466 1.519 . S
C436 C430 1.492 . S
C436 C437 1.363 . S
C436 C441 1.390 . S
C437 H402 0.930 . S
C437 C436 1.363 . S
C437 C438 1.372 . S
C438 H403 0.930 . S
C438 C437 1.372 . S
C438 C439 1.383 . S
C439 C438 1.383 . S
C439 C440 1.395 . S
C440 H404 0.930 . S
C440 C439 1.395 . S
C440 C441 1.362 . S
C441 H405 0.930 . S
C441 C436 1.390 . S
C441 C440 1.362 . S
C442 C431 1.492 . S
C442 C443 1.377 . S
C442 C447 1.397 . S
C443 H406 0.931 . S
C443 C442 1.377 . S
C443 C444 1.376 . S
C444 H407 0.930 . S
C444 C443 1.376 . S
C444 C445 1.376 . S
C445 C444 1.376 . S
C445 C446 1.378 . S
C445 C472 1.486 . S
C446 H408 0.930 . S
C446 C445 1.378 . S
C446 C447 1.376 . S
C447 H409 0.929 . S
C447 C442 1.397 . S
C447 C446 1.376 . S
C448 C432 1.509 . S
C448 C449 1.391 . S
C448 C453 1.386 . S
C449 H410 0.930 . S
C449 C448 1.391 . S
C449 C450 1.375 . S
C450 H411 0.931 . S
C450 C449 1.375 . S
C450 C451 1.375 . S
C451 C450 1.375 . S
C451 C452 1.361 . S
C452 H412 0.930 . S
C452 C451 1.361 . S
C452 C453 1.399 . S
C453 H413 0.929 . S
C453 C448 1.386 . S
C453 C452 1.399 . S
C454 C433 1.485 . S
C454 C455 1.394 . S
C454 C459 1.360 . S
C455 H414 0.931 . S
C455 C454 1.394 . S
C455 C456 1.372 . S
C456 H415 0.930 . S
C456 C455 1.372 . S
C456 C457 1.397 . S
C457 C456 1.397 . S
C457 C458 1.390 . S
C457 C473 1.476 . S
C458 H416 0.930 . S
C458 C457 1.390 . S
C458 C459 1.366 . S
C459 H417 0.932 . S
C459 C454 1.360 . S
C459 C458 1.366 . S
C460 C434 1.490 . S
C460 C461 1.380 . S
C460 C465 1.386 . S
C461 H418 0.930 . S
C461 C460 1.380 . S
C461 C462 1.381 . S
C462 H419 0.929 . S
C462 C461 1.381 . S
C462 C463 1.371 . S
C463 C462 1.371 . S
C463 C464 1.380 . S
C464 H420 0.931 . S
C464 C463 1.380 . S
C464 C465 1.387 . S
C465 H421 0.930 . S
C465 C460 1.386 . S
C465 C464 1.387 . S
C466 C435 1.519 . S
C466 C467 1.377 . S
C466 C471 1.361 . S
C467 H422 0.929 . S
C467 C466 1.377 . S
C467 C468 1.386 . S
C468 H423 0.931 . S
C468 C467 1.386 . S
C468 C469 1.363 . S
C469 C468 1.363 . S
C469 C470 1.385 . S
C470 H424 0.930 . S
C470 C469 1.385 . S
C470 C471 1.396 . S
C471 H425 0.929 . S
C471 C466 1.361 . S
C471 C470 1.396 . S
C472 O426 1.300 . S
C472 O427 1.209 . S
C472 C445 1.486 . S
C473 O428 1.199 . S
C473 O429 1.297 . S
C473 C457 1.476 . S
H474 O500 0.856 . S
H475 O503 0.854 . S
H476 C511 0.930 . S
H477 C512 0.930 . S
H478 C514 0.930 . S
H479 C515 0.930 . S
H480 C517 0.931 . S
H481 C518 0.930 . S
H482 C520 0.930 . S
H483 C521 0.929 . S
H484 C523 0.930 . S
H485 C524 0.931 . S
H486 C526 0.930 . S
H487 C527 0.929 . S
H488 C529 0.931 . S
H489 C530 0.930 . S
H490 C532 0.930 . S
H491 C533 0.932 . S
H492 C535 0.930 . S
H493 C536 0.929 . S
H494 C538 0.931 . S
H495 C539 0.930 . S
H496 C541 0.929 . S
H497 C542 0.931 . S
H498 C544 0.930 . S
H499 C545 0.929 . S
O500 H474 0.856 . S
O500 C546 1.300 . S
O501 C546 1.209 . S
O502 C547 1.199 . S
O503 H475 0.854 . S
O503 C547 1.297 . S
C504 C505 1.404 . S
C504 C509 1.397 . S
C504 C510 1.492 . S
C505 C504 1.404 . S
C505 C506 1.396 . S
C505 C516 1.492 . S
C506 C505 1.396 . S
C506 C507 1.397 . S
C506 C522 1.509 . S
C507 C506 1.397 . S
C507 C508 1.412 . S
C507 C528 1.485 . S
C508 C507 1.412 . S
C508 C509 1.388 . S
C508 C534 1.490 . S
C509 C504 1.397 . S
C509 C508 1.388 . S
C509 C540 1.519 . S
C510 C504 1.492 . S
C510 C511 1.363 . S
C510 C515 1.390 . S
C511 H476 0.930 . S
C511 C510 1.363 . S
C511 C512 1.372 . S
C512 H477 0.930 . S
C512 C511 1.372 . S
C512 C513 1.383 . S
C513 C512 1.383 . S
C513 C514 1.395 . S
C514 H478 0.930 . S
C514 C513 1.395 . S
C514 C515 1.362 . S
C515 H479 0.930 . S
C515 C510 1.390 . S
C515 C514 1.362 . S
C516 C505 1.492 . S
C516 C517 1.377 . S
C516 C521 1.397 . S
C517 H480 0.931 . S
C517 C516 1.377 . S
C517 C518 1.376 . S
C518 H481 0.930 . S
C518 C517 1.376 . S
C518 C519 1.376 . S
C519 C518 1.376 . S
C519 C520 1.378 . S
C519 C546 1.486 1_556 S
C520 H482 0.930 . S
C520 C519 1.378 . S
C520 C521 1.376 . S
C521 H483 0.929 . S
C521 C516 1.397 . S
C521 C520 1.376 . S
C522 C506 1.509 . S
C522 C523 1.391 . S
C522 C527 1.386 . S
C523 H484 0.930 . S
C523 C522 1.391 . S
C523 C524 1.375 . S
C524 H485 0.931 . S
C524 C523 1.375 . S
C524 C525 1.375 . S
C525 C524 1.375 . S
C525 C526 1.361 . S
C526 H486 0.930 . S
C526 C525 1.361 . S
C526 C527 1.399 . S
C527 H487 0.929 . S
C527 C522 1.386 . S
C527 C526 1.399 . S
C528 C507 1.485 . S
C528 C529 1.394 . S
C528 C533 1.360 . S
C529 H488 0.931 . S
C529 C528 1.394 . S
C529 C530 1.372 . S
C530 H489 0.930 . S
C530 C529 1.372 . S
C530 C531 1.397 . S
C531 C530 1.397 . S
C531 C532 1.390 . S
C531 C547 1.476 . S
C532 H490 0.930 . S
C532 C531 1.390 . S
C532 C533 1.366 . S
C533 H491 0.932 . S
C533 C528 1.360 . S
C533 C532 1.366 . S
C534 C508 1.490 . S
C534 C535 1.380 . S
C534 C539 1.386 . S
C535 H492 0.930 . S
C535 C534 1.380 . S
C535 C536 1.381 . S
C536 H493 0.929 . S
C536 C535 1.381 . S
C536 C537 1.371 . S
C537 C536 1.371 . S
C537 C538 1.380 . S
C538 H494 0.931 . S
C538 C537 1.380 . S
C538 C539 1.387 . S
C539 H495 0.930 . S
C539 C534 1.386 . S
C539 C538 1.387 . S
C540 C509 1.519 . S
C540 C541 1.377 . S
C540 C545 1.361 . S
C541 H496 0.929 . S
C541 C540 1.377 . S
C541 C542 1.386 . S
C542 H497 0.931 . S
C542 C541 1.386 . S
C542 C543 1.363 . S
C543 C542 1.363 . S
C543 C544 1.385 . S
C544 H498 0.930 . S
C544 C543 1.385 . S
C544 C545 1.396 . S
C545 H499 0.929 . S
C545 C540 1.361 . S
C545 C544 1.396 . S
C546 O500 1.300 . S
C546 O501 1.209 . S
C546 C519 1.486 1_554 S
C547 O502 1.199 . S
C547 O503 1.297 . S
C547 C531 1.476 . S
H548 O574 0.856 . S
H549 O577 0.854 . S
H550 C585 0.930 . S
H551 C586 0.930 . S
H552 C588 0.930 . S
H553 C589 0.930 . S
H554 C591 0.931 . S
H555 C592 0.930 . S
H556 C594 0.930 . S
H557 C595 0.929 . S
H558 C597 0.930 . S
H559 C598 0.931 . S
H560 C600 0.930 . S
H561 C601 0.929 . S
H562 C603 0.931 . S
H563 C604 0.930 . S
H564 C606 0.930 . S
H565 C607 0.932 . S
H566 C609 0.930 . S
H567 C610 0.929 . S
H568 C612 0.931 . S
H569 C613 0.930 . S
H570 C615 0.929 . S
H571 C616 0.931 . S
H572 C618 0.930 . S
H573 C619 0.929 . S
O574 H548 0.856 . S
O574 C620 1.300 . S
O575 C620 1.209 . S
O576 C621 1.199 . S
O577 H549 0.854 . S
O577 C621 1.297 . S
C578 C579 1.404 . S
C578 C583 1.397 . S
C578 C584 1.492 . S
C579 C578 1.404 . S
C579 C580 1.396 . S
C579 C590 1.492 . S
C580 C579 1.396 . S
C580 C581 1.397 . S
C580 C596 1.509 . S
C581 C580 1.397 . S
C581 C582 1.412 . S
C581 C602 1.485 . S
C582 C581 1.412 . S
C582 C583 1.388 . S
C582 C608 1.490 . S
C583 C578 1.397 . S
C583 C582 1.388 . S
C583 C614 1.519 . S
C584 C578 1.492 . S
C584 C585 1.363 . S
C584 C589 1.390 . S
C585 H550 0.930 . S
C585 C584 1.363 . S
C585 C586 1.372 . S
C586 H551 0.930 . S
C586 C585 1.372 . S
C586 C587 1.383 . S
C587 C586 1.383 . S
C587 C588 1.395 . S
C588 H552 0.930 . S
C588 C587 1.395 . S
C588 C589 1.362 . S
C589 H553 0.930 . S
C589 C584 1.390 . S
C589 C588 1.362 . S
C590 C579 1.492 . S
C590 C591 1.377 . S
C590 C595 1.397 . S
C591 H554 0.931 . S
C591 C590 1.377 . S
C591 C592 1.376 . S
C592 H555 0.930 . S
C592 C591 1.376 . S
C592 C593 1.397 . S
C593 C592 1.397 . S
C593 C594 1.406 . S
C593 C620 1.439 1_556 S
C594 H556 0.930 . S
C594 C593 1.406 . S
C594 C595 1.376 . S
C595 H557 0.929 . S
C595 C590 1.397 . S
C595 C594 1.376 . S
C596 C580 1.509 . S
C596 C597 1.391 . S
C596 C601 1.386 . S
C597 H558 0.930 . S
C597 C596 1.391 . S
C597 C598 1.375 . S
C598 H559 0.931 . S
C598 C597 1.375 . S
C598 C599 1.375 . S
C599 C598 1.375 . S
C599 C600 1.361 . S
C600 H560 0.930 . S
C600 C599 1.361 . S
C600 C601 1.399 . S
C601 H561 0.929 . S
C601 C596 1.386 . S
C601 C600 1.399 . S
C602 C581 1.485 . S
C602 C603 1.394 . S
C602 C607 1.360 . S
C603 H562 0.931 . S
C603 C602 1.394 . S
C603 C604 1.372 . S
C604 H563 0.930 . S
C604 C603 1.372 . S
C604 C605 1.397 . S
C605 C604 1.397 . S
C605 C606 1.390 . S
C605 C621 1.476 . S
C606 H564 0.930 . S
C606 C605 1.390 . S
C606 C607 1.366 . S
C607 H565 0.932 . S
C607 C602 1.360 . S
C607 C606 1.366 . S
C608 C582 1.490 . S
C608 C609 1.380 . S
C608 C613 1.386 . S
C609 H566 0.930 . S
C609 C608 1.380 . S
C609 C610 1.381 . S
C610 H567 0.929 . S
C610 C609 1.381 . S
C610 C611 1.371 . S
C611 C610 1.371 . S
C611 C612 1.380 . S
C612 H568 0.931 . S
C612 C611 1.380 . S
C612 C613 1.387 . S
C613 H569 0.930 . S
C613 C608 1.386 . S
C613 C612 1.387 . S
C614 C583 1.519 . S
C614 C615 1.377 . S
C614 C619 1.361 . S
C615 H570 0.929 . S
C615 C614 1.377 . S
C615 C616 1.386 . S
C616 H571 0.931 . S
C616 C615 1.386 . S
C616 C617 1.363 . S
C617 C616 1.363 . S
C617 C618 1.385 . S
C618 H572 0.930 . S
C618 C617 1.385 . S
C618 C619 1.396 . S
C619 H573 0.929 . S
C619 C614 1.361 . S
C619 C618 1.396 . S
C620 O574 1.300 . S
C620 O575 1.209 . S
C620 C593 1.439 1_554 S
C621 O576 1.199 . S
C621 O577 1.297 . S
C621 C605 1.476 . S
H622 O648 0.856 . S
H623 O651 0.854 . S
H624 C659 0.930 . S
H625 C660 0.930 . S
H626 C662 0.930 . S
H627 C663 0.930 . S
H628 C665 0.931 . S
H629 C666 0.930 . S
H630 C668 0.930 . S
H631 C669 0.929 . S
H632 C671 0.930 . S
H633 C672 0.931 . S
H634 C674 0.930 . S
H635 C675 0.929 . S
H636 C677 0.931 . S
H637 C678 0.930 . S
H638 C680 0.930 . S
H639 C681 0.932 . S
H640 C683 0.930 . S
H641 C684 0.929 . S
H642 C686 0.931 . S
H643 C687 0.930 . S
H644 C689 0.929 . S
H645 C690 0.931 . S
H646 C692 0.930 . S
H647 C693 0.929 . S
O648 H622 0.856 . S
O648 C694 1.300 . S
O649 C694 1.209 . S
O650 C695 1.199 . S
O651 H623 0.854 . S
O651 C695 1.297 . S
C652 C653 1.404 . S
C652 C657 1.397 . S
C652 C658 1.492 . S
C653 C652 1.404 . S
C653 C654 1.396 . S
C653 C664 1.492 . S
C654 C653 1.396 . S
C654 C655 1.397 . S
C654 C670 1.509 . S
C655 C654 1.397 . S
C655 C656 1.412 . S
C655 C676 1.485 . S
C656 C655 1.412 . S
C656 C657 1.388 . S
C656 C682 1.490 . S
C657 C652 1.397 . S
C657 C656 1.388 . S
C657 C688 1.519 . S
C658 C652 1.492 . S
C658 C659 1.363 . S
C658 C663 1.390 . S
C659 H624 0.930 . S
C659 C658 1.363 . S
C659 C660 1.372 . S
C660 H625 0.930 . S
C660 C659 1.372 . S
C660 C661 1.383 . S
C661 C660 1.383 . S
C661 C662 1.395 . S
C662 H626 0.930 . S
C662 C661 1.395 . S
C662 C663 1.362 . S
C663 H627 0.930 . S
C663 C658 1.390 . S
C663 C662 1.362 . S
C664 C653 1.492 . S
C664 C665 1.377 . S
C664 C669 1.397 . S
C665 H628 0.931 . S
C665 C664 1.377 . S
C665 C666 1.376 1_556 S
C666 H629 0.930 . S
C666 C665 1.376 1_554 S
C666 C667 1.376 . S
C667 C666 1.376 . S
C667 C668 1.378 1_554 S
C667 C694 1.486 . S
C668 H630 0.930 . S
C668 C667 1.378 1_556 S
C668 C669 1.376 . S
C669 H631 0.929 . S
C669 C664 1.397 . S
C669 C668 1.376 . S
C670 C654 1.509 . S
C670 C671 1.391 . S
C670 C675 1.386 . S
C671 H632 0.930 . S
C671 C670 1.391 . S
C671 C672 1.375 . S
C672 H633 0.931 . S
C672 C671 1.375 . S
C672 C673 1.375 . S
C673 C672 1.375 . S
C673 C674 1.361 . S
C674 H634 0.930 . S
C674 C673 1.361 . S
C674 C675 1.399 . S
C675 H635 0.929 . S
C675 C670 1.386 . S
C675 C674 1.399 . S
C676 C655 1.485 . S
C676 C677 1.394 . S
C676 C681 1.360 . S
C677 H636 0.931 . S
C677 C676 1.394 . S
C677 C678 1.372 . S
C678 H637 0.930 . S
C678 C677 1.372 . S
C678 C679 1.397 . S
C679 C678 1.397 . S
C679 C680 1.390 . S
C679 C695 1.476 . S
C680 H638 0.930 . S
C680 C679 1.390 . S
C680 C681 1.366 . S
C681 H639 0.932 . S
C681 C676 1.360 . S
C681 C680 1.366 . S
C682 C656 1.490 . S
C682 C683 1.380 . S
C682 C687 1.386 . S
C683 H640 0.930 . S
C683 C682 1.380 . S
C683 C684 1.381 . S
C684 H641 0.929 . S
C684 C683 1.381 . S
C684 C685 1.371 . S
C685 C684 1.371 . S
C685 C686 1.380 . S
C686 H642 0.931 . S
C686 C685 1.380 . S
C686 C687 1.387 . S
C687 H643 0.930 . S
C687 C682 1.386 . S
C687 C686 1.387 . S
C688 C657 1.519 . S
C688 C689 1.377 . S
C688 C693 1.361 . S
C689 H644 0.929 . S
C689 C688 1.377 . S
C689 C690 1.386 . S
C690 H645 0.931 . S
C690 C689 1.386 . S
C690 C691 1.363 . S
C691 C690 1.363 . S
C691 C692 1.385 . S
C692 H646 0.930 . S
C692 C691 1.385 . S
C692 C693 1.396 . S
C693 H647 0.929 . S
C693 C688 1.361 . S
C693 C692 1.396 . S
C694 O648 1.300 . S
C694 O649 1.209 . S
C694 C667 1.486 . S
C695 O650 1.199 . S
C695 O651 1.297 . S
C695 C679 1.476 . S
H696 O722 0.856 . S
H697 O725 0.854 . S
H698 C733 0.930 . S
H699 C734 0.930 . S
H700 C736 0.930 . S
H701 C737 0.930 . S
H702 C739 0.931 . S
H703 C740 0.930 . S
H704 C742 0.930 . S
H705 C743 0.929 . S
H706 C745 0.930 . S
H707 C746 0.931 . S
H708 C748 0.930 . S
H709 C749 0.929 . S
H710 C751 0.931 . S
H711 C752 0.930 . S
H712 C754 0.930 . S
H713 C755 0.932 . S
H714 C757 0.930 . S
H715 C758 0.929 . S
H716 C760 0.931 . S
H717 C761 0.930 . S
H718 C763 0.929 . S
H719 C764 0.931 . S
H720 C766 0.930 . S
H721 C767 0.929 . S
O722 H696 0.856 . S
O722 C768 1.300 . S
O723 C768 1.209 . S
O724 C769 1.199 . S
O725 H697 0.854 . S
O725 C769 1.297 . S
C726 C727 1.404 . S
C726 C731 1.397 . S
C726 C732 1.492 . S
C727 C726 1.404 . S
C727 C728 1.396 . S
C727 C738 1.492 . S
C728 C727 1.396 . S
C728 C729 1.397 . S
C728 C744 1.509 . S
C729 C728 1.397 . S
C729 C730 1.412 . S
C729 C750 1.485 . S
C730 C729 1.412 . S
C730 C731 1.388 . S
C730 C756 1.490 . S
C731 C726 1.397 . S
C731 C730 1.388 . S
C731 C762 1.519 . S
C732 C726 1.492 . S
C732 C733 1.363 . S
C732 C737 1.390 . S
C733 H698 0.930 . S
C733 C732 1.363 . S
C733 C734 1.372 . S
C734 H699 0.930 . S
C734 C733 1.372 . S
C734 C735 1.383 . S
C735 C734 1.383 . S
C735 C736 1.395 . S
C736 H700 0.930 . S
C736 C735 1.395 . S
C736 C737 1.362 . S
C737 H701 0.930 . S
C737 C732 1.390 . S
C737 C736 1.362 . S
C738 C727 1.492 . S
C738 C739 1.377 . S
C738 C743 1.397 . S
C739 H702 0.931 . S
C739 C738 1.377 . S
C739 C740 1.376 . S
C740 H703 0.930 . S
C740 C739 1.376 . S
C740 C741 1.376 . S
C741 C740 1.376 . S
C741 C742 1.378 . S
C741 C768 1.486 . S
C742 H704 0.930 . S
C742 C741 1.378 . S
C742 C743 1.376 . S
C743 H705 0.929 . S
C743 C738 1.397 . S
C743 C742 1.376 . S
C744 C728 1.509 . S
C744 C745 1.391 . S
C744 C749 1.386 . S
C745 H706 0.930 . S
C745 C744 1.391 . S
C745 C746 1.375 . S
C746 H707 0.931 . S
C746 C745 1.375 . S
C746 C747 1.375 . S
C747 C746 1.375 . S
C747 C748 1.361 . S
C748 H708 0.930 . S
C748 C747 1.361 . S
C748 C749 1.399 . S
C749 H709 0.929 . S
C749 C744 1.386 . S
C749 C748 1.399 . S
C750 C729 1.485 . S
C750 C751 1.394 . S
C750 C755 1.360 . S
C751 H710 0.931 . S
C751 C750 1.394 . S
C751 C752 1.372 . S
C752 H711 0.930 . S
C752 C751 1.372 . S
C752 C753 1.397 . S
C753 C752 1.397 . S
C753 C754 1.390 . S
C753 C769 1.476 . S
C754 H712 0.930 . S
C754 C753 1.390 . S
C754 C755 1.366 . S
C755 H713 0.932 . S
C755 C750 1.360 . S
C755 C754 1.366 . S
C756 C730 1.490 . S
C756 C757 1.380 . S
C756 C761 1.386 . S
C757 H714 0.930 . S
C757 C756 1.380 . S
C757 C758 1.381 . S
C758 H715 0.929 . S
C758 C757 1.381 . S
C758 C759 1.371 . S
C759 C758 1.371 . S
C759 C760 1.380 . S
C760 H716 0.931 . S
C760 C759 1.380 . S
C760 C761 1.387 . S
C761 H717 0.930 . S
C761 C756 1.386 . S
C761 C760 1.387 . S
C762 C731 1.519 . S
C762 C763 1.377 . S
C762 C767 1.361 . S
C763 H718 0.929 . S
C763 C762 1.377 . S
C763 C764 1.386 . S
C764 H719 0.931 . S
C764 C763 1.386 . S
C764 C765 1.363 . S
C765 C764 1.363 . S
C765 C766 1.385 . S
C766 H720 0.930 . S
C766 C765 1.385 . S
C766 C767 1.396 . S
C767 H721 0.929 . S
C767 C762 1.361 . S
C767 C766 1.396 . S
C768 O722 1.300 . S
C768 O723 1.209 . S
C768 C741 1.486 . S
C769 O724 1.199 . S
C769 O725 1.297 . S
C769 C753 1.476 . S
H770 O796 0.856 . S
H771 O799 0.854 . S
H772 C807 0.930 . S
H773 C808 0.930 . S
H774 C810 0.930 . S
H775 C811 0.930 . S
H776 C813 0.931 . S
H777 C814 0.930 . S
H778 C816 0.930 . S
H779 C817 0.929 . S
H780 C819 0.930 . S
H781 C820 0.931 . S
H782 C822 0.930 . S
H783 C823 0.929 . S
H784 C825 0.931 . S
H785 C826 0.930 . S
H786 C828 0.930 . S
H787 C829 0.932 . S
H788 C831 0.930 . S
H789 C832 0.929 . S
H790 C834 0.931 . S
H791 C835 0.930 . S
H792 C837 0.929 . S
H793 C838 0.931 . S
H794 C840 0.930 . S
H795 C841 0.929 . S
O796 H770 0.856 . S
O796 C842 1.300 . S
O797 C842 1.209 . S
O798 C843 1.199 . S
O799 H771 0.854 . S
O799 C843 1.297 . S
C800 C801 1.404 . S
C800 C805 1.397 . S
C800 C806 1.492 . S
C801 C800 1.404 . S
C801 C802 1.396 . S
C801 C812 1.492 . S
C802 C801 1.396 . S
C802 C803 1.397 . S
C802 C818 1.509 . S
C803 C802 1.397 . S
C803 C804 1.412 . S
C803 C824 1.485 . S
C804 C803 1.412 . S
C804 C805 1.388 . S
C804 C830 1.490 . S
C805 C800 1.397 . S
C805 C804 1.388 . S
C805 C836 1.519 . S
C806 C800 1.492 . S
C806 C807 1.363 . S
C806 C811 1.390 . S
C807 H772 0.930 . S
C807 C806 1.363 . S
C807 C808 1.372 . S
C808 H773 0.930 . S
C808 C807 1.372 . S
C808 C809 1.383 . S
C809 C808 1.383 . S
C809 C810 1.395 . S
C810 H774 0.930 . S
C810 C809 1.395 . S
C810 C811 1.362 . S
C811 H775 0.930 . S
C811 C806 1.390 . S
C811 C810 1.362 . S
C812 C801 1.492 . S
C812 C813 1.377 . S
C812 C817 1.397 . S
C813 H776 0.931 . S
C813 C812 1.377 . S
C813 C814 1.376 . S
C814 H777 0.930 . S
C814 C813 1.376 . S
C814 C815 1.376 . S
C815 C814 1.376 . S
C815 C816 1.378 . S
C815 C842 1.486 . S
C816 H778 0.930 . S
C816 C815 1.378 . S
C816 C817 1.376 . S
C817 H779 0.929 . S
C817 C812 1.397 . S
C817 C816 1.376 . S
C818 C802 1.509 . S
C818 C819 1.391 . S
C818 C823 1.386 . S
C819 H780 0.930 . S
C819 C818 1.391 . S
C819 C820 1.375 . S
C820 H781 0.931 . S
C820 C819 1.375 . S
C820 C821 1.375 . S
C821 C820 1.375 . S
C821 C822 1.361 . S
C822 H782 0.930 . S
C822 C821 1.361 . S
C822 C823 1.399 . S
C823 H783 0.929 . S
C823 C818 1.386 . S
C823 C822 1.399 . S
C824 C803 1.485 . S
C824 C825 1.394 . S
C824 C829 1.360 . S
C825 H784 0.931 . S
C825 C824 1.394 . S
C825 C826 1.372 . S
C826 H785 0.930 . S
C826 C825 1.372 . S
C826 C827 1.397 . S
C827 C826 1.397 . S
C827 C828 1.390 . S
C827 C843 1.476 . S
C828 H786 0.930 . S
C828 C827 1.390 . S
C828 C829 1.366 . S
C829 H787 0.932 . S
C829 C824 1.360 . S
C829 C828 1.366 . S
C830 C804 1.490 . S
C830 C831 1.380 . S
C830 C835 1.386 . S
C831 H788 0.930 . S
C831 C830 1.380 . S
C831 C832 1.381 . S
C832 H789 0.929 . S
C832 C831 1.381 . S
C832 C833 1.371 . S
C833 C832 1.371 . S
C833 C834 1.380 . S
C834 H790 0.931 . S
C834 C833 1.380 . S
C834 C835 1.387 . S
C835 H791 0.930 . S
C835 C830 1.386 . S
C835 C834 1.387 . S
C836 C805 1.519 . S
C836 C837 1.377 . S
C836 C841 1.361 . S
C837 H792 0.929 . S
C837 C836 1.377 . S
C837 C838 1.386 . S
C838 H793 0.931 . S
C838 C837 1.386 . S
C838 C839 1.363 . S
C839 C838 1.363 . S
C839 C840 1.385 . S
C840 H794 0.930 . S
C840 C839 1.385 . S
C840 C841 1.396 . S
C841 H795 0.929 . S
C841 C836 1.361 . S
C841 C840 1.396 . S
C842 O796 1.300 . S
C842 O797 1.209 . S
C842 C815 1.486 . S
C843 O798 1.199 . S
C843 O799 1.297 . S
C843 C827 1.476 . S
H844 O870 0.856 . S
H845 O873 0.854 . S
H846 C881 0.930 . S
H847 C882 0.930 . S
H848 C884 0.930 . S
H849 C885 0.930 . S
H850 C887 0.931 . S
H851 C888 0.930 . S
H852 C890 0.930 . S
H853 C891 0.929 . S
H854 C893 0.930 . S
H855 C894 0.931 . S
H856 C896 0.930 . S
H857 C897 0.929 . S
H858 C899 0.931 . S
H859 C900 0.930 . S
H860 C902 0.930 . S
H861 C903 0.932 . S
H862 C905 0.930 . S
H863 C906 0.929 . S
H864 C908 0.931 . S
H865 C909 0.930 . S
H866 C911 0.929 . S
H867 C912 0.931 . S
H868 C914 0.930 . S
H869 C915 0.929 . S
O870 H844 0.856 . S
O870 C916 1.300 . S
O871 C916 1.209 . S
O872 C917 1.199 . S
O873 H845 0.854 . S
O873 C917 1.297 . S
C874 C875 1.404 . S
C874 C879 1.397 . S
C874 C880 1.492 . S
C875 C874 1.404 . S
C875 C876 1.396 . S
C875 C886 1.492 . S
C876 C875 1.396 . S
C876 C877 1.397 . S
C876 C892 1.509 . S
C877 C876 1.397 . S
C877 C878 1.412 . S
C877 C898 1.485 . S
C878 C877 1.412 . S
C878 C879 1.388 . S
C878 C904 1.490 . S
C879 C874 1.397 . S
C879 C878 1.388 . S
C879 C910 1.519 . S
C880 C874 1.492 . S
C880 C881 1.363 . S
C880 C885 1.390 . S
C881 H846 0.930 . S
C881 C880 1.363 . S
C881 C882 1.372 . S
C882 H847 0.930 . S
C882 C881 1.372 . S
C882 C883 1.383 . S
C883 C882 1.383 . S
C883 C884 1.395 . S
C884 H848 0.930 . S
C884 C883 1.395 . S
C884 C885 1.362 . S
C885 H849 0.930 . S
C885 C880 1.390 . S
C885 C884 1.362 . S
C886 C875 1.492 . S
C886 C887 1.377 . S
C886 C891 1.397 . S
C887 H850 0.931 . S
C887 C886 1.377 . S
C887 C888 1.376 . S
C888 H851 0.930 . S
C888 C887 1.376 . S
C888 C889 1.376 . S
C889 C888 1.376 . S
C889 C890 1.378 . S
C889 C916 1.486 . S
C890 H852 0.930 . S
C890 C889 1.378 . S
C890 C891 1.376 . S
C891 H853 0.929 . S
C891 C886 1.397 . S
C891 C890 1.376 . S
C892 C876 1.509 . S
C892 C893 1.391 . S
C892 C897 1.386 . S
C893 H854 0.930 . S
C893 C892 1.391 . S
C893 C894 1.375 . S
C894 H855 0.931 . S
C894 C893 1.375 . S
C894 C895 1.375 . S
C895 C894 1.375 . S
C895 C896 1.361 . S
C896 H856 0.930 . S
C896 C895 1.361 . S
C896 C897 1.399 . S
C897 H857 0.929 . S
C897 C892 1.386 . S
C897 C896 1.399 . S
C898 C877 1.485 . S
C898 C899 1.394 . S
C898 C903 1.360 . S
C899 H858 0.931 . S
C899 C898 1.394 . S
C899 C900 1.372 . S
C900 H859 0.930 . S
C900 C899 1.372 . S
C900 C901 1.397 . S
C901 C900 1.397 . S
C901 C902 1.390 . S
C901 C917 1.476 . S
C902 H860 0.930 . S
C902 C901 1.390 . S
C902 C903 1.366 . S
C903 H861 0.932 . S
C903 C898 1.360 . S
C903 C902 1.366 . S
C904 C878 1.490 . S
C904 C905 1.380 . S
C904 C909 1.386 . S
C905 H862 0.930 . S
C905 C904 1.380 . S
C905 C906 1.381 . S
C906 H863 0.929 . S
C906 C905 1.381 . S
C906 C907 1.371 . S
C907 C906 1.371 . S
C907 C908 1.380 . S
C908 H864 0.931 . S
C908 C907 1.380 . S
C908 C909 1.387 . S
C909 H865 0.930 . S
C909 C904 1.386 . S
C909 C908 1.387 . S
C910 C879 1.519 . S
C910 C911 1.377 . S
C910 C915 1.361 . S
C911 H866 0.929 . S
C911 C910 1.377 . S
C911 C912 1.386 . S
C912 H867 0.931 . S
C912 C911 1.386 . S
C912 C913 1.363 . S
C913 C912 1.363 . S
C913 C914 1.385 . S
C914 H868 0.930 . S
C914 C913 1.385 . S
C914 C915 1.396 . S
C915 H869 0.929 . S
C915 C910 1.361 . S
C915 C914 1.396 . S
C916 O870 1.300 . S
C916 O871 1.209 . S
C916 C889 1.486 . S
C917 O872 1.199 . S
C917 O873 1.297 . S
C917 C901 1.476 . S
H918 O944 0.856 . S
H919 O947 0.854 . S
H920 C955 0.930 . S
H921 C956 0.930 . S
H922 C958 0.930 . S
H923 C959 0.930 . S
H924 C961 0.931 . S
H925 C962 0.930 1_655 S
H926 C964 0.930 . S
H927 C965 0.929 . S
H928 C967 0.930 . S
H929 C968 0.931 1_655 S
H930 C970 0.930 . S
H931 C971 0.929 . S
H932 C973 0.931 . S
H933 C974 0.930 . S
H934 C976 0.930 . S
H935 C977 0.932 . S
H936 C979 0.930 . S
H937 C980 0.929 . S
H938 C982 0.931 . S
H939 C983 0.930 . S
H940 C985 0.929 . S
H941 C986 0.931 . S
H942 C988 0.930 . S
H943 C989 0.929 . S
O944 H918 0.856 . S
O944 C990 1.300 . S
O945 C990 1.209 . S
O946 C991 1.199 1_655 S
O947 H919 0.854 . S
O947 C991 1.297 . S
C948 C949 1.404 . S
C948 C953 1.393 . S
C948 C954 1.492 . S
C949 C948 1.404 . S
C949 C950 1.396 . S
C949 C960 1.492 . S
C950 C949 1.396 . S
C950 C951 1.397 . S
C950 C966 1.509 . S
C951 C950 1.397 . S
C951 C952 1.427 . S
C951 C972 1.485 . S
C952 C951 1.427 . S
C952 C953 1.403 . S
C952 C978 1.491 1_455 S
C953 C948 1.393 . S
C953 C952 1.403 . S
C953 C984 1.482 1_455 S
C954 C948 1.492 . S
C954 C955 1.363 1_455 S
C954 C959 1.390 . S
C955 H920 0.930 . S
C955 C954 1.363 1_655 S
C955 C956 1.372 . S
C956 H921 0.930 . S
C956 C955 1.372 . S
C956 C957 1.383 . S
C957 C956 1.383 . S
C957 C958 1.395 1_655 S
C958 H922 0.930 . S
C958 C957 1.395 1_455 S
C958 C959 1.362 . S
C959 H923 0.930 . S
C959 C954 1.390 . S
C959 C958 1.362 . S
C960 C949 1.492 . S
C960 C961 1.377 1_455 S
C960 C965 1.397 . S
C961 H924 0.931 . S
C961 C960 1.377 1_655 S
C961 C962 1.376 1_655 S
C962 H925 0.930 1_455 S
C962 C961 1.376 1_455 S
C962 C963 1.376 . S
C963 C962 1.376 . S
C963 C964 1.378 . S
C963 C990 1.486 . S
C964 H926 0.930 . S
C964 C963 1.378 . S
C964 C965 1.376 . S
C965 H927 0.929 . S
C965 C960 1.397 . S
C965 C964 1.376 . S
C966 C950 1.509 . S
C966 C967 1.391 1_455 S
C966 C971 1.386 . S
C967 H928 0.930 . S
C967 C966 1.391 1_655 S
C967 C968 1.375 1_655 S
C968 H929 0.931 1_455 S
C968 C967 1.375 1_455 S
C968 C969 1.375 . S
C969 C968 1.375 . S
C969 C970 1.361 . S
C970 H930 0.930 . S
C970 C969 1.361 . S
C970 C971 1.399 . S
C971 H931 0.929 . S
C971 C966 1.386 . S
C971 C970 1.399 . S
C972 C951 1.485 . S
C972 C973 1.394 1_455 S
C972 C977 1.360 . S
C973 H932 0.931 . S
C973 C972 1.394 1_655 S
C973 C974 1.372 . S
C974 H933 0.930 . S
C974 C973 1.372 . S
C974 C975 1.397 1_655 S
C975 C974 1.397 1_455 S
C975 C976 1.390 . S
C975 C991 1.476 . S
C976 H934 0.930 . S
C976 C975 1.390 . S
C976 C977 1.366 . S
C977 H935 0.932 . S
C977 C972 1.360 . S
C977 C976 1.366 . S
C978 C952 1.491 1_655 S
C978 C979 1.380 . S
C978 C983 1.386 1_655 S
C979 H936 0.930 . S
C979 C978 1.380 . S
C979 C980 1.381 . S
C980 H937 0.929 . S
C980 C979 1.381 . S
C980 C981 1.371 . S
C981 C980 1.371 . S
C981 C982 1.380 1_655 S
C982 H938 0.931 . S
C982 C981 1.380 1_455 S
C982 C983 1.387 . S
C983 H939 0.930 . S
C983 C978 1.386 1_455 S
C983 C982 1.387 . S
C984 C953 1.482 1_655 S
C984 C985 1.424 . S
C984 C989 1.331 1_655 S
C985 H940 0.929 . S
C985 C984 1.424 . S
C985 C986 1.386 . S
C986 H941 0.931 . S
C986 C985 1.386 . S
C986 C987 1.363 . S
C987 C986 1.363 . S
C987 C988 1.385 1_655 S
C988 H942 0.930 . S
C988 C987 1.385 1_455 S
C988 C989 1.396 . S
C989 H943 0.929 . S
C989 C984 1.331 1_455 S
C989 C988 1.396 . S
C990 O944 1.300 . S
C990 O945 1.209 . S
C990 C963 1.486 . S
C991 O946 1.199 1_455 S
C991 O947 1.297 . S
C991 C975 1.476 . S
H992 O1018 0.856 . S
H993 O1021 0.854 . S
H994 C1029 0.930 . S
H995 C1030 0.930 . S
H996 C1032 0.930 . S
H997 C1033 0.930 . S
H998 C1035 0.931 . S
H999 C1036 0.930 . S
H1000 C1038 0.930 . S
H1001 C1039 0.929 . S
H1002 C1041 0.930 . S
H1003 C1042 0.931 . S
H1004 C1044 0.930 . S
H1005 C1045 0.929 . S
H1006 C1047 0.931 . S
H1007 C1048 0.930 . S
H1008 C1050 0.930 . S
H1009 C1051 0.932 . S
H1010 C1053 0.930 . S
H1011 C1054 0.929 . S
H1012 C1056 0.931 . S
H1013 C1057 0.930 . S
H1014 C1059 0.929 . S
H1015 C1060 0.931 . S
H1016 C1062 0.930 . S
H1017 C1063 0.929 . S
O1018 H992 0.856 . S
O1018 C1064 1.300 . S
O1019 C1064 1.209 . S
O1020 C1065 1.199 . S
O1021 H993 0.854 . S
O1021 C1065 1.297 . S
C1022 C1023 1.404 . S
C1022 C1027 1.397 . S
C1022 C1028 1.492 . S
C1023 C1022 1.404 . S
C1023 C1024 1.396 . S
C1023 C1034 1.492 . S
C1024 C1023 1.396 . S
C1024 C1025 1.397 . S
C1024 C1040 1.509 . S
C1025 C1024 1.397 . S
C1025 C1026 1.412 . S
C1025 C1046 1.485 . S
C1026 C1025 1.412 . S
C1026 C1027 1.388 . S
C1026 C1052 1.490 . S
C1027 C1022 1.397 . S
C1027 C1026 1.388 . S
C1027 C1058 1.519 . S
C1028 C1022 1.492 . S
C1028 C1029 1.363 . S
C1028 C1033 1.390 . S
C1029 H994 0.930 . S
C1029 C1028 1.363 . S
C1029 C1030 1.372 . S
C1030 H995 0.930 . S
C1030 C1029 1.372 . S
C1030 C1031 1.383 . S
C1031 C1030 1.383 . S
C1031 C1032 1.395 . S
C1032 H996 0.930 . S
C1032 C1031 1.395 . S
C1032 C1033 1.362 . S
C1033 H997 0.930 . S
C1033 C1028 1.390 . S
C1033 C1032 1.362 . S
C1034 C1023 1.492 . S
C1034 C1035 1.377 . S
C1034 C1039 1.397 . S
C1035 H998 0.931 . S
C1035 C1034 1.377 . S
C1035 C1036 1.376 . S
C1036 H999 0.930 . S
C1036 C1035 1.376 . S
C1036 C1037 1.376 . S
C1037 C1036 1.376 . S
C1037 C1038 1.378 . S
C1037 C1064 1.486 . S
C1038 H1000 0.930 . S
C1038 C1037 1.378 . S
C1038 C1039 1.376 . S
C1039 H1001 0.929 . S
C1039 C1034 1.397 . S
C1039 C1038 1.376 . S
C1040 C1024 1.509 . S
C1040 C1041 1.391 . S
C1040 C1045 1.386 . S
C1041 H1002 0.930 . S
C1041 C1040 1.391 . S
C1041 C1042 1.375 . S
C1042 H1003 0.931 . S
C1042 C1041 1.375 . S
C1042 C1043 1.375 . S
C1043 C1042 1.375 . S
C1043 C1044 1.361 . S
C1044 H1004 0.930 . S
C1044 C1043 1.361 . S
C1044 C1045 1.399 . S
C1045 H1005 0.929 . S
C1045 C1040 1.386 . S
C1045 C1044 1.399 . S
C1046 C1025 1.485 . S
C1046 C1047 1.394 . S
C1046 C1051 1.360 . S
C1047 H1006 0.931 . S
C1047 C1046 1.394 . S
C1047 C1048 1.372 . S
C1048 H1007 0.930 . S
C1048 C1047 1.372 . S
C1048 C1049 1.397 . S
C1049 C1048 1.397 . S
C1049 C1050 1.390 . S
C1049 C1065 1.476 . S
C1050 H1008 0.930 . S
C1050 C1049 1.390 . S
C1050 C1051 1.366 . S
C1051 H1009 0.932 . S
C1051 C1046 1.360 . S
C1051 C1050 1.366 . S
C1052 C1026 1.490 . S
C1052 C1053 1.380 . S
C1052 C1057 1.386 . S
C1053 H1010 0.930 . S
C1053 C1052 1.380 . S
C1053 C1054 1.381 . S
C1054 H1011 0.929 . S
C1054 C1053 1.381 . S
C1054 C1055 1.371 . S
C1055 C1054 1.371 . S
C1055 C1056 1.380 . S
C1056 H1012 0.931 . S
C1056 C1055 1.380 . S
C1056 C1057 1.387 . S
C1057 H1013 0.930 . S
C1057 C1052 1.386 . S
C1057 C1056 1.387 . S
C1058 C1027 1.519 . S
C1058 C1059 1.377 . S
C1058 C1063 1.361 . S
C1059 H1014 0.929 . S
C1059 C1058 1.377 . S
C1059 C1060 1.386 . S
C1060 H1015 0.931 . S
C1060 C1059 1.386 . S
C1060 C1061 1.363 . S
C1061 C1060 1.363 . S
C1061 C1062 1.385 . S
C1062 H1016 0.930 . S
C1062 C1061 1.385 . S
C1062 C1063 1.396 . S
C1063 H1017 0.929 . S
C1063 C1058 1.361 . S
C1063 C1062 1.396 . S
C1064 O1018 1.300 . S
C1064 O1019 1.209 . S
C1064 C1037 1.486 . S
C1065 O1020 1.199 . S
C1065 O1021 1.297 . S
C1065 C1049 1.476 . S
H1066 O1092 0.856 . S
H1067 O1095 0.854 . S
H1068 C1103 0.930 . S
H1069 C1104 0.930 . S
H1070 C1106 0.930 . S
H1071 C1107 0.930 . S
H1072 C1109 0.931 . S
H1073 C1110 0.930 . S
H1074 C1112 0.930 . S
H1075 C1113 0.929 . S
H1076 C1115 0.930 . S
H1077 C1116 0.931 . S
H1078 C1118 0.930 . S
H1079 C1119 0.929 . S
H1080 C1121 0.931 . S
H1081 C1122 0.930 . S
H1082 C1124 0.930 . S
H1083 C1125 0.932 . S
H1084 C1127 0.930 . S
H1085 C1128 0.929 . S
H1086 C1130 0.931 . S
H1087 C1131 0.930 . S
H1088 C1133 0.929 . S
H1089 C1134 0.931 . S
H1090 C1136 0.930 . S
H1091 C1137 0.929 . S
O1092 H1066 0.856 . S
O1092 C1138 1.300 . S
O1093 C1138 1.209 . S
O1094 C1139 1.199 1_545 S
O1095 H1067 0.854 . S
O1095 C1139 1.297 . S
C1096 C1097 1.404 . S
C1096 C1101 1.413 . S
C1096 C1102 1.492 . S
C1097 C1096 1.404 . S
C1097 C1098 1.396 . S
C1097 C1108 1.492 . S
C1098 C1097 1.396 . S
C1098 C1099 1.397 . S
C1098 C1114 1.509 . S
C1099 C1098 1.397 . S
C1099 C1100 1.413 1_565 S
C1099 C1120 1.485 . S
C1100 C1099 1.413 1_545 S
C1100 C1101 1.361 1_545 S
C1100 C1126 1.491 . S
C1101 C1096 1.413 . S
C1101 C1100 1.361 1_565 S
C1101 C1132 1.536 . S
C1102 C1096 1.492 . S
C1102 C1103 1.363 1_565 S
C1102 C1107 1.390 . S
C1103 H1068 0.930 . S
C1103 C1102 1.363 1_545 S
C1103 C1104 1.372 . S
C1104 H1069 0.930 . S
C1104 C1103 1.372 . S
C1104 C1105 1.446 . S
C1105 C1104 1.446 . S
C1105 C1106 1.364 1_545 S
C1106 H1070 0.930 . S
C1106 C1105 1.364 1_565 S
C1106 C1107 1.362 . S
C1107 H1071 0.930 . S
C1107 C1102 1.390 . S
C1107 C1106 1.362 . S
C1108 C1097 1.492 . S
C1108 C1109 1.377 1_565 S
C1108 C1113 1.397 . S
C1109 H1072 0.931 . S
C1109 C1108 1.377 1_545 S
C1109 C1110 1.376 . S
C1110 H1073 0.930 . S
C1110 C1109 1.376 . S
C1110 C1111 1.376 1_545 S
C1111 C1110 1.376 1_565 S
C1111 C1112 1.378 . S
C1111 C1138 1.486 . S
C1112 H1074 0.930 . S
C1112 C1111 1.378 . S
C1112 C1113 1.376 . S
C1113 H1075 0.929 . S
C1113 C1108 1.397 . S
C1113 C1112 1.376 . S
C1114 C1098 1.509 . S
C1114 C1115 1.391 1_565 S
C1114 C1119 1.386 . S
C1115 H1076 0.930 . S
C1115 C1114 1.391 1_545 S
C1115 C1116 1.375 . S
C1116 H1077 0.931 . S
C1116 C1115 1.375 . S
C1116 C1117 1.375 1_545 S
C1117 C1116 1.375 1_565 S
C1117 C1118 1.361 . S
C1118 H1078 0.930 . S
C1118 C1117 1.361 . S
C1118 C1119 1.399 . S
C1119 H1079 0.929 . S
C1119 C1114 1.386 . S
C1119 C1118 1.399 . S
C1120 C1099 1.485 . S
C1120 C1121 1.394 1_565 S
C1120 C1125 1.360 . S
C1121 H1080 0.931 . S
C1121 C1120 1.394 1_545 S
C1121 C1122 1.372 . S
C1122 H1081 0.930 . S
C1122 C1121 1.372 . S
C1122 C1123 1.397 1_545 S
C1123 C1122 1.397 1_565 S
C1123 C1124 1.390 . S
C1123 C1139 1.476 . S
C1124 H1082 0.930 . S
C1124 C1123 1.390 . S
C1124 C1125 1.366 . S
C1125 H1083 0.932 . S
C1125 C1120 1.360 . S
C1125 C1124 1.366 . S
C1126 C1100 1.491 . S
C1126 C1127 1.380 . S
C1126 C1131 1.386 1_545 S
C1127 H1084 0.930 . S
C1127 C1126 1.380 . S
C1127 C1128 1.381 . S
C1128 H1085 0.929 . S
C1128 C1127 1.381 . S
C1128 C1129 1.371 . S
C1129 C1128 1.371 . S
C1129 C1130 1.380 1_545 S
C1130 H1086 0.931 . S
C1130 C1129 1.380 1_565 S
C1130 C1131 1.387 . S
C1131 H1087 0.930 . S
C1131 C1126 1.386 1_565 S
C1131 C1130 1.387 . S
C1132 C1101 1.536 . S
C1132 C1133 1.379 1_565 S
C1132 C1137 1.357 . S
C1133 H1088 0.929 . S
C1133 C1132 1.379 1_545 S
C1133 C1134 1.386 . S
C1134 H1089 0.931 . S
C1134 C1133 1.386 . S
C1134 C1135 1.363 1_545 S
C1135 C1134 1.363 1_565 S
C1135 C1136 1.385 . S
C1136 H1090 0.930 . S
C1136 C1135 1.385 . S
C1136 C1137 1.396 . S
C1137 H1091 0.929 . S
C1137 C1132 1.357 . S
C1137 C1136 1.396 . S
C1138 O1092 1.300 . S
C1138 O1093 1.209 . S
C1138 C1111 1.486 . S
C1139 O1094 1.199 1_565 S
C1139 O1095 1.297 . S
C1139 C1123 1.476 . S
H1140 O1166 0.856 . S
H1141 O1169 0.854 . S
H1142 C1177 0.930 . S
H1143 C1178 0.930 . S
H1144 C1180 0.930 . S
H1145 C1181 0.930 . S
H1146 C1183 0.931 . S
H1147 C1184 0.930 . S
H1148 C1186 0.930 . S
H1149 C1187 0.929 . S
H1150 C1189 0.930 . S
H1151 C1190 0.931 . S
H1152 C1192 0.930 . S
H1153 C1193 0.929 . S
H1154 C1195 0.931 . S
H1155 C1196 0.930 . S
H1156 C1198 0.930 . S
H1157 C1199 0.932 . S
H1158 C1201 0.930 . S
H1159 C1202 0.929 . S
H1160 C1204 0.931 . S
H1161 C1205 0.930 . S
H1162 C1207 0.929 . S
H1163 C1208 0.931 . S
H1164 C1210 0.930 . S
H1165 C1211 0.929 . S
O1166 H1140 0.856 . S
O1166 C1212 1.300 . S
O1167 C1212 1.209 1_565 S
O1168 C1213 1.199 1_545 S
O1169 H1141 0.854 . S
O1169 C1213 1.297 . S
C1170 C1171 1.404 . S
C1170 C1175 1.396 1_545 S
C1170 C1176 1.492 . S
C1171 C1170 1.404 . S
C1171 C1172 1.419 . S
C1171 C1182 1.492 . S
C1172 C1171 1.419 . S
C1172 C1173 1.375 1_545 S
C1172 C1188 1.500 . S
C1173 C1172 1.375 1_565 S
C1173 C1174 1.393 . S
C1173 C1194 1.522 . S
C1174 C1173 1.393 . S
C1174 C1175 1.390 . S
C1174 C1200 1.490 . S
C1175 C1170 1.396 1_565 S
C1175 C1174 1.390 . S
C1175 C1206 1.518 . S
C1176 C1170 1.492 . S
C1176 C1177 1.363 . S
C1176 C1181 1.390 1_545 S
C1177 H1142 0.930 . S
C1177 C1176 1.363 . S
C1177 C1178 1.372 . S
C1178 H1143 0.930 . S
C1178 C1177 1.372 . S
C1178 C1179 1.383 . S
C1179 C1178 1.383 . S
C1179 C1180 1.395 1_545 S
C1180 H1144 0.930 . S
C1180 C1179 1.395 1_565 S
C1180 C1181 1.362 . S
C1181 H1145 0.930 . S
C1181 C1176 1.390 1_565 S
C1181 C1180 1.362 . S
C1182 C1171 1.492 . S
C1182 C1183 1.377 . S
C1182 C1187 1.397 1_545 S
C1183 H1146 0.931 . S
C1183 C1182 1.377 . S
C1183 C1184 1.376 . S
C1184 H1147 0.930 . S
C1184 C1183 1.376 . S
C1184 C1185 1.376 . S
C1185 C1184 1.376 . S
C1185 C1186 1.378 1_545 S
C1185 C1212 1.486 . S
C1186 H1148 0.930 . S
C1186 C1185 1.378 1_565 S
C1186 C1187 1.376 . S
C1187 H1149 0.929 . S
C1187 C1182 1.397 1_565 S
C1187 C1186 1.376 . S
C1188 C1172 1.500 . S
C1188 C1189 1.397 . S
C1188 C1193 1.376 1_545 S
C1189 H1150 0.930 . S
C1189 C1188 1.397 . S
C1189 C1190 1.375 . S
C1190 H1151 0.931 . S
C1190 C1189 1.375 . S
C1190 C1191 1.358 1_545 S
C1191 C1190 1.358 1_565 S
C1191 C1192 1.371 . S
C1192 H1152 0.930 . S
C1192 C1191 1.371 . S
C1192 C1193 1.399 . S
C1193 H1153 0.929 . S
C1193 C1188 1.376 1_565 S
C1193 C1192 1.399 . S
C1194 C1173 1.522 . S
C1194 C1195 1.394 1_565 S
C1194 C1199 1.360 . S
C1195 H1154 0.931 . S
C1195 C1194 1.394 1_545 S
C1195 C1196 1.372 . S
C1196 H1155 0.930 . S
C1196 C1195 1.372 . S
C1196 C1197 1.397 1_545 S
C1197 C1196 1.397 1_565 S
C1197 C1198 1.390 . S
C1197 C1213 1.476 . S
C1198 H1156 0.930 . S
C1198 C1197 1.390 . S
C1198 C1199 1.366 . S
C1199 H1157 0.932 . S
C1199 C1194 1.360 . S
C1199 C1198 1.366 . S
C1200 C1174 1.490 . S
C1200 C1201 1.380 1_565 S
C1200 C1205 1.386 . S
C1201 H1158 0.930 . S
C1201 C1200 1.380 1_545 S
C1201 C1202 1.381 . S
C1202 H1159 0.929 . S
C1202 C1201 1.381 . S
C1202 C1203 1.344 1_545 S
C1203 C1202 1.344 1_565 S
C1203 C1204 1.401 . S
C1204 H1160 0.931 . S
C1204 C1203 1.401 . S
C1204 C1205 1.387 . S
C1205 H1161 0.930 . S
C1205 C1200 1.386 . S
C1205 C1204 1.387 . S
C1206 C1175 1.518 . S
C1206 C1207 1.377 1_565 S
C1206 C1211 1.361 . S
C1207 H1162 0.929 . S
C1207 C1206 1.377 1_545 S
C1207 C1208 1.386 . S
C1208 H1163 0.931 . S
C1208 C1207 1.386 . S
C1208 C1209 1.363 1_545 S
C1209 C1208 1.363 1_565 S
C1209 C1210 1.385 . S
C1210 H1164 0.930 . S
C1210 C1209 1.385 . S
C1210 C1211 1.396 . S
C1211 H1165 0.929 . S
C1211 C1206 1.361 . S
C1211 C1210 1.396 . S
C1212 O1166 1.300 . S
C1212 O1167 1.209 1_545 S
C1212 C1185 1.486 . S
C1213 O1168 1.199 1_565 S
C1213 O1169 1.297 . S
C1213 C1197 1.476 . S
H1214 O1240 0.856 . S
H1215 O1243 0.854 . S
H1216 C1251 0.930 . S
H1217 C1252 0.930 . S
H1218 C1254 0.930 . S
H1219 C1255 0.930 . S
H1220 C1257 0.931 . S
H1221 C1258 0.930 . S
H1222 C1260 0.930 . S
H1223 C1261 0.929 . S
H1224 C1263 0.930 . S
H1225 C1264 0.931 . S
H1226 C1266 0.930 . S
H1227 C1267 0.929 . S
H1228 C1269 0.931 . S
H1229 C1270 0.930 . S
H1230 C1272 0.930 . S
H1231 C1273 0.932 . S
H1232 C1275 0.930 . S
H1233 C1276 0.929 . S
H1234 C1278 0.931 . S
H1235 C1279 0.930 . S
H1236 C1281 0.929 . S
H1237 C1282 0.931 . S
H1238 C1284 0.930 . S
H1239 C1285 0.929 . S
O1240 H1214 0.856 . S
O1240 C1286 1.300 . S
O1241 C1286 1.209 1_455 S
O1242 C1287 1.199 1_655 S
O1243 H1215 0.854 . S
O1243 C1287 1.297 . S
C1244 C1245 1.404 . S
C1244 C1249 1.398 . S
C1244 C1250 1.492 . S
C1245 C1244 1.404 . S
C1245 C1246 1.396 . S
C1245 C1256 1.492 . S
C1246 C1245 1.396 . S
C1246 C1247 1.394 . S
C1246 C1262 1.509 . S
C1247 C1246 1.394 . S
C1247 C1248 1.390 1_655 S
C1247 C1268 1.526 1_655 S
C1248 C1247 1.390 1_455 S
C1248 C1249 1.404 1_455 S
C1248 C1274 1.485 . S
C1249 C1244 1.398 . S
C1249 C1248 1.404 1_655 S
C1249 C1280 1.522 1_655 S
C1250 C1244 1.492 . S
C1250 C1251 1.363 . S
C1250 C1255 1.390 1_655 S
C1251 H1216 0.930 . S
C1251 C1250 1.363 . S
C1251 C1252 1.372 . S
C1252 H1217 0.930 . S
C1252 C1251 1.372 . S
C1252 C1253 1.383 . S
C1253 C1252 1.383 . S
C1253 C1254 1.395 1_655 S
C1254 H1218 0.930 . S
C1254 C1253 1.395 1_455 S
C1254 C1255 1.362 . S
C1255 H1219 0.930 . S
C1255 C1250 1.390 1_455 S
C1255 C1254 1.362 . S
C1256 C1245 1.492 . S
C1256 C1257 1.377 . S
C1256 C1261 1.397 1_655 S
C1257 H1220 0.931 . S
C1257 C1256 1.377 . S
C1257 C1258 1.376 . S
C1258 H1221 0.930 . S
C1258 C1257 1.376 . S
C1258 C1259 1.376 . S
C1259 C1258 1.376 . S
C1259 C1260 1.378 1_655 S
C1259 C1286 1.486 . S
C1260 H1222 0.930 . S
C1260 C1259 1.378 1_455 S
C1260 C1261 1.376 . S
C1261 H1223 0.929 . S
C1261 C1256 1.397 1_455 S
C1261 C1260 1.376 . S
C1262 C1246 1.509 . S
C1262 C1263 1.391 . S
C1262 C1267 1.386 1_655 S
C1263 H1224 0.930 . S
C1263 C1262 1.391 . S
C1263 C1264 1.375 . S
C1264 H1225 0.931 . S
C1264 C1263 1.375 . S
C1264 C1265 1.375 . S
C1265 C1264 1.375 . S
C1265 C1266 1.361 1_655 S
C1266 H1226 0.930 . S
C1266 C1265 1.361 1_455 S
C1266 C1267 1.399 . S
C1267 H1227 0.929 . S
C1267 C1262 1.386 1_455 S
C1267 C1266 1.399 . S
C1268 C1247 1.526 1_455 S
C1268 C1269 1.347 1_455 S
C1268 C1273 1.381 . S
C1269 H1228 0.931 . S
C1269 C1268 1.347 1_655 S
C1269 C1270 1.372 . S
C1270 H1229 0.930 . S
C1270 C1269 1.372 . S
C1270 C1271 1.397 1_655 S
C1271 C1270 1.397 1_455 S
C1271 C1272 1.390 . S
C1271 C1287 1.476 . S
C1272 H1230 0.930 . S
C1272 C1271 1.390 . S
C1272 C1273 1.366 . S
C1273 H1231 0.932 . S
C1273 C1268 1.381 . S
C1273 C1272 1.366 . S
C1274 C1248 1.485 . S
C1274 C1275 1.380 1_455 S
C1274 C1279 1.386 . S
C1275 H1232 0.930 . S
C1275 C1274 1.380 1_655 S
C1275 C1276 1.381 . S
C1276 H1233 0.929 . S
C1276 C1275 1.381 . S
C1276 C1277 1.371 1_655 S
C1277 C1276 1.371 1_455 S
C1277 C1278 1.380 . S
C1278 H1234 0.931 . S
C1278 C1277 1.380 . S
C1278 C1279 1.387 . S
C1279 H1235 0.930 . S
C1279 C1274 1.386 . S
C1279 C1278 1.387 . S
C1280 C1249 1.522 1_455 S
C1280 C1281 1.377 1_455 S
C1280 C1285 1.361 . S
C1281 H1236 0.929 . S
C1281 C1280 1.377 1_655 S
C1281 C1282 1.386 . S
C1282 H1237 0.931 . S
C1282 C1281 1.386 . S
C1282 C1283 1.363 1_655 S
C1283 C1282 1.363 1_455 S
C1283 C1284 1.385 . S
C1284 H1238 0.930 . S
C1284 C1283 1.385 . S
C1284 C1285 1.396 . S
C1285 H1239 0.929 . S
C1285 C1280 1.361 . S
C1285 C1284 1.396 . S
C1286 O1240 1.300 . S
C1286 O1241 1.209 1_655 S
C1286 C1259 1.486 . S
C1287 O1242 1.199 1_455 S
C1287 O1243 1.297 . S
C1287 C1271 1.476 . S
H1288 O1314 0.856 . S
H1289 O1317 0.854 . S
H1290 C1325 0.930 . S
H1291 C1326 0.930 . S
H1292 C1328 0.930 . S
H1293 C1329 0.930 . S
H1294 C1331 0.931 . S
H1295 C1332 0.930 . S
H1296 C1334 0.930 . S
H1297 C1335 0.929 . S
H1298 C1337 0.930 . S
H1299 C1338 0.931 . S
H1300 C1340 0.930 . S
H1301 C1341 0.929 . S
H1302 C1343 0.931 . S
H1303 C1344 0.930 . S
H1304 C1346 0.930 . S
H1305 C1347 0.932 . S
H1306 C1349 0.930 . S
H1307 C1350 0.929 . S
H1308 C1352 0.931 . S
H1309 C1353 0.930 . S
H1310 C1355 0.929 . S
H1311 C1356 0.931 . S
H1312 C1358 0.930 . S
H1313 C1359 0.929 . S
O1314 H1288 0.856 . S
O1314 C1360 1.300 . S
O1315 C1360 1.209 . S
O1316 C1361 1.199 . S
O1317 H1289 0.854 . S
O1317 C1361 1.297 . S
C1318 C1319 1.404 . S
C1318 C1323 1.397 . S
C1318 C1324 1.492 . S
C1319 C1318 1.404 . S
C1319 C1320 1.396 . S
C1319 C1330 1.492 . S
C1320 C1319 1.396 . S
C1320 C1321 1.397 . S
C1320 C1336 1.509 . S
C1321 C1320 1.397 . S
C1321 C1322 1.412 . S
C1321 C1342 1.485 . S
C1322 C1321 1.412 . S
C1322 C1323 1.388 . S
C1322 C1348 1.490 . S
C1323 C1318 1.397 . S
C1323 C1322 1.388 . S
C1323 C1354 1.519 . S
C1324 C1318 1.492 . S
C1324 C1325 1.363 . S
C1324 C1329 1.390 . S
C1325 H1290 0.930 . S
C1325 C1324 1.363 . S
C1325 C1326 1.372 . S
C1326 H1291 0.930 . S
C1326 C1325 1.372 . S
C1326 C1327 1.383 . S
C1327 C1326 1.383 . S
C1327 C1328 1.395 . S
C1328 H1292 0.930 . S
C1328 C1327 1.395 . S
C1328 C1329 1.362 . S
C1329 H1293 0.930 . S
C1329 C1324 1.390 . S
C1329 C1328 1.362 . S
C1330 C1319 1.492 . S
C1330 C1331 1.377 . S
C1330 C1335 1.397 . S
C1331 H1294 0.931 . S
C1331 C1330 1.377 . S
C1331 C1332 1.376 . S
C1332 H1295 0.930 . S
C1332 C1331 1.376 . S
C1332 C1333 1.376 . S
C1333 C1332 1.376 . S
C1333 C1334 1.378 . S
C1333 C1360 1.486 . S
C1334 H1296 0.930 . S
C1334 C1333 1.378 . S
C1334 C1335 1.376 . S
C1335 H1297 0.929 . S
C1335 C1330 1.397 . S
C1335 C1334 1.376 . S
C1336 C1320 1.509 . S
C1336 C1337 1.391 . S
C1336 C1341 1.386 . S
C1337 H1298 0.930 . S
C1337 C1336 1.391 . S
C1337 C1338 1.375 . S
C1338 H1299 0.931 . S
C1338 C1337 1.375 . S
C1338 C1339 1.375 . S
C1339 C1338 1.375 . S
C1339 C1340 1.361 . S
C1340 H1300 0.930 . S
C1340 C1339 1.361 . S
C1340 C1341 1.399 . S
C1341 H1301 0.929 . S
C1341 C1336 1.386 . S
C1341 C1340 1.399 . S
C1342 C1321 1.485 . S
C1342 C1343 1.394 . S
C1342 C1347 1.360 . S
C1343 H1302 0.931 . S
C1343 C1342 1.394 . S
C1343 C1344 1.372 . S
C1344 H1303 0.930 . S
C1344 C1343 1.372 . S
C1344 C1345 1.397 . S
C1345 C1344 1.397 . S
C1345 C1346 1.390 . S
C1345 C1361 1.476 . S
C1346 H1304 0.930 . S
C1346 C1345 1.390 . S
C1346 C1347 1.366 . S
C1347 H1305 0.932 . S
C1347 C1342 1.360 . S
C1347 C1346 1.366 . S
C1348 C1322 1.490 . S
C1348 C1349 1.380 . S
C1348 C1353 1.386 . S
C1349 H1306 0.930 . S
C1349 C1348 1.380 . S
C1349 C1350 1.381 . S
C1350 H1307 0.929 . S
C1350 C1349 1.381 . S
C1350 C1351 1.371 . S
C1351 C1350 1.371 . S
C1351 C1352 1.380 . S
C1352 H1308 0.931 . S
C1352 C1351 1.380 . S
C1352 C1353 1.387 . S
C1353 H1309 0.930 . S
C1353 C1348 1.386 . S
C1353 C1352 1.387 . S
C1354 C1323 1.519 . S
C1354 C1355 1.377 . S
C1354 C1359 1.361 . S
C1355 H1310 0.929 . S
C1355 C1354 1.377 . S
C1355 C1356 1.386 . S
C1356 H1311 0.931 . S
C1356 C1355 1.386 . S
C1356 C1357 1.363 . S
C1357 C1356 1.363 . S
C1357 C1358 1.385 . S
C1358 H1312 0.930 . S
C1358 C1357 1.385 . S
C1358 C1359 1.396 . S
C1359 H1313 0.929 . S
C1359 C1354 1.361 . S
C1359 C1358 1.396 . S
C1360 O1314 1.300 . S
C1360 O1315 1.209 . S
C1360 C1333 1.486 . S
C1361 O1316 1.199 . S
C1361 O1317 1.297 . S
C1361 C1345 1.476 . S
H1362 O1388 0.856 . S
H1363 O1391 0.854 . S
H1364 C1399 0.930 . S
H1365 C1400 0.930 . S
H1366 C1402 0.930 . S
H1367 C1403 0.930 . S
H1368 C1405 0.931 . S
H1369 C1406 0.930 . S
H1370 C1408 0.930 . S
H1371 C1409 0.929 . S
H1372 C1411 0.930 . S
H1373 C1412 0.931 . S
H1374 C1414 0.930 . S
H1375 C1415 0.929 . S
H1376 C1417 0.931 . S
H1377 C1418 0.930 . S
H1378 C1420 0.930 . S
H1379 C1421 0.932 . S
H1380 C1423 0.930 . S
H1381 C1424 0.929 . S
H1382 C1426 0.931 . S
H1383 C1427 0.930 . S
H1384 C1429 0.929 . S
H1385 C1430 0.931 . S
H1386 C1432 0.930 . S
H1387 C1433 0.929 . S
O1388 H1362 0.856 . S
O1388 C1434 1.300 . S
O1389 C1434 1.209 . S
O1390 C1435 1.199 . S
O1391 H1363 0.854 . S
O1391 C1435 1.297 . S
C1392 C1393 1.404 . S
C1392 C1397 1.397 . S
C1392 C1398 1.492 . S
C1393 C1392 1.404 . S
C1393 C1394 1.396 . S
C1393 C1404 1.492 . S
C1394 C1393 1.396 . S
C1394 C1395 1.397 . S
C1394 C1410 1.509 . S
C1395 C1394 1.397 . S
C1395 C1396 1.412 . S
C1395 C1416 1.485 . S
C1396 C1395 1.412 . S
C1396 C1397 1.388 . S
C1396 C1422 1.490 . S
C1397 C1392 1.397 . S
C1397 C1396 1.388 . S
C1397 C1428 1.519 . S
C1398 C1392 1.492 . S
C1398 C1399 1.363 . S
C1398 C1403 1.390 . S
C1399 H1364 0.930 . S
C1399 C1398 1.363 . S
C1399 C1400 1.372 . S
C1400 H1365 0.930 . S
C1400 C1399 1.372 . S
C1400 C1401 1.383 . S
C1401 C1400 1.383 . S
C1401 C1402 1.395 . S
C1402 H1366 0.930 . S
C1402 C1401 1.395 . S
C1402 C1403 1.362 . S
C1403 H1367 0.930 . S
C1403 C1398 1.390 . S
C1403 C1402 1.362 . S
C1404 C1393 1.492 . S
C1404 C1405 1.377 . S
C1404 C1409 1.397 . S
C1405 H1368 0.931 . S
C1405 C1404 1.377 . S
C1405 C1406 1.376 . S
C1406 H1369 0.930 . S
C1406 C1405 1.376 . S
C1406 C1407 1.376 . S
C1407 C1406 1.376 . S
C1407 C1408 1.378 . S
C1407 C1434 1.486 . S
C1408 H1370 0.930 . S
C1408 C1407 1.378 . S
C1408 C1409 1.376 . S
C1409 H1371 0.929 . S
C1409 C1404 1.397 . S
C1409 C1408 1.376 . S
C1410 C1394 1.509 . S
C1410 C1411 1.391 . S
C1410 C1415 1.386 . S
C1411 H1372 0.930 . S
C1411 C1410 1.391 . S
C1411 C1412 1.375 . S
C1412 H1373 0.931 . S
C1412 C1411 1.375 . S
C1412 C1413 1.375 . S
C1413 C1412 1.375 . S
C1413 C1414 1.361 . S
C1414 H1374 0.930 . S
C1414 C1413 1.361 . S
C1414 C1415 1.399 . S
C1415 H1375 0.929 . S
C1415 C1410 1.386 . S
C1415 C1414 1.399 . S
C1416 C1395 1.485 . S
C1416 C1417 1.394 . S
C1416 C1421 1.360 . S
C1417 H1376 0.931 . S
C1417 C1416 1.394 . S
C1417 C1418 1.372 . S
C1418 H1377 0.930 . S
C1418 C1417 1.372 . S
C1418 C1419 1.397 . S
C1419 C1418 1.397 . S
C1419 C1420 1.390 . S
C1419 C1435 1.476 . S
C1420 H1378 0.930 . S
C1420 C1419 1.390 . S
C1420 C1421 1.366 . S
C1421 H1379 0.932 . S
C1421 C1416 1.360 . S
C1421 C1420 1.366 . S
C1422 C1396 1.490 . S
C1422 C1423 1.380 . S
C1422 C1427 1.386 . S
C1423 H1380 0.930 . S
C1423 C1422 1.380 . S
C1423 C1424 1.381 . S
C1424 H1381 0.929 . S
C1424 C1423 1.381 . S
C1424 C1425 1.371 . S
C1425 C1424 1.371 . S
C1425 C1426 1.380 . S
C1426 H1382 0.931 . S
C1426 C1425 1.380 . S
C1426 C1427 1.387 . S
C1427 H1383 0.930 . S
C1427 C1422 1.386 . S
C1427 C1426 1.387 . S
C1428 C1397 1.519 . S
C1428 C1429 1.377 . S
C1428 C1433 1.361 . S
C1429 H1384 0.929 . S
C1429 C1428 1.377 . S
C1429 C1430 1.386 . S
C1430 H1385 0.931 . S
C1430 C1429 1.386 . S
C1430 C1431 1.363 . S
C1431 C1430 1.363 . S
C1431 C1432 1.385 . S
C1432 H1386 0.930 . S
C1432 C1431 1.385 . S
C1432 C1433 1.396 . S
C1433 H1387 0.929 . S
C1433 C1428 1.361 . S
C1433 C1432 1.396 . S
C1434 O1388 1.300 . S
C1434 O1389 1.209 . S
C1434 C1407 1.486 . S
C1435 O1390 1.199 . S
C1435 O1391 1.297 . S
C1435 C1419 1.476 . S
H1436 O1462 0.856 . S
H1437 O1465 0.854 . S
H1438 C1473 0.930 . S
H1439 C1474 0.930 . S
H1440 C1476 0.930 . S
H1441 C1477 0.930 . S
H1442 C1479 0.931 . S
H1443 C1480 0.930 . S
H1444 C1482 0.930 . S
H1445 C1483 0.929 . S
H1446 C1485 0.930 . S
H1447 C1486 0.931 . S
H1448 C1488 0.930 . S
H1449 C1489 0.929 . S
H1450 C1491 0.931 . S
H1451 C1492 0.930 . S
H1452 C1494 0.930 . S
H1453 C1495 0.932 . S
H1454 C1497 0.930 . S
H1455 C1498 0.929 . S
H1456 C1500 0.931 . S
H1457 C1501 0.930 . S
H1458 C1503 0.929 . S
H1459 C1504 0.931 . S
H1460 C1506 0.930 . S
H1461 C1507 0.929 . S
O1462 H1436 0.856 . S
O1462 C1508 1.300 . S
O1463 C1508 1.209 . S
O1464 C1509 1.199 . S
O1465 H1437 0.854 . S
O1465 C1509 1.297 . S
C1466 C1467 1.404 . S
C1466 C1471 1.397 . S
C1466 C1472 1.492 . S
C1467 C1466 1.404 . S
C1467 C1468 1.396 . S
C1467 C1478 1.492 . S
C1468 C1467 1.396 . S
C1468 C1469 1.397 . S
C1468 C1484 1.509 . S
C1469 C1468 1.397 . S
C1469 C1470 1.412 . S
C1469 C1490 1.485 . S
C1470 C1469 1.412 . S
C1470 C1471 1.388 . S
C1470 C1496 1.490 . S
C1471 C1466 1.397 . S
C1471 C1470 1.388 . S
C1471 C1502 1.519 . S
C1472 C1466 1.492 . S
C1472 C1473 1.363 . S
C1472 C1477 1.390 . S
C1473 H1438 0.930 . S
C1473 C1472 1.363 . S
C1473 C1474 1.372 . S
C1474 H1439 0.930 . S
C1474 C1473 1.372 . S
C1474 C1475 1.383 . S
C1475 C1474 1.383 . S
C1475 C1476 1.395 . S
C1476 H1440 0.930 . S
C1476 C1475 1.395 . S
C1476 C1477 1.362 . S
C1477 H1441 0.930 . S
C1477 C1472 1.390 . S
C1477 C1476 1.362 . S
C1478 C1467 1.492 . S
C1478 C1479 1.377 . S
C1478 C1483 1.397 . S
C1479 H1442 0.931 . S
C1479 C1478 1.377 . S
C1479 C1480 1.376 . S
C1480 H1443 0.930 . S
C1480 C1479 1.376 . S
C1480 C1481 1.376 . S
C1481 C1480 1.376 . S
C1481 C1482 1.378 . S
C1481 C1508 1.486 . S
C1482 H1444 0.930 . S
C1482 C1481 1.378 . S
C1482 C1483 1.376 . S
C1483 H1445 0.929 . S
C1483 C1478 1.397 . S
C1483 C1482 1.376 . S
C1484 C1468 1.509 . S
C1484 C1485 1.391 . S
C1484 C1489 1.386 . S
C1485 H1446 0.930 . S
C1485 C1484 1.391 . S
C1485 C1486 1.375 . S
C1486 H1447 0.931 . S
C1486 C1485 1.375 . S
C1486 C1487 1.375 . S
C1487 C1486 1.375 . S
C1487 C1488 1.361 . S
C1488 H1448 0.930 . S
C1488 C1487 1.361 . S
C1488 C1489 1.399 . S
C1489 H1449 0.929 . S
C1489 C1484 1.386 . S
C1489 C1488 1.399 . S
C1490 C1469 1.485 . S
C1490 C1491 1.394 . S
C1490 C1495 1.360 . S
C1491 H1450 0.931 . S
C1491 C1490 1.394 . S
C1491 C1492 1.372 . S
C1492 H1451 0.930 . S
C1492 C1491 1.372 . S
C1492 C1493 1.397 . S
C1493 C1492 1.397 . S
C1493 C1494 1.390 . S
C1493 C1509 1.476 . S
C1494 H1452 0.930 . S
C1494 C1493 1.390 . S
C1494 C1495 1.366 . S
C1495 H1453 0.932 . S
C1495 C1490 1.360 . S
C1495 C1494 1.366 . S
C1496 C1470 1.490 . S
C1496 C1497 1.380 . S
C1496 C1501 1.386 . S
C1497 H1454 0.930 . S
C1497 C1496 1.380 . S
C1497 C1498 1.381 . S
C1498 H1455 0.929 . S
C1498 C1497 1.381 . S
C1498 C1499 1.371 . S
C1499 C1498 1.371 . S
C1499 C1500 1.380 . S
C1500 H1456 0.931 . S
C1500 C1499 1.380 . S
C1500 C1501 1.387 . S
C1501 H1457 0.930 . S
C1501 C1496 1.386 . S
C1501 C1500 1.387 . S
C1502 C1471 1.519 . S
C1502 C1503 1.377 . S
C1502 C1507 1.361 . S
C1503 H1458 0.929 . S
C1503 C1502 1.377 . S
C1503 C1504 1.386 . S
C1504 H1459 0.931 . S
C1504 C1503 1.386 . S
C1504 C1505 1.363 . S
C1505 C1504 1.363 . S
C1505 C1506 1.385 . S
C1506 H1460 0.930 . S
C1506 C1505 1.385 . S
C1506 C1507 1.396 . S
C1507 H1461 0.929 . S
C1507 C1502 1.361 . S
C1507 C1506 1.396 . S
C1508 O1462 1.300 . S
C1508 O1463 1.209 . S
C1508 C1481 1.486 . S
C1509 O1464 1.199 . S
C1509 O1465 1.297 . S
C1509 C1493 1.476 . S
H1510 O1536 0.856 . S
H1511 O1539 0.854 . S
H1512 C1547 0.930 . S
H1513 C1548 0.930 . S
H1514 C1550 0.930 . S
H1515 C1551 0.930 . S
H1516 C1553 0.931 . S
H1517 C1554 0.930 . S
H1518 C1556 0.930 . S
H1519 C1557 0.929 . S
H1520 C1559 0.930 . S
H1521 C1560 0.931 . S
H1522 C1562 0.930 . S
H1523 C1563 0.929 . S
H1524 C1565 0.931 . S
H1525 C1566 0.930 . S
H1526 C1568 0.930 . S
H1527 C1569 0.932 . S
H1528 C1571 0.930 . S
H1529 C1572 0.929 . S
H1530 C1574 0.931 . S
H1531 C1575 0.930 . S
H1532 C1577 0.929 . S
H1533 C1578 0.931 . S
H1534 C1580 0.930 . S
H1535 C1581 0.929 . S
O1536 H1510 0.856 . S
O1536 C1582 1.300 . S
O1537 C1582 1.209 . S
O1538 C1583 1.199 . S
O1539 H1511 0.854 . S
O1539 C1583 1.297 . S
C1540 C1541 1.404 . S
C1540 C1545 1.397 . S
C1540 C1546 1.492 . S
C1541 C1540 1.404 . S
C1541 C1542 1.396 . S
C1541 C1552 1.492 . S
C1542 C1541 1.396 . S
C1542 C1543 1.397 . S
C1542 C1558 1.509 . S
C1543 C1542 1.397 . S
C1543 C1544 1.412 . S
C1543 C1564 1.485 . S
C1544 C1543 1.412 . S
C1544 C1545 1.388 . S
C1544 C1570 1.490 . S
C1545 C1540 1.397 . S
C1545 C1544 1.388 . S
C1545 C1576 1.519 . S
C1546 C1540 1.492 . S
C1546 C1547 1.363 . S
C1546 C1551 1.390 . S
C1547 H1512 0.930 . S
C1547 C1546 1.363 . S
C1547 C1548 1.372 . S
C1548 H1513 0.930 . S
C1548 C1547 1.372 . S
C1548 C1549 1.383 . S
C1549 C1548 1.383 . S
C1549 C1550 1.395 . S
C1550 H1514 0.930 . S
C1550 C1549 1.395 . S
C1550 C1551 1.362 . S
C1551 H1515 0.930 . S
C1551 C1546 1.390 . S
C1551 C1550 1.362 . S
C1552 C1541 1.492 . S
C1552 C1553 1.377 . S
C1552 C1557 1.397 . S
C1553 H1516 0.931 . S
C1553 C1552 1.377 . S
C1553 C1554 1.376 . S
C1554 H1517 0.930 . S
C1554 C1553 1.376 . S
C1554 C1555 1.376 . S
C1555 C1554 1.376 . S
C1555 C1556 1.378 . S
C1555 C1582 1.486 . S
C1556 H1518 0.930 . S
C1556 C1555 1.378 . S
C1556 C1557 1.376 . S
C1557 H1519 0.929 . S
C1557 C1552 1.397 . S
C1557 C1556 1.376 . S
C1558 C1542 1.509 . S
C1558 C1559 1.391 . S
C1558 C1563 1.386 . S
C1559 H1520 0.930 . S
C1559 C1558 1.391 . S
C1559 C1560 1.375 . S
C1560 H1521 0.931 . S
C1560 C1559 1.375 . S
C1560 C1561 1.375 . S
C1561 C1560 1.375 . S
C1561 C1562 1.361 . S
C1562 H1522 0.930 . S
C1562 C1561 1.361 . S
C1562 C1563 1.399 . S
C1563 H1523 0.929 . S
C1563 C1558 1.386 . S
C1563 C1562 1.399 . S
C1564 C1543 1.485 . S
C1564 C1565 1.394 . S
C1564 C1569 1.360 . S
C1565 H1524 0.931 . S
C1565 C1564 1.394 . S
C1565 C1566 1.372 . S
C1566 H1525 0.930 . S
C1566 C1565 1.372 . S
C1566 C1567 1.397 . S
C1567 C1566 1.397 . S
C1567 C1568 1.390 . S
C1567 C1583 1.476 . S
C1568 H1526 0.930 . S
C1568 C1567 1.390 . S
C1568 C1569 1.366 . S
C1569 H1527 0.932 . S
C1569 C1564 1.360 . S
C1569 C1568 1.366 . S
C1570 C1544 1.490 . S
C1570 C1571 1.380 . S
C1570 C1575 1.386 . S
C1571 H1528 0.930 . S
C1571 C1570 1.380 . S
C1571 C1572 1.381 . S
C1572 H1529 0.929 . S
C1572 C1571 1.381 . S
C1572 C1573 1.371 . S
C1573 C1572 1.371 . S
C1573 C1574 1.380 . S
C1574 H1530 0.931 . S
C1574 C1573 1.380 . S
C1574 C1575 1.387 . S
C1575 H1531 0.930 . S
C1575 C1570 1.386 . S
C1575 C1574 1.387 . S
C1576 C1545 1.519 . S
C1576 C1577 1.377 . S
C1576 C1581 1.361 . S
C1577 H1532 0.929 . S
C1577 C1576 1.377 . S
C1577 C1578 1.386 . S
C1578 H1533 0.931 . S
C1578 C1577 1.386 . S
C1578 C1579 1.363 . S
C1579 C1578 1.363 . S
C1579 C1580 1.385 . S
C1580 H1534 0.930 . S
C1580 C1579 1.385 . S
C1580 C1581 1.396 . S
C1581 H1535 0.929 . S
C1581 C1576 1.361 . S
C1581 C1580 1.396 . S
C1582 O1536 1.300 . S
C1582 O1537 1.209 . S
C1582 C1555 1.486 . S
C1583 O1538 1.199 . S
C1583 O1539 1.297 . S
C1583 C1567 1.476 . S
H1584 C1590 0.930 . S
H1585 C1593 0.930 . S
H1586 C1594 0.930 . S
H1587 C1595 0.930 . S
H1588 C1598 0.930 . S
H1589 C1599 0.930 . S
C1590 H1584 0.930 . S
C1590 C1591 1.355 . S
C1590 C1592 1.415 . S
C1591 C1590 1.355 . S
C1591 C1593 1.419 . S
C1592 C1590 1.415 . S
C1592 C1597 1.425 . S
C1592 C1599 1.409 . S
C1593 H1585 0.930 . S
C1593 C1591 1.419 . S
C1593 C1594 1.362 . S
C1594 H1586 0.930 . S
C1594 C1593 1.362 . S
C1594 C1597 1.409 . S
C1595 H1587 0.930 . S
C1595 C1596 1.355 . S
C1595 C1597 1.415 . S
C1596 C1595 1.355 . S
C1596 C1598 1.419 . S
C1597 C1592 1.425 . S
C1597 C1594 1.409 . S
C1597 C1595 1.415 . S
C1598 H1588 0.930 . S
C1598 C1596 1.419 . S
C1598 C1599 1.362 . S
C1599 H1589 0.930 . S
C1599 C1592 1.409 . S
C1599 C1598 1.362 . S
H1600 C1606 0.930 . S
H1601 C1609 0.930 . S
H1602 C1610 0.930 . S
H1603 C1611 0.930 . S
H1604 C1614 0.930 . S
H1605 C1615 0.930 . S
C1606 H1600 0.930 . S
C1606 C1607 1.355 . S
C1606 C1608 1.415 . S
C1607 C1606 1.355 . S
C1607 C1609 1.419 . S
C1608 C1606 1.415 . S
C1608 C1613 1.425 . S
C1608 C1615 1.409 . S
C1609 H1601 0.930 . S
C1609 C1607 1.419 . S
C1609 C1610 1.362 . S
C1610 H1602 0.930 . S
C1610 C1609 1.362 . S
C1610 C1613 1.409 . S
C1611 H1603 0.930 . S
C1611 C1612 1.355 . S
C1611 C1613 1.415 . S
C1612 C1611 1.355 . S
C1612 C1614 1.419 . S
C1613 C1608 1.425 . S
C1613 C1610 1.409 . S
C1613 C1611 1.415 . S
C1614 H1604 0.930 . S
C1614 C1612 1.419 . S
C1614 C1615 1.362 . S
C1615 H1605 0.930 . S
C1615 C1608 1.409 . S
C1615 C1614 1.362 . S
H1616 C1622 0.930 . S
H1617 C1625 0.930 . S
H1618 C1626 0.930 . S
H1619 C1627 0.930 . S
H1620 C1630 0.930 . S
H1621 C1631 0.930 . S
C1622 H1616 0.930 . S
C1622 C1623 1.355 . S
C1622 C1624 1.415 . S
C1623 C1622 1.355 . S
C1623 C1625 1.419 . S
C1624 C1622 1.415 . S
C1624 C1629 1.425 . S
C1624 C1631 1.409 . S
C1625 H1617 0.930 . S
C1625 C1623 1.419 . S
C1625 C1626 1.362 . S
C1626 H1618 0.930 . S
C1626 C1625 1.362 . S
C1626 C1629 1.409 . S
C1627 H1619 0.930 . S
C1627 C1628 1.355 . S
C1627 C1629 1.415 . S
C1628 C1627 1.355 . S
C1628 C1630 1.419 . S
C1629 C1624 1.425 . S
C1629 C1626 1.409 . S
C1629 C1627 1.415 . S
C1630 H1620 0.930 . S
C1630 C1628 1.419 . S
C1630 C1631 1.362 . S
C1631 H1621 0.930 . S
C1631 C1624 1.409 . S
C1631 C1630 1.362 . S
H1632 C1638 0.930 . S
H1633 C1641 0.930 . S
H1634 C1642 0.930 . S
H1635 C1643 0.930 . S
H1636 C1646 0.930 . S
H1637 C1647 0.930 . S
C1638 H1632 0.930 . S
C1638 C1639 1.355 . S
C1638 C1640 1.415 . S
C1639 C1638 1.355 . S
C1639 C1641 1.419 . S
C1640 C1638 1.415 . S
C1640 C1645 1.425 . S
C1640 C1647 1.409 . S
C1641 H1633 0.930 . S
C1641 C1639 1.419 . S
C1641 C1642 1.362 . S
C1642 H1634 0.930 . S
C1642 C1641 1.362 . S
C1642 C1645 1.409 . S
C1643 H1635 0.930 . S
C1643 C1644 1.355 . S
C1643 C1645 1.415 . S
C1644 C1643 1.355 . S
C1644 C1646 1.419 . S
C1645 C1640 1.425 . S
C1645 C1642 1.409 . S
C1645 C1643 1.415 . S
C1646 H1636 0.930 . S
C1646 C1644 1.419 . S
C1646 C1647 1.362 . S
C1647 H1637 0.930 . S
C1647 C1640 1.409 . S
C1647 C1646 1.362 . S
H1648 C1654 0.930 1_655 S
H1649 C1657 0.930 . S
H1650 C1658 0.930 . S
H1651 C1659 0.930 . S
H1652 C1662 0.930 . S
H1653 C1663 0.930 . S
C1654 H1648 0.930 1_455 S
C1654 C1655 1.355 . S
C1654 C1656 1.415 . S
C1655 C1654 1.355 . S
C1655 C1657 1.419 . S
C1656 C1654 1.415 . S
C1656 C1661 1.425 . S
C1656 C1663 1.409 1_455 S
C1657 H1649 0.930 . S
C1657 C1655 1.419 . S
C1657 C1658 1.362 . S
C1658 H1650 0.930 . S
C1658 C1657 1.362 . S
C1658 C1661 1.409 . S
C1659 H1651 0.930 . S
C1659 C1660 1.355 . S
C1659 C1661 1.415 . S
C1660 C1659 1.355 . S
C1660 C1662 1.419 1_455 S
C1661 C1656 1.425 . S
C1661 C1658 1.409 . S
C1661 C1659 1.415 . S
C1662 H1652 0.930 . S
C1662 C1660 1.419 1_655 S
C1662 C1663 1.362 . S
C1663 H1653 0.930 . S
C1663 C1656 1.409 1_655 S
C1663 C1662 1.362 . S
H1664 C1670 0.930 . S
H1665 C1673 0.930 . S
H1666 C1674 0.930 . S
H1667 C1675 0.930 . S
H1668 C1678 0.930 . S
H1669 C1679 0.930 . S
C1670 H1664 0.930 . S
C1670 C1671 1.355 . S
C1670 C1672 1.415 1_554 S
C1671 C1670 1.355 . S
C1671 C1673 1.419 . S
C1672 C1670 1.415 1_556 S
C1672 C1677 1.425 . S
C1672 C1679 1.409 . S
C1673 H1665 0.930 . S
C1673 C1671 1.419 . S
C1673 C1674 1.362 1_554 S
C1674 H1666 0.930 . S
C1674 C1673 1.362 1_556 S
C1674 C1677 1.409 . S
C1675 H1667 0.930 . S
C1675 C1676 1.355 . S
C1675 C1677 1.415 . S
C1676 C1675 1.355 . S
C1676 C1678 1.419 . S
C1677 C1672 1.425 . S
C1677 C1674 1.409 . S
C1677 C1675 1.415 . S
C1678 H1668 0.930 . S
C1678 C1676 1.419 . S
C1678 C1679 1.362 . S
C1679 H1669 0.930 . S
C1679 C1672 1.409 . S
C1679 C1678 1.362 . S
H1680 C1686 0.930 1_554 S
H1681 C1689 0.930 . S
H1682 C1690 0.930 . S
H1683 C1691 0.930 . S
H1684 C1694 0.930 . S
H1685 C1695 0.930 . S
C1686 H1680 0.930 1_556 S
C1686 C1687 1.355 . S
C1686 C1688 1.415 . S
C1687 C1686 1.355 . S
C1687 C1689 1.419 1_455 S
C1688 C1686 1.415 . S
C1688 C1693 1.425 1_455 S
C1688 C1695 1.409 . S
C1689 H1681 0.930 . S
C1689 C1687 1.419 1_655 S
C1689 C1690 1.362 . S
C1690 H1682 0.930 . S
C1690 C1689 1.362 . S
C1690 C1693 1.409 . S
C1691 H1683 0.930 . S
C1691 C1692 1.355 1_655 S
C1691 C1693 1.415 . S
C1692 C1691 1.355 1_455 S
C1692 C1694 1.419 . S
C1693 C1688 1.425 1_655 S
C1693 C1690 1.409 . S
C1693 C1691 1.415 . S
C1694 H1684 0.930 . S
C1694 C1692 1.419 . S
C1694 C1695 1.362 . S
C1695 H1685 0.930 . S
C1695 C1688 1.409 . S
C1695 C1694 1.362 . S
H1696 C1702 0.930 . S
H1697 C1705 0.930 . S
H1698 C1706 0.930 . S
H1699 C1707 0.930 . S
H1700 C1710 0.930 . S
H1701 C1711 0.930 . S
C1702 H1696 0.930 . S
C1702 C1703 1.355 . S
C1702 C1704 1.415 . S
C1703 C1702 1.355 . S
C1703 C1705 1.419 . S
C1704 C1702 1.415 . S
C1704 C1709 1.425 . S
C1704 C1711 1.409 . S
C1705 H1697 0.930 . S
C1705 C1703 1.419 . S
C1705 C1706 1.362 . S
C1706 H1698 0.930 . S
C1706 C1705 1.362 . S
C1706 C1709 1.409 . S
C1707 H1699 0.930 . S
C1707 C1708 1.355 . S
C1707 C1709 1.415 . S
C1708 C1707 1.355 . S
C1708 C1710 1.419 . S
C1709 C1704 1.425 . S
C1709 C1706 1.409 . S
C1709 C1707 1.415 . S
C1710 H1700 0.930 . S
C1710 C1708 1.419 . S
C1710 C1711 1.362 . S
C1711 H1701 0.930 . S
C1711 C1704 1.409 . S
C1711 C1710 1.362 . S
H1712 C1718 0.930 . S
H1713 C1721 0.904 1_554 S
H1714 C1722 0.930 . S
H1715 C1723 0.930 . S
H1716 C1726 0.930 . S
H1717 C1727 0.930 . S
C1718 H1712 0.930 . S
C1718 C1719 1.337 1_546 S
C1718 C1720 1.415 . S
C1719 C1718 1.337 1_564 S
C1719 C1721 1.413 1_554 S
C1720 C1718 1.415 . S
C1720 C1725 1.425 1_545 S
C1720 C1727 1.409 . S
C1721 H1713 0.904 1_556 S
C1721 C1719 1.413 1_556 S
C1721 C1722 1.362 . S
C1722 H1714 0.930 . S
C1722 C1721 1.362 . S
C1722 C1725 1.409 . S
C1723 H1715 0.930 . S
C1723 C1724 1.305 1_565 S
C1723 C1725 1.415 . S
C1724 C1723 1.305 1_545 S
C1724 C1726 1.448 . S
C1725 C1720 1.425 1_565 S
C1725 C1722 1.409 . S
C1725 C1723 1.415 . S
C1726 H1716 0.930 . S
C1726 C1724 1.448 . S
C1726 C1727 1.362 . S
C1727 H1717 0.930 . S
C1727 C1720 1.409 . S
C1727 C1726 1.362 . S
H1728 C1734 0.930 . S
H1729 C1737 0.930 . S
H1730 C1738 0.931 1_565 S
H1731 C1739 0.930 . S
H1732 C1742 0.930 . S
H1733 C1743 0.930 . S
C1734 H1728 0.930 . S
C1734 C1735 1.355 . S
C1734 C1736 1.415 . S
C1735 C1734 1.355 . S
C1735 C1737 1.419 . S
C1736 C1734 1.415 . S
C1736 C1741 1.425 . S
C1736 C1743 1.409 . S
C1737 H1729 0.930 . S
C1737 C1735 1.419 . S
C1737 C1738 1.362 . S
C1738 H1730 0.931 1_545 S
C1738 C1737 1.362 . S
C1738 C1741 1.409 . S
C1739 H1731 0.930 . S
C1739 C1740 1.337 1_565 S
C1739 C1741 1.415 1_565 S
C1740 C1739 1.337 1_545 S
C1740 C1742 1.437 . S
C1741 C1736 1.425 . S
C1741 C1738 1.409 . S
C1741 C1739 1.415 1_545 S
C1742 H1732 0.930 . S
C1742 C1740 1.437 . S
C1742 C1743 1.362 . S
C1743 H1733 0.930 . S
C1743 C1736 1.409 . S
C1743 C1742 1.362 . S
H1744 C1750 0.930 . S
H1745 C1753 0.930 . S
H1746 C1754 0.930 . S
H1747 C1755 0.930 . S
H1748 C1758 0.930 . S
H1749 C1759 0.930 . S
C1750 H1744 0.930 . S
C1750 C1751 1.355 . S
C1750 C1752 1.415 . S
C1751 C1750 1.355 . S
C1751 C1753 1.419 1_655 S
C1752 C1750 1.415 . S
C1752 C1757 1.425 1_655 S
C1752 C1759 1.409 . S
C1753 H1745 0.930 . S
C1753 C1751 1.419 1_455 S
C1753 C1754 1.362 . S
C1754 H1746 0.930 . S
C1754 C1753 1.362 . S
C1754 C1757 1.409 . S
C1755 H1747 0.930 . S
C1755 C1756 1.355 1_455 S
C1755 C1757 1.415 . S
C1756 C1755 1.355 1_655 S
C1756 C1758 1.419 . S
C1757 C1752 1.425 1_455 S
C1757 C1754 1.409 . S
C1757 C1755 1.415 . S
C1758 H1748 0.930 . S
C1758 C1756 1.419 . S
C1758 C1759 1.362 . S
C1759 H1749 0.930 . S
C1759 C1752 1.409 . S
C1759 C1758 1.362 . S
H1760 C1766 0.930 . S
H1761 C1769 0.930 . S
H1762 C1770 0.930 . S
H1763 C1771 0.930 . S
H1764 C1774 0.930 . S
H1765 C1775 0.930 . S
C1766 H1760 0.930 . S
C1766 C1767 1.355 . S
C1766 C1768 1.415 . S
C1767 C1766 1.355 . S
C1767 C1769 1.419 . S
C1768 C1766 1.415 . S
C1768 C1773 1.425 . S
C1768 C1775 1.409 . S
C1769 H1761 0.930 . S
C1769 C1767 1.419 . S
C1769 C1770 1.362 . S
C1770 H1762 0.930 . S
C1770 C1769 1.362 . S
C1770 C1773 1.409 . S
C1771 H1763 0.930 . S
C1771 C1772 1.355 . S
C1771 C1773 1.415 . S
C1772 C1771 1.355 . S
C1772 C1774 1.419 . S
C1773 C1768 1.425 . S
C1773 C1770 1.409 . S
C1773 C1771 1.415 . S
C1774 H1764 0.930 . S
C1774 C1772 1.419 . S
C1774 C1775 1.362 . S
C1775 H1765 0.930 . S
C1775 C1768 1.409 . S
C1775 C1774 1.362 . S
H1776 C1782 0.930 . S
H1777 C1785 0.930 . S
H1778 C1786 0.930 . S
H1779 C1787 0.930 . S
H1780 C1790 0.930 . S
H1781 C1791 0.930 . S
C1782 H1776 0.930 . S
C1782 C1783 1.355 . S
C1782 C1784 1.415 . S
C1783 C1782 1.355 . S
C1783 C1785 1.419 . S
C1784 C1782 1.415 . S
C1784 C1789 1.425 . S
C1784 C1791 1.409 . S
C1785 H1777 0.930 . S
C1785 C1783 1.419 . S
C1785 C1786 1.362 . S
C1786 H1778 0.930 . S
C1786 C1785 1.362 . S
C1786 C1789 1.409 . S
C1787 H1779 0.930 . S
C1787 C1788 1.355 . S
C1787 C1789 1.415 . S
C1788 C1787 1.355 . S
C1788 C1790 1.419 . S
C1789 C1784 1.425 . S
C1789 C1786 1.409 . S
C1789 C1787 1.415 . S
C1790 H1780 0.930 . S
C1790 C1788 1.419 . S
C1790 C1791 1.362 . S
C1791 H1781 0.930 . S
C1791 C1784 1.409 . S
C1791 C1790 1.362 . S
H1792 C1798 0.930 . S
H1793 C1801 0.930 . S
H1794 C1802 0.930 . S
H1795 C1803 0.930 . S
H1796 C1806 0.930 . S
H1797 C1807 0.930 . S
C1798 H1792 0.930 . S
C1798 C1799 1.355 . S
C1798 C1800 1.415 . S
C1799 C1798 1.355 . S
C1799 C1801 1.419 . S
C1800 C1798 1.415 . S
C1800 C1805 1.425 . S
C1800 C1807 1.409 . S
C1801 H1793 0.930 . S
C1801 C1799 1.419 . S
C1801 C1802 1.362 . S
C1802 H1794 0.930 . S
C1802 C1801 1.362 . S
C1802 C1805 1.409 . S
C1803 H1795 0.930 . S
C1803 C1804 1.355 . S
C1803 C1805 1.415 . S
C1804 C1803 1.355 . S
C1804 C1806 1.419 . S
C1805 C1800 1.425 . S
C1805 C1802 1.409 . S
C1805 C1803 1.415 . S
C1806 H1796 0.930 . S
C1806 C1804 1.419 . S
C1806 C1807 1.362 . S
C1807 H1797 0.930 . S
C1807 C1800 1.409 . S
C1807 C1806 1.362 . S
H1808 C1814 0.930 . S
H1809 C1817 0.930 . S
H1810 C1818 0.930 . S
H1811 C1819 0.930 . S
H1812 C1822 0.930 . S
H1813 C1823 0.930 . S
C1814 H1808 0.930 . S
C1814 C1815 1.355 . S
C1814 C1816 1.415 . S
C1815 C1814 1.355 . S
C1815 C1817 1.419 . S
C1816 C1814 1.415 . S
C1816 C1821 1.425 . S
C1816 C1823 1.409 . S
C1817 H1809 0.930 . S
C1817 C1815 1.419 . S
C1817 C1818 1.362 . S
C1818 H1810 0.930 . S
C1818 C1817 1.362 . S
C1818 C1821 1.409 . S
C1819 H1811 0.930 . S
C1819 C1820 1.355 . S
C1819 C1821 1.415 . S
C1820 C1819 1.355 . S
C1820 C1822 1.419 . S
C1821 C1816 1.425 . S
C1821 C1818 1.409 . S
C1821 C1819 1.415 . S
C1822 H1812 0.930 . S
C1822 C1820 1.419 . S
C1822 C1823 1.362 . S
C1823 H1813 0.930 . S
C1823 C1816 1.409 . S
C1823 C1822 1.362 . S
H1824 C1830 0.930 . S
H1825 C1833 0.930 . S
H1826 C1834 0.930 . S
H1827 C1835 0.930 . S
H1828 C1838 0.930 . S
H1829 C1839 0.930 . S
C1830 H1824 0.930 . S
C1830 C1831 1.355 . S
C1830 C1832 1.415 . S
C1831 C1830 1.355 . S
C1831 C1833 1.419 . S
C1832 C1830 1.415 . S
C1832 C1837 1.425 . S
C1832 C1839 1.409 . S
C1833 H1825 0.930 . S
C1833 C1831 1.419 . S
C1833 C1834 1.362 . S
C1834 H1826 0.930 . S
C1834 C1833 1.362 . S
C1834 C1837 1.409 . S
C1835 H1827 0.930 . S
C1835 C1836 1.355 . S
C1835 C1837 1.415 . S
C1836 C1835 1.355 . S
C1836 C1838 1.419 . S
C1837 C1832 1.425 . S
C1837 C1834 1.409 . S
C1837 C1835 1.415 . S
C1838 H1828 0.930 . S
C1838 C1836 1.419 . S
C1838 C1839 1.362 . S
C1839 H1829 0.930 . S
C1839 C1832 1.409 . S
C1839 C1838 1.362 . S
H1840 C1846 0.930 . S
H1841 C1849 0.930 . S
H1842 C1850 0.930 . S
H1843 C1851 0.930 . S
H1844 C1854 0.930 . S
H1845 C1855 0.930 . S
C1846 H1840 0.930 . S
C1846 C1847 1.355 . S
C1846 C1848 1.415 . S
C1847 C1846 1.355 . S
C1847 C1849 1.419 . S
C1848 C1846 1.415 . S
C1848 C1853 1.425 . S
C1848 C1855 1.409 . S
C1849 H1841 0.930 . S
C1849 C1847 1.419 . S
C1849 C1850 1.362 . S
C1850 H1842 0.930 . S
C1850 C1849 1.362 . S
C1850 C1853 1.409 . S
C1851 H1843 0.930 . S
C1851 C1852 1.355 . S
C1851 C1853 1.415 . S
C1852 C1851 1.355 . S
C1852 C1854 1.419 . S
C1853 C1848 1.425 . S
C1853 C1850 1.409 . S
C1853 C1851 1.415 . S
C1854 H1844 0.930 . S
C1854 C1852 1.419 . S
C1854 C1855 1.362 . S
C1855 H1845 0.930 . S
C1855 C1848 1.409 . S
C1855 C1854 1.362 . S
H1856 C1862 0.930 . S
H1857 C1865 0.930 . S
H1858 C1866 0.930 . S
H1859 C1867 0.930 . S
H1860 C1870 0.930 . S
H1861 C1871 0.930 . S
C1862 H1856 0.930 . S
C1862 C1863 1.355 . S
C1862 C1864 1.415 . S
C1863 C1862 1.355 . S
C1863 C1865 1.419 . S
C1864 C1862 1.415 . S
C1864 C1869 1.425 . S
C1864 C1871 1.409 . S
C1865 H1857 0.930 . S
C1865 C1863 1.419 . S
C1865 C1866 1.362 . S
C1866 H1858 0.930 . S
C1866 C1865 1.362 . S
C1866 C1869 1.409 . S
C1867 H1859 0.930 . S
C1867 C1868 1.355 . S
C1867 C1869 1.415 . S
C1868 C1867 1.355 . S
C1868 C1870 1.419 . S
C1869 C1864 1.425 . S
C1869 C1866 1.409 . S
C1869 C1867 1.415 . S
C1870 H1860 0.930 . S
C1870 C1868 1.419 . S
C1870 C1871 1.362 . S
C1871 H1861 0.930 . S
C1871 C1864 1.409 . S
C1871 C1870 1.362 . S
H1872 C1878 0.930 . S
H1873 C1881 0.930 . S
H1874 C1882 0.930 . S
H1875 C1883 0.930 . S
H1876 C1886 0.930 . S
H1877 C1887 0.930 . S
C1878 H1872 0.930 . S
C1878 C1879 1.355 . S
C1878 C1880 1.415 . S
C1879 C1878 1.355 . S
C1879 C1881 1.419 . S
C1880 C1878 1.415 . S
C1880 C1885 1.425 . S
C1880 C1887 1.409 . S
C1881 H1873 0.930 . S
C1881 C1879 1.419 . S
C1881 C1882 1.362 . S
C1882 H1874 0.930 . S
C1882 C1881 1.362 . S
C1882 C1885 1.409 . S
C1883 H1875 0.930 . S
C1883 C1884 1.355 . S
C1883 C1885 1.415 . S
C1884 C1883 1.355 . S
C1884 C1886 1.419 . S
C1885 C1880 1.425 . S
C1885 C1882 1.409 . S
C1885 C1883 1.415 . S
C1886 H1876 0.930 . S
C1886 C1884 1.419 . S
C1886 C1887 1.362 . S
C1887 H1877 0.930 . S
C1887 C1880 1.409 . S
C1887 C1886 1.362 . S
H1888 C1894 0.930 . S
H1889 C1897 0.930 . S
H1890 C1898 0.930 . S
H1891 C1899 0.930 . S
H1892 C1902 0.930 . S
H1893 C1903 0.930 . S
C1894 H1888 0.930 . S
C1894 C1895 1.355 . S
C1894 C1896 1.415 . S
C1895 C1894 1.355 . S
C1895 C1897 1.419 . S
C1896 C1894 1.415 . S
C1896 C1901 1.425 . S
C1896 C1903 1.409 . S
C1897 H1889 0.930 . S
C1897 C1895 1.419 . S
C1897 C1898 1.362 . S
C1898 H1890 0.930 . S
C1898 C1897 1.362 . S
C1898 C1901 1.409 . S
C1899 H1891 0.930 . S
C1899 C1900 1.355 . S
C1899 C1901 1.415 . S
C1900 C1899 1.355 . S
C1900 C1902 1.419 . S
C1901 C1896 1.425 . S
C1901 C1898 1.409 . S
C1901 C1899 1.415 . S
C1902 H1892 0.930 . S
C1902 C1900 1.419 . S
C1902 C1903 1.362 . S
C1903 H1893 0.930 . S
C1903 C1896 1.409 . S
C1903 C1902 1.362 . S
H1904 C1910 0.930 . S
H1905 C1913 0.930 . S
H1906 C1914 0.930 . S
H1907 C1915 0.930 . S
H1908 C1918 0.930 . S
H1909 C1919 0.930 . S
C1910 H1904 0.930 . S
C1910 C1911 1.355 . S
C1910 C1912 1.415 . S
C1911 C1910 1.355 . S
C1911 C1913 1.419 . S
C1912 C1910 1.415 . S
C1912 C1917 1.425 . S
C1912 C1919 1.409 . S
C1913 H1905 0.930 . S
C1913 C1911 1.419 . S
C1913 C1914 1.362 . S
C1914 H1906 0.930 . S
C1914 C1913 1.362 . S
C1914 C1917 1.409 . S
C1915 H1907 0.930 . S
C1915 C1916 1.355 . S
C1915 C1917 1.415 . S
C1916 C1915 1.355 . S
C1916 C1918 1.419 . S
C1917 C1912 1.425 . S
C1917 C1914 1.409 . S
C1917 C1915 1.415 . S
C1918 H1908 0.930 . S
C1918 C1916 1.419 . S
C1918 C1919 1.362 . S
C1919 H1909 0.930 . S
C1919 C1912 1.409 . S
C1919 C1918 1.362 . S
H1920 C1926 0.930 . S
H1921 C1929 0.930 . S
H1922 C1930 0.930 . S
H1923 C1931 0.930 . S
H1924 C1934 0.930 . S
H1925 C1935 0.930 . S
C1926 H1920 0.930 . S
C1926 C1927 1.355 . S
C1926 C1928 1.415 . S
C1927 C1926 1.355 . S
C1927 C1929 1.419 . S
C1928 C1926 1.415 . S
C1928 C1933 1.425 . S
C1928 C1935 1.409 . S
C1929 H1921 0.930 . S
C1929 C1927 1.419 . S
C1929 C1930 1.362 . S
C1930 H1922 0.930 . S
C1930 C1929 1.362 . S
C1930 C1933 1.409 . S
C1931 H1923 0.930 . S
C1931 C1932 1.355 . S
C1931 C1933 1.415 . S
C1932 C1931 1.355 . S
C1932 C1934 1.419 . S
C1933 C1928 1.425 . S
C1933 C1930 1.409 . S
C1933 C1931 1.415 . S
C1934 H1924 0.930 . S
C1934 C1932 1.419 . S
C1934 C1935 1.362 . S
C1935 H1925 0.930 . S
C1935 C1928 1.409 . S
C1935 C1934 1.362 . S
H1936 C1942 0.930 . S
H1937 C1945 0.930 . S
H1938 C1946 0.930 . S
H1939 C1947 0.930 . S
H1940 C1950 0.930 . S
H1941 C1951 0.930 . S
C1942 H1936 0.930 . S
C1942 C1943 1.355 . S
C1942 C1944 1.415 . S
C1943 C1942 1.355 . S
C1943 C1945 1.419 . S
C1944 C1942 1.415 . S
C1944 C1949 1.425 . S
C1944 C1951 1.409 . S
C1945 H1937 0.930 . S
C1945 C1943 1.419 . S
C1945 C1946 1.362 . S
C1946 H1938 0.930 . S
C1946 C1945 1.362 . S
C1946 C1949 1.409 . S
C1947 H1939 0.930 . S
C1947 C1948 1.355 . S
C1947 C1949 1.415 . S
C1948 C1947 1.355 . S
C1948 C1950 1.419 . S
C1949 C1944 1.425 . S
C1949 C1946 1.409 . S
C1949 C1947 1.415 . S
C1950 H1940 0.930 . S
C1950 C1948 1.419 . S
C1950 C1951 1.362 . S
C1951 H1941 0.930 . S
C1951 C1944 1.409 . S
C1951 C1950 1.362 . S
H1952 C1958 0.930 . S
H1953 C1961 0.930 . S
H1954 C1962 0.930 . S
H1955 C1963 0.930 . S
H1956 C1966 0.930 . S
H1957 C1967 0.930 . S
C1958 H1952 0.930 . S
C1958 C1959 1.355 . S
C1958 C1960 1.415 . S
C1959 C1958 1.355 . S
C1959 C1961 1.419 . S
C1960 C1958 1.415 . S
C1960 C1965 1.425 . S
C1960 C1967 1.409 . S
C1961 H1953 0.930 . S
C1961 C1959 1.419 . S
C1961 C1962 1.362 . S
C1962 H1954 0.930 . S
C1962 C1961 1.362 . S
C1962 C1965 1.409 . S
C1963 H1955 0.930 . S
C1963 C1964 1.355 . S
C1963 C1965 1.415 . S
C1964 C1963 1.355 . S
C1964 C1966 1.419 . S
C1965 C1960 1.425 . S
C1965 C1962 1.409 . S
C1965 C1963 1.415 . S
C1966 H1956 0.930 . S
C1966 C1964 1.419 . S
C1966 C1967 1.362 . S
C1967 H1957 0.930 . S
C1967 C1960 1.409 . S
C1967 C1966 1.362 . S
H1968 C1974 0.930 . S
H1969 C1977 0.930 . S
H1970 C1978 0.930 . S
H1971 C1979 0.930 . S
H1972 C1982 0.930 . S
H1973 C1983 0.930 . S
C1974 H1968 0.930 . S
C1974 C1975 1.355 . S
C1974 C1976 1.415 . S
C1975 C1974 1.355 . S
C1975 C1977 1.419 . S
C1976 C1974 1.415 . S
C1976 C1981 1.425 . S
C1976 C1983 1.409 . S
C1977 H1969 0.930 . S
C1977 C1975 1.419 . S
C1977 C1978 1.362 . S
C1978 H1970 0.930 . S
C1978 C1977 1.362 . S
C1978 C1981 1.409 . S
C1979 H1971 0.930 . S
C1979 C1980 1.355 . S
C1979 C1981 1.415 . S
C1980 C1979 1.355 . S
C1980 C1982 1.419 . S
C1981 C1976 1.425 . S
C1981 C1978 1.409 . S
C1981 C1979 1.415 . S
C1982 H1972 0.930 . S
C1982 C1980 1.419 . S
C1982 C1983 1.362 . S
C1983 H1973 0.930 . S
C1983 C1976 1.409 . S
C1983 C1982 1.362 . S
H1984 C1990 0.930 . S
H1985 C1993 0.930 . S
H1986 C1994 0.930 . S
H1987 C1995 0.930 . S
H1988 C1998 0.930 . S
H1989 C1999 0.930 . S
C1990 H1984 0.930 . S
C1990 C1991 1.355 . S
C1990 C1992 1.415 . S
C1991 C1990 1.355 . S
C1991 C1993 1.419 . S
C1992 C1990 1.415 . S
C1992 C1997 1.425 . S
C1992 C1999 1.409 . S
C1993 H1985 0.930 . S
C1993 C1991 1.419 . S
C1993 C1994 1.362 . S
C1994 H1986 0.930 . S
C1994 C1993 1.362 . S
C1994 C1997 1.409 . S
C1995 H1987 0.930 . S
C1995 C1996 1.355 . S
C1995 C1997 1.415 . S
C1996 C1995 1.355 . S
C1996 C1998 1.419 . S
C1997 C1992 1.425 . S
C1997 C1994 1.409 . S
C1997 C1995 1.415 . S
C1998 H1988 0.930 . S
C1998 C1996 1.419 . S
C1998 C1999 1.362 . S
C1999 H1989 0.930 . S
C1999 C1992 1.409 . S
C1999 C1998 1.362 . S
H2000 C2006 0.930 . S
H2001 C2009 0.930 . S
H2002 C2010 0.930 . S
H2003 C2011 0.930 . S
H2004 C2014 0.930 . S
H2005 C2015 0.930 . S
C2006 H2000 0.930 . S
C2006 C2007 1.355 . S
C2006 C2008 1.415 . S
C2007 C2006 1.355 . S
C2007 C2009 1.419 . S
C2008 C2006 1.415 . S
C2008 C2013 1.425 . S
C2008 C2015 1.409 . S
C2009 H2001 0.930 . S
C2009 C2007 1.419 . S
C2009 C2010 1.362 . S
C2010 H2002 0.930 . S
C2010 C2009 1.362 . S
C2010 C2013 1.409 . S
C2011 H2003 0.930 . S
C2011 C2012 1.355 . S
C2011 C2013 1.415 . S
C2012 C2011 1.355 . S
C2012 C2014 1.419 . S
C2013 C2008 1.425 . S
C2013 C2010 1.409 . S
C2013 C2011 1.415 . S
C2014 H2004 0.930 . S
C2014 C2012 1.419 . S
C2014 C2015 1.362 . S
C2015 H2005 0.930 . S
C2015 C2008 1.409 . S
C2015 C2014 1.362 . S
H2016 C2022 0.930 . S
H2017 C2025 0.930 . S
H2018 C2026 0.930 . S
H2019 C2027 0.930 . S
H2020 C2030 0.930 . S
H2021 C2031 0.930 . S
C2022 H2016 0.930 . S
C2022 C2023 1.355 . S
C2022 C2024 1.415 . S
C2023 C2022 1.355 . S
C2023 C2025 1.419 . S
C2024 C2022 1.415 . S
C2024 C2029 1.425 . S
C2024 C2031 1.409 . S
C2025 H2017 0.930 . S
C2025 C2023 1.419 . S
C2025 C2026 1.362 . S
C2026 H2018 0.930 . S
C2026 C2025 1.362 . S
C2026 C2029 1.409 . S
C2027 H2019 0.930 . S
C2027 C2028 1.355 . S
C2027 C2029 1.415 . S
C2028 C2027 1.355 . S
C2028 C2030 1.419 . S
C2029 C2024 1.425 . S
C2029 C2026 1.409 . S
C2029 C2027 1.415 . S
C2030 H2020 0.930 . S
C2030 C2028 1.419 . S
C2030 C2031 1.362 . S
C2031 H2021 0.930 . S
C2031 C2024 1.409 . S
C2031 C2030 1.362 . S
H2032 C2038 0.930 . S
H2033 C2041 0.930 . S
H2034 C2042 0.930 . S
H2035 C2043 0.930 . S
H2036 C2046 0.930 . S
H2037 C2047 0.930 . S
C2038 H2032 0.930 . S
C2038 C2039 1.355 . S
C2038 C2040 1.415 . S
C2039 C2038 1.355 . S
C2039 C2041 1.419 . S
C2040 C2038 1.415 . S
C2040 C2045 1.425 . S
C2040 C2047 1.409 . S
C2041 H2033 0.930 . S
C2041 C2039 1.419 . S
C2041 C2042 1.362 . S
C2042 H2034 0.930 . S
C2042 C2041 1.362 . S
C2042 C2045 1.409 . S
C2043 H2035 0.930 . S
C2043 C2044 1.355 . S
C2043 C2045 1.415 . S
C2044 C2043 1.355 . S
C2044 C2046 1.419 . S
C2045 C2040 1.425 . S
C2045 C2042 1.409 . S
C2045 C2043 1.415 . S
C2046 H2036 0.930 . S
C2046 C2044 1.419 . S
C2046 C2047 1.362 . S
C2047 H2037 0.930 . S
C2047 C2040 1.409 . S
C2047 C2046 1.362 . S
H2048 C2054 0.930 . S
H2049 C2057 0.930 . S
H2050 C2058 0.930 . S
H2051 C2059 0.930 . S
H2052 C2062 0.930 . S
H2053 C2063 0.930 . S
C2054 H2048 0.930 . S
C2054 C2055 1.355 . S
C2054 C2056 1.415 . S
C2055 C2054 1.355 . S
C2055 C2057 1.419 . S
C2056 C2054 1.415 . S
C2056 C2061 1.425 . S
C2056 C2063 1.409 . S
C2057 H2049 0.930 . S
C2057 C2055 1.419 . S
C2057 C2058 1.362 . S
C2058 H2050 0.930 . S
C2058 C2057 1.362 . S
C2058 C2061 1.409 . S
C2059 H2051 0.930 . S
C2059 C2060 1.355 . S
C2059 C2061 1.415 . S
C2060 C2059 1.355 . S
C2060 C2062 1.419 . S
C2061 C2056 1.425 . S
C2061 C2058 1.409 . S
C2061 C2059 1.415 . S
C2062 H2052 0.930 . S
C2062 C2060 1.419 . S
C2062 C2063 1.362 . S
C2063 H2053 0.930 . S
C2063 C2056 1.409 . S
C2063 C2062 1.362 . S
H2064 C2070 0.930 . S
H2065 C2073 0.930 . S
H2066 C2074 0.930 . S
H2067 C2075 0.930 . S
H2068 C2078 0.930 . S
H2069 C2079 0.930 . S
C2070 H2064 0.930 . S
C2070 C2071 1.355 . S
C2070 C2072 1.415 . S
C2071 C2070 1.355 . S
C2071 C2073 1.419 . S
C2072 C2070 1.415 . S
C2072 C2077 1.425 . S
C2072 C2079 1.409 . S
C2073 H2065 0.930 . S
C2073 C2071 1.419 . S
C2073 C2074 1.362 . S
C2074 H2066 0.930 . S
C2074 C2073 1.362 . S
C2074 C2077 1.409 . S
C2075 H2067 0.930 . S
C2075 C2076 1.355 . S
C2075 C2077 1.415 . S
C2076 C2075 1.355 . S
C2076 C2078 1.419 . S
C2077 C2072 1.425 . S
C2077 C2074 1.409 . S
C2077 C2075 1.415 . S
C2078 H2068 0.930 . S
C2078 C2076 1.419 . S
C2078 C2079 1.362 . S
C2079 H2069 0.930 . S
C2079 C2072 1.409 . S
C2079 C2078 1.362 . S
H2080 C2086 0.930 . S
H2081 C2089 0.930 . S
H2082 C2090 0.930 . S
H2083 C2091 0.930 . S
H2084 C2094 0.930 . S
H2085 C2095 0.930 . S
C2086 H2080 0.930 . S
C2086 C2087 1.355 . S
C2086 C2088 1.415 . S
C2087 C2086 1.355 . S
C2087 C2089 1.419 . S
C2088 C2086 1.415 . S
C2088 C2093 1.425 . S
C2088 C2095 1.409 . S
C2089 H2081 0.930 . S
C2089 C2087 1.419 . S
C2089 C2090 1.362 . S
C2090 H2082 0.930 . S
C2090 C2089 1.362 . S
C2090 C2093 1.409 . S
C2091 H2083 0.930 . S
C2091 C2092 1.355 . S
C2091 C2093 1.415 . S
C2092 C2091 1.355 . S
C2092 C2094 1.419 . S
C2093 C2088 1.425 . S
C2093 C2090 1.409 . S
C2093 C2091 1.415 . S
C2094 H2084 0.930 . S
C2094 C2092 1.419 . S
C2094 C2095 1.362 . S
C2095 H2085 0.930 . S
C2095 C2088 1.409 . S
C2095 C2094 1.362 . S
H2096 C2102 0.930 . S
H2097 C2105 0.930 . S
H2098 C2106 0.930 . S
H2099 C2107 0.930 . S
H2100 C2110 0.930 . S
H2101 C2111 0.930 . S
C2102 H2096 0.930 . S
C2102 C2103 1.355 . S
C2102 C2104 1.415 . S
C2103 C2102 1.355 . S
C2103 C2105 1.419 . S
C2104 C2102 1.415 . S
C2104 C2109 1.425 . S
C2104 C2111 1.409 . S
C2105 H2097 0.930 . S
C2105 C2103 1.419 . S
C2105 C2106 1.362 . S
C2106 H2098 0.930 . S
C2106 C2105 1.362 . S
C2106 C2109 1.409 . S
C2107 H2099 0.930 . S
C2107 C2108 1.355 . S
C2107 C2109 1.415 . S
C2108 C2107 1.355 . S
C2108 C2110 1.419 . S
C2109 C2104 1.425 . S
C2109 C2106 1.409 . S
C2109 C2107 1.415 . S
C2110 H2100 0.930 . S
C2110 C2108 1.419 . S
C2110 C2111 1.362 . S
C2111 H2101 0.930 . S
C2111 C2104 1.409 . S
C2111 C2110 1.362 . S
H2112 C2118 0.930 . S
H2113 C2121 0.930 . S
H2114 C2122 0.930 . S
H2115 C2123 0.930 . S
H2116 C2126 0.930 . S
H2117 C2127 0.930 . S
C2118 H2112 0.930 . S
C2118 C2119 1.355 . S
C2118 C2120 1.415 . S
C2119 C2118 1.355 . S
C2119 C2121 1.419 . S
C2120 C2118 1.415 . S
C2120 C2125 1.425 . S
C2120 C2127 1.409 . S
C2121 H2113 0.930 . S
C2121 C2119 1.419 . S
C2121 C2122 1.362 . S
C2122 H2114 0.930 . S
C2122 C2121 1.362 . S
C2122 C2125 1.409 . S
C2123 H2115 0.930 . S
C2123 C2124 1.355 . S
C2123 C2125 1.415 . S
C2124 C2123 1.355 . S
C2124 C2126 1.419 . S
C2125 C2120 1.425 . S
C2125 C2122 1.409 . S
C2125 C2123 1.415 . S
C2126 H2116 0.930 . S
C2126 C2124 1.419 . S
C2126 C2127 1.362 . S
C2127 H2117 0.930 . S
C2127 C2120 1.409 . S
C2127 C2126 1.362 . S
H2128 C2134 0.930 . S
H2129 C2137 0.930 . S
H2130 C2138 0.930 . S
H2131 C2139 0.930 . S
H2132 C2142 0.930 . S
H2133 C2143 0.930 . S
C2134 H2128 0.930 . S
C2134 C2135 1.355 . S
C2134 C2136 1.415 . S
C2135 C2134 1.355 . S
C2135 C2137 1.419 . S
C2136 C2134 1.415 . S
C2136 C2141 1.425 . S
C2136 C2143 1.409 . S
C2137 H2129 0.930 . S
C2137 C2135 1.419 . S
C2137 C2138 1.362 . S
C2138 H2130 0.930 . S
C2138 C2137 1.362 . S
C2138 C2141 1.409 . S
C2139 H2131 0.930 . S
C2139 C2140 1.355 . S
C2139 C2141 1.415 . S
C2140 C2139 1.355 . S
C2140 C2142 1.419 . S
C2141 C2136 1.425 . S
C2141 C2138 1.409 . S
C2141 C2139 1.415 . S
C2142 H2132 0.930 . S
C2142 C2140 1.419 . S
C2142 C2143 1.362 . S
C2143 H2133 0.930 . S
C2143 C2136 1.409 . S
C2143 C2142 1.362 . S
H2144 C2150 0.930 . S
H2145 C2153 0.930 . S
H2146 C2154 0.930 . S
H2147 C2155 0.930 . S
H2148 C2158 0.930 . S
H2149 C2159 0.930 . S
C2150 H2144 0.930 . S
C2150 C2151 1.355 . S
C2150 C2152 1.415 . S
C2151 C2150 1.355 . S
C2151 C2153 1.419 . S
C2152 C2150 1.415 . S
C2152 C2157 1.425 . S
C2152 C2159 1.409 . S
C2153 H2145 0.930 . S
C2153 C2151 1.419 . S
C2153 C2154 1.362 . S
C2154 H2146 0.930 . S
C2154 C2153 1.362 . S
C2154 C2157 1.409 . S
C2155 H2147 0.930 . S
C2155 C2156 1.355 . S
C2155 C2157 1.415 . S
C2156 C2155 1.355 . S
C2156 C2158 1.419 . S
C2157 C2152 1.425 . S
C2157 C2154 1.409 . S
C2157 C2155 1.415 . S
C2158 H2148 0.930 . S
C2158 C2156 1.419 . S
C2158 C2159 1.362 . S
C2159 H2149 0.930 . S
C2159 C2152 1.409 . S
C2159 C2158 1.362 . S
H2160 C2166 0.930 . S
H2161 C2169 0.930 . S
H2162 C2170 0.930 . S
H2163 C2171 0.930 . S
H2164 C2174 0.930 . S
H2165 C2175 0.930 . S
C2166 H2160 0.930 . S
C2166 C2167 1.355 . S
C2166 C2168 1.415 . S
C2167 C2166 1.355 . S
C2167 C2169 1.419 . S
C2168 C2166 1.415 . S
C2168 C2173 1.425 . S
C2168 C2175 1.409 . S
C2169 H2161 0.930 . S
C2169 C2167 1.419 . S
C2169 C2170 1.362 . S
C2170 H2162 0.930 . S
C2170 C2169 1.362 . S
C2170 C2173 1.409 . S
C2171 H2163 0.930 . S
C2171 C2172 1.355 . S
C2171 C2173 1.415 . S
C2172 C2171 1.355 . S
C2172 C2174 1.419 . S
C2173 C2168 1.425 . S
C2173 C2170 1.409 . S
C2173 C2171 1.415 . S
C2174 H2164 0.930 . S
C2174 C2172 1.419 . S
C2174 C2175 1.362 . S
C2175 H2165 0.930 . S
C2175 C2168 1.409 . S
C2175 C2174 1.362 . S
H2176 C2182 0.930 . S
H2177 C2185 0.930 . S
H2178 C2186 0.930 . S
H2179 C2187 0.930 . S
H2180 C2190 0.930 . S
H2181 C2191 0.930 . S
C2182 H2176 0.930 . S
C2182 C2183 1.355 . S
C2182 C2184 1.415 . S
C2183 C2182 1.355 . S
C2183 C2185 1.419 . S
C2184 C2182 1.415 . S
C2184 C2189 1.425 . S
C2184 C2191 1.409 . S
C2185 H2177 0.930 . S
C2185 C2183 1.419 . S
C2185 C2186 1.362 . S
C2186 H2178 0.930 . S
C2186 C2185 1.362 . S
C2186 C2189 1.409 . S
C2187 H2179 0.930 . S
C2187 C2188 1.355 . S
C2187 C2189 1.415 . S
C2188 C2187 1.355 . S
C2188 C2190 1.419 . S
C2189 C2184 1.425 . S
C2189 C2186 1.409 . S
C2189 C2187 1.415 . S
C2190 H2180 0.930 . S
C2190 C2188 1.419 . S
C2190 C2191 1.362 . S
C2191 H2181 0.930 . S
C2191 C2184 1.409 . S
C2191 C2190 1.362 . S
H2192 C2198 0.930 . S
H2193 C2201 0.930 . S
H2194 C2202 0.930 . S
H2195 C2203 0.930 . S
H2196 C2206 0.930 . S
H2197 C2207 0.930 . S
C2198 H2192 0.930 . S
C2198 C2199 1.355 . S
C2198 C2200 1.415 . S
C2199 C2198 1.355 . S
C2199 C2201 1.419 . S
C2200 C2198 1.415 . S
C2200 C2205 1.425 . S
C2200 C2207 1.409 . S
C2201 H2193 0.930 . S
C2201 C2199 1.419 . S
C2201 C2202 1.362 . S
C2202 H2194 0.930 . S
C2202 C2201 1.362 . S
C2202 C2205 1.409 . S
C2203 H2195 0.930 . S
C2203 C2204 1.355 . S
C2203 C2205 1.415 . S
C2204 C2203 1.355 . S
C2204 C2206 1.419 . S
C2205 C2200 1.425 . S
C2205 C2202 1.409 . S
C2205 C2203 1.415 . S
C2206 H2196 0.930 . S
C2206 C2204 1.419 . S
C2206 C2207 1.362 . S
C2207 H2197 0.930 . S
C2207 C2200 1.409 . S
C2207 C2206 1.362 . S
H2208 C2214 0.930 . S
H2209 C2217 0.930 . S
H2210 C2218 0.930 . S
H2211 C2219 0.930 . S
H2212 C2222 0.930 . S
H2213 C2223 0.930 1_554 S
C2214 H2208 0.930 . S
C2214 C2215 1.355 . S
C2214 C2216 1.415 1_554 S
C2215 C2214 1.355 . S
C2215 C2217 1.419 1_554 S
C2216 C2214 1.415 1_556 S
C2216 C2221 1.425 . S
C2216 C2223 1.409 . S
C2217 H2209 0.930 . S
C2217 C2215 1.419 1_556 S
C2217 C2218 1.362 . S
C2218 H2210 0.930 . S
C2218 C2217 1.362 . S
C2218 C2221 1.409 . S
C2219 H2211 0.930 . S
C2219 C2220 1.355 . S
C2219 C2221 1.415 . S
C2220 C2219 1.355 . S
C2220 C2222 1.419 . S
C2221 C2216 1.425 . S
C2221 C2218 1.409 . S
C2221 C2219 1.415 . S
C2222 H2212 0.930 . S
C2222 C2220 1.419 . S
C2222 C2223 1.362 . S
C2223 H2213 0.930 1_556 S
C2223 C2216 1.409 . S
C2223 C2222 1.362 . S
H2224 C2230 0.930 1_554 S
H2225 C2233 0.930 . S
H2226 C2234 0.930 . S
H2227 C2235 0.930 . S
H2228 C2238 0.930 . S
H2229 C2239 0.930 . S
C2230 H2224 0.930 1_556 S
C2230 C2231 1.355 . S
C2230 C2232 1.415 . S
C2231 C2230 1.355 . S
C2231 C2233 1.419 . S
C2232 C2230 1.415 . S
C2232 C2237 1.425 . S
C2232 C2239 1.409 . S
C2233 H2225 0.930 . S
C2233 C2231 1.419 . S
C2233 C2234 1.362 . S
C2234 H2226 0.930 . S
C2234 C2233 1.362 . S
C2234 C2237 1.409 . S
C2235 H2227 0.930 . S
C2235 C2236 1.355 . S
C2235 C2237 1.415 . S
C2236 C2235 1.355 . S
C2236 C2238 1.419 . S
C2237 C2232 1.425 . S
C2237 C2234 1.409 . S
C2237 C2235 1.415 . S
C2238 H2228 0.930 . S
C2238 C2236 1.419 . S
C2238 C2239 1.362 . S
C2239 H2229 0.930 . S
C2239 C2232 1.409 . S
C2239 C2238 1.362 . S
H2240 C2246 0.930 . S
H2241 C2249 0.930 . S
H2242 C2250 0.930 . S
H2243 C2251 0.930 . S
H2244 C2254 0.930 . S
H2245 C2255 0.930 . S
C2246 H2240 0.930 . S
C2246 C2247 1.355 . S
C2246 C2248 1.415 . S
C2247 C2246 1.355 . S
C2247 C2249 1.419 . S
C2248 C2246 1.415 . S
C2248 C2253 1.425 . S
C2248 C2255 1.409 1_554 S
C2249 H2241 0.930 . S
C2249 C2247 1.419 . S
C2249 C2250 1.362 . S
C2250 H2242 0.930 . S
C2250 C2249 1.362 . S
C2250 C2253 1.409 . S
C2251 H2243 0.930 . S
C2251 C2252 1.355 1_554 S
C2251 C2253 1.415 . S
C2252 C2251 1.355 1_556 S
C2252 C2254 1.419 . S
C2253 C2248 1.425 . S
C2253 C2250 1.409 . S
C2253 C2251 1.415 . S
C2254 H2244 0.930 . S
C2254 C2252 1.419 . S
C2254 C2255 1.362 . S
C2255 H2245 0.930 . S
C2255 C2248 1.409 1_556 S
C2255 C2254 1.362 . S
H2256 C2262 0.930 . S
H2257 C2265 0.930 . S
H2258 C2266 0.930 . S
H2259 C2267 0.930 . S
H2260 C2270 0.930 . S
H2261 C2271 0.930 1_554 S
C2262 H2256 0.930 . S
C2262 C2263 1.355 . S
C2262 C2264 1.415 1_554 S
C2263 C2262 1.355 . S
C2263 C2265 1.419 1_554 S
C2264 C2262 1.415 1_556 S
C2264 C2269 1.425 . S
C2264 C2271 1.409 . S
C2265 H2257 0.930 . S
C2265 C2263 1.419 1_556 S
C2265 C2266 1.362 . S
C2266 H2258 0.930 . S
C2266 C2265 1.362 . S
C2266 C2269 1.409 . S
C2267 H2259 0.930 . S
C2267 C2268 1.355 . S
C2267 C2269 1.415 . S
C2268 C2267 1.355 . S
C2268 C2270 1.419 . S
C2269 C2264 1.425 . S
C2269 C2266 1.409 . S
C2269 C2267 1.415 . S
C2270 H2260 0.930 . S
C2270 C2268 1.419 . S
C2270 C2271 1.362 . S
C2271 H2261 0.930 1_556 S
C2271 C2264 1.409 . S
C2271 C2270 1.362 . S
H2272 C2278 0.930 . S
H2273 C2281 0.930 1_554 S
H2274 C2282 0.930 . S
H2275 C2283 0.930 . S
H2276 C2286 0.930 . S
H2277 C2287 0.930 . S
C2278 H2272 0.930 . S
C2278 C2279 1.355 . S
C2278 C2280 1.415 . S
C2279 C2278 1.355 . S
C2279 C2281 1.419 . S
C2280 C2278 1.415 . S
C2280 C2285 1.425 . S
C2280 C2287 1.409 . S
C2281 H2273 0.930 1_556 S
C2281 C2279 1.419 . S
C2281 C2282 1.362 . S
C2282 H2274 0.930 . S
C2282 C2281 1.362 . S
C2282 C2285 1.409 . S
C2283 H2275 0.930 . S
C2283 C2284 1.355 . S
C2283 C2285 1.415 . S
C2284 C2283 1.355 . S
C2284 C2286 1.419 . S
C2285 C2280 1.425 . S
C2285 C2282 1.409 . S
C2285 C2283 1.415 . S
C2286 H2276 0.930 . S
C2286 C2284 1.419 . S
C2286 C2287 1.362 . S
C2287 H2277 0.930 . S
C2287 C2280 1.409 . S
C2287 C2286 1.362 . S
H2288 C2294 0.930 1_556 S
H2289 C2297 0.930 . S
H2290 C2298 0.930 . S
H2291 C2299 0.930 . S
H2292 C2302 0.930 . S
H2293 C2303 0.930 . S
C2294 H2288 0.930 1_554 S
C2294 C2295 1.355 . S
C2294 C2296 1.415 1_554 S
C2295 C2294 1.355 . S
C2295 C2297 1.419 . S
C2296 C2294 1.415 1_556 S
C2296 C2301 1.425 1_556 S
C2296 C2303 1.409 . S
C2297 H2289 0.930 . S
C2297 C2295 1.419 . S
C2297 C2298 1.362 . S
C2298 H2290 0.930 . S
C2298 C2297 1.362 . S
C2298 C2301 1.409 . S
C2299 H2291 0.930 . S
C2299 C2300 1.355 1_554 S
C2299 C2301 1.415 . S
C2300 C2299 1.355 1_556 S
C2300 C2302 1.419 . S
C2301 C2296 1.425 1_554 S
C2301 C2298 1.409 . S
C2301 C2299 1.415 . S
C2302 H2292 0.930 . S
C2302 C2300 1.419 . S
C2302 C2303 1.362 . S
C2303 H2293 0.930 . S
C2303 C2296 1.409 . S
C2303 C2302 1.362 . S
H2304 C2310 0.930 . S
H2305 C2313 0.930 . S
H2306 C2314 0.930 . S
H2307 C2315 0.930 . S
H2308 C2318 0.930 . S
H2309 C2319 0.930 . S
C2310 H2304 0.930 . S
C2310 C2311 1.355 . S
C2310 C2312 1.415 . S
C2311 C2310 1.355 . S
C2311 C2313 1.419 . S
C2312 C2310 1.415 . S
C2312 C2317 1.425 . S
C2312 C2319 1.409 . S
C2313 H2305 0.930 . S
C2313 C2311 1.419 . S
C2313 C2314 1.362 . S
C2314 H2306 0.930 . S
C2314 C2313 1.362 . S
C2314 C2317 1.409 . S
C2315 H2307 0.930 . S
C2315 C2316 1.355 . S
C2315 C2317 1.415 . S
C2316 C2315 1.355 . S
C2316 C2318 1.419 . S
C2317 C2312 1.425 . S
C2317 C2314 1.409 . S
C2317 C2315 1.415 . S
C2318 H2308 0.930 . S
C2318 C2316 1.419 . S
C2318 C2319 1.362 . S
C2319 H2309 0.930 . S
C2319 C2312 1.409 . S
C2319 C2318 1.362 . S
H2320 C2326 0.930 . S
H2321 C2329 0.930 . S
H2322 C2330 0.930 . S
H2323 C2331 0.930 . S
H2324 C2334 0.930 . S
H2325 C2335 0.930 . S
C2326 H2320 0.930 . S
C2326 C2327 1.355 . S
C2326 C2328 1.415 . S
C2327 C2326 1.355 . S
C2327 C2329 1.419 . S
C2328 C2326 1.415 . S
C2328 C2333 1.425 . S
C2328 C2335 1.409 . S
C2329 H2321 0.930 . S
C2329 C2327 1.419 . S
C2329 C2330 1.362 . S
C2330 H2322 0.930 . S
C2330 C2329 1.362 . S
C2330 C2333 1.409 . S
C2331 H2323 0.930 . S
C2331 C2332 1.355 . S
C2331 C2333 1.415 . S
C2332 C2331 1.355 . S
C2332 C2334 1.419 . S
C2333 C2328 1.425 . S
C2333 C2330 1.409 . S
C2333 C2331 1.415 . S
C2334 H2324 0.930 . S
C2334 C2332 1.419 . S
C2334 C2335 1.362 . S
C2335 H2325 0.930 . S
C2335 C2328 1.409 . S
C2335 C2334 1.362 . S
H2336 C2342 0.930 . S
H2337 C2345 0.930 . S
H2338 C2346 0.930 . S
H2339 C2347 0.930 . S
H2340 C2350 0.930 . S
H2341 C2351 0.930 . S
C2342 H2336 0.930 . S
C2342 C2343 1.355 . S
C2342 C2344 1.415 . S
C2343 C2342 1.355 . S
C2343 C2345 1.419 . S
C2344 C2342 1.415 . S
C2344 C2349 1.425 . S
C2344 C2351 1.409 . S
C2345 H2337 0.930 . S
C2345 C2343 1.419 . S
C2345 C2346 1.362 . S
C2346 H2338 0.930 . S
C2346 C2345 1.362 . S
C2346 C2349 1.409 . S
C2347 H2339 0.930 . S
C2347 C2348 1.355 . S
C2347 C2349 1.415 . S
C2348 C2347 1.355 . S
C2348 C2350 1.419 . S
C2349 C2344 1.425 . S
C2349 C2346 1.409 . S
C2349 C2347 1.415 . S
C2350 H2340 0.930 . S
C2350 C2348 1.419 . S
C2350 C2351 1.362 . S
C2351 H2341 0.930 . S
C2351 C2344 1.409 . S
C2351 C2350 1.362 . S
H2352 C2358 0.930 . S
H2353 C2361 0.930 . S
H2354 C2362 0.930 . S
H2355 C2363 0.930 . S
H2356 C2366 0.930 . S
H2357 C2367 0.930 . S
C2358 H2352 0.930 . S
C2358 C2359 1.355 . S
C2358 C2360 1.415 . S
C2359 C2358 1.355 . S
C2359 C2361 1.419 . S
C2360 C2358 1.415 . S
C2360 C2365 1.425 . S
C2360 C2367 1.409 . S
C2361 H2353 0.930 . S
C2361 C2359 1.419 . S
C2361 C2362 1.362 . S
C2362 H2354 0.930 . S
C2362 C2361 1.362 . S
C2362 C2365 1.409 . S
C2363 H2355 0.930 . S
C2363 C2364 1.355 . S
C2363 C2365 1.415 . S
C2364 C2363 1.355 . S
C2364 C2366 1.419 . S
C2365 C2360 1.425 . S
C2365 C2362 1.409 . S
C2365 C2363 1.415 . S
C2366 H2356 0.930 . S
C2366 C2364 1.419 . S
C2366 C2367 1.362 . S
C2367 H2357 0.930 . S
C2367 C2360 1.409 . S
C2367 C2366 1.362 . S
H2368 C2374 0.930 . S
H2369 C2377 0.930 . S
H2370 C2378 0.930 . S
H2371 C2379 0.930 . S
H2372 C2382 0.930 . S
H2373 C2383 0.930 . S
C2374 H2368 0.930 . S
C2374 C2375 1.355 . S
C2374 C2376 1.415 . S
C2375 C2374 1.355 . S
C2375 C2377 1.419 . S
C2376 C2374 1.415 . S
C2376 C2381 1.425 . S
C2376 C2383 1.409 . S
C2377 H2369 0.930 . S
C2377 C2375 1.419 . S
C2377 C2378 1.362 . S
C2378 H2370 0.930 . S
C2378 C2377 1.362 . S
C2378 C2381 1.409 . S
C2379 H2371 0.930 . S
C2379 C2380 1.355 . S
C2379 C2381 1.415 . S
C2380 C2379 1.355 . S
C2380 C2382 1.419 . S
C2381 C2376 1.425 . S
C2381 C2378 1.409 . S
C2381 C2379 1.415 . S
C2382 H2372 0.930 . S
C2382 C2380 1.419 . S
C2382 C2383 1.362 . S
C2383 H2373 0.930 . S
C2383 C2376 1.409 . S
C2383 C2382 1.362 . S
H2384 C2390 0.969 . S
H2385 C2393 0.930 . S
H2386 C2394 0.930 . S
H2387 C2395 0.930 . S
H2388 C2398 0.930 . S
H2389 C2399 0.930 . S
C2390 H2384 0.969 . S
C2390 C2391 1.355 . S
C2390 C2392 1.415 . S
C2391 C2390 1.355 . S
C2391 C2393 1.419 . S
C2392 C2390 1.415 . S
C2392 C2397 1.425 . S
C2392 C2399 1.409 . S
C2393 H2385 0.930 . S
C2393 C2391 1.419 . S
C2393 C2394 1.362 . S
C2394 H2386 0.930 . S
C2394 C2393 1.362 . S
C2394 C2397 1.409 . S
C2395 H2387 0.930 . S
C2395 C2396 1.355 . S
C2395 C2397 1.415 . S
C2396 C2395 1.355 . S
C2396 C2398 1.419 . S
C2397 C2392 1.425 . S
C2397 C2394 1.409 . S
C2397 C2395 1.415 . S
C2398 H2388 0.930 . S
C2398 C2396 1.419 . S
C2398 C2399 1.362 . S
C2399 H2389 0.930 . S
C2399 C2392 1.409 . S
C2399 C2398 1.362 . S
H2400 C2406 0.930 . S
H2401 C2409 0.930 . S
H2402 C2410 0.930 . S
H2403 C2411 0.930 . S
H2404 C2414 0.930 . S
H2405 C2415 0.930 . S
C2406 H2400 0.930 . S
C2406 C2407 1.355 . S
C2406 C2408 1.415 . S
C2407 C2406 1.355 . S
C2407 C2409 1.419 . S
C2408 C2406 1.415 . S
C2408 C2413 1.425 . S
C2408 C2415 1.409 . S
C2409 H2401 0.930 . S
C2409 C2407 1.419 . S
C2409 C2410 1.362 . S
C2410 H2402 0.930 . S
C2410 C2409 1.362 . S
C2410 C2413 1.409 . S
C2411 H2403 0.930 . S
C2411 C2412 1.355 . S
C2411 C2413 1.415 . S
C2412 C2411 1.355 . S
C2412 C2414 1.419 . S
C2413 C2408 1.425 . S
C2413 C2410 1.409 . S
C2413 C2411 1.415 . S
C2414 H2404 0.930 . S
C2414 C2412 1.419 . S
C2414 C2415 1.362 . S
C2415 H2405 0.930 . S
C2415 C2408 1.409 . S
C2415 C2414 1.362 . S
H2416 C2422 0.930 . S
H2417 C2425 0.930 . S
H2418 C2426 0.930 . S
H2419 C2427 0.930 . S
H2420 C2430 0.930 . S
H2421 C2431 0.930 . S
C2422 H2416 0.930 . S
C2422 C2423 1.355 . S
C2422 C2424 1.415 . S
C2423 C2422 1.355 . S
C2423 C2425 1.419 . S
C2424 C2422 1.415 . S
C2424 C2429 1.425 . S
C2424 C2431 1.409 . S
C2425 H2417 0.930 . S
C2425 C2423 1.419 . S
C2425 C2426 1.362 . S
C2426 H2418 0.930 . S
C2426 C2425 1.362 . S
C2426 C2429 1.409 . S
C2427 H2419 0.930 . S
C2427 C2428 1.355 . S
C2427 C2429 1.415 . S
C2428 C2427 1.355 . S
C2428 C2430 1.419 . S
C2429 C2424 1.425 . S
C2429 C2426 1.409 . S
C2429 C2427 1.415 . S
C2430 H2420 0.930 . S
C2430 C2428 1.419 . S
C2430 C2431 1.362 . S
C2431 H2421 0.930 . S
C2431 C2424 1.409 . S
C2431 C2430 1.362 . S
H2432 C2438 0.930 . S
H2433 C2441 0.930 . S
H2434 C2442 0.930 . S
H2435 C2443 0.930 . S
H2436 C2446 0.930 . S
H2437 C2447 0.930 . S
C2438 H2432 0.930 . S
C2438 C2439 1.355 . S
C2438 C2440 1.415 . S
C2439 C2438 1.355 . S
C2439 C2441 1.419 . S
C2440 C2438 1.415 . S
C2440 C2445 1.425 . S
C2440 C2447 1.409 . S
C2441 H2433 0.930 . S
C2441 C2439 1.419 . S
C2441 C2442 1.362 . S
C2442 H2434 0.930 . S
C2442 C2441 1.362 . S
C2442 C2445 1.409 . S
C2443 H2435 0.930 . S
C2443 C2444 1.355 . S
C2443 C2445 1.415 . S
C2444 C2443 1.355 . S
C2444 C2446 1.419 . S
C2445 C2440 1.425 . S
C2445 C2442 1.409 . S
C2445 C2443 1.415 . S
C2446 H2436 0.930 . S
C2446 C2444 1.419 . S
C2446 C2447 1.362 . S
C2447 H2437 0.930 . S
C2447 C2440 1.409 . S
C2447 C2446 1.362 . S
H2448 C2454 0.930 . S
H2449 C2457 0.930 1_545 S
H2450 C2458 0.930 . S
H2451 C2459 0.930 . S
H2452 C2462 0.930 . S
H2453 C2463 0.930 . S
C2454 H2448 0.930 . S
C2454 C2455 1.355 . S
C2454 C2456 1.415 . S
C2455 C2454 1.355 . S
C2455 C2457 1.419 . S
C2456 C2454 1.415 . S
C2456 C2461 1.425 . S
C2456 C2463 1.409 . S
C2457 H2449 0.930 1_565 S
C2457 C2455 1.419 . S
C2457 C2458 1.362 1_565 S
C2458 H2450 0.930 . S
C2458 C2457 1.362 1_545 S
C2458 C2461 1.409 1_545 S
C2459 H2451 0.930 . S
C2459 C2460 1.355 1_545 S
C2459 C2461 1.415 1_545 S
C2460 C2459 1.355 1_565 S
C2460 C2462 1.419 . S
C2461 C2456 1.425 . S
C2461 C2458 1.409 1_565 S
C2461 C2459 1.415 1_565 S
C2462 H2452 0.930 . S
C2462 C2460 1.419 . S
C2462 C2463 1.362 . S
C2463 H2453 0.930 . S
C2463 C2456 1.409 . S
C2463 C2462 1.362 . S
H2464 C2470 0.930 . S
H2465 C2473 0.930 . S
H2466 C2474 0.930 . S
H2467 C2475 0.930 . S
H2468 C2478 0.930 . S
H2469 C2479 0.930 . S
C2470 H2464 0.930 . S
C2470 C2471 1.355 . S
C2470 C2472 1.415 . S
C2471 C2470 1.355 . S
C2471 C2473 1.419 . S
C2472 C2470 1.415 . S
C2472 C2477 1.425 . S
C2472 C2479 1.409 1_455 S
C2473 H2465 0.930 . S
C2473 C2471 1.419 . S
C2473 C2474 1.362 . S
C2474 H2466 0.930 . S
C2474 C2473 1.362 . S
C2474 C2477 1.409 . S
C2475 H2467 0.930 . S
C2475 C2476 1.355 1_455 S
C2475 C2477 1.415 . S
C2476 C2475 1.355 1_655 S
C2476 C2478 1.419 . S
C2477 C2472 1.425 . S
C2477 C2474 1.409 . S
C2477 C2475 1.415 . S
C2478 H2468 0.930 . S
C2478 C2476 1.419 . S
C2478 C2479 1.362 . S
C2479 H2469 0.930 . S
C2479 C2472 1.409 1_655 S
C2479 C2478 1.362 . S
H2480 C2486 0.930 . S
H2481 C2489 0.930 . S
H2482 C2490 0.930 . S
H2483 C2491 0.930 . S
H2484 C2494 0.930 . S
H2485 C2495 0.930 . S
C2486 H2480 0.930 . S
C2486 C2487 1.355 . S
C2486 C2488 1.415 . S
C2487 C2486 1.355 . S
C2487 C2489 1.419 . S
C2488 C2486 1.415 . S
C2488 C2493 1.425 . S
C2488 C2495 1.409 . S
C2489 H2481 0.930 . S
C2489 C2487 1.419 . S
C2489 C2490 1.362 . S
C2490 H2482 0.930 . S
C2490 C2489 1.362 . S
C2490 C2493 1.409 . S
C2491 H2483 0.930 . S
C2491 C2492 1.355 . S
C2491 C2493 1.415 . S
C2492 C2491 1.355 . S
C2492 C2494 1.419 . S
C2493 C2488 1.425 . S
C2493 C2490 1.409 . S
C2493 C2491 1.415 . S
C2494 H2484 0.930 . S
C2494 C2492 1.419 . S
C2494 C2495 1.362 . S
C2495 H2485 0.930 . S
C2495 C2488 1.409 . S
C2495 C2494 1.362 . S
H2496 C2502 0.930 . S
H2497 C2505 0.930 . S
H2498 C2506 0.930 . S
H2499 C2507 0.930 . S
H2500 C2510 0.930 . S
H2501 C2511 0.930 . S
C2502 H2496 0.930 . S
C2502 C2503 1.355 . S
C2502 C2504 1.415 . S
C2503 C2502 1.355 . S
C2503 C2505 1.419 . S
C2504 C2502 1.415 . S
C2504 C2509 1.425 . S
C2504 C2511 1.409 . S
C2505 H2497 0.930 . S
C2505 C2503 1.419 . S
C2505 C2506 1.362 . S
C2506 H2498 0.930 . S
C2506 C2505 1.362 . S
C2506 C2509 1.409 . S
C2507 H2499 0.930 . S
C2507 C2508 1.355 . S
C2507 C2509 1.415 . S
C2508 C2507 1.355 . S
C2508 C2510 1.419 . S
C2509 C2504 1.425 . S
C2509 C2506 1.409 . S
C2509 C2507 1.415 . S
C2510 H2500 0.930 . S
C2510 C2508 1.419 . S
C2510 C2511 1.362 . S
C2511 H2501 0.930 . S
C2511 C2504 1.409 . S
C2511 C2510 1.362 . S
H2512 C2518 0.930 . S
H2513 C2521 0.930 . S
H2514 C2522 0.930 . S
H2515 C2523 0.930 . S
H2516 C2526 0.930 . S
H2517 C2527 0.930 . S
C2518 H2512 0.930 . S
C2518 C2519 1.355 . S
C2518 C2520 1.415 . S
C2519 C2518 1.355 . S
C2519 C2521 1.419 . S
C2520 C2518 1.415 . S
C2520 C2525 1.425 . S
C2520 C2527 1.409 . S
C2521 H2513 0.930 . S
C2521 C2519 1.419 . S
C2521 C2522 1.362 . S
C2522 H2514 0.930 . S
C2522 C2521 1.362 . S
C2522 C2525 1.409 . S
C2523 H2515 0.930 . S
C2523 C2524 1.355 . S
C2523 C2525 1.415 . S
C2524 C2523 1.355 . S
C2524 C2526 1.419 . S
C2525 C2520 1.425 . S
C2525 C2522 1.409 . S
C2525 C2523 1.415 . S
C2526 H2516 0.930 . S
C2526 C2524 1.419 . S
C2526 C2527 1.362 . S
C2527 H2517 0.930 . S
C2527 C2520 1.409 . S
C2527 C2526 1.362 . S
H2528 C2534 0.930 . S
H2529 C2537 0.932 . S
H2530 C2538 0.930 . S
H2531 C2539 0.930 . S
H2532 C2542 0.930 . S
H2533 C2543 0.930 . S
C2534 H2528 0.930 . S
C2534 C2535 1.355 . S
C2534 C2536 1.415 . S
C2535 C2534 1.355 . S
C2535 C2537 1.419 . S
C2536 C2534 1.415 . S
C2536 C2541 1.425 . S
C2536 C2543 1.409 . S
C2537 H2529 0.932 . S
C2537 C2535 1.419 . S
C2537 C2538 1.362 . S
C2538 H2530 0.930 . S
C2538 C2537 1.362 . S
C2538 C2541 1.409 . S
C2539 H2531 0.930 . S
C2539 C2540 1.355 . S
C2539 C2541 1.415 . S
C2540 C2539 1.355 . S
C2540 C2542 1.419 . S
C2541 C2536 1.425 . S
C2541 C2538 1.409 . S
C2541 C2539 1.415 . S
C2542 H2532 0.930 . S
C2542 C2540 1.419 . S
C2542 C2543 1.362 . S
C2543 H2533 0.930 . S
C2543 C2536 1.409 . S
C2543 C2542 1.362 . S
H2544 C2550 0.930 . S
H2545 C2553 0.930 . S
H2546 C2554 0.930 . S
H2547 C2555 0.930 . S
H2548 C2558 0.930 . S
H2549 C2559 0.930 . S
C2550 H2544 0.930 . S
C2550 C2551 1.355 . S
C2550 C2552 1.415 . S
C2551 C2550 1.355 . S
C2551 C2553 1.419 . S
C2552 C2550 1.415 . S
C2552 C2557 1.425 . S
C2552 C2559 1.409 . S
C2553 H2545 0.930 . S
C2553 C2551 1.419 . S
C2553 C2554 1.362 . S
C2554 H2546 0.930 . S
C2554 C2553 1.362 . S
C2554 C2557 1.409 . S
C2555 H2547 0.930 . S
C2555 C2556 1.355 . S
C2555 C2557 1.415 . S
C2556 C2555 1.355 . S
C2556 C2558 1.419 . S
C2557 C2552 1.425 . S
C2557 C2554 1.409 . S
C2557 C2555 1.415 . S
C2558 H2548 0.930 . S
C2558 C2556 1.419 . S
C2558 C2559 1.362 . S
C2559 H2549 0.930 . S
C2559 C2552 1.409 . S
C2559 C2558 1.362 . S
H2560 C2566 0.930 . S
H2561 C2569 0.930 . S
H2562 C2570 0.930 . S
H2563 C2571 0.930 . S
H2564 C2574 0.933 1_455 S
H2565 C2575 0.930 1_455 S
C2566 H2560 0.930 . S
C2566 C2567 1.355 . S
C2566 C2568 1.415 . S
C2567 C2566 1.355 . S
C2567 C2569 1.419 . S
C2568 C2566 1.415 . S
C2568 C2573 1.425 . S
C2568 C2575 1.409 . S
C2569 H2561 0.930 . S
C2569 C2567 1.419 . S
C2569 C2570 1.362 . S
C2570 H2562 0.930 . S
C2570 C2569 1.362 . S
C2570 C2573 1.409 . S
C2571 H2563 0.930 . S
C2571 C2572 1.355 . S
C2571 C2573 1.415 . S
C2572 C2571 1.355 . S
C2572 C2574 1.413 . S
C2573 C2568 1.425 . S
C2573 C2570 1.409 . S
C2573 C2571 1.415 . S
C2574 H2564 0.933 1_655 S
C2574 C2572 1.413 . S
C2574 C2575 1.365 . S
C2575 H2565 0.930 1_655 S
C2575 C2568 1.409 . S
C2575 C2574 1.365 . S
H2576 C2582 0.930 . S
H2577 C2585 0.930 . S
H2578 C2586 0.930 . S
H2579 C2587 0.930 . S
H2580 C2590 0.930 . S
H2581 C2591 0.930 . S
C2582 H2576 0.930 . S
C2582 C2583 1.355 . S
C2582 C2584 1.415 . S
C2583 C2582 1.355 . S
C2583 C2585 1.419 . S
C2584 C2582 1.415 . S
C2584 C2589 1.425 . S
C2584 C2591 1.409 . S
C2585 H2577 0.930 . S
C2585 C2583 1.419 . S
C2585 C2586 1.362 . S
C2586 H2578 0.930 . S
C2586 C2585 1.362 . S
C2586 C2589 1.409 . S
C2587 H2579 0.930 . S
C2587 C2588 1.355 . S
C2587 C2589 1.415 . S
C2588 C2587 1.355 . S
C2588 C2590 1.419 . S
C2589 C2584 1.425 . S
C2589 C2586 1.409 . S
C2589 C2587 1.415 . S
C2590 H2580 0.930 . S
C2590 C2588 1.419 . S
C2590 C2591 1.362 . S
C2591 H2581 0.930 . S
C2591 C2584 1.409 . S
C2591 C2590 1.362 . S
H2592 C2598 0.930 . S
H2593 C2601 0.930 . S
H2594 C2602 0.930 . S
H2595 C2603 0.930 . S
H2596 C2606 0.930 . S
H2597 C2607 0.930 . S
C2598 H2592 0.930 . S
C2598 C2599 1.355 . S
C2598 C2600 1.415 . S
C2599 C2598 1.355 . S
C2599 C2601 1.419 . S
C2600 C2598 1.415 . S
C2600 C2605 1.425 . S
C2600 C2607 1.409 . S
C2601 H2593 0.930 . S
C2601 C2599 1.419 . S
C2601 C2602 1.362 . S
C2602 H2594 0.930 . S
C2602 C2601 1.362 . S
C2602 C2605 1.409 . S
C2603 H2595 0.930 . S
C2603 C2604 1.355 . S
C2603 C2605 1.415 . S
C2604 C2603 1.355 . S
C2604 C2606 1.419 . S
C2605 C2600 1.425 . S
C2605 C2602 1.409 . S
C2605 C2603 1.415 . S
C2606 H2596 0.930 . S
C2606 C2604 1.419 . S
C2606 C2607 1.362 . S
C2607 H2597 0.930 . S
C2607 C2600 1.409 . S
C2607 C2606 1.362 . S
H2608 C2614 0.930 . S
H2609 C2617 0.930 . S
H2610 C2618 0.930 . S
H2611 C2619 0.930 . S
H2612 C2622 0.930 . S
H2613 C2623 0.930 . S
C2614 H2608 0.930 . S
C2614 C2615 1.355 . S
C2614 C2616 1.415 . S
C2615 C2614 1.355 . S
C2615 C2617 1.419 . S
C2616 C2614 1.415 . S
C2616 C2621 1.425 . S
C2616 C2623 1.409 . S
C2617 H2609 0.930 . S
C2617 C2615 1.419 . S
C2617 C2618 1.362 . S
C2618 H2610 0.930 . S
C2618 C2617 1.362 . S
C2618 C2621 1.409 . S
C2619 H2611 0.930 . S
C2619 C2620 1.355 . S
C2619 C2621 1.415 . S
C2620 C2619 1.355 . S
C2620 C2622 1.419 . S
C2621 C2616 1.425 . S
C2621 C2618 1.409 . S
C2621 C2619 1.415 . S
C2622 H2612 0.930 . S
C2622 C2620 1.419 . S
C2622 C2623 1.362 . S
C2623 H2613 0.930 . S
C2623 C2616 1.409 . S
C2623 C2622 1.362 . S
H2624 C2630 0.930 . S
H2625 C2633 0.930 . S
H2626 C2634 0.930 . S
H2627 C2635 0.930 . S
H2628 C2638 0.930 . S
H2629 C2639 0.930 . S
C2630 H2624 0.930 . S
C2630 C2631 1.355 . S
C2630 C2632 1.415 . S
C2631 C2630 1.355 . S
C2631 C2633 1.419 . S
C2632 C2630 1.415 . S
C2632 C2637 1.425 . S
C2632 C2639 1.409 . S
C2633 H2625 0.930 . S
C2633 C2631 1.419 . S
C2633 C2634 1.362 . S
C2634 H2626 0.930 . S
C2634 C2633 1.362 . S
C2634 C2637 1.409 . S
C2635 H2627 0.930 . S
C2635 C2636 1.355 . S
C2635 C2637 1.415 . S
C2636 C2635 1.355 . S
C2636 C2638 1.419 . S
C2637 C2632 1.425 . S
C2637 C2634 1.409 . S
C2637 C2635 1.415 . S
C2638 H2628 0.930 . S
C2638 C2636 1.419 . S
C2638 C2639 1.362 . S
C2639 H2629 0.930 . S
C2639 C2632 1.409 . S
C2639 C2638 1.362 . S
H2640 C2646 0.930 . S
H2641 C2649 0.930 . S
H2642 C2650 0.930 . S
H2643 C2651 0.930 . S
H2644 C2654 0.930 . S
H2645 C2655 0.930 . S
C2646 H2640 0.930 . S
C2646 C2647 1.355 . S
C2646 C2648 1.415 . S
C2647 C2646 1.355 . S
C2647 C2649 1.419 . S
C2648 C2646 1.415 . S
C2648 C2653 1.425 . S
C2648 C2655 1.409 . S
C2649 H2641 0.930 . S
C2649 C2647 1.419 . S
C2649 C2650 1.362 . S
C2650 H2642 0.930 . S
C2650 C2649 1.362 . S
C2650 C2653 1.409 . S
C2651 H2643 0.930 . S
C2651 C2652 1.355 . S
C2651 C2653 1.415 . S
C2652 C2651 1.355 . S
C2652 C2654 1.419 . S
C2653 C2648 1.425 . S
C2653 C2650 1.409 . S
C2653 C2651 1.415 . S
C2654 H2644 0.930 . S
C2654 C2652 1.419 . S
C2654 C2655 1.362 . S
C2655 H2645 0.930 . S
C2655 C2648 1.409 . S
C2655 C2654 1.362 . S
H2656 C2662 0.930 . S
H2657 C2665 0.930 . S
H2658 C2666 0.930 . S
H2659 C2667 0.930 . S
H2660 C2670 0.930 . S
H2661 C2671 0.930 . S
C2662 H2656 0.930 . S
C2662 C2663 1.355 . S
C2662 C2664 1.415 . S
C2663 C2662 1.355 . S
C2663 C2665 1.419 . S
C2664 C2662 1.415 . S
C2664 C2669 1.425 . S
C2664 C2671 1.409 . S
C2665 H2657 0.930 . S
C2665 C2663 1.419 . S
C2665 C2666 1.362 . S
C2666 H2658 0.930 . S
C2666 C2665 1.362 . S
C2666 C2669 1.409 . S
C2667 H2659 0.930 . S
C2667 C2668 1.355 . S
C2667 C2669 1.415 . S
C2668 C2667 1.355 . S
C2668 C2670 1.419 . S
C2669 C2664 1.425 . S
C2669 C2666 1.409 . S
C2669 C2667 1.415 . S
C2670 H2660 0.930 . S
C2670 C2668 1.419 . S
C2670 C2671 1.362 . S
C2671 H2661 0.930 . S
C2671 C2664 1.409 . S
C2671 C2670 1.362 . S
H2672 C2678 0.930 . S
H2673 C2681 0.930 1_655 S
H2674 C2682 0.930 . S
H2675 C2683 0.930 . S
H2676 C2686 0.930 . S
H2677 C2687 0.930 . S
C2678 H2672 0.930 . S
C2678 C2679 1.355 . S
C2678 C2680 1.415 . S
C2679 C2678 1.355 . S
C2679 C2681 1.419 . S
C2680 C2678 1.415 . S
C2680 C2685 1.425 . S
C2680 C2687 1.409 . S
C2681 H2673 0.930 1_455 S
C2681 C2679 1.419 . S
C2681 C2682 1.362 . S
C2682 H2674 0.930 . S
C2682 C2681 1.362 . S
C2682 C2685 1.409 . S
C2683 H2675 0.930 . S
C2683 C2684 1.355 . S
C2683 C2685 1.415 . S
C2684 C2683 1.355 . S
C2684 C2686 1.419 . S
C2685 C2680 1.425 . S
C2685 C2682 1.409 . S
C2685 C2683 1.415 . S
C2686 H2676 0.930 . S
C2686 C2684 1.419 . S
C2686 C2687 1.362 . S
C2687 H2677 0.930 . S
C2687 C2680 1.409 . S
C2687 C2686 1.362 . S
H2688 C2694 0.930 . S
H2689 C2697 0.930 . S
H2690 C2698 0.930 1_455 S
H2691 C2699 0.930 1_455 S
H2692 C2702 0.930 . S
H2693 C2703 0.930 . S
C2694 H2688 0.930 . S
C2694 C2695 1.355 . S
C2694 C2696 1.415 . S
C2695 C2694 1.355 . S
C2695 C2697 1.419 . S
C2696 C2694 1.415 . S
C2696 C2701 1.425 . S
C2696 C2703 1.409 . S
C2697 H2689 0.930 . S
C2697 C2695 1.419 . S
C2697 C2698 1.362 . S
C2698 H2690 0.930 1_655 S
C2698 C2697 1.362 . S
C2698 C2701 1.409 . S
C2699 H2691 0.930 1_655 S
C2699 C2700 1.355 . S
C2699 C2701 1.415 . S
C2700 C2699 1.355 . S
C2700 C2702 1.419 . S
C2701 C2696 1.425 . S
C2701 C2698 1.409 . S
C2701 C2699 1.415 . S
C2702 H2692 0.930 . S
C2702 C2700 1.419 . S
C2702 C2703 1.362 . S
C2703 H2693 0.930 . S
C2703 C2696 1.409 . S
C2703 C2702 1.362 . S
H2704 C2710 0.930 . S
H2705 C2713 0.930 . S
H2706 C2714 0.930 . S
H2707 C2715 0.930 . S
H2708 C2718 0.930 . S
H2709 C2719 0.930 . S
C2710 H2704 0.930 . S
C2710 C2711 1.355 . S
C2710 C2712 1.415 . S
C2711 C2710 1.355 . S
C2711 C2713 1.419 . S
C2712 C2710 1.415 . S
C2712 C2717 1.425 . S
C2712 C2719 1.409 . S
C2713 H2705 0.930 . S
C2713 C2711 1.419 . S
C2713 C2714 1.362 . S
C2714 H2706 0.930 . S
C2714 C2713 1.362 . S
C2714 C2717 1.409 . S
C2715 H2707 0.930 . S
C2715 C2716 1.355 . S
C2715 C2717 1.415 . S
C2716 C2715 1.355 . S
C2716 C2718 1.419 . S
C2717 C2712 1.425 . S
C2717 C2714 1.409 . S
C2717 C2715 1.415 . S
C2718 H2708 0.930 . S
C2718 C2716 1.419 . S
C2718 C2719 1.362 . S
C2719 H2709 0.930 . S
C2719 C2712 1.409 . S
C2719 C2718 1.362 . S
H2720 C2726 0.930 . S
H2721 C2729 0.930 . S
H2722 C2730 0.930 . S
H2723 C2731 0.930 . S
H2724 C2734 0.930 . S
H2725 C2735 0.930 1_565 S
C2726 H2720 0.930 . S
C2726 C2727 1.355 . S
C2726 C2728 1.415 . S
C2727 C2726 1.355 . S
C2727 C2729 1.419 . S
C2728 C2726 1.415 . S
C2728 C2733 1.425 . S
C2728 C2735 1.409 . S
C2729 H2721 0.930 . S
C2729 C2727 1.419 . S
C2729 C2730 1.362 . S
C2730 H2722 0.930 . S
C2730 C2729 1.362 . S
C2730 C2733 1.409 . S
C2731 H2723 0.930 . S
C2731 C2732 1.355 . S
C2731 C2733 1.415 . S
C2732 C2731 1.355 . S
C2732 C2734 1.419 1_545 S
C2733 C2728 1.425 . S
C2733 C2730 1.409 . S
C2733 C2731 1.415 . S
C2734 H2724 0.930 . S
C2734 C2732 1.419 1_565 S
C2734 C2735 1.362 1_565 S
C2735 H2725 0.930 1_545 S
C2735 C2728 1.409 . S
C2735 C2734 1.362 1_545 S
C1591 C13 1.259 . S
C1596 C981 1.270 . S
C1607 C27 1.328 . S
C1612 C1061 1.400 . S
C1628 C1129 1.329 . S
C1623 C36 1.274 . S
C1639 C41 1.636 . S
C1644 C1209 1.691 . S
C1655 C8 1.578 . S
C1660 C1283 1.553 . S
C1671 C22 1.533 . S
C1676 C1351 1.464 . S
C1687 C55 1.223 1_556 S
C1692 C1277 1.209 . S
C1708 C1357 1.347 . S
C1703 C69 1.264 . S
C1724 C1203 1.319 1_545 S
C1719 C78 1.279 . S
C1735 C83 1.682 . S
C1740 C1135 1.665 1_545 S
C1756 C987 1.552 . S
C1751 C50 1.469 . S
C1767 C64 1.334 . S
C1772 C1055 1.395 . S
C1783 C97 1.370 . S
C1788 C1425 1.378 . S
C1799 C111 1.373 . S
C1804 C1505 1.443 . S
C1820 C1573 1.499 . S
C1815 C120 1.541 . S
C1831 C125 1.827 . S
C1836 C321 1.817 . S
C1847 C92 1.776 . S
C1852 C395 1.775 . S
C1863 C106 1.567 . S
C1868 C463 1.464 . S
C1879 C139 1.168 . S
C1884 C389 1.220 . S
C1895 C153 1.373 . S
C1900 C469 1.377 . S
C1916 C315 1.360 . S
C1911 C162 1.361 . S
C1932 C1579 1.774 . S
C1927 C167 1.772 . S
C1948 C1431 1.629 . S
C1943 C134 1.540 . S
C1964 C1499 1.436 . S
C1959 C148 1.411 . S
C1975 C181 1.352 . S
C1980 C537 1.353 . S
C1991 C195 1.433 . S
C1996 C617 1.488 . S
C2007 C204 1.568 . S
C2012 C685 1.520 . S
C2023 C209 1.857 . S
C2028 C765 1.842 . S
C2044 C839 1.770 . S
C2039 C176 1.746 . S
C2060 C907 1.550 . S
C2055 C190 1.569 . S
C2076 C833 1.319 . S
C2071 C223 1.289 . S
C2092 C913 1.368 . S
C2087 C237 1.271 . S
C2103 C246 1.260 . S
C2108 C759 1.297 . S
C2124 C691 1.717 . S
C2119 C251 1.682 . S
C2135 C218 1.559 . S
C2140 C543 1.654 . S
C2156 C611 1.374 . S
C2151 C232 1.368 . S
C2172 C291 1.888 . S
C2167 C11 1.888 . S
C2183 C25 1.367 . S
C2188 C365 1.370 . S
C2204 C451 1.474 . S
C2199 C35 1.462 . S
C2220 C525 1.304 . S
C2215 C39 1.297 . S
C2236 C587 1.593 . S
C2231 C7 1.631 1_556 S
C2252 C673 1.502 . S
C2247 C21 1.540 . S
C2263 C53 2.105 . S
C2268 C661 2.067 . S
C2279 C67 1.527 . S
C2284 C513 1.477 . S
C2295 C77 1.713 . S
C2300 C599 1.623 . S
C2311 C81 1.588 . S
C2316 C377 1.551 . S
C2332 C439 1.747 . S
C2327 C49 1.856 . S
C2343 C63 1.823 . S
C2348 C303 1.766 . S
C2364 C735 1.849 . S
C2359 C95 1.833 . S
C2375 C109 1.405 . S
C2380 C809 1.399 . S
C2391 C119 1.514 1_655 S
C2396 C895 1.474 . S
C2412 C969 1.012 . S
C2407 C123 1.042 . S
C2423 C91 1.541 . S
C2428 C1031 1.534 . S
C2439 C105 1.330 . S
C2444 C1117 1.350 . S
C2455 C137 1.763 . S
C2460 C1105 1.680 1_565 S
C2471 C151 1.271 . S
C2476 C957 1.268 . S
C2492 C1043 1.589 . S
C2487 C161 1.626 . S
C2503 C165 1.542 . S
C2508 C821 1.478 . S
C2519 C133 1.856 1_545 S
C2524 C883 1.729 . S
C2540 C747 1.806 . S
C2535 C147 1.865 1_655 S
C2556 C1179 1.735 . S
C2551 C179 1.753 . S
C2567 C193 1.143 . S
C2572 C1253 1.132 . S
C2583 C203 1.399 . S
C2588 C1339 1.406 . S
C2604 C1413 1.291 . S
C2599 C207 1.281 . S
C2620 C1475 1.643 . S
C2615 C175 1.662 1_565 S
C2631 C189 1.603 1_455 S
C2636 C1561 1.562 . S
C2647 C221 2.055 . S
C2652 C1549 2.007 . S
C2663 C235 1.609 . S
C2668 C1401 1.541 . S
C2684 C1487 1.699 . S
C2679 C245 1.754 1_455 S
C2700 C1265 1.116 . S
C2695 C249 1.125 . S
C2716 C1327 1.694 . S
C2711 C217 1.756 . S
C2727 C231 1.491 . S
C2732 C1191 1.453 1_545 S
