# Generated by pormake.
# Topology pts, (4,4)-cn, num edge types: 1
# Building blocks:
#     Node 0, Type 0, BuildingBlock: MUDLON_clean_linker_0, # of connection points: 4
#     Node 1, Type 0, BuildingBlock: MUDLON_clean_linker_0, # of connection points: 4
#     Node 2, Type 1, BuildingBlock: QUQFOY_clean_sbu_1, # of connection points: 4
#     Node 3, Type 1, BuildingBlock: QUQFOY_clean_sbu_1, # of connection points: 4
#     Edge 4, Type (0, 1), BuildingBlock: FUNLAD_clean_linker_1, # of connection points: 2
#     Edge 5, Type (0, 1), BuildingBlock: FUNLAD_clean_linker_1, # of connection points: 2
#     Edge 6, Type (0, 1), BuildingBlock: FUNLAD_clean_linker_1, # of connection points: 2
#     Edge 7, Type (0, 1), BuildingBlock: FUNLAD_clean_linker_1, # of connection points: 2
#     Edge 8, Type (0, 1), BuildingBlock: FUNLAD_clean_linker_1, # of connection points: 2
#     Edge 9, Type (0, 1), BuildingBlock: FUNLAD_clean_linker_1, # of connection points: 2
#     Edge 10, Type (0, 1), BuildingBlock: FUNLAD_clean_linker_1, # of connection points: 2
#     Edge 11, Type (0, 1), BuildingBlock: FUNLAD_clean_linker_1, # of connection points: 2
# Relax obj value: 0.109
# Max RMSD: 0.273
# Mean RMSD: 0.180
data_MOF--net-pts--node1-QUQFOY_clean_sbu_1--node2-MUDLON_clean_linker_0--edge1-FUNLAD_clean_linker_1
_symmetry_space_group_name_H-M    P1
_symmetry_Int_Tables_number       1
_symmetry_cell_setting            triclinic
loop_
_symmetry_equiv_pos_as_xyz
'x, y, z'
_cell_length_a     33.26186
_cell_length_b     36.238919
_cell_length_c     48.423244
_cell_angle_alpha  89.938799
_cell_angle_beta   90.016675
_cell_angle_gamma 89.87376
loop_
_atom_site_label
_atom_site_type_symbol
_atom_site_fract_x
_atom_site_fract_y
_atom_site_fract_z
_atom_type_partial_charge
H0 H 0.69732 0.02055 0.00694 0.0
N1 N 0.64564 0.96193 0.0026 0.0
H2 H 0.74392 0.03239 0.04505 0.0
H3 H 0.65021 0.92629 0.05057 0.0
H4 H 0.69587 0.93877 0.08919 0.0
H5 H 0.70296 0.91767 0.98341 0.0
H6 H 0.74088 0.9236 0.94021 0.0
H7 H 0.63329 0.01413 0.96155 0.0
H8 H 0.66984 0.01883 0.91804 0.0
H9 H 0.61849 0.03146 0.01494 0.0
H10 H 0.58046 0.92159 0.99341 0.0
H11 H 0.54844 0.05167 0.01663 0.0
H12 H 0.51016 0.94177 0.99427 0.0
H13 H 0.34812 0.10396 0.03608 0.0
H14 H 0.30564 0.10727 0.07745 0.0
H15 H 0.27458 0.99238 0.0668 0.0
H16 H 0.31688 0.9894 0.02611 0.0
H17 H 0.34787 0.97705 0.98164 0.0
H18 H 0.30658 0.96085 0.94172 0.0
H19 H 0.27799 0.07622 0.92978 0.0
H20 H 0.3196 0.09201 0.96942 0.0
H21 H 0.42261 0.08302 0.98466 0.0
H22 H 0.49296 0.06303 0.98526 0.0
H23 H 0.45783 0.96179 0.02579 0.0
N24 N 0.3589 0.04661 0.00282 0.0
H25 H 0.38782 0.98159 0.0245 0.0
C26 C 0.67066 0.97204 0.02578 0.0
C27 C 0.69665 1.00264 0.02483 0.0
C28 C 0.72315 0.00948 0.04662 0.0
C29 C 0.72321 0.98676 0.07009 0.0
C30 C 0.696 0.95718 0.07156 0.0
C31 C 0.67011 0.94987 0.0495 0.0
C32 C 0.66504 0.96507 0.97592 0.0
C33 C 0.6955 0.93977 0.96922 0.0
C34 C 0.71723 0.9433 0.94469 0.0
C35 C 0.70832 0.9719 0.92607 0.0
C36 C 0.67713 0.99661 0.93219 0.0
C37 C 0.65613 0.99375 0.95712 0.0
C38 C 0.60461 0.97479 0.00425 0.0
C39 C 0.59503 0.01162 0.01072 0.0
C40 C 0.55494 0.02323 0.01141 0.0
C41 C 0.52366 0.99833 0.0056 0.0
C42 C 0.53344 0.96152 0.99926 0.0
C43 C 0.57352 0.94996 0.99859 0.0
C44 C 0.33599 0.04654 0.02809 0.0
C45 C 0.3326 0.07943 0.04306 0.0
C46 C 0.30835 0.08125 0.0666 0.0
C47 C 0.28733 0.05002 0.07583 0.0
C48 C 0.29121 0.01679 0.06098 0.0
C49 C 0.31532 0.01507 0.03738 0.0
C50 C 0.33699 0.03596 0.97841 0.0
C51 C 0.33321 0.9989 0.97022 0.0
C52 C 0.3096 0.98964 0.94735 0.0
C53 C 0.28969 0.01714 0.9321 0.0
C54 C 0.29385 0.05423 0.94028 0.0
C55 C 0.31734 0.06341 0.96316 0.0
C56 C 0.39996 0.03405 0.00455 0.0
C57 C 0.43026 0.0566 0.99375 0.0
C58 C 0.47039 0.0452 0.99426 0.0
C59 C 0.48105 0.01082 0.00563 0.0
C60 C 0.4506 0.98825 0.0166 0.0
C61 C 0.41044 0.99969 0.01604 0.0
H62 H 0.9579 0.68445 0.51675 0.0
N63 N 0.02975 0.6516 0.50327 0.0
H64 H 0.94727 0.73019 0.55274 0.0
H65 H 0.0811 0.67131 0.5425 0.0
H66 H 0.07112 0.7175 0.57834 0.0
H67 H 0.09138 0.68198 0.47708 0.0
H68 H 0.08902 0.72232 0.43636 0.0
H69 H 0.96361 0.66452 0.47087 0.0
H70 H 0.96079 0.70551 0.43072 0.0
H71 H 0.95476 0.62143 0.51116 0.0
H72 H 0.07898 0.59503 0.49543 0.0
H73 H 0.93821 0.556 0.51167 0.0
H74 H 0.06253 0.52931 0.49469 0.0
H75 H 0.89619 0.36452 0.53359 0.0
H76 H 0.89521 0.31923 0.57128 0.0
H77 H 0.02374 0.30535 0.56296 0.0
H78 H 0.02432 0.35016 0.52587 0.0
H79 H 0.0329 0.37204 0.47915 0.0
H80 H 0.05004 0.32703 0.44327 0.0
H81 H 0.92418 0.29954 0.43509 0.0
H82 H 0.90766 0.34435 0.47075 0.0
H83 H 0.91443 0.43806 0.48301 0.0
H84 H 0.93106 0.50375 0.48288 0.0
H85 H 0.04414 0.47889 0.52293 0.0
N86 N 0.95826 0.38233 0.50183 0.0
H87 H 0.02795 0.41346 0.52182 0.0
C88 C 0.0204 0.67398 0.52705 0.0
C89 C 0.98248 0.69056 0.53055 0.0
C90 C 0.97647 0.71704 0.55111 0.0
C91 C 0.00803 0.72756 0.56867 0.0
C92 C 0.0456 0.7099 0.56577 0.0
C93 C 0.05154 0.68337 0.54518 0.0
C94 C 0.02776 0.6707 0.47721 0.0
C95 C 0.06293 0.68658 0.46672 0.0
C96 C 0.06149 0.70966 0.44362 0.0
C97 C 0.02463 0.7179 0.43092 0.0
C98 C 0.98949 0.70062 0.44063 0.0
C99 C 0.9911 0.67698 0.46349 0.0
C100 C 0.01839 0.61321 0.50356 0.0
C101 C 0.97855 0.60165 0.50777 0.0
C102 C 0.96904 0.56399 0.50779 0.0
C103 C 0.99901 0.53709 0.50328 0.0
C104 C 0.03873 0.54898 0.49879 0.0
C105 C 0.0482 0.58656 0.499 0.0
C106 C 0.96022 0.36131 0.52713 0.0
C107 C 0.92424 0.35251 0.5406 0.0
C108 C 0.92373 0.32649 0.56195 0.0
C109 C 0.95934 0.30892 0.57045 0.0
C110 C 0.99577 0.31887 0.55766 0.0
C111 C 0.99618 0.34475 0.53623 0.0
C112 C 0.96884 0.36159 0.47752 0.0
C113 C 0.00899 0.35695 0.46914 0.0
C114 C 0.01875 0.33115 0.44868 0.0
C115 C 0.9886 0.30997 0.43599 0.0
C116 C 0.94827 0.3159 0.44368 0.0
C117 C 0.93865 0.34148 0.4642 0.0
C118 C 0.96957 0.42075 0.50257 0.0
C119 C 0.94281 0.44692 0.49172 0.0
C120 C 0.95229 0.4845 0.49188 0.0
C121 C 0.98891 0.4969 0.50306 0.0
C122 C 0.01587 0.47049 0.51384 0.0
C123 C 0.00645 0.43283 0.51346 0.0
O124 O 0.9483 0.98507 0.23328 0.0
Cd125 Cd 0.99998 0.97896 0.25643 0.0
Cd126 Cd 0.99897 0.0562 0.25456 0.0
O127 O 0.9436 0.04574 0.23679 0.0
O128 O 1.00031 0.92678 0.26953 0.0
O129 O 0.99696 0.97464 0.29784 0.0
C130 C 0.99813 0.93932 0.2944 0.0
C131 C 1.00085 0.10498 0.28606 0.0
C132 C 0.92966 0.01507 0.22857 0.0
C133 C 0.0681 0.01602 0.22698 0.0
O134 O 0.05037 0.04661 0.23133 0.0
O135 O 0.05386 0.98605 0.23632 0.0
O136 O 0.99801 0.11074 0.25992 0.0
O137 O 0.00304 0.07125 0.29463 0.0
O138 O 0.95167 0.04708 0.7774 0.0
Cd139 Cd 1.00072 0.05719 0.75232 0.0
Cd140 Cd 0.00335 0.97786 0.75346 0.0
O141 O 0.94977 0.98621 0.77406 0.0
O142 O 0.99915 0.1117 0.74654 0.0
O143 O 0.99351 0.07182 0.71226 0.0
C144 C 0.99478 0.10566 0.72056 0.0
C145 C 0.00536 0.92904 0.7219 0.0
C146 C 0.93506 0.0164 0.78286 0.0
C147 C 0.0729 0.02017 0.77823 0.0
O148 O 0.05605 0.98908 0.77463 0.0
O149 O 0.05673 0.04972 0.76953 0.0
O150 O 0.00553 0.92331 0.74812 0.0
O151 O 0.00402 0.96276 0.71326 0.0
H152 H 0.24799 0.08131 0.10432 0.0
C153 C 0.25938 0.05386 0.0996 0.0
H154 H 0.25796 0.99757 0.1114 0.0
H155 H 0.17323 0.07979 0.21959 0.0
H156 H 0.23935 0.1054 0.22853 0.0
H157 H 0.29494 0.09613 0.19551 0.0
H158 H 0.28474 0.06136 0.1533 0.0
C159 C 0.24699 0.02532 0.11517 0.0
C160 C 0.21435 0.02996 0.1359 0.0
C161 C 0.22097 0.0501 0.16058 0.0
C162 C 0.18906 0.05501 0.17981 0.0
C163 C 0.19643 0.07523 0.2043 0.0
C164 C 0.23424 0.09002 0.2097 0.0
C165 C 0.26553 0.08484 0.1911 0.0
C166 C 0.2592 0.06501 0.16685 0.0
H167 H 0.11811 0.98742 0.20615 0.0
C168 C 0.10412 0.01425 0.20928 0.0
H169 H 0.10476 0.07069 0.19804 0.0
H170 H 0.19174 0.98958 0.09069 0.0
H171 H 0.12553 0.96468 0.0815 0.0
H172 H 0.06975 0.97458 0.11424 0.0
H173 H 0.07993 0.00915 0.1564 0.0
C174 C 0.11787 0.0435 0.19509 0.0
C175 C 0.15085 0.0393 0.17454 0.0
C176 C 0.14412 0.01949 0.14968 0.0
C177 C 0.17607 0.0144 0.13055 0.0
C178 C 0.16859 0.99431 0.10598 0.0
C179 C 0.13067 0.97992 0.10039 0.0
C180 C 0.0993 0.98545 0.11883 0.0
C181 C 0.10569 1.00512 0.14312 0.0
H182 H 0.92794 0.26419 0.59283 0.0
C183 C 0.95674 0.27806 0.59067 0.0
H184 H 0.01703 0.27941 0.60462 0.0
H185 H 0.92083 0.17051 0.69484 0.0
H186 H 0.88058 0.2242 0.70631 0.0
H187 H 0.88928 0.28279 0.68106 0.0
H188 H 0.93739 0.28769 0.64369 0.0
C189 C 0.98793 0.26609 0.606 0.0
C190 C 0.98502 0.2321 0.62332 0.0
C191 C 0.95833 0.23041 0.64615 0.0
C192 C 0.95524 0.19737 0.66194 0.0
C193 C 0.92608 0.19553 0.68321 0.0
C194 C 0.90249 0.22605 0.68985 0.0
C195 C 0.90724 0.25897 0.67554 0.0
C196 C 0.93479 0.2613 0.65396 0.0
H197 H 0.99861 0.16442 0.70973 0.0
C198 C 0.99213 0.13722 0.70141 0.0
H199 H 0.97573 0.10693 0.66599 0.0
H200 H 0.03783 0.22529 0.58018 0.0
H201 H 0.07998 0.17244 0.56997 0.0
H202 H 0.07792 0.11675 0.59924 0.0
H203 H 0.03337 0.11339 0.63872 0.0
C204 C 0.98165 0.13398 0.67474 0.0
C205 C 0.98095 0.16696 0.65618 0.0
C206 C 0.00753 0.16863 0.63332 0.0
C207 C 0.00934 0.20109 0.61678 0.0
C208 C 0.03567 0.20166 0.59377 0.0
C209 C 0.06001 0.17146 0.5876 0.0
C210 C 0.05881 0.14009 0.60406 0.0
C211 C 0.033 0.13854 0.62667 0.0
H212 H 0.78368 1.0017 0.08496 0.0
C213 C 0.75412 0.99255 0.09164 0.0
H214 H 0.71754 0.97867 0.12565 0.0
H215 H 0.85605 0.92703 0.2053 0.0
H216 H 0.81403 0.87272 0.20214 0.0
H217 H 0.75679 0.87067 0.16981 0.0
H218 H 0.7408 0.92309 0.14082 0.0
C219 C 0.74716 0.98718 0.11872 0.0
C220 C 0.78033 0.98952 0.13944 0.0
C221 C 0.7897 0.95826 0.15591 0.0
C222 C 0.8235 0.959 0.17394 0.0
C223 C 0.8314 0.92774 0.19073 0.0
C224 C 0.80742 0.89636 0.18921 0.0
C225 C 0.77516 0.89524 0.17105 0.0
C226 C 0.76628 0.92567 0.15454 0.0
H227 H 0.87103 0.03757 0.21536 0.0
C228 C 0.89211 0.01494 0.21245 0.0
H229 H 0.90677 0.96742 0.18955 0.0
H230 H 0.76507 0.05738 0.11659 0.0
H231 H 0.80945 0.1104 0.11712 0.0
H232 H 0.87421 0.10798 0.14191 0.0
H233 H 0.89403 0.05334 0.16724 0.0
C234 C 0.8854 0.98978 0.19262 0.0
C235 C 0.84873 0.99051 0.17484 0.0
C236 C 0.83943 0.02175 0.1582 0.0
C237 C 0.80399 0.02194 0.14174 0.0
C238 C 0.79308 0.05486 0.1278 0.0
C239 C 0.81808 0.08561 0.12815 0.0
C240 C 0.85439 0.08434 0.14225 0.0
C241 C 0.86516 0.05285 0.15705 0.0
H242 H 0.97519 0.77645 0.58428 0.0
C243 C 0.00126 0.75895 0.588 0.0
H244 H 0.05182 0.75084 0.614 0.0
H245 H 0.07073 0.91614 0.65047 0.0
H246 H 0.12893 0.90825 0.62093 0.0
H247 H 0.13742 0.85189 0.593 0.0
H248 H 0.08793 0.80294 0.59459 0.0
C249 C 0.02548 0.76738 0.60935 0.0
C250 C 0.01929 0.80168 0.62583 0.0
C251 C 0.04827 0.83029 0.62441 0.0
C252 C 0.04306 0.86307 0.64019 0.0
C253 C 0.07289 0.89085 0.63871 0.0
C254 C 0.10651 0.88668 0.62185 0.0
C255 C 0.11131 0.85493 0.60615 0.0
C256 C 0.08266 0.827 0.60731 0.0
H257 H 0.00983 0.86997 0.71205 0.0
C258 C 0.00699 0.89729 0.70292 0.0
H259 H 0.00342 0.92765 0.66575 0.0
H260 H 0.95964 0.75112 0.63534 0.0
H261 H 0.89968 0.76038 0.66292 0.0
H262 H 0.88793 0.81926 0.68717 0.0
H263 H 0.93652 0.86892 0.68443 0.0
C264 C 0.00511 0.90055 0.67532 0.0
C265 C 0.00877 0.86734 0.65728 0.0
C266 C 0.97908 0.83924 0.65798 0.0
C267 C 0.98485 0.806 0.64283 0.0
C268 C 0.956 0.77752 0.64541 0.0
C269 C 0.92154 0.78237 0.66135 0.0
C270 C 0.915 0.81546 0.67509 0.0
C271 C 0.9433 0.84365 0.6735 0.0
H272 H 0.25037 0.97818 0.90952 0.0
C273 C 0.2625 1.00603 0.9092 0.0
H274 H 0.26317 0.05671 0.88732 0.0
H275 H 0.1795 0.95424 0.79104 0.0
H276 H 0.24592 0.92723 0.78553 0.0
H277 H 0.30058 0.94204 0.81813 0.0
H278 H 0.28919 0.98393 0.85647 0.0
C279 C 0.25136 0.0289 0.88869 0.0
C280 C 0.2186 0.01879 0.86927 0.0
C281 C 0.22578 0.9942 0.84706 0.0
C282 C 0.1943 0.98581 0.82817 0.0
C283 C 0.20234 0.96149 0.80599 0.0
C284 C 0.24031 0.94583 0.80258 0.0
C285 C 0.27109 0.95415 0.82095 0.0
C286 C 0.26412 0.97814 0.84292 0.0
H287 H 0.1236 0.05032 0.79662 0.0
C288 C 0.1098 0.02322 0.79491 0.0
H289 H 0.11054 0.96812 0.80948 0.0
H290 H 0.19466 0.06608 0.91021 0.0
H291 H 0.12763 0.09087 0.91695 0.0
H292 H 0.07231 0.0742 0.88544 0.0
H293 H 0.0838 0.03306 0.84685 0.0
C294 C 0.12371 0.99548 0.81071 0.0
C295 C 0.15589 1.00219 0.83149 0.0
C296 C 0.14828 0.02551 0.85447 0.0
C297 C 0.17987 0.03433 0.87306 0.0
C298 C 0.17171 0.05831 0.89549 0.0
C299 C 0.13333 0.07268 0.89967 0.0
C300 C 0.10222 0.06336 0.8819 0.0
C301 C 0.10936 0.03995 0.85963 0.0
H302 H 0.0303 0.26786 0.41917 0.0
C303 C 1.00037 0.27964 0.41691 0.0
H304 H 0.9457 0.27695 0.3947 0.0
H305 H 0.06878 0.17248 0.3189 0.0
H306 H 0.10851 0.22774 0.31178 0.0
H307 H 0.09137 0.28573 0.33574 0.0
H308 H 0.03508 0.28855 0.36743 0.0
C309 C 0.97556 0.26552 0.39769 0.0
C310 C 0.98571 0.23126 0.38213 0.0
C311 C 0.01771 0.23062 0.36277 0.0
C312 C 0.02621 0.19775 0.34775 0.0
C313 C 0.05981 0.19719 0.3298 0.0
C314 C 0.08307 0.22863 0.3257 0.0
C315 C 0.07352 0.26123 0.33928 0.0
C316 C 0.04124 0.26239 0.35758 0.0
H317 H 0.99394 0.16369 0.29632 0.0
C318 C 1.00019 0.13666 0.30512 0.0
H319 H 0.01154 0.10663 0.34166 0.0
H320 H 0.9242 0.22213 0.41915 0.0
H321 H 0.8836 0.16733 0.42536 0.0
H322 H 0.89589 0.11157 0.39742 0.0
H323 H 0.94909 0.11015 0.3633 0.0
C324 C 0.00617 0.13355 0.33246 0.0
C325 C 0.00126 0.16626 0.35091 0.0
C326 C 0.96985 0.16667 0.37069 0.0
C327 C 0.96223 0.1991 0.38642 0.0
C328 C 0.93092 0.19854 0.40627 0.0
C329 C 0.90741 0.1672 0.41012 0.0
C330 C 0.91436 0.1358 0.39442 0.0
C331 C 0.9451 0.13538 0.3749 0.0
H332 H 0.71531 0.98154 0.88116 0.0
C333 C 0.73153 0.97632 0.90026 0.0
H334 H 0.78786 0.97137 0.91968 0.0
H335 H 0.89826 0.92407 0.82291 0.0
H336 H 0.90077 0.87076 0.85285 0.0
H337 H 0.85467 0.86511 0.89249 0.0
H338 H 0.8063 0.91317 0.90266 0.0
C339 C 0.77193 0.97593 0.90036 0.0
C340 C 0.7963 0.97833 0.87458 0.0
C341 C 0.8234 0.94926 0.86821 0.0
C342 C 0.84896 0.95191 0.84475 0.0
C343 C 0.87722 0.92326 0.83989 0.0
C344 C 0.87914 0.89242 0.85702 0.0
C345 C 0.85327 0.88928 0.87936 0.0
C346 C 0.82572 0.91723 0.88501 0.0
H347 H 0.89696 0.03903 0.81593 0.0
C348 C 0.90061 0.01578 0.80197 0.0
H349 H 0.87941 0.96367 0.78971 0.0
H350 H 0.75222 0.04182 0.88242 0.0
H351 H 0.74477 0.09227 0.85001 0.0
H352 H 0.78107 0.09192 0.80558 0.0
H353 H 0.82631 0.04171 0.79392 0.0
C354 C 0.87561 0.98677 0.80377 0.0
C355 C 0.84635 0.98304 0.82699 0.0
C356 C 0.81734 0.01095 0.83235 0.0
C357 C 0.79376 0.00954 0.85687 0.0
C358 C 0.76867 0.04001 0.86323 0.0
C359 C 0.76443 0.06942 0.84492 0.0
C360 C 0.78505 0.06935 0.81999 0.0
C361 C 0.81122 0.04053 0.81368 0.0
H362 H 0.05076 0.74784 0.39536 0.0
C363 C 0.02391 0.74514 0.40802 0.0
H364 H 0.96663 0.76763 0.41694 0.0
H365 H 0.06425 0.89706 0.34452 0.0
H366 H 0.10951 0.90019 0.3836 0.0
H367 H 0.10154 0.85811 0.42328 0.0
H368 H 0.04893 0.812 0.42371 0.0
C369 C 0.99341 0.76907 0.40417 0.0
C370 C 0.99495 0.79793 0.38221 0.0
C371 C 0.0244 0.82624 0.38306 0.0
C372 C 0.02739 0.85205 0.36096 0.0
C373 C 0.05916 0.87802 0.36134 0.0
C374 C 0.08562 0.87995 0.38358 0.0
C375 C 0.08126 0.85615 0.40586 0.0
C376 C 0.05108 0.82958 0.40573 0.0
H377 H 0.99163 0.9255 0.3387 0.0
C378 C 0.99683 0.91398 0.3183 0.0
H379 H 0.00653 0.86574 0.29485 0.0
H380 H 0.93402 0.74826 0.37472 0.0
H381 H 0.88587 0.74758 0.33713 0.0
H382 H 0.88846 0.79452 0.30025 0.0
H383 H 0.93938 0.84225 0.30061 0.0
C384 C 0.0022 0.87737 0.31532 0.0
C385 C 0.99923 0.85104 0.33893 0.0
C386 C 0.96878 0.82366 0.3387 0.0
C387 C 0.9668 0.79699 0.36025 0.0
C388 C 0.93662 0.7695 0.3591 0.0
C389 C 0.90879 0.76874 0.33762 0.0
C390 C 0.91028 0.79513 0.31684 0.0
C391 C 0.93981 0.82232 0.31726 0.0
loop_
_geom_bond_atom_site_label_1
_geom_bond_atom_site_label_2
_geom_bond_distance
_geom_bond_site_symmetry_2
_ccdc_geom_bond_type
H0 C27 0.929 . S
N1 C26 1.421 1_556 S
N1 C32 1.444 . S
N1 C38 1.425 . S
H2 C28 0.930 . S
H3 C31 0.931 . S
H4 C30 0.929 . S
H5 C33 0.930 . S
H6 C34 0.932 . S
H7 C37 0.929 . S
H8 C36 0.931 . S
H9 C39 0.929 . S
H10 C43 0.932 1_565 S
H11 C40 0.931 . S
H12 C42 0.929 1_565 S
H13 C45 0.929 . S
H14 C46 0.930 . S
H15 C48 0.929 . S
H16 C49 0.931 . S
H17 C51 0.930 . S
H18 C52 0.932 . S
H19 C54 0.931 . S
H20 C55 0.929 . S
H21 C57 0.929 . S
H22 C58 0.931 . S
H23 C60 0.929 1_565 S
N24 C44 1.421 1_556 S
N24 C50 1.444 . S
N24 C56 1.425 . S
H25 C61 0.932 1_565 S
C26 N1 1.421 1_554 S
C26 C27 1.363 . S
C26 C31 1.370 1_545 S
C27 H0 0.929 . S
C27 C26 1.363 . S
C27 C28 1.385 . S
C28 H2 0.930 . S
C28 C27 1.385 . S
C28 C29 1.357 . S
C29 C28 1.357 . S
C29 C30 1.406 1_545 S
C30 H4 0.929 . S
C30 C29 1.406 1_565 S
C30 C31 1.391 . S
C31 H3 0.931 . S
C31 C26 1.370 1_565 S
C31 C30 1.391 . S
C32 N1 1.444 . S
C32 C33 1.358 1_545 S
C32 C37 1.371 . S
C33 H5 0.930 . S
C33 C32 1.358 1_565 S
C33 C34 1.405 . S
C34 H6 0.932 . S
C34 C33 1.405 . S
C34 C35 1.383 1_565 S
C35 C34 1.383 1_545 S
C35 C36 1.393 . S
C36 H8 0.931 . S
C36 C35 1.393 . S
C36 C37 1.382 . S
C37 H7 0.929 . S
C37 C32 1.371 . S
C37 C36 1.382 . S
C38 N1 1.425 . S
C38 C39 1.362 1_556 S
C38 C43 1.388 . S
C39 H9 0.929 . S
C39 C38 1.362 1_554 S
C39 C40 1.376 . S
C40 H11 0.931 . S
C40 C39 1.376 . S
C40 C41 1.396 1_554 S
C41 C40 1.396 1_556 S
C41 C42 1.348 . S
C41 C59 1.472 . S
C42 H12 0.929 1_545 S
C42 C41 1.348 . S
C42 C43 1.443 . S
C43 H10 0.932 1_545 S
C43 C38 1.388 . S
C43 C42 1.443 . S
C44 N24 1.421 1_554 S
C44 C45 1.363 . S
C44 C49 1.370 1_545 S
C45 H13 0.929 . S
C45 C44 1.363 . S
C45 C46 1.385 . S
C46 H14 0.930 . S
C46 C45 1.385 . S
C46 C47 1.357 . S
C47 C46 1.357 . S
C47 C48 1.406 1_545 S
C48 H15 0.929 . S
C48 C47 1.406 1_565 S
C48 C49 1.391 . S
C49 H16 0.931 . S
C49 C44 1.370 1_565 S
C49 C48 1.391 . S
C50 N24 1.444 . S
C50 C51 1.358 1_545 S
C50 C55 1.371 . S
C51 H17 0.930 . S
C51 C50 1.358 1_565 S
C51 C52 1.405 . S
C52 H18 0.932 . S
C52 C51 1.405 . S
C52 C53 1.383 1_565 S
C53 C52 1.383 1_545 S
C53 C54 1.393 . S
C54 H19 0.931 . S
C54 C53 1.393 . S
C54 C55 1.382 . S
C55 H20 0.929 . S
C55 C50 1.371 . S
C55 C54 1.382 . S
C56 N24 1.425 . S
C56 C57 1.362 1_556 S
C56 C61 1.388 . S
C57 H21 0.929 . S
C57 C56 1.362 1_554 S
C57 C58 1.376 . S
C58 H22 0.931 . S
C58 C57 1.376 . S
C58 C59 1.396 1_554 S
C59 C41 1.472 . S
C59 C58 1.396 1_556 S
C59 C60 1.348 . S
C60 H23 0.929 1_545 S
C60 C59 1.348 . S
C60 C61 1.443 . S
C61 H25 0.932 1_545 S
C61 C56 1.388 . S
C61 C60 1.443 . S
H62 C89 0.929 . S
N63 C88 1.433 . S
N63 C94 1.435 . S
N63 C100 1.423 . S
H64 C90 0.930 . S
H65 C93 0.931 . S
H66 C92 0.929 . S
H67 C95 0.930 . S
H68 C96 0.932 . S
H69 C99 0.929 . S
H70 C98 0.931 . S
H71 C101 0.929 . S
H72 C105 0.932 1_455 S
H73 C102 0.931 . S
H74 C104 0.929 1_455 S
H75 C107 0.929 . S
H76 C108 0.930 . S
H77 C110 0.929 . S
H78 C111 0.931 . S
H79 C113 0.930 . S
H80 C114 0.932 . S
H81 C116 0.931 . S
H82 C117 0.929 . S
H83 C119 0.929 . S
H84 C120 0.931 . S
H85 C122 0.929 1_455 S
N86 C106 1.433 . S
N86 C112 1.435 . S
N86 C118 1.423 . S
H87 C123 0.932 1_455 S
C88 N63 1.433 . S
C88 C89 1.363 . S
C88 C93 1.370 1_655 S
C89 H62 0.929 . S
C89 C88 1.363 . S
C89 C90 1.385 . S
C90 H64 0.930 . S
C90 C89 1.385 . S
C90 C91 1.357 . S
C91 C90 1.357 . S
C91 C92 1.406 1_655 S
C92 H66 0.929 . S
C92 C91 1.406 1_455 S
C92 C93 1.391 . S
C93 H65 0.931 . S
C93 C88 1.370 1_455 S
C93 C92 1.391 . S
C94 N63 1.435 . S
C94 C95 1.358 1_655 S
C94 C99 1.371 . S
C95 H67 0.930 . S
C95 C94 1.358 1_455 S
C95 C96 1.405 . S
C96 H68 0.932 . S
C96 C95 1.405 . S
C96 C97 1.383 1_455 S
C97 C96 1.383 1_655 S
C97 C98 1.393 . S
C98 H70 0.931 . S
C98 C97 1.393 . S
C98 C99 1.382 . S
C99 H69 0.929 . S
C99 C94 1.371 . S
C99 C98 1.382 . S
C100 N63 1.423 . S
C100 C101 1.362 . S
C100 C105 1.388 . S
C101 H71 0.929 . S
C101 C100 1.362 . S
C101 C102 1.376 . S
C102 H73 0.931 . S
C102 C101 1.376 . S
C102 C103 1.396 . S
C103 C102 1.396 . S
C103 C104 1.348 . S
C103 C121 1.472 . S
C104 H74 0.929 1_655 S
C104 C103 1.348 . S
C104 C105 1.443 . S
C105 H72 0.932 1_655 S
C105 C100 1.388 . S
C105 C104 1.443 . S
C106 N86 1.433 . S
C106 C107 1.363 . S
C106 C111 1.370 1_655 S
C107 H75 0.929 . S
C107 C106 1.363 . S
C107 C108 1.385 . S
C108 H76 0.930 . S
C108 C107 1.385 . S
C108 C109 1.357 . S
C109 C108 1.357 . S
C109 C110 1.406 1_655 S
C110 H77 0.929 . S
C110 C109 1.406 1_455 S
C110 C111 1.391 . S
C111 H78 0.931 . S
C111 C106 1.370 1_455 S
C111 C110 1.391 . S
C112 N86 1.435 . S
C112 C113 1.358 1_655 S
C112 C117 1.371 . S
C113 H79 0.930 . S
C113 C112 1.358 1_455 S
C113 C114 1.405 . S
C114 H80 0.932 . S
C114 C113 1.405 . S
C114 C115 1.383 1_455 S
C115 C114 1.383 1_655 S
C115 C116 1.393 . S
C116 H81 0.931 . S
C116 C115 1.393 . S
C116 C117 1.382 . S
C117 H82 0.929 . S
C117 C112 1.371 . S
C117 C116 1.382 . S
C118 N86 1.423 . S
C118 C119 1.362 . S
C118 C123 1.388 . S
C119 H83 0.929 . S
C119 C118 1.362 . S
C119 C120 1.376 . S
C120 H84 0.931 . S
C120 C119 1.376 . S
C120 C121 1.396 . S
C121 C103 1.472 . S
C121 C120 1.396 . S
C121 C122 1.348 . S
C122 H85 0.929 1_655 S
C122 C121 1.348 . S
C122 C123 1.443 . S
C123 H87 0.932 1_655 S
C123 C118 1.388 . S
C123 C122 1.443 . S
O124 Cd125 2.223 1_655 S
O124 C132 1.315 . S
Cd125 O124 2.223 1_455 S
Cd125 O128 2.297 1_455 S
Cd125 O129 2.439 1_455 S
Cd125 O135 2.240 1_565 S
Cd126 O127 2.240 1_545 S
Cd126 O134 2.223 1_655 S
Cd126 O136 2.297 1_655 S
Cd126 O137 2.439 1_655 S
O127 Cd126 2.240 1_565 S
O127 C132 1.279 . S
O128 Cd125 2.297 1_655 S
O128 C130 1.247 . S
O129 Cd125 2.439 1_655 S
O129 C130 1.208 . S
C130 O128 1.247 . S
C130 O129 1.208 . S
C131 O136 1.247 . S
C131 O137 1.208 . S
C132 O124 1.315 . S
C132 O127 1.279 . S
C133 O134 1.315 . S
C133 O135 1.279 . S
O134 Cd126 2.223 1_455 S
O134 C133 1.315 . S
O135 Cd125 2.240 1_545 S
O135 C133 1.279 . S
O136 Cd126 2.297 1_455 S
O136 C131 1.247 . S
O137 Cd126 2.439 1_455 S
O137 C131 1.208 . S
O138 Cd139 2.223 1_655 S
O138 C146 1.315 . S
Cd139 O138 2.223 1_455 S
Cd139 O142 2.297 1_455 S
Cd139 O143 2.439 1_455 S
Cd139 O149 2.240 1_545 S
Cd140 O141 2.240 1_565 S
Cd140 O148 2.223 1_655 S
Cd140 O150 2.297 1_655 S
Cd140 O151 2.439 1_655 S
O141 Cd140 2.240 1_545 S
O141 C146 1.279 . S
O142 Cd139 2.297 1_655 S
O142 C144 1.247 . S
O143 Cd139 2.439 1_655 S
O143 C144 1.208 . S
C144 O142 1.247 . S
C144 O143 1.208 . S
C145 O150 1.247 . S
C145 O151 1.208 . S
C146 O138 1.315 . S
C146 O141 1.279 . S
C147 O148 1.315 . S
C147 O149 1.279 . S
O148 Cd140 2.223 1_455 S
O148 C147 1.315 . S
O149 Cd139 2.240 1_565 S
O149 C147 1.279 . S
O150 Cd140 2.297 1_455 S
O150 C145 1.247 . S
O151 Cd140 2.439 1_455 S
O151 C145 1.208 . S
H152 C153 0.948 1_565 S
C153 H152 0.948 1_545 S
C153 C159 1.265 . S
H154 C159 0.950 . S
H155 C163 0.949 . S
H156 C164 0.950 . S
H157 C165 0.951 . S
H158 C166 0.951 . S
C159 C153 1.265 . S
C159 H154 0.950 . S
C159 C160 1.478 . S
C160 C159 1.478 . S
C160 C161 1.397 . S
C160 C177 1.394 1_545 S
C161 C160 1.397 . S
C161 C162 1.438 . S
C161 C166 1.429 . S
C162 C161 1.438 . S
C162 C163 1.428 . S
C162 C175 1.394 . S
C163 H155 0.949 . S
C163 C162 1.428 . S
C163 C164 1.345 . S
C164 H156 0.950 . S
C164 C163 1.345 . S
C164 C165 1.424 . S
C165 H157 0.951 . S
C165 C164 1.424 . S
C165 C166 1.347 . S
C166 H158 0.951 . S
C166 C161 1.429 . S
C166 C165 1.347 . S
H167 C168 0.951 . S
C168 H167 0.951 . S
C168 C174 1.265 . S
H169 C174 0.950 . S
H170 C178 0.949 . S
H171 C179 0.950 . S
H172 C180 0.951 . S
H173 C181 0.951 . S
C174 C168 1.265 . S
C174 H169 0.950 . S
C174 C175 1.478 . S
C175 C162 1.394 . S
C175 C174 1.478 . S
C175 C176 1.397 1_545 S
C176 C175 1.397 1_565 S
C176 C177 1.438 . S
C176 C181 1.429 . S
C177 C160 1.394 1_565 S
C177 C176 1.438 . S
C177 C178 1.428 . S
C178 H170 0.949 . S
C178 C177 1.428 . S
C178 C179 1.345 . S
C179 H171 0.950 . S
C179 C178 1.345 . S
C179 C180 1.424 . S
C180 H172 0.951 . S
C180 C179 1.424 . S
C180 C181 1.347 . S
C181 H173 0.951 . S
C181 C176 1.429 . S
C181 C180 1.347 . S
H182 C183 0.951 . S
C183 H182 0.951 . S
C183 C189 1.265 1_655 S
H184 C189 0.950 . S
H185 C193 0.949 . S
H186 C194 0.950 . S
H187 C195 0.951 . S
H188 C196 0.951 . S
C189 C183 1.265 1_455 S
C189 H184 0.950 . S
C189 C190 1.478 1_455 S
C190 C189 1.478 1_655 S
C190 C191 1.397 1_655 S
C190 C207 1.394 . S
C191 C190 1.397 1_455 S
C191 C192 1.438 1_455 S
C191 C196 1.429 . S
C192 C191 1.438 1_655 S
C192 C193 1.428 . S
C192 C205 1.394 . S
C193 H185 0.949 . S
C193 C192 1.428 . S
C193 C194 1.345 1_655 S
C194 H186 0.950 . S
C194 C193 1.345 1_455 S
C194 C195 1.424 . S
C195 H187 0.951 . S
C195 C194 1.424 . S
C195 C196 1.347 . S
C196 H188 0.951 . S
C196 C191 1.429 . S
C196 C195 1.347 . S
H197 C198 0.951 1_455 S
C198 H197 0.951 1_655 S
C198 C204 1.265 . S
H199 C204 0.950 . S
H200 C208 0.949 . S
H201 C209 0.950 . S
H202 C210 0.951 . S
H203 C211 0.951 . S
C204 C198 1.265 . S
C204 H199 0.950 . S
C204 C205 1.478 . S
C205 C192 1.394 . S
C205 C204 1.478 . S
C205 C206 1.397 . S
C206 C205 1.397 . S
C206 C207 1.438 . S
C206 C211 1.429 . S
C207 C190 1.394 . S
C207 C206 1.438 . S
C207 C208 1.428 . S
C208 H200 0.949 . S
C208 C207 1.428 . S
C208 C209 1.345 . S
C209 H201 0.950 . S
C209 C208 1.345 . S
C209 C210 1.424 . S
C210 H202 0.951 . S
C210 C209 1.424 . S
C210 C211 1.347 . S
C211 H203 0.951 . S
C211 C206 1.429 . S
C211 C210 1.347 . S
H212 C213 0.950 1_545 S
C213 H212 0.950 1_565 S
C213 C219 1.265 . S
H214 C219 0.950 . S
H215 C223 0.949 . S
H216 C224 0.950 . S
H217 C225 0.951 . S
H218 C226 0.951 . S
C219 C213 1.265 . S
C219 H214 0.950 . S
C219 C220 1.478 . S
C220 C219 1.478 . S
C220 C221 1.397 . S
C220 C237 1.394 1_565 S
C221 C220 1.397 . S
C221 C222 1.438 . S
C221 C226 1.429 . S
C222 C221 1.438 . S
C222 C223 1.428 . S
C222 C235 1.394 . S
C223 H215 0.949 . S
C223 C222 1.428 . S
C223 C224 1.345 . S
C224 H216 0.950 . S
C224 C223 1.345 . S
C224 C225 1.424 . S
C225 H217 0.951 . S
C225 C224 1.424 . S
C225 C226 1.347 . S
C226 H218 0.951 . S
C226 C221 1.429 . S
C226 C225 1.347 . S
H227 C228 0.951 . S
C228 H227 0.951 . S
C228 C234 1.265 . S
H229 C234 0.950 . S
H230 C238 0.949 . S
H231 C239 0.950 . S
H232 C240 0.951 . S
H233 C241 0.951 . S
C234 C228 1.265 . S
C234 H229 0.950 . S
C234 C235 1.478 . S
C235 C222 1.394 . S
C235 C234 1.478 . S
C235 C236 1.397 1_565 S
C236 C235 1.397 1_545 S
C236 C237 1.438 . S
C236 C241 1.429 . S
C237 C220 1.394 1_545 S
C237 C236 1.438 . S
C237 C238 1.428 . S
C238 H230 0.949 . S
C238 C237 1.428 . S
C238 C239 1.345 . S
C239 H231 0.950 . S
C239 C238 1.345 . S
C239 C240 1.424 . S
C240 H232 0.951 . S
C240 C239 1.424 . S
C240 C241 1.347 . S
C241 H233 0.951 . S
C241 C236 1.429 . S
C241 C240 1.347 . S
H242 C243 0.974 . S
C243 H242 0.974 . S
C243 C249 1.247 1_655 S
H244 C249 0.950 . S
H245 C253 0.949 . S
H246 C254 0.950 . S
H247 C255 0.951 . S
H248 C256 0.951 . S
C249 C243 1.247 1_455 S
C249 H244 0.950 . S
C249 C250 1.478 . S
C250 C249 1.478 . S
C250 C251 1.397 . S
C250 C267 1.394 1_455 S
C251 C250 1.397 . S
C251 C252 1.438 . S
C251 C256 1.429 . S
C252 C251 1.438 . S
C252 C253 1.428 . S
C252 C265 1.394 . S
C253 H245 0.949 . S
C253 C252 1.428 . S
C253 C254 1.345 . S
C254 H246 0.950 . S
C254 C253 1.345 . S
C254 C255 1.424 . S
C255 H247 0.951 . S
C255 C254 1.424 . S
C255 C256 1.347 . S
C256 H248 0.951 . S
C256 C251 1.429 . S
C256 C255 1.347 . S
H257 C258 0.951 . S
C258 H257 0.951 . S
C258 C264 1.265 . S
H259 C264 0.950 1_655 S
H260 C268 0.949 . S
H261 C269 0.950 . S
H262 C270 0.951 . S
H263 C271 0.951 . S
C264 C258 1.265 . S
C264 H259 0.950 1_455 S
C264 C265 1.478 . S
C265 C252 1.394 . S
C265 C264 1.478 . S
C265 C266 1.397 1_455 S
C266 C265 1.397 1_655 S
C266 C267 1.438 . S
C266 C271 1.429 . S
C267 C250 1.394 1_655 S
C267 C266 1.438 . S
C267 C268 1.428 . S
C268 H260 0.949 . S
C268 C267 1.428 . S
C268 C269 1.345 . S
C269 H261 0.950 . S
C269 C268 1.345 . S
C269 C270 1.424 . S
C270 H262 0.951 . S
C270 C269 1.424 . S
C270 C271 1.347 . S
C271 H263 0.951 . S
C271 C266 1.429 . S
C271 C270 1.347 . S
H272 C273 0.951 . S
C273 H272 0.951 . S
C273 C279 1.265 . S
H274 C279 0.950 1_545 S
H275 C283 0.949 . S
H276 C284 0.950 . S
H277 C285 0.951 . S
H278 C286 0.951 . S
C279 C273 1.265 . S
C279 H274 0.950 1_565 S
C279 C280 1.478 . S
C280 C279 1.478 . S
C280 C281 1.397 . S
C280 C297 1.394 1_565 S
C281 C280 1.397 . S
C281 C282 1.438 . S
C281 C286 1.429 . S
C282 C281 1.438 . S
C282 C283 1.428 . S
C282 C295 1.394 . S
C283 H275 0.949 . S
C283 C282 1.428 . S
C283 C284 1.345 . S
C284 H276 0.950 . S
C284 C283 1.345 . S
C284 C285 1.424 . S
C285 H277 0.951 . S
C285 C284 1.424 . S
C285 C286 1.347 . S
C286 H278 0.951 . S
C286 C281 1.429 . S
C286 C285 1.347 . S
H287 C288 0.951 . S
C288 H287 0.951 . S
C288 C294 1.265 . S
H289 C294 0.950 . S
H290 C298 0.949 . S
H291 C299 0.950 . S
H292 C300 0.951 . S
H293 C301 0.951 . S
C294 C288 1.265 . S
C294 H289 0.950 . S
C294 C295 1.478 . S
C295 C282 1.394 . S
C295 C294 1.478 . S
C295 C296 1.397 1_565 S
C296 C295 1.397 1_545 S
C296 C297 1.438 . S
C296 C301 1.429 . S
C297 C280 1.394 1_545 S
C297 C296 1.438 . S
C297 C298 1.428 . S
C298 H290 0.949 . S
C298 C297 1.428 . S
C298 C299 1.345 . S
C299 H291 0.950 . S
C299 C298 1.345 . S
C299 C300 1.424 . S
C300 H292 0.951 . S
C300 C299 1.424 . S
C300 C301 1.347 . S
C301 H293 0.951 . S
C301 C296 1.429 . S
C301 C300 1.347 . S
H302 C303 0.951 . S
C303 H302 0.951 . S
C303 C309 1.265 1_455 S
H304 C309 0.950 . S
H305 C313 0.949 . S
H306 C314 0.950 . S
H307 C315 0.951 . S
H308 C316 0.951 . S
C309 C303 1.265 1_655 S
C309 H304 0.950 . S
C309 C310 1.478 1_655 S
C310 C309 1.478 1_455 S
C310 C311 1.397 . S
C310 C327 1.394 1_455 S
C311 C310 1.397 . S
C311 C312 1.438 . S
C311 C316 1.429 . S
C312 C311 1.438 . S
C312 C313 1.428 . S
C312 C325 1.394 . S
C313 H305 0.949 . S
C313 C312 1.428 . S
C313 C314 1.345 . S
C314 H306 0.950 . S
C314 C313 1.345 . S
C314 C315 1.424 . S
C315 H307 0.951 . S
C315 C314 1.424 . S
C315 C316 1.347 . S
C316 H308 0.951 . S
C316 C311 1.429 . S
C316 C315 1.347 . S
H317 C318 0.951 . S
C318 H317 0.951 . S
C318 C324 1.265 . S
H319 C324 0.950 . S
H320 C328 0.949 . S
H321 C329 0.950 . S
H322 C330 0.951 . S
H323 C331 0.951 . S
C324 C318 1.265 . S
C324 H319 0.950 . S
C324 C325 1.478 . S
C325 C312 1.394 . S
C325 C324 1.478 . S
C325 C326 1.397 1_455 S
C326 C325 1.397 1_655 S
C326 C327 1.438 . S
C326 C331 1.429 . S
C327 C310 1.394 1_655 S
C327 C326 1.438 . S
C327 C328 1.428 . S
C328 H320 0.949 . S
C328 C327 1.428 . S
C328 C329 1.345 . S
C329 H321 0.950 . S
C329 C328 1.345 . S
C329 C330 1.424 . S
C330 H322 0.951 . S
C330 C329 1.424 . S
C330 C331 1.347 . S
C331 H323 0.951 . S
C331 C326 1.429 . S
C331 C330 1.347 . S
H332 C333 0.951 . S
C333 H332 0.951 . S
C333 C339 1.266 . S
H334 C339 0.945 1_565 S
H335 C343 0.949 . S
H336 C344 0.950 . S
H337 C345 0.951 . S
H338 C346 0.951 . S
C339 C333 1.266 . S
C339 H334 0.945 1_545 S
C339 C340 1.481 . S
C340 C339 1.481 . S
C340 C341 1.397 1_545 S
C340 C357 1.394 . S
C341 C340 1.397 1_565 S
C341 C342 1.438 . S
C341 C346 1.429 . S
C342 C341 1.438 . S
C342 C343 1.428 . S
C342 C355 1.394 1_565 S
C343 H335 0.949 . S
C343 C342 1.428 . S
C343 C344 1.345 . S
C344 H336 0.950 . S
C344 C343 1.345 . S
C344 C345 1.424 . S
C345 H337 0.951 . S
C345 C344 1.424 . S
C345 C346 1.347 . S
C346 H338 0.951 . S
C346 C341 1.429 . S
C346 C345 1.347 . S
H347 C348 0.951 . S
C348 H347 0.951 . S
C348 C354 1.265 . S
H349 C354 0.950 . S
H350 C358 0.949 . S
H351 C359 0.950 . S
H352 C360 0.951 . S
H353 C361 0.951 . S
C354 C348 1.265 . S
C354 H349 0.950 . S
C354 C355 1.478 . S
C355 C342 1.394 1_545 S
C355 C354 1.478 . S
C355 C356 1.397 . S
C356 C355 1.397 . S
C356 C357 1.438 . S
C356 C361 1.429 . S
C357 C340 1.394 . S
C357 C356 1.438 . S
C357 C358 1.428 . S
C358 H350 0.949 . S
C358 C357 1.428 . S
C358 C359 1.345 . S
C359 H351 0.950 . S
C359 C358 1.345 . S
C359 C360 1.424 . S
C360 H352 0.951 . S
C360 C359 1.424 . S
C360 C361 1.347 . S
C361 H353 0.951 . S
C361 C356 1.429 . S
C361 C360 1.347 . S
H362 C363 0.951 . S
C363 H362 0.951 . S
C363 C369 1.265 1_455 S
H364 C369 0.950 . S
H365 C373 0.949 . S
H366 C374 0.950 . S
H367 C375 0.951 . S
H368 C376 0.951 . S
C369 C363 1.265 1_655 S
C369 H364 0.950 . S
C369 C370 1.478 . S
C370 C369 1.478 . S
C370 C371 1.397 . S
C370 C387 1.394 . S
C371 C370 1.397 . S
C371 C372 1.438 . S
C371 C376 1.429 . S
C372 C371 1.438 . S
C372 C373 1.428 . S
C372 C385 1.394 . S
C373 H365 0.949 . S
C373 C372 1.428 . S
C373 C374 1.345 . S
C374 H366 0.950 . S
C374 C373 1.345 . S
C374 C375 1.424 . S
C375 H367 0.951 . S
C375 C374 1.424 . S
C375 C376 1.347 . S
C376 H368 0.951 . S
C376 C371 1.429 . S
C376 C375 1.347 . S
H377 C378 0.951 . S
C378 H377 0.951 . S
C378 C384 1.265 . S
H379 C384 0.950 1_455 S
H380 C388 0.949 1_655 S
H381 C389 0.950 . S
H382 C390 0.951 . S
H383 C391 0.951 . S
C384 C378 1.265 . S
C384 H379 0.950 1_655 S
C384 C385 1.478 . S
C385 C372 1.394 . S
C385 C384 1.478 . S
C385 C386 1.397 . S
C386 C385 1.397 . S
C386 C387 1.438 . S
C386 C391 1.429 1_655 S
C387 C370 1.394 . S
C387 C386 1.438 . S
C387 C388 1.428 1_655 S
C388 H380 0.949 1_455 S
C388 C387 1.428 1_455 S
C388 C389 1.345 . S
C389 H381 0.950 . S
C389 C388 1.345 . S
C389 C390 1.424 . S
C390 H382 0.951 . S
C390 C389 1.424 . S
C390 C391 1.347 . S
C391 H383 0.951 . S
C391 C386 1.429 1_455 S
C391 C390 1.347 . S
C168 C133 1.819 . S
C153 C47 1.683 . S
C198 C144 1.719 . S
C183 C109 1.687 . S
C228 C132 1.819 . S
C213 C29 1.698 1_565 S
C258 C145 1.767 . S
C243 C91 1.698 . S
C288 C147 1.568 . S
C273 C53 1.545 1_565 S
C318 C131 1.374 . S
C303 C115 1.442 1_455 S
C348 C146 1.569 . S
C333 C35 1.573 . S
C363 C97 1.481 1_455 S
C378 C130 1.470 . S
