# Generated by pormake.
# Topology pyr, (3,6)-cn, num edge types: 1
# Building blocks:
#     Node 0, Type 0, BuildingBlock: ESEHIV_clean_linker_0, # of connection points: 3
#     Node 1, Type 0, BuildingBlock: ESEHIV_clean_linker_0, # of connection points: 3
#     Node 2, Type 0, BuildingBlock: ESEHIV_clean_linker_0, # of connection points: 3
#     Node 3, Type 0, BuildingBlock: ESEHIV_clean_linker_0, # of connection points: 3
#     Node 4, Type 0, BuildingBlock: ESEHIV_clean_linker_0, # of connection points: 3
#     Node 5, Type 0, BuildingBlock: ESEHIV_clean_linker_0, # of connection points: 3
#     Node 6, Type 0, BuildingBlock: ESEHIV_clean_linker_0, # of connection points: 3
#     Node 7, Type 0, BuildingBlock: ESEHIV_clean_linker_0, # of connection points: 3
#     Node 8, Type 1, BuildingBlock: BETFAJ_clean_sbu_0, # of connection points: 6
#     Node 9, Type 1, BuildingBlock: BETFAJ_clean_sbu_0, # of connection points: 6
#     Node 10, Type 1, BuildingBlock: BETFAJ_clean_sbu_0, # of connection points: 6
#     Node 11, Type 1, BuildingBlock: BETFAJ_clean_sbu_0, # of connection points: 6
#     Edge 12, Type (0, 1), BuildingBlock: EZIPEK_clean_linker_0, # of connection points: 2
#     Edge 13, Type (0, 1), BuildingBlock: EZIPEK_clean_linker_0, # of connection points: 2
#     Edge 14, Type (0, 1), BuildingBlock: EZIPEK_clean_linker_0, # of connection points: 2
#     Edge 15, Type (0, 1), BuildingBlock: EZIPEK_clean_linker_0, # of connection points: 2
#     Edge 16, Type (0, 1), BuildingBlock: EZIPEK_clean_linker_0, # of connection points: 2
#     Edge 17, Type (0, 1), BuildingBlock: EZIPEK_clean_linker_0, # of connection points: 2
#     Edge 18, Type (0, 1), BuildingBlock: EZIPEK_clean_linker_0, # of connection points: 2
#     Edge 19, Type (0, 1), BuildingBlock: EZIPEK_clean_linker_0, # of connection points: 2
#     Edge 20, Type (0, 1), BuildingBlock: EZIPEK_clean_linker_0, # of connection points: 2
#     Edge 21, Type (0, 1), BuildingBlock: EZIPEK_clean_linker_0, # of connection points: 2
#     Edge 22, Type (0, 1), BuildingBlock: EZIPEK_clean_linker_0, # of connection points: 2
#     Edge 23, Type (0, 1), BuildingBlock: EZIPEK_clean_linker_0, # of connection points: 2
#     Edge 24, Type (0, 1), BuildingBlock: EZIPEK_clean_linker_0, # of connection points: 2
#     Edge 25, Type (0, 1), BuildingBlock: EZIPEK_clean_linker_0, # of connection points: 2
#     Edge 26, Type (0, 1), BuildingBlock: EZIPEK_clean_linker_0, # of connection points: 2
#     Edge 27, Type (0, 1), BuildingBlock: EZIPEK_clean_linker_0, # of connection points: 2
#     Edge 28, Type (0, 1), BuildingBlock: EZIPEK_clean_linker_0, # of connection points: 2
#     Edge 29, Type (0, 1), BuildingBlock: EZIPEK_clean_linker_0, # of connection points: 2
#     Edge 30, Type (0, 1), BuildingBlock: EZIPEK_clean_linker_0, # of connection points: 2
#     Edge 31, Type (0, 1), BuildingBlock: EZIPEK_clean_linker_0, # of connection points: 2
#     Edge 32, Type (0, 1), BuildingBlock: EZIPEK_clean_linker_0, # of connection points: 2
#     Edge 33, Type (0, 1), BuildingBlock: EZIPEK_clean_linker_0, # of connection points: 2
#     Edge 34, Type (0, 1), BuildingBlock: EZIPEK_clean_linker_0, # of connection points: 2
#     Edge 35, Type (0, 1), BuildingBlock: EZIPEK_clean_linker_0, # of connection points: 2
# Relax obj value: 0.224
# Max RMSD: 0.156
# Mean RMSD: 0.076
data_MOF--net-pyr--node1-BETFAJ_clean_sbu_0--node2-ESEHIV_clean_linker_0--edge1-EZIPEK_clean_linker_0
_symmetry_space_group_name_H-M    P1
_symmetry_Int_Tables_number       1
_symmetry_cell_setting            triclinic
loop_
_symmetry_equiv_pos_as_xyz
'x, y, z'
_cell_length_a     25.768258
_cell_length_b     27.552758
_cell_length_c     25.75568
_cell_angle_alpha  89.967608
_cell_angle_beta   89.044061
_cell_angle_gamma 104.03506
loop_
_atom_site_label
_atom_site_type_symbol
_atom_site_fract_x
_atom_site_fract_y
_atom_site_fract_z
_atom_type_partial_charge
H0 H 0.31954 0.34057 0.2843 0.0
H1 H 0.43294 0.25151 0.30016 0.0
H2 H 0.44218 0.34868 0.16721 0.0
C3 C 0.35609 0.33125 0.27085 0.0
C4 C 0.38066 0.35232 0.22451 0.0
C5 C 0.37487 0.29546 0.29821 0.0
C6 C 0.42036 0.28134 0.28026 0.0
C7 C 0.44167 0.29708 0.23091 0.0
C8 C 0.42489 0.33581 0.20485 0.0
H9 H 0.27857 0.98145 0.63088 0.0
H10 H 0.30729 0.83684 0.65226 0.0
H11 H 0.20254 0.86011 0.53099 0.0
C12 C 0.2729 0.9431 0.61788 0.0
C13 C 0.23833 0.92521 0.57686 0.0
C14 C 0.29378 0.91021 0.64718 0.0
C15 C 0.28897 0.86156 0.63009 0.0
C16 C 0.25742 0.84361 0.58703 0.0
C17 C 0.22996 0.87479 0.56183 0.0
H18 H 0.7156 0.35629 0.94892 0.0
H19 H 0.72314 0.47973 0.84364 0.0
H20 H 0.5967 0.34462 0.83059 0.0
C21 C 0.69976 0.37235 0.9161 0.0
C22 C 0.6531 0.34393 0.89244 0.0
C23 C 0.7256 0.42146 0.89979 0.0
C24 C 0.70399 0.44211 0.85648 0.0
C25 C 0.65782 0.4149 0.82971 0.0
C26 C 0.63261 0.36569 0.84897 0.0
H27 H 0.8338 0.76127 0.44345 0.0
H28 H 0.95318 0.77116 0.32196 0.0
H29 H 0.83068 0.63383 0.34533 0.0
C30 C 0.85066 0.74417 0.41151 0.0
C31 C 0.82592 0.69411 0.39816 0.0
C32 C 0.89701 0.7727 0.3858 0.0
C33 C 0.91826 0.74971 0.34277 0.0
C34 C 0.8946 0.69919 0.32643 0.0
C35 C 0.84878 0.67221 0.35574 0.0
H36 H 0.6878 0.87305 0.83729 0.0
H37 H 0.74557 0.75225 0.89834 0.0
H38 H 0.63007 0.80935 0.98613 0.0
C39 C 0.68449 0.84351 0.86591 0.0
C40 C 0.65164 0.84255 0.91024 0.0
C41 C 0.71927 0.81173 0.8627 0.0
C42 C 0.71656 0.77499 0.9005 0.0
C43 C 0.68722 0.77576 0.94664 0.0
C44 C 0.65243 0.80791 0.95039 0.0
H45 H 0.82671 0.31542 0.41935 0.0
H46 H 0.88384 0.18409 0.44408 0.0
H47 H 0.84846 0.26876 0.5748 0.0
C48 C 0.84253 0.29199 0.44567 0.0
C49 C 0.83744 0.29777 0.49934 0.0
C50 C 0.85806 0.25059 0.42572 0.0
C51 C 0.87443 0.21761 0.45954 0.0
C52 C 0.87111 0.22391 0.51367 0.0
C53 C 0.8544 0.26528 0.53331 0.0
H54 H 0.34825 0.77123 0.16824 0.0
H55 H 0.33078 0.65056 0.2788 0.0
H56 H 0.46488 0.77995 0.28843 0.0
C57 C 0.36263 0.75516 0.20191 0.0
C58 C 0.40996 0.78219 0.22566 0.0
C59 C 0.33347 0.70781 0.22027 0.0
C60 C 0.35284 0.68682 0.26454 0.0
C61 C 0.40045 0.712 0.29046 0.0
C62 C 0.42845 0.76003 0.27004 0.0
H63 H 0.08922 0.35704 0.79004 0.0
H64 H 0.20832 0.36526 0.66865 0.0
H65 H 0.21896 0.48992 0.77231 0.0
C66 C 0.12535 0.37753 0.77034 0.0
C67 C 0.15199 0.42653 0.78911 0.0
C68 C 0.14464 0.35514 0.72576 0.0
C69 C 0.19271 0.38211 0.70156 0.0
C70 C 0.22031 0.43072 0.71721 0.0
C71 C 0.19879 0.45247 0.76049 0.0
Sm72 Sm 1.00864 0.09205 0.51239 0.0
Sm73 Sm 0.02807 1.03994 0.59418 0.0
C74 C 1.01915 0.15424 0.43432 0.0
C75 C 0.07205 0.18677 0.42337 0.0
C76 C 0.08693 0.20733 0.3741 0.0
C77 C 0.14103 0.2283 0.36255 0.0
C78 C 0.18006 0.22856 0.40026 0.0
C79 C 0.16469 0.21022 0.45005 0.0
C80 C 0.11119 0.18924 0.46133 0.0
C81 C 0.11227 1.05367 0.49912 0.0
C82 C 0.05506 0.16089 0.61271 0.0
C83 C 0.04586 0.97613 0.66381 0.0
C84 C 1.00539 0.94481 0.69838 0.0
C85 C 0.99428 0.89239 0.69471 0.0
C86 C 0.94842 0.86269 0.71881 0.0
C87 C 0.91348 0.88539 0.74654 0.0
C88 C 0.92554 0.93744 0.75178 0.0
C89 C 0.97104 0.96696 0.72793 0.0
C90 C 0.92904 1.06393 0.60517 0.0
C91 C 0.97594 0.97262 0.49023 0.0
O92 O 0.99752 0.16305 0.47864 0.0
O93 O 1.01719 0.10677 0.42751 0.0
O94 O 0.08806 0.07707 0.53078 0.0
O95 O 0.08844 0.07732 0.53154 0.0
O96 O 1.01895 0.15576 0.5756 0.0
O97 O 0.07352 0.12083 0.62271 0.0
O98 O 0.03996 0.96509 0.61477 0.0
O99 O 0.05688 1.02429 0.67186 0.0
O100 O 0.94613 1.04657 0.56508 0.0
O101 O 0.96355 0.06665 0.64134 0.0
O102 O 1.00176 0.97329 0.5345 0.0
O103 O 0.96735 1.01556 0.47357 0.0
H104 H 0.05747 0.2046 0.34403 0.0
H105 H 0.15283 0.24167 0.32352 0.0
H106 H 0.19439 0.20916 0.47906 0.0
H107 H 0.10083 0.17202 0.499 0.0
H108 H 1.01985 0.87466 0.67148 0.0
H109 H 0.93976 0.82237 0.71526 0.0
H110 H 0.89911 0.95528 0.77375 0.0
H111 H 0.97793 1.00721 0.73098 0.0
Sm112 Sm 0.58395 0.06686 0.08089 0.0
Sm113 Sm 0.48909 1.06054 1.04408 0.0
C114 C 0.68026 0.08304 0.12233 0.0
C115 C 0.72185 0.11712 0.15132 0.0
C116 C 0.72788 0.16913 0.15041 0.0
C117 C 0.76115 0.19918 0.18632 0.0
C118 C 0.78692 0.17685 0.22393 0.0
C119 C 0.78451 0.12562 0.22145 0.0
C120 C 0.75226 0.09594 0.18516 0.0
C121 C 0.51498 0.97571 0.11664 0.0
C122 C 0.5114 0.13177 0.13633 0.0
C123 C 0.39169 1.03401 1.00538 0.0
C124 C 0.37136 1.01289 0.95517 0.0
C125 C 0.36731 0.96212 0.9441 0.0
C126 C 0.35505 0.94393 0.89425 0.0
C127 C 0.34619 0.97612 0.85519 0.0
C128 C 0.34783 1.02616 0.86641 0.0
C129 C 0.36017 1.04444 0.91624 0.0
C130 C 0.55629 0.15075 1.00442 0.0
C131 C 0.56371 1.00151 0.97945 0.0
O132 O 0.67252 0.09422 0.07439 0.0
O133 O 0.63593 1.06379 0.14779 0.0
O134 O 0.5044 1.01871 0.11715 0.0
O135 O 0.56084 0.98045 0.09342 0.0
O136 O 0.56017 0.13528 0.11831 0.0
O137 O 0.47497 0.09209 0.12343 0.0
O138 O 0.4114 1.00522 1.03551 0.0
O139 O 0.42097 0.0797 1.00405 0.0
O140 O 0.56894 0.10853 1.0069 0.0
O141 O 0.50892 0.14538 1.0243 0.0
O142 O 0.51429 1.00301 0.99002 0.0
O143 O 0.60189 1.02939 1.00671 0.0
H144 H 0.70453 0.18592 0.12437 0.0
H145 H 0.76249 0.23874 0.18818 0.0
H146 H 0.80417 0.10799 0.25026 0.0
H147 H 0.74817 1.05584 0.18596 0.0
H148 H 0.37508 0.93671 0.97342 0.0
H149 H 0.35311 0.90499 0.88593 0.0
H150 H 0.34018 1.05104 0.83645 0.0
H151 H 0.36245 0.08356 0.92394 0.0
Sm152 Sm 0.51662 0.523 0.5335 0.0
Sm153 Sm 0.53392 0.60091 0.58815 0.0
C154 C 0.52991 0.44353 0.4831 0.0
C155 C 0.58145 0.43049 0.48108 0.0
C156 C 0.62575 0.46439 0.50219 0.0
C157 C 0.67335 0.45046 0.50975 0.0
C158 C 0.67775 0.40292 0.49481 0.0
C159 C 0.63451 0.37002 0.47059 0.0
C160 C 0.58619 0.3836 0.4642 0.0
C161 C 0.42029 0.51823 0.5902 0.0
C162 C 0.57517 0.51581 0.64912 0.0
C163 C 0.51775 0.67981 0.63747 0.0
C164 C 0.46544 0.69174 0.63718 0.0
C165 C 0.42126 0.65452 0.62065 0.0
C166 C 0.37335 0.66632 0.60891 0.0
C167 C 0.36883 0.71553 0.61407 0.0
C168 C 0.41182 0.75239 0.63347 0.0
C169 C 0.46023 0.74057 0.64476 0.0
C170 C 0.62995 0.60574 0.53036 0.0
C171 C 0.47725 0.60908 0.47254 0.0
O172 O 0.52942 0.48521 0.45975 0.0
O173 O 0.50827 0.44079 0.52934 0.0
O174 O 0.46759 0.5299 0.60741 0.0
O175 O 0.42428 0.51425 0.54024 0.0
O176 O 0.5671 0.49692 0.60156 0.0
O177 O 0.56309 0.55903 0.65651 0.0
O178 O 0.51851 0.63838 0.66135 0.0
O179 O 0.54143 0.68309 0.59212 0.0
O180 O 0.58243 0.59393 0.51376 0.0
O181 O 0.62653 0.61067 0.5803 0.0
O182 O 0.48287 0.62671 0.52066 0.0
O183 O 0.49116 0.56682 0.46455 0.0
H184 H 0.62268 0.50089 0.51527 0.0
H185 H 0.70607 0.47605 0.52879 0.0
H186 H 0.63741 0.33294 0.45905 0.0
H187 H 0.55227 0.35707 0.44806 0.0
H188 H 0.42489 0.61688 0.61353 0.0
H189 H 0.34085 0.63776 0.5933 0.0
H190 H 0.40878 0.7908 0.63703 0.0
H191 H 0.4941 0.76982 0.65669 0.0
Sm192 Sm 1.02365 0.5243 0.09084 0.0
Sm193 Sm 0.03353 0.6043 1.03054 0.0
C194 C 0.04771 0.44739 0.13951 0.0
C195 C 0.09906 0.43938 0.15813 0.0
C196 C 0.10895 0.39161 0.15537 0.0
C197 C 0.1602 0.38495 0.16467 0.0
C198 C 0.20309 0.42625 0.17491 0.0
C199 C 0.19274 0.47388 0.17868 0.0
C200 C 0.14093 0.48003 0.1722 0.0
C201 C 0.97384 0.59052 0.146 0.0
C202 C 0.13613 0.61508 0.10219 0.0
C203 C 1.00774 0.68147 0.98595 0.0
C204 C 0.95673 0.69579 0.99424 0.0
C205 C 0.92629 0.67996 1.03976 0.0
C206 C 0.87538 0.68859 1.04633 0.0
C207 C 0.85407 0.71303 1.0074 0.0
C208 C 0.8846 0.72954 0.96218 0.0
C209 C 0.93562 0.72078 0.95552 0.0
C210 C 0.07967 0.5356 0.97361 0.0
C211 C 0.92076 0.51779 1.0193 0.0
O212 O 0.04458 0.45055 0.08929 0.0
O213 O 0.02808 0.48088 0.16328 0.0
O214 O 1.01801 0.60255 0.1198 0.0
O215 O 0.95374 0.54266 0.14027 0.0
O216 O 0.11159 0.56778 0.11033 0.0
O217 O 0.1135 0.64114 0.07076 0.0
O218 O 0.03852 0.68599 1.0262 0.0
O219 O 1.00378 0.63894 0.96244 0.0
O220 O 0.0367 0.52528 1.00149 0.0
O221 O 0.10001 0.58358 0.97744 0.0
O222 O 0.94274 0.56624 1.01784 0.0
O223 O 0.94605 0.48914 1.04478 0.0
H224 H 0.0774 0.35964 0.14462 0.0
H225 H 0.16687 0.34769 0.16192 0.0
H226 H 0.22479 0.50637 0.18671 0.0
H227 H 0.13416 0.51685 0.17716 0.0
H228 H 0.94157 0.6601 0.06991 0.0
H229 H 0.85243 0.67601 0.08149 0.0
H230 H 0.86863 0.74875 0.93187 0.0
H231 H 0.95813 0.73271 0.91994 0.0
C232 C 0.32613 0.29617 0.38112 0.0
C233 C 0.33917 0.26759 0.33949 0.0
C234 C 0.25548 0.20467 0.3544 0.0
C235 C 0.23715 0.23979 0.38526 0.0
N236 N 0.25506 0.3176 0.43229 0.0
N237 N 0.31783 0.1917 0.28833 0.0
C238 C 0.27286 0.28476 0.40102 0.0
C239 C 0.30511 0.2202 0.32767 0.0
N240 N 0.36441 0.33548 0.3993 0.0
N241 N 0.22546 0.15653 0.35084 0.0
H242 H 0.35522 0.19879 0.27028 0.0
H243 H 0.29048 0.16138 0.2725 0.0
H244 H 0.18871 0.14388 0.37012 0.0
H245 H 0.23932 0.12799 0.33311 0.0
H246 H 0.35899 0.35634 0.43175 0.0
H247 H 0.40345 0.34395 0.38414 0.0
H248 H 0.27781 0.35326 0.4409 0.0
H249 H 0.21614 0.31017 0.44747 0.0
C250 C 0.26922 0.9117 0.74075 0.0
C251 C 0.3093 0.92358 0.70103 0.0
C252 C 0.37526 0.96474 0.76399 0.0
C253 C 0.33393 0.95704 0.8024 0.0
N254 N 0.24083 0.92907 0.8274 0.0
N255 N 0.39871 0.96403 0.67233 0.0
C256 C 0.28071 0.93188 0.79091 0.0
C257 C 0.36198 0.95075 0.71193 0.0
N258 N 0.22028 0.88078 0.73062 0.0
N259 N 0.42715 0.98449 0.77767 0.0
H260 H 0.39063 0.95254 0.63409 0.0
H261 H 0.43602 0.98861 0.6766 0.0
H262 H 0.43811 0.99576 0.81543 0.0
H263 H 0.45979 0.9865 0.75272 0.0
H264 H 0.192 0.86588 0.75935 0.0
H265 H 0.2089 0.86674 0.69388 0.0
H266 H 0.20029 0.91677 0.81943 0.0
H267 H 0.2478 0.94263 0.86509 0.0
C268 C 0.65629 0.43744 0.73104 0.0
C269 C 0.63541 0.43902 0.78271 0.0
C270 C 0.57117 0.48474 0.74558 0.0
C271 C 0.59587 0.4882 0.69485 0.0
N272 N 0.66937 0.47319 0.64357 0.0
N273 N 0.57711 0.47198 0.83897 0.0
C274 C 0.6402 0.46555 0.68884 0.0
C275 C 0.59415 0.46505 0.78966 0.0
N276 N 0.69134 0.40826 0.72182 0.0
N277 N 0.52337 0.49742 0.75151 0.0
H278 H 0.59134 0.45721 0.8716 0.0
H279 H 0.55229 0.49569 0.84778 0.0
H280 H 0.50347 0.50881 0.72066 0.0
H281 H 0.50038 0.49115 0.7856 0.0
H282 H 0.70348 0.40025 0.6847 0.0
H283 H 0.70473 0.38853 0.75126 0.0
H284 H 0.7049 0.46214 0.63782 0.0
H285 H 0.66102 0.49524 0.61347 0.0
C286 C 0.96886 0.66371 0.27869 0.0
C287 C 0.91688 0.67396 0.27882 0.0
C288 C 0.90217 0.62848 0.19329 0.0
C289 C 0.95548 0.62136 0.19116 0.0
N290 N 0.04093 0.63674 0.23288 0.0
N291 N 0.83868 0.67331 0.22893 0.0
C292 C 0.98918 0.64085 0.234 0.0
C293 C 0.88498 0.65804 0.23405 0.0
N294 N 0.99807 0.67302 0.32295 0.0
N295 N 0.86691 0.60625 0.15634 0.0
H296 H 0.82534 0.69536 0.25657 0.0
H297 H 0.81632 0.6685 0.1952 0.0
H298 H 0.87792 0.58725 0.12461 0.0
H299 H 0.826 0.60388 0.15882 0.0
H300 H 0.03316 0.66158 0.32882 0.0
H301 H 0.98484 0.68861 0.35598 0.0
H302 H 0.06998 0.65577 0.2581 0.0
H303 H 0.05589 0.61627 0.20488 0.0
C304 C 0.5151 0.25319 0.21144 0.0
C305 C 0.46349 0.26003 0.20118 0.0
C306 C 0.44708 0.18819 0.14296 0.0
C307 C 0.49533 0.17619 0.15898 0.0
N308 N 0.57171 0.19463 0.21541 0.0
N309 N 0.37496 0.22493 0.16765 0.0
C310 C 0.52876 0.20828 0.19484 0.0
C311 C 0.42807 0.22512 0.16986 0.0
N312 N 0.55074 0.28945 0.23736 0.0
N313 N 0.41971 0.16637 0.10068 0.0
H314 H 0.35758 0.25003 0.18747 0.0
H315 H 0.34668 0.19605 0.15057 0.0
H316 H 0.43075 0.13963 0.07788 0.0
H317 H 0.38861 0.17917 0.08451 0.0
H318 H 0.59072 0.28907 0.24194 0.0
H319 H 0.54123 0.32224 0.25016 0.0
H320 H 0.59459 0.21426 0.24507 0.0
H321 H 0.58136 0.1609 0.20677 0.0
C322 C 0.20689 0.9677 0.50007 0.0
C323 C 0.20733 0.9589 0.55446 0.0
C324 C 0.16793 1.02932 0.56943 0.0
C325 C 0.15469 1.02968 0.5164 0.0
N326 N 0.16208 0.99849 0.42974 0.0
N327 N 0.17341 0.97403 0.63989 0.0
C328 C 0.17456 0.99875 0.48108 0.0
C329 C 0.183 0.98733 0.5889 0.0
N330 N 0.23888 0.94876 0.46697 0.0
N331 N 0.16916 0.06964 0.60047 0.0
H332 H 0.17806 0.94009 0.65457 0.0
H333 H 0.15553 0.99429 0.66585 0.0
H334 H 0.16689 0.10417 0.58533 0.0
H335 H 0.18112 0.07084 0.63905 0.0
H336 H 0.24309 0.95779 0.42759 0.0
H337 H 0.26549 0.9284 0.47968 0.0
H338 H 0.17031 0.97238 0.40357 0.0
H339 H 0.14095 1.02275 0.41409 0.0
C340 C 0.77205 0.45687 0.9848 0.0
C341 C 0.77492 0.45041 0.92974 0.0
C342 C 0.87069 0.49652 0.93321 0.0
C343 C 0.86976 0.49582 0.98874 0.0
N344 N 0.81834 0.4713 0.06731 0.0
N345 N 0.8322 0.457 0.85374 0.0
C346 C 0.82006 0.4745 1.01438 0.0
C347 C 0.82565 0.46867 0.90458 0.0
N348 N 0.72298 0.44852 1.00878 0.0
N349 N 0.91447 0.52426 0.90714 0.0
H350 H 0.80147 0.43546 0.8318 0.0
H351 H 0.86943 0.46428 0.83495 0.0
H352 H 0.94857 0.54428 0.92572 0.0
H353 H 0.91515 0.53073 0.86724 0.0
H354 H 0.7175 0.45697 1.04758 0.0
H355 H 0.68731 0.43826 0.98849 0.0
H356 H 0.78515 0.45118 0.08829 0.0
H357 H 0.85148 0.48604 0.09013 0.0
C358 C 0.77887 0.66622 0.48619 0.0
C359 C 0.77683 0.66584 0.43092 0.0
C360 C 0.6825 0.61611 0.44134 0.0
C361 C 0.68139 0.62564 0.49621 0.0
N362 N 0.73152 0.6756 0.56548 0.0
N363 N 0.71943 0.64725 0.3568 0.0
C364 C 0.73045 0.65489 0.51724 0.0
C365 C 0.72657 0.6426 0.40877 0.0
N366 N 0.82737 0.67689 0.50973 0.0
N367 N 0.64285 0.58028 0.41971 0.0
H368 H 0.74923 0.66752 0.33199 0.0
H369 H 0.68216 0.63541 0.3396 0.0
H370 H 0.61234 0.55719 0.44139 0.0
H371 H 0.64428 0.56921 0.38111 0.0
H372 H 0.83124 0.67344 0.54973 0.0
H373 H 0.86343 0.68316 0.48881 0.0
H374 H 0.76569 0.6999 0.57995 0.0
H375 H 0.6977 0.67567 0.58784 0.0
C376 C 0.34161 0.42585 0.2271 0.0
C377 C 0.35323 0.38675 0.19686 0.0
C378 C 0.27958 0.39288 0.14013 0.0
C379 C 0.25872 0.41917 0.1796 0.0
N380 N 0.26986 0.4569 0.26504 0.0
N381 N 0.33235 0.33349 0.12141 0.0
C382 C 0.29027 0.43592 0.22385 0.0
C383 C 0.32281 0.37111 0.15165 0.0
N384 N 0.37813 0.45004 0.26195 0.0
N385 N 0.25835 0.38901 0.09164 0.0
H386 H 0.36481 0.31792 0.12624 0.0
H387 H 0.30639 0.31638 0.09254 0.0
H388 H 0.22805 0.40626 0.08154 0.0
H389 H 0.27491 0.37371 0.06032 0.0
H390 H 0.37332 0.48098 0.28304 0.0
H391 H 0.41545 0.4418 0.2653 0.0
H392 H 0.29001 0.46531 0.29988 0.0
H393 H 0.23071 0.46088 0.26686 0.0
C394 C 0.6305 0.24643 0.89681 0.0
C395 C 0.62509 0.2931 0.91755 0.0
C396 C 0.58426 0.24681 0.99712 0.0
C397 C 0.58466 0.19927 0.97479 0.0
N398 N 0.60131 0.15523 0.89775 0.0
N399 N 0.58679 0.33495 0.98449 0.0
C400 C 0.60621 0.19955 0.92311 0.0
C401 C 0.59889 0.29219 0.96677 0.0
N402 N 0.66012 0.2468 0.85232 0.0
N403 N 0.5725 0.24934 1.0488 0.0
H404 H 0.59646 0.36853 0.96367 0.0
H405 H 0.56252 0.33592 1.01702 0.0
H406 H 0.5644 0.21816 0.07303 0.0
H407 H 0.5769 0.28282 0.06893 0.0
H408 H 0.67126 0.21537 0.83807 0.0
H409 H 0.67676 0.27959 0.83159 0.0
H410 H 0.61062 0.15283 0.85849 0.0
H411 H 0.58361 0.12075 0.91469 0.0
C412 C 0.8901 0.86308 0.40648 0.0
C413 C 0.92125 0.82658 0.40599 0.0
C414 C 0.99168 0.88932 0.45254 0.0
C415 C 0.9574 0.92292 0.45941 0.0
N416 N 0.86834 0.93465 0.44914 0.0
N417 N 0.99992 0.80415 0.4371 0.0
C418 C 0.90524 0.90792 0.43762 0.0
C419 C 0.97165 0.83972 0.43124 0.0
N420 N 0.84597 0.85541 0.37607 0.0
N421 N 0.04456 0.90537 0.46422 0.0
H422 H 0.98728 0.7681 0.42226 0.0
H423 H 0.03346 0.80912 0.46038 0.0
H424 H 0.06145 0.94136 0.47741 0.0
H425 H 0.07279 0.88509 0.45535 0.0
H426 H 0.82451 0.88242 0.37013 0.0
H427 H 0.83427 0.82405 0.35241 0.0
H428 H 0.8282 0.92285 0.43933 0.0
H429 H 0.87622 0.96576 0.47333 0.0
C430 C 0.23905 0.75484 0.60911 0.0
C431 C 0.25508 0.79191 0.5704 0.0
C432 C 0.32987 0.75781 0.54472 0.0
C433 C 0.32254 0.73055 0.59217 0.0
N434 N 0.26507 0.69276 0.66353 0.0
N435 N 0.29606 0.81252 0.48687 0.0
C436 C 0.27441 0.7244 0.62172 0.0
C437 C 0.29335 0.78695 0.53255 0.0
N438 N 0.19306 0.75349 0.63664 0.0
N439 N 0.37365 0.75845 0.5138 0.0
H440 H 0.26879 0.83381 0.47862 0.0
H441 H 0.32156 0.80928 0.456 0.0
H442 H 0.39987 0.73581 0.52109 0.0
H443 H 0.38459 0.78167 0.48157 0.0
H444 H 0.17784 0.72797 0.66614 0.0
H445 H 0.16888 0.77762 0.62734 0.0
H446 H 0.23204 0.68822 0.68841 0.0
H447 H 0.29087 0.67044 0.67333 0.0
C448 C 0.76786 0.82246 0.77597 0.0
C449 C 0.76903 0.82648 0.83082 0.0
C450 C 0.8667 0.85182 0.82773 0.0
C451 C 0.86513 0.85574 0.77328 0.0
N452 N 0.81503 0.84771 0.69423 0.0
N453 N 0.81949 0.8562 0.90813 0.0
C454 C 0.81593 0.84141 0.74679 0.0
C455 C 0.81848 0.84391 0.85664 0.0
N456 N 0.72124 0.80018 0.75209 0.0
N457 N 0.91452 0.85656 0.85181 0.0
H458 H 0.78516 0.85471 0.93055 0.0
H459 H 0.85443 0.87339 0.92724 0.0
H460 H 0.95082 0.86263 0.83129 0.0
H461 H 0.91743 0.84918 0.89122 0.0
H462 H 0.71895 0.79194 0.71261 0.0
H463 H 0.68542 0.78645 0.77263 0.0
H464 H 0.7799 0.84335 0.67343 0.0
H465 H 0.8498 0.85993 0.6717 0.0
C466 C 0.78559 0.21547 0.36368 0.0
C467 C 0.84114 0.23436 0.37257 0.0
C468 C 0.86171 0.22016 0.28144 0.0
C469 C 0.80606 0.20322 0.27244 0.0
N470 N 0.71436 0.19268 0.30204 0.0
N471 N 0.93172 0.26128 0.34009 0.0
C472 C 0.76786 0.20373 0.31258 0.0
C473 C 0.87923 0.2387 0.33142 0.0
N474 N 0.74979 0.20627 0.40454 0.0
N475 N 0.8975 0.21736 0.24247 0.0
H476 H 0.94561 0.27431 0.37657 0.0
H477 H 0.9609 0.26996 0.31087 0.0
H478 H 0.88564 0.20632 0.20486 0.0
H479 H 0.93856 0.22379 0.24769 0.0
H480 H 0.71025 0.18602 0.4013 0.0
H481 H 0.76006 0.21514 0.44287 0.0
H482 H 0.68547 0.19948 0.32791 0.0
H483 H 0.69855 0.18022 0.26615 0.0
C484 C 0.39242 0.68051 0.38697 0.0
C485 C 0.42095 0.68725 0.33819 0.0
C486 C 0.48865 0.6482 0.37954 0.0
C487 C 0.4578 0.63729 0.42683 0.0
N488 N 0.37534 0.63822 0.47146 0.0
N489 N 0.49238 0.66833 0.28702 0.0
C490 C 0.40844 0.65249 0.42933 0.0
C491 C 0.46801 0.66856 0.33449 0.0
N492 N 0.35027 0.70205 0.39338 0.0
N493 N 0.53946 0.64146 0.37816 0.0
H494 H 0.47912 0.68268 0.25362 0.0
H495 H 0.52259 0.64993 0.27977 0.0
H496 H 0.55682 0.62864 0.40999 0.0
H497 H 0.5664 0.65348 0.34751 0.0
H498 H 0.32996 0.70279 0.42849 0.0
H499 H 0.33797 0.72278 0.36417 0.0
H500 H 0.33663 0.64316 0.47433 0.0
H501 H 0.38502 0.61755 0.50216 0.0
C502 C 0.07799 0.45634 0.84418 0.0
C503 C 0.13186 0.4514 0.83829 0.0
C504 C 0.15123 0.50158 0.92067 0.0
C505 C 0.09632 0.50286 0.9289 0.0
N506 N 1.00575 0.46582 0.90223 0.0
N507 N 0.21527 0.45914 0.88214 0.0
C508 C 0.05932 0.47534 0.89194 0.0
C509 C 0.16711 0.47143 0.87972 0.0
N510 N 0.04456 0.44549 0.80299 0.0
N511 N 0.18908 0.52875 0.95263 0.0
H512 H 0.22691 0.43499 0.85572 0.0
H513 H 0.24071 0.46787 0.91358 0.0
H514 H 0.17967 0.54767 0.98509 0.0
H515 H 0.23002 0.53488 0.94508 0.0
H516 H 1.00697 0.45331 0.80258 0.0
H517 H 0.05665 0.43412 0.76714 0.0
H518 H 0.97733 0.44223 0.87947 0.0
H519 H 0.98991 0.47616 0.9366 0.0
C520 C 0.65727 0.93415 0.92229 0.0
C521 C 0.62527 0.88442 0.91901 0.0
C522 C 0.54471 0.91517 0.9366 0.0
C523 C 0.57807 0.96417 0.94313 0.0
N524 N 0.65913 1.02198 0.91496 0.0
N525 N 0.53798 0.82893 0.91017 0.0
C526 C 0.63203 0.97407 0.92642 0.0
C527 C 0.56862 0.87527 0.92223 0.0
N528 N 0.7117 0.94336 0.92527 0.0
N529 N 0.4907 0.90665 0.94395 0.0
H530 H 0.5545 0.79937 0.89923 0.0
H531 H 0.49653 0.82045 0.90734 0.0
H532 H 0.47084 0.93528 0.94357 0.0
H533 H 0.46534 0.87122 0.94871 0.0
H534 H 0.7359 0.97881 0.93252 0.0
H535 H 0.73223 0.91518 0.92636 0.0
H536 H 0.69766 1.03098 0.8988 0.0
H537 H 0.64027 1.05154 0.91596 0.0
C538 C 0.84162 0.13333 0.5394 0.0
C539 C 0.87435 0.18199 0.54889 0.0
C540 C 0.91181 0.14763 0.62271 0.0
C541 C 0.89437 0.09942 0.60095 0.0
N542 N 0.83407 1.04405 0.54476 0.0
N543 N 0.94165 0.23553 0.60168 0.0
C544 C 0.85569 0.09145 0.56172 0.0
C545 C 0.90901 0.18957 0.59198 0.0
N546 N 0.79669 0.12745 0.51039 0.0
N547 N 0.93192 0.1532 0.67155 0.0
H548 H 0.9441 0.26653 0.57773 0.0
H549 H 0.96971 0.24175 0.63107 0.0
H550 H 0.93049 0.12249 0.69573 0.0
H551 H 0.94303 0.18772 0.69003 0.0
H552 H 0.76954 0.0931 0.50525 0.0
H553 H 0.78345 0.15783 0.4967 0.0
H554 H 0.81078 1.03623 0.51171 0.0
H555 H 0.8413 1.0127 0.56339 0.0
C556 C 0.2348 0.69931 0.19809 0.0
C557 C 0.28202 0.6814 0.19233 0.0
C558 C 0.2334 0.61854 0.12914 0.0
C559 C 0.1874 0.63902 0.13186 0.0
N560 N 0.147 0.70263 0.16712 0.0
N561 N 0.32786 0.62695 0.1479 0.0
C562 C 0.18916 0.68061 0.16567 0.0
C563 C 0.28146 0.64155 0.15684 0.0
N564 N 0.2327 0.73304 0.23654 0.0
N565 N 0.23143 0.57695 0.09963 0.0
H566 H 0.36297 0.64198 0.16784 0.0
H567 H 0.33295 0.60248 0.11858 0.0
H568 H 0.19937 0.56135 0.07596 0.0
H569 H 0.26013 0.55614 0.10048 0.0
H570 H 0.19806 0.74368 0.24761 0.0
H571 H 0.26475 0.74728 0.26085 0.0
H572 H 0.1483 0.73683 0.18485 0.0
H573 H 0.11117 0.68832 0.14824 0.0
C574 C 0.32119 0.47831 0.70955 0.0
C575 C 0.27088 0.45811 0.68598 0.0
C576 C 0.31896 0.4712 0.60068 0.0
C577 C 0.36824 0.49811 0.62334 0.0
N578 N 0.40679 0.53843 0.70253 0.0
N579 N 0.22209 0.45289 0.60634 0.0
C580 C 0.36651 0.50504 0.67867 0.0
C581 C 0.26996 0.4604 0.63076 0.0
N582 N 0.32713 0.47042 0.76117 0.0
N583 N 0.31803 0.45213 0.55168 0.0
H584 H 0.18578 0.44749 0.62669 0.0
H585 H 0.21933 0.45824 0.56648 0.0
H586 H 0.35196 0.45115 0.52987 0.0
H587 H 0.28345 0.42964 0.5359 0.0
H588 H 0.36418 0.48 0.77912 0.0
H589 H 0.29644 0.44948 0.78459 0.0
H590 H 0.40487 0.54763 0.74166 0.0
H591 H 0.43866 0.56158 0.68259 0.0
C592 C 0.70616 0.70197 0.98823 0.0
C593 C 0.70685 0.75316 0.99261 0.0
C594 C 0.79495 0.76927 1.03252 0.0
C595 C 0.79994 0.72229 1.01374 0.0
N596 N 0.75868 0.63968 0.98271 0.0
N597 N 0.74276 0.83194 1.0342 0.0
C598 C 0.75444 0.68665 0.9957 0.0
C599 C 0.74768 0.78515 1.0215 0.0
N600 N 0.66025 0.66973 0.97253 0.0
N601 N 0.83593 0.79864 0.05967 0.0
H602 H 0.70701 0.84265 1.03003 0.0
H603 H 0.77317 0.85991 1.04946 0.0
H604 H 0.87079 0.78742 0.06791 0.0
H605 H 0.83459 0.83246 0.07683 0.0
H606 H 0.65516 0.6312 0.96979 0.0
H607 H 0.6258 0.68233 0.96583 0.0
H608 H 0.72854 0.61311 0.96508 0.0
H609 H 0.79343 0.62752 0.9888 0.0
C610 C 0.43285 0.87949 0.22028 0.0
C611 C 0.43987 0.8328 0.20115 0.0
C612 C 0.4872 0.87922 0.12408 0.0
C613 C 0.48568 0.92687 0.14562 0.0
N614 N 0.46354 0.97038 0.22118 0.0
N615 N 0.48302 0.79086 0.13817 0.0
C616 C 0.45999 0.92638 0.19556 0.0
C617 C 0.46999 0.83374 0.15416 0.0
N618 N 0.399 0.8792 0.26169 0.0
N619 N 0.50215 0.87661 0.07322 0.0
H620 H 0.47108 0.75717 0.15861 0.0
H621 H 0.50988 0.7899 0.10773 0.0
H622 H 0.51129 0.90766 1.04871 0.0
H623 H 0.49919 0.84303 1.05359 0.0
H624 H 0.38658 0.9107 0.27383 0.0
H625 H 0.38011 0.84645 0.28147 0.0
H626 H 0.45083 0.97222 0.25957 0.0
H627 H 0.48381 1.00496 0.20619 0.0
C628 C 0.09606 0.30481 0.64867 0.0
C629 C 0.11488 0.30495 0.70046 0.0
C630 C 0.08493 0.21134 0.698 0.0
C631 C 0.07419 0.21099 0.64341 0.0
N632 N 0.07856 0.26234 0.56622 0.0
N633 N 0.13248 0.25553 0.77197 0.0
C634 C 0.08203 0.25916 0.61884 0.0
C635 C 0.11059 0.25733 0.72435 0.0
N636 N 0.08991 0.34868 0.62794 0.0
N637 N 0.06786 0.16815 0.72598 0.0
H638 H 0.1505 0.28765 0.79248 0.0
H639 H 0.13648 0.22237 0.78905 0.0
H640 H 0.04589 0.135 0.70983 0.0
H641 H 0.0697 0.16673 0.76631 0.0
H642 H 0.0709 0.35072 0.5929 0.0
H643 H 0.09832 0.3822 0.64855 0.0
H644 H 0.09069 0.29588 0.54566 0.0
H645 H 0.06839 0.23146 0.54227 0.0
C646 C 0.8178 0.38139 0.49877 0.0
C647 C 0.80392 0.33137 0.51721 0.0
C648 C 0.71597 0.34221 0.54255 0.0
C649 C 0.72471 0.38473 0.50997 0.0
N650 N 0.78506 0.44584 0.45582 0.0
N651 N 0.73474 0.26175 0.55228 0.0
C652 C 0.77637 0.40561 0.48864 0.0
C653 C 0.75212 0.31125 0.53938 0.0
N654 N 0.87015 0.40431 0.48859 0.0
N655 N 0.67228 0.33066 0.57509 0.0
H656 H 0.75742 0.23556 0.54796 0.0
H657 H 0.69511 0.24547 0.56289 0.0
H658 H 0.64539 0.35344 0.57848 0.0
H659 H 0.66652 0.3019 0.60251 0.0
H660 H 0.88308 0.44194 0.47828 0.0
H661 H 0.90084 0.38653 0.49569 0.0
H662 H 0.82083 0.45899 0.43517 0.0
H663 H 0.75527 0.46373 0.44602 0.0
loop_
_geom_bond_atom_site_label_1
_geom_bond_atom_site_label_2
_geom_bond_distance
_geom_bond_site_symmetry_2
_ccdc_geom_bond_type
H0 C3 0.931 . S
H1 C6 0.928 . S
H2 C8 0.930 . S
C3 H0 0.931 . S
C3 C4 1.413 . S
C3 C5 1.360 . S
C4 C3 1.413 . S
C4 C8 1.429 . S
C5 C3 1.360 . S
C5 C6 1.372 . S
C6 H1 0.928 . S
C6 C5 1.372 . S
C6 C7 1.404 . S
C7 C6 1.404 . S
C7 C8 1.391 . S
C8 H2 0.930 . S
C8 C4 1.429 . S
C8 C7 1.391 . S
H9 C12 0.931 . S
H10 C15 0.928 . S
H11 C17 0.930 . S
C12 H9 0.931 . S
C12 C13 1.413 . S
C12 C14 1.360 . S
C13 C12 1.413 . S
C13 C17 1.429 . S
C14 C12 1.360 . S
C14 C15 1.372 . S
C15 H10 0.928 . S
C15 C14 1.372 . S
C15 C16 1.404 . S
C16 C15 1.404 . S
C16 C17 1.391 . S
C17 H11 0.930 . S
C17 C13 1.429 . S
C17 C16 1.391 . S
H18 C21 0.931 . S
H19 C24 0.928 . S
H20 C26 0.930 . S
C21 H18 0.931 . S
C21 C22 1.413 . S
C21 C23 1.360 . S
C22 C21 1.413 . S
C22 C26 1.429 . S
C23 C21 1.360 . S
C23 C24 1.372 . S
C24 H19 0.928 . S
C24 C23 1.372 . S
C24 C25 1.404 . S
C25 C24 1.404 . S
C25 C26 1.391 . S
C26 H20 0.930 . S
C26 C22 1.429 . S
C26 C25 1.391 . S
H27 C30 0.931 . S
H28 C33 0.928 . S
H29 C35 0.930 . S
C30 H27 0.931 . S
C30 C31 1.413 . S
C30 C32 1.360 . S
C31 C30 1.413 . S
C31 C35 1.429 . S
C32 C30 1.360 . S
C32 C33 1.372 . S
C33 H28 0.928 . S
C33 C32 1.372 . S
C33 C34 1.404 . S
C34 C33 1.404 . S
C34 C35 1.391 . S
C35 H29 0.930 . S
C35 C31 1.429 . S
C35 C34 1.391 . S
H36 C39 0.931 . S
H37 C42 0.928 . S
H38 C44 0.930 . S
C39 H36 0.931 . S
C39 C40 1.413 . S
C39 C41 1.360 . S
C40 C39 1.413 . S
C40 C44 1.429 . S
C41 C39 1.360 . S
C41 C42 1.372 . S
C42 H37 0.928 . S
C42 C41 1.372 . S
C42 C43 1.404 . S
C43 C42 1.404 . S
C43 C44 1.391 . S
C44 H38 0.930 . S
C44 C40 1.429 . S
C44 C43 1.391 . S
H45 C48 0.931 . S
H46 C51 0.928 . S
H47 C53 0.930 . S
C48 H45 0.931 . S
C48 C49 1.413 . S
C48 C50 1.360 . S
C49 C48 1.413 . S
C49 C53 1.429 . S
C50 C48 1.360 . S
C50 C51 1.372 . S
C51 H46 0.928 . S
C51 C50 1.372 . S
C51 C52 1.404 . S
C52 C51 1.404 . S
C52 C53 1.391 . S
C53 H47 0.930 . S
C53 C49 1.429 . S
C53 C52 1.391 . S
H54 C57 0.931 . S
H55 C60 0.928 . S
H56 C62 0.930 . S
C57 H54 0.931 . S
C57 C58 1.413 . S
C57 C59 1.360 . S
C58 C57 1.413 . S
C58 C62 1.429 . S
C59 C57 1.360 . S
C59 C60 1.372 . S
C60 H55 0.928 . S
C60 C59 1.372 . S
C60 C61 1.404 . S
C61 C60 1.404 . S
C61 C62 1.391 . S
C62 H56 0.930 . S
C62 C58 1.429 . S
C62 C61 1.391 . S
H63 C66 0.931 . S
H64 C69 0.928 . S
H65 C71 0.930 . S
C66 H63 0.931 . S
C66 C67 1.413 . S
C66 C68 1.360 . S
C67 C66 1.413 . S
C67 C71 1.429 . S
C68 C66 1.360 . S
C68 C69 1.372 . S
C69 H64 0.928 . S
C69 C68 1.372 . S
C69 C70 1.404 . S
C70 C69 1.404 . S
C70 C71 1.391 . S
C71 H65 0.930 . S
C71 C67 1.429 . S
C71 C70 1.391 . S
Sm72 C74 2.846 . S
Sm72 O92 2.543 . S
Sm72 O93 2.450 . S
Sm72 O94 2.681 1_545 S
Sm72 O95 2.464 1_545 S
Sm72 O96 2.396 . S
Sm72 O100 2.386 1_455 S
Sm72 O103 2.408 1_445 S
Sm73 C83 2.846 . S
Sm73 O94 2.386 1_655 S
Sm73 O97 2.408 1_665 S
Sm73 O98 2.543 . S
Sm73 O99 2.450 . S
Sm73 O100 2.681 1_565 S
Sm73 O101 2.464 1_565 S
Sm73 O102 2.396 . S
C74 Sm72 2.846 . S
C74 C75 1.506 . S
C74 O92 1.261 . S
C74 O93 1.242 . S
C75 C74 1.506 . S
C75 C76 1.358 . S
C75 C80 1.382 . S
C76 C75 1.358 . S
C76 C77 1.385 . S
C76 H104 0.930 . S
C77 C76 1.385 . S
C77 C78 1.395 . S
C77 H105 0.929 . S
C78 C77 1.395 . S
C78 C79 1.335 . S
C79 C78 1.335 . S
C79 C80 1.398 . S
C79 H106 0.930 . S
C80 C75 1.382 . S
C80 C79 1.398 . S
C80 H107 0.929 . S
C81 O94 1.271 . S
C81 O95 1.251 . S
C82 O96 1.252 . S
C82 O97 1.272 . S
C83 Sm73 2.846 . S
C83 C84 1.506 . S
C83 O98 1.261 . S
C83 O99 1.242 . S
C84 C83 1.506 . S
C84 C85 1.358 . S
C84 C89 1.382 . S
C85 C84 1.358 . S
C85 C86 1.385 . S
C85 H108 0.930 . S
C86 C85 1.385 . S
C86 C87 1.395 . S
C86 H109 0.929 . S
C87 C86 1.395 . S
C87 C88 1.335 . S
C88 C87 1.335 . S
C88 C89 1.398 . S
C88 H110 0.930 . S
C89 C84 1.382 . S
C89 C88 1.398 . S
C89 H111 0.929 . S
C90 O100 1.271 . S
C90 O101 1.251 . S
C91 O102 1.252 . S
C91 O103 1.272 . S
O92 Sm72 2.543 . S
O92 C74 1.261 . S
O93 Sm72 2.450 . S
O93 C74 1.242 . S
O94 Sm72 2.681 1_565 S
O94 Sm73 2.386 1_455 S
O94 C81 1.271 . S
O95 Sm72 2.464 1_565 S
O95 C81 1.251 . S
O96 Sm72 2.396 . S
O96 C82 1.252 . S
O97 Sm73 2.408 1_445 S
O97 C82 1.272 . S
O98 Sm73 2.543 . S
O98 C83 1.261 . S
O99 Sm73 2.450 . S
O99 C83 1.242 . S
O100 Sm72 2.386 1_655 S
O100 Sm73 2.681 1_545 S
O100 C90 1.271 . S
O101 Sm73 2.464 1_545 S
O101 C90 1.251 . S
O102 Sm73 2.396 . S
O102 C91 1.252 . S
O103 Sm72 2.408 1_665 S
O103 C91 1.272 . S
H104 C76 0.930 . S
H105 C77 0.929 . S
H106 C79 0.930 . S
H107 C80 0.929 . S
H108 C85 0.930 . S
H109 C86 0.929 . S
H110 C88 0.930 . S
H111 C89 0.929 . S
Sm112 C114 2.846 1_565 S
Sm112 O132 2.543 1_565 S
Sm112 O133 2.450 1_565 S
Sm112 O134 2.681 . S
Sm112 O135 2.464 . S
Sm112 O136 2.396 1_565 S
Sm112 O140 2.386 1_564 S
Sm112 O143 2.408 1_554 S
Sm113 C123 2.846 1_545 S
Sm113 O134 2.386 1_546 S
Sm113 O137 2.408 1_556 S
Sm113 O138 2.543 1_545 S
Sm113 O139 2.450 1_545 S
Sm113 O140 2.681 . S
Sm113 O141 2.464 . S
Sm113 O142 2.396 1_545 S
C114 Sm112 2.846 1_545 S
C114 C115 1.506 . S
C114 O132 1.261 . S
C114 O133 1.242 . S
C115 C114 1.506 . S
C115 C116 1.358 . S
C115 C120 1.382 . S
C116 C115 1.358 . S
C116 C117 1.385 . S
C116 H144 0.930 . S
C117 C116 1.385 . S
C117 C118 1.395 . S
C117 H145 0.929 . S
C118 C117 1.395 . S
C118 C119 1.335 . S
C119 C118 1.335 . S
C119 C120 1.398 . S
C119 H146 0.930 . S
C120 C115 1.382 . S
C120 C119 1.398 . S
C120 H147 0.929 . S
C121 O134 1.271 . S
C121 O135 1.251 . S
C122 O136 1.252 . S
C122 O137 1.272 . S
C123 Sm113 2.846 1_565 S
C123 C124 1.506 . S
C123 O138 1.261 . S
C123 O139 1.242 . S
C124 C123 1.506 . S
C124 C125 1.358 . S
C124 C129 1.382 . S
C125 C124 1.358 . S
C125 C126 1.385 . S
C125 H148 0.930 . S
C126 C125 1.385 . S
C126 C127 1.395 . S
C126 H149 0.929 . S
C127 C126 1.395 . S
C127 C128 1.335 . S
C128 C127 1.335 . S
C128 C129 1.398 . S
C128 H150 0.930 . S
C129 C124 1.382 . S
C129 C128 1.398 . S
C129 H151 0.929 . S
C130 O140 1.271 . S
C130 O141 1.251 . S
C131 O142 1.252 . S
C131 O143 1.272 . S
O132 Sm112 2.543 1_545 S
O132 C114 1.261 . S
O133 Sm112 2.450 1_545 S
O133 C114 1.242 . S
O134 Sm112 2.681 . S
O134 Sm113 2.386 1_564 S
O134 C121 1.271 . S
O135 Sm112 2.464 . S
O135 C121 1.251 . S
O136 Sm112 2.396 1_545 S
O136 C122 1.252 . S
O137 Sm113 2.408 1_554 S
O137 C122 1.272 . S
O138 Sm113 2.543 1_565 S
O138 C123 1.261 . S
O139 Sm113 2.450 1_565 S
O139 C123 1.242 . S
O140 Sm112 2.386 1_546 S
O140 Sm113 2.681 . S
O140 C130 1.271 . S
O141 Sm113 2.464 . S
O141 C130 1.251 . S
O142 Sm113 2.396 1_565 S
O142 C131 1.252 . S
O143 Sm112 2.408 1_556 S
O143 C131 1.272 . S
H144 C116 0.930 . S
H145 C117 0.929 . S
H146 C119 0.930 . S
H147 C120 0.929 . S
H148 C125 0.930 . S
H149 C126 0.929 . S
H150 C128 0.930 . S
H151 C129 0.929 . S
Sm152 C154 2.846 . S
Sm152 O172 2.543 . S
Sm152 O173 2.450 . S
Sm152 O174 2.681 . S
Sm152 O175 2.464 . S
Sm152 O176 2.396 . S
Sm152 O180 2.386 . S
Sm152 O183 2.408 . S
Sm153 C163 2.846 . S
Sm153 O174 2.386 . S
Sm153 O177 2.408 . S
Sm153 O178 2.543 . S
Sm153 O179 2.450 . S
Sm153 O180 2.681 . S
Sm153 O181 2.464 . S
Sm153 O182 2.396 . S
C154 Sm152 2.846 . S
C154 C155 1.506 . S
C154 O172 1.261 . S
C154 O173 1.242 . S
C155 C154 1.506 . S
C155 C156 1.358 . S
C155 C160 1.382 . S
C156 C155 1.358 . S
C156 C157 1.385 . S
C156 H184 0.930 . S
C157 C156 1.385 . S
C157 C158 1.395 . S
C157 H185 0.929 . S
C158 C157 1.395 . S
C158 C159 1.335 . S
C159 C158 1.335 . S
C159 C160 1.398 . S
C159 H186 0.930 . S
C160 C155 1.382 . S
C160 C159 1.398 . S
C160 H187 0.929 . S
C161 O174 1.271 . S
C161 O175 1.251 . S
C162 O176 1.252 . S
C162 O177 1.272 . S
C163 Sm153 2.846 . S
C163 C164 1.506 . S
C163 O178 1.261 . S
C163 O179 1.242 . S
C164 C163 1.506 . S
C164 C165 1.358 . S
C164 C169 1.382 . S
C165 C164 1.358 . S
C165 C166 1.385 . S
C165 H188 0.930 . S
C166 C165 1.385 . S
C166 C167 1.395 . S
C166 H189 0.929 . S
C167 C166 1.395 . S
C167 C168 1.335 . S
C168 C167 1.335 . S
C168 C169 1.398 . S
C168 H190 0.930 . S
C169 C164 1.382 . S
C169 C168 1.398 . S
C169 H191 0.929 . S
C170 O180 1.271 . S
C170 O181 1.251 . S
C171 O182 1.252 . S
C171 O183 1.272 . S
O172 Sm152 2.543 . S
O172 C154 1.261 . S
O173 Sm152 2.450 . S
O173 C154 1.242 . S
O174 Sm152 2.681 . S
O174 Sm153 2.386 . S
O174 C161 1.271 . S
O175 Sm152 2.464 . S
O175 C161 1.251 . S
O176 Sm152 2.396 . S
O176 C162 1.252 . S
O177 Sm153 2.408 . S
O177 C162 1.272 . S
O178 Sm153 2.543 . S
O178 C163 1.261 . S
O179 Sm153 2.450 . S
O179 C163 1.242 . S
O180 Sm152 2.386 . S
O180 Sm153 2.681 . S
O180 C170 1.271 . S
O181 Sm153 2.464 . S
O181 C170 1.251 . S
O182 Sm153 2.396 . S
O182 C171 1.252 . S
O183 Sm152 2.408 . S
O183 C171 1.272 . S
H184 C156 0.930 . S
H185 C157 0.929 . S
H186 C159 0.930 . S
H187 C160 0.929 . S
H188 C165 0.930 . S
H189 C166 0.929 . S
H190 C168 0.930 . S
H191 C169 0.929 . S
Sm192 C194 2.846 . S
Sm192 O212 2.543 . S
Sm192 O213 2.450 . S
Sm192 O214 2.681 1_455 S
Sm192 O215 2.464 1_455 S
Sm192 O216 2.396 . S
Sm192 O220 2.386 1_554 S
Sm192 O223 2.408 1_454 S
Sm193 C203 2.858 . S
Sm193 O214 2.389 1_556 S
Sm193 O217 2.396 1_656 S
Sm193 O218 2.556 . S
Sm193 O219 2.458 . S
Sm193 O220 2.673 1_655 S
Sm193 O221 2.457 1_655 S
Sm193 O222 2.403 . S
C194 Sm192 2.846 . S
C194 C195 1.506 . S
C194 O212 1.261 . S
C194 O213 1.242 . S
C195 C194 1.506 . S
C195 C196 1.358 . S
C195 C200 1.382 . S
C196 C195 1.358 . S
C196 C197 1.385 . S
C196 H224 0.930 . S
C197 C196 1.385 . S
C197 C198 1.395 . S
C197 H225 0.929 . S
C198 C197 1.395 . S
C198 C199 1.335 . S
C199 C198 1.335 . S
C199 C200 1.398 . S
C199 H226 0.930 . S
C200 C195 1.382 . S
C200 C199 1.398 . S
C200 H227 0.929 . S
C201 O214 1.271 . S
C201 O215 1.251 . S
C202 O216 1.252 . S
C202 O217 1.272 . S
C203 Sm193 2.858 . S
C203 C204 1.506 . S
C203 O218 1.261 . S
C203 O219 1.242 . S
C204 C203 1.506 . S
C204 C205 1.358 . S
C204 C209 1.382 . S
C205 C204 1.358 . S
C205 C206 1.385 . S
C205 H228 0.930 . S
C206 C205 1.385 . S
C206 C207 1.395 . S
C206 H229 0.929 . S
C207 C206 1.395 . S
C207 C208 1.335 . S
C208 C207 1.335 . S
C208 C209 1.398 . S
C208 H230 0.930 . S
C209 C204 1.382 . S
C209 C208 1.398 . S
C209 H231 0.929 . S
C210 O220 1.271 . S
C210 O221 1.251 . S
C211 O222 1.252 . S
C211 O223 1.272 . S
O212 Sm192 2.543 . S
O212 C194 1.261 . S
O213 Sm192 2.450 . S
O213 C194 1.242 . S
O214 Sm192 2.681 1_655 S
O214 Sm193 2.389 1_554 S
O214 C201 1.271 . S
O215 Sm192 2.464 1_655 S
O215 C201 1.251 . S
O216 Sm192 2.396 . S
O216 C202 1.252 . S
O217 Sm193 2.396 1_454 S
O217 C202 1.272 . S
O218 Sm193 2.556 . S
O218 C203 1.261 . S
O219 Sm193 2.458 . S
O219 C203 1.242 . S
O220 Sm192 2.386 1_556 S
O220 Sm193 2.673 1_455 S
O220 C210 1.271 . S
O221 Sm193 2.457 1_455 S
O221 C210 1.251 . S
O222 Sm193 2.403 . S
O222 C211 1.252 . S
O223 Sm192 2.408 1_656 S
O223 C211 1.272 . S
H224 C196 0.930 . S
H225 C197 0.929 . S
H226 C199 0.930 . S
H227 C200 0.929 . S
H228 C205 0.930 . S
H229 C206 0.929 . S
H230 C208 0.930 . S
H231 C209 0.929 . S
C232 C233 1.363 . S
C232 C238 1.379 . S
C232 N240 1.356 . S
C233 C232 1.363 . S
C233 C239 1.363 . S
C234 C235 1.363 . S
C234 C239 1.379 . S
C234 N241 1.356 . S
C235 C234 1.363 . S
C235 C238 1.363 . S
N236 C238 1.356 . S
N236 H248 0.984 . S
N236 H249 0.985 . S
N237 C239 1.356 . S
N237 H242 0.984 . S
N237 H243 0.985 . S
C238 C232 1.379 . S
C238 C235 1.363 . S
C238 N236 1.356 . S
C239 C233 1.363 . S
C239 C234 1.379 . S
C239 N237 1.356 . S
N240 C232 1.356 . S
N240 H246 0.984 . S
N240 H247 0.984 . S
N241 C234 1.356 . S
N241 H244 0.984 . S
N241 H245 0.985 . S
H242 N237 0.984 . S
H243 N237 0.985 . S
H244 N241 0.984 . S
H245 N241 0.985 . S
H246 N240 0.984 . S
H247 N240 0.984 . S
H248 N236 0.984 . S
H249 N236 0.985 . S
C250 C251 1.363 . S
C250 C256 1.379 . S
C250 N258 1.356 . S
C251 C250 1.363 . S
C251 C257 1.363 . S
C252 C253 1.363 . S
C252 C257 1.379 . S
C252 N259 1.356 . S
C253 C252 1.363 . S
C253 C256 1.363 . S
N254 C256 1.356 . S
N254 H266 0.984 . S
N254 H267 0.985 . S
N255 C257 1.356 . S
N255 H260 0.984 . S
N255 H261 0.985 . S
C256 C250 1.379 . S
C256 C253 1.363 . S
C256 N254 1.356 . S
C257 C251 1.363 . S
C257 C252 1.379 . S
C257 N255 1.356 . S
N258 C250 1.356 . S
N258 H264 0.984 . S
N258 H265 0.984 . S
N259 C252 1.356 . S
N259 H262 0.984 . S
N259 H263 0.985 . S
H260 N255 0.984 . S
H261 N255 0.985 . S
H262 N259 0.984 . S
H263 N259 0.985 . S
H264 N258 0.984 . S
H265 N258 0.984 . S
H266 N254 0.984 . S
H267 N254 0.985 . S
C268 C269 1.363 . S
C268 C274 1.379 . S
C268 N276 1.356 . S
C269 C268 1.363 . S
C269 C275 1.363 . S
C270 C271 1.363 . S
C270 C275 1.379 . S
C270 N277 1.356 . S
C271 C270 1.363 . S
C271 C274 1.363 . S
N272 C274 1.356 . S
N272 H284 0.984 . S
N272 H285 0.985 . S
N273 C275 1.356 . S
N273 H278 0.984 . S
N273 H279 0.985 . S
C274 C268 1.379 . S
C274 C271 1.363 . S
C274 N272 1.356 . S
C275 C269 1.363 . S
C275 C270 1.379 . S
C275 N273 1.356 . S
N276 C268 1.356 . S
N276 H282 0.984 . S
N276 H283 0.984 . S
N277 C270 1.356 . S
N277 H280 0.984 . S
N277 H281 0.985 . S
H278 N273 0.984 . S
H279 N273 0.985 . S
H280 N277 0.984 . S
H281 N277 0.985 . S
H282 N276 0.984 . S
H283 N276 0.984 . S
H284 N272 0.984 . S
H285 N272 0.985 . S
C286 C287 1.363 . S
C286 C292 1.379 . S
C286 N294 1.356 . S
C287 C286 1.363 . S
C287 C293 1.363 . S
C288 C289 1.363 . S
C288 C293 1.379 . S
C288 N295 1.356 . S
C289 C288 1.363 . S
C289 C292 1.363 . S
N290 C292 1.356 1_455 S
N290 H302 0.984 . S
N290 H303 0.985 . S
N291 C293 1.356 . S
N291 H296 0.984 . S
N291 H297 0.985 . S
C292 C286 1.379 . S
C292 C289 1.363 . S
C292 N290 1.356 1_655 S
C293 C287 1.363 . S
C293 C288 1.379 . S
C293 N291 1.356 . S
N294 C286 1.356 . S
N294 H300 0.984 . S
N294 H301 0.984 . S
N295 C288 1.356 . S
N295 H298 0.984 . S
N295 H299 0.985 . S
H296 N291 0.984 . S
H297 N291 0.985 . S
H298 N295 0.984 . S
H299 N295 0.985 . S
H300 N294 0.984 . S
H301 N294 0.984 . S
H302 N290 0.984 . S
H303 N290 0.985 . S
C304 C305 1.363 . S
C304 C310 1.379 . S
C304 N312 1.356 . S
C305 C304 1.363 . S
C305 C311 1.363 . S
C306 C307 1.363 . S
C306 C311 1.379 . S
C306 N313 1.356 . S
C307 C306 1.363 . S
C307 C310 1.363 . S
N308 C310 1.356 . S
N308 H320 0.984 . S
N308 H321 0.985 . S
N309 C311 1.356 . S
N309 H314 0.984 . S
N309 H315 0.985 . S
C310 C304 1.379 . S
C310 C307 1.363 . S
C310 N308 1.356 . S
C311 C305 1.363 . S
C311 C306 1.379 . S
C311 N309 1.356 . S
N312 C304 1.356 . S
N312 H318 0.984 . S
N312 H319 0.984 . S
N313 C306 1.356 . S
N313 H316 0.984 . S
N313 H317 0.985 . S
H314 N309 0.984 . S
H315 N309 0.985 . S
H316 N313 0.984 . S
H317 N313 0.985 . S
H318 N312 0.984 . S
H319 N312 0.984 . S
H320 N308 0.984 . S
H321 N308 0.985 . S
C322 C323 1.363 . S
C322 C328 1.379 . S
C322 N330 1.356 . S
C323 C322 1.363 . S
C323 C329 1.363 . S
C324 C325 1.363 . S
C324 C329 1.379 . S
C324 N331 1.356 . S
C325 C324 1.363 . S
C325 C328 1.363 . S
N326 C328 1.356 . S
N326 H338 0.984 . S
N326 H339 0.985 . S
N327 C329 1.356 . S
N327 H332 0.984 . S
N327 H333 0.985 . S
C328 C322 1.379 . S
C328 C325 1.363 . S
C328 N326 1.356 . S
C329 C323 1.363 . S
C329 C324 1.379 . S
C329 N327 1.356 . S
N330 C322 1.356 . S
N330 H336 0.984 . S
N330 H337 0.984 . S
N331 C324 1.356 . S
N331 H334 0.984 . S
N331 H335 0.985 . S
H332 N327 0.984 . S
H333 N327 0.985 . S
H334 N331 0.984 . S
H335 N331 0.985 . S
H336 N330 0.984 . S
H337 N330 0.984 . S
H338 N326 0.984 . S
H339 N326 0.985 . S
C340 C341 1.363 . S
C340 C346 1.379 . S
C340 N348 1.356 . S
C341 C340 1.363 . S
C341 C347 1.363 . S
C342 C343 1.363 . S
C342 C347 1.379 . S
C342 N349 1.356 . S
C343 C342 1.363 . S
C343 C346 1.363 . S
N344 C346 1.356 1_554 S
N344 H356 0.984 . S
N344 H357 0.985 . S
N345 C347 1.356 . S
N345 H350 0.984 . S
N345 H351 0.985 . S
C346 C340 1.379 . S
C346 C343 1.363 . S
C346 N344 1.356 1_556 S
C347 C341 1.363 . S
C347 C342 1.379 . S
C347 N345 1.356 . S
N348 C340 1.356 . S
N348 H354 0.984 . S
N348 H355 0.984 . S
N349 C342 1.356 . S
N349 H352 0.984 . S
N349 H353 0.985 . S
H350 N345 0.984 . S
H351 N345 0.985 . S
H352 N349 0.984 . S
H353 N349 0.985 . S
H354 N348 0.984 . S
H355 N348 0.984 . S
H356 N344 0.984 . S
H357 N344 0.985 . S
C358 C359 1.363 . S
C358 C364 1.379 . S
C358 N366 1.356 . S
C359 C358 1.363 . S
C359 C365 1.363 . S
C360 C361 1.363 . S
C360 C365 1.379 . S
C360 N367 1.356 . S
C361 C360 1.363 . S
C361 C364 1.363 . S
N362 C364 1.356 . S
N362 H374 0.984 . S
N362 H375 0.985 . S
N363 C365 1.356 . S
N363 H368 0.984 . S
N363 H369 0.985 . S
C364 C358 1.379 . S
C364 C361 1.363 . S
C364 N362 1.356 . S
C365 C359 1.363 . S
C365 C360 1.379 . S
C365 N363 1.356 . S
N366 C358 1.356 . S
N366 H372 0.984 . S
N366 H373 0.984 . S
N367 C360 1.356 . S
N367 H370 0.984 . S
N367 H371 0.985 . S
H368 N363 0.984 . S
H369 N363 0.985 . S
H370 N367 0.984 . S
H371 N367 0.985 . S
H372 N366 0.984 . S
H373 N366 0.984 . S
H374 N362 0.984 . S
H375 N362 0.985 . S
C376 C377 1.363 . S
C376 C382 1.379 . S
C376 N384 1.356 . S
C377 C376 1.363 . S
C377 C383 1.363 . S
C378 C379 1.363 . S
C378 C383 1.379 . S
C378 N385 1.356 . S
C379 C378 1.363 . S
C379 C382 1.363 . S
N380 C382 1.356 . S
N380 H392 0.984 . S
N380 H393 0.985 . S
N381 C383 1.356 . S
N381 H386 0.984 . S
N381 H387 0.985 . S
C382 C376 1.379 . S
C382 C379 1.363 . S
C382 N380 1.356 . S
C383 C377 1.363 . S
C383 C378 1.379 . S
C383 N381 1.356 . S
N384 C376 1.356 . S
N384 H390 0.984 . S
N384 H391 0.984 . S
N385 C378 1.356 . S
N385 H388 0.984 . S
N385 H389 0.985 . S
H386 N381 0.984 . S
H387 N381 0.985 . S
H388 N385 0.984 . S
H389 N385 0.985 . S
H390 N384 0.984 . S
H391 N384 0.984 . S
H392 N380 0.984 . S
H393 N380 0.985 . S
C394 C395 1.363 . S
C394 C400 1.379 . S
C394 N402 1.356 . S
C395 C394 1.363 . S
C395 C401 1.363 . S
C396 C397 1.363 . S
C396 C401 1.379 . S
C396 N403 1.356 . S
C397 C396 1.363 . S
C397 C400 1.363 . S
N398 C400 1.356 . S
N398 H410 0.984 . S
N398 H411 0.985 . S
N399 C401 1.356 . S
N399 H404 0.984 . S
N399 H405 0.985 . S
C400 C394 1.379 . S
C400 C397 1.363 . S
C400 N398 1.356 . S
C401 C395 1.363 . S
C401 C396 1.379 . S
C401 N399 1.356 . S
N402 C394 1.356 . S
N402 H408 0.984 . S
N402 H409 0.984 . S
N403 C396 1.356 . S
N403 H406 0.984 . S
N403 H407 0.985 . S
H404 N399 0.984 . S
H405 N399 0.985 . S
H406 N403 0.984 . S
H407 N403 0.985 . S
H408 N402 0.984 . S
H409 N402 0.984 . S
H410 N398 0.984 . S
H411 N398 0.985 . S
C412 C413 1.363 . S
C412 C418 1.379 . S
C412 N420 1.356 . S
C413 C412 1.363 . S
C413 C419 1.363 . S
C414 C415 1.363 . S
C414 C419 1.379 . S
C414 N421 1.356 . S
C415 C414 1.363 . S
C415 C418 1.363 . S
N416 C418 1.356 . S
N416 H428 0.984 . S
N416 H429 0.985 . S
N417 C419 1.356 . S
N417 H422 0.984 . S
N417 H423 0.985 . S
C418 C412 1.379 . S
C418 C415 1.363 . S
C418 N416 1.356 . S
C419 C413 1.363 . S
C419 C414 1.379 . S
C419 N417 1.356 . S
N420 C412 1.356 . S
N420 H426 0.984 . S
N420 H427 0.984 . S
N421 C414 1.356 . S
N421 H424 0.984 . S
N421 H425 0.985 1_655 S
H422 N417 0.984 . S
H423 N417 0.985 . S
H424 N421 0.984 . S
H425 N421 0.985 1_455 S
H426 N420 0.984 . S
H427 N420 0.984 . S
H428 N416 0.984 . S
H429 N416 0.985 . S
C430 C431 1.363 . S
C430 C436 1.379 . S
C430 N438 1.356 . S
C431 C430 1.363 . S
C431 C437 1.363 . S
C432 C433 1.363 . S
C432 C437 1.379 . S
C432 N439 1.356 . S
C433 C432 1.363 . S
C433 C436 1.363 . S
N434 C436 1.356 . S
N434 H446 0.984 . S
N434 H447 0.985 . S
N435 C437 1.356 . S
N435 H440 0.984 . S
N435 H441 0.985 . S
C436 C430 1.379 . S
C436 C433 1.363 . S
C436 N434 1.356 . S
C437 C431 1.363 . S
C437 C432 1.379 . S
C437 N435 1.356 . S
N438 C430 1.356 . S
N438 H444 0.984 . S
N438 H445 0.984 . S
N439 C432 1.356 . S
N439 H442 0.984 . S
N439 H443 0.985 . S
H440 N435 0.984 . S
H441 N435 0.985 . S
H442 N439 0.984 . S
H443 N439 0.985 . S
H444 N438 0.984 . S
H445 N438 0.984 . S
H446 N434 0.984 . S
H447 N434 0.985 . S
C448 C449 1.363 . S
C448 C454 1.379 . S
C448 N456 1.356 . S
C449 C448 1.363 . S
C449 C455 1.363 . S
C450 C451 1.363 . S
C450 C455 1.379 . S
C450 N457 1.356 . S
C451 C450 1.363 . S
C451 C454 1.363 . S
N452 C454 1.356 . S
N452 H464 0.984 . S
N452 H465 0.985 . S
N453 C455 1.356 . S
N453 H458 0.984 . S
N453 H459 0.985 . S
C454 C448 1.379 . S
C454 C451 1.363 . S
C454 N452 1.356 . S
C455 C449 1.363 . S
C455 C450 1.379 . S
C455 N453 1.356 . S
N456 C448 1.356 . S
N456 H462 0.984 . S
N456 H463 0.984 . S
N457 C450 1.356 . S
N457 H460 0.984 . S
N457 H461 0.985 . S
H458 N453 0.984 . S
H459 N453 0.985 . S
H460 N457 0.984 . S
H461 N457 0.985 . S
H462 N456 0.984 . S
H463 N456 0.984 . S
H464 N452 0.984 . S
H465 N452 0.985 . S
C466 C467 1.363 . S
C466 C472 1.379 . S
C466 N474 1.356 . S
C467 C466 1.363 . S
C467 C473 1.363 . S
C468 C469 1.363 . S
C468 C473 1.379 . S
C468 N475 1.356 . S
C469 C468 1.363 . S
C469 C472 1.363 . S
N470 C472 1.356 . S
N470 H482 0.984 . S
N470 H483 0.985 . S
N471 C473 1.356 . S
N471 H476 0.984 . S
N471 H477 0.985 . S
C472 C466 1.379 . S
C472 C469 1.363 . S
C472 N470 1.356 . S
C473 C467 1.363 . S
C473 C468 1.379 . S
C473 N471 1.356 . S
N474 C466 1.356 . S
N474 H480 0.984 . S
N474 H481 0.984 . S
N475 C468 1.356 . S
N475 H478 0.984 . S
N475 H479 0.985 . S
H476 N471 0.984 . S
H477 N471 0.985 . S
H478 N475 0.984 . S
H479 N475 0.985 . S
H480 N474 0.984 . S
H481 N474 0.984 . S
H482 N470 0.984 . S
H483 N470 0.985 . S
C484 C485 1.363 . S
C484 C490 1.379 . S
C484 N492 1.356 . S
C485 C484 1.363 . S
C485 C491 1.363 . S
C486 C487 1.363 . S
C486 C491 1.379 . S
C486 N493 1.356 . S
C487 C486 1.363 . S
C487 C490 1.363 . S
N488 C490 1.356 . S
N488 H500 0.984 . S
N488 H501 0.985 . S
N489 C491 1.356 . S
N489 H494 0.984 . S
N489 H495 0.985 . S
C490 C484 1.379 . S
C490 C487 1.363 . S
C490 N488 1.356 . S
C491 C485 1.363 . S
C491 C486 1.379 . S
C491 N489 1.356 . S
N492 C484 1.356 . S
N492 H498 0.984 . S
N492 H499 0.984 . S
N493 C486 1.356 . S
N493 H496 0.984 . S
N493 H497 0.985 . S
H494 N489 0.984 . S
H495 N489 0.985 . S
H496 N493 0.984 . S
H497 N493 0.985 . S
H498 N492 0.984 . S
H499 N492 0.984 . S
H500 N488 0.984 . S
H501 N488 0.985 . S
C502 C503 1.363 . S
C502 C508 1.379 . S
C502 N510 1.356 . S
C503 C502 1.363 . S
C503 C509 1.363 . S
C504 C505 1.363 . S
C504 C509 1.379 . S
C504 N511 1.356 . S
C505 C504 1.363 . S
C505 C508 1.363 . S
N506 C508 1.356 . S
N506 H518 0.984 1_455 S
N506 H519 0.985 . S
N507 C509 1.356 . S
N507 H512 0.984 . S
N507 H513 0.985 . S
C508 C502 1.379 . S
C508 C505 1.363 . S
C508 N506 1.356 . S
C509 C503 1.363 . S
C509 C504 1.379 . S
C509 N507 1.356 . S
N510 C502 1.356 . S
N510 H516 0.984 . S
N510 H517 0.984 . S
N511 C504 1.356 . S
N511 H514 0.984 . S
N511 H515 0.985 . S
H512 N507 0.984 . S
H513 N507 0.985 . S
H514 N511 0.984 . S
H515 N511 0.985 . S
H516 N510 0.984 . S
H517 N510 0.984 . S
H518 N506 0.984 1_655 S
H519 N506 0.985 . S
C520 C521 1.363 . S
C520 C526 1.379 . S
C520 N528 1.356 . S
C521 C520 1.363 . S
C521 C527 1.363 . S
C522 C523 1.363 . S
C522 C527 1.379 . S
C522 N529 1.356 . S
C523 C522 1.363 . S
C523 C526 1.363 . S
N524 C526 1.356 . S
N524 H536 0.984 . S
N524 H537 0.985 . S
N525 C527 1.356 . S
N525 H530 0.984 . S
N525 H531 0.985 . S
C526 C520 1.379 . S
C526 C523 1.363 . S
C526 N524 1.356 . S
C527 C521 1.363 . S
C527 C522 1.379 . S
C527 N525 1.356 . S
N528 C520 1.356 . S
N528 H534 0.984 . S
N528 H535 0.984 . S
N529 C522 1.356 . S
N529 H532 0.984 . S
N529 H533 0.985 . S
H530 N525 0.984 . S
H531 N525 0.985 . S
H532 N529 0.984 . S
H533 N529 0.985 . S
H534 N528 0.984 . S
H535 N528 0.984 . S
H536 N524 0.984 . S
H537 N524 0.985 . S
C538 C539 1.363 . S
C538 C544 1.379 . S
C538 N546 1.356 . S
C539 C538 1.363 . S
C539 C545 1.363 . S
C540 C541 1.363 . S
C540 C545 1.379 . S
C540 N547 1.356 . S
C541 C540 1.363 . S
C541 C544 1.363 . S
N542 C544 1.356 . S
N542 H554 0.986 . S
N542 H555 0.985 1_545 S
N543 C545 1.356 . S
N543 H548 0.984 . S
N543 H549 0.985 . S
C544 C538 1.379 . S
C544 C541 1.363 . S
C544 N542 1.356 . S
C545 C539 1.363 . S
C545 C540 1.379 . S
C545 N543 1.356 . S
N546 C538 1.356 . S
N546 H552 0.984 . S
N546 H553 0.984 . S
N547 C540 1.356 . S
N547 H550 0.984 . S
N547 H551 0.985 . S
H548 N543 0.984 . S
H549 N543 0.985 . S
H550 N547 0.984 . S
H551 N547 0.985 . S
H552 N546 0.984 . S
H553 N546 0.984 . S
H554 N542 0.986 . S
H555 N542 0.985 1_565 S
C556 C557 1.363 . S
C556 C562 1.379 . S
C556 N564 1.356 . S
C557 C556 1.363 . S
C557 C563 1.363 . S
C558 C559 1.363 . S
C558 C563 1.379 . S
C558 N565 1.356 . S
C559 C558 1.363 . S
C559 C562 1.363 . S
N560 C562 1.356 . S
N560 H572 0.984 . S
N560 H573 0.985 . S
N561 C563 1.356 . S
N561 H566 0.984 . S
N561 H567 0.985 . S
C562 C556 1.379 . S
C562 C559 1.363 . S
C562 N560 1.356 . S
C563 C557 1.363 . S
C563 C558 1.379 . S
C563 N561 1.356 . S
N564 C556 1.356 . S
N564 H570 0.984 . S
N564 H571 0.984 . S
N565 C558 1.356 . S
N565 H568 0.984 . S
N565 H569 0.985 . S
H566 N561 0.984 . S
H567 N561 0.985 . S
H568 N565 0.984 . S
H569 N565 0.985 . S
H570 N564 0.984 . S
H571 N564 0.984 . S
H572 N560 0.984 . S
H573 N560 0.985 . S
C574 C575 1.363 . S
C574 C580 1.379 . S
C574 N582 1.356 . S
C575 C574 1.363 . S
C575 C581 1.363 . S
C576 C577 1.363 . S
C576 C581 1.379 . S
C576 N583 1.356 . S
C577 C576 1.363 . S
C577 C580 1.363 . S
N578 C580 1.356 . S
N578 H590 0.984 . S
N578 H591 0.985 . S
N579 C581 1.356 . S
N579 H584 0.984 . S
N579 H585 0.985 . S
C580 C574 1.379 . S
C580 C577 1.363 . S
C580 N578 1.356 . S
C581 C575 1.363 . S
C581 C576 1.379 . S
C581 N579 1.356 . S
N582 C574 1.356 . S
N582 H588 0.984 . S
N582 H589 0.984 . S
N583 C576 1.356 . S
N583 H586 0.984 . S
N583 H587 0.985 . S
H584 N579 0.984 . S
H585 N579 0.985 . S
H586 N583 0.984 . S
H587 N583 0.985 . S
H588 N582 0.984 . S
H589 N582 0.984 . S
H590 N578 0.984 . S
H591 N578 0.985 . S
C592 C593 1.363 . S
C592 C598 1.379 . S
C592 N600 1.356 . S
C593 C592 1.363 . S
C593 C599 1.363 . S
C594 C595 1.363 . S
C594 C599 1.379 . S
C594 N601 1.356 . S
C595 C594 1.363 . S
C595 C598 1.363 . S
N596 C598 1.356 . S
N596 H608 0.984 . S
N596 H609 0.985 . S
N597 C599 1.356 . S
N597 H602 0.984 . S
N597 H603 0.985 . S
C598 C592 1.379 . S
C598 C595 1.363 . S
C598 N596 1.356 . S
C599 C593 1.363 . S
C599 C594 1.379 . S
C599 N597 1.356 . S
N600 C592 1.356 . S
N600 H606 0.984 . S
N600 H607 0.984 . S
N601 C594 1.356 . S
N601 H604 0.984 . S
N601 H605 0.985 . S
H602 N597 0.984 . S
H603 N597 0.985 . S
H604 N601 0.984 . S
H605 N601 0.985 . S
H606 N600 0.984 . S
H607 N600 0.984 . S
H608 N596 0.984 . S
H609 N596 0.985 . S
C610 C611 1.363 . S
C610 C616 1.379 . S
C610 N618 1.356 . S
C611 C610 1.363 . S
C611 C617 1.363 . S
C612 C613 1.363 . S
C612 C617 1.379 . S
C612 N619 1.356 . S
C613 C612 1.363 . S
C613 C616 1.363 . S
N614 C616 1.356 . S
N614 H626 0.984 . S
N614 H627 0.985 . S
N615 C617 1.356 . S
N615 H620 0.984 . S
N615 H621 0.985 . S
C616 C610 1.379 . S
C616 C613 1.363 . S
C616 N614 1.356 . S
C617 C611 1.363 . S
C617 C612 1.379 . S
C617 N615 1.356 . S
N618 C610 1.356 . S
N618 H624 0.984 . S
N618 H625 0.984 . S
N619 C612 1.356 . S
N619 H622 0.984 . S
N619 H623 0.985 . S
H620 N615 0.984 . S
H621 N615 0.985 . S
H622 N619 0.984 . S
H623 N619 0.985 . S
H624 N618 0.984 . S
H625 N618 0.984 . S
H626 N614 0.984 . S
H627 N614 0.985 . S
C628 C629 1.363 . S
C628 C634 1.379 . S
C628 N636 1.356 . S
C629 C628 1.363 . S
C629 C635 1.363 . S
C630 C631 1.363 . S
C630 C635 1.379 . S
C630 N637 1.356 . S
C631 C630 1.363 . S
C631 C634 1.363 . S
N632 C634 1.356 . S
N632 H644 0.984 . S
N632 H645 0.985 . S
N633 C635 1.356 . S
N633 H638 0.984 . S
N633 H639 0.985 . S
C634 C628 1.379 . S
C634 C631 1.363 . S
C634 N632 1.356 . S
C635 C629 1.363 . S
C635 C630 1.379 . S
C635 N633 1.356 . S
N636 C628 1.356 . S
N636 H642 0.984 . S
N636 H643 0.984 . S
N637 C630 1.356 . S
N637 H640 0.984 . S
N637 H641 0.985 . S
H638 N633 0.984 . S
H639 N633 0.985 . S
H640 N637 0.984 . S
H641 N637 0.985 . S
H642 N636 0.984 . S
H643 N636 0.984 . S
H644 N632 0.984 . S
H645 N632 0.985 . S
C646 C647 1.363 . S
C646 C652 1.379 . S
C646 N654 1.356 . S
C647 C646 1.363 . S
C647 C653 1.363 . S
C648 C649 1.363 . S
C648 C653 1.379 . S
C648 N655 1.356 . S
C649 C648 1.363 . S
C649 C652 1.363 . S
N650 C652 1.356 . S
N650 H662 0.984 . S
N650 H663 0.985 . S
N651 C653 1.356 . S
N651 H656 0.984 . S
N651 H657 0.985 . S
C652 C646 1.379 . S
C652 C649 1.363 . S
C652 N650 1.356 . S
C653 C647 1.363 . S
C653 C648 1.379 . S
C653 N651 1.356 . S
N654 C646 1.356 . S
N654 H660 0.984 . S
N654 H661 0.984 . S
N655 C648 1.356 . S
N655 H658 0.984 . S
N655 H659 0.985 . S
H656 N651 0.984 . S
H657 N651 0.985 . S
H658 N655 0.984 . S
H659 N655 0.985 . S
H660 N654 0.984 . S
H661 N654 0.984 . S
H662 N650 0.984 . S
H663 N650 0.985 . S
C233 C5 1.032 . S
C235 C78 1.046 . S
C251 C14 1.013 . S
C253 C127 1.017 . S
C271 C162 2.514 . S
C269 C25 2.576 . S
C287 C34 2.532 . S
C289 C201 2.483 . S
C307 C122 2.017 . S
C305 C7 1.861 . S
C325 C81 0.720 . S
C323 C13 0.715 . S
C343 C211 1.950 . S
C341 C23 2.010 . S
C361 C170 1.801 . S
C359 C31 1.823 . S
C377 C4 1.382 . S
C379 C198 1.442 . S
C397 C130 2.350 . S
C395 C22 2.449 . S
C413 C32 2.384 . S
C415 C91 2.373 . S
C431 C16 1.065 . S
C433 C167 1.094 . S
C451 C87 1.037 . S
C449 C41 1.020 . S
C467 C50 1.021 . S
C469 C118 1.021 . S
C485 C61 2.569 . S
C487 C171 2.508 . S
C503 C67 2.540 . S
C505 C210 2.491 . S
C521 C40 1.879 . S
C523 C131 2.031 . S
C541 C90 0.698 . S
C539 C52 0.692 . S
C559 C202 1.956 . S
C557 C59 2.018 . S
C577 C161 1.801 . S
C575 C70 1.819 . S
C593 C43 1.374 . S
C595 C207 1.438 . S
C613 C121 2.360 . S
C611 C58 2.460 . S
C631 C82 2.357 . S
C629 C68 2.366 . S
C647 C49 1.074 . S
C649 C158 1.098 . S
