# Generated by pormake.
# Topology the, (3,8)-cn, num edge types: 1
# Building blocks:
#     Node 0, Type 0, BuildingBlock: BELTOD_clean_linker_0, # of connection points: 3
#     Node 1, Type 0, BuildingBlock: BELTOD_clean_linker_0, # of connection points: 3
#     Node 2, Type 0, BuildingBlock: BELTOD_clean_linker_0, # of connection points: 3
#     Node 3, Type 0, BuildingBlock: BELTOD_clean_linker_0, # of connection points: 3
#     Node 4, Type 0, BuildingBlock: BELTOD_clean_linker_0, # of connection points: 3
#     Node 5, Type 0, BuildingBlock: BELTOD_clean_linker_0, # of connection points: 3
#     Node 6, Type 0, BuildingBlock: BELTOD_clean_linker_0, # of connection points: 3
#     Node 7, Type 0, BuildingBlock: BELTOD_clean_linker_0, # of connection points: 3
#     Node 8, Type 1, BuildingBlock: GIZVER_clean_sbu_0, # of connection points: 8
#     Node 9, Type 1, BuildingBlock: GIZVER_clean_sbu_0, # of connection points: 8
#     Node 10, Type 1, BuildingBlock: GIZVER_clean_sbu_0, # of connection points: 8
#     Edge 11, Type (0, 1), BuildingBlock: OJICUG_clean_linker_0, # of connection points: 2
#     Edge 12, Type (0, 1), BuildingBlock: OJICUG_clean_linker_0, # of connection points: 2
#     Edge 13, Type (0, 1), BuildingBlock: OJICUG_clean_linker_0, # of connection points: 2
#     Edge 14, Type (0, 1), BuildingBlock: OJICUG_clean_linker_0, # of connection points: 2
#     Edge 15, Type (0, 1), BuildingBlock: OJICUG_clean_linker_0, # of connection points: 2
#     Edge 16, Type (0, 1), BuildingBlock: OJICUG_clean_linker_0, # of connection points: 2
#     Edge 17, Type (0, 1), BuildingBlock: OJICUG_clean_linker_0, # of connection points: 2
#     Edge 18, Type (0, 1), BuildingBlock: OJICUG_clean_linker_0, # of connection points: 2
#     Edge 19, Type (0, 1), BuildingBlock: OJICUG_clean_linker_0, # of connection points: 2
#     Edge 20, Type (0, 1), BuildingBlock: OJICUG_clean_linker_0, # of connection points: 2
#     Edge 21, Type (0, 1), BuildingBlock: OJICUG_clean_linker_0, # of connection points: 2
#     Edge 22, Type (0, 1), BuildingBlock: OJICUG_clean_linker_0, # of connection points: 2
#     Edge 23, Type (0, 1), BuildingBlock: OJICUG_clean_linker_0, # of connection points: 2
#     Edge 24, Type (0, 1), BuildingBlock: OJICUG_clean_linker_0, # of connection points: 2
#     Edge 25, Type (0, 1), BuildingBlock: OJICUG_clean_linker_0, # of connection points: 2
#     Edge 26, Type (0, 1), BuildingBlock: OJICUG_clean_linker_0, # of connection points: 2
#     Edge 27, Type (0, 1), BuildingBlock: OJICUG_clean_linker_0, # of connection points: 2
#     Edge 28, Type (0, 1), BuildingBlock: OJICUG_clean_linker_0, # of connection points: 2
#     Edge 29, Type (0, 1), BuildingBlock: OJICUG_clean_linker_0, # of connection points: 2
#     Edge 30, Type (0, 1), BuildingBlock: OJICUG_clean_linker_0, # of connection points: 2
#     Edge 31, Type (0, 1), BuildingBlock: OJICUG_clean_linker_0, # of connection points: 2
#     Edge 32, Type (0, 1), BuildingBlock: OJICUG_clean_linker_0, # of connection points: 2
#     Edge 33, Type (0, 1), BuildingBlock: OJICUG_clean_linker_0, # of connection points: 2
#     Edge 34, Type (0, 1), BuildingBlock: OJICUG_clean_linker_0, # of connection points: 2
# Relax obj value: 0.050
# Max RMSD: 0.141
# Mean RMSD: 0.078
data_MOF--net-the--node1-GIZVER_clean_sbu_0--node2-BELTOD_clean_linker_0--edge1-OJICUG_clean_linker_0
_symmetry_space_group_name_H-M    P1
_symmetry_Int_Tables_number       1
_symmetry_cell_setting            triclinic
loop_
_symmetry_equiv_pos_as_xyz
'x, y, z'
_cell_length_a     36.41507
_cell_length_b     34.591399
_cell_length_c     31.178106
_cell_angle_alpha  85.965314
_cell_angle_beta   95.632361
_cell_angle_gamma 105.46106
loop_
_atom_site_label
_atom_site_type_symbol
_atom_site_fract_x
_atom_site_fract_y
_atom_site_fract_z
_atom_type_partial_charge
P0 P 0.35238 0.37311 0.45297 0.0
H1 H 0.32006 0.38571 0.53111 0.0
H2 H 0.25564 0.38772 0.54504 0.0
H3 H 0.21479 0.35238 0.41502 0.0
H4 H 0.27903 0.34997 0.40155 0.0
H5 H 0.42241 0.3506 0.44743 0.0
H6 H 0.43899 0.28664 0.45668 0.0
H7 H 0.32459 0.22786 0.49116 0.0
H8 H 0.30791 0.29202 0.48079 0.0
H9 H 0.36906 0.45242 0.409 0.0
H10 H 0.34645 0.32931 0.37426 0.0
O11 O 0.38251 0.40699 0.48409 0.0
H12 H 0.37882 0.475 0.33379 0.0
H13 H 0.35721 0.35152 0.29948 0.0
C14 C 0.30439 0.36936 0.46478 0.0
C15 C 0.29712 0.37806 0.50579 0.0
C16 C 0.26033 0.3789 0.51379 0.0
C17 C 0.23037 0.37068 0.48092 0.0
C18 C 0.23727 0.35869 0.441 0.0
C19 C 0.27409 0.35792 0.43305 0.0
C20 C 0.36412 0.32604 0.46352 0.0
C21 C 0.40102 0.324 0.45736 0.0
C22 C 0.41046 0.28743 0.46287 0.0
C23 C 0.38311 0.25221 0.47493 0.0
C24 C 0.34612 0.25443 0.48153 0.0
C25 C 0.33667 0.29117 0.47586 0.0
C26 C 0.35816 0.38933 0.39734 0.0
C27 C 0.36638 0.43028 0.38519 0.0
C28 C 0.37195 0.44312 0.34221 0.0
C29 C 0.36914 0.41509 0.31062 0.0
C30 C 0.3593 0.37392 0.32281 0.0
C31 C 0.35366 0.36117 0.36575 0.0
P32 P 0.71807 0.30293 0.26863 0.0
H33 H 0.80143 0.32827 0.26645 0.0
H34 H 0.85261 0.37042 0.31174 0.0
H35 H 0.7692 0.38752 0.39326 0.0
H36 H 0.71799 0.34704 0.34599 0.0
H37 H 0.65081 0.24191 0.23887 0.0
H38 H 0.60779 0.18501 0.27443 0.0
H39 H 0.67365 0.2152 0.39621 0.0
H40 H 0.71755 0.27091 0.3599 0.0
H41 H 0.72153 0.34339 0.1826 0.0
H42 H 0.65045 0.32703 0.28858 0.0
O43 O 0.73822 0.28283 0.23314 0.0
H44 H 0.67765 0.3756 0.13845 0.0
H45 H 0.60664 0.3596 0.24489 0.0
C46 C 0.75578 0.33408 0.30304 0.0
C47 C 0.79408 0.3411 0.29405 0.0
C48 C 0.82355 0.36506 0.32039 0.0
C49 C 0.8155 0.38249 0.35665 0.0
C50 C 0.77685 0.37532 0.36541 0.0
C51 C 0.74736 0.35181 0.33859 0.0
C52 C 0.687 0.26125 0.29674 0.0
C53 C 0.65599 0.23626 0.27326 0.0
C54 C 0.63124 0.20378 0.29375 0.0
C55 C 0.63687 0.19552 0.3384 0.0
C56 C 0.6685 0.22032 0.36175 0.0
C57 C 0.69345 0.25269 0.34106 0.0
C58 C 0.6889 0.33215 0.23862 0.0
C59 C 0.6967 0.34714 0.19656 0.0
C60 C 0.6716 0.3657 0.17136 0.0
C61 C 0.63821 0.36966 0.18781 0.0
C62 C 0.63157 0.35625 0.2308 0.0
C63 C 0.65677 0.33787 0.25598 0.0
P64 P 0.74428 0.77065 0.27799 0.0
H65 H 0.77066 0.83641 0.33668 0.0
H66 H 0.73749 0.86933 0.38143 0.0
H67 H 0.62979 0.78817 0.33822 0.0
H68 H 0.66325 0.7546 0.29539 0.0
H69 H 0.79835 0.73292 0.24787 0.0
H70 H 0.84405 0.69853 0.28467 0.0
H71 H 0.81468 0.72564 0.40787 0.0
H72 H 0.76827 0.75927 0.37097 0.0
H73 H 0.70182 0.77387 0.19347 0.0
H74 H 0.71349 0.68384 0.29288 0.0
O75 O 0.76671 0.80714 0.24449 0.0
H76 H 0.65706 0.7225 0.15026 0.0
H77 H 0.66982 0.63214 0.24951 0.0
C78 C 0.71957 0.79286 0.31293 0.0
C79 C 0.73993 0.82548 0.33735 0.0
C80 C 0.72084 0.84451 0.36262 0.0
C81 C 0.68082 0.83155 0.36359 0.0
C82 C 0.66063 0.79863 0.33909 0.0
C83 C 0.6798 0.77944 0.31419 0.0
C84 C 0.77997 0.74878 0.30656 0.0
C85 C 0.80199 0.73183 0.2828 0.0
C86 C 0.82806 0.71221 0.30381 0.0
C87 C 0.83297 0.70961 0.34908 0.0
C88 C 0.81177 0.7277 0.37293 0.0
C89 C 0.78516 0.74684 0.35181 0.0
C90 C 0.71145 0.73259 0.24606 0.0
C91 C 0.69505 0.74295 0.20578 0.0
C92 C 0.66963 0.71346 0.18098 0.0
C93 C 0.65992 0.67301 0.19617 0.0
C94 C 0.67628 0.66295 0.23686 0.0
C95 C 0.70155 0.69248 0.26163 0.0
P96 P 0.28917 0.72327 0.28265 0.0
H97 H 0.29202 0.80706 0.29555 0.0
H98 H 0.33336 0.85791 0.34173 0.0
H99 H 0.39466 0.77153 0.39393 0.0
H100 H 0.35172 0.72045 0.34919 0.0
H101 H 0.26376 0.6451 0.2432 0.0
H102 H 0.29716 0.60406 0.20954 0.0
H103 H 0.40366 0.69445 0.23321 0.0
H104 H 0.37017 0.73506 0.26712 0.0
H105 H 0.21369 0.73323 0.29525 0.0
H106 H 0.27836 0.64697 0.33393 0.0
O107 O 0.27116 0.74755 0.24115 0.0
H108 H 0.15819 0.68973 0.32885 0.0
H109 H 0.2228 0.60305 0.36681 0.0
C110 C 0.31943 0.76021 0.31806 0.0
C111 C 0.31436 0.79908 0.317 0.0
C112 C 0.33828 0.82831 0.34335 0.0
C113 C 0.36791 0.81933 0.37147 0.0
C114 C 0.37207 0.7798 0.37319 0.0
C115 C 0.34776 0.75048 0.34721 0.0
C116 C 0.31465 0.69236 0.25965 0.0
C117 C 0.29443 0.65577 0.2419 0.0
C118 C 0.3135 0.6325 0.22213 0.0
C119 C 0.35324 0.64562 0.21912 0.0
C120 C 0.37323 0.68287 0.23595 0.0
C121 C 0.35408 0.70614 0.25556 0.0
C122 C 0.24977 0.69278 0.31099 0.0
C123 C 0.21595 0.70494 0.31099 0.0
C124 C 0.1843 0.68015 0.3303 0.0
C125 C 0.18593 0.64267 0.34976 0.0
C126 C 0.22044 0.63139 0.35123 0.0
C127 C 0.25222 0.65648 0.33252 0.0
P128 P 0.35315 0.67628 0.69702 0.0
H129 H 0.31683 0.66292 0.61041 0.0
H130 H 0.25106 0.63902 0.58078 0.0
H131 H 0.2126 0.63181 0.70863 0.0
H132 H 0.27954 0.65538 0.73838 0.0
H133 H 0.42126 0.73172 0.7379 0.0
H134 H 0.45396 0.80102 0.72227 0.0
H135 H 0.36822 0.8067 0.61725 0.0
H136 H 0.3332 0.73867 0.63693 0.0
H137 H 0.36246 0.598 0.72918 0.0
H138 H 0.366 0.70993 0.78422 0.0
O139 O 0.3767 0.65625 0.66511 0.0
H140 H 0.39113 0.57534 0.79721 0.0
H141 H 0.39635 0.68796 0.85208 0.0
C142 C 0.30327 0.66065 0.67668 0.0
C143 C 0.29433 0.6564 0.63221 0.0
C144 C 0.25643 0.64305 0.61517 0.0
C145 C 0.22612 0.63366 0.64212 0.0
C146 C 0.2351 0.6385 0.68686 0.0
C147 C 0.27336 0.6521 0.70395 0.0
C148 C 0.3736 0.73001 0.69004 0.0
C149 C 0.40824 0.74838 0.71303 0.0
C150 C 0.42773 0.78813 0.70301 0.0
C151 C 0.41445 0.81009 0.66783 0.0
C152 C 0.37938 0.79164 0.64509 0.0
C153 C 0.35918 0.75223 0.65623 0.0
C154 C 0.36328 0.65624 0.751 0.0
C155 C 0.36874 0.61747 0.75615 0.0
C156 C 0.38517 0.6045 0.79515 0.0
C157 C 0.39673 0.63019 0.82975 0.0
C158 C 0.38834 0.66778 0.82572 0.0
C159 C 0.37098 0.68034 0.78692 0.0
P160 P 0.33594 0.32528 0.67368 0.0
H161 H 0.40167 0.39273 0.69435 0.0
H162 H 0.43091 0.42336 0.76123 0.0
H163 H 0.35282 0.33157 0.83329 0.0
H164 H 0.32353 0.30029 0.76534 0.0
H165 H 0.33078 0.28451 0.59378 0.0
H166 H 0.35018 0.22563 0.5764 0.0
H167 H 0.37983 0.20297 0.71152 0.0
H168 H 0.35962 0.26143 0.72908 0.0
H169 H 0.28651 0.35036 0.73021 0.0
H170 H 0.27605 0.30447 0.6031 0.0
O171 O 0.35595 0.35731 0.63472 0.0
H172 H 0.22535 0.3656 0.71537 0.0
H173 H 0.21524 0.32142 0.58743 0.0
C174 C 0.35994 0.34446 0.72457 0.0
C175 C 0.39074 0.37884 0.72432 0.0
C176 C 0.40736 0.39658 0.76277 0.0
C177 C 0.39359 0.38047 0.80258 0.0
C178 C 0.36393 0.34482 0.80314 0.0
C179 C 0.34722 0.32695 0.76437 0.0
C180 C 0.34344 0.2775 0.66282 0.0
C181 C 0.34007 0.26616 0.61996 0.0
C182 C 0.35125 0.23246 0.60995 0.0
C183 C 0.36651 0.20977 0.64261 0.0
C184 C 0.36823 0.22005 0.68573 0.0
C185 C 0.35659 0.25353 0.69578 0.0
C186 C 0.28618 0.32566 0.66803 0.0
C187 C 0.27077 0.34217 0.6996 0.0
C188 C 0.23568 0.35142 0.69087 0.0
C189 C 0.21565 0.34539 0.64995 0.0
C190 C 0.22971 0.32617 0.61942 0.0
C191 C 0.2647 0.31648 0.6284 0.0
P192 P 0.74066 0.30483 0.74317 0.0
H193 H 0.75181 0.27012 0.66323 0.0
H194 H 0.71118 0.21689 0.61903 0.0
H195 H 0.62148 0.20119 0.70438 0.0
H196 H 0.66171 0.25584 0.74766 0.0
H197 H 0.81962 0.34324 0.77306 0.0
H198 H 0.87315 0.38824 0.73787 0.0
H199 H 0.80034 0.38838 0.61996 0.0
H200 H 0.74654 0.34393 0.6557 0.0
H201 H 0.72329 0.30535 0.8331 0.0
H202 H 0.70258 0.36786 0.7124 0.0
O203 O 0.76039 0.27811 0.78083 0.0
H204 H 0.69138 0.3454 0.87009 0.0
H205 H 0.67104 0.4088 0.74941 0.0
C206 C 0.70925 0.26847 0.70774 0.0
C207 C 0.723 0.25627 0.6718 0.0
C208 C 0.69994 0.2254 0.6468 0.0
C209 C 0.66315 0.2049 0.65821 0.0
C210 C 0.64975 0.21639 0.69486 0.0
C211 C 0.67255 0.24794 0.7193 0.0
C212 C 0.77936 0.33913 0.71662 0.0
C213 C 0.81513 0.35283 0.73959 0.0
C214 C 0.8457 0.37873 0.71952 0.0
C215 C 0.84114 0.39138 0.67595 0.0
C216 C 0.80494 0.37848 0.65332 0.0
C217 C 0.77417 0.35308 0.67369 0.0
C218 C 0.71543 0.3336 0.76989 0.0
C219 C 0.71196 0.3278 0.81447 0.0
C220 C 0.69392 0.35107 0.83577 0.0
C221 C 0.67878 0.38068 0.81296 0.0
C222 C 0.68204 0.38612 0.76808 0.0
C223 C 0.70017 0.3628 0.74681 0.0
P224 P 0.76906 0.74263 0.68604 0.0
H225 H 0.83553 0.78346 0.64081 0.0
H226 H 0.87394 0.76003 0.59358 0.0
H227 H 0.80014 0.63966 0.60666 0.0
H228 H 0.76076 0.66393 0.65153 0.0
H229 H 0.70446 0.76815 0.71042 0.0
H230 H 0.66296 0.8063 0.67123 0.0
H231 H 0.72129 0.80995 0.55646 0.0
H232 H 0.76173 0.77064 0.59488 0.0
H233 H 0.79726 0.70277 0.76222 0.0
H234 H 0.69034 0.69084 0.6849 0.0
O235 O 0.79888 0.77727 0.71656 0.0
H236 H 0.76547 0.65144 0.81396 0.0
H237 H 0.65777 0.64157 0.73768 0.0
C238 C 0.79624 0.72509 0.65067 0.0
C239 C 0.82764 0.75208 0.63322 0.0
C240 C 0.84944 0.73867 0.60618 0.0
C241 C 0.84045 0.69786 0.59681 0.0
C242 C 0.80771 0.67135 0.6128 0.0
C243 C 0.78553 0.68501 0.63919 0.0
C244 C 0.73579 0.766 0.65552 0.0
C245 C 0.7076 0.77613 0.67651 0.0
C246 C 0.68391 0.79776 0.65417 0.0
C247 C 0.68896 0.8105 0.61093 0.0
C248 C 0.71685 0.80001 0.58974 0.0
C249 C 0.74 0.77765 0.61185 0.0
C250 C 0.74577 0.70186 0.72098 0.0
C251 C 0.76687 0.68917 0.75654 0.0
C252 C 0.74862 0.65987 0.78607 0.0
C253 C 0.70885 0.64308 0.78064 0.0
C254 C 0.6884 0.65378 0.74302 0.0
C255 C 0.70687 0.68261 0.71315 0.0
Co256 Co 0.08059 0.47114 0.54631 0.0
Co257 Co 0.0476 0.45338 0.46782 0.0
Co258 Co 0.01178 0.5161 0.50854 0.0
O259 O 0.03009 0.46637 0.51849 0.0
H260 H 0.01108 0.44384 0.52986 0.0
O261 O 0.99496 0.56629 0.49841 0.0
Co262 Co 0.94562 0.56689 0.47219 0.0
Co263 Co 0.97939 0.57736 0.54954 0.0
H264 H 0.01491 0.58872 0.48857 0.0
O265 O 0.06093 0.40451 0.46129 0.0
O266 O 0.09729 0.4597 0.49207 0.0
O267 O 0.05317 0.49394 0.42151 0.0
O268 O 0.04998 0.54146 0.46451 0.0
O269 O 0.9726 0.48882 0.46233 0.0
O270 O 0.90151 0.57119 0.44605 0.0
O271 O 0.95689 0.61951 0.45364 0.0
O272 O 0.92755 0.51163 0.48621 0.0
O273 O 0.97325 0.49016 0.55194 0.0
O274 O 0.97113 0.53686 0.59605 0.0
O275 O 0.93165 0.5817 0.52772 0.0
O276 O 0.98043 0.62867 0.55968 0.0
C277 C 0.10807 0.43345 0.58119 0.0
C278 C 0.08535 0.54886 0.55341 0.0
C279 C 0.06081 0.53064 0.43042 0.0
C280 C 0.09371 0.42423 0.47882 0.0
C281 C 0.92107 0.60794 0.43859 0.0
C282 C 0.93717 0.48754 0.46319 0.0
C283 C 0.9628 0.5004 0.58646 0.0
C284 C 0.94496 0.61686 0.54429 0.0
O285 O 0.12507 0.47105 0.57367 0.0
O286 O 0.07274 0.41893 0.56563 0.0
O287 O 0.0497 0.54403 0.55575 0.0
O288 O 0.09623 0.52596 0.53062 0.0
Co289 Co 0.55827 0.94039 0.48176 0.0
Co290 Co 0.57939 0.97255 0.55673 0.0
Co291 Co 0.51858 0.0123 0.51128 0.0
O292 O 0.56343 0.99206 0.50341 0.0
H293 H 0.58419 0.01252 0.49187 0.0
O294 O 0.47362 0.03327 0.5183 0.0
Co295 Co 0.48135 0.08275 0.54624 0.0
Co296 Co 0.45797 0.05887 0.46708 0.0
H297 H 0.45242 0.01254 0.52856 0.0
O298 O 0.62791 0.96555 0.56768 0.0
O299 O 0.57496 0.9213 0.53985 0.0
O300 O 0.5462 0.96502 0.60279 0.0
O301 O 0.49704 0.96886 0.55638 0.0
O302 O 0.55108 0.04729 0.55758 0.0
O303 O 0.48386 0.12634 0.57413 0.0
O304 O 0.4334 0.0727 0.56318 0.0
O305 O 0.53249 0.10027 0.53233 0.0
O306 O 0.54028 0.05551 0.46603 0.0
O307 O 0.49277 0.06932 0.42236 0.0
O308 O 0.46665 0.10813 0.49157 0.0
O309 O 0.41143 0.07476 0.45817 0.0
C310 C 0.59303 0.91333 0.45334 0.0
C311 C 0.4822 0.93795 0.47023 0.0
C312 C 0.51051 0.956 0.59238 0.0
C313 C 0.61038 0.92959 0.55584 0.0
C314 C 0.44844 0.10771 0.57954 0.0
C315 C 0.55651 0.08528 0.55479 0.0
C316 C 0.52811 0.07221 0.43154 0.0
C317 C 0.43201 0.1068 0.47651 0.0
O318 O 0.55811 0.89399 0.46037 0.0
O319 O 0.60638 0.95031 0.46515 0.0
O320 O 0.48674 0.97601 0.466 0.0
O321 O 0.50635 0.92367 0.49406 0.0
Co322 Co 0.47243 0.52954 0.1053 0.0
Co323 Co 0.45387 0.45439 0.08629 0.0
Co324 Co 0.51463 0.50778 0.02082 0.0
O325 O 0.46782 0.50179 0.05262 0.0
H326 H 0.44624 0.50498 0.03344 0.0
O327 O 0.56179 0.51386 0.99056 0.0
Co328 Co 0.56015 0.49132 0.93619 0.0
Co329 Co 0.57468 0.5631 0.96174 0.0
H330 H 0.58311 0.51032 1.00999 0.0
O331 O 0.40537 0.43422 0.10776 0.0
O332 O 0.45619 0.47833 0.13835 0.0
O333 O 0.49122 0.42395 0.09422 0.0
O334 O 0.53695 0.46967 0.06194 0.0
O335 O 0.4854 0.46295 0.98265 0.0
O336 O 0.56172 0.46909 0.88689 0.0
O337 O 0.60739 0.48191 0.9419 0.0
O338 O 0.50997 0.49602 0.92408 0.0
O339 O 0.49169 0.54528 0.97975 0.0
O340 O 0.53712 0.59366 0.95117 0.0
O341 O 0.58171 0.54576 0.90923 0.0
O342 O 0.62472 0.58645 0.95491 0.0
C343 C 0.438 0.55558 0.13575 0.0
C344 C 0.54804 0.55228 0.09717 0.0
C345 C 0.52587 0.43773 0.08595 0.0
C346 C 0.42188 0.45524 0.14051 0.0
C347 C 0.59517 0.46698 0.90409 0.0
C348 C 0.48379 0.4693 0.94154 0.0
C349 C 0.50221 0.57792 0.95691 0.0
C350 C 0.61564 0.56982 0.91787 0.0
O351 O 0.47247 0.55626 0.15193 0.0
O352 O 0.42451 0.53661 0.10039 0.0
O353 O 0.54466 0.55406 0.05611 0.0
O354 O 0.52323 0.52675 0.11733 0.0
C355 C 0.19558 0.41822 0.50147 0.0
C356 C 0.19412 0.38088 0.48561 0.0
H357 H 0.16554 0.46146 0.51051 0.0
C358 C 0.15872 0.35637 0.46967 0.0
H359 H 0.22251 0.43813 0.51316 0.0
C360 C 0.12553 0.36971 0.46845 0.0
C361 C 0.12748 0.4079 0.48267 0.0
H362 H 0.15691 0.32739 0.45727 0.0
H363 H 0.09868 0.35064 0.45537 0.0
C364 C 0.16279 0.4317 0.49965 0.0
C365 C 0.5699 0.15329 0.34806 0.0
C366 C 0.60934 0.16187 0.36053 0.0
H367 H 0.51361 0.11821 0.35994 0.0
C368 C 0.62197 0.1386 0.39483 0.0
H369 H 0.55892 0.17081 0.32224 0.0
C370 C 0.59579 0.10842 0.41679 0.0
C371 C 0.55627 0.10063 0.40499 0.0
H372 H 0.65212 0.1438 0.40493 0.0
H373 H 0.60654 0.09183 0.44369 0.0
C374 C 0.54378 0.12307 0.36987 0.0
C375 C 0.85207 0.64536 0.35917 0.0
C376 C 0.85759 0.68502 0.37103 0.0
H377 H 0.86787 0.59012 0.37151 0.0
C378 C 0.88573 0.70012 0.40431 0.0
H379 H 0.83036 0.63285 0.33395 0.0
C380 C 0.90792 0.67577 0.42532 0.0
C381 C 0.90151 0.63578 0.41401 0.0
H382 H 0.89046 0.73063 0.41403 0.0
H383 H 0.92901 0.68767 0.45135 0.0
C384 C 0.87348 0.62092 0.38072 0.0
C385 C 0.41026 0.84083 0.43934 0.0
C386 C 0.39471 0.85099 0.39832 0.0
H387 H 0.44962 0.86022 0.494 0.0
C388 C 0.40607 0.89139 0.38278 0.0
H389 H 0.4016 0.81052 0.45319 0.0
C390 C 0.4331 0.92033 0.40693 0.0
C391 C 0.44984 0.90943 0.44686 0.0
H392 H 0.39518 0.90052 0.35122 0.0
H393 H 0.44213 0.95078 0.39348 0.0
C394 C 0.43762 0.86951 0.46304 0.0
C395 C 0.16057 0.58471 0.644 0.0
C396 C 0.18591 0.61701 0.62318 0.0
H397 H 0.10796 0.53807 0.63818 0.0
C398 C 0.17383 0.63055 0.58182 0.0
H399 H 0.16888 0.57308 0.67556 0.0
C400 C 0.13905 0.61035 0.56051 0.0
C401 C 0.11499 0.57672 0.58035 0.0
H402 H 0.19209 0.65576 0.56498 0.0
H403 H 0.13193 0.61965 0.5275 0.0
C404 C 0.12552 0.56471 0.62272 0.0
C405 C 0.42275 0.18102 0.6473 0.0
C406 C 0.38498 0.17902 0.63103 0.0
H407 H 0.4724 0.15988 0.64351 0.0
C408 C 0.36686 0.15033 0.60064 0.0
H409 H 0.43759 0.20319 0.67028 0.0
C410 C 0.38665 0.1249 0.5859 0.0
C411 C 0.42512 0.12862 0.60049 0.0
H412 H 0.33779 0.14831 0.58749 0.0
H413 H 0.37259 0.10405 0.56133 0.0
C414 C 0.44272 0.15637 0.63185 0.0
C415 C 0.88212 0.40947 0.61338 0.0
C416 C 0.87397 0.41804 0.65427 0.0
H417 H 0.91712 0.42807 0.56046 0.0
C418 C 0.89718 0.45247 0.67409 0.0
H419 H 0.86502 0.38294 0.59751 0.0
C420 C 0.92695 0.47852 0.65279 0.0
C421 C 0.93465 0.47039 0.61149 0.0
H422 H 0.89154 0.45993 0.70553 0.0
H423 H 0.94348 0.50546 0.66836 0.0
C424 C 0.91228 0.43514 0.59239 0.0
C425 C 0.68893 0.87735 0.57691 0.0
C426 C 0.66828 0.8387 0.58996 0.0
H427 H 0.68642 0.93691 0.55599 0.0
C428 C 0.62824 0.82892 0.58738 0.0
H429 H 0.7199 0.88541 0.57896 0.0
C430 C 0.60909 0.85809 0.57356 0.0
C431 C 0.62993 0.89753 0.56341 0.0
H432 H 0.61196 0.79917 0.59738 0.0
H433 H 0.57821 0.85039 0.57321 0.0
C434 C 0.66987 0.90673 0.56411 0.0
C435 C 0.42964 0.21194 0.49808 0.0
C436 C 0.39341 0.21343 0.47934 0.0
H437 H 0.47043 0.1778 0.5108 0.0
C438 C 0.36854 0.17847 0.46219 0.0
H439 H 0.44914 0.23809 0.51241 0.0
C440 C 0.3805 0.14323 0.46208 0.0
C441 C 0.41753 0.14253 0.47897 0.0
H442 H 0.34045 0.17879 0.44733 0.0
H443 H 0.36118 0.11698 0.4478 0.0
C444 C 0.44171 0.17714 0.49745 0.0
C445 C 0.84077 0.44161 0.40406 0.0
C446 C 0.84704 0.40879 0.38445 0.0
H447 H 0.8636 0.49129 0.44417 0.0
C448 C 0.88378 0.40193 0.39125 0.0
H449 H 0.81345 0.44876 0.39904 0.0
C450 C 0.91328 0.42736 0.41656 0.0
C451 C 0.90663 0.4599 0.43624 0.0
H452 H 0.88978 0.37668 0.3774 0.0
H453 H 0.94112 0.42129 0.42105 0.0
C454 C 0.86991 0.46644 0.42979 0.0
C455 C 0.67159 0.89467 0.39228 0.0
C456 C 0.65997 0.85262 0.3891 0.0
H457 H 0.6598 0.94686 0.41524 0.0
C458 C 0.62735 0.83091 0.40937 0.0
H459 H 0.6963 0.91254 0.37679 0.0
C460 C 0.60615 0.85069 0.4307 0.0
C461 C 0.61718 0.89271 0.43285 0.0
H462 H 0.61799 0.79849 0.40869 0.0
H463 H 0.58092 0.83293 0.44539 0.0
C464 C 0.65055 0.91445 0.41414 0.0
C465 C 0.14088 0.57426 0.35776 0.0
C466 C 0.15167 0.61493 0.36771 0.0
H467 H 0.10325 0.51611 0.36857 0.0
C468 C 0.13001 0.62849 0.39542 0.0
H469 H 0.15668 0.56307 0.33599 0.0
C470 C 0.0993 0.6015 0.41438 0.0
C471 C 0.08925 0.56046 0.40551 0.0
H472 H 0.13769 0.65969 0.40368 0.0
H473 H 0.08416 0.6126 0.43695 0.0
C474 C 0.10994 0.54743 0.37616 0.0
C475 C 0.47885 0.85916 0.65901 0.0
C476 C 0.43864 0.85025 0.65276 0.0
H477 H 0.53258 0.8995 0.64626 0.0
C478 C 0.42235 0.87908 0.62968 0.0
H479 H 0.49306 0.83786 0.67534 0.0
C480 C 0.44553 0.91445 0.61158 0.0
C481 C 0.48559 0.92245 0.61704 0.0
H482 H 0.39165 0.87414 0.62477 0.0
H483 H 0.43208 0.93509 0.5925 0.0
C484 C 0.50185 0.89483 0.64197 0.0
C485 C 0.18824 0.40426 0.64903 0.0
C486 C 0.18415 0.36482 0.63709 0.0
H487 H 0.167 0.45635 0.64115 0.0
C488 C 0.15202 0.3464 0.60975 0.0
H489 H 0.21294 0.41978 0.66924 0.0
C490 C 0.12533 0.36763 0.5936 0.0
C491 C 0.13082 0.40774 0.60404 0.0
H492 H 0.1481 0.31604 0.59996 0.0
H493 H 0.10175 0.35353 0.57112 0.0
C494 C 0.162 0.42542 0.63265 0.0
C495 C 0.62094 0.13443 0.64988 0.0
C496 C 0.63854 0.17235 0.63132 0.0
H497 H 0.58208 0.07621 0.63975 0.0
C498 C 0.63157 0.17959 0.58677 0.0
H499 H 0.62599 0.12798 0.68412 0.0
C500 C 0.60618 0.15037 0.56171 0.0
C501 C 0.58793 0.11279 0.58032 0.0
H502 H 0.64461 0.20851 0.5716 0.0
H503 H 0.60006 0.1575 0.5278 0.0
C504 C 0.59621 0.10469 0.62448 0.0
C505 C 0.90698 0.6963 0.58648 0.0
C506 C 0.86755 0.68197 0.57547 0.0
H507 H 0.96237 0.68729 0.58466 0.0
C508 C 0.85444 0.64929 0.54854 0.0
H509 H 0.91814 0.72115 0.60745 0.0
C510 C 0.87994 0.62918 0.53613 0.0
C511 C 0.91893 0.64172 0.55019 0.0
H512 H 0.8243 0.63817 0.53866 0.0
H513 H 0.86885 0.60285 0.51723 0.0
C514 C 0.9324 0.67654 0.57374 0.0
C515 C 0.41107 0.46107 0.25902 0.0
C516 C 0.37918 0.42864 0.26592 0.0
H517 H 0.4493 0.49501 0.21419 0.0
C518 C 0.35899 0.40759 0.23017 0.0
H519 H 0.42753 0.47773 0.28578 0.0
C520 C 0.37162 0.41745 0.18883 0.0
C521 C 0.40479 0.44846 0.18248 0.0
H522 H 0.3339 0.38287 0.23428 0.0
H523 H 0.35625 0.39977 0.16223 0.0
C524 C 0.42371 0.47085 0.21785 0.0
C525 C 0.41075 0.58078 0.88832 0.0
C526 C 0.42085 0.61915 0.86768 0.0
H527 H 0.42795 0.53818 0.93371 0.0
C528 C 0.45631 0.6455 0.88042 0.0
H529 H 0.38363 0.55983 0.87923 0.0
C530 C 0.48207 0.6329 0.91109 0.0
C531 C 0.47268 0.5939 0.93042 0.0
H532 H 0.46506 0.67512 0.86485 0.0
H533 H 0.50991 0.65325 0.91852 0.0
C534 C 0.43615 0.56848 0.9197 0.0
C535 C 0.42085 0.38174 0.88058 0.0
C536 C 0.41007 0.40201 0.84261 0.0
H537 H 0.45258 0.38749 0.94293 0.0
C538 C 0.41809 0.44409 0.8416 0.0
H539 H 0.41497 0.34932 0.88235 0.0
C540 C 0.43948 0.46562 0.87581 0.0
C541 C 0.45292 0.44568 0.91229 0.0
H542 H 0.4093 0.4606 0.81338 0.0
H543 H 0.44731 0.49813 0.8727 0.0
C544 C 0.44215 0.40351 0.91532 0.0
C545 C 0.62536 0.41383 0.81632 0.0
C546 C 0.65881 0.4049 0.83575 0.0
H547 H 0.57945 0.44027 0.82231 0.0
C548 C 0.67224 0.41832 0.87754 0.0
H549 H 0.61382 0.40372 0.78449 0.0
C550 C 0.65231 0.43935 0.89952 0.0
C551 C 0.61836 0.44732 0.88035 0.0
H552 H 0.69821 0.41253 0.89335 0.0
H553 H 0.66316 0.44872 0.93179 0.0
C554 C 0.60545 0.43466 0.83827 0.0
C555 C 0.69943 0.62994 0.85909 0.0
C556 C 0.68815 0.61883 0.81633 0.0
H557 H 0.68581 0.6228 0.92453 0.0
C558 C 0.65484 0.58763 0.80806 0.0
H559 H 0.72457 0.65412 0.86678 0.0
C560 C 0.63202 0.56994 0.84146 0.0
C561 C 0.64219 0.58313 0.88365 0.0
H562 H 0.64574 0.57781 0.77559 0.0
H563 H 0.60572 0.54716 0.83388 0.0
C564 C 0.67687 0.61217 0.89232 0.0
C565 C 0.63181 0.64206 0.1251 0.0
C566 C 0.63208 0.64158 0.17037 0.0
H567 H 0.60541 0.61418 0.06638 0.0
C568 C 0.6051 0.61093 0.191 0.0
H569 H 0.65246 0.66492 0.10813 0.0
C570 C 0.57851 0.58176 0.1672 0.0
C571 C 0.5779 0.58242 0.12195 0.0
H572 H 0.60392 0.60987 0.22565 0.0
H573 H 0.55799 0.55898 0.18442 0.0
C574 C 0.60502 0.61281 0.10116 0.0
C575 C 0.4099 0.61757 0.21638 0.0
C576 C 0.37387 0.62087 0.19841 0.0
H577 H 0.45792 0.59426 0.21117 0.0
C578 C 0.35819 0.60087 0.16033 0.0
H579 H 0.42256 0.63189 0.24605 0.0
C580 C 0.37852 0.57898 0.14022 0.0
C581 C 0.41493 0.57653 0.15781 0.0
H582 H 0.3306 0.60296 0.14543 0.0
H583 H 0.36598 0.56459 0.11055 0.0
C584 C 0.4301 0.59571 0.19641 0.0
C585 C 0.57035 0.36865 0.16188 0.0
C586 C 0.60972 0.38633 0.15999 0.0
H587 H 0.51333 0.37028 0.13979 0.0
C588 C 0.62137 0.41977 0.13133 0.0
H589 H 0.56028 0.34237 0.18284 0.0
C590 C 0.59429 0.43575 0.1062 0.0
C591 C 0.55487 0.4186 0.10897 0.0
H592 H 0.65144 0.43425 0.12914 0.0
H593 H 0.60431 0.46215 0.08537 0.0
C594 C 0.54334 0.38449 0.13676 0.0
loop_
_geom_bond_atom_site_label_1
_geom_bond_atom_site_label_2
_geom_bond_distance
_geom_bond_site_symmetry_2
_ccdc_geom_bond_type
P0 O11 1.490 . S
P0 C14 1.812 . S
P0 C20 1.803 . S
P0 C26 1.819 . S
H1 C15 0.941 . S
H2 C16 0.939 . S
H3 C18 0.940 . S
H4 C19 0.940 . S
H5 C21 0.939 . S
H6 C22 0.942 . S
H7 C24 0.940 . S
H8 C25 0.939 . S
H9 C27 0.941 . S
H10 C31 0.939 . S
O11 P0 1.490 . S
H12 C28 0.939 . S
H13 C30 0.940 . S
C14 P0 1.812 . S
C14 C15 1.389 . S
C14 C19 1.391 . S
C15 H1 0.941 . S
C15 C14 1.389 . S
C15 C16 1.397 . S
C16 H2 0.939 . S
C16 C15 1.397 . S
C16 C17 1.378 . S
C17 C16 1.378 . S
C17 C18 1.378 . S
C18 H3 0.940 . S
C18 C17 1.378 . S
C18 C19 1.396 . S
C19 H4 0.940 . S
C19 C14 1.391 . S
C19 C18 1.396 . S
C20 P0 1.803 . S
C20 C21 1.378 . S
C20 C25 1.400 . S
C21 H5 0.939 . S
C21 C20 1.378 . S
C21 C22 1.361 . S
C22 H6 0.942 . S
C22 C21 1.361 . S
C22 C23 1.369 . S
C23 C22 1.369 . S
C23 C24 1.404 . S
C24 H7 0.940 . S
C24 C23 1.404 . S
C24 C25 1.389 . S
C25 H8 0.939 . S
C25 C20 1.400 . S
C25 C24 1.389 . S
C26 P0 1.819 . S
C26 C27 1.391 . S
C26 C31 1.391 . S
C27 H9 0.941 . S
C27 C26 1.391 . S
C27 C28 1.396 . S
C28 H12 0.939 . S
C28 C27 1.396 . S
C28 C29 1.397 . S
C29 C28 1.397 . S
C29 C30 1.385 . S
C30 H13 0.940 . S
C30 C29 1.385 . S
C30 C31 1.388 . S
C31 H10 0.939 . S
C31 C26 1.391 . S
C31 C30 1.388 . S
P32 O43 1.490 . S
P32 C46 1.812 . S
P32 C52 1.803 . S
P32 C58 1.819 . S
H33 C47 0.941 . S
H34 C48 0.939 . S
H35 C50 0.940 . S
H36 C51 0.940 . S
H37 C53 0.939 . S
H38 C54 0.942 . S
H39 C56 0.940 . S
H40 C57 0.939 . S
H41 C59 0.941 . S
H42 C63 0.939 . S
O43 P32 1.490 . S
H44 C60 0.939 . S
H45 C62 0.940 . S
C46 P32 1.812 . S
C46 C47 1.389 . S
C46 C51 1.391 . S
C47 H33 0.941 . S
C47 C46 1.389 . S
C47 C48 1.397 . S
C48 H34 0.939 . S
C48 C47 1.397 . S
C48 C49 1.378 . S
C49 C48 1.378 . S
C49 C50 1.378 . S
C50 H35 0.940 . S
C50 C49 1.378 . S
C50 C51 1.396 . S
C51 H36 0.940 . S
C51 C46 1.391 . S
C51 C50 1.396 . S
C52 P32 1.803 . S
C52 C53 1.378 . S
C52 C57 1.400 . S
C53 H37 0.939 . S
C53 C52 1.378 . S
C53 C54 1.361 . S
C54 H38 0.942 . S
C54 C53 1.361 . S
C54 C55 1.369 . S
C55 C54 1.369 . S
C55 C56 1.404 . S
C56 H39 0.940 . S
C56 C55 1.404 . S
C56 C57 1.389 . S
C57 H40 0.939 . S
C57 C52 1.400 . S
C57 C56 1.389 . S
C58 P32 1.819 . S
C58 C59 1.391 . S
C58 C63 1.391 . S
C59 H41 0.941 . S
C59 C58 1.391 . S
C59 C60 1.396 . S
C60 H44 0.939 . S
C60 C59 1.396 . S
C60 C61 1.397 . S
C61 C60 1.397 . S
C61 C62 1.385 . S
C62 H45 0.940 . S
C62 C61 1.385 . S
C62 C63 1.388 . S
C63 H42 0.939 . S
C63 C58 1.391 . S
C63 C62 1.388 . S
P64 O75 1.490 . S
P64 C78 1.812 . S
P64 C84 1.803 . S
P64 C90 1.819 . S
H65 C79 0.941 . S
H66 C80 0.939 . S
H67 C82 0.940 . S
H68 C83 0.940 . S
H69 C85 0.939 . S
H70 C86 0.942 . S
H71 C88 0.940 . S
H72 C89 0.939 . S
H73 C91 0.941 . S
H74 C95 0.939 . S
O75 P64 1.490 . S
H76 C92 0.939 . S
H77 C94 0.940 . S
C78 P64 1.812 . S
C78 C79 1.389 . S
C78 C83 1.391 . S
C79 H65 0.941 . S
C79 C78 1.389 . S
C79 C80 1.397 . S
C80 H66 0.939 . S
C80 C79 1.397 . S
C80 C81 1.378 . S
C81 C80 1.378 . S
C81 C82 1.378 . S
C82 H67 0.940 . S
C82 C81 1.378 . S
C82 C83 1.396 . S
C83 H68 0.940 . S
C83 C78 1.391 . S
C83 C82 1.396 . S
C84 P64 1.803 . S
C84 C85 1.378 . S
C84 C89 1.400 . S
C85 H69 0.939 . S
C85 C84 1.378 . S
C85 C86 1.361 . S
C86 H70 0.942 . S
C86 C85 1.361 . S
C86 C87 1.369 . S
C87 C86 1.369 . S
C87 C88 1.404 . S
C88 H71 0.940 . S
C88 C87 1.404 . S
C88 C89 1.389 . S
C89 H72 0.939 . S
C89 C84 1.400 . S
C89 C88 1.389 . S
C90 P64 1.819 . S
C90 C91 1.391 . S
C90 C95 1.391 . S
C91 H73 0.941 . S
C91 C90 1.391 . S
C91 C92 1.396 . S
C92 H76 0.939 . S
C92 C91 1.396 . S
C92 C93 1.397 . S
C93 C92 1.397 . S
C93 C94 1.385 . S
C94 H77 0.940 . S
C94 C93 1.385 . S
C94 C95 1.388 . S
C95 H74 0.939 . S
C95 C90 1.391 . S
C95 C94 1.388 . S
P96 O107 1.490 . S
P96 C110 1.812 . S
P96 C116 1.803 . S
P96 C122 1.819 . S
H97 C111 0.941 . S
H98 C112 0.939 . S
H99 C114 0.940 . S
H100 C115 0.940 . S
H101 C117 0.939 . S
H102 C118 0.942 . S
H103 C120 0.940 . S
H104 C121 0.939 . S
H105 C123 0.941 . S
H106 C127 0.939 . S
O107 P96 1.490 . S
H108 C124 0.939 . S
H109 C126 0.940 . S
C110 P96 1.812 . S
C110 C111 1.389 . S
C110 C115 1.391 . S
C111 H97 0.941 . S
C111 C110 1.389 . S
C111 C112 1.397 . S
C112 H98 0.939 . S
C112 C111 1.397 . S
C112 C113 1.378 . S
C113 C112 1.378 . S
C113 C114 1.378 . S
C114 H99 0.940 . S
C114 C113 1.378 . S
C114 C115 1.396 . S
C115 H100 0.940 . S
C115 C110 1.391 . S
C115 C114 1.396 . S
C116 P96 1.803 . S
C116 C117 1.378 . S
C116 C121 1.400 . S
C117 H101 0.939 . S
C117 C116 1.378 . S
C117 C118 1.361 . S
C118 H102 0.942 . S
C118 C117 1.361 . S
C118 C119 1.369 . S
C119 C118 1.369 . S
C119 C120 1.404 . S
C120 H103 0.940 . S
C120 C119 1.404 . S
C120 C121 1.389 . S
C121 H104 0.939 . S
C121 C116 1.400 . S
C121 C120 1.389 . S
C122 P96 1.819 . S
C122 C123 1.391 . S
C122 C127 1.391 . S
C123 H105 0.941 . S
C123 C122 1.391 . S
C123 C124 1.396 . S
C124 H108 0.939 . S
C124 C123 1.396 . S
C124 C125 1.397 . S
C125 C124 1.397 . S
C125 C126 1.385 . S
C126 H109 0.940 . S
C126 C125 1.385 . S
C126 C127 1.388 . S
C127 H106 0.939 . S
C127 C122 1.391 . S
C127 C126 1.388 . S
P128 O139 1.490 . S
P128 C142 1.812 . S
P128 C148 1.803 . S
P128 C154 1.819 . S
H129 C143 0.941 . S
H130 C144 0.939 . S
H131 C146 0.940 . S
H132 C147 0.940 . S
H133 C149 0.939 . S
H134 C150 0.942 . S
H135 C152 0.940 . S
H136 C153 0.939 . S
H137 C155 0.941 . S
H138 C159 0.939 . S
O139 P128 1.490 . S
H140 C156 0.939 . S
H141 C158 0.940 . S
C142 P128 1.812 . S
C142 C143 1.389 . S
C142 C147 1.391 . S
C143 H129 0.941 . S
C143 C142 1.389 . S
C143 C144 1.397 . S
C144 H130 0.939 . S
C144 C143 1.397 . S
C144 C145 1.378 . S
C145 C144 1.378 . S
C145 C146 1.378 . S
C146 H131 0.940 . S
C146 C145 1.378 . S
C146 C147 1.396 . S
C147 H132 0.940 . S
C147 C142 1.391 . S
C147 C146 1.396 . S
C148 P128 1.803 . S
C148 C149 1.378 . S
C148 C153 1.400 . S
C149 H133 0.939 . S
C149 C148 1.378 . S
C149 C150 1.361 . S
C150 H134 0.942 . S
C150 C149 1.361 . S
C150 C151 1.369 . S
C151 C150 1.369 . S
C151 C152 1.404 . S
C152 H135 0.940 . S
C152 C151 1.404 . S
C152 C153 1.389 . S
C153 H136 0.939 . S
C153 C148 1.400 . S
C153 C152 1.389 . S
C154 P128 1.819 . S
C154 C155 1.391 . S
C154 C159 1.391 . S
C155 H137 0.941 . S
C155 C154 1.391 . S
C155 C156 1.396 . S
C156 H140 0.939 . S
C156 C155 1.396 . S
C156 C157 1.397 . S
C157 C156 1.397 . S
C157 C158 1.385 . S
C158 H141 0.940 . S
C158 C157 1.385 . S
C158 C159 1.388 . S
C159 H138 0.939 . S
C159 C154 1.391 . S
C159 C158 1.388 . S
P160 O171 1.490 . S
P160 C174 1.812 . S
P160 C180 1.803 . S
P160 C186 1.819 . S
H161 C175 0.941 . S
H162 C176 0.939 . S
H163 C178 0.940 . S
H164 C179 0.940 . S
H165 C181 0.939 . S
H166 C182 0.942 . S
H167 C184 0.940 . S
H168 C185 0.939 . S
H169 C187 0.941 . S
H170 C191 0.939 . S
O171 P160 1.490 . S
H172 C188 0.939 . S
H173 C190 0.940 . S
C174 P160 1.812 . S
C174 C175 1.389 . S
C174 C179 1.391 . S
C175 H161 0.941 . S
C175 C174 1.389 . S
C175 C176 1.397 . S
C176 H162 0.939 . S
C176 C175 1.397 . S
C176 C177 1.378 . S
C177 C176 1.378 . S
C177 C178 1.378 . S
C178 H163 0.940 . S
C178 C177 1.378 . S
C178 C179 1.396 . S
C179 H164 0.940 . S
C179 C174 1.391 . S
C179 C178 1.396 . S
C180 P160 1.803 . S
C180 C181 1.378 . S
C180 C185 1.400 . S
C181 H165 0.939 . S
C181 C180 1.378 . S
C181 C182 1.361 . S
C182 H166 0.942 . S
C182 C181 1.361 . S
C182 C183 1.369 . S
C183 C182 1.369 . S
C183 C184 1.404 . S
C184 H167 0.940 . S
C184 C183 1.404 . S
C184 C185 1.389 . S
C185 H168 0.939 . S
C185 C180 1.400 . S
C185 C184 1.389 . S
C186 P160 1.819 . S
C186 C187 1.391 . S
C186 C191 1.391 . S
C187 H169 0.941 . S
C187 C186 1.391 . S
C187 C188 1.396 . S
C188 H172 0.939 . S
C188 C187 1.396 . S
C188 C189 1.397 . S
C189 C188 1.397 . S
C189 C190 1.385 . S
C190 H173 0.940 . S
C190 C189 1.385 . S
C190 C191 1.388 . S
C191 H170 0.939 . S
C191 C186 1.391 . S
C191 C190 1.388 . S
P192 O203 1.490 . S
P192 C206 1.812 . S
P192 C212 1.803 . S
P192 C218 1.819 . S
H193 C207 0.941 . S
H194 C208 0.939 . S
H195 C210 0.940 . S
H196 C211 0.940 . S
H197 C213 0.939 . S
H198 C214 0.942 . S
H199 C216 0.940 . S
H200 C217 0.939 . S
H201 C219 0.941 . S
H202 C223 0.939 . S
O203 P192 1.490 . S
H204 C220 0.939 . S
H205 C222 0.940 . S
C206 P192 1.812 . S
C206 C207 1.389 . S
C206 C211 1.391 . S
C207 H193 0.941 . S
C207 C206 1.389 . S
C207 C208 1.397 . S
C208 H194 0.939 . S
C208 C207 1.397 . S
C208 C209 1.378 . S
C209 C208 1.378 . S
C209 C210 1.378 . S
C210 H195 0.940 . S
C210 C209 1.378 . S
C210 C211 1.396 . S
C211 H196 0.940 . S
C211 C206 1.391 . S
C211 C210 1.396 . S
C212 P192 1.803 . S
C212 C213 1.378 . S
C212 C217 1.400 . S
C213 H197 0.939 . S
C213 C212 1.378 . S
C213 C214 1.361 . S
C214 H198 0.942 . S
C214 C213 1.361 . S
C214 C215 1.369 . S
C215 C214 1.369 . S
C215 C216 1.404 . S
C216 H199 0.940 . S
C216 C215 1.404 . S
C216 C217 1.389 . S
C217 H200 0.939 . S
C217 C212 1.400 . S
C217 C216 1.389 . S
C218 P192 1.819 . S
C218 C219 1.391 . S
C218 C223 1.391 . S
C219 H201 0.941 . S
C219 C218 1.391 . S
C219 C220 1.396 . S
C220 H204 0.939 . S
C220 C219 1.396 . S
C220 C221 1.397 . S
C221 C220 1.397 . S
C221 C222 1.385 . S
C222 H205 0.940 . S
C222 C221 1.385 . S
C222 C223 1.388 . S
C223 H202 0.939 . S
C223 C218 1.391 . S
C223 C222 1.388 . S
P224 O235 1.490 . S
P224 C238 1.812 . S
P224 C244 1.803 . S
P224 C250 1.819 . S
H225 C239 0.941 . S
H226 C240 0.939 . S
H227 C242 0.940 . S
H228 C243 0.940 . S
H229 C245 0.939 . S
H230 C246 0.942 . S
H231 C248 0.940 . S
H232 C249 0.939 . S
H233 C251 0.941 . S
H234 C255 0.939 . S
O235 P224 1.490 . S
H236 C252 0.939 . S
H237 C254 0.940 . S
C238 P224 1.812 . S
C238 C239 1.389 . S
C238 C243 1.391 . S
C239 H225 0.941 . S
C239 C238 1.389 . S
C239 C240 1.397 . S
C240 H226 0.939 . S
C240 C239 1.397 . S
C240 C241 1.378 . S
C241 C240 1.378 . S
C241 C242 1.378 . S
C242 H227 0.940 . S
C242 C241 1.378 . S
C242 C243 1.396 . S
C243 H228 0.940 . S
C243 C238 1.391 . S
C243 C242 1.396 . S
C244 P224 1.803 . S
C244 C245 1.378 . S
C244 C249 1.400 . S
C245 H229 0.939 . S
C245 C244 1.378 . S
C245 C246 1.361 . S
C246 H230 0.942 . S
C246 C245 1.361 . S
C246 C247 1.369 . S
C247 C246 1.369 . S
C247 C248 1.404 . S
C248 H231 0.940 . S
C248 C247 1.404 . S
C248 C249 1.389 . S
C249 H232 0.939 . S
C249 C244 1.400 . S
C249 C248 1.389 . S
C250 P224 1.819 . S
C250 C251 1.391 . S
C250 C255 1.391 . S
C251 H233 0.941 . S
C251 C250 1.391 . S
C251 C252 1.396 . S
C252 H236 0.939 . S
C252 C251 1.396 . S
C252 C253 1.397 . S
C253 C252 1.397 . S
C253 C254 1.385 . S
C254 H237 0.940 . S
C254 C253 1.385 . S
C254 C255 1.388 . S
C255 H234 0.939 . S
C255 C250 1.391 . S
C255 C254 1.388 . S
Co256 O259 2.042 . S
Co256 O266 2.264 . S
Co256 O285 2.286 . S
Co256 O286 2.069 . S
Co256 O288 2.015 . S
Co257 O259 2.122 . S
Co257 O265 2.073 . S
Co257 O266 2.327 . S
Co257 O267 1.976 . S
Co258 O259 2.087 . S
Co258 O261 2.087 1_455 S
Co258 O268 2.111 . S
Co258 O269 2.143 1_455 S
Co258 O273 2.111 1_455 S
Co258 O287 2.143 . S
O259 Co256 2.042 . S
O259 Co257 2.122 . S
O259 Co258 2.087 . S
O259 H260 0.980 . S
H260 O259 0.980 . S
O261 Co258 2.087 1_655 S
O261 Co262 2.042 . S
O261 Co263 2.122 . S
O261 H264 0.980 . S
Co262 O261 2.042 . S
Co262 O270 2.286 . S
Co262 O271 2.069 . S
Co262 O272 2.015 . S
Co262 O275 2.264 . S
Co263 O261 2.122 . S
Co263 O274 1.976 . S
Co263 O275 2.327 . S
Co263 O276 2.073 . S
H264 O261 0.980 . S
O265 Co257 2.073 . S
O265 C280 1.245 . S
O266 Co256 2.264 . S
O266 Co257 2.327 . S
O266 C280 1.257 . S
O267 Co257 1.976 . S
O267 C279 1.251 . S
O268 Co258 2.111 . S
O268 C279 1.274 . S
O269 Co258 2.143 1_655 S
O269 C282 1.246 . S
O270 Co262 2.286 . S
O270 C281 1.259 . S
O271 Co262 2.069 . S
O271 C281 1.289 . S
O272 Co262 2.015 . S
O272 C282 1.257 . S
O273 Co258 2.111 1_655 S
O273 C283 1.274 . S
O274 Co263 1.976 . S
O274 C283 1.251 . S
O275 Co262 2.264 . S
O275 Co263 2.327 . S
O275 C284 1.257 . S
O276 Co263 2.073 . S
O276 C284 1.245 . S
C277 O285 1.259 . S
C277 O286 1.289 . S
C278 O287 1.246 . S
C278 O288 1.257 . S
C279 O267 1.251 . S
C279 O268 1.274 . S
C280 O265 1.245 . S
C280 O266 1.257 . S
C281 O270 1.259 . S
C281 O271 1.289 . S
C282 O269 1.246 . S
C282 O272 1.257 . S
C283 O273 1.274 . S
C283 O274 1.251 . S
C284 O275 1.257 . S
C284 O276 1.245 . S
O285 Co256 2.286 . S
O285 C277 1.259 . S
O286 Co256 2.069 . S
O286 C277 1.289 . S
O287 Co258 2.143 . S
O287 C278 1.246 . S
O288 Co256 2.015 . S
O288 C278 1.257 . S
Co289 O292 2.042 . S
Co289 O299 2.264 . S
Co289 O318 2.286 . S
Co289 O319 2.069 . S
Co289 O321 2.015 . S
Co290 O292 2.122 . S
Co290 O298 2.073 . S
Co290 O299 2.327 . S
Co290 O300 1.976 . S
Co291 O292 2.087 1_545 S
Co291 O294 2.087 . S
Co291 O301 2.111 1_545 S
Co291 O302 2.143 . S
Co291 O306 2.111 . S
Co291 O320 2.143 1_545 S
O292 Co289 2.042 . S
O292 Co290 2.122 . S
O292 Co291 2.087 1_565 S
O292 H293 0.980 . S
H293 O292 0.980 . S
O294 Co291 2.087 . S
O294 Co295 2.042 . S
O294 Co296 2.122 . S
O294 H297 0.980 . S
Co295 O294 2.042 . S
Co295 O303 2.286 . S
Co295 O304 2.069 . S
Co295 O305 2.015 . S
Co295 O308 2.264 . S
Co296 O294 2.122 . S
Co296 O307 1.976 . S
Co296 O308 2.327 . S
Co296 O309 2.073 . S
H297 O294 0.980 . S
O298 Co290 2.073 . S
O298 C313 1.245 . S
O299 Co289 2.264 . S
O299 Co290 2.327 . S
O299 C313 1.257 . S
O300 Co290 1.976 . S
O300 C312 1.251 . S
O301 Co291 2.111 1_565 S
O301 C312 1.274 . S
O302 Co291 2.143 . S
O302 C315 1.246 . S
O303 Co295 2.286 . S
O303 C314 1.259 . S
O304 Co295 2.069 . S
O304 C314 1.289 . S
O305 Co295 2.015 . S
O305 C315 1.257 . S
O306 Co291 2.111 . S
O306 C316 1.274 . S
O307 Co296 1.976 . S
O307 C316 1.251 . S
O308 Co295 2.264 . S
O308 Co296 2.327 . S
O308 C317 1.257 . S
O309 Co296 2.073 . S
O309 C317 1.245 . S
C310 O318 1.259 . S
C310 O319 1.289 . S
C311 O320 1.246 . S
C311 O321 1.257 . S
C312 O300 1.251 . S
C312 O301 1.274 . S
C313 O298 1.245 . S
C313 O299 1.257 . S
C314 O303 1.259 . S
C314 O304 1.289 . S
C315 O302 1.246 . S
C315 O305 1.257 . S
C316 O306 1.274 . S
C316 O307 1.251 . S
C317 O308 1.257 . S
C317 O309 1.245 . S
O318 Co289 2.286 . S
O318 C310 1.259 . S
O319 Co289 2.069 . S
O319 C310 1.289 . S
O320 Co291 2.143 1_565 S
O320 C311 1.246 . S
O321 Co289 2.015 . S
O321 C311 1.257 . S
Co322 O325 2.042 . S
Co322 O332 2.264 . S
Co322 O351 2.286 . S
Co322 O352 2.069 . S
Co322 O354 2.015 . S
Co323 O325 2.122 . S
Co323 O331 2.073 . S
Co323 O332 2.327 . S
Co323 O333 1.976 . S
Co324 O325 2.087 . S
Co324 O327 2.087 1_554 S
Co324 O334 2.111 . S
Co324 O335 2.143 1_554 S
Co324 O339 2.111 1_554 S
Co324 O353 2.143 . S
O325 Co322 2.042 . S
O325 Co323 2.122 . S
O325 Co324 2.087 . S
O325 H326 0.980 . S
H326 O325 0.980 . S
O327 Co324 2.087 1_556 S
O327 Co328 2.042 . S
O327 Co329 2.122 . S
O327 H330 0.980 . S
Co328 O327 2.042 . S
Co328 O336 2.286 . S
Co328 O337 2.069 . S
Co328 O338 2.015 . S
Co328 O341 2.264 . S
Co329 O327 2.122 . S
Co329 O340 1.976 . S
Co329 O341 2.327 . S
Co329 O342 2.073 . S
H330 O327 0.980 . S
O331 Co323 2.073 . S
O331 C346 1.245 . S
O332 Co322 2.264 . S
O332 Co323 2.327 . S
O332 C346 1.257 . S
O333 Co323 1.976 . S
O333 C345 1.251 . S
O334 Co324 2.111 . S
O334 C345 1.274 . S
O335 Co324 2.143 1_556 S
O335 C348 1.246 . S
O336 Co328 2.286 . S
O336 C347 1.259 . S
O337 Co328 2.069 . S
O337 C347 1.289 . S
O338 Co328 2.015 . S
O338 C348 1.257 . S
O339 Co324 2.111 1_556 S
O339 C349 1.274 . S
O340 Co329 1.976 . S
O340 C349 1.251 . S
O341 Co328 2.264 . S
O341 Co329 2.327 . S
O341 C350 1.257 . S
O342 Co329 2.073 . S
O342 C350 1.245 . S
C343 O351 1.259 . S
C343 O352 1.289 . S
C344 O353 1.246 . S
C344 O354 1.257 . S
C345 O333 1.251 . S
C345 O334 1.274 . S
C346 O331 1.245 . S
C346 O332 1.257 . S
C347 O336 1.259 . S
C347 O337 1.289 . S
C348 O335 1.246 . S
C348 O338 1.257 . S
C349 O339 1.274 . S
C349 O340 1.251 . S
C350 O341 1.257 . S
C350 O342 1.245 . S
O351 Co322 2.286 . S
O351 C343 1.259 . S
O352 Co322 2.069 . S
O352 C343 1.289 . S
O353 Co324 2.143 . S
O353 C344 1.246 . S
O354 Co322 2.015 . S
O354 C344 1.257 . S
C355 C356 1.387 . S
C355 H359 0.950 . S
C355 C364 1.390 . S
C356 C355 1.387 . S
C356 C358 1.387 . S
H357 C364 0.950 . S
C358 C356 1.387 . S
C358 C360 1.390 . S
C358 H362 0.950 . S
H359 C355 0.950 . S
C360 C358 1.390 . S
C360 C361 1.387 . S
C360 H363 0.950 . S
C361 C360 1.387 . S
C361 C364 1.387 . S
H362 C358 0.950 . S
H363 C360 0.950 . S
C364 C355 1.390 . S
C364 H357 0.950 . S
C364 C361 1.387 . S
C365 C366 1.387 . S
C365 H369 0.950 . S
C365 C374 1.390 . S
C366 C365 1.387 . S
C366 C368 1.387 . S
H367 C374 0.950 . S
C368 C366 1.387 . S
C368 C370 1.390 . S
C368 H372 0.950 . S
H369 C365 0.950 . S
C370 C368 1.390 . S
C370 C371 1.387 . S
C370 H373 0.950 . S
C371 C370 1.387 . S
C371 C374 1.387 . S
H372 C368 0.950 . S
H373 C370 0.950 . S
C374 C365 1.390 . S
C374 H367 0.950 . S
C374 C371 1.387 . S
C375 C376 1.387 . S
C375 H379 0.950 . S
C375 C384 1.390 . S
C376 C375 1.387 . S
C376 C378 1.387 . S
H377 C384 0.950 . S
C378 C376 1.387 . S
C378 C380 1.390 . S
C378 H382 0.950 . S
H379 C375 0.950 . S
C380 C378 1.390 . S
C380 C381 1.387 . S
C380 H383 0.950 . S
C381 C380 1.387 . S
C381 C384 1.387 . S
H382 C378 0.950 . S
H383 C380 0.950 . S
C384 C375 1.390 . S
C384 H377 0.950 . S
C384 C381 1.387 . S
C385 C386 1.387 . S
C385 H389 0.950 . S
C385 C394 1.390 . S
C386 C385 1.387 . S
C386 C388 1.387 . S
H387 C394 0.950 . S
C388 C386 1.387 . S
C388 C390 1.390 . S
C388 H392 0.950 . S
H389 C385 0.950 . S
C390 C388 1.390 . S
C390 C391 1.387 . S
C390 H393 0.950 . S
C391 C390 1.387 . S
C391 C394 1.387 . S
H392 C388 0.950 . S
H393 C390 0.950 . S
C394 C385 1.390 . S
C394 H387 0.950 . S
C394 C391 1.387 . S
C395 C396 1.387 . S
C395 H399 0.950 . S
C395 C404 1.390 . S
C396 C395 1.387 . S
C396 C398 1.387 . S
H397 C404 0.950 . S
C398 C396 1.387 . S
C398 C400 1.390 . S
C398 H402 0.950 . S
H399 C395 0.950 . S
C400 C398 1.390 . S
C400 C401 1.387 . S
C400 H403 0.950 . S
C401 C400 1.387 . S
C401 C404 1.387 . S
H402 C398 0.950 . S
H403 C400 0.950 . S
C404 C395 1.390 . S
C404 H397 0.950 . S
C404 C401 1.387 . S
C405 C406 1.387 . S
C405 H409 0.950 . S
C405 C414 1.390 . S
C406 C405 1.387 . S
C406 C408 1.387 . S
H407 C414 0.950 . S
C408 C406 1.387 . S
C408 C410 1.390 . S
C408 H412 0.950 . S
H409 C405 0.950 . S
C410 C408 1.390 . S
C410 C411 1.387 . S
C410 H413 0.950 . S
C411 C410 1.387 . S
C411 C414 1.387 . S
H412 C408 0.950 . S
H413 C410 0.950 . S
C414 C405 1.390 . S
C414 H407 0.950 . S
C414 C411 1.387 . S
C415 C416 1.387 . S
C415 H419 0.950 . S
C415 C424 1.390 . S
C416 C415 1.387 . S
C416 C418 1.387 . S
H417 C424 0.950 . S
C418 C416 1.387 . S
C418 C420 1.390 . S
C418 H422 0.950 . S
H419 C415 0.950 . S
C420 C418 1.390 . S
C420 C421 1.387 . S
C420 H423 0.950 . S
C421 C420 1.387 . S
C421 C424 1.387 . S
H422 C418 0.950 . S
H423 C420 0.950 . S
C424 C415 1.390 . S
C424 H417 0.950 . S
C424 C421 1.387 . S
C425 C426 1.387 . S
C425 H429 0.950 . S
C425 C434 1.390 . S
C426 C425 1.387 . S
C426 C428 1.387 . S
H427 C434 0.950 . S
C428 C426 1.387 . S
C428 C430 1.390 . S
C428 H432 0.950 . S
H429 C425 0.950 . S
C430 C428 1.390 . S
C430 C431 1.387 . S
C430 H433 0.950 . S
C431 C430 1.387 . S
C431 C434 1.387 . S
H432 C428 0.950 . S
H433 C430 0.950 . S
C434 C425 1.390 . S
C434 H427 0.950 . S
C434 C431 1.387 . S
C435 C436 1.387 . S
C435 H439 0.950 . S
C435 C444 1.390 . S
C436 C435 1.387 . S
C436 C438 1.387 . S
H437 C444 0.950 . S
C438 C436 1.387 . S
C438 C440 1.390 . S
C438 H442 0.950 . S
H439 C435 0.950 . S
C440 C438 1.390 . S
C440 C441 1.387 . S
C440 H443 0.950 . S
C441 C440 1.387 . S
C441 C444 1.387 . S
H442 C438 0.950 . S
H443 C440 0.950 . S
C444 C435 1.390 . S
C444 H437 0.950 . S
C444 C441 1.387 . S
C445 C446 1.387 . S
C445 H449 0.950 . S
C445 C454 1.390 . S
C446 C445 1.387 . S
C446 C448 1.387 . S
H447 C454 0.950 . S
C448 C446 1.387 . S
C448 C450 1.390 . S
C448 H452 0.950 . S
H449 C445 0.950 . S
C450 C448 1.390 . S
C450 C451 1.387 . S
C450 H453 0.950 . S
C451 C450 1.387 . S
C451 C454 1.387 . S
H452 C448 0.950 . S
H453 C450 0.950 . S
C454 C445 1.390 . S
C454 H447 0.950 . S
C454 C451 1.387 . S
C455 C456 1.387 . S
C455 H459 0.950 . S
C455 C464 1.390 . S
C456 C455 1.387 . S
C456 C458 1.387 . S
H457 C464 0.950 . S
C458 C456 1.387 . S
C458 C460 1.390 . S
C458 H462 0.950 . S
H459 C455 0.950 . S
C460 C458 1.390 . S
C460 C461 1.387 . S
C460 H463 0.950 . S
C461 C460 1.387 . S
C461 C464 1.387 . S
H462 C458 0.950 . S
H463 C460 0.950 . S
C464 C455 1.390 . S
C464 H457 0.950 . S
C464 C461 1.387 . S
C465 C466 1.387 . S
C465 H469 0.950 . S
C465 C474 1.390 . S
C466 C465 1.387 . S
C466 C468 1.387 . S
H467 C474 0.950 . S
C468 C466 1.387 . S
C468 C470 1.390 . S
C468 H472 0.950 . S
H469 C465 0.950 . S
C470 C468 1.390 . S
C470 C471 1.387 . S
C470 H473 0.950 . S
C471 C470 1.387 . S
C471 C474 1.387 . S
H472 C468 0.950 . S
H473 C470 0.950 . S
C474 C465 1.390 . S
C474 H467 0.950 . S
C474 C471 1.387 . S
C475 C476 1.387 . S
C475 H479 0.950 . S
C475 C484 1.390 . S
C476 C475 1.387 . S
C476 C478 1.387 . S
H477 C484 0.950 . S
C478 C476 1.387 . S
C478 C480 1.390 . S
C478 H482 0.950 . S
H479 C475 0.950 . S
C480 C478 1.390 . S
C480 C481 1.387 . S
C480 H483 0.950 . S
C481 C480 1.387 . S
C481 C484 1.387 . S
H482 C478 0.950 . S
H483 C480 0.950 . S
C484 C475 1.390 . S
C484 H477 0.950 . S
C484 C481 1.387 . S
C485 C486 1.387 . S
C485 H489 0.950 . S
C485 C494 1.390 . S
C486 C485 1.387 . S
C486 C488 1.387 . S
H487 C494 0.950 . S
C488 C486 1.387 . S
C488 C490 1.390 . S
C488 H492 0.950 . S
H489 C485 0.950 . S
C490 C488 1.390 . S
C490 C491 1.387 . S
C490 H493 0.950 . S
C491 C490 1.387 . S
C491 C494 1.387 . S
H492 C488 0.950 . S
H493 C490 0.950 . S
C494 C485 1.390 . S
C494 H487 0.950 . S
C494 C491 1.387 . S
C495 C496 1.387 . S
C495 H499 0.950 . S
C495 C504 1.390 . S
C496 C495 1.387 . S
C496 C498 1.387 . S
H497 C504 0.950 . S
C498 C496 1.387 . S
C498 C500 1.390 . S
C498 H502 0.950 . S
H499 C495 0.950 . S
C500 C498 1.390 . S
C500 C501 1.387 . S
C500 H503 0.950 . S
C501 C500 1.387 . S
C501 C504 1.387 . S
H502 C498 0.950 . S
H503 C500 0.950 . S
C504 C495 1.390 . S
C504 H497 0.950 . S
C504 C501 1.387 . S
C505 C506 1.387 . S
C505 H509 0.950 . S
C505 C514 1.390 . S
C506 C505 1.387 . S
C506 C508 1.387 . S
H507 C514 0.950 . S
C508 C506 1.387 . S
C508 C510 1.390 . S
C508 H512 0.950 . S
H509 C505 0.950 . S
C510 C508 1.390 . S
C510 C511 1.387 . S
C510 H513 0.950 . S
C511 C510 1.387 . S
C511 C514 1.387 . S
H512 C508 0.950 . S
H513 C510 0.950 . S
C514 C505 1.390 . S
C514 H507 0.950 . S
C514 C511 1.387 . S
C515 C516 1.387 . S
C515 H519 0.950 . S
C515 C524 1.390 . S
C516 C515 1.387 . S
C516 C518 1.387 . S
H517 C524 0.950 . S
C518 C516 1.387 . S
C518 C520 1.390 . S
C518 H522 0.950 . S
H519 C515 0.950 . S
C520 C518 1.390 . S
C520 C521 1.387 . S
C520 H523 0.950 . S
C521 C520 1.387 . S
C521 C524 1.387 . S
H522 C518 0.950 . S
H523 C520 0.950 . S
C524 C515 1.390 . S
C524 H517 0.950 . S
C524 C521 1.387 . S
C525 C526 1.387 . S
C525 H529 0.950 . S
C525 C534 1.390 . S
C526 C525 1.387 . S
C526 C528 1.387 . S
H527 C534 0.950 . S
C528 C526 1.387 . S
C528 C530 1.390 . S
C528 H532 0.950 . S
H529 C525 0.950 . S
C530 C528 1.390 . S
C530 C531 1.387 . S
C530 H533 0.950 . S
C531 C530 1.387 . S
C531 C534 1.387 . S
H532 C528 0.950 . S
H533 C530 0.950 . S
C534 C525 1.390 . S
C534 H527 0.950 . S
C534 C531 1.387 . S
C535 C536 1.387 . S
C535 H539 0.950 . S
C535 C544 1.390 . S
C536 C535 1.387 . S
C536 C538 1.387 . S
H537 C544 0.950 . S
C538 C536 1.387 . S
C538 C540 1.390 . S
C538 H542 0.950 . S
H539 C535 0.950 . S
C540 C538 1.390 . S
C540 C541 1.387 . S
C540 H543 0.950 . S
C541 C540 1.387 . S
C541 C544 1.387 . S
H542 C538 0.950 . S
H543 C540 0.950 . S
C544 C535 1.390 . S
C544 H537 0.950 . S
C544 C541 1.387 . S
C545 C546 1.387 . S
C545 H549 0.950 . S
C545 C554 1.390 . S
C546 C545 1.387 . S
C546 C548 1.387 . S
H547 C554 0.950 . S
C548 C546 1.387 . S
C548 C550 1.390 . S
C548 H552 0.950 . S
H549 C545 0.950 . S
C550 C548 1.390 . S
C550 C551 1.387 . S
C550 H553 0.950 . S
C551 C550 1.387 . S
C551 C554 1.387 . S
H552 C548 0.950 . S
H553 C550 0.950 . S
C554 C545 1.390 . S
C554 H547 0.950 . S
C554 C551 1.387 . S
C555 C556 1.387 . S
C555 H559 0.950 . S
C555 C564 1.390 . S
C556 C555 1.387 . S
C556 C558 1.387 . S
H557 C564 0.950 . S
C558 C556 1.387 . S
C558 C560 1.390 . S
C558 H562 0.950 . S
H559 C555 0.950 . S
C560 C558 1.390 . S
C560 C561 1.387 . S
C560 H563 0.950 . S
C561 C560 1.387 . S
C561 C564 1.387 . S
H562 C558 0.950 . S
H563 C560 0.950 . S
C564 C555 1.390 . S
C564 H557 0.950 . S
C564 C561 1.387 . S
C565 C566 1.387 . S
C565 H569 0.950 . S
C565 C574 1.390 . S
C566 C565 1.387 . S
C566 C568 1.387 . S
H567 C574 0.950 . S
C568 C566 1.387 . S
C568 C570 1.390 . S
C568 H572 0.950 . S
H569 C565 0.950 . S
C570 C568 1.390 . S
C570 C571 1.387 . S
C570 H573 0.950 . S
C571 C570 1.387 . S
C571 C574 1.387 . S
H572 C568 0.950 . S
H573 C570 0.950 . S
C574 C565 1.390 . S
C574 H567 0.950 . S
C574 C571 1.387 . S
C575 C576 1.387 . S
C575 H579 0.950 . S
C575 C584 1.390 . S
C576 C575 1.387 . S
C576 C578 1.387 . S
H577 C584 0.950 . S
C578 C576 1.387 . S
C578 C580 1.390 . S
C578 H582 0.950 . S
H579 C575 0.950 . S
C580 C578 1.390 . S
C580 C581 1.387 . S
C580 H583 0.950 . S
C581 C580 1.387 . S
C581 C584 1.387 . S
H582 C578 0.950 . S
H583 C580 0.950 . S
C584 C575 1.390 . S
C584 H577 0.950 . S
C584 C581 1.387 . S
C585 C586 1.387 . S
C585 H589 0.950 . S
C585 C594 1.390 . S
C586 C585 1.387 . S
C586 C588 1.387 . S
H587 C594 0.950 . S
C588 C586 1.387 . S
C588 C590 1.390 . S
C588 H592 0.950 . S
H589 C585 0.950 . S
C590 C588 1.390 . S
C590 C591 1.387 . S
C590 H593 0.950 . S
C591 C590 1.387 . S
C591 C594 1.387 . S
H592 C588 0.950 . S
H593 C590 0.950 . S
C594 C585 1.390 . S
C594 H587 0.950 . S
C594 C591 1.387 . S
C361 C280 1.183 . S
C356 C17 1.211 . S
C371 C316 1.626 . S
C366 C55 1.748 . S
C381 C281 1.390 . S
C376 C87 1.407 . S
C391 C311 1.523 . S
C386 C113 1.549 . S
C401 C278 1.476 . S
C396 C145 1.444 . S
C406 C183 1.514 . S
C411 C314 1.649 . S
C416 C215 1.300 . S
C421 C283 1.170 . S
C431 C313 1.464 . S
C426 C247 1.464 . S
C441 C317 1.429 . S
C436 C23 1.385 . S
C451 C282 1.530 . S
C446 C49 1.608 . S
C461 C310 1.693 . S
C456 C81 1.705 . S
C471 C279 1.200 . S
C466 C125 1.330 . S
C481 C312 1.585 . S
C476 C151 1.609 . S
C486 C189 1.333 . S
C491 C277 1.434 . S
C496 C209 1.594 . S
C501 C315 1.539 . S
C511 C284 1.206 . S
C506 C241 1.268 . S
C521 C346 1.598 . S
C516 C29 1.643 . S
C526 C157 1.905 . S
C531 C349 1.895 . S
C541 C348 1.657 . S
C536 C177 1.575 . S
C546 C221 2.039 . S
C551 C347 1.999 . S
C561 C350 1.599 . S
C556 C253 1.708 . S
C566 C93 1.794 . S
C571 C344 1.722 . S
C581 C343 1.911 . S
C576 C119 1.945 . S
C586 C61 2.061 . S
C591 C345 1.918 . S
