# Generated by pormake.
# Topology zzz, (3,6)-cn, num edge types: 1
# Building blocks:
#     Node 0, Type 0, BuildingBlock: BETDIP_clean_linker_0, # of connection points: 3
#     Node 1, Type 0, BuildingBlock: BETDIP_clean_linker_0, # of connection points: 3
#     Node 2, Type 0, BuildingBlock: BETDIP_clean_linker_0, # of connection points: 3
#     Node 3, Type 0, BuildingBlock: BETDIP_clean_linker_0, # of connection points: 3
#     Node 4, Type 0, BuildingBlock: BETDIP_clean_linker_0, # of connection points: 3
#     Node 5, Type 0, BuildingBlock: BETDIP_clean_linker_0, # of connection points: 3
#     Node 6, Type 0, BuildingBlock: BETDIP_clean_linker_0, # of connection points: 3
#     Node 7, Type 0, BuildingBlock: BETDIP_clean_linker_0, # of connection points: 3
#     Node 8, Type 1, BuildingBlock: VOLQOD_clean_sbu_1, # of connection points: 6
#     Node 9, Type 1, BuildingBlock: VOLQOD_clean_sbu_1, # of connection points: 6
#     Node 10, Type 1, BuildingBlock: VOLQOD_clean_sbu_1, # of connection points: 6
#     Node 11, Type 1, BuildingBlock: VOLQOD_clean_sbu_1, # of connection points: 6
#     Edge 12, Type (0, 1), BuildingBlock: ZUJKAS_clean_linker_0, # of connection points: 2
#     Edge 13, Type (0, 1), BuildingBlock: ZUJKAS_clean_linker_0, # of connection points: 2
#     Edge 14, Type (0, 1), BuildingBlock: ZUJKAS_clean_linker_0, # of connection points: 2
#     Edge 15, Type (0, 1), BuildingBlock: ZUJKAS_clean_linker_0, # of connection points: 2
#     Edge 16, Type (0, 1), BuildingBlock: ZUJKAS_clean_linker_0, # of connection points: 2
#     Edge 17, Type (0, 1), BuildingBlock: ZUJKAS_clean_linker_0, # of connection points: 2
#     Edge 18, Type (0, 1), BuildingBlock: ZUJKAS_clean_linker_0, # of connection points: 2
#     Edge 19, Type (0, 1), BuildingBlock: ZUJKAS_clean_linker_0, # of connection points: 2
#     Edge 20, Type (0, 1), BuildingBlock: ZUJKAS_clean_linker_0, # of connection points: 2
#     Edge 21, Type (0, 1), BuildingBlock: ZUJKAS_clean_linker_0, # of connection points: 2
#     Edge 22, Type (0, 1), BuildingBlock: ZUJKAS_clean_linker_0, # of connection points: 2
#     Edge 23, Type (0, 1), BuildingBlock: ZUJKAS_clean_linker_0, # of connection points: 2
#     Edge 24, Type (0, 1), BuildingBlock: ZUJKAS_clean_linker_0, # of connection points: 2
#     Edge 25, Type (0, 1), BuildingBlock: ZUJKAS_clean_linker_0, # of connection points: 2
#     Edge 26, Type (0, 1), BuildingBlock: ZUJKAS_clean_linker_0, # of connection points: 2
#     Edge 27, Type (0, 1), BuildingBlock: ZUJKAS_clean_linker_0, # of connection points: 2
#     Edge 28, Type (0, 1), BuildingBlock: ZUJKAS_clean_linker_0, # of connection points: 2
#     Edge 29, Type (0, 1), BuildingBlock: ZUJKAS_clean_linker_0, # of connection points: 2
#     Edge 30, Type (0, 1), BuildingBlock: ZUJKAS_clean_linker_0, # of connection points: 2
#     Edge 31, Type (0, 1), BuildingBlock: ZUJKAS_clean_linker_0, # of connection points: 2
#     Edge 32, Type (0, 1), BuildingBlock: ZUJKAS_clean_linker_0, # of connection points: 2
#     Edge 33, Type (0, 1), BuildingBlock: ZUJKAS_clean_linker_0, # of connection points: 2
#     Edge 34, Type (0, 1), BuildingBlock: ZUJKAS_clean_linker_0, # of connection points: 2
#     Edge 35, Type (0, 1), BuildingBlock: ZUJKAS_clean_linker_0, # of connection points: 2
# Relax obj value: 0.204
# Max RMSD: 0.239
# Mean RMSD: 0.111
data_MOF--net-zzz--node1-VOLQOD_clean_sbu_1--node2-BETDIP_clean_linker_0--edge1-ZUJKAS_clean_linker_0
_symmetry_space_group_name_H-M    P1
_symmetry_Int_Tables_number       1
_symmetry_cell_setting            triclinic
loop_
_symmetry_equiv_pos_as_xyz
'x, y, z'
_cell_length_a     66.142349
_cell_length_b     65.759547
_cell_length_c     22.206891
_cell_angle_alpha  90.171273
_cell_angle_beta   89.8614
_cell_angle_gamma 90.762902
loop_
_atom_site_label
_atom_site_type_symbol
_atom_site_fract_x
_atom_site_fract_y
_atom_site_fract_z
_atom_type_partial_charge
H0 H 0.76573 0.52409 0.24492 0.0
H1 H 0.77531 0.49329 0.07571 0.0
H2 H 0.82195 0.49426 0.2098 0.0
H3 H 0.75611 0.52293 0.0472 0.0
C4 C 0.74387 0.51926 0.07827 0.0
C5 C 0.77516 0.51502 0.21559 0.0
C6 C 0.79453 0.50936 0.23438 0.0
C7 C 0.76815 0.50937 0.15813 0.0
C8 C 0.78066 0.49789 0.11982 0.0
C9 C 0.80002 0.49216 0.13839 0.0
C10 C 0.8067 0.49785 0.19588 0.0
N11 N 0.7485 0.51514 0.13949 0.0
H12 H 0.00341 0.75313 0.2669 0.0
H13 H 0.02848 0.75983 0.08884 0.0
H14 H 0.03371 0.80884 0.2161 0.0
H15 H 0.98862 0.74245 0.08901 0.0
C16 C 0.99727 0.73026 0.109 0.0
C17 C 0.01187 0.76208 0.23434 0.0
C18 C 0.01839 0.78193 0.2489 0.0
C19 C 0.01554 0.75409 0.17667 0.0
C20 C 0.02589 0.76591 0.13358 0.0
C21 C 0.03302 0.78546 0.14834 0.0
C22 C 0.02929 0.79325 0.20601 0.0
N23 N 0.00867 0.73419 0.16194 0.0
H24 H 0.74277 0.00934 0.24029 0.0
H25 H 0.73291 0.04012 0.07208 0.0
H26 H 0.68779 0.04205 0.21072 0.0
H27 H 0.75005 0.01031 0.04078 0.0
C28 C 0.76275 0.01198 0.07149 0.0
C29 C 0.73352 0.01894 0.21226 0.0
C30 C 0.71464 0.02555 0.23328 0.0
C31 C 0.74017 0.02401 0.15403 0.0
C32 C 0.72794 0.03609 0.11705 0.0
C33 C 0.70917 0.04294 0.13779 0.0
C34 C 0.70279 0.03776 0.19599 0.0
N35 N 0.75904 0.01661 0.13309 0.0
H36 H 0.51952 0.73733 0.22642 0.0
H37 H 0.4843 0.73045 0.06438 0.0
H38 H 0.48221 0.6841 0.20014 0.0
H39 H 0.51555 0.74675 0.02965 0.0
C40 C 0.51409 0.75936 0.06111 0.0
C41 C 0.50861 0.72883 0.19969 0.0
C42 C 0.50108 0.71007 0.2203 0.0
C43 C 0.50263 0.73628 0.14341 0.0
C44 C 0.48897 0.72483 0.10792 0.0
C45 C 0.4813 0.70609 0.12844 0.0
C46 C 0.48725 0.69901 0.18504 0.0
N47 N 0.51049 0.75524 0.123 0.0
H48 H 0.24727 0.51364 0.1284 0.0
H49 H 0.23794 0.54684 0.29379 0.0
H50 H 0.18973 0.54059 0.16643 0.0
H51 H 0.27166 0.55449 0.27818 0.0
C52 C 0.27718 0.53942 0.26733 0.0
C53 C 0.23768 0.52267 0.15736 0.0
C54 C 0.21769 0.52671 0.14011 0.0
C55 C 0.24542 0.5306 0.21164 0.0
C56 C 0.23261 0.54165 0.25026 0.0
C57 C 0.21259 0.54552 0.23368 0.0
C58 C 0.20543 0.53828 0.1783 0.0
N59 N 0.26582 0.52665 0.22771 0.0
H60 H 0.05281 0.23575 0.12304 0.0
H61 H 0.01804 0.23183 0.2873 0.0
H62 H 0.04294 0.17795 0.20925 0.0
H63 H 0.00099 0.25868 0.22712 0.0
C64 C 0.01518 0.26724 0.22704 0.0
C65 C 0.04661 0.22684 0.15984 0.0
C66 C 0.04951 0.20571 0.16144 0.0
C67 C 0.03522 0.23637 0.2051 0.0
C68 C 0.0267 0.22462 0.25188 0.0
C69 C 0.02975 0.20361 0.25404 0.0
C70 C 0.04127 0.19435 0.20902 0.0
N71 N 0.03283 0.25781 0.20416 0.0
H72 H 0.25944 0.02185 0.11653 0.0
H73 H 0.27133 0.99336 0.28757 0.0
H74 H 0.32046 0.01624 0.17996 0.0
H75 H 0.24227 0.97486 0.2552 0.0
C76 C 0.2333 0.98831 0.24702 0.0
C77 C 0.26997 0.01701 0.15077 0.0
C78 C 0.29082 0.02034 0.14277 0.0
C79 C 0.26277 0.00708 0.20276 0.0
C80 C 0.27665 0.00061 0.24665 0.0
C81 C 0.29743 0.0041 0.23893 0.0
C82 C 0.30433 0.014 0.18703 0.0
N83 N 0.2416 0.00432 0.21139 0.0
H84 H 0.46805 0.25758 0.11118 0.0
H85 H 0.50196 0.26369 0.27606 0.0
H86 H 0.47804 0.31658 0.19054 0.0
H87 H 0.51879 0.23484 0.21891 0.0
C88 C 0.5042 0.22705 0.22113 0.0
C89 C 0.47424 0.267 0.14694 0.0
C90 C 0.47164 0.28815 0.14582 0.0
C91 C 0.48523 0.25806 0.19379 0.0
C92 C 0.49368 0.27045 0.23933 0.0
C93 C 0.49082 0.29151 0.23886 0.0
C94 C 0.4797 0.30019 0.19222 0.0
N95 N 0.48701 0.23659 0.19613 0.0
O96 O 0.05443 0.99684 0.6632 0.0
Zn97 Zn 0.03404 0.99718 0.73157 0.0
O98 O 0.00606 0.99658 0.70034 0.0
Zn99 Zn 0.99185 0.02066 0.72708 0.0
Zn100 Zn 0.0065 0.99548 0.61213 0.0
Zn101 Zn 0.99109 0.97306 0.73102 0.0
O102 O 0.96686 0.01409 0.77532 0.0
O103 O 0.9652 0.98042 0.77418 0.0
O104 O 0.03953 0.023 0.78018 0.0
O105 O 0.00988 0.03839 0.7773 0.0
O106 O 0.98353 0.03739 0.6567 0.0
O107 O 0.9923 0.01962 0.57581 0.0
O108 O 0.99495 0.96873 0.58132 0.0
O109 O 0.03895 0.97259 0.7846 0.0
O110 O 0.98465 0.95319 0.66471 0.0
O111 O 0.00846 0.95799 0.78843 0.0
C112 C 0.05252 0.99705 0.60609 0.0
C113 C 0.95793 0.99752 0.78948 0.0
C114 C 0.98441 0.03528 0.5998 0.0
C115 C 0.02823 0.03786 0.79423 0.0
C116 C 0.98716 0.95333 0.60787 0.0
C117 C 0.02695 0.95874 0.80408 0.0
O118 O 0.03514 0.99686 0.58157 0.0
O119 O 0.49998 0.05236 0.65929 0.0
Zn120 Zn 0.50053 0.03169 0.72689 0.0
O121 O 0.50477 0.00402 0.69427 0.0
Zn122 Zn 0.4822 0.98637 0.71708 0.0
Zn123 Zn 0.50713 0.00488 0.60634 0.0
Zn124 Zn 0.52924 0.99225 0.72698 0.0
O125 O 0.49068 0.96241 0.76673 0.0
O126 O 0.52405 0.96574 0.77003 0.0
O127 O 0.47348 0.0335 0.77095 0.0
O128 O 0.46153 0.00191 0.76318 0.0
O129 O 0.46773 0.97589 0.64432 0.0
O130 O 0.48451 0.98886 0.56646 0.0
O131 O 0.53445 0.99525 0.57768 0.0
O132 O 0.52338 0.03975 0.78394 0.0
O133 O 0.5501 0.9875 0.66262 0.0
O134 O 0.54168 0.01164 0.78557 0.0
C135 C 0.50191 0.05078 0.60233 0.0
C136 C 0.50788 0.95602 0.78323 0.0
C137 C 0.46995 0.97822 0.58785 0.0
C138 C 0.45964 0.02021 0.78079 0.0
C139 C 0.55009 0.98924 0.60556 0.0
C140 C 0.53842 0.02973 0.80319 0.0
O141 O 0.50475 0.03362 0.57725 0.0
O142 O 0.45627 0.4977 0.65295 0.0
Zn143 Zn 0.47641 0.49673 0.72131 0.0
O144 O 0.50437 0.49878 0.69029 0.0
Zn145 Zn 0.52002 0.47561 0.71721 0.0
Zn146 Zn 0.50415 0.49963 0.602 0.0
Zn147 Zn 0.51756 0.52328 0.72116 0.0
O148 O 0.54407 0.48374 0.76844 0.0
O149 O 0.54324 0.51741 0.76603 0.0
O150 O 0.47185 0.47005 0.76584 0.0
O151 O 0.50232 0.45625 0.76336 0.0
O152 O 0.53005 0.45951 0.64686 0.0
O153 O 0.51839 0.47539 0.56633 0.0
O154 O 0.51671 0.52582 0.57095 0.0
O155 O 0.47012 0.52025 0.77752 0.0
O156 O 0.52398 0.54293 0.65463 0.0
O157 O 0.49922 0.53753 0.77826 0.0
C158 C 0.45811 0.49839 0.59584 0.0
C159 C 0.55159 0.50103 0.78264 0.0
C160 C 0.52803 0.46081 0.59006 0.0
C161 C 0.48375 0.45558 0.77847 0.0
C162 C 0.52323 0.54183 0.59744 0.0
C163 C 0.48104 0.53511 0.79593 0.0
O164 O 0.47547 0.49892 0.57087 0.0
O165 O 0.97721 0.52554 0.60157 0.0
Zn166 Zn 0.00417 0.52393 0.64584 0.0
O167 O 0.0082 0.4965 0.67956 0.0
Zn168 Zn 0.00964 0.4981 0.76761 0.0
Zn169 Zn 0.98587 0.47855 0.65632 0.0
Zn170 Zn 0.03308 0.48479 0.64833 0.0
O171 O 0.03722 0.48983 0.79755 0.0
O172 O 0.05328 0.48019 0.71452 0.0
O173 O 0.0038 0.54507 0.7121 0.0
O174 O 0.00538 0.52688 0.79612 0.0
O175 O 0.98766 0.48109 0.80676 0.0
O176 O 0.97085 0.46828 0.72877 0.0
O177 O 0.99495 0.45455 0.60695 0.0
O178 O 0.02711 0.53174 0.58932 0.0
O179 O 0.02826 0.45849 0.60322 0.0
O180 O 0.04622 0.5042 0.59085 0.0
C181 C 0.96362 0.51207 0.59075 0.0
C182 C 0.05296 0.48313 0.77123 0.0
C183 C 0.97311 0.47046 0.78532 0.0
C184 C 0.00385 0.54388 0.76934 0.0
C185 C 0.01225 0.44853 0.58976 0.0
C186 C 0.04267 0.52206 0.57206 0.0
O187 O 0.96557 0.49381 0.60843 0.0
H188 H 0.21556 0.96041 0.31931 0.0
H189 H 0.1838 0.96316 0.37522 0.0
H190 H 0.17451 0.02265 0.29968 0.0
H191 H 0.20651 0.02008 0.2441 0.0
H192 H 0.16862 0.02142 0.42344 0.0
H193 H 0.12614 0.95868 0.3121 0.0
H194 H 0.15023 0.95098 0.34045 0.0
H195 H 0.14912 0.96944 0.28095 0.0
C196 C 0.20662 0.97398 0.31415 0.0
C197 C 0.21342 0.98996 0.27718 0.0
C198 C 0.18845 0.9755 0.34589 0.0
C199 C 0.17663 0.99297 0.34092 0.0
C200 C 0.18335 0.00898 0.30384 0.0
H201 H 0.05412 0.99998 0.48328 0.0
H202 H 0.08404 0.00038 0.41873 0.0
C203 C 0.20159 0.00747 0.27201 0.0
C204 C 0.15771 0.99477 0.3765 0.0
H205 H 0.1124 0.97114 0.40446 0.0
C206 C 0.15624 0.01054 0.41898 0.0
C207 C 0.14148 0.9807 0.37014 0.0
C208 C 0.14168 0.96412 0.32303 0.0
C209 C 0.1392 0.01227 0.45649 0.0
C210 C 0.1234 0.99763 0.45205 0.0
C211 C 0.12463 0.98221 0.40836 0.0
C212 C 0.10537 0.99802 0.49199 0.0
C213 C 0.13822 0.02987 0.50009 0.0
C214 C 0.10738 0.99641 0.55473 0.0
C215 C 0.09027 0.99625 0.59196 0.0
C216 C 0.07079 0.99749 0.56707 0.0
C217 C 0.06886 0.999 0.50411 0.0
C218 C 0.08596 0.99923 0.46704 0.0
H219 H 0.14846 0.04257 0.48634 0.0
H220 H 0.12259 0.03571 0.50382 0.0
H221 H 0.14302 0.02469 0.5453 0.0
H222 H 0.12219 0.995 0.57491 0.0
H223 H 0.09233 0.99494 0.64016 0.0
H224 H 0.46959 0.20695 0.25797 0.0
H225 H 0.46738 0.17738 0.32468 0.0
H226 H 0.5325 0.17468 0.32952 0.0
H227 H 0.53476 0.20462 0.26451 0.0
H228 H 0.48002 0.13892 0.3148 0.0
H229 H 0.51919 0.17611 0.50634 0.0
H230 H 0.5108 0.19009 0.44146 0.0
H231 H 0.53428 0.17654 0.43917 0.0
C232 C 0.48342 0.19999 0.27306 0.0
C233 C 0.50238 0.2081 0.25645 0.0
C234 C 0.48214 0.18312 0.31125 0.0
C235 C 0.49978 0.17411 0.33329 0.0
C236 C 0.51869 0.18174 0.31459 0.0
H237 H 0.51251 0.05436 0.48389 0.0
H238 H 0.51069 0.08443 0.42033 0.0
C239 C 0.51998 0.1987 0.277 0.0
C240 C 0.49846 0.1567 0.37559 0.0
H241 H 0.51523 0.13996 0.51181 0.0
C242 C 0.48758 0.1392 0.35809 0.0
C243 C 0.50794 0.15722 0.4327 0.0
C244 C 0.51852 0.17609 0.45634 0.0
C245 C 0.48651 0.12196 0.3952 0.0
C246 C 0.49708 0.12204 0.4506 0.0
C247 C 0.50737 0.13979 0.469 0.0
C248 C 0.49806 0.10376 0.48954 0.0
C249 C 0.47387 0.10395 0.37486 0.0
C250 C 0.49229 0.10477 0.55039 0.0
C251 C 0.49365 0.08764 0.58734 0.0
C252 C 0.50077 0.06915 0.56401 0.0
C253 C 0.50672 0.06827 0.50319 0.0
C254 C 0.50555 0.08544 0.46656 0.0
H255 H 0.46182 0.10862 0.3432 0.0
H256 H 0.48368 0.09302 0.35081 0.0
H257 H 0.4667 0.09604 0.41367 0.0
H258 H 0.48662 0.11881 0.56924 0.0
H259 H 0.48895 0.08884 0.63396 0.0
H260 H 0.30071 0.56131 0.343 0.0
H261 H 0.3323 0.55135 0.3908 0.0
H262 H 0.32905 0.49326 0.30036 0.0
H263 H 0.29714 0.50309 0.25288 0.0
H264 H 0.3383 0.49 0.42176 0.0
H265 H 0.38795 0.54763 0.31342 0.0
H266 H 0.3664 0.55874 0.34926 0.0
H267 H 0.36282 0.54176 0.28635 0.0
C268 C 0.30681 0.54646 0.33299 0.0
C269 C 0.29656 0.53304 0.294 0.0
C270 C 0.32491 0.54083 0.36005 0.0
C271 C 0.33324 0.52171 0.3483 0.0
C272 C 0.32296 0.50815 0.30965 0.0
H273 H 0.45584 0.49676 0.47268 0.0
H274 H 0.42574 0.49983 0.40991 0.0
C275 C 0.30477 0.5138 0.2825 0.0
C276 C 0.35233 0.5158 0.37821 0.0
H277 H 0.40102 0.53166 0.40177 0.0
C278 C 0.3521 0.49895 0.41687 0.0
C279 C 0.37042 0.52727 0.37107 0.0
C280 C 0.37202 0.54473 0.32728 0.0
C281 C 0.36924 0.4938 0.45059 0.0
C282 C 0.38693 0.50608 0.44634 0.0
C283 C 0.3874 0.52239 0.40568 0.0
C284 C 0.40495 0.50273 0.48474 0.0
C285 C 0.36821 0.47525 0.49034 0.0
C286 C 0.40332 0.50335 0.54778 0.0
C287 C 0.42049 0.50149 0.58389 0.0
C288 C 0.43973 0.49924 0.55767 0.0
C289 C 0.44129 0.49849 0.49448 0.0
C290 C 0.42409 0.50024 0.45844 0.0
H291 H 0.35656 0.46419 0.47432 0.0
H292 H 0.38302 0.46751 0.49216 0.0
H293 H 0.36402 0.47994 0.53671 0.0
H294 H 0.38881 0.50578 0.56915 0.0
H295 H 0.41872 0.50228 0.63232 0.0
H296 H 0.04842 0.29186 0.24924 0.0
H297 H 0.04934 0.3231 0.30999 0.0
H298 H 0.98482 0.31849 0.33628 0.0
H299 H 0.98385 0.28718 0.27645 0.0
H300 H 0.02881 0.36046 0.29705 0.0
H301 H 0.00705 0.3211 0.50854 0.0
H302 H 0.01546 0.3076 0.44236 0.0
H303 H 0.98989 0.31643 0.44738 0.0
C304 C 0.03443 0.29759 0.26765 0.0
C305 C 0.01605 0.28707 0.25855 0.0
C306 C 0.03498 0.31541 0.30235 0.0
C307 C 0.01721 0.32287 0.32858 0.0
C308 C 0.99877 0.31276 0.31754 0.0
H309 H 0.98151 0.42293 0.55413 0.0
H310 H 0.98383 0.39276 0.49011 0.0
C311 C 0.99821 0.29498 0.28306 0.0
C312 C 0.01784 0.34105 0.36816 0.0
H313 H 0.00657 0.35726 0.51043 0.0
C314 C 0.02413 0.35977 0.34384 0.0
C315 C 0.01177 0.34005 0.42925 0.0
C316 C 0.00584 0.32019 0.4587 0.0
C317 C 0.02384 0.37769 0.37851 0.0
C318 C 0.01738 0.37673 0.43924 0.0
C319 C 0.01142 0.35795 0.46378 0.0
C320 C 0.01623 0.3951 0.47786 0.0
C321 C 0.02985 0.39758 0.34941 0.0
C322 C 0.03374 0.40624 0.4929 0.0
C323 C 0.0325 0.42351 0.52962 0.0
C324 C 0.0137 0.4299 0.55217 0.0
C325 C 0.99623 0.4185 0.53752 0.0
C326 C 0.99751 0.40124 0.50092 0.0
H327 H 0.03007 0.39642 0.29949 0.0
H328 H 0.01932 0.40982 0.36277 0.0
H329 H 0.04524 0.40206 0.36462 0.0
H330 H 0.04839 0.40152 0.47649 0.0
H331 H 0.04627 0.43186 0.54011 0.0
H332 H 0.79912 0.01765 0.12993 0.0
H333 H 0.83307 0.01473 0.08622 0.0
H334 H 0.80685 0.99663 0.91633 0.0
H335 H 0.77296 0.99994 0.95934 0.0
H336 H 0.85303 0.98243 0.03299 0.0
H337 H 0.84256 0.04486 0.86933 0.0
H338 H 0.82536 0.04037 0.93119 0.0
H339 H 0.82351 0.02528 0.86365 0.0
C340 C 0.80062 0.01299 0.08333 0.0
C341 C 0.78343 0.00915 0.04775 0.0
C342 C 0.82001 0.01132 0.05846 0.0
C343 C 0.82247 0.00583 0.99772 0.0
C344 C 0.8053 0.00134 0.96287 0.0
H345 H 0.9314 0.96616 0.8141 0.0
H346 H 0.89911 0.96799 0.86766 0.0
C347 C 0.78597 0.00312 0.98756 0.0
C348 C 0.84293 0.00504 0.97033 0.0
H349 H 0.87159 0.02439 0.85548 0.0
C350 C 0.85716 0.99167 0.99437 0.0
C351 C 0.84838 0.01734 0.92056 0.0
C352 C 0.83423 0.03292 0.895 0.0
C353 C 0.87657 0.98994 0.96906 0.0
C354 C 0.8817 0.00162 0.91765 0.0
C355 C 0.86759 0.01528 0.89449 0.0
C356 C 0.90167 0.00019 0.88731 0.0
C357 C 0.89147 0.97589 0.99822 0.0
C358 C 0.91366 0.01774 0.87933 0.0
C359 C 0.93197 0.01681 0.848 0.0
C360 C 0.93871 0.99828 0.82393 0.0
C361 C 0.92674 0.98066 0.83238 0.0
C362 C 0.90833 0.98164 0.8634 0.0
H363 H 0.88741 0.97275 0.0459 0.0
H364 H 0.89142 0.96117 0.97365 0.0
H365 H 0.90704 0.98239 0.99669 0.0
H366 H 0.9088 0.03223 0.89717 0.0
H367 H 0.94079 0.03068 0.84254 0.0
H368 H 0.50632 0.79508 0.1212 0.0
H369 H 0.50573 0.82935 0.07823 0.0
H370 H 0.52427 0.80525 0.90615 0.0
H371 H 0.52435 0.77092 0.94845 0.0
H372 H 0.53462 0.85334 0.02385 0.0
H373 H 0.47298 0.83487 0.86338 0.0
H374 H 0.47978 0.8181 0.92398 0.0
H375 H 0.49429 0.81849 0.85531 0.0
C376 C 0.51036 0.79712 0.0743 0.0
C377 C 0.51524 0.78036 0.03786 0.0
C378 C 0.51002 0.81669 0.04983 0.0
C379 C 0.51455 0.81978 0.9887 0.0
C380 C 0.52022 0.80314 0.95303 0.0
H381 H 0.54156 0.93377 0.8079 0.0
H382 H 0.54316 0.90135 0.861 0.0
C383 C 0.5204 0.78359 0.97729 0.0
C384 C 0.51303 0.84032 0.96185 0.0
H385 H 0.49013 0.86652 0.84913 0.0
C386 C 0.52482 0.85628 0.98585 0.0
C387 C 0.49995 0.8442 0.91299 0.0
C388 C 0.48588 0.82807 0.88777 0.0
C389 C 0.52424 0.87594 0.96135 0.0
C390 C 0.51186 0.87957 0.91068 0.0
C391 C 0.49977 0.86369 0.88758 0.0
C392 C 0.51111 0.89968 0.8807 0.0
C393 C 0.53662 0.89266 0.99064 0.0
C394 C 0.4925 0.90931 0.87278 0.0
C395 C 0.49147 0.92768 0.84154 0.0
C396 C 0.50907 0.93682 0.81768 0.0
C397 C 0.52773 0.92723 0.82613 0.0
C398 C 0.52871 0.90875 0.85689 0.0
H399 H 0.54014 0.88902 0.03828 0.0
H400 H 0.55117 0.89444 0.96612 0.0
H401 H 0.52863 0.90739 0.98932 0.0
H402 H 0.4787 0.90255 0.89054 0.0
H403 H 0.47686 0.93466 0.83601 0.0
H404 H 0.70909 0.50677 0.13703 0.0
H405 H 0.67531 0.50229 0.09298 0.0
H406 H 0.69796 0.52412 0.92237 0.0
H407 H 0.73173 0.52822 0.96574 0.0
H408 H 0.64951 0.52946 0.03863 0.0
H409 H 0.67223 0.46973 0.87672 0.0
H410 H 0.68812 0.47775 0.93857 0.0
H411 H 0.68741 0.49244 0.87036 0.0
C412 C 0.70682 0.51066 0.09021 0.0
C413 C 0.72303 0.51773 0.05456 0.0
C414 C 0.68754 0.50809 0.06511 0.0
C415 C 0.68422 0.51247 0.00406 0.0
C416 C 0.70028 0.52016 0.96914 0.0
H417 H 0.57382 0.535 0.81223 0.0
H418 H 0.60511 0.53688 0.87005 0.0
C419 C 0.71951 0.52264 0.99405 0.0
C420 C 0.66403 0.50908 0.97652 0.0
H421 H 0.6402 0.48502 0.8596 0.0
C422 C 0.64741 0.51961 -0.00018 0.0
C423 C 0.66122 0.49593 0.92659 0.0
C424 C 0.67815 0.48315 0.90195 0.0
C425 C 0.62822 0.51792 0.97306 0.0
C426 C 0.62571 0.5057 0.92094 0.0
C427 C 0.64217 0.49459 0.89908 0.0
C428 C 0.60632 0.50455 0.88741 0.0
C429 C 0.61082 0.52917 0.00114 0.0
C430 C 0.59685 0.48567 0.87639 0.0
C431 C 0.57905 0.48449 0.84257 0.0
C432 C 0.57038 0.50219 0.81896 0.0
C433 C 0.57995 0.52107 0.83006 0.0
C434 C 0.59779 0.52221 0.86358 0.0
H435 H 0.61358 0.53236 0.04962 0.0
H436 H 0.60906 0.54397 0.97798 0.0
H437 H 0.59644 0.52039 0.99677 0.0
H438 H 0.60325 0.47183 0.89396 0.0
H439 H 0.57211 0.4697 0.83492 0.0
H440 H 0.96694 0.71412 0.04202 0.0
H441 H 0.96596 0.68109 0.99088 0.0
H442 H 0.02587 0.66858 0.05696 0.0
H443 H 0.02613 0.70091 0.11169 0.0
H444 H 0.98612 0.66789 0.90439 0.0
H445 H 0.00112 0.61551 0.09214 0.0
H446 H 0.99584 0.642 0.10462 0.0
H447 H 0.02112 0.63401 0.08617 0.0
C448 C 0.97968 0.70405 0.04654 0.0
C449 C 0.99646 0.70983 0.08134 0.0
C450 C 0.97918 0.68523 0.01714 0.0
C451 C 0.99569 0.67203 0.02073 0.0
C452 C 0.0126 0.67801 0.05516 0.0
H453 H 0.01879 0.58162 0.74281 0.0
H454 H 0.01669 0.61244 0.80423 0.0
C455 C 0.01283 0.69658 0.0861 0.0
C456 C 0.9957 0.65274 0.98525 0.0
H457 H 0.00663 0.60221 0.99268 0.0
C458 C 0.99035 0.65349 0.92407 0.0
C459 C 0.00086 0.63378 0.0107 0.0
C460 C 0.00482 0.63124 0.07716 0.0
C461 C 0.99032 0.63601 0.88762 0.0
C462 C 0.99691 0.61736 0.912 0.0
C463 C 0.0019 0.61651 0.97345 0.0
C464 C 0.99862 0.59852 0.87494 0.0
C465 C 0.98267 0.63778 0.82387 0.0
C466 C 0.99011 0.58008 0.89536 0.0
C467 C 0.992 0.56228 0.86133 0.0
C468 C 0.00209 0.56264 0.80562 0.0
C469 C 0.01064 0.58102 0.78515 0.0
C470 C 0.00927 0.59868 0.82003 0.0
H471 H 0.97175 0.65039 0.81962 0.0
H472 H 0.99556 0.64122 0.79336 0.0
H473 H 0.97512 0.6235 0.80855 0.0
H474 H 0.98189 0.57945 0.93759 0.0
H475 H 0.98526 0.54829 0.87812 0.0
H476 H 0.99012 0.20273 0.28906 0.0
H477 H 0.97371 0.17791 0.35658 0.0
H478 H 0.0315 0.15056 0.39014 0.0
H479 H 0.04788 0.17524 0.32336 0.0
H480 H 0.97487 0.13508 0.33674 0.0
H481 H 0.00641 0.15604 0.55926 0.0
H482 H 0.00628 0.17344 0.49642 0.0
H483 H 0.02555 0.15448 0.50205 0.0
C484 C 0.99932 0.19172 0.31217 0.0
C485 C 0.02023 0.19084 0.30121 0.0
C486 C 0.98995 0.17753 0.35031 0.0
C487 C 0.00144 0.16256 0.37866 0.0
C488 C 0.02242 0.1622 0.36946 0.0
H489 H 0.99308 0.04134 0.48055 0.0
H490 H 0.99102 0.07335 0.42595 0.0
C491 C 0.03174 0.17621 0.3311 0.0
C492 C 0.99162 0.14608 0.41361 0.0
H493 H 0.99515 0.12121 0.54735 0.0
C494 C 0.97888 0.13223 0.38327 0.0
C495 C 0.99664 0.14259 0.47443 0.0
C496 C 0.0093 0.15755 0.51016 0.0
C497 C 0.97227 0.11417 0.41097 0.0
C498 C 0.97881 0.10982 0.47005 0.0
C499 C 0.99027 0.12443 0.50179 0.0
C500 C 0.97593 0.08954 0.49787 0.0
C501 C 0.95882 0.09967 0.37613 0.0
C502 C 0.96777 0.08785 0.55601 0.0
C503 C 0.96913 0.06961 0.58762 0.0
C504 C 0.97876 0.05273 0.56172 0.0
C505 C 0.98552 0.05401 0.50177 0.0
C506 C 0.98424 0.07231 0.47029 0.0
H507 H 0.94955 0.10792 0.34271 0.0
H508 H 0.96837 0.08877 0.35105 0.0
H509 H 0.94859 0.09094 0.40652 0.0
H510 H 0.96132 0.10097 0.57813 0.0
H511 H 0.96362 0.0691 0.63358 0.0
H512 H 0.32827 0.02611 0.28801 0.0
H513 H 0.35545 0.01379 0.35212 0.0
H514 H 0.3276 0.95412 0.35475 0.0
H515 H 0.30026 0.9664 0.28987 0.0
H516 H 0.35258 0.99337 0.46982 0.0
H517 H 0.38719 0.94696 0.28708 0.0
H518 H 0.36978 0.96717 0.27119 0.0
H519 H 0.36059 0.94371 0.30251 0.0
C520 C 0.32786 0.01041 0.30266 0.0
C521 C 0.31229 0.99715 0.2838 0.0
C522 C 0.34333 0.00341 0.33928 0.0
C523 C 0.34359 0.98302 0.35737 0.0
C524 C 0.32769 0.96987 0.3406 0.0
H525 H 0.43814 0.95297 0.61599 0.0
H526 H 0.40681 0.94873 0.55902 0.0
C527 C 0.31206 0.97692 0.30412 0.0
C528 C 0.361 0.97574 0.39228 0.0
H529 H 0.40555 0.95055 0.37709 0.0
C530 C 0.364 0.98367 0.45023 0.0
C531 C 0.37587 0.96327 0.36591 0.0
C532 C 0.3734 0.95478 0.30314 0.0
C533 C 0.38192 0.98014 0.4818 0.0
C534 C 0.39709 0.96813 0.4548 0.0
C535 C 0.39378 0.95958 0.39768 0.0
C536 C 0.41723 0.96636 0.48274 0.0
C537 C 0.38497 0.99027 0.5423 0.0
C538 C 0.43386 0.97651 0.45677 0.0
C539 C 0.45186 0.97889 0.48898 0.0
C540 C 0.45341 0.9712 0.54779 0.0
C541 C 0.43735 0.95934 0.57115 0.0
C542 C 0.41941 0.95691 0.53877 0.0
H543 H 0.37318 0.0017 0.55208 0.0
H544 H 0.38433 0.97858 0.57821 0.0
H545 H 0.40002 0.99791 0.54443 0.0
H546 H 0.43246 0.98381 0.41333 0.0
H547 H 0.46395 0.988 0.4695 0.0
H548 H 0.53008 0.29309 0.27691 0.0
H549 H 0.54545 0.31837 0.34538 0.0
H550 H 0.48706 0.3454 0.3726 0.0
H551 H 0.47173 0.32032 0.30467 0.0
H552 H 0.54355 0.36185 0.32522 0.0
H553 H 0.51045 0.33941 0.54475 0.0
H554 H 0.51204 0.3221 0.48157 0.0
H555 H 0.49203 0.34032 0.48558 0.0
C556 C 0.52053 0.30418 0.29868 0.0
C557 C 0.49975 0.30483 0.28573 0.0
C558 C 0.52931 0.31862 0.33738 0.0
C559 C 0.51733 0.33358 0.36432 0.0
C560 C 0.49649 0.33377 0.35291 0.0
H561 H 0.52032 0.45428 0.47042 0.0
H562 H 0.52418 0.42245 0.41537 0.0
C563 C 0.48778 0.31954 0.31394 0.0
C564 C 0.52649 0.35013 0.40059 0.0
H565 H 0.52103 0.37446 0.53507 0.0
C566 C 0.53907 0.36443 0.37162 0.0
C567 C 0.52085 0.35327 0.46122 0.0
C568 C 0.50826 0.33785 0.49535 0.0
C569 C 0.54486 0.38261 0.40044 0.0
C570 C 0.53766 0.38658 0.45925 0.0
C571 C 0.52642 0.37152 0.48973 0.0
C572 C 0.53945 0.40691 0.48773 0.0
C573 C 0.55809 0.39765 0.367 0.0
C574 C 0.54708 0.40891 0.54633 0.0
C575 C 0.54471 0.42707 0.57821 0.0
C576 C 0.53453 0.44351 0.55215 0.0
C577 C 0.52824 0.44195 0.49187 0.0
C578 C 0.53057 0.42376 0.4601 0.0
H579 H 0.56794 0.38982 0.33389 0.0
H580 H 0.54838 0.40827 0.34171 0.0
H581 H 0.56775 0.40666 0.39836 0.0
H582 H 0.55392 0.39608 0.56852 0.0
H583 H 0.54988 0.42778 0.62442 0.0
H584 H 0.18622 0.5761 0.21074 0.0
H585 H 0.15665 0.58506 0.27129 0.0
H586 H 0.17609 0.54418 0.41066 0.0
H587 H 0.20571 0.53547 0.35077 0.0
H588 H 0.12908 0.5565 0.29273 0.0
H589 H 0.15246 0.58894 0.51126 0.0
H590 H 0.16926 0.58834 0.44699 0.0
H591 H 0.16653 0.56646 0.4952 0.0
C592 C 0.1845 0.56961 0.25528 0.0
C593 C 0.19814 0.555 0.27601 0.0
C594 C 0.16765 0.57476 0.28982 0.0
C595 C 0.16417 0.56539 0.34567 0.0
C596 C 0.17866 0.55201 0.36844 0.0
H597 H 0.07008 0.50323 0.50077 0.0
H598 H 0.09714 0.51884 0.44154 0.0
C599 C 0.19559 0.54696 0.33405 0.0
C600 C 0.14394 0.56633 0.37441 0.0
H601 H 0.12084 0.56892 0.51174 0.0
C602 C 0.12719 0.55984 0.34027 0.0
C603 C 0.14133 0.57086 0.43623 0.0
C604 C 0.15836 0.57925 0.47428 0.0
C605 C 0.10839 0.55602 0.36739 0.0
C606 C 0.10637 0.55856 0.43022 0.0
C607 C 0.12253 0.56677 0.46355 0.0
C608 C 0.08889 0.54976 0.46293 0.0
C609 C 0.09112 0.54817 0.32924 0.0
C610 C 0.07526 0.56205 0.49441 0.0
C611 C 0.05956 0.55313 0.5281 0.0
C612 C 0.05763 0.53182 0.53158 0.0
C613 C 0.07119 0.51968 0.49913 0.0
C614 C 0.08661 0.52856 0.46508 0.0
H615 H 0.09307 0.55258 0.28129 0.0
H616 H 0.0906 0.53131 0.33149 0.0
H617 H 0.07643 0.55398 0.34588 0.0
H618 H 0.07692 0.57846 0.49344 0.0
H619 H 0.04942 0.56286 0.55304 0.0
H620 H 0.06793 0.80777 0.15788 0.0
H621 H 0.07808 0.83663 0.09455 0.0
H622 H 0.02837 0.82337 0.97472 0.0
H623 H 0.01843 0.79431 0.03716 0.0
H624 H 0.0632 0.83947 0.91553 0.0
H625 H 0.04051 0.88527 0.11566 0.0
H626 H 0.06069 0.86765 0.12663 0.0
H627 H 0.03562 0.85829 0.11072 0.0
C628 C 0.05959 0.81068 0.11694 0.0
C629 C 0.04226 0.79903 0.10265 0.0
C630 C 0.06534 0.82717 0.08101 0.0
C631 C 0.05367 0.83239 0.03088 0.0
C632 C 0.03754 0.81961 0.01339 0.0
H633 H 0.00459 0.93306 0.87366 0.0
H634 H 0.01611 0.90374 0.92996 0.0
C635 C 0.03189 0.80299 0.04898 0.0
C636 C 0.05615 0.85251 0.00192 0.0
H637 H 0.04686 0.90282 0.02629 0.0
C638 C 0.0601 0.85341 0.93985 0.0
C639 C 0.05189 0.87063 0.03393 0.0
C640 C 0.04679 0.87054 0.1003 0.0
C641 C 0.05894 0.87186 0.90838 0.0
C642 C 0.0538 0.88974 0.94004 0.0
C643 C 0.05097 0.88904 0.00252 0.0
C644 C 0.04772 0.90835 0.90816 0.0
C645 C 0.06181 0.87194 0.84099 0.0
C646 C 0.06182 0.9209 0.87831 0.0
C647 C 0.05526 0.93788 0.84609 0.0
C648 C 0.03453 0.94235 0.84309 0.0
C649 C 0.02064 0.92999 0.87466 0.0
C650 C 0.02719 0.91323 0.90695 0.0
H651 H 0.06478 0.85651 0.82274 0.0
H652 H 0.04814 0.87801 0.8188 0.0
H653 H 0.07475 0.88208 0.82909 0.0
H654 H 0.07777 0.91741 0.8793 0.0
H655 H 0.06631 0.9471 0.82209 0.0
H656 H 0.68678 0.07686 0.15998 0.0
H657 H 0.65719 0.08795 0.10303 0.0
H658 H 0.66889 0.04208 0.96861 0.0
H659 H 0.69858 0.03128 0.02448 0.0
H660 H 0.65236 0.07731 0.92009 0.0
H661 H 0.6087 0.04955 0.11943 0.0
H662 H 0.6263 0.07015 0.13195 0.0
H663 H 0.63546 0.04545 0.11179 0.0
C664 C 0.68331 0.06957 0.11736 0.0
C665 C 0.69478 0.05304 0.09694 0.0
C666 C 0.6664 0.07586 0.08505 0.0
C667 C 0.66057 0.06549 0.03246 0.0
C668 C 0.67309 0.05026 0.00922 0.0
H669 H 0.56453 0.01032 0.87632 0.0
H670 H 0.59193 0.02509 0.93542 0.0
C671 C 0.6901 0.04411 0.04112 0.0
C672 C 0.64024 0.06816 0.00598 0.0
H673 H 0.59073 0.05547 0.03138 0.0
C674 C 0.63877 0.07309 0.94469 0.0
C675 C 0.62255 0.06253 0.03834 0.0
C676 C 0.6232 0.05649 0.10388 0.0
C677 C 0.62032 0.07113 0.91387 0.0
C678 C 0.60297 0.06423 0.94546 0.0
C679 C 0.60411 0.06087 0.00762 0.0
C680 C 0.58501 0.05624 0.91323 0.0
C681 C 0.61981 0.07477 0.84687 0.0
C682 C 0.57171 0.06896 0.88229 0.0
C683 C 0.55582 0.06049 0.84832 0.0
C684 C 0.55324 0.03924 0.84467 0.0
C685 C 0.56619 0.02673 0.87772 0.0
C686 C 0.58184 0.03515 0.9117 0.0
H687 H 0.63486 0.0793 0.82861 0.0
H688 H 0.61454 0.06078 0.8232 0.0
H689 H 0.60893 0.087 0.83674 0.0
H690 H 0.57386 0.08531 0.88345 0.0
H691 H 0.54609 0.07049 0.82322 0.0
H692 H 0.48879 0.69682 0.01106 0.0
H693 H 0.4748 0.66821 0.95441 0.0
H694 H 0.43313 0.65524 0.09953 0.0
H695 H 0.44734 0.68387 0.15693 0.0
H696 H 0.45596 0.62374 0.07676 0.0
H697 H 0.4263 0.65014 0.85975 0.0
H698 H 0.45076 0.66134 0.8723 0.0
H699 H 0.43021 0.66721 0.92273 0.0
C700 C 0.47608 0.68843 0.02988 0.0
C701 C 0.46927 0.69246 0.0886 0.0
C702 C 0.46799 0.67207 0.99728 0.0
C703 C 0.45277 0.65962 0.02245 0.0
C704 C 0.44481 0.66467 0.07912 0.0
H705 H 0.4412 0.54531 0.81215 0.0
H706 H 0.42823 0.57372 0.87287 0.0
C707 C 0.45297 0.68097 0.11191 0.0
C708 C 0.44828 0.63948 0.99496 0.0
H709 H 0.44223 0.61637 0.8583 0.0
C710 C 0.45227 0.62211 0.02941 0.0
C711 C 0.44319 0.63719 0.93344 0.0
C712 C 0.43716 0.65501 0.89524 0.0
C713 C 0.45338 0.60285 0.00261 0.0
C714 C 0.45066 0.60098 0.93981 0.0
C715 C 0.44459 0.61792 0.90643 0.0
C716 C 0.45761 0.58278 0.90703 0.0
C717 C 0.45876 0.58484 0.04102 0.0
C718 C 0.47832 0.57858 0.90646 0.0
C719 C 0.48572 0.56267 0.87176 0.0
C720 C 0.47255 0.55053 0.837 0.0
C721 C 0.45167 0.55434 0.8389 0.0
C722 C 0.44426 0.57055 0.87326 0.0
H723 H 0.45406 0.58717 0.0886 0.0
H724 H 0.45155 0.57065 0.02372 0.0
H725 H 0.4754 0.58289 0.04026 0.0
H726 H 0.48888 0.58804 0.93157 0.0
H727 H 0.50187 0.5601 0.87138 0.0
H728 H 0.82545 0.46074 0.16261 0.0
H729 H 0.85419 0.44985 0.10137 0.0
H730 H 0.83559 0.48973 0.95866 0.0
H731 H 0.80716 0.50112 0.02014 0.0
H732 H 0.86035 0.43431 0.97813 0.0
H733 H 0.89146 0.51204 0.01963 0.0
H734 H 0.87026 0.50172 0.06134 0.0
H735 H 0.86672 0.5112 0.98635 0.0
C736 C 0.82729 0.46691 0.11773 0.0
C737 C 0.81427 0.48205 0.09656 0.0
C738 C 0.84361 0.46057 0.08272 0.0
C739 C 0.84713 0.46926 0.02608 0.0
C740 C 0.83318 0.48302 0.00264 0.0
H741 H 0.93711 0.45241 0.75417 0.0
H742 H 0.90743 0.44812 0.81809 0.0
C743 C 0.81686 0.48941 0.03765 0.0
C744 C 0.86663 0.46602 0.99515 0.0
H745 H 0.90986 0.49105 0.95358 0.0
C746 C 0.87125 0.44664 0.97277 0.0
C747 C 0.88096 0.48205 0.98973 0.0
C748 C 0.87726 0.50289 0.01596 0.0
C749 C 0.8897 0.44307 0.94319 0.0
C750 C 0.90366 0.45936 0.93559 0.0
C751 C 0.89917 0.47855 0.95949 0.0
C752 C 0.92255 0.4575 0.90011 0.0
C753 C 0.89411 0.42192 0.92076 0.0
C754 C 0.94109 0.46379 0.92512 0.0
C755 C 0.9581 0.46655 0.88848 0.0
C756 C 0.95683 0.46312 0.82606 0.0
C757 C 0.93865 0.45525 0.80203 0.0
C758 C 0.92163 0.45262 0.83865 0.0
H759 H 0.88539 0.41024 0.94635 0.0
H760 H 0.88963 0.42067 0.87276 0.0
H761 H 0.91047 0.41853 0.9242 0.0
H762 H 0.94211 0.46765 0.97249 0.0
H763 H 0.97187 0.4725 0.90856 0.0
H764 H 0.03696 0.20443 0.04525 0.0
H765 H 0.04343 0.17663 0.97444 0.0
H766 H 0.08853 0.15296 0.09428 0.0
H767 H 0.08177 0.18052 0.16576 0.0
H768 H 0.07655 0.15577 0.91456 0.0
H769 H 0.04079 0.11163 0.10133 0.0
H770 H 0.04124 0.13905 0.10033 0.0
H771 H 0.06362 0.12537 0.1197 0.0
C772 C 0.04893 0.19386 0.05505 0.0
C773 C 0.05878 0.19446 0.11095 0.0
C774 C 0.05256 0.17792 0.01475 0.0
C775 C 0.06612 0.16251 0.02987 0.0
C776 C 0.0778 0.16455 0.08226 0.0
H777 H 0.06783 0.04625 0.82532 0.0
H778 H 0.0807 0.07598 0.88164 0.0
C779 C 0.07404 0.18035 0.1228 0.0
C780 C 0.06518 0.14286 0.9971 0.0
H781 H 0.04691 0.09426 0.01126 0.0
C782 C 0.07045 0.14219 0.93585 0.0
C783 C 0.05691 0.12525 0.02499 0.0
C784 C 0.05015 0.12526 0.09004 0.0
C785 C 0.06718 0.12446 0.90141 0.0
C786 C 0.05843 0.10713 0.92906 0.0
C787 C 0.05381 0.10758 0.9906 0.0
C788 C 0.05129 0.0894 0.89363 0.0
C789 C 0.07207 0.12457 0.83509 0.0
C790 C 0.03056 0.08712 0.88257 0.0
C791 C 0.02318 0.07031 0.85076 0.0
C792 C 0.0364 0.05528 0.82957 0.0
C793 C 0.05724 0.05751 0.84116 0.0
C794 C 0.06464 0.0745 0.87294 0.0
H795 H 0.07863 0.13936 0.82014 0.0
H796 H 0.08299 0.11236 0.82479 0.0
H797 H 0.05814 0.12133 0.80876 0.0
H798 H 0.02003 0.09843 0.89859 0.0
H799 H 0.00706 0.06913 0.84289 0.0
H800 H 0.29678 0.00067 0.03749 0.0
H801 H 0.3226 0.00975 0.96275 0.0
H802 H 0.33162 0.06783 0.05014 0.0
H803 H 0.30626 0.05838 0.12625 0.0
H804 H 0.33313 0.04028 0.88168 0.0
H805 H 0.38506 0.03988 0.07878 0.0
H806 H 0.35902 0.03168 0.0843 0.0
H807 H 0.36533 0.05834 0.08172 0.0
C808 C 0.30363 0.01573 0.03895 0.0
C809 C 0.29954 0.0289 0.0871 0.0
C810 C 0.31848 0.02087 0.99657 0.0
C811 C 0.32942 0.03925 0.00188 0.0
C812 C 0.32368 0.05339 0.04603 0.0
H813 H 0.45039 0.05628 0.83763 0.0
H814 H 0.4183 0.0651 0.88668 0.0
C815 C 0.309 0.04814 0.08889 0.0
C816 C 0.34844 0.04205 0.96703 0.0
H817 H 0.39983 0.0429 0.98352 0.0
C818 C 0.3477 0.04119 0.90391 0.0
C819 C 0.3675 0.04315 0.99613 0.0
C820 C 0.36941 0.04316 0.06391 0.0
C821 C 0.36549 0.0407 0.86924 0.0
C822 C 0.38446 0.04089 0.89852 0.0
C823 C 0.38524 0.04285 0.96131 0.0
C824 C 0.40347 0.03642 0.86589 0.0
C825 C 0.36385 0.03943 0.80161 0.0
C826 C 0.40583 0.01729 0.83906 0.0
C827 C 0.42408 0.01213 0.81184 0.0
C828 C 0.44047 0.02601 0.81078 0.0
C829 C 0.43808 0.04526 0.8376 0.0
C830 C 0.41976 0.05035 0.86542 0.0
H831 H 0.34929 0.04566 0.78553 0.0
H832 H 0.3765 0.04781 0.77942 0.0
H833 H 0.3645 0.02325 0.78748 0.0
H834 H 0.39363 0.00613 0.84018 0.0
H835 H 0.42529 0.99719 0.79162 0.0
H836 H 0.48688 0.29117 0.03308 0.0
H837 H 0.47895 0.31786 0.9606 0.0
H838 H 0.42844 0.33606 0.07063 0.0
H839 H 0.43697 0.3099 0.14451 0.0
H840 H 0.44786 0.33237 0.892 0.0
H841 H 0.4654 0.38523 0.08177 0.0
H842 H 0.46918 0.35822 0.08705 0.0
H843 H 0.44419 0.36845 0.09404 0.0
C844 C 0.47362 0.30035 0.04043 0.0
C845 C 0.46253 0.29861 0.09412 0.0
C846 C 0.46914 0.31567 -0.00075 0.0
C847 C 0.45347 0.32934 0.01115 0.0
C848 C 0.44093 0.32604 0.06139 0.0
H849 H 0.44809 0.45052 0.84117 0.0
H850 H 0.4362 0.41975 0.89384 0.0
C851 C 0.44562 0.31095 0.10311 0.0
C852 C 0.45225 0.3484 0.97578 0.0
H853 H 0.46011 0.39975 0.98736 0.0
C854 C 0.45022 0.34713 0.91294 0.0
C855 C 0.45546 0.3677 0.00315 0.0
C856 C 0.45886 0.37008 0.07008 0.0
C857 C 0.45201 0.36453 0.87666 0.0
C858 C 0.45597 0.38361 0.90395 0.0
C859 C 0.45693 0.38507 0.9668 0.0
C860 C 0.46194 0.40169 0.86827 0.0
C861 C 0.45027 0.36233 0.80926 0.0
C862 C 0.48042 0.40171 0.83732 0.0
C863 C 0.48737 0.41922 0.80823 0.0
C864 C 0.47594 0.43711 0.80923 0.0
C865 C 0.45723 0.43698 0.83954 0.0
C866 C 0.45039 0.41944 0.86942 0.0
H867 H 0.44183 0.34824 0.79656 0.0
H868 H 0.44257 0.37563 0.7894 0.0
H869 H 0.46565 0.36151 0.78941 0.0
H870 H 0.48975 0.38828 0.83693 0.0
H871 H 0.50179 0.41871 0.78505 0.0
H872 H 0.197 0.54695 0.05426 0.0
H873 H 0.17397 0.53217 0.98006 0.0
H874 H 0.19418 0.4721 0.02631 0.0
H875 H 0.2169 0.48694 0.10262 0.0
H876 H 0.17536 0.5077 0.88201 0.0
H877 H 0.13467 0.46899 0.07017 0.0
H878 H 0.15462 0.48741 0.08313 0.0
H879 H 0.1606 0.46204 0.0593 0.0
C880 C 0.19687 0.53061 0.04764 0.0
C881 C 0.20849 0.51806 0.08471 0.0
C882 C 0.18372 0.52217 0.00518 0.0
C883 C 0.18193 0.50099 0.99874 0.0
C884 C 0.19495 0.48846 0.03162 0.0
H885 H 0.08805 0.4649 0.73507 0.0
H886 H 0.12046 0.46483 0.78799 0.0
C887 C 0.20812 0.49695 0.07455 0.0
C888 C 0.16503 0.49248 0.96218 0.0
H889 H 0.11936 0.46796 0.97547 0.0
C890 C 0.16325 0.4987 0.90202 0.0
C891 C 0.14912 0.48095 0.98875 0.0
C892 C 0.14966 0.47454 0.05396 0.0
C893 C 0.14563 0.49464 0.86865 0.0
C894 C 0.12953 0.48352 0.8957 0.0
C895 C 0.13173 0.4764 0.95481 0.0
C896 C 0.10951 0.48112 0.86609 0.0
C897 C 0.14393 0.50346 0.80619 0.0
C898 C 0.09229 0.48925 0.89381 0.0
C899 C 0.07367 0.48899 0.86422 0.0
C900 C 0.07189 0.48069 0.80602 0.0
C901 C 0.08894 0.47163 0.77958 0.0
C902 C 0.10753 0.4717 0.80957 0.0
H903 H 0.15577 0.51523 0.79735 0.0
H904 H 0.14574 0.49115 0.77242 0.0
H905 H 0.12889 0.51038 0.79944 0.0
H906 H 0.09341 0.49652 0.93756 0.0
H907 H 0.06089 0.49609 0.88601 0.0
H908 H 0.9804 0.78375 0.29736 0.0
H909 H 0.96876 0.80833 0.37276 0.0
H910 H 0.03024 0.82911 0.39921 0.0
H911 H 0.04195 0.80422 0.32566 0.0
H912 H 0.00813 0.82999 0.504 0.0
H913 H 0.96706 0.86726 0.31664 0.0
H914 H 0.95957 0.84149 0.33277 0.0
H915 H 0.98449 0.84684 0.30396 0.0
C916 C 0.99148 0.79303 0.32099 0.0
C917 C 0.01206 0.79228 0.30518 0.0
C918 C 0.98479 0.80726 0.36341 0.0
C919 C 0.99857 0.82096 0.39021 0.0
C920 C 0.0193 0.81884 0.37865 0.0
H921 H 0.99822 0.94472 0.49178 0.0
H922 H 0.99743 0.91156 0.44214 0.0
C923 C 0.02599 0.80462 0.3366 0.0
C924 C 0.99163 0.83883 0.4252 0.0
H925 H 0.96781 0.8843 0.40936 0.0
C926 C 0.99904 0.84174 0.48378 0.0
C927 C 0.98002 0.85428 0.39819 0.0
C928 C 0.97242 0.8525 0.3343 0.0
C929 C 0.99581 0.85997 0.51533 0.0
C930 C 0.98443 0.87552 0.48798 0.0
C931 C 0.97639 0.8723 0.4303 0.0
C932 C 0.9825 0.89595 0.51588 0.0
C933 C 0.0056 0.86282 0.57617 0.0
C934 C 0.97361 0.89839 0.57282 0.0
C935 C 0.97415 0.91734 0.60156 0.0
C936 C 0.98339 0.93427 0.57354 0.0
C937 C 0.99102 0.93205 0.51476 0.0
C938 C 0.99061 0.91306 0.48631 0.0
H939 H 0.01732 0.85124 0.58484 0.0
H940 H 0.01274 0.87816 0.57996 0.0
H941 H 0.99391 0.8614 0.61185 0.0
H942 H 0.96679 0.88551 0.59579 0.0
H943 H 0.96793 0.91855 0.64658 0.0
H944 H 0.69547 0.04764 0.31964 0.0
H945 H 0.67293 0.0345 0.39764 0.0
H946 H 0.69057 0.97324 0.35413 0.0
H947 H 0.7127 0.98638 0.27411 0.0
H948 H 0.65097 0.97672 0.34883 0.0
H949 H 0.67583 0.01115 0.56287 0.0
H950 H 0.67356 0.03056 0.50699 0.0
H951 H 0.69191 0.01077 0.49706 0.0
C952 C 0.69498 0.0314 0.32787 0.0
C953 C 0.70573 0.01803 0.29055 0.0
C954 C 0.68221 0.02389 0.37291 0.0
C955 C 0.68013 0.00286 0.38224 0.0
C956 C 0.692 0.98953 0.34794 0.0
H957 H 0.58555 0.97363 0.64775 0.0
H958 H 0.61807 0.9722 0.5954 0.0
C959 C 0.70477 0.99706 0.30258 0.0
C960 C 0.66343 0.995 0.42089 0.0
H961 H 0.63964 0.00352 0.5549 0.0
C962 C 0.64874 0.9822 0.39446 0.0
C963 C 0.66057 0.00179 0.48078 0.0
C964 C 0.67646 0.01414 0.51368 0.0
C965 C 0.63067 0.97726 0.42461 0.0
C966 C 0.62695 0.98577 0.48209 0.0
C967 C 0.64227 0.99729 0.51033 0.0
C968 C 0.60681 0.98432 0.51163 0.0
C969 C 0.6156 0.96328 0.39394 0.0
C970 C 0.58958 0.9914 0.48182 0.0
C971 C 0.57093 0.99209 0.5114 0.0
C972 C 0.56917 0.98601 0.57186 0.0
C973 C 0.58635 0.97844 0.6012 0.0
C974 C 0.60498 0.97763 0.57138 0.0
H975 H 0.62332 0.95252 0.3631 0.0
H976 H 0.60656 0.9544 0.42712 0.0
H977 H 0.60516 0.97248 0.36641 0.0
H978 H 0.59069 0.99717 0.43629 0.0
H979 H 0.5581 0.99817 0.48756 0.0
H980 H 0.53874 0.69534 0.23587 0.0
H981 H 0.54815 0.66907 0.30851 0.0
H982 H 0.49052 0.67551 0.39744 0.0
H983 H 0.48087 0.70122 0.32358 0.0
H984 H 0.55009 0.6625 0.43438 0.0
H985 H 0.48827 0.61805 0.3257 0.0
H986 H 0.4974 0.64198 0.2962 0.0
H987 H 0.47996 0.64147 0.3585 0.0
C988 C 0.52847 0.69169 0.27248 0.0
C989 C 0.50913 0.70019 0.2745 0.0
C990 C 0.53379 0.67664 0.3137 0.0
C991 C 0.51982 0.67003 0.35735 0.0
C992 C 0.50135 0.68014 0.36331 0.0
H993 H 0.52879 0.58074 0.63827 0.0
H994 H 0.53128 0.61165 0.57841 0.0
C995 C 0.49592 0.69495 0.32165 0.0
C996 C 0.52327 0.65092 0.3907 0.0
H997 H 0.50338 0.60334 0.4113 0.0
C998 C 0.53995 0.64951 0.42935 0.0
C999 C 0.51037 0.63379 0.38252 0.0
C1000 C 0.49312 0.63375 0.33803 0.0
C1001 C 0.54364 0.63158 0.46173 0.0
C1002 C 0.53006 0.61485 0.45601 0.0
C1003 C 0.51375 0.61616 0.416 0.0
C1004 C 0.53175 0.59605 0.49243 0.0
C1005 C 0.56218 0.63068 0.50101 0.0
C1006 C 0.53116 0.5769 0.46421 0.0
C1007 C 0.52931 0.55915 0.49836 0.0
C1008 C 0.52812 0.5602 0.5615 0.0
C1009 C 0.52978 0.57934 0.58976 0.0
C1010 C 0.53138 0.59709 0.55554 0.0
H1011 H 0.57419 0.64134 0.48494 0.0
H1012 H 0.55808 0.63524 0.54757 0.0
H1013 H 0.5684 0.61509 0.50232 0.0
H1014 H 0.53138 0.57572 0.41554 0.0
H1015 H 0.52817 0.54466 0.47518 0.0
H1016 H 0.80607 0.48624 0.32838 0.0
H1017 H 0.83056 0.496 0.40559 0.0
H1018 H 0.82952 0.55803 0.34312 0.0
H1019 H 0.80489 0.54814 0.26531 0.0
H1020 H 0.86716 0.54152 0.33865 0.0
H1021 H 0.8343 0.527 0.56314 0.0
H1022 H 0.82969 0.50589 0.51354 0.0
H1023 H 0.81885 0.53023 0.49691 0.0
C1024 C 0.81034 0.50213 0.33312 0.0
C1025 C 0.80349 0.5165 0.2916 0.0
C1026 C 0.82434 0.50773 0.37726 0.0
C1027 C 0.83178 0.5278 0.38057 0.0
C1028 C 0.82384 0.54251 0.34175 0.0
H1029 H 0.95132 0.5499 0.55305 0.0
H1030 H 0.91895 0.55841 0.50583 0.0
C1031 C 0.80967 0.53691 0.29772 0.0
C1032 C 0.85014 0.53222 0.41691 0.0
H1033 H 0.87083 0.52308 0.55462 0.0
C1034 C 0.8679 0.5381 0.38633 0.0
C1035 C 0.85108 0.52777 0.47905 0.0
C1036 C 0.83238 0.52258 0.51514 0.0
C1037 C 0.88681 0.5379 0.415 0.0
C1038 C 0.8879 0.53193 0.47598 0.0
C1039 C 0.86997 0.52752 0.50769 0.0
C1040 C 0.90747 0.52744 0.50514 0.0
C1041 C 0.90561 0.5426 0.37873 0.0
C1042 C 0.91166 0.50729 0.52058 0.0
C1043 C 0.92999 0.5024 0.54732 0.0
C1044 C 0.94463 0.51758 0.55956 0.0
C1045 C 0.94045 0.53783 0.5439 0.0
C1046 C 0.92198 0.54272 0.51695 0.0
H1047 H 0.90231 0.54455 0.33007 0.0
H1048 H 0.91272 0.55687 0.39572 0.0
H1049 H 0.91675 0.53024 0.3838 0.0
H1050 H 0.90071 0.49526 0.51158 0.0
H1051 H 0.93259 0.48665 0.55868 0.0
loop_
_geom_bond_atom_site_label_1
_geom_bond_atom_site_label_2
_geom_bond_distance
_geom_bond_site_symmetry_2
_ccdc_geom_bond_type
H0 C5 0.930 . S
H1 C8 0.930 . S
H2 C10 0.930 . S
H3 C4 1.016 . S
C4 H3 1.016 . S
C4 N11 1.286 1_556 S
C5 H0 0.930 . S
C5 C6 1.397 . S
C5 C7 1.361 . S
C6 C5 1.397 . S
C6 C10 1.390 . S
C7 C5 1.361 . S
C7 C8 1.393 1_554 S
C7 N11 1.413 . S
C8 H1 0.930 . S
C8 C7 1.393 1_556 S
C8 C9 1.399 . S
C9 C8 1.399 . S
C9 C10 1.381 1_556 S
C10 H2 0.930 . S
C10 C6 1.390 . S
C10 C9 1.381 1_554 S
N11 C4 1.286 1_554 S
N11 C7 1.413 . S
H12 C17 0.930 . S
H13 C20 0.930 . S
H14 C22 0.942 . S
H15 C16 1.016 . S
C16 H15 1.016 . S
C16 N23 1.286 1_655 S
C17 H12 0.930 . S
C17 C18 1.397 . S
C17 C19 1.361 . S
C18 C17 1.397 . S
C18 C22 1.385 1_455 S
C19 C17 1.361 . S
C19 C20 1.393 . S
C19 N23 1.413 . S
C20 H13 0.930 . S
C20 C19 1.393 . S
C20 C21 1.399 . S
C21 C20 1.399 . S
C21 C22 1.377 1_455 S
C22 H14 0.942 . S
C22 C18 1.385 1_655 S
C22 C21 1.377 1_655 S
N23 C16 1.286 1_455 S
N23 C19 1.413 . S
H24 C29 0.930 . S
H25 C32 0.930 1_556 S
H26 C34 0.930 . S
H27 C28 1.009 1_556 S
C28 H27 1.009 1_554 S
C28 N35 1.286 1_565 S
C29 H24 0.930 . S
C29 C30 1.397 . S
C29 C31 1.361 . S
C30 C29 1.397 . S
C30 C34 1.390 1_545 S
C31 C29 1.361 . S
C31 C32 1.393 . S
C31 N35 1.413 . S
C32 H25 0.930 1_554 S
C32 C31 1.393 . S
C32 C33 1.404 . S
C33 C32 1.404 . S
C33 C34 1.378 1_545 S
C34 H26 0.930 . S
C34 C30 1.390 1_565 S
C34 C33 1.378 1_565 S
N35 C28 1.286 1_545 S
N35 C31 1.413 . S
H36 C41 0.930 . S
H37 C44 0.930 1_556 S
H38 C46 0.930 . S
H39 C40 1.016 1_556 S
C40 H39 1.016 1_554 S
C40 N47 1.286 . S
C41 H36 0.930 . S
C41 C42 1.397 . S
C41 C43 1.361 . S
C42 C41 1.397 . S
C42 C46 1.390 . S
C43 C41 1.361 . S
C43 C44 1.393 . S
C43 N47 1.413 . S
C44 H37 0.930 1_554 S
C44 C43 1.393 . S
C44 C45 1.399 . S
C45 C44 1.399 . S
C45 C46 1.381 . S
C46 H38 0.930 . S
C46 C42 1.390 . S
C46 C45 1.381 . S
N47 C40 1.286 . S
N47 C43 1.413 . S
H48 C53 0.930 . S
H49 C56 0.930 . S
H50 C58 0.930 . S
H51 C52 1.016 . S
C52 H51 1.016 . S
C52 N59 1.286 . S
C53 H48 0.930 . S
C53 C54 1.397 . S
C53 C55 1.361 . S
C54 C53 1.397 . S
C54 C58 1.390 . S
C55 C53 1.361 . S
C55 C56 1.393 . S
C55 N59 1.413 . S
C56 H49 0.930 . S
C56 C55 1.393 . S
C56 C57 1.399 . S
C57 C56 1.399 . S
C57 C58 1.381 . S
C58 H50 0.930 . S
C58 C54 1.390 . S
C58 C57 1.381 . S
N59 C52 1.286 . S
N59 C55 1.413 . S
H60 C65 0.930 . S
H61 C68 0.930 . S
H62 C70 0.930 . S
H63 C64 1.016 . S
C64 H63 1.016 . S
C64 N71 1.286 . S
C65 H60 0.930 . S
C65 C66 1.397 . S
C65 C67 1.361 . S
C66 C65 1.397 . S
C66 C70 1.390 . S
C67 C65 1.361 . S
C67 C68 1.393 . S
C67 N71 1.413 . S
C68 H61 0.930 . S
C68 C67 1.393 . S
C68 C69 1.399 . S
C69 C68 1.399 . S
C69 C70 1.381 . S
C70 H62 0.930 . S
C70 C66 1.390 . S
C70 C69 1.381 . S
N71 C64 1.286 . S
N71 C67 1.413 . S
H72 C77 0.930 . S
H73 C80 0.930 . S
H74 C82 0.930 . S
H75 C76 1.016 . S
C76 H75 1.016 . S
C76 N83 1.286 . S
C77 H72 0.930 . S
C77 C78 1.397 . S
C77 C79 1.361 . S
C78 C77 1.397 . S
C78 C82 1.390 . S
C79 C77 1.361 . S
C79 C80 1.393 . S
C79 N83 1.413 . S
C80 H73 0.930 . S
C80 C79 1.393 . S
C80 C81 1.399 . S
C81 C80 1.399 . S
C81 C82 1.381 . S
C82 H74 0.930 . S
C82 C78 1.390 . S
C82 C81 1.381 . S
N83 C76 1.286 . S
N83 C79 1.413 . S
H84 C89 0.930 . S
H85 C92 0.930 . S
H86 C94 0.930 . S
H87 C88 1.016 . S
C88 H87 1.016 . S
C88 N95 1.286 . S
C89 H84 0.930 . S
C89 C90 1.397 . S
C89 C91 1.361 . S
C90 C89 1.397 . S
C90 C94 1.390 . S
C91 C89 1.361 . S
C91 C92 1.393 . S
C91 N95 1.413 . S
C92 H85 0.930 . S
C92 C91 1.393 . S
C92 C93 1.399 . S
C93 C92 1.399 . S
C93 C94 1.381 . S
C94 H86 0.930 . S
C94 C90 1.390 . S
C94 C93 1.381 . S
N95 C88 1.286 . S
N95 C91 1.413 . S
O96 Zn97 1.956 . S
O96 C112 1.225 1_545 S
Zn97 O96 1.956 . S
Zn97 O98 1.948 1_545 S
Zn97 O104 1.952 . S
Zn97 O109 1.885 1_545 S
O98 Zn97 1.948 1_565 S
O98 Zn99 1.903 1_465 S
O98 Zn100 1.952 . S
O98 Zn101 1.963 1_455 S
Zn99 O98 1.903 1_645 S
Zn99 O102 1.933 . S
Zn99 O105 1.941 1_655 S
Zn99 O106 1.962 1_655 S
Zn100 O98 1.952 . S
Zn100 O107 1.938 1_565 S
Zn100 O108 1.906 . S
Zn100 O118 1.953 . S
Zn101 O98 1.963 1_655 S
Zn101 O103 1.932 . S
Zn101 O110 1.977 . S
Zn101 O111 1.910 1_655 S
O102 Zn99 1.933 . S
O102 C113 1.226 . S
O103 Zn101 1.932 . S
O103 C113 1.307 1_565 S
O104 Zn97 1.952 . S
O104 C115 1.253 . S
O105 Zn99 1.941 1_455 S
O105 C115 1.283 . S
O106 Zn99 1.962 1_455 S
O106 C114 1.334 . S
O107 Zn100 1.938 1_545 S
O107 C114 1.247 . S
O108 Zn100 1.906 . S
O108 C116 1.304 1_455 S
O109 Zn97 1.885 1_565 S
O109 C117 1.311 . S
O110 Zn101 1.977 . S
O110 C116 1.272 . S
O111 Zn101 1.910 1_455 S
O111 C117 1.231 . S
C112 O96 1.225 1_565 S
C112 O118 1.298 . S
C113 O102 1.226 . S
C113 O103 1.307 1_545 S
C114 O106 1.334 . S
C114 O107 1.247 . S
C115 O104 1.253 . S
C115 O105 1.283 . S
C116 O108 1.304 1_655 S
C116 O110 1.272 . S
C117 O109 1.311 . S
C117 O111 1.231 . S
O118 Zn100 1.953 . S
O118 C112 1.298 . S
O119 Zn120 1.953 . S
O119 C135 1.225 . S
Zn120 O119 1.953 . S
Zn120 O121 1.949 . S
Zn120 O127 1.919 . S
Zn120 O132 1.924 . S
O121 Zn120 1.949 . S
O121 Zn122 1.923 1_545 S
O121 Zn123 1.950 . S
O121 Zn124 1.945 1_545 S
Zn122 O121 1.923 1_565 S
Zn122 O125 1.933 . S
Zn122 O128 1.941 . S
Zn122 O129 1.965 . S
Zn123 O121 1.950 . S
Zn123 O130 1.938 . S
Zn123 O131 1.906 . S
Zn123 O141 1.953 . S
Zn124 O121 1.945 1_565 S
Zn124 O126 1.932 . S
Zn124 O133 1.977 . S
Zn124 O134 1.910 1_565 S
O125 Zn122 1.933 . S
O125 C136 1.226 . S
O126 Zn124 1.932 . S
O126 C136 1.307 . S
O127 Zn120 1.919 . S
O127 C138 1.253 . S
O128 Zn122 1.941 . S
O128 C138 1.283 1_565 S
O129 Zn122 1.965 . S
O129 C137 1.303 1_565 S
O130 Zn123 1.938 . S
O130 C137 1.247 . S
O131 Zn123 1.906 . S
O131 C139 1.304 1_545 S
O132 Zn120 1.924 . S
O132 C140 1.311 . S
O133 Zn124 1.977 . S
O133 C139 1.272 . S
O134 Zn124 1.910 1_545 S
O134 C140 1.231 . S
C135 O119 1.225 . S
C135 O141 1.298 . S
C136 O125 1.226 . S
C136 O126 1.307 . S
C137 O129 1.303 1_545 S
C137 O130 1.247 . S
C138 O127 1.253 . S
C138 O128 1.283 1_545 S
C139 O131 1.304 1_565 S
C139 O133 1.272 . S
C140 O132 1.311 . S
C140 O134 1.231 . S
O141 Zn123 1.953 . S
O141 C135 1.298 . S
O142 Zn143 1.953 . S
O142 C158 1.225 . S
Zn143 O142 1.953 . S
Zn143 O144 1.949 . S
Zn143 O150 1.919 . S
Zn143 O155 1.924 . S
O144 Zn143 1.949 . S
O144 Zn145 1.923 . S
O144 Zn146 1.950 . S
O144 Zn147 1.945 . S
Zn145 O144 1.923 . S
Zn145 O148 1.933 . S
Zn145 O151 1.941 . S
Zn145 O152 1.965 . S
Zn146 O144 1.950 . S
Zn146 O153 1.938 . S
Zn146 O154 1.906 . S
Zn146 O164 1.953 . S
Zn147 O144 1.945 . S
Zn147 O149 1.932 . S
Zn147 O156 1.977 . S
Zn147 O157 1.910 . S
O148 Zn145 1.933 . S
O148 C159 1.226 . S
O149 Zn147 1.932 . S
O149 C159 1.307 . S
O150 Zn143 1.919 . S
O150 C161 1.253 . S
O151 Zn145 1.941 . S
O151 C161 1.283 . S
O152 Zn145 1.965 . S
O152 C160 1.303 . S
O153 Zn146 1.938 . S
O153 C160 1.247 . S
O154 Zn146 1.906 . S
O154 C162 1.304 . S
O155 Zn143 1.924 . S
O155 C163 1.311 . S
O156 Zn147 1.977 . S
O156 C162 1.272 . S
O157 Zn147 1.910 . S
O157 C163 1.231 . S
C158 O142 1.225 . S
C158 O164 1.298 . S
C159 O148 1.226 . S
C159 O149 1.307 . S
C160 O152 1.303 . S
C160 O153 1.247 . S
C161 O150 1.253 . S
C161 O151 1.283 . S
C162 O154 1.304 . S
C162 O156 1.272 . S
C163 O155 1.311 . S
C163 O157 1.231 . S
O164 Zn146 1.953 . S
O164 C158 1.298 . S
O165 Zn166 1.926 1_655 S
O165 C181 1.225 . S
Zn166 O165 1.926 1_455 S
Zn166 O167 1.949 . S
Zn166 O173 1.919 . S
Zn166 O178 1.952 . S
O167 Zn166 1.949 . S
O167 Zn168 1.918 1_455 S
O167 Zn169 1.929 1_455 S
O167 Zn170 1.973 . S
Zn168 O167 1.918 1_655 S
Zn168 O171 1.933 1_655 S
Zn168 O174 1.941 . S
Zn168 O175 1.965 . S
Zn169 O167 1.929 1_655 S
Zn169 O176 1.938 . S
Zn169 O177 1.906 . S
Zn169 O187 1.953 . S
Zn170 O167 1.973 . S
Zn170 O172 1.932 . S
Zn170 O179 1.977 . S
Zn170 O180 1.910 . S
O171 Zn168 1.933 1_455 S
O171 C182 1.226 . S
O172 Zn170 1.932 . S
O172 C182 1.307 . S
O173 Zn166 1.919 . S
O173 C184 1.252 . S
O174 Zn168 1.941 . S
O174 C184 1.284 1_655 S
O175 Zn168 1.965 . S
O175 C183 1.303 . S
O176 Zn169 1.938 . S
O176 C183 1.247 . S
O177 Zn169 1.906 . S
O177 C185 1.304 1_655 S
O178 Zn166 1.952 . S
O178 C186 1.311 . S
O179 Zn170 1.977 . S
O179 C185 1.272 . S
O180 Zn170 1.910 . S
O180 C186 1.231 . S
C181 O165 1.225 . S
C181 O187 1.298 . S
C182 O171 1.226 . S
C182 O172 1.307 . S
C183 O175 1.303 . S
C183 O176 1.247 . S
C184 O173 1.252 . S
C184 O174 1.284 1_455 S
C185 O177 1.304 1_455 S
C185 O179 1.272 . S
C186 O178 1.311 . S
C186 O180 1.231 . S
O187 Zn169 1.953 . S
O187 C181 1.298 . S
H188 C196 0.929 . S
H189 C198 0.930 . S
H190 C200 0.930 . S
H191 C203 0.929 . S
H192 C206 0.930 . S
H193 C208 0.960 . S
H194 C208 0.960 . S
H195 C208 0.960 . S
C196 H188 0.929 . S
C196 C197 1.377 . S
C196 C198 1.384 . S
C197 C196 1.377 . S
C197 C203 1.390 1_545 S
C198 H189 0.930 . S
C198 C196 1.384 . S
C198 C199 1.372 . S
C199 C198 1.372 . S
C199 C200 1.400 1_545 S
C199 C204 1.490 . S
C200 H190 0.930 . S
C200 C199 1.400 1_565 S
C200 C203 1.386 . S
H201 C217 0.930 . S
H202 C218 0.931 . S
C203 H191 0.929 . S
C203 C197 1.390 1_565 S
C203 C200 1.386 . S
C204 C199 1.490 . S
C204 C206 1.395 . S
C204 C207 1.403 1_545 S
H205 C211 0.930 . S
C206 H192 0.930 . S
C206 C204 1.395 . S
C206 C209 1.403 . S
C207 C204 1.403 1_565 S
C207 C208 1.524 . S
C207 C211 1.400 . S
C208 H193 0.960 . S
C208 H194 0.960 . S
C208 H195 0.960 . S
C208 C207 1.524 . S
C209 C206 1.403 . S
C209 C210 1.392 . S
C209 C213 1.495 . S
C210 C209 1.392 . S
C210 C211 1.385 1_545 S
C210 C212 1.478 . S
C211 H205 0.930 . S
C211 C207 1.400 . S
C211 C210 1.385 1_565 S
C212 C210 1.478 . S
C212 C214 1.381 . S
C212 C218 1.383 1_545 S
C213 C209 1.495 . S
C213 H219 0.959 . S
C213 H220 0.961 . S
C213 H221 0.960 . S
C214 C212 1.381 . S
C214 C215 1.394 . S
C214 H222 0.930 . S
C215 C214 1.394 . S
C215 C216 1.390 . S
C215 H223 0.929 . S
C216 C215 1.390 . S
C216 C217 1.372 1_545 S
C217 H201 0.930 . S
C217 C216 1.372 1_565 S
C217 C218 1.379 . S
C218 H202 0.931 . S
C218 C212 1.383 1_565 S
C218 C217 1.379 . S
H219 C213 0.959 . S
H220 C213 0.961 . S
H221 C213 0.960 . S
H222 C214 0.930 . S
H223 C215 0.929 . S
H224 C232 0.929 . S
H225 C234 0.930 . S
H226 C236 0.930 . S
H227 C239 0.929 . S
H228 C242 0.930 . S
H229 C244 0.960 . S
H230 C244 0.960 . S
H231 C244 0.960 . S
C232 H224 0.929 . S
C232 C233 1.377 . S
C232 C234 1.384 . S
C233 C232 1.377 . S
C233 C239 1.390 . S
C234 H225 0.930 . S
C234 C232 1.384 . S
C234 C235 1.372 . S
C235 C234 1.372 . S
C235 C236 1.400 . S
C235 C240 1.490 . S
C236 H226 0.930 . S
C236 C235 1.400 . S
C236 C239 1.386 . S
H237 C253 0.930 . S
H238 C254 0.931 . S
C239 H227 0.929 . S
C239 C233 1.390 . S
C239 C236 1.386 . S
C240 C235 1.490 . S
C240 C242 1.395 . S
C240 C243 1.403 . S
H241 C247 0.930 . S
C242 H228 0.930 . S
C242 C240 1.395 . S
C242 C245 1.403 . S
C243 C240 1.403 . S
C243 C244 1.524 . S
C243 C247 1.400 . S
C244 H229 0.960 . S
C244 H230 0.960 . S
C244 H231 0.960 . S
C244 C243 1.524 . S
C245 C242 1.403 . S
C245 C246 1.392 . S
C245 C249 1.495 . S
C246 C245 1.392 . S
C246 C247 1.385 . S
C246 C248 1.478 . S
C247 H241 0.930 . S
C247 C243 1.400 . S
C247 C246 1.385 . S
C248 C246 1.478 . S
C248 C250 1.381 . S
C248 C254 1.383 . S
C249 C245 1.495 . S
C249 H255 0.959 . S
C249 H256 0.961 . S
C249 H257 0.960 . S
C250 C248 1.381 . S
C250 C251 1.394 . S
C250 H258 0.930 . S
C251 C250 1.394 . S
C251 C252 1.383 . S
C251 H259 0.929 . S
C252 C251 1.383 . S
C252 C253 1.377 . S
C253 H237 0.930 . S
C253 C252 1.377 . S
C253 C254 1.379 . S
C254 H238 0.931 . S
C254 C248 1.383 . S
C254 C253 1.379 . S
H255 C249 0.959 . S
H256 C249 0.961 . S
H257 C249 0.960 . S
H258 C250 0.930 . S
H259 C251 0.929 . S
H260 C268 0.929 . S
H261 C270 0.930 . S
H262 C272 0.930 . S
H263 C275 0.929 . S
H264 C278 0.930 . S
H265 C280 0.960 . S
H266 C280 0.960 . S
H267 C280 0.960 . S
C268 H260 0.929 . S
C268 C269 1.377 . S
C268 C270 1.384 . S
C269 C268 1.377 . S
C269 C275 1.390 . S
C270 H261 0.930 . S
C270 C268 1.384 . S
C270 C271 1.372 . S
C271 C270 1.372 . S
C271 C272 1.400 . S
C271 C276 1.490 . S
C272 H262 0.930 . S
C272 C271 1.400 . S
C272 C275 1.386 . S
H273 C289 0.930 . S
H274 C290 0.931 . S
C275 H263 0.929 . S
C275 C269 1.390 . S
C275 C272 1.386 . S
C276 C271 1.490 . S
C276 C278 1.395 . S
C276 C279 1.403 . S
H277 C283 0.930 . S
C278 H264 0.930 . S
C278 C276 1.395 . S
C278 C281 1.403 . S
C279 C276 1.403 . S
C279 C280 1.524 . S
C279 C283 1.400 . S
C280 H265 0.960 . S
C280 H266 0.960 . S
C280 H267 0.960 . S
C280 C279 1.524 . S
C281 C278 1.403 . S
C281 C282 1.392 . S
C281 C285 1.495 . S
C282 C281 1.392 . S
C282 C283 1.385 . S
C282 C284 1.478 . S
C283 H277 0.930 . S
C283 C279 1.400 . S
C283 C282 1.385 . S
C284 C282 1.478 . S
C284 C286 1.381 . S
C284 C290 1.383 . S
C285 C281 1.495 . S
C285 H291 0.959 . S
C285 H292 0.961 . S
C285 H293 0.960 . S
C286 C284 1.381 . S
C286 C287 1.394 . S
C286 H294 0.930 . S
C287 C286 1.394 . S
C287 C288 1.383 . S
C287 H295 0.929 . S
C288 C287 1.383 . S
C288 C289 1.377 . S
C289 H273 0.930 . S
C289 C288 1.377 . S
C289 C290 1.379 . S
C290 H274 0.931 . S
C290 C284 1.383 . S
C290 C289 1.379 . S
H291 C285 0.959 . S
H292 C285 0.961 . S
H293 C285 0.960 . S
H294 C286 0.930 . S
H295 C287 0.929 . S
H296 C304 0.929 . S
H297 C306 0.930 . S
H298 C308 0.930 . S
H299 C311 0.929 . S
H300 C314 0.930 . S
H301 C316 0.960 1_655 S
H302 C316 0.960 . S
H303 C316 0.960 1_655 S
C304 H296 0.929 . S
C304 C305 1.377 . S
C304 C306 1.384 . S
C305 C304 1.377 . S
C305 C311 1.390 . S
C306 H297 0.930 . S
C306 C304 1.384 . S
C306 C307 1.372 . S
C307 C306 1.372 . S
C307 C308 1.400 . S
C307 C312 1.490 . S
C308 H298 0.930 . S
C308 C307 1.400 . S
C308 C311 1.386 . S
H309 C325 0.930 . S
H310 C326 0.915 1_655 S
C311 H299 0.929 . S
C311 C305 1.390 . S
C311 C308 1.386 . S
C312 C307 1.490 . S
C312 C314 1.395 . S
C312 C315 1.403 . S
H313 C319 0.930 . S
C314 H300 0.930 . S
C314 C312 1.395 . S
C314 C317 1.403 . S
C315 C312 1.403 . S
C315 C316 1.524 . S
C315 C319 1.400 . S
C316 H301 0.960 1_455 S
C316 H302 0.960 . S
C316 H303 0.960 1_455 S
C316 C315 1.524 . S
C317 C314 1.403 . S
C317 C318 1.392 . S
C317 C321 1.495 . S
C318 C317 1.392 . S
C318 C319 1.385 . S
C318 C320 1.478 . S
C319 H313 0.930 . S
C319 C315 1.400 . S
C319 C318 1.385 . S
C320 C318 1.478 . S
C320 C322 1.381 . S
C320 C326 1.403 . S
C321 C317 1.495 . S
C321 H327 0.959 . S
C321 H328 0.961 . S
C321 H329 0.960 . S
C322 C320 1.381 . S
C322 C323 1.394 . S
C322 H330 0.930 . S
C323 C322 1.394 . S
C323 C324 1.383 . S
C323 H331 0.929 . S
C324 C323 1.383 . S
C324 C325 1.377 1_455 S
C325 H309 0.930 . S
C325 C324 1.377 1_655 S
C325 C326 1.375 1_655 S
C326 H310 0.915 1_455 S
C326 C320 1.403 . S
C326 C325 1.375 1_455 S
H327 C321 0.959 . S
H328 C321 0.961 . S
H329 C321 0.960 . S
H330 C322 0.930 . S
H331 C323 0.929 . S
H332 C340 0.929 . S
H333 C342 0.930 . S
H334 C344 0.930 . S
H335 C347 0.929 . S
H336 C350 0.930 1_554 S
H337 C352 0.960 . S
H338 C352 0.960 . S
H339 C352 0.960 . S
C340 H332 0.929 . S
C340 C341 1.379 1_545 S
C340 C342 1.384 . S
C341 C340 1.379 1_565 S
C341 C347 1.388 1_554 S
C342 H333 0.930 . S
C342 C340 1.384 . S
C342 C343 1.395 1_554 S
C343 C342 1.395 1_556 S
C343 C344 1.378 1_545 S
C343 C348 1.490 . S
C344 H334 0.930 . S
C344 C343 1.378 1_565 S
C344 C347 1.386 . S
H345 C361 0.930 . S
H346 C362 0.931 . S
C347 H335 0.929 . S
C347 C341 1.388 1_556 S
C347 C344 1.386 . S
C348 C343 1.490 . S
C348 C350 1.375 1_545 S
C348 C351 1.423 . S
H349 C355 0.930 . S
C350 H336 0.930 1_556 S
C350 C348 1.375 1_565 S
C350 C353 1.403 . S
C351 C348 1.423 . S
C351 C352 1.524 . S
C351 C355 1.400 . S
C352 H337 0.960 . S
C352 H338 0.960 . S
C352 H339 0.960 . S
C352 C351 1.524 . S
C353 C350 1.403 . S
C353 C354 1.407 . S
C353 C357 1.495 . S
C354 C353 1.407 . S
C354 C355 1.370 1_565 S
C354 C356 1.477 . S
C355 H349 0.930 . S
C355 C351 1.400 . S
C355 C354 1.370 1_545 S
C356 C354 1.477 . S
C356 C358 1.355 1_565 S
C356 C362 1.409 . S
C357 C353 1.495 . S
C357 H363 0.959 1_556 S
C357 H364 0.961 . S
C357 H365 0.960 . S
C358 C356 1.355 1_545 S
C358 C359 1.394 . S
C358 H366 0.930 . S
C359 C358 1.394 . S
C359 C360 1.406 . S
C359 H367 0.929 . S
C360 C359 1.406 . S
C360 C361 1.354 1_545 S
C361 H345 0.930 . S
C361 C360 1.354 1_565 S
C361 C362 1.379 . S
C362 H346 0.931 . S
C362 C356 1.409 . S
C362 C361 1.379 . S
H363 C357 0.959 1_554 S
H364 C357 0.961 . S
H365 C357 0.960 . S
H366 C358 0.930 . S
H367 C359 0.929 . S
H368 C376 0.929 . S
H369 C378 0.930 . S
H370 C380 0.930 . S
H371 C383 0.929 . S
H372 C386 0.930 . S
H373 C388 0.960 . S
H374 C388 0.960 . S
H375 C388 0.960 . S
C376 H368 0.929 . S
C376 C377 1.377 . S
C376 C378 1.384 . S
C377 C376 1.377 . S
C377 C383 1.390 . S
C378 H369 0.930 . S
C378 C376 1.384 . S
C378 C379 1.372 . S
C379 C378 1.372 . S
C379 C380 1.400 . S
C379 C384 1.490 . S
C380 H370 0.930 . S
C380 C379 1.400 . S
C380 C383 1.386 . S
H381 C397 0.930 . S
H382 C398 0.931 . S
C383 H371 0.929 . S
C383 C377 1.390 . S
C383 C380 1.386 . S
C384 C379 1.490 . S
C384 C386 1.395 . S
C384 C387 1.403 . S
H385 C391 0.930 . S
C386 H372 0.930 . S
C386 C384 1.395 . S
C386 C389 1.403 . S
C387 C384 1.403 . S
C387 C388 1.524 . S
C387 C391 1.400 . S
C388 H373 0.960 . S
C388 H374 0.960 . S
C388 H375 0.960 . S
C388 C387 1.524 . S
C389 C386 1.403 . S
C389 C390 1.392 . S
C389 C393 1.495 . S
C390 C389 1.392 . S
C390 C391 1.385 . S
C390 C392 1.478 . S
C391 H385 0.930 . S
C391 C387 1.400 . S
C391 C390 1.385 . S
C392 C390 1.478 . S
C392 C394 1.381 . S
C392 C398 1.383 . S
C393 C389 1.495 . S
C393 H399 0.959 . S
C393 H400 0.961 . S
C393 H401 0.960 . S
C394 C392 1.381 . S
C394 C395 1.394 . S
C394 H402 0.930 . S
C395 C394 1.394 . S
C395 C396 1.383 . S
C395 H403 0.929 . S
C396 C395 1.383 . S
C396 C397 1.377 . S
C397 H381 0.930 . S
C397 C396 1.377 . S
C397 C398 1.379 . S
C398 H382 0.931 . S
C398 C392 1.383 . S
C398 C397 1.379 . S
H399 C393 0.959 . S
H400 C393 0.961 . S
H401 C393 0.960 . S
H402 C394 0.930 . S
H403 C395 0.929 . S
H404 C412 0.929 1_554 S
H405 C414 0.930 . S
H406 C416 0.930 . S
H407 C419 0.929 . S
H408 C422 0.930 . S
H409 C424 0.960 . S
H410 C424 0.960 . S
H411 C424 0.960 . S
C412 H404 0.929 1_556 S
C412 C413 1.377 . S
C412 C414 1.384 . S
C413 C412 1.377 . S
C413 C419 1.390 . S
C414 H405 0.930 . S
C414 C412 1.384 . S
C414 C415 1.372 . S
C415 C414 1.372 . S
C415 C416 1.400 . S
C415 C420 1.490 . S
C416 H406 0.930 . S
C416 C415 1.400 . S
C416 C419 1.386 . S
H417 C433 0.930 . S
H418 C434 0.931 . S
C419 H407 0.929 . S
C419 C413 1.390 . S
C419 C416 1.386 . S
C420 C415 1.490 . S
C420 C422 1.395 . S
C420 C423 1.403 . S
H421 C427 0.930 . S
C422 H408 0.930 . S
C422 C420 1.395 . S
C422 C425 1.403 . S
C423 C420 1.403 . S
C423 C424 1.524 . S
C423 C427 1.400 . S
C424 H409 0.960 . S
C424 H410 0.960 . S
C424 H411 0.960 . S
C424 C423 1.524 . S
C425 C422 1.403 . S
C425 C426 1.392 . S
C425 C429 1.495 . S
C426 C425 1.392 . S
C426 C427 1.385 . S
C426 C428 1.478 . S
C427 H421 0.930 . S
C427 C423 1.400 . S
C427 C426 1.385 . S
C428 C426 1.478 . S
C428 C430 1.381 . S
C428 C434 1.383 . S
C429 C425 1.495 . S
C429 H435 0.959 . S
C429 H436 0.961 . S
C429 H437 0.960 . S
C430 C428 1.381 . S
C430 C431 1.394 . S
C430 H438 0.930 . S
C431 C430 1.394 . S
C431 C432 1.383 . S
C431 H439 0.929 . S
C432 C431 1.383 . S
C432 C433 1.377 . S
C433 H417 0.930 . S
C433 C432 1.377 . S
C433 C434 1.379 . S
C434 H418 0.931 . S
C434 C428 1.383 . S
C434 C433 1.379 . S
H435 C429 0.959 . S
H436 C429 0.961 . S
H437 C429 0.960 . S
H438 C430 0.930 . S
H439 C431 0.929 . S
H440 C448 0.929 . S
H441 C450 0.930 1_556 S
H442 C452 0.930 . S
H443 C455 0.929 . S
H444 C458 0.930 . S
H445 C460 0.960 . S
H446 C460 0.960 . S
H447 C460 0.960 . S
C448 H440 0.929 . S
C448 C449 1.377 . S
C448 C450 1.384 . S
C449 C448 1.377 . S
C449 C455 1.390 1_655 S
C450 H441 0.930 1_554 S
C450 C448 1.384 . S
C450 C451 1.372 1_554 S
C451 C450 1.372 1_556 S
C451 C452 1.400 1_655 S
C451 C456 1.492 . S
C452 H442 0.930 . S
C452 C451 1.400 1_455 S
C452 C455 1.386 1_556 S
H453 C469 0.930 . S
H454 C470 0.931 . S
C455 H443 0.929 . S
C455 C449 1.390 1_455 S
C455 C452 1.386 1_554 S
C456 C451 1.492 . S
C456 C458 1.422 . S
C456 C459 1.377 1_655 S
H457 C463 0.930 . S
C458 H444 0.930 . S
C458 C456 1.422 . S
C458 C461 1.403 . S
C459 C456 1.377 1_455 S
C459 C460 1.524 1_556 S
C459 C463 1.400 . S
C460 H445 0.960 . S
C460 H446 0.960 . S
C460 H447 0.960 . S
C460 C459 1.524 1_554 S
C461 C458 1.403 . S
C461 C462 1.392 . S
C461 C465 1.495 . S
C462 C461 1.392 . S
C462 C463 1.385 1_655 S
C462 C464 1.478 1_655 S
C463 H457 0.930 . S
C463 C459 1.400 . S
C463 C462 1.385 1_455 S
C464 C462 1.478 1_455 S
C464 C466 1.386 1_455 S
C464 C470 1.377 . S
C465 C461 1.495 . S
C465 H471 0.959 . S
C465 H472 0.961 . S
C465 H473 0.960 . S
C466 C464 1.386 1_655 S
C466 C467 1.394 . S
C466 H474 0.930 . S
C467 C466 1.394 . S
C467 C468 1.383 1_655 S
C467 H475 0.929 . S
C468 C467 1.383 1_455 S
C468 C469 1.377 . S
C469 H453 0.930 . S
C469 C468 1.377 . S
C469 C470 1.379 . S
C470 H454 0.931 . S
C470 C464 1.377 . S
C470 C469 1.379 . S
H471 C465 0.959 . S
H472 C465 0.961 . S
H473 C465 0.960 . S
H474 C466 0.930 . S
H475 C467 0.929 . S
H476 C484 0.929 . S
H477 C486 0.930 . S
H478 C488 0.930 . S
H479 C491 0.929 . S
H480 C494 0.930 . S
H481 C496 0.960 . S
H482 C496 0.960 . S
H483 C496 0.960 . S
C484 H476 0.929 . S
C484 C485 1.377 . S
C484 C486 1.384 . S
C485 C484 1.377 . S
C485 C491 1.390 . S
C486 H477 0.930 . S
C486 C484 1.384 . S
C486 C487 1.372 . S
C487 C486 1.372 . S
C487 C488 1.400 . S
C487 C492 1.490 . S
C488 H478 0.930 . S
C488 C487 1.400 . S
C488 C491 1.386 . S
H489 C505 0.930 . S
H490 C506 0.931 . S
C491 H479 0.929 . S
C491 C485 1.390 . S
C491 C488 1.386 . S
C492 C487 1.490 . S
C492 C494 1.395 . S
C492 C495 1.403 . S
H493 C499 0.930 . S
C494 H480 0.930 . S
C494 C492 1.395 . S
C494 C497 1.403 . S
C495 C492 1.403 . S
C495 C496 1.524 . S
C495 C499 1.400 . S
C496 H481 0.960 . S
C496 H482 0.960 . S
C496 H483 0.960 . S
C496 C495 1.524 . S
C497 C494 1.403 . S
C497 C498 1.392 . S
C497 C501 1.495 . S
C498 C497 1.392 . S
C498 C499 1.385 . S
C498 C500 1.478 . S
C499 H493 0.930 . S
C499 C495 1.400 . S
C499 C498 1.385 . S
C500 C498 1.478 . S
C500 C502 1.381 . S
C500 C506 1.383 . S
C501 C497 1.495 . S
C501 H507 0.959 . S
C501 H508 0.961 . S
C501 H509 0.960 . S
C502 C500 1.381 . S
C502 C503 1.394 . S
C502 H510 0.930 1_455 S
C503 C502 1.394 . S
C503 C504 1.383 . S
C503 H511 0.929 1_455 S
C504 C503 1.383 . S
C504 C505 1.377 . S
C505 H489 0.930 . S
C505 C504 1.377 . S
C505 C506 1.379 . S
C506 H490 0.931 . S
C506 C500 1.383 . S
C506 C505 1.379 . S
H507 C501 0.959 . S
H508 C501 0.961 . S
H509 C501 0.960 . S
H510 C502 0.930 1_655 S
H511 C503 0.929 1_655 S
H512 C520 0.929 . S
H513 C522 0.930 . S
H514 C524 0.937 . S
H515 C527 0.934 . S
H516 C530 0.930 . S
H517 C532 0.960 . S
H518 C532 0.960 . S
H519 C532 0.960 . S
C520 H512 0.929 . S
C520 C521 1.377 . S
C520 C522 1.384 . S
C521 C520 1.377 . S
C521 C527 1.390 . S
C522 H513 0.930 . S
C522 C520 1.384 . S
C522 C523 1.372 . S
C523 C522 1.372 . S
C523 C524 1.400 . S
C523 C528 1.490 . S
C524 H514 0.937 . S
C524 C523 1.400 . S
C524 C527 1.386 . S
H525 C541 0.930 . S
H526 C542 0.931 . S
C527 H515 0.934 . S
C527 C521 1.390 . S
C527 C524 1.386 . S
C528 C523 1.490 . S
C528 C530 1.395 1_545 S
C528 C531 1.403 . S
H529 C535 0.930 . S
C530 H516 0.930 . S
C530 C528 1.395 1_565 S
C530 C533 1.403 . S
C531 C528 1.403 . S
C531 C532 1.524 . S
C531 C535 1.400 . S
C532 H517 0.960 . S
C532 H518 0.960 . S
C532 H519 0.960 . S
C532 C531 1.524 . S
C533 C530 1.403 . S
C533 C534 1.392 1_565 S
C533 C537 1.495 . S
C534 C533 1.392 1_545 S
C534 C535 1.385 . S
C534 C536 1.478 . S
C535 H529 0.930 . S
C535 C531 1.400 . S
C535 C534 1.385 . S
C536 C534 1.478 . S
C536 C538 1.381 . S
C536 C542 1.383 1_545 S
C537 C533 1.495 . S
C537 H543 0.959 . S
C537 H544 0.961 . S
C537 H545 0.960 . S
C538 C536 1.381 . S
C538 C539 1.394 . S
C538 H546 0.930 . S
C539 C538 1.394 . S
C539 C540 1.383 . S
C539 H547 0.929 . S
C540 C539 1.383 . S
C540 C541 1.377 1_545 S
C541 H525 0.930 . S
C541 C540 1.377 1_565 S
C541 C542 1.379 . S
C542 H526 0.931 . S
C542 C536 1.383 1_565 S
C542 C541 1.379 . S
H543 C537 0.959 . S
H544 C537 0.961 . S
H545 C537 0.960 . S
H546 C538 0.930 . S
H547 C539 0.929 . S
H548 C556 0.929 . S
H549 C558 0.930 . S
H550 C560 0.930 . S
H551 C563 0.929 . S
H552 C566 0.930 . S
H553 C568 0.960 . S
H554 C568 0.960 . S
H555 C568 0.960 . S
C556 H548 0.929 . S
C556 C557 1.377 . S
C556 C558 1.384 . S
C557 C556 1.377 . S
C557 C563 1.390 . S
C558 H549 0.930 . S
C558 C556 1.384 . S
C558 C559 1.372 . S
C559 C558 1.372 . S
C559 C560 1.400 . S
C559 C564 1.490 . S
C560 H550 0.930 . S
C560 C559 1.400 . S
C560 C563 1.386 . S
H561 C577 0.930 . S
H562 C578 0.931 . S
C563 H551 0.929 . S
C563 C557 1.390 . S
C563 C560 1.386 . S
C564 C559 1.490 . S
C564 C566 1.395 . S
C564 C567 1.403 . S
H565 C571 0.930 . S
C566 H552 0.930 . S
C566 C564 1.395 . S
C566 C569 1.403 . S
C567 C564 1.403 . S
C567 C568 1.524 . S
C567 C571 1.400 . S
C568 H553 0.960 . S
C568 H554 0.960 . S
C568 H555 0.960 . S
C568 C567 1.524 . S
C569 C566 1.403 . S
C569 C570 1.392 . S
C569 C573 1.495 . S
C570 C569 1.392 . S
C570 C571 1.385 . S
C570 C572 1.478 . S
C571 H565 0.930 . S
C571 C567 1.400 . S
C571 C570 1.385 . S
C572 C570 1.478 . S
C572 C574 1.381 . S
C572 C578 1.383 . S
C573 C569 1.495 . S
C573 H579 0.959 . S
C573 H580 0.961 . S
C573 H581 0.960 . S
C574 C572 1.381 . S
C574 C575 1.394 . S
C574 H582 0.930 . S
C575 C574 1.394 . S
C575 C576 1.383 . S
C575 H583 0.929 . S
C576 C575 1.383 . S
C576 C577 1.377 . S
C577 H561 0.930 . S
C577 C576 1.377 . S
C577 C578 1.379 . S
C578 H562 0.931 . S
C578 C572 1.383 . S
C578 C577 1.379 . S
H579 C573 0.959 . S
H580 C573 0.961 . S
H581 C573 0.960 . S
H582 C574 0.930 . S
H583 C575 0.929 . S
H584 C592 0.929 . S
H585 C594 0.930 . S
H586 C596 0.930 . S
H587 C599 0.929 . S
H588 C602 0.930 . S
H589 C604 0.960 . S
H590 C604 0.960 . S
H591 C604 0.960 . S
C592 H584 0.929 . S
C592 C593 1.377 . S
C592 C594 1.384 . S
C593 C592 1.377 . S
C593 C599 1.390 . S
C594 H585 0.930 . S
C594 C592 1.384 . S
C594 C595 1.372 . S
C595 C594 1.372 . S
C595 C596 1.400 . S
C595 C600 1.490 . S
C596 H586 0.930 . S
C596 C595 1.400 . S
C596 C599 1.386 . S
H597 C613 0.930 . S
H598 C614 0.931 . S
C599 H587 0.929 . S
C599 C593 1.390 . S
C599 C596 1.386 . S
C600 C595 1.490 . S
C600 C602 1.395 . S
C600 C603 1.403 . S
H601 C607 0.930 . S
C602 H588 0.930 . S
C602 C600 1.395 . S
C602 C605 1.403 . S
C603 C600 1.403 . S
C603 C604 1.524 . S
C603 C607 1.400 . S
C604 H589 0.960 . S
C604 H590 0.960 . S
C604 H591 0.960 . S
C604 C603 1.524 . S
C605 C602 1.403 . S
C605 C606 1.392 . S
C605 C609 1.495 . S
C606 C605 1.392 . S
C606 C607 1.385 . S
C606 C608 1.478 . S
C607 H601 0.930 . S
C607 C603 1.400 . S
C607 C606 1.385 . S
C608 C606 1.478 . S
C608 C610 1.381 . S
C608 C614 1.383 . S
C609 C605 1.495 . S
C609 H615 0.959 . S
C609 H616 0.961 . S
C609 H617 0.960 . S
C610 C608 1.381 . S
C610 C611 1.394 . S
C610 H618 0.930 . S
C611 C610 1.394 . S
C611 C612 1.383 . S
C611 H619 0.929 . S
C612 C611 1.383 . S
C612 C613 1.377 . S
C613 H597 0.930 . S
C613 C612 1.377 . S
C613 C614 1.379 . S
C614 H598 0.931 . S
C614 C608 1.383 . S
C614 C613 1.379 . S
H615 C609 0.959 . S
H616 C609 0.961 . S
H617 C609 0.960 . S
H618 C610 0.930 . S
H619 C611 0.929 . S
H620 C628 0.929 1_556 S
H621 C630 0.930 . S
H622 C632 0.930 . S
H623 C635 0.933 . S
H624 C638 0.930 . S
H625 C640 0.960 . S
H626 C640 0.960 . S
H627 C640 0.960 . S
C628 H620 0.929 1_554 S
C628 C629 1.377 1_455 S
C628 C630 1.384 1_554 S
C629 C628 1.377 1_655 S
C629 C635 1.390 . S
C630 H621 0.930 . S
C630 C628 1.384 1_556 S
C630 C631 1.372 1_556 S
C631 C630 1.372 1_554 S
C631 C632 1.400 . S
C631 C636 1.490 1_554 S
C632 H622 0.930 . S
C632 C631 1.400 . S
C632 C635 1.383 1_455 S
H633 C649 0.930 . S
H634 C650 0.931 . S
C635 H623 0.933 . S
C635 C629 1.390 . S
C635 C632 1.383 1_655 S
C636 C631 1.490 1_556 S
C636 C638 1.395 1_455 S
C636 C639 1.403 . S
H637 C643 0.930 . S
C638 H624 0.930 . S
C638 C636 1.395 1_655 S
C638 C641 1.403 1_655 S
C639 C636 1.403 . S
C639 C640 1.524 1_556 S
C639 C643 1.400 . S
C640 H625 0.960 . S
C640 H626 0.960 . S
C640 H627 0.960 . S
C640 C639 1.524 1_554 S
C641 C638 1.403 1_455 S
C641 C642 1.392 . S
C641 C645 1.495 1_455 S
C642 C641 1.392 . S
C642 C643 1.385 . S
C642 C644 1.478 . S
C643 H637 0.930 . S
C643 C639 1.400 . S
C643 C642 1.385 . S
C644 C642 1.478 . S
C644 C646 1.381 . S
C644 C650 1.383 . S
C645 C641 1.495 1_655 S
C645 H651 0.959 . S
C645 H652 0.961 . S
C645 H653 0.960 . S
C646 C644 1.381 . S
C646 C647 1.394 . S
C646 H654 0.930 . S
C647 C646 1.394 . S
C647 C648 1.383 . S
C647 H655 0.929 . S
C648 C647 1.383 . S
C648 C649 1.377 . S
C649 H633 0.930 . S
C649 C648 1.377 . S
C649 C650 1.379 . S
C650 H634 0.931 . S
C650 C644 1.383 . S
C650 C649 1.379 . S
H651 C645 0.959 . S
H652 C645 0.961 . S
H653 C645 0.960 . S
H654 C646 0.930 . S
H655 C647 0.929 . S
H656 C664 0.929 . S
H657 C666 0.930 . S
H658 C668 0.931 . S
H659 C671 0.929 . S
H660 C674 0.930 . S
H661 C676 0.960 . S
H662 C676 0.960 . S
H663 C676 0.943 1_565 S
C664 H656 0.929 . S
C664 C665 1.354 1_546 S
C664 C666 1.384 . S
C665 C664 1.354 1_564 S
C665 C671 1.408 . S
C666 H657 0.930 . S
C666 C664 1.384 . S
C666 C667 1.372 . S
C667 C666 1.372 . S
C667 C668 1.391 1_546 S
C667 C672 1.490 . S
C668 H658 0.931 . S
C668 C667 1.391 1_564 S
C668 C671 1.393 . S
H669 C685 0.914 1_565 S
H670 C686 0.931 1_565 S
C671 H659 0.929 . S
C671 C665 1.408 . S
C671 C668 1.393 . S
C672 C667 1.490 . S
C672 C674 1.395 . S
C672 C675 1.403 . S
H673 C679 0.930 . S
C674 H660 0.930 . S
C674 C672 1.395 . S
C674 C677 1.403 . S
C675 C672 1.403 . S
C675 C676 1.524 1_556 S
C675 C679 1.400 . S
C676 H661 0.960 . S
C676 H662 0.960 . S
C676 H663 0.943 1_545 S
C676 C675 1.524 1_554 S
C677 C674 1.403 . S
C677 C678 1.392 . S
C677 C681 1.495 . S
C678 C677 1.392 . S
C678 C679 1.385 . S
C678 C680 1.478 . S
C679 H673 0.930 . S
C679 C675 1.400 . S
C679 C678 1.385 . S
C680 C678 1.478 . S
C680 C682 1.381 . S
C680 C686 1.383 . S
C681 C677 1.495 . S
C681 H687 0.959 . S
C681 H688 0.961 . S
C681 H689 0.960 . S
C682 C680 1.381 . S
C682 C683 1.394 . S
C682 H690 0.930 . S
C683 C682 1.394 . S
C683 C684 1.383 . S
C683 H691 0.929 . S
C684 C683 1.383 . S
C684 C685 1.377 . S
C685 H669 0.914 1_545 S
C685 C684 1.377 . S
C685 C686 1.379 . S
C686 H670 0.931 1_545 S
C686 C680 1.383 . S
C686 C685 1.379 . S
H687 C681 0.959 . S
H688 C681 0.961 . S
H689 C681 0.960 . S
H690 C682 0.930 . S
H691 C683 0.929 . S
H692 C700 0.929 1_554 S
H693 C702 0.930 . S
H694 C704 0.930 . S
H695 C707 0.929 . S
H696 C710 0.930 . S
H697 C712 0.960 . S
H698 C712 0.960 . S
H699 C712 0.960 . S
C700 H692 0.929 1_556 S
C700 C701 1.377 1_556 S
C700 C702 1.384 . S
C701 C700 1.377 1_554 S
C701 C707 1.390 1_554 S
C702 H693 0.930 . S
C702 C700 1.384 . S
C702 C703 1.372 . S
C703 C702 1.372 . S
C703 C704 1.400 . S
C703 C708 1.490 . S
C704 H694 0.930 . S
C704 C703 1.400 . S
C704 C707 1.386 . S
H705 C721 0.930 . S
H706 C722 0.931 . S
C707 H695 0.929 . S
C707 C701 1.390 1_556 S
C707 C704 1.386 . S
C708 C703 1.490 . S
C708 C710 1.395 . S
C708 C711 1.403 . S
H709 C715 0.930 . S
C710 H696 0.930 . S
C710 C708 1.395 . S
C710 C713 1.403 . S
C711 C708 1.403 . S
C711 C712 1.524 . S
C711 C715 1.400 . S
C712 H697 0.960 . S
C712 H698 0.960 . S
C712 H699 0.960 . S
C712 C711 1.524 . S
C713 C710 1.403 . S
C713 C714 1.392 . S
C713 C717 1.495 . S
C714 C713 1.392 . S
C714 C715 1.385 . S
C714 C716 1.478 . S
C715 H709 0.930 . S
C715 C711 1.400 . S
C715 C714 1.385 . S
C716 C714 1.478 . S
C716 C718 1.381 . S
C716 C722 1.383 . S
C717 C713 1.495 . S
C717 H723 0.954 1_556 S
C717 H724 0.961 . S
C717 H725 0.960 . S
C718 C716 1.381 . S
C718 C719 1.394 . S
C718 H726 0.930 . S
C719 C718 1.394 . S
C719 C720 1.383 . S
C719 H727 0.929 . S
C720 C719 1.383 . S
C720 C721 1.377 . S
C721 H705 0.930 . S
C721 C720 1.377 . S
C721 C722 1.379 . S
C722 H706 0.931 . S
C722 C716 1.383 . S
C722 C721 1.379 . S
H723 C717 0.954 1_554 S
H724 C717 0.961 . S
H725 C717 0.960 . S
H726 C718 0.930 . S
H727 C719 0.929 . S
H728 C736 0.929 1_554 S
H729 C738 0.930 . S
H730 C740 0.930 . S
H731 C743 0.929 . S
H732 C746 0.930 . S
H733 C748 0.960 . S
H734 C748 0.960 . S
H735 C748 0.960 . S
C736 H728 0.929 1_556 S
C736 C737 1.377 . S
C736 C738 1.384 . S
C737 C736 1.377 . S
C737 C743 1.390 . S
C738 H729 0.930 . S
C738 C736 1.384 . S
C738 C739 1.372 . S
C739 C738 1.372 . S
C739 C740 1.400 . S
C739 C744 1.490 . S
C740 H730 0.930 . S
C740 C739 1.400 . S
C740 C743 1.386 . S
H741 C757 0.930 . S
H742 C758 0.931 . S
C743 H731 0.929 . S
C743 C737 1.390 . S
C743 C740 1.386 . S
C744 C739 1.490 . S
C744 C746 1.395 . S
C744 C747 1.403 . S
H745 C751 0.930 . S
C746 H732 0.930 . S
C746 C744 1.395 . S
C746 C749 1.403 . S
C747 C744 1.403 . S
C747 C748 1.524 . S
C747 C751 1.400 . S
C748 H733 0.960 . S
C748 H734 0.960 . S
C748 H735 0.960 . S
C748 C747 1.524 . S
C749 C746 1.403 . S
C749 C750 1.392 . S
C749 C753 1.495 . S
C750 C749 1.392 . S
C750 C751 1.385 . S
C750 C752 1.478 . S
C751 H745 0.930 . S
C751 C747 1.400 . S
C751 C750 1.385 . S
C752 C750 1.478 . S
C752 C754 1.381 . S
C752 C758 1.383 . S
C753 C749 1.495 . S
C753 H759 0.959 . S
C753 H760 0.961 . S
C753 H761 0.960 . S
C754 C752 1.381 . S
C754 C755 1.394 . S
C754 H762 0.930 . S
C755 C754 1.394 . S
C755 C756 1.383 . S
C755 H763 0.929 . S
C756 C755 1.383 . S
C756 C757 1.377 . S
C757 H741 0.930 . S
C757 C756 1.377 . S
C757 C758 1.379 . S
C758 H742 0.931 . S
C758 C752 1.383 . S
C758 C757 1.379 . S
H759 C753 0.959 . S
H760 C753 0.961 . S
H761 C753 0.960 . S
H762 C754 0.930 . S
H763 C755 0.929 . S
H764 C772 0.929 . S
H765 C774 0.930 . S
H766 C776 0.930 . S
H767 C779 0.929 . S
H768 C782 0.930 . S
H769 C784 0.941 1_655 S
H770 C784 0.944 1_655 S
H771 C784 0.975 . S
C772 H764 0.929 . S
C772 C773 1.377 . S
C772 C774 1.384 . S
C773 C772 1.377 . S
C773 C779 1.390 . S
C774 H765 0.930 . S
C774 C772 1.384 . S
C774 C775 1.372 . S
C775 C774 1.372 . S
C775 C776 1.400 . S
C775 C780 1.490 . S
C776 H766 0.930 . S
C776 C775 1.400 . S
C776 C779 1.386 . S
H777 C793 0.930 . S
H778 C794 0.931 1_554 S
C779 H767 0.929 . S
C779 C773 1.390 . S
C779 C776 1.386 . S
C780 C775 1.490 . S
C780 C782 1.395 . S
C780 C783 1.403 . S
H781 C787 0.930 . S
C782 H768 0.930 . S
C782 C780 1.395 . S
C782 C785 1.403 . S
C783 C780 1.403 . S
C783 C784 1.545 . S
C783 C787 1.400 . S
C784 H769 0.941 1_455 S
C784 H770 0.944 1_455 S
C784 H771 0.975 . S
C784 C783 1.545 . S
C785 C782 1.403 . S
C785 C786 1.392 . S
C785 C789 1.495 1_554 S
C786 C785 1.392 . S
C786 C787 1.385 . S
C786 C788 1.478 1_554 S
C787 H781 0.930 . S
C787 C783 1.400 . S
C787 C786 1.385 . S
C788 C786 1.478 1_556 S
C788 C790 1.381 . S
C788 C794 1.383 . S
C789 C785 1.495 1_556 S
C789 H795 0.959 . S
C789 H796 0.961 . S
C789 H797 0.960 . S
C790 C788 1.381 . S
C790 C791 1.394 . S
C790 H798 0.930 . S
C791 C790 1.394 . S
C791 C792 1.383 . S
C791 H799 0.929 . S
C792 C791 1.383 . S
C792 C793 1.377 . S
C793 H777 0.930 . S
C793 C792 1.377 . S
C793 C794 1.379 . S
C794 H778 0.931 1_556 S
C794 C788 1.383 . S
C794 C793 1.379 . S
H795 C789 0.959 . S
H796 C789 0.961 . S
H797 C789 0.960 . S
H798 C790 0.930 . S
H799 C791 0.929 . S
H800 C808 0.927 . S
H801 C810 0.954 . S
H802 C812 0.930 . S
H803 C815 0.929 . S
H804 C818 0.930 . S
H805 C820 0.960 . S
H806 C820 0.960 . S
H807 C820 0.960 . S
C808 H800 0.927 . S
C808 C809 1.380 1_565 S
C808 C810 1.382 . S
C809 C808 1.380 1_545 S
C809 C815 1.390 . S
C810 H801 0.954 . S
C810 C808 1.382 . S
C810 C811 1.353 1_565 S
C811 C810 1.353 1_545 S
C811 C812 1.400 . S
C811 C816 1.490 . S
C812 H802 0.930 . S
C812 C811 1.400 . S
C812 C815 1.386 . S
H813 C829 0.930 . S
H814 C830 0.931 . S
C815 H803 0.929 . S
C815 C809 1.390 . S
C815 C812 1.386 . S
C816 C811 1.490 . S
C816 C818 1.395 1_545 S
C816 C819 1.403 . S
H817 C823 0.930 1_556 S
C818 H804 0.930 . S
C818 C816 1.395 1_565 S
C818 C821 1.403 . S
C819 C816 1.403 . S
C819 C820 1.524 . S
C819 C823 1.400 . S
C820 H805 0.960 . S
C820 H806 0.960 . S
C820 H807 0.960 . S
C820 C819 1.524 . S
C821 C818 1.403 . S
C821 C822 1.392 1_564 S
C821 C825 1.495 1_554 S
C822 C821 1.392 1_546 S
C822 C823 1.385 1_556 S
C822 C824 1.478 . S
C823 H817 0.930 1_554 S
C823 C819 1.400 . S
C823 C822 1.385 1_554 S
C824 C822 1.478 . S
C824 C826 1.381 1_545 S
C824 C830 1.383 . S
C825 C821 1.495 1_556 S
C825 H831 0.959 1_556 S
C825 H832 0.961 . S
C825 H833 0.960 . S
C826 C824 1.381 1_565 S
C826 C827 1.394 . S
C826 H834 0.930 . S
C827 C826 1.394 . S
C827 C828 1.383 1_565 S
C827 H835 0.929 . S
C828 C827 1.383 1_545 S
C828 C829 1.377 . S
C829 H813 0.930 . S
C829 C828 1.377 . S
C829 C830 1.379 . S
C830 H814 0.931 . S
C830 C824 1.383 . S
C830 C829 1.379 . S
H831 C825 0.959 1_554 S
H832 C825 0.961 . S
H833 C825 0.960 . S
H834 C826 0.930 . S
H835 C827 0.929 . S
H836 C844 0.929 . S
H837 C846 0.930 . S
H838 C848 0.930 . S
H839 C851 0.929 . S
H840 C854 0.930 . S
H841 C856 0.960 . S
H842 C856 0.960 . S
H843 C856 0.960 . S
C844 H836 0.929 . S
C844 C845 1.377 . S
C844 C846 1.384 . S
C845 C844 1.377 . S
C845 C851 1.390 . S
C846 H837 0.930 . S
C846 C844 1.384 . S
C846 C847 1.372 . S
C847 C846 1.372 . S
C847 C848 1.400 . S
C847 C852 1.490 . S
C848 H838 0.930 . S
C848 C847 1.400 . S
C848 C851 1.386 . S
H849 C865 0.930 . S
H850 C866 0.931 . S
C851 H839 0.929 . S
C851 C845 1.390 . S
C851 C848 1.386 . S
C852 C847 1.490 . S
C852 C854 1.395 1_554 S
C852 C855 1.403 . S
H853 C859 0.930 . S
C854 H840 0.930 . S
C854 C852 1.395 1_556 S
C854 C857 1.403 . S
C855 C852 1.403 . S
C855 C856 1.524 . S
C855 C859 1.400 . S
C856 H841 0.960 . S
C856 H842 0.960 . S
C856 H843 0.960 . S
C856 C855 1.524 . S
C857 C854 1.403 . S
C857 C858 1.392 . S
C857 C861 1.495 . S
C858 C857 1.392 . S
C858 C859 1.385 1_556 S
C858 C860 1.478 . S
C859 H853 0.930 . S
C859 C855 1.400 . S
C859 C858 1.385 1_554 S
C860 C858 1.478 . S
C860 C862 1.381 . S
C860 C866 1.383 . S
C861 C857 1.495 . S
C861 H867 0.959 . S
C861 H868 0.961 . S
C861 H869 0.960 . S
C862 C860 1.381 . S
C862 C863 1.394 . S
C862 H870 0.930 . S
C863 C862 1.394 . S
C863 C864 1.383 . S
C863 H871 0.929 . S
C864 C863 1.383 . S
C864 C865 1.377 . S
C865 H849 0.930 . S
C865 C864 1.377 . S
C865 C866 1.379 . S
C866 H850 0.931 . S
C866 C860 1.383 . S
C866 C865 1.379 . S
H867 C861 0.959 . S
H868 C861 0.961 . S
H869 C861 0.960 . S
H870 C862 0.930 . S
H871 C863 0.929 . S
H872 C880 0.929 . S
H873 C882 0.930 . S
H874 C884 0.930 . S
H875 C887 0.929 . S
H876 C890 0.930 . S
H877 C892 0.960 . S
H878 C892 0.960 . S
H879 C892 0.960 . S
C880 H872 0.929 . S
C880 C881 1.377 . S
C880 C882 1.384 . S
C881 C880 1.377 . S
C881 C887 1.390 . S
C882 H873 0.930 . S
C882 C880 1.384 . S
C882 C883 1.372 . S
C883 C882 1.372 . S
C883 C884 1.400 . S
C883 C888 1.490 . S
C884 H874 0.930 . S
C884 C883 1.400 . S
C884 C887 1.386 . S
H885 C901 0.930 . S
H886 C902 0.931 . S
C887 H875 0.929 . S
C887 C881 1.390 . S
C887 C884 1.386 . S
C888 C883 1.490 . S
C888 C890 1.395 1_554 S
C888 C891 1.403 . S
H889 C895 0.930 . S
C890 H876 0.930 . S
C890 C888 1.395 1_556 S
C890 C893 1.403 . S
C891 C888 1.403 . S
C891 C892 1.524 . S
C891 C895 1.400 . S
C892 H877 0.960 . S
C892 H878 0.960 . S
C892 H879 0.960 . S
C892 C891 1.524 . S
C893 C890 1.403 . S
C893 C894 1.392 . S
C893 C897 1.495 . S
C894 C893 1.392 . S
C894 C895 1.385 1_556 S
C894 C896 1.478 . S
C895 H889 0.930 . S
C895 C891 1.400 . S
C895 C894 1.385 1_554 S
C896 C894 1.478 . S
C896 C898 1.381 . S
C896 C902 1.383 . S
C897 C893 1.495 . S
C897 H903 0.959 . S
C897 H904 0.961 . S
C897 H905 0.960 . S
C898 C896 1.381 . S
C898 C899 1.394 . S
C898 H906 0.930 . S
C899 C898 1.394 . S
C899 C900 1.383 . S
C899 H907 0.929 . S
C900 C899 1.383 . S
C900 C901 1.377 . S
C901 H885 0.930 . S
C901 C900 1.377 . S
C901 C902 1.379 . S
C902 H886 0.931 . S
C902 C896 1.383 . S
C902 C901 1.379 . S
H903 C897 0.959 . S
H904 C897 0.961 . S
H905 C897 0.960 . S
H906 C898 0.930 . S
H907 C899 0.929 . S
H908 C916 0.929 . S
H909 C918 0.930 . S
H910 C920 0.930 . S
H911 C923 0.929 . S
H912 C926 0.930 . S
H913 C928 0.960 . S
H914 C928 0.960 . S
H915 C928 0.960 . S
C916 H908 0.929 . S
C916 C917 1.388 . S
C916 C918 1.384 . S
C917 C916 1.388 . S
C917 C923 1.380 1_655 S
C918 H909 0.930 . S
C918 C916 1.384 . S
C918 C919 1.372 . S
C919 C918 1.372 . S
C919 C920 1.400 1_655 S
C919 C924 1.490 . S
C920 H910 0.930 . S
C920 C919 1.400 1_455 S
C920 C923 1.386 . S
H921 C937 0.930 . S
H922 C938 0.931 . S
C923 H911 0.929 . S
C923 C917 1.380 1_455 S
C923 C920 1.386 . S
C924 C919 1.490 . S
C924 C926 1.395 . S
C924 C927 1.403 1_655 S
H925 C931 0.930 . S
C926 H912 0.930 . S
C926 C924 1.395 . S
C926 C929 1.403 . S
C927 C924 1.403 1_455 S
C927 C928 1.524 . S
C927 C931 1.400 . S
C928 H913 0.960 . S
C928 H914 0.960 . S
C928 H915 0.960 . S
C928 C927 1.524 . S
C929 C926 1.403 . S
C929 C930 1.392 . S
C929 C933 1.495 . S
C930 C929 1.392 . S
C930 C931 1.385 1_655 S
C930 C932 1.478 . S
C931 H925 0.930 . S
C931 C927 1.400 . S
C931 C930 1.385 1_455 S
C932 C930 1.478 . S
C932 C934 1.381 . S
C932 C938 1.383 1_655 S
C933 C929 1.495 . S
C933 H939 0.959 . S
C933 H940 0.961 . S
C933 H941 0.960 . S
C934 C932 1.381 . S
C934 C935 1.394 . S
C934 H942 0.930 . S
C935 C934 1.394 . S
C935 C936 1.383 . S
C935 H943 0.929 . S
C936 C935 1.383 . S
C936 C937 1.377 1_655 S
C937 H921 0.930 . S
C937 C936 1.377 1_455 S
C937 C938 1.379 . S
C938 H922 0.931 . S
C938 C932 1.383 1_455 S
C938 C937 1.379 . S
H939 C933 0.959 . S
H940 C933 0.961 . S
H941 C933 0.960 . S
H942 C934 0.930 . S
H943 C935 0.929 . S
H944 C952 0.929 . S
H945 C954 0.930 . S
H946 C956 0.930 . S
H947 C959 0.929 . S
H948 C962 0.922 1_545 S
H949 C964 0.960 . S
H950 C964 0.960 . S
H951 C964 0.960 . S
C952 H944 0.929 . S
C952 C953 1.357 1_545 S
C952 C954 1.384 . S
C953 C952 1.357 1_565 S
C953 C959 1.412 . S
C954 H945 0.930 . S
C954 C952 1.384 . S
C954 C955 1.372 1_545 S
C955 C954 1.372 1_565 S
C955 C956 1.400 . S
C955 C960 1.490 . S
C956 H946 0.930 . S
C956 C955 1.400 . S
C956 C959 1.386 . S
H957 C973 0.930 . S
H958 C974 0.931 . S
C959 H947 0.929 . S
C959 C953 1.412 . S
C959 C956 1.386 . S
C960 C955 1.490 . S
C960 C962 1.401 . S
C960 C963 1.403 . S
H961 C967 0.930 . S
C962 H948 0.922 1_565 S
C962 C960 1.401 . S
C962 C965 1.406 . S
C963 C960 1.403 . S
C963 C964 1.524 . S
C963 C967 1.400 . S
C964 H949 0.960 . S
C964 H950 0.960 . S
C964 H951 0.960 . S
C964 C963 1.524 . S
C965 C962 1.406 . S
C965 C966 1.392 . S
C965 C969 1.495 1_565 S
C966 C965 1.392 . S
C966 C967 1.385 . S
C966 C968 1.478 . S
C967 H961 0.930 . S
C967 C963 1.400 . S
C967 C966 1.385 . S
C968 C966 1.478 . S
C968 C970 1.381 1_565 S
C968 C974 1.383 . S
C969 C965 1.495 1_545 S
C969 H975 0.959 . S
C969 H976 0.961 1_545 S
C969 H977 0.960 . S
C970 C968 1.381 1_545 S
C970 C971 1.394 . S
C970 H978 0.930 . S
C971 C970 1.394 . S
C971 C972 1.383 1_545 S
C971 H979 0.929 . S
C972 C971 1.383 1_565 S
C972 C973 1.377 . S
C973 H957 0.930 . S
C973 C972 1.377 . S
C973 C974 1.379 . S
C974 H958 0.931 . S
C974 C968 1.383 . S
C974 C973 1.379 . S
H975 C969 0.959 . S
H976 C969 0.961 1_565 S
H977 C969 0.960 . S
H978 C970 0.930 . S
H979 C971 0.929 . S
H980 C988 0.929 . S
H981 C990 0.930 . S
H982 C992 0.930 . S
H983 C995 0.929 . S
H984 C998 0.930 . S
H985 C1000 0.960 . S
H986 C1000 0.960 . S
H987 C1000 0.960 . S
C988 H980 0.929 . S
C988 C989 1.377 . S
C988 C990 1.384 . S
C989 C988 1.377 . S
C989 C995 1.390 . S
C990 H981 0.930 . S
C990 C988 1.384 . S
C990 C991 1.372 . S
C991 C990 1.372 . S
C991 C992 1.400 . S
C991 C996 1.490 . S
C992 H982 0.930 . S
C992 C991 1.400 . S
C992 C995 1.386 . S
H993 C1009 0.930 . S
H994 C1010 0.931 . S
C995 H983 0.929 . S
C995 C989 1.390 . S
C995 C992 1.386 . S
C996 C991 1.490 . S
C996 C998 1.395 . S
C996 C999 1.403 . S
H997 C1003 0.930 . S
C998 H984 0.930 . S
C998 C996 1.395 . S
C998 C1001 1.403 . S
C999 C996 1.403 . S
C999 C1000 1.524 . S
C999 C1003 1.400 . S
C1000 H985 0.960 . S
C1000 H986 0.960 . S
C1000 H987 0.960 . S
C1000 C999 1.524 . S
C1001 C998 1.403 . S
C1001 C1002 1.392 . S
C1001 C1005 1.495 . S
C1002 C1001 1.392 . S
C1002 C1003 1.385 . S
C1002 C1004 1.478 . S
C1003 H997 0.930 . S
C1003 C999 1.400 . S
C1003 C1002 1.385 . S
C1004 C1002 1.478 . S
C1004 C1006 1.381 . S
C1004 C1010 1.383 . S
C1005 C1001 1.495 . S
C1005 H1011 0.959 . S
C1005 H1012 0.961 . S
C1005 H1013 0.960 . S
C1006 C1004 1.381 . S
C1006 C1007 1.394 . S
C1006 H1014 0.930 . S
C1007 C1006 1.394 . S
C1007 C1008 1.383 . S
C1007 H1015 0.929 . S
C1008 C1007 1.383 . S
C1008 C1009 1.377 . S
C1009 H993 0.930 . S
C1009 C1008 1.377 . S
C1009 C1010 1.379 . S
C1010 H994 0.931 . S
C1010 C1004 1.383 . S
C1010 C1009 1.379 . S
H1011 C1005 0.959 . S
H1012 C1005 0.961 . S
H1013 C1005 0.960 . S
H1014 C1006 0.930 . S
H1015 C1007 0.929 . S
H1016 C1024 0.929 . S
H1017 C1026 0.930 . S
H1018 C1028 0.930 . S
H1019 C1031 0.929 . S
H1020 C1034 0.930 . S
H1021 C1036 0.960 . S
H1022 C1036 0.960 . S
H1023 C1036 0.960 . S
C1024 H1016 0.929 . S
C1024 C1025 1.377 . S
C1024 C1026 1.384 . S
C1025 C1024 1.377 . S
C1025 C1031 1.390 . S
C1026 H1017 0.930 . S
C1026 C1024 1.384 . S
C1026 C1027 1.372 . S
C1027 C1026 1.372 . S
C1027 C1028 1.400 . S
C1027 C1032 1.490 . S
C1028 H1018 0.930 . S
C1028 C1027 1.400 . S
C1028 C1031 1.386 . S
H1029 C1045 0.930 . S
H1030 C1046 0.931 . S
C1031 H1019 0.929 . S
C1031 C1025 1.390 . S
C1031 C1028 1.386 . S
C1032 C1027 1.490 . S
C1032 C1034 1.395 . S
C1032 C1035 1.403 . S
H1033 C1039 0.930 . S
C1034 H1020 0.930 . S
C1034 C1032 1.395 . S
C1034 C1037 1.403 . S
C1035 C1032 1.403 . S
C1035 C1036 1.524 . S
C1035 C1039 1.400 . S
C1036 H1021 0.960 . S
C1036 H1022 0.960 . S
C1036 H1023 0.960 . S
C1036 C1035 1.524 . S
C1037 C1034 1.403 . S
C1037 C1038 1.392 . S
C1037 C1041 1.495 . S
C1038 C1037 1.392 . S
C1038 C1039 1.385 . S
C1038 C1040 1.478 . S
C1039 H1033 0.930 . S
C1039 C1035 1.400 . S
C1039 C1038 1.385 . S
C1040 C1038 1.478 . S
C1040 C1042 1.381 . S
C1040 C1046 1.383 . S
C1041 C1037 1.495 . S
C1041 H1047 0.959 . S
C1041 H1048 0.961 . S
C1041 H1049 0.960 . S
C1042 C1040 1.381 . S
C1042 C1043 1.394 . S
C1042 H1050 0.930 . S
C1043 C1042 1.394 . S
C1043 C1044 1.383 . S
C1043 H1051 0.929 . S
C1044 C1043 1.383 . S
C1044 C1045 1.377 . S
C1045 H1029 0.930 . S
C1045 C1044 1.377 . S
C1045 C1046 1.379 . S
C1046 H1030 0.931 . S
C1046 C1040 1.383 . S
C1046 C1045 1.379 . S
H1047 C1041 0.959 . S
H1048 C1041 0.961 . S
H1049 C1041 0.960 . S
H1050 C1042 0.930 . S
H1051 C1043 0.929 . S
C197 C76 1.533 . S
C216 C112 1.560 1_545 S
C252 C135 1.601 . S
C233 C88 1.581 . S
C288 C158 1.643 . S
C269 C52 1.608 . S
C324 C185 1.471 . S
C305 C64 1.532 . S
C360 C113 1.560 . S
C341 C28 1.539 . S
C377 C40 1.454 1_556 S
C396 C136 1.478 . S
C413 C4 1.441 . S
C432 C159 1.454 . S
C449 C16 1.579 . S
C468 C184 1.584 . S
C504 C114 0.175 . S
C485 C69 0.372 . S
C540 C137 0.162 . S
C521 C81 0.318 . S
C576 C160 0.163 . S
C557 C93 0.327 . S
C593 C57 0.364 . S
C612 C186 0.571 . S
C629 C21 0.411 1_655 S
C648 C117 0.436 . S
C684 C140 0.521 . S
C665 C33 0.382 1_565 S
C720 C163 0.495 . S
C701 C45 0.396 . S
C737 C9 0.299 . S
C756 C183 0.209 . S
C773 C66 1.588 . S
C792 C115 1.539 . S
C809 C78 1.524 . S
C828 C138 1.538 . S
C864 C161 1.518 . S
C845 C90 1.546 . S
C900 C182 1.310 . S
C881 C54 1.282 . S
C917 C18 1.567 1_655 S
C936 C116 1.529 . S
C972 C139 1.479 . S
C953 C30 1.529 1_565 S
C1008 C162 1.482 . S
C989 C42 1.502 . S
C1025 C6 1.725 . S
C1044 C181 1.777 . S
