# Generated by pormake.
# Topology tsx, (6,3)-cn, num edge types: 1
# Building blocks:
#     Node 0, Type 0, BuildingBlock: LEVNOQ01_clean_sbu_1, # of connection points: 6
#     Node 1, Type 0, BuildingBlock: LEVNOQ01_clean_sbu_1, # of connection points: 6
#     Node 2, Type 1, BuildingBlock: PAMTOO_clean_linker_0, # of connection points: 3
#     Node 3, Type 1, BuildingBlock: PAMTOO_clean_linker_0, # of connection points: 3
#     Node 4, Type 1, BuildingBlock: PAMTOO_clean_linker_0, # of connection points: 3
#     Node 5, Type 1, BuildingBlock: PAMTOO_clean_linker_0, # of connection points: 3
#     Edge 6, Type (0, 1), BuildingBlock: ZUJKAS_clean_linker_0, # of connection points: 2
#     Edge 7, Type (0, 1), BuildingBlock: ZUJKAS_clean_linker_0, # of connection points: 2
#     Edge 8, Type (0, 1), BuildingBlock: ZUJKAS_clean_linker_0, # of connection points: 2
#     Edge 9, Type (0, 1), BuildingBlock: ZUJKAS_clean_linker_0, # of connection points: 2
#     Edge 10, Type (0, 1), BuildingBlock: ZUJKAS_clean_linker_0, # of connection points: 2
#     Edge 11, Type (0, 1), BuildingBlock: ZUJKAS_clean_linker_0, # of connection points: 2
#     Edge 12, Type (0, 1), BuildingBlock: ZUJKAS_clean_linker_0, # of connection points: 2
#     Edge 13, Type (0, 1), BuildingBlock: ZUJKAS_clean_linker_0, # of connection points: 2
#     Edge 14, Type (0, 1), BuildingBlock: ZUJKAS_clean_linker_0, # of connection points: 2
#     Edge 15, Type (0, 1), BuildingBlock: ZUJKAS_clean_linker_0, # of connection points: 2
#     Edge 16, Type (0, 1), BuildingBlock: ZUJKAS_clean_linker_0, # of connection points: 2
#     Edge 17, Type (0, 1), BuildingBlock: ZUJKAS_clean_linker_0, # of connection points: 2
# Relax obj value: 0.127
# Max RMSD: 0.148
# Mean RMSD: 0.140
data_MOF--net-tsx--node1-LEVNOQ01_clean_sbu_1--node2-PAMTOO_clean_linker_0--edge1-ZUJKAS_clean_linker_0
_symmetry_space_group_name_H-M    P1
_symmetry_Int_Tables_number       1
_symmetry_cell_setting            triclinic
loop_
_symmetry_equiv_pos_as_xyz
'x, y, z'
_cell_length_a     24.462652
_cell_length_b     29.409363
_cell_length_c     44.015075
_cell_angle_alpha  89.266306
_cell_angle_beta   89.965104
_cell_angle_gamma 90.856533
loop_
_atom_site_label
_atom_site_type_symbol
_atom_site_fract_x
_atom_site_fract_y
_atom_site_fract_z
_atom_type_partial_charge
O0 O 0.15261 0.01207 0.06131 0.0
Mg1 Mg 0.17081 0.03318 0.01619 0.0
O2 O 0.06587 0.02558 0.05273 0.0
Mg3 Mg 0.06659 0.03319 0.00023 0.0
O4 O 0.13615 0.09145 2e-05 0.0
O5 O 0.22261 0.08638 0.01682 0.0
O6 O 0.0675 0.04107 0.94792 0.0
O7 O 0.01851 0.10277 0.00627 0.0
Mg8 Mg 0.9666 0.03632 0.98711 0.0
O9 O 0.9958 0.97475 0.00111 0.0
O10 O 0.98238 0.06175 0.94257 0.0
O11 O 0.93792 0.07936 0.021 0.0
O12 O 0.91185 0.98619 0.98152 0.0
C13 C 0.16433 0.95663 0.98338 0.0
C14 C 0.10417 0.01542 0.07107 0.0
C15 C 0.18389 0.1102 0.00519 0.0
C16 C 0.02904 0.05548 0.93112 0.0
C17 C 0.97233 0.11127 0.01818 0.0
C18 C 0.94735 0.95958 0.9935 0.0
O19 O 0.19974 0.98791 0.98453 0.0
O20 O 0.11608 0.96433 0.99294 0.0
O21 O 0.66256 0.54425 0.57425 0.0
Mg22 Mg 0.69692 0.54523 0.53026 0.0
O23 O 0.57753 0.53209 0.55845 0.0
Mg24 Mg 0.57649 0.53428 0.50559 0.0
O25 O 0.64957 0.58485 0.50281 0.0
O26 O 0.73617 0.60258 0.51388 0.0
O27 O 0.57531 0.53749 0.45352 0.0
O28 O 0.52918 0.60584 0.50836 0.0
Mg29 Mg 0.47444 0.53774 0.49438 0.0
O30 O 0.50436 0.4771 0.50889 0.0
O31 O 0.48994 0.55836 0.4485 0.0
O32 O 0.45132 0.58409 0.52762 0.0
O33 O 0.41718 0.48866 0.49426 0.0
C34 C 0.67888 0.45435 0.50377 0.0
C35 C 0.61221 0.53715 0.57987 0.0
C36 C 0.69054 0.61338 0.50121 0.0
C37 C 0.53626 0.55094 0.4368 0.0
C38 C 0.48443 0.61587 0.52142 0.0
C39 C 0.45437 0.46224 0.50474 0.0
O40 O 0.7157 0.48202 0.51229 0.0
O41 O 0.62905 0.46683 0.50148 0.0
H42 H 0.14079 0.95036 0.39487 0.0
H43 H 0.01777 0.05232 0.4036 0.0
H44 H 0.07825 0.98459 0.48325 0.0
H45 H 0.94877 0.01357 0.48592 0.0
C46 C 0.95463 0.03425 0.46495 0.0
O47 O 0.00952 0.04553 0.46207 0.0
H48 H 0.94066 0.01321 0.44547 0.0
C49 C 0.11403 0.97007 0.40904 0.0
C50 C 0.11477 0.96361 0.44079 0.0
C51 C 0.07875 0.00148 0.3953 0.0
C52 C 0.04474 0.02742 0.41367 0.0
C53 C 0.04423 0.02102 0.44515 0.0
C54 C 0.07923 0.98932 0.4588 0.0
H55 H 0.10639 0.13261 0.60229 0.0
H56 H 0.98117 0.02816 0.6028 0.0
H57 H 0.03128 0.09108 0.51853 0.0
H58 H 0.90015 0.06992 0.5299 0.0
C59 C 0.90841 0.04026 0.54499 0.0
O60 O 0.9638 0.03142 0.54457 0.0
H61 H 0.89513 0.04868 0.56842 0.0
C62 C 0.07727 0.11125 0.5903 0.0
C63 C 0.07328 0.11521 0.55859 0.0
C64 C 0.04431 0.08007 0.6066 0.0
C65 C 0.00662 0.05289 0.59074 0.0
C66 C 1.00097 0.05758 0.5592 0.0
C67 C 0.0348 0.08832 0.543 0.0
H68 H 0.62284 0.43842 0.89719 0.0
H69 H 0.51114 0.54905 0.90694 0.0
H70 H 0.58418 0.48963 0.98597 0.0
H71 H 0.46147 0.52779 -0.00305 0.0
C72 C 0.46261 0.5425 0.97366 0.0
O73 O 0.51644 0.55088 0.96566 0.0
H74 H 0.44312 0.51732 0.95818 0.0
C75 C 0.6009 0.46164 0.91153 0.0
C76 C 0.60874 0.46022 0.94322 0.0
C77 C 0.56527 0.49317 0.89815 0.0
C78 C 0.53796 0.52379 0.91674 0.0
C79 C 0.54464 0.52211 0.9482 0.0
C80 C 0.57981 0.49054 0.96148 0.0
H81 H 0.59391 0.63434 0.11185 0.0
H82 H 0.47107 0.52842 0.10839 0.0
H83 H 0.50295 0.61195 0.02949 0.0
H84 H 0.37457 0.58077 0.04451 0.0
C85 C 0.38801 0.5497 0.05685 0.0
O86 O 0.44345 0.54438 0.05234 0.0
H87 H 0.37887 0.55365 0.08144 0.0
C88 C 0.56289 0.61564 0.09939 0.0
C89 C 0.55262 0.62722 0.0689 0.0
C90 C 0.5335 0.58043 0.11403 0.0
C91 C 0.4937 0.55624 0.09768 0.0
C92 C 0.48195 0.56822 0.06755 0.0
C93 C 0.51159 0.60346 0.05301 0.0
H94 H 0.11001 0.17803 0.9924 0.0
H95 H 0.12964 0.26036 0.98962 0.0
H96 H 0.30082 0.2347 0.00438 0.0
H97 H 0.28216 0.15373 0.00638 0.0
H98 H 0.1724 0.31117 0.03535 0.0
H99 H 0.3108 0.32687 0.93695 0.0
H100 H 0.26803 0.27706 0.94338 0.0
H101 H 0.33357 0.28247 0.96187 0.0
C102 C 0.15192 0.19005 -0.00569 0.0
C103 C 0.19448 0.15932 -0.00033 0.0
C104 C 0.16306 0.23703 0.99278 0.0
C105 C 0.21689 0.25369 -0.00379 0.0
C106 C 0.25925 0.22279 0.00074 0.0
H107 H 0.4214 0.46063 0.05658 0.0
H108 H 0.37132 0.39393 0.03835 0.0
C109 C 0.2483 0.17629 0.00223 0.0
C110 C 0.22936 0.30306 -0.00144 0.0
H111 H 0.32588 0.38225 0.97732 0.0
C112 C 0.20481 0.32732 0.02208 0.0
C113 C 0.27152 0.32418 0.98116 0.0
C114 C 0.29699 0.30132 0.95423 0.0
C115 C 0.22465 0.37051 0.03039 0.0
C116 C 0.26984 0.38982 0.01459 0.0
C117 C 0.29165 0.36706 0.98965 0.0
C118 C 0.29894 0.43095 0.02555 0.0
C119 C 0.19969 0.3938 0.05728 0.0
C120 C 0.27457 0.47383 0.02463 0.0
C121 C 0.30326 0.51216 0.03501 0.0
C122 C 0.3571 0.50829 0.04582 0.0
C123 C 0.38067 0.46501 0.04748 0.0
C124 C 0.35207 0.42685 0.03713 0.0
H125 H 0.16918 0.37176 0.06933 0.0
H126 H 0.23202 0.40404 0.07363 0.0
H127 H 0.17895 0.4251 0.04941 0.0
H128 H 0.23363 0.47768 0.01571 0.0
H129 H 0.28382 0.545 0.0341 0.0
H130 H 0.24982 0.93548 0.94749 0.0
H131 H 0.29299 0.86165 0.943 0.0
H132 H 0.1654 0.80001 -0.00202 0.0
H133 H 0.12141 0.87427 0.00246 0.0
H134 H 0.32724 0.81469 -0.00161 0.0
H135 H 0.1896 0.70991 0.92577 0.0
H136 H 0.1891 0.77137 0.92474 0.0
H137 H 0.15901 0.74091 0.95625 0.0
C138 C 0.23016 0.90603 0.95804 0.0
C139 C 0.18245 0.91061 0.97549 0.0
C140 C 0.25494 0.86393 0.95548 0.0
C141 C 0.23246 0.82553 0.97021 0.0
C142 C 0.183 0.82927 0.98618 0.0
H143 H 0.35504 0.55003 0.98522 0.0
H144 H 0.29945 0.61846 0.9868 0.0
C145 C 0.15788 0.8716 0.98866 0.0
C146 C 0.26425 0.78318 0.97141 0.0
H147 H 0.26748 0.67434 0.9459 0.0
C148 C 0.31425 0.78386 0.98699 0.0
C149 C 0.24674 0.74314 0.95679 0.0
C150 C 0.19333 0.74099 0.93975 0.0
C151 C 0.34737 0.7454 0.98848 0.0
C152 C 0.33087 0.70556 0.97296 0.0
C153 C 0.28037 0.70485 0.95765 0.0
C154 C 0.36504 0.6642 0.97247 0.0
C155 C 0.39892 0.74781 0.00731 0.0
C156 C 0.4202 0.66676 0.96353 0.0
C157 C 0.45243 0.62791 0.96396 0.0
C158 C 0.42956 0.5854 0.97245 0.0
C159 C 0.37383 0.5826 0.97973 0.0
C160 C 0.34203 0.62159 0.98022 0.0
H161 H 0.39587 0.77377 0.02533 0.0
H162 H 0.40795 0.71455 0.01825 0.0
H163 H 0.43383 0.7579 0.99246 0.0
H164 H 0.43843 0.69879 0.95615 0.0
H165 H 0.495 0.63136 0.95749 0.0
H166 H 0.93261 0.91797 0.0484 0.0
H167 H 0.87078 0.85257 0.05783 0.0
H168 H 0.8557 0.83261 0.96135 0.0
H169 H 0.91664 0.89811 0.95191 0.0
H170 H 0.75554 0.86342 0.01078 0.0
H171 H 0.86838 0.70101 0.02344 0.0
H172 H 0.89687 0.75337 0.03812 0.0
H173 H 0.8924 0.74563 -0.00208 0.0
C174 C 0.91837 0.89805 0.02936 0.0
C175 C 0.9297 0.91244 -0.00053 0.0
C176 C 0.88278 0.86103 0.03472 0.0
C177 C 0.85889 0.83796 0.01023 0.0
C178 C 0.87416 0.84984 0.98047 0.0
H179 H 0.60727 0.62326 0.01476 0.0
H180 H 0.67842 0.67661 -0.0038 0.0
C181 C 0.90918 0.88698 0.97513 0.0
C182 C 0.81102 0.80762 0.01522 0.0
H183 H 0.77233 0.69734 0.02858 0.0
C184 C 0.75903 0.82706 0.01464 0.0
C185 C 0.81603 0.76034 0.01965 0.0
C186 C 0.8713 0.73843 0.01984 0.0
C187 C 0.7116 0.80039 0.01893 0.0
C188 C 0.7165 0.75314 0.02447 0.0
C189 C 0.76861 0.73356 0.02428 0.0
C190 C 0.66866 0.7241 0.03291 0.0
C191 C 0.65673 0.8231 0.01735 0.0
C192 C 0.63869 0.73379 0.05916 0.0
C193 C 0.59801 0.70376 0.06956 0.0
C194 C 0.5869 0.66311 0.05414 0.0
C195 C 0.61479 0.65452 0.02694 0.0
C196 C 0.65568 0.68471 0.0165 0.0
H197 H 0.65873 0.85472 0.00328 0.0
H198 H 0.62495 0.80005 0.00779 0.0
H199 H 0.64401 0.83262 0.04059 0.0
H200 H 0.64849 0.76355 0.07246 0.0
H201 H 0.5769 0.71131 0.0905 0.0
H202 H 0.98753 0.17982 0.97727 0.0
H203 H 0.93212 0.24777 0.97266 0.0
H204 H 0.85672 0.2163 0.0593 0.0
H205 H 0.90937 0.14631 0.0627 0.0
H206 H 0.78217 0.22723 0.02077 0.0
H207 H 0.9245 0.3722 0.00293 0.0
H208 H 0.93828 0.32899 0.97584 0.0
H209 H 0.94791 0.31737 0.01583 0.0
C210 C 0.96065 0.18841 -0.00415 0.0
C211 C 0.95272 0.15811 0.0204 0.0
C212 C 0.92901 0.22745 0.99327 0.0
C213 C 0.89036 0.23767 0.01576 0.0
C214 C 0.88606 0.20921 0.04159 0.0
H215 H 0.68214 0.4756 0.98908 0.0
H216 H 0.74836 0.42248 0.01049 0.0
C217 C 0.91642 0.16945 0.04369 0.0
C218 C 0.84908 0.2735 0.0102 0.0
H219 H 0.83265 0.38173 0.98303 0.0
C220 C 0.79349 0.26129 0.01312 0.0
C221 C 0.86328 0.3182 0.0004 0.0
C222 C 0.9218 0.33501 -0.00109 0.0
C223 C 0.752 0.29172 0.00547 0.0
C224 C 0.76631 0.3351 0.9935 0.0
C225 C 0.8217 0.34816 0.99176 0.0
C226 C 0.72455 0.36668 0.98155 0.0
C227 C 0.69324 0.27693 0.01029 0.0
C228 C 0.68926 0.35296 0.95814 0.0
C229 C 0.65096 0.38298 0.94615 0.0
C230 C 0.64767 0.42761 0.95702 0.0
C231 C 0.68307 0.44127 0.9805 0.0
C232 C 0.72123 0.41109 0.9926 0.0
H233 H 0.68964 0.25053 0.02851 0.0
H234 H 0.66726 0.30607 0.01642 0.0
H235 H 0.67715 0.26193 0.98903 0.0
H236 H 0.69181 0.31917 0.94881 0.0
H237 H 0.62399 0.37121 0.92831 0.0
H238 H 0.61263 0.67417 0.51609 0.0
H239 H 0.62658 0.75696 0.51505 0.0
H240 H 0.77287 0.74118 0.46175 0.0
H241 H 0.75962 0.65875 0.46332 0.0
H242 H 0.72878 0.78267 0.54334 0.0
H243 H 0.70804 0.86339 0.42945 0.0
H244 H 0.67078 0.81227 0.44065 0.0
H245 H 0.74131 0.80926 0.42956 0.0
C246 C 0.64593 0.6886 0.50269 0.0
C247 C 0.68506 0.66028 0.48972 0.0
C248 C 0.65412 0.73587 0.50231 0.0
C249 C 0.70079 0.75523 0.48833 0.0
C250 C 0.73621 0.72712 0.4723 0.0
H251 H 0.93786 0.94943 0.54456 0.0
H252 H 0.88181 0.88392 0.53006 0.0
C253 C 0.7286 0.67998 0.47316 0.0
C254 C 0.71976 0.80171 0.49622 0.0
H255 H 0.76577 0.90228 0.46522 0.0
C256 C 0.73572 0.80923 0.52638 0.0
C257 C 0.72908 0.83617 0.47407 0.0
C258 C 0.71102 0.8302 0.44163 0.0
C259 C 0.76328 0.84931 0.5347 0.0
C260 C 0.77556 0.88271 0.51222 0.0
C261 C 0.75688 0.87639 0.48236 0.0
C262 C 0.81011 0.92312 0.51919 0.0
C263 C 0.78028 0.85501 0.56741 0.0
C264 C 0.78882 0.96709 0.51719 0.0
C265 C 0.82103 0.00481 0.52526 0.0
C266 C 0.87535 -0.0007 0.5349 0.0
C267 C 0.89654 0.95513 0.53674 0.0
C268 C 0.86442 0.91754 0.52864 0.0
H269 H 0.75525 0.8331 0.58296 0.0
H270 H 0.82362 0.845 0.56998 0.0
H271 H 0.77669 0.89093 0.57451 0.0
H272 H 0.74696 0.97211 0.51003 0.0
H273 H 0.80344 0.03838 0.52416 0.0
H274 H 0.62682 0.38825 0.46944 0.0
H275 H 0.65947 0.31068 0.45967 0.0
H276 H 0.79961 0.33581 0.51663 0.0
H277 H 0.76838 0.41244 0.52607 0.0
H278 H 0.78448 0.29325 0.43731 0.0
H279 H 0.71622 0.20892 0.54492 0.0
H280 H 0.68083 0.25665 0.52818 0.0
H281 H 0.74429 0.26568 0.54774 0.0
C282 C 0.66439 0.37702 0.47994 0.0
C283 C 0.69519 0.40669 0.4983 0.0
C284 C 0.68298 0.33285 0.47434 0.0
C285 C 0.73185 0.31763 0.48756 0.0
C286 C 0.76176 0.34686 0.50632 0.0
H287 H 0.98547 0.12554 0.47174 0.0
H288 H 0.9258 0.19122 0.47476 0.0
C289 C 0.74384 0.39081 0.51154 0.0
C290 C 0.75407 0.27211 0.48122 0.0
H291 H 0.78388 0.17105 0.51616 0.0
C292 C 0.78344 0.26609 0.45423 0.0
C293 C 0.75297 0.237 0.50345 0.0
C294 C 0.72164 0.24198 0.5327 0.0
C295 C 0.81374 0.22655 0.44948 0.0
C296 C 0.81479 0.19237 0.47237 0.0
C297 C 0.78323 0.19742 0.49872 0.0
C298 C 0.85065 0.15229 0.46999 0.0
C299 C 0.84554 0.22199 0.42035 0.0
C300 C 0.82813 0.10851 0.46668 0.0
C301 C 0.8622 0.07084 0.46456 0.0
C302 C 0.91936 0.0761 0.46618 0.0
C303 C 0.94174 0.12006 0.47002 0.0
C304 C 0.90767 0.15775 0.47175 0.0
H305 H 0.83123 0.24603 0.40247 0.0
H306 H 0.8894 0.22945 0.42479 0.0
H307 H 0.84211 0.18677 0.41168 0.0
H308 H 0.78421 0.10352 0.46556 0.0
H309 H 0.84391 0.03737 0.46187 0.0
H310 H 0.47399 0.38625 0.47221 0.0
H311 H 0.41993 0.31501 0.4754 0.0
H312 H 0.33877 0.3638 0.55536 0.0
H313 H 0.39211 0.4348 0.55198 0.0
H314 H 0.36864 0.26235 0.55297 0.0
H315 H 0.24869 0.33262 0.45584 0.0
H316 H 0.32218 0.33173 0.4531 0.0
H317 H 0.29035 0.36874 0.47963 0.0
C318 C 0.44636 0.38068 0.49119 0.0
C319 C 0.43766 0.41534 0.5122 0.0
C320 C 0.41517 0.34035 0.49281 0.0
C321 C 0.37516 0.33445 0.51548 0.0
C322 C 0.36962 0.36767 0.53779 0.0
H323 H 0.08087 0.20653 0.56505 0.0
H324 H 0.15658 0.25642 0.54843 0.0
C325 C 0.40032 0.408 0.53601 0.0
C326 C 0.33439 0.29682 0.51421 0.0
H327 H 0.21323 0.26735 0.48055 0.0
C328 C 0.33534 0.2627 0.53672 0.0
C329 C 0.29063 0.29795 0.49319 0.0
C330 C 0.28731 0.33471 0.46905 0.0
C331 C 0.29271 0.23034 0.53928 0.0
C332 C 0.24807 0.23247 0.51895 0.0
C333 C 0.2479 0.26567 0.49585 0.0
C334 C 0.1985 0.20399 0.52399 0.0
C335 C 0.294 0.19537 0.56463 0.0
C336 C 0.19617 0.15855 0.51463 0.0
C337 C 0.15248 0.13015 0.52376 0.0
C338 C 0.11117 0.14691 0.54257 0.0
C339 C 0.11214 0.19305 0.55038 0.0
C340 C 0.15533 0.22144 0.541 0.0
H341 H 0.33178 0.19812 0.57852 0.0
H342 H 0.25804 0.19955 0.5797 0.0
H343 H 0.29131 0.16071 0.555 0.0
H344 H 0.22931 0.1446 0.50154 0.0
H345 H 0.15283 0.09451 0.51784 0.0
H346 H 0.50309 0.68436 0.47989 0.0
H347 H 0.44607 0.7513 0.47233 0.0
H348 H 0.36029 0.71957 0.55581 0.0
H349 H 0.41564 0.65179 0.56269 0.0
H350 H 0.29113 0.72565 0.51068 0.0
H351 H 0.42823 0.87687 0.50487 0.0
H352 H 0.44857 0.83334 0.47922 0.0
H353 H 0.45057 0.82265 0.51957 0.0
C354 C 0.47354 0.69272 0.49721 0.0
C355 C 0.46367 0.66284 0.52185 0.0
C356 C 0.44084 0.73107 0.49288 0.0
C357 C 0.39866 0.74067 0.5135 0.0
C358 C 0.39226 0.71288 0.53949 0.0
H359 H 0.17774 0.97241 0.49221 0.0
H360 H 0.24489 0.91866 0.51239 0.0
C361 C 0.42419 0.67429 0.54353 0.0
C362 C 0.35653 0.77524 0.50608 0.0
H363 H 0.33782 0.88604 0.48454 0.0
C364 C 0.30147 0.76086 0.50536 0.0
C365 C 0.36961 0.8213 0.49923 0.0
C366 C 0.42741 0.8396 0.50105 0.0
C367 C 0.25948 0.79075 0.4974 0.0
C368 C 0.27279 0.83623 0.48916 0.0
C369 C 0.32761 0.85108 0.49063 0.0
C370 C 0.23064 0.86824 0.4778 0.0
C371 C 0.20117 0.77322 0.49804 0.0
C372 C 0.20013 0.85773 0.45176 0.0
C373 C 0.16144 0.88802 0.44043 0.0
C374 C 0.15279 0.92996 0.4546 0.0
C375 C 0.18295 0.94025 0.48092 0.0
C376 C 0.2217 0.90976 0.49232 0.0
H377 H 0.19637 0.74339 0.51361 0.0
H378 H 0.17258 0.79997 0.50529 0.0
H379 H 0.18932 0.76217 0.47491 0.0
H380 H 0.20681 0.8263 0.43985 0.0
H381 H 0.13854 0.87865 0.42036 0.0
H382 H 0.17746 0.9947 0.11555 0.0
H383 H 0.16253 0.99368 0.17032 0.0
H384 H 0.99262 0.02471 0.15655 0.0
H385 H 0.00701 0.02597 0.10134 0.0
H386 H 0.11546 0.07457 0.20259 0.0
H387 H 0.99991 0.91104 0.21831 0.0
H388 H 0.04495 0.92096 0.18627 0.0
H389 H 0.9806 0.94914 0.18787 0.0
C390 C 0.13669 0.00087 0.12402 0.0
C391 C 0.09343 0.01059 0.10404 0.0
C392 C 0.12834 0.0003 0.15534 0.0
C393 C 0.07657 0.00906 0.16731 0.0
C394 C 0.0328 0.01756 0.14758 0.0
H395 H 0.9876 0.00784 0.35976 0.0
H396 H 0.98324 0.01397 0.3043 0.0
C397 C 0.04113 0.01829 0.11611 0.0
C398 C 0.06977 0.01156 0.20054 0.0
H399 H 0.02192 0.9521 0.26228 0.0
C400 C 0.09465 0.04804 0.2157 0.0
C401 C 0.04221 0.97704 0.21733 0.0
C402 C 0.01542 0.9371 0.20182 0.0
C403 C 0.09366 0.05046 0.24747 0.0
C404 C 0.0682 0.01488 0.26441 0.0
C405 C 0.04164 0.97918 0.24917 0.0
C406 C 0.07089 0.01301 0.29796 0.0
C407 C 0.11992 0.09102 0.2626 0.0
C408 C 0.12164 0.01021 0.31266 0.0
C409 C 0.12432 0.00702 0.34429 0.0
C410 C 0.07621 0.00627 0.36176 0.0
C411 C 0.02541 0.00904 0.34693 0.0
C412 C 0.02279 0.01223 0.31528 0.0
H413 H 0.12281 0.12079 0.24685 0.0
H414 H 0.09665 0.10089 0.2831 0.0
H415 H 0.16202 0.08227 0.26972 0.0
H416 H 0.15921 0.00992 0.29963 0.0
H417 H 0.16403 0.00522 0.35506 0.0
H418 H 0.12565 0.05705 0.89936 0.0
H419 H 0.13754 0.06635 0.84426 0.0
H420 H 0.96289 0.07679 0.83353 0.0
H421 H 0.9508 0.06896 0.88821 0.0
H422 H 0.09907 0.01274 0.79928 0.0
H423 H 0.0151 0.1851 0.7846 0.0
H424 H 0.03266 0.16192 0.82143 0.0
H425 H 0.96791 0.14786 0.80416 0.0
C426 C 0.0899 0.06189 0.88524 0.0
C427 C 0.03734 0.06268 0.89815 0.0
C428 C 0.09675 0.06716 0.85381 0.0
C429 C 0.05118 0.07324 0.83488 0.0
C430 C 0.99876 0.07361 0.84776 0.0
H431 H 0.96105 0.07303 0.64783 0.0
H432 H 0.96801 0.07083 0.70326 0.0
C433 C 0.99192 0.06883 0.87907 0.0
C434 C 0.05756 0.07671 0.80148 0.0
H435 H 0.01899 0.13956 0.73963 0.0
C436 C 0.08237 0.0408 0.78622 0.0
C437 C 0.03593 0.11346 0.78452 0.0
C438 C 0.01195 0.15446 0.79957 0.0
C439 C 0.08361 0.03954 0.75436 0.0
C440 C 0.05974 0.0753 0.73749 0.0
C441 C 0.0367 0.11196 0.75272 0.0
C442 C 0.05639 0.07469 0.70399 0.0
C443 C 0.10846 -0.0008 0.73899 0.0
C444 C 0.10385 0.0775 0.68616 0.0
C445 C 0.10003 0.07841 0.65449 0.0
C446 C 0.04863 0.07679 0.64016 0.0
C447 C 1.00122 0.07367 0.65817 0.0
C448 C 0.0051 0.07277 0.6898 0.0
H449 H 0.11539 0.97053 0.75516 0.0
H450 H 0.08179 0.98704 0.72028 0.0
H451 H 0.14849 0.00951 0.729 0.0
H452 H 0.14376 0.07962 0.69673 0.0
H453 H 0.13731 0.08045 0.64123 0.0
H454 H 0.50725 0.53081 0.60234 0.0
H455 H 0.47954 0.52729 0.65603 0.0
H456 H 0.64894 0.533 0.68297 0.0
H457 H 0.67688 0.53702 0.63006 0.0
H458 H 0.50923 0.46229 0.70166 0.0
H459 H 0.58006 0.63543 0.73142 0.0
H460 H 0.56895 0.61828 0.6926 0.0
H461 H 0.63185 0.60485 0.71175 0.0
C462 C 0.5385 0.53147 0.61975 0.0
C463 C 0.59427 0.53457 0.61193 0.0
C464 C 0.5226 0.52949 0.65033 0.0
C465 C 0.56223 0.53086 0.67334 0.0
C466 C 0.61772 0.53309 0.66552 0.0
H467 H 0.64347 0.48797 0.85413 0.0
H468 H 0.63135 0.49622 0.79923 0.0
C469 C 0.63359 0.53517 0.63519 0.0
C470 C 0.54695 0.52857 0.70578 0.0
H471 H 0.57483 0.58061 0.77288 0.0
C472 C 0.52216 0.48858 0.71727 0.0
C473 C 0.56348 0.56317 0.72595 0.0
C474 C 0.58703 0.60805 0.71475 0.0
C475 C 0.51765 0.4808 0.74873 0.0
C476 C 0.5385 0.51386 0.76879 0.0
C477 C 0.55963 0.55511 0.75727 0.0
C478 C 0.54381 0.50483 0.80163 0.0
C479 C 0.49383 0.43635 0.76043 0.0
C480 C 0.49835 0.50652 0.8209 0.0
C481 C 0.5051 0.50164 0.85229 0.0
C482 C 0.55744 0.49513 0.86478 0.0
C483 C 0.60262 0.49241 0.84521 0.0
C484 C 0.59582 0.49736 0.8139 0.0
H485 H 0.48112 0.41347 0.74174 0.0
H486 H 0.52433 0.41867 0.77484 0.0
H487 H 0.45766 0.44304 0.77484 0.0
H488 H 0.45799 0.51258 0.81172 0.0
H489 H 0.46945 0.50336 0.86682 0.0
H490 H 0.63251 0.55122 0.40495 0.0
H491 H 0.64431 0.55918 0.34981 0.0
H492 H 0.46964 0.56957 0.33906 0.0
H493 H 0.4576 0.56289 0.39386 0.0
H494 H 0.60513 0.50465 0.30502 0.0
H495 H 0.52365 0.67771 0.28994 0.0
H496 H 0.54161 0.65477 0.32677 0.0
H497 H 0.47616 0.64143 0.31008 0.0
C498 C 0.5967 0.5556 0.39081 0.0
C499 C 0.54413 0.55672 0.40373 0.0
C500 C 0.60353 0.56013 0.35937 0.0
C501 C 0.55794 0.56585 0.34046 0.0
C502 C 0.5055 0.56652 0.35332 0.0
H503 H 0.4559 0.56445 0.15741 0.0
H504 H 0.46929 0.55831 0.21227 0.0
C505 C 0.49866 0.56242 0.38466 0.0
C506 C 0.56429 0.56896 0.3071 0.0
H507 H 0.52439 0.63107 0.24529 0.0
C508 C 0.58836 0.53262 0.29191 0.0
C509 C 0.54291 0.60576 0.29013 0.0
C510 C 0.5202 0.64732 0.30512 0.0
C511 C 0.58845 0.53081 0.26006 0.0
C512 C 0.56393 0.56626 0.24326 0.0
C513 C 0.54237 0.60361 0.2584 0.0
C514 C 0.55742 0.56452 0.21 0.0
C515 C 0.61252 0.49023 0.2446 0.0
C516 C 0.60277 0.56912 0.19069 0.0
C517 C 0.59529 0.57226 0.15928 0.0
C518 C 0.54231 0.57114 0.1468 0.0
C519 C 0.49721 0.56487 0.16626 0.0
C520 C 0.50474 0.5617 0.19759 0.0
H521 H 0.62287 0.46267 0.26102 0.0
H522 H 0.58353 0.47647 0.2275 0.0
H523 H 0.65045 0.50093 0.23247 0.0
H524 H 0.64369 0.57179 0.19995 0.0
H525 H 0.63086 0.57659 0.1448 0.0
loop_
_geom_bond_atom_site_label_1
_geom_bond_atom_site_label_2
_geom_bond_distance
_geom_bond_site_symmetry_2
_ccdc_geom_bond_type
O0 Mg1 1.990 . S
O0 C14 1.253 . S
Mg1 O0 1.990 . S
Mg1 O4 2.180 . S
Mg1 O5 2.117 . S
Mg1 O19 2.030 1_545 S
O2 Mg3 2.072 . S
O2 C14 1.260 . S
Mg3 O2 2.072 . S
Mg3 O4 2.099 . S
Mg3 O6 2.079 1_554 S
Mg3 O7 2.072 . S
Mg3 O9 2.099 1_444 S
Mg3 O20 2.081 1_545 S
O4 Mg1 2.180 . S
O4 Mg3 2.099 . S
O4 C15 1.279 . S
O5 Mg1 2.117 . S
O5 C15 1.250 . S
O6 Mg3 2.079 1_556 S
O6 C16 1.264 . S
O7 Mg3 2.072 . S
O7 C17 1.260 1_454 S
Mg8 O9 2.180 1_545 S
Mg8 O10 2.030 . S
Mg8 O11 1.990 . S
Mg8 O12 2.115 1_546 S
O9 Mg3 2.099 1_666 S
O9 Mg8 2.180 1_565 S
O9 C18 1.279 1_556 S
O10 Mg8 2.030 . S
O10 C16 1.248 1_655 S
O11 Mg8 1.990 . S
O11 C17 1.253 . S
O12 Mg8 2.115 1_564 S
O12 C18 1.251 . S
C13 O19 1.248 . S
C13 O20 1.279 . S
C14 O0 1.253 . S
C14 O2 1.260 . S
C15 O4 1.279 . S
C15 O5 1.250 . S
C16 O6 1.264 . S
C16 O10 1.248 1_455 S
C17 O7 1.260 1_656 S
C17 O11 1.253 . S
C18 O9 1.279 1_554 S
C18 O12 1.251 . S
O19 Mg1 2.030 1_565 S
O19 C13 1.248 . S
O20 Mg3 2.081 1_565 S
O20 C13 1.279 . S
O21 Mg22 1.990 . S
O21 C35 1.253 . S
Mg22 O21 1.990 . S
Mg22 O25 2.180 . S
Mg22 O26 2.117 . S
Mg22 O40 2.030 . S
O23 Mg24 2.072 . S
O23 C35 1.260 . S
Mg24 O23 2.072 . S
Mg24 O25 2.099 . S
Mg24 O27 2.079 . S
Mg24 O28 2.072 . S
Mg24 O30 2.099 . S
Mg24 O41 2.079 . S
O25 Mg22 2.180 . S
O25 Mg24 2.099 . S
O25 C36 1.279 . S
O26 Mg22 2.117 . S
O26 C36 1.250 . S
O27 Mg24 2.079 . S
O27 C37 1.264 . S
O28 Mg24 2.072 . S
O28 C38 1.260 . S
Mg29 O30 2.180 . S
Mg29 O31 2.030 . S
Mg29 O32 1.990 . S
Mg29 O33 2.117 . S
O30 Mg24 2.099 . S
O30 Mg29 2.180 . S
O30 C39 1.279 . S
O31 Mg29 2.030 . S
O31 C37 1.248 . S
O32 Mg29 1.990 . S
O32 C38 1.253 . S
O33 Mg29 2.117 . S
O33 C39 1.250 . S
C34 O40 1.248 . S
C34 O41 1.264 . S
C35 O21 1.253 . S
C35 O23 1.260 . S
C36 O25 1.279 . S
C36 O26 1.250 . S
C37 O27 1.264 . S
C37 O31 1.248 . S
C38 O28 1.260 . S
C38 O32 1.253 . S
C39 O30 1.279 . S
C39 O33 1.250 . S
O40 Mg22 2.030 . S
O40 C34 1.248 . S
O41 Mg24 2.079 . S
O41 C34 1.264 . S
H42 C49 0.929 . S
H43 C52 0.930 . S
H44 C54 0.929 . S
H45 C46 0.969 . S
C46 H45 0.969 . S
C46 O47 1.550 1_655 S
C46 H48 0.973 . S
O47 C46 1.550 1_455 S
O47 C53 1.412 . S
H48 C46 0.973 . S
C49 H42 0.929 . S
C49 C50 1.400 . S
C49 C51 1.364 . S
C50 C49 1.400 . S
C50 C54 1.377 . S
C51 C49 1.364 . S
C51 C52 1.374 1_565 S
C52 H43 0.930 . S
C52 C51 1.374 1_545 S
C52 C53 1.383 . S
C53 O47 1.412 . S
C53 C52 1.383 . S
C53 C54 1.394 1_545 S
C54 H44 0.929 . S
C54 C50 1.377 . S
C54 C53 1.394 1_565 S
H55 C62 0.929 . S
H56 C65 0.930 . S
H57 C67 0.929 . S
H58 C59 0.969 . S
C59 H58 0.969 . S
C59 O60 1.550 . S
C59 H61 0.970 1_545 S
O60 C59 1.550 . S
O60 C66 1.412 . S
H61 C59 0.970 1_565 S
C62 H55 0.929 . S
C62 C63 1.400 . S
C62 C64 1.364 . S
C63 C62 1.400 . S
C63 C67 1.377 . S
C64 C62 1.364 . S
C64 C65 1.374 1_455 S
C65 H56 0.930 . S
C65 C64 1.374 1_655 S
C65 C66 1.383 . S
C66 O60 1.412 . S
C66 C65 1.383 . S
C66 C67 1.394 1_655 S
C67 H57 0.929 . S
C67 C63 1.377 . S
C67 C66 1.394 1_455 S
H68 C75 0.929 . S
H69 C78 0.930 . S
H70 C80 0.929 . S
H71 C72 0.969 . S
C72 H71 0.969 . S
C72 O73 1.550 . S
C72 H74 0.973 . S
O73 C72 1.550 . S
O73 C79 1.412 . S
H74 C72 0.973 . S
C75 H68 0.929 . S
C75 C76 1.400 . S
C75 C77 1.364 . S
C76 C75 1.400 . S
C76 C80 1.377 . S
C77 C75 1.364 . S
C77 C78 1.374 . S
C78 H69 0.930 . S
C78 C77 1.374 . S
C78 C79 1.383 . S
C79 O73 1.412 . S
C79 C78 1.383 . S
C79 C80 1.394 . S
C80 H70 0.929 . S
C80 C76 1.377 . S
C80 C79 1.394 . S
H81 C88 0.929 . S
H82 C91 0.930 . S
H83 C93 0.929 . S
H84 C85 0.969 . S
C85 H84 0.969 . S
C85 O86 1.550 . S
C85 H87 0.973 . S
O86 C85 1.550 . S
O86 C92 1.412 . S
H87 C85 0.973 . S
C88 H81 0.929 . S
C88 C89 1.400 . S
C88 C90 1.364 . S
C89 C88 1.400 . S
C89 C93 1.377 . S
C90 C88 1.364 . S
C90 C91 1.374 . S
C91 H82 0.930 . S
C91 C90 1.374 . S
C91 C92 1.383 . S
C92 O86 1.412 . S
C92 C91 1.383 . S
C92 C93 1.394 . S
C93 H83 0.929 . S
C93 C89 1.377 . S
C93 C92 1.394 . S
H94 C102 0.929 . S
H95 C104 0.930 . S
H96 C106 0.930 . S
H97 C109 0.929 . S
H98 C112 0.930 . S
H99 C114 0.960 . S
H100 C114 0.960 . S
H101 C114 0.960 1_554 S
C102 H94 0.929 . S
C102 C103 1.377 1_556 S
C102 C104 1.384 . S
C103 C102 1.377 1_554 S
C103 C109 1.390 . S
C104 H95 0.930 . S
C104 C102 1.384 . S
C104 C105 1.372 1_556 S
C105 C104 1.372 1_554 S
C105 C106 1.400 . S
C105 C110 1.490 . S
C106 H96 0.930 . S
C106 C105 1.400 . S
C106 C109 1.386 . S
H107 C123 0.930 . S
H108 C124 0.931 . S
C109 H97 0.929 . S
C109 C103 1.390 . S
C109 C106 1.386 . S
C110 C105 1.490 . S
C110 C112 1.395 . S
C110 C113 1.403 . S
H111 C117 0.930 . S
C112 H98 0.930 . S
C112 C110 1.395 . S
C112 C115 1.403 . S
C113 C110 1.403 . S
C113 C114 1.524 1_554 S
C113 C117 1.400 . S
C114 H99 0.960 . S
C114 H100 0.960 . S
C114 H101 0.960 1_556 S
C114 C113 1.524 1_556 S
C115 C112 1.403 . S
C115 C116 1.392 . S
C115 C119 1.495 . S
C116 C115 1.392 . S
C116 C117 1.385 . S
C116 C118 1.478 . S
C117 H111 0.930 . S
C117 C113 1.400 . S
C117 C116 1.385 . S
C118 C116 1.478 . S
C118 C120 1.381 . S
C118 C124 1.383 . S
C119 C115 1.495 . S
C119 H125 0.959 . S
C119 H126 0.961 . S
C119 H127 0.960 . S
C120 C118 1.381 . S
C120 C121 1.394 . S
C120 H128 0.930 . S
C121 C120 1.394 . S
C121 C122 1.383 . S
C121 H129 0.929 . S
C122 C121 1.383 . S
C122 C123 1.377 . S
C123 H107 0.930 . S
C123 C122 1.377 . S
C123 C124 1.379 . S
C124 H108 0.931 . S
C124 C118 1.383 . S
C124 C123 1.379 . S
H125 C119 0.959 . S
H126 C119 0.961 . S
H127 C119 0.960 . S
H128 C120 0.930 . S
H129 C121 0.929 . S
H130 C138 0.929 . S
H131 C140 0.930 . S
H132 C142 0.930 . S
H133 C145 0.929 . S
H134 C148 0.926 1_554 S
H135 C150 0.960 . S
H136 C150 0.960 . S
H137 C150 0.960 1_554 S
C138 H130 0.929 . S
C138 C139 1.377 1_556 S
C138 C140 1.384 . S
C139 C138 1.377 1_554 S
C139 C145 1.390 . S
C140 H131 0.930 . S
C140 C138 1.384 . S
C140 C141 1.372 1_556 S
C141 C140 1.372 1_554 S
C141 C142 1.400 . S
C141 C146 1.490 1_554 S
C142 H132 0.930 . S
C142 C141 1.400 . S
C142 C145 1.386 . S
H143 C159 0.930 . S
H144 C160 0.931 . S
C145 H133 0.929 . S
C145 C139 1.390 . S
C145 C142 1.386 . S
C146 C141 1.490 1_556 S
C146 C148 1.396 . S
C146 C149 1.403 . S
H147 C153 0.930 . S
C148 H134 0.926 1_556 S
C148 C146 1.396 . S
C148 C151 1.407 . S
C149 C146 1.403 . S
C149 C150 1.524 . S
C149 C153 1.400 . S
C150 H135 0.960 . S
C150 H136 0.960 . S
C150 H137 0.960 1_556 S
C150 C149 1.524 . S
C151 C148 1.407 . S
C151 C152 1.392 . S
C151 C155 1.495 . S
C152 C151 1.392 . S
C152 C153 1.385 . S
C152 C154 1.478 . S
C153 H147 0.930 . S
C153 C149 1.400 . S
C153 C152 1.385 . S
C154 C152 1.478 . S
C154 C156 1.381 . S
C154 C160 1.383 1_556 S
C155 C151 1.495 . S
C155 H161 0.955 1_556 S
C155 H162 0.961 1_556 S
C155 H163 0.960 . S
C156 C154 1.381 . S
C156 C157 1.394 . S
C156 H164 0.930 . S
C157 C156 1.394 . S
C157 C158 1.383 . S
C157 H165 0.929 . S
C158 C157 1.383 . S
C158 C159 1.377 1_556 S
C159 H143 0.930 . S
C159 C158 1.377 1_554 S
C159 C160 1.379 . S
C160 H144 0.931 . S
C160 C154 1.383 1_554 S
C160 C159 1.379 . S
H161 C155 0.955 1_554 S
H162 C155 0.961 1_554 S
H163 C155 0.960 . S
H164 C156 0.930 . S
H165 C157 0.929 . S
H166 C174 0.929 . S
H167 C176 0.930 . S
H168 C178 0.930 1_556 S
H169 C181 0.929 . S
H170 C184 0.930 . S
H171 C186 0.960 . S
H172 C186 0.960 . S
H173 C186 0.960 . S
C174 H166 0.929 . S
C174 C175 1.377 . S
C174 C176 1.384 . S
C175 C174 1.377 . S
C175 C181 1.390 1_554 S
C176 H167 0.930 . S
C176 C174 1.384 . S
C176 C177 1.372 . S
C177 C176 1.372 . S
C177 C178 1.400 . S
C177 C182 1.490 . S
C178 H168 0.930 1_554 S
C178 C177 1.400 . S
C178 C181 1.386 1_554 S
H179 C195 0.930 . S
H180 C196 0.931 . S
C181 H169 0.929 . S
C181 C175 1.390 1_556 S
C181 C178 1.386 1_556 S
C182 C177 1.490 . S
C182 C184 1.395 . S
C182 C185 1.403 . S
H183 C189 0.930 . S
C184 H170 0.930 . S
C184 C182 1.395 . S
C184 C187 1.403 . S
C185 C182 1.403 . S
C185 C186 1.524 . S
C185 C189 1.400 . S
C186 H171 0.960 . S
C186 H172 0.960 . S
C186 H173 0.960 . S
C186 C185 1.524 . S
C187 C184 1.403 . S
C187 C188 1.392 . S
C187 C191 1.495 . S
C188 C187 1.392 . S
C188 C189 1.385 . S
C188 C190 1.478 . S
C189 H183 0.930 . S
C189 C185 1.400 . S
C189 C188 1.385 . S
C190 C188 1.478 . S
C190 C192 1.381 . S
C190 C196 1.383 . S
C191 C187 1.495 . S
C191 H197 0.959 . S
C191 H198 0.961 . S
C191 H199 0.960 . S
C192 C190 1.381 . S
C192 C193 1.394 . S
C192 H200 0.930 . S
C193 C192 1.394 . S
C193 C194 1.383 . S
C193 H201 0.929 . S
C194 C193 1.383 . S
C194 C195 1.377 . S
C195 H179 0.930 . S
C195 C194 1.377 . S
C195 C196 1.379 . S
C196 H180 0.931 . S
C196 C190 1.383 . S
C196 C195 1.379 . S
H197 C191 0.959 . S
H198 C191 0.961 . S
H199 C191 0.960 . S
H200 C192 0.930 . S
H201 C193 0.929 . S
H202 C210 0.929 . S
H203 C212 0.930 . S
H204 C214 0.930 . S
H205 C217 0.929 . S
H206 C220 0.930 . S
H207 C222 0.960 . S
H208 C222 0.960 . S
H209 C222 0.960 . S
C210 H202 0.929 . S
C210 C211 1.377 . S
C210 C212 1.384 . S
C211 C210 1.377 . S
C211 C217 1.390 1_556 S
C212 H203 0.930 . S
C212 C210 1.384 . S
C212 C213 1.372 . S
C213 C212 1.372 . S
C213 C214 1.400 1_556 S
C213 C218 1.490 . S
C214 H204 0.930 . S
C214 C213 1.400 1_554 S
C214 C217 1.386 . S
H215 C231 0.930 . S
H216 C232 0.931 1_554 S
C217 H205 0.929 . S
C217 C211 1.390 1_554 S
C217 C214 1.386 . S
C218 C213 1.490 . S
C218 C220 1.395 . S
C218 C221 1.403 . S
H219 C225 0.930 . S
C220 H206 0.930 . S
C220 C218 1.395 . S
C220 C223 1.403 . S
C221 C218 1.403 . S
C221 C222 1.524 . S
C221 C225 1.400 . S
C222 H207 0.960 . S
C222 H208 0.960 . S
C222 H209 0.960 . S
C222 C221 1.524 . S
C223 C220 1.403 . S
C223 C224 1.392 . S
C223 C227 1.495 . S
C224 C223 1.392 . S
C224 C225 1.385 . S
C224 C226 1.478 . S
C225 H219 0.930 . S
C225 C221 1.400 . S
C225 C224 1.385 . S
C226 C224 1.478 . S
C226 C228 1.381 . S
C226 C232 1.383 . S
C227 C223 1.495 . S
C227 H233 0.959 . S
C227 H234 0.961 1_556 S
C227 H235 0.960 . S
C228 C226 1.381 . S
C228 C229 1.394 . S
C228 H236 0.930 . S
C229 C228 1.394 . S
C229 C230 1.383 . S
C229 H237 0.929 . S
C230 C229 1.383 . S
C230 C231 1.377 . S
C231 H215 0.930 . S
C231 C230 1.377 . S
C231 C232 1.379 . S
C232 H216 0.931 1_556 S
C232 C226 1.383 . S
C232 C231 1.379 . S
H233 C227 0.959 . S
H234 C227 0.961 1_554 S
H235 C227 0.960 . S
H236 C228 0.930 . S
H237 C229 0.929 . S
H238 C246 0.929 . S
H239 C248 0.930 . S
H240 C250 0.930 . S
H241 C253 0.929 . S
H242 C256 0.930 . S
H243 C258 0.960 . S
H244 C258 0.960 . S
H245 C258 0.960 . S
C246 H238 0.929 . S
C246 C247 1.377 . S
C246 C248 1.384 . S
C247 C246 1.377 . S
C247 C253 1.390 . S
C248 H239 0.930 . S
C248 C246 1.384 . S
C248 C249 1.372 . S
C249 C248 1.372 . S
C249 C250 1.400 . S
C249 C254 1.490 . S
C250 H240 0.930 . S
C250 C249 1.400 . S
C250 C253 1.386 . S
H251 C267 0.930 . S
H252 C268 0.931 . S
C253 H241 0.929 . S
C253 C247 1.390 . S
C253 C250 1.386 . S
C254 C249 1.490 . S
C254 C256 1.395 . S
C254 C257 1.403 . S
H255 C261 0.930 . S
C256 H242 0.930 . S
C256 C254 1.395 . S
C256 C259 1.403 . S
C257 C254 1.403 . S
C257 C258 1.524 . S
C257 C261 1.400 . S
C258 H243 0.960 . S
C258 H244 0.960 . S
C258 H245 0.960 . S
C258 C257 1.524 . S
C259 C256 1.403 . S
C259 C260 1.392 . S
C259 C263 1.495 . S
C260 C259 1.392 . S
C260 C261 1.385 . S
C260 C262 1.478 . S
C261 H255 0.930 . S
C261 C257 1.400 . S
C261 C260 1.385 . S
C262 C260 1.478 . S
C262 C264 1.381 . S
C262 C268 1.383 . S
C263 C259 1.495 . S
C263 H269 0.959 . S
C263 H270 0.961 . S
C263 H271 0.960 . S
C264 C262 1.381 . S
C264 C265 1.394 . S
C264 H272 0.930 . S
C265 C264 1.394 . S
C265 C266 1.383 . S
C265 H273 0.929 . S
C266 C265 1.383 . S
C266 C267 1.377 . S
C267 H251 0.930 . S
C267 C266 1.377 . S
C267 C268 1.379 . S
C268 H252 0.931 . S
C268 C262 1.383 . S
C268 C267 1.379 . S
H269 C263 0.959 . S
H270 C263 0.961 . S
H271 C263 0.960 . S
H272 C264 0.930 . S
H273 C265 0.929 . S
H274 C282 0.929 . S
H275 C284 0.930 . S
H276 C286 0.930 . S
H277 C289 0.929 . S
H278 C292 0.930 . S
H279 C294 0.960 . S
H280 C294 0.960 . S
H281 C294 0.960 . S
C282 H274 0.929 . S
C282 C283 1.377 . S
C282 C284 1.384 . S
C283 C282 1.377 . S
C283 C289 1.390 . S
C284 H275 0.930 . S
C284 C282 1.384 . S
C284 C285 1.372 . S
C285 C284 1.372 . S
C285 C286 1.400 . S
C285 C290 1.490 . S
C286 H276 0.930 . S
C286 C285 1.400 . S
C286 C289 1.386 . S
H287 C303 0.930 . S
H288 C304 0.931 . S
C289 H277 0.929 . S
C289 C283 1.390 . S
C289 C286 1.386 . S
C290 C285 1.490 . S
C290 C292 1.395 . S
C290 C293 1.403 . S
H291 C297 0.930 . S
C292 H278 0.930 . S
C292 C290 1.395 . S
C292 C295 1.403 . S
C293 C290 1.403 . S
C293 C294 1.524 . S
C293 C297 1.400 . S
C294 H279 0.960 . S
C294 H280 0.960 . S
C294 H281 0.960 . S
C294 C293 1.524 . S
C295 C292 1.403 . S
C295 C296 1.392 . S
C295 C299 1.495 . S
C296 C295 1.392 . S
C296 C297 1.385 . S
C296 C298 1.478 . S
C297 H291 0.930 . S
C297 C293 1.400 . S
C297 C296 1.385 . S
C298 C296 1.478 . S
C298 C300 1.381 . S
C298 C304 1.383 . S
C299 C295 1.495 . S
C299 H305 0.959 . S
C299 H306 0.961 . S
C299 H307 0.960 . S
C300 C298 1.381 . S
C300 C301 1.394 . S
C300 H308 0.930 . S
C301 C300 1.394 . S
C301 C302 1.383 . S
C301 H309 0.929 . S
C302 C301 1.383 . S
C302 C303 1.377 . S
C303 H287 0.930 . S
C303 C302 1.377 . S
C303 C304 1.379 . S
C304 H288 0.931 . S
C304 C298 1.383 . S
C304 C303 1.379 . S
H305 C299 0.959 . S
H306 C299 0.961 . S
H307 C299 0.960 . S
H308 C300 0.930 . S
H309 C301 0.929 . S
H310 C318 0.929 . S
H311 C320 0.930 . S
H312 C322 0.930 . S
H313 C325 0.929 . S
H314 C328 0.930 . S
H315 C330 0.960 . S
H316 C330 0.960 . S
H317 C330 0.960 . S
C318 H310 0.929 . S
C318 C319 1.377 . S
C318 C320 1.384 . S
C319 C318 1.377 . S
C319 C325 1.390 . S
C320 H311 0.930 . S
C320 C318 1.384 . S
C320 C321 1.372 . S
C321 C320 1.372 . S
C321 C322 1.400 . S
C321 C326 1.490 . S
C322 H312 0.930 . S
C322 C321 1.400 . S
C322 C325 1.386 . S
H323 C339 0.930 . S
H324 C340 0.931 . S
C325 H313 0.929 . S
C325 C319 1.390 . S
C325 C322 1.386 . S
C326 C321 1.490 . S
C326 C328 1.395 . S
C326 C329 1.403 . S
H327 C333 0.930 . S
C328 H314 0.930 . S
C328 C326 1.395 . S
C328 C331 1.403 . S
C329 C326 1.403 . S
C329 C330 1.524 . S
C329 C333 1.400 . S
C330 H315 0.960 . S
C330 H316 0.960 . S
C330 H317 0.960 . S
C330 C329 1.524 . S
C331 C328 1.403 . S
C331 C332 1.392 . S
C331 C335 1.495 . S
C332 C331 1.392 . S
C332 C333 1.385 . S
C332 C334 1.478 . S
C333 H327 0.930 . S
C333 C329 1.400 . S
C333 C332 1.385 . S
C334 C332 1.478 . S
C334 C336 1.381 . S
C334 C340 1.383 . S
C335 C331 1.495 . S
C335 H341 0.959 . S
C335 H342 0.961 . S
C335 H343 0.960 . S
C336 C334 1.381 . S
C336 C337 1.394 . S
C336 H344 0.930 . S
C337 C336 1.394 . S
C337 C338 1.383 . S
C337 H345 0.929 . S
C338 C337 1.383 . S
C338 C339 1.377 . S
C339 H323 0.930 . S
C339 C338 1.377 . S
C339 C340 1.379 . S
C340 H324 0.931 . S
C340 C334 1.383 . S
C340 C339 1.379 . S
H341 C335 0.959 . S
H342 C335 0.961 . S
H343 C335 0.960 . S
H344 C336 0.930 . S
H345 C337 0.929 . S
H346 C354 0.929 . S
H347 C356 0.930 . S
H348 C358 0.930 . S
H349 C361 0.929 . S
H350 C364 0.930 . S
H351 C366 0.960 . S
H352 C366 0.960 . S
H353 C366 0.960 . S
C354 H346 0.929 . S
C354 C355 1.377 . S
C354 C356 1.384 . S
C355 C354 1.377 . S
C355 C361 1.390 . S
C356 H347 0.930 . S
C356 C354 1.384 . S
C356 C357 1.372 . S
C357 C356 1.372 . S
C357 C358 1.400 . S
C357 C362 1.490 . S
C358 H348 0.930 . S
C358 C357 1.400 . S
C358 C361 1.386 . S
H359 C375 0.930 . S
H360 C376 0.931 . S
C361 H349 0.929 . S
C361 C355 1.390 . S
C361 C358 1.386 . S
C362 C357 1.490 . S
C362 C364 1.395 . S
C362 C365 1.403 . S
H363 C369 0.930 . S
C364 H350 0.930 . S
C364 C362 1.395 . S
C364 C367 1.403 . S
C365 C362 1.403 . S
C365 C366 1.524 . S
C365 C369 1.400 . S
C366 H351 0.960 . S
C366 H352 0.960 . S
C366 H353 0.960 . S
C366 C365 1.524 . S
C367 C364 1.403 . S
C367 C368 1.392 . S
C367 C371 1.495 . S
C368 C367 1.392 . S
C368 C369 1.385 . S
C368 C370 1.478 . S
C369 H363 0.930 . S
C369 C365 1.400 . S
C369 C368 1.385 . S
C370 C368 1.478 . S
C370 C372 1.381 . S
C370 C376 1.383 . S
C371 C367 1.495 . S
C371 H377 0.959 . S
C371 H378 0.961 . S
C371 H379 0.960 . S
C372 C370 1.381 . S
C372 C373 1.394 . S
C372 H380 0.930 . S
C373 C372 1.394 . S
C373 C374 1.383 . S
C373 H381 0.929 . S
C374 C373 1.383 . S
C374 C375 1.377 . S
C375 H359 0.930 . S
C375 C374 1.377 . S
C375 C376 1.379 . S
C376 H360 0.931 . S
C376 C370 1.383 . S
C376 C375 1.379 . S
H377 C371 0.959 . S
H378 C371 0.961 . S
H379 C371 0.960 . S
H380 C372 0.930 . S
H381 C373 0.929 . S
H382 C390 0.929 . S
H383 C392 0.930 . S
H384 C394 0.930 1_655 S
H385 C397 0.929 1_655 S
H386 C400 0.930 . S
H387 C402 0.960 . S
H388 C402 0.960 . S
H389 C402 0.960 1_655 S
C390 H382 0.929 . S
C390 C391 1.377 . S
C390 C392 1.384 . S
C391 C390 1.377 . S
C391 C397 1.390 . S
C392 H383 0.930 . S
C392 C390 1.384 . S
C392 C393 1.372 . S
C393 C392 1.372 . S
C393 C394 1.400 . S
C393 C398 1.490 . S
C394 H384 0.930 1_455 S
C394 C393 1.400 . S
C394 C397 1.386 . S
H395 C411 0.930 1_655 S
H396 C412 0.931 1_655 S
C397 H385 0.929 1_455 S
C397 C391 1.390 . S
C397 C394 1.386 . S
C398 C393 1.490 . S
C398 C400 1.395 . S
C398 C401 1.403 1_545 S
H399 C405 0.930 . S
C400 H386 0.930 . S
C400 C398 1.395 . S
C400 C403 1.403 . S
C401 C398 1.403 1_565 S
C401 C402 1.524 . S
C401 C405 1.400 . S
C402 H387 0.960 . S
C402 H388 0.960 . S
C402 H389 0.960 1_455 S
C402 C401 1.524 . S
C403 C400 1.403 . S
C403 C404 1.392 . S
C403 C407 1.495 . S
C404 C403 1.392 . S
C404 C405 1.385 1_545 S
C404 C406 1.478 . S
C405 H399 0.930 . S
C405 C401 1.400 . S
C405 C404 1.385 1_565 S
C406 C404 1.478 . S
C406 C408 1.381 . S
C406 C412 1.383 . S
C407 C403 1.495 . S
C407 H413 0.959 . S
C407 H414 0.961 . S
C407 H415 0.960 . S
C408 C406 1.381 . S
C408 C409 1.397 . S
C408 H416 0.930 . S
C409 C408 1.397 . S
C409 C410 1.384 . S
C409 H417 0.927 1_545 S
C410 C409 1.384 . S
C410 C411 1.377 . S
C411 H395 0.930 1_455 S
C411 C410 1.377 . S
C411 C412 1.379 . S
C412 H396 0.931 1_455 S
C412 C406 1.383 . S
C412 C411 1.379 . S
H413 C407 0.959 . S
H414 C407 0.961 . S
H415 C407 0.960 . S
H416 C408 0.930 . S
H417 C409 0.927 1_565 S
H418 C426 0.929 . S
H419 C428 0.930 . S
H420 C430 0.930 1_655 S
H421 C433 0.929 1_655 S
H422 C436 0.930 . S
H423 C438 0.960 . S
H424 C438 0.960 . S
H425 C438 0.960 . S
C426 H418 0.929 . S
C426 C427 1.377 . S
C426 C428 1.384 . S
C427 C426 1.377 . S
C427 C433 1.390 . S
C428 H419 0.930 . S
C428 C426 1.384 . S
C428 C429 1.372 . S
C429 C428 1.372 . S
C429 C430 1.400 . S
C429 C434 1.490 . S
C430 H420 0.930 1_455 S
C430 C429 1.400 . S
C430 C433 1.386 . S
H431 C447 0.930 . S
H432 C448 0.931 . S
C433 H421 0.929 1_455 S
C433 C427 1.390 . S
C433 C430 1.386 . S
C434 C429 1.490 . S
C434 C436 1.395 . S
C434 C437 1.403 . S
H435 C441 0.930 1_655 S
C436 H422 0.930 . S
C436 C434 1.395 . S
C436 C439 1.403 . S
C437 C434 1.403 . S
C437 C438 1.524 1_455 S
C437 C441 1.400 . S
C438 H423 0.960 . S
C438 H424 0.960 . S
C438 H425 0.960 . S
C438 C437 1.524 1_655 S
C439 C436 1.403 . S
C439 C440 1.392 . S
C439 C443 1.495 . S
C440 C439 1.392 . S
C440 C441 1.385 . S
C440 C442 1.478 . S
C441 H435 0.930 1_455 S
C441 C437 1.400 . S
C441 C440 1.385 . S
C442 C440 1.478 . S
C442 C444 1.381 . S
C442 C448 1.383 1_455 S
C443 C439 1.495 . S
C443 H449 0.959 . S
C443 H450 0.962 1_545 S
C443 H451 0.960 . S
C444 C442 1.381 . S
C444 C445 1.394 . S
C444 H452 0.930 . S
C445 C444 1.394 . S
C445 C446 1.383 . S
C445 H453 0.929 . S
C446 C445 1.383 . S
C446 C447 1.377 1_455 S
C447 H431 0.930 . S
C447 C446 1.377 1_655 S
C447 C448 1.379 . S
C448 H432 0.931 . S
C448 C442 1.383 1_655 S
C448 C447 1.379 . S
H449 C443 0.959 . S
H450 C443 0.962 1_565 S
H451 C443 0.960 . S
H452 C444 0.930 . S
H453 C445 0.929 . S
H454 C462 0.929 . S
H455 C464 0.930 . S
H456 C466 0.930 . S
H457 C469 0.929 . S
H458 C472 0.930 . S
H459 C474 0.960 . S
H460 C474 0.960 . S
H461 C474 0.960 . S
C462 H454 0.929 . S
C462 C463 1.377 . S
C462 C464 1.384 . S
C463 C462 1.377 . S
C463 C469 1.390 . S
C464 H455 0.930 . S
C464 C462 1.384 . S
C464 C465 1.372 . S
C465 C464 1.372 . S
C465 C466 1.400 . S
C465 C470 1.490 . S
C466 H456 0.930 . S
C466 C465 1.400 . S
C466 C469 1.386 . S
H467 C483 0.930 . S
H468 C484 0.931 . S
C469 H457 0.929 . S
C469 C463 1.390 . S
C469 C466 1.386 . S
C470 C465 1.490 . S
C470 C472 1.395 . S
C470 C473 1.403 . S
H471 C477 0.930 . S
C472 H458 0.930 . S
C472 C470 1.395 . S
C472 C475 1.403 . S
C473 C470 1.403 . S
C473 C474 1.524 . S
C473 C477 1.400 . S
C474 H459 0.960 . S
C474 H460 0.960 . S
C474 H461 0.960 . S
C474 C473 1.524 . S
C475 C472 1.403 . S
C475 C476 1.392 . S
C475 C479 1.495 . S
C476 C475 1.392 . S
C476 C477 1.385 . S
C476 C478 1.478 . S
C477 H471 0.930 . S
C477 C473 1.400 . S
C477 C476 1.385 . S
C478 C476 1.478 . S
C478 C480 1.381 . S
C478 C484 1.383 . S
C479 C475 1.495 . S
C479 H485 0.959 . S
C479 H486 0.961 . S
C479 H487 0.960 . S
C480 C478 1.381 . S
C480 C481 1.394 . S
C480 H488 0.930 . S
C481 C480 1.394 . S
C481 C482 1.383 . S
C481 H489 0.929 . S
C482 C481 1.383 . S
C482 C483 1.377 . S
C483 H467 0.930 . S
C483 C482 1.377 . S
C483 C484 1.379 . S
C484 H468 0.931 . S
C484 C478 1.383 . S
C484 C483 1.379 . S
H485 C479 0.959 . S
H486 C479 0.961 . S
H487 C479 0.960 . S
H488 C480 0.930 . S
H489 C481 0.929 . S
H490 C498 0.929 . S
H491 C500 0.930 . S
H492 C502 0.930 . S
H493 C505 0.929 . S
H494 C508 0.930 . S
H495 C510 0.960 . S
H496 C510 0.960 . S
H497 C510 0.960 . S
C498 H490 0.929 . S
C498 C499 1.377 . S
C498 C500 1.384 . S
C499 C498 1.377 . S
C499 C505 1.390 . S
C500 H491 0.930 . S
C500 C498 1.384 . S
C500 C501 1.372 . S
C501 C500 1.372 . S
C501 C502 1.400 . S
C501 C506 1.490 . S
C502 H492 0.930 . S
C502 C501 1.400 . S
C502 C505 1.386 . S
H503 C519 0.930 . S
H504 C520 0.931 . S
C505 H493 0.929 . S
C505 C499 1.390 . S
C505 C502 1.386 . S
C506 C501 1.490 . S
C506 C508 1.395 . S
C506 C509 1.403 . S
H507 C513 0.930 . S
C508 H494 0.930 . S
C508 C506 1.395 . S
C508 C511 1.403 . S
C509 C506 1.403 . S
C509 C510 1.524 . S
C509 C513 1.400 . S
C510 H495 0.960 . S
C510 H496 0.960 . S
C510 H497 0.960 . S
C510 C509 1.524 . S
C511 C508 1.403 . S
C511 C512 1.392 . S
C511 C515 1.495 . S
C512 C511 1.392 . S
C512 C513 1.385 . S
C512 C514 1.478 . S
C513 H507 0.930 . S
C513 C509 1.400 . S
C513 C512 1.385 . S
C514 C512 1.478 . S
C514 C516 1.381 . S
C514 C520 1.383 . S
C515 C511 1.495 . S
C515 H521 0.959 . S
C515 H522 0.961 . S
C515 H523 0.960 . S
C516 C514 1.381 . S
C516 C517 1.394 . S
C516 H524 0.930 . S
C517 C516 1.394 . S
C517 C518 1.383 . S
C517 H525 0.929 . S
C518 C517 1.383 . S
C518 C519 1.377 . S
C519 H503 0.930 . S
C519 C518 1.377 . S
C519 C520 1.379 . S
C520 H504 0.931 . S
C520 C514 1.383 . S
C520 C519 1.379 . S
H521 C515 0.959 . S
H522 C515 0.961 . S
H523 C515 0.960 . S
H524 C516 0.930 . S
H525 C517 0.929 . S
C122 C85 1.228 . S
C103 C15 1.199 . S
C139 C13 1.407 . S
C158 C72 1.319 . S
C175 C18 1.350 . S
C194 C89 1.548 . S
C211 C17 1.406 . S
C230 C76 1.469 . S
C247 C36 1.196 . S
C266 C59 1.232 1_565 S
C283 C34 1.408 . S
C302 C46 1.267 . S
C338 C63 1.529 . S
C319 C39 1.338 . S
C374 C50 1.463 . S
C355 C38 1.409 . S
C391 C14 1.564 . S
C410 C51 1.622 1_545 S
C427 C16 1.405 . S
C446 C64 1.450 . S
C482 C77 1.623 . S
C463 C35 1.562 . S
C499 C37 1.405 . S
C518 C90 1.450 . S
