# Generated by pormake.
# Topology sqc, (4,8)-cn, num edge types: 1
# Building blocks:
#     Node 0, Type 0, BuildingBlock: AZAVOO_clean_linker_0, # of connection points: 4
#     Node 1, Type 0, BuildingBlock: AZAVOO_clean_linker_0, # of connection points: 4
#     Node 2, Type 0, BuildingBlock: AZAVOO_clean_linker_0, # of connection points: 4
#     Node 3, Type 0, BuildingBlock: AZAVOO_clean_linker_0, # of connection points: 4
#     Node 4, Type 0, BuildingBlock: AZAVOO_clean_linker_0, # of connection points: 4
#     Node 5, Type 0, BuildingBlock: AZAVOO_clean_linker_0, # of connection points: 4
#     Node 6, Type 0, BuildingBlock: AZAVOO_clean_linker_0, # of connection points: 4
#     Node 7, Type 0, BuildingBlock: AZAVOO_clean_linker_0, # of connection points: 4
#     Node 8, Type 1, BuildingBlock: VETTIZ_charged_sbu_0, # of connection points: 8
#     Node 9, Type 1, BuildingBlock: VETTIZ_charged_sbu_0, # of connection points: 8
#     Node 10, Type 1, BuildingBlock: VETTIZ_charged_sbu_0, # of connection points: 8
#     Node 11, Type 1, BuildingBlock: VETTIZ_charged_sbu_0, # of connection points: 8
#     Edge 12, Type (0, 1), BuildingBlock: TEMPAE_clean_linker_10, # of connection points: 2
#     Edge 13, Type (0, 1), BuildingBlock: TEMPAE_clean_linker_10, # of connection points: 2
#     Edge 14, Type (0, 1), BuildingBlock: TEMPAE_clean_linker_10, # of connection points: 2
#     Edge 15, Type (0, 1), BuildingBlock: TEMPAE_clean_linker_10, # of connection points: 2
#     Edge 16, Type (0, 1), BuildingBlock: TEMPAE_clean_linker_10, # of connection points: 2
#     Edge 17, Type (0, 1), BuildingBlock: TEMPAE_clean_linker_10, # of connection points: 2
#     Edge 18, Type (0, 1), BuildingBlock: TEMPAE_clean_linker_10, # of connection points: 2
#     Edge 19, Type (0, 1), BuildingBlock: TEMPAE_clean_linker_10, # of connection points: 2
#     Edge 20, Type (0, 1), BuildingBlock: TEMPAE_clean_linker_10, # of connection points: 2
#     Edge 21, Type (0, 1), BuildingBlock: TEMPAE_clean_linker_10, # of connection points: 2
#     Edge 22, Type (0, 1), BuildingBlock: TEMPAE_clean_linker_10, # of connection points: 2
#     Edge 23, Type (0, 1), BuildingBlock: TEMPAE_clean_linker_10, # of connection points: 2
#     Edge 24, Type (0, 1), BuildingBlock: TEMPAE_clean_linker_10, # of connection points: 2
#     Edge 25, Type (0, 1), BuildingBlock: TEMPAE_clean_linker_10, # of connection points: 2
#     Edge 26, Type (0, 1), BuildingBlock: TEMPAE_clean_linker_10, # of connection points: 2
#     Edge 27, Type (0, 1), BuildingBlock: TEMPAE_clean_linker_10, # of connection points: 2
#     Edge 28, Type (0, 1), BuildingBlock: TEMPAE_clean_linker_10, # of connection points: 2
#     Edge 29, Type (0, 1), BuildingBlock: TEMPAE_clean_linker_10, # of connection points: 2
#     Edge 30, Type (0, 1), BuildingBlock: TEMPAE_clean_linker_10, # of connection points: 2
#     Edge 31, Type (0, 1), BuildingBlock: TEMPAE_clean_linker_10, # of connection points: 2
#     Edge 32, Type (0, 1), BuildingBlock: TEMPAE_clean_linker_10, # of connection points: 2
#     Edge 33, Type (0, 1), BuildingBlock: TEMPAE_clean_linker_10, # of connection points: 2
#     Edge 34, Type (0, 1), BuildingBlock: TEMPAE_clean_linker_10, # of connection points: 2
#     Edge 35, Type (0, 1), BuildingBlock: TEMPAE_clean_linker_10, # of connection points: 2
#     Edge 36, Type (0, 1), BuildingBlock: TEMPAE_clean_linker_10, # of connection points: 2
#     Edge 37, Type (0, 1), BuildingBlock: TEMPAE_clean_linker_10, # of connection points: 2
#     Edge 38, Type (0, 1), BuildingBlock: TEMPAE_clean_linker_10, # of connection points: 2
#     Edge 39, Type (0, 1), BuildingBlock: TEMPAE_clean_linker_10, # of connection points: 2
#     Edge 40, Type (0, 1), BuildingBlock: TEMPAE_clean_linker_10, # of connection points: 2
#     Edge 41, Type (0, 1), BuildingBlock: TEMPAE_clean_linker_10, # of connection points: 2
#     Edge 42, Type (0, 1), BuildingBlock: TEMPAE_clean_linker_10, # of connection points: 2
#     Edge 43, Type (0, 1), BuildingBlock: TEMPAE_clean_linker_10, # of connection points: 2
# Relax obj value: 0.166
# Max RMSD: 0.286
# Mean RMSD: 0.234
data_MOF--net-sqc--node1-VETTIZ_charged_sbu_0--node2-AZAVOO_clean_linker_0--edge1-TEMPAE_clean_linker_10
_symmetry_space_group_name_H-M    P1
_symmetry_Int_Tables_number       1
_symmetry_cell_setting            triclinic
loop_
_symmetry_equiv_pos_as_xyz
'x, y, z'
_cell_length_a     26.817335
_cell_length_b     26.829871
_cell_length_c     90.862268
_cell_angle_alpha  90.725056
_cell_angle_beta   89.96897
_cell_angle_gamma 90.649622
loop_
_atom_site_label
_atom_site_type_symbol
_atom_site_fract_x
_atom_site_fract_y
_atom_site_fract_z
_atom_type_partial_charge
H0 H 0.03583 0.2046 0.61882 0.0
H1 H 0.71525 0.86307 0.5127 0.0
H2 H 0.08245 0.12658 0.54399 0.0
H3 H 0.15855 0.15672 0.55613 0.0
H4 H 0.20117 0.00463 0.56419 0.0
H5 H 0.12505 0.97483 0.55178 0.0
H6 H 0.9798 0.13263 0.56003 0.0
H7 H 0.99569 0.17534 0.58355 0.0
H8 H 0.06862 0.04369 0.59957 0.0
H9 H 0.05196 0.00126 0.57604 0.0
H10 H 0.88619 0.0918 0.54443 0.0
H11 H 0.81426 0.10607 0.56031 0.0
H12 H 0.86472 0.99048 0.58934 0.0
H13 H 0.93537 0.9747 0.57283 0.0
H14 H 0.87876 0.0515 0.51873 0.0
H15 H 0.79711 0.01977 0.5107 0.0
H16 H 0.82869 0.8779 0.53052 0.0
H17 H 0.90954 0.91069 0.5389 0.0
H18 H 0.97496 0.05698 0.501 0.0
H19 H 0.92063 0.03791 0.47999 0.0
H20 H 0.92058 0.88234 0.49142 0.0
H21 H 0.97435 0.90174 0.51256 0.0
H22 H 0.1081 0.0729 0.516 0.0
H23 H 0.18369 0.05039 0.5023 0.0
H24 H 0.14212 0.89485 0.50491 0.0
H25 H 0.06796 0.91719 0.51914 0.0
O26 O 0.02928 0.18675 0.60969 0.0
O27 O 0.06631 0.1181 0.61742 0.0
O28 O 0.72893 0.95273 0.50806 0.0
O29 O 0.7464 0.87719 0.51628 0.0
C30 C 0.04766 0.03142 0.54222 0.0
C31 C 0.00684 0.039 0.55184 0.0
C32 C 0.95852 0.02347 0.54758 0.0
C33 C 0.95052 0.00151 0.53364 0.0
C34 C 0.99071 0.99559 0.52374 0.0
C35 C 0.03967 0.00902 0.52818 0.0
C36 C 0.09816 0.04853 0.54703 0.0
C37 C 0.10882 0.09976 0.54808 0.0
C38 C 0.15209 0.1169 0.55513 0.0
C39 C 0.18565 0.08312 0.56133 0.0
C40 C 0.17631 0.03165 0.55948 0.0
C41 C 0.13287 0.01451 0.55238 0.0
C42 C 0.0147 0.0639 0.56636 0.0
C43 C 0.99881 0.11298 0.56869 0.0
C44 C 0.00812 0.13732 0.58211 0.0
C45 C 0.03355 0.11297 0.59343 0.0
C46 C 0.049 0.06354 0.59108 0.0
C47 C 0.03954 0.03922 0.57766 0.0
C48 C 0.91562 0.03208 0.55747 0.0
C49 C 0.88126 0.06914 0.55411 0.0
C50 C 0.84048 0.07746 0.56326 0.0
C51 C 0.83387 0.04948 0.57611 0.0
C52 C 0.86839 0.01213 0.57941 0.0
C53 C 0.90897 0.00343 0.57012 0.0
C54 C 0.89985 0.9834 0.52944 0.0
C55 C 0.86765 0.01381 0.52149 0.0
C56 C 0.8212 0.99549 0.51684 0.0
C57 C 0.8066 0.9461 0.51983 0.0
C58 C 0.83885 0.916 0.52797 0.0
C59 C 0.88495 0.93464 0.53281 0.0
C60 C 0.97878 0.98077 0.50831 0.0
C61 C 0.96558 0.0184 0.49851 0.0
C62 C 0.934 0.00758 0.48662 0.0
C63 C 0.91594 0.9588 0.48423 0.0
C64 C 0.93421 0.9202 0.49298 0.0
C65 C 0.96533 0.93116 0.50498 0.0
C66 C 0.08259 0.99666 0.5186 0.0
C67 C 0.11537 0.03399 0.51364 0.0
C68 C 0.1584 0.02117 0.50586 0.0
C69 C 0.16851 0.97096 0.50266 0.0
C70 C 0.13486 0.93382 0.50721 0.0
C71 C 0.09245 0.94656 0.51524 0.0
C72 C 0.04409 0.13922 0.60759 0.0
C73 C 0.75825 0.92577 0.51437 0.0
H74 H 0.35121 0.66903 0.70537 0.0
H75 H 0.27334 0.07801 0.831 0.0
H76 H 0.22707 0.65731 0.77722 0.0
H77 H 0.24778 0.58826 0.76047 0.0
H78 H 0.39782 0.58842 0.77762 0.0
H79 H 0.37708 0.65775 0.79408 0.0
H80 H 0.25161 0.74645 0.75804 0.0
H81 H 0.2802 0.71789 0.7338 0.0
H82 H 0.42994 0.70502 0.75088 0.0
H83 H 0.40075 0.73351 0.77505 0.0
H84 H 0.24724 0.87166 0.77234 0.0
H85 H 0.28221 0.94526 0.7601 0.0
H86 H 0.43084 0.8986 0.77143 0.0
H87 H 0.39569 0.82598 0.784 0.0
H88 H 0.18933 0.86403 0.80148 0.0
H89 H 0.17316 0.94856 0.81059 0.0
H90 H 0.33007 0.96815 0.82031 0.0
H91 H 0.34554 0.88326 0.81135 0.0
H92 H 0.17029 0.78424 0.82158 0.0
H93 H 0.14285 0.84256 0.84059 0.0
H94 H 0.29683 0.87137 0.85243 0.0
H95 H 0.32301 0.80962 0.83436 0.0
H96 H 0.18848 0.69533 0.82023 0.0
H97 H 0.17732 0.62849 0.83779 0.0
H98 H 0.33477 0.59524 0.83439 0.0
H99 H 0.34618 0.66672 0.81859 0.0
O100 O 0.3411 0.68221 0.71486 0.0
O101 O 0.41791 0.67858 0.72397 0.0
O102 O 0.19816 0.03193 0.82251 0.0
O103 O 0.27874 0.04466 0.82719 0.0
C104 C 0.29315 0.71429 0.79293 0.0
C105 C 0.30526 0.75345 0.7833 0.0
C106 C 0.29872 0.80315 0.7878 0.0
C107 C 0.27724 0.81461 0.80153 0.0
C108 C 0.26605 0.77619 0.81154 0.0
C109 C 0.27502 0.72577 0.80732 0.0
C110 C 0.30001 0.6621 0.78727 0.0
C111 C 0.26372 0.64092 0.77787 0.0
C112 C 0.27597 0.60208 0.76806 0.0
C113 C 0.32469 0.58307 0.76755 0.0
C114 C 0.35984 0.6017 0.77778 0.0
C115 C 0.34774 0.64095 0.78744 0.0
C116 C 0.32413 0.74204 0.76826 0.0
C117 C 0.2907 0.73815 0.75644 0.0
C118 C 0.30709 0.72155 0.74264 0.0
C119 C 0.3573 0.70883 0.74043 0.0
C120 C 0.391 0.71435 0.75222 0.0
C121 C 0.37452 0.73087 0.76601 0.0
C122 C 0.31914 0.84366 0.77885 0.0
C123 C 0.2873 0.87727 0.77204 0.0
C124 C 0.30715 0.91921 0.76525 0.0
C125 C 0.35894 0.92725 0.76506 0.0
C126 C 0.39079 0.8928 0.77152 0.0
C127 C 0.37089 0.85134 0.77851 0.0
C128 C 0.26852 0.86756 0.80582 0.0
C129 C 0.22017 0.88681 0.80549 0.0
C130 C 0.21105 0.93503 0.81073 0.0
C131 C 0.25031 0.96504 0.81625 0.0
C132 C 0.29898 0.94601 0.81617 0.0
C133 C 0.308 0.89767 0.811 0.0
C134 C 0.2488 0.79183 0.82657 0.0
C135 C 0.19787 0.80053 0.82896 0.0
C136 C 0.18236 0.83554 0.83958 0.0
C137 C 0.21748 0.8638 0.84784 0.0
C138 C 0.26816 0.85088 0.84647 0.0
C139 C 0.28345 0.81483 0.83614 0.0
C140 C 0.26803 0.68554 0.81803 0.0
C141 C 0.22065 0.67434 0.8236 0.0
C142 C 0.2143 0.63532 0.83343 0.0
C143 C 0.25499 0.60548 0.8374 0.0
C144 C 0.30255 0.61744 0.83183 0.0
C145 C 0.30907 0.65771 0.82249 0.0
C146 C 0.37414 0.68908 0.72594 0.0
C147 C 0.24063 0.01584 0.82215 0.0
H148 H 0.4819 0.85297 0.11825 0.0
H149 H 0.85172 0.16834 0.02108 0.0
H150 H 0.46442 0.92571 0.04517 0.0
H151 H 0.38524 0.9032 0.05686 0.0
H152 H 0.34656 0.05886 0.05968 0.0
H153 H 0.42618 0.08115 0.048 0.0
H154 H 0.56437 0.91868 0.06203 0.0
H155 H 0.53813 0.87856 0.08485 0.0
H156 H 0.46199 0.01312 0.09809 0.0
H157 H 0.48911 0.05301 0.07534 0.0
H158 H 0.66725 0.95957 0.04671 0.0
H159 H 0.73232 0.94163 0.06455 0.0
H160 H 0.66814 0.0485 0.09493 0.0
H161 H 0.60477 0.06829 0.07657 0.0
H162 H 0.66789 0.99892 0.01754 0.0
H163 H 0.75085 0.02731 0.0099 0.0
H164 H 0.73834 0.15542 0.03898 0.0
H165 H 0.6551 0.12679 0.0464 0.0
H166 H 0.58184 0.00985 0.99875 0.0
H167 H 0.63544 0.04346 0.97931 0.0
H168 H 0.6387 0.18624 0.00186 0.0
H169 H 0.58466 0.1526 0.02098 0.0
H170 H 0.45678 0.96753 0.01568 0.0
H171 H 0.38456 0.97824 -0.00013 0.0
H172 H 0.41585 0.13682 0.99856 0.0
H173 H 0.48424 0.12616 0.01575 0.0
O174 O 0.493 0.86998 0.10949 0.0
O175 O 0.45415 0.93994 0.11572 0.0
O176 O 0.82461 0.08837 0.00973 0.0
O177 O 0.81957 0.15559 0.0242 0.0
C178 C 0.50349 0.01889 0.04209 0.0
C179 C 0.54139 0.01157 0.05268 0.0
C180 C 0.59124 0.02488 0.04949 0.0
C181 C 0.60309 0.04639 0.03584 0.0
C182 C 0.56517 0.0547 0.02532 0.0
C183 C 0.51537 0.03995 0.02828 0.0
C184 C 0.45123 0.00507 0.04589 0.0
C185 C 0.43831 0.95484 0.04798 0.0
C186 C 0.39327 0.94211 0.05472 0.0
C187 C 0.36015 0.97937 0.05937 0.0
C188 C 0.37134 0.02941 0.05617 0.0
C189 C 0.41669 0.04218 0.04949 0.0
C190 C 0.52865 0.98871 0.06704 0.0
C191 C 0.54258 0.93961 0.06997 0.0
C192 C 0.5273 0.91671 0.08297 0.0
C193 C 0.49773 0.94255 0.09326 0.0
C194 C 0.48462 0.99212 0.09039 0.0
C195 C 0.5001 0.01502 0.07742 0.0
C196 C 0.63133 0.01524 0.06033 0.0
C197 C 0.66771 0.97964 0.05713 0.0
C198 C 0.70454 0.96907 0.06742 0.0
C199 C 0.70524 0.99328 0.08126 0.0
C200 C 0.66905 0.02954 0.08435 0.0
C201 C 0.63254 0.04056 0.07394 0.0
C202 C 0.6555 0.06093 0.03247 0.0
C203 C 0.68333 0.03291 0.02232 0.0
C204 C 0.73065 0.04925 0.01797 0.0
C205 C 0.75111 0.09384 0.02377 0.0
C206 C 0.72361 0.12105 0.03426 0.0
C207 C 0.67621 0.10467 0.03859 0.0
C208 C 0.57957 0.07874 0.01129 0.0
C209 C 0.59205 0.04903 0.99907 0.0
C210 C 0.62328 0.06812 0.9881 0.0
C211 C 0.64218 0.11722 0.98922 0.0
C212 C 0.62473 0.14839 0.00061 0.0
C213 C 0.59361 0.12928 0.01154 0.0
C214 C 0.47563 0.04609 0.01705 0.0
C215 C 0.44774 0.00464 0.01205 0.0
C216 C 0.40672 0.01082 0.0028 0.0
C217 C 0.39355 0.05855 0.99796 0.0
C218 C 0.42355 0.09962 0.00236 0.0
C219 C 0.46352 0.09355 0.01199 0.0
C220 C 0.48029 0.91763 0.10685 0.0
C221 C 0.80066 0.11222 0.01879 0.0
H222 H 0.15364 0.24026 0.20008 0.0
H223 H 0.39263 0.60454 0.31432 0.0
H224 H 0.19744 0.2127 0.27753 0.0
H225 H 0.17193 0.13189 0.26772 0.0
H226 H 0.32476 0.08216 0.27012 0.0
H227 H 0.35041 0.16536 0.27871 0.0
H228 H 0.19229 0.30636 0.26061 0.0
H229 H 0.16268 0.28547 0.23582 0.0
H230 H 0.3038 0.21578 0.22614 0.0
H231 H 0.33319 0.23752 0.25092 0.0
H232 H 0.21297 0.39886 0.27684 0.0
H233 H 0.19653 0.46591 0.25959 0.0
H234 H 0.33306 0.43157 0.23643 0.0
H235 H 0.34844 0.36369 0.25362 0.0
H236 H 0.24327 0.40526 0.30666 0.0
H237 H 0.25739 0.49023 0.316 0.0
H238 H 0.40344 0.49162 0.29579 0.0
H239 H 0.38867 0.40664 0.28648 0.0
H240 H 0.25645 0.31469 0.32492 0.0
H241 H 0.26913 0.37225 0.34571 0.0
H242 H 0.42162 0.39634 0.33192 0.0
H243 H 0.40871 0.33833 0.31135 0.0
H244 H 0.24963 0.18717 0.30967 0.0
H245 H 0.27602 0.11094 0.32194 0.0
H246 H 0.42957 0.15978 0.31889 0.0
H247 H 0.40314 0.23518 0.30626 0.0
O248 O 0.16628 0.24855 0.20979 0.0
O249 O 0.23942 0.21306 0.20538 0.0
O250 O 0.30901 0.56996 0.31986 0.0
O251 O 0.38561 0.57141 0.31047 0.0
C252 C 0.29081 0.24688 0.28282 0.0
C253 C 0.28263 0.2857 0.27268 0.0
C254 C 0.29131 0.33573 0.27695 0.0
C255 C 0.30785 0.34703 0.29131 0.0
C256 C 0.31763 0.30827 0.30133 0.0
C257 C 0.31 0.25795 0.29705 0.0
C258 C 0.27582 0.19516 0.27863 0.0
C259 C 0.2254 0.18429 0.27594 0.0
C260 C 0.2108 0.13758 0.27054 0.0
C261 C 0.2462 0.10005 0.26806 0.0
C262 C 0.29653 0.11031 0.27158 0.0
C263 C 0.31129 0.15767 0.27664 0.0
C264 C 0.265 0.27377 0.25752 0.0
C265 C 0.21692 0.28704 0.25307 0.0
C266 C 0.20002 0.27484 0.23892 0.0
C267 C 0.23088 0.24896 0.22898 0.0
C268 C 0.27909 0.23575 0.23351 0.0
C269 C 0.29598 0.2481 0.24765 0.0
C270 C 0.28192 0.37662 0.26648 0.0
C271 C 0.23936 0.40602 0.26807 0.0
C272 C 0.23023 0.44446 0.25824 0.0
C273 C 0.26365 0.45437 0.24666 0.0
C274 C 0.30633 0.42466 0.24513 0.0
C275 C 0.31533 0.38606 0.25495 0.0
C276 C 0.31503 0.39991 0.29595 0.0
C277 C 0.2781 0.42419 0.30417 0.0
C278 C 0.28633 0.47263 0.30952 0.0
C279 C 0.33171 0.4976 0.30672 0.0
C280 C 0.36819 0.4734 0.2982 0.0
C281 C 0.35981 0.425 0.29281 0.0
C282 C 0.33161 0.32249 0.3166 0.0
C283 C 0.29336 0.33019 0.32689 0.0
C284 C 0.3004 0.36382 0.33859 0.0
C285 C 0.34595 0.38978 0.34022 0.0
C286 C 0.38609 0.37697 0.33099 0.0
C287 C 0.37896 0.3434 0.31928 0.0
C288 C 0.32444 0.21676 0.30698 0.0
C289 C 0.28891 0.18172 0.31181 0.0
C290 C 0.30404 0.13804 0.3187 0.0
C291 C 0.3549 0.12914 0.32118 0.0
C292 C 0.39014 0.16564 0.31711 0.0
C293 C 0.37506 0.2089 0.31 0.0
C294 C 0.21266 0.23571 0.214 0.0
C295 C 0.34121 0.54849 0.31276 0.0
H296 H 0.9377 0.12663 0.20844 0.0
H297 H 0.82159 0.58387 0.30814 0.0
H298 H 0.75449 0.16662 0.26447 0.0
H299 H 0.77326 0.09176 0.25046 0.0
H300 H 0.87714 0.04802 0.28426 0.0
H301 H 0.8604 0.12572 0.29768 0.0
H302 H 0.81544 0.24455 0.24896 0.0
H303 H 0.85908 0.20292 0.22866 0.0
H304 H 0.96721 0.147 0.25945 0.0
H305 H 0.92355 0.18928 0.2796 0.0
H306 H 0.79347 0.35133 0.26102 0.0
H307 H 0.8353 0.4196 0.24819 0.0
H308 H 0.97551 0.37867 0.26779 0.0
H309 H 0.93304 0.31033 0.28076 0.0
H310 H 0.72355 0.36504 0.28671 0.0
H311 H 0.71536 0.45515 0.29018 0.0
H312 H 0.86516 0.46292 0.30774 0.0
H313 H 0.87253 0.3726 0.30441 0.0
H314 H 0.67763 0.28329 0.3039 0.0
H315 H 0.63494 0.34836 0.3182 0.0
H316 H 0.7715 0.38069 0.34168 0.0
H317 H 0.81353 0.31499 0.32767 0.0
H318 H 0.69273 0.17123 0.29722 0.0
H319 H 0.666 0.09918 0.31184 0.0
H320 H 0.79883 0.11502 0.33842 0.0
H321 H 0.82492 0.18704 0.32387 0.0
O322 O 0.92253 0.14495 0.21649 0.0
O323 O 0.97772 0.11809 0.23274 0.0
O324 O 0.74687 0.54205 0.29767 0.0
O325 O 0.82374 0.54814 0.30674 0.0
C326 C 0.80848 0.20474 0.28694 0.0
C327 C 0.83591 0.23878 0.27824 0.0
C328 C 0.83324 0.29015 0.28123 0.0
C329 C 0.80354 0.30769 0.29297 0.0
C330 C 0.77849 0.2736 0.30231 0.0
C331 C 0.78144 0.22178 0.29936 0.0
C332 C 0.80629 0.15178 0.28203 0.0
C333 C 0.77993 0.13995 0.26912 0.0
C334 C 0.79091 0.09686 0.26108 0.0
C335 C 0.82765 0.06389 0.266 0.0
C336 C 0.84978 0.07319 0.27987 0.0
C337 C 0.83948 0.11705 0.28776 0.0
C338 C 0.86641 0.21997 0.26573 0.0
C339 C 0.84916 0.22419 0.25124 0.0
C340 C 0.87393 0.2 0.23969 0.0
C341 C 0.9164 0.17125 0.24245 0.0
C342 C 0.93454 0.16867 0.25694 0.0
C343 C 0.90983 0.19297 0.26846 0.0
C344 C 0.86023 0.32627 0.27186 0.0
C345 C 0.83329 0.35677 0.26241 0.0
C346 C 0.85713 0.39587 0.25521 0.0
C347 C 0.90843 0.40481 0.25723 0.0
C348 C 0.93592 0.37257 0.2661 0.0
C349 C 0.91185 0.33358 0.27344 0.0
C350 C 0.79849 0.36235 0.2954 0.0
C351 C 0.75437 0.38625 0.29142 0.0
C352 C 0.7499 0.43773 0.29335 0.0
C353 C 0.7897 0.46628 0.29919 0.0
C354 C 0.83385 0.44209 0.30318 0.0
C355 C 0.83819 0.39054 0.3013 0.0
C356 C 0.74876 0.29431 0.31473 0.0
C357 C 0.69754 0.30235 0.31272 0.0
C358 C 0.67339 0.34004 0.32074 0.0
C359 C 0.70037 0.37023 0.33075 0.0
C360 C 0.75012 0.35837 0.33386 0.0
C361 C 0.77392 0.32026 0.32605 0.0
C362 C 0.76037 0.1847 0.30964 0.0
C363 C 0.71529 0.15985 0.30645 0.0
C364 C 0.70031 0.11861 0.31473 0.0
C365 C 0.73066 0.10119 0.32616 0.0
C366 C 0.77505 0.1272 0.32957 0.0
C367 C 0.78965 0.16869 0.32141 0.0
C368 C 0.94095 0.14324 0.23031 0.0
C369 C 0.7853 0.52106 0.30112 0.0
H370 H 0.67343 0.89565 0.70229 0.0
H371 H 0.84697 0.46632 0.81725 0.0
H372 H 0.86385 0.8857 0.7626 0.0
H373 H 0.83317 0.95517 0.74802 0.0
H374 H 0.693 0.94847 0.77133 0.0
H375 H 0.72382 0.87922 0.78576 0.0
H376 H 0.81713 0.81244 0.74333 0.0
H377 H 0.76854 0.8464 0.72307 0.0
H378 H 0.63377 0.82762 0.74867 0.0
H379 H 0.683 0.79419 0.76891 0.0
H380 H 0.79205 0.69794 0.7468 0.0
H381 H 0.73912 0.6305 0.7368 0.0
H382 H 0.65786 0.62477 0.77784 0.0
H383 H 0.70988 0.69321 0.78763 0.0
H384 H 0.87288 0.65503 0.77057 0.0
H385 H 0.88957 0.56841 0.77699 0.0
H386 H 0.79775 0.5848 0.81586 0.0
H387 H 0.78052 0.67087 0.80914 0.0
H388 H 0.93397 0.71681 0.79481 0.0
H389 H 0.9675 0.66309 0.81373 0.0
H390 H 0.85056 0.70972 0.84344 0.0
H391 H 0.81607 0.76188 0.8241 0.0
H392 H 0.92649 0.84069 0.80102 0.0
H393 H 0.94606 0.89701 0.82171 0.0
H394 H 0.78839 0.92164 0.82841 0.0
H395 H 0.76943 0.86306 0.80851 0.0
O396 O 0.69158 0.87999 0.71015 0.0
O397 O 0.62306 0.86768 0.72347 0.0
O398 O 0.88288 0.49179 0.79341 0.0
O399 O 0.8395 0.49981 0.81416 0.0
C400 C 0.80615 0.82463 0.77939 0.0
C401 C 0.78408 0.78706 0.7705 0.0
C402 C 0.78831 0.73696 0.7745 0.0
C403 C 0.81949 0.72306 0.78616 0.0
C404 C 0.84277 0.76005 0.79501 0.0
C405 C 0.83381 0.81101 0.79202 0.0
C406 C 0.79651 0.87756 0.77545 0.0
C407 C 0.82752 0.90091 0.7651 0.0
C408 C 0.80948 0.93995 0.75655 0.0
C409 C 0.76023 0.95678 0.7583 0.0
C410 C 0.73113 0.93669 0.76971 0.0
C411 C 0.74904 0.89744 0.77816 0.0
C412 C 0.75355 0.80093 0.75755 0.0
C413 C 0.77702 0.81504 0.74444 0.0
C414 C 0.7492 0.83464 0.73292 0.0
C415 C 0.6973 0.84008 0.73429 0.0
C416 C 0.67369 0.8241 0.74728 0.0
C417 C 0.70162 0.80467 0.75881 0.0
C418 C 0.75478 0.69956 0.7679 0.0
C419 C 0.76217 0.68272 0.75347 0.0
C420 C 0.73195 0.64472 0.74781 0.0
C421 C 0.69473 0.62319 0.75665 0.0
C422 C 0.68639 0.64125 0.77093 0.0
C423 C 0.71605 0.67978 0.77648 0.0
C424 C 0.82604 0.66933 0.78948 0.0
C425 C 0.856 0.63961 0.78037 0.0
C426 C 0.86561 0.59026 0.7841 0.0
C427 C 0.84535 0.56982 0.79702 0.0
C428 C 0.8142 0.59942 0.80589 0.0
C429 C 0.80435 0.64861 0.80209 0.0
C430 C 0.87244 0.74344 0.80799 0.0
C431 C 0.9167 0.717 0.80559 0.0
C432 C 0.93573 0.68595 0.81647 0.0
C433 C 0.9113 0.68102 0.83012 0.0
C434 C 0.86975 0.71148 0.83297 0.0
C435 C 0.8505 0.74229 0.82202 0.0
C436 C 0.84667 0.84886 0.80316 0.0
C437 C 0.89642 0.85868 0.80694 0.0
C438 C 0.9074 0.89073 0.8187 0.0
C439 C 0.86865 0.91349 0.82667 0.0
C440 C 0.81894 0.90402 0.82263 0.0
C441 C 0.80807 0.8715 0.81106 0.0
C442 C 0.66823 0.86324 0.72234 0.0
C443 C 0.85706 0.51809 0.80135 0.0
H444 H 0.41462 0.53786 0.93288 0.0
H445 H 0.86211 0.54299 0.03751 0.0
H446 H 0.4435 0.67365 0.00273 0.0
H447 H 0.36329 0.66284 0.99021 0.0
H448 H 0.33217 0.53312 0.01653 0.0
H449 H 0.41223 0.54434 0.02898 0.0
H450 H 0.52382 0.63127 0.98194 0.0
H451 H 0.48452 0.60331 0.95889 0.0
H452 H 0.42583 0.47317 0.98086 0.0
H453 H 0.46575 0.50127 0.00375 0.0
H454 H 0.63647 0.6324 0.99351 0.0
H455 H 0.69983 0.59534 0.97745 0.0
H456 H 0.64284 0.4484 0.9877 0.0
H457 H 0.57917 0.48593 0.00345 0.0
H458 H 0.65711 0.67561 0.02579 0.0
H459 H 0.74724 0.6725 0.02987 0.0
H460 H 0.73756 0.5119 0.03272 0.0
H461 H 0.64736 0.51566 0.02887 0.0
H462 H 0.5799 0.70571 0.04797 0.0
H463 H 0.64683 0.72413 0.06573 0.0
H464 H 0.6622 0.56684 0.07364 0.0
H465 H 0.59455 0.54876 0.05625 0.0
H466 H 0.44873 0.69906 0.03696 0.0
H467 H 0.38135 0.71182 0.05471 0.0
H468 H 0.42038 0.57473 0.07615 0.0
H469 H 0.4866 0.56152 0.05801 0.0
O470 O 0.4305 0.54791 0.94203 0.0
O471 O 0.40448 0.47982 0.95359 0.0
O472 O 0.82939 0.62798 0.03455 0.0
O473 O 0.82659 0.54527 0.03582 0.0
C474 C 0.48763 0.60515 0.0199 0.0
C475 C 0.51909 0.5865 0.00865 0.0
C476 C 0.57065 0.5833 0.01107 0.0
C477 C 0.59097 0.59811 0.02475 0.0
C478 C 0.55928 0.61377 0.03637 0.0
C479 C 0.50731 0.61718 0.03398 0.0
C480 C 0.43373 0.60948 0.01665 0.0
C481 C 0.41826 0.64431 0.00625 0.0
C482 C 0.37272 0.63784 0.99902 0.0
C483 C 0.34195 0.59665 0.0022 0.0
C484 C 0.35496 0.56538 0.01389 0.0
C485 C 0.40066 0.57176 0.02107 0.0
C486 C 0.49749 0.56834 0.99448 0.0
C487 C 0.5028 0.59655 0.98169 0.0
C488 C 0.48014 0.58059 0.96858 0.0
C489 C 0.45197 0.53604 0.96804 0.0
C490 C 0.44728 0.50762 0.98088 0.0
C491 C 0.47001 0.52358 0.99397 0.0
C492 C 0.60351 0.56174 -0.00038 0.0
C493 C 0.63713 0.59229 0.99199 0.0
C494 C 0.67339 0.57106 0.98293 0.0
C495 C 0.67661 0.51893 0.98142 0.0
C496 C 0.64103 0.48865 0.9885 0.0
C497 C 0.60473 0.50995 0.99752 0.0
C498 C 0.64582 0.59589 0.02704 0.0
C499 C 0.67457 0.63984 0.02733 0.0
C500 C 0.72601 0.63793 0.02963 0.0
C501 C 0.74963 0.59191 0.03157 0.0
C502 C 0.7206 0.54792 0.03122 0.0
C503 C 0.66912 0.54992 0.02899 0.0
C504 C 0.58239 0.62591 0.05082 0.0
C505 C 0.59575 0.67549 0.05416 0.0
C506 C 0.63438 0.6859 0.06414 0.0
C507 C 0.66017 0.64674 0.07075 0.0
C508 C 0.64319 0.59755 0.06853 0.0
C509 C 0.6041 0.58726 0.05878 0.0
C510 C 0.47273 0.62949 0.04622 0.0
C511 C 0.44321 0.67224 0.04564 0.0
C512 C 0.40472 0.67943 0.0558 0.0
C513 C 0.39512 0.64405 0.0668 0.0
C514 C 0.42615 0.60224 0.06768 0.0
C515 C 0.46454 0.59502 0.05747 0.0
C516 C 0.42752 0.51939 0.95415 0.0
C517 C 0.80426 0.58968 0.03405 0.0
H518 H 0.99058 0.29197 0.60933 0.0
H519 H 0.34337 0.64092 0.52101 0.0
H520 H 0.94979 0.40772 0.5405 0.0
H521 H 0.87256 0.37866 0.55208 0.0
H522 H 0.83977 0.52987 0.56543 0.0
H523 H 0.91721 0.55864 0.55375 0.0
H524 H 0.05464 0.38828 0.55501 0.0
H525 H 0.03526 0.33582 0.57614 0.0
H526 H 0.96562 0.46133 0.59789 0.0
H527 H 0.98587 0.51354 0.57677 0.0
H528 H 0.15366 0.4316 0.5429 0.0
H529 H 0.22578 0.41571 0.55862 0.0
H530 H 0.17179 0.52397 0.5903 0.0
H531 H 0.10073 0.54065 0.57427 0.0
H532 H 0.15151 0.48129 0.51507 0.0
H533 H 0.23518 0.50781 0.50747 0.0
H534 H 0.22915 0.631 0.53856 0.0
H535 H 0.14524 0.6043 0.54593 0.0
H536 H 0.06358 0.50392 0.49831 0.0
H537 H 0.1199 0.53881 0.47993 0.0
H538 H 0.12615 0.67742 0.50465 0.0
H539 H 0.07129 0.64133 0.52324 0.0
H540 H 0.93122 0.47715 0.51383 0.0
H541 H 0.85741 0.50916 0.50156 0.0
H542 H 0.9033 0.65964 0.51323 0.0
H543 H 0.97518 0.62688 0.52627 0.0
O544 O 0.99872 0.31362 0.60122 0.0
O545 O 0.96334 0.3793 0.61193 0.0
O546 O 0.31128 0.56602 0.50789 0.0
O547 O 0.31071 0.62912 0.524 0.0
C548 C 0.99103 0.50061 0.54218 0.0
C549 C 0.03115 0.48547 0.55116 0.0
C550 C 0.08046 0.4994 0.54756 0.0
C551 C 0.09019 0.52695 0.53479 0.0
C552 C 0.05045 0.54237 0.52576 0.0
C553 C 0.00064 0.53015 0.52961 0.0
C554 C 0.9393 0.48529 0.54632 0.0
C555 C 0.92531 0.43474 0.54561 0.0
C556 C 0.88137 0.41815 0.55234 0.0
C557 C 0.8503 0.45184 0.55986 0.0
C558 C 0.86269 0.50299 0.55967 0.0
C559 C 0.90689 0.51955 0.55298 0.0
C560 C 0.02154 0.45462 0.56435 0.0
C561 C 0.03561 0.40446 0.56441 0.0
C562 C 0.0243 0.37454 0.57647 0.0
C563 C 0.99868 0.39432 0.58868 0.0
C564 C 0.98526 0.44488 0.58865 0.0
C565 C 0.99675 0.47478 0.57661 0.0
C566 C 0.12213 0.48716 0.5575 0.0
C567 C 0.15755 0.45178 0.55325 0.0
C568 C 0.19854 0.44273 0.56224 0.0
C569 C 0.20458 0.46883 0.57565 0.0
C570 C 0.16863 0.50394 0.57991 0.0
C571 C 0.12775 0.51305 0.57089 0.0
C572 C 0.14238 0.54102 0.53099 0.0
C573 C 0.16848 0.51385 0.52026 0.0
C574 C 0.2162 0.52911 0.51594 0.0
C575 C 0.23882 0.57162 0.52239 0.0
C576 C 0.21283 0.59814 0.53337 0.0
C577 C 0.16501 0.58291 0.53764 0.0
C578 C 0.06329 0.56997 0.51215 0.0
C579 C 0.07498 0.54267 0.49936 0.0
C580 C 0.1077 0.56266 0.4889 0.0
C581 C 0.12881 0.61053 0.49101 0.0
C582 C 0.11176 0.63995 0.50289 0.0
C583 C 0.07941 0.61978 0.51338 0.0
C584 C 0.95863 0.54967 0.52091 0.0
C585 C 0.92528 0.51701 0.51371 0.0
C586 C 0.8833 0.53547 0.50662 0.0
C587 C 0.87428 0.58706 0.50641 0.0
C588 C 0.90855 0.61969 0.51337 0.0
C589 C 0.95012 0.60111 0.52063 0.0
C590 C 0.98581 0.36216 0.60134 0.0
C591 C 0.28912 0.58854 0.51763 0.0
Fe592 Fe 0.05384 0.77576 0.18017 0.0
O593 O 0.08392 0.81686 0.16431 0.0
Fe594 Fe 0.93847 0.74148 0.16679 0.0
Fe595 Fe 0.15679 0.82203 0.16223 0.0
O596 O 0.0105 0.74804 0.16426 0.0
O597 O 0.01037 0.7478 0.16288 0.0
O598 O 0.08387 0.81647 0.16285 0.0
Fe599 Fe 0.04092 0.78794 0.14672 0.0
C600 C 0.13036 0.85115 0.19334 0.0
O601 O 0.10281 0.72018 0.17587 0.0
O602 O 0.1726 0.76446 0.17675 0.0
O603 O 0.98946 0.75336 0.1321 0.0
O604 O 0.94107 0.70298 0.14701 0.0
O605 O 0.95977 0.68513 0.18048 0.0
O606 O 0.01857 0.72627 0.19476 0.0
O607 O 0.16351 0.77246 0.14508 0.0
O608 O 0.09076 0.73156 0.14199 0.0
C609 C 0.98884 0.68854 0.19191 0.0
O610 O 0.99121 0.84487 0.14999 0.0
O611 O 0.92038 0.80271 0.15452 0.0
O612 O 0.10267 0.81147 0.19516 0.0
O613 O 0.14839 0.86576 0.18082 0.0
C614 C 0.14869 0.72384 0.17889 0.0
C615 C 0.13767 0.73627 0.1399 0.0
C616 C 0.11537 0.86715 0.13408 0.0
O617 O 0.14031 0.87406 0.14626 0.0
O618 O 0.08032 0.83361 0.13201 0.0
C619 C 0.95571 0.71861 0.13421 0.0
O620 O 0.93565 0.78512 0.18578 0.0
O621 O 0.00446 0.83163 0.18482 0.0
C622 C 0.94377 0.84167 0.15032 0.0
C623 C 0.96047 0.824 0.18943 0.0
Fe624 Fe 0.52267 0.77816 0.43155 0.0
O625 O 0.54794 0.72884 0.41686 0.0
Fe626 Fe 0.5105 0.88572 0.4113 0.0
Fe627 Fe 0.53605 0.6573 0.41945 0.0
O628 O 0.49939 0.81414 0.41384 0.0
O629 O 0.4992 0.81338 0.41235 0.0
O630 O 0.54848 0.72836 0.41525 0.0
Fe631 Fe 0.52298 0.76338 0.39738 0.0
C632 C 0.58368 0.69787 0.44723 0.0
O633 O 0.45483 0.74252 0.43254 0.0
O634 O 0.48147 0.66554 0.43557 0.0
O635 O 0.49167 0.80941 0.38096 0.0
O636 O 0.4605 0.87669 0.39426 0.0
O637 O 0.46019 0.89023 0.42837 0.0
O638 O 0.49132 0.83396 0.44482 0.0
O639 O 0.48093 0.64967 0.40413 0.0
O640 O 0.45525 0.72586 0.39824 0.0
C641 C 0.4621 0.87029 0.44128 0.0
O642 O 0.5905 0.80069 0.39472 0.0
O643 O 0.56434 0.8797 0.39553 0.0
O644 O 0.55278 0.73476 0.44838 0.0
O645 O 0.58727 0.66798 0.43598 0.0
C646 C 0.44746 0.69813 0.43671 0.0
C647 C 0.44901 0.67873 0.39869 0.0
C648 C 0.5788 0.66506 0.38847 0.0
O649 O 0.58427 0.65008 0.40194 0.0
O650 O 0.55234 0.70353 0.38452 0.0
C651 C 0.46457 0.8496 0.38235 0.0
O652 O 0.56669 0.89203 0.42705 0.0
O653 O 0.59011 0.81413 0.43128 0.0
C654 C 0.59594 0.84691 0.39184 0.0
C655 C 0.59813 0.86078 0.43181 0.0
Fe656 Fe 0.52479 0.26709 0.68363 0.0
O657 O 0.56448 0.29659 0.66729 0.0
Fe658 Fe 0.40858 0.24596 0.66831 0.0
Fe659 Fe 0.63724 0.29066 0.66647 0.0
O660 O 0.4813 0.24002 0.66761 0.0
O661 O 0.4811 0.24037 0.66624 0.0
O662 O 0.56431 0.29668 0.66586 0.0
Fe663 Fe 0.52126 0.26872 0.6497 0.0
C664 C 0.60934 0.33337 0.69612 0.0
O665 O 0.56633 0.20244 0.68335 0.0
O666 O 0.64143 0.23764 0.68272 0.0
O667 O 0.46946 0.2355 0.63499 0.0
O668 O 0.40991 0.1991 0.64998 0.0
O669 O 0.41684 0.19399 0.68454 0.0
O670 O 0.47842 0.23168 0.69866 0.0
O671 O 0.63897 0.23463 0.65095 0.0
O672 O 0.56139 0.20402 0.64863 0.0
C673 C 0.443 0.19891 0.69653 0.0
O674 O 0.48067 0.33324 0.64965 0.0
O675 O 0.40377 0.30288 0.65358 0.0
O676 O 0.57461 0.30013 0.69829 0.0
O677 O 0.63258 0.34067 0.68374 0.0
C678 C 0.61264 0.20194 0.68644 0.0
C679 C 0.60839 0.20005 0.64727 0.0
C680 C 0.60926 0.33177 0.63644 0.0
O681 O 0.63217 0.33882 0.64893 0.0
O682 O 0.5707 0.30216 0.63446 0.0
C683 C 0.43109 0.20612 0.63726 0.0
O684 O 0.40789 0.29783 0.6855 0.0
O685 O 0.48363 0.33181 0.68548 0.0
C686 C 0.43341 0.33659 0.64891 0.0
C687 C 0.43802 0.33264 0.68938 0.0
Fe688 Fe 0.06329 0.28179 0.95284 0.0
O689 O 0.07518 0.27338 0.93152 0.0
Fe690 Fe 0.05701 0.33277 0.91778 0.0
Fe691 Fe 0.0419 0.21927 0.91978 0.0
O692 O 0.07439 0.27824 0.93155 0.0
O693 O 0.02486 0.27834 0.90584 0.0
O694 O 0.02451 0.27374 0.90593 0.0
Fe695 Fe 0.03547 0.26885 0.88461 0.0
C696 C 0.09848 0.17663 0.94639 0.0
O697 O 0.00289 0.23353 0.95358 0.0
O698 O 0.97549 0.23078 0.93057 0.0
O699 O 0.99692 0.33573 0.88351 0.0
O700 O 0.03494 0.38378 0.9016 0.0
O701 O 0.99049 0.34474 0.92813 0.0
O702 O 0.01378 0.33997 0.95168 0.0
O703 O 0.00315 0.17085 0.90588 0.0
O704 O 0.9764 0.21889 0.88645 0.0
C705 C 0.98265 0.35202 0.94178 0.0
O706 O 0.09883 0.31303 0.88415 0.0
O707 O 0.12371 0.32236 0.90746 0.0
O708 O 0.10647 0.21906 0.95308 0.0
O709 O 0.06681 0.16874 0.93569 0.0
C710 C 0.96776 0.22756 0.94431 0.0
C711 C 0.97514 0.17891 0.89448 0.0
C712 C 0.10811 0.18815 0.89528 0.0
O713 O 0.10702 0.20285 0.90867 0.0
O714 O 0.07898 0.20589 0.88569 0.0
C715 C 0.00821 0.37851 0.88967 0.0
O716 O 0.09345 0.38318 0.93215 0.0
O717 O 0.1193 0.33489 0.95152 0.0
C718 C 0.13155 0.32537 0.89373 0.0
C719 C 0.12047 0.37531 0.94379 0.0
C720 C 0.21106 0.92713 0.48198 0.0
C721 C 0.21427 0.95706 0.49467 0.0
C722 C 0.25406 0.91351 0.47424 0.0
C723 C 0.30137 0.92974 0.47946 0.0
C724 C 0.30482 0.95938 0.49242 0.0
C725 C 0.26105 0.97312 0.49982 0.0
C726 C 0.24855 0.88316 0.46022 0.0
C727 C 0.35466 0.97674 0.4984 0.0
C728 C 0.41104 0.85781 0.46404 0.0
C729 C 0.42589 0.8883 0.45236 0.0
C730 C 0.37165 0.8717 0.47335 0.0
C731 C 0.34688 0.91722 0.47095 0.0
C732 C 0.36315 0.9491 0.45959 0.0
C733 C 0.40245 0.93426 0.45045 0.0
C734 C 0.35475 0.83647 0.48523 0.0
C735 C 0.33747 0.99778 0.45663 0.0
H736 H 0.17472 0.91515 0.47796 0.0
H737 H 0.26334 0.99589 0.50975 0.0
H738 H 0.27731 0.85395 0.45952 0.0
H739 H 0.21114 0.86516 0.4593 0.0
H740 H 0.25389 0.90794 0.45065 0.0
H741 H 0.35098 0.99803 0.50891 0.0
H742 H 0.37894 0.94422 0.50027 0.0
H743 H 0.37374 0.00078 0.49025 0.0
H744 H 0.42861 0.82202 0.46551 0.0
H745 H 0.41392 0.95819 0.44151 0.0
H746 H 0.31677 0.82206 0.48262 0.0
H747 H 0.35255 0.85647 0.49597 0.0
H748 H 0.38006 0.80425 0.48636 0.0
H749 H 0.29873 0.9902 0.45287 0.0
H750 H 0.35699 0.01994 0.44809 0.0
H751 H 0.33518 0.0206 0.46687 0.0
C752 C 0.36266 0.01853 0.76141 0.0
C753 C 0.37965 0.97093 0.75769 0.0
C754 C 0.37764 0.0598 0.75322 0.0
C755 C 0.40933 0.0525 0.74096 0.0
C756 C 0.42886 0.00482 0.73775 0.0
C757 C 0.41389 0.96442 0.74626 0.0
C758 C 0.35706 0.11046 0.75709 0.0
C759 C 0.4621 0.99541 0.72462 0.0
C760 C 0.39048 0.13285 0.70787 0.0
C761 C 0.43267 0.16403 0.70852 0.0
C762 C 0.38194 0.09712 0.71863 0.0
C763 C 0.41635 0.09279 0.73032 0.0
C764 C 0.45834 0.12487 0.7313 0.0
C765 C 0.46607 0.16025 0.72035 0.0
C766 C 0.33691 0.06298 0.71723 0.0
C767 C 0.49582 0.12067 0.74361 0.0
H768 H 0.33661 0.02315 0.77045 0.0
H769 H 0.42672 0.92729 0.74346 0.0
H770 H 0.38711 0.13921 0.75692 0.0
H771 H 0.3289 0.12093 0.74877 0.0
H772 H 0.33906 0.11102 0.7681 0.0
H773 H 0.48394 0.96077 0.72585 0.0
H774 H 0.43866 0.99136 0.71461 0.0
H775 H 0.48822 0.02702 0.72288 0.0
H776 H 0.36439 0.13577 0.69883 0.0
H777 H 0.49899 0.18404 0.72088 0.0
H778 H 0.31389 0.06522 0.72735 0.0
H779 H 0.34917 0.0238 0.71595 0.0
H780 H 0.31313 0.07227 0.70766 0.0
H781 H 0.4767 0.1231 0.75442 0.0
H782 H 0.52516 0.15018 0.74316 0.0
H783 H 0.51406 0.08379 0.74298 0.0
C784 C 0.31996 0.10971 0.99066 0.0
C785 C 0.34767 0.06593 0.98895 0.0
C786 C 0.27732 0.1181 0.98221 0.0
C787 C 0.26036 0.08093 0.97215 0.0
C788 C 0.28689 0.0359 0.97064 0.0
C789 C 0.33073 0.02929 0.97885 0.0
C790 C 0.25065 0.16717 0.984 0.0
C791 C 0.2691 0.99486 0.96034 0.0
C792 C 0.12686 0.10908 0.96265 0.0
C793 C 0.13371 0.13737 0.94998 0.0
C794 C 0.16732 0.08474 0.9691 0.0
C795 C 0.21565 0.09085 0.963 0.0
C796 C 0.22154 0.11566 0.94943 0.0
C797 C 0.1802 0.13831 0.94301 0.0
C798 C 0.15916 0.05687 0.98323 0.0
C799 C 0.27231 0.12398 0.94264 0.0
H800 H 0.33129 0.13767 0.99873 0.0
H801 H 0.35184 0.9955 0.97723 0.0
H802 H 0.24759 0.18574 0.9732 0.0
H803 H 0.21223 0.16057 0.98812 0.0
H804 H 0.27008 0.19306 0.99179 0.0
H805 H 0.29094 0.96022 0.96156 0.0
H806 H 0.22916 0.98617 0.96241 0.0
H807 H 0.27225 0.00727 0.94878 0.0
H808 H 0.09084 0.10897 0.96808 0.0
H809 H 0.1853 0.16097 0.93331 0.0
H810 H 0.17028 0.08102 0.99269 0.0
H811 H 0.18236 0.0229 0.9835 0.0
H812 H 0.11938 0.04595 0.98467 0.0
H813 H 0.29254 0.15341 0.94902 0.0
H814 H 0.26959 0.13611 0.93102 0.0
H815 H 0.2949 0.0897 0.94302 0.0
C816 C 0.26255 0.0306 0.24999 0.0
C817 C 0.23099 0.05265 0.26048 0.0
C818 C 0.2457 0.99127 0.24092 0.0
C819 C 0.19566 0.97447 0.24206 0.0
C820 C 0.16457 0.99412 0.25324 0.0
C821 C 0.1829 0.0324 0.26248 0.0
C822 C 0.28043 0.97037 0.22936 0.0
C823 C 0.11075 0.97771 0.25467 0.0
C824 C 0.14208 0.9338 0.20532 0.0
C825 C 0.14291 0.88185 0.20636 0.0
C826 C 0.15684 0.96423 0.21719 0.0
C827 C 0.1743 0.94205 0.23024 0.0
C828 C 0.17411 0.88947 0.23148 0.0
C829 C 0.15769 0.85985 0.21953 0.0
C830 C 0.15503 0.02018 0.21558 0.0
C831 C 0.19333 0.86457 0.24512 0.0
H832 H 0.29958 0.04585 0.24818 0.0
H833 H 0.15862 0.04796 0.27084 0.0
H834 H 0.27777 0.92907 0.22895 0.0
H835 H 0.26951 0.98424 0.21839 0.0
H836 H 0.31987 0.98146 0.23143 0.0
H837 H 0.09384 0.99093 0.26516 0.0
H838 H 0.08898 0.99302 0.24542 0.0
H839 H 0.10721 0.93652 0.25402 0.0
H840 H 0.12995 0.95066 0.19516 0.0
H841 H 0.15844 0.81955 0.22025 0.0
H842 H 0.19347 0.03592 0.21566 0.0
H843 H 0.13472 0.03717 0.22499 0.0
H844 H 0.13653 0.0313 0.20521 0.0
H845 H 0.23407 0.87155 0.24612 0.0
H846 H 0.18651 0.82364 0.24486 0.0
H847 H 0.17556 0.88057 0.25511 0.0
C848 C 0.21983 0.14041 0.58094 0.0
C849 C 0.22773 0.10165 0.57071 0.0
C850 C 0.25777 0.15666 0.59055 0.0
C851 C 0.30496 0.13353 0.59002 0.0
C852 C 0.31368 0.0952 0.57949 0.0
C853 C 0.27491 0.07959 0.56999 0.0
C854 C 0.24659 0.19733 0.60169 0.0
C855 C 0.36355 0.06987 0.57851 0.0
C856 C 0.40809 0.20454 0.61045 0.0
C857 C 0.40589 0.18243 0.62436 0.0
C858 C 0.37714 0.18754 0.59888 0.0
C859 C 0.34353 0.14726 0.60125 0.0
C860 C 0.34344 0.12295 0.61499 0.0
C861 C 0.37446 0.14086 0.62635 0.0
C862 C 0.37828 0.21459 0.58442 0.0
C863 C 0.30844 0.07975 0.61799 0.0
H864 H 0.18329 0.15706 0.58179 0.0
H865 H 0.28146 0.04994 0.56204 0.0
H866 H 0.24654 0.18154 0.61291 0.0
H867 H 0.2759 0.22679 0.60142 0.0
H868 H 0.20985 0.21479 0.59973 0.0
H869 H 0.36557 0.04339 0.56904 0.0
H870 H 0.3939 0.09805 0.57746 0.0
H871 H 0.3705 0.04909 0.58878 0.0
H872 H 0.43195 0.2369 0.60883 0.0
H873 H 0.3728 0.12324 0.63702 0.0
H874 H 0.34319 0.23558 0.58309 0.0
H875 H 0.38064 0.18761 0.5751 0.0
H876 H 0.41014 0.24128 0.58374 0.0
H877 H 0.26939 0.093 0.61804 0.0
H878 H 0.31607 0.06214 0.62875 0.0
H879 H 0.31146 0.05096 0.60918 0.0
C880 C 0.16127 0.93804 0.85213 0.0
C881 C 0.20205 0.90929 0.85662 0.0
C882 C 0.14788 0.98217 0.85965 0.0
C883 C 0.17689 0.99968 0.87171 0.0
C884 C 0.21804 0.97118 0.87635 0.0
C885 C 0.22959 0.92619 0.86895 0.0
C886 C 0.10292 0.01047 0.85448 0.0
C887 C 0.25076 0.98892 0.88892 0.0
C888 C 0.1662 0.13977 0.87915 0.0
C889 C 0.13387 0.14132 0.89125 0.0
C890 C 0.18284 0.09403 0.87326 0.0
C891 C 0.16481 0.0485 0.87915 0.0
C892 C 0.13267 0.05003 0.89156 0.0
C893 C 0.11831 0.09637 0.8976 0.0
C894 C 0.21785 0.09458 0.86026 0.0
C895 C 0.11081 0.00283 0.89787 0.0
H896 H 0.14018 0.92696 0.84245 0.0
H897 H 0.26063 0.90451 0.87282 0.0
H898 H 0.07831 0.01959 0.86393 0.0
H899 H 0.11511 0.04618 0.84954 0.0
H900 H 0.08083 0.9891 0.84615 0.0
H901 H 0.28144 0.96267 0.89122 0.0
H902 H 0.26727 0.02588 0.88629 0.0
H903 H 0.22818 0.99374 0.89906 0.0
H904 H 0.17746 0.17444 0.87404 0.0
H905 H 0.09209 0.09745 0.90669 0.0
H906 H 0.19683 0.0845 0.85013 0.0
H907 H 0.24775 0.06673 0.8616 0.0
H908 H 0.23532 0.13188 0.8587 0.0
H909 H 0.08764 0.01018 0.90778 0.0
H910 H 0.14091 0.97681 0.90082 0.0
H911 H 0.08721 0.98374 0.88944 0.0
C912 C 0.26964 0.98597 0.0664 0.0
C913 C 0.31711 0.96635 0.0689 0.0
C914 C 0.22944 0.97451 0.07578 0.0
C915 C 0.23722 0.94319 0.08798 0.0
C916 C 0.28526 0.92373 0.09058 0.0
C917 C 0.32447 0.93545 0.08101 0.0
C918 C 0.17887 0.99622 0.07274 0.0
C919 C 0.29572 0.8915 0.10372 0.0
C920 C 0.1599 0.93937 0.12276 0.0
C921 C 0.13497 0.89345 0.12105 0.0
C922 C 0.18988 0.95856 0.11145 0.0
C923 C 0.19581 0.93059 0.09825 0.0
C924 C 0.16763 0.88614 0.09604 0.0
C925 C 0.1371 0.86835 0.10743 0.0
C926 C 0.21849 0.00657 0.11416 0.0
C927 C 0.17351 0.85477 0.08225 0.0
H928 H 0.26395 0.01003 0.05707 0.0
H929 H 0.36142 0.9213 0.08321 0.0
H930 H 0.15082 0.96584 0.07132 0.0
H931 H 0.16682 0.01937 0.08228 0.0
H932 H 0.17887 0.01959 0.06274 0.0
H933 H 0.33335 0.87465 0.10321 0.0
H934 H 0.29336 0.9144 0.11394 0.0
H935 H 0.26742 0.86122 0.10458 0.0
H936 H 0.15813 0.95902 0.13324 0.0
H937 H 0.11837 0.83255 0.10609 0.0
H938 H 0.21797 0.03032 0.10426 0.0
H939 H 0.258 0.99803 0.11658 0.0
H940 H 0.20312 0.02808 0.12362 0.0
H941 H 0.145 0.82447 0.08149 0.0
H942 H 0.21098 0.83762 0.08219 0.0
H943 H 0.17088 0.87823 0.07233 0.0
C944 C 0.35289 0.03565 0.32239 0.0
C945 C 0.37123 0.08157 0.32779 0.0
C946 C 0.36735 0.99047 0.32873 0.0
C947 C 0.40014 0.9913 0.34094 0.0
C948 C 0.41958 0.03757 0.34621 0.0
C949 C 0.40517 0.08203 0.3395 0.0
C950 C 0.34663 0.942 0.32258 0.0
C951 C 0.45401 0.04037 0.35935 0.0
C952 C 0.39519 0.89528 0.37101 0.0
C953 C 0.44128 0.87177 0.36928 0.0
C954 C 0.37954 0.93171 0.36117 0.0
C955 C 0.41066 0.94482 0.3492 0.0
C956 C 0.45491 0.9176 0.34655 0.0
C957 C 0.46983 0.88128 0.35667 0.0
C958 C 0.33215 0.95961 0.36448 0.0
C959 C 0.48856 0.92975 0.33375 0.0
H960 H 0.32728 0.03511 0.31316 0.0
H961 H 0.41928 0.11743 0.34373 0.0
H962 H 0.37709 0.91497 0.32075 0.0
H963 H 0.32041 0.92525 0.33062 0.0
H964 H 0.32647 0.94722 0.31204 0.0
H965 H 0.46916 0.07859 0.3613 0.0
H966 H 0.43342 0.02857 0.36934 0.0
H967 H 0.48566 0.01455 0.35785 0.0
H968 H 0.3732 0.88804 0.38079 0.0
H969 H 0.50585 0.86373 0.35542 0.0
H970 H 0.30904 0.96285 0.35444 0.0
H971 H 0.3417 0.99799 0.36832 0.0
H972 H 0.30948 0.94123 0.37314 0.0
H973 H 0.4665 0.93239 0.32347 0.0
H974 H 0.51803 0.90142 0.33215 0.0
H975 H 0.50681 0.96656 0.33569 0.0
C976 C 0.7814 0.11131 0.58947 0.0
C977 C 0.79272 0.06139 0.58642 0.0
C978 C 0.74437 0.12392 0.59963 0.0
C979 C 0.71831 0.0856 0.60709 0.0
C980 C 0.72855 0.03506 0.60384 0.0
C981 C 0.76578 0.02349 0.59351 0.0
C982 C 0.73451 0.17846 0.60275 0.0
C983 C 0.7014 0.99335 0.61158 0.0
C984 C 0.67597 0.13987 0.64304 0.0
C985 C 0.62892 0.1574 0.63914 0.0
C986 C 0.70356 0.11066 0.63322 0.0
C987 C 0.68366 0.09962 0.61911 0.0
C988 C 0.63379 0.11226 0.61582 0.0
C989 C 0.6067 0.14102 0.62598 0.0
C990 C 0.75622 0.09703 0.63729 0.0
C991 C 0.61111 0.10068 0.60096 0.0
H992 H 0.80262 0.14079 0.58423 0.0
H993 H 0.77399 0.98481 0.59105 0.0
H994 H 0.69422 0.18634 0.6015 0.0
H995 H 0.74501 0.18787 0.61427 0.0
H996 H 0.75583 0.20342 0.59531 0.0
H997 H 0.70869 0.95645 0.60638 0.0
H998 H 0.71365 0.99223 0.62323 0.0
H999 H 0.66061 0.99983 0.61161 0.0
H1000 H 0.6927 0.1521 0.65336 0.0
H1001 H 0.57018 0.15461 0.62299 0.0
H1002 H 0.78276 0.12271 0.63175 0.0
H1003 H 0.76481 0.05857 0.63356 0.0
H1004 H 0.76259 0.09996 0.64935 0.0
H1005 H 0.62492 0.12835 0.5929 0.0
H1006 H 0.56975 0.10256 0.60129 0.0
H1007 H 0.62211 0.06318 0.59693 0.0
C1008 C 0.75209 0.01832 0.33683 0.0
C1009 C 0.71674 0.05553 0.33439 0.0
C1010 C 0.74013 0.97593 0.34512 0.0
C1011 C 0.69193 0.97106 0.35132 0.0
C1012 C 0.6557 0.00792 0.34855 0.0
C1013 C 0.66847 0.04951 0.34004 0.0
C1014 C 0.77937 0.937 0.34753 0.0
C1015 C 0.60394 0.00451 0.35507 0.0
C1016 C 0.63287 0.85392 0.367 0.0
C1017 C 0.63595 0.8646 0.3821 0.0
C1018 C 0.65487 0.88614 0.35668 0.0
C1019 C 0.68006 0.92992 0.36169 0.0
C1020 C 0.68758 0.93773 0.37697 0.0
C1021 C 0.66538 0.9049 0.38697 0.0
C1022 C 0.64674 0.87596 0.34049 0.0
C1023 C 0.71414 0.98371 0.38287 0.0
H1024 H 0.78923 0.02245 0.33226 0.0
H1025 H 0.64113 0.07825 0.33822 0.0
H1026 H 0.79042 0.93703 0.3593 0.0
H1027 H 0.76417 0.89934 0.34485 0.0
H1028 H 0.81324 0.9437 0.34076 0.0
H1029 H 0.57917 0.03426 0.35101 0.0
H1030 H 0.58655 0.96779 0.35241 0.0
H1031 H 0.60629 0.00772 0.36724 0.0
H1032 H 0.60912 0.82339 0.36321 0.0
H1033 H 0.66706 0.91344 0.39863 0.0
H1034 H 0.68118 0.88398 0.33414 0.0
H1035 H 0.61717 0.90075 0.33636 0.0
H1036 H 0.63495 0.83671 0.33834 0.0
H1037 H 0.74913 0.99085 0.3767 0.0
H1038 H 0.72325 0.98048 0.39474 0.0
H1039 H 0.68988 0.01655 0.38146 0.0
C1040 C 0.76497 0.01508 0.10183 0.0
C1041 C 0.7424 0.97908 0.09257 0.0
C1042 C 0.79986 0.0014 0.11256 0.0
C1043 C 0.81275 0.95067 0.11394 0.0
C1044 C 0.7901 0.9143 0.10462 0.0
C1045 C 0.75503 0.92887 0.09417 0.0
C1046 C 0.82282 0.04106 0.12244 0.0
C1047 C 0.80278 0.85978 0.10571 0.0
C1048 C 0.93242 0.90331 0.13039 0.0
C1049 C 0.91433 0.88066 0.14318 0.0
C1050 C 0.90041 0.92985 0.12121 0.0
C1051 C 0.84952 0.93459 0.12511 0.0
C1052 C 0.83247 0.91619 0.13878 0.0
C1053 C 0.86498 0.88885 0.14757 0.0
C1054 C 0.92 0.94834 0.10667 0.0
C1055 C 0.77881 0.92143 0.14352 0.0
H1056 H 0.75575 0.05402 0.1006 0.0
H1057 H 0.73698 0.90063 0.08733 0.0
H1058 H 0.81539 0.03219 0.13413 0.0
H1059 H 0.86389 0.04187 0.12097 0.0
H1060 H 0.80814 0.07873 0.12015 0.0
H1061 H 0.78169 0.83633 0.09764 0.0
H1062 H 0.84326 0.85456 0.10379 0.0
H1063 H 0.7943 0.84625 0.11693 0.0
H1064 H 0.9705 0.89675 0.12691 0.0
H1065 H 0.85107 0.87166 0.15753 0.0
H1066 H 0.90609 0.98622 0.10438 0.0
H1067 H 0.90642 0.9232 0.0977 0.0
H1068 H 0.96142 0.94919 0.10634 0.0
H1069 H 0.7652 0.9595 0.14131 0.0
H1070 H 0.77379 0.91354 0.1554 0.0
H1071 H 0.75518 0.89478 0.13711 0.0
C1072 C 0.9185 0.9828 0.83777 0.0
C1073 C 0.87975 0.9478 0.83903 0.0
C1074 C 0.92785 0.01744 0.84903 0.0
C1075 C 0.89702 0.01744 0.86168 0.0
C1076 C 0.85832 0.98179 0.86316 0.0
C1077 C 0.85035 0.94695 0.85181 0.0
C1078 C 0.96987 0.0549 0.84716 0.0
C1079 C 0.82487 0.98115 0.87653 0.0
C1080 C 0.96086 0.08793 0.89206 0.0
C1081 C 0.9454 0.13648 0.889 0.0
C1082 C 0.9416 0.04728 0.88413 0.0
C1083 C 0.90558 0.05572 0.87313 0.0
C1084 C 0.88545 0.10373 0.87128 0.0
C1085 C 0.90606 0.14391 0.87919 0.0
C1086 C 0.96438 0.99664 0.88627 0.0
C1087 C 0.84594 0.11358 0.85989 0.0
H1088 H 0.94076 0.98398 0.82782 0.0
H1089 H 0.82088 0.91926 0.85289 0.0
H1090 H 0.95423 0.09273 0.84593 0.0
H1091 H 0.99418 0.05579 0.85703 0.0
H1092 H 0.99328 0.04651 0.83736 0.0
H1093 H 0.79769 0.9496 0.87621 0.0
H1094 H 0.8475 0.97855 0.8867 0.0
H1095 H 0.80395 0.01654 0.87728 0.0
H1096 H 0.99114 0.08192 0.89972 0.0
H1097 H 0.89336 0.18138 0.87708 0.0
H1098 H 0.99183 0.98956 0.87735 0.0
H1099 H 0.93564 0.96667 0.88566 0.0
H1100 H 0.98409 0.99431 0.89699 0.0
H1101 H 0.86339 0.1142 0.84881 0.0
H1102 H 0.82754 0.14997 0.86185 0.0
H1103 H 0.8171 0.08362 0.85981 0.0
C1104 C 0.82859 0.97704 0.47694 0.0
C1105 C 0.87213 0.94963 0.47457 0.0
C1106 C 0.78417 0.9649 0.46951 0.0
C1107 C 0.78373 0.92556 0.45898 0.0
C1108 C 0.82837 0.8995 0.45594 0.0
C1109 C 0.87184 0.91115 0.46401 0.0
C1110 C 0.73731 0.99296 0.47334 0.0
C1111 C 0.82981 0.85836 0.44449 0.0
C1112 C 0.66236 0.8552 0.4515 0.0
C1113 C 0.6447 0.87881 0.43889 0.0
C1114 C 0.70702 0.87071 0.45828 0.0
C1115 C 0.73582 0.90951 0.45194 0.0
C1116 C 0.71817 0.93342 0.43916 0.0
C1117 C 0.67216 0.91853 0.43299 0.0
C1118 C 0.72265 0.84651 0.47245 0.0
C1119 C 0.74845 0.97372 0.43177 0.0
H1120 H 0.82872 0.00672 0.48513 0.0
H1121 H 0.90552 0.88999 0.46215 0.0
H1122 H 0.72283 0.01183 0.46346 0.0
H1123 H 0.70791 0.96653 0.47706 0.0
H1124 H 0.74366 0.02143 0.48215 0.0
H1125 H 0.86842 0.84575 0.44223 0.0
H1126 H 0.8075 0.82601 0.44832 0.0
H1127 H 0.81293 0.87104 0.43405 0.0
H1128 H 0.64054 0.8252 0.45627 0.0
H1129 H 0.65827 0.93709 0.42333 0.0
H1130 H 0.72206 0.87458 0.48152 0.0
H1131 H 0.7614 0.83282 0.47158 0.0
H1132 H 0.69775 0.81487 0.47546 0.0
H1133 H 0.75982 0.00307 0.43982 0.0
H1134 H 0.72769 0.99141 0.42268 0.0
H1135 H 0.78309 0.95736 0.4272 0.0
C1136 C 0.8972 0.01174 0.25567 0.0
C1137 C 0.84626 0.02358 0.25598 0.0
C1138 C 0.91616 0.97748 0.24534 0.0
C1139 C 0.88385 0.95582 0.23467 0.0
C1140 C 0.83244 0.96713 0.23497 0.0
C1141 C 0.81415 0.99998 0.24578 0.0
C1142 C 0.97103 0.96538 0.24567 0.0
C1143 C 0.79696 0.94579 0.22356 0.0
C1144 C 0.94286 0.90952 0.19902 0.0
C1145 C 0.94027 0.85781 0.20079 0.0
C1146 C 0.92389 0.94192 0.20988 0.0
C1147 C 0.90386 0.92199 0.22303 0.0
C1148 C 0.9024 0.8697 0.22497 0.0
C1149 C 0.91973 0.83818 0.21368 0.0
C1150 C 0.92472 0.99737 0.2072 0.0
C1151 C 0.88336 0.8471 0.23906 0.0
H1152 H 0.92281 0.03033 0.2632 0.0
H1153 H 0.77463 0.00785 0.24604 0.0
H1154 H 0.9764 0.92445 0.24507 0.0
H1155 H 0.9899 0.98176 0.23597 0.0
H1156 H 0.98962 0.98015 0.25576 0.0
H1157 H 0.75824 0.95916 0.22512 0.0
H1158 H 0.80978 0.95626 0.21238 0.0
H1159 H 0.79656 0.90451 0.22399 0.0
H1160 H 0.95879 0.9245 0.18902 0.0
H1161 H 0.91856 0.79811 0.2151 0.0
H1162 H 0.94841 0.01661 0.21555 0.0
H1163 H 0.88653 0.01248 0.20834 0.0
H1164 H 0.9392 0.00662 0.1961 0.0
H1165 H 0.9045 0.86281 0.24857 0.0
H1166 H 0.88677 0.80587 0.23907 0.0
H1167 H 0.84362 0.85664 0.24074 0.0
C1168 C 0.72589 0.10165 0.9781 0.0
C1169 C 0.68525 0.13355 0.98008 0.0
C1170 C 0.76991 0.11816 0.9713 0.0
C1171 C 0.77355 0.16785 0.96632 0.0
C1172 C 0.73215 0.19982 0.96783 0.0
C1173 C 0.68849 0.18231 0.97472 0.0
C1174 C 0.81331 0.08297 0.97002 0.0
C1175 C 0.73463 0.25305 0.96268 0.0
C1176 C 0.90527 0.22081 0.96468 0.0
C1177 C 0.91701 0.21489 0.94971 0.0
C1178 C 0.85813 0.20726 0.97011 0.0
C1179 C 0.82182 0.1869 0.96038 0.0
C1180 C 0.83289 0.18208 0.94519 0.0
C1181 C 0.88029 0.19632 0.94002 0.0
C1182 C 0.84762 0.21357 0.98636 0.0
C1183 C 0.79514 0.16062 0.93448 0.0
H1184 H 0.72419 0.0643 0.9825 0.0
H1185 H 0.65719 0.2071 0.97618 0.0
H1186 H 0.82618 0.08055 0.95843 0.0
H1187 H 0.84505 0.09745 0.9767 0.0
H1188 H 0.80367 0.04486 0.97381 0.0
H1189 H 0.69813 0.27199 0.96366 0.0
H1190 H 0.7625 0.27432 0.96933 0.0
H1191 H 0.74707 0.25435 0.95105 0.0
H1192 H 0.93311 0.23582 0.97221 0.0
H1193 H 0.88893 0.19178 0.92843 0.0
H1194 H 0.84011 0.17663 0.99129 0.0
H1195 H 0.81382 0.23639 0.98805 0.0
H1196 H 0.87919 0.23167 0.99236 0.0
H1197 H 0.78692 0.1212 0.93723 0.0
H1198 H 0.80845 0.16207 0.92291 0.0
H1199 H 0.75959 0.18121 0.93535 0.0
C1200 C 0.70704 0.03072 0.75219 0.0
C1201 C 0.73776 0.9916 0.7475 0.0
C1202 C 0.68473 0.06279 0.74202 0.0
C1203 C 0.69297 0.05552 0.72673 0.0
C1204 C 0.72318 0.0155 0.72192 0.0
C1205 C 0.74524 0.98421 0.73232 0.0
C1206 C 0.65297 0.10504 0.74766 0.0
C1207 C 0.73236 0.00582 0.70574 0.0
C1208 C 0.60503 0.12024 0.7 0.0
C1209 C 0.63331 0.16239 0.69605 0.0
C1210 C 0.62432 0.08448 0.70967 0.0
C1211 C 0.67249 0.09155 0.71586 0.0
C1212 C 0.70121 0.1338 0.71183 0.0
C1213 C 0.68155 0.16827 0.70195 0.0
C1214 C 0.59286 0.03947 0.71343 0.0
C1215 C 0.75258 0.14314 0.71818 0.0
H1216 H 0.70098 0.03671 0.76388 0.0
H1217 H 0.76783 0.95332 0.72855 0.0
H1218 H 0.67014 0.14122 0.74454 0.0
H1219 H 0.6155 0.10303 0.74251 0.0
H1220 H 0.64847 0.10451 0.75981 0.0
H1221 H 0.75546 0.97228 0.70376 0.0
H1222 H 0.6963 0.00067 0.69991 0.0
H1223 H 0.75153 0.03845 0.70082 0.0
H1224 H 0.56774 0.11524 0.69558 0.0
H1225 H 0.70388 0.20066 0.69911 0.0
H1226 H 0.5807 0.04233 0.72508 0.0
H1227 H 0.61489 0.00488 0.71228 0.0
H1228 H 0.55935 0.03603 0.7063 0.0
H1229 H 0.75021 0.14648 0.73035 0.0
H1230 H 0.77032 0.17761 0.71387 0.0
H1231 H 0.77711 0.11118 0.7156 0.0
C1232 C 0.7128 0.45342 0.96474 0.0
C1233 C 0.71945 0.49603 0.97366 0.0
C1234 C 0.75385 0.42892 0.95852 0.0
C1235 C 0.80252 0.44789 0.96119 0.0
C1236 C 0.80933 0.49165 0.96984 0.0
C1237 C 0.76774 0.51506 0.97602 0.0
C1238 C 0.7451 0.3826 0.94922 0.0
C1239 C 0.86071 0.51289 0.97296 0.0
C1240 C 0.91435 0.3632 0.95998 0.0
C1241 C 0.93563 0.3753 0.94639 0.0
C1242 C 0.86979 0.38505 0.96464 0.0
C1243 C 0.84677 0.42081 0.95564 0.0
C1244 C 0.86759 0.43249 0.94177 0.0
C1245 C 0.91164 0.40913 0.93722 0.0
C1246 C 0.84772 0.37032 0.97927 0.0
C1247 C 0.84405 0.47048 0.93191 0.0
H1248 H 0.67548 0.43894 0.96274 0.0
H1249 H 0.77325 0.5474 0.98313 0.0
H1250 H 0.75198 0.39136 0.9375 0.0
H1251 H 0.77134 0.35282 0.95229 0.0
H1252 H 0.70634 0.36801 0.95029 0.0
H1253 H 0.85937 0.54881 0.97916 0.0
H1254 H 0.88238 0.48598 0.97949 0.0
H1255 H 0.88117 0.51893 0.96251 0.0
H1256 H 0.93239 0.33626 0.96693 0.0
H1257 H 0.92803 0.41833 0.92667 0.0
H1258 H 0.86817 0.33918 0.98438 0.0
H1259 H 0.80811 0.35883 0.97786 0.0
H1260 H 0.84859 0.4028 0.98695 0.0
H1261 H 0.80471 0.45986 0.9296 0.0
H1262 H 0.86417 0.47429 0.92128 0.0
H1263 H 0.84375 0.50738 0.93756 0.0
C1264 C 0.9093 0.49503 0.25124 0.0
C1265 C 0.93228 0.4485 0.25025 0.0
C1266 C 0.92712 0.53551 0.24314 0.0
C1267 C 0.96877 0.52916 0.23375 0.0
C1268 C 0.99428 0.48318 0.2335 0.0
C1269 C 0.97586 0.44334 0.24189 0.0
C1270 C 0.89903 0.58397 0.24382 0.0
C1271 C 0.03968 0.47532 0.22397 0.0
C1272 C 0.95704 0.60465 0.1992 0.0
C1273 C 0.98716 0.64654 0.20237 0.0
C1274 C 0.95292 0.56523 0.20905 0.0
C1275 C 0.97943 0.56753 0.2225 0.0
C1276 C 0.01171 0.60845 0.22555 0.0
C1277 C 0.01528 0.64758 0.21542 0.0
C1278 C 0.91878 0.52173 0.20524 0.0
C1279 C 0.04135 0.61146 0.23964 0.0
H1280 H 0.87626 0.49929 0.258 0.0
H1281 H 0.99397 0.40745 0.24128 0.0
H1282 H 0.92524 0.61597 0.2452 0.0
H1283 H 0.87865 0.58911 0.23333 0.0
H1284 H 0.8716 0.58483 0.25299 0.0
H1285 H 0.05063 0.43554 0.22337 0.0
H1286 H 0.03313 0.48862 0.21262 0.0
H1287 H 0.07139 0.49716 0.22863 0.0
H1288 H 0.93584 0.60275 0.18906 0.0
H1289 H 0.03945 0.67926 0.21786 0.0
H1290 H 0.88738 0.52023 0.21319 0.0
H1291 H 0.9393 0.4862 0.20607 0.0
H1292 H 0.9031 0.52428 0.19397 0.0
H1293 H 0.01567 0.61255 0.24922 0.0
H1294 H 0.06611 0.64492 0.24014 0.0
H1295 H 0.06451 0.57772 0.24074 0.0
C1296 C 0.81235 0.58512 0.48576 0.0
C1297 C 0.82924 0.6067 0.49901 0.0
C1298 C 0.76993 0.60299 0.47865 0.0
C1299 C 0.7441 0.644 0.4848 0.0
C1300 C 0.7609 0.66618 0.49813 0.0
C1301 C 0.80307 0.64703 0.50514 0.0
C1302 C 0.75314 0.57833 0.46442 0.0
C1303 C 0.73457 0.71035 0.50489 0.0
C1304 C 0.66814 0.71346 0.45684 0.0
C1305 C 0.62098 0.69183 0.45877 0.0
C1306 C 0.70816 0.70019 0.46581 0.0
C1307 C 0.70051 0.66436 0.47692 0.0
C1308 C 0.6521 0.64438 0.47938 0.0
C1309 C 0.61275 0.65819 0.47015 0.0
C1310 C 0.75922 0.72198 0.46276 0.0
C1311 C 0.64261 0.60601 0.49108 0.0
H1312 H 0.83275 0.5546 0.48079 0.0
H1313 H 0.81531 0.66348 0.51549 0.0
H1314 H 0.71378 0.56561 0.46538 0.0
H1315 H 0.75491 0.60557 0.45535 0.0
H1316 H 0.77639 0.54579 0.46137 0.0
H1317 H 0.75191 0.72287 0.51543 0.0
H1318 H 0.73528 0.74196 0.49714 0.0
H1319 H 0.69485 0.70075 0.50695 0.0
H1320 H 0.67426 0.7388 0.44779 0.0
H1321 H 0.57621 0.64101 0.47137 0.0
H1322 H 0.78428 0.69227 0.45865 0.0
H1323 H 0.77589 0.73744 0.47304 0.0
H1324 H 0.75799 0.75182 0.45442 0.0
H1325 H 0.66093 0.5706 0.4879 0.0
H1326 H 0.60216 0.59844 0.49268 0.0
H1327 H 0.65897 0.61854 0.50173 0.0
C1328 C 0.64509 0.57838 0.73782 0.0
C1329 C 0.66902 0.57826 0.75143 0.0
C1330 C 0.63054 0.53366 0.73108 0.0
C1331 C 0.64119 0.48823 0.73814 0.0
C1332 C 0.66177 0.48822 0.75244 0.0
C1333 C 0.67533 0.5337 0.75901 0.0
C1334 C 0.60839 0.53546 0.71582 0.0
C1335 C 0.67362 0.44034 0.76017 0.0
C1336 C 0.58426 0.37665 0.7191 0.0
C1337 C 0.62087 0.36692 0.70846 0.0
C1338 C 0.59145 0.41428 0.72964 0.0
C1339 C 0.63677 0.44155 0.72964 0.0
C1340 C 0.67555 0.42879 0.71977 0.0
C1341 C 0.66688 0.39181 0.70913 0.0
C1342 C 0.54965 0.42605 0.74021 0.0
C1343 C 0.72499 0.45637 0.71981 0.0
H1344 H 0.64032 0.61326 0.7321 0.0
H1345 H 0.69432 0.53417 0.76955 0.0
H1346 H 0.63907 0.53602 0.70762 0.0
H1347 H 0.58426 0.50265 0.71337 0.0
H1348 H 0.58626 0.56982 0.71437 0.0
H1349 H 0.68515 0.44695 0.77178 0.0
H1350 H 0.64082 0.41484 0.76 0.0
H1351 H 0.70435 0.42117 0.75428 0.0
H1352 H 0.54875 0.35692 0.71868 0.0
H1353 H 0.69554 0.38339 0.70108 0.0
H1354 H 0.54622 0.46673 0.74221 0.0
H1355 H 0.55733 0.40839 0.75093 0.0
H1356 H 0.51335 0.41122 0.73611 0.0
H1357 H 0.71992 0.49415 0.71525 0.0
H1358 H 0.7535 0.43681 0.71308 0.0
H1359 H 0.73929 0.461 0.73121 0.0
C1360 C 0.71038 0.68926 0.09054 0.0
C1361 C 0.7079 0.6564 0.07849 0.0
C1362 C 0.75557 0.6977 0.09802 0.0
C1363 C 0.79946 0.67345 0.09312 0.0
C1364 C 0.79724 0.6412 0.08069 0.0
C1365 C 0.75138 0.63282 0.07358 0.0
C1366 C 0.75554 0.73072 0.1116 0.0
C1367 C 0.84315 0.61547 0.07488 0.0
C1368 C 0.91856 0.73016 0.10913 0.0
C1369 C 0.92523 0.70044 0.12156 0.0
C1370 C 0.87953 0.71997 0.09913 0.0
C1371 C 0.84654 0.67934 0.1017 0.0
C1372 C 0.85583 0.6469 0.11351 0.0
C1373 C 0.89524 0.65759 0.12319 0.0
C1374 C 0.87184 0.7542 0.08631 0.0
C1375 C 0.82198 0.60283 0.11655 0.0
H1376 H 0.67668 0.70731 0.09434 0.0
H1377 H 0.74946 0.60794 0.06411 0.0
H1378 H 0.754 0.70692 0.1215 0.0
H1379 H 0.79005 0.7537 0.11236 0.0
H1380 H 0.72286 0.7558 0.11186 0.0
H1381 H 0.8339 0.58655 0.06644 0.0
H1382 H 0.86843 0.64349 0.06985 0.0
H1383 H 0.86393 0.59769 0.08393 0.0
H1384 H 0.94156 0.76325 0.10773 0.0
H1385 H 0.90059 0.63388 0.13262 0.0
H1386 H 0.83353 0.76933 0.08654 0.0
H1387 H 0.87576 0.73279 0.07586 0.0
H1388 H 0.89896 0.78581 0.08629 0.0
H1389 H 0.78463 0.61632 0.1199 0.0
H1390 H 0.83664 0.57895 0.12542 0.0
H1391 H 0.81694 0.57965 0.10645 0.0
C1392 C 0.70404 0.46253 0.3345 0.0
C1393 C 0.67894 0.41709 0.33673 0.0
C1394 C 0.68599 0.50728 0.34053 0.0
C1395 C 0.64244 0.50646 0.34933 0.0
C1396 C 0.61588 0.46088 0.35113 0.0
C1397 C 0.63413 0.41679 0.34463 0.0
C1398 C 0.71423 0.55529 0.33783 0.0
C1399 C 0.56934 0.45833 0.36043 0.0
C1400 C 0.63839 0.59866 0.38125 0.0
C1401 C 0.60041 0.63127 0.3771 0.0
C1402 C 0.65244 0.55855 0.37223 0.0
C1403 C 0.62918 0.5513 0.35838 0.0
C1404 C 0.59311 0.58594 0.35363 0.0
C1405 C 0.57875 0.62532 0.36312 0.0
C1406 C 0.69062 0.52244 0.37789 0.0
C1407 C 0.56798 0.58035 0.33884 0.0
H1408 H 0.73815 0.46294 0.3281 0.0
H1409 H 0.61446 0.38174 0.34622 0.0
H1410 H 0.68888 0.58298 0.33293 0.0
H1411 H 0.72805 0.57134 0.34839 0.0
H1412 H 0.7466 0.54991 0.33038 0.0
H1413 H 0.55324 0.42004 0.36085 0.0
H1414 H 0.57774 0.47124 0.37182 0.0
H1415 H 0.54087 0.48353 0.35591 0.0
H1416 H 0.65577 0.6031 0.39196 0.0
H1417 H 0.54899 0.64987 0.35986 0.0
H1418 H 0.72281 0.52048 0.37025 0.0
H1419 H 0.67388 0.48447 0.37845 0.0
H1420 H 0.70471 0.53308 0.389 0.0
H1421 H 0.59457 0.56729 0.3303 0.0
H1422 H 0.55148 0.616 0.33526 0.0
H1423 H 0.53743 0.55229 0.33961 0.0
C1424 C 0.7619 0.4576 0.56921 0.0
C1425 C 0.80792 0.43317 0.56898 0.0
C1426 C 0.72324 0.44217 0.57868 0.0
C1427 C 0.73098 0.40177 0.58828 0.0
C1428 C 0.77684 0.3761 0.58777 0.0
C1429 C 0.81461 0.39205 0.57815 0.0
C1430 C 0.67468 0.47003 0.57872 0.0
C1431 C 0.78696 0.33308 0.59787 0.0
C1432 C 0.66683 0.39521 0.62546 0.0
C1433 C 0.63301 0.35537 0.62341 0.0
C1434 C 0.69705 0.41223 0.61391 0.0
C1435 C 0.69345 0.38908 0.59986 0.0
C1436 C 0.65718 0.35098 0.59744 0.0
C1437 C 0.62734 0.33457 0.60924 0.0
C1438 C 0.73501 0.45305 0.61702 0.0
C1439 C 0.65189 0.32548 0.58262 0.0
H1440 H 0.75628 0.48908 0.56206 0.0
H1441 H 0.85026 0.37341 0.57823 0.0
H1442 H 0.64276 0.44351 0.57776 0.0
H1443 H 0.67045 0.49055 0.58932 0.0
H1444 H 0.67261 0.49716 0.56961 0.0
H1445 H 0.82298 0.31475 0.59537 0.0
H1446 H 0.7879 0.3467 0.60946 0.0
H1447 H 0.75661 0.30477 0.59701 0.0
H1448 H 0.6712 0.41198 0.6363 0.0
H1449 H 0.60155 0.30364 0.60752 0.0
H1450 H 0.73199 0.48299 0.60878 0.0
H1451 H 0.77314 0.43765 0.61614 0.0
H1452 H 0.7305 0.4698 0.62818 0.0
H1453 H 0.65209 0.35323 0.57367 0.0
H1454 H 0.61708 0.30274 0.58184 0.0
H1455 H 0.68405 0.30051 0.58076 0.0
C1456 C 0.88978 0.61335 0.8482 0.0
C1457 C 0.92625 0.64107 0.84063 0.0
C1458 C 0.90262 0.57276 0.85707 0.0
C1459 C 0.9532 0.55869 0.85833 0.0
C1460 C 0.99037 0.5872 0.85104 0.0
C1461 C 0.97651 0.62794 0.84235 0.0
C1462 C 0.86173 0.54387 0.86471 0.0
C1463 C 0.04469 0.57332 0.85178 0.0
C1464 C 0.99246 0.47123 0.88915 0.0
C1465 C 0.99224 0.42458 0.88193 0.0
C1466 C 0.97953 0.51503 0.88168 0.0
C1467 C 0.96674 0.51253 0.86654 0.0
C1468 C 0.96665 0.46563 0.8592 0.0
C1469 C 0.97897 0.4224 0.86697 0.0
C1470 C 0.97979 0.56411 0.88998 0.0
C1471 C 0.95414 0.46115 0.84302 0.0
H1472 H 0.85076 0.62217 0.8468 0.0
H1473 H 0.0052 0.64914 0.83673 0.0
H1474 H 0.85884 0.50578 0.85987 0.0
H1475 H 0.87064 0.53992 0.87656 0.0
H1476 H 0.82487 0.56203 0.86371 0.0
H1477 H 0.06957 0.60381 0.84788 0.0
H1478 H 0.05564 0.56355 0.86315 0.0
H1479 H 0.05076 0.54006 0.84467 0.0
H1480 H 0.00265 0.47356 0.90068 0.0
H1481 H 0.97926 0.38687 0.86116 0.0
H1482 H 0.94262 0.58165 0.8892 0.0
H1483 H 0.00721 0.59005 0.88493 0.0
H1484 H 0.98937 0.55978 0.90178 0.0
H1485 H 0.91621 0.4756 0.84098 0.0
H1486 H 0.95571 0.42205 0.8389 0.0
H1487 H 0.98063 0.48414 0.83654 0.0
C1488 C 0.32225 0.60937 0.08102 0.0
C1489 C 0.35235 0.65034 0.07711 0.0
C1490 C 0.28204 0.61492 0.09082 0.0
C1491 C 0.27158 0.66256 0.09684 0.0
C1492 C 0.30122 0.70416 0.09272 0.0
C1493 C 0.34127 0.69751 0.08298 0.0
C1494 C 0.25111 0.56979 0.09488 0.0
C1495 C 0.29142 0.75567 0.09885 0.0
C1496 C 0.1496 0.70037 0.11484 0.0
C1497 C 0.16392 0.70283 0.12965 0.0
C1498 C 0.18317 0.68377 0.10398 0.0
C1499 C 0.23177 0.66907 0.10814 0.0
C1500 C 0.24442 0.66719 0.12325 0.0
C1501 C 0.21043 0.68448 0.13381 0.0
C1502 C 0.16825 0.68664 0.08801 0.0
C1503 C 0.29552 0.65138 0.12821 0.0
H1504 H 0.32992 0.57291 0.07633 0.0
H1505 H 0.36458 0.72926 0.08017 0.0
H1506 H 0.25453 0.56286 0.10684 0.0
H1507 H 0.21114 0.57661 0.09259 0.0
H1508 H 0.26267 0.53573 0.08875 0.0
H1509 H 0.31512 0.78454 0.09356 0.0
H1510 H 0.25173 0.76552 0.09729 0.0
H1511 H 0.29895 0.7565 0.11086 0.0
H1512 H 0.11402 0.71564 0.11161 0.0
H1513 H 0.22155 0.68697 0.14528 0.0
H1514 H 0.18135 0.65356 0.08173 0.0
H1515 H 0.18589 0.72011 0.08307 0.0
H1516 H 0.12719 0.68951 0.08671 0.0
H1517 H 0.3067 0.61651 0.12248 0.0
H1518 H 0.29705 0.64543 0.14028 0.0
H1519 H 0.32329 0.68069 0.12536 0.0
C1520 C 0.2026 0.53407 0.84623 0.0
C1521 C 0.24755 0.56127 0.8469 0.0
C1522 C 0.19432 0.49298 0.85523 0.0
C1523 C 0.23279 0.47721 0.8647 0.0
C1524 C 0.27896 0.503 0.86508 0.0
C1525 C 0.28539 0.5455 0.85643 0.0
C1526 C 0.14385 0.46719 0.85481 0.0
C1527 C 0.3213 0.48602 0.87467 0.0
C1528 C 0.17685 0.40514 0.89571 0.0
C1529 C 0.17219 0.35811 0.88896 0.0
C1530 C 0.20115 0.44414 0.8885 0.0
C1531 C 0.2229 0.43486 0.87456 0.0
C1532 C 0.22474 0.38559 0.86882 0.0
C1533 C 0.19796 0.34778 0.87592 0.0
C1534 C 0.19706 0.49623 0.89486 0.0
C1535 C 0.24984 0.37399 0.85433 0.0
H1536 H 0.17359 0.54464 0.83864 0.0
H1537 H 0.32001 0.56648 0.85729 0.0
H1538 H 0.14797 0.42676 0.85254 0.0
H1539 H 0.12529 0.47131 0.86567 0.0
H1540 H 0.11905 0.48258 0.84625 0.0
H1541 H 0.35686 0.50571 0.87211 0.0
H1542 H 0.31221 0.49308 0.88641 0.0
H1543 H 0.32687 0.4453 0.87328 0.0
H1544 H 0.15651 0.41306 0.90578 0.0
H1545 H 0.19445 0.31115 0.87081 0.0
H1546 H 0.16693 0.51609 0.88904 0.0
H1547 H 0.23207 0.51783 0.89331 0.0
H1548 H 0.18787 0.49584 0.90679 0.0
H1549 H 0.2248 0.38422 0.84516 0.0
H1550 H 0.2583 0.33368 0.85321 0.0
H1551 H 0.28497 0.39588 0.85318 0.0
C1552 C 0.261 0.40885 0.58795 0.0
C1553 C 0.24719 0.45823 0.58546 0.0
C1554 C 0.29829 0.39773 0.59813 0.0
C1555 C 0.3222 0.43703 0.60606 0.0
C1556 C 0.31015 0.48708 0.60311 0.0
C1557 C 0.27263 0.49712 0.59284 0.0
C1558 C 0.31022 0.34372 0.60092 0.0
C1559 C 0.33533 0.52986 0.61122 0.0
C1560 C 0.36231 0.39065 0.643 0.0
C1561 C 0.4112 0.3759 0.63998 0.0
C1562 C 0.33413 0.4151 0.63242 0.0
C1563 C 0.35551 0.42476 0.61849 0.0
C1564 C 0.40658 0.41487 0.61597 0.0
C1565 C 0.43407 0.39053 0.62683 0.0
C1566 C 0.27997 0.42567 0.63563 0.0
C1567 C 0.43084 0.42521 0.60132 0.0
H1568 H 0.2412 0.37864 0.58238 0.0
H1569 H 0.26268 0.53542 0.59074 0.0
H1570 H 0.35101 0.33768 0.60023 0.0
H1571 H 0.29812 0.33363 0.61219 0.0
H1572 H 0.29137 0.31805 0.59295 0.0
H1573 H 0.32682 0.56639 0.60624 0.0
H1574 H 0.32255 0.53059 0.62284 0.0
H1575 H 0.37635 0.52496 0.61134 0.0
H1576 H 0.34486 0.37975 0.65326 0.0
H1577 H 0.4719 0.37902 0.62446 0.0
H1578 H 0.25609 0.39862 0.62945 0.0
H1579 H 0.27005 0.46357 0.63198 0.0
H1580 H 0.27116 0.42249 0.64754 0.0
H1581 H 0.41965 0.39563 0.5933 0.0
H1582 H 0.47218 0.42559 0.60215 0.0
H1583 H 0.41852 0.46139 0.5969 0.0
C1584 C 0.3119 0.47031 0.34989 0.0
C1585 C 0.34974 0.43451 0.34998 0.0
C1586 C 0.31724 0.51564 0.35766 0.0
C1587 C 0.36131 0.52523 0.36579 0.0
C1588 C 0.39896 0.4886 0.36629 0.0
C1589 C 0.39283 0.44382 0.35832 0.0
C1590 C 0.27635 0.5537 0.35688 0.0
C1591 C 0.44647 0.49725 0.37493 0.0
C1592 C 0.41581 0.65256 0.37461 0.0
C1593 C 0.40991 0.65412 0.38991 0.0
C1594 C 0.39622 0.61255 0.36627 0.0
C1595 C 0.36949 0.57399 0.37346 0.0
C1596 C 0.35821 0.57895 0.38863 0.0
C1597 C 0.37916 0.6188 0.39673 0.0
C1598 C 0.40932 0.60868 0.35014 0.0
C1599 C 0.32919 0.53923 0.39668 0.0
H1600 H 0.27881 0.46372 0.34328 0.0
H1601 H 0.42206 0.41626 0.35847 0.0
H1602 H 0.26282 0.5629 0.36812 0.0
H1603 H 0.29112 0.58874 0.3521 0.0
H1604 H 0.24425 0.54038 0.35011 0.0
H1605 H 0.46993 0.46344 0.37524 0.0
H1606 H 0.46842 0.52796 0.36991 0.0
H1607 H 0.43782 0.50869 0.38642 0.0
H1608 H 0.44064 0.6793 0.36942 0.0
H1609 H 0.37542 0.61971 0.40863 0.0
H1610 H 0.42227 0.645 0.34571 0.0
H1611 H 0.37685 0.59524 0.34361 0.0
H1612 H 0.43968 0.58129 0.34863 0.0
H1613 H 0.29697 0.52571 0.39004 0.0
H1614 H 0.31539 0.55307 0.40751 0.0
H1615 H 0.35372 0.50694 0.39864 0.0
C1616 C 0.2568 0.56125 0.99716 0.0
C1617 C 0.30188 0.58088 0.99187 0.0
C1618 C 0.22362 0.53589 0.98769 0.0
C1619 C 0.23617 0.52976 0.97263 0.0
C1620 C 0.27944 0.55334 0.967 0.0
C1621 C 0.31189 0.57858 0.9767 0.0
C1622 C 0.17732 0.512 0.99406 0.0
C1623 C 0.29366 0.54821 0.95098 0.0
C1624 C 0.19626 0.40417 0.95721 0.0
C1625 C 0.15324 0.41593 0.94931 0.0
C1626 C 0.22469 0.44137 0.96427 0.0
C1627 C 0.20931 0.4916 0.96359 0.0
C1628 C 0.16722 0.50411 0.95504 0.0
C1629 C 0.13974 0.46599 0.9479 0.0
C1630 C 0.27015 0.42655 0.97295 0.0
C1631 C 0.14959 0.55717 0.95409 0.0
H1632 H 0.2487 0.56353 0.00884 0.0
H1633 H 0.3469 0.59329 0.97254 0.0
H1634 H 0.14462 0.51861 0.9869 0.0
H1635 H 0.18251 0.47109 0.99464 0.0
H1636 H 0.16905 0.52636 0.00531 0.0
H1637 H 0.32476 0.57385 0.94799 0.0
H1638 H 0.30533 0.50937 0.94863 0.0
H1639 H 0.26123 0.55583 0.94382 0.0
H1640 H 0.20719 0.36555 0.95814 0.0
H1641 H 0.10634 0.47515 0.94183 0.0
H1642 H 0.264 0.43449 0.98483 0.0
H1643 H 0.30317 0.44872 0.96946 0.0
H1644 H 0.27877 0.38635 0.97158 0.0
H1645 H 0.1311 0.5678 0.96458 0.0
H1646 H 0.1225 0.56192 0.94498 0.0
H1647 H 0.18142 0.58331 0.95249 0.0
C1648 C 0.32536 0.55312 0.74109 0.0
C1649 C 0.33983 0.54652 0.7558 0.0
C1650 C 0.34079 0.52008 0.72982 0.0
C1651 C 0.37144 0.47904 0.73325 0.0
C1652 C 0.38575 0.47201 0.74813 0.0
C1653 C 0.37019 0.50594 0.75912 0.0
C1654 C 0.324 0.52901 0.71423 0.0
C1655 C 0.41773 0.42912 0.75284 0.0
C1656 C 0.3747 0.36544 0.70743 0.0
C1657 C 0.42018 0.372 0.69993 0.0
C1658 C 0.35834 0.40004 0.71812 0.0
C1659 C 0.38752 0.44312 0.72135 0.0
C1660 C 0.43283 0.45072 0.7136 0.0
C1661 C 0.4489 0.41494 0.70312 0.0
C1662 C 0.31039 0.38974 0.7263 0.0
C1663 C 0.4645 0.4966 0.71646 0.0
H1664 H 0.30262 0.58481 0.73833 0.0
H1665 H 0.3815 0.50023 0.77043 0.0
H1666 H 0.35683 0.53294 0.70689 0.0
H1667 H 0.30187 0.4965 0.71015 0.0
H1668 H 0.30097 0.563 0.71332 0.0
H1669 H 0.40064 0.4107 0.76252 0.0
H1670 H 0.42349 0.40053 0.74412 0.0
H1671 H 0.45462 0.44397 0.75643 0.0
H1672 H 0.35222 0.33235 0.70524 0.0
H1673 H 0.48405 0.4206 0.69746 0.0
H1674 H 0.28501 0.42193 0.7254 0.0
H1675 H 0.3186 0.3848 0.73817 0.0
H1676 H 0.29075 0.35577 0.7221 0.0
H1677 H 0.44265 0.53055 0.71427 0.0
H1678 H 0.49836 0.49735 0.70945 0.0
H1679 H 0.47566 0.49836 0.7282 0.0
C1680 C 0.21337 0.65106 0.48903 0.0
C1681 C 0.17276 0.62694 0.4821 0.0
C1682 C 0.25691 0.66328 0.48122 0.0
C1683 C 0.2605 0.65064 0.46608 0.0
C1684 C 0.21951 0.62697 0.45893 0.0
C1685 C 0.17615 0.61547 0.46701 0.0
C1686 C 0.29963 0.68861 0.48928 0.0
C1687 C 0.22172 0.61326 0.44278 0.0
C1688 C 0.35999 0.71958 0.44413 0.0
C1689 C 0.39898 0.68503 0.44375 0.0
C1690 C 0.31433 0.70833 0.45099 0.0
C1691 C 0.30749 0.66169 0.45785 0.0
C1692 C 0.34639 0.6264 0.45737 0.0
C1693 C 0.39152 0.63837 0.45027 0.0
C1694 C 0.27377 0.74686 0.45116 0.0
C1695 C 0.34067 0.57631 0.4646 0.0
H1696 H 0.21186 0.6591 0.50074 0.0
H1697 H 0.14496 0.59721 0.46151 0.0
H1698 H 0.33163 0.66285 0.48985 0.0
H1699 H 0.31241 0.72213 0.48327 0.0
H1700 H 0.28929 0.70003 0.50066 0.0
H1701 H 0.18634 0.59601 0.43876 0.0
H1702 H 0.22989 0.64692 0.43619 0.0
H1703 H 0.25248 0.5867 0.44077 0.0
H1704 H 0.36513 0.75571 0.43911 0.0
H1705 H 0.42126 0.61136 0.45005 0.0
H1706 H 0.26839 0.76099 0.46258 0.0
H1707 H 0.23782 0.73002 0.44751 0.0
H1708 H 0.28278 0.77884 0.44395 0.0
H1709 H 0.33523 0.58159 0.47662 0.0
H1710 H 0.37364 0.55229 0.46279 0.0
H1711 H 0.3071 0.55653 0.46027 0.0
C1712 C 0.23393 0.54053 0.24121 0.0
C1713 C 0.25341 0.4951 0.23615 0.0
C1714 C 0.22111 0.57815 0.23136 0.0
C1715 C 0.22835 0.57041 0.21607 0.0
C1716 C 0.24946 0.52533 0.21091 0.0
C1717 C 0.2616 0.48816 0.221 0.0
C1718 C 0.19843 0.62562 0.23729 0.0
C1719 C 0.25753 0.51565 0.19468 0.0
C1720 C 0.14177 0.64148 0.19122 0.0
C1721 C 0.17154 0.68247 0.18711 0.0
C1722 C 0.16021 0.60443 0.20038 0.0
C1723 C 0.20997 0.60782 0.20546 0.0
C1724 C 0.24094 0.64796 0.20095 0.0
C1725 C 0.22129 0.685 0.19185 0.0
C1726 C 0.12567 0.5627 0.20508 0.0
C1727 C 0.29431 0.65255 0.20608 0.0
H1728 H 0.22834 0.5466 0.2529 0.0
H1729 H 0.2761 0.453 0.21697 0.0
H1730 H 0.22065 0.65833 0.23364 0.0
H1731 H 0.1602 0.62976 0.23284 0.0
H1732 H 0.19637 0.62634 0.2495 0.0
H1733 H 0.2783 0.4807 0.19256 0.0
H1734 H 0.22094 0.5128 0.18902 0.0
H1735 H 0.2784 0.54716 0.18971 0.0
H1736 H 0.10323 0.63896 0.18767 0.0
H1737 H 0.24455 0.71644 0.18874 0.0
H1738 H 0.1205 0.56451 0.21718 0.0
H1739 H 0.14229 0.52603 0.20239 0.0
H1740 H 0.08842 0.56459 0.19978 0.0
H1741 H 0.29519 0.65871 0.21818 0.0
H1742 H 0.31453 0.68386 0.20075 0.0
H1743 H 0.31448 0.61746 0.20372 0.0
loop_
_geom_bond_atom_site_label_1
_geom_bond_atom_site_label_2
_geom_bond_distance
_geom_bond_site_symmetry_2
_ccdc_geom_bond_type
H0 O26 0.856 . S
H1 O29 0.854 . S
H2 C37 0.930 . S
H3 C38 0.930 . S
H4 C40 0.930 1_565 S
H5 C41 0.930 1_565 S
H6 C43 0.930 . S
H7 C44 0.930 . S
H8 C46 0.930 . S
H9 C47 0.929 . S
H10 C49 0.930 . S
H11 C50 0.931 . S
H12 C52 0.930 . S
H13 C53 0.929 1_565 S
H14 C55 0.931 . S
H15 C56 0.930 . S
H16 C58 0.930 . S
H17 C59 0.932 . S
H18 C61 0.930 1_445 S
H19 C62 0.929 . S
H20 C64 0.931 . S
H21 C65 0.930 . S
H22 C67 0.929 . S
H23 C68 0.931 1_545 S
H24 C70 0.930 . S
H25 C71 0.929 . S
O26 H0 0.856 . S
O26 C72 1.300 . S
O27 C72 1.209 . S
O28 C73 1.199 . S
O29 H1 0.854 . S
O29 C73 1.297 . S
C30 C31 1.404 . S
C30 C35 1.397 . S
C30 C36 1.492 . S
C31 C30 1.404 . S
C31 C32 1.396 1_455 S
C31 C42 1.492 . S
C32 C31 1.396 1_655 S
C32 C33 1.397 . S
C32 C48 1.509 . S
C33 C32 1.397 . S
C33 C34 1.412 1_545 S
C33 C54 1.484 1_545 S
C34 C33 1.412 1_565 S
C34 C35 1.388 1_665 S
C34 C60 1.490 . S
C35 C30 1.397 . S
C35 C34 1.388 1_445 S
C35 C66 1.519 1_545 S
C36 C30 1.492 . S
C36 C37 1.363 . S
C36 C41 1.390 . S
C37 H2 0.930 . S
C37 C36 1.363 . S
C37 C38 1.372 . S
C38 H3 0.930 . S
C38 C37 1.372 . S
C38 C39 1.383 . S
C39 C38 1.383 . S
C39 C40 1.395 . S
C40 H4 0.930 1_545 S
C40 C39 1.395 . S
C40 C41 1.362 . S
C41 H5 0.930 1_545 S
C41 C36 1.390 . S
C41 C40 1.362 . S
C42 C31 1.492 . S
C42 C43 1.377 . S
C42 C47 1.397 . S
C43 H6 0.930 . S
C43 C42 1.377 . S
C43 C44 1.376 . S
C44 H7 0.930 . S
C44 C43 1.376 . S
C44 C45 1.376 . S
C45 C44 1.376 . S
C45 C46 1.378 . S
C45 C72 1.486 . S
C46 H8 0.930 . S
C46 C45 1.378 . S
C46 C47 1.376 . S
C47 H9 0.929 . S
C47 C42 1.397 . S
C47 C46 1.376 . S
C48 C32 1.509 . S
C48 C49 1.391 . S
C48 C53 1.386 . S
C49 H10 0.930 . S
C49 C48 1.391 . S
C49 C50 1.375 . S
C50 H11 0.931 . S
C50 C49 1.375 . S
C50 C51 1.375 . S
C51 C50 1.375 . S
C51 C52 1.361 . S
C52 H12 0.930 . S
C52 C51 1.361 . S
C52 C53 1.399 . S
C53 H13 0.929 1_545 S
C53 C48 1.386 . S
C53 C52 1.399 . S
C54 C33 1.484 1_565 S
C54 C55 1.391 1_565 S
C54 C59 1.365 . S
C55 H14 0.931 . S
C55 C54 1.391 1_545 S
C55 C56 1.372 . S
C56 H15 0.930 . S
C56 C55 1.372 . S
C56 C57 1.397 1_545 S
C57 C56 1.397 1_565 S
C57 C58 1.390 . S
C57 C73 1.476 . S
C58 H16 0.930 . S
C58 C57 1.390 . S
C58 C59 1.366 . S
C59 H17 0.932 . S
C59 C54 1.365 . S
C59 C58 1.366 . S
C60 C34 1.490 . S
C60 C61 1.380 . S
C60 C65 1.386 . S
C61 H18 0.930 1_665 S
C61 C60 1.380 . S
C61 C62 1.381 . S
C62 H19 0.929 . S
C62 C61 1.381 . S
C62 C63 1.371 . S
C63 C62 1.371 . S
C63 C64 1.380 . S
C64 H20 0.931 . S
C64 C63 1.380 . S
C64 C65 1.387 . S
C65 H21 0.930 . S
C65 C60 1.386 . S
C65 C64 1.387 . S
C66 C35 1.519 1_565 S
C66 C67 1.377 1_565 S
C66 C71 1.361 . S
C67 H22 0.929 . S
C67 C66 1.377 1_545 S
C67 C68 1.386 1_545 S
C68 H23 0.931 1_565 S
C68 C67 1.386 1_565 S
C68 C69 1.363 . S
C69 C68 1.363 . S
C69 C70 1.385 . S
C70 H24 0.930 . S
C70 C69 1.385 . S
C70 C71 1.396 . S
C71 H25 0.929 . S
C71 C66 1.361 . S
C71 C70 1.396 . S
C72 O26 1.300 . S
C72 O27 1.209 . S
C72 C45 1.486 . S
C73 O28 1.199 . S
C73 O29 1.297 . S
C73 C57 1.476 . S
H74 O100 0.856 . S
H75 O103 0.854 . S
H76 C111 0.930 . S
H77 C112 0.930 . S
H78 C114 0.930 . S
H79 C115 0.930 . S
H80 C117 0.931 . S
H81 C118 0.930 . S
H82 C120 0.930 . S
H83 C121 0.929 . S
H84 C123 0.930 . S
H85 C124 0.931 . S
H86 C126 0.930 . S
H87 C127 0.929 . S
H88 C129 0.931 . S
H89 C130 0.930 . S
H90 C132 0.930 1_545 S
H91 C133 0.932 . S
H92 C135 0.930 . S
H93 C136 0.929 . S
H94 C138 0.931 . S
H95 C139 0.930 . S
H96 C141 0.929 . S
H97 C142 0.931 . S
H98 C144 0.930 . S
H99 C145 0.929 . S
O100 H74 0.856 . S
O100 C146 1.300 . S
O101 C146 1.209 . S
O102 C147 1.199 . S
O103 H75 0.854 . S
O103 C147 1.297 . S
C104 C105 1.404 . S
C104 C109 1.397 . S
C104 C110 1.492 . S
C105 C104 1.404 . S
C105 C106 1.396 . S
C105 C116 1.492 . S
C106 C105 1.396 . S
C106 C107 1.397 . S
C106 C122 1.509 . S
C107 C106 1.397 . S
C107 C108 1.412 . S
C107 C128 1.485 . S
C108 C107 1.412 . S
C108 C109 1.388 . S
C108 C134 1.490 . S
C109 C104 1.397 . S
C109 C108 1.388 . S
C109 C140 1.519 . S
C110 C104 1.492 . S
C110 C111 1.363 . S
C110 C115 1.390 . S
C111 H76 0.930 . S
C111 C110 1.363 . S
C111 C112 1.372 . S
C112 H77 0.930 . S
C112 C111 1.372 . S
C112 C113 1.383 . S
C113 C112 1.383 . S
C113 C114 1.395 . S
C114 H78 0.930 . S
C114 C113 1.395 . S
C114 C115 1.362 . S
C115 H79 0.930 . S
C115 C110 1.390 . S
C115 C114 1.362 . S
C116 C105 1.492 . S
C116 C117 1.377 . S
C116 C121 1.397 . S
C117 H80 0.931 . S
C117 C116 1.377 . S
C117 C118 1.376 . S
C118 H81 0.930 . S
C118 C117 1.376 . S
C118 C119 1.376 . S
C119 C118 1.376 . S
C119 C120 1.378 . S
C119 C146 1.486 . S
C120 H82 0.930 . S
C120 C119 1.378 . S
C120 C121 1.376 . S
C121 H83 0.929 . S
C121 C116 1.397 . S
C121 C120 1.376 . S
C122 C106 1.509 . S
C122 C123 1.391 . S
C122 C127 1.386 . S
C123 H84 0.930 . S
C123 C122 1.391 . S
C123 C124 1.375 . S
C124 H85 0.931 . S
C124 C123 1.375 . S
C124 C125 1.375 . S
C125 C124 1.375 . S
C125 C126 1.361 . S
C126 H86 0.930 . S
C126 C125 1.361 . S
C126 C127 1.399 . S
C127 H87 0.929 . S
C127 C122 1.386 . S
C127 C126 1.399 . S
C128 C107 1.485 . S
C128 C129 1.394 . S
C128 C133 1.360 . S
C129 H88 0.931 . S
C129 C128 1.394 . S
C129 C130 1.372 . S
C130 H89 0.930 . S
C130 C129 1.372 . S
C130 C131 1.397 1_565 S
C131 C130 1.397 1_545 S
C131 C132 1.390 1_545 S
C131 C147 1.476 . S
C132 H90 0.930 1_565 S
C132 C131 1.390 1_565 S
C132 C133 1.366 . S
C133 H91 0.932 . S
C133 C128 1.360 . S
C133 C132 1.366 . S
C134 C108 1.490 . S
C134 C135 1.380 . S
C134 C139 1.386 . S
C135 H92 0.930 . S
C135 C134 1.380 . S
C135 C136 1.381 . S
C136 H93 0.929 . S
C136 C135 1.381 . S
C136 C137 1.371 . S
C137 C136 1.371 . S
C137 C138 1.380 . S
C138 H94 0.931 . S
C138 C137 1.380 . S
C138 C139 1.387 . S
C139 H95 0.930 . S
C139 C134 1.386 . S
C139 C138 1.387 . S
C140 C109 1.519 . S
C140 C141 1.377 . S
C140 C145 1.361 . S
C141 H96 0.929 . S
C141 C140 1.377 . S
C141 C142 1.386 . S
C142 H97 0.931 . S
C142 C141 1.386 . S
C142 C143 1.363 . S
C143 C142 1.363 . S
C143 C144 1.385 . S
C144 H98 0.930 . S
C144 C143 1.385 . S
C144 C145 1.396 . S
C145 H99 0.929 . S
C145 C140 1.361 . S
C145 C144 1.396 . S
C146 O100 1.300 . S
C146 O101 1.209 . S
C146 C119 1.486 . S
C147 O102 1.199 . S
C147 O103 1.297 . S
C147 C131 1.476 . S
H148 O174 0.856 . S
H149 O177 0.854 . S
H150 C185 0.930 . S
H151 C186 0.930 . S
H152 C188 0.930 . S
H153 C189 0.930 . S
H154 C191 0.931 . S
H155 C192 0.930 . S
H156 C194 0.930 1_545 S
H157 C195 0.929 . S
H158 C197 0.930 . S
H159 C198 0.931 . S
H160 C200 0.930 . S
H161 C201 0.929 . S
H162 C203 0.931 . S
H163 C204 0.930 . S
H164 C206 0.930 . S
H165 C207 0.932 . S
H166 C209 0.930 . S
H167 C210 0.929 . S
H168 C212 0.931 . S
H169 C213 0.930 . S
H170 C215 0.929 . S
H171 C216 0.931 . S
H172 C218 0.930 . S
H173 C219 0.929 . S
O174 H148 0.856 . S
O174 C220 1.300 . S
O175 C220 1.209 . S
O176 C221 1.199 . S
O177 H149 0.854 . S
O177 C221 1.297 . S
C178 C179 1.404 . S
C178 C183 1.397 . S
C178 C184 1.492 . S
C179 C178 1.404 . S
C179 C180 1.396 . S
C179 C190 1.492 1_545 S
C180 C179 1.396 . S
C180 C181 1.397 . S
C180 C196 1.509 . S
C181 C180 1.397 . S
C181 C182 1.412 . S
C181 C202 1.485 . S
C182 C181 1.412 . S
C182 C183 1.388 . S
C182 C208 1.490 . S
C183 C178 1.397 . S
C183 C182 1.388 . S
C183 C214 1.519 . S
C184 C178 1.492 . S
C184 C185 1.363 1_545 S
C184 C189 1.390 . S
C185 H150 0.930 . S
C185 C184 1.363 1_565 S
C185 C186 1.372 . S
C186 H151 0.930 . S
C186 C185 1.372 . S
C186 C187 1.383 . S
C187 C186 1.383 . S
C187 C188 1.395 1_565 S
C188 H152 0.930 . S
C188 C187 1.395 1_545 S
C188 C189 1.362 . S
C189 H153 0.930 . S
C189 C184 1.390 . S
C189 C188 1.362 . S
C190 C179 1.492 1_565 S
C190 C191 1.377 . S
C190 C195 1.397 1_565 S
C191 H154 0.931 . S
C191 C190 1.377 . S
C191 C192 1.376 . S
C192 H155 0.930 . S
C192 C191 1.376 . S
C192 C193 1.376 . S
C193 C192 1.376 . S
C193 C194 1.378 . S
C193 C220 1.486 . S
C194 H156 0.930 1_565 S
C194 C193 1.378 . S
C194 C195 1.376 1_565 S
C195 H157 0.929 . S
C195 C190 1.397 1_545 S
C195 C194 1.376 1_545 S
C196 C180 1.509 . S
C196 C197 1.391 1_545 S
C196 C201 1.386 . S
C197 H158 0.930 . S
C197 C196 1.391 1_565 S
C197 C198 1.375 . S
C198 H159 0.931 . S
C198 C197 1.375 . S
C198 C199 1.375 . S
C199 C198 1.375 . S
C199 C200 1.361 1_565 S
C200 H160 0.930 . S
C200 C199 1.361 1_545 S
C200 C201 1.399 . S
C201 H161 0.929 . S
C201 C196 1.386 . S
C201 C200 1.399 . S
C202 C181 1.485 . S
C202 C203 1.394 . S
C202 C207 1.360 . S
C203 H162 0.931 . S
C203 C202 1.394 . S
C203 C204 1.372 . S
C204 H163 0.930 . S
C204 C203 1.372 . S
C204 C205 1.397 . S
C205 C204 1.397 . S
C205 C206 1.390 . S
C205 C221 1.476 . S
C206 H164 0.930 . S
C206 C205 1.390 . S
C206 C207 1.366 . S
C207 H165 0.932 . S
C207 C202 1.360 . S
C207 C206 1.366 . S
C208 C182 1.490 . S
C208 C209 1.380 . S
C208 C213 1.386 . S
C209 H166 0.930 . S
C209 C208 1.380 . S
C209 C210 1.381 1_554 S
C210 H167 0.929 . S
C210 C209 1.381 1_556 S
C210 C211 1.371 . S
C211 C210 1.371 . S
C211 C212 1.380 1_556 S
C212 H168 0.931 . S
C212 C211 1.380 1_554 S
C212 C213 1.387 . S
C213 H169 0.930 . S
C213 C208 1.386 . S
C213 C212 1.387 . S
C214 C183 1.519 . S
C214 C215 1.377 . S
C214 C219 1.361 . S
C215 H170 0.929 . S
C215 C214 1.377 . S
C215 C216 1.386 . S
C216 H171 0.931 . S
C216 C215 1.386 . S
C216 C217 1.363 . S
C217 C216 1.363 . S
C217 C218 1.385 . S
C218 H172 0.930 . S
C218 C217 1.385 . S
C218 C219 1.396 . S
C219 H173 0.929 . S
C219 C214 1.361 . S
C219 C218 1.396 . S
C220 O174 1.300 . S
C220 O175 1.209 . S
C220 C193 1.486 . S
C221 O176 1.199 . S
C221 O177 1.297 . S
C221 C205 1.476 . S
H222 O248 0.856 . S
H223 O251 0.854 . S
H224 C259 0.930 . S
H225 C260 0.930 . S
H226 C262 0.930 . S
H227 C263 0.930 . S
H228 C265 0.931 . S
H229 C266 0.930 . S
H230 C268 0.930 . S
H231 C269 0.929 . S
H232 C271 0.930 . S
H233 C272 0.931 . S
H234 C274 0.930 . S
H235 C275 0.929 . S
H236 C277 0.931 . S
H237 C278 0.930 . S
H238 C280 0.930 . S
H239 C281 0.932 . S
H240 C283 0.930 . S
H241 C284 0.929 . S
H242 C286 0.931 . S
H243 C287 0.930 . S
H244 C289 0.929 . S
H245 C290 0.931 . S
H246 C292 0.930 . S
H247 C293 0.929 . S
O248 H222 0.856 . S
O248 C294 1.300 . S
O249 C294 1.209 . S
O250 C295 1.199 . S
O251 H223 0.854 . S
O251 C295 1.297 . S
C252 C253 1.404 . S
C252 C257 1.397 . S
C252 C258 1.492 . S
C253 C252 1.404 . S
C253 C254 1.396 . S
C253 C264 1.492 . S
C254 C253 1.396 . S
C254 C255 1.397 . S
C254 C270 1.509 . S
C255 C254 1.397 . S
C255 C256 1.412 . S
C255 C276 1.485 . S
C256 C255 1.412 . S
C256 C257 1.388 . S
C256 C282 1.490 . S
C257 C252 1.397 . S
C257 C256 1.388 . S
C257 C288 1.519 . S
C258 C252 1.492 . S
C258 C259 1.363 . S
C258 C263 1.390 . S
C259 H224 0.930 . S
C259 C258 1.363 . S
C259 C260 1.372 . S
C260 H225 0.930 . S
C260 C259 1.372 . S
C260 C261 1.383 . S
C261 C260 1.383 . S
C261 C262 1.395 . S
C262 H226 0.930 . S
C262 C261 1.395 . S
C262 C263 1.362 . S
C263 H227 0.930 . S
C263 C258 1.390 . S
C263 C262 1.362 . S
C264 C253 1.492 . S
C264 C265 1.377 . S
C264 C269 1.397 . S
C265 H228 0.931 . S
C265 C264 1.377 . S
C265 C266 1.376 . S
C266 H229 0.930 . S
C266 C265 1.376 . S
C266 C267 1.376 . S
C267 C266 1.376 . S
C267 C268 1.378 . S
C267 C294 1.486 . S
C268 H230 0.930 . S
C268 C267 1.378 . S
C268 C269 1.376 . S
C269 H231 0.929 . S
C269 C264 1.397 . S
C269 C268 1.376 . S
C270 C254 1.509 . S
C270 C271 1.391 . S
C270 C275 1.386 . S
C271 H232 0.930 . S
C271 C270 1.391 . S
C271 C272 1.375 . S
C272 H233 0.931 . S
C272 C271 1.375 . S
C272 C273 1.375 . S
C273 C272 1.375 . S
C273 C274 1.361 . S
C274 H234 0.930 . S
C274 C273 1.361 . S
C274 C275 1.399 . S
C275 H235 0.929 . S
C275 C270 1.386 . S
C275 C274 1.399 . S
C276 C255 1.485 . S
C276 C277 1.394 . S
C276 C281 1.360 . S
C277 H236 0.931 . S
C277 C276 1.394 . S
C277 C278 1.372 . S
C278 H237 0.930 . S
C278 C277 1.372 . S
C278 C279 1.397 . S
C279 C278 1.397 . S
C279 C280 1.390 . S
C279 C295 1.476 . S
C280 H238 0.930 . S
C280 C279 1.390 . S
C280 C281 1.366 . S
C281 H239 0.932 . S
C281 C276 1.360 . S
C281 C280 1.366 . S
C282 C256 1.490 . S
C282 C283 1.380 . S
C282 C287 1.386 . S
C283 H240 0.930 . S
C283 C282 1.380 . S
C283 C284 1.381 . S
C284 H241 0.929 . S
C284 C283 1.381 . S
C284 C285 1.371 . S
C285 C284 1.371 . S
C285 C286 1.380 . S
C286 H242 0.931 . S
C286 C285 1.380 . S
C286 C287 1.387 . S
C287 H243 0.930 . S
C287 C282 1.386 . S
C287 C286 1.387 . S
C288 C257 1.519 . S
C288 C289 1.377 . S
C288 C293 1.361 . S
C289 H244 0.929 . S
C289 C288 1.377 . S
C289 C290 1.386 . S
C290 H245 0.931 . S
C290 C289 1.386 . S
C290 C291 1.363 . S
C291 C290 1.363 . S
C291 C292 1.385 . S
C292 H246 0.930 . S
C292 C291 1.385 . S
C292 C293 1.396 . S
C293 H247 0.929 . S
C293 C288 1.361 . S
C293 C292 1.396 . S
C294 O248 1.300 . S
C294 O249 1.209 . S
C294 C267 1.486 . S
C295 O250 1.199 . S
C295 O251 1.297 . S
C295 C279 1.476 . S
H296 O322 0.856 . S
H297 O325 0.854 . S
H298 C333 0.930 . S
H299 C334 0.930 . S
H300 C336 0.930 . S
H301 C337 0.930 . S
H302 C339 0.931 . S
H303 C340 0.930 . S
H304 C342 0.930 . S
H305 C343 0.929 . S
H306 C345 0.930 . S
H307 C346 0.931 . S
H308 C348 0.930 . S
H309 C349 0.929 . S
H310 C351 0.931 . S
H311 C352 0.930 . S
H312 C354 0.930 . S
H313 C355 0.932 . S
H314 C357 0.930 . S
H315 C358 0.929 . S
H316 C360 0.931 . S
H317 C361 0.930 . S
H318 C363 0.929 . S
H319 C364 0.931 . S
H320 C366 0.930 . S
H321 C367 0.929 . S
O322 H296 0.856 . S
O322 C368 1.300 . S
O323 C368 1.209 . S
O324 C369 1.199 . S
O325 H297 0.854 . S
O325 C369 1.297 . S
C326 C327 1.404 . S
C326 C331 1.397 . S
C326 C332 1.492 . S
C327 C326 1.404 . S
C327 C328 1.396 . S
C327 C338 1.492 . S
C328 C327 1.396 . S
C328 C329 1.397 . S
C328 C344 1.509 . S
C329 C328 1.397 . S
C329 C330 1.412 . S
C329 C350 1.485 . S
C330 C329 1.412 . S
C330 C331 1.388 . S
C330 C356 1.490 . S
C331 C326 1.397 . S
C331 C330 1.388 . S
C331 C362 1.519 . S
C332 C326 1.492 . S
C332 C333 1.363 . S
C332 C337 1.390 . S
C333 H298 0.930 . S
C333 C332 1.363 . S
C333 C334 1.372 . S
C334 H299 0.930 . S
C334 C333 1.372 . S
C334 C335 1.383 . S
C335 C334 1.383 . S
C335 C336 1.395 . S
C336 H300 0.930 . S
C336 C335 1.395 . S
C336 C337 1.362 . S
C337 H301 0.930 . S
C337 C332 1.390 . S
C337 C336 1.362 . S
C338 C327 1.492 . S
C338 C339 1.377 . S
C338 C343 1.397 . S
C339 H302 0.931 . S
C339 C338 1.377 . S
C339 C340 1.376 . S
C340 H303 0.930 . S
C340 C339 1.376 . S
C340 C341 1.376 . S
C341 C340 1.376 . S
C341 C342 1.378 . S
C341 C368 1.486 . S
C342 H304 0.930 . S
C342 C341 1.378 . S
C342 C343 1.376 . S
C343 H305 0.929 . S
C343 C338 1.397 . S
C343 C342 1.376 . S
C344 C328 1.509 . S
C344 C345 1.391 . S
C344 C349 1.386 . S
C345 H306 0.930 . S
C345 C344 1.391 . S
C345 C346 1.375 . S
C346 H307 0.931 . S
C346 C345 1.375 . S
C346 C347 1.375 . S
C347 C346 1.375 . S
C347 C348 1.361 . S
C348 H308 0.930 . S
C348 C347 1.361 . S
C348 C349 1.399 . S
C349 H309 0.929 . S
C349 C344 1.386 . S
C349 C348 1.399 . S
C350 C329 1.485 . S
C350 C351 1.394 . S
C350 C355 1.360 . S
C351 H310 0.931 . S
C351 C350 1.394 . S
C351 C352 1.372 . S
C352 H311 0.930 . S
C352 C351 1.372 . S
C352 C353 1.397 . S
C353 C352 1.397 . S
C353 C354 1.390 . S
C353 C369 1.476 . S
C354 H312 0.930 . S
C354 C353 1.390 . S
C354 C355 1.366 . S
C355 H313 0.932 . S
C355 C350 1.360 . S
C355 C354 1.366 . S
C356 C330 1.490 . S
C356 C357 1.380 . S
C356 C361 1.386 . S
C357 H314 0.930 . S
C357 C356 1.380 . S
C357 C358 1.381 . S
C358 H315 0.929 . S
C358 C357 1.381 . S
C358 C359 1.371 . S
C359 C358 1.371 . S
C359 C360 1.380 . S
C360 H316 0.931 . S
C360 C359 1.380 . S
C360 C361 1.387 . S
C361 H317 0.930 . S
C361 C356 1.386 . S
C361 C360 1.387 . S
C362 C331 1.519 . S
C362 C363 1.377 . S
C362 C367 1.361 . S
C363 H318 0.929 . S
C363 C362 1.377 . S
C363 C364 1.386 . S
C364 H319 0.931 . S
C364 C363 1.386 . S
C364 C365 1.363 . S
C365 C364 1.363 . S
C365 C366 1.385 . S
C366 H320 0.930 . S
C366 C365 1.385 . S
C366 C367 1.396 . S
C367 H321 0.929 . S
C367 C362 1.361 . S
C367 C366 1.396 . S
C368 O322 1.300 . S
C368 O323 1.209 . S
C368 C341 1.486 . S
C369 O324 1.199 . S
C369 O325 1.297 . S
C369 C353 1.476 . S
H370 O396 0.856 . S
H371 O399 0.854 . S
H372 C407 0.930 . S
H373 C408 0.930 . S
H374 C410 0.930 . S
H375 C411 0.930 . S
H376 C413 0.931 . S
H377 C414 0.930 . S
H378 C416 0.930 . S
H379 C417 0.929 . S
H380 C419 0.930 . S
H381 C420 0.931 . S
H382 C422 0.930 . S
H383 C423 0.929 . S
H384 C425 0.931 . S
H385 C426 0.930 . S
H386 C428 0.930 . S
H387 C429 0.932 . S
H388 C431 0.930 . S
H389 C432 0.929 . S
H390 C434 0.931 . S
H391 C435 0.930 . S
H392 C437 0.929 . S
H393 C438 0.931 . S
H394 C440 0.930 . S
H395 C441 0.929 . S
O396 H370 0.856 . S
O396 C442 1.300 . S
O397 C442 1.209 . S
O398 C443 1.199 . S
O399 H371 0.854 . S
O399 C443 1.297 . S
C400 C401 1.404 . S
C400 C405 1.397 . S
C400 C406 1.492 . S
C401 C400 1.404 . S
C401 C402 1.396 . S
C401 C412 1.492 . S
C402 C401 1.396 . S
C402 C403 1.397 . S
C402 C418 1.509 . S
C403 C402 1.397 . S
C403 C404 1.412 . S
C403 C424 1.485 . S
C404 C403 1.412 . S
C404 C405 1.388 . S
C404 C430 1.490 . S
C405 C400 1.397 . S
C405 C404 1.388 . S
C405 C436 1.519 . S
C406 C400 1.492 . S
C406 C407 1.363 . S
C406 C411 1.390 . S
C407 H372 0.930 . S
C407 C406 1.363 . S
C407 C408 1.372 . S
C408 H373 0.930 . S
C408 C407 1.372 . S
C408 C409 1.383 . S
C409 C408 1.383 . S
C409 C410 1.395 . S
C410 H374 0.930 . S
C410 C409 1.395 . S
C410 C411 1.362 . S
C411 H375 0.930 . S
C411 C406 1.390 . S
C411 C410 1.362 . S
C412 C401 1.492 . S
C412 C413 1.377 . S
C412 C417 1.397 . S
C413 H376 0.931 . S
C413 C412 1.377 . S
C413 C414 1.376 . S
C414 H377 0.930 . S
C414 C413 1.376 . S
C414 C415 1.376 . S
C415 C414 1.376 . S
C415 C416 1.378 . S
C415 C442 1.486 . S
C416 H378 0.930 . S
C416 C415 1.378 . S
C416 C417 1.376 . S
C417 H379 0.929 . S
C417 C412 1.397 . S
C417 C416 1.376 . S
C418 C402 1.509 . S
C418 C419 1.391 . S
C418 C423 1.386 . S
C419 H380 0.930 . S
C419 C418 1.391 . S
C419 C420 1.375 . S
C420 H381 0.931 . S
C420 C419 1.375 . S
C420 C421 1.375 . S
C421 C420 1.375 . S
C421 C422 1.361 . S
C422 H382 0.930 . S
C422 C421 1.361 . S
C422 C423 1.399 . S
C423 H383 0.929 . S
C423 C418 1.386 . S
C423 C422 1.399 . S
C424 C403 1.485 . S
C424 C425 1.394 . S
C424 C429 1.360 . S
C425 H384 0.931 . S
C425 C424 1.394 . S
C425 C426 1.372 . S
C426 H385 0.930 . S
C426 C425 1.372 . S
C426 C427 1.397 . S
C427 C426 1.397 . S
C427 C428 1.390 . S
C427 C443 1.476 . S
C428 H386 0.930 . S
C428 C427 1.390 . S
C428 C429 1.366 . S
C429 H387 0.932 . S
C429 C424 1.360 . S
C429 C428 1.366 . S
C430 C404 1.490 . S
C430 C431 1.380 . S
C430 C435 1.386 . S
C431 H388 0.930 . S
C431 C430 1.380 . S
C431 C432 1.381 . S
C432 H389 0.929 . S
C432 C431 1.381 . S
C432 C433 1.371 . S
C433 C432 1.371 . S
C433 C434 1.380 . S
C434 H390 0.931 . S
C434 C433 1.380 . S
C434 C435 1.387 . S
C435 H391 0.930 . S
C435 C430 1.386 . S
C435 C434 1.387 . S
C436 C405 1.519 . S
C436 C437 1.377 . S
C436 C441 1.361 . S
C437 H392 0.929 . S
C437 C436 1.377 . S
C437 C438 1.386 . S
C438 H393 0.931 . S
C438 C437 1.386 . S
C438 C439 1.363 . S
C439 C438 1.363 . S
C439 C440 1.385 . S
C440 H394 0.930 . S
C440 C439 1.385 . S
C440 C441 1.396 . S
C441 H395 0.929 . S
C441 C436 1.361 . S
C441 C440 1.396 . S
C442 O396 1.300 . S
C442 O397 1.209 . S
C442 C415 1.486 . S
C443 O398 1.199 . S
C443 O399 1.297 . S
C443 C427 1.476 . S
H444 O470 0.856 . S
H445 O473 0.854 . S
H446 C481 0.930 . S
H447 C482 0.954 . S
H448 C484 0.930 . S
H449 C485 0.930 . S
H450 C487 0.931 . S
H451 C488 0.930 . S
H452 C490 0.930 . S
H453 C491 0.929 . S
H454 C493 0.930 . S
H455 C494 0.931 . S
H456 C496 0.930 . S
H457 C497 0.929 . S
H458 C499 0.931 . S
H459 C500 0.930 . S
H460 C502 0.930 . S
H461 C503 0.932 . S
H462 C505 0.930 . S
H463 C506 0.929 . S
H464 C508 0.931 . S
H465 C509 0.930 . S
H466 C511 0.929 . S
H467 C512 0.931 . S
H468 C514 0.930 . S
H469 C515 0.929 . S
O470 H444 0.856 . S
O470 C516 1.300 . S
O471 C516 1.209 . S
O472 C517 1.199 . S
O473 H445 0.854 . S
O473 C517 1.297 . S
C474 C475 1.404 . S
C474 C479 1.397 . S
C474 C480 1.492 . S
C475 C474 1.404 . S
C475 C476 1.396 . S
C475 C486 1.492 . S
C476 C475 1.396 . S
C476 C477 1.397 . S
C476 C492 1.509 . S
C477 C476 1.397 . S
C477 C478 1.412 . S
C477 C498 1.485 . S
C478 C477 1.412 . S
C478 C479 1.388 . S
C478 C504 1.490 . S
C479 C474 1.397 . S
C479 C478 1.388 . S
C479 C510 1.519 . S
C480 C474 1.492 . S
C480 C481 1.363 . S
C480 C485 1.390 . S
C481 H446 0.930 . S
C481 C480 1.363 . S
C481 C482 1.372 . S
C482 H447 0.954 . S
C482 C481 1.372 . S
C482 C483 1.383 . S
C483 C482 1.383 . S
C483 C484 1.395 . S
C484 H448 0.930 . S
C484 C483 1.395 . S
C484 C485 1.362 . S
C485 H449 0.930 . S
C485 C480 1.390 . S
C485 C484 1.362 . S
C486 C475 1.492 . S
C486 C487 1.377 1_554 S
C486 C491 1.397 . S
C487 H450 0.931 . S
C487 C486 1.377 1_556 S
C487 C488 1.376 . S
C488 H451 0.930 . S
C488 C487 1.376 . S
C488 C489 1.376 . S
C489 C488 1.376 . S
C489 C490 1.378 . S
C489 C516 1.486 . S
C490 H452 0.930 . S
C490 C489 1.378 . S
C490 C491 1.376 1_556 S
C491 H453 0.929 . S
C491 C486 1.397 . S
C491 C490 1.376 1_554 S
C492 C476 1.509 . S
C492 C493 1.391 . S
C492 C497 1.386 . S
C493 H454 0.930 . S
C493 C492 1.391 . S
C493 C494 1.375 1_554 S
C494 H455 0.931 . S
C494 C493 1.375 1_556 S
C494 C495 1.375 . S
C495 C494 1.375 . S
C495 C496 1.361 1_556 S
C496 H456 0.930 . S
C496 C495 1.361 1_554 S
C496 C497 1.399 . S
C497 H457 0.929 . S
C497 C492 1.386 . S
C497 C496 1.399 . S
C498 C477 1.485 . S
C498 C499 1.394 . S
C498 C503 1.360 . S
C499 H458 0.931 . S
C499 C498 1.394 . S
C499 C500 1.372 . S
C500 H459 0.930 . S
C500 C499 1.372 . S
C500 C501 1.397 . S
C501 C500 1.397 . S
C501 C502 1.390 . S
C501 C517 1.476 . S
C502 H460 0.930 . S
C502 C501 1.390 . S
C502 C503 1.366 . S
C503 H461 0.932 . S
C503 C498 1.360 . S
C503 C502 1.366 . S
C504 C478 1.490 . S
C504 C505 1.380 . S
C504 C509 1.386 . S
C505 H462 0.930 . S
C505 C504 1.380 . S
C505 C506 1.381 . S
C506 H463 0.929 . S
C506 C505 1.381 . S
C506 C507 1.371 . S
C507 C506 1.371 . S
C507 C508 1.380 . S
C508 H464 0.931 . S
C508 C507 1.380 . S
C508 C509 1.387 . S
C509 H465 0.930 . S
C509 C504 1.386 . S
C509 C508 1.387 . S
C510 C479 1.519 . S
C510 C511 1.377 . S
C510 C515 1.361 . S
C511 H466 0.929 . S
C511 C510 1.377 . S
C511 C512 1.386 . S
C512 H467 0.931 . S
C512 C511 1.386 . S
C512 C513 1.363 . S
C513 C512 1.363 . S
C513 C514 1.385 . S
C514 H468 0.930 . S
C514 C513 1.385 . S
C514 C515 1.396 . S
C515 H469 0.929 . S
C515 C510 1.361 . S
C515 C514 1.396 . S
C516 O470 1.300 . S
C516 O471 1.209 . S
C516 C489 1.486 . S
C517 O472 1.199 . S
C517 O473 1.297 . S
C517 C501 1.476 . S
H518 O544 0.861 . S
H519 O547 0.854 . S
H520 C555 0.930 . S
H521 C556 0.930 . S
H522 C558 0.930 . S
H523 C559 0.930 . S
H524 C561 0.931 . S
H525 C562 0.930 . S
H526 C564 0.930 . S
H527 C565 0.929 . S
H528 C567 0.930 . S
H529 C568 0.931 . S
H530 C570 0.930 . S
H531 C571 0.929 . S
H532 C573 0.931 . S
H533 C574 0.930 . S
H534 C576 0.930 . S
H535 C577 0.932 . S
H536 C579 0.930 . S
H537 C580 0.929 . S
H538 C582 0.931 . S
H539 C583 0.930 . S
H540 C585 0.929 . S
H541 C586 0.931 . S
H542 C588 0.930 . S
H543 C589 0.929 1_455 S
O544 H518 0.861 . S
O544 C590 1.300 1_455 S
O545 C590 1.209 . S
O546 C591 1.199 . S
O547 H519 0.854 . S
O547 C591 1.297 . S
C548 C549 1.404 . S
C548 C553 1.397 . S
C548 C554 1.492 1_455 S
C549 C548 1.404 . S
C549 C550 1.396 . S
C549 C560 1.492 . S
C550 C549 1.396 . S
C550 C551 1.397 . S
C550 C566 1.509 . S
C551 C550 1.397 . S
C551 C552 1.412 . S
C551 C572 1.485 . S
C552 C551 1.412 . S
C552 C553 1.388 . S
C552 C578 1.490 . S
C553 C548 1.397 . S
C553 C552 1.388 . S
C553 C584 1.519 1_455 S
C554 C548 1.492 1_655 S
C554 C555 1.363 . S
C554 C559 1.390 . S
C555 H520 0.930 . S
C555 C554 1.363 . S
C555 C556 1.372 . S
C556 H521 0.930 . S
C556 C555 1.372 . S
C556 C557 1.383 . S
C557 C556 1.383 . S
C557 C558 1.395 . S
C558 H522 0.930 . S
C558 C557 1.395 . S
C558 C559 1.362 . S
C559 H523 0.930 . S
C559 C554 1.390 . S
C559 C558 1.362 . S
C560 C549 1.492 . S
C560 C561 1.377 . S
C560 C565 1.397 . S
C561 H524 0.931 . S
C561 C560 1.377 . S
C561 C562 1.376 . S
C562 H525 0.930 . S
C562 C561 1.376 . S
C562 C563 1.376 . S
C563 C562 1.376 . S
C563 C564 1.378 1_455 S
C563 C590 1.486 1_455 S
C564 H526 0.930 . S
C564 C563 1.378 1_655 S
C564 C565 1.376 1_655 S
C565 H527 0.929 . S
C565 C560 1.397 . S
C565 C564 1.376 1_455 S
C566 C550 1.509 . S
C566 C567 1.391 . S
C566 C571 1.386 . S
C567 H528 0.930 . S
C567 C566 1.391 . S
C567 C568 1.375 . S
C568 H529 0.931 . S
C568 C567 1.375 . S
C568 C569 1.375 . S
C569 C568 1.375 . S
C569 C570 1.361 . S
C570 H530 0.930 . S
C570 C569 1.361 . S
C570 C571 1.399 . S
C571 H531 0.929 . S
C571 C566 1.386 . S
C571 C570 1.399 . S
C572 C551 1.485 . S
C572 C573 1.394 . S
C572 C577 1.360 . S
C573 H532 0.931 . S
C573 C572 1.394 . S
C573 C574 1.372 . S
C574 H533 0.930 . S
C574 C573 1.372 . S
C574 C575 1.397 . S
C575 C574 1.397 . S
C575 C576 1.390 . S
C575 C591 1.476 . S
C576 H534 0.930 . S
C576 C575 1.390 . S
C576 C577 1.366 . S
C577 H535 0.932 . S
C577 C572 1.360 . S
C577 C576 1.366 . S
C578 C552 1.490 . S
C578 C579 1.380 . S
C578 C583 1.386 . S
C579 H536 0.930 . S
C579 C578 1.380 . S
C579 C580 1.381 . S
C580 H537 0.929 . S
C580 C579 1.381 . S
C580 C581 1.371 . S
C581 C580 1.371 . S
C581 C582 1.380 . S
C582 H538 0.931 . S
C582 C581 1.380 . S
C582 C583 1.387 . S
C583 H539 0.930 . S
C583 C578 1.386 . S
C583 C582 1.387 . S
C584 C553 1.519 1_655 S
C584 C585 1.377 . S
C584 C589 1.361 . S
C585 H540 0.929 . S
C585 C584 1.377 . S
C585 C586 1.386 . S
C586 H541 0.931 . S
C586 C585 1.386 . S
C586 C587 1.363 . S
C587 C586 1.363 . S
C587 C588 1.385 . S
C588 H542 0.930 . S
C588 C587 1.385 . S
C588 C589 1.396 . S
C589 H543 0.929 1_655 S
C589 C584 1.361 . S
C589 C588 1.396 . S
C590 O544 1.300 1_655 S
C590 O545 1.209 . S
C590 C563 1.486 1_655 S
C591 O546 1.199 . S
C591 O547 1.297 . S
C591 C575 1.476 . S
Fe592 O593 1.886 . S
Fe592 O596 1.715 1_455 S
Fe592 O601 2.077 . S
Fe592 O606 1.935 1_455 S
Fe592 O612 2.077 . S
Fe592 O621 1.935 1_455 S
O593 Fe592 1.886 . S
O593 Fe595 1.715 . S
Fe594 O596 1.886 . S
Fe594 O597 1.715 . S
Fe594 O604 1.935 . S
Fe594 O605 2.077 . S
Fe594 O611 1.935 . S
Fe594 O620 2.077 . S
Fe595 O593 1.715 . S
Fe595 O598 1.886 . S
Fe595 O602 1.935 . S
Fe595 O607 2.077 . S
Fe595 O613 1.935 . S
Fe595 O617 2.077 . S
O596 Fe592 1.715 1_655 S
O596 Fe594 1.886 . S
O597 Fe594 1.715 . S
O597 Fe599 1.886 1_655 S
O598 Fe595 1.886 . S
O598 Fe599 1.715 . S
Fe599 O597 1.886 1_455 S
Fe599 O598 1.715 . S
Fe599 O603 2.077 1_455 S
Fe599 O608 1.935 . S
Fe599 O610 2.077 1_455 S
Fe599 O618 1.935 . S
C600 O612 1.381 . S
C600 O613 1.421 . S
O601 Fe592 2.077 . S
O601 C614 1.381 . S
O602 Fe595 1.935 . S
O602 C614 1.421 . S
O603 Fe599 2.077 1_655 S
O603 C619 1.381 . S
O604 Fe594 1.935 . S
O604 C619 1.421 . S
O605 Fe594 2.077 . S
O605 C609 1.381 . S
O606 Fe592 1.935 1_655 S
O606 C609 1.421 . S
O607 Fe595 2.077 . S
O607 C615 1.381 . S
O608 Fe599 1.935 . S
O608 C615 1.421 . S
C609 O605 1.381 . S
C609 O606 1.421 . S
O610 Fe599 2.077 1_655 S
O610 C622 1.381 . S
O611 Fe594 1.935 . S
O611 C622 1.421 . S
O612 Fe592 2.077 . S
O612 C600 1.381 . S
O613 Fe595 1.935 . S
O613 C600 1.421 . S
C614 O601 1.381 . S
C614 O602 1.421 . S
C615 O607 1.381 . S
C615 O608 1.421 . S
C616 O617 1.381 . S
C616 O618 1.421 . S
O617 Fe595 2.077 . S
O617 C616 1.381 . S
O618 Fe599 1.935 . S
O618 C616 1.421 . S
C619 O603 1.381 . S
C619 O604 1.421 . S
O620 Fe594 2.077 . S
O620 C623 1.381 . S
O621 Fe592 1.935 1_655 S
O621 C623 1.421 . S
C622 O610 1.381 . S
C622 O611 1.421 . S
C623 O620 1.381 . S
C623 O621 1.421 . S
Fe624 O625 1.886 . S
Fe624 O628 1.715 . S
Fe624 O633 2.077 . S
Fe624 O638 1.935 . S
Fe624 O644 2.077 . S
Fe624 O653 1.935 . S
O625 Fe624 1.886 . S
O625 Fe627 1.715 . S
Fe626 O628 1.886 . S
Fe626 O629 1.715 . S
Fe626 O636 1.935 . S
Fe626 O637 2.077 . S
Fe626 O643 1.935 . S
Fe626 O652 2.077 . S
Fe627 O625 1.715 . S
Fe627 O630 1.886 . S
Fe627 O634 1.935 . S
Fe627 O639 2.077 . S
Fe627 O645 1.935 . S
Fe627 O649 2.077 . S
O628 Fe624 1.715 . S
O628 Fe626 1.886 . S
O629 Fe626 1.715 . S
O629 Fe631 1.886 . S
O630 Fe627 1.886 . S
O630 Fe631 1.715 . S
Fe631 O629 1.886 . S
Fe631 O630 1.715 . S
Fe631 O635 2.077 . S
Fe631 O640 1.935 . S
Fe631 O642 2.077 . S
Fe631 O650 1.935 . S
C632 O644 1.381 . S
C632 O645 1.421 . S
O633 Fe624 2.077 . S
O633 C646 1.381 . S
O634 Fe627 1.935 . S
O634 C646 1.421 . S
O635 Fe631 2.077 . S
O635 C651 1.381 . S
O636 Fe626 1.935 . S
O636 C651 1.421 . S
O637 Fe626 2.077 . S
O637 C641 1.381 . S
O638 Fe624 1.935 . S
O638 C641 1.421 . S
O639 Fe627 2.077 . S
O639 C647 1.381 . S
O640 Fe631 1.935 . S
O640 C647 1.421 . S
C641 O637 1.381 . S
C641 O638 1.421 . S
O642 Fe631 2.077 . S
O642 C654 1.381 . S
O643 Fe626 1.935 . S
O643 C654 1.421 . S
O644 Fe624 2.077 . S
O644 C632 1.381 . S
O645 Fe627 1.935 . S
O645 C632 1.421 . S
C646 O633 1.381 . S
C646 O634 1.421 . S
C647 O639 1.381 . S
C647 O640 1.421 . S
C648 O649 1.381 . S
C648 O650 1.421 . S
O649 Fe627 2.077 . S
O649 C648 1.381 . S
O650 Fe631 1.935 . S
O650 C648 1.421 . S
C651 O635 1.381 . S
C651 O636 1.421 . S
O652 Fe626 2.077 . S
O652 C655 1.381 . S
O653 Fe624 1.935 . S
O653 C655 1.421 . S
C654 O642 1.381 . S
C654 O643 1.421 . S
C655 O652 1.381 . S
C655 O653 1.421 . S
Fe656 O657 1.886 . S
Fe656 O660 1.715 . S
Fe656 O665 2.077 . S
Fe656 O670 1.935 . S
Fe656 O676 2.077 . S
Fe656 O685 1.935 . S
O657 Fe656 1.886 . S
O657 Fe659 1.715 . S
Fe658 O660 1.886 . S
Fe658 O661 1.715 . S
Fe658 O668 1.935 . S
Fe658 O669 2.077 . S
Fe658 O675 1.935 . S
Fe658 O684 2.077 . S
Fe659 O657 1.715 . S
Fe659 O662 1.886 . S
Fe659 O666 1.935 . S
Fe659 O671 2.077 . S
Fe659 O677 1.935 . S
Fe659 O681 2.077 . S
O660 Fe656 1.715 . S
O660 Fe658 1.886 . S
O661 Fe658 1.715 . S
O661 Fe663 1.886 . S
O662 Fe659 1.886 . S
O662 Fe663 1.715 . S
Fe663 O661 1.886 . S
Fe663 O662 1.715 . S
Fe663 O667 2.077 . S
Fe663 O672 1.935 . S
Fe663 O674 2.077 . S
Fe663 O682 1.935 . S
C664 O676 1.381 . S
C664 O677 1.421 . S
O665 Fe656 2.077 . S
O665 C678 1.381 . S
O666 Fe659 1.935 . S
O666 C678 1.421 . S
O667 Fe663 2.077 . S
O667 C683 1.381 . S
O668 Fe658 1.935 . S
O668 C683 1.421 . S
O669 Fe658 2.077 . S
O669 C673 1.381 . S
O670 Fe656 1.935 . S
O670 C673 1.421 . S
O671 Fe659 2.077 . S
O671 C679 1.381 . S
O672 Fe663 1.935 . S
O672 C679 1.421 . S
C673 O669 1.381 . S
C673 O670 1.421 . S
O674 Fe663 2.077 . S
O674 C686 1.381 . S
O675 Fe658 1.935 . S
O675 C686 1.421 . S
O676 Fe656 2.077 . S
O676 C664 1.381 . S
O677 Fe659 1.935 . S
O677 C664 1.421 . S
C678 O665 1.381 . S
C678 O666 1.421 . S
C679 O671 1.381 . S
C679 O672 1.421 . S
C680 O681 1.381 . S
C680 O682 1.421 . S
O681 Fe659 2.077 . S
O681 C680 1.381 . S
O682 Fe663 1.935 . S
O682 C680 1.421 . S
C683 O667 1.381 . S
C683 O668 1.421 . S
O684 Fe658 2.077 . S
O684 C687 1.381 . S
O685 Fe656 1.935 . S
O685 C687 1.421 . S
C686 O674 1.381 . S
C686 O675 1.421 . S
C687 O684 1.381 . S
C687 O685 1.421 . S
Fe688 O689 1.886 . S
Fe688 O692 1.715 . S
Fe688 O697 2.077 1_455 S
Fe688 O702 1.935 1_455 S
Fe688 O708 2.077 . S
Fe688 O717 1.935 . S
O689 Fe688 1.886 . S
O689 Fe691 1.715 . S
Fe690 O692 1.886 . S
Fe690 O693 1.715 . S
Fe690 O700 1.935 1_455 S
Fe690 O701 2.077 1_455 S
Fe690 O707 1.935 . S
Fe690 O716 2.077 . S
Fe691 O689 1.715 . S
Fe691 O694 1.886 . S
Fe691 O698 1.935 1_455 S
Fe691 O703 2.077 1_455 S
Fe691 O709 1.935 . S
Fe691 O713 2.077 . S
O692 Fe688 1.715 . S
O692 Fe690 1.886 . S
O693 Fe690 1.715 . S
O693 Fe695 1.886 . S
O694 Fe691 1.886 . S
O694 Fe695 1.715 . S
Fe695 O693 1.886 . S
Fe695 O694 1.715 . S
Fe695 O699 2.077 1_455 S
Fe695 O704 1.935 1_455 S
Fe695 O706 2.077 . S
Fe695 O714 1.935 . S
C696 O708 1.381 . S
C696 O709 1.421 . S
O697 Fe688 2.077 1_655 S
O697 C710 1.381 . S
O698 Fe691 1.935 1_655 S
O698 C710 1.421 . S
O699 Fe695 2.077 1_655 S
O699 C715 1.381 . S
O700 Fe690 1.935 1_655 S
O700 C715 1.421 . S
O701 Fe690 2.077 1_655 S
O701 C705 1.381 . S
O702 Fe688 1.935 1_655 S
O702 C705 1.421 . S
O703 Fe691 2.077 1_655 S
O703 C711 1.381 . S
O704 Fe695 1.935 1_655 S
O704 C711 1.421 . S
C705 O701 1.381 . S
C705 O702 1.421 . S
O706 Fe695 2.077 . S
O706 C718 1.381 . S
O707 Fe690 1.935 . S
O707 C718 1.421 . S
O708 Fe688 2.077 . S
O708 C696 1.381 . S
O709 Fe691 1.935 . S
O709 C696 1.421 . S
C710 O697 1.381 . S
C710 O698 1.421 . S
C711 O703 1.381 . S
C711 O704 1.421 . S
C712 O713 1.381 . S
C712 O714 1.421 . S
O713 Fe691 2.077 . S
O713 C712 1.381 . S
O714 Fe695 1.935 . S
O714 C712 1.421 . S
C715 O699 1.381 . S
C715 O700 1.421 . S
O716 Fe690 2.077 . S
O716 C719 1.381 . S
O717 Fe688 1.935 . S
O717 C719 1.421 . S
C718 O706 1.381 . S
C718 O707 1.421 . S
C719 O716 1.381 . S
C719 O717 1.421 . S
C720 C721 1.391 . S
C720 C722 1.394 . S
C720 H736 0.931 . S
C721 C720 1.391 . S
C721 C725 1.376 . S
C722 C720 1.394 . S
C722 C723 1.369 . S
C722 C726 1.531 . S
C723 C722 1.369 . S
C723 C724 1.410 . S
C723 C731 1.503 . S
C724 C723 1.410 . S
C724 C725 1.392 . S
C724 C727 1.511 . S
C725 C721 1.376 . S
C725 C724 1.392 . S
C725 H737 0.929 . S
C726 C722 1.531 . S
C726 H738 0.960 . S
C726 H739 0.962 . S
C726 H740 0.960 . S
C727 C724 1.511 . S
C727 H741 0.961 . S
C727 H742 0.961 . S
C727 H743 0.961 1_565 S
C728 C729 1.370 . S
C728 C730 1.363 . S
C728 H744 0.931 . S
C729 C728 1.370 . S
C729 C733 1.408 . S
C730 C728 1.363 . S
C730 C731 1.370 . S
C730 C734 1.524 . S
C731 C723 1.503 . S
C731 C730 1.370 . S
C731 C732 1.403 . S
C732 C731 1.403 . S
C732 C733 1.404 . S
C732 C735 1.539 . S
C733 C729 1.408 . S
C733 C732 1.404 . S
C733 H745 0.930 . S
C734 C730 1.524 . S
C734 H746 0.956 . S
C734 H747 0.961 . S
C734 H748 0.961 . S
C735 C732 1.539 . S
C735 H749 0.958 . S
C735 H750 0.961 . S
C735 H751 0.960 . S
H736 C720 0.931 . S
H737 C725 0.929 . S
H738 C726 0.960 . S
H739 C726 0.962 . S
H740 C726 0.960 . S
H741 C727 0.961 . S
H742 C727 0.961 . S
H743 C727 0.961 1_545 S
H744 C728 0.931 . S
H745 C733 0.930 . S
H746 C734 0.956 . S
H747 C734 0.961 . S
H748 C734 0.961 . S
H749 C735 0.958 . S
H750 C735 0.961 . S
H751 C735 0.960 . S
C752 C753 1.391 1_545 S
C752 C754 1.394 . S
C752 H768 0.931 . S
C753 C752 1.391 1_565 S
C753 C757 1.376 . S
C754 C752 1.394 . S
C754 C755 1.369 . S
C754 C758 1.531 . S
C755 C754 1.369 . S
C755 C756 1.410 . S
C755 C763 1.503 . S
C756 C755 1.410 . S
C756 C757 1.392 1_545 S
C756 C759 1.511 . S
C757 C753 1.376 . S
C757 C756 1.392 1_565 S
C757 H769 0.929 . S
C758 C754 1.531 . S
C758 H770 0.960 . S
C758 H771 0.962 . S
C758 H772 0.960 . S
C759 C756 1.511 . S
C759 H773 0.961 1_545 S
C759 H774 0.961 . S
C759 H775 0.961 . S
C760 C761 1.370 . S
C760 C762 1.363 . S
C760 H776 0.931 . S
C761 C760 1.370 . S
C761 C765 1.408 . S
C762 C760 1.363 . S
C762 C763 1.370 . S
C762 C766 1.524 . S
C763 C755 1.503 . S
C763 C762 1.370 . S
C763 C764 1.403 . S
C764 C763 1.403 . S
C764 C765 1.404 . S
C764 C767 1.539 . S
C765 C761 1.408 . S
C765 C764 1.404 . S
C765 H777 0.930 . S
C766 C762 1.524 . S
C766 H778 0.956 . S
C766 H779 0.961 . S
C766 H780 0.961 . S
C767 C764 1.539 . S
C767 H781 0.958 . S
C767 H782 0.961 . S
C767 H783 0.960 . S
H768 C752 0.931 . S
H769 C757 0.929 . S
H770 C758 0.960 . S
H771 C758 0.962 . S
H772 C758 0.960 . S
H773 C759 0.961 1_565 S
H774 C759 0.961 . S
H775 C759 0.961 . S
H776 C760 0.931 . S
H777 C765 0.930 . S
H778 C766 0.956 . S
H779 C766 0.961 . S
H780 C766 0.961 . S
H781 C767 0.958 . S
H782 C767 0.961 . S
H783 C767 0.960 . S
C784 C785 1.391 . S
C784 C786 1.394 1_554 S
C784 H800 0.931 . S
C785 C784 1.391 . S
C785 C789 1.376 1_554 S
C786 C784 1.394 1_556 S
C786 C787 1.369 . S
C786 C790 1.531 1_556 S
C787 C786 1.369 . S
C787 C788 1.410 . S
C787 C795 1.503 . S
C788 C787 1.410 . S
C788 C789 1.392 . S
C788 C791 1.511 . S
C789 C785 1.376 1_556 S
C789 C788 1.392 . S
C789 H801 0.929 . S
C790 C786 1.531 1_554 S
C790 H802 0.960 1_554 S
C790 H803 0.962 . S
C790 H804 0.960 . S
C791 C788 1.511 . S
C791 H805 0.961 . S
C791 H806 0.961 . S
C791 H807 0.961 . S
C792 C793 1.370 . S
C792 C794 1.363 . S
C792 H808 0.931 . S
C793 C792 1.370 . S
C793 C797 1.408 . S
C794 C792 1.363 . S
C794 C795 1.370 . S
C794 C798 1.524 . S
C795 C787 1.503 . S
C795 C794 1.370 . S
C795 C796 1.403 . S
C796 C795 1.403 . S
C796 C797 1.404 . S
C796 C799 1.539 . S
C797 C793 1.408 . S
C797 C796 1.404 . S
C797 H809 0.930 . S
C798 C794 1.524 . S
C798 H810 0.956 . S
C798 H811 0.961 . S
C798 H812 0.961 . S
C799 C796 1.539 . S
C799 H813 0.958 . S
C799 H814 0.961 . S
C799 H815 0.960 . S
H800 C784 0.931 . S
H801 C789 0.929 . S
H802 C790 0.960 1_556 S
H803 C790 0.962 . S
H804 C790 0.960 . S
H805 C791 0.961 . S
H806 C791 0.961 . S
H807 C791 0.961 . S
H808 C792 0.931 . S
H809 C797 0.930 . S
H810 C798 0.956 . S
H811 C798 0.961 . S
H812 C798 0.961 . S
H813 C799 0.958 . S
H814 C799 0.961 . S
H815 C799 0.960 . S
C816 C817 1.391 . S
C816 C818 1.394 1_545 S
C816 H832 0.931 . S
C817 C816 1.391 . S
C817 C821 1.376 . S
C818 C816 1.394 1_565 S
C818 C819 1.369 . S
C818 C822 1.531 . S
C819 C818 1.369 . S
C819 C820 1.410 1_565 S
C819 C827 1.503 . S
C820 C819 1.410 1_545 S
C820 C821 1.392 . S
C820 C823 1.511 1_545 S
C821 C817 1.376 . S
C821 C820 1.392 . S
C821 H833 0.929 . S
C822 C818 1.531 . S
C822 H834 0.960 . S
C822 H835 0.962 . S
C822 H836 0.960 . S
C823 C820 1.511 1_565 S
C823 H837 0.961 1_565 S
C823 H838 0.961 . S
C823 H839 0.961 . S
C824 C825 1.370 . S
C824 C826 1.363 . S
C824 H840 0.931 . S
C825 C824 1.370 . S
C825 C829 1.408 . S
C826 C824 1.363 . S
C826 C827 1.370 . S
C826 C830 1.524 1_565 S
C827 C819 1.503 . S
C827 C826 1.370 . S
C827 C828 1.403 . S
C828 C827 1.403 . S
C828 C829 1.404 . S
C828 C831 1.539 . S
C829 C825 1.408 . S
C829 C828 1.404 . S
C829 H841 0.930 . S
C830 C826 1.524 1_545 S
C830 H842 0.956 . S
C830 H843 0.961 . S
C830 H844 0.961 . S
C831 C828 1.539 . S
C831 H845 0.958 . S
C831 H846 0.961 . S
C831 H847 0.960 . S
H832 C816 0.931 . S
H833 C821 0.929 . S
H834 C822 0.960 . S
H835 C822 0.962 . S
H836 C822 0.960 . S
H837 C823 0.961 1_545 S
H838 C823 0.961 . S
H839 C823 0.961 . S
H840 C824 0.931 . S
H841 C829 0.930 . S
H842 C830 0.956 . S
H843 C830 0.961 . S
H844 C830 0.961 . S
H845 C831 0.958 . S
H846 C831 0.961 . S
H847 C831 0.960 . S
C848 C849 1.391 . S
C848 C850 1.394 . S
C848 H864 0.931 . S
C849 C848 1.391 . S
C849 C853 1.376 . S
C850 C848 1.394 . S
C850 C851 1.369 . S
C850 C854 1.531 . S
C851 C850 1.369 . S
C851 C852 1.410 . S
C851 C859 1.503 . S
C852 C851 1.410 . S
C852 C853 1.392 . S
C852 C855 1.511 . S
C853 C849 1.376 . S
C853 C852 1.392 . S
C853 H865 0.929 . S
C854 C850 1.531 . S
C854 H866 0.960 . S
C854 H867 0.962 . S
C854 H868 0.960 . S
C855 C852 1.511 . S
C855 H869 0.961 . S
C855 H870 0.961 . S
C855 H871 0.961 . S
C856 C857 1.370 . S
C856 C858 1.363 . S
C856 H872 0.931 . S
C857 C856 1.370 . S
C857 C861 1.408 . S
C858 C856 1.363 . S
C858 C859 1.370 . S
C858 C862 1.524 . S
C859 C851 1.503 . S
C859 C858 1.370 . S
C859 C860 1.403 . S
C860 C859 1.403 . S
C860 C861 1.404 . S
C860 C863 1.539 . S
C861 C857 1.408 . S
C861 C860 1.404 . S
C861 H873 0.930 . S
C862 C858 1.524 . S
C862 H874 0.956 . S
C862 H875 0.961 . S
C862 H876 0.961 . S
C863 C860 1.539 . S
C863 H877 0.958 . S
C863 H878 0.961 . S
C863 H879 0.960 . S
H864 C848 0.931 . S
H865 C853 0.929 . S
H866 C854 0.960 . S
H867 C854 0.962 . S
H868 C854 0.960 . S
H869 C855 0.961 . S
H870 C855 0.961 . S
H871 C855 0.961 . S
H872 C856 0.931 . S
H873 C861 0.930 . S
H874 C862 0.956 . S
H875 C862 0.961 . S
H876 C862 0.961 . S
H877 C863 0.958 . S
H878 C863 0.961 . S
H879 C863 0.960 . S
C880 C881 1.391 . S
C880 C882 1.394 . S
C880 H896 0.931 . S
C881 C880 1.391 . S
C881 C885 1.376 . S
C882 C880 1.394 . S
C882 C883 1.369 . S
C882 C886 1.531 1_565 S
C883 C882 1.369 . S
C883 C884 1.410 . S
C883 C891 1.503 1_565 S
C884 C883 1.410 . S
C884 C885 1.392 . S
C884 C887 1.511 . S
C885 C881 1.376 . S
C885 C884 1.392 . S
C885 H897 0.929 . S
C886 C882 1.531 1_545 S
C886 H898 0.960 . S
C886 H899 0.962 . S
C886 H900 0.960 1_545 S
C887 C884 1.511 . S
C887 H901 0.961 . S
C887 H902 0.961 1_565 S
C887 H903 0.961 . S
C888 C889 1.370 . S
C888 C890 1.363 . S
C888 H904 0.931 . S
C889 C888 1.370 . S
C889 C893 1.408 . S
C890 C888 1.363 . S
C890 C891 1.370 . S
C890 C894 1.524 . S
C891 C883 1.503 1_545 S
C891 C890 1.370 . S
C891 C892 1.403 . S
C892 C891 1.403 . S
C892 C893 1.404 . S
C892 C895 1.539 . S
C893 C889 1.408 . S
C893 C892 1.404 . S
C893 H905 0.930 . S
C894 C890 1.524 . S
C894 H906 0.956 . S
C894 H907 0.961 . S
C894 H908 0.961 . S
C895 C892 1.539 . S
C895 H909 0.958 . S
C895 H910 0.961 . S
C895 H911 0.960 1_545 S
H896 C880 0.931 . S
H897 C885 0.929 . S
H898 C886 0.960 . S
H899 C886 0.962 . S
H900 C886 0.960 1_565 S
H901 C887 0.961 . S
H902 C887 0.961 1_545 S
H903 C887 0.961 . S
H904 C888 0.931 . S
H905 C893 0.930 . S
H906 C894 0.956 . S
H907 C894 0.961 . S
H908 C894 0.961 . S
H909 C895 0.958 . S
H910 C895 0.961 . S
H911 C895 0.960 1_565 S
C912 C913 1.391 . S
C912 C914 1.394 . S
C912 H928 0.931 . S
C913 C912 1.391 . S
C913 C917 1.376 . S
C914 C912 1.394 . S
C914 C915 1.369 . S
C914 C918 1.531 . S
C915 C914 1.369 . S
C915 C916 1.410 . S
C915 C923 1.503 . S
C916 C915 1.410 . S
C916 C917 1.392 . S
C916 C919 1.511 . S
C917 C913 1.376 . S
C917 C916 1.392 . S
C917 H929 0.929 . S
C918 C914 1.531 . S
C918 H930 0.960 . S
C918 H931 0.962 . S
C918 H932 0.960 . S
C919 C916 1.511 . S
C919 H933 0.961 . S
C919 H934 0.961 . S
C919 H935 0.961 . S
C920 C921 1.370 . S
C920 C922 1.363 . S
C920 H936 0.931 . S
C921 C920 1.370 . S
C921 C925 1.408 . S
C922 C920 1.363 . S
C922 C923 1.370 . S
C922 C926 1.524 1_565 S
C923 C915 1.503 . S
C923 C922 1.370 . S
C923 C924 1.403 . S
C924 C923 1.403 . S
C924 C925 1.404 . S
C924 C927 1.539 . S
C925 C921 1.408 . S
C925 C924 1.404 . S
C925 H937 0.930 . S
C926 C922 1.524 1_545 S
C926 H938 0.956 . S
C926 H939 0.961 . S
C926 H940 0.961 . S
C927 C924 1.539 . S
C927 H941 0.958 . S
C927 H942 0.961 . S
C927 H943 0.960 . S
H928 C912 0.931 . S
H929 C917 0.929 . S
H930 C918 0.960 . S
H931 C918 0.962 . S
H932 C918 0.960 . S
H933 C919 0.961 . S
H934 C919 0.961 . S
H935 C919 0.961 . S
H936 C920 0.931 . S
H937 C925 0.930 . S
H938 C926 0.956 . S
H939 C926 0.961 . S
H940 C926 0.961 . S
H941 C927 0.958 . S
H942 C927 0.961 . S
H943 C927 0.960 . S
C944 C945 1.391 . S
C944 C946 1.394 . S
C944 H960 0.931 . S
C945 C944 1.391 . S
C945 C949 1.376 . S
C946 C944 1.394 . S
C946 C947 1.369 . S
C946 C950 1.531 1_545 S
C947 C946 1.369 . S
C947 C948 1.410 . S
C947 C955 1.503 1_545 S
C948 C947 1.410 . S
C948 C949 1.392 . S
C948 C951 1.511 . S
C949 C945 1.376 . S
C949 C948 1.392 . S
C949 H961 0.929 . S
C950 C946 1.531 1_565 S
C950 H962 0.960 . S
C950 H963 0.962 . S
C950 H964 0.960 . S
C951 C948 1.511 . S
C951 H965 0.961 . S
C951 H966 0.961 . S
C951 H967 0.961 . S
C952 C953 1.370 . S
C952 C954 1.363 . S
C952 H968 0.931 . S
C953 C952 1.370 . S
C953 C957 1.408 . S
C954 C952 1.363 . S
C954 C955 1.370 . S
C954 C958 1.524 1_565 S
C955 C947 1.503 1_565 S
C955 C954 1.370 . S
C955 C956 1.403 . S
C956 C955 1.403 . S
C956 C957 1.404 . S
C956 C959 1.539 . S
C957 C953 1.408 . S
C957 C956 1.404 . S
C957 H969 0.930 . S
C958 C954 1.524 1_545 S
C958 H970 0.956 . S
C958 H971 0.961 . S
C958 H972 0.961 . S
C959 C956 1.539 . S
C959 H973 0.958 . S
C959 H974 0.961 . S
C959 H975 0.960 . S
H960 C944 0.931 . S
H961 C949 0.929 . S
H962 C950 0.960 . S
H963 C950 0.962 . S
H964 C950 0.960 . S
H965 C951 0.961 . S
H966 C951 0.961 . S
H967 C951 0.961 . S
H968 C952 0.931 . S
H969 C957 0.930 . S
H970 C958 0.956 . S
H971 C958 0.961 . S
H972 C958 0.961 . S
H973 C959 0.958 . S
H974 C959 0.961 . S
H975 C959 0.960 . S
C976 C977 1.391 . S
C976 C978 1.394 . S
C976 H992 0.931 . S
C977 C976 1.391 . S
C977 C981 1.376 . S
C978 C976 1.394 . S
C978 C979 1.369 . S
C978 C982 1.531 . S
C979 C978 1.369 . S
C979 C980 1.410 . S
C979 C987 1.503 . S
C980 C979 1.410 . S
C980 C981 1.392 . S
C980 C983 1.511 . S
C981 C977 1.376 . S
C981 C980 1.392 . S
C981 H993 0.929 . S
C982 C978 1.531 . S
C982 H994 0.960 . S
C982 H995 0.962 . S
C982 H996 0.960 . S
C983 C980 1.511 . S
C983 H997 0.961 . S
C983 H998 0.961 . S
C983 H999 0.961 . S
C984 C985 1.370 . S
C984 C986 1.363 . S
C984 H1000 0.931 . S
C985 C984 1.370 . S
C985 C989 1.408 . S
C986 C984 1.363 . S
C986 C987 1.370 . S
C986 C990 1.524 . S
C987 C979 1.503 . S
C987 C986 1.370 . S
C987 C988 1.403 . S
C988 C987 1.403 . S
C988 C989 1.404 . S
C988 C991 1.539 . S
C989 C985 1.408 . S
C989 C988 1.404 . S
C989 H1001 0.930 . S
C990 C986 1.524 . S
C990 H1002 0.956 . S
C990 H1003 0.961 . S
C990 H1004 0.961 . S
C991 C988 1.539 . S
C991 H1005 0.958 . S
C991 H1006 0.961 . S
C991 H1007 0.960 . S
H992 C976 0.931 . S
H993 C981 0.929 . S
H994 C982 0.960 . S
H995 C982 0.962 . S
H996 C982 0.960 . S
H997 C983 0.961 . S
H998 C983 0.961 . S
H999 C983 0.961 . S
H1000 C984 0.931 . S
H1001 C989 0.930 . S
H1002 C990 0.956 . S
H1003 C990 0.961 . S
H1004 C990 0.961 . S
H1005 C991 0.958 . S
H1006 C991 0.961 . S
H1007 C991 0.960 . S
C1008 C1009 1.391 . S
C1008 C1010 1.394 . S
C1008 H1024 0.931 . S
C1009 C1008 1.391 . S
C1009 C1013 1.376 . S
C1010 C1008 1.394 . S
C1010 C1011 1.369 . S
C1010 C1014 1.531 . S
C1011 C1010 1.369 . S
C1011 C1012 1.410 . S
C1011 C1019 1.503 1_545 S
C1012 C1011 1.410 . S
C1012 C1013 1.392 . S
C1012 C1015 1.511 . S
C1013 C1009 1.376 . S
C1013 C1012 1.392 . S
C1013 H1025 0.929 . S
C1014 C1010 1.531 . S
C1014 H1026 0.960 1_545 S
C1014 H1027 0.962 1_545 S
C1014 H1028 0.960 . S
C1015 C1012 1.511 . S
C1015 H1029 0.961 . S
C1015 H1030 0.961 1_545 S
C1015 H1031 0.961 . S
C1016 C1017 1.370 . S
C1016 C1018 1.363 . S
C1016 H1032 0.931 . S
C1017 C1016 1.370 . S
C1017 C1021 1.408 . S
C1018 C1016 1.363 . S
C1018 C1019 1.370 . S
C1018 C1022 1.524 . S
C1019 C1011 1.503 1_565 S
C1019 C1018 1.370 . S
C1019 C1020 1.403 . S
C1020 C1019 1.403 . S
C1020 C1021 1.404 . S
C1020 C1023 1.539 1_565 S
C1021 C1017 1.408 . S
C1021 C1020 1.404 . S
C1021 H1033 0.930 . S
C1022 C1018 1.524 . S
C1022 H1034 0.956 . S
C1022 H1035 0.961 . S
C1022 H1036 0.961 . S
C1023 C1020 1.539 1_545 S
C1023 H1037 0.958 . S
C1023 H1038 0.961 . S
C1023 H1039 0.960 . S
H1024 C1008 0.931 . S
H1025 C1013 0.929 . S
H1026 C1014 0.960 1_565 S
H1027 C1014 0.962 1_565 S
H1028 C1014 0.960 . S
H1029 C1015 0.961 . S
H1030 C1015 0.961 1_565 S
H1031 C1015 0.961 . S
H1032 C1016 0.931 . S
H1033 C1021 0.930 . S
H1034 C1022 0.956 . S
H1035 C1022 0.961 . S
H1036 C1022 0.961 . S
H1037 C1023 0.958 . S
H1038 C1023 0.961 . S
H1039 C1023 0.960 . S
C1040 C1041 1.391 . S
C1040 C1042 1.394 . S
C1040 H1056 0.931 . S
C1041 C1040 1.391 . S
C1041 C1045 1.376 . S
C1042 C1040 1.394 . S
C1042 C1043 1.369 . S
C1042 C1046 1.531 . S
C1043 C1042 1.369 . S
C1043 C1044 1.410 . S
C1043 C1051 1.503 . S
C1044 C1043 1.410 . S
C1044 C1045 1.392 . S
C1044 C1047 1.511 . S
C1045 C1041 1.376 . S
C1045 C1044 1.392 . S
C1045 H1057 0.929 . S
C1046 C1042 1.531 . S
C1046 H1058 0.960 . S
C1046 H1059 0.962 . S
C1046 H1060 0.960 1_565 S
C1047 C1044 1.511 . S
C1047 H1061 0.961 . S
C1047 H1062 0.961 . S
C1047 H1063 0.961 . S
C1048 C1049 1.370 . S
C1048 C1050 1.363 . S
C1048 H1064 0.931 . S
C1049 C1048 1.370 . S
C1049 C1053 1.408 . S
C1050 C1048 1.363 . S
C1050 C1051 1.370 . S
C1050 C1054 1.524 . S
C1051 C1043 1.503 . S
C1051 C1050 1.370 . S
C1051 C1052 1.403 . S
C1052 C1051 1.403 . S
C1052 C1053 1.404 . S
C1052 C1055 1.539 1_565 S
C1053 C1049 1.408 . S
C1053 C1052 1.404 . S
C1053 H1065 0.930 . S
C1054 C1050 1.524 . S
C1054 H1066 0.956 . S
C1054 H1067 0.961 . S
C1054 H1068 0.961 . S
C1055 C1052 1.539 1_545 S
C1055 H1069 0.958 . S
C1055 H1070 0.961 . S
C1055 H1071 0.960 . S
H1056 C1040 0.931 . S
H1057 C1045 0.929 . S
H1058 C1046 0.960 . S
H1059 C1046 0.962 . S
H1060 C1046 0.960 1_545 S
H1061 C1047 0.961 . S
H1062 C1047 0.961 . S
H1063 C1047 0.961 . S
H1064 C1048 0.931 . S
H1065 C1053 0.930 . S
H1066 C1054 0.956 . S
H1067 C1054 0.961 . S
H1068 C1054 0.961 . S
H1069 C1055 0.958 . S
H1070 C1055 0.961 . S
H1071 C1055 0.960 . S
C1072 C1073 1.391 . S
C1072 C1074 1.394 1_565 S
C1072 H1088 0.931 . S
C1073 C1072 1.391 . S
C1073 C1077 1.376 . S
C1074 C1072 1.394 1_545 S
C1074 C1075 1.369 . S
C1074 C1078 1.531 . S
C1075 C1074 1.369 . S
C1075 C1076 1.416 . S
C1075 C1083 1.503 . S
C1076 C1075 1.416 . S
C1076 C1077 1.384 1_545 S
C1076 C1079 1.512 . S
C1077 C1073 1.376 . S
C1077 C1076 1.384 1_565 S
C1077 H1089 0.929 . S
C1078 C1074 1.531 . S
C1078 H1090 0.960 . S
C1078 H1091 0.962 . S
C1078 H1092 0.960 . S
C1079 C1076 1.512 . S
C1079 H1093 0.961 1_545 S
C1079 H1094 0.961 . S
C1079 H1095 0.961 . S
C1080 C1081 1.370 . S
C1080 C1082 1.363 . S
C1080 H1096 0.931 . S
C1081 C1080 1.370 . S
C1081 C1085 1.408 . S
C1082 C1080 1.363 . S
C1082 C1083 1.370 . S
C1082 C1086 1.524 . S
C1083 C1075 1.503 . S
C1083 C1082 1.370 . S
C1083 C1084 1.403 . S
C1084 C1083 1.403 . S
C1084 C1085 1.404 . S
C1084 C1087 1.539 . S
C1085 C1081 1.408 . S
C1085 C1084 1.404 . S
C1085 H1097 0.930 . S
C1086 C1082 1.524 . S
C1086 H1098 0.956 . S
C1086 H1099 0.961 1_545 S
C1086 H1100 0.961 . S
C1087 C1084 1.539 . S
C1087 H1101 0.958 . S
C1087 H1102 0.961 . S
C1087 H1103 0.960 . S
H1088 C1072 0.931 . S
H1089 C1077 0.929 . S
H1090 C1078 0.960 . S
H1091 C1078 0.962 . S
H1092 C1078 0.960 . S
H1093 C1079 0.961 1_565 S
H1094 C1079 0.961 . S
H1095 C1079 0.961 . S
H1096 C1080 0.931 . S
H1097 C1085 0.930 . S
H1098 C1086 0.956 . S
H1099 C1086 0.961 1_565 S
H1100 C1086 0.961 . S
H1101 C1087 0.958 . S
H1102 C1087 0.961 . S
H1103 C1087 0.960 . S
C1104 C1105 1.391 . S
C1104 C1106 1.394 . S
C1104 H1120 0.931 . S
C1105 C1104 1.391 . S
C1105 C1109 1.376 . S
C1106 C1104 1.394 . S
C1106 C1107 1.369 . S
C1106 C1110 1.531 . S
C1107 C1106 1.369 . S
C1107 C1108 1.410 . S
C1107 C1115 1.503 . S
C1108 C1107 1.410 . S
C1108 C1109 1.392 . S
C1108 C1111 1.511 . S
C1109 C1105 1.376 . S
C1109 C1108 1.392 . S
C1109 H1121 0.929 . S
C1110 C1106 1.531 . S
C1110 H1122 0.960 . S
C1110 H1123 0.962 . S
C1110 H1124 0.960 . S
C1111 C1108 1.511 . S
C1111 H1125 0.961 . S
C1111 H1126 0.961 . S
C1111 H1127 0.961 . S
C1112 C1113 1.370 . S
C1112 C1114 1.363 . S
C1112 H1128 0.931 . S
C1113 C1112 1.370 . S
C1113 C1117 1.408 . S
C1114 C1112 1.363 . S
C1114 C1115 1.370 . S
C1114 C1118 1.524 . S
C1115 C1107 1.503 . S
C1115 C1114 1.370 . S
C1115 C1116 1.403 . S
C1116 C1115 1.403 . S
C1116 C1117 1.404 . S
C1116 C1119 1.539 . S
C1117 C1113 1.408 . S
C1117 C1116 1.404 . S
C1117 H1129 0.930 . S
C1118 C1114 1.524 . S
C1118 H1130 0.956 . S
C1118 H1131 0.961 . S
C1118 H1132 0.961 . S
C1119 C1116 1.539 . S
C1119 H1133 0.958 . S
C1119 H1134 0.961 . S
C1119 H1135 0.960 . S
H1120 C1104 0.931 . S
H1121 C1109 0.929 . S
H1122 C1110 0.960 . S
H1123 C1110 0.962 . S
H1124 C1110 0.960 . S
H1125 C1111 0.961 . S
H1126 C1111 0.961 . S
H1127 C1111 0.961 . S
H1128 C1112 0.931 . S
H1129 C1117 0.930 . S
H1130 C1118 0.956 . S
H1131 C1118 0.961 . S
H1132 C1118 0.961 . S
H1133 C1119 0.958 . S
H1134 C1119 0.961 . S
H1135 C1119 0.960 . S
C1136 C1137 1.391 . S
C1136 C1138 1.394 . S
C1136 H1152 0.931 . S
C1137 C1136 1.391 . S
C1137 C1141 1.376 . S
C1138 C1136 1.394 . S
C1138 C1139 1.368 1_545 S
C1138 C1142 1.530 1_545 S
C1139 C1138 1.368 1_565 S
C1139 C1140 1.410 1_565 S
C1139 C1147 1.503 . S
C1140 C1139 1.410 1_545 S
C1140 C1141 1.392 . S
C1140 C1143 1.511 1_545 S
C1141 C1137 1.376 . S
C1141 C1140 1.392 . S
C1141 H1153 0.929 . S
C1142 C1138 1.530 1_565 S
C1142 H1154 0.960 . S
C1142 H1155 0.962 1_565 S
C1142 H1156 0.960 . S
C1143 C1140 1.511 1_565 S
C1143 H1157 0.961 1_565 S
C1143 H1158 0.961 . S
C1143 H1159 0.961 . S
C1144 C1145 1.370 . S
C1144 C1146 1.363 . S
C1144 H1160 0.931 . S
C1145 C1144 1.370 . S
C1145 C1149 1.408 . S
C1146 C1144 1.363 . S
C1146 C1147 1.370 . S
C1146 C1150 1.524 1_565 S
C1147 C1139 1.503 . S
C1147 C1146 1.370 . S
C1147 C1148 1.403 . S
C1148 C1147 1.403 . S
C1148 C1149 1.404 . S
C1148 C1151 1.539 . S
C1149 C1145 1.408 . S
C1149 C1148 1.404 . S
C1149 H1161 0.930 . S
C1150 C1146 1.524 1_545 S
C1150 H1162 0.956 . S
C1150 H1163 0.961 . S
C1150 H1164 0.961 . S
C1151 C1148 1.539 . S
C1151 H1165 0.958 . S
C1151 H1166 0.961 . S
C1151 H1167 0.960 . S
H1152 C1136 0.931 . S
H1153 C1141 0.929 . S
H1154 C1142 0.960 . S
H1155 C1142 0.962 1_545 S
H1156 C1142 0.960 . S
H1157 C1143 0.961 1_545 S
H1158 C1143 0.961 . S
H1159 C1143 0.961 . S
H1160 C1144 0.931 . S
H1161 C1149 0.930 . S
H1162 C1150 0.956 . S
H1163 C1150 0.961 . S
H1164 C1150 0.961 . S
H1165 C1151 0.958 . S
H1166 C1151 0.961 . S
H1167 C1151 0.960 . S
C1168 C1169 1.391 . S
C1168 C1170 1.394 . S
C1168 H1184 0.954 . S
C1169 C1168 1.391 . S
C1169 C1173 1.376 . S
C1170 C1168 1.394 . S
C1170 C1171 1.369 . S
C1170 C1174 1.531 . S
C1171 C1170 1.369 . S
C1171 C1172 1.410 . S
C1171 C1179 1.503 . S
C1172 C1171 1.410 . S
C1172 C1173 1.392 . S
C1172 C1175 1.511 . S
C1173 C1169 1.376 . S
C1173 C1172 1.392 . S
C1173 H1185 0.929 . S
C1174 C1170 1.531 . S
C1174 H1186 0.960 . S
C1174 H1187 0.962 . S
C1174 H1188 0.960 . S
C1175 C1172 1.511 . S
C1175 H1189 0.961 . S
C1175 H1190 0.961 . S
C1175 H1191 0.961 . S
C1176 C1177 1.370 . S
C1176 C1178 1.363 . S
C1176 H1192 0.931 . S
C1177 C1176 1.370 . S
C1177 C1181 1.408 . S
C1178 C1176 1.363 . S
C1178 C1179 1.370 . S
C1178 C1182 1.524 . S
C1179 C1171 1.503 . S
C1179 C1178 1.370 . S
C1179 C1180 1.403 . S
C1180 C1179 1.403 . S
C1180 C1181 1.404 . S
C1180 C1183 1.539 . S
C1181 C1177 1.408 . S
C1181 C1180 1.404 . S
C1181 H1193 0.930 . S
C1182 C1178 1.524 . S
C1182 H1194 0.956 . S
C1182 H1195 0.961 . S
C1182 H1196 0.961 . S
C1183 C1180 1.539 . S
C1183 H1197 0.958 . S
C1183 H1198 0.961 . S
C1183 H1199 0.960 . S
H1184 C1168 0.954 . S
H1185 C1173 0.929 . S
H1186 C1174 0.960 . S
H1187 C1174 0.962 . S
H1188 C1174 0.960 . S
H1189 C1175 0.961 . S
H1190 C1175 0.961 . S
H1191 C1175 0.961 . S
H1192 C1176 0.931 . S
H1193 C1181 0.930 . S
H1194 C1182 0.956 . S
H1195 C1182 0.961 . S
H1196 C1182 0.961 . S
H1197 C1183 0.958 . S
H1198 C1183 0.961 . S
H1199 C1183 0.960 . S
C1200 C1201 1.391 . S
C1200 C1202 1.394 . S
C1200 H1216 0.931 . S
C1201 C1200 1.391 . S
C1201 C1205 1.376 . S
C1202 C1200 1.394 . S
C1202 C1203 1.369 . S
C1202 C1206 1.531 . S
C1203 C1202 1.369 . S
C1203 C1204 1.410 . S
C1203 C1211 1.503 . S
C1204 C1203 1.410 . S
C1204 C1205 1.392 . S
C1204 C1207 1.511 . S
C1205 C1201 1.376 . S
C1205 C1204 1.392 . S
C1205 H1217 0.929 1_545 S
C1206 C1202 1.531 . S
C1206 H1218 0.960 . S
C1206 H1219 0.962 . S
C1206 H1220 0.960 . S
C1207 C1204 1.511 . S
C1207 H1221 0.961 . S
C1207 H1222 0.961 . S
C1207 H1223 0.961 . S
C1208 C1209 1.370 . S
C1208 C1210 1.363 . S
C1208 H1224 0.931 . S
C1209 C1208 1.370 . S
C1209 C1213 1.408 . S
C1210 C1208 1.363 . S
C1210 C1211 1.370 . S
C1210 C1214 1.524 . S
C1211 C1203 1.503 . S
C1211 C1210 1.370 . S
C1211 C1212 1.403 . S
C1212 C1211 1.403 . S
C1212 C1213 1.404 . S
C1212 C1215 1.539 . S
C1213 C1209 1.408 . S
C1213 C1212 1.404 . S
C1213 H1225 0.930 . S
C1214 C1210 1.524 . S
C1214 H1226 0.956 . S
C1214 H1227 0.961 . S
C1214 H1228 0.961 . S
C1215 C1212 1.539 . S
C1215 H1229 0.958 . S
C1215 H1230 0.961 . S
C1215 H1231 0.960 . S
H1216 C1200 0.931 . S
H1217 C1205 0.929 1_565 S
H1218 C1206 0.960 . S
H1219 C1206 0.962 . S
H1220 C1206 0.960 . S
H1221 C1207 0.961 . S
H1222 C1207 0.961 . S
H1223 C1207 0.961 . S
H1224 C1208 0.931 . S
H1225 C1213 0.930 . S
H1226 C1214 0.956 . S
H1227 C1214 0.961 . S
H1228 C1214 0.961 . S
H1229 C1215 0.958 . S
H1230 C1215 0.961 . S
H1231 C1215 0.960 . S
C1232 C1233 1.391 . S
C1232 C1234 1.394 . S
C1232 H1248 0.931 . S
C1233 C1232 1.391 . S
C1233 C1237 1.376 . S
C1234 C1232 1.394 . S
C1234 C1235 1.369 . S
C1234 C1238 1.531 . S
C1235 C1234 1.369 . S
C1235 C1236 1.410 . S
C1235 C1243 1.503 . S
C1236 C1235 1.410 . S
C1236 C1237 1.392 . S
C1236 C1239 1.511 . S
C1237 C1233 1.376 . S
C1237 C1236 1.392 . S
C1237 H1249 0.929 1_556 S
C1238 C1234 1.531 . S
C1238 H1250 0.960 . S
C1238 H1251 0.962 . S
C1238 H1252 0.960 . S
C1239 C1236 1.511 . S
C1239 H1253 0.961 1_556 S
C1239 H1254 0.961 . S
C1239 H1255 0.961 . S
C1240 C1241 1.370 . S
C1240 C1242 1.363 . S
C1240 H1256 0.931 . S
C1241 C1240 1.370 . S
C1241 C1245 1.408 . S
C1242 C1240 1.363 . S
C1242 C1243 1.370 . S
C1242 C1246 1.524 . S
C1243 C1235 1.503 . S
C1243 C1242 1.370 . S
C1243 C1244 1.403 . S
C1244 C1243 1.403 . S
C1244 C1245 1.404 . S
C1244 C1247 1.539 . S
C1245 C1241 1.408 . S
C1245 C1244 1.404 . S
C1245 H1257 0.930 . S
C1246 C1242 1.524 . S
C1246 H1258 0.956 . S
C1246 H1259 0.961 . S
C1246 H1260 0.961 . S
C1247 C1244 1.539 . S
C1247 H1261 0.958 . S
C1247 H1262 0.961 . S
C1247 H1263 0.960 . S
H1248 C1232 0.931 . S
H1249 C1237 0.929 1_554 S
H1250 C1238 0.960 . S
H1251 C1238 0.962 . S
H1252 C1238 0.960 . S
H1253 C1239 0.961 1_554 S
H1254 C1239 0.961 . S
H1255 C1239 0.961 . S
H1256 C1240 0.931 . S
H1257 C1245 0.930 . S
H1258 C1246 0.956 . S
H1259 C1246 0.961 . S
H1260 C1246 0.961 . S
H1261 C1247 0.958 . S
H1262 C1247 0.961 . S
H1263 C1247 0.960 . S
C1264 C1265 1.391 . S
C1264 C1266 1.394 . S
C1264 H1280 0.931 . S
C1265 C1264 1.391 . S
C1265 C1269 1.376 . S
C1266 C1264 1.394 . S
C1266 C1267 1.369 . S
C1266 C1270 1.531 . S
C1267 C1266 1.369 . S
C1267 C1268 1.410 . S
C1267 C1275 1.503 . S
C1268 C1267 1.410 . S
C1268 C1269 1.392 . S
C1268 C1271 1.511 . S
C1269 C1265 1.376 . S
C1269 C1268 1.392 . S
C1269 H1281 0.929 . S
C1270 C1266 1.531 . S
C1270 H1282 0.960 . S
C1270 H1283 0.962 . S
C1270 H1284 0.960 . S
C1271 C1268 1.511 . S
C1271 H1285 0.961 . S
C1271 H1286 0.961 . S
C1271 H1287 0.961 1_655 S
C1272 C1273 1.370 . S
C1272 C1274 1.363 . S
C1272 H1288 0.931 . S
C1273 C1272 1.370 . S
C1273 C1277 1.408 . S
C1274 C1272 1.363 . S
C1274 C1275 1.370 . S
C1274 C1278 1.524 . S
C1275 C1267 1.503 . S
C1275 C1274 1.370 . S
C1275 C1276 1.403 . S
C1276 C1275 1.403 . S
C1276 C1277 1.404 . S
C1276 C1279 1.539 . S
C1277 C1273 1.408 . S
C1277 C1276 1.404 . S
C1277 H1289 0.930 . S
C1278 C1274 1.524 . S
C1278 H1290 0.956 . S
C1278 H1291 0.961 . S
C1278 H1292 0.961 . S
C1279 C1276 1.539 . S
C1279 H1293 0.958 . S
C1279 H1294 0.961 1_655 S
C1279 H1295 0.960 . S
H1280 C1264 0.931 . S
H1281 C1269 0.929 . S
H1282 C1270 0.960 . S
H1283 C1270 0.962 . S
H1284 C1270 0.960 . S
H1285 C1271 0.961 . S
H1286 C1271 0.961 . S
H1287 C1271 0.961 1_455 S
H1288 C1272 0.931 . S
H1289 C1277 0.930 . S
H1290 C1278 0.956 . S
H1291 C1278 0.961 . S
H1292 C1278 0.961 . S
H1293 C1279 0.958 . S
H1294 C1279 0.961 1_455 S
H1295 C1279 0.960 . S
C1296 C1297 1.391 . S
C1296 C1298 1.394 . S
C1296 H1312 0.931 . S
C1297 C1296 1.391 . S
C1297 C1301 1.376 . S
C1298 C1296 1.394 . S
C1298 C1299 1.369 . S
C1298 C1302 1.531 . S
C1299 C1298 1.369 . S
C1299 C1300 1.410 . S
C1299 C1307 1.503 . S
C1300 C1299 1.410 . S
C1300 C1301 1.392 . S
C1300 C1303 1.511 . S
C1301 C1297 1.376 . S
C1301 C1300 1.392 . S
C1301 H1313 0.929 . S
C1302 C1298 1.531 . S
C1302 H1314 0.960 . S
C1302 H1315 0.962 . S
C1302 H1316 0.960 . S
C1303 C1300 1.511 . S
C1303 H1317 0.961 . S
C1303 H1318 0.961 . S
C1303 H1319 0.961 . S
C1304 C1305 1.370 . S
C1304 C1306 1.363 . S
C1304 H1320 0.931 . S
C1305 C1304 1.370 . S
C1305 C1309 1.408 . S
C1306 C1304 1.363 . S
C1306 C1307 1.370 . S
C1306 C1310 1.524 . S
C1307 C1299 1.503 . S
C1307 C1306 1.370 . S
C1307 C1308 1.403 . S
C1308 C1307 1.403 . S
C1308 C1309 1.404 . S
C1308 C1311 1.539 . S
C1309 C1305 1.408 . S
C1309 C1308 1.404 . S
C1309 H1321 0.930 . S
C1310 C1306 1.524 . S
C1310 H1322 0.956 . S
C1310 H1323 0.961 . S
C1310 H1324 0.961 . S
C1311 C1308 1.539 . S
C1311 H1325 0.958 . S
C1311 H1326 0.961 . S
C1311 H1327 0.960 . S
H1312 C1296 0.931 . S
H1313 C1301 0.929 . S
H1314 C1302 0.960 . S
H1315 C1302 0.962 . S
H1316 C1302 0.960 . S
H1317 C1303 0.961 . S
H1318 C1303 0.961 . S
H1319 C1303 0.961 . S
H1320 C1304 0.931 . S
H1321 C1309 0.930 . S
H1322 C1310 0.956 . S
H1323 C1310 0.961 . S
H1324 C1310 0.961 . S
H1325 C1311 0.958 . S
H1326 C1311 0.961 . S
H1327 C1311 0.960 . S
C1328 C1329 1.391 . S
C1328 C1330 1.394 . S
C1328 H1344 0.931 . S
C1329 C1328 1.391 . S
C1329 C1333 1.376 . S
C1330 C1328 1.394 . S
C1330 C1331 1.369 . S
C1330 C1334 1.531 . S
C1331 C1330 1.369 . S
C1331 C1332 1.410 . S
C1331 C1339 1.503 . S
C1332 C1331 1.410 . S
C1332 C1333 1.392 . S
C1332 C1335 1.511 . S
C1333 C1329 1.376 . S
C1333 C1332 1.392 . S
C1333 H1345 0.929 . S
C1334 C1330 1.531 . S
C1334 H1346 0.960 . S
C1334 H1347 0.962 . S
C1334 H1348 0.960 . S
C1335 C1332 1.511 . S
C1335 H1349 0.961 . S
C1335 H1350 0.961 . S
C1335 H1351 0.961 . S
C1336 C1337 1.370 . S
C1336 C1338 1.363 . S
C1336 H1352 0.931 . S
C1337 C1336 1.370 . S
C1337 C1341 1.408 . S
C1338 C1336 1.363 . S
C1338 C1339 1.370 . S
C1338 C1342 1.524 . S
C1339 C1331 1.503 . S
C1339 C1338 1.370 . S
C1339 C1340 1.403 . S
C1340 C1339 1.403 . S
C1340 C1341 1.404 . S
C1340 C1343 1.539 . S
C1341 C1337 1.408 . S
C1341 C1340 1.404 . S
C1341 H1353 0.930 . S
C1342 C1338 1.524 . S
C1342 H1354 0.956 . S
C1342 H1355 0.961 . S
C1342 H1356 0.961 . S
C1343 C1340 1.539 . S
C1343 H1357 0.958 . S
C1343 H1358 0.961 . S
C1343 H1359 0.960 . S
H1344 C1328 0.931 . S
H1345 C1333 0.929 . S
H1346 C1334 0.960 . S
H1347 C1334 0.962 . S
H1348 C1334 0.960 . S
H1349 C1335 0.961 . S
H1350 C1335 0.961 . S
H1351 C1335 0.961 . S
H1352 C1336 0.931 . S
H1353 C1341 0.930 . S
H1354 C1342 0.956 . S
H1355 C1342 0.961 . S
H1356 C1342 0.961 . S
H1357 C1343 0.958 . S
H1358 C1343 0.961 . S
H1359 C1343 0.960 . S
C1360 C1361 1.391 . S
C1360 C1362 1.394 . S
C1360 H1376 0.931 . S
C1361 C1360 1.391 . S
C1361 C1365 1.376 . S
C1362 C1360 1.394 . S
C1362 C1363 1.369 . S
C1362 C1366 1.531 . S
C1363 C1362 1.369 . S
C1363 C1364 1.410 . S
C1363 C1371 1.503 . S
C1364 C1363 1.410 . S
C1364 C1365 1.392 . S
C1364 C1367 1.511 . S
C1365 C1361 1.376 . S
C1365 C1364 1.392 . S
C1365 H1377 0.929 . S
C1366 C1362 1.531 . S
C1366 H1378 0.960 . S
C1366 H1379 0.962 . S
C1366 H1380 0.960 . S
C1367 C1364 1.511 . S
C1367 H1381 0.961 . S
C1367 H1382 0.961 . S
C1367 H1383 0.961 . S
C1368 C1369 1.370 . S
C1368 C1370 1.363 . S
C1368 H1384 0.931 . S
C1369 C1368 1.370 . S
C1369 C1373 1.408 . S
C1370 C1368 1.363 . S
C1370 C1371 1.370 . S
C1370 C1374 1.524 . S
C1371 C1363 1.503 . S
C1371 C1370 1.370 . S
C1371 C1372 1.403 . S
C1372 C1371 1.403 . S
C1372 C1373 1.404 . S
C1372 C1375 1.539 . S
C1373 C1369 1.408 . S
C1373 C1372 1.404 . S
C1373 H1385 0.930 . S
C1374 C1370 1.524 . S
C1374 H1386 0.956 . S
C1374 H1387 0.961 . S
C1374 H1388 0.961 . S
C1375 C1372 1.539 . S
C1375 H1389 0.958 . S
C1375 H1390 0.961 . S
C1375 H1391 0.960 . S
H1376 C1360 0.931 . S
H1377 C1365 0.929 . S
H1378 C1366 0.960 . S
H1379 C1366 0.962 . S
H1380 C1366 0.960 . S
H1381 C1367 0.961 . S
H1382 C1367 0.961 . S
H1383 C1367 0.961 . S
H1384 C1368 0.931 . S
H1385 C1373 0.930 . S
H1386 C1374 0.956 . S
H1387 C1374 0.961 . S
H1388 C1374 0.961 . S
H1389 C1375 0.958 . S
H1390 C1375 0.961 . S
H1391 C1375 0.960 . S
C1392 C1393 1.391 . S
C1392 C1394 1.394 . S
C1392 H1408 0.931 . S
C1393 C1392 1.391 . S
C1393 C1397 1.376 . S
C1394 C1392 1.394 . S
C1394 C1395 1.369 . S
C1394 C1398 1.531 . S
C1395 C1394 1.369 . S
C1395 C1396 1.410 . S
C1395 C1403 1.503 . S
C1396 C1395 1.410 . S
C1396 C1397 1.392 . S
C1396 C1399 1.511 . S
C1397 C1393 1.376 . S
C1397 C1396 1.392 . S
C1397 H1409 0.929 . S
C1398 C1394 1.531 . S
C1398 H1410 0.960 . S
C1398 H1411 0.962 . S
C1398 H1412 0.960 . S
C1399 C1396 1.511 . S
C1399 H1413 0.961 . S
C1399 H1414 0.961 . S
C1399 H1415 0.961 . S
C1400 C1401 1.370 . S
C1400 C1402 1.363 . S
C1400 H1416 0.931 . S
C1401 C1400 1.370 . S
C1401 C1405 1.408 . S
C1402 C1400 1.363 . S
C1402 C1403 1.370 . S
C1402 C1406 1.524 . S
C1403 C1395 1.503 . S
C1403 C1402 1.370 . S
C1403 C1404 1.403 . S
C1404 C1403 1.403 . S
C1404 C1405 1.404 . S
C1404 C1407 1.539 . S
C1405 C1401 1.408 . S
C1405 C1404 1.404 . S
C1405 H1417 0.930 . S
C1406 C1402 1.524 . S
C1406 H1418 0.956 . S
C1406 H1419 0.961 . S
C1406 H1420 0.961 . S
C1407 C1404 1.539 . S
C1407 H1421 0.958 . S
C1407 H1422 0.961 . S
C1407 H1423 0.960 . S
H1408 C1392 0.931 . S
H1409 C1397 0.929 . S
H1410 C1398 0.960 . S
H1411 C1398 0.962 . S
H1412 C1398 0.960 . S
H1413 C1399 0.961 . S
H1414 C1399 0.961 . S
H1415 C1399 0.961 . S
H1416 C1400 0.931 . S
H1417 C1405 0.930 . S
H1418 C1406 0.956 . S
H1419 C1406 0.961 . S
H1420 C1406 0.961 . S
H1421 C1407 0.958 . S
H1422 C1407 0.961 . S
H1423 C1407 0.960 . S
C1424 C1425 1.391 . S
C1424 C1426 1.394 . S
C1424 H1440 0.931 . S
C1425 C1424 1.391 . S
C1425 C1429 1.376 . S
C1426 C1424 1.394 . S
C1426 C1427 1.369 . S
C1426 C1430 1.531 . S
C1427 C1426 1.369 . S
C1427 C1428 1.410 . S
C1427 C1435 1.503 . S
C1428 C1427 1.410 . S
C1428 C1429 1.392 . S
C1428 C1431 1.511 . S
C1429 C1425 1.376 . S
C1429 C1428 1.392 . S
C1429 H1441 0.929 . S
C1430 C1426 1.531 . S
C1430 H1442 0.960 . S
C1430 H1443 0.962 . S
C1430 H1444 0.960 . S
C1431 C1428 1.511 . S
C1431 H1445 0.961 . S
C1431 H1446 0.961 . S
C1431 H1447 0.961 . S
C1432 C1433 1.370 . S
C1432 C1434 1.363 . S
C1432 H1448 0.931 . S
C1433 C1432 1.370 . S
C1433 C1437 1.408 . S
C1434 C1432 1.363 . S
C1434 C1435 1.370 . S
C1434 C1438 1.524 . S
C1435 C1427 1.503 . S
C1435 C1434 1.370 . S
C1435 C1436 1.403 . S
C1436 C1435 1.403 . S
C1436 C1437 1.404 . S
C1436 C1439 1.539 . S
C1437 C1433 1.408 . S
C1437 C1436 1.404 . S
C1437 H1449 0.930 . S
C1438 C1434 1.524 . S
C1438 H1450 0.956 . S
C1438 H1451 0.961 . S
C1438 H1452 0.961 . S
C1439 C1436 1.539 . S
C1439 H1453 0.958 . S
C1439 H1454 0.961 . S
C1439 H1455 0.960 . S
H1440 C1424 0.931 . S
H1441 C1429 0.929 . S
H1442 C1430 0.960 . S
H1443 C1430 0.962 . S
H1444 C1430 0.960 . S
H1445 C1431 0.961 . S
H1446 C1431 0.961 . S
H1447 C1431 0.961 . S
H1448 C1432 0.931 . S
H1449 C1437 0.930 . S
H1450 C1438 0.956 . S
H1451 C1438 0.961 . S
H1452 C1438 0.961 . S
H1453 C1439 0.958 . S
H1454 C1439 0.961 . S
H1455 C1439 0.960 . S
C1456 C1457 1.391 . S
C1456 C1458 1.394 . S
C1456 H1472 0.931 . S
C1457 C1456 1.391 . S
C1457 C1461 1.376 . S
C1458 C1456 1.394 . S
C1458 C1459 1.369 . S
C1458 C1462 1.531 . S
C1459 C1458 1.369 . S
C1459 C1460 1.410 . S
C1459 C1467 1.503 . S
C1460 C1459 1.410 . S
C1460 C1461 1.392 . S
C1460 C1463 1.511 1_655 S
C1461 C1457 1.376 . S
C1461 C1460 1.392 . S
C1461 H1473 0.933 . S
C1462 C1458 1.531 . S
C1462 H1474 0.960 . S
C1462 H1475 0.962 . S
C1462 H1476 0.960 . S
C1463 C1460 1.511 1_455 S
C1463 H1477 0.961 . S
C1463 H1478 0.961 . S
C1463 H1479 0.961 . S
C1464 C1465 1.370 . S
C1464 C1466 1.363 . S
C1464 H1480 0.931 . S
C1465 C1464 1.370 . S
C1465 C1469 1.408 . S
C1466 C1464 1.363 . S
C1466 C1467 1.370 . S
C1466 C1470 1.524 . S
C1467 C1459 1.503 . S
C1467 C1466 1.370 . S
C1467 C1468 1.403 . S
C1468 C1467 1.403 . S
C1468 C1469 1.404 . S
C1468 C1471 1.539 . S
C1469 C1465 1.408 . S
C1469 C1468 1.404 . S
C1469 H1481 0.930 . S
C1470 C1466 1.524 . S
C1470 H1482 0.956 . S
C1470 H1483 0.961 . S
C1470 H1484 0.961 . S
C1471 C1468 1.539 . S
C1471 H1485 0.958 . S
C1471 H1486 0.961 . S
C1471 H1487 0.960 . S
H1472 C1456 0.931 . S
H1473 C1461 0.933 . S
H1474 C1462 0.960 . S
H1475 C1462 0.962 . S
H1476 C1462 0.960 . S
H1477 C1463 0.961 . S
H1478 C1463 0.961 . S
H1479 C1463 0.961 . S
H1480 C1464 0.931 . S
H1481 C1469 0.930 . S
H1482 C1470 0.956 . S
H1483 C1470 0.961 . S
H1484 C1470 0.961 . S
H1485 C1471 0.958 . S
H1486 C1471 0.961 . S
H1487 C1471 0.960 . S
C1488 C1489 1.391 . S
C1488 C1490 1.394 . S
C1488 H1504 0.931 . S
C1489 C1488 1.391 . S
C1489 C1493 1.376 . S
C1490 C1488 1.394 . S
C1490 C1491 1.369 . S
C1490 C1494 1.531 . S
C1491 C1490 1.369 . S
C1491 C1492 1.410 . S
C1491 C1499 1.503 . S
C1492 C1491 1.410 . S
C1492 C1493 1.392 . S
C1492 C1495 1.511 . S
C1493 C1489 1.376 . S
C1493 C1492 1.392 . S
C1493 H1505 0.929 . S
C1494 C1490 1.531 . S
C1494 H1506 0.960 . S
C1494 H1507 0.962 . S
C1494 H1508 0.960 . S
C1495 C1492 1.511 . S
C1495 H1509 0.961 . S
C1495 H1510 0.961 . S
C1495 H1511 0.961 . S
C1496 C1497 1.370 . S
C1496 C1498 1.363 . S
C1496 H1512 0.931 . S
C1497 C1496 1.370 . S
C1497 C1501 1.408 . S
C1498 C1496 1.363 . S
C1498 C1499 1.370 . S
C1498 C1502 1.524 . S
C1499 C1491 1.503 . S
C1499 C1498 1.370 . S
C1499 C1500 1.403 . S
C1500 C1499 1.403 . S
C1500 C1501 1.404 . S
C1500 C1503 1.539 . S
C1501 C1497 1.408 . S
C1501 C1500 1.404 . S
C1501 H1513 0.930 . S
C1502 C1498 1.524 . S
C1502 H1514 0.956 . S
C1502 H1515 0.961 . S
C1502 H1516 0.961 . S
C1503 C1500 1.539 . S
C1503 H1517 0.958 . S
C1503 H1518 0.961 . S
C1503 H1519 0.960 . S
H1504 C1488 0.931 . S
H1505 C1493 0.929 . S
H1506 C1494 0.960 . S
H1507 C1494 0.962 . S
H1508 C1494 0.960 . S
H1509 C1495 0.961 . S
H1510 C1495 0.961 . S
H1511 C1495 0.961 . S
H1512 C1496 0.931 . S
H1513 C1501 0.930 . S
H1514 C1502 0.956 . S
H1515 C1502 0.961 . S
H1516 C1502 0.961 . S
H1517 C1503 0.958 . S
H1518 C1503 0.961 . S
H1519 C1503 0.960 . S
C1520 C1521 1.391 . S
C1520 C1522 1.394 . S
C1520 H1536 0.931 . S
C1521 C1520 1.391 . S
C1521 C1525 1.376 . S
C1522 C1520 1.394 . S
C1522 C1523 1.369 . S
C1522 C1526 1.531 . S
C1523 C1522 1.369 . S
C1523 C1524 1.410 . S
C1523 C1531 1.503 . S
C1524 C1523 1.410 . S
C1524 C1525 1.392 . S
C1524 C1527 1.511 . S
C1525 C1521 1.376 . S
C1525 C1524 1.392 . S
C1525 H1537 0.929 . S
C1526 C1522 1.531 . S
C1526 H1538 0.960 . S
C1526 H1539 0.962 . S
C1526 H1540 0.960 . S
C1527 C1524 1.511 . S
C1527 H1541 0.961 . S
C1527 H1542 0.961 . S
C1527 H1543 0.961 . S
C1528 C1529 1.370 . S
C1528 C1530 1.363 . S
C1528 H1544 0.931 . S
C1529 C1528 1.370 . S
C1529 C1533 1.408 . S
C1530 C1528 1.363 . S
C1530 C1531 1.370 . S
C1530 C1534 1.524 . S
C1531 C1523 1.503 . S
C1531 C1530 1.370 . S
C1531 C1532 1.403 . S
C1532 C1531 1.403 . S
C1532 C1533 1.404 . S
C1532 C1535 1.539 . S
C1533 C1529 1.408 . S
C1533 C1532 1.404 . S
C1533 H1545 0.930 . S
C1534 C1530 1.524 . S
C1534 H1546 0.956 . S
C1534 H1547 0.961 . S
C1534 H1548 0.961 . S
C1535 C1532 1.539 . S
C1535 H1549 0.958 . S
C1535 H1550 0.961 . S
C1535 H1551 0.960 . S
H1536 C1520 0.931 . S
H1537 C1525 0.929 . S
H1538 C1526 0.960 . S
H1539 C1526 0.962 . S
H1540 C1526 0.960 . S
H1541 C1527 0.961 . S
H1542 C1527 0.961 . S
H1543 C1527 0.961 . S
H1544 C1528 0.931 . S
H1545 C1533 0.930 . S
H1546 C1534 0.956 . S
H1547 C1534 0.961 . S
H1548 C1534 0.961 . S
H1549 C1535 0.958 . S
H1550 C1535 0.961 . S
H1551 C1535 0.960 . S
C1552 C1553 1.391 . S
C1552 C1554 1.394 . S
C1552 H1568 0.931 . S
C1553 C1552 1.391 . S
C1553 C1557 1.376 . S
C1554 C1552 1.394 . S
C1554 C1555 1.369 . S
C1554 C1558 1.531 . S
C1555 C1554 1.369 . S
C1555 C1556 1.410 . S
C1555 C1563 1.503 . S
C1556 C1555 1.410 . S
C1556 C1557 1.392 . S
C1556 C1559 1.511 . S
C1557 C1553 1.376 . S
C1557 C1556 1.392 . S
C1557 H1569 0.929 . S
C1558 C1554 1.531 . S
C1558 H1570 0.960 . S
C1558 H1571 0.962 . S
C1558 H1572 0.960 . S
C1559 C1556 1.511 . S
C1559 H1573 0.961 . S
C1559 H1574 0.961 . S
C1559 H1575 0.961 . S
C1560 C1561 1.370 . S
C1560 C1562 1.363 . S
C1560 H1576 0.931 . S
C1561 C1560 1.370 . S
C1561 C1565 1.408 . S
C1562 C1560 1.363 . S
C1562 C1563 1.370 . S
C1562 C1566 1.524 . S
C1563 C1555 1.503 . S
C1563 C1562 1.370 . S
C1563 C1564 1.403 . S
C1564 C1563 1.403 . S
C1564 C1565 1.404 . S
C1564 C1567 1.539 . S
C1565 C1561 1.408 . S
C1565 C1564 1.404 . S
C1565 H1577 0.930 . S
C1566 C1562 1.524 . S
C1566 H1578 0.956 . S
C1566 H1579 0.961 . S
C1566 H1580 0.961 . S
C1567 C1564 1.539 . S
C1567 H1581 0.958 . S
C1567 H1582 0.961 . S
C1567 H1583 0.960 . S
H1568 C1552 0.931 . S
H1569 C1557 0.929 . S
H1570 C1558 0.960 . S
H1571 C1558 0.962 . S
H1572 C1558 0.960 . S
H1573 C1559 0.961 . S
H1574 C1559 0.961 . S
H1575 C1559 0.961 . S
H1576 C1560 0.931 . S
H1577 C1565 0.930 . S
H1578 C1566 0.956 . S
H1579 C1566 0.961 . S
H1580 C1566 0.961 . S
H1581 C1567 0.958 . S
H1582 C1567 0.961 . S
H1583 C1567 0.960 . S
C1584 C1585 1.391 . S
C1584 C1586 1.394 . S
C1584 H1600 0.931 . S
C1585 C1584 1.391 . S
C1585 C1589 1.376 . S
C1586 C1584 1.394 . S
C1586 C1587 1.369 . S
C1586 C1590 1.531 . S
C1587 C1586 1.369 . S
C1587 C1588 1.410 . S
C1587 C1595 1.503 . S
C1588 C1587 1.410 . S
C1588 C1589 1.392 . S
C1588 C1591 1.511 . S
C1589 C1585 1.376 . S
C1589 C1588 1.392 . S
C1589 H1601 0.929 . S
C1590 C1586 1.531 . S
C1590 H1602 0.960 . S
C1590 H1603 0.962 . S
C1590 H1604 0.960 . S
C1591 C1588 1.511 . S
C1591 H1605 0.961 . S
C1591 H1606 0.961 . S
C1591 H1607 0.961 . S
C1592 C1593 1.370 . S
C1592 C1594 1.363 . S
C1592 H1608 0.931 . S
C1593 C1592 1.370 . S
C1593 C1597 1.408 . S
C1594 C1592 1.363 . S
C1594 C1595 1.370 . S
C1594 C1598 1.524 . S
C1595 C1587 1.503 . S
C1595 C1594 1.370 . S
C1595 C1596 1.403 . S
C1596 C1595 1.403 . S
C1596 C1597 1.404 . S
C1596 C1599 1.539 . S
C1597 C1593 1.408 . S
C1597 C1596 1.404 . S
C1597 H1609 0.930 . S
C1598 C1594 1.524 . S
C1598 H1610 0.956 . S
C1598 H1611 0.961 . S
C1598 H1612 0.961 . S
C1599 C1596 1.539 . S
C1599 H1613 0.958 . S
C1599 H1614 0.961 . S
C1599 H1615 0.960 . S
H1600 C1584 0.931 . S
H1601 C1589 0.929 . S
H1602 C1590 0.960 . S
H1603 C1590 0.962 . S
H1604 C1590 0.960 . S
H1605 C1591 0.961 . S
H1606 C1591 0.961 . S
H1607 C1591 0.961 . S
H1608 C1592 0.931 . S
H1609 C1597 0.930 . S
H1610 C1598 0.956 . S
H1611 C1598 0.961 . S
H1612 C1598 0.961 . S
H1613 C1599 0.958 . S
H1614 C1599 0.961 . S
H1615 C1599 0.960 . S
C1616 C1617 1.391 . S
C1616 C1618 1.394 1_554 S
C1616 H1632 0.931 . S
C1617 C1616 1.391 . S
C1617 C1621 1.376 1_554 S
C1618 C1616 1.394 1_556 S
C1618 C1619 1.369 . S
C1618 C1622 1.531 1_556 S
C1619 C1618 1.369 . S
C1619 C1620 1.410 . S
C1619 C1627 1.503 . S
C1620 C1619 1.410 . S
C1620 C1621 1.392 . S
C1620 C1623 1.511 . S
C1621 C1617 1.376 1_556 S
C1621 C1620 1.392 . S
C1621 H1633 0.929 . S
C1622 C1618 1.531 1_554 S
C1622 H1634 0.960 1_554 S
C1622 H1635 0.962 . S
C1622 H1636 0.960 . S
C1623 C1620 1.511 . S
C1623 H1637 0.961 . S
C1623 H1638 0.961 . S
C1623 H1639 0.961 . S
C1624 C1625 1.370 . S
C1624 C1626 1.363 . S
C1624 H1640 0.931 . S
C1625 C1624 1.370 . S
C1625 C1629 1.408 . S
C1626 C1624 1.363 . S
C1626 C1627 1.370 . S
C1626 C1630 1.524 . S
C1627 C1619 1.503 . S
C1627 C1626 1.370 . S
C1627 C1628 1.403 . S
C1628 C1627 1.403 . S
C1628 C1629 1.404 . S
C1628 C1631 1.539 . S
C1629 C1625 1.408 . S
C1629 C1628 1.404 . S
C1629 H1641 0.930 . S
C1630 C1626 1.524 . S
C1630 H1642 0.956 . S
C1630 H1643 0.961 . S
C1630 H1644 0.961 . S
C1631 C1628 1.539 . S
C1631 H1645 0.958 . S
C1631 H1646 0.961 . S
C1631 H1647 0.960 . S
H1632 C1616 0.931 . S
H1633 C1621 0.929 . S
H1634 C1622 0.960 1_556 S
H1635 C1622 0.962 . S
H1636 C1622 0.960 . S
H1637 C1623 0.961 . S
H1638 C1623 0.961 . S
H1639 C1623 0.961 . S
H1640 C1624 0.931 . S
H1641 C1629 0.930 . S
H1642 C1630 0.956 . S
H1643 C1630 0.961 . S
H1644 C1630 0.961 . S
H1645 C1631 0.958 . S
H1646 C1631 0.961 . S
H1647 C1631 0.960 . S
C1648 C1649 1.391 . S
C1648 C1650 1.394 . S
C1648 H1664 0.931 . S
C1649 C1648 1.391 . S
C1649 C1653 1.376 . S
C1650 C1648 1.394 . S
C1650 C1651 1.369 . S
C1650 C1654 1.531 . S
C1651 C1650 1.369 . S
C1651 C1652 1.410 . S
C1651 C1659 1.503 . S
C1652 C1651 1.410 . S
C1652 C1653 1.392 . S
C1652 C1655 1.511 . S
C1653 C1649 1.376 . S
C1653 C1652 1.392 . S
C1653 H1665 0.929 . S
C1654 C1650 1.531 . S
C1654 H1666 0.960 . S
C1654 H1667 0.962 . S
C1654 H1668 0.960 . S
C1655 C1652 1.511 . S
C1655 H1669 0.961 . S
C1655 H1670 0.961 . S
C1655 H1671 0.961 . S
C1656 C1657 1.370 . S
C1656 C1658 1.363 . S
C1656 H1672 0.931 . S
C1657 C1656 1.370 . S
C1657 C1661 1.408 . S
C1658 C1656 1.363 . S
C1658 C1659 1.370 . S
C1658 C1662 1.524 . S
C1659 C1651 1.503 . S
C1659 C1658 1.370 . S
C1659 C1660 1.403 . S
C1660 C1659 1.403 . S
C1660 C1661 1.404 . S
C1660 C1663 1.539 . S
C1661 C1657 1.408 . S
C1661 C1660 1.404 . S
C1661 H1673 0.930 . S
C1662 C1658 1.524 . S
C1662 H1674 0.956 . S
C1662 H1675 0.961 . S
C1662 H1676 0.961 . S
C1663 C1660 1.539 . S
C1663 H1677 0.958 . S
C1663 H1678 0.961 . S
C1663 H1679 0.960 . S
H1664 C1648 0.931 . S
H1665 C1653 0.929 . S
H1666 C1654 0.960 . S
H1667 C1654 0.962 . S
H1668 C1654 0.960 . S
H1669 C1655 0.961 . S
H1670 C1655 0.961 . S
H1671 C1655 0.961 . S
H1672 C1656 0.931 . S
H1673 C1661 0.930 . S
H1674 C1662 0.956 . S
H1675 C1662 0.961 . S
H1676 C1662 0.961 . S
H1677 C1663 0.958 . S
H1678 C1663 0.961 . S
H1679 C1663 0.960 . S
C1680 C1681 1.391 . S
C1680 C1682 1.394 . S
C1680 H1696 0.931 . S
C1681 C1680 1.391 . S
C1681 C1685 1.376 . S
C1682 C1680 1.394 . S
C1682 C1683 1.369 . S
C1682 C1686 1.531 . S
C1683 C1682 1.369 . S
C1683 C1684 1.410 . S
C1683 C1691 1.503 . S
C1684 C1683 1.410 . S
C1684 C1685 1.392 . S
C1684 C1687 1.511 . S
C1685 C1681 1.376 . S
C1685 C1684 1.392 . S
C1685 H1697 0.929 . S
C1686 C1682 1.531 . S
C1686 H1698 0.960 . S
C1686 H1699 0.962 . S
C1686 H1700 0.960 . S
C1687 C1684 1.511 . S
C1687 H1701 0.961 . S
C1687 H1702 0.961 . S
C1687 H1703 0.961 . S
C1688 C1689 1.370 . S
C1688 C1690 1.363 . S
C1688 H1704 0.931 . S
C1689 C1688 1.370 . S
C1689 C1693 1.408 . S
C1690 C1688 1.363 . S
C1690 C1691 1.370 . S
C1690 C1694 1.524 . S
C1691 C1683 1.503 . S
C1691 C1690 1.370 . S
C1691 C1692 1.403 . S
C1692 C1691 1.403 . S
C1692 C1693 1.404 . S
C1692 C1695 1.539 . S
C1693 C1689 1.408 . S
C1693 C1692 1.404 . S
C1693 H1705 0.930 . S
C1694 C1690 1.524 . S
C1694 H1706 0.956 . S
C1694 H1707 0.961 . S
C1694 H1708 0.961 . S
C1695 C1692 1.539 . S
C1695 H1709 0.958 . S
C1695 H1710 0.961 . S
C1695 H1711 0.960 . S
H1696 C1680 0.931 . S
H1697 C1685 0.929 . S
H1698 C1686 0.960 . S
H1699 C1686 0.962 . S
H1700 C1686 0.960 . S
H1701 C1687 0.961 . S
H1702 C1687 0.961 . S
H1703 C1687 0.961 . S
H1704 C1688 0.931 . S
H1705 C1693 0.930 . S
H1706 C1694 0.956 . S
H1707 C1694 0.961 . S
H1708 C1694 0.961 . S
H1709 C1695 0.958 . S
H1710 C1695 0.961 . S
H1711 C1695 0.960 . S
C1712 C1713 1.391 . S
C1712 C1714 1.394 . S
C1712 H1728 0.931 . S
C1713 C1712 1.391 . S
C1713 C1717 1.376 . S
C1714 C1712 1.394 . S
C1714 C1715 1.369 . S
C1714 C1718 1.531 . S
C1715 C1714 1.369 . S
C1715 C1716 1.410 . S
C1715 C1723 1.503 . S
C1716 C1715 1.410 . S
C1716 C1717 1.392 . S
C1716 C1719 1.511 . S
C1717 C1713 1.376 . S
C1717 C1716 1.392 . S
C1717 H1729 0.929 . S
C1718 C1714 1.531 . S
C1718 H1730 0.960 . S
C1718 H1731 0.962 . S
C1718 H1732 0.960 . S
C1719 C1716 1.511 . S
C1719 H1733 0.961 . S
C1719 H1734 0.961 . S
C1719 H1735 0.961 . S
C1720 C1721 1.370 . S
C1720 C1722 1.363 . S
C1720 H1736 0.931 . S
C1721 C1720 1.370 . S
C1721 C1725 1.408 . S
C1722 C1720 1.363 . S
C1722 C1723 1.370 . S
C1722 C1726 1.524 . S
C1723 C1715 1.503 . S
C1723 C1722 1.370 . S
C1723 C1724 1.403 . S
C1724 C1723 1.403 . S
C1724 C1725 1.404 . S
C1724 C1727 1.539 . S
C1725 C1721 1.408 . S
C1725 C1724 1.404 . S
C1725 H1737 0.930 . S
C1726 C1722 1.524 . S
C1726 H1738 0.956 . S
C1726 H1739 0.961 . S
C1726 H1740 0.961 . S
C1727 C1724 1.539 . S
C1727 H1741 0.958 . S
C1727 H1742 0.961 . S
C1727 H1743 0.960 . S
H1728 C1712 0.931 . S
H1729 C1717 0.929 . S
H1730 C1718 0.960 . S
H1731 C1718 0.962 . S
H1732 C1718 0.960 . S
H1733 C1719 0.961 . S
H1734 C1719 0.961 . S
H1735 C1719 0.961 . S
H1736 C1720 0.931 . S
H1737 C1725 0.930 . S
H1738 C1726 0.956 . S
H1739 C1726 0.961 . S
H1740 C1726 0.961 . S
H1741 C1727 0.958 . S
H1742 C1727 0.961 . S
H1743 C1727 0.960 . S
C729 C641 1.933 . S
C721 C69 1.938 . S
C753 C125 0.758 . S
C761 C673 0.712 . S
C785 C217 1.951 . S
C793 C696 1.950 . S
C825 C600 1.533 . S
C817 C261 1.523 . S
C857 C683 1.636 . S
C849 C39 1.628 . S
C889 C712 1.741 . S
C881 C137 1.850 . S
C921 C616 1.649 . S
C913 C187 1.720 . S
C953 C651 1.917 . S
C945 C291 2.134 . S
C977 C51 0.675 . S
C985 C679 0.694 . S
C1009 C365 2.027 . S
C1017 C654 1.825 . S
C1041 C199 0.760 . S
C1049 C622 0.777 . S
C1081 C711 1.630 . S
C1073 C439 1.783 . S
C1113 C655 1.835 . S
C1105 C63 1.707 . S
C1137 C335 1.517 . S
C1145 C623 1.512 . S
C1169 C211 1.674 . S
C1177 C710 1.816 . S
C1209 C678 1.795 . S
C1201 C409 1.772 1_545 S
C1233 C495 0.699 . S
C1241 C705 0.752 . S
C1265 C347 0.905 . S
C1273 C609 0.865 . S
C1297 C587 1.886 . S
C1305 C632 1.902 . S
C1329 C421 0.683 . S
C1337 C664 0.713 . S
C1369 C619 1.640 . S
C1361 C507 1.679 . S
C1393 C359 1.519 . S
C1401 C648 1.479 . S
C1425 C557 1.685 . S
C1433 C680 1.624 . S
C1465 C715 1.658 . S
C1457 C433 1.753 . S
C1489 C513 1.880 . S
C1497 C615 1.744 . S
C1521 C143 1.815 . S
C1529 C718 1.659 . S
C1553 C569 0.696 . S
C1561 C686 0.742 . S
C1593 C647 1.424 . S
C1585 C285 1.467 . S
C1625 C719 1.627 . S
C1617 C483 1.608 . S
C1657 C687 1.796 . S
C1649 C113 1.713 . S
C1689 C646 1.810 . S
C1681 C581 1.658 . S
C1721 C614 0.992 . S
C1713 C273 1.005 . S
