# Generated by pormake.
# Topology pyr, (3,6)-cn, num edge types: 1
# Building blocks:
#     Node 0, Type 0, BuildingBlock: BETDAH_clean_linker_0, # of connection points: 3
#     Node 1, Type 0, BuildingBlock: BETDAH_clean_linker_0, # of connection points: 3
#     Node 2, Type 0, BuildingBlock: BETDAH_clean_linker_0, # of connection points: 3
#     Node 3, Type 0, BuildingBlock: BETDAH_clean_linker_0, # of connection points: 3
#     Node 4, Type 0, BuildingBlock: BETDAH_clean_linker_0, # of connection points: 3
#     Node 5, Type 0, BuildingBlock: BETDAH_clean_linker_0, # of connection points: 3
#     Node 6, Type 0, BuildingBlock: BETDAH_clean_linker_0, # of connection points: 3
#     Node 7, Type 0, BuildingBlock: BETDAH_clean_linker_0, # of connection points: 3
#     Node 8, Type 1, BuildingBlock: VOLQOD_clean_sbu_1, # of connection points: 6
#     Node 9, Type 1, BuildingBlock: VOLQOD_clean_sbu_1, # of connection points: 6
#     Node 10, Type 1, BuildingBlock: VOLQOD_clean_sbu_1, # of connection points: 6
#     Node 11, Type 1, BuildingBlock: VOLQOD_clean_sbu_1, # of connection points: 6
#     Edge 12, Type (0, 1), BuildingBlock: MIFKUJ_clean_linker_0, # of connection points: 2
#     Edge 13, Type (0, 1), BuildingBlock: MIFKUJ_clean_linker_0, # of connection points: 2
#     Edge 14, Type (0, 1), BuildingBlock: MIFKUJ_clean_linker_0, # of connection points: 2
#     Edge 15, Type (0, 1), BuildingBlock: MIFKUJ_clean_linker_0, # of connection points: 2
#     Edge 16, Type (0, 1), BuildingBlock: MIFKUJ_clean_linker_0, # of connection points: 2
#     Edge 17, Type (0, 1), BuildingBlock: MIFKUJ_clean_linker_0, # of connection points: 2
#     Edge 18, Type (0, 1), BuildingBlock: MIFKUJ_clean_linker_0, # of connection points: 2
#     Edge 19, Type (0, 1), BuildingBlock: MIFKUJ_clean_linker_0, # of connection points: 2
#     Edge 20, Type (0, 1), BuildingBlock: MIFKUJ_clean_linker_0, # of connection points: 2
#     Edge 21, Type (0, 1), BuildingBlock: MIFKUJ_clean_linker_0, # of connection points: 2
#     Edge 22, Type (0, 1), BuildingBlock: MIFKUJ_clean_linker_0, # of connection points: 2
#     Edge 23, Type (0, 1), BuildingBlock: MIFKUJ_clean_linker_0, # of connection points: 2
#     Edge 24, Type (0, 1), BuildingBlock: MIFKUJ_clean_linker_0, # of connection points: 2
#     Edge 25, Type (0, 1), BuildingBlock: MIFKUJ_clean_linker_0, # of connection points: 2
#     Edge 26, Type (0, 1), BuildingBlock: MIFKUJ_clean_linker_0, # of connection points: 2
#     Edge 27, Type (0, 1), BuildingBlock: MIFKUJ_clean_linker_0, # of connection points: 2
#     Edge 28, Type (0, 1), BuildingBlock: MIFKUJ_clean_linker_0, # of connection points: 2
#     Edge 29, Type (0, 1), BuildingBlock: MIFKUJ_clean_linker_0, # of connection points: 2
#     Edge 30, Type (0, 1), BuildingBlock: MIFKUJ_clean_linker_0, # of connection points: 2
#     Edge 31, Type (0, 1), BuildingBlock: MIFKUJ_clean_linker_0, # of connection points: 2
#     Edge 32, Type (0, 1), BuildingBlock: MIFKUJ_clean_linker_0, # of connection points: 2
#     Edge 33, Type (0, 1), BuildingBlock: MIFKUJ_clean_linker_0, # of connection points: 2
#     Edge 34, Type (0, 1), BuildingBlock: MIFKUJ_clean_linker_0, # of connection points: 2
#     Edge 35, Type (0, 1), BuildingBlock: MIFKUJ_clean_linker_0, # of connection points: 2
# Relax obj value: 0.102
# Max RMSD: 0.190
# Mean RMSD: 0.149
data_MOF--net-pry--node1-VOLQOD_clean_sbu_1--node2-BETDAH_clean_linker_0--edge1-MIFKUJ_clean_linker_0
_symmetry_space_group_name_H-M    P1
_symmetry_Int_Tables_number       1
_symmetry_cell_setting            triclinic
loop_
_symmetry_equiv_pos_as_xyz
'x, y, z'
_cell_length_a     46.556411
_cell_length_b     47.259857
_cell_length_c     49.243969
_cell_angle_alpha  90.50207
_cell_angle_beta   90.797391
_cell_angle_gamma 96.825649
loop_
_atom_site_label
_atom_site_type_symbol
_atom_site_fract_x
_atom_site_fract_y
_atom_site_fract_z
_atom_type_partial_charge
H0 H 0.17666 0.14698 0.19617 0.0
H1 H 0.16534 0.17469 0.1141 0.0
H2 H 0.10659 0.19516 0.17563 0.0
C3 C 0.16519 0.15836 0.1813 0.0
C4 C 0.14052 0.17074 0.18917 0.0
C5 C 0.17459 0.15974 0.1543 0.0
C6 C 0.15907 0.17407 0.13522 0.0
C7 C 0.13517 0.18749 0.14289 0.0
C8 C 0.12576 0.18573 0.16989 0.0
N9 N 0.1198 0.2006 0.1224 0.0
C10 C 0.10847 0.22633 0.12561 0.0
H11 H 0.42223 0.86233 0.71905 0.0
H12 H 0.38198 0.93666 0.69623 0.0
H13 H 0.40029 0.87624 0.63556 0.0
C14 C 0.41283 0.87501 0.70385 0.0
C15 C 0.41138 0.86551 0.67667 0.0
C16 C 0.40253 0.90086 0.71137 0.0
C17 C 0.39032 0.91688 0.6911 0.0
C18 C 0.38975 0.90796 0.66384 0.0
C19 C 0.40049 0.88261 0.65677 0.0
N20 N 0.38046 0.92518 0.64287 0.0
C21 C 0.35329 0.93447 0.6422 0.0
H22 H 0.63948 0.38386 0.95901 0.0
H23 H 0.61421 0.46219 0.92793 0.0
H24 H 0.54923 0.39378 0.94804 0.0
C25 C 0.62265 0.39663 0.95303 0.0
C26 C 0.59345 0.38516 0.95453 0.0
C27 C 0.63035 0.42453 0.94388 0.0
C28 C 0.60856 0.4408 0.93548 0.0
C29 C 0.57937 0.42952 0.93685 0.0
C30 C 0.5719 0.40208 0.94685 0.0
N31 N 0.55726 0.44531 0.92762 0.0
C32 C 0.55724 0.45526 0.90121 0.0
H33 H 0.86949 0.67097 0.44127 0.0
H34 H 0.93593 0.64738 0.38823 0.0
H35 H 0.87287 0.58312 0.41996 0.0
C36 C 0.87975 0.65495 0.43043 0.0
C37 C 0.86772 0.62632 0.43184 0.0
C38 C 0.90453 0.663 0.4149 0.0
C39 C 0.91719 0.64173 0.40072 0.0
C40 C 0.90589 0.61294 0.40287 0.0
C41 C 0.88152 0.60539 0.41864 0.0
N42 N 0.91862 0.59108 0.38938 0.0
C43 C 0.92856 0.59386 0.363 0.0
H44 H 0.9257 0.88848 0.85558 0.0
H45 H 0.88167 0.91222 0.92717 0.0
H46 H 0.89021 0.96849 0.85925 0.0
C47 C 0.91368 0.90332 0.86621 0.0
C48 C 0.90884 0.92903 0.85373 0.0
C49 C 0.90408 0.89703 0.89272 0.0
C50 C 0.88919 0.91676 0.90677 0.0
C51 C 0.88452 0.94263 0.8946 0.0
C52 C 0.8945 0.94863 0.8684 0.0
N53 N 0.87083 0.96368 0.90841 0.0
C54 C 0.8483 0.95784 0.92648 0.0
H55 H 0.65889 0.1108 0.38356 0.0
H56 H 0.65263 0.13636 0.46721 0.0
H57 H 0.58534 0.15029 0.41025 0.0
C58 C 0.64778 0.1209 0.3995 0.0
C59 C 0.62103 0.13068 0.3936 0.0
C60 C 0.65958 0.12277 0.42597 0.0
C61 C 0.64399 0.13446 0.44665 0.0
C62 C 0.61758 0.14469 0.44107 0.0
C63 C 0.60607 0.14286 0.4145 0.0
N64 N 0.60256 0.15545 0.46299 0.0
C65 C 0.58703 0.17871 0.46114 0.0
H66 H 0.37903 0.66435 0.11194 0.0
H67 H 0.36912 0.57839 0.141 0.0
H68 H 0.44281 0.63666 0.16666 0.0
C69 C 0.38727 0.64765 0.12366 0.0
C70 C 0.41312 0.65356 0.13873 0.0
C71 C 0.37112 0.6208 0.12484 0.0
C72 C 0.38151 0.59928 0.14014 0.0
C73 C 0.40727 0.60483 0.15523 0.0
C74 C 0.42288 0.63221 0.15496 0.0
N75 N 0.41699 0.58236 0.1703 0.0
C76 C 0.4297 0.58631 0.1959 0.0
H77 H 0.13289 0.39253 0.6024 0.0
H78 H 0.11322 0.4726 0.635 0.0
H79 H 0.04429 0.40736 0.61358 0.0
C80 C 0.1171 0.40625 0.60873 0.0
C81 C 0.08746 0.39626 0.60704 0.0
C82 C 0.12663 0.43388 0.61837 0.0
C83 C 0.10616 0.45137 0.62718 0.0
C84 C 0.07649 0.44162 0.62559 0.0
C85 C 0.06727 0.41444 0.61502 0.0
N86 N 0.05553 0.45875 0.63472 0.0
C87 C 0.05897 0.47356 0.65922 0.0
O88 O 0.0049 0.08547 0.5407 0.0
Zn89 Zn 0.98823 0.04491 0.5334 0.0
O90 O 0.01387 0.02553 0.51043 0.0
Zn91 Zn 0.99574 0.01708 0.4746 0.0
Zn92 Zn 0.05064 0.04985 0.50589 0.0
Zn93 Zn 0.02064 0.99016 0.52831 0.0
O94 O 0.99221 0.97469 0.46625 0.0
O95 O 0.0069 0.95629 0.50472 0.0
O96 O 0.94952 0.04574 0.51496 0.0
O97 O 0.95551 0.0293 0.47323 0.0
O98 O 0.01899 0.03783 0.44494 0.0
O99 O 0.05885 0.05761 0.46616 0.0
O100 O 0.08396 0.03217 0.52319 0.0
O101 O 0.98159 0.02585 0.56962 0.0
O102 O 0.06308 0.98992 0.53647 0.0
O103 O 0.00063 0.98535 0.56441 0.0
C104 C 0.02916 0.09969 0.5356 0.0
C105 C 0.9968 0.95329 0.48057 0.0
C106 C 0.04379 0.05248 0.44447 0.0
C107 C 0.93994 0.03964 0.49101 0.0
C108 C 0.08547 0.008 0.53411 0.0
C109 C 0.98697 0.00184 0.57861 0.0
O110 O 0.04873 0.08848 0.52297 0.0
O111 O 0.49931 0.07922 0.0231 0.0
Zn112 Zn 0.47841 0.04051 0.0308 0.0
O113 O 0.50198 0.01888 0.05428 0.0
Zn114 Zn 0.50951 0.98439 0.03488 0.0
Zn115 Zn 0.53891 0.04183 0.06347 0.0
Zn116 Zn 0.48108 0.00845 0.08777 0.0
O117 O 0.49652 0.94965 0.05654 0.0
O118 O 0.47697 0.96586 0.09359 0.0
O119 O 0.46871 0.02047 0.99469 0.0
O120 O 0.48892 0.98042 0.99849 0.0
O121 O 0.55215 0.98425 0.02853 0.0
O122 O 0.57302 0.02306 0.04987 0.0
O123 O 0.54344 0.04864 0.10402 0.0
O124 O 0.44108 0.04671 0.04911 0.0
O125 O 0.50259 0.0268 0.1204 0.0
O126 O 0.44153 0.02224 0.0874 0.0
C127 C 0.52361 0.09228 0.03076 0.0
C128 C 0.48427 0.94532 0.07932 0.0
C129 C 0.57477 0.00049 0.03592 0.0
C130 C 0.47405 0.99656 0.98504 0.0
C131 C 0.52697 0.04179 0.12396 0.0
C132 C 0.42914 0.03793 0.07111 0.0
O133 O 0.54072 0.08053 0.04627 0.0
O134 O 0.53656 0.53653 0.60796 0.0
Zn135 Zn 0.53206 0.55452 0.5715 0.0
O136 O 0.50466 0.52985 0.54842 0.0
Zn137 Zn 0.52424 0.51812 0.51635 0.0
Zn138 Zn 0.48937 0.49548 0.56816 0.0
Zn139 Zn 0.47317 0.55131 0.53696 0.0
O140 O 0.50613 0.53108 0.48233 0.0
O141 O 0.47188 0.55652 0.49621 0.0
O142 O 0.57153 0.56154 0.55433 0.0
O143 O 0.56569 0.53516 0.51669 0.0
O144 O 0.52306 0.47567 0.51343 0.0
O145 O 0.49862 0.45917 0.54943 0.0
O146 O 0.44594 0.4935 0.57146 0.0
O147 O 0.51765 0.59255 0.57899 0.0
O148 O 0.43494 0.53122 0.54866 0.0
O149 O 0.47682 0.59 0.55487 0.0
C150 C 0.52495 0.51375 0.61893 0.0
C151 C 0.48614 0.54649 0.47723 0.0
C152 C 0.5122 0.45493 0.52774 0.0
C153 C 0.58151 0.55203 0.53253 0.0
C154 C 0.42736 0.50902 0.56253 0.0
C155 C 0.49527 0.60346 0.57107 0.0
O156 O 0.50654 0.49631 0.60605 0.0
O157 O 0.97454 0.55187 0.0678 0.0
Zn158 Zn 0.97892 0.53383 0.03114 0.0
O159 O 0.0042 0.55937 0.00818 0.0
Zn160 Zn 0.98284 0.56848 0.97574 0.0
Zn161 Zn 0.01754 0.59487 0.02815 0.0
Zn162 Zn 0.03728 0.54013 0.99721 0.0
O163 O 0.00222 0.55729 0.94182 0.0
O164 O 0.0388 0.53512 0.95646 0.0
O165 O 0.93922 0.52435 0.01407 0.0
O166 O 0.94265 0.54771 0.97512 0.0
O167 O 0.97929 0.61037 0.97392 0.0
O168 O 0.00341 0.62937 0.01013 0.0
O169 O 0.06119 0.60064 0.0311 0.0
O170 O 0.9958 0.49698 0.0381 0.0
O171 O 0.07431 0.5633 0.00872 0.0
O172 O 0.03693 0.50183 0.01541 0.0
C173 C 0.98564 0.57501 0.07916 0.0
C174 C 0.02376 0.54381 0.93712 0.0
C175 C 0.98831 0.63195 0.98868 0.0
C176 C 0.92819 0.53126 0.99162 0.0
C177 C 0.08068 0.58637 0.02215 0.0
C178 C 0.0191 0.48753 0.03096 0.0
O179 O 0.00274 0.59315 0.06644 0.0
H180 H 0.17019 0.17827 0.23746 0.0
H181 H 0.15354 0.16198 0.28224 0.0
H182 H 0.06906 0.13362 0.24805 0.0
H183 H 0.08549 0.15059 0.20337 0.0
H184 H 0.06382 0.15446 0.29764 0.0
H185 H 0.12118 0.0878 0.25687 0.0
H186 H 0.16473 0.07343 0.23522 0.0
H187 H 0.21538 0.09969 0.30655 0.0
H188 H 0.17221 0.11467 0.32846 0.0
H189 H 0.01548 0.05082 0.39521 0.0
H190 H 0.03216 0.07383 0.35313 0.0
H191 H 0.11299 0.10591 0.39239 0.0
H192 H 0.09657 0.08284 0.43465 0.0
H193 H 0.12083 0.08457 0.34136 0.0
H194 H 0.06218 0.14955 0.38259 0.0
H195 H 0.0182 0.16367 0.40359 0.0
H196 H 0.96924 0.13928 0.33082 0.0
H197 H 0.01288 0.12462 0.30951 0.0
C198 C 0.14793 0.16901 0.23965 0.0
C199 C 0.12917 0.16552 0.21693 0.0
C200 C 0.13846 0.15957 0.26519 0.0
C201 C 0.11024 0.1459 0.26841 0.0
C202 C 0.09097 0.14396 0.24607 0.0
C203 C 0.10033 0.15374 0.22056 0.0
C204 C 0.10136 0.1321 0.29454 0.0
C205 C 0.07614 0.13897 0.30704 0.0
C206 C 0.11766 0.11218 0.30711 0.0
C207 C 0.14352 0.10261 0.2942 0.0
C208 C 0.14164 0.09065 0.26788 0.0
C209 C 0.16625 0.08239 0.25556 0.0
C210 C 0.19282 0.08571 0.26948 0.0
C211 C 0.1948 0.09718 0.29578 0.0
C212 C 0.17026 0.10554 0.30817 0.0
C213 C 0.03688 0.06261 0.39494 0.0
C214 C 0.05462 0.06503 0.41843 0.0
C215 C 0.04632 0.0759 0.37085 0.0
C216 C 0.07367 0.09192 0.3697 0.0
C217 C 0.09176 0.09374 0.39285 0.0
C218 C 0.0823 0.08056 0.41701 0.0
C219 C 0.08328 0.10688 0.34438 0.0
C220 C 0.10861 0.10016 0.33201 0.0
C221 C 0.06698 0.12677 0.33185 0.0
C222 C 0.04075 0.13574 0.34455 0.0
C223 C 0.04199 0.14699 0.37114 0.0
C224 C 0.01713 0.15513 0.38308 0.0
C225 C 0.99093 0.15231 0.36857 0.0
C226 C 0.98955 0.14142 0.34205 0.0
C227 C 0.01435 0.13322 0.33002 0.0
H228 H 0.9717 0.15861 0.37786 0.0
H229 H 0.21186 0.07934 0.25989 0.0
H230 H 0.41496 0.95629 0.72929 0.0
H231 H 0.42278 0.97365 0.77579 0.0
H232 H 0.40778 0.88744 0.80501 0.0
H233 H 0.39766 0.87005 0.75868 0.0
H234 H 0.38524 0.92 0.83867 0.0
H235 H 0.47779 0.92451 0.79686 0.0
H236 H 0.51456 0.93784 0.76221 0.0
H237 H 0.50998 0.02648 0.77908 0.0
H238 H 0.47287 0.01366 0.81359 0.0
H239 H 0.4663 0.94258 0.96369 0.0
H240 H 0.45026 0.92786 0.9176 0.0
H241 H 0.44237 0.01524 0.89759 0.0
H242 H 0.45785 0.03015 0.94387 0.0
H243 H 0.47548 0.98374 0.85982 0.0
H244 H 0.38362 0.97639 0.90464 0.0
H245 H 0.34921 0.96028 0.94051 0.0
H246 H 0.35593 0.87303 0.9192 0.0
H247 H 0.39073 0.88864 0.88345 0.0
C248 C 0.41264 0.94098 0.74556 0.0
C249 C 0.40585 0.91164 0.74 0.0
C250 C 0.41759 0.95096 0.77223 0.0
C251 C 0.41661 0.93183 0.79397 0.0
C252 C 0.40894 0.90266 0.78862 0.0
C253 C 0.4035 0.89269 0.76199 0.0
C254 C 0.42419 0.94214 0.82215 0.0
C255 C 0.40513 0.93369 0.84326 0.0
C256 C 0.44998 0.96033 0.82829 0.0
C257 C 0.47234 0.96812 0.8076 0.0
C258 C 0.48447 0.94684 0.79304 0.0
C259 C 0.50539 0.95431 0.77345 0.0
C260 C 0.51454 0.98299 0.7684 0.0
C261 C 0.50283 0.00427 0.78298 0.0
C262 C 0.48187 0.99692 0.80257 0.0
C263 C 0.46101 0.95867 0.94954 0.0
C264 C 0.46335 0.98755 0.95744 0.0
C265 C 0.45176 0.9502 0.92326 0.0
C266 C 0.44508 0.97047 0.90427 0.0
C267 C 0.4474 0.9993 0.91202 0.0
C268 C 0.45613 0.00774 0.93847 0.0
C269 C 0.43656 0.96156 0.87607 0.0
C270 C 0.45553 0.9702 0.85505 0.0
C271 C 0.41102 0.94312 0.87013 0.0
C272 C 0.39 0.93369 0.89154 0.0
C273 C 0.37797 0.95377 0.90776 0.0
C274 C 0.35834 0.94473 0.92804 0.0
C275 C 0.35044 0.91565 0.93218 0.0
C276 C 0.36209 0.89555 0.916 0.0
C277 C 0.38175 0.90449 0.8957 0.0
H278 H 0.33524 0.90869 0.94789 0.0
H279 H 0.53074 0.98873 0.75322 0.0
H280 H 0.57833 0.50514 0.87835 0.0
H281 H 0.5767 0.5167 0.82976 0.0
H282 H 0.53251 0.43277 0.81242 0.0
H283 H 0.53451 0.42124 0.86082 0.0
H284 H 0.57446 0.44686 0.77648 0.0
H285 H 0.49575 0.49077 0.81464 0.0
H286 H 0.47306 0.52219 0.84599 0.0
H287 H 0.52749 0.59481 0.81644 0.0
H288 H 0.55079 0.56373 0.78515 0.0
H289 H 0.50955 0.4651 0.64766 0.0
H290 H 0.5195 0.45668 0.69556 0.0
H291 H 0.56631 0.54084 0.70315 0.0
H292 H 0.55645 0.54955 0.65524 0.0
H293 H 0.52703 0.52911 0.74387 0.0
H294 H 0.60309 0.48496 0.70295 0.0
H295 H 0.62457 0.45313 0.67113 0.0
H296 H 0.57416 0.38051 0.70544 0.0
H297 H 0.55205 0.41196 0.73723 0.0
C298 C 0.56829 0.48932 0.86402 0.0
C299 C 0.55637 0.46246 0.87294 0.0
C300 C 0.56731 0.49588 0.83639 0.0
C301 C 0.55426 0.47565 0.81751 0.0
C302 C 0.54269 0.44866 0.82661 0.0
C303 C 0.5437 0.44214 0.85417 0.0
C304 C 0.55237 0.48249 0.78826 0.0
C305 C 0.56388 0.4647 0.76932 0.0
C306 C 0.53919 0.50618 0.77899 0.0
C307 C 0.52525 0.52488 0.7978 0.0
C308 C 0.50306 0.5134 0.81501 0.0
C309 C 0.49006 0.53115 0.83272 0.0
C310 C 0.4989 0.56046 0.83327 0.0
C311 C 0.52071 0.57209 0.81604 0.0
C312 C 0.53381 0.55442 0.7983 0.0
C313 C 0.52212 0.48178 0.65943 0.0
C314 C 0.5322 0.50801 0.64758 0.0
C315 C 0.52788 0.47688 0.68679 0.0
C316 C 0.54379 0.49808 0.70282 0.0
C317 C 0.55402 0.5242 0.69108 0.0
C318 C 0.54844 0.52908 0.66367 0.0
C319 C 0.5488 0.49327 0.7321 0.0
C320 C 0.53787 0.51144 0.75103 0.0
C321 C 0.56241 0.46986 0.74135 0.0
C322 C 0.57572 0.45086 0.72232 0.0
C323 C 0.5964 0.46222 0.70357 0.0
C324 C 0.60873 0.44424 0.68556 0.0
C325 C 0.60069 0.41482 0.68622 0.0
C326 C 0.58035 0.40331 0.70494 0.0
C327 C 0.56793 0.4212 0.72297 0.0
H328 H 0.61026 0.40094 0.67227 0.0
H329 H 0.48879 0.57418 0.84699 0.0
H330 H 0.97073 0.62877 0.33869 0.0
H331 H 0.98312 0.62827 0.29024 0.0
H332 H 0.91509 0.55911 0.27594 0.0
H333 H 0.90312 0.55943 0.32424 0.0
H334 H 0.96455 0.54916 0.25176 0.0
H335 H 0.90683 0.62789 0.25878 0.0
H336 H 0.89539 0.67387 0.27723 0.0
H337 H 0.97715 0.71478 0.25018 0.0
H338 H 0.98923 0.66894 0.23187 0.0
H339 H 0.94513 0.54518 0.11084 0.0
H340 H 0.93757 0.55147 0.15932 0.0
H341 H 0.00534 0.62218 0.16189 0.0
H342 H 0.01263 0.61647 0.11313 0.0
H343 H 0.96116 0.6333 0.19273 0.0
H344 H 0.01863 0.55686 0.18373 0.0
H345 H 0.032 0.51153 0.16557 0.0
H346 H 0.95397 0.46691 0.19703 0.0
H347 H 0.93992 0.51207 0.21507 0.0
C348 C 0.95856 0.61354 0.32504 0.0
C349 C 0.93608 0.59411 0.33479 0.0
C350 C 0.96552 0.61332 0.29747 0.0
C351 C 0.94988 0.59376 0.27946 0.0
C352 C 0.92746 0.57432 0.28947 0.0
C353 C 0.92058 0.57455 0.31694 0.0
C354 C 0.95679 0.59315 0.25018 0.0
C355 C 0.96354 0.56747 0.2388 0.0
C356 C 0.95647 0.61734 0.23349 0.0
C357 C 0.94905 0.64494 0.24421 0.0
C358 C 0.92245 0.64666 0.25693 0.0
C359 C 0.91584 0.67269 0.26734 0.0
C360 C 0.93557 0.69721 0.26495 0.0
C361 C 0.96191 0.69576 0.25205 0.0
C362 C 0.96863 0.66977 0.24164 0.0
C363 C 0.95834 0.5622 0.12163 0.0
C364 C 0.97966 0.58016 0.10813 0.0
C365 C 0.95406 0.5657 0.14939 0.0
C366 C 0.9713 0.58693 0.16433 0.0
C367 C 0.9919 0.60557 0.15077 0.0
C368 C 0.99605 0.60223 0.12291 0.0
C369 C 0.96819 0.58908 0.1942 0.0
C370 C 0.96232 0.61502 0.2057 0.0
C371 C 0.96962 0.56521 0.21112 0.0
C372 C 0.97812 0.53791 0.20058 0.0
C373 C 0.00423 0.53741 0.18664 0.0
C374 C 0.01194 0.51174 0.17638 0.0
C375 C 0.99382 0.48635 0.18009 0.0
C376 C 0.96798 0.48659 0.19415 0.0
C377 C 0.96015 0.51222 0.20443 0.0
H378 H 0.99983 0.4665 0.17211 0.0
H379 H 0.93042 0.71734 0.27305 0.0
H380 H 0.19002 0.10808 0.17065 0.0
H381 H 0.23193 0.08521 0.15666 0.0
H382 H 0.25831 0.15587 0.10423 0.0
H383 H 0.21692 0.1793 0.1186 0.0
H384 H 0.25993 0.10287 0.07917 0.0
H385 H 0.29269 0.15083 0.16327 0.0
H386 H 0.28889 0.16196 0.21202 0.0
H387 H 0.29096 0.07378 0.23127 0.0
H388 H 0.2944 0.06207 0.18257 0.0
H389 H 0.40327 0.08152 0.0491 0.0
H390 H 0.35875 0.09937 0.0632 0.0
H391 H 0.3464 0.03376 0.12376 0.0
H392 H 0.39169 0.01643 0.11041 0.0
H393 H 0.33548 0.08109 0.14523 0.0
H394 H 0.30471 0.0321 0.06303 0.0
H395 H 0.30624 0.01865 0.01463 0.0
H396 H 0.29761 0.10477 0.99188 0.0
H397 H 0.29643 0.11884 0.04017 0.0
C398 C 0.20491 0.11899 0.15642 0.0
C399 C 0.20009 0.14564 0.14585 0.0
C400 C 0.22878 0.10578 0.14833 0.0
C401 C 0.24829 0.1189 0.1295 0.0
C402 C 0.24344 0.14532 0.11871 0.0
C403 C 0.21969 0.15863 0.12689 0.0
C404 C 0.27386 0.10519 0.12105 0.0
C405 C 0.27664 0.09836 0.09351 0.0
C406 C 0.29508 0.09842 0.13996 0.0
C407 C 0.29352 0.10554 0.16926 0.0
C408 C 0.29215 0.13379 0.17789 0.0
C409 C 0.29009 0.14021 0.20551 0.0
C410 C 0.2896 0.11858 0.22472 0.0
C411 C 0.2913 0.0905 0.21636 0.0
C412 C 0.29334 0.08397 0.18875 0.0
C413 C 0.39098 0.07068 0.06526 0.0
C414 C 0.40102 0.04746 0.07855 0.0
C415 C 0.36539 0.08086 0.07325 0.0
C416 C 0.34885 0.06767 0.09429 0.0
C417 C 0.35871 0.0443 0.10746 0.0
C418 C 0.38457 0.03435 0.09973 0.0
C419 C 0.32189 0.07896 0.10313 0.0
C420 C 0.31876 0.08536 0.13078 0.0
C421 C 0.30011 0.08495 0.08434 0.0
C422 C 0.30073 0.07657 0.05525 0.0
C423 C 0.30335 0.04822 0.04772 0.0
C424 C 0.30412 0.04048 0.02029 0.0
C425 C 0.30209 0.06086 1.00019 0.0
C426 C 0.29921 0.08901 0.00747 0.0
C427 C 0.29845 0.09688 0.03487 0.0
H428 H 0.30269 0.05482 0.97897 0.0
H429 H 0.28796 0.12358 0.24609 0.0
H430 H 0.34027 0.98779 0.63386 0.0
H431 H 0.29351 0.00116 0.61808 0.0
H432 H 0.25647 0.91312 0.62193 0.0
H433 H 0.30337 0.89983 0.6374 0.0
H434 H 0.24509 0.93543 0.57405 0.0
H435 H 0.23735 0.96271 0.66707 0.0
H436 H 0.25269 0.987 0.71029 0.0
H437 H 0.25531 0.06829 0.67155 0.0
H438 H 0.24036 0.04446 0.62797 0.0
H439 H 0.09835 0.95642 0.55225 0.0
H440 H 0.14376 0.94512 0.57233 0.0
H441 H 0.18148 0.03209 0.56184 0.0
H442 H 0.13597 0.04371 0.54167 0.0
H443 H 0.19233 0.01097 0.61332 0.0
H444 H 0.20023 0.98281 0.52009 0.0
H445 H 0.18395 0.9579 0.4774 0.0
H446 H 0.18023 0.8773 0.51756 0.0
H447 H 0.19612 0.90176 0.56062 0.0
C448 C 0.32189 0.9715 0.63187 0.0
C449 C 0.32502 0.94291 0.637 0.0
C450 C 0.29524 0.9791 0.62288 0.0
C451 C 0.27141 0.95815 0.61894 0.0
C452 C 0.27452 0.92962 0.62483 0.0
C453 C 0.30117 0.92207 0.63382 0.0
C454 C 0.24391 0.96567 0.60691 0.0
C455 C 0.23334 0.95164 0.58291 0.0
C456 C 0.22896 0.98737 0.61802 0.0
C457 C 0.23803 0.00178 0.64418 0.0
C458 C 0.24145 0.98576 0.6677 0.0
C459 C 0.25002 0.99944 0.69228 0.0
C460 C 0.25505 0.02916 0.69365 0.0
C461 C 0.25145 0.04527 0.67045 0.0
C462 C 0.2429 0.03168 0.6458 0.0
C463 C 0.11629 0.97318 0.55408 0.0
C464 C 0.11351 0.00098 0.54525 0.0
C465 C 0.14227 0.96664 0.56554 0.0
C466 C 0.16603 0.98773 0.56844 0.0
C467 C 0.16338 0.01552 0.55977 0.0
C468 C 0.13741 0.02207 0.54811 0.0
C469 C 0.19357 0.98063 0.58061 0.0
C470 C 0.20414 0.99476 0.60456 0.0
C471 C 0.20849 0.95893 0.56954 0.0
C472 C 0.1991 0.94414 0.54364 0.0
C473 C 0.19572 0.95978 0.51987 0.0
C474 C 0.18661 0.94574 0.4956 0.0
C475 C 0.18099 0.91604 0.49478 0.0
C476 C 0.18456 0.90031 0.51823 0.0
C477 C 0.19365 0.91425 0.54257 0.0
H478 H 0.17393 0.90521 0.47597 0.0
H479 H 0.26167 0.03972 0.7127 0.0
H480 H 0.65404 0.4757 0.9648 0.0
H481 H 0.70537 0.49385 0.96865 0.0
H482 H 0.72736 0.41899 0.92661 0.0
H483 H 0.67603 0.40046 0.92342 0.0
H484 H 0.76061 0.42826 0.9685 0.0
H485 H 0.73315 0.4861 0.89636 0.0
H486 H 0.70413 0.51879 0.87247 0.0
H487 H 0.72624 0.58269 0.93421 0.0
H488 H 0.75507 0.55023 0.9587 0.0
H489 H 0.90092 0.53285 0.94225 0.0
H490 H 0.85122 0.514 0.93027 0.0
H491 H 0.83704 0.48643 0.01282 0.0
H492 H 0.88701 0.50443 0.02477 0.0
H493 H 0.80138 0.52676 0.94551 0.0
H494 H 0.7898 0.42716 0.0148 0.0
H495 H 0.82037 0.39254 0.03343 0.0
H496 H 0.87909 0.40845 0.96733 0.0
H497 H 0.84869 0.44286 0.94812 0.0
C498 C 0.66984 0.46337 0.95603 0.0
C499 C 0.66114 0.4367 0.94383 0.0
C500 C 0.69916 0.47376 0.95819 0.0
C501 C 0.72027 0.45791 0.94771 0.0
C502 C 0.7115 0.43155 0.93494 0.0
C503 C 0.68221 0.421 0.93308 0.0
C504 C 0.75151 0.46812 0.95136 0.0
C505 C 0.76952 0.44977 0.96336 0.0
C506 C 0.76335 0.49599 0.94417 0.0
C507 C 0.74608 0.51563 0.92948 0.0
C508 C 0.73165 0.50704 0.90495 0.0
C509 C 0.71526 0.52555 0.89128 0.0
C510 C 0.71329 0.55277 0.90184 0.0
C511 C 0.72777 0.56158 0.92607 0.0
C512 C 0.74416 0.54315 0.93984 0.0
C513 C 0.88726 0.5227 0.95786 0.0
C514 C 0.89798 0.52001 0.98445 0.0
C515 C 0.85882 0.512 0.95098 0.0
C516 C 0.84047 0.49851 0.97054 0.0
C517 C 0.85096 0.49622 0.99722 0.0
C518 C 0.87952 0.50662 0.00406 0.0
C519 C 0.81028 0.48707 0.96311 0.0
C520 C 0.79247 0.50521 0.95048 0.0
C521 C 0.79883 0.45872 0.96894 0.0
C522 C 0.81708 0.43779 0.98017 0.0
C523 C 0.80917 0.42318 0.00419 0.0
C524 C 0.82648 0.40361 0.01486 0.0
C525 C 0.8517 0.39837 0.00162 0.0
C526 C 0.85961 0.41261 0.97762 0.0
C527 C 0.84236 0.43217 0.96685 0.0
H528 H 0.86509 0.38323 0.00993 0.0
H529 H 0.7006 0.56707 0.89123 0.0
H530 H 0.85038 0.64495 0.48131 0.0
H531 H 0.80259 0.63441 0.50176 0.0
H532 H 0.77424 0.57979 0.43353 0.0
H533 H 0.82156 0.59059 0.41283 0.0
H534 H 0.73593 0.61733 0.44541 0.0
H535 H 0.78956 0.55165 0.49359 0.0
H536 H 0.82943 0.53808 0.52229 0.0
H537 H 0.80505 0.59152 0.58693 0.0
H538 H 0.76525 0.60573 0.55844 0.0
H539 H 0.60898 0.53685 0.48703 0.0
H540 H 0.65839 0.55231 0.47356 0.0
H541 H 0.67264 0.60304 0.5468 0.0
H542 H 0.62294 0.58743 0.56073 0.0
H543 H 0.71839 0.57291 0.53553 0.0
H544 H 0.66233 0.63566 0.48872 0.0
H545 H 0.6224 0.64924 0.4601 0.0
H546 H 0.65137 0.60204 0.39297 0.0
H547 H 0.69124 0.58781 0.4213 0.0
C548 C 0.83394 0.63065 0.47075 0.0
C549 C 0.83972 0.61853 0.4455 0.0
C550 C 0.80675 0.62453 0.48251 0.0
C551 C 0.78494 0.60626 0.46917 0.0
C552 C 0.79079 0.59393 0.44415 0.0
C553 C 0.81792 0.59992 0.43247 0.0
C554 C 0.75562 0.60056 0.48068 0.0
C555 C 0.73206 0.60739 0.46501 0.0
C556 C 0.75074 0.58852 0.50665 0.0
C557 C 0.77466 0.58002 0.52377 0.0
C558 C 0.79287 0.56072 0.51383 0.0
C559 C 0.81542 0.55287 0.53008 0.0
C560 C 0.81983 0.564 0.55639 0.0
C561 C 0.80165 0.58296 0.56653 0.0
C562 C 0.77908 0.59091 0.55035 0.0
C563 C 0.62252 0.55127 0.50039 0.0
C564 C 0.61188 0.56102 0.52493 0.0
C565 C 0.65077 0.56017 0.49257 0.0
C566 C 0.66901 0.57913 0.50899 0.0
C567 C 0.65881 0.58848 0.53379 0.0
C568 C 0.63041 0.57959 0.54167 0.0
C569 C 0.69868 0.58905 0.49994 0.0
C570 C 0.72229 0.58313 0.51606 0.0
C571 C 0.70367 0.60201 0.47437 0.0
C572 C 0.67968 0.6105 0.45722 0.0
C573 C 0.66006 0.62798 0.46792 0.0
C574 C 0.63745 0.63583 0.45174 0.0
C575 C 0.63434 0.62648 0.42475 0.0
C576 C 0.65382 0.60926 0.41388 0.0
C577 C 0.67644 0.60133 0.42999 0.0
H578 H 0.61689 0.63265 0.41223 0.0
H579 H 0.83729 0.55789 0.56894 0.0
H580 H 0.05302 0.23775 0.12844 0.0
H581 H 0.03498 0.28305 0.11695 0.0
H582 H 0.12259 0.32125 0.10415 0.0
H583 H 0.14051 0.27618 0.11617 0.0
H584 H 0.09235 0.35896 0.12744 0.0
H585 H 0.07849 0.29415 0.05108 0.0
H586 H 0.06041 0.24927 0.02731 0.0
H587 H 0.97299 0.26285 0.04493 0.0
H588 H 0.9906 0.30767 0.06912 0.0
H589 H 0.07203 0.46789 0.03301 0.0
H590 H 0.0844 0.42389 0.05356 0.0
H591 H 0.99516 0.40096 0.07462 0.0
H592 H 0.98258 0.4452 0.05446 0.0
H593 H 0.0226 0.35587 0.05001 0.0
H594 H 0.03734 0.4233 0.12343 0.0
H595 H 0.05642 0.46879 0.14555 0.0
H596 H 0.14335 0.45085 0.13174 0.0
H597 H 0.12476 0.40537 0.1092 0.0
C598 C 0.06834 0.25609 0.12378 0.0
C599 C 0.09806 0.25379 0.12329 0.0
C600 C 0.05806 0.28185 0.11701 0.0
C601 C 0.07739 0.30549 0.10924 0.0
C602 C 0.10725 0.30339 0.11005 0.0
C603 C 0.11748 0.27769 0.11693 0.0
C604 C 0.06662 0.33179 0.09869 0.0
C605 C 0.07724 0.35826 0.11041 0.0
C606 C 0.0465 0.33097 0.07673 0.0
C607 C 0.03587 0.30407 0.06218 0.0
C608 C 0.05542 0.28745 0.05007 0.0
C609 C 0.04526 0.26205 0.03649 0.0
C610 C 0.01557 0.25317 0.03469 0.0
C611 C 0.99598 0.26973 0.04639 0.0
C612 C 0.00603 0.29513 0.06003 0.0
C613 C 0.05497 0.45345 0.04187 0.0
C614 C 0.0263 0.46009 0.04209 0.0
C615 C 0.06212 0.42838 0.05374 0.0
C616 C 0.04073 0.4093 0.06579 0.0
C617 C 0.01198 0.41547 0.06549 0.0
C618 C 0.00487 0.44077 0.05399 0.0
C619 C 0.04854 0.38289 0.07863 0.0
C620 C 0.03743 0.35647 0.06726 0.0
C621 C 0.06835 0.38378 0.10075 0.0
C622 C 0.07964 0.41104 0.1144 0.0
C623 C 0.06052 0.42916 0.1249 0.0
C624 C 0.07125 0.45492 0.13756 0.0
C625 C 0.10108 0.46275 0.13999 0.0
C626 C 0.12024 0.44477 0.12982 0.0
C627 C 0.10962 0.41898 0.11714 0.0
H628 H 0.10935 0.48271 0.14979 0.0
H629 H 0.00775 0.2335 0.02416 0.0
H630 H 0.55187 0.34537 0.93269 0.0
H631 H 0.54 0.2958 0.94626 0.0
H632 H 0.60588 0.30745 0.00913 0.0
H633 H 0.61755 0.35727 0.99606 0.0
H634 H 0.60832 0.25853 0.97853 0.0
H635 H 0.53678 0.30449 0.02604 0.0
H636 H 0.49748 0.33487 0.03014 0.0
H637 H 0.4446 0.27991 0.97466 0.0
H638 H 0.48377 0.24941 0.96993 0.0
H639 H 0.56875 0.13014 0.04946 0.0
H640 H 0.58076 0.17979 0.03636 0.0
H641 H 0.50925 0.17132 0.97901 0.0
H642 H 0.49662 0.12186 0.99249 0.0
H643 H 0.50991 0.21897 0.00686 0.0
H644 H 0.58042 0.17321 0.95851 0.0
H645 H 0.61953 0.14284 0.95287 0.0
H646 H 0.67404 0.19701 0.00774 0.0
H647 H 0.63509 0.2275 0.014 0.0
C648 C 0.56354 0.33754 0.94969 0.0
C649 C 0.58561 0.3553 0.96335 0.0
C650 C 0.55681 0.30918 0.95732 0.0
C651 C 0.57198 0.29805 0.97878 0.0
C652 C 0.59401 0.31566 0.99246 0.0
C653 C 0.60069 0.34407 0.98491 0.0
C654 C 0.5651 0.2679 0.98667 0.0
C655 C 0.58692 0.24991 0.9851 0.0
C656 C 0.53697 0.25661 0.99448 0.0
C657 C 0.51332 0.27482 0.99744 0.0
C658 C 0.51686 0.299 0.01455 0.0
C659 C 0.49459 0.31622 0.01702 0.0
C660 C 0.46859 0.30936 0.00262 0.0
C661 C 0.46477 0.28522 0.98578 0.0
C662 C 0.48699 0.26794 0.98322 0.0
C663 C 0.55567 0.13877 0.03394 0.0
C664 C 0.53174 0.12201 0.02201 0.0
C665 C 0.56263 0.16714 0.0264 0.0
C666 C 0.5461 0.17919 0.00648 0.0
C667 C 0.5223 0.16247 0.99444 0.0
C668 C 0.51516 0.13417 0.00213 0.0
C669 C 0.55313 0.20944 0.9987 0.0
C670 C 0.53133 0.2275 1.00029 0.0
C671 C 0.58124 0.22074 0.9907 0.0
C672 C 0.60473 0.20248 0.98693 0.0
C673 C 0.60067 0.17852 0.96954 0.0
C674 C 0.62282 0.1613 0.9662 0.0
C675 C 0.64922 0.16794 0.97999 0.0
C676 C 0.65356 0.19187 0.99709 0.0
C677 C 0.63146 0.20914 1.00053 0.0
H678 H 0.66635 0.15459 0.97738 0.0
H679 H 0.45137 0.32272 0.00455 0.0
H680 H 0.87599 0.71069 0.41468 0.0
H681 H 0.89678 0.76011 0.41905 0.0
H682 H 0.98262 0.73459 0.4149 0.0
H683 H 0.96198 0.68472 0.41316 0.0
H684 H 0.98381 0.77007 0.45221 0.0
H685 H 0.95048 0.77261 0.36196 0.0
H686 H 0.9171 0.76426 0.32264 0.0
H687 H 0.85922 0.8172 0.35928 0.0
H688 H 0.89203 0.82554 0.39904 0.0
H689 H 0.99614 0.93636 0.42719 0.0
H690 H 0.98652 0.88758 0.4091 0.0
H691 H 0.97056 0.85636 0.49031 0.0
H692 H 0.98173 0.90457 0.50844 0.0
H693 H 0.9436 0.84996 0.40621 0.0
H694 H 0.98748 0.79216 0.50016 0.0
H695 H 0.02695 0.80077 0.53423 0.0
H696 H 0.07528 0.85852 0.48016 0.0
H697 H 0.03631 0.84996 0.4456 0.0
C698 C 0.89932 0.71544 0.41495 0.0
C699 C 0.91724 0.69348 0.41398 0.0
C700 C 0.91123 0.74392 0.41688 0.0
C701 C 0.94135 0.75131 0.41696 0.0
C702 C 0.95931 0.72953 0.41489 0.0
C703 C 0.94742 0.70094 0.41357 0.0
C704 C 0.95392 0.78149 0.4215 0.0
C705 C 0.97518 0.78749 0.44192 0.0
C706 C 0.94354 0.80439 0.40749 0.0
C707 C 0.92369 0.79958 0.38358 0.0
C708 C 0.93055 0.78233 0.36173 0.0
C709 C 0.91173 0.77762 0.33935 0.0
C710 C 0.88604 0.79017 0.33848 0.0
C711 C 0.87914 0.8075 0.35998 0.0
C712 C 0.89786 0.81227 0.38243 0.0
C713 C 0.99072 0.91899 0.44112 0.0
C714 C 0.99 0.92418 0.46923 0.0
C715 C 0.98519 0.89114 0.43078 0.0
C716 C 0.97844 0.8681 0.44836 0.0
C717 C 0.97672 0.87353 0.47636 0.0
C718 C 0.98291 0.90117 0.48671 0.0
C719 C 0.97253 0.83838 0.43767 0.0
C720 C 0.95256 0.8325 0.41612 0.0
C721 C 0.98509 0.8156 0.44976 0.0
C722 C 0.00885 0.82054 0.47034 0.0
C723 C 0.0066 0.80656 0.49546 0.0
C724 C 0.02888 0.81147 0.51488 0.0
C725 C 0.05358 0.83023 0.50938 0.0
C726 C 0.0561 0.84406 0.48442 0.0
C727 C 0.03391 0.83921 0.46492 0.0
H728 H 0.07078 0.83403 0.52446 0.0
H729 H 0.8715 0.78648 0.32114 0.0
H730 H 0.46075 0.84337 0.69295 0.0
H731 H 0.47726 0.79841 0.67806 0.0
H732 H 0.40093 0.78067 0.62721 0.0
H733 H 0.38405 0.82506 0.64244 0.0
H734 H 0.41245 0.73378 0.654 0.0
H735 H 0.46546 0.80709 0.60062 0.0
H736 H 0.49787 0.85154 0.59364 0.0
H737 H 0.5661 0.81699 0.63709 0.0
H738 H 0.53394 0.77245 0.64465 0.0
H739 H 0.44897 0.63226 0.55994 0.0
H740 H 0.43749 0.67651 0.58063 0.0
H741 H 0.51648 0.68258 0.62822 0.0
H742 H 0.52838 0.63824 0.60743 0.0
H743 H 0.50635 0.73434 0.60739 0.0
H744 H 0.45423 0.65941 0.65762 0.0
H745 H 0.42185 0.61477 0.66372 0.0
H746 H 0.3519 0.65221 0.62606 0.0
H747 H 0.38398 0.69696 0.61936 0.0
C748 C 0.44736 0.8297 0.67884 0.0
C749 C 0.4212 0.83784 0.66872 0.0
C750 C 0.45692 0.80415 0.67019 0.0
C751 C 0.44047 0.78633 0.65128 0.0
C752 C 0.41401 0.7941 0.64174 0.0
C753 C 0.40451 0.81959 0.65029 0.0
C754 C 0.45083 0.75978 0.64094 0.0
C755 C 0.43289 0.73394 0.64364 0.0
C756 C 0.47784 0.75986 0.62805 0.0
C757 C 0.4972 0.78658 0.62347 0.0
C758 C 0.4873 0.80907 0.60888 0.0
C759 C 0.50564 0.83426 0.60479 0.0
C760 C 0.534 0.83712 0.61499 0.0
C761 C 0.54411 0.81477 0.62925 0.0
C762 C 0.52584 0.78954 0.63343 0.0
C763 C 0.46407 0.64302 0.57466 0.0
C764 C 0.48953 0.63152 0.58213 0.0
C765 C 0.45738 0.66829 0.58657 0.0
C766 C 0.47589 0.68258 0.6063 0.0
C767 C 0.50183 0.67179 0.61313 0.0
C768 C 0.50856 0.64643 0.60124 0.0
C769 C 0.46772 0.70848 0.62003 0.0
C770 C 0.48606 0.73415 0.61801 0.0
C771 C 0.44106 0.70827 0.63355 0.0
C772 C 0.42159 0.68148 0.63779 0.0
C773 C 0.43199 0.65806 0.65047 0.0
C774 C 0.41369 0.63275 0.65406 0.0
C775 C 0.38485 0.63064 0.64523 0.0
C776 C 0.37425 0.65387 0.63287 0.0
C777 C 0.39248 0.67923 0.62919 0.0
H778 H 0.37072 0.61101 0.64801 0.0
H779 H 0.54817 0.85664 0.6118 0.0
H780 H 0.90877 0.89193 0.81035 0.0
H781 H 0.92282 0.90301 0.7636 0.0
H782 H 0.94327 0.99163 0.78563 0.0
H783 H 0.93065 0.98072 0.83264 0.0
H784 H 0.90603 0.98031 0.73831 0.0
H785 H 0.99658 0.9566 0.77589 0.0
H786 H 0.02754 0.92562 0.79969 0.0
H787 H 0.00698 0.86039 0.7389 0.0
H788 H 0.97554 0.89085 0.71493 0.0
H789 H 0.97447 0.03636 0.62048 0.0
H790 H 0.96134 0.02264 0.66671 0.0
H791 H 0.96494 0.93428 0.64569 0.0
H792 H 0.9795 0.9481 0.59967 0.0
H793 H 0.98842 0.94343 0.69246 0.0
H794 H 0.89897 0.96476 0.65405 0.0
H795 H 0.86569 0.99305 0.62982 0.0
H796 H 0.88026 0.05881 0.69088 0.0
H797 H 0.91394 0.03107 0.71529 0.0
C798 C 0.91678 0.91371 0.80545 0.0
C799 C 0.91843 0.93543 0.8254 0.0
C800 C 0.9246 0.92001 0.77865 0.0
C801 C 0.93398 0.94814 0.77121 0.0
C802 C 0.93586 0.96982 0.79097 0.0
C803 C 0.92845 0.96351 0.81783 0.0
C804 C 0.94135 0.95513 0.74268 0.0
C805 C 0.92422 0.97256 0.7283 0.0
C806 C 0.96445 0.94413 0.72946 0.0
C807 C 0.98346 0.92588 0.74378 0.0
C808 C 0.99845 0.93555 0.76773 0.0
C809 C 0.01613 0.91811 0.78122 0.0
C810 C 0.01916 0.89102 0.77086 0.0
C811 C 0.00458 0.88136 0.74693 0.0
C812 C 0.98684 0.89871 0.73337 0.0
C813 C 0.97232 0.01398 0.62565 0.0
C814 C 0.97789 0.9933 0.60636 0.0
C815 C 0.96465 0.00612 0.6521 0.0
C816 C 0.96156 0.97732 0.65968 0.0
C817 C 0.96712 0.95663 0.64041 0.0
C818 C 0.97536 0.96454 0.61407 0.0
C819 C 0.95319 0.96892 0.68785 0.0
C820 C 0.97009 0.95117 0.70225 0.0
C821 C 0.9295 0.97921 0.70095 0.0
C822 C 0.90918 0.99594 0.68637 0.0
C823 C 0.89523 0.98534 0.66221 0.0
C824 C 0.87627 0.00127 0.64846 0.0
C825 C 0.87092 0.02774 0.65877 0.0
C826 C 0.88445 0.03831 0.6829 0.0
C827 C 0.90346 0.02248 0.69672 0.0
H828 H 0.85623 0.04004 0.6481 0.0
H829 H 0.03286 0.87755 0.78133 0.0
H830 H 0.64741 0.14392 0.34546 0.0
H831 H 0.62862 0.13157 0.29965 0.0
H832 H 0.54769 0.09488 0.33322 0.0
H833 H 0.56645 0.10719 0.37918 0.0
H834 H 0.57125 0.05861 0.29721 0.0
H835 H 0.54923 0.15492 0.29946 0.0
H836 H 0.55931 0.20689 0.30643 0.0
H837 H 0.62319 0.21139 0.24406 0.0
H838 H 0.61379 0.15935 0.23699 0.0
H839 H 0.49734 0.03166 0.17121 0.0
H840 H 0.51159 0.04902 0.2168 0.0
H841 H 0.59101 0.09217 0.18567 0.0
H842 H 0.57676 0.07521 0.1398 0.0
H843 H 0.56655 0.12583 0.22089 0.0
H844 H 0.59089 0.03021 0.21986 0.0
H845 H 0.58235 0.97814 0.21293 0.0
H846 H 0.51604 0.97221 0.27305 0.0
H847 H 0.52391 0.02434 0.28007 0.0
C848 C 0.62548 0.13355 0.34302 0.0
C849 C 0.60837 0.1265 0.36584 0.0
C850 C 0.61474 0.12661 0.31687 0.0
C851 C 0.58674 0.11236 0.31305 0.0
C852 C 0.56934 0.10592 0.33575 0.0
C853 C 0.57998 0.11314 0.36193 0.0
C854 C 0.57641 0.10269 0.28549 0.0
C855 C 0.5697 0.07333 0.28062 0.0
C856 C 0.5753 0.12187 0.2637 0.0
C857 C 0.58099 0.15318 0.26788 0.0
C858 C 0.56561 0.16695 0.28739 0.0
C859 C 0.57117 0.19643 0.29133 0.0
C860 C 0.59193 0.21243 0.27575 0.0
C861 C 0.60713 0.19897 0.25614 0.0
C862 C 0.60168 0.16948 0.25214 0.0
C863 C 0.51789 0.04478 0.17398 0.0
C864 C 0.53595 0.05191 0.15178 0.0
C865 C 0.52603 0.05465 0.20012 0.0
C866 C 0.5525 0.07167 0.20471 0.0
C867 C 0.57049 0.07905 0.1826 0.0
C868 C 0.56236 0.06921 0.1564 0.0
C869 C 0.56139 0.08173 0.23259 0.0
C870 C 0.56792 0.11112 0.23751 0.0
C871 C 0.56255 0.06257 0.25442 0.0
C872 C 0.55778 0.03121 0.25028 0.0
C873 C 0.57432 0.01783 0.23144 0.0
C874 C 0.56963 0.9883 0.22752 0.0
C875 C 0.54861 0.97189 0.24248 0.0
C876 C 0.53228 0.98496 0.26144 0.0
C877 C 0.53686 0.0145 0.26542 0.0
H878 H 0.54501 0.94902 0.23942 0.0
H879 H 0.59619 0.23525 0.27882 0.0
H880 H 0.45655 0.54641 0.22063 0.0
H881 H 0.46711 0.54363 0.26938 0.0
H882 H 0.43476 0.62449 0.28236 0.0
H883 H 0.42434 0.6273 0.23335 0.0
H884 H 0.4842 0.61791 0.31435 0.0
H885 H 0.3911 0.56736 0.29396 0.0
H886 H 0.3559 0.53312 0.26914 0.0
H887 H 0.40301 0.4644 0.29309 0.0
H888 H 0.43878 0.49832 0.31772 0.0
H889 H 0.45992 0.59107 0.45719 0.0
H890 H 0.45093 0.60164 0.40927 0.0
H891 H 0.48829 0.52627 0.38503 0.0
H892 H 0.49781 0.51585 0.43258 0.0
H893 H 0.4335 0.5332 0.35976 0.0
H894 H 0.52769 0.58421 0.37826 0.0
H895 H 0.56274 0.61835 0.40329 0.0
H896 H 0.51296 0.68638 0.38332 0.0
H897 H 0.47724 0.65247 0.35857 0.0
C898 C 0.45231 0.56381 0.23389 0.0
C899 C 0.43979 0.58707 0.22362 0.0
C900 C 0.45818 0.56217 0.26165 0.0
C901 C 0.45134 0.58368 0.27947 0.0
C902 C 0.44016 0.6077 0.26892 0.0
C903 C 0.43423 0.6093 0.24107 0.0
C904 C 0.45405 0.57992 0.30917 0.0
C905 C 0.47277 0.59966 0.32439 0.0
C906 C 0.43931 0.55594 0.32215 0.0
C907 C 0.41776 0.53543 0.30748 0.0
C908 C 0.39409 0.54498 0.29375 0.0
C909 C 0.37401 0.52563 0.27975 0.0
C910 C 0.37725 0.49661 0.27948 0.0
C911 C 0.40055 0.48689 0.29329 0.0
C912 C 0.42072 0.50617 0.30729 0.0
C913 C 0.46612 0.57674 0.44162 0.0
C914 C 0.47963 0.55268 0.4486 0.0
C915 C 0.46108 0.58286 0.41433 0.0
C916 C 0.46907 0.56475 0.39374 0.0
C917 C 0.48201 0.54047 0.40069 0.0
C918 C 0.48751 0.53463 0.42784 0.0
C919 C 0.46398 0.5709 0.36482 0.0
C920 C 0.44471 0.5516 0.34976 0.0
C921 C 0.47813 0.59529 0.35209 0.0
C922 C 0.49958 0.61573 0.36688 0.0
C923 C 0.52403 0.60639 0.37945 0.0
C924 C 0.54407 0.62571 0.39353 0.0
C925 C 0.54005 0.65452 0.39496 0.0
C926 C 0.51601 0.66405 0.38225 0.0
C927 C 0.49585 0.64478 0.36819 0.0
H928 H 0.55561 0.66945 0.40585 0.0
H929 H 0.36168 0.48166 0.26863 0.0
H930 H 0.10112 0.46906 0.69625 0.0
H931 H 0.1017 0.48497 0.74393 0.0
H932 H 0.02158 0.52053 0.7301 0.0
H933 H 0.02128 0.50489 0.68241 0.0
H934 H 0.05879 0.55495 0.76299 0.0
H935 H 0.02135 0.4549 0.75676 0.0
H936 H 0.02351 0.40456 0.74424 0.0
H937 H 0.0997 0.40338 0.79418 0.0
H938 H 0.09819 0.45387 0.80672 0.0
H939 H 0.99458 0.5564 0.89111 0.0
H940 H 0.00699 0.54779 0.84413 0.0
H941 H 0.08285 0.51108 0.87106 0.0
H942 H 0.0703 0.51916 0.91839 0.0
H943 H 0.05461 0.47901 0.8323 0.0
H944 H 0.08887 0.57755 0.84289 0.0
H945 H 0.08659 0.62779 0.85566 0.0
H946 H 0.0173 0.6323 0.798 0.0
H947 H 0.01887 0.58196 0.78514 0.0
C948 C 0.084 0.48075 0.70343 0.0
C949 C 0.06119 0.48594 0.68604 0.0
C950 C 0.08425 0.48968 0.73057 0.0
C951 C 0.0615 0.50363 0.74061 0.0
C952 C 0.03934 0.50984 0.72276 0.0
C953 C 0.03914 0.50092 0.69563 0.0
C954 C 0.05965 0.51016 0.76998 0.0
C955 C 0.05772 0.53836 0.77816 0.0
C956 C 0.05905 0.4886 0.78982 0.0
C957 C 0.05985 0.45822 0.78243 0.0
C958 C 0.03869 0.44396 0.76491 0.0
C959 C 0.03977 0.4154 0.75783 0.0
C960 C 0.06178 0.40081 0.76834 0.0
C961 C 0.0827 0.41473 0.78602 0.0
C962 C 0.08173 0.4433 0.79312 0.0
C963 C 0.01397 0.54656 0.88714 0.0
C964 C 0.03147 0.53852 0.90858 0.0
C965 C 0.02114 0.54182 0.8602 0.0
C966 C 0.04612 0.52923 0.85405 0.0
C967 C 0.06356 0.52096 0.87536 0.0
C968 C 0.05634 0.52561 0.90239 0.0
C969 C 0.05326 0.52379 0.82535 0.0
C970 C 0.05614 0.49574 0.81725 0.0
C971 C 0.05479 0.54553 0.80563 0.0
C972 C 0.05386 0.57589 0.81319 0.0
C973 C 0.073 0.58919 0.83307 0.0
C974 C 0.07186 0.6177 0.8403 0.0
C975 C 0.05178 0.63321 0.82769 0.0
C976 C 0.03284 0.62026 0.80776 0.0
C977 C 0.03387 0.59174 0.80047 0.0
H978 H 0.05093 0.65528 0.83332 0.0
H979 H 0.06258 0.37869 0.76284 0.0
H980 H 0.80162 0.91807 0.92383 0.0
H981 H 0.75535 0.92046 0.9467 0.0
H982 H 0.79145 0.99786 0.9879 0.0
H983 H 0.83772 0.99511 0.9654 0.0
H984 H 0.75584 0.96537 0.02096 0.0
H985 H 0.75215 0.00029 0.92948 0.0
H986 H 0.75631 0.99753 0.87968 0.0
H987 H 0.69064 0.92557 0.87679 0.0
H988 H 0.68637 0.92769 0.92666 0.0
H989 H 0.62814 0.03019 0.04657 0.0
H990 H 0.67521 0.01851 0.03158 0.0
H991 H 0.63384 0.94234 0.99195 0.0
H992 H 0.5867 0.95398 0.0065 0.0
H993 H 0.67165 0.97108 0.95919 0.0
H994 H 0.67285 0.93898 0.05118 0.0
H995 H 0.66866 0.94308 0.10088 0.0
H996 H 0.73875 0.01093 0.10296 0.0
H997 H 0.74309 0.00751 0.0532 0.0
C998 C 0.79973 0.93513 0.93831 0.0
C999 C 0.82296 0.95635 0.94311 0.0
C1000 C 0.77333 0.93662 0.95119 0.0
C1001 C 0.76979 0.9596 0.9687 0.0
C1002 C 0.79365 0.97996 0.97451 0.0
C1003 C 0.82003 0.97839 0.96169 0.0
C1004 C 0.74084 0.96372 0.97934 0.0
C1005 C 0.73746 0.96681 0.00747 0.0
C1006 C 0.71672 0.96518 0.96178 0.0
C1007 C 0.71917 0.96395 0.9318 0.0
C1008 C 0.73875 0.98375 0.91824 0.0
C1009 C 0.74111 0.98232 0.89 0.0
C1010 C 0.72381 0.96133 0.87509 0.0
C1011 C 0.70406 0.94178 0.88838 0.0
C1012 C 0.70165 0.94309 0.91662 0.0
C1013 C 0.62903 0.01087 0.03479 0.0
C1014 C 0.60356 0.99306 0.02774 0.0
C1015 C 0.65601 0.00414 0.02635 0.0
C1016 C 0.65811 0.97939 0.01085 0.0
C1017 C 0.63276 0.96152 0.00392 0.0
C1018 C 0.60581 0.96822 0.01231 0.0
C1019 C 0.68656 0.97273 0.00085 0.0
C1020 C 0.68989 0.96932 0.97278 0.0
C1021 C 0.7106 0.97112 0.01847 0.0
C1022 C 0.70812 0.97315 0.04842 0.0
C1023 C 0.68722 0.95492 0.0622 0.0
C1024 C 0.68485 0.9571 0.09039 0.0
C1025 C 0.70338 0.9773 0.10506 0.0
C1026 C 0.72438 0.99532 0.09157 0.0
C1027 C 0.72683 0.99325 0.06337 0.0
H1028 H 0.70151 0.97895 0.12688 0.0
H1029 H 0.72566 0.96026 0.85323 0.0
H1030 H 0.7078 0.1265 0.39404 0.0
H1031 H 0.75443 0.10983 0.40432 0.0
H1032 H 0.72313 0.08017 0.48223 0.0
H1033 H 0.67597 0.0955 0.47175 0.0
H1034 H 0.77843 0.11514 0.48321 0.0
H1035 H 0.72857 0.03261 0.43697 0.0
H1036 H 0.70109 0.00764 0.3989 0.0
H1037 H 0.77102 0.03306 0.34507 0.0
H1038 H 0.79876 0.05855 0.38276 0.0
H1039 H 0.89456 0.04283 0.52483 0.0
H1040 H 0.84633 0.05464 0.51306 0.0
H1041 H 0.87062 0.063 0.42896 0.0
H1042 H 0.9185 0.04973 0.44049 0.0
H1043 H 0.81836 0.03921 0.43052 0.0
H1044 H 0.86824 0.12223 0.47362 0.0
H1045 H 0.89666 0.15004 0.50951 0.0
H1046 H 0.82863 0.12809 0.56628 0.0
H1047 H 0.79995 0.09982 0.5308 0.0
C1048 C 0.71057 0.11599 0.41319 0.0
C1049 C 0.68799 0.11241 0.43206 0.0
C1050 C 0.73732 0.10664 0.41907 0.0
C1051 C 0.74213 0.09376 0.444 0.0
C1052 C 0.71982 0.09019 0.46292 0.0
C1053 C 0.69293 0.09917 0.45693 0.0
C1054 C 0.77067 0.08451 0.45059 0.0
C1055 C 0.78707 0.09828 0.47197 0.0
C1056 C 0.7822 0.06321 0.43525 0.0
C1057 C 0.76562 0.04773 0.41263 0.0
C1058 C 0.73799 0.03309 0.41696 0.0
C1059 C 0.72238 0.0188 0.39546 0.0
C1060 C 0.73427 0.01883 0.36956 0.0
C1061 C 0.76182 0.03308 0.36513 0.0
C1062 C 0.77751 0.04744 0.38656 0.0
C1063 C 0.88957 0.04706 0.50381 0.0
C1064 C 0.91036 0.04556 0.48361 0.0
C1065 C 0.86202 0.05399 0.49711 0.0
C1066 C 0.85498 0.06044 0.47021 0.0
C1067 C 0.87552 0.05824 0.44988 0.0
C1068 C 0.9029 0.05069 0.45649 0.0
C1069 C 0.82634 0.06977 0.46335 0.0
C1070 C 0.80987 0.05608 0.44185 0.0
C1071 C 0.81495 0.09159 0.47826 0.0
C1072 C 0.83207 0.10869 0.49961 0.0
C1073 C 0.85942 0.12318 0.4938 0.0
C1074 C 0.87557 0.13905 0.51406 0.0
C1075 C 0.86449 0.14077 0.54017 0.0
C1076 C 0.8372 0.1267 0.54605 0.0
C1077 C 0.82098 0.11078 0.52587 0.0
H1078 H 0.87702 0.15306 0.55583 0.0
H1079 H 0.72215 0.00775 0.35294 0.0
H1080 H 0.32039 0.61479 0.15099 0.0
H1081 H 0.2717 0.61069 0.13104 0.0
H1082 H 0.30794 0.612 0.05069 0.0
H1083 H 0.35689 0.61788 0.07093 0.0
H1084 H 0.26686 0.64281 0.0501 0.0
H1085 H 0.27366 0.54906 0.08142 0.0
H1086 H 0.28334 0.5114 0.11346 0.0
H1087 H 0.21702 0.53505 0.16588 0.0
H1088 H 0.20722 0.57314 0.13435 0.0
H1089 H 0.12814 0.57497 0.99417 0.0
H1090 H 0.17886 0.58407 0.00916 0.0
H1091 H 0.153 0.62522 0.0818 0.0
H1092 H 0.10227 0.61695 0.06664 0.0
H1093 H 0.18866 0.57178 0.08366 0.0
H1094 H 0.18451 0.66752 0.04883 0.0
H1095 H 0.17506 0.7014 0.01292 0.0
H1096 H 0.23718 0.66771 0.9619 0.0
H1097 H 0.24667 0.63331 0.99738 0.0
C1098 C 0.3178 0.61395 0.12908 0.0
C1099 C 0.34205 0.61626 0.11237 0.0
C1100 C 0.29004 0.61147 0.11767 0.0
C1101 C 0.28604 0.61038 0.08932 0.0
C1102 C 0.31044 0.61267 0.0726 0.0
C1103 C 0.3383 0.61584 0.08407 0.0
C1104 C 0.25638 0.60762 0.0773 0.0
C1105 C 0.24993 0.62698 0.05723 0.0
C1106 C 0.2341 0.58706 0.08658 0.0
C1107 C 0.23989 0.56413 0.10561 0.0
C1108 C 0.26129 0.54638 0.09988 0.0
C1109 C 0.26677 0.52493 0.11794 0.0
C1110 C 0.25085 0.52088 0.14172 0.0
C1111 C 0.22936 0.53823 0.14747 0.0
C1112 C 0.22381 0.55973 0.12949 0.0
C1113 C 0.13333 0.58645 0.01308 0.0
C1114 C 0.11132 0.59522 0.02929 0.0
C1115 C 0.16224 0.59165 0.02155 0.0
C1116 C 0.16945 0.60526 0.04651 0.0
C1117 C 0.14768 0.61478 0.06239 0.0
C1118 C 0.11881 0.61014 0.05367 0.0
C1119 C 0.19937 0.60723 0.05712 0.0
C1120 C 0.20578 0.58753 0.0767 0.0
C1121 C 0.22168 0.6269 0.0469 0.0
C1122 C 0.21602 0.64761 0.02562 0.0
C1123 C 0.19591 0.66711 0.02984 0.0
C1124 C 0.19061 0.68647 0.00959 0.0
C1125 C 0.20544 0.68664 0.9851 0.0
C1126 C 0.22567 0.66751 0.98085 0.0
C1127 C 0.23103 0.6481 0.00103 0.0
H1128 H 0.20131 0.70165 0.96945 0.0
H1129 H 0.25513 0.50426 0.15567 0.0
H1130 H 0.15159 0.4851 0.59981 0.0
H1131 H 0.2032 0.50016 0.59353 0.0
H1132 H 0.22371 0.42164 0.62878 0.0
H1133 H 0.17215 0.40666 0.63554 0.0
H1134 H 0.26238 0.46846 0.64492 0.0
H1135 H 0.21962 0.42609 0.56222 0.0
H1136 H 0.18405 0.42068 0.5244 0.0
H1137 H 0.21084 0.50662 0.49984 0.0
H1138 H 0.24629 0.51268 0.5378 0.0
H1139 H 0.4023 0.46315 0.59102 0.0
H1140 H 0.35142 0.45233 0.60295 0.0
H1141 H 0.33159 0.52787 0.56156 0.0
H1142 H 0.38223 0.53863 0.54916 0.0
H1143 H 0.29241 0.48383 0.54934 0.0
H1144 H 0.3362 0.52622 0.63084 0.0
H1145 H 0.37155 0.53225 0.66881 0.0
H1146 H 0.34304 0.44753 0.69581 0.0
H1147 H 0.30776 0.44084 0.65776 0.0
C1148 C 0.16714 0.47134 0.60678 0.0
C1149 C 0.15787 0.4446 0.61794 0.0
C1150 C 0.19657 0.47987 0.60301 0.0
C1151 C 0.21719 0.4618 0.61033 0.0
C1152 C 0.20811 0.43582 0.62289 0.0
C1153 C 0.17869 0.42722 0.62656 0.0
C1154 C 0.24797 0.46907 0.60323 0.0
C1155 C 0.26903 0.47157 0.62403 0.0
C1156 C 0.2565 0.47362 0.57599 0.0
C1157 C 0.23539 0.46993 0.55301 0.0
C1158 C 0.21777 0.4439 0.54888 0.0
C1159 C 0.19766 0.44071 0.5274 0.0
C1160 C 0.19514 0.46332 0.50977 0.0
C1161 C 0.21279 0.48914 0.51354 0.0
C1162 C 0.2329 0.49247 0.53502 0.0
C1163 C 0.38713 0.47745 0.58439 0.0
C1164 C 0.39641 0.5018 0.56916 0.0
C1165 C 0.35807 0.47131 0.59137 0.0
C1166 C 0.33779 0.48951 0.58346 0.0
C1167 C 0.34689 0.51357 0.56793 0.0
C1168 C 0.37589 0.51969 0.56088 0.0
C1169 C 0.30697 0.48331 0.59104 0.0
C1170 C 0.28584 0.4809 0.57028 0.0
C1171 C 0.29843 0.47895 0.61832 0.0
C1172 C 0.31953 0.48294 0.64129 0.0
C1173 C 0.33762 0.50879 0.64475 0.0
C1174 C 0.35762 0.51234 0.66631 0.0
C1175 C 0.35959 0.49026 0.68467 0.0
C1176 C 0.34151 0.4646 0.68155 0.0
C1177 C 0.32149 0.46093 0.66001 0.0
H1178 H 0.37509 0.49304 0.70134 0.0
H1179 H 0.17955 0.4608 0.49315 0.0
H1180 H 0.89795 0.84346 0.87051 0.0
H1181 H 0.91134 0.79974 0.89074 0.0
H1182 H 0.93801 0.84592 0.96454 0.0
H1183 H 0.92499 0.88996 0.9442 0.0
H1184 H 0.97833 0.81166 0.94748 0.0
H1185 H 0.87679 0.80165 0.96384 0.0
H1186 H 0.82507 0.80116 0.95212 0.0
H1187 H 0.83032 0.73239 0.89553 0.0
H1188 H 0.8822 0.73274 0.90661 0.0
H1189 H 0.99764 0.68248 0.01742 0.0
H1190 H 0.98265 0.72858 0.00472 0.0
H1191 H 0.94641 0.6918 0.92948 0.0
H1192 H 0.96074 0.64573 0.94217 0.0
H1193 H 0.90985 0.72308 0.95214 0.0
H1194 H 0.01179 0.73564 0.93266 0.0
H1195 H 0.06379 0.73636 0.94329 0.0
H1196 H 0.05802 0.80028 0.00484 0.0
H1197 H 0.00586 0.79967 0.9948 0.0
C1198 C 0.90662 0.8443 0.89106 0.0
C1199 C 0.91041 0.87015 0.90576 0.0
C1200 C 0.9141 0.81927 0.90267 0.0
C1201 C 0.9255 0.81952 0.92923 0.0
C1202 C 0.92918 0.84525 0.94405 0.0
C1203 C 0.92152 0.87031 0.93249 0.0
C1204 C 0.93424 0.79298 0.94108 0.0
C1205 C 0.96326 0.7924 0.94899 0.0
C1206 C 0.9147 0.76774 0.94256 0.0
C1207 C 0.88345 0.76738 0.93591 0.0
C1208 C 0.86697 0.78657 0.94874 0.0
C1209 C 0.83762 0.78629 0.94224 0.0
C1210 C 0.82443 0.7668 0.92306 0.0
C1211 C 0.84057 0.74749 0.91037 0.0
C1212 C 0.86994 0.7477 0.91678 0.0
C1213 C 0.98659 0.68423 0.99812 0.0
C1214 C 0.98041 0.66034 0.98084 0.0
C1215 C 0.97809 0.71064 0.99085 0.0
C1216 C 0.96353 0.71374 0.96605 0.0
C1217 C 0.95751 0.68995 0.94876 0.0
C1218 C 0.96583 0.66359 0.95604 0.0
C1219 C 0.95411 0.74153 0.95804 0.0
C1220 C 0.92491 0.74237 0.95089 0.0
C1221 C 0.97352 0.76696 0.95717 0.0
C1222 C 0.00486 0.76736 0.9632 0.0
C1223 C 0.02156 0.74967 0.94861 0.0
C1224 C 0.05107 0.7501 0.9545 0.0
C1225 C 0.06418 0.76828 0.97479 0.0
C1226 C 0.04782 0.78616 0.98917 0.0
C1227 C 0.01829 0.78579 0.98338 0.0
H1228 H 0.08703 0.76858 0.97931 0.0
H1229 H 0.8017 0.76661 0.91805 0.0
H1230 H 0.43293 0.68226 0.0941 0.0
H1231 H 0.45236 0.73256 0.09143 0.0
H1232 H 0.44701 0.74077 0.17849 0.0
H1233 H 0.42781 0.69007 0.18123 0.0
H1234 H 0.41865 0.78054 0.14881 0.0
H1235 H 0.5114 0.74779 0.1531 0.0
H1236 H 0.54911 0.71757 0.14118 0.0
H1237 H 0.54839 0.74736 0.05909 0.0
H1238 H 0.51035 0.77745 0.07039 0.0
H1239 H 0.47113 0.92784 0.13114 0.0
H1240 H 0.46507 0.87895 0.148 0.0
H1241 H 0.47969 0.84742 0.06745 0.0
H1242 H 0.48661 0.89605 0.0507 0.0
H1243 H 0.5084 0.82056 0.10291 0.0
H1244 H 0.41071 0.84538 0.09552 0.0
H1245 H 0.37104 0.87411 0.10507 0.0
H1246 H 0.37921 0.8578 0.19031 0.0
H1247 H 0.41919 0.82924 0.18128 0.0
C1248 C 0.43653 0.69469 0.11269 0.0
C1249 C 0.42898 0.68248 0.13785 0.0
C1250 C 0.44767 0.72333 0.11118 0.0
C1251 C 0.4512 0.7403 0.13478 0.0
C1252 C 0.44455 0.72793 0.16009 0.0
C1253 C 0.43377 0.69906 0.16165 0.0
C1254 C 0.4592 0.77141 0.13235 0.0
C1255 C 0.43861 0.78947 0.13941 0.0
C1256 C 0.4849 0.7828 0.11949 0.0
C1257 C 0.50788 0.76478 0.11258 0.0
C1258 C 0.51911 0.74774 0.13245 0.0
C1259 C 0.54059 0.73066 0.12581 0.0
C1260 C 0.55111 0.73051 0.09939 0.0
C1261 C 0.54022 0.74749 0.07955 0.0
C1262 C 0.51873 0.76461 0.08608 0.0
C1263 C 0.47293 0.91046 0.11702 0.0
C1264 C 0.47928 0.91583 0.08956 0.0
C1265 C 0.46945 0.88253 0.12668 0.0
C1266 C 0.47175 0.85947 0.10895 0.0
C1267 C 0.478 0.86485 0.08155 0.0
C1268 C 0.4818 0.8927 0.07197 0.0
C1269 C 0.46742 0.82961 0.11857 0.0
C1270 C 0.48871 0.81179 0.11285 0.0
C1271 C 0.44216 0.81835 0.13233 0.0
C1272 C 0.41816 0.8355 0.13777 0.0
C1273 C 0.40419 0.84812 0.11632 0.0
C1274 C 0.38163 0.86433 0.12164 0.0
C1275 C 0.37268 0.86786 0.14829 0.0
C1276 C 0.38621 0.85511 0.16968 0.0
C1277 C 0.40881 0.8389 0.16448 0.0
H1278 H 0.3552 0.88041 0.15236 0.0
H1279 H 0.56773 0.71727 0.09429 0.0
H1280 H 0.10934 0.36648 0.56566 0.0
H1281 H 0.09648 0.31648 0.55332 0.0
H1282 H 0.03014 0.30907 0.61405 0.0
H1283 H 0.04404 0.35869 0.62762 0.0
H1284 H 0.05966 0.26595 0.61748 0.0
H1285 H 0.01392 0.30994 0.54465 0.0
H1286 H 0.00985 0.34299 0.50671 0.0
H1287 H 0.07463 0.3044 0.46317 0.0
H1288 H 0.07939 0.27136 0.50103 0.0
H1289 H 0.99653 0.12895 0.56922 0.0
H1290 H 0.00408 0.1797 0.581 0.0
H1291 H 0.08035 0.19018 0.53168 0.0
H1292 H 0.07309 0.13947 0.5198 0.0
H1293 H 0.04249 0.23145 0.52252 0.0
H1294 H 0.08862 0.18872 0.59777 0.0
H1295 H 0.09057 0.15542 0.63584 0.0
H1296 H 0.02139 0.19181 0.67478 0.0
H1297 H 0.01876 0.22508 0.63673 0.0
C1298 C 0.09208 0.35421 0.57649 0.0
C1299 C 0.07783 0.3666 0.59774 0.0
C1300 C 0.08448 0.32569 0.56915 0.0
C1301 C 0.0621 0.30906 0.58254 0.0
C1302 C 0.04742 0.3215 0.60338 0.0
C1303 C 0.05521 0.34997 0.61093 0.0
C1304 C 0.05509 0.27834 0.57573 0.0
C1305 C 0.05538 0.25848 0.59675 0.0
C1306 C 0.05 0.2685 0.54865 0.0
C1307 C 0.04719 0.28833 0.5258 0.0
C1308 C 0.02747 0.30864 0.52708 0.0
C1309 C 0.02501 0.32735 0.50557 0.0
C1310 C 0.04202 0.32584 0.48257 0.0
C1311 C 0.06148 0.30557 0.48101 0.0
C1312 C 0.06405 0.28682 0.50248 0.0
C1313 C 0.01498 0.14201 0.56094 0.0
C1314 C 0.03425 0.13014 0.54361 0.0
C1315 C 0.01927 0.17097 0.56773 0.0
C1316 C 0.04281 0.18859 0.55725 0.0
C1317 C 0.06204 0.17688 0.53993 0.0
C1318 C 0.05793 0.14788 0.53331 0.0
C1319 C 0.04733 0.21931 0.56421 0.0
C1320 C 0.04656 0.23909 0.54322 0.0
C1321 C 0.05163 0.22909 0.59133 0.0
C1322 C 0.05329 0.20918 0.61427 0.0
C1323 C 0.07365 0.18945 0.61434 0.0
C1324 C 0.07492 0.17062 0.63594 0.0
C1325 C 0.05606 0.17144 0.65768 0.0
C1326 C 0.03595 0.19116 0.65791 0.0
C1327 C 0.03458 0.21003 0.63634 0.0
H1328 H 0.05707 0.15684 0.67439 0.0
H1329 H 0.04008 0.34034 0.46594 0.0
H1330 H 0.58624 0.22108 0.42462 0.0
H1331 H 0.56822 0.2673 0.4324 0.0
H1332 H 0.54019 0.24012 0.51223 0.0
H1333 H 0.55766 0.19389 0.50416 0.0
H1334 H 0.50182 0.27102 0.48919 0.0
H1335 H 0.6055 0.28031 0.503 0.0
H1336 H 0.65583 0.27669 0.4897 0.0
H1337 H 0.64676 0.33341 0.42329 0.0
H1338 H 0.59623 0.33707 0.43602 0.0
H1339 H 0.50071 0.40525 0.55629 0.0
H1340 H 0.50896 0.35721 0.54192 0.0
H1341 H 0.53945 0.38986 0.46463 0.0
H1342 H 0.532 0.43788 0.47904 0.0
H1343 H 0.57488 0.35612 0.48384 0.0
H1344 H 0.47191 0.34963 0.47204 0.0
H1345 H 0.42172 0.3533 0.48569 0.0
H1346 H 0.42912 0.29177 0.54827 0.0
H1347 H 0.4795 0.288 0.53523 0.0
C1348 C 0.57567 0.22493 0.44354 0.0
C1349 C 0.57314 0.20423 0.46382 0.0
C1350 C 0.56557 0.2513 0.44806 0.0
C1351 C 0.55323 0.25734 0.47308 0.0
C1352 C 0.54959 0.23598 0.4928 0.0
C1353 C 0.55957 0.20964 0.48822 0.0
C1354 C 0.54587 0.28638 0.47955 0.0
C1355 C 0.51782 0.28963 0.4882 0.0
C1356 C 0.5666 0.31075 0.47783 0.0
C1357 C 0.59702 0.30872 0.47029 0.0
C1358 C 0.61419 0.29185 0.48546 0.0
C1359 C 0.64275 0.28981 0.47803 0.0
C1360 C 0.65446 0.30474 0.45562 0.0
C1361 C 0.63765 0.32181 0.44062 0.0
C1362 C 0.60906 0.32389 0.44794 0.0
C1363 C 0.509 0.40217 0.53617 0.0
C1364 C 0.51578 0.42547 0.51888 0.0
C1365 C 0.51356 0.37465 0.52791 0.0
C1366 C 0.52457 0.36982 0.50205 0.0
C1367 C 0.53098 0.39301 0.48467 0.0
C1368 C 0.52668 0.4205 0.49297 0.0
C1369 C 0.53076 0.3409 0.49349 0.0
C1370 C 0.5587 0.33763 0.48457 0.0
C1371 C 0.50991 0.31658 0.49498 0.0
C1372 C 0.47958 0.31873 0.50281 0.0
C1373 C 0.46291 0.33704 0.48885 0.0
C1374 C 0.43441 0.3391 0.49645 0.0
C1375 C 0.42226 0.32283 0.51788 0.0
C1376 C 0.43856 0.30439 0.5317 0.0
C1377 C 0.46709 0.30225 0.52419 0.0
H1378 H 0.40019 0.32446 0.52374 0.0
H1379 H 0.67657 0.30314 0.4499 0.0
loop_
_geom_bond_atom_site_label_1
_geom_bond_atom_site_label_2
_geom_bond_distance
_geom_bond_site_symmetry_2
_ccdc_geom_bond_type
H0 C3 0.929 . S
H1 C6 0.929 . S
H2 C8 0.930 . S
C3 H0 0.929 . S
C3 C4 1.398 . S
C3 C5 1.396 . S
C4 C3 1.398 . S
C4 C8 1.407 . S
C5 C3 1.396 . S
C5 C6 1.394 . S
C6 H1 0.929 . S
C6 C5 1.394 . S
C6 C7 1.382 . S
C7 C6 1.382 . S
C7 C8 1.392 . S
C7 N9 1.420 . S
C8 H2 0.930 . S
C8 C4 1.407 . S
C8 C7 1.392 . S
N9 C7 1.420 . S
N9 C10 1.244 . S
C10 N9 1.244 . S
H11 C14 0.929 . S
H12 C17 0.929 . S
H13 C19 0.930 . S
C14 H11 0.929 . S
C14 C15 1.398 . S
C14 C16 1.396 . S
C15 C14 1.398 . S
C15 C19 1.407 . S
C16 C14 1.396 . S
C16 C17 1.394 . S
C17 H12 0.929 . S
C17 C16 1.394 . S
C17 C18 1.382 . S
C18 C17 1.382 . S
C18 C19 1.392 . S
C18 N20 1.420 . S
C19 H13 0.930 . S
C19 C15 1.407 . S
C19 C18 1.392 . S
N20 C18 1.420 . S
N20 C21 1.244 . S
C21 N20 1.244 . S
H22 C25 0.929 . S
H23 C28 0.929 . S
H24 C30 0.930 . S
C25 H22 0.929 . S
C25 C26 1.398 . S
C25 C27 1.396 . S
C26 C25 1.398 . S
C26 C30 1.407 . S
C27 C25 1.396 . S
C27 C28 1.394 . S
C28 H23 0.929 . S
C28 C27 1.394 . S
C28 C29 1.382 . S
C29 C28 1.382 . S
C29 C30 1.392 . S
C29 N31 1.420 . S
C30 H24 0.930 . S
C30 C26 1.407 . S
C30 C29 1.392 . S
N31 C29 1.420 . S
N31 C32 1.244 . S
C32 N31 1.244 . S
H33 C36 0.929 . S
H34 C39 0.929 . S
H35 C41 0.930 . S
C36 H33 0.929 . S
C36 C37 1.398 . S
C36 C38 1.396 . S
C37 C36 1.398 . S
C37 C41 1.407 . S
C38 C36 1.396 . S
C38 C39 1.394 . S
C39 H34 0.929 . S
C39 C38 1.394 . S
C39 C40 1.382 . S
C40 C39 1.382 . S
C40 C41 1.392 . S
C40 N42 1.420 . S
C41 H35 0.930 . S
C41 C37 1.407 . S
C41 C40 1.392 . S
N42 C40 1.420 . S
N42 C43 1.244 . S
C43 N42 1.244 . S
H44 C47 0.929 . S
H45 C50 0.929 . S
H46 C52 0.930 1_545 S
C47 H44 0.929 . S
C47 C48 1.398 . S
C47 C49 1.396 . S
C48 C47 1.398 . S
C48 C52 1.407 . S
C49 C47 1.396 . S
C49 C50 1.394 . S
C50 H45 0.929 . S
C50 C49 1.394 . S
C50 C51 1.382 . S
C51 C50 1.382 . S
C51 C52 1.392 . S
C51 N53 1.420 . S
C52 H46 0.930 1_565 S
C52 C48 1.407 . S
C52 C51 1.392 . S
N53 C51 1.420 . S
N53 C54 1.244 . S
C54 N53 1.244 . S
H55 C58 0.929 . S
H56 C61 0.929 . S
H57 C63 0.930 . S
C58 H55 0.929 . S
C58 C59 1.398 . S
C58 C60 1.396 . S
C59 C58 1.398 . S
C59 C63 1.407 . S
C60 C58 1.396 . S
C60 C61 1.394 . S
C61 H56 0.929 . S
C61 C60 1.394 . S
C61 C62 1.382 . S
C62 C61 1.382 . S
C62 C63 1.392 . S
C62 N64 1.420 . S
C63 H57 0.930 . S
C63 C59 1.407 . S
C63 C62 1.392 . S
N64 C62 1.420 . S
N64 C65 1.244 . S
C65 N64 1.244 . S
H66 C69 0.929 . S
H67 C72 0.929 . S
H68 C74 0.930 . S
C69 H66 0.929 . S
C69 C70 1.398 . S
C69 C71 1.396 . S
C70 C69 1.398 . S
C70 C74 1.407 . S
C71 C69 1.396 . S
C71 C72 1.394 . S
C72 H67 0.929 . S
C72 C71 1.394 . S
C72 C73 1.382 . S
C73 C72 1.382 . S
C73 C74 1.392 . S
C73 N75 1.420 . S
C74 H68 0.930 . S
C74 C70 1.407 . S
C74 C73 1.392 . S
N75 C73 1.420 . S
N75 C76 1.244 . S
C76 N75 1.244 . S
H77 C80 0.929 . S
H78 C83 0.929 . S
H79 C85 0.930 . S
C80 H77 0.929 . S
C80 C81 1.398 . S
C80 C82 1.396 . S
C81 C80 1.398 . S
C81 C85 1.407 . S
C82 C80 1.396 . S
C82 C83 1.394 . S
C83 H78 0.929 . S
C83 C82 1.394 . S
C83 C84 1.382 . S
C84 C83 1.382 . S
C84 C85 1.392 . S
C84 N86 1.420 . S
C85 H79 0.930 . S
C85 C81 1.407 . S
C85 C84 1.392 . S
N86 C84 1.420 . S
N86 C87 1.244 . S
C87 N86 1.244 . S
O88 Zn89 1.959 . S
O88 C104 1.210 1_655 S
Zn89 O88 1.959 . S
Zn89 O90 1.949 1_655 S
Zn89 O96 1.919 . S
Zn89 O101 1.924 . S
O90 Zn89 1.949 1_455 S
O90 Zn91 1.923 1_455 S
O90 Zn92 1.950 . S
O90 Zn93 1.945 1_545 S
Zn91 O90 1.923 1_655 S
Zn91 O94 1.933 1_545 S
Zn91 O97 1.941 . S
Zn91 O98 1.965 1_655 S
Zn92 O90 1.950 . S
Zn92 O99 1.938 . S
Zn92 O100 1.906 . S
Zn92 O110 1.953 . S
Zn93 O90 1.945 1_565 S
Zn93 O95 1.932 1_455 S
Zn93 O102 1.977 . S
Zn93 O103 1.910 1_455 S
O94 Zn91 1.933 1_565 S
O94 C105 1.226 . S
O95 Zn93 1.932 1_655 S
O95 C105 1.307 . S
O96 Zn89 1.919 . S
O96 C107 1.253 . S
O97 Zn91 1.941 . S
O97 C107 1.283 . S
O98 Zn91 1.965 1_455 S
O98 C106 1.303 . S
O99 Zn92 1.938 . S
O99 C106 1.247 . S
O100 Zn92 1.906 . S
O100 C108 1.304 1_545 S
O101 Zn89 1.924 . S
O101 C109 1.311 . S
O102 Zn93 1.977 . S
O102 C108 1.272 . S
O103 Zn93 1.910 1_655 S
O103 C109 1.231 1_565 S
C104 O88 1.210 1_455 S
C104 O110 1.298 . S
C105 O94 1.226 . S
C105 O95 1.307 . S
C106 O98 1.303 . S
C106 O99 1.247 . S
C107 O96 1.253 . S
C107 O97 1.283 . S
C108 O100 1.304 1_565 S
C108 O102 1.272 . S
C109 O101 1.311 . S
C109 O103 1.231 1_545 S
O110 Zn92 1.953 . S
O110 C104 1.298 . S
O111 Zn112 1.953 . S
O111 C127 1.225 . S
Zn112 O111 1.953 . S
Zn112 O113 1.949 . S
Zn112 O119 1.919 1_554 S
Zn112 O124 1.924 . S
O113 Zn112 1.949 . S
O113 Zn114 1.923 1_545 S
O113 Zn115 1.950 . S
O113 Zn116 1.945 . S
Zn114 O113 1.923 1_565 S
Zn114 O117 1.933 . S
Zn114 O120 1.941 1_554 S
Zn114 O121 1.965 . S
Zn115 O113 1.950 . S
Zn115 O122 1.938 . S
Zn115 O123 1.906 . S
Zn115 O133 1.953 . S
Zn116 O113 1.945 . S
Zn116 O118 1.932 1_545 S
Zn116 O125 1.977 . S
Zn116 O126 1.910 . S
O117 Zn114 1.933 . S
O117 C128 1.226 . S
O118 Zn116 1.932 1_565 S
O118 C128 1.307 . S
O119 Zn112 1.919 1_556 S
O119 C130 1.253 1_545 S
O120 Zn114 1.941 1_556 S
O120 C130 1.283 . S
O121 Zn114 1.965 . S
O121 C129 1.303 1_565 S
O122 Zn115 1.938 . S
O122 C129 1.247 . S
O123 Zn115 1.906 . S
O123 C131 1.304 . S
O124 Zn112 1.924 . S
O124 C132 1.311 . S
O125 Zn116 1.977 . S
O125 C131 1.272 . S
O126 Zn116 1.910 . S
O126 C132 1.231 . S
C127 O111 1.225 . S
C127 O133 1.298 . S
C128 O117 1.226 . S
C128 O118 1.307 . S
C129 O121 1.303 1_545 S
C129 O122 1.247 . S
C130 O119 1.253 1_565 S
C130 O120 1.283 . S
C131 O123 1.304 . S
C131 O125 1.272 . S
C132 O124 1.311 . S
C132 O126 1.231 . S
O133 Zn115 1.953 . S
O133 C127 1.298 . S
O134 Zn135 1.953 . S
O134 C150 1.225 . S
Zn135 O134 1.953 . S
Zn135 O136 1.949 . S
Zn135 O142 1.919 . S
Zn135 O147 1.924 . S
O136 Zn135 1.949 . S
O136 Zn137 1.923 . S
O136 Zn138 1.950 . S
O136 Zn139 1.945 . S
Zn137 O136 1.923 . S
Zn137 O140 1.933 . S
Zn137 O143 1.941 . S
Zn137 O144 1.965 . S
Zn138 O136 1.950 . S
Zn138 O145 1.938 . S
Zn138 O146 1.906 . S
Zn138 O156 1.953 . S
Zn139 O136 1.945 . S
Zn139 O141 1.932 . S
Zn139 O148 1.977 . S
Zn139 O149 1.910 . S
O140 Zn137 1.933 . S
O140 C151 1.226 . S
O141 Zn139 1.932 . S
O141 C151 1.307 . S
O142 Zn135 1.919 . S
O142 C153 1.253 . S
O143 Zn137 1.941 . S
O143 C153 1.283 . S
O144 Zn137 1.965 . S
O144 C152 1.303 . S
O145 Zn138 1.938 . S
O145 C152 1.247 . S
O146 Zn138 1.906 . S
O146 C154 1.304 . S
O147 Zn135 1.924 . S
O147 C155 1.311 . S
O148 Zn139 1.977 . S
O148 C154 1.272 . S
O149 Zn139 1.910 . S
O149 C155 1.231 . S
C150 O134 1.225 . S
C150 O156 1.298 . S
C151 O140 1.226 . S
C151 O141 1.307 . S
C152 O144 1.303 . S
C152 O145 1.247 . S
C153 O142 1.253 . S
C153 O143 1.283 . S
C154 O146 1.304 . S
C154 O148 1.272 . S
C155 O147 1.311 . S
C155 O149 1.231 . S
O156 Zn138 1.953 . S
O156 C150 1.298 . S
O157 Zn158 1.953 . S
O157 C173 1.225 . S
Zn158 O157 1.953 . S
Zn158 O159 1.949 1_655 S
Zn158 O165 1.919 . S
Zn158 O170 1.924 . S
O159 Zn158 1.949 1_455 S
O159 Zn160 1.938 1_554 S
O159 Zn161 1.950 . S
O159 Zn162 1.945 1_554 S
Zn160 O159 1.938 1_556 S
Zn160 O163 1.953 . S
Zn160 O166 1.904 1_455 S
Zn160 O167 1.963 . S
Zn161 O159 1.950 . S
Zn161 O168 1.938 . S
Zn161 O169 1.906 . S
Zn161 O179 1.953 . S
Zn162 O159 1.945 1_556 S
Zn162 O164 1.931 . S
Zn162 O171 1.977 1_556 S
Zn162 O172 1.911 1_556 S
O163 Zn160 1.953 . S
O163 C174 1.226 . S
O164 Zn162 1.931 . S
O164 C174 1.307 . S
O165 Zn158 1.919 . S
O165 C176 1.253 1_554 S
O166 Zn160 1.904 1_655 S
O166 C176 1.283 . S
O167 Zn160 1.963 . S
O167 C175 1.303 . S
O168 Zn161 1.938 . S
O168 C175 1.247 1_554 S
O169 Zn161 1.906 . S
O169 C177 1.304 . S
O170 Zn158 1.924 . S
O170 C178 1.311 1_655 S
O171 Zn162 1.977 1_554 S
O171 C177 1.272 . S
O172 Zn162 1.911 1_554 S
O172 C178 1.231 . S
C173 O157 1.225 . S
C173 O179 1.298 1_655 S
C174 O163 1.226 . S
C174 O164 1.307 . S
C175 O167 1.303 . S
C175 O168 1.247 1_556 S
C176 O165 1.253 1_556 S
C176 O166 1.283 . S
C177 O169 1.304 . S
C177 O171 1.272 . S
C178 O170 1.311 1_455 S
C178 O172 1.231 . S
O179 Zn161 1.953 . S
O179 C173 1.298 1_455 S
H180 C198 0.951 . S
H181 C200 0.951 . S
H182 C202 0.950 . S
H183 C203 0.950 . S
H184 C205 0.950 . S
H185 C208 0.950 . S
H186 C209 0.950 . S
H187 C211 0.950 . S
H188 C212 0.950 . S
H189 C213 0.951 . S
H190 C215 0.951 . S
H191 C217 0.950 . S
H192 C218 0.950 . S
H193 C220 0.950 . S
H194 C223 0.950 . S
H195 C224 0.950 . S
H196 C226 0.950 . S
H197 C227 0.950 1_455 S
C198 H180 0.951 . S
C198 C199 1.366 . S
C198 C200 1.388 . S
C199 C198 1.366 . S
C199 C203 1.385 . S
C200 H181 0.951 . S
C200 C198 1.388 . S
C200 C201 1.366 . S
C201 C200 1.366 . S
C201 C202 1.414 . S
C201 C204 1.499 . S
C202 H182 0.950 . S
C202 C201 1.414 . S
C202 C203 1.374 . S
C203 H183 0.950 . S
C203 C199 1.385 . S
C203 C202 1.374 . S
C204 C201 1.499 . S
C204 C205 1.373 . S
C204 C206 1.389 . S
C205 H184 0.950 . S
C205 C204 1.373 . S
C205 C221 1.377 . S
C206 C204 1.389 . S
C206 C207 1.524 . S
C206 C220 1.377 . S
C207 C206 1.524 . S
C207 C208 1.397 . S
C207 C212 1.363 . S
C208 H185 0.950 . S
C208 C207 1.397 . S
C208 C209 1.334 . S
C209 H186 0.950 . S
C209 C208 1.334 . S
C209 C210 1.287 . S
C210 C209 1.287 . S
C210 C211 1.524 . S
C210 H229 0.913 . S
C211 H187 0.950 . S
C211 C210 1.524 . S
C211 C212 1.415 . S
C212 H188 0.950 . S
C212 C207 1.363 . S
C212 C211 1.415 . S
C213 H189 0.951 . S
C213 C214 1.366 . S
C213 C215 1.388 . S
C214 C213 1.366 . S
C214 C218 1.385 . S
C215 H190 0.951 . S
C215 C213 1.388 . S
C215 C216 1.366 . S
C216 C215 1.366 . S
C216 C217 1.414 . S
C216 C219 1.499 . S
C217 H191 0.950 . S
C217 C216 1.414 . S
C217 C218 1.374 . S
C218 H192 0.950 . S
C218 C214 1.385 . S
C218 C217 1.374 . S
C219 C216 1.499 . S
C219 C220 1.373 . S
C219 C221 1.389 . S
C220 H193 0.950 . S
C220 C206 1.377 . S
C220 C219 1.373 . S
C221 C205 1.377 . S
C221 C219 1.389 . S
C221 C222 1.524 . S
C222 C221 1.524 . S
C222 C223 1.397 . S
C222 C227 1.363 1_455 S
C223 H194 0.950 . S
C223 C222 1.397 . S
C223 C224 1.334 1_455 S
C224 H195 0.950 . S
C224 C223 1.334 1_655 S
C224 C225 1.287 . S
C225 C224 1.287 . S
C225 C226 1.524 . S
C225 H228 0.999 . S
C226 H196 0.950 . S
C226 C225 1.524 . S
C226 C227 1.415 . S
C227 H197 0.950 1_655 S
C227 C222 1.363 1_655 S
C227 C226 1.415 . S
H228 C225 0.999 . S
H229 C210 0.913 . S
H230 C248 0.951 . S
H231 C250 0.951 . S
H232 C252 0.950 . S
H233 C253 0.950 . S
H234 C255 0.950 . S
H235 C258 0.950 . S
H236 C259 0.950 . S
H237 C261 0.950 . S
H238 C262 0.950 . S
H239 C263 0.951 . S
H240 C265 0.951 . S
H241 C267 0.950 . S
H242 C268 0.950 1_545 S
H243 C270 0.950 . S
H244 C273 0.950 . S
H245 C274 0.942 1_545 S
H246 C276 0.950 . S
H247 C277 0.950 . S
C248 H230 0.951 . S
C248 C249 1.366 . S
C248 C250 1.388 . S
C249 C248 1.366 . S
C249 C253 1.385 . S
C250 H231 0.951 . S
C250 C248 1.388 . S
C250 C251 1.366 . S
C251 C250 1.366 . S
C251 C252 1.414 . S
C251 C254 1.499 . S
C252 H232 0.950 . S
C252 C251 1.414 . S
C252 C253 1.374 . S
C253 H233 0.950 . S
C253 C249 1.385 . S
C253 C252 1.374 . S
C254 C251 1.499 . S
C254 C255 1.373 . S
C254 C256 1.389 . S
C255 H234 0.950 . S
C255 C254 1.373 . S
C255 C271 1.377 . S
C256 C254 1.389 . S
C256 C257 1.524 . S
C256 C270 1.377 . S
C257 C256 1.524 . S
C257 C258 1.397 . S
C257 C262 1.363 . S
C258 H235 0.950 . S
C258 C257 1.397 . S
C258 C259 1.334 . S
C259 H236 0.950 . S
C259 C258 1.334 . S
C259 C260 1.287 . S
C260 C259 1.287 . S
C260 C261 1.524 . S
C260 H279 0.913 . S
C261 H237 0.950 . S
C261 C260 1.524 . S
C261 C262 1.415 . S
C262 H238 0.950 . S
C262 C257 1.363 . S
C262 C261 1.415 . S
C263 H239 0.951 . S
C263 C264 1.366 . S
C263 C265 1.388 . S
C264 C263 1.366 . S
C264 C268 1.385 . S
C265 H240 0.951 . S
C265 C263 1.388 . S
C265 C266 1.366 . S
C266 C265 1.366 . S
C266 C267 1.414 . S
C266 C269 1.499 . S
C267 H241 0.950 . S
C267 C266 1.414 . S
C267 C268 1.374 . S
C268 H242 0.950 1_565 S
C268 C264 1.385 . S
C268 C267 1.374 . S
C269 C266 1.499 . S
C269 C270 1.373 . S
C269 C271 1.389 . S
C270 H243 0.950 . S
C270 C256 1.377 . S
C270 C269 1.373 . S
C271 C255 1.377 . S
C271 C269 1.389 . S
C271 C272 1.524 . S
C272 C271 1.524 . S
C272 C273 1.397 . S
C272 C277 1.363 . S
C273 H244 0.950 . S
C273 C272 1.397 . S
C273 C274 1.334 . S
C274 H245 0.942 1_565 S
C274 C273 1.334 . S
C274 C275 1.287 . S
C275 C274 1.287 . S
C275 C276 1.524 . S
C275 H278 0.999 . S
C276 H246 0.950 . S
C276 C275 1.524 . S
C276 C277 1.415 . S
C277 H247 0.950 . S
C277 C272 1.363 . S
C277 C276 1.415 . S
H278 C275 0.999 . S
H279 C260 0.913 . S
H280 C298 0.951 . S
H281 C300 0.951 . S
H282 C302 0.950 . S
H283 C303 0.950 . S
H284 C305 0.950 . S
H285 C308 0.950 . S
H286 C309 0.950 . S
H287 C311 0.950 . S
H288 C312 0.950 . S
H289 C313 0.951 . S
H290 C315 0.951 . S
H291 C317 0.950 . S
H292 C318 0.950 . S
H293 C320 0.950 . S
H294 C323 0.950 . S
H295 C324 0.950 . S
H296 C326 0.950 . S
H297 C327 0.950 . S
C298 H280 0.951 . S
C298 C299 1.366 . S
C298 C300 1.388 . S
C299 C298 1.366 . S
C299 C303 1.385 . S
C300 H281 0.951 . S
C300 C298 1.388 . S
C300 C301 1.366 . S
C301 C300 1.366 . S
C301 C302 1.414 . S
C301 C304 1.499 . S
C302 H282 0.950 . S
C302 C301 1.414 . S
C302 C303 1.374 . S
C303 H283 0.950 . S
C303 C299 1.385 . S
C303 C302 1.374 . S
C304 C301 1.499 . S
C304 C305 1.373 . S
C304 C306 1.389 . S
C305 H284 0.950 . S
C305 C304 1.373 . S
C305 C321 1.377 . S
C306 C304 1.389 . S
C306 C307 1.524 . S
C306 C320 1.377 . S
C307 C306 1.524 . S
C307 C308 1.397 . S
C307 C312 1.363 . S
C308 H285 0.950 . S
C308 C307 1.397 . S
C308 C309 1.334 . S
C309 H286 0.950 . S
C309 C308 1.334 . S
C309 C310 1.287 . S
C310 C309 1.287 . S
C310 C311 1.524 . S
C310 H329 0.913 . S
C311 H287 0.950 . S
C311 C310 1.524 . S
C311 C312 1.415 . S
C312 H288 0.950 . S
C312 C307 1.363 . S
C312 C311 1.415 . S
C313 H289 0.951 . S
C313 C314 1.366 . S
C313 C315 1.388 . S
C314 C313 1.366 . S
C314 C318 1.385 . S
C315 H290 0.951 . S
C315 C313 1.388 . S
C315 C316 1.366 . S
C316 C315 1.366 . S
C316 C317 1.414 . S
C316 C319 1.499 . S
C317 H291 0.950 . S
C317 C316 1.414 . S
C317 C318 1.374 . S
C318 H292 0.950 . S
C318 C314 1.385 . S
C318 C317 1.374 . S
C319 C316 1.499 . S
C319 C320 1.373 . S
C319 C321 1.389 . S
C320 H293 0.950 . S
C320 C306 1.377 . S
C320 C319 1.373 . S
C321 C305 1.377 . S
C321 C319 1.389 . S
C321 C322 1.524 . S
C322 C321 1.524 . S
C322 C323 1.397 . S
C322 C327 1.363 . S
C323 H294 0.950 . S
C323 C322 1.397 . S
C323 C324 1.334 . S
C324 H295 0.950 . S
C324 C323 1.334 . S
C324 C325 1.287 . S
C325 C324 1.287 . S
C325 C326 1.524 . S
C325 H328 0.999 . S
C326 H296 0.950 . S
C326 C325 1.524 . S
C326 C327 1.415 . S
C327 H297 0.950 . S
C327 C322 1.363 . S
C327 C326 1.415 . S
H328 C325 0.999 . S
H329 C310 0.913 . S
H330 C348 0.951 . S
H331 C350 0.951 . S
H332 C352 0.950 . S
H333 C353 0.950 . S
H334 C355 0.950 . S
H335 C358 0.950 . S
H336 C359 0.950 . S
H337 C361 0.950 . S
H338 C362 0.950 . S
H339 C363 0.951 . S
H340 C365 0.951 . S
H341 C367 0.950 1_455 S
H342 C368 0.950 . S
H343 C370 0.950 . S
H344 C373 0.950 . S
H345 C374 0.950 . S
H346 C376 0.950 . S
H347 C377 0.950 . S
C348 H330 0.951 . S
C348 C349 1.366 . S
C348 C350 1.388 . S
C349 C348 1.366 . S
C349 C353 1.385 . S
C350 H331 0.951 . S
C350 C348 1.388 . S
C350 C351 1.366 . S
C351 C350 1.366 . S
C351 C352 1.414 . S
C351 C354 1.499 . S
C352 H332 0.950 . S
C352 C351 1.414 . S
C352 C353 1.374 . S
C353 H333 0.950 . S
C353 C349 1.385 . S
C353 C352 1.374 . S
C354 C351 1.499 . S
C354 C355 1.373 . S
C354 C356 1.389 . S
C355 H334 0.950 . S
C355 C354 1.373 . S
C355 C371 1.377 . S
C356 C354 1.389 . S
C356 C357 1.524 . S
C356 C370 1.377 . S
C357 C356 1.524 . S
C357 C358 1.397 . S
C357 C362 1.363 1_655 S
C358 H335 0.950 . S
C358 C357 1.397 . S
C358 C359 1.334 . S
C359 H336 0.950 . S
C359 C358 1.334 . S
C359 C360 1.287 1_655 S
C360 C359 1.287 1_455 S
C360 C361 1.524 . S
C360 H379 0.913 . S
C361 H337 0.950 . S
C361 C360 1.524 . S
C361 C362 1.415 . S
C362 H338 0.950 . S
C362 C357 1.363 1_455 S
C362 C361 1.415 . S
C363 H339 0.951 . S
C363 C364 1.366 . S
C363 C365 1.388 . S
C364 C363 1.366 . S
C364 C368 1.385 1_655 S
C365 H340 0.951 . S
C365 C363 1.388 . S
C365 C366 1.366 . S
C366 C365 1.366 . S
C366 C367 1.414 . S
C366 C369 1.499 . S
C367 H341 0.950 1_655 S
C367 C366 1.414 . S
C367 C368 1.374 1_655 S
C368 H342 0.950 . S
C368 C364 1.385 1_455 S
C368 C367 1.374 1_455 S
C369 C366 1.499 . S
C369 C370 1.373 . S
C369 C371 1.389 . S
C370 H343 0.950 . S
C370 C356 1.377 . S
C370 C369 1.373 . S
C371 C355 1.377 . S
C371 C369 1.389 . S
C371 C372 1.524 . S
C372 C371 1.524 . S
C372 C373 1.397 . S
C372 C377 1.363 . S
C373 H344 0.950 . S
C373 C372 1.397 . S
C373 C374 1.334 . S
C374 H345 0.950 . S
C374 C373 1.334 . S
C374 C375 1.287 . S
C375 C374 1.287 . S
C375 C376 1.524 . S
C375 H378 0.999 . S
C376 H346 0.950 . S
C376 C375 1.524 . S
C376 C377 1.415 . S
C377 H347 0.950 . S
C377 C372 1.363 . S
C377 C376 1.415 . S
H378 C375 0.999 . S
H379 C360 0.913 . S
H380 C398 0.951 . S
H381 C400 0.951 . S
H382 C402 0.950 . S
H383 C403 0.950 . S
H384 C405 0.950 . S
H385 C408 0.950 . S
H386 C409 0.950 . S
H387 C411 0.950 . S
H388 C412 0.950 . S
H389 C413 0.951 . S
H390 C415 0.951 . S
H391 C417 0.950 . S
H392 C418 0.950 . S
H393 C420 0.950 . S
H394 C423 0.950 . S
H395 C424 0.950 . S
H396 C426 0.950 1_556 S
H397 C427 0.950 . S
C398 H380 0.951 . S
C398 C399 1.366 . S
C398 C400 1.388 . S
C399 C398 1.366 . S
C399 C403 1.385 . S
C400 H381 0.951 . S
C400 C398 1.388 . S
C400 C401 1.366 . S
C401 C400 1.366 . S
C401 C402 1.414 . S
C401 C404 1.499 . S
C402 H382 0.950 . S
C402 C401 1.414 . S
C402 C403 1.374 . S
C403 H383 0.950 . S
C403 C399 1.385 . S
C403 C402 1.374 . S
C404 C401 1.499 . S
C404 C405 1.373 . S
C404 C406 1.389 . S
C405 H384 0.950 . S
C405 C404 1.373 . S
C405 C421 1.377 . S
C406 C404 1.389 . S
C406 C407 1.524 . S
C406 C420 1.377 . S
C407 C406 1.524 . S
C407 C408 1.397 . S
C407 C412 1.363 . S
C408 H385 0.950 . S
C408 C407 1.397 . S
C408 C409 1.334 . S
C409 H386 0.950 . S
C409 C408 1.334 . S
C409 C410 1.287 . S
C410 C409 1.287 . S
C410 C411 1.524 . S
C410 H429 0.913 . S
C411 H387 0.950 . S
C411 C410 1.524 . S
C411 C412 1.415 . S
C412 H388 0.950 . S
C412 C407 1.363 . S
C412 C411 1.415 . S
C413 H389 0.951 . S
C413 C414 1.366 . S
C413 C415 1.388 . S
C414 C413 1.366 . S
C414 C418 1.385 . S
C415 H390 0.951 . S
C415 C413 1.388 . S
C415 C416 1.366 . S
C416 C415 1.366 . S
C416 C417 1.414 . S
C416 C419 1.499 . S
C417 H391 0.950 . S
C417 C416 1.414 . S
C417 C418 1.374 . S
C418 H392 0.950 . S
C418 C414 1.385 . S
C418 C417 1.374 . S
C419 C416 1.499 . S
C419 C420 1.373 . S
C419 C421 1.389 . S
C420 H393 0.950 . S
C420 C406 1.377 . S
C420 C419 1.373 . S
C421 C405 1.377 . S
C421 C419 1.389 . S
C421 C422 1.524 . S
C422 C421 1.524 . S
C422 C423 1.397 . S
C422 C427 1.363 . S
C423 H394 0.950 . S
C423 C422 1.397 . S
C423 C424 1.334 . S
C424 H395 0.950 . S
C424 C423 1.334 . S
C424 C425 1.305 . S
C425 C424 1.305 . S
C425 C426 1.525 . S
C425 H428 0.976 1_554 S
C426 H396 0.950 1_554 S
C426 C425 1.525 . S
C426 C427 1.415 . S
C427 H397 0.950 . S
C427 C422 1.363 . S
C427 C426 1.415 . S
H428 C425 0.976 1_556 S
H429 C410 0.913 . S
H430 C448 0.951 . S
H431 C450 0.951 . S
H432 C452 0.950 . S
H433 C453 0.950 . S
H434 C455 0.950 . S
H435 C458 0.950 . S
H436 C459 0.950 . S
H437 C461 0.950 . S
H438 C462 0.950 . S
H439 C463 0.951 . S
H440 C465 0.951 . S
H441 C467 0.950 1_545 S
H442 C468 0.914 1_545 S
H443 C470 0.950 . S
H444 C473 0.950 . S
H445 C474 0.950 1_545 S
H446 C476 0.950 . S
H447 C477 0.950 . S
C448 H430 0.951 . S
C448 C449 1.366 . S
C448 C450 1.388 . S
C449 C448 1.366 . S
C449 C453 1.385 . S
C450 H431 0.951 . S
C450 C448 1.388 . S
C450 C451 1.366 . S
C451 C450 1.366 . S
C451 C452 1.414 . S
C451 C454 1.499 . S
C452 H432 0.950 . S
C452 C451 1.414 . S
C452 C453 1.374 . S
C453 H433 0.950 . S
C453 C449 1.385 . S
C453 C452 1.374 . S
C454 C451 1.499 . S
C454 C455 1.373 . S
C454 C456 1.389 . S
C455 H434 0.950 . S
C455 C454 1.373 . S
C455 C471 1.377 . S
C456 C454 1.389 . S
C456 C457 1.524 . S
C456 C470 1.377 . S
C457 C456 1.524 . S
C457 C458 1.397 . S
C457 C462 1.363 . S
C458 H435 0.950 . S
C458 C457 1.397 . S
C458 C459 1.334 . S
C459 H436 0.950 . S
C459 C458 1.334 . S
C459 C460 1.287 . S
C460 C459 1.287 . S
C460 C461 1.524 . S
C460 H479 0.913 . S
C461 H437 0.950 . S
C461 C460 1.524 . S
C461 C462 1.415 . S
C462 H438 0.950 . S
C462 C457 1.363 . S
C462 C461 1.415 . S
C463 H439 0.951 . S
C463 C464 1.366 . S
C463 C465 1.388 . S
C464 C463 1.366 . S
C464 C468 1.407 . S
C465 H440 0.951 . S
C465 C463 1.388 . S
C465 C466 1.366 . S
C466 C465 1.366 . S
C466 C467 1.414 . S
C466 C469 1.499 . S
C467 H441 0.950 1_565 S
C467 C466 1.414 . S
C467 C468 1.389 . S
C468 H442 0.914 1_565 S
C468 C464 1.407 . S
C468 C467 1.389 . S
C469 C466 1.499 . S
C469 C470 1.373 . S
C469 C471 1.389 . S
C470 H443 0.950 . S
C470 C456 1.377 . S
C470 C469 1.373 . S
C471 C455 1.377 . S
C471 C469 1.389 . S
C471 C472 1.524 . S
C472 C471 1.524 . S
C472 C473 1.397 . S
C472 C477 1.363 . S
C473 H444 0.950 . S
C473 C472 1.397 . S
C473 C474 1.334 . S
C474 H445 0.950 1_565 S
C474 C473 1.334 . S
C474 C475 1.287 . S
C475 C474 1.287 . S
C475 C476 1.524 . S
C475 H478 0.999 . S
C476 H446 0.950 . S
C476 C475 1.524 . S
C476 C477 1.415 . S
C477 H447 0.950 . S
C477 C472 1.363 . S
C477 C476 1.415 . S
H478 C475 0.999 . S
H479 C460 0.913 . S
H480 C498 0.951 . S
H481 C500 0.951 . S
H482 C502 0.950 . S
H483 C503 0.950 . S
H484 C505 0.950 . S
H485 C508 0.950 . S
H486 C509 0.950 . S
H487 C511 0.950 . S
H488 C512 0.950 . S
H489 C513 0.951 . S
H490 C515 0.951 . S
H491 C517 0.950 . S
H492 C518 0.950 . S
H493 C520 0.950 . S
H494 C523 0.950 1_554 S
H495 C524 0.950 . S
H496 C526 0.950 . S
H497 C527 0.950 . S
C498 H480 0.951 . S
C498 C499 1.366 . S
C498 C500 1.388 . S
C499 C498 1.366 . S
C499 C503 1.385 . S
C500 H481 0.951 . S
C500 C498 1.388 . S
C500 C501 1.366 . S
C501 C500 1.366 . S
C501 C502 1.414 . S
C501 C504 1.499 . S
C502 H482 0.950 . S
C502 C501 1.414 . S
C502 C503 1.374 . S
C503 H483 0.950 . S
C503 C499 1.385 . S
C503 C502 1.374 . S
C504 C501 1.499 . S
C504 C505 1.373 . S
C504 C506 1.389 . S
C505 H484 0.950 . S
C505 C504 1.373 . S
C505 C521 1.377 . S
C506 C504 1.389 . S
C506 C507 1.524 . S
C506 C520 1.377 . S
C507 C506 1.524 . S
C507 C508 1.397 . S
C507 C512 1.363 . S
C508 H485 0.950 . S
C508 C507 1.397 . S
C508 C509 1.334 . S
C509 H486 0.950 . S
C509 C508 1.334 . S
C509 C510 1.287 . S
C510 C509 1.287 . S
C510 C511 1.524 . S
C510 H529 0.913 . S
C511 H487 0.950 . S
C511 C510 1.524 . S
C511 C512 1.415 . S
C512 H488 0.950 . S
C512 C507 1.363 . S
C512 C511 1.415 . S
C513 H489 0.951 . S
C513 C514 1.366 . S
C513 C515 1.388 . S
C514 C513 1.366 . S
C514 C518 1.385 . S
C515 H490 0.951 . S
C515 C513 1.388 . S
C515 C516 1.366 . S
C516 C515 1.366 . S
C516 C517 1.414 . S
C516 C519 1.499 . S
C517 H491 0.950 . S
C517 C516 1.414 . S
C517 C518 1.374 . S
C518 H492 0.950 . S
C518 C514 1.385 . S
C518 C517 1.374 . S
C519 C516 1.499 . S
C519 C520 1.373 . S
C519 C521 1.389 . S
C520 H493 0.950 . S
C520 C506 1.377 . S
C520 C519 1.373 . S
C521 C505 1.377 . S
C521 C519 1.389 . S
C521 C522 1.524 . S
C522 C521 1.524 . S
C522 C523 1.397 . S
C522 C527 1.363 . S
C523 H494 0.950 1_556 S
C523 C522 1.397 . S
C523 C524 1.334 1_556 S
C524 H495 0.950 . S
C524 C523 1.334 1_554 S
C524 C525 1.287 1_554 S
C525 C524 1.287 1_556 S
C525 C526 1.524 . S
C525 H528 0.999 . S
C526 H496 0.950 . S
C526 C525 1.524 . S
C526 C527 1.415 . S
C527 H497 0.950 . S
C527 C522 1.363 . S
C527 C526 1.415 . S
H528 C525 0.999 . S
H529 C510 0.913 . S
H530 C548 0.951 . S
H531 C550 0.951 . S
H532 C552 0.950 . S
H533 C553 0.950 . S
H534 C555 0.950 . S
H535 C558 0.950 . S
H536 C559 0.950 . S
H537 C561 0.950 . S
H538 C562 0.950 . S
H539 C563 0.951 . S
H540 C565 0.951 . S
H541 C567 0.950 . S
H542 C568 0.950 . S
H543 C570 0.950 . S
H544 C573 0.950 . S
H545 C574 0.950 . S
H546 C576 0.950 . S
H547 C577 0.950 . S
C548 H530 0.951 . S
C548 C549 1.366 . S
C548 C550 1.388 . S
C549 C548 1.366 . S
C549 C553 1.385 . S
C550 H531 0.951 . S
C550 C548 1.388 . S
C550 C551 1.366 . S
C551 C550 1.366 . S
C551 C552 1.414 . S
C551 C554 1.499 . S
C552 H532 0.950 . S
C552 C551 1.414 . S
C552 C553 1.374 . S
C553 H533 0.950 . S
C553 C549 1.385 . S
C553 C552 1.374 . S
C554 C551 1.499 . S
C554 C555 1.373 . S
C554 C556 1.389 . S
C555 H534 0.950 . S
C555 C554 1.373 . S
C555 C571 1.377 . S
C556 C554 1.389 . S
C556 C557 1.524 . S
C556 C570 1.377 . S
C557 C556 1.524 . S
C557 C558 1.397 . S
C557 C562 1.363 . S
C558 H535 0.950 . S
C558 C557 1.397 . S
C558 C559 1.334 . S
C559 H536 0.950 . S
C559 C558 1.334 . S
C559 C560 1.287 . S
C560 C559 1.287 . S
C560 C561 1.524 . S
C560 H579 0.913 . S
C561 H537 0.950 . S
C561 C560 1.524 . S
C561 C562 1.415 . S
C562 H538 0.950 . S
C562 C557 1.363 . S
C562 C561 1.415 . S
C563 H539 0.951 . S
C563 C564 1.366 . S
C563 C565 1.388 . S
C564 C563 1.366 . S
C564 C568 1.385 . S
C565 H540 0.951 . S
C565 C563 1.388 . S
C565 C566 1.366 . S
C566 C565 1.366 . S
C566 C567 1.414 . S
C566 C569 1.499 . S
C567 H541 0.950 . S
C567 C566 1.414 . S
C567 C568 1.374 . S
C568 H542 0.950 . S
C568 C564 1.385 . S
C568 C567 1.374 . S
C569 C566 1.499 . S
C569 C570 1.373 . S
C569 C571 1.389 . S
C570 H543 0.950 . S
C570 C556 1.377 . S
C570 C569 1.373 . S
C571 C555 1.377 . S
C571 C569 1.389 . S
C571 C572 1.524 . S
C572 C571 1.524 . S
C572 C573 1.397 . S
C572 C577 1.363 . S
C573 H544 0.950 . S
C573 C572 1.397 . S
C573 C574 1.334 . S
C574 H545 0.950 . S
C574 C573 1.334 . S
C574 C575 1.287 . S
C575 C574 1.287 . S
C575 C576 1.524 . S
C575 H578 0.999 . S
C576 H546 0.950 . S
C576 C575 1.524 . S
C576 C577 1.415 . S
C577 H547 0.950 . S
C577 C572 1.363 . S
C577 C576 1.415 . S
H578 C575 0.999 . S
H579 C560 0.913 . S
H580 C598 0.951 . S
H581 C600 0.951 . S
H582 C602 0.950 . S
H583 C603 0.950 . S
H584 C605 0.950 . S
H585 C608 0.950 . S
H586 C609 0.950 . S
H587 C611 0.950 1_556 S
H588 C612 0.950 . S
H589 C613 0.951 . S
H590 C615 0.951 . S
H591 C617 0.950 . S
H592 C618 0.950 1_655 S
H593 C620 0.950 . S
H594 C623 0.950 . S
H595 C624 0.950 . S
H596 C626 0.950 . S
H597 C627 0.950 . S
C598 H580 0.951 . S
C598 C599 1.366 . S
C598 C600 1.388 . S
C599 C598 1.366 . S
C599 C603 1.385 . S
C600 H581 0.951 . S
C600 C598 1.388 . S
C600 C601 1.366 . S
C601 C600 1.366 . S
C601 C602 1.414 . S
C601 C604 1.499 . S
C602 H582 0.950 . S
C602 C601 1.414 . S
C602 C603 1.374 . S
C603 H583 0.950 . S
C603 C599 1.385 . S
C603 C602 1.374 . S
C604 C601 1.499 . S
C604 C605 1.373 . S
C604 C606 1.389 . S
C605 H584 0.950 . S
C605 C604 1.373 . S
C605 C621 1.377 . S
C606 C604 1.389 . S
C606 C607 1.524 . S
C606 C620 1.377 . S
C607 C606 1.524 . S
C607 C608 1.397 . S
C607 C612 1.363 . S
C608 H585 0.950 . S
C608 C607 1.397 . S
C608 C609 1.334 . S
C609 H586 0.950 . S
C609 C608 1.334 . S
C609 C610 1.287 . S
C610 C609 1.287 . S
C610 C611 1.524 . S
C610 H629 0.913 1_554 S
C611 H587 0.950 1_554 S
C611 C610 1.524 . S
C611 C612 1.415 . S
C612 H588 0.950 . S
C612 C607 1.363 . S
C612 C611 1.415 . S
C613 H589 0.951 . S
C613 C614 1.366 . S
C613 C615 1.388 . S
C614 C613 1.366 . S
C614 C618 1.385 . S
C615 H590 0.951 . S
C615 C613 1.388 . S
C615 C616 1.366 . S
C616 C615 1.366 . S
C616 C617 1.414 . S
C616 C619 1.499 . S
C617 H591 0.950 . S
C617 C616 1.414 . S
C617 C618 1.374 . S
C618 H592 0.950 1_455 S
C618 C614 1.385 . S
C618 C617 1.374 . S
C619 C616 1.499 . S
C619 C620 1.373 . S
C619 C621 1.389 . S
C620 H593 0.950 . S
C620 C606 1.377 . S
C620 C619 1.373 . S
C621 C605 1.377 . S
C621 C619 1.389 . S
C621 C622 1.524 . S
C622 C621 1.524 . S
C622 C623 1.397 . S
C622 C627 1.363 . S
C623 H594 0.950 . S
C623 C622 1.397 . S
C623 C624 1.334 . S
C624 H595 0.950 . S
C624 C623 1.334 . S
C624 C625 1.287 . S
C625 C624 1.287 . S
C625 C626 1.524 . S
C625 H628 0.999 . S
C626 H596 0.950 . S
C626 C625 1.524 . S
C626 C627 1.415 . S
C627 H597 0.950 . S
C627 C622 1.363 . S
C627 C626 1.415 . S
H628 C625 0.999 . S
H629 C610 0.913 1_556 S
H630 C648 0.951 . S
H631 C650 0.951 . S
H632 C652 0.950 . S
H633 C653 0.950 . S
H634 C655 0.950 . S
H635 C658 0.950 . S
H636 C659 0.950 . S
H637 C661 0.950 . S
H638 C662 0.950 . S
H639 C663 0.951 . S
H640 C665 0.951 . S
H641 C667 0.950 . S
H642 C668 0.950 . S
H643 C670 0.950 . S
H644 C673 0.950 . S
H645 C674 0.950 . S
H646 C676 0.950 . S
H647 C677 0.950 . S
C648 H630 0.951 . S
C648 C649 1.366 . S
C648 C650 1.388 . S
C649 C648 1.366 . S
C649 C653 1.385 . S
C650 H631 0.951 . S
C650 C648 1.388 . S
C650 C651 1.366 . S
C651 C650 1.366 . S
C651 C652 1.414 . S
C651 C654 1.499 . S
C652 H632 0.950 . S
C652 C651 1.414 . S
C652 C653 1.374 . S
C653 H633 0.950 . S
C653 C649 1.385 . S
C653 C652 1.374 . S
C654 C651 1.499 . S
C654 C655 1.373 . S
C654 C656 1.389 . S
C655 H634 0.950 . S
C655 C654 1.373 . S
C655 C671 1.377 . S
C656 C654 1.389 . S
C656 C657 1.524 . S
C656 C670 1.377 . S
C657 C656 1.524 . S
C657 C658 1.397 . S
C657 C662 1.363 . S
C658 H635 0.950 . S
C658 C657 1.397 . S
C658 C659 1.334 . S
C659 H636 0.950 . S
C659 C658 1.334 . S
C659 C660 1.287 . S
C660 C659 1.287 . S
C660 C661 1.524 . S
C660 H679 0.913 . S
C661 H637 0.950 . S
C661 C660 1.524 . S
C661 C662 1.415 . S
C662 H638 0.950 . S
C662 C657 1.363 . S
C662 C661 1.415 . S
C663 H639 0.951 . S
C663 C664 1.366 . S
C663 C665 1.388 . S
C664 C663 1.366 . S
C664 C668 1.385 1_554 S
C665 H640 0.951 . S
C665 C663 1.388 . S
C665 C666 1.366 1_554 S
C666 C665 1.366 1_556 S
C666 C667 1.414 . S
C666 C669 1.499 . S
C667 H641 0.950 . S
C667 C666 1.414 . S
C667 C668 1.374 . S
C668 H642 0.950 . S
C668 C664 1.385 1_556 S
C668 C667 1.374 . S
C669 C666 1.499 . S
C669 C670 1.373 . S
C669 C671 1.389 . S
C670 H643 0.950 . S
C670 C656 1.377 . S
C670 C669 1.373 . S
C671 C655 1.377 . S
C671 C669 1.389 . S
C671 C672 1.524 . S
C672 C671 1.524 . S
C672 C673 1.397 . S
C672 C677 1.363 1_556 S
C673 H644 0.950 . S
C673 C672 1.397 . S
C673 C674 1.334 . S
C674 H645 0.950 . S
C674 C673 1.334 . S
C674 C675 1.287 1_556 S
C675 C674 1.287 1_554 S
C675 C676 1.524 . S
C675 H678 0.999 . S
C676 H646 0.950 . S
C676 C675 1.524 . S
C676 C677 1.415 . S
C677 H647 0.950 . S
C677 C672 1.363 1_554 S
C677 C676 1.415 . S
H678 C675 0.999 . S
H679 C660 0.913 . S
H680 C698 0.951 . S
H681 C700 0.951 . S
H682 C702 0.950 . S
H683 C703 0.950 . S
H684 C705 0.950 . S
H685 C708 0.950 . S
H686 C709 0.950 . S
H687 C711 0.950 . S
H688 C712 0.950 . S
H689 C713 0.951 1_455 S
H690 C715 0.951 . S
H691 C717 0.950 . S
H692 C718 0.950 . S
H693 C720 0.950 . S
H694 C723 0.950 . S
H695 C724 0.950 . S
H696 C726 0.950 . S
H697 C727 0.950 . S
C698 H680 0.951 . S
C698 C699 1.366 . S
C698 C700 1.388 . S
C699 C698 1.366 . S
C699 C703 1.385 . S
C700 H681 0.951 . S
C700 C698 1.388 . S
C700 C701 1.366 . S
C701 C700 1.366 . S
C701 C702 1.414 . S
C701 C704 1.499 . S
C702 H682 0.950 . S
C702 C701 1.414 . S
C702 C703 1.374 . S
C703 H683 0.950 . S
C703 C699 1.385 . S
C703 C702 1.374 . S
C704 C701 1.499 . S
C704 C705 1.373 . S
C704 C706 1.389 . S
C705 H684 0.950 . S
C705 C704 1.373 . S
C705 C721 1.377 . S
C706 C704 1.389 . S
C706 C707 1.524 . S
C706 C720 1.377 . S
C707 C706 1.524 . S
C707 C708 1.397 . S
C707 C712 1.363 . S
C708 H685 0.950 . S
C708 C707 1.397 . S
C708 C709 1.334 . S
C709 H686 0.950 . S
C709 C708 1.334 . S
C709 C710 1.287 . S
C710 C709 1.287 . S
C710 C711 1.524 . S
C710 H729 0.913 . S
C711 H687 0.950 . S
C711 C710 1.524 . S
C711 C712 1.415 . S
C712 H688 0.950 . S
C712 C707 1.363 . S
C712 C711 1.415 . S
C713 H689 0.951 1_655 S
C713 C714 1.366 . S
C713 C715 1.388 . S
C714 C713 1.366 . S
C714 C718 1.385 . S
C715 H690 0.951 . S
C715 C713 1.388 . S
C715 C716 1.366 . S
C716 C715 1.366 . S
C716 C717 1.414 . S
C716 C719 1.499 . S
C717 H691 0.950 . S
C717 C716 1.414 . S
C717 C718 1.374 . S
C718 H692 0.950 . S
C718 C714 1.385 . S
C718 C717 1.374 . S
C719 C716 1.499 . S
C719 C720 1.373 . S
C719 C721 1.389 . S
C720 H693 0.950 . S
C720 C706 1.377 . S
C720 C719 1.373 . S
C721 C705 1.377 . S
C721 C719 1.389 . S
C721 C722 1.524 . S
C722 C721 1.524 . S
C722 C723 1.397 . S
C722 C727 1.363 1_655 S
C723 H694 0.950 . S
C723 C722 1.397 . S
C723 C724 1.334 1_655 S
C724 H695 0.950 . S
C724 C723 1.334 1_455 S
C724 C725 1.287 . S
C725 C724 1.287 . S
C725 C726 1.524 . S
C725 H728 0.999 . S
C726 H696 0.950 . S
C726 C725 1.524 . S
C726 C727 1.415 . S
C727 H697 0.950 . S
C727 C722 1.363 1_455 S
C727 C726 1.415 . S
H728 C725 0.999 . S
H729 C710 0.913 . S
H730 C748 0.951 . S
H731 C750 0.951 . S
H732 C752 0.950 . S
H733 C753 0.950 . S
H734 C755 0.950 . S
H735 C758 0.950 . S
H736 C759 0.950 . S
H737 C761 0.950 . S
H738 C762 0.950 . S
H739 C763 0.951 . S
H740 C765 0.951 . S
H741 C767 0.950 . S
H742 C768 0.950 . S
H743 C770 0.950 . S
H744 C773 0.950 . S
H745 C774 0.950 . S
H746 C776 0.950 . S
H747 C777 0.950 . S
C748 H730 0.951 . S
C748 C749 1.366 . S
C748 C750 1.388 . S
C749 C748 1.366 . S
C749 C753 1.385 . S
C750 H731 0.951 . S
C750 C748 1.388 . S
C750 C751 1.366 . S
C751 C750 1.366 . S
C751 C752 1.414 . S
C751 C754 1.499 . S
C752 H732 0.950 . S
C752 C751 1.414 . S
C752 C753 1.374 . S
C753 H733 0.950 . S
C753 C749 1.385 . S
C753 C752 1.374 . S
C754 C751 1.499 . S
C754 C755 1.373 . S
C754 C756 1.389 . S
C755 H734 0.950 . S
C755 C754 1.373 . S
C755 C771 1.377 . S
C756 C754 1.389 . S
C756 C757 1.524 . S
C756 C770 1.377 . S
C757 C756 1.524 . S
C757 C758 1.397 . S
C757 C762 1.363 . S
C758 H735 0.950 . S
C758 C757 1.397 . S
C758 C759 1.334 . S
C759 H736 0.950 . S
C759 C758 1.334 . S
C759 C760 1.287 . S
C760 C759 1.287 . S
C760 C761 1.524 . S
C760 H779 0.913 . S
C761 H737 0.950 . S
C761 C760 1.524 . S
C761 C762 1.415 . S
C762 H738 0.950 . S
C762 C757 1.363 . S
C762 C761 1.415 . S
C763 H739 0.951 . S
C763 C764 1.366 . S
C763 C765 1.388 . S
C764 C763 1.366 . S
C764 C768 1.385 . S
C765 H740 0.951 . S
C765 C763 1.388 . S
C765 C766 1.366 . S
C766 C765 1.366 . S
C766 C767 1.414 . S
C766 C769 1.499 . S
C767 H741 0.950 . S
C767 C766 1.414 . S
C767 C768 1.374 . S
C768 H742 0.950 . S
C768 C764 1.385 . S
C768 C767 1.374 . S
C769 C766 1.499 . S
C769 C770 1.373 . S
C769 C771 1.389 . S
C770 H743 0.950 . S
C770 C756 1.377 . S
C770 C769 1.373 . S
C771 C755 1.377 . S
C771 C769 1.389 . S
C771 C772 1.524 . S
C772 C771 1.524 . S
C772 C773 1.397 . S
C772 C777 1.363 . S
C773 H744 0.950 . S
C773 C772 1.397 . S
C773 C774 1.334 . S
C774 H745 0.950 . S
C774 C773 1.334 . S
C774 C775 1.287 . S
C775 C774 1.287 . S
C775 C776 1.524 . S
C775 H778 0.999 . S
C776 H746 0.950 . S
C776 C775 1.524 . S
C776 C777 1.415 . S
C777 H747 0.950 . S
C777 C772 1.363 . S
C777 C776 1.415 . S
H778 C775 0.999 . S
H779 C760 0.913 . S
H780 C798 0.951 . S
H781 C800 0.951 . S
H782 C802 0.950 . S
H783 C803 0.953 . S
H784 C805 0.950 . S
H785 C808 0.950 . S
H786 C809 0.925 1_455 S
H787 C811 0.950 . S
H788 C812 0.950 . S
H789 C813 0.951 1_455 S
H790 C815 0.951 1_455 S
H791 C817 0.950 . S
H792 C818 0.950 . S
H793 C820 0.950 . S
H794 C823 0.950 . S
H795 C824 0.950 . S
H796 C826 0.950 . S
H797 C827 0.950 . S
C798 H780 0.951 . S
C798 C799 1.366 . S
C798 C800 1.388 . S
C799 C798 1.366 . S
C799 C803 1.381 1_565 S
C800 H781 0.951 . S
C800 C798 1.388 . S
C800 C801 1.366 . S
C801 C800 1.366 . S
C801 C802 1.414 1_565 S
C801 C804 1.499 . S
C802 H782 0.950 . S
C802 C801 1.414 1_545 S
C802 C803 1.375 . S
C803 H783 0.953 . S
C803 C799 1.381 1_545 S
C803 C802 1.375 . S
C804 C801 1.499 . S
C804 C805 1.373 1_565 S
C804 C806 1.389 . S
C805 H784 0.950 . S
C805 C804 1.373 1_545 S
C805 C821 1.377 . S
C806 C804 1.389 . S
C806 C807 1.524 . S
C806 C820 1.377 . S
C807 C806 1.524 . S
C807 C808 1.397 . S
C807 C812 1.363 . S
C808 H785 0.950 . S
C808 C807 1.397 . S
C808 C809 1.334 . S
C809 H786 0.925 1_655 S
C809 C808 1.334 . S
C809 C810 1.287 . S
C810 C809 1.287 . S
C810 C811 1.524 . S
C810 H829 0.913 . S
C811 H787 0.950 . S
C811 C810 1.524 . S
C811 C812 1.415 . S
C812 H788 0.950 . S
C812 C807 1.363 . S
C812 C811 1.415 . S
C813 H789 0.951 1_655 S
C813 C814 1.366 . S
C813 C815 1.388 . S
C814 C813 1.366 . S
C814 C818 1.385 1_545 S
C815 H790 0.951 1_655 S
C815 C813 1.388 . S
C815 C816 1.366 . S
C816 C815 1.366 . S
C816 C817 1.414 1_545 S
C816 C819 1.497 1_545 S
C817 H791 0.950 . S
C817 C816 1.414 1_565 S
C817 C818 1.374 . S
C818 H792 0.950 . S
C818 C814 1.385 1_565 S
C818 C817 1.374 . S
C819 C816 1.497 1_565 S
C819 C820 1.382 . S
C819 C821 1.382 1_565 S
C820 H793 0.950 . S
C820 C806 1.377 . S
C820 C819 1.382 . S
C821 C805 1.377 . S
C821 C819 1.382 1_545 S
C821 C822 1.524 . S
C822 C821 1.524 . S
C822 C823 1.397 . S
C822 C827 1.363 . S
C823 H794 0.950 . S
C823 C822 1.397 . S
C823 C824 1.334 . S
C824 H795 0.950 . S
C824 C823 1.334 . S
C824 C825 1.287 . S
C825 C824 1.287 . S
C825 C826 1.524 . S
C825 H828 0.999 . S
C826 H796 0.950 . S
C826 C825 1.524 . S
C826 C827 1.415 . S
C827 H797 0.950 . S
C827 C822 1.363 . S
C827 C826 1.415 . S
H828 C825 0.999 . S
H829 C810 0.913 . S
H830 C848 0.951 . S
H831 C850 0.951 . S
H832 C852 0.950 . S
H833 C853 0.950 . S
H834 C855 0.950 . S
H835 C858 0.950 . S
H836 C859 0.950 . S
H837 C861 0.950 . S
H838 C862 0.950 . S
H839 C863 0.951 1_565 S
H840 C865 0.951 . S
H841 C867 0.950 . S
H842 C868 0.950 . S
H843 C870 0.950 . S
H844 C873 0.950 . S
H845 C874 0.950 . S
H846 C876 0.950 . S
H847 C877 0.950 . S
C848 H830 0.951 . S
C848 C849 1.366 . S
C848 C850 1.388 . S
C849 C848 1.366 . S
C849 C853 1.385 . S
C850 H831 0.951 . S
C850 C848 1.388 . S
C850 C851 1.366 . S
C851 C850 1.366 . S
C851 C852 1.414 . S
C851 C854 1.499 . S
C852 H832 0.950 . S
C852 C851 1.414 . S
C852 C853 1.374 . S
C853 H833 0.950 . S
C853 C849 1.385 . S
C853 C852 1.374 . S
C854 C851 1.499 . S
C854 C855 1.373 . S
C854 C856 1.389 . S
C855 H834 0.950 . S
C855 C854 1.373 . S
C855 C871 1.377 . S
C856 C854 1.389 . S
C856 C857 1.524 . S
C856 C870 1.377 . S
C857 C856 1.524 . S
C857 C858 1.397 . S
C857 C862 1.363 . S
C858 H835 0.950 . S
C858 C857 1.397 . S
C858 C859 1.334 . S
C859 H836 0.950 . S
C859 C858 1.334 . S
C859 C860 1.287 . S
C860 C859 1.287 . S
C860 C861 1.524 . S
C860 H879 0.913 . S
C861 H837 0.950 . S
C861 C860 1.524 . S
C861 C862 1.415 . S
C862 H838 0.950 . S
C862 C857 1.363 . S
C862 C861 1.415 . S
C863 H839 0.951 1_545 S
C863 C864 1.366 . S
C863 C865 1.388 . S
C864 C863 1.366 . S
C864 C868 1.385 . S
C865 H840 0.951 . S
C865 C863 1.388 . S
C865 C866 1.366 . S
C866 C865 1.366 . S
C866 C867 1.414 . S
C866 C869 1.499 . S
C867 H841 0.950 . S
C867 C866 1.414 . S
C867 C868 1.374 . S
C868 H842 0.950 . S
C868 C864 1.385 . S
C868 C867 1.374 . S
C869 C866 1.499 . S
C869 C870 1.373 . S
C869 C871 1.389 . S
C870 H843 0.950 . S
C870 C856 1.377 . S
C870 C869 1.373 . S
C871 C855 1.377 . S
C871 C869 1.389 . S
C871 C872 1.524 . S
C872 C871 1.524 . S
C872 C873 1.397 . S
C872 C877 1.363 1_545 S
C873 H844 0.950 . S
C873 C872 1.397 . S
C873 C874 1.334 1_545 S
C874 H845 0.950 . S
C874 C873 1.334 1_565 S
C874 C875 1.287 . S
C875 C874 1.287 . S
C875 C876 1.524 . S
C875 H878 0.999 . S
C876 H846 0.950 . S
C876 C875 1.524 . S
C876 C877 1.415 . S
C877 H847 0.950 . S
C877 C872 1.363 1_565 S
C877 C876 1.415 . S
H878 C875 0.999 . S
H879 C860 0.913 . S
H880 C898 0.951 . S
H881 C900 0.951 . S
H882 C902 0.950 . S
H883 C903 0.950 . S
H884 C905 0.950 . S
H885 C908 0.950 . S
H886 C909 0.950 . S
H887 C911 0.950 . S
H888 C912 0.950 . S
H889 C913 0.951 . S
H890 C915 0.951 . S
H891 C917 0.950 . S
H892 C918 0.950 . S
H893 C920 0.950 . S
H894 C923 0.950 . S
H895 C924 0.950 . S
H896 C926 0.950 . S
H897 C927 0.950 . S
C898 H880 0.951 . S
C898 C899 1.366 . S
C898 C900 1.388 . S
C899 C898 1.366 . S
C899 C903 1.385 . S
C900 H881 0.951 . S
C900 C898 1.388 . S
C900 C901 1.366 . S
C901 C900 1.366 . S
C901 C902 1.414 . S
C901 C904 1.499 . S
C902 H882 0.950 . S
C902 C901 1.414 . S
C902 C903 1.374 . S
C903 H883 0.950 . S
C903 C899 1.385 . S
C903 C902 1.374 . S
C904 C901 1.499 . S
C904 C905 1.373 . S
C904 C906 1.389 . S
C905 H884 0.950 . S
C905 C904 1.373 . S
C905 C921 1.377 . S
C906 C904 1.389 . S
C906 C907 1.524 . S
C906 C920 1.377 . S
C907 C906 1.524 . S
C907 C908 1.397 . S
C907 C912 1.363 . S
C908 H885 0.950 . S
C908 C907 1.397 . S
C908 C909 1.334 . S
C909 H886 0.950 . S
C909 C908 1.334 . S
C909 C910 1.287 . S
C910 C909 1.287 . S
C910 C911 1.524 . S
C910 H929 0.913 . S
C911 H887 0.950 . S
C911 C910 1.524 . S
C911 C912 1.415 . S
C912 H888 0.950 . S
C912 C907 1.363 . S
C912 C911 1.415 . S
C913 H889 0.951 . S
C913 C914 1.366 . S
C913 C915 1.388 . S
C914 C913 1.366 . S
C914 C918 1.385 . S
C915 H890 0.951 . S
C915 C913 1.388 . S
C915 C916 1.366 . S
C916 C915 1.366 . S
C916 C917 1.414 . S
C916 C919 1.499 . S
C917 H891 0.950 . S
C917 C916 1.414 . S
C917 C918 1.374 . S
C918 H892 0.950 . S
C918 C914 1.385 . S
C918 C917 1.374 . S
C919 C916 1.499 . S
C919 C920 1.373 . S
C919 C921 1.389 . S
C920 H893 0.950 . S
C920 C906 1.377 . S
C920 C919 1.373 . S
C921 C905 1.377 . S
C921 C919 1.389 . S
C921 C922 1.524 . S
C922 C921 1.524 . S
C922 C923 1.397 . S
C922 C927 1.363 . S
C923 H894 0.950 . S
C923 C922 1.397 . S
C923 C924 1.334 . S
C924 H895 0.950 . S
C924 C923 1.334 . S
C924 C925 1.287 . S
C925 C924 1.287 . S
C925 C926 1.524 . S
C925 H928 0.999 . S
C926 H896 0.950 . S
C926 C925 1.524 . S
C926 C927 1.415 . S
C927 H897 0.950 . S
C927 C922 1.363 . S
C927 C926 1.415 . S
H928 C925 0.999 . S
H929 C910 0.913 . S
H930 C948 0.951 . S
H931 C950 0.951 . S
H932 C952 0.950 . S
H933 C953 0.950 . S
H934 C955 0.950 . S
H935 C958 0.950 . S
H936 C959 0.950 . S
H937 C961 0.950 . S
H938 C962 0.950 . S
H939 C963 0.951 . S
H940 C965 0.951 . S
H941 C967 0.950 . S
H942 C968 0.950 . S
H943 C970 0.950 . S
H944 C973 0.950 . S
H945 C974 0.950 . S
H946 C976 0.950 . S
H947 C977 0.950 1_655 S
C948 H930 0.951 . S
C948 C949 1.366 . S
C948 C950 1.388 . S
C949 C948 1.366 . S
C949 C953 1.385 . S
C950 H931 0.951 . S
C950 C948 1.388 . S
C950 C951 1.366 . S
C951 C950 1.366 . S
C951 C952 1.414 . S
C951 C954 1.499 . S
C952 H932 0.950 . S
C952 C951 1.414 . S
C952 C953 1.374 . S
C953 H933 0.950 . S
C953 C949 1.385 . S
C953 C952 1.374 . S
C954 C951 1.499 . S
C954 C955 1.373 . S
C954 C956 1.389 . S
C955 H934 0.950 . S
C955 C954 1.373 . S
C955 C971 1.377 . S
C956 C954 1.389 . S
C956 C957 1.524 . S
C956 C970 1.377 . S
C957 C956 1.524 . S
C957 C958 1.397 . S
C957 C962 1.363 . S
C958 H935 0.950 . S
C958 C957 1.397 . S
C958 C959 1.334 . S
C959 H936 0.950 . S
C959 C958 1.334 . S
C959 C960 1.287 . S
C960 C959 1.287 . S
C960 C961 1.524 . S
C960 H979 0.913 . S
C961 H937 0.950 . S
C961 C960 1.524 . S
C961 C962 1.415 . S
C962 H938 0.950 . S
C962 C957 1.363 . S
C962 C961 1.415 . S
C963 H939 0.951 . S
C963 C964 1.366 . S
C963 C965 1.388 . S
C964 C963 1.366 . S
C964 C968 1.385 . S
C965 H940 0.951 . S
C965 C963 1.388 . S
C965 C966 1.366 . S
C966 C965 1.366 . S
C966 C967 1.414 . S
C966 C969 1.499 . S
C967 H941 0.950 . S
C967 C966 1.414 . S
C967 C968 1.374 . S
C968 H942 0.950 . S
C968 C964 1.385 . S
C968 C967 1.374 . S
C969 C966 1.499 . S
C969 C970 1.373 . S
C969 C971 1.389 . S
C970 H943 0.950 . S
C970 C956 1.377 . S
C970 C969 1.373 . S
C971 C955 1.377 . S
C971 C969 1.389 . S
C971 C972 1.524 . S
C972 C971 1.524 . S
C972 C973 1.397 . S
C972 C977 1.363 . S
C973 H944 0.950 . S
C973 C972 1.397 . S
C973 C974 1.334 . S
C974 H945 0.950 . S
C974 C973 1.334 . S
C974 C975 1.287 . S
C975 C974 1.287 . S
C975 C976 1.524 1_455 S
C975 H978 0.999 . S
C976 H946 0.950 . S
C976 C975 1.524 1_655 S
C976 C977 1.415 1_655 S
C977 H947 0.950 1_455 S
C977 C972 1.363 . S
C977 C976 1.415 1_455 S
H978 C975 0.999 . S
H979 C960 0.913 . S
H980 C998 0.951 . S
H981 C1000 0.951 . S
H982 C1002 0.950 . S
H983 C1003 0.950 . S
H984 C1005 0.950 . S
H985 C1008 0.950 . S
H986 C1009 0.950 . S
H987 C1011 0.950 . S
H988 C1012 0.950 . S
H989 C1013 0.951 . S
H990 C1015 0.951 . S
H991 C1017 0.950 1_556 S
H992 C1018 0.950 . S
H993 C1020 0.950 . S
H994 C1023 0.950 . S
H995 C1024 0.950 1_565 S
H996 C1026 0.950 . S
H997 C1027 0.950 . S
C998 H980 0.951 . S
C998 C999 1.366 . S
C998 C1000 1.388 . S
C999 C998 1.366 . S
C999 C1003 1.385 1_565 S
C1000 H981 0.951 . S
C1000 C998 1.388 . S
C1000 C1001 1.366 . S
C1001 C1000 1.366 . S
C1001 C1002 1.414 1_565 S
C1001 C1004 1.499 1_565 S
C1002 H982 0.950 . S
C1002 C1001 1.414 1_545 S
C1002 C1003 1.374 . S
C1003 H983 0.950 . S
C1003 C999 1.385 1_545 S
C1003 C1002 1.374 . S
C1004 C1001 1.499 1_545 S
C1004 C1005 1.373 1_556 S
C1004 C1006 1.389 1_545 S
C1005 H984 0.950 . S
C1005 C1004 1.373 1_554 S
C1005 C1021 1.377 . S
C1006 C1004 1.389 1_565 S
C1006 C1007 1.524 . S
C1006 C1020 1.377 . S
C1007 C1006 1.524 . S
C1007 C1008 1.397 1_565 S
C1007 C1012 1.363 . S
C1008 H985 0.950 . S
C1008 C1007 1.397 1_545 S
C1008 C1009 1.334 . S
C1009 H986 0.950 . S
C1009 C1008 1.334 . S
C1009 C1010 1.287 1_545 S
C1010 C1009 1.287 1_565 S
C1010 C1011 1.524 . S
C1010 H1029 0.913 . S
C1011 H987 0.950 . S
C1011 C1010 1.524 . S
C1011 C1012 1.415 . S
C1012 H988 0.950 . S
C1012 C1007 1.363 . S
C1012 C1011 1.415 . S
C1013 H989 0.951 . S
C1013 C1014 1.366 . S
C1013 C1015 1.388 . S
C1014 C1013 1.366 . S
C1014 C1018 1.385 1_545 S
C1015 H990 0.951 . S
C1015 C1013 1.388 . S
C1015 C1016 1.366 . S
C1016 C1015 1.366 . S
C1016 C1017 1.414 1_545 S
C1016 C1019 1.499 . S
C1017 H991 0.950 1_554 S
C1017 C1016 1.414 1_565 S
C1017 C1018 1.374 . S
C1018 H992 0.950 . S
C1018 C1014 1.385 1_565 S
C1018 C1017 1.374 . S
C1019 C1016 1.499 . S
C1019 C1020 1.373 1_544 S
C1019 C1021 1.389 . S
C1020 H993 0.950 . S
C1020 C1006 1.377 . S
C1020 C1019 1.373 1_566 S
C1021 C1005 1.377 . S
C1021 C1019 1.389 . S
C1021 C1022 1.524 . S
C1022 C1021 1.524 . S
C1022 C1023 1.397 1_545 S
C1022 C1027 1.363 . S
C1023 H994 0.950 . S
C1023 C1022 1.397 1_565 S
C1023 C1024 1.334 1_565 S
C1024 H995 0.950 1_545 S
C1024 C1023 1.334 1_545 S
C1024 C1025 1.287 . S
C1025 C1024 1.287 . S
C1025 C1026 1.524 . S
C1025 H1028 0.999 . S
C1026 H996 0.950 . S
C1026 C1025 1.524 . S
C1026 C1027 1.415 . S
C1027 H997 0.950 . S
C1027 C1022 1.363 . S
C1027 C1026 1.415 . S
H1028 C1025 0.999 . S
H1029 C1010 0.913 . S
H1030 C1048 0.951 . S
H1031 C1050 0.951 . S
H1032 C1052 0.950 . S
H1033 C1053 0.950 . S
H1034 C1055 0.950 . S
H1035 C1058 0.950 . S
H1036 C1059 0.950 . S
H1037 C1061 0.950 . S
H1038 C1062 0.950 . S
H1039 C1063 0.918 1_565 S
H1040 C1065 0.951 . S
H1041 C1067 0.950 . S
H1042 C1068 0.950 . S
H1043 C1070 0.950 . S
H1044 C1073 0.950 . S
H1045 C1074 0.950 . S
H1046 C1076 0.950 . S
H1047 C1077 0.950 . S
C1048 H1030 0.951 . S
C1048 C1049 1.366 . S
C1048 C1050 1.388 . S
C1049 C1048 1.366 . S
C1049 C1053 1.385 . S
C1050 H1031 0.951 . S
C1050 C1048 1.388 . S
C1050 C1051 1.366 . S
C1051 C1050 1.366 . S
C1051 C1052 1.414 . S
C1051 C1054 1.499 . S
C1052 H1032 0.950 . S
C1052 C1051 1.414 . S
C1052 C1053 1.374 . S
C1053 H1033 0.950 . S
C1053 C1049 1.385 . S
C1053 C1052 1.374 . S
C1054 C1051 1.499 . S
C1054 C1055 1.373 . S
C1054 C1056 1.389 . S
C1055 H1034 0.950 . S
C1055 C1054 1.373 . S
C1055 C1071 1.377 . S
C1056 C1054 1.389 . S
C1056 C1057 1.524 . S
C1056 C1070 1.377 . S
C1057 C1056 1.524 . S
C1057 C1058 1.397 . S
C1057 C1062 1.363 . S
C1058 H1035 0.950 . S
C1058 C1057 1.397 . S
C1058 C1059 1.334 . S
C1059 H1036 0.950 . S
C1059 C1058 1.334 . S
C1059 C1060 1.287 . S
C1060 C1059 1.287 . S
C1060 C1061 1.524 . S
C1060 H1079 0.913 . S
C1061 H1037 0.950 . S
C1061 C1060 1.524 . S
C1061 C1062 1.415 . S
C1062 H1038 0.950 . S
C1062 C1057 1.363 . S
C1062 C1061 1.415 . S
C1063 H1039 0.918 1_545 S
C1063 C1064 1.366 . S
C1063 C1065 1.388 . S
C1064 C1063 1.366 . S
C1064 C1068 1.385 . S
C1065 H1040 0.951 . S
C1065 C1063 1.388 . S
C1065 C1066 1.366 . S
C1066 C1065 1.366 . S
C1066 C1067 1.414 . S
C1066 C1069 1.499 . S
C1067 H1041 0.950 . S
C1067 C1066 1.414 . S
C1067 C1068 1.374 . S
C1068 H1042 0.950 . S
C1068 C1064 1.385 . S
C1068 C1067 1.374 . S
C1069 C1066 1.499 . S
C1069 C1070 1.373 . S
C1069 C1071 1.389 . S
C1070 H1043 0.950 . S
C1070 C1056 1.377 . S
C1070 C1069 1.373 . S
C1071 C1055 1.377 . S
C1071 C1069 1.389 . S
C1071 C1072 1.524 . S
C1072 C1071 1.524 . S
C1072 C1073 1.397 . S
C1072 C1077 1.363 . S
C1073 H1044 0.950 . S
C1073 C1072 1.397 . S
C1073 C1074 1.334 . S
C1074 H1045 0.950 . S
C1074 C1073 1.334 . S
C1074 C1075 1.287 . S
C1075 C1074 1.287 . S
C1075 C1076 1.524 . S
C1075 H1078 0.999 . S
C1076 H1046 0.950 . S
C1076 C1075 1.524 . S
C1076 C1077 1.415 . S
C1077 H1047 0.950 . S
C1077 C1072 1.363 . S
C1077 C1076 1.415 . S
H1078 C1075 0.999 . S
H1079 C1060 0.913 . S
H1080 C1098 0.951 . S
H1081 C1100 0.951 . S
H1082 C1102 0.950 . S
H1083 C1103 0.950 . S
H1084 C1105 0.950 . S
H1085 C1108 0.950 . S
H1086 C1109 0.950 . S
H1087 C1111 0.950 . S
H1088 C1112 0.950 . S
H1089 C1113 0.951 1_556 S
H1090 C1115 0.951 . S
H1091 C1117 0.950 . S
H1092 C1118 0.950 . S
H1093 C1120 0.950 . S
H1094 C1123 0.950 . S
H1095 C1124 0.950 . S
H1096 C1126 0.950 . S
H1097 C1127 0.950 . S
C1098 H1080 0.951 . S
C1098 C1099 1.366 . S
C1098 C1100 1.388 . S
C1099 C1098 1.366 . S
C1099 C1103 1.385 . S
C1100 H1081 0.951 . S
C1100 C1098 1.388 . S
C1100 C1101 1.366 . S
C1101 C1100 1.366 . S
C1101 C1102 1.414 . S
C1101 C1104 1.499 . S
C1102 H1082 0.950 . S
C1102 C1101 1.414 . S
C1102 C1103 1.374 . S
C1103 H1083 0.950 . S
C1103 C1099 1.385 . S
C1103 C1102 1.374 . S
C1104 C1101 1.499 . S
C1104 C1105 1.373 . S
C1104 C1106 1.389 . S
C1105 H1084 0.950 . S
C1105 C1104 1.373 . S
C1105 C1121 1.377 . S
C1106 C1104 1.389 . S
C1106 C1107 1.524 . S
C1106 C1120 1.377 . S
C1107 C1106 1.524 . S
C1107 C1108 1.397 . S
C1107 C1112 1.363 . S
C1108 H1085 0.950 . S
C1108 C1107 1.397 . S
C1108 C1109 1.334 . S
C1109 H1086 0.950 . S
C1109 C1108 1.334 . S
C1109 C1110 1.287 . S
C1110 C1109 1.287 . S
C1110 C1111 1.524 . S
C1110 H1129 0.913 . S
C1111 H1087 0.950 . S
C1111 C1110 1.524 . S
C1111 C1112 1.415 . S
C1112 H1088 0.950 . S
C1112 C1107 1.363 . S
C1112 C1111 1.415 . S
C1113 H1089 0.951 1_554 S
C1113 C1114 1.366 . S
C1113 C1115 1.388 . S
C1114 C1113 1.366 . S
C1114 C1118 1.385 . S
C1115 H1090 0.951 . S
C1115 C1113 1.388 . S
C1115 C1116 1.366 . S
C1116 C1115 1.366 . S
C1116 C1117 1.414 . S
C1116 C1119 1.499 . S
C1117 H1091 0.950 . S
C1117 C1116 1.414 . S
C1117 C1118 1.374 . S
C1118 H1092 0.950 . S
C1118 C1114 1.385 . S
C1118 C1117 1.374 . S
C1119 C1116 1.499 . S
C1119 C1120 1.373 . S
C1119 C1121 1.389 . S
C1120 H1093 0.950 . S
C1120 C1106 1.377 . S
C1120 C1119 1.373 . S
C1121 C1105 1.377 . S
C1121 C1119 1.389 . S
C1121 C1122 1.524 . S
C1122 C1121 1.524 . S
C1122 C1123 1.397 . S
C1122 C1127 1.363 . S
C1123 H1094 0.950 . S
C1123 C1122 1.397 . S
C1123 C1124 1.334 . S
C1124 H1095 0.950 . S
C1124 C1123 1.334 . S
C1124 C1125 1.287 1_554 S
C1125 C1124 1.287 1_556 S
C1125 C1126 1.524 . S
C1125 H1128 0.999 . S
C1126 H1096 0.950 . S
C1126 C1125 1.524 . S
C1126 C1127 1.415 1_556 S
C1127 H1097 0.950 . S
C1127 C1122 1.363 . S
C1127 C1126 1.415 1_554 S
H1128 C1125 0.999 . S
H1129 C1110 0.913 . S
H1130 C1148 0.951 . S
H1131 C1150 0.951 . S
H1132 C1152 0.950 . S
H1133 C1153 0.950 . S
H1134 C1155 0.950 . S
H1135 C1158 0.950 . S
H1136 C1159 0.950 . S
H1137 C1161 0.950 . S
H1138 C1162 0.950 . S
H1139 C1163 0.951 . S
H1140 C1165 0.951 . S
H1141 C1167 0.950 . S
H1142 C1168 0.950 . S
H1143 C1170 0.950 . S
H1144 C1173 0.950 . S
H1145 C1174 0.950 . S
H1146 C1176 0.950 . S
H1147 C1177 0.950 . S
C1148 H1130 0.951 . S
C1148 C1149 1.366 . S
C1148 C1150 1.388 . S
C1149 C1148 1.366 . S
C1149 C1153 1.385 . S
C1150 H1131 0.951 . S
C1150 C1148 1.388 . S
C1150 C1151 1.366 . S
C1151 C1150 1.366 . S
C1151 C1152 1.414 . S
C1151 C1154 1.499 . S
C1152 H1132 0.950 . S
C1152 C1151 1.414 . S
C1152 C1153 1.374 . S
C1153 H1133 0.950 . S
C1153 C1149 1.385 . S
C1153 C1152 1.374 . S
C1154 C1151 1.499 . S
C1154 C1155 1.373 . S
C1154 C1156 1.389 . S
C1155 H1134 0.950 . S
C1155 C1154 1.373 . S
C1155 C1171 1.377 . S
C1156 C1154 1.389 . S
C1156 C1157 1.524 . S
C1156 C1170 1.377 . S
C1157 C1156 1.524 . S
C1157 C1158 1.397 . S
C1157 C1162 1.363 . S
C1158 H1135 0.950 . S
C1158 C1157 1.397 . S
C1158 C1159 1.334 . S
C1159 H1136 0.950 . S
C1159 C1158 1.334 . S
C1159 C1160 1.287 . S
C1160 C1159 1.287 . S
C1160 C1161 1.524 . S
C1160 H1179 0.913 . S
C1161 H1137 0.950 . S
C1161 C1160 1.524 . S
C1161 C1162 1.415 . S
C1162 H1138 0.950 . S
C1162 C1157 1.363 . S
C1162 C1161 1.415 . S
C1163 H1139 0.951 . S
C1163 C1164 1.366 . S
C1163 C1165 1.388 . S
C1164 C1163 1.366 . S
C1164 C1168 1.385 . S
C1165 H1140 0.951 . S
C1165 C1163 1.388 . S
C1165 C1166 1.366 . S
C1166 C1165 1.366 . S
C1166 C1167 1.414 . S
C1166 C1169 1.499 . S
C1167 H1141 0.950 . S
C1167 C1166 1.414 . S
C1167 C1168 1.374 . S
C1168 H1142 0.950 . S
C1168 C1164 1.385 . S
C1168 C1167 1.374 . S
C1169 C1166 1.499 . S
C1169 C1170 1.373 . S
C1169 C1171 1.389 . S
C1170 H1143 0.950 . S
C1170 C1156 1.377 . S
C1170 C1169 1.373 . S
C1171 C1155 1.377 . S
C1171 C1169 1.389 . S
C1171 C1172 1.524 . S
C1172 C1171 1.524 . S
C1172 C1173 1.397 . S
C1172 C1177 1.363 . S
C1173 H1144 0.950 . S
C1173 C1172 1.397 . S
C1173 C1174 1.334 . S
C1174 H1145 0.950 . S
C1174 C1173 1.334 . S
C1174 C1175 1.287 . S
C1175 C1174 1.287 . S
C1175 C1176 1.524 . S
C1175 H1178 0.999 . S
C1176 H1146 0.950 . S
C1176 C1175 1.524 . S
C1176 C1177 1.415 . S
C1177 H1147 0.950 . S
C1177 C1172 1.363 . S
C1177 C1176 1.415 . S
H1178 C1175 0.999 . S
H1179 C1160 0.913 . S
H1180 C1198 0.951 . S
H1181 C1200 0.951 . S
H1182 C1202 0.950 . S
H1183 C1203 0.950 . S
H1184 C1205 0.950 . S
H1185 C1208 0.950 . S
H1186 C1209 0.950 . S
H1187 C1211 0.950 . S
H1188 C1212 0.950 . S
H1189 C1213 0.951 . S
H1190 C1215 0.951 . S
H1191 C1217 0.950 . S
H1192 C1218 0.950 . S
H1193 C1220 0.950 . S
H1194 C1223 0.950 . S
H1195 C1224 0.950 1_556 S
H1196 C1226 0.950 . S
H1197 C1227 0.950 . S
C1198 H1180 0.951 . S
C1198 C1199 1.366 . S
C1198 C1200 1.388 . S
C1199 C1198 1.366 . S
C1199 C1203 1.385 . S
C1200 H1181 0.951 . S
C1200 C1198 1.388 . S
C1200 C1201 1.366 . S
C1201 C1200 1.366 . S
C1201 C1202 1.414 . S
C1201 C1204 1.499 . S
C1202 H1182 0.950 . S
C1202 C1201 1.414 . S
C1202 C1203 1.374 . S
C1203 H1183 0.950 . S
C1203 C1199 1.385 . S
C1203 C1202 1.374 . S
C1204 C1201 1.499 . S
C1204 C1205 1.373 . S
C1204 C1206 1.389 . S
C1205 H1184 0.950 . S
C1205 C1204 1.373 . S
C1205 C1221 1.377 . S
C1206 C1204 1.389 . S
C1206 C1207 1.524 . S
C1206 C1220 1.377 . S
C1207 C1206 1.524 . S
C1207 C1208 1.397 . S
C1207 C1212 1.363 . S
C1208 H1185 0.950 . S
C1208 C1207 1.397 . S
C1208 C1209 1.334 . S
C1209 H1186 0.950 . S
C1209 C1208 1.334 . S
C1209 C1210 1.287 . S
C1210 C1209 1.287 . S
C1210 C1211 1.524 . S
C1210 H1229 0.913 . S
C1211 H1187 0.950 . S
C1211 C1210 1.524 . S
C1211 C1212 1.415 . S
C1212 H1188 0.950 . S
C1212 C1207 1.363 . S
C1212 C1211 1.415 . S
C1213 H1189 0.951 . S
C1213 C1214 1.366 1_554 S
C1213 C1215 1.388 . S
C1214 C1213 1.366 1_556 S
C1214 C1218 1.385 . S
C1215 H1190 0.951 . S
C1215 C1213 1.388 . S
C1215 C1216 1.366 1_554 S
C1216 C1215 1.366 1_556 S
C1216 C1217 1.414 . S
C1216 C1219 1.499 . S
C1217 H1191 0.950 . S
C1217 C1216 1.414 . S
C1217 C1218 1.374 . S
C1218 H1192 0.950 . S
C1218 C1214 1.385 . S
C1218 C1217 1.374 . S
C1219 C1216 1.499 . S
C1219 C1220 1.373 . S
C1219 C1221 1.389 . S
C1220 H1193 0.950 . S
C1220 C1206 1.377 . S
C1220 C1219 1.373 . S
C1221 C1205 1.377 . S
C1221 C1219 1.389 . S
C1221 C1222 1.524 1_656 S
C1222 C1221 1.524 1_454 S
C1222 C1223 1.397 1_554 S
C1222 C1227 1.363 . S
C1223 H1194 0.950 . S
C1223 C1222 1.397 1_556 S
C1223 C1224 1.334 1_556 S
C1224 H1195 0.950 1_554 S
C1224 C1223 1.334 1_554 S
C1224 C1225 1.287 . S
C1225 C1224 1.287 . S
C1225 C1226 1.524 . S
C1225 H1228 0.999 . S
C1226 H1196 0.950 . S
C1226 C1225 1.524 . S
C1226 C1227 1.415 . S
C1227 H1197 0.950 . S
C1227 C1222 1.363 . S
C1227 C1226 1.415 . S
H1228 C1225 0.999 . S
H1229 C1210 0.913 . S
H1230 C1248 0.951 . S
H1231 C1250 0.951 . S
H1232 C1252 0.950 . S
H1233 C1253 0.950 . S
H1234 C1255 0.950 . S
H1235 C1258 0.950 . S
H1236 C1259 0.950 . S
H1237 C1261 0.950 . S
H1238 C1262 0.950 . S
H1239 C1263 0.951 . S
H1240 C1265 0.951 . S
H1241 C1267 0.950 . S
H1242 C1268 0.950 . S
H1243 C1270 0.950 . S
H1244 C1273 0.950 . S
H1245 C1274 0.950 . S
H1246 C1276 0.950 . S
H1247 C1277 0.950 . S
C1248 H1230 0.951 . S
C1248 C1249 1.366 . S
C1248 C1250 1.388 . S
C1249 C1248 1.366 . S
C1249 C1253 1.385 . S
C1250 H1231 0.951 . S
C1250 C1248 1.388 . S
C1250 C1251 1.366 . S
C1251 C1250 1.366 . S
C1251 C1252 1.414 . S
C1251 C1254 1.499 . S
C1252 H1232 0.950 . S
C1252 C1251 1.414 . S
C1252 C1253 1.374 . S
C1253 H1233 0.950 . S
C1253 C1249 1.385 . S
C1253 C1252 1.374 . S
C1254 C1251 1.499 . S
C1254 C1255 1.373 . S
C1254 C1256 1.389 . S
C1255 H1234 0.950 . S
C1255 C1254 1.373 . S
C1255 C1271 1.377 . S
C1256 C1254 1.389 . S
C1256 C1257 1.524 . S
C1256 C1270 1.377 . S
C1257 C1256 1.524 . S
C1257 C1258 1.397 . S
C1257 C1262 1.363 . S
C1258 H1235 0.950 . S
C1258 C1257 1.397 . S
C1258 C1259 1.334 . S
C1259 H1236 0.950 . S
C1259 C1258 1.334 . S
C1259 C1260 1.287 . S
C1260 C1259 1.287 . S
C1260 C1261 1.524 . S
C1260 H1279 0.913 . S
C1261 H1237 0.950 . S
C1261 C1260 1.524 . S
C1261 C1262 1.415 . S
C1262 H1238 0.950 . S
C1262 C1257 1.363 . S
C1262 C1261 1.415 . S
C1263 H1239 0.951 . S
C1263 C1264 1.366 . S
C1263 C1265 1.388 . S
C1264 C1263 1.366 . S
C1264 C1268 1.385 . S
C1265 H1240 0.951 . S
C1265 C1263 1.388 . S
C1265 C1266 1.366 . S
C1266 C1265 1.366 . S
C1266 C1267 1.414 . S
C1266 C1269 1.499 . S
C1267 H1241 0.950 . S
C1267 C1266 1.414 . S
C1267 C1268 1.374 . S
C1268 H1242 0.950 . S
C1268 C1264 1.385 . S
C1268 C1267 1.374 . S
C1269 C1266 1.499 . S
C1269 C1270 1.373 . S
C1269 C1271 1.389 . S
C1270 H1243 0.950 . S
C1270 C1256 1.377 . S
C1270 C1269 1.373 . S
C1271 C1255 1.377 . S
C1271 C1269 1.389 . S
C1271 C1272 1.524 . S
C1272 C1271 1.524 . S
C1272 C1273 1.397 . S
C1272 C1277 1.363 . S
C1273 H1244 0.950 . S
C1273 C1272 1.397 . S
C1273 C1274 1.334 . S
C1274 H1245 0.950 . S
C1274 C1273 1.334 . S
C1274 C1275 1.287 . S
C1275 C1274 1.287 . S
C1275 C1276 1.524 . S
C1275 H1278 0.999 . S
C1276 H1246 0.950 . S
C1276 C1275 1.524 . S
C1276 C1277 1.415 . S
C1277 H1247 0.950 . S
C1277 C1272 1.363 . S
C1277 C1276 1.415 . S
H1278 C1275 0.999 . S
H1279 C1260 0.913 . S
H1280 C1298 0.951 . S
H1281 C1300 0.951 . S
H1282 C1302 0.950 . S
H1283 C1303 0.950 . S
H1284 C1305 0.950 . S
H1285 C1308 0.950 . S
H1286 C1309 0.950 . S
H1287 C1311 0.950 . S
H1288 C1312 0.950 . S
H1289 C1313 0.951 . S
H1290 C1315 0.951 . S
H1291 C1317 0.950 . S
H1292 C1318 0.950 . S
H1293 C1320 0.950 . S
H1294 C1323 0.950 . S
H1295 C1324 0.950 . S
H1296 C1326 0.950 . S
H1297 C1327 0.950 . S
C1298 H1280 0.951 . S
C1298 C1299 1.366 . S
C1298 C1300 1.388 . S
C1299 C1298 1.366 . S
C1299 C1303 1.385 . S
C1300 H1281 0.951 . S
C1300 C1298 1.388 . S
C1300 C1301 1.366 . S
C1301 C1300 1.366 . S
C1301 C1302 1.414 . S
C1301 C1304 1.499 . S
C1302 H1282 0.950 . S
C1302 C1301 1.414 . S
C1302 C1303 1.374 . S
C1303 H1283 0.950 . S
C1303 C1299 1.385 . S
C1303 C1302 1.374 . S
C1304 C1301 1.499 . S
C1304 C1305 1.373 . S
C1304 C1306 1.389 . S
C1305 H1284 0.950 . S
C1305 C1304 1.373 . S
C1305 C1321 1.377 . S
C1306 C1304 1.389 . S
C1306 C1307 1.524 . S
C1306 C1320 1.377 . S
C1307 C1306 1.524 . S
C1307 C1308 1.397 . S
C1307 C1312 1.363 . S
C1308 H1285 0.950 . S
C1308 C1307 1.397 . S
C1308 C1309 1.334 . S
C1309 H1286 0.950 . S
C1309 C1308 1.334 . S
C1309 C1310 1.287 . S
C1310 C1309 1.287 . S
C1310 C1311 1.524 . S
C1310 H1329 0.913 . S
C1311 H1287 0.950 . S
C1311 C1310 1.524 . S
C1311 C1312 1.415 . S
C1312 H1288 0.950 . S
C1312 C1307 1.363 . S
C1312 C1311 1.415 . S
C1313 H1289 0.951 . S
C1313 C1314 1.366 . S
C1313 C1315 1.388 . S
C1314 C1313 1.366 . S
C1314 C1318 1.385 . S
C1315 H1290 0.951 . S
C1315 C1313 1.388 . S
C1315 C1316 1.366 . S
C1316 C1315 1.366 . S
C1316 C1317 1.414 . S
C1316 C1319 1.499 . S
C1317 H1291 0.950 . S
C1317 C1316 1.414 . S
C1317 C1318 1.374 . S
C1318 H1292 0.950 . S
C1318 C1314 1.385 . S
C1318 C1317 1.374 . S
C1319 C1316 1.499 . S
C1319 C1320 1.373 . S
C1319 C1321 1.389 . S
C1320 H1293 0.950 . S
C1320 C1306 1.377 . S
C1320 C1319 1.373 . S
C1321 C1305 1.377 . S
C1321 C1319 1.389 . S
C1321 C1322 1.524 . S
C1322 C1321 1.524 . S
C1322 C1323 1.397 . S
C1322 C1327 1.363 . S
C1323 H1294 0.950 . S
C1323 C1322 1.397 . S
C1323 C1324 1.334 . S
C1324 H1295 0.950 . S
C1324 C1323 1.334 . S
C1324 C1325 1.287 . S
C1325 C1324 1.287 . S
C1325 C1326 1.524 . S
C1325 H1328 0.999 . S
C1326 H1296 0.950 . S
C1326 C1325 1.524 . S
C1326 C1327 1.415 . S
C1327 H1297 0.950 . S
C1327 C1322 1.363 . S
C1327 C1326 1.415 . S
H1328 C1325 0.999 . S
H1329 C1310 0.913 . S
H1330 C1348 0.951 . S
H1331 C1350 0.951 . S
H1332 C1352 0.950 . S
H1333 C1353 0.950 . S
H1334 C1355 0.950 . S
H1335 C1358 0.950 . S
H1336 C1359 0.950 . S
H1337 C1361 0.950 . S
H1338 C1362 0.950 . S
H1339 C1363 0.951 . S
H1340 C1365 0.951 . S
H1341 C1367 0.950 . S
H1342 C1368 0.950 . S
H1343 C1370 0.950 . S
H1344 C1373 0.950 . S
H1345 C1374 0.950 . S
H1346 C1376 0.950 . S
H1347 C1377 0.950 . S
C1348 H1330 0.951 . S
C1348 C1349 1.366 . S
C1348 C1350 1.388 . S
C1349 C1348 1.366 . S
C1349 C1353 1.385 . S
C1350 H1331 0.951 . S
C1350 C1348 1.388 . S
C1350 C1351 1.366 . S
C1351 C1350 1.366 . S
C1351 C1352 1.414 . S
C1351 C1354 1.499 . S
C1352 H1332 0.950 . S
C1352 C1351 1.414 . S
C1352 C1353 1.374 . S
C1353 H1333 0.950 . S
C1353 C1349 1.385 . S
C1353 C1352 1.374 . S
C1354 C1351 1.499 . S
C1354 C1355 1.373 . S
C1354 C1356 1.389 . S
C1355 H1334 0.950 . S
C1355 C1354 1.373 . S
C1355 C1371 1.377 . S
C1356 C1354 1.389 . S
C1356 C1357 1.524 . S
C1356 C1370 1.377 . S
C1357 C1356 1.524 . S
C1357 C1358 1.397 . S
C1357 C1362 1.363 . S
C1358 H1335 0.950 . S
C1358 C1357 1.397 . S
C1358 C1359 1.334 . S
C1359 H1336 0.950 . S
C1359 C1358 1.334 . S
C1359 C1360 1.287 . S
C1360 C1359 1.287 . S
C1360 C1361 1.524 . S
C1360 H1379 0.913 . S
C1361 H1337 0.950 . S
C1361 C1360 1.524 . S
C1361 C1362 1.415 . S
C1362 H1338 0.950 . S
C1362 C1357 1.363 . S
C1362 C1361 1.415 . S
C1363 H1339 0.951 . S
C1363 C1364 1.366 . S
C1363 C1365 1.388 . S
C1364 C1363 1.366 . S
C1364 C1368 1.385 . S
C1365 H1340 0.951 . S
C1365 C1363 1.388 . S
C1365 C1366 1.366 . S
C1366 C1365 1.366 . S
C1366 C1367 1.414 . S
C1366 C1369 1.499 . S
C1367 H1341 0.950 . S
C1367 C1366 1.414 . S
C1367 C1368 1.374 . S
C1368 H1342 0.950 . S
C1368 C1364 1.385 . S
C1368 C1367 1.374 . S
C1369 C1366 1.499 . S
C1369 C1370 1.373 . S
C1369 C1371 1.389 . S
C1370 H1343 0.950 . S
C1370 C1356 1.377 . S
C1370 C1369 1.373 . S
C1371 C1355 1.377 . S
C1371 C1369 1.389 . S
C1371 C1372 1.524 . S
C1372 C1371 1.524 . S
C1372 C1373 1.397 . S
C1372 C1377 1.363 . S
C1373 H1344 0.950 . S
C1373 C1372 1.397 . S
C1373 C1374 1.334 . S
C1374 H1345 0.950 . S
C1374 C1373 1.334 . S
C1374 C1375 1.287 . S
C1375 C1374 1.287 . S
C1375 C1376 1.524 . S
C1375 H1378 0.999 . S
C1376 H1346 0.950 . S
C1376 C1375 1.524 . S
C1376 C1377 1.415 . S
C1377 H1347 0.950 . S
C1377 C1372 1.363 . S
C1377 C1376 1.415 . S
H1378 C1375 0.999 . S
H1379 C1360 0.913 . S
C199 C4 1.805 . S
C214 C106 1.775 . S
C249 C16 1.985 . S
C264 C130 1.936 . S
C314 C150 0.912 . S
C299 C32 0.907 . S
C349 C43 1.243 . S
C364 C173 1.258 . S
C414 C132 2.212 . S
C399 C5 2.233 . S
C464 C108 1.423 . S
C449 C21 1.471 . S
C514 C176 1.403 . S
C499 C27 1.438 . S
C564 C153 1.385 . S
C549 C37 1.411 . S
C599 C10 1.433 . S
C614 C178 1.402 . S
C664 C127 1.730 . S
C649 C26 1.715 . S
C699 C38 1.334 . S
C714 C105 1.341 . S
C749 C15 1.571 . S
C764 C155 1.532 . S
C814 C109 1.964 . S
C799 C48 1.964 . S
C849 C59 1.673 . S
C864 C131 1.677 . S
C899 C76 1.581 . S
C914 C151 1.604 . S
C949 C87 1.370 . S
C964 C174 1.396 . S
C999 C54 1.356 . S
C1014 C129 1.357 . S
C1064 C107 1.949 . S
C1049 C60 1.953 . S
C1114 C177 1.301 . S
C1099 C71 1.345 . S
C1164 C154 1.264 . S
C1149 C82 1.279 . S
C1199 C49 2.132 . S
C1214 C175 2.113 1_655 S
C1264 C128 1.176 . S
C1249 C70 1.168 . S
C1314 C104 1.585 . S
C1299 C81 1.573 . S
C1349 C65 1.785 . S
C1364 C152 1.764 . S
