# Generated by pormake.
# Topology pyr, (3,6)-cn, num edge types: 1
# Building blocks:
#     Node 0, Type 0, BuildingBlock: ESEHIV_clean_linker_0, # of connection points: 3
#     Node 1, Type 0, BuildingBlock: ESEHIV_clean_linker_0, # of connection points: 3
#     Node 2, Type 0, BuildingBlock: ESEHIV_clean_linker_0, # of connection points: 3
#     Node 3, Type 0, BuildingBlock: ESEHIV_clean_linker_0, # of connection points: 3
#     Node 4, Type 0, BuildingBlock: ESEHIV_clean_linker_0, # of connection points: 3
#     Node 5, Type 0, BuildingBlock: ESEHIV_clean_linker_0, # of connection points: 3
#     Node 6, Type 0, BuildingBlock: ESEHIV_clean_linker_0, # of connection points: 3
#     Node 7, Type 0, BuildingBlock: ESEHIV_clean_linker_0, # of connection points: 3
#     Node 8, Type 1, BuildingBlock: BETFEN_clean_sbu_0, # of connection points: 6
#     Node 9, Type 1, BuildingBlock: BETFEN_clean_sbu_0, # of connection points: 6
#     Node 10, Type 1, BuildingBlock: BETFEN_clean_sbu_0, # of connection points: 6
#     Node 11, Type 1, BuildingBlock: BETFEN_clean_sbu_0, # of connection points: 6
#     Edge 12, Type (0, 1), BuildingBlock: KIFKEQ_clean_linker_1, # of connection points: 2
#     Edge 13, Type (0, 1), BuildingBlock: KIFKEQ_clean_linker_1, # of connection points: 2
#     Edge 14, Type (0, 1), BuildingBlock: KIFKEQ_clean_linker_1, # of connection points: 2
#     Edge 15, Type (0, 1), BuildingBlock: KIFKEQ_clean_linker_1, # of connection points: 2
#     Edge 16, Type (0, 1), BuildingBlock: KIFKEQ_clean_linker_1, # of connection points: 2
#     Edge 17, Type (0, 1), BuildingBlock: KIFKEQ_clean_linker_1, # of connection points: 2
#     Edge 18, Type (0, 1), BuildingBlock: KIFKEQ_clean_linker_1, # of connection points: 2
#     Edge 19, Type (0, 1), BuildingBlock: KIFKEQ_clean_linker_1, # of connection points: 2
#     Edge 20, Type (0, 1), BuildingBlock: KIFKEQ_clean_linker_1, # of connection points: 2
#     Edge 21, Type (0, 1), BuildingBlock: KIFKEQ_clean_linker_1, # of connection points: 2
#     Edge 22, Type (0, 1), BuildingBlock: KIFKEQ_clean_linker_1, # of connection points: 2
#     Edge 23, Type (0, 1), BuildingBlock: KIFKEQ_clean_linker_1, # of connection points: 2
#     Edge 24, Type (0, 1), BuildingBlock: KIFKEQ_clean_linker_1, # of connection points: 2
#     Edge 25, Type (0, 1), BuildingBlock: KIFKEQ_clean_linker_1, # of connection points: 2
#     Edge 26, Type (0, 1), BuildingBlock: KIFKEQ_clean_linker_1, # of connection points: 2
#     Edge 27, Type (0, 1), BuildingBlock: KIFKEQ_clean_linker_1, # of connection points: 2
#     Edge 28, Type (0, 1), BuildingBlock: KIFKEQ_clean_linker_1, # of connection points: 2
#     Edge 29, Type (0, 1), BuildingBlock: KIFKEQ_clean_linker_1, # of connection points: 2
#     Edge 30, Type (0, 1), BuildingBlock: KIFKEQ_clean_linker_1, # of connection points: 2
#     Edge 31, Type (0, 1), BuildingBlock: KIFKEQ_clean_linker_1, # of connection points: 2
#     Edge 32, Type (0, 1), BuildingBlock: KIFKEQ_clean_linker_1, # of connection points: 2
#     Edge 33, Type (0, 1), BuildingBlock: KIFKEQ_clean_linker_1, # of connection points: 2
#     Edge 34, Type (0, 1), BuildingBlock: KIFKEQ_clean_linker_1, # of connection points: 2
#     Edge 35, Type (0, 1), BuildingBlock: KIFKEQ_clean_linker_1, # of connection points: 2
# Relax obj value: 0.168
# Max RMSD: 0.259
# Mean RMSD: 0.124
data_MOF--net-pyr--node1-BETFEN_clean_sbu_0--node2-ESEHIV_clean_linker_0--edge1-KIFKEQ_clean_linker_1
_symmetry_space_group_name_H-M    P1
_symmetry_Int_Tables_number       1
_symmetry_cell_setting            triclinic
loop_
_symmetry_equiv_pos_as_xyz
'x, y, z'
_cell_length_a     35.1585
_cell_length_b     38.960542
_cell_length_c     36.314647
_cell_angle_alpha  91.072341
_cell_angle_beta   99.095014
_cell_angle_gamma 109.53565
loop_
_atom_site_label
_atom_site_type_symbol
_atom_site_fract_x
_atom_site_fract_y
_atom_site_fract_z
_atom_type_partial_charge
H0 H 0.37611 0.37559 0.35489 0.0
H1 H 0.46695 0.3233 0.36622 0.0
H2 H 0.43476 0.36603 0.26234 0.0
C3 C 0.39994 0.36874 0.3442 0.0
C4 C 0.40569 0.37614 0.30732 0.0
C5 C 0.42093 0.34866 0.36544 0.0
C6 C 0.44996 0.33817 0.34997 0.0
C7 C 0.4534 0.34231 0.31217 0.0
C8 C 0.43253 0.36278 0.29156 0.0
H9 H 0.28319 0.88345 0.7267 0.0
H10 H 0.36945 0.83246 0.70612 0.0
H11 H 0.28345 0.84606 0.61432 0.0
C12 C 0.29463 0.86931 0.70748 0.0
C13 C 0.27857 0.86541 0.66905 0.0
C14 C 0.3276 0.85779 0.72094 0.0
C15 C 0.34402 0.84155 0.69576 0.0
C16 C 0.32835 0.8373 0.65732 0.0
C17 C 0.2953 0.84891 0.64407 0.0
H18 H 0.67412 0.31153 0.88402 0.0
H19 H 0.6881 0.39465 0.80634 0.0
H20 H 0.57523 0.30276 0.79359 0.0
C21 C 0.66206 0.32214 0.85918 0.0
C22 C 0.62215 0.30281 0.84038 0.0
C23 C 0.68628 0.35506 0.84724 0.0
C24 C 0.66973 0.36918 0.81582 0.0
C25 C 0.62975 0.35084 0.79618 0.0
C26 C 0.60617 0.31697 0.80812 0.0
H27 H 0.85364 0.69552 0.38767 0.0
H28 H 0.93373 0.71097 0.30677 0.0
H29 H 0.84343 0.60457 0.31354 0.0
C30 C 0.86373 0.68468 0.36482 0.0
C31 C 0.84477 0.64739 0.35295 0.0
C32 C 0.89529 0.70828 0.34837 0.0
C33 C 0.90892 0.69325 0.31911 0.0
C34 C 0.89081 0.65556 0.30581 0.0
C35 C 0.85823 0.63315 0.32309 0.0
H36 H 0.63394 0.73154 0.72489 0.0
H37 H 0.68413 0.64599 0.7172 0.0
H38 H 0.62437 0.65525 0.80963 0.0
C39 C 0.63714 0.70639 0.73475 0.0
C40 C 0.62581 0.69511 0.76914 0.0
C41 C 0.65762 0.68844 0.71551 0.0
C42 C 0.66605 0.65833 0.73076 0.0
C43 C 0.65529 0.64677 0.76532 0.0
C44 C 0.63306 0.66407 0.78311 0.0
H45 H 0.71129 0.23686 0.34613 0.0
H46 H 0.78274 0.17001 0.32771 0.0
H47 H 0.79074 0.21568 0.4389 0.0
C48 C 0.73411 0.2248 0.35689 0.0
C49 C 0.75033 0.22943 0.39522 0.0
C50 C 0.74579 0.20352 0.3325 0.0
C51 C 0.77474 0.18745 0.34647 0.0
C52 C 0.79108 0.19149 0.38483 0.0
C53 C 0.77849 0.2124 0.40922 0.0
H54 H 0.39274 0.73681 0.17622 0.0
H55 H 0.38419 0.65576 0.25546 0.0
H56 H 0.49188 0.75296 0.269 0.0
C57 C 0.40624 0.72754 0.20132 0.0
C58 C 0.44508 0.74929 0.22066 0.0
C59 C 0.38426 0.69403 0.2136 0.0
C60 C 0.40093 0.68207 0.24635 0.0
C61 C 0.4397 0.70291 0.26669 0.0
C62 C 0.46167 0.73702 0.25403 0.0
H63 H 0.13339 0.33976 0.75918 0.0
H64 H 0.21167 0.35521 0.67677 0.0
H65 H 0.2237 0.44603 0.75201 0.0
C66 C 0.15796 0.35747 0.74656 0.0
C67 C 0.17647 0.39505 0.76004 0.0
C68 C 0.17084 0.34252 0.71677 0.0
C69 C 0.20212 0.36606 0.69999 0.0
C70 C 0.22144 0.40328 0.71198 0.0
C71 C 0.20868 0.41749 0.74237 0.0
Pr72 Pr 1.0002 1.01226 0.55112 0.0
Pr73 Pr 0.06074 0.03943 0.5135 0.0
C74 C 0.94414 0.97487 0.59214 0.0
C75 C 0.90711 0.94265 0.59007 0.0
C76 C 0.8815 0.94103 0.61626 0.0
C77 C 0.84728 0.90996 0.61654 0.0
C78 C 0.83796 0.87984 0.59052 0.0
C79 C 0.86327 0.88193 0.56362 0.0
C80 C 0.89761 0.91319 0.56333 0.0
C81 C 0.04291 0.08674 0.57777 0.0
C82 C 0.08595 0.99988 0.58127 0.0
C83 C 0.11837 0.0796 0.47553 0.0
C84 C 0.15529 0.11266 0.48178 0.0
C85 C 0.19135 0.11101 0.4713 0.0
C86 C 0.22618 0.14229 0.47492 0.0
C87 C 0.2256 0.17599 0.48893 0.0
C88 C 0.18973 0.17745 0.50032 0.0
C89 C 0.1549 0.146 0.49696 0.0
C90 C 1.01882 0.96492 0.4867 0.0
C91 C 0.97412 0.05071 0.48273 0.0
O92 O 0.94071 1.00195 0.57304 0.0
O93 O 0.97843 0.96909 0.5912 0.0
O94 O 0.05998 0.06362 0.57223 0.0
O95 O 1.00369 0.07205 0.56811 0.0
O96 O 0.10078 0.03129 0.56729 0.0
O97 O 0.04632 0.98248 0.57328 0.0
O98 O 0.121 0.05111 0.49253 0.0
O99 O 0.08308 0.08396 0.47496 0.0
O100 O 1.00125 0.98768 0.49245 0.0
O101 O 0.05807 0.9802 0.49565 0.0
O102 O 0.95921 1.01984 0.49767 0.0
O103 O 1.01381 0.068 0.49016 0.0
H104 H 0.88849 0.96353 0.63711 0.0
H105 H 0.829 0.90907 0.63812 0.0
H106 H 0.85677 0.85929 0.54308 0.0
H107 H 0.91705 0.91416 0.54273 0.0
H108 H 0.1923 0.08561 0.45952 0.0
H109 H 0.25307 0.14036 0.46529 0.0
H110 H 0.18846 0.20299 0.51135 0.0
H111 H 0.12754 0.14794 0.50563 0.0
Pr112 Pr 0.49819 0.03185 0.03781 0.0
Pr113 Pr 0.56839 1.01976 1.02139 0.0
C114 C 0.44458 0.04903 0.07305 0.0
C115 C 0.44935 0.08246 0.09561 0.0
C116 C 0.47192 0.11698 0.08527 0.0
C117 C 0.48031 0.14831 0.10885 0.0
C118 C 0.46691 0.1456 0.14345 0.0
C119 C 0.44407 0.11109 0.1536 0.0
C120 C 0.43529 0.07979 0.12981 0.0
C121 C 0.52868 0.07543 0.98086 0.0
C122 C 0.58938 0.08268 0.08538 0.0
C123 C 0.62404 1.00381 0.98766 0.0
C124 C 0.62228 0.97084 0.96633 0.0
C125 C 0.58897 0.9384 0.96561 0.0
C126 C 0.58622 0.90722 0.94426 0.0
C127 C 0.61684 0.90793 0.92336 0.0
C128 C 0.65022 0.94058 0.92423 0.0
C129 C 0.65284 0.97183 0.94552 0.0
C130 C 0.53753 0.97632 0.07838 0.0
C131 C 0.47707 0.96956 0.97316 0.0
O132 O 0.46657 0.02995 0.0878 0.0
O133 O 0.44465 0.05188 0.03725 0.0
O134 O 0.55049 0.07124 1.01058 0.0
O135 O 0.49049 0.05575 0.9794 0.0
O136 O 0.60566 0.07257 0.05895 0.0
O137 O 0.54998 0.06766 0.0859 0.0
O138 O 0.60035 1.02092 0.97177 0.0
O139 O 0.62286 1.00084 1.02325 0.0
O140 O 0.51601 0.98036 0.04842 0.0
O141 O 0.57571 0.9961 0.08005 0.0
O142 O 0.46054 0.97965 0.99944 0.0
O143 O 0.51663 0.9843 0.97308 0.0
H144 H 0.48395 0.11968 0.05937 0.0
H145 H 0.49823 0.17453 0.10052 0.0
H146 H 0.43302 0.10832 0.17997 0.0
H147 H 0.41834 0.05339 0.1385 0.0
H148 H 0.56504 0.93724 0.98155 0.0
H149 H 0.56041 0.88243 0.94453 0.0
H150 H 0.67405 0.94209 0.90808 0.0
H151 H 0.67855 0.99678 0.94555 0.0
Pr152 Pr 0.54974 0.56537 0.55368 0.0
Pr153 Pr 0.51307 0.48483 0.50697 0.0
C154 C 0.56349 0.63625 0.57123 0.0
C155 C 0.53788 0.65918 0.565 0.0
C156 C 0.55358 0.69602 0.57818 0.0
C157 C 0.52798 0.71696 0.57532 0.0
C158 C 0.48628 0.70129 0.55909 0.0
C159 C 0.47123 0.66467 0.54438 0.0
C160 C 0.49682 0.64376 0.54742 0.0
C161 C 0.57743 0.51462 0.59439 0.0
C162 C 0.45824 0.5054 0.56694 0.0
C163 C 0.49891 0.41411 0.48798 0.0
C164 C 0.52459 0.39111 0.49238 0.0
C165 C 0.51374 0.35898 0.46927 0.0
C166 C 0.5407 0.33944 0.47015 0.0
C167 C 0.57897 0.35187 0.4942 0.0
C168 C 0.58886 0.38333 0.51845 0.0
C169 C 0.562 0.40292 0.51737 0.0
C170 C 0.4859 0.53606 0.46631 0.0
C171 C 0.60499 0.54454 0.49435 0.0
O172 O 0.57329 0.62469 0.54121 0.0
O173 O 0.55238 0.61089 0.59443 0.0
O174 O 0.55512 0.50917 0.56247 0.0
O175 O 0.58887 0.54911 0.60536 0.0
O176 O 0.46358 0.47992 0.54558 0.0
O177 O 0.48388 0.53982 0.57108 0.0
O178 O 0.49032 0.42533 0.51885 0.0
O179 O 0.50903 0.43975 0.46492 0.0
O180 O 0.50789 0.54106 0.4983 0.0
O181 O 0.4745 0.50163 0.45512 0.0
O182 O 0.59938 0.5701 0.51537 0.0
O183 O 0.57934 0.51012 0.49021 0.0
H184 H 0.58529 0.70829 0.59158 0.0
H185 H 0.54044 0.74495 0.58733 0.0
H186 H 0.43945 0.65195 0.5313 0.0
H187 H 0.48433 0.61528 0.53692 0.0
H188 H 0.48516 0.34977 0.44956 0.0
H189 H 0.53239 0.31565 0.45069 0.0
H190 H 0.61786 0.3934 0.53755 0.0
H191 H 0.57104 0.42796 0.53514 0.0
Pr192 Pr 1.02843 0.55227 1.00998 0.0
Pr193 Pr 0.03866 0.49451 0.05743 0.0
C194 C 0.99785 0.596 0.9672 0.0
C195 C 0.95726 0.59054 0.94508 0.0
C196 C 0.95337 0.61132 0.91462 0.0
C197 C 0.91483 0.60572 0.89313 0.0
C198 C 0.87955 0.57904 0.90164 0.0
C199 C 0.8838 0.55791 0.93198 0.0
C200 C 0.9223 0.56373 0.95357 0.0
C201 C 0.10809 0.57196 0.05099 0.0
C202 C 0.99969 0.55019 0.09466 0.0
C203 C 0.06441 0.44719 0.09916 0.0
C204 C 0.10303 0.445 0.11929 0.0
C205 C 0.10191 0.42059 0.14721 0.0
C206 C 0.13828 0.41862 0.16737 0.0
C207 C 0.17644 0.44105 0.15987 0.0
C208 C 0.17745 0.46551 0.13172 0.0
C209 C 0.14096 0.4676 0.11168 0.0
C210 C 0.9594 0.47553 1.01535 0.0
C211 C 0.06811 0.49714 0.9734 0.0
O212 O 1.01818 0.57703 0.95488 0.0
O213 O 0.99993 0.59643 1.00342 0.0
O214 O 0.07587 0.55568 0.06346 0.0
O215 O 0.09965 0.58163 1.01759 0.0
O216 O 1.022 0.52907 0.10294 0.0
O217 O 0.99254 0.55836 0.0595 0.0
O218 O 0.05162 0.47159 0.113 0.0
O219 O 0.05965 0.44557 0.06272 0.0
O220 O 0.99212 0.49118 1.00355 0.0
O221 O 0.96689 0.46677 0.04927 0.0
O222 O 0.04418 0.5168 0.96485 0.0
O223 O 0.07647 0.49009 1.00884 0.0
H224 H 0.98007 0.63204 0.90762 0.0
H225 H 0.9126 0.62294 0.87041 0.0
H226 H 0.8574 0.5369 0.93906 0.0
H227 H 0.9248 0.54732 0.97698 0.0
H228 H 0.07285 0.40304 0.15346 0.0
H229 H 0.13651 0.39917 0.18852 0.0
H230 H 0.20641 0.48331 0.12556 0.0
H231 H 0.14232 0.48689 0.09038 0.0
H232 H 0.41521 0.28031 0.38671 0.0
H233 H 0.39035 0.37683 0.42017 0.0
H234 H 0.37682 0.2468 0.43134 0.0
H235 H 0.34965 0.34186 0.46446 0.0
H236 H 0.22434 0.24154 0.46459 0.0
H237 H 0.28179 0.29124 0.44917 0.0
H238 H 0.36477 0.2364 0.49543 0.0
H239 H 0.30708 0.18643 0.51066 0.0
C240 C 0.40301 0.29506 0.40451 0.0
C241 C 0.40575 0.33149 0.39919 0.0
C242 C 0.38063 0.27551 0.43029 0.0
C243 C 0.35976 0.2915 0.45121 0.0
C244 C 0.36501 0.32869 0.44831 0.0
C245 C 0.38814 0.34861 0.42278 0.0
C246 C 0.25499 0.24069 0.4727 0.0
C247 C 0.26112 0.20972 0.4881 0.0
C248 C 0.28801 0.2693 0.46399 0.0
C249 C 0.32776 0.26748 0.47057 0.0
C250 C 0.33437 0.23825 0.48947 0.0
C251 C 0.30136 0.20961 0.49805 0.0
H252 H 0.40895 0.88839 0.74787 0.0
H253 H 0.29134 0.84698 0.78321 0.0
H254 H 0.44222 0.9078 0.81215 0.0
H255 H 0.32485 0.86564 0.84834 0.0
H256 H 0.39611 0.95555 0.94566 0.0
H257 H 0.35764 0.92142 0.88678 0.0
H258 H 0.46139 0.88984 0.87184 0.0
H259 H 0.50027 0.92546 0.92962 0.0
C260 C 0.39034 0.88261 0.76962 0.0
C261 C 0.34761 0.86615 0.76062 0.0
C262 C 0.40941 0.89361 0.80658 0.0
C263 C 0.38625 0.88814 0.83555 0.0
C264 C 0.34353 0.87063 0.82666 0.0
C265 C 0.32435 0.85988 0.78947 0.0
C266 C 0.41031 0.94073 0.93005 0.0
C267 C 0.45131 0.94361 0.94174 0.0
C268 C 0.38824 0.921 0.89639 0.0
C269 C 0.40668 0.90341 0.8742 0.0
C270 C 0.44665 0.90393 0.88768 0.0
C271 C 0.46887 0.92415 0.92089 0.0
H272 H 0.62214 0.41762 0.80053 0.0
H273 H 0.60228 0.32716 0.72113 0.0
H274 H 0.60779 0.45388 0.7499 0.0
H275 H 0.58867 0.36401 0.66954 0.0
H276 H 0.53704 0.43952 0.58937 0.0
H277 H 0.5453 0.39666 0.63639 0.0
H278 H 0.64326 0.48464 0.70324 0.0
H279 H 0.6345 0.52682 0.65705 0.0
C280 C 0.61415 0.40531 0.7721 0.0
C281 C 0.6134 0.36948 0.76495 0.0
C282 C 0.60639 0.4263 0.74287 0.0
C283 C 0.59801 0.41243 0.70522 0.0
C284 C 0.59505 0.37578 0.69804 0.0
C285 C 0.60268 0.35454 0.7276 0.0
C286 C 0.56077 0.44941 0.61382 0.0
C287 C 0.58511 0.48667 0.61935 0.0
C288 C 0.56545 0.42487 0.64092 0.0
C289 C 0.59442 0.43711 0.67428 0.0
C290 C 0.61977 0.47412 0.67867 0.0
C291 C 0.61505 0.49841 0.65185 0.0
H292 H 0.89667 0.5864 0.29554 0.0
H293 H 0.92027 0.68819 0.24333 0.0
H294 H 0.92107 0.56134 0.24565 0.0
H295 H 0.94578 0.66349 0.19403 0.0
H296 H 0.95708 0.59909 0.09015 0.0
H297 H 0.93089 0.62354 0.13935 0.0
H298 H 0.97808 0.56047 0.21885 0.0
H299 H 1.00381 0.53584 0.16954 0.0
C300 C 0.90686 0.60364 0.27347 0.0
C301 C 0.90608 0.63973 0.27429 0.0
C302 C 0.92153 0.58922 0.2447 0.0
C303 C 0.93591 0.61 0.21501 0.0
C304 C 0.93484 0.64601 0.21569 0.0
C305 C 0.92047 0.66052 0.24461 0.0
C306 C 0.96189 0.59027 0.11807 0.0
C307 C 0.98284 0.56515 0.12524 0.0
C308 C 0.94696 0.60464 0.1467 0.0
C309 C 0.95197 0.5944 0.18391 0.0
C310 C 0.97274 0.56907 0.19091 0.0
C311 C 0.9879 0.55492 0.16235 0.0
H312 H 0.44551 0.27164 0.32403 0.0
H313 H 0.49718 0.35757 0.25393 0.0
H314 H 0.45952 0.22834 0.28497 0.0
H315 H 0.51102 0.31334 0.21402 0.0
H316 H 0.49795 0.15484 0.21803 0.0
H317 H 0.50786 0.20694 0.2614 0.0
H318 H 0.46693 0.26258 0.16976 0.0
H319 H 0.45811 0.21078 0.12639 0.0
C320 C 0.46134 0.28176 0.30108 0.0
C321 C 0.47024 0.31835 0.2923 0.0
C322 C 0.46927 0.25665 0.27843 0.0
C323 C 0.48621 0.26724 0.24618 0.0
C324 C 0.49739 0.30422 0.23842 0.0
C325 C 0.48954 0.32956 0.2613 0.0
C326 C 0.49145 0.17839 0.20721 0.0
C327 C 0.47662 0.1786 0.16902 0.0
C328 C 0.49719 0.20825 0.23198 0.0
C329 C 0.48774 0.23879 0.21915 0.0
C330 C 0.47496 0.23972 0.18057 0.0
C331 C 0.46961 0.20996 0.15573 0.0
H332 H 0.27685 0.90698 0.60963 0.0
H333 H 0.21021 0.86201 0.69787 0.0
H334 H 0.22947 0.93956 0.59081 0.0
H335 H 0.16355 0.89561 0.6798 0.0
H336 H 0.06466 0.93217 0.60771 0.0
H337 H 0.10989 0.89813 0.62884 0.0
H338 H 0.21486 0.99161 0.6167 0.0
H339 H 0.16964 0.0255 0.59495 0.0
C340 C 0.25174 0.90367 0.62467 0.0
C341 C 0.2472 0.88193 0.65519 0.0
C342 C 0.22501 0.92279 0.61429 0.0
C343 C 0.19315 0.92054 0.63417 0.0
C344 C 0.18778 0.89785 0.66392 0.0
C345 C 0.21458 0.87877 0.67436 0.0
C346 C 0.09743 0.94565 0.61004 0.0
C347 C 0.11358 0.98145 0.59944 0.0
C348 C 0.12332 0.92613 0.62218 0.0
C349 C 0.16586 0.94203 0.62392 0.0
C350 C 0.18212 0.97838 0.61488 0.0
C351 C 0.15625 0.99792 0.60279 0.0
H352 H 0.72547 0.42942 0.86274 0.0
H353 H 0.74275 0.32577 0.88071 0.0
H354 H 0.79209 0.46079 0.90235 0.0
H355 H 0.80775 0.35711 0.92175 0.0
H356 H 0.88954 0.42497 0.03043 0.0
H357 H 0.82413 0.39754 0.98781 0.0
H358 H 0.87237 0.46579 0.90203 0.0
H359 H 0.93844 0.49232 0.94415 0.0
C360 C 0.74344 0.4133 0.87472 0.0
C361 C 0.72824 0.37489 0.86879 0.0
C362 C 0.78142 0.4313 0.8976 0.0
C363 C 0.80455 0.41122 0.91547 0.0
C364 C 0.79006 0.37311 0.9088 0.0
C365 C 0.75267 0.3552 0.88542 0.0
C366 C 0.88615 0.4342 1.00254 0.0
C367 C 0.91905 0.46069 0.99056 0.0
C368 C 0.84882 0.41849 0.97819 0.0
C369 C 0.8434 0.42954 0.94169 0.0
C370 C 0.87581 0.4569 0.93007 0.0
C371 C 0.91352 0.47198 0.95414 0.0
H372 H 0.76694 0.59833 0.32345 0.0
H373 H 0.84561 0.64557 0.42846 0.0
H374 H 0.70969 0.57074 0.35699 0.0
H375 H 0.78909 0.61852 0.46164 0.0
H376 H 0.67052 0.60887 0.50433 0.0
H377 H 0.7272 0.629 0.47003 0.0
H378 H 0.67895 0.52665 0.40238 0.0
H379 H 0.62162 0.50632 0.43699 0.0
C380 C 0.77236 0.60228 0.35367 0.0
C381 C 0.81113 0.62471 0.37297 0.0
C382 C 0.73938 0.58654 0.37303 0.0
C383 C 0.74409 0.59285 0.41226 0.0
C384 C 0.78349 0.61366 0.43149 0.0
C385 C 0.81622 0.62911 0.41232 0.0
C386 C 0.67185 0.59035 0.48235 0.0
C387 C 0.6411 0.55571 0.47389 0.0
C388 C 0.70477 0.60194 0.4626 0.0
C389 C 0.70832 0.57957 0.43323 0.0
C390 C 0.67749 0.5449 0.42455 0.0
C391 C 0.64462 0.53307 0.4447 0.0
H392 H 0.36606 0.35432 0.23514 0.0
H393 H 0.38259 0.43381 0.32626 0.0
H394 H 0.31563 0.37605 0.19891 0.0
H395 H 0.33132 0.45523 0.28992 0.0
H396 H 0.19588 0.43766 0.23517 0.0
H397 H 0.25608 0.42744 0.26959 0.0
H398 H 0.30435 0.4285 0.16721 0.0
H399 H 0.24356 0.43802 0.13259 0.0
C400 C 0.35979 0.3771 0.24713 0.0
C401 C 0.37853 0.39239 0.28365 0.0
C402 C 0.3307 0.38948 0.22632 0.0
C403 C 0.31939 0.41727 0.24159 0.0
C404 C 0.33908 0.43347 0.27759 0.0
C405 C 0.36841 0.42122 0.29836 0.0
C406 C 0.21944 0.43586 0.22006 0.0
C407 C 0.21486 0.43831 0.18115 0.0
C408 C 0.25414 0.43043 0.23983 0.0
C409 C 0.28494 0.42711 0.2211 0.0
C410 C 0.28096 0.43068 0.18234 0.0
C411 C 0.24634 0.43639 0.16258 0.0
H412 H 0.58328 0.2327 0.80657 0.0
H413 H 0.60956 0.29566 0.91219 0.0
H414 H 0.55938 0.17601 0.83838 0.0
H415 H 0.58671 0.23966 0.94377 0.0
H416 H 0.59866 0.13593 0.99398 0.0
H417 H 0.61635 0.18959 0.95761 0.0
H418 H 0.50553 0.13959 0.87722 0.0
H419 H 0.48757 0.08603 0.91393 0.0
C420 C 0.58297 0.2345 0.83631 0.0
C421 C 0.59856 0.26877 0.8568 0.0
C422 C 0.56964 0.20204 0.85464 0.0
C423 C 0.57205 0.2032 0.89386 0.0
C424 C 0.58535 0.23759 0.91377 0.0
C425 C 0.59809 0.26976 0.89554 0.0
C426 C 0.57823 0.13621 0.9684 0.0
C427 C 0.54162 0.10668 0.95701 0.0
C428 C 0.58821 0.1671 0.94763 0.0
C429 C 0.56218 0.16915 0.91456 0.0
C430 C 0.52632 0.13899 0.90242 0.0
C431 C 0.516 0.10832 0.92355 0.0
H432 H 0.85544 0.75295 0.37122 0.0
H433 H 0.97651 0.75532 0.35977 0.0
H434 H 0.88402 0.81309 0.40378 0.0
H435 H 1.0053 0.81725 0.39004 0.0
H436 H 0.05288 0.91218 0.48013 0.0
H437 H 1.02399 0.85286 0.44508 0.0
H438 H 0.91214 0.87495 0.40723 0.0
H439 H 0.94086 0.93377 0.44425 0.0
C440 C 0.88835 0.76635 0.37536 0.0
C441 C 0.91347 0.74824 0.36324 0.0
C442 C 0.90492 0.8016 0.3938 0.0
C443 C 0.94747 0.82091 0.40049 0.0
C444 C 0.97252 0.80352 0.38669 0.0
C445 C 0.95587 0.76789 0.36853 0.0
C446 C 1.02199 0.90434 0.46443 0.0
C447 C 0.99932 0.92803 0.46525 0.0
C448 C 1.00537 0.87014 0.44375 0.0
C449 C 0.9654 0.85822 0.42248 0.0
C450 C 0.94269 0.88216 0.42338 0.0
C451 C 0.95923 0.91629 0.4446 0.0
H452 H 0.29177 0.78131 0.60285 0.0
H453 H 0.40934 0.8584 0.65408 0.0
H454 H 0.32618 0.74998 0.56754 0.0
H455 H 0.44367 0.82706 0.61969 0.0
H456 H 0.49932 0.77322 0.54652 0.0
H457 H 0.4571 0.80911 0.55962 0.0
H458 H 0.3675 0.71197 0.58933 0.0
H459 H 0.40948 0.67631 0.57642 0.0
C460 C 0.32488 0.79194 0.6059 0.0
C461 C 0.34803 0.82184 0.63149 0.0
C462 C 0.34456 0.77397 0.58593 0.0
C463 C 0.38764 0.78589 0.59104 0.0
C464 C 0.41048 0.81734 0.61478 0.0
C465 C 0.39087 0.83508 0.63481 0.0
C466 C 0.47034 0.75951 0.55538 0.0
C467 C 0.45798 0.72202 0.56084 0.0
C468 C 0.44613 0.78001 0.56276 0.0
C469 C 0.40913 0.76342 0.57578 0.0
C470 C 0.39555 0.72551 0.57886 0.0
C471 C 0.41971 0.70505 0.5715 0.0
H472 H 0.73579 0.69946 0.70484 0.0
H473 H 0.62503 0.71869 0.65644 0.0
H474 H 0.77289 0.73911 0.6624 0.0
H475 H 0.66242 0.75861 0.61322 0.0
H476 H 0.76182 0.87289 0.60509 0.0
H477 H 0.71254 0.81904 0.62435 0.0
H478 H 0.78667 0.75496 0.60135 0.0
H479 H 0.83711 0.80944 0.58389 0.0
C480 C 0.71888 0.71099 0.68409 0.0
C481 C 0.67739 0.70598 0.68413 0.0
C482 C 0.74028 0.73388 0.65961 0.0
C483 C 0.72078 0.75239 0.63454 0.0
C484 C 0.67851 0.74523 0.63261 0.0
C485 C 0.65706 0.7223 0.65723 0.0
C486 C 0.76736 0.84721 0.60371 0.0
C487 C 0.80386 0.84566 0.59382 0.0
C488 C 0.73878 0.81613 0.61427 0.0
C489 C 0.74591 0.7827 0.61495 0.0
C490 C 0.78062 0.78045 0.6018 0.0
C491 C 0.80936 0.81163 0.59142 0.0
H492 H 0.77984 0.20927 0.26928 0.0
H493 H 0.6639 0.17697 0.30792 0.0
H494 H 0.74406 0.18866 0.20515 0.0
H495 H 0.62816 0.15474 0.24474 0.0
H496 H 0.56663 0.12806 0.12783 0.0
H497 H 0.60676 0.16622 0.18391 0.0
H498 H 0.70977 0.13306 0.16977 0.0
H499 H 0.67024 0.09682 0.1125 0.0
C500 C 0.74666 0.19794 0.26386 0.0
C501 C 0.72452 0.19468 0.2933 0.0
C502 C 0.72614 0.18594 0.22727 0.0
C503 C 0.68314 0.16979 0.21962 0.0
C504 C 0.66114 0.16767 0.24919 0.0
C505 C 0.6816 0.18023 0.28554 0.0
C506 C 0.59814 0.12957 0.13645 0.0
C507 C 0.61531 0.10928 0.1162 0.0
C508 C 0.62109 0.15122 0.16872 0.0
C509 C 0.66135 0.15227 0.18191 0.0
C510 C 0.67909 0.13335 0.16039 0.0
C511 C 0.65638 0.11234 0.12763 0.0
H512 H 0.46377 0.64409 0.26322 0.0
H513 H 0.45163 0.72172 0.3425 0.0
H514 H 0.47695 0.6071 0.3138 0.0
H515 H 0.46443 0.68425 0.39381 0.0
H516 H 0.51888 0.61191 0.47743 0.0
H517 H 0.51292 0.6565 0.4316 0.0
H518 H 0.43272 0.56818 0.35246 0.0
H519 H 0.43876 0.52436 0.39765 0.0
C520 C 0.46494 0.65369 0.29171 0.0
C521 C 0.45706 0.68602 0.29883 0.0
C522 C 0.47195 0.63222 0.32078 0.0
C523 C 0.47098 0.64213 0.35805 0.0
C524 C 0.46546 0.67568 0.36556 0.0
C525 C 0.45836 0.6973 0.33621 0.0
C526 C 0.4996 0.6022 0.45042 0.0
C527 C 0.47946 0.56446 0.44129 0.0
C528 C 0.49622 0.62775 0.42406 0.0
C529 C 0.47298 0.61605 0.38784 0.0
C530 C 0.45177 0.57837 0.37954 0.0
C531 C 0.45495 0.55311 0.40573 0.0
H532 H 0.14908 0.3621 0.82304 0.0
H533 H 0.1701 0.46386 0.77109 0.0
H534 H 0.12402 0.38615 0.87313 0.0
H535 H 0.146 0.48827 0.82171 0.0
H536 H 0.0623 0.51095 0.8985 0.0
H537 H 0.08833 0.48726 0.84885 0.0
H538 H 0.1395 0.42643 0.92808 0.0
H539 H 0.11306 0.45003 0.97775 0.0
C540 C 0.1484 0.38964 0.822 0.0
C541 C 0.16187 0.41062 0.79215 0.0
C542 C 0.13429 0.40376 0.85135 0.0
C543 C 0.13254 0.43952 0.85226 0.0
C544 C 0.14611 0.46054 0.82245 0.0
C545 C 0.16057 0.44652 0.79327 0.0
C546 C 0.07917 0.49258 0.90558 0.0
C547 C 0.08527 0.48271 0.94275 0.0
C548 C 0.0945 0.47899 0.87682 0.0
C549 C 0.11646 0.45457 0.88365 0.0
C550 C 0.12252 0.44467 0.92091 0.0
C551 C 0.10744 0.45853 0.94978 0.0
H552 H 0.6533 0.71267 0.844 0.0
H553 H 0.57562 0.73557 0.75004 0.0
H554 H 0.64625 0.76104 0.88227 0.0
H555 H 0.57016 0.7855 0.78829 0.0
H556 H 0.54939 0.85886 0.87894 0.0
H557 H 0.54554 0.80342 0.84348 0.0
H558 H 0.67509 0.82711 0.88171 0.0
H559 H 0.67864 0.88158 0.91791 0.0
C560 C 0.63383 0.72736 0.83165 0.0
C561 C 0.61502 0.72013 0.79379 0.0
C562 C 0.6304 0.7556 0.85353 0.0
C563 C 0.60835 0.77756 0.83812 0.0
C564 C 0.58741 0.76905 0.80097 0.0
C565 C 0.59073 0.74061 0.779 0.0
C566 C 0.57692 0.85196 0.88 0.0
C567 C 0.61434 0.87458 0.90125 0.0
C568 C 0.57476 0.82041 0.85947 0.0
C569 C 0.60992 0.81073 0.86001 0.0
C570 C 0.64728 0.83344 0.88119 0.0
C571 C 0.64946 0.86495 0.90156 0.0
H572 H 0.79014 0.15243 0.44665 0.0
H573 H 0.8555 0.18604 0.35492 0.0
H574 H 0.83417 0.11716 0.4678 0.0
H575 H 0.89855 0.14981 0.37528 0.0
H576 H 0.99619 0.11543 0.45054 0.0
H577 H 0.95227 0.14968 0.42657 0.0
H578 H 0.84625 0.06166 0.44743 0.0
H579 H 0.89036 0.02754 0.47213 0.0
C580 C 0.81412 0.15251 0.4312 0.0
C581 C 0.81943 0.17202 0.39917 0.0
C582 C 0.83891 0.13188 0.44297 0.0
C583 C 0.86957 0.13045 0.423 0.0
C584 C 0.87532 0.15049 0.39135 0.0
C585 C 0.85052 0.17105 0.37957 0.0
C586 C 0.96345 0.10314 0.44959 0.0
C587 C 0.94675 0.06884 0.46338 0.0
C588 C 0.93827 0.12277 0.43578 0.0
C589 C 0.89585 0.10852 0.43545 0.0
C590 C 0.87895 0.07361 0.44795 0.0
C591 C 0.90415 0.05392 0.46173 0.0
H592 H 0.36866 0.6733 0.13937 0.0
H593 H 0.31049 0.66332 0.23658 0.0
H594 H 0.30291 0.63986 0.10038 0.0
H595 H 0.24398 0.63101 0.19741 0.0
H596 H 0.13265 0.55225 0.1201 0.0
H597 H 0.20014 0.57749 0.15983 0.0
H598 H 0.24266 0.65044 0.07515 0.0
H599 H 0.17606 0.62408 0.03518 0.0
C600 C 0.34162 0.66393 0.15232 0.0
C601 C 0.34452 0.67116 0.19088 0.0
C602 C 0.30385 0.64495 0.12998 0.0
C603 C 0.26781 0.63315 0.14551 0.0
C604 C 0.27101 0.63934 0.18443 0.0
C605 C 0.30905 0.65798 0.20692 0.0
C606 C 0.15663 0.57355 0.11004 0.0
C607 C 0.14913 0.58633 0.07465 0.0
C608 C 0.19524 0.58818 0.13286 0.0
C609 C 0.22705 0.61613 0.12086 0.0
C610 C 0.21935 0.62853 0.08519 0.0
C611 C 0.18099 0.61362 0.06229 0.0
H612 H 0.21924 0.40531 0.6363 0.0
H613 H 0.29977 0.45196 0.7406 0.0
H614 H 0.27509 0.43202 0.60227 0.0
H615 H 0.35633 0.47927 0.70619 0.0
H616 H 0.44275 0.5436 0.62495 0.0
H617 H 0.38621 0.5234 0.66046 0.0
H618 H 0.33657 0.42112 0.59271 0.0
H619 H 0.39255 0.44111 0.55751 0.0
C620 C 0.24889 0.42157 0.65211 0.0
C621 C 0.2547 0.4259 0.69151 0.0
C622 C 0.28123 0.43683 0.63244 0.0
C623 C 0.32093 0.45739 0.6512 0.0
C624 C 0.32638 0.46365 0.69051 0.0
C625 C 0.2938 0.44808 0.71037 0.0
C626 C 0.41962 0.51688 0.61741 0.0
C627 C 0.42255 0.49423 0.58792 0.0
C628 C 0.38721 0.50513 0.63808 0.0
C629 C 0.35623 0.47053 0.62965 0.0
C630 C 0.35916 0.44813 0.59998 0.0
C631 C 0.39166 0.45964 0.57971 0.0
H632 H 0.67096 0.58675 0.73865 0.0
H633 H 0.6868 0.65408 0.83988 0.0
H634 H 0.71796 0.55843 0.77117 0.0
H635 H 0.73208 0.6254 0.87195 0.0
H636 H 0.80862 0.56827 0.92905 0.0
H637 H 0.74407 0.57115 0.89584 0.0
H638 H 0.7932 0.58533 0.7932 0.0
H639 H 0.85722 0.58092 0.82607 0.0
C640 C 0.68357 0.59493 0.76793 0.0
C641 C 0.67516 0.62298 0.78641 0.0
C642 C 0.71041 0.57866 0.78653 0.0
C643 C 0.72893 0.58983 0.82406 0.0
C644 C 0.71792 0.61569 0.84323 0.0
C645 C 0.69159 0.63214 0.82467 0.0
C646 C 0.80528 0.57085 0.89918 0.0
C647 C 0.83837 0.57504 0.88034 0.0
C648 C 0.76833 0.57273 0.8802 0.0
C649 C 0.7637 0.57895 0.84201 0.0
C650 C 0.79567 0.58034 0.82258 0.0
C651 C 0.83261 0.57839 0.84155 0.0
H652 H 0.45569 0.7567 0.14822 0.0
H653 H 0.48323 0.8199 0.2539 0.0
H654 H 0.47777 0.81255 0.11642 0.0
H655 H 0.50648 0.87649 0.22178 0.0
H656 H 0.57839 0.96583 0.14555 0.0
H657 H 0.55993 0.91259 0.18264 0.0
H658 H 0.44891 0.86286 0.10241 0.0
H659 H 0.46713 0.91618 0.06563 0.0
C660 C 0.467 0.78262 0.16483 0.0
C661 C 0.46712 0.78366 0.20368 0.0
C662 C 0.47942 0.81473 0.14645 0.0
C663 C 0.49305 0.84917 0.16628 0.0
C664 C 0.49591 0.85043 0.20556 0.0
C665 C 0.4829 0.81801 0.22405 0.0
C666 C 0.54981 0.94367 0.13603 0.0
C667 C 0.52432 0.94528 0.10247 0.0
C668 C 0.53919 0.91319 0.1574 0.0
C669 C 0.50312 0.88317 0.14544 0.0
C670 C 0.47721 0.88522 0.11229 0.0
C671 C 0.4875 0.91592 0.09126 0.0
H672 H 0.08943 0.29627 0.70622 0.0
H673 H 0.20954 0.29745 0.69266 0.0
H674 H 0.05951 0.23446 0.67573 0.0
H675 H 0.17979 0.23739 0.65993 0.0
H676 H 0.12092 0.11676 0.62003 0.0
H677 H 0.15076 0.17545 0.65719 0.0
H678 H 0.03995 0.19943 0.62001 0.0
H679 H 1.00993 0.14022 0.58475 0.0
C680 C 0.10961 0.28345 0.69695 0.0
C681 C 0.15207 0.30269 0.70171 0.0
C682 C 0.09231 0.24791 0.67869 0.0
C683 C 0.11675 0.23024 0.66429 0.0
C684 C 0.15938 0.24915 0.67042 0.0
C685 C 0.17661 0.28432 0.68896 0.0
C686 C 0.10301 0.13462 0.61986 0.0
C687 C 0.0629 0.12347 0.59933 0.0
C688 C 0.1202 0.16866 0.64115 0.0
C689 C 0.0981 0.19306 0.64225 0.0
C690 C 0.05809 0.18174 0.62113 0.0
C691 C 0.04082 0.14762 0.60035 0.0
H692 H 0.74898 0.29813 0.38825 0.0
H693 H 0.71701 0.20751 0.45746 0.0
H694 H 0.71289 0.32864 0.42158 0.0
H695 H 0.6809 0.23825 0.49138 0.0
H696 H 0.56702 0.27867 0.48584 0.0
H697 H 0.61588 0.25075 0.47079 0.0
H698 H 0.70991 0.35723 0.48143 0.0
H699 H 0.66088 0.38526 0.4951 0.0
C700 C 0.73498 0.28522 0.41127 0.0
C701 C 0.7355 0.2505 0.42024 0.0
C702 C 0.71453 0.30273 0.43053 0.0
C703 C 0.6939 0.28574 0.45901 0.0
C704 C 0.69629 0.25182 0.46936 0.0
C705 C 0.71718 0.23441 0.45024 0.0
C706 C 0.59824 0.29605 0.48534 0.0
C707 C 0.60991 0.3342 0.49123 0.0
C708 C 0.62636 0.28003 0.47719 0.0
C709 C 0.66665 0.30187 0.47468 0.0
C710 C 0.67895 0.33977 0.48282 0.0
C711 C 0.6509 0.35577 0.49099 0.0
loop_
_geom_bond_atom_site_label_1
_geom_bond_atom_site_label_2
_geom_bond_distance
_geom_bond_site_symmetry_2
_ccdc_geom_bond_type
H0 C3 0.931 . S
H1 C6 0.928 . S
H2 C8 0.930 . S
C3 H0 0.931 . S
C3 C4 1.413 . S
C3 C5 1.360 . S
C4 C3 1.413 . S
C4 C8 1.429 . S
C5 C3 1.360 . S
C5 C6 1.372 . S
C6 H1 0.928 . S
C6 C5 1.372 . S
C6 C7 1.404 . S
C7 C6 1.404 . S
C7 C8 1.391 . S
C8 H2 0.930 . S
C8 C4 1.429 . S
C8 C7 1.391 . S
H9 C12 0.931 . S
H10 C15 0.928 . S
H11 C17 0.930 . S
C12 H9 0.931 . S
C12 C13 1.413 . S
C12 C14 1.360 . S
C13 C12 1.413 . S
C13 C17 1.429 . S
C14 C12 1.360 . S
C14 C15 1.372 . S
C15 H10 0.928 . S
C15 C14 1.372 . S
C15 C16 1.404 . S
C16 C15 1.404 . S
C16 C17 1.391 . S
C17 H11 0.930 . S
C17 C13 1.429 . S
C17 C16 1.391 . S
H18 C21 0.931 . S
H19 C24 0.928 . S
H20 C26 0.930 . S
C21 H18 0.931 . S
C21 C22 1.413 . S
C21 C23 1.360 . S
C22 C21 1.413 . S
C22 C26 1.429 . S
C23 C21 1.360 . S
C23 C24 1.372 . S
C24 H19 0.928 . S
C24 C23 1.372 . S
C24 C25 1.404 . S
C25 C24 1.404 . S
C25 C26 1.391 . S
C26 H20 0.930 . S
C26 C22 1.429 . S
C26 C25 1.391 . S
H27 C30 0.931 . S
H28 C33 0.928 . S
H29 C35 0.930 . S
C30 H27 0.931 . S
C30 C31 1.413 . S
C30 C32 1.360 . S
C31 C30 1.413 . S
C31 C35 1.429 . S
C32 C30 1.360 . S
C32 C33 1.372 . S
C33 H28 0.928 . S
C33 C32 1.372 . S
C33 C34 1.404 . S
C34 C33 1.404 . S
C34 C35 1.391 . S
C35 H29 0.930 . S
C35 C31 1.429 . S
C35 C34 1.391 . S
H36 C39 0.931 . S
H37 C42 0.928 . S
H38 C44 0.930 . S
C39 H36 0.931 . S
C39 C40 1.413 . S
C39 C41 1.360 . S
C40 C39 1.413 . S
C40 C44 1.429 . S
C41 C39 1.360 . S
C41 C42 1.372 . S
C42 H37 0.928 . S
C42 C41 1.372 . S
C42 C43 1.404 . S
C43 C42 1.404 . S
C43 C44 1.391 . S
C44 H38 0.930 . S
C44 C40 1.429 . S
C44 C43 1.391 . S
H45 C48 0.931 . S
H46 C51 0.928 . S
H47 C53 0.930 . S
C48 H45 0.931 . S
C48 C49 1.413 . S
C48 C50 1.360 . S
C49 C48 1.413 . S
C49 C53 1.429 . S
C50 C48 1.360 . S
C50 C51 1.372 . S
C51 H46 0.928 . S
C51 C50 1.372 . S
C51 C52 1.404 . S
C52 C51 1.404 . S
C52 C53 1.391 . S
C53 H47 0.930 . S
C53 C49 1.429 . S
C53 C52 1.391 . S
H54 C57 0.931 . S
H55 C60 0.928 . S
H56 C62 0.930 . S
C57 H54 0.931 . S
C57 C58 1.413 . S
C57 C59 1.360 . S
C58 C57 1.413 . S
C58 C62 1.429 . S
C59 C57 1.360 . S
C59 C60 1.372 . S
C60 H55 0.928 . S
C60 C59 1.372 . S
C60 C61 1.404 . S
C61 C60 1.404 . S
C61 C62 1.391 . S
C62 H56 0.930 . S
C62 C58 1.429 . S
C62 C61 1.391 . S
H63 C66 0.931 . S
H64 C69 0.928 . S
H65 C71 0.930 . S
C66 H63 0.931 . S
C66 C67 1.413 . S
C66 C68 1.360 . S
C67 C66 1.413 . S
C67 C71 1.429 . S
C68 C66 1.360 . S
C68 C69 1.372 . S
C69 H64 0.928 . S
C69 C68 1.372 . S
C69 C70 1.404 . S
C70 C69 1.404 . S
C70 C71 1.391 . S
C71 H65 0.930 . S
C71 C67 1.429 . S
C71 C70 1.391 . S
Pr72 C74 2.880 . S
Pr72 O92 2.562 . S
Pr72 O93 2.490 . S
Pr72 O94 2.695 1_665 S
Pr72 O95 2.512 1_665 S
Pr72 O97 2.437 1_655 S
Pr72 O100 2.436 . S
Pr72 O102 2.438 1_565 S
Pr73 C83 2.880 . S
Pr73 O94 2.436 . S
Pr73 O96 2.438 1_545 S
Pr73 O98 2.562 . S
Pr73 O99 2.490 . S
Pr73 O100 2.695 1_445 S
Pr73 O101 2.512 1_545 S
Pr73 O103 2.437 1_455 S
C74 Pr72 2.880 . S
C74 C75 1.491 . S
C74 O92 1.254 . S
C74 O93 1.225 . S
C75 C74 1.491 . S
C75 C76 1.392 . S
C75 C80 1.356 . S
C76 C75 1.392 . S
C76 C77 1.368 . S
C76 H104 0.929 . S
C77 C76 1.368 . S
C77 C78 1.386 . S
C77 H105 0.929 . S
C78 C77 1.386 . S
C78 C79 1.373 . S
C79 C78 1.373 . S
C79 C80 1.409 . S
C79 H106 0.931 . S
C80 C75 1.356 . S
C80 C79 1.409 . S
C80 H107 0.930 . S
C81 O94 1.270 . S
C81 O95 1.248 . S
C82 O96 1.267 . S
C82 O97 1.278 . S
C83 Pr73 2.880 . S
C83 C84 1.491 . S
C83 O98 1.254 . S
C83 O99 1.225 . S
C84 C83 1.491 . S
C84 C85 1.392 . S
C84 C89 1.356 . S
C85 C84 1.392 . S
C85 C86 1.368 . S
C85 H108 0.929 . S
C86 C85 1.368 . S
C86 C87 1.386 . S
C86 H109 0.929 . S
C87 C86 1.386 . S
C87 C88 1.373 . S
C88 C87 1.373 . S
C88 C89 1.409 . S
C88 H110 0.931 . S
C89 C84 1.356 . S
C89 C88 1.409 . S
C89 H111 0.930 . S
C90 O100 1.270 . S
C90 O101 1.248 1_655 S
C91 O102 1.267 . S
C91 O103 1.278 . S
O92 Pr72 2.562 . S
O92 C74 1.254 . S
O93 Pr72 2.490 . S
O93 C74 1.225 . S
O94 Pr72 2.695 1_445 S
O94 Pr73 2.436 . S
O94 C81 1.270 . S
O95 Pr72 2.512 1_445 S
O95 C81 1.248 . S
O96 Pr73 2.438 1_565 S
O96 C82 1.267 . S
O97 Pr72 2.437 1_455 S
O97 C82 1.278 . S
O98 Pr73 2.562 . S
O98 C83 1.254 . S
O99 Pr73 2.490 . S
O99 C83 1.225 . S
O100 Pr72 2.436 . S
O100 Pr73 2.695 1_665 S
O100 C90 1.270 . S
O101 Pr73 2.512 1_565 S
O101 C90 1.248 1_455 S
O102 Pr72 2.438 1_545 S
O102 C91 1.267 . S
O103 Pr73 2.437 1_655 S
O103 C91 1.278 . S
H104 C76 0.929 . S
H105 C77 0.929 . S
H106 C79 0.931 . S
H107 C80 0.930 . S
H108 C85 0.929 . S
H109 C86 0.929 . S
H110 C88 0.931 . S
H111 C89 0.930 . S
Pr112 C114 2.880 . S
Pr112 O132 2.562 . S
Pr112 O133 2.490 . S
Pr112 O134 2.695 1_554 S
Pr112 O135 2.512 1_554 S
Pr112 O137 2.437 . S
Pr112 O140 2.436 1_545 S
Pr112 O142 2.438 1_544 S
Pr113 C123 2.876 1_554 S
Pr113 O134 2.434 1_564 S
Pr113 O136 2.442 1_565 S
Pr113 O138 2.557 1_554 S
Pr113 O139 2.488 1_554 S
Pr113 O140 2.699 . S
Pr113 O141 2.516 . S
Pr113 O143 2.435 1_554 S
C114 Pr112 2.880 . S
C114 C115 1.491 . S
C114 O132 1.254 . S
C114 O133 1.225 . S
C115 C114 1.491 . S
C115 C116 1.392 . S
C115 C120 1.356 . S
C116 C115 1.392 . S
C116 C117 1.368 . S
C116 H144 0.929 . S
C117 C116 1.368 . S
C117 C118 1.386 . S
C117 H145 0.929 . S
C118 C117 1.386 . S
C118 C119 1.373 . S
C119 C118 1.373 . S
C119 C120 1.409 . S
C119 H146 0.931 . S
C120 C115 1.356 . S
C120 C119 1.409 . S
C120 H147 0.930 . S
C121 O134 1.270 . S
C121 O135 1.248 . S
C122 O136 1.267 . S
C122 O137 1.278 . S
C123 Pr113 2.876 1_556 S
C123 C124 1.491 . S
C123 O138 1.254 . S
C123 O139 1.225 . S
C124 C123 1.491 . S
C124 C125 1.392 . S
C124 C129 1.356 . S
C125 C124 1.392 . S
C125 C126 1.368 . S
C125 H148 0.929 . S
C126 C125 1.368 . S
C126 C127 1.386 . S
C126 H149 0.929 . S
C127 C126 1.386 . S
C127 C128 1.373 . S
C128 C127 1.373 . S
C128 C129 1.409 . S
C128 H150 0.931 . S
C129 C124 1.356 . S
C129 C128 1.409 . S
C129 H151 0.930 . S
C130 O140 1.270 . S
C130 O141 1.248 . S
C131 O142 1.267 . S
C131 O143 1.278 . S
O132 Pr112 2.562 . S
O132 C114 1.254 . S
O133 Pr112 2.490 . S
O133 C114 1.225 . S
O134 Pr112 2.695 1_556 S
O134 Pr113 2.434 1_546 S
O134 C121 1.270 . S
O135 Pr112 2.512 1_556 S
O135 C121 1.248 . S
O136 Pr113 2.442 1_545 S
O136 C122 1.267 . S
O137 Pr112 2.437 . S
O137 C122 1.278 . S
O138 Pr113 2.557 1_556 S
O138 C123 1.254 . S
O139 Pr113 2.488 1_556 S
O139 C123 1.225 . S
O140 Pr112 2.436 1_565 S
O140 Pr113 2.699 . S
O140 C130 1.270 . S
O141 Pr113 2.516 . S
O141 C130 1.248 . S
O142 Pr112 2.438 1_566 S
O142 C131 1.267 . S
O143 Pr113 2.435 1_556 S
O143 C131 1.278 . S
H144 C116 0.929 . S
H145 C117 0.929 . S
H146 C119 0.931 . S
H147 C120 0.930 . S
H148 C125 0.929 . S
H149 C126 0.929 . S
H150 C128 0.931 . S
H151 C129 0.930 . S
Pr152 C154 2.880 . S
Pr152 O172 2.562 . S
Pr152 O173 2.490 . S
Pr152 O174 2.695 . S
Pr152 O175 2.512 . S
Pr152 O177 2.437 . S
Pr152 O180 2.436 . S
Pr152 O182 2.438 . S
Pr153 C163 2.880 . S
Pr153 O174 2.436 . S
Pr153 O176 2.438 . S
Pr153 O178 2.562 . S
Pr153 O179 2.490 . S
Pr153 O180 2.695 . S
Pr153 O181 2.512 . S
Pr153 O183 2.437 . S
C154 Pr152 2.880 . S
C154 C155 1.491 . S
C154 O172 1.254 . S
C154 O173 1.225 . S
C155 C154 1.491 . S
C155 C156 1.392 . S
C155 C160 1.356 . S
C156 C155 1.392 . S
C156 C157 1.368 . S
C156 H184 0.929 . S
C157 C156 1.368 . S
C157 C158 1.386 . S
C157 H185 0.929 . S
C158 C157 1.386 . S
C158 C159 1.373 . S
C159 C158 1.373 . S
C159 C160 1.409 . S
C159 H186 0.931 . S
C160 C155 1.356 . S
C160 C159 1.409 . S
C160 H187 0.930 . S
C161 O174 1.270 . S
C161 O175 1.248 . S
C162 O176 1.267 . S
C162 O177 1.278 . S
C163 Pr153 2.880 . S
C163 C164 1.491 . S
C163 O178 1.254 . S
C163 O179 1.225 . S
C164 C163 1.491 . S
C164 C165 1.392 . S
C164 C169 1.356 . S
C165 C164 1.392 . S
C165 C166 1.368 . S
C165 H188 0.929 . S
C166 C165 1.368 . S
C166 C167 1.386 . S
C166 H189 0.929 . S
C167 C166 1.386 . S
C167 C168 1.373 . S
C168 C167 1.373 . S
C168 C169 1.409 . S
C168 H190 0.931 . S
C169 C164 1.356 . S
C169 C168 1.409 . S
C169 H191 0.930 . S
C170 O180 1.270 . S
C170 O181 1.248 . S
C171 O182 1.267 . S
C171 O183 1.278 . S
O172 Pr152 2.562 . S
O172 C154 1.254 . S
O173 Pr152 2.490 . S
O173 C154 1.225 . S
O174 Pr152 2.695 . S
O174 Pr153 2.436 . S
O174 C161 1.270 . S
O175 Pr152 2.512 . S
O175 C161 1.248 . S
O176 Pr153 2.438 . S
O176 C162 1.267 . S
O177 Pr152 2.437 . S
O177 C162 1.278 . S
O178 Pr153 2.562 . S
O178 C163 1.254 . S
O179 Pr153 2.490 . S
O179 C163 1.225 . S
O180 Pr152 2.436 . S
O180 Pr153 2.695 . S
O180 C170 1.270 . S
O181 Pr153 2.512 . S
O181 C170 1.248 . S
O182 Pr152 2.438 . S
O182 C171 1.267 . S
O183 Pr153 2.437 . S
O183 C171 1.278 . S
H184 C156 0.929 . S
H185 C157 0.929 . S
H186 C159 0.931 . S
H187 C160 0.930 . S
H188 C165 0.929 . S
H189 C166 0.929 . S
H190 C168 0.931 . S
H191 C169 0.930 . S
Pr192 C194 2.880 . S
Pr192 O212 2.562 . S
Pr192 O213 2.490 . S
Pr192 O214 2.695 1_656 S
Pr192 O215 2.512 1_656 S
Pr192 O217 2.437 1_556 S
Pr192 O220 2.436 . S
Pr192 O222 2.438 1_655 S
Pr193 C203 2.880 . S
Pr193 O214 2.436 . S
Pr193 O216 2.438 1_455 S
Pr193 O218 2.562 . S
Pr193 O219 2.490 . S
Pr193 O220 2.695 1_454 S
Pr193 O221 2.512 1_454 S
Pr193 O223 2.437 1_554 S
C194 Pr192 2.880 . S
C194 C195 1.491 . S
C194 O212 1.254 . S
C194 O213 1.225 . S
C195 C194 1.491 . S
C195 C196 1.392 . S
C195 C200 1.356 . S
C196 C195 1.392 . S
C196 C197 1.368 . S
C196 H224 0.929 . S
C197 C196 1.368 . S
C197 C198 1.386 . S
C197 H225 0.929 . S
C198 C197 1.386 . S
C198 C199 1.373 . S
C199 C198 1.373 . S
C199 C200 1.409 . S
C199 H226 0.931 . S
C200 C195 1.356 . S
C200 C199 1.409 . S
C200 H227 0.930 . S
C201 O214 1.270 . S
C201 O215 1.248 . S
C202 O216 1.267 . S
C202 O217 1.278 . S
C203 Pr193 2.880 . S
C203 C204 1.491 . S
C203 O218 1.254 . S
C203 O219 1.225 . S
C204 C203 1.491 . S
C204 C205 1.392 . S
C204 C209 1.356 . S
C205 C204 1.392 . S
C205 C206 1.368 . S
C205 H228 0.929 . S
C206 C205 1.368 . S
C206 C207 1.386 . S
C206 H229 0.929 . S
C207 C206 1.386 . S
C207 C208 1.373 . S
C208 C207 1.373 . S
C208 C209 1.409 . S
C208 H230 0.931 . S
C209 C204 1.356 . S
C209 C208 1.409 . S
C209 H231 0.930 . S
C210 O220 1.270 . S
C210 O221 1.248 . S
C211 O222 1.267 . S
C211 O223 1.278 . S
O212 Pr192 2.562 . S
O212 C194 1.254 . S
O213 Pr192 2.490 . S
O213 C194 1.225 . S
O214 Pr192 2.695 1_454 S
O214 Pr193 2.436 . S
O214 C201 1.270 . S
O215 Pr192 2.512 1_454 S
O215 C201 1.248 . S
O216 Pr193 2.438 1_655 S
O216 C202 1.267 . S
O217 Pr192 2.437 1_554 S
O217 C202 1.278 . S
O218 Pr193 2.562 . S
O218 C203 1.254 . S
O219 Pr193 2.490 . S
O219 C203 1.225 . S
O220 Pr192 2.436 . S
O220 Pr193 2.695 1_656 S
O220 C210 1.270 . S
O221 Pr193 2.512 1_656 S
O221 C210 1.248 . S
O222 Pr192 2.438 1_455 S
O222 C211 1.267 . S
O223 Pr193 2.437 1_556 S
O223 C211 1.278 . S
H224 C196 0.929 . S
H225 C197 0.929 . S
H226 C199 0.931 . S
H227 C200 0.930 . S
H228 C205 0.929 . S
H229 C206 0.929 . S
H230 C208 0.931 . S
H231 C209 0.930 . S
H232 C240 0.950 . S
H233 C245 0.950 . S
H234 C242 0.950 . S
H235 C244 0.950 . S
H236 C246 0.950 . S
H237 C248 0.950 . S
H238 C250 0.950 . S
H239 C251 0.950 . S
C240 H232 0.950 . S
C240 C241 1.386 . S
C240 C242 1.391 . S
C241 C240 1.386 . S
C241 C245 1.393 . S
C242 H234 0.950 . S
C242 C240 1.391 . S
C242 C243 1.400 . S
C243 C242 1.400 . S
C243 C244 1.398 . S
C243 C249 1.491 . S
C244 H235 0.950 . S
C244 C243 1.398 . S
C244 C245 1.391 . S
C245 H233 0.950 . S
C245 C241 1.393 . S
C245 C244 1.391 . S
C246 H236 0.950 . S
C246 C247 1.386 . S
C246 C248 1.391 . S
C247 C246 1.386 . S
C247 C251 1.393 . S
C248 H237 0.950 . S
C248 C246 1.391 . S
C248 C249 1.400 . S
C249 C243 1.491 . S
C249 C248 1.400 . S
C249 C250 1.398 . S
C250 H238 0.950 . S
C250 C249 1.398 . S
C250 C251 1.391 . S
C251 H239 0.950 . S
C251 C247 1.393 . S
C251 C250 1.391 . S
H252 C260 0.950 . S
H253 C265 0.950 . S
H254 C262 0.950 . S
H255 C264 0.950 . S
H256 C266 0.950 . S
H257 C268 0.950 . S
H258 C270 0.950 . S
H259 C271 0.950 . S
C260 H252 0.950 . S
C260 C261 1.386 . S
C260 C262 1.391 . S
C261 C260 1.386 . S
C261 C265 1.393 . S
C262 H254 0.950 . S
C262 C260 1.391 . S
C262 C263 1.400 . S
C263 C262 1.400 . S
C263 C264 1.398 . S
C263 C269 1.491 . S
C264 H255 0.950 . S
C264 C263 1.398 . S
C264 C265 1.391 . S
C265 H253 0.950 . S
C265 C261 1.393 . S
C265 C264 1.391 . S
C266 H256 0.950 . S
C266 C267 1.386 . S
C266 C268 1.391 . S
C267 C266 1.386 . S
C267 C271 1.393 . S
C268 H257 0.950 . S
C268 C266 1.391 . S
C268 C269 1.400 . S
C269 C263 1.491 . S
C269 C268 1.400 . S
C269 C270 1.398 . S
C270 H258 0.950 . S
C270 C269 1.398 . S
C270 C271 1.391 . S
C271 H259 0.950 . S
C271 C267 1.393 . S
C271 C270 1.391 . S
H272 C280 0.950 . S
H273 C285 0.950 . S
H274 C282 0.950 . S
H275 C284 0.950 . S
H276 C286 0.950 . S
H277 C288 0.950 . S
H278 C290 0.950 . S
H279 C291 0.950 . S
C280 H272 0.950 . S
C280 C281 1.386 . S
C280 C282 1.391 . S
C281 C280 1.386 . S
C281 C285 1.393 . S
C282 H274 0.950 . S
C282 C280 1.391 . S
C282 C283 1.400 . S
C283 C282 1.400 . S
C283 C284 1.398 . S
C283 C289 1.491 . S
C284 H275 0.950 . S
C284 C283 1.398 . S
C284 C285 1.391 . S
C285 H273 0.950 . S
C285 C281 1.393 . S
C285 C284 1.391 . S
C286 H276 0.950 . S
C286 C287 1.386 . S
C286 C288 1.391 . S
C287 C286 1.386 . S
C287 C291 1.393 . S
C288 H277 0.950 . S
C288 C286 1.391 . S
C288 C289 1.400 . S
C289 C283 1.491 . S
C289 C288 1.400 . S
C289 C290 1.398 . S
C290 H278 0.950 . S
C290 C289 1.398 . S
C290 C291 1.391 . S
C291 H279 0.950 . S
C291 C287 1.393 . S
C291 C290 1.391 . S
H292 C300 0.950 . S
H293 C305 0.950 . S
H294 C302 0.950 . S
H295 C304 0.950 . S
H296 C306 0.950 . S
H297 C308 0.950 . S
H298 C310 0.950 . S
H299 C311 0.950 . S
C300 H292 0.950 . S
C300 C301 1.386 . S
C300 C302 1.391 . S
C301 C300 1.386 . S
C301 C305 1.393 . S
C302 H294 0.950 . S
C302 C300 1.391 . S
C302 C303 1.400 . S
C303 C302 1.400 . S
C303 C304 1.398 . S
C303 C309 1.491 . S
C304 H295 0.950 . S
C304 C303 1.398 . S
C304 C305 1.391 . S
C305 H293 0.950 . S
C305 C301 1.393 . S
C305 C304 1.391 . S
C306 H296 0.950 . S
C306 C307 1.386 . S
C306 C308 1.391 . S
C307 C306 1.386 . S
C307 C311 1.393 . S
C308 H297 0.950 . S
C308 C306 1.391 . S
C308 C309 1.400 . S
C309 C303 1.491 . S
C309 C308 1.400 . S
C309 C310 1.398 . S
C310 H298 0.950 . S
C310 C309 1.398 . S
C310 C311 1.391 . S
C311 H299 0.950 . S
C311 C307 1.393 . S
C311 C310 1.391 . S
H312 C320 0.950 . S
H313 C325 0.950 . S
H314 C322 0.950 . S
H315 C324 0.950 . S
H316 C326 0.950 . S
H317 C328 0.950 . S
H318 C330 0.950 . S
H319 C331 0.950 . S
C320 H312 0.950 . S
C320 C321 1.386 . S
C320 C322 1.391 . S
C321 C320 1.386 . S
C321 C325 1.393 . S
C322 H314 0.950 . S
C322 C320 1.391 . S
C322 C323 1.400 . S
C323 C322 1.400 . S
C323 C324 1.398 . S
C323 C329 1.491 . S
C324 H315 0.950 . S
C324 C323 1.398 . S
C324 C325 1.391 . S
C325 H313 0.950 . S
C325 C321 1.393 . S
C325 C324 1.391 . S
C326 H316 0.950 . S
C326 C327 1.386 . S
C326 C328 1.391 . S
C327 C326 1.386 . S
C327 C331 1.393 . S
C328 H317 0.950 . S
C328 C326 1.391 . S
C328 C329 1.400 . S
C329 C323 1.491 . S
C329 C328 1.400 . S
C329 C330 1.398 . S
C330 H318 0.950 . S
C330 C329 1.398 . S
C330 C331 1.391 . S
C331 H319 0.950 . S
C331 C327 1.393 . S
C331 C330 1.391 . S
H332 C340 0.950 . S
H333 C345 0.950 . S
H334 C342 0.950 . S
H335 C344 0.950 . S
H336 C346 0.950 . S
H337 C348 0.950 . S
H338 C350 0.950 . S
H339 C351 0.950 . S
C340 H332 0.950 . S
C340 C341 1.386 . S
C340 C342 1.391 . S
C341 C340 1.386 . S
C341 C345 1.393 . S
C342 H334 0.950 . S
C342 C340 1.391 . S
C342 C343 1.400 . S
C343 C342 1.400 . S
C343 C344 1.398 . S
C343 C349 1.491 . S
C344 H335 0.950 . S
C344 C343 1.398 . S
C344 C345 1.391 . S
C345 H333 0.950 . S
C345 C341 1.393 . S
C345 C344 1.391 . S
C346 H336 0.950 . S
C346 C347 1.386 . S
C346 C348 1.391 . S
C347 C346 1.386 . S
C347 C351 1.393 . S
C348 H337 0.950 . S
C348 C346 1.391 . S
C348 C349 1.400 . S
C349 C343 1.491 . S
C349 C348 1.400 . S
C349 C350 1.398 . S
C350 H338 0.950 . S
C350 C349 1.398 . S
C350 C351 1.391 . S
C351 H339 0.950 . S
C351 C347 1.393 . S
C351 C350 1.391 . S
H352 C360 0.950 . S
H353 C365 0.950 . S
H354 C362 0.950 . S
H355 C364 0.950 . S
H356 C366 0.950 . S
H357 C368 0.950 . S
H358 C370 0.950 . S
H359 C371 0.950 . S
C360 H352 0.950 . S
C360 C361 1.386 . S
C360 C362 1.391 . S
C361 C360 1.386 . S
C361 C365 1.393 . S
C362 H354 0.950 . S
C362 C360 1.391 . S
C362 C363 1.400 . S
C363 C362 1.400 . S
C363 C364 1.398 . S
C363 C369 1.491 . S
C364 H355 0.950 . S
C364 C363 1.398 . S
C364 C365 1.391 . S
C365 H353 0.950 . S
C365 C361 1.393 . S
C365 C364 1.391 . S
C366 H356 0.950 . S
C366 C367 1.386 . S
C366 C368 1.391 . S
C367 C366 1.386 . S
C367 C371 1.393 . S
C368 H357 0.950 . S
C368 C366 1.391 . S
C368 C369 1.400 . S
C369 C363 1.491 . S
C369 C368 1.400 . S
C369 C370 1.398 . S
C370 H358 0.950 . S
C370 C369 1.398 . S
C370 C371 1.391 . S
C371 H359 0.950 . S
C371 C367 1.393 . S
C371 C370 1.391 . S
H372 C380 0.950 . S
H373 C385 0.950 . S
H374 C382 0.950 . S
H375 C384 0.950 . S
H376 C386 0.950 . S
H377 C388 0.950 . S
H378 C390 0.950 . S
H379 C391 0.950 . S
C380 H372 0.950 . S
C380 C381 1.386 . S
C380 C382 1.391 . S
C381 C380 1.386 . S
C381 C385 1.393 . S
C382 H374 0.950 . S
C382 C380 1.391 . S
C382 C383 1.400 . S
C383 C382 1.400 . S
C383 C384 1.398 . S
C383 C389 1.491 . S
C384 H375 0.950 . S
C384 C383 1.398 . S
C384 C385 1.391 . S
C385 H373 0.950 . S
C385 C381 1.393 . S
C385 C384 1.391 . S
C386 H376 0.950 . S
C386 C387 1.386 . S
C386 C388 1.391 . S
C387 C386 1.386 . S
C387 C391 1.393 . S
C388 H377 0.950 . S
C388 C386 1.391 . S
C388 C389 1.400 . S
C389 C383 1.491 . S
C389 C388 1.400 . S
C389 C390 1.398 . S
C390 H378 0.950 . S
C390 C389 1.398 . S
C390 C391 1.391 . S
C391 H379 0.950 . S
C391 C387 1.393 . S
C391 C390 1.391 . S
H392 C400 0.950 . S
H393 C405 0.950 . S
H394 C402 0.950 . S
H395 C404 0.950 . S
H396 C406 0.950 . S
H397 C408 0.950 . S
H398 C410 0.950 . S
H399 C411 0.950 . S
C400 H392 0.950 . S
C400 C401 1.386 . S
C400 C402 1.391 . S
C401 C400 1.386 . S
C401 C405 1.393 . S
C402 H394 0.950 . S
C402 C400 1.391 . S
C402 C403 1.400 . S
C403 C402 1.400 . S
C403 C404 1.398 . S
C403 C409 1.491 . S
C404 H395 0.950 . S
C404 C403 1.398 . S
C404 C405 1.391 . S
C405 H393 0.950 . S
C405 C401 1.393 . S
C405 C404 1.391 . S
C406 H396 0.950 . S
C406 C407 1.386 . S
C406 C408 1.391 . S
C407 C406 1.386 . S
C407 C411 1.393 . S
C408 H397 0.950 . S
C408 C406 1.391 . S
C408 C409 1.400 . S
C409 C403 1.491 . S
C409 C408 1.400 . S
C409 C410 1.398 . S
C410 H398 0.950 . S
C410 C409 1.398 . S
C410 C411 1.391 . S
C411 H399 0.950 . S
C411 C407 1.393 . S
C411 C410 1.391 . S
H412 C420 0.950 . S
H413 C425 0.950 . S
H414 C422 0.950 . S
H415 C424 0.950 . S
H416 C426 0.950 . S
H417 C428 0.950 . S
H418 C430 0.950 . S
H419 C431 0.950 . S
C420 H412 0.950 . S
C420 C421 1.386 . S
C420 C422 1.391 . S
C421 C420 1.386 . S
C421 C425 1.393 . S
C422 H414 0.950 . S
C422 C420 1.391 . S
C422 C423 1.400 . S
C423 C422 1.400 . S
C423 C424 1.398 . S
C423 C429 1.491 . S
C424 H415 0.950 . S
C424 C423 1.398 . S
C424 C425 1.391 . S
C425 H413 0.950 . S
C425 C421 1.393 . S
C425 C424 1.391 . S
C426 H416 0.950 . S
C426 C427 1.386 . S
C426 C428 1.391 . S
C427 C426 1.386 . S
C427 C431 1.393 . S
C428 H417 0.950 . S
C428 C426 1.391 . S
C428 C429 1.400 . S
C429 C423 1.491 . S
C429 C428 1.400 . S
C429 C430 1.398 . S
C430 H418 0.950 . S
C430 C429 1.398 . S
C430 C431 1.391 . S
C431 H419 0.950 . S
C431 C427 1.393 . S
C431 C430 1.391 . S
H432 C440 0.950 . S
H433 C445 0.950 . S
H434 C442 0.950 . S
H435 C444 0.950 . S
H436 C446 0.950 . S
H437 C448 0.950 . S
H438 C450 0.950 . S
H439 C451 0.950 . S
C440 H432 0.950 . S
C440 C441 1.386 . S
C440 C442 1.391 . S
C441 C440 1.386 . S
C441 C445 1.393 . S
C442 H434 0.950 . S
C442 C440 1.391 . S
C442 C443 1.400 . S
C443 C442 1.400 . S
C443 C444 1.398 . S
C443 C449 1.491 . S
C444 H435 0.950 . S
C444 C443 1.398 . S
C444 C445 1.391 . S
C445 H433 0.950 . S
C445 C441 1.393 . S
C445 C444 1.391 . S
C446 H436 0.950 . S
C446 C447 1.386 . S
C446 C448 1.391 . S
C447 C446 1.386 . S
C447 C451 1.393 . S
C448 H437 0.950 . S
C448 C446 1.391 . S
C448 C449 1.400 . S
C449 C443 1.491 . S
C449 C448 1.400 . S
C449 C450 1.398 . S
C450 H438 0.950 . S
C450 C449 1.398 . S
C450 C451 1.391 . S
C451 H439 0.950 . S
C451 C447 1.393 . S
C451 C450 1.391 . S
H452 C460 0.950 . S
H453 C465 0.950 . S
H454 C462 0.950 . S
H455 C464 0.950 . S
H456 C466 0.950 . S
H457 C468 0.950 . S
H458 C470 0.950 . S
H459 C471 0.950 . S
C460 H452 0.950 . S
C460 C461 1.386 . S
C460 C462 1.391 . S
C461 C460 1.386 . S
C461 C465 1.393 . S
C462 H454 0.950 . S
C462 C460 1.391 . S
C462 C463 1.400 . S
C463 C462 1.400 . S
C463 C464 1.398 . S
C463 C469 1.491 . S
C464 H455 0.950 . S
C464 C463 1.398 . S
C464 C465 1.391 . S
C465 H453 0.950 . S
C465 C461 1.393 . S
C465 C464 1.391 . S
C466 H456 0.950 . S
C466 C467 1.386 . S
C466 C468 1.391 . S
C467 C466 1.386 . S
C467 C471 1.393 . S
C468 H457 0.950 . S
C468 C466 1.391 . S
C468 C469 1.400 . S
C469 C463 1.491 . S
C469 C468 1.400 . S
C469 C470 1.398 . S
C470 H458 0.950 . S
C470 C469 1.398 . S
C470 C471 1.391 . S
C471 H459 0.950 . S
C471 C467 1.393 . S
C471 C470 1.391 . S
H472 C480 0.950 . S
H473 C485 0.950 . S
H474 C482 0.950 . S
H475 C484 0.950 . S
H476 C486 0.950 . S
H477 C488 0.950 . S
H478 C490 0.950 . S
H479 C491 0.950 . S
C480 H472 0.950 . S
C480 C481 1.386 . S
C480 C482 1.391 . S
C481 C480 1.386 . S
C481 C485 1.393 . S
C482 H474 0.950 . S
C482 C480 1.391 . S
C482 C483 1.400 . S
C483 C482 1.400 . S
C483 C484 1.398 . S
C483 C489 1.491 . S
C484 H475 0.950 . S
C484 C483 1.398 . S
C484 C485 1.391 . S
C485 H473 0.950 . S
C485 C481 1.393 . S
C485 C484 1.391 . S
C486 H476 0.950 . S
C486 C487 1.386 . S
C486 C488 1.391 . S
C487 C486 1.386 . S
C487 C491 1.393 . S
C488 H477 0.950 . S
C488 C486 1.391 . S
C488 C489 1.400 . S
C489 C483 1.491 . S
C489 C488 1.400 . S
C489 C490 1.398 . S
C490 H478 0.950 . S
C490 C489 1.398 . S
C490 C491 1.391 . S
C491 H479 0.950 . S
C491 C487 1.393 . S
C491 C490 1.391 . S
H492 C500 0.950 . S
H493 C505 0.950 . S
H494 C502 0.950 . S
H495 C504 0.950 . S
H496 C506 0.950 . S
H497 C508 0.950 . S
H498 C510 0.950 . S
H499 C511 0.950 . S
C500 H492 0.950 . S
C500 C501 1.386 . S
C500 C502 1.391 . S
C501 C500 1.386 . S
C501 C505 1.393 . S
C502 H494 0.950 . S
C502 C500 1.391 . S
C502 C503 1.400 . S
C503 C502 1.400 . S
C503 C504 1.398 . S
C503 C509 1.491 . S
C504 H495 0.950 . S
C504 C503 1.398 . S
C504 C505 1.391 . S
C505 H493 0.950 . S
C505 C501 1.393 . S
C505 C504 1.391 . S
C506 H496 0.950 . S
C506 C507 1.386 . S
C506 C508 1.391 . S
C507 C506 1.386 . S
C507 C511 1.393 . S
C508 H497 0.950 . S
C508 C506 1.391 . S
C508 C509 1.400 . S
C509 C503 1.491 . S
C509 C508 1.400 . S
C509 C510 1.398 . S
C510 H498 0.950 . S
C510 C509 1.398 . S
C510 C511 1.391 . S
C511 H499 0.950 . S
C511 C507 1.393 . S
C511 C510 1.391 . S
H512 C520 0.950 . S
H513 C525 0.950 . S
H514 C522 0.950 . S
H515 C524 0.950 . S
H516 C526 0.950 . S
H517 C528 0.950 . S
H518 C530 0.950 . S
H519 C531 0.950 . S
C520 H512 0.950 . S
C520 C521 1.386 . S
C520 C522 1.391 . S
C521 C520 1.386 . S
C521 C525 1.393 . S
C522 H514 0.950 . S
C522 C520 1.391 . S
C522 C523 1.400 . S
C523 C522 1.400 . S
C523 C524 1.398 . S
C523 C529 1.491 . S
C524 H515 0.950 . S
C524 C523 1.398 . S
C524 C525 1.391 . S
C525 H513 0.950 . S
C525 C521 1.393 . S
C525 C524 1.391 . S
C526 H516 0.950 . S
C526 C527 1.386 . S
C526 C528 1.391 . S
C527 C526 1.386 . S
C527 C531 1.393 . S
C528 H517 0.950 . S
C528 C526 1.391 . S
C528 C529 1.400 . S
C529 C523 1.491 . S
C529 C528 1.400 . S
C529 C530 1.398 . S
C530 H518 0.950 . S
C530 C529 1.398 . S
C530 C531 1.391 . S
C531 H519 0.950 . S
C531 C527 1.393 . S
C531 C530 1.391 . S
H532 C540 0.950 . S
H533 C545 0.950 . S
H534 C542 0.950 . S
H535 C544 0.950 . S
H536 C546 0.950 . S
H537 C548 0.950 . S
H538 C550 0.950 . S
H539 C551 0.950 . S
C540 H532 0.950 . S
C540 C541 1.386 . S
C540 C542 1.391 . S
C541 C540 1.386 . S
C541 C545 1.393 . S
C542 H534 0.950 . S
C542 C540 1.391 . S
C542 C543 1.400 . S
C543 C542 1.400 . S
C543 C544 1.398 . S
C543 C549 1.491 . S
C544 H535 0.950 . S
C544 C543 1.398 . S
C544 C545 1.391 . S
C545 H533 0.950 . S
C545 C541 1.393 . S
C545 C544 1.391 . S
C546 H536 0.950 . S
C546 C547 1.386 . S
C546 C548 1.391 . S
C547 C546 1.386 . S
C547 C551 1.393 . S
C548 H537 0.950 . S
C548 C546 1.391 . S
C548 C549 1.400 . S
C549 C543 1.491 . S
C549 C548 1.400 . S
C549 C550 1.398 . S
C550 H538 0.950 . S
C550 C549 1.398 . S
C550 C551 1.391 . S
C551 H539 0.950 . S
C551 C547 1.393 . S
C551 C550 1.391 . S
H552 C560 0.950 . S
H553 C565 0.950 . S
H554 C562 0.950 . S
H555 C564 0.950 . S
H556 C566 0.950 . S
H557 C568 0.950 . S
H558 C570 0.950 . S
H559 C571 0.950 . S
C560 H552 0.950 . S
C560 C561 1.386 . S
C560 C562 1.391 . S
C561 C560 1.386 . S
C561 C565 1.393 . S
C562 H554 0.950 . S
C562 C560 1.391 . S
C562 C563 1.400 . S
C563 C562 1.400 . S
C563 C564 1.398 . S
C563 C569 1.491 . S
C564 H555 0.950 . S
C564 C563 1.398 . S
C564 C565 1.391 . S
C565 H553 0.950 . S
C565 C561 1.393 . S
C565 C564 1.391 . S
C566 H556 0.950 . S
C566 C567 1.386 . S
C566 C568 1.391 . S
C567 C566 1.386 . S
C567 C571 1.393 . S
C568 H557 0.950 . S
C568 C566 1.391 . S
C568 C569 1.400 . S
C569 C563 1.491 . S
C569 C568 1.400 . S
C569 C570 1.398 . S
C570 H558 0.950 . S
C570 C569 1.398 . S
C570 C571 1.391 . S
C571 H559 0.950 . S
C571 C567 1.393 . S
C571 C570 1.391 . S
H572 C580 0.950 . S
H573 C585 0.950 . S
H574 C582 0.950 . S
H575 C584 0.950 . S
H576 C586 0.950 . S
H577 C588 0.950 . S
H578 C590 0.950 . S
H579 C591 0.950 . S
C580 H572 0.950 . S
C580 C581 1.386 . S
C580 C582 1.391 . S
C581 C580 1.386 . S
C581 C585 1.393 . S
C582 H574 0.950 . S
C582 C580 1.391 . S
C582 C583 1.400 . S
C583 C582 1.400 . S
C583 C584 1.398 . S
C583 C589 1.491 . S
C584 H575 0.950 . S
C584 C583 1.398 . S
C584 C585 1.391 . S
C585 H573 0.950 . S
C585 C581 1.393 . S
C585 C584 1.391 . S
C586 H576 0.950 . S
C586 C587 1.386 . S
C586 C588 1.391 . S
C587 C586 1.386 . S
C587 C591 1.393 . S
C588 H577 0.950 . S
C588 C586 1.391 . S
C588 C589 1.400 . S
C589 C583 1.491 . S
C589 C588 1.400 . S
C589 C590 1.398 . S
C590 H578 0.950 . S
C590 C589 1.398 . S
C590 C591 1.391 . S
C591 H579 0.950 . S
C591 C587 1.393 . S
C591 C590 1.391 . S
H592 C600 0.950 . S
H593 C605 0.950 . S
H594 C602 0.950 . S
H595 C604 0.950 . S
H596 C606 0.950 . S
H597 C608 0.950 . S
H598 C610 0.950 . S
H599 C611 0.950 . S
C600 H592 0.950 . S
C600 C601 1.386 . S
C600 C602 1.391 . S
C601 C600 1.386 . S
C601 C605 1.393 . S
C602 H594 0.950 . S
C602 C600 1.391 . S
C602 C603 1.400 . S
C603 C602 1.400 . S
C603 C604 1.398 . S
C603 C609 1.491 . S
C604 H595 0.950 . S
C604 C603 1.398 . S
C604 C605 1.391 . S
C605 H593 0.950 . S
C605 C601 1.393 . S
C605 C604 1.391 . S
C606 H596 0.950 . S
C606 C607 1.386 . S
C606 C608 1.391 . S
C607 C606 1.386 . S
C607 C611 1.393 . S
C608 H597 0.950 . S
C608 C606 1.391 . S
C608 C609 1.400 . S
C609 C603 1.491 . S
C609 C608 1.400 . S
C609 C610 1.398 . S
C610 H598 0.950 . S
C610 C609 1.398 . S
C610 C611 1.391 . S
C611 H599 0.950 . S
C611 C607 1.393 . S
C611 C610 1.391 . S
H612 C620 0.950 . S
H613 C625 0.950 . S
H614 C622 0.950 . S
H615 C624 0.950 . S
H616 C626 0.950 . S
H617 C628 0.950 . S
H618 C630 0.950 . S
H619 C631 0.950 . S
C620 H612 0.950 . S
C620 C621 1.386 . S
C620 C622 1.391 . S
C621 C620 1.386 . S
C621 C625 1.393 . S
C622 H614 0.950 . S
C622 C620 1.391 . S
C622 C623 1.400 . S
C623 C622 1.400 . S
C623 C624 1.398 . S
C623 C629 1.491 . S
C624 H615 0.950 . S
C624 C623 1.398 . S
C624 C625 1.391 . S
C625 H613 0.950 . S
C625 C621 1.393 . S
C625 C624 1.391 . S
C626 H616 0.950 . S
C626 C627 1.386 . S
C626 C628 1.391 . S
C627 C626 1.386 . S
C627 C631 1.393 . S
C628 H617 0.950 . S
C628 C626 1.391 . S
C628 C629 1.400 . S
C629 C623 1.491 . S
C629 C628 1.400 . S
C629 C630 1.398 . S
C630 H618 0.950 . S
C630 C629 1.398 . S
C630 C631 1.391 . S
C631 H619 0.950 . S
C631 C627 1.393 . S
C631 C630 1.391 . S
H632 C640 0.950 . S
H633 C645 0.950 . S
H634 C642 0.950 . S
H635 C644 0.950 . S
H636 C646 0.950 . S
H637 C648 0.950 . S
H638 C650 0.950 . S
H639 C651 0.950 . S
C640 H632 0.950 . S
C640 C641 1.386 . S
C640 C642 1.391 . S
C641 C640 1.386 . S
C641 C645 1.393 . S
C642 H634 0.950 . S
C642 C640 1.391 . S
C642 C643 1.400 . S
C643 C642 1.400 . S
C643 C644 1.398 . S
C643 C649 1.491 . S
C644 H635 0.950 . S
C644 C643 1.398 . S
C644 C645 1.391 . S
C645 H633 0.950 . S
C645 C641 1.393 . S
C645 C644 1.391 . S
C646 H636 0.950 . S
C646 C647 1.386 . S
C646 C648 1.391 . S
C647 C646 1.386 . S
C647 C651 1.393 . S
C648 H637 0.950 . S
C648 C646 1.391 . S
C648 C649 1.400 . S
C649 C643 1.491 . S
C649 C648 1.400 . S
C649 C650 1.398 . S
C650 H638 0.950 . S
C650 C649 1.398 . S
C650 C651 1.391 . S
C651 H639 0.950 . S
C651 C647 1.393 . S
C651 C650 1.391 . S
H652 C660 0.950 . S
H653 C665 0.950 . S
H654 C662 0.950 . S
H655 C664 0.950 . S
H656 C666 0.950 . S
H657 C668 0.950 . S
H658 C670 0.950 . S
H659 C671 0.950 . S
C660 H652 0.950 . S
C660 C661 1.386 . S
C660 C662 1.391 . S
C661 C660 1.386 . S
C661 C665 1.393 . S
C662 H654 0.950 . S
C662 C660 1.391 . S
C662 C663 1.400 . S
C663 C662 1.400 . S
C663 C664 1.398 . S
C663 C669 1.491 . S
C664 H655 0.950 . S
C664 C663 1.398 . S
C664 C665 1.391 . S
C665 H653 0.950 . S
C665 C661 1.393 . S
C665 C664 1.391 . S
C666 H656 0.950 . S
C666 C667 1.386 . S
C666 C668 1.391 . S
C667 C666 1.386 . S
C667 C671 1.393 . S
C668 H657 0.950 . S
C668 C666 1.391 . S
C668 C669 1.400 . S
C669 C663 1.491 . S
C669 C668 1.400 . S
C669 C670 1.398 . S
C670 H658 0.950 . S
C670 C669 1.398 . S
C670 C671 1.391 . S
C671 H659 0.950 . S
C671 C667 1.393 . S
C671 C670 1.391 . S
H672 C680 0.950 . S
H673 C685 0.950 . S
H674 C682 0.950 . S
H675 C684 0.950 . S
H676 C686 0.950 . S
H677 C688 0.950 . S
H678 C690 0.950 . S
H679 C691 0.950 . S
C680 H672 0.950 . S
C680 C681 1.386 . S
C680 C682 1.391 . S
C681 C680 1.386 . S
C681 C685 1.393 . S
C682 H674 0.950 . S
C682 C680 1.391 . S
C682 C683 1.400 . S
C683 C682 1.400 . S
C683 C684 1.398 . S
C683 C689 1.491 . S
C684 H675 0.950 . S
C684 C683 1.398 . S
C684 C685 1.391 . S
C685 H673 0.950 . S
C685 C681 1.393 . S
C685 C684 1.391 . S
C686 H676 0.950 . S
C686 C687 1.386 . S
C686 C688 1.391 . S
C687 C686 1.386 . S
C687 C691 1.393 . S
C688 H677 0.950 . S
C688 C686 1.391 . S
C688 C689 1.400 . S
C689 C683 1.491 . S
C689 C688 1.400 . S
C689 C690 1.398 . S
C690 H678 0.950 . S
C690 C689 1.398 . S
C690 C691 1.391 . S
C691 H679 0.950 . S
C691 C687 1.393 . S
C691 C690 1.391 . S
H692 C700 0.950 . S
H693 C705 0.950 . S
H694 C702 0.950 . S
H695 C704 0.950 . S
H696 C706 0.950 . S
H697 C708 0.950 . S
H698 C710 0.950 . S
H699 C711 0.950 . S
C700 H692 0.950 . S
C700 C701 1.386 . S
C700 C702 1.391 . S
C701 C700 1.386 . S
C701 C705 1.393 . S
C702 H694 0.950 . S
C702 C700 1.391 . S
C702 C703 1.400 . S
C703 C702 1.400 . S
C703 C704 1.398 . S
C703 C709 1.491 . S
C704 H695 0.950 . S
C704 C703 1.398 . S
C704 C705 1.391 . S
C705 H693 0.950 . S
C705 C701 1.393 . S
C705 C704 1.391 . S
C706 H696 0.950 . S
C706 C707 1.386 . S
C706 C708 1.391 . S
C707 C706 1.386 . S
C707 C711 1.393 . S
C708 H697 0.950 . S
C708 C706 1.391 . S
C708 C709 1.400 . S
C709 C703 1.491 . S
C709 C708 1.400 . S
C709 C710 1.398 . S
C710 H698 0.950 . S
C710 C709 1.398 . S
C710 C711 1.391 . S
C711 H699 0.950 . S
C711 C707 1.393 . S
C711 C710 1.391 . S
C241 C5 0.945 . S
C247 C87 0.945 . S
C261 C14 1.370 . S
C267 C131 1.381 . S
C287 C161 2.169 . S
C281 C25 2.155 . S
C301 C34 2.765 . S
C307 C202 2.710 . S
C327 C118 0.706 . S
C321 C7 0.712 . S
C347 C82 2.290 . S
C341 C13 2.275 . S
C367 C210 1.126 . S
C361 C23 1.117 . S
C387 C171 2.183 . S
C381 C31 2.248 . S
C401 C4 0.948 . S
C407 C207 0.967 . S
C427 C121 1.983 . S
C421 C22 2.043 . S
C441 C32 2.006 . S
C447 C90 1.960 . S
C461 C16 1.826 . S
C467 C158 1.839 . S
C487 C78 0.922 . S
C481 C41 0.923 . S
C501 C50 1.376 . S
C507 C122 1.387 . S
C521 C61 2.161 . S
C527 C170 2.168 . S
C541 C67 2.775 . S
C547 C211 2.719 . S
C561 C40 0.709 . S
C567 C127 0.706 . S
C587 C91 2.270 . S
C581 C52 2.239 . S
C607 C201 1.126 . S
C601 C59 1.141 . S
C627 C162 2.189 . S
C621 C70 2.248 . S
C641 C43 0.938 . S
C647 C198 0.951 . S
C667 C130 1.999 . S
C661 C58 2.062 . S
C687 C81 1.940 . S
C681 C68 1.986 . S
C701 C49 1.835 . S
C707 C167 1.837 . S
