# Generated by pormake.
# Topology tsx, (6,3)-cn, num edge types: 1
# Building blocks:
#     Node 0, Type 0, BuildingBlock: CIFDUS_clean_sbu_1, # of connection points: 6
#     Node 1, Type 0, BuildingBlock: CIFDUS_clean_sbu_1, # of connection points: 6
#     Node 2, Type 1, BuildingBlock: CUQRIR_clean_linker_1, # of connection points: 3
#     Node 3, Type 1, BuildingBlock: CUQRIR_clean_linker_1, # of connection points: 3
#     Node 4, Type 1, BuildingBlock: CUQRIR_clean_linker_1, # of connection points: 3
#     Node 5, Type 1, BuildingBlock: CUQRIR_clean_linker_1, # of connection points: 3
#     Edge 6, Type (0, 1), BuildingBlock: UVAHIK_clean_linker_0, # of connection points: 2
#     Edge 7, Type (0, 1), BuildingBlock: UVAHIK_clean_linker_0, # of connection points: 2
#     Edge 8, Type (0, 1), BuildingBlock: UVAHIK_clean_linker_0, # of connection points: 2
#     Edge 9, Type (0, 1), BuildingBlock: UVAHIK_clean_linker_0, # of connection points: 2
#     Edge 10, Type (0, 1), BuildingBlock: UVAHIK_clean_linker_0, # of connection points: 2
#     Edge 11, Type (0, 1), BuildingBlock: UVAHIK_clean_linker_0, # of connection points: 2
#     Edge 12, Type (0, 1), BuildingBlock: UVAHIK_clean_linker_0, # of connection points: 2
#     Edge 13, Type (0, 1), BuildingBlock: UVAHIK_clean_linker_0, # of connection points: 2
#     Edge 14, Type (0, 1), BuildingBlock: UVAHIK_clean_linker_0, # of connection points: 2
#     Edge 15, Type (0, 1), BuildingBlock: UVAHIK_clean_linker_0, # of connection points: 2
#     Edge 16, Type (0, 1), BuildingBlock: UVAHIK_clean_linker_0, # of connection points: 2
#     Edge 17, Type (0, 1), BuildingBlock: UVAHIK_clean_linker_0, # of connection points: 2
# Relax obj value: 0.155
# Max RMSD: 0.176
# Mean RMSD: 0.162
data_MOF--net-tsx--node1-CIFDUS_clean_sbu_1--node2-CUQRIR_clean_linker_1--edge1-UVAHIK_clean_linker_0
_symmetry_space_group_name_H-M    P1
_symmetry_Int_Tables_number       1
_symmetry_cell_setting            triclinic
loop_
_symmetry_equiv_pos_as_xyz
'x, y, z'
_cell_length_a     21.608841
_cell_length_b     27.403139
_cell_length_c     42.852699
_cell_angle_alpha  85.618
_cell_angle_beta   93.901478
_cell_angle_gamma 91.724145
loop_
_atom_site_label
_atom_site_type_symbol
_atom_site_fract_x
_atom_site_fract_y
_atom_site_fract_z
_atom_type_partial_charge
O0 O 0.05514 0.11407 0.00266 0.0
Mn1 Mn 0.10259 0.04854 -0.00066 0.0
O2 O 0.95544 0.09963 0.98642 0.0
Mn3 Mn 0.97054 0.04333 0.96759 0.0
O4 O 0.14921 0.98294 -0.00522 0.0
O5 O 0.18267 0.08759 0.00428 0.0
Mn6 Mn 0.23765 0.05248 0.02763 0.0
O7 O 0.10299 0.03369 0.04817 0.0
O8 O 0.25038 0.99779 0.00661 0.0
O9 O 0.10467 0.06351 0.95085 0.0
O10 O 1.00742 0.05321 0.92981 0.0
O11 O 0.27703 0.1115 0.01715 0.0
O12 O 0.20327 0.04101 0.06608 0.0
C13 C 0.97834 0.9763 -0.00418 0.0
C14 C 0.99814 0.12694 -0.00181 0.0
C15 C 0.20638 0.9704 -0.00385 0.0
C16 C 0.22402 0.12266 0.00294 0.0
C17 C 0.14589 0.03312 0.07067 0.0
C18 C 0.0649 0.06321 0.92719 0.0
O19 O 1.02209 0.00957 -0.00594 0.0
O20 O 0.92837 0.98611 0.97836 0.0
O21 O 0.55728 0.60668 0.50135 0.0
Mn22 Mn 0.60501 0.54109 0.49855 0.0
O23 O 0.46063 0.59417 0.47941 0.0
Mn24 Mn 0.47662 0.53711 0.46155 0.0
O25 O 0.65109 0.47501 0.49431 0.0
O26 O 0.68512 0.57859 0.50726 0.0
Mn27 Mn 0.73704 0.54043 0.53057 0.0
O28 O 0.59859 0.52392 0.54671 0.0
O29 O 0.75191 0.48881 0.50724 0.0
O30 O 0.6139 0.55759 0.4506 0.0
O31 O 0.52009 0.54572 0.42566 0.0
O32 O 0.77834 0.59987 0.52407 0.0
O33 O 0.69775 0.5234 0.56725 0.0
C34 C 0.4813 0.4709 0.4915 0.0
C35 C 0.50116 0.62025 0.49395 0.0
C36 C 0.70816 0.46216 0.49582 0.0
C37 C 0.72733 0.61297 0.50855 0.0
C38 C 0.63937 0.51764 0.56994 0.0
C39 C 0.57793 0.55631 0.42552 0.0
O40 O 0.52479 0.50411 0.48996 0.0
O41 O 0.4333 0.47992 0.47245 0.0
C42 C 1.00886 0.98316 0.44142 0.0
N43 N 0.03947 0.96038 0.42031 0.0
N44 N 0.96044 0.00837 0.42723 0.0
C45 C 1.02499 0.9799 0.47609 0.0
C46 C 0.9624 -0.00018 0.39661 0.0
N47 N 1.00972 0.97007 0.39242 0.0
C48 C 0.92356 0.02582 0.37022 0.0
H49 H 0.98432 0.98822 0.48893 0.0
H50 H 0.06271 0.00681 0.48128 0.0
H51 H 0.04152 0.94284 0.48424 0.0
H52 H 0.953 0.03919 0.35096 0.0
H53 H 0.89902 0.05722 0.37799 0.0
H54 H 0.88847 0.99955 0.36067 0.0
C55 C 0.0399 0.08083 0.5561 0.0
N56 N 0.07352 0.10327 0.57904 0.0
N57 N 0.99312 0.05282 0.56817 0.0
C58 C 0.05302 0.08606 0.52211 0.0
C59 C 0.99935 0.05943 0.59924 0.0
N60 N 0.0477 0.0903 0.60576 0.0
C61 C 0.96139 0.03259 0.6236 0.0
H62 H 0.06719 0.12441 0.51517 0.0
H63 H 1.01186 0.07531 0.5072 0.0
H64 H 0.09188 0.06221 0.51832 0.0
H65 H 0.98973 0.00336 0.63633 0.0
H66 H 0.91849 0.01586 0.61285 0.0
H67 H 0.94843 0.05777 0.64097 0.0
C68 C 0.52188 0.49914 0.94145 0.0
N69 N 0.55117 0.47529 0.92034 0.0
N70 N 0.47095 0.52172 0.92779 0.0
C71 C 0.54094 0.49895 0.97577 0.0
C72 C 0.47004 0.51048 0.89754 0.0
N73 N 0.5181 0.48174 0.8931 0.0
C74 C 0.42713 0.53252 0.87139 0.0
H75 H 0.49955 0.50273 0.98914 0.0
H76 H 0.57331 0.53034 0.9798 0.0
H77 H 0.56438 0.46455 0.98435 0.0
H78 H 0.4547 0.54997 0.85245 0.0
H79 H 0.39648 0.56004 0.87946 0.0
H80 H 0.39789 0.50295 0.86124 0.0
C81 C 0.53604 0.58318 0.05616 0.0
N82 N 0.57651 0.59866 0.07919 0.0
N83 N 0.50125 0.54424 0.06716 0.0
C84 C 0.53331 0.60434 0.02275 0.0
C85 C 0.52178 0.53716 0.09772 0.0
N86 N 0.56759 0.5698 0.10487 0.0
C87 C 0.49523 0.49965 0.12098 0.0
H88 H 0.51517 0.64191 0.02155 0.0
H89 H 0.50252 0.58235 0.00734 0.0
H90 H 0.58063 0.60693 0.0141 0.0
H91 H 0.52438 0.46677 0.12306 0.0
H92 H 0.44703 0.48871 0.11336 0.0
H93 H 0.49558 0.5141 0.14449 0.0
C94 C 0.17292 0.20245 0.00472 0.0
C95 C 0.21357 0.17349 0.99039 0.0
C96 C 0.18206 0.25347 0.00352 0.0
C97 C 0.28351 0.35776 0.97216 0.0
H98 H 0.29911 0.38841 0.05923 0.0
C99 C 0.40506 0.52971 0.03366 0.0
C100 C 0.45947 0.51222 0.05011 0.0
C101 C 0.36183 0.49691 0.02004 0.0
C102 C 0.29377 0.38091 0.03471 0.0
H103 H 0.29114 0.17493 0.96102 0.0
H104 H 0.30667 0.26324 0.95846 0.0
H105 H 0.2389 0.3162 0.04454 0.0
H106 H 0.51303 0.44784 0.0639 0.0
H107 H 0.43719 0.39057 0.04079 0.0
H108 H 0.34252 0.42132 0.96314 0.0
C109 C 0.26757 0.24739 0.97052 0.0
C110 C 0.25892 0.33967 0.02617 0.0
C111 C 0.25863 0.19659 0.97189 0.0
C112 C 0.47103 0.46195 0.05169 0.0
C113 C 0.42794 0.42937 0.03841 0.0
C114 C 0.31819 0.39935 0.98075 0.0
C115 C 0.23207 0.27618 0.98802 0.0
C116 C 0.25529 0.32637 -0.005 0.0
C117 C 0.37257 0.44639 0.02296 0.0
C118 C 0.32521 0.41016 0.01229 0.0
H119 H 0.13871 0.18551 0.0197 0.0
H120 H 0.15319 0.27463 0.01687 0.0
H121 H 0.28141 0.34881 0.94792 0.0
H122 H 0.39529 0.56837 0.03222 0.0
H123 H 0.31927 0.51069 0.00822 0.0
C124 C 0.18085 0.8824 0.98455 0.0
C125 C 0.22357 0.92208 0.98618 0.0
C126 C 0.20038 0.83617 0.9775 0.0
C127 C 0.32814 0.77773 0.94147 0.0
H128 H 0.28553 0.66056 -0.00704 0.0
C129 C 0.47188 0.60631 0.9427 0.0
C130 C 0.43978 0.5617 0.93928 0.0
C131 C 0.44047 0.64766 0.94937 0.0
C132 C 0.2973 0.69291 0.9782 0.0
H133 H 0.3198 0.94438 0.98078 0.0
H134 H 0.35315 0.865 0.96863 0.0
H135 H 0.23678 0.73824 0.00057 0.0
H136 H 0.35067 0.52416 0.94107 0.0
H137 H 0.29485 0.59687 0.95309 0.0
H138 H 0.38937 0.73319 0.91953 0.0
C139 C 0.30468 0.86914 0.97263 0.0
C140 C 0.26922 0.73731 0.98245 0.0
C141 C 0.2855 0.91477 0.97985 0.0
C142 C 0.37606 0.55839 0.94384 0.0
C143 C 0.34441 0.59985 0.95071 0.0
C144 C 0.35621 0.73369 0.93735 0.0
C145 C 0.26268 0.82911 0.97149 0.0
C146 C 0.28548 0.78049 0.96459 0.0
C147 C 0.37606 0.6453 0.95264 0.0
C148 C 0.34228 0.69098 0.9561 0.0
H149 H 0.13288 0.88674 0.98945 0.0
H150 H 0.16682 0.80607 0.97667 0.0
H151 H 0.34072 0.80998 0.92682 0.0
H152 H 0.52102 0.60942 0.93913 0.0
H153 H 0.46644 0.68184 0.95132 0.0
C154 C 0.9775 0.88643 0.00187 0.0
C155 C 0.98029 0.93083 0.01621 0.0
C156 C 0.94901 0.84488 0.01623 0.0
C157 C 0.821 0.82194 0.06776 0.0
H158 H 0.84299 0.68694 0.05071 0.0
C159 C 0.61613 0.68231 0.06455 0.0
C160 C 0.62706 0.63385 0.07598 0.0
C161 C 0.6656 0.71619 0.06169 0.0
C162 C 0.83638 0.72433 0.05608 0.0
H163 H 0.95984 0.96597 0.05757 0.0
H164 H 0.91361 0.89286 0.08373 0.0
H165 H 0.92644 0.74718 0.04165 0.0
H166 H 0.69751 0.58247 0.09336 0.0
H167 H 0.78406 0.64166 0.08914 0.0
H168 H 0.73109 0.79924 0.08216 0.0
C169 C 0.93226 0.89007 0.06113 0.0
C170 C 0.88417 0.759 0.05064 0.0
C171 C 0.96038 0.93171 0.0466 0.0
C172 C 0.68813 0.61983 0.08465 0.0
C173 C 0.73761 0.65362 0.08192 0.0
C174 C 0.77343 0.78731 0.0733 0.0
C175 C 0.9225 0.84712 0.04519 0.0
C176 C 0.87663 0.80852 0.05577 0.0
C177 C 0.72707 0.70229 0.07035 0.0
C178 C 0.77985 0.73826 0.06685 0.0
H179 H 0.99106 0.88528 0.97806 0.0
H180 H 0.94232 0.81273 0.00307 0.0
H181 H 0.81278 0.85974 0.07158 0.0
H182 H 0.5693 0.69402 0.05813 0.0
H183 H 0.65569 0.75314 0.05229 0.0
C184 C 1.00202 0.2151 0.98046 0.0
C185 C 0.98052 0.17764 0.00153 0.0
C186 C 0.96805 0.25784 0.97368 0.0
C187 C 0.83963 0.3308 -0.00319 0.0
H188 H 0.78727 0.3408 0.90814 0.0
C189 C 0.6599 0.4708 0.94234 0.0
C190 C 0.6088 0.44961 0.92581 0.0
C191 C 0.71324 0.44397 0.95086 0.0
C192 C 0.80179 0.33867 0.9329 0.0
H193 H 0.91025 0.15691 0.03397 0.0
H194 H 0.85274 0.23241 0.02342 0.0
H195 H 0.87111 0.2861 0.92766 0.0
H196 H 0.57479 0.38502 0.90352 0.0
H197 H 0.66919 0.33831 0.91747 0.0
H198 H 0.76941 0.38268 0.0021 0.0
C199 C 0.89526 0.2288 0.01187 0.0
C200 C 0.85016 0.3078 0.94404 0.0
C201 C 0.92841 0.18572 0.01812 0.0
C202 C 0.61359 0.40212 0.91622 0.0
C203 C 0.66746 0.37548 0.92427 0.0
C204 C 0.79203 0.36239 0.98557 0.0
C205 C 0.91281 0.26406 0.98835 0.0
C206 C 0.86874 0.30275 0.97621 0.0
C207 C 0.71725 0.39576 0.94234 0.0
C208 C 0.7717 0.36583 0.95361 0.0
H209 H 0.04125 0.20924 0.96685 0.0
H210 H 0.98277 0.28459 0.95557 0.0
H211 H 0.85281 0.32746 0.02171 0.0
H212 H 0.65808 0.50791 0.94916 0.0
H213 H 0.75125 0.46078 0.96434 0.0
C214 C 0.76652 0.68731 0.47942 0.0
C215 C 0.71969 0.66455 0.49692 0.0
C216 C 0.77668 0.73799 0.47861 0.0
C217 C 0.79004 0.84935 0.48014 0.0
H218 H 0.80984 0.87777 0.56758 0.0
C219 C 0.90638 0.02762 0.53147 0.0
C220 C 0.95574 0.01547 0.55349 0.0
C221 C 0.86673 0.99069 0.51976 0.0
C222 C 0.80378 0.8707 0.54301 0.0
H223 H 0.6435 0.67704 0.52529 0.0
H224 H 0.66103 0.76599 0.52395 0.0
H225 H 0.75184 0.80442 0.55297 0.0
H226 H 1.00356 0.95617 0.58003 0.0
H227 H 0.93404 0.89174 0.5601 0.0
H228 H 0.84466 0.91521 0.47068 0.0
C229 C 0.68981 0.74464 0.51068 0.0
C230 C 0.77002 0.82891 0.53455 0.0
C231 C 0.67913 0.69381 0.5111 0.0
C232 C 0.96568 0.96612 0.5631 0.0
C233 C 0.92588 0.9295 0.55181 0.0
C234 C 0.82314 0.89177 0.48861 0.0
C235 C 0.74089 0.76688 0.49586 0.0
C236 C 0.76441 0.81676 0.50317 0.0
C237 C 0.87558 0.94138 0.53036 0.0
C238 C 0.83203 0.90181 0.52028 0.0
H239 H 0.799 0.66538 0.46873 0.0
H240 H 0.81658 0.75367 0.46713 0.0
H241 H 0.78654 0.84104 0.45577 0.0
H242 H 0.89787 0.06558 0.52393 0.0
H243 H 0.82817 0.00068 0.50328 0.0
C244 C 0.78762 0.40565 0.48068 0.0
C245 C 0.7252 0.41398 0.48554 0.0
C246 C 0.80632 0.35985 0.47346 0.0
C247 C 0.76414 0.22837 0.48023 0.0
H248 H 0.89361 0.22262 0.42232 0.0
C249 C 0.86558 0.04796 0.44077 0.0
C250 C 0.93023 0.04851 0.43912 0.0
C251 C 0.83559 0.09022 0.44764 0.0
C252 C 0.85778 0.22358 0.43875 0.0
H253 H 0.63327 0.38031 0.48613 0.0
H254 H 0.66608 0.29957 0.47314 0.0
H255 H 0.84784 0.3007 0.42926 0.0
H256 H 1.01453 0.09231 0.44383 0.0
H257 H 0.9628 0.16605 0.4561 0.0
H258 H 0.77458 0.15069 0.48951 0.0
C259 C 0.70051 0.32889 0.47521 0.0
C260 C 0.83142 0.26838 0.44271 0.0
C261 C 0.68158 0.37521 0.48235 0.0
C262 C 0.96467 0.09119 0.44534 0.0
C263 C 0.93494 0.13334 0.45201 0.0
C264 C 0.79042 0.18322 0.47608 0.0
C265 C 0.76329 0.32069 0.47078 0.0
C266 C 0.78531 0.27169 0.46404 0.0
C267 C 0.86991 0.1338 0.45243 0.0
C268 C 0.83856 0.1806 0.45581 0.0
H269 H 0.82266 0.43452 0.48287 0.0
H270 H 0.85515 0.35488 0.47074 0.0
H271 H 0.72899 0.22962 0.49697 0.0
H272 H 0.83836 0.01536 0.43569 0.0
H273 H 0.78547 0.08946 0.44775 0.0
C274 C 0.49327 0.38205 0.50347 0.0
C275 C 0.4807 0.42773 0.51389 0.0
C276 C 0.46744 0.33919 0.51768 0.0
C277 C 0.36344 0.29149 0.58104 0.0
H278 H 0.29318 0.21321 0.5151 0.0
C279 C 0.1321 0.18017 0.58812 0.0
C280 C 0.12854 0.13396 0.57601 0.0
C281 C 0.18516 0.21024 0.585 0.0
C282 C 0.31307 0.23411 0.53394 0.0
H283 H 0.43526 0.46472 0.54839 0.0
H284 H 0.38917 0.39067 0.57288 0.0
H285 H 0.3734 0.27434 0.50353 0.0
H286 H 0.17864 0.08164 0.55278 0.0
H287 H 0.2708 0.13469 0.54631 0.0
H288 H 0.29978 0.25257 0.61088 0.0
C289 C 0.42006 0.387 0.5544 0.0
C290 C 0.35964 0.26913 0.5274 0.0
C291 C 0.44678 0.42967 0.54048 0.0
C292 C 0.17953 0.11778 0.56138 0.0
C293 C 0.23237 0.14796 0.55796 0.0
C294 C 0.31621 0.25674 0.58748 0.0
C295 C 0.42697 0.34149 0.54196 0.0
C296 C 0.38477 0.29907 0.55066 0.0
C297 C 0.23561 0.19472 0.56951 0.0
C298 C 0.28974 0.2283 0.56383 0.0
H299 H 0.51802 0.37983 0.4825 0.0
H300 H 0.47537 0.30473 0.50801 0.0
H301 H 0.38217 0.31319 0.59971 0.0
H302 H 0.09325 0.1933 0.59949 0.0
H303 H 0.18592 0.24624 0.59385 0.0
C304 C 0.49962 0.70844 0.47687 0.0
C305 C 0.48198 0.67016 0.49836 0.0
C306 C 0.46261 0.74966 0.47072 0.0
C307 C 0.33095 0.81689 0.49611 0.0
H308 H 0.27577 0.82737 0.40779 0.0
C309 C 0.14714 0.95496 0.44359 0.0
C310 C 0.09664 0.93422 0.42638 0.0
C311 C 0.20048 0.92816 0.45211 0.0
C312 C 0.29091 0.82501 0.43247 0.0
H313 H 0.41527 0.64644 0.5321 0.0
H314 H 0.35245 0.71939 0.52265 0.0
H315 H 0.36249 0.77487 0.42619 0.0
H316 H 0.06369 0.87054 0.40284 0.0
H317 H 0.15816 0.8237 0.41692 0.0
H318 H 0.25868 0.8665 0.50243 0.0
C319 C 0.39436 0.71762 0.51031 0.0
C320 C 0.34097 0.79542 0.44297 0.0
C321 C 0.43063 0.67604 0.51598 0.0
C322 C 0.10196 0.88714 0.41622 0.0
C323 C 0.15587 0.8605 0.4243 0.0
C324 C 0.2816 0.84719 0.48552 0.0
C325 C 0.40801 0.75352 0.48639 0.0
C326 C 0.36088 0.79037 0.47499 0.0
C327 C 0.20516 0.88039 0.44292 0.0
C328 C 0.26032 0.85087 0.45367 0.0
H329 H 0.53817 0.70419 0.46247 0.0
H330 H 0.47446 0.77698 0.45232 0.0
H331 H 0.34511 0.81354 0.52091 0.0
H332 H 0.14513 0.9919 0.45066 0.0
H333 H 0.23814 0.94479 0.46592 0.0
C334 C 0.07109 0.0042 0.11149 0.0
C335 C 0.12976 0.02309 0.10374 0.0
C336 C 0.05809 0.99365 0.14298 0.0
C337 C 0.10861 0.02712 0.22241 0.0
H338 H 0.03274 0.90335 0.25135 0.0
C339 C 0.08899 0.97985 0.35368 0.0
C340 C 0.03134 0.96074 0.36246 0.0
C341 C 0.10397 0.98106 0.3224 0.0
C342 C 0.05355 0.93824 0.24361 0.0
H343 H 0.22045 0.04634 0.12329 0.0
H344 H 0.19761 0.02846 0.17756 0.0
H345 H 0.04839 0.92067 0.1955 0.0
H346 H 0.94592 0.92499 0.34644 0.0
H347 H 0.97106 0.9278 0.29157 0.0
H348 H 0.11294 0.04546 0.27002 0.0
C349 C 0.1616 0.0217 0.15943 0.0
C350 C 0.06232 0.94816 0.21163 0.0
C351 C 0.17471 0.0317 0.12819 0.0
C352 C 0.99066 0.93985 0.33999 0.0
C353 C 1.00527 0.94138 0.30865 0.0
C354 C 0.09955 0.01741 0.25422 0.0
C355 C 0.10327 0.00256 0.16725 0.0
C356 C 0.0904 0.99259 0.20076 0.0
C357 C 0.06118 0.96367 0.29925 0.0
C358 C 0.07235 0.97271 0.26534 0.0
H359 H 0.03551 0.99724 0.0933 0.0
H360 H 1.01253 0.97918 0.14837 0.0
H361 H 0.12949 0.06202 0.21467 0.0
H362 H 0.12072 0.9966 0.37062 0.0
H363 H 0.14807 0.99746 0.31614 0.0
C364 C 0.04333 0.09965 0.87283 0.0
C365 C 0.08515 0.07669 0.89541 0.0
C366 C 0.05998 0.11077 0.84224 0.0
C367 C 0.14944 0.06594 0.78393 0.0
H368 H 0.10269 0.18764 0.73727 0.0
C369 C 0.12884 0.08164 0.64884 0.0
C370 C 0.07234 0.10111 0.63649 0.0
C371 C 0.14894 0.08717 0.68014 0.0
C372 C 0.11624 0.1535 0.74994 0.0
H373 H 0.17775 0.04823 0.90396 0.0
H374 H 0.20634 0.06629 0.84955 0.0
H375 H 0.10467 0.18144 0.79445 0.0
H376 H 0.99422 0.14374 0.64566 0.0
H377 H 1.02812 0.15303 0.70046 0.0
H378 H 0.1567 0.03675 0.73949 0.0
C379 C 0.16098 0.0762 0.85595 0.0
C380 C 0.11769 0.15008 0.78265 0.0
C381 C 0.1447 0.06595 0.88694 0.0
C382 C 0.03777 0.12833 0.65508 0.0
C383 C 0.05766 0.13394 0.68627 0.0
C384 C 0.1475 0.06921 0.75115 0.0
C385 C 0.11852 0.09854 0.83334 0.0
C386 C 0.13182 0.10568 0.79985 0.0
C387 C 0.11278 0.11245 0.69943 0.0
C388 C 0.12826 0.11241 0.73377 0.0
H389 H 0.99733 0.10878 0.87875 0.0
H390 H 1.02604 0.12737 0.82521 0.0
H391 H 0.16011 0.0312 0.79666 0.0
H392 H 0.156 0.06063 0.63458 0.0
H393 H 0.19187 0.07062 0.68946 0.0
C394 C 0.65776 0.472 0.62193 0.0
C395 C 0.61955 0.50257 0.60165 0.0
C396 C 0.64451 0.46169 0.65315 0.0
C397 C 0.52453 0.47236 0.71076 0.0
H398 H 0.66905 0.46907 0.76968 0.0
C399 C 0.58874 0.49558 0.85062 0.0
C400 C 0.53722 0.47087 0.86298 0.0
C401 C 0.60007 0.49317 0.81904 0.0
C402 C 0.62809 0.47019 0.75365 0.0
H403 H 0.53588 0.54467 0.59768 0.0
H404 H 0.5136 0.52828 0.65286 0.0
H405 H 0.68266 0.47864 0.71388 0.0
H406 H 0.45881 0.42255 0.85318 0.0
H407 H 0.47958 0.41635 0.79815 0.0
H408 H 0.46999 0.46674 0.75075 0.0
C409 C 0.55331 0.51137 0.64446 0.0
C410 C 0.63587 0.47493 0.72146 0.0
C411 C 0.56604 0.52095 0.61286 0.0
C412 C 0.49896 0.44163 0.84389 0.0
C413 C 0.51049 0.43875 0.81239 0.0
C414 C 0.51672 0.46814 0.74303 0.0
C415 C 0.59335 0.48254 0.6652 0.0
C416 C 0.58425 0.47617 0.69952 0.0
C417 C 0.56018 0.46564 0.79928 0.0
C418 C 0.56844 0.46726 0.76493 0.0
H419 H 0.69875 0.45655 0.61374 0.0
H420 H 0.67523 0.43799 0.66799 0.0
H421 H 0.48367 0.47268 0.69466 0.0
H422 H 0.61797 0.51901 0.86497 0.0
H423 H 0.63829 0.51492 0.80983 0.0
C424 C 0.65783 0.5458 0.38712 0.0
C425 C 0.6036 0.5678 0.39483 0.0
C426 C 0.67625 0.55131 0.35629 0.0
C427 C 0.65987 0.62475 0.28137 0.0
H428 H 0.64194 0.50201 0.24198 0.0
C429 C 0.58333 0.61693 0.15124 0.0
C430 C 0.59645 0.57598 0.13552 0.0
C431 C 0.60341 0.61968 0.18274 0.0
C432 C 0.6491 0.53664 0.25241 0.0
H433 H 0.52849 0.61518 0.37746 0.0
H434 H 0.56194 0.6263 0.32401 0.0
H435 H 0.64592 0.50168 0.29875 0.0
H436 H 0.64388 0.50746 0.13885 0.0
H437 H 0.68237 0.51297 0.19356 0.0
H438 H 0.66269 0.66002 0.23523 0.0
C439 C 0.5897 0.60438 0.34151 0.0
C440 C 0.65117 0.5363 0.28507 0.0
C441 C 0.57038 0.59779 0.37195 0.0
C442 C 0.63315 0.53914 0.15093 0.0
C443 C 0.65452 0.54227 0.18225 0.0
C444 C 0.65921 0.6251 0.2487 0.0
C445 C 0.64171 0.58011 0.33319 0.0
C446 C 0.65422 0.58041 0.29971 0.0
C447 C 0.63809 0.58177 0.19897 0.0
C448 C 0.65113 0.58116 0.23367 0.0
H449 H 0.68388 0.52229 0.40442 0.0
H450 H 0.71632 0.53206 0.35026 0.0
H451 H 0.6625 0.65922 0.29225 0.0
H452 H 0.55463 0.64544 0.13954 0.0
H453 H 0.58873 0.65033 0.19467 0.0
loop_
_geom_bond_atom_site_label_1
_geom_bond_atom_site_label_2
_geom_bond_distance
_geom_bond_site_symmetry_2
_ccdc_geom_bond_type
O0 Mn1 2.163 . S
O0 C14 1.244 1_454 S
Mn1 O0 2.163 . S
Mn1 O4 2.159 1_544 S
Mn1 O5 2.221 . S
Mn1 O7 2.163 . S
Mn1 O9 2.160 1_554 S
Mn1 O19 2.221 1_444 S
O2 Mn3 2.087 . S
O2 C14 1.256 . S
Mn3 O2 2.087 . S
Mn3 O10 2.089 . S
Mn3 O19 2.290 1_545 S
Mn3 O20 2.251 1_546 S
O4 Mn1 2.159 1_566 S
O4 C15 1.235 1_556 S
O5 Mn1 2.221 . S
O5 Mn6 2.290 . S
O5 C16 1.278 . S
Mn6 O5 2.290 . S
Mn6 O8 2.089 1_545 S
Mn6 O11 2.251 . S
Mn6 O12 2.087 . S
O7 Mn1 2.163 . S
O7 C17 1.244 . S
O8 Mn6 2.089 1_565 S
O8 C15 1.256 . S
O9 Mn1 2.160 1_556 S
O9 C18 1.239 . S
O10 Mn3 2.089 . S
O10 C18 1.256 1_655 S
O11 Mn6 2.251 . S
O11 C16 1.241 . S
O12 Mn6 2.087 . S
O12 C17 1.256 . S
C13 O19 1.278 1_554 S
C13 O20 1.241 . S
C14 O0 1.244 1_656 S
C14 O2 1.256 . S
C15 O4 1.235 1_554 S
C15 O8 1.256 . S
C16 O5 1.278 . S
C16 O11 1.241 . S
C17 O7 1.244 . S
C17 O12 1.256 . S
C18 O9 1.239 . S
C18 O10 1.256 1_455 S
O19 Mn1 2.221 1_666 S
O19 Mn3 2.290 1_565 S
O19 C13 1.278 1_556 S
O20 Mn3 2.251 1_564 S
O20 C13 1.241 . S
O21 Mn22 2.163 . S
O21 C35 1.244 . S
Mn22 O21 2.163 . S
Mn22 O25 2.160 . S
Mn22 O26 2.221 . S
Mn22 O28 2.163 . S
Mn22 O30 2.160 . S
Mn22 O40 2.221 . S
O23 Mn24 2.087 . S
O23 C35 1.256 . S
Mn24 O23 2.087 . S
Mn24 O31 2.089 . S
Mn24 O40 2.290 . S
Mn24 O41 2.251 . S
O25 Mn22 2.160 . S
O25 C36 1.239 . S
O26 Mn22 2.221 . S
O26 Mn27 2.290 . S
O26 C37 1.278 . S
Mn27 O26 2.290 . S
Mn27 O29 2.089 . S
Mn27 O32 2.251 . S
Mn27 O33 2.087 . S
O28 Mn22 2.163 . S
O28 C38 1.244 . S
O29 Mn27 2.089 . S
O29 C36 1.256 . S
O30 Mn22 2.160 . S
O30 C39 1.239 . S
O31 Mn24 2.089 . S
O31 C39 1.256 . S
O32 Mn27 2.251 . S
O32 C37 1.241 . S
O33 Mn27 2.087 . S
O33 C38 1.256 . S
C34 O40 1.278 . S
C34 O41 1.241 . S
C35 O21 1.244 . S
C35 O23 1.256 . S
C36 O25 1.239 . S
C36 O29 1.256 . S
C37 O26 1.278 . S
C37 O32 1.241 . S
C38 O28 1.244 . S
C38 O33 1.256 . S
C39 O30 1.239 . S
C39 O31 1.256 . S
O40 Mn22 2.221 . S
O40 Mn24 2.290 . S
O40 C34 1.278 . S
O41 Mn24 2.251 . S
O41 C34 1.241 . S
C42 N43 1.317 1_545 S
C42 N44 1.348 . S
C42 C45 1.487 . S
N43 C42 1.317 1_565 S
N43 N47 1.370 1_565 S
N44 C42 1.348 . S
N44 C46 1.346 . S
C45 C42 1.487 . S
C45 H49 0.948 1_545 S
C45 H50 0.980 . S
C45 H51 0.950 1_545 S
C46 N44 1.346 . S
C46 N47 1.307 . S
C46 C48 1.486 1_455 S
N47 N43 1.370 1_545 S
N47 C46 1.307 . S
C48 C46 1.486 1_655 S
C48 H52 0.960 . S
C48 H53 0.960 . S
C48 H54 0.959 . S
H49 C45 0.948 1_565 S
H50 C45 0.980 . S
H51 C45 0.950 1_565 S
H52 C48 0.960 . S
H53 C48 0.960 . S
H54 C48 0.959 . S
C55 N56 1.317 . S
C55 N57 1.348 1_455 S
C55 C58 1.485 . S
N56 C55 1.317 . S
N56 N60 1.370 . S
N57 C55 1.348 1_655 S
N57 C59 1.346 . S
C58 C55 1.485 . S
C58 H62 0.960 1_455 S
C58 H63 0.961 . S
C58 H64 0.960 . S
C59 N57 1.346 . S
C59 N60 1.307 1_655 S
C59 C61 1.486 . S
N60 N56 1.370 . S
N60 C59 1.307 1_455 S
C61 C59 1.486 . S
C61 H65 0.960 1_545 S
C61 H66 0.960 . S
C61 H67 0.959 . S
H62 C58 0.960 1_655 S
H63 C58 0.961 . S
H64 C58 0.960 . S
H65 C61 0.960 1_565 S
H66 C61 0.960 . S
H67 C61 0.959 . S
C68 N69 1.317 . S
C68 N70 1.348 . S
C68 C71 1.485 1_556 S
N69 C68 1.317 . S
N69 N73 1.370 . S
N70 C68 1.348 . S
N70 C72 1.346 . S
C71 C68 1.485 1_554 S
C71 H75 0.960 . S
C71 H76 0.961 . S
C71 H77 0.960 . S
C72 N70 1.346 . S
C72 N73 1.307 . S
C72 C74 1.486 . S
N73 N69 1.370 . S
N73 C72 1.307 . S
C74 C72 1.486 . S
C74 H78 0.960 . S
C74 H79 0.960 . S
C74 H80 0.959 . S
H75 C71 0.960 . S
H76 C71 0.961 . S
H77 C71 0.960 . S
H78 C74 0.960 . S
H79 C74 0.960 . S
H80 C74 0.959 . S
C81 N82 1.317 . S
C81 N83 1.348 . S
C81 C84 1.485 . S
N82 C81 1.317 . S
N82 N86 1.370 . S
N83 C81 1.348 . S
N83 C85 1.346 . S
C84 C81 1.485 . S
C84 H88 0.970 . S
C84 H89 0.960 1_554 S
C84 H90 0.960 . S
C85 N83 1.346 . S
C85 N86 1.307 . S
C85 C87 1.486 . S
N86 N82 1.370 . S
N86 C85 1.307 . S
C87 C85 1.486 . S
C87 H91 0.960 . S
C87 H92 0.960 . S
C87 H93 0.959 . S
H88 C84 0.970 . S
H89 C84 0.960 1_556 S
H90 C84 0.960 . S
H91 C87 0.960 . S
H92 C87 0.960 . S
H93 C87 0.959 . S
C94 C95 1.349 . S
C94 C96 1.327 . S
C94 H119 0.950 . S
C95 C94 1.349 . S
C95 C111 1.349 1_554 S
C96 C94 1.327 . S
C96 C115 1.429 . S
C96 H120 0.950 . S
C97 C114 1.575 . S
C97 C116 1.368 1_556 S
C97 H121 0.949 . S
H98 C102 0.949 . S
C99 C100 1.349 . S
C99 C101 1.327 . S
C99 H122 0.927 1_554 S
C100 C99 1.349 . S
C100 C112 1.349 . S
C101 C99 1.327 . S
C101 C117 1.429 . S
C101 H123 0.950 1_554 S
C102 H98 0.949 . S
C102 C110 1.574 . S
C102 C118 1.368 . S
H103 C111 0.950 . S
H104 C109 0.950 . S
H105 C110 0.949 . S
H106 C112 0.950 . S
H107 C113 0.950 . S
H108 C114 0.953 . S
C109 H104 0.950 . S
C109 C111 1.327 . S
C109 C115 1.429 1_556 S
C110 C102 1.574 . S
C110 H105 0.949 . S
C110 C116 1.368 . S
C111 C95 1.349 1_556 S
C111 H103 0.950 . S
C111 C109 1.327 . S
C112 C100 1.349 . S
C112 H106 0.950 . S
C112 C113 1.327 . S
C113 H107 0.950 . S
C113 C112 1.327 . S
C113 C117 1.429 . S
C114 C97 1.575 . S
C114 H108 0.953 . S
C114 C118 1.363 1_556 S
C115 C96 1.429 . S
C115 C109 1.429 1_554 S
C115 C116 1.523 . S
C116 C97 1.368 1_554 S
C116 C110 1.368 . S
C116 C115 1.523 . S
C117 C101 1.429 . S
C117 C113 1.429 . S
C117 C118 1.523 . S
C118 C102 1.368 . S
C118 C114 1.363 1_554 S
C118 C117 1.523 . S
H119 C94 0.950 . S
H120 C96 0.950 . S
H121 C97 0.949 . S
H122 C99 0.927 1_556 S
H123 C101 0.950 1_556 S
C124 C125 1.349 . S
C124 C126 1.327 . S
C124 H149 0.950 . S
C125 C124 1.349 . S
C125 C141 1.349 1_554 S
C126 C124 1.327 . S
C126 C145 1.429 1_554 S
C126 H150 0.950 . S
C127 C144 1.574 . S
C127 C146 1.368 . S
C127 H151 0.949 . S
H128 C132 0.949 . S
C129 C130 1.349 . S
C129 C131 1.327 . S
C129 H152 0.950 . S
C130 C129 1.349 . S
C130 C142 1.349 . S
C131 C129 1.327 . S
C131 C147 1.429 . S
C131 H153 0.950 . S
C132 H128 0.949 . S
C132 C140 1.574 . S
C132 C148 1.368 1_554 S
H133 C141 0.950 . S
H134 C139 0.950 . S
H135 C140 0.949 . S
H136 C142 0.950 1_554 S
H137 C143 0.950 1_554 S
H138 C144 0.949 . S
C139 H134 0.950 . S
C139 C141 1.327 . S
C139 C145 1.429 . S
C140 C132 1.574 . S
C140 H135 0.949 . S
C140 C146 1.368 1_554 S
C141 C125 1.349 1_556 S
C141 H133 0.950 . S
C141 C139 1.327 . S
C142 C130 1.349 . S
C142 H136 0.950 1_556 S
C142 C143 1.327 . S
C143 H137 0.950 1_556 S
C143 C142 1.327 . S
C143 C147 1.429 . S
C144 C127 1.574 . S
C144 H138 0.949 . S
C144 C148 1.368 . S
C145 C126 1.429 1_556 S
C145 C139 1.429 . S
C145 C146 1.523 . S
C146 C127 1.368 . S
C146 C140 1.368 1_556 S
C146 C145 1.523 . S
C147 C131 1.429 . S
C147 C143 1.429 . S
C147 C148 1.523 . S
C148 C132 1.368 1_556 S
C148 C144 1.368 . S
C148 C147 1.523 . S
H149 C124 0.950 . S
H150 C126 0.950 . S
H151 C127 0.949 . S
H152 C129 0.950 . S
H153 C131 0.950 . S
C154 C155 1.349 . S
C154 C156 1.327 . S
C154 H179 0.950 1_554 S
C155 C154 1.349 . S
C155 C171 1.349 . S
C156 C154 1.327 . S
C156 C175 1.429 . S
C156 H180 0.950 . S
C157 C174 1.574 . S
C157 C176 1.368 . S
C157 H181 0.949 . S
H158 C162 0.949 . S
C159 C160 1.349 . S
C159 C161 1.327 . S
C159 H182 0.950 . S
C160 C159 1.349 . S
C160 C172 1.349 . S
C161 C159 1.327 . S
C161 C177 1.429 . S
C161 H183 0.950 . S
C162 H158 0.949 . S
C162 C170 1.574 . S
C162 C178 1.368 . S
H163 C171 0.950 . S
H164 C169 0.950 . S
H165 C170 0.949 . S
H166 C172 0.950 . S
H167 C173 0.950 . S
H168 C174 0.949 . S
C169 H164 0.950 . S
C169 C171 1.327 . S
C169 C175 1.429 . S
C170 C162 1.574 . S
C170 H165 0.949 . S
C170 C176 1.368 . S
C171 C155 1.349 . S
C171 H163 0.950 . S
C171 C169 1.327 . S
C172 C160 1.349 . S
C172 H166 0.950 . S
C172 C173 1.327 . S
C173 H167 0.950 . S
C173 C172 1.327 . S
C173 C177 1.429 . S
C174 C157 1.574 . S
C174 H168 0.949 . S
C174 C178 1.368 . S
C175 C156 1.429 . S
C175 C169 1.429 . S
C175 C176 1.523 . S
C176 C157 1.368 . S
C176 C170 1.368 . S
C176 C175 1.523 . S
C177 C161 1.429 . S
C177 C173 1.429 . S
C177 C178 1.523 . S
C178 C162 1.368 . S
C178 C174 1.368 . S
C178 C177 1.523 . S
H179 C154 0.950 1_556 S
H180 C156 0.950 . S
H181 C157 0.949 . S
H182 C159 0.950 . S
H183 C161 0.950 . S
C184 C185 1.349 . S
C184 C186 1.327 . S
C184 H209 0.950 . S
C185 C184 1.349 . S
C185 C201 1.349 1_556 S
C186 C184 1.327 . S
C186 C205 1.429 . S
C186 H210 0.950 . S
C187 C204 1.574 . S
C187 C206 1.368 . S
C187 H211 0.949 1_556 S
H188 C192 0.949 . S
C189 C190 1.349 . S
C189 C191 1.327 . S
C189 H212 0.950 . S
C190 C189 1.349 . S
C190 C202 1.349 . S
C191 C189 1.327 . S
C191 C207 1.429 . S
C191 H213 0.950 . S
C192 H188 0.949 . S
C192 C200 1.574 . S
C192 C208 1.368 . S
H193 C201 0.950 . S
H194 C199 0.950 . S
H195 C200 0.949 . S
H196 C202 0.950 . S
H197 C203 0.950 . S
H198 C204 0.949 . S
C199 H194 0.950 . S
C199 C201 1.327 . S
C199 C205 1.429 1_554 S
C200 C192 1.574 . S
C200 H195 0.949 . S
C200 C206 1.368 . S
C201 C185 1.349 1_554 S
C201 H193 0.950 . S
C201 C199 1.327 . S
C202 C190 1.349 . S
C202 H196 0.950 . S
C202 C203 1.327 . S
C203 H197 0.950 . S
C203 C202 1.327 . S
C203 C207 1.429 . S
C204 C187 1.574 . S
C204 H198 0.949 . S
C204 C208 1.368 . S
C205 C186 1.429 . S
C205 C199 1.429 1_556 S
C205 C206 1.523 . S
C206 C187 1.368 . S
C206 C200 1.368 . S
C206 C205 1.523 . S
C207 C191 1.429 . S
C207 C203 1.429 . S
C207 C208 1.523 . S
C208 C192 1.368 . S
C208 C204 1.368 . S
C208 C207 1.523 . S
H209 C184 0.950 . S
H210 C186 0.950 . S
H211 C187 0.949 1_554 S
H212 C189 0.950 . S
H213 C191 0.950 . S
C214 C215 1.349 . S
C214 C216 1.327 . S
C214 H239 0.950 . S
C215 C214 1.349 . S
C215 C231 1.349 . S
C216 C214 1.327 . S
C216 C235 1.429 . S
C216 H240 0.950 . S
C217 C234 1.574 . S
C217 C236 1.368 . S
C217 H241 0.949 . S
H218 C222 0.949 . S
C219 C220 1.349 . S
C219 C221 1.327 1_545 S
C219 H242 0.950 . S
C220 C219 1.349 . S
C220 C232 1.349 1_545 S
C221 C219 1.327 1_565 S
C221 C237 1.429 . S
C221 H243 0.950 . S
C222 H218 0.949 . S
C222 C230 1.574 . S
C222 C238 1.368 . S
H223 C231 0.950 . S
H224 C229 0.950 . S
H225 C230 0.949 . S
H226 C232 0.950 . S
H227 C233 0.950 . S
H228 C234 0.949 . S
C229 H224 0.950 . S
C229 C231 1.327 . S
C229 C235 1.429 . S
C230 C222 1.574 . S
C230 H225 0.949 . S
C230 C236 1.368 . S
C231 C215 1.349 . S
C231 H223 0.950 . S
C231 C229 1.327 . S
C232 C220 1.349 1_565 S
C232 H226 0.950 . S
C232 C233 1.327 . S
C233 H227 0.950 . S
C233 C232 1.327 . S
C233 C237 1.429 . S
C234 C217 1.574 . S
C234 H228 0.949 . S
C234 C238 1.368 . S
C235 C216 1.429 . S
C235 C229 1.429 . S
C235 C236 1.523 . S
C236 C217 1.368 . S
C236 C230 1.368 . S
C236 C235 1.523 . S
C237 C221 1.429 . S
C237 C233 1.429 . S
C237 C238 1.523 . S
C238 C222 1.368 . S
C238 C234 1.368 . S
C238 C237 1.523 . S
H239 C214 0.950 . S
H240 C216 0.950 . S
H241 C217 0.949 . S
H242 C219 0.950 . S
H243 C221 0.950 . S
C244 C245 1.349 . S
C244 C246 1.327 . S
C244 H269 0.950 . S
C245 C244 1.349 . S
C245 C261 1.349 . S
C246 C244 1.327 . S
C246 C265 1.429 . S
C246 H270 0.950 . S
C247 C264 1.574 . S
C247 C266 1.368 . S
C247 H271 0.949 . S
H248 C252 0.949 . S
C249 C250 1.349 . S
C249 C251 1.327 . S
C249 H272 0.950 . S
C250 C249 1.349 . S
C250 C262 1.349 . S
C251 C249 1.327 . S
C251 C267 1.429 . S
C251 H273 0.950 . S
C252 H248 0.949 . S
C252 C260 1.574 . S
C252 C268 1.368 . S
H253 C261 0.950 . S
H254 C259 0.950 . S
H255 C260 0.949 . S
H256 C262 0.950 1_455 S
H257 C263 0.950 . S
H258 C264 0.949 . S
C259 H254 0.950 . S
C259 C261 1.327 . S
C259 C265 1.429 . S
C260 C252 1.574 . S
C260 H255 0.949 . S
C260 C266 1.368 . S
C261 C245 1.349 . S
C261 H253 0.950 . S
C261 C259 1.327 . S
C262 C250 1.349 . S
C262 H256 0.950 1_655 S
C262 C263 1.327 . S
C263 H257 0.950 . S
C263 C262 1.327 . S
C263 C267 1.429 . S
C264 C247 1.574 . S
C264 H258 0.949 . S
C264 C268 1.368 . S
C265 C246 1.429 . S
C265 C259 1.429 . S
C265 C266 1.523 . S
C266 C247 1.368 . S
C266 C260 1.368 . S
C266 C265 1.523 . S
C267 C251 1.429 . S
C267 C263 1.429 . S
C267 C268 1.523 . S
C268 C252 1.368 . S
C268 C264 1.368 . S
C268 C267 1.523 . S
H269 C244 0.950 . S
H270 C246 0.950 . S
H271 C247 0.949 . S
H272 C249 0.950 . S
H273 C251 0.950 . S
C274 C275 1.349 . S
C274 C276 1.327 . S
C274 H299 0.950 . S
C275 C274 1.349 . S
C275 C291 1.349 . S
C276 C274 1.327 . S
C276 C295 1.429 . S
C276 H300 0.950 . S
C277 C294 1.574 . S
C277 C296 1.368 . S
C277 H301 0.949 . S
H278 C282 0.949 . S
C279 C280 1.349 . S
C279 C281 1.327 . S
C279 H302 0.950 . S
C280 C279 1.349 . S
C280 C292 1.349 . S
C281 C279 1.327 . S
C281 C297 1.429 . S
C281 H303 0.950 . S
C282 H278 0.949 . S
C282 C290 1.574 . S
C282 C298 1.368 . S
H283 C291 0.950 . S
H284 C289 0.950 . S
H285 C290 0.949 . S
H286 C292 0.950 . S
H287 C293 0.950 . S
H288 C294 0.949 . S
C289 H284 0.950 . S
C289 C291 1.327 . S
C289 C295 1.429 . S
C290 C282 1.574 . S
C290 H285 0.949 . S
C290 C296 1.368 . S
C291 C275 1.349 . S
C291 H283 0.950 . S
C291 C289 1.327 . S
C292 C280 1.349 . S
C292 H286 0.950 . S
C292 C293 1.327 . S
C293 H287 0.950 . S
C293 C292 1.327 . S
C293 C297 1.429 . S
C294 C277 1.574 . S
C294 H288 0.949 . S
C294 C298 1.368 . S
C295 C276 1.429 . S
C295 C289 1.429 . S
C295 C296 1.523 . S
C296 C277 1.368 . S
C296 C290 1.368 . S
C296 C295 1.523 . S
C297 C281 1.429 . S
C297 C293 1.429 . S
C297 C298 1.523 . S
C298 C282 1.368 . S
C298 C294 1.368 . S
C298 C297 1.523 . S
H299 C274 0.950 . S
H300 C276 0.950 . S
H301 C277 0.949 . S
H302 C279 0.950 . S
H303 C281 0.950 . S
C304 C305 1.349 . S
C304 C306 1.327 . S
C304 H329 0.950 . S
C305 C304 1.349 . S
C305 C321 1.349 . S
C306 C304 1.327 . S
C306 C325 1.429 . S
C306 H330 0.950 . S
C307 C324 1.574 . S
C307 C326 1.368 . S
C307 H331 0.949 . S
H308 C312 0.949 . S
C309 C310 1.349 . S
C309 C311 1.327 . S
C309 H332 0.950 . S
C310 C309 1.349 . S
C310 C322 1.349 . S
C311 C309 1.327 . S
C311 C327 1.429 . S
C311 H333 0.950 . S
C312 H308 0.949 . S
C312 C320 1.574 . S
C312 C328 1.368 . S
H313 C321 0.950 . S
H314 C319 0.950 . S
H315 C320 0.949 . S
H316 C322 0.950 . S
H317 C323 0.950 . S
H318 C324 0.949 . S
C319 H314 0.950 . S
C319 C321 1.327 . S
C319 C325 1.429 . S
C320 C312 1.574 . S
C320 H315 0.949 . S
C320 C326 1.368 . S
C321 C305 1.349 . S
C321 H313 0.950 . S
C321 C319 1.327 . S
C322 C310 1.349 . S
C322 H316 0.950 . S
C322 C323 1.327 . S
C323 H317 0.950 . S
C323 C322 1.327 . S
C323 C327 1.429 . S
C324 C307 1.574 . S
C324 H318 0.949 . S
C324 C328 1.368 . S
C325 C306 1.429 . S
C325 C319 1.429 . S
C325 C326 1.523 . S
C326 C307 1.368 . S
C326 C320 1.368 . S
C326 C325 1.523 . S
C327 C311 1.429 . S
C327 C323 1.429 . S
C327 C328 1.523 . S
C328 C312 1.368 . S
C328 C324 1.368 . S
C328 C327 1.523 . S
H329 C304 0.950 . S
H330 C306 0.950 . S
H331 C307 0.949 . S
H332 C309 0.950 . S
H333 C311 0.950 . S
C334 C335 1.349 1_565 S
C334 C336 1.327 . S
C334 H359 0.950 . S
C335 C334 1.349 1_545 S
C335 C351 1.349 . S
C336 C334 1.327 . S
C336 C355 1.429 1_565 S
C336 H360 0.950 . S
C337 C354 1.574 . S
C337 C356 1.368 . S
C337 H361 0.949 . S
H338 C342 0.949 . S
C339 C340 1.349 1_545 S
C339 C341 1.327 . S
C339 H362 0.958 . S
C340 C339 1.349 1_565 S
C340 C352 1.349 . S
C341 C339 1.327 . S
C341 C357 1.433 . S
C341 H363 0.950 . S
C342 H338 0.949 . S
C342 C350 1.574 . S
C342 C358 1.368 1_565 S
H343 C351 0.950 . S
H344 C349 0.950 . S
H345 C350 0.949 . S
H346 C352 0.950 . S
H347 C353 0.950 . S
H348 C354 0.949 . S
C349 H344 0.950 . S
C349 C351 1.327 . S
C349 C355 1.429 . S
C350 C342 1.574 . S
C350 H345 0.949 . S
C350 C356 1.368 1_565 S
C351 C335 1.349 . S
C351 H343 0.950 . S
C351 C349 1.327 . S
C352 C340 1.349 . S
C352 H346 0.950 . S
C352 C353 1.327 . S
C353 H347 0.950 . S
C353 C352 1.327 . S
C353 C357 1.424 1_565 S
C354 C337 1.574 . S
C354 H348 0.949 . S
C354 C358 1.368 . S
C355 C336 1.429 1_545 S
C355 C349 1.429 . S
C355 C356 1.523 . S
C356 C337 1.368 . S
C356 C350 1.368 1_545 S
C356 C355 1.523 . S
C357 C341 1.433 . S
C357 C353 1.424 1_545 S
C357 C358 1.523 . S
C358 C342 1.368 1_545 S
C358 C354 1.368 . S
C358 C357 1.523 . S
H359 C334 0.950 . S
H360 C336 0.950 . S
H361 C337 0.949 . S
H362 C339 0.958 . S
H363 C341 0.950 . S
C364 C365 1.349 . S
C364 C366 1.327 . S
C364 H389 0.950 . S
C365 C364 1.349 . S
C365 C381 1.349 . S
C366 C364 1.327 . S
C366 C385 1.429 . S
C366 H390 0.950 . S
C367 C384 1.575 . S
C367 C386 1.368 . S
C367 H391 0.949 1_455 S
H368 C372 0.949 . S
C369 C370 1.349 1_655 S
C369 C371 1.327 . S
C369 H392 0.950 . S
C370 C369 1.349 1_455 S
C370 C382 1.349 . S
C371 C369 1.327 . S
C371 C387 1.429 1_655 S
C371 H393 0.950 . S
C372 H368 0.949 . S
C372 C380 1.574 . S
C372 C388 1.368 . S
H373 C381 0.950 . S
H374 C379 0.950 1_655 S
H375 C380 0.949 . S
H376 C382 0.950 . S
H377 C383 0.950 . S
H378 C384 0.939 1_655 S
C379 H374 0.950 1_455 S
C379 C381 1.327 . S
C379 C385 1.429 . S
C380 C372 1.574 . S
C380 H375 0.949 . S
C380 C386 1.368 . S
C381 C365 1.349 . S
C381 H373 0.950 . S
C381 C379 1.327 . S
C382 C370 1.349 . S
C382 H376 0.950 . S
C382 C383 1.327 . S
C383 H377 0.950 . S
C383 C382 1.327 . S
C383 C387 1.429 . S
C384 C367 1.575 . S
C384 H378 0.939 1_455 S
C384 C388 1.378 . S
C385 C366 1.429 . S
C385 C379 1.429 . S
C385 C386 1.523 . S
C386 C367 1.368 . S
C386 C380 1.368 . S
C386 C385 1.523 . S
C387 C371 1.429 1_455 S
C387 C383 1.429 . S
C387 C388 1.523 . S
C388 C372 1.368 . S
C388 C384 1.378 . S
C388 C387 1.523 . S
H389 C364 0.950 . S
H390 C366 0.950 . S
H391 C367 0.949 1_655 S
H392 C369 0.950 . S
H393 C371 0.950 . S
C394 C395 1.349 . S
C394 C396 1.327 . S
C394 H419 0.950 . S
C395 C394 1.349 . S
C395 C411 1.349 . S
C396 C394 1.327 . S
C396 C415 1.429 . S
C396 H420 0.950 . S
C397 C414 1.574 . S
C397 C416 1.368 . S
C397 H421 0.949 . S
H398 C402 0.949 . S
C399 C400 1.349 . S
C399 C401 1.327 . S
C399 H422 0.950 . S
C400 C399 1.349 . S
C400 C412 1.349 . S
C401 C399 1.327 . S
C401 C417 1.429 . S
C401 H423 0.950 . S
C402 H398 0.949 . S
C402 C410 1.574 . S
C402 C418 1.368 . S
H403 C411 0.950 . S
H404 C409 0.950 . S
H405 C410 0.949 . S
H406 C412 0.950 . S
H407 C413 0.950 . S
H408 C414 0.949 . S
C409 H404 0.950 . S
C409 C411 1.327 . S
C409 C415 1.429 . S
C410 C402 1.574 . S
C410 H405 0.949 . S
C410 C416 1.368 . S
C411 C395 1.349 . S
C411 H403 0.950 . S
C411 C409 1.327 . S
C412 C400 1.349 . S
C412 H406 0.950 . S
C412 C413 1.327 . S
C413 H407 0.950 . S
C413 C412 1.327 . S
C413 C417 1.429 . S
C414 C397 1.574 . S
C414 H408 0.949 . S
C414 C418 1.368 . S
C415 C396 1.429 . S
C415 C409 1.429 . S
C415 C416 1.523 . S
C416 C397 1.368 . S
C416 C410 1.368 . S
C416 C415 1.523 . S
C417 C401 1.429 . S
C417 C413 1.429 . S
C417 C418 1.523 . S
C418 C402 1.368 . S
C418 C414 1.368 . S
C418 C417 1.523 . S
H419 C394 0.950 . S
H420 C396 0.950 . S
H421 C397 0.949 . S
H422 C399 0.950 . S
H423 C401 0.950 . S
C424 C425 1.349 . S
C424 C426 1.327 . S
C424 H449 0.950 . S
C425 C424 1.349 . S
C425 C441 1.349 . S
C426 C424 1.327 . S
C426 C445 1.429 . S
C426 H450 0.950 . S
C427 C444 1.574 . S
C427 C446 1.368 . S
C427 H451 0.949 . S
H428 C432 0.949 . S
C429 C430 1.349 . S
C429 C431 1.327 . S
C429 H452 0.950 . S
C430 C429 1.349 . S
C430 C442 1.349 . S
C431 C429 1.327 . S
C431 C447 1.429 . S
C431 H453 0.950 . S
C432 H428 0.949 . S
C432 C440 1.574 . S
C432 C448 1.368 . S
H433 C441 0.950 . S
H434 C439 0.950 . S
H435 C440 0.949 . S
H436 C442 0.950 . S
H437 C443 0.950 . S
H438 C444 0.949 . S
C439 H434 0.950 . S
C439 C441 1.327 . S
C439 C445 1.429 . S
C440 C432 1.574 . S
C440 H435 0.949 . S
C440 C446 1.368 . S
C441 C425 1.349 . S
C441 H433 0.950 . S
C441 C439 1.327 . S
C442 C430 1.349 . S
C442 H436 0.950 . S
C442 C443 1.327 . S
C443 H437 0.950 . S
C443 C442 1.327 . S
C443 C447 1.429 . S
C444 C427 1.574 . S
C444 H438 0.949 . S
C444 C448 1.368 . S
C445 C426 1.429 . S
C445 C439 1.429 . S
C445 C446 1.523 . S
C446 C427 1.368 . S
C446 C440 1.368 . S
C446 C445 1.523 . S
C447 C431 1.429 . S
C447 C443 1.429 . S
C447 C448 1.523 . S
C448 C432 1.368 . S
C448 C444 1.368 . S
C448 C447 1.523 . S
H449 C424 0.950 . S
H450 C426 0.950 . S
H451 C427 0.949 . S
H452 C429 0.950 . S
H453 C431 0.950 . S
C100 N83 1.316 . S
C95 C16 1.148 . S
C125 C15 1.385 . S
C130 N70 1.380 . S
C155 C13 1.335 . S
C160 N82 1.545 . S
C185 C14 1.400 . S
C190 N69 1.461 . S
C215 C37 1.148 . S
C220 N57 1.316 . S
C245 C36 1.385 . S
C250 N44 1.380 1_655 S
C280 N56 1.545 . S
C275 C34 1.335 . S
C310 N43 1.461 . S
C305 C35 1.400 . S
C335 C17 1.567 . S
C340 N47 1.594 1_565 S
C365 C18 1.403 . S
C370 N60 1.436 . S
C400 N73 1.594 . S
C395 C38 1.567 . S
C425 C39 1.403 . S
C430 N86 1.437 . S
