# Generated by pormake.
# Topology ctn, (3,4)-cn, num edge types: 1
# Building blocks:
#     Node 0, Type 0, BuildingBlock: KAKCAD_clean_linker_0, # of connection points: 3
#     Node 1, Type 0, BuildingBlock: KAKCAD_clean_linker_0, # of connection points: 3
#     Node 2, Type 0, BuildingBlock: KAKCAD_clean_linker_0, # of connection points: 3
#     Node 3, Type 0, BuildingBlock: KAKCAD_clean_linker_0, # of connection points: 3
#     Node 4, Type 0, BuildingBlock: KAKCAD_clean_linker_0, # of connection points: 3
#     Node 5, Type 0, BuildingBlock: KAKCAD_clean_linker_0, # of connection points: 3
#     Node 6, Type 0, BuildingBlock: KAKCAD_clean_linker_0, # of connection points: 3
#     Node 7, Type 0, BuildingBlock: KAKCAD_clean_linker_0, # of connection points: 3
#     Node 8, Type 0, BuildingBlock: KAKCAD_clean_linker_0, # of connection points: 3
#     Node 9, Type 0, BuildingBlock: KAKCAD_clean_linker_0, # of connection points: 3
#     Node 10, Type 0, BuildingBlock: KAKCAD_clean_linker_0, # of connection points: 3
#     Node 11, Type 0, BuildingBlock: KAKCAD_clean_linker_0, # of connection points: 3
#     Node 12, Type 0, BuildingBlock: KAKCAD_clean_linker_0, # of connection points: 3
#     Node 13, Type 0, BuildingBlock: KAKCAD_clean_linker_0, # of connection points: 3
#     Node 14, Type 0, BuildingBlock: KAKCAD_clean_linker_0, # of connection points: 3
#     Node 15, Type 0, BuildingBlock: KAKCAD_clean_linker_0, # of connection points: 3
#     Node 16, Type 1, BuildingBlock: NAHDIM_clean_sbu_0, # of connection points: 4
#     Node 17, Type 1, BuildingBlock: NAHDIM_clean_sbu_0, # of connection points: 4
#     Node 18, Type 1, BuildingBlock: NAHDIM_clean_sbu_0, # of connection points: 4
#     Node 19, Type 1, BuildingBlock: NAHDIM_clean_sbu_0, # of connection points: 4
#     Node 20, Type 1, BuildingBlock: NAHDIM_clean_sbu_0, # of connection points: 4
#     Node 21, Type 1, BuildingBlock: NAHDIM_clean_sbu_0, # of connection points: 4
#     Node 22, Type 1, BuildingBlock: NAHDIM_clean_sbu_0, # of connection points: 4
#     Node 23, Type 1, BuildingBlock: NAHDIM_clean_sbu_0, # of connection points: 4
#     Node 24, Type 1, BuildingBlock: NAHDIM_clean_sbu_0, # of connection points: 4
#     Node 25, Type 1, BuildingBlock: NAHDIM_clean_sbu_0, # of connection points: 4
#     Node 26, Type 1, BuildingBlock: NAHDIM_clean_sbu_0, # of connection points: 4
#     Node 27, Type 1, BuildingBlock: NAHDIM_clean_sbu_0, # of connection points: 4
#     Edge 28, Type (0, 1), BuildingBlock: KIFKEQ_clean_linker_1, # of connection points: 2
#     Edge 29, Type (0, 1), BuildingBlock: KIFKEQ_clean_linker_1, # of connection points: 2
#     Edge 30, Type (0, 1), BuildingBlock: KIFKEQ_clean_linker_1, # of connection points: 2
#     Edge 31, Type (0, 1), BuildingBlock: KIFKEQ_clean_linker_1, # of connection points: 2
#     Edge 32, Type (0, 1), BuildingBlock: KIFKEQ_clean_linker_1, # of connection points: 2
#     Edge 33, Type (0, 1), BuildingBlock: KIFKEQ_clean_linker_1, # of connection points: 2
#     Edge 34, Type (0, 1), BuildingBlock: KIFKEQ_clean_linker_1, # of connection points: 2
#     Edge 35, Type (0, 1), BuildingBlock: KIFKEQ_clean_linker_1, # of connection points: 2
#     Edge 36, Type (0, 1), BuildingBlock: KIFKEQ_clean_linker_1, # of connection points: 2
#     Edge 37, Type (0, 1), BuildingBlock: KIFKEQ_clean_linker_1, # of connection points: 2
#     Edge 38, Type (0, 1), BuildingBlock: KIFKEQ_clean_linker_1, # of connection points: 2
#     Edge 39, Type (0, 1), BuildingBlock: KIFKEQ_clean_linker_1, # of connection points: 2
#     Edge 40, Type (0, 1), BuildingBlock: KIFKEQ_clean_linker_1, # of connection points: 2
#     Edge 41, Type (0, 1), BuildingBlock: KIFKEQ_clean_linker_1, # of connection points: 2
#     Edge 42, Type (0, 1), BuildingBlock: KIFKEQ_clean_linker_1, # of connection points: 2
#     Edge 43, Type (0, 1), BuildingBlock: KIFKEQ_clean_linker_1, # of connection points: 2
#     Edge 44, Type (0, 1), BuildingBlock: KIFKEQ_clean_linker_1, # of connection points: 2
#     Edge 45, Type (0, 1), BuildingBlock: KIFKEQ_clean_linker_1, # of connection points: 2
#     Edge 46, Type (0, 1), BuildingBlock: KIFKEQ_clean_linker_1, # of connection points: 2
#     Edge 47, Type (0, 1), BuildingBlock: KIFKEQ_clean_linker_1, # of connection points: 2
#     Edge 48, Type (0, 1), BuildingBlock: KIFKEQ_clean_linker_1, # of connection points: 2
#     Edge 49, Type (0, 1), BuildingBlock: KIFKEQ_clean_linker_1, # of connection points: 2
#     Edge 50, Type (0, 1), BuildingBlock: KIFKEQ_clean_linker_1, # of connection points: 2
#     Edge 51, Type (0, 1), BuildingBlock: KIFKEQ_clean_linker_1, # of connection points: 2
#     Edge 52, Type (0, 1), BuildingBlock: KIFKEQ_clean_linker_1, # of connection points: 2
#     Edge 53, Type (0, 1), BuildingBlock: KIFKEQ_clean_linker_1, # of connection points: 2
#     Edge 54, Type (0, 1), BuildingBlock: KIFKEQ_clean_linker_1, # of connection points: 2
#     Edge 55, Type (0, 1), BuildingBlock: KIFKEQ_clean_linker_1, # of connection points: 2
#     Edge 56, Type (0, 1), BuildingBlock: KIFKEQ_clean_linker_1, # of connection points: 2
#     Edge 57, Type (0, 1), BuildingBlock: KIFKEQ_clean_linker_1, # of connection points: 2
#     Edge 58, Type (0, 1), BuildingBlock: KIFKEQ_clean_linker_1, # of connection points: 2
#     Edge 59, Type (0, 1), BuildingBlock: KIFKEQ_clean_linker_1, # of connection points: 2
#     Edge 60, Type (0, 1), BuildingBlock: KIFKEQ_clean_linker_1, # of connection points: 2
#     Edge 61, Type (0, 1), BuildingBlock: KIFKEQ_clean_linker_1, # of connection points: 2
#     Edge 62, Type (0, 1), BuildingBlock: KIFKEQ_clean_linker_1, # of connection points: 2
#     Edge 63, Type (0, 1), BuildingBlock: KIFKEQ_clean_linker_1, # of connection points: 2
#     Edge 64, Type (0, 1), BuildingBlock: KIFKEQ_clean_linker_1, # of connection points: 2
#     Edge 65, Type (0, 1), BuildingBlock: KIFKEQ_clean_linker_1, # of connection points: 2
#     Edge 66, Type (0, 1), BuildingBlock: KIFKEQ_clean_linker_1, # of connection points: 2
#     Edge 67, Type (0, 1), BuildingBlock: KIFKEQ_clean_linker_1, # of connection points: 2
#     Edge 68, Type (0, 1), BuildingBlock: KIFKEQ_clean_linker_1, # of connection points: 2
#     Edge 69, Type (0, 1), BuildingBlock: KIFKEQ_clean_linker_1, # of connection points: 2
#     Edge 70, Type (0, 1), BuildingBlock: KIFKEQ_clean_linker_1, # of connection points: 2
#     Edge 71, Type (0, 1), BuildingBlock: KIFKEQ_clean_linker_1, # of connection points: 2
#     Edge 72, Type (0, 1), BuildingBlock: KIFKEQ_clean_linker_1, # of connection points: 2
#     Edge 73, Type (0, 1), BuildingBlock: KIFKEQ_clean_linker_1, # of connection points: 2
#     Edge 74, Type (0, 1), BuildingBlock: KIFKEQ_clean_linker_1, # of connection points: 2
#     Edge 75, Type (0, 1), BuildingBlock: KIFKEQ_clean_linker_1, # of connection points: 2
# Relax obj value: 0.002
# Max RMSD: 0.033
# Mean RMSD: 0.016
data_MOF--net-ctn--node1-NAHDIM_clean_sbu_0--node2-KAKCAD_clean_linker_0--edge1-KIFKEQ_clean_linker_1
_symmetry_space_group_name_H-M    P1
_symmetry_Int_Tables_number       1
_symmetry_cell_setting            triclinic
loop_
_symmetry_equiv_pos_as_xyz
'x, y, z'
_cell_length_a     68.629533
_cell_length_b     68.915911
_cell_length_c     68.17022
_cell_angle_alpha  91.216206
_cell_angle_beta   90.331723
_cell_angle_gamma 92.298432
loop_
_atom_site_label
_atom_site_type_symbol
_atom_site_fract_x
_atom_site_fract_y
_atom_site_fract_z
_atom_type_partial_charge
C0 C 0.03309 0.09317 0.98847 0.0
C1 C 0.02743 0.1111 0.99629 0.0
C2 C 0.03625 0.07761 0.00081 0.0
C3 C 0.03395 0.07971 0.02123 0.0
C4 C 0.02858 0.09778 0.02901 0.0
C5 C 0.02527 0.11325 0.01669 0.0
C6 C 0.037 0.06316 0.03445 0.0
C7 C 0.05227 0.05052 0.03114 0.0
C8 C 0.05539 0.03508 0.04381 0.0
C9 C 0.04312 0.03252 0.06009 0.0
C10 C 0.02786 0.04508 0.06372 0.0
C11 C 0.02478 0.06017 0.05065 0.0
C12 C 0.01532 0.04278 0.08132 0.0
C13 C 0.00895 0.02427 0.08752 0.0
C14 C 0.00967 0.05921 0.09212 0.0
C15 C 0.99788 0.05721 0.10863 0.0
C16 C 0.99152 0.03872 0.11487 0.0
C17 C 0.07164 0.02182 0.04016 0.0
C18 C 0.07592 0.01549 0.02097 0.0
C19 C 0.08305 0.01546 0.05579 0.0
C20 C 0.09835 0.00307 0.05232 0.0
C21 C 0.10267 0.99684 0.03312 0.0
C22 C 0.09128 0.00318 0.01749 0.0
C23 C 0.9972 0.02226 0.10411 0.0
H24 H 0.0347 0.09106 0.97278 0.0
H25 H 0.04014 0.06384 0.99429 0.0
H26 H 0.02709 0.10008 0.04469 0.0
H27 H 0.02125 0.127 0.02316 0.0
H28 H 0.0621 0.05304 0.019 0.0
H29 H 0.01261 0.06947 0.05298 0.0
H30 H 0.04554 0.02079 0.07004 0.0
H31 H 0.01287 0.01132 0.07944 0.0
H32 H 0.01451 0.07368 0.08792 0.0
H33 H 0.9936 0.07022 0.11638 0.0
H34 H 0.06724 0.01986 0.00863 0.0
H35 H 0.08037 0.0203 0.07071 0.0
H36 H 0.99274 0.00779 0.10862 0.0
H37 H 0.09407 0.99841 0.00257 0.0
H38 H 0.10703 0.99865 0.06464 0.0
C39 C 0.34358 0.74576 0.26278 0.0
C40 C 0.35291 0.73024 0.27134 0.0
C41 C 0.32806 0.74224 0.24965 0.0
C42 C 0.32167 0.72311 0.24461 0.0
C43 C 0.3312 0.70761 0.25308 0.0
C44 C 0.34656 0.71113 0.26638 0.0
C45 C 0.30508 0.71932 0.23067 0.0
C46 C 0.30271 0.73113 0.21432 0.0
C47 C 0.28707 0.72764 0.20115 0.0
C48 C 0.27379 0.712 0.20436 0.0
C49 C 0.27592 0.7 0.22056 0.0
C50 C 0.29152 0.70385 0.23369 0.0
C51 C 0.26185 0.68344 0.22383 0.0
C52 C 0.24173 0.68551 0.2211 0.0
C53 C 0.26848 0.6654 0.2297 0.0
C54 C 0.2553 0.64981 0.23278 0.0
C55 C 0.23517 0.65187 0.23006 0.0
C56 C 0.28453 0.74039 0.18411 0.0
C57 C 0.28673 0.76068 0.18638 0.0
C58 C 0.27961 0.73239 0.16551 0.0
C59 C 0.27683 0.74442 0.14957 0.0
C60 C 0.27883 0.76472 0.15188 0.0
C61 C 0.28386 0.77272 0.17046 0.0
C62 C 0.22854 0.66991 0.22418 0.0
H63 H 0.34806 0.76063 0.26652 0.0
H64 H 0.32088 0.75455 0.2437 0.0
H65 H 0.32696 0.69269 0.24926 0.0
H66 H 0.35368 0.6989 0.27256 0.0
H67 H 0.31331 0.74281 0.21153 0.0
H68 H 0.29281 0.69502 0.24656 0.0
H69 H 0.26175 0.70917 0.19421 0.0
H70 H 0.23613 0.6993 0.21687 0.0
H71 H 0.28392 0.66325 0.23164 0.0
H72 H 0.26091 0.63602 0.23699 0.0
H73 H 0.29036 0.76728 0.20056 0.0
H74 H 0.27799 0.7168 0.16325 0.0
H75 H 0.21311 0.67206 0.22223 0.0
H76 H 0.2857 0.7883 0.17267 0.0
H77 H 0.2728 0.73782 0.13549 0.0
C78 C 0.9957 0.47865 0.10731 0.0
C79 C 0.01574 0.47518 0.10631 0.0
C80 C 0.98399 0.47714 0.09045 0.0
C81 C 0.99204 0.47212 0.0722 0.0
C82 C 0.0121 0.46885 0.07119 0.0
C83 C 0.02379 0.47032 0.08803 0.0
C84 C 0.97956 0.46998 0.05431 0.0
C85 C 0.96498 0.48319 0.05061 0.0
C86 C 0.95325 0.48124 0.03364 0.0
C87 C 0.95637 0.46589 0.02024 0.0
C88 C 0.97089 0.45254 0.02368 0.0
C89 C 0.98229 0.45464 0.04083 0.0
C90 C 0.97421 0.43636 0.00943 0.0
C91 C 0.95843 0.42623 8e-05 0.0
C92 C 0.99327 0.43081 0.0052 0.0
C93 C 0.99645 0.41537 0.99217 0.0
C94 C 0.98067 0.40522 0.98292 0.0
C95 C 0.93771 0.49518 0.02991 0.0
C96 C 0.9258 0.50158 0.04527 0.0
C97 C 0.93448 0.50198 0.01091 0.0
C98 C 0.91957 0.51469 0.00731 0.0
C99 C 0.90755 0.52097 0.02263 0.0
C100 C 0.91092 0.51433 0.04168 0.0
C101 C 0.96163 0.41088 0.98691 0.0
H102 H 0.98907 0.48264 0.12112 0.0
H103 H 0.96856 0.47959 0.09177 0.0
H104 H 0.01882 0.46519 0.05733 0.0
H105 H 0.03911 0.46735 0.08674 0.0
H106 H 0.96307 0.49531 0.06072 0.0
H107 H 0.99306 0.44403 0.04394 0.0
H108 H 0.94745 0.46433 0.0071 0.0
H109 H 0.94356 0.42991 0.00321 0.0
H110 H 0.00578 0.43852 0.01183 0.0
H111 H 0.0113 0.41151 0.98914 0.0
H112 H 0.92778 0.49648 0.06004 0.0
H113 H 0.94354 0.49755 0.99879 0.0
H114 H 0.94918 0.40316 0.98016 0.0
H115 H 0.90209 0.51904 0.05386 0.0
H116 H 0.91727 0.51934 0.99243 0.0
C117 C 0.70671 0.75403 0.1438 0.0
C118 C 0.72595 0.7489 0.13982 0.0
C119 C 0.70268 0.76608 0.15992 0.0
C120 C 0.71782 0.77329 0.17236 0.0
C121 C 0.73698 0.76789 0.16856 0.0
C122 C 0.741 0.75584 0.1525 0.0
C123 C 0.7138 0.7867 0.18905 0.0
C124 C 0.69779 0.78315 0.20138 0.0
C125 C 0.69419 0.7957 0.21738 0.0
C126 C 0.70691 0.81192 0.22096 0.0
C127 C 0.723 0.81572 0.20875 0.0
C128 C 0.72618 0.80309 0.19275 0.0
C129 C 0.73658 0.83276 0.21266 0.0
C130 C 0.72955 0.85071 0.21904 0.0
C131 C 0.75676 0.83122 0.20981 0.0
C132 C 0.76953 0.84727 0.21293 0.0
C133 C 0.76247 0.86519 0.2192 0.0
C134 C 0.67728 0.79174 0.23046 0.0
C135 C 0.65916 0.78513 0.22261 0.0
C136 C 0.67911 0.79455 0.25089 0.0
C137 C 0.6632 0.79087 0.26316 0.0
C138 C 0.64509 0.78422 0.25532 0.0
C139 C 0.64328 0.78137 0.23489 0.0
C140 C 0.74239 0.86674 0.22237 0.0
H141 H 0.69481 0.7491 0.1342 0.0
H142 H 0.68779 0.77014 0.16237 0.0
H143 H 0.74891 0.77292 0.17809 0.0
H144 H 0.75591 0.75185 0.1501 0.0
H145 H 0.68845 0.77028 0.19883 0.0
H146 H 0.73816 0.8062 0.18287 0.0
H147 H 0.70431 0.8216 0.23331 0.0
H148 H 0.71409 0.85252 0.22111 0.0
H149 H 0.76275 0.81753 0.20532 0.0
H150 H 0.78499 0.84561 0.21066 0.0
H151 H 0.65718 0.783 0.20693 0.0
H152 H 0.6929 0.7994 0.25747 0.0
H153 H 0.73656 0.88045 0.22704 0.0
H154 H 0.62962 0.77603 0.22835 0.0
H155 H 0.66507 0.79343 0.2788 0.0
C156 C 0.97987 0.97892 0.41624 0.0
C157 C 0.98704 0.98414 0.39773 0.0
C158 C 0.99265 0.97638 0.43193 0.0
C159 C 0.01291 0.979 0.42948 0.0
C160 C 0.02008 0.9843 0.41099 0.0
C161 C 0.0073 0.98685 0.39531 0.0
C162 C 0.02651 0.97617 0.44614 0.0
C163 C 0.02334 0.96064 0.45891 0.0
C164 C 0.03605 0.95787 0.47476 0.0
C165 C 0.0522 0.97083 0.47767 0.0
C166 C 0.0557 0.98637 0.46497 0.0
C167 C 0.04274 0.98895 0.4493 0.0
C168 C 0.07286 -5e-05 0.46805 0.0
C169 C 0.07801 0.00696 0.48696 0.0
C170 C 0.08418 0.00607 0.45203 0.0
C171 C 0.10026 0.01893 0.45485 0.0
C172 C 0.10536 0.02601 0.47375 0.0
C173 C 0.03246 0.94136 0.48816 0.0
C174 C 0.01341 0.93623 0.49417 0.0
C175 C 0.04798 0.93049 0.49489 0.0
C176 C 0.0445 0.91479 0.50724 0.0
C177 C 0.02542 0.90957 0.51306 0.0
C178 C 0.00993 0.9205 0.50643 0.0
C179 C 0.09406 0.01987 0.48978 0.0
H180 H 0.96437 0.97652 0.41856 0.0
H181 H 0.98664 0.97251 0.44604 0.0
H182 H 0.03561 0.98625 0.40855 0.0
H183 H 0.0133 0.99109 0.38131 0.0
H184 H 0.01119 0.95039 0.45621 0.0
H185 H 0.04506 0.00123 0.4398 0.0
H186 H 0.0621 0.96881 0.48983 0.0
H187 H 0.06948 0.00266 0.49958 0.0
H188 H 0.0807 0.00078 0.4373 0.0
H189 H 0.10855 0.02351 0.44218 0.0
H190 H 0.00117 0.9445 0.48954 0.0
H191 H 0.06279 0.93387 0.49032 0.0
H192 H 0.09773 0.02491 0.50455 0.0
H193 H 0.9951 0.91704 0.51092 0.0
H194 H 0.05671 0.9065 0.5119 0.0
C195 C 0.14728 0.70879 0.75138 0.0
C196 C 0.1419 0.72746 0.74607 0.0
C197 C 0.16273 0.70643 0.76445 0.0
C198 C 0.17329 0.72267 0.77243 0.0
C199 C 0.16803 0.74132 0.76696 0.0
C200 C 0.15249 0.74369 0.75402 0.0
C201 C 0.18965 0.72019 0.78648 0.0
C202 C 0.20254 0.70501 0.78379 0.0
C203 C 0.21799 0.70256 0.79701 0.0
C204 C 0.22062 0.71567 0.81296 0.0
C205 C 0.208 0.73101 0.81585 0.0
C206 C 0.19248 0.73305 0.80262 0.0
C207 C 0.21115 0.74505 0.83254 0.0
C208 C 0.21649 0.73864 0.85118 0.0
C209 C 0.20912 0.76504 0.82984 0.0
C210 C 0.21252 0.77832 0.84537 0.0
C211 C 0.21807 0.77194 0.86396 0.0
C212 C 0.23139 0.68632 0.79415 0.0
C213 C 0.22405 0.66769 0.78847 0.0
C214 C 0.25157 0.68926 0.79725 0.0
C215 C 0.2641 0.67391 0.79486 0.0
C216 C 0.25676 0.65525 0.78927 0.0
C217 C 0.23658 0.65235 0.78605 0.0
C218 C 0.21992 0.75193 0.86671 0.0
H219 H 0.13962 0.69595 0.74537 0.0
H220 H 0.16622 0.69185 0.76848 0.0
H221 H 0.176 0.75415 0.77259 0.0
H222 H 0.14863 0.75829 0.75049 0.0
H223 H 0.20083 0.69534 0.7711 0.0
H224 H 0.18233 0.74446 0.80516 0.0
H225 H 0.23258 0.71396 0.82315 0.0
H226 H 0.21796 0.72333 0.85381 0.0
H227 H 0.20521 0.77048 0.81562 0.0
H228 H 0.21074 0.79361 0.8428 0.0
H229 H 0.20856 0.66489 0.78614 0.0
H230 H 0.25773 0.70347 0.80142 0.0
H231 H 0.22435 0.74654 0.88079 0.0
H232 H 0.23046 0.63822 0.7815 0.0
H233 H 0.27953 0.67661 0.79765 0.0
C234 C 0.98026 0.61206 0.49412 0.0
C235 C 0.97985 0.6107 0.51466 0.0
C236 C 0.97675 0.59555 0.48215 0.0
C237 C 0.97263 0.57737 0.49047 0.0
C238 C 0.97195 0.57607 0.51101 0.0
C239 C 0.97557 0.59254 0.52297 0.0
C240 C 0.96946 0.55971 0.47783 0.0
C241 C 0.9818 0.55625 0.46189 0.0
C242 C 0.97936 0.53927 0.45024 0.0
C243 C 0.96431 0.52565 0.45465 0.0
C244 C 0.95162 0.52897 0.4704 0.0
C245 C 0.95434 0.54607 0.48188 0.0
C246 C 0.93546 0.5147 0.47484 0.0
C247 C 0.92468 0.50517 0.45962 0.0
C248 C 0.93049 0.51072 0.49439 0.0
C249 C 0.91493 0.49781 0.49859 0.0
C250 C 0.90411 0.48842 0.48337 0.0
C251 C 0.99275 0.53572 0.43364 0.0
C252 C 0.99771 0.55068 0.42069 0.0
C253 C 0.00095 0.51752 0.43085 0.0
C254 C 0.01408 0.51444 0.41561 0.0
C255 C 0.01922 0.52947 0.40273 0.0
C256 C 0.01074 0.54758 0.40538 0.0
C257 C 0.90923 0.49211 0.46384 0.0
H258 H 0.98366 0.62582 0.48729 0.0
H259 H 0.97721 0.59703 0.46637 0.0
H260 H 0.96898 0.56223 0.51785 0.0
H261 H 0.97496 0.59108 0.53875 0.0
H262 H 0.99374 0.56651 0.45892 0.0
H263 H 0.94443 0.54903 0.49379 0.0
H264 H 0.9625 0.51247 0.44577 0.0
H265 H 0.92789 0.50809 0.4444 0.0
H266 H 0.9387 0.51749 0.50649 0.0
H267 H 0.91149 0.49503 0.51379 0.0
H268 H 0.9914 0.56478 0.42231 0.0
H269 H 0.99756 0.50578 0.44075 0.0
H270 H 0.90099 0.48524 0.4518 0.0
H271 H 0.01405 0.55937 0.39552 0.0
H272 H 0.02053 0.5004 0.41419 0.0
C273 C 0.7999 0.74792 0.84803 0.0
C274 C 0.7808 0.74168 0.85282 0.0
C275 C 0.80328 0.76071 0.83265 0.0
C276 C 0.78763 0.76752 0.8217 0.0
C277 C 0.76854 0.76117 0.82642 0.0
C278 C 0.76516 0.74841 0.8418 0.0
C279 C 0.79114 0.78119 0.8054 0.0
C280 C 0.8066 0.77857 0.79228 0.0
C281 C 0.80971 0.79122 0.77663 0.0
C282 C 0.79738 0.80677 0.77427 0.0
C283 C 0.782 0.80975 0.78735 0.0
C284 C 0.77893 0.79685 0.8028 0.0
C285 C 0.76926 0.82643 0.78492 0.0
C286 C 0.7774 0.84501 0.78123 0.0
C287 C 0.7489 0.82391 0.78625 0.0
C288 C 0.73691 0.83962 0.78378 0.0
C289 C 0.74504 0.85824 0.78007 0.0
C290 C 0.8257 0.78806 0.76255 0.0
C291 C 0.84471 0.78509 0.76928 0.0
C292 C 0.82202 0.7881 0.74225 0.0
C293 C 0.83706 0.78514 0.72893 0.0
C294 C 0.85612 0.78237 0.73565 0.0
C295 C 0.85982 0.78242 0.75595 0.0
C296 C 0.76544 0.86074 0.77891 0.0
H297 H 0.81224 0.7432 0.8564 0.0
H298 H 0.81814 0.76552 0.82955 0.0
H299 H 0.75618 0.76587 0.81806 0.0
H300 H 0.7503 0.74362 0.84489 0.0
H301 H 0.81588 0.76633 0.79387 0.0
H302 H 0.76729 0.79932 0.81313 0.0
H303 H 0.79976 0.81657 0.76221 0.0
H304 H 0.79307 0.84744 0.78043 0.0
H305 H 0.74222 0.80969 0.78887 0.0
H306 H 0.72126 0.83708 0.78447 0.0
H307 H 0.84792 0.7851 0.78486 0.0
H308 H 0.80746 0.79023 0.73669 0.0
H309 H 0.77224 0.87493 0.77647 0.0
H310 H 0.87436 0.78019 0.7615 0.0
H311 H 0.83385 0.78529 0.71336 0.0
C312 C 0.30061 0.2433 0.34534 0.0
C313 C 0.28179 0.23804 0.35182 0.0
C314 C 0.30329 0.25666 0.33036 0.0
C315 C 0.28717 0.26489 0.32133 0.0
C316 C 0.26831 0.25948 0.32778 0.0
C317 C 0.26567 0.24629 0.34292 0.0
C318 C 0.29001 0.27905 0.30528 0.0
C319 C 0.30474 0.27664 0.2913 0.0
C320 C 0.30775 0.29004 0.27625 0.0
C321 C 0.29547 0.30582 0.27501 0.0
C322 C 0.28047 0.30838 0.28868 0.0
C323 C 0.27802 0.29503 0.30387 0.0
C324 C 0.26728 0.3249 0.28709 0.0
C325 C 0.27462 0.34347 0.28205 0.0
C326 C 0.24718 0.32217 0.29054 0.0
C327 C 0.23474 0.33763 0.28906 0.0
C328 C 0.24207 0.35618 0.28402 0.0
C329 C 0.32375 0.28751 0.26188 0.0
C330 C 0.34198 0.28124 0.2681 0.0
C331 C 0.32096 0.29126 0.24188 0.0
C332 C 0.33602 0.28875 0.22845 0.0
C333 C 0.35421 0.28236 0.23466 0.0
C334 C 0.35699 0.27864 0.25467 0.0
C335 C 0.26214 0.35892 0.2805 0.0
H336 H 0.31331 0.23733 0.35212 0.0
H337 H 0.31803 0.26073 0.32605 0.0
H338 H 0.25554 0.26522 0.32095 0.0
H339 H 0.25098 0.24231 0.34748 0.0
H340 H 0.31364 0.26403 0.29186 0.0
H341 H 0.26699 0.29736 0.31488 0.0
H342 H 0.29757 0.31614 0.26337 0.0
H343 H 0.29006 0.34616 0.2796 0.0
H344 H 0.24099 0.30799 0.29411 0.0
H345 H 0.2193 0.33498 0.29158 0.0
H346 H 0.34474 0.27846 0.28343 0.0
H347 H 0.30704 0.2959 0.23653 0.0
H348 H 0.26827 0.37311 0.27684 0.0
H349 H 0.3707 0.27345 0.25997 0.0
H350 H 0.33342 0.29197 0.2132 0.0
C351 C 0.491 0.9739 0.60947 0.0
C352 C 0.51134 0.97644 0.60802 0.0
C353 C 0.47946 0.9716 0.59256 0.0
C354 C 0.48813 0.97139 0.57395 0.0
C355 C 0.50849 0.97366 0.5725 0.0
C356 C 0.51999 0.97638 0.5894 0.0
C357 C 0.47593 0.96887 0.55606 0.0
C358 C 0.46056 0.98125 0.55275 0.0
C359 C 0.44903 0.97914 0.53568 0.0
C360 C 0.45282 0.96412 0.52211 0.0
C361 C 0.46806 0.95149 0.5253 0.0
C362 C 0.47968 0.95412 0.54225 0.0
C363 C 0.47165 0.93542 0.51104 0.0
C364 C 0.45597 0.92432 0.5027 0.0
C365 C 0.49077 0.93097 0.50577 0.0
C366 C 0.49411 0.91577 0.49246 0.0
C367 C 0.47841 0.90468 0.48412 0.0
C368 C 0.43324 0.99276 0.53185 0.0
C369 C 0.42103 0.99888 0.54707 0.0
C370 C 0.43033 0.99981 0.51289 0.0
C371 C 0.41551 0.01258 0.50922 0.0
C372 C 0.40326 0.01866 0.52442 0.0
C373 C 0.40622 0.01172 0.54341 0.0
C374 C 0.4593 0.90914 0.48938 0.0
H375 H 0.48403 0.97399 0.62369 0.0
H376 H 0.46378 0.96979 0.594 0.0
H377 H 0.51546 0.97362 0.55828 0.0
H378 H 0.53566 0.97825 0.58795 0.0
H379 H 0.458 0.99291 0.56324 0.0
H380 H 0.49133 0.94435 0.54505 0.0
H381 H 0.44389 0.96227 0.50899 0.0
H382 H 0.44108 0.92714 0.5067 0.0
H383 H 0.50316 0.93942 0.51173 0.0
H384 H 0.50899 0.91287 0.4885 0.0
H385 H 0.42272 0.99353 0.56179 0.0
H386 H 0.43971 0.99569 0.50091 0.0
H387 H 0.4469 0.90067 0.48347 0.0
H388 H 0.39688 0.01595 0.55538 0.0
H389 H 0.41381 0.01792 0.4945 0.0
C390 C 0.20183 0.25642 0.6465 0.0
C391 C 0.22104 0.25187 0.6417 0.0
C392 C 0.19815 0.26899 0.66228 0.0
C393 C 0.21359 0.27727 0.67369 0.0
C394 C 0.23279 0.27262 0.66897 0.0
C395 C 0.23647 0.26009 0.65316 0.0
C396 C 0.2097 0.2908 0.69037 0.0
C397 C 0.19386 0.28712 0.7029 0.0
C398 C 0.19001 0.29988 0.71863 0.0
C399 C 0.20233 0.31643 0.72187 0.0
C400 C 0.21825 0.32038 0.70949 0.0
C401 C 0.22176 0.30751 0.69376 0.0
C402 C 0.23115 0.338 0.71284 0.0
C403 C 0.22327 0.35593 0.71791 0.0
C404 C 0.25147 0.33706 0.71079 0.0
C405 C 0.2636 0.35366 0.71362 0.0
C406 C 0.25572 0.37161 0.71861 0.0
C407 C 0.17308 0.29588 0.73161 0.0
C408 C 0.15492 0.28965 0.72358 0.0
C409 C 0.17493 0.29818 0.75209 0.0
C410 C 0.159 0.29423 0.76426 0.0
C411 C 0.14084 0.28798 0.75622 0.0
C412 C 0.13899 0.28577 0.73574 0.0
C413 C 0.23541 0.37254 0.72077 0.0
H414 H 0.18958 0.25017 0.63813 0.0
H415 H 0.1832 0.27241 0.66537 0.0
H416 H 0.24501 0.27857 0.67759 0.0
H417 H 0.25146 0.25708 0.64975 0.0
H418 H 0.18473 0.27405 0.70069 0.0
H419 H 0.23364 0.31078 0.6838 0.0
H420 H 0.19948 0.32628 0.73402 0.0
H421 H 0.20767 0.35721 0.71942 0.0
H422 H 0.25803 0.32343 0.7071 0.0
H423 H 0.27915 0.35246 0.71163 0.0
H424 H 0.15299 0.28792 0.70785 0.0
H425 H 0.18877 0.30281 0.75872 0.0
H426 H 0.22888 0.38609 0.7248 0.0
H427 H 0.12526 0.2808 0.7291 0.0
H428 H 0.16085 0.29624 0.77997 0.0
C429 C 0.83906 0.24193 0.76452 0.0
C430 C 0.85087 0.22679 0.77021 0.0
C431 C 0.82382 0.23841 0.75107 0.0
C432 C 0.81999 0.21966 0.74312 0.0
C433 C 0.83166 0.20448 0.74896 0.0
C434 C 0.84698 0.20802 0.76231 0.0
C435 C 0.80404 0.21596 0.72856 0.0
C436 C 0.80162 0.22872 0.71301 0.0
C437 C 0.78688 0.22508 0.69889 0.0
C438 C 0.77442 0.20852 0.70049 0.0
C439 C 0.77641 0.19574 0.71612 0.0
C440 C 0.79133 0.19958 0.73005 0.0
C441 C 0.76277 0.17854 0.71803 0.0
C442 C 0.74282 0.17986 0.71362 0.0
C443 C 0.76952 0.16072 0.72444 0.0
C444 C 0.75663 0.14469 0.72652 0.0
C445 C 0.73673 0.14605 0.72206 0.0
C446 C 0.78456 0.23852 0.68239 0.0
C447 C 0.78506 0.25872 0.68581 0.0
C448 C 0.78171 0.23124 0.66314 0.0
C449 C 0.77942 0.24389 0.64762 0.0
C450 C 0.77978 0.26409 0.65104 0.0
C451 C 0.78262 0.27137 0.6703 0.0
C452 C 0.72997 0.16378 0.71552 0.0
H453 H 0.84181 0.25657 0.77023 0.0
H454 H 0.81497 0.25036 0.74695 0.0
H455 H 0.82914 0.18991 0.74296 0.0
H456 H 0.85573 0.19604 0.76654 0.0
H457 H 0.81158 0.24121 0.71158 0.0
H458 H 0.79279 0.19008 0.7424 0.0
H459 H 0.7631 0.20565 0.68955 0.0
H460 H 0.73702 0.19343 0.70901 0.0
H461 H 0.78483 0.15907 0.72766 0.0
H462 H 0.76228 0.13113 0.73137 0.0
H463 H 0.78709 0.26474 0.70052 0.0
H464 H 0.78143 0.21575 0.66004 0.0
H465 H 0.71466 0.16533 0.71224 0.0
H466 H 0.78312 0.28687 0.67336 0.0
H467 H 0.77709 0.23783 0.63296 0.0
C468 C 0.5308 0.58998 0.48325 0.0
C469 C 0.5261 0.60853 0.49031 0.0
C470 C 0.53444 0.57513 0.49628 0.0
C471 C 0.53345 0.57849 0.51666 0.0
C472 C 0.52894 0.59708 0.52371 0.0
C473 C 0.52532 0.61192 0.5107 0.0
C474 C 0.53691 0.56265 0.53056 0.0
C475 C 0.55228 0.55007 0.52754 0.0
C476 C 0.55574 0.53518 0.54076 0.0
C477 C 0.54358 0.533 0.55716 0.0
C478 C 0.52815 0.54545 0.56045 0.0
C479 C 0.5249 0.56016 0.547 0.0
C480 C 0.51552 0.54324 0.57799 0.0
C481 C 0.50942 0.52473 0.5844 0.0
C482 C 0.50953 0.5597 0.58853 0.0
C483 C 0.49773 0.55769 0.60505 0.0
C484 C 0.4917 0.53918 0.61152 0.0
C485 C 0.57216 0.52205 0.53754 0.0
C486 C 0.57643 0.51504 0.51859 0.0
C487 C 0.58371 0.51642 0.55338 0.0
C488 C 0.59912 0.50406 0.55036 0.0
C489 C 0.60341 0.49707 0.53141 0.0
C490 C 0.59188 0.50273 0.51556 0.0
C491 C 0.49767 0.52272 0.60098 0.0
H492 H 0.53128 0.58682 0.46764 0.0
H493 H 0.53766 0.5609 0.49039 0.0
H494 H 0.52839 0.60022 0.53933 0.0
H495 H 0.52211 0.62613 0.51664 0.0
H496 H 0.5619 0.55224 0.51517 0.0
H497 H 0.51271 0.56949 0.54911 0.0
H498 H 0.54617 0.52161 0.56746 0.0
H499 H 0.51358 0.51175 0.5765 0.0
H500 H 0.51413 0.57417 0.58415 0.0
H501 H 0.49321 0.5707 0.61266 0.0
H502 H 0.56772 0.51892 0.50608 0.0
H503 H 0.581 0.52173 0.56814 0.0
H504 H 0.49347 0.50823 0.60566 0.0
H505 H 0.59491 0.49782 0.50073 0.0
H506 H 0.60754 0.49984 0.56294 0.0
C507 C 0.4792 0.47672 0.91671 0.0
C508 C 0.48638 0.48266 0.89844 0.0
C509 C 0.49194 0.474 0.93238 0.0
C510 C 0.51218 0.4771 0.93012 0.0
C511 C 0.51934 0.48314 0.91186 0.0
C512 C 0.50658 0.48592 0.89621 0.0
C513 C 0.52577 0.47385 0.9467 0.0
C514 C 0.52269 0.45787 0.95892 0.0
C515 C 0.53541 0.45464 0.97463 0.0
C516 C 0.55156 0.46752 0.97789 0.0
C517 C 0.55497 0.48356 0.96579 0.0
C518 C 0.54191 0.48665 0.95031 0.0
C519 C 0.57214 0.4971 0.96932 0.0
C520 C 0.57806 0.50248 0.98852 0.0
C521 C 0.58279 0.50472 0.95348 0.0
C522 C 0.59891 0.51743 0.95676 0.0
C523 C 0.60489 0.52274 0.97597 0.0
C524 C 0.53174 0.43785 0.98766 0.0
C525 C 0.51267 0.43268 0.99357 0.0
C526 C 0.54723 0.4269 0.99432 0.0
C527 C 0.54371 0.41117 0.0066 0.0
C528 C 0.52463 0.40598 0.01241 0.0
C529 C 0.50915 0.4169 0.00576 0.0
C530 C 0.59427 0.51508 0.99181 0.0
H531 H 0.46368 0.47436 0.91897 0.0
H532 H 0.48591 0.46966 0.94634 0.0
H533 H 0.53486 0.48537 0.90953 0.0
H534 H 0.51258 0.49025 0.88223 0.0
H535 H 0.51058 0.44764 0.9559 0.0
H536 H 0.54405 0.49931 0.9413 0.0
H537 H 0.5615 0.46504 0.98989 0.0
H538 H 0.57007 0.49709 0.00107 0.0
H539 H 0.5788 0.50072 0.9385 0.0
H540 H 0.60657 0.52323 0.9442 0.0
H541 H 0.50044 0.441 0.98899 0.0
H542 H 0.56206 0.43029 0.98981 0.0
H543 H 0.59857 0.51865 0.0068 0.0
H544 H 0.49432 0.41344 0.01022 0.0
H545 H 0.55591 0.40287 0.0113 0.0
C546 C 0.64789 0.2124 0.25241 0.0
C547 C 0.64162 0.2311 0.24848 0.0
C548 C 0.66393 0.20994 0.26475 0.0
C549 C 0.6741 0.22614 0.27331 0.0
C550 C 0.66794 0.24483 0.26912 0.0
C551 C 0.65186 0.24728 0.25691 0.0
C552 C 0.69099 0.22362 0.28669 0.0
C553 C 0.70464 0.20942 0.28263 0.0
C554 C 0.72077 0.20723 0.29508 0.0
C555 C 0.72318 0.2195 0.31172 0.0
C556 C 0.70971 0.23376 0.31604 0.0
C557 C 0.6936 0.23561 0.30352 0.0
C558 C 0.71266 0.24696 0.33344 0.0
C559 C 0.71939 0.23987 0.35134 0.0
C560 C 0.70915 0.26686 0.33214 0.0
C561 C 0.71254 0.27941 0.34827 0.0
C562 C 0.71959 0.27237 0.36604 0.0
C563 C 0.73515 0.19218 0.29076 0.0
C564 C 0.72887 0.17335 0.2846 0.0
C565 C 0.75524 0.19642 0.29315 0.0
C566 C 0.76874 0.1821 0.28971 0.0
C567 C 0.76246 0.1632 0.28381 0.0
C568 C 0.74237 0.15902 0.28118 0.0
C569 C 0.72286 0.25245 0.36744 0.0
H570 H 0.64016 0.19965 0.24628 0.0
H571 H 0.66811 0.19533 0.26786 0.0
H572 H 0.67567 0.25764 0.27513 0.0
H573 H 0.64756 0.26188 0.25389 0.0
H574 H 0.70303 0.20039 0.26946 0.0
H575 H 0.68286 0.24621 0.3071 0.0
H576 H 0.73565 0.21797 0.3213 0.0
H577 H 0.72191 0.22457 0.35295 0.0
H578 H 0.70424 0.27285 0.3185 0.0
H579 H 0.71012 0.29473 0.34666 0.0
H580 H 0.71349 0.16958 0.28276 0.0
H581 H 0.76057 0.21085 0.29765 0.0
H582 H 0.72803 0.24655 0.38103 0.0
H583 H 0.73707 0.14466 0.27641 0.0
H584 H 0.78408 0.18576 0.29204 0.0
C585 C 0.47941 0.10776 0.00077 0.0
C586 C 0.47898 0.10525 0.02117 0.0
C587 C 0.47652 0.09183 0.98789 0.0
C588 C 0.473 0.07309 0.99515 0.0
C589 C 0.47255 0.07059 0.01556 0.0
C590 C 0.47558 0.08648 0.02843 0.0
C591 C 0.46972 0.0562 0.9815 0.0
C592 C 0.48173 0.0538 0.96511 0.0
C593 C 0.47876 0.03781 0.95214 0.0
C594 C 0.46352 0.02412 0.95578 0.0
C595 C 0.45132 0.02631 0.97212 0.0
C596 C 0.45455 0.04243 0.98487 0.0
C597 C 0.43508 0.01193 0.97585 0.0
C598 C 0.42349 0.00411 0.96031 0.0
C599 C 0.43083 0.00617 0.99508 0.0
C600 C 0.41521 0.99314 0.99871 0.0
C601 C 0.40351 0.98544 0.9832 0.0
C602 C 0.49167 0.0354 0.93488 0.0
C603 C 0.49758 0.05153 0.92377 0.0
C604 C 0.49834 0.01703 0.92948 0.0
C605 C 0.51069 0.01485 0.91342 0.0
C606 C 0.51669 0.03101 0.90237 0.0
C607 C 0.50995 0.04937 0.90773 0.0
C608 C 0.40792 0.99099 0.96394 0.0
H609 H 0.48217 0.12202 0.99475 0.0
H610 H 0.4768 0.09422 0.97224 0.0
H611 H 0.47003 0.05629 0.02158 0.0
H612 H 0.475 0.08412 0.04407 0.0
H613 H 0.49374 0.06415 0.96274 0.0
H614 H 0.44491 0.04457 0.9972 0.0
H615 H 0.46114 0.01175 0.94587 0.0
H616 H 0.42623 0.00836 0.94535 0.0
H617 H 0.4396 0.01171 0.00737 0.0
H618 H 0.41213 0.98938 0.01375 0.0
H619 H 0.49254 0.06586 0.92738 0.0
H620 H 0.49424 0.00433 0.93784 0.0
H621 H 0.39938 0.98517 0.95161 0.0
H622 H 0.51444 0.06216 0.89969 0.0
H623 H 0.51542 0.00047 0.90957 0.0
C624 C 0.21459 0.909 0.00684 0.0
O625 O 0.22029 0.90579 0.98873 0.0
O626 O 0.23969 0.86784 0.99058 0.0
Zn627 Zn 0.24628 0.88448 0.01477 0.0
O628 O 0.27001 0.90199 0.01011 0.0
C629 C 0.25194 0.84902 0.036 0.0
O630 O 0.24896 0.84085 0.0186 0.0
O631 O 0.22359 0.90125 0.02082 0.0
C632 C 0.28718 0.89615 0.01247 0.0
O633 O 0.28954 0.87825 0.01803 0.0
C634 C 0.25139 0.8656 0.97639 0.0
O635 O 0.26858 0.87468 0.977 0.0
O636 O 0.25139 0.86739 0.03789 0.0
C637 C 0.15354 0.46927 0.27404 0.0
O638 O 0.15124 0.48081 0.28936 0.0
O639 O 0.11165 0.50017 0.27843 0.0
Zn640 Zn 0.12969 0.49717 0.25538 0.0
O641 O 0.14804 0.52056 0.25355 0.0
C642 C 0.10165 0.48072 0.2275 0.0
O643 O 0.10048 0.46675 0.24031 0.0
O644 O 0.14544 0.47322 0.25787 0.0
C645 C 0.14159 0.53694 0.24913 0.0
O646 O 0.12278 0.5384 0.24608 0.0
C647 C 0.11623 0.51062 0.29348 0.0
O648 O 0.13346 0.51963 0.29434 0.0
O649 O 0.1134 0.49515 0.23076 0.0
C650 C 0.79539 0.60635 0.99212 0.0
O651 O 0.79086 0.60963 0.97377 0.0
O652 O 0.76703 0.64483 0.9753 0.0
Zn653 Zn 0.76161 0.62893 0.99945 0.0
O654 O 0.73835 0.61049 0.99476 0.0
C655 C 0.75882 0.66493 0.02221 0.0
O656 O 0.76587 0.6729 0.00628 0.0
O657 O 0.78496 0.61329 0.00572 0.0
C658 C 0.72126 0.61528 0.99947 0.0
O659 O 0.71878 0.63256 0.00735 0.0
C660 C 0.75329 0.65119 0.96497 0.0
O661 O 0.73515 0.64709 0.96992 0.0
O662 O 0.75612 0.64659 0.02263 0.0
C663 C 0.85915 0.05771 0.26434 0.0
O664 O 0.87793 0.06113 0.26723 0.0
O665 O 0.88637 0.01466 0.28052 0.0
Zn666 Zn 0.87015 0.01794 0.25606 0.0
O667 O 0.85247 0.99422 0.25144 0.0
C668 C 0.90547 0.02716 0.23438 0.0
O669 O 0.91281 0.03066 0.252 0.0
O670 O 0.85294 0.04065 0.25953 0.0
C671 C 0.85687 0.98013 0.24021 0.0
O672 O 0.87376 0.98071 0.23123 0.0
C673 C 0.8958 0.99932 0.2826 0.0
O674 O 0.89457 0.98571 0.26882 0.0
O675 O 0.88758 0.02187 0.23257 0.0
C676 C 0.29524 0.10936 0.49486 0.0
O677 O 0.29132 0.11341 0.47655 0.0
O678 O 0.26611 0.14874 0.47917 0.0
Zn679 Zn 0.26108 0.13171 0.50252 0.0
O680 O 0.23798 0.11342 0.49712 0.0
C681 C 0.25009 0.16603 0.5242 0.0
O682 O 0.24852 0.17297 0.50649 0.0
O683 O 0.28447 0.11585 0.50841 0.0
C684 C 0.22102 0.11975 0.49465 0.0
O685 O 0.21867 0.13858 0.49546 0.0
C686 C 0.26187 0.14353 0.46162 0.0
O687 O 0.25431 0.12599 0.45804 0.0
O688 O 0.25528 0.14866 0.52618 0.0
C689 C 0.34622 0.543 0.77335 0.0
O690 O 0.34677 0.52966 0.78681 0.0
O691 O 0.38944 0.51479 0.77889 0.0
Zn692 Zn 0.37278 0.51769 0.75478 0.0
O693 O 0.35488 0.49401 0.7514 0.0
C694 C 0.4077 0.52588 0.73231 0.0
O695 O 0.41526 0.52977 0.74977 0.0
O696 O 0.35647 0.54113 0.75802 0.0
C697 C 0.34494 0.4912 0.73575 0.0
O698 O 0.34654 0.50396 0.72174 0.0
C699 C 0.39673 0.49854 0.78235 0.0
O700 O 0.39307 0.48383 0.77013 0.0
O701 O 0.38979 0.52054 0.73086 0.0
C702 C 0.71639 0.41011 0.50742 0.0
O703 O 0.72209 0.40659 0.48937 0.0
O704 O 0.74171 0.36929 0.49159 0.0
Zn705 Zn 0.74831 0.38606 0.51569 0.0
O706 O 0.77197 0.40368 0.51104 0.0
C707 C 0.7567 0.35109 0.53641 0.0
O708 O 0.75696 0.34363 0.51853 0.0
O709 O 0.72551 0.40275 0.52156 0.0
C710 C 0.78924 0.398 0.51318 0.0
O711 O 0.79186 0.38007 0.51849 0.0
C712 C 0.75371 0.36625 0.47782 0.0
O713 O 0.77126 0.37453 0.47882 0.0
O714 O 0.7533 0.36899 0.53885 0.0
C715 C 0.66143 0.97421 0.76323 0.0
O716 O 0.66963 0.99176 0.76427 0.0
O717 O 0.61063 0.99977 0.77998 0.0
Zn718 Zn 0.62672 0.99548 0.75565 0.0
O719 O 0.64458 0.019 0.75054 0.0
C720 C 0.59315 0.99876 0.73008 0.0
O721 O 0.58843 0.01205 0.74311 0.0
O722 O 0.64322 0.97221 0.75977 0.0
C723 C 0.64043 0.03302 0.73964 0.0
O724 O 0.62333 0.03293 0.73092 0.0
C725 C 0.60651 0.01656 0.78643 0.0
O726 O 0.61309 0.03196 0.77714 0.0
O727 O 0.60878 0.98975 0.73243 0.0
C728 C 0.00326 0.22715 0.91261 0.0
O729 O 0.99382 0.2417 0.92018 0.0
O730 O 0.97886 0.24544 0.86291 0.0
Zn731 Zn 0.00358 0.25133 0.87866 0.0
O732 O 0.00052 0.2747 0.89657 0.0
C733 C 0.0248 0.25605 0.84206 0.0
O734 O 0.00777 0.25141 0.834 0.0
O735 O 0.009 0.228 0.89494 0.0
C736 C 0.00358 0.29196 0.89078 0.0
O737 O 0.00882 0.2948 0.87252 0.0
C738 C 0.96588 0.25779 0.86021 0.0
O739 O 0.96823 0.27526 0.86812 0.0
O740 O 0.02637 0.25672 0.86066 0.0
C741 C 0.49764 0.71884 0.40047 0.0
O742 O 0.47956 0.72369 0.39752 0.0
O743 O 0.48259 0.74917 0.36051 0.0
Zn744 Zn 0.50656 0.75316 0.37771 0.0
O745 O 0.50301 0.7757 0.39642 0.0
C746 C 0.52973 0.75403 0.34254 0.0
O747 O 0.51426 0.74465 0.33513 0.0
O748 O 0.51147 0.72917 0.39323 0.0
C749 C 0.49988 0.79244 0.38991 0.0
O750 O 0.49904 0.79478 0.37084 0.0
C751 C 0.46548 0.75308 0.36594 0.0
O752 O 0.46273 0.75982 0.38384 0.0
O753 O 0.52986 0.75911 0.36058 0.0
C754 C 0.99698 0.79523 0.60037 0.0
O755 O 0.97881 0.78935 0.60327 0.0
O756 O 0.98205 0.76761 0.64287 0.0
Zn757 Zn 0.00469 0.76271 0.62488 0.0
O758 O 0.99826 0.73945 0.60729 0.0
C759 C 0.02608 0.74917 0.65791 0.0
O760 O 0.00842 0.74415 0.66377 0.0
O761 O 0.01062 0.78611 0.60825 0.0
C762 C 0.01167 0.72891 0.60081 0.0
O763 O 0.02987 0.73341 0.60567 0.0
C764 C 0.96451 0.7627 0.63837 0.0
O765 O 0.96064 0.75453 0.62113 0.0
O766 O 0.02822 0.75743 0.64152 0.0
C767 C 0.49674 0.2925 0.10093 0.0
O768 O 0.47867 0.28608 0.10348 0.0
O769 O 0.4803 0.26617 0.14228 0.0
Zn770 Zn 0.50419 0.26082 0.12603 0.0
O771 O 0.49961 0.23745 0.10809 0.0
C772 C 0.5249 0.25232 0.16182 0.0
O773 O 0.50723 0.2514 0.16913 0.0
O774 O 0.51048 0.28397 0.10934 0.0
C775 C 0.49969 0.22026 0.11448 0.0
O776 O 0.50249 0.21766 0.13331 0.0
C777 C 0.46444 0.25599 0.14122 0.0
O778 O 0.46298 0.24118 0.12879 0.0
O779 O 0.52713 0.2562 0.1438 0.0
H780 H 0.23757 0.80729 0.86231 0.0
H781 H 0.20811 0.7687 0.90267 0.0
H782 H 0.24469 0.83046 0.88911 0.0
H783 H 0.216 0.79151 0.92965 0.0
H784 H 0.21674 0.84534 0.96994 0.0
H785 H 0.2081 0.82325 0.94256 0.0
H786 H 0.26534 0.83359 0.91787 0.0
H787 H 0.27381 0.85598 0.94496 0.0
C788 C 0.23254 0.80378 0.87689 0.0
C789 C 0.22225 0.78613 0.88033 0.0
C790 C 0.23683 0.81696 0.8923 0.0
C791 C 0.23098 0.81282 0.91155 0.0
C792 C 0.22056 0.79525 0.91497 0.0
C793 C 0.21624 0.78206 0.89954 0.0
C794 C 0.22745 0.84295 0.95863 0.0
C795 C 0.24596 0.85244 0.95963 0.0
C796 C 0.22254 0.8302 0.94299 0.0
C797 C 0.23603 0.82663 0.92802 0.0
C798 C 0.2545 0.83621 0.929 0.0
C799 C 0.2594 0.84898 0.9446 0.0
H800 H 0.04796 0.55489 0.39014 0.0
H801 H 0.02303 0.49706 0.3792 0.0
H802 H 0.07105 0.55016 0.36371 0.0
H803 H 0.04687 0.49193 0.35345 0.0
H804 H 0.07811 0.4975 0.29456 0.0
H805 H 0.05478 0.50196 0.3209 0.0
H806 H 0.09943 0.5327 0.35569 0.0
H807 H 0.12258 0.52875 0.32911 0.0
C808 C 0.04738 0.54116 0.38209 0.0
C809 C 0.03355 0.52639 0.38677 0.0
C810 C 0.06083 0.53834 0.3671 0.0
C811 C 0.06089 0.52064 0.35646 0.0
C812 C 0.04711 0.50583 0.36118 0.0
C813 C 0.03359 0.50868 0.37613 0.0
C814 C 0.08296 0.50519 0.30785 0.0
C815 C 0.1022 0.51283 0.30971 0.0
C816 C 0.0696 0.50765 0.32301 0.0
C817 C 0.07519 0.51771 0.34044 0.0
C818 C 0.09452 0.52515 0.34236 0.0
C819 C 0.10784 0.52279 0.32715 0.0
H820 H 0.75236 0.74343 0.88063 0.0
H821 H 0.80095 0.70961 0.8623 0.0
H822 H 0.74598 0.72128 0.90742 0.0
H823 H 0.79453 0.68737 0.88912 0.0
H824 H 0.78903 0.66421 0.95187 0.0
H825 H 0.79591 0.68601 0.92481 0.0
H826 H 0.73419 0.68817 0.91264 0.0
H827 H 0.72729 0.66674 0.93988 0.0
C828 C 0.76158 0.73116 0.88222 0.0
C829 C 0.77712 0.72825 0.86929 0.0
C830 C 0.75792 0.71845 0.89757 0.0
C831 C 0.7697 0.7025 0.90036 0.0
C832 C 0.78533 0.69965 0.88752 0.0
C833 C 0.78901 0.71239 0.87215 0.0
C834 C 0.77694 0.6693 0.94339 0.0
C835 C 0.7576 0.66379 0.94809 0.0
C836 C 0.78089 0.68172 0.92781 0.0
C837 C 0.7656 0.6889 0.91661 0.0
C838 C 0.74629 0.68316 0.92117 0.0
C839 C 0.74234 0.67077 0.93673 0.0
H840 H 0.95175 0.00141 0.39797 0.0
H841 H 0.9916 0.97235 0.35951 0.0
H842 H 0.92923 0.00475 0.37055 0.0
H843 H 0.96952 0.97645 0.33196 0.0
H844 H 0.91656 0.9678 0.2919 0.0
H845 H 0.93816 0.96417 0.3199 0.0
H846 H 0.92604 0.02224 0.34023 0.0
H847 H 0.90404 0.02573 0.3124 0.0
C848 C 0.95571 0.99572 0.38367 0.0
C849 C 0.97347 0.98657 0.38095 0.0
C850 C 0.9429 0.99785 0.36791 0.0
C851 C 0.94756 0.99086 0.34905 0.0
C852 C 0.96536 0.98178 0.34633 0.0
C853 C 0.97815 0.97965 0.36208 0.0
C854 C 0.91844 0.97979 0.30236 0.0
C855 C 0.90858 0.99706 0.2999 0.0
C856 C 0.93093 0.97775 0.31836 0.0
C857 C 0.93392 0.99295 0.33227 0.0
C858 C 0.92391 0.01017 0.32991 0.0
C859 C 0.91137 0.0122 0.3139 0.0
H860 H 0.24793 0.22358 0.6391 0.0
H861 H 0.20311 0.25058 0.60569 0.0
H862 H 0.25508 0.20293 0.6108 0.0
H863 H 0.2096 0.22929 0.57774 0.0
H864 H 0.24126 0.20429 0.52497 0.0
H865 H 0.2343 0.22469 0.55344 0.0
H866 H 0.24166 0.17594 0.59125 0.0
H867 H 0.24915 0.15562 0.56276 0.0
C868 C 0.23959 0.2251 0.62573 0.0
C869 C 0.22499 0.23879 0.62466 0.0
C870 C 0.24352 0.21308 0.60958 0.0
C871 C 0.23293 0.21445 0.59198 0.0
C872 C 0.21821 0.22802 0.59098 0.0
C873 C 0.21431 0.24006 0.6071 0.0
C874 C 0.2414 0.1979 0.53935 0.0
C875 C 0.24577 0.17832 0.54159 0.0
C876 C 0.23729 0.20958 0.55568 0.0
C877 C 0.23735 0.20195 0.57464 0.0
C878 C 0.24172 0.18235 0.57688 0.0
C879 C 0.24591 0.17067 0.56054 0.0
H880 H 0.46101 0.51324 0.61729 0.0
H881 H 0.49431 0.56038 0.64595 0.0
H882 H 0.44104 0.50959 0.6465 0.0
H883 H 0.47371 0.5574 0.67473 0.0
H884 H 0.447 0.53346 0.73061 0.0
H885 H 0.46723 0.53622 0.70151 0.0
H886 H 0.41625 0.52561 0.66473 0.0
H887 H 0.39608 0.52228 0.69388 0.0
C888 C 0.46409 0.52282 0.62981 0.0
C889 C 0.4793 0.53709 0.62925 0.0
C890 C 0.45247 0.52089 0.64649 0.0
C891 C 0.45573 0.53322 0.66298 0.0
C892 C 0.47092 0.5475 0.6624 0.0
C893 C 0.48258 0.54938 0.64576 0.0
C894 C 0.4401 0.5317 0.71632 0.0
C895 C 0.41992 0.52766 0.71457 0.0
C896 C 0.45169 0.5334 0.69961 0.0
C897 C 0.44338 0.5312 0.68075 0.0
C898 C 0.42318 0.52713 0.67902 0.0
C899 C 0.41159 0.52534 0.69574 0.0
H900 H 0.75694 0.29566 0.65006 0.0
H901 H 0.79649 0.2627 0.6148 0.0
H902 H 0.75164 0.31699 0.62258 0.0
H903 H 0.79149 0.28416 0.58742 0.0
H904 H 0.761 0.31191 0.53624 0.0
H905 H 0.76677 0.29138 0.56408 0.0
H906 H 0.76708 0.34176 0.60296 0.0
H907 H 0.76073 0.36227 0.57509 0.0
C908 C 0.76468 0.29313 0.6365 0.0
C909 C 0.77707 0.27746 0.63455 0.0
C910 C 0.76168 0.30537 0.62076 0.0
C911 C 0.77108 0.30226 0.60274 0.0
C912 C 0.78371 0.28676 0.60094 0.0
C913 C 0.78662 0.27447 0.61664 0.0
C914 C 0.7623 0.31863 0.55072 0.0
C915 C 0.76038 0.33873 0.55343 0.0
C916 C 0.76574 0.30686 0.56669 0.0
C917 C 0.76747 0.3149 0.58578 0.0
C918 C 0.76558 0.33504 0.5885 0.0
C919 C 0.76204 0.34682 0.5725 0.0
H920 H 0.51234 0.95333 0.63992 0.0
H921 H 0.53759 0.00615 0.61627 0.0
H922 H 0.53241 0.95836 0.66965 0.0
H923 H 0.55733 0.01138 0.64616 0.0
H924 H 0.56745 0.023 0.71384 0.0
H925 H 0.54782 0.01734 0.68404 0.0
H926 H 0.57134 0.96053 0.67673 0.0
H927 H 0.59139 0.96629 0.70632 0.0
C928 C 0.52215 0.96602 0.64116 0.0
C929 C 0.52349 0.97936 0.62589 0.0
C930 C 0.53365 0.96883 0.65806 0.0
C931 C 0.54633 0.98526 0.66012 0.0
C932 C 0.54758 0.99866 0.6449 0.0
C933 C 0.5364 0.99563 0.62783 0.0
C934 C 0.56841 0.00928 0.7059 0.0
C935 C 0.58095 0.99508 0.71238 0.0
C936 C 0.55726 0.00612 0.68884 0.0
C937 C 0.55813 0.98853 0.67818 0.0
C938 C 0.5704 0.97418 0.68479 0.0
C939 C 0.58189 0.97751 0.70163 0.0
H940 H 0.88789 0.2139 0.76741 0.0
H941 H 0.85114 0.24844 0.80428 0.0
H942 H 0.91531 0.22096 0.78966 0.0
H943 H 0.87847 0.25531 0.82675 0.0
H944 H 0.93691 0.28151 0.84944 0.0
H945 H 0.90902 0.27359 0.82814 0.0
H946 H 0.92746 0.21455 0.82196 0.0
H947 H 0.95569 0.22263 0.84285 0.0
C948 C 0.88562 0.2228 0.78042 0.0
C949 C 0.86738 0.23065 0.78409 0.0
C950 C 0.90132 0.22683 0.7932 0.0
C951 C 0.89912 0.23872 0.81 0.0
C952 C 0.88078 0.24637 0.81377 0.0
C953 C 0.86511 0.24242 0.80093 0.0
C954 C 0.93501 0.26683 0.84358 0.0
C955 C 0.94857 0.25272 0.8478 0.0
C956 C 0.91893 0.26224 0.83145 0.0
C957 C 0.91598 0.24342 0.82332 0.0
C958 C 0.92943 0.22926 0.82774 0.0
C959 C 0.94556 0.23386 0.83982 0.0
H960 H 0.50617 0.87737 0.48637 0.0
H961 H 0.45856 0.89522 0.45009 0.0
H962 H 0.51182 0.85062 0.46336 0.0
H963 H 0.46378 0.86809 0.42744 0.0
H964 H 0.49223 0.82985 0.38084 0.0
H965 H 0.4875 0.85714 0.40344 0.0
H966 H 0.496 0.81977 0.45259 0.0
H967 H 0.50105 0.79256 0.43002 0.0
C968 C 0.49696 0.87562 0.47345 0.0
C969 C 0.48192 0.88843 0.47006 0.0
C970 C 0.50005 0.86017 0.46038 0.0
C971 C 0.48822 0.85719 0.44359 0.0
C972 C 0.47327 0.87008 0.44014 0.0
C973 C 0.47014 0.8855 0.45323 0.0
C974 C 0.49312 0.82745 0.39646 0.0
C975 C 0.49703 0.80902 0.40362 0.0
C976 C 0.4903 0.84307 0.40941 0.0
C977 C 0.49137 0.84063 0.42981 0.0
C978 C 0.49533 0.8222 0.43696 0.0
C979 C 0.49811 0.80657 0.42401 0.0
H980 H 0.14043 0.26836 0.7907 0.0
H981 H 0.10299 0.29779 0.75088 0.0
H982 H 0.1125 0.26068 0.81152 0.0
H983 H 0.07509 0.29023 0.77173 0.0
H984 H 0.02666 0.25492 0.80202 0.0
H985 H 0.05476 0.26264 0.78153 0.0
H986 H 0.08965 0.27589 0.83342 0.0
H987 H 0.06165 0.26777 0.85395 0.0
C988 C 0.12627 0.27337 0.78651 0.0
C989 C 0.12392 0.28365 0.76912 0.0
C990 C 0.11026 0.26897 0.79844 0.0
C991 C 0.09154 0.2748 0.79328 0.0
C992 C 0.08924 0.28523 0.77596 0.0
C993 C 0.10523 0.28958 0.76402 0.0
C994 C 0.04033 0.25946 0.80908 0.0
C995 C 0.04191 0.2607 0.82963 0.0
C996 C 0.05641 0.264 0.79732 0.0
C997 C 0.07445 0.26993 0.80583 0.0
C998 C 0.07604 0.27114 0.82639 0.0
C999 C 0.05995 0.26658 0.83816 0.0
H1000 H 0.54501 0.61771 0.45622 0.0
H1001 H 0.49751 0.63494 0.49319 0.0
H1002 H 0.53789 0.64356 0.43364 0.0
H1003 H 0.49091 0.66121 0.47109 0.0
H1004 H 0.47146 0.69367 0.41761 0.0
H1005 H 0.47827 0.66648 0.43849 0.0
H1006 H 0.54011 0.67884 0.43222 0.0
H1007 H 0.53332 0.70581 0.41098 0.0
C1008 C 0.53303 0.62698 0.45951 0.0
C1009 C 0.52185 0.62427 0.47652 0.0
C1010 C 0.52908 0.64192 0.44668 0.0
C1011 C 0.51384 0.65447 0.45056 0.0
C1012 C 0.50262 0.65168 0.46753 0.0
C1013 C 0.50656 0.63677 0.48034 0.0
C1014 C 0.48652 0.69056 0.42061 0.0
C1015 C 0.50184 0.70196 0.41266 0.0
C1016 C 0.49042 0.67503 0.43268 0.0
C1017 C 0.50973 0.67054 0.43712 0.0
C1018 C 0.52507 0.68177 0.42893 0.0
C1019 C 0.52117 0.6973 0.41684 0.0
H1020 H 0.85611 0.75753 0.70399 0.0
H1021 H 0.89205 0.80075 0.7354 0.0
H1022 H 0.88235 0.75268 0.68066 0.0
H1023 H 0.91811 0.79655 0.7117 0.0
H1024 H 0.96794 0.77071 0.67765 0.0
H1025 H 0.94189 0.77509 0.7012 0.0
H1026 H 0.89923 0.76714 0.65447 0.0
H1027 H 0.92531 0.76189 0.63113 0.0
C1028 C 0.8696 0.76613 0.70575 0.0
C1029 C 0.87209 0.77949 0.72148 0.0
C1030 C 0.88462 0.76344 0.69234 0.0
C1031 C 0.9024 0.77426 0.6942 0.0
C1032 C 0.90479 0.7877 0.70996 0.0
C1033 C 0.88985 0.79018 0.72352 0.0
C1034 C 0.95299 0.76992 0.67242 0.0
C1035 C 0.94868 0.76592 0.65254 0.0
C1036 C 0.93802 0.77255 0.68591 0.0
C1037 C 0.91837 0.77149 0.6798 0.0
C1038 C 0.91413 0.76769 0.65983 0.0
C1039 C 0.9291 0.76481 0.64639 0.0
H1040 H 0.04583 0.89955 0.5457 0.0
H1041 H 0.99645 0.88137 0.50928 0.0
H1042 H 0.03919 0.87205 0.56698 0.0
H1043 H 0.98992 0.85379 0.53036 0.0
H1044 H 0.97119 0.8191 0.58351 0.0
H1045 H 0.97833 0.84675 0.56275 0.0
H1046 H 0.03996 0.83702 0.5677 0.0
H1047 H 0.03283 0.80961 0.58892 0.0
C1048 C 0.03367 0.88957 0.54214 0.0
C1049 C 0.02162 0.89268 0.52586 0.0
C1050 C 0.02987 0.8738 0.55431 0.0
C1051 C 0.01397 0.86074 0.55043 0.0
C1052 C 0.00205 0.86377 0.53401 0.0
C1053 C 0.00581 0.87956 0.5219 0.0
C1054 C 0.98627 0.82286 0.5802 0.0
C1055 C 0.00144 0.81213 0.58786 0.0
C1056 C 0.99036 0.83866 0.56819 0.0
C1057 C 0.00972 0.84407 0.56347 0.0
C1058 C 0.0249 0.8334 0.57122 0.0
C1059 C 0.02081 0.81761 0.58331 0.0
H1060 H 0.10712 0.70644 0.74412 0.0
H1061 H 0.1387 0.75434 0.71722 0.0
H1062 H 0.07972 0.71077 0.7221 0.0
H1063 H 0.1108 0.75946 0.69606 0.0
H1064 H 0.06466 0.75227 0.64808 0.0
H1065 H 0.09277 0.74618 0.66874 0.0
H1066 H 0.05423 0.73233 0.71684 0.0
H1067 H 0.02618 0.73773 0.69598 0.0
C1068 C 0.10827 0.71787 0.73348 0.0
C1069 C 0.12517 0.73003 0.73249 0.0
C1070 C 0.09241 0.72054 0.72102 0.0
C1071 C 0.09296 0.73554 0.70734 0.0
C1072 C 0.10991 0.74762 0.70625 0.0
C1073 C 0.12583 0.74486 0.71861 0.0
C1074 C 0.06221 0.74789 0.66306 0.0
C1075 C 0.04319 0.74548 0.67039 0.0
C1076 C 0.07833 0.74449 0.67495 0.0
C1077 C 0.07581 0.73878 0.6945 0.0
C1078 C 0.05675 0.73638 0.70178 0.0
C1079 C 0.04064 0.7396 0.68984 0.0
H1080 H 0.96667 0.64737 0.51059 0.0
H1081 H 0.00294 0.61333 0.54745 0.0
H1082 H 0.97439 0.67609 0.53126 0.0
H1083 H 0.01028 0.64189 0.56835 0.0
H1084 H 0.03647 0.70181 0.58704 0.0
H1085 H 0.02859 0.67339 0.56616 0.0
H1086 H 0.96812 0.68847 0.565 0.0
H1087 H 0.97599 0.71705 0.58576 0.0
C1088 C 0.9763 0.64604 0.5231 0.0
C1089 C 0.9842 0.6281 0.52739 0.0
C1090 C 0.98057 0.66242 0.53503 0.0
C1091 C 0.99295 0.66125 0.55142 0.0
C1092 C 0.00084 0.6433 0.55572 0.0
C1093 C 0.99647 0.6269 0.54387 0.0
C1094 C 0.02149 0.6991 0.58233 0.0
C1095 C 0.00686 0.7117 0.58807 0.0
C1096 C 0.01696 0.68275 0.57045 0.0
C1097 C 0.99773 0.67868 0.56397 0.0
C1098 C 0.98311 0.69133 0.56961 0.0
C1099 C 0.98761 0.70764 0.58159 0.0
H1100 H 0.76449 0.8905 0.25057 0.0
H1101 H 0.79112 0.87825 0.1947 0.0
H1102 H 0.78744 0.91808 0.25593 0.0
H1103 H 0.81369 0.90615 0.19965 0.0
H1104 H 0.86394 0.94493 0.22311 0.0
H1105 H 0.84121 0.91716 0.21843 0.0
H1106 H 0.79555 0.94985 0.24526 0.0
H1107 H 0.81851 0.97731 0.25062 0.0
C1108 C 0.77514 0.89387 0.23935 0.0
C1109 C 0.77609 0.88223 0.22226 0.0
C1110 C 0.78826 0.90971 0.24236 0.0
C1111 C 0.80248 0.91438 0.22824 0.0
C1112 C 0.80323 0.90279 0.21103 0.0
C1113 C 0.79025 0.88684 0.20814 0.0
C1114 C 0.84905 0.94617 0.22802 0.0
C1115 C 0.84303 0.9633 0.23725 0.0
C1116 C 0.83596 0.93027 0.22523 0.0
C1117 C 0.81648 0.93123 0.23141 0.0
C1118 C 0.81049 0.94844 0.2406 0.0
C1119 C 0.82364 0.96425 0.24358 0.0
H1120 H 0.75933 0.12531 0.29491 0.0
H1121 H 0.79805 0.16632 0.26587 0.0
H1122 H 0.78284 0.1001 0.29011 0.0
H1123 H 0.82161 0.14107 0.26108 0.0
H1124 H 0.86707 0.09579 0.27503 0.0
H1125 H 0.84384 0.12138 0.27975 0.0
H1126 H 0.79654 0.08078 0.26371 0.0
H1127 H 0.81962 0.05518 0.25935 0.0
C1128 C 0.77278 0.1289 0.28732 0.0
C1129 C 0.77678 0.14782 0.28072 0.0
C1130 C 0.78627 0.11445 0.28458 0.0
C1131 C 0.80409 0.11857 0.27518 0.0
C1132 C 0.80813 0.1375 0.26862 0.0
C1133 C 0.79463 0.15196 0.27135 0.0
C1134 C 0.85172 0.09233 0.27251 0.0
C1135 C 0.84521 0.07342 0.26687 0.0
C1136 C 0.83842 0.10702 0.2751 0.0
C1137 C 0.81833 0.1031 0.27215 0.0
C1138 C 0.81187 0.08422 0.26639 0.0
C1139 C 0.82514 0.06956 0.26378 0.0
H1140 H 0.36745 0.98411 0.96562 0.0
H1141 H 0.40121 0.95616 0.00981 0.0
H1142 H 0.33972 0.96217 0.97226 0.0
H1143 H 0.37313 0.93493 0.01721 0.0
H1144 H 0.32555 0.88694 0.01159 0.0
H1145 H 0.35365 0.90813 0.00403 0.0
H1146 H 0.31568 0.95606 0.99688 0.0
H1147 H 0.28754 0.93472 0.00385 0.0
C1148 C 0.36899 0.97325 0.97672 0.0
C1149 C 0.3866 0.97192 0.98716 0.0
C1150 C 0.35298 0.96084 0.98072 0.0
C1151 C 0.35413 0.94682 0.99534 0.0
C1152 C 0.37177 0.94541 0.00571 0.0
C1153 C 0.38781 0.95777 0.00164 0.0
C1154 C 0.3232 0.902 0.00842 0.0
C1155 C 0.3043 0.90913 0.0083 0.0
C1156 C 0.33933 0.91419 0.00417 0.0
C1157 C 0.33696 0.93382 0.99983 0.0
C1158 C 0.31804 0.94095 0.99984 0.0
C1159 C 0.3019 0.92874 0.00397 0.0
H1160 H 0.2127 0.3658 0.30889 0.0
H1161 H 0.24145 0.38364 0.25565 0.0
H1162 H 0.19074 0.39263 0.30626 0.0
H1163 H 0.2198 0.41077 0.25328 0.0
H1164 H 0.16397 0.44423 0.24456 0.0
H1165 H 0.18503 0.41666 0.24692 0.0
H1166 H 0.19242 0.42839 0.30907 0.0
H1167 H 0.17123 0.45581 0.30679 0.0
C1168 C 0.21429 0.37542 0.2966 0.0
C1169 C 0.2288 0.37259 0.28247 0.0
C1170 C 0.20184 0.39089 0.29519 0.0
C1171 C 0.20354 0.40383 0.27957 0.0
C1172 C 0.218 0.40095 0.26539 0.0
C1173 C 0.23053 0.38554 0.26686 0.0
C1174 C 0.17003 0.4409 0.25874 0.0
C1175 C 0.16593 0.45224 0.27548 0.0
C1176 C 0.18219 0.42517 0.26006 0.0
C1177 C 0.19042 0.42037 0.27817 0.0
C1178 C 0.18614 0.43159 0.29494 0.0
C1179 C 0.17407 0.44737 0.2936 0.0
H1180 H 0.14127 0.02469 0.45663 0.0
H1181 H 0.10795 0.0585 0.49755 0.0
H1182 H 0.16906 0.04756 0.46116 0.0
H1183 H 0.13596 0.08101 0.50257 0.0
H1184 H 0.18273 0.12838 0.49012 0.0
H1185 H 0.15485 0.10579 0.48478 0.0
H1186 H 0.1931 0.05756 0.48639 0.0
H1187 H 0.22103 0.08013 0.49141 0.0
C1188 C 0.13987 0.03702 0.46657 0.0
C1189 C 0.12239 0.03979 0.47672 0.0
C1190 C 0.15586 0.05001 0.46932 0.0
C1191 C 0.15473 0.06609 0.48223 0.0
C1192 C 0.13724 0.06887 0.49237 0.0
C1193 C 0.12126 0.05585 0.48966 0.0
C1194 C 0.18521 0.11296 0.48929 0.0
C1195 C 0.20411 0.10606 0.4912 0.0
C1196 C 0.16921 0.10001 0.48635 0.0
C1197 C 0.17175 0.07988 0.4852 0.0
C1198 C 0.19067 0.07299 0.48699 0.0
C1199 C 0.20667 0.08593 0.48997 0.0
H1200 H 0.70856 0.1323 0.69635 0.0
H1201 H 0.73389 0.12163 0.75302 0.0
H1202 H 0.68568 0.10469 0.70028 0.0
H1203 H 0.71071 0.09432 0.75728 0.0
H1204 H 0.67884 0.03533 0.75067 0.0
H1205 H 0.70241 0.06217 0.74592 0.0
H1206 H 0.65766 0.09485 0.7184 0.0
H1207 H 0.63433 0.06774 0.72251 0.0
C1208 C 0.70911 0.12411 0.70972 0.0
C1209 C 0.72299 0.12911 0.72438 0.0
C1210 C 0.69596 0.10833 0.71203 0.0
C1211 C 0.69627 0.09728 0.72914 0.0
C1212 C 0.71024 0.10228 0.74377 0.0
C1213 C 0.7235 0.11796 0.74137 0.0
C1214 C 0.67405 0.04824 0.74359 0.0
C1215 C 0.65471 0.04939 0.73695 0.0
C1216 C 0.68754 0.06369 0.74096 0.0
C1217 C 0.68197 0.08072 0.73178 0.0
C1218 C 0.66258 0.08185 0.72522 0.0
C1219 C 0.64914 0.06634 0.72769 0.0
H1220 H 0.37803 0.01765 0.49324 0.0
H1221 H 0.39269 0.05011 0.54655 0.0
H1222 H 0.35225 0.03988 0.48639 0.0
H1223 H 0.36697 0.0725 0.53963 0.0
H1224 H 0.30572 0.09583 0.53075 0.0
H1225 H 0.33178 0.07402 0.53808 0.0
H1226 H 0.34799 0.07297 0.47692 0.0
H1227 H 0.32168 0.09437 0.46951 0.0
C1228 C 0.37585 0.02965 0.50341 0.0
C1229 C 0.38744 0.03215 0.52041 0.0
C1230 C 0.36109 0.04242 0.49947 0.0
C1231 C 0.35758 0.05803 0.51241 0.0
C1232 C 0.36911 0.06048 0.52948 0.0
C1233 C 0.38386 0.04766 0.53345 0.0
C1234 C 0.31488 0.09099 0.51887 0.0
C1235 C 0.31156 0.09679 0.49953 0.0
C1236 C 0.32989 0.07855 0.52309 0.0
C1237 C 0.34194 0.07167 0.50807 0.0
C1238 C 0.33878 0.07772 0.48878 0.0
C1239 C 0.32376 0.09011 0.48456 0.0
H1240 H 0.60462 0.46535 0.50656 0.0
H1241 H 0.63951 0.49912 0.54893 0.0
H1242 H 0.63176 0.4442 0.50094 0.0
H1243 H 0.66653 0.47776 0.54349 0.0
H1244 H 0.70281 0.42299 0.54288 0.0
H1245 H 0.6753 0.44368 0.54889 0.0
H1246 H 0.66477 0.44618 0.48649 0.0
H1247 H 0.69211 0.4254 0.48045 0.0
C1248 C 0.61811 0.46836 0.51458 0.0
C1249 C 0.61987 0.48398 0.52817 0.0
C1250 C 0.63365 0.4562 0.51138 0.0
C1251 C 0.65128 0.45932 0.52177 0.0
C1252 C 0.65303 0.47483 0.53546 0.0
C1253 C 0.63752 0.48705 0.53859 0.0
C1254 C 0.69461 0.42793 0.53044 0.0
C1255 C 0.69966 0.42255 0.51118 0.0
C1256 C 0.67892 0.43986 0.53389 0.0
C1257 C 0.66788 0.44655 0.51816 0.0
C1258 C 0.67287 0.44108 0.49892 0.0
C1259 C 0.68861 0.42926 0.49546 0.0
H1260 H 0.69764 0.30188 0.38 0.0
H1261 H 0.75164 0.27341 0.39 0.0
H1262 H 0.70565 0.32485 0.40694 0.0
H1263 H 0.75943 0.29606 0.41717 0.0
H1264 H 0.77702 0.35377 0.44819 0.0
H1265 H 0.76835 0.33105 0.42138 0.0
H1266 H 0.70951 0.32543 0.44326 0.0
H1267 H 0.71809 0.34832 0.47005 0.0
C1268 C 0.7112 0.30053 0.38797 0.0
C1269 C 0.72403 0.28587 0.38287 0.0
C1270 C 0.7157 0.31356 0.40349 0.0
C1271 C 0.73319 0.31228 0.41412 0.0
C1272 C 0.74594 0.29753 0.40911 0.0
C1273 C 0.74138 0.28444 0.39369 0.0
C1274 C 0.76221 0.34775 0.44727 0.0
C1275 C 0.74826 0.35285 0.46127 0.0
C1276 C 0.75729 0.33464 0.43197 0.0
C1277 C 0.73828 0.3264 0.43026 0.0
C1278 C 0.72424 0.33167 0.44411 0.0
C1279 C 0.72919 0.34471 0.4595 0.0
H1280 H 0.54843 0.00824 0.89947 0.0
H1281 H 0.5151 0.0487 0.86682 0.0
H1282 H 0.57032 0.00472 0.87168 0.0
H1283 H 0.53712 0.0453 0.83914 0.0
H1284 H 0.59265 0.05003 0.80226 0.0
H1285 H 0.57122 0.05348 0.83042 0.0
H1286 H 0.56994 0.99135 0.83783 0.0
H1287 H 0.59157 0.98788 0.80982 0.0
C1288 C 0.54566 0.01626 0.88631 0.0
C1289 C 0.52999 0.02876 0.88539 0.0
C1290 C 0.55823 0.01426 0.8704 0.0
C1291 C 0.55547 0.02476 0.85323 0.0
C1292 C 0.53981 0.03725 0.85228 0.0
C1293 C 0.5272 0.0392 0.86816 0.0
C1294 C 0.58786 0.0371 0.80992 0.0
C1295 C 0.59382 0.01868 0.80377 0.0
C1296 C 0.57548 0.03907 0.82598 0.0
C1297 C 0.56884 0.02268 0.83632 0.0
C1298 C 0.57496 0.00428 0.83029 0.0
C1299 C 0.58727 0.00229 0.81418 0.0
H1300 H 0.25868 0.2415 0.38403 0.0
H1301 H 0.29855 0.20305 0.35578 0.0
H1302 H 0.25403 0.21846 0.41056 0.0
H1303 H 0.29396 0.18002 0.38236 0.0
H1304 H 0.26122 0.13546 0.42216 0.0
H1305 H 0.26624 0.15829 0.39552 0.0
H1306 H 0.27484 0.20536 0.43787 0.0
H1307 H 0.26993 0.18261 0.46453 0.0
C1308 C 0.26638 0.22809 0.38348 0.0
C1309 C 0.27897 0.22405 0.36787 0.0
C1310 C 0.26384 0.21499 0.39871 0.0
C1311 C 0.27365 0.19748 0.3985 0.0
C1312 C 0.28613 0.19336 0.38282 0.0
C1313 C 0.28886 0.20658 0.36771 0.0
C1314 C 0.26421 0.15068 0.42579 0.0
C1315 C 0.26518 0.15723 0.44545 0.0
C1316 C 0.26717 0.1637 0.41054 0.0
C1317 C 0.27089 0.18358 0.41465 0.0
C1318 C 0.27183 0.19014 0.43429 0.0
C1319 C 0.26912 0.17709 0.44954 0.0
H1320 H 0.48691 0.51212 0.87214 0.0
H1321 H 0.45532 0.45899 0.88688 0.0
H1322 H 0.4651 0.51594 0.84419 0.0
H1323 H 0.4332 0.46309 0.85925 0.0
H1324 H 0.41291 0.46539 0.79494 0.0
H1325 H 0.43437 0.46177 0.82314 0.0
H1326 H 0.43075 0.52291 0.83727 0.0
H1327 H 0.40945 0.52662 0.80893 0.0
C1328 C 0.47531 0.50126 0.8694 0.0
C1329 C 0.47286 0.48524 0.88169 0.0
C1330 C 0.4627 0.50355 0.85352 0.0
C1331 C 0.44742 0.48982 0.84952 0.0
C1332 C 0.44494 0.47382 0.86185 0.0
C1333 C 0.45749 0.47159 0.87778 0.0
C1334 C 0.41666 0.47807 0.80407 0.0
C1335 C 0.40947 0.4963 0.79968 0.0
C1336 C 0.42887 0.47596 0.82029 0.0
C1337 C 0.43424 0.49205 0.83244 0.0
C1338 C 0.42704 0.51028 0.82807 0.0
C1339 C 0.41474 0.51238 0.81189 0.0
H1340 H 0.70539 0.7167 0.12543 0.0
H1341 H 0.75662 0.75334 0.1147 0.0
H1342 H 0.71285 0.69665 0.09672 0.0
H1343 H 0.76451 0.73287 0.08655 0.0
H1344 H 0.76151 0.70453 0.02558 0.0
H1345 H 0.75298 0.7248 0.05369 0.0
H1346 H 0.73654 0.67344 0.08593 0.0
H1347 H 0.74466 0.65315 0.05765 0.0
C1348 C 0.71822 0.72049 0.11693 0.0
C1349 C 0.73042 0.7366 0.12238 0.0
C1350 C 0.72262 0.70887 0.10061 0.0
C1351 C 0.7393 0.71313 0.08936 0.0
C1352 C 0.75144 0.72929 0.09477 0.0
C1353 C 0.74704 0.74089 0.11106 0.0
C1354 C 0.75608 0.69754 0.03866 0.0
C1355 C 0.75381 0.67722 0.03938 0.0
C1356 C 0.75128 0.70917 0.05481 0.0
C1357 C 0.74411 0.70075 0.07208 0.0
C1358 C 0.74178 0.68041 0.07277 0.0
C1359 C 0.74657 0.66877 0.0566 0.0
H1360 H 0.96037 0.01326 0.12033 0.0
H1361 H 0.99438 0.05961 0.14947 0.0
H1362 H 0.93994 0.01006 0.14929 0.0
H1363 H 0.97333 0.05713 0.17796 0.0
H1364 H 0.9449 0.03416 0.23341 0.0
H1365 H 0.96573 0.03636 0.2047 0.0
H1366 H 0.91528 0.02674 0.16699 0.0
H1367 H 0.8945 0.02396 0.19575 0.0
C1368 C 0.96352 0.02274 0.13292 0.0
C1369 C 0.97903 0.03669 0.13254 0.0
C1370 C 0.95163 0.02109 0.14943 0.0
C1371 C 0.95493 0.03337 0.16596 0.0
C1372 C 0.97048 0.04727 0.16559 0.0
C1373 C 0.98241 0.04887 0.14913 0.0
C1374 C 0.93824 0.03253 0.219 0.0
C1375 C 0.91804 0.0289 0.21688 0.0
C1376 C 0.95018 0.03389 0.20251 0.0
C1377 C 0.9422 0.03176 0.1835 0.0
C1378 C 0.92197 0.02817 0.1814 0.0
C1379 C 0.91003 0.02671 0.1979 0.0
H1380 H 0.29123 0.7601 0.11407 0.0
H1381 H 0.25875 0.79821 0.15158 0.0
H1382 H 0.28513 0.78071 0.08625 0.0
H1383 H 0.25248 0.81875 0.12374 0.0
H1384 H 0.26127 0.86119 0.07352 0.0
H1385 H 0.2684 0.84114 0.10153 0.0
H1386 H 0.25862 0.78943 0.06526 0.0
H1387 H 0.25197 0.80945 0.0372 0.0
C1388 C 0.28267 0.77282 0.11634 0.0
C1389 C 0.27545 0.7775 0.13502 0.0
C1390 C 0.27915 0.78462 0.10039 0.0
C1391 C 0.26826 0.80137 0.10273 0.0
C1392 C 0.26116 0.80613 0.12147 0.0
C1393 C 0.26474 0.79434 0.13743 0.0
C1394 C 0.26065 0.84554 0.07153 0.0
C1395 C 0.25606 0.83693 0.05312 0.0
C1396 C 0.26464 0.83404 0.08761 0.0
C1397 C 0.26411 0.81366 0.08565 0.0
C1398 C 0.25947 0.80508 0.06723 0.0
C1399 C 0.25553 0.81657 0.05115 0.0
H1400 H 0.0067 0.46247 0.1431 0.0
H1401 H 0.05301 0.49059 0.11016 0.0
H1402 H 0.02722 0.46422 0.17242 0.0
H1403 H 0.07384 0.49149 0.13922 0.0
H1404 H 0.09844 0.50849 0.19975 0.0
H1405 H 0.07742 0.50746 0.17082 0.0
H1406 H 0.05582 0.44993 0.18578 0.0
H1407 H 0.07649 0.45116 0.21501 0.0
C1408 C 0.02123 0.46908 0.14211 0.0
C1409 C 0.02819 0.4764 0.12426 0.0
C1410 C 0.0331 0.46985 0.15887 0.0
C1411 C 0.05222 0.47794 0.15818 0.0
C1412 C 0.05913 0.48534 0.14034 0.0
C1413 C 0.04726 0.48461 0.12361 0.0
C1414 C 0.08922 0.49561 0.19687 0.0
C1415 C 0.08915 0.4799 0.2097 0.0
C1416 C 0.07724 0.49498 0.18021 0.0
C1417 C 0.06493 0.47861 0.17595 0.0
C1418 C 0.06491 0.46288 0.18877 0.0
C1419 C 0.07686 0.46353 0.20547 0.0
H1420 H 0.35806 0.71373 0.30694 0.0
H1421 H 0.38458 0.75506 0.26744 0.0
H1422 H 0.38524 0.71952 0.32999 0.0
H1423 H 0.41173 0.7609 0.29052 0.0
H1424 H 0.46679 0.74637 0.32636 0.0
H1425 H 0.43937 0.74119 0.30363 0.0
H1426 H 0.39916 0.74749 0.35159 0.0
H1427 H 0.42657 0.75278 0.3744 0.0
C1428 C 0.36973 0.72402 0.3032 0.0
C1429 C 0.36925 0.73394 0.28541 0.0
C1430 C 0.38518 0.72744 0.31643 0.0
C1431 C 0.40057 0.74065 0.31202 0.0
C1432 C 0.40011 0.75054 0.29422 0.0
C1433 C 0.38453 0.74731 0.2811 0.0
C1434 C 0.45211 0.74665 0.33207 0.0
C1435 C 0.44884 0.74997 0.35219 0.0
C1436 C 0.43643 0.7438 0.31903 0.0
C1437 C 0.41717 0.74395 0.32586 0.0
C1438 C 0.41388 0.74717 0.34597 0.0
C1439 C 0.42956 0.75028 0.35899 0.0
H1440 H 0.96402 0.39763 0.9469 0.0
H1441 H 0.00504 0.37541 0.98825 0.0
H1442 H 0.96965 0.37021 0.92456 0.0
H1443 H 0.01084 0.34816 0.96583 0.0
H1444 H 0.99755 0.29129 0.93034 0.0
H1445 H 0.99201 0.31876 0.95252 0.0
H1446 H 0.99706 0.35782 0.90395 0.0
H1447 H 0.00257 0.33037 0.88171 0.0
C1448 C 0.97419 0.38686 0.95122 0.0
C1449 C 0.9841 0.38865 0.9693 0.0
C1450 C 0.97754 0.37128 0.93837 0.0
C1451 C 0.99069 0.35707 0.94346 0.0
C1452 C 0.00052 0.35882 0.96159 0.0
C1453 C 0.99732 0.37449 0.97434 0.0
C1454 C 0.9975 0.30573 0.92438 0.0
C1455 C 0.00051 0.30865 0.90426 0.0
C1456 C 0.99442 0.32146 0.93711 0.0
C1457 C 0.9941 0.34041 0.92995 0.0
C1458 C 0.99706 0.34334 0.90983 0.0
C1459 C 0.00033 0.32763 0.89713 0.0
H1460 H 0.60676 0.79205 0.24893 0.0
H1461 H 0.64509 0.76725 0.29134 0.0
H1462 H 0.57899 0.78492 0.27009 0.0
H1463 H 0.61732 0.76044 0.31262 0.0
H1464 H 0.56527 0.7703 0.35363 0.0
H1465 H 0.59316 0.778 0.33269 0.0
H1466 H 0.56051 0.75589 0.2821 0.0
H1467 H 0.5326 0.74832 0.30293 0.0
C1468 C 0.60927 0.78497 0.26269 0.0
C1469 C 0.62818 0.78018 0.26839 0.0
C1470 C 0.59335 0.78093 0.27483 0.0
C1471 C 0.59597 0.77211 0.29301 0.0
C1472 C 0.61488 0.76748 0.29881 0.0
C1473 C 0.63079 0.77142 0.28662 0.0
C1474 C 0.56403 0.7671 0.33804 0.0
C1475 C 0.54671 0.75869 0.32995 0.0
C1476 C 0.58004 0.77141 0.32607 0.0
C1477 C 0.57901 0.76756 0.30576 0.0
C1478 C 0.56167 0.75923 0.29767 0.0
C1479 C 0.54572 0.75479 0.30964 0.0
H1480 H 0.04958 0.12431 0.96574 0.0
H1481 H 0.99671 0.13497 0.99753 0.0
H1482 H 0.04394 0.15222 0.94528 0.0
H1483 H 0.99077 0.16255 0.97687 0.0
H1484 H 0.9971 0.22287 0.9518 0.0
H1485 H 0.00314 0.19473 0.97153 0.0
H1486 H 0.02338 0.16409 0.92005 0.0
H1487 H 0.01793 0.19256 0.9004 0.0
C1488 C 0.03663 0.1325 0.96818 0.0
C1489 C 0.02365 0.12755 0.9833 0.0
C1490 C 0.03336 0.14847 0.95644 0.0
C1491 C 0.01695 0.15974 0.95948 0.0
C1492 C 0.00379 0.15449 0.97438 0.0
C1493 C 0.00714 0.13864 0.98619 0.0
C1494 C 0.00285 0.21014 0.94468 0.0
C1495 C 0.00701 0.20996 0.92452 0.0
C1496 C 0.0062 0.19393 0.95598 0.0
C1497 C 0.01365 0.17706 0.94739 0.0
C1498 C 0.01787 0.17691 0.92721 0.0
C1499 C 0.01464 0.1932 0.91592 0.0
H1500 H 0.35133 0.26724 0.19716 0.0
H1501 H 0.39333 0.29069 0.23975 0.0
H1502 H 0.37752 0.26203 0.17395 0.0
H1503 H 0.41961 0.28442 0.21698 0.0
H1504 H 0.46091 0.28783 0.16537 0.0
H1505 H 0.43398 0.29503 0.18712 0.0
H1506 H 0.40407 0.24126 0.16871 0.0
H1507 H 0.43069 0.2344 0.14649 0.0
C1508 C 0.36614 0.27135 0.20157 0.0
C1509 C 0.37019 0.27937 0.22037 0.0
C1510 C 0.38121 0.26811 0.18834 0.0
C1511 C 0.40072 0.27271 0.19359 0.0
C1512 C 0.40475 0.28089 0.21233 0.0
C1513 C 0.38968 0.28424 0.22551 0.0
C1514 C 0.44855 0.27758 0.16592 0.0
C1515 C 0.44795 0.26053 0.15421 0.0
C1516 C 0.43315 0.28165 0.17848 0.0
C1517 C 0.41685 0.26871 0.17975 0.0
C1518 C 0.41623 0.25171 0.16792 0.0
C1519 C 0.43157 0.24771 0.15525 0.0
H1520 H 0.54484 0.39652 0.04532 0.0
H1521 H 0.49584 0.37759 0.00873 0.0
H1522 H 0.53822 0.36928 0.06691 0.0
H1523 H 0.48935 0.3502 0.0301 0.0
H1524 H 0.47069 0.31566 0.08341 0.0
H1525 H 0.4776 0.34314 0.06235 0.0
H1526 H 0.53938 0.33448 0.06814 0.0
H1527 H 0.53246 0.3073 0.08968 0.0
C1528 C 0.53277 0.38642 0.0418 0.0
C1529 C 0.52083 0.38922 0.02537 0.0
C1530 C 0.52898 0.37079 0.05414 0.0
C1531 C 0.51322 0.35756 0.05028 0.0
C1532 C 0.50139 0.3603 0.03373 0.0
C1533 C 0.50512 0.37598 0.02146 0.0
C1534 C 0.48575 0.31963 0.08022 0.0
C1535 C 0.50102 0.30928 0.08822 0.0
C1536 C 0.48972 0.33532 0.06804 0.0
C1537 C 0.50905 0.34099 0.06347 0.0
C1538 C 0.52433 0.33067 0.07155 0.0
C1539 C 0.52036 0.31502 0.08382 0.0
H1540 H 0.63257 0.21295 0.21332 0.0
H1541 H 0.6117 0.25531 0.25494 0.0
H1542 H 0.60419 0.21762 0.19234 0.0
H1543 H 0.58356 0.26022 0.23384 0.0
H1544 H 0.5255 0.24748 0.20148 0.0
H1545 H 0.55361 0.24185 0.22234 0.0
H1546 H 0.59106 0.24368 0.17167 0.0
H1547 H 0.56293 0.24919 0.15072 0.0
C1548 C 0.62188 0.2232 0.218 0.0
C1549 C 0.62436 0.23378 0.23575 0.0
C1550 C 0.60574 0.226 0.20592 0.0
C1551 C 0.59166 0.2393 0.21144 0.0
C1552 C 0.59408 0.24976 0.22927 0.0
C1553 C 0.61028 0.24708 0.24126 0.0
C1554 C 0.53971 0.24666 0.19476 0.0
C1555 C 0.54198 0.24882 0.17443 0.0
C1556 C 0.55582 0.24353 0.20674 0.0
C1557 C 0.57453 0.24235 0.19865 0.0
C1558 C 0.57679 0.24434 0.1783 0.0
C1559 C 0.56069 0.24761 0.16633 0.0
H1560 H 0.46317 0.1409 0.01895 0.0
H1561 H 0.50163 0.10773 0.0543 0.0
H1562 H 0.46791 0.16858 0.04158 0.0
H1563 H 0.50666 0.13549 0.07679 0.0
H1564 H 0.49545 0.18189 0.12363 0.0
H1565 H 0.49012 0.15418 0.10118 0.0
H1566 H 0.49207 0.19276 0.052 0.0
H1567 H 0.49681 0.2205 0.07448 0.0
C1568 C 0.47279 0.1396 0.03147 0.0
C1569 C 0.48202 0.12214 0.03486 0.0
C1570 C 0.47554 0.15547 0.04443 0.0
C1571 C 0.48768 0.15429 0.06102 0.0
C1572 C 0.49695 0.13681 0.06435 0.0
C1573 C 0.49411 0.12091 0.05145 0.0
C1574 C 0.49472 0.18446 0.10803 0.0
C1575 C 0.49654 0.20341 0.10085 0.0
C1576 C 0.49178 0.16855 0.09514 0.0
C1577 C 0.49069 0.17122 0.07476 0.0
C1578 C 0.49254 0.19019 0.06761 0.0
C1579 C 0.49537 0.2061 0.0805 0.0
H1580 H 0.2913 0.37478 0.73705 0.0
H1581 H 0.24943 0.40849 0.70647 0.0
H1582 H 0.31286 0.40358 0.74088 0.0
H1583 H 0.27061 0.43748 0.71107 0.0
H1584 H 0.32286 0.48004 0.70363 0.0
H1585 H 0.30138 0.4512 0.69959 0.0
H1586 H 0.31529 0.43434 0.75857 0.0
H1587 H 0.33712 0.46293 0.76245 0.0
C1588 C 0.28669 0.38834 0.73114 0.0
C1589 C 0.26865 0.3893 0.72141 0.0
C1590 C 0.29895 0.4049 0.73355 0.0
C1591 C 0.29347 0.42285 0.72631 0.0
C1592 C 0.27539 0.42384 0.71664 0.0
C1593 C 0.26313 0.40727 0.71422 0.0
C1594 C 0.32135 0.47018 0.71574 0.0
C1595 C 0.33174 0.47378 0.73335 0.0
C1596 C 0.30893 0.4537 0.71346 0.0
C1597 C 0.30659 0.44045 0.72876 0.0
C1598 C 0.31696 0.44409 0.7464 0.0
C1599 C 0.3294 0.46055 0.74866 0.0
H1600 H 0.25059 0.61763 0.80057 0.0
H1601 H 0.29306 0.65576 0.77272 0.0
H1602 H 0.2722 0.59068 0.79644 0.0
H1603 H 0.31506 0.629 0.7694 0.0
H1604 H 0.33987 0.57181 0.74733 0.0
H1605 H 0.31829 0.59886 0.75115 0.0
H1606 H 0.30257 0.57932 0.80897 0.0
H1607 H 0.32378 0.55202 0.80498 0.0
C1608 C 0.26453 0.62026 0.79354 0.0
C1609 C 0.27006 0.63886 0.78693 0.0
C1610 C 0.27703 0.60486 0.7914 0.0
C1611 C 0.29539 0.60768 0.78264 0.0
C1612 C 0.30094 0.62628 0.77604 0.0
C1613 C 0.28842 0.64168 0.77815 0.0
C1614 C 0.33183 0.5733 0.76087 0.0
C1615 C 0.33351 0.55973 0.77584 0.0
C1616 C 0.31953 0.58887 0.7631 0.0
C1617 C 0.30867 0.59126 0.78036 0.0
C1618 C 0.31049 0.57776 0.79537 0.0
C1619 C 0.32275 0.56216 0.79313 0.0
H1620 H 0.8954 0.45248 0.46715 0.0
H1621 H 0.875 0.49418 0.5097 0.0
H1622 H 0.86759 0.43055 0.47445 0.0
H1623 H 0.84733 0.47219 0.51714 0.0
H1624 H 0.78924 0.43704 0.5069 0.0
H1625 H 0.81712 0.45879 0.49974 0.0
H1626 H 0.85537 0.4107 0.50289 0.0
H1627 H 0.82751 0.38889 0.51005 0.0
C1628 C 0.88494 0.45695 0.47803 0.0
C1629 C 0.88735 0.47502 0.48787 0.0
C1630 C 0.86914 0.44435 0.48231 0.0
C1631 C 0.85531 0.44967 0.49636 0.0
C1632 C 0.85769 0.46777 0.50614 0.0
C1633 C 0.8736 0.48027 0.50201 0.0
C1634 C 0.80359 0.4311 0.50609 0.0
C1635 C 0.80616 0.41124 0.50906 0.0
C1636 C 0.81956 0.44358 0.50208 0.0
C1637 C 0.8384 0.43643 0.50076 0.0
C1638 C 0.84098 0.41657 0.50365 0.0
C1639 C 0.82504 0.40412 0.50787 0.0
H1640 H 0.74964 0.88787 0.75411 0.0
H1641 H 0.71158 0.86661 0.7999 0.0
H1642 H 0.72929 0.91572 0.75022 0.0
H1643 H 0.69102 0.8943 0.79562 0.0
H1644 H 0.64886 0.93617 0.76636 0.0
H1645 H 0.66881 0.9079 0.77031 0.0
H1646 H 0.72091 0.94517 0.76994 0.0
H1647 H 0.70107 0.97338 0.76593 0.0
C1648 C 0.73702 0.88917 0.76344 0.0
C1649 C 0.73233 0.875 0.77739 0.0
C1650 C 0.72534 0.90512 0.76115 0.0
C1651 C 0.7086 0.9072 0.77264 0.0
C1652 C 0.70372 0.89296 0.78641 0.0
C1653 C 0.71549 0.87707 0.78881 0.0
C1654 C 0.66457 0.93833 0.76712 0.0
C1655 C 0.67338 0.95703 0.7658 0.0
C1656 C 0.67597 0.92215 0.76949 0.0
C1657 C 0.69641 0.92433 0.77039 0.0
C1658 C 0.7052 0.94302 0.76907 0.0
C1659 C 0.69382 0.95919 0.76688 0.0
H1660 H 0.60944 0.55167 0.00406 0.0
H1661 H 0.63937 0.52446 0.9558 0.0
H1662 H 0.63772 0.57341 0.01008 0.0
H1663 H 0.66717 0.54702 0.96105 0.0
H1664 H 0.72154 0.57689 0.98843 0.0
H1665 H 0.69359 0.55443 0.98311 0.0
H1666 H 0.65472 0.60066 0.99655 0.0
H1667 H 0.68267 0.62289 0.00253 0.0
C1668 C 0.62205 0.55029 0.99473 0.0
C1669 C 0.62209 0.53625 0.97946 0.0
C1670 C 0.63819 0.56298 0.998 0.0
C1671 C 0.65475 0.56205 0.98601 0.0
C1672 C 0.65479 0.54802 0.97073 0.0
C1673 C 0.6387 0.53524 0.96754 0.0
C1674 C 0.70702 0.58224 0.99026 0.0
C1675 C 0.70432 0.60166 0.99595 0.0
C1676 C 0.69097 0.56939 0.9871 0.0
C1677 C 0.67186 0.5757 0.9894 0.0
C1678 C 0.66921 0.59518 0.99497 0.0
C1679 C 0.68525 0.60798 0.99828 0.0
H1680 H 0.20328 0.64047 0.20775 0.0
H1681 H 0.2354 0.62565 0.25965 0.0
H1682 H 0.18054 0.61298 0.21283 0.0
H1683 H 0.21266 0.59815 0.26473 0.0
H1684 H 0.18118 0.53874 0.25418 0.0
H1685 H 0.20356 0.56663 0.24978 0.0
H1686 H 0.15503 0.60178 0.23517 0.0
H1687 H 0.13265 0.5738 0.23922 0.0
C1688 C 0.20537 0.63146 0.22036 0.0
C1689 C 0.22117 0.63525 0.23328 0.0
C1690 C 0.19233 0.61571 0.22327 0.0
C1691 C 0.19479 0.60336 0.23919 0.0
C1692 C 0.21053 0.6072 0.25216 0.0
C1693 C 0.22357 0.62296 0.24925 0.0
C1694 C 0.17527 0.55242 0.25007 0.0
C1695 C 0.15513 0.55403 0.24701 0.0
C1696 C 0.1881 0.56844 0.24765 0.0
C1697 C 0.18109 0.58643 0.24211 0.0
C1698 C 0.16092 0.58807 0.23919 0.0
C1699 C 0.14809 0.57205 0.24163 0.0
H1700 H 0.90777 0.55218 0.99834 0.0
H1701 H 0.8707 0.51958 0.03793 0.0
H1702 H 0.88097 0.57319 0.99121 0.0
H1703 H 0.84402 0.54074 0.03094 0.0
H1704 H 0.80715 0.59466 0.02829 0.0
H1705 H 0.83459 0.57465 0.03601 0.0
H1706 H 0.84897 0.5709 0.97448 0.0
H1707 H 0.82169 0.59108 0.96674 0.0
C1708 C 0.89389 0.54942 0.00545 0.0
C1709 C 0.8914 0.53415 0.01869 0.0
C1710 C 0.87854 0.56148 0.00137 0.0
C1711 C 0.86037 0.55862 0.01049 0.0
C1712 C 0.85793 0.5435 0.02388 0.0
C1713 C 0.87324 0.53138 0.0279 0.0
C1714 C 0.81619 0.58962 0.0164 0.0
C1715 C 0.81221 0.59445 0.99689 0.0
C1716 C 0.83185 0.57806 0.02083 0.0
C1717 C 0.84393 0.57118 0.00585 0.0
C1718 C 0.84006 0.57616 0.98637 0.0
C1719 C 0.82435 0.58764 0.98193 0.0
H1720 H 0.13009 0.99957 0.0043 0.0
H1721 H 0.11233 0.9648 0.05354 0.0
H1722 H 0.15706 0.97836 0.99816 0.0
H1723 H 0.13915 0.94339 0.04727 0.0
H1724 H 0.20102 0.92123 0.04252 0.0
H1725 H 0.17415 0.94252 0.04896 0.0
H1726 H 0.16352 0.94613 0.98662 0.0
H1727 H 0.19068 0.92531 0.98018 0.0
C1728 C 0.13185 0.98727 0.0137 0.0
C1729 C 0.11907 0.98385 0.02939 0.0
C1730 C 0.14729 0.97509 0.01016 0.0
C1731 C 0.15028 0.95912 0.02219 0.0
C1732 C 0.13748 0.95571 0.0379 0.0
C1733 C 0.12208 0.96796 0.04148 0.0
C1734 C 0.19294 0.92657 0.03019 0.0
C1735 C 0.19803 0.92161 0.01084 0.0
C1736 C 0.17746 0.93869 0.03389 0.0
C1737 C 0.16666 0.94608 0.01831 0.0
C1738 C 0.1717 0.94098 0.99896 0.0
C1739 C 0.18722 0.92893 0.99527 0.0
loop_
_geom_bond_atom_site_label_1
_geom_bond_atom_site_label_2
_geom_bond_distance
_geom_bond_site_symmetry_2
_ccdc_geom_bond_type
C0 C1 1.386 . S
C0 C2 1.397 . S
C0 H24 0.931 . S
C1 C0 1.386 . S
C1 C5 1.397 1_556 S
C2 C0 1.397 . S
C2 C3 1.384 1_556 S
C2 H25 0.930 . S
C3 C2 1.384 1_554 S
C3 C4 1.377 . S
C3 C6 1.481 . S
C4 C3 1.377 . S
C4 C5 1.389 . S
C4 H26 0.929 . S
C5 C1 1.397 1_554 S
C5 C4 1.389 . S
C5 H27 0.931 . S
C6 C3 1.481 . S
C6 C7 1.387 . S
C6 C11 1.390 . S
C7 C6 1.387 . S
C7 C8 1.401 . S
C7 H28 0.930 . S
C8 C7 1.401 . S
C8 C9 1.376 . S
C8 C17 1.511 . S
C9 C8 1.376 . S
C9 C10 1.392 . S
C9 H30 0.931 . S
C10 C9 1.392 . S
C10 C11 1.361 . S
C10 C12 1.500 . S
C11 C6 1.390 . S
C11 C10 1.361 . S
C11 H29 0.931 . S
C12 C10 1.500 . S
C12 C13 1.371 . S
C12 C14 1.365 . S
C13 C12 1.371 . S
C13 C23 1.386 1_455 S
C13 H31 0.931 . S
C14 C12 1.365 . S
C14 C15 1.409 1_455 S
C14 H32 0.929 . S
C15 C14 1.409 1_655 S
C15 C16 1.380 . S
C15 H33 0.930 . S
C16 C15 1.380 . S
C16 C23 1.357 . S
C17 C8 1.511 . S
C17 C18 1.341 . S
C17 C19 1.371 . S
C18 C17 1.341 . S
C18 C22 1.394 . S
C18 H34 0.930 . S
C19 C17 1.371 . S
C19 C20 1.392 1_545 S
C19 H35 0.931 . S
C20 C19 1.392 1_565 S
C20 C21 1.331 . S
C20 H38 0.932 . S
C21 C20 1.331 . S
C21 C22 1.336 1_565 S
C22 C18 1.394 . S
C22 C21 1.336 1_545 S
C22 H37 0.929 . S
C23 C13 1.386 1_655 S
C23 C16 1.357 . S
C23 H36 0.928 . S
H24 C0 0.931 . S
H25 C2 0.930 . S
H26 C4 0.929 . S
H27 C5 0.931 . S
H28 C7 0.930 . S
H29 C11 0.931 . S
H30 C9 0.931 . S
H31 C13 0.931 . S
H32 C14 0.929 . S
H33 C15 0.930 . S
H34 C18 0.930 . S
H35 C19 0.931 . S
H36 C23 0.928 . S
H37 C22 0.929 . S
H38 C20 0.932 . S
C39 C40 1.386 . S
C39 C41 1.397 . S
C39 H63 0.931 . S
C40 C39 1.386 . S
C40 C44 1.397 . S
C41 C39 1.397 . S
C41 C42 1.384 . S
C41 H64 0.930 . S
C42 C41 1.384 . S
C42 C43 1.377 . S
C42 C45 1.481 . S
C43 C42 1.377 . S
C43 C44 1.389 . S
C43 H65 0.929 . S
C44 C40 1.397 . S
C44 C43 1.389 . S
C44 H66 0.931 . S
C45 C42 1.481 . S
C45 C46 1.387 . S
C45 C50 1.390 . S
C46 C45 1.387 . S
C46 C47 1.401 . S
C46 H67 0.930 . S
C47 C46 1.401 . S
C47 C48 1.376 . S
C47 C56 1.511 . S
C48 C47 1.376 . S
C48 C49 1.392 . S
C48 H69 0.931 . S
C49 C48 1.392 . S
C49 C50 1.361 . S
C49 C51 1.500 . S
C50 C45 1.390 . S
C50 C49 1.361 . S
C50 H68 0.931 . S
C51 C49 1.500 . S
C51 C52 1.371 . S
C51 C53 1.365 . S
C52 C51 1.371 . S
C52 C62 1.386 . S
C52 H70 0.931 . S
C53 C51 1.365 . S
C53 C54 1.409 . S
C53 H71 0.929 . S
C54 C53 1.409 . S
C54 C55 1.380 . S
C54 H72 0.930 . S
C55 C54 1.380 . S
C55 C62 1.357 . S
C56 C47 1.511 . S
C56 C57 1.341 . S
C56 C58 1.371 . S
C57 C56 1.341 . S
C57 C61 1.394 . S
C57 H73 0.930 . S
C58 C56 1.371 . S
C58 C59 1.392 . S
C58 H74 0.931 . S
C59 C58 1.392 . S
C59 C60 1.331 . S
C59 H77 0.932 . S
C60 C59 1.331 . S
C60 C61 1.336 . S
C61 C57 1.394 . S
C61 C60 1.336 . S
C61 H76 0.929 . S
C62 C52 1.386 . S
C62 C55 1.357 . S
C62 H75 0.928 . S
H63 C39 0.931 . S
H64 C41 0.930 . S
H65 C43 0.929 . S
H66 C44 0.931 . S
H67 C46 0.930 . S
H68 C50 0.931 . S
H69 C48 0.931 . S
H70 C52 0.931 . S
H71 C53 0.929 . S
H72 C54 0.930 . S
H73 C57 0.930 . S
H74 C58 0.931 . S
H75 C62 0.928 . S
H76 C61 0.929 . S
H77 C59 0.932 . S
C78 C79 1.386 1_655 S
C78 C80 1.397 . S
C78 H102 0.931 . S
C79 C78 1.386 1_455 S
C79 C83 1.397 . S
C80 C78 1.397 . S
C80 C81 1.384 . S
C80 H103 0.930 . S
C81 C80 1.384 . S
C81 C82 1.377 1_655 S
C81 C84 1.481 . S
C82 C81 1.377 1_455 S
C82 C83 1.389 . S
C82 H104 0.929 . S
C83 C79 1.397 . S
C83 C82 1.389 . S
C83 H105 0.931 . S
C84 C81 1.481 . S
C84 C85 1.387 . S
C84 C89 1.390 . S
C85 C84 1.387 . S
C85 C86 1.401 . S
C85 H106 0.930 . S
C86 C85 1.401 . S
C86 C87 1.376 . S
C86 C95 1.511 . S
C87 C86 1.376 . S
C87 C88 1.392 . S
C87 H108 0.931 . S
C88 C87 1.392 . S
C88 C89 1.361 . S
C88 C90 1.500 . S
C89 C84 1.390 . S
C89 C88 1.361 . S
C89 H107 0.931 . S
C90 C88 1.500 . S
C90 C91 1.384 . S
C90 C92 1.365 . S
C91 C90 1.384 . S
C91 C101 1.370 1_554 S
C91 H109 0.935 . S
C92 C90 1.365 . S
C92 C93 1.409 1_554 S
C92 H110 0.907 1_655 S
C93 C92 1.409 1_556 S
C93 C94 1.380 . S
C93 H111 0.930 1_655 S
C94 C93 1.380 . S
C94 C101 1.357 . S
C95 C86 1.511 . S
C95 C96 1.341 . S
C95 C97 1.371 . S
C96 C95 1.341 . S
C96 C100 1.394 . S
C96 H112 0.930 . S
C97 C95 1.371 . S
C97 C98 1.392 . S
C97 H113 0.931 . S
C98 C97 1.392 . S
C98 C99 1.331 . S
C98 H116 0.932 1_554 S
C99 C98 1.331 . S
C99 C100 1.336 . S
C100 C96 1.394 . S
C100 C99 1.336 . S
C100 H115 0.929 . S
C101 C91 1.370 1_556 S
C101 C94 1.357 . S
C101 H114 0.928 . S
H102 C78 0.931 . S
H103 C80 0.930 . S
H104 C82 0.929 . S
H105 C83 0.931 . S
H106 C85 0.930 . S
H107 C89 0.931 . S
H108 C87 0.931 . S
H109 C91 0.935 . S
H110 C92 0.907 1_455 S
H111 C93 0.930 1_455 S
H112 C96 0.930 . S
H113 C97 0.931 . S
H114 C101 0.928 . S
H115 C100 0.929 . S
H116 C98 0.932 1_556 S
C117 C118 1.386 . S
C117 C119 1.397 . S
C117 H141 0.931 . S
C118 C117 1.386 . S
C118 C122 1.397 . S
C119 C117 1.397 . S
C119 C120 1.384 . S
C119 H142 0.930 . S
C120 C119 1.384 . S
C120 C121 1.377 . S
C120 C123 1.481 . S
C121 C120 1.377 . S
C121 C122 1.389 . S
C121 H143 0.929 . S
C122 C118 1.397 . S
C122 C121 1.389 . S
C122 H144 0.931 . S
C123 C120 1.481 . S
C123 C124 1.387 . S
C123 C128 1.390 . S
C124 C123 1.387 . S
C124 C125 1.401 . S
C124 H145 0.930 . S
C125 C124 1.401 . S
C125 C126 1.376 . S
C125 C134 1.511 . S
C126 C125 1.376 . S
C126 C127 1.392 . S
C126 H147 0.931 . S
C127 C126 1.392 . S
C127 C128 1.361 . S
C127 C129 1.500 . S
C128 C123 1.390 . S
C128 C127 1.361 . S
C128 H146 0.931 . S
C129 C127 1.500 . S
C129 C130 1.371 . S
C129 C131 1.365 . S
C130 C129 1.371 . S
C130 C140 1.386 . S
C130 H148 0.931 . S
C131 C129 1.365 . S
C131 C132 1.409 . S
C131 H149 0.929 . S
C132 C131 1.409 . S
C132 C133 1.380 . S
C132 H150 0.930 . S
C133 C132 1.380 . S
C133 C140 1.357 . S
C134 C125 1.511 . S
C134 C135 1.341 . S
C134 C136 1.371 . S
C135 C134 1.341 . S
C135 C139 1.394 . S
C135 H151 0.930 . S
C136 C134 1.371 . S
C136 C137 1.392 . S
C136 H152 0.931 . S
C137 C136 1.392 . S
C137 C138 1.331 . S
C137 H155 0.932 . S
C138 C137 1.331 . S
C138 C139 1.336 . S
C139 C135 1.394 . S
C139 C138 1.336 . S
C139 H154 0.929 . S
C140 C130 1.386 . S
C140 C133 1.357 . S
C140 H153 0.928 . S
H141 C117 0.931 . S
H142 C119 0.930 . S
H143 C121 0.929 . S
H144 C122 0.931 . S
H145 C124 0.930 . S
H146 C128 0.931 . S
H147 C126 0.931 . S
H148 C130 0.931 . S
H149 C131 0.929 . S
H150 C132 0.930 . S
H151 C135 0.930 . S
H152 C136 0.931 . S
H153 C140 0.928 . S
H154 C139 0.929 . S
H155 C137 0.932 . S
C156 C157 1.386 . S
C156 C158 1.397 . S
C156 H180 0.931 . S
C157 C156 1.386 . S
C157 C161 1.397 1_655 S
C158 C156 1.397 . S
C158 C159 1.384 1_655 S
C158 H181 0.930 . S
C159 C158 1.384 1_455 S
C159 C160 1.377 . S
C159 C162 1.481 . S
C160 C159 1.377 . S
C160 C161 1.389 . S
C160 H182 0.929 . S
C161 C157 1.397 1_455 S
C161 C160 1.389 . S
C161 H183 0.931 . S
C162 C159 1.481 . S
C162 C163 1.387 . S
C162 C167 1.390 . S
C163 C162 1.387 . S
C163 C164 1.401 . S
C163 H184 0.930 . S
C164 C163 1.401 . S
C164 C165 1.376 . S
C164 C173 1.511 . S
C165 C164 1.376 . S
C165 C166 1.392 . S
C165 H186 0.931 . S
C166 C165 1.392 . S
C166 C167 1.361 . S
C166 C168 1.500 . S
C167 C162 1.390 . S
C167 C166 1.361 . S
C167 H185 0.931 . S
C168 C166 1.500 . S
C168 C169 1.371 1_565 S
C168 C170 1.365 1_565 S
C169 C168 1.371 1_545 S
C169 C179 1.386 . S
C169 H187 0.931 1_545 S
C170 C168 1.365 1_545 S
C170 C171 1.409 . S
C170 H188 0.929 . S
C171 C170 1.409 . S
C171 C172 1.380 . S
C171 H189 0.930 . S
C172 C171 1.380 . S
C172 C179 1.357 . S
C173 C164 1.511 . S
C173 C174 1.341 . S
C173 C175 1.371 . S
C174 C173 1.341 . S
C174 C178 1.394 . S
C174 H190 0.930 . S
C175 C173 1.371 . S
C175 C176 1.392 . S
C175 H191 0.931 . S
C176 C175 1.392 . S
C176 C177 1.331 . S
C176 H194 0.932 . S
C177 C176 1.331 . S
C177 C178 1.336 . S
C178 C174 1.394 . S
C178 C177 1.336 . S
C178 H193 0.896 1_455 S
C179 C169 1.386 . S
C179 C172 1.357 . S
C179 H192 0.928 . S
H180 C156 0.931 . S
H181 C158 0.930 . S
H182 C160 0.929 . S
H183 C161 0.931 . S
H184 C163 0.930 . S
H185 C167 0.931 . S
H186 C165 0.931 . S
H187 C169 0.931 1_565 S
H188 C170 0.929 . S
H189 C171 0.930 . S
H190 C174 0.930 . S
H191 C175 0.931 . S
H192 C179 0.928 . S
H193 C178 0.896 1_655 S
H194 C176 0.932 . S
C195 C196 1.386 . S
C195 C197 1.397 . S
C195 H219 0.931 . S
C196 C195 1.386 . S
C196 C200 1.397 . S
C197 C195 1.397 . S
C197 C198 1.384 . S
C197 H220 0.930 . S
C198 C197 1.384 . S
C198 C199 1.377 . S
C198 C201 1.481 . S
C199 C198 1.377 . S
C199 C200 1.389 . S
C199 H221 0.929 . S
C200 C196 1.397 . S
C200 C199 1.389 . S
C200 H222 0.931 . S
C201 C198 1.481 . S
C201 C202 1.387 . S
C201 C206 1.390 . S
C202 C201 1.387 . S
C202 C203 1.401 . S
C202 H223 0.930 . S
C203 C202 1.401 . S
C203 C204 1.376 . S
C203 C212 1.511 . S
C204 C203 1.376 . S
C204 C205 1.392 . S
C204 H225 0.931 . S
C205 C204 1.392 . S
C205 C206 1.361 . S
C205 C207 1.500 . S
C206 C201 1.390 . S
C206 C205 1.361 . S
C206 H224 0.931 . S
C207 C205 1.500 . S
C207 C208 1.371 . S
C207 C209 1.365 . S
C208 C207 1.371 . S
C208 C218 1.386 . S
C208 H226 0.931 . S
C209 C207 1.365 . S
C209 C210 1.409 . S
C209 H227 0.929 . S
C210 C209 1.409 . S
C210 C211 1.380 . S
C210 H228 0.930 . S
C211 C210 1.380 . S
C211 C218 1.357 . S
C212 C203 1.511 . S
C212 C213 1.341 . S
C212 C214 1.371 . S
C213 C212 1.341 . S
C213 C217 1.394 . S
C213 H229 0.930 . S
C214 C212 1.371 . S
C214 C215 1.392 . S
C214 H230 0.931 . S
C215 C214 1.392 . S
C215 C216 1.331 . S
C215 H233 0.932 . S
C216 C215 1.331 . S
C216 C217 1.336 . S
C217 C213 1.394 . S
C217 C216 1.336 . S
C217 H232 0.929 . S
C218 C208 1.386 . S
C218 C211 1.357 . S
C218 H231 0.928 . S
H219 C195 0.931 . S
H220 C197 0.930 . S
H221 C199 0.929 . S
H222 C200 0.931 . S
H223 C202 0.930 . S
H224 C206 0.931 . S
H225 C204 0.931 . S
H226 C208 0.931 . S
H227 C209 0.929 . S
H228 C210 0.930 . S
H229 C213 0.930 . S
H230 C214 0.931 . S
H231 C218 0.928 . S
H232 C217 0.929 . S
H233 C215 0.932 . S
C234 C235 1.386 . S
C234 C236 1.397 . S
C234 H258 0.931 . S
C235 C234 1.386 . S
C235 C239 1.397 . S
C236 C234 1.397 . S
C236 C237 1.384 . S
C236 H259 0.930 . S
C237 C236 1.384 . S
C237 C238 1.377 . S
C237 C240 1.481 . S
C238 C237 1.377 . S
C238 C239 1.389 . S
C238 H260 0.929 . S
C239 C235 1.397 . S
C239 C238 1.389 . S
C239 H261 0.931 . S
C240 C237 1.481 . S
C240 C241 1.387 . S
C240 C245 1.390 . S
C241 C240 1.387 . S
C241 C242 1.401 . S
C241 H262 0.930 . S
C242 C241 1.401 . S
C242 C243 1.376 . S
C242 C251 1.511 . S
C243 C242 1.376 . S
C243 C244 1.392 . S
C243 H264 0.931 . S
C244 C243 1.392 . S
C244 C245 1.361 . S
C244 C246 1.500 . S
C245 C240 1.390 . S
C245 C244 1.361 . S
C245 H263 0.931 . S
C246 C244 1.500 . S
C246 C247 1.371 . S
C246 C248 1.365 . S
C247 C246 1.371 . S
C247 C257 1.386 . S
C247 H265 0.931 . S
C248 C246 1.365 . S
C248 C249 1.409 . S
C248 H266 0.929 . S
C249 C248 1.409 . S
C249 C250 1.380 . S
C249 H267 0.930 . S
C250 C249 1.380 . S
C250 C257 1.357 . S
C251 C242 1.511 . S
C251 C252 1.341 1_655 S
C251 C253 1.371 . S
C252 C251 1.341 1_455 S
C252 C256 1.394 . S
C252 H268 0.930 . S
C253 C251 1.371 . S
C253 C254 1.392 1_655 S
C253 H269 0.931 . S
C254 C253 1.392 1_455 S
C254 C255 1.331 . S
C254 H272 0.932 . S
C255 C254 1.331 . S
C255 C256 1.336 . S
C256 C252 1.394 . S
C256 C255 1.336 . S
C256 H271 0.929 . S
C257 C247 1.386 . S
C257 C250 1.357 . S
C257 H270 0.928 . S
H258 C234 0.931 . S
H259 C236 0.930 . S
H260 C238 0.929 . S
H261 C239 0.931 . S
H262 C241 0.930 . S
H263 C245 0.931 . S
H264 C243 0.931 . S
H265 C247 0.931 . S
H266 C248 0.929 . S
H267 C249 0.930 . S
H268 C252 0.930 . S
H269 C253 0.931 . S
H270 C257 0.928 . S
H271 C256 0.929 . S
H272 C254 0.932 . S
C273 C274 1.386 . S
C273 C275 1.397 . S
C273 H297 0.931 . S
C274 C273 1.386 . S
C274 C278 1.397 . S
C275 C273 1.397 . S
C275 C276 1.384 . S
C275 H298 0.930 . S
C276 C275 1.384 . S
C276 C277 1.377 . S
C276 C279 1.481 . S
C277 C276 1.377 . S
C277 C278 1.389 . S
C277 H299 0.929 . S
C278 C274 1.397 . S
C278 C277 1.389 . S
C278 H300 0.931 . S
C279 C276 1.481 . S
C279 C280 1.387 . S
C279 C284 1.390 . S
C280 C279 1.387 . S
C280 C281 1.401 . S
C280 H301 0.930 . S
C281 C280 1.401 . S
C281 C282 1.376 . S
C281 C290 1.511 . S
C282 C281 1.376 . S
C282 C283 1.392 . S
C282 H303 0.931 . S
C283 C282 1.392 . S
C283 C284 1.361 . S
C283 C285 1.500 . S
C284 C279 1.390 . S
C284 C283 1.361 . S
C284 H302 0.931 . S
C285 C283 1.500 . S
C285 C286 1.371 . S
C285 C287 1.365 . S
C286 C285 1.371 . S
C286 C296 1.386 . S
C286 H304 0.931 . S
C287 C285 1.365 . S
C287 C288 1.409 . S
C287 H305 0.929 . S
C288 C287 1.409 . S
C288 C289 1.380 . S
C288 H306 0.930 . S
C289 C288 1.380 . S
C289 C296 1.357 . S
C290 C281 1.511 . S
C290 C291 1.341 . S
C290 C292 1.371 . S
C291 C290 1.341 . S
C291 C295 1.394 . S
C291 H307 0.930 . S
C292 C290 1.371 . S
C292 C293 1.392 . S
C292 H308 0.931 . S
C293 C292 1.392 . S
C293 C294 1.331 . S
C293 H311 0.932 . S
C294 C293 1.331 . S
C294 C295 1.336 . S
C295 C291 1.394 . S
C295 C294 1.336 . S
C295 H310 0.929 . S
C296 C286 1.386 . S
C296 C289 1.357 . S
C296 H309 0.928 . S
H297 C273 0.931 . S
H298 C275 0.930 . S
H299 C277 0.929 . S
H300 C278 0.931 . S
H301 C280 0.930 . S
H302 C284 0.931 . S
H303 C282 0.931 . S
H304 C286 0.931 . S
H305 C287 0.929 . S
H306 C288 0.930 . S
H307 C291 0.930 . S
H308 C292 0.931 . S
H309 C296 0.928 . S
H310 C295 0.929 . S
H311 C293 0.932 . S
C312 C313 1.386 . S
C312 C314 1.397 . S
C312 H336 0.931 . S
C313 C312 1.386 . S
C313 C317 1.397 . S
C314 C312 1.397 . S
C314 C315 1.384 . S
C314 H337 0.930 . S
C315 C314 1.384 . S
C315 C316 1.377 . S
C315 C318 1.481 . S
C316 C315 1.377 . S
C316 C317 1.389 . S
C316 H338 0.929 . S
C317 C313 1.397 . S
C317 C316 1.389 . S
C317 H339 0.931 . S
C318 C315 1.481 . S
C318 C319 1.387 . S
C318 C323 1.390 . S
C319 C318 1.387 . S
C319 C320 1.401 . S
C319 H340 0.930 . S
C320 C319 1.401 . S
C320 C321 1.376 . S
C320 C329 1.511 . S
C321 C320 1.376 . S
C321 C322 1.392 . S
C321 H342 0.931 . S
C322 C321 1.392 . S
C322 C323 1.361 . S
C322 C324 1.500 . S
C323 C318 1.390 . S
C323 C322 1.361 . S
C323 H341 0.931 . S
C324 C322 1.500 . S
C324 C325 1.371 . S
C324 C326 1.365 . S
C325 C324 1.371 . S
C325 C335 1.386 . S
C325 H343 0.931 . S
C326 C324 1.365 . S
C326 C327 1.409 . S
C326 H344 0.929 . S
C327 C326 1.409 . S
C327 C328 1.380 . S
C327 H345 0.930 . S
C328 C327 1.380 . S
C328 C335 1.357 . S
C329 C320 1.511 . S
C329 C330 1.341 . S
C329 C331 1.371 . S
C330 C329 1.341 . S
C330 C334 1.394 . S
C330 H346 0.930 . S
C331 C329 1.371 . S
C331 C332 1.392 . S
C331 H347 0.931 . S
C332 C331 1.392 . S
C332 C333 1.331 . S
C332 H350 0.932 . S
C333 C332 1.331 . S
C333 C334 1.336 . S
C334 C330 1.394 . S
C334 C333 1.336 . S
C334 H349 0.929 . S
C335 C325 1.386 . S
C335 C328 1.357 . S
C335 H348 0.928 . S
H336 C312 0.931 . S
H337 C314 0.930 . S
H338 C316 0.929 . S
H339 C317 0.931 . S
H340 C319 0.930 . S
H341 C323 0.931 . S
H342 C321 0.931 . S
H343 C325 0.931 . S
H344 C326 0.929 . S
H345 C327 0.930 . S
H346 C330 0.930 . S
H347 C331 0.931 . S
H348 C335 0.928 . S
H349 C334 0.929 . S
H350 C332 0.932 . S
C351 C352 1.386 . S
C351 C353 1.397 . S
C351 H375 0.931 . S
C352 C351 1.386 . S
C352 C356 1.397 . S
C353 C351 1.397 . S
C353 C354 1.384 . S
C353 H376 0.930 . S
C354 C353 1.384 . S
C354 C355 1.377 . S
C354 C357 1.481 . S
C355 C354 1.377 . S
C355 C356 1.389 . S
C355 H377 0.929 . S
C356 C352 1.397 . S
C356 C355 1.389 . S
C356 H378 0.931 . S
C357 C354 1.481 . S
C357 C358 1.387 . S
C357 C362 1.390 . S
C358 C357 1.387 . S
C358 C359 1.401 . S
C358 H379 0.930 . S
C359 C358 1.401 . S
C359 C360 1.376 . S
C359 C368 1.511 . S
C360 C359 1.376 . S
C360 C361 1.392 . S
C360 H381 0.931 . S
C361 C360 1.392 . S
C361 C362 1.361 . S
C361 C363 1.500 . S
C362 C357 1.390 . S
C362 C361 1.361 . S
C362 H380 0.931 . S
C363 C361 1.500 . S
C363 C364 1.371 . S
C363 C365 1.365 . S
C364 C363 1.371 . S
C364 C374 1.386 . S
C364 H382 0.931 . S
C365 C363 1.365 . S
C365 C366 1.409 . S
C365 H383 0.929 . S
C366 C365 1.409 . S
C366 C367 1.380 . S
C366 H384 0.930 . S
C367 C366 1.380 . S
C367 C374 1.357 . S
C368 C359 1.511 . S
C368 C369 1.341 1_565 S
C368 C370 1.371 . S
C369 C368 1.341 1_545 S
C369 C373 1.394 . S
C369 H385 0.930 . S
C370 C368 1.371 . S
C370 C371 1.392 1_565 S
C370 H386 0.931 . S
C371 C370 1.392 1_545 S
C371 C372 1.331 . S
C371 H389 0.932 . S
C372 C371 1.331 . S
C372 C373 1.336 . S
C373 C369 1.394 . S
C373 C372 1.336 . S
C373 H388 0.929 . S
C374 C364 1.386 . S
C374 C367 1.357 . S
C374 H387 0.928 . S
H375 C351 0.931 . S
H376 C353 0.930 . S
H377 C355 0.929 . S
H378 C356 0.931 . S
H379 C358 0.930 . S
H380 C362 0.931 . S
H381 C360 0.931 . S
H382 C364 0.931 . S
H383 C365 0.929 . S
H384 C366 0.930 . S
H385 C369 0.930 . S
H386 C370 0.931 . S
H387 C374 0.928 . S
H388 C373 0.929 . S
H389 C371 0.932 . S
C390 C391 1.386 . S
C390 C392 1.397 . S
C390 H414 0.931 . S
C391 C390 1.386 . S
C391 C395 1.397 . S
C392 C390 1.397 . S
C392 C393 1.384 . S
C392 H415 0.930 . S
C393 C392 1.384 . S
C393 C394 1.377 . S
C393 C396 1.481 . S
C394 C393 1.377 . S
C394 C395 1.389 . S
C394 H416 0.929 . S
C395 C391 1.397 . S
C395 C394 1.389 . S
C395 H417 0.931 . S
C396 C393 1.481 . S
C396 C397 1.387 . S
C396 C401 1.390 . S
C397 C396 1.387 . S
C397 C398 1.401 . S
C397 H418 0.930 . S
C398 C397 1.401 . S
C398 C399 1.376 . S
C398 C407 1.511 . S
C399 C398 1.376 . S
C399 C400 1.392 . S
C399 H420 0.931 . S
C400 C399 1.392 . S
C400 C401 1.361 . S
C400 C402 1.500 . S
C401 C396 1.390 . S
C401 C400 1.361 . S
C401 H419 0.931 . S
C402 C400 1.500 . S
C402 C403 1.371 . S
C402 C404 1.365 . S
C403 C402 1.371 . S
C403 C413 1.386 . S
C403 H421 0.931 . S
C404 C402 1.365 . S
C404 C405 1.409 . S
C404 H422 0.929 . S
C405 C404 1.409 . S
C405 C406 1.380 . S
C405 H423 0.930 . S
C406 C405 1.380 . S
C406 C413 1.357 . S
C407 C398 1.511 . S
C407 C408 1.341 . S
C407 C409 1.371 . S
C408 C407 1.341 . S
C408 C412 1.394 . S
C408 H424 0.930 . S
C409 C407 1.371 . S
C409 C410 1.392 . S
C409 H425 0.931 . S
C410 C409 1.392 . S
C410 C411 1.331 . S
C410 H428 0.932 . S
C411 C410 1.331 . S
C411 C412 1.336 . S
C412 C408 1.394 . S
C412 C411 1.336 . S
C412 H427 0.929 . S
C413 C403 1.386 . S
C413 C406 1.357 . S
C413 H426 0.928 . S
H414 C390 0.931 . S
H415 C392 0.930 . S
H416 C394 0.929 . S
H417 C395 0.931 . S
H418 C397 0.930 . S
H419 C401 0.931 . S
H420 C399 0.931 . S
H421 C403 0.931 . S
H422 C404 0.929 . S
H423 C405 0.930 . S
H424 C408 0.930 . S
H425 C409 0.931 . S
H426 C413 0.928 . S
H427 C412 0.929 . S
H428 C410 0.932 . S
C429 C430 1.386 . S
C429 C431 1.397 . S
C429 H453 0.931 . S
C430 C429 1.386 . S
C430 C434 1.397 . S
C431 C429 1.397 . S
C431 C432 1.384 . S
C431 H454 0.930 . S
C432 C431 1.384 . S
C432 C433 1.377 . S
C432 C435 1.481 . S
C433 C432 1.377 . S
C433 C434 1.389 . S
C433 H455 0.929 . S
C434 C430 1.397 . S
C434 C433 1.389 . S
C434 H456 0.931 . S
C435 C432 1.481 . S
C435 C436 1.387 . S
C435 C440 1.390 . S
C436 C435 1.387 . S
C436 C437 1.401 . S
C436 H457 0.930 . S
C437 C436 1.401 . S
C437 C438 1.376 . S
C437 C446 1.511 . S
C438 C437 1.376 . S
C438 C439 1.392 . S
C438 H459 0.931 . S
C439 C438 1.392 . S
C439 C440 1.361 . S
C439 C441 1.500 . S
C440 C435 1.390 . S
C440 C439 1.361 . S
C440 H458 0.931 . S
C441 C439 1.500 . S
C441 C442 1.371 . S
C441 C443 1.365 . S
C442 C441 1.371 . S
C442 C452 1.386 . S
C442 H460 0.931 . S
C443 C441 1.365 . S
C443 C444 1.409 . S
C443 H461 0.929 . S
C444 C443 1.409 . S
C444 C445 1.380 . S
C444 H462 0.930 . S
C445 C444 1.380 . S
C445 C452 1.357 . S
C446 C437 1.511 . S
C446 C447 1.341 . S
C446 C448 1.371 . S
C447 C446 1.341 . S
C447 C451 1.394 . S
C447 H463 0.930 . S
C448 C446 1.371 . S
C448 C449 1.392 . S
C448 H464 0.931 . S
C449 C448 1.392 . S
C449 C450 1.331 . S
C449 H467 0.932 . S
C450 C449 1.331 . S
C450 C451 1.336 . S
C451 C447 1.394 . S
C451 C450 1.336 . S
C451 H466 0.929 . S
C452 C442 1.386 . S
C452 C445 1.357 . S
C452 H465 0.928 . S
H453 C429 0.931 . S
H454 C431 0.930 . S
H455 C433 0.929 . S
H456 C434 0.931 . S
H457 C436 0.930 . S
H458 C440 0.931 . S
H459 C438 0.931 . S
H460 C442 0.931 . S
H461 C443 0.929 . S
H462 C444 0.930 . S
H463 C447 0.930 . S
H464 C448 0.931 . S
H465 C452 0.928 . S
H466 C451 0.929 . S
H467 C449 0.932 . S
C468 C469 1.386 . S
C468 C470 1.397 . S
C468 H492 0.931 . S
C469 C468 1.386 . S
C469 C473 1.397 . S
C470 C468 1.397 . S
C470 C471 1.384 . S
C470 H493 0.930 . S
C471 C470 1.384 . S
C471 C472 1.377 . S
C471 C474 1.481 . S
C472 C471 1.377 . S
C472 C473 1.389 . S
C472 H494 0.929 . S
C473 C469 1.397 . S
C473 C472 1.389 . S
C473 H495 0.931 . S
C474 C471 1.481 . S
C474 C475 1.387 . S
C474 C479 1.390 . S
C475 C474 1.387 . S
C475 C476 1.401 . S
C475 H496 0.930 . S
C476 C475 1.401 . S
C476 C477 1.376 . S
C476 C485 1.511 . S
C477 C476 1.376 . S
C477 C478 1.392 . S
C477 H498 0.931 . S
C478 C477 1.392 . S
C478 C479 1.361 . S
C478 C480 1.500 . S
C479 C474 1.390 . S
C479 C478 1.361 . S
C479 H497 0.931 . S
C480 C478 1.500 . S
C480 C481 1.371 . S
C480 C482 1.365 . S
C481 C480 1.371 . S
C481 C491 1.386 . S
C481 H499 0.931 . S
C482 C480 1.365 . S
C482 C483 1.409 . S
C482 H500 0.929 . S
C483 C482 1.409 . S
C483 C484 1.380 . S
C483 H501 0.930 . S
C484 C483 1.380 . S
C484 C491 1.357 . S
C485 C476 1.511 . S
C485 C486 1.341 . S
C485 C487 1.371 . S
C486 C485 1.341 . S
C486 C490 1.394 . S
C486 H502 0.930 . S
C487 C485 1.371 . S
C487 C488 1.392 . S
C487 H503 0.931 . S
C488 C487 1.392 . S
C488 C489 1.331 . S
C488 H506 0.932 . S
C489 C488 1.331 . S
C489 C490 1.336 . S
C490 C486 1.394 . S
C490 C489 1.336 . S
C490 H505 0.929 . S
C491 C481 1.386 . S
C491 C484 1.357 . S
C491 H504 0.928 . S
H492 C468 0.931 . S
H493 C470 0.930 . S
H494 C472 0.929 . S
H495 C473 0.931 . S
H496 C475 0.930 . S
H497 C479 0.931 . S
H498 C477 0.931 . S
H499 C481 0.931 . S
H500 C482 0.929 . S
H501 C483 0.930 . S
H502 C486 0.930 . S
H503 C487 0.931 . S
H504 C491 0.928 . S
H505 C490 0.929 . S
H506 C488 0.932 . S
C507 C508 1.386 . S
C507 C509 1.397 . S
C507 H531 0.931 . S
C508 C507 1.386 . S
C508 C512 1.397 . S
C509 C507 1.397 . S
C509 C510 1.384 . S
C509 H532 0.930 . S
C510 C509 1.384 . S
C510 C511 1.377 . S
C510 C513 1.481 . S
C511 C510 1.377 . S
C511 C512 1.389 . S
C511 H533 0.929 . S
C512 C508 1.397 . S
C512 C511 1.389 . S
C512 H534 0.931 . S
C513 C510 1.481 . S
C513 C514 1.387 . S
C513 C518 1.390 . S
C514 C513 1.387 . S
C514 C515 1.401 . S
C514 H535 0.930 . S
C515 C514 1.401 . S
C515 C516 1.376 . S
C515 C524 1.511 . S
C516 C515 1.376 . S
C516 C517 1.392 . S
C516 H537 0.931 . S
C517 C516 1.392 . S
C517 C518 1.361 . S
C517 C519 1.500 . S
C518 C513 1.390 . S
C518 C517 1.361 . S
C518 H536 0.931 . S
C519 C517 1.500 . S
C519 C520 1.371 . S
C519 C521 1.365 . S
C520 C519 1.371 . S
C520 C530 1.386 . S
C520 H538 0.931 . S
C521 C519 1.365 . S
C521 C522 1.409 . S
C521 H539 0.929 . S
C522 C521 1.409 . S
C522 C523 1.380 . S
C522 H540 0.930 . S
C523 C522 1.380 . S
C523 C530 1.357 . S
C524 C515 1.511 . S
C524 C525 1.341 . S
C524 C526 1.371 . S
C525 C524 1.341 . S
C525 C529 1.381 1_556 S
C525 H541 0.930 . S
C526 C524 1.371 . S
C526 C527 1.392 1_556 S
C526 H542 0.931 . S
C527 C526 1.392 1_554 S
C527 C528 1.331 . S
C527 H545 0.932 . S
C528 C527 1.331 . S
C528 C529 1.349 . S
C529 C525 1.381 1_554 S
C529 C528 1.349 . S
C529 H544 0.928 . S
C530 C520 1.386 . S
C530 C523 1.357 . S
C530 H543 0.923 1_556 S
H531 C507 0.931 . S
H532 C509 0.930 . S
H533 C511 0.929 . S
H534 C512 0.931 . S
H535 C514 0.930 . S
H536 C518 0.931 . S
H537 C516 0.931 . S
H538 C520 0.931 . S
H539 C521 0.929 . S
H540 C522 0.930 . S
H541 C525 0.930 . S
H542 C526 0.931 . S
H543 C530 0.923 1_554 S
H544 C529 0.928 . S
H545 C527 0.932 . S
C546 C547 1.386 . S
C546 C548 1.397 . S
C546 H570 0.931 . S
C547 C546 1.386 . S
C547 C551 1.397 . S
C548 C546 1.397 . S
C548 C549 1.384 . S
C548 H571 0.930 . S
C549 C548 1.384 . S
C549 C550 1.377 . S
C549 C552 1.481 . S
C550 C549 1.377 . S
C550 C551 1.389 . S
C550 H572 0.929 . S
C551 C547 1.397 . S
C551 C550 1.389 . S
C551 H573 0.931 . S
C552 C549 1.481 . S
C552 C553 1.387 . S
C552 C557 1.390 . S
C553 C552 1.387 . S
C553 C554 1.401 . S
C553 H574 0.930 . S
C554 C553 1.401 . S
C554 C555 1.376 . S
C554 C563 1.511 . S
C555 C554 1.376 . S
C555 C556 1.392 . S
C555 H576 0.931 . S
C556 C555 1.392 . S
C556 C557 1.361 . S
C556 C558 1.500 . S
C557 C552 1.390 . S
C557 C556 1.361 . S
C557 H575 0.931 . S
C558 C556 1.500 . S
C558 C559 1.371 . S
C558 C560 1.365 . S
C559 C558 1.371 . S
C559 C569 1.386 . S
C559 H577 0.931 . S
C560 C558 1.365 . S
C560 C561 1.409 . S
C560 H578 0.929 . S
C561 C560 1.409 . S
C561 C562 1.380 . S
C561 H579 0.930 . S
C562 C561 1.380 . S
C562 C569 1.357 . S
C563 C554 1.511 . S
C563 C564 1.341 . S
C563 C565 1.371 . S
C564 C563 1.341 . S
C564 C568 1.394 . S
C564 H580 0.930 . S
C565 C563 1.371 . S
C565 C566 1.392 . S
C565 H581 0.931 . S
C566 C565 1.392 . S
C566 C567 1.331 . S
C566 H584 0.932 . S
C567 C566 1.331 . S
C567 C568 1.336 . S
C568 C564 1.394 . S
C568 C567 1.336 . S
C568 H583 0.929 . S
C569 C559 1.386 . S
C569 C562 1.357 . S
C569 H582 0.928 . S
H570 C546 0.931 . S
H571 C548 0.930 . S
H572 C550 0.929 . S
H573 C551 0.931 . S
H574 C553 0.930 . S
H575 C557 0.931 . S
H576 C555 0.931 . S
H577 C559 0.931 . S
H578 C560 0.929 . S
H579 C561 0.930 . S
H580 C564 0.930 . S
H581 C565 0.931 . S
H582 C569 0.928 . S
H583 C568 0.929 . S
H584 C566 0.932 . S
C585 C586 1.386 1_556 S
C585 C587 1.397 . S
C585 H609 0.931 . S
C586 C585 1.386 1_554 S
C586 C590 1.397 . S
C587 C585 1.397 . S
C587 C588 1.384 . S
C587 H610 0.930 . S
C588 C587 1.384 . S
C588 C589 1.377 1_556 S
C588 C591 1.481 . S
C589 C588 1.377 1_554 S
C589 C590 1.389 . S
C589 H611 0.929 . S
C590 C586 1.397 . S
C590 C589 1.389 . S
C590 H612 0.931 . S
C591 C588 1.481 . S
C591 C592 1.387 . S
C591 C596 1.390 . S
C592 C591 1.387 . S
C592 C593 1.401 . S
C592 H613 0.930 . S
C593 C592 1.401 . S
C593 C594 1.376 . S
C593 C602 1.511 . S
C594 C593 1.376 . S
C594 C595 1.392 . S
C594 H615 0.931 . S
C595 C594 1.392 . S
C595 C596 1.361 . S
C595 C597 1.500 . S
C596 C591 1.390 . S
C596 C595 1.361 . S
C596 H614 0.931 . S
C597 C595 1.500 . S
C597 C598 1.371 . S
C597 C599 1.365 . S
C598 C597 1.371 . S
C598 C608 1.386 1_545 S
C598 H616 0.931 . S
C599 C597 1.365 . S
C599 C600 1.435 . S
C599 H617 0.929 1_556 S
C600 C599 1.435 . S
C600 C601 1.360 1_545 S
C600 H618 0.926 1_546 S
C601 C600 1.360 1_565 S
C601 C608 1.357 . S
C602 C593 1.511 . S
C602 C603 1.341 . S
C602 C604 1.371 . S
C603 C602 1.341 . S
C603 C607 1.394 . S
C603 H619 0.930 . S
C604 C602 1.371 . S
C604 C605 1.392 . S
C604 H620 0.931 . S
C605 C604 1.392 . S
C605 C606 1.331 . S
C605 H623 0.964 . S
C606 C605 1.331 . S
C606 C607 1.336 . S
C607 C603 1.394 . S
C607 C606 1.336 . S
C607 H622 0.929 . S
C608 C598 1.386 1_565 S
C608 C601 1.357 . S
C608 H621 0.928 . S
H609 C585 0.931 . S
H610 C587 0.930 . S
H611 C589 0.929 . S
H612 C590 0.931 . S
H613 C592 0.930 . S
H614 C596 0.931 . S
H615 C594 0.931 . S
H616 C598 0.931 . S
H617 C599 0.929 1_554 S
H618 C600 0.926 1_564 S
H619 C603 0.930 . S
H620 C604 0.931 . S
H621 C608 0.928 . S
H622 C607 0.929 . S
H623 C605 0.964 . S
C624 O625 1.160 1_554 S
C624 O631 1.185 . S
O625 C624 1.160 1_556 S
O626 Zn627 1.899 1_556 S
O626 C634 1.284 . S
Zn627 O626 1.899 1_554 S
Zn627 O628 2.032 . S
Zn627 O631 2.086 . S
Zn627 O636 1.977 . S
O628 Zn627 2.032 . S
O628 C632 1.278 . S
C629 O630 1.203 . S
C629 O636 1.267 . S
O630 C629 1.203 . S
O631 C624 1.185 . S
O631 Zn627 2.086 . S
C632 O628 1.278 . S
C632 O633 1.211 . S
O633 C632 1.211 . S
C634 O626 1.284 . S
C634 O635 1.273 . S
O635 C634 1.273 . S
O636 Zn627 1.977 . S
O636 C629 1.267 . S
C637 O638 1.160 . S
C637 O644 1.185 . S
O638 C637 1.160 . S
O639 Zn640 1.899 . S
O639 C647 1.284 . S
Zn640 O639 1.899 . S
Zn640 O641 2.032 . S
Zn640 O644 2.086 . S
Zn640 O649 1.977 . S
O641 Zn640 2.032 . S
O641 C645 1.278 . S
C642 O643 1.203 . S
C642 O649 1.267 . S
O643 C642 1.203 . S
O644 C637 1.185 . S
O644 Zn640 2.086 . S
C645 O641 1.278 . S
C645 O646 1.211 . S
O646 C645 1.211 . S
C647 O639 1.284 . S
C647 O648 1.273 . S
O648 C647 1.273 . S
O649 Zn640 1.977 . S
O649 C642 1.267 . S
C650 O651 1.160 1_554 S
C650 O657 1.185 . S
O651 C650 1.160 1_556 S
O652 Zn653 1.899 1_556 S
O652 C660 1.284 . S
Zn653 O652 1.899 1_554 S
Zn653 O654 2.032 1_554 S
Zn653 O657 2.086 . S
Zn653 O662 1.977 . S
O654 Zn653 2.032 1_556 S
O654 C658 1.278 . S
C655 O656 1.203 . S
C655 O662 1.267 . S
O656 C655 1.203 . S
O657 C650 1.185 . S
O657 Zn653 2.086 . S
C658 O654 1.278 . S
C658 O659 1.211 1_556 S
O659 C658 1.211 1_554 S
C660 O652 1.284 . S
C660 O661 1.273 . S
O661 C660 1.273 . S
O662 Zn653 1.977 . S
O662 C655 1.267 . S
C663 O664 1.160 . S
C663 O670 1.185 . S
O664 C663 1.160 . S
O665 Zn666 1.899 . S
O665 C673 1.284 . S
Zn666 O665 1.899 . S
Zn666 O667 2.043 . S
Zn666 O670 2.086 . S
Zn666 O675 1.977 . S
O667 Zn666 2.043 . S
O667 C671 1.262 1_545 S
C668 O669 1.203 . S
C668 O675 1.267 . S
O669 C668 1.203 . S
O670 C663 1.185 . S
O670 Zn666 2.086 . S
C671 O667 1.262 1_565 S
C671 O672 1.211 . S
O672 C671 1.211 . S
C673 O665 1.284 . S
C673 O674 1.273 1_545 S
O674 C673 1.273 1_565 S
O675 Zn666 1.977 . S
O675 C668 1.267 . S
C676 O677 1.160 . S
C676 O683 1.185 . S
O677 C676 1.160 . S
O678 Zn679 1.899 . S
O678 C686 1.284 . S
Zn679 O678 1.899 . S
Zn679 O680 2.032 . S
Zn679 O683 2.086 . S
Zn679 O688 1.977 . S
O680 Zn679 2.032 . S
O680 C684 1.278 . S
C681 O682 1.203 . S
C681 O688 1.267 . S
O682 C681 1.203 . S
O683 C676 1.185 . S
O683 Zn679 2.086 . S
C684 O680 1.278 . S
C684 O685 1.211 . S
O685 C684 1.211 . S
C686 O678 1.284 . S
C686 O687 1.273 . S
O687 C686 1.273 . S
O688 Zn679 1.977 . S
O688 C681 1.267 . S
C689 O690 1.160 . S
C689 O696 1.185 . S
O690 C689 1.160 . S
O691 Zn692 1.899 . S
O691 C699 1.284 . S
Zn692 O691 1.899 . S
Zn692 O693 2.032 . S
Zn692 O696 2.086 . S
Zn692 O701 1.977 . S
O693 Zn692 2.032 . S
O693 C697 1.278 . S
C694 O695 1.203 . S
C694 O701 1.267 . S
O695 C694 1.203 . S
O696 C689 1.185 . S
O696 Zn692 2.086 . S
C697 O693 1.278 . S
C697 O698 1.211 . S
O698 C697 1.211 . S
C699 O691 1.284 . S
C699 O700 1.273 . S
O700 C699 1.273 . S
O701 Zn692 1.977 . S
O701 C694 1.267 . S
C702 O703 1.160 . S
C702 O709 1.185 . S
O703 C702 1.160 . S
O704 Zn705 1.899 . S
O704 C712 1.284 . S
Zn705 O704 1.899 . S
Zn705 O706 2.032 . S
Zn705 O709 2.086 . S
Zn705 O714 1.977 . S
O706 Zn705 2.032 . S
O706 C710 1.278 . S
C707 O708 1.203 . S
C707 O714 1.267 . S
O708 C707 1.203 . S
O709 C702 1.185 . S
O709 Zn705 2.086 . S
C710 O706 1.278 . S
C710 O711 1.211 . S
O711 C710 1.211 . S
C712 O704 1.284 . S
C712 O713 1.273 . S
O713 C712 1.273 . S
O714 Zn705 1.977 . S
O714 C707 1.267 . S
C715 O716 1.160 . S
C715 O722 1.185 . S
O716 C715 1.160 . S
O717 Zn718 1.899 . S
O717 C725 1.284 1_565 S
Zn718 O717 1.899 . S
Zn718 O719 2.032 1_565 S
Zn718 O722 2.086 . S
Zn718 O727 1.977 . S
O719 Zn718 2.032 1_545 S
O719 C723 1.278 . S
C720 O721 1.203 1_565 S
C720 O727 1.267 . S
O721 C720 1.203 1_545 S
O722 C715 1.185 . S
O722 Zn718 2.086 . S
C723 O719 1.278 . S
C723 O724 1.211 . S
O724 C723 1.211 . S
C725 O717 1.284 1_545 S
C725 O726 1.273 . S
O726 C725 1.273 . S
O727 Zn718 1.977 . S
O727 C720 1.267 . S
C728 O729 1.160 1_455 S
C728 O735 1.185 . S
O729 C728 1.160 1_655 S
O730 Zn731 1.899 1_655 S
O730 C738 1.284 . S
Zn731 O730 1.899 1_455 S
Zn731 O732 2.032 1_455 S
Zn731 O735 2.086 . S
Zn731 O740 1.977 . S
O732 Zn731 2.032 1_655 S
O732 C736 1.276 1_655 S
C733 O734 1.203 . S
C733 O740 1.267 . S
O734 C733 1.203 . S
O735 C728 1.185 . S
O735 Zn731 2.086 . S
C736 O732 1.276 1_455 S
C736 O737 1.220 . S
O737 C736 1.220 . S
C738 O730 1.284 . S
C738 O739 1.273 . S
O739 C738 1.273 . S
O740 Zn731 1.977 . S
O740 C733 1.267 . S
C741 O742 1.160 . S
C741 O748 1.185 . S
O742 C741 1.160 . S
O743 Zn744 1.899 . S
O743 C751 1.284 . S
Zn744 O743 1.899 . S
Zn744 O745 2.032 . S
Zn744 O748 2.086 . S
Zn744 O753 1.977 . S
O745 Zn744 2.032 . S
O745 C749 1.278 . S
C746 O747 1.203 . S
C746 O753 1.267 . S
O747 C746 1.203 . S
O748 C741 1.185 . S
O748 Zn744 2.086 . S
C749 O745 1.278 . S
C749 O750 1.211 . S
O750 C749 1.211 . S
C751 O743 1.284 . S
C751 O752 1.273 . S
O752 C751 1.273 . S
O753 Zn744 1.977 . S
O753 C746 1.267 . S
C754 O755 1.160 1_455 S
C754 O761 1.185 . S
O755 C754 1.160 1_655 S
O756 Zn757 1.899 1_655 S
O756 C764 1.284 . S
Zn757 O756 1.899 1_455 S
Zn757 O758 2.032 1_455 S
Zn757 O761 2.086 . S
Zn757 O766 1.977 . S
O758 Zn757 2.032 1_655 S
O758 C762 1.276 1_655 S
C759 O760 1.203 . S
C759 O766 1.267 . S
O760 C759 1.203 . S
O761 C754 1.185 . S
O761 Zn757 2.086 . S
C762 O758 1.276 1_455 S
C762 O763 1.215 . S
O763 C762 1.215 . S
C764 O756 1.284 . S
C764 O765 1.273 . S
O765 C764 1.273 . S
O766 Zn757 1.977 . S
O766 C759 1.267 . S
C767 O768 1.160 . S
C767 O774 1.185 . S
O768 C767 1.160 . S
O769 Zn770 1.899 . S
O769 C777 1.284 . S
Zn770 O769 1.899 . S
Zn770 O771 2.032 . S
Zn770 O774 2.086 . S
Zn770 O779 1.977 . S
O771 Zn770 2.032 . S
O771 C775 1.278 . S
C772 O773 1.203 . S
C772 O779 1.267 . S
O773 C772 1.203 . S
O774 C767 1.185 . S
O774 Zn770 2.086 . S
C775 O771 1.278 . S
C775 O776 1.211 . S
O776 C775 1.211 . S
C777 O769 1.284 . S
C777 O778 1.273 . S
O778 C777 1.273 . S
O779 Zn770 1.977 . S
O779 C772 1.267 . S
H780 C788 0.950 . S
H781 C793 0.950 . S
H782 C790 0.950 . S
H783 C792 0.950 . S
H784 C794 0.950 . S
H785 C796 0.950 . S
H786 C798 0.950 . S
H787 C799 0.950 . S
C788 H780 0.950 . S
C788 C789 1.386 . S
C788 C790 1.391 . S
C789 C788 1.386 . S
C789 C793 1.393 . S
C790 H782 0.950 . S
C790 C788 1.391 . S
C790 C791 1.400 . S
C791 C790 1.400 . S
C791 C792 1.398 . S
C791 C797 1.491 . S
C792 H783 0.950 . S
C792 C791 1.398 . S
C792 C793 1.391 . S
C793 H781 0.950 . S
C793 C789 1.393 . S
C793 C792 1.391 . S
C794 H784 0.950 . S
C794 C795 1.386 . S
C794 C796 1.391 . S
C795 C794 1.386 . S
C795 C799 1.393 . S
C796 H785 0.950 . S
C796 C794 1.391 . S
C796 C797 1.400 . S
C797 C791 1.491 . S
C797 C796 1.400 . S
C797 C798 1.398 . S
C798 H786 0.950 . S
C798 C797 1.398 . S
C798 C799 1.391 . S
C799 H787 0.950 . S
C799 C795 1.393 . S
C799 C798 1.391 . S
H800 C808 0.950 . S
H801 C813 0.950 . S
H802 C810 0.950 . S
H803 C812 0.950 . S
H804 C814 0.950 . S
H805 C816 0.950 . S
H806 C818 0.950 . S
H807 C819 0.950 . S
C808 H800 0.950 . S
C808 C809 1.386 . S
C808 C810 1.391 . S
C809 C808 1.386 . S
C809 C813 1.393 . S
C810 H802 0.950 . S
C810 C808 1.391 . S
C810 C811 1.400 . S
C811 C810 1.400 . S
C811 C812 1.398 . S
C811 C817 1.491 . S
C812 H803 0.950 . S
C812 C811 1.398 . S
C812 C813 1.391 . S
C813 H801 0.950 . S
C813 C809 1.393 . S
C813 C812 1.391 . S
C814 H804 0.950 . S
C814 C815 1.386 . S
C814 C816 1.391 . S
C815 C814 1.386 . S
C815 C819 1.393 . S
C816 H805 0.950 . S
C816 C814 1.391 . S
C816 C817 1.400 . S
C817 C811 1.491 . S
C817 C816 1.400 . S
C817 C818 1.398 . S
C818 H806 0.950 . S
C818 C817 1.398 . S
C818 C819 1.391 . S
C819 H807 0.950 . S
C819 C815 1.393 . S
C819 C818 1.391 . S
H820 C828 0.950 . S
H821 C833 0.950 . S
H822 C830 0.950 . S
H823 C832 0.950 . S
H824 C834 0.950 . S
H825 C836 0.950 . S
H826 C838 0.950 . S
H827 C839 0.950 . S
C828 H820 0.950 . S
C828 C829 1.386 . S
C828 C830 1.391 . S
C829 C828 1.386 . S
C829 C833 1.393 . S
C830 H822 0.950 . S
C830 C828 1.391 . S
C830 C831 1.400 . S
C831 C830 1.400 . S
C831 C832 1.398 . S
C831 C837 1.491 . S
C832 H823 0.950 . S
C832 C831 1.398 . S
C832 C833 1.391 . S
C833 H821 0.950 . S
C833 C829 1.393 . S
C833 C832 1.391 . S
C834 H824 0.950 . S
C834 C835 1.386 . S
C834 C836 1.391 . S
C835 C834 1.386 . S
C835 C839 1.393 . S
C836 H825 0.950 . S
C836 C834 1.391 . S
C836 C837 1.400 . S
C837 C831 1.491 . S
C837 C836 1.400 . S
C837 C838 1.398 . S
C838 H826 0.950 . S
C838 C837 1.398 . S
C838 C839 1.391 . S
C839 H827 0.950 . S
C839 C835 1.393 . S
C839 C838 1.391 . S
H840 C848 0.950 . S
H841 C853 0.950 . S
H842 C850 0.950 . S
H843 C852 0.950 . S
H844 C854 0.950 . S
H845 C856 0.950 . S
H846 C858 0.950 . S
H847 C859 0.950 . S
C848 H840 0.950 . S
C848 C849 1.386 1_545 S
C848 C850 1.391 . S
C849 C848 1.386 1_565 S
C849 C853 1.393 . S
C850 H842 0.950 . S
C850 C848 1.391 . S
C850 C851 1.400 1_545 S
C851 C850 1.400 1_565 S
C851 C852 1.398 . S
C851 C857 1.500 . S
C852 H843 0.950 . S
C852 C851 1.398 . S
C852 C853 1.391 . S
C853 H841 0.950 . S
C853 C849 1.393 . S
C853 C852 1.391 . S
C854 H844 0.950 . S
C854 C855 1.386 1_565 S
C854 C856 1.391 . S
C855 C854 1.386 1_545 S
C855 C859 1.393 . S
C856 H845 0.950 . S
C856 C854 1.391 . S
C856 C857 1.428 . S
C857 C851 1.500 . S
C857 C856 1.428 . S
C857 C858 1.363 1_565 S
C858 H846 0.950 . S
C858 C857 1.363 1_545 S
C858 C859 1.391 . S
C859 H847 0.950 . S
C859 C855 1.393 . S
C859 C858 1.391 . S
H860 C868 0.950 . S
H861 C873 0.950 . S
H862 C870 0.950 . S
H863 C872 0.950 . S
H864 C874 0.950 . S
H865 C876 0.950 . S
H866 C878 0.950 . S
H867 C879 0.950 . S
C868 H860 0.950 . S
C868 C869 1.386 . S
C868 C870 1.391 . S
C869 C868 1.386 . S
C869 C873 1.393 . S
C870 H862 0.950 . S
C870 C868 1.391 . S
C870 C871 1.400 . S
C871 C870 1.400 . S
C871 C872 1.398 . S
C871 C877 1.491 . S
C872 H863 0.950 . S
C872 C871 1.398 . S
C872 C873 1.391 . S
C873 H861 0.950 . S
C873 C869 1.393 . S
C873 C872 1.391 . S
C874 H864 0.950 . S
C874 C875 1.386 . S
C874 C876 1.391 . S
C875 C874 1.386 . S
C875 C879 1.393 . S
C876 H865 0.950 . S
C876 C874 1.391 . S
C876 C877 1.400 . S
C877 C871 1.491 . S
C877 C876 1.400 . S
C877 C878 1.398 . S
C878 H866 0.950 . S
C878 C877 1.398 . S
C878 C879 1.391 . S
C879 H867 0.950 . S
C879 C875 1.393 . S
C879 C878 1.391 . S
H880 C888 0.950 . S
H881 C893 0.950 . S
H882 C890 0.950 . S
H883 C892 0.950 . S
H884 C894 0.950 . S
H885 C896 0.950 . S
H886 C898 0.950 . S
H887 C899 0.950 . S
C888 H880 0.950 . S
C888 C889 1.386 . S
C888 C890 1.391 . S
C889 C888 1.386 . S
C889 C893 1.393 . S
C890 H882 0.950 . S
C890 C888 1.391 . S
C890 C891 1.400 . S
C891 C890 1.400 . S
C891 C892 1.398 . S
C891 C897 1.491 . S
C892 H883 0.950 . S
C892 C891 1.398 . S
C892 C893 1.391 . S
C893 H881 0.950 . S
C893 C889 1.393 . S
C893 C892 1.391 . S
C894 H884 0.950 . S
C894 C895 1.386 . S
C894 C896 1.391 . S
C895 C894 1.386 . S
C895 C899 1.393 . S
C896 H885 0.950 . S
C896 C894 1.391 . S
C896 C897 1.400 . S
C897 C891 1.491 . S
C897 C896 1.400 . S
C897 C898 1.398 . S
C898 H886 0.950 . S
C898 C897 1.398 . S
C898 C899 1.391 . S
C899 H887 0.950 . S
C899 C895 1.393 . S
C899 C898 1.391 . S
H900 C908 0.950 . S
H901 C913 0.950 . S
H902 C910 0.950 . S
H903 C912 0.950 . S
H904 C914 0.950 . S
H905 C916 0.950 . S
H906 C918 0.950 . S
H907 C919 0.950 . S
C908 H900 0.950 . S
C908 C909 1.386 . S
C908 C910 1.391 . S
C909 C908 1.386 . S
C909 C913 1.393 . S
C910 H902 0.950 . S
C910 C908 1.391 . S
C910 C911 1.400 . S
C911 C910 1.400 . S
C911 C912 1.398 . S
C911 C917 1.491 . S
C912 H903 0.950 . S
C912 C911 1.398 . S
C912 C913 1.391 . S
C913 H901 0.950 . S
C913 C909 1.393 . S
C913 C912 1.391 . S
C914 H904 0.950 . S
C914 C915 1.386 . S
C914 C916 1.391 . S
C915 C914 1.386 . S
C915 C919 1.393 . S
C916 H905 0.950 . S
C916 C914 1.391 . S
C916 C917 1.400 . S
C917 C911 1.491 . S
C917 C916 1.400 . S
C917 C918 1.398 . S
C918 H906 0.950 . S
C918 C917 1.398 . S
C918 C919 1.391 . S
C919 H907 0.950 . S
C919 C915 1.393 . S
C919 C918 1.391 . S
H920 C928 0.950 . S
H921 C933 0.950 . S
H922 C930 0.950 . S
H923 C932 0.950 . S
H924 C934 0.950 . S
H925 C936 0.950 . S
H926 C938 0.950 . S
H927 C939 0.950 . S
C928 H920 0.950 . S
C928 C929 1.386 . S
C928 C930 1.391 . S
C929 C928 1.386 . S
C929 C933 1.393 1_565 S
C930 H922 0.950 . S
C930 C928 1.391 . S
C930 C931 1.400 . S
C931 C930 1.400 . S
C931 C932 1.398 1_565 S
C931 C937 1.491 . S
C932 H923 0.950 . S
C932 C931 1.398 1_545 S
C932 C933 1.391 . S
C933 H921 0.950 . S
C933 C929 1.393 1_545 S
C933 C932 1.391 . S
C934 H924 0.950 . S
C934 C935 1.386 1_545 S
C934 C936 1.391 . S
C935 C934 1.386 1_565 S
C935 C939 1.393 . S
C936 H925 0.950 . S
C936 C934 1.391 . S
C936 C937 1.400 1_545 S
C937 C931 1.491 . S
C937 C936 1.400 1_565 S
C937 C938 1.398 . S
C938 H926 0.950 . S
C938 C937 1.398 . S
C938 C939 1.391 . S
C939 H927 0.950 . S
C939 C935 1.393 . S
C939 C938 1.391 . S
H940 C948 0.950 . S
H941 C953 0.950 . S
H942 C950 0.950 . S
H943 C952 0.950 . S
H944 C954 0.950 . S
H945 C956 0.950 . S
H946 C958 0.950 . S
H947 C959 0.950 . S
C948 H940 0.950 . S
C948 C949 1.386 . S
C948 C950 1.391 . S
C949 C948 1.386 . S
C949 C953 1.393 . S
C950 H942 0.950 . S
C950 C948 1.391 . S
C950 C951 1.400 . S
C951 C950 1.400 . S
C951 C952 1.398 . S
C951 C957 1.491 . S
C952 H943 0.950 . S
C952 C951 1.398 . S
C952 C953 1.391 . S
C953 H941 0.950 . S
C953 C949 1.393 . S
C953 C952 1.391 . S
C954 H944 0.950 . S
C954 C955 1.386 . S
C954 C956 1.391 . S
C955 C954 1.386 . S
C955 C959 1.393 . S
C956 H945 0.950 . S
C956 C954 1.391 . S
C956 C957 1.400 . S
C957 C951 1.491 . S
C957 C956 1.400 . S
C957 C958 1.398 . S
C958 H946 0.950 . S
C958 C957 1.398 . S
C958 C959 1.391 . S
C959 H947 0.950 . S
C959 C955 1.393 . S
C959 C958 1.391 . S
H960 C968 0.950 . S
H961 C973 0.950 . S
H962 C970 0.950 . S
H963 C972 0.950 . S
H964 C974 0.950 . S
H965 C976 0.950 . S
H966 C978 0.950 . S
H967 C979 0.950 . S
C968 H960 0.950 . S
C968 C969 1.386 . S
C968 C970 1.391 . S
C969 C968 1.386 . S
C969 C973 1.393 . S
C970 H962 0.950 . S
C970 C968 1.391 . S
C970 C971 1.400 . S
C971 C970 1.400 . S
C971 C972 1.398 . S
C971 C977 1.491 . S
C972 H963 0.950 . S
C972 C971 1.398 . S
C972 C973 1.391 . S
C973 H961 0.950 . S
C973 C969 1.393 . S
C973 C972 1.391 . S
C974 H964 0.950 . S
C974 C975 1.386 . S
C974 C976 1.391 . S
C975 C974 1.386 . S
C975 C979 1.393 . S
C976 H965 0.950 . S
C976 C974 1.391 . S
C976 C977 1.400 . S
C977 C971 1.491 . S
C977 C976 1.400 . S
C977 C978 1.398 . S
C978 H966 0.950 . S
C978 C977 1.398 . S
C978 C979 1.391 . S
C979 H967 0.950 . S
C979 C975 1.393 . S
C979 C978 1.391 . S
H980 C988 0.950 . S
H981 C993 0.950 . S
H982 C990 0.950 . S
H983 C992 0.950 . S
H984 C994 0.950 . S
H985 C996 0.950 . S
H986 C998 0.950 . S
H987 C999 0.950 . S
C988 H980 0.950 . S
C988 C989 1.386 . S
C988 C990 1.391 . S
C989 C988 1.386 . S
C989 C993 1.393 . S
C990 H982 0.950 . S
C990 C988 1.391 . S
C990 C991 1.400 . S
C991 C990 1.400 . S
C991 C992 1.398 . S
C991 C997 1.491 . S
C992 H983 0.950 . S
C992 C991 1.398 . S
C992 C993 1.391 . S
C993 H981 0.950 . S
C993 C989 1.393 . S
C993 C992 1.391 . S
C994 H984 0.950 . S
C994 C995 1.386 . S
C994 C996 1.391 . S
C995 C994 1.386 . S
C995 C999 1.393 . S
C996 H985 0.950 . S
C996 C994 1.391 . S
C996 C997 1.400 . S
C997 C991 1.491 . S
C997 C996 1.400 . S
C997 C998 1.398 . S
C998 H986 0.950 . S
C998 C997 1.398 . S
C998 C999 1.391 . S
C999 H987 0.950 . S
C999 C995 1.393 . S
C999 C998 1.391 . S
H1000 C1008 0.950 . S
H1001 C1013 0.950 . S
H1002 C1010 0.950 . S
H1003 C1012 0.950 . S
H1004 C1014 0.950 . S
H1005 C1016 0.950 . S
H1006 C1018 0.950 . S
H1007 C1019 0.950 . S
C1008 H1000 0.950 . S
C1008 C1009 1.386 . S
C1008 C1010 1.391 . S
C1009 C1008 1.386 . S
C1009 C1013 1.393 . S
C1010 H1002 0.950 . S
C1010 C1008 1.391 . S
C1010 C1011 1.400 . S
C1011 C1010 1.400 . S
C1011 C1012 1.398 . S
C1011 C1017 1.491 . S
C1012 H1003 0.950 . S
C1012 C1011 1.398 . S
C1012 C1013 1.391 . S
C1013 H1001 0.950 . S
C1013 C1009 1.393 . S
C1013 C1012 1.391 . S
C1014 H1004 0.950 . S
C1014 C1015 1.386 . S
C1014 C1016 1.391 . S
C1015 C1014 1.386 . S
C1015 C1019 1.393 . S
C1016 H1005 0.950 . S
C1016 C1014 1.391 . S
C1016 C1017 1.400 . S
C1017 C1011 1.491 . S
C1017 C1016 1.400 . S
C1017 C1018 1.398 . S
C1018 H1006 0.950 . S
C1018 C1017 1.398 . S
C1018 C1019 1.391 . S
C1019 H1007 0.950 . S
C1019 C1015 1.393 . S
C1019 C1018 1.391 . S
H1020 C1028 0.950 . S
H1021 C1033 0.950 . S
H1022 C1030 0.950 . S
H1023 C1032 0.950 . S
H1024 C1034 0.950 . S
H1025 C1036 0.950 . S
H1026 C1038 0.950 . S
H1027 C1039 0.950 . S
C1028 H1020 0.950 . S
C1028 C1029 1.386 . S
C1028 C1030 1.391 . S
C1029 C1028 1.386 . S
C1029 C1033 1.393 . S
C1030 H1022 0.950 . S
C1030 C1028 1.391 . S
C1030 C1031 1.400 . S
C1031 C1030 1.400 . S
C1031 C1032 1.398 . S
C1031 C1037 1.491 . S
C1032 H1023 0.950 . S
C1032 C1031 1.398 . S
C1032 C1033 1.391 . S
C1033 H1021 0.950 . S
C1033 C1029 1.393 . S
C1033 C1032 1.391 . S
C1034 H1024 0.950 . S
C1034 C1035 1.386 . S
C1034 C1036 1.391 . S
C1035 C1034 1.386 . S
C1035 C1039 1.393 . S
C1036 H1025 0.950 . S
C1036 C1034 1.391 . S
C1036 C1037 1.400 . S
C1037 C1031 1.491 . S
C1037 C1036 1.400 . S
C1037 C1038 1.398 . S
C1038 H1026 0.950 . S
C1038 C1037 1.398 . S
C1038 C1039 1.391 . S
C1039 H1027 0.950 . S
C1039 C1035 1.393 . S
C1039 C1038 1.391 . S
H1040 C1048 0.950 . S
H1041 C1053 0.950 1_655 S
H1042 C1050 0.950 . S
H1043 C1052 0.950 1_655 S
H1044 C1054 0.950 . S
H1045 C1056 0.950 . S
H1046 C1058 0.950 . S
H1047 C1059 0.950 . S
C1048 H1040 0.950 . S
C1048 C1049 1.386 . S
C1048 C1050 1.391 . S
C1049 C1048 1.386 . S
C1049 C1053 1.393 . S
C1050 H1042 0.950 . S
C1050 C1048 1.391 . S
C1050 C1051 1.400 . S
C1051 C1050 1.400 . S
C1051 C1052 1.398 . S
C1051 C1057 1.491 . S
C1052 H1043 0.950 1_455 S
C1052 C1051 1.398 . S
C1052 C1053 1.391 . S
C1053 H1041 0.950 1_455 S
C1053 C1049 1.393 . S
C1053 C1052 1.391 . S
C1054 H1044 0.950 . S
C1054 C1055 1.386 1_655 S
C1054 C1056 1.391 . S
C1055 C1054 1.386 1_455 S
C1055 C1059 1.393 . S
C1056 H1045 0.950 . S
C1056 C1054 1.391 . S
C1056 C1057 1.400 1_655 S
C1057 C1051 1.491 . S
C1057 C1056 1.400 1_455 S
C1057 C1058 1.398 . S
C1058 H1046 0.950 . S
C1058 C1057 1.398 . S
C1058 C1059 1.391 . S
C1059 H1047 0.950 . S
C1059 C1055 1.393 . S
C1059 C1058 1.391 . S
H1060 C1068 0.950 . S
H1061 C1073 0.950 . S
H1062 C1070 0.950 . S
H1063 C1072 0.950 . S
H1064 C1074 0.950 . S
H1065 C1076 0.950 . S
H1066 C1078 0.950 . S
H1067 C1079 0.950 . S
C1068 H1060 0.950 . S
C1068 C1069 1.386 . S
C1068 C1070 1.391 . S
C1069 C1068 1.386 . S
C1069 C1073 1.393 . S
C1070 H1062 0.950 . S
C1070 C1068 1.391 . S
C1070 C1071 1.400 . S
C1071 C1070 1.400 . S
C1071 C1072 1.398 . S
C1071 C1077 1.491 . S
C1072 H1063 0.950 . S
C1072 C1071 1.398 . S
C1072 C1073 1.391 . S
C1073 H1061 0.950 . S
C1073 C1069 1.393 . S
C1073 C1072 1.391 . S
C1074 H1064 0.950 . S
C1074 C1075 1.386 . S
C1074 C1076 1.391 . S
C1075 C1074 1.386 . S
C1075 C1079 1.393 . S
C1076 H1065 0.950 . S
C1076 C1074 1.391 . S
C1076 C1077 1.400 . S
C1077 C1071 1.491 . S
C1077 C1076 1.400 . S
C1077 C1078 1.398 . S
C1078 H1066 0.950 . S
C1078 C1077 1.398 . S
C1078 C1079 1.391 . S
C1079 H1067 0.950 . S
C1079 C1075 1.393 . S
C1079 C1078 1.391 . S
H1080 C1088 0.950 . S
H1081 C1093 0.950 1_455 S
H1082 C1090 0.950 . S
H1083 C1092 0.950 1_455 S
H1084 C1094 0.950 . S
H1085 C1096 0.950 . S
H1086 C1098 0.950 . S
H1087 C1099 0.950 . S
C1088 H1080 0.950 . S
C1088 C1089 1.386 . S
C1088 C1090 1.391 . S
C1089 C1088 1.386 . S
C1089 C1093 1.393 . S
C1090 H1082 0.950 . S
C1090 C1088 1.391 . S
C1090 C1091 1.400 . S
C1091 C1090 1.400 . S
C1091 C1092 1.398 . S
C1091 C1097 1.491 . S
C1092 H1083 0.950 1_655 S
C1092 C1091 1.398 . S
C1092 C1093 1.391 . S
C1093 H1081 0.950 1_655 S
C1093 C1089 1.393 . S
C1093 C1092 1.391 . S
C1094 H1084 0.950 . S
C1094 C1095 1.386 1_455 S
C1094 C1096 1.391 . S
C1095 C1094 1.386 1_655 S
C1095 C1099 1.393 . S
C1096 H1085 0.950 . S
C1096 C1094 1.391 . S
C1096 C1097 1.400 1_455 S
C1097 C1091 1.491 . S
C1097 C1096 1.400 1_655 S
C1097 C1098 1.398 . S
C1098 H1086 0.950 . S
C1098 C1097 1.398 . S
C1098 C1099 1.391 . S
C1099 H1087 0.950 . S
C1099 C1095 1.393 . S
C1099 C1098 1.391 . S
H1100 C1108 0.950 . S
H1101 C1113 0.950 . S
H1102 C1110 0.950 . S
H1103 C1112 0.950 . S
H1104 C1114 0.950 . S
H1105 C1116 0.950 . S
H1106 C1118 0.950 . S
H1107 C1119 0.950 . S
C1108 H1100 0.950 . S
C1108 C1109 1.386 . S
C1108 C1110 1.391 . S
C1109 C1108 1.386 . S
C1109 C1113 1.393 . S
C1110 H1102 0.950 . S
C1110 C1108 1.391 . S
C1110 C1111 1.400 . S
C1111 C1110 1.400 . S
C1111 C1112 1.398 . S
C1111 C1117 1.491 . S
C1112 H1103 0.950 . S
C1112 C1111 1.398 . S
C1112 C1113 1.391 . S
C1113 H1101 0.950 . S
C1113 C1109 1.393 . S
C1113 C1112 1.391 . S
C1114 H1104 0.950 . S
C1114 C1115 1.386 . S
C1114 C1116 1.391 . S
C1115 C1114 1.386 . S
C1115 C1119 1.393 . S
C1116 H1105 0.950 . S
C1116 C1114 1.391 . S
C1116 C1117 1.400 . S
C1117 C1111 1.491 . S
C1117 C1116 1.400 . S
C1117 C1118 1.398 . S
C1118 H1106 0.950 . S
C1118 C1117 1.398 . S
C1118 C1119 1.391 . S
C1119 H1107 0.950 . S
C1119 C1115 1.393 . S
C1119 C1118 1.391 . S
H1120 C1128 0.950 . S
H1121 C1133 0.950 . S
H1122 C1130 0.950 . S
H1123 C1132 0.950 . S
H1124 C1134 0.950 . S
H1125 C1136 0.950 . S
H1126 C1138 0.950 . S
H1127 C1139 0.950 . S
C1128 H1120 0.950 . S
C1128 C1129 1.386 . S
C1128 C1130 1.391 . S
C1129 C1128 1.386 . S
C1129 C1133 1.393 . S
C1130 H1122 0.950 . S
C1130 C1128 1.391 . S
C1130 C1131 1.400 . S
C1131 C1130 1.400 . S
C1131 C1132 1.398 . S
C1131 C1137 1.491 . S
C1132 H1123 0.950 . S
C1132 C1131 1.398 . S
C1132 C1133 1.391 . S
C1133 H1121 0.950 . S
C1133 C1129 1.393 . S
C1133 C1132 1.391 . S
C1134 H1124 0.950 . S
C1134 C1135 1.386 . S
C1134 C1136 1.391 . S
C1135 C1134 1.386 . S
C1135 C1139 1.393 . S
C1136 H1125 0.950 . S
C1136 C1134 1.391 . S
C1136 C1137 1.400 . S
C1137 C1131 1.491 . S
C1137 C1136 1.400 . S
C1137 C1138 1.398 . S
C1138 H1126 0.950 . S
C1138 C1137 1.398 . S
C1138 C1139 1.391 . S
C1139 H1127 0.950 . S
C1139 C1135 1.393 . S
C1139 C1138 1.391 . S
H1140 C1148 0.950 . S
H1141 C1153 0.950 . S
H1142 C1150 0.950 . S
H1143 C1152 0.949 1_554 S
H1144 C1154 0.950 . S
H1145 C1156 0.950 . S
H1146 C1158 0.950 . S
H1147 C1159 0.950 . S
C1148 H1140 0.950 . S
C1148 C1149 1.386 . S
C1148 C1150 1.391 . S
C1149 C1148 1.386 . S
C1149 C1153 1.393 . S
C1150 H1142 0.950 . S
C1150 C1148 1.391 . S
C1150 C1151 1.400 . S
C1151 C1150 1.400 . S
C1151 C1152 1.398 . S
C1151 C1157 1.491 . S
C1152 H1143 0.949 1_556 S
C1152 C1151 1.398 . S
C1152 C1153 1.391 . S
C1153 H1141 0.950 . S
C1153 C1149 1.393 . S
C1153 C1152 1.391 . S
C1154 H1144 0.950 . S
C1154 C1155 1.386 . S
C1154 C1156 1.391 . S
C1155 C1154 1.386 . S
C1155 C1159 1.393 1_554 S
C1156 H1145 0.950 . S
C1156 C1154 1.391 . S
C1156 C1157 1.400 1_554 S
C1157 C1151 1.491 . S
C1157 C1156 1.400 1_556 S
C1157 C1158 1.398 . S
C1158 H1146 0.950 . S
C1158 C1157 1.398 . S
C1158 C1159 1.391 . S
C1159 H1147 0.950 . S
C1159 C1155 1.393 1_556 S
C1159 C1158 1.391 . S
H1160 C1168 0.950 . S
H1161 C1173 0.950 . S
H1162 C1170 0.950 . S
H1163 C1172 0.950 . S
H1164 C1174 0.950 . S
H1165 C1176 0.950 . S
H1166 C1178 0.950 . S
H1167 C1179 0.950 . S
C1168 H1160 0.950 . S
C1168 C1169 1.386 . S
C1168 C1170 1.391 . S
C1169 C1168 1.386 . S
C1169 C1173 1.393 . S
C1170 H1162 0.950 . S
C1170 C1168 1.391 . S
C1170 C1171 1.400 . S
C1171 C1170 1.400 . S
C1171 C1172 1.398 . S
C1171 C1177 1.491 . S
C1172 H1163 0.950 . S
C1172 C1171 1.398 . S
C1172 C1173 1.391 . S
C1173 H1161 0.950 . S
C1173 C1169 1.393 . S
C1173 C1172 1.391 . S
C1174 H1164 0.950 . S
C1174 C1175 1.386 . S
C1174 C1176 1.391 . S
C1175 C1174 1.386 . S
C1175 C1179 1.393 . S
C1176 H1165 0.950 . S
C1176 C1174 1.391 . S
C1176 C1177 1.400 . S
C1177 C1171 1.491 . S
C1177 C1176 1.400 . S
C1177 C1178 1.398 . S
C1178 H1166 0.950 . S
C1178 C1177 1.398 . S
C1178 C1179 1.391 . S
C1179 H1167 0.950 . S
C1179 C1175 1.393 . S
C1179 C1178 1.391 . S
H1180 C1188 0.950 . S
H1181 C1193 0.950 . S
H1182 C1190 0.950 . S
H1183 C1192 0.950 . S
H1184 C1194 0.950 . S
H1185 C1196 0.950 . S
H1186 C1198 0.950 . S
H1187 C1199 0.950 . S
C1188 H1180 0.950 . S
C1188 C1189 1.386 . S
C1188 C1190 1.391 . S
C1189 C1188 1.386 . S
C1189 C1193 1.393 . S
C1190 H1182 0.950 . S
C1190 C1188 1.391 . S
C1190 C1191 1.400 . S
C1191 C1190 1.400 . S
C1191 C1192 1.398 . S
C1191 C1197 1.491 . S
C1192 H1183 0.950 . S
C1192 C1191 1.398 . S
C1192 C1193 1.391 . S
C1193 H1181 0.950 . S
C1193 C1189 1.393 . S
C1193 C1192 1.391 . S
C1194 H1184 0.950 . S
C1194 C1195 1.386 . S
C1194 C1196 1.391 . S
C1195 C1194 1.386 . S
C1195 C1199 1.393 . S
C1196 H1185 0.950 . S
C1196 C1194 1.391 . S
C1196 C1197 1.400 . S
C1197 C1191 1.491 . S
C1197 C1196 1.400 . S
C1197 C1198 1.398 . S
C1198 H1186 0.950 . S
C1198 C1197 1.398 . S
C1198 C1199 1.391 . S
C1199 H1187 0.950 . S
C1199 C1195 1.393 . S
C1199 C1198 1.391 . S
H1200 C1208 0.950 . S
H1201 C1213 0.950 . S
H1202 C1210 0.950 . S
H1203 C1212 0.950 . S
H1204 C1214 0.950 . S
H1205 C1216 0.950 . S
H1206 C1218 0.950 . S
H1207 C1219 0.950 . S
C1208 H1200 0.950 . S
C1208 C1209 1.386 . S
C1208 C1210 1.391 . S
C1209 C1208 1.386 . S
C1209 C1213 1.393 . S
C1210 H1202 0.950 . S
C1210 C1208 1.391 . S
C1210 C1211 1.400 . S
C1211 C1210 1.400 . S
C1211 C1212 1.398 . S
C1211 C1217 1.491 . S
C1212 H1203 0.950 . S
C1212 C1211 1.398 . S
C1212 C1213 1.391 . S
C1213 H1201 0.950 . S
C1213 C1209 1.393 . S
C1213 C1212 1.391 . S
C1214 H1204 0.950 . S
C1214 C1215 1.386 . S
C1214 C1216 1.391 . S
C1215 C1214 1.386 . S
C1215 C1219 1.393 . S
C1216 H1205 0.950 . S
C1216 C1214 1.391 . S
C1216 C1217 1.400 . S
C1217 C1211 1.491 . S
C1217 C1216 1.400 . S
C1217 C1218 1.398 . S
C1218 H1206 0.950 . S
C1218 C1217 1.398 . S
C1218 C1219 1.391 . S
C1219 H1207 0.950 . S
C1219 C1215 1.393 . S
C1219 C1218 1.391 . S
H1220 C1228 0.950 . S
H1221 C1233 0.950 . S
H1222 C1230 0.950 . S
H1223 C1232 0.950 . S
H1224 C1234 0.950 . S
H1225 C1236 0.950 . S
H1226 C1238 0.950 . S
H1227 C1239 0.950 . S
C1228 H1220 0.950 . S
C1228 C1229 1.386 . S
C1228 C1230 1.391 . S
C1229 C1228 1.386 . S
C1229 C1233 1.393 . S
C1230 H1222 0.950 . S
C1230 C1228 1.391 . S
C1230 C1231 1.400 . S
C1231 C1230 1.400 . S
C1231 C1232 1.398 . S
C1231 C1237 1.491 . S
C1232 H1223 0.950 . S
C1232 C1231 1.398 . S
C1232 C1233 1.391 . S
C1233 H1221 0.950 . S
C1233 C1229 1.393 . S
C1233 C1232 1.391 . S
C1234 H1224 0.950 . S
C1234 C1235 1.386 . S
C1234 C1236 1.391 . S
C1235 C1234 1.386 . S
C1235 C1239 1.393 . S
C1236 H1225 0.950 . S
C1236 C1234 1.391 . S
C1236 C1237 1.400 . S
C1237 C1231 1.491 . S
C1237 C1236 1.400 . S
C1237 C1238 1.398 . S
C1238 H1226 0.950 . S
C1238 C1237 1.398 . S
C1238 C1239 1.391 . S
C1239 H1227 0.950 . S
C1239 C1235 1.393 . S
C1239 C1238 1.391 . S
H1240 C1248 0.950 . S
H1241 C1253 0.950 . S
H1242 C1250 0.950 . S
H1243 C1252 0.950 . S
H1244 C1254 0.950 . S
H1245 C1256 0.950 . S
H1246 C1258 0.950 . S
H1247 C1259 0.950 . S
C1248 H1240 0.950 . S
C1248 C1249 1.386 . S
C1248 C1250 1.391 . S
C1249 C1248 1.386 . S
C1249 C1253 1.393 . S
C1250 H1242 0.950 . S
C1250 C1248 1.391 . S
C1250 C1251 1.400 . S
C1251 C1250 1.400 . S
C1251 C1252 1.398 . S
C1251 C1257 1.491 . S
C1252 H1243 0.950 . S
C1252 C1251 1.398 . S
C1252 C1253 1.391 . S
C1253 H1241 0.950 . S
C1253 C1249 1.393 . S
C1253 C1252 1.391 . S
C1254 H1244 0.950 . S
C1254 C1255 1.386 . S
C1254 C1256 1.391 . S
C1255 C1254 1.386 . S
C1255 C1259 1.393 . S
C1256 H1245 0.950 . S
C1256 C1254 1.391 . S
C1256 C1257 1.400 . S
C1257 C1251 1.491 . S
C1257 C1256 1.400 . S
C1257 C1258 1.398 . S
C1258 H1246 0.950 . S
C1258 C1257 1.398 . S
C1258 C1259 1.391 . S
C1259 H1247 0.950 . S
C1259 C1255 1.393 . S
C1259 C1258 1.391 . S
H1260 C1268 0.950 . S
H1261 C1273 0.950 . S
H1262 C1270 0.950 . S
H1263 C1272 0.950 . S
H1264 C1274 0.950 . S
H1265 C1276 0.950 . S
H1266 C1278 0.950 . S
H1267 C1279 0.950 . S
C1268 H1260 0.950 . S
C1268 C1269 1.386 . S
C1268 C1270 1.391 . S
C1269 C1268 1.386 . S
C1269 C1273 1.393 . S
C1270 H1262 0.950 . S
C1270 C1268 1.391 . S
C1270 C1271 1.400 . S
C1271 C1270 1.400 . S
C1271 C1272 1.398 . S
C1271 C1277 1.491 . S
C1272 H1263 0.950 . S
C1272 C1271 1.398 . S
C1272 C1273 1.391 . S
C1273 H1261 0.950 . S
C1273 C1269 1.393 . S
C1273 C1272 1.391 . S
C1274 H1264 0.950 . S
C1274 C1275 1.386 . S
C1274 C1276 1.391 . S
C1275 C1274 1.386 . S
C1275 C1279 1.393 . S
C1276 H1265 0.950 . S
C1276 C1274 1.391 . S
C1276 C1277 1.400 . S
C1277 C1271 1.491 . S
C1277 C1276 1.400 . S
C1277 C1278 1.398 . S
C1278 H1266 0.950 . S
C1278 C1277 1.398 . S
C1278 C1279 1.391 . S
C1279 H1267 0.950 . S
C1279 C1275 1.393 . S
C1279 C1278 1.391 . S
H1280 C1288 0.950 . S
H1281 C1293 0.950 . S
H1282 C1290 0.950 . S
H1283 C1292 0.950 . S
H1284 C1294 0.950 . S
H1285 C1296 0.950 . S
H1286 C1298 0.950 . S
H1287 C1299 0.950 1_565 S
C1288 H1280 0.950 . S
C1288 C1289 1.386 . S
C1288 C1290 1.391 . S
C1289 C1288 1.386 . S
C1289 C1293 1.393 . S
C1290 H1282 0.950 . S
C1290 C1288 1.391 . S
C1290 C1291 1.400 . S
C1291 C1290 1.400 . S
C1291 C1292 1.398 . S
C1291 C1297 1.491 . S
C1292 H1283 0.950 . S
C1292 C1291 1.398 . S
C1292 C1293 1.391 . S
C1293 H1281 0.950 . S
C1293 C1289 1.393 . S
C1293 C1292 1.391 . S
C1294 H1284 0.950 . S
C1294 C1295 1.386 . S
C1294 C1296 1.391 . S
C1295 C1294 1.386 . S
C1295 C1299 1.393 . S
C1296 H1285 0.950 . S
C1296 C1294 1.391 . S
C1296 C1297 1.400 . S
C1297 C1291 1.491 . S
C1297 C1296 1.400 . S
C1297 C1298 1.398 . S
C1298 H1286 0.950 . S
C1298 C1297 1.398 . S
C1298 C1299 1.391 . S
C1299 H1287 0.950 1_545 S
C1299 C1295 1.393 . S
C1299 C1298 1.391 . S
H1300 C1308 0.950 . S
H1301 C1313 0.950 . S
H1302 C1310 0.950 . S
H1303 C1312 0.950 . S
H1304 C1314 0.950 . S
H1305 C1316 0.950 . S
H1306 C1318 0.950 . S
H1307 C1319 0.950 . S
C1308 H1300 0.950 . S
C1308 C1309 1.386 . S
C1308 C1310 1.391 . S
C1309 C1308 1.386 . S
C1309 C1313 1.393 . S
C1310 H1302 0.950 . S
C1310 C1308 1.391 . S
C1310 C1311 1.400 . S
C1311 C1310 1.400 . S
C1311 C1312 1.398 . S
C1311 C1317 1.491 . S
C1312 H1303 0.950 . S
C1312 C1311 1.398 . S
C1312 C1313 1.391 . S
C1313 H1301 0.950 . S
C1313 C1309 1.393 . S
C1313 C1312 1.391 . S
C1314 H1304 0.950 . S
C1314 C1315 1.386 . S
C1314 C1316 1.391 . S
C1315 C1314 1.386 . S
C1315 C1319 1.393 . S
C1316 H1305 0.950 . S
C1316 C1314 1.391 . S
C1316 C1317 1.400 . S
C1317 C1311 1.491 . S
C1317 C1316 1.400 . S
C1317 C1318 1.398 . S
C1318 H1306 0.950 . S
C1318 C1317 1.398 . S
C1318 C1319 1.391 . S
C1319 H1307 0.950 . S
C1319 C1315 1.393 . S
C1319 C1318 1.391 . S
H1320 C1328 0.950 . S
H1321 C1333 0.950 . S
H1322 C1330 0.950 . S
H1323 C1332 0.950 . S
H1324 C1334 0.950 . S
H1325 C1336 0.950 . S
H1326 C1338 0.950 . S
H1327 C1339 0.950 . S
C1328 H1320 0.950 . S
C1328 C1329 1.386 . S
C1328 C1330 1.391 . S
C1329 C1328 1.386 . S
C1329 C1333 1.393 . S
C1330 H1322 0.950 . S
C1330 C1328 1.391 . S
C1330 C1331 1.400 . S
C1331 C1330 1.400 . S
C1331 C1332 1.398 . S
C1331 C1337 1.491 . S
C1332 H1323 0.950 . S
C1332 C1331 1.398 . S
C1332 C1333 1.391 . S
C1333 H1321 0.950 . S
C1333 C1329 1.393 . S
C1333 C1332 1.391 . S
C1334 H1324 0.950 . S
C1334 C1335 1.386 . S
C1334 C1336 1.391 . S
C1335 C1334 1.386 . S
C1335 C1339 1.393 . S
C1336 H1325 0.950 . S
C1336 C1334 1.391 . S
C1336 C1337 1.400 . S
C1337 C1331 1.491 . S
C1337 C1336 1.400 . S
C1337 C1338 1.398 . S
C1338 H1326 0.950 . S
C1338 C1337 1.398 . S
C1338 C1339 1.391 . S
C1339 H1327 0.950 . S
C1339 C1335 1.393 . S
C1339 C1338 1.391 . S
H1340 C1348 0.950 . S
H1341 C1353 0.950 . S
H1342 C1350 0.950 . S
H1343 C1352 0.950 . S
H1344 C1354 0.950 . S
H1345 C1356 0.950 . S
H1346 C1358 0.950 . S
H1347 C1359 0.950 . S
C1348 H1340 0.950 . S
C1348 C1349 1.386 . S
C1348 C1350 1.391 . S
C1349 C1348 1.386 . S
C1349 C1353 1.393 . S
C1350 H1342 0.950 . S
C1350 C1348 1.391 . S
C1350 C1351 1.400 . S
C1351 C1350 1.400 . S
C1351 C1352 1.398 . S
C1351 C1357 1.491 . S
C1352 H1343 0.950 . S
C1352 C1351 1.398 . S
C1352 C1353 1.391 . S
C1353 H1341 0.950 . S
C1353 C1349 1.393 . S
C1353 C1352 1.391 . S
C1354 H1344 0.950 . S
C1354 C1355 1.386 . S
C1354 C1356 1.391 . S
C1355 C1354 1.386 . S
C1355 C1359 1.393 . S
C1356 H1345 0.950 . S
C1356 C1354 1.391 . S
C1356 C1357 1.400 . S
C1357 C1351 1.491 . S
C1357 C1356 1.400 . S
C1357 C1358 1.398 . S
C1358 H1346 0.950 . S
C1358 C1357 1.398 . S
C1358 C1359 1.391 . S
C1359 H1347 0.950 . S
C1359 C1355 1.393 . S
C1359 C1358 1.391 . S
H1360 C1368 0.950 . S
H1361 C1373 0.950 . S
H1362 C1370 0.950 . S
H1363 C1372 0.950 . S
H1364 C1374 0.950 . S
H1365 C1376 0.950 . S
H1366 C1378 0.950 . S
H1367 C1379 0.950 . S
C1368 H1360 0.950 . S
C1368 C1369 1.386 . S
C1368 C1370 1.391 . S
C1369 C1368 1.386 . S
C1369 C1373 1.393 . S
C1370 H1362 0.950 . S
C1370 C1368 1.391 . S
C1370 C1371 1.400 . S
C1371 C1370 1.400 . S
C1371 C1372 1.398 . S
C1371 C1377 1.491 . S
C1372 H1363 0.950 . S
C1372 C1371 1.398 . S
C1372 C1373 1.391 . S
C1373 H1361 0.950 . S
C1373 C1369 1.393 . S
C1373 C1372 1.391 . S
C1374 H1364 0.950 . S
C1374 C1375 1.386 . S
C1374 C1376 1.391 . S
C1375 C1374 1.386 . S
C1375 C1379 1.393 . S
C1376 H1365 0.950 . S
C1376 C1374 1.391 . S
C1376 C1377 1.400 . S
C1377 C1371 1.491 . S
C1377 C1376 1.400 . S
C1377 C1378 1.398 . S
C1378 H1366 0.950 . S
C1378 C1377 1.398 . S
C1378 C1379 1.391 . S
C1379 H1367 0.950 . S
C1379 C1375 1.393 . S
C1379 C1378 1.391 . S
H1380 C1388 0.950 . S
H1381 C1393 0.950 . S
H1382 C1390 0.950 . S
H1383 C1392 0.950 . S
H1384 C1394 0.950 . S
H1385 C1396 0.950 . S
H1386 C1398 0.950 . S
H1387 C1399 0.950 . S
C1388 H1380 0.950 . S
C1388 C1389 1.386 . S
C1388 C1390 1.391 . S
C1389 C1388 1.386 . S
C1389 C1393 1.393 . S
C1390 H1382 0.950 . S
C1390 C1388 1.391 . S
C1390 C1391 1.400 . S
C1391 C1390 1.400 . S
C1391 C1392 1.398 . S
C1391 C1397 1.491 . S
C1392 H1383 0.950 . S
C1392 C1391 1.398 . S
C1392 C1393 1.391 . S
C1393 H1381 0.950 . S
C1393 C1389 1.393 . S
C1393 C1392 1.391 . S
C1394 H1384 0.950 . S
C1394 C1395 1.386 . S
C1394 C1396 1.391 . S
C1395 C1394 1.386 . S
C1395 C1399 1.393 . S
C1396 H1385 0.950 . S
C1396 C1394 1.391 . S
C1396 C1397 1.400 . S
C1397 C1391 1.491 . S
C1397 C1396 1.400 . S
C1397 C1398 1.398 . S
C1398 H1386 0.950 . S
C1398 C1397 1.398 . S
C1398 C1399 1.391 . S
C1399 H1387 0.950 . S
C1399 C1395 1.393 . S
C1399 C1398 1.391 . S
H1400 C1408 0.950 . S
H1401 C1413 0.950 . S
H1402 C1410 0.950 . S
H1403 C1412 0.950 . S
H1404 C1414 0.950 . S
H1405 C1416 0.950 . S
H1406 C1418 0.950 . S
H1407 C1419 0.950 . S
C1408 H1400 0.950 . S
C1408 C1409 1.386 . S
C1408 C1410 1.391 . S
C1409 C1408 1.386 . S
C1409 C1413 1.393 . S
C1410 H1402 0.950 . S
C1410 C1408 1.391 . S
C1410 C1411 1.400 . S
C1411 C1410 1.400 . S
C1411 C1412 1.398 . S
C1411 C1417 1.491 . S
C1412 H1403 0.950 . S
C1412 C1411 1.398 . S
C1412 C1413 1.391 . S
C1413 H1401 0.950 . S
C1413 C1409 1.393 . S
C1413 C1412 1.391 . S
C1414 H1404 0.950 . S
C1414 C1415 1.386 . S
C1414 C1416 1.391 . S
C1415 C1414 1.386 . S
C1415 C1419 1.393 . S
C1416 H1405 0.950 . S
C1416 C1414 1.391 . S
C1416 C1417 1.400 . S
C1417 C1411 1.491 . S
C1417 C1416 1.400 . S
C1417 C1418 1.398 . S
C1418 H1406 0.950 . S
C1418 C1417 1.398 . S
C1418 C1419 1.391 . S
C1419 H1407 0.950 . S
C1419 C1415 1.393 . S
C1419 C1418 1.391 . S
H1420 C1428 0.950 . S
H1421 C1433 0.950 . S
H1422 C1430 0.950 . S
H1423 C1432 0.950 . S
H1424 C1434 0.950 . S
H1425 C1436 0.950 . S
H1426 C1438 0.950 . S
H1427 C1439 0.950 . S
C1428 H1420 0.950 . S
C1428 C1429 1.386 . S
C1428 C1430 1.391 . S
C1429 C1428 1.386 . S
C1429 C1433 1.393 . S
C1430 H1422 0.950 . S
C1430 C1428 1.391 . S
C1430 C1431 1.400 . S
C1431 C1430 1.400 . S
C1431 C1432 1.398 . S
C1431 C1437 1.491 . S
C1432 H1423 0.950 . S
C1432 C1431 1.398 . S
C1432 C1433 1.391 . S
C1433 H1421 0.950 . S
C1433 C1429 1.393 . S
C1433 C1432 1.391 . S
C1434 H1424 0.950 . S
C1434 C1435 1.386 . S
C1434 C1436 1.391 . S
C1435 C1434 1.386 . S
C1435 C1439 1.393 . S
C1436 H1425 0.950 . S
C1436 C1434 1.391 . S
C1436 C1437 1.400 . S
C1437 C1431 1.491 . S
C1437 C1436 1.400 . S
C1437 C1438 1.398 . S
C1438 H1426 0.950 . S
C1438 C1437 1.398 . S
C1438 C1439 1.391 . S
C1439 H1427 0.950 . S
C1439 C1435 1.393 . S
C1439 C1438 1.391 . S
H1440 C1448 0.950 . S
H1441 C1453 0.950 . S
H1442 C1450 0.950 . S
H1443 C1452 0.950 . S
H1444 C1454 0.950 1_455 S
H1445 C1456 0.955 . S
H1446 C1458 0.950 . S
H1447 C1459 0.950 . S
C1448 H1440 0.950 . S
C1448 C1449 1.386 . S
C1448 C1450 1.391 . S
C1449 C1448 1.386 . S
C1449 C1453 1.393 . S
C1450 H1442 0.950 . S
C1450 C1448 1.391 . S
C1450 C1451 1.400 . S
C1451 C1450 1.400 . S
C1451 C1452 1.398 . S
C1451 C1457 1.491 . S
C1452 H1443 0.950 . S
C1452 C1451 1.398 . S
C1452 C1453 1.391 . S
C1453 H1441 0.950 . S
C1453 C1449 1.393 . S
C1453 C1452 1.391 . S
C1454 H1444 0.950 1_655 S
C1454 C1455 1.386 . S
C1454 C1456 1.391 . S
C1455 C1454 1.386 . S
C1455 C1459 1.393 . S
C1456 H1445 0.955 . S
C1456 C1454 1.391 . S
C1456 C1457 1.400 . S
C1457 C1451 1.491 . S
C1457 C1456 1.400 . S
C1457 C1458 1.398 . S
C1458 H1446 0.950 . S
C1458 C1457 1.398 . S
C1458 C1459 1.391 . S
C1459 H1447 0.950 . S
C1459 C1455 1.393 . S
C1459 C1458 1.391 . S
H1460 C1468 0.950 . S
H1461 C1473 0.950 . S
H1462 C1470 0.950 . S
H1463 C1472 0.950 . S
H1464 C1474 0.950 . S
H1465 C1476 0.950 . S
H1466 C1478 0.950 . S
H1467 C1479 0.950 . S
C1468 H1460 0.950 . S
C1468 C1469 1.386 . S
C1468 C1470 1.391 . S
C1469 C1468 1.386 . S
C1469 C1473 1.393 . S
C1470 H1462 0.950 . S
C1470 C1468 1.391 . S
C1470 C1471 1.400 . S
C1471 C1470 1.400 . S
C1471 C1472 1.398 . S
C1471 C1477 1.491 . S
C1472 H1463 0.950 . S
C1472 C1471 1.398 . S
C1472 C1473 1.391 . S
C1473 H1461 0.950 . S
C1473 C1469 1.393 . S
C1473 C1472 1.391 . S
C1474 H1464 0.950 . S
C1474 C1475 1.386 . S
C1474 C1476 1.391 . S
C1475 C1474 1.386 . S
C1475 C1479 1.393 . S
C1476 H1465 0.950 . S
C1476 C1474 1.391 . S
C1476 C1477 1.400 . S
C1477 C1471 1.491 . S
C1477 C1476 1.400 . S
C1477 C1478 1.398 . S
C1478 H1466 0.950 . S
C1478 C1477 1.398 . S
C1478 C1479 1.391 . S
C1479 H1467 0.950 . S
C1479 C1475 1.393 . S
C1479 C1478 1.391 . S
H1480 C1488 0.950 . S
H1481 C1493 0.950 . S
H1482 C1490 0.950 . S
H1483 C1492 0.950 1_655 S
H1484 C1494 0.966 . S
H1485 C1496 0.950 1_655 S
H1486 C1498 0.950 . S
H1487 C1499 0.950 . S
C1488 H1480 0.950 . S
C1488 C1489 1.386 . S
C1488 C1490 1.391 . S
C1489 C1488 1.386 . S
C1489 C1493 1.393 . S
C1490 H1482 0.950 . S
C1490 C1488 1.391 . S
C1490 C1491 1.400 . S
C1491 C1490 1.400 . S
C1491 C1492 1.398 . S
C1491 C1497 1.491 . S
C1492 H1483 0.950 1_455 S
C1492 C1491 1.398 . S
C1492 C1493 1.391 . S
C1493 H1481 0.950 . S
C1493 C1489 1.393 . S
C1493 C1492 1.391 . S
C1494 H1484 0.966 . S
C1494 C1495 1.373 1_655 S
C1494 C1496 1.388 1_655 S
C1495 C1494 1.373 1_455 S
C1495 C1499 1.393 . S
C1496 H1485 0.950 1_455 S
C1496 C1494 1.388 1_455 S
C1496 C1497 1.400 . S
C1497 C1491 1.491 . S
C1497 C1496 1.400 . S
C1497 C1498 1.398 . S
C1498 H1486 0.950 . S
C1498 C1497 1.398 . S
C1498 C1499 1.391 . S
C1499 H1487 0.950 . S
C1499 C1495 1.393 . S
C1499 C1498 1.391 . S
H1500 C1508 0.950 . S
H1501 C1513 0.950 . S
H1502 C1510 0.950 . S
H1503 C1512 0.950 . S
H1504 C1514 0.950 . S
H1505 C1516 0.950 . S
H1506 C1518 0.950 . S
H1507 C1519 0.950 . S
C1508 H1500 0.950 . S
C1508 C1509 1.386 . S
C1508 C1510 1.391 . S
C1509 C1508 1.386 . S
C1509 C1513 1.393 . S
C1510 H1502 0.950 . S
C1510 C1508 1.391 . S
C1510 C1511 1.400 . S
C1511 C1510 1.400 . S
C1511 C1512 1.398 . S
C1511 C1517 1.491 . S
C1512 H1503 0.950 . S
C1512 C1511 1.398 . S
C1512 C1513 1.391 . S
C1513 H1501 0.950 . S
C1513 C1509 1.393 . S
C1513 C1512 1.391 . S
C1514 H1504 0.950 . S
C1514 C1515 1.386 . S
C1514 C1516 1.391 . S
C1515 C1514 1.386 . S
C1515 C1519 1.393 . S
C1516 H1505 0.950 . S
C1516 C1514 1.391 . S
C1516 C1517 1.400 . S
C1517 C1511 1.491 . S
C1517 C1516 1.400 . S
C1517 C1518 1.398 . S
C1518 H1506 0.950 . S
C1518 C1517 1.398 . S
C1518 C1519 1.391 . S
C1519 H1507 0.950 . S
C1519 C1515 1.393 . S
C1519 C1518 1.391 . S
H1520 C1528 0.950 . S
H1521 C1533 0.950 . S
H1522 C1530 0.950 . S
H1523 C1532 0.950 . S
H1524 C1534 0.950 . S
H1525 C1536 0.950 . S
H1526 C1538 0.950 . S
H1527 C1539 0.950 . S
C1528 H1520 0.950 . S
C1528 C1529 1.386 . S
C1528 C1530 1.391 . S
C1529 C1528 1.386 . S
C1529 C1533 1.393 . S
C1530 H1522 0.950 . S
C1530 C1528 1.391 . S
C1530 C1531 1.400 . S
C1531 C1530 1.400 . S
C1531 C1532 1.398 . S
C1531 C1537 1.491 . S
C1532 H1523 0.950 . S
C1532 C1531 1.398 . S
C1532 C1533 1.391 . S
C1533 H1521 0.950 . S
C1533 C1529 1.393 . S
C1533 C1532 1.391 . S
C1534 H1524 0.950 . S
C1534 C1535 1.386 . S
C1534 C1536 1.391 . S
C1535 C1534 1.386 . S
C1535 C1539 1.393 . S
C1536 H1525 0.950 . S
C1536 C1534 1.391 . S
C1536 C1537 1.400 . S
C1537 C1531 1.491 . S
C1537 C1536 1.400 . S
C1537 C1538 1.398 . S
C1538 H1526 0.950 . S
C1538 C1537 1.398 . S
C1538 C1539 1.391 . S
C1539 H1527 0.950 . S
C1539 C1535 1.393 . S
C1539 C1538 1.391 . S
H1540 C1548 0.950 . S
H1541 C1553 0.950 . S
H1542 C1550 0.950 . S
H1543 C1552 0.950 . S
H1544 C1554 0.950 . S
H1545 C1556 0.950 . S
H1546 C1558 0.950 . S
H1547 C1559 0.950 . S
C1548 H1540 0.950 . S
C1548 C1549 1.386 . S
C1548 C1550 1.391 . S
C1549 C1548 1.386 . S
C1549 C1553 1.393 . S
C1550 H1542 0.950 . S
C1550 C1548 1.391 . S
C1550 C1551 1.400 . S
C1551 C1550 1.400 . S
C1551 C1552 1.398 . S
C1551 C1557 1.491 . S
C1552 H1543 0.950 . S
C1552 C1551 1.398 . S
C1552 C1553 1.391 . S
C1553 H1541 0.950 . S
C1553 C1549 1.393 . S
C1553 C1552 1.391 . S
C1554 H1544 0.950 . S
C1554 C1555 1.386 . S
C1554 C1556 1.391 . S
C1555 C1554 1.386 . S
C1555 C1559 1.393 . S
C1556 H1545 0.950 . S
C1556 C1554 1.391 . S
C1556 C1557 1.400 . S
C1557 C1551 1.491 . S
C1557 C1556 1.400 . S
C1557 C1558 1.398 . S
C1558 H1546 0.950 . S
C1558 C1557 1.398 . S
C1558 C1559 1.391 . S
C1559 H1547 0.950 . S
C1559 C1555 1.393 . S
C1559 C1558 1.391 . S
H1560 C1568 0.950 . S
H1561 C1573 0.950 . S
H1562 C1570 0.950 . S
H1563 C1572 0.950 . S
H1564 C1574 0.950 . S
H1565 C1576 0.950 . S
H1566 C1578 0.950 . S
H1567 C1579 0.950 . S
C1568 H1560 0.950 . S
C1568 C1569 1.386 . S
C1568 C1570 1.391 . S
C1569 C1568 1.386 . S
C1569 C1573 1.393 . S
C1570 H1562 0.950 . S
C1570 C1568 1.391 . S
C1570 C1571 1.400 . S
C1571 C1570 1.400 . S
C1571 C1572 1.398 . S
C1571 C1577 1.491 . S
C1572 H1563 0.950 . S
C1572 C1571 1.398 . S
C1572 C1573 1.391 . S
C1573 H1561 0.950 . S
C1573 C1569 1.393 . S
C1573 C1572 1.391 . S
C1574 H1564 0.950 . S
C1574 C1575 1.386 . S
C1574 C1576 1.391 . S
C1575 C1574 1.386 . S
C1575 C1579 1.393 . S
C1576 H1565 0.950 . S
C1576 C1574 1.391 . S
C1576 C1577 1.400 . S
C1577 C1571 1.491 . S
C1577 C1576 1.400 . S
C1577 C1578 1.398 . S
C1578 H1566 0.950 . S
C1578 C1577 1.398 . S
C1578 C1579 1.391 . S
C1579 H1567 0.950 . S
C1579 C1575 1.393 . S
C1579 C1578 1.391 . S
H1580 C1588 0.950 . S
H1581 C1593 0.950 . S
H1582 C1590 0.950 . S
H1583 C1592 0.950 . S
H1584 C1594 0.950 . S
H1585 C1596 0.950 . S
H1586 C1598 0.950 . S
H1587 C1599 0.950 . S
C1588 H1580 0.950 . S
C1588 C1589 1.386 . S
C1588 C1590 1.391 . S
C1589 C1588 1.386 . S
C1589 C1593 1.393 . S
C1590 H1582 0.950 . S
C1590 C1588 1.391 . S
C1590 C1591 1.400 . S
C1591 C1590 1.400 . S
C1591 C1592 1.398 . S
C1591 C1597 1.491 . S
C1592 H1583 0.950 . S
C1592 C1591 1.398 . S
C1592 C1593 1.391 . S
C1593 H1581 0.950 . S
C1593 C1589 1.393 . S
C1593 C1592 1.391 . S
C1594 H1584 0.950 . S
C1594 C1595 1.386 . S
C1594 C1596 1.391 . S
C1595 C1594 1.386 . S
C1595 C1599 1.393 . S
C1596 H1585 0.950 . S
C1596 C1594 1.391 . S
C1596 C1597 1.400 . S
C1597 C1591 1.491 . S
C1597 C1596 1.400 . S
C1597 C1598 1.398 . S
C1598 H1586 0.950 . S
C1598 C1597 1.398 . S
C1598 C1599 1.391 . S
C1599 H1587 0.950 . S
C1599 C1595 1.393 . S
C1599 C1598 1.391 . S
H1600 C1608 0.950 . S
H1601 C1613 0.950 . S
H1602 C1610 0.950 . S
H1603 C1612 0.950 . S
H1604 C1614 0.950 . S
H1605 C1616 0.950 . S
H1606 C1618 0.950 . S
H1607 C1619 0.950 . S
C1608 H1600 0.950 . S
C1608 C1609 1.386 . S
C1608 C1610 1.391 . S
C1609 C1608 1.386 . S
C1609 C1613 1.393 . S
C1610 H1602 0.950 . S
C1610 C1608 1.391 . S
C1610 C1611 1.400 . S
C1611 C1610 1.400 . S
C1611 C1612 1.398 . S
C1611 C1617 1.491 . S
C1612 H1603 0.950 . S
C1612 C1611 1.398 . S
C1612 C1613 1.391 . S
C1613 H1601 0.950 . S
C1613 C1609 1.393 . S
C1613 C1612 1.391 . S
C1614 H1604 0.950 . S
C1614 C1615 1.386 . S
C1614 C1616 1.391 . S
C1615 C1614 1.386 . S
C1615 C1619 1.393 . S
C1616 H1605 0.950 . S
C1616 C1614 1.391 . S
C1616 C1617 1.400 . S
C1617 C1611 1.491 . S
C1617 C1616 1.400 . S
C1617 C1618 1.398 . S
C1618 H1606 0.950 . S
C1618 C1617 1.398 . S
C1618 C1619 1.391 . S
C1619 H1607 0.950 . S
C1619 C1615 1.393 . S
C1619 C1618 1.391 . S
H1620 C1628 0.950 . S
H1621 C1633 0.950 . S
H1622 C1630 0.950 . S
H1623 C1632 0.950 . S
H1624 C1634 0.950 . S
H1625 C1636 0.950 . S
H1626 C1638 0.950 . S
H1627 C1639 0.950 . S
C1628 H1620 0.950 . S
C1628 C1629 1.386 . S
C1628 C1630 1.391 . S
C1629 C1628 1.386 . S
C1629 C1633 1.393 . S
C1630 H1622 0.950 . S
C1630 C1628 1.391 . S
C1630 C1631 1.400 . S
C1631 C1630 1.400 . S
C1631 C1632 1.398 . S
C1631 C1637 1.491 . S
C1632 H1623 0.950 . S
C1632 C1631 1.398 . S
C1632 C1633 1.391 . S
C1633 H1621 0.950 . S
C1633 C1629 1.393 . S
C1633 C1632 1.391 . S
C1634 H1624 0.950 . S
C1634 C1635 1.386 . S
C1634 C1636 1.391 . S
C1635 C1634 1.386 . S
C1635 C1639 1.393 . S
C1636 H1625 0.950 . S
C1636 C1634 1.391 . S
C1636 C1637 1.400 . S
C1637 C1631 1.491 . S
C1637 C1636 1.400 . S
C1637 C1638 1.398 . S
C1638 H1626 0.950 . S
C1638 C1637 1.398 . S
C1638 C1639 1.391 . S
C1639 H1627 0.950 . S
C1639 C1635 1.393 . S
C1639 C1638 1.391 . S
H1640 C1648 0.950 . S
H1641 C1653 0.950 . S
H1642 C1650 0.950 . S
H1643 C1652 0.950 . S
H1644 C1654 0.950 . S
H1645 C1656 0.950 . S
H1646 C1658 0.950 . S
H1647 C1659 0.950 . S
C1648 H1640 0.950 . S
C1648 C1649 1.386 . S
C1648 C1650 1.391 . S
C1649 C1648 1.386 . S
C1649 C1653 1.393 . S
C1650 H1642 0.950 . S
C1650 C1648 1.391 . S
C1650 C1651 1.400 . S
C1651 C1650 1.400 . S
C1651 C1652 1.398 . S
C1651 C1657 1.491 . S
C1652 H1643 0.950 . S
C1652 C1651 1.398 . S
C1652 C1653 1.391 . S
C1653 H1641 0.950 . S
C1653 C1649 1.393 . S
C1653 C1652 1.391 . S
C1654 H1644 0.950 . S
C1654 C1655 1.386 . S
C1654 C1656 1.391 . S
C1655 C1654 1.386 . S
C1655 C1659 1.393 . S
C1656 H1645 0.950 . S
C1656 C1654 1.391 . S
C1656 C1657 1.400 . S
C1657 C1651 1.491 . S
C1657 C1656 1.400 . S
C1657 C1658 1.398 . S
C1658 H1646 0.950 . S
C1658 C1657 1.398 . S
C1658 C1659 1.391 . S
C1659 H1647 0.950 . S
C1659 C1655 1.393 . S
C1659 C1658 1.391 . S
H1660 C1668 0.950 . S
H1661 C1673 0.950 . S
H1662 C1670 0.950 . S
H1663 C1672 0.950 . S
H1664 C1674 0.950 . S
H1665 C1676 0.950 . S
H1666 C1678 0.950 1_554 S
H1667 C1679 0.937 1_554 S
C1668 H1660 0.950 . S
C1668 C1669 1.386 . S
C1668 C1670 1.391 . S
C1669 C1668 1.386 . S
C1669 C1673 1.393 . S
C1670 H1662 0.950 . S
C1670 C1668 1.391 . S
C1670 C1671 1.400 . S
C1671 C1670 1.400 . S
C1671 C1672 1.398 . S
C1671 C1677 1.491 . S
C1672 H1663 0.950 . S
C1672 C1671 1.398 . S
C1672 C1673 1.391 . S
C1673 H1661 0.950 . S
C1673 C1669 1.393 . S
C1673 C1672 1.391 . S
C1674 H1664 0.950 . S
C1674 C1675 1.386 . S
C1674 C1676 1.391 . S
C1675 C1674 1.386 . S
C1675 C1679 1.403 . S
C1676 H1665 0.950 . S
C1676 C1674 1.391 . S
C1676 C1677 1.400 . S
C1677 C1671 1.491 . S
C1677 C1676 1.400 . S
C1677 C1678 1.398 . S
C1678 H1666 0.950 1_556 S
C1678 C1677 1.398 . S
C1678 C1679 1.394 . S
C1679 H1667 0.937 1_556 S
C1679 C1675 1.403 . S
C1679 C1678 1.394 . S
H1680 C1688 0.950 . S
H1681 C1693 0.950 . S
H1682 C1690 0.950 . S
H1683 C1692 0.950 . S
H1684 C1694 0.950 . S
H1685 C1696 0.950 . S
H1686 C1698 0.950 . S
H1687 C1699 0.950 . S
C1688 H1680 0.950 . S
C1688 C1689 1.386 . S
C1688 C1690 1.391 . S
C1689 C1688 1.386 . S
C1689 C1693 1.393 . S
C1690 H1682 0.950 . S
C1690 C1688 1.391 . S
C1690 C1691 1.400 . S
C1691 C1690 1.400 . S
C1691 C1692 1.398 . S
C1691 C1697 1.491 . S
C1692 H1683 0.950 . S
C1692 C1691 1.398 . S
C1692 C1693 1.391 . S
C1693 H1681 0.950 . S
C1693 C1689 1.393 . S
C1693 C1692 1.391 . S
C1694 H1684 0.950 . S
C1694 C1695 1.386 . S
C1694 C1696 1.391 . S
C1695 C1694 1.386 . S
C1695 C1699 1.393 . S
C1696 H1685 0.950 . S
C1696 C1694 1.391 . S
C1696 C1697 1.400 . S
C1697 C1691 1.491 . S
C1697 C1696 1.400 . S
C1697 C1698 1.398 . S
C1698 H1686 0.950 . S
C1698 C1697 1.398 . S
C1698 C1699 1.391 . S
C1699 H1687 0.950 . S
C1699 C1695 1.393 . S
C1699 C1698 1.391 . S
H1700 C1708 0.950 1_556 S
H1701 C1713 0.950 . S
H1702 C1710 0.950 . S
H1703 C1712 0.950 . S
H1704 C1714 0.950 . S
H1705 C1716 0.950 . S
H1706 C1718 0.950 . S
H1707 C1719 0.950 . S
C1708 H1700 0.950 1_554 S
C1708 C1709 1.386 . S
C1708 C1710 1.391 1_554 S
C1709 C1708 1.386 . S
C1709 C1713 1.393 . S
C1710 H1702 0.950 . S
C1710 C1708 1.391 1_556 S
C1710 C1711 1.400 1_556 S
C1711 C1710 1.400 1_554 S
C1711 C1712 1.398 . S
C1711 C1717 1.491 . S
C1712 H1703 0.950 . S
C1712 C1711 1.398 . S
C1712 C1713 1.391 . S
C1713 H1701 0.950 . S
C1713 C1709 1.393 . S
C1713 C1712 1.391 . S
C1714 H1704 0.950 . S
C1714 C1715 1.386 . S
C1714 C1716 1.391 . S
C1715 C1714 1.386 . S
C1715 C1719 1.393 1_554 S
C1716 H1705 0.950 . S
C1716 C1714 1.391 . S
C1716 C1717 1.400 . S
C1717 C1711 1.491 . S
C1717 C1716 1.400 . S
C1717 C1718 1.398 1_554 S
C1718 H1706 0.950 . S
C1718 C1717 1.398 1_556 S
C1718 C1719 1.391 . S
C1719 H1707 0.950 . S
C1719 C1715 1.393 1_556 S
C1719 C1718 1.391 . S
H1720 C1728 0.950 1_545 S
H1721 C1733 0.950 . S
H1722 C1730 0.950 . S
H1723 C1732 0.950 . S
H1724 C1734 0.950 . S
H1725 C1736 0.950 . S
H1726 C1738 0.950 . S
H1727 C1739 0.950 . S
C1728 H1720 0.950 1_565 S
C1728 C1729 1.386 . S
C1728 C1730 1.391 . S
C1729 C1728 1.386 . S
C1729 C1733 1.393 . S
C1730 H1722 0.950 . S
C1730 C1728 1.391 . S
C1730 C1731 1.400 . S
C1731 C1730 1.400 . S
C1731 C1732 1.398 . S
C1731 C1737 1.491 . S
C1732 H1723 0.950 . S
C1732 C1731 1.398 . S
C1732 C1733 1.391 . S
C1733 H1721 0.950 . S
C1733 C1729 1.393 . S
C1733 C1732 1.391 . S
C1734 H1724 0.950 . S
C1734 C1735 1.386 . S
C1734 C1736 1.391 . S
C1735 C1734 1.386 . S
C1735 C1739 1.393 . S
C1736 H1725 0.950 . S
C1736 C1734 1.391 . S
C1736 C1737 1.400 . S
C1737 C1731 1.491 . S
C1737 C1736 1.400 . S
C1737 C1738 1.398 . S
C1738 H1726 0.950 . S
C1738 C1737 1.398 . S
C1738 C1739 1.391 . S
C1739 H1727 0.950 . S
C1739 C1735 1.393 . S
C1739 C1738 1.391 . S
C795 C634 1.408 . S
C789 C211 1.415 . S
C815 C647 1.592 . S
C809 C255 1.610 . S
C829 C274 1.455 . S
C835 C660 1.447 . S
C855 C673 1.521 . S
C849 C157 1.539 . S
C875 C681 1.473 . S
C869 C391 1.501 . S
C895 C694 1.421 . S
C889 C484 1.431 . S
C909 C450 1.518 . S
C915 C707 1.486 . S
C935 C720 1.494 . S
C929 C352 1.520 . S
C949 C430 1.434 . S
C955 C738 1.429 . S
C975 C749 1.513 . S
C969 C367 1.551 . S
C989 C411 1.475 . S
C995 C733 1.454 . S
C1015 C741 1.466 . S
C1009 C469 1.485 . S
C1029 C294 1.493 . S
C1035 C764 1.478 . S
C1049 C177 1.520 . S
C1055 C754 1.498 . S
C1069 C196 1.511 . S
C1075 C759 1.481 . S
C1089 C235 1.570 . S
C1095 C762 1.537 1_655 S
C1109 C133 1.447 . S
C1115 C671 1.423 . S
C1129 C567 1.419 . S
C1135 C663 1.395 . S
C1155 C632 1.542 . S
C1149 C601 1.573 . S
C1175 C637 1.491 . S
C1169 C328 1.515 . S
C1189 C172 1.543 . S
C1195 C684 1.512 . S
C1215 C723 1.509 . S
C1209 C445 1.532 . S
C1235 C676 1.489 . S
C1229 C372 1.525 . S
C1255 C702 1.440 . S
C1249 C489 1.470 . S
C1275 C712 1.407 . S
C1269 C562 1.416 . S
C1289 C606 1.608 . S
C1295 C725 1.591 . S
C1309 C313 1.456 . S
C1315 C686 1.449 . S
C1335 C699 1.526 . S
C1329 C508 1.538 . S
C1349 C118 1.502 . S
C1355 C655 1.481 . S
C1375 C668 1.421 . S
C1369 C16 1.431 . S
C1395 C629 1.488 . S
C1389 C60 1.517 . S
C1415 C642 1.493 . S
C1409 C79 1.519 . S
C1429 C40 1.436 . S
C1435 C751 1.417 . S
C1449 C94 1.553 . S
C1455 C736 1.521 1_655 S
C1469 C138 1.475 . S
C1475 C746 1.441 . S
C1489 C1 1.485 . S
C1495 C728 1.466 . S
C1515 C777 1.478 . S
C1509 C333 1.493 . S
C1535 C767 1.499 . S
C1529 C528 1.521 . S
C1555 C772 1.490 . S
C1549 C547 1.511 . S
C1569 C586 1.569 . S
C1575 C775 1.531 . S
C1589 C406 1.450 . S
C1595 C697 1.434 . S
C1615 C689 1.392 . S
C1609 C216 1.420 . S
C1635 C710 1.548 . S
C1629 C250 1.573 . S
C1655 C715 1.489 . S
C1649 C289 1.520 . S
C1669 C523 1.540 . S
C1675 C658 1.511 . S
C1695 C645 1.504 . S
C1689 C55 1.536 . S
C1709 C99 1.525 . S
C1715 C650 1.492 . S
C1735 C624 1.430 . S
C1729 C21 1.469 . S
